# Generated by pormake.
# Topology ptr, (4,4)-cn, num edge types: 1
# Building blocks:
#     Node 0, Type 0, BuildingBlock: AZAVOO_clean_sbu_0, # of connection points: 4
#     Node 1, Type 0, BuildingBlock: AZAVOO_clean_sbu_0, # of connection points: 4
#     Node 2, Type 0, BuildingBlock: AZAVOO_clean_sbu_0, # of connection points: 4
#     Node 3, Type 0, BuildingBlock: AZAVOO_clean_sbu_0, # of connection points: 4
#     Node 4, Type 0, BuildingBlock: AZAVOO_clean_sbu_0, # of connection points: 4
#     Node 5, Type 0, BuildingBlock: AZAVOO_clean_sbu_0, # of connection points: 4
#     Node 6, Type 0, BuildingBlock: AZAVOO_clean_sbu_0, # of connection points: 4
#     Node 7, Type 0, BuildingBlock: AZAVOO_clean_sbu_0, # of connection points: 4
#     Node 8, Type 0, BuildingBlock: AZAVOO_clean_sbu_0, # of connection points: 4
#     Node 9, Type 0, BuildingBlock: AZAVOO_clean_sbu_0, # of connection points: 4
#     Node 10, Type 0, BuildingBlock: AZAVOO_clean_sbu_0, # of connection points: 4
#     Node 11, Type 0, BuildingBlock: AZAVOO_clean_sbu_0, # of connection points: 4
#     Node 12, Type 0, BuildingBlock: AZAVOO_clean_sbu_0, # of connection points: 4
#     Node 13, Type 0, BuildingBlock: AZAVOO_clean_sbu_0, # of connection points: 4
#     Node 14, Type 0, BuildingBlock: AZAVOO_clean_sbu_0, # of connection points: 4
#     Node 15, Type 0, BuildingBlock: AZAVOO_clean_sbu_0, # of connection points: 4
#     Node 16, Type 0, BuildingBlock: AZAVOO_clean_sbu_0, # of connection points: 4
#     Node 17, Type 0, BuildingBlock: AZAVOO_clean_sbu_0, # of connection points: 4
#     Node 18, Type 1, BuildingBlock: GIZVER_clean_linker_0, # of connection points: 4
#     Node 19, Type 1, BuildingBlock: GIZVER_clean_linker_0, # of connection points: 4
#     Node 20, Type 1, BuildingBlock: GIZVER_clean_linker_0, # of connection points: 4
#     Node 21, Type 1, BuildingBlock: GIZVER_clean_linker_0, # of connection points: 4
#     Node 22, Type 1, BuildingBlock: GIZVER_clean_linker_0, # of connection points: 4
#     Node 23, Type 1, BuildingBlock: GIZVER_clean_linker_0, # of connection points: 4
#     Node 24, Type 1, BuildingBlock: GIZVER_clean_linker_0, # of connection points: 4
#     Node 25, Type 1, BuildingBlock: GIZVER_clean_linker_0, # of connection points: 4
#     Node 26, Type 1, BuildingBlock: GIZVER_clean_linker_0, # of connection points: 4
#     Node 27, Type 1, BuildingBlock: GIZVER_clean_linker_0, # of connection points: 4
#     Node 28, Type 1, BuildingBlock: GIZVER_clean_linker_0, # of connection points: 4
#     Node 29, Type 1, BuildingBlock: GIZVER_clean_linker_0, # of connection points: 4
#     Node 30, Type 1, BuildingBlock: GIZVER_clean_linker_0, # of connection points: 4
#     Node 31, Type 1, BuildingBlock: GIZVER_clean_linker_0, # of connection points: 4
#     Node 32, Type 1, BuildingBlock: GIZVER_clean_linker_0, # of connection points: 4
#     Node 33, Type 1, BuildingBlock: GIZVER_clean_linker_0, # of connection points: 4
#     Node 34, Type 1, BuildingBlock: GIZVER_clean_linker_0, # of connection points: 4
#     Node 35, Type 1, BuildingBlock: GIZVER_clean_linker_0, # of connection points: 4
#     Edge 36, Type (0, 1), BuildingBlock: XIVTED_clean_linker_0, # of connection points: 2
#     Edge 37, Type (0, 1), BuildingBlock: XIVTED_clean_linker_0, # of connection points: 2
#     Edge 38, Type (0, 1), BuildingBlock: XIVTED_clean_linker_0, # of connection points: 2
#     Edge 39, Type (0, 1), BuildingBlock: XIVTED_clean_linker_0, # of connection points: 2
#     Edge 40, Type (0, 1), BuildingBlock: XIVTED_clean_linker_0, # of connection points: 2
#     Edge 41, Type (0, 1), BuildingBlock: XIVTED_clean_linker_0, # of connection points: 2
#     Edge 42, Type (0, 1), BuildingBlock: XIVTED_clean_linker_0, # of connection points: 2
#     Edge 43, Type (0, 1), BuildingBlock: XIVTED_clean_linker_0, # of connection points: 2
#     Edge 44, Type (0, 1), BuildingBlock: XIVTED_clean_linker_0, # of connection points: 2
#     Edge 45, Type (0, 1), BuildingBlock: XIVTED_clean_linker_0, # of connection points: 2
#     Edge 46, Type (0, 1), BuildingBlock: XIVTED_clean_linker_0, # of connection points: 2
#     Edge 47, Type (0, 1), BuildingBlock: XIVTED_clean_linker_0, # of connection points: 2
#     Edge 48, Type (0, 1), BuildingBlock: XIVTED_clean_linker_0, # of connection points: 2
#     Edge 49, Type (0, 1), BuildingBlock: XIVTED_clean_linker_0, # of connection points: 2
#     Edge 50, Type (0, 1), BuildingBlock: XIVTED_clean_linker_0, # of connection points: 2
#     Edge 51, Type (0, 1), BuildingBlock: XIVTED_clean_linker_0, # of connection points: 2
#     Edge 52, Type (0, 1), BuildingBlock: XIVTED_clean_linker_0, # of connection points: 2
#     Edge 53, Type (0, 1), BuildingBlock: XIVTED_clean_linker_0, # of connection points: 2
#     Edge 54, Type (0, 1), BuildingBlock: XIVTED_clean_linker_0, # of connection points: 2
#     Edge 55, Type (0, 1), BuildingBlock: XIVTED_clean_linker_0, # of connection points: 2
#     Edge 56, Type (0, 1), BuildingBlock: XIVTED_clean_linker_0, # of connection points: 2
#     Edge 57, Type (0, 1), BuildingBlock: XIVTED_clean_linker_0, # of connection points: 2
#     Edge 58, Type (0, 1), BuildingBlock: XIVTED_clean_linker_0, # of connection points: 2
#     Edge 59, Type (0, 1), BuildingBlock: XIVTED_clean_linker_0, # of connection points: 2
#     Edge 60, Type (0, 1), BuildingBlock: XIVTED_clean_linker_0, # of connection points: 2
#     Edge 61, Type (0, 1), BuildingBlock: XIVTED_clean_linker_0, # of connection points: 2
#     Edge 62, Type (0, 1), BuildingBlock: XIVTED_clean_linker_0, # of connection points: 2
#     Edge 63, Type (0, 1), BuildingBlock: XIVTED_clean_linker_0, # of connection points: 2
#     Edge 64, Type (0, 1), BuildingBlock: XIVTED_clean_linker_0, # of connection points: 2
#     Edge 65, Type (0, 1), BuildingBlock: XIVTED_clean_linker_0, # of connection points: 2
#     Edge 66, Type (0, 1), BuildingBlock: XIVTED_clean_linker_0, # of connection points: 2
#     Edge 67, Type (0, 1), BuildingBlock: XIVTED_clean_linker_0, # of connection points: 2
#     Edge 68, Type (0, 1), BuildingBlock: XIVTED_clean_linker_0, # of connection points: 2
#     Edge 69, Type (0, 1), BuildingBlock: XIVTED_clean_linker_0, # of connection points: 2
#     Edge 70, Type (0, 1), BuildingBlock: XIVTED_clean_linker_0, # of connection points: 2
#     Edge 71, Type (0, 1), BuildingBlock: XIVTED_clean_linker_0, # of connection points: 2
#     Edge 72, Type (0, 1), BuildingBlock: XIVTED_clean_linker_0, # of connection points: 2
#     Edge 73, Type (0, 1), BuildingBlock: XIVTED_clean_linker_0, # of connection points: 2
#     Edge 74, Type (0, 1), BuildingBlock: XIVTED_clean_linker_0, # of connection points: 2
#     Edge 75, Type (0, 1), BuildingBlock: XIVTED_clean_linker_0, # of connection points: 2
#     Edge 76, Type (0, 1), BuildingBlock: XIVTED_clean_linker_0, # of connection points: 2
#     Edge 77, Type (0, 1), BuildingBlock: XIVTED_clean_linker_0, # of connection points: 2
#     Edge 78, Type (0, 1), BuildingBlock: XIVTED_clean_linker_0, # of connection points: 2
#     Edge 79, Type (0, 1), BuildingBlock: XIVTED_clean_linker_0, # of connection points: 2
#     Edge 80, Type (0, 1), BuildingBlock: XIVTED_clean_linker_0, # of connection points: 2
#     Edge 81, Type (0, 1), BuildingBlock: XIVTED_clean_linker_0, # of connection points: 2
#     Edge 82, Type (0, 1), BuildingBlock: XIVTED_clean_linker_0, # of connection points: 2
#     Edge 83, Type (0, 1), BuildingBlock: XIVTED_clean_linker_0, # of connection points: 2
#     Edge 84, Type (0, 1), BuildingBlock: XIVTED_clean_linker_0, # of connection points: 2
#     Edge 85, Type (0, 1), BuildingBlock: XIVTED_clean_linker_0, # of connection points: 2
#     Edge 86, Type (0, 1), BuildingBlock: XIVTED_clean_linker_0, # of connection points: 2
#     Edge 87, Type (0, 1), BuildingBlock: XIVTED_clean_linker_0, # of connection points: 2
#     Edge 88, Type (0, 1), BuildingBlock: XIVTED_clean_linker_0, # of connection points: 2
#     Edge 89, Type (0, 1), BuildingBlock: XIVTED_clean_linker_0, # of connection points: 2
#     Edge 90, Type (0, 1), BuildingBlock: XIVTED_clean_linker_0, # of connection points: 2
#     Edge 91, Type (0, 1), BuildingBlock: XIVTED_clean_linker_0, # of connection points: 2
#     Edge 92, Type (0, 1), BuildingBlock: XIVTED_clean_linker_0, # of connection points: 2
#     Edge 93, Type (0, 1), BuildingBlock: XIVTED_clean_linker_0, # of connection points: 2
#     Edge 94, Type (0, 1), BuildingBlock: XIVTED_clean_linker_0, # of connection points: 2
#     Edge 95, Type (0, 1), BuildingBlock: XIVTED_clean_linker_0, # of connection points: 2
#     Edge 96, Type (0, 1), BuildingBlock: XIVTED_clean_linker_0, # of connection points: 2
#     Edge 97, Type (0, 1), BuildingBlock: XIVTED_clean_linker_0, # of connection points: 2
#     Edge 98, Type (0, 1), BuildingBlock: XIVTED_clean_linker_0, # of connection points: 2
#     Edge 99, Type (0, 1), BuildingBlock: XIVTED_clean_linker_0, # of connection points: 2
#     Edge 100, Type (0, 1), BuildingBlock: XIVTED_clean_linker_0, # of connection points: 2
#     Edge 101, Type (0, 1), BuildingBlock: XIVTED_clean_linker_0, # of connection points: 2
#     Edge 102, Type (0, 1), BuildingBlock: XIVTED_clean_linker_0, # of connection points: 2
#     Edge 103, Type (0, 1), BuildingBlock: XIVTED_clean_linker_0, # of connection points: 2
#     Edge 104, Type (0, 1), BuildingBlock: XIVTED_clean_linker_0, # of connection points: 2
#     Edge 105, Type (0, 1), BuildingBlock: XIVTED_clean_linker_0, # of connection points: 2
#     Edge 106, Type (0, 1), BuildingBlock: XIVTED_clean_linker_0, # of connection points: 2
#     Edge 107, Type (0, 1), BuildingBlock: XIVTED_clean_linker_0, # of connection points: 2
# Relax obj value: 0.078
# Max RMSD: 0.236
# Mean RMSD: 0.124
data_MOF--net-ptr--node1-AZAVOO_clean_sbu_0--node2-GIZVER_clean_linker_0--edge1-XIVTED_clean_linker_0
_symmetry_space_group_name_H-M    P1
_symmetry_Int_Tables_number       1
_symmetry_cell_setting            triclinic
loop_
_symmetry_equiv_pos_as_xyz
'x, y, z'
_cell_length_a     81.029179
_cell_length_b     79.932425
_cell_length_c     46.256926
_cell_angle_alpha  91.626594
_cell_angle_beta   91.509463
_cell_angle_gamma 120.07005
loop_
_atom_site_label
_atom_site_type_symbol
_atom_site_fract_x
_atom_site_fract_y
_atom_site_fract_z
_atom_type_partial_charge
Mg0 Mg 0.99418 0.36244 0.97753 0.0
O1 O 0.99543 0.38079 0.01793 0.0
O2 O 0.9732 0.38916 0.0102 0.0
Mg3 Mg 0.95743 0.37585 0.96668 0.0
C4 C 0.98668 0.38965 0.02582 0.0
C5 C 0.02677 0.35391 0.98416 0.0
O6 O 0.02764 0.35938 0.95745 0.0
O7 O 0.96699 0.33616 0.99231 0.0
O8 O 0.94535 0.34508 0.98321 0.0
O9 O 0.01458 0.38944 0.95658 0.0
O10 O 0.98326 0.37633 0.95235 0.0
C11 C 0.94976 0.33269 0.99176 0.0
C12 C 0.99993 0.39044 0.94716 0.0
O13 O 0.01376 0.35326 -0.00023 0.0
Mg14 Mg 0.61926 0.6355 0.04749 0.0
O15 O 0.60281 0.619 0.00572 0.0
O16 O 0.5734 0.61478 0.00529 0.0
Mg17 Mg 0.57122 0.62909 0.04749 0.0
C18 C 0.58626 0.61249 0.99357 0.0
C19 C 0.66046 0.64111 0.04302 0.0
O20 O 0.6591 0.63971 0.07119 0.0
O21 O 0.62302 0.66363 0.03038 0.0
O22 O 0.59365 0.65931 0.03313 0.0
O23 O 0.60809 0.60772 0.06962 0.0
O24 O 0.59364 0.62494 0.06848 0.0
C25 C 0.61125 0.66975 0.02752 0.0
C26 C 0.59351 0.60946 0.07589 0.0
O27 O 0.64675 0.64032 0.02782 0.0
Mg28 Mg 0.40566 0.01623 0.99038 0.0
O29 O 0.42223 0.01881 0.03271 0.0
O30 O 0.45046 0.0462 0.03343 0.0
Mg31 Mg 0.45248 0.06029 0.99033 0.0
C32 C 0.43835 0.03079 0.04515 0.0
C33 C 0.36294 0.98386 0.99286 0.0
O34 O 0.36325 0.98801 0.96553 0.0
O35 O 0.40014 0.04013 0.00623 0.0
O36 O 0.42882 0.0666 0.00328 0.0
O37 O 0.41828 1.0003 0.96878 0.0
O38 O 0.43108 0.03208 0.96975 0.0
C39 C 0.41112 0.05847 0.00861 0.0
C40 C 0.4321 0.01703 0.96208 0.0
O41 O 0.37815 0.99301 0.00883 0.0
Mg42 Mg 0.01677 0.65328 0.01326 0.0
O43 O 0.01999 0.63645 0.97398 0.0
O44 O 0.04622 0.63481 0.98504 0.0
Mg45 Mg 0.05966 0.65002 0.02853 0.0
C46 C 0.032 0.631 0.96798 0.0
C47 C 0.98099 0.65531 0.00776 0.0
O48 O 0.98302 0.65189 0.03486 0.0
O49 O 0.04104 0.68199 -0.00195 0.0
O50 O 0.06628 0.67876 0.00921 0.0
O51 O 0.99971 0.62556 0.03498 0.0
O52 O 0.03107 0.64353 0.04001 0.0
C53 C 0.05903 0.68848 -0.00096 0.0
C54 C 0.0157 0.62772 0.04521 0.0
O55 O 0.99362 0.65714 0.9903 0.0
Mg56 Mg 0.37348 0.3681 0.96685 0.0
O57 O 0.39112 0.38482 0.00863 0.0
O58 O 0.42017 0.38844 0.00413 0.0
Mg59 Mg 0.42129 0.37439 0.96152 0.0
C60 C 0.40827 0.39105 0.01831 0.0
C61 C 0.34215 0.37573 0.99201 0.0
O62 O 0.35577 0.39373 0.98956 0.0
O63 O 0.37036 0.33997 0.9833 0.0
O64 O 0.39981 0.34483 0.97854 0.0
O65 O 0.38356 0.39584 0.94492 0.0
O66 O 0.39851 0.37912 0.94443 0.0
C67 C 0.38255 0.33435 0.98565 0.0
C68 C 0.39819 0.3945 0.9377 0.0
O69 O 0.34542 0.36208 0.98587 0.0
Mg70 Mg 0.6072 0.98465 0.02918 0.0
O71 O 0.59004 0.98005 0.98666 0.0
O72 O 0.56384 0.95079 0.98589 0.0
Mg73 Mg 0.56394 0.93686 0.02833 0.0
C74 C 0.57449 0.96679 0.97421 0.0
C75 C 0.64939 0.01739 0.02542 0.0
O76 O 0.6505 0.00886 0.04866 0.0
O77 O 0.61676 0.9639 0.01249 0.0
O78 O 0.59026 0.93511 0.01511 0.0
O79 O 0.59097 0.9968 0.051 0.0
O80 O 0.58229 0.96582 0.04913 0.0
C81 C 0.60791 0.94543 0.00977 0.0
C82 C 0.57867 0.97919 0.05687 0.0
O83 O 0.63332 0.01072 0.01182 0.0
Mg84 Mg 0.66633 0.69754 0.30547 0.0
O85 O 0.66768 0.71541 0.34663 0.0
O86 O 0.64411 0.7221 0.34091 0.0
Mg87 Mg 0.62746 0.70833 0.29824 0.0
C88 C 0.65832 0.72339 0.35554 0.0
C89 C 0.70482 0.70305 0.33032 0.0
O90 O 0.70931 0.72103 0.32636 0.0
O91 O 0.64045 0.67053 0.32171 0.0
O92 O 0.61753 0.67802 0.31506 0.0
O93 O 0.6849 0.72483 0.28341 0.0
O94 O 0.65346 0.71026 0.28188 0.0
C95 C 0.62303 0.66629 0.3228 0.0
C96 C 0.6695 0.72488 0.27551 0.0
O97 O 0.68758 0.68965 0.32545 0.0
Mg98 Mg 0.28514 0.96162 0.386 0.0
O99 O 0.26834 0.94595 0.34375 0.0
O100 O 0.23979 0.94393 0.34441 0.0
Mg101 Mg 0.23786 0.95703 0.38786 0.0
C102 C 0.25195 0.94083 0.33197 0.0
C103 C 0.32862 0.9816 0.37225 0.0
O104 O 0.32899 0.9959 0.38754 0.0
O105 O 0.28979 0.99046 0.37017 0.0
O106 O 0.26089 0.98713 0.37439 0.0
O107 O 0.27327 0.93336 0.40684 0.0
O108 O 0.25961 0.95132 0.40709 0.0
C109 C 0.27844 0.99717 0.36834 0.0
C110 C 0.25898 0.93545 0.41361 0.0
O111 O 0.31278 0.96603 0.36722 0.0
Mg112 Mg 0.0654 0.35291 0.32311 0.0
O113 O 0.08044 0.35411 0.36641 0.0
O114 O 0.10979 0.38005 0.36745 0.0
Mg115 Mg 0.11397 0.39444 0.32415 0.0
C116 C 0.09671 0.36523 0.37918 0.0
C117 C 0.02624 0.31516 0.3264 0.0
O118 O 0.03302 0.31078 0.30374 0.0
O119 O 0.06217 0.37845 0.33795 0.0
O120 O 0.09183 0.40337 0.33519 0.0
O121 O 0.0763 0.33488 0.30297 0.0
O122 O 0.09149 0.36682 0.30367 0.0
C123 C 0.07418 0.39658 0.33999 0.0
C124 C 0.09119 0.35096 0.29669 0.0
O125 O 0.03638 0.33149 0.33984 0.0
Mg126 Mg 0.67624 0.97461 0.36158 0.0
O127 O 0.67929 0.95907 0.32056 0.0
O128 O 0.70388 0.95446 0.331 0.0
Mg129 Mg 0.71748 0.96819 0.37523 0.0
C130 C 0.69028 0.95246 0.31397 0.0
C131 C 0.64121 0.97843 0.35605 0.0
O132 O 0.64188 0.97322 0.38256 0.0
O133 O 0.70162 0.00335 0.34897 0.0
O134 O 0.72579 0.99815 0.35879 0.0
O135 O 0.65783 0.94612 0.38096 0.0
O136 O 0.68924 0.96274 0.38672 0.0
C137 C 0.71944 0.00898 0.35008 0.0
C138 C 0.6734 0.94716 0.3909 0.0
O139 O 0.65439 0.98076 0.33937 0.0
Mg140 Mg 0.04707 0.71919 0.28818 0.0
O141 O 0.06381 0.73414 0.3309 0.0
O142 O 0.09426 0.74205 0.32617 0.0
Mg143 Mg 0.09685 0.73162 0.28097 0.0
C144 C 0.08101 0.74164 0.34101 0.0
C145 C 0.00362 0.70272 0.29355 0.0
O146 O 0.00433 0.69972 0.26565 0.0
O147 O 0.04713 0.69171 0.29997 0.0
O148 O 0.0775 0.70001 0.29339 0.0
O149 O 0.05428 0.74739 0.26974 0.0
O150 O 0.07203 0.73367 0.26589 0.0
C151 C 0.06051 0.68764 0.29986 0.0
C152 C 0.06968 0.74814 0.26105 0.0
O153 O 0.01893 0.70998 0.30936 0.0
Mg154 Mg 0.28369 0.3229 0.364 0.0
O155 O 0.26573 0.3177 0.32199 0.0
O156 O 0.23869 0.28934 0.32451 0.0
Mg157 Mg 0.2392 0.27663 0.36785 0.0
C158 C 0.24949 0.30455 0.31118 0.0
C159 C 0.32583 0.35446 0.35957 0.0
O160 O 0.32623 0.34682 0.38417 0.0
O161 O 0.29139 0.30048 0.34868 0.0
O162 O 0.26421 0.27271 0.35391 0.0
O163 O 0.2695 0.33749 0.3846 0.0
O164 O 0.25892 0.3061 0.38575 0.0
C165 C 0.28173 0.282 0.3474 0.0
C166 C 0.25648 0.32051 0.3919 0.0
O167 O 0.31009 0.34745 0.34489 0.0
Mg168 Mg 0.32342 0.025 0.64597 0.0
O169 O 0.32365 0.04248 0.68674 0.0
O170 O 0.29997 0.04889 0.67997 0.0
Mg171 Mg 0.28433 0.03521 0.63651 0.0
C172 C 0.314 0.05025 0.69519 0.0
C173 C 0.35767 0.01882 0.65194 0.0
O174 O 0.35817 0.02418 0.62523 0.0
O175 O 0.29733 0.99766 0.66093 0.0
O176 O 0.27425 0.00473 0.65277 0.0
O177 O 0.34229 0.05261 0.62487 0.0
O178 O 0.3108 0.03749 0.62146 0.0
C179 C 0.27978 0.9931 0.6609 0.0
C180 C 0.32689 0.05234 0.61589 0.0
O181 O 0.34442 0.01747 0.66766 0.0
Mg182 Mg 0.95686 0.29716 0.72301 0.0
O183 O 0.94179 0.28088 0.68019 0.0
O184 O 0.9124 0.27678 0.67793 0.0
Mg185 Mg 0.90891 0.29103 0.71909 0.0
C186 C 0.9255 0.27446 0.66715 0.0
C187 C 1.00108 0.31684 0.71233 0.0
O188 O 1.00168 0.33163 0.72652 0.0
O189 O 0.96151 0.32544 0.70502 0.0
O190 O 0.93202 0.32108 0.70525 0.0
O191 O 0.94466 0.26923 0.74487 0.0
O192 O 0.93058 0.28674 0.74192 0.0
C193 C 0.9498 0.33152 0.70073 0.0
C194 C 0.93 0.27112 0.74973 0.0
O195 O 0.98509 0.3015 0.7071 0.0
Mg196 Mg 0.73067 0.67344 0.64949 0.0
O197 O 0.74809 0.67677 0.69148 0.0
O198 O 0.77687 0.70318 0.68823 0.0
Mg199 Mg 0.77841 0.71551 0.64386 0.0
C200 C 0.76484 0.6888 0.70203 0.0
C201 C 0.69285 0.63523 0.65831 0.0
O202 O 0.69965 0.62976 0.63685 0.0
O203 O 0.72745 0.6991 0.66369 0.0
O204 O 0.7565 0.72425 0.6573 0.0
O205 O 0.74096 0.65501 0.62911 0.0
O206 O 0.75563 0.68682 0.62711 0.0
C207 C 0.73916 0.71729 0.66417 0.0
C208 C 0.75531 0.67086 0.62087 0.0
O209 O 0.70263 0.65239 0.66931 0.0
Mg210 Mg 0.33846 0.30421 0.69531 0.0
O211 O 0.34304 0.28875 0.65548 0.0
O212 O 0.36769 0.28502 0.66936 0.0
Mg213 Mg 0.37855 0.29707 0.71525 0.0
C214 C 0.3549 0.28291 0.65052 0.0
C215 C 0.30448 0.30898 0.68743 0.0
O216 O 0.30446 0.30313 0.71369 0.0
O217 O 0.36485 0.33283 0.68486 0.0
O218 O 0.3883 0.32744 0.69907 0.0
O219 O 0.31856 0.27579 0.71356 0.0
O220 O 0.34979 0.29167 0.72213 0.0
C221 C 0.38257 0.33839 0.68863 0.0
C222 C 0.33352 0.27639 0.72529 0.0
O223 O 0.31791 0.31139 0.67123 0.0
Mg224 Mg 0.71244 0.04609 0.6261 0.0
O225 O 0.72831 0.0608 0.66975 0.0
O226 O 0.75793 0.06571 0.66697 0.0
Mg227 Mg 0.76132 0.05508 0.62256 0.0
C228 C 0.7451 0.06687 0.68085 0.0
C229 C 0.67996 0.05064 0.65354 0.0
O230 O 0.69362 0.06886 0.65471 0.0
O231 O 0.71023 0.01764 0.63905 0.0
O232 O 0.74014 0.0239 0.63423 0.0
O233 O 0.72195 0.07479 0.6073 0.0
O234 O 0.73824 0.05946 0.60564 0.0
C235 C 0.72276 0.0124 0.63995 0.0
C236 C 0.73721 0.07463 0.60017 0.0
O237 O 0.6835 0.03773 0.64406 0.0
Mg238 Mg 0.93926 0.64798 0.69219 0.0
O239 O 0.92257 0.64279 0.64892 0.0
O240 O 0.89613 0.61373 0.64882 0.0
Mg241 Mg 0.89568 0.60046 0.69211 0.0
C242 C 0.90703 0.62941 0.63657 0.0
C243 C 0.98175 0.67991 0.68851 0.0
O244 O 0.98252 0.6711 0.71162 0.0
O245 O 0.94873 0.62677 0.67736 0.0
O246 O 0.92194 0.59823 0.68009 0.0
O247 O 0.92297 0.6607 0.71222 0.0
O248 O 0.91405 0.62967 0.71198 0.0
C249 C 0.93968 0.60829 0.6751 0.0
C250 C 0.91049 0.64326 0.71858 0.0
O251 O 0.96576 0.67367 0.67482 0.0
H252 H 0.16611 0.3304 0.12495 0.0
H253 H 0.13643 0.32083 0.04171 0.0
H254 H 0.12544 0.34883 0.11318 0.0
H255 H 0.15386 0.29881 0.07647 0.0
H256 H 0.16105 0.31266 0.04528 0.0
H257 H 0.17622 0.30867 0.12086 0.0
H258 H 0.236 0.34186 0.10553 0.0
H259 H 0.19477 0.33473 0.03887 0.0
C260 C 0.15656 0.33216 0.1104 0.0
C261 C 0.14668 0.34083 0.12179 0.0
C262 C 0.15351 0.32535 0.08114 0.0
C263 C 0.13979 0.32694 0.06374 0.0
C264 C 0.12943 0.33516 0.07534 0.0
C265 C 0.13348 0.34261 0.10404 0.0
C266 C 0.16243 0.31386 0.06935 0.0
C267 C 0.18311 0.32168 0.07932 0.0
C268 C 0.18761 0.31764 0.10695 0.0
C269 C 0.20667 0.32571 0.1171 0.0
C270 C 0.22125 0.3365 0.09846 0.0
C271 C 0.21708 0.33942 0.07015 0.0
C272 C 0.19801 0.33233 0.06072 0.0
H273 H 0.69693 0.84264 0.13774 0.0
H274 H 0.68204 0.82751 0.04671 0.0
H275 H 0.65652 0.78406 0.10928 0.0
H276 H 0.71715 0.86426 0.09914 0.0
H277 H 0.70865 0.85914 0.06206 0.0
H278 H 0.70222 0.87593 0.13475 0.0
H279 H 0.67104 0.90192 0.09981 0.0
H280 H 0.68598 0.86844 0.04378 0.0
C281 C 0.68851 0.83206 0.12047 0.0
C282 C 0.67607 0.81278 0.12705 0.0
C283 C 0.69038 0.83763 0.09155 0.0
C284 C 0.68013 0.82355 0.0691 0.0
C285 C 0.66771 0.80428 0.0756 0.0
C286 C 0.66551 0.79915 0.10451 0.0
C287 C 0.70405 0.85832 0.08468 0.0
C288 C 0.69492 0.87062 0.08894 0.0
C289 C 0.69512 0.87848 0.1167 0.0
C290 C 0.68665 0.88997 0.121 0.0
C291 C 0.678 0.89344 0.09705 0.0
C292 C 0.678 0.88601 0.06931 0.0
C293 C 0.68614 0.87432 0.06526 0.0
H294 H 0.17876 0.82589 0.12678 0.0
H295 H 0.18143 0.82405 0.03452 0.0
H296 H 0.12825 0.80803 0.07321 0.0
H297 H 0.20623 0.82643 0.10097 0.0
H298 H 0.2091 0.83193 0.06372 0.0
H299 H 0.2053 0.85284 0.13668 0.0
H300 H 0.25077 0.90953 0.12125 0.0
H301 H 0.23252 0.8641 0.05499 0.0
C302 C 0.17205 0.82456 0.10572 0.0
C303 C 0.1523 0.8175 0.1033 0.0
C304 C 0.18296 0.82838 0.08103 0.0
C305 C 0.17348 0.82302 0.05351 0.0
C306 C 0.15351 0.81465 0.05068 0.0
C307 C 0.14347 0.8137 0.07546 0.0
C308 C 0.20405 0.83498 0.08428 0.0
C309 C 0.21624 0.85623 0.09366 0.0
C310 C 0.21507 0.86274 0.12173 0.0
C311 C 0.22711 0.88204 0.13132 0.0
C312 C 0.24097 0.89479 0.11326 0.0
C313 C 0.24343 0.88832 0.08608 0.0
C314 C 0.23057 0.86921 0.07587 0.0
H315 H 0.35978 0.19156 0.86102 0.0
H316 H 0.37132 0.19888 0.95278 0.0
H317 H 0.33223 0.21425 0.91459 0.0
H318 H 0.38692 0.19082 0.88235 0.0
H319 H 0.39164 0.19364 0.92053 0.0
H320 H 0.36225 0.15907 0.85947 0.0
H321 H 0.35309 0.10972 0.90633 0.0
H322 H 0.37862 0.16589 0.95015 0.0
C323 C 0.35648 0.19503 0.88208 0.0
C324 C 0.3447 0.20324 0.88445 0.0
C325 C 0.36553 0.19278 0.90678 0.0
C326 C 0.3632 0.19927 0.93408 0.0
C327 C 0.35181 0.20785 0.93687 0.0
C328 C 0.34142 0.20817 0.91231 0.0
C329 C 0.38001 0.18636 0.90342 0.0
C330 C 0.37091 0.16473 0.90485 0.0
C331 C 0.36265 0.15272 0.87968 0.0
C332 C 0.35625 0.13283 0.88008 0.0
C333 C 0.35753 0.12496 0.9062 0.0
C334 C 0.36563 0.13672 0.93161 0.0
C335 C 0.37202 0.15659 0.93084 0.0
H336 H 0.83101 0.16428 0.88757 0.0
H337 H 0.83601 0.17981 0.97879 0.0
H338 H 0.85822 0.22376 0.91641 0.0
H339 H 0.83 0.14211 0.93105 0.0
H340 H 0.82203 0.14648 0.96441 0.0
H341 H 0.80898 0.1341 0.88491 0.0
H342 H 0.74903 0.10182 0.89782 0.0
H343 H 0.78831 0.13295 0.97002 0.0
C344 C 0.83456 0.17491 0.90503 0.0
C345 C 0.84404 0.1945 0.89858 0.0
C346 C 0.8306 0.16927 0.93381 0.0
C347 C 0.83759 0.18377 0.9564 0.0
C348 C 0.84745 0.20344 0.95004 0.0
C349 C 0.84996 0.20858 0.92116 0.0
C350 C 0.82145 0.14806 0.94065 0.0
C351 C 0.80101 0.13591 0.92855 0.0
C352 C 0.79727 0.12999 0.899 0.0
C353 C 0.77851 0.11837 0.88753 0.0
C354 C 0.76341 0.11182 0.90627 0.0
C355 C 0.76676 0.1167 0.93608 0.0
C356 C 0.7856 0.1291 0.94704 0.0
H357 H 0.81093 0.62392 0.88855 0.0
H358 H 0.84607 0.64769 0.96738 0.0
H359 H 0.87042 0.64214 0.88865 0.0
H360 H 0.79826 0.61752 0.9425 0.0
H361 H 0.81299 0.63593 0.96943 0.0
H362 H 0.81453 0.6554 0.89655 0.0
H363 H 0.76961 0.66736 0.91052 0.0
H364 H 0.78182 0.63583 0.97314 0.0
C365 C 0.82471 0.63028 0.9001 0.0
C366 C 0.84071 0.63324 0.88529 0.0
C367 C 0.82664 0.63627 0.92958 0.0
C368 C 0.84456 0.6437 0.94448 0.0
C369 C 0.86047 0.64569 0.92995 0.0
C370 C 0.85834 0.64066 0.90028 0.0
C371 C 0.80929 0.63308 0.94579 0.0
C372 C 0.79993 0.64469 0.93659 0.0
C373 C 0.80352 0.65424 0.91032 0.0
C374 C 0.79237 0.66206 0.90073 0.0
C375 C 0.77825 0.66138 0.91817 0.0
C376 C 0.77428 0.65196 0.94435 0.0
C377 C 0.78527 0.64377 0.9535 0.0
H378 H 0.8279 0.65088 0.44532 0.0
H379 H 0.80939 0.65628 0.35953 0.0
H380 H 0.79776 0.68149 0.43376 0.0
H381 H 0.81809 0.62507 0.3948 0.0
H382 H 0.82643 0.63928 0.36393 0.0
H383 H 0.83993 0.63176 0.43844 0.0
H384 H 0.89998 0.6628 0.42533 0.0
H385 H 0.86067 0.66074 0.35905 0.0
C386 C 0.82155 0.6566 0.43084 0.0
C387 C 0.81359 0.66707 0.44293 0.0
C388 C 0.82067 0.65299 0.40066 0.0
C389 C 0.81107 0.65968 0.38264 0.0
C390 C 0.80313 0.67031 0.39457 0.0
C391 C 0.80476 0.67416 0.42455 0.0
C392 C 0.82769 0.64003 0.388 0.0
C393 C 0.84799 0.64613 0.39803 0.0
C394 C 0.85169 0.64082 0.42519 0.0
C395 C 0.87047 0.64776 0.43582 0.0
C396 C 0.88552 0.65844 0.41784 0.0
C397 C 0.88216 0.66286 0.38997 0.0
C398 C 0.86336 0.65701 0.38032 0.0
H399 H 0.35998 0.17043 0.47674 0.0
H400 H 0.34823 0.15517 0.38522 0.0
H401 H 0.31973 0.11208 0.44755 0.0
H402 H 0.38174 0.19183 0.43857 0.0
H403 H 0.37379 0.18701 0.40126 0.0
H404 H 0.36521 0.20234 0.47405 0.0
H405 H 0.33864 0.23243 0.43765 0.0
H406 H 0.35275 0.198 0.382 0.0
C407 C 0.35198 0.15995 0.45915 0.0
C408 C 0.33901 0.14078 0.46541 0.0
C409 C 0.35487 0.16547 0.43023 0.0
C410 C 0.3454 0.15132 0.40756 0.0
C411 C 0.33262 0.13207 0.41384 0.0
C412 C 0.32913 0.1271 0.4427 0.0
C413 C 0.36886 0.18615 0.42368 0.0
C414 C 0.36003 0.19877 0.42762 0.0
C415 C 0.35943 0.206 0.45548 0.0
C416 C 0.35139 0.21788 0.45945 0.0
C417 C 0.34432 0.22276 0.43513 0.0
C418 C 0.34486 0.21573 0.40733 0.0
C419 C 0.35241 0.20348 0.40356 0.0
H420 H 0.85017 0.16583 0.46737 0.0
H421 H 0.84394 0.14729 0.3775 0.0
H422 H 0.79458 0.13184 0.42694 0.0
H423 H 0.87403 0.15723 0.43711 0.0
H424 H 0.87468 0.16227 0.39992 0.0
H425 H 0.88075 0.18338 0.47581 0.0
H426 H 0.92067 0.24068 0.45224 0.0
H427 H 0.89223 0.19513 0.38602 0.0
C428 C 0.84143 0.15936 0.44782 0.0
C429 C 0.82154 0.14993 0.44969 0.0
C430 C 0.84979 0.15897 0.4217 0.0
C431 C 0.83776 0.14876 0.39723 0.0
C432 C 0.81776 0.13902 0.39885 0.0
C433 C 0.80989 0.14033 0.42491 0.0
C434 C 0.87096 0.16572 0.42141 0.0
C435 C 0.88388 0.18701 0.42972 0.0
C436 C 0.8873 0.19353 0.45902 0.0
C437 C 0.90008 0.21297 0.4671 0.0
C438 C 0.91024 0.22582 0.44577 0.0
C439 C 0.90781 0.21951 0.41652 0.0
C440 C 0.89422 0.20016 0.40854 0.0
H441 H 0.04131 0.53368 0.17885 0.0
H442 H 0.05145 0.55014 0.26981 0.0
H443 H 0.01993 0.56839 0.216 0.0
H444 H 0.06818 0.53447 0.20801 0.0
H445 H 0.06966 0.53784 0.24643 0.0
H446 H 0.04107 0.50363 0.18369 0.0
H447 H 0.02483 0.45365 0.23343 0.0
H448 H 0.05407 0.51047 0.27555 0.0
C449 C 0.03879 0.54021 0.1978 0.0
C450 C 0.02884 0.55026 0.19456 0.0
C451 C 0.04659 0.53969 0.22504 0.0
C452 C 0.04455 0.54957 0.24912 0.0
C453 C 0.03478 0.55986 0.24606 0.0
C454 C 0.02645 0.55953 0.21891 0.0
C455 C 0.05941 0.53111 0.22742 0.0
C456 C 0.04814 0.50942 0.22958 0.0
C457 C 0.0399 0.49731 0.20448 0.0
C458 C 0.03141 0.47714 0.20579 0.0
C459 C 0.03084 0.46916 0.2326 0.0
C460 C 0.03905 0.48101 0.2579 0.0
C461 C 0.04738 0.50115 0.25628 0.0
H462 H 0.50252 0.49969 0.21673 0.0
H463 H 0.51325 0.51249 0.30889 0.0
H464 H 0.53175 0.55843 0.25004 0.0
H465 H 0.50474 0.4764 0.257 0.0
H466 H 0.49775 0.47954 0.29198 0.0
H467 H 0.48247 0.46802 0.21351 0.0
H468 H 0.42288 0.43772 0.23008 0.0
H469 H 0.46432 0.46819 0.30012 0.0
C470 C 0.50741 0.50987 0.23515 0.0
C471 C 0.51653 0.52968 0.23019 0.0
C472 C 0.50532 0.50335 0.26358 0.0
C473 C 0.51358 0.51715 0.28704 0.0
C474 C 0.52294 0.53702 0.2821 0.0
C475 C 0.52383 0.54307 0.25382 0.0
C476 C 0.49648 0.48195 0.26865 0.0
C477 C 0.47576 0.47024 0.2578 0.0
C478 C 0.47116 0.46426 0.22835 0.0
C479 C 0.45208 0.45312 0.21799 0.0
C480 C 0.43756 0.44735 0.23765 0.0
C481 C 0.44177 0.45246 0.26729 0.0
C482 C 0.46093 0.46421 0.27724 0.0
H483 H 0.47886 0.95854 0.22594 0.0
H484 H 0.51036 0.97821 0.30835 0.0
H485 H 0.53804 0.97545 0.23166 0.0
H486 H 0.46298 0.95029 0.27562 0.0
H487 H 0.47665 0.96477 0.30694 0.0
H488 H 0.48035 0.98825 0.23537 0.0
H489 H 0.44119 0.00707 0.25706 0.0
H490 H 0.4509 0.97154 0.31511 0.0
C491 C 0.49211 0.96425 0.23883 0.0
C492 C 0.50864 0.96738 0.22553 0.0
C493 C 0.49271 0.96886 0.26862 0.0
C494 C 0.50989 0.9753 0.28523 0.0
C495 C 0.52635 0.97757 0.27212 0.0
C496 C 0.52554 0.97381 0.24219 0.0
C497 C 0.4746 0.96497 0.28309 0.0
C498 C 0.46746 0.97896 0.27686 0.0
C499 C 0.47089 0.98875 0.25085 0.0
C500 C 0.46143 0.99882 0.24365 0.0
C501 C 0.44907 0.99994 0.26316 0.0
C502 C 0.44521 0.99018 0.28902 0.0
C503 C 0.45439 0.97968 0.29565 0.0
H504 H 0.50379 1.00113 0.78233 0.0
H505 H 0.47129 0.99007 0.7014 0.0
H506 H 0.46143 0.01761 0.77472 0.0
H507 H 0.48904 0.96836 0.7313 0.0
H508 H 0.4978 0.98417 0.70248 0.0
H509 H 0.50975 0.9757 0.77774 0.0
H510 H 0.57027 0.00799 0.7675 0.0
H511 H 0.53192 0.00502 0.69901 0.0
C512 C 0.49343 0.00222 0.76872 0.0
C513 C 0.48339 0.01034 0.78135 0.0
C514 C 0.48953 0.99511 0.73957 0.0
C515 C 0.47515 0.99628 0.72336 0.0
C516 C 0.46485 0.00426 0.736 0.0
C517 C 0.46947 0.01167 0.76472 0.0
C518 C 0.49834 0.98383 0.72651 0.0
C519 C 0.51854 0.99027 0.73761 0.0
C520 C 0.52179 0.98477 0.76491 0.0
C521 C 0.54044 0.992 0.77647 0.0
C522 C 0.55583 0.00318 0.75933 0.0
C523 C 0.55287 0.00753 0.73125 0.0
C524 C 0.53422 1.00137 0.72056 0.0
H525 H 0.0284 0.5063 0.8033 0.0
H526 H 0.01596 0.48945 0.71235 0.0
H527 H 0.99123 0.44669 0.77598 0.0
H528 H 0.04942 0.52729 0.76388 0.0
H529 H 0.04065 0.52185 0.72699 0.0
H530 H 0.03447 0.53892 0.79977 0.0
H531 H 0.00529 0.56672 0.76427 0.0
H532 H 0.01741 0.53059 0.70897 0.0
C533 C 0.02071 0.49531 0.78618 0.0
C534 C 0.00904 0.47596 0.79325 0.0
C535 C 0.0229 0.50042 0.75703 0.0
C536 C 0.01372 0.48584 0.73486 0.0
C537 C 1.00208 0.46651 0.74182 0.0
C538 C 0.99955 0.4618 0.77088 0.0
C539 C 0.03619 0.52112 0.74968 0.0
C540 C 0.02695 0.53332 0.75395 0.0
C541 C 0.02759 0.54162 0.78156 0.0
C542 C 0.01952 0.55347 0.78565 0.0
C543 C 0.01101 0.55708 0.76174 0.0
C544 C 0.01026 0.54894 0.73422 0.0
C545 C 0.01797 0.53684 0.73033 0.0
H546 H 0.51466 0.48818 0.80983 0.0
H547 H 0.50858 0.47667 0.71758 0.0
H548 H 0.45907 0.45765 0.76819 0.0
H549 H 0.5401 0.48684 0.77972 0.0
H550 H 0.53894 0.48827 0.74145 0.0
H551 H 0.54177 0.51561 0.81167 0.0
H552 H 0.58285 0.57005 0.78021 0.0
H553 H 0.55774 0.51916 0.72298 0.0
C554 C 0.50587 0.48341 0.79 0.0
C555 C 0.48599 0.47407 0.79175 0.0
C556 C 0.51427 0.48525 0.76316 0.0
C557 C 0.50234 0.47666 0.73802 0.0
C558 C 0.48234 0.46657 0.73966 0.0
C559 C 0.47441 0.46621 0.76641 0.0
C560 C 0.53557 0.49311 0.76214 0.0
C561 C 0.5473 0.51495 0.76625 0.0
C562 C 0.54915 0.52406 0.79362 0.0
C563 C 0.56177 0.54394 0.79858 0.0
C564 C 0.57264 0.55481 0.77597 0.0
C565 C 0.57146 0.54605 0.74869 0.0
C566 C 0.55852 0.52612 0.74382 0.0
H567 H 0.69749 0.85429 0.52595 0.0
H568 H 0.7107 0.87356 0.61571 0.0
H569 H 0.67668 0.88941 0.56306 0.0
H570 H 0.72765 0.85945 0.55462 0.0
H571 H 0.72778 0.86028 0.59309 0.0
H572 H 0.7036 0.82928 0.52571 0.0
H573 H 0.68821 0.77682 0.56828 0.0
H574 H 0.71265 0.83082 0.6181 0.0
C575 C 0.69543 0.86117 0.5449 0.0
C576 C 0.68502 0.87075 0.54188 0.0
C577 C 0.70442 0.86174 0.57163 0.0
C578 C 0.70297 0.87219 0.59549 0.0
C579 C 0.69289 0.8822 0.59265 0.0
C580 C 0.68344 0.88077 0.56602 0.0
C581 C 0.71821 0.85423 0.57326 0.0
C582 C 0.70821 0.8324 0.57224 0.0
C583 C 0.70181 0.82178 0.54553 0.0
C584 C 0.69446 0.8017 0.54401 0.0
C585 C 0.69331 0.79223 0.56954 0.0
C586 C 0.69997 0.8026 0.59632 0.0
C587 C 0.70709 0.82266 0.59761 0.0
H588 H 0.16434 0.82481 0.55225 0.0
H589 H 0.17009 0.83868 0.64419 0.0
H590 H 0.19248 0.8839 0.58388 0.0
H591 H 0.16298 0.80145 0.59392 0.0
H592 H 0.15577 0.80554 0.62822 0.0
H593 H 0.14161 0.79431 0.54916 0.0
H594 H 0.08171 0.76679 0.56304 0.0
H595 H 0.12232 0.79341 0.63513 0.0
C596 C 0.16833 0.8352 0.57023 0.0
C597 C 0.17794 0.85495 0.56466 0.0
C598 C 0.16456 0.82902 0.59882 0.0
C599 C 0.17172 0.84308 0.62201 0.0
C600 C 0.18169 0.86286 0.6165 0.0
C601 C 0.18418 0.8686 0.58792 0.0
C602 C 0.15497 0.80765 0.60466 0.0
C603 C 0.13437 0.79643 0.59312 0.0
C604 C 0.13015 0.79108 0.56344 0.0
C605 C 0.11121 0.78078 0.55223 0.0
C606 C 0.09637 0.77506 0.57138 0.0
C607 C 0.10016 0.77899 0.60136 0.0
C608 C 0.11924 0.79013 0.61206 0.0
H609 H 0.15004 0.29497 0.5492 0.0
H610 H 0.17303 0.30843 0.63739 0.0
H611 H 0.21008 0.32086 0.56619 0.0
H612 H 0.12929 0.28107 0.59213 0.0
H613 H 0.13898 0.29045 0.62799 0.0
H614 H 0.1378 0.31372 0.55709 0.0
H615 H 0.10671 0.33884 0.59248 0.0
H616 H 0.12115 0.30427 0.64553 0.0
C617 C 0.16211 0.30151 0.56469 0.0
C618 C 0.18052 0.30935 0.55466 0.0
C619 C 0.15932 0.30228 0.59451 0.0
C620 C 0.17515 0.30885 0.61433 0.0
C621 C 0.19358 0.31525 0.60435 0.0
C622 C 0.19609 0.31612 0.57444 0.0
C623 C 0.13932 0.2945 0.60511 0.0
C624 C 0.13191 0.30855 0.60243 0.0
C625 C 0.13177 0.31656 0.57575 0.0
C626 C 0.12303 0.32774 0.57227 0.0
C627 C 0.1143 0.33103 0.59568 0.0
C628 C 0.11334 0.32242 0.62207 0.0
C629 C 0.1223 0.31133 0.62541 0.0
H630 H 0.01283 0.39287 0.06803 0.0
H631 H 0.00915 0.47731 0.16013 0.0
H632 H 0.97493 0.41438 0.04586 0.0
H633 H 0.03861 0.44824 0.19031 0.0
H634 H 0.99801 0.45576 0.11643 0.0
H635 H 0.02375 0.41421 0.11178 0.0
C636 C 0.00674 0.402 0.07237 0.0
C637 C 0.99291 0.40177 0.05317 0.0
C638 C 0.00686 0.45406 0.13268 0.0
C639 C 0.00549 0.42637 0.10312 0.0
C640 C 0.01328 0.46642 0.15751 0.0
C641 C 0.02465 0.46444 0.17897 0.0
C642 C 0.01203 0.43977 0.12917 0.0
C643 C 0.02958 0.45005 0.17454 0.0
C644 C 0.01299 0.41419 0.09736 0.0
C645 C 0.98557 0.41398 0.06 0.0
N646 N 0.02327 0.43831 0.15015 0.0
N647 N 0.992 0.42581 0.0843 0.0
H648 H 0.56006 0.60793 0.08944 0.0
H649 H 0.51152 0.55775 0.20638 0.0
H650 H 0.59054 0.57682 0.09852 0.0
H651 H 0.53253 0.5188 0.18763 0.0
H652 H 0.52604 0.57502 0.16342 0.0
H653 H 0.53566 0.58516 0.11991 0.0
C654 C 0.56161 0.59626 0.09778 0.0
C655 C 0.57756 0.5945 0.09175 0.0
C656 C 0.52701 0.56233 0.16783 0.0
C657 C 0.55 0.56871 0.12804 0.0
C658 C 0.51874 0.55251 0.1926 0.0
C659 C 0.52094 0.53693 0.20063 0.0
C660 C 0.53766 0.55657 0.15094 0.0
C661 C 0.53043 0.5307 0.18212 0.0
C662 C 0.54772 0.58332 0.1156 0.0
C663 C 0.57861 0.5789 0.1029 0.0
N664 N 0.53876 0.54078 0.15842 0.0
N665 N 0.56515 0.56676 0.12079 0.0
H666 H 0.42462 0.99545 0.06828 0.0
H667 H 0.46758 0.03413 0.22706 0.0
H668 H 0.46321 0.05638 0.08747 0.0
H669 H 0.45552 0.97815 0.19296 0.0
H670 H 0.4637 0.04274 0.17772 0.0
H671 H 0.4328 0.98859 0.11607 0.0
C672 C 0.43478 0.00739 0.08258 0.0
C673 C 0.44324 0.02652 0.07394 0.0
C674 C 0.4622 0.0287 0.18108 0.0
C675 C 0.45252 0.01876 0.12861 0.0
C676 C 0.46439 0.0238 0.20912 0.0
C677 C 0.46194 0.00546 0.21396 0.0
C678 C 0.45703 0.01495 0.158 0.0
C679 C 0.45773 0.99252 0.19008 0.0
C680 C 0.43954 0.00344 0.10972 0.0
C681 C 0.45642 0.04142 0.09327 0.0
N682 N 0.45513 0.9974 0.16317 0.0
N683 N 0.46052 0.03725 0.11989 0.0
H684 H 0.4601 0.04959 0.93859 0.0
H685 H 0.48163 0.98726 0.82484 0.0
H686 H 0.43861 0.98823 0.94269 0.0
H687 H 0.48823 0.0432 0.80943 0.0
H688 H 0.47605 0.99124 0.87569 0.0
H689 H 0.48031 0.05078 0.89957 0.0
C690 C 0.45995 0.03644 0.93177 0.0
C691 C 0.44733 0.01868 0.94347 0.0
C692 C 0.47919 0.00284 0.86133 0.0
C693 C 0.47034 0.01997 0.89872 0.0
C694 C 0.48252 1.00065 0.8324 0.0
C695 C 0.48511 0.01482 0.81293 0.0
C696 C 0.4785 0.01933 0.87074 0.0
C697 C 0.48599 0.03183 0.82375 0.0
C698 C 0.47146 0.03713 0.90942 0.0
C699 C 0.44788 0.00216 0.93392 0.0
N700 N 0.48241 0.0335 0.85187 0.0
N701 N 0.45896 0.00314 0.91175 0.0
H702 H 0.03324 0.42297 0.93513 0.0
H703 H 0.03881 0.487 0.83301 0.0
H704 H 0.97211 0.39602 0.92221 0.0
H705 H 0.97776 0.45019 0.82161 0.0
H706 H 0.03831 0.47084 0.87699 0.0
H707 H 0.03712 0.44864 0.90434 0.0
C708 C 0.02059 0.42262 0.92611 0.0
C709 C 1.00233 0.4072 0.93107 0.0
C710 C 0.02495 0.46617 0.86511 0.0
C711 C 0.00655 0.43685 0.89562 0.0
C712 C 0.02522 0.47574 0.84013 0.0
C713 C 0.00836 0.46966 0.82329 0.0
C714 C 0.00766 0.45024 0.87307 0.0
C715 C 0.99117 0.45502 0.83359 0.0
C716 C 0.02279 0.43745 0.90849 0.0
C717 C 0.98647 0.40756 0.91892 0.0
N718 N 0.99132 0.44563 0.85749 0.0
N719 N 0.98898 0.42201 0.90157 0.0
H720 H 0.55168 0.59227 0.96313 0.0
H721 H 0.5959 0.56726 0.82748 0.0
H722 H 0.61101 0.60835 0.95909 0.0
H723 H 0.53521 0.54151 0.83654 0.0
H724 H 0.60153 0.58354 0.87506 0.0
H725 H 0.54517 0.57473 0.91612 0.0
C726 C 0.56334 0.59215 0.95239 0.0
C727 C 0.58194 0.60185 0.96512 0.0
C728 C 0.58696 0.57432 0.86675 0.0
C729 C 0.57456 0.58182 0.91138 0.0
C730 C 0.58375 0.56511 0.83951 0.0
C731 C 0.56507 0.5532 0.82798 0.0
C732 C 0.57139 0.57172 0.88265 0.0
C733 C 0.54983 0.55059 0.84472 0.0
C734 C 0.55959 0.58207 0.92562 0.0
C735 C 0.59644 0.6011 0.95021 0.0
N736 N 0.55332 0.5599 0.8712 0.0
N737 N 0.59245 0.59133 0.92415 0.0
H738 H 1.00137 0.61453 0.92817 0.0
H739 H 0.04979 0.57045 0.82544 0.0
H740 H 0.05687 0.62087 0.94605 0.0
H741 H 0.99196 0.5585 0.81098 0.0
H742 H 0.05237 0.58876 0.87013 0.0
H743 H 0.9976 0.5944 0.88469 0.0
C744 C 0.01277 0.61178 0.92295 0.0
C745 C 0.02945 0.61943 0.94087 0.0
C746 C 0.03906 0.58206 0.85726 0.0
C747 C 0.0252 0.59636 0.89133 0.0
C748 C 0.03754 0.57144 0.83185 0.0
C749 C 0.02068 0.563 0.81431 0.0
C750 C 0.02364 0.58433 0.86522 0.0
C751 C 0.00536 0.56505 0.82357 0.0
C752 C 0.01058 0.60021 0.89822 0.0
C753 C 0.04372 0.61529 0.93304 0.0
N754 N 0.00724 0.57559 0.84828 0.0
N755 N 0.04127 0.60409 0.90893 0.0
H756 H 0.43237 0.39767 0.92431 0.0
H757 H 0.45575 0.47712 0.81039 0.0
H758 H 0.39979 0.42665 0.91549 0.0
H759 H 0.49516 0.45841 0.83669 0.0
H760 H 0.43653 0.46134 0.85173 0.0
H761 H 0.45677 0.42175 0.89518 0.0
C762 C 0.43043 0.40922 0.91661 0.0
C763 C 0.41392 0.41003 0.92229 0.0
C764 C 0.44962 0.46106 0.84884 0.0
C765 C 0.44178 0.43762 0.88832 0.0
C766 C 0.46058 0.47009 0.8253 0.0
C767 C 0.47697 0.46894 0.82004 0.0
C768 C 0.45494 0.45056 0.86691 0.0
C769 C 0.48267 0.45972 0.84001 0.0
C770 C 0.44443 0.42305 0.89994 0.0
C771 C 0.41225 0.4254 0.91152 0.0
N772 N 0.47148 0.45058 0.86226 0.0
N773 N 0.42587 0.43843 0.8947 0.0
H774 H 0.54363 0.94148 0.93881 0.0
H775 H 0.56688 0.01795 0.81635 0.0
H776 H 0.59172 0.99983 0.94395 0.0
H777 H 0.52245 0.95808 0.80527 0.0
H778 H 0.57454 0.01186 0.86475 0.0
H779 H 0.5342 0.94755 0.89137 0.0
C780 C 0.55221 0.95557 0.93003 0.0
C781 C 0.56854 0.97016 0.94544 0.0
C782 C 0.5631 1.00002 0.85181 0.0
C783 C 0.55775 0.97717 0.89118 0.0
C784 C 0.55876 0.00348 0.82411 0.0
C785 C 0.54417 0.98843 0.80659 0.0
C786 C 0.55276 0.98138 0.86227 0.0
C787 C 0.53379 0.97009 0.81807 0.0
C788 C 0.5468 0.95901 0.90292 0.0
C789 C 0.57906 0.98811 0.9329 0.0
N790 N 0.53836 0.96704 0.84517 0.0
N791 N 0.57348 0.99109 0.90656 0.0
H792 H 0.55214 0.94409 0.07601 0.0
H793 H 0.51106 0.99189 0.18436 0.0
H794 H 0.56669 0.00396 0.07614 0.0
H795 H 0.50896 0.93764 0.1963 0.0
H796 H 0.52242 0.99248 0.13549 0.0
H797 H 0.52771 0.93794 0.11051 0.0
C798 C 0.54997 0.95588 0.08282 0.0
C799 C 0.56172 0.97466 0.07354 0.0
C800 C 0.51893 0.98016 0.14846 0.0
C801 C 0.53384 0.96771 0.11329 0.0
C802 C 0.51228 0.97974 0.17614 0.0
C803 C 0.5091 0.96467 0.19405 0.0
C804 C 0.52245 0.96543 0.13893 0.0
C805 C 0.5112 0.94942 0.18289 0.0
C806 C 0.53602 0.95235 0.1026 0.0
C807 C 0.55814 0.98932 0.08305 0.0
N808 N 0.518 0.95031 0.15613 0.0
N809 N 0.54469 0.9856 0.10276 0.0
H810 H 0.98549 0.59508 0.0649 0.0
H811 H 0.05222 0.56372 0.14933 0.0
H812 H 0.04698 0.62537 0.06342 0.0
H813 H 0.99551 0.54779 0.17455 0.0
H814 H 0.04767 0.57895 0.10713 0.0
H815 H 0.98671 0.57116 0.09545 0.0
C816 C 0.99923 0.5966 0.07066 0.0
C817 C 0.01619 0.61238 0.06173 0.0
C818 C 0.03608 0.57176 0.12157 0.0
C819 C 0.01761 0.58495 0.0963 0.0
C820 C 0.03857 0.56286 0.14545 0.0
C821 C 0.02426 0.55462 0.16553 0.0
C822 C 0.01914 0.57235 0.11773 0.0
C823 C 0.00695 0.55417 0.15967 0.0
C824 C 0.99989 0.58293 0.08806 0.0
C825 C 0.03356 0.61356 0.06981 0.0
N826 N 0.00494 0.56315 0.13646 0.0
N827 N 0.03382 0.60008 0.08672 0.0
H828 H 0.38928 0.40303 0.05447 0.0
H829 H 0.46993 0.43989 0.18199 0.0
H830 H 0.44231 0.40291 0.04765 0.0
H831 H 0.42261 0.45038 0.18364 0.0
H832 H 0.45985 0.42622 0.13261 0.0
H833 H 0.40073 0.41986 0.10215 0.0
C834 C 0.4033 0.40654 0.06292 0.0
C835 C 0.4148 0.40147 0.047 0.0
C836 C 0.45173 0.43163 0.1437 0.0
C837 C 0.42795 0.42069 0.10146 0.0
C838 C 0.45758 0.43959 0.17186 0.0
C839 C 0.44708 0.44626 0.18709 0.0
C840 C 0.43516 0.43017 0.13066 0.0
C841 C 0.43096 0.44513 0.1729 0.0
C842 C 0.40985 0.4162 0.09009 0.0
C843 C 0.43289 0.40648 0.05905 0.0
N844 N 0.42542 0.43711 0.14558 0.0
N845 N 0.43884 0.4157 0.08554 0.0
H846 H 0.68508 0.72703 0.39704 0.0
H847 H 0.67335 0.80331 0.49797 0.0
H848 H 0.64512 0.74641 0.37742 0.0
H849 H 0.70461 0.77548 0.52537 0.0
H850 H 0.66502 0.78462 0.45166 0.0
H851 H 0.69444 0.74659 0.44259 0.0
C852 C 0.67827 0.73537 0.40226 0.0
C853 C 0.66423 0.73498 0.38336 0.0
C854 C 0.67367 0.78258 0.46785 0.0
C855 C 0.67496 0.75749 0.43533 0.0
C856 C 0.67848 0.7933 0.49418 0.0
C857 C 0.6895 0.79078 0.51562 0.0
C858 C 0.6801 0.76939 0.46281 0.0
C859 C 0.69578 0.7776 0.50963 0.0
C860 C 0.6836 0.74652 0.42828 0.0
C861 C 0.65593 0.74614 0.39131 0.0
N862 N 0.69101 0.76741 0.48381 0.0
N863 N 0.66144 0.75693 0.41661 0.0
H864 H 0.22815 0.93668 0.43399 0.0
H865 H 0.19511 0.84291 0.52567 0.0
H866 H 0.25301 0.89998 0.42851 0.0
H867 H 0.17477 0.88313 0.53724 0.0
H868 H 0.21114 0.85948 0.48249 0.0
H869 H 0.20376 0.91341 0.46439 0.0
C870 C 0.22834 0.9236 0.43881 0.0
C871 C 0.2428 0.92039 0.42895 0.0
C872 C 0.20288 0.86447 0.49417 0.0
C873 C 0.21497 0.89374 0.46402 0.0
C874 C 0.19358 0.85489 0.51865 0.0
C875 C 0.1838 0.86182 0.5352 0.0
C876 C 0.20239 0.88107 0.48627 0.0
C877 C 0.18242 0.87752 0.52529 0.0
C878 C 0.2144 0.91032 0.45625 0.0
C879 C 0.24226 0.90315 0.43589 0.0
N880 N 0.19183 0.88678 0.5017 0.0
N881 N 0.22871 0.89057 0.45326 0.0
H882 H 0.1235 0.38952 0.42062 0.0
H883 H 0.10907 0.30522 0.52254 0.0
H884 H 0.0795 0.32996 0.40339 0.0
H885 H 0.13118 0.36377 0.55637 0.0
H886 H 0.10288 0.31464 0.47538 0.0
H887 H 0.1308 0.38085 0.46776 0.0
C888 C 0.11538 0.37463 0.42675 0.0
C889 C 0.10085 0.36043 0.40809 0.0
C890 C 0.10916 0.32543 0.49309 0.0
C891 C 0.10933 0.35045 0.4616 0.0
C892 C 0.11286 0.32013 0.51987 0.0
C893 C 0.12072 0.3338 0.54323 0.0
C894 C 0.11359 0.3446 0.48956 0.0
C895 C 0.12509 0.35285 0.53881 0.0
C896 C 0.11952 0.36974 0.45364 0.0
C897 C 0.09073 0.34138 0.41717 0.0
N898 N 0.12154 0.35774 0.51239 0.0
N899 N 0.09527 0.33691 0.44319 0.0
H900 H 0.09555 0.32024 0.28033 0.0
H901 H 0.15403 0.37494 0.14837 0.0
H902 H 0.12111 0.38197 0.27321 0.0
H903 H 0.14061 0.31691 0.16601 0.0
H904 H 0.14706 0.37942 0.19814 0.0
H905 H 0.11637 0.31986 0.24339 0.0
C906 C 0.10582 0.33378 0.27144 0.0
C907 C 0.10632 0.3511 0.27941 0.0
C908 C 0.14609 0.36586 0.19145 0.0
C909 C 0.12999 0.35074 0.23686 0.0
C910 C 0.15012 0.36335 0.16307 0.0
C911 C 0.14769 0.34549 0.15315 0.0
C912 C 0.13912 0.35022 0.20975 0.0
C913 C 0.14261 0.33089 0.17291 0.0
C914 C 0.11773 0.33357 0.25035 0.0
C915 C 0.12004 0.36823 0.26742 0.0
N916 N 0.13806 0.33341 0.20013 0.0
N917 N 0.13106 0.36756 0.24631 0.0
H918 H 0.63966 0.72868 0.25454 0.0
H919 H 0.7062 0.81975 0.1635 0.0
H920 H 0.70123 0.75821 0.26078 0.0
H921 H 0.64468 0.78938 0.15705 0.0
H922 H 0.70484 0.80151 0.20591 0.0
H923 H 0.64136 0.7543 0.22521 0.0
C924 C 0.65356 0.74067 0.25008 0.0
C925 C 0.67033 0.74119 0.25997 0.0
C926 C 0.69163 0.7991 0.19558 0.0
C927 C 0.6724 0.77056 0.226 0.0
C928 C 0.69241 0.80966 0.17156 0.0
C929 C 0.67552 0.80586 0.15658 0.0
C930 C 0.67382 0.78464 0.20454 0.0
C931 C 0.65803 0.79251 0.16776 0.0
C932 C 0.65452 0.75533 0.23326 0.0
C933 C 0.68793 0.75712 0.25339 0.0
N934 N 0.65763 0.78218 0.19079 0.0
N935 N 0.68851 0.77106 0.23656 0.0
H936 H 0.26571 0.91913 0.30717 0.0
H937 H 0.22174 0.91154 0.15016 0.0
H938 H 0.22653 0.93991 0.29095 0.0
H939 H 0.23327 0.86775 0.18049 0.0
H940 H 0.22602 0.92475 0.2002 0.0
H941 H 0.25714 0.90291 0.2589 0.0
C942 C 0.25533 0.9203 0.29343 0.0
C943 C 0.24683 0.93089 0.303 0.0
C944 C 0.22733 0.91209 0.1959 0.0
C945 C 0.23713 0.91256 0.24788 0.0
C946 C 0.2249 0.90459 0.16749 0.0
C947 C 0.22705 0.88853 0.16147 0.0
C948 C 0.23248 0.90375 0.21814 0.0
C949 C 0.23131 0.88005 0.18445 0.0
C950 C 0.25036 0.91094 0.26603 0.0
C951 C 0.23337 0.93183 0.28441 0.0
N952 N 0.23417 0.88795 0.21181 0.0
N953 N 0.22908 0.92295 0.25755 0.0
H954 H 0.67608 0.95732 0.26227 0.0
H955 H 0.68374 0.87435 0.17438 0.0
H956 H 0.69831 0.9239 0.30164 0.0
H957 H 0.68999 0.92534 0.13443 0.0
H958 H 0.68322 0.88864 0.22163 0.0
H959 H 0.67436 0.94139 0.2151 0.0
C960 C 0.68038 0.9465 0.26102 0.0
C961 C 0.68749 0.94202 0.28577 0.0
C962 C 0.68464 0.8966 0.2024 0.0
C963 C 0.68542 0.92373 0.2323 0.0
C964 C 0.6851 0.88854 0.17543 0.0
C965 C 0.68682 0.89855 0.15016 0.0
C966 C 0.68562 0.91464 0.20412 0.0
C967 C 0.68817 0.91679 0.15306 0.0
C968 C 0.67951 0.93752 0.23417 0.0
C969 C 0.69294 0.92793 0.283 0.0
N970 N 0.68742 0.92417 0.17947 0.0
N971 N 0.69175 0.91925 0.25677 0.0
H972 H 0.06135 0.76841 0.22308 0.0
H973 H 0.16239 0.83299 0.15985 0.0
H974 H 0.10842 0.76368 0.25906 0.0
H975 H 0.1151 0.7878 0.10737 0.0
H976 H 0.14347 0.82032 0.20277 0.0
H977 H 0.08246 0.78992 0.18703 0.0
C978 C 0.07626 0.77237 0.22394 0.0
C979 C 0.08315 0.76407 0.24369 0.0
C980 C 0.13733 0.81361 0.18158 0.0
C981 C 0.10721 0.78884 0.20329 0.0
C982 C 0.14809 0.82064 0.15706 0.0
C983 C 0.1405 0.81161 0.12948 0.0
C984 C 0.11868 0.79793 0.17833 0.0
C985 C 0.12163 0.79585 0.12758 0.0
C986 C 0.0882 0.78455 0.20342 0.0
C987 C 0.10253 0.76953 0.24381 0.0
N988 N 0.11141 0.78962 0.15159 0.0
N989 N 0.11394 0.78153 0.22368 0.0
H990 H 0.21725 0.27879 0.27886 0.0
H991 H 0.23439 0.35266 0.15466 0.0
H992 H 0.266 0.33658 0.27853 0.0
H993 H 0.19047 0.29243 0.14746 0.0
H994 H 0.24448 0.34753 0.20207 0.0
H995 H 0.2058 0.28396 0.23247 0.0
C996 C 0.22558 0.29256 0.26906 0.0
C997 C 0.24266 0.30727 0.28267 0.0
C998 C 0.23261 0.33542 0.19019 0.0
C999 C 0.22952 0.31328 0.2296 0.0
C1000 C 0.22686 0.33832 0.16308 0.0
C1001 C 0.2117 0.32289 0.14692 0.0
C1002 C 0.22311 0.31694 0.2014 0.0
C1003 C 0.20219 0.30475 0.15921 0.0
C1004 C 0.21901 0.29549 0.24255 0.0
C1005 C 0.25281 0.32479 0.26886 0.0
N1006 N 0.20812 0.30224 0.18569 0.0
N1007 N 0.24606 0.32731 0.24314 0.0
H1008 H 0.2475 0.34809 0.40788 0.0
H1009 H 0.17035 0.2788 0.51641 0.0
H1010 H 0.22765 0.28706 0.41241 0.0
H1011 H 0.1996 0.34109 0.52336 0.0
H1012 H 0.1839 0.28049 0.46895 0.0
H1013 H 0.22294 0.34447 0.44075 0.0
C1014 C 0.23779 0.33386 0.4154 0.0
C1015 C 0.23986 0.31792 0.4078 0.0
C1016 C 0.18696 0.29378 0.48053 0.0
C1017 C 0.21178 0.31371 0.44548 0.0
C1018 C 0.17912 0.29279 0.5074 0.0
C1019 C 0.18404 0.30984 0.52357 0.0
C1020 C 0.19977 0.31196 0.47005 0.0
C1021 C 0.19561 0.32766 0.51138 0.0
C1022 C 0.22377 0.33181 0.43416 0.0
C1023 C 0.22673 0.29979 0.41794 0.0
N1024 N 0.2033 0.32827 0.48547 0.0
N1025 N 0.21341 0.29823 0.4366 0.0
H1026 H 0.70239 0.93933 0.39985 0.0
H1027 H 0.65134 0.86866 0.52456 0.0
H1028 H 0.64333 0.91819 0.41745 0.0
H1029 H 0.70599 0.88126 0.49367 0.0
H1030 H 0.64604 0.88277 0.48151 0.0
H1031 H 0.70235 0.91498 0.43011 0.0
C1032 C 0.68937 0.92952 0.40994 0.0
C1033 C 0.67296 0.93108 0.40651 0.0
C1034 C 0.65898 0.88202 0.48379 0.0
C1035 C 0.67278 0.90304 0.44151 0.0
C1036 C 0.66199 0.87393 0.50832 0.0
C1037 C 0.67922 0.87401 0.51286 0.0
C1038 C 0.67345 0.89047 0.46393 0.0
C1039 C 0.69249 0.88088 0.49108 0.0
C1040 C 0.68929 0.91546 0.42712 0.0
C1041 C 0.65636 0.9176 0.41972 0.0
N1042 N 0.68948 0.88918 0.46785 0.0
N1043 N 0.65678 0.90435 0.43707 0.0
H1044 H 0.11586 0.7681 0.36616 0.0
H1045 H 0.08192 0.7471 0.52637 0.0
H1046 H 0.05663 0.73195 0.3853 0.0
H1047 H 0.13058 0.80173 0.50594 0.0
H1048 H 0.07427 0.73891 0.47483 0.0
H1049 H 0.12338 0.77846 0.41754 0.0
C1050 C 0.10444 0.76242 0.38113 0.0
C1051 C 0.08559 0.74912 0.37147 0.0
C1052 C 0.08656 0.75273 0.48168 0.0
C1053 C 0.09417 0.76065 0.4301 0.0
C1054 C 0.09092 0.75751 0.51116 0.0
C1055 C 0.10682 0.77531 0.52073 0.0
C1056 C 0.09836 0.7656 0.46147 0.0
C1057 C 0.11829 0.78779 0.4997 0.0
C1058 C 0.10874 0.76838 0.41037 0.0
C1059 C 0.07133 0.74228 0.39178 0.0
N1060 N 0.11388 0.78266 0.47104 0.0
N1061 N 0.07596 0.74795 0.42021 0.0
H1062 H 0.29947 0.07209 0.71737 0.0
H1063 H 0.36691 0.10702 0.86161 0.0
H1064 H 0.34144 0.05522 0.73632 0.0
H1065 H 0.33154 0.13085 0.83644 0.0
H1066 H 0.35632 0.08653 0.81718 0.0
H1067 H 0.30956 0.09213 0.7622 0.0
C1068 C 0.31076 0.07251 0.73098 0.0
C1069 C 0.31961 0.0619 0.72296 0.0
C1070 C 0.35084 0.09621 0.82133 0.0
C1071 C 0.33127 0.08495 0.77445 0.0
C1072 C 0.35678 0.10783 0.8468 0.0
C1073 C 0.34993 0.12052 0.85288 0.0
C1074 C 0.3379 0.09721 0.8017 0.0
C1075 C 0.33718 0.12128 0.83257 0.0
C1076 C 0.31656 0.08404 0.75656 0.0
C1077 C 0.3342 0.06313 0.74154 0.0
N1078 N 0.33151 0.10971 0.80793 0.0
N1079 N 0.33955 0.07443 0.76641 0.0
H1080 H 0.92352 0.23567 0.76576 0.0
H1081 H 0.84062 0.22141 0.86793 0.0
H1082 H 0.89874 0.27252 0.76744 0.0
H1083 H 0.86282 0.18244 0.86301 0.0
H1084 H 0.85789 0.23697 0.82509 0.0
H1085 H 0.89803 0.21303 0.79547 0.0
C1086 C 0.91258 0.23889 0.77206 0.0
C1087 C 0.9134 0.25614 0.76441 0.0
C1088 C 0.85872 0.22478 0.83299 0.0
C1089 C 0.88425 0.23034 0.79855 0.0
C1090 C 0.84881 0.21587 0.85738 0.0
C1091 C 0.85047 0.20077 0.86912 0.0
C1092 C 0.87059 0.21871 0.82051 0.0
C1093 C 0.86115 0.19403 0.8546 0.0
C1094 C 0.89801 0.22593 0.78899 0.0
C1095 C 0.89876 0.25947 0.77297 0.0
N1096 N 0.8711 0.20329 0.83134 0.0
N1097 N 0.88494 0.24682 0.78989 0.0
H1098 H 0.79026 0.71635 0.74154 0.0
H1099 H 0.78928 0.64122 0.85147 0.0
H1100 H 0.75304 0.65465 0.72818 0.0
H1101 H 0.79618 0.69598 0.88185 0.0
H1102 H 0.78425 0.6484 0.80189 0.0
H1103 H 0.80003 0.71113 0.78958 0.0
C1104 C 0.78422 0.70172 0.74869 0.0
C1105 C 0.77074 0.68589 0.73101 0.0
C1106 C 0.78715 0.65894 0.8194 0.0
C1107 C 0.78218 0.67989 0.78531 0.0
C1108 C 0.79022 0.65497 0.84755 0.0
C1109 C 0.79314 0.66807 0.87064 0.0
C1110 C 0.78733 0.67624 0.81433 0.0
C1111 C 0.79394 0.68554 0.86454 0.0
C1112 C 0.78978 0.69879 0.77601 0.0
C1113 C 0.76332 0.66724 0.74128 0.0
N1114 N 0.79102 0.68915 0.83688 0.0
N1115 N 0.76925 0.66473 0.76772 0.0
H1116 H 0.75768 0.63937 0.60245 0.0
H1117 H 0.80546 0.63925 0.48241 0.0
H1118 H 0.78562 0.70139 0.59703 0.0
H1119 H 0.81844 0.69835 0.47611 0.0
H1120 H 0.79725 0.64001 0.53233 0.0
H1121 H 0.7772 0.63815 0.56459 0.0
C1122 C 0.76831 0.65282 0.59376 0.0
C1123 C 0.76979 0.67047 0.60259 0.0
C1124 C 0.80178 0.65284 0.52019 0.0
C1125 C 0.79254 0.66932 0.55902 0.0
C1126 C 0.80686 0.65252 0.49167 0.0
C1127 C 0.81221 0.66862 0.47476 0.0
C1128 C 0.80171 0.66928 0.53171 0.0
C1129 C 0.81381 0.6854 0.48805 0.0
C1130 C 0.77963 0.65216 0.57206 0.0
C1131 C 0.78384 0.68743 0.59068 0.0
N1132 N 0.80828 0.68517 0.51554 0.0
N1133 N 0.79442 0.68638 0.56918 0.0
H1134 H 0.29714 0.05463 0.5911 0.0
H1135 H 0.30681 0.12315 0.49594 0.0
H1136 H 0.35849 0.08662 0.60363 0.0
H1137 H 0.36682 0.14204 0.5013 0.0
H1138 H 0.30238 0.10473 0.53894 0.0
H1139 H 0.29878 0.07947 0.56072 0.0
C1140 C 0.31098 0.06714 0.58794 0.0
C1141 C 0.3277 0.06847 0.59987 0.0
C1142 C 0.31656 0.11276 0.53092 0.0
C1143 C 0.32984 0.09752 0.56497 0.0
C1144 C 0.3191 0.1236 0.50662 0.0
C1145 C 0.33715 0.13394 0.4951 0.0
C1146 C 0.33213 0.11179 0.54321 0.0
C1147 C 0.35267 0.13422 0.50963 0.0
C1148 C 0.31195 0.08155 0.57055 0.0
C1149 C 0.34523 0.08494 0.59472 0.0
N1150 N 0.34974 0.12299 0.53265 0.0
N1151 N 0.34585 0.0987 0.57742 0.0
H1152 H 0.95104 0.27118 0.63318 0.0
H1153 H 0.87343 0.20638 0.50706 0.0
H1154 H 0.89137 0.25398 0.63592 0.0
H1155 H 0.93425 0.23529 0.49706 0.0
H1156 H 0.8793 0.22 0.55696 0.0
H1157 H 0.94465 0.25456 0.58562 0.0
C1158 C 0.93658 0.26387 0.62386 0.0
C1159 C 0.92174 0.26409 0.63856 0.0
C1160 C 0.89134 0.2233 0.54385 0.0
C1161 C 0.91433 0.24495 0.58409 0.0
C1162 C 0.88801 0.21545 0.5155 0.0
C1163 C 0.90338 0.21989 0.4979 0.0
C1164 C 0.91019 0.23549 0.5547 0.0
C1165 C 0.92199 0.23176 0.50978 0.0
C1166 C 0.93295 0.2544 0.59666 0.0
C1167 C 0.90329 0.25432 0.62533 0.0
N1168 N 0.92488 0.23918 0.53742 0.0
N1169 N 0.90011 0.24515 0.59885 0.0
H1170 H 0.38053 0.27311 0.6309 0.0
H1171 H 0.32242 0.22182 0.48186 0.0
H1172 H 0.32744 0.27031 0.60575 0.0
H1173 H 0.37907 0.23229 0.50347 0.0
H1174 H 0.32282 0.23751 0.52822 0.0
H1175 H 0.37904 0.25638 0.58546 0.0
C1176 C 0.3685 0.26899 0.61583 0.0
C1177 C 0.35405 0.27316 0.62229 0.0
C1178 C 0.33513 0.23632 0.52285 0.0
C1179 C 0.3523 0.25381 0.56985 0.0
C1180 C 0.33495 0.22741 0.49636 0.0
C1181 C 0.35081 0.22585 0.48861 0.0
C1182 C 0.35125 0.24367 0.54188 0.0
C1183 C 0.36647 0.233 0.50855 0.0
C1184 C 0.3677 0.25941 0.58978 0.0
C1185 C 0.33892 0.26746 0.6017 0.0
N1186 N 0.36631 0.24165 0.53418 0.0
N1187 N 0.33842 0.25803 0.5764 0.0
H1188 H 0.77388 0.08262 0.59305 0.0
H1189 H 0.78987 0.15158 0.4653 0.0
H1190 H 0.73534 0.10358 0.5728 0.0
H1191 H 0.83274 0.13937 0.49874 0.0
H1192 H 0.77149 0.13788 0.5082 0.0
H1193 H 0.79727 0.10662 0.56263 0.0
C1194 C 0.77039 0.0924 0.58249 0.0
C1195 C 0.7525 0.09087 0.58519 0.0
C1196 C 0.78514 0.13862 0.50647 0.0
C1197 C 0.77922 0.11836 0.54981 0.0
C1198 C 0.79562 0.14644 0.482 0.0
C1199 C 0.81275 0.14642 0.47828 0.0
C1200 C 0.79173 0.13051 0.52711 0.0
C1201 C 0.81965 0.13975 0.50068 0.0
C1202 C 0.78382 0.10621 0.56512 0.0
C1203 C 0.74892 0.10417 0.57116 0.0
N1204 N 0.80895 0.13174 0.52385 0.0
N1205 N 0.76203 0.11714 0.55363 0.0
H1206 H 0.92505 0.66154 0.60444 0.0
H1207 H 0.85225 0.61456 0.46633 0.0
H1208 H 0.87615 0.60371 0.6016 0.0
H1209 H 0.8983 0.67387 0.47401 0.0
H1210 H 0.86057 0.60997 0.51568 0.0
H1211 H 0.91553 0.66591 0.55614 0.0
C1212 C 0.91231 0.64974 0.59369 0.0
C1213 C 0.90141 0.63222 0.60718 0.0
C1214 C 0.86882 0.62398 0.50652 0.0
C1215 C 0.89039 0.63716 0.55168 0.0
C1216 C 0.86402 0.62662 0.47843 0.0
C1217 C 0.87471 0.64456 0.46592 0.0
C1218 C 0.8844 0.6394 0.52216 0.0
C1219 C 0.88991 0.65967 0.48254 0.0
C1220 C 0.90685 0.65226 0.56608 0.0
C1221 C 0.885 0.61748 0.59209 0.0
N1222 N 0.89432 0.65672 0.50969 0.0
N1223 N 0.88001 0.62027 0.56513 0.0
H1224 H 0.89809 0.66835 0.73402 0.0
H1225 H 0.83755 0.60158 0.85663 0.0
H1226 H 0.88407 0.60891 0.73997 0.0
H1227 H 0.84428 0.65773 0.84357 0.0
H1228 H 0.84835 0.6012 0.80785 0.0
H1229 H 0.87325 0.66261 0.76774 0.0
C1230 C 0.88956 0.654 0.742 0.0
C1231 C 0.8934 0.63919 0.73458 0.0
C1232 C 0.84692 0.61338 0.81519 0.0
C1233 C 0.86508 0.63254 0.77341 0.0
C1234 C 0.84055 0.61345 0.8429 0.0
C1235 C 0.84 0.62966 0.85381 0.0
C1236 C 0.85328 0.62989 0.79876 0.0
C1237 C 0.84443 0.64493 0.83564 0.0
C1238 C 0.87534 0.6507 0.76124 0.0
C1239 C 0.88177 0.62083 0.74534 0.0
N1240 N 0.85131 0.64488 0.80918 0.0
N1241 N 0.86838 0.61812 0.7646 0.0
H1242 H 0.35886 0.26334 0.73181 0.0
H1243 H 0.33882 0.23436 0.8806 0.0
H1244 H 0.30435 0.2537 0.7589 0.0
H1245 H 0.33756 0.18817 0.82736 0.0
H1246 H 0.33159 0.24652 0.83795 0.0
H1247 H 0.35749 0.24028 0.76712 0.0
C1248 C 0.34652 0.25618 0.74488 0.0
C1249 C 0.33181 0.26057 0.74283 0.0
C1250 C 0.33262 0.23353 0.83585 0.0
C1251 C 0.33028 0.23453 0.78287 0.0
C1252 C 0.33652 0.22625 0.86034 0.0
C1253 C 0.33856 0.20975 0.85824 0.0
C1254 C 0.33154 0.22493 0.80869 0.0
C1255 C 0.33644 0.20102 0.83039 0.0
C1256 C 0.34566 0.24291 0.76466 0.0
C1257 C 0.31599 0.25071 0.75994 0.0
N1258 N 0.33346 0.20898 0.80655 0.0
N1259 N 0.31589 0.23855 0.77993 0.0
H1260 H 0.72361 0.07552 0.71689 0.0
H1261 H 0.79826 0.10701 0.85223 0.0
H1262 H 0.77781 0.07753 0.71347 0.0
H1263 H 0.74953 0.1153 0.85162 0.0
H1264 H 0.79054 0.09551 0.80158 0.0
H1265 H 0.73218 0.0891 0.76674 0.0
C1266 C 0.7373 0.07882 0.72656 0.0
C1267 C 0.74998 0.07533 0.71091 0.0
C1268 C 0.78158 0.09993 0.81248 0.0
C1269 C 0.75983 0.09082 0.76794 0.0
C1270 C 0.78607 0.10664 0.84139 0.0
C1271 C 0.77454 0.11215 0.85629 0.0
C1272 C 0.76537 0.09858 0.79832 0.0
C1273 C 0.75867 0.11095 0.84115 0.0
C1274 C 0.7422 0.08661 0.75499 0.0
C1275 C 0.76755 0.07996 0.72459 0.0
N1276 N 0.75451 0.10422 0.81306 0.0
N1277 N 0.7719 0.08738 0.75229 0.0
H1278 H 0.0579 0.35701 0.95751 0.0
H1279 H 0.09366 0.32222 0.09383 0.0
H1280 H 0.02839 0.34004 0.03718 0.0
H1281 H 0.12794 0.34677 0.02017 0.0
H1282 H 0.06791 0.32498 0.07037 0.0
H1283 H 0.08202 0.35013 0.9774 0.0
C1284 C 0.05643 0.35176 0.97916 0.0
C1285 C 0.04111 0.34919 -0.00424 0.0
C1286 C 0.08099 0.3297 0.05919 0.0
C1287 C 0.0687 0.34122 0.01858 0.0
C1288 C 0.09572 0.32814 0.07258 0.0
C1289 C 0.11309 0.33459 0.05911 0.0
C1290 C 0.08355 0.33778 0.03201 0.0
C1291 C 0.1148 0.34171 0.03132 0.0
C1292 C 0.07023 0.34785 0.99047 0.0
C1293 C 0.03997 0.34232 0.02363 0.0
N1294 N 0.10026 0.34329 0.01876 0.0
N1295 N 0.05359 0.33861 0.03415 0.0
H1296 H 0.59099 0.68866 0.0221 0.0
H1297 H 0.68536 0.79192 0.0387 0.0
H1298 H 0.64816 0.69792 0.0182 0.0
H1299 H 0.62977 0.78001 0.06344 0.0
H1300 H 0.67072 0.7595 0.01492 0.0
H1301 H 0.60398 0.72353 0.02125 0.0
C1302 C 0.60625 0.69796 0.02055 0.0
C1303 C 0.61854 0.69031 0.02097 0.0
C1304 C 0.66165 0.7642 0.02475 0.0
C1305 C 0.63348 0.73035 0.02005 0.0
C1306 C 0.66997 0.78276 0.03798 0.0
C1307 C 0.6587 0.7885 0.053 0.0
C1308 C 0.64196 0.75141 0.02668 0.0
C1309 C 0.63888 0.77603 0.05201 0.0
C1310 C 0.61365 0.7179 0.02007 0.0
C1311 C 0.63816 0.70314 0.01845 0.0
N1312 N 0.63116 0.75794 0.03949 0.0
N1313 N 0.64505 0.72256 0.01859 0.0
H1314 H 0.32746 0.96207 0.96551 0.0
H1315 H 0.27967 0.90778 0.10898 0.0
H1316 H 0.35774 0.97122 0.04793 0.0
H1317 H 0.24721 0.89731 0.02844 0.0
H1318 H 0.30855 0.93005 0.0855 0.0
H1319 H 0.29814 0.93756 0.98671 0.0
C1320 C 0.32797 0.95892 0.98802 0.0
C1321 C 0.3451 0.96878 0.005 0.0
C1322 C 0.29518 0.92294 0.07281 0.0
C1323 C 0.31164 0.94076 0.02928 0.0
C1324 C 0.27864 0.91026 0.08627 0.0
C1325 C 0.26097 0.90095 0.07074 0.0
C1326 C 0.2942 0.92647 0.04346 0.0
C1327 C 0.26056 0.9043 0.04118 0.0
C1328 C 0.31123 0.94491 7e-05 0.0
C1329 C 0.34491 0.96407 0.03401 0.0
N1330 N 0.27695 0.91694 0.02848 0.0
N1331 N 0.32847 0.95045 0.04518 0.0
H1332 H 0.42931 0.09668 0.02691 0.0
H1333 H 0.39875 0.15285 0.96518 0.0
H1334 H 0.37373 0.04884 0.00024 0.0
H1335 H 0.34295 0.10177 0.95567 0.0
H1336 H 0.40896 0.13622 -0.00259 0.0
H1337 H 0.41703 0.11865 0.02209 0.0
C1338 C 0.41441 0.09078 0.02032 0.0
C1339 C 0.4027 0.07097 0.01307 0.0
C1340 C 0.39431 0.12859 0.98913 0.0
C1341 C 0.38861 0.09623 0.00593 0.0
C1342 C 0.38841 0.13827 0.97066 0.0
C1343 C 0.37008 0.12856 0.95714 0.0
C1344 C 0.38182 0.10891 0.99394 0.0
C1345 C 0.35739 0.10964 0.965 0.0
C1346 C 0.40739 0.10342 0.01719 0.0
C1347 C 0.3834 0.06406 0.00551 0.0
N1348 N 0.36362 0.10031 0.98237 0.0
N1349 N 0.37709 0.07673 0.00147 0.0
H1350 H 0.95167 0.2999 0.00237 0.0
H1351 H 0.84121 0.23272 0.96619 0.0
H1352 H 0.91179 0.32067 -0.00416 0.0
H1353 H 0.8792 0.2106 0.98169 0.0
H1354 H 0.86554 0.2642 0.98752 0.0
H1355 H 0.92478 0.26688 0.00442 0.0
C1356 C 0.93731 0.2976 0.00188 0.0
C1357 C 0.93404 0.31312 -0.00171 0.0
C1358 C 0.86843 0.25236 0.98712 0.0
C1359 C 0.90313 0.27526 0.00046 0.0
C1360 C 0.85441 0.23433 0.97529 0.0
C1361 C 0.85822 0.21911 0.97239 0.0
C1362 C 0.88657 0.25531 -0.00462 0.0
C1363 C 0.87569 0.22198 0.98386 0.0
C1364 C 0.92193 0.2787 0.00305 0.0
C1365 C 0.91507 0.30919 -0.00196 0.0
N1366 N 0.88942 0.23988 0.99424 0.0
N1367 N 0.90038 0.29068 -0.00138 0.0
H1368 H 0.66611 0.64072 0.98507 0.0
H1369 H 0.77132 0.6556 0.00323 0.0
H1370 H 0.69335 0.64516 0.06867 0.0
H1371 H 0.73885 0.64193 0.92193 0.0
H1372 H 0.74364 0.65269 0.02818 0.0
H1373 H 0.69363 0.64267 0.96194 0.0
C1374 C 0.67791 0.64216 -0.0014 0.0
C1375 C 0.67739 0.64277 0.02889 0.0
C1376 C 0.74263 0.65033 0.00488 0.0
C1377 C 0.70908 0.64498 0.00242 0.0
C1378 C 0.75838 0.6519 0.99067 0.0
C1379 C 0.75752 0.64932 0.9604 0.0
C1380 C 0.72595 0.64612 0.98866 0.0
C1381 C 0.74038 0.64456 0.9452 0.0
C1382 C 0.69363 0.64321 0.98536 0.0
C1383 C 0.69313 0.64461 0.04525 0.0
N1384 N 0.72538 0.64322 0.95943 0.0
N1385 N 0.70836 0.64568 0.03181 0.0
H1386 H 0.94945 0.64631 0.03826 0.0
H1387 H 0.89641 0.67054 0.91221 0.0
H1388 H 0.97362 0.66675 0.95569 0.0
H1389 H 0.86708 0.63433 0.98242 0.0
H1390 H 0.92656 0.67501 0.93263 0.0
H1391 H 0.92094 0.64714 0.02226 0.0
C1392 C 0.94883 0.65107 0.01677 0.0
C1393 C 0.96394 0.65636 -0.00181 0.0
C1394 C 0.91355 0.66624 0.94371 0.0
C1395 C 0.9313 0.65747 0.97988 0.0
C1396 C 0.89634 0.6637 0.93213 0.0
C1397 C 0.87911 0.65175 0.94536 0.0
C1398 C 0.91364 0.65693 0.9689 0.0
C1399 C 0.87998 0.64366 0.97149 0.0
C1400 C 0.93251 0.65152 0.00768 0.0
C1401 C 0.96228 0.66242 0.97064 0.0
N1402 N 0.89693 0.64624 0.98226 0.0
N1403 N 0.94623 0.66281 0.96231 0.0
H1404 H 0.40411 0.32125 0.01215 0.0
H1405 H 0.38519 0.23237 0.96727 0.0
H1406 H 0.34696 0.30208 0.97852 0.0
H1407 H 0.32531 0.21458 0.96355 0.0
H1408 H 0.39216 0.26184 0.99315 0.0
H1409 H 0.39569 0.28768 0.01685 0.0
C1410 C 0.38972 0.30991 0.00588 0.0
C1411 C 0.37638 0.31443 0.99412 0.0
C1412 C 0.37736 0.25137 0.98781 0.0
C1413 C 0.36684 0.27577 -0.00213 0.0
C1414 C 0.37331 0.23421 0.97301 0.0
C1415 C 0.35466 0.22112 0.96225 0.0
C1416 C 0.36265 0.25562 0.99177 0.0
C1417 C 0.34001 0.22458 0.97047 0.0
C1418 C 0.38494 0.29065 0.00827 0.0
C1419 C 0.35778 0.29922 0.98723 0.0
N1420 N 0.34438 0.24177 0.98388 0.0
N1421 N 0.3537 0.28056 0.98857 0.0
H1422 H 0.65181 0.04056 0.98122 0.0
H1423 H 0.76569 0.09916 0.98665 0.0
H1424 H 0.6864 0.0331 0.0464 0.0
H1425 H 0.73069 0.11126 0.92891 0.0
H1426 H 0.73713 0.07712 0.01188 0.0
H1427 H 0.68063 0.06794 0.96384 0.0
C1428 C 0.66546 0.0447 0.99194 0.0
C1429 C 0.66668 0.0344 0.01518 0.0
C1430 C 0.73573 0.08482 0.99396 0.0
C1431 C 0.69982 0.06581 -0.00464 0.0
C1432 C 0.75208 0.09757 0.97974 0.0
C1433 C 0.75054 0.1069 0.95543 0.0
C1434 C 0.71773 0.08131 0.98369 0.0
C1435 C 0.73248 0.1041 0.94725 0.0
C1436 C 0.68193 0.06041 0.98208 0.0
C1437 C 0.68477 0.04055 0.02834 0.0
N1438 N 0.71677 0.09138 0.96107 0.0
N1439 N 0.70063 0.05574 0.01811 0.0
H1440 H 0.64642 0.96173 0.00233 0.0
H1441 H 0.64267 0.86459 0.04285 0.0
H1442 H 0.59451 0.90641 0.00422 0.0
H1443 H 0.69416 0.92008 0.04307 0.0
H1444 H 0.62585 0.87774 0.01521 0.0
H1445 H 0.66479 0.94516 0.00375 0.0
C1446 C 0.63883 0.94608 0.00248 0.0
C1447 C 0.61889 0.93551 0.004 0.0
C1448 C 0.64097 0.88691 0.0205 0.0
C1449 C 0.6399 0.91645 0.00595 0.0
C1450 C 0.65057 0.87933 0.03599 0.0
C1451 C 0.66972 0.89134 0.04506 0.0
C1452 C 0.65062 0.90669 0.01461 0.0
C1453 C 0.67935 0.91043 0.03627 0.0
C1454 C 0.64936 0.9366 0.00331 0.0
C1455 C 0.60989 0.91522 0.00369 0.0
N1456 N 0.66961 0.91764 0.02197 0.0
N1457 N 0.62047 0.90639 0.00529 0.0
H1458 H 0.09538 0.70304 0.98161 0.0
H1459 H 0.1201 0.80963 0.02443 0.0
H1460 H 0.0532 0.71956 -0.00194 0.0
H1461 H 0.16097 0.79023 0.01839 0.0
H1462 H 0.09628 0.77977 -0.00174 0.0
H1463 H 0.11947 0.73706 0.97875 0.0
C1464 C 0.09111 0.71384 0.98413 0.0
C1465 C 0.07235 0.70849 0.99081 0.0
C1466 C 0.11063 0.78234 0.00192 0.0
C1467 C 0.1 0.74759 0.98801 0.0
C1468 C 0.12429 0.79943 0.01677 0.0
C1469 C 0.14239 0.80215 0.02471 0.0
C1470 C 0.1152 0.76798 -0.00522 0.0
C1471 C 0.14716 0.78873 0.01332 0.0
C1472 C 0.10489 0.73329 0.98244 0.0
C1473 C 0.06755 0.72307 0.99325 0.0
N1474 N 0.13351 0.77201 -0.00036 0.0
N1475 N 0.08141 0.74201 0.99253 0.0
H1476 H 0.30891 0.34083 0.98696 0.0
H1477 H 0.24828 0.37563 0.07458 0.0
H1478 H 0.33132 0.40067 0.01456 0.0
H1479 H 0.22258 0.32218 0.02289 0.0
H1480 H 0.27848 0.38595 0.05121 0.0
H1481 H 0.27709 0.33392 -0.00037 0.0
C1482 C 0.30715 0.35252 -0.00426 0.0
C1483 C 0.32284 0.37133 -6e-05 0.0
C1484 C 0.26613 0.37218 0.04441 0.0
C1485 C 0.28639 0.36352 0.01439 0.0
C1486 C 0.24889 0.36639 0.05754 0.0
C1487 C 0.23299 0.34812 0.05041 0.0
C1488 C 0.26755 0.35938 0.02456 0.0
C1489 C 0.2345 0.33646 0.02867 0.0
C1490 C 0.28894 0.34859 0.00271 0.0
C1491 C 0.31965 0.38594 0.01109 0.0
N1492 N 0.25161 0.34213 0.01688 0.0
N1493 N 0.30182 0.38169 0.0182 0.0
H1494 H 0.74231 0.72843 0.34548 0.0
H1495 H 0.77119 0.6466 0.36053 0.0
H1496 H 0.70212 0.66736 0.33143 0.0
H1497 H 0.80717 0.70609 0.39064 0.0
H1498 H 0.74745 0.65462 0.34186 0.0
H1499 H 0.76757 0.72099 0.35565 0.0
C1500 C 0.73876 0.71343 0.3446 0.0
C1501 C 0.72 0.69849 0.33777 0.0
C1502 C 0.76068 0.66598 0.35213 0.0
C1503 C 0.74902 0.68987 0.3491 0.0
C1504 C 0.77431 0.66146 0.3624 0.0
C1505 C 0.79113 0.67574 0.37703 0.0
C1506 C 0.76398 0.68492 0.35648 0.0
C1507 C 0.79436 0.69469 0.37944 0.0
C1508 C 0.75323 0.7092 0.35033 0.0
C1509 C 0.71634 0.67934 0.33683 0.0
N1510 N 0.78086 0.6987 0.36948 0.0
N1511 N 0.73071 0.67557 0.34242 0.0
H1512 H 0.25843 0.01602 0.35981 0.0
H1513 H 0.352 0.11965 0.38087 0.0
H1514 H 0.31583 0.0255 0.36228 0.0
H1515 H 0.2952 0.10756 0.39825 0.0
H1516 H 0.3385 0.08706 0.35808 0.0
H1517 H 0.2714 0.05083 0.35828 0.0
C1518 C 0.27377 0.02537 0.35959 0.0
C1519 C 0.28607 0.01779 0.36191 0.0
C1520 C 0.32895 0.09175 0.36606 0.0
C1521 C 0.301 0.05779 0.36022 0.0
C1522 C 0.33663 0.11041 0.37869 0.0
C1523 C 0.32463 0.11617 0.3914 0.0
C1524 C 0.30917 0.07888 0.36623 0.0
C1525 C 0.30486 0.10358 0.38861 0.0
C1526 C 0.28116 0.04528 0.35869 0.0
C1527 C 0.3058 0.03067 0.36099 0.0
N1528 N 0.29775 0.0854 0.37672 0.0
N1529 N 0.31267 0.05008 0.36071 0.0
H1530 H 0.00506 0.32186 0.36526 0.0
H1531 H 0.92645 0.21135 0.37472 0.0
H1532 H 0.00348 0.27695 0.30914 0.0
H1533 H 0.9202 0.25809 0.41109 0.0
H1534 H 0.9536 0.23479 0.34836 0.0
H1535 H 0.97359 0.29857 0.38159 0.0
C1536 C 0.99808 0.3071 0.35634 0.0
C1537 C 0.00699 0.30131 0.33598 0.0
C1538 C 0.94609 0.23988 0.36174 0.0
C1539 C 0.97092 0.27453 0.35459 0.0
C1540 C 0.93046 0.22647 0.37659 0.0
C1541 C 0.9212 0.23279 0.3955 0.0
C1542 C 0.95261 0.25974 0.36607 0.0
C1543 C 0.92719 0.25262 0.39727 0.0
C1544 C 0.98005 0.29383 0.36553 0.0
C1545 C 0.99718 0.28203 0.32496 0.0
N1546 N 0.9427 0.26541 0.38316 0.0
N1547 N 0.97975 0.26928 0.33463 0.0
H1548 H 0.03702 0.38868 0.33978 0.0
H1549 H 0.07104 0.49467 0.29372 0.0
H1550 H 0.09522 0.43604 0.34812 0.0
H1551 H 0.01307 0.44727 0.28207 0.0
H1552 H 0.07787 0.47598 0.32772 0.0
H1553 H 0.02625 0.41191 0.33281 0.0
C1554 C 0.04752 0.40398 0.34085 0.0
C1555 C 0.06713 0.41037 0.34359 0.0
C1556 C 0.06351 0.4698 0.31827 0.0
C1557 C 0.05487 0.43701 0.33532 0.0
C1558 C 0.05954 0.48057 0.299 0.0
C1559 C 0.04158 0.47232 0.28441 0.0
C1560 C 0.04951 0.45057 0.32268 0.0
C1561 C 0.0273 0.45395 0.29217 0.0
C1562 C 0.04135 0.41725 0.3368 0.0
C1563 C 0.08 0.4304 0.34527 0.0
N1564 N 0.03168 0.4435 0.31025 0.0
N1565 N 0.07368 0.44296 0.34049 0.0
H1566 H 0.58602 0.65391 0.33568 0.0
H1567 H 0.55578 0.54336 0.30949 0.0
H1568 H 0.62608 0.63361 0.32705 0.0
H1569 H 0.51729 0.56567 0.30369 0.0
H1570 H 0.5806 0.57464 0.33124 0.0
H1571 H 0.56034 0.62057 0.33887 0.0
C1572 C 0.5895 0.64246 0.33487 0.0
C1573 C 0.60822 0.64658 0.3304 0.0
C1574 C 0.56654 0.57251 0.3261 0.0
C1575 C 0.5787 0.60822 0.33386 0.0
C1576 C 0.55231 0.55458 0.3141 0.0
C1577 C 0.53453 0.55203 0.30489 0.0
C1578 C 0.56289 0.58791 0.32876 0.0
C1579 C 0.53083 0.56711 0.31065 0.0
C1580 C 0.57478 0.62339 0.33674 0.0
C1581 C 0.61184 0.63113 0.3301 0.0
N1582 N 0.54499 0.58452 0.32177 0.0
N1583 N 0.59715 0.61259 0.33124 0.0
H1584 H 0.36399 0.01415 0.37191 0.0
H1585 H 0.41499 0.9579 0.3095 0.0
H1586 H 0.33419 0.95282 0.34975 0.0
H1587 H 0.43982 0.01981 0.30784 0.0
H1588 H 0.38711 0.9558 0.33226 0.0
H1589 H 0.39349 0.01645 0.35542 0.0
C1590 C 0.36364 1.00117 0.36361 0.0
C1591 C 0.34655 0.98328 0.36206 0.0
C1592 C 0.39874 0.96986 0.32717 0.0
C1593 C 0.38031 0.98579 0.34349 0.0
C1594 C 0.41474 0.97109 0.31449 0.0
C1595 C 0.42972 0.98906 0.30677 0.0
C1596 C 0.39777 0.98675 0.33237 0.0
C1597 C 0.42851 0.00567 0.3133 0.0
C1598 C 0.38049 0.0025 0.35421 0.0
C1599 C 0.34698 0.96693 0.35116 0.0
N1600 N 0.41278 0.00411 0.32564 0.0
N1601 N 0.36359 0.96857 0.34235 0.0
H1602 H 0.60865 0.96893 0.3841 0.0
H1603 H 0.56335 0.00269 0.25905 0.0
H1604 H 0.63685 0.99349 0.30552 0.0
H1605 H 0.52998 0.96317 0.32363 0.0
H1606 H 0.59217 0.00514 0.28144 0.0
H1607 H 0.58151 0.97196 0.36716 0.0
C1608 C 0.6092 0.97506 0.36332 0.0
C1609 C 0.62503 0.98085 0.34609 0.0
C1610 C 0.57857 0.99609 0.2909 0.0
C1611 C 0.59398 0.98448 0.32673 0.0
C1612 C 0.56211 0.99471 0.27819 0.0
C1613 C 0.54415 0.98244 0.28919 0.0
C1614 C 0.57715 0.98525 0.31497 0.0
C1615 C 0.54349 0.97281 0.31441 0.0
C1616 C 0.59366 0.97676 0.35369 0.0
C1617 C 0.62491 0.98872 0.31941 0.0
N1618 N 0.55973 0.97426 0.32628 0.0
N1619 N 0.6096 0.99028 0.31053 0.0
H1620 H 0.08548 0.67456 0.30977 0.0
H1621 H 0.00685 0.56669 0.26532 0.0
H1622 H 0.02522 0.65479 0.30057 0.0
H1623 H 0.06695 0.58657 0.27696 0.0
H1624 H 0.01223 0.59671 0.28961 0.0
H1625 H 0.0781 0.641 0.30881 0.0
C1626 C 0.07066 0.66316 0.30794 0.0
C1627 C 0.05598 0.66754 0.30459 0.0
C1628 C 0.02418 0.59431 0.28754 0.0
C1629 C 0.04741 0.62895 0.30321 0.0
C1630 C 0.02108 0.57713 0.2738 0.0
C1631 C 0.03652 0.57428 0.26868 0.0
C1632 C 0.04288 0.60882 0.29591 0.0
C1633 C 0.05464 0.58817 0.28034 0.0
C1634 C 0.06644 0.64396 0.30746 0.0
C1635 C 0.03703 0.65213 0.30283 0.0
N1636 N 0.05739 0.60503 0.29282 0.0
N1637 N 0.03332 0.63352 0.30161 0.0
H1638 H 0.36246 0.36995 0.38207 0.0
H1639 H 0.40676 0.44967 0.26288 0.0
H1640 H 0.32922 0.37727 0.31439 0.0
H1641 H 0.44061 0.43395 0.3168 0.0
H1642 H 0.37854 0.42789 0.2888 0.0
H1643 H 0.39136 0.39732 0.36459 0.0
C1644 C 0.36121 0.37735 0.3636 0.0
C1645 C 0.34339 0.37119 0.3495 0.0
C1646 C 0.39218 0.4294 0.29527 0.0
C1647 C 0.3764 0.40264 0.32964 0.0
C1648 C 0.40831 0.44191 0.2806 0.0
C1649 C 0.426 0.44342 0.28747 0.0
C1650 C 0.39373 0.41829 0.317 0.0
C1651 C 0.42726 0.43323 0.31084 0.0
C1652 C 0.37773 0.39298 0.35369 0.0
C1653 C 0.34265 0.38138 0.32576 0.0
N1654 N 0.41126 0.42087 0.32452 0.0
N1655 N 0.35892 0.39657 0.31656 0.0
H1656 H 0.31985 0.29609 0.33924 0.0
H1657 H 0.30994 0.19602 0.37935 0.0
H1658 H 0.26621 0.24261 0.34287 0.0
H1659 H 0.363 0.25017 0.38207 0.0
H1660 H 0.29477 0.21079 0.3516 0.0
H1661 H 0.33651 0.27776 0.34064 0.0
C1662 C 0.31152 0.28047 0.33977 0.0
C1663 C 0.29161 0.27095 0.34178 0.0
C1664 C 0.30988 0.21931 0.35745 0.0
C1665 C 0.31065 0.24988 0.34364 0.0
C1666 C 0.31854 0.2108 0.373 0.0
C1667 C 0.33766 0.22197 0.38282 0.0
C1668 C 0.32043 0.23917 0.35225 0.0
C1669 C 0.3482 0.24115 0.37467 0.0
C1670 C 0.32107 0.26999 0.34059 0.0
C1671 C 0.2816 0.25064 0.34197 0.0
N1672 N 0.33936 0.24928 0.36029 0.0
N1673 N 0.29125 0.24083 0.34348 0.0
H1674 H 0.75667 0.02345 0.3369 0.0
H1675 H 0.78243 0.13106 0.37738 0.0
H1676 H 0.71458 0.04068 0.34936 0.0
H1677 H 0.82353 0.11202 0.37047 0.0
H1678 H 0.75803 0.10027 0.35409 0.0
H1679 H 0.78134 0.05739 0.33623 0.0
C1680 C 0.75256 0.03438 0.33907 0.0
C1681 C 0.73357 0.02921 0.34384 0.0
C1682 C 0.7725 0.10303 0.35699 0.0
C1683 C 0.7619 0.06825 0.34344 0.0
C1684 C 0.78646 0.12064 0.37018 0.0
C1685 C 0.80498 0.12399 0.37647 0.0
C1686 C 0.77708 0.08866 0.35011 0.0
C1687 C 0.80947 0.11011 0.36624 0.0
C1688 C 0.76668 0.05381 0.33865 0.0
C1689 C 0.72907 0.04401 0.34595 0.0
N1690 N 0.79553 0.09291 0.35414 0.0
N1691 N 0.7432 0.06289 0.34633 0.0
H1692 H 0.99832 0.71355 0.34751 0.0
H1693 H 0.88493 0.65261 0.334 0.0
H1694 H 0.96751 0.6827 0.2681 0.0
H1695 H 0.91689 0.69482 0.40344 0.0
H1696 H 0.91444 0.66427 0.30795 0.0
H1697 H 0.96827 0.70688 0.36782 0.0
C1698 C 0.98522 0.70534 0.33434 0.0
C1699 C 0.98543 0.69858 0.30612 0.0
C1700 C 0.91492 0.67119 0.32867 0.0
C1701 C 0.95087 0.6909 0.32925 0.0
C1702 C 0.89806 0.66467 0.34339 0.0
C1703 C 0.89855 0.67261 0.37105 0.0
C1704 C 0.93233 0.68563 0.34187 0.0
C1705 C 0.91597 0.68808 0.38236 0.0
C1706 C 0.96805 0.70165 0.34588 0.0
C1707 C 0.968 0.68815 0.29 0.0
N1708 N 0.93219 0.69388 0.36795 0.0
N1709 N 0.95139 0.68449 0.30187 0.0
H1710 H 0.36016 0.00546 0.70495 0.0
H1711 H 0.46203 0.01479 0.68064 0.0
H1712 H 0.38915 0.0231 0.62496 0.0
H1713 H 0.42965 0.99218 0.75664 0.0
H1714 H 0.43512 0.01673 0.6586 0.0
H1715 H 0.38534 0.99977 0.72356 0.0
C1716 C 0.3718 0.0081 0.69127 0.0
C1717 C 0.37256 0.01484 0.6634 0.0
C1718 C 0.43389 0.01124 0.68004 0.0
C1719 C 0.40153 0.00838 0.68457 0.0
C1720 C 0.4492 0.01005 0.69251 0.0
C1721 C 0.44818 0.00363 0.72066 0.0
C1722 C 0.4175 0.00593 0.69586 0.0
C1723 C 0.43122 0.99764 0.73513 0.0
C1724 C 0.38617 0.00482 0.70187 0.0
C1725 C 0.38798 0.01794 0.64661 0.0
N1726 N 0.41666 0.99908 0.7227 0.0
N1727 N 0.40189 0.01478 0.65749 0.0
H1728 H 0.92935 0.34968 0.6899 0.0
H1729 H 0.02189 0.45423 0.70971 0.0
H1730 H 0.98709 0.36015 0.69501 0.0
H1731 H 0.96479 0.4414 0.72648 0.0
H1732 H 0.00888 0.42144 0.68788 0.0
H1733 H 0.94187 0.38438 0.68721 0.0
C1734 C 0.94467 0.35921 0.68999 0.0
C1735 C 0.95718 0.35196 0.69342 0.0
C1736 C 0.99915 0.426 0.69549 0.0
C1737 C 0.97159 0.39181 0.69038 0.0
C1738 C 0.00656 0.44476 0.70757 0.0
C1739 C 0.99434 0.45039 0.71978 0.0
C1740 C 0.97943 0.4129 0.69574 0.0
C1741 C 0.97462 0.43753 0.71714 0.0
C1742 C 0.9518 0.37905 0.68843 0.0
C1743 C 0.97689 0.36507 0.69288 0.0
N1744 N 0.96777 0.41926 0.70579 0.0
N1745 N 0.98349 0.3844 0.69191 0.0
H1746 H 0.6708 0.64395 0.69231 0.0
H1747 H 0.5924 0.53519 0.71547 0.0
H1748 H 0.67107 0.59606 0.64723 0.0
H1749 H 0.58355 0.58329 0.73386 0.0
H1750 H 0.62073 0.55662 0.68936 0.0
H1751 H 0.63897 0.62163 0.70856 0.0
C1752 C 0.66418 0.62873 0.68587 0.0
C1753 C 0.67365 0.62184 0.66854 0.0
C1754 C 0.61239 0.56239 0.6987 0.0
C1755 C 0.63719 0.5962 0.68702 0.0
C1756 C 0.59609 0.55012 0.71338 0.0
C1757 C 0.58572 0.55751 0.72724 0.0
C1758 C 0.61844 0.58221 0.69822 0.0
C1759 C 0.59136 0.57706 0.72405 0.0
C1760 C 0.64594 0.61601 0.69495 0.0
C1761 C 0.6643 0.60198 0.66063 0.0
N1762 N 0.60751 0.5888 0.71033 0.0
N1763 N 0.64664 0.58981 0.67016 0.0
H1764 H 0.75998 0.75649 0.67534 0.0
H1765 H 0.67421 0.76751 0.61696 0.0
H1766 H 0.70196 0.70909 0.6641 0.0
H1767 H 0.73185 0.81495 0.6316 0.0
H1768 H 0.68214 0.74755 0.64681 0.0
H1769 H 0.74832 0.77921 0.67219 0.0
C1770 C 0.74474 0.75084 0.67273 0.0
C1771 C 0.73198 0.73085 0.66915 0.0
C1772 C 0.69294 0.76248 0.64416 0.0
C1773 C 0.71854 0.75683 0.66511 0.0
C1774 C 0.68838 0.77388 0.62718 0.0
C1775 C 0.70251 0.79275 0.62129 0.0
C1776 C 0.71182 0.76995 0.65495 0.0
C1777 C 0.72056 0.80043 0.63539 0.0
C1778 C 0.73807 0.76384 0.67098 0.0
C1779 C 0.71236 0.72438 0.66645 0.0
N1780 N 0.72483 0.78884 0.65099 0.0
N1781 N 0.70627 0.73734 0.66381 0.0
H1782 H 0.28392 0.96134 0.66911 0.0
H1783 H 0.1738 0.89036 0.63615 0.0
H1784 H 0.24167 0.97917 0.66752 0.0
H1785 H 0.21441 0.87094 0.64602 0.0
H1786 H 0.1973 0.92181 0.65864 0.0
H1787 H 0.25827 0.92766 0.67083 0.0
C1788 C 0.26931 0.95825 0.66967 0.0
C1789 C 0.26497 0.97314 0.66749 0.0
C1790 C 0.20096 0.91054 0.65676 0.0
C1791 C 0.2355 0.93456 0.66928 0.0
C1792 C 0.18743 0.89251 0.64427 0.0
C1793 C 0.1922 0.87811 0.63947 0.0
C1794 C 0.21957 0.91432 0.66374 0.0
C1795 C 0.21018 0.88168 0.64968 0.0
C1796 C 0.25464 0.93898 0.67064 0.0
C1797 C 0.24574 0.9682 0.66856 0.0
N1798 N 0.2234 0.8996 0.66073 0.0
N1799 N 0.23175 0.94936 0.6689 0.0
H1800 H 0.00567 0.2869 0.6928 0.0
H1801 H 0.1115 0.35355 0.64427 0.0
H1802 H 0.03702 0.34866 0.71135 0.0
H1803 H 0.08484 0.29155 0.64777 0.0
H1804 H 0.08524 0.35246 0.67082 0.0
H1805 H 0.0349 0.2885 0.67709 0.0
C1806 C 0.01871 0.30082 0.69359 0.0
C1807 C 0.01886 0.3177 0.7032 0.0
C1808 C 0.08532 0.33914 0.66629 0.0
C1809 C 0.05246 0.31962 0.68521 0.0
C1810 C 0.10032 0.33977 0.65124 0.0
C1811 C 0.10029 0.32261 0.64378 0.0
C1812 C 0.07002 0.32118 0.67346 0.0
C1813 C 0.08549 0.30513 0.65326 0.0
C1814 C 0.03545 0.30169 0.68479 0.0
C1815 C 0.03624 0.33529 0.704 0.0
N1816 N 0.07078 0.30482 0.66719 0.0
N1817 N 0.05232 0.33583 0.69484 0.0
H1818 H 0.30289 0.32836 0.64012 0.0
H1819 H 0.19334 0.29429 0.65045 0.0
H1820 H 0.27046 0.2971 0.71224 0.0
H1821 H 0.23131 0.34355 0.60237 0.0
H1822 H 0.2211 0.29495 0.67381 0.0
H1823 H 0.27641 0.33318 0.6246 0.0
C1824 C 0.29023 0.32253 0.65267 0.0
C1825 C 0.28886 0.31226 0.67743 0.0
C1826 C 0.22335 0.3058 0.65847 0.0
C1827 C 0.25857 0.31765 0.65984 0.0
C1828 C 0.20749 0.30558 0.64536 0.0
C1829 C 0.20994 0.31868 0.62402 0.0
C1830 C 0.24176 0.31904 0.64989 0.0
C1831 C 0.2287 0.33284 0.61814 0.0
C1832 C 0.2752 0.3254 0.64395 0.0
C1833 C 0.27216 0.30512 0.693 0.0
N1834 N 0.24386 0.3324 0.63053 0.0
N1835 N 0.25761 0.30778 0.6838 0.0
H1836 H 0.68643 0.98096 0.64106 0.0
H1837 H 0.72576 0.90859 0.62279 0.0
H1838 H 0.74583 0.99723 0.65097 0.0
H1839 H 0.6662 0.89128 0.61129 0.0
H1840 H 0.73198 0.93909 0.64572 0.0
H1841 H 0.6777 0.9469 0.64156 0.0
C1842 C 0.69763 0.97742 0.64386 0.0
C1843 C 0.71693 0.992 0.64531 0.0
C1844 C 0.71745 0.92848 0.63877 0.0
C1845 C 0.70703 0.95304 0.64581 0.0
C1846 C 0.71383 0.91088 0.62595 0.0
C1847 C 0.69547 0.89747 0.61449 0.0
C1848 C 0.70267 0.93283 0.63983 0.0
C1849 C 0.68066 0.90143 0.61916 0.0
C1850 C 0.69263 0.95794 0.64413 0.0
C1851 C 0.73078 0.9865 0.64916 0.0
N1852 N 0.68465 0.91893 0.63084 0.0
N1853 N 0.72558 0.9675 0.64886 0.0
H1854 H 0.98489 0.70412 0.64544 0.0
H1855 H 0.09857 0.75965 0.65011 0.0
H1856 H 0.01861 0.69442 0.70934 0.0
H1857 H 0.06478 0.77567 0.59658 0.0
H1858 H 0.06985 0.73762 0.67495 0.0
H1859 H 0.01411 0.73148 0.62895 0.0
C1860 C 0.99843 0.70776 0.65606 0.0
C1861 C 0.99929 0.69684 0.67868 0.0
C1862 C 0.06876 0.74617 0.65807 0.0
C1863 C 0.03287 0.72822 0.6599 0.0
C1864 C 0.08522 0.75892 0.64409 0.0
C1865 C 0.08405 0.76934 0.62096 0.0
C1866 C 0.051 0.74373 0.64873 0.0
C1867 C 0.06628 0.76763 0.61391 0.0
C1868 C 0.01512 0.72346 0.64672 0.0
C1869 C 0.01726 0.70235 0.69174 0.0
N1870 N 0.05043 0.75486 0.62741 0.0
N1871 N 0.03333 0.71754 0.68201 0.0
H1872 H 0.92544 0.5692 0.66757 0.0
H1873 H 0.02709 0.58172 0.70462 0.0
H1874 H 0.97839 0.62383 0.67098 0.0
H1875 H 0.97387 0.52859 0.71146 0.0
H1876 H 0.01027 0.59505 0.67759 0.0
H1877 H 0.94356 0.5524 0.66923 0.0
C1878 C 0.94088 0.57769 0.66817 0.0
C1879 C 0.95039 0.59802 0.66992 0.0
C1880 C 1.00231 0.58026 0.68419 0.0
C1881 C 0.97123 0.57878 0.67198 0.0
C1882 C 0.01195 0.57262 0.69931 0.0
C1883 C 1.00176 0.55408 0.71003 0.0
C1884 C 0.98233 0.56936 0.68032 0.0
C1885 C 0.98215 0.54291 0.70326 0.0
C1886 C 0.95122 0.56805 0.6691 0.0
C1887 C 0.97042 0.60817 0.67012 0.0
N1888 N 0.97297 0.55086 0.68926 0.0
N1889 N 0.98017 0.59845 0.6717 0.0
H1890 H 0.42007 0.35218 0.67807 0.0
H1891 H 0.44722 0.45971 0.71904 0.0
H1892 H 0.37849 0.3705 0.68631 0.0
H1893 H 0.48804 0.44068 0.70812 0.0
H1894 H 0.42253 0.42941 0.69495 0.0
H1895 H 0.44522 0.38594 0.67736 0.0
C1896 C 0.41619 0.36333 0.67935 0.0
C1897 C 0.39719 0.35852 0.68288 0.0
C1898 C 0.437 0.43207 0.69708 0.0
C1899 C 0.42605 0.39736 0.68247 0.0
C1900 C 0.45113 0.44943 0.71068 0.0
C1901 C 0.46964 0.45256 0.71617 0.0
C1902 C 0.4414 0.41772 0.6891 0.0
C1903 C 0.47398 0.43888 0.70456 0.0
C1904 C 0.43058 0.38264 0.67886 0.0
C1905 C 0.39298 0.37356 0.68387 0.0
N1906 N 0.45986 0.42187 0.69221 0.0
N1907 N 0.40736 0.39234 0.68429 0.0
H1908 H 0.64694 0.01592 0.64334 0.0
H1909 H 0.58435 0.04312 0.74126 0.0
H1910 H 0.66847 0.0733 0.68202 0.0
H1911 H 0.5597 0.99329 0.68173 0.0
H1912 H 0.61504 0.0552 0.71865 0.0
H1913 H 0.61483 0.00748 0.65695 0.0
C1914 C 0.64493 0.02675 0.65472 0.0
C1915 C 0.66045 0.04531 0.66175 0.0
C1916 C 0.60284 0.04184 0.71006 0.0
C1917 C 0.62369 0.03574 0.67732 0.0
C1918 C 0.58533 0.03505 0.72282 0.0
C1919 C 0.56956 0.01729 0.71314 0.0
C1920 C 0.60466 0.03055 0.68793 0.0
C1921 C 0.57153 0.00716 0.68954 0.0
C1922 C 0.62655 0.02196 0.66227 0.0
C1923 C 0.65694 0.0588 0.67626 0.0
N1924 N 0.58888 0.01376 0.67802 0.0
N1925 N 0.63896 0.05369 0.6838 0.0
loop_
_geom_bond_atom_site_label_1
_geom_bond_atom_site_label_2
_geom_bond_distance
_geom_bond_site_symmetry_2
_ccdc_geom_bond_type
Mg0 O1 2.028 1_556 S
Mg0 O7 1.986 1_455 S
Mg0 O9 2.114 . S
Mg0 O10 2.251 1_455 S
Mg0 O13 2.010 1_556 S
O1 Mg0 2.028 1_554 S
O1 C4 1.250 1_455 S
O2 Mg3 2.028 1_554 S
O2 C4 1.248 . S
Mg3 O2 2.028 1_556 S
Mg3 O8 2.032 . S
Mg3 O10 2.079 . S
C4 O1 1.250 1_655 S
C4 O2 1.248 . S
C5 O6 1.264 1_554 S
C5 O13 1.249 . S
O6 C5 1.264 1_556 S
O7 Mg0 1.986 1_655 S
O7 C11 1.246 . S
O8 Mg3 2.032 . S
O8 C11 1.259 . S
O9 Mg0 2.114 . S
O9 C12 1.252 . S
O10 Mg0 2.251 1_655 S
O10 Mg3 2.079 . S
O10 C12 1.273 1_655 S
C11 O7 1.246 . S
C11 O8 1.259 . S
C12 O9 1.252 . S
C12 O10 1.273 1_455 S
O13 Mg0 2.010 1_554 S
O13 C5 1.249 . S
Mg14 O15 2.028 1_554 S
Mg14 O21 1.986 . S
Mg14 O23 2.114 . S
Mg14 O24 2.251 . S
Mg14 O27 2.010 . S
O15 Mg14 2.028 1_556 S
O15 C18 1.250 . S
O16 Mg17 2.028 1_556 S
O16 C18 1.248 . S
Mg17 O16 2.028 1_554 S
Mg17 O22 2.032 . S
Mg17 O24 2.079 . S
C18 O15 1.250 . S
C18 O16 1.248 . S
C19 O20 1.264 . S
C19 O27 1.249 . S
O20 C19 1.264 . S
O21 Mg14 1.986 . S
O21 C25 1.246 . S
O22 Mg17 2.032 . S
O22 C25 1.259 . S
O23 Mg14 2.114 . S
O23 C26 1.252 . S
O24 Mg14 2.251 . S
O24 Mg17 2.079 . S
O24 C26 1.273 . S
C25 O21 1.246 . S
C25 O22 1.259 . S
C26 O23 1.252 . S
C26 O24 1.273 . S
O27 Mg14 2.010 . S
O27 C19 1.249 . S
Mg28 O29 2.021 1_556 S
Mg28 O35 1.988 1_565 S
Mg28 O37 2.114 . S
Mg28 O38 2.251 1_565 S
Mg28 O41 2.010 1_556 S
O29 Mg28 2.021 1_554 S
O29 C32 1.243 1_565 S
O30 Mg31 2.028 1_554 S
O30 C32 1.248 . S
Mg31 O30 2.028 1_556 S
Mg31 O36 2.032 . S
Mg31 O38 2.079 . S
C32 O29 1.243 1_545 S
C32 O30 1.248 . S
C33 O34 1.264 1_554 S
C33 O41 1.249 . S
O34 C33 1.264 1_556 S
O35 Mg28 1.988 1_545 S
O35 C39 1.250 . S
O36 Mg31 2.032 . S
O36 C39 1.259 . S
O37 Mg28 2.114 . S
O37 C40 1.252 . S
O38 Mg28 2.251 1_545 S
O38 Mg31 2.079 . S
O38 C40 1.273 1_545 S
C39 O35 1.250 . S
C39 O36 1.259 . S
C40 O37 1.252 . S
C40 O38 1.273 1_565 S
O41 Mg28 2.010 1_554 S
O41 C33 1.249 . S
Mg42 O43 2.028 1_554 S
Mg42 O49 1.986 1_655 S
Mg42 O51 2.114 . S
Mg42 O52 2.251 1_655 S
Mg42 O55 2.010 . S
O43 Mg42 2.028 1_556 S
O43 C46 1.250 1_655 S
O44 Mg45 2.028 1_556 S
O44 C46 1.248 . S
Mg45 O44 2.028 1_554 S
Mg45 O50 2.032 . S
Mg45 O52 2.079 . S
C46 O43 1.250 1_455 S
C46 O44 1.248 . S
C47 O48 1.264 . S
C47 O55 1.249 . S
O48 C47 1.264 . S
O49 Mg42 1.986 1_455 S
O49 C53 1.246 . S
O50 Mg45 2.032 . S
O50 C53 1.259 . S
O51 Mg42 2.114 . S
O51 C54 1.252 . S
O52 Mg42 2.251 1_455 S
O52 Mg45 2.079 . S
O52 C54 1.273 1_455 S
C53 O49 1.246 . S
C53 O50 1.259 . S
C54 O51 1.252 . S
C54 O52 1.273 1_655 S
O55 Mg42 2.010 . S
O55 C47 1.249 . S
Mg56 O57 2.028 1_556 S
Mg56 O63 1.986 . S
Mg56 O65 2.114 . S
Mg56 O66 2.251 . S
Mg56 O69 2.010 1_556 S
O57 Mg56 2.028 1_554 S
O57 C60 1.250 . S
O58 Mg59 2.028 1_554 S
O58 C60 1.248 . S
Mg59 O58 2.028 1_556 S
Mg59 O64 2.032 . S
Mg59 O66 2.079 . S
C60 O57 1.250 . S
C60 O58 1.248 . S
C61 O62 1.266 . S
C61 O69 1.249 . S
O62 C61 1.266 . S
O63 Mg56 1.986 . S
O63 C67 1.246 . S
O64 Mg59 2.032 . S
O64 C67 1.259 . S
O65 Mg56 2.114 . S
O65 C68 1.252 . S
O66 Mg56 2.251 . S
O66 Mg59 2.079 . S
O66 C68 1.273 . S
C67 O63 1.246 . S
C67 O64 1.259 . S
C68 O65 1.252 . S
C68 O66 1.273 . S
O69 Mg56 2.010 1_554 S
O69 C61 1.249 . S
Mg70 O71 2.028 1_554 S
Mg70 O77 1.986 1_545 S
Mg70 O79 2.114 . S
Mg70 O80 2.251 1_545 S
Mg70 O83 2.010 . S
O71 Mg70 2.028 1_556 S
O71 C74 1.250 1_545 S
O72 Mg73 2.028 1_556 S
O72 C74 1.248 . S
Mg73 O72 2.028 1_554 S
Mg73 O78 2.032 . S
Mg73 O80 2.079 . S
C74 O71 1.250 1_565 S
C74 O72 1.248 . S
C75 O76 1.264 . S
C75 O83 1.249 . S
O76 C75 1.264 . S
O77 Mg70 1.986 1_565 S
O77 C81 1.246 . S
O78 Mg73 2.032 . S
O78 C81 1.259 . S
O79 Mg70 2.114 . S
O79 C82 1.252 . S
O80 Mg70 2.251 1_565 S
O80 Mg73 2.079 . S
O80 C82 1.273 1_565 S
C81 O77 1.246 . S
C81 O78 1.259 . S
C82 O79 1.252 . S
C82 O80 1.273 1_545 S
O83 Mg70 2.010 . S
O83 C75 1.249 . S
Mg84 O85 2.028 . S
Mg84 O91 1.986 . S
Mg84 O93 2.114 . S
Mg84 O94 2.251 . S
Mg84 O97 2.010 . S
O85 Mg84 2.028 . S
O85 C88 1.250 . S
O86 Mg87 2.028 . S
O86 C88 1.248 . S
Mg87 O86 2.028 . S
Mg87 O92 2.032 . S
Mg87 O94 2.079 . S
C88 O85 1.250 . S
C88 O86 1.248 . S
C89 O90 1.264 . S
C89 O97 1.249 . S
O90 C89 1.264 . S
O91 Mg84 1.986 . S
O91 C95 1.246 . S
O92 Mg87 2.032 . S
O92 C95 1.259 . S
O93 Mg84 2.114 . S
O93 C96 1.252 . S
O94 Mg84 2.251 . S
O94 Mg87 2.079 . S
O94 C96 1.273 . S
C95 O91 1.246 . S
C95 O92 1.259 . S
C96 O93 1.252 . S
C96 O94 1.273 . S
O97 Mg84 2.010 . S
O97 C89 1.249 . S
Mg98 O99 2.028 . S
Mg98 O105 1.986 1_565 S
Mg98 O107 2.114 . S
Mg98 O108 2.251 . S
Mg98 O111 2.010 . S
O99 Mg98 2.028 . S
O99 C102 1.250 . S
O100 Mg101 2.028 . S
O100 C102 1.248 . S
Mg101 O100 2.028 . S
Mg101 O106 2.032 1_565 S
Mg101 O108 2.079 . S
C102 O99 1.250 . S
C102 O100 1.248 . S
C103 O104 1.264 . S
C103 O111 1.249 . S
O104 C103 1.264 . S
O105 Mg98 1.986 1_545 S
O105 C109 1.246 . S
O106 Mg101 2.032 1_545 S
O106 C109 1.259 . S
O107 Mg98 2.114 . S
O107 C110 1.252 . S
O108 Mg98 2.251 . S
O108 Mg101 2.079 . S
O108 C110 1.273 . S
C109 O105 1.246 . S
C109 O106 1.259 . S
C110 O107 1.252 . S
C110 O108 1.273 . S
O111 Mg98 2.010 . S
O111 C103 1.249 . S
Mg112 O113 2.028 . S
Mg112 O119 1.986 . S
Mg112 O121 2.114 . S
Mg112 O122 2.251 . S
Mg112 O125 2.010 1_455 S
O113 Mg112 2.028 . S
O113 C116 1.250 . S
O114 Mg115 2.028 . S
O114 C116 1.248 . S
Mg115 O114 2.028 . S
Mg115 O120 2.032 . S
Mg115 O122 2.079 . S
C116 O113 1.250 . S
C116 O114 1.248 . S
C117 O118 1.264 . S
C117 O125 1.249 . S
O118 C117 1.264 . S
O119 Mg112 1.986 . S
O119 C123 1.246 . S
O120 Mg115 2.032 . S
O120 C123 1.259 . S
O121 Mg112 2.114 . S
O121 C124 1.252 . S
O122 Mg112 2.251 . S
O122 Mg115 2.079 . S
O122 C124 1.273 . S
C123 O119 1.246 . S
C123 O120 1.259 . S
C124 O121 1.252 . S
C124 O122 1.273 . S
O125 Mg112 2.010 1_655 S
O125 C117 1.249 . S
Mg126 O127 2.028 . S
Mg126 O133 1.986 1_565 S
Mg126 O135 2.114 . S
Mg126 O136 2.251 . S
Mg126 O139 2.010 . S
O127 Mg126 2.028 . S
O127 C130 1.250 . S
O128 Mg129 2.028 . S
O128 C130 1.248 . S
Mg129 O128 2.028 . S
Mg129 O134 2.032 1_565 S
Mg129 O136 2.079 . S
C130 O127 1.250 . S
C130 O128 1.248 . S
C131 O132 1.264 . S
C131 O139 1.249 . S
O132 C131 1.264 . S
O133 Mg126 1.986 1_545 S
O133 C137 1.246 . S
O134 Mg129 2.032 1_545 S
O134 C137 1.259 . S
O135 Mg126 2.114 . S
O135 C138 1.252 . S
O136 Mg126 2.251 . S
O136 Mg129 2.079 . S
O136 C138 1.273 . S
C137 O133 1.246 . S
C137 O134 1.259 . S
C138 O135 1.252 . S
C138 O136 1.273 . S
O139 Mg126 2.010 . S
O139 C131 1.249 . S
Mg140 O141 2.028 . S
Mg140 O147 1.986 . S
Mg140 O149 2.114 . S
Mg140 O150 2.251 . S
Mg140 O153 2.010 1_455 S
O141 Mg140 2.028 . S
O141 C144 1.250 . S
O142 Mg143 2.028 . S
O142 C144 1.248 . S
Mg143 O142 2.028 . S
Mg143 O148 2.032 . S
Mg143 O150 2.079 . S
C144 O141 1.250 . S
C144 O142 1.248 . S
C145 O146 1.264 . S
C145 O153 1.249 . S
O146 C145 1.264 . S
O147 Mg140 1.986 . S
O147 C151 1.246 . S
O148 Mg143 2.032 . S
O148 C151 1.259 . S
O149 Mg140 2.114 . S
O149 C152 1.252 . S
O150 Mg140 2.251 . S
O150 Mg143 2.079 . S
O150 C152 1.273 . S
C151 O147 1.246 . S
C151 O148 1.259 . S
C152 O149 1.252 . S
C152 O150 1.273 . S
O153 Mg140 2.010 1_655 S
O153 C145 1.249 . S
Mg154 O155 2.028 . S
Mg154 O161 1.986 . S
Mg154 O163 2.114 . S
Mg154 O164 2.251 . S
Mg154 O167 2.010 . S
O155 Mg154 2.028 . S
O155 C158 1.250 . S
O156 Mg157 2.028 . S
O156 C158 1.248 . S
Mg157 O156 2.028 . S
Mg157 O162 2.032 . S
Mg157 O164 2.079 . S
C158 O155 1.250 . S
C158 O156 1.248 . S
C159 O160 1.264 . S
C159 O167 1.249 . S
O160 C159 1.264 . S
O161 Mg154 1.986 . S
O161 C165 1.246 . S
O162 Mg157 2.032 . S
O162 C165 1.259 . S
O163 Mg154 2.114 . S
O163 C166 1.252 . S
O164 Mg154 2.251 . S
O164 Mg157 2.079 . S
O164 C166 1.273 . S
C165 O161 1.246 . S
C165 O162 1.259 . S
C166 O163 1.252 . S
C166 O164 1.273 . S
O167 Mg154 2.010 . S
O167 C159 1.249 . S
Mg168 O169 2.028 . S
Mg168 O175 1.986 1_545 S
Mg168 O177 2.114 . S
Mg168 O178 2.251 . S
Mg168 O181 2.010 . S
O169 Mg168 2.028 . S
O169 C172 1.250 . S
O170 Mg171 2.028 . S
O170 C172 1.248 . S
Mg171 O170 2.028 . S
Mg171 O176 2.032 1_545 S
Mg171 O178 2.079 . S
C172 O169 1.250 . S
C172 O170 1.248 . S
C173 O174 1.264 . S
C173 O181 1.249 . S
O174 C173 1.264 . S
O175 Mg168 1.986 1_565 S
O175 C179 1.246 . S
O176 Mg171 2.032 1_565 S
O176 C179 1.259 . S
O177 Mg168 2.114 . S
O177 C180 1.252 . S
O178 Mg168 2.251 . S
O178 Mg171 2.079 . S
O178 C180 1.273 . S
C179 O175 1.246 . S
C179 O176 1.259 . S
C180 O177 1.252 . S
C180 O178 1.273 . S
O181 Mg168 2.010 . S
O181 C173 1.249 . S
Mg182 O183 2.028 . S
Mg182 O189 1.986 . S
Mg182 O191 2.114 . S
Mg182 O192 2.251 . S
Mg182 O195 2.010 1_655 S
O183 Mg182 2.028 . S
O183 C186 1.250 . S
O184 Mg185 2.028 . S
O184 C186 1.248 . S
Mg185 O184 2.028 . S
Mg185 O190 2.032 . S
Mg185 O192 2.079 . S
C186 O183 1.250 . S
C186 O184 1.248 . S
C187 O188 1.264 . S
C187 O195 1.249 . S
O188 C187 1.264 . S
O189 Mg182 1.986 . S
O189 C193 1.246 . S
O190 Mg185 2.032 . S
O190 C193 1.259 . S
O191 Mg182 2.114 . S
O191 C194 1.252 . S
O192 Mg182 2.251 . S
O192 Mg185 2.079 . S
O192 C194 1.273 . S
C193 O189 1.246 . S
C193 O190 1.259 . S
C194 O191 1.252 . S
C194 O192 1.273 . S
O195 Mg182 2.010 1_455 S
O195 C187 1.249 . S
Mg196 O197 2.028 . S
Mg196 O203 1.986 . S
Mg196 O205 2.114 . S
Mg196 O206 2.251 . S
Mg196 O209 2.010 . S
O197 Mg196 2.028 . S
O197 C200 1.250 . S
O198 Mg199 2.028 . S
O198 C200 1.248 . S
Mg199 O198 2.028 . S
Mg199 O204 2.032 . S
Mg199 O206 2.079 . S
C200 O197 1.250 . S
C200 O198 1.248 . S
C201 O202 1.264 . S
C201 O209 1.249 . S
O202 C201 1.264 . S
O203 Mg196 1.986 . S
O203 C207 1.246 . S
O204 Mg199 2.032 . S
O204 C207 1.259 . S
O205 Mg196 2.114 . S
O205 C208 1.252 . S
O206 Mg196 2.251 . S
O206 Mg199 2.079 . S
O206 C208 1.273 . S
C207 O203 1.246 . S
C207 O204 1.259 . S
C208 O205 1.252 . S
C208 O206 1.273 . S
O209 Mg196 2.010 . S
O209 C201 1.249 . S
Mg210 O211 2.028 . S
Mg210 O217 1.986 . S
Mg210 O219 2.114 . S
Mg210 O220 2.251 . S
Mg210 O223 2.010 . S
O211 Mg210 2.028 . S
O211 C214 1.250 . S
O212 Mg213 2.028 . S
O212 C214 1.248 . S
Mg213 O212 2.028 . S
Mg213 O218 2.032 . S
Mg213 O220 2.079 . S
C214 O211 1.250 . S
C214 O212 1.248 . S
C215 O216 1.264 . S
C215 O223 1.249 . S
O216 C215 1.264 . S
O217 Mg210 1.986 . S
O217 C221 1.246 . S
O218 Mg213 2.032 . S
O218 C221 1.259 . S
O219 Mg210 2.114 . S
O219 C222 1.252 . S
O220 Mg210 2.251 . S
O220 Mg213 2.079 . S
O220 C222 1.273 . S
C221 O217 1.246 . S
C221 O218 1.259 . S
C222 O219 1.252 . S
C222 O220 1.273 . S
O223 Mg210 2.010 . S
O223 C215 1.249 . S
Mg224 O225 2.028 . S
Mg224 O231 1.986 1_545 S
Mg224 O233 2.114 . S
Mg224 O234 2.251 . S
Mg224 O237 2.010 . S
O225 Mg224 2.028 . S
O225 C228 1.250 . S
O226 Mg227 2.028 . S
O226 C228 1.248 . S
Mg227 O226 2.028 . S
Mg227 O232 2.032 1_545 S
Mg227 O234 2.079 . S
C228 O225 1.250 . S
C228 O226 1.248 . S
C229 O230 1.264 . S
C229 O237 1.249 . S
O230 C229 1.264 . S
O231 Mg224 1.986 1_565 S
O231 C235 1.246 . S
O232 Mg227 2.032 1_565 S
O232 C235 1.259 . S
O233 Mg224 2.114 . S
O233 C236 1.252 . S
O234 Mg224 2.251 . S
O234 Mg227 2.079 . S
O234 C236 1.273 . S
C235 O231 1.246 . S
C235 O232 1.259 . S
C236 O233 1.252 . S
C236 O234 1.273 . S
O237 Mg224 2.010 . S
O237 C229 1.249 . S
Mg238 O239 2.028 . S
Mg238 O245 1.986 . S
Mg238 O247 2.114 . S
Mg238 O248 2.251 . S
Mg238 O251 2.010 1_655 S
O239 Mg238 2.028 . S
O239 C242 1.250 . S
O240 Mg241 2.028 . S
O240 C242 1.248 . S
Mg241 O240 2.028 . S
Mg241 O246 2.032 . S
Mg241 O248 2.079 . S
C242 O239 1.250 . S
C242 O240 1.248 . S
C243 O244 1.264 . S
C243 O251 1.249 . S
O244 C243 1.264 . S
O245 Mg238 1.986 . S
O245 C249 1.246 . S
O246 Mg241 2.032 . S
O246 C249 1.259 . S
O247 Mg238 2.114 . S
O247 C250 1.252 . S
O248 Mg238 2.251 . S
O248 Mg241 2.079 . S
O248 C250 1.273 . S
C249 O245 1.246 . S
C249 O246 1.259 . S
C250 O247 1.252 . S
C250 O248 1.273 . S
O251 Mg238 2.010 1_455 S
O251 C243 1.249 . S
H252 C260 0.930 . S
H253 C263 0.930 . S
H254 C265 0.930 . S
H255 C266 0.970 . S
H256 C266 0.970 . S
H257 C268 0.930 . S
H258 C270 0.930 . S
H259 C272 0.930 . S
C260 H252 0.930 . S
C260 C261 1.382 . S
C260 C262 1.426 . S
C261 C260 1.382 . S
C261 C265 1.389 . S
C262 C260 1.426 . S
C262 C263 1.375 . S
C262 C266 1.532 . S
C263 H253 0.930 . S
C263 C262 1.375 . S
C263 C264 1.416 . S
C264 C263 1.416 . S
C264 C265 1.371 . S
C265 H254 0.930 . S
C265 C261 1.389 . S
C265 C264 1.371 . S
C266 H255 0.970 . S
C266 H256 0.970 . S
C266 C262 1.532 . S
C266 C267 1.499 . S
C267 C266 1.499 . S
C267 C268 1.370 . S
C267 C272 1.415 . S
C268 H257 0.930 . S
C268 C267 1.370 . S
C268 C269 1.407 . S
C269 C268 1.407 . S
C269 C270 1.365 . S
C270 H258 0.930 . S
C270 C269 1.365 . S
C270 C271 1.393 . S
C271 C270 1.393 . S
C271 C272 1.387 . S
C272 H259 0.930 . S
C272 C267 1.415 . S
C272 C271 1.387 . S
H273 C281 0.930 . S
H274 C284 0.930 . S
H275 C286 0.930 . S
H276 C287 0.970 . S
H277 C287 0.970 . S
H278 C289 0.930 . S
H279 C291 0.930 . S
H280 C293 0.930 . S
C281 H273 0.930 . S
C281 C282 1.382 . S
C281 C283 1.426 . S
C282 C281 1.382 . S
C282 C286 1.389 . S
C283 C281 1.426 . S
C283 C284 1.375 . S
C283 C287 1.532 . S
C284 H274 0.930 . S
C284 C283 1.375 . S
C284 C285 1.416 . S
C285 C284 1.416 . S
C285 C286 1.371 . S
C286 H275 0.930 . S
C286 C282 1.389 . S
C286 C285 1.371 . S
C287 H276 0.970 . S
C287 H277 0.970 . S
C287 C283 1.532 . S
C287 C288 1.499 . S
C288 C287 1.499 . S
C288 C289 1.370 . S
C288 C293 1.415 . S
C289 H278 0.930 . S
C289 C288 1.370 . S
C289 C290 1.407 . S
C290 C289 1.407 . S
C290 C291 1.365 . S
C291 H279 0.930 . S
C291 C290 1.365 . S
C291 C292 1.393 . S
C292 C291 1.393 . S
C292 C293 1.387 . S
C293 H280 0.930 . S
C293 C288 1.415 . S
C293 C292 1.387 . S
H294 C302 0.930 . S
H295 C305 0.930 . S
H296 C307 0.930 . S
H297 C308 0.970 . S
H298 C308 0.970 . S
H299 C310 0.930 . S
H300 C312 0.930 . S
H301 C314 0.930 . S
C302 H294 0.930 . S
C302 C303 1.382 . S
C302 C304 1.426 . S
C303 C302 1.382 . S
C303 C307 1.389 . S
C304 C302 1.426 . S
C304 C305 1.375 . S
C304 C308 1.532 . S
C305 H295 0.930 . S
C305 C304 1.375 . S
C305 C306 1.416 . S
C306 C305 1.416 . S
C306 C307 1.371 . S
C307 H296 0.930 . S
C307 C303 1.389 . S
C307 C306 1.371 . S
C308 H297 0.970 . S
C308 H298 0.970 . S
C308 C304 1.532 . S
C308 C309 1.499 . S
C309 C308 1.499 . S
C309 C310 1.370 . S
C309 C314 1.415 . S
C310 H299 0.930 . S
C310 C309 1.370 . S
C310 C311 1.407 . S
C311 C310 1.407 . S
C311 C312 1.365 . S
C312 H300 0.930 . S
C312 C311 1.365 . S
C312 C313 1.393 . S
C313 C312 1.393 . S
C313 C314 1.387 . S
C314 H301 0.930 . S
C314 C309 1.415 . S
C314 C313 1.387 . S
H315 C323 0.930 . S
H316 C326 0.930 . S
H317 C328 0.930 . S
H318 C329 0.970 . S
H319 C329 0.970 . S
H320 C331 0.930 . S
H321 C333 0.930 . S
H322 C335 0.930 . S
C323 H315 0.930 . S
C323 C324 1.382 . S
C323 C325 1.426 . S
C324 C323 1.382 . S
C324 C328 1.389 . S
C325 C323 1.426 . S
C325 C326 1.375 . S
C325 C329 1.532 . S
C326 H316 0.930 . S
C326 C325 1.375 . S
C326 C327 1.416 . S
C327 C326 1.416 . S
C327 C328 1.371 . S
C328 H317 0.930 . S
C328 C324 1.389 . S
C328 C327 1.371 . S
C329 H318 0.970 . S
C329 H319 0.970 . S
C329 C325 1.532 . S
C329 C330 1.499 . S
C330 C329 1.499 . S
C330 C331 1.370 . S
C330 C335 1.415 . S
C331 H320 0.930 . S
C331 C330 1.370 . S
C331 C332 1.407 . S
C332 C331 1.407 . S
C332 C333 1.365 . S
C333 H321 0.930 . S
C333 C332 1.365 . S
C333 C334 1.393 . S
C334 C333 1.393 . S
C334 C335 1.387 . S
C335 H322 0.930 . S
C335 C330 1.415 . S
C335 C334 1.387 . S
H336 C344 0.930 . S
H337 C347 0.930 . S
H338 C349 0.930 . S
H339 C350 0.970 . S
H340 C350 0.970 . S
H341 C352 0.930 . S
H342 C354 0.930 . S
H343 C356 0.930 . S
C344 H336 0.930 . S
C344 C345 1.382 . S
C344 C346 1.426 . S
C345 C344 1.382 . S
C345 C349 1.389 . S
C346 C344 1.426 . S
C346 C347 1.375 . S
C346 C350 1.532 . S
C347 H337 0.930 . S
C347 C346 1.375 . S
C347 C348 1.416 . S
C348 C347 1.416 . S
C348 C349 1.371 . S
C349 H338 0.930 . S
C349 C345 1.389 . S
C349 C348 1.371 . S
C350 H339 0.970 . S
C350 H340 0.970 . S
C350 C346 1.532 . S
C350 C351 1.499 . S
C351 C350 1.499 . S
C351 C352 1.370 . S
C351 C356 1.415 . S
C352 H341 0.930 . S
C352 C351 1.370 . S
C352 C353 1.407 . S
C353 C352 1.407 . S
C353 C354 1.365 . S
C354 H342 0.930 . S
C354 C353 1.365 . S
C354 C355 1.393 . S
C355 C354 1.393 . S
C355 C356 1.387 . S
C356 H343 0.930 . S
C356 C351 1.415 . S
C356 C355 1.387 . S
H357 C365 0.930 . S
H358 C368 0.930 . S
H359 C370 0.930 . S
H360 C371 0.970 . S
H361 C371 0.970 . S
H362 C373 0.930 . S
H363 C375 0.930 . S
H364 C377 0.930 . S
C365 H357 0.930 . S
C365 C366 1.382 . S
C365 C367 1.426 . S
C366 C365 1.382 . S
C366 C370 1.389 . S
C367 C365 1.426 . S
C367 C368 1.375 . S
C367 C371 1.532 . S
C368 H358 0.930 . S
C368 C367 1.375 . S
C368 C369 1.416 . S
C369 C368 1.416 . S
C369 C370 1.371 . S
C370 H359 0.930 . S
C370 C366 1.389 . S
C370 C369 1.371 . S
C371 H360 0.970 . S
C371 H361 0.970 . S
C371 C367 1.532 . S
C371 C372 1.499 . S
C372 C371 1.499 . S
C372 C373 1.370 . S
C372 C377 1.415 . S
C373 H362 0.930 . S
C373 C372 1.370 . S
C373 C374 1.407 . S
C374 C373 1.407 . S
C374 C375 1.365 . S
C375 H363 0.930 . S
C375 C374 1.365 . S
C375 C376 1.393 . S
C376 C375 1.393 . S
C376 C377 1.387 . S
C377 H364 0.930 . S
C377 C372 1.415 . S
C377 C376 1.387 . S
H378 C386 0.930 . S
H379 C389 0.930 . S
H380 C391 0.930 . S
H381 C392 0.970 . S
H382 C392 0.970 . S
H383 C394 0.930 . S
H384 C396 0.930 . S
H385 C398 0.930 . S
C386 H378 0.930 . S
C386 C387 1.382 . S
C386 C388 1.426 . S
C387 C386 1.382 . S
C387 C391 1.389 . S
C388 C386 1.426 . S
C388 C389 1.375 . S
C388 C392 1.532 . S
C389 H379 0.930 . S
C389 C388 1.375 . S
C389 C390 1.416 . S
C390 C389 1.416 . S
C390 C391 1.371 . S
C391 H380 0.930 . S
C391 C387 1.389 . S
C391 C390 1.371 . S
C392 H381 0.970 . S
C392 H382 0.970 . S
C392 C388 1.532 . S
C392 C393 1.499 . S
C393 C392 1.499 . S
C393 C394 1.370 . S
C393 C398 1.415 . S
C394 H383 0.930 . S
C394 C393 1.370 . S
C394 C395 1.407 . S
C395 C394 1.407 . S
C395 C396 1.365 . S
C396 H384 0.930 . S
C396 C395 1.365 . S
C396 C397 1.393 . S
C397 C396 1.393 . S
C397 C398 1.387 . S
C398 H385 0.930 . S
C398 C393 1.415 . S
C398 C397 1.387 . S
H399 C407 0.930 . S
H400 C410 0.930 . S
H401 C412 0.930 . S
H402 C413 0.970 . S
H403 C413 0.970 . S
H404 C415 0.930 . S
H405 C417 0.930 . S
H406 C419 0.930 . S
C407 H399 0.930 . S
C407 C408 1.382 . S
C407 C409 1.426 . S
C408 C407 1.382 . S
C408 C412 1.389 . S
C409 C407 1.426 . S
C409 C410 1.375 . S
C409 C413 1.532 . S
C410 H400 0.930 . S
C410 C409 1.375 . S
C410 C411 1.416 . S
C411 C410 1.416 . S
C411 C412 1.371 . S
C412 H401 0.930 . S
C412 C408 1.389 . S
C412 C411 1.371 . S
C413 H402 0.970 . S
C413 H403 0.970 . S
C413 C409 1.532 . S
C413 C414 1.499 . S
C414 C413 1.499 . S
C414 C415 1.370 . S
C414 C419 1.415 . S
C415 H404 0.930 . S
C415 C414 1.370 . S
C415 C416 1.407 . S
C416 C415 1.407 . S
C416 C417 1.365 . S
C417 H405 0.930 . S
C417 C416 1.365 . S
C417 C418 1.393 . S
C418 C417 1.393 . S
C418 C419 1.387 . S
C419 H406 0.930 . S
C419 C414 1.415 . S
C419 C418 1.387 . S
H420 C428 0.930 . S
H421 C431 0.930 . S
H422 C433 0.930 . S
H423 C434 0.970 . S
H424 C434 0.970 . S
H425 C436 0.930 . S
H426 C438 0.930 . S
H427 C440 0.930 . S
C428 H420 0.930 . S
C428 C429 1.382 . S
C428 C430 1.426 . S
C429 C428 1.382 . S
C429 C433 1.389 . S
C430 C428 1.426 . S
C430 C431 1.375 . S
C430 C434 1.532 . S
C431 H421 0.930 . S
C431 C430 1.375 . S
C431 C432 1.416 . S
C432 C431 1.416 . S
C432 C433 1.371 . S
C433 H422 0.930 . S
C433 C429 1.389 . S
C433 C432 1.371 . S
C434 H423 0.970 . S
C434 H424 0.970 . S
C434 C430 1.532 . S
C434 C435 1.499 . S
C435 C434 1.499 . S
C435 C436 1.370 . S
C435 C440 1.415 . S
C436 H425 0.930 . S
C436 C435 1.370 . S
C436 C437 1.407 . S
C437 C436 1.407 . S
C437 C438 1.365 . S
C438 H426 0.930 . S
C438 C437 1.365 . S
C438 C439 1.393 . S
C439 C438 1.393 . S
C439 C440 1.387 . S
C440 H427 0.930 . S
C440 C435 1.415 . S
C440 C439 1.387 . S
H441 C449 0.930 . S
H442 C452 0.930 . S
H443 C454 0.930 . S
H444 C455 0.970 . S
H445 C455 0.970 . S
H446 C457 0.930 . S
H447 C459 0.930 . S
H448 C461 0.930 . S
C449 H441 0.930 . S
C449 C450 1.382 . S
C449 C451 1.426 . S
C450 C449 1.382 . S
C450 C454 1.389 1_455 S
C451 C449 1.426 . S
C451 C452 1.375 . S
C451 C455 1.532 . S
C452 H442 0.930 . S
C452 C451 1.375 . S
C452 C453 1.416 . S
C453 C452 1.416 . S
C453 C454 1.371 1_455 S
C454 H443 0.930 . S
C454 C450 1.389 1_655 S
C454 C453 1.371 1_655 S
C455 H444 0.970 . S
C455 H445 0.970 . S
C455 C451 1.532 . S
C455 C456 1.499 . S
C456 C455 1.499 . S
C456 C457 1.370 . S
C456 C461 1.415 . S
C457 H446 0.930 . S
C457 C456 1.370 . S
C457 C458 1.410 . S
C458 C457 1.410 . S
C458 C459 1.368 1_455 S
C459 H447 0.930 . S
C459 C458 1.368 1_655 S
C459 C460 1.393 1_655 S
C460 C459 1.393 1_455 S
C460 C461 1.387 . S
C461 H448 0.930 . S
C461 C456 1.415 . S
C461 C460 1.387 . S
H462 C470 0.930 . S
H463 C473 0.930 . S
H464 C475 0.930 . S
H465 C476 0.970 . S
H466 C476 0.970 . S
H467 C478 0.930 . S
H468 C480 0.930 . S
H469 C482 0.930 . S
C470 H462 0.930 . S
C470 C471 1.382 . S
C470 C472 1.426 . S
C471 C470 1.382 . S
C471 C475 1.389 . S
C472 C470 1.426 . S
C472 C473 1.375 . S
C472 C476 1.532 . S
C473 H463 0.930 . S
C473 C472 1.375 . S
C473 C474 1.416 . S
C474 C473 1.416 . S
C474 C475 1.371 . S
C475 H464 0.930 . S
C475 C471 1.389 . S
C475 C474 1.371 . S
C476 H465 0.970 . S
C476 H466 0.970 . S
C476 C472 1.532 . S
C476 C477 1.499 . S
C477 C476 1.499 . S
C477 C478 1.370 . S
C477 C482 1.415 . S
C478 H467 0.930 . S
C478 C477 1.370 . S
C478 C479 1.407 . S
C479 C478 1.407 . S
C479 C480 1.365 . S
C480 H468 0.930 . S
C480 C479 1.365 . S
C480 C481 1.393 . S
C481 C480 1.393 . S
C481 C482 1.387 . S
C482 H469 0.930 . S
C482 C477 1.415 . S
C482 C481 1.387 . S
H483 C491 0.930 . S
H484 C494 0.930 . S
H485 C496 0.930 . S
H486 C497 0.970 . S
H487 C497 0.970 . S
H488 C499 0.930 . S
H489 C501 0.930 . S
H490 C503 0.930 . S
C491 H483 0.930 . S
C491 C492 1.382 . S
C491 C493 1.426 . S
C492 C491 1.382 . S
C492 C496 1.389 1_565 S
C493 C491 1.426 . S
C493 C494 1.375 . S
C493 C497 1.532 . S
C494 H484 0.930 . S
C494 C493 1.375 . S
C494 C495 1.416 . S
C495 C494 1.416 . S
C495 C496 1.371 1_565 S
C496 H485 0.930 . S
C496 C492 1.389 1_545 S
C496 C495 1.371 1_545 S
C497 H486 0.970 . S
C497 H487 0.970 . S
C497 C493 1.532 . S
C497 C498 1.499 . S
C498 C497 1.499 . S
C498 C499 1.370 . S
C498 C503 1.415 . S
C499 H488 0.930 . S
C499 C498 1.370 . S
C499 C500 1.437 . S
C500 C499 1.437 . S
C500 C501 1.354 1_565 S
C501 H489 0.930 . S
C501 C500 1.354 1_545 S
C501 C502 1.393 1_545 S
C502 C501 1.393 1_565 S
C502 C503 1.387 . S
C503 H490 0.930 . S
C503 C498 1.415 . S
C503 C502 1.387 . S
H504 C512 0.930 . S
H505 C515 0.930 . S
H506 C517 0.930 . S
H507 C518 0.970 . S
H508 C518 0.970 . S
H509 C520 0.930 . S
H510 C522 0.930 . S
H511 C524 0.930 . S
C512 H504 0.930 . S
C512 C513 1.382 . S
C512 C514 1.426 . S
C513 C512 1.382 . S
C513 C517 1.389 1_565 S
C514 C512 1.426 . S
C514 C515 1.375 . S
C514 C518 1.532 . S
C515 H505 0.930 . S
C515 C514 1.375 . S
C515 C516 1.416 . S
C516 C515 1.416 . S
C516 C517 1.371 1_565 S
C517 H506 0.930 . S
C517 C513 1.389 1_545 S
C517 C516 1.371 1_545 S
C518 H507 0.970 . S
C518 H508 0.970 . S
C518 C514 1.532 . S
C518 C519 1.499 . S
C519 C518 1.499 . S
C519 C520 1.370 . S
C519 C524 1.415 . S
C520 H509 0.930 . S
C520 C519 1.370 . S
C520 C521 1.407 . S
C521 C520 1.407 . S
C521 C522 1.365 1_565 S
C522 H510 0.930 . S
C522 C521 1.365 1_545 S
C522 C523 1.393 1_545 S
C523 C522 1.393 1_565 S
C523 C524 1.387 . S
C524 H511 0.930 . S
C524 C519 1.415 . S
C524 C523 1.387 . S
H525 C533 0.930 . S
H526 C536 0.930 . S
H527 C538 0.930 . S
H528 C539 0.970 . S
H529 C539 0.970 . S
H530 C541 0.930 . S
H531 C543 0.930 . S
H532 C545 0.930 . S
C533 H525 0.930 . S
C533 C534 1.382 . S
C533 C535 1.426 . S
C534 C533 1.382 . S
C534 C538 1.389 1_455 S
C535 C533 1.426 . S
C535 C536 1.375 . S
C535 C539 1.532 . S
C536 H526 0.930 . S
C536 C535 1.375 . S
C536 C537 1.416 . S
C537 C536 1.416 . S
C537 C538 1.371 1_455 S
C538 H527 0.930 . S
C538 C534 1.389 1_655 S
C538 C537 1.371 1_655 S
C539 H528 0.970 . S
C539 H529 0.970 . S
C539 C535 1.532 . S
C539 C540 1.499 . S
C540 C539 1.499 . S
C540 C541 1.370 . S
C540 C545 1.415 . S
C541 H530 0.930 . S
C541 C540 1.370 . S
C541 C542 1.407 . S
C542 C541 1.407 . S
C542 C543 1.365 1_455 S
C543 H531 0.930 . S
C543 C542 1.365 1_655 S
C543 C544 1.393 1_655 S
C544 C543 1.393 1_455 S
C544 C545 1.387 . S
C545 H532 0.930 . S
C545 C540 1.415 . S
C545 C544 1.387 . S
H546 C554 0.930 . S
H547 C557 0.930 . S
H548 C559 0.930 . S
H549 C560 0.970 . S
H550 C560 0.970 . S
H551 C562 0.930 . S
H552 C564 0.930 . S
H553 C566 0.930 . S
C554 H546 0.930 . S
C554 C555 1.382 . S
C554 C556 1.426 . S
C555 C554 1.382 . S
C555 C559 1.389 . S
C556 C554 1.426 . S
C556 C557 1.375 . S
C556 C560 1.532 . S
C557 H547 0.930 . S
C557 C556 1.375 . S
C557 C558 1.416 . S
C558 C557 1.416 . S
C558 C559 1.371 . S
C559 H548 0.930 . S
C559 C555 1.389 . S
C559 C558 1.371 . S
C560 H549 0.970 . S
C560 H550 0.970 . S
C560 C556 1.532 . S
C560 C561 1.499 . S
C561 C560 1.499 . S
C561 C562 1.370 . S
C561 C566 1.415 . S
C562 H551 0.930 . S
C562 C561 1.370 . S
C562 C563 1.407 . S
C563 C562 1.407 . S
C563 C564 1.365 . S
C564 H552 0.930 . S
C564 C563 1.365 . S
C564 C565 1.393 . S
C565 C564 1.393 . S
C565 C566 1.387 . S
C566 H553 0.930 . S
C566 C561 1.415 . S
C566 C565 1.387 . S
H567 C575 0.930 . S
H568 C578 0.930 . S
H569 C580 0.930 . S
H570 C581 0.970 . S
H571 C581 0.970 . S
H572 C583 0.930 . S
H573 C585 0.930 . S
H574 C587 0.930 . S
C575 H567 0.930 . S
C575 C576 1.382 . S
C575 C577 1.426 . S
C576 C575 1.382 . S
C576 C580 1.389 . S
C577 C575 1.426 . S
C577 C578 1.375 . S
C577 C581 1.532 . S
C578 H568 0.930 . S
C578 C577 1.375 . S
C578 C579 1.416 . S
C579 C578 1.416 . S
C579 C580 1.371 . S
C580 H569 0.930 . S
C580 C576 1.389 . S
C580 C579 1.371 . S
C581 H570 0.970 . S
C581 H571 0.970 . S
C581 C577 1.532 . S
C581 C582 1.499 . S
C582 C581 1.499 . S
C582 C583 1.370 . S
C582 C587 1.415 . S
C583 H572 0.930 . S
C583 C582 1.370 . S
C583 C584 1.407 . S
C584 C583 1.407 . S
C584 C585 1.365 . S
C585 H573 0.930 . S
C585 C584 1.365 . S
C585 C586 1.393 . S
C586 C585 1.393 . S
C586 C587 1.387 . S
C587 H574 0.930 . S
C587 C582 1.415 . S
C587 C586 1.387 . S
H588 C596 0.930 . S
H589 C599 0.930 . S
H590 C601 0.930 . S
H591 C602 0.970 . S
H592 C602 0.970 . S
H593 C604 0.930 . S
H594 C606 0.930 . S
H595 C608 0.930 . S
C596 H588 0.930 . S
C596 C597 1.382 . S
C596 C598 1.426 . S
C597 C596 1.382 . S
C597 C601 1.389 . S
C598 C596 1.426 . S
C598 C599 1.375 . S
C598 C602 1.532 . S
C599 H589 0.930 . S
C599 C598 1.375 . S
C599 C600 1.416 . S
C600 C599 1.416 . S
C600 C601 1.371 . S
C601 H590 0.930 . S
C601 C597 1.389 . S
C601 C600 1.371 . S
C602 H591 0.970 . S
C602 H592 0.970 . S
C602 C598 1.532 . S
C602 C603 1.499 . S
C603 C602 1.499 . S
C603 C604 1.370 . S
C603 C608 1.415 . S
C604 H593 0.930 . S
C604 C603 1.370 . S
C604 C605 1.407 . S
C605 C604 1.407 . S
C605 C606 1.365 . S
C606 H594 0.930 . S
C606 C605 1.365 . S
C606 C607 1.393 . S
C607 C606 1.393 . S
C607 C608 1.387 . S
C608 H595 0.930 . S
C608 C603 1.415 . S
C608 C607 1.387 . S
H609 C617 0.930 . S
H610 C620 0.930 . S
H611 C622 0.930 . S
H612 C623 0.970 . S
H613 C623 0.970 . S
H614 C625 0.930 . S
H615 C627 0.930 . S
H616 C629 0.930 . S
C617 H609 0.930 . S
C617 C618 1.382 . S
C617 C619 1.426 . S
C618 C617 1.382 . S
C618 C622 1.389 . S
C619 C617 1.426 . S
C619 C620 1.375 . S
C619 C623 1.532 . S
C620 H610 0.930 . S
C620 C619 1.375 . S
C620 C621 1.416 . S
C621 C620 1.416 . S
C621 C622 1.371 . S
C622 H611 0.930 . S
C622 C618 1.389 . S
C622 C621 1.371 . S
C623 H612 0.970 . S
C623 H613 0.970 . S
C623 C619 1.532 . S
C623 C624 1.499 . S
C624 C623 1.499 . S
C624 C625 1.370 . S
C624 C629 1.415 . S
C625 H614 0.930 . S
C625 C624 1.370 . S
C625 C626 1.407 . S
C626 C625 1.407 . S
C626 C627 1.365 . S
C627 H615 0.930 . S
C627 C626 1.365 . S
C627 C628 1.393 . S
C628 C627 1.393 . S
C628 C629 1.387 . S
C629 H616 0.930 . S
C629 C624 1.415 . S
C629 C628 1.387 . S
H630 C636 0.930 . S
H631 C640 0.930 . S
H632 C645 0.929 . S
H633 C643 0.929 . S
H634 C638 0.929 . S
H635 C644 0.929 . S
C636 H630 0.930 . S
C636 C637 1.367 . S
C636 C644 1.378 . S
C637 C636 1.367 . S
C637 C645 1.433 . S
C638 H634 0.929 . S
C638 C640 1.378 . S
C638 C642 1.350 . S
C639 C642 1.463 . S
C639 C644 1.350 . S
C639 N647 1.427 . S
C640 H631 0.930 . S
C640 C638 1.378 . S
C640 C641 1.367 . S
C641 C640 1.367 . S
C641 C643 1.433 . S
C642 C638 1.350 . S
C642 C639 1.463 . S
C642 N646 1.427 . S
C643 H633 0.929 . S
C643 C641 1.433 . S
C643 N646 1.384 . S
C644 H635 0.929 . S
C644 C636 1.378 . S
C644 C639 1.350 . S
C645 H632 0.929 . S
C645 C637 1.433 . S
C645 N647 1.384 . S
N646 C642 1.427 . S
N646 C643 1.384 . S
N647 C639 1.427 . S
N647 C645 1.384 . S
H648 C654 0.930 . S
H649 C658 0.930 . S
H650 C663 0.929 . S
H651 C661 0.929 . S
H652 C656 0.929 . S
H653 C662 0.929 . S
C654 H648 0.930 . S
C654 C655 1.367 . S
C654 C662 1.378 . S
C655 C654 1.367 . S
C655 C663 1.433 . S
C656 H652 0.929 . S
C656 C658 1.378 . S
C656 C660 1.350 . S
C657 C660 1.463 . S
C657 C662 1.350 . S
C657 N665 1.427 . S
C658 H649 0.930 . S
C658 C656 1.378 . S
C658 C659 1.367 . S
C659 C658 1.367 . S
C659 C661 1.433 . S
C660 C656 1.350 . S
C660 C657 1.463 . S
C660 N664 1.427 . S
C661 H651 0.929 . S
C661 C659 1.433 . S
C661 N664 1.384 . S
C662 H653 0.929 . S
C662 C654 1.378 . S
C662 C657 1.350 . S
C663 H650 0.929 . S
C663 C655 1.433 . S
C663 N665 1.384 . S
N664 C660 1.427 . S
N664 C661 1.384 . S
N665 C657 1.427 . S
N665 C663 1.384 . S
H666 C672 0.930 . S
H667 C676 0.930 . S
H668 C681 0.929 . S
H669 C679 0.929 . S
H670 C674 0.929 . S
H671 C680 0.929 . S
C672 H666 0.930 . S
C672 C673 1.367 1_565 S
C672 C680 1.378 . S
C673 C672 1.367 1_545 S
C673 C681 1.433 . S
C674 H670 0.929 . S
C674 C676 1.378 . S
C674 C678 1.350 . S
C675 C678 1.463 . S
C675 C680 1.350 1_545 S
C675 N683 1.427 . S
C676 H667 0.930 . S
C676 C674 1.378 . S
C676 C677 1.367 . S
C677 C676 1.367 . S
C677 C679 1.433 1_545 S
C678 C674 1.350 . S
C678 C675 1.463 . S
C678 N682 1.427 1_545 S
C679 H669 0.929 . S
C679 C677 1.433 1_565 S
C679 N682 1.384 . S
C680 H671 0.929 . S
C680 C672 1.378 . S
C680 C675 1.350 1_565 S
C681 H668 0.929 . S
C681 C673 1.433 . S
C681 N683 1.384 . S
N682 C678 1.427 1_565 S
N682 C679 1.384 . S
N683 C675 1.427 . S
N683 C681 1.384 . S
H684 C690 0.930 . S
H685 C694 0.930 . S
H686 C699 0.929 . S
H687 C697 0.929 . S
H688 C692 0.929 . S
H689 C698 0.929 . S
C690 H684 0.930 . S
C690 C691 1.367 1_545 S
C690 C698 1.378 . S
C691 C690 1.367 1_565 S
C691 C699 1.433 . S
C692 H688 0.929 . S
C692 C694 1.378 . S
C692 C696 1.350 . S
C693 C696 1.463 . S
C693 C698 1.350 1_565 S
C693 N701 1.427 . S
C694 H685 0.930 . S
C694 C692 1.378 . S
C694 C695 1.367 . S
C695 C694 1.367 . S
C695 C697 1.433 1_565 S
C696 C692 1.350 . S
C696 C693 1.463 . S
C696 N700 1.427 1_565 S
C697 H687 0.929 . S
C697 C695 1.433 1_545 S
C697 N700 1.384 . S
C698 H689 0.929 . S
C698 C690 1.378 . S
C698 C693 1.350 1_545 S
C699 H686 0.929 . S
C699 C691 1.433 . S
C699 N701 1.384 . S
N700 C696 1.427 1_545 S
N700 C697 1.384 . S
N701 C693 1.427 . S
N701 C699 1.384 . S
H702 C708 0.930 . S
H703 C712 0.930 . S
H704 C717 0.931 1_655 S
H705 C715 0.929 . S
H706 C710 0.929 . S
H707 C716 0.929 . S
C708 H702 0.930 . S
C708 C709 1.367 . S
C708 C716 1.378 . S
C709 C708 1.367 . S
C709 C717 1.444 . S
C710 H706 0.929 . S
C710 C712 1.378 . S
C710 C714 1.350 1_655 S
C711 C714 1.463 . S
C711 C716 1.350 . S
C711 N719 1.429 1_455 S
C712 H703 0.930 . S
C712 C710 1.378 . S
C712 C713 1.367 1_655 S
C713 C712 1.367 1_455 S
C713 C715 1.433 . S
C714 C710 1.350 1_455 S
C714 C711 1.463 . S
C714 N718 1.427 . S
C715 H705 0.929 . S
C715 C713 1.433 . S
C715 N718 1.384 . S
C716 H707 0.929 . S
C716 C708 1.378 . S
C716 C711 1.350 . S
C717 H704 0.931 1_455 S
C717 C709 1.444 . S
C717 N719 1.356 1_455 S
N718 C714 1.427 . S
N718 C715 1.384 . S
N719 C711 1.429 1_655 S
N719 C717 1.356 1_655 S
H720 C726 0.930 . S
H721 C730 0.930 . S
H722 C735 0.929 . S
H723 C733 0.929 . S
H724 C728 0.929 . S
H725 C734 0.929 . S
C726 H720 0.930 . S
C726 C727 1.367 . S
C726 C734 1.378 . S
C727 C726 1.367 . S
C727 C735 1.433 . S
C728 H724 0.929 . S
C728 C730 1.378 . S
C728 C732 1.350 . S
C729 C732 1.463 . S
C729 C734 1.350 . S
C729 N737 1.427 . S
C730 H721 0.930 . S
C730 C728 1.378 . S
C730 C731 1.367 . S
C731 C730 1.367 . S
C731 C733 1.433 . S
C732 C728 1.350 . S
C732 C729 1.463 . S
C732 N736 1.427 . S
C733 H723 0.929 . S
C733 C731 1.433 . S
C733 N736 1.384 . S
C734 H725 0.929 . S
C734 C726 1.378 . S
C734 C729 1.350 . S
C735 H722 0.929 . S
C735 C727 1.433 . S
C735 N737 1.384 . S
N736 C732 1.427 . S
N736 C733 1.384 . S
N737 C729 1.427 . S
N737 C735 1.384 . S
H738 C744 0.930 . S
H739 C748 0.930 . S
H740 C753 0.929 . S
H741 C751 0.929 . S
H742 C746 0.929 . S
H743 C752 0.929 . S
C744 H738 0.930 . S
C744 C745 1.367 1_655 S
C744 C752 1.378 . S
C745 C744 1.367 1_455 S
C745 C753 1.433 . S
C746 H742 0.929 . S
C746 C748 1.378 . S
C746 C750 1.350 . S
C747 C750 1.463 . S
C747 C752 1.350 1_455 S
C747 N755 1.427 . S
C748 H739 0.930 . S
C748 C746 1.378 . S
C748 C749 1.367 . S
C749 C748 1.367 . S
C749 C751 1.433 1_455 S
C750 C746 1.350 . S
C750 C747 1.463 . S
C750 N754 1.427 1_455 S
C751 H741 0.929 . S
C751 C749 1.433 1_655 S
C751 N754 1.384 . S
C752 H743 0.929 . S
C752 C744 1.378 . S
C752 C747 1.350 1_655 S
C753 H740 0.929 . S
C753 C745 1.433 . S
C753 N755 1.384 . S
N754 C750 1.427 1_655 S
N754 C751 1.384 . S
N755 C747 1.427 . S
N755 C753 1.384 . S
H756 C762 0.930 . S
H757 C766 0.930 . S
H758 C771 0.929 . S
H759 C769 0.929 . S
H760 C764 0.929 . S
H761 C770 0.929 . S
C762 H756 0.930 . S
C762 C763 1.367 . S
C762 C770 1.378 . S
C763 C762 1.367 . S
C763 C771 1.433 . S
C764 H760 0.929 . S
C764 C766 1.378 . S
C764 C768 1.350 . S
C765 C768 1.463 . S
C765 C770 1.350 . S
C765 N773 1.427 . S
C766 H757 0.930 . S
C766 C764 1.378 . S
C766 C767 1.367 . S
C767 C766 1.367 . S
C767 C769 1.433 . S
C768 C764 1.350 . S
C768 C765 1.463 . S
C768 N772 1.427 . S
C769 H759 0.929 . S
C769 C767 1.433 . S
C769 N772 1.384 . S
C770 H761 0.929 . S
C770 C762 1.378 . S
C770 C765 1.350 . S
C771 H758 0.929 . S
C771 C763 1.433 . S
C771 N773 1.384 . S
N772 C768 1.427 . S
N772 C769 1.384 . S
N773 C765 1.427 . S
N773 C771 1.384 . S
H774 C780 0.930 . S
H775 C784 0.930 . S
H776 C789 0.929 . S
H777 C787 0.929 . S
H778 C782 0.929 . S
H779 C788 0.929 . S
C780 H774 0.930 . S
C780 C781 1.367 . S
C780 C788 1.378 . S
C781 C780 1.367 . S
C781 C789 1.433 1_565 S
C782 H778 0.929 . S
C782 C784 1.378 . S
C782 C786 1.350 1_545 S
C783 C786 1.463 . S
C783 C788 1.350 . S
C783 N791 1.427 1_565 S
C784 H775 0.930 . S
C784 C782 1.378 . S
C784 C785 1.368 1_545 S
C785 C784 1.368 1_565 S
C785 C787 1.454 . S
C786 C782 1.350 1_565 S
C786 C783 1.463 . S
C786 N790 1.427 . S
C787 H777 0.929 . S
C787 C785 1.454 . S
C787 N790 1.384 . S
C788 H779 0.929 . S
C788 C780 1.378 . S
C788 C783 1.350 . S
C789 H776 0.929 . S
C789 C781 1.433 1_545 S
C789 N791 1.384 . S
N790 C786 1.427 . S
N790 C787 1.384 . S
N791 C783 1.427 1_545 S
N791 C789 1.384 . S
H792 C798 0.930 . S
H793 C802 0.930 . S
H794 C807 0.929 . S
H795 C805 0.929 . S
H796 C800 0.929 . S
H797 C806 0.929 . S
C798 H792 0.930 . S
C798 C799 1.367 1_565 S
C798 C806 1.378 . S
C799 C798 1.367 1_545 S
C799 C807 1.433 . S
C800 H796 0.929 . S
C800 C802 1.378 . S
C800 C804 1.350 . S
C801 C804 1.463 . S
C801 C806 1.350 1_545 S
C801 N809 1.427 . S
C802 H793 0.930 . S
C802 C800 1.378 . S
C802 C803 1.367 . S
C803 C802 1.367 . S
C803 C805 1.433 1_545 S
C804 C800 1.350 . S
C804 C801 1.463 . S
C804 N808 1.427 1_545 S
C805 H795 0.929 . S
C805 C803 1.433 1_565 S
C805 N808 1.384 . S
C806 H797 0.929 . S
C806 C798 1.378 . S
C806 C801 1.350 1_565 S
C807 H794 0.929 . S
C807 C799 1.433 . S
C807 N809 1.384 . S
N808 C804 1.427 1_565 S
N808 C805 1.384 . S
N809 C801 1.427 . S
N809 C807 1.384 . S
H810 C816 0.930 . S
H811 C820 0.930 . S
H812 C825 0.929 . S
H813 C823 0.929 . S
H814 C818 0.929 . S
H815 C824 0.929 . S
C816 H810 0.930 . S
C816 C817 1.367 . S
C816 C824 1.378 . S
C817 C816 1.367 . S
C817 C825 1.433 1_655 S
C818 H814 0.929 . S
C818 C820 1.378 . S
C818 C822 1.350 1_455 S
C819 C822 1.463 . S
C819 C824 1.350 . S
C819 N827 1.427 1_655 S
C820 H811 0.930 . S
C820 C818 1.378 . S
C820 C821 1.367 1_455 S
C821 C820 1.367 1_655 S
C821 C823 1.433 . S
C822 C818 1.350 1_655 S
C822 C819 1.463 . S
C822 N826 1.427 . S
C823 H813 0.929 . S
C823 C821 1.433 . S
C823 N826 1.384 . S
C824 H815 0.929 . S
C824 C816 1.378 . S
C824 C819 1.350 . S
C825 H812 0.929 . S
C825 C817 1.433 1_455 S
C825 N827 1.384 . S
N826 C822 1.427 . S
N826 C823 1.384 . S
N827 C819 1.427 1_455 S
N827 C825 1.384 . S
H828 C834 0.930 . S
H829 C838 0.930 . S
H830 C843 0.929 . S
H831 C841 0.929 . S
H832 C836 0.929 . S
H833 C842 0.929 . S
C834 H828 0.930 . S
C834 C835 1.367 . S
C834 C842 1.378 . S
C835 C834 1.367 . S
C835 C843 1.433 . S
C836 H832 0.929 . S
C836 C838 1.378 . S
C836 C840 1.350 . S
C837 C840 1.463 . S
C837 C842 1.350 . S
C837 N845 1.427 . S
C838 H829 0.930 . S
C838 C836 1.378 . S
C838 C839 1.367 . S
C839 C838 1.367 . S
C839 C841 1.433 . S
C840 C836 1.350 . S
C840 C837 1.463 . S
C840 N844 1.427 . S
C841 H831 0.929 . S
C841 C839 1.433 . S
C841 N844 1.384 . S
C842 H833 0.929 . S
C842 C834 1.378 . S
C842 C837 1.350 . S
C843 H830 0.929 . S
C843 C835 1.433 . S
C843 N845 1.384 . S
N844 C840 1.427 . S
N844 C841 1.384 . S
N845 C837 1.427 . S
N845 C843 1.384 . S
H846 C852 0.930 . S
H847 C856 0.930 . S
H848 C861 0.929 . S
H849 C859 0.929 . S
H850 C854 0.929 . S
H851 C860 0.929 . S
C852 H846 0.930 . S
C852 C853 1.367 . S
C852 C860 1.378 . S
C853 C852 1.367 . S
C853 C861 1.433 . S
C854 H850 0.929 . S
C854 C856 1.378 . S
C854 C858 1.350 . S
C855 C858 1.463 . S
C855 C860 1.350 . S
C855 N863 1.427 . S
C856 H847 0.930 . S
C856 C854 1.378 . S
C856 C857 1.367 . S
C857 C856 1.367 . S
C857 C859 1.433 . S
C858 C854 1.350 . S
C858 C855 1.463 . S
C858 N862 1.427 . S
C859 H849 0.929 . S
C859 C857 1.433 . S
C859 N862 1.384 . S
C860 H851 0.929 . S
C860 C852 1.378 . S
C860 C855 1.350 . S
C861 H848 0.929 . S
C861 C853 1.433 . S
C861 N863 1.384 . S
N862 C858 1.427 . S
N862 C859 1.384 . S
N863 C855 1.427 . S
N863 C861 1.384 . S
H864 C870 0.930 . S
H865 C874 0.930 . S
H866 C879 0.929 . S
H867 C877 0.929 . S
H868 C872 0.929 . S
H869 C878 0.929 . S
C870 H864 0.930 . S
C870 C871 1.367 . S
C870 C878 1.378 . S
C871 C870 1.367 . S
C871 C879 1.433 . S
C872 H868 0.929 . S
C872 C874 1.378 . S
C872 C876 1.350 . S
C873 C876 1.463 . S
C873 C878 1.350 . S
C873 N881 1.427 . S
C874 H865 0.930 . S
C874 C872 1.378 . S
C874 C875 1.367 . S
C875 C874 1.367 . S
C875 C877 1.433 . S
C876 C872 1.350 . S
C876 C873 1.463 . S
C876 N880 1.427 . S
C877 H867 0.929 . S
C877 C875 1.433 . S
C877 N880 1.384 . S
C878 H869 0.929 . S
C878 C870 1.378 . S
C878 C873 1.350 . S
C879 H866 0.929 . S
C879 C871 1.433 . S
C879 N881 1.384 . S
N880 C876 1.427 . S
N880 C877 1.384 . S
N881 C873 1.427 . S
N881 C879 1.384 . S
H882 C888 0.930 . S
H883 C892 0.930 . S
H884 C897 0.929 . S
H885 C895 0.929 . S
H886 C890 0.929 . S
H887 C896 0.929 . S
C888 H882 0.930 . S
C888 C889 1.367 . S
C888 C896 1.378 . S
C889 C888 1.367 . S
C889 C897 1.433 . S
C890 H886 0.929 . S
C890 C892 1.378 . S
C890 C894 1.350 . S
C891 C894 1.463 . S
C891 C896 1.350 . S
C891 N899 1.427 . S
C892 H883 0.930 . S
C892 C890 1.378 . S
C892 C893 1.367 . S
C893 C892 1.367 . S
C893 C895 1.433 . S
C894 C890 1.350 . S
C894 C891 1.463 . S
C894 N898 1.427 . S
C895 H885 0.929 . S
C895 C893 1.433 . S
C895 N898 1.384 . S
C896 H887 0.929 . S
C896 C888 1.378 . S
C896 C891 1.350 . S
C897 H884 0.929 . S
C897 C889 1.433 . S
C897 N899 1.384 . S
N898 C894 1.427 . S
N898 C895 1.384 . S
N899 C891 1.427 . S
N899 C897 1.384 . S
H900 C906 0.930 . S
H901 C910 0.930 . S
H902 C915 0.929 . S
H903 C913 0.929 . S
H904 C908 0.929 . S
H905 C914 0.929 . S
C906 H900 0.930 . S
C906 C907 1.367 . S
C906 C914 1.378 . S
C907 C906 1.367 . S
C907 C915 1.433 . S
C908 H904 0.929 . S
C908 C910 1.378 . S
C908 C912 1.350 . S
C909 C912 1.463 . S
C909 C914 1.350 . S
C909 N917 1.427 . S
C910 H901 0.930 . S
C910 C908 1.378 . S
C910 C911 1.367 . S
C911 C910 1.367 . S
C911 C913 1.433 . S
C912 C908 1.350 . S
C912 C909 1.463 . S
C912 N916 1.427 . S
C913 H903 0.929 . S
C913 C911 1.433 . S
C913 N916 1.384 . S
C914 H905 0.929 . S
C914 C906 1.378 . S
C914 C909 1.350 . S
C915 H902 0.929 . S
C915 C907 1.433 . S
C915 N917 1.384 . S
N916 C912 1.427 . S
N916 C913 1.384 . S
N917 C909 1.427 . S
N917 C915 1.384 . S
H918 C924 0.930 . S
H919 C928 0.930 . S
H920 C933 0.929 . S
H921 C931 0.929 . S
H922 C926 0.929 . S
H923 C932 0.929 . S
C924 H918 0.930 . S
C924 C925 1.367 . S
C924 C932 1.378 . S
C925 C924 1.367 . S
C925 C933 1.433 . S
C926 H922 0.929 . S
C926 C928 1.378 . S
C926 C930 1.350 . S
C927 C930 1.463 . S
C927 C932 1.350 . S
C927 N935 1.427 . S
C928 H919 0.930 . S
C928 C926 1.378 . S
C928 C929 1.367 . S
C929 C928 1.367 . S
C929 C931 1.433 . S
C930 C926 1.350 . S
C930 C927 1.463 . S
C930 N934 1.427 . S
C931 H921 0.929 . S
C931 C929 1.433 . S
C931 N934 1.384 . S
C932 H923 0.929 . S
C932 C924 1.378 . S
C932 C927 1.350 . S
C933 H920 0.929 . S
C933 C925 1.433 . S
C933 N935 1.384 . S
N934 C930 1.427 . S
N934 C931 1.384 . S
N935 C927 1.427 . S
N935 C933 1.384 . S
H936 C942 0.930 . S
H937 C946 0.930 . S
H938 C951 0.929 . S
H939 C949 0.929 . S
H940 C944 0.929 . S
H941 C950 0.929 . S
C942 H936 0.930 . S
C942 C943 1.367 . S
C942 C950 1.378 . S
C943 C942 1.367 . S
C943 C951 1.433 . S
C944 H940 0.929 . S
C944 C946 1.378 . S
C944 C948 1.350 . S
C945 C948 1.463 . S
C945 C950 1.350 . S
C945 N953 1.427 . S
C946 H937 0.930 . S
C946 C944 1.378 . S
C946 C947 1.367 . S
C947 C946 1.367 . S
C947 C949 1.433 . S
C948 C944 1.350 . S
C948 C945 1.463 . S
C948 N952 1.427 . S
C949 H939 0.929 . S
C949 C947 1.433 . S
C949 N952 1.384 . S
C950 H941 0.929 . S
C950 C942 1.378 . S
C950 C945 1.350 . S
C951 H938 0.929 . S
C951 C943 1.433 . S
C951 N953 1.384 . S
N952 C948 1.427 . S
N952 C949 1.384 . S
N953 C945 1.427 . S
N953 C951 1.384 . S
H954 C960 0.930 . S
H955 C964 0.930 . S
H956 C969 0.929 . S
H957 C967 0.929 . S
H958 C962 0.929 . S
H959 C968 0.929 . S
C960 H954 0.930 . S
C960 C961 1.367 . S
C960 C968 1.378 . S
C961 C960 1.367 . S
C961 C969 1.433 . S
C962 H958 0.929 . S
C962 C964 1.378 . S
C962 C966 1.350 . S
C963 C966 1.463 . S
C963 C968 1.350 . S
C963 N971 1.427 . S
C964 H955 0.930 . S
C964 C962 1.378 . S
C964 C965 1.367 . S
C965 C964 1.367 . S
C965 C967 1.433 . S
C966 C962 1.350 . S
C966 C963 1.463 . S
C966 N970 1.427 . S
C967 H957 0.929 . S
C967 C965 1.433 . S
C967 N970 1.384 . S
C968 H959 0.929 . S
C968 C960 1.378 . S
C968 C963 1.350 . S
C969 H956 0.929 . S
C969 C961 1.433 . S
C969 N971 1.384 . S
N970 C966 1.427 . S
N970 C967 1.384 . S
N971 C963 1.427 . S
N971 C969 1.384 . S
H972 C978 0.930 . S
H973 C982 0.930 . S
H974 C987 0.929 . S
H975 C985 0.929 . S
H976 C980 0.929 . S
H977 C986 0.929 . S
C978 H972 0.930 . S
C978 C979 1.367 . S
C978 C986 1.378 . S
C979 C978 1.367 . S
C979 C987 1.433 . S
C980 H976 0.929 . S
C980 C982 1.378 . S
C980 C984 1.350 . S
C981 C984 1.463 . S
C981 C986 1.350 . S
C981 N989 1.427 . S
C982 H973 0.930 . S
C982 C980 1.378 . S
C982 C983 1.367 . S
C983 C982 1.367 . S
C983 C985 1.433 . S
C984 C980 1.350 . S
C984 C981 1.463 . S
C984 N988 1.427 . S
C985 H975 0.929 . S
C985 C983 1.433 . S
C985 N988 1.384 . S
C986 H977 0.929 . S
C986 C978 1.378 . S
C986 C981 1.350 . S
C987 H974 0.929 . S
C987 C979 1.433 . S
C987 N989 1.384 . S
N988 C984 1.427 . S
N988 C985 1.384 . S
N989 C981 1.427 . S
N989 C987 1.384 . S
H990 C996 0.930 . S
H991 C1000 0.930 . S
H992 C1005 0.929 . S
H993 C1003 0.929 . S
H994 C998 0.929 . S
H995 C1004 0.929 . S
C996 H990 0.930 . S
C996 C997 1.367 . S
C996 C1004 1.378 . S
C997 C996 1.367 . S
C997 C1005 1.433 . S
C998 H994 0.929 . S
C998 C1000 1.378 . S
C998 C1002 1.350 . S
C999 C1002 1.463 . S
C999 C1004 1.350 . S
C999 N1007 1.427 . S
C1000 H991 0.930 . S
C1000 C998 1.378 . S
C1000 C1001 1.367 . S
C1001 C1000 1.367 . S
C1001 C1003 1.433 . S
C1002 C998 1.350 . S
C1002 C999 1.463 . S
C1002 N1006 1.427 . S
C1003 H993 0.929 . S
C1003 C1001 1.433 . S
C1003 N1006 1.384 . S
C1004 H995 0.929 . S
C1004 C996 1.378 . S
C1004 C999 1.350 . S
C1005 H992 0.929 . S
C1005 C997 1.433 . S
C1005 N1007 1.384 . S
N1006 C1002 1.427 . S
N1006 C1003 1.384 . S
N1007 C999 1.427 . S
N1007 C1005 1.384 . S
H1008 C1014 0.930 . S
H1009 C1018 0.930 . S
H1010 C1023 0.929 . S
H1011 C1021 0.929 . S
H1012 C1016 0.929 . S
H1013 C1022 0.929 . S
C1014 H1008 0.930 . S
C1014 C1015 1.367 . S
C1014 C1022 1.378 . S
C1015 C1014 1.367 . S
C1015 C1023 1.433 . S
C1016 H1012 0.929 . S
C1016 C1018 1.378 . S
C1016 C1020 1.350 . S
C1017 C1020 1.463 . S
C1017 C1022 1.350 . S
C1017 N1025 1.427 . S
C1018 H1009 0.930 . S
C1018 C1016 1.378 . S
C1018 C1019 1.367 . S
C1019 C1018 1.367 . S
C1019 C1021 1.433 . S
C1020 C1016 1.350 . S
C1020 C1017 1.463 . S
C1020 N1024 1.427 . S
C1021 H1011 0.929 . S
C1021 C1019 1.433 . S
C1021 N1024 1.384 . S
C1022 H1013 0.929 . S
C1022 C1014 1.378 . S
C1022 C1017 1.350 . S
C1023 H1010 0.929 . S
C1023 C1015 1.433 . S
C1023 N1025 1.384 . S
N1024 C1020 1.427 . S
N1024 C1021 1.384 . S
N1025 C1017 1.427 . S
N1025 C1023 1.384 . S
H1026 C1032 0.930 . S
H1027 C1036 0.930 . S
H1028 C1041 0.929 . S
H1029 C1039 0.929 . S
H1030 C1034 0.929 . S
H1031 C1040 0.929 . S
C1032 H1026 0.930 . S
C1032 C1033 1.367 . S
C1032 C1040 1.378 . S
C1033 C1032 1.367 . S
C1033 C1041 1.433 . S
C1034 H1030 0.929 . S
C1034 C1036 1.378 . S
C1034 C1038 1.350 . S
C1035 C1038 1.463 . S
C1035 C1040 1.350 . S
C1035 N1043 1.427 . S
C1036 H1027 0.930 . S
C1036 C1034 1.378 . S
C1036 C1037 1.367 . S
C1037 C1036 1.367 . S
C1037 C1039 1.433 . S
C1038 C1034 1.350 . S
C1038 C1035 1.463 . S
C1038 N1042 1.427 . S
C1039 H1029 0.929 . S
C1039 C1037 1.433 . S
C1039 N1042 1.384 . S
C1040 H1031 0.929 . S
C1040 C1032 1.378 . S
C1040 C1035 1.350 . S
C1041 H1028 0.929 . S
C1041 C1033 1.433 . S
C1041 N1043 1.384 . S
N1042 C1038 1.427 . S
N1042 C1039 1.384 . S
N1043 C1035 1.427 . S
N1043 C1041 1.384 . S
H1044 C1050 0.930 . S
H1045 C1054 0.930 . S
H1046 C1059 0.929 . S
H1047 C1057 0.929 . S
H1048 C1052 0.929 . S
H1049 C1058 0.929 . S
C1050 H1044 0.930 . S
C1050 C1051 1.367 . S
C1050 C1058 1.378 . S
C1051 C1050 1.367 . S
C1051 C1059 1.433 . S
C1052 H1048 0.929 . S
C1052 C1054 1.378 . S
C1052 C1056 1.350 . S
C1053 C1056 1.463 . S
C1053 C1058 1.350 . S
C1053 N1061 1.427 . S
C1054 H1045 0.930 . S
C1054 C1052 1.378 . S
C1054 C1055 1.367 . S
C1055 C1054 1.367 . S
C1055 C1057 1.433 . S
C1056 C1052 1.350 . S
C1056 C1053 1.463 . S
C1056 N1060 1.427 . S
C1057 H1047 0.929 . S
C1057 C1055 1.433 . S
C1057 N1060 1.384 . S
C1058 H1049 0.929 . S
C1058 C1050 1.378 . S
C1058 C1053 1.350 . S
C1059 H1046 0.929 . S
C1059 C1051 1.433 . S
C1059 N1061 1.384 . S
N1060 C1056 1.427 . S
N1060 C1057 1.384 . S
N1061 C1053 1.427 . S
N1061 C1059 1.384 . S
H1062 C1068 0.930 . S
H1063 C1072 0.930 . S
H1064 C1077 0.929 . S
H1065 C1075 0.929 . S
H1066 C1070 0.929 . S
H1067 C1076 0.929 . S
C1068 H1062 0.930 . S
C1068 C1069 1.367 . S
C1068 C1076 1.378 . S
C1069 C1068 1.367 . S
C1069 C1077 1.433 . S
C1070 H1066 0.929 . S
C1070 C1072 1.378 . S
C1070 C1074 1.350 . S
C1071 C1074 1.463 . S
C1071 C1076 1.350 . S
C1071 N1079 1.427 . S
C1072 H1063 0.930 . S
C1072 C1070 1.378 . S
C1072 C1073 1.367 . S
C1073 C1072 1.367 . S
C1073 C1075 1.433 . S
C1074 C1070 1.350 . S
C1074 C1071 1.463 . S
C1074 N1078 1.427 . S
C1075 H1065 0.929 . S
C1075 C1073 1.433 . S
C1075 N1078 1.384 . S
C1076 H1067 0.929 . S
C1076 C1068 1.378 . S
C1076 C1071 1.350 . S
C1077 H1064 0.929 . S
C1077 C1069 1.433 . S
C1077 N1079 1.384 . S
N1078 C1074 1.427 . S
N1078 C1075 1.384 . S
N1079 C1071 1.427 . S
N1079 C1077 1.384 . S
H1080 C1086 0.930 . S
H1081 C1090 0.930 . S
H1082 C1095 0.929 . S
H1083 C1093 0.929 . S
H1084 C1088 0.929 . S
H1085 C1094 0.929 . S
C1086 H1080 0.930 . S
C1086 C1087 1.367 . S
C1086 C1094 1.378 . S
C1087 C1086 1.367 . S
C1087 C1095 1.433 . S
C1088 H1084 0.929 . S
C1088 C1090 1.378 . S
C1088 C1092 1.350 . S
C1089 C1092 1.463 . S
C1089 C1094 1.350 . S
C1089 N1097 1.427 . S
C1090 H1081 0.930 . S
C1090 C1088 1.378 . S
C1090 C1091 1.367 . S
C1091 C1090 1.367 . S
C1091 C1093 1.433 . S
C1092 C1088 1.350 . S
C1092 C1089 1.463 . S
C1092 N1096 1.427 . S
C1093 H1083 0.929 . S
C1093 C1091 1.433 . S
C1093 N1096 1.384 . S
C1094 H1085 0.929 . S
C1094 C1086 1.378 . S
C1094 C1089 1.350 . S
C1095 H1082 0.929 . S
C1095 C1087 1.433 . S
C1095 N1097 1.384 . S
N1096 C1092 1.427 . S
N1096 C1093 1.384 . S
N1097 C1089 1.427 . S
N1097 C1095 1.384 . S
H1098 C1104 0.930 . S
H1099 C1108 0.930 . S
H1100 C1113 0.929 . S
H1101 C1111 0.929 . S
H1102 C1106 0.929 . S
H1103 C1112 0.929 . S
C1104 H1098 0.930 . S
C1104 C1105 1.367 . S
C1104 C1112 1.378 . S
C1105 C1104 1.367 . S
C1105 C1113 1.433 . S
C1106 H1102 0.929 . S
C1106 C1108 1.378 . S
C1106 C1110 1.350 . S
C1107 C1110 1.463 . S
C1107 C1112 1.350 . S
C1107 N1115 1.427 . S
C1108 H1099 0.930 . S
C1108 C1106 1.378 . S
C1108 C1109 1.367 . S
C1109 C1108 1.367 . S
C1109 C1111 1.433 . S
C1110 C1106 1.350 . S
C1110 C1107 1.463 . S
C1110 N1114 1.427 . S
C1111 H1101 0.929 . S
C1111 C1109 1.433 . S
C1111 N1114 1.384 . S
C1112 H1103 0.929 . S
C1112 C1104 1.378 . S
C1112 C1107 1.350 . S
C1113 H1100 0.929 . S
C1113 C1105 1.433 . S
C1113 N1115 1.384 . S
N1114 C1110 1.427 . S
N1114 C1111 1.384 . S
N1115 C1107 1.427 . S
N1115 C1113 1.384 . S
H1116 C1122 0.930 . S
H1117 C1126 0.930 . S
H1118 C1131 0.929 . S
H1119 C1129 0.929 . S
H1120 C1124 0.929 . S
H1121 C1130 0.929 . S
C1122 H1116 0.930 . S
C1122 C1123 1.367 . S
C1122 C1130 1.378 . S
C1123 C1122 1.367 . S
C1123 C1131 1.433 . S
C1124 H1120 0.929 . S
C1124 C1126 1.378 . S
C1124 C1128 1.350 . S
C1125 C1128 1.463 . S
C1125 C1130 1.350 . S
C1125 N1133 1.427 . S
C1126 H1117 0.930 . S
C1126 C1124 1.378 . S
C1126 C1127 1.367 . S
C1127 C1126 1.367 . S
C1127 C1129 1.433 . S
C1128 C1124 1.350 . S
C1128 C1125 1.463 . S
C1128 N1132 1.427 . S
C1129 H1119 0.929 . S
C1129 C1127 1.433 . S
C1129 N1132 1.384 . S
C1130 H1121 0.929 . S
C1130 C1122 1.378 . S
C1130 C1125 1.350 . S
C1131 H1118 0.929 . S
C1131 C1123 1.433 . S
C1131 N1133 1.384 . S
N1132 C1128 1.427 . S
N1132 C1129 1.384 . S
N1133 C1125 1.427 . S
N1133 C1131 1.384 . S
H1134 C1140 0.930 . S
H1135 C1144 0.930 . S
H1136 C1149 0.929 . S
H1137 C1147 0.929 . S
H1138 C1142 0.929 . S
H1139 C1148 0.929 . S
C1140 H1134 0.930 . S
C1140 C1141 1.367 . S
C1140 C1148 1.378 . S
C1141 C1140 1.367 . S
C1141 C1149 1.433 . S
C1142 H1138 0.929 . S
C1142 C1144 1.378 . S
C1142 C1146 1.350 . S
C1143 C1146 1.463 . S
C1143 C1148 1.350 . S
C1143 N1151 1.427 . S
C1144 H1135 0.930 . S
C1144 C1142 1.378 . S
C1144 C1145 1.367 . S
C1145 C1144 1.367 . S
C1145 C1147 1.433 . S
C1146 C1142 1.350 . S
C1146 C1143 1.463 . S
C1146 N1150 1.427 . S
C1147 H1137 0.929 . S
C1147 C1145 1.433 . S
C1147 N1150 1.384 . S
C1148 H1139 0.929 . S
C1148 C1140 1.378 . S
C1148 C1143 1.350 . S
C1149 H1136 0.929 . S
C1149 C1141 1.433 . S
C1149 N1151 1.384 . S
N1150 C1146 1.427 . S
N1150 C1147 1.384 . S
N1151 C1143 1.427 . S
N1151 C1149 1.384 . S
H1152 C1158 0.930 . S
H1153 C1162 0.930 . S
H1154 C1167 0.929 . S
H1155 C1165 0.929 . S
H1156 C1160 0.929 . S
H1157 C1166 0.929 . S
C1158 H1152 0.930 . S
C1158 C1159 1.367 . S
C1158 C1166 1.378 . S
C1159 C1158 1.367 . S
C1159 C1167 1.433 . S
C1160 H1156 0.929 . S
C1160 C1162 1.378 . S
C1160 C1164 1.350 . S
C1161 C1164 1.463 . S
C1161 C1166 1.350 . S
C1161 N1169 1.427 . S
C1162 H1153 0.930 . S
C1162 C1160 1.378 . S
C1162 C1163 1.367 . S
C1163 C1162 1.367 . S
C1163 C1165 1.433 . S
C1164 C1160 1.350 . S
C1164 C1161 1.463 . S
C1164 N1168 1.427 . S
C1165 H1155 0.929 . S
C1165 C1163 1.433 . S
C1165 N1168 1.384 . S
C1166 H1157 0.929 . S
C1166 C1158 1.378 . S
C1166 C1161 1.350 . S
C1167 H1154 0.929 . S
C1167 C1159 1.433 . S
C1167 N1169 1.384 . S
N1168 C1164 1.427 . S
N1168 C1165 1.384 . S
N1169 C1161 1.427 . S
N1169 C1167 1.384 . S
H1170 C1176 0.930 . S
H1171 C1180 0.930 . S
H1172 C1185 0.929 . S
H1173 C1183 0.929 . S
H1174 C1178 0.929 . S
H1175 C1184 0.929 . S
C1176 H1170 0.930 . S
C1176 C1177 1.367 . S
C1176 C1184 1.378 . S
C1177 C1176 1.367 . S
C1177 C1185 1.433 . S
C1178 H1174 0.929 . S
C1178 C1180 1.378 . S
C1178 C1182 1.350 . S
C1179 C1182 1.463 . S
C1179 C1184 1.350 . S
C1179 N1187 1.427 . S
C1180 H1171 0.930 . S
C1180 C1178 1.378 . S
C1180 C1181 1.367 . S
C1181 C1180 1.367 . S
C1181 C1183 1.433 . S
C1182 C1178 1.350 . S
C1182 C1179 1.463 . S
C1182 N1186 1.427 . S
C1183 H1173 0.929 . S
C1183 C1181 1.433 . S
C1183 N1186 1.384 . S
C1184 H1175 0.929 . S
C1184 C1176 1.378 . S
C1184 C1179 1.350 . S
C1185 H1172 0.929 . S
C1185 C1177 1.433 . S
C1185 N1187 1.384 . S
N1186 C1182 1.427 . S
N1186 C1183 1.384 . S
N1187 C1179 1.427 . S
N1187 C1185 1.384 . S
H1188 C1194 0.930 . S
H1189 C1198 0.930 . S
H1190 C1203 0.929 . S
H1191 C1201 0.929 . S
H1192 C1196 0.929 . S
H1193 C1202 0.929 . S
C1194 H1188 0.930 . S
C1194 C1195 1.367 . S
C1194 C1202 1.378 . S
C1195 C1194 1.367 . S
C1195 C1203 1.433 . S
C1196 H1192 0.929 . S
C1196 C1198 1.378 . S
C1196 C1200 1.350 . S
C1197 C1200 1.463 . S
C1197 C1202 1.350 . S
C1197 N1205 1.427 . S
C1198 H1189 0.930 . S
C1198 C1196 1.378 . S
C1198 C1199 1.367 . S
C1199 C1198 1.367 . S
C1199 C1201 1.433 . S
C1200 C1196 1.350 . S
C1200 C1197 1.463 . S
C1200 N1204 1.427 . S
C1201 H1191 0.929 . S
C1201 C1199 1.433 . S
C1201 N1204 1.384 . S
C1202 H1193 0.929 . S
C1202 C1194 1.378 . S
C1202 C1197 1.350 . S
C1203 H1190 0.929 . S
C1203 C1195 1.433 . S
C1203 N1205 1.384 . S
N1204 C1200 1.427 . S
N1204 C1201 1.384 . S
N1205 C1197 1.427 . S
N1205 C1203 1.384 . S
H1206 C1212 0.930 . S
H1207 C1216 0.930 . S
H1208 C1221 0.929 . S
H1209 C1219 0.929 . S
H1210 C1214 0.929 . S
H1211 C1220 0.929 . S
C1212 H1206 0.930 . S
C1212 C1213 1.367 . S
C1212 C1220 1.378 . S
C1213 C1212 1.367 . S
C1213 C1221 1.433 . S
C1214 H1210 0.929 . S
C1214 C1216 1.378 . S
C1214 C1218 1.350 . S
C1215 C1218 1.463 . S
C1215 C1220 1.350 . S
C1215 N1223 1.427 . S
C1216 H1207 0.930 . S
C1216 C1214 1.378 . S
C1216 C1217 1.367 . S
C1217 C1216 1.367 . S
C1217 C1219 1.433 . S
C1218 C1214 1.350 . S
C1218 C1215 1.463 . S
C1218 N1222 1.427 . S
C1219 H1209 0.929 . S
C1219 C1217 1.433 . S
C1219 N1222 1.384 . S
C1220 H1211 0.929 . S
C1220 C1212 1.378 . S
C1220 C1215 1.350 . S
C1221 H1208 0.929 . S
C1221 C1213 1.433 . S
C1221 N1223 1.384 . S
N1222 C1218 1.427 . S
N1222 C1219 1.384 . S
N1223 C1215 1.427 . S
N1223 C1221 1.384 . S
H1224 C1230 0.930 . S
H1225 C1234 0.930 . S
H1226 C1239 0.929 . S
H1227 C1237 0.929 . S
H1228 C1232 0.929 . S
H1229 C1238 0.929 . S
C1230 H1224 0.930 . S
C1230 C1231 1.367 . S
C1230 C1238 1.378 . S
C1231 C1230 1.367 . S
C1231 C1239 1.433 . S
C1232 H1228 0.929 . S
C1232 C1234 1.378 . S
C1232 C1236 1.350 . S
C1233 C1236 1.463 . S
C1233 C1238 1.350 . S
C1233 N1241 1.427 . S
C1234 H1225 0.930 . S
C1234 C1232 1.378 . S
C1234 C1235 1.367 . S
C1235 C1234 1.367 . S
C1235 C1237 1.433 . S
C1236 C1232 1.350 . S
C1236 C1233 1.463 . S
C1236 N1240 1.427 . S
C1237 H1227 0.929 . S
C1237 C1235 1.433 . S
C1237 N1240 1.384 . S
C1238 H1229 0.929 . S
C1238 C1230 1.378 . S
C1238 C1233 1.350 . S
C1239 H1226 0.929 . S
C1239 C1231 1.433 . S
C1239 N1241 1.384 . S
N1240 C1236 1.427 . S
N1240 C1237 1.384 . S
N1241 C1233 1.427 . S
N1241 C1239 1.384 . S
H1242 C1248 0.930 . S
H1243 C1252 0.930 . S
H1244 C1257 0.929 . S
H1245 C1255 0.929 . S
H1246 C1250 0.929 . S
H1247 C1256 0.929 . S
C1248 H1242 0.930 . S
C1248 C1249 1.367 . S
C1248 C1256 1.378 . S
C1249 C1248 1.367 . S
C1249 C1257 1.433 . S
C1250 H1246 0.929 . S
C1250 C1252 1.378 . S
C1250 C1254 1.350 . S
C1251 C1254 1.463 . S
C1251 C1256 1.350 . S
C1251 N1259 1.427 . S
C1252 H1243 0.930 . S
C1252 C1250 1.378 . S
C1252 C1253 1.367 . S
C1253 C1252 1.367 . S
C1253 C1255 1.433 . S
C1254 C1250 1.350 . S
C1254 C1251 1.463 . S
C1254 N1258 1.427 . S
C1255 H1245 0.929 . S
C1255 C1253 1.433 . S
C1255 N1258 1.384 . S
C1256 H1247 0.929 . S
C1256 C1248 1.378 . S
C1256 C1251 1.350 . S
C1257 H1244 0.929 . S
C1257 C1249 1.433 . S
C1257 N1259 1.384 . S
N1258 C1254 1.427 . S
N1258 C1255 1.384 . S
N1259 C1251 1.427 . S
N1259 C1257 1.384 . S
H1260 C1266 0.930 . S
H1261 C1270 0.930 . S
H1262 C1275 0.929 . S
H1263 C1273 0.929 . S
H1264 C1268 0.929 . S
H1265 C1274 0.929 . S
C1266 H1260 0.930 . S
C1266 C1267 1.367 . S
C1266 C1274 1.378 . S
C1267 C1266 1.367 . S
C1267 C1275 1.433 . S
C1268 H1264 0.929 . S
C1268 C1270 1.378 . S
C1268 C1272 1.350 . S
C1269 C1272 1.463 . S
C1269 C1274 1.350 . S
C1269 N1277 1.427 . S
C1270 H1261 0.930 . S
C1270 C1268 1.378 . S
C1270 C1271 1.367 . S
C1271 C1270 1.367 . S
C1271 C1273 1.433 . S
C1272 C1268 1.350 . S
C1272 C1269 1.463 . S
C1272 N1276 1.427 . S
C1273 H1263 0.929 . S
C1273 C1271 1.433 . S
C1273 N1276 1.384 . S
C1274 H1265 0.929 . S
C1274 C1266 1.378 . S
C1274 C1269 1.350 . S
C1275 H1262 0.929 . S
C1275 C1267 1.433 . S
C1275 N1277 1.384 . S
N1276 C1272 1.427 . S
N1276 C1273 1.384 . S
N1277 C1269 1.427 . S
N1277 C1275 1.384 . S
H1278 C1284 0.927 . S
H1279 C1288 0.930 . S
H1280 C1293 0.929 . S
H1281 C1291 0.929 . S
H1282 C1286 0.929 . S
H1283 C1292 0.929 . S
C1284 H1278 0.927 . S
C1284 C1285 1.367 . S
C1284 C1292 1.378 . S
C1285 C1284 1.367 . S
C1285 C1293 1.433 . S
C1286 H1282 0.929 . S
C1286 C1288 1.378 . S
C1286 C1290 1.350 . S
C1287 C1290 1.463 . S
C1287 C1292 1.350 . S
C1287 N1295 1.427 . S
C1288 H1279 0.930 . S
C1288 C1286 1.378 . S
C1288 C1289 1.367 . S
C1289 C1288 1.367 . S
C1289 C1291 1.433 . S
C1290 C1286 1.350 . S
C1290 C1287 1.463 . S
C1290 N1294 1.427 . S
C1291 H1281 0.929 . S
C1291 C1289 1.433 . S
C1291 N1294 1.384 . S
C1292 H1283 0.929 . S
C1292 C1284 1.378 . S
C1292 C1287 1.350 . S
C1293 H1280 0.929 . S
C1293 C1285 1.433 . S
C1293 N1295 1.384 . S
N1294 C1290 1.427 . S
N1294 C1291 1.384 . S
N1295 C1287 1.427 . S
N1295 C1293 1.384 . S
H1296 C1302 0.930 . S
H1297 C1306 0.930 . S
H1298 C1311 0.929 . S
H1299 C1309 0.929 . S
H1300 C1304 0.929 . S
H1301 C1310 0.929 . S
C1302 H1296 0.930 . S
C1302 C1303 1.367 . S
C1302 C1310 1.378 . S
C1303 C1302 1.367 . S
C1303 C1311 1.433 . S
C1304 H1300 0.929 . S
C1304 C1306 1.378 . S
C1304 C1308 1.350 . S
C1305 C1308 1.463 . S
C1305 C1310 1.350 . S
C1305 N1313 1.427 . S
C1306 H1297 0.930 . S
C1306 C1304 1.378 . S
C1306 C1307 1.367 . S
C1307 C1306 1.367 . S
C1307 C1309 1.433 . S
C1308 C1304 1.350 . S
C1308 C1305 1.463 . S
C1308 N1312 1.427 . S
C1309 H1299 0.929 . S
C1309 C1307 1.433 . S
C1309 N1312 1.384 . S
C1310 H1301 0.929 . S
C1310 C1302 1.378 . S
C1310 C1305 1.350 . S
C1311 H1298 0.929 . S
C1311 C1303 1.433 . S
C1311 N1313 1.384 . S
N1312 C1308 1.427 . S
N1312 C1309 1.384 . S
N1313 C1305 1.427 . S
N1313 C1311 1.384 . S
H1314 C1320 0.930 1_556 S
H1315 C1324 0.930 . S
H1316 C1329 0.929 . S
H1317 C1327 0.929 . S
H1318 C1322 0.929 . S
H1319 C1328 0.929 . S
C1320 H1314 0.930 1_554 S
C1320 C1321 1.367 . S
C1320 C1328 1.378 . S
C1321 C1320 1.367 . S
C1321 C1329 1.433 . S
C1322 H1318 0.929 . S
C1322 C1324 1.378 . S
C1322 C1326 1.350 . S
C1323 C1326 1.463 . S
C1323 C1328 1.350 . S
C1323 N1331 1.427 . S
C1324 H1315 0.930 . S
C1324 C1322 1.378 . S
C1324 C1325 1.367 . S
C1325 C1324 1.367 . S
C1325 C1327 1.433 . S
C1326 C1322 1.350 . S
C1326 C1323 1.463 . S
C1326 N1330 1.427 . S
C1327 H1317 0.929 . S
C1327 C1325 1.433 . S
C1327 N1330 1.384 . S
C1328 H1319 0.929 . S
C1328 C1320 1.378 . S
C1328 C1323 1.350 . S
C1329 H1316 0.929 . S
C1329 C1321 1.433 . S
C1329 N1331 1.384 . S
N1330 C1326 1.427 . S
N1330 C1327 1.384 . S
N1331 C1323 1.427 . S
N1331 C1329 1.384 . S
H1332 C1338 0.930 . S
H1333 C1342 0.930 . S
H1334 C1347 0.929 . S
H1335 C1345 0.929 . S
H1336 C1340 0.929 . S
H1337 C1346 0.929 1_554 S
C1338 H1332 0.930 . S
C1338 C1339 1.367 1_554 S
C1338 C1346 1.378 1_554 S
C1339 C1338 1.367 1_556 S
C1339 C1347 1.433 . S
C1340 H1336 0.929 . S
C1340 C1342 1.378 . S
C1340 C1344 1.350 . S
C1341 C1344 1.463 . S
C1341 C1346 1.350 . S
C1341 N1349 1.427 . S
C1342 H1333 0.930 . S
C1342 C1340 1.378 . S
C1342 C1343 1.367 . S
C1343 C1342 1.367 . S
C1343 C1345 1.433 . S
C1344 C1340 1.350 . S
C1344 C1341 1.463 . S
C1344 N1348 1.427 . S
C1345 H1335 0.929 . S
C1345 C1343 1.433 . S
C1345 N1348 1.384 . S
C1346 H1337 0.929 1_556 S
C1346 C1338 1.378 1_556 S
C1346 C1341 1.350 . S
C1347 H1334 0.929 . S
C1347 C1339 1.433 . S
C1347 N1349 1.384 . S
N1348 C1344 1.427 . S
N1348 C1345 1.384 . S
N1349 C1341 1.427 . S
N1349 C1347 1.384 . S
H1350 C1356 0.930 . S
H1351 C1360 0.930 . S
H1352 C1365 0.929 . S
H1353 C1363 0.929 . S
H1354 C1358 0.929 . S
H1355 C1364 0.929 . S
C1356 H1350 0.930 . S
C1356 C1357 1.367 . S
C1356 C1364 1.378 . S
C1357 C1356 1.367 . S
C1357 C1365 1.433 . S
C1358 H1354 0.929 . S
C1358 C1360 1.378 . S
C1358 C1362 1.350 . S
C1359 C1362 1.463 . S
C1359 C1364 1.350 . S
C1359 N1367 1.427 . S
C1360 H1351 0.930 . S
C1360 C1358 1.378 . S
C1360 C1361 1.367 . S
C1361 C1360 1.367 . S
C1361 C1363 1.433 . S
C1362 C1358 1.350 . S
C1362 C1359 1.463 . S
C1362 N1366 1.427 . S
C1363 H1353 0.929 . S
C1363 C1361 1.433 . S
C1363 N1366 1.384 . S
C1364 H1355 0.929 . S
C1364 C1356 1.378 . S
C1364 C1359 1.350 . S
C1365 H1352 0.929 . S
C1365 C1357 1.433 . S
C1365 N1367 1.384 . S
N1366 C1362 1.427 . S
N1366 C1363 1.384 . S
N1367 C1359 1.427 . S
N1367 C1365 1.384 . S
H1368 C1374 0.930 . S
H1369 C1378 0.930 . S
H1370 C1383 0.929 . S
H1371 C1381 0.929 . S
H1372 C1376 0.929 . S
H1373 C1382 0.929 . S
C1374 H1368 0.930 . S
C1374 C1375 1.367 . S
C1374 C1382 1.378 . S
C1375 C1374 1.367 . S
C1375 C1383 1.433 1_556 S
C1376 H1372 0.929 . S
C1376 C1378 1.378 . S
C1376 C1380 1.350 . S
C1377 C1380 1.463 . S
C1377 C1382 1.350 . S
C1377 N1385 1.427 . S
C1378 H1369 0.930 . S
C1378 C1376 1.378 . S
C1378 C1379 1.367 . S
C1379 C1378 1.367 . S
C1379 C1381 1.433 . S
C1380 C1376 1.350 . S
C1380 C1377 1.463 . S
C1380 N1384 1.427 . S
C1381 H1371 0.929 . S
C1381 C1379 1.433 . S
C1381 N1384 1.384 . S
C1382 H1373 0.929 . S
C1382 C1374 1.378 . S
C1382 C1377 1.350 . S
C1383 H1370 0.929 . S
C1383 C1375 1.433 1_554 S
C1383 N1385 1.384 1_554 S
N1384 C1380 1.427 . S
N1384 C1381 1.384 . S
N1385 C1377 1.427 . S
N1385 C1383 1.384 1_556 S
H1386 C1392 0.930 . S
H1387 C1396 0.930 . S
H1388 C1401 0.929 . S
H1389 C1399 0.929 . S
H1390 C1394 0.929 . S
H1391 C1400 0.929 . S
C1392 H1386 0.930 . S
C1392 C1393 1.367 . S
C1392 C1400 1.378 . S
C1393 C1392 1.367 . S
C1393 C1401 1.433 . S
C1394 H1390 0.929 . S
C1394 C1396 1.378 . S
C1394 C1398 1.350 . S
C1395 C1398 1.463 . S
C1395 C1400 1.350 . S
C1395 N1403 1.427 . S
C1396 H1387 0.930 . S
C1396 C1394 1.378 . S
C1396 C1397 1.367 . S
C1397 C1396 1.367 . S
C1397 C1399 1.433 . S
C1398 C1394 1.350 . S
C1398 C1395 1.463 . S
C1398 N1402 1.427 . S
C1399 H1389 0.929 . S
C1399 C1397 1.433 . S
C1399 N1402 1.384 . S
C1400 H1391 0.929 . S
C1400 C1392 1.378 . S
C1400 C1395 1.350 . S
C1401 H1388 0.929 . S
C1401 C1393 1.433 . S
C1401 N1403 1.384 . S
N1402 C1398 1.427 . S
N1402 C1399 1.384 . S
N1403 C1395 1.427 . S
N1403 C1401 1.384 . S
H1404 C1410 0.930 . S
H1405 C1414 0.930 . S
H1406 C1419 0.929 . S
H1407 C1417 0.929 . S
H1408 C1412 0.929 . S
H1409 C1418 0.929 1_554 S
C1410 H1404 0.930 . S
C1410 C1411 1.367 1_554 S
C1410 C1418 1.378 1_554 S
C1411 C1410 1.367 1_556 S
C1411 C1419 1.433 . S
C1412 H1408 0.929 . S
C1412 C1414 1.378 . S
C1412 C1416 1.350 . S
C1413 C1416 1.463 . S
C1413 C1418 1.350 . S
C1413 N1421 1.427 . S
C1414 H1405 0.930 . S
C1414 C1412 1.378 . S
C1414 C1415 1.367 . S
C1415 C1414 1.367 . S
C1415 C1417 1.433 . S
C1416 C1412 1.350 . S
C1416 C1413 1.463 . S
C1416 N1420 1.427 . S
C1417 H1407 0.929 . S
C1417 C1415 1.433 . S
C1417 N1420 1.384 . S
C1418 H1409 0.929 1_556 S
C1418 C1410 1.378 1_556 S
C1418 C1413 1.350 . S
C1419 H1406 0.929 . S
C1419 C1411 1.433 . S
C1419 N1421 1.384 . S
N1420 C1416 1.427 . S
N1420 C1417 1.384 . S
N1421 C1413 1.427 . S
N1421 C1419 1.384 . S
H1422 C1428 0.930 . S
H1423 C1432 0.930 . S
H1424 C1437 0.929 . S
H1425 C1435 0.929 . S
H1426 C1430 0.929 . S
H1427 C1436 0.929 . S
C1428 H1422 0.930 . S
C1428 C1429 1.367 . S
C1428 C1436 1.378 . S
C1429 C1428 1.367 . S
C1429 C1437 1.433 1_556 S
C1430 H1426 0.929 . S
C1430 C1432 1.378 . S
C1430 C1434 1.350 . S
C1431 C1434 1.463 . S
C1431 C1436 1.350 . S
C1431 N1439 1.427 . S
C1432 H1423 0.930 . S
C1432 C1430 1.378 . S
C1432 C1433 1.367 . S
C1433 C1432 1.367 . S
C1433 C1435 1.433 . S
C1434 C1430 1.350 . S
C1434 C1431 1.463 . S
C1434 N1438 1.427 . S
C1435 H1425 0.929 . S
C1435 C1433 1.433 . S
C1435 N1438 1.384 . S
C1436 H1427 0.929 . S
C1436 C1428 1.378 . S
C1436 C1431 1.350 . S
C1437 H1424 0.929 . S
C1437 C1429 1.433 1_554 S
C1437 N1439 1.384 1_554 S
N1438 C1434 1.427 . S
N1438 C1435 1.384 . S
N1439 C1431 1.427 . S
N1439 C1437 1.384 1_556 S
H1440 C1446 0.930 . S
H1441 C1450 0.930 . S
H1442 C1455 0.929 . S
H1443 C1453 0.929 . S
H1444 C1448 0.929 . S
H1445 C1454 0.929 . S
C1446 H1440 0.930 . S
C1446 C1447 1.367 . S
C1446 C1454 1.378 . S
C1447 C1446 1.367 . S
C1447 C1455 1.433 . S
C1448 H1444 0.929 . S
C1448 C1450 1.378 . S
C1448 C1452 1.350 . S
C1449 C1452 1.463 . S
C1449 C1454 1.350 . S
C1449 N1457 1.427 . S
C1450 H1441 0.930 . S
C1450 C1448 1.378 . S
C1450 C1451 1.367 . S
C1451 C1450 1.367 . S
C1451 C1453 1.433 . S
C1452 C1448 1.350 . S
C1452 C1449 1.463 . S
C1452 N1456 1.427 . S
C1453 H1443 0.929 . S
C1453 C1451 1.433 . S
C1453 N1456 1.384 . S
C1454 H1445 0.929 . S
C1454 C1446 1.378 . S
C1454 C1449 1.350 . S
C1455 H1442 0.929 . S
C1455 C1447 1.433 . S
C1455 N1457 1.384 . S
N1456 C1452 1.427 . S
N1456 C1453 1.384 . S
N1457 C1449 1.427 . S
N1457 C1455 1.384 . S
H1458 C1464 0.930 1_556 S
H1459 C1468 0.930 . S
H1460 C1473 0.929 . S
H1461 C1471 0.929 . S
H1462 C1466 0.929 . S
H1463 C1472 0.929 . S
C1464 H1458 0.930 1_554 S
C1464 C1465 1.367 . S
C1464 C1472 1.378 . S
C1465 C1464 1.367 . S
C1465 C1473 1.433 . S
C1466 H1462 0.929 . S
C1466 C1468 1.378 . S
C1466 C1470 1.350 . S
C1467 C1470 1.463 . S
C1467 C1472 1.350 . S
C1467 N1475 1.427 . S
C1468 H1459 0.930 . S
C1468 C1466 1.378 . S
C1468 C1469 1.367 . S
C1469 C1468 1.367 . S
C1469 C1471 1.433 . S
C1470 C1466 1.350 . S
C1470 C1467 1.463 . S
C1470 N1474 1.427 . S
C1471 H1461 0.929 . S
C1471 C1469 1.433 . S
C1471 N1474 1.384 . S
C1472 H1463 0.929 . S
C1472 C1464 1.378 . S
C1472 C1467 1.350 . S
C1473 H1460 0.929 . S
C1473 C1465 1.433 . S
C1473 N1475 1.384 . S
N1474 C1470 1.427 . S
N1474 C1471 1.384 . S
N1475 C1467 1.427 . S
N1475 C1473 1.384 . S
H1476 C1482 0.930 . S
H1477 C1486 0.930 . S
H1478 C1491 0.929 . S
H1479 C1489 0.929 . S
H1480 C1484 0.929 . S
H1481 C1490 0.929 . S
C1482 H1476 0.930 . S
C1482 C1483 1.367 . S
C1482 C1490 1.378 . S
C1483 C1482 1.367 . S
C1483 C1491 1.433 . S
C1484 H1480 0.929 . S
C1484 C1486 1.378 . S
C1484 C1488 1.350 . S
C1485 C1488 1.463 . S
C1485 C1490 1.350 . S
C1485 N1493 1.427 . S
C1486 H1477 0.930 . S
C1486 C1484 1.378 . S
C1486 C1487 1.367 . S
C1487 C1486 1.367 . S
C1487 C1489 1.433 . S
C1488 C1484 1.350 . S
C1488 C1485 1.463 . S
C1488 N1492 1.427 . S
C1489 H1479 0.929 . S
C1489 C1487 1.433 . S
C1489 N1492 1.384 . S
C1490 H1481 0.929 . S
C1490 C1482 1.378 . S
C1490 C1485 1.350 . S
C1491 H1478 0.929 . S
C1491 C1483 1.433 . S
C1491 N1493 1.384 . S
N1492 C1488 1.427 . S
N1492 C1489 1.384 . S
N1493 C1485 1.427 . S
N1493 C1491 1.384 . S
H1494 C1500 0.930 . S
H1495 C1504 0.930 . S
H1496 C1509 0.929 . S
H1497 C1507 0.929 . S
H1498 C1502 0.929 . S
H1499 C1508 0.929 . S
C1500 H1494 0.930 . S
C1500 C1501 1.367 . S
C1500 C1508 1.378 . S
C1501 C1500 1.367 . S
C1501 C1509 1.433 . S
C1502 H1498 0.929 . S
C1502 C1504 1.378 . S
C1502 C1506 1.350 . S
C1503 C1506 1.463 . S
C1503 C1508 1.350 . S
C1503 N1511 1.427 . S
C1504 H1495 0.930 . S
C1504 C1502 1.378 . S
C1504 C1505 1.367 . S
C1505 C1504 1.367 . S
C1505 C1507 1.433 . S
C1506 C1502 1.350 . S
C1506 C1503 1.463 . S
C1506 N1510 1.427 . S
C1507 H1497 0.929 . S
C1507 C1505 1.433 . S
C1507 N1510 1.384 . S
C1508 H1499 0.929 . S
C1508 C1500 1.378 . S
C1508 C1503 1.350 . S
C1509 H1496 0.929 . S
C1509 C1501 1.433 . S
C1509 N1511 1.384 . S
N1510 C1506 1.427 . S
N1510 C1507 1.384 . S
N1511 C1503 1.427 . S
N1511 C1509 1.384 . S
H1512 C1518 0.930 . S
H1513 C1522 0.930 . S
H1514 C1527 0.929 . S
H1515 C1525 0.929 . S
H1516 C1520 0.929 . S
H1517 C1526 0.929 . S
C1518 H1512 0.930 . S
C1518 C1519 1.367 . S
C1518 C1526 1.378 . S
C1519 C1518 1.367 . S
C1519 C1527 1.433 . S
C1520 H1516 0.929 . S
C1520 C1522 1.378 . S
C1520 C1524 1.350 . S
C1521 C1524 1.463 . S
C1521 C1526 1.350 . S
C1521 N1529 1.427 . S
C1522 H1513 0.930 . S
C1522 C1520 1.378 . S
C1522 C1523 1.367 . S
C1523 C1522 1.367 . S
C1523 C1525 1.433 . S
C1524 C1520 1.350 . S
C1524 C1521 1.463 . S
C1524 N1528 1.427 . S
C1525 H1515 0.929 . S
C1525 C1523 1.433 . S
C1525 N1528 1.384 . S
C1526 H1517 0.929 . S
C1526 C1518 1.378 . S
C1526 C1521 1.350 . S
C1527 H1514 0.929 . S
C1527 C1519 1.433 . S
C1527 N1529 1.384 . S
N1528 C1524 1.427 . S
N1528 C1525 1.384 . S
N1529 C1521 1.427 . S
N1529 C1527 1.384 . S
H1530 C1536 0.930 . S
H1531 C1540 0.930 . S
H1532 C1545 0.929 . S
H1533 C1543 0.929 . S
H1534 C1538 0.929 . S
H1535 C1544 0.929 . S
C1536 H1530 0.930 . S
C1536 C1537 1.367 . S
C1536 C1544 1.378 . S
C1537 C1536 1.367 . S
C1537 C1545 1.433 . S
C1538 H1534 0.929 . S
C1538 C1540 1.378 . S
C1538 C1542 1.350 . S
C1539 C1542 1.463 . S
C1539 C1544 1.350 . S
C1539 N1547 1.427 . S
C1540 H1531 0.930 . S
C1540 C1538 1.378 . S
C1540 C1541 1.367 . S
C1541 C1540 1.367 . S
C1541 C1543 1.433 . S
C1542 C1538 1.350 . S
C1542 C1539 1.463 . S
C1542 N1546 1.427 . S
C1543 H1533 0.929 . S
C1543 C1541 1.433 . S
C1543 N1546 1.384 . S
C1544 H1535 0.929 . S
C1544 C1536 1.378 . S
C1544 C1539 1.350 . S
C1545 H1532 0.929 . S
C1545 C1537 1.433 . S
C1545 N1547 1.384 . S
N1546 C1542 1.427 . S
N1546 C1543 1.384 . S
N1547 C1539 1.427 . S
N1547 C1545 1.384 . S
H1548 C1554 0.930 1_655 S
H1549 C1558 0.930 . S
H1550 C1563 0.929 . S
H1551 C1561 0.929 . S
H1552 C1556 0.929 . S
H1553 C1562 0.929 1_655 S
C1554 H1548 0.930 1_455 S
C1554 C1555 1.367 . S
C1554 C1562 1.378 . S
C1555 C1554 1.367 . S
C1555 C1563 1.433 . S
C1556 H1552 0.929 . S
C1556 C1558 1.378 . S
C1556 C1560 1.350 . S
C1557 C1560 1.463 . S
C1557 C1562 1.350 . S
C1557 N1565 1.427 . S
C1558 H1549 0.930 . S
C1558 C1556 1.378 . S
C1558 C1559 1.367 . S
C1559 C1558 1.367 . S
C1559 C1561 1.433 1_455 S
C1560 C1556 1.350 . S
C1560 C1557 1.463 . S
C1560 N1564 1.427 1_455 S
C1561 H1551 0.929 . S
C1561 C1559 1.433 1_655 S
C1561 N1564 1.384 . S
C1562 H1553 0.929 1_455 S
C1562 C1554 1.378 . S
C1562 C1557 1.350 . S
C1563 H1550 0.929 . S
C1563 C1555 1.433 . S
C1563 N1565 1.384 . S
N1564 C1560 1.427 1_655 S
N1564 C1561 1.384 . S
N1565 C1557 1.427 . S
N1565 C1563 1.384 . S
H1566 C1572 0.930 . S
H1567 C1576 0.930 . S
H1568 C1581 0.929 . S
H1569 C1579 0.929 . S
H1570 C1574 0.929 . S
H1571 C1580 0.929 . S
C1572 H1566 0.930 . S
C1572 C1573 1.367 . S
C1572 C1580 1.378 . S
C1573 C1572 1.367 . S
C1573 C1581 1.433 . S
C1574 H1570 0.929 . S
C1574 C1576 1.378 . S
C1574 C1578 1.350 . S
C1575 C1578 1.463 . S
C1575 C1580 1.350 . S
C1575 N1583 1.427 . S
C1576 H1567 0.930 . S
C1576 C1574 1.378 . S
C1576 C1577 1.367 . S
C1577 C1576 1.367 . S
C1577 C1579 1.433 . S
C1578 C1574 1.350 . S
C1578 C1575 1.463 . S
C1578 N1582 1.427 . S
C1579 H1569 0.929 . S
C1579 C1577 1.433 . S
C1579 N1582 1.384 . S
C1580 H1571 0.929 . S
C1580 C1572 1.378 . S
C1580 C1575 1.350 . S
C1581 H1568 0.929 . S
C1581 C1573 1.433 . S
C1581 N1583 1.384 . S
N1582 C1578 1.427 . S
N1582 C1579 1.384 . S
N1583 C1575 1.427 . S
N1583 C1581 1.384 . S
H1584 C1590 0.930 1_545 S
H1585 C1594 0.930 . S
H1586 C1599 0.929 . S
H1587 C1597 0.929 . S
H1588 C1592 0.929 . S
H1589 C1598 0.925 1_545 S
C1590 H1584 0.930 1_565 S
C1590 C1591 1.367 . S
C1590 C1598 1.370 . S
C1591 C1590 1.367 . S
C1591 C1599 1.433 . S
C1592 H1588 0.929 . S
C1592 C1594 1.378 . S
C1592 C1596 1.350 . S
C1593 C1596 1.463 . S
C1593 C1598 1.361 . S
C1593 N1601 1.427 . S
C1594 H1585 0.930 . S
C1594 C1592 1.378 . S
C1594 C1595 1.367 . S
C1595 C1594 1.367 . S
C1595 C1597 1.433 1_565 S
C1596 C1592 1.350 . S
C1596 C1593 1.463 . S
C1596 N1600 1.427 1_565 S
C1597 H1587 0.929 . S
C1597 C1595 1.433 1_545 S
C1597 N1600 1.384 . S
C1598 H1589 0.925 1_565 S
C1598 C1590 1.370 . S
C1598 C1593 1.361 . S
C1599 H1586 0.929 . S
C1599 C1591 1.433 . S
C1599 N1601 1.384 . S
N1600 C1596 1.427 1_545 S
N1600 C1597 1.384 . S
N1601 C1593 1.427 . S
N1601 C1599 1.384 . S
H1602 C1608 0.930 . S
H1603 C1612 0.930 . S
H1604 C1617 0.929 . S
H1605 C1615 0.929 . S
H1606 C1610 0.929 . S
H1607 C1616 0.929 . S
C1608 H1602 0.930 . S
C1608 C1609 1.367 . S
C1608 C1616 1.378 . S
C1609 C1608 1.367 . S
C1609 C1617 1.433 1_565 S
C1610 H1606 0.929 . S
C1610 C1612 1.378 . S
C1610 C1614 1.350 1_545 S
C1611 C1614 1.463 . S
C1611 C1616 1.350 . S
C1611 N1619 1.427 1_565 S
C1612 H1603 0.930 . S
C1612 C1610 1.378 . S
C1612 C1613 1.367 1_545 S
C1613 C1612 1.367 1_565 S
C1613 C1615 1.433 . S
C1614 C1610 1.350 1_565 S
C1614 C1611 1.463 . S
C1614 N1618 1.427 . S
C1615 H1605 0.929 . S
C1615 C1613 1.433 . S
C1615 N1618 1.384 . S
C1616 H1607 0.929 . S
C1616 C1608 1.378 . S
C1616 C1611 1.350 . S
C1617 H1604 0.929 . S
C1617 C1609 1.433 1_545 S
C1617 N1619 1.384 . S
N1618 C1614 1.427 . S
N1618 C1615 1.384 . S
N1619 C1611 1.427 1_545 S
N1619 C1617 1.384 . S
H1620 C1626 0.930 . S
H1621 C1630 0.930 . S
H1622 C1635 0.929 1_655 S
H1623 C1633 0.929 . S
H1624 C1628 0.929 . S
H1625 C1634 0.929 . S
C1626 H1620 0.930 . S
C1626 C1627 1.367 . S
C1626 C1634 1.378 . S
C1627 C1626 1.367 . S
C1627 C1635 1.433 . S
C1628 H1624 0.929 . S
C1628 C1630 1.378 . S
C1628 C1632 1.350 1_655 S
C1629 C1632 1.463 . S
C1629 C1634 1.350 . S
C1629 N1637 1.427 . S
C1630 H1621 0.930 . S
C1630 C1628 1.378 . S
C1630 C1631 1.367 1_655 S
C1631 C1630 1.367 1_455 S
C1631 C1633 1.433 . S
C1632 C1628 1.350 1_455 S
C1632 C1629 1.463 . S
C1632 N1636 1.427 . S
C1633 H1623 0.929 . S
C1633 C1631 1.433 . S
C1633 N1636 1.384 . S
C1634 H1625 0.929 . S
C1634 C1626 1.378 . S
C1634 C1629 1.350 . S
C1635 H1622 0.929 1_455 S
C1635 C1627 1.433 . S
C1635 N1637 1.384 . S
N1636 C1632 1.427 . S
N1636 C1633 1.384 . S
N1637 C1629 1.427 . S
N1637 C1635 1.384 . S
H1638 C1644 0.930 . S
H1639 C1648 0.930 . S
H1640 C1653 0.929 . S
H1641 C1651 0.929 . S
H1642 C1646 0.929 . S
H1643 C1652 0.929 . S
C1644 H1638 0.930 . S
C1644 C1645 1.367 . S
C1644 C1652 1.378 . S
C1645 C1644 1.367 . S
C1645 C1653 1.433 . S
C1646 H1642 0.929 . S
C1646 C1648 1.378 . S
C1646 C1650 1.350 . S
C1647 C1650 1.463 . S
C1647 C1652 1.350 . S
C1647 N1655 1.427 . S
C1648 H1639 0.930 . S
C1648 C1646 1.378 . S
C1648 C1649 1.367 . S
C1649 C1648 1.367 . S
C1649 C1651 1.433 . S
C1650 C1646 1.350 . S
C1650 C1647 1.463 . S
C1650 N1654 1.427 . S
C1651 H1641 0.929 . S
C1651 C1649 1.433 . S
C1651 N1654 1.384 . S
C1652 H1643 0.929 . S
C1652 C1644 1.378 . S
C1652 C1647 1.350 . S
C1653 H1640 0.929 . S
C1653 C1645 1.433 . S
C1653 N1655 1.384 . S
N1654 C1650 1.427 . S
N1654 C1651 1.384 . S
N1655 C1647 1.427 . S
N1655 C1653 1.384 . S
H1656 C1662 0.930 . S
H1657 C1666 0.930 . S
H1658 C1671 0.929 . S
H1659 C1669 0.929 . S
H1660 C1664 0.929 . S
H1661 C1670 0.929 . S
C1662 H1656 0.930 . S
C1662 C1663 1.367 . S
C1662 C1670 1.378 . S
C1663 C1662 1.367 . S
C1663 C1671 1.433 . S
C1664 H1660 0.929 . S
C1664 C1666 1.378 . S
C1664 C1668 1.350 . S
C1665 C1668 1.463 . S
C1665 C1670 1.350 . S
C1665 N1673 1.427 . S
C1666 H1657 0.930 . S
C1666 C1664 1.378 . S
C1666 C1667 1.367 . S
C1667 C1666 1.367 . S
C1667 C1669 1.433 . S
C1668 C1664 1.350 . S
C1668 C1665 1.463 . S
C1668 N1672 1.427 . S
C1669 H1659 0.929 . S
C1669 C1667 1.433 . S
C1669 N1672 1.384 . S
C1670 H1661 0.929 . S
C1670 C1662 1.378 . S
C1670 C1665 1.350 . S
C1671 H1658 0.929 . S
C1671 C1663 1.433 . S
C1671 N1673 1.384 . S
N1672 C1668 1.427 . S
N1672 C1669 1.384 . S
N1673 C1665 1.427 . S
N1673 C1671 1.384 . S
H1674 C1680 0.930 . S
H1675 C1684 0.930 . S
H1676 C1689 0.929 . S
H1677 C1687 0.929 . S
H1678 C1682 0.929 . S
H1679 C1688 0.929 . S
C1680 H1674 0.930 . S
C1680 C1681 1.367 . S
C1680 C1688 1.378 . S
C1681 C1680 1.367 . S
C1681 C1689 1.433 . S
C1682 H1678 0.929 . S
C1682 C1684 1.378 . S
C1682 C1686 1.350 . S
C1683 C1686 1.463 . S
C1683 C1688 1.350 . S
C1683 N1691 1.427 . S
C1684 H1675 0.930 . S
C1684 C1682 1.378 . S
C1684 C1685 1.367 . S
C1685 C1684 1.367 . S
C1685 C1687 1.433 . S
C1686 C1682 1.350 . S
C1686 C1683 1.463 . S
C1686 N1690 1.427 . S
C1687 H1677 0.929 . S
C1687 C1685 1.433 . S
C1687 N1690 1.384 . S
C1688 H1679 0.929 . S
C1688 C1680 1.378 . S
C1688 C1683 1.350 . S
C1689 H1676 0.929 . S
C1689 C1681 1.433 . S
C1689 N1691 1.384 . S
N1690 C1686 1.427 . S
N1690 C1687 1.384 . S
N1691 C1683 1.427 . S
N1691 C1689 1.384 . S
H1692 C1698 0.930 . S
H1693 C1702 0.930 . S
H1694 C1707 0.929 . S
H1695 C1705 0.929 . S
H1696 C1700 0.929 . S
H1697 C1706 0.929 . S
C1698 H1692 0.930 . S
C1698 C1699 1.367 . S
C1698 C1706 1.378 . S
C1699 C1698 1.367 . S
C1699 C1707 1.433 . S
C1700 H1696 0.929 . S
C1700 C1702 1.378 . S
C1700 C1704 1.350 . S
C1701 C1704 1.463 . S
C1701 C1706 1.350 . S
C1701 N1709 1.427 . S
C1702 H1693 0.930 . S
C1702 C1700 1.378 . S
C1702 C1703 1.367 . S
C1703 C1702 1.367 . S
C1703 C1705 1.433 . S
C1704 C1700 1.350 . S
C1704 C1701 1.463 . S
C1704 N1708 1.427 . S
C1705 H1695 0.929 . S
C1705 C1703 1.433 . S
C1705 N1708 1.384 . S
C1706 H1697 0.929 . S
C1706 C1698 1.378 . S
C1706 C1701 1.350 . S
C1707 H1694 0.929 . S
C1707 C1699 1.433 . S
C1707 N1709 1.384 . S
N1708 C1704 1.427 . S
N1708 C1705 1.384 . S
N1709 C1701 1.427 . S
N1709 C1707 1.384 . S
H1710 C1716 0.934 . S
H1711 C1720 0.930 . S
H1712 C1725 0.929 . S
H1713 C1723 0.929 . S
H1714 C1718 0.929 . S
H1715 C1724 0.929 . S
C1716 H1710 0.934 . S
C1716 C1717 1.357 1_565 S
C1716 C1724 1.383 . S
C1717 C1716 1.357 1_545 S
C1717 C1725 1.433 . S
C1718 H1714 0.929 . S
C1718 C1720 1.378 . S
C1718 C1722 1.350 . S
C1719 C1722 1.463 . S
C1719 C1724 1.350 1_545 S
C1719 N1727 1.427 . S
C1720 H1711 0.930 . S
C1720 C1718 1.378 . S
C1720 C1721 1.367 . S
C1721 C1720 1.367 . S
C1721 C1723 1.433 1_545 S
C1722 C1718 1.350 . S
C1722 C1719 1.463 . S
C1722 N1726 1.427 1_545 S
C1723 H1713 0.929 . S
C1723 C1721 1.433 1_565 S
C1723 N1726 1.384 . S
C1724 H1715 0.929 . S
C1724 C1716 1.383 . S
C1724 C1719 1.350 1_565 S
C1725 H1712 0.929 . S
C1725 C1717 1.433 . S
C1725 N1727 1.384 . S
N1726 C1722 1.427 1_565 S
N1726 C1723 1.384 . S
N1727 C1719 1.427 . S
N1727 C1725 1.384 . S
H1728 C1734 0.930 . S
H1729 C1738 0.930 . S
H1730 C1743 0.929 1_455 S
H1731 C1741 0.929 . S
H1732 C1736 0.929 . S
H1733 C1742 0.929 . S
C1734 H1728 0.930 . S
C1734 C1735 1.367 . S
C1734 C1742 1.378 . S
C1735 C1734 1.367 . S
C1735 C1743 1.433 . S
C1736 H1732 0.929 . S
C1736 C1738 1.378 . S
C1736 C1740 1.350 1_455 S
C1737 C1740 1.463 . S
C1737 C1742 1.350 . S
C1737 N1745 1.427 1_655 S
C1738 H1729 0.930 . S
C1738 C1736 1.378 . S
C1738 C1739 1.367 1_455 S
C1739 C1738 1.367 1_655 S
C1739 C1741 1.433 . S
C1740 C1736 1.350 1_655 S
C1740 C1737 1.463 . S
C1740 N1744 1.427 . S
C1741 H1731 0.929 . S
C1741 C1739 1.433 . S
C1741 N1744 1.384 . S
C1742 H1733 0.929 . S
C1742 C1734 1.378 . S
C1742 C1737 1.350 . S
C1743 H1730 0.929 1_655 S
C1743 C1735 1.433 . S
C1743 N1745 1.384 1_655 S
N1744 C1740 1.427 . S
N1744 C1741 1.384 . S
N1745 C1737 1.427 1_455 S
N1745 C1743 1.384 1_455 S
H1746 C1752 0.930 . S
H1747 C1756 0.930 . S
H1748 C1761 0.929 . S
H1749 C1759 0.929 . S
H1750 C1754 0.929 . S
H1751 C1760 0.929 . S
C1752 H1746 0.930 . S
C1752 C1753 1.367 . S
C1752 C1760 1.378 . S
C1753 C1752 1.367 . S
C1753 C1761 1.433 . S
C1754 H1750 0.929 . S
C1754 C1756 1.378 . S
C1754 C1758 1.350 . S
C1755 C1758 1.463 . S
C1755 C1760 1.350 . S
C1755 N1763 1.427 . S
C1756 H1747 0.930 . S
C1756 C1754 1.378 . S
C1756 C1757 1.367 . S
C1757 C1756 1.367 . S
C1757 C1759 1.433 . S
C1758 C1754 1.350 . S
C1758 C1755 1.463 . S
C1758 N1762 1.427 . S
C1759 H1749 0.929 . S
C1759 C1757 1.433 . S
C1759 N1762 1.384 . S
C1760 H1751 0.929 . S
C1760 C1752 1.378 . S
C1760 C1755 1.350 . S
C1761 H1748 0.929 . S
C1761 C1753 1.433 . S
C1761 N1763 1.384 . S
N1762 C1758 1.427 . S
N1762 C1759 1.384 . S
N1763 C1755 1.427 . S
N1763 C1761 1.384 . S
H1764 C1770 0.930 . S
H1765 C1774 0.930 . S
H1766 C1779 0.929 . S
H1767 C1777 0.929 . S
H1768 C1772 0.929 . S
H1769 C1778 0.929 . S
C1770 H1764 0.930 . S
C1770 C1771 1.367 . S
C1770 C1778 1.378 . S
C1771 C1770 1.367 . S
C1771 C1779 1.433 . S
C1772 H1768 0.929 . S
C1772 C1774 1.378 . S
C1772 C1776 1.350 . S
C1773 C1776 1.463 . S
C1773 C1778 1.350 . S
C1773 N1781 1.427 . S
C1774 H1765 0.930 . S
C1774 C1772 1.378 . S
C1774 C1775 1.367 . S
C1775 C1774 1.367 . S
C1775 C1777 1.433 . S
C1776 C1772 1.350 . S
C1776 C1773 1.463 . S
C1776 N1780 1.427 . S
C1777 H1767 0.929 . S
C1777 C1775 1.433 . S
C1777 N1780 1.384 . S
C1778 H1769 0.929 . S
C1778 C1770 1.378 . S
C1778 C1773 1.350 . S
C1779 H1766 0.929 . S
C1779 C1771 1.433 . S
C1779 N1781 1.384 . S
N1780 C1776 1.427 . S
N1780 C1777 1.384 . S
N1781 C1773 1.427 . S
N1781 C1779 1.384 . S
H1782 C1788 0.930 . S
H1783 C1792 0.930 . S
H1784 C1797 0.929 . S
H1785 C1795 0.929 . S
H1786 C1790 0.929 . S
H1787 C1796 0.929 . S
C1788 H1782 0.930 . S
C1788 C1789 1.367 . S
C1788 C1796 1.378 . S
C1789 C1788 1.367 . S
C1789 C1797 1.433 . S
C1790 H1786 0.929 . S
C1790 C1792 1.378 . S
C1790 C1794 1.350 . S
C1791 C1794 1.463 . S
C1791 C1796 1.350 . S
C1791 N1799 1.427 . S
C1792 H1783 0.930 . S
C1792 C1790 1.378 . S
C1792 C1793 1.367 . S
C1793 C1792 1.367 . S
C1793 C1795 1.433 . S
C1794 C1790 1.350 . S
C1794 C1791 1.463 . S
C1794 N1798 1.427 . S
C1795 H1785 0.929 . S
C1795 C1793 1.433 . S
C1795 N1798 1.384 . S
C1796 H1787 0.929 . S
C1796 C1788 1.378 . S
C1796 C1791 1.350 . S
C1797 H1784 0.929 . S
C1797 C1789 1.433 . S
C1797 N1799 1.384 . S
N1798 C1794 1.427 . S
N1798 C1795 1.384 . S
N1799 C1791 1.427 . S
N1799 C1797 1.384 . S
H1800 C1806 0.930 . S
H1801 C1810 0.930 . S
H1802 C1815 0.929 . S
H1803 C1813 0.929 . S
H1804 C1808 0.929 . S
H1805 C1814 0.929 . S
C1806 H1800 0.930 . S
C1806 C1807 1.367 . S
C1806 C1814 1.378 . S
C1807 C1806 1.367 . S
C1807 C1815 1.433 . S
C1808 H1804 0.929 . S
C1808 C1810 1.378 . S
C1808 C1812 1.350 . S
C1809 C1812 1.463 . S
C1809 C1814 1.350 . S
C1809 N1817 1.427 . S
C1810 H1801 0.930 . S
C1810 C1808 1.378 . S
C1810 C1811 1.367 . S
C1811 C1810 1.367 . S
C1811 C1813 1.433 . S
C1812 C1808 1.350 . S
C1812 C1809 1.463 . S
C1812 N1816 1.427 . S
C1813 H1803 0.929 . S
C1813 C1811 1.433 . S
C1813 N1816 1.384 . S
C1814 H1805 0.929 . S
C1814 C1806 1.378 . S
C1814 C1809 1.350 . S
C1815 H1802 0.929 . S
C1815 C1807 1.433 . S
C1815 N1817 1.384 . S
N1816 C1812 1.427 . S
N1816 C1813 1.384 . S
N1817 C1809 1.427 . S
N1817 C1815 1.384 . S
H1818 C1824 0.930 . S
H1819 C1828 0.930 . S
H1820 C1833 0.929 . S
H1821 C1831 0.929 . S
H1822 C1826 0.929 . S
H1823 C1832 0.929 . S
C1824 H1818 0.930 . S
C1824 C1825 1.367 . S
C1824 C1832 1.378 . S
C1825 C1824 1.367 . S
C1825 C1833 1.433 . S
C1826 H1822 0.929 . S
C1826 C1828 1.378 . S
C1826 C1830 1.350 . S
C1827 C1830 1.463 . S
C1827 C1832 1.350 . S
C1827 N1835 1.427 . S
C1828 H1819 0.930 . S
C1828 C1826 1.378 . S
C1828 C1829 1.367 . S
C1829 C1828 1.367 . S
C1829 C1831 1.433 . S
C1830 C1826 1.350 . S
C1830 C1827 1.463 . S
C1830 N1834 1.427 . S
C1831 H1821 0.929 . S
C1831 C1829 1.433 . S
C1831 N1834 1.384 . S
C1832 H1823 0.929 . S
C1832 C1824 1.378 . S
C1832 C1827 1.350 . S
C1833 H1820 0.929 . S
C1833 C1825 1.433 . S
C1833 N1835 1.384 . S
N1834 C1830 1.427 . S
N1834 C1831 1.384 . S
N1835 C1827 1.427 . S
N1835 C1833 1.384 . S
H1836 C1842 0.930 . S
H1837 C1846 0.930 . S
H1838 C1851 0.929 . S
H1839 C1849 0.929 . S
H1840 C1844 0.929 . S
H1841 C1850 0.929 . S
C1842 H1836 0.930 . S
C1842 C1843 1.367 . S
C1842 C1850 1.378 . S
C1843 C1842 1.367 . S
C1843 C1851 1.433 . S
C1844 H1840 0.929 . S
C1844 C1846 1.378 . S
C1844 C1848 1.350 . S
C1845 C1848 1.463 . S
C1845 C1850 1.350 . S
C1845 N1853 1.427 . S
C1846 H1837 0.930 . S
C1846 C1844 1.378 . S
C1846 C1847 1.367 . S
C1847 C1846 1.367 . S
C1847 C1849 1.433 . S
C1848 C1844 1.350 . S
C1848 C1845 1.463 . S
C1848 N1852 1.427 . S
C1849 H1839 0.929 . S
C1849 C1847 1.433 . S
C1849 N1852 1.384 . S
C1850 H1841 0.929 . S
C1850 C1842 1.378 . S
C1850 C1845 1.350 . S
C1851 H1838 0.929 . S
C1851 C1843 1.433 . S
C1851 N1853 1.384 . S
N1852 C1848 1.427 . S
N1852 C1849 1.384 . S
N1853 C1845 1.427 . S
N1853 C1851 1.384 . S
H1854 C1860 0.930 . S
H1855 C1864 0.930 . S
H1856 C1869 0.929 . S
H1857 C1867 0.929 . S
H1858 C1862 0.929 . S
H1859 C1868 0.929 . S
C1860 H1854 0.930 . S
C1860 C1861 1.367 . S
C1860 C1868 1.378 . S
C1861 C1860 1.367 . S
C1861 C1869 1.433 . S
C1862 H1858 0.929 . S
C1862 C1864 1.378 . S
C1862 C1866 1.350 . S
C1863 C1866 1.463 . S
C1863 C1868 1.350 . S
C1863 N1871 1.427 . S
C1864 H1855 0.930 . S
C1864 C1862 1.378 . S
C1864 C1865 1.367 . S
C1865 C1864 1.367 . S
C1865 C1867 1.433 . S
C1866 C1862 1.350 . S
C1866 C1863 1.463 . S
C1866 N1870 1.427 . S
C1867 H1857 0.929 . S
C1867 C1865 1.433 . S
C1867 N1870 1.384 . S
C1868 H1859 0.929 . S
C1868 C1860 1.378 . S
C1868 C1863 1.350 . S
C1869 H1856 0.929 . S
C1869 C1861 1.433 . S
C1869 N1871 1.384 . S
N1870 C1866 1.427 . S
N1870 C1867 1.384 . S
N1871 C1863 1.427 . S
N1871 C1869 1.384 . S
H1872 C1878 0.930 . S
H1873 C1882 0.930 . S
H1874 C1887 0.928 1_455 S
H1875 C1885 0.929 . S
H1876 C1880 0.929 . S
H1877 C1886 0.929 . S
C1878 H1872 0.930 . S
C1878 C1879 1.367 . S
C1878 C1886 1.378 . S
C1879 C1878 1.367 . S
C1879 C1887 1.433 . S
C1880 H1876 0.929 . S
C1880 C1882 1.378 . S
C1880 C1884 1.350 1_455 S
C1881 C1884 1.463 . S
C1881 C1886 1.350 . S
C1881 N1889 1.427 . S
C1882 H1873 0.930 . S
C1882 C1880 1.378 . S
C1882 C1883 1.367 1_455 S
C1883 C1882 1.367 1_655 S
C1883 C1885 1.433 . S
C1884 C1880 1.350 1_655 S
C1884 C1881 1.463 . S
C1884 N1888 1.427 . S
C1885 H1875 0.929 . S
C1885 C1883 1.433 . S
C1885 N1888 1.384 . S
C1886 H1877 0.929 . S
C1886 C1878 1.378 . S
C1886 C1881 1.350 . S
C1887 H1874 0.928 1_655 S
C1887 C1879 1.433 . S
C1887 N1889 1.384 . S
N1888 C1884 1.427 . S
N1888 C1885 1.384 . S
N1889 C1881 1.427 . S
N1889 C1887 1.384 . S
H1890 C1896 0.930 . S
H1891 C1900 0.930 . S
H1892 C1905 0.929 . S
H1893 C1903 0.929 . S
H1894 C1898 0.929 . S
H1895 C1904 0.929 . S
C1896 H1890 0.930 . S
C1896 C1897 1.367 . S
C1896 C1904 1.378 . S
C1897 C1896 1.367 . S
C1897 C1905 1.433 . S
C1898 H1894 0.929 . S
C1898 C1900 1.378 . S
C1898 C1902 1.350 . S
C1899 C1902 1.463 . S
C1899 C1904 1.350 . S
C1899 N1907 1.427 . S
C1900 H1891 0.930 . S
C1900 C1898 1.378 . S
C1900 C1901 1.367 . S
C1901 C1900 1.367 . S
C1901 C1903 1.433 . S
C1902 C1898 1.350 . S
C1902 C1899 1.463 . S
C1902 N1906 1.427 . S
C1903 H1893 0.929 . S
C1903 C1901 1.433 . S
C1903 N1906 1.384 . S
C1904 H1895 0.929 . S
C1904 C1896 1.378 . S
C1904 C1899 1.350 . S
C1905 H1892 0.929 . S
C1905 C1897 1.433 . S
C1905 N1907 1.384 . S
N1906 C1902 1.427 . S
N1906 C1903 1.384 . S
N1907 C1899 1.427 . S
N1907 C1905 1.384 . S
H1908 C1914 0.930 . S
H1909 C1918 0.930 . S
H1910 C1923 0.929 . S
H1911 C1921 0.929 . S
H1912 C1916 0.929 . S
H1913 C1922 0.929 . S
C1914 H1908 0.930 . S
C1914 C1915 1.367 1_565 S
C1914 C1922 1.378 . S
C1915 C1914 1.367 1_545 S
C1915 C1923 1.433 . S
C1916 H1912 0.929 . S
C1916 C1918 1.378 . S
C1916 C1920 1.350 . S
C1917 C1920 1.463 . S
C1917 C1922 1.350 1_545 S
C1917 N1925 1.427 . S
C1918 H1909 0.930 . S
C1918 C1916 1.378 . S
C1918 C1919 1.367 . S
C1919 C1918 1.367 . S
C1919 C1921 1.433 1_545 S
C1920 C1916 1.350 . S
C1920 C1917 1.463 . S
C1920 N1924 1.427 1_545 S
C1921 H1911 0.929 . S
C1921 C1919 1.433 1_565 S
C1921 N1924 1.384 . S
C1922 H1913 0.929 . S
C1922 C1914 1.378 . S
C1922 C1917 1.350 1_565 S
C1923 H1910 0.929 . S
C1923 C1915 1.433 . S
C1923 N1925 1.384 . S
N1924 C1920 1.427 1_565 S
N1924 C1921 1.384 . S
N1925 C1917 1.427 . S
N1925 C1923 1.384 . S
C637 C4 1.560 . S
C641 C458 1.553 1_655 S
C655 C26 1.575 . S
C659 C471 1.536 . S
C677 C500 1.463 1_545 S
C673 C32 1.493 . S
C691 C40 1.504 . S
C695 C513 1.458 . S
C709 C12 1.555 . S
C713 C534 1.509 . S
C727 C18 1.513 . S
C731 C563 1.499 . S
C745 C46 1.543 . S
C749 C542 1.526 . S
C767 C555 1.497 . S
C763 C68 1.555 . S
C785 C521 1.479 . S
C781 C74 1.494 . S
C799 C82 1.496 . S
C803 C492 1.468 1_545 S
C821 C450 1.509 1_655 S
C817 C54 1.561 . S
C835 C60 1.516 . S
C839 C479 1.517 . S
C853 C88 1.592 . S
C857 C584 1.570 . S
C871 C110 1.592 . S
C875 C597 1.553 . S
C893 C626 1.506 . S
C889 C116 1.535 . S
C907 C124 1.527 . S
C911 C261 1.490 . S
C925 C96 1.571 . S
C929 C282 1.529 . S
C943 C102 1.532 . S
C947 C311 1.511 . S
C961 C130 1.562 . S
C965 C290 1.568 . S
C979 C152 1.590 . S
C983 C303 1.527 . S
C1001 C269 1.539 . S
C997 C158 1.527 . S
C1019 C618 1.467 . S
C1015 C166 1.533 . S
C1037 C576 1.507 . S
C1033 C138 1.557 . S
C1055 C605 1.533 . S
C1051 C144 1.527 . S
C1069 C172 1.566 . S
C1073 C332 1.543 . S
C1087 C194 1.599 . S
C1091 C345 1.563 . S
C1105 C200 1.546 . S
C1109 C374 1.516 . S
C1123 C208 1.533 . S
C1127 C387 1.490 . S
C1145 C408 1.537 . S
C1141 C180 1.575 . S
C1163 C437 1.525 . S
C1159 C186 1.545 . S
C1181 C416 1.586 . S
C1177 C214 1.573 . S
C1199 C429 1.520 . S
C1195 C236 1.582 . S
C1213 C242 1.527 . S
C1217 C395 1.533 . S
C1235 C366 1.442 . S
C1231 C250 1.508 . S
C1249 C222 1.562 . S
C1253 C324 1.505 . S
C1271 C353 1.523 . S
C1267 C228 1.523 . S
C1289 C264 1.293 . S
C1285 C5 1.182 . S
C1303 C25 1.318 . S
C1307 C285 1.234 . S
C1325 C313 1.273 . S
C1321 C33 1.189 . S
C1343 C334 1.194 . S
C1339 C39 1.288 . S
C1361 C348 1.250 . S
C1357 C11 1.342 . S
C1379 C376 1.256 . S
C1375 C19 1.162 1_556 S
C1393 C47 1.224 1_556 S
C1397 C369 1.280 . S
C1411 C67 1.347 . S
C1415 C327 1.174 . S
C1429 C75 1.220 1_556 S
C1433 C355 1.340 . S
C1447 C81 1.325 . S
C1451 C292 1.266 . S
C1469 C306 1.187 . S
C1465 C53 1.346 . S
C1483 C61 1.150 . S
C1487 C271 1.297 . S
C1505 C390 1.279 . S
C1501 C89 1.160 . S
C1519 C109 1.366 . S
C1523 C411 1.258 . S
C1537 C117 1.184 . S
C1541 C439 1.275 . S
C1559 C460 1.197 . S
C1555 C123 1.266 . S
C1573 C95 1.325 . S
C1577 C474 1.224 . S
C1591 C103 1.115 . S
C1595 C502 1.215 . S
C1609 C131 1.147 . S
C1613 C495 1.205 . S
C1627 C151 1.309 . S
C1631 C453 1.196 . S
C1649 C481 1.297 . S
C1645 C159 1.155 . S
C1663 C165 1.326 . S
C1667 C418 1.266 . S
C1681 C137 1.383 . S
C1685 C432 1.245 . S
C1703 C397 1.332 . S
C1699 C145 1.202 . S
C1721 C516 1.238 1_545 S
C1717 C173 1.136 . S
C1735 C193 1.284 . S
C1739 C537 1.179 1_655 S
C1753 C201 1.161 . S
C1757 C565 1.251 . S
C1775 C586 1.194 . S
C1771 C207 1.297 . S
C1793 C600 1.290 . S
C1789 C179 1.374 . S
C1807 C187 1.193 . S
C1811 C628 1.289 . S
C1825 C215 1.199 . S
C1829 C621 1.252 . S
C1843 C235 1.384 . S
C1847 C579 1.235 . S
C1865 C607 1.331 . S
C1861 C243 1.206 . S
C1883 C544 1.209 1_655 S
C1879 C249 1.256 . S
C1901 C558 1.219 . S
C1897 C221 1.348 . S
C1915 C229 1.129 . S
C1919 C523 1.253 1_545 S
