# Generated by pormake.
# Topology zzz, (3,6)-cn, num edge types: 1
# Building blocks:
#     Node 0, Type 0, BuildingBlock: PAMTOO_clean_linker_0, # of connection points: 3
#     Node 1, Type 0, BuildingBlock: PAMTOO_clean_linker_0, # of connection points: 3
#     Node 2, Type 0, BuildingBlock: PAMTOO_clean_linker_0, # of connection points: 3
#     Node 3, Type 0, BuildingBlock: PAMTOO_clean_linker_0, # of connection points: 3
#     Node 4, Type 0, BuildingBlock: PAMTOO_clean_linker_0, # of connection points: 3
#     Node 5, Type 0, BuildingBlock: PAMTOO_clean_linker_0, # of connection points: 3
#     Node 6, Type 0, BuildingBlock: PAMTOO_clean_linker_0, # of connection points: 3
#     Node 7, Type 0, BuildingBlock: PAMTOO_clean_linker_0, # of connection points: 3
#     Node 8, Type 1, BuildingBlock: CUWYAW_clean_sbu_0, # of connection points: 6
#     Node 9, Type 1, BuildingBlock: CUWYAW_clean_sbu_0, # of connection points: 6
#     Node 10, Type 1, BuildingBlock: CUWYAW_clean_sbu_0, # of connection points: 6
#     Node 11, Type 1, BuildingBlock: CUWYAW_clean_sbu_0, # of connection points: 6
#     Edge 12, Type (0, 1), BuildingBlock: CIFDUS_clean_linker_0, # of connection points: 2
#     Edge 13, Type (0, 1), BuildingBlock: CIFDUS_clean_linker_0, # of connection points: 2
#     Edge 14, Type (0, 1), BuildingBlock: CIFDUS_clean_linker_0, # of connection points: 2
#     Edge 15, Type (0, 1), BuildingBlock: CIFDUS_clean_linker_0, # of connection points: 2
#     Edge 16, Type (0, 1), BuildingBlock: CIFDUS_clean_linker_0, # of connection points: 2
#     Edge 17, Type (0, 1), BuildingBlock: CIFDUS_clean_linker_0, # of connection points: 2
#     Edge 18, Type (0, 1), BuildingBlock: CIFDUS_clean_linker_0, # of connection points: 2
#     Edge 19, Type (0, 1), BuildingBlock: CIFDUS_clean_linker_0, # of connection points: 2
#     Edge 20, Type (0, 1), BuildingBlock: CIFDUS_clean_linker_0, # of connection points: 2
#     Edge 21, Type (0, 1), BuildingBlock: CIFDUS_clean_linker_0, # of connection points: 2
#     Edge 22, Type (0, 1), BuildingBlock: CIFDUS_clean_linker_0, # of connection points: 2
#     Edge 23, Type (0, 1), BuildingBlock: CIFDUS_clean_linker_0, # of connection points: 2
#     Edge 24, Type (0, 1), BuildingBlock: CIFDUS_clean_linker_0, # of connection points: 2
#     Edge 25, Type (0, 1), BuildingBlock: CIFDUS_clean_linker_0, # of connection points: 2
#     Edge 26, Type (0, 1), BuildingBlock: CIFDUS_clean_linker_0, # of connection points: 2
#     Edge 27, Type (0, 1), BuildingBlock: CIFDUS_clean_linker_0, # of connection points: 2
#     Edge 28, Type (0, 1), BuildingBlock: CIFDUS_clean_linker_0, # of connection points: 2
#     Edge 29, Type (0, 1), BuildingBlock: CIFDUS_clean_linker_0, # of connection points: 2
#     Edge 30, Type (0, 1), BuildingBlock: CIFDUS_clean_linker_0, # of connection points: 2
#     Edge 31, Type (0, 1), BuildingBlock: CIFDUS_clean_linker_0, # of connection points: 2
#     Edge 32, Type (0, 1), BuildingBlock: CIFDUS_clean_linker_0, # of connection points: 2
#     Edge 33, Type (0, 1), BuildingBlock: CIFDUS_clean_linker_0, # of connection points: 2
#     Edge 34, Type (0, 1), BuildingBlock: CIFDUS_clean_linker_0, # of connection points: 2
#     Edge 35, Type (0, 1), BuildingBlock: CIFDUS_clean_linker_0, # of connection points: 2
# Relax obj value: 0.293
# Max RMSD: 0.173
# Mean RMSD: 0.136
data_MOF--net-zzz--node1-CUWYAW_clean_sbu_0--node2-PAMTOO_clean_linker_0--edge1-CIFDUS_clean_linker_0
_symmetry_space_group_name_H-M    P1
_symmetry_Int_Tables_number       1
_symmetry_cell_setting            triclinic
loop_
_symmetry_equiv_pos_as_xyz
'x, y, z'
_cell_length_a     44.686884
_cell_length_b     44.842357
_cell_length_c     12.339476
_cell_angle_alpha  90.146755
_cell_angle_beta   89.852961
_cell_angle_gamma 89.94382
loop_
_atom_site_label
_atom_site_type_symbol
_atom_site_fract_x
_atom_site_fract_y
_atom_site_fract_z
_atom_type_partial_charge
H0 H 0.82348 0.47076 0.38291 0.0
H1 H 0.73903 0.48469 0.22299 0.0
H2 H 0.76974 0.54703 0.46391 0.0
H3 H 0.69 0.5451 0.40575 0.0
C4 C 0.69746 0.52884 0.34326 0.0
O5 O 0.72716 0.53486 0.31695 0.0
H6 H 0.69537 0.50614 0.37899 0.0
C7 C 0.80262 0.48292 0.37469 0.0
C8 C 0.79896 0.50906 0.43541 0.0
C9 C 0.78127 0.47368 0.29792 0.0
C10 C 0.7554 0.49094 0.28354 0.0
C11 C 0.75081 0.51712 0.34344 0.0
C12 C 0.77264 0.52625 0.42024 0.0
H13 H 0.07309 0.81932 0.43453 0.0
H14 H 0.0701 0.73236 0.28786 0.0
H15 H 0.99647 0.76306 0.48638 0.0
H16 H 0.99461 0.73052 0.23394 0.0
C17 C 0.99962 0.71021 0.28247 0.0
O18 O 1.01853 0.7171 0.36843 0.0
H19 H 0.97783 0.70284 0.31652 0.0
C20 C 0.0617 0.79818 0.42291 0.0
C21 C 0.03335 0.79432 0.46872 0.0
C22 C 0.07514 0.77603 0.35863 0.0
C23 C 0.05998 0.74928 0.33901 0.0
C24 C 0.03169 0.74424 0.38461 0.0
C25 C 1.01828 0.76682 0.45058 0.0
H26 H 0.70792 0.04707 0.35101 0.0
H27 H 0.79693 0.04328 0.22487 0.0
H28 H 0.7771 1.00305 0.5346 0.0
H29 H 0.82072 0.9812 0.28072 0.0
C30 C 0.83632 0.99387 0.33386 0.0
O31 O 0.82101 1.01632 0.3898 0.0
H32 H 0.84518 0.97787 0.39443 0.0
C33 C 0.73095 0.03978 0.36018 0.0
C34 C 0.73925 1.02359 0.45227 0.0
C35 C 0.75181 0.04701 0.27977 0.0
C36 C 0.7814 0.0378 0.2889 0.0
C37 C 0.79107 1.02208 0.38008 0.0
C38 C 0.76985 1.01489 0.46299 0.0
H39 H 0.46704 0.71518 0.39458 0.0
H40 H 0.48798 0.79645 0.22686 0.0
H41 H 0.5346 0.77391 0.52052 0.0
H42 H 0.53107 0.85269 0.4483 0.0
C43 C 0.51857 0.84307 0.37883 0.0
O44 O 0.52884 0.81413 0.36143 0.0
H45 H 0.49441 0.84304 0.40125 0.0
C46 C 0.47875 0.73636 0.39167 0.0
C47 C 0.50059 0.7423 0.46983 0.0
C48 C 0.47409 0.75559 0.30369 0.0
C49 C 0.49077 0.78192 0.29615 0.0
C50 C 0.51185 0.78926 0.37566 0.0
C51 C 0.51711 0.76919 0.46243 0.0
H52 H 0.22494 0.58174 0.0993 0.0
H53 H 0.31305 0.58104 0.23864 0.0
H54 H 0.28246 0.50619 0.04846 0.0
H55 H 0.3294 0.48772 0.23266 0.0
C56 C 0.33336 0.5114 0.25518 0.0
O57 O 0.32818 0.52878 0.16395 0.0
H58 H 0.31718 0.5171 0.32083 0.0
C59 C 0.24662 0.57118 0.10902 0.0
C60 C 0.25085 0.54277 0.06483 0.0
C61 C 0.26874 0.58527 0.17144 0.0
C62 C 0.29612 0.57074 0.18826 0.0
C63 C 0.3014 0.54233 0.14405 0.0
C64 C 0.27869 0.52828 0.08143 0.0
H65 H 0.08557 0.22402 0.16949 0.0
H66 H 0.06897 0.3109 0.30407 0.0
H67 H 1.0104 0.27546 0.05956 0.0
H68 H 1.01537 0.35707 0.0902 0.0
C69 C 0.02959 0.35071 0.16018 0.0
O70 O 1.0218 0.322 0.19229 0.0
H71 H 0.05315 0.35138 0.13051 0.0
C72 C 0.07315 0.24478 0.16916 0.0
C73 C 0.04735 0.24644 0.10488 0.0
C74 C 0.08062 0.26726 0.24422 0.0
C75 C 0.06415 0.29382 0.24427 0.0
C76 C 0.03937 0.29743 0.17653 0.0
C77 C 0.03077 0.27359 0.10638 0.0
H78 H 0.31553 0.06467 0.24363 0.0
H79 H 0.22266 0.06322 0.32899 0.0
H80 H 0.25274 1.02053 0.03448 0.0
H81 H 0.21063 0.98955 0.23532 0.0
C82 C 0.19292 1.00604 0.21434 0.0
O83 O 0.20556 0.03114 0.16631 0.0
H84 H 0.1786 0.9948 0.15318 0.0
C85 C 0.29268 0.05953 0.22151 0.0
C86 C 0.2875 0.04383 0.12482 0.0
C87 C 0.26961 0.06694 0.29466 0.0
C88 C 0.24049 0.05773 0.27275 0.0
C89 C 0.23435 0.04022 0.18164 0.0
C90 C 0.25779 0.0334 0.10644 0.0
H91 H 0.56881 0.31615 0.15699 0.0
H92 H 0.55477 0.23414 0.3304 0.0
H93 H 0.48622 0.26851 0.12109 0.0
H94 H 0.52448 0.19169 0.18672 0.0
C95 C 0.50306 0.1958 0.23079 0.0
O96 O 0.50087 0.2256 0.26126 0.0
H97 H 0.48447 0.19052 0.17443 0.0
C98 C 0.55575 0.29621 0.17177 0.0
C99 C 0.52721 0.29442 0.12532 0.0
C100 C 0.56598 0.27499 0.24703 0.0
C101 C 0.54766 0.25047 0.27123 0.0
C102 C 0.51921 0.24765 0.2249 0.0
C103 C 0.50878 0.26985 0.15253 0.0
C104 C 0.98746 0.0631 0.53904 0.0
Eu105 Eu 0.99973 0.03233 0.7083 0.0
C106 C 1.00529 0.08925 0.50933 0.0
C107 C 0.99111 0.11539 0.47515 0.0
C108 C 1.00655 0.14246 0.47756 0.0
C109 C 0.03631 0.14369 0.5148 0.0
C110 C 0.05093 0.11726 0.54324 0.0
C111 C 0.03549 0.09032 0.5412 0.0
C112 C 0.96644 1.01739 0.88803 0.0
C113 C 0.02744 0.07593 0.89549 0.0
C114 C 0.0653 0.97966 0.06311 0.0
Eu115 Eu 0.04211 1.00457 0.89423 0.0
C116 C 0.0882 0.95644 0.07104 0.0
C117 C 0.1012 0.94477 0.97628 0.0
C118 C 0.1181 0.91861 0.98029 0.0
C119 C 0.12188 0.90357 0.07904 0.0
C120 C 0.11132 0.91718 0.17519 0.0
C121 C 0.09453 0.94341 0.17103 0.0
C122 C 0.07477 1.01788 0.7098 0.0
C123 C 1.01304 0.96009 0.70695 0.0
O124 O 1.0012 0.03729 0.53253 0.0
O125 O 0.97285 0.06655 0.6303 0.0
O126 O 0.95506 0.02793 0.79916 0.0
O127 O 0.9943 1.01455 0.87343 0.0
O128 O 1.01928 0.07353 0.7926 0.0
O129 O 0.0333 0.05191 0.95463 0.0
O130 O 0.03998 0.9708 0.01982 0.0
O131 O 0.07455 1.00535 0.02535 0.0
O132 O 0.08612 1.00661 0.79698 0.0
O133 O 0.04735 1.02205 0.72943 0.0
O134 O 0.02777 0.96257 0.80056 0.0
O135 O 1.00107 0.9835 0.65639 0.0
H136 H 0.96769 0.11516 0.45265 0.0
H137 H 0.99501 0.16255 0.45265 0.0
H138 H 0.07381 0.1176 0.57209 0.0
H139 H 0.04663 0.07069 0.57189 0.0
H140 H 0.09656 0.9547 0.89822 0.0
H141 H 0.12612 0.9089 0.90517 0.0
H142 H 0.11343 0.90615 0.25277 0.0
H143 H 0.08477 0.95229 0.24486 0.0
C144 C 0.47371 0.97536 0.5747 0.0
Eu145 Eu 0.50497 0.99776 0.72867 0.0
C146 C 0.45003 0.9942 0.52863 0.0
C147 C 0.42021 0.9848 0.53251 0.0
C148 C 0.39708 1.00576 0.52827 0.0
C149 C 0.40339 0.03661 0.5234 0.0
C150 C 0.4333 0.04564 0.51312 0.0
C151 C 0.4562 0.02467 0.51337 0.0
C152 C 0.5219 0.97054 0.91637 0.0
C153 C 0.45492 0.02936 0.88036 0.0
C154 C 0.54894 0.07506 0.02208 0.0
Eu155 Eu 0.52415 0.04078 0.87799 0.0
C156 C 0.57416 0.09561 1.01504 0.0
C157 C 0.58891 0.09982 0.91571 0.0
C158 C 0.61658 0.11419 0.91282 0.0
C159 C 0.62987 0.12409 1.00956 0.0
C160 C 0.61303 0.12312 0.10635 0.0
C161 C 0.58541 0.10875 0.10906 0.0
C162 C 0.50683 0.06689 0.68786 0.0
C163 C 0.57537 1.00967 0.72014 0.0
O164 O 0.50105 0.9847 0.55839 0.0
O165 O 0.46906 0.96809 0.67578 0.0
O166 O 0.52706 0.96014 0.81993 0.0
O167 O 0.50732 0.99477 0.91029 0.0
O168 O 0.46075 1.02009 0.78102 0.0
O169 O 0.4775 0.03456 0.94589 0.0
O170 O 0.55572 0.04682 1.01044 0.0
O171 O 0.52548 0.08277 0.96629 0.0
O172 O 0.49967 0.07653 0.78305 0.0
O173 O 0.52237 0.04348 0.69721 0.0
O174 O 0.57016 0.0269 0.80585 0.0
O175 O 0.55284 0.99623 0.67158 0.0
H176 H 0.41486 0.96152 0.54567 0.0
H177 H 0.37428 0.99767 0.53121 0.0
H178 H 0.43934 0.06898 0.50932 0.0
H179 H 0.47897 0.03272 0.5107 0.0
H180 H 0.58008 0.09013 0.84188 0.0
H181 H 0.62887 0.11485 0.83707 0.0
H182 H 0.62253 0.13031 0.18269 0.0
H183 H 0.574 0.10597 0.18593 0.0
C184 C 0.58242 0.48883 0.54531 0.0
Eu185 Eu 0.54506 0.50986 0.6894 0.0
C186 C 0.59742 0.45987 0.53071 0.0
C187 C 0.6276 0.45845 0.49915 0.0
C188 C 0.64139 0.43079 0.48081 0.0
C189 C 0.62525 0.40421 0.49615 0.0
C190 C 0.59542 0.40594 0.53263 0.0
C191 C 0.58168 0.43338 0.54927 0.0
C192 C 0.56737 0.52652 0.887 0.0
C193 C 0.52075 0.45373 0.83295 0.0
C194 C 0.46099 0.53999 0.9804 0.0
Eu195 Eu 0.49895 0.52065 0.83552 0.0
C196 C 0.442 0.56642 0.99065 0.0
C197 C 0.43807 0.58574 0.90254 0.0
C198 C 0.42437 0.61344 0.91786 0.0
C199 C 0.4148 0.62231 0.02182 0.0
C200 C 0.41648 0.60159 0.10744 0.0
C201 C 0.43005 0.5739 0.09183 0.0
C202 C 0.47695 0.50236 0.64018 0.0
C203 C 0.52423 0.57689 0.69122 0.0
O204 O 0.55338 0.4891 0.53249 0.0
O205 O 0.59079 0.5043 0.62937 0.0
O206 O 0.57581 0.53757 0.79508 0.0
O207 O 0.54617 0.50828 0.8716 0.0
O208 O 0.53326 0.4622 0.74091 0.0
O209 O 0.50847 0.47396 0.8965 0.0
O210 O 0.48978 0.54495 0.98516 0.0
O211 O 0.45391 0.52147 0.90313 0.0
O212 O 0.46946 0.49133 0.7329 0.0
O213 O 0.49727 0.52178 0.65309 0.0
O214 O 0.50987 0.56887 0.78065 0.0
O215 O 0.53728 0.5564 0.63135 0.0
H216 H 0.64032 0.47871 0.48689 0.0
H217 H 0.66432 0.43018 0.45225 0.0
H218 H 0.58192 0.38608 0.54257 0.0
H219 H 0.55842 0.43376 0.57391 0.0
H220 H 0.44701 0.58008 0.82341 0.0
H221 H 0.42309 0.62867 0.85003 0.0
H222 H 0.40975 0.60762 0.18897 0.0
H223 H 0.43286 0.5591 0.16035 0.0
C224 C 0.06488 0.5663 0.51503 0.0
Eu225 Eu 0.03625 0.5421 0.67438 0.0
C226 C 0.09346 0.58285 0.5165 0.0
C227 C 0.095 0.61259 0.48149 0.0
C228 C 0.12231 0.628 0.4835 0.0
C229 C 0.14858 0.61384 0.52009 0.0
C230 C 0.14641 0.58444 0.55925 0.0
C231 C 0.11934 0.56927 0.55769 0.0
C232 C 0.02729 0.57506 0.85925 0.0
C233 C 0.08348 0.51797 0.85254 0.0
C234 C 0.99027 0.46299 0.96764 0.0
Eu235 Eu 1.01568 0.49863 0.82856 0.0
C236 C 0.96199 0.44641 0.97298 0.0
C237 C 0.96169 0.41693 1.01054 0.0
C238 C 0.93452 0.40202 0.02603 0.0
C239 C 0.90721 0.41655 1.00473 0.0
C240 C 0.90802 0.44537 0.9591 0.0
C241 C 0.93506 0.46003 0.94313 0.0
C242 C 0.03787 0.47371 0.643 0.0
C243 C 0.96555 0.52806 0.66669 0.0
O244 O 0.06664 0.53781 0.53789 0.0
O245 O 0.04209 0.57937 0.56227 0.0
O246 O 0.03607 0.58543 0.76727 0.0
O247 O 1.02275 0.54713 0.85182 0.0
O248 O 0.08027 0.52661 0.75109 0.0
O249 O 0.05969 0.51002 0.90867 0.0
O250 O 0.98849 0.49206 0.97307 0.0
O251 O 1.00933 0.45396 0.89463 0.0
O252 O 0.04658 0.46681 0.73962 0.0
O253 O 1.01977 0.49547 0.64807 0.0
O254 O 0.97044 0.51094 0.75223 0.0
O255 O 0.98803 0.54189 0.61855 0.0
H256 H 0.07521 0.62375 0.45124 0.0
H257 H 0.12297 0.65066 0.45356 0.0
H258 H 0.16595 0.5722 0.58569 0.0
H259 H 0.11902 0.54651 0.58663 0.0
H260 H 0.98243 0.40583 0.03137 0.0
H261 H 0.93487 0.37974 0.05955 0.0
H262 H 0.88774 0.45779 0.94297 0.0
H263 H 0.93473 0.48261 0.91218 0.0
H264 H 0.13131 1.01263 0.23453 0.0
H265 H 0.21244 1.014 0.42241 0.0
H266 H 0.1833 1.02034 0.58889 0.0
H267 H 0.13473 1.02176 0.68348 0.0
H268 H 0.05317 1.01697 0.49965 0.0
H269 H 0.08209 1.01578 0.33037 0.0
C270 C 0.14259 1.01483 0.31182 0.0
C271 C 0.17425 1.01334 0.31536 0.0
C272 C 0.12545 1.01763 0.40841 0.0
C273 C 0.18832 1.0157 0.41672 0.0
C274 C 0.17158 1.01903 0.51224 0.0
C275 C 0.12321 1.02089 0.60627 0.0
C276 C 0.0916 1.02018 0.60478 0.0
C277 C 0.14014 1.01954 0.50943 0.0
C278 C 0.07724 1.01857 0.50372 0.0
C279 C 0.09392 1.01752 0.40669 0.0
H280 H 0.5274 0.14007 0.25326 0.0
H281 H 0.47238 0.20374 0.42431 0.0
H282 H 0.46793 0.16939 0.57718 0.0
H283 H 0.48029 0.12139 0.66452 0.0
H284 H 0.53486 0.05737 0.4931 0.0
H285 H 0.53855 0.09133 0.33861 0.0
C286 C 0.51468 0.14652 0.32454 0.0
C287 C 0.50108 0.17496 0.32829 0.0
C288 C 0.51195 0.12642 0.41211 0.0
C289 C 0.48384 0.18249 0.42 0.0
C290 C 0.48113 0.16271 0.50741 0.0
C291 C 0.49294 0.11482 0.59322 0.0
C292 C 0.50736 0.0868 0.59091 0.0
C293 C 0.4952 0.13467 0.50474 0.0
C294 C 0.52354 0.07872 0.49742 0.0
C295 C 0.52574 0.09823 0.40902 0.0
H296 H 0.37064 0.46807 0.33102 0.0
H297 H 0.36581 0.56331 0.29152 0.0
H298 H 0.41228 0.56917 0.39533 0.0
H299 H 0.45165 0.54715 0.51559 0.0
H300 H 0.45346 0.4519 0.56063 0.0
H301 H 0.41157 0.44606 0.43588 0.0
C302 C 0.38014 0.49009 0.3427 0.0
C303 C 0.36488 0.51515 0.30147 0.0
C304 C 0.4065 0.49327 0.40457 0.0
C305 C 0.37722 0.54357 0.32038 0.0
C306 C 0.40377 0.54692 0.38061 0.0
C307 C 0.4434 0.52511 0.49532 0.0
C308 C 0.45602 0.49988 0.5465 0.0
C309 C 0.41833 0.52196 0.4254 0.0
C310 C 0.44443 0.47157 0.52168 0.0
C311 C 0.42028 0.46824 0.45079 0.0
H312 H 0.0713 0.37097 0.30753 0.0
H313 H 0.97889 0.38199 0.21845 0.0
H314 H 0.97352 0.42254 0.35099 0.0
H315 H 0.99539 0.45549 0.49385 0.0
H316 H 0.087 0.44175 0.58968 0.0
H317 H 0.09251 0.40236 0.45356 0.0
C318 C 0.04993 0.3821 0.31777 0.0
C319 C 1.02563 0.37358 0.2517 0.0
C320 C 0.04698 0.40539 0.39503 0.0
C321 C 0.99804 0.3882 0.26708 0.0
C322 C 0.995 0.41152 0.34286 0.0
C323 C 1.01666 0.44417 0.4836 0.0
C324 C 0.04098 0.45208 0.55088 0.0
C325 C 1.0194 0.42059 0.40687 0.0
C326 C 0.06808 0.43647 0.53836 0.0
C327 C 0.07119 0.41375 0.46079 0.0
H328 H 0.88649 0.96356 0.26625 0.0
H329 H 0.84533 0.05027 0.24168 0.0
H330 H 0.88134 0.06446 0.10291 0.0
H331 H 0.92296 0.05137 0.97879 0.0
H332 H 0.96879 0.9676 0.01767 0.0
H333 H 0.93337 0.95345 0.16166 0.0
C334 C 0.8857 0.98578 0.23195 0.0
C335 C 0.86227 1.00536 0.26316 0.0
C336 C 0.90756 0.99437 0.15447 0.0
C337 C 0.86195 0.0341 0.21751 0.0
C338 C 0.88294 0.04244 0.13842 0.0
C339 C 0.92548 0.03018 0.02006 0.0
C340 C 0.94842 1.01047 0.98698 0.0
C341 C 0.90545 1.02257 0.10451 0.0
C342 C 0.9515 0.98323 0.04179 0.0
C343 C 0.93107 0.97509 0.1237 0.0
H344 H 0.50859 0.9028 0.36622 0.0
H345 H 0.53721 0.82864 0.16809 0.0
H346 H 0.54198 0.86163 1.01193 0.0
H347 H 0.53689 0.91147 0.92898 0.0
H348 H 0.50686 0.98552 0.1248 0.0
H349 H 0.50407 0.95294 0.28364 0.0
C350 C 0.51604 0.89392 0.28887 0.0
C351 C 0.52273 0.86321 0.28005 0.0
C352 C 0.51852 0.9131 0.19851 0.0
C353 C 0.53208 0.85206 0.17863 0.0
C354 C 0.53479 0.871 0.08876 0.0
C355 C 0.52992 0.92057 1.00654 0.0
C356 C 0.5221 0.95104 1.01455 0.0
C357 C 0.52796 0.90153 0.09746 0.0
C358 C 0.51301 0.96226 0.11595 0.0
C359 C 0.51135 0.94357 0.2069 0.0
H360 H 0.64203 0.50413 0.3175 0.0
H361 H 0.70503 0.56063 0.15125 0.0
H362 H 0.67026 0.56563 0.99954 0.0
H363 H 0.62191 0.55357 0.91215 0.0
H364 H 0.55872 0.49727 0.07909 0.0
H365 H 0.59327 0.49282 0.23209 0.0
C366 C 0.64827 0.5173 0.24765 0.0
C367 C 0.67661 0.53125 0.2453 0.0
C368 C 0.62791 0.52033 0.16077 0.0
C369 C 0.68385 0.54898 0.15496 0.0
C370 C 0.66381 0.552 0.06811 0.0
C371 C 0.61557 0.54047 0.98227 0.0
C372 C 0.58758 0.52578 0.98365 0.0
C373 C 0.63578 0.53775 0.06987 0.0
C374 C 0.57996 0.50887 0.07548 0.0
C375 C 0.59981 0.50622 0.16299 0.0
H376 H 0.98667 0.64957 0.27622 0.0
H377 H 0.04005 0.71649 0.11706 0.0
H378 H 0.05425 0.68043 0.97679 0.0
H379 H 0.0482 0.63125 0.89025 0.0
H380 H 0.99557 0.56343 0.04755 0.0
H381 H 0.98442 0.59819 0.19695 0.0
C382 C 1.00184 0.65608 0.21182 0.0
C383 C 1.01219 0.68593 0.20731 0.0
C384 C 1.0097 0.63509 0.13007 0.0
C385 C 0.03182 0.69383 0.12304 0.0
C386 C 0.03976 0.67321 0.04219 0.0
C387 C 0.03446 0.6239 0.95761 0.0
C388 C 1.02251 0.59469 0.95664 0.0
C389 C 0.0283 0.644 0.04335 0.0
C390 C 1.00503 0.58566 0.04558 0.0
C391 C 0.9986 0.60564 0.13103 0.0
H392 H 0.06375 0.27562 0.45298 0.0
H393 H 0.13504 0.23709 0.26511 0.0
H394 H 0.13053 0.19054 0.36568 0.0
H395 H 0.09229 0.157 0.44407 0.0
H396 H 1.01525 0.195 0.60441 0.0
H397 H 0.03493 0.24503 0.57598 0.0
C398 C 0.07938 0.25755 0.43755 0.0
C399 C 0.09708 0.25808 0.3433 0.0
C400 C 0.07392 0.22999 0.48644 0.0
C401 C 0.11947 0.23617 0.33248 0.0
C402 C 0.11624 0.20915 0.38773 0.0
C403 C 0.08042 0.17621 0.4762 0.0
C404 C 0.05191 0.1726 0.52267 0.0
C405 C 0.09118 0.20495 0.45483 0.0
C406 C 0.03683 0.19749 0.56534 0.0
C407 C 0.04815 0.22606 0.54962 0.0
H408 H 0.3047 0.11479 0.3387 0.0
H409 H 0.25395 0.04604 0.49592 0.0
H410 H 0.2947 0.03733 0.62233 0.0
H411 H 0.34941 0.03369 0.62775 0.0
H412 H 0.40186 0.09107 0.41985 0.0
H413 H 0.35771 0.11962 0.3761 0.0
C414 C 0.30214 0.09907 0.40484 0.0
C415 C 0.27797 0.07912 0.40217 0.0
C416 C 0.32744 0.09083 0.46429 0.0
C417 C 0.27337 0.06043 0.49193 0.0
C418 C 0.29709 0.05486 0.56261 0.0
C419 C 0.35126 0.05258 0.57347 0.0
C420 C 0.37875 0.05897 0.52263 0.0
C421 C 0.32525 0.06716 0.53946 0.0
C422 C 0.38107 0.08489 0.45877 0.0
C423 C 0.35562 0.10133 0.43291 0.0
H424 H 0.6185 0.30159 0.18661 0.0
H425 H 0.57247 0.2663 0.46609 0.0
H426 H 0.59989 0.29989 0.58339 0.0
H427 H 0.62024 0.35035 0.59495 0.0
H428 H 0.65539 0.39227 0.3077 0.0
H429 H 0.65016 0.34576 0.20747 0.0
C430 C 0.61517 0.30067 0.27367 0.0
C431 C 0.59213 0.28274 0.31634 0.0
C432 C 0.62866 0.32229 0.33964 0.0
C433 C 0.58935 0.28041 0.42971 0.0
C434 C 0.60477 0.30007 0.49729 0.0
C435 C 0.62781 0.34889 0.51145 0.0
C436 C 0.6367 0.37499 0.45728 0.0
C437 C 0.62193 0.32298 0.45161 0.0
C438 C 0.64775 0.37269 0.35081 0.0
C439 C 0.64432 0.34612 0.29278 0.0
H440 H 0.27482 0.59433 0.38767 0.0
H441 H 0.2416 0.63611 0.09797 0.0
H442 H 0.20102 0.65902 0.20081 0.0
H443 H 0.16651 0.64898 0.35086 0.0
H444 H 0.19983 0.60818 0.64318 0.0
H445 H 0.24935 0.60379 0.56195 0.0
C446 C 0.25987 0.60997 0.34823 0.0
C447 C 0.25982 0.61203 0.23461 0.0
C448 C 0.23595 0.6222 0.40742 0.0
C449 C 0.24115 0.63326 0.18514 0.0
C450 C 0.21765 0.64604 0.24372 0.0
C451 C 0.18478 0.6406 0.39971 0.0
C452 C 0.17889 0.62659 0.49948 0.0
C453 C 0.2132 0.63791 0.35213 0.0
C454 C 0.20334 0.61721 0.56282 0.0
C455 C 0.23176 0.6147 0.51651 0.0
H456 H 0.08233 0.77822 0.14281 0.0
H457 H 0.12878 0.79341 0.44293 0.0
H458 H 0.15856 0.83262 0.35872 0.0
H459 H 0.15592 0.87311 0.22555 0.0
H460 H 0.10352 0.86092 0.93563 0.0
H461 H 0.09303 0.80984 0.98615 0.0
C462 C 0.10027 0.78889 0.18758 0.0
C463 C 0.1027 0.78402 0.29939 0.0
C464 C 0.11571 0.8128 0.1406 0.0
C465 C 0.12623 0.79744 0.3569 0.0
C466 C 0.14291 0.8202 0.30912 0.0
C467 C 0.14327 0.85881 0.1714 0.0
C468 C 0.12925 0.87127 0.08024 0.0
C469 C 0.13553 0.82996 0.20473 0.0
C470 C 0.11404 0.85226 1.00799 0.0
C471 C 0.10761 0.82297 0.03757 0.0
H472 H 0.73913 0.10547 0.27665 0.0
H473 H 0.74183 0.02676 0.07644 0.0
H474 H 0.70986 0.05097 0.94224 0.0
H475 H 0.67026 0.0874 0.9159 0.0
H476 H 0.6637 0.16412 0.1262 0.0
H477 H 0.70942 0.14891 0.21892 0.0
C478 C 0.73361 0.09428 0.20123 0.0
C479 C 0.74197 0.06443 0.18611 0.0
C480 C 0.71444 0.10798 0.12696 0.0
C481 C 0.7352 0.04976 0.08894 0.0
C482 C 0.71686 0.06357 1.01278 0.0
C483 C 0.67961 0.10176 0.97801 0.0
C484 C 0.66287 0.12602 0.01812 0.0
C485 C 0.70463 0.09177 0.03524 0.0
C486 C 0.67575 0.14475 0.09663 0.0
C487 C 0.70164 0.13581 0.15066 0.0
H488 H 0.41784 0.73289 0.30898 0.0
H489 H 0.49094 0.75263 0.09223 0.0
H490 H 0.47203 0.71644 0.96179 0.0
H491 H 0.44502 0.66968 0.9406 0.0
H492 H 0.37396 0.64706 0.16323 0.0
H493 H 0.3814 0.69412 0.25927 0.0
C494 C 0.42883 0.73007 0.23111 0.0
C495 C 0.45615 0.74461 0.21135 0.0
C496 C 0.41869 0.70811 0.15908 0.0
C497 C 0.47001 0.74143 0.10967 0.0
C498 C 0.45941 0.72042 0.0356 0.0
C499 C 0.43008 0.67553 1.0067 0.0
C500 C 0.40981 0.65431 0.04759 0.0
C501 C 0.43523 0.70206 0.06372 0.0
C502 C 0.39049 0.66259 0.13269 0.0
C503 C 0.39481 0.68946 0.18787 0.0
H504 H 0.81029 0.42151 0.34111 0.0
H505 H 0.77042 0.47101 0.07887 0.0
H506 H 0.80154 0.44456 0.94904 0.0
H507 H 0.85089 0.42242 0.92042 0.0
H508 H 0.89813 0.385 0.19296 0.0
H509 H 0.8537 0.38985 0.3045 0.0
C510 C 0.80793 0.42596 0.25516 0.0
C511 C 0.78925 0.44936 0.22071 0.0
C512 C 0.82808 0.41296 0.18189 0.0
C513 C 0.78509 0.45367 0.10877 0.0
C514 C 0.80326 0.43877 0.03404 0.0
C515 C 0.85124 0.41469 1.00365 0.0
C516 C 0.87842 0.40524 0.04977 0.0
C517 C 0.8267 0.4207 0.07109 0.0
C518 C 0.87793 0.3933 0.15525 0.0
C519 C 0.85252 0.39651 0.22022 0.0
H520 H 0.04348 0.19094 0.19326 0.0
H521 H 0.02916 0.23694 0.89164 0.0
H522 H 1.021 0.18873 0.80019 0.0
H523 H 1.02156 0.13265 0.80356 0.0
H524 H 0.03819 0.08845 0.1084 0.0
H525 H 0.04245 0.13647 0.19877 0.0
C526 C 0.03852 0.19061 0.10723 0.0
C527 C 0.0373 0.21791 0.04966 0.0
C528 C 0.03476 0.16281 0.05475 0.0
C529 C 0.03017 0.21662 0.9387 0.0
C530 C 1.02584 0.18889 0.88603 0.0
C531 C 1.02606 0.13347 0.8898 0.0
C532 C 0.02972 0.10638 0.94814 0.0
C533 C 0.0287 0.16169 0.94264 0.0
C534 C 0.03546 0.10841 0.06017 0.0
C535 C 0.03783 0.13606 0.11255 0.0
H536 H 0.33549 0.08055 0.08609 0.0
H537 H 0.30104 0.99424 0.99519 0.0
H538 H 0.3485 0.98305 0.90197 0.0
H539 H 0.40244 0.99607 0.86192 0.0
H540 H 0.43698 0.07962 0.98162 0.0
H541 H 0.38755 0.09298 0.05076 0.0
C542 C 0.33816 0.05897 0.04748 0.0
C543 C 0.31434 0.03806 0.05111 0.0
C544 C 0.36611 0.05198 1.00012 0.0
C545 C 0.31851 1.01095 0.99491 0.0
C546 C 0.34596 1.00438 0.9424 0.0
C547 C 0.399 1.01726 0.90254 0.0
C548 C 0.42364 0.03688 0.9163 0.0
C549 C 0.37033 1.02441 0.94683 0.0
C550 C 0.4187 0.06408 0.97012 0.0
C551 C 0.39031 0.07177 1.00959 0.0
H552 H 0.55387 0.31998 0.94992 0.0
H553 H 0.47824 0.32982 0.16392 0.0
H554 H 0.46884 0.37993 0.09174 0.0
H555 H 0.48537 0.42313 0.97944 0.0
H556 H 0.56083 0.41198 0.76431 0.0
H557 H 0.56702 0.36068 0.82486 0.0
C558 C 0.53482 0.33279 0.97866 0.0
C559 C 0.51665 0.32093 0.06185 0.0
C560 C 0.52987 0.36177 0.93781 0.0
C561 C 0.49226 0.33804 0.0988 0.0
C562 C 0.48717 0.36694 0.0585 0.0
C563 C 0.50303 0.4094 0.94531 0.0
C564 C 0.5227 0.42173 0.86735 0.0
C565 C 0.50634 0.37942 0.98007 0.0
C566 C 0.54524 0.40332 0.8236 0.0
C567 C 0.54888 0.37386 0.85859 0.0
H568 H 0.19856 0.52436 0.15346 0.0
H569 H 0.24304 0.53477 0.8463 0.0
H570 H 0.19525 0.52751 0.7516 0.0
H571 H 0.13961 0.52291 0.75773 0.0
H572 H 0.09596 0.51281 0.06794 0.0
H573 H 0.14421 0.51524 0.15899 0.0
C574 C 0.19795 0.52394 0.06558 0.0
C575 C 0.22459 0.52938 1.00708 0.0
C576 C 0.17023 0.52048 1.01208 0.0
C577 C 0.22317 0.52975 0.89328 0.0
C578 C 0.19567 0.52608 0.83924 0.0
C579 C 0.14064 0.52106 0.84517 0.0
C580 C 0.11378 0.51791 0.9054 0.0
C581 C 0.16885 0.52223 0.89788 0.0
C582 C 0.11592 0.51529 0.01881 0.0
C583 C 0.14365 0.51666 0.07135 0.0
H584 H 1.01194 0.84708 0.39264 0.0
H585 H 0.03139 0.8009 0.68933 0.0
H586 H 0.02645 0.84779 0.79129 0.0
H587 H 1.02131 0.90333 0.79335 0.0
H588 H 1.00101 0.9486 0.49405 0.0
H589 H 1.00154 0.90121 0.39728 0.0
C590 C 1.01395 0.84709 0.48022 0.0
C591 C 1.02121 0.82015 0.53336 0.0
C592 C 1.01158 0.87435 0.53804 0.0
C593 C 1.02485 0.82093 0.64655 0.0
C594 C 1.0225 0.84795 0.7047 0.0
C595 C 1.0167 0.90284 0.70717 0.0
C596 C 1.01125 0.93 0.65181 0.0
C597 C 1.01664 0.87504 0.65103 0.0
C598 C 1.0052 0.92846 0.53987 0.0
C599 C 1.00553 0.90119 0.48388 0.0
H600 H 0.69074 0.98796 0.42648 0.0
H601 H 0.73102 0.04822 0.65498 0.0
H602 H 0.6844 0.04909 0.7615 0.0
H603 H 0.62993 0.03599 0.78058 0.0
H604 H 0.59122 0.97541 0.547 0.0
H605 H 0.63888 0.97142 0.45389 0.0
C606 C 0.68969 1.00046 0.50179 0.0
C607 C 0.71481 1.01742 0.53363 0.0
C608 C 0.66258 1.00125 0.56147 0.0
C609 C 0.71254 0.03423 0.62986 0.0
C610 C 0.68561 0.03505 0.69011 0.0
C611 C 0.63197 1.02163 0.71013 0.0
C612 C 0.60635 1.00622 0.67147 0.0
C613 C 0.66009 1.01919 0.65545 0.0
C614 C 0.60997 0.98779 0.57952 0.0
C615 C 0.63747 0.98538 0.52556 0.0
H616 H 0.54268 0.69962 0.44562 0.0
H617 H 0.47157 0.72764 0.65804 0.0
H618 H 0.47336 0.67942 0.7521 0.0
H619 H 0.49166 0.62667 0.75993 0.0
H620 H 0.5613 0.5993 0.53746 0.0
H621 H 0.56347 0.64919 0.46248 0.0
C622 C 0.52839 0.69555 0.51525 0.0
C623 C 0.50768 0.71759 0.54685 0.0
C624 C 0.52874 0.66731 0.56577 0.0
C625 C 0.48837 0.71145 0.63426 0.0
C626 C 0.48909 0.68363 0.68695 0.0
C627 C 0.50753 0.63173 0.69599 0.0
C628 C 0.52605 0.60876 0.65424 0.0
C629 C 0.50861 0.66094 0.65136 0.0
C630 C 0.54643 0.61605 0.571 0.0
C631 C 0.54784 0.6448 0.52784 0.0
H632 H 0.84824 0.54089 0.37823 0.0
H633 H 0.80886 0.494 0.64656 0.0
H634 H 0.85653 0.49621 0.7448 0.0
H635 H 0.91115 0.50751 0.74695 0.0
H636 H 0.94993 0.55422 0.4753 0.0
H637 H 0.90132 0.55605 0.38714 0.0
C638 C 0.84983 0.53217 0.45992 0.0
C639 C 0.82463 0.51812 0.50623 0.0
C640 C 0.87763 0.5329 0.51477 0.0
C641 C 0.82751 0.50579 0.61042 0.0
C642 C 0.85499 0.50667 0.66594 0.0
C643 C 0.90897 0.51833 0.66895 0.0
C644 C 0.93467 0.53052 0.6183 0.0
C645 C 0.8805 0.51951 0.61786 0.0
C646 C 0.93095 0.54454 0.51706 0.0
C647 C 0.90297 0.54564 0.46606 0.0
loop_
_geom_bond_atom_site_label_1
_geom_bond_atom_site_label_2
_geom_bond_distance
_geom_bond_site_symmetry_2
_ccdc_geom_bond_type
H0 C7 0.929 . S
H1 C10 0.930 . S
H2 C12 0.929 . S
H3 C4 0.969 . S
C4 H3 0.969 . S
C4 O5 1.550 . S
C4 H6 0.973 . S
O5 C4 1.550 . S
O5 C11 1.412 . S
H6 C4 0.973 . S
C7 H0 0.929 . S
C7 C8 1.400 . S
C7 C9 1.364 . S
C8 C7 1.400 . S
C8 C12 1.377 . S
C9 C7 1.364 . S
C9 C10 1.374 . S
C10 H1 0.930 . S
C10 C9 1.374 . S
C10 C11 1.383 . S
C11 O5 1.412 . S
C11 C10 1.383 . S
C11 C12 1.394 . S
C12 H2 0.929 . S
C12 C8 1.377 . S
C12 C11 1.394 . S
H13 C20 0.928 1_655 S
H14 C23 0.931 . S
H15 C25 0.928 1_655 S
H16 C17 0.969 . S
C17 H16 0.969 . S
C17 O18 1.550 1_455 S
C17 H19 0.973 1_455 S
O18 C17 1.550 1_655 S
O18 C24 1.404 1_655 S
H19 C17 0.973 1_655 S
C20 H13 0.928 1_455 S
C20 C21 1.399 . S
C20 C22 1.364 . S
C21 C20 1.399 . S
C21 C25 1.377 . S
C22 C20 1.364 . S
C22 C23 1.374 1_455 S
C23 H14 0.931 . S
C23 C22 1.374 1_655 S
C23 C24 1.382 1_655 S
C24 O18 1.404 1_455 S
C24 C23 1.382 1_455 S
C24 C25 1.394 . S
C25 H15 0.928 1_455 S
C25 C21 1.377 . S
C25 C24 1.394 . S
H26 C33 0.928 1_565 S
H27 C36 0.931 . S
H28 C38 0.929 1_565 S
H29 C30 0.969 . S
C30 H29 0.969 . S
C30 O31 1.550 1_545 S
C30 H32 0.973 1_545 S
O31 C30 1.550 1_565 S
O31 C37 1.404 1_565 S
H32 C30 0.973 1_565 S
C33 H26 0.928 1_545 S
C33 C34 1.399 . S
C33 C35 1.364 . S
C34 C33 1.399 . S
C34 C38 1.377 . S
C35 C33 1.364 . S
C35 C36 1.374 1_545 S
C36 H27 0.931 . S
C36 C35 1.374 1_565 S
C36 C37 1.382 1_565 S
C37 O31 1.404 1_545 S
C37 C36 1.382 1_545 S
C37 C38 1.394 . S
C38 H28 0.929 1_545 S
C38 C34 1.377 . S
C38 C37 1.394 . S
H39 C46 0.929 . S
H40 C49 0.930 . S
H41 C51 0.929 . S
H42 C43 0.969 . S
C43 H42 0.969 . S
C43 O44 1.550 . S
C43 H45 0.973 . S
O44 C43 1.550 . S
O44 C50 1.412 . S
H45 C43 0.973 . S
C46 H39 0.929 . S
C46 C47 1.400 . S
C46 C48 1.364 . S
C47 C46 1.400 . S
C47 C51 1.377 . S
C48 C46 1.364 . S
C48 C49 1.374 . S
C49 H40 0.930 . S
C49 C48 1.374 . S
C49 C50 1.383 . S
C50 O44 1.412 . S
C50 C49 1.383 . S
C50 C51 1.394 . S
C51 H41 0.929 . S
C51 C47 1.377 . S
C51 C50 1.394 . S
H52 C59 0.929 . S
H53 C62 0.930 . S
H54 C64 0.929 . S
H55 C56 0.969 . S
C56 H55 0.969 . S
C56 O57 1.550 . S
C56 H58 0.973 . S
O57 C56 1.550 . S
O57 C63 1.412 . S
H58 C56 0.973 . S
C59 H52 0.929 . S
C59 C60 1.400 1_554 S
C59 C61 1.364 . S
C60 C59 1.400 1_556 S
C60 C64 1.377 . S
C61 C59 1.364 . S
C61 C62 1.374 . S
C62 H53 0.930 . S
C62 C61 1.374 . S
C62 C63 1.383 . S
C63 O57 1.412 . S
C63 C62 1.383 . S
C63 C64 1.394 1_554 S
C64 H54 0.929 . S
C64 C60 1.377 . S
C64 C63 1.394 1_556 S
H65 C72 0.928 1_655 S
H66 C75 0.930 . S
H67 C77 0.928 1_655 S
H68 C69 0.969 . S
C69 H68 0.969 . S
C69 O70 1.550 1_455 S
C69 H71 0.973 1_455 S
O70 C69 1.550 1_655 S
O70 C76 1.402 1_655 S
H71 C69 0.973 1_655 S
C72 H65 0.928 1_455 S
C72 C73 1.400 1_554 S
C72 C74 1.364 . S
C73 C72 1.400 1_556 S
C73 C77 1.377 . S
C74 C72 1.364 . S
C74 C75 1.374 1_455 S
C75 H66 0.930 . S
C75 C74 1.374 1_655 S
C75 C76 1.382 1_655 S
C76 O70 1.402 1_455 S
C76 C75 1.382 1_455 S
C76 C77 1.394 1_554 S
C77 H67 0.928 1_455 S
C77 C73 1.377 . S
C77 C76 1.394 1_556 S
H78 C85 0.928 1_565 S
H79 C88 0.930 . S
H80 C90 0.928 1_565 S
H81 C82 0.969 . S
C82 H81 0.969 . S
C82 O83 1.550 1_545 S
C82 H84 0.973 1_545 S
O83 C82 1.550 1_565 S
O83 C89 1.402 1_565 S
H84 C82 0.973 1_565 S
C85 H78 0.928 1_545 S
C85 C86 1.400 1_554 S
C85 C87 1.364 . S
C86 C85 1.400 1_556 S
C86 C90 1.377 . S
C87 C85 1.364 . S
C87 C88 1.374 1_545 S
C88 H79 0.930 . S
C88 C87 1.374 1_565 S
C88 C89 1.382 1_565 S
C89 O83 1.402 1_545 S
C89 C88 1.382 1_545 S
C89 C90 1.394 1_554 S
C90 H80 0.928 1_545 S
C90 C86 1.377 . S
C90 C89 1.394 1_556 S
H91 C98 0.929 . S
H92 C101 0.930 . S
H93 C103 0.929 . S
H94 C95 0.969 . S
C95 H94 0.969 . S
C95 O96 1.550 . S
C95 H97 0.973 . S
O96 C95 1.550 . S
O96 C102 1.412 . S
H97 C95 0.973 . S
C98 H91 0.929 . S
C98 C99 1.400 1_554 S
C98 C100 1.364 . S
C99 C98 1.400 1_556 S
C99 C103 1.377 . S
C100 C98 1.364 . S
C100 C101 1.374 . S
C101 H92 0.930 . S
C101 C100 1.374 . S
C101 C102 1.383 . S
C102 O96 1.412 . S
C102 C101 1.383 . S
C102 C103 1.394 1_554 S
C103 H93 0.929 . S
C103 C99 1.377 . S
C103 C102 1.394 1_556 S
C104 Eu105 2.835 . S
C104 C106 1.500 . S
C104 O124 1.257 . S
C104 O125 1.260 . S
Eu105 C104 2.835 . S
Eu105 O124 2.473 . S
Eu105 O125 2.480 . S
Eu105 O126 2.430 . S
Eu105 O127 2.670 1_545 S
Eu105 O128 2.394 . S
Eu105 O133 2.355 1_655 S
Eu105 O135 2.374 1_545 S
C106 C104 1.500 . S
C106 C107 1.377 . S
C106 C111 1.377 . S
C107 C106 1.377 . S
C107 C108 1.395 . S
C107 H136 0.931 . S
C108 C107 1.395 . S
C108 C109 1.383 . S
C108 H137 0.931 . S
C109 C108 1.383 . S
C109 C110 1.394 . S
C110 C109 1.394 . S
C110 C111 1.378 . S
C110 H138 0.931 1_655 S
C111 C106 1.377 . S
C111 C110 1.378 . S
C111 H139 0.931 1_655 S
C112 O126 1.259 . S
C112 O127 1.270 1_545 S
C113 O128 1.251 1_455 S
C113 O129 1.251 . S
C114 Eu115 2.835 . S
C114 C116 1.500 1_556 S
C114 O130 1.257 . S
C114 O131 1.260 . S
Eu115 C114 2.835 . S
Eu115 O127 2.355 1_455 S
Eu115 O129 2.374 1_565 S
Eu115 O130 2.473 . S
Eu115 O131 2.480 . S
Eu115 O132 2.430 . S
Eu115 O133 2.670 1_565 S
Eu115 O134 2.394 . S
C116 C114 1.500 1_554 S
C116 C117 1.377 . S
C116 C121 1.377 . S
C117 C116 1.377 . S
C117 C118 1.395 . S
C117 H140 0.931 . S
C118 C117 1.395 . S
C118 C119 1.383 . S
C118 H141 0.931 . S
C119 C118 1.383 . S
C119 C120 1.394 . S
C120 C119 1.394 . S
C120 C121 1.378 . S
C120 H142 0.931 1_455 S
C121 C116 1.377 . S
C121 C120 1.378 . S
C121 H143 0.931 1_455 S
C122 O132 1.259 . S
C122 O133 1.270 1_565 S
C123 O134 1.251 1_655 S
C123 O135 1.251 . S
O124 C104 1.257 . S
O124 Eu105 2.473 . S
O125 C104 1.260 . S
O125 Eu105 2.480 . S
O126 Eu105 2.430 . S
O126 C112 1.259 . S
O127 Eu105 2.670 1_565 S
O127 C112 1.270 1_565 S
O127 Eu115 2.355 1_655 S
O128 Eu105 2.394 . S
O128 C113 1.251 1_655 S
O129 C113 1.251 . S
O129 Eu115 2.374 1_545 S
O130 C114 1.257 . S
O130 Eu115 2.473 . S
O131 C114 1.260 . S
O131 Eu115 2.480 . S
O132 Eu115 2.430 . S
O132 C122 1.259 . S
O133 Eu105 2.355 1_455 S
O133 Eu115 2.670 1_545 S
O133 C122 1.270 1_545 S
O134 Eu115 2.394 . S
O134 C123 1.251 1_455 S
O135 Eu105 2.374 1_565 S
O135 C123 1.251 . S
H136 C107 0.931 . S
H137 C108 0.931 . S
H138 C110 0.931 1_455 S
H139 C111 0.931 1_455 S
H140 C117 0.931 . S
H141 C118 0.931 . S
H142 C120 0.931 1_655 S
H143 C121 0.931 1_655 S
C144 Eu145 2.835 . S
C144 C146 1.500 . S
C144 O164 1.257 . S
C144 O165 1.260 . S
Eu145 C144 2.835 . S
Eu145 O164 2.473 . S
Eu145 O165 2.480 . S
Eu145 O166 2.430 . S
Eu145 O167 2.670 . S
Eu145 O168 2.394 . S
Eu145 O173 2.355 1_565 S
Eu145 O175 2.374 . S
C146 C144 1.500 . S
C146 C147 1.377 . S
C146 C151 1.377 . S
C147 C146 1.377 . S
C147 C148 1.395 . S
C147 H176 0.931 . S
C148 C147 1.395 . S
C148 C149 1.383 . S
C148 H177 0.931 . S
C149 C148 1.383 . S
C149 C150 1.394 . S
C150 C149 1.394 . S
C150 C151 1.378 . S
C150 H178 0.931 1_565 S
C151 C146 1.377 . S
C151 C150 1.378 . S
C151 H179 0.931 1_565 S
C152 O166 1.259 . S
C152 O167 1.270 . S
C153 O168 1.251 1_545 S
C153 O169 1.251 . S
C154 Eu155 2.835 . S
C154 C156 1.500 1_556 S
C154 O170 1.257 . S
C154 O171 1.260 . S
Eu155 C154 2.835 . S
Eu155 O167 2.355 1_545 S
Eu155 O169 2.374 . S
Eu155 O170 2.473 . S
Eu155 O171 2.480 . S
Eu155 O172 2.430 . S
Eu155 O173 2.670 . S
Eu155 O174 2.394 . S
C156 C154 1.500 1_554 S
C156 C157 1.377 . S
C156 C161 1.377 . S
C157 C156 1.377 . S
C157 C158 1.395 . S
C157 H180 0.931 . S
C158 C157 1.395 . S
C158 C159 1.383 . S
C158 H181 0.931 . S
C159 C158 1.383 . S
C159 C160 1.394 . S
C160 C159 1.394 . S
C160 C161 1.378 . S
C160 H182 0.931 1_545 S
C161 C156 1.377 . S
C161 C160 1.378 . S
C161 H183 0.931 1_545 S
C162 O172 1.259 . S
C162 O173 1.270 . S
C163 O174 1.251 1_565 S
C163 O175 1.251 . S
O164 C144 1.257 . S
O164 Eu145 2.473 . S
O165 C144 1.260 . S
O165 Eu145 2.480 . S
O166 Eu145 2.430 . S
O166 C152 1.259 . S
O167 Eu145 2.670 . S
O167 C152 1.270 . S
O167 Eu155 2.355 1_565 S
O168 Eu145 2.394 . S
O168 C153 1.251 1_565 S
O169 C153 1.251 . S
O169 Eu155 2.374 . S
O170 C154 1.257 . S
O170 Eu155 2.473 . S
O171 C154 1.260 . S
O171 Eu155 2.480 . S
O172 Eu155 2.430 . S
O172 C162 1.259 . S
O173 Eu145 2.355 1_545 S
O173 Eu155 2.670 . S
O173 C162 1.270 . S
O174 Eu155 2.394 . S
O174 C163 1.251 1_545 S
O175 Eu145 2.374 . S
O175 C163 1.251 . S
H176 C147 0.931 . S
H177 C148 0.931 . S
H178 C150 0.931 1_545 S
H179 C151 0.931 1_545 S
H180 C157 0.931 . S
H181 C158 0.931 . S
H182 C160 0.931 1_565 S
H183 C161 0.931 1_565 S
C184 Eu185 2.835 . S
C184 C186 1.500 . S
C184 O204 1.257 . S
C184 O205 1.260 . S
Eu185 C184 2.835 . S
Eu185 O204 2.473 . S
Eu185 O205 2.480 . S
Eu185 O206 2.430 . S
Eu185 O207 2.670 . S
Eu185 O208 2.394 . S
Eu185 O213 2.355 . S
Eu185 O215 2.374 . S
C186 C184 1.500 . S
C186 C187 1.377 . S
C186 C191 1.377 . S
C187 C186 1.377 . S
C187 C188 1.395 . S
C187 H216 0.931 . S
C188 C187 1.395 . S
C188 C189 1.383 . S
C188 H217 0.931 . S
C189 C188 1.383 . S
C189 C190 1.394 . S
C190 C189 1.394 . S
C190 C191 1.378 . S
C190 H218 0.931 . S
C191 C186 1.377 . S
C191 C190 1.378 . S
C191 H219 0.931 . S
C192 O206 1.259 . S
C192 O207 1.270 . S
C193 O208 1.251 . S
C193 O209 1.251 . S
C194 Eu195 2.835 . S
C194 C196 1.500 1_556 S
C194 O210 1.257 . S
C194 O211 1.260 . S
Eu195 C194 2.835 . S
Eu195 O207 2.355 . S
Eu195 O209 2.374 . S
Eu195 O210 2.473 . S
Eu195 O211 2.480 . S
Eu195 O212 2.430 . S
Eu195 O213 2.670 . S
Eu195 O214 2.394 . S
C196 C194 1.500 1_554 S
C196 C197 1.377 . S
C196 C201 1.377 . S
C197 C196 1.377 . S
C197 C198 1.395 . S
C197 H220 0.931 . S
C198 C197 1.395 . S
C198 C199 1.383 . S
C198 H221 0.931 . S
C199 C198 1.383 . S
C199 C200 1.394 . S
C200 C199 1.394 . S
C200 C201 1.378 . S
C200 H222 0.931 . S
C201 C196 1.377 . S
C201 C200 1.378 . S
C201 H223 0.931 . S
C202 O212 1.259 . S
C202 O213 1.270 . S
C203 O214 1.251 . S
C203 O215 1.251 . S
O204 C184 1.257 . S
O204 Eu185 2.473 . S
O205 C184 1.260 . S
O205 Eu185 2.480 . S
O206 Eu185 2.430 . S
O206 C192 1.259 . S
O207 Eu185 2.670 . S
O207 C192 1.270 . S
O207 Eu195 2.355 . S
O208 Eu185 2.394 . S
O208 C193 1.251 . S
O209 C193 1.251 . S
O209 Eu195 2.374 . S
O210 C194 1.257 . S
O210 Eu195 2.473 . S
O211 C194 1.260 . S
O211 Eu195 2.480 . S
O212 Eu195 2.430 . S
O212 C202 1.259 . S
O213 Eu185 2.355 . S
O213 Eu195 2.670 . S
O213 C202 1.270 . S
O214 Eu195 2.394 . S
O214 C203 1.251 . S
O215 Eu185 2.374 . S
O215 C203 1.251 . S
H216 C187 0.931 . S
H217 C188 0.931 . S
H218 C190 0.931 . S
H219 C191 0.931 . S
H220 C197 0.931 . S
H221 C198 0.931 . S
H222 C200 0.931 . S
H223 C201 0.931 . S
C224 Eu225 2.835 . S
C224 C226 1.500 . S
C224 O244 1.257 . S
C224 O245 1.260 . S
Eu225 C224 2.835 . S
Eu225 O244 2.473 . S
Eu225 O245 2.480 . S
Eu225 O246 2.430 . S
Eu225 O247 2.670 1_455 S
Eu225 O248 2.394 . S
Eu225 O253 2.355 . S
Eu225 O255 2.374 1_455 S
C226 C224 1.500 . S
C226 C227 1.377 . S
C226 C231 1.377 . S
C227 C226 1.377 . S
C227 C228 1.395 . S
C227 H256 0.931 . S
C228 C227 1.395 . S
C228 C229 1.383 . S
C228 H257 0.931 . S
C229 C228 1.383 . S
C229 C230 1.394 . S
C230 C229 1.394 . S
C230 C231 1.378 . S
C230 H258 0.931 . S
C231 C226 1.377 . S
C231 C230 1.378 . S
C231 H259 0.931 . S
C232 O246 1.266 . S
C232 O247 1.265 1_455 S
C233 O248 1.251 . S
C233 O249 1.251 . S
C234 Eu235 2.835 . S
C234 C236 1.500 1_556 S
C234 O250 1.257 . S
C234 O251 1.260 . S
Eu235 C234 2.835 . S
Eu235 O247 2.355 . S
Eu235 O249 2.374 1_655 S
Eu235 O250 2.473 . S
Eu235 O251 2.480 . S
Eu235 O252 2.430 . S
Eu235 O253 2.670 1_655 S
Eu235 O254 2.394 . S
C236 C234 1.500 1_554 S
C236 C237 1.377 . S
C236 C241 1.377 . S
C237 C236 1.377 . S
C237 C238 1.395 . S
C237 H260 0.931 . S
C238 C237 1.395 . S
C238 C239 1.383 . S
C238 H261 0.931 . S
C239 C238 1.383 . S
C239 C240 1.394 . S
C240 C239 1.394 . S
C240 C241 1.378 . S
C240 H262 0.931 . S
C241 C236 1.377 . S
C241 C240 1.378 . S
C241 H263 0.931 . S
C242 O252 1.262 . S
C242 O253 1.268 1_655 S
C243 O254 1.251 . S
C243 O255 1.251 . S
O244 C224 1.257 . S
O244 Eu225 2.473 . S
O245 C224 1.260 . S
O245 Eu225 2.480 . S
O246 Eu225 2.430 . S
O246 C232 1.266 . S
O247 Eu225 2.670 1_655 S
O247 C232 1.265 1_655 S
O247 Eu235 2.355 . S
O248 Eu225 2.394 . S
O248 C233 1.251 . S
O249 C233 1.251 . S
O249 Eu235 2.374 1_455 S
O250 C234 1.257 . S
O250 Eu235 2.473 . S
O251 C234 1.260 . S
O251 Eu235 2.480 . S
O252 Eu235 2.430 . S
O252 C242 1.262 . S
O253 Eu225 2.355 . S
O253 Eu235 2.670 1_455 S
O253 C242 1.268 1_455 S
O254 Eu235 2.394 . S
O254 C243 1.251 . S
O255 Eu225 2.374 1_655 S
O255 C243 1.251 . S
H256 C227 0.931 . S
H257 C228 0.931 . S
H258 C230 0.931 . S
H259 C231 0.931 . S
H260 C237 0.931 . S
H261 C238 0.931 . S
H262 C240 0.931 . S
H263 C241 0.931 . S
H264 C270 0.930 . S
H265 C273 0.930 . S
H266 C274 0.930 . S
H267 C275 0.930 . S
H268 C278 0.930 . S
H269 C279 0.930 . S
C270 H264 0.930 . S
C270 C271 1.355 1_565 S
C270 C272 1.415 . S
C271 C270 1.355 1_545 S
C271 C273 1.419 . S
C272 C270 1.415 . S
C272 C277 1.425 1_565 S
C272 C279 1.409 . S
C273 H265 0.930 . S
C273 C271 1.419 . S
C273 C274 1.362 . S
C274 H266 0.930 . S
C274 C273 1.362 . S
C274 C277 1.409 . S
C275 H267 0.930 . S
C275 C276 1.355 1_545 S
C275 C277 1.415 . S
C276 C275 1.355 1_565 S
C276 C278 1.419 . S
C277 C272 1.425 1_545 S
C277 C274 1.409 . S
C277 C275 1.415 . S
C278 H268 0.930 . S
C278 C276 1.419 . S
C278 C279 1.362 . S
C279 H269 0.930 . S
C279 C272 1.409 . S
C279 C278 1.362 . S
H280 C286 0.930 . S
H281 C289 0.930 . S
H282 C290 0.930 . S
H283 C291 0.930 . S
H284 C294 0.930 . S
H285 C295 0.930 . S
C286 H280 0.930 . S
C286 C287 1.355 . S
C286 C288 1.415 . S
C287 C286 1.355 . S
C287 C289 1.419 . S
C288 C286 1.415 . S
C288 C293 1.425 . S
C288 C295 1.409 . S
C289 H281 0.930 . S
C289 C287 1.419 . S
C289 C290 1.362 . S
C290 H282 0.930 . S
C290 C289 1.362 . S
C290 C293 1.409 . S
C291 H283 0.930 . S
C291 C292 1.355 . S
C291 C293 1.415 . S
C292 C291 1.355 . S
C292 C294 1.419 . S
C293 C288 1.425 . S
C293 C290 1.409 . S
C293 C291 1.415 . S
C294 H284 0.930 . S
C294 C292 1.419 . S
C294 C295 1.362 . S
C295 H285 0.930 . S
C295 C288 1.409 . S
C295 C294 1.362 . S
H296 C302 0.930 . S
H297 C305 0.930 . S
H298 C306 0.930 . S
H299 C307 0.930 . S
H300 C310 0.930 . S
H301 C311 0.930 . S
C302 H296 0.930 . S
C302 C303 1.355 . S
C302 C304 1.415 . S
C303 C302 1.355 . S
C303 C305 1.419 . S
C304 C302 1.415 . S
C304 C309 1.425 . S
C304 C311 1.409 . S
C305 H297 0.930 . S
C305 C303 1.419 . S
C305 C306 1.362 . S
C306 H298 0.930 . S
C306 C305 1.362 . S
C306 C309 1.409 . S
C307 H299 0.930 . S
C307 C308 1.355 . S
C307 C309 1.415 . S
C308 C307 1.355 . S
C308 C310 1.419 . S
C309 C304 1.425 . S
C309 C306 1.409 . S
C309 C307 1.415 . S
C310 H300 0.930 . S
C310 C308 1.419 . S
C310 C311 1.362 . S
C311 H301 0.930 . S
C311 C304 1.409 . S
C311 C310 1.362 . S
H312 C318 0.929 . S
H313 C321 0.930 . S
H314 C322 0.930 . S
H315 C323 0.930 . S
H316 C326 0.930 . S
H317 C327 0.930 . S
C318 H312 0.929 . S
C318 C319 1.354 . S
C318 C320 1.414 1_655 S
C319 C318 1.354 . S
C319 C321 1.420 . S
C320 C318 1.414 1_455 S
C320 C325 1.425 . S
C320 C327 1.411 . S
C321 H313 0.930 . S
C321 C319 1.420 . S
C321 C322 1.362 . S
C322 H314 0.930 . S
C322 C321 1.362 . S
C322 C325 1.408 1_655 S
C323 H315 0.930 . S
C323 C324 1.355 . S
C323 C325 1.415 . S
C324 C323 1.355 . S
C324 C326 1.419 . S
C325 C320 1.425 . S
C325 C322 1.408 1_455 S
C325 C323 1.415 . S
C326 H316 0.930 . S
C326 C324 1.419 . S
C326 C327 1.362 . S
C327 H317 0.930 . S
C327 C320 1.411 . S
C327 C326 1.362 . S
H328 C334 0.930 . S
H329 C337 0.930 . S
H330 C338 0.930 . S
H331 C339 0.930 1_556 S
H332 C342 0.930 . S
H333 C343 0.930 . S
C334 H328 0.930 . S
C334 C335 1.355 1_565 S
C334 C336 1.415 . S
C335 C334 1.355 1_545 S
C335 C337 1.419 . S
C336 C334 1.415 . S
C336 C341 1.425 1_565 S
C336 C343 1.409 . S
C337 H329 0.930 . S
C337 C335 1.419 . S
C337 C338 1.362 . S
C338 H330 0.930 . S
C338 C337 1.362 . S
C338 C341 1.409 . S
C339 H331 0.930 1_554 S
C339 C340 1.355 1_544 S
C339 C341 1.415 . S
C340 C339 1.355 1_566 S
C340 C342 1.419 1_556 S
C341 C336 1.425 1_545 S
C341 C338 1.409 . S
C341 C339 1.415 . S
C342 H332 0.930 . S
C342 C340 1.419 1_554 S
C342 C343 1.362 . S
C343 H333 0.930 . S
C343 C336 1.409 . S
C343 C342 1.362 . S
H344 C350 0.930 . S
H345 C353 0.930 . S
H346 C354 0.930 . S
H347 C355 0.930 . S
H348 C358 0.930 . S
H349 C359 0.930 . S
C350 H344 0.930 . S
C350 C351 1.355 . S
C350 C352 1.415 . S
C351 C350 1.355 . S
C351 C353 1.419 . S
C352 C350 1.415 . S
C352 C357 1.425 . S
C352 C359 1.409 . S
C353 H345 0.930 . S
C353 C351 1.419 . S
C353 C354 1.362 . S
C354 H346 0.930 . S
C354 C353 1.362 . S
C354 C357 1.409 . S
C355 H347 0.930 . S
C355 C356 1.355 1_554 S
C355 C357 1.415 . S
C356 C355 1.355 1_556 S
C356 C358 1.419 . S
C357 C352 1.425 . S
C357 C354 1.409 . S
C357 C355 1.415 . S
C358 H348 0.930 . S
C358 C356 1.419 . S
C358 C359 1.362 1_556 S
C359 H349 0.930 . S
C359 C352 1.409 . S
C359 C358 1.362 1_554 S
H360 C366 0.930 . S
H361 C369 0.930 . S
H362 C370 0.930 . S
H363 C371 0.930 . S
H364 C374 0.930 . S
H365 C375 0.930 . S
C366 H360 0.930 . S
C366 C367 1.355 . S
C366 C368 1.415 . S
C367 C366 1.355 . S
C367 C369 1.419 . S
C368 C366 1.415 . S
C368 C373 1.425 . S
C368 C375 1.409 . S
C369 H361 0.930 . S
C369 C367 1.419 . S
C369 C370 1.362 . S
C370 H362 0.930 . S
C370 C369 1.362 . S
C370 C373 1.409 . S
C371 H363 0.930 . S
C371 C372 1.355 1_554 S
C371 C373 1.415 . S
C372 C371 1.355 1_556 S
C372 C374 1.419 . S
C373 C368 1.425 . S
C373 C370 1.409 . S
C373 C371 1.415 . S
C374 H364 0.930 . S
C374 C372 1.419 . S
C374 C375 1.362 1_556 S
C375 H365 0.930 . S
C375 C368 1.409 . S
C375 C374 1.362 1_554 S
H376 C382 0.930 . S
H377 C385 0.930 . S
H378 C386 0.930 . S
H379 C387 0.930 1_556 S
H380 C390 0.930 . S
H381 C391 0.930 . S
C382 H376 0.930 . S
C382 C383 1.355 1_655 S
C382 C384 1.415 . S
C383 C382 1.355 1_455 S
C383 C385 1.419 . S
C384 C382 1.415 . S
C384 C389 1.425 1_655 S
C384 C391 1.409 . S
C385 H377 0.930 . S
C385 C383 1.419 . S
C385 C386 1.362 . S
C386 H378 0.930 . S
C386 C385 1.362 . S
C386 C389 1.409 . S
C387 H379 0.930 1_554 S
C387 C388 1.355 1_454 S
C387 C389 1.415 . S
C388 C387 1.355 1_656 S
C388 C390 1.419 1_556 S
C389 C384 1.425 1_455 S
C389 C386 1.409 . S
C389 C387 1.415 . S
C390 H380 0.930 . S
C390 C388 1.419 1_554 S
C390 C391 1.362 . S
C391 H381 0.930 . S
C391 C384 1.409 . S
C391 C390 1.362 . S
H392 C398 0.930 . S
H393 C401 0.930 . S
H394 C402 0.930 . S
H395 C403 0.948 . S
H396 C406 0.930 . S
H397 C407 0.930 . S
C398 H392 0.930 . S
C398 C399 1.355 1_655 S
C398 C400 1.415 . S
C399 C398 1.355 1_455 S
C399 C401 1.419 . S
C400 C398 1.415 . S
C400 C405 1.425 . S
C400 C407 1.409 . S
C401 H393 0.930 . S
C401 C399 1.419 . S
C401 C402 1.362 . S
C402 H394 0.930 . S
C402 C401 1.362 . S
C402 C405 1.409 1_455 S
C403 H395 0.948 . S
C403 C404 1.355 . S
C403 C405 1.415 . S
C404 C403 1.355 . S
C404 C406 1.419 . S
C405 C400 1.425 . S
C405 C402 1.409 1_655 S
C405 C403 1.415 . S
C406 H396 0.930 . S
C406 C404 1.419 . S
C406 C407 1.362 . S
C407 H397 0.930 . S
C407 C400 1.409 . S
C407 C406 1.362 . S
H408 C414 0.930 . S
H409 C417 0.930 . S
H410 C418 0.930 . S
H411 C419 0.930 . S
H412 C422 0.930 . S
H413 C423 0.930 1_545 S
C414 H408 0.930 . S
C414 C415 1.352 1_545 S
C414 C416 1.415 1_545 S
C415 C414 1.352 1_565 S
C415 C417 1.430 . S
C416 C414 1.415 1_565 S
C416 C421 1.425 . S
C416 C423 1.409 . S
C417 H409 0.930 . S
C417 C415 1.430 . S
C417 C418 1.362 . S
C418 H410 0.930 . S
C418 C417 1.362 . S
C418 C421 1.409 . S
C419 H411 0.930 . S
C419 C420 1.355 . S
C419 C421 1.415 . S
C420 C419 1.355 . S
C420 C422 1.419 . S
C421 C416 1.425 . S
C421 C418 1.409 . S
C421 C419 1.415 . S
C422 H412 0.930 . S
C422 C420 1.419 . S
C422 C423 1.362 . S
C423 H413 0.930 1_565 S
C423 C416 1.409 . S
C423 C422 1.362 . S
H424 C430 0.930 . S
H425 C433 0.930 . S
H426 C434 0.930 . S
H427 C435 0.930 . S
H428 C438 0.930 . S
H429 C439 0.930 . S
C430 H424 0.930 . S
C430 C431 1.355 . S
C430 C432 1.415 . S
C431 C430 1.355 . S
C431 C433 1.419 . S
C432 C430 1.415 . S
C432 C437 1.425 . S
C432 C439 1.409 . S
C433 H425 0.930 . S
C433 C431 1.419 . S
C433 C434 1.362 . S
C434 H426 0.930 . S
C434 C433 1.362 . S
C434 C437 1.409 . S
C435 H427 0.930 . S
C435 C436 1.355 . S
C435 C437 1.415 . S
C436 C435 1.355 . S
C436 C438 1.419 . S
C437 C432 1.425 . S
C437 C434 1.409 . S
C437 C435 1.415 . S
C438 H428 0.930 . S
C438 C436 1.419 . S
C438 C439 1.362 . S
C439 H429 0.930 . S
C439 C432 1.409 . S
C439 C438 1.362 . S
H440 C446 0.930 . S
H441 C449 0.930 . S
H442 C450 0.930 . S
H443 C451 0.930 . S
H444 C454 0.930 . S
H445 C455 0.930 . S
C446 H440 0.930 . S
C446 C447 1.355 . S
C446 C448 1.415 . S
C447 C446 1.355 . S
C447 C449 1.419 . S
C448 C446 1.415 . S
C448 C453 1.425 . S
C448 C455 1.409 . S
C449 H441 0.930 . S
C449 C447 1.419 . S
C449 C450 1.362 . S
C450 H442 0.930 . S
C450 C449 1.362 . S
C450 C453 1.409 . S
C451 H443 0.930 . S
C451 C452 1.355 . S
C451 C453 1.415 . S
C452 C451 1.355 . S
C452 C454 1.419 . S
C453 C448 1.425 . S
C453 C450 1.409 . S
C453 C451 1.415 . S
C454 H444 0.930 . S
C454 C452 1.419 . S
C454 C455 1.362 . S
C455 H445 0.930 . S
C455 C448 1.409 . S
C455 C454 1.362 . S
H456 C462 0.930 . S
H457 C465 0.930 . S
H458 C466 0.930 . S
H459 C467 0.930 . S
H460 C470 0.930 1_655 S
H461 C471 0.930 . S
C462 H456 0.930 . S
C462 C463 1.341 1_655 S
C462 C464 1.415 1_655 S
C463 C462 1.341 1_455 S
C463 C465 1.450 . S
C464 C462 1.415 1_455 S
C464 C469 1.425 . S
C464 C471 1.409 1_455 S
C465 H457 0.930 . S
C465 C463 1.450 . S
C465 C466 1.362 . S
C466 H458 0.930 . S
C466 C465 1.362 . S
C466 C469 1.409 . S
C467 H459 0.930 . S
C467 C468 1.355 . S
C467 C469 1.415 . S
C468 C467 1.355 . S
C468 C470 1.419 . S
C469 C464 1.425 . S
C469 C466 1.409 . S
C469 C467 1.415 . S
C470 H460 0.930 1_455 S
C470 C468 1.419 . S
C470 C471 1.362 1_455 S
C471 H461 0.930 . S
C471 C464 1.409 1_655 S
C471 C470 1.362 1_655 S
H472 C478 0.922 1_565 S
H473 C481 0.930 . S
H474 C482 0.930 . S
H475 C483 0.930 . S
H476 C486 0.930 . S
H477 C487 0.930 . S
C478 H472 0.922 1_545 S
C478 C479 1.353 1_545 S
C478 C480 1.425 . S
C479 C478 1.353 1_565 S
C479 C481 1.419 1_565 S
C480 C478 1.425 . S
C480 C485 1.425 . S
C480 C487 1.409 . S
C481 H473 0.930 . S
C481 C479 1.419 1_545 S
C481 C482 1.362 . S
C482 H474 0.930 . S
C482 C481 1.362 . S
C482 C485 1.409 . S
C483 H475 0.930 . S
C483 C484 1.355 . S
C483 C485 1.415 . S
C484 C483 1.355 . S
C484 C486 1.419 . S
C485 C480 1.425 . S
C485 C482 1.409 . S
C485 C483 1.415 . S
C486 H476 0.930 . S
C486 C484 1.419 . S
C486 C487 1.362 . S
C487 H477 0.930 . S
C487 C480 1.409 . S
C487 C486 1.362 . S
H488 C494 0.930 . S
H489 C497 0.930 . S
H490 C498 0.930 . S
H491 C499 0.930 . S
H492 C502 0.930 . S
H493 C503 0.930 . S
C494 H488 0.930 . S
C494 C495 1.355 . S
C494 C496 1.415 . S
C495 C494 1.355 . S
C495 C497 1.419 . S
C496 C494 1.415 . S
C496 C501 1.425 . S
C496 C503 1.409 . S
C497 H489 0.930 . S
C497 C495 1.419 . S
C497 C498 1.362 . S
C498 H490 0.930 . S
C498 C497 1.362 . S
C498 C501 1.409 . S
C499 H491 0.930 . S
C499 C500 1.355 . S
C499 C501 1.415 . S
C500 C499 1.355 . S
C500 C502 1.419 . S
C501 C496 1.425 . S
C501 C498 1.409 . S
C501 C499 1.415 . S
C502 H492 0.930 . S
C502 C500 1.419 . S
C502 C503 1.362 . S
C503 H493 0.930 . S
C503 C496 1.409 . S
C503 C502 1.362 . S
H504 C510 0.930 . S
H505 C513 0.930 . S
H506 C514 0.930 . S
H507 C515 0.930 . S
H508 C518 0.930 . S
H509 C519 0.930 . S
C510 H504 0.930 . S
C510 C511 1.355 . S
C510 C512 1.415 . S
C511 C510 1.355 . S
C511 C513 1.419 . S
C512 C510 1.415 . S
C512 C517 1.425 . S
C512 C519 1.409 . S
C513 H505 0.930 . S
C513 C511 1.419 . S
C513 C514 1.362 . S
C514 H506 0.930 . S
C514 C513 1.362 . S
C514 C517 1.409 . S
C515 H507 0.930 . S
C515 C516 1.355 . S
C515 C517 1.415 . S
C516 C515 1.355 . S
C516 C518 1.419 . S
C517 C512 1.425 . S
C517 C514 1.409 . S
C517 C515 1.415 . S
C518 H508 0.930 . S
C518 C516 1.419 . S
C518 C519 1.362 . S
C519 H509 0.930 . S
C519 C512 1.409 . S
C519 C518 1.362 . S
H520 C526 0.937 1_554 S
H521 C529 0.930 . S
H522 C530 0.930 . S
H523 C531 0.930 . S
H524 C534 0.935 1_554 S
H525 C535 0.930 1_554 S
C526 H520 0.937 1_556 S
C526 C527 1.350 1_655 S
C526 C528 1.413 1_655 S
C527 C526 1.350 1_455 S
C527 C529 1.419 . S
C528 C526 1.413 1_455 S
C528 C533 1.425 . S
C528 C535 1.409 1_455 S
C529 H521 0.930 . S
C529 C527 1.419 . S
C529 C530 1.362 . S
C530 H522 0.930 . S
C530 C529 1.362 . S
C530 C533 1.409 . S
C531 H523 0.930 . S
C531 C532 1.355 . S
C531 C533 1.415 . S
C532 C531 1.355 . S
C532 C534 1.412 1_455 S
C533 C528 1.425 . S
C533 C530 1.409 . S
C533 C531 1.415 . S
C534 H524 0.935 1_556 S
C534 C532 1.412 1_655 S
C534 C535 1.365 . S
C535 H525 0.930 1_556 S
C535 C528 1.409 1_655 S
C535 C534 1.365 . S
H536 C542 0.930 . S
H537 C545 0.930 . S
H538 C546 0.930 . S
H539 C547 0.930 . S
H540 C550 0.930 . S
H541 C551 0.930 . S
C542 H536 0.930 . S
C542 C543 1.348 1_545 S
C542 C544 1.415 . S
C543 C542 1.348 1_565 S
C543 C545 1.427 . S
C544 C542 1.415 . S
C544 C549 1.425 1_545 S
C544 C551 1.409 . S
C545 H537 0.930 . S
C545 C543 1.427 . S
C545 C546 1.362 . S
C546 H538 0.930 . S
C546 C545 1.362 . S
C546 C549 1.409 . S
C547 H539 0.930 . S
C547 C548 1.355 1_565 S
C547 C549 1.415 . S
C548 C547 1.355 1_545 S
C548 C550 1.419 . S
C549 C544 1.425 1_565 S
C549 C546 1.409 . S
C549 C547 1.415 . S
C550 H540 0.930 . S
C550 C548 1.419 . S
C550 C551 1.362 . S
C551 H541 0.930 . S
C551 C544 1.409 . S
C551 C550 1.362 . S
H552 C558 0.930 . S
H553 C561 0.930 . S
H554 C562 0.930 . S
H555 C563 0.930 . S
H556 C566 0.930 . S
H557 C567 0.930 . S
C558 H552 0.930 . S
C558 C559 1.355 . S
C558 C560 1.415 . S
C559 C558 1.355 . S
C559 C561 1.419 . S
C560 C558 1.415 . S
C560 C565 1.425 . S
C560 C567 1.409 . S
C561 H553 0.930 . S
C561 C559 1.419 . S
C561 C562 1.362 . S
C562 H554 0.930 . S
C562 C561 1.362 . S
C562 C565 1.409 . S
C563 H555 0.930 . S
C563 C564 1.355 . S
C563 C565 1.415 . S
C564 C563 1.355 . S
C564 C566 1.419 . S
C565 C560 1.425 . S
C565 C562 1.409 . S
C565 C563 1.415 . S
C566 H556 0.930 . S
C566 C564 1.419 . S
C566 C567 1.362 . S
C567 H557 0.930 . S
C567 C560 1.409 . S
C567 C566 1.362 . S
H568 C574 0.930 1_554 S
H569 C577 0.930 . S
H570 C578 0.930 . S
H571 C579 0.930 . S
H572 C582 0.930 1_554 S
H573 C583 0.930 1_554 S
C574 H568 0.930 1_556 S
C574 C575 1.355 . S
C574 C576 1.415 . S
C575 C574 1.355 . S
C575 C577 1.419 . S
C576 C574 1.415 . S
C576 C581 1.425 . S
C576 C583 1.409 . S
C577 H569 0.930 . S
C577 C575 1.419 . S
C577 C578 1.362 . S
C578 H570 0.930 . S
C578 C577 1.362 . S
C578 C581 1.409 . S
C579 H571 0.930 . S
C579 C580 1.355 . S
C579 C581 1.415 . S
C580 C579 1.355 . S
C580 C582 1.419 . S
C581 C576 1.425 . S
C581 C578 1.409 . S
C581 C579 1.415 . S
C582 H572 0.930 1_556 S
C582 C580 1.419 . S
C582 C583 1.362 . S
C583 H573 0.930 1_556 S
C583 C576 1.409 . S
C583 C582 1.362 . S
H584 C590 0.930 . S
H585 C593 0.930 . S
H586 C594 0.930 . S
H587 C595 0.947 . S
H588 C598 0.930 . S
H589 C599 0.930 . S
C590 H584 0.930 . S
C590 C591 1.358 . S
C590 C592 1.415 . S
C591 C590 1.358 . S
C591 C593 1.416 1_655 S
C592 C590 1.415 . S
C592 C597 1.425 1_655 S
C592 C599 1.409 . S
C593 H585 0.930 . S
C593 C591 1.416 1_455 S
C593 C594 1.362 . S
C594 H586 0.930 . S
C594 C593 1.362 . S
C594 C597 1.409 . S
C595 H587 0.947 . S
C595 C596 1.338 1_455 S
C595 C597 1.415 . S
C596 C595 1.338 1_655 S
C596 C598 1.419 . S
C597 C592 1.425 1_455 S
C597 C594 1.409 . S
C597 C595 1.415 . S
C598 H588 0.930 . S
C598 C596 1.419 . S
C598 C599 1.362 . S
C599 H589 0.930 . S
C599 C592 1.409 . S
C599 C598 1.362 . S
H600 C606 0.930 . S
H601 C609 0.930 . S
H602 C610 0.930 . S
H603 C611 0.930 . S
H604 C614 0.930 . S
H605 C615 0.930 . S
C606 H600 0.930 . S
C606 C607 1.373 . S
C606 C608 1.415 . S
C607 C606 1.373 . S
C607 C609 1.399 1_565 S
C608 C606 1.415 . S
C608 C613 1.425 1_565 S
C608 C615 1.409 . S
C609 H601 0.930 . S
C609 C607 1.399 1_545 S
C609 C610 1.362 . S
C610 H602 0.930 . S
C610 C609 1.362 . S
C610 C613 1.409 . S
C611 H603 0.930 . S
C611 C612 1.355 1_545 S
C611 C613 1.415 . S
C612 C611 1.355 1_565 S
C612 C614 1.419 . S
C613 C608 1.425 1_545 S
C613 C610 1.409 . S
C613 C611 1.415 . S
C614 H604 0.930 . S
C614 C612 1.419 . S
C614 C615 1.362 . S
C615 H605 0.930 . S
C615 C608 1.409 . S
C615 C614 1.362 . S
H616 C622 0.930 . S
H617 C625 0.930 . S
H618 C626 0.930 . S
H619 C627 0.930 . S
H620 C630 0.930 . S
H621 C631 0.930 . S
C622 H616 0.930 . S
C622 C623 1.355 . S
C622 C624 1.415 . S
C623 C622 1.355 . S
C623 C625 1.419 . S
C624 C622 1.415 . S
C624 C629 1.425 . S
C624 C631 1.409 . S
C625 H617 0.930 . S
C625 C623 1.419 . S
C625 C626 1.362 . S
C626 H618 0.930 . S
C626 C625 1.362 . S
C626 C629 1.409 . S
C627 H619 0.930 . S
C627 C628 1.355 . S
C627 C629 1.415 . S
C628 C627 1.355 . S
C628 C630 1.419 . S
C629 C624 1.425 . S
C629 C626 1.409 . S
C629 C627 1.415 . S
C630 H620 0.930 . S
C630 C628 1.419 . S
C630 C631 1.362 . S
C631 H621 0.930 . S
C631 C624 1.409 . S
C631 C630 1.362 . S
H632 C638 0.930 . S
H633 C641 0.930 . S
H634 C642 0.930 . S
H635 C643 0.930 . S
H636 C646 0.930 . S
H637 C647 0.930 . S
C638 H632 0.930 . S
C638 C639 1.355 . S
C638 C640 1.415 . S
C639 C638 1.355 . S
C639 C641 1.419 . S
C640 C638 1.415 . S
C640 C645 1.425 . S
C640 C647 1.409 . S
C641 H633 0.930 . S
C641 C639 1.419 . S
C641 C642 1.362 . S
C642 H634 0.930 . S
C642 C641 1.362 . S
C642 C645 1.409 . S
C643 H635 0.930 . S
C643 C644 1.355 . S
C643 C645 1.415 . S
C644 C643 1.355 . S
C644 C646 1.419 . S
C645 C640 1.425 . S
C645 C642 1.409 . S
C645 C643 1.415 . S
C646 H636 0.930 . S
C646 C644 1.419 . S
C646 C647 1.362 . S
C647 H637 0.930 . S
C647 C640 1.409 . S
C647 C646 1.362 . S
C271 C82 1.727 . S
C276 C122 2.055 . S
C292 C162 2.071 . S
C287 C95 1.738 . S
C308 C202 2.090 . S
C303 C56 1.778 . S
C324 C242 2.070 1_455 S
C319 C69 1.781 1_655 S
C340 C112 2.068 1_565 S
C335 C30 1.706 . S
C351 C43 1.780 . S
C356 C152 2.074 . S
C367 C4 1.776 . S
C372 C192 2.080 . S
C383 C17 1.714 . S
C388 C232 2.076 1_655 S
C404 C109 0.676 . S
C399 C74 0.662 . S
C420 C149 0.543 . S
C415 C87 0.600 1_565 S
C436 C189 0.631 . S
C431 C100 0.674 . S
C447 C61 0.551 . S
C452 C229 0.504 . S
C463 C22 0.543 . S
C468 C119 0.505 . S
C484 C159 0.627 . S
C479 C35 0.674 1_565 S
C500 C199 0.655 . S
C495 C48 0.615 . S
C511 C9 0.678 . S
C516 C239 0.651 . S
C527 C73 2.165 . S
C532 C113 2.374 . S
C543 C86 2.099 1_565 S
C548 C153 2.366 . S
C564 C193 2.314 . S
C559 C99 2.063 . S
C580 C233 2.365 . S
C575 C60 2.148 . S
C591 C21 2.159 1_655 S
C596 C123 2.406 . S
C612 C163 2.357 . S
C607 C34 2.061 1_565 S
C628 C203 2.349 . S
C623 C47 2.085 . S
C639 C8 2.138 . S
C644 C243 2.390 . S
