# Generated by pormake.
# Topology anh, (6,3)-cn, num edge types: 1
# Building blocks:
#     Node 0, Type 0, BuildingBlock: PAMTOO_clean_sbu_0, # of connection points: 6
#     Node 1, Type 0, BuildingBlock: PAMTOO_clean_sbu_0, # of connection points: 6
#     Node 2, Type 0, BuildingBlock: PAMTOO_clean_sbu_0, # of connection points: 6
#     Node 3, Type 1, BuildingBlock: VETTIZ_charged_linker_0, # of connection points: 3
#     Node 4, Type 1, BuildingBlock: VETTIZ_charged_linker_0, # of connection points: 3
#     Node 5, Type 1, BuildingBlock: VETTIZ_charged_linker_0, # of connection points: 3
#     Node 6, Type 1, BuildingBlock: VETTIZ_charged_linker_0, # of connection points: 3
#     Node 7, Type 1, BuildingBlock: VETTIZ_charged_linker_0, # of connection points: 3
#     Node 8, Type 1, BuildingBlock: VETTIZ_charged_linker_0, # of connection points: 3
#     Edge 9, Type (0, 1), BuildingBlock: OJICUG_clean_linker_0, # of connection points: 2
#     Edge 10, Type (0, 1), BuildingBlock: OJICUG_clean_linker_0, # of connection points: 2
#     Edge 11, Type (0, 1), BuildingBlock: OJICUG_clean_linker_0, # of connection points: 2
#     Edge 12, Type (0, 1), BuildingBlock: OJICUG_clean_linker_0, # of connection points: 2
#     Edge 13, Type (0, 1), BuildingBlock: OJICUG_clean_linker_0, # of connection points: 2
#     Edge 14, Type (0, 1), BuildingBlock: OJICUG_clean_linker_0, # of connection points: 2
#     Edge 15, Type (0, 1), BuildingBlock: OJICUG_clean_linker_0, # of connection points: 2
#     Edge 16, Type (0, 1), BuildingBlock: OJICUG_clean_linker_0, # of connection points: 2
#     Edge 17, Type (0, 1), BuildingBlock: OJICUG_clean_linker_0, # of connection points: 2
#     Edge 18, Type (0, 1), BuildingBlock: OJICUG_clean_linker_0, # of connection points: 2
#     Edge 19, Type (0, 1), BuildingBlock: OJICUG_clean_linker_0, # of connection points: 2
#     Edge 20, Type (0, 1), BuildingBlock: OJICUG_clean_linker_0, # of connection points: 2
#     Edge 21, Type (0, 1), BuildingBlock: OJICUG_clean_linker_0, # of connection points: 2
#     Edge 22, Type (0, 1), BuildingBlock: OJICUG_clean_linker_0, # of connection points: 2
#     Edge 23, Type (0, 1), BuildingBlock: OJICUG_clean_linker_0, # of connection points: 2
#     Edge 24, Type (0, 1), BuildingBlock: OJICUG_clean_linker_0, # of connection points: 2
#     Edge 25, Type (0, 1), BuildingBlock: OJICUG_clean_linker_0, # of connection points: 2
#     Edge 26, Type (0, 1), BuildingBlock: OJICUG_clean_linker_0, # of connection points: 2
# Relax obj value: 0.217
# Max RMSD: 0.211
# Mean RMSD: 0.167
data_MOF--net-anh--node1-PAMTOO_clean_sbu_0--node2-VETTIZ_charged_linker_0--edge1-OJICUG_clean_linker_0
_symmetry_space_group_name_H-M    P1
_symmetry_Int_Tables_number       1
_symmetry_cell_setting            triclinic
loop_
_symmetry_equiv_pos_as_xyz
'x, y, z'
_cell_length_a     28.833417
_cell_length_b     27.063133
_cell_length_c     52.757405
_cell_angle_alpha  90.254533
_cell_angle_beta   94.896918
_cell_angle_gamma 102.1091
loop_
_atom_site_label
_atom_site_type_symbol
_atom_site_fract_x
_atom_site_fract_y
_atom_site_fract_z
_atom_type_partial_charge
Dy0 Dy 1.06701 0.63642 0.14915 0.0
Dy1 Dy 1.04117 0.51421 0.14583 0.0
C2 C 1.04978 0.57852 0.09668 0.0
O3 O 0.98589 0.62114 0.15402 0.0
O4 O 0.96725 0.53603 0.1444 0.0
O5 O 0.09422 0.70302 0.12831 0.0
O6 O 0.07422 0.71052 0.16661 0.0
O7 O 1.03883 0.53252 0.18676 0.0
O8 O 0.08293 0.61366 0.18877 0.0
O9 O 0.12368 0.52926 0.14987 0.0
O10 O 0.14124 0.61592 0.14779 0.0
O11 O 1.0449 0.43965 0.15909 0.0
O12 O 1.00114 0.44831 0.12453 0.0
C13 C 0.95308 0.57851 0.14968 0.0
O14 O 1.03565 0.61249 0.10992 0.0
O15 O 1.06387 0.54091 0.10809 0.0
C16 C 0.14302 0.76681 0.15413 0.0
C17 C 0.23755 0.8234 0.16172 0.0
C18 C 0.20601 0.83485 0.14184 0.0
C19 C 0.1592 0.80681 0.13811 0.0
C20 C 0.17404 0.75575 0.17424 0.0
C21 C 0.22064 0.78399 0.17812 0.0
C22 C 0.09607 0.73332 0.14781 0.0
C23 C 1.06309 0.57226 0.1998 0.0
C24 C 0.15597 0.5724 0.1493 0.0
C25 C 0.97053 0.38199 0.15114 0.0
C26 C 0.88763 0.31901 0.16739 0.0
C27 C 0.91852 0.35352 0.18446 0.0
C28 C 0.95927 0.38486 0.17641 0.0
C29 C 0.94039 0.34701 0.13414 0.0
C30 C 0.89931 0.31586 0.14214 0.0
C31 C 1.01164 0.41732 0.14192 0.0
H32 H 0.21781 0.86448 0.12867 0.0
H33 H 0.13605 0.81535 0.12221 0.0
H34 H 0.16264 0.72456 0.18665 0.0
H35 H 0.24347 0.77466 0.19395 0.0
H36 H 0.91138 0.35633 0.20417 0.0
H37 H 0.98163 0.4117 0.18994 0.0
H38 H 0.94817 0.34446 0.1145 0.0
H39 H 0.87621 0.29014 0.1284 0.0
Dy40 Dy 0.56457 1.00946 0.51517 0.0
Dy41 Dy 0.68079 0.03102 0.51673 0.0
C42 C 0.62905 0.02857 0.56608 0.0
O43 O 0.58292 0.09093 0.50442 0.0
O44 O 0.66246 0.10809 0.51857 0.0
O45 O 0.50492 0.98486 0.53742 0.0
O46 O 0.49318 1.00755 0.49838 0.0
O47 O 0.65433 0.04046 0.47642 0.0
O48 O 0.58019 0.98909 0.47645 0.0
O49 O 0.66066 0.94661 0.51117 0.0
O50 O 0.58303 0.93329 0.5214 0.0
O51 O 0.74709 0.02534 0.50197 0.0
O52 O 0.74745 0.06666 0.53734 0.0
C53 C 0.62344 0.12334 0.51019 0.0
O54 O 0.59738 0.0466 0.55192 0.0
O55 O 0.65933 1.00738 0.55527 0.0
C56 C 0.43758 0.93886 0.5134 0.0
C57 C 0.37321 0.84462 0.50712 0.0
C58 C 0.37357 0.87576 0.52859 0.0
C59 C 0.40543 0.92249 0.53165 0.0
C60 C 0.43715 0.9081 0.49186 0.0
C61 C 0.40506 0.86169 0.48867 0.0
C62 C 0.47373 0.98589 0.51812 0.0
C63 C 0.61558 0.01342 0.46429 0.0
C64 C 0.62071 0.91599 0.51613 0.0
C65 C 0.80403 0.10178 0.50959 0.0
C66 C 0.85886 0.19364 0.49392 0.0
C67 C 0.81983 0.16689 0.47809 0.0
C68 C 0.7925 0.12169 0.48592 0.0
C69 C 0.84354 0.1276 0.52521 0.0
C70 C 0.87076 0.17318 0.51747 0.0
C71 C 0.77237 0.05718 0.5191 0.0
H72 H 0.3499 0.86365 0.54328 0.0
H73 H 0.40564 0.94544 0.54856 0.0
H74 H 0.46194 0.91959 0.47761 0.0
H75 H 0.40513 0.83932 0.47161 0.0
H76 H 0.8102 0.18092 0.45962 0.0
H77 H 0.7618 0.10284 0.47362 0.0
H78 H 0.85257 0.11318 0.5437 0.0
H79 H 0.90029 0.19301 0.53021 0.0
Dy80 Dy 0.59421 0.51677 0.84124 0.0
Dy81 Dy 0.47984 0.48978 0.82865 0.0
C82 C 0.54729 0.4941 0.7852 0.0
O83 O 0.57348 0.59007 0.84991 0.0
O84 O 0.5058 0.57341 0.82294 0.0
O85 O 0.66228 0.56387 0.83523 0.0
O86 O 0.65856 0.49647 0.85779 0.0
O87 O 0.48961 0.50952 0.87015 0.0
O88 O 0.56873 0.50779 0.87962 0.0
O89 O 0.49436 0.41346 0.83893 0.0
O90 O 0.57404 0.43283 0.83289 0.0
O91 O 0.40679 0.47014 0.83821 0.0
O92 O 0.42224 0.4908 0.7998 0.0
C93 C 0.53903 0.60586 0.83662 0.0
O94 O 0.57795 0.52668 0.79985 0.0
O95 O 0.51067 0.46552 0.79459 0.0
C96 C 0.71971 0.5146 0.83044 0.0
C97 C 0.7895 0.48693 0.80253 0.0
C98 C 0.75245 0.50634 0.79002 0.0
C99 C 0.71754 0.51974 0.80385 0.0
C100 C 0.75502 0.49259 0.84267 0.0
C101 C 0.78948 0.47868 0.82887 0.0
C102 C 0.68556 0.53168 0.84572 0.0
C103 C 0.52663 0.50994 0.88652 0.0
C104 C 0.535 0.39943 0.8368 0.0
C105 C 0.36985 0.53241 0.81925 0.0
C106 C 0.35285 0.62736 0.83339 0.0
C107 C 0.33545 0.58379 0.8471 0.0
C108 C 0.34388 0.53688 0.84012 0.0
C109 C 0.38336 0.57502 0.80415 0.0
C110 C 0.37489 0.62197 0.81115 0.0
C111 C 0.39151 0.48782 0.81679 0.0
H112 H 0.75179 0.51329 0.7698 0.0
H113 H 0.68986 0.53562 0.79385 0.0
H114 H 0.75691 0.48773 0.86309 0.0
H115 H 0.8181 0.46484 0.83922 0.0
H116 H 0.3162 0.58605 0.86367 0.0
H117 H 0.33263 0.50475 0.85198 0.0
H118 H 0.40328 0.57307 0.78781 0.0
H119 H 0.38792 0.65444 0.79986 0.0
C120 C 0.6893 0.15696 0.19689 0.0
C121 C 0.729 0.18912 0.20996 0.0
C122 C 0.73519 0.18792 0.23668 0.0
C123 C 0.66386 0.1225 0.23711 0.0
C124 C 0.65689 0.12428 0.2109 0.0
C125 C 0.61144 0.08876 0.20057 0.0
H126 H 0.42221 0.90304 0.22443 0.0
C127 C 0.62534 0.08348 0.24603 0.0
C128 C 0.59436 0.06325 0.22475 0.0
H129 H 0.44658 0.97863 0.15343 0.0
H130 H 0.52126 0.02959 0.17265 0.0
H131 H 0.52884 0.89266 0.24066 0.0
H132 H 0.44717 1.00264 0.25736 0.0
H133 H 0.4793 0.99267 0.28593 0.0
H134 H 0.43709 0.94056 0.27041 0.0
H135 H 0.48538 0.88169 0.26351 0.0
H136 H 0.54664 0.91223 0.27241 0.0
C137 C 0.62391 0.05085 0.18164 0.0
C138 C 0.57679 0.12078 0.18875 0.0
C139 C 0.62409 0.04585 0.34037 0.0
C140 C 0.59502 1.00906 0.35417 0.0
C141 C 0.55934 0.97236 0.34067 0.0
C142 C 0.55146 0.97348 0.31417 0.0
C143 C 0.57966 1.01151 0.30081 0.0
C144 C 0.61604 0.04604 0.31381 0.0
C145 C 0.64413 0.08182 0.29621 0.0
C146 C 0.61736 0.06411 0.27061 0.0
C147 C 0.57934 0.02348 0.27354 0.0
C148 C 0.69581 0.07305 0.29823 0.0
C149 C 0.63999 0.13628 0.30327 0.0
C150 C 0.44404 0.92997 0.21289 0.0
C151 C 0.42912 0.93649 0.18738 0.0
C152 C 0.45768 0.97298 0.17314 0.0
C153 C 0.50075 1.00252 0.18435 0.0
C154 C 0.51467 0.99616 0.21017 0.0
C155 C 0.48614 0.96041 0.22392 0.0
C156 C 0.50379 0.96106 0.25149 0.0
C157 C 0.54764 1.00325 0.25224 0.0
C158 C 0.55452 0.02337 0.22798 0.0
C159 C 0.51661 0.90926 0.25758 0.0
C160 C 0.465 0.97457 0.26732 0.0
H161 H 0.71007 0.15557 0.27058 0.0
H162 H 0.68342 0.15775 0.17636 0.0
H163 H 0.58262 0.1583 0.19859 0.0
H164 H 0.53909 0.10333 0.19079 0.0
H165 H 0.58172 0.12754 0.1683 0.0
H166 H 0.65416 0.03483 0.19 0.0
H167 H 0.63451 0.06969 0.16373 0.0
H168 H 0.59419 0.01839 0.17679 0.0
H169 H 0.65191 0.07465 0.34997 0.0
H170 H 0.53731 0.94259 0.35059 0.0
H171 H 0.52337 0.94486 0.30516 0.0
H172 H 0.69697 0.03367 0.30378 0.0
H173 H 0.71904 0.09887 0.31273 0.0
H174 H 0.71194 0.07744 0.27988 0.0
H175 H 0.60336 0.1369 0.30822 0.0
H176 H 0.64622 0.16266 0.28741 0.0
H177 H 0.66509 0.15161 0.31997 0.0
H178 H 0.76562 0.21217 0.24708 0.0
C179 C 0.70304 0.15478 0.25028 0.0
C180 C 0.61812 0.66027 0.52292 0.0
C181 C 0.61348 0.7048 0.53601 0.0
C182 C 0.60705 0.70245 0.56206 0.0
C183 C 0.60832 0.61329 0.5621 0.0
C184 C 0.61519 0.61446 0.53647 0.0
C185 C 0.6179 0.56203 0.52661 0.0
H186 H 0.61028 0.31181 0.55773 0.0
C187 C 0.60561 0.56126 0.57106 0.0
C188 C 0.61115 0.53002 0.55053 0.0
H189 H 0.63099 0.37346 0.48344 0.0
H190 H 0.62542 0.45725 0.49964 0.0
H191 H 0.67819 0.40082 0.58887 0.0
H192 H 0.52779 0.36311 0.56808 0.0
H193 H 0.53349 0.39024 0.59869 0.0
H194 H 0.55521 0.33329 0.59381 0.0
H195 H 0.63855 0.35109 0.6034 0.0
H196 H 0.65163 0.41511 0.61588 0.0
C197 C 0.66737 0.56472 0.51709 0.0
C198 C 0.57695 0.54442 0.50572 0.0
C199 C 0.57876 0.52745 0.66391 0.0
C200 C 0.57313 0.48337 0.67828 0.0
C201 C 0.57463 0.43715 0.6664 0.0
C202 C 0.58215 0.43497 0.6406 0.0
C203 C 0.588 0.47945 0.62642 0.0
C204 C 0.58591 0.52451 0.63811 0.0
C205 C 0.59181 0.56763 0.62005 0.0
C206 C 0.59821 0.54107 0.59552 0.0
C207 C 0.5962 0.48975 0.59947 0.0
C208 C 0.63748 0.60673 0.6298 0.0
C209 C 0.54512 0.58804 0.61822 0.0
C210 C 0.61376 0.34328 0.54487 0.0
C211 C 0.62128 0.3362 0.51948 0.0
C212 C 0.62526 0.37813 0.50325 0.0
C213 C 0.62207 0.42657 0.51266 0.0
C214 C 0.61463 0.4329 0.53849 0.0
C215 C 0.61046 0.39097 0.55383 0.0
C216 C 0.60194 0.40218 0.58048 0.0
C217 C 0.60214 0.45789 0.57923 0.0
C218 C 0.6096 0.47703 0.55468 0.0
C219 C 0.64439 0.39155 0.59826 0.0
C220 C 0.5523 0.37051 0.58579 0.0
H221 H 0.59953 0.6592 0.59486 0.0
H222 H 0.62307 0.66099 0.50281 0.0
H223 H 0.54249 0.54863 0.51252 0.0
H224 H 0.57302 0.50425 0.5003 0.0
H225 H 0.58287 0.56732 0.48841 0.0
H226 H 0.69581 0.58281 0.53184 0.0
H227 H 0.67133 0.58741 0.4996 0.0
H228 H 0.67387 0.52694 0.51285 0.0
H229 H 0.57716 0.56344 0.67248 0.0
H230 H 0.57079 0.40279 0.6772 0.0
H231 H 0.58341 0.39867 0.63283 0.0
H232 H 0.66471 0.58771 0.63934 0.0
H233 H 0.62953 0.63385 0.64383 0.0
H234 H 0.65563 0.62797 0.61433 0.0
H235 H 0.51385 0.55795 0.62195 0.0
H236 H 0.53579 0.60104 0.59897 0.0
H237 H 0.54725 0.61927 0.63227 0.0
H238 H 0.60371 0.73594 0.57251 0.0
C239 C 0.60459 0.65749 0.57506 0.0
C240 C 0.22115 0.75394 0.84929 0.0
C241 C 0.2617 0.76982 0.86652 0.0
C242 C 0.25446 0.77735 0.89229 0.0
C243 C 0.17351 0.72946 0.88455 0.0
C244 C 0.17837 0.73072 0.85871 0.0
C245 C 0.13902 0.6942 0.84369 0.0
H246 H 0.95335 0.49663 0.84271 0.0
C247 C 0.13143 0.68959 0.88877 0.0
C248 C 0.11165 0.66846 0.86489 0.0
H249 H 1.00999 0.57853 0.7781 0.0
H250 H 0.07037 0.63254 0.80629 0.0
H251 H 1.05769 0.49787 0.87626 0.0
H252 H 0.95103 0.58786 0.87362 0.0
H253 H 0.97174 0.58618 0.90576 0.0
H254 H 0.94308 0.52805 0.88899 0.0
H255 H 0.99999 0.47627 0.88744 0.0
H256 H 1.04914 0.51188 0.90785 0.0
C257 C 0.16124 0.65676 0.82859 0.0
C258 C 0.10928 0.72519 0.82695 0.0
C259 C 0.09251 0.6408 0.9788 0.0
C260 C 1.05963 0.60087 0.98838 0.0
C261 C 1.02923 0.56605 0.97129 0.0
C262 C 1.03132 0.57091 0.945 0.0
C263 C 1.06449 0.61077 0.93565 0.0
C264 C 0.09453 0.64484 0.95243 0.0
C265 C 0.12934 0.68296 0.93896 0.0
C266 C 0.11355 0.66754 0.91132 0.0
C267 C 0.07586 0.62505 0.90959 0.0
C268 C 0.18044 0.6754 0.94703 0.0
C269 C 0.12155 0.73639 0.94511 0.0
C270 C 0.98008 0.52457 0.83441 0.0
C271 C 0.97748 0.53266 0.80803 0.0
C272 C 1.01165 0.57122 0.7983 0.0
C273 C 1.04612 0.60295 0.81475 0.0
C274 C 1.0464 0.596 0.8412 0.0
C275 C 1.01403 0.55694 0.85055 0.0
C276 C 1.01669 0.55763 0.87913 0.0
C277 C 1.05604 0.60375 0.88546 0.0
C278 C 0.07359 0.62565 0.86323 0.0
C279 C 1.03131 0.50833 0.88837 0.0
C280 C 0.96819 0.56493 0.88752 0.0
H281 H 0.20789 0.75924 0.92159 0.0
H282 H 0.22429 0.74939 0.82918 0.0
H283 H 0.1076 0.76115 0.83679 0.0
H284 H 0.07171 0.70538 0.82295 0.0
H285 H 0.12513 0.73507 0.8087 0.0
H286 H 0.19347 0.64865 0.83951 0.0
H287 H 0.17199 0.67249 0.81006 0.0
H288 H 0.13762 0.61928 0.82504 0.0
H289 H 0.1169 0.66754 -0.00842 0.0
H290 H 1.00346 0.53524 0.97831 0.0
H291 H 1.0071 0.54325 0.933 0.0
H292 H 0.18017 0.63713 0.95473 0.0
H293 H 0.19878 0.70339 0.96202 0.0
H294 H 0.20267 0.67774 0.93081 0.0
H295 H 0.08291 0.73681 0.94318 0.0
H296 H 0.13831 0.76512 0.93201 0.0
H297 H 0.13572 0.74845 0.96492 0.0
H298 H 0.2844 0.79253 0.90591 0.0
C299 C 0.2103 0.75695 0.90145 0.0
C300 C 1.00453 0.40994 0.4662 0.0
C301 C 0.96692 0.37509 0.45313 0.0
C302 C 0.95661 0.38016 0.42682 0.0
C303 C 1.02227 0.45222 0.4266 0.0
C304 C 1.03148 0.44845 0.4526 0.0
C305 C 0.07222 0.48959 0.46333 0.0
H306 H 0.25355 0.68401 0.44082 0.0
C307 C 1.05815 0.49422 0.41784 0.0
C308 C 0.0876 0.51645 0.43923 0.0
H309 H 0.20767 0.63353 0.51386 0.0
H310 H 0.14472 0.56823 0.49297 0.0
H311 H 0.23885 0.57406 0.41294 0.0
H312 H 0.15263 0.68499 0.417 0.0
H313 H 0.14206 0.66038 0.38577 0.0
H314 H 0.20141 0.69255 0.3974 0.0
H315 H 0.25017 0.63232 0.3962 0.0
H316 H 0.21028 0.57646 0.38236 0.0
C317 C 0.11141 0.46467 0.47629 0.0
C318 C 1.05258 0.52402 0.4814 0.0
C319 C 1.06052 0.52971 0.32338 0.0
C320 C 0.09187 0.56361 0.30933 0.0
C321 C 0.13195 0.59545 0.32232 0.0
C322 C 0.14023 0.59419 0.34879 0.0
C323 C 0.10828 0.56059 0.36256 0.0
C324 C 0.06956 0.52868 0.34984 0.0
C325 C 1.04053 0.49416 0.36757 0.0
C326 C 1.06764 0.51162 0.39309 0.0
C327 C 0.10703 0.55061 0.38998 0.0
C328 C 1.04271 0.43901 0.36054 0.0
C329 C 0.98966 0.505 0.36563 0.0
C330 C 0.23044 0.65821 0.45229 0.0
C331 C 0.23575 0.66286 0.47888 0.0
C332 C 0.20418 0.62999 0.49329 0.0
C333 C 0.16774 0.59245 0.48114 0.0
C334 C 0.16251 0.58871 0.45437 0.0
C335 C 0.19342 0.62169 0.4405 0.0
C336 C 0.1805 0.61559 0.41236 0.0
C337 C 0.13667 0.57339 0.41149 0.0
C338 C 0.12666 0.55703 0.43605 0.0
C339 C 0.22203 0.59909 0.40011 0.0
C340 C 0.16879 0.66586 0.40238 0.0
H341 H 0.97475 0.41982 0.39344 0.0
H342 H 1.01262 0.40727 0.48652 0.0
H343 H 1.01436 0.52363 0.47594 0.0
H344 H 0.07064 0.56422 0.48058 0.0
H345 H 1.05554 0.51148 0.50139 0.0
H346 H 0.11844 0.4345 0.46368 0.0
H347 H 0.10036 0.44713 0.49442 0.0
H348 H 0.14578 0.4915 0.48037 0.0
H349 H 1.02928 0.50481 0.31409 0.0
H350 H 0.15733 0.62108 0.31199 0.0
H351 H 0.1713 0.61946 0.35747 0.0
H352 H 0.07756 0.43721 0.3534 0.0
H353 H 1.0144 0.42278 0.34539 0.0
H354 H 1.04006 0.41385 0.37701 0.0
H355 H 0.99081 0.54598 0.36291 0.0
H356 H 0.97145 0.49586 0.38313 0.0
H357 H 0.96725 0.48402 0.34924 0.0
H358 H 0.92792 0.35356 0.41638 0.0
C359 C 0.98407 0.41843 0.4135 0.0
C360 C 0.54567 0.86251 0.8273 0.0
C361 C 0.55348 0.81789 0.81556 0.0
C362 C 0.5698 0.82097 0.7912 0.0
C363 C 0.56953 0.91036 0.7898 0.0
C364 C 0.55407 0.90874 0.81394 0.0
C365 C 0.54754 0.96085 0.82229 0.0
H366 H 0.57355 0.21309 0.79083 0.0
C367 C 0.57481 0.96245 0.78045 0.0
C368 C 0.56266 0.99335 0.79939 0.0
H369 H 0.51883 0.14876 0.85959 0.0
H370 H 0.52811 0.06482 0.84546 0.0
H371 H 0.65649 0.15518 0.78849 0.0
H372 H 0.51243 0.13185 0.75565 0.0
H373 H 0.54258 0.1094 0.73218 0.0
H374 H 0.55991 0.17485 0.74251 0.0
H375 H 0.63785 0.19123 0.76257 0.0
H376 H 0.65782 0.13343 0.75724 0.0
C377 C 0.58072 0.97851 0.84651 0.0
C378 C 0.49463 0.9574 0.8262 0.0
C379 C 0.61864 0.99638 0.68968 0.0
C380 C 0.62511 0.04046 0.67522 0.0
C381 C 0.62536 0.08708 0.68724 0.0
C382 C 0.6168 0.08952 0.71283 0.0
C383 C 0.60758 0.04483 0.72672 0.0
C384 C 0.60986 0.99952 0.71533 0.0
C385 C 0.59996 0.95625 0.73325 0.0
C386 C 0.58921 0.98288 0.7569 0.0
C387 C 0.59349 0.03447 0.7528 0.0
C388 C 0.64599 0.93503 0.73785 0.0
C389 C 0.55566 0.91762 0.72149 0.0
C390 C 0.56378 0.1812 0.80308 0.0
C391 C 0.54609 0.18784 0.82641 0.0
C392 C 0.53272 0.14474 0.84144 0.0
C393 C 0.53825 0.0962 0.83326 0.0
C394 C 0.55658 0.09061 0.80964 0.0
C395 C 0.5683 0.13327 0.79512 0.0
C396 C 0.58465 0.12232 0.77009 0.0
C397 C 0.58204 0.06618 0.77164 0.0
C398 C 0.56603 0.04652 0.79488 0.0
C399 C 0.63676 0.1522 0.76927 0.0
C400 C 0.5485 0.13545 0.74889 0.0
H401 H 0.58984 0.86525 0.75983 0.0
H402 H 0.53288 0.8612 0.84603 0.0
H403 H 0.47162 0.93868 0.8094 0.0
H404 H 0.4862 0.99498 0.82852 0.0
H405 H 0.48462 0.93498 0.84324 0.0
H406 H 0.61788 0.97593 0.84355 0.0
H407 H 0.56925 0.95453 0.86282 0.0
H408 H 0.58141 0.01819 0.85176 0.0
H409 H 0.61831 0.95997 0.68097 0.0
H410 H 0.63129 0.12172 0.67665 0.0
H411 H 0.61665 0.12616 0.72056 0.0
H412 H 0.6783 0.96339 0.73377 0.0
H413 H 0.6444 0.90124 0.72552 0.0
H414 H 0.6531 0.92533 0.75798 0.0
H415 H 0.52875 0.93745 0.71228 0.0
H416 H 0.53667 0.89332 0.73571 0.0
H417 H 0.56551 0.89323 0.70675 0.0
H418 H 0.57601 0.7875 0.78183 0.0
C419 C 0.57788 0.86646 0.7784 0.0
C420 C 0.6997 0.57858 0.15341 0.0
C421 C 0.73943 0.56991 0.13947 0.0
C422 C 0.72743 0.55476 0.11395 0.0
C423 C 0.64294 0.55754 0.11545 0.0
C424 C 0.65096 0.57163 0.14083 0.0
C425 C 0.60145 0.57671 0.1503 0.0
H426 H 0.35058 0.5477 0.10677 0.0
C427 C 0.59141 0.55386 0.1063 0.0
C428 C 0.56428 0.56422 0.1263 0.0
H429 H 0.40247 0.59506 0.18358 0.0
H430 H 0.48544 0.59108 0.17392 0.0
H431 H 0.4295 0.6259 0.08567 0.0
H432 H 0.4076 0.46685 0.09825 0.0
H433 H 0.43045 0.4746 0.06849 0.0
H434 H 0.3755 0.49369 0.07315 0.0
H435 H 0.39142 0.58061 0.06416 0.0
H436 H 0.4539 0.60302 0.06003 0.0
C437 C 0.60444 0.6309 0.16002 0.0
C438 C 0.58782 0.53864 0.17127 0.0
C439 C 0.55229 0.52067 0.01138 0.0
C440 C 0.51152 0.52031 -0.00529 0.0
C441 C 0.46886 0.52371 0.0051 0.0
C442 C 0.46743 0.52893 0.03143 0.0
C443 C 0.50934 0.53207 0.04781 0.0
C444 C 0.55048 0.5275 0.03752 0.0
C445 C 0.59188 0.53291 0.05713 0.0
C446 C 0.56945 0.5432 0.08119 0.0
C447 C 0.52103 0.5418 0.0757 0.0
C448 C 0.63015 0.57912 0.04978 0.0
C449 C 0.60755 0.48122 0.05799 0.0
C450 C 0.37886 0.55672 0.12202 0.0
C451 C 0.36765 0.5707 0.146 0.0
C452 C 0.40817 0.58366 0.16461 0.0
C453 C 0.45658 0.58125 0.1591 0.0
C454 C 0.46638 0.56688 0.13441 0.0
C455 C 0.4264 0.55609 0.11675 0.0
C456 C 0.43924 0.5469 0.09088 0.0
C457 C 0.49234 0.54988 0.09516 0.0
C458 C 0.5117 0.56162 0.12083 0.0
C459 C 0.42775 0.59089 0.07414 0.0
C460 C 0.41173 0.49299 0.08197 0.0
H461 H 0.67769 0.53715 0.08281 0.0
H462 H 0.7062 0.58968 0.17333 0.0
H463 H 0.58594 0.49949 0.16413 0.0
H464 H 0.55249 0.54083 0.17755 0.0
H465 H 0.61466 0.54641 0.18799 0.0
H466 H 0.61459 0.65828 0.14478 0.0
H467 H 0.63156 0.64039 0.17655 0.0
H468 H 0.56951 0.63536 0.16601 0.0
H469 H 0.58552 0.51667 0.00433 0.0
H470 H 0.43672 0.52374 -0.00711 0.0
H471 H 0.43358 0.5309 0.03778 0.0
H472 H 0.61384 0.60689 0.03858 0.0
H473 H 0.65626 0.5672 0.03805 0.0
H474 H 0.64945 0.60153 0.06647 0.0
H475 H 0.57739 0.44924 0.05203 0.0
H476 H 0.61979 0.47156 0.07746 0.0
H477 H 0.63597 0.48045 0.04514 0.0
H478 H 0.75478 0.54745 0.10243 0.0
C479 C 0.68117 0.54863 0.10231 0.0
C480 C 0.22738 0.52805 0.14367 0.0
C481 C 0.21065 0.57195 0.14998 0.0
H482 H 0.28667 0.49312 0.13734 0.0
C483 C 0.24756 0.61525 0.15661 0.0
H484 H 0.20172 0.49353 0.13831 0.0
C485 C 0.29754 0.61457 0.15682 0.0
C486 C 0.31405 0.57081 0.1499 0.0
H487 H 0.23785 0.65032 0.16166 0.0
H488 H 0.32337 0.64926 0.1616 0.0
C489 C 0.27708 0.52775 0.14324 0.0
C490 C 0.93651 0.25533 0.49038 0.0
C491 C 0.8866 0.24274 0.48573 0.0
H492 H 1.00111 0.30762 0.48379 0.0
C493 C 0.86332 0.27668 0.47231 0.0
H494 H 0.95561 0.22993 0.5005 0.0
C495 C 0.8894 0.32069 0.46256 0.0
C496 C 0.93928 0.33212 0.46631 0.0
H497 H 0.82486 0.26894 0.46901 0.0
H498 H 0.8706 0.34544 0.45169 0.0
C499 C 0.9626 0.29976 0.48083 0.0
C500 C 0.57649 0.69847 0.84719 0.0
C501 C 0.5393 0.66141 0.83504 0.0
H502 H 0.60965 0.77769 0.85107 0.0
C503 C 0.50324 0.6781 0.81988 0.0
H504 H 0.60502 0.68734 0.85898 0.0
C505 C 0.50537 0.72974 0.8159 0.0
C506 C 0.54375 0.76658 0.82686 0.0
H507 H 0.47441 0.6511 0.80996 0.0
H508 H 0.47852 0.74076 0.80278 0.0
C509 C 0.57884 0.7504 0.843 0.0
C510 C 0.86358 0.53134 0.14805 0.0
C511 C 0.89822 0.57737 0.15032 0.0
H512 H 0.78948 0.49277 0.14406 0.0
C513 C 0.87864 0.62132 0.1525 0.0
H514 H 0.87524 0.49606 0.14626 0.0
C515 C 0.82798 0.61926 0.15146 0.0
C516 C 0.79339 0.57305 0.14871 0.0
H517 H 0.90256 0.65803 0.15416 0.0
H518 H 0.81585 0.65449 0.15159 0.0
C519 C 0.81334 0.52932 0.14719 0.0
C520 C 0.29216 0.78892 0.51005 0.0
C521 C 0.33937 0.79494 0.50355 0.0
H522 H 0.22223 0.74127 0.50765 0.0
C523 C 0.35326 0.75387 0.49215 0.0
H524 H 0.28011 0.8198 0.51868 0.0
C525 C 0.31998 0.70937 0.48561 0.0
C526 C 0.27239 0.70465 0.4908 0.0
H527 H 0.38958 0.7566 0.48753 0.0
H528 H 0.33096 0.67933 0.47558 0.0
C529 C 0.25899 0.74399 0.50381 0.0
C530 C 0.58132 0.33032 0.83549 0.0
C531 C 0.53735 0.34444 0.83725 0.0
H532 H 0.61838 0.2703 0.83139 0.0
C533 C 0.49655 0.30552 0.83867 0.0
H534 H 0.61374 0.35873 0.83462 0.0
C535 C 0.49949 0.25411 0.83708 0.0
C536 C 0.54327 0.24051 0.83405 0.0
H537 H 0.46209 0.31471 0.84016 0.0
H538 H 0.4672 0.22515 0.83688 0.0
C539 C 0.58416 0.27938 0.83385 0.0
C540 C 0.65917 0.8395 0.51599 0.0
C541 C 0.61816 0.86001 0.51689 0.0
H542 H 0.68975 0.77356 0.52072 0.0
C543 C 0.57456 0.82641 0.51975 0.0
H544 H 0.69339 0.86396 0.51374 0.0
C545 C 0.57251 0.77467 0.52326 0.0
C546 C 0.61387 0.75468 0.52391 0.0
H547 H 0.54205 0.84032 0.52029 0.0
H548 H 0.53888 0.75061 0.52709 0.0
C549 C 0.65707 0.78749 0.51961 0.0
C550 C 0.85676 0.5308 0.77939 0.0
C551 C 0.83349 0.48604 0.7902 0.0
H552 H 0.92352 0.58081 0.77607 0.0
C553 C 0.85936 0.44859 0.79655 0.0
H554 H 0.83765 0.56007 0.77387 0.0
C555 C 0.90899 0.46045 0.79768 0.0
C556 C 0.93263 0.50991 0.7927 0.0
H557 H 0.84194 0.4131 0.80422 0.0
H558 H 0.92863 0.43385 0.80626 0.0
C559 C 0.90635 0.54272 0.78062 0.0
C560 C 0.32456 0.82713 0.17368 0.0
C561 C 0.28792 0.85198 0.16539 0.0
H562 H 0.39813 0.83451 0.18682 0.0
C563 C 0.29974 0.90446 0.16154 0.0
H564 H 0.3172 0.78662 0.17616 0.0
C565 C 0.34654 0.93166 0.16707 0.0
C566 C 0.38227 0.907 0.17676 0.0
H567 H 0.27251 0.92497 0.15533 0.0
H568 H 0.35423 0.97233 0.16512 0.0
C569 C 0.37106 0.85438 0.17948 0.0
C570 C 0.58333 0.19713 0.50094 0.0
C571 C 0.62463 0.17902 0.50876 0.0
H572 H 0.55028 0.26144 0.49759 0.0
C573 C 0.66653 0.21483 0.51657 0.0
H574 H 0.55037 0.17101 0.49477 0.0
C575 C 0.66639 0.26669 0.51792 0.0
C576 C 0.62462 0.28438 0.51117 0.0
H577 H 0.69911 0.20271 0.52269 0.0
H578 H 0.69841 0.29283 0.52553 0.0
C579 C 0.58332 0.2491 0.50223 0.0
C580 C 0.3341 0.71307 0.82516 0.0
C581 C 0.34689 0.67764 0.84233 0.0
H582 H 0.30141 0.77668 0.82006 0.0
C583 C 0.34895 0.68837 0.86852 0.0
H584 H 0.33382 0.70727 0.80483 0.0
C585 C 0.32922 0.72737 0.8772 0.0
C586 C 0.30673 0.75604 0.85975 0.0
H587 H 0.3617 0.66373 0.88235 0.0
H588 H 0.32564 0.72953 0.89741 0.0
C589 C 0.31552 0.75309 0.83395 0.0
C590 C 0.82799 0.23599 0.1676 0.0
C591 C 0.84359 0.28668 0.17609 0.0
H592 H 0.77884 0.1654 0.17151 0.0
C593 C 0.81772 0.3059 0.19383 0.0
H594 H 0.84713 0.21976 0.15409 0.0
C595 C 0.77916 0.27463 0.20394 0.0
C596 C 0.765 0.22356 0.1963 0.0
H597 H 0.82771 0.34504 0.20027 0.0
H598 H 0.76096 0.2901 0.21821 0.0
C599 C 0.78888 0.2048 0.17754 0.0
C600 C 1.05506 0.54265 0.05348 0.0
C601 C 1.05142 0.58384 0.06892 0.0
H602 H 1.06027 0.51582 0.01575 0.0
C603 C 1.05063 0.63071 0.05769 0.0
H604 H 1.05581 0.50611 0.06161 0.0
C605 C 1.05384 0.63638 0.03155 0.0
C606 C 1.05711 0.59511 0.01612 0.0
H607 H 1.04819 0.66324 0.06913 0.0
H608 H 1.05319 0.67289 0.02335 0.0
C609 C 1.05748 0.54814 0.02727 0.0
C610 C 0.65102 0.02512 0.42244 0.0
C611 C 0.61083 1.01158 0.43621 0.0
H612 H 0.67789 0.0334 0.3858 0.0
C613 C 0.56567 0.99692 0.42291 0.0
H614 H 0.68634 0.03633 0.43221 0.0
C615 C 0.56068 0.9963 0.39638 0.0
C616 C 0.60081 1.00949 0.38247 0.0
H617 H 0.53394 0.98683 0.43299 0.0
H618 H 0.52512 0.98631 0.38684 0.0
C619 C 0.64611 0.02373 0.39584 0.0
C620 C 0.52449 0.45281 0.74209 0.0
C621 C 0.55378 0.49083 0.75787 0.0
H622 H 0.50769 0.4207 0.70438 0.0
C623 C 0.58956 0.5261 0.7473 0.0
H624 H 0.49668 0.42506 0.7497 0.0
C625 C 0.59566 0.52369 0.72144 0.0
C626 C 0.5664 0.48573 0.70567 0.0
H627 H 0.61281 0.55581 0.75896 0.0
H628 H 0.62365 0.55122 0.71382 0.0
C629 C 0.5309 0.45015 0.71621 0.0
C630 C 0.65749 1.00607 0.61005 0.0
C631 C 0.62983 0.03226 0.59406 0.0
H632 H 0.67771 0.98801 0.64847 0.0
C633 C 0.60148 0.06142 0.605 0.0
H634 H 0.67958 0.98315 0.60214 0.0
C635 C 0.60054 0.06425 0.6313 0.0
C636 C 0.62779 0.03786 0.64735 0.0
H637 H 0.57967 0.08202 0.59326 0.0
H638 H 0.57764 0.08642 0.63906 0.0
C639 C 0.65625 1.00861 0.63651 0.0
C640 C 0.56004 0.53948 0.93016 0.0
C641 C 0.52143 0.51404 0.91385 0.0
H642 H 0.58651 0.56346 0.96809 0.0
C643 C 0.4788 0.49164 0.92399 0.0
H644 H 0.59309 0.55774 0.92271 0.0
C645 C 0.47541 0.49333 0.95025 0.0
C646 C 0.5143 0.51845 0.96673 0.0
H647 H 0.44862 0.47155 0.91173 0.0
H648 H 0.44266 0.47409 0.95762 0.0
C649 C 0.55633 0.54227 0.95623 0.0
C650 C 0.08626 0.61448 0.24256 0.0
C651 C 1.06898 0.57009 0.22781 0.0
H652 H 0.10573 0.64741 0.27982 0.0
C653 C 1.05826 0.52357 0.24004 0.0
H654 H 0.09445 0.65097 0.23372 0.0
C655 C 1.06551 0.52143 0.26648 0.0
C656 C 0.08317 0.56581 0.28126 0.0
H657 H 1.04514 0.48864 0.22917 0.0
H658 H 1.05817 0.48484 0.27526 0.0
C659 C 0.09301 0.61239 0.269 0.0
loop_
_geom_bond_atom_site_label_1
_geom_bond_atom_site_label_2
_geom_bond_distance
_geom_bond_site_symmetry_2
_ccdc_geom_bond_type
Dy0 O3 2.307 1_455 S
Dy0 O5 2.395 . S
Dy0 O6 2.379 . S
Dy0 O8 2.339 . S
Dy0 O10 2.298 . S
Dy0 O14 2.275 . S
Dy0 C22 2.738 . S
Dy1 O4 2.298 . S
Dy1 O7 2.275 1_655 S
Dy1 O9 2.307 1_655 S
Dy1 O11 2.395 . S
Dy1 O12 2.379 . S
Dy1 O15 2.339 . S
Dy1 C31 2.738 . S
C2 O14 1.254 . S
C2 O15 1.257 1_455 S
O3 Dy0 2.307 1_655 S
O3 C13 1.266 . S
O4 Dy1 2.298 . S
O4 C13 1.236 . S
O5 Dy0 2.395 . S
O5 C22 1.255 . S
O6 Dy0 2.379 . S
O6 C22 1.249 . S
O7 Dy1 2.275 1_455 S
O7 C23 1.254 . S
O8 Dy0 2.339 . S
O8 C23 1.257 . S
O9 Dy1 2.307 1_455 S
O9 C24 1.266 . S
O10 Dy0 2.298 . S
O10 C24 1.236 . S
O11 Dy1 2.395 . S
O11 C31 1.255 . S
O12 Dy1 2.379 . S
O12 C31 1.249 . S
C13 O3 1.266 . S
C13 O4 1.236 . S
O14 Dy0 2.275 . S
O14 C2 1.254 . S
O15 Dy1 2.339 . S
O15 C2 1.257 1_655 S
C16 C19 1.344 . S
C16 C20 1.328 . S
C16 C22 1.516 . S
C17 C18 1.304 . S
C17 C21 1.323 . S
C18 C17 1.304 . S
C18 C19 1.371 . S
C18 H32 0.930 . S
C19 C16 1.344 . S
C19 C18 1.371 . S
C19 H33 0.931 . S
C20 C16 1.328 . S
C20 C21 1.433 . S
C20 H34 0.931 . S
C21 C17 1.323 . S
C21 C20 1.433 . S
C21 H35 0.933 . S
C22 Dy0 2.738 . S
C22 O5 1.255 . S
C22 O6 1.249 . S
C22 C16 1.516 . S
C23 O7 1.254 . S
C23 O8 1.257 . S
C24 O9 1.266 . S
C24 O10 1.236 . S
C25 C28 1.344 . S
C25 C29 1.328 . S
C25 C31 1.516 . S
C26 C27 1.304 . S
C26 C30 1.323 . S
C27 C26 1.304 . S
C27 C28 1.371 . S
C27 H36 0.930 . S
C28 C25 1.344 . S
C28 C27 1.371 . S
C28 H37 0.931 . S
C29 C25 1.328 . S
C29 C30 1.433 . S
C29 H38 0.931 . S
C30 C26 1.323 . S
C30 C29 1.433 . S
C30 H39 0.933 . S
C31 Dy1 2.738 . S
C31 O11 1.255 . S
C31 O12 1.249 . S
C31 C25 1.516 . S
H32 C18 0.930 . S
H33 C19 0.931 . S
H34 C20 0.931 . S
H35 C21 0.933 . S
H36 C27 0.930 . S
H37 C28 0.931 . S
H38 C29 0.931 . S
H39 C30 0.933 . S
Dy40 O43 2.307 1_565 S
Dy40 O45 2.395 . S
Dy40 O46 2.379 . S
Dy40 O48 2.339 1_565 S
Dy40 O50 2.298 . S
Dy40 O54 2.275 1_565 S
Dy40 C62 2.738 . S
Dy41 O44 2.298 . S
Dy41 O47 2.275 . S
Dy41 O49 2.307 1_545 S
Dy41 O51 2.395 . S
Dy41 O52 2.379 . S
Dy41 O55 2.339 . S
Dy41 C71 2.738 . S
C42 O54 1.254 . S
C42 O55 1.257 . S
O43 Dy40 2.307 1_545 S
O43 C53 1.266 . S
O44 Dy41 2.298 . S
O44 C53 1.236 . S
O45 Dy40 2.395 . S
O45 C62 1.255 . S
O46 Dy40 2.379 . S
O46 C62 1.249 . S
O47 Dy41 2.275 . S
O47 C63 1.254 . S
O48 Dy40 2.339 1_545 S
O48 C63 1.257 . S
O49 Dy41 2.307 1_565 S
O49 C64 1.266 . S
O50 Dy40 2.298 . S
O50 C64 1.236 . S
O51 Dy41 2.395 . S
O51 C71 1.255 . S
O52 Dy41 2.379 . S
O52 C71 1.249 . S
C53 O43 1.266 . S
C53 O44 1.236 . S
O54 Dy40 2.275 1_545 S
O54 C42 1.254 . S
O55 Dy41 2.339 . S
O55 C42 1.257 . S
C56 C59 1.344 . S
C56 C60 1.328 . S
C56 C62 1.516 . S
C57 C58 1.304 . S
C57 C61 1.323 . S
C58 C57 1.304 . S
C58 C59 1.371 . S
C58 H72 0.930 . S
C59 C56 1.344 . S
C59 C58 1.371 . S
C59 H73 0.931 . S
C60 C56 1.328 . S
C60 C61 1.433 . S
C60 H74 0.931 . S
C61 C57 1.323 . S
C61 C60 1.433 . S
C61 H75 0.933 . S
C62 Dy40 2.738 . S
C62 O45 1.255 . S
C62 O46 1.249 . S
C62 C56 1.516 . S
C63 O47 1.254 . S
C63 O48 1.257 . S
C64 O49 1.266 . S
C64 O50 1.236 . S
C65 C68 1.344 . S
C65 C69 1.328 . S
C65 C71 1.516 . S
C66 C67 1.304 . S
C66 C70 1.323 . S
C67 C66 1.304 . S
C67 C68 1.371 . S
C67 H76 0.930 . S
C68 C65 1.344 . S
C68 C67 1.371 . S
C68 H77 0.931 . S
C69 C65 1.328 . S
C69 C70 1.433 . S
C69 H78 0.931 . S
C70 C66 1.323 . S
C70 C69 1.433 . S
C70 H79 0.933 . S
C71 Dy41 2.738 . S
C71 O51 1.255 . S
C71 O52 1.249 . S
C71 C65 1.516 . S
H72 C58 0.930 . S
H73 C59 0.931 . S
H74 C60 0.931 . S
H75 C61 0.933 . S
H76 C67 0.930 . S
H77 C68 0.931 . S
H78 C69 0.931 . S
H79 C70 0.933 . S
Dy80 O83 2.307 . S
Dy80 O85 2.395 . S
Dy80 O86 2.379 . S
Dy80 O88 2.339 . S
Dy80 O90 2.298 . S
Dy80 O94 2.275 . S
Dy80 C102 2.738 . S
Dy81 O84 2.298 . S
Dy81 O87 2.275 . S
Dy81 O89 2.307 . S
Dy81 O91 2.395 . S
Dy81 O92 2.379 . S
Dy81 O95 2.339 . S
Dy81 C111 2.738 . S
C82 O94 1.254 . S
C82 O95 1.257 . S
O83 Dy80 2.307 . S
O83 C93 1.266 . S
O84 Dy81 2.298 . S
O84 C93 1.236 . S
O85 Dy80 2.395 . S
O85 C102 1.255 . S
O86 Dy80 2.379 . S
O86 C102 1.249 . S
O87 Dy81 2.275 . S
O87 C103 1.254 . S
O88 Dy80 2.339 . S
O88 C103 1.257 . S
O89 Dy81 2.307 . S
O89 C104 1.266 . S
O90 Dy80 2.298 . S
O90 C104 1.236 . S
O91 Dy81 2.395 . S
O91 C111 1.255 . S
O92 Dy81 2.379 . S
O92 C111 1.249 . S
C93 O83 1.266 . S
C93 O84 1.236 . S
O94 Dy80 2.275 . S
O94 C82 1.254 . S
O95 Dy81 2.339 . S
O95 C82 1.257 . S
C96 C99 1.344 . S
C96 C100 1.328 . S
C96 C102 1.516 . S
C97 C98 1.304 . S
C97 C101 1.323 . S
C98 C97 1.304 . S
C98 C99 1.371 . S
C98 H112 0.930 . S
C99 C96 1.344 . S
C99 C98 1.371 . S
C99 H113 0.931 . S
C100 C96 1.328 . S
C100 C101 1.433 . S
C100 H114 0.931 . S
C101 C97 1.323 . S
C101 C100 1.433 . S
C101 H115 0.933 . S
C102 Dy80 2.738 . S
C102 O85 1.255 . S
C102 O86 1.249 . S
C102 C96 1.516 . S
C103 O87 1.254 . S
C103 O88 1.257 . S
C104 O89 1.266 . S
C104 O90 1.236 . S
C105 C108 1.344 . S
C105 C109 1.328 . S
C105 C111 1.516 . S
C106 C107 1.304 . S
C106 C110 1.323 . S
C107 C106 1.304 . S
C107 C108 1.371 . S
C107 H116 0.930 . S
C108 C105 1.344 . S
C108 C107 1.371 . S
C108 H117 0.931 . S
C109 C105 1.328 . S
C109 C110 1.433 . S
C109 H118 0.931 . S
C110 C106 1.323 . S
C110 C109 1.433 . S
C110 H119 0.933 . S
C111 Dy81 2.738 . S
C111 O91 1.255 . S
C111 O92 1.249 . S
C111 C105 1.516 . S
H112 C98 0.930 . S
H113 C99 0.931 . S
H114 C100 0.931 . S
H115 C101 0.933 . S
H116 C107 0.930 . S
H117 C108 0.931 . S
H118 C109 0.931 . S
H119 C110 0.933 . S
C120 C121 1.391 . S
C120 C124 1.391 . S
C120 H162 0.948 . S
C121 C120 1.391 . S
C121 C122 1.391 . S
C122 C121 1.391 . S
C122 H178 0.947 . S
C122 C179 1.392 . S
C123 C124 1.391 . S
C123 C127 1.397 . S
C123 C179 1.419 . S
C124 C120 1.391 . S
C124 C123 1.391 . S
C124 C125 1.399 . S
C125 C124 1.399 . S
C125 C128 1.396 . S
C125 C137 1.453 . S
C125 C138 1.684 . S
H126 C150 0.948 . S
C127 C123 1.397 . S
C127 C128 1.394 . S
C127 C146 1.723 . S
C128 C125 1.396 . S
C128 C127 1.394 . S
C128 C158 1.723 . S
H129 C152 0.947 . S
H130 C153 0.948 1_545 S
H131 C159 0.982 . S
H132 C160 0.979 1_545 S
H133 C160 0.980 . S
H134 C160 0.983 . S
H135 C159 0.979 . S
H136 C159 0.977 . S
C137 C125 1.453 . S
C137 H166 0.982 . S
C137 H167 0.979 . S
C137 H168 0.977 . S
C138 C125 1.684 . S
C138 H163 0.979 . S
C138 H164 0.980 . S
C138 H165 0.983 . S
C139 C140 1.391 . S
C139 C144 1.391 . S
C139 H169 0.948 . S
C140 C139 1.391 . S
C140 C141 1.391 . S
C141 C140 1.391 . S
C141 C142 1.392 . S
C141 H170 0.947 1_545 S
C142 C141 1.392 . S
C142 C143 1.419 . S
C142 H171 0.948 1_545 S
C143 C142 1.419 . S
C143 C144 1.391 . S
C143 C147 1.397 . S
C144 C139 1.391 . S
C144 C143 1.391 . S
C144 C145 1.399 . S
C145 C144 1.399 . S
C145 C146 1.396 . S
C145 C148 1.453 . S
C145 C149 1.684 . S
C146 C127 1.723 . S
C146 C145 1.396 . S
C146 C147 1.394 . S
C147 C143 1.397 . S
C147 C146 1.394 . S
C147 C157 1.723 . S
C148 C145 1.453 . S
C148 H172 0.982 . S
C148 H173 0.979 . S
C148 H174 0.977 . S
C149 C145 1.684 . S
C149 H175 0.979 . S
C149 H176 0.980 . S
C149 H177 0.983 . S
C150 H126 0.948 . S
C150 C151 1.391 . S
C150 C155 1.391 . S
C151 C150 1.391 . S
C151 C152 1.391 . S
C152 H129 0.947 . S
C152 C151 1.391 . S
C152 C153 1.392 . S
C153 H130 0.948 1_565 S
C153 C152 1.392 . S
C153 C154 1.419 . S
C154 C153 1.419 . S
C154 C155 1.391 . S
C154 C158 1.397 1_565 S
C155 C150 1.391 . S
C155 C154 1.391 . S
C155 C156 1.399 . S
C156 C155 1.399 . S
C156 C157 1.396 1_565 S
C156 C159 1.453 . S
C156 C160 1.684 . S
C157 C147 1.723 . S
C157 C156 1.396 1_545 S
C157 C158 1.394 . S
C158 C128 1.723 . S
C158 C154 1.397 1_545 S
C158 C157 1.394 . S
C159 H131 0.982 . S
C159 H135 0.979 . S
C159 H136 0.977 . S
C159 C156 1.453 . S
C160 H132 0.979 1_565 S
C160 H133 0.980 . S
C160 H134 0.983 . S
C160 C156 1.684 . S
H161 C179 0.948 . S
H162 C120 0.948 . S
H163 C138 0.979 . S
H164 C138 0.980 . S
H165 C138 0.983 . S
H166 C137 0.982 . S
H167 C137 0.979 . S
H168 C137 0.977 . S
H169 C139 0.948 . S
H170 C141 0.947 1_565 S
H171 C142 0.948 1_565 S
H172 C148 0.982 . S
H173 C148 0.979 . S
H174 C148 0.977 . S
H175 C149 0.979 . S
H176 C149 0.980 . S
H177 C149 0.983 . S
H178 C122 0.947 . S
C179 C122 1.392 . S
C179 C123 1.419 . S
C179 H161 0.948 . S
C180 C181 1.391 . S
C180 C184 1.391 . S
C180 H222 0.948 . S
C181 C180 1.391 . S
C181 C182 1.391 . S
C182 C181 1.391 . S
C182 H238 0.947 . S
C182 C239 1.392 . S
C183 C184 1.391 . S
C183 C187 1.397 . S
C183 C239 1.419 . S
C184 C180 1.391 . S
C184 C183 1.391 . S
C184 C185 1.399 . S
C185 C184 1.399 . S
C185 C188 1.396 . S
C185 C197 1.453 . S
C185 C198 1.684 . S
H186 C210 0.948 . S
C187 C183 1.397 . S
C187 C188 1.394 . S
C187 C206 1.723 . S
C188 C185 1.396 . S
C188 C187 1.394 . S
C188 C218 1.723 . S
H189 C212 0.947 . S
H190 C213 0.948 . S
H191 C219 0.982 . S
H192 C220 0.979 . S
H193 C220 0.980 . S
H194 C220 0.983 . S
H195 C219 0.979 . S
H196 C219 0.977 . S
C197 C185 1.453 . S
C197 H226 0.982 . S
C197 H227 0.979 . S
C197 H228 0.977 . S
C198 C185 1.684 . S
C198 H223 0.979 . S
C198 H224 0.980 . S
C198 H225 0.983 . S
C199 C200 1.391 . S
C199 C204 1.391 . S
C199 H229 0.948 . S
C200 C199 1.391 . S
C200 C201 1.391 . S
C201 C200 1.391 . S
C201 C202 1.392 . S
C201 H230 0.947 . S
C202 C201 1.392 . S
C202 C203 1.419 . S
C202 H231 0.948 . S
C203 C202 1.419 . S
C203 C204 1.391 . S
C203 C207 1.397 . S
C204 C199 1.391 . S
C204 C203 1.391 . S
C204 C205 1.399 . S
C205 C204 1.399 . S
C205 C206 1.396 . S
C205 C208 1.453 . S
C205 C209 1.684 . S
C206 C187 1.723 . S
C206 C205 1.396 . S
C206 C207 1.394 . S
C207 C203 1.397 . S
C207 C206 1.394 . S
C207 C217 1.723 . S
C208 C205 1.453 . S
C208 H232 0.982 . S
C208 H233 0.979 . S
C208 H234 0.977 . S
C209 C205 1.684 . S
C209 H235 0.979 . S
C209 H236 0.980 . S
C209 H237 0.983 . S
C210 H186 0.948 . S
C210 C211 1.391 . S
C210 C215 1.391 . S
C211 C210 1.391 . S
C211 C212 1.391 . S
C212 H189 0.947 . S
C212 C211 1.391 . S
C212 C213 1.392 . S
C213 H190 0.948 . S
C213 C212 1.392 . S
C213 C214 1.419 . S
C214 C213 1.419 . S
C214 C215 1.391 . S
C214 C218 1.397 . S
C215 C210 1.391 . S
C215 C214 1.391 . S
C215 C216 1.399 . S
C216 C215 1.399 . S
C216 C217 1.396 . S
C216 C219 1.453 . S
C216 C220 1.684 . S
C217 C207 1.723 . S
C217 C216 1.396 . S
C217 C218 1.394 . S
C218 C188 1.723 . S
C218 C214 1.397 . S
C218 C217 1.394 . S
C219 H191 0.982 . S
C219 H195 0.979 . S
C219 H196 0.977 . S
C219 C216 1.453 . S
C220 H192 0.979 . S
C220 H193 0.980 . S
C220 H194 0.983 . S
C220 C216 1.684 . S
H221 C239 0.948 . S
H222 C180 0.948 . S
H223 C198 0.979 . S
H224 C198 0.980 . S
H225 C198 0.983 . S
H226 C197 0.982 . S
H227 C197 0.979 . S
H228 C197 0.977 . S
H229 C199 0.948 . S
H230 C201 0.947 . S
H231 C202 0.948 . S
H232 C208 0.982 . S
H233 C208 0.979 . S
H234 C208 0.977 . S
H235 C209 0.979 . S
H236 C209 0.980 . S
H237 C209 0.983 . S
H238 C182 0.947 . S
C239 C182 1.392 . S
C239 C183 1.419 . S
C239 H221 0.948 . S
C240 C241 1.391 . S
C240 C244 1.391 . S
C240 H282 0.948 . S
C241 C240 1.391 . S
C241 C242 1.391 . S
C242 C241 1.391 . S
C242 H298 0.947 . S
C242 C299 1.392 . S
C243 C244 1.391 . S
C243 C247 1.397 . S
C243 C299 1.419 . S
C244 C240 1.391 . S
C244 C243 1.391 . S
C244 C245 1.399 . S
C245 C244 1.399 . S
C245 C248 1.396 . S
C245 C257 1.453 . S
C245 C258 1.684 . S
H246 C270 0.948 . S
C247 C243 1.397 . S
C247 C248 1.394 . S
C247 C266 1.723 . S
C248 C245 1.396 . S
C248 C247 1.394 . S
C248 C278 1.723 1_455 S
H249 C272 0.947 . S
H250 C273 0.948 . S
H251 C279 0.982 . S
H252 C280 0.979 . S
H253 C280 0.980 . S
H254 C280 0.983 . S
H255 C279 0.979 . S
H256 C279 0.977 . S
C257 C245 1.453 . S
C257 H286 0.982 . S
C257 H287 0.979 . S
C257 H288 0.977 1_455 S
C258 C245 1.684 . S
C258 H283 0.979 . S
C258 H284 0.980 . S
C258 H285 0.983 . S
C259 C260 1.391 . S
C259 C264 1.391 1_554 S
C259 H289 0.948 . S
C260 C259 1.391 . S
C260 C261 1.391 1_455 S
C261 C260 1.391 1_655 S
C261 C262 1.392 1_554 S
C261 H290 0.947 . S
C262 C261 1.392 1_556 S
C262 C263 1.419 1_655 S
C262 H291 0.948 . S
C263 C262 1.419 1_455 S
C263 C264 1.391 . S
C263 C267 1.397 . S
C264 C259 1.391 1_556 S
C264 C263 1.391 . S
C264 C265 1.399 . S
C265 C264 1.399 . S
C265 C266 1.396 . S
C265 C268 1.453 . S
C265 C269 1.684 . S
C266 C247 1.723 . S
C266 C265 1.396 . S
C266 C267 1.394 . S
C267 C263 1.397 . S
C267 C266 1.394 . S
C267 C277 1.723 1_455 S
C268 C265 1.453 . S
C268 H292 0.982 . S
C268 H293 0.979 . S
C268 H294 0.977 . S
C269 C265 1.684 . S
C269 H295 0.979 . S
C269 H296 0.980 . S
C269 H297 0.983 . S
C270 H246 0.948 . S
C270 C271 1.391 . S
C270 C275 1.391 . S
C271 C270 1.391 . S
C271 C272 1.391 . S
C272 H249 0.947 . S
C272 C271 1.391 . S
C272 C273 1.392 . S
C273 H250 0.948 . S
C273 C272 1.392 . S
C273 C274 1.419 . S
C274 C273 1.419 . S
C274 C275 1.391 . S
C274 C278 1.397 . S
C275 C270 1.391 . S
C275 C274 1.391 . S
C275 C276 1.399 . S
C276 C275 1.399 . S
C276 C277 1.396 . S
C276 C279 1.453 . S
C276 C280 1.684 . S
C277 C267 1.723 1_655 S
C277 C276 1.396 . S
C277 C278 1.394 . S
C278 C248 1.723 1_655 S
C278 C274 1.397 . S
C278 C277 1.394 . S
C279 H251 0.982 . S
C279 H255 0.979 . S
C279 H256 0.977 . S
C279 C276 1.453 . S
C280 H252 0.979 . S
C280 H253 0.980 . S
C280 H254 0.983 . S
C280 C276 1.684 . S
H281 C299 0.948 . S
H282 C240 0.948 . S
H283 C258 0.979 . S
H284 C258 0.980 . S
H285 C258 0.983 . S
H286 C257 0.982 . S
H287 C257 0.979 . S
H288 C257 0.977 1_655 S
H289 C259 0.948 . S
H290 C261 0.947 . S
H291 C262 0.948 . S
H292 C268 0.982 . S
H293 C268 0.979 . S
H294 C268 0.977 . S
H295 C269 0.979 . S
H296 C269 0.980 . S
H297 C269 0.983 . S
H298 C242 0.947 . S
C299 C242 1.392 . S
C299 C243 1.419 . S
C299 H281 0.948 . S
C300 C301 1.391 . S
C300 C304 1.391 . S
C300 H342 0.948 . S
C301 C300 1.391 . S
C301 C302 1.391 . S
C302 C301 1.391 . S
C302 H358 0.947 . S
C302 C359 1.392 . S
C303 C304 1.391 . S
C303 C307 1.397 . S
C303 C359 1.419 . S
C304 C300 1.391 . S
C304 C303 1.391 . S
C304 C305 1.399 . S
C305 C304 1.399 . S
C305 C308 1.396 1_655 S
C305 C317 1.453 1_655 S
C305 C318 1.684 . S
H306 C330 0.948 . S
C307 C303 1.397 . S
C307 C308 1.394 1_655 S
C307 C326 1.723 . S
C308 C305 1.396 1_455 S
C308 C307 1.394 1_455 S
C308 C338 1.723 . S
H309 C332 0.947 . S
H310 C333 0.948 . S
H311 C339 0.982 . S
H312 C340 0.979 . S
H313 C340 0.980 . S
H314 C340 0.983 . S
H315 C339 0.979 . S
H316 C339 0.977 . S
C317 C305 1.453 1_455 S
C317 H346 0.982 . S
C317 H347 0.979 . S
C317 H348 0.977 . S
C318 C305 1.684 . S
C318 H343 0.979 . S
C318 H344 0.980 1_655 S
C318 H345 0.983 . S
C319 C320 1.391 . S
C319 C324 1.391 . S
C319 H349 0.948 . S
C320 C319 1.391 . S
C320 C321 1.391 1_655 S
C321 C320 1.391 1_455 S
C321 C322 1.392 . S
C321 H350 0.947 . S
C322 C321 1.392 . S
C322 C323 1.419 . S
C322 H351 0.948 . S
C323 C322 1.419 . S
C323 C324 1.391 1_455 S
C323 C327 1.397 . S
C324 C319 1.391 . S
C324 C323 1.391 1_655 S
C324 C325 1.399 . S
C325 C324 1.399 . S
C325 C326 1.396 . S
C325 C328 1.453 . S
C325 C329 1.684 . S
C326 C307 1.723 . S
C326 C325 1.396 . S
C326 C327 1.394 1_655 S
C327 C323 1.397 . S
C327 C326 1.394 1_455 S
C327 C337 1.723 . S
C328 C325 1.453 . S
C328 H352 0.982 . S
C328 H353 0.979 . S
C328 H354 0.977 . S
C329 C325 1.684 . S
C329 H355 0.979 . S
C329 H356 0.980 . S
C329 H357 0.983 . S
C330 H306 0.948 . S
C330 C331 1.391 . S
C330 C335 1.391 . S
C331 C330 1.391 . S
C331 C332 1.391 . S
C332 H309 0.947 . S
C332 C331 1.391 . S
C332 C333 1.392 . S
C333 H310 0.948 . S
C333 C332 1.392 . S
C333 C334 1.419 . S
C334 C333 1.419 . S
C334 C335 1.391 . S
C334 C338 1.397 . S
C335 C330 1.391 . S
C335 C334 1.391 . S
C335 C336 1.399 . S
C336 C335 1.399 . S
C336 C337 1.396 . S
C336 C339 1.453 . S
C336 C340 1.684 . S
C337 C327 1.723 . S
C337 C336 1.396 . S
C337 C338 1.394 . S
C338 C308 1.723 . S
C338 C334 1.397 . S
C338 C337 1.394 . S
C339 H311 0.982 . S
C339 H315 0.979 . S
C339 H316 0.977 . S
C339 C336 1.453 . S
C340 H312 0.979 . S
C340 H313 0.980 . S
C340 H314 0.983 . S
C340 C336 1.684 . S
H341 C359 0.948 . S
H342 C300 0.948 . S
H343 C318 0.979 . S
H344 C318 0.980 1_455 S
H345 C318 0.983 . S
H346 C317 0.982 . S
H347 C317 0.979 . S
H348 C317 0.977 . S
H349 C319 0.948 . S
H350 C321 0.947 . S
H351 C322 0.948 . S
H352 C328 0.982 . S
H353 C328 0.979 . S
H354 C328 0.977 . S
H355 C329 0.979 . S
H356 C329 0.980 . S
H357 C329 0.983 . S
H358 C302 0.947 . S
C359 C302 1.392 . S
C359 C303 1.419 . S
C359 H341 0.948 . S
C360 C361 1.391 . S
C360 C364 1.391 . S
C360 H402 0.948 . S
C361 C360 1.391 . S
C361 C362 1.391 . S
C362 C361 1.391 . S
C362 H418 0.947 . S
C362 C419 1.392 . S
C363 C364 1.391 . S
C363 C367 1.397 . S
C363 C419 1.419 . S
C364 C360 1.391 . S
C364 C363 1.391 . S
C364 C365 1.399 . S
C365 C364 1.399 . S
C365 C368 1.396 . S
C365 C377 1.453 . S
C365 C378 1.684 . S
H366 C390 0.948 . S
C367 C363 1.397 . S
C367 C368 1.394 . S
C367 C386 1.723 . S
C368 C365 1.396 . S
C368 C367 1.394 . S
C368 C398 1.723 1_565 S
H369 C392 0.947 . S
H370 C393 0.948 . S
H371 C399 0.982 . S
H372 C400 0.979 . S
H373 C400 0.980 . S
H374 C400 0.983 . S
H375 C399 0.979 . S
H376 C399 0.977 . S
C377 C365 1.453 . S
C377 H406 0.982 . S
C377 H407 0.979 . S
C377 H408 0.977 1_565 S
C378 C365 1.684 . S
C378 H403 0.979 . S
C378 H404 0.983 . S
C378 H405 0.983 . S
C379 C380 1.391 1_565 S
C379 C384 1.391 . S
C379 H409 0.948 . S
C380 C379 1.391 1_545 S
C380 C381 1.391 . S
C381 C380 1.391 . S
C381 C382 1.392 . S
C381 H410 0.947 . S
C382 C381 1.392 . S
C382 C383 1.419 . S
C382 H411 0.948 . S
C383 C382 1.419 . S
C383 C384 1.391 1_545 S
C383 C387 1.397 . S
C384 C379 1.391 . S
C384 C383 1.391 1_565 S
C384 C385 1.399 . S
C385 C384 1.399 . S
C385 C386 1.396 . S
C385 C388 1.453 . S
C385 C389 1.684 . S
C386 C367 1.723 . S
C386 C385 1.396 . S
C386 C387 1.394 1_565 S
C387 C383 1.397 . S
C387 C386 1.394 1_545 S
C387 C397 1.723 . S
C388 C385 1.453 . S
C388 H412 0.982 . S
C388 H413 0.979 . S
C388 H414 0.977 . S
C389 C385 1.684 . S
C389 H415 0.979 . S
C389 H416 0.980 . S
C389 H417 0.983 . S
C390 H366 0.948 . S
C390 C391 1.391 . S
C390 C395 1.391 . S
C391 C390 1.391 . S
C391 C392 1.391 . S
C392 H369 0.947 . S
C392 C391 1.391 . S
C392 C393 1.392 . S
C393 H370 0.948 . S
C393 C392 1.392 . S
C393 C394 1.419 . S
C394 C393 1.419 . S
C394 C395 1.391 . S
C394 C398 1.397 . S
C395 C390 1.391 . S
C395 C394 1.391 . S
C395 C396 1.399 . S
C396 C395 1.399 . S
C396 C397 1.396 . S
C396 C399 1.453 . S
C396 C400 1.684 . S
C397 C387 1.723 . S
C397 C396 1.396 . S
C397 C398 1.394 . S
C398 C368 1.723 1_545 S
C398 C394 1.397 . S
C398 C397 1.394 . S
C399 H371 0.982 . S
C399 H375 0.979 . S
C399 H376 0.977 . S
C399 C396 1.453 . S
C400 H372 0.979 . S
C400 H373 0.980 . S
C400 H374 0.983 . S
C400 C396 1.684 . S
H401 C419 0.948 . S
H402 C360 0.948 . S
H403 C378 0.979 . S
H404 C378 0.983 . S
H405 C378 0.983 . S
H406 C377 0.982 . S
H407 C377 0.979 . S
H408 C377 0.977 1_545 S
H409 C379 0.948 . S
H410 C381 0.947 . S
H411 C382 0.948 . S
H412 C388 0.982 . S
H413 C388 0.979 . S
H414 C388 0.977 . S
H415 C389 0.979 . S
H416 C389 0.980 . S
H417 C389 0.983 . S
H418 C362 0.947 . S
C419 C362 1.392 . S
C419 C363 1.419 . S
C419 H401 0.948 . S
C420 C421 1.391 . S
C420 C424 1.391 . S
C420 H462 0.948 . S
C421 C420 1.391 . S
C421 C422 1.391 . S
C422 C421 1.391 . S
C422 H478 0.947 . S
C422 C479 1.392 . S
C423 C424 1.391 . S
C423 C427 1.397 . S
C423 C479 1.419 . S
C424 C420 1.391 . S
C424 C423 1.391 . S
C424 C425 1.399 . S
C425 C424 1.399 . S
C425 C428 1.396 . S
C425 C437 1.453 . S
C425 C438 1.684 . S
H426 C450 0.948 . S
C427 C423 1.397 . S
C427 C428 1.394 . S
C427 C446 1.723 . S
C428 C425 1.396 . S
C428 C427 1.394 . S
C428 C458 1.723 . S
H429 C452 0.947 . S
H430 C453 0.948 . S
H431 C459 0.982 . S
H432 C460 0.979 . S
H433 C460 0.980 . S
H434 C460 0.983 . S
H435 C459 0.979 . S
H436 C459 0.977 . S
C437 C425 1.453 . S
C437 H466 0.982 . S
C437 H467 0.979 . S
C437 H468 0.977 . S
C438 C425 1.684 . S
C438 H463 0.979 . S
C438 H464 0.980 . S
C438 H465 0.983 . S
C439 C440 1.391 1_554 S
C439 C444 1.391 . S
C439 H469 0.948 . S
C440 C439 1.391 1_556 S
C440 C441 1.391 1_556 S
C441 C440 1.391 1_554 S
C441 C442 1.392 . S
C441 H470 0.947 1_554 S
C442 C441 1.392 . S
C442 C443 1.419 . S
C442 H471 0.948 . S
C443 C442 1.419 . S
C443 C444 1.391 . S
C443 C447 1.397 . S
C444 C439 1.391 . S
C444 C443 1.391 . S
C444 C445 1.399 . S
C445 C444 1.399 . S
C445 C446 1.396 . S
C445 C448 1.453 . S
C445 C449 1.684 . S
C446 C427 1.723 . S
C446 C445 1.396 . S
C446 C447 1.394 . S
C447 C443 1.397 . S
C447 C446 1.394 . S
C447 C457 1.723 . S
C448 C445 1.453 . S
C448 H472 0.982 . S
C448 H473 0.979 . S
C448 H474 0.977 . S
C449 C445 1.684 . S
C449 H475 0.979 . S
C449 H476 0.980 . S
C449 H477 0.983 . S
C450 H426 0.948 . S
C450 C451 1.391 . S
C450 C455 1.391 . S
C451 C450 1.391 . S
C451 C452 1.391 . S
C452 H429 0.947 . S
C452 C451 1.391 . S
C452 C453 1.392 . S
C453 H430 0.948 . S
C453 C452 1.392 . S
C453 C454 1.419 . S
C454 C453 1.419 . S
C454 C455 1.391 . S
C454 C458 1.397 . S
C455 C450 1.391 . S
C455 C454 1.391 . S
C455 C456 1.399 . S
C456 C455 1.399 . S
C456 C457 1.396 . S
C456 C459 1.453 . S
C456 C460 1.684 . S
C457 C447 1.723 . S
C457 C456 1.396 . S
C457 C458 1.394 . S
C458 C428 1.723 . S
C458 C454 1.397 . S
C458 C457 1.394 . S
C459 H431 0.982 . S
C459 H435 0.979 . S
C459 H436 0.977 . S
C459 C456 1.453 . S
C460 H432 0.979 . S
C460 H433 0.980 . S
C460 H434 0.983 . S
C460 C456 1.684 . S
H461 C479 0.948 . S
H462 C420 0.948 . S
H463 C438 0.979 . S
H464 C438 0.980 . S
H465 C438 0.983 . S
H466 C437 0.982 . S
H467 C437 0.979 . S
H468 C437 0.977 . S
H469 C439 0.948 . S
H470 C441 0.947 1_556 S
H471 C442 0.948 . S
H472 C448 0.982 . S
H473 C448 0.979 . S
H474 C448 0.977 . S
H475 C449 0.979 . S
H476 C449 0.980 . S
H477 C449 0.983 . S
H478 C422 0.947 . S
C479 C422 1.392 . S
C479 C423 1.419 . S
C479 H461 0.948 . S
C480 C481 1.387 . S
C480 H484 0.950 . S
C480 C489 1.390 . S
C481 C480 1.387 . S
C481 C483 1.387 . S
H482 C489 0.950 . S
C483 C481 1.387 . S
C483 C485 1.390 . S
C483 H487 0.950 . S
H484 C480 0.950 . S
C485 C483 1.390 . S
C485 C486 1.387 . S
C485 H488 0.950 . S
C486 C485 1.387 . S
C486 C489 1.387 . S
H487 C483 0.950 . S
H488 C485 0.950 . S
C489 C480 1.390 . S
C489 H482 0.950 . S
C489 C486 1.387 . S
C490 C491 1.387 . S
C490 H494 0.950 . S
C490 C499 1.390 . S
C491 C490 1.387 . S
C491 C493 1.387 . S
H492 C499 0.950 . S
C493 C491 1.387 . S
C493 C495 1.390 . S
C493 H497 0.950 . S
H494 C490 0.950 . S
C495 C493 1.390 . S
C495 C496 1.387 . S
C495 H498 0.950 . S
C496 C495 1.387 . S
C496 C499 1.387 . S
H497 C493 0.950 . S
H498 C495 0.950 . S
C499 C490 1.390 . S
C499 H492 0.950 . S
C499 C496 1.387 . S
C500 C501 1.387 . S
C500 H504 0.950 . S
C500 C509 1.390 . S
C501 C500 1.387 . S
C501 C503 1.387 . S
H502 C509 0.950 . S
C503 C501 1.387 . S
C503 C505 1.390 . S
C503 H507 0.950 . S
H504 C500 0.950 . S
C505 C503 1.390 . S
C505 C506 1.387 . S
C505 H508 0.950 . S
C506 C505 1.387 . S
C506 C509 1.387 . S
H507 C503 0.950 . S
H508 C505 0.950 . S
C509 C500 1.390 . S
C509 H502 0.950 . S
C509 C506 1.387 . S
C510 C511 1.387 . S
C510 H514 0.950 . S
C510 C519 1.390 . S
C511 C510 1.387 . S
C511 C513 1.387 . S
H512 C519 0.950 . S
C513 C511 1.387 . S
C513 C515 1.390 . S
C513 H517 0.950 . S
H514 C510 0.950 . S
C515 C513 1.390 . S
C515 C516 1.387 . S
C515 H518 0.950 . S
C516 C515 1.387 . S
C516 C519 1.387 . S
H517 C513 0.950 . S
H518 C515 0.950 . S
C519 C510 1.390 . S
C519 H512 0.950 . S
C519 C516 1.387 . S
C520 C521 1.387 . S
C520 H524 0.950 . S
C520 C529 1.390 . S
C521 C520 1.387 . S
C521 C523 1.387 . S
H522 C529 0.950 . S
C523 C521 1.387 . S
C523 C525 1.390 . S
C523 H527 0.950 . S
H524 C520 0.950 . S
C525 C523 1.390 . S
C525 C526 1.387 . S
C525 H528 0.950 . S
C526 C525 1.387 . S
C526 C529 1.387 . S
H527 C523 0.950 . S
H528 C525 0.950 . S
C529 C520 1.390 . S
C529 H522 0.950 . S
C529 C526 1.387 . S
C530 C531 1.387 . S
C530 H534 0.950 . S
C530 C539 1.390 . S
C531 C530 1.387 . S
C531 C533 1.387 . S
H532 C539 0.950 . S
C533 C531 1.387 . S
C533 C535 1.390 . S
C533 H537 0.950 . S
H534 C530 0.950 . S
C535 C533 1.390 . S
C535 C536 1.387 . S
C535 H538 0.950 . S
C536 C535 1.387 . S
C536 C539 1.387 . S
H537 C533 0.950 . S
H538 C535 0.950 . S
C539 C530 1.390 . S
C539 H532 0.950 . S
C539 C536 1.387 . S
C540 C541 1.387 . S
C540 H544 0.950 . S
C540 C549 1.390 . S
C541 C540 1.387 . S
C541 C543 1.387 . S
H542 C549 0.950 . S
C543 C541 1.387 . S
C543 C545 1.390 . S
C543 H547 0.950 . S
H544 C540 0.950 . S
C545 C543 1.390 . S
C545 C546 1.387 . S
C545 H548 0.950 . S
C546 C545 1.387 . S
C546 C549 1.387 . S
H547 C543 0.950 . S
H548 C545 0.950 . S
C549 C540 1.390 . S
C549 H542 0.950 . S
C549 C546 1.387 . S
C550 C551 1.387 . S
C550 H554 0.950 . S
C550 C559 1.390 . S
C551 C550 1.387 . S
C551 C553 1.387 . S
H552 C559 0.950 . S
C553 C551 1.387 . S
C553 C555 1.390 . S
C553 H557 0.950 . S
H554 C550 0.950 . S
C555 C553 1.390 . S
C555 C556 1.387 . S
C555 H558 0.950 . S
C556 C555 1.387 . S
C556 C559 1.387 . S
H557 C553 0.950 . S
H558 C555 0.950 . S
C559 C550 1.390 . S
C559 H552 0.950 . S
C559 C556 1.387 . S
C560 C561 1.387 . S
C560 H564 0.950 . S
C560 C569 1.390 . S
C561 C560 1.387 . S
C561 C563 1.387 . S
H562 C569 0.950 . S
C563 C561 1.387 . S
C563 C565 1.390 . S
C563 H567 0.950 . S
H564 C560 0.950 . S
C565 C563 1.390 . S
C565 C566 1.387 . S
C565 H568 0.950 . S
C566 C565 1.387 . S
C566 C569 1.387 . S
H567 C563 0.950 . S
H568 C565 0.950 . S
C569 C560 1.390 . S
C569 H562 0.950 . S
C569 C566 1.387 . S
C570 C571 1.387 . S
C570 H574 0.950 . S
C570 C579 1.390 . S
C571 C570 1.387 . S
C571 C573 1.387 . S
H572 C579 0.950 . S
C573 C571 1.387 . S
C573 C575 1.390 . S
C573 H577 0.950 . S
H574 C570 0.950 . S
C575 C573 1.390 . S
C575 C576 1.387 . S
C575 H578 0.950 . S
C576 C575 1.387 . S
C576 C579 1.387 . S
H577 C573 0.950 . S
H578 C575 0.950 . S
C579 C570 1.390 . S
C579 H572 0.950 . S
C579 C576 1.387 . S
C580 C581 1.387 . S
C580 H584 0.950 . S
C580 C589 1.390 . S
C581 C580 1.387 . S
C581 C583 1.387 . S
H582 C589 0.950 . S
C583 C581 1.387 . S
C583 C585 1.390 . S
C583 H587 0.950 . S
H584 C580 0.950 . S
C585 C583 1.390 . S
C585 C586 1.387 . S
C585 H588 0.950 . S
C586 C585 1.387 . S
C586 C589 1.387 . S
H587 C583 0.950 . S
H588 C585 0.950 . S
C589 C580 1.390 . S
C589 H582 0.950 . S
C589 C586 1.387 . S
C590 C591 1.387 . S
C590 H594 0.950 . S
C590 C599 1.390 . S
C591 C590 1.387 . S
C591 C593 1.387 . S
H592 C599 0.950 . S
C593 C591 1.387 . S
C593 C595 1.390 . S
C593 H597 0.950 . S
H594 C590 0.950 . S
C595 C593 1.390 . S
C595 C596 1.387 . S
C595 H598 0.950 . S
C596 C595 1.387 . S
C596 C599 1.387 . S
H597 C593 0.950 . S
H598 C595 0.950 . S
C599 C590 1.390 . S
C599 H592 0.950 . S
C599 C596 1.387 . S
C600 C601 1.387 1_655 S
C600 H604 0.950 . S
C600 C609 1.390 . S
C601 C600 1.387 1_455 S
C601 C603 1.387 . S
H602 C609 0.950 . S
C603 C601 1.387 . S
C603 C605 1.390 . S
C603 H607 0.950 . S
H604 C600 0.950 . S
C605 C603 1.390 . S
C605 C606 1.387 . S
C605 H608 0.950 . S
C606 C605 1.387 . S
C606 C609 1.387 1_455 S
H607 C603 0.950 . S
H608 C605 0.950 . S
C609 C600 1.390 . S
C609 H602 0.950 . S
C609 C606 1.387 1_655 S
C610 C611 1.387 . S
C610 H614 0.950 . S
C610 C619 1.390 . S
C611 C610 1.387 . S
C611 C613 1.387 . S
H612 C619 0.950 . S
C613 C611 1.387 . S
C613 C615 1.390 . S
C613 H617 0.950 . S
H614 C610 0.950 . S
C615 C613 1.390 . S
C615 C616 1.387 . S
C615 H618 0.950 . S
C616 C615 1.387 . S
C616 C619 1.387 . S
H617 C613 0.950 . S
H618 C615 0.950 . S
C619 C610 1.390 . S
C619 H612 0.950 . S
C619 C616 1.387 . S
C620 C621 1.387 . S
C620 H624 0.950 . S
C620 C629 1.390 . S
C621 C620 1.387 . S
C621 C623 1.387 . S
H622 C629 0.950 . S
C623 C621 1.387 . S
C623 C625 1.390 . S
C623 H627 0.950 . S
H624 C620 0.950 . S
C625 C623 1.390 . S
C625 C626 1.387 . S
C625 H628 0.950 . S
C626 C625 1.387 . S
C626 C629 1.387 . S
H627 C623 0.950 . S
H628 C625 0.950 . S
C629 C620 1.390 . S
C629 H622 0.950 . S
C629 C626 1.387 . S
C630 C631 1.387 . S
C630 H634 0.950 . S
C630 C639 1.390 . S
C631 C630 1.387 . S
C631 C633 1.387 1_545 S
H632 C639 0.950 . S
C633 C631 1.387 1_565 S
C633 C635 1.390 . S
C633 H637 0.950 . S
H634 C630 0.950 . S
C635 C633 1.390 . S
C635 C636 1.387 1_565 S
C635 H638 0.950 . S
C636 C635 1.387 1_545 S
C636 C639 1.387 . S
H637 C633 0.950 . S
H638 C635 0.950 . S
C639 C630 1.390 . S
C639 H632 0.950 . S
C639 C636 1.387 . S
C640 C641 1.387 . S
C640 H644 0.950 . S
C640 C649 1.390 . S
C641 C640 1.387 . S
C641 C643 1.387 . S
H642 C649 0.950 . S
C643 C641 1.387 . S
C643 C645 1.390 . S
C643 H647 0.950 . S
H644 C640 0.950 . S
C645 C643 1.390 . S
C645 C646 1.387 . S
C645 H648 0.950 . S
C646 C645 1.387 . S
C646 C649 1.387 . S
H647 C643 0.950 . S
H648 C645 0.950 . S
C649 C640 1.390 . S
C649 H642 0.950 . S
C649 C646 1.387 . S
C650 C651 1.387 . S
C650 H654 0.950 . S
C650 C659 1.390 . S
C651 C650 1.387 . S
C651 C653 1.387 1_455 S
H652 C659 0.950 . S
C653 C651 1.387 1_655 S
C653 C655 1.390 . S
C653 H657 0.950 . S
H654 C650 0.950 . S
C655 C653 1.390 . S
C655 C656 1.387 . S
C655 H658 0.950 . S
C656 C655 1.387 . S
C656 C659 1.387 1_655 S
H657 C653 0.950 . S
H658 C655 0.950 . S
C659 C650 1.390 . S
C659 H652 0.950 . S
C659 C656 1.387 1_455 S
C481 C24 3.051 . S
C486 C451 3.036 . S
C491 C66 1.257 . S
C496 C301 1.333 . S
C501 C93 1.991 . S
C506 C361 1.781 . S
C511 C13 3.191 . S
C516 C421 2.975 . S
C526 C331 1.378 . S
C521 C57 1.366 . S
C536 C391 2.098 . S
C531 C104 2.091 . S
C541 C64 2.060 . S
C546 C181 1.838 . S
C551 C97 0.888 . S
C556 C271 0.924 . S
C561 C17 1.413 . S
C566 C151 1.431 . S
C576 C211 1.962 . S
C571 C53 2.004 . S
C586 C241 0.471 . S
C581 C106 0.652 . S
C591 C26 1.280 . S
C596 C121 1.345 . S
C606 C260 1.039 . S
C601 C2 1.065 . S
C611 C63 1.456 . S
C616 C140 1.460 . S
C621 C82 1.365 . S
C626 C200 1.340 . S
C636 C380 1.390 . S
C631 C42 1.384 . S
C646 C440 1.790 . S
C641 C103 1.760 . S
C651 C23 1.482 . S
C656 C320 1.476 . S
