# Generated by pormake.
# Topology zzz, (3,6)-cn, num edge types: 1
# Building blocks:
#     Node 0, Type 0, BuildingBlock: QEWDON_clean_linker_0, # of connection points: 3
#     Node 1, Type 0, BuildingBlock: QEWDON_clean_linker_0, # of connection points: 3
#     Node 2, Type 0, BuildingBlock: QEWDON_clean_linker_0, # of connection points: 3
#     Node 3, Type 0, BuildingBlock: QEWDON_clean_linker_0, # of connection points: 3
#     Node 4, Type 0, BuildingBlock: QEWDON_clean_linker_0, # of connection points: 3
#     Node 5, Type 0, BuildingBlock: QEWDON_clean_linker_0, # of connection points: 3
#     Node 6, Type 0, BuildingBlock: QEWDON_clean_linker_0, # of connection points: 3
#     Node 7, Type 0, BuildingBlock: QEWDON_clean_linker_0, # of connection points: 3
#     Node 8, Type 1, BuildingBlock: BETFAJ_clean_sbu_0, # of connection points: 6
#     Node 9, Type 1, BuildingBlock: BETFAJ_clean_sbu_0, # of connection points: 6
#     Node 10, Type 1, BuildingBlock: BETFAJ_clean_sbu_0, # of connection points: 6
#     Node 11, Type 1, BuildingBlock: BETFAJ_clean_sbu_0, # of connection points: 6
#     Edge 12, Type (0, 1), BuildingBlock: ZUJKAS_clean_linker_0, # of connection points: 2
#     Edge 13, Type (0, 1), BuildingBlock: ZUJKAS_clean_linker_0, # of connection points: 2
#     Edge 14, Type (0, 1), BuildingBlock: ZUJKAS_clean_linker_0, # of connection points: 2
#     Edge 15, Type (0, 1), BuildingBlock: ZUJKAS_clean_linker_0, # of connection points: 2
#     Edge 16, Type (0, 1), BuildingBlock: ZUJKAS_clean_linker_0, # of connection points: 2
#     Edge 17, Type (0, 1), BuildingBlock: ZUJKAS_clean_linker_0, # of connection points: 2
#     Edge 18, Type (0, 1), BuildingBlock: ZUJKAS_clean_linker_0, # of connection points: 2
#     Edge 19, Type (0, 1), BuildingBlock: ZUJKAS_clean_linker_0, # of connection points: 2
#     Edge 20, Type (0, 1), BuildingBlock: ZUJKAS_clean_linker_0, # of connection points: 2
#     Edge 21, Type (0, 1), BuildingBlock: ZUJKAS_clean_linker_0, # of connection points: 2
#     Edge 22, Type (0, 1), BuildingBlock: ZUJKAS_clean_linker_0, # of connection points: 2
#     Edge 23, Type (0, 1), BuildingBlock: ZUJKAS_clean_linker_0, # of connection points: 2
#     Edge 24, Type (0, 1), BuildingBlock: ZUJKAS_clean_linker_0, # of connection points: 2
#     Edge 25, Type (0, 1), BuildingBlock: ZUJKAS_clean_linker_0, # of connection points: 2
#     Edge 26, Type (0, 1), BuildingBlock: ZUJKAS_clean_linker_0, # of connection points: 2
#     Edge 27, Type (0, 1), BuildingBlock: ZUJKAS_clean_linker_0, # of connection points: 2
#     Edge 28, Type (0, 1), BuildingBlock: ZUJKAS_clean_linker_0, # of connection points: 2
#     Edge 29, Type (0, 1), BuildingBlock: ZUJKAS_clean_linker_0, # of connection points: 2
#     Edge 30, Type (0, 1), BuildingBlock: ZUJKAS_clean_linker_0, # of connection points: 2
#     Edge 31, Type (0, 1), BuildingBlock: ZUJKAS_clean_linker_0, # of connection points: 2
#     Edge 32, Type (0, 1), BuildingBlock: ZUJKAS_clean_linker_0, # of connection points: 2
#     Edge 33, Type (0, 1), BuildingBlock: ZUJKAS_clean_linker_0, # of connection points: 2
#     Edge 34, Type (0, 1), BuildingBlock: ZUJKAS_clean_linker_0, # of connection points: 2
#     Edge 35, Type (0, 1), BuildingBlock: ZUJKAS_clean_linker_0, # of connection points: 2
# Relax obj value: 0.141
# Max RMSD: 0.161
# Mean RMSD: 0.121
data_MOF--net-zzz--node1-BETFAJ_clean_sbu_0--node2-QEWDON_clean_linker_0--edge1-ZUJKAS_clean_linker_0
_symmetry_space_group_name_H-M    P1
_symmetry_Int_Tables_number       1
_symmetry_cell_setting            triclinic
loop_
_symmetry_equiv_pos_as_xyz
'x, y, z'
_cell_length_a     72.170872
_cell_length_b     72.204342
_cell_length_c     16.261114
_cell_angle_alpha  89.896309
_cell_angle_beta   90.218161
_cell_angle_gamma 90.006953
loop_
_atom_site_label
_atom_site_type_symbol
_atom_site_fract_x
_atom_site_fract_y
_atom_site_fract_z
_atom_type_partial_charge
H0 H 0.75483 0.5125 0.16502 0.0
C1 C 0.76518 0.5107 0.21266 0.0
C2 C 0.78224 0.50302 0.19067 0.0
C3 C 0.76183 0.51678 0.29367 0.0
H4 H 0.80995 0.49689 0.23105 0.0
C5 C 0.79637 0.50171 0.24967 0.0
C6 C 0.79389 0.50809 0.33013 0.0
C7 C 0.77648 0.51545 0.35227 0.0
C8 C 0.74349 0.52559 0.3139 0.0
H9 H 0.77452 0.52007 0.41487 0.0
C10 C 0.72719 0.52118 0.26883 0.0
C11 C 0.71044 0.53087 0.28136 0.0
C12 C 0.74231 0.53939 0.37474 0.0
H13 H 0.75437 0.54369 0.40947 0.0
C14 C 0.7256 0.54848 0.38979 0.0
H15 H 0.72738 0.51021 0.22364 0.0
C16 C 0.70985 0.54441 0.34324 0.0
H17 H 0.69735 0.5523 0.35421 0.0
H18 H 0.72499 0.55915 0.43638 0.0
H19 H 0.04412 0.75108 0.19044 0.0
C20 C 0.04031 0.76218 0.23164 0.0
C21 C 0.04644 0.78009 0.21286 0.0
C22 C 0.02981 0.75866 0.30319 0.0
H23 H 0.04696 0.80859 0.25181 0.0
C24 C 0.04256 0.79463 0.26699 0.0
C25 C 0.03223 0.79179 0.3383 0.0
C26 C 0.02545 0.77388 0.3554 0.0
C27 C 0.02423 0.7391 0.3245 0.0
H28 H 0.01699 0.77196 0.40953 0.0
C29 C 0.02223 0.72514 0.26339 0.0
C30 C 0.01884 0.70646 0.2851 0.0
C31 C 0.02198 0.7339 0.40743 0.0
H32 H 0.02389 0.74374 0.4568 0.0
C33 C 0.01781 0.71567 0.4288 0.0
H34 H 0.02369 0.72856 0.19899 0.0
C35 C 0.01634 0.70206 0.36853 0.0
H36 H 1.01328 0.688 0.38744 0.0
H37 H 0.01608 0.71198 0.49287 0.0
H38 H 0.78056 1.01357 0.15507 0.0
C39 C 0.77074 1.01491 0.20477 0.0
C40 C 0.75268 0.0204 0.18496 0.0
C41 C 0.77567 1.01035 0.28658 0.0
H42 H 0.72519 0.02546 0.23012 0.0
C43 C 0.73922 0.02136 0.24629 0.0
C44 C 0.74338 0.01676 0.32764 0.0
C45 C 0.76163 1.0114 0.34802 0.0
C46 C 0.79507 1.00372 0.30617 0.0
H47 H 0.76469 1.00831 0.41171 0.0
C48 C 0.81046 1.00807 0.25497 0.0
C49 C 0.82826 1.00055 0.27034 0.0
C50 C 0.79826 0.99212 0.37458 0.0
H51 H 0.7871 0.98773 0.41424 0.0
C52 C 0.81594 0.98541 0.39222 0.0
H53 H 0.80868 0.01699 0.20212 0.0
C54 C 0.83078 0.98952 0.34083 0.0
H55 H 0.84427 0.98394 0.35632 0.0
H56 H 0.8181 0.97664 0.44546 0.0
H57 H 0.5248 0.7814 0.17203 0.0
C58 C 0.52263 0.77121 0.21992 0.0
C59 C 0.51743 0.75334 0.19645 0.0
C60 C 0.52589 0.77553 0.30344 0.0
H61 H 0.51181 0.72554 0.23647 0.0
C62 C 0.5155 0.73946 0.25575 0.0
C63 C 0.51887 0.74304 0.33889 0.0
C64 C 0.52396 0.76112 0.3628 0.0
C65 C 0.53222 0.7947 0.32707 0.0
H66 H 0.52619 0.76379 0.42751 0.0
C67 C 0.52794 0.81046 0.27794 0.0
C68 C 0.53532 0.82812 0.29658 0.0
C69 C 0.54352 0.7973 0.39696 0.0
H70 H 0.54774 0.78578 0.43525 0.0
C71 C 0.55014 0.81483 0.41761 0.0
H72 H 0.51923 0.80906 0.2241 0.0
C73 C 0.54617 0.83008 0.36797 0.0
H74 H 0.5517 0.84346 0.38548 0.0
H75 H 0.55874 0.81656 0.47176 0.0
H76 H 0.28324 0.52626 0.20188 0.0
C77 C 0.2727 0.52201 0.15837 0.0
C78 C 0.25433 0.52102 0.18538 0.0
C79 C 0.27732 0.51793 0.07606 0.0
H80 H 0.22596 0.51672 0.14941 0.0
C81 C 0.24027 0.51658 0.12926 0.0
C82 C 0.24416 0.51308 0.04655 0.0
C83 C 0.26274 0.51359 0.02014 0.0
C84 C 0.2972 0.5189 0.04893 0.0
H85 H 0.26567 0.5104 0.95653 0.0
C86 C 0.31203 0.51564 0.10482 0.0
C87 C 0.33069 0.51787 0.08071 0.0
C88 C 0.30159 0.52389 0.96755 0.0
H89 H 0.29088 0.52705 0.92302 0.0
C90 C 0.31999 0.5254 0.94254 0.0
H91 H 0.30915 0.51169 0.16765 0.0
C92 C 0.33441 0.52247 0.99836 0.0
H93 H 0.34852 0.52385 0.97682 0.0
H94 H 0.32311 0.52916 0.87961 0.0
H95 H 1.00729 0.28035 0.20316 0.0
C96 C 1.01095 0.26986 0.15859 0.0
C97 C 1.01241 0.25146 0.18515 0.0
C98 C 1.01361 0.27462 0.07528 0.0
H99 H 0.01661 0.22317 0.14772 0.0
C100 C 0.01625 0.23751 0.12782 0.0
C101 C 0.01831 0.24156 0.04423 0.0
C102 C 0.01711 0.26016 0.01802 0.0
C103 C 1.01171 0.2945 0.04873 0.0
H104 H 0.01905 0.26322 0.95346 0.0
C105 C 0.01603 0.30932 0.10288 0.0
C106 C 1.01293 0.32797 0.07992 0.0
C107 C 1.00466 0.29885 0.97024 0.0
H108 H 1.00067 0.2881 0.92746 0.0
C109 C 1.00201 0.31723 0.94645 0.0
H110 H 0.02195 0.30645 0.16281 0.0
C111 C 1.00598 0.33165 0.00068 0.0
H112 H 1.00311 0.3457 0.98103 0.0
H113 H 0.99644 0.32032 0.88606 0.0
H114 H 0.25451 1.00556 0.20522 0.0
C115 C 0.2651 1.00989 0.16226 0.0
C116 C 0.28343 1.01094 0.19002 0.0
C117 C 0.26055 1.0138 0.07962 0.0
H118 H 0.31182 1.01562 0.15603 0.0
C119 C 0.29754 1.01558 0.13485 0.0
C120 C 0.29376 0.01876 0.0516 0.0
C121 C 0.27519 0.01796 0.024 0.0
C122 C 0.24069 1.01237 0.05202 0.0
H123 H 0.27227 0.02073 0.9598 0.0
C124 C 0.22583 0.01628 0.10642 0.0
C125 C 0.20716 1.01341 0.08275 0.0
C126 C 0.23639 1.00608 0.97242 0.0
H127 H 0.2472 1.00248 0.92935 0.0
C128 C 0.21801 1.00362 0.94796 0.0
H129 H 0.22873 0.02168 0.16717 0.0
C130 C 0.20355 1.00709 0.00248 0.0
H131 H 0.18952 1.00433 0.98206 0.0
H132 H 0.21496 0.99857 0.88674 0.0
H133 H 0.50961 0.25392 0.19402 0.0
C134 C 0.50973 0.26374 0.1437 0.0
C135 C 0.50186 0.2813 0.15596 0.0
C136 C 0.51847 0.25917 0.06887 0.0
H137 H 0.49764 0.30838 0.10217 0.0
C138 C 0.50274 0.29443 0.09231 0.0
C139 C 0.51144 0.29048 0.01791 0.0
C140 C 0.5192 0.27283 0.00584 0.0
C141 C 0.52802 0.24078 0.05991 0.0
H142 H 0.52583 0.26992 0.9477 0.0
C143 C 0.52182 0.22477 0.10265 0.0
C144 C 0.53178 0.20793 0.09928 0.0
C145 C 0.54419 0.23933 0.01214 0.0
H146 H 0.54986 0.25122 0.98041 0.0
C147 C 0.5538 0.22264 0.00689 0.0
H148 H 0.5092 0.22531 0.13832 0.0
C149 C 0.54778 0.20712 0.0503 0.0
H150 H 0.55602 0.19462 0.04716 0.0
H151 H 0.56629 0.22184 0.97042 0.0
Sm152 Sm 0.02529 1.01161 0.76869 0.0
Sm153 Sm 1.00931 0.02419 0.58423 0.0
C154 C 0.02712 0.99383 0.90897 0.0
C155 C 0.03456 0.97507 0.92306 0.0
C156 C 0.02245 0.96103 0.94896 0.0
C157 C 0.0274 0.94245 0.94058 0.0
C158 C 0.04466 0.9376 0.90735 0.0
C159 C 0.05735 0.95159 0.88732 0.0
C160 C 0.05229 0.9702 0.89443 0.0
C161 C 0.05338 1.01452 0.65229 0.0
C162 C 0.01706 0.98014 0.61928 0.0
C163 C 1.00629 0.04241 0.44586 0.0
C164 C 0.99788 0.06087 0.439 0.0
C165 C 1.00679 0.07469 0.39346 0.0
C166 C 1.0025 0.09332 0.40687 0.0
C167 C 0.98937 0.09839 0.46667 0.0
C168 C 0.97953 0.08443 0.50776 0.0
C169 C 0.98377 0.06585 0.49414 0.0
C170 C 0.98129 0.02099 0.70106 0.0
C171 C 0.01802 0.05578 0.73246 0.0
O172 O 1.01208 0.99414 0.8635 0.0
O173 O 0.03906 1.00688 0.88944 0.0
O174 O 0.03621 0.01681 0.64304 0.0
O175 O 0.05642 1.01074 0.72943 0.0
O176 O 0.02006 0.9841 0.69812 0.0
O177 O 1.01401 0.99301 0.5622 0.0
O178 O 0.02165 0.04232 0.48922 0.0
O179 O 0.99504 0.02871 0.46452 0.0
O180 O 0.9985 0.01909 0.70987 0.0
O181 O 0.97816 0.02447 0.62385 0.0
O182 O 1.01491 0.05171 0.65388 0.0
O183 O 0.02099 0.04294 0.78981 0.0
H184 H 1.00867 0.96441 0.97049 0.0
H185 H 0.01751 0.93184 0.9576 0.0
H186 H 0.07075 0.94813 0.86177 0.0
H187 H 0.06187 0.98067 0.87289 0.0
H188 H 0.0179 0.07117 0.35169 0.0
H189 H 1.01003 0.10379 0.37285 0.0
H190 H 0.96944 0.08784 0.55446 0.0
H191 H 0.97693 0.05549 0.53142 0.0
Sm192 Sm 0.52357 0.02745 0.77069 0.0
Sm193 Sm 0.51292 1.00825 0.60661 0.0
C194 C 0.54188 0.03844 0.90176 0.0
C195 C 0.56111 0.04526 0.90384 0.0
C196 C 0.57398 0.03696 0.95705 0.0
C197 C 0.59293 0.03999 0.9462 0.0
C198 C 0.59932 0.05138 0.88194 0.0
C199 C 0.58638 0.06064 0.83216 0.0
C200 C 0.56745 0.0575 0.84259 0.0
C201 C 0.5144 0.05112 0.64398 0.0
C202 C 0.55688 1.01543 0.63654 0.0
C203 C 0.49654 1.00276 0.46453 0.0
C204 C 0.47853 0.99375 0.4522 0.0
C205 C 0.46643 1.00015 0.39099 0.0
C206 C 0.44773 0.99511 0.39277 0.0
C207 C 0.44087 0.98376 0.45633 0.0
C208 C 0.4533 0.97647 0.51444 0.0
C209 C 0.47194 0.98146 0.51249 0.0
C210 C 0.5149 0.98118 0.72782 0.0
C211 C 0.48052 0.01768 0.7462 0.0
O212 O 0.54021 0.02094 0.88223 0.0
O213 O 0.52978 0.049 0.86416 0.0
O214 O 0.52412 0.03663 0.63736 0.0
O215 O 0.50939 0.05361 0.7198 0.0
O216 O 0.55221 0.02187 0.70995 0.0
O217 O 0.54425 1.00999 0.58249 0.0
O218 O 0.49544 0.01851 0.5041 0.0
O219 O 0.51004 0.99209 0.49114 0.0
O220 O 0.51769 0.99828 0.73648 0.0
O221 O 0.51142 0.97775 0.65117 0.0
O222 O 0.48481 0.01578 0.66751 0.0
O223 O 0.49353 0.01986 0.80295 0.0
H224 H 0.56943 0.02734 0.00405 0.0
H225 H 0.60263 0.03294 0.98651 0.0
H226 H 0.5909 0.0694 0.78194 0.0
H227 H 0.55787 0.06385 0.79951 0.0
H228 H 0.47119 1.00985 0.34478 0.0
H229 H 0.43848 1.00072 0.34639 0.0
H230 H 0.44844 0.96788 0.56461 0.0
H231 H 0.48093 0.97665 0.56147 0.0
Sm232 Sm 0.51045 0.52179 0.77036 0.0
Sm233 Sm 0.52741 0.51264 0.61076 0.0
C234 C 0.50232 0.53936 0.90686 0.0
C235 C 0.5013 0.55969 0.91721 0.0
C236 C 0.51724 0.57065 0.90657 0.0
C237 C 0.51579 0.5898 0.89815 0.0
C238 C 0.49839 0.5985 0.90044 0.0
C239 C 0.48254 0.58768 0.91514 0.0
C240 C 0.48399 0.56846 0.92367 0.0
C241 C 0.48487 0.5131 0.65071 0.0
C242 C 0.52213 0.55598 0.64059 0.0
C243 C 0.53327 0.49549 0.47085 0.0
C244 C 0.5267 0.4768 0.44886 0.0
C245 C 0.50812 0.47177 0.46279 0.0
C246 C 0.50272 0.45323 0.45995 0.0
C247 C 0.51578 0.43931 0.44377 0.0
C248 C 0.53414 0.44446 0.42556 0.0
C249 C 0.53953 0.46304 0.42799 0.0
C250 C 0.55322 0.52107 0.72995 0.0
C251 C 0.51613 0.47883 0.74103 0.0
O252 O 0.5188 0.53249 0.89285 0.0
O253 O 0.48957 0.53215 0.85933 0.0
O254 O 0.49898 0.52321 0.64096 0.0
O255 O 0.48366 0.50739 0.72637 0.0
O256 O 0.51759 0.55079 0.7159 0.0
O257 O 0.52576 0.54366 0.5832 0.0
O258 O 0.52049 0.5082 0.47916 0.0
O259 O 0.54566 0.49595 0.52973 0.0
O260 O 0.53898 0.51115 0.74022 0.0
O261 O 0.5546 0.52638 0.65374 0.0
O262 O 0.51775 0.48416 0.66347 0.0
O263 O 0.51512 0.4912 0.80031 0.0
H264 H 0.53081 0.56441 0.9005 0.0
H265 H 0.52825 0.59769 0.88617 0.0
H266 H 0.46898 0.59405 0.91887 0.0
H267 H 0.47148 0.56036 0.93158 0.0
H268 H 0.49789 0.48201 0.48002 0.0
H269 H 0.48843 0.44975 0.47293 0.0
H270 H 0.5446 0.43407 0.41365 0.0
H271 H 0.55395 0.46655 0.4182 0.0
Sm272 Sm 1.01493 0.51088 0.75935 0.0
Sm273 Sm 0.02563 0.52809 0.59015 0.0
C274 C 0.99817 0.50881 0.90159 0.0
C275 C 0.97882 0.50315 0.91435 0.0
C276 C 0.96678 0.51533 0.95477 0.0
C277 C 0.94765 0.51359 0.94462 0.0
C278 C 0.94028 0.49953 0.89457 0.0
C279 C 0.95222 0.48644 0.85969 0.0
C280 C 0.97137 0.4883 0.86898 0.0
C281 C 1.01586 0.48266 0.64373 0.0
C282 C 0.98267 0.51884 0.61654 0.0
C283 C 0.04395 0.53762 0.4575 0.0
C284 C 0.06311 0.54459 0.45579 0.0
C285 C 0.07611 0.53624 0.404 0.0
C286 C 0.09503 0.53933 0.41625 0.0
C287 C 0.10124 0.5508 0.48063 0.0
C288 C 0.08815 0.56012 0.52886 0.0
C289 C 0.06926 0.55694 0.51695 0.0
C290 C 0.01708 0.55308 0.71208 0.0
C291 C 0.05887 0.51611 0.72666 0.0
O292 O 0.99975 0.52437 0.86067 0.0
O293 O 1.00978 0.49597 0.8769 0.0
O294 O 0.01905 0.4996 0.63189 0.0
O295 O 1.01236 0.47999 0.72106 0.0
O296 O 0.98701 0.51821 0.69571 0.0
O297 O 0.99561 0.52003 0.55936 0.0
O298 O 0.04242 0.52036 0.48133 0.0
O299 O 0.03164 0.54849 0.49135 0.0
O300 O 0.02668 0.53856 0.72098 0.0
O301 O 1.01185 0.55494 0.63599 0.0
O302 O 0.05418 0.5223 0.65256 0.0
O303 O 0.04632 0.51131 0.78185 0.0
H304 H 0.97221 0.52702 0.98891 0.0
H305 H 0.93863 0.5237 0.97303 0.0
H306 H 0.94683 0.47552 0.82075 0.0
H307 H 0.98031 0.47891 0.8357 0.0
H308 H 0.07169 0.52652 0.35717 0.0
H309 H 0.10483 0.53225 0.37702 0.0
H310 H 0.09251 0.56893 0.57918 0.0
H311 H 0.05956 0.5633 0.55904 0.0
H312 H 0.17216 0.027 0.05064 0.0
H313 H 0.14572 0.02876 0.1438 0.0
H314 H 0.17969 1.00821 0.34229 0.0
H315 H 0.20615 1.00585 0.24909 0.0
H316 H 0.12993 0.9982 0.23672 0.0
H317 H 0.15432 0.05538 0.43779 0.0
H318 H 0.16387 0.05123 0.33695 0.0
H319 H 0.17059 0.03687 0.42223 0.0
C320 C 0.17408 0.02277 0.114 0.0
C321 C 0.19143 0.01618 0.14177 0.0
C322 C 0.15891 0.02389 0.16736 0.0
C323 C 0.16069 0.01873 0.25025 0.0
C324 C 0.17802 1.01253 0.27887 0.0
H325 H 0.09035 1.01138 0.67731 0.0
H326 H 0.11527 1.01268 0.57664 0.0
C327 C 0.1932 1.01127 0.22538 0.0
C328 C 0.14426 0.01918 0.30586 0.0
H329 H 0.12731 0.03942 0.47994 0.0
C330 C 0.12927 1.00729 0.28966 0.0
C331 C 0.14341 0.03101 0.37495 0.0
C332 C 0.15881 0.04448 0.39403 0.0
C333 C 0.11377 1.00646 0.34207 0.0
C334 C 0.11292 0.01826 0.41164 0.0
C335 C 0.12783 0.03037 0.42684 0.0
C336 C 0.09729 0.0176 0.47204 0.0
C337 C 0.09883 0.9924 0.32405 0.0
C338 C 0.07868 0.02006 0.44765 0.0
C339 C 0.06426 0.0191 0.50558 0.0
C340 C 0.0682 0.01602 0.58921 0.0
C341 C 0.0868 1.01384 0.61343 0.0
C342 C 0.10112 1.01462 0.55577 0.0
H343 H 0.1039 0.98121 0.28306 0.0
H344 H 0.09358 0.98601 0.38157 0.0
H345 H 0.08709 0.99937 0.29249 0.0
H346 H 0.07528 0.02277 0.38388 0.0
H347 H 0.0501 0.0206 0.48482 0.0
H348 H 0.53302 0.17119 0.05535 0.0
H349 H 0.52774 0.1441 0.14253 0.0
H350 H 0.51275 0.17973 0.34387 0.0
H351 H 0.51841 0.207 0.25767 0.0
H352 H 0.54702 0.13695 0.29438 0.0
H353 H 0.47079 0.14021 0.33782 0.0
H354 H 0.48243 0.15216 0.25505 0.0
H355 H 0.48319 0.16135 0.35751 0.0
C356 C 0.52856 0.17334 0.11812 0.0
C357 C 0.52628 0.19139 0.14938 0.0
C358 C 0.52546 0.15779 0.16779 0.0
C359 C 0.51975 0.15984 0.24964 0.0
C360 C 0.51687 0.17777 0.28051 0.0
H361 H 0.50129 0.08624 0.66303 0.0
H362 H 0.50243 0.11183 0.56465 0.0
C363 C 0.52007 0.19338 0.23093 0.0
C364 C 0.51799 0.14327 0.30391 0.0
H365 H 0.48718 0.11821 0.41817 0.0
C366 C 0.53392 0.13277 0.32109 0.0
C367 C 0.50092 0.13788 0.33911 0.0
C368 C 0.48329 0.14836 0.32117 0.0
C369 C 0.53337 0.11733 0.37404 0.0
C370 C 0.51626 0.11183 0.40906 0.0
C371 C 0.50029 0.1223 0.39128 0.0
C372 C 0.51479 0.09577 0.46691 0.0
C373 C 0.55131 0.10754 0.39423 0.0
C374 C 0.52091 0.07796 0.44456 0.0
C375 C 0.52046 0.06329 0.50132 0.0
C376 C 0.51359 0.06606 0.58113 0.0
C377 C 0.50673 0.08365 0.60215 0.0
C378 C 0.50736 0.09832 0.54581 0.0
H379 H 0.56353 0.11647 0.38184 0.0
H380 H 0.55175 0.10319 0.45973 0.0
H381 H 0.55255 0.09501 0.35528 0.0
H382 H 0.5262 0.07543 0.3834 0.0
H383 H 0.52569 0.04986 0.48306 0.0
H384 H 0.36208 0.53913 0.09115 0.0
H385 H 0.38791 0.53625 0.18725 0.0
H386 H 0.36032 0.49081 0.30799 0.0
H387 H 0.33472 0.49299 0.20911 0.0
H388 H 0.38889 0.54036 0.35056 0.0
H389 H 0.4111 0.4689 0.27392 0.0
H390 H 0.3949 0.4817 0.21103 0.0
H391 H 0.38727 0.4706 0.30406 0.0
C392 C 0.36159 0.52825 0.13702 0.0
C393 C 0.34631 0.51614 0.14128 0.0
C394 C 0.37636 0.52674 0.1926 0.0
C395 C 0.37631 0.51311 0.25426 0.0
C396 C 0.36095 0.50117 0.25988 0.0
H397 H 0.45297 0.49287 0.6634 0.0
H398 H 0.42667 0.49227 0.56721 0.0
C399 C 0.34616 0.50261 0.20384 0.0
C400 C 0.39212 0.51191 0.31362 0.0
H401 H 0.42595 0.48308 0.38813 0.0
C402 C 0.39699 0.52782 0.35847 0.0
C403 C 0.40277 0.49557 0.32428 0.0
C404 C 0.3989 0.47826 0.27528 0.0
C405 C 0.41207 0.52784 0.41353 0.0
C406 C 0.42272 0.51155 0.42387 0.0
C407 C 0.41776 0.49556 0.38006 0.0
C408 C 0.43913 0.51103 0.47958 0.0
C409 C 0.41641 0.54525 0.46102 0.0
C410 C 0.45505 0.52142 0.46132 0.0
C411 C 0.47013 0.5217 0.51586 0.0
C412 C 0.46954 0.51166 0.59 0.0
C413 C 0.4538 0.50084 0.60703 0.0
C414 C 0.43877 0.50046 0.55212 0.0
H415 H 0.40479 0.55533 0.45883 0.0
H416 H 0.41957 0.54194 0.52632 0.0
H417 H 0.42883 0.55197 0.43414 0.0
H418 H 0.45573 0.52949 0.4052 0.0
H419 H 0.4821 0.53008 0.50076 0.0
H420 H 0.02721 0.36258 0.0478 0.0
H421 H 0.0295 0.38903 0.14096 0.0
H422 H 1.00804 0.35562 0.33874 0.0
H423 H 1.00544 0.32912 0.24572 0.0
H424 H 1.00055 0.40613 0.22628 0.0
H425 H 0.05381 0.3797 0.44337 0.0
H426 H 0.04972 0.36932 0.34398 0.0
H427 H 0.03452 0.36433 0.42851 0.0
C428 C 0.02298 0.36079 0.11115 0.0
C429 C 0.01609 0.34362 0.1389 0.0
C430 C 0.02438 0.37596 0.16448 0.0
C431 C 0.0191 0.37435 0.24718 0.0
C432 C 1.01254 0.35716 0.27565 0.0
H433 H 1.00807 0.44632 0.66767 0.0
H434 H 1.00921 0.42104 0.56833 0.0
C435 C 1.0111 0.34197 0.22227 0.0
C436 C 0.01964 0.39085 0.30246 0.0
H437 H 0.03792 0.40709 0.48274 0.0
C438 C 1.00884 0.40641 0.28205 0.0
C439 C 0.03043 0.39125 0.37528 0.0
C440 C 0.04292 0.37534 0.39895 0.0
C441 C 1.00806 0.42205 0.33364 0.0
C442 C 0.01871 0.42238 0.40702 0.0
C443 C 0.02974 0.40691 0.42667 0.0
C444 C 0.01798 0.43817 0.46635 0.0
C445 C 0.99528 0.43777 0.31048 0.0
C446 C 0.02262 0.45637 0.44275 0.0
C447 C 0.02185 0.47098 0.49975 0.0
C448 C 0.01663 0.46761 0.58163 0.0
C449 C 1.01215 0.4494 0.60508 0.0
C450 C 1.01283 0.43489 0.54828 0.0
H451 H 0.98468 0.43341 0.26474 0.0
H452 H 0.98809 0.44333 0.36541 0.0
H453 H 1.00353 0.44913 0.28271 0.0
H454 H 0.02703 0.45927 0.38047 0.0
H455 H 0.02546 0.48484 0.47996 0.0
H456 H 0.8381 0.03206 0.18323 0.0
H457 H 0.86418 0.03595 0.08819 0.0
H458 H 0.88088 0.97952 0.13322 0.0
H459 H 0.85458 0.97525 0.22447 0.0
H460 H 0.90191 0.03305 0.11125 0.0
H461 H 0.87883 0.98048 0.88574 0.0
H462 H 0.86392 0.98894 0.96613 0.0
H463 H 0.88084 0.97125 0.98782 0.0
C464 C 0.84716 0.0204 0.17207 0.0
C465 C 0.8441 1.00333 0.21197 0.0
C466 C 0.8622 0.02269 0.11817 0.0
C467 C 0.87443 1.00795 0.1024 0.0
C468 C 0.87151 0.99102 0.14283 0.0
H469 H 0.98459 0.01688 0.86987 0.0
H470 H 0.95932 1.01358 0.96997 0.0
C471 C 0.85652 0.98869 0.19617 0.0
C472 C 0.89028 1.01014 0.04408 0.0
H473 H 0.90977 0.99136 0.87193 0.0
C474 C 0.90359 0.02399 0.05867 0.0
C475 C 0.89245 0.99848 0.97478 0.0
C476 C 0.87816 0.98408 0.95207 0.0
C477 C 0.91904 0.02632 0.00674 0.0
C478 C 0.92153 1.01422 0.93908 0.0
C479 C 0.9081 1.00052 0.92419 0.0
C480 C 0.93727 0.01611 0.8798 0.0
C481 C 0.93228 0.04204 0.02379 0.0
C482 C 0.93347 0.0181 0.79549 0.0
C483 C 0.94786 0.01952 0.73846 0.0
C484 C 0.9665 0.01895 0.76388 0.0
C485 C 0.97041 0.017 0.8482 0.0
C486 C 0.95593 1.01544 0.90559 0.0
H487 H 0.92587 0.05284 0.06306 0.0
H488 H 0.94461 0.03658 0.05677 0.0
H489 H 0.937 0.0486 0.96574 0.0
H490 H 0.91929 0.01868 0.77358 0.0
H491 H 0.94432 0.02112 0.67404 0.0
H492 H 0.56081 0.85433 0.25227 0.0
H493 H 0.55657 0.88126 0.1635 0.0
H494 H 0.49974 0.86551 0.12068 0.0
H495 H 0.50368 0.83874 0.21227 0.0
H496 H 0.54779 0.88263 0.0019 0.0
H497 H 0.49437 0.92 0.18123 0.0
H498 H 0.50751 0.90091 0.22332 0.0
H499 H 0.48819 0.89659 0.15589 0.0
C500 C 0.54728 0.8567 0.22524 0.0
C501 C 0.53253 0.84439 0.24054 0.0
C502 C 0.54492 0.87209 0.17385 0.0
C503 C 0.52775 0.87568 0.13627 0.0
C504 C 0.51302 0.86332 0.1503 0.0
H505 H 0.50964 0.94437 0.70749 0.0
H506 H 0.51279 0.91964 0.80893 0.0
C507 C 0.51537 0.84786 0.20193 0.0
C508 C 0.52568 0.89195 0.08006 0.0
H509 H 0.50104 0.93186 0.04781 0.0
C510 C 0.53759 0.8934 0.01223 0.0
C511 C 0.51258 0.90622 0.09396 0.0
C512 C 0.50004 0.90602 0.16794 0.0
C513 C 0.53654 0.90843 0.95727 0.0
C514 C 0.523 0.92234 0.96938 0.0
C515 C 0.51134 0.92115 0.03816 0.0
C516 C 0.52037 0.93777 0.90929 0.0
C517 C 0.5501 0.90935 0.88693 0.0
C518 C 0.52302 0.95637 0.93225 0.0
C519 C 0.52116 0.97068 0.87392 0.0
C520 C 0.5165 0.96658 0.79191 0.0
C521 C 0.51341 0.948 0.76994 0.0
C522 C 0.51528 0.9338 0.82787 0.0
H523 H 0.56259 0.90077 0.89911 0.0
H524 H 0.54333 0.90399 0.83038 0.0
H525 H 0.55454 0.92383 0.87511 0.0
H526 H 0.52684 0.95979 0.99489 0.0
H527 H 0.5235 0.98487 0.89275 0.0
H528 H 0.70964 0.52502 0.11439 0.0
H529 H 0.68249 0.52267 0.02433 0.0
H530 H 0.64659 0.52764 0.2343 0.0
H531 H 0.67363 0.52981 0.32498 0.0
H532 H 0.65229 0.49775 0.02153 0.0
H533 H 0.62891 0.5697 0.0825 0.0
H534 H 0.65174 0.56156 0.11043 0.0
H535 H 0.63209 0.55567 0.17279 0.0
C536 C 0.69599 0.52532 0.14176 0.0
C537 C 0.6939 0.52774 0.22719 0.0
C538 C 0.68045 0.52408 0.08999 0.0
C539 C 0.66247 0.52534 0.12223 0.0
C540 C 0.66031 0.52708 0.20766 0.0
H541 H 0.55614 0.50407 0.88014 0.0
H542 H 0.58251 0.50494 0.97605 0.0
C543 C 0.67582 0.52831 0.25949 0.0
C544 C 0.64602 0.52506 0.06639 0.0
H545 H 0.60899 0.55098 0.00157 0.0
C546 C 0.64282 0.50938 0.0173 0.0
C547 C 0.63372 0.54032 0.06013 0.0
C548 C 0.63681 0.55785 0.10864 0.0
C549 C 0.62756 0.50845 0.96324 0.0
C550 C 0.61517 0.52358 0.95801 0.0
C551 C 0.61844 0.53934 0.00626 0.0
C552 C 0.59897 0.5234 0.90115 0.0
C553 C 0.62483 0.49143 0.91101 0.0
C554 C 0.59939 0.5337 0.82787 0.0
C555 C 0.58441 0.53313 0.77281 0.0
C556 C 0.56865 0.52238 0.79036 0.0
C557 C 0.56808 0.51244 0.8648 0.0
C558 C 0.58315 0.51289 0.9195 0.0
H559 H 0.6367 0.48168 0.91588 0.0
H560 H 0.61207 0.48411 0.93073 0.0
H561 H 0.62296 0.49544 0.84554 0.0
H562 H 0.61143 0.54194 0.81271 0.0
H563 H 0.58524 0.54099 0.7161 0.0
H564 H 0.03444 0.67202 0.29713 0.0
H565 H 0.03317 0.64662 0.19854 0.0
H566 H 1.0015 0.68075 0.03176 0.0
H567 H 1.00269 0.70637 0.13068 0.0
H568 H 1.00302 0.6282 0.13702 0.0
H569 H 0.04205 0.66119 0.88239 0.0
H570 H 0.04173 0.67064 0.98505 0.0
H571 H 0.02239 0.67424 0.91688 0.0
C572 C 0.02712 0.67418 0.23963 0.0
C573 C 0.01858 0.6913 0.22227 0.0
C574 C 0.02648 0.6596 0.18306 0.0
C575 C 0.0174 0.66173 0.10715 0.0
C576 C 1.00893 0.67883 0.08912 0.0
H577 H 0.99968 0.58636 0.69466 0.0
H578 H 0.999 0.61222 0.79174 0.0
C579 C 1.0096 0.69349 0.14584 0.0
C580 C 0.01649 0.64581 0.04853 0.0
H581 H 0.02847 0.632 0.85471 0.0
C582 C 1.00862 0.62904 0.07533 0.0
C583 C 0.02377 0.64683 0.96788 0.0
C584 C 0.03312 0.66412 0.93633 0.0
C585 C 1.00766 0.61341 0.02376 0.0
C586 C 1.01506 0.61439 0.94334 0.0
C587 C 0.0228 0.6312 0.91628 0.0
C588 C 1.0149 0.59821 0.88614 0.0
C589 C 0.99839 0.59609 0.0554 0.0
C590 C 0.02405 0.5816 0.90656 0.0
C591 C 0.02443 0.56673 0.85103 0.0
C592 C 1.01576 0.5682 0.7737 0.0
C593 C 1.00647 0.58476 0.75375 0.0
C594 C 1.00612 0.59959 0.80916 0.0
H595 H 0.98913 0.59909 0.10815 0.0
H596 H 0.99015 0.58928 0.00624 0.0
H597 H 1.00916 0.5862 0.07674 0.0
H598 H 0.03125 0.58026 0.96481 0.0
H599 H 0.03179 0.55421 0.86801 0.0
H600 H 0.03249 0.22868 0.28435 0.0
H601 H 0.02085 0.21199 0.40355 0.0
H602 H 0.97138 0.24553 0.4012 0.0
H603 H 0.98272 0.26184 0.27894 0.0
H604 H 1.00485 0.21552 0.56117 0.0
H605 H 0.95247 0.1957 0.32275 0.0
H606 H 0.97216 0.20966 0.29526 0.0
H607 H 0.9538 0.21936 0.35598 0.0
C608 C 0.01937 0.23286 0.31068 0.0
C609 C 1.00823 0.24609 0.27104 0.0
C610 C 1.01279 0.22345 0.3794 0.0
C611 C 0.99499 0.22715 0.40972 0.0
C612 C 0.98498 0.2422 0.37754 0.0
H613 H 0.95698 0.11673 0.50149 0.0
H614 H 0.95315 0.14977 0.53033 0.0
C615 C 0.99152 0.25157 0.30798 0.0
C616 C 0.98592 0.21252 0.4592 0.0
H617 H 0.96022 0.17394 0.42084 0.0
C618 C 0.99455 0.20669 0.5324 0.0
C619 C 0.97213 0.20116 0.42286 0.0
C620 C 0.96206 0.20666 0.34489 0.0
C621 C 0.99161 0.18879 0.56356 0.0
C622 C 0.98012 0.17645 0.51917 0.0
C623 C 0.96933 0.18329 0.45395 0.0
C624 C 0.98244 0.15608 0.52441 0.0
C625 C 1.00191 0.18284 0.64004 0.0
C626 C 1.00018 0.14854 0.5129 0.0
C627 C 1.00239 0.12975 0.49648 0.0
C628 C 0.98689 0.11807 0.49001 0.0
C629 C 0.96919 0.12539 0.50581 0.0
C630 C 0.96699 0.14424 0.52276 0.0
H631 H 1.00249 0.19436 0.68514 0.0
H632 H 0.99537 0.17061 0.66963 0.0
H633 H 0.01641 0.17931 0.62381 0.0
H634 H 1.01232 0.15735 0.5113 0.0
H635 H 0.01625 0.12445 0.48688 0.0
H636 H 0.27578 0.97824 0.26654 0.0
H637 H 0.29339 0.96512 0.38177 0.0
H638 H 0.3214 0.01748 0.41351 0.0
H639 H 0.30363 0.03054 0.30043 0.0
H640 H 0.32829 0.9619 0.34914 0.0
H641 H 0.32554 0.99859 0.64255 0.0
H642 H 0.3066 0.99964 0.5695 0.0
H643 H 0.32564 0.01585 0.56349 0.0
C644 C 0.28496 0.98717 0.30133 0.0
C645 C 0.28864 1.00528 0.27428 0.0
C646 C 0.29502 0.97967 0.36715 0.0
C647 C 0.30878 0.99025 0.40652 0.0
C648 C 0.31066 1.00906 0.38573 0.0
H649 H 0.41375 1.00964 0.44032 0.0
H650 H 0.38046 1.00544 0.4553 0.0
C651 C 0.30065 0.01651 0.3202 0.0
C652 C 0.32447 0.98106 0.44925 0.0
H653 H 0.35785 0.99218 0.58931 0.0
C654 C 0.33445 0.96786 0.40399 0.0
C655 C 0.33244 0.98852 0.52144 0.0
C656 C 0.32181 1.00129 0.57726 0.0
C657 C 0.35316 0.96433 0.42096 0.0
C658 C 0.3619 0.97403 0.4858 0.0
C659 C 0.35119 0.98505 0.53849 0.0
C660 C 0.38223 0.97636 0.48711 0.0
C661 C 0.36394 0.95204 0.36329 0.0
C662 C 0.39427 0.9614 0.50055 0.0
C663 C 0.41338 0.96369 0.49031 0.0
C664 C 0.42066 0.98099 0.46668 0.0
C665 C 0.40855 0.99603 0.45617 0.0
C666 C 0.38955 0.99372 0.46619 0.0
H667 H 0.35519 0.94643 0.31281 0.0
H668 H 0.3756 0.95988 0.33566 0.0
H669 H 0.36986 0.9402 0.39809 0.0
H670 H 0.38887 0.94792 0.51724 0.0
H671 H 0.4224 0.95188 0.49933 0.0
H672 H 0.51593 0.27286 0.30935 0.0
H673 H 0.51095 0.29064 0.43428 0.0
H674 H 0.4689 0.32269 0.30841 0.0
H675 H 0.47211 0.30343 0.18875 0.0
H676 H 0.52255 0.32107 0.44061 0.0
H677 H 0.45145 0.33452 0.5228 0.0
H678 H 0.45691 0.31439 0.46184 0.0
H679 H 0.45029 0.33607 0.41341 0.0
C680 C 0.50481 0.28293 0.31004 0.0
C681 C 0.4949 0.28724 0.23785 0.0
C682 C 0.50208 0.29329 0.38165 0.0
C683 C 0.48987 0.3085 0.38136 0.0
C684 C 0.47828 0.31105 0.31248 0.0
H685 H 0.5263 0.41085 0.34409 0.0
H686 H 0.5198 0.378 0.36142 0.0
C687 C 0.48046 0.30023 0.24242 0.0
C688 C 0.49267 0.32425 0.43943 0.0
H689 H 0.4705 0.36434 0.48968 0.0
C690 C 0.51099 0.33011 0.45436 0.0
C691 C 0.47796 0.33611 0.46292 0.0
C692 C 0.4581 0.3297 0.46516 0.0
C693 C 0.51486 0.34835 0.4775 0.0
C694 C 0.50018 0.36124 0.48173 0.0
C695 C 0.48186 0.35471 0.48137 0.0
C696 C 0.50367 0.38135 0.47263 0.0
C697 C 0.53477 0.35393 0.49157 0.0
C698 C 0.49582 0.39431 0.52635 0.0
C699 C 0.49921 0.41323 0.51528 0.0
C700 C 0.51066 0.41947 0.45091 0.0
C701 C 0.51789 0.40648 0.39561 0.0
C702 C 0.51429 0.38767 0.40594 0.0
H703 H 0.54259 0.34249 0.5216 0.0
H704 H 0.54146 0.35672 0.43147 0.0
H705 H 0.53586 0.3665 0.53057 0.0
H706 H 0.48734 0.38978 0.5774 0.0
H707 H 0.49335 0.42291 0.55879 0.0
H708 H 0.23189 0.50164 0.28755 0.0
H709 H 0.2153 0.51404 0.40498 0.0
H710 H 0.24868 0.56361 0.39602 0.0
H711 H 0.26476 0.55152 0.27474 0.0
H712 H 0.2187 0.5299 0.55784 0.0
H713 H 0.19912 0.58309 0.32272 0.0
H714 H 0.213 0.56341 0.29471 0.0
H715 H 0.22283 0.58171 0.35583 0.0
C716 C 0.23602 0.51498 0.31191 0.0
C717 C 0.24912 0.5259 0.27057 0.0
C718 C 0.22666 0.52202 0.37962 0.0
C719 C 0.23032 0.54004 0.40754 0.0
C720 C 0.24528 0.54989 0.37388 0.0
H721 H 0.1214 0.58176 0.5207 0.0
H722 H 0.15497 0.58376 0.54249 0.0
C723 C 0.25456 0.54291 0.30505 0.0
C724 C 0.21589 0.54926 0.4575 0.0
H725 H 0.17781 0.57612 0.42326 0.0
C726 C 0.21004 0.54052 0.53021 0.0
C727 C 0.2047 0.56338 0.42241 0.0
C728 C 0.2101 0.57347 0.3446 0.0
C729 C 0.19229 0.5437 0.56207 0.0
C730 C 0.18017 0.55582 0.51973 0.0
C731 C 0.18704 0.5666 0.45487 0.0
C732 C 0.15978 0.55438 0.52726 0.0
C733 C 0.18619 0.53299 0.63687 0.0
C734 C 0.1513 0.5372 0.51238 0.0
C735 C 0.13225 0.53605 0.49961 0.0
C736 C 0.12125 0.55208 0.50049 0.0
C737 C 0.12955 0.56918 0.51946 0.0
C738 C 0.1487 0.57033 0.53236 0.0
H739 H 0.19792 0.53126 0.68064 0.0
H740 H 0.17453 0.5399 0.66892 0.0
H741 H 0.18171 0.51892 0.61786 0.0
H742 H 0.15954 0.52476 0.50569 0.0
H743 H 0.12618 0.52261 0.48715 0.0
H744 H 0.07743 0.80074 0.18545 0.0
H745 H 0.08198 0.81977 0.06356 0.0
H746 H 0.03974 0.78875 0.93571 0.0
H747 H 0.03446 0.77022 0.05954 0.0
H748 H 0.08509 0.82262 0.89086 0.0
H749 H 1.01319 0.83625 0.00203 0.0
H750 H 0.02858 0.82098 0.05686 0.0
H751 H 0.01803 0.81365 0.96192 0.0
C752 C 0.06968 0.79744 0.13019 0.0
C753 C 0.05505 0.78462 0.1328 0.0
C754 C 0.07237 0.80825 0.06019 0.0
C755 C 0.0606 0.80618 0.99199 0.0
C756 C 0.04859 0.79088 0.98882 0.0
H757 H 0.02378 0.91335 0.81983 0.0
H758 H 0.029 0.88014 0.80211 0.0
C759 C 0.04565 0.78022 0.05952 0.0
C760 C 0.05736 0.82263 0.93943 0.0
H761 H 0.02747 0.85905 0.92677 0.0
C762 C 0.07231 0.83041 0.8964 0.0
C763 C 0.04065 0.83282 0.94682 0.0
C764 C 0.0242 0.82564 0.99463 0.0
C765 C 0.07142 0.8486 0.86564 0.0
C766 C 0.05532 0.85929 0.87981 0.0
C767 C 0.03985 0.85089 0.91602 0.0
C768 C 0.05484 0.87973 0.8704 0.0
C769 C 0.08797 0.85637 0.82105 0.0
C770 C 0.0679 0.89072 0.91229 0.0
C771 C 0.06508 0.90976 0.92103 0.0
C772 C 0.04891 0.918 0.88996 0.0
C773 C 0.03628 0.90722 0.84489 0.0
C774 C 0.03933 0.8883 0.83434 0.0
H775 H 0.09511 0.84535 0.78558 0.0
H776 H 0.08398 0.86772 0.77839 0.0
H777 H 0.09804 0.86184 0.86669 0.0
H778 H 0.07967 0.88444 0.943 0.0
H779 H 0.07497 0.91784 0.9562 0.0
H780 H 0.76431 0.04934 0.08996 0.0
H781 H 0.74774 0.06171 0.96924 0.0
H782 H 0.71137 1.01426 0.97286 0.0
H783 H 0.728 1.00189 0.09147 0.0
H784 H 0.7165 0.02938 0.81225 0.0
H785 H 0.69825 0.08306 0.04561 0.0
H786 H 0.72197 0.08043 0.01451 0.0
H787 H 0.7111 0.06273 0.0754 0.0
C788 C 0.7533 0.04125 0.06229 0.0
C789 C 0.74716 0.02485 0.09991 0.0
C790 C 0.7438 0.04834 0.99383 0.0
C791 C 0.72807 0.0391 0.96338 0.0
C792 C 0.72344 0.02164 0.99534 0.0
H793 H 0.62408 0.02308 0.8764 0.0
H794 H 0.6575 0.02505 0.86065 0.0
C795 C 0.73288 1.0146 0.06328 0.0
C796 C 0.71397 0.04868 0.91252 0.0
H797 H 0.67636 0.07609 0.94597 0.0
C798 C 0.70803 0.04014 0.83953 0.0
C799 C 0.70307 0.06297 0.94722 0.0
C800 C 0.7088 0.07289 0.025 0.0
C801 C 0.69039 0.04377 0.80674 0.0
C802 C 0.67842 0.05596 0.849 0.0
C803 C 0.68544 0.06651 0.9144 0.0
C804 C 0.658 0.05474 0.8407 0.0
C805 C 0.68423 0.03344 0.73099 0.0
C806 C 0.64705 0.07079 0.83556 0.0
C807 C 0.62785 0.06972 0.8466 0.0
C808 C 0.61939 0.05261 0.8639 0.0
C809 C 0.63028 0.03651 0.86508 0.0
C810 C 0.64937 0.03757 0.85403 0.0
H811 H 0.69588 0.0321 0.6869 0.0
H812 H 0.67997 0.01922 0.74872 0.0
H813 H 0.67243 0.0404 0.69966 0.0
H814 H 0.65344 0.08421 0.82657 0.0
H815 H 0.61977 0.08235 0.84517 0.0
H816 H 0.54025 0.73257 0.10447 0.0
H817 H 0.53176 0.71573 0.98084 0.0
H818 H 0.47967 0.74512 0.97058 0.0
H819 H 0.48822 0.7618 0.0967 0.0
H820 H 0.47373 0.7104 0.98794 0.0
H821 H 0.52426 0.71453 0.73982 0.0
H822 H 0.53741 0.71287 0.83295 0.0
H823 H 0.52245 0.73262 0.81622 0.0
C824 C 0.5274 0.73605 0.0734 0.0
C825 C 0.51484 0.74834 0.1095 0.0
C826 C 0.52258 0.72657 0.00199 0.0
C827 C 0.50509 0.72921 0.96541 0.0
C828 C 0.49329 0.74295 0.99713 0.0
H829 H 0.47243 0.61732 0.80883 0.0
H830 H 0.46983 0.65101 0.79022 0.0
C831 C 0.49815 0.75247 0.069 0.0
C832 C 0.49774 0.71438 0.91126 0.0
H833 H 0.51506 0.68175 0.78142 0.0
C834 C 0.48222 0.70454 0.93966 0.0
C835 C 0.50847 0.70678 0.84698 0.0
C836 C 0.52394 0.71746 0.80687 0.0
C837 C 0.47914 0.68615 0.91595 0.0
C838 C 0.49186 0.67757 0.86238 0.0
C839 C 0.50558 0.68828 0.82411 0.0
C840 C 0.49409 0.65728 0.86349 0.0
C841 C 0.46378 0.6753 0.95638 0.0
C842 C 0.50864 0.64979 0.91019 0.0
C843 C 0.51004 0.63074 0.92174 0.0
C844 C 0.49691 0.61875 0.88661 0.0
C845 C 0.48255 0.62626 0.83801 0.0
C846 C 0.48115 0.64543 0.8265 0.0
H847 H 0.45476 0.68419 0.99498 0.0
H848 H 0.45507 0.66854 0.90872 0.0
H849 H 0.46979 0.66423 0.99575 0.0
H850 H 0.51863 0.65879 0.94001 0.0
H851 H 0.52115 0.62545 0.96011 0.0
H852 H 0.79988 0.47252 0.13108 0.0
H853 H 0.81854 0.47223 0.00673 0.0
H854 H 0.79316 0.52334 0.92771 0.0
H855 H 0.7751 0.52422 0.0544 0.0
H856 H 0.821 0.4784 0.83266 0.0
H857 H 0.84358 0.53913 0.02096 0.0
H858 H 0.82637 0.52319 0.05808 0.0
H859 H 0.82063 0.53952 0.97829 0.0
C860 C 0.79774 0.48332 0.08568 0.0
C861 C 0.78671 0.49879 0.10386 0.0
C862 C 0.80827 0.48305 0.01409 0.0
C863 C 0.80772 0.49816 0.95982 0.0
C864 C 0.79406 0.51178 0.97008 0.0
H865 H 0.9198 0.52821 0.83653 0.0
H866 H 0.88636 0.52907 0.81274 0.0
C867 C 0.7837 0.51223 0.04253 0.0
C868 C 0.82457 0.50209 0.9115 0.0
H869 H 0.86475 0.52633 0.93277 0.0
C870 C 0.83043 0.48922 0.8524 0.0
C871 C 0.83686 0.51626 0.93731 0.0
C872 C 0.83168 0.53029 0.00232 0.0
C873 C 0.84872 0.48934 0.82308 0.0
C874 C 0.86145 0.50238 0.85533 0.0
C875 C 0.85504 0.51628 0.90819 0.0
C876 C 0.88181 0.50043 0.84713 0.0
C877 C 0.85435 0.47512 0.76029 0.0
C878 C 0.89053 0.48389 0.87177 0.0
C879 C 0.9097 0.48333 0.88405 0.0
C880 C 0.92034 0.49942 0.87415 0.0
C881 C 0.91177 0.51571 0.84613 0.0
C882 C 0.89273 0.51615 0.83164 0.0
H883 H 0.84271 0.47217 0.71732 0.0
H884 H 0.8665 0.47977 0.72424 0.0
H885 H 0.85789 0.46197 0.79211 0.0
H886 H 0.88244 0.47173 0.88673 0.0
H887 H 0.91604 0.47062 0.90568 0.0
H888 H 0.0457 0.21563 0.04253 0.0
H889 H 0.04552 0.18581 0.97049 0.0
H890 H 0.9945 0.20085 0.8492 0.0
H891 H 0.99483 0.23094 0.92041 0.0
H892 H 0.99554 0.16524 0.94953 0.0
H893 H 0.03906 0.19091 0.75583 0.0
H894 H 0.05129 0.17099 0.71632 0.0
H895 H 0.05661 0.17989 0.81712 0.0
C896 C 0.03479 0.21283 0.99832 0.0
C897 C 0.02041 0.22572 0.98624 0.0
C898 C 0.03466 0.19576 0.95741 0.0
C899 C 0.02002 0.19107 0.90425 0.0
C900 C 1.00599 0.2042 0.88953 0.0
H901 H 1.01268 0.08615 0.63275 0.0
H902 H 1.01223 0.11884 0.67137 0.0
C903 C 1.00627 0.22145 0.92962 0.0
C904 C 0.01856 0.17185 0.87115 0.0
H905 H 0.03978 0.14078 0.74387 0.0
C906 C 1.00511 0.15993 0.90405 0.0
C907 C 0.03095 0.16493 0.81148 0.0
C908 C 0.04525 0.17731 0.77238 0.0
C909 C 1.00412 0.14115 0.88094 0.0
C910 C 0.01703 0.13398 0.8238 0.0
C911 C 0.03003 0.14612 0.78847 0.0
C912 C 0.01736 0.11393 0.80063 0.0
C913 C 0.98919 0.12915 0.91787 0.0
C914 C 0.0206 0.10013 0.86018 0.0
C915 C 0.02086 0.08131 0.83839 0.0
C916 C 0.01797 0.0758 0.7563 0.0
C917 C 1.01492 0.08972 0.69667 0.0
C918 C 1.01468 0.10851 0.71855 0.0
H919 H 0.97757 0.13758 0.94229 0.0
H920 H 0.98359 0.11927 0.8718 0.0
H921 H 0.99514 0.12105 0.96966 0.0
H922 H 0.02305 0.10392 0.9237 0.0
H923 H 0.02333 0.0711 0.88602 0.0
H924 H 0.30418 0.99745 0.92023 0.0
H925 H 0.33467 0.99738 0.85267 0.0
H926 H 0.35076 0.04532 0.99331 0.0
H927 H 0.32046 0.04535 0.061 0.0
H928 H 0.36259 0.0448 0.81699 0.0
H929 H 0.38146 0.98172 0.99585 0.0
H930 H 0.36014 0.98109 0.93813 0.0
H931 H 0.3623 0.99643 0.02426 0.0
C932 C 0.31401 1.00832 0.9346 0.0
C933 C 0.30987 0.02149 0.99549 0.0
C934 C 0.33151 1.00815 0.89673 0.0
C935 C 0.34514 0.02121 0.91868 0.0
C936 C 0.34054 0.03509 0.97539 0.0
H937 H 0.46538 0.02084 0.90092 0.0
H938 H 0.4325 0.02139 0.93828 0.0
C939 C 0.32318 0.03515 0.01374 0.0
C940 C 0.36459 0.01972 0.88791 0.0
H941 H 0.40432 0.99417 0.909 0.0
C942 C 0.37167 0.03365 0.83643 0.0
C943 C 0.37655 1.00531 0.91429 0.0
C944 C 0.36988 0.9903 0.97161 0.0
C945 C 0.39033 0.03354 0.81066 0.0
C946 C 0.40229 0.01911 0.83699 0.0
C947 C 0.39518 1.00519 0.88848 0.0
C948 C 0.42234 0.01851 0.81364 0.0
C949 C 0.39724 0.04916 0.75726 0.0
C950 C 0.42769 0.0164 0.73121 0.0
C951 C 0.44651 0.01602 0.70963 0.0
C952 C 0.4605 0.01773 0.76997 0.0
C953 C 0.45508 0.01957 0.85266 0.0
C954 C 0.43624 0.01987 0.87419 0.0
H955 H 0.38753 0.0611 0.75679 0.0
H956 H 0.41104 0.05401 0.77859 0.0
H957 H 0.39871 0.04414 0.69315 0.0
H958 H 0.4173 1.01497 0.68339 0.0
H959 H 0.45005 1.01442 0.64535 0.0
H960 H 0.48465 0.30611 0.92231 0.0
H961 H 0.48592 0.33644 0.85457 0.0
H962 H 0.54355 0.34144 0.92254 0.0
H963 H 0.54238 0.31077 0.98708 0.0
H964 H 0.49069 0.36735 0.92931 0.0
H965 H 0.54608 0.36297 0.69745 0.0
H966 H 0.53634 0.34265 0.74537 0.0
H967 H 0.55442 0.35558 0.79616 0.0
C968 C 0.49778 0.31336 0.91928 0.0
C969 C 0.51354 0.30592 0.95808 0.0
C970 C 0.49847 0.3308 0.88144 0.0
C971 C 0.51487 0.34136 0.88256 0.0
C972 C 0.53085 0.33352 0.91843 0.0
H973 H 0.51436 0.46229 0.89321 0.0
H974 H 0.51431 0.42923 0.92543 0.0
C975 C 0.53021 0.31594 0.95532 0.0
C976 C 0.51463 0.36122 0.85538 0.0
H977 H 0.53811 0.39367 0.74298 0.0
C978 C 0.50098 0.37301 0.88778 0.0
C979 C 0.52778 0.36875 0.80012 0.0
C980 C 0.54184 0.35677 0.75708 0.0
C981 C 0.50036 0.392 0.86835 0.0
C982 C 0.51428 0.39981 0.81769 0.0
C983 C 0.52763 0.38792 0.78327 0.0
C984 C 0.51503 0.42013 0.79859 0.0
C985 C 0.48443 0.40332 0.90105 0.0
C986 C 0.51641 0.4263 0.71684 0.0
C987 C 0.51663 0.44527 0.69816 0.0
C988 C 0.51566 0.45864 0.76099 0.0
C989 C 0.51479 0.45246 0.84304 0.0
C990 C 0.51462 0.43347 0.86158 0.0
H991 H 0.47213 0.39452 0.91358 0.0
H992 H 0.48862 0.40984 0.95999 0.0
H993 H 0.48029 0.41439 0.85719 0.0
H994 H 0.51721 0.41638 0.66725 0.0
H995 H 0.51761 0.44943 0.63433 0.0
H996 H 0.23564 0.53191 0.90444 0.0
H997 H 0.20552 0.53207 0.83266 0.0
H998 H 0.18616 0.48844 0.99165 0.0
H999 H 0.21606 0.48822 0.06323 0.0
H1000 H 0.18029 0.49803 0.7624 0.0
H1001 H 0.15343 0.5389 0.02598 0.0
H1002 H 0.17768 0.53861 0.99884 0.0
H1003 H 0.16756 0.51904 0.0498 0.0
C1004 C 0.22518 0.52191 0.922 0.0
C1005 C 0.22821 0.51005 0.9895 0.0
C1006 C 0.20795 0.52209 0.88128 0.0
C1007 C 0.19355 0.51036 0.90727 0.0
C1008 C 0.19703 0.49764 0.97079 0.0
H1009 H 0.07472 0.50194 0.86723 0.0
H1010 H 0.10757 0.50076 0.90394 0.0
C1011 C 0.21415 0.49749 0.01145 0.0
C1012 C 0.17436 0.51248 0.87464 0.0
H1013 H 0.1315 0.52823 0.92932 0.0
C1014 C 0.16961 0.50477 0.79828 0.0
C1015 C 0.16047 0.52124 0.92174 0.0
C1016 C 0.16494 0.53006 0.00351 0.0
C1017 C 0.15118 0.50508 0.76897 0.0
C1018 C 0.13716 0.51357 0.81696 0.0
C1019 C 0.14211 0.52163 0.89254 0.0
C1020 C 0.11717 0.5138 0.79193 0.0
C1021 C 0.14681 0.49566 0.68849 0.0
C1022 C 0.11143 0.5216 0.71678 0.0
C1023 C 0.09259 0.52209 0.69515 0.0
C1024 C 0.07896 0.51512 0.74882 0.0
C1025 C 0.08474 0.50745 0.82427 0.0
C1026 C 0.10358 0.50679 0.84543 0.0
H1027 H 0.15786 0.48576 0.67058 0.0
H1028 H 0.13344 0.48809 0.69178 0.0
H1029 H 0.14569 0.50626 0.6393 0.0
H1030 H 0.12148 0.5276 0.67527 0.0
H1031 H 0.08872 0.52813 0.63665 0.0
H1032 H 0.058 0.81309 0.41415 0.0
H1033 H 0.05374 0.84394 0.47301 0.0
H1034 H 0.99473 0.83933 0.43579 0.0
H1035 H 0.99902 0.80818 0.37746 0.0
H1036 H 0.03977 0.87294 0.38459 0.0
H1037 H 0.99795 0.86225 0.66628 0.0
H1038 H 1.01019 0.84363 0.61623 0.0
H1039 H 0.98851 0.85174 0.57516 0.0
C1040 C 0.04406 0.81842 0.42106 0.0
C1041 C 0.02883 0.80814 0.39203 0.0
C1042 C 0.04164 0.83612 0.45414 0.0
C1043 C 0.02392 0.84407 0.45911 0.0
C1044 C 1.00853 0.83346 0.43399 0.0
H1045 H 1.00696 0.96466 0.4709 0.0
H1046 H 1.00775 0.93194 0.43165 0.0
C1047 C 1.01096 0.81561 0.40094 0.0
C1048 C 0.02199 0.86399 0.48295 0.0
H1049 H 1.00229 0.89334 0.62266 0.0
C1050 C 0.03155 0.87738 0.43666 0.0
C1051 C 1.01145 0.86985 0.55138 0.0
C1052 C 1.00155 0.85614 0.60575 0.0
C1053 C 0.03085 0.89634 0.45651 0.0
C1054 C 0.01994 0.90229 0.52372 0.0
C1055 C 1.01047 0.88889 0.57051 0.0
C1056 C 0.01874 0.92224 0.54807 0.0
C1057 C 0.04227 0.90974 0.40656 0.0
C1058 C 0.02414 0.92779 0.62734 0.0
C1059 C 0.02346 0.94648 0.65044 0.0
C1060 C 0.01742 0.9602 0.59459 0.0
C1061 C 1.01184 0.95458 0.51538 0.0
C1062 C 1.01236 0.93583 0.49265 0.0
H1063 H 0.05354 0.90259 0.37276 0.0
H1064 H 0.03322 0.91666 0.36055 0.0
H1065 H 0.04855 0.92056 0.4463 0.0
H1066 H 0.02918 0.91764 0.67103 0.0
H1067 H 0.02792 0.95016 0.71198 0.0
H1068 H 0.72684 0.98718 0.40246 0.0
H1069 H 0.69621 0.98689 0.46821 0.0
H1070 H 0.69382 0.04643 0.45047 0.0
H1071 H 0.72408 0.04663 0.38245 0.0
H1072 H 0.67894 1.00194 0.60243 0.0
H1073 H 0.64896 0.03159 0.31713 0.0
H1074 H 0.67256 0.02353 0.32309 0.0
H1075 H 0.66648 0.04604 0.36205 0.0
C1076 C 0.72 1.00022 0.41504 0.0
C1077 C 0.72788 0.01694 0.38787 0.0
C1078 C 0.70241 1.00006 0.45203 0.0
C1079 C 0.69238 0.01661 0.46238 0.0
C1080 C 0.70097 0.03343 0.44123 0.0
H1081 H 0.58672 0.02824 0.72544 0.0
H1082 H 0.61936 0.02851 0.68622 0.0
C1083 C 0.7184 0.03357 0.40348 0.0
C1084 C 0.67257 0.01621 0.48962 0.0
H1085 H 0.62876 0.02889 0.43086 0.0
C1086 C 0.66797 1.00787 0.56502 0.0
C1087 C 0.65809 0.02354 0.44009 0.0
C1088 C 0.6617 0.0315 0.35573 0.0
C1089 C 0.64949 1.00704 0.59295 0.0
C1090 C 0.6351 1.01492 0.54454 0.0
C1091 C 0.6397 0.02299 0.4686 0.0
C1092 C 0.61513 1.01458 0.56985 0.0
C1093 C 0.64554 0.99731 0.67314 0.0
C1094 C 0.60156 1.00722 0.5168 0.0
C1095 C 0.58274 1.0074 0.5384 0.0
C1096 C 0.57695 1.01494 0.61382 0.0
C1097 C 0.59057 0.02227 0.66698 0.0
C1098 C 0.60937 0.02224 0.64498 0.0
H1099 H 0.65694 0.98773 0.69075 0.0
H1100 H 0.64417 1.00776 0.72264 0.0
H1101 H 0.63242 0.98931 0.66962 0.0
H1102 H 0.60553 1.00129 0.45831 0.0
H1103 H 0.57274 1.00162 0.49576 0.0
H1104 H 0.54666 0.72883 0.43527 0.0
H1105 H 0.54715 0.69817 0.50154 0.0
H1106 H 0.48959 0.6905 0.43825 0.0
H1107 H 0.48926 0.72079 0.37024 0.0
H1108 H 0.52808 0.67897 0.62326 0.0
H1109 H 0.51404 0.64806 0.31761 0.0
H1110 H 0.51964 0.67221 0.33046 0.0
H1111 H 0.49647 0.66406 0.34938 0.0
C1112 C 0.534 0.7208 0.43773 0.0
C1113 C 0.51794 0.72718 0.3975 0.0
C1114 C 0.5343 0.70322 0.47514 0.0
C1115 C 0.51854 0.69174 0.47301 0.0
C1116 C 0.50207 0.69883 0.43889 0.0
H1117 H 0.50511 0.58444 0.72187 0.0
H1118 H 0.50466 0.61728 0.68547 0.0
C1119 C 0.50183 0.71624 0.40083 0.0
C1120 C 0.51963 0.67195 0.50015 0.0
H1121 H 0.51345 0.62763 0.43144 0.0
C1122 C 0.52493 0.66773 0.58133 0.0
C1123 C 0.51588 0.65718 0.44517 0.0
C1124 C 0.51138 0.66055 0.35561 0.0
C1125 C 0.52629 0.64923 0.60917 0.0
C1126 C 0.52185 0.63448 0.55488 0.0
C1127 C 0.51676 0.63879 0.47355 0.0
C1128 C 0.52262 0.61448 0.57982 0.0
C1129 C 0.53294 0.64573 0.69586 0.0
C1130 C 0.53234 0.60158 0.53147 0.0
C1131 C 0.53228 0.58266 0.55122 0.0
C1132 C 0.52262 0.57612 0.62038 0.0
C1133 C 0.513 0.58901 0.6691 0.0
C1134 C 0.51283 0.6079 0.6486 0.0
H1135 H 0.54089 0.65771 0.72041 0.0
H1136 H 0.52079 0.64359 0.73624 0.0
H1137 H 0.54181 0.63319 0.69926 0.0
H1138 H 0.53996 0.60616 0.47786 0.0
H1139 H 0.53983 0.57315 0.51234 0.0
H1140 H 0.80708 0.53683 0.42477 0.0
H1141 H 0.83788 0.53919 0.48877 0.0
H1142 H 0.84948 0.48273 0.41994 0.0
H1143 H 0.81861 0.48013 0.35909 0.0
H1144 H 0.86473 0.49009 0.56577 0.0
H1145 H 0.88307 0.54621 0.34713 0.0
H1146 H 0.86379 0.55164 0.41212 0.0
H1147 H 0.86186 0.53316 0.33847 0.0
C1148 C 0.81599 0.52476 0.42559 0.0
C1149 C 0.81043 0.50836 0.38599 0.0
C1150 C 0.83375 0.52621 0.46097 0.0
C1151 C 0.84635 0.51133 0.45691 0.0
C1152 C 0.84022 0.49451 0.42316 0.0
H1153 H 0.96733 0.51594 0.46151 0.0
H1154 H 0.93439 0.51405 0.42477 0.0
C1155 C 0.82251 0.49304 0.3883 0.0
C1156 C 0.86617 0.51337 0.48311 0.0
H1157 H 0.90588 0.53785 0.44481 0.0
C1158 C 0.87368 0.50061 0.53957 0.0
C1159 C 0.8781 0.52678 0.44758 0.0
C1160 C 0.8714 0.54012 0.38238 0.0
C1161 C 0.8926 0.5009 0.56144 0.0
C1162 C 0.90437 0.51468 0.52779 0.0
C1163 C 0.8969 0.5274 0.47124 0.0
C1164 C 0.92449 0.51602 0.54994 0.0
C1165 C 0.89993 0.48599 0.61805 0.0
C1166 C 0.93002 0.51807 0.63225 0.0
C1167 C 0.94882 0.51899 0.65358 0.0
C1168 C 0.96267 0.5182 0.59279 0.0
C1169 C 0.95711 0.51658 0.51001 0.0
C1170 C 0.93824 0.51551 0.48888 0.0
H1171 H 0.89088 0.47355 0.61764 0.0
H1172 H 0.91414 0.48171 0.60047 0.0
H1173 H 0.90042 0.49137 0.68184 0.0
H1174 H 0.91973 0.51906 0.68009 0.0
H1175 H 0.95246 0.52039 0.71797 0.0
loop_
_geom_bond_atom_site_label_1
_geom_bond_atom_site_label_2
_geom_bond_distance
_geom_bond_site_symmetry_2
_ccdc_geom_bond_type
H0 C1 0.949 . S
C1 H0 0.949 . S
C1 C2 1.395 . S
C1 C3 1.391 . S
C2 C1 1.395 . S
C2 C5 1.390 . S
C3 C1 1.391 . S
C3 C7 1.387 . S
C3 C8 1.491 . S
H4 C5 0.950 . S
C5 C2 1.390 . S
C5 H4 0.950 . S
C5 C6 1.378 . S
C6 C5 1.378 . S
C6 C7 1.409 . S
C7 C3 1.387 . S
C7 C6 1.409 . S
C7 H9 0.951 . S
C8 C3 1.491 . S
C8 C10 1.382 . S
C8 C12 1.404 . S
H9 C7 0.951 . S
C10 C8 1.382 . S
C10 C11 1.390 . S
C10 H15 0.949 . S
C11 C10 1.390 . S
C11 C16 1.399 . S
C12 C8 1.404 . S
C12 H13 0.950 . S
C12 C14 1.375 . S
H13 C12 0.950 . S
C14 C12 1.375 . S
C14 C16 1.382 . S
C14 H18 0.950 . S
H15 C10 0.949 . S
C16 C11 1.399 . S
C16 C14 1.382 . S
C16 H17 0.952 . S
H17 C16 0.952 . S
H18 C14 0.950 . S
H19 C20 0.949 . S
C20 H19 0.949 . S
C20 C21 1.399 . S
C20 C22 1.391 . S
C21 C20 1.399 . S
C21 C24 1.387 1_655 S
C22 C20 1.391 . S
C22 C26 1.387 . S
C22 C27 1.491 . S
H23 C24 0.957 . S
C24 C21 1.387 1_455 S
C24 H23 0.957 . S
C24 C25 1.374 1_455 S
C25 C24 1.374 1_655 S
C25 C26 1.417 . S
C26 C22 1.387 . S
C26 C25 1.417 . S
C26 H28 0.951 . S
C27 C22 1.491 . S
C27 C29 1.382 . S
C27 C31 1.404 . S
H28 C26 0.951 . S
C29 C27 1.382 . S
C29 C30 1.390 . S
C29 H34 0.949 1_655 S
C30 C29 1.390 . S
C30 C35 1.399 . S
C31 C27 1.404 . S
C31 H32 0.950 . S
C31 C33 1.375 . S
H32 C31 0.950 . S
C33 C31 1.375 . S
C33 C35 1.382 . S
C33 H37 0.950 . S
H34 C29 0.949 1_455 S
C35 C30 1.399 . S
C35 C33 1.382 . S
C35 H36 0.952 . S
H36 C35 0.952 . S
H37 C33 0.950 . S
H38 C39 0.949 . S
C39 H38 0.949 . S
C39 C40 1.401 . S
C39 C41 1.391 . S
C40 C39 1.401 . S
C40 C43 1.387 1_565 S
C41 C39 1.391 . S
C41 C45 1.387 . S
C41 C46 1.491 . S
H42 C43 0.955 . S
C43 C40 1.387 1_545 S
C43 H42 0.955 . S
C43 C44 1.374 1_545 S
C44 C43 1.374 1_565 S
C44 C45 1.419 . S
C45 C41 1.387 . S
C45 C44 1.419 . S
C45 H47 0.951 . S
C46 C41 1.491 . S
C46 C48 1.382 . S
C46 C50 1.404 . S
H47 C45 0.951 . S
C48 C46 1.382 . S
C48 C49 1.390 . S
C48 H53 0.949 1_565 S
C49 C48 1.390 . S
C49 C54 1.399 . S
C50 C46 1.404 . S
C50 H51 0.950 . S
C50 C52 1.375 . S
H51 C50 0.950 . S
C52 C50 1.375 . S
C52 C54 1.382 . S
C52 H56 0.950 . S
H53 C48 0.949 1_545 S
C54 C49 1.399 . S
C54 C52 1.382 . S
C54 H55 0.952 . S
H55 C54 0.952 . S
H56 C52 0.950 . S
H57 C58 0.949 . S
C58 H57 0.949 . S
C58 C59 1.395 . S
C58 C60 1.391 . S
C59 C58 1.395 . S
C59 C62 1.390 . S
C60 C58 1.391 . S
C60 C64 1.387 . S
C60 C65 1.491 . S
H61 C62 0.950 . S
C62 C59 1.390 . S
C62 H61 0.950 . S
C62 C63 1.378 . S
C63 C62 1.378 . S
C63 C64 1.409 . S
C64 C60 1.387 . S
C64 C63 1.409 . S
C64 H66 0.951 . S
C65 C60 1.491 . S
C65 C67 1.382 . S
C65 C69 1.404 . S
H66 C64 0.951 . S
C67 C65 1.382 . S
C67 C68 1.390 . S
C67 H72 0.949 . S
C68 C67 1.390 . S
C68 C73 1.399 . S
C69 C65 1.404 . S
C69 H70 0.950 . S
C69 C71 1.375 . S
H70 C69 0.950 . S
C71 C69 1.375 . S
C71 C73 1.382 . S
C71 H75 0.950 . S
H72 C67 0.949 . S
C73 C68 1.399 . S
C73 C71 1.382 . S
C73 H74 0.952 . S
H74 C73 0.952 . S
H75 C71 0.950 . S
H76 C77 0.949 . S
C77 H76 0.949 . S
C77 C78 1.395 . S
C77 C79 1.391 1_554 S
C78 C77 1.395 . S
C78 C81 1.390 1_554 S
C79 C77 1.391 1_556 S
C79 C83 1.387 . S
C79 C84 1.491 . S
H80 C81 0.950 . S
C81 C78 1.390 1_556 S
C81 H80 0.950 . S
C81 C82 1.378 . S
C82 C81 1.378 . S
C82 C83 1.409 . S
C83 C79 1.387 . S
C83 C82 1.409 . S
C83 H85 0.951 . S
C84 C79 1.491 . S
C84 C86 1.382 1_556 S
C84 C88 1.404 . S
H85 C83 0.951 . S
C86 C84 1.382 1_554 S
C86 C87 1.390 . S
C86 H91 0.949 . S
C87 C86 1.390 . S
C87 C92 1.399 1_554 S
C88 C84 1.404 . S
C88 H89 0.950 . S
C88 C90 1.375 . S
H89 C88 0.950 . S
C90 C88 1.375 . S
C90 C92 1.382 . S
C90 H94 0.950 . S
H91 C86 0.949 . S
C92 C87 1.399 1_556 S
C92 C90 1.382 . S
C92 H93 0.952 . S
H93 C92 0.952 . S
H94 C90 0.950 . S
H95 C96 0.949 . S
C96 H95 0.949 . S
C96 C97 1.395 . S
C96 C98 1.389 1_454 S
C97 C96 1.395 . S
C97 C100 1.390 1_554 S
C98 C96 1.389 1_656 S
C98 C102 1.386 1_655 S
C98 C103 1.495 . S
H99 C100 0.950 . S
C100 C97 1.390 1_556 S
C100 H99 0.950 . S
C100 C101 1.378 . S
C101 C100 1.378 . S
C101 C102 1.409 . S
C102 C98 1.386 1_455 S
C102 C101 1.409 . S
C102 H104 0.950 . S
C103 C98 1.495 . S
C103 C105 1.382 1_656 S
C103 C107 1.404 . S
H104 C102 0.950 . S
C105 C103 1.382 1_454 S
C105 C106 1.387 1_455 S
C105 H110 0.949 . S
C106 C105 1.387 1_655 S
C106 C111 1.408 1_554 S
C107 C103 1.404 . S
C107 H108 0.950 . S
C107 C109 1.375 . S
H108 C107 0.950 . S
C109 C107 1.375 . S
C109 C111 1.382 . S
C109 H113 0.950 . S
H110 C105 0.949 . S
C111 C106 1.408 1_556 S
C111 C109 1.382 . S
C111 H112 0.952 . S
H112 C111 0.952 . S
H113 C109 0.950 . S
H114 C115 0.954 . S
C115 H114 0.954 . S
C115 C116 1.395 . S
C115 C117 1.388 1_544 S
C116 C115 1.395 . S
C116 C119 1.390 1_554 S
C117 C115 1.388 1_566 S
C117 C121 1.386 1_565 S
C117 C122 1.497 . S
H118 C119 0.950 . S
C119 C116 1.390 1_556 S
C119 H118 0.950 . S
C119 C120 1.378 . S
C120 C119 1.378 . S
C120 C121 1.409 . S
C121 C117 1.386 1_545 S
C121 C120 1.409 . S
C121 H123 0.951 1_545 S
C122 C117 1.497 . S
C122 C124 1.382 1_566 S
C122 C126 1.404 . S
H123 C121 0.951 1_565 S
C124 C122 1.382 1_544 S
C124 C125 1.385 1_545 S
C124 H129 0.949 . S
C125 C124 1.385 1_565 S
C125 C130 1.414 1_554 S
C126 C122 1.404 . S
C126 H127 0.950 . S
C126 C128 1.375 . S
H127 C126 0.950 . S
C128 C126 1.375 . S
C128 C130 1.382 . S
C128 H132 0.950 . S
H129 C124 0.949 . S
C130 C125 1.414 1_556 S
C130 C128 1.382 . S
C130 H131 0.952 . S
H131 C130 0.952 . S
H132 C128 0.950 . S
H133 C134 0.949 . S
C134 H133 0.949 . S
C134 C135 1.395 . S
C134 C136 1.391 1_554 S
C135 C134 1.395 . S
C135 C138 1.390 1_554 S
C136 C134 1.391 1_556 S
C136 C140 1.387 . S
C136 C141 1.491 . S
H137 C138 0.950 . S
C138 C135 1.390 1_556 S
C138 H137 0.950 . S
C138 C139 1.378 . S
C139 C138 1.378 . S
C139 C140 1.409 . S
C140 C136 1.387 . S
C140 C139 1.409 . S
C140 H142 0.951 . S
C141 C136 1.491 . S
C141 C143 1.382 1_556 S
C141 C145 1.404 . S
H142 C140 0.951 . S
C143 C141 1.382 1_554 S
C143 C144 1.390 . S
C143 H148 0.949 . S
C144 C143 1.390 . S
C144 C149 1.399 1_554 S
C145 C141 1.404 . S
C145 H146 0.950 . S
C145 C147 1.375 . S
H146 C145 0.950 . S
C147 C145 1.375 . S
C147 C149 1.382 . S
C147 H151 0.950 . S
H148 C143 0.949 . S
C149 C144 1.399 1_556 S
C149 C147 1.382 . S
C149 H150 0.952 . S
H150 C149 0.952 . S
H151 C147 0.950 . S
Sm152 C154 2.846 . S
Sm152 O172 2.543 . S
Sm152 O173 2.450 . S
Sm152 O174 2.681 1_565 S
Sm152 O175 2.464 . S
Sm152 O176 2.396 . S
Sm152 O180 2.386 1_455 S
Sm152 O183 2.408 1_565 S
Sm153 C163 2.846 . S
Sm153 O174 2.386 1_655 S
Sm153 O177 2.408 1_545 S
Sm153 O178 2.543 1_655 S
Sm153 O179 2.450 . S
Sm153 O180 2.681 1_545 S
Sm153 O181 2.464 . S
Sm153 O182 2.396 . S
C154 Sm152 2.846 . S
C154 C155 1.506 . S
C154 O172 1.263 . S
C154 O173 1.242 . S
C155 C154 1.506 . S
C155 C156 1.358 . S
C155 C160 1.382 . S
C156 C155 1.358 . S
C156 C157 1.385 . S
C156 H184 0.930 1_455 S
C157 C156 1.385 . S
C157 C158 1.395 . S
C157 H185 0.929 1_455 S
C158 C157 1.395 . S
C158 C159 1.335 . S
C159 C158 1.335 . S
C159 C160 1.398 . S
C159 H186 0.930 . S
C160 C155 1.382 . S
C160 C159 1.398 . S
C160 H187 0.929 . S
C161 O174 1.294 . S
C161 O175 1.219 1_545 S
C162 O176 1.252 1_655 S
C162 O177 1.272 . S
C163 Sm153 2.846 . S
C163 C164 1.506 . S
C163 O178 1.261 1_655 S
C163 O179 1.242 . S
C164 C163 1.506 . S
C164 C165 1.358 1_655 S
C164 C169 1.382 . S
C165 C164 1.358 1_455 S
C165 C166 1.385 . S
C165 H188 0.930 . S
C166 C165 1.385 . S
C166 C167 1.400 1_455 S
C166 H189 0.925 . S
C167 C166 1.400 1_655 S
C167 C168 1.335 . S
C168 C167 1.335 . S
C168 C169 1.398 . S
C168 H190 0.930 . S
C169 C164 1.382 . S
C169 C168 1.398 . S
C169 H191 0.929 . S
C170 O180 1.271 1_545 S
C170 O181 1.251 . S
C171 O182 1.252 1_455 S
C171 O183 1.272 . S
O172 Sm152 2.543 . S
O172 C154 1.263 . S
O173 Sm152 2.450 . S
O173 C154 1.242 . S
O174 Sm152 2.681 1_545 S
O174 Sm153 2.386 1_455 S
O174 C161 1.294 . S
O175 Sm152 2.464 . S
O175 C161 1.219 1_565 S
O176 Sm152 2.396 . S
O176 C162 1.252 1_455 S
O177 Sm153 2.408 1_565 S
O177 C162 1.272 . S
O178 Sm153 2.543 1_455 S
O178 C163 1.261 1_455 S
O179 Sm153 2.450 . S
O179 C163 1.242 . S
O180 Sm152 2.386 1_655 S
O180 Sm153 2.681 1_565 S
O180 C170 1.271 1_565 S
O181 Sm153 2.464 . S
O181 C170 1.251 . S
O182 Sm153 2.396 . S
O182 C171 1.252 1_655 S
O183 Sm152 2.408 1_545 S
O183 C171 1.272 . S
H184 C156 0.930 1_655 S
H185 C157 0.929 1_655 S
H186 C159 0.930 . S
H187 C160 0.929 . S
H188 C165 0.930 . S
H189 C166 0.925 . S
H190 C168 0.930 . S
H191 C169 0.929 . S
Sm192 C194 2.846 . S
Sm192 O212 2.540 . S
Sm192 O213 2.450 . S
Sm192 O214 2.681 . S
Sm192 O215 2.464 . S
Sm192 O216 2.396 . S
Sm192 O220 2.386 1_545 S
Sm192 O223 2.408 . S
Sm193 C203 2.846 . S
Sm193 O214 2.386 1_565 S
Sm193 O217 2.408 . S
Sm193 O218 2.543 1_565 S
Sm193 O219 2.450 . S
Sm193 O220 2.681 . S
Sm193 O221 2.464 . S
Sm193 O222 2.396 . S
C194 Sm192 2.846 . S
C194 C195 1.506 . S
C194 O212 1.255 . S
C194 O213 1.242 . S
C195 C194 1.506 . S
C195 C196 1.358 . S
C195 C200 1.382 . S
C196 C195 1.358 . S
C196 C197 1.385 . S
C196 H224 0.930 1_545 S
C197 C196 1.385 . S
C197 C198 1.395 . S
C197 H225 0.929 1_545 S
C198 C197 1.395 . S
C198 C199 1.335 . S
C199 C198 1.335 . S
C199 C200 1.398 . S
C199 H226 0.930 . S
C200 C195 1.382 . S
C200 C199 1.398 . S
C200 H227 0.929 . S
C201 O214 1.271 . S
C201 O215 1.251 . S
C202 O216 1.252 1_565 S
C202 O217 1.272 . S
C203 Sm193 2.846 . S
C203 C204 1.506 . S
C203 O218 1.261 1_565 S
C203 O219 1.242 . S
C204 C203 1.506 . S
C204 C205 1.358 1_565 S
C204 C209 1.382 . S
C205 C204 1.358 1_545 S
C205 C206 1.386 1_545 S
C205 H228 0.930 . S
C206 C205 1.386 1_565 S
C206 C207 1.394 . S
C206 H229 0.930 1_565 S
C207 C206 1.394 . S
C207 C208 1.335 . S
C208 C207 1.335 . S
C208 C209 1.398 . S
C208 H230 0.930 . S
C209 C204 1.382 . S
C209 C208 1.398 . S
C209 H231 0.929 . S
C210 O220 1.271 . S
C210 O221 1.251 . S
C211 O222 1.252 1_545 S
C211 O223 1.272 . S
O212 Sm192 2.540 . S
O212 C194 1.255 . S
O213 Sm192 2.450 . S
O213 C194 1.242 . S
O214 Sm192 2.681 . S
O214 Sm193 2.386 1_545 S
O214 C201 1.271 . S
O215 Sm192 2.464 . S
O215 C201 1.251 . S
O216 Sm192 2.396 . S
O216 C202 1.252 1_545 S
O217 Sm193 2.408 . S
O217 C202 1.272 . S
O218 Sm193 2.543 1_545 S
O218 C203 1.261 1_545 S
O219 Sm193 2.450 . S
O219 C203 1.242 . S
O220 Sm192 2.386 1_565 S
O220 Sm193 2.681 . S
O220 C210 1.271 . S
O221 Sm193 2.464 . S
O221 C210 1.251 . S
O222 Sm193 2.396 . S
O222 C211 1.252 1_565 S
O223 Sm192 2.408 . S
O223 C211 1.272 . S
H224 C196 0.930 1_565 S
H225 C197 0.929 1_565 S
H226 C199 0.930 . S
H227 C200 0.929 . S
H228 C205 0.930 . S
H229 C206 0.930 1_545 S
H230 C208 0.930 . S
H231 C209 0.929 . S
Sm232 C234 2.846 . S
Sm232 O252 2.543 . S
Sm232 O253 2.450 . S
Sm232 O254 2.681 . S
Sm232 O255 2.464 . S
Sm232 O256 2.396 . S
Sm232 O260 2.386 . S
Sm232 O263 2.408 . S
Sm233 C243 2.846 . S
Sm233 O254 2.386 . S
Sm233 O257 2.408 . S
Sm233 O258 2.543 . S
Sm233 O259 2.450 . S
Sm233 O260 2.681 . S
Sm233 O261 2.464 . S
Sm233 O262 2.396 . S
C234 Sm232 2.846 . S
C234 C235 1.506 . S
C234 O252 1.261 . S
C234 O253 1.242 . S
C235 C234 1.506 . S
C235 C236 1.358 . S
C235 C240 1.382 . S
C236 C235 1.358 . S
C236 C237 1.385 . S
C236 H264 0.930 . S
C237 C236 1.385 . S
C237 C238 1.395 . S
C237 H265 0.929 . S
C238 C237 1.395 . S
C238 C239 1.335 . S
C239 C238 1.335 . S
C239 C240 1.398 . S
C239 H266 0.930 . S
C240 C235 1.382 . S
C240 C239 1.398 . S
C240 H267 0.929 . S
C241 O254 1.271 . S
C241 O255 1.251 . S
C242 O256 1.252 . S
C242 O257 1.272 . S
C243 Sm233 2.846 . S
C243 C244 1.506 . S
C243 O258 1.261 . S
C243 O259 1.242 . S
C244 C243 1.506 . S
C244 C245 1.358 . S
C244 C249 1.382 . S
C245 C244 1.358 . S
C245 C246 1.385 . S
C245 H268 0.930 . S
C246 C245 1.385 . S
C246 C247 1.395 . S
C246 H269 0.929 . S
C247 C246 1.395 . S
C247 C248 1.335 . S
C248 C247 1.335 . S
C248 C249 1.398 . S
C248 H270 0.930 . S
C249 C244 1.382 . S
C249 C248 1.398 . S
C249 H271 0.929 . S
C250 O260 1.271 . S
C250 O261 1.251 . S
C251 O262 1.252 . S
C251 O263 1.272 . S
O252 Sm232 2.543 . S
O252 C234 1.261 . S
O253 Sm232 2.450 . S
O253 C234 1.242 . S
O254 Sm232 2.681 . S
O254 Sm233 2.386 . S
O254 C241 1.271 . S
O255 Sm232 2.464 . S
O255 C241 1.251 . S
O256 Sm232 2.396 . S
O256 C242 1.252 . S
O257 Sm233 2.408 . S
O257 C242 1.272 . S
O258 Sm233 2.543 . S
O258 C243 1.261 . S
O259 Sm233 2.450 . S
O259 C243 1.242 . S
O260 Sm232 2.386 . S
O260 Sm233 2.681 . S
O260 C250 1.271 . S
O261 Sm233 2.464 . S
O261 C250 1.251 . S
O262 Sm233 2.396 . S
O262 C251 1.252 . S
O263 Sm232 2.408 . S
O263 C251 1.272 . S
H264 C236 0.930 . S
H265 C237 0.929 . S
H266 C239 0.930 . S
H267 C240 0.929 . S
H268 C245 0.930 . S
H269 C246 0.929 . S
H270 C248 0.930 . S
H271 C249 0.929 . S
Sm272 C274 2.846 . S
Sm272 O292 2.543 . S
Sm272 O293 2.450 . S
Sm272 O294 2.681 1_655 S
Sm272 O295 2.464 . S
Sm272 O296 2.396 . S
Sm272 O300 2.386 . S
Sm272 O303 2.408 1_655 S
Sm273 C283 2.846 . S
Sm273 O294 2.386 . S
Sm273 O297 2.408 1_455 S
Sm273 O298 2.543 . S
Sm273 O299 2.450 . S
Sm273 O300 2.681 1_455 S
Sm273 O301 2.464 . S
Sm273 O302 2.396 . S
C274 Sm272 2.846 . S
C274 C275 1.506 . S
C274 O292 1.261 . S
C274 O293 1.242 . S
C275 C274 1.506 . S
C275 C276 1.358 . S
C275 C280 1.382 . S
C276 C275 1.358 . S
C276 C277 1.385 . S
C276 H304 0.930 . S
C277 C276 1.385 . S
C277 C278 1.395 . S
C277 H305 0.929 . S
C278 C277 1.395 . S
C278 C279 1.335 . S
C279 C278 1.335 . S
C279 C280 1.398 . S
C279 H306 0.930 . S
C280 C275 1.382 . S
C280 C279 1.398 . S
C280 H307 0.929 . S
C281 O294 1.271 . S
C281 O295 1.251 1_455 S
C282 O296 1.252 . S
C282 O297 1.272 . S
C283 Sm273 2.846 . S
C283 C284 1.506 . S
C283 O298 1.261 . S
C283 O299 1.242 . S
C284 C283 1.506 . S
C284 C285 1.358 . S
C284 C289 1.382 . S
C285 C284 1.358 . S
C285 C286 1.385 . S
C285 H308 0.930 . S
C286 C285 1.385 . S
C286 C287 1.395 . S
C286 H309 0.929 . S
C287 C286 1.395 . S
C287 C288 1.335 . S
C288 C287 1.335 . S
C288 C289 1.398 . S
C288 H310 0.930 . S
C289 C284 1.382 . S
C289 C288 1.398 . S
C289 H311 0.929 . S
C290 O300 1.271 1_455 S
C290 O301 1.251 . S
C291 O302 1.252 . S
C291 O303 1.272 . S
O292 Sm272 2.543 . S
O292 C274 1.261 . S
O293 Sm272 2.450 . S
O293 C274 1.242 . S
O294 Sm272 2.681 1_455 S
O294 Sm273 2.386 . S
O294 C281 1.271 . S
O295 Sm272 2.464 . S
O295 C281 1.251 1_655 S
O296 Sm272 2.396 . S
O296 C282 1.252 . S
O297 Sm273 2.408 1_655 S
O297 C282 1.272 . S
O298 Sm273 2.543 . S
O298 C283 1.261 . S
O299 Sm273 2.450 . S
O299 C283 1.242 . S
O300 Sm272 2.386 . S
O300 Sm273 2.681 1_655 S
O300 C290 1.271 1_655 S
O301 Sm273 2.464 . S
O301 C290 1.251 . S
O302 Sm273 2.396 . S
O302 C291 1.252 . S
O303 Sm272 2.408 1_455 S
O303 C291 1.272 . S
H304 C276 0.930 . S
H305 C277 0.929 . S
H306 C279 0.930 . S
H307 C280 0.929 . S
H308 C285 0.930 . S
H309 C286 0.929 . S
H310 C288 0.930 . S
H311 C289 0.929 . S
H312 C320 0.929 . S
H313 C322 0.930 . S
H314 C324 0.930 . S
H315 C327 0.929 . S
H316 C330 0.930 . S
H317 C332 0.960 . S
H318 C332 0.960 1_545 S
H319 C332 0.960 . S
C320 H312 0.929 . S
C320 C321 1.377 . S
C320 C322 1.384 . S
C321 C320 1.377 . S
C321 C327 1.390 1_545 S
C322 H313 0.930 . S
C322 C320 1.384 . S
C322 C323 1.372 . S
C323 C322 1.372 . S
C323 C324 1.400 1_545 S
C323 C328 1.490 . S
C324 H314 0.930 . S
C324 C323 1.400 1_565 S
C324 C327 1.386 . S
H325 C341 0.930 . S
H326 C342 0.931 . S
C327 H315 0.929 . S
C327 C321 1.390 1_565 S
C327 C324 1.386 . S
C328 C323 1.490 . S
C328 C330 1.395 . S
C328 C331 1.403 . S
H329 C335 0.930 1_565 S
C330 H316 0.930 . S
C330 C328 1.395 . S
C330 C333 1.403 . S
C331 C328 1.403 . S
C331 C332 1.524 1_545 S
C331 C335 1.400 . S
C332 H317 0.960 . S
C332 H318 0.960 1_565 S
C332 H319 0.960 . S
C332 C331 1.524 1_565 S
C333 C330 1.403 . S
C333 C334 1.392 . S
C333 C337 1.495 . S
C334 C333 1.392 . S
C334 C335 1.385 . S
C334 C336 1.478 . S
C335 H329 0.930 1_545 S
C335 C331 1.400 . S
C335 C334 1.385 . S
C336 C334 1.478 . S
C336 C338 1.381 . S
C336 C342 1.383 1_545 S
C337 C333 1.495 . S
C337 H343 0.959 . S
C337 H344 0.961 . S
C337 H345 0.960 . S
C338 C336 1.381 . S
C338 C339 1.394 . S
C338 H346 0.930 . S
C339 C338 1.394 . S
C339 C340 1.383 . S
C339 H347 0.929 . S
C340 C339 1.383 . S
C340 C341 1.377 1_545 S
C341 H325 0.930 . S
C341 C340 1.377 1_565 S
C341 C342 1.379 . S
C342 H326 0.931 . S
C342 C336 1.383 1_565 S
C342 C341 1.379 . S
H343 C337 0.959 . S
H344 C337 0.961 . S
H345 C337 0.960 . S
H346 C338 0.930 . S
H347 C339 0.929 . S
H348 C356 0.929 . S
H349 C358 0.930 . S
H350 C360 0.930 . S
H351 C363 0.929 . S
H352 C366 0.930 . S
H353 C368 0.960 . S
H354 C368 0.960 . S
H355 C368 0.960 . S
C356 H348 0.929 . S
C356 C357 1.377 . S
C356 C358 1.384 . S
C357 C356 1.377 . S
C357 C363 1.390 . S
C358 H349 0.930 . S
C358 C356 1.384 . S
C358 C359 1.372 . S
C359 C358 1.372 . S
C359 C360 1.400 . S
C359 C364 1.490 . S
C360 H350 0.930 . S
C360 C359 1.400 . S
C360 C363 1.386 . S
H361 C377 0.930 . S
H362 C378 0.931 . S
C363 H351 0.929 . S
C363 C357 1.390 . S
C363 C360 1.386 . S
C364 C359 1.490 . S
C364 C366 1.395 . S
C364 C367 1.403 . S
H365 C371 0.930 . S
C366 H352 0.930 . S
C366 C364 1.395 . S
C366 C369 1.403 . S
C367 C364 1.403 . S
C367 C368 1.524 . S
C367 C371 1.400 . S
C368 H353 0.960 . S
C368 H354 0.960 . S
C368 H355 0.960 . S
C368 C367 1.524 . S
C369 C366 1.403 . S
C369 C370 1.392 . S
C369 C373 1.495 . S
C370 C369 1.392 . S
C370 C371 1.385 . S
C370 C372 1.478 . S
C371 H365 0.930 . S
C371 C367 1.400 . S
C371 C370 1.385 . S
C372 C370 1.478 . S
C372 C374 1.381 . S
C372 C378 1.383 . S
C373 C369 1.495 . S
C373 H379 0.959 . S
C373 H380 0.961 . S
C373 H381 0.960 . S
C374 C372 1.381 . S
C374 C375 1.394 . S
C374 H382 0.930 . S
C375 C374 1.394 . S
C375 C376 1.383 . S
C375 H383 0.929 . S
C376 C375 1.383 . S
C376 C377 1.377 . S
C377 H361 0.930 . S
C377 C376 1.377 . S
C377 C378 1.379 . S
C378 H362 0.931 . S
C378 C372 1.383 . S
C378 C377 1.379 . S
H379 C373 0.959 . S
H380 C373 0.961 . S
H381 C373 0.960 . S
H382 C374 0.930 . S
H383 C375 0.929 . S
H384 C392 0.929 . S
H385 C394 0.930 . S
H386 C396 0.930 . S
H387 C399 0.929 . S
H388 C402 0.930 . S
H389 C404 0.960 . S
H390 C404 0.960 . S
H391 C404 0.960 . S
C392 H384 0.929 . S
C392 C393 1.377 . S
C392 C394 1.384 . S
C393 C392 1.377 . S
C393 C399 1.390 . S
C394 H385 0.930 . S
C394 C392 1.384 . S
C394 C395 1.372 . S
C395 C394 1.372 . S
C395 C396 1.400 . S
C395 C400 1.490 . S
C396 H386 0.930 . S
C396 C395 1.400 . S
C396 C399 1.386 . S
H397 C413 0.930 . S
H398 C414 0.931 . S
C399 H387 0.929 . S
C399 C393 1.390 . S
C399 C396 1.386 . S
C400 C395 1.490 . S
C400 C402 1.395 . S
C400 C403 1.403 . S
H401 C407 0.930 . S
C402 H388 0.930 . S
C402 C400 1.395 . S
C402 C405 1.403 . S
C403 C400 1.403 . S
C403 C404 1.524 . S
C403 C407 1.400 . S
C404 H389 0.960 . S
C404 H390 0.960 . S
C404 H391 0.960 . S
C404 C403 1.524 . S
C405 C402 1.403 . S
C405 C406 1.392 . S
C405 C409 1.495 . S
C406 C405 1.392 . S
C406 C407 1.385 . S
C406 C408 1.478 . S
C407 H401 0.930 . S
C407 C403 1.400 . S
C407 C406 1.385 . S
C408 C406 1.478 . S
C408 C410 1.381 . S
C408 C414 1.383 . S
C409 C405 1.495 . S
C409 H415 0.959 . S
C409 H416 0.961 . S
C409 H417 0.960 . S
C410 C408 1.381 . S
C410 C411 1.394 . S
C410 H418 0.930 . S
C411 C410 1.394 . S
C411 C412 1.383 . S
C411 H419 0.929 . S
C412 C411 1.383 . S
C412 C413 1.377 . S
C413 H397 0.930 . S
C413 C412 1.377 . S
C413 C414 1.379 . S
C414 H398 0.931 . S
C414 C408 1.383 . S
C414 C413 1.379 . S
H415 C409 0.959 . S
H416 C409 0.961 . S
H417 C409 0.960 . S
H418 C410 0.930 . S
H419 C411 0.929 . S
H420 C428 0.929 . S
H421 C430 0.930 . S
H422 C432 0.930 1_655 S
H423 C435 0.926 1_655 S
H424 C438 0.930 . S
H425 C440 0.960 . S
H426 C440 0.960 . S
H427 C440 0.960 . S
C428 H420 0.929 . S
C428 C429 1.377 . S
C428 C430 1.384 . S
C429 C428 1.377 . S
C429 C435 1.390 . S
C430 H421 0.930 . S
C430 C428 1.384 . S
C430 C431 1.372 . S
C431 C430 1.372 . S
C431 C432 1.400 . S
C431 C436 1.490 . S
C432 H422 0.930 1_455 S
C432 C431 1.400 . S
C432 C435 1.386 . S
H433 C449 0.930 . S
H434 C450 0.931 . S
C435 H423 0.926 1_455 S
C435 C429 1.390 . S
C435 C432 1.386 . S
C436 C431 1.490 . S
C436 C438 1.395 1_455 S
C436 C439 1.403 . S
H437 C443 0.930 . S
C438 H424 0.930 . S
C438 C436 1.395 1_655 S
C438 C441 1.403 . S
C439 C436 1.403 . S
C439 C440 1.524 . S
C439 C443 1.400 . S
C440 H425 0.960 . S
C440 H426 0.960 . S
C440 H427 0.960 . S
C440 C439 1.524 . S
C441 C438 1.403 . S
C441 C442 1.392 1_655 S
C441 C445 1.495 . S
C442 C441 1.392 1_455 S
C442 C443 1.385 . S
C442 C444 1.479 . S
C443 H437 0.930 . S
C443 C439 1.400 . S
C443 C442 1.385 . S
C444 C442 1.479 . S
C444 C446 1.394 . S
C444 C450 1.373 1_455 S
C445 C441 1.495 . S
C445 H451 0.959 . S
C445 H452 0.961 . S
C445 H453 0.960 . S
C446 C444 1.394 . S
C446 C447 1.394 . S
C446 H454 0.930 . S
C447 C446 1.394 . S
C447 C448 1.383 . S
C447 H455 0.929 . S
C448 C447 1.383 . S
C448 C449 1.377 1_455 S
C449 H433 0.930 . S
C449 C448 1.377 1_655 S
C449 C450 1.379 . S
C450 H434 0.931 . S
C450 C444 1.373 1_655 S
C450 C449 1.379 . S
H451 C445 0.959 . S
H452 C445 0.961 . S
H453 C445 0.960 . S
H454 C446 0.930 . S
H455 C447 0.929 . S
H456 C464 0.929 . S
H457 C466 0.930 . S
H458 C468 0.930 . S
H459 C471 0.929 . S
H460 C474 0.930 . S
H461 C476 0.960 . S
H462 C476 0.960 . S
H463 C476 0.960 1_554 S
C464 H456 0.929 . S
C464 C465 1.360 1_545 S
C464 C466 1.384 . S
C465 C464 1.360 1_565 S
C465 C471 1.407 . S
C466 H457 0.930 . S
C466 C464 1.384 . S
C466 C467 1.406 . S
C467 C466 1.406 . S
C467 C468 1.364 1_545 S
C467 C472 1.492 . S
C468 H458 0.930 . S
C468 C467 1.364 1_565 S
C468 C471 1.386 . S
H469 C485 0.930 . S
H470 C486 0.931 . S
C471 H459 0.929 . S
C471 C465 1.407 . S
C471 C468 1.386 . S
C472 C467 1.492 . S
C472 C474 1.395 . S
C472 C475 1.403 1_545 S
H473 C479 0.930 . S
C474 H460 0.930 . S
C474 C472 1.395 . S
C474 C477 1.403 . S
C475 C472 1.403 1_565 S
C475 C476 1.524 1_554 S
C475 C479 1.400 1_554 S
C476 H461 0.960 . S
C476 H462 0.960 . S
C476 H463 0.960 1_556 S
C476 C475 1.524 1_556 S
C477 C474 1.403 . S
C477 C478 1.392 1_554 S
C477 C481 1.495 . S
C478 C477 1.392 1_556 S
C478 C479 1.385 1_545 S
C478 C480 1.478 . S
C479 H473 0.930 . S
C479 C475 1.400 1_556 S
C479 C478 1.385 1_565 S
C480 C478 1.478 . S
C480 C482 1.381 . S
C480 C486 1.383 1_545 S
C481 C477 1.495 . S
C481 H487 0.959 . S
C481 H488 0.961 . S
C481 H489 0.960 . S
C482 C480 1.381 . S
C482 C483 1.394 . S
C482 H490 0.930 . S
C483 C482 1.394 . S
C483 C484 1.383 . S
C483 H491 0.929 . S
C484 C483 1.383 . S
C484 C485 1.377 1_545 S
C485 H469 0.930 . S
C485 C484 1.377 1_565 S
C485 C486 1.379 . S
C486 H470 0.931 . S
C486 C480 1.383 1_565 S
C486 C485 1.379 . S
H487 C481 0.959 . S
H488 C481 0.961 . S
H489 C481 0.960 . S
H490 C482 0.930 . S
H491 C483 0.929 . S
H492 C500 0.929 . S
H493 C502 0.930 . S
H494 C504 0.930 . S
H495 C507 0.929 . S
H496 C510 0.930 . S
H497 C512 0.960 . S
H498 C512 0.960 . S
H499 C512 0.960 . S
C500 H492 0.929 . S
C500 C501 1.377 . S
C500 C502 1.384 . S
C501 C500 1.377 . S
C501 C507 1.390 . S
C502 H493 0.930 . S
C502 C500 1.384 . S
C502 C503 1.372 . S
C503 C502 1.372 . S
C503 C504 1.400 . S
C503 C508 1.490 . S
C504 H494 0.930 . S
C504 C503 1.400 . S
C504 C507 1.386 . S
H505 C521 0.930 . S
H506 C522 0.931 . S
C507 H495 0.929 . S
C507 C501 1.390 . S
C507 C504 1.386 . S
C508 C503 1.490 . S
C508 C510 1.395 1_554 S
C508 C511 1.403 . S
H509 C515 0.930 . S
C510 H496 0.930 . S
C510 C508 1.395 1_556 S
C510 C513 1.403 . S
C511 C508 1.403 . S
C511 C512 1.524 . S
C511 C515 1.400 . S
C512 H497 0.960 . S
C512 H498 0.960 . S
C512 H499 0.960 . S
C512 C511 1.524 . S
C513 C510 1.403 . S
C513 C514 1.392 . S
C513 C517 1.495 . S
C514 C513 1.392 . S
C514 C515 1.385 1_556 S
C514 C516 1.478 . S
C515 H509 0.930 . S
C515 C511 1.400 . S
C515 C514 1.385 1_554 S
C516 C514 1.478 . S
C516 C518 1.381 . S
C516 C522 1.383 . S
C517 C513 1.495 . S
C517 H523 0.959 . S
C517 H524 0.961 . S
C517 H525 0.960 . S
C518 C516 1.381 . S
C518 C519 1.394 . S
C518 H526 0.930 . S
C519 C518 1.394 . S
C519 C520 1.383 . S
C519 H527 0.929 . S
C520 C519 1.383 . S
C520 C521 1.377 . S
C521 H505 0.930 . S
C521 C520 1.377 . S
C521 C522 1.379 . S
C522 H506 0.931 . S
C522 C516 1.383 . S
C522 C521 1.379 . S
H523 C517 0.959 . S
H524 C517 0.961 . S
H525 C517 0.960 . S
H526 C518 0.930 . S
H527 C519 0.929 . S
H528 C536 0.929 . S
H529 C538 0.930 . S
H530 C540 0.930 . S
H531 C543 0.929 . S
H532 C546 0.930 1_556 S
H533 C548 0.960 . S
H534 C548 0.960 . S
H535 C548 0.960 . S
C536 H528 0.929 . S
C536 C537 1.377 . S
C536 C538 1.384 . S
C537 C536 1.377 . S
C537 C543 1.390 . S
C538 H529 0.930 . S
C538 C536 1.384 . S
C538 C539 1.372 . S
C539 C538 1.372 . S
C539 C540 1.400 . S
C539 C544 1.490 . S
C540 H530 0.930 . S
C540 C539 1.400 . S
C540 C543 1.386 . S
H541 C557 0.930 . S
H542 C558 0.931 . S
C543 H531 0.929 . S
C543 C537 1.390 . S
C543 C540 1.386 . S
C544 C539 1.490 . S
C544 C546 1.395 . S
C544 C547 1.403 . S
H545 C551 0.930 . S
C546 H532 0.930 1_554 S
C546 C544 1.395 . S
C546 C549 1.403 1_554 S
C547 C544 1.403 . S
C547 C548 1.524 . S
C547 C551 1.400 . S
C548 H533 0.960 . S
C548 H534 0.960 . S
C548 H535 0.960 . S
C548 C547 1.524 . S
C549 C546 1.403 1_556 S
C549 C550 1.392 . S
C549 C553 1.495 . S
C550 C549 1.392 . S
C550 C551 1.385 1_556 S
C550 C552 1.478 . S
C551 H545 0.930 . S
C551 C547 1.400 . S
C551 C550 1.385 1_554 S
C552 C550 1.478 . S
C552 C554 1.381 . S
C552 C558 1.383 . S
C553 C549 1.495 . S
C553 H559 0.959 . S
C553 H560 0.961 . S
C553 H561 0.960 . S
C554 C552 1.381 . S
C554 C555 1.394 . S
C554 H562 0.930 . S
C555 C554 1.394 . S
C555 C556 1.383 . S
C555 H563 0.929 . S
C556 C555 1.383 . S
C556 C557 1.377 . S
C557 H541 0.930 . S
C557 C556 1.377 . S
C557 C558 1.379 . S
C558 H542 0.931 . S
C558 C552 1.383 . S
C558 C557 1.379 . S
H559 C553 0.959 . S
H560 C553 0.961 . S
H561 C553 0.960 . S
H562 C554 0.930 . S
H563 C555 0.929 . S
H564 C572 0.929 . S
H565 C574 0.930 . S
H566 C576 0.930 . S
H567 C579 0.929 . S
H568 C582 0.929 . S
H569 C584 0.960 . S
H570 C584 0.960 . S
H571 C584 0.960 1_655 S
C572 H564 0.929 . S
C572 C573 1.379 1_455 S
C572 C574 1.384 . S
C573 C572 1.379 1_655 S
C573 C579 1.388 . S
C574 H565 0.930 . S
C574 C572 1.384 . S
C574 C575 1.411 . S
C575 C574 1.411 . S
C575 C576 1.361 1_455 S
C575 C580 1.490 . S
C576 H566 0.930 . S
C576 C575 1.361 1_655 S
C576 C579 1.386 . S
H577 C593 0.930 . S
H578 C594 0.931 . S
C579 H567 0.929 . S
C579 C573 1.388 . S
C579 C576 1.386 . S
C580 C575 1.490 . S
C580 C582 1.392 1_455 S
C580 C583 1.408 1_554 S
H581 C587 0.930 . S
C582 H568 0.929 . S
C582 C580 1.392 1_655 S
C582 C585 1.403 . S
C583 C580 1.408 1_556 S
C583 C584 1.524 . S
C583 C587 1.400 . S
C584 H569 0.960 . S
C584 H570 0.960 . S
C584 H571 0.960 1_455 S
C584 C583 1.524 . S
C585 C582 1.403 . S
C585 C586 1.390 1_654 S
C585 C589 1.497 . S
C586 C585 1.390 1_456 S
C586 C587 1.388 . S
C586 C588 1.477 . S
C587 H581 0.930 . S
C587 C583 1.400 . S
C587 C586 1.388 . S
C588 C586 1.477 . S
C588 C590 1.386 . S
C588 C594 1.377 1_455 S
C589 C585 1.497 . S
C589 H595 0.959 . S
C589 H596 0.961 . S
C589 H597 0.960 1_655 S
C590 C588 1.386 . S
C590 C591 1.394 . S
C590 H598 0.930 . S
C591 C590 1.394 . S
C591 C592 1.402 . S
C591 H599 0.929 . S
C592 C591 1.402 . S
C592 C593 1.358 1_455 S
C593 H577 0.930 . S
C593 C592 1.358 1_655 S
C593 C594 1.379 . S
C594 H578 0.931 . S
C594 C588 1.377 1_655 S
C594 C593 1.379 . S
H595 C589 0.959 . S
H596 C589 0.961 . S
H597 C589 0.960 1_455 S
H598 C590 0.930 . S
H599 C591 0.929 . S
H600 C608 0.929 . S
H601 C610 0.930 . S
H602 C612 0.930 . S
H603 C615 0.929 . S
H604 C618 0.930 . S
H605 C620 0.960 . S
H606 C620 0.960 . S
H607 C620 0.960 . S
C608 H600 0.929 . S
C608 C609 1.377 . S
C608 C610 1.384 . S
C609 C608 1.377 . S
C609 C615 1.390 1_455 S
C610 H601 0.930 . S
C610 C608 1.384 . S
C610 C611 1.383 . S
C611 C610 1.383 . S
C611 C612 1.390 1_455 S
C611 C616 1.488 1_455 S
C612 H602 0.930 . S
C612 C611 1.390 1_655 S
C612 C615 1.386 . S
H613 C629 0.930 . S
H614 C630 0.931 . S
C615 H603 0.929 . S
C615 C609 1.390 1_655 S
C615 C612 1.386 . S
C616 C611 1.488 1_655 S
C616 C618 1.395 1_655 S
C616 C619 1.403 . S
H617 C623 0.930 . S
C618 H604 0.930 . S
C618 C616 1.395 1_455 S
C618 C621 1.397 1_455 S
C619 C616 1.403 . S
C619 C620 1.524 . S
C619 C623 1.400 . S
C620 H605 0.960 . S
C620 H606 0.960 . S
C620 H607 0.960 . S
C620 C619 1.524 . S
C621 C618 1.397 1_655 S
C621 C622 1.415 . S
C621 C625 1.483 1_655 S
C622 C621 1.415 . S
C622 C623 1.385 . S
C622 C624 1.478 . S
C623 H617 0.930 . S
C623 C619 1.400 . S
C623 C622 1.385 . S
C624 C622 1.478 . S
C624 C626 1.381 1_655 S
C624 C630 1.383 . S
C625 C621 1.483 1_455 S
C625 H631 0.959 . S
C625 H632 0.961 1_455 S
C625 H633 0.960 . S
C626 C624 1.381 1_455 S
C626 C627 1.394 1_455 S
C626 H634 0.930 . S
C627 C626 1.394 1_655 S
C627 C628 1.383 . S
C627 H635 0.929 1_655 S
C628 C627 1.383 . S
C628 C629 1.377 . S
C629 H613 0.930 . S
C629 C628 1.377 . S
C629 C630 1.379 . S
C630 H614 0.931 . S
C630 C624 1.383 . S
C630 C629 1.379 . S
H631 C625 0.959 . S
H632 C625 0.961 1_655 S
H633 C625 0.960 . S
H634 C626 0.930 . S
H635 C627 0.929 1_455 S
H636 C644 0.929 . S
H637 C646 0.930 . S
H638 C648 0.930 . S
H639 C651 0.929 . S
H640 C654 0.930 . S
H641 C656 0.960 . S
H642 C656 0.960 . S
H643 C656 0.960 1_545 S
C644 H636 0.929 . S
C644 C645 1.377 1_565 S
C644 C646 1.384 . S
C645 C644 1.377 1_545 S
C645 C651 1.390 . S
C646 H637 0.930 . S
C646 C644 1.384 . S
C646 C647 1.372 . S
C647 C646 1.372 . S
C647 C648 1.400 1_565 S
C647 C652 1.490 . S
C648 H638 0.930 . S
C648 C647 1.400 1_545 S
C648 C651 1.386 . S
H649 C665 0.930 1_545 S
H650 C666 0.935 . S
C651 H639 0.929 . S
C651 C645 1.390 . S
C651 C648 1.386 . S
C652 C647 1.490 . S
C652 C654 1.395 . S
C652 C655 1.403 . S
H653 C659 0.930 . S
C654 H640 0.930 . S
C654 C652 1.395 . S
C654 C657 1.403 . S
C655 C652 1.403 . S
C655 C656 1.524 . S
C655 C659 1.400 . S
C656 H641 0.960 . S
C656 H642 0.960 . S
C656 H643 0.960 1_565 S
C656 C655 1.524 . S
C657 C654 1.403 . S
C657 C658 1.392 . S
C657 C661 1.495 . S
C658 C657 1.392 . S
C658 C659 1.385 . S
C658 C660 1.478 . S
C659 H653 0.930 . S
C659 C655 1.400 . S
C659 C658 1.385 . S
C660 C658 1.478 . S
C660 C662 1.381 . S
C660 C666 1.379 1_565 S
C661 C657 1.495 . S
C661 H667 0.959 . S
C661 H668 0.961 . S
C661 H669 0.960 . S
C662 C660 1.381 . S
C662 C663 1.394 . S
C662 H670 0.930 . S
C663 C662 1.394 . S
C663 C664 1.383 . S
C663 H671 0.929 . S
C664 C663 1.383 . S
C664 C665 1.377 . S
C665 H649 0.930 1_565 S
C665 C664 1.377 . S
C665 C666 1.379 1_565 S
C666 H650 0.935 . S
C666 C660 1.379 1_545 S
C666 C665 1.379 1_545 S
H667 C661 0.959 . S
H668 C661 0.961 . S
H669 C661 0.960 . S
H670 C662 0.930 . S
H671 C663 0.929 . S
H672 C680 0.929 . S
H673 C682 0.930 . S
H674 C684 0.930 . S
H675 C687 0.929 1_556 S
H676 C690 0.930 . S
H677 C692 0.960 . S
H678 C692 0.960 . S
H679 C692 0.960 . S
C680 H672 0.929 . S
C680 C681 1.377 . S
C680 C682 1.384 . S
C681 C680 1.377 . S
C681 C687 1.390 . S
C682 H673 0.930 . S
C682 C680 1.384 . S
C682 C683 1.372 . S
C683 C682 1.372 . S
C683 C684 1.400 . S
C683 C688 1.490 . S
C684 H674 0.930 . S
C684 C683 1.400 . S
C684 C687 1.386 . S
H685 C701 0.930 . S
H686 C702 0.931 . S
C687 H675 0.929 1_554 S
C687 C681 1.390 . S
C687 C684 1.386 . S
C688 C683 1.490 . S
C688 C690 1.395 . S
C688 C691 1.403 . S
H689 C695 0.930 . S
C690 H676 0.930 . S
C690 C688 1.395 . S
C690 C693 1.403 . S
C691 C688 1.403 . S
C691 C692 1.524 . S
C691 C695 1.400 . S
C692 H677 0.960 . S
C692 H678 0.960 . S
C692 H679 0.960 . S
C692 C691 1.524 . S
C693 C690 1.403 . S
C693 C694 1.392 . S
C693 C697 1.495 . S
C694 C693 1.392 . S
C694 C695 1.385 . S
C694 C696 1.478 . S
C695 H689 0.930 . S
C695 C691 1.400 . S
C695 C694 1.385 . S
C696 C694 1.478 . S
C696 C698 1.381 . S
C696 C702 1.383 . S
C697 C693 1.495 . S
C697 H703 0.959 . S
C697 H704 0.961 . S
C697 H705 0.960 . S
C698 C696 1.381 . S
C698 C699 1.394 . S
C698 H706 0.930 . S
C699 C698 1.394 . S
C699 C700 1.383 . S
C699 H707 0.929 . S
C700 C699 1.383 . S
C700 C701 1.377 . S
C701 H685 0.930 . S
C701 C700 1.377 . S
C701 C702 1.379 . S
C702 H686 0.931 . S
C702 C696 1.383 . S
C702 C701 1.379 . S
H703 C697 0.959 . S
H704 C697 0.961 . S
H705 C697 0.960 . S
H706 C698 0.930 . S
H707 C699 0.929 . S
H708 C716 0.929 . S
H709 C718 0.930 . S
H710 C720 0.930 . S
H711 C723 0.929 . S
H712 C726 0.930 . S
H713 C728 0.960 . S
H714 C728 0.960 . S
H715 C728 0.960 . S
C716 H708 0.929 . S
C716 C717 1.377 . S
C716 C718 1.384 . S
C717 C716 1.377 . S
C717 C723 1.390 . S
C718 H709 0.930 . S
C718 C716 1.384 . S
C718 C719 1.372 . S
C719 C718 1.372 . S
C719 C720 1.400 . S
C719 C724 1.490 . S
C720 H710 0.930 . S
C720 C719 1.400 . S
C720 C723 1.386 . S
H721 C737 0.930 . S
H722 C738 0.931 . S
C723 H711 0.929 . S
C723 C717 1.390 . S
C723 C720 1.386 . S
C724 C719 1.490 . S
C724 C726 1.395 . S
C724 C727 1.403 . S
H725 C731 0.930 . S
C726 H712 0.930 . S
C726 C724 1.395 . S
C726 C729 1.403 . S
C727 C724 1.403 . S
C727 C728 1.524 . S
C727 C731 1.400 . S
C728 H713 0.960 . S
C728 H714 0.960 . S
C728 H715 0.960 . S
C728 C727 1.524 . S
C729 C726 1.403 . S
C729 C730 1.392 . S
C729 C733 1.495 . S
C730 C729 1.392 . S
C730 C731 1.385 . S
C730 C732 1.478 . S
C731 H725 0.930 . S
C731 C727 1.400 . S
C731 C730 1.385 . S
C732 C730 1.478 . S
C732 C734 1.381 . S
C732 C738 1.383 . S
C733 C729 1.495 . S
C733 H739 0.959 . S
C733 H740 0.961 . S
C733 H741 0.960 . S
C734 C732 1.381 . S
C734 C735 1.394 . S
C734 H742 0.930 . S
C735 C734 1.394 . S
C735 C736 1.383 . S
C735 H743 0.929 . S
C736 C735 1.383 . S
C736 C737 1.377 . S
C737 H721 0.930 . S
C737 C736 1.377 . S
C737 C738 1.379 . S
C738 H722 0.931 . S
C738 C732 1.383 . S
C738 C737 1.379 . S
H739 C733 0.959 . S
H740 C733 0.961 . S
H741 C733 0.960 . S
H742 C734 0.930 . S
H743 C735 0.929 . S
H744 C752 0.929 . S
H745 C754 0.930 . S
H746 C756 0.930 . S
H747 C759 0.929 . S
H748 C762 0.930 . S
H749 C764 0.960 . S
H750 C764 0.960 . S
H751 C764 0.960 . S
C752 H744 0.929 . S
C752 C753 1.377 1_455 S
C752 C754 1.384 . S
C753 C752 1.377 1_655 S
C753 C759 1.390 . S
C754 H745 0.930 . S
C754 C752 1.384 . S
C754 C755 1.372 . S
C755 C754 1.372 . S
C755 C756 1.400 1_455 S
C755 C760 1.490 . S
C756 H746 0.930 . S
C756 C755 1.400 1_655 S
C756 C759 1.386 . S
H757 C773 0.930 . S
H758 C774 0.931 . S
C759 H747 0.929 . S
C759 C753 1.390 . S
C759 C756 1.386 . S
C760 C755 1.490 . S
C760 C762 1.395 . S
C760 C763 1.403 1_455 S
H761 C767 0.940 . S
C762 H748 0.930 . S
C762 C760 1.395 . S
C762 C765 1.403 . S
C763 C760 1.403 1_655 S
C763 C764 1.524 . S
C763 C767 1.404 . S
C764 H749 0.960 . S
C764 H750 0.960 . S
C764 H751 0.960 . S
C764 C763 1.524 . S
C765 C762 1.403 . S
C765 C766 1.392 . S
C765 C769 1.495 . S
C766 C765 1.392 . S
C766 C767 1.372 1_455 S
C766 C768 1.478 . S
C767 H761 0.940 . S
C767 C763 1.404 . S
C767 C766 1.372 1_655 S
C768 C766 1.478 . S
C768 C770 1.381 . S
C768 C774 1.383 1_554 S
C769 C765 1.495 . S
C769 H775 0.959 . S
C769 H776 0.961 . S
C769 H777 0.960 . S
C770 C768 1.381 . S
C770 C771 1.394 . S
C770 H778 0.930 . S
C771 C770 1.394 . S
C771 C772 1.383 1_554 S
C771 H779 0.929 . S
C772 C771 1.383 1_556 S
C772 C773 1.377 . S
C773 H757 0.930 . S
C773 C772 1.377 . S
C773 C774 1.379 . S
C774 H758 0.931 . S
C774 C768 1.383 1_556 S
C774 C773 1.379 . S
H775 C769 0.959 . S
H776 C769 0.961 . S
H777 C769 0.960 . S
H778 C770 0.930 . S
H779 C771 0.929 . S
H780 C788 0.929 . S
H781 C790 0.930 . S
H782 C792 0.930 . S
H783 C795 0.929 . S
H784 C798 0.930 . S
H785 C800 0.960 . S
H786 C800 0.960 1_545 S
H787 C800 0.960 . S
C788 H780 0.929 . S
C788 C789 1.377 1_545 S
C788 C790 1.384 . S
C789 C788 1.377 1_565 S
C789 C795 1.390 . S
C790 H781 0.930 . S
C790 C788 1.384 . S
C790 C791 1.372 . S
C791 C790 1.372 . S
C791 C792 1.400 1_545 S
C791 C796 1.490 . S
C792 H782 0.930 . S
C792 C791 1.400 1_565 S
C792 C795 1.386 . S
H793 C809 0.930 1_565 S
H794 C810 0.931 1_565 S
C795 H783 0.929 . S
C795 C789 1.390 . S
C795 C792 1.386 . S
C796 C791 1.490 . S
C796 C798 1.395 . S
C796 C799 1.403 . S
H797 C803 0.930 . S
C798 H784 0.930 . S
C798 C796 1.395 . S
C798 C801 1.403 . S
C799 C796 1.403 . S
C799 C800 1.524 1_545 S
C799 C803 1.400 . S
C800 H785 0.960 . S
C800 H786 0.960 1_565 S
C800 H787 0.960 . S
C800 C799 1.524 1_565 S
C801 C798 1.403 . S
C801 C802 1.392 . S
C801 C805 1.495 1_554 S
C802 C801 1.392 . S
C802 C803 1.385 . S
C802 C804 1.478 . S
C803 H797 0.930 . S
C803 C799 1.400 . S
C803 C802 1.385 . S
C804 C802 1.478 . S
C804 C806 1.381 . S
C804 C810 1.383 . S
C805 C801 1.495 1_556 S
C805 H811 0.959 . S
C805 H812 0.961 . S
C805 H813 0.960 . S
C806 C804 1.381 . S
C806 C807 1.397 . S
C806 H814 0.930 . S
C807 C806 1.397 . S
C807 C808 1.381 1_554 S
C807 H815 0.929 1_554 S
C808 C807 1.381 1_556 S
C808 C809 1.377 . S
C809 H793 0.930 1_545 S
C809 C808 1.377 . S
C809 C810 1.379 1_556 S
C810 H794 0.931 1_545 S
C810 C804 1.383 . S
C810 C809 1.379 1_554 S
H811 C805 0.959 . S
H812 C805 0.961 . S
H813 C805 0.960 . S
H814 C806 0.930 . S
H815 C807 0.929 1_556 S
H816 C824 0.929 . S
H817 C826 0.930 . S
H818 C828 0.930 . S
H819 C831 0.929 . S
H820 C834 0.930 . S
H821 C836 0.960 1_556 S
H822 C836 0.960 . S
H823 C836 0.960 . S
C824 H816 0.929 . S
C824 C825 1.377 . S
C824 C826 1.384 . S
C825 C824 1.377 . S
C825 C831 1.390 . S
C826 H817 0.930 . S
C826 C824 1.384 . S
C826 C827 1.372 . S
C827 C826 1.372 . S
C827 C828 1.400 . S
C827 C832 1.490 . S
C828 H818 0.930 . S
C828 C827 1.400 . S
C828 C831 1.386 . S
H829 C845 0.930 . S
H830 C846 0.931 . S
C831 H819 0.929 . S
C831 C825 1.390 . S
C831 C828 1.386 . S
C832 C827 1.490 . S
C832 C834 1.395 . S
C832 C835 1.403 . S
H833 C839 0.930 1_556 S
C834 H820 0.930 . S
C834 C832 1.395 . S
C834 C837 1.403 . S
C835 C832 1.403 . S
C835 C836 1.524 . S
C835 C839 1.400 . S
C836 H821 0.960 1_554 S
C836 H822 0.960 . S
C836 H823 0.960 . S
C836 C835 1.524 . S
C837 C834 1.403 . S
C837 C838 1.392 . S
C837 C841 1.495 . S
C838 C837 1.392 . S
C838 C839 1.385 . S
C838 C840 1.478 . S
C839 H833 0.930 1_554 S
C839 C835 1.400 . S
C839 C838 1.385 . S
C840 C838 1.478 . S
C840 C842 1.381 . S
C840 C846 1.383 . S
C841 C837 1.495 . S
C841 H847 0.959 . S
C841 H848 0.961 . S
C841 H849 0.960 . S
C842 C840 1.381 . S
C842 C843 1.394 . S
C842 H850 0.930 . S
C843 C842 1.394 . S
C843 C844 1.383 1_554 S
C843 H851 0.929 . S
C844 C843 1.383 1_556 S
C844 C845 1.377 . S
C845 H829 0.930 . S
C845 C844 1.377 . S
C845 C846 1.379 1_556 S
C846 H830 0.931 . S
C846 C840 1.383 . S
C846 C845 1.379 1_554 S
H847 C841 0.959 . S
H848 C841 0.961 . S
H849 C841 0.960 . S
H850 C842 0.930 . S
H851 C843 0.929 . S
H852 C860 0.929 . S
H853 C862 0.930 . S
H854 C864 0.930 . S
H855 C867 0.929 . S
H856 C870 0.930 . S
H857 C872 0.960 . S
H858 C872 0.960 . S
H859 C872 0.960 . S
C860 H852 0.929 . S
C860 C861 1.377 . S
C860 C862 1.384 . S
C861 C860 1.377 . S
C861 C867 1.390 . S
C862 H853 0.930 . S
C862 C860 1.384 . S
C862 C863 1.372 . S
C863 C862 1.372 . S
C863 C864 1.400 . S
C863 C868 1.490 . S
C864 H854 0.930 . S
C864 C863 1.400 . S
C864 C867 1.386 . S
H865 C881 0.930 . S
H866 C882 0.931 . S
C867 H855 0.929 . S
C867 C861 1.390 . S
C867 C864 1.386 . S
C868 C863 1.490 . S
C868 C870 1.395 . S
C868 C871 1.403 . S
H869 C875 0.930 . S
C870 H856 0.930 . S
C870 C868 1.395 . S
C870 C873 1.403 . S
C871 C868 1.403 . S
C871 C872 1.524 . S
C871 C875 1.400 . S
C872 H857 0.960 . S
C872 H858 0.960 . S
C872 H859 0.960 . S
C872 C871 1.524 . S
C873 C870 1.403 . S
C873 C874 1.392 . S
C873 C877 1.495 . S
C874 C873 1.392 . S
C874 C875 1.385 . S
C874 C876 1.478 . S
C875 H869 0.930 . S
C875 C871 1.400 . S
C875 C874 1.385 . S
C876 C874 1.478 . S
C876 C878 1.381 . S
C876 C882 1.383 1_554 S
C877 C873 1.495 . S
C877 H883 0.959 . S
C877 H884 0.961 . S
C877 H885 0.960 . S
C878 C876 1.381 . S
C878 C879 1.394 . S
C878 H886 0.930 . S
C879 C878 1.394 . S
C879 C880 1.383 1_554 S
C879 H887 0.929 . S
C880 C879 1.383 1_556 S
C880 C881 1.377 . S
C881 H865 0.930 . S
C881 C880 1.377 . S
C881 C882 1.379 . S
C882 H866 0.931 . S
C882 C876 1.383 1_556 S
C882 C881 1.379 . S
H883 C877 0.959 . S
H884 C877 0.961 . S
H885 C877 0.960 . S
H886 C878 0.930 . S
H887 C879 0.929 . S
H888 C896 0.929 . S
H889 C898 0.930 . S
H890 C900 0.930 . S
H891 C903 0.929 . S
H892 C906 0.930 . S
H893 C908 0.960 . S
H894 C908 0.960 . S
H895 C908 0.960 1_655 S
C896 H888 0.929 . S
C896 C897 1.377 . S
C896 C898 1.384 . S
C897 C896 1.377 . S
C897 C903 1.390 1_455 S
C898 H889 0.930 . S
C898 C896 1.384 . S
C898 C899 1.372 . S
C899 C898 1.372 . S
C899 C900 1.400 1_455 S
C899 C904 1.490 . S
C900 H890 0.930 . S
C900 C899 1.400 1_655 S
C900 C903 1.386 . S
H901 C917 0.930 . S
H902 C918 0.931 . S
C903 H891 0.929 . S
C903 C897 1.390 1_655 S
C903 C900 1.386 . S
C904 C899 1.490 . S
C904 C906 1.395 . S
C904 C907 1.403 . S
H905 C911 0.930 . S
C906 H892 0.930 . S
C906 C904 1.395 . S
C906 C909 1.403 . S
C907 C904 1.403 . S
C907 C908 1.524 . S
C907 C911 1.400 . S
C908 H893 0.960 . S
C908 H894 0.960 . S
C908 H895 0.960 1_455 S
C908 C907 1.524 . S
C909 C906 1.403 . S
C909 C910 1.392 . S
C909 C913 1.495 . S
C910 C909 1.392 . S
C910 C911 1.385 . S
C910 C912 1.478 . S
C911 H905 0.930 . S
C911 C907 1.400 . S
C911 C910 1.385 . S
C912 C910 1.478 . S
C912 C914 1.381 . S
C912 C918 1.383 1_455 S
C913 C909 1.495 . S
C913 H919 0.959 1_556 S
C913 H920 0.961 . S
C913 H921 0.960 . S
C914 C912 1.381 . S
C914 C915 1.394 . S
C914 H922 0.930 . S
C915 C914 1.394 . S
C915 C916 1.383 . S
C915 H923 0.929 . S
C916 C915 1.383 . S
C916 C917 1.377 1_455 S
C917 H901 0.930 . S
C917 C916 1.377 1_655 S
C917 C918 1.379 . S
C918 H902 0.931 . S
C918 C912 1.383 1_655 S
C918 C917 1.379 . S
H919 C913 0.959 1_554 S
H920 C913 0.961 . S
H921 C913 0.960 . S
H922 C914 0.930 . S
H923 C915 0.929 . S
H924 C932 0.929 1_565 S
H925 C934 0.920 1_565 S
H926 C936 0.930 . S
H927 C939 0.929 . S
H928 C942 0.930 . S
H929 C944 0.960 . S
H930 C944 0.960 . S
H931 C944 0.960 . S
C932 H924 0.929 1_545 S
C932 C933 1.378 . S
C932 C934 1.383 . S
C933 C932 1.378 . S
C933 C939 1.390 . S
C934 H925 0.920 1_545 S
C934 C932 1.383 . S
C934 C935 1.385 . S
C935 C934 1.385 . S
C935 C936 1.400 . S
C935 C940 1.490 . S
C936 H926 0.930 . S
C936 C935 1.400 . S
C936 C939 1.386 . S
H937 C953 0.930 . S
H938 C954 0.931 . S
C939 H927 0.929 . S
C939 C933 1.390 . S
C939 C936 1.386 . S
C940 C935 1.490 . S
C940 C942 1.395 . S
C940 C943 1.403 1_545 S
H941 C947 0.930 . S
C942 H928 0.930 . S
C942 C940 1.395 . S
C942 C945 1.403 . S
C943 C940 1.403 1_565 S
C943 C944 1.524 . S
C943 C947 1.400 . S
C944 H929 0.960 . S
C944 H930 0.960 . S
C944 H931 0.960 . S
C944 C943 1.524 . S
C945 C942 1.403 . S
C945 C946 1.392 . S
C945 C949 1.495 . S
C946 C945 1.392 . S
C946 C947 1.385 1_545 S
C946 C948 1.478 . S
C947 H941 0.930 . S
C947 C943 1.400 . S
C947 C946 1.385 1_565 S
C948 C946 1.478 . S
C948 C950 1.381 . S
C948 C954 1.383 . S
C949 C945 1.495 . S
C949 H955 0.959 . S
C949 H956 0.961 . S
C949 H957 0.960 . S
C950 C948 1.381 . S
C950 C951 1.394 . S
C950 H958 0.943 . S
C951 C950 1.394 . S
C951 C952 1.383 . S
C951 H959 0.929 1_545 S
C952 C951 1.383 . S
C952 C953 1.377 . S
C953 H937 0.930 . S
C953 C952 1.377 . S
C953 C954 1.379 . S
C954 H938 0.931 . S
C954 C948 1.383 . S
C954 C953 1.379 . S
H955 C949 0.959 . S
H956 C949 0.961 . S
H957 C949 0.960 . S
H958 C950 0.943 . S
H959 C951 0.929 1_565 S
H960 C968 0.929 . S
H961 C970 0.930 . S
H962 C972 0.930 . S
H963 C975 0.929 . S
H964 C978 0.930 . S
H965 C980 0.960 . S
H966 C980 0.960 . S
H967 C980 0.960 . S
C968 H960 0.929 . S
C968 C969 1.377 . S
C968 C970 1.384 . S
C969 C968 1.377 . S
C969 C975 1.390 . S
C970 H961 0.930 . S
C970 C968 1.384 . S
C970 C971 1.372 . S
C971 C970 1.372 . S
C971 C972 1.400 . S
C971 C976 1.490 . S
C972 H962 0.930 . S
C972 C971 1.400 . S
C972 C975 1.386 . S
H973 C989 0.930 . S
H974 C990 0.931 . S
C975 H963 0.929 . S
C975 C969 1.390 . S
C975 C972 1.386 . S
C976 C971 1.490 . S
C976 C978 1.395 . S
C976 C979 1.403 . S
H977 C983 0.930 . S
C978 H964 0.930 . S
C978 C976 1.395 . S
C978 C981 1.403 . S
C979 C976 1.403 . S
C979 C980 1.524 . S
C979 C983 1.400 . S
C980 H965 0.960 . S
C980 H966 0.960 . S
C980 H967 0.960 . S
C980 C979 1.524 . S
C981 C978 1.403 . S
C981 C982 1.392 . S
C981 C985 1.495 . S
C982 C981 1.392 . S
C982 C983 1.385 . S
C982 C984 1.478 . S
C983 H977 0.930 . S
C983 C979 1.400 . S
C983 C982 1.385 . S
C984 C982 1.478 . S
C984 C986 1.381 . S
C984 C990 1.383 . S
C985 C981 1.495 . S
C985 H991 0.959 . S
C985 H992 0.961 . S
C985 H993 0.960 . S
C986 C984 1.381 . S
C986 C987 1.394 . S
C986 H994 0.930 . S
C987 C986 1.394 . S
C987 C988 1.383 . S
C987 H995 0.929 . S
C988 C987 1.383 . S
C988 C989 1.377 . S
C989 H973 0.930 . S
C989 C988 1.377 . S
C989 C990 1.379 . S
C990 H974 0.931 . S
C990 C984 1.383 . S
C990 C989 1.379 . S
H991 C985 0.959 . S
H992 C985 0.961 . S
H993 C985 0.960 . S
H994 C986 0.930 . S
H995 C987 0.929 . S
H996 C1004 0.929 . S
H997 C1006 0.930 . S
H998 C1008 0.930 . S
H999 C1011 0.929 . S
H1000 C1014 0.930 . S
H1001 C1016 0.960 1_554 S
H1002 C1016 0.960 . S
H1003 C1016 0.960 . S
C1004 H996 0.929 . S
C1004 C1005 1.377 . S
C1004 C1006 1.384 . S
C1005 C1004 1.377 . S
C1005 C1011 1.390 . S
C1006 H997 0.930 . S
C1006 C1004 1.384 . S
C1006 C1007 1.372 . S
C1007 C1006 1.372 . S
C1007 C1008 1.400 . S
C1007 C1012 1.490 . S
C1008 H998 0.930 . S
C1008 C1007 1.400 . S
C1008 C1011 1.386 . S
H1009 C1025 0.930 . S
H1010 C1026 0.931 . S
C1011 H999 0.929 . S
C1011 C1005 1.390 . S
C1011 C1008 1.386 . S
C1012 C1007 1.490 . S
C1012 C1014 1.395 . S
C1012 C1015 1.403 . S
H1013 C1019 0.930 . S
C1014 H1000 0.930 . S
C1014 C1012 1.395 . S
C1014 C1017 1.403 . S
C1015 C1012 1.403 . S
C1015 C1016 1.524 . S
C1015 C1019 1.400 . S
C1016 H1001 0.960 1_556 S
C1016 H1002 0.960 . S
C1016 H1003 0.960 . S
C1016 C1015 1.524 . S
C1017 C1014 1.403 . S
C1017 C1018 1.392 . S
C1017 C1021 1.495 . S
C1018 C1017 1.392 . S
C1018 C1019 1.385 . S
C1018 C1020 1.478 . S
C1019 H1013 0.930 . S
C1019 C1015 1.400 . S
C1019 C1018 1.385 . S
C1020 C1018 1.478 . S
C1020 C1022 1.381 . S
C1020 C1026 1.383 . S
C1021 C1017 1.495 . S
C1021 H1027 0.959 . S
C1021 H1028 0.961 . S
C1021 H1029 0.960 . S
C1022 C1020 1.381 . S
C1022 C1023 1.394 . S
C1022 H1030 0.930 . S
C1023 C1022 1.394 . S
C1023 C1024 1.383 . S
C1023 H1031 0.929 . S
C1024 C1023 1.383 . S
C1024 C1025 1.377 . S
C1025 H1009 0.930 . S
C1025 C1024 1.377 . S
C1025 C1026 1.379 . S
C1026 H1010 0.931 . S
C1026 C1020 1.383 . S
C1026 C1025 1.379 . S
H1027 C1021 0.959 . S
H1028 C1021 0.961 . S
H1029 C1021 0.960 . S
H1030 C1022 0.930 . S
H1031 C1023 0.929 . S
H1032 C1040 0.929 . S
H1033 C1042 0.930 . S
H1034 C1044 0.930 . S
H1035 C1047 0.929 . S
H1036 C1050 0.928 1_455 S
H1037 C1052 0.960 . S
H1038 C1052 0.960 1_455 S
H1039 C1052 0.960 . S
C1040 H1032 0.929 . S
C1040 C1041 1.340 1_455 S
C1040 C1042 1.384 . S
C1041 C1040 1.340 1_655 S
C1041 C1047 1.429 . S
C1042 H1033 0.930 . S
C1042 C1040 1.384 . S
C1042 C1043 1.372 1_455 S
C1043 C1042 1.372 1_655 S
C1043 C1044 1.400 . S
C1043 C1048 1.490 . S
C1044 H1034 0.930 . S
C1044 C1043 1.400 . S
C1044 C1047 1.386 . S
H1045 C1061 0.930 . S
H1046 C1062 0.931 . S
C1047 H1035 0.929 . S
C1047 C1041 1.429 . S
C1047 C1044 1.386 . S
C1048 C1043 1.490 . S
C1048 C1050 1.396 . S
C1048 C1051 1.403 . S
H1049 C1055 0.930 . S
C1050 H1036 0.928 1_655 S
C1050 C1048 1.396 . S
C1050 C1053 1.404 . S
C1051 C1048 1.403 . S
C1051 C1052 1.524 . S
C1051 C1055 1.400 . S
C1052 H1037 0.960 . S
C1052 H1038 0.960 1_655 S
C1052 H1039 0.960 . S
C1052 C1051 1.524 . S
C1053 C1050 1.404 . S
C1053 C1054 1.392 . S
C1053 C1057 1.495 1_655 S
C1054 C1053 1.392 . S
C1054 C1055 1.385 . S
C1054 C1056 1.478 . S
C1055 H1049 0.930 . S
C1055 C1051 1.400 . S
C1055 C1054 1.385 . S
C1056 C1054 1.478 . S
C1056 C1058 1.381 1_655 S
C1056 C1062 1.383 . S
C1057 C1053 1.495 1_455 S
C1057 H1063 0.960 . S
C1057 H1064 0.954 1_455 S
C1057 H1065 0.966 . S
C1058 C1056 1.381 1_455 S
C1058 C1059 1.394 . S
C1058 H1066 0.930 . S
C1059 C1058 1.394 . S
C1059 C1060 1.383 1_455 S
C1059 H1067 0.929 . S
C1060 C1059 1.383 1_655 S
C1060 C1061 1.377 . S
C1061 H1045 0.930 . S
C1061 C1060 1.377 . S
C1061 C1062 1.379 . S
C1062 H1046 0.931 . S
C1062 C1056 1.383 . S
C1062 C1061 1.379 . S
H1063 C1057 0.960 . S
H1064 C1057 0.954 1_655 S
H1065 C1057 0.966 . S
H1066 C1058 0.930 . S
H1067 C1059 0.929 . S
H1068 C1076 0.929 . S
H1069 C1078 0.930 . S
H1070 C1080 0.930 . S
H1071 C1083 0.929 . S
H1072 C1086 0.930 . S
H1073 C1088 0.960 . S
H1074 C1088 0.960 . S
H1075 C1088 0.960 . S
C1076 H1068 0.929 . S
C1076 C1077 1.377 . S
C1076 C1078 1.384 . S
C1077 C1076 1.377 . S
C1077 C1083 1.390 1_565 S
C1078 H1069 0.930 . S
C1078 C1076 1.384 . S
C1078 C1079 1.372 . S
C1079 C1078 1.372 . S
C1079 C1080 1.400 1_565 S
C1079 C1084 1.490 . S
C1080 H1070 0.930 . S
C1080 C1079 1.400 1_545 S
C1080 C1083 1.386 . S
H1081 C1097 0.930 . S
H1082 C1098 0.931 . S
C1083 H1071 0.929 . S
C1083 C1077 1.390 1_545 S
C1083 C1080 1.386 . S
C1084 C1079 1.490 . S
C1084 C1086 1.395 . S
C1084 C1087 1.403 1_565 S
H1085 C1091 0.930 . S
C1086 H1072 0.930 . S
C1086 C1084 1.395 . S
C1086 C1089 1.403 . S
C1087 C1084 1.403 1_545 S
C1087 C1088 1.524 . S
C1087 C1091 1.400 . S
C1088 H1073 0.960 . S
C1088 H1074 0.960 . S
C1088 H1075 0.960 . S
C1088 C1087 1.524 . S
C1089 C1086 1.403 . S
C1089 C1090 1.392 . S
C1089 C1093 1.495 . S
C1090 C1089 1.392 . S
C1090 C1091 1.385 1_565 S
C1090 C1092 1.478 . S
C1091 H1085 0.930 . S
C1091 C1087 1.400 . S
C1091 C1090 1.385 1_545 S
C1092 C1090 1.478 . S
C1092 C1094 1.381 . S
C1092 C1098 1.383 1_565 S
C1093 C1089 1.495 . S
C1093 H1099 0.959 . S
C1093 H1100 0.961 . S
C1093 H1101 0.960 . S
C1094 C1092 1.381 . S
C1094 C1095 1.394 . S
C1094 H1102 0.930 . S
C1095 C1094 1.394 . S
C1095 C1096 1.383 . S
C1095 H1103 0.929 . S
C1096 C1095 1.383 . S
C1096 C1097 1.377 1_565 S
C1097 H1081 0.930 . S
C1097 C1096 1.377 1_545 S
C1097 C1098 1.379 . S
C1098 H1082 0.931 . S
C1098 C1092 1.383 1_545 S
C1098 C1097 1.379 . S
H1099 C1093 0.959 . S
H1100 C1093 0.961 . S
H1101 C1093 0.960 . S
H1102 C1094 0.930 . S
H1103 C1095 0.929 . S
H1104 C1112 0.929 . S
H1105 C1114 0.930 . S
H1106 C1116 0.930 . S
H1107 C1119 0.929 . S
H1108 C1122 0.930 . S
H1109 C1124 0.960 . S
H1110 C1124 0.960 . S
H1111 C1124 0.960 . S
C1112 H1104 0.929 . S
C1112 C1113 1.377 . S
C1112 C1114 1.384 . S
C1113 C1112 1.377 . S
C1113 C1119 1.390 . S
C1114 H1105 0.930 . S
C1114 C1112 1.384 . S
C1114 C1115 1.372 . S
C1115 C1114 1.372 . S
C1115 C1116 1.400 . S
C1115 C1120 1.490 . S
C1116 H1106 0.930 . S
C1116 C1115 1.400 . S
C1116 C1119 1.386 . S
H1117 C1133 0.930 . S
H1118 C1134 0.931 . S
C1119 H1107 0.929 . S
C1119 C1113 1.390 . S
C1119 C1116 1.386 . S
C1120 C1115 1.490 . S
C1120 C1122 1.395 . S
C1120 C1123 1.403 . S
H1121 C1127 0.930 . S
C1122 H1108 0.930 . S
C1122 C1120 1.395 . S
C1122 C1125 1.403 . S
C1123 C1120 1.403 . S
C1123 C1124 1.524 . S
C1123 C1127 1.400 . S
C1124 H1109 0.960 . S
C1124 H1110 0.960 . S
C1124 H1111 0.960 . S
C1124 C1123 1.524 . S
C1125 C1122 1.403 . S
C1125 C1126 1.392 . S
C1125 C1129 1.495 . S
C1126 C1125 1.392 . S
C1126 C1127 1.385 . S
C1126 C1128 1.478 . S
C1127 H1121 0.930 . S
C1127 C1123 1.400 . S
C1127 C1126 1.385 . S
C1128 C1126 1.478 . S
C1128 C1130 1.381 . S
C1128 C1134 1.383 . S
C1129 C1125 1.495 . S
C1129 H1135 0.959 . S
C1129 H1136 0.961 . S
C1129 H1137 0.960 . S
C1130 C1128 1.381 . S
C1130 C1131 1.394 . S
C1130 H1138 0.930 . S
C1131 C1130 1.394 . S
C1131 C1132 1.383 . S
C1131 H1139 0.929 . S
C1132 C1131 1.383 . S
C1132 C1133 1.377 . S
C1133 H1117 0.930 . S
C1133 C1132 1.377 . S
C1133 C1134 1.379 . S
C1134 H1118 0.931 . S
C1134 C1128 1.383 . S
C1134 C1133 1.379 . S
H1135 C1129 0.959 . S
H1136 C1129 0.961 . S
H1137 C1129 0.960 . S
H1138 C1130 0.930 . S
H1139 C1131 0.929 . S
H1140 C1148 0.929 . S
H1141 C1150 0.930 . S
H1142 C1152 0.930 . S
H1143 C1155 0.929 . S
H1144 C1158 0.930 . S
H1145 C1160 0.960 . S
H1146 C1160 0.960 . S
H1147 C1160 0.960 . S
C1148 H1140 0.929 . S
C1148 C1149 1.377 . S
C1148 C1150 1.384 . S
C1149 C1148 1.377 . S
C1149 C1155 1.390 . S
C1150 H1141 0.930 . S
C1150 C1148 1.384 . S
C1150 C1151 1.372 . S
C1151 C1150 1.372 . S
C1151 C1152 1.400 . S
C1151 C1156 1.490 . S
C1152 H1142 0.930 . S
C1152 C1151 1.400 . S
C1152 C1155 1.386 . S
H1153 C1169 0.930 . S
H1154 C1170 0.931 . S
C1155 H1143 0.929 . S
C1155 C1149 1.390 . S
C1155 C1152 1.386 . S
C1156 C1151 1.490 . S
C1156 C1158 1.395 . S
C1156 C1159 1.403 . S
H1157 C1163 0.930 . S
C1158 H1144 0.930 . S
C1158 C1156 1.395 . S
C1158 C1161 1.403 . S
C1159 C1156 1.403 . S
C1159 C1160 1.524 . S
C1159 C1163 1.400 . S
C1160 H1145 0.960 . S
C1160 H1146 0.960 . S
C1160 H1147 0.960 . S
C1160 C1159 1.524 . S
C1161 C1158 1.403 . S
C1161 C1162 1.392 . S
C1161 C1165 1.495 . S
C1162 C1161 1.392 . S
C1162 C1163 1.385 . S
C1162 C1164 1.478 . S
C1163 H1157 0.930 . S
C1163 C1159 1.400 . S
C1163 C1162 1.385 . S
C1164 C1162 1.478 . S
C1164 C1166 1.381 . S
C1164 C1170 1.383 . S
C1165 C1161 1.495 . S
C1165 H1171 0.959 . S
C1165 H1172 0.961 . S
C1165 H1173 0.960 . S
C1166 C1164 1.381 . S
C1166 C1167 1.394 . S
C1166 H1174 0.930 . S
C1167 C1166 1.394 . S
C1167 C1168 1.383 . S
C1167 H1175 0.929 . S
C1168 C1167 1.383 . S
C1168 C1169 1.377 . S
C1169 H1153 0.930 . S
C1169 C1168 1.377 . S
C1169 C1170 1.379 . S
C1170 H1154 0.931 . S
C1170 C1164 1.383 . S
C1170 C1169 1.379 . S
H1171 C1165 0.959 . S
H1172 C1165 0.961 . S
H1173 C1165 0.960 . S
H1174 C1166 0.930 . S
H1175 C1167 0.929 . S
C321 C125 1.787 1_545 S
C340 C161 1.841 . S
C376 C201 1.815 . S
C357 C144 1.788 . S
C412 C241 1.811 . S
C393 C87 1.783 . S
C448 C281 1.821 . S
C429 C106 1.787 1_455 S
C484 C170 1.825 . S
C465 C49 1.797 . S
C501 C68 1.785 . S
C520 C210 1.816 . S
C537 C11 1.786 . S
C556 C250 1.811 . S
C573 C30 1.794 . S
C592 C290 1.836 . S
C628 C167 0.343 . S
C609 C97 0.457 . S
C664 C207 0.388 . S
C645 C116 0.472 . S
C700 C247 0.419 . S
C681 C135 0.484 . S
C717 C78 0.468 . S
C736 C287 0.376 . S
C753 C21 0.457 . S
C772 C158 0.421 . S
C808 C198 0.380 . S
C789 C40 0.454 . S
C844 C238 0.386 . S
C825 C59 0.477 . S
C861 C2 0.449 . S
C880 C278 0.419 . S
C897 C101 1.920 . S
C916 C171 2.083 . S
C933 C120 1.919 . S
C952 C211 2.091 . S
C988 C251 2.095 . S
C969 C139 1.923 . S
C1024 C291 2.079 . S
C1005 C82 1.912 . S
C1041 C25 1.919 . S
C1060 C162 2.082 . S
C1096 C202 2.087 . S
C1077 C44 1.912 . S
C1132 C242 2.092 . S
C1113 C63 1.909 . S
C1149 C6 1.913 . S
C1168 C282 2.079 . S
