# Generated by pormake.
# Topology anh, (6,3)-cn, num edge types: 1
# Building blocks:
#     Node 0, Type 0, BuildingBlock: INOVEN_clean_sbu_0, # of connection points: 6
#     Node 1, Type 0, BuildingBlock: INOVEN_clean_sbu_0, # of connection points: 6
#     Node 2, Type 0, BuildingBlock: INOVEN_clean_sbu_0, # of connection points: 6
#     Node 3, Type 1, BuildingBlock: QEWDON_clean_linker_0, # of connection points: 3
#     Node 4, Type 1, BuildingBlock: QEWDON_clean_linker_0, # of connection points: 3
#     Node 5, Type 1, BuildingBlock: QEWDON_clean_linker_0, # of connection points: 3
#     Node 6, Type 1, BuildingBlock: QEWDON_clean_linker_0, # of connection points: 3
#     Node 7, Type 1, BuildingBlock: QEWDON_clean_linker_0, # of connection points: 3
#     Node 8, Type 1, BuildingBlock: QEWDON_clean_linker_0, # of connection points: 3
#     Edge 9, Type (0, 1), BuildingBlock: AJUNOK_clean_linker_0, # of connection points: 2
#     Edge 10, Type (0, 1), BuildingBlock: AJUNOK_clean_linker_0, # of connection points: 2
#     Edge 11, Type (0, 1), BuildingBlock: AJUNOK_clean_linker_0, # of connection points: 2
#     Edge 12, Type (0, 1), BuildingBlock: AJUNOK_clean_linker_0, # of connection points: 2
#     Edge 13, Type (0, 1), BuildingBlock: AJUNOK_clean_linker_0, # of connection points: 2
#     Edge 14, Type (0, 1), BuildingBlock: AJUNOK_clean_linker_0, # of connection points: 2
#     Edge 15, Type (0, 1), BuildingBlock: AJUNOK_clean_linker_0, # of connection points: 2
#     Edge 16, Type (0, 1), BuildingBlock: AJUNOK_clean_linker_0, # of connection points: 2
#     Edge 17, Type (0, 1), BuildingBlock: AJUNOK_clean_linker_0, # of connection points: 2
#     Edge 18, Type (0, 1), BuildingBlock: AJUNOK_clean_linker_0, # of connection points: 2
#     Edge 19, Type (0, 1), BuildingBlock: AJUNOK_clean_linker_0, # of connection points: 2
#     Edge 20, Type (0, 1), BuildingBlock: AJUNOK_clean_linker_0, # of connection points: 2
#     Edge 21, Type (0, 1), BuildingBlock: AJUNOK_clean_linker_0, # of connection points: 2
#     Edge 22, Type (0, 1), BuildingBlock: AJUNOK_clean_linker_0, # of connection points: 2
#     Edge 23, Type (0, 1), BuildingBlock: AJUNOK_clean_linker_0, # of connection points: 2
#     Edge 24, Type (0, 1), BuildingBlock: AJUNOK_clean_linker_0, # of connection points: 2
#     Edge 25, Type (0, 1), BuildingBlock: AJUNOK_clean_linker_0, # of connection points: 2
#     Edge 26, Type (0, 1), BuildingBlock: AJUNOK_clean_linker_0, # of connection points: 2
# Relax obj value: 0.180
# Max RMSD: 0.203
# Mean RMSD: 0.127
data_MOF--net-anh--node1-INOVEN_clean_sbu_0--node2-QEWDON_clean_linker_0--edge1-AJUNOK_clean_linker_0
_symmetry_space_group_name_H-M    P1
_symmetry_Int_Tables_number       1
_symmetry_cell_setting            triclinic
loop_
_symmetry_equiv_pos_as_xyz
'x, y, z'
_cell_length_a     25.594474
_cell_length_b     31.054819
_cell_length_c     35.603149
_cell_angle_alpha  96.521092
_cell_angle_beta   92.105429
_cell_angle_gamma 132.09416
loop_
_atom_site_label
_atom_site_type_symbol
_atom_site_fract_x
_atom_site_fract_y
_atom_site_fract_z
_atom_type_partial_charge
Gd0 Gd 0.18212 0.54299 0.14406 0.0
Gd1 Gd 0.09868 0.57261 0.16889 0.0
C2 C 0.26495 0.68295 0.16414 0.0
C3 C 0.27212 0.54328 0.11397 0.0
C4 C 0.34997 0.59203 0.11832 0.0
C5 C 0.39304 0.58403 0.13446 0.0
C6 C 0.38119 0.64903 0.11338 0.0
C7 C 0.49529 0.68973 0.14493 0.0
C8 C 0.4537 0.6976 0.12635 0.0
C9 C 0.46493 0.63244 0.14779 0.0
C10 C 0.1691 0.54499 0.21903 0.0
C11 C 1.01875 0.43451 0.14907 0.0
C12 C 1.03957 0.59998 0.20864 0.0
C13 C 0.96542 0.56618 0.21374 0.0
C14 C 0.94439 0.59601 0.22656 0.0
C15 C 0.91392 0.5046 0.20143 0.0
C16 C 0.82054 0.50567 0.20538 0.0
C17 C 0.84157 0.47427 0.19767 0.0
C18 C 0.87222 0.56583 0.2227 0.0
C19 C 1.07717 0.53823 0.09186 0.0
O20 O 0.27067 0.64337 0.15877 0.0
O21 O 0.20228 0.6662 0.16704 0.0
O22 O 0.24878 0.5235 0.14545 0.0
O23 O 0.233 0.54897 0.09482 0.0
O24 O 0.16759 0.50683 0.19853 0.0
O25 O 0.18145 0.58144 0.19955 0.0
O26 O 1.02418 0.4746 0.17186 0.0
O27 O 1.07031 0.45188 0.12873 0.0
O28 O 1.054 0.61208 0.17434 0.0
O29 O 1.06813 0.58163 0.22275 0.0
O30 O 1.027 0.52379 0.11128 0.0
O31 O 0.13552 0.57118 0.11415 0.0
H32 H 0.37017 0.54067 0.1387 0.0
H33 H 0.34911 0.65661 0.10122 0.0
H34 H 0.47643 0.74138 0.12345 0.0
H35 H 0.49669 0.62527 0.16115 0.0
H36 H 0.98362 0.64341 0.23653 0.0
H37 H 0.92949 0.48077 0.19185 0.0
H38 H 0.80277 0.4279 0.18455 0.0
H39 H 0.85771 0.59134 0.22882 0.0
Gd40 Gd 0.69799 0.07827 0.48085 0.0
Gd41 Gd 0.59945 0.09522 0.46397 0.0
C42 C 0.5251 0.96205 0.46217 0.0
C43 C 0.76043 0.04684 0.50881 0.0
C44 C 0.73695 0.99092 0.51649 0.0
C45 C 0.7755 0.97553 0.50577 0.0
C46 C 0.67424 0.95101 0.53213 0.0
C47 C 0.68757 0.88009 0.52456 0.0
C48 C 0.64989 0.89609 0.53624 0.0
C49 C 0.75088 0.92049 0.5096 0.0
C50 C 0.6725 0.07736 0.40626 0.0
C51 C 0.77392 0.21103 0.47687 0.0
C52 C 0.53443 0.12667 0.44045 0.0
C53 C 0.54434 0.17942 0.45084 0.0
C54 C 0.49003 0.17319 0.46574 0.0
C55 C 0.60866 0.23625 0.44857 0.0
C56 C 0.56586 0.27985 0.47866 0.0
C57 C 0.61929 0.28603 0.46234 0.0
C58 C 0.50067 0.22285 0.47954 0.0
C59 C 0.62068 0.09261 0.53798 0.0
O60 O 0.58775 0.98598 0.48057 0.0
O61 O 0.51948 0.99584 0.44675 0.0
O62 O 0.75482 0.04961 0.47272 0.0
O63 O 0.74075 0.06969 0.53005 0.0
O64 O 0.73426 0.10111 0.42356 0.0
O65 O 0.62695 0.05283 0.42854 0.0
O66 O 0.70835 0.18789 0.46545 0.0
O67 O 0.78434 0.17784 0.48824 0.0
O68 O 0.51463 0.09455 0.46686 0.0
O69 O 0.58258 0.13282 0.42286 0.0
O70 O 0.56013 0.06925 0.5196 0.0
O71 O 0.66891 0.11966 0.51722 0.0
H72 H 0.82378 1.00557 0.49351 0.0
H73 H 0.64306 0.96155 0.54026 0.0
H74 H 0.6002 0.86525 0.54715 0.0
H75 H 0.78066 0.90901 0.50028 0.0
H76 H 0.43993 0.12986 0.46771 0.0
H77 H 0.65121 0.24241 0.4368 0.0
H78 H 0.66944 0.32934 0.46046 0.0
H79 H 0.45856 0.21672 0.492 0.0
Gd80 Gd 0.69644 0.61798 0.8402 0.0
Gd81 Gd 0.59497 0.4967 0.85015 0.0
C82 C 0.52509 0.55667 0.84988 0.0
C83 C 0.75635 0.71336 0.81318 0.0
C84 C 0.73938 0.74939 0.80633 0.0
C85 C 0.75793 0.79414 0.83537 0.0
C86 C 0.70427 0.73927 0.77049 0.0
C87 C 0.70319 0.81552 0.79357 0.0
C88 C 0.68604 0.77173 0.76426 0.0
C89 C 0.73975 0.82664 0.8291 0.0
C90 C 0.69481 0.60693 0.91363 0.0
C91 C 0.76886 0.56037 0.84824 0.0
C92 C 0.53232 0.39477 0.86725 0.0
C93 C 0.54296 0.35367 0.85711 0.0
C94 C 0.48922 0.29921 0.8326 0.0
C95 C 0.60841 0.37025 0.86849 0.0
C96 C 0.56722 0.28009 0.82939 0.0
C97 C 0.6205 0.33396 0.85463 0.0
C98 C 0.50129 0.26297 0.81875 0.0
C99 C 0.59791 0.51038 0.77663 0.0
O100 O 0.58883 0.60018 0.83921 0.0
O101 O 0.51673 0.5119 0.85954 0.0
O102 O 0.77147 0.71363 0.84877 0.0
O103 O 0.71637 0.66084 0.79169 0.0
O104 O 0.75263 0.64547 0.89962 0.0
O105 O 0.64028 0.57778 0.8887 0.0
O106 O 0.70265 0.51512 0.85521 0.0
O107 O 0.77918 0.60619 0.83891 0.0
O108 O 0.50673 0.40177 0.83862 0.0
O109 O 0.58325 0.44459 0.89082 0.0
O110 O 0.53995 0.47333 0.79062 0.0
O111 O 0.65146 0.53696 0.8017 0.0
H112 H 0.78549 0.8035 0.86321 0.0
H113 H 0.69002 0.7057 0.74731 0.0
H114 H 0.658 0.76231 0.73657 0.0
H115 H 0.75246 0.85929 0.85248 0.0
H116 H 0.43849 0.28547 0.82313 0.0
H117 H 0.65089 0.41184 0.88744 0.0
H118 H 0.67171 0.34818 0.86345 0.0
H119 H 0.45963 0.22231 0.79876 0.0
H120 H 0.6748 0.10827 0.22729 0.0
C121 C 0.6331 0.06155 0.21564 0.0
C122 C 0.59769 0.02224 0.24127 0.0
C123 C 0.61276 0.04128 0.1757 0.0
H124 H 0.51529 0.93169 0.24736 0.0
C125 C 0.54179 0.96165 0.22728 0.0
C126 C 0.5191 0.93876 0.18806 0.0
C127 C 0.55482 0.97879 0.16224 0.0
C128 C 0.6493 0.08566 0.14872 0.0
H129 H 0.53796 0.96068 0.13194 0.0
C130 C 0.72004 0.14345 0.15862 0.0
C131 C 0.75086 0.18382 0.13262 0.0
C132 C 0.61131 0.07098 0.11263 0.0
H133 H 0.55693 0.02942 0.10392 0.0
C134 C 0.64155 0.11026 0.0872 0.0
H135 H 0.75175 0.15695 0.18587 0.0
C136 C 0.71023 0.16575 0.09696 0.0
H137 H 0.73147 0.19528 0.07658 0.0
H138 H 0.61097 0.09775 0.0597 0.0
H139 H 0.57402 0.57433 0.61089 0.0
C140 C 0.58111 0.54694 0.59517 0.0
C141 C 0.5988 0.52065 0.61511 0.0
C142 C 0.56836 0.53501 0.55498 0.0
H143 H 0.61599 0.46132 0.6099 0.0
C144 C 0.60577 0.4838 0.59454 0.0
C145 C 0.59366 0.47181 0.55438 0.0
C146 C 0.57537 0.49787 0.53488 0.0
C147 C 0.54126 0.55648 0.53369 0.0
H148 H 0.56508 0.48823 0.50387 0.0
C149 C 0.57696 0.61672 0.53979 0.0
C150 C 0.55232 0.6364 0.51762 0.0
C151 C 0.47961 0.5161 0.50616 0.0
H152 H 0.45076 0.46944 0.50127 0.0
C153 C 0.45443 0.53542 0.48474 0.0
H154 H 0.62512 0.64834 0.56055 0.0
C155 C 0.49076 0.59523 0.4902 0.0
H156 H 0.4708 0.60945 0.47296 0.0
H157 H 0.40694 0.50398 0.46362 0.0
H158 H 0.1476 0.54455 0.92016 0.0
C159 C 0.11241 0.54785 0.90628 0.0
C160 C 1.06409 0.54387 0.92769 0.0
C161 C 0.11648 0.55572 0.868 0.0
H162 H 0.98193 0.54612 0.92907 0.0
C163 C 1.01597 0.54727 0.91111 0.0
C164 C 1.01139 0.55407 0.87301 0.0
C165 C 1.06403 0.55906 0.85159 0.0
C166 C 0.1755 0.56012 0.84723 0.0
H167 H 1.06288 0.56464 0.8223 0.0
C168 C 0.22886 0.55687 0.86257 0.0
C169 C 0.28164 0.56304 0.83996 0.0
C170 C 0.17875 0.56858 0.80924 0.0
H171 H 0.14349 0.5715 0.79507 0.0
C172 C 0.22687 0.57369 0.78785 0.0
H173 H 0.23036 0.5506 0.89168 0.0
C174 C 0.27609 0.57117 0.8025 0.0
H175 H 0.31065 0.57531 0.78338 0.0
H176 H 0.22612 0.58001 0.75861 0.0
H177 H 0.11903 0.53511 0.39616 0.0
C178 C 0.16478 0.58105 0.40783 0.0
C179 C 0.21286 0.61695 0.38322 0.0
C180 C 0.17387 0.60438 0.44646 0.0
H181 H 0.3048 0.70593 0.3776 0.0
C182 C 0.27013 0.67762 0.39703 0.0
C183 C 0.282 0.70308 0.43511 0.0
C184 C 0.2348 0.66605 0.45996 0.0
C185 C 0.11659 0.56591 0.47117 0.0
H186 H 0.24519 0.68616 0.48941 0.0
C187 C 1.06697 0.50236 0.46395 0.0
C188 C 1.01027 0.46855 0.48585 0.0
C189 C 0.10779 0.5933 0.50126 0.0
H190 H 0.14102 0.6406 0.50742 0.0
C191 C 1.05393 0.56036 0.52338 0.0
H192 H 1.07108 0.47898 0.4412 0.0
C193 C 1.00571 0.49899 0.51574 0.0
H194 H 0.96388 0.47497 0.53324 0.0
H195 H 1.04856 0.58271 0.54626 0.0
H196 H 0.61922 1.01902 0.7035 0.0
C197 C 0.62146 0.05226 0.7194 0.0
C198 C 0.63287 0.09514 0.70091 0.0
C199 C 0.60783 0.04956 0.75737 0.0
H200 H 0.63694 0.16735 0.70633 0.0
C201 C 0.63191 0.13627 0.72105 0.0
C202 C 0.61808 0.134 0.75896 0.0
C203 C 0.60872 0.09193 0.77718 0.0
C204 C 0.5832 0.99839 0.77484 0.0
H205 H 0.5992 0.0907 0.80663 0.0
C206 C 0.61569 0.97549 0.77113 0.0
C207 C 0.58965 0.92595 0.78722 0.0
C208 C 0.52424 0.97072 0.79454 0.0
H209 H 0.49692 0.98619 0.79714 0.0
C210 C 0.49861 0.9219 0.81045 0.0
H211 H 0.6607 0.99591 0.75577 0.0
C212 C 0.53095 0.89962 0.80686 0.0
H213 H 0.51033 0.86185 0.81974 0.0
H214 H 0.45325 0.90109 0.82551 0.0
H215 H 0.74988 0.69804 0.08928 0.0
C216 C 0.73402 0.66056 0.10086 0.0
C217 C 0.69905 0.60703 0.07613 0.0
C218 C 0.74935 0.66644 0.14024 0.0
H219 H 0.64932 0.51676 0.07162 0.0
C220 C 0.67728 0.55821 0.09098 0.0
C221 C 0.69723 0.56445 0.12996 0.0
C222 C 0.7324 0.61883 0.15452 0.0
C223 C 0.77803 0.72095 0.16625 0.0
H224 H 0.74793 0.62478 0.18472 0.0
C225 C 0.74446 0.74185 0.16164 0.0
C226 C 0.76383 0.78962 0.18742 0.0
C227 C 0.83399 0.74983 0.19668 0.0
H228 H 0.8609 0.73448 0.20089 0.0
C229 C 0.85496 0.79864 0.22214 0.0
H230 H 0.69883 0.71769 0.13935 0.0
C231 C 0.81919 0.81796 0.218 0.0
H232 H 0.83331 0.85368 0.23896 0.0
H233 H 0.89765 0.82044 0.24578 0.0
C234 C 0.59419 0.74505 0.19927 0.0
C235 C 0.57082 0.73997 0.16126 0.0
C236 C 0.66541 0.77472 0.21133 0.0
C237 C 0.71433 0.79876 0.18533 0.0
H238 H 0.55581 0.72031 0.21839 0.0
H239 H 0.67908 0.7703 0.23891 0.0
S240 S 0.68395 0.81248 0.08673 0.0
N241 N 0.60507 0.77332 0.10086 0.0
N242 N 0.73931 0.829 0.1236 0.0
C243 C 0.6944 0.80355 0.14983 0.0
C244 C 0.62191 0.77335 0.13751 0.0
C245 C 0.82399 0.31328 0.47218 0.0
C246 C 0.8363 0.27603 0.47686 0.0
C247 C 0.88026 0.37428 0.47296 0.0
C248 C 0.95236 0.4018 0.47808 0.0
H249 H 0.77022 0.2956 0.46884 0.0
H250 H 0.86716 0.40066 0.47051 0.0
S251 S 1.01537 0.32523 0.49002 0.0
N252 N 0.92772 0.27204 0.48549 0.0
N253 N 1.03279 0.38637 0.48695 0.0
C254 C 0.96581 0.36517 0.48166 0.0
C255 C 0.90826 0.30272 0.48115 0.0
C256 C 0.60613 0.81278 0.77377 0.0
C257 C 0.67813 0.84622 0.78805 0.0
C258 C 0.57886 0.83947 0.77201 0.0
C259 C 0.62255 0.90071 0.7842 0.0
H260 H 0.56981 0.76522 0.76533 0.0
H261 H 0.52255 0.81168 0.76196 0.0
S262 S 0.8161 1.00873 0.82081 0.0
N263 N 0.79382 0.94442 0.81205 0.0
N264 N 0.74219 0.99453 0.80909 0.0
C265 C 0.69531 0.93509 0.7969 0.0
C266 C 0.72311 0.90783 0.79887 0.0
C267 C 0.71615 0.49622 0.20259 0.0
C268 C 0.75419 0.48455 0.18421 0.0
C269 C 0.68574 0.51294 0.18271 0.0
C270 C 0.69413 0.51965 0.14428 0.0
H271 H 0.71887 0.50081 0.2334 0.0
H272 H 0.66397 0.52808 0.19882 0.0
S273 S 0.76528 0.47171 0.08063 0.0
N274 N 0.77824 0.46191 0.12332 0.0
N275 N 0.72519 0.49642 0.08631 0.0
C276 C 0.71915 0.49631 0.12409 0.0
C277 C 0.74807 0.47766 0.14414 0.0
C278 C 0.46541 0.85871 0.47334 0.0
C279 C 0.46099 0.89626 0.45759 0.0
C280 C 0.40664 0.79674 0.46791 0.0
C281 C 0.34057 0.76938 0.44662 0.0
H282 H 0.51514 0.87708 0.48943 0.0
H283 H 0.41371 0.76984 0.47941 0.0
S284 S 0.29827 0.84611 0.40053 0.0
N285 N 0.38225 0.89978 0.42068 0.0
N286 N 0.27377 0.78473 0.41061 0.0
C287 C 0.33488 0.80628 0.43154 0.0
C288 C 0.39426 0.86909 0.43702 0.0
C289 C 0.64276 0.2676 0.79648 0.0
C290 C 0.58094 0.24264 0.81316 0.0
C291 C 0.65473 0.23244 0.7791 0.0
C292 C 0.60576 0.17114 0.77819 0.0
H293 H 0.68145 0.31449 0.7961 0.0
H294 H 0.70267 0.25337 0.76633 0.0
S295 S 0.43616 0.08435 0.81834 0.0
N296 N 0.47119 0.15307 0.82844 0.0
N297 N 0.49266 0.08696 0.79517 0.0
C298 C 0.54407 0.14579 0.79507 0.0
C299 C 0.53192 0.1815 0.81267 0.0
C300 C 0.64637 0.78509 0.49045 0.0
C301 C 0.65768 0.81952 0.52469 0.0
C302 C 0.61361 0.7263 0.48875 0.0
C303 C 0.59179 0.69998 0.52134 0.0
H304 H 0.66111 0.80323 0.46447 0.0
H305 H 0.60453 0.70095 0.46159 0.0
S306 S 0.61249 0.77199 0.61836 0.0
N307 N 0.64678 0.82384 0.59226 0.0
N308 N 0.58562 0.7131 0.5891 0.0
C309 C 0.60461 0.73432 0.55604 0.0
C310 C 0.63725 0.79412 0.55767 0.0
C311 C 0.82309 0.51315 0.86507 0.0
C312 C 0.83158 0.5589 0.85134 0.0
C313 C 0.87844 0.51122 0.86956 0.0
C314 C 0.94927 0.55403 0.86021 0.0
H315 H 0.77244 0.47791 0.87346 0.0
H316 H 0.86512 0.47488 0.88146 0.0
S317 S 1.00526 0.68518 0.82261 0.0
N318 N 0.9219 0.64976 0.82814 0.0
N319 N 1.02194 0.6457 0.83602 0.0
C320 C 0.95858 0.59984 0.84583 0.0
C321 C 0.90205 0.60224 0.84161 0.0
C322 C 0.32841 0.78776 0.15504 0.0
C323 C 0.33113 0.7477 0.16779 0.0
C324 C 0.39018 0.84879 0.15888 0.0
C325 C 0.45742 0.87274 0.17605 0.0
H326 H 0.27796 0.77193 0.14219 0.0
H327 H 0.38461 0.87786 0.14987 0.0
S328 S 0.49375 0.78805 0.21564 0.0
N329 N 0.40772 0.73766 0.19882 0.0
N330 N 0.52217 0.85101 0.20621 0.0
C331 C 0.46081 0.83298 0.18848 0.0
C332 C 0.39839 0.77107 0.18429 0.0
C333 C 0.5254 0.33418 0.48721 0.0
C334 C 0.57785 0.33228 0.49575 0.0
C335 C 0.53224 0.3805 0.50539 0.0
C336 C 0.59171 0.42668 0.53296 0.0
H337 H 0.47806 0.29905 0.46668 0.0
H338 H 0.48938 0.37903 0.4987 0.0
S339 S 0.74563 0.44402 0.56438 0.0
N340 N 0.69227 0.3815 0.53293 0.0
N341 N 0.70575 0.46927 0.56656 0.0
C342 C 0.64557 0.42629 0.541 0.0
C343 C 0.63862 0.37905 0.52245 0.0
C344 C 0.47 0.60511 0.83997 0.0
C345 C 0.46294 0.55867 0.85103 0.0
C346 C 0.41459 0.60718 0.83934 0.0
C347 C 0.34503 0.5636 0.85006 0.0
H348 H 0.51948 0.64084 0.83075 0.0
H349 H 0.42661 0.64412 0.82914 0.0
S350 S 0.29363 0.43064 0.88212 0.0
N351 N 0.3759 0.46665 0.87385 0.0
N352 N 0.27546 0.47058 0.8724 0.0
C353 C 0.33736 0.51713 0.86183 0.0
C354 C 0.39409 0.51481 0.86239 0.0
C355 C 0.90291 0.35046 0.17179 0.0
C356 C 0.95363 0.36934 0.1467 0.0
C357 C 0.84 0.29012 0.16909 0.0
C358 C 0.82435 0.2455 0.14107 0.0
H359 H 0.91105 0.38272 0.1934 0.0
H360 H 0.80179 0.27869 0.188 0.0
S361 S 0.93947 0.26931 0.06941 0.0
N362 N 0.98361 0.33635 0.09375 0.0
N363 N 0.86636 0.22444 0.08863 0.0
C364 C 0.87534 0.26344 0.11659 0.0
C365 C 0.93943 0.32464 0.11941 0.0
C366 C 0.13444 0.57316 0.03306 0.0
C367 C 1.07211 0.53531 0.04961 0.0
C368 C 0.13132 0.57484 -0.00623 0.0
C369 C 1.06575 0.53833 0.96908 0.0
H370 H 0.18627 0.60306 0.05077 0.0
H371 H 0.18084 0.60626 0.98286 0.0
S372 S 0.88721 0.42631 -0.00262 0.0
N373 N 0.94303 0.45763 0.03782 0.0
N374 N 0.937 0.45929 0.96395 0.0
C375 C 1.00308 0.49854 0.98509 0.0
C376 C 1.00631 0.49735 0.02523 0.0
C377 C 0.7063 0.08774 0.3405 0.0
C378 C 0.65459 0.06905 0.36448 0.0
C379 C 0.68854 0.07518 0.30052 0.0
C380 C 0.61849 0.0435 0.28326 0.0
H381 H 0.76033 0.11056 0.35261 0.0
H382 H 0.72906 0.08805 0.28298 0.0
S383 S 0.46568 0.99129 0.33321 0.0
N384 N 0.53192 0.02192 0.36793 0.0
N385 N 0.49898 0.99881 0.29304 0.0
C386 C 0.56736 0.02745 0.30694 0.0
C387 C 0.5853 0.04011 0.34751 0.0
C388 C 0.66071 0.54008 0.71938 0.0
C389 C 0.60022 0.51823 0.73639 0.0
C390 C 0.66102 0.54279 0.68027 0.0
C391 C 0.60155 0.52517 0.65717 0.0
H392 H 0.70707 0.5531 0.73605 0.0
H393 H 0.70748 0.55765 0.6678 0.0
S394 S 0.43236 0.46919 0.68874 0.0
N395 N 0.48095 0.48171 0.72772 0.0
N396 N 0.482 0.48764 0.65448 0.0
C397 C 0.54207 0.50575 0.67427 0.0
C398 C 0.5413 0.50206 0.71384 0.0
C399 C 0.68844 0.14138 0.60473 0.0
C400 C 0.63024 0.0908 0.57872 0.0
C401 C 0.69043 0.14214 0.64441 0.0
C402 C 0.6352 0.0919 0.65909 0.0
H403 H 0.73057 0.18141 0.59455 0.0
H404 H 0.73447 0.18264 0.66378 0.0
S405 S 0.47447 0.94712 0.60216 0.0
N406 N 0.51864 0.9885 0.56997 0.0
N407 N 0.52278 0.9895 0.6441 0.0
C408 C 0.57877 0.04028 0.63304 0.0
C409 C 0.57624 0.03986 0.59294 0.0
C410 C 0.75713 0.6459 0.98034 0.0
C411 C 0.69314 0.6047 0.95465 0.0
C412 C 0.75792 0.64624 0.01957 0.0
C413 C 0.69484 0.60516 0.03452 0.0
H414 H 0.80716 0.67843 0.97018 0.0
H415 H 0.80854 0.67862 0.03838 0.0
S416 S 0.51334 0.48761 0.9795 0.0
N417 N 0.56486 0.52134 0.9468 0.0
N418 N 0.5668 0.52193 0.021 0.0
C419 C 0.6305 0.56322 0.00926 0.0
C420 C 0.62952 0.56307 0.96917 0.0
C421 C 0.12229 0.54074 0.28 0.0
C422 C 0.17855 0.55634 0.26111 0.0
C423 C 0.13301 0.55842 0.31977 0.0
C424 C 0.20052 0.59247 0.34194 0.0
H425 H 1.07009 0.51596 0.26383 0.0
H426 H 1.08882 0.54737 0.33298 0.0
S427 S 0.36351 0.64026 0.30577 0.0
N428 N 0.30265 0.60466 0.26713 0.0
N429 N 0.32304 0.63709 0.34193 0.0
C430 C 0.25638 0.60608 0.3233 0.0
C431 C 0.24532 0.58816 0.28286 0.0
loop_
_geom_bond_atom_site_label_1
_geom_bond_atom_site_label_2
_geom_bond_distance
_geom_bond_site_symmetry_2
_ccdc_geom_bond_type
Gd0 C3 2.818 . S
Gd0 O20 2.377 . S
Gd0 O22 2.448 . S
Gd0 O23 2.506 . S
Gd0 O24 2.435 . S
Gd0 O25 2.717 . S
Gd0 O27 2.395 1_455 S
Gd0 O31 2.327 . S
Gd1 C12 2.818 1_455 S
Gd1 O21 2.395 . S
Gd1 O25 2.327 . S
Gd1 O26 2.377 1_455 S
Gd1 O28 2.448 1_455 S
Gd1 O29 2.506 1_455 S
Gd1 O30 2.435 . S
Gd1 O31 2.717 . S
C2 O20 1.240 . S
C2 O21 1.240 . S
C3 Gd0 2.818 . S
C3 C4 1.510 . S
C3 O22 1.249 . S
C3 O23 1.252 . S
C4 C3 1.510 . S
C4 C5 1.404 . S
C4 C6 1.352 . S
C5 C4 1.404 . S
C5 C9 1.389 . S
C5 H32 0.930 . S
C6 C4 1.352 . S
C6 C8 1.374 . S
C6 H33 0.931 . S
C7 C8 1.359 . S
C7 C9 1.364 . S
C8 C6 1.374 . S
C8 C7 1.359 . S
C8 H34 0.931 . S
C9 C5 1.389 . S
C9 C7 1.364 . S
C9 H35 0.931 . S
C10 O24 1.256 . S
C10 O25 1.257 . S
C11 O26 1.240 . S
C11 O27 1.240 . S
C12 Gd1 2.818 1_655 S
C12 C13 1.510 . S
C12 O28 1.249 . S
C12 O29 1.252 . S
C13 C12 1.510 . S
C13 C14 1.404 . S
C13 C15 1.352 . S
C14 C13 1.404 . S
C14 C18 1.389 . S
C14 H36 0.930 . S
C15 C13 1.352 . S
C15 C17 1.374 . S
C15 H37 0.931 . S
C16 C17 1.359 . S
C16 C18 1.364 . S
C17 C15 1.374 . S
C17 C16 1.359 . S
C17 H38 0.931 . S
C18 C14 1.389 . S
C18 C16 1.364 . S
C18 H39 0.931 . S
C19 O30 1.256 . S
C19 O31 1.257 . S
O20 Gd0 2.377 . S
O20 C2 1.240 . S
O21 Gd1 2.395 . S
O21 C2 1.240 . S
O22 Gd0 2.448 . S
O22 C3 1.249 . S
O23 Gd0 2.506 . S
O23 C3 1.252 . S
O24 Gd0 2.435 . S
O24 C10 1.256 . S
O25 Gd0 2.717 . S
O25 Gd1 2.327 . S
O25 C10 1.257 . S
O26 Gd1 2.377 1_655 S
O26 C11 1.240 . S
O27 Gd0 2.395 1_655 S
O27 C11 1.240 . S
O28 Gd1 2.448 1_655 S
O28 C12 1.249 . S
O29 Gd1 2.506 1_655 S
O29 C12 1.252 . S
O30 Gd1 2.435 . S
O30 C19 1.256 . S
O31 Gd0 2.327 . S
O31 Gd1 2.717 . S
O31 C19 1.257 . S
H32 C5 0.930 . S
H33 C6 0.931 . S
H34 C8 0.931 . S
H35 C9 0.931 . S
H36 C14 0.930 . S
H37 C15 0.931 . S
H38 C17 0.931 . S
H39 C18 0.931 . S
Gd40 C43 2.818 1_545 S
Gd40 O60 2.377 1_545 S
Gd40 O62 2.448 1_545 S
Gd40 O63 2.506 1_545 S
Gd40 O64 2.435 . S
Gd40 O65 2.717 . S
Gd40 O67 2.395 . S
Gd40 O71 2.327 . S
Gd41 C52 2.818 . S
Gd41 O61 2.395 1_545 S
Gd41 O65 2.327 . S
Gd41 O66 2.377 . S
Gd41 O68 2.448 . S
Gd41 O69 2.506 . S
Gd41 O70 2.435 . S
Gd41 O71 2.717 . S
C42 O60 1.240 . S
C42 O61 1.240 . S
C43 Gd40 2.818 1_565 S
C43 C44 1.510 . S
C43 O62 1.249 . S
C43 O63 1.252 . S
C44 C43 1.510 . S
C44 C45 1.404 . S
C44 C46 1.352 . S
C45 C44 1.404 . S
C45 C49 1.389 . S
C45 H72 0.930 . S
C46 C44 1.352 . S
C46 C48 1.374 . S
C46 H73 0.931 . S
C47 C48 1.359 . S
C47 C49 1.364 . S
C48 C46 1.374 . S
C48 C47 1.359 . S
C48 H74 0.931 . S
C49 C45 1.389 . S
C49 C47 1.364 . S
C49 H75 0.931 . S
C50 O64 1.256 . S
C50 O65 1.257 . S
C51 O66 1.240 . S
C51 O67 1.240 . S
C52 Gd41 2.818 . S
C52 C53 1.510 . S
C52 O68 1.249 . S
C52 O69 1.252 . S
C53 C52 1.510 . S
C53 C54 1.404 . S
C53 C55 1.352 . S
C54 C53 1.404 . S
C54 C58 1.389 . S
C54 H76 0.930 . S
C55 C53 1.352 . S
C55 C57 1.374 . S
C55 H77 0.931 . S
C56 C57 1.359 . S
C56 C58 1.364 . S
C57 C55 1.374 . S
C57 C56 1.359 . S
C57 H78 0.931 . S
C58 C54 1.389 . S
C58 C56 1.364 . S
C58 H79 0.931 . S
C59 O70 1.256 . S
C59 O71 1.257 . S
O60 Gd40 2.377 1_565 S
O60 C42 1.240 . S
O61 Gd41 2.395 1_565 S
O61 C42 1.240 . S
O62 Gd40 2.448 1_565 S
O62 C43 1.249 . S
O63 Gd40 2.506 1_565 S
O63 C43 1.252 . S
O64 Gd40 2.435 . S
O64 C50 1.256 . S
O65 Gd40 2.717 . S
O65 Gd41 2.327 . S
O65 C50 1.257 . S
O66 Gd41 2.377 . S
O66 C51 1.240 . S
O67 Gd40 2.395 . S
O67 C51 1.240 . S
O68 Gd41 2.448 . S
O68 C52 1.249 . S
O69 Gd41 2.506 . S
O69 C52 1.252 . S
O70 Gd41 2.435 . S
O70 C59 1.256 . S
O71 Gd40 2.327 . S
O71 Gd41 2.717 . S
O71 C59 1.257 . S
H72 C45 0.930 . S
H73 C46 0.931 . S
H74 C48 0.931 . S
H75 C49 0.931 . S
H76 C54 0.930 . S
H77 C55 0.931 . S
H78 C57 0.931 . S
H79 C58 0.931 . S
Gd80 C83 2.818 . S
Gd80 O100 2.377 . S
Gd80 O102 2.448 . S
Gd80 O103 2.506 . S
Gd80 O104 2.435 . S
Gd80 O105 2.717 . S
Gd80 O107 2.395 . S
Gd80 O111 2.327 . S
Gd81 C92 2.818 . S
Gd81 O101 2.395 . S
Gd81 O105 2.327 . S
Gd81 O106 2.377 . S
Gd81 O108 2.448 . S
Gd81 O109 2.506 . S
Gd81 O110 2.435 . S
Gd81 O111 2.717 . S
C82 O100 1.240 . S
C82 O101 1.240 . S
C83 Gd80 2.818 . S
C83 C84 1.510 . S
C83 O102 1.249 . S
C83 O103 1.252 . S
C84 C83 1.510 . S
C84 C85 1.404 . S
C84 C86 1.352 . S
C85 C84 1.404 . S
C85 C89 1.389 . S
C85 H112 0.930 . S
C86 C84 1.352 . S
C86 C88 1.374 . S
C86 H113 0.931 . S
C87 C88 1.359 . S
C87 C89 1.364 . S
C88 C86 1.374 . S
C88 C87 1.359 . S
C88 H114 0.931 . S
C89 C85 1.389 . S
C89 C87 1.364 . S
C89 H115 0.931 . S
C90 O104 1.256 . S
C90 O105 1.257 . S
C91 O106 1.240 . S
C91 O107 1.240 . S
C92 Gd81 2.818 . S
C92 C93 1.510 . S
C92 O108 1.249 . S
C92 O109 1.252 . S
C93 C92 1.510 . S
C93 C94 1.404 . S
C93 C95 1.352 . S
C94 C93 1.404 . S
C94 C98 1.389 . S
C94 H116 0.930 . S
C95 C93 1.352 . S
C95 C97 1.374 . S
C95 H117 0.931 . S
C96 C97 1.359 . S
C96 C98 1.364 . S
C97 C95 1.374 . S
C97 C96 1.359 . S
C97 H118 0.931 . S
C98 C94 1.389 . S
C98 C96 1.364 . S
C98 H119 0.931 . S
C99 O110 1.256 . S
C99 O111 1.257 . S
O100 Gd80 2.377 . S
O100 C82 1.240 . S
O101 Gd81 2.395 . S
O101 C82 1.240 . S
O102 Gd80 2.448 . S
O102 C83 1.249 . S
O103 Gd80 2.506 . S
O103 C83 1.252 . S
O104 Gd80 2.435 . S
O104 C90 1.256 . S
O105 Gd80 2.717 . S
O105 Gd81 2.327 . S
O105 C90 1.257 . S
O106 Gd81 2.377 . S
O106 C91 1.240 . S
O107 Gd80 2.395 . S
O107 C91 1.240 . S
O108 Gd81 2.448 . S
O108 C92 1.249 . S
O109 Gd81 2.506 . S
O109 C92 1.252 . S
O110 Gd81 2.435 . S
O110 C99 1.256 . S
O111 Gd80 2.327 . S
O111 Gd81 2.717 . S
O111 C99 1.257 . S
H112 C85 0.930 . S
H113 C86 0.931 . S
H114 C88 0.931 . S
H115 C89 0.931 . S
H116 C94 0.930 . S
H117 C95 0.931 . S
H118 C97 0.931 . S
H119 C98 0.931 . S
H120 C121 0.949 . S
C121 H120 0.949 . S
C121 C122 1.395 . S
C121 C123 1.391 . S
C122 C121 1.395 . S
C122 C125 1.390 1_545 S
C123 C121 1.391 . S
C123 C127 1.387 . S
C123 C128 1.491 . S
H124 C125 0.950 . S
C125 C122 1.390 1_565 S
C125 H124 0.950 . S
C125 C126 1.378 . S
C126 C125 1.378 . S
C126 C127 1.409 1_565 S
C127 C123 1.387 . S
C127 C126 1.409 1_545 S
C127 H129 0.951 1_545 S
C128 C123 1.491 . S
C128 C130 1.382 . S
C128 C132 1.404 . S
H129 C127 0.951 1_565 S
C130 C128 1.382 . S
C130 C131 1.390 . S
C130 H135 0.949 . S
C131 C130 1.390 . S
C131 C136 1.399 . S
C132 C128 1.404 . S
C132 H133 0.950 . S
C132 C134 1.375 . S
H133 C132 0.950 . S
C134 C132 1.375 . S
C134 C136 1.382 . S
C134 H138 0.950 . S
H135 C130 0.949 . S
C136 C131 1.399 . S
C136 C134 1.382 . S
C136 H137 0.952 . S
H137 C136 0.952 . S
H138 C134 0.950 . S
H139 C140 0.949 . S
C140 H139 0.949 . S
C140 C141 1.395 . S
C140 C142 1.391 . S
C141 C140 1.395 . S
C141 C144 1.390 . S
C142 C140 1.391 . S
C142 C146 1.387 . S
C142 C147 1.491 . S
H143 C144 0.950 . S
C144 C141 1.390 . S
C144 H143 0.950 . S
C144 C145 1.378 . S
C145 C144 1.378 . S
C145 C146 1.409 . S
C146 C142 1.387 . S
C146 C145 1.409 . S
C146 H148 0.951 . S
C147 C142 1.491 . S
C147 C149 1.382 . S
C147 C151 1.404 . S
H148 C146 0.951 . S
C149 C147 1.382 . S
C149 C150 1.390 . S
C149 H154 0.949 . S
C150 C149 1.390 . S
C150 C155 1.399 . S
C151 C147 1.404 . S
C151 H152 0.950 . S
C151 C153 1.375 . S
H152 C151 0.950 . S
C153 C151 1.375 . S
C153 C155 1.382 . S
C153 H157 0.950 . S
H154 C149 0.949 . S
C155 C150 1.399 . S
C155 C153 1.382 . S
C155 H156 0.952 . S
H156 C155 0.952 . S
H157 C153 0.950 . S
H158 C159 0.949 . S
C159 H158 0.949 . S
C159 C160 1.395 . S
C159 C161 1.391 . S
C160 C159 1.395 . S
C160 C163 1.390 . S
C161 C159 1.391 . S
C161 C165 1.387 . S
C161 C166 1.491 . S
H162 C163 0.950 1_655 S
C163 C160 1.390 . S
C163 H162 0.950 1_455 S
C163 C164 1.379 . S
C164 C163 1.379 . S
C164 C165 1.419 . S
C165 C161 1.387 . S
C165 C164 1.419 . S
C165 H167 0.951 . S
C166 C161 1.491 . S
C166 C168 1.382 . S
C166 C170 1.404 . S
H167 C165 0.951 . S
C168 C166 1.382 . S
C168 C169 1.390 . S
C168 H173 0.949 . S
C169 C168 1.390 . S
C169 C174 1.399 . S
C170 C166 1.404 . S
C170 H171 0.950 . S
C170 C172 1.375 . S
H171 C170 0.950 . S
C172 C170 1.375 . S
C172 C174 1.382 . S
C172 H176 0.950 . S
H173 C168 0.949 . S
C174 C169 1.399 . S
C174 C172 1.382 . S
C174 H175 0.952 . S
H175 C174 0.952 . S
H176 C172 0.950 . S
H177 C178 0.950 1_655 S
C178 H177 0.950 1_455 S
C178 C179 1.393 . S
C178 C180 1.391 . S
C179 C178 1.393 . S
C179 C182 1.390 . S
C180 C178 1.391 . S
C180 C184 1.387 . S
C180 C185 1.491 1_455 S
H181 C182 0.950 . S
C182 C179 1.390 . S
C182 H181 0.950 . S
C182 C183 1.378 . S
C183 C182 1.378 . S
C183 C184 1.409 . S
C184 C180 1.387 . S
C184 C183 1.409 . S
C184 H186 0.951 . S
C185 C180 1.491 1_655 S
C185 C187 1.382 . S
C185 C189 1.404 . S
H186 C184 0.951 . S
C187 C185 1.382 . S
C187 C188 1.390 . S
C187 H192 0.949 . S
C188 C187 1.390 . S
C188 C193 1.399 . S
C189 C185 1.404 . S
C189 H190 0.950 . S
C189 C191 1.375 . S
H190 C189 0.950 . S
C191 C189 1.375 . S
C191 C193 1.382 . S
C191 H195 0.950 . S
H192 C187 0.949 . S
C193 C188 1.399 . S
C193 C191 1.382 . S
C193 H194 0.952 . S
H194 C193 0.952 . S
H195 C191 0.950 . S
H196 C197 0.930 1_565 S
C197 H196 0.930 1_545 S
C197 C198 1.395 . S
C197 C199 1.391 . S
C198 C197 1.395 . S
C198 C201 1.390 . S
C199 C197 1.391 . S
C199 C203 1.387 . S
C199 C204 1.496 . S
H200 C201 0.950 . S
C201 C198 1.390 . S
C201 H200 0.950 . S
C201 C202 1.378 . S
C202 C201 1.378 . S
C202 C203 1.409 . S
C203 C199 1.387 . S
C203 C202 1.409 . S
C203 H205 0.951 . S
C204 C199 1.496 . S
C204 C206 1.376 1_545 S
C204 C208 1.404 1_545 S
H205 C203 0.951 . S
C206 C204 1.376 1_565 S
C206 C207 1.390 . S
C206 H211 0.949 . S
C207 C206 1.390 . S
C207 C212 1.399 . S
C208 C204 1.404 1_565 S
C208 H209 0.950 . S
C208 C210 1.375 . S
H209 C208 0.950 . S
C210 C208 1.375 . S
C210 C212 1.382 . S
C210 H214 0.950 . S
H211 C206 0.949 . S
C212 C207 1.399 . S
C212 C210 1.382 . S
C212 H213 0.952 . S
H213 C212 0.952 . S
H214 C210 0.950 . S
H215 C216 0.949 . S
C216 H215 0.949 . S
C216 C217 1.395 . S
C216 C218 1.391 . S
C217 C216 1.395 . S
C217 C220 1.390 . S
C218 C216 1.391 . S
C218 C222 1.387 . S
C218 C223 1.491 . S
H219 C220 0.950 . S
C220 C217 1.390 . S
C220 H219 0.950 . S
C220 C221 1.378 . S
C221 C220 1.378 . S
C221 C222 1.409 . S
C222 C218 1.387 . S
C222 C221 1.409 . S
C222 H224 0.951 . S
C223 C218 1.491 . S
C223 C225 1.382 . S
C223 C227 1.404 . S
H224 C222 0.951 . S
C225 C223 1.382 . S
C225 C226 1.390 . S
C225 H230 0.949 . S
C226 C225 1.390 . S
C226 C231 1.399 . S
C227 C223 1.404 . S
C227 H228 0.950 . S
C227 C229 1.375 . S
H228 C227 0.950 . S
C229 C227 1.375 . S
C229 C231 1.382 . S
C229 H233 0.950 . S
H230 C225 0.949 . S
C231 C226 1.399 . S
C231 C229 1.382 . S
C231 H232 0.952 . S
H232 C231 0.952 . S
H233 C229 0.950 . S
C234 C235 1.369 . S
C234 C236 1.419 . S
C234 H238 0.930 . S
C235 C234 1.369 . S
C235 C244 1.429 . S
C236 C234 1.419 . S
C236 C237 1.363 . S
C236 H239 0.929 . S
C237 C236 1.363 . S
C237 C243 1.428 . S
H238 C234 0.930 . S
H239 C236 0.929 . S
S240 N241 1.613 . S
S240 N242 1.610 . S
N241 S240 1.613 . S
N241 C244 1.350 . S
N242 S240 1.610 . S
N242 C243 1.351 . S
C243 C237 1.428 . S
C243 N242 1.351 . S
C243 C244 1.434 . S
C244 C235 1.429 . S
C244 N241 1.350 . S
C244 C243 1.434 . S
C245 C246 1.369 . S
C245 C247 1.419 . S
C245 H249 0.930 . S
C246 C245 1.369 . S
C246 C255 1.429 . S
C247 C245 1.419 . S
C247 C248 1.363 . S
C247 H250 0.929 . S
C248 C247 1.363 . S
C248 C254 1.428 . S
H249 C245 0.930 . S
H250 C247 0.929 . S
S251 N252 1.613 . S
S251 N253 1.610 . S
N252 S251 1.613 . S
N252 C255 1.350 . S
N253 S251 1.610 . S
N253 C254 1.351 . S
C254 C248 1.428 . S
C254 N253 1.351 . S
C254 C255 1.434 . S
C255 C246 1.429 . S
C255 N252 1.350 . S
C255 C254 1.434 . S
C256 C257 1.369 . S
C256 C258 1.419 . S
C256 H260 0.930 . S
C257 C256 1.369 . S
C257 C266 1.429 . S
C258 C256 1.419 . S
C258 C259 1.363 . S
C258 H261 0.929 . S
C259 C258 1.363 . S
C259 C265 1.428 . S
H260 C256 0.930 . S
H261 C258 0.929 . S
S262 N263 1.613 . S
S262 N264 1.610 . S
N263 S262 1.613 . S
N263 C266 1.350 . S
N264 S262 1.610 . S
N264 C265 1.351 . S
C265 C259 1.428 . S
C265 N264 1.351 . S
C265 C266 1.434 . S
C266 C257 1.429 . S
C266 N263 1.350 . S
C266 C265 1.434 . S
C267 C268 1.369 . S
C267 C269 1.419 . S
C267 H271 0.930 . S
C268 C267 1.369 . S
C268 C277 1.429 . S
C269 C267 1.419 . S
C269 C270 1.363 . S
C269 H272 0.929 . S
C270 C269 1.363 . S
C270 C276 1.428 . S
H271 C267 0.930 . S
H272 C269 0.929 . S
S273 N274 1.613 . S
S273 N275 1.610 . S
N274 S273 1.613 . S
N274 C277 1.350 . S
N275 S273 1.610 . S
N275 C276 1.351 . S
C276 C270 1.428 . S
C276 N275 1.351 . S
C276 C277 1.434 . S
C277 C268 1.429 . S
C277 N274 1.350 . S
C277 C276 1.434 . S
C278 C279 1.369 . S
C278 C280 1.419 . S
C278 H282 0.930 . S
C279 C278 1.369 . S
C279 C288 1.429 . S
C280 C278 1.419 . S
C280 C281 1.363 . S
C280 H283 0.929 . S
C281 C280 1.363 . S
C281 C287 1.428 . S
H282 C278 0.930 . S
H283 C280 0.929 . S
S284 N285 1.613 . S
S284 N286 1.610 . S
N285 S284 1.613 . S
N285 C288 1.350 . S
N286 S284 1.610 . S
N286 C287 1.351 . S
C287 C281 1.428 . S
C287 N286 1.351 . S
C287 C288 1.434 . S
C288 C279 1.429 . S
C288 N285 1.350 . S
C288 C287 1.434 . S
C289 C290 1.369 . S
C289 C291 1.419 . S
C289 H293 0.930 . S
C290 C289 1.369 . S
C290 C299 1.429 . S
C291 C289 1.419 . S
C291 C292 1.363 . S
C291 H294 0.929 . S
C292 C291 1.363 . S
C292 C298 1.428 . S
H293 C289 0.930 . S
H294 C291 0.929 . S
S295 N296 1.613 . S
S295 N297 1.610 . S
N296 S295 1.613 . S
N296 C299 1.350 . S
N297 S295 1.610 . S
N297 C298 1.351 . S
C298 C292 1.428 . S
C298 N297 1.351 . S
C298 C299 1.434 . S
C299 C290 1.429 . S
C299 N296 1.350 . S
C299 C298 1.434 . S
C300 C301 1.369 . S
C300 C302 1.419 . S
C300 H304 0.930 . S
C301 C300 1.369 . S
C301 C310 1.429 . S
C302 C300 1.419 . S
C302 C303 1.363 . S
C302 H305 0.929 . S
C303 C302 1.363 . S
C303 C309 1.428 . S
H304 C300 0.930 . S
H305 C302 0.929 . S
S306 N307 1.613 . S
S306 N308 1.610 . S
N307 S306 1.613 . S
N307 C310 1.350 . S
N308 S306 1.610 . S
N308 C309 1.351 . S
C309 C303 1.428 . S
C309 N308 1.351 . S
C309 C310 1.434 . S
C310 C301 1.429 . S
C310 N307 1.350 . S
C310 C309 1.434 . S
C311 C312 1.369 . S
C311 C313 1.419 . S
C311 H315 0.930 . S
C312 C311 1.369 . S
C312 C321 1.429 . S
C313 C311 1.419 . S
C313 C314 1.363 . S
C313 H316 0.929 . S
C314 C313 1.363 . S
C314 C320 1.428 . S
H315 C311 0.930 . S
H316 C313 0.929 . S
S317 N318 1.613 . S
S317 N319 1.610 . S
N318 S317 1.613 . S
N318 C321 1.350 . S
N319 S317 1.610 . S
N319 C320 1.351 . S
C320 C314 1.428 . S
C320 N319 1.351 . S
C320 C321 1.434 . S
C321 C312 1.429 . S
C321 N318 1.350 . S
C321 C320 1.434 . S
C322 C323 1.369 . S
C322 C324 1.419 . S
C322 H326 0.930 . S
C323 C322 1.369 . S
C323 C332 1.429 . S
C324 C322 1.419 . S
C324 C325 1.363 . S
C324 H327 0.929 . S
C325 C324 1.363 . S
C325 C331 1.428 . S
H326 C322 0.930 . S
H327 C324 0.929 . S
S328 N329 1.613 . S
S328 N330 1.610 . S
N329 S328 1.613 . S
N329 C332 1.350 . S
N330 S328 1.610 . S
N330 C331 1.351 . S
C331 C325 1.428 . S
C331 N330 1.351 . S
C331 C332 1.434 . S
C332 C323 1.429 . S
C332 N329 1.350 . S
C332 C331 1.434 . S
C333 C334 1.369 . S
C333 C335 1.419 . S
C333 H337 0.930 . S
C334 C333 1.369 . S
C334 C343 1.429 . S
C335 C333 1.419 . S
C335 C336 1.363 . S
C335 H338 0.929 . S
C336 C335 1.363 . S
C336 C342 1.428 . S
H337 C333 0.930 . S
H338 C335 0.929 . S
S339 N340 1.613 . S
S339 N341 1.610 . S
N340 S339 1.613 . S
N340 C343 1.350 . S
N341 S339 1.610 . S
N341 C342 1.351 . S
C342 C336 1.428 . S
C342 N341 1.351 . S
C342 C343 1.434 . S
C343 C334 1.429 . S
C343 N340 1.350 . S
C343 C342 1.434 . S
C344 C345 1.369 . S
C344 C346 1.419 . S
C344 H348 0.930 . S
C345 C344 1.369 . S
C345 C354 1.429 . S
C346 C344 1.419 . S
C346 C347 1.363 . S
C346 H349 0.929 . S
C347 C346 1.363 . S
C347 C353 1.428 . S
H348 C344 0.930 . S
H349 C346 0.929 . S
S350 N351 1.613 . S
S350 N352 1.610 . S
N351 S350 1.613 . S
N351 C354 1.350 . S
N352 S350 1.610 . S
N352 C353 1.351 . S
C353 C347 1.428 . S
C353 N352 1.351 . S
C353 C354 1.434 . S
C354 C345 1.429 . S
C354 N351 1.350 . S
C354 C353 1.434 . S
C355 C356 1.369 . S
C355 C357 1.419 . S
C355 H359 0.930 . S
C356 C355 1.369 . S
C356 C365 1.429 . S
C357 C355 1.419 . S
C357 C358 1.363 . S
C357 H360 0.929 . S
C358 C357 1.363 . S
C358 C364 1.428 . S
H359 C355 0.930 . S
H360 C357 0.929 . S
S361 N362 1.613 . S
S361 N363 1.610 . S
N362 S361 1.613 . S
N362 C365 1.350 . S
N363 S361 1.610 . S
N363 C364 1.351 . S
C364 C358 1.428 . S
C364 N363 1.351 . S
C364 C365 1.434 . S
C365 C356 1.429 . S
C365 N362 1.350 . S
C365 C364 1.434 . S
C366 C367 1.369 . S
C366 C368 1.419 . S
C366 H370 0.930 . S
C367 C366 1.369 . S
C367 C376 1.428 . S
C368 C366 1.419 . S
C368 C369 1.363 1_554 S
C368 H371 0.929 1_554 S
C369 C368 1.363 1_556 S
C369 C375 1.428 . S
H370 C366 0.930 . S
H371 C368 0.929 1_556 S
S372 N373 1.613 1_556 S
S372 N374 1.610 . S
N373 S372 1.613 1_554 S
N373 C376 1.351 1_655 S
N374 S372 1.610 . S
N374 C375 1.351 1_655 S
C375 C369 1.428 . S
C375 N374 1.351 1_455 S
C375 C376 1.433 1_556 S
C376 C367 1.428 . S
C376 N373 1.351 1_455 S
C376 C375 1.433 1_554 S
C377 C378 1.369 . S
C377 C379 1.419 . S
C377 H381 0.930 . S
C378 C377 1.369 . S
C378 C387 1.429 1_545 S
C379 C377 1.419 . S
C379 C380 1.363 . S
C379 H382 0.929 . S
C380 C379 1.363 . S
C380 C386 1.428 1_545 S
H381 C377 0.930 . S
H382 C379 0.929 . S
S383 N384 1.613 . S
S383 N385 1.610 . S
N384 S383 1.613 . S
N384 C387 1.350 . S
N385 S383 1.610 . S
N385 C386 1.351 . S
C386 C380 1.428 1_565 S
C386 N385 1.351 . S
C386 C387 1.434 . S
C387 C378 1.429 1_565 S
C387 N384 1.350 . S
C387 C386 1.434 . S
C388 C389 1.369 . S
C388 C390 1.419 . S
C388 H392 0.930 . S
C389 C388 1.369 . S
C389 C398 1.429 . S
C390 C388 1.419 . S
C390 C391 1.363 . S
C390 H393 0.929 . S
C391 C390 1.363 . S
C391 C397 1.428 . S
H392 C388 0.930 . S
H393 C390 0.929 . S
S394 N395 1.613 . S
S394 N396 1.610 . S
N395 S394 1.613 . S
N395 C398 1.350 . S
N396 S394 1.610 . S
N396 C397 1.351 . S
C397 C391 1.428 . S
C397 N396 1.351 . S
C397 C398 1.434 . S
C398 C389 1.429 . S
C398 N395 1.350 . S
C398 C397 1.434 . S
C399 C400 1.369 . S
C399 C401 1.419 . S
C399 H403 0.930 . S
C400 C399 1.369 . S
C400 C409 1.429 . S
C401 C399 1.419 . S
C401 C402 1.363 . S
C401 H404 0.929 . S
C402 C401 1.363 . S
C402 C408 1.428 . S
H403 C399 0.930 . S
H404 C401 0.929 . S
S405 N406 1.613 . S
S405 N407 1.610 . S
N406 S405 1.613 . S
N406 C409 1.350 . S
N407 S405 1.610 . S
N407 C408 1.351 . S
C408 C402 1.428 . S
C408 N407 1.351 . S
C408 C409 1.434 . S
C409 C400 1.429 . S
C409 N406 1.350 . S
C409 C408 1.434 . S
C410 C411 1.369 . S
C410 C412 1.419 1_556 S
C410 H414 0.930 . S
C411 C410 1.369 . S
C411 C420 1.429 . S
C412 C410 1.419 1_554 S
C412 C413 1.363 . S
C412 H415 0.929 . S
C413 C412 1.363 . S
C413 C419 1.428 1_554 S
H414 C410 0.930 . S
H415 C412 0.929 . S
S416 N417 1.613 . S
S416 N418 1.634 . S
N417 S416 1.613 . S
N417 C420 1.350 . S
N418 S416 1.634 . S
N418 C419 1.356 . S
C419 C413 1.428 1_556 S
C419 N418 1.356 . S
C419 C420 1.434 . S
C420 C411 1.429 . S
C420 N417 1.350 . S
C420 C419 1.434 . S
C421 C422 1.369 1_655 S
C421 C423 1.419 . S
C421 H425 0.930 . S
C422 C421 1.369 1_455 S
C422 C431 1.429 . S
C423 C421 1.419 . S
C423 C424 1.363 1_655 S
C423 H426 0.929 . S
C424 C423 1.363 1_455 S
C424 C430 1.428 . S
H425 C421 0.930 . S
H426 C423 0.929 . S
S427 N428 1.613 . S
S427 N429 1.610 . S
N428 S427 1.613 . S
N428 C431 1.350 . S
N429 S427 1.610 . S
N429 C430 1.351 . S
C430 C424 1.428 . S
C430 N429 1.351 . S
C430 C431 1.434 . S
C431 C422 1.429 . S
C431 N428 1.350 . S
C431 C430 1.434 . S
C235 C7 1.132 . S
C237 C226 1.031 . S
C246 C51 2.000 . S
C248 C188 1.942 . S
C257 C87 1.353 . S
C259 C207 1.310 . S
C268 C16 0.566 . S
C270 C221 0.453 . S
C281 C183 1.895 . S
C279 C42 1.945 . S
C292 C202 1.189 . S
C290 C96 1.201 . S
C301 C47 1.363 . S
C303 C150 1.273 . S
C312 C91 3.109 . S
C314 C164 3.055 1_655 S
C323 C2 1.976 . S
C325 C126 1.949 . S
C336 C145 1.181 . S
C334 C56 1.176 . S
C347 C169 3.058 . S
C345 C82 3.119 . S
C356 C11 2.016 . S
C358 C131 1.966 . S
C369 C160 1.740 . S
C367 C19 1.719 . S
C378 C50 1.442 . S
C380 C122 1.508 . S
C389 C99 1.541 . S
C391 C141 1.556 . S
C402 C198 1.529 . S
C400 C59 1.544 . S
C413 C217 1.316 . S
C411 C90 1.318 . S
C422 C10 1.414 . S
C424 C179 1.455 . S
