# Generated by pormake.
# Topology tbo, (3,4)-cn, num edge types: 1
# Building blocks:
#     Node 0, Type 0, BuildingBlock: WUSLED_clean_sbu_0, # of connection points: 3
#     Node 1, Type 0, BuildingBlock: WUSLED_clean_sbu_0, # of connection points: 3
#     Node 2, Type 0, BuildingBlock: WUSLED_clean_sbu_0, # of connection points: 3
#     Node 3, Type 0, BuildingBlock: WUSLED_clean_sbu_0, # of connection points: 3
#     Node 4, Type 0, BuildingBlock: WUSLED_clean_sbu_0, # of connection points: 3
#     Node 5, Type 0, BuildingBlock: WUSLED_clean_sbu_0, # of connection points: 3
#     Node 6, Type 0, BuildingBlock: WUSLED_clean_sbu_0, # of connection points: 3
#     Node 7, Type 0, BuildingBlock: WUSLED_clean_sbu_0, # of connection points: 3
#     Node 8, Type 0, BuildingBlock: WUSLED_clean_sbu_0, # of connection points: 3
#     Node 9, Type 0, BuildingBlock: WUSLED_clean_sbu_0, # of connection points: 3
#     Node 10, Type 0, BuildingBlock: WUSLED_clean_sbu_0, # of connection points: 3
#     Node 11, Type 0, BuildingBlock: WUSLED_clean_sbu_0, # of connection points: 3
#     Node 12, Type 0, BuildingBlock: WUSLED_clean_sbu_0, # of connection points: 3
#     Node 13, Type 0, BuildingBlock: WUSLED_clean_sbu_0, # of connection points: 3
#     Node 14, Type 0, BuildingBlock: WUSLED_clean_sbu_0, # of connection points: 3
#     Node 15, Type 0, BuildingBlock: WUSLED_clean_sbu_0, # of connection points: 3
#     Node 16, Type 0, BuildingBlock: WUSLED_clean_sbu_0, # of connection points: 3
#     Node 17, Type 0, BuildingBlock: WUSLED_clean_sbu_0, # of connection points: 3
#     Node 18, Type 0, BuildingBlock: WUSLED_clean_sbu_0, # of connection points: 3
#     Node 19, Type 0, BuildingBlock: WUSLED_clean_sbu_0, # of connection points: 3
#     Node 20, Type 0, BuildingBlock: WUSLED_clean_sbu_0, # of connection points: 3
#     Node 21, Type 0, BuildingBlock: WUSLED_clean_sbu_0, # of connection points: 3
#     Node 22, Type 0, BuildingBlock: WUSLED_clean_sbu_0, # of connection points: 3
#     Node 23, Type 0, BuildingBlock: WUSLED_clean_sbu_0, # of connection points: 3
#     Node 24, Type 0, BuildingBlock: WUSLED_clean_sbu_0, # of connection points: 3
#     Node 25, Type 0, BuildingBlock: WUSLED_clean_sbu_0, # of connection points: 3
#     Node 26, Type 0, BuildingBlock: WUSLED_clean_sbu_0, # of connection points: 3
#     Node 27, Type 0, BuildingBlock: WUSLED_clean_sbu_0, # of connection points: 3
#     Node 28, Type 0, BuildingBlock: WUSLED_clean_sbu_0, # of connection points: 3
#     Node 29, Type 0, BuildingBlock: WUSLED_clean_sbu_0, # of connection points: 3
#     Node 30, Type 0, BuildingBlock: WUSLED_clean_sbu_0, # of connection points: 3
#     Node 31, Type 0, BuildingBlock: WUSLED_clean_sbu_0, # of connection points: 3
#     Node 32, Type 1, BuildingBlock: KUFVIS_clean_linker_0, # of connection points: 4
#     Node 33, Type 1, BuildingBlock: KUFVIS_clean_linker_0, # of connection points: 4
#     Node 34, Type 1, BuildingBlock: KUFVIS_clean_linker_0, # of connection points: 4
#     Node 35, Type 1, BuildingBlock: KUFVIS_clean_linker_0, # of connection points: 4
#     Node 36, Type 1, BuildingBlock: KUFVIS_clean_linker_0, # of connection points: 4
#     Node 37, Type 1, BuildingBlock: KUFVIS_clean_linker_0, # of connection points: 4
#     Node 38, Type 1, BuildingBlock: KUFVIS_clean_linker_0, # of connection points: 4
#     Node 39, Type 1, BuildingBlock: KUFVIS_clean_linker_0, # of connection points: 4
#     Node 40, Type 1, BuildingBlock: KUFVIS_clean_linker_0, # of connection points: 4
#     Node 41, Type 1, BuildingBlock: KUFVIS_clean_linker_0, # of connection points: 4
#     Node 42, Type 1, BuildingBlock: KUFVIS_clean_linker_0, # of connection points: 4
#     Node 43, Type 1, BuildingBlock: KUFVIS_clean_linker_0, # of connection points: 4
#     Node 44, Type 1, BuildingBlock: KUFVIS_clean_linker_0, # of connection points: 4
#     Node 45, Type 1, BuildingBlock: KUFVIS_clean_linker_0, # of connection points: 4
#     Node 46, Type 1, BuildingBlock: KUFVIS_clean_linker_0, # of connection points: 4
#     Node 47, Type 1, BuildingBlock: KUFVIS_clean_linker_0, # of connection points: 4
#     Node 48, Type 1, BuildingBlock: KUFVIS_clean_linker_0, # of connection points: 4
#     Node 49, Type 1, BuildingBlock: KUFVIS_clean_linker_0, # of connection points: 4
#     Node 50, Type 1, BuildingBlock: KUFVIS_clean_linker_0, # of connection points: 4
#     Node 51, Type 1, BuildingBlock: KUFVIS_clean_linker_0, # of connection points: 4
#     Node 52, Type 1, BuildingBlock: KUFVIS_clean_linker_0, # of connection points: 4
#     Node 53, Type 1, BuildingBlock: KUFVIS_clean_linker_0, # of connection points: 4
#     Node 54, Type 1, BuildingBlock: KUFVIS_clean_linker_0, # of connection points: 4
#     Node 55, Type 1, BuildingBlock: KUFVIS_clean_linker_0, # of connection points: 4
#     Edge 56, Type (0, 1), BuildingBlock: OJICUG_clean_linker_0, # of connection points: 2
#     Edge 57, Type (0, 1), BuildingBlock: OJICUG_clean_linker_0, # of connection points: 2
#     Edge 58, Type (0, 1), BuildingBlock: OJICUG_clean_linker_0, # of connection points: 2
#     Edge 59, Type (0, 1), BuildingBlock: OJICUG_clean_linker_0, # of connection points: 2
#     Edge 60, Type (0, 1), BuildingBlock: OJICUG_clean_linker_0, # of connection points: 2
#     Edge 61, Type (0, 1), BuildingBlock: OJICUG_clean_linker_0, # of connection points: 2
#     Edge 62, Type (0, 1), BuildingBlock: OJICUG_clean_linker_0, # of connection points: 2
#     Edge 63, Type (0, 1), BuildingBlock: OJICUG_clean_linker_0, # of connection points: 2
#     Edge 64, Type (0, 1), BuildingBlock: OJICUG_clean_linker_0, # of connection points: 2
#     Edge 65, Type (0, 1), BuildingBlock: OJICUG_clean_linker_0, # of connection points: 2
#     Edge 66, Type (0, 1), BuildingBlock: OJICUG_clean_linker_0, # of connection points: 2
#     Edge 67, Type (0, 1), BuildingBlock: OJICUG_clean_linker_0, # of connection points: 2
#     Edge 68, Type (0, 1), BuildingBlock: OJICUG_clean_linker_0, # of connection points: 2
#     Edge 69, Type (0, 1), BuildingBlock: OJICUG_clean_linker_0, # of connection points: 2
#     Edge 70, Type (0, 1), BuildingBlock: OJICUG_clean_linker_0, # of connection points: 2
#     Edge 71, Type (0, 1), BuildingBlock: OJICUG_clean_linker_0, # of connection points: 2
#     Edge 72, Type (0, 1), BuildingBlock: OJICUG_clean_linker_0, # of connection points: 2
#     Edge 73, Type (0, 1), BuildingBlock: OJICUG_clean_linker_0, # of connection points: 2
#     Edge 74, Type (0, 1), BuildingBlock: OJICUG_clean_linker_0, # of connection points: 2
#     Edge 75, Type (0, 1), BuildingBlock: OJICUG_clean_linker_0, # of connection points: 2
#     Edge 76, Type (0, 1), BuildingBlock: OJICUG_clean_linker_0, # of connection points: 2
#     Edge 77, Type (0, 1), BuildingBlock: OJICUG_clean_linker_0, # of connection points: 2
#     Edge 78, Type (0, 1), BuildingBlock: OJICUG_clean_linker_0, # of connection points: 2
#     Edge 79, Type (0, 1), BuildingBlock: OJICUG_clean_linker_0, # of connection points: 2
#     Edge 80, Type (0, 1), BuildingBlock: OJICUG_clean_linker_0, # of connection points: 2
#     Edge 81, Type (0, 1), BuildingBlock: OJICUG_clean_linker_0, # of connection points: 2
#     Edge 82, Type (0, 1), BuildingBlock: OJICUG_clean_linker_0, # of connection points: 2
#     Edge 83, Type (0, 1), BuildingBlock: OJICUG_clean_linker_0, # of connection points: 2
#     Edge 84, Type (0, 1), BuildingBlock: OJICUG_clean_linker_0, # of connection points: 2
#     Edge 85, Type (0, 1), BuildingBlock: OJICUG_clean_linker_0, # of connection points: 2
#     Edge 86, Type (0, 1), BuildingBlock: OJICUG_clean_linker_0, # of connection points: 2
#     Edge 87, Type (0, 1), BuildingBlock: OJICUG_clean_linker_0, # of connection points: 2
#     Edge 88, Type (0, 1), BuildingBlock: OJICUG_clean_linker_0, # of connection points: 2
#     Edge 89, Type (0, 1), BuildingBlock: OJICUG_clean_linker_0, # of connection points: 2
#     Edge 90, Type (0, 1), BuildingBlock: OJICUG_clean_linker_0, # of connection points: 2
#     Edge 91, Type (0, 1), BuildingBlock: OJICUG_clean_linker_0, # of connection points: 2
#     Edge 92, Type (0, 1), BuildingBlock: OJICUG_clean_linker_0, # of connection points: 2
#     Edge 93, Type (0, 1), BuildingBlock: OJICUG_clean_linker_0, # of connection points: 2
#     Edge 94, Type (0, 1), BuildingBlock: OJICUG_clean_linker_0, # of connection points: 2
#     Edge 95, Type (0, 1), BuildingBlock: OJICUG_clean_linker_0, # of connection points: 2
#     Edge 96, Type (0, 1), BuildingBlock: OJICUG_clean_linker_0, # of connection points: 2
#     Edge 97, Type (0, 1), BuildingBlock: OJICUG_clean_linker_0, # of connection points: 2
#     Edge 98, Type (0, 1), BuildingBlock: OJICUG_clean_linker_0, # of connection points: 2
#     Edge 99, Type (0, 1), BuildingBlock: OJICUG_clean_linker_0, # of connection points: 2
#     Edge 100, Type (0, 1), BuildingBlock: OJICUG_clean_linker_0, # of connection points: 2
#     Edge 101, Type (0, 1), BuildingBlock: OJICUG_clean_linker_0, # of connection points: 2
#     Edge 102, Type (0, 1), BuildingBlock: OJICUG_clean_linker_0, # of connection points: 2
#     Edge 103, Type (0, 1), BuildingBlock: OJICUG_clean_linker_0, # of connection points: 2
#     Edge 104, Type (0, 1), BuildingBlock: OJICUG_clean_linker_0, # of connection points: 2
#     Edge 105, Type (0, 1), BuildingBlock: OJICUG_clean_linker_0, # of connection points: 2
#     Edge 106, Type (0, 1), BuildingBlock: OJICUG_clean_linker_0, # of connection points: 2
#     Edge 107, Type (0, 1), BuildingBlock: OJICUG_clean_linker_0, # of connection points: 2
#     Edge 108, Type (0, 1), BuildingBlock: OJICUG_clean_linker_0, # of connection points: 2
#     Edge 109, Type (0, 1), BuildingBlock: OJICUG_clean_linker_0, # of connection points: 2
#     Edge 110, Type (0, 1), BuildingBlock: OJICUG_clean_linker_0, # of connection points: 2
#     Edge 111, Type (0, 1), BuildingBlock: OJICUG_clean_linker_0, # of connection points: 2
#     Edge 112, Type (0, 1), BuildingBlock: OJICUG_clean_linker_0, # of connection points: 2
#     Edge 113, Type (0, 1), BuildingBlock: OJICUG_clean_linker_0, # of connection points: 2
#     Edge 114, Type (0, 1), BuildingBlock: OJICUG_clean_linker_0, # of connection points: 2
#     Edge 115, Type (0, 1), BuildingBlock: OJICUG_clean_linker_0, # of connection points: 2
#     Edge 116, Type (0, 1), BuildingBlock: OJICUG_clean_linker_0, # of connection points: 2
#     Edge 117, Type (0, 1), BuildingBlock: OJICUG_clean_linker_0, # of connection points: 2
#     Edge 118, Type (0, 1), BuildingBlock: OJICUG_clean_linker_0, # of connection points: 2
#     Edge 119, Type (0, 1), BuildingBlock: OJICUG_clean_linker_0, # of connection points: 2
#     Edge 120, Type (0, 1), BuildingBlock: OJICUG_clean_linker_0, # of connection points: 2
#     Edge 121, Type (0, 1), BuildingBlock: OJICUG_clean_linker_0, # of connection points: 2
#     Edge 122, Type (0, 1), BuildingBlock: OJICUG_clean_linker_0, # of connection points: 2
#     Edge 123, Type (0, 1), BuildingBlock: OJICUG_clean_linker_0, # of connection points: 2
#     Edge 124, Type (0, 1), BuildingBlock: OJICUG_clean_linker_0, # of connection points: 2
#     Edge 125, Type (0, 1), BuildingBlock: OJICUG_clean_linker_0, # of connection points: 2
#     Edge 126, Type (0, 1), BuildingBlock: OJICUG_clean_linker_0, # of connection points: 2
#     Edge 127, Type (0, 1), BuildingBlock: OJICUG_clean_linker_0, # of connection points: 2
#     Edge 128, Type (0, 1), BuildingBlock: OJICUG_clean_linker_0, # of connection points: 2
#     Edge 129, Type (0, 1), BuildingBlock: OJICUG_clean_linker_0, # of connection points: 2
#     Edge 130, Type (0, 1), BuildingBlock: OJICUG_clean_linker_0, # of connection points: 2
#     Edge 131, Type (0, 1), BuildingBlock: OJICUG_clean_linker_0, # of connection points: 2
#     Edge 132, Type (0, 1), BuildingBlock: OJICUG_clean_linker_0, # of connection points: 2
#     Edge 133, Type (0, 1), BuildingBlock: OJICUG_clean_linker_0, # of connection points: 2
#     Edge 134, Type (0, 1), BuildingBlock: OJICUG_clean_linker_0, # of connection points: 2
#     Edge 135, Type (0, 1), BuildingBlock: OJICUG_clean_linker_0, # of connection points: 2
#     Edge 136, Type (0, 1), BuildingBlock: OJICUG_clean_linker_0, # of connection points: 2
#     Edge 137, Type (0, 1), BuildingBlock: OJICUG_clean_linker_0, # of connection points: 2
#     Edge 138, Type (0, 1), BuildingBlock: OJICUG_clean_linker_0, # of connection points: 2
#     Edge 139, Type (0, 1), BuildingBlock: OJICUG_clean_linker_0, # of connection points: 2
#     Edge 140, Type (0, 1), BuildingBlock: OJICUG_clean_linker_0, # of connection points: 2
#     Edge 141, Type (0, 1), BuildingBlock: OJICUG_clean_linker_0, # of connection points: 2
#     Edge 142, Type (0, 1), BuildingBlock: OJICUG_clean_linker_0, # of connection points: 2
#     Edge 143, Type (0, 1), BuildingBlock: OJICUG_clean_linker_0, # of connection points: 2
#     Edge 144, Type (0, 1), BuildingBlock: OJICUG_clean_linker_0, # of connection points: 2
#     Edge 145, Type (0, 1), BuildingBlock: OJICUG_clean_linker_0, # of connection points: 2
#     Edge 146, Type (0, 1), BuildingBlock: OJICUG_clean_linker_0, # of connection points: 2
#     Edge 147, Type (0, 1), BuildingBlock: OJICUG_clean_linker_0, # of connection points: 2
#     Edge 148, Type (0, 1), BuildingBlock: OJICUG_clean_linker_0, # of connection points: 2
#     Edge 149, Type (0, 1), BuildingBlock: OJICUG_clean_linker_0, # of connection points: 2
#     Edge 150, Type (0, 1), BuildingBlock: OJICUG_clean_linker_0, # of connection points: 2
#     Edge 151, Type (0, 1), BuildingBlock: OJICUG_clean_linker_0, # of connection points: 2
# Relax obj value: 0.000
# Max RMSD: 0.055
# Mean RMSD: 0.026
data_MOF--net-tbo--node1-WUSLED_clean_sbu_0--node2-KUFVIS_clean_linker_0--edge1-OJICUG_clean_linker_0
_symmetry_space_group_name_H-M    P1
_symmetry_Int_Tables_number       1
_symmetry_cell_setting            triclinic
loop_
_symmetry_equiv_pos_as_xyz
'x, y, z'
_cell_length_a     73.471263
_cell_length_b     73.607235
_cell_length_c     73.46303
_cell_angle_alpha  89.739334
_cell_angle_beta   90.110399
_cell_angle_gamma 90.719027
loop_
_atom_site_label
_atom_site_type_symbol
_atom_site_fract_x
_atom_site_fract_y
_atom_site_fract_z
_atom_type_partial_charge
C0 C 0.19047 0.14171 0.21403 0.0
C1 C 0.20822 0.13853 0.20786 0.0
C2 C 0.21128 0.11353 0.22958 0.0
C3 C 0.21854 0.12451 0.21554 0.0
C4 C 0.19321 0.11636 0.23512 0.0
C5 C 0.18294 0.13031 0.22743 0.0
U6 U 0.18148 0.18216 0.18171 0.0
O7 O 0.1553 0.19285 0.17197 0.0
O8 O 0.1733 0.20992 0.1887 0.0
C9 C 0.15731 0.20824 0.18082 0.0
C10 C 0.17996 0.15747 0.20768 0.0
C11 C 0.1417 0.214 0.19189 0.0
C12 C 0.12074 0.20933 0.21713 0.0
C13 C 0.13484 0.20307 0.20606 0.0
C14 C 0.11999 0.23736 0.19979 0.0
C15 C 0.11328 0.22669 0.2143 0.0
C16 C 0.13405 0.23107 0.18873 0.0
C17 C 0.21376 0.19258 0.14178 0.0
C18 C 0.20979 0.21803 0.12098 0.0
C19 C 0.2374 0.20045 0.1199 0.0
C20 C 0.23079 0.18933 0.13396 0.0
C21 C 0.2271 0.21511 0.11335 0.0
C22 C 0.2032 0.2069 0.13509 0.0
C23 C 0.20766 0.1814 0.15736 0.0
O24 O 0.18804 0.17338 0.20955 0.0
O25 O 0.17141 0.15569 0.19204 0.0
O26 O 0.19202 0.17273 0.15538 0.0
O27 O 0.20948 0.18905 0.17339 0.0
H28 H 0.21428 0.14722 0.19752 0.0
H29 H 0.23244 0.1228 0.21107 0.0
H30 H 0.18712 0.10801 0.24571 0.0
H31 H 0.16924 0.1325 0.23232 0.0
H32 H 0.11579 0.20062 0.22801 0.0
H33 H 0.14058 0.18983 0.20872 0.0
H34 H 0.11485 0.25088 0.19734 0.0
H35 H 0.13923 0.23974 0.17791 0.0
H36 H 0.20137 0.22902 0.11616 0.0
H37 H 0.25088 0.19793 0.11461 0.0
H38 H 0.23916 0.17839 0.13902 0.0
H39 H 0.19 0.20962 0.14097 0.0
C40 C 0.8334 0.19252 0.14638 0.0
C41 C 0.84441 0.20699 0.14026 0.0
C42 C 0.82086 0.21594 0.11858 0.0
C43 C 0.83821 0.21858 0.12645 0.0
C44 C 0.81014 0.20109 0.12451 0.0
C45 C 0.81636 0.18952 0.13827 0.0
U46 U 0.86542 0.17978 0.18586 0.0
O47 O 0.85844 0.17162 0.21378 0.0
O48 O 0.8726 0.15252 0.19606 0.0
C49 C 0.86394 0.15485 0.21152 0.0
C50 C 0.83892 0.18098 0.16178 0.0
C51 C 0.851 0.14019 0.21709 0.0
C52 C 0.82229 0.13042 0.23073 0.0
C53 C 0.83391 0.14427 0.22452 0.0
C54 C 0.84434 0.10798 0.22195 0.0
C55 C 0.82734 0.11207 0.22963 0.0
C56 C 0.85605 0.12188 0.21582 0.0
C57 C 0.90804 0.20891 0.19602 0.0
C58 C 0.92576 0.20647 0.22391 0.0
C59 C 0.93376 0.2293 0.20137 0.0
C60 C 0.91946 0.2232 0.19028 0.0
C61 C 0.93693 0.22123 0.21848 0.0
C62 C 0.91144 0.20037 0.21278 0.0
C63 C 0.892 0.20403 0.18493 0.0
O64 O 0.85371 0.17139 0.15951 0.0
O65 O 0.83809 0.18868 0.17785 0.0
O66 O 0.87621 0.20686 0.19271 0.0
O67 O 0.89261 0.18848 0.17623 0.0
H68 H 0.85762 0.20951 0.14639 0.0
H69 H 0.84693 0.22974 0.12208 0.0
H70 H 0.79662 0.19876 0.11902 0.0
H71 H 0.80764 0.17845 0.1429 0.0
H72 H 0.80952 0.1342 0.2369 0.0
H73 H 0.82957 0.1582 0.22587 0.0
H74 H 0.84866 0.09403 0.22071 0.0
H75 H 0.86917 0.11833 0.21025 0.0
H76 H 0.92792 0.19979 0.23688 0.0
H77 H 0.94184 0.24086 0.19683 0.0
H78 H 0.91698 0.23002 0.17743 0.0
H79 H 0.90275 0.1893 0.21743 0.0
C80 C 0.83585 0.86203 0.14659 0.0
C81 C 0.84601 0.84726 0.14047 0.0
C82 C 0.82283 0.84029 0.11751 0.0
C83 C 0.83959 0.83651 0.12605 0.0
C84 C 0.81299 0.85545 0.12345 0.0
C85 C 0.81944 0.86617 0.13783 0.0
U86 U 0.86778 0.87172 0.18709 0.0
O87 O 0.87697 0.89789 0.1986 0.0
O88 O 0.86094 0.87881 0.21528 0.0
C89 C 0.86874 0.89493 0.21423 0.0
C90 C 0.84161 0.87271 0.1626 0.0
C91 C 0.8582 0.91003 0.22174 0.0
C92 C 0.83234 0.93036 0.22113 0.0
C93 C 0.84273 0.9168 0.2129 0.0
C94 C 0.85299 0.93067 0.24687 0.0
C95 C 0.8372 0.93723 0.23837 0.0
C96 C 0.86337 0.91723 0.23862 0.0
C97 C 0.90855 0.84138 0.19692 0.0
C98 C 0.92678 0.84459 0.22444 0.0
C99 C 0.93287 0.82019 0.20339 0.0
C100 C 0.91884 0.82627 0.19206 0.0
C101 C 0.93688 0.82911 0.21987 0.0
C102 C 0.91274 0.85066 0.21308 0.0
C103 C 0.89294 0.84668 0.18553 0.0
O104 O 0.84003 0.8643 0.17834 0.0
O105 O 0.85695 0.88197 0.16103 0.0
O106 O 0.89439 0.86246 0.17717 0.0
O107 O 0.87689 0.84397 0.19299 0.0
H108 H 0.85874 0.84385 0.14706 0.0
H109 H 0.84766 0.82511 0.12173 0.0
H110 H 0.79994 0.85865 0.11746 0.0
H111 H 0.81137 0.87748 0.14242 0.0
H112 H 0.82016 0.935 0.21431 0.0
H113 H 0.8385 0.91134 0.19987 0.0
H114 H 0.85723 0.9358 0.26003 0.0
H115 H 0.87529 0.9122 0.24563 0.0
H116 H 0.9296 0.85191 0.2369 0.0
H117 H 0.9401 0.80808 0.19954 0.0
H118 H 0.91574 0.81889 0.17969 0.0
H119 H 0.90493 0.86238 0.21705 0.0
C120 C 0.13999 0.83746 0.19303 0.0
C121 C 0.13397 0.84541 0.20924 0.0
C122 C 0.11137 0.82109 0.21312 0.0
C123 C 0.11972 0.83732 0.21918 0.0
C124 C 0.11714 0.81357 0.19657 0.0
C125 C 0.1313 0.82168 0.18664 0.0
U126 U 0.17969 0.87155 0.18578 0.0
O127 O 0.20802 0.86585 0.17841 0.0
O128 O 0.19112 0.88206 0.16003 0.0
C129 C 0.20668 0.87372 0.16239 0.0
C130 C 0.15592 0.84467 0.1831 0.0
C131 C 0.21304 0.86275 0.147 0.0
C132 C 0.21003 0.83633 0.12743 0.0
C133 C 0.20305 0.84753 0.14104 0.0
C134 C 0.23682 0.85573 0.12525 0.0
C135 C 0.22716 0.84011 0.11958 0.0
C136 C 0.22982 0.86692 0.13885 0.0
C137 C 0.18841 0.91104 0.21844 0.0
C138 C 0.21363 0.93237 0.21436 0.0
C139 C 0.19644 0.93233 0.24245 0.0
C140 C 0.18533 0.91829 0.23575 0.0
C141 C 0.21092 0.9394 0.23195 0.0
C142 C 0.20252 0.91828 0.2077 0.0
C143 C 0.17744 0.89537 0.21222 0.0
O144 O 0.15393 0.8604 0.17484 0.0
O145 O 0.17157 0.8433 0.19166 0.0
O146 O 0.18527 0.87952 0.21409 0.0
O147 O 0.16915 0.89728 0.19645 0.0
H148 H 0.14059 0.85758 0.21441 0.0
H149 H 0.11574 0.84336 0.23196 0.0
H150 H 0.11087 0.80123 0.19141 0.0
H151 H 0.13575 0.81538 0.17414 0.0
H152 H 0.20211 0.82457 0.12324 0.0
H153 H 0.19006 0.84409 0.14719 0.0
H154 H 0.25013 0.85895 0.11972 0.0
H155 H 0.23775 0.87857 0.14335 0.0
H156 H 0.22448 0.93761 0.20578 0.0
H157 H 0.19409 0.93718 0.25613 0.0
H158 H 0.17456 0.91279 0.24428 0.0
H159 H 0.20514 0.91283 0.19429 0.0
C160 C 0.13784 0.83361 0.86597 0.0
C161 C 0.13411 0.84122 0.84883 0.0
C162 C 0.11021 0.81845 0.84373 0.0
C163 C 0.12034 0.83373 0.83781 0.0
C164 C 0.11363 0.81136 0.86121 0.0
C165 C 0.12731 0.81887 0.87219 0.0
U166 U 0.17814 0.866 0.87656 0.0
O167 O 0.18811 0.87556 0.90321 0.0
O168 O 0.20565 0.85911 0.88588 0.0
C169 C 0.2035 0.86675 0.90185 0.0
C170 C 0.1533 0.83997 0.87713 0.0
C171 C 0.20856 0.85541 0.91759 0.0
C172 C 0.20522 0.82778 0.93564 0.0
C173 C 0.19928 0.83907 0.92146 0.0
C174 C 0.22944 0.84932 0.9425 0.0
C175 C 0.22055 0.83265 0.94619 0.0
C176 C 0.2235 0.86056 0.92834 0.0
C177 C 0.18993 0.90597 0.84481 0.0
C178 C 0.21727 0.92462 0.84825 0.0
C179 C 0.19701 0.92969 0.82273 0.0
C180 C 0.18554 0.91572 0.82903 0.0
C181 C 0.21317 0.93418 0.83212 0.0
C182 C 0.20575 0.91062 0.85453 0.0
C183 C 0.17833 0.89045 0.85036 0.0
O184 O 0.16944 0.8382 0.86971 0.0
O185 O 0.15132 0.85556 0.8855 0.0
O186 O 0.16921 0.89236 0.8656 0.0
O187 O 0.18584 0.87443 0.84886 0.0
H188 H 0.14215 0.85261 0.84379 0.0
H189 H 0.11815 0.83942 0.82437 0.0
H190 H 0.10593 0.79977 0.86629 0.0
H191 H 0.12997 0.81285 0.8854 0.0
H192 H 0.19793 0.81515 0.9382 0.0
H193 H 0.18768 0.83489 0.91329 0.0
H194 H 0.24144 0.85339 0.9501 0.0
H195 H 0.23088 0.87309 0.92549 0.0
H196 H 0.22948 0.92783 0.85594 0.0
H197 H 0.19353 0.9365 0.81013 0.0
H198 H 0.17341 0.91225 0.8213 0.0
H199 H 0.20935 0.90323 0.86678 0.0
C200 C 0.13546 0.19169 0.84152 0.0
C201 C 0.13362 0.20871 0.8498 0.0
C202 C 0.10785 0.21559 0.82997 0.0
C203 C 0.11993 0.22056 0.84408 0.0
C204 C 0.10945 0.19823 0.82219 0.0
C205 C 0.12313 0.18644 0.82791 0.0
U206 U 0.17767 0.17934 0.86969 0.0
O207 O 0.18759 0.15245 0.87829 0.0
O208 O 0.20424 0.16974 0.86031 0.0
C209 C 0.20237 0.15381 0.8683 0.0
C210 C 0.15078 0.17973 0.84602 0.0
C211 C 0.20681 0.13796 0.857 0.0
C212 C 0.20449 0.12092 0.82875 0.0
C213 C 0.19875 0.13519 0.83988 0.0
C214 C 0.22594 0.11173 0.85199 0.0
C215 C 0.21839 0.10917 0.83454 0.0
C216 C 0.22021 0.12597 0.86306 0.0
C217 C 0.19345 0.21092 0.90884 0.0
C218 C 0.22242 0.22416 0.91856 0.0
C219 C 0.19868 0.21858 0.94073 0.0
C220 C 0.18739 0.21161 0.92696 0.0
C221 C 0.2163 0.22516 0.93669 0.0
C222 C 0.21118 0.21711 0.90485 0.0
C223 C 0.1807 0.20516 0.89418 0.0
O224 O 0.16703 0.18662 0.8427 0.0
O225 O 0.14983 0.17108 0.8617 0.0
O226 O 0.1713 0.19008 0.89696 0.0
O227 O 0.18659 0.20683 0.87736 0.0
H228 H 0.14303 0.21299 0.86036 0.0
H229 H 0.11899 0.23372 0.85051 0.0
H230 H 0.10063 0.19402 0.81113 0.0
H231 H 0.1244 0.17338 0.82131 0.0
H232 H 0.19822 0.11926 0.8155 0.0
H233 H 0.18834 0.14429 0.83497 0.0
H234 H 0.23685 0.10322 0.85684 0.0
H235 H 0.22665 0.12793 0.8762 0.0
H236 H 0.23572 0.22939 0.91476 0.0
H237 H 0.19354 0.2189 0.95453 0.0
H238 H 0.17374 0.20706 0.93043 0.0
H239 H 0.21631 0.21694 0.89104 0.0
C240 C 0.83504 0.14334 0.86826 0.0
C241 C 0.84525 0.1379 0.85317 0.0
C242 C 0.82223 0.11487 0.84572 0.0
C243 C 0.83892 0.12377 0.84202 0.0
C244 C 0.81236 0.12007 0.86122 0.0
C245 C 0.81871 0.13419 0.87235 0.0
U246 U 0.8666 0.18405 0.87738 0.0
O247 O 0.85982 0.21197 0.88512 0.0
O248 O 0.87659 0.1954 0.90332 0.0
C249 C 0.86783 0.21072 0.90108 0.0
C250 C 0.84068 0.15915 0.87922 0.0
C251 C 0.85691 0.21686 0.91664 0.0
C252 C 0.83054 0.21386 0.93643 0.0
C253 C 0.84149 0.20706 0.92249 0.0
C254 C 0.85057 0.2401 0.93908 0.0
C255 C 0.8348 0.23063 0.94474 0.0
C256 C 0.86149 0.23328 0.92517 0.0
C257 C 0.90609 0.19389 0.84434 0.0
C258 C 0.92586 0.22055 0.84645 0.0
C259 C 0.92842 0.20029 0.82071 0.0
C260 C 0.91455 0.18927 0.82796 0.0
C261 C 0.93411 0.21622 0.82972 0.0
C262 C 0.91195 0.2095 0.85367 0.0
C263 C 0.89063 0.18279 0.85093 0.0
O264 O 0.8563 0.15778 0.88787 0.0
O265 O 0.83865 0.17498 0.8712 0.0
O266 O 0.87458 0.19029 0.84919 0.0
O267 O 0.89283 0.17459 0.8667 0.0
H268 H 0.85791 0.14483 0.8498 0.0
H269 H 0.847 0.11999 0.83035 0.0
H270 H 0.79935 0.11374 0.86436 0.0
H271 H 0.81061 0.13827 0.8839 0.0
H272 H 0.81864 0.20608 0.94057 0.0
H273 H 0.83774 0.19433 0.91605 0.0
H274 H 0.85415 0.25315 0.94492 0.0
H275 H 0.87331 0.24107 0.92076 0.0
H276 H 0.93003 0.23257 0.85388 0.0
H277 H 0.93421 0.19665 0.8077 0.0
H278 H 0.91013 0.17731 0.82052 0.0
H279 H 0.90556 0.21328 0.86636 0.0
C280 C 0.86269 0.91123 0.8395 0.0
C281 C 0.84629 0.91648 0.84758 0.0
C282 C 0.84249 0.94015 0.82449 0.0
C283 C 0.83629 0.93088 0.84016 0.0
C284 C 0.85925 0.93515 0.81687 0.0
C285 C 0.86922 0.92086 0.82431 0.0
U286 U 0.87115 0.87053 0.87189 0.0
O287 O 0.87844 0.84259 0.86468 0.0
O288 O 0.89727 0.85919 0.88097 0.0
C289 C 0.89463 0.84384 0.87222 0.0
C290 C 0.87272 0.89517 0.84585 0.0
C291 C 0.90981 0.8376 0.86088 0.0
C292 C 0.92999 0.8412 0.83488 0.0
C293 C 0.91627 0.84796 0.84612 0.0
C294 C 0.93111 0.81381 0.85323 0.0
C295 C 0.93744 0.82392 0.83815 0.0
C296 C 0.91744 0.8206 0.86445 0.0
C297 C 0.84025 0.86008 0.91263 0.0
C298 C 0.84188 0.83181 0.92982 0.0
C299 C 0.81976 0.85445 0.93804 0.0
C300 C 0.82614 0.86574 0.924 0.0
C301 C 0.82736 0.83721 0.94098 0.0
C302 C 0.84827 0.84315 0.91577 0.0
C303 C 0.84579 0.87158 0.89706 0.0
O304 O 0.88158 0.89676 0.86134 0.0
O305 O 0.86408 0.87952 0.84423 0.0
O306 O 0.84326 0.86427 0.88096 0.0
O307 O 0.86158 0.88003 0.8986 0.0
H308 H 0.841 0.90916 0.85929 0.0
H309 H 0.82336 0.93426 0.84626 0.0
H310 H 0.86453 0.94213 0.80495 0.0
H311 H 0.88187 0.91702 0.81791 0.0
H312 H 0.93465 0.84946 0.82354 0.0
H313 H 0.91052 0.86113 0.84315 0.0
H314 H 0.93625 0.80037 0.85603 0.0
H315 H 0.91255 0.81237 0.87574 0.0
H316 H 0.84818 0.81873 0.9318 0.0
H317 H 0.8084 0.85897 0.94615 0.0
H318 H 0.81974 0.87874 0.92174 0.0
H319 H 0.85923 0.83856 0.90715 0.0
C320 C 0.19077 0.64029 0.71415 0.0
C321 C 0.20878 0.63783 0.70837 0.0
C322 C 0.212 0.61226 0.72939 0.0
C323 C 0.21931 0.62388 0.7159 0.0
C324 C 0.19371 0.61438 0.73451 0.0
C325 C 0.18323 0.62824 0.72697 0.0
U326 U 0.18022 0.68111 0.68255 0.0
O327 O 0.15351 0.69118 0.67364 0.0
O328 O 0.1714 0.70846 0.69028 0.0
C329 C 0.15529 0.70645 0.68272 0.0
C330 C 0.17995 0.65596 0.70811 0.0
C331 C 0.13976 0.71155 0.69421 0.0
C332 C 0.12028 0.70665 0.72057 0.0
C333 C 0.1344 0.70092 0.70922 0.0
C334 C 0.11655 0.73349 0.70182 0.0
C335 C 0.11129 0.72314 0.71713 0.0
C336 C 0.13063 0.72775 0.6905 0.0
C337 C 0.211 0.69328 0.64193 0.0
C338 C 0.20819 0.72113 0.62421 0.0
C339 C 0.23193 0.69979 0.61708 0.0
C340 C 0.2258 0.68835 0.63111 0.0
C341 C 0.22337 0.71646 0.61357 0.0
C342 C 0.20206 0.70964 0.63827 0.0
C343 C 0.2057 0.68162 0.65745 0.0
O344 O 0.18775 0.672 0.71004 0.0
O345 O 0.17111 0.65421 0.69262 0.0
O346 O 0.1903 0.6725 0.65573 0.0
O347 O 0.20776 0.68897 0.6736 0.0
H348 H 0.21486 0.64702 0.69848 0.0
H349 H 0.23338 0.62271 0.71176 0.0
H350 H 0.18758 0.60553 0.74467 0.0
H351 H 0.16934 0.62988 0.73156 0.0
H352 H 0.11649 0.69822 0.73211 0.0
H353 H 0.14131 0.68836 0.7123 0.0
H354 H 0.11023 0.74639 0.69889 0.0
H355 H 0.13465 0.73618 0.67903 0.0
H356 H 0.20114 0.73375 0.6218 0.0
H357 H 0.24381 0.69584 0.60942 0.0
H358 H 0.23292 0.67581 0.63378 0.0
H359 H 0.19057 0.71366 0.64648 0.0
C360 C 0.83184 0.68932 0.6453 0.0
C361 C 0.8405 0.70531 0.63918 0.0
C362 C 0.81618 0.7101 0.61706 0.0
C363 C 0.83276 0.71559 0.62511 0.0
C364 C 0.80795 0.69372 0.62287 0.0
C365 C 0.81572 0.68345 0.63685 0.0
U366 U 0.86568 0.68101 0.68457 0.0
O367 O 0.85969 0.67457 0.71316 0.0
O368 O 0.87431 0.65491 0.69652 0.0
C369 C 0.86576 0.65789 0.71192 0.0
C370 C 0.83855 0.67924 0.66124 0.0
C371 C 0.85332 0.64323 0.71863 0.0
C372 C 0.82648 0.63369 0.7358 0.0
C373 C 0.83793 0.64743 0.72909 0.0
C374 C 0.84551 0.61103 0.72196 0.0
C375 C 0.83006 0.61529 0.73233 0.0
C376 C 0.85702 0.62484 0.71522 0.0
C377 C 0.90698 0.71335 0.69106 0.0
C378 C 0.92671 0.71374 0.71771 0.0
C379 C 0.93064 0.73652 0.69411 0.0
C380 C 0.9164 0.72856 0.68419 0.0
C381 C 0.93578 0.72942 0.71114 0.0
C382 C 0.91237 0.7058 0.70777 0.0
C383 C 0.89089 0.70649 0.68113 0.0
O384 O 0.85379 0.67033 0.65913 0.0
O385 O 0.83775 0.68797 0.67676 0.0
O386 O 0.87521 0.70902 0.68924 0.0
O387 O 0.89219 0.69034 0.6737 0.0
H388 H 0.85294 0.71008 0.64563 0.0
H389 H 0.83935 0.72822 0.62108 0.0
H390 H 0.79531 0.689 0.61681 0.0
H391 H 0.80885 0.67113 0.64139 0.0
H392 H 0.815 0.63752 0.74411 0.0
H393 H 0.83475 0.66139 0.73229 0.0
H394 H 0.84867 0.59703 0.71897 0.0
H395 H 0.86887 0.62111 0.7074 0.0
H396 H 0.9302 0.70804 0.73086 0.0
H397 H 0.93746 0.74844 0.68856 0.0
H398 H 0.91243 0.73457 0.67131 0.0
H399 H 0.90518 0.6941 0.71334 0.0
C400 C 0.83516 0.36325 0.64593 0.0
C401 C 0.84623 0.34944 0.63915 0.0
C402 C 0.82287 0.34117 0.6168 0.0
C403 C 0.84016 0.33854 0.6247 0.0
C404 C 0.81207 0.35534 0.62343 0.0
C405 C 0.81816 0.36624 0.63784 0.0
U406 U 0.86668 0.37319 0.6866 0.0
O407 O 0.87592 0.39939 0.69801 0.0
O408 O 0.85968 0.38048 0.7147 0.0
C409 C 0.86758 0.39656 0.71361 0.0
C410 C 0.8407 0.37408 0.66191 0.0
C411 C 0.85711 0.41177 0.72101 0.0
C412 C 0.83137 0.43224 0.72028 0.0
C413 C 0.84168 0.41857 0.71214 0.0
C414 C 0.85203 0.43259 0.74601 0.0
C415 C 0.83627 0.43918 0.73749 0.0
C416 C 0.86233 0.41905 0.73785 0.0
C417 C 0.90727 0.34263 0.69675 0.0
C418 C 0.9254 0.34565 0.72436 0.0
C419 C 0.9315 0.32135 0.70321 0.0
C420 C 0.91754 0.32752 0.69186 0.0
C421 C 0.93547 0.33017 0.71975 0.0
C422 C 0.91142 0.35182 0.71297 0.0
C423 C 0.89172 0.34802 0.68532 0.0
O424 O 0.83896 0.3658 0.67771 0.0
O425 O 0.85605 0.38335 0.66044 0.0
O426 O 0.89331 0.36376 0.6769 0.0
O427 O 0.87563 0.34544 0.69272 0.0
H428 H 0.85941 0.34691 0.64522 0.0
H429 H 0.84896 0.32792 0.61983 0.0
H430 H 0.79859 0.35763 0.61795 0.0
H431 H 0.80939 0.37678 0.64295 0.0
H432 H 0.81921 0.43691 0.71344 0.0
H433 H 0.83741 0.41305 0.69914 0.0
H434 H 0.8563 0.43778 0.75914 0.0
H435 H 0.87423 0.41399 0.74488 0.0
H436 H 0.92818 0.3529 0.73687 0.0
H437 H 0.93872 0.30923 0.69932 0.0
H438 H 0.91447 0.3202 0.67944 0.0
H439 H 0.90362 0.36354 0.71697 0.0
C440 C 0.13929 0.33734 0.69352 0.0
C441 C 0.13333 0.34523 0.70978 0.0
C442 C 0.11033 0.32124 0.71336 0.0
C443 C 0.11892 0.33727 0.7196 0.0
C444 C 0.11604 0.31378 0.69675 0.0
C445 C 0.13036 0.32176 0.68695 0.0
U446 U 0.17943 0.37099 0.68654 0.0
O447 O 0.20773 0.36499 0.67928 0.0
O448 O 0.1911 0.38143 0.66086 0.0
C449 C 0.20657 0.37295 0.66329 0.0
C450 C 0.15536 0.34439 0.6837 0.0
C451 C 0.213 0.36205 0.64789 0.0
C452 C 0.21028 0.33561 0.62832 0.0
C453 C 0.2032 0.34671 0.64196 0.0
C454 C 0.23681 0.35536 0.62606 0.0
C455 C 0.22734 0.33962 0.6204 0.0
C456 C 0.2297 0.36644 0.63969 0.0
C457 C 0.1885 0.41037 0.71921 0.0
C458 C 0.21396 0.43141 0.71513 0.0
C459 C 0.19676 0.4316 0.74321 0.0
C460 C 0.18549 0.41767 0.73652 0.0
C461 C 0.21131 0.4385 0.7327 0.0
C462 C 0.2027 0.41744 0.70847 0.0
C463 C 0.17735 0.39482 0.71298 0.0
O464 O 0.1536 0.36015 0.67545 0.0
O465 O 0.17094 0.34282 0.69234 0.0
O466 O 0.18498 0.37888 0.71487 0.0
O467 O 0.16913 0.39683 0.69719 0.0
H468 H 0.14012 0.35724 0.71508 0.0
H469 H 0.11499 0.34325 0.73242 0.0
H470 H 0.1096 0.30159 0.69145 0.0
H471 H 0.13476 0.3155 0.67441 0.0
H472 H 0.2025 0.32375 0.62414 0.0
H473 H 0.19027 0.34311 0.64815 0.0
H474 H 0.25006 0.35875 0.62048 0.0
H475 H 0.2375 0.37819 0.64416 0.0
H476 H 0.22486 0.43653 0.70655 0.0
H477 H 0.19445 0.43649 0.75688 0.0
H478 H 0.17465 0.4123 0.74505 0.0
H479 H 0.20526 0.41195 0.69507 0.0
C480 C 0.13908 0.33173 0.36749 0.0
C481 C 0.13346 0.34031 0.35137 0.0
C482 C 0.1115 0.31578 0.34575 0.0
C483 C 0.11971 0.33242 0.34061 0.0
C484 C 0.11688 0.30758 0.3622 0.0
C485 C 0.13052 0.31549 0.37294 0.0
U486 U 0.17862 0.36542 0.37736 0.0
O487 O 0.18838 0.37547 0.40391 0.0
O488 O 0.20628 0.35924 0.38673 0.0
C489 C 0.20393 0.36692 0.40265 0.0
C490 C 0.15443 0.33879 0.37836 0.0
C491 C 0.20905 0.35569 0.41844 0.0
C492 C 0.2057 0.32816 0.43662 0.0
C493 C 0.19972 0.33941 0.42244 0.0
C494 C 0.23007 0.34962 0.44323 0.0
C495 C 0.22113 0.333 0.44704 0.0
C496 C 0.22408 0.36082 0.42906 0.0
C497 C 0.18987 0.40525 0.34538 0.0
C498 C 0.21697 0.42423 0.34901 0.0
C499 C 0.197 0.42886 0.32318 0.0
C500 C 0.18558 0.41483 0.32945 0.0
C501 C 0.21299 0.4336 0.33273 0.0
C502 C 0.20552 0.41017 0.35526 0.0
C503 C 0.17841 0.38962 0.35093 0.0
O504 O 0.17055 0.33734 0.37085 0.0
O505 O 0.15206 0.35448 0.38645 0.0
O506 O 0.16919 0.39148 0.36611 0.0
O507 O 0.18616 0.37369 0.34957 0.0
H508 H 0.13998 0.35284 0.34692 0.0
H509 H 0.116 0.33899 0.32793 0.0
H510 H 0.11069 0.29489 0.36666 0.0
H511 H 0.13467 0.30869 0.38536 0.0
H512 H 0.19838 0.31557 0.43928 0.0
H513 H 0.18806 0.33524 0.41436 0.0
H514 H 0.24215 0.35367 0.45073 0.0
H515 H 0.2315 0.3733 0.4261 0.0
H516 H 0.22904 0.42762 0.35682 0.0
H517 H 0.19362 0.43554 0.31047 0.0
H518 H 0.1736 0.41116 0.3216 0.0
H519 H 0.20904 0.40292 0.36762 0.0
C520 C 0.13753 0.69171 0.34197 0.0
C521 C 0.13557 0.70875 0.3502 0.0
C522 C 0.10992 0.71552 0.33016 0.0
C523 C 0.12189 0.72055 0.34435 0.0
C524 C 0.11168 0.69817 0.32239 0.0
C525 C 0.12535 0.68643 0.32824 0.0
U526 U 0.17865 0.67873 0.37148 0.0
O527 O 0.18792 0.65165 0.38018 0.0
O528 O 0.20547 0.66895 0.36308 0.0
C529 C 0.20308 0.65294 0.37076 0.0
C530 C 0.15271 0.67969 0.34679 0.0
C531 C 0.20763 0.63722 0.35935 0.0
C532 C 0.20511 0.62025 0.33107 0.0
C533 C 0.19939 0.63443 0.34232 0.0
C534 C 0.22694 0.61121 0.35403 0.0
C535 C 0.21918 0.60861 0.33667 0.0
C536 C 0.22122 0.62535 0.36521 0.0
C537 C 0.19263 0.70945 0.41163 0.0
C538 C 0.22109 0.707 0.42839 0.0
C539 C 0.19947 0.73017 0.43645 0.0
C540 C 0.18772 0.72399 0.42276 0.0
C541 C 0.21644 0.72194 0.43932 0.0
C542 C 0.20929 0.70081 0.41467 0.0
C543 C 0.1806 0.70423 0.39641 0.0
O544 O 0.16908 0.68662 0.34425 0.0
O545 O 0.15113 0.67072 0.36224 0.0
O546 O 0.17108 0.68913 0.39851 0.0
O547 O 0.18772 0.70594 0.38009 0.0
H548 H 0.14484 0.71305 0.36088 0.0
H549 H 0.12083 0.7337 0.35077 0.0
H550 H 0.10295 0.69391 0.31127 0.0
H551 H 0.1267 0.67335 0.32168 0.0
H552 H 0.1987 0.61856 0.3179 0.0
H553 H 0.18882 0.64344 0.33757 0.0
H554 H 0.23799 0.60277 0.35871 0.0
H555 H 0.22779 0.62734 0.37828 0.0
H556 H 0.23395 0.70021 0.43033 0.0
H557 H 0.19551 0.74187 0.44433 0.0
H558 H 0.17495 0.73087 0.42056 0.0
H559 H 0.2133 0.68953 0.40621 0.0
C560 C 0.83598 0.64325 0.36778 0.0
C561 C 0.84535 0.63849 0.35192 0.0
C562 C 0.82249 0.61506 0.34527 0.0
C563 C 0.83869 0.62451 0.34078 0.0
C564 C 0.8135 0.61957 0.36151 0.0
C565 C 0.82018 0.63355 0.37263 0.0
U566 U 0.86806 0.68354 0.37713 0.0
O567 O 0.8616 0.71148 0.38507 0.0
O568 O 0.87814 0.69459 0.40316 0.0
C569 C 0.86953 0.71001 0.40104 0.0
C570 C 0.84187 0.65892 0.37881 0.0
C571 C 0.85856 0.71605 0.4166 0.0
C572 C 0.83192 0.71311 0.43602 0.0
C573 C 0.84297 0.70635 0.42214 0.0
C574 C 0.85219 0.7391 0.43924 0.0
C575 C 0.83623 0.72974 0.44456 0.0
C576 C 0.86322 0.73232 0.42539 0.0
C577 C 0.90763 0.69325 0.3442 0.0
C578 C 0.92754 0.71978 0.34651 0.0
C579 C 0.93003 0.69967 0.32065 0.0
C580 C 0.9161 0.68868 0.3278 0.0
C581 C 0.93579 0.71552 0.32977 0.0
C582 C 0.91356 0.70876 0.35364 0.0
C583 C 0.89207 0.68223 0.35067 0.0
O584 O 0.85748 0.65728 0.38741 0.0
O585 O 0.84002 0.67483 0.3709 0.0
O586 O 0.8761 0.68988 0.34898 0.0
O587 O 0.89419 0.67388 0.36638 0.0
H588 H 0.8576 0.64584 0.34797 0.0
H589 H 0.84609 0.62127 0.3285 0.0
H590 H 0.80088 0.61281 0.36529 0.0
H591 H 0.81272 0.6371 0.38479 0.0
H592 H 0.81987 0.70542 0.4399 0.0
H593 H 0.83916 0.69374 0.4155 0.0
H594 H 0.85582 0.75204 0.44528 0.0
H595 H 0.87517 0.74003 0.42122 0.0
H596 H 0.93176 0.73174 0.35402 0.0
H597 H 0.93582 0.69609 0.30763 0.0
H598 H 0.91162 0.6768 0.32028 0.0
H599 H 0.90717 0.7125 0.36634 0.0
C600 C 0.86036 0.41219 0.33892 0.0
C601 C 0.84619 0.41823 0.35005 0.0
C602 C 0.83755 0.4406 0.32699 0.0
C603 C 0.83492 0.43233 0.34416 0.0
C604 C 0.85209 0.43471 0.31613 0.0
C605 C 0.86335 0.42066 0.32205 0.0
U606 U 0.8719 0.37152 0.36985 0.0
O607 O 0.88035 0.34408 0.36211 0.0
O608 O 0.89874 0.36133 0.37826 0.0
C609 C 0.89662 0.34599 0.36936 0.0
C610 C 0.87165 0.39661 0.34422 0.0
C611 C 0.9119 0.34053 0.3577 0.0
C612 C 0.92919 0.34283 0.32955 0.0
C613 C 0.91542 0.34919 0.34099 0.0
C614 C 0.93631 0.31943 0.35163 0.0
C615 C 0.93967 0.3277 0.33461 0.0
C616 C 0.92258 0.32579 0.36302 0.0
C617 C 0.84166 0.35979 0.41111 0.0
C618 C 0.84427 0.33197 0.4289 0.0
C619 C 0.82093 0.35368 0.43623 0.0
C620 C 0.82706 0.36498 0.42209 0.0
C621 C 0.82927 0.33689 0.43969 0.0
C622 C 0.8504 0.34332 0.41473 0.0
C623 C 0.84687 0.37131 0.39544 0.0
O624 O 0.88093 0.39827 0.35946 0.0
O625 O 0.86383 0.38057 0.34245 0.0
O626 O 0.84449 0.36388 0.37936 0.0
O627 O 0.86239 0.38028 0.39685 0.0
H628 H 0.84367 0.41185 0.36314 0.0
H629 H 0.82403 0.43663 0.353 0.0
H630 H 0.85439 0.4405 0.30274 0.0
H631 H 0.87417 0.41612 0.31324 0.0
H632 H 0.9315 0.34966 0.31666 0.0
H633 H 0.90731 0.36063 0.33667 0.0
H634 H 0.94384 0.30759 0.35589 0.0
H635 H 0.92 0.31889 0.37583 0.0
H636 H 0.85115 0.31926 0.43127 0.0
H637 H 0.80919 0.35782 0.444 0.0
H638 H 0.82009 0.37761 0.41945 0.0
H639 H 0.86172 0.3391 0.4064 0.0
C640 C 0.69383 0.14124 0.71508 0.0
C641 C 0.71046 0.13777 0.70648 0.0
C642 C 0.71668 0.11341 0.72823 0.0
C643 C 0.72178 0.12399 0.71299 0.0
C644 C 0.69971 0.11664 0.73642 0.0
C645 C 0.68844 0.13043 0.72992 0.0
U646 U 0.68348 0.18117 0.68329 0.0
O647 O 0.65724 0.1916 0.67341 0.0
O648 O 0.67516 0.20898 0.68991 0.0
C649 C 0.65918 0.20712 0.68204 0.0
C650 C 0.68247 0.15664 0.70942 0.0
C651 C 0.64352 0.21301 0.69298 0.0
C652 C 0.62238 0.20863 0.71812 0.0
C653 C 0.63656 0.20224 0.70721 0.0
C654 C 0.62179 0.23649 0.70049 0.0
C655 C 0.61496 0.22597 0.71506 0.0
C656 C 0.63591 0.23007 0.68959 0.0
C657 C 0.71677 0.1903 0.64337 0.0
C658 C 0.71646 0.21673 0.62336 0.0
C659 C 0.74042 0.1946 0.62063 0.0
C660 C 0.73253 0.18434 0.63466 0.0
C661 C 0.73268 0.21109 0.615 0.0
C662 C 0.7086 0.20644 0.6375 0.0
C663 C 0.70983 0.17993 0.65914 0.0
O664 O 0.69012 0.17276 0.71124 0.0
O665 O 0.67366 0.15476 0.69393 0.0
O666 O 0.6941 0.17148 0.65706 0.0
O667 O 0.71146 0.18802 0.67497 0.0
H668 H 0.71484 0.14597 0.69497 0.0
H669 H 0.73464 0.12176 0.70622 0.0
H670 H 0.69543 0.10899 0.74832 0.0
H671 H 0.67568 0.13296 0.73678 0.0
H672 H 0.61735 0.20004 0.72905 0.0
H673 H 0.64226 0.18902 0.71005 0.0
H674 H 0.61668 0.24999 0.69786 0.0
H675 H 0.64117 0.23862 0.67871 0.0
H676 H 0.71026 0.22944 0.61947 0.0
H677 H 0.75276 0.18976 0.61434 0.0
H678 H 0.73901 0.17189 0.63899 0.0
H679 H 0.69644 0.21129 0.64413 0.0
C680 C 0.3359 0.18739 0.64755 0.0
C681 C 0.34606 0.20264 0.64185 0.0
C682 C 0.32217 0.2107 0.62023 0.0
C683 C 0.33928 0.21417 0.62829 0.0
C684 C 0.31231 0.19509 0.62568 0.0
C685 C 0.31912 0.18357 0.63923 0.0
U686 U 0.36927 0.17689 0.68614 0.0
O687 O 0.36377 0.16862 0.7144 0.0
O688 O 0.37913 0.15064 0.69649 0.0
C689 C 0.37142 0.15271 0.71248 0.0
C690 C 0.34209 0.17599 0.66282 0.0
C691 C 0.36082 0.13712 0.71953 0.0
C692 C 0.33448 0.1168 0.7185 0.0
C693 C 0.34505 0.13077 0.71068 0.0
C694 C 0.35557 0.11521 0.74383 0.0
C695 C 0.33947 0.10909 0.73534 0.0
C696 C 0.36613 0.12908 0.73599 0.0
C697 C 0.40997 0.20843 0.69504 0.0
C698 C 0.42839 0.20592 0.72245 0.0
C699 C 0.43476 0.22987 0.70056 0.0
C700 C 0.42052 0.22346 0.68957 0.0
C701 C 0.43869 0.22138 0.71731 0.0
C702 C 0.41416 0.19951 0.71141 0.0
C703 C 0.39402 0.20291 0.68414 0.0
O704 O 0.35738 0.16725 0.66031 0.0
O705 O 0.34108 0.18358 0.67892 0.0
O706 O 0.37826 0.20477 0.6923 0.0
O707 O 0.39534 0.18746 0.67537 0.0
H708 H 0.35907 0.2058 0.64814 0.0
H709 H 0.34735 0.22592 0.62428 0.0
H710 H 0.299 0.19211 0.62 0.0
H711 H 0.31104 0.17191 0.64353 0.0
H712 H 0.32206 0.11252 0.71171 0.0
H713 H 0.34071 0.1369 0.69798 0.0
H714 H 0.3599 0.10943 0.75669 0.0
H715 H 0.37827 0.13381 0.743 0.0
H716 H 0.43117 0.19894 0.73514 0.0
H717 H 0.4422 0.24194 0.69628 0.0
H718 H 0.41742 0.23056 0.677 0.0
H719 H 0.40616 0.18785 0.71584 0.0
C720 C 0.33918 0.85775 0.64279 0.0
C721 C 0.34837 0.84164 0.6389 0.0
C722 C 0.32726 0.83518 0.61394 0.0
C723 C 0.34248 0.83046 0.6246 0.0
C724 C 0.31846 0.85164 0.61765 0.0
C725 C 0.32436 0.86278 0.63193 0.0
U726 U 0.36921 0.86842 0.68427 0.0
O727 O 0.37837 0.8949 0.69517 0.0
O728 O 0.36127 0.8767 0.71179 0.0
C729 C 0.3692 0.89274 0.7104 0.0
C730 C 0.34421 0.86899 0.65861 0.0
C731 C 0.35829 0.90827 0.71646 0.0
C732 C 0.33004 0.92525 0.71698 0.0
C733 C 0.34077 0.91148 0.70956 0.0
C734 C 0.35449 0.93308 0.73778 0.0
C735 C 0.33664 0.93594 0.73149 0.0
C736 C 0.36517 0.9194 0.73035 0.0
C737 C 0.40911 0.83675 0.69571 0.0
C738 C 0.4288 0.84024 0.72215 0.0
C739 C 0.43153 0.81378 0.70293 0.0
C740 C 0.41765 0.82034 0.69172 0.0
C741 C 0.4372 0.82354 0.71843 0.0
C742 C 0.41486 0.84678 0.71091 0.0
C743 C 0.39379 0.84271 0.68424 0.0
O744 O 0.34175 0.8612 0.67456 0.0
O745 O 0.35973 0.87799 0.65744 0.0
O746 O 0.39596 0.85831 0.67568 0.0
O747 O 0.37756 0.84071 0.6915 0.0
H748 H 0.35988 0.83755 0.64713 0.0
H749 H 0.3497 0.818 0.62203 0.0
H750 H 0.30654 0.85561 0.60997 0.0
H751 H 0.31705 0.87514 0.63478 0.0
H752 H 0.31632 0.92701 0.71191 0.0
H753 H 0.33521 0.903 0.69883 0.0
H754 H 0.36008 0.94121 0.74875 0.0
H755 H 0.37867 0.91718 0.73582 0.0
H756 H 0.43292 0.84824 0.73383 0.0
H757 H 0.4374 0.80075 0.69977 0.0
H758 H 0.41332 0.81236 0.68009 0.0
H759 H 0.40842 0.8595 0.7142 0.0
C760 C 0.64009 0.84003 0.69461 0.0
C761 C 0.63721 0.84556 0.71264 0.0
C762 C 0.61162 0.82426 0.7154 0.0
C763 C 0.62307 0.83776 0.72295 0.0
C764 C 0.61412 0.81942 0.69707 0.0
C765 C 0.62822 0.82722 0.68681 0.0
U766 U 0.68077 0.87243 0.68619 0.0
O767 O 0.70878 0.86582 0.67833 0.0
O768 O 0.69211 0.88262 0.66028 0.0
C769 C 0.70746 0.87386 0.66239 0.0
C770 C 0.65602 0.84642 0.68412 0.0
C771 C 0.71349 0.86295 0.64679 0.0
C772 C 0.70925 0.83764 0.62599 0.0
C773 C 0.70271 0.84865 0.63998 0.0
C774 C 0.73726 0.85533 0.62524 0.0
C775 C 0.72674 0.84066 0.61861 0.0
C776 C 0.73068 0.86634 0.63919 0.0
C777 C 0.6906 0.91169 0.71911 0.0
C778 C 0.71632 0.93249 0.71561 0.0
C779 C 0.69832 0.933 0.74318 0.0
C780 C 0.68714 0.91912 0.73626 0.0
C781 C 0.71321 0.93972 0.73305 0.0
C782 C 0.70515 0.91857 0.70872 0.0
C783 C 0.67943 0.89625 0.71271 0.0
O784 O 0.65445 0.86212 0.6757 0.0
O785 O 0.67184 0.84447 0.69221 0.0
O786 O 0.68699 0.88025 0.71441 0.0
O787 O 0.67112 0.89845 0.697 0.0
H788 H 0.64626 0.85546 0.71891 0.0
H789 H 0.62162 0.84169 0.73706 0.0
H790 H 0.6054 0.80928 0.69075 0.0
H791 H 0.63017 0.82284 0.67289 0.0
H792 H 0.70067 0.82663 0.62109 0.0
H793 H 0.68938 0.84582 0.6457 0.0
H794 H 0.75086 0.85792 0.62013 0.0
H795 H 0.73924 0.87726 0.64434 0.0
H796 H 0.72751 0.93747 0.70733 0.0
H797 H 0.69565 0.93799 0.75675 0.0
H798 H 0.67602 0.91391 0.74451 0.0
H799 H 0.70802 0.91297 0.69543 0.0
C800 C 0.63735 0.83203 0.36748 0.0
C801 C 0.63036 0.84116 0.35224 0.0
C802 C 0.60985 0.81558 0.34606 0.0
C803 C 0.61666 0.83302 0.34164 0.0
C804 C 0.61663 0.80675 0.36164 0.0
C805 C 0.63024 0.81492 0.37224 0.0
U806 U 0.67581 0.86703 0.37559 0.0
O807 O 0.68611 0.87815 0.4015 0.0
O808 O 0.70403 0.86219 0.3841 0.0
C809 C 0.70188 0.87004 0.39996 0.0
C810 C 0.65269 0.83958 0.37804 0.0
C811 C 0.70762 0.85909 0.41573 0.0
C812 C 0.70514 0.83164 0.43413 0.0
C813 C 0.69861 0.84273 0.42009 0.0
C814 C 0.72941 0.85344 0.43995 0.0
C815 C 0.7208 0.83672 0.44406 0.0
C816 C 0.72288 0.86449 0.42589 0.0
C817 C 0.68382 0.90605 0.34138 0.0
C818 C 0.70928 0.92743 0.34313 0.0
C819 C 0.68945 0.92752 0.31675 0.0
C820 C 0.67904 0.91344 0.32445 0.0
C821 C 0.70487 0.9345 0.32584 0.0
C822 C 0.69887 0.91326 0.35081 0.0
C823 C 0.67354 0.8902 0.34836 0.0
O824 O 0.66868 0.83847 0.37018 0.0
O825 O 0.65004 0.85535 0.38588 0.0
O826 O 0.665 0.89234 0.3639 0.0
O827 O 0.68199 0.87461 0.34728 0.0
H828 H 0.63579 0.85436 0.34831 0.0
H829 H 0.61188 0.84008 0.32962 0.0
H830 H 0.61155 0.79341 0.36552 0.0
H831 H 0.63548 0.80769 0.38397 0.0
H832 H 0.69807 0.81896 0.43705 0.0
H833 H 0.68678 0.83835 0.41237 0.0
H834 H 0.74163 0.85767 0.44711 0.0
H835 H 0.73005 0.87705 0.42265 0.0
H836 H 0.72118 0.93236 0.3504 0.0
H837 H 0.68556 0.93278 0.30353 0.0
H838 H 0.66746 0.90805 0.31699 0.0
H839 H 0.70281 0.90764 0.36387 0.0
C840 C 0.63901 0.19398 0.34095 0.0
C841 C 0.63377 0.20951 0.3505 0.0
C842 C 0.61085 0.21616 0.3273 0.0
C843 C 0.61979 0.22049 0.34376 0.0
C844 C 0.61594 0.2003 0.31807 0.0
C845 C 0.62987 0.18936 0.32483 0.0
U846 U 0.67916 0.1831 0.37299 0.0
O847 O 0.68895 0.15627 0.38209 0.0
O848 O 0.70673 0.17433 0.36605 0.0
C849 C 0.70434 0.15803 0.3731 0.0
C850 C 0.65445 0.18286 0.347 0.0
C851 C 0.70963 0.1425 0.36151 0.0
C852 C 0.71899 0.13027 0.33229 0.0
C853 C 0.71266 0.1447 0.34275 0.0
C854 C 0.71883 0.11089 0.35897 0.0
C855 C 0.72229 0.11315 0.34024 0.0
C856 C 0.71263 0.12542 0.36947 0.0
C857 C 0.69044 0.21475 0.4133 0.0
C858 C 0.71742 0.21206 0.43232 0.0
C859 C 0.69725 0.23749 0.43634 0.0
C860 C 0.68597 0.23072 0.4225 0.0
C861 C 0.71329 0.22842 0.44127 0.0
C862 C 0.70611 0.20531 0.41844 0.0
C863 C 0.67915 0.20886 0.39773 0.0
O864 O 0.67061 0.1905 0.34525 0.0
O865 O 0.6524 0.17411 0.36252 0.0
O866 O 0.6702 0.19339 0.39963 0.0
O867 O 0.68682 0.2107 0.38168 0.0
H868 H 0.64067 0.21329 0.363 0.0
H869 H 0.61611 0.23246 0.35136 0.0
H870 H 0.60963 0.19665 0.30524 0.0
H871 H 0.63378 0.17745 0.31723 0.0
H872 H 0.72179 0.13275 0.31802 0.0
H873 H 0.71051 0.1577 0.33616 0.0
H874 H 0.72096 0.0979 0.36557 0.0
H875 H 0.71041 0.12336 0.38392 0.0
H876 H 0.72952 0.20458 0.43589 0.0
H877 H 0.69373 0.25023 0.44266 0.0
H878 H 0.67397 0.23824 0.41865 0.0
H879 H 0.70979 0.19294 0.41148 0.0
C880 C 0.336 0.14297 0.36528 0.0
C881 C 0.34499 0.13866 0.34907 0.0
C882 C 0.32254 0.1147 0.34283 0.0
C883 C 0.33833 0.12464 0.33795 0.0
C884 C 0.31396 0.11876 0.35942 0.0
C885 C 0.32063 0.13276 0.3705 0.0
U886 U 0.36779 0.18348 0.37621 0.0
O887 O 0.36083 0.21122 0.38423 0.0
O888 O 0.37634 0.19407 0.40303 0.0
C889 C 0.36749 0.20933 0.40074 0.0
C890 C 0.34174 0.15862 0.37641 0.0
C891 C 0.35556 0.21495 0.4159 0.0
C892 C 0.32609 0.22441 0.42728 0.0
C893 C 0.33689 0.21784 0.41318 0.0
C894 C 0.35225 0.22477 0.44735 0.0
C895 C 0.33361 0.22808 0.44456 0.0
C896 C 0.3631 0.21834 0.43315 0.0
C897 C 0.4087 0.19473 0.34557 0.0
C898 C 0.42538 0.22346 0.34664 0.0
C899 C 0.4341 0.20036 0.32508 0.0
C900 C 0.42024 0.18891 0.33167 0.0
C901 C 0.43666 0.21792 0.33226 0.0
C902 C 0.41152 0.21197 0.35324 0.0
C903 C 0.39313 0.18314 0.351 0.0
O904 O 0.35706 0.15691 0.3855 0.0
O905 O 0.34017 0.17458 0.36852 0.0
O906 O 0.37705 0.19039 0.3486 0.0
O907 O 0.39465 0.17451 0.36663 0.0
H908 H 0.35691 0.14639 0.34484 0.0
H909 H 0.34542 0.12176 0.3254 0.0
H910 H 0.30165 0.11162 0.36351 0.0
H911 H 0.31347 0.13594 0.38295 0.0
H912 H 0.31191 0.22708 0.42442 0.0
H913 H 0.33063 0.21538 0.40005 0.0
H914 H 0.35851 0.22719 0.46049 0.0
H915 H 0.37747 0.21623 0.43558 0.0
H916 H 0.42708 0.2368 0.35262 0.0
H917 H 0.4423 0.19571 0.31384 0.0
H918 H 0.41821 0.17568 0.32553 0.0
H919 H 0.40273 0.21668 0.36402 0.0
C920 C 0.36174 0.91227 0.33665 0.0
C921 C 0.34543 0.91762 0.34485 0.0
C922 C 0.34133 0.94092 0.32145 0.0
C923 C 0.33534 0.93189 0.33734 0.0
C924 C 0.35798 0.9358 0.31369 0.0
C925 C 0.36806 0.92164 0.32123 0.0
U926 U 0.37017 0.87163 0.36912 0.0
O927 O 0.37819 0.8439 0.36193 0.0
O928 O 0.39638 0.86079 0.37864 0.0
C929 C 0.39427 0.8455 0.36966 0.0
C930 C 0.37191 0.89638 0.34318 0.0
C931 C 0.40975 0.83992 0.35832 0.0
C932 C 0.42863 0.84341 0.33132 0.0
C933 C 0.41471 0.84969 0.34261 0.0
C934 C 0.43305 0.81778 0.35157 0.0
C935 C 0.43784 0.82723 0.33552 0.0
C936 C 0.41915 0.82408 0.36282 0.0
C937 C 0.33801 0.86099 0.40914 0.0
C938 C 0.3411 0.83451 0.42878 0.0
C939 C 0.31499 0.85397 0.43196 0.0
C940 C 0.3217 0.86515 0.41797 0.0
C941 C 0.32447 0.83835 0.43742 0.0
C942 C 0.34779 0.84571 0.41475 0.0
C943 C 0.3441 0.87229 0.39362 0.0
O944 O 0.38036 0.89808 0.35888 0.0
O945 O 0.36357 0.8806 0.34132 0.0
O946 O 0.34218 0.8648 0.37752 0.0
O947 O 0.35978 0.88088 0.39559 0.0
H948 H 0.34031 0.91049 0.35676 0.0
H949 H 0.32249 0.93536 0.34355 0.0
H950 H 0.3631 0.94259 0.30159 0.0
H951 H 0.38064 0.91772 0.31473 0.0
H952 H 0.43207 0.85115 0.31921 0.0
H953 H 0.4076 0.86198 0.33892 0.0
H954 H 0.43957 0.80514 0.35513 0.0
H955 H 0.41545 0.81631 0.37485 0.0
H956 H 0.3489 0.82274 0.43275 0.0
H957 H 0.30203 0.85724 0.43804 0.0
H958 H 0.31391 0.87685 0.41376 0.0
H959 H 0.36043 0.84228 0.4081 0.0
C960 C 0.68933 0.642 0.21678 0.0
C961 C 0.70667 0.6383 0.20978 0.0
C962 C 0.7106 0.61413 0.23228 0.0
C963 C 0.71721 0.62443 0.21745 0.0
C964 C 0.69292 0.61747 0.2387 0.0
C965 C 0.68242 0.63126 0.23103 0.0
U966 U 0.68033 0.68176 0.18384 0.0
O967 O 0.65428 0.69254 0.17384 0.0
O968 O 0.67254 0.7098 0.1901 0.0
C969 C 0.65663 0.70824 0.18203 0.0
C970 C 0.6787 0.65763 0.21032 0.0
C971 C 0.64102 0.71522 0.19234 0.0
C972 C 0.61947 0.7134 0.21744 0.0
C973 C 0.63359 0.70576 0.20727 0.0
C974 C 0.61994 0.73982 0.19768 0.0
C975 C 0.61268 0.73067 0.21293 0.0
C976 C 0.63394 0.73216 0.18752 0.0
C977 C 0.71258 0.69129 0.14384 0.0
C978 C 0.7095 0.71763 0.12404 0.0
C979 C 0.73572 0.69825 0.12115 0.0
C980 C 0.72895 0.68712 0.13514 0.0
C981 C 0.72624 0.71384 0.1156 0.0
C982 C 0.70276 0.70649 0.13806 0.0
C983 C 0.70651 0.68026 0.15953 0.0
O984 O 0.68679 0.67357 0.21189 0.0
O985 O 0.67006 0.6556 0.19475 0.0
O986 O 0.6908 0.67171 0.1577 0.0
O987 O 0.70843 0.6881 0.17546 0.0
H988 H 0.71224 0.64647 0.19878 0.0
H989 H 0.73081 0.62232 0.21228 0.0
H990 H 0.68731 0.60964 0.24992 0.0
H991 H 0.66905 0.63387 0.23657 0.0
H992 H 0.61431 0.70608 0.22921 0.0
H993 H 0.63894 0.69268 0.21125 0.0
H994 H 0.61491 0.75303 0.1937 0.0
H995 H 0.63948 0.73966 0.17602 0.0
H996 H 0.70171 0.72937 0.11999 0.0
H997 H 0.74875 0.69502 0.11518 0.0
H998 H 0.73676 0.67548 0.13949 0.0
H999 H 0.69007 0.70992 0.14463 0.0
C1000 C 0.33405 0.68701 0.14757 0.0
C1001 C 0.34437 0.70207 0.14167 0.0
C1002 C 0.32046 0.71024 0.12009 0.0
C1003 C 0.33766 0.71356 0.12803 0.0
C1004 C 0.31044 0.6948 0.12575 0.0
C1005 C 0.31717 0.68332 0.13937 0.0
U1006 U 0.36751 0.67709 0.18609 0.0
O1007 O 0.36229 0.66904 0.21447 0.0
O1008 O 0.37778 0.65108 0.19667 0.0
C1009 C 0.37012 0.6532 0.21267 0.0
C1010 C 0.34023 0.67567 0.16291 0.0
C1011 C 0.35972 0.63755 0.21988 0.0
C1012 C 0.33354 0.61699 0.21919 0.0
C1013 C 0.34388 0.63107 0.21125 0.0
C1014 C 0.35499 0.61555 0.24422 0.0
C1015 C 0.33882 0.60929 0.23595 0.0
C1016 C 0.36531 0.62953 0.23626 0.0
C1017 C 0.40788 0.71005 0.19343 0.0
C1018 C 0.42651 0.71095 0.22085 0.0
C1019 C 0.43257 0.73212 0.19619 0.0
C1020 C 0.41836 0.72432 0.18611 0.0
C1021 C 0.43657 0.72581 0.21385 0.0
C1022 C 0.41224 0.70315 0.21073 0.0
C1023 C 0.39179 0.70349 0.18332 0.0
O1024 O 0.35556 0.66699 0.16046 0.0
O1025 O 0.33919 0.68337 0.17896 0.0
O1026 O 0.37618 0.70514 0.19182 0.0
O1027 O 0.39336 0.68785 0.17495 0.0
H1028 H 0.35744 0.70514 0.14785 0.0
H1029 H 0.34586 0.72517 0.12386 0.0
H1030 H 0.29706 0.69194 0.12015 0.0
H1031 H 0.30898 0.6718 0.14383 0.0
H1032 H 0.32106 0.61262 0.21256 0.0
H1033 H 0.33931 0.63717 0.19862 0.0
H1034 H 0.35955 0.60979 0.25701 0.0
H1035 H 0.37752 0.63435 0.2431 0.0
H1036 H 0.42913 0.70587 0.23445 0.0
H1037 H 0.4402 0.74337 0.1903 0.0
H1038 H 0.41522 0.72978 0.17276 0.0
H1039 H 0.40425 0.69214 0.21661 0.0
C1040 C 0.33474 0.36289 0.14269 0.0
C1041 C 0.34241 0.3465 0.137 0.0
C1042 C 0.31917 0.34337 0.11335 0.0
C1043 C 0.33472 0.33684 0.1224 0.0
C1044 C 0.31195 0.3601 0.1188 0.0
C1045 C 0.31967 0.36974 0.13331 0.0
U1046 U 0.36763 0.36974 0.18324 0.0
O1047 O 0.37795 0.39539 0.19503 0.0
O1048 O 0.36106 0.37685 0.21147 0.0
C1049 C 0.36919 0.39282 0.21044 0.0
C1050 C 0.34148 0.37259 0.15891 0.0
C1051 C 0.35851 0.40824 0.21715 0.0
C1052 C 0.33078 0.42602 0.21757 0.0
C1053 C 0.34136 0.41233 0.20982 0.0
C1054 C 0.35463 0.43199 0.23962 0.0
C1055 C 0.33714 0.43575 0.23283 0.0
C1056 C 0.36517 0.41838 0.23186 0.0
C1057 C 0.40694 0.33622 0.19127 0.0
C1058 C 0.42715 0.33661 0.21758 0.0
C1059 C 0.4292 0.3124 0.1955 0.0
C1060 C 0.41525 0.32029 0.18531 0.0
C1061 C 0.43517 0.32029 0.21191 0.0
C1062 C 0.41309 0.34448 0.20737 0.0
C1063 C 0.39137 0.34337 0.18087 0.0
O1064 O 0.33957 0.36385 0.17443 0.0
O1065 O 0.35732 0.38095 0.15736 0.0
O1066 O 0.39371 0.35934 0.17308 0.0
O1067 O 0.37539 0.34147 0.18871 0.0
H1068 H 0.35404 0.34098 0.14413 0.0
H1069 H 0.3405 0.32392 0.11868 0.0
H1070 H 0.30014 0.36562 0.11201 0.0
H1071 H 0.31359 0.38239 0.13748 0.0
H1072 H 0.31732 0.42846 0.2121 0.0
H1073 H 0.33597 0.40462 0.19845 0.0
H1074 H 0.36005 0.43939 0.25118 0.0
H1075 H 0.3784 0.41546 0.23767 0.0
H1076 H 0.43128 0.34294 0.23024 0.0
H1077 H 0.4352 0.29998 0.19062 0.0
H1078 H 0.41071 0.31374 0.1729 0.0
H1079 H 0.40679 0.35676 0.21223 0.0
C1080 C 0.63956 0.34155 0.19505 0.0
C1081 C 0.63504 0.35111 0.21086 0.0
C1082 C 0.61093 0.32901 0.21772 0.0
C1083 C 0.62086 0.34491 0.22209 0.0
C1084 C 0.61524 0.31979 0.20156 0.0
C1085 C 0.62944 0.326 0.19036 0.0
U1086 U 0.6797 0.37347 0.18611 0.0
O1087 O 0.70803 0.36759 0.17884 0.0
O1088 O 0.69134 0.38407 0.16048 0.0
C1089 C 0.70697 0.37592 0.16303 0.0
C1090 C 0.65536 0.34711 0.18393 0.0
C1091 C 0.71434 0.3659 0.14741 0.0
C1092 C 0.71415 0.33996 0.12698 0.0
C1093 C 0.70603 0.34988 0.141 0.0
C1094 C 0.73869 0.36219 0.12544 0.0
C1095 C 0.73076 0.34584 0.11924 0.0
C1096 C 0.73055 0.37209 0.13936 0.0
C1097 C 0.68703 0.41268 0.2202 0.0
C1098 C 0.71316 0.4333 0.22031 0.0
C1099 C 0.69093 0.43459 0.24457 0.0
C1100 C 0.68089 0.42063 0.23632 0.0
C1101 C 0.70734 0.44091 0.23684 0.0
C1102 C 0.70311 0.41923 0.21208 0.0
C1103 C 0.67694 0.39698 0.21279 0.0
O1104 O 0.65385 0.36261 0.17513 0.0
O1105 O 0.67123 0.3453 0.19198 0.0
O1106 O 0.68505 0.38126 0.21448 0.0
O1107 O 0.66921 0.39923 0.1968 0.0
H1108 H 0.64271 0.36317 0.21469 0.0
H1109 H 0.6178 0.35246 0.2343 0.0
H1110 H 0.60811 0.30737 0.19789 0.0
H1111 H 0.63279 0.31839 0.17826 0.0
H1112 H 0.70778 0.32734 0.12266 0.0
H1113 H 0.69353 0.34485 0.14711 0.0
H1114 H 0.75134 0.36723 0.11965 0.0
H1115 H 0.73714 0.38444 0.14411 0.0
H1116 H 0.72584 0.43773 0.21412 0.0
H1117 H 0.68597 0.44028 0.25716 0.0
H1118 H 0.66849 0.41575 0.24276 0.0
H1119 H 0.70809 0.41319 0.19966 0.0
C1120 C 0.63899 0.33372 0.86707 0.0
C1121 C 0.63289 0.34214 0.85105 0.0
C1122 C 0.61177 0.31687 0.84559 0.0
C1123 C 0.61932 0.3338 0.84041 0.0
C1124 C 0.61762 0.30882 0.86195 0.0
C1125 C 0.6311 0.31717 0.87257 0.0
U1126 U 0.67725 0.36891 0.87568 0.0
O1127 O 0.6872 0.37988 0.90179 0.0
O1128 O 0.70538 0.36406 0.88452 0.0
C1129 C 0.70299 0.37179 0.90041 0.0
C1130 C 0.65422 0.34135 0.87772 0.0
C1131 C 0.70851 0.36073 0.91619 0.0
C1132 C 0.70528 0.3335 0.93484 0.0
C1133 C 0.69906 0.34465 0.9207 0.0
C1134 C 0.73018 0.35464 0.94042 0.0
C1135 C 0.72108 0.33822 0.94472 0.0
C1136 C 0.72395 0.36576 0.92628 0.0
C1137 C 0.68516 0.40832 0.84172 0.0
C1138 C 0.71081 0.42951 0.84302 0.0
C1139 C 0.68977 0.43063 0.81763 0.0
C1140 C 0.67965 0.41633 0.82532 0.0
C1141 C 0.70565 0.43721 0.82622 0.0
C1142 C 0.70068 0.41513 0.85069 0.0
C1143 C 0.67508 0.39229 0.84861 0.0
O1144 O 0.67026 0.34038 0.86997 0.0
O1145 O 0.6514 0.35705 0.88563 0.0
O1146 O 0.6664 0.39425 0.8641 0.0
O1147 O 0.68371 0.37681 0.84752 0.0
H1148 H 0.63891 0.3549 0.84656 0.0
H1149 H 0.61526 0.34027 0.8278 0.0
H1150 H 0.61194 0.29591 0.86643 0.0
H1151 H 0.63564 0.3105 0.88492 0.0
H1152 H 0.69784 0.32107 0.93789 0.0
H1153 H 0.68709 0.34055 0.91304 0.0
H1154 H 0.74253 0.35859 0.94751 0.0
H1155 H 0.73146 0.37808 0.92292 0.0
H1156 H 0.72307 0.43412 0.84989 0.0
H1157 H 0.68529 0.43637 0.80481 0.0
H1158 H 0.66769 0.41127 0.81822 0.0
H1159 H 0.70518 0.40904 0.86335 0.0
C1160 C 0.64036 0.68876 0.84075 0.0
C1161 C 0.63536 0.70569 0.84776 0.0
C1162 C 0.61201 0.70865 0.82423 0.0
C1163 C 0.62126 0.71554 0.8396 0.0
C1164 C 0.61677 0.69142 0.81767 0.0
C1165 C 0.63079 0.68161 0.82585 0.0
U1166 U 0.67982 0.6818 0.87474 0.0
O1167 O 0.69038 0.65625 0.88618 0.0
O1168 O 0.70793 0.67361 0.86917 0.0
C1169 C 0.70614 0.65806 0.87788 0.0
C1170 C 0.65604 0.67874 0.84806 0.0
C1171 C 0.71276 0.64199 0.86809 0.0
C1172 C 0.71242 0.62187 0.84187 0.0
C1173 C 0.70488 0.6363 0.85162 0.0
C1174 C 0.73545 0.61843 0.86522 0.0
C1175 C 0.72802 0.61298 0.8484 0.0
C1176 C 0.72789 0.63278 0.87494 0.0
C1177 C 0.68811 0.71647 0.91326 0.0
C1178 C 0.71439 0.71657 0.93351 0.0
C1179 C 0.69222 0.74054 0.9355 0.0
C1180 C 0.68208 0.7324 0.92155 0.0
C1181 C 0.70866 0.73291 0.94148 0.0
C1182 C 0.70423 0.70845 0.91947 0.0
C1183 C 0.67783 0.7091 0.89763 0.0
O1184 O 0.67194 0.68692 0.84631 0.0
O1185 O 0.65382 0.67095 0.86405 0.0
O1186 O 0.66936 0.69346 0.9002 0.0
O1187 O 0.68614 0.71018 0.88183 0.0
H1188 H 0.64263 0.71146 0.85925 0.0
H1189 H 0.61808 0.72883 0.84489 0.0
H1190 H 0.6098 0.6856 0.80603 0.0
H1191 H 0.63442 0.66854 0.82028 0.0
H1192 H 0.70646 0.61816 0.8289 0.0
H1193 H 0.6932 0.6433 0.84609 0.0
H1194 H 0.74731 0.61176 0.87075 0.0
H1195 H 0.73414 0.63695 0.88765 0.0
H1196 H 0.72707 0.71043 0.93765 0.0
H1197 H 0.68729 0.75297 0.94147 0.0
H1198 H 0.66966 0.73878 0.91698 0.0
H1199 H 0.70913 0.69616 0.91318 0.0
C1200 C 0.33628 0.64256 0.86509 0.0
C1201 C 0.34532 0.63828 0.8489 0.0
C1202 C 0.32298 0.61422 0.84265 0.0
C1203 C 0.33874 0.62422 0.83779 0.0
C1204 C 0.31434 0.61828 0.8592 0.0
C1205 C 0.32093 0.63231 0.87028 0.0
U1206 U 0.36816 0.68293 0.8765 0.0
O1207 O 0.36122 0.71069 0.88449 0.0
O1208 O 0.37636 0.69341 0.90348 0.0
C1209 C 0.36763 0.70873 0.9011 0.0
C1210 C 0.34197 0.65822 0.87626 0.0
C1211 C 0.35551 0.71438 0.91609 0.0
C1212 C 0.32596 0.7241 0.92706 0.0
C1213 C 0.33691 0.7175 0.91309 0.0
C1214 C 0.35179 0.72406 0.94754 0.0
C1215 C 0.33324 0.72759 0.94448 0.0
C1216 C 0.3628 0.71759 0.93348 0.0
C1217 C 0.40966 0.69402 0.84663 0.0
C1218 C 0.42771 0.72177 0.84973 0.0
C1219 C 0.43444 0.70053 0.82565 0.0
C1220 C 0.42033 0.68911 0.83171 0.0
C1221 C 0.43818 0.71715 0.83441 0.0
C1222 C 0.41357 0.71031 0.85578 0.0
C1223 C 0.39391 0.68252 0.85172 0.0
O1224 O 0.35713 0.65641 0.8856 0.0
O1225 O 0.34064 0.67418 0.86832 0.0
O1226 O 0.37794 0.68992 0.84908 0.0
O1227 O 0.39509 0.67381 0.86734 0.0
H1228 H 0.35723 0.64604 0.84469 0.0
H1229 H 0.34587 0.62134 0.82526 0.0
H1230 H 0.30205 0.61109 0.86328 0.0
H1231 H 0.31374 0.63548 0.88271 0.0
H1232 H 0.31187 0.72695 0.92398 0.0
H1233 H 0.33084 0.71518 0.89984 0.0
H1234 H 0.35786 0.72633 0.96079 0.0
H1235 H 0.3771 0.7153 0.93614 0.0
H1236 H 0.43031 0.73435 0.85692 0.0
H1237 H 0.44195 0.69663 0.81365 0.0
H1238 H 0.41744 0.67664 0.82441 0.0
H1239 H 0.40545 0.71432 0.86735 0.0
C1240 C 0.36343 0.41137 0.83597 0.0
C1241 C 0.34712 0.41655 0.84428 0.0
C1242 C 0.34272 0.43997 0.82105 0.0
C1243 C 0.33687 0.43079 0.83691 0.0
C1244 C 0.35937 0.43502 0.81317 0.0
C1245 C 0.36959 0.42088 0.82056 0.0
U1246 U 0.37255 0.37085 0.86839 0.0
O1247 O 0.38063 0.34314 0.86121 0.0
O1248 O 0.39893 0.36019 0.87765 0.0
C1249 C 0.39679 0.34486 0.86874 0.0
C1250 C 0.37378 0.39553 0.84237 0.0
C1251 C 0.41218 0.33932 0.85727 0.0
C1252 C 0.43003 0.34197 0.82949 0.0
C1253 C 0.41616 0.34828 0.84082 0.0
C1254 C 0.43638 0.31798 0.85117 0.0
C1255 C 0.44019 0.32657 0.83441 0.0
C1256 C 0.42252 0.32429 0.86245 0.0
C1257 C 0.34045 0.36077 0.90893 0.0
C1258 C 0.34012 0.33294 0.92702 0.0
C1259 C 0.31862 0.35672 0.93347 0.0
C1260 C 0.32614 0.36735 0.9195 0.0
C1261 C 0.32524 0.33923 0.93718 0.0
C1262 C 0.34762 0.34361 0.91295 0.0
C1263 C 0.34678 0.37163 0.89319 0.0
O1264 O 0.38247 0.3973 0.85793 0.0
O1265 O 0.36551 0.3797 0.84067 0.0
O1266 O 0.34473 0.36394 0.8772 0.0
O1267 O 0.36251 0.38016 0.89501 0.0
H1268 H 0.34212 0.40931 0.85617 0.0
H1269 H 0.32403 0.43413 0.84322 0.0
H1270 H 0.36438 0.44193 0.80109 0.0
H1271 H 0.38217 0.41711 0.81398 0.0
H1272 H 0.4327 0.34905 0.8168 0.0
H1273 H 0.40832 0.35995 0.8366 0.0
H1274 H 0.44367 0.30594 0.85531 0.0
H1275 H 0.4196 0.31715 0.87506 0.0
H1276 H 0.34544 0.31949 0.92943 0.0
H1277 H 0.30735 0.36208 0.94117 0.0
H1278 H 0.32045 0.38057 0.91665 0.0
H1279 H 0.35867 0.33829 0.9049 0.0
H1280 H 0.27452 0.27739 0.96139 0.0
H1281 H 0.29669 0.2982 1.01094 0.0
H1282 H 0.25247 0.2583 1.01168 0.0
H1283 H 0.25889 0.25342 0.03933 0.0
H1284 H 0.27156 0.2814 0.0886 0.0
H1285 H 0.28995 0.30409 0.03831 0.0
C1286 C 0.27473 0.27745 0.97616 0.0
C1287 C 0.26295 0.26588 0.98574 0.0
C1288 C 0.28638 0.28951 0.98527 0.0
C1289 C 0.28696 0.28925 1.00442 0.0
C1290 C 0.2748 0.27806 1.01472 0.0
C1291 C 0.26253 0.26667 1.00486 0.0
C1292 C 0.27443 0.27867 0.03544 0.0
C1293 C 0.26513 0.26506 0.04579 0.0
C1294 C 0.26347 0.26635 0.06484 0.0
C1295 C 0.27216 0.28072 0.07387 0.0
C1296 C 0.28205 0.29397 0.06431 0.0
C1297 C 0.28295 0.2931 0.04522 0.0
H1298 H 0.77819 0.28338 0.09547 0.0
H1299 H 0.79001 0.25597 0.04579 0.0
H1300 H 0.76038 0.30662 0.04523 0.0
H1301 H 0.75069 0.29806 1.0189 0.0
H1302 H 0.77229 0.27908 0.96856 0.0
H1303 H 0.79756 0.2628 1.01833 0.0
C1304 C 0.7776 0.28292 0.08073 0.0
C1305 C 0.76801 0.29631 0.0713 0.0
C1306 C 0.7859 0.26863 0.07154 0.0
C1307 C 0.78414 0.26753 0.0525 0.0
C1308 C 0.77509 0.28118 0.04236 0.0
C1309 C 0.76707 0.29559 0.05219 0.0
C1310 C 0.7742 0.28046 1.02175 0.0
C1311 C 0.76087 0.29027 1.01191 0.0
C1312 C 0.76026 0.28999 0.99278 0.0
C1313 C 0.7725 0.2791 0.98332 0.0
C1314 C 0.78563 0.26892 0.99252 0.0
C1315 C 0.78677 0.27008 1.01161 0.0
H1316 H 0.77158 0.7815 0.96532 0.0
H1317 H 0.74862 0.76308 1.01556 0.0
H1318 H 0.79853 0.79531 1.0151 0.0
H1319 H 0.79161 0.80256 0.04257 0.0
H1320 H 0.77528 0.77715 0.09243 0.0
H1321 H 0.7571 0.75423 0.04217 0.0
C1322 C 0.77229 0.78071 0.98005 0.0
C1323 C 0.78634 0.78984 0.98926 0.0
C1324 C 0.75896 0.77077 0.98949 0.0
C1325 C 0.75959 0.77013 1.00863 0.0
C1326 C 0.77371 0.77906 1.01852 0.0
C1327 C 0.78715 0.78875 1.00839 0.0
C1328 C 0.7743 0.77846 0.03918 0.0
C1329 C 0.78436 0.79161 0.04931 0.0
C1330 C 0.7853 0.79077 0.06845 0.0
C1331 C 0.77506 0.77749 0.07767 0.0
C1332 C 0.76445 0.76471 0.06825 0.0
C1333 C 0.76468 0.7648 0.0491 0.0
H1334 H 0.27459 0.7757 0.09748 0.0
H1335 H 0.29001 0.75096 0.04741 0.0
H1336 H 0.2583 0.8003 0.04734 0.0
H1337 H 0.2497 0.79237 1.02059 0.0
H1338 H 0.27204 0.77376 0.9704 0.0
H1339 H 0.29781 0.75868 1.0202 0.0
C1340 C 0.27451 0.77571 0.08272 0.0
C1341 C 0.26475 0.78903 0.07336 0.0
C1342 C 0.28407 0.76233 0.07339 0.0
C1343 C 0.28331 0.76197 0.05426 0.0
C1344 C 0.27415 0.77564 0.04424 0.0
C1345 C 0.2652 0.78937 0.05422 0.0
C1346 C 0.27372 0.77543 1.0236 0.0
C1347 C 0.26019 0.78492 1.01368 0.0
C1348 C 0.25969 0.78468 0.99452 0.0
C1349 C 0.27222 0.77405 0.98516 0.0
C1350 C 0.28563 0.76441 0.99447 0.0
C1351 C 0.28675 0.7656 1.01351 0.0
H1352 H 0.08883 0.26924 0.28093 0.0
H1353 H 0.03927 0.25764 0.25232 0.0
H1354 H 0.03861 0.28709 0.30337 0.0
H1355 H 1.0128 0.29732 0.2941 0.0
H1356 H 0.96206 0.2749 0.27583 0.0
H1357 H 1.01151 0.24995 0.25919 0.0
C1358 C 0.07411 0.26991 0.28013 0.0
C1359 C 0.06466 0.27946 0.29345 0.0
C1360 C 0.06499 0.26165 0.26554 0.0
C1361 C 0.04597 0.26351 0.26405 0.0
C1362 C 0.03584 0.2726 0.27763 0.0
C1363 C 0.04561 0.28049 0.29234 0.0
C1364 C 1.01525 0.27352 0.27674 0.0
C1365 C 1.00562 0.2869 0.28655 0.0
C1366 C 0.98647 0.28726 0.28654 0.0
C1367 C 0.9768 0.27459 0.27602 0.0
C1368 C 0.9858 0.26141 0.26584 0.0
C1369 C 1.00493 0.26079 0.26644 0.0
H1370 H 0.77164 0.9593 0.2832 0.0
H1371 H 0.7977 1.00986 0.26979 0.0
H1372 H 0.74523 1.00887 0.29684 0.0
H1373 H 0.75323 0.03606 0.30635 0.0
H1374 H 0.7686 0.08597 0.28025 0.0
H1375 H 0.78913 0.03609 0.25948 0.0
C1376 C 0.77162 0.97404 0.28329 0.0
C1377 C 0.75709 0.98309 0.29134 0.0
C1378 C 0.78606 0.98365 0.27525 0.0
C1379 C 0.78605 1.00276 0.27548 0.0
C1380 C 0.77145 1.01243 0.28333 0.0
C1381 C 0.75698 1.0022 0.29124 0.0
C1382 C 0.77107 0.03297 0.28286 0.0
C1383 C 0.76053 0.0429 0.29549 0.0
C1384 C 0.75918 0.0619 0.29415 0.0
C1385 C 0.76913 0.07125 0.2808 0.0
C1386 C 0.78041 0.062 0.26875 0.0
C1387 C 0.78105 0.04293 0.26957 0.0
H1388 H 0.08706 0.77215 0.27541 0.0
H1389 H 0.03724 0.75929 0.30276 0.0
H1390 H 0.03723 0.79121 0.25287 0.0
H1391 H 1.01075 0.79987 0.26068 0.0
H1392 H 0.96015 0.77801 0.27988 0.0
H1393 H 1.0095 0.75293 0.29667 0.0
C1394 C 0.07237 0.77316 0.27626 0.0
C1395 C 0.06309 0.78321 0.26307 0.0
C1396 C 0.06303 0.76422 0.29033 0.0
C1397 C 0.04397 0.76566 0.2913 0.0
C1398 C 0.03398 0.77541 0.27794 0.0
C1399 C 0.044 0.7841 0.26379 0.0
C1400 C 1.01335 0.7763 0.27863 0.0
C1401 C 1.00367 0.78962 0.26861 0.0
C1402 C 0.98452 0.79017 0.26883 0.0
C1403 C 0.9749 0.77787 0.27989 0.0
C1404 C 0.98392 0.76478 0.29029 0.0
C1405 C 1.003 0.7637 0.28919 0.0
H1406 H 0.26976 0.09073 0.28332 0.0
H1407 H 0.25376 0.0411 0.25779 0.0
H1408 H 0.29247 0.04109 0.30261 0.0
H1409 H 0.30031 1.01486 0.29353 0.0
H1410 H 0.27808 0.96439 0.27504 0.0
H1411 H 0.24901 1.01313 0.26403 0.0
C1412 C 0.27088 0.07609 0.28234 0.0
C1413 C 0.28305 0.06693 0.29368 0.0
C1414 C 0.25998 0.0667 0.26983 0.0
C1415 C 0.26172 0.04778 0.26822 0.0
C1416 C 0.27327 0.03782 0.28007 0.0
C1417 C 0.28368 0.04784 0.29301 0.0
C1418 C 0.27448 1.01726 0.27891 0.0
C1419 C 0.2893 1.00776 0.28677 0.0
C1420 C 0.2905 0.98875 0.28554 0.0
C1421 C 0.27719 0.97907 0.27587 0.0
C1422 C 0.26248 0.98788 0.26775 0.0
C1423 C 0.26089 1.00681 0.26978 0.0
H1424 H 0.08712 0.76801 0.78163 0.0
H1425 H 0.03717 0.75198 0.75642 0.0
H1426 H 0.0382 0.79275 0.79913 0.0
H1427 H 1.00994 0.79102 0.80044 0.0
H1428 H 0.9605 0.77895 0.77232 0.0
H1429 H 1.00997 0.75805 0.75144 0.0
C1430 C 0.07243 0.76899 0.78066 0.0
C1431 C 0.06336 0.78084 0.79222 0.0
C1432 C 0.06301 0.75894 0.76749 0.0
C1433 C 0.04396 0.76054 0.76622 0.0
C1434 C 0.03415 0.77261 0.77756 0.0
C1435 C 0.04446 0.783 0.79031 0.0
C1436 C 1.01349 0.77431 0.77615 0.0
C1437 C 1.00342 0.78451 0.78903 0.0
C1438 C 0.98447 0.78669 0.7874 0.0
C1439 C 0.97519 0.77796 0.77322 0.0
C1440 C 0.98441 0.76739 0.76058 0.0
C1441 C 1.00342 0.76579 0.76191 0.0
H1442 H 0.27605 0.95822 0.78323 0.0
H1443 H 0.29366 1.00793 0.75857 0.0
H1444 H 0.25384 1.00798 0.80224 0.0
H1445 H 0.24765 0.03496 0.79444 0.0
H1446 H 0.27408 0.08514 0.78054 0.0
H1447 H 0.29895 0.03557 0.76507 0.0
C1448 C 0.27545 0.97292 0.7826 0.0
C1449 C 0.26318 0.98215 0.79367 0.0
C1450 C 0.28672 0.98228 0.77034 0.0
C1451 C 0.28528 1.00126 0.7687 0.0
C1452 C 0.27359 1.01127 0.78023 0.0
C1453 C 0.26262 1.00124 0.79273 0.0
C1454 C 0.27327 0.03193 0.77971 0.0
C1455 C 0.25915 0.04182 0.78825 0.0
C1456 C 0.25948 0.06095 0.78881 0.0
C1457 C 0.27365 0.07041 0.78013 0.0
C1458 C 0.28757 0.06122 0.77125 0.0
C1459 C 0.28746 0.04213 0.77123 0.0
H1460 H 0.08536 0.27242 0.77527 0.0
H1461 H 0.03547 0.25983 0.80259 0.0
H1462 H 0.03565 0.29181 0.75275 0.0
H1463 H 1.00916 0.30051 0.76055 0.0
H1464 H 0.95848 0.27876 0.77967 0.0
H1465 H 1.00775 0.25352 0.79644 0.0
C1466 C 0.07068 0.27352 0.77612 0.0
C1467 C 0.06146 0.28365 0.76294 0.0
C1468 C 0.06129 0.26462 0.79017 0.0
C1469 C 0.04223 0.26616 0.79114 0.0
C1470 C 0.0323 0.27596 0.77778 0.0
C1471 C 0.04238 0.28465 0.76366 0.0
C1472 C 1.01167 0.27691 0.77845 0.0
C1473 C 1.00204 0.29028 0.76845 0.0
C1474 C 0.98289 0.29088 0.76866 0.0
C1475 C 0.97323 0.27858 0.77969 0.0
C1476 C 0.9822 0.26545 0.79008 0.0
C1477 C 1.00127 0.26433 0.78898 0.0
H1478 H 0.77454 0.0906 0.78221 0.0
H1479 H 0.75832 0.0404 0.75772 0.0
H1480 H 0.79297 0.04084 0.80563 0.0
H1481 H 0.80196 1.01455 0.79637 0.0
H1482 H 0.77964 0.96403 0.77791 0.0
H1483 H 0.75132 1.01304 0.76583 0.0
C1484 C 0.77513 0.07589 0.78181 0.0
C1485 C 0.7856 0.06674 0.79479 0.0
C1486 C 0.76491 0.06642 0.76877 0.0
C1487 C 0.76552 0.04732 0.76854 0.0
C1488 C 0.77569 0.0375 0.78168 0.0
C1489 C 0.78538 0.04761 0.79504 0.0
C1490 C 0.77649 1.01693 0.78118 0.0
C1491 C 0.79103 1.0074 0.7895 0.0
C1492 C 0.79208 0.98836 0.78846 0.0
C1493 C 0.77885 0.97872 0.77863 0.0
C1494 C 0.76439 0.9876 0.77013 0.0
C1495 C 0.76296 1.00656 0.77192 0.0
H1496 H 0.27609 0.77491 0.46201 0.0
H1497 H 0.25855 0.75149 0.5123 0.0
H1498 H 0.29348 0.79955 0.51162 0.0
H1499 H 0.29909 0.79426 0.53941 0.0
H1500 H 0.27544 0.77613 0.58939 0.0
H1501 H 0.25208 0.75782 0.53945 0.0
C1502 C 0.2764 0.77479 0.47676 0.0
C1503 C 0.28676 0.78798 0.4859 0.0
C1504 C 0.26583 0.76199 0.48628 0.0
C1505 C 0.26603 0.76218 0.50543 0.0
C1506 C 0.2759 0.77564 0.51532 0.0
C1507 C 0.28601 0.78871 0.50505 0.0
C1508 C 0.27567 0.77594 0.53606 0.0
C1509 C 0.28851 0.78648 0.54612 0.0
C1510 C 0.28827 0.78681 0.56528 0.0
C1511 C 0.27547 0.77611 0.57463 0.0
C1512 C 0.26272 0.76536 0.56531 0.0
C1513 C 0.26266 0.76559 0.54615 0.0
H1514 H 0.76999 0.77433 0.5945 0.0
H1515 H 0.78748 0.75188 0.54409 0.0
H1516 H 0.75837 0.8028 0.54503 0.0
H1517 H 0.75016 0.7958 0.51767 0.0
H1518 H 0.77397 0.77888 0.46761 0.0
H1519 H 0.79723 0.76079 0.51778 0.0
C1520 C 0.77063 0.77512 0.57977 0.0
C1521 C 0.76242 0.78966 0.57071 0.0
C1522 C 0.78006 0.76183 0.57021 0.0
C1523 C 0.781 0.7629 0.55114 0.0
C1524 C 0.77311 0.77753 0.54144 0.0
C1525 C 0.7642 0.79112 0.55167 0.0
C1526 C 0.77367 0.77826 0.52084 0.0
C1527 C 0.76076 0.78844 0.51084 0.0
C1528 C 0.76094 0.78886 0.4917 0.0
C1529 C 0.77366 0.77844 0.48237 0.0
C1530 C 0.78643 0.76795 0.49171 0.0
C1531 C 0.78677 0.76838 0.51087 0.0
H1532 H 0.77641 0.27818 0.4643 0.0
H1533 H 0.75302 0.26017 0.51452 0.0
H1534 H 0.80043 0.29594 0.51429 0.0
H1535 H 0.79258 0.30285 0.54172 0.0
H1536 H 0.77997 0.27486 0.59136 0.0
H1537 H 0.76218 0.25186 0.54107 0.0
C1538 C 0.77677 0.27785 0.47905 0.0
C1539 C 0.78963 0.28855 0.48831 0.0
C1540 C 0.76389 0.26725 0.48844 0.0
C1541 C 0.76356 0.26785 0.5076 0.0
C1542 C 0.77675 0.27803 0.51755 0.0
C1543 C 0.78978 0.28832 0.50748 0.0
C1544 C 0.77723 0.27751 0.53821 0.0
C1545 C 0.78642 0.29122 0.54841 0.0
C1546 C 0.78803 0.28996 0.5675 0.0
C1547 C 0.77943 0.27551 0.57661 0.0
C1548 C 0.76974 0.26211 0.56713 0.0
C1549 C 0.76891 0.26297 0.54803 0.0
H1550 H 0.27554 0.27584 0.59807 0.0
H1551 H 0.25892 0.30043 0.54804 0.0
H1552 H 0.29121 0.25147 0.54791 0.0
H1553 H 0.2987 0.25909 0.52065 0.0
H1554 H 0.2727 0.27413 0.47098 0.0
H1555 H 0.25052 0.29267 0.52125 0.0
C1556 C 0.27545 0.2759 0.5833 0.0
C1557 C 0.28517 0.26267 0.57392 0.0
C1558 C 0.26553 0.28914 0.574 0.0
C1559 C 0.26596 0.28955 0.55486 0.0
C1560 C 0.27506 0.27596 0.54482 0.0
C1561 C 0.28439 0.26237 0.55478 0.0
C1562 C 0.27458 0.27578 0.52418 0.0
C1563 C 0.2876 0.26598 0.51403 0.0
C1564 C 0.2864 0.2648 0.49499 0.0
C1565 C 0.27295 0.27442 0.48574 0.0
C1566 C 0.26045 0.28503 0.49516 0.0
C1567 C 0.261 0.28525 0.51431 0.0
H1568 H 0.77072 0.46213 0.78199 0.0
H1569 H 0.74638 0.51216 0.79785 0.0
H1570 H 0.79818 0.51223 0.76959 0.0
H1571 H 0.78981 0.53926 0.76023 0.0
H1572 H 0.77563 0.58875 0.78668 0.0
H1573 H 0.75657 0.53822 0.80901 0.0
C1574 C 0.77114 0.47686 0.78246 0.0
C1575 C 0.78577 0.48624 0.77446 0.0
C1576 C 0.7571 0.48613 0.7911 0.0
C1577 C 0.75767 0.50524 0.79165 0.0
C1578 C 0.77233 0.51521 0.78376 0.0
C1579 C 0.78639 0.50532 0.77524 0.0
C1580 C 0.77302 0.53573 0.78448 0.0
C1581 C 0.78303 0.54592 0.77137 0.0
C1582 C 0.78406 0.56498 0.77218 0.0
C1583 C 0.77481 0.57404 0.78599 0.0
C1584 C 0.76472 0.56447 0.79909 0.0
C1585 C 0.76389 0.54537 0.79836 0.0
H1586 H 0.27052 0.58977 0.78304 0.0
H1587 H 0.25479 0.53997 0.75767 0.0
H1588 H 0.29335 0.54025 0.80262 0.0
H1589 H 0.30133 0.51398 0.7935 0.0
H1590 H 0.27894 0.4634 0.77544 0.0
H1591 H 0.24982 0.51211 0.7644 0.0
C1592 C 0.27172 0.57512 0.78212 0.0
C1593 C 0.28389 0.56606 0.79355 0.0
C1594 C 0.26092 0.56565 0.7696 0.0
C1595 C 0.26269 0.54672 0.7681 0.0
C1596 C 0.27421 0.53685 0.78006 0.0
C1597 C 0.28458 0.54695 0.79297 0.0
C1598 C 0.2754 0.51628 0.77905 0.0
C1599 C 0.29028 0.50682 0.78686 0.0
C1600 C 0.29145 0.4878 0.78572 0.0
C1601 C 0.27806 0.47807 0.77621 0.0
C1602 C 0.26329 0.48685 0.76817 0.0
C1603 C 0.26174 0.50579 0.77009 0.0
H1604 H 0.27618 0.45786 0.28442 0.0
H1605 H 0.25374 0.50754 0.30324 0.0
H1606 H 0.2943 0.5076 0.26023 0.0
H1607 H 0.29903 0.53536 0.26603 0.0
H1608 H 0.27433 0.58485 0.28194 0.0
H1609 H 0.24813 0.53468 0.29613 0.0
C1610 C 0.27564 0.47257 0.28384 0.0
C1611 C 0.28712 0.48195 0.27179 0.0
C1612 C 0.26323 0.48177 0.29475 0.0
C1613 C 0.26269 0.50086 0.29385 0.0
C1614 C 0.27387 0.51094 0.28156 0.0
C1615 C 0.28574 0.50094 0.2702 0.0
C1616 C 0.27356 0.53163 0.28105 0.0
C1617 C 0.28763 0.54187 0.27238 0.0
C1618 C 0.28772 0.56097 0.27243 0.0
C1619 C 0.27391 0.57013 0.2815 0.0
C1620 C 0.25987 0.56064 0.29035 0.0
C1621 C 0.25955 0.54151 0.28978 0.0
H1622 H 0.77091 0.59158 0.28472 0.0
H1623 H 0.753 0.54189 0.26052 0.0
H1624 H 0.79185 0.54166 0.30524 0.0
H1625 H 0.79793 0.51451 0.29772 0.0
H1626 H 0.77076 0.46465 0.28439 0.0
H1627 H 0.74682 0.51454 0.26783 0.0
C1628 C 0.77158 0.57688 0.28402 0.0
C1629 C 0.78339 0.56758 0.29562 0.0
C1630 C 0.76026 0.56757 0.27182 0.0
C1631 C 0.76134 0.54855 0.27066 0.0
C1632 C 0.77255 0.53848 0.28277 0.0
C1633 C 0.78337 0.54846 0.29539 0.0
C1634 C 0.77245 0.51782 0.28272 0.0
C1635 C 0.78636 0.50776 0.29154 0.0
C1636 C 0.78543 0.48867 0.29281 0.0
C1637 C 0.77114 0.47939 0.28415 0.0
C1638 C 0.75758 0.48873 0.27476 0.0
C1639 C 0.75808 0.50781 0.27433 0.0
H1640 H 0.46325 0.27468 0.77515 0.0
H1641 H 0.51378 0.29692 0.79414 0.0
H1642 H 0.51284 0.25015 0.75839 0.0
H1643 H 0.54072 0.2574 0.7522 0.0
H1644 H 0.59003 0.26917 0.78112 0.0
H1645 H 0.53964 0.28698 0.80315 0.0
C1646 C 0.478 0.27442 0.77543 0.0
C1647 C 0.48711 0.26147 0.76508 0.0
C1648 C 0.48756 0.28693 0.78623 0.0
C1649 C 0.50672 0.2866 0.78636 0.0
C1650 C 0.51646 0.2734 0.77639 0.0
C1651 C 0.50623 0.26085 0.76579 0.0
C1652 C 0.53704 0.27246 0.77742 0.0
C1653 C 0.5473 0.26331 0.76396 0.0
C1654 C 0.56631 0.26145 0.76562 0.0
C1655 C 0.57531 0.26979 0.78023 0.0
C1656 C 0.56574 0.2794 0.79343 0.0
C1657 C 0.5467 0.28037 0.79219 0.0
H1658 H 0.58814 0.76749 0.77143 0.0
H1659 H 0.53838 0.74921 0.79553 0.0
H1660 H 0.53953 0.7964 0.75966 0.0
H1661 H 0.51122 0.79212 0.75579 0.0
H1662 H 0.46189 0.77675 0.78256 0.0
H1663 H 0.51225 0.75756 0.80384 0.0
C1664 C 0.57357 0.76896 0.77319 0.0
C1665 C 0.56458 0.78274 0.76377 0.0
C1666 C 0.5642 0.75728 0.78503 0.0
C1667 C 0.54528 0.75916 0.78711 0.0
C1668 C 0.5356 0.77311 0.77791 0.0
C1669 C 0.54585 0.78519 0.76664 0.0
C1670 C 0.51503 0.77465 0.77959 0.0
C1671 C 0.50474 0.78507 0.76698 0.0
C1672 C 0.4857 0.78651 0.7685 0.0
C1673 C 0.47664 0.77663 0.78213 0.0
C1674 C 0.48616 0.7658 0.79451 0.0
C1675 C 0.50528 0.7653 0.79352 0.0
H1676 H 0.46083 0.77873 0.27298 0.0
H1677 H 0.51136 0.79685 0.29587 0.0
H1678 H 0.50993 0.75339 0.25611 0.0
H1679 H 0.53798 0.76078 0.25069 0.0
H1680 H 0.58755 0.77196 0.27928 0.0
H1681 H 0.5371 0.78598 0.30401 0.0
C1682 C 0.47554 0.77792 0.27373 0.0
C1683 C 0.48452 0.76553 0.26262 0.0
C1684 C 0.48512 0.78882 0.28612 0.0
C1685 C 0.50421 0.78753 0.28699 0.0
C1686 C 0.51379 0.77483 0.27622 0.0
C1687 C 0.50346 0.76359 0.26432 0.0
C1688 C 0.53436 0.77358 0.2772 0.0
C1689 C 0.54457 0.76577 0.26287 0.0
C1690 C 0.56369 0.76496 0.26371 0.0
C1691 C 0.5728 0.77228 0.27877 0.0
C1692 C 0.56323 0.78018 0.29307 0.0
C1693 C 0.54412 0.78052 0.29239 0.0
H1694 H 0.58677 0.27825 0.27785 0.0
H1695 H 0.53654 0.2999 0.25872 0.0
H1696 H 0.53694 0.25339 0.29527 0.0
H1697 H 0.5096 0.26039 0.30183 0.0
H1698 H 0.45961 0.27298 0.27508 0.0
H1699 H 0.50958 0.29128 0.25132 0.0
C1700 C 0.57201 0.27809 0.27797 0.0
C1701 C 0.56279 0.26512 0.28858 0.0
C1702 C 0.56259 0.29027 0.26684 0.0
C1703 C 0.54343 0.28975 0.26673 0.0
C1704 C 0.53351 0.27661 0.27702 0.0
C1705 C 0.54366 0.26408 0.28763 0.0
C1706 C 0.51284 0.2759 0.27662 0.0
C1707 C 0.50282 0.26654 0.29035 0.0
C1708 C 0.48371 0.26523 0.28974 0.0
C1709 C 0.47434 0.27393 0.27564 0.0
C1710 C 0.48365 0.28366 0.26208 0.0
C1711 C 0.50279 0.28443 0.26247 0.0
C1712 C 0.23234 0.24676 0.10131 0.0
C1713 C 0.23494 0.22796 0.09956 0.0
H1714 H 0.23897 0.27344 0.09157 0.0
C1715 C 0.24595 0.22178 0.08521 0.0
H1716 H 0.22415 0.2521 0.11224 0.0
C1717 C 0.25466 0.23413 0.07339 0.0
C1718 C 0.25263 0.25293 0.07572 0.0
H1719 H 0.24806 0.20738 0.08328 0.0
H1720 H 0.26353 0.22898 0.0629 0.0
C1721 C 0.24102 0.25904 0.08955 0.0
C1722 C 0.80236 0.22351 0.09057 0.0
C1723 C 0.8134 0.22925 0.10521 0.0
H1724 H 0.78501 0.23139 0.06841 0.0
C1725 C 0.81633 0.24798 0.10771 0.0
H1726 H 0.79999 0.20919 0.08808 0.0
C1727 C 0.80792 0.26063 0.09635 0.0
C1728 C 0.79629 0.25494 0.0822 0.0
H1729 H 0.82458 0.25295 0.11891 0.0
H1730 H 0.81025 0.27496 0.0989 0.0
C1731 C 0.79392 0.23622 0.07917 0.0
C1732 C 0.80488 0.83446 0.08857 0.0
C1733 C 0.81496 0.82779 0.10347 0.0
H1734 H 0.78773 0.82805 0.06566 0.0
C1735 C 0.81646 0.80887 0.10559 0.0
H1736 H 0.80363 0.84895 0.08635 0.0
C1737 C 0.80751 0.79699 0.09368 0.0
C1738 C 0.79676 0.80363 0.07931 0.0
H1739 H 0.8239 0.80316 0.11694 0.0
H1740 H 0.8086 0.7825 0.09603 0.0
C1741 C 0.79593 0.82251 0.07658 0.0
C1742 C 0.23399 0.80834 0.10966 0.0
C1743 C 0.23552 0.82715 0.10656 0.0
H1744 H 0.24175 0.7817 0.10149 0.0
C1745 C 0.2459 0.83335 0.0916 0.0
H1746 H 0.22632 0.80304 0.12112 0.0
C1747 C 0.25493 0.82102 0.08036 0.0
C1748 C 0.25389 0.80226 0.08395 0.0
H1749 H 0.24721 0.84774 0.0887 0.0
H1750 H 0.26321 0.82619 0.06927 0.0
C1751 C 0.24303 0.79609 0.09851 0.0
C1752 C 0.2291 0.80121 0.95637 0.0
C1753 C 0.22812 0.81991 0.96006 0.0
H1754 H 0.23945 0.77536 0.96457 0.0
C1755 C 0.23574 0.82644 0.97641 0.0
H1756 H 0.22351 0.79567 0.9439 0.0
C1757 C 0.24502 0.81476 0.98823 0.0
C1758 C 0.24695 0.79629 0.98394 0.0
H1759 H 0.23499 0.8407 0.97984 0.0
H1760 H 0.25152 0.82039 1.00023 0.0
C1761 C 0.23839 0.78956 0.96816 0.0
C1762 C 0.24709 0.23191 0.95047 0.0
C1763 C 0.22805 0.23378 0.95099 0.0
H1764 H 0.27294 0.24052 0.96115 0.0
C1765 C 0.22053 0.2449 0.96456 0.0
H1766 H 0.25341 0.22313 0.94059 0.0
C1767 C 0.23181 0.25457 0.97664 0.0
C1768 C 0.25081 0.25345 0.97528 0.0
H1769 H 0.20597 0.24685 0.96532 0.0
H1770 H 0.22571 0.26365 0.98639 0.0
C1771 C 0.25831 0.24173 0.96236 0.0
C1772 C 0.8033 0.23776 0.9557 0.0
C1773 C 0.82225 0.23884 0.9583 0.0
H1774 H 0.777 0.2461 0.9646 0.0
C1775 C 0.829 0.24878 0.97327 0.0
H1776 H 0.79756 0.23042 0.94427 0.0
C1777 C 0.81714 0.25797 0.98489 0.0
C1778 C 0.79827 0.25749 0.98175 0.0
H1779 H 0.8435 0.24971 0.97584 0.0
H1780 H 0.8228 0.26601 0.99589 0.0
C1781 C 0.79149 0.24694 0.96726 0.0
C1782 C 0.81652 0.80604 0.95047 0.0
C1783 C 0.81921 0.82449 0.95471 0.0
H1784 H 0.80438 0.78057 0.95822 0.0
C1785 C 0.8128 0.83086 0.97155 0.0
H1786 H 0.82112 0.80064 0.93761 0.0
C1787 C 0.80309 0.81931 0.98337 0.0
C1788 C 0.79949 0.80116 0.97856 0.0
H1789 H 0.81487 0.84493 0.97539 0.0
H1790 H 0.79759 0.82483 0.99582 0.0
C1791 C 0.80678 0.79454 0.96223 0.0
C1792 C 0.08531 0.24533 0.2209 0.0
C1793 C 0.09951 0.23416 0.22713 0.0
H1794 H 0.06317 0.2627 0.22809 0.0
C1795 C 0.10114 0.23103 0.24595 0.0
H1796 H 0.08347 0.24785 0.20649 0.0
C1797 C 0.08943 0.23936 0.25823 0.0
C1798 C 0.07576 0.25114 0.25209 0.0
H1799 H 0.11195 0.22269 0.25133 0.0
H1800 H 0.09136 0.23692 0.27265 0.0
C1801 C 0.07353 0.25369 0.23325 0.0
C1802 C 0.82254 0.08268 0.24698 0.0
C1803 C 0.81523 0.09751 0.23734 0.0
H1804 H 0.81716 0.05965 0.26428 0.0
C1805 C 0.79617 0.09901 0.2363 0.0
H1806 H 0.83712 0.08111 0.24823 0.0
C1807 C 0.7848 0.08683 0.24568 0.0
C1808 C 0.79218 0.07268 0.25611 0.0
H1809 H 0.79 0.10993 0.22864 0.0
H1810 H 0.77022 0.08882 0.24525 0.0
C1811 C 0.81112 0.07035 0.25619 0.0
C1812 C 0.947 0.82078 0.25154 0.0
C1813 C 0.95059 0.82146 0.23274 0.0
H1814 H 0.95509 0.81076 0.2777 0.0
C1815 C 0.9667 0.81355 0.22631 0.0
H1816 H 0.93471 0.82658 0.25702 0.0
C1817 C 0.97837 0.80434 0.23822 0.0
C1818 C 0.97416 0.80275 0.25682 0.0
H1819 H 0.97006 0.81406 0.21197 0.0
H1820 H 0.99018 0.79765 0.23269 0.0
C1821 C 0.95863 0.81156 0.2634 0.0
C1822 C 0.21771 0.96708 0.25125 0.0
C1823 C 0.22383 0.95312 0.2398 0.0
H1824 H 0.22506 0.9891 0.26902 0.0
C1825 C 0.24262 0.95169 0.23666 0.0
H1826 H 0.20331 0.96874 0.25379 0.0
C1827 C 0.25499 0.96344 0.24521 0.0
C1828 C 0.24895 0.97692 0.2572 0.0
H1829 H 0.24791 0.94104 0.22812 0.0
H1830 H 0.26939 0.96171 0.24272 0.0
C1831 C 0.23014 0.97889 0.25983 0.0
C1832 C 0.08496 0.8188 0.82027 0.0
C1833 C 0.09713 0.80903 0.83132 0.0
H1834 H 0.06441 0.8175 0.79938 0.0
C1835 C 0.09727 0.78999 0.83002 0.0
H1836 H 0.08445 0.83347 0.82104 0.0
C1837 C 0.08591 0.78095 0.81771 0.0
C1838 C 0.07401 0.79067 0.80641 0.0
H1839 H 0.1066 0.78205 0.83815 0.0
H1840 H 0.08662 0.76628 0.81681 0.0
C1841 C 0.07339 0.80967 0.80801 0.0
C1842 C 0.2321 0.07839 0.82871 0.0
C1843 C 0.22612 0.09528 0.82204 0.0
H1844 H 0.24713 0.05418 0.82339 0.0
C1845 C 0.22911 0.09949 0.80358 0.0
H1846 H 0.22976 0.07454 0.84277 0.0
C1847 C 0.23886 0.08771 0.79245 0.0
C1848 C 0.24591 0.07143 0.79946 0.0
H1849 H 0.22483 0.11236 0.79793 0.0
H1850 H 0.24157 0.09175 0.7785 0.0
C1851 C 0.24186 0.06659 0.81754 0.0
C1852 C 0.96261 0.22213 0.81125 0.0
C1853 C 0.94768 0.22881 0.82107 0.0
H1854 H 0.98526 0.22838 0.79378 0.0
C1855 C 0.94514 0.2477 0.82166 0.0
H1856 H 0.96512 0.20768 0.81069 0.0
C1857 C 0.95677 0.25952 0.81215 0.0
C1858 C 0.97124 0.25281 0.80174 0.0
H1859 H 0.93374 0.25338 0.82891 0.0
H1860 H 0.95418 0.27397 0.81265 0.0
C1861 C 0.97428 0.234 0.80171 0.0
C1862 C 0.82878 0.95356 0.79623 0.0
C1863 C 0.83097 0.95398 0.81526 0.0
H1864 H 0.81495 0.96425 0.77291 0.0
C1865 C 0.82142 0.96708 0.82524 0.0
H1866 H 0.83575 0.94356 0.78813 0.0
C1867 C 0.80957 0.9791 0.81641 0.0
C1868 C 0.80685 0.97805 0.7975 0.0
H1869 H 0.82291 0.96785 0.83988 0.0
H1870 H 0.80191 0.98863 0.82446 0.0
C1871 C 0.81683 0.96538 0.7875 0.0
C1872 C 0.22237 0.09951 0.25862 0.0
C1873 C 0.22287 0.10024 0.2395 0.0
H1874 H 0.2336 0.08825 0.28303 0.0
C1875 C 0.23499 0.08883 0.23026 0.0
H1876 H 0.2134 0.10824 0.26621 0.0
C1877 C 0.24656 0.07722 0.23999 0.0
C1878 C 0.24639 0.07705 0.25912 0.0
H1879 H 0.23563 0.08901 0.21553 0.0
H1880 H 0.25607 0.06888 0.23262 0.0
C1881 C 0.23401 0.08813 0.26828 0.0
C1882 C 0.21989 0.96362 0.81549 0.0
C1883 C 0.22618 0.94789 0.82436 0.0
H1884 H 0.22663 0.98685 0.79897 0.0
C1885 C 0.24501 0.94468 0.82461 0.0
H1886 H 0.20552 0.9667 0.81527 0.0
C1887 C 0.2571 0.95633 0.81546 0.0
C1888 C 0.2507 0.9715 0.80577 0.0
H1889 H 0.25039 0.93268 0.83118 0.0
H1890 H 0.27146 0.95315 0.81552 0.0
C1891 C 0.23201 0.97531 0.80633 0.0
C1892 C 0.07725 0.22313 0.81631 0.0
C1893 C 0.0946 0.22885 0.82233 0.0
H1894 H 0.053 0.23001 0.8016 0.0
C1895 C 0.09983 0.2471 0.81958 0.0
H1896 H 0.07265 0.20925 0.81844 0.0
C1897 C 0.0885 0.25901 0.81012 0.0
C1898 C 0.07164 0.25299 0.80313 0.0
H1899 H 0.1131 0.252 0.8239 0.0
H1900 H 0.09325 0.27279 0.80766 0.0
C1901 C 0.06588 0.23508 0.80684 0.0
C1902 C 0.80475 0.0858 0.83904 0.0
C1903 C 0.81445 0.10124 0.83278 0.0
H1904 H 0.78812 0.06264 0.83196 0.0
C1905 C 0.81572 0.10424 0.81392 0.0
H1906 H 0.80368 0.08295 0.85348 0.0
C1907 C 0.80696 0.09258 0.80168 0.0
C1908 C 0.79665 0.07759 0.80793 0.0
H1909 H 0.82288 0.11604 0.80856 0.0
H1910 H 0.80789 0.09556 0.78725 0.0
C1911 C 0.79599 0.07405 0.82673 0.0
C1912 C 0.94879 0.81827 0.80642 0.0
C1913 C 0.95086 0.81591 0.82531 0.0
H1914 H 0.95794 0.81123 0.77977 0.0
C1915 C 0.96515 0.80495 0.83167 0.0
H1916 H 0.93789 0.82643 0.80095 0.0
C1917 C 0.97657 0.79601 0.81944 0.0
C1918 C 0.97394 0.79779 0.80056 0.0
H1919 H 0.96733 0.80304 0.84613 0.0
H1920 H 0.98699 0.78717 0.82477 0.0
C1921 C 0.96018 0.80937 0.79423 0.0
C1922 C 0.81741 0.96508 0.23891 0.0
C1923 C 0.82528 0.95026 0.24805 0.0
H1924 H 0.7991 0.98758 0.24052 0.0
C1925 C 0.82118 0.94751 0.26656 0.0
H1926 H 0.82041 0.96765 0.2247 0.0
C1927 C 0.80906 0.95885 0.27554 0.0
C1928 C 0.80081 0.97334 0.2663 0.0
H1929 H 0.82685 0.93615 0.27398 0.0
H1930 H 0.80577 0.95603 0.28965 0.0
C1931 C 0.80539 0.97659 0.248 0.0
C1932 C 0.08391 0.82069 0.23381 0.0
C1933 C 0.09769 0.81131 0.22461 0.0
H1934 H 0.06184 0.81904 0.25295 0.0
C1935 C 0.0989 0.7924 0.22709 0.0
H1936 H 0.08253 0.83523 0.23206 0.0
C1937 C 0.08712 0.78322 0.23897 0.0
C1938 C 0.07374 0.79266 0.2486 0.0
H1939 H 0.10943 0.78476 0.22039 0.0
H1940 H 0.08876 0.76874 0.241 0.0
C1941 C 0.07196 0.81142 0.2456 0.0
C1942 C 0.96748 0.23623 0.22451 0.0
C1943 C 0.95081 0.22921 0.2311 0.0
H1944 H 0.99171 0.25177 0.23036 0.0
C1945 C 0.94685 0.23117 0.24971 0.0
H1946 H 0.97112 0.23473 0.21033 0.0
C1947 C 0.95872 0.24075 0.26117 0.0
C1948 C 0.97486 0.24867 0.25436 0.0
H1949 H 0.93413 0.22609 0.25529 0.0
H1950 H 0.95495 0.2425 0.2753 0.0
C1951 C 0.97939 0.24582 0.23603 0.0
C1952 C 0.23235 0.74806 0.60357 0.0
C1953 C 0.23112 0.72937 0.59978 0.0
H1954 H 0.2429 0.77411 0.59548 0.0
C1955 C 0.23859 0.72304 0.58338 0.0
H1956 H 0.22689 0.75346 0.61608 0.0
C1957 C 0.24794 0.73493 0.57159 0.0
C1958 C 0.25008 0.7534 0.57597 0.0
H1959 H 0.23764 0.70879 0.57986 0.0
H1960 H 0.25427 0.72947 0.55952 0.0
C1961 C 0.24169 0.7599 0.59182 0.0
C1962 C 0.81638 0.73108 0.58977 0.0
C1963 C 0.80675 0.72204 0.60373 0.0
H1964 H 0.81535 0.75055 0.5679 0.0
C1965 C 0.78799 0.72516 0.60552 0.0
H1966 H 0.83081 0.72886 0.58796 0.0
C1967 C 0.77922 0.73751 0.59412 0.0
C1968 C 0.78894 0.74697 0.58055 0.0
H1969 H 0.78019 0.71857 0.61623 0.0
H1970 H 0.76487 0.74001 0.59619 0.0
C1971 C 0.80752 0.74335 0.57819 0.0
C1972 C 0.81869 0.30967 0.60422 0.0
C1973 C 0.81555 0.32842 0.60269 0.0
H1974 H 0.81279 0.28302 0.59415 0.0
C1975 C 0.80447 0.33459 0.58829 0.0
H1976 H 0.82695 0.30432 0.61518 0.0
C1977 C 0.79617 0.32225 0.57623 0.0
C1978 C 0.79868 0.30347 0.57839 0.0
H1979 H 0.80195 0.34895 0.58652 0.0
H1980 H 0.7872 0.32735 0.56572 0.0
C1981 C 0.81041 0.2974 0.59224 0.0
C1982 C 0.23457 0.30796 0.6104 0.0
C1983 C 0.23583 0.3268 0.60734 0.0
H1984 H 0.24267 0.28145 0.60217 0.0
C1985 C 0.2461 0.33315 0.59237 0.0
H1986 H 0.22698 0.30254 0.62187 0.0
C1987 C 0.25528 0.32097 0.58109 0.0
C1988 C 0.2545 0.3022 0.58465 0.0
H1989 H 0.24721 0.34756 0.58948 0.0
H1990 H 0.26348 0.32628 0.56999 0.0
C1991 C 0.24375 0.29585 0.59921 0.0
C1992 C 0.23648 0.3268 0.47717 0.0
C1993 C 0.22875 0.32027 0.46087 0.0
H1994 H 0.25237 0.32074 0.5009 0.0
C1995 C 0.22968 0.30156 0.45719 0.0
H1996 H 0.23577 0.34107 0.48058 0.0
C1997 C 0.23901 0.28991 0.46893 0.0
C1998 C 0.24767 0.29664 0.48464 0.0
H1999 H 0.224 0.29603 0.44475 0.0
H2000 H 0.24003 0.2757 0.46533 0.0
C2001 C 0.2458 0.31511 0.48894 0.0
C2002 C 0.24818 0.73152 0.44838 0.0
C2003 C 0.22961 0.72981 0.45275 0.0
H2004 H 0.27425 0.74261 0.45572 0.0
C2005 C 0.22356 0.73699 0.46938 0.0
H2006 H 0.25336 0.72628 0.43568 0.0
C2007 C 0.23555 0.74655 0.48082 0.0
C2008 C 0.25388 0.74917 0.47588 0.0
H2009 H 0.20942 0.73567 0.47335 0.0
H2010 H 0.23025 0.75266 0.49307 0.0
C2011 C 0.26015 0.74105 0.45981 0.0
C2012 C 0.80462 0.73719 0.45487 0.0
C2013 C 0.8235 0.73798 0.45793 0.0
H2014 H 0.77823 0.74574 0.46326 0.0
C2015 C 0.83004 0.74765 0.47318 0.0
H2016 H 0.79905 0.73007 0.44321 0.0
C2017 C 0.81802 0.75681 0.48466 0.0
C2018 C 0.79922 0.75661 0.48106 0.0
H2019 H 0.84448 0.74836 0.47608 0.0
H2020 H 0.82349 0.76461 0.49592 0.0
C2021 C 0.79267 0.74635 0.46627 0.0
C2022 C 0.81993 0.30542 0.44982 0.0
C2023 C 0.82145 0.3241 0.45357 0.0
H2024 H 0.80909 0.27952 0.45802 0.0
C2025 C 0.81418 0.33055 0.47003 0.0
H2026 H 0.82522 0.29992 0.43728 0.0
C2027 C 0.80477 0.3188 0.48191 0.0
C2028 C 0.80234 0.30035 0.47757 0.0
H2029 H 0.81534 0.34479 0.47352 0.0
H2030 H 0.7986 0.32436 0.49402 0.0
C2031 C 0.81052 0.29372 0.46166 0.0
C2032 C 0.08215 0.7398 0.72364 0.0
C2033 C 0.09737 0.73018 0.73002 0.0
H2034 H 0.05928 0.7563 0.73044 0.0
C2035 C 0.09989 0.72847 0.74893 0.0
H2036 H 0.07959 0.74115 0.70918 0.0
C2037 C 0.08811 0.73695 0.76109 0.0
C2038 C 0.07352 0.74741 0.75468 0.0
H2039 H 0.11147 0.7213 0.75441 0.0
H2040 H 0.0908 0.7358 0.77555 0.0
C2041 C 0.07035 0.7483 0.73583 0.0
C2042 C 0.79903 0.60344 0.74115 0.0
C2043 C 0.81794 0.60079 0.74011 0.0
H2044 H 0.7735 0.59403 0.75188 0.0
C2045 C 0.82518 0.58483 0.74773 0.0
H2046 H 0.79288 0.6153 0.73505 0.0
C2047 C 0.81394 0.57245 0.75714 0.0
C2048 C 0.79528 0.57585 0.7592 0.0
H2049 H 0.83967 0.58236 0.74727 0.0
H2050 H 0.82001 0.56079 0.76372 0.0
C2051 C 0.78788 0.59118 0.75066 0.0
C2052 C 0.94548 0.32165 0.7514 0.0
C2053 C 0.94913 0.32241 0.73262 0.0
H2054 H 0.95348 0.31149 0.77754 0.0
C2055 C 0.96523 0.31449 0.7262 0.0
H2056 H 0.9332 0.32747 0.75688 0.0
C2057 C 0.97684 0.30519 0.73809 0.0
C2058 C 0.97257 0.30353 0.75667 0.0
H2059 H 0.96864 0.31506 0.71187 0.0
H2060 H 0.98864 0.2985 0.73256 0.0
C2061 C 0.95705 0.31235 0.76326 0.0
C2062 C 0.21834 0.46618 0.75193 0.0
C2063 C 0.22434 0.45213 0.74052 0.0
H2064 H 0.22587 0.48825 0.76956 0.0
C2065 C 0.24312 0.45055 0.73738 0.0
H2066 H 0.20396 0.46795 0.75448 0.0
C2067 C 0.25558 0.46225 0.74584 0.0
C2068 C 0.24966 0.47585 0.75777 0.0
H2069 H 0.24831 0.43982 0.72887 0.0
H2070 H 0.26996 0.46042 0.74331 0.0
C2071 C 0.23087 0.47795 0.76043 0.0
C2072 C 0.0845 0.31591 0.3244 0.0
C2073 C 0.0983 0.30634 0.33348 0.0
H2074 H 0.06271 0.31477 0.30484 0.0
C2075 C 0.09996 0.28762 0.33025 0.0
H2076 H 0.08278 0.3303 0.32672 0.0
C2077 C 0.08854 0.2788 0.31779 0.0
C2078 C 0.07508 0.28843 0.30834 0.0
H2079 H 0.11054 0.27986 0.33686 0.0
H2080 H 0.0905 0.26447 0.31524 0.0
C2081 C 0.0729 0.307 0.31204 0.0
C2082 C 0.22959 0.59906 0.30557 0.0
C2083 C 0.22684 0.5948 0.32406 0.0
H2084 H 0.24178 0.59141 0.28033 0.0
C2085 C 0.23296 0.57793 0.33063 0.0
H2086 H 0.22519 0.61192 0.3 0.0
C2087 C 0.24263 0.56618 0.31932 0.0
C2088 C 0.24644 0.57107 0.3012 0.0
H2089 H 0.2308 0.57404 0.3447 0.0
H2090 H 0.24801 0.55378 0.32508 0.0
C2091 C 0.23925 0.58734 0.2943 0.0
C2092 C 0.94691 0.747 0.32188 0.0
C2093 C 0.9494 0.72811 0.32121 0.0
H2094 H 0.95598 0.77328 0.31295 0.0
C2095 C 0.96432 0.72143 0.31136 0.0
H2096 H 0.93551 0.75267 0.32914 0.0
C2097 C 0.97601 0.73332 0.30187 0.0
C2098 C 0.97299 0.75213 0.30196 0.0
H2099 H 0.96681 0.70698 0.31074 0.0
H2100 H 0.98698 0.72772 0.29391 0.0
C2101 C 0.95854 0.75883 0.31241 0.0
C2102 C 0.80572 0.45205 0.32285 0.0
C2103 C 0.8245 0.45433 0.31983 0.0
H2104 H 0.77883 0.46126 0.317 0.0
C2105 C 0.83045 0.46911 0.309 0.0
H2106 H 0.80054 0.44078 0.33092 0.0
C2107 C 0.81788 0.48083 0.30082 0.0
C2108 C 0.79909 0.47796 0.30322 0.0
H2109 H 0.84482 0.47145 0.30659 0.0
H2110 H 0.82283 0.49167 0.29205 0.0
C2111 C 0.79322 0.46371 0.31469 0.0
C2112 C 0.22278 0.5978 0.75833 0.0
C2113 C 0.22371 0.59903 0.73925 0.0
H2114 H 0.23375 0.5862 0.78271 0.0
C2115 C 0.23633 0.58816 0.73001 0.0
H2116 H 0.21342 0.60611 0.76592 0.0
C2117 C 0.24794 0.57657 0.73973 0.0
C2118 C 0.24731 0.57589 0.75883 0.0
H2119 H 0.23731 0.58874 0.71531 0.0
H2120 H 0.25782 0.56864 0.73239 0.0
C2121 C 0.23447 0.58645 0.76798 0.0
C2122 C 0.21972 0.46298 0.31595 0.0
C2123 C 0.226 0.44735 0.32502 0.0
H2124 H 0.22654 0.48619 0.29942 0.0
C2125 C 0.24485 0.44429 0.32557 0.0
H2126 H 0.20532 0.46593 0.31548 0.0
C2127 C 0.25699 0.456 0.31655 0.0
C2128 C 0.25062 0.47108 0.30669 0.0
H2129 H 0.25023 0.43238 0.33229 0.0
H2130 H 0.27137 0.45293 0.31683 0.0
C2131 C 0.23189 0.47473 0.30692 0.0
C2132 C 0.07929 0.72284 0.31643 0.0
C2133 C 0.0966 0.72868 0.32248 0.0
H2134 H 0.05501 0.72955 0.30172 0.0
C2135 C 0.10169 0.74697 0.31975 0.0
H2136 H 0.0748 0.70892 0.31856 0.0
C2137 C 0.09028 0.7588 0.31029 0.0
C2138 C 0.07347 0.75267 0.30328 0.0
H2139 H 0.11492 0.75197 0.32409 0.0
H2140 H 0.09492 0.77262 0.30784 0.0
C2141 C 0.06784 0.73471 0.30698 0.0
C2142 C 0.80537 0.58574 0.33892 0.0
C2143 C 0.81424 0.60158 0.33247 0.0
H2144 H 0.78878 0.56243 0.33233 0.0
C2145 C 0.81412 0.60514 0.31365 0.0
H2146 H 0.80538 0.58246 0.3533 0.0
C2147 C 0.80476 0.59363 0.30171 0.0
C2148 C 0.79525 0.57824 0.30822 0.0
H2149 H 0.82061 0.61727 0.30818 0.0
H2150 H 0.80455 0.59705 0.28735 0.0
C2151 C 0.79602 0.57415 0.3269 0.0
C2152 C 0.96947 0.31218 0.32826 0.0
C2153 C 0.95312 0.31968 0.32181 0.0
H2154 H 0.9929 0.2962 0.32218 0.0
C2155 C 0.94904 0.31819 0.30315 0.0
H2156 H 0.97322 0.31332 0.34247 0.0
C2157 C 0.96043 0.30858 0.2915 0.0
C2158 C 0.9762 0.30015 0.29818 0.0
H2159 H 0.93656 0.32367 0.29766 0.0
H2160 H 0.95655 0.3072 0.27734 0.0
C2161 C 0.98089 0.30255 0.31658 0.0
C2162 C 0.8167 0.4672 0.73798 0.0
C2163 C 0.82442 0.4523 0.74713 0.0
H2164 H 0.79869 0.48995 0.73964 0.0
C2165 C 0.82029 0.44958 0.76563 0.0
H2166 H 0.81973 0.46973 0.72377 0.0
C2167 C 0.80831 0.46106 0.77462 0.0
C2168 C 0.80026 0.47567 0.76541 0.0
H2169 H 0.82584 0.43816 0.77305 0.0
H2170 H 0.80502 0.45829 0.78874 0.0
C2171 C 0.80483 0.47887 0.74709 0.0
C2172 C 0.09737 0.2926 0.72702 0.0
C2173 C 0.09646 0.31155 0.72471 0.0
H2174 H 0.08686 0.26897 0.74071 0.0
C2175 C 0.08281 0.32106 0.73398 0.0
H2176 H 0.10779 0.28486 0.72026 0.0
C2177 C 0.07071 0.31187 0.74567 0.0
C2178 C 0.0722 0.29305 0.7485 0.0
H2179 H 0.08166 0.33563 0.73237 0.0
H2180 H 0.0607 0.31957 0.75309 0.0
C2181 C 0.08543 0.28349 0.73879 0.0
C2182 C 0.96285 0.72963 0.73244 0.0
C2183 C 0.94956 0.73915 0.72254 0.0
H2184 H 0.98462 0.73121 0.75199 0.0
C2185 C 0.94895 0.75816 0.72419 0.0
H2186 H 0.96376 0.71501 0.73135 0.0
C2187 C 0.96082 0.76736 0.73594 0.0
C2188 C 0.97372 0.75782 0.74625 0.0
H2189 H 0.9388 0.76591 0.71692 0.0
H2190 H 0.95961 0.78194 0.73734 0.0
C2191 C 0.9749 0.7389 0.74409 0.0
C2192 C 0.76116 0.22574 0.6028 0.0
C2193 C 0.74224 0.2229 0.60143 0.0
H2194 H 0.78464 0.24018 0.59289 0.0
C2195 C 0.73265 0.23199 0.58758 0.0
H2196 H 0.76896 0.21912 0.61339 0.0
C2197 C 0.74173 0.24401 0.5757 0.0
C2198 C 0.76051 0.24735 0.57763 0.0
H2199 H 0.71809 0.22997 0.58609 0.0
H2200 H 0.73396 0.25126 0.56551 0.0
C2201 C 0.77015 0.23786 0.5911 0.0
C2202 C 0.31577 0.24269 0.61031 0.0
C2203 C 0.31405 0.22392 0.60716 0.0
H2204 H 0.30828 0.26951 0.60215 0.0
C2205 C 0.30368 0.21801 0.5921 0.0
H2206 H 0.32344 0.24778 0.62185 0.0
C2207 C 0.2948 0.23056 0.58084 0.0
C2208 C 0.29601 0.24926 0.58448 0.0
H2209 H 0.30224 0.20367 0.58915 0.0
H2210 H 0.28649 0.22558 0.5697 0.0
C2211 C 0.30689 0.25517 0.59912 0.0
C2212 C 0.31863 0.8037 0.60361 0.0
C2213 C 0.31967 0.82246 0.59998 0.0
H2214 H 0.30829 0.77771 0.5953 0.0
C2215 C 0.31211 0.82901 0.58361 0.0
H2216 H 0.32415 0.79813 0.61609 0.0
C2217 C 0.30287 0.81724 0.5717 0.0
C2218 C 0.30091 0.79869 0.57594 0.0
H2219 H 0.31291 0.84333 0.58023 0.0
H2220 H 0.29645 0.82283 0.55966 0.0
C2221 C 0.30939 0.79198 0.59174 0.0
C2222 C 0.7458 0.83413 0.59075 0.0
C2223 C 0.73451 0.82786 0.60502 0.0
H2224 H 0.76341 0.82704 0.56863 0.0
C2225 C 0.73152 0.80905 0.60689 0.0
H2226 H 0.74823 0.84854 0.58874 0.0
C2227 C 0.74005 0.79682 0.59531 0.0
C2228 C 0.75189 0.80302 0.58152 0.0
H2229 H 0.7231 0.80365 0.61778 0.0
H2230 H 0.73766 0.78241 0.59739 0.0
C2231 C 0.75436 0.82184 0.57909 0.0
C2232 C 0.73683 0.83065 0.47387 0.0
C2233 C 0.72898 0.82409 0.45764 0.0
H2234 H 0.7529 0.82459 0.49751 0.0
C2235 C 0.73015 0.80544 0.45381 0.0
H2236 H 0.73598 0.8449 0.47735 0.0
C2237 C 0.73971 0.79384 0.46539 0.0
C2238 C 0.74833 0.80057 0.48112 0.0
H2239 H 0.72441 0.79991 0.44139 0.0
H2240 H 0.74085 0.77966 0.46173 0.0
C2241 C 0.74635 0.819 0.48552 0.0
C2242 C 0.7451 0.23629 0.45152 0.0
C2243 C 0.72624 0.23673 0.45468 0.0
H2244 H 0.77163 0.24524 0.45982 0.0
C2245 C 0.71994 0.24617 0.47005 0.0
H2246 H 0.75051 0.22936 0.43978 0.0
C2247 C 0.73214 0.25549 0.48152 0.0
C2248 C 0.75091 0.25567 0.47781 0.0
H2249 H 0.70553 0.2466 0.47307 0.0
H2250 H 0.72682 0.26313 0.49285 0.0
C2251 C 0.75723 0.24559 0.46292 0.0
C2252 C 0.30358 0.23104 0.46072 0.0
C2253 C 0.3221 0.23595 0.45925 0.0
H2254 H 0.27787 0.23634 0.47325 0.0
C2255 C 0.32916 0.24924 0.47121 0.0
H2256 H 0.2977 0.22056 0.45215 0.0
C2257 C 0.31779 0.25795 0.48366 0.0
C2258 C 0.29914 0.25367 0.48426 0.0
H2259 H 0.34327 0.25355 0.47041 0.0
H2260 H 0.32336 0.26865 0.49215 0.0
C2261 C 0.29222 0.23991 0.47294 0.0
C2262 C 0.30665 0.83194 0.46629 0.0
C2263 C 0.31639 0.82554 0.45114 0.0
H2264 H 0.28975 0.82516 0.48925 0.0
C2265 C 0.31744 0.80667 0.44855 0.0
H2266 H 0.30575 0.84637 0.46887 0.0
C2267 C 0.30844 0.79459 0.4603 0.0
C2268 C 0.29808 0.80098 0.47497 0.0
H2269 H 0.32462 0.80118 0.437 0.0
H2270 H 0.30924 0.78016 0.45762 0.0
C2271 C 0.29764 0.81979 0.4781 0.0
C2272 C 0.60259 0.23062 0.74657 0.0
C2273 C 0.6011 0.23359 0.72771 0.0
H2274 H 0.59261 0.23676 0.77314 0.0
C2275 C 0.58697 0.24473 0.72128 0.0
H2276 H 0.61334 0.22232 0.75211 0.0
C2277 C 0.57511 0.25322 0.73346 0.0
C2278 C 0.57718 0.25083 0.75234 0.0
H2279 H 0.58524 0.24712 0.70683 0.0
H2280 H 0.5648 0.26219 0.72814 0.0
C2281 C 0.59079 0.23909 0.75868 0.0
C2282 C 0.32359 0.09759 0.76335 0.0
C2283 C 0.32732 0.09567 0.7447 0.0
H2284 H 0.30828 0.08808 0.78633 0.0
C2285 C 0.31883 0.08138 0.73511 0.0
H2286 H 0.32975 0.10854 0.77111 0.0
C2287 C 0.30655 0.06954 0.74392 0.0
C2288 C 0.30236 0.07197 0.7624 0.0
H2289 H 0.32154 0.07946 0.72076 0.0
H2290 H 0.2998 0.05895 0.73614 0.0
C2291 C 0.31123 0.08593 0.77206 0.0
C2292 C 0.46584 0.80576 0.72462 0.0
C2293 C 0.45095 0.8157 0.73117 0.0
H2294 H 0.48852 0.7888 0.73119 0.0
C2295 C 0.44865 0.81715 0.7501 0.0
H2296 H 0.46821 0.80457 0.71014 0.0
C2297 C 0.46041 0.80831 0.76212 0.0
C2298 C 0.47479 0.79771 0.75558 0.0
H2299 H 0.43731 0.82451 0.7557 0.0
H2300 H 0.45797 0.80942 0.77661 0.0
C2301 C 0.47763 0.79689 0.73669 0.0
C2302 C 0.74495 0.95149 0.73869 0.0
C2303 C 0.72609 0.95328 0.74119 0.0
H2304 H 0.77167 0.96108 0.74556 0.0
C2305 C 0.71985 0.96742 0.75234 0.0
H2306 H 0.75032 0.94069 0.73039 0.0
C2307 C 0.73219 0.97906 0.76126 0.0
C2308 C 0.75104 0.97673 0.75928 0.0
H2309 H 0.70541 0.96936 0.75438 0.0
H2310 H 0.72699 0.98943 0.77019 0.0
C2311 C 0.75723 0.96306 0.74758 0.0
C2312 C 0.59931 0.78781 0.32922 0.0
C2313 C 0.59666 0.8061 0.33384 0.0
H2314 H 0.59067 0.76524 0.31291 0.0
C2315 C 0.5819 0.81535 0.32603 0.0
H2316 H 0.61062 0.78032 0.33484 0.0
C2317 C 0.5704 0.80664 0.31348 0.0
C2318 C 0.57358 0.78859 0.30833 0.0
H2319 H 0.57941 0.8294 0.32944 0.0
H2320 H 0.5595 0.81424 0.30722 0.0
C2321 C 0.58794 0.77918 0.31658 0.0
C2322 C 0.72527 0.09628 0.31059 0.0
C2323 C 0.73001 0.09812 0.32908 0.0
H2324 H 0.73076 0.08329 0.28516 0.0
C2325 C 0.74304 0.08619 0.33642 0.0
H2326 H 0.715 0.10481 0.30451 0.0
C2327 C 0.75173 0.07349 0.32533 0.0
C2328 C 0.7477 0.07256 0.30668 0.0
H2329 H 0.74721 0.08724 0.35052 0.0
H2330 H 0.76231 0.0651 0.33111 0.0
C2331 C 0.73412 0.0838 0.29952 0.0
C2332 C 0.44537 0.24897 0.32053 0.0
C2333 C 0.45007 0.23076 0.32374 0.0
H2334 H 0.45247 0.27421 0.30762 0.0
C2335 C 0.46701 0.22467 0.31742 0.0
H2336 H 0.43242 0.25414 0.32506 0.0
C2337 C 0.47848 0.2362 0.30728 0.0
C2338 C 0.47324 0.25405 0.30317 0.0
H2339 H 0.47118 0.21082 0.31988 0.0
H2340 H 0.49102 0.23084 0.30188 0.0
C2341 C 0.45681 0.26045 0.31038 0.0
C2342 C 0.32724 0.95395 0.29321 0.0
C2343 C 0.32971 0.95463 0.31219 0.0
H2344 H 0.31309 0.96435 0.26995 0.0
C2345 C 0.32035 0.96789 0.32213 0.0
H2346 H 0.33406 0.94382 0.28514 0.0
C2347 C 0.3084 0.9798 0.31333 0.0
C2348 C 0.30539 0.9785 0.29448 0.0
H2349 H 0.32207 0.96886 0.33674 0.0
H2350 H 0.30088 0.98946 0.32136 0.0
C2351 C 0.31518 0.96567 0.28449 0.0
C2352 C 0.74809 0.10432 0.73809 0.0
C2353 C 0.72946 0.10001 0.73643 0.0
H2354 H 0.77392 0.09694 0.74927 0.0
C2355 C 0.72304 0.08345 0.74384 0.0
H2356 H 0.75354 0.11698 0.73271 0.0
C2357 C 0.73478 0.07196 0.75344 0.0
C2358 C 0.75317 0.07683 0.75595 0.0
H2359 H 0.70883 0.07956 0.74259 0.0
H2360 H 0.72926 0.05971 0.75966 0.0
C2361 C 0.75978 0.09289 0.74773 0.0
C2362 C 0.72457 0.9629 0.32636 0.0
C2363 C 0.71698 0.94814 0.31673 0.0
H2364 H 0.74298 0.98584 0.32572 0.0
C2365 C 0.72167 0.94594 0.29832 0.0
H2366 H 0.72111 0.96505 0.3405 0.0
C2367 C 0.7341 0.95777 0.28994 0.0
C2368 C 0.7421 0.97219 0.29969 0.0
H2369 H 0.71624 0.93464 0.29054 0.0
H2370 H 0.73782 0.95539 0.27589 0.0
C2371 C 0.73692 0.9749 0.31787 0.0
C2372 C 0.58187 0.22192 0.30958 0.0
C2373 C 0.59719 0.22868 0.3191 0.0
H2374 H 0.55893 0.22805 0.29255 0.0
C2375 C 0.60003 0.2476 0.3197 0.0
H2376 H 0.57909 0.20745 0.30904 0.0
C2377 C 0.58839 0.25935 0.31044 0.0
C2378 C 0.57358 0.25256 0.30025 0.0
H2379 H 0.61171 0.25335 0.32672 0.0
H2380 H 0.59127 0.27381 0.31088 0.0
C2381 C 0.57018 0.23373 0.3003 0.0
C2382 C 0.30585 0.08507 0.33661 0.0
C2383 C 0.31419 0.10119 0.33011 0.0
H2384 H 0.28957 0.06148 0.33021 0.0
C2385 C 0.3134 0.10498 0.31136 0.0
H2386 H 0.30638 0.08161 0.35094 0.0
C2387 C 0.30393 0.09342 0.29956 0.0
C2388 C 0.29494 0.07775 0.30614 0.0
H2389 H 0.31947 0.1173 0.30585 0.0
H2390 H 0.30324 0.09701 0.28525 0.0
C2391 C 0.29638 0.07344 0.32473 0.0
C2392 C 0.46697 0.81043 0.32923 0.0
C2393 C 0.45146 0.81949 0.32271 0.0
H2394 H 0.48985 0.79381 0.32281 0.0
C2395 C 0.44837 0.81997 0.30381 0.0
H2396 H 0.46996 0.81002 0.34367 0.0
C2397 C 0.45988 0.81086 0.29188 0.0
C2398 C 0.4748 0.80098 0.29848 0.0
H2399 H 0.43655 0.82667 0.29825 0.0
H2400 H 0.45676 0.81108 0.27746 0.0
C2401 C 0.47852 0.80132 0.31726 0.0
C2402 C 0.32425 0.94913 0.76022 0.0
C2403 C 0.32459 0.94893 0.74109 0.0
H2404 H 0.31214 0.95988 0.78428 0.0
C2405 C 0.31294 0.96068 0.7315 0.0
H2406 H 0.33284 0.94013 0.76805 0.0
C2407 C 0.30109 0.97217 0.7409 0.0
C2408 C 0.30047 0.97186 0.76002 0.0
H2409 H 0.31295 0.96091 0.71676 0.0
H2410 H 0.29201 0.98083 0.73326 0.0
C2411 C 0.31233 0.96037 0.76954 0.0
C2412 C 0.59696 0.79507 0.72561 0.0
C2413 C 0.59825 0.81409 0.72693 0.0
H2414 H 0.58521 0.77044 0.73609 0.0
C2415 C 0.58736 0.82295 0.73984 0.0
H2416 H 0.60528 0.78776 0.71602 0.0
C2417 C 0.57574 0.81293 0.75139 0.0
C2418 C 0.57503 0.79387 0.75038 0.0
H2419 H 0.58796 0.8376 0.74112 0.0
H2420 H 0.56782 0.81999 0.7615 0.0
C2421 C 0.58555 0.78511 0.7372 0.0
C2422 C 0.44866 0.23088 0.7486 0.0
C2423 C 0.45246 0.22951 0.72991 0.0
H2424 H 0.45679 0.24174 0.77439 0.0
C2425 C 0.46883 0.23716 0.72328 0.0
H2426 H 0.43615 0.2253 0.75419 0.0
C2427 C 0.48066 0.24669 0.73491 0.0
C2428 C 0.4763 0.24888 0.75338 0.0
H2429 H 0.47229 0.23616 0.709 0.0
H2430 H 0.49277 0.25309 0.72927 0.0
C2431 C 0.46042 0.24044 0.76017 0.0
C2432 C 0.73348 0.74559 0.10501 0.0
C2433 C 0.73447 0.72676 0.10212 0.0
H2434 H 0.74188 0.77219 0.09644 0.0
C2435 C 0.74431 0.72053 0.08697 0.0
H2436 H 0.72622 0.75093 0.11659 0.0
C2437 C 0.75346 0.73282 0.07542 0.0
C2438 C 0.75306 0.75157 0.07887 0.0
H2439 H 0.74518 0.70613 0.08421 0.0
H2440 H 0.76141 0.72762 0.06423 0.0
C2441 C 0.74263 0.7578 0.09354 0.0
C2442 C 0.30198 0.71755 0.09195 0.0
C2443 C 0.31246 0.72345 0.10693 0.0
H2444 H 0.28486 0.72516 0.06949 0.0
C2445 C 0.31446 0.74223 0.10989 0.0
H2446 H 0.30032 0.7032 0.08913 0.0
C2447 C 0.30574 0.75473 0.0986 0.0
C2448 C 0.29475 0.74885 0.08403 0.0
H2449 H 0.32223 0.74732 0.12137 0.0
H2450 H 0.30734 0.76908 0.1015 0.0
C2451 C 0.29327 0.73012 0.08057 0.0
C2452 C 0.2906 0.33024 0.09972 0.0
C2453 C 0.30966 0.3322 0.09927 0.0
H2454 H 0.26698 0.31677 0.08886 0.0
C2455 C 0.31942 0.32271 0.08593 0.0
H2456 H 0.28266 0.33716 0.10991 0.0
C2457 C 0.31034 0.31111 0.07371 0.0
C2458 C 0.29139 0.30859 0.0748 0.0
H2459 H 0.3341 0.32405 0.08513 0.0
H2460 H 0.31821 0.30346 0.064 0.0
C2461 C 0.2816 0.31853 0.0877 0.0
C2462 C 0.731 0.32563 0.09149 0.0
C2463 C 0.74045 0.33445 0.10569 0.0
H2464 H 0.73244 0.30692 0.06916 0.0
C2465 C 0.75929 0.33172 0.1074 0.0
H2466 H 0.71652 0.32756 0.08971 0.0
C2467 C 0.76833 0.31999 0.09568 0.0
C2468 C 0.75882 0.31074 0.08186 0.0
H2469 H 0.76697 0.33814 0.11826 0.0
H2470 H 0.78274 0.31776 0.09772 0.0
C2471 C 0.74014 0.31398 0.07961 0.0
C2472 C 0.72935 0.30677 0.95504 0.0
C2473 C 0.72886 0.32554 0.95851 0.0
H2474 H 0.73929 0.28079 0.96334 0.0
C2475 C 0.73705 0.33213 0.97456 0.0
H2476 H 0.72332 0.3012 0.94278 0.0
C2477 C 0.74632 0.32038 0.98634 0.0
C2478 C 0.74768 0.30181 0.98226 0.0
H2479 H 0.7367 0.34646 0.9778 0.0
H2480 H 0.75321 0.32601 0.99812 0.0
C2481 C 0.73863 0.29507 0.96676 0.0
C2482 C 0.72942 0.73326 0.96904 0.0
C2483 C 0.72032 0.74266 0.95505 0.0
H2484 H 0.74852 0.73489 0.99124 0.0
C2485 C 0.72299 0.76157 0.95357 0.0
H2486 H 0.72755 0.71873 0.97065 0.0
C2487 C 0.73491 0.77074 0.9653 0.0
C2488 C 0.74441 0.76129 0.97892 0.0
H2489 H 0.71638 0.76924 0.94288 0.0
H2490 H 0.73706 0.78521 0.96343 0.0
C2491 C 0.74126 0.74252 0.98095 0.0
C2492 C 0.30299 0.73076 0.96017 0.0
C2493 C 0.32158 0.73549 0.95902 0.0
H2494 H 0.27715 0.73622 0.97235 0.0
C2495 C 0.32858 0.74863 0.97118 0.0
H2496 H 0.29715 0.7204 0.95144 0.0
C2497 C 0.31711 0.75736 0.98352 0.0
C2498 C 0.29841 0.75327 0.9838 0.0
H2499 H 0.34275 0.75279 0.97063 0.0
H2500 H 0.32267 0.76794 0.99218 0.0
C2501 C 0.29154 0.73966 0.97228 0.0
C2502 C 0.29652 0.32618 0.95042 0.0
C2503 C 0.31563 0.32718 0.95054 0.0
H2504 H 0.27248 0.31362 0.96136 0.0
C2505 C 0.3252 0.31625 0.96302 0.0
H2506 H 0.2887 0.33419 0.94087 0.0
C2507 C 0.3158 0.30446 0.97495 0.0
C2508 C 0.29671 0.3032 0.97435 0.0
H2509 H 0.33993 0.31678 0.96351 0.0
H2510 H 0.32343 0.29594 0.9842 0.0
C2511 C 0.28721 0.31432 0.9621 0.0
C2512 C 0.60136 0.75808 0.22942 0.0
C2513 C 0.59898 0.73971 0.2247 0.0
H2514 H 0.59194 0.78044 0.24525 0.0
C2515 C 0.58389 0.73008 0.23181 0.0
H2516 H 0.6129 0.76587 0.22436 0.0
C2517 C 0.57174 0.73855 0.24373 0.0
C2518 C 0.57462 0.7567 0.24895 0.0
H2519 H 0.58159 0.71596 0.22832 0.0
H2520 H 0.56055 0.7307 0.24945 0.0
C2521 C 0.58939 0.76643 0.24144 0.0
C2522 C 0.31834 0.58143 0.2359 0.0
C2523 C 0.32693 0.59572 0.24543 0.0
H2524 H 0.29944 0.55891 0.23712 0.0
C2525 C 0.32351 0.5975 0.26417 0.0
H2526 H 0.32081 0.57962 0.2215 0.0
C2527 C 0.31136 0.58572 0.27301 0.0
C2528 C 0.30238 0.57178 0.26341 0.0
H2529 H 0.32973 0.60843 0.27189 0.0
H2530 H 0.30863 0.58777 0.28734 0.0
C2531 C 0.30627 0.56948 0.24485 0.0
C2532 C 0.46284 0.32052 0.2325 0.0
C2533 C 0.44881 0.31085 0.22357 0.0
H2534 H 0.4852 0.31939 0.25142 0.0
C2535 C 0.4474 0.29196 0.22636 0.0
H2536 H 0.4644 0.33505 0.23053 0.0
C2537 C 0.45924 0.28309 0.23825 0.0
C2538 C 0.47292 0.2928 0.24757 0.0
H2539 H 0.43667 0.28409 0.21988 0.0
H2540 H 0.45743 0.26862 0.24051 0.0
C2541 C 0.47487 0.31155 0.24429 0.0
C2542 C 0.72184 0.45245 0.26553 0.0
C2543 C 0.71892 0.4544 0.2467 0.0
H2544 H 0.73618 0.4619 0.28913 0.0
C2545 C 0.72775 0.46878 0.23743 0.0
H2546 H 0.71542 0.44144 0.27306 0.0
C2547 C 0.7396 0.48062 0.24673 0.0
C2548 C 0.74303 0.47813 0.26539 0.0
H2549 H 0.72566 0.47072 0.22296 0.0
H2550 H 0.74666 0.49124 0.23919 0.0
C2551 C 0.73379 0.46412 0.27473 0.0
C2552 C 0.60095 0.2884 0.83014 0.0
C2553 C 0.59877 0.30705 0.83343 0.0
H2554 H 0.59209 0.26505 0.81511 0.0
C2555 C 0.58465 0.31624 0.82444 0.0
H2556 H 0.61178 0.28094 0.83669 0.0
C2557 C 0.5733 0.30707 0.81207 0.0
C2558 C 0.57601 0.28859 0.80829 0.0
H2559 H 0.58252 0.33057 0.82681 0.0
H2560 H 0.56288 0.31458 0.80493 0.0
C2561 C 0.58975 0.27931 0.81769 0.0
C2562 C 0.75643 0.59971 0.83535 0.0
C2563 C 0.73737 0.59909 0.83715 0.0
H2564 H 0.77993 0.5891 0.8221 0.0
C2565 C 0.72749 0.58574 0.82746 0.0
H2566 H 0.76447 0.60991 0.84242 0.0
C2567 C 0.73646 0.57367 0.81586 0.0
C2568 C 0.75541 0.57491 0.81355 0.0
H2569 H 0.71282 0.58481 0.82866 0.0
H2570 H 0.7285 0.56392 0.80809 0.0
C2571 C 0.7653 0.58783 0.82366 0.0
C2572 C 0.46824 0.7237 0.81893 0.0
C2573 C 0.45202 0.73006 0.82669 0.0
H2574 H 0.49181 0.72999 0.80283 0.0
C2575 C 0.44842 0.74877 0.82568 0.0
H2576 H 0.47162 0.70944 0.81972 0.0
C2577 C 0.46012 0.76057 0.81621 0.0
C2578 C 0.47572 0.754 0.80747 0.0
H2579 H 0.43605 0.75419 0.83138 0.0
H2580 H 0.45658 0.77478 0.81514 0.0
C2581 C 0.47996 0.73552 0.80945 0.0
C2582 C 0.32841 0.45314 0.79298 0.0
C2583 C 0.33095 0.45368 0.81195 0.0
H2584 H 0.3141 0.46365 0.76986 0.0
C2585 C 0.32156 0.46681 0.82203 0.0
H2586 H 0.33525 0.44311 0.7848 0.0
C2587 C 0.30951 0.47874 0.81337 0.0
C2588 C 0.30644 0.47758 0.79452 0.0
H2589 H 0.32334 0.46768 0.83664 0.0
H2590 H 0.30198 0.4883 0.82151 0.0
C2591 C 0.31626 0.46487 0.7844 0.0
C2592 C 0.73396 0.58907 0.23267 0.0
C2593 C 0.72254 0.60105 0.24208 0.0
H2594 H 0.7547 0.56871 0.23471 0.0
C2595 C 0.72303 0.60103 0.26121 0.0
H2596 H 0.73383 0.58868 0.21793 0.0
C2597 C 0.7349 0.58975 0.27068 0.0
C2598 C 0.74657 0.57806 0.26134 0.0
H2599 H 0.71463 0.61021 0.26892 0.0
H2600 H 0.73519 0.59037 0.28541 0.0
C2601 C 0.74578 0.57755 0.24223 0.0
C2602 C 0.72116 0.44954 0.79831 0.0
C2603 C 0.71743 0.45109 0.81701 0.0
H2604 H 0.73641 0.45956 0.77549 0.0
C2605 C 0.7257 0.46539 0.82679 0.0
H2606 H 0.7152 0.43861 0.79038 0.0
C2607 C 0.73784 0.47752 0.81816 0.0
C2608 C 0.7421 0.4754 0.79966 0.0
H2609 H 0.72299 0.46704 0.84117 0.0
H2610 H 0.74449 0.48803 0.82612 0.0
C2611 C 0.73337 0.4615 0.78978 0.0
C2612 C 0.59869 0.72073 0.79516 0.0
C2613 C 0.59837 0.71985 0.81429 0.0
H2614 H 0.58798 0.733 0.771 0.0
C2615 C 0.58553 0.73033 0.82367 0.0
H2616 H 0.60848 0.71302 0.78748 0.0
C2617 C 0.57367 0.74178 0.81413 0.0
C2618 C 0.57459 0.74316 0.79506 0.0
H2619 H 0.58481 0.72984 0.83839 0.0
H2620 H 0.56432 0.75013 0.8217 0.0
C2621 C 0.58699 0.73225 0.78569 0.0
C2622 C 0.31399 0.60433 0.81118 0.0
C2623 C 0.31473 0.60062 0.82995 0.0
H2624 H 0.30397 0.5962 0.78507 0.0
C2625 C 0.30645 0.58448 0.83648 0.0
H2626 H 0.32001 0.61666 0.80564 0.0
C2627 C 0.29708 0.57275 0.82461 0.0
C2628 C 0.29569 0.57698 0.806 0.0
H2629 H 0.30694 0.58108 0.85083 0.0
H2630 H 0.29032 0.56078 0.83011 0.0
C2631 C 0.30462 0.59267 0.79939 0.0
C2632 C 0.45001 0.31763 0.80293 0.0
C2633 C 0.45378 0.31868 0.82168 0.0
H2634 H 0.4579 0.30718 0.777 0.0
C2635 C 0.46997 0.31092 0.82824 0.0
H2636 H 0.43766 0.32332 0.79736 0.0
C2637 C 0.48154 0.30152 0.81653 0.0
C2638 C 0.47717 0.29959 0.79799 0.0
H2639 H 0.47347 0.31172 0.84254 0.0
H2640 H 0.49343 0.29498 0.82217 0.0
C2641 C 0.46155 0.30823 0.79125 0.0
C2642 C 0.32422 0.44827 0.26165 0.0
C2643 C 0.32514 0.44872 0.24255 0.0
H2644 H 0.31165 0.45848 0.28571 0.0
C2645 C 0.31408 0.46107 0.23304 0.0
H2646 H 0.33234 0.4388 0.26943 0.0
C2647 C 0.30218 0.47249 0.24247 0.0
C2648 C 0.30094 0.47153 0.26154 0.0
H2649 H 0.31455 0.46184 0.21832 0.0
H2650 H 0.29354 0.48161 0.23485 0.0
C2651 C 0.31227 0.45947 0.271 0.0
C2652 C 0.58098 0.31298 0.22406 0.0
C2653 C 0.59709 0.3213 0.23054 0.0
H2654 H 0.55729 0.29686 0.23051 0.0
C2655 C 0.60052 0.32106 0.24938 0.0
H2656 H 0.57777 0.31313 0.20967 0.0
C2657 C 0.58872 0.3119 0.26129 0.0
C2658 C 0.57316 0.30274 0.25469 0.0
H2659 H 0.61282 0.32719 0.25489 0.0
H2660 H 0.59214 0.31141 0.27564 0.0
C2661 C 0.56912 0.30385 0.23602 0.0
C2662 C 0.45011 0.75481 0.22574 0.0
C2663 C 0.45008 0.73572 0.22539 0.0
H2664 H 0.46111 0.77905 0.23763 0.0
C2665 C 0.4624 0.72641 0.23668 0.0
H2666 H 0.44067 0.76242 0.21742 0.0
C2667 C 0.47423 0.73603 0.2483 0.0
C2668 C 0.47373 0.75509 0.24901 0.0
H2669 H 0.46279 0.71171 0.23664 0.0
H2670 H 0.48329 0.72858 0.25717 0.0
C2671 C 0.46173 0.76435 0.23741 0.0
loop_
_geom_bond_atom_site_label_1
_geom_bond_atom_site_label_2
_geom_bond_distance
_geom_bond_site_symmetry_2
_ccdc_geom_bond_type
C0 C1 1.264 . S
C0 C5 1.479 . S
C0 C10 1.465 . S
C1 C0 1.264 . S
C1 C3 1.339 . S
C1 H28 0.931 . S
C2 C3 1.395 . S
C2 C4 1.320 . S
C3 C1 1.339 . S
C3 C2 1.395 . S
C3 H29 0.929 . S
C4 C2 1.320 . S
C4 C5 1.405 . S
C4 H30 0.930 . S
C5 C0 1.479 . S
C5 C4 1.405 . S
C5 H31 0.931 . S
U6 O7 2.454 . S
U6 O8 2.458 . S
U6 C9 2.984 . S
U6 C10 2.847 . S
U6 C23 2.882 . S
U6 O24 2.441 . S
U6 O25 2.420 . S
U6 O26 2.455 . S
U6 O27 2.449 . S
O7 U6 2.454 . S
O7 C9 1.353 . S
O8 U6 2.458 . S
O8 C9 1.286 . S
C9 U6 2.984 . S
C9 O7 1.353 . S
C9 O8 1.286 . S
C9 C11 1.363 . S
C10 C0 1.465 . S
C10 U6 2.847 . S
C10 O24 1.249 . S
C10 O25 1.202 . S
C11 C9 1.363 . S
C11 C13 1.408 . S
C11 C16 1.342 . S
C12 C13 1.310 . S
C12 C15 1.461 . S
C12 H32 0.932 . S
C13 C11 1.408 . S
C13 C12 1.310 . S
C13 H33 0.930 . S
C14 C15 1.474 . S
C14 C16 1.285 . S
C14 H34 0.929 . S
C15 C12 1.461 . S
C15 C14 1.474 . S
C16 C11 1.342 . S
C16 C14 1.285 . S
C16 H35 0.930 . S
C17 C20 1.424 . S
C17 C22 1.245 . S
C17 C23 1.428 . S
C18 C21 1.260 . S
C18 C22 1.477 . S
C18 H36 0.932 . S
C19 C20 1.384 . S
C19 C21 1.479 . S
C19 H37 0.929 . S
C20 C17 1.424 . S
C20 C19 1.384 . S
C20 H38 0.928 . S
C21 C18 1.260 . S
C21 C19 1.479 . S
C22 C17 1.245 . S
C22 C18 1.477 . S
C22 H39 0.932 . S
C23 U6 2.882 . S
C23 C17 1.428 . S
C23 O26 1.301 . S
C23 O27 1.282 . S
O24 U6 2.441 . S
O24 C10 1.249 . S
O25 U6 2.420 . S
O25 C10 1.202 . S
O26 U6 2.455 . S
O26 C23 1.301 . S
O27 U6 2.449 . S
O27 C23 1.282 . S
H28 C1 0.931 . S
H29 C3 0.929 . S
H30 C4 0.930 . S
H31 C5 0.931 . S
H32 C12 0.932 . S
H33 C13 0.930 . S
H34 C14 0.929 . S
H35 C16 0.930 . S
H36 C18 0.932 . S
H37 C19 0.929 . S
H38 C20 0.928 . S
H39 C22 0.932 . S
C40 C41 1.264 . S
C40 C45 1.479 . S
C40 C50 1.465 . S
C41 C40 1.264 . S
C41 C43 1.339 . S
C41 H68 0.931 . S
C42 C43 1.395 . S
C42 C44 1.320 . S
C43 C41 1.339 . S
C43 C42 1.395 . S
C43 H69 0.929 . S
C44 C42 1.320 . S
C44 C45 1.405 . S
C44 H70 0.930 . S
C45 C40 1.479 . S
C45 C44 1.405 . S
C45 H71 0.931 . S
U46 O47 2.454 . S
U46 O48 2.458 . S
U46 C49 2.984 . S
U46 C50 2.847 . S
U46 C63 2.882 . S
U46 O64 2.441 . S
U46 O65 2.420 . S
U46 O66 2.455 . S
U46 O67 2.449 . S
O47 U46 2.454 . S
O47 C49 1.353 . S
O48 U46 2.458 . S
O48 C49 1.286 . S
C49 U46 2.984 . S
C49 O47 1.353 . S
C49 O48 1.286 . S
C49 C51 1.363 . S
C50 C40 1.465 . S
C50 U46 2.847 . S
C50 O64 1.249 . S
C50 O65 1.202 . S
C51 C49 1.363 . S
C51 C53 1.408 . S
C51 C56 1.342 . S
C52 C53 1.310 . S
C52 C55 1.461 . S
C52 H72 0.932 . S
C53 C51 1.408 . S
C53 C52 1.310 . S
C53 H73 0.930 . S
C54 C55 1.474 . S
C54 C56 1.285 . S
C54 H74 0.929 . S
C55 C52 1.461 . S
C55 C54 1.474 . S
C56 C51 1.342 . S
C56 C54 1.285 . S
C56 H75 0.930 . S
C57 C60 1.424 . S
C57 C62 1.245 . S
C57 C63 1.428 . S
C58 C61 1.260 . S
C58 C62 1.477 . S
C58 H76 0.932 . S
C59 C60 1.384 . S
C59 C61 1.479 . S
C59 H77 0.929 . S
C60 C57 1.424 . S
C60 C59 1.384 . S
C60 H78 0.928 . S
C61 C58 1.260 . S
C61 C59 1.479 . S
C62 C57 1.245 . S
C62 C58 1.477 . S
C62 H79 0.932 . S
C63 U46 2.882 . S
C63 C57 1.428 . S
C63 O66 1.301 . S
C63 O67 1.282 . S
O64 U46 2.441 . S
O64 C50 1.249 . S
O65 U46 2.420 . S
O65 C50 1.202 . S
O66 U46 2.455 . S
O66 C63 1.301 . S
O67 U46 2.449 . S
O67 C63 1.282 . S
H68 C41 0.931 . S
H69 C43 0.929 . S
H70 C44 0.930 . S
H71 C45 0.931 . S
H72 C52 0.932 . S
H73 C53 0.930 . S
H74 C54 0.929 . S
H75 C56 0.930 . S
H76 C58 0.932 . S
H77 C59 0.929 . S
H78 C60 0.928 . S
H79 C62 0.932 . S
C80 C81 1.264 . S
C80 C85 1.479 . S
C80 C90 1.465 . S
C81 C80 1.264 . S
C81 C83 1.339 . S
C81 H108 0.931 . S
C82 C83 1.395 . S
C82 C84 1.320 . S
C83 C81 1.339 . S
C83 C82 1.395 . S
C83 H109 0.929 . S
C84 C82 1.320 . S
C84 C85 1.405 . S
C84 H110 0.930 . S
C85 C80 1.479 . S
C85 C84 1.405 . S
C85 H111 0.931 . S
U86 O87 2.454 . S
U86 O88 2.458 . S
U86 C89 2.984 . S
U86 C90 2.847 . S
U86 C103 2.882 . S
U86 O104 2.441 . S
U86 O105 2.420 . S
U86 O106 2.455 . S
U86 O107 2.449 . S
O87 U86 2.454 . S
O87 C89 1.353 . S
O88 U86 2.458 . S
O88 C89 1.286 . S
C89 U86 2.984 . S
C89 O87 1.353 . S
C89 O88 1.286 . S
C89 C91 1.363 . S
C90 C80 1.465 . S
C90 U86 2.847 . S
C90 O104 1.249 . S
C90 O105 1.202 . S
C91 C89 1.363 . S
C91 C93 1.408 . S
C91 C96 1.342 . S
C92 C93 1.310 . S
C92 C95 1.461 . S
C92 H112 0.932 . S
C93 C91 1.408 . S
C93 C92 1.310 . S
C93 H113 0.930 . S
C94 C95 1.474 . S
C94 C96 1.285 . S
C94 H114 0.929 . S
C95 C92 1.461 . S
C95 C94 1.474 . S
C96 C91 1.342 . S
C96 C94 1.285 . S
C96 H115 0.930 . S
C97 C100 1.424 . S
C97 C102 1.245 . S
C97 C103 1.428 . S
C98 C101 1.260 . S
C98 C102 1.477 . S
C98 H116 0.932 . S
C99 C100 1.384 . S
C99 C101 1.479 . S
C99 H117 0.929 . S
C100 C97 1.424 . S
C100 C99 1.384 . S
C100 H118 0.928 . S
C101 C98 1.260 . S
C101 C99 1.479 . S
C102 C97 1.245 . S
C102 C98 1.477 . S
C102 H119 0.932 . S
C103 U86 2.882 . S
C103 C97 1.428 . S
C103 O106 1.301 . S
C103 O107 1.282 . S
O104 U86 2.441 . S
O104 C90 1.249 . S
O105 U86 2.420 . S
O105 C90 1.202 . S
O106 U86 2.455 . S
O106 C103 1.301 . S
O107 U86 2.449 . S
O107 C103 1.282 . S
H108 C81 0.931 . S
H109 C83 0.929 . S
H110 C84 0.930 . S
H111 C85 0.931 . S
H112 C92 0.932 . S
H113 C93 0.930 . S
H114 C94 0.929 . S
H115 C96 0.930 . S
H116 C98 0.932 . S
H117 C99 0.929 . S
H118 C100 0.928 . S
H119 C102 0.932 . S
C120 C121 1.264 . S
C120 C125 1.479 . S
C120 C130 1.465 . S
C121 C120 1.264 . S
C121 C123 1.339 . S
C121 H148 0.931 . S
C122 C123 1.395 . S
C122 C124 1.320 . S
C123 C121 1.339 . S
C123 C122 1.395 . S
C123 H149 0.929 . S
C124 C122 1.320 . S
C124 C125 1.405 . S
C124 H150 0.930 . S
C125 C120 1.479 . S
C125 C124 1.405 . S
C125 H151 0.931 . S
U126 O127 2.454 . S
U126 O128 2.458 . S
U126 C129 2.984 . S
U126 C130 2.847 . S
U126 C143 2.882 . S
U126 O144 2.441 . S
U126 O145 2.420 . S
U126 O146 2.455 . S
U126 O147 2.449 . S
O127 U126 2.454 . S
O127 C129 1.353 . S
O128 U126 2.458 . S
O128 C129 1.286 . S
C129 U126 2.984 . S
C129 O127 1.353 . S
C129 O128 1.286 . S
C129 C131 1.363 . S
C130 C120 1.465 . S
C130 U126 2.847 . S
C130 O144 1.249 . S
C130 O145 1.202 . S
C131 C129 1.363 . S
C131 C133 1.408 . S
C131 C136 1.342 . S
C132 C133 1.310 . S
C132 C135 1.461 . S
C132 H152 0.932 . S
C133 C131 1.408 . S
C133 C132 1.310 . S
C133 H153 0.930 . S
C134 C135 1.474 . S
C134 C136 1.285 . S
C134 H154 0.929 . S
C135 C132 1.461 . S
C135 C134 1.474 . S
C136 C131 1.342 . S
C136 C134 1.285 . S
C136 H155 0.930 . S
C137 C140 1.424 . S
C137 C142 1.245 . S
C137 C143 1.428 . S
C138 C141 1.260 . S
C138 C142 1.477 . S
C138 H156 0.932 . S
C139 C140 1.384 . S
C139 C141 1.479 . S
C139 H157 0.929 . S
C140 C137 1.424 . S
C140 C139 1.384 . S
C140 H158 0.928 . S
C141 C138 1.260 . S
C141 C139 1.479 . S
C142 C137 1.245 . S
C142 C138 1.477 . S
C142 H159 0.932 . S
C143 U126 2.882 . S
C143 C137 1.428 . S
C143 O146 1.301 . S
C143 O147 1.282 . S
O144 U126 2.441 . S
O144 C130 1.249 . S
O145 U126 2.420 . S
O145 C130 1.202 . S
O146 U126 2.455 . S
O146 C143 1.301 . S
O147 U126 2.449 . S
O147 C143 1.282 . S
H148 C121 0.931 . S
H149 C123 0.929 . S
H150 C124 0.930 . S
H151 C125 0.931 . S
H152 C132 0.932 . S
H153 C133 0.930 . S
H154 C134 0.929 . S
H155 C136 0.930 . S
H156 C138 0.932 . S
H157 C139 0.929 . S
H158 C140 0.928 . S
H159 C142 0.932 . S
C160 C161 1.264 . S
C160 C165 1.479 . S
C160 C170 1.465 . S
C161 C160 1.264 . S
C161 C163 1.339 . S
C161 H188 0.931 . S
C162 C163 1.395 . S
C162 C164 1.320 . S
C163 C161 1.339 . S
C163 C162 1.395 . S
C163 H189 0.929 . S
C164 C162 1.320 . S
C164 C165 1.405 . S
C164 H190 0.930 . S
C165 C160 1.479 . S
C165 C164 1.405 . S
C165 H191 0.931 . S
U166 O167 2.454 . S
U166 O168 2.458 . S
U166 C169 2.984 . S
U166 C170 2.847 . S
U166 C183 2.882 . S
U166 O184 2.441 . S
U166 O185 2.420 . S
U166 O186 2.455 . S
U166 O187 2.449 . S
O167 U166 2.454 . S
O167 C169 1.353 . S
O168 U166 2.458 . S
O168 C169 1.286 . S
C169 U166 2.984 . S
C169 O167 1.353 . S
C169 O168 1.286 . S
C169 C171 1.363 . S
C170 C160 1.465 . S
C170 U166 2.847 . S
C170 O184 1.249 . S
C170 O185 1.202 . S
C171 C169 1.363 . S
C171 C173 1.408 . S
C171 C176 1.342 . S
C172 C173 1.310 . S
C172 C175 1.461 . S
C172 H192 0.932 . S
C173 C171 1.408 . S
C173 C172 1.310 . S
C173 H193 0.930 . S
C174 C175 1.474 . S
C174 C176 1.285 . S
C174 H194 0.929 . S
C175 C172 1.461 . S
C175 C174 1.474 . S
C176 C171 1.342 . S
C176 C174 1.285 . S
C176 H195 0.930 . S
C177 C180 1.424 . S
C177 C182 1.245 . S
C177 C183 1.428 . S
C178 C181 1.260 . S
C178 C182 1.477 . S
C178 H196 0.932 . S
C179 C180 1.384 . S
C179 C181 1.479 . S
C179 H197 0.929 . S
C180 C177 1.424 . S
C180 C179 1.384 . S
C180 H198 0.928 . S
C181 C178 1.260 . S
C181 C179 1.479 . S
C182 C177 1.245 . S
C182 C178 1.477 . S
C182 H199 0.932 . S
C183 U166 2.882 . S
C183 C177 1.428 . S
C183 O186 1.301 . S
C183 O187 1.282 . S
O184 U166 2.441 . S
O184 C170 1.249 . S
O185 U166 2.420 . S
O185 C170 1.202 . S
O186 U166 2.455 . S
O186 C183 1.301 . S
O187 U166 2.449 . S
O187 C183 1.282 . S
H188 C161 0.931 . S
H189 C163 0.929 . S
H190 C164 0.930 . S
H191 C165 0.931 . S
H192 C172 0.932 . S
H193 C173 0.930 . S
H194 C174 0.929 . S
H195 C176 0.930 . S
H196 C178 0.932 . S
H197 C179 0.929 . S
H198 C180 0.928 . S
H199 C182 0.932 . S
C200 C201 1.264 . S
C200 C205 1.479 . S
C200 C210 1.465 . S
C201 C200 1.264 . S
C201 C203 1.339 . S
C201 H228 0.931 . S
C202 C203 1.395 . S
C202 C204 1.320 . S
C203 C201 1.339 . S
C203 C202 1.395 . S
C203 H229 0.929 . S
C204 C202 1.320 . S
C204 C205 1.405 . S
C204 H230 0.930 . S
C205 C200 1.479 . S
C205 C204 1.405 . S
C205 H231 0.931 . S
U206 O207 2.454 . S
U206 O208 2.458 . S
U206 C209 2.984 . S
U206 C210 2.847 . S
U206 C223 2.882 . S
U206 O224 2.441 . S
U206 O225 2.420 . S
U206 O226 2.455 . S
U206 O227 2.449 . S
O207 U206 2.454 . S
O207 C209 1.353 . S
O208 U206 2.458 . S
O208 C209 1.286 . S
C209 U206 2.984 . S
C209 O207 1.353 . S
C209 O208 1.286 . S
C209 C211 1.363 . S
C210 C200 1.465 . S
C210 U206 2.847 . S
C210 O224 1.249 . S
C210 O225 1.202 . S
C211 C209 1.363 . S
C211 C213 1.408 . S
C211 C216 1.342 . S
C212 C213 1.310 . S
C212 C215 1.461 . S
C212 H232 0.932 . S
C213 C211 1.408 . S
C213 C212 1.310 . S
C213 H233 0.930 . S
C214 C215 1.474 . S
C214 C216 1.285 . S
C214 H234 0.929 . S
C215 C212 1.461 . S
C215 C214 1.474 . S
C216 C211 1.342 . S
C216 C214 1.285 . S
C216 H235 0.930 . S
C217 C220 1.424 . S
C217 C222 1.245 . S
C217 C223 1.428 . S
C218 C221 1.260 . S
C218 C222 1.477 . S
C218 H236 0.932 . S
C219 C220 1.384 . S
C219 C221 1.479 . S
C219 H237 0.929 . S
C220 C217 1.424 . S
C220 C219 1.384 . S
C220 H238 0.928 . S
C221 C218 1.260 . S
C221 C219 1.479 . S
C222 C217 1.245 . S
C222 C218 1.477 . S
C222 H239 0.932 . S
C223 U206 2.882 . S
C223 C217 1.428 . S
C223 O226 1.301 . S
C223 O227 1.282 . S
O224 U206 2.441 . S
O224 C210 1.249 . S
O225 U206 2.420 . S
O225 C210 1.202 . S
O226 U206 2.455 . S
O226 C223 1.301 . S
O227 U206 2.449 . S
O227 C223 1.282 . S
H228 C201 0.931 . S
H229 C203 0.929 . S
H230 C204 0.930 . S
H231 C205 0.931 . S
H232 C212 0.932 . S
H233 C213 0.930 . S
H234 C214 0.929 . S
H235 C216 0.930 . S
H236 C218 0.932 . S
H237 C219 0.929 . S
H238 C220 0.928 . S
H239 C222 0.932 . S
C240 C241 1.264 . S
C240 C245 1.479 . S
C240 C250 1.465 . S
C241 C240 1.264 . S
C241 C243 1.339 . S
C241 H268 0.931 . S
C242 C243 1.395 . S
C242 C244 1.320 . S
C243 C241 1.339 . S
C243 C242 1.395 . S
C243 H269 0.929 . S
C244 C242 1.320 . S
C244 C245 1.405 . S
C244 H270 0.930 . S
C245 C240 1.479 . S
C245 C244 1.405 . S
C245 H271 0.931 . S
U246 O247 2.454 . S
U246 O248 2.458 . S
U246 C249 2.984 . S
U246 C250 2.847 . S
U246 C263 2.882 . S
U246 O264 2.441 . S
U246 O265 2.420 . S
U246 O266 2.455 . S
U246 O267 2.449 . S
O247 U246 2.454 . S
O247 C249 1.353 . S
O248 U246 2.458 . S
O248 C249 1.286 . S
C249 U246 2.984 . S
C249 O247 1.353 . S
C249 O248 1.286 . S
C249 C251 1.363 . S
C250 C240 1.465 . S
C250 U246 2.847 . S
C250 O264 1.249 . S
C250 O265 1.202 . S
C251 C249 1.363 . S
C251 C253 1.408 . S
C251 C256 1.342 . S
C252 C253 1.310 . S
C252 C255 1.461 . S
C252 H272 0.932 . S
C253 C251 1.408 . S
C253 C252 1.310 . S
C253 H273 0.930 . S
C254 C255 1.474 . S
C254 C256 1.285 . S
C254 H274 0.929 . S
C255 C252 1.461 . S
C255 C254 1.474 . S
C256 C251 1.342 . S
C256 C254 1.285 . S
C256 H275 0.930 . S
C257 C260 1.424 . S
C257 C262 1.245 . S
C257 C263 1.428 . S
C258 C261 1.260 . S
C258 C262 1.477 . S
C258 H276 0.932 . S
C259 C260 1.384 . S
C259 C261 1.479 . S
C259 H277 0.929 . S
C260 C257 1.424 . S
C260 C259 1.384 . S
C260 H278 0.928 . S
C261 C258 1.260 . S
C261 C259 1.479 . S
C262 C257 1.245 . S
C262 C258 1.477 . S
C262 H279 0.932 . S
C263 U246 2.882 . S
C263 C257 1.428 . S
C263 O266 1.301 . S
C263 O267 1.282 . S
O264 U246 2.441 . S
O264 C250 1.249 . S
O265 U246 2.420 . S
O265 C250 1.202 . S
O266 U246 2.455 . S
O266 C263 1.301 . S
O267 U246 2.449 . S
O267 C263 1.282 . S
H268 C241 0.931 . S
H269 C243 0.929 . S
H270 C244 0.930 . S
H271 C245 0.931 . S
H272 C252 0.932 . S
H273 C253 0.930 . S
H274 C254 0.929 . S
H275 C256 0.930 . S
H276 C258 0.932 . S
H277 C259 0.929 . S
H278 C260 0.928 . S
H279 C262 0.932 . S
C280 C281 1.264 . S
C280 C285 1.479 . S
C280 C290 1.465 . S
C281 C280 1.264 . S
C281 C283 1.339 . S
C281 H308 0.931 . S
C282 C283 1.395 . S
C282 C284 1.320 . S
C283 C281 1.339 . S
C283 C282 1.395 . S
C283 H309 0.929 . S
C284 C282 1.320 . S
C284 C285 1.405 . S
C284 H310 0.930 . S
C285 C280 1.479 . S
C285 C284 1.405 . S
C285 H311 0.931 . S
U286 O287 2.454 . S
U286 O288 2.458 . S
U286 C289 2.984 . S
U286 C290 2.847 . S
U286 C303 2.882 . S
U286 O304 2.441 . S
U286 O305 2.420 . S
U286 O306 2.455 . S
U286 O307 2.449 . S
O287 U286 2.454 . S
O287 C289 1.353 . S
O288 U286 2.458 . S
O288 C289 1.286 . S
C289 U286 2.984 . S
C289 O287 1.353 . S
C289 O288 1.286 . S
C289 C291 1.363 . S
C290 C280 1.465 . S
C290 U286 2.847 . S
C290 O304 1.249 . S
C290 O305 1.202 . S
C291 C289 1.363 . S
C291 C293 1.408 . S
C291 C296 1.342 . S
C292 C293 1.310 . S
C292 C295 1.461 . S
C292 H312 0.932 . S
C293 C291 1.408 . S
C293 C292 1.310 . S
C293 H313 0.930 . S
C294 C295 1.474 . S
C294 C296 1.285 . S
C294 H314 0.929 . S
C295 C292 1.461 . S
C295 C294 1.474 . S
C296 C291 1.342 . S
C296 C294 1.285 . S
C296 H315 0.930 . S
C297 C300 1.424 . S
C297 C302 1.245 . S
C297 C303 1.428 . S
C298 C301 1.260 . S
C298 C302 1.477 . S
C298 H316 0.932 . S
C299 C300 1.384 . S
C299 C301 1.479 . S
C299 H317 0.929 . S
C300 C297 1.424 . S
C300 C299 1.384 . S
C300 H318 0.928 . S
C301 C298 1.260 . S
C301 C299 1.479 . S
C302 C297 1.245 . S
C302 C298 1.477 . S
C302 H319 0.932 . S
C303 U286 2.882 . S
C303 C297 1.428 . S
C303 O306 1.301 . S
C303 O307 1.282 . S
O304 U286 2.441 . S
O304 C290 1.249 . S
O305 U286 2.420 . S
O305 C290 1.202 . S
O306 U286 2.455 . S
O306 C303 1.301 . S
O307 U286 2.449 . S
O307 C303 1.282 . S
H308 C281 0.931 . S
H309 C283 0.929 . S
H310 C284 0.930 . S
H311 C285 0.931 . S
H312 C292 0.932 . S
H313 C293 0.930 . S
H314 C294 0.929 . S
H315 C296 0.930 . S
H316 C298 0.932 . S
H317 C299 0.929 . S
H318 C300 0.928 . S
H319 C302 0.932 . S
C320 C321 1.264 . S
C320 C325 1.479 . S
C320 C330 1.465 . S
C321 C320 1.264 . S
C321 C323 1.339 . S
C321 H348 0.931 . S
C322 C323 1.395 . S
C322 C324 1.320 . S
C323 C321 1.339 . S
C323 C322 1.395 . S
C323 H349 0.929 . S
C324 C322 1.320 . S
C324 C325 1.405 . S
C324 H350 0.930 . S
C325 C320 1.479 . S
C325 C324 1.405 . S
C325 H351 0.931 . S
U326 O327 2.454 . S
U326 O328 2.458 . S
U326 C329 2.984 . S
U326 C330 2.847 . S
U326 C343 2.882 . S
U326 O344 2.441 . S
U326 O345 2.420 . S
U326 O346 2.455 . S
U326 O347 2.449 . S
O327 U326 2.454 . S
O327 C329 1.353 . S
O328 U326 2.458 . S
O328 C329 1.286 . S
C329 U326 2.984 . S
C329 O327 1.353 . S
C329 O328 1.286 . S
C329 C331 1.363 . S
C330 C320 1.465 . S
C330 U326 2.847 . S
C330 O344 1.249 . S
C330 O345 1.202 . S
C331 C329 1.363 . S
C331 C333 1.408 . S
C331 C336 1.342 . S
C332 C333 1.310 . S
C332 C335 1.461 . S
C332 H352 0.932 . S
C333 C331 1.408 . S
C333 C332 1.310 . S
C333 H353 0.930 . S
C334 C335 1.474 . S
C334 C336 1.285 . S
C334 H354 0.929 . S
C335 C332 1.461 . S
C335 C334 1.474 . S
C336 C331 1.342 . S
C336 C334 1.285 . S
C336 H355 0.930 . S
C337 C340 1.424 . S
C337 C342 1.245 . S
C337 C343 1.428 . S
C338 C341 1.260 . S
C338 C342 1.477 . S
C338 H356 0.932 . S
C339 C340 1.384 . S
C339 C341 1.479 . S
C339 H357 0.929 . S
C340 C337 1.424 . S
C340 C339 1.384 . S
C340 H358 0.928 . S
C341 C338 1.260 . S
C341 C339 1.479 . S
C342 C337 1.245 . S
C342 C338 1.477 . S
C342 H359 0.932 . S
C343 U326 2.882 . S
C343 C337 1.428 . S
C343 O346 1.301 . S
C343 O347 1.282 . S
O344 U326 2.441 . S
O344 C330 1.249 . S
O345 U326 2.420 . S
O345 C330 1.202 . S
O346 U326 2.455 . S
O346 C343 1.301 . S
O347 U326 2.449 . S
O347 C343 1.282 . S
H348 C321 0.931 . S
H349 C323 0.929 . S
H350 C324 0.930 . S
H351 C325 0.931 . S
H352 C332 0.932 . S
H353 C333 0.930 . S
H354 C334 0.929 . S
H355 C336 0.930 . S
H356 C338 0.932 . S
H357 C339 0.929 . S
H358 C340 0.928 . S
H359 C342 0.932 . S
C360 C361 1.264 . S
C360 C365 1.479 . S
C360 C370 1.465 . S
C361 C360 1.264 . S
C361 C363 1.339 . S
C361 H388 0.931 . S
C362 C363 1.395 . S
C362 C364 1.320 . S
C363 C361 1.339 . S
C363 C362 1.395 . S
C363 H389 0.929 . S
C364 C362 1.320 . S
C364 C365 1.405 . S
C364 H390 0.930 . S
C365 C360 1.479 . S
C365 C364 1.405 . S
C365 H391 0.931 . S
U366 O367 2.454 . S
U366 O368 2.458 . S
U366 C369 2.984 . S
U366 C370 2.847 . S
U366 C383 2.882 . S
U366 O384 2.441 . S
U366 O385 2.420 . S
U366 O386 2.455 . S
U366 O387 2.449 . S
O367 U366 2.454 . S
O367 C369 1.353 . S
O368 U366 2.458 . S
O368 C369 1.286 . S
C369 U366 2.984 . S
C369 O367 1.353 . S
C369 O368 1.286 . S
C369 C371 1.363 . S
C370 C360 1.465 . S
C370 U366 2.847 . S
C370 O384 1.249 . S
C370 O385 1.202 . S
C371 C369 1.363 . S
C371 C373 1.408 . S
C371 C376 1.342 . S
C372 C373 1.310 . S
C372 C375 1.461 . S
C372 H392 0.932 . S
C373 C371 1.408 . S
C373 C372 1.310 . S
C373 H393 0.930 . S
C374 C375 1.474 . S
C374 C376 1.285 . S
C374 H394 0.929 . S
C375 C372 1.461 . S
C375 C374 1.474 . S
C376 C371 1.342 . S
C376 C374 1.285 . S
C376 H395 0.930 . S
C377 C380 1.424 . S
C377 C382 1.245 . S
C377 C383 1.428 . S
C378 C381 1.260 . S
C378 C382 1.477 . S
C378 H396 0.932 . S
C379 C380 1.384 . S
C379 C381 1.479 . S
C379 H397 0.929 . S
C380 C377 1.424 . S
C380 C379 1.384 . S
C380 H398 0.928 . S
C381 C378 1.260 . S
C381 C379 1.479 . S
C382 C377 1.245 . S
C382 C378 1.477 . S
C382 H399 0.932 . S
C383 U366 2.882 . S
C383 C377 1.428 . S
C383 O386 1.301 . S
C383 O387 1.282 . S
O384 U366 2.441 . S
O384 C370 1.249 . S
O385 U366 2.420 . S
O385 C370 1.202 . S
O386 U366 2.455 . S
O386 C383 1.301 . S
O387 U366 2.449 . S
O387 C383 1.282 . S
H388 C361 0.931 . S
H389 C363 0.929 . S
H390 C364 0.930 . S
H391 C365 0.931 . S
H392 C372 0.932 . S
H393 C373 0.930 . S
H394 C374 0.929 . S
H395 C376 0.930 . S
H396 C378 0.932 . S
H397 C379 0.929 . S
H398 C380 0.928 . S
H399 C382 0.932 . S
C400 C401 1.264 . S
C400 C405 1.479 . S
C400 C410 1.465 . S
C401 C400 1.264 . S
C401 C403 1.339 . S
C401 H428 0.931 . S
C402 C403 1.395 . S
C402 C404 1.320 . S
C403 C401 1.339 . S
C403 C402 1.395 . S
C403 H429 0.929 . S
C404 C402 1.320 . S
C404 C405 1.405 . S
C404 H430 0.930 . S
C405 C400 1.479 . S
C405 C404 1.405 . S
C405 H431 0.931 . S
U406 O407 2.454 . S
U406 O408 2.458 . S
U406 C409 2.984 . S
U406 C410 2.847 . S
U406 C423 2.882 . S
U406 O424 2.441 . S
U406 O425 2.420 . S
U406 O426 2.455 . S
U406 O427 2.449 . S
O407 U406 2.454 . S
O407 C409 1.353 . S
O408 U406 2.458 . S
O408 C409 1.286 . S
C409 U406 2.984 . S
C409 O407 1.353 . S
C409 O408 1.286 . S
C409 C411 1.363 . S
C410 C400 1.465 . S
C410 U406 2.847 . S
C410 O424 1.249 . S
C410 O425 1.202 . S
C411 C409 1.363 . S
C411 C413 1.408 . S
C411 C416 1.342 . S
C412 C413 1.310 . S
C412 C415 1.461 . S
C412 H432 0.932 . S
C413 C411 1.408 . S
C413 C412 1.310 . S
C413 H433 0.930 . S
C414 C415 1.474 . S
C414 C416 1.285 . S
C414 H434 0.929 . S
C415 C412 1.461 . S
C415 C414 1.474 . S
C416 C411 1.342 . S
C416 C414 1.285 . S
C416 H435 0.930 . S
C417 C420 1.424 . S
C417 C422 1.245 . S
C417 C423 1.428 . S
C418 C421 1.260 . S
C418 C422 1.477 . S
C418 H436 0.932 . S
C419 C420 1.384 . S
C419 C421 1.479 . S
C419 H437 0.929 . S
C420 C417 1.424 . S
C420 C419 1.384 . S
C420 H438 0.928 . S
C421 C418 1.260 . S
C421 C419 1.479 . S
C422 C417 1.245 . S
C422 C418 1.477 . S
C422 H439 0.932 . S
C423 U406 2.882 . S
C423 C417 1.428 . S
C423 O426 1.301 . S
C423 O427 1.282 . S
O424 U406 2.441 . S
O424 C410 1.249 . S
O425 U406 2.420 . S
O425 C410 1.202 . S
O426 U406 2.455 . S
O426 C423 1.301 . S
O427 U406 2.449 . S
O427 C423 1.282 . S
H428 C401 0.931 . S
H429 C403 0.929 . S
H430 C404 0.930 . S
H431 C405 0.931 . S
H432 C412 0.932 . S
H433 C413 0.930 . S
H434 C414 0.929 . S
H435 C416 0.930 . S
H436 C418 0.932 . S
H437 C419 0.929 . S
H438 C420 0.928 . S
H439 C422 0.932 . S
C440 C441 1.264 . S
C440 C445 1.479 . S
C440 C450 1.465 . S
C441 C440 1.264 . S
C441 C443 1.339 . S
C441 H468 0.931 . S
C442 C443 1.395 . S
C442 C444 1.320 . S
C443 C441 1.339 . S
C443 C442 1.395 . S
C443 H469 0.929 . S
C444 C442 1.320 . S
C444 C445 1.405 . S
C444 H470 0.930 . S
C445 C440 1.479 . S
C445 C444 1.405 . S
C445 H471 0.931 . S
U446 O447 2.454 . S
U446 O448 2.458 . S
U446 C449 2.984 . S
U446 C450 2.847 . S
U446 C463 2.882 . S
U446 O464 2.441 . S
U446 O465 2.420 . S
U446 O466 2.455 . S
U446 O467 2.449 . S
O447 U446 2.454 . S
O447 C449 1.353 . S
O448 U446 2.458 . S
O448 C449 1.286 . S
C449 U446 2.984 . S
C449 O447 1.353 . S
C449 O448 1.286 . S
C449 C451 1.363 . S
C450 C440 1.465 . S
C450 U446 2.847 . S
C450 O464 1.249 . S
C450 O465 1.202 . S
C451 C449 1.363 . S
C451 C453 1.408 . S
C451 C456 1.342 . S
C452 C453 1.310 . S
C452 C455 1.461 . S
C452 H472 0.932 . S
C453 C451 1.408 . S
C453 C452 1.310 . S
C453 H473 0.930 . S
C454 C455 1.474 . S
C454 C456 1.285 . S
C454 H474 0.929 . S
C455 C452 1.461 . S
C455 C454 1.474 . S
C456 C451 1.342 . S
C456 C454 1.285 . S
C456 H475 0.930 . S
C457 C460 1.424 . S
C457 C462 1.245 . S
C457 C463 1.428 . S
C458 C461 1.260 . S
C458 C462 1.477 . S
C458 H476 0.932 . S
C459 C460 1.384 . S
C459 C461 1.479 . S
C459 H477 0.929 . S
C460 C457 1.424 . S
C460 C459 1.384 . S
C460 H478 0.928 . S
C461 C458 1.260 . S
C461 C459 1.479 . S
C462 C457 1.245 . S
C462 C458 1.477 . S
C462 H479 0.932 . S
C463 U446 2.882 . S
C463 C457 1.428 . S
C463 O466 1.301 . S
C463 O467 1.282 . S
O464 U446 2.441 . S
O464 C450 1.249 . S
O465 U446 2.420 . S
O465 C450 1.202 . S
O466 U446 2.455 . S
O466 C463 1.301 . S
O467 U446 2.449 . S
O467 C463 1.282 . S
H468 C441 0.931 . S
H469 C443 0.929 . S
H470 C444 0.930 . S
H471 C445 0.931 . S
H472 C452 0.932 . S
H473 C453 0.930 . S
H474 C454 0.929 . S
H475 C456 0.930 . S
H476 C458 0.932 . S
H477 C459 0.929 . S
H478 C460 0.928 . S
H479 C462 0.932 . S
C480 C481 1.264 . S
C480 C485 1.479 . S
C480 C490 1.465 . S
C481 C480 1.264 . S
C481 C483 1.339 . S
C481 H508 0.931 . S
C482 C483 1.395 . S
C482 C484 1.320 . S
C483 C481 1.339 . S
C483 C482 1.395 . S
C483 H509 0.929 . S
C484 C482 1.320 . S
C484 C485 1.405 . S
C484 H510 0.930 . S
C485 C480 1.479 . S
C485 C484 1.405 . S
C485 H511 0.931 . S
U486 O487 2.454 . S
U486 O488 2.458 . S
U486 C489 2.984 . S
U486 C490 2.847 . S
U486 C503 2.882 . S
U486 O504 2.441 . S
U486 O505 2.420 . S
U486 O506 2.455 . S
U486 O507 2.449 . S
O487 U486 2.454 . S
O487 C489 1.353 . S
O488 U486 2.458 . S
O488 C489 1.286 . S
C489 U486 2.984 . S
C489 O487 1.353 . S
C489 O488 1.286 . S
C489 C491 1.363 . S
C490 C480 1.465 . S
C490 U486 2.847 . S
C490 O504 1.249 . S
C490 O505 1.202 . S
C491 C489 1.363 . S
C491 C493 1.408 . S
C491 C496 1.342 . S
C492 C493 1.310 . S
C492 C495 1.461 . S
C492 H512 0.932 . S
C493 C491 1.408 . S
C493 C492 1.310 . S
C493 H513 0.930 . S
C494 C495 1.474 . S
C494 C496 1.285 . S
C494 H514 0.929 . S
C495 C492 1.461 . S
C495 C494 1.474 . S
C496 C491 1.342 . S
C496 C494 1.285 . S
C496 H515 0.930 . S
C497 C500 1.424 . S
C497 C502 1.245 . S
C497 C503 1.428 . S
C498 C501 1.260 . S
C498 C502 1.477 . S
C498 H516 0.932 . S
C499 C500 1.384 . S
C499 C501 1.479 . S
C499 H517 0.929 . S
C500 C497 1.424 . S
C500 C499 1.384 . S
C500 H518 0.928 . S
C501 C498 1.260 . S
C501 C499 1.479 . S
C502 C497 1.245 . S
C502 C498 1.477 . S
C502 H519 0.932 . S
C503 U486 2.882 . S
C503 C497 1.428 . S
C503 O506 1.301 . S
C503 O507 1.282 . S
O504 U486 2.441 . S
O504 C490 1.249 . S
O505 U486 2.420 . S
O505 C490 1.202 . S
O506 U486 2.455 . S
O506 C503 1.301 . S
O507 U486 2.449 . S
O507 C503 1.282 . S
H508 C481 0.931 . S
H509 C483 0.929 . S
H510 C484 0.930 . S
H511 C485 0.931 . S
H512 C492 0.932 . S
H513 C493 0.930 . S
H514 C494 0.929 . S
H515 C496 0.930 . S
H516 C498 0.932 . S
H517 C499 0.929 . S
H518 C500 0.928 . S
H519 C502 0.932 . S
C520 C521 1.264 . S
C520 C525 1.479 . S
C520 C530 1.465 . S
C521 C520 1.264 . S
C521 C523 1.339 . S
C521 H548 0.931 . S
C522 C523 1.395 . S
C522 C524 1.320 . S
C523 C521 1.339 . S
C523 C522 1.395 . S
C523 H549 0.929 . S
C524 C522 1.320 . S
C524 C525 1.405 . S
C524 H550 0.930 . S
C525 C520 1.479 . S
C525 C524 1.405 . S
C525 H551 0.931 . S
U526 O527 2.454 . S
U526 O528 2.458 . S
U526 C529 2.984 . S
U526 C530 2.847 . S
U526 C543 2.882 . S
U526 O544 2.441 . S
U526 O545 2.420 . S
U526 O546 2.455 . S
U526 O547 2.449 . S
O527 U526 2.454 . S
O527 C529 1.353 . S
O528 U526 2.458 . S
O528 C529 1.286 . S
C529 U526 2.984 . S
C529 O527 1.353 . S
C529 O528 1.286 . S
C529 C531 1.363 . S
C530 C520 1.465 . S
C530 U526 2.847 . S
C530 O544 1.249 . S
C530 O545 1.202 . S
C531 C529 1.363 . S
C531 C533 1.408 . S
C531 C536 1.342 . S
C532 C533 1.310 . S
C532 C535 1.461 . S
C532 H552 0.932 . S
C533 C531 1.408 . S
C533 C532 1.310 . S
C533 H553 0.930 . S
C534 C535 1.474 . S
C534 C536 1.285 . S
C534 H554 0.929 . S
C535 C532 1.461 . S
C535 C534 1.474 . S
C536 C531 1.342 . S
C536 C534 1.285 . S
C536 H555 0.930 . S
C537 C540 1.424 . S
C537 C542 1.245 . S
C537 C543 1.428 . S
C538 C541 1.260 . S
C538 C542 1.477 . S
C538 H556 0.932 . S
C539 C540 1.384 . S
C539 C541 1.479 . S
C539 H557 0.929 . S
C540 C537 1.424 . S
C540 C539 1.384 . S
C540 H558 0.928 . S
C541 C538 1.260 . S
C541 C539 1.479 . S
C542 C537 1.245 . S
C542 C538 1.477 . S
C542 H559 0.932 . S
C543 U526 2.882 . S
C543 C537 1.428 . S
C543 O546 1.301 . S
C543 O547 1.282 . S
O544 U526 2.441 . S
O544 C530 1.249 . S
O545 U526 2.420 . S
O545 C530 1.202 . S
O546 U526 2.455 . S
O546 C543 1.301 . S
O547 U526 2.449 . S
O547 C543 1.282 . S
H548 C521 0.931 . S
H549 C523 0.929 . S
H550 C524 0.930 . S
H551 C525 0.931 . S
H552 C532 0.932 . S
H553 C533 0.930 . S
H554 C534 0.929 . S
H555 C536 0.930 . S
H556 C538 0.932 . S
H557 C539 0.929 . S
H558 C540 0.928 . S
H559 C542 0.932 . S
C560 C561 1.264 . S
C560 C565 1.479 . S
C560 C570 1.465 . S
C561 C560 1.264 . S
C561 C563 1.339 . S
C561 H588 0.931 . S
C562 C563 1.395 . S
C562 C564 1.320 . S
C563 C561 1.339 . S
C563 C562 1.395 . S
C563 H589 0.929 . S
C564 C562 1.320 . S
C564 C565 1.405 . S
C564 H590 0.930 . S
C565 C560 1.479 . S
C565 C564 1.405 . S
C565 H591 0.931 . S
U566 O567 2.454 . S
U566 O568 2.458 . S
U566 C569 2.984 . S
U566 C570 2.847 . S
U566 C583 2.882 . S
U566 O584 2.441 . S
U566 O585 2.420 . S
U566 O586 2.455 . S
U566 O587 2.449 . S
O567 U566 2.454 . S
O567 C569 1.353 . S
O568 U566 2.458 . S
O568 C569 1.286 . S
C569 U566 2.984 . S
C569 O567 1.353 . S
C569 O568 1.286 . S
C569 C571 1.363 . S
C570 C560 1.465 . S
C570 U566 2.847 . S
C570 O584 1.249 . S
C570 O585 1.202 . S
C571 C569 1.363 . S
C571 C573 1.408 . S
C571 C576 1.342 . S
C572 C573 1.310 . S
C572 C575 1.461 . S
C572 H592 0.932 . S
C573 C571 1.408 . S
C573 C572 1.310 . S
C573 H593 0.930 . S
C574 C575 1.474 . S
C574 C576 1.285 . S
C574 H594 0.929 . S
C575 C572 1.461 . S
C575 C574 1.474 . S
C576 C571 1.342 . S
C576 C574 1.285 . S
C576 H595 0.930 . S
C577 C580 1.424 . S
C577 C582 1.245 . S
C577 C583 1.428 . S
C578 C581 1.260 . S
C578 C582 1.477 . S
C578 H596 0.932 . S
C579 C580 1.384 . S
C579 C581 1.479 . S
C579 H597 0.929 . S
C580 C577 1.424 . S
C580 C579 1.384 . S
C580 H598 0.928 . S
C581 C578 1.260 . S
C581 C579 1.479 . S
C582 C577 1.245 . S
C582 C578 1.477 . S
C582 H599 0.932 . S
C583 U566 2.882 . S
C583 C577 1.428 . S
C583 O586 1.301 . S
C583 O587 1.282 . S
O584 U566 2.441 . S
O584 C570 1.249 . S
O585 U566 2.420 . S
O585 C570 1.202 . S
O586 U566 2.455 . S
O586 C583 1.301 . S
O587 U566 2.449 . S
O587 C583 1.282 . S
H588 C561 0.931 . S
H589 C563 0.929 . S
H590 C564 0.930 . S
H591 C565 0.931 . S
H592 C572 0.932 . S
H593 C573 0.930 . S
H594 C574 0.929 . S
H595 C576 0.930 . S
H596 C578 0.932 . S
H597 C579 0.929 . S
H598 C580 0.928 . S
H599 C582 0.932 . S
C600 C601 1.264 . S
C600 C605 1.479 . S
C600 C610 1.465 . S
C601 C600 1.264 . S
C601 C603 1.339 . S
C601 H628 0.931 . S
C602 C603 1.395 . S
C602 C604 1.320 . S
C603 C601 1.339 . S
C603 C602 1.395 . S
C603 H629 0.929 . S
C604 C602 1.320 . S
C604 C605 1.405 . S
C604 H630 0.930 . S
C605 C600 1.479 . S
C605 C604 1.405 . S
C605 H631 0.931 . S
U606 O607 2.454 . S
U606 O608 2.458 . S
U606 C609 2.984 . S
U606 C610 2.847 . S
U606 C623 2.882 . S
U606 O624 2.441 . S
U606 O625 2.420 . S
U606 O626 2.455 . S
U606 O627 2.449 . S
O607 U606 2.454 . S
O607 C609 1.353 . S
O608 U606 2.458 . S
O608 C609 1.286 . S
C609 U606 2.984 . S
C609 O607 1.353 . S
C609 O608 1.286 . S
C609 C611 1.363 . S
C610 C600 1.465 . S
C610 U606 2.847 . S
C610 O624 1.249 . S
C610 O625 1.202 . S
C611 C609 1.363 . S
C611 C613 1.408 . S
C611 C616 1.342 . S
C612 C613 1.310 . S
C612 C615 1.461 . S
C612 H632 0.932 . S
C613 C611 1.408 . S
C613 C612 1.310 . S
C613 H633 0.930 . S
C614 C615 1.474 . S
C614 C616 1.285 . S
C614 H634 0.929 . S
C615 C612 1.461 . S
C615 C614 1.474 . S
C616 C611 1.342 . S
C616 C614 1.285 . S
C616 H635 0.930 . S
C617 C620 1.424 . S
C617 C622 1.245 . S
C617 C623 1.428 . S
C618 C621 1.260 . S
C618 C622 1.477 . S
C618 H636 0.932 . S
C619 C620 1.384 . S
C619 C621 1.479 . S
C619 H637 0.929 . S
C620 C617 1.424 . S
C620 C619 1.384 . S
C620 H638 0.928 . S
C621 C618 1.260 . S
C621 C619 1.479 . S
C622 C617 1.245 . S
C622 C618 1.477 . S
C622 H639 0.932 . S
C623 U606 2.882 . S
C623 C617 1.428 . S
C623 O626 1.301 . S
C623 O627 1.282 . S
O624 U606 2.441 . S
O624 C610 1.249 . S
O625 U606 2.420 . S
O625 C610 1.202 . S
O626 U606 2.455 . S
O626 C623 1.301 . S
O627 U606 2.449 . S
O627 C623 1.282 . S
H628 C601 0.931 . S
H629 C603 0.929 . S
H630 C604 0.930 . S
H631 C605 0.931 . S
H632 C612 0.932 . S
H633 C613 0.930 . S
H634 C614 0.929 . S
H635 C616 0.930 . S
H636 C618 0.932 . S
H637 C619 0.929 . S
H638 C620 0.928 . S
H639 C622 0.932 . S
C640 C641 1.264 . S
C640 C645 1.479 . S
C640 C650 1.465 . S
C641 C640 1.264 . S
C641 C643 1.339 . S
C641 H668 0.931 . S
C642 C643 1.395 . S
C642 C644 1.320 . S
C643 C641 1.339 . S
C643 C642 1.395 . S
C643 H669 0.929 . S
C644 C642 1.320 . S
C644 C645 1.405 . S
C644 H670 0.930 . S
C645 C640 1.479 . S
C645 C644 1.405 . S
C645 H671 0.931 . S
U646 O647 2.454 . S
U646 O648 2.458 . S
U646 C649 2.984 . S
U646 C650 2.847 . S
U646 C663 2.882 . S
U646 O664 2.441 . S
U646 O665 2.420 . S
U646 O666 2.455 . S
U646 O667 2.449 . S
O647 U646 2.454 . S
O647 C649 1.353 . S
O648 U646 2.458 . S
O648 C649 1.286 . S
C649 U646 2.984 . S
C649 O647 1.353 . S
C649 O648 1.286 . S
C649 C651 1.363 . S
C650 C640 1.465 . S
C650 U646 2.847 . S
C650 O664 1.249 . S
C650 O665 1.202 . S
C651 C649 1.363 . S
C651 C653 1.408 . S
C651 C656 1.342 . S
C652 C653 1.310 . S
C652 C655 1.461 . S
C652 H672 0.932 . S
C653 C651 1.408 . S
C653 C652 1.310 . S
C653 H673 0.930 . S
C654 C655 1.474 . S
C654 C656 1.285 . S
C654 H674 0.929 . S
C655 C652 1.461 . S
C655 C654 1.474 . S
C656 C651 1.342 . S
C656 C654 1.285 . S
C656 H675 0.930 . S
C657 C660 1.424 . S
C657 C662 1.245 . S
C657 C663 1.428 . S
C658 C661 1.260 . S
C658 C662 1.477 . S
C658 H676 0.932 . S
C659 C660 1.384 . S
C659 C661 1.479 . S
C659 H677 0.929 . S
C660 C657 1.424 . S
C660 C659 1.384 . S
C660 H678 0.928 . S
C661 C658 1.260 . S
C661 C659 1.479 . S
C662 C657 1.245 . S
C662 C658 1.477 . S
C662 H679 0.932 . S
C663 U646 2.882 . S
C663 C657 1.428 . S
C663 O666 1.301 . S
C663 O667 1.282 . S
O664 U646 2.441 . S
O664 C650 1.249 . S
O665 U646 2.420 . S
O665 C650 1.202 . S
O666 U646 2.455 . S
O666 C663 1.301 . S
O667 U646 2.449 . S
O667 C663 1.282 . S
H668 C641 0.931 . S
H669 C643 0.929 . S
H670 C644 0.930 . S
H671 C645 0.931 . S
H672 C652 0.932 . S
H673 C653 0.930 . S
H674 C654 0.929 . S
H675 C656 0.930 . S
H676 C658 0.932 . S
H677 C659 0.929 . S
H678 C660 0.928 . S
H679 C662 0.932 . S
C680 C681 1.264 . S
C680 C685 1.479 . S
C680 C690 1.465 . S
C681 C680 1.264 . S
C681 C683 1.339 . S
C681 H708 0.931 . S
C682 C683 1.395 . S
C682 C684 1.320 . S
C683 C681 1.339 . S
C683 C682 1.395 . S
C683 H709 0.929 . S
C684 C682 1.320 . S
C684 C685 1.405 . S
C684 H710 0.930 . S
C685 C680 1.479 . S
C685 C684 1.405 . S
C685 H711 0.931 . S
U686 O687 2.454 . S
U686 O688 2.458 . S
U686 C689 2.984 . S
U686 C690 2.847 . S
U686 C703 2.882 . S
U686 O704 2.441 . S
U686 O705 2.420 . S
U686 O706 2.455 . S
U686 O707 2.449 . S
O687 U686 2.454 . S
O687 C689 1.353 . S
O688 U686 2.458 . S
O688 C689 1.286 . S
C689 U686 2.984 . S
C689 O687 1.353 . S
C689 O688 1.286 . S
C689 C691 1.363 . S
C690 C680 1.465 . S
C690 U686 2.847 . S
C690 O704 1.249 . S
C690 O705 1.202 . S
C691 C689 1.363 . S
C691 C693 1.408 . S
C691 C696 1.342 . S
C692 C693 1.310 . S
C692 C695 1.461 . S
C692 H712 0.932 . S
C693 C691 1.408 . S
C693 C692 1.310 . S
C693 H713 0.930 . S
C694 C695 1.474 . S
C694 C696 1.285 . S
C694 H714 0.929 . S
C695 C692 1.461 . S
C695 C694 1.474 . S
C696 C691 1.342 . S
C696 C694 1.285 . S
C696 H715 0.930 . S
C697 C700 1.424 . S
C697 C702 1.245 . S
C697 C703 1.428 . S
C698 C701 1.260 . S
C698 C702 1.477 . S
C698 H716 0.932 . S
C699 C700 1.384 . S
C699 C701 1.479 . S
C699 H717 0.929 . S
C700 C697 1.424 . S
C700 C699 1.384 . S
C700 H718 0.928 . S
C701 C698 1.260 . S
C701 C699 1.479 . S
C702 C697 1.245 . S
C702 C698 1.477 . S
C702 H719 0.932 . S
C703 U686 2.882 . S
C703 C697 1.428 . S
C703 O706 1.301 . S
C703 O707 1.282 . S
O704 U686 2.441 . S
O704 C690 1.249 . S
O705 U686 2.420 . S
O705 C690 1.202 . S
O706 U686 2.455 . S
O706 C703 1.301 . S
O707 U686 2.449 . S
O707 C703 1.282 . S
H708 C681 0.931 . S
H709 C683 0.929 . S
H710 C684 0.930 . S
H711 C685 0.931 . S
H712 C692 0.932 . S
H713 C693 0.930 . S
H714 C694 0.929 . S
H715 C696 0.930 . S
H716 C698 0.932 . S
H717 C699 0.929 . S
H718 C700 0.928 . S
H719 C702 0.932 . S
C720 C721 1.264 . S
C720 C725 1.479 . S
C720 C730 1.465 . S
C721 C720 1.264 . S
C721 C723 1.339 . S
C721 H748 0.931 . S
C722 C723 1.395 . S
C722 C724 1.320 . S
C723 C721 1.339 . S
C723 C722 1.395 . S
C723 H749 0.929 . S
C724 C722 1.320 . S
C724 C725 1.405 . S
C724 H750 0.930 . S
C725 C720 1.479 . S
C725 C724 1.405 . S
C725 H751 0.931 . S
U726 O727 2.454 . S
U726 O728 2.458 . S
U726 C729 2.984 . S
U726 C730 2.847 . S
U726 C743 2.882 . S
U726 O744 2.441 . S
U726 O745 2.420 . S
U726 O746 2.455 . S
U726 O747 2.449 . S
O727 U726 2.454 . S
O727 C729 1.353 . S
O728 U726 2.458 . S
O728 C729 1.286 . S
C729 U726 2.984 . S
C729 O727 1.353 . S
C729 O728 1.286 . S
C729 C731 1.363 . S
C730 C720 1.465 . S
C730 U726 2.847 . S
C730 O744 1.249 . S
C730 O745 1.202 . S
C731 C729 1.363 . S
C731 C733 1.408 . S
C731 C736 1.342 . S
C732 C733 1.310 . S
C732 C735 1.461 . S
C732 H752 0.932 . S
C733 C731 1.408 . S
C733 C732 1.310 . S
C733 H753 0.930 . S
C734 C735 1.474 . S
C734 C736 1.285 . S
C734 H754 0.929 . S
C735 C732 1.461 . S
C735 C734 1.474 . S
C736 C731 1.342 . S
C736 C734 1.285 . S
C736 H755 0.930 . S
C737 C740 1.424 . S
C737 C742 1.245 . S
C737 C743 1.428 . S
C738 C741 1.260 . S
C738 C742 1.477 . S
C738 H756 0.932 . S
C739 C740 1.384 . S
C739 C741 1.479 . S
C739 H757 0.929 . S
C740 C737 1.424 . S
C740 C739 1.384 . S
C740 H758 0.928 . S
C741 C738 1.260 . S
C741 C739 1.479 . S
C742 C737 1.245 . S
C742 C738 1.477 . S
C742 H759 0.932 . S
C743 U726 2.882 . S
C743 C737 1.428 . S
C743 O746 1.301 . S
C743 O747 1.282 . S
O744 U726 2.441 . S
O744 C730 1.249 . S
O745 U726 2.420 . S
O745 C730 1.202 . S
O746 U726 2.455 . S
O746 C743 1.301 . S
O747 U726 2.449 . S
O747 C743 1.282 . S
H748 C721 0.931 . S
H749 C723 0.929 . S
H750 C724 0.930 . S
H751 C725 0.931 . S
H752 C732 0.932 . S
H753 C733 0.930 . S
H754 C734 0.929 . S
H755 C736 0.930 . S
H756 C738 0.932 . S
H757 C739 0.929 . S
H758 C740 0.928 . S
H759 C742 0.932 . S
C760 C761 1.264 . S
C760 C765 1.479 . S
C760 C770 1.465 . S
C761 C760 1.264 . S
C761 C763 1.339 . S
C761 H788 0.931 . S
C762 C763 1.395 . S
C762 C764 1.320 . S
C763 C761 1.339 . S
C763 C762 1.395 . S
C763 H789 0.929 . S
C764 C762 1.320 . S
C764 C765 1.405 . S
C764 H790 0.930 . S
C765 C760 1.479 . S
C765 C764 1.405 . S
C765 H791 0.931 . S
U766 O767 2.454 . S
U766 O768 2.458 . S
U766 C769 2.984 . S
U766 C770 2.847 . S
U766 C783 2.882 . S
U766 O784 2.441 . S
U766 O785 2.420 . S
U766 O786 2.455 . S
U766 O787 2.449 . S
O767 U766 2.454 . S
O767 C769 1.353 . S
O768 U766 2.458 . S
O768 C769 1.286 . S
C769 U766 2.984 . S
C769 O767 1.353 . S
C769 O768 1.286 . S
C769 C771 1.363 . S
C770 C760 1.465 . S
C770 U766 2.847 . S
C770 O784 1.249 . S
C770 O785 1.202 . S
C771 C769 1.363 . S
C771 C773 1.408 . S
C771 C776 1.342 . S
C772 C773 1.310 . S
C772 C775 1.461 . S
C772 H792 0.932 . S
C773 C771 1.408 . S
C773 C772 1.310 . S
C773 H793 0.930 . S
C774 C775 1.474 . S
C774 C776 1.285 . S
C774 H794 0.929 . S
C775 C772 1.461 . S
C775 C774 1.474 . S
C776 C771 1.342 . S
C776 C774 1.285 . S
C776 H795 0.930 . S
C777 C780 1.424 . S
C777 C782 1.245 . S
C777 C783 1.428 . S
C778 C781 1.260 . S
C778 C782 1.477 . S
C778 H796 0.932 . S
C779 C780 1.384 . S
C779 C781 1.479 . S
C779 H797 0.929 . S
C780 C777 1.424 . S
C780 C779 1.384 . S
C780 H798 0.928 . S
C781 C778 1.260 . S
C781 C779 1.479 . S
C782 C777 1.245 . S
C782 C778 1.477 . S
C782 H799 0.932 . S
C783 U766 2.882 . S
C783 C777 1.428 . S
C783 O786 1.301 . S
C783 O787 1.282 . S
O784 U766 2.441 . S
O784 C770 1.249 . S
O785 U766 2.420 . S
O785 C770 1.202 . S
O786 U766 2.455 . S
O786 C783 1.301 . S
O787 U766 2.449 . S
O787 C783 1.282 . S
H788 C761 0.931 . S
H789 C763 0.929 . S
H790 C764 0.930 . S
H791 C765 0.931 . S
H792 C772 0.932 . S
H793 C773 0.930 . S
H794 C774 0.929 . S
H795 C776 0.930 . S
H796 C778 0.932 . S
H797 C779 0.929 . S
H798 C780 0.928 . S
H799 C782 0.932 . S
C800 C801 1.264 . S
C800 C805 1.479 . S
C800 C810 1.465 . S
C801 C800 1.264 . S
C801 C803 1.339 . S
C801 H828 0.931 . S
C802 C803 1.395 . S
C802 C804 1.320 . S
C803 C801 1.339 . S
C803 C802 1.395 . S
C803 H829 0.929 . S
C804 C802 1.320 . S
C804 C805 1.405 . S
C804 H830 0.930 . S
C805 C800 1.479 . S
C805 C804 1.405 . S
C805 H831 0.931 . S
U806 O807 2.454 . S
U806 O808 2.458 . S
U806 C809 2.984 . S
U806 C810 2.847 . S
U806 C823 2.882 . S
U806 O824 2.441 . S
U806 O825 2.420 . S
U806 O826 2.455 . S
U806 O827 2.449 . S
O807 U806 2.454 . S
O807 C809 1.353 . S
O808 U806 2.458 . S
O808 C809 1.286 . S
C809 U806 2.984 . S
C809 O807 1.353 . S
C809 O808 1.286 . S
C809 C811 1.363 . S
C810 C800 1.465 . S
C810 U806 2.847 . S
C810 O824 1.249 . S
C810 O825 1.202 . S
C811 C809 1.363 . S
C811 C813 1.408 . S
C811 C816 1.342 . S
C812 C813 1.310 . S
C812 C815 1.461 . S
C812 H832 0.932 . S
C813 C811 1.408 . S
C813 C812 1.310 . S
C813 H833 0.930 . S
C814 C815 1.474 . S
C814 C816 1.285 . S
C814 H834 0.929 . S
C815 C812 1.461 . S
C815 C814 1.474 . S
C816 C811 1.342 . S
C816 C814 1.285 . S
C816 H835 0.930 . S
C817 C820 1.424 . S
C817 C822 1.245 . S
C817 C823 1.428 . S
C818 C821 1.260 . S
C818 C822 1.477 . S
C818 H836 0.932 . S
C819 C820 1.384 . S
C819 C821 1.479 . S
C819 H837 0.929 . S
C820 C817 1.424 . S
C820 C819 1.384 . S
C820 H838 0.928 . S
C821 C818 1.260 . S
C821 C819 1.479 . S
C822 C817 1.245 . S
C822 C818 1.477 . S
C822 H839 0.932 . S
C823 U806 2.882 . S
C823 C817 1.428 . S
C823 O826 1.301 . S
C823 O827 1.282 . S
O824 U806 2.441 . S
O824 C810 1.249 . S
O825 U806 2.420 . S
O825 C810 1.202 . S
O826 U806 2.455 . S
O826 C823 1.301 . S
O827 U806 2.449 . S
O827 C823 1.282 . S
H828 C801 0.931 . S
H829 C803 0.929 . S
H830 C804 0.930 . S
H831 C805 0.931 . S
H832 C812 0.932 . S
H833 C813 0.930 . S
H834 C814 0.929 . S
H835 C816 0.930 . S
H836 C818 0.932 . S
H837 C819 0.929 . S
H838 C820 0.928 . S
H839 C822 0.932 . S
C840 C841 1.264 . S
C840 C845 1.479 . S
C840 C850 1.465 . S
C841 C840 1.264 . S
C841 C843 1.339 . S
C841 H868 0.931 . S
C842 C843 1.395 . S
C842 C844 1.320 . S
C843 C841 1.339 . S
C843 C842 1.395 . S
C843 H869 0.929 . S
C844 C842 1.320 . S
C844 C845 1.405 . S
C844 H870 0.930 . S
C845 C840 1.479 . S
C845 C844 1.405 . S
C845 H871 0.931 . S
U846 O847 2.454 . S
U846 O848 2.458 . S
U846 C849 2.984 . S
U846 C850 2.847 . S
U846 C863 2.882 . S
U846 O864 2.441 . S
U846 O865 2.420 . S
U846 O866 2.455 . S
U846 O867 2.449 . S
O847 U846 2.454 . S
O847 C849 1.353 . S
O848 U846 2.458 . S
O848 C849 1.286 . S
C849 U846 2.984 . S
C849 O847 1.353 . S
C849 O848 1.286 . S
C849 C851 1.363 . S
C850 C840 1.465 . S
C850 U846 2.847 . S
C850 O864 1.249 . S
C850 O865 1.202 . S
C851 C849 1.363 . S
C851 C853 1.408 . S
C851 C856 1.342 . S
C852 C853 1.310 . S
C852 C855 1.461 . S
C852 H872 0.932 . S
C853 C851 1.408 . S
C853 C852 1.310 . S
C853 H873 0.930 . S
C854 C855 1.474 . S
C854 C856 1.285 . S
C854 H874 0.929 . S
C855 C852 1.461 . S
C855 C854 1.474 . S
C856 C851 1.342 . S
C856 C854 1.285 . S
C856 H875 0.930 . S
C857 C860 1.424 . S
C857 C862 1.245 . S
C857 C863 1.428 . S
C858 C861 1.260 . S
C858 C862 1.477 . S
C858 H876 0.932 . S
C859 C860 1.384 . S
C859 C861 1.479 . S
C859 H877 0.929 . S
C860 C857 1.424 . S
C860 C859 1.384 . S
C860 H878 0.928 . S
C861 C858 1.260 . S
C861 C859 1.479 . S
C862 C857 1.245 . S
C862 C858 1.477 . S
C862 H879 0.932 . S
C863 U846 2.882 . S
C863 C857 1.428 . S
C863 O866 1.301 . S
C863 O867 1.282 . S
O864 U846 2.441 . S
O864 C850 1.249 . S
O865 U846 2.420 . S
O865 C850 1.202 . S
O866 U846 2.455 . S
O866 C863 1.301 . S
O867 U846 2.449 . S
O867 C863 1.282 . S
H868 C841 0.931 . S
H869 C843 0.929 . S
H870 C844 0.930 . S
H871 C845 0.931 . S
H872 C852 0.932 . S
H873 C853 0.930 . S
H874 C854 0.929 . S
H875 C856 0.930 . S
H876 C858 0.932 . S
H877 C859 0.929 . S
H878 C860 0.928 . S
H879 C862 0.932 . S
C880 C881 1.264 . S
C880 C885 1.479 . S
C880 C890 1.465 . S
C881 C880 1.264 . S
C881 C883 1.339 . S
C881 H908 0.931 . S
C882 C883 1.395 . S
C882 C884 1.320 . S
C883 C881 1.339 . S
C883 C882 1.395 . S
C883 H909 0.929 . S
C884 C882 1.320 . S
C884 C885 1.405 . S
C884 H910 0.930 . S
C885 C880 1.479 . S
C885 C884 1.405 . S
C885 H911 0.931 . S
U886 O887 2.454 . S
U886 O888 2.458 . S
U886 C889 2.984 . S
U886 C890 2.847 . S
U886 C903 2.882 . S
U886 O904 2.441 . S
U886 O905 2.420 . S
U886 O906 2.455 . S
U886 O907 2.449 . S
O887 U886 2.454 . S
O887 C889 1.353 . S
O888 U886 2.458 . S
O888 C889 1.286 . S
C889 U886 2.984 . S
C889 O887 1.353 . S
C889 O888 1.286 . S
C889 C891 1.363 . S
C890 C880 1.465 . S
C890 U886 2.847 . S
C890 O904 1.249 . S
C890 O905 1.202 . S
C891 C889 1.363 . S
C891 C893 1.408 . S
C891 C896 1.342 . S
C892 C893 1.310 . S
C892 C895 1.461 . S
C892 H912 0.932 . S
C893 C891 1.408 . S
C893 C892 1.310 . S
C893 H913 0.930 . S
C894 C895 1.474 . S
C894 C896 1.285 . S
C894 H914 0.929 . S
C895 C892 1.461 . S
C895 C894 1.474 . S
C896 C891 1.342 . S
C896 C894 1.285 . S
C896 H915 0.930 . S
C897 C900 1.424 . S
C897 C902 1.245 . S
C897 C903 1.428 . S
C898 C901 1.260 . S
C898 C902 1.477 . S
C898 H916 0.932 . S
C899 C900 1.384 . S
C899 C901 1.479 . S
C899 H917 0.929 . S
C900 C897 1.424 . S
C900 C899 1.384 . S
C900 H918 0.928 . S
C901 C898 1.260 . S
C901 C899 1.479 . S
C902 C897 1.245 . S
C902 C898 1.477 . S
C902 H919 0.932 . S
C903 U886 2.882 . S
C903 C897 1.428 . S
C903 O906 1.301 . S
C903 O907 1.282 . S
O904 U886 2.441 . S
O904 C890 1.249 . S
O905 U886 2.420 . S
O905 C890 1.202 . S
O906 U886 2.455 . S
O906 C903 1.301 . S
O907 U886 2.449 . S
O907 C903 1.282 . S
H908 C881 0.931 . S
H909 C883 0.929 . S
H910 C884 0.930 . S
H911 C885 0.931 . S
H912 C892 0.932 . S
H913 C893 0.930 . S
H914 C894 0.929 . S
H915 C896 0.930 . S
H916 C898 0.932 . S
H917 C899 0.929 . S
H918 C900 0.928 . S
H919 C902 0.932 . S
C920 C921 1.264 . S
C920 C925 1.479 . S
C920 C930 1.465 . S
C921 C920 1.264 . S
C921 C923 1.339 . S
C921 H948 0.931 . S
C922 C923 1.395 . S
C922 C924 1.320 . S
C923 C921 1.339 . S
C923 C922 1.395 . S
C923 H949 0.929 . S
C924 C922 1.320 . S
C924 C925 1.405 . S
C924 H950 0.930 . S
C925 C920 1.479 . S
C925 C924 1.405 . S
C925 H951 0.931 . S
U926 O927 2.454 . S
U926 O928 2.458 . S
U926 C929 2.984 . S
U926 C930 2.847 . S
U926 C943 2.882 . S
U926 O944 2.441 . S
U926 O945 2.420 . S
U926 O946 2.455 . S
U926 O947 2.449 . S
O927 U926 2.454 . S
O927 C929 1.353 . S
O928 U926 2.458 . S
O928 C929 1.286 . S
C929 U926 2.984 . S
C929 O927 1.353 . S
C929 O928 1.286 . S
C929 C931 1.363 . S
C930 C920 1.465 . S
C930 U926 2.847 . S
C930 O944 1.249 . S
C930 O945 1.202 . S
C931 C929 1.363 . S
C931 C933 1.408 . S
C931 C936 1.342 . S
C932 C933 1.310 . S
C932 C935 1.461 . S
C932 H952 0.932 . S
C933 C931 1.408 . S
C933 C932 1.310 . S
C933 H953 0.930 . S
C934 C935 1.474 . S
C934 C936 1.285 . S
C934 H954 0.929 . S
C935 C932 1.461 . S
C935 C934 1.474 . S
C936 C931 1.342 . S
C936 C934 1.285 . S
C936 H955 0.930 . S
C937 C940 1.424 . S
C937 C942 1.245 . S
C937 C943 1.428 . S
C938 C941 1.260 . S
C938 C942 1.477 . S
C938 H956 0.932 . S
C939 C940 1.384 . S
C939 C941 1.479 . S
C939 H957 0.929 . S
C940 C937 1.424 . S
C940 C939 1.384 . S
C940 H958 0.928 . S
C941 C938 1.260 . S
C941 C939 1.479 . S
C942 C937 1.245 . S
C942 C938 1.477 . S
C942 H959 0.932 . S
C943 U926 2.882 . S
C943 C937 1.428 . S
C943 O946 1.301 . S
C943 O947 1.282 . S
O944 U926 2.441 . S
O944 C930 1.249 . S
O945 U926 2.420 . S
O945 C930 1.202 . S
O946 U926 2.455 . S
O946 C943 1.301 . S
O947 U926 2.449 . S
O947 C943 1.282 . S
H948 C921 0.931 . S
H949 C923 0.929 . S
H950 C924 0.930 . S
H951 C925 0.931 . S
H952 C932 0.932 . S
H953 C933 0.930 . S
H954 C934 0.929 . S
H955 C936 0.930 . S
H956 C938 0.932 . S
H957 C939 0.929 . S
H958 C940 0.928 . S
H959 C942 0.932 . S
C960 C961 1.264 . S
C960 C965 1.479 . S
C960 C970 1.465 . S
C961 C960 1.264 . S
C961 C963 1.339 . S
C961 H988 0.931 . S
C962 C963 1.395 . S
C962 C964 1.320 . S
C963 C961 1.339 . S
C963 C962 1.395 . S
C963 H989 0.929 . S
C964 C962 1.320 . S
C964 C965 1.405 . S
C964 H990 0.930 . S
C965 C960 1.479 . S
C965 C964 1.405 . S
C965 H991 0.931 . S
U966 O967 2.454 . S
U966 O968 2.458 . S
U966 C969 2.984 . S
U966 C970 2.847 . S
U966 C983 2.882 . S
U966 O984 2.441 . S
U966 O985 2.420 . S
U966 O986 2.455 . S
U966 O987 2.449 . S
O967 U966 2.454 . S
O967 C969 1.353 . S
O968 U966 2.458 . S
O968 C969 1.286 . S
C969 U966 2.984 . S
C969 O967 1.353 . S
C969 O968 1.286 . S
C969 C971 1.363 . S
C970 C960 1.465 . S
C970 U966 2.847 . S
C970 O984 1.249 . S
C970 O985 1.202 . S
C971 C969 1.363 . S
C971 C973 1.408 . S
C971 C976 1.342 . S
C972 C973 1.310 . S
C972 C975 1.461 . S
C972 H992 0.932 . S
C973 C971 1.408 . S
C973 C972 1.310 . S
C973 H993 0.930 . S
C974 C975 1.474 . S
C974 C976 1.285 . S
C974 H994 0.929 . S
C975 C972 1.461 . S
C975 C974 1.474 . S
C976 C971 1.342 . S
C976 C974 1.285 . S
C976 H995 0.930 . S
C977 C980 1.424 . S
C977 C982 1.245 . S
C977 C983 1.428 . S
C978 C981 1.260 . S
C978 C982 1.477 . S
C978 H996 0.932 . S
C979 C980 1.384 . S
C979 C981 1.479 . S
C979 H997 0.929 . S
C980 C977 1.424 . S
C980 C979 1.384 . S
C980 H998 0.928 . S
C981 C978 1.260 . S
C981 C979 1.479 . S
C982 C977 1.245 . S
C982 C978 1.477 . S
C982 H999 0.932 . S
C983 U966 2.882 . S
C983 C977 1.428 . S
C983 O986 1.301 . S
C983 O987 1.282 . S
O984 U966 2.441 . S
O984 C970 1.249 . S
O985 U966 2.420 . S
O985 C970 1.202 . S
O986 U966 2.455 . S
O986 C983 1.301 . S
O987 U966 2.449 . S
O987 C983 1.282 . S
H988 C961 0.931 . S
H989 C963 0.929 . S
H990 C964 0.930 . S
H991 C965 0.931 . S
H992 C972 0.932 . S
H993 C973 0.930 . S
H994 C974 0.929 . S
H995 C976 0.930 . S
H996 C978 0.932 . S
H997 C979 0.929 . S
H998 C980 0.928 . S
H999 C982 0.932 . S
C1000 C1001 1.264 . S
C1000 C1005 1.479 . S
C1000 C1010 1.465 . S
C1001 C1000 1.264 . S
C1001 C1003 1.339 . S
C1001 H1028 0.931 . S
C1002 C1003 1.395 . S
C1002 C1004 1.320 . S
C1003 C1001 1.339 . S
C1003 C1002 1.395 . S
C1003 H1029 0.929 . S
C1004 C1002 1.320 . S
C1004 C1005 1.405 . S
C1004 H1030 0.930 . S
C1005 C1000 1.479 . S
C1005 C1004 1.405 . S
C1005 H1031 0.931 . S
U1006 O1007 2.454 . S
U1006 O1008 2.458 . S
U1006 C1009 2.984 . S
U1006 C1010 2.847 . S
U1006 C1023 2.882 . S
U1006 O1024 2.441 . S
U1006 O1025 2.420 . S
U1006 O1026 2.455 . S
U1006 O1027 2.449 . S
O1007 U1006 2.454 . S
O1007 C1009 1.353 . S
O1008 U1006 2.458 . S
O1008 C1009 1.286 . S
C1009 U1006 2.984 . S
C1009 O1007 1.353 . S
C1009 O1008 1.286 . S
C1009 C1011 1.363 . S
C1010 C1000 1.465 . S
C1010 U1006 2.847 . S
C1010 O1024 1.249 . S
C1010 O1025 1.202 . S
C1011 C1009 1.363 . S
C1011 C1013 1.408 . S
C1011 C1016 1.342 . S
C1012 C1013 1.310 . S
C1012 C1015 1.461 . S
C1012 H1032 0.932 . S
C1013 C1011 1.408 . S
C1013 C1012 1.310 . S
C1013 H1033 0.930 . S
C1014 C1015 1.474 . S
C1014 C1016 1.285 . S
C1014 H1034 0.929 . S
C1015 C1012 1.461 . S
C1015 C1014 1.474 . S
C1016 C1011 1.342 . S
C1016 C1014 1.285 . S
C1016 H1035 0.930 . S
C1017 C1020 1.424 . S
C1017 C1022 1.245 . S
C1017 C1023 1.428 . S
C1018 C1021 1.260 . S
C1018 C1022 1.477 . S
C1018 H1036 0.932 . S
C1019 C1020 1.384 . S
C1019 C1021 1.479 . S
C1019 H1037 0.929 . S
C1020 C1017 1.424 . S
C1020 C1019 1.384 . S
C1020 H1038 0.928 . S
C1021 C1018 1.260 . S
C1021 C1019 1.479 . S
C1022 C1017 1.245 . S
C1022 C1018 1.477 . S
C1022 H1039 0.932 . S
C1023 U1006 2.882 . S
C1023 C1017 1.428 . S
C1023 O1026 1.301 . S
C1023 O1027 1.282 . S
O1024 U1006 2.441 . S
O1024 C1010 1.249 . S
O1025 U1006 2.420 . S
O1025 C1010 1.202 . S
O1026 U1006 2.455 . S
O1026 C1023 1.301 . S
O1027 U1006 2.449 . S
O1027 C1023 1.282 . S
H1028 C1001 0.931 . S
H1029 C1003 0.929 . S
H1030 C1004 0.930 . S
H1031 C1005 0.931 . S
H1032 C1012 0.932 . S
H1033 C1013 0.930 . S
H1034 C1014 0.929 . S
H1035 C1016 0.930 . S
H1036 C1018 0.932 . S
H1037 C1019 0.929 . S
H1038 C1020 0.928 . S
H1039 C1022 0.932 . S
C1040 C1041 1.264 . S
C1040 C1045 1.479 . S
C1040 C1050 1.465 . S
C1041 C1040 1.264 . S
C1041 C1043 1.339 . S
C1041 H1068 0.931 . S
C1042 C1043 1.395 . S
C1042 C1044 1.320 . S
C1043 C1041 1.339 . S
C1043 C1042 1.395 . S
C1043 H1069 0.929 . S
C1044 C1042 1.320 . S
C1044 C1045 1.405 . S
C1044 H1070 0.930 . S
C1045 C1040 1.479 . S
C1045 C1044 1.405 . S
C1045 H1071 0.931 . S
U1046 O1047 2.454 . S
U1046 O1048 2.458 . S
U1046 C1049 2.984 . S
U1046 C1050 2.847 . S
U1046 C1063 2.882 . S
U1046 O1064 2.441 . S
U1046 O1065 2.420 . S
U1046 O1066 2.455 . S
U1046 O1067 2.449 . S
O1047 U1046 2.454 . S
O1047 C1049 1.353 . S
O1048 U1046 2.458 . S
O1048 C1049 1.286 . S
C1049 U1046 2.984 . S
C1049 O1047 1.353 . S
C1049 O1048 1.286 . S
C1049 C1051 1.363 . S
C1050 C1040 1.465 . S
C1050 U1046 2.847 . S
C1050 O1064 1.249 . S
C1050 O1065 1.202 . S
C1051 C1049 1.363 . S
C1051 C1053 1.408 . S
C1051 C1056 1.342 . S
C1052 C1053 1.310 . S
C1052 C1055 1.461 . S
C1052 H1072 0.932 . S
C1053 C1051 1.408 . S
C1053 C1052 1.310 . S
C1053 H1073 0.930 . S
C1054 C1055 1.474 . S
C1054 C1056 1.285 . S
C1054 H1074 0.929 . S
C1055 C1052 1.461 . S
C1055 C1054 1.474 . S
C1056 C1051 1.342 . S
C1056 C1054 1.285 . S
C1056 H1075 0.930 . S
C1057 C1060 1.424 . S
C1057 C1062 1.245 . S
C1057 C1063 1.428 . S
C1058 C1061 1.260 . S
C1058 C1062 1.477 . S
C1058 H1076 0.932 . S
C1059 C1060 1.384 . S
C1059 C1061 1.479 . S
C1059 H1077 0.929 . S
C1060 C1057 1.424 . S
C1060 C1059 1.384 . S
C1060 H1078 0.928 . S
C1061 C1058 1.260 . S
C1061 C1059 1.479 . S
C1062 C1057 1.245 . S
C1062 C1058 1.477 . S
C1062 H1079 0.932 . S
C1063 U1046 2.882 . S
C1063 C1057 1.428 . S
C1063 O1066 1.301 . S
C1063 O1067 1.282 . S
O1064 U1046 2.441 . S
O1064 C1050 1.249 . S
O1065 U1046 2.420 . S
O1065 C1050 1.202 . S
O1066 U1046 2.455 . S
O1066 C1063 1.301 . S
O1067 U1046 2.449 . S
O1067 C1063 1.282 . S
H1068 C1041 0.931 . S
H1069 C1043 0.929 . S
H1070 C1044 0.930 . S
H1071 C1045 0.931 . S
H1072 C1052 0.932 . S
H1073 C1053 0.930 . S
H1074 C1054 0.929 . S
H1075 C1056 0.930 . S
H1076 C1058 0.932 . S
H1077 C1059 0.929 . S
H1078 C1060 0.928 . S
H1079 C1062 0.932 . S
C1080 C1081 1.264 . S
C1080 C1085 1.479 . S
C1080 C1090 1.465 . S
C1081 C1080 1.264 . S
C1081 C1083 1.339 . S
C1081 H1108 0.931 . S
C1082 C1083 1.395 . S
C1082 C1084 1.320 . S
C1083 C1081 1.339 . S
C1083 C1082 1.395 . S
C1083 H1109 0.929 . S
C1084 C1082 1.320 . S
C1084 C1085 1.405 . S
C1084 H1110 0.930 . S
C1085 C1080 1.479 . S
C1085 C1084 1.405 . S
C1085 H1111 0.931 . S
U1086 O1087 2.454 . S
U1086 O1088 2.458 . S
U1086 C1089 2.984 . S
U1086 C1090 2.847 . S
U1086 C1103 2.882 . S
U1086 O1104 2.441 . S
U1086 O1105 2.420 . S
U1086 O1106 2.455 . S
U1086 O1107 2.449 . S
O1087 U1086 2.454 . S
O1087 C1089 1.353 . S
O1088 U1086 2.458 . S
O1088 C1089 1.286 . S
C1089 U1086 2.984 . S
C1089 O1087 1.353 . S
C1089 O1088 1.286 . S
C1089 C1091 1.363 . S
C1090 C1080 1.465 . S
C1090 U1086 2.847 . S
C1090 O1104 1.249 . S
C1090 O1105 1.202 . S
C1091 C1089 1.363 . S
C1091 C1093 1.408 . S
C1091 C1096 1.342 . S
C1092 C1093 1.310 . S
C1092 C1095 1.461 . S
C1092 H1112 0.932 . S
C1093 C1091 1.408 . S
C1093 C1092 1.310 . S
C1093 H1113 0.930 . S
C1094 C1095 1.474 . S
C1094 C1096 1.285 . S
C1094 H1114 0.929 . S
C1095 C1092 1.461 . S
C1095 C1094 1.474 . S
C1096 C1091 1.342 . S
C1096 C1094 1.285 . S
C1096 H1115 0.930 . S
C1097 C1100 1.424 . S
C1097 C1102 1.245 . S
C1097 C1103 1.428 . S
C1098 C1101 1.260 . S
C1098 C1102 1.477 . S
C1098 H1116 0.932 . S
C1099 C1100 1.384 . S
C1099 C1101 1.479 . S
C1099 H1117 0.929 . S
C1100 C1097 1.424 . S
C1100 C1099 1.384 . S
C1100 H1118 0.928 . S
C1101 C1098 1.260 . S
C1101 C1099 1.479 . S
C1102 C1097 1.245 . S
C1102 C1098 1.477 . S
C1102 H1119 0.932 . S
C1103 U1086 2.882 . S
C1103 C1097 1.428 . S
C1103 O1106 1.301 . S
C1103 O1107 1.282 . S
O1104 U1086 2.441 . S
O1104 C1090 1.249 . S
O1105 U1086 2.420 . S
O1105 C1090 1.202 . S
O1106 U1086 2.455 . S
O1106 C1103 1.301 . S
O1107 U1086 2.449 . S
O1107 C1103 1.282 . S
H1108 C1081 0.931 . S
H1109 C1083 0.929 . S
H1110 C1084 0.930 . S
H1111 C1085 0.931 . S
H1112 C1092 0.932 . S
H1113 C1093 0.930 . S
H1114 C1094 0.929 . S
H1115 C1096 0.930 . S
H1116 C1098 0.932 . S
H1117 C1099 0.929 . S
H1118 C1100 0.928 . S
H1119 C1102 0.932 . S
C1120 C1121 1.264 . S
C1120 C1125 1.479 . S
C1120 C1130 1.465 . S
C1121 C1120 1.264 . S
C1121 C1123 1.339 . S
C1121 H1148 0.931 . S
C1122 C1123 1.395 . S
C1122 C1124 1.320 . S
C1123 C1121 1.339 . S
C1123 C1122 1.395 . S
C1123 H1149 0.929 . S
C1124 C1122 1.320 . S
C1124 C1125 1.405 . S
C1124 H1150 0.930 . S
C1125 C1120 1.479 . S
C1125 C1124 1.405 . S
C1125 H1151 0.931 . S
U1126 O1127 2.454 . S
U1126 O1128 2.458 . S
U1126 C1129 2.984 . S
U1126 C1130 2.847 . S
U1126 C1143 2.882 . S
U1126 O1144 2.441 . S
U1126 O1145 2.420 . S
U1126 O1146 2.455 . S
U1126 O1147 2.449 . S
O1127 U1126 2.454 . S
O1127 C1129 1.353 . S
O1128 U1126 2.458 . S
O1128 C1129 1.286 . S
C1129 U1126 2.984 . S
C1129 O1127 1.353 . S
C1129 O1128 1.286 . S
C1129 C1131 1.363 . S
C1130 C1120 1.465 . S
C1130 U1126 2.847 . S
C1130 O1144 1.249 . S
C1130 O1145 1.202 . S
C1131 C1129 1.363 . S
C1131 C1133 1.408 . S
C1131 C1136 1.342 . S
C1132 C1133 1.310 . S
C1132 C1135 1.461 . S
C1132 H1152 0.932 . S
C1133 C1131 1.408 . S
C1133 C1132 1.310 . S
C1133 H1153 0.930 . S
C1134 C1135 1.474 . S
C1134 C1136 1.285 . S
C1134 H1154 0.929 . S
C1135 C1132 1.461 . S
C1135 C1134 1.474 . S
C1136 C1131 1.342 . S
C1136 C1134 1.285 . S
C1136 H1155 0.930 . S
C1137 C1140 1.424 . S
C1137 C1142 1.245 . S
C1137 C1143 1.428 . S
C1138 C1141 1.260 . S
C1138 C1142 1.477 . S
C1138 H1156 0.932 . S
C1139 C1140 1.384 . S
C1139 C1141 1.479 . S
C1139 H1157 0.929 . S
C1140 C1137 1.424 . S
C1140 C1139 1.384 . S
C1140 H1158 0.928 . S
C1141 C1138 1.260 . S
C1141 C1139 1.479 . S
C1142 C1137 1.245 . S
C1142 C1138 1.477 . S
C1142 H1159 0.932 . S
C1143 U1126 2.882 . S
C1143 C1137 1.428 . S
C1143 O1146 1.301 . S
C1143 O1147 1.282 . S
O1144 U1126 2.441 . S
O1144 C1130 1.249 . S
O1145 U1126 2.420 . S
O1145 C1130 1.202 . S
O1146 U1126 2.455 . S
O1146 C1143 1.301 . S
O1147 U1126 2.449 . S
O1147 C1143 1.282 . S
H1148 C1121 0.931 . S
H1149 C1123 0.929 . S
H1150 C1124 0.930 . S
H1151 C1125 0.931 . S
H1152 C1132 0.932 . S
H1153 C1133 0.930 . S
H1154 C1134 0.929 . S
H1155 C1136 0.930 . S
H1156 C1138 0.932 . S
H1157 C1139 0.929 . S
H1158 C1140 0.928 . S
H1159 C1142 0.932 . S
C1160 C1161 1.264 . S
C1160 C1165 1.479 . S
C1160 C1170 1.465 . S
C1161 C1160 1.264 . S
C1161 C1163 1.339 . S
C1161 H1188 0.931 . S
C1162 C1163 1.395 . S
C1162 C1164 1.320 . S
C1163 C1161 1.339 . S
C1163 C1162 1.395 . S
C1163 H1189 0.929 . S
C1164 C1162 1.320 . S
C1164 C1165 1.405 . S
C1164 H1190 0.930 . S
C1165 C1160 1.479 . S
C1165 C1164 1.405 . S
C1165 H1191 0.931 . S
U1166 O1167 2.454 . S
U1166 O1168 2.458 . S
U1166 C1169 2.984 . S
U1166 C1170 2.847 . S
U1166 C1183 2.882 . S
U1166 O1184 2.441 . S
U1166 O1185 2.420 . S
U1166 O1186 2.455 . S
U1166 O1187 2.449 . S
O1167 U1166 2.454 . S
O1167 C1169 1.353 . S
O1168 U1166 2.458 . S
O1168 C1169 1.286 . S
C1169 U1166 2.984 . S
C1169 O1167 1.353 . S
C1169 O1168 1.286 . S
C1169 C1171 1.363 . S
C1170 C1160 1.465 . S
C1170 U1166 2.847 . S
C1170 O1184 1.249 . S
C1170 O1185 1.202 . S
C1171 C1169 1.363 . S
C1171 C1173 1.408 . S
C1171 C1176 1.342 . S
C1172 C1173 1.310 . S
C1172 C1175 1.461 . S
C1172 H1192 0.932 . S
C1173 C1171 1.408 . S
C1173 C1172 1.310 . S
C1173 H1193 0.930 . S
C1174 C1175 1.474 . S
C1174 C1176 1.285 . S
C1174 H1194 0.929 . S
C1175 C1172 1.461 . S
C1175 C1174 1.474 . S
C1176 C1171 1.342 . S
C1176 C1174 1.285 . S
C1176 H1195 0.930 . S
C1177 C1180 1.424 . S
C1177 C1182 1.245 . S
C1177 C1183 1.428 . S
C1178 C1181 1.260 . S
C1178 C1182 1.477 . S
C1178 H1196 0.932 . S
C1179 C1180 1.384 . S
C1179 C1181 1.479 . S
C1179 H1197 0.929 . S
C1180 C1177 1.424 . S
C1180 C1179 1.384 . S
C1180 H1198 0.928 . S
C1181 C1178 1.260 . S
C1181 C1179 1.479 . S
C1182 C1177 1.245 . S
C1182 C1178 1.477 . S
C1182 H1199 0.932 . S
C1183 U1166 2.882 . S
C1183 C1177 1.428 . S
C1183 O1186 1.301 . S
C1183 O1187 1.282 . S
O1184 U1166 2.441 . S
O1184 C1170 1.249 . S
O1185 U1166 2.420 . S
O1185 C1170 1.202 . S
O1186 U1166 2.455 . S
O1186 C1183 1.301 . S
O1187 U1166 2.449 . S
O1187 C1183 1.282 . S
H1188 C1161 0.931 . S
H1189 C1163 0.929 . S
H1190 C1164 0.930 . S
H1191 C1165 0.931 . S
H1192 C1172 0.932 . S
H1193 C1173 0.930 . S
H1194 C1174 0.929 . S
H1195 C1176 0.930 . S
H1196 C1178 0.932 . S
H1197 C1179 0.929 . S
H1198 C1180 0.928 . S
H1199 C1182 0.932 . S
C1200 C1201 1.264 . S
C1200 C1205 1.479 . S
C1200 C1210 1.465 . S
C1201 C1200 1.264 . S
C1201 C1203 1.339 . S
C1201 H1228 0.931 . S
C1202 C1203 1.395 . S
C1202 C1204 1.320 . S
C1203 C1201 1.339 . S
C1203 C1202 1.395 . S
C1203 H1229 0.929 . S
C1204 C1202 1.320 . S
C1204 C1205 1.405 . S
C1204 H1230 0.930 . S
C1205 C1200 1.479 . S
C1205 C1204 1.405 . S
C1205 H1231 0.931 . S
U1206 O1207 2.454 . S
U1206 O1208 2.458 . S
U1206 C1209 2.984 . S
U1206 C1210 2.847 . S
U1206 C1223 2.882 . S
U1206 O1224 2.441 . S
U1206 O1225 2.420 . S
U1206 O1226 2.455 . S
U1206 O1227 2.449 . S
O1207 U1206 2.454 . S
O1207 C1209 1.353 . S
O1208 U1206 2.458 . S
O1208 C1209 1.286 . S
C1209 U1206 2.984 . S
C1209 O1207 1.353 . S
C1209 O1208 1.286 . S
C1209 C1211 1.363 . S
C1210 C1200 1.465 . S
C1210 U1206 2.847 . S
C1210 O1224 1.249 . S
C1210 O1225 1.202 . S
C1211 C1209 1.363 . S
C1211 C1213 1.408 . S
C1211 C1216 1.342 . S
C1212 C1213 1.310 . S
C1212 C1215 1.461 . S
C1212 H1232 0.932 . S
C1213 C1211 1.408 . S
C1213 C1212 1.310 . S
C1213 H1233 0.930 . S
C1214 C1215 1.474 . S
C1214 C1216 1.285 . S
C1214 H1234 0.929 . S
C1215 C1212 1.461 . S
C1215 C1214 1.474 . S
C1216 C1211 1.342 . S
C1216 C1214 1.285 . S
C1216 H1235 0.930 . S
C1217 C1220 1.424 . S
C1217 C1222 1.245 . S
C1217 C1223 1.428 . S
C1218 C1221 1.260 . S
C1218 C1222 1.477 . S
C1218 H1236 0.932 . S
C1219 C1220 1.384 . S
C1219 C1221 1.479 . S
C1219 H1237 0.929 . S
C1220 C1217 1.424 . S
C1220 C1219 1.384 . S
C1220 H1238 0.928 . S
C1221 C1218 1.260 . S
C1221 C1219 1.479 . S
C1222 C1217 1.245 . S
C1222 C1218 1.477 . S
C1222 H1239 0.932 . S
C1223 U1206 2.882 . S
C1223 C1217 1.428 . S
C1223 O1226 1.301 . S
C1223 O1227 1.282 . S
O1224 U1206 2.441 . S
O1224 C1210 1.249 . S
O1225 U1206 2.420 . S
O1225 C1210 1.202 . S
O1226 U1206 2.455 . S
O1226 C1223 1.301 . S
O1227 U1206 2.449 . S
O1227 C1223 1.282 . S
H1228 C1201 0.931 . S
H1229 C1203 0.929 . S
H1230 C1204 0.930 . S
H1231 C1205 0.931 . S
H1232 C1212 0.932 . S
H1233 C1213 0.930 . S
H1234 C1214 0.929 . S
H1235 C1216 0.930 . S
H1236 C1218 0.932 . S
H1237 C1219 0.929 . S
H1238 C1220 0.928 . S
H1239 C1222 0.932 . S
C1240 C1241 1.264 . S
C1240 C1245 1.479 . S
C1240 C1250 1.465 . S
C1241 C1240 1.264 . S
C1241 C1243 1.339 . S
C1241 H1268 0.931 . S
C1242 C1243 1.395 . S
C1242 C1244 1.320 . S
C1243 C1241 1.339 . S
C1243 C1242 1.395 . S
C1243 H1269 0.929 . S
C1244 C1242 1.320 . S
C1244 C1245 1.405 . S
C1244 H1270 0.930 . S
C1245 C1240 1.479 . S
C1245 C1244 1.405 . S
C1245 H1271 0.931 . S
U1246 O1247 2.454 . S
U1246 O1248 2.458 . S
U1246 C1249 2.984 . S
U1246 C1250 2.847 . S
U1246 C1263 2.882 . S
U1246 O1264 2.441 . S
U1246 O1265 2.420 . S
U1246 O1266 2.455 . S
U1246 O1267 2.449 . S
O1247 U1246 2.454 . S
O1247 C1249 1.353 . S
O1248 U1246 2.458 . S
O1248 C1249 1.286 . S
C1249 U1246 2.984 . S
C1249 O1247 1.353 . S
C1249 O1248 1.286 . S
C1249 C1251 1.363 . S
C1250 C1240 1.465 . S
C1250 U1246 2.847 . S
C1250 O1264 1.249 . S
C1250 O1265 1.202 . S
C1251 C1249 1.363 . S
C1251 C1253 1.408 . S
C1251 C1256 1.342 . S
C1252 C1253 1.310 . S
C1252 C1255 1.461 . S
C1252 H1272 0.932 . S
C1253 C1251 1.408 . S
C1253 C1252 1.310 . S
C1253 H1273 0.930 . S
C1254 C1255 1.474 . S
C1254 C1256 1.285 . S
C1254 H1274 0.929 . S
C1255 C1252 1.461 . S
C1255 C1254 1.474 . S
C1256 C1251 1.342 . S
C1256 C1254 1.285 . S
C1256 H1275 0.930 . S
C1257 C1260 1.424 . S
C1257 C1262 1.245 . S
C1257 C1263 1.428 . S
C1258 C1261 1.260 . S
C1258 C1262 1.477 . S
C1258 H1276 0.932 . S
C1259 C1260 1.384 . S
C1259 C1261 1.479 . S
C1259 H1277 0.929 . S
C1260 C1257 1.424 . S
C1260 C1259 1.384 . S
C1260 H1278 0.928 . S
C1261 C1258 1.260 . S
C1261 C1259 1.479 . S
C1262 C1257 1.245 . S
C1262 C1258 1.477 . S
C1262 H1279 0.932 . S
C1263 U1246 2.882 . S
C1263 C1257 1.428 . S
C1263 O1266 1.301 . S
C1263 O1267 1.282 . S
O1264 U1246 2.441 . S
O1264 C1250 1.249 . S
O1265 U1246 2.420 . S
O1265 C1250 1.202 . S
O1266 U1246 2.455 . S
O1266 C1263 1.301 . S
O1267 U1246 2.449 . S
O1267 C1263 1.282 . S
H1268 C1241 0.931 . S
H1269 C1243 0.929 . S
H1270 C1244 0.930 . S
H1271 C1245 0.931 . S
H1272 C1252 0.932 . S
H1273 C1253 0.930 . S
H1274 C1254 0.929 . S
H1275 C1256 0.930 . S
H1276 C1258 0.932 . S
H1277 C1259 0.929 . S
H1278 C1260 0.928 . S
H1279 C1262 0.932 . S
H1280 C1286 0.930 . S
H1281 C1289 0.931 . S
H1282 C1291 0.931 . S
H1283 C1293 0.930 . S
H1284 C1295 0.930 . S
H1285 C1297 0.931 . S
C1286 H1280 0.930 . S
C1286 C1287 1.380 . S
C1286 C1288 1.394 . S
C1287 C1286 1.380 . S
C1287 C1291 1.382 . S
C1288 C1286 1.394 . S
C1288 C1289 1.400 . S
C1289 H1281 0.931 . S
C1289 C1288 1.400 . S
C1289 C1290 1.375 . S
C1290 C1289 1.375 . S
C1290 C1291 1.415 . S
C1290 C1292 1.501 1_556 S
C1291 H1282 0.931 . S
C1291 C1287 1.382 . S
C1291 C1290 1.415 . S
C1292 C1290 1.501 1_554 S
C1292 C1293 1.384 . S
C1292 C1297 1.408 . S
C1293 H1283 0.930 . S
C1293 C1292 1.384 . S
C1293 C1294 1.389 . S
C1294 C1293 1.389 . S
C1294 C1295 1.405 . S
C1295 H1284 0.930 . S
C1295 C1294 1.405 . S
C1295 C1296 1.364 . S
C1296 C1295 1.364 . S
C1296 C1297 1.400 . S
C1297 H1285 0.931 . S
C1297 C1292 1.408 . S
C1297 C1296 1.400 . S
H1298 C1304 0.930 . S
H1299 C1307 0.931 . S
H1300 C1309 0.931 . S
H1301 C1311 0.930 . S
H1302 C1313 0.930 . S
H1303 C1315 0.931 . S
C1304 H1298 0.930 . S
C1304 C1305 1.380 . S
C1304 C1306 1.394 . S
C1305 C1304 1.380 . S
C1305 C1309 1.382 . S
C1306 C1304 1.394 . S
C1306 C1307 1.400 . S
C1307 H1299 0.931 . S
C1307 C1306 1.400 . S
C1307 C1308 1.375 . S
C1308 C1307 1.375 . S
C1308 C1309 1.415 . S
C1308 C1310 1.501 1_554 S
C1309 H1300 0.931 . S
C1309 C1305 1.382 . S
C1309 C1308 1.415 . S
C1310 C1308 1.501 1_556 S
C1310 C1311 1.384 . S
C1310 C1315 1.408 . S
C1311 H1301 0.930 . S
C1311 C1310 1.384 . S
C1311 C1312 1.389 . S
C1312 C1311 1.389 . S
C1312 C1313 1.405 . S
C1313 H1302 0.930 . S
C1313 C1312 1.405 . S
C1313 C1314 1.364 . S
C1314 C1313 1.364 . S
C1314 C1315 1.400 . S
C1315 H1303 0.931 . S
C1315 C1310 1.408 . S
C1315 C1314 1.400 . S
H1316 C1322 0.930 . S
H1317 C1325 0.931 . S
H1318 C1327 0.931 . S
H1319 C1329 0.930 . S
H1320 C1331 0.930 . S
H1321 C1333 0.931 . S
C1322 H1316 0.930 . S
C1322 C1323 1.380 . S
C1322 C1324 1.394 . S
C1323 C1322 1.380 . S
C1323 C1327 1.382 . S
C1324 C1322 1.394 . S
C1324 C1325 1.400 . S
C1325 H1317 0.931 . S
C1325 C1324 1.400 . S
C1325 C1326 1.375 . S
C1326 C1325 1.375 . S
C1326 C1327 1.415 . S
C1326 C1328 1.501 1_556 S
C1327 H1318 0.931 . S
C1327 C1323 1.382 . S
C1327 C1326 1.415 . S
C1328 C1326 1.501 1_554 S
C1328 C1329 1.384 . S
C1328 C1333 1.408 . S
C1329 H1319 0.930 . S
C1329 C1328 1.384 . S
C1329 C1330 1.389 . S
C1330 C1329 1.389 . S
C1330 C1331 1.405 . S
C1331 H1320 0.930 . S
C1331 C1330 1.405 . S
C1331 C1332 1.364 . S
C1332 C1331 1.364 . S
C1332 C1333 1.400 . S
C1333 H1321 0.931 . S
C1333 C1328 1.408 . S
C1333 C1332 1.400 . S
H1334 C1340 0.930 . S
H1335 C1343 0.931 . S
H1336 C1345 0.931 . S
H1337 C1347 0.930 . S
H1338 C1349 0.930 . S
H1339 C1351 0.931 . S
C1340 H1334 0.930 . S
C1340 C1341 1.380 . S
C1340 C1342 1.394 . S
C1341 C1340 1.380 . S
C1341 C1345 1.382 . S
C1342 C1340 1.394 . S
C1342 C1343 1.400 . S
C1343 H1335 0.931 . S
C1343 C1342 1.400 . S
C1343 C1344 1.375 . S
C1344 C1343 1.375 . S
C1344 C1345 1.415 . S
C1344 C1346 1.501 1_554 S
C1345 H1336 0.931 . S
C1345 C1341 1.382 . S
C1345 C1344 1.415 . S
C1346 C1344 1.501 1_556 S
C1346 C1347 1.384 . S
C1346 C1351 1.408 . S
C1347 H1337 0.930 . S
C1347 C1346 1.384 . S
C1347 C1348 1.389 . S
C1348 C1347 1.389 . S
C1348 C1349 1.405 . S
C1349 H1338 0.930 . S
C1349 C1348 1.405 . S
C1349 C1350 1.364 . S
C1350 C1349 1.364 . S
C1350 C1351 1.400 . S
C1351 H1339 0.931 . S
C1351 C1346 1.408 . S
C1351 C1350 1.400 . S
H1352 C1358 0.930 . S
H1353 C1361 0.931 . S
H1354 C1363 0.931 . S
H1355 C1365 0.930 . S
H1356 C1367 0.930 . S
H1357 C1369 0.931 . S
C1358 H1352 0.930 . S
C1358 C1359 1.380 . S
C1358 C1360 1.394 . S
C1359 C1358 1.380 . S
C1359 C1363 1.382 . S
C1360 C1358 1.394 . S
C1360 C1361 1.400 . S
C1361 H1353 0.931 . S
C1361 C1360 1.400 . S
C1361 C1362 1.375 . S
C1362 C1361 1.375 . S
C1362 C1363 1.415 . S
C1362 C1364 1.501 1_455 S
C1363 H1354 0.931 . S
C1363 C1359 1.382 . S
C1363 C1362 1.415 . S
C1364 C1362 1.501 1_655 S
C1364 C1365 1.384 . S
C1364 C1369 1.408 . S
C1365 H1355 0.930 . S
C1365 C1364 1.384 . S
C1365 C1366 1.389 . S
C1366 C1365 1.389 . S
C1366 C1367 1.405 . S
C1367 H1356 0.930 . S
C1367 C1366 1.405 . S
C1367 C1368 1.364 . S
C1368 C1367 1.364 . S
C1368 C1369 1.400 . S
C1369 H1357 0.931 . S
C1369 C1364 1.408 . S
C1369 C1368 1.400 . S
H1370 C1376 0.930 . S
H1371 C1379 0.931 . S
H1372 C1381 0.931 . S
H1373 C1383 0.930 . S
H1374 C1385 0.930 . S
H1375 C1387 0.931 . S
C1376 H1370 0.930 . S
C1376 C1377 1.380 . S
C1376 C1378 1.394 . S
C1377 C1376 1.380 . S
C1377 C1381 1.382 . S
C1378 C1376 1.394 . S
C1378 C1379 1.400 . S
C1379 H1371 0.931 . S
C1379 C1378 1.400 . S
C1379 C1380 1.375 . S
C1380 C1379 1.375 . S
C1380 C1381 1.415 . S
C1380 C1382 1.501 1_565 S
C1381 H1372 0.931 . S
C1381 C1377 1.382 . S
C1381 C1380 1.415 . S
C1382 C1380 1.501 1_545 S
C1382 C1383 1.384 . S
C1382 C1387 1.408 . S
C1383 H1373 0.930 . S
C1383 C1382 1.384 . S
C1383 C1384 1.389 . S
C1384 C1383 1.389 . S
C1384 C1385 1.405 . S
C1385 H1374 0.930 . S
C1385 C1384 1.405 . S
C1385 C1386 1.364 . S
C1386 C1385 1.364 . S
C1386 C1387 1.400 . S
C1387 H1375 0.931 . S
C1387 C1382 1.408 . S
C1387 C1386 1.400 . S
H1388 C1394 0.930 . S
H1389 C1397 0.931 . S
H1390 C1399 0.931 . S
H1391 C1401 0.930 . S
H1392 C1403 0.930 . S
H1393 C1405 0.931 . S
C1394 H1388 0.930 . S
C1394 C1395 1.380 . S
C1394 C1396 1.394 . S
C1395 C1394 1.380 . S
C1395 C1399 1.382 . S
C1396 C1394 1.394 . S
C1396 C1397 1.400 . S
C1397 H1389 0.931 . S
C1397 C1396 1.400 . S
C1397 C1398 1.375 . S
C1398 C1397 1.375 . S
C1398 C1399 1.415 . S
C1398 C1400 1.501 1_455 S
C1399 H1390 0.931 . S
C1399 C1395 1.382 . S
C1399 C1398 1.415 . S
C1400 C1398 1.501 1_655 S
C1400 C1401 1.384 . S
C1400 C1405 1.408 . S
C1401 H1391 0.930 . S
C1401 C1400 1.384 . S
C1401 C1402 1.389 . S
C1402 C1401 1.389 . S
C1402 C1403 1.405 . S
C1403 H1392 0.930 . S
C1403 C1402 1.405 . S
C1403 C1404 1.364 . S
C1404 C1403 1.364 . S
C1404 C1405 1.400 . S
C1405 H1393 0.931 . S
C1405 C1400 1.408 . S
C1405 C1404 1.400 . S
H1406 C1412 0.930 . S
H1407 C1415 0.931 . S
H1408 C1417 0.931 . S
H1409 C1419 0.930 . S
H1410 C1421 0.930 . S
H1411 C1423 0.931 . S
C1412 H1406 0.930 . S
C1412 C1413 1.380 . S
C1412 C1414 1.394 . S
C1413 C1412 1.380 . S
C1413 C1417 1.382 . S
C1414 C1412 1.394 . S
C1414 C1415 1.400 . S
C1415 H1407 0.931 . S
C1415 C1414 1.400 . S
C1415 C1416 1.375 . S
C1416 C1415 1.375 . S
C1416 C1417 1.415 . S
C1416 C1418 1.501 1_545 S
C1417 H1408 0.931 . S
C1417 C1413 1.382 . S
C1417 C1416 1.415 . S
C1418 C1416 1.501 1_565 S
C1418 C1419 1.384 . S
C1418 C1423 1.408 . S
C1419 H1409 0.930 . S
C1419 C1418 1.384 . S
C1419 C1420 1.389 . S
C1420 C1419 1.389 . S
C1420 C1421 1.405 . S
C1421 H1410 0.930 . S
C1421 C1420 1.405 . S
C1421 C1422 1.364 . S
C1422 C1421 1.364 . S
C1422 C1423 1.400 . S
C1423 H1411 0.931 . S
C1423 C1418 1.408 . S
C1423 C1422 1.400 . S
H1424 C1430 0.930 . S
H1425 C1433 0.931 . S
H1426 C1435 0.931 . S
H1427 C1437 0.930 . S
H1428 C1439 0.930 . S
H1429 C1441 0.931 . S
C1430 H1424 0.930 . S
C1430 C1431 1.380 . S
C1430 C1432 1.394 . S
C1431 C1430 1.380 . S
C1431 C1435 1.382 . S
C1432 C1430 1.394 . S
C1432 C1433 1.400 . S
C1433 H1425 0.931 . S
C1433 C1432 1.400 . S
C1433 C1434 1.375 . S
C1434 C1433 1.375 . S
C1434 C1435 1.415 . S
C1434 C1436 1.501 1_455 S
C1435 H1426 0.931 . S
C1435 C1431 1.382 . S
C1435 C1434 1.415 . S
C1436 C1434 1.501 1_655 S
C1436 C1437 1.384 . S
C1436 C1441 1.408 . S
C1437 H1427 0.930 . S
C1437 C1436 1.384 . S
C1437 C1438 1.389 . S
C1438 C1437 1.389 . S
C1438 C1439 1.405 . S
C1439 H1428 0.930 . S
C1439 C1438 1.405 . S
C1439 C1440 1.364 . S
C1440 C1439 1.364 . S
C1440 C1441 1.400 . S
C1441 H1429 0.931 . S
C1441 C1436 1.408 . S
C1441 C1440 1.400 . S
H1442 C1448 0.930 . S
H1443 C1451 0.931 . S
H1444 C1453 0.931 . S
H1445 C1455 0.930 . S
H1446 C1457 0.930 . S
H1447 C1459 0.931 . S
C1448 H1442 0.930 . S
C1448 C1449 1.380 . S
C1448 C1450 1.394 . S
C1449 C1448 1.380 . S
C1449 C1453 1.382 . S
C1450 C1448 1.394 . S
C1450 C1451 1.400 . S
C1451 H1443 0.931 . S
C1451 C1450 1.400 . S
C1451 C1452 1.375 . S
C1452 C1451 1.375 . S
C1452 C1453 1.415 . S
C1452 C1454 1.501 1_565 S
C1453 H1444 0.931 . S
C1453 C1449 1.382 . S
C1453 C1452 1.415 . S
C1454 C1452 1.501 1_545 S
C1454 C1455 1.384 . S
C1454 C1459 1.408 . S
C1455 H1445 0.930 . S
C1455 C1454 1.384 . S
C1455 C1456 1.389 . S
C1456 C1455 1.389 . S
C1456 C1457 1.405 . S
C1457 H1446 0.930 . S
C1457 C1456 1.405 . S
C1457 C1458 1.364 . S
C1458 C1457 1.364 . S
C1458 C1459 1.400 . S
C1459 H1447 0.931 . S
C1459 C1454 1.408 . S
C1459 C1458 1.400 . S
H1460 C1466 0.930 . S
H1461 C1469 0.931 . S
H1462 C1471 0.931 . S
H1463 C1473 0.930 . S
H1464 C1475 0.930 . S
H1465 C1477 0.931 . S
C1466 H1460 0.930 . S
C1466 C1467 1.380 . S
C1466 C1468 1.394 . S
C1467 C1466 1.380 . S
C1467 C1471 1.382 . S
C1468 C1466 1.394 . S
C1468 C1469 1.400 . S
C1469 H1461 0.931 . S
C1469 C1468 1.400 . S
C1469 C1470 1.375 . S
C1470 C1469 1.375 . S
C1470 C1471 1.415 . S
C1470 C1472 1.501 1_455 S
C1471 H1462 0.931 . S
C1471 C1467 1.382 . S
C1471 C1470 1.415 . S
C1472 C1470 1.501 1_655 S
C1472 C1473 1.384 . S
C1472 C1477 1.408 . S
C1473 H1463 0.930 . S
C1473 C1472 1.384 . S
C1473 C1474 1.389 . S
C1474 C1473 1.389 . S
C1474 C1475 1.405 . S
C1475 H1464 0.930 . S
C1475 C1474 1.405 . S
C1475 C1476 1.364 . S
C1476 C1475 1.364 . S
C1476 C1477 1.400 . S
C1477 H1465 0.931 . S
C1477 C1472 1.408 . S
C1477 C1476 1.400 . S
H1478 C1484 0.930 . S
H1479 C1487 0.931 . S
H1480 C1489 0.931 . S
H1481 C1491 0.930 . S
H1482 C1493 0.930 . S
H1483 C1495 0.931 . S
C1484 H1478 0.930 . S
C1484 C1485 1.380 . S
C1484 C1486 1.394 . S
C1485 C1484 1.380 . S
C1485 C1489 1.382 . S
C1486 C1484 1.394 . S
C1486 C1487 1.400 . S
C1487 H1479 0.931 . S
C1487 C1486 1.400 . S
C1487 C1488 1.375 . S
C1488 C1487 1.375 . S
C1488 C1489 1.415 . S
C1488 C1490 1.501 1_545 S
C1489 H1480 0.931 . S
C1489 C1485 1.382 . S
C1489 C1488 1.415 . S
C1490 C1488 1.501 1_565 S
C1490 C1491 1.384 . S
C1490 C1495 1.408 . S
C1491 H1481 0.930 . S
C1491 C1490 1.384 . S
C1491 C1492 1.389 . S
C1492 C1491 1.389 . S
C1492 C1493 1.405 . S
C1493 H1482 0.930 . S
C1493 C1492 1.405 . S
C1493 C1494 1.364 . S
C1494 C1493 1.364 . S
C1494 C1495 1.400 . S
C1495 H1483 0.931 . S
C1495 C1490 1.408 . S
C1495 C1494 1.400 . S
H1496 C1502 0.930 . S
H1497 C1505 0.931 . S
H1498 C1507 0.931 . S
H1499 C1509 0.930 . S
H1500 C1511 0.930 . S
H1501 C1513 0.931 . S
C1502 H1496 0.930 . S
C1502 C1503 1.380 . S
C1502 C1504 1.394 . S
C1503 C1502 1.380 . S
C1503 C1507 1.382 . S
C1504 C1502 1.394 . S
C1504 C1505 1.400 . S
C1505 H1497 0.931 . S
C1505 C1504 1.400 . S
C1505 C1506 1.375 . S
C1506 C1505 1.375 . S
C1506 C1507 1.415 . S
C1506 C1508 1.501 . S
C1507 H1498 0.931 . S
C1507 C1503 1.382 . S
C1507 C1506 1.415 . S
C1508 C1506 1.501 . S
C1508 C1509 1.384 . S
C1508 C1513 1.408 . S
C1509 H1499 0.930 . S
C1509 C1508 1.384 . S
C1509 C1510 1.389 . S
C1510 C1509 1.389 . S
C1510 C1511 1.405 . S
C1511 H1500 0.930 . S
C1511 C1510 1.405 . S
C1511 C1512 1.364 . S
C1512 C1511 1.364 . S
C1512 C1513 1.400 . S
C1513 H1501 0.931 . S
C1513 C1508 1.408 . S
C1513 C1512 1.400 . S
H1514 C1520 0.930 . S
H1515 C1523 0.931 . S
H1516 C1525 0.931 . S
H1517 C1527 0.930 . S
H1518 C1529 0.930 . S
H1519 C1531 0.931 . S
C1520 H1514 0.930 . S
C1520 C1521 1.380 . S
C1520 C1522 1.394 . S
C1521 C1520 1.380 . S
C1521 C1525 1.382 . S
C1522 C1520 1.394 . S
C1522 C1523 1.400 . S
C1523 H1515 0.931 . S
C1523 C1522 1.400 . S
C1523 C1524 1.375 . S
C1524 C1523 1.375 . S
C1524 C1525 1.415 . S
C1524 C1526 1.501 . S
C1525 H1516 0.931 . S
C1525 C1521 1.382 . S
C1525 C1524 1.415 . S
C1526 C1524 1.501 . S
C1526 C1527 1.384 . S
C1526 C1531 1.408 . S
C1527 H1517 0.930 . S
C1527 C1526 1.384 . S
C1527 C1528 1.389 . S
C1528 C1527 1.389 . S
C1528 C1529 1.405 . S
C1529 H1518 0.930 . S
C1529 C1528 1.405 . S
C1529 C1530 1.364 . S
C1530 C1529 1.364 . S
C1530 C1531 1.400 . S
C1531 H1519 0.931 . S
C1531 C1526 1.408 . S
C1531 C1530 1.400 . S
H1532 C1538 0.930 . S
H1533 C1541 0.931 . S
H1534 C1543 0.931 . S
H1535 C1545 0.930 . S
H1536 C1547 0.930 . S
H1537 C1549 0.931 . S
C1538 H1532 0.930 . S
C1538 C1539 1.380 . S
C1538 C1540 1.394 . S
C1539 C1538 1.380 . S
C1539 C1543 1.382 . S
C1540 C1538 1.394 . S
C1540 C1541 1.400 . S
C1541 H1533 0.931 . S
C1541 C1540 1.400 . S
C1541 C1542 1.375 . S
C1542 C1541 1.375 . S
C1542 C1543 1.415 . S
C1542 C1544 1.501 . S
C1543 H1534 0.931 . S
C1543 C1539 1.382 . S
C1543 C1542 1.415 . S
C1544 C1542 1.501 . S
C1544 C1545 1.384 . S
C1544 C1549 1.408 . S
C1545 H1535 0.930 . S
C1545 C1544 1.384 . S
C1545 C1546 1.389 . S
C1546 C1545 1.389 . S
C1546 C1547 1.405 . S
C1547 H1536 0.930 . S
C1547 C1546 1.405 . S
C1547 C1548 1.364 . S
C1548 C1547 1.364 . S
C1548 C1549 1.400 . S
C1549 H1537 0.931 . S
C1549 C1544 1.408 . S
C1549 C1548 1.400 . S
H1550 C1556 0.930 . S
H1551 C1559 0.931 . S
H1552 C1561 0.931 . S
H1553 C1563 0.930 . S
H1554 C1565 0.930 . S
H1555 C1567 0.931 . S
C1556 H1550 0.930 . S
C1556 C1557 1.380 . S
C1556 C1558 1.394 . S
C1557 C1556 1.380 . S
C1557 C1561 1.382 . S
C1558 C1556 1.394 . S
C1558 C1559 1.400 . S
C1559 H1551 0.931 . S
C1559 C1558 1.400 . S
C1559 C1560 1.375 . S
C1560 C1559 1.375 . S
C1560 C1561 1.415 . S
C1560 C1562 1.501 . S
C1561 H1552 0.931 . S
C1561 C1557 1.382 . S
C1561 C1560 1.415 . S
C1562 C1560 1.501 . S
C1562 C1563 1.384 . S
C1562 C1567 1.408 . S
C1563 H1553 0.930 . S
C1563 C1562 1.384 . S
C1563 C1564 1.389 . S
C1564 C1563 1.389 . S
C1564 C1565 1.405 . S
C1565 H1554 0.930 . S
C1565 C1564 1.405 . S
C1565 C1566 1.364 . S
C1566 C1565 1.364 . S
C1566 C1567 1.400 . S
C1567 H1555 0.931 . S
C1567 C1562 1.408 . S
C1567 C1566 1.400 . S
H1568 C1574 0.930 . S
H1569 C1577 0.931 . S
H1570 C1579 0.931 . S
H1571 C1581 0.930 . S
H1572 C1583 0.930 . S
H1573 C1585 0.931 . S
C1574 H1568 0.930 . S
C1574 C1575 1.380 . S
C1574 C1576 1.394 . S
C1575 C1574 1.380 . S
C1575 C1579 1.382 . S
C1576 C1574 1.394 . S
C1576 C1577 1.400 . S
C1577 H1569 0.931 . S
C1577 C1576 1.400 . S
C1577 C1578 1.375 . S
C1578 C1577 1.375 . S
C1578 C1579 1.415 . S
C1578 C1580 1.501 . S
C1579 H1570 0.931 . S
C1579 C1575 1.382 . S
C1579 C1578 1.415 . S
C1580 C1578 1.501 . S
C1580 C1581 1.384 . S
C1580 C1585 1.408 . S
C1581 H1571 0.930 . S
C1581 C1580 1.384 . S
C1581 C1582 1.389 . S
C1582 C1581 1.389 . S
C1582 C1583 1.405 . S
C1583 H1572 0.930 . S
C1583 C1582 1.405 . S
C1583 C1584 1.364 . S
C1584 C1583 1.364 . S
C1584 C1585 1.400 . S
C1585 H1573 0.931 . S
C1585 C1580 1.408 . S
C1585 C1584 1.400 . S
H1586 C1592 0.930 . S
H1587 C1595 0.931 . S
H1588 C1597 0.931 . S
H1589 C1599 0.930 . S
H1590 C1601 0.930 . S
H1591 C1603 0.931 . S
C1592 H1586 0.930 . S
C1592 C1593 1.380 . S
C1592 C1594 1.394 . S
C1593 C1592 1.380 . S
C1593 C1597 1.382 . S
C1594 C1592 1.394 . S
C1594 C1595 1.400 . S
C1595 H1587 0.931 . S
C1595 C1594 1.400 . S
C1595 C1596 1.375 . S
C1596 C1595 1.375 . S
C1596 C1597 1.415 . S
C1596 C1598 1.501 . S
C1597 H1588 0.931 . S
C1597 C1593 1.382 . S
C1597 C1596 1.415 . S
C1598 C1596 1.501 . S
C1598 C1599 1.384 . S
C1598 C1603 1.408 . S
C1599 H1589 0.930 . S
C1599 C1598 1.384 . S
C1599 C1600 1.389 . S
C1600 C1599 1.389 . S
C1600 C1601 1.405 . S
C1601 H1590 0.930 . S
C1601 C1600 1.405 . S
C1601 C1602 1.364 . S
C1602 C1601 1.364 . S
C1602 C1603 1.400 . S
C1603 H1591 0.931 . S
C1603 C1598 1.408 . S
C1603 C1602 1.400 . S
H1604 C1610 0.930 . S
H1605 C1613 0.931 . S
H1606 C1615 0.931 . S
H1607 C1617 0.930 . S
H1608 C1619 0.930 . S
H1609 C1621 0.931 . S
C1610 H1604 0.930 . S
C1610 C1611 1.380 . S
C1610 C1612 1.394 . S
C1611 C1610 1.380 . S
C1611 C1615 1.382 . S
C1612 C1610 1.394 . S
C1612 C1613 1.400 . S
C1613 H1605 0.931 . S
C1613 C1612 1.400 . S
C1613 C1614 1.375 . S
C1614 C1613 1.375 . S
C1614 C1615 1.415 . S
C1614 C1616 1.501 . S
C1615 H1606 0.931 . S
C1615 C1611 1.382 . S
C1615 C1614 1.415 . S
C1616 C1614 1.501 . S
C1616 C1617 1.384 . S
C1616 C1621 1.408 . S
C1617 H1607 0.930 . S
C1617 C1616 1.384 . S
C1617 C1618 1.389 . S
C1618 C1617 1.389 . S
C1618 C1619 1.405 . S
C1619 H1608 0.930 . S
C1619 C1618 1.405 . S
C1619 C1620 1.364 . S
C1620 C1619 1.364 . S
C1620 C1621 1.400 . S
C1621 H1609 0.931 . S
C1621 C1616 1.408 . S
C1621 C1620 1.400 . S
H1622 C1628 0.930 . S
H1623 C1631 0.931 . S
H1624 C1633 0.931 . S
H1625 C1635 0.930 . S
H1626 C1637 0.930 . S
H1627 C1639 0.931 . S
C1628 H1622 0.930 . S
C1628 C1629 1.380 . S
C1628 C1630 1.394 . S
C1629 C1628 1.380 . S
C1629 C1633 1.382 . S
C1630 C1628 1.394 . S
C1630 C1631 1.400 . S
C1631 H1623 0.931 . S
C1631 C1630 1.400 . S
C1631 C1632 1.375 . S
C1632 C1631 1.375 . S
C1632 C1633 1.415 . S
C1632 C1634 1.501 . S
C1633 H1624 0.931 . S
C1633 C1629 1.382 . S
C1633 C1632 1.415 . S
C1634 C1632 1.501 . S
C1634 C1635 1.384 . S
C1634 C1639 1.408 . S
C1635 H1625 0.930 . S
C1635 C1634 1.384 . S
C1635 C1636 1.389 . S
C1636 C1635 1.389 . S
C1636 C1637 1.405 . S
C1637 H1626 0.930 . S
C1637 C1636 1.405 . S
C1637 C1638 1.364 . S
C1638 C1637 1.364 . S
C1638 C1639 1.400 . S
C1639 H1627 0.931 . S
C1639 C1634 1.408 . S
C1639 C1638 1.400 . S
H1640 C1646 0.930 . S
H1641 C1649 0.931 . S
H1642 C1651 0.931 . S
H1643 C1653 0.930 . S
H1644 C1655 0.930 . S
H1645 C1657 0.931 . S
C1646 H1640 0.930 . S
C1646 C1647 1.380 . S
C1646 C1648 1.394 . S
C1647 C1646 1.380 . S
C1647 C1651 1.382 . S
C1648 C1646 1.394 . S
C1648 C1649 1.400 . S
C1649 H1641 0.931 . S
C1649 C1648 1.400 . S
C1649 C1650 1.375 . S
C1650 C1649 1.375 . S
C1650 C1651 1.415 . S
C1650 C1652 1.501 . S
C1651 H1642 0.931 . S
C1651 C1647 1.382 . S
C1651 C1650 1.415 . S
C1652 C1650 1.501 . S
C1652 C1653 1.384 . S
C1652 C1657 1.408 . S
C1653 H1643 0.930 . S
C1653 C1652 1.384 . S
C1653 C1654 1.389 . S
C1654 C1653 1.389 . S
C1654 C1655 1.405 . S
C1655 H1644 0.930 . S
C1655 C1654 1.405 . S
C1655 C1656 1.364 . S
C1656 C1655 1.364 . S
C1656 C1657 1.400 . S
C1657 H1645 0.931 . S
C1657 C1652 1.408 . S
C1657 C1656 1.400 . S
H1658 C1664 0.930 . S
H1659 C1667 0.931 . S
H1660 C1669 0.931 . S
H1661 C1671 0.930 . S
H1662 C1673 0.930 . S
H1663 C1675 0.931 . S
C1664 H1658 0.930 . S
C1664 C1665 1.380 . S
C1664 C1666 1.394 . S
C1665 C1664 1.380 . S
C1665 C1669 1.382 . S
C1666 C1664 1.394 . S
C1666 C1667 1.400 . S
C1667 H1659 0.931 . S
C1667 C1666 1.400 . S
C1667 C1668 1.375 . S
C1668 C1667 1.375 . S
C1668 C1669 1.415 . S
C1668 C1670 1.501 . S
C1669 H1660 0.931 . S
C1669 C1665 1.382 . S
C1669 C1668 1.415 . S
C1670 C1668 1.501 . S
C1670 C1671 1.384 . S
C1670 C1675 1.408 . S
C1671 H1661 0.930 . S
C1671 C1670 1.384 . S
C1671 C1672 1.389 . S
C1672 C1671 1.389 . S
C1672 C1673 1.405 . S
C1673 H1662 0.930 . S
C1673 C1672 1.405 . S
C1673 C1674 1.364 . S
C1674 C1673 1.364 . S
C1674 C1675 1.400 . S
C1675 H1663 0.931 . S
C1675 C1670 1.408 . S
C1675 C1674 1.400 . S
H1676 C1682 0.930 . S
H1677 C1685 0.931 . S
H1678 C1687 0.931 . S
H1679 C1689 0.930 . S
H1680 C1691 0.930 . S
H1681 C1693 0.931 . S
C1682 H1676 0.930 . S
C1682 C1683 1.380 . S
C1682 C1684 1.394 . S
C1683 C1682 1.380 . S
C1683 C1687 1.382 . S
C1684 C1682 1.394 . S
C1684 C1685 1.400 . S
C1685 H1677 0.931 . S
C1685 C1684 1.400 . S
C1685 C1686 1.375 . S
C1686 C1685 1.375 . S
C1686 C1687 1.415 . S
C1686 C1688 1.501 . S
C1687 H1678 0.931 . S
C1687 C1683 1.382 . S
C1687 C1686 1.415 . S
C1688 C1686 1.501 . S
C1688 C1689 1.384 . S
C1688 C1693 1.408 . S
C1689 H1679 0.930 . S
C1689 C1688 1.384 . S
C1689 C1690 1.389 . S
C1690 C1689 1.389 . S
C1690 C1691 1.405 . S
C1691 H1680 0.930 . S
C1691 C1690 1.405 . S
C1691 C1692 1.364 . S
C1692 C1691 1.364 . S
C1692 C1693 1.400 . S
C1693 H1681 0.931 . S
C1693 C1688 1.408 . S
C1693 C1692 1.400 . S
H1694 C1700 0.930 . S
H1695 C1703 0.931 . S
H1696 C1705 0.931 . S
H1697 C1707 0.930 . S
H1698 C1709 0.930 . S
H1699 C1711 0.931 . S
C1700 H1694 0.930 . S
C1700 C1701 1.380 . S
C1700 C1702 1.394 . S
C1701 C1700 1.380 . S
C1701 C1705 1.382 . S
C1702 C1700 1.394 . S
C1702 C1703 1.400 . S
C1703 H1695 0.931 . S
C1703 C1702 1.400 . S
C1703 C1704 1.375 . S
C1704 C1703 1.375 . S
C1704 C1705 1.415 . S
C1704 C1706 1.501 . S
C1705 H1696 0.931 . S
C1705 C1701 1.382 . S
C1705 C1704 1.415 . S
C1706 C1704 1.501 . S
C1706 C1707 1.384 . S
C1706 C1711 1.408 . S
C1707 H1697 0.930 . S
C1707 C1706 1.384 . S
C1707 C1708 1.389 . S
C1708 C1707 1.389 . S
C1708 C1709 1.405 . S
C1709 H1698 0.930 . S
C1709 C1708 1.405 . S
C1709 C1710 1.364 . S
C1710 C1709 1.364 . S
C1710 C1711 1.400 . S
C1711 H1699 0.931 . S
C1711 C1706 1.408 . S
C1711 C1710 1.400 . S
C1712 C1713 1.387 . S
C1712 H1716 0.950 . S
C1712 C1721 1.390 . S
C1713 C1712 1.387 . S
C1713 C1715 1.387 . S
H1714 C1721 0.950 . S
C1715 C1713 1.387 . S
C1715 C1717 1.390 . S
C1715 H1719 0.950 . S
H1716 C1712 0.950 . S
C1717 C1715 1.390 . S
C1717 C1718 1.387 . S
C1717 H1720 0.950 . S
C1718 C1717 1.387 . S
C1718 C1721 1.387 . S
H1719 C1715 0.950 . S
H1720 C1717 0.950 . S
C1721 C1712 1.390 . S
C1721 H1714 0.950 . S
C1721 C1718 1.387 . S
C1722 C1723 1.387 . S
C1722 H1726 0.950 . S
C1722 C1731 1.390 . S
C1723 C1722 1.387 . S
C1723 C1725 1.387 . S
H1724 C1731 0.950 . S
C1725 C1723 1.387 . S
C1725 C1727 1.390 . S
C1725 H1729 0.950 . S
H1726 C1722 0.950 . S
C1727 C1725 1.390 . S
C1727 C1728 1.387 . S
C1727 H1730 0.950 . S
C1728 C1727 1.387 . S
C1728 C1731 1.387 . S
H1729 C1725 0.950 . S
H1730 C1727 0.950 . S
C1731 C1722 1.390 . S
C1731 H1724 0.950 . S
C1731 C1728 1.387 . S
C1732 C1733 1.387 . S
C1732 H1736 0.950 . S
C1732 C1741 1.390 . S
C1733 C1732 1.387 . S
C1733 C1735 1.387 . S
H1734 C1741 0.950 . S
C1735 C1733 1.387 . S
C1735 C1737 1.390 . S
C1735 H1739 0.950 . S
H1736 C1732 0.950 . S
C1737 C1735 1.390 . S
C1737 C1738 1.387 . S
C1737 H1740 0.950 . S
C1738 C1737 1.387 . S
C1738 C1741 1.387 . S
H1739 C1735 0.950 . S
H1740 C1737 0.950 . S
C1741 C1732 1.390 . S
C1741 H1734 0.950 . S
C1741 C1738 1.387 . S
C1742 C1743 1.387 . S
C1742 H1746 0.950 . S
C1742 C1751 1.390 . S
C1743 C1742 1.387 . S
C1743 C1745 1.387 . S
H1744 C1751 0.950 . S
C1745 C1743 1.387 . S
C1745 C1747 1.390 . S
C1745 H1749 0.950 . S
H1746 C1742 0.950 . S
C1747 C1745 1.390 . S
C1747 C1748 1.387 . S
C1747 H1750 0.950 . S
C1748 C1747 1.387 . S
C1748 C1751 1.387 . S
H1749 C1745 0.950 . S
H1750 C1747 0.950 . S
C1751 C1742 1.390 . S
C1751 H1744 0.950 . S
C1751 C1748 1.387 . S
C1752 C1753 1.387 . S
C1752 H1756 0.950 . S
C1752 C1761 1.390 . S
C1753 C1752 1.387 . S
C1753 C1755 1.387 . S
H1754 C1761 0.950 . S
C1755 C1753 1.387 . S
C1755 C1757 1.390 . S
C1755 H1759 0.950 . S
H1756 C1752 0.950 . S
C1757 C1755 1.390 . S
C1757 C1758 1.387 . S
C1757 H1760 0.950 . S
C1758 C1757 1.387 . S
C1758 C1761 1.387 . S
H1759 C1755 0.950 . S
H1760 C1757 0.950 . S
C1761 C1752 1.390 . S
C1761 H1754 0.950 . S
C1761 C1758 1.387 . S
C1762 C1763 1.387 . S
C1762 H1766 0.950 . S
C1762 C1771 1.390 . S
C1763 C1762 1.387 . S
C1763 C1765 1.387 . S
H1764 C1771 0.950 . S
C1765 C1763 1.387 . S
C1765 C1767 1.390 . S
C1765 H1769 0.950 . S
H1766 C1762 0.950 . S
C1767 C1765 1.390 . S
C1767 C1768 1.387 . S
C1767 H1770 0.950 . S
C1768 C1767 1.387 . S
C1768 C1771 1.387 . S
H1769 C1765 0.950 . S
H1770 C1767 0.950 . S
C1771 C1762 1.390 . S
C1771 H1764 0.950 . S
C1771 C1768 1.387 . S
C1772 C1773 1.387 . S
C1772 H1776 0.950 . S
C1772 C1781 1.390 . S
C1773 C1772 1.387 . S
C1773 C1775 1.387 . S
H1774 C1781 0.950 . S
C1775 C1773 1.387 . S
C1775 C1777 1.390 . S
C1775 H1779 0.950 . S
H1776 C1772 0.950 . S
C1777 C1775 1.390 . S
C1777 C1778 1.387 . S
C1777 H1780 0.950 . S
C1778 C1777 1.387 . S
C1778 C1781 1.387 . S
H1779 C1775 0.950 . S
H1780 C1777 0.950 . S
C1781 C1772 1.390 . S
C1781 H1774 0.950 . S
C1781 C1778 1.387 . S
C1782 C1783 1.387 . S
C1782 H1786 0.950 . S
C1782 C1791 1.390 . S
C1783 C1782 1.387 . S
C1783 C1785 1.387 . S
H1784 C1791 0.950 . S
C1785 C1783 1.387 . S
C1785 C1787 1.390 . S
C1785 H1789 0.950 . S
H1786 C1782 0.950 . S
C1787 C1785 1.390 . S
C1787 C1788 1.387 . S
C1787 H1790 0.950 . S
C1788 C1787 1.387 . S
C1788 C1791 1.387 . S
H1789 C1785 0.950 . S
H1790 C1787 0.950 . S
C1791 C1782 1.390 . S
C1791 H1784 0.950 . S
C1791 C1788 1.387 . S
C1792 C1793 1.387 . S
C1792 H1796 0.950 . S
C1792 C1801 1.390 . S
C1793 C1792 1.387 . S
C1793 C1795 1.387 . S
H1794 C1801 0.950 . S
C1795 C1793 1.387 . S
C1795 C1797 1.390 . S
C1795 H1799 0.950 . S
H1796 C1792 0.950 . S
C1797 C1795 1.390 . S
C1797 C1798 1.387 . S
C1797 H1800 0.950 . S
C1798 C1797 1.387 . S
C1798 C1801 1.387 . S
H1799 C1795 0.950 . S
H1800 C1797 0.950 . S
C1801 C1792 1.390 . S
C1801 H1794 0.950 . S
C1801 C1798 1.387 . S
C1802 C1803 1.387 . S
C1802 H1806 0.950 . S
C1802 C1811 1.390 . S
C1803 C1802 1.387 . S
C1803 C1805 1.387 . S
H1804 C1811 0.950 . S
C1805 C1803 1.387 . S
C1805 C1807 1.390 . S
C1805 H1809 0.950 . S
H1806 C1802 0.950 . S
C1807 C1805 1.390 . S
C1807 C1808 1.387 . S
C1807 H1810 0.950 . S
C1808 C1807 1.387 . S
C1808 C1811 1.387 . S
H1809 C1805 0.950 . S
H1810 C1807 0.950 . S
C1811 C1802 1.390 . S
C1811 H1804 0.950 . S
C1811 C1808 1.387 . S
C1812 C1813 1.387 . S
C1812 H1816 0.950 . S
C1812 C1821 1.390 . S
C1813 C1812 1.387 . S
C1813 C1815 1.387 . S
H1814 C1821 0.950 . S
C1815 C1813 1.387 . S
C1815 C1817 1.390 . S
C1815 H1819 0.950 . S
H1816 C1812 0.950 . S
C1817 C1815 1.390 . S
C1817 C1818 1.387 . S
C1817 H1820 0.950 . S
C1818 C1817 1.387 . S
C1818 C1821 1.387 . S
H1819 C1815 0.950 . S
H1820 C1817 0.950 . S
C1821 C1812 1.390 . S
C1821 H1814 0.950 . S
C1821 C1818 1.387 . S
C1822 C1823 1.387 . S
C1822 H1826 0.950 . S
C1822 C1831 1.390 . S
C1823 C1822 1.387 . S
C1823 C1825 1.387 . S
H1824 C1831 0.950 . S
C1825 C1823 1.387 . S
C1825 C1827 1.390 . S
C1825 H1829 0.950 . S
H1826 C1822 0.950 . S
C1827 C1825 1.390 . S
C1827 C1828 1.387 . S
C1827 H1830 0.950 . S
C1828 C1827 1.387 . S
C1828 C1831 1.387 . S
H1829 C1825 0.950 . S
H1830 C1827 0.950 . S
C1831 C1822 1.390 . S
C1831 H1824 0.950 . S
C1831 C1828 1.387 . S
C1832 C1833 1.387 . S
C1832 H1836 0.950 . S
C1832 C1841 1.390 . S
C1833 C1832 1.387 . S
C1833 C1835 1.387 . S
H1834 C1841 0.950 . S
C1835 C1833 1.387 . S
C1835 C1837 1.390 . S
C1835 H1839 0.950 . S
H1836 C1832 0.950 . S
C1837 C1835 1.390 . S
C1837 C1838 1.387 . S
C1837 H1840 0.950 . S
C1838 C1837 1.387 . S
C1838 C1841 1.387 . S
H1839 C1835 0.950 . S
H1840 C1837 0.950 . S
C1841 C1832 1.390 . S
C1841 H1834 0.950 . S
C1841 C1838 1.387 . S
C1842 C1843 1.387 . S
C1842 H1846 0.950 . S
C1842 C1851 1.390 . S
C1843 C1842 1.387 . S
C1843 C1845 1.387 . S
H1844 C1851 0.950 . S
C1845 C1843 1.387 . S
C1845 C1847 1.390 . S
C1845 H1849 0.950 . S
H1846 C1842 0.950 . S
C1847 C1845 1.390 . S
C1847 C1848 1.387 . S
C1847 H1850 0.950 . S
C1848 C1847 1.387 . S
C1848 C1851 1.387 . S
H1849 C1845 0.950 . S
H1850 C1847 0.950 . S
C1851 C1842 1.390 . S
C1851 H1844 0.950 . S
C1851 C1848 1.387 . S
C1852 C1853 1.387 . S
C1852 H1856 0.950 . S
C1852 C1861 1.390 . S
C1853 C1852 1.387 . S
C1853 C1855 1.387 . S
H1854 C1861 0.950 . S
C1855 C1853 1.387 . S
C1855 C1857 1.390 . S
C1855 H1859 0.950 . S
H1856 C1852 0.950 . S
C1857 C1855 1.390 . S
C1857 C1858 1.387 . S
C1857 H1860 0.950 . S
C1858 C1857 1.387 . S
C1858 C1861 1.387 . S
H1859 C1855 0.950 . S
H1860 C1857 0.950 . S
C1861 C1852 1.390 . S
C1861 H1854 0.950 . S
C1861 C1858 1.387 . S
C1862 C1863 1.387 . S
C1862 H1866 0.950 . S
C1862 C1871 1.390 . S
C1863 C1862 1.387 . S
C1863 C1865 1.387 . S
H1864 C1871 0.950 . S
C1865 C1863 1.387 . S
C1865 C1867 1.390 . S
C1865 H1869 0.950 . S
H1866 C1862 0.950 . S
C1867 C1865 1.390 . S
C1867 C1868 1.387 . S
C1867 H1870 0.950 . S
C1868 C1867 1.387 . S
C1868 C1871 1.387 . S
H1869 C1865 0.950 . S
H1870 C1867 0.950 . S
C1871 C1862 1.390 . S
C1871 H1864 0.950 . S
C1871 C1868 1.387 . S
C1872 C1873 1.387 . S
C1872 H1876 0.950 . S
C1872 C1881 1.390 . S
C1873 C1872 1.387 . S
C1873 C1875 1.387 . S
H1874 C1881 0.950 . S
C1875 C1873 1.387 . S
C1875 C1877 1.390 . S
C1875 H1879 0.950 . S
H1876 C1872 0.950 . S
C1877 C1875 1.390 . S
C1877 C1878 1.387 . S
C1877 H1880 0.950 . S
C1878 C1877 1.387 . S
C1878 C1881 1.387 . S
H1879 C1875 0.950 . S
H1880 C1877 0.950 . S
C1881 C1872 1.390 . S
C1881 H1874 0.950 . S
C1881 C1878 1.387 . S
C1882 C1883 1.387 . S
C1882 H1886 0.950 . S
C1882 C1891 1.390 . S
C1883 C1882 1.387 . S
C1883 C1885 1.387 . S
H1884 C1891 0.950 . S
C1885 C1883 1.387 . S
C1885 C1887 1.390 . S
C1885 H1889 0.950 . S
H1886 C1882 0.950 . S
C1887 C1885 1.390 . S
C1887 C1888 1.387 . S
C1887 H1890 0.950 . S
C1888 C1887 1.387 . S
C1888 C1891 1.387 . S
H1889 C1885 0.950 . S
H1890 C1887 0.950 . S
C1891 C1882 1.390 . S
C1891 H1884 0.950 . S
C1891 C1888 1.387 . S
C1892 C1893 1.387 . S
C1892 H1896 0.950 . S
C1892 C1901 1.390 . S
C1893 C1892 1.387 . S
C1893 C1895 1.387 . S
H1894 C1901 0.950 . S
C1895 C1893 1.387 . S
C1895 C1897 1.390 . S
C1895 H1899 0.950 . S
H1896 C1892 0.950 . S
C1897 C1895 1.390 . S
C1897 C1898 1.387 . S
C1897 H1900 0.950 . S
C1898 C1897 1.387 . S
C1898 C1901 1.387 . S
H1899 C1895 0.950 . S
H1900 C1897 0.950 . S
C1901 C1892 1.390 . S
C1901 H1894 0.950 . S
C1901 C1898 1.387 . S
C1902 C1903 1.387 . S
C1902 H1906 0.950 . S
C1902 C1911 1.390 . S
C1903 C1902 1.387 . S
C1903 C1905 1.387 . S
H1904 C1911 0.950 . S
C1905 C1903 1.387 . S
C1905 C1907 1.390 . S
C1905 H1909 0.950 . S
H1906 C1902 0.950 . S
C1907 C1905 1.390 . S
C1907 C1908 1.387 . S
C1907 H1910 0.950 . S
C1908 C1907 1.387 . S
C1908 C1911 1.387 . S
H1909 C1905 0.950 . S
H1910 C1907 0.950 . S
C1911 C1902 1.390 . S
C1911 H1904 0.950 . S
C1911 C1908 1.387 . S
C1912 C1913 1.387 . S
C1912 H1916 0.950 . S
C1912 C1921 1.390 . S
C1913 C1912 1.387 . S
C1913 C1915 1.387 . S
H1914 C1921 0.950 . S
C1915 C1913 1.387 . S
C1915 C1917 1.390 . S
C1915 H1919 0.950 . S
H1916 C1912 0.950 . S
C1917 C1915 1.390 . S
C1917 C1918 1.387 . S
C1917 H1920 0.950 . S
C1918 C1917 1.387 . S
C1918 C1921 1.387 . S
H1919 C1915 0.950 . S
H1920 C1917 0.950 . S
C1921 C1912 1.390 . S
C1921 H1914 0.950 . S
C1921 C1918 1.387 . S
C1922 C1923 1.387 . S
C1922 H1926 0.950 . S
C1922 C1931 1.390 . S
C1923 C1922 1.387 . S
C1923 C1925 1.387 . S
H1924 C1931 0.950 . S
C1925 C1923 1.387 . S
C1925 C1927 1.390 . S
C1925 H1929 0.950 . S
H1926 C1922 0.950 . S
C1927 C1925 1.390 . S
C1927 C1928 1.387 . S
C1927 H1930 0.950 . S
C1928 C1927 1.387 . S
C1928 C1931 1.387 . S
H1929 C1925 0.950 . S
H1930 C1927 0.950 . S
C1931 C1922 1.390 . S
C1931 H1924 0.950 . S
C1931 C1928 1.387 . S
C1932 C1933 1.387 . S
C1932 H1936 0.950 . S
C1932 C1941 1.390 . S
C1933 C1932 1.387 . S
C1933 C1935 1.387 . S
H1934 C1941 0.950 . S
C1935 C1933 1.387 . S
C1935 C1937 1.390 . S
C1935 H1939 0.950 . S
H1936 C1932 0.950 . S
C1937 C1935 1.390 . S
C1937 C1938 1.387 . S
C1937 H1940 0.950 . S
C1938 C1937 1.387 . S
C1938 C1941 1.387 . S
H1939 C1935 0.950 . S
H1940 C1937 0.950 . S
C1941 C1932 1.390 . S
C1941 H1934 0.950 . S
C1941 C1938 1.387 . S
C1942 C1943 1.387 . S
C1942 H1946 0.950 . S
C1942 C1951 1.390 . S
C1943 C1942 1.387 . S
C1943 C1945 1.387 . S
H1944 C1951 0.950 . S
C1945 C1943 1.387 . S
C1945 C1947 1.390 . S
C1945 H1949 0.950 . S
H1946 C1942 0.950 . S
C1947 C1945 1.390 . S
C1947 C1948 1.387 . S
C1947 H1950 0.950 . S
C1948 C1947 1.387 . S
C1948 C1951 1.387 . S
H1949 C1945 0.950 . S
H1950 C1947 0.950 . S
C1951 C1942 1.390 . S
C1951 H1944 0.950 . S
C1951 C1948 1.387 . S
C1952 C1953 1.387 . S
C1952 H1956 0.950 . S
C1952 C1961 1.390 . S
C1953 C1952 1.387 . S
C1953 C1955 1.387 . S
H1954 C1961 0.950 . S
C1955 C1953 1.387 . S
C1955 C1957 1.390 . S
C1955 H1959 0.950 . S
H1956 C1952 0.950 . S
C1957 C1955 1.390 . S
C1957 C1958 1.387 . S
C1957 H1960 0.950 . S
C1958 C1957 1.387 . S
C1958 C1961 1.387 . S
H1959 C1955 0.950 . S
H1960 C1957 0.950 . S
C1961 C1952 1.390 . S
C1961 H1954 0.950 . S
C1961 C1958 1.387 . S
C1962 C1963 1.387 . S
C1962 H1966 0.950 . S
C1962 C1971 1.390 . S
C1963 C1962 1.387 . S
C1963 C1965 1.387 . S
H1964 C1971 0.950 . S
C1965 C1963 1.387 . S
C1965 C1967 1.390 . S
C1965 H1969 0.950 . S
H1966 C1962 0.950 . S
C1967 C1965 1.390 . S
C1967 C1968 1.387 . S
C1967 H1970 0.950 . S
C1968 C1967 1.387 . S
C1968 C1971 1.387 . S
H1969 C1965 0.950 . S
H1970 C1967 0.950 . S
C1971 C1962 1.390 . S
C1971 H1964 0.950 . S
C1971 C1968 1.387 . S
C1972 C1973 1.387 . S
C1972 H1976 0.950 . S
C1972 C1981 1.390 . S
C1973 C1972 1.387 . S
C1973 C1975 1.387 . S
H1974 C1981 0.950 . S
C1975 C1973 1.387 . S
C1975 C1977 1.390 . S
C1975 H1979 0.950 . S
H1976 C1972 0.950 . S
C1977 C1975 1.390 . S
C1977 C1978 1.387 . S
C1977 H1980 0.950 . S
C1978 C1977 1.387 . S
C1978 C1981 1.387 . S
H1979 C1975 0.950 . S
H1980 C1977 0.950 . S
C1981 C1972 1.390 . S
C1981 H1974 0.950 . S
C1981 C1978 1.387 . S
C1982 C1983 1.387 . S
C1982 H1986 0.950 . S
C1982 C1991 1.390 . S
C1983 C1982 1.387 . S
C1983 C1985 1.387 . S
H1984 C1991 0.950 . S
C1985 C1983 1.387 . S
C1985 C1987 1.390 . S
C1985 H1989 0.950 . S
H1986 C1982 0.950 . S
C1987 C1985 1.390 . S
C1987 C1988 1.387 . S
C1987 H1990 0.950 . S
C1988 C1987 1.387 . S
C1988 C1991 1.387 . S
H1989 C1985 0.950 . S
H1990 C1987 0.950 . S
C1991 C1982 1.390 . S
C1991 H1984 0.950 . S
C1991 C1988 1.387 . S
C1992 C1993 1.387 . S
C1992 H1996 0.950 . S
C1992 C2001 1.390 . S
C1993 C1992 1.387 . S
C1993 C1995 1.387 . S
H1994 C2001 0.950 . S
C1995 C1993 1.387 . S
C1995 C1997 1.390 . S
C1995 H1999 0.950 . S
H1996 C1992 0.950 . S
C1997 C1995 1.390 . S
C1997 C1998 1.387 . S
C1997 H2000 0.950 . S
C1998 C1997 1.387 . S
C1998 C2001 1.387 . S
H1999 C1995 0.950 . S
H2000 C1997 0.950 . S
C2001 C1992 1.390 . S
C2001 H1994 0.950 . S
C2001 C1998 1.387 . S
C2002 C2003 1.387 . S
C2002 H2006 0.950 . S
C2002 C2011 1.390 . S
C2003 C2002 1.387 . S
C2003 C2005 1.387 . S
H2004 C2011 0.950 . S
C2005 C2003 1.387 . S
C2005 C2007 1.390 . S
C2005 H2009 0.950 . S
H2006 C2002 0.950 . S
C2007 C2005 1.390 . S
C2007 C2008 1.387 . S
C2007 H2010 0.950 . S
C2008 C2007 1.387 . S
C2008 C2011 1.387 . S
H2009 C2005 0.950 . S
H2010 C2007 0.950 . S
C2011 C2002 1.390 . S
C2011 H2004 0.950 . S
C2011 C2008 1.387 . S
C2012 C2013 1.387 . S
C2012 H2016 0.950 . S
C2012 C2021 1.390 . S
C2013 C2012 1.387 . S
C2013 C2015 1.387 . S
H2014 C2021 0.950 . S
C2015 C2013 1.387 . S
C2015 C2017 1.390 . S
C2015 H2019 0.950 . S
H2016 C2012 0.950 . S
C2017 C2015 1.390 . S
C2017 C2018 1.387 . S
C2017 H2020 0.950 . S
C2018 C2017 1.387 . S
C2018 C2021 1.387 . S
H2019 C2015 0.950 . S
H2020 C2017 0.950 . S
C2021 C2012 1.390 . S
C2021 H2014 0.950 . S
C2021 C2018 1.387 . S
C2022 C2023 1.387 . S
C2022 H2026 0.950 . S
C2022 C2031 1.390 . S
C2023 C2022 1.387 . S
C2023 C2025 1.387 . S
H2024 C2031 0.950 . S
C2025 C2023 1.387 . S
C2025 C2027 1.390 . S
C2025 H2029 0.950 . S
H2026 C2022 0.950 . S
C2027 C2025 1.390 . S
C2027 C2028 1.387 . S
C2027 H2030 0.950 . S
C2028 C2027 1.387 . S
C2028 C2031 1.387 . S
H2029 C2025 0.950 . S
H2030 C2027 0.950 . S
C2031 C2022 1.390 . S
C2031 H2024 0.950 . S
C2031 C2028 1.387 . S
C2032 C2033 1.387 . S
C2032 H2036 0.950 . S
C2032 C2041 1.390 . S
C2033 C2032 1.387 . S
C2033 C2035 1.387 . S
H2034 C2041 0.950 . S
C2035 C2033 1.387 . S
C2035 C2037 1.390 . S
C2035 H2039 0.950 . S
H2036 C2032 0.950 . S
C2037 C2035 1.390 . S
C2037 C2038 1.387 . S
C2037 H2040 0.950 . S
C2038 C2037 1.387 . S
C2038 C2041 1.387 . S
H2039 C2035 0.950 . S
H2040 C2037 0.950 . S
C2041 C2032 1.390 . S
C2041 H2034 0.950 . S
C2041 C2038 1.387 . S
C2042 C2043 1.387 . S
C2042 H2046 0.950 . S
C2042 C2051 1.390 . S
C2043 C2042 1.387 . S
C2043 C2045 1.387 . S
H2044 C2051 0.950 . S
C2045 C2043 1.387 . S
C2045 C2047 1.390 . S
C2045 H2049 0.950 . S
H2046 C2042 0.950 . S
C2047 C2045 1.390 . S
C2047 C2048 1.387 . S
C2047 H2050 0.950 . S
C2048 C2047 1.387 . S
C2048 C2051 1.387 . S
H2049 C2045 0.950 . S
H2050 C2047 0.950 . S
C2051 C2042 1.390 . S
C2051 H2044 0.950 . S
C2051 C2048 1.387 . S
C2052 C2053 1.387 . S
C2052 H2056 0.950 . S
C2052 C2061 1.390 . S
C2053 C2052 1.387 . S
C2053 C2055 1.387 . S
H2054 C2061 0.950 . S
C2055 C2053 1.387 . S
C2055 C2057 1.390 . S
C2055 H2059 0.950 . S
H2056 C2052 0.950 . S
C2057 C2055 1.390 . S
C2057 C2058 1.387 . S
C2057 H2060 0.950 . S
C2058 C2057 1.387 . S
C2058 C2061 1.387 . S
H2059 C2055 0.950 . S
H2060 C2057 0.950 . S
C2061 C2052 1.390 . S
C2061 H2054 0.950 . S
C2061 C2058 1.387 . S
C2062 C2063 1.387 . S
C2062 H2066 0.950 . S
C2062 C2071 1.390 . S
C2063 C2062 1.387 . S
C2063 C2065 1.387 . S
H2064 C2071 0.950 . S
C2065 C2063 1.387 . S
C2065 C2067 1.390 . S
C2065 H2069 0.950 . S
H2066 C2062 0.950 . S
C2067 C2065 1.390 . S
C2067 C2068 1.387 . S
C2067 H2070 0.950 . S
C2068 C2067 1.387 . S
C2068 C2071 1.387 . S
H2069 C2065 0.950 . S
H2070 C2067 0.950 . S
C2071 C2062 1.390 . S
C2071 H2064 0.950 . S
C2071 C2068 1.387 . S
C2072 C2073 1.387 . S
C2072 H2076 0.950 . S
C2072 C2081 1.390 . S
C2073 C2072 1.387 . S
C2073 C2075 1.387 . S
H2074 C2081 0.950 . S
C2075 C2073 1.387 . S
C2075 C2077 1.390 . S
C2075 H2079 0.950 . S
H2076 C2072 0.950 . S
C2077 C2075 1.390 . S
C2077 C2078 1.387 . S
C2077 H2080 0.950 . S
C2078 C2077 1.387 . S
C2078 C2081 1.387 . S
H2079 C2075 0.950 . S
H2080 C2077 0.950 . S
C2081 C2072 1.390 . S
C2081 H2074 0.950 . S
C2081 C2078 1.387 . S
C2082 C2083 1.387 . S
C2082 H2086 0.950 . S
C2082 C2091 1.390 . S
C2083 C2082 1.387 . S
C2083 C2085 1.387 . S
H2084 C2091 0.950 . S
C2085 C2083 1.387 . S
C2085 C2087 1.390 . S
C2085 H2089 0.950 . S
H2086 C2082 0.950 . S
C2087 C2085 1.390 . S
C2087 C2088 1.387 . S
C2087 H2090 0.950 . S
C2088 C2087 1.387 . S
C2088 C2091 1.387 . S
H2089 C2085 0.950 . S
H2090 C2087 0.950 . S
C2091 C2082 1.390 . S
C2091 H2084 0.950 . S
C2091 C2088 1.387 . S
C2092 C2093 1.387 . S
C2092 H2096 0.950 . S
C2092 C2101 1.390 . S
C2093 C2092 1.387 . S
C2093 C2095 1.387 . S
H2094 C2101 0.950 . S
C2095 C2093 1.387 . S
C2095 C2097 1.390 . S
C2095 H2099 0.950 . S
H2096 C2092 0.950 . S
C2097 C2095 1.390 . S
C2097 C2098 1.387 . S
C2097 H2100 0.950 . S
C2098 C2097 1.387 . S
C2098 C2101 1.387 . S
H2099 C2095 0.950 . S
H2100 C2097 0.950 . S
C2101 C2092 1.390 . S
C2101 H2094 0.950 . S
C2101 C2098 1.387 . S
C2102 C2103 1.387 . S
C2102 H2106 0.950 . S
C2102 C2111 1.390 . S
C2103 C2102 1.387 . S
C2103 C2105 1.387 . S
H2104 C2111 0.950 . S
C2105 C2103 1.387 . S
C2105 C2107 1.390 . S
C2105 H2109 0.950 . S
H2106 C2102 0.950 . S
C2107 C2105 1.390 . S
C2107 C2108 1.387 . S
C2107 H2110 0.950 . S
C2108 C2107 1.387 . S
C2108 C2111 1.387 . S
H2109 C2105 0.950 . S
H2110 C2107 0.950 . S
C2111 C2102 1.390 . S
C2111 H2104 0.950 . S
C2111 C2108 1.387 . S
C2112 C2113 1.387 . S
C2112 H2116 0.950 . S
C2112 C2121 1.390 . S
C2113 C2112 1.387 . S
C2113 C2115 1.387 . S
H2114 C2121 0.950 . S
C2115 C2113 1.387 . S
C2115 C2117 1.390 . S
C2115 H2119 0.950 . S
H2116 C2112 0.950 . S
C2117 C2115 1.390 . S
C2117 C2118 1.387 . S
C2117 H2120 0.950 . S
C2118 C2117 1.387 . S
C2118 C2121 1.387 . S
H2119 C2115 0.950 . S
H2120 C2117 0.950 . S
C2121 C2112 1.390 . S
C2121 H2114 0.950 . S
C2121 C2118 1.387 . S
C2122 C2123 1.387 . S
C2122 H2126 0.950 . S
C2122 C2131 1.390 . S
C2123 C2122 1.387 . S
C2123 C2125 1.387 . S
H2124 C2131 0.950 . S
C2125 C2123 1.387 . S
C2125 C2127 1.390 . S
C2125 H2129 0.950 . S
H2126 C2122 0.950 . S
C2127 C2125 1.390 . S
C2127 C2128 1.387 . S
C2127 H2130 0.950 . S
C2128 C2127 1.387 . S
C2128 C2131 1.387 . S
H2129 C2125 0.950 . S
H2130 C2127 0.950 . S
C2131 C2122 1.390 . S
C2131 H2124 0.950 . S
C2131 C2128 1.387 . S
C2132 C2133 1.387 . S
C2132 H2136 0.950 . S
C2132 C2141 1.390 . S
C2133 C2132 1.387 . S
C2133 C2135 1.387 . S
H2134 C2141 0.950 . S
C2135 C2133 1.387 . S
C2135 C2137 1.390 . S
C2135 H2139 0.950 . S
H2136 C2132 0.950 . S
C2137 C2135 1.390 . S
C2137 C2138 1.387 . S
C2137 H2140 0.950 . S
C2138 C2137 1.387 . S
C2138 C2141 1.387 . S
H2139 C2135 0.950 . S
H2140 C2137 0.950 . S
C2141 C2132 1.390 . S
C2141 H2134 0.950 . S
C2141 C2138 1.387 . S
C2142 C2143 1.387 . S
C2142 H2146 0.950 . S
C2142 C2151 1.390 . S
C2143 C2142 1.387 . S
C2143 C2145 1.387 . S
H2144 C2151 0.950 . S
C2145 C2143 1.387 . S
C2145 C2147 1.390 . S
C2145 H2149 0.950 . S
H2146 C2142 0.950 . S
C2147 C2145 1.390 . S
C2147 C2148 1.387 . S
C2147 H2150 0.950 . S
C2148 C2147 1.387 . S
C2148 C2151 1.387 . S
H2149 C2145 0.950 . S
H2150 C2147 0.950 . S
C2151 C2142 1.390 . S
C2151 H2144 0.950 . S
C2151 C2148 1.387 . S
C2152 C2153 1.387 . S
C2152 H2156 0.950 . S
C2152 C2161 1.390 . S
C2153 C2152 1.387 . S
C2153 C2155 1.387 . S
H2154 C2161 0.950 . S
C2155 C2153 1.387 . S
C2155 C2157 1.390 . S
C2155 H2159 0.950 . S
H2156 C2152 0.950 . S
C2157 C2155 1.390 . S
C2157 C2158 1.387 . S
C2157 H2160 0.950 . S
C2158 C2157 1.387 . S
C2158 C2161 1.387 . S
H2159 C2155 0.950 . S
H2160 C2157 0.950 . S
C2161 C2152 1.390 . S
C2161 H2154 0.950 . S
C2161 C2158 1.387 . S
C2162 C2163 1.387 . S
C2162 H2166 0.950 . S
C2162 C2171 1.390 . S
C2163 C2162 1.387 . S
C2163 C2165 1.387 . S
H2164 C2171 0.950 . S
C2165 C2163 1.387 . S
C2165 C2167 1.390 . S
C2165 H2169 0.950 . S
H2166 C2162 0.950 . S
C2167 C2165 1.390 . S
C2167 C2168 1.387 . S
C2167 H2170 0.950 . S
C2168 C2167 1.387 . S
C2168 C2171 1.387 . S
H2169 C2165 0.950 . S
H2170 C2167 0.950 . S
C2171 C2162 1.390 . S
C2171 H2164 0.950 . S
C2171 C2168 1.387 . S
C2172 C2173 1.387 . S
C2172 H2176 0.950 . S
C2172 C2181 1.390 . S
C2173 C2172 1.387 . S
C2173 C2175 1.387 . S
H2174 C2181 0.950 . S
C2175 C2173 1.387 . S
C2175 C2177 1.390 . S
C2175 H2179 0.950 . S
H2176 C2172 0.950 . S
C2177 C2175 1.390 . S
C2177 C2178 1.387 . S
C2177 H2180 0.950 . S
C2178 C2177 1.387 . S
C2178 C2181 1.387 . S
H2179 C2175 0.950 . S
H2180 C2177 0.950 . S
C2181 C2172 1.390 . S
C2181 H2174 0.950 . S
C2181 C2178 1.387 . S
C2182 C2183 1.387 . S
C2182 H2186 0.950 . S
C2182 C2191 1.390 . S
C2183 C2182 1.387 . S
C2183 C2185 1.387 . S
H2184 C2191 0.950 . S
C2185 C2183 1.387 . S
C2185 C2187 1.390 . S
C2185 H2189 0.950 . S
H2186 C2182 0.950 . S
C2187 C2185 1.390 . S
C2187 C2188 1.387 . S
C2187 H2190 0.950 . S
C2188 C2187 1.387 . S
C2188 C2191 1.387 . S
H2189 C2185 0.950 . S
H2190 C2187 0.950 . S
C2191 C2182 1.390 . S
C2191 H2184 0.950 . S
C2191 C2188 1.387 . S
C2192 C2193 1.387 . S
C2192 H2196 0.950 . S
C2192 C2201 1.390 . S
C2193 C2192 1.387 . S
C2193 C2195 1.387 . S
H2194 C2201 0.950 . S
C2195 C2193 1.387 . S
C2195 C2197 1.390 . S
C2195 H2199 0.950 . S
H2196 C2192 0.950 . S
C2197 C2195 1.390 . S
C2197 C2198 1.387 . S
C2197 H2200 0.950 . S
C2198 C2197 1.387 . S
C2198 C2201 1.387 . S
H2199 C2195 0.950 . S
H2200 C2197 0.950 . S
C2201 C2192 1.390 . S
C2201 H2194 0.950 . S
C2201 C2198 1.387 . S
C2202 C2203 1.387 . S
C2202 H2206 0.950 . S
C2202 C2211 1.390 . S
C2203 C2202 1.387 . S
C2203 C2205 1.387 . S
H2204 C2211 0.950 . S
C2205 C2203 1.387 . S
C2205 C2207 1.390 . S
C2205 H2209 0.950 . S
H2206 C2202 0.950 . S
C2207 C2205 1.390 . S
C2207 C2208 1.387 . S
C2207 H2210 0.950 . S
C2208 C2207 1.387 . S
C2208 C2211 1.387 . S
H2209 C2205 0.950 . S
H2210 C2207 0.950 . S
C2211 C2202 1.390 . S
C2211 H2204 0.950 . S
C2211 C2208 1.387 . S
C2212 C2213 1.387 . S
C2212 H2216 0.950 . S
C2212 C2221 1.390 . S
C2213 C2212 1.387 . S
C2213 C2215 1.387 . S
H2214 C2221 0.950 . S
C2215 C2213 1.387 . S
C2215 C2217 1.390 . S
C2215 H2219 0.950 . S
H2216 C2212 0.950 . S
C2217 C2215 1.390 . S
C2217 C2218 1.387 . S
C2217 H2220 0.950 . S
C2218 C2217 1.387 . S
C2218 C2221 1.387 . S
H2219 C2215 0.950 . S
H2220 C2217 0.950 . S
C2221 C2212 1.390 . S
C2221 H2214 0.950 . S
C2221 C2218 1.387 . S
C2222 C2223 1.387 . S
C2222 H2226 0.950 . S
C2222 C2231 1.390 . S
C2223 C2222 1.387 . S
C2223 C2225 1.387 . S
H2224 C2231 0.950 . S
C2225 C2223 1.387 . S
C2225 C2227 1.390 . S
C2225 H2229 0.950 . S
H2226 C2222 0.950 . S
C2227 C2225 1.390 . S
C2227 C2228 1.387 . S
C2227 H2230 0.950 . S
C2228 C2227 1.387 . S
C2228 C2231 1.387 . S
H2229 C2225 0.950 . S
H2230 C2227 0.950 . S
C2231 C2222 1.390 . S
C2231 H2224 0.950 . S
C2231 C2228 1.387 . S
C2232 C2233 1.387 . S
C2232 H2236 0.950 . S
C2232 C2241 1.390 . S
C2233 C2232 1.387 . S
C2233 C2235 1.387 . S
H2234 C2241 0.950 . S
C2235 C2233 1.387 . S
C2235 C2237 1.390 . S
C2235 H2239 0.950 . S
H2236 C2232 0.950 . S
C2237 C2235 1.390 . S
C2237 C2238 1.387 . S
C2237 H2240 0.950 . S
C2238 C2237 1.387 . S
C2238 C2241 1.387 . S
H2239 C2235 0.950 . S
H2240 C2237 0.950 . S
C2241 C2232 1.390 . S
C2241 H2234 0.950 . S
C2241 C2238 1.387 . S
C2242 C2243 1.387 . S
C2242 H2246 0.950 . S
C2242 C2251 1.390 . S
C2243 C2242 1.387 . S
C2243 C2245 1.387 . S
H2244 C2251 0.950 . S
C2245 C2243 1.387 . S
C2245 C2247 1.390 . S
C2245 H2249 0.950 . S
H2246 C2242 0.950 . S
C2247 C2245 1.390 . S
C2247 C2248 1.387 . S
C2247 H2250 0.950 . S
C2248 C2247 1.387 . S
C2248 C2251 1.387 . S
H2249 C2245 0.950 . S
H2250 C2247 0.950 . S
C2251 C2242 1.390 . S
C2251 H2244 0.950 . S
C2251 C2248 1.387 . S
C2252 C2253 1.387 . S
C2252 H2256 0.950 . S
C2252 C2261 1.390 . S
C2253 C2252 1.387 . S
C2253 C2255 1.387 . S
H2254 C2261 0.950 . S
C2255 C2253 1.387 . S
C2255 C2257 1.390 . S
C2255 H2259 0.950 . S
H2256 C2252 0.950 . S
C2257 C2255 1.390 . S
C2257 C2258 1.387 . S
C2257 H2260 0.950 . S
C2258 C2257 1.387 . S
C2258 C2261 1.387 . S
H2259 C2255 0.950 . S
H2260 C2257 0.950 . S
C2261 C2252 1.390 . S
C2261 H2254 0.950 . S
C2261 C2258 1.387 . S
C2262 C2263 1.387 . S
C2262 H2266 0.950 . S
C2262 C2271 1.390 . S
C2263 C2262 1.387 . S
C2263 C2265 1.387 . S
H2264 C2271 0.950 . S
C2265 C2263 1.387 . S
C2265 C2267 1.390 . S
C2265 H2269 0.950 . S
H2266 C2262 0.950 . S
C2267 C2265 1.390 . S
C2267 C2268 1.387 . S
C2267 H2270 0.950 . S
C2268 C2267 1.387 . S
C2268 C2271 1.387 . S
H2269 C2265 0.950 . S
H2270 C2267 0.950 . S
C2271 C2262 1.390 . S
C2271 H2264 0.950 . S
C2271 C2268 1.387 . S
C2272 C2273 1.387 . S
C2272 H2276 0.950 . S
C2272 C2281 1.390 . S
C2273 C2272 1.387 . S
C2273 C2275 1.387 . S
H2274 C2281 0.950 . S
C2275 C2273 1.387 . S
C2275 C2277 1.390 . S
C2275 H2279 0.950 . S
H2276 C2272 0.950 . S
C2277 C2275 1.390 . S
C2277 C2278 1.387 . S
C2277 H2280 0.950 . S
C2278 C2277 1.387 . S
C2278 C2281 1.387 . S
H2279 C2275 0.950 . S
H2280 C2277 0.950 . S
C2281 C2272 1.390 . S
C2281 H2274 0.950 . S
C2281 C2278 1.387 . S
C2282 C2283 1.387 . S
C2282 H2286 0.950 . S
C2282 C2291 1.390 . S
C2283 C2282 1.387 . S
C2283 C2285 1.387 . S
H2284 C2291 0.950 . S
C2285 C2283 1.387 . S
C2285 C2287 1.390 . S
C2285 H2289 0.950 . S
H2286 C2282 0.950 . S
C2287 C2285 1.390 . S
C2287 C2288 1.387 . S
C2287 H2290 0.950 . S
C2288 C2287 1.387 . S
C2288 C2291 1.387 . S
H2289 C2285 0.950 . S
H2290 C2287 0.950 . S
C2291 C2282 1.390 . S
C2291 H2284 0.950 . S
C2291 C2288 1.387 . S
C2292 C2293 1.387 . S
C2292 H2296 0.950 . S
C2292 C2301 1.390 . S
C2293 C2292 1.387 . S
C2293 C2295 1.387 . S
H2294 C2301 0.950 . S
C2295 C2293 1.387 . S
C2295 C2297 1.390 . S
C2295 H2299 0.950 . S
H2296 C2292 0.950 . S
C2297 C2295 1.390 . S
C2297 C2298 1.387 . S
C2297 H2300 0.950 . S
C2298 C2297 1.387 . S
C2298 C2301 1.387 . S
H2299 C2295 0.950 . S
H2300 C2297 0.950 . S
C2301 C2292 1.390 . S
C2301 H2294 0.950 . S
C2301 C2298 1.387 . S
C2302 C2303 1.387 . S
C2302 H2306 0.950 . S
C2302 C2311 1.390 . S
C2303 C2302 1.387 . S
C2303 C2305 1.387 . S
H2304 C2311 0.950 . S
C2305 C2303 1.387 . S
C2305 C2307 1.390 . S
C2305 H2309 0.950 . S
H2306 C2302 0.950 . S
C2307 C2305 1.390 . S
C2307 C2308 1.387 . S
C2307 H2310 0.950 . S
C2308 C2307 1.387 . S
C2308 C2311 1.387 . S
H2309 C2305 0.950 . S
H2310 C2307 0.950 . S
C2311 C2302 1.390 . S
C2311 H2304 0.950 . S
C2311 C2308 1.387 . S
C2312 C2313 1.387 . S
C2312 H2316 0.950 . S
C2312 C2321 1.390 . S
C2313 C2312 1.387 . S
C2313 C2315 1.387 . S
H2314 C2321 0.950 . S
C2315 C2313 1.387 . S
C2315 C2317 1.390 . S
C2315 H2319 0.950 . S
H2316 C2312 0.950 . S
C2317 C2315 1.390 . S
C2317 C2318 1.387 . S
C2317 H2320 0.950 . S
C2318 C2317 1.387 . S
C2318 C2321 1.387 . S
H2319 C2315 0.950 . S
H2320 C2317 0.950 . S
C2321 C2312 1.390 . S
C2321 H2314 0.950 . S
C2321 C2318 1.387 . S
C2322 C2323 1.387 . S
C2322 H2326 0.950 . S
C2322 C2331 1.390 . S
C2323 C2322 1.387 . S
C2323 C2325 1.387 . S
H2324 C2331 0.950 . S
C2325 C2323 1.387 . S
C2325 C2327 1.390 . S
C2325 H2329 0.950 . S
H2326 C2322 0.950 . S
C2327 C2325 1.390 . S
C2327 C2328 1.387 . S
C2327 H2330 0.950 . S
C2328 C2327 1.387 . S
C2328 C2331 1.387 . S
H2329 C2325 0.950 . S
H2330 C2327 0.950 . S
C2331 C2322 1.390 . S
C2331 H2324 0.950 . S
C2331 C2328 1.387 . S
C2332 C2333 1.387 . S
C2332 H2336 0.950 . S
C2332 C2341 1.390 . S
C2333 C2332 1.387 . S
C2333 C2335 1.387 . S
H2334 C2341 0.950 . S
C2335 C2333 1.387 . S
C2335 C2337 1.390 . S
C2335 H2339 0.950 . S
H2336 C2332 0.950 . S
C2337 C2335 1.390 . S
C2337 C2338 1.387 . S
C2337 H2340 0.950 . S
C2338 C2337 1.387 . S
C2338 C2341 1.387 . S
H2339 C2335 0.950 . S
H2340 C2337 0.950 . S
C2341 C2332 1.390 . S
C2341 H2334 0.950 . S
C2341 C2338 1.387 . S
C2342 C2343 1.387 . S
C2342 H2346 0.950 . S
C2342 C2351 1.390 . S
C2343 C2342 1.387 . S
C2343 C2345 1.387 . S
H2344 C2351 0.950 . S
C2345 C2343 1.387 . S
C2345 C2347 1.390 . S
C2345 H2349 0.950 . S
H2346 C2342 0.950 . S
C2347 C2345 1.390 . S
C2347 C2348 1.387 . S
C2347 H2350 0.950 . S
C2348 C2347 1.387 . S
C2348 C2351 1.387 . S
H2349 C2345 0.950 . S
H2350 C2347 0.950 . S
C2351 C2342 1.390 . S
C2351 H2344 0.950 . S
C2351 C2348 1.387 . S
C2352 C2353 1.387 . S
C2352 H2356 0.950 . S
C2352 C2361 1.390 . S
C2353 C2352 1.387 . S
C2353 C2355 1.387 . S
H2354 C2361 0.950 . S
C2355 C2353 1.387 . S
C2355 C2357 1.390 . S
C2355 H2359 0.950 . S
H2356 C2352 0.950 . S
C2357 C2355 1.390 . S
C2357 C2358 1.387 . S
C2357 H2360 0.950 . S
C2358 C2357 1.387 . S
C2358 C2361 1.387 . S
H2359 C2355 0.950 . S
H2360 C2357 0.950 . S
C2361 C2352 1.390 . S
C2361 H2354 0.950 . S
C2361 C2358 1.387 . S
C2362 C2363 1.387 . S
C2362 H2366 0.950 . S
C2362 C2371 1.390 . S
C2363 C2362 1.387 . S
C2363 C2365 1.387 . S
H2364 C2371 0.950 . S
C2365 C2363 1.387 . S
C2365 C2367 1.390 . S
C2365 H2369 0.950 . S
H2366 C2362 0.950 . S
C2367 C2365 1.390 . S
C2367 C2368 1.387 . S
C2367 H2370 0.950 . S
C2368 C2367 1.387 . S
C2368 C2371 1.387 . S
H2369 C2365 0.950 . S
H2370 C2367 0.950 . S
C2371 C2362 1.390 . S
C2371 H2364 0.950 . S
C2371 C2368 1.387 . S
C2372 C2373 1.387 . S
C2372 H2376 0.950 . S
C2372 C2381 1.390 . S
C2373 C2372 1.387 . S
C2373 C2375 1.387 . S
H2374 C2381 0.950 . S
C2375 C2373 1.387 . S
C2375 C2377 1.390 . S
C2375 H2379 0.950 . S
H2376 C2372 0.950 . S
C2377 C2375 1.390 . S
C2377 C2378 1.387 . S
C2377 H2380 0.950 . S
C2378 C2377 1.387 . S
C2378 C2381 1.387 . S
H2379 C2375 0.950 . S
H2380 C2377 0.950 . S
C2381 C2372 1.390 . S
C2381 H2374 0.950 . S
C2381 C2378 1.387 . S
C2382 C2383 1.387 . S
C2382 H2386 0.950 . S
C2382 C2391 1.390 . S
C2383 C2382 1.387 . S
C2383 C2385 1.387 . S
H2384 C2391 0.950 . S
C2385 C2383 1.387 . S
C2385 C2387 1.390 . S
C2385 H2389 0.950 . S
H2386 C2382 0.950 . S
C2387 C2385 1.390 . S
C2387 C2388 1.387 . S
C2387 H2390 0.950 . S
C2388 C2387 1.387 . S
C2388 C2391 1.387 . S
H2389 C2385 0.950 . S
H2390 C2387 0.950 . S
C2391 C2382 1.390 . S
C2391 H2384 0.950 . S
C2391 C2388 1.387 . S
C2392 C2393 1.387 . S
C2392 H2396 0.950 . S
C2392 C2401 1.390 . S
C2393 C2392 1.387 . S
C2393 C2395 1.387 . S
H2394 C2401 0.950 . S
C2395 C2393 1.387 . S
C2395 C2397 1.390 . S
C2395 H2399 0.950 . S
H2396 C2392 0.950 . S
C2397 C2395 1.390 . S
C2397 C2398 1.387 . S
C2397 H2400 0.950 . S
C2398 C2397 1.387 . S
C2398 C2401 1.387 . S
H2399 C2395 0.950 . S
H2400 C2397 0.950 . S
C2401 C2392 1.390 . S
C2401 H2394 0.950 . S
C2401 C2398 1.387 . S
C2402 C2403 1.387 . S
C2402 H2406 0.950 . S
C2402 C2411 1.390 . S
C2403 C2402 1.387 . S
C2403 C2405 1.387 . S
H2404 C2411 0.950 . S
C2405 C2403 1.387 . S
C2405 C2407 1.390 . S
C2405 H2409 0.950 . S
H2406 C2402 0.950 . S
C2407 C2405 1.390 . S
C2407 C2408 1.387 . S
C2407 H2410 0.950 . S
C2408 C2407 1.387 . S
C2408 C2411 1.387 . S
H2409 C2405 0.950 . S
H2410 C2407 0.950 . S
C2411 C2402 1.390 . S
C2411 H2404 0.950 . S
C2411 C2408 1.387 . S
C2412 C2413 1.387 . S
C2412 H2416 0.950 . S
C2412 C2421 1.390 . S
C2413 C2412 1.387 . S
C2413 C2415 1.387 . S
H2414 C2421 0.950 . S
C2415 C2413 1.387 . S
C2415 C2417 1.390 . S
C2415 H2419 0.950 . S
H2416 C2412 0.950 . S
C2417 C2415 1.390 . S
C2417 C2418 1.387 . S
C2417 H2420 0.950 . S
C2418 C2417 1.387 . S
C2418 C2421 1.387 . S
H2419 C2415 0.950 . S
H2420 C2417 0.950 . S
C2421 C2412 1.390 . S
C2421 H2414 0.950 . S
C2421 C2418 1.387 . S
C2422 C2423 1.387 . S
C2422 H2426 0.950 . S
C2422 C2431 1.390 . S
C2423 C2422 1.387 . S
C2423 C2425 1.387 . S
H2424 C2431 0.950 . S
C2425 C2423 1.387 . S
C2425 C2427 1.390 . S
C2425 H2429 0.950 . S
H2426 C2422 0.950 . S
C2427 C2425 1.390 . S
C2427 C2428 1.387 . S
C2427 H2430 0.950 . S
C2428 C2427 1.387 . S
C2428 C2431 1.387 . S
H2429 C2425 0.950 . S
H2430 C2427 0.950 . S
C2431 C2422 1.390 . S
C2431 H2424 0.950 . S
C2431 C2428 1.387 . S
C2432 C2433 1.387 . S
C2432 H2436 0.950 . S
C2432 C2441 1.390 . S
C2433 C2432 1.387 . S
C2433 C2435 1.387 . S
H2434 C2441 0.950 . S
C2435 C2433 1.387 . S
C2435 C2437 1.390 . S
C2435 H2439 0.950 . S
H2436 C2432 0.950 . S
C2437 C2435 1.390 . S
C2437 C2438 1.387 . S
C2437 H2440 0.950 . S
C2438 C2437 1.387 . S
C2438 C2441 1.387 . S
H2439 C2435 0.950 . S
H2440 C2437 0.950 . S
C2441 C2432 1.390 . S
C2441 H2434 0.950 . S
C2441 C2438 1.387 . S
C2442 C2443 1.387 . S
C2442 H2446 0.950 . S
C2442 C2451 1.390 . S
C2443 C2442 1.387 . S
C2443 C2445 1.387 . S
H2444 C2451 0.950 . S
C2445 C2443 1.387 . S
C2445 C2447 1.390 . S
C2445 H2449 0.950 . S
H2446 C2442 0.950 . S
C2447 C2445 1.390 . S
C2447 C2448 1.387 . S
C2447 H2450 0.950 . S
C2448 C2447 1.387 . S
C2448 C2451 1.387 . S
H2449 C2445 0.950 . S
H2450 C2447 0.950 . S
C2451 C2442 1.390 . S
C2451 H2444 0.950 . S
C2451 C2448 1.387 . S
C2452 C2453 1.387 . S
C2452 H2456 0.950 . S
C2452 C2461 1.390 . S
C2453 C2452 1.387 . S
C2453 C2455 1.387 . S
H2454 C2461 0.950 . S
C2455 C2453 1.387 . S
C2455 C2457 1.390 . S
C2455 H2459 0.950 . S
H2456 C2452 0.950 . S
C2457 C2455 1.390 . S
C2457 C2458 1.387 . S
C2457 H2460 0.950 . S
C2458 C2457 1.387 . S
C2458 C2461 1.387 . S
H2459 C2455 0.950 . S
H2460 C2457 0.950 . S
C2461 C2452 1.390 . S
C2461 H2454 0.950 . S
C2461 C2458 1.387 . S
C2462 C2463 1.387 . S
C2462 H2466 0.950 . S
C2462 C2471 1.390 . S
C2463 C2462 1.387 . S
C2463 C2465 1.387 . S
H2464 C2471 0.950 . S
C2465 C2463 1.387 . S
C2465 C2467 1.390 . S
C2465 H2469 0.950 . S
H2466 C2462 0.950 . S
C2467 C2465 1.390 . S
C2467 C2468 1.387 . S
C2467 H2470 0.950 . S
C2468 C2467 1.387 . S
C2468 C2471 1.387 . S
H2469 C2465 0.950 . S
H2470 C2467 0.950 . S
C2471 C2462 1.390 . S
C2471 H2464 0.950 . S
C2471 C2468 1.387 . S
C2472 C2473 1.387 . S
C2472 H2476 0.950 . S
C2472 C2481 1.390 . S
C2473 C2472 1.387 . S
C2473 C2475 1.387 . S
H2474 C2481 0.950 . S
C2475 C2473 1.387 . S
C2475 C2477 1.390 . S
C2475 H2479 0.950 . S
H2476 C2472 0.950 . S
C2477 C2475 1.390 . S
C2477 C2478 1.387 . S
C2477 H2480 0.950 . S
C2478 C2477 1.387 . S
C2478 C2481 1.387 . S
H2479 C2475 0.950 . S
H2480 C2477 0.950 . S
C2481 C2472 1.390 . S
C2481 H2474 0.950 . S
C2481 C2478 1.387 . S
C2482 C2483 1.387 . S
C2482 H2486 0.950 . S
C2482 C2491 1.390 . S
C2483 C2482 1.387 . S
C2483 C2485 1.387 . S
H2484 C2491 0.950 . S
C2485 C2483 1.387 . S
C2485 C2487 1.390 . S
C2485 H2489 0.950 . S
H2486 C2482 0.950 . S
C2487 C2485 1.390 . S
C2487 C2488 1.387 . S
C2487 H2490 0.950 . S
C2488 C2487 1.387 . S
C2488 C2491 1.387 . S
H2489 C2485 0.950 . S
H2490 C2487 0.950 . S
C2491 C2482 1.390 . S
C2491 H2484 0.950 . S
C2491 C2488 1.387 . S
C2492 C2493 1.387 . S
C2492 H2496 0.950 . S
C2492 C2501 1.390 . S
C2493 C2492 1.387 . S
C2493 C2495 1.387 . S
H2494 C2501 0.950 . S
C2495 C2493 1.387 . S
C2495 C2497 1.390 . S
C2495 H2499 0.950 . S
H2496 C2492 0.950 . S
C2497 C2495 1.390 . S
C2497 C2498 1.387 . S
C2497 H2500 0.950 . S
C2498 C2497 1.387 . S
C2498 C2501 1.387 . S
H2499 C2495 0.950 . S
H2500 C2497 0.950 . S
C2501 C2492 1.390 . S
C2501 H2494 0.950 . S
C2501 C2498 1.387 . S
C2502 C2503 1.387 . S
C2502 H2506 0.950 . S
C2502 C2511 1.390 . S
C2503 C2502 1.387 . S
C2503 C2505 1.387 . S
H2504 C2511 0.950 . S
C2505 C2503 1.387 . S
C2505 C2507 1.390 . S
C2505 H2509 0.950 . S
H2506 C2502 0.950 . S
C2507 C2505 1.390 . S
C2507 C2508 1.387 . S
C2507 H2510 0.950 . S
C2508 C2507 1.387 . S
C2508 C2511 1.387 . S
H2509 C2505 0.950 . S
H2510 C2507 0.950 . S
C2511 C2502 1.390 . S
C2511 H2504 0.950 . S
C2511 C2508 1.387 . S
C2512 C2513 1.387 . S
C2512 H2516 0.950 . S
C2512 C2521 1.390 . S
C2513 C2512 1.387 . S
C2513 C2515 1.387 . S
H2514 C2521 0.950 . S
C2515 C2513 1.387 . S
C2515 C2517 1.390 . S
C2515 H2519 0.950 . S
H2516 C2512 0.950 . S
C2517 C2515 1.390 . S
C2517 C2518 1.387 . S
C2517 H2520 0.950 . S
C2518 C2517 1.387 . S
C2518 C2521 1.387 . S
H2519 C2515 0.950 . S
H2520 C2517 0.950 . S
C2521 C2512 1.390 . S
C2521 H2514 0.950 . S
C2521 C2518 1.387 . S
C2522 C2523 1.387 . S
C2522 H2526 0.950 . S
C2522 C2531 1.390 . S
C2523 C2522 1.387 . S
C2523 C2525 1.387 . S
H2524 C2531 0.950 . S
C2525 C2523 1.387 . S
C2525 C2527 1.390 . S
C2525 H2529 0.950 . S
H2526 C2522 0.950 . S
C2527 C2525 1.390 . S
C2527 C2528 1.387 . S
C2527 H2530 0.950 . S
C2528 C2527 1.387 . S
C2528 C2531 1.387 . S
H2529 C2525 0.950 . S
H2530 C2527 0.950 . S
C2531 C2522 1.390 . S
C2531 H2524 0.950 . S
C2531 C2528 1.387 . S
C2532 C2533 1.387 . S
C2532 H2536 0.950 . S
C2532 C2541 1.390 . S
C2533 C2532 1.387 . S
C2533 C2535 1.387 . S
H2534 C2541 0.950 . S
C2535 C2533 1.387 . S
C2535 C2537 1.390 . S
C2535 H2539 0.950 . S
H2536 C2532 0.950 . S
C2537 C2535 1.390 . S
C2537 C2538 1.387 . S
C2537 H2540 0.950 . S
C2538 C2537 1.387 . S
C2538 C2541 1.387 . S
H2539 C2535 0.950 . S
H2540 C2537 0.950 . S
C2541 C2532 1.390 . S
C2541 H2534 0.950 . S
C2541 C2538 1.387 . S
C2542 C2543 1.387 . S
C2542 H2546 0.950 . S
C2542 C2551 1.390 . S
C2543 C2542 1.387 . S
C2543 C2545 1.387 . S
H2544 C2551 0.950 . S
C2545 C2543 1.387 . S
C2545 C2547 1.390 . S
C2545 H2549 0.950 . S
H2546 C2542 0.950 . S
C2547 C2545 1.390 . S
C2547 C2548 1.387 . S
C2547 H2550 0.950 . S
C2548 C2547 1.387 . S
C2548 C2551 1.387 . S
H2549 C2545 0.950 . S
H2550 C2547 0.950 . S
C2551 C2542 1.390 . S
C2551 H2544 0.950 . S
C2551 C2548 1.387 . S
C2552 C2553 1.387 . S
C2552 H2556 0.950 . S
C2552 C2561 1.390 . S
C2553 C2552 1.387 . S
C2553 C2555 1.387 . S
H2554 C2561 0.950 . S
C2555 C2553 1.387 . S
C2555 C2557 1.390 . S
C2555 H2559 0.950 . S
H2556 C2552 0.950 . S
C2557 C2555 1.390 . S
C2557 C2558 1.387 . S
C2557 H2560 0.950 . S
C2558 C2557 1.387 . S
C2558 C2561 1.387 . S
H2559 C2555 0.950 . S
H2560 C2557 0.950 . S
C2561 C2552 1.390 . S
C2561 H2554 0.950 . S
C2561 C2558 1.387 . S
C2562 C2563 1.387 . S
C2562 H2566 0.950 . S
C2562 C2571 1.390 . S
C2563 C2562 1.387 . S
C2563 C2565 1.387 . S
H2564 C2571 0.950 . S
C2565 C2563 1.387 . S
C2565 C2567 1.390 . S
C2565 H2569 0.950 . S
H2566 C2562 0.950 . S
C2567 C2565 1.390 . S
C2567 C2568 1.387 . S
C2567 H2570 0.950 . S
C2568 C2567 1.387 . S
C2568 C2571 1.387 . S
H2569 C2565 0.950 . S
H2570 C2567 0.950 . S
C2571 C2562 1.390 . S
C2571 H2564 0.950 . S
C2571 C2568 1.387 . S
C2572 C2573 1.387 . S
C2572 H2576 0.950 . S
C2572 C2581 1.390 . S
C2573 C2572 1.387 . S
C2573 C2575 1.387 . S
H2574 C2581 0.950 . S
C2575 C2573 1.387 . S
C2575 C2577 1.390 . S
C2575 H2579 0.950 . S
H2576 C2572 0.950 . S
C2577 C2575 1.390 . S
C2577 C2578 1.387 . S
C2577 H2580 0.950 . S
C2578 C2577 1.387 . S
C2578 C2581 1.387 . S
H2579 C2575 0.950 . S
H2580 C2577 0.950 . S
C2581 C2572 1.390 . S
C2581 H2574 0.950 . S
C2581 C2578 1.387 . S
C2582 C2583 1.387 . S
C2582 H2586 0.950 . S
C2582 C2591 1.390 . S
C2583 C2582 1.387 . S
C2583 C2585 1.387 . S
H2584 C2591 0.950 . S
C2585 C2583 1.387 . S
C2585 C2587 1.390 . S
C2585 H2589 0.950 . S
H2586 C2582 0.950 . S
C2587 C2585 1.390 . S
C2587 C2588 1.387 . S
C2587 H2590 0.950 . S
C2588 C2587 1.387 . S
C2588 C2591 1.387 . S
H2589 C2585 0.950 . S
H2590 C2587 0.950 . S
C2591 C2582 1.390 . S
C2591 H2584 0.950 . S
C2591 C2588 1.387 . S
C2592 C2593 1.387 . S
C2592 H2596 0.950 . S
C2592 C2601 1.390 . S
C2593 C2592 1.387 . S
C2593 C2595 1.387 . S
H2594 C2601 0.950 . S
C2595 C2593 1.387 . S
C2595 C2597 1.390 . S
C2595 H2599 0.950 . S
H2596 C2592 0.950 . S
C2597 C2595 1.390 . S
C2597 C2598 1.387 . S
C2597 H2600 0.950 . S
C2598 C2597 1.387 . S
C2598 C2601 1.387 . S
H2599 C2595 0.950 . S
H2600 C2597 0.950 . S
C2601 C2592 1.390 . S
C2601 H2594 0.950 . S
C2601 C2598 1.387 . S
C2602 C2603 1.387 . S
C2602 H2606 0.950 . S
C2602 C2611 1.390 . S
C2603 C2602 1.387 . S
C2603 C2605 1.387 . S
H2604 C2611 0.950 . S
C2605 C2603 1.387 . S
C2605 C2607 1.390 . S
C2605 H2609 0.950 . S
H2606 C2602 0.950 . S
C2607 C2605 1.390 . S
C2607 C2608 1.387 . S
C2607 H2610 0.950 . S
C2608 C2607 1.387 . S
C2608 C2611 1.387 . S
H2609 C2605 0.950 . S
H2610 C2607 0.950 . S
C2611 C2602 1.390 . S
C2611 H2604 0.950 . S
C2611 C2608 1.387 . S
C2612 C2613 1.387 . S
C2612 H2616 0.950 . S
C2612 C2621 1.390 . S
C2613 C2612 1.387 . S
C2613 C2615 1.387 . S
H2614 C2621 0.950 . S
C2615 C2613 1.387 . S
C2615 C2617 1.390 . S
C2615 H2619 0.950 . S
H2616 C2612 0.950 . S
C2617 C2615 1.390 . S
C2617 C2618 1.387 . S
C2617 H2620 0.950 . S
C2618 C2617 1.387 . S
C2618 C2621 1.387 . S
H2619 C2615 0.950 . S
H2620 C2617 0.950 . S
C2621 C2612 1.390 . S
C2621 H2614 0.950 . S
C2621 C2618 1.387 . S
C2622 C2623 1.387 . S
C2622 H2626 0.950 . S
C2622 C2631 1.390 . S
C2623 C2622 1.387 . S
C2623 C2625 1.387 . S
H2624 C2631 0.950 . S
C2625 C2623 1.387 . S
C2625 C2627 1.390 . S
C2625 H2629 0.950 . S
H2626 C2622 0.950 . S
C2627 C2625 1.390 . S
C2627 C2628 1.387 . S
C2627 H2630 0.950 . S
C2628 C2627 1.387 . S
C2628 C2631 1.387 . S
H2629 C2625 0.950 . S
H2630 C2627 0.950 . S
C2631 C2622 1.390 . S
C2631 H2624 0.950 . S
C2631 C2628 1.387 . S
C2632 C2633 1.387 . S
C2632 H2636 0.950 . S
C2632 C2641 1.390 . S
C2633 C2632 1.387 . S
C2633 C2635 1.387 . S
H2634 C2641 0.950 . S
C2635 C2633 1.387 . S
C2635 C2637 1.390 . S
C2635 H2639 0.950 . S
H2636 C2632 0.950 . S
C2637 C2635 1.390 . S
C2637 C2638 1.387 . S
C2637 H2640 0.950 . S
C2638 C2637 1.387 . S
C2638 C2641 1.387 . S
H2639 C2635 0.950 . S
H2640 C2637 0.950 . S
C2641 C2632 1.390 . S
C2641 H2634 0.950 . S
C2641 C2638 1.387 . S
C2642 C2643 1.387 . S
C2642 H2646 0.950 . S
C2642 C2651 1.390 . S
C2643 C2642 1.387 . S
C2643 C2645 1.387 . S
H2644 C2651 0.950 . S
C2645 C2643 1.387 . S
C2645 C2647 1.390 . S
C2645 H2649 0.950 . S
H2646 C2642 0.950 . S
C2647 C2645 1.390 . S
C2647 C2648 1.387 . S
C2647 H2650 0.950 . S
C2648 C2647 1.387 . S
C2648 C2651 1.387 . S
H2649 C2645 0.950 . S
H2650 C2647 0.950 . S
C2651 C2642 1.390 . S
C2651 H2644 0.950 . S
C2651 C2648 1.387 . S
C2652 C2653 1.387 . S
C2652 H2656 0.950 . S
C2652 C2661 1.390 . S
C2653 C2652 1.387 . S
C2653 C2655 1.387 . S
H2654 C2661 0.950 . S
C2655 C2653 1.387 . S
C2655 C2657 1.390 . S
C2655 H2659 0.950 . S
H2656 C2652 0.950 . S
C2657 C2655 1.390 . S
C2657 C2658 1.387 . S
C2657 H2660 0.950 . S
C2658 C2657 1.387 . S
C2658 C2661 1.387 . S
H2659 C2655 0.950 . S
H2660 C2657 0.950 . S
C2661 C2652 1.390 . S
C2661 H2654 0.950 . S
C2661 C2658 1.387 . S
C2662 C2663 1.387 . S
C2662 H2666 0.950 . S
C2662 C2671 1.390 . S
C2663 C2662 1.387 . S
C2663 C2665 1.387 . S
H2664 C2671 0.950 . S
C2665 C2663 1.387 . S
C2665 C2667 1.390 . S
C2665 H2669 0.950 . S
H2666 C2662 0.950 . S
C2667 C2665 1.390 . S
C2667 C2668 1.387 . S
C2667 H2670 0.950 . S
C2668 C2667 1.387 . S
C2668 C2671 1.387 . S
H2669 C2665 0.950 . S
H2670 C2667 0.950 . S
C2671 C2662 1.390 . S
C2671 H2664 0.950 . S
C2671 C2668 1.387 . S
C1718 C1294 1.489 . S
C1713 C21 1.535 . S
C1728 C1306 1.430 . S
C1723 C42 1.527 . S
C1733 C82 1.523 . S
C1738 C1330 1.477 . S
C1748 C1341 1.459 . S
C1743 C135 1.550 . S
C1753 C175 1.506 . S
C1758 C1348 1.421 . S
C1763 C221 1.534 . S
C1768 C1287 1.483 . S
C1773 C255 1.543 . S
C1778 C1314 1.448 . S
C1788 C1323 1.497 . S
C1783 C301 1.587 . S
C1798 C1360 1.470 . S
C1793 C15 1.544 . S
C1803 C55 1.521 . S
C1808 C1386 1.426 . S
C1813 C101 1.540 . S
C1818 C1402 1.494 . S
C1828 C1422 1.460 . S
C1823 C141 1.562 . S
C1833 C162 1.497 . S
C1838 C1431 1.442 . S
C1848 C1456 1.470 . S
C1843 C215 1.548 . S
C1853 C261 1.561 . S
C1858 C1476 1.464 . S
C1868 C1492 1.476 . S
C1863 C282 1.559 . S
C1873 C2 1.521 . S
C1878 C1414 1.479 . S
C1883 C181 1.482 . S
C1888 C1449 1.432 . S
C1898 C1468 1.493 . S
C1893 C202 1.538 . S
C1903 C242 1.561 . S
C1908 C1485 1.464 . S
C1918 C1438 1.464 . S
C1913 C295 1.546 . S
C1928 C1378 1.470 . S
C1923 C95 1.547 . S
C1933 C122 1.554 . S
C1938 C1395 1.460 . S
C1948 C1368 1.436 . S
C1943 C61 1.548 . S
C1958 C1512 1.482 . S
C1953 C341 1.535 . S
C1963 C362 1.527 . S
C1968 C1522 1.435 . S
C1973 C402 1.524 . S
C1978 C1546 1.476 . S
C1988 C1558 1.464 . S
C1983 C455 1.547 . S
C1993 C495 1.507 . S
C1998 C1566 1.421 . S
C2003 C541 1.529 . S
C2008 C1504 1.486 . S
C2013 C575 1.545 . S
C2018 C1530 1.450 . S
C2023 C621 1.588 . S
C2028 C1539 1.498 . S
C2038 C1432 1.471 . S
C2033 C335 1.545 . S
C2043 C375 1.522 . S
C2048 C1582 1.433 . S
C2058 C1474 1.497 . S
C2053 C421 1.542 . S
C2063 C461 1.561 . S
C2068 C1602 1.458 . S
C2073 C482 1.495 . S
C2078 C1359 1.441 . S
C2088 C1620 1.459 . S
C2083 C535 1.544 . S
C2093 C581 1.561 . S
C2098 C1404 1.466 . S
C2108 C1636 1.477 . S
C2103 C602 1.559 . S
C2113 C322 1.519 . S
C2118 C1594 1.476 . S
C2128 C1612 1.437 . S
C2123 C501 1.479 . S
C2133 C522 1.537 . S
C2138 C1396 1.491 . S
C2148 C1629 1.464 . S
C2143 C562 1.561 . S
C2153 C615 1.544 . S
C2158 C1366 1.460 . S
C2163 C415 1.548 . S
C2168 C1575 1.463 . S
C2173 C442 1.553 . S
C2178 C1467 1.456 . S
C2183 C381 1.548 . S
C2188 C1440 1.440 . S
C2193 C661 1.539 . S
C2198 C1548 1.487 . S
C2208 C1557 1.429 . S
C2203 C682 1.528 . S
C2213 C722 1.521 . S
C2218 C1510 1.473 . S
C2223 C775 1.548 . S
C2228 C1521 1.455 . S
C2233 C815 1.506 . S
C2238 C1528 1.422 . S
C2243 C861 1.533 . S
C2248 C1540 1.490 . S
C2258 C1564 1.458 . S
C2253 C895 1.544 . S
C2263 C941 1.586 . S
C2268 C1503 1.492 . S
C2278 C1654 1.467 . S
C2273 C655 1.545 . S
C2283 C695 1.521 . S
C2288 C1458 1.427 . S
C2298 C1672 1.497 . S
C2293 C741 1.541 . S
C2303 C781 1.562 . S
C2308 C1494 1.464 . S
C2313 C802 1.498 . S
C2318 C1692 1.444 . S
C2323 C855 1.545 . S
C2328 C1384 1.464 . S
C2338 C1708 1.470 . S
C2333 C901 1.560 . S
C2343 C922 1.557 . S
C2348 C1420 1.474 . S
C2358 C1486 1.476 . S
C2353 C642 1.519 . S
C2368 C1377 1.428 . S
C2363 C821 1.479 . S
C2373 C842 1.540 . S
C2378 C1701 1.487 . S
C2383 C882 1.560 . S
C2388 C1413 1.465 . S
C2398 C1684 1.460 . S
C2393 C935 1.542 . S
C2408 C1450 1.473 . S
C2403 C735 1.548 . S
C2418 C1665 1.457 . S
C2413 C762 1.553 . S
C2428 C1647 1.440 . S
C2423 C701 1.548 . S
C2433 C981 1.537 . S
C2438 C1332 1.485 . S
C2443 C1002 1.526 . S
C2448 C1342 1.432 . S
C2458 C1296 1.473 . S
C2453 C1042 1.526 . S
C2468 C1305 1.455 . S
C2463 C1095 1.546 . S
C2478 C1312 1.420 . S
C2473 C1135 1.505 . S
C2488 C1324 1.487 . S
C2483 C1181 1.530 . S
C2498 C1350 1.451 . S
C2493 C1215 1.545 . S
C2503 C1261 1.583 . S
C2508 C1288 1.499 . S
C2513 C975 1.548 . S
C2518 C1690 1.472 . S
C2528 C1618 1.434 . S
C2523 C1015 1.522 . S
C2538 C1710 1.489 . S
C2533 C1061 1.542 . S
C2548 C1638 1.459 . S
C2543 C1101 1.561 . S
C2553 C1122 1.499 . S
C2558 C1656 1.445 . S
C2568 C1584 1.460 . S
C2563 C1175 1.544 . S
C2578 C1674 1.462 . S
C2573 C1221 1.562 . S
C2583 C1242 1.555 . S
C2588 C1600 1.470 . S
C2598 C1630 1.476 . S
C2593 C962 1.519 . S
C2608 C1576 1.437 . S
C2603 C1141 1.479 . S
C2618 C1666 1.491 . S
C2613 C1162 1.536 . S
C2623 C1202 1.560 . S
C2628 C1593 1.466 . S
C2633 C1255 1.541 . S
C2638 C1648 1.462 . S
C2643 C1055 1.550 . S
C2648 C1611 1.466 . S
C2653 C1082 1.551 . S
C2658 C1702 1.463 . S
C2668 C1683 1.435 . S
C2663 C1021 1.546 . S
