# Generated by pormake.
# Topology zzz, (3,6)-cn, num edge types: 1
# Building blocks:
#     Node 0, Type 0, BuildingBlock: MIDCAF_clean_linker_0, # of connection points: 3
#     Node 1, Type 0, BuildingBlock: MIDCAF_clean_linker_0, # of connection points: 3
#     Node 2, Type 0, BuildingBlock: MIDCAF_clean_linker_0, # of connection points: 3
#     Node 3, Type 0, BuildingBlock: MIDCAF_clean_linker_0, # of connection points: 3
#     Node 4, Type 0, BuildingBlock: MIDCAF_clean_linker_0, # of connection points: 3
#     Node 5, Type 0, BuildingBlock: MIDCAF_clean_linker_0, # of connection points: 3
#     Node 6, Type 0, BuildingBlock: MIDCAF_clean_linker_0, # of connection points: 3
#     Node 7, Type 0, BuildingBlock: MIDCAF_clean_linker_0, # of connection points: 3
#     Node 8, Type 1, BuildingBlock: JUFBIX_clean_sbu_0, # of connection points: 6
#     Node 9, Type 1, BuildingBlock: JUFBIX_clean_sbu_0, # of connection points: 6
#     Node 10, Type 1, BuildingBlock: JUFBIX_clean_sbu_0, # of connection points: 6
#     Node 11, Type 1, BuildingBlock: JUFBIX_clean_sbu_0, # of connection points: 6
#     Edge 12, Type (0, 1), None
#     Edge 13, Type (0, 1), None
#     Edge 14, Type (0, 1), None
#     Edge 15, Type (0, 1), None
#     Edge 16, Type (0, 1), None
#     Edge 17, Type (0, 1), None
#     Edge 18, Type (0, 1), None
#     Edge 19, Type (0, 1), None
#     Edge 20, Type (0, 1), None
#     Edge 21, Type (0, 1), None
#     Edge 22, Type (0, 1), None
#     Edge 23, Type (0, 1), None
#     Edge 24, Type (0, 1), None
#     Edge 25, Type (0, 1), None
#     Edge 26, Type (0, 1), None
#     Edge 27, Type (0, 1), None
#     Edge 28, Type (0, 1), None
#     Edge 29, Type (0, 1), None
#     Edge 30, Type (0, 1), None
#     Edge 31, Type (0, 1), None
#     Edge 32, Type (0, 1), None
#     Edge 33, Type (0, 1), None
#     Edge 34, Type (0, 1), None
#     Edge 35, Type (0, 1), None
# Relax obj value: 0.269
# Max RMSD: 0.232
# Mean RMSD: 0.187
data_MOF--net-zzz--node1-JUFBIX_clean_sbu_0--node2-MIDCAF_clean_linker_0--edge1-none
_symmetry_space_group_name_H-M    P1
_symmetry_Int_Tables_number       1
_symmetry_cell_setting            triclinic
loop_
_symmetry_equiv_pos_as_xyz
'x, y, z'
_cell_length_a     32.054844
_cell_length_b     31.931226
_cell_length_c     13.124105
_cell_angle_alpha  77.984751
_cell_angle_beta   90.706312
_cell_angle_gamma 94.014893
loop_
_atom_site_label
_atom_site_type_symbol
_atom_site_fract_x
_atom_site_fract_y
_atom_site_fract_z
_atom_type_partial_charge
C0 C 0.91204 0.51962 0.5966 0.0
C1 C 0.93179 0.4861 0.66193 0.0
C2 C 0.91918 0.44354 0.65725 0.0
C3 C 0.89085 0.43465 0.58182 0.0
H4 H 0.73507 0.43996 0.27799 0.0
H5 H 0.68135 0.4567 0.14319 0.0
H6 H 0.76988 0.5479 0.95484 0.0
H7 H 0.82314 0.53028 0.0878 0.0
H8 H 0.87629 0.40423 0.07782 0.0
H9 H 0.93335 0.41111 0.95299 0.0
H10 H 0.02107 0.44084 0.18339 0.0
H11 H 0.96471 0.43265 0.30991 0.0
H12 H 0.87238 0.53703 0.46295 0.0
H13 H 0.92133 0.55273 0.5984 0.0
H14 H 0.93351 0.41703 0.70732 0.0
H15 H 0.88474 0.40161 0.57437 0.0
N16 N 0.82622 0.47368 0.35552 0.0
N17 N 0.84642 0.44642 0.21121 0.0
N18 N 0.8885 0.43843 0.35902 0.0
C19 C 0.8184 0.46648 0.25761 0.0
C20 C 0.88148 0.43214 0.26145 0.0
C21 C 0.86131 0.45872 0.407 0.0
C22 C 0.78299 0.48428 0.19364 0.0
C23 C 0.74236 0.46459 0.20913 0.0
C24 C 0.71174 0.47401 0.13147 0.0
C25 C 0.7214 0.5031 0.03679 0.0
C26 C 0.76145 0.52461 0.02517 0.0
C27 C 0.79186 0.51507 0.10214 0.0
C28 C 0.91576 0.41939 0.20246 0.0
C29 C 0.90799 0.40994 0.10377 0.0
C30 C 0.94071 0.41332 0.03264 0.0
C31 C 0.98127 0.42662 0.05919 0.0
C32 C 0.98999 0.43008 0.162 0.0
C33 C 0.95747 0.4258 0.23396 0.0
C34 C 0.87463 0.46807 0.50862 0.0
C35 C 0.8837 0.51063 0.5198 0.0
C36 C 0.96865 0.82681 0.54101 0.0
C37 C 0.99642 0.84243 0.61069 0.0
C38 C 0.03557 0.82482 0.62872 0.0
C39 C 0.04873 0.79692 0.56859 0.0
H40 H 0.09285 0.66981 0.22997 0.0
H41 H 0.07372 0.6231 0.10895 0.0
H42 H 0.94735 0.66255 0.09829 0.0
H43 H 0.96661 0.70888 0.22148 0.0
H44 H 0.09067 0.80424 0.03727 0.0
H45 H 0.08659 0.86916 0.9045 0.0
H46 H 0.09768 0.94554 0.14024 0.0
H47 H 0.10134 0.88043 0.2744 0.0
H48 H 0.9613 0.79022 0.42141 0.0
H49 H 0.93819 0.83925 0.5252 0.0
H50 H 0.05728 0.83468 0.68436 0.0
H51 H 0.08064 0.78751 0.57618 0.0
N52 N 0.02996 0.73621 0.37015 0.0
N53 N 0.06979 0.76101 0.21742 0.0
N54 N 0.06615 0.80428 0.33922 0.0
C55 C 0.04553 0.7295 0.27916 0.0
C56 C 0.07996 0.79877 0.24628 0.0
C57 C 0.04179 0.77326 0.40186 0.0
C58 C 0.031 0.69229 0.23567 0.0
C59 C 0.06059 0.66699 0.20509 0.0
C60 C 0.04962 0.64046 0.13544 0.0
C61 C 1.00912 0.63967 0.09305 0.0
C62 C 0.97885 0.66297 0.12895 0.0
C63 C 0.98965 0.68888 0.20045 0.0
C64 C 0.09463 0.83695 0.16703 0.0
C65 C 0.09374 0.8348 0.06111 0.0
C66 C 0.09116 0.87206 0.98478 0.0
C67 C 0.09031 0.91208 0.01287 0.0
C68 C 0.09762 0.91494 0.11685 0.0
C69 C 0.09971 0.87755 0.19363 0.0
C70 C 0.02258 0.7851 0.49158 0.0
C71 C 0.98165 0.79824 0.48212 0.0
C72 C 0.71853 0.95303 0.49281 0.0
C73 C 0.69598 0.98421 0.52584 0.0
C74 C 0.71266 0.02712 0.50267 0.0
C75 C 0.7474 0.03916 0.43704 0.0
H76 H 0.90568 0.03665 0.20825 0.0
H77 H 0.97074 0.02994 0.11714 0.0
H78 H 0.89887 0.97615 0.88879 0.0
H79 H 0.83451 0.98407 0.97744 0.0
H80 H 0.7486 0.03638 0.90952 0.0
H81 H 0.68297 0.0307 0.81751 0.0
H82 H 0.61697 0.06658 0.06818 0.0
H83 H 0.68279 0.07316 0.1595 0.0
H84 H 0.76668 0.94114 0.3924 0.0
H85 H 0.70778 0.91946 0.5118 0.0
H86 H 0.69696 0.05225 0.52708 0.0
H87 H 0.75614 0.07306 0.41043 0.0
N88 N 0.81798 0.01313 0.24855 0.0
N89 N 0.7944 0.03589 0.07595 0.0
N90 N 0.75135 0.039 0.21537 0.0
C91 C 0.82521 0.02079 0.14339 0.0
C92 C 0.75744 0.04542 0.11183 0.0
C93 C 0.78074 0.02291 0.2841 0.0
C94 C 0.86505 0.011 0.09977 0.0
C95 C 0.90404 0.02274 0.13963 0.0
C96 C 0.9412 0.0191 0.08712 0.0
C97 C 0.94003 1.00264 0.99537 0.0
C98 C 0.90105 0.98888 0.95916 0.0
C99 C 0.86409 0.99349 0.00991 0.0
C100 C 0.72086 0.05411 0.04296 0.0
C101 C 0.72038 0.04437 0.94362 0.0
C102 C 0.68257 0.04076 0.89136 0.0
C103 C 0.64458 0.04681 0.93751 0.0
C104 C 0.64558 0.0609 0.03172 0.0
C105 C 0.68342 0.0647 0.08379 0.0
C106 C 0.76613 0.00877 0.3924 0.0
C107 C 0.75333 0.96523 0.42682 0.0
C108 C 0.54948 0.57746 0.09482 0.0
C109 C 0.5249 0.58016 0.00517 0.0
C110 C 0.50291 0.61693 0.96907 0.0
C111 C 0.50696 0.65141 0.02002 0.0
H112 H 0.56009 0.78833 0.96385 0.0
H113 H 0.56037 0.86126 0.86391 0.0
H114 H 0.52526 0.90498 0.13886 0.0
H115 H 0.52574 0.83106 0.24082 0.0
H116 H 0.49225 0.69392 0.472 0.0
H117 H 0.49158 0.63356 0.62039 0.0
H118 H 0.62209 0.6192 0.56855 0.0
H119 H 0.62228 0.67945 0.41872 0.0
H120 H 0.57247 0.6084 0.21528 0.0
H121 H 0.56718 0.54965 0.12289 0.0
H122 H 0.48451 0.61993 0.89843 0.0
H123 H 0.49059 0.67993 0.98984 0.0
N124 N 0.53592 0.72614 0.11503 0.0
N125 N 0.54918 0.74832 0.27394 0.0
N126 N 0.54519 0.67522 0.26747 0.0
C127 C 0.54206 0.75835 0.16879 0.0
C128 C 0.55105 0.70635 0.32259 0.0
C129 C 0.53734 0.68451 0.16457 0.0
C130 C 0.5427 0.80367 0.11051 0.0
C131 C 0.55242 0.81332 0.0036 0.0
C132 C 0.5528 0.85535 0.94612 0.0
C133 C 0.5428 0.88907 0.99321 0.0
C134 C 0.53303 0.87969 0.10025 0.0
C135 C 0.53343 0.83742 0.15866 0.0
C136 C 0.55739 0.69165 0.43476 0.0
C137 C 0.52141 0.67964 0.49633 0.0
C138 C 0.52083 0.6443 0.57962 0.0
C139 C 0.55646 0.62076 0.60361 0.0
C140 C 0.59404 0.63639 0.55103 0.0
C141 C 0.5944 0.67149 0.46667 0.0
C142 C 0.53226 0.64893 0.10885 0.0
C143 C 0.55271 0.61126 0.14694 0.0
C144 C 0.16118 0.56275 0.96997 0.0
C145 C 0.14613 0.52011 0.97366 0.0
C146 C 0.16349 0.48718 0.04655 0.0
C147 C 0.19185 0.49736 0.1221 0.0
H148 H 0.28562 0.59355 0.52855 0.0
H149 H 0.34062 0.57258 0.65303 0.0
H150 H 0.37881 0.48228 0.47666 0.0
H151 H 0.32187 0.50211 0.35051 0.0
H152 H 0.19415 0.61684 0.53576 0.0
H153 H 0.13894 0.60539 0.66687 0.0
H154 H 0.05378 0.55651 0.45594 0.0
H155 H 0.10813 0.56893 0.32322 0.0
H156 H 0.19759 0.60625 0.04484 0.0
H157 H 0.14851 0.58875 0.91435 0.0
H158 H 0.15217 0.45405 0.05153 0.0
H159 H 0.20102 0.47192 0.18488 0.0
N160 N 0.25246 0.54511 0.27363 0.0
N161 N 0.22878 0.57547 0.4093 0.0
N162 N 0.18505 0.57078 0.26897 0.0
C163 C 0.25961 0.55743 0.36682 0.0
C164 C 0.19152 0.58213 0.36162 0.0
C165 C 0.21505 0.55282 0.22382 0.0
C166 C 0.29851 0.54897 0.42968 0.0
C167 C 0.30558 0.5693 0.51467 0.0
C168 C 0.3372 0.55748 0.58646 0.0
C169 C 0.36347 0.52564 0.57493 0.0
C170 C 0.35874 0.50701 0.48682 0.0
C171 C 0.32628 0.51843 0.41476 0.0
C172 C 0.15594 0.59224 0.42069 0.0
C173 C 0.16308 0.60578 0.51517 0.0
C174 C 0.1314 0.59969 0.58994 0.0
C175 C 0.09258 0.57982 0.57092 0.0
C176 C 0.0836 0.57215 0.47146 0.0
C177 C 0.11495 0.579 0.39589 0.0
C178 C 0.20361 0.54047 0.12421 0.0
C179 C 0.18978 0.57276 0.04387 0.0
C180 C 0.11276 0.18562 0.07967 0.0
C181 C 0.08498 0.17021 0.00968 0.0
C182 C 0.04591 0.18801 0.99164 0.0
C183 C 0.03289 0.21597 0.05183 0.0
H184 H 0.98915 0.34342 0.38833 0.0
H185 H 1.00682 0.38795 0.51496 0.0
H186 H 0.13206 0.34514 0.53729 0.0
H187 H 0.11426 0.30098 0.40854 0.0
H188 H 0.98914 0.20825 0.58201 0.0
H189 H 0.99361 0.14334 0.71459 0.0
H190 H 0.98384 0.06714 0.47838 0.0
H191 H 0.97991 0.13224 0.34436 0.0
H192 H 0.12023 0.22206 0.19958 0.0
H193 H 0.14315 0.17302 0.09555 0.0
H194 H 0.02418 0.17829 0.93587 0.0
H195 H 1.00103 0.22556 0.0441 0.0
N196 N 0.05185 0.27623 0.25165 0.0
N197 N 1.01126 0.25137 0.40309 0.0
N198 N 1.01496 0.2085 0.28048 0.0
C199 C 0.036 0.28279 0.34255 0.0
C200 C 1.00089 0.21386 0.37333 0.0
C201 C 0.03978 0.23943 0.21887 0.0
C202 C 0.05059 0.31952 0.38778 0.0
C203 C 0.02098 0.34518 0.41679 0.0
C204 C 0.03108 0.3704 0.48985 0.0
C205 C 0.07071 0.36953 0.53723 0.0
C206 C 0.10119 0.34599 0.50288 0.0
C207 C 0.09126 0.32137 0.42809 0.0
C208 C 0.98594 0.17563 0.45201 0.0
C209 C 0.98645 0.17771 0.55799 0.0
C210 C 0.98925 0.14048 0.63423 0.0
C211 C 0.99063 0.10057 0.60593 0.0
C212 C 0.98353 0.09769 0.50188 0.0
C213 C 0.98125 0.13507 0.42518 0.0
C214 C 0.05904 0.22764 0.12906 0.0
C215 C 0.09988 0.21422 0.13869 0.0
C216 C 0.3674 0.98673 0.11005 0.0
C217 C 0.38437 0.02954 0.0873 0.0
C218 C 0.3621 0.06077 0.12101 0.0
C219 C 0.32732 0.04869 0.18712 0.0
H220 H 0.1745 0.97689 0.40754 0.0
H221 H 0.10983 0.98317 0.50066 0.0
H222 H 0.18251 0.03739 0.72702 0.0
H223 H 0.24652 0.02993 0.63629 0.0
H224 H 0.33171 0.97635 0.7041 0.0
H225 H 0.39738 0.98206 0.79583 0.0
H226 H 0.46334 0.94694 0.54406 0.0
H227 H 0.39747 0.94034 0.45298 0.0
H228 H 0.32369 0.94092 0.20198 0.0
H229 H 0.38287 0.96157 0.08513 0.0
H230 H 0.37306 0.09428 0.10241 0.0
H231 H 0.3142 0.07278 0.22197 0.0
N232 N 0.2624 1.00087 0.36521 0.0
N233 N 0.28601 0.97757 0.53759 0.0
N234 N 0.32889 0.97456 0.39781 0.0
C235 C 0.25523 0.99299 0.47047 0.0
C236 C 0.32285 0.96793 0.50139 0.0
C237 C 0.29955 0.99097 0.32931 0.0
C238 C 0.21553 1.00284 0.51476 0.0
C239 C 0.1764 0.99085 0.47609 0.0
C240 C 0.13946 0.99421 0.52981 0.0
C241 C 0.14097 0.01062 0.62168 0.0
C242 C 0.18006 0.02467 0.65666 0.0
C243 C 0.21682 0.02035 0.60466 0.0
C244 C 0.35943 0.95903 0.57009 0.0
C245 C 0.35993 0.96852 0.66968 0.0
C246 C 0.39776 0.97215 0.72179 0.0
C247 C 0.43574 0.96638 0.67522 0.0
C248 C 0.43473 0.95244 0.58081 0.0
C249 C 0.39686 0.94861 0.52889 0.0
C250 C 0.31419 1.00519 0.22098 0.0
C251 C 0.33266 0.9748 0.17577 0.0
C252 C 0.53591 0.43586 0.50997 0.0
C253 C 0.55988 0.43267 0.60069 0.0
C254 C 0.5811 0.39547 0.6378 0.0
C255 C 0.5768 0.36102 0.58683 0.0
H256 H 0.52013 0.22528 0.64312 0.0
H257 H 0.51911 0.15256 0.74504 0.0
H258 H 0.55584 0.10739 0.47342 0.0
H259 H 0.55611 0.18101 0.36959 0.0
H260 H 0.59218 0.31892 0.13609 0.0
H261 H 0.59324 0.37931 0.98774 0.0
H262 H 0.46237 0.39322 0.03612 0.0
H263 H 0.46179 0.33293 0.18593 0.0
H264 H 0.51312 0.4053 0.38869 0.0
H265 H 0.5188 0.46404 0.48116 0.0
H266 H 0.59902 0.39211 0.70926 0.0
H267 H 0.59249 0.33213 0.61787 0.0
N268 N 0.54675 0.28668 0.49208 0.0
N269 N 0.53344 0.26427 0.33345 0.0
N270 N 0.53919 0.33752 0.33861 0.0
C271 C 0.54004 0.25437 0.43887 0.0
C272 C 0.53276 0.30629 0.28398 0.0
C273 C 0.54646 0.3283 0.44177 0.0
C274 C 0.53841 0.20913 0.49804 0.0
C275 C 0.52795 0.19998 0.60455 0.0
C276 C 0.52716 0.15809 0.66316 0.0
C277 C 0.53748 0.12406 0.61762 0.0
C278 C 0.54783 0.13294 0.5109 0.0
C279 C 0.54785 0.17504 0.45136 0.0
C280 C 0.52682 0.32091 0.1716 0.0
C281 C 0.56305 0.3331 0.11099 0.0
C282 C 0.56384 0.36848 0.02772 0.0
C283 C 0.52819 0.39191 0.00274 0.0
C284 C 0.49044 0.37613 0.05438 0.0
C285 C 0.48986 0.34099 0.13872 0.0
C286 C 0.55204 0.36396 0.49701 0.0
C287 C 0.53246 0.40208 0.45782 0.0
Co288 Co 0.05709 0.02968 0.85022 0.0
C289 C 0.97843 1.00237 0.93292 0.0
Co290 Co 0.0242 0.98323 0.76835 0.0
C291 C 0.06613 0.10604 0.93282 0.0
C292 C 0.12524 0.0798 0.92463 0.0
N293 N 0.08412 0.07282 0.90659 0.0
N294 N 0.09419 0.13369 0.96664 0.0
C295 C 0.13153 0.11709 0.96178 0.0
H296 H 0.03276 0.10928 0.92856 0.0
H297 H 0.14911 0.05924 0.91113 0.0
C298 C 0.1028 0.01061 0.68526 0.0
N299 N 0.99716 0.94012 0.71218 0.0
C300 C 1.01517 0.90685 0.68646 0.0
C301 C 0.95603 0.93306 0.69432 0.0
N302 N 0.98713 0.87904 0.65318 0.0
C303 C 0.94977 0.89563 0.6578 0.0
C304 C 1.00625 0.06425 0.68111 0.0
O305 O 0.10322 0.03237 0.75634 0.0
O306 O 0.07035 0.9866 0.67481 0.0
O307 O 0.99857 0.02582 0.67061 0.0
O308 O 0.03098 0.07197 0.75239 0.0
O309 O 0.97813 0.98055 0.86202 0.0
H310 H 0.93214 0.95363 0.70764 0.0
H311 H 0.04854 0.90365 0.69075 0.0
O312 O 1.01088 0.02633 0.94366 0.0
O313 O 0.08271 0.98697 0.94814 0.0
O314 O 0.05027 0.94094 0.86611 0.0
C315 C 0.07495 0.94855 0.93757 0.0
H316 H 0.16133 0.13071 0.98351 0.0
H317 H 0.91997 0.88189 0.63635 0.0
Co318 Co 0.52171 0.01707 0.86635 0.0
C319 C 0.54225 0.93325 0.92889 0.0
Co320 Co 0.55856 0.99631 0.74601 0.0
C321 C 0.44743 0.01612 0.98896 0.0
C322 C 0.48713 0.07296 0.98672 0.0
N323 N 0.48518 0.03532 0.9553 0.0
N324 N 0.4253 0.0404 0.03891 0.0
C325 C 0.45061 0.0761 0.0383 0.0
H326 H 0.43596 0.98538 0.97373 0.0
H327 H 0.51289 0.09714 0.97038 0.0
C328 C 0.53802 0.08006 0.68302 0.0
N329 N 0.59506 0.97809 0.65717 0.0
C330 C 0.63275 0.99741 0.62362 0.0
C331 C 0.59328 0.94041 0.62593 0.0
N332 N 0.65504 0.97319 0.57396 0.0
C333 C 0.62989 0.93737 0.57458 0.0
C334 C 0.47578 0.9789 0.72085 0.0
O335 O 0.52065 0.07153 0.77242 0.0
O336 O 0.55692 0.051 0.65301 0.0
O337 O 0.51078 0.97544 0.6797 0.0
O338 O 0.47496 0.99624 0.79922 0.0
O339 O 0.55963 0.94199 0.83956 0.0
H340 H 0.56761 0.91613 0.64232 0.0
H341 H 0.64408 0.02821 0.6388 0.0
O342 O 0.52335 0.96223 0.9594 0.0
O343 O 0.56951 0.03792 0.93274 0.0
O344 O 0.60532 0.01715 0.8132 0.0
C345 C 0.60452 0.03443 0.89165 0.0
H346 H 0.44355 0.10275 0.07277 0.0
H347 H 0.63713 0.91073 0.5403 0.0
Co348 Co 0.57645 0.5073 0.82011 0.0
C349 C 0.53205 0.4344 0.93071 0.0
Co350 Co 0.50829 0.50535 0.78583 0.0
C351 C 0.65002 0.50224 0.95305 0.0
C352 C 0.66564 0.52147 0.79111 0.0
N353 N 0.63288 0.50994 0.85654 0.0
N354 N 0.69223 0.5088 0.95044 0.0
C355 C 0.70198 0.52079 0.84823 0.0
H356 H 0.63173 0.49262 0.02388 0.0
H357 H 0.66323 0.52991 0.70714 0.0
C358 C 0.55268 0.57824 0.67541 0.0
N359 N 0.45186 0.503 0.74925 0.0
C360 C 0.43453 0.51323 0.65318 0.0
C361 C 0.41909 0.4932 0.81529 0.0
N362 N 0.39232 0.51053 0.65727 0.0
C363 C 0.38256 0.49817 0.75915 0.0
C364 C 0.52866 0.54863 0.93982 0.0
O365 O 0.58441 0.56105 0.72131 0.0
O366 O 0.51692 0.55819 0.69032 0.0
O367 O 0.49754 0.53667 0.88939 0.0
O368 O 0.56493 0.53783 0.92336 0.0
O369 O 0.50033 0.45154 0.88449 0.0
H370 H 0.42166 0.48447 0.8992 0.0
H371 H 0.45249 0.52451 0.58226 0.0
O372 O 0.56784 0.45448 0.91594 0.0
O373 O 0.5872 0.47595 0.71678 0.0
O374 O 0.5198 0.47494 0.6824 0.0
C375 C 0.5561 0.46413 0.66608 0.0
H376 H 0.73327 0.52789 0.81637 0.0
H377 H 0.35117 0.49446 0.79089 0.0
Co378 Co 0.02684 0.53211 0.83825 0.0
C379 C 0.1079 0.51188 0.91409 0.0
Co380 Co 0.05068 0.47417 0.79807 0.0
C381 C 1.01823 0.5842 0.98818 0.0
C382 C 0.98164 0.60646 0.85279 0.0
N383 N 1.00781 0.57611 0.8938 0.0
N384 N 1.00014 0.61857 0.00755 0.0
C385 C 0.97685 0.63264 0.9227 0.0
H386 H 0.03911 0.5654 0.04173 0.0
H387 H 0.96766 0.60987 0.77632 0.0
C388 C 0.96977 0.4943 0.72231 0.0
N389 N 0.06973 0.43028 0.74208 0.0
C390 C 0.06038 0.42339 0.64603 0.0
C391 C 0.09511 0.39923 0.78343 0.0
N392 N 0.07846 0.38916 0.62573 0.0
C393 C 0.10055 0.37387 0.71193 0.0
C394 C 1.0077 0.452 0.9759 0.0
O395 O 0.9748 0.52646 0.76543 0.0
O396 O 0.99889 0.46892 0.72791 0.0
O397 O 0.02776 0.43467 0.91482 0.0
O398 O 1.00461 0.49234 0.95564 0.0
O399 O 0.10266 0.4796 0.8714 0.0
H400 H 0.10823 0.3949 0.86095 0.0
H401 H 0.0404 0.4431 0.59179 0.0
O402 O 0.07893 0.53749 0.90808 0.0
O403 O 0.04928 0.57155 0.72117 0.0
O404 O 0.07286 0.51406 0.68048 0.0
C405 C 0.06906 0.55429 0.65953 0.0
H406 H 0.95916 0.66093 0.91008 0.0
H407 H 0.11794 0.34539 0.72413 0.0
loop_
_geom_bond_atom_site_label_1
_geom_bond_atom_site_label_2
_geom_bond_distance
_geom_bond_site_symmetry_2
_ccdc_geom_bond_type
C0 C1 1.384 . S
C0 H13 0.947 . S
C0 C35 1.382 . S
C1 C0 1.384 . S
C1 C2 1.378 . S
C2 C1 1.378 . S
C2 C3 1.378 . S
C2 H14 0.952 . S
C3 C2 1.378 . S
C3 H15 0.950 . S
C3 C34 1.383 . S
H4 C23 0.947 . S
H5 C24 0.946 . S
H6 C26 0.953 1_556 S
H7 C27 0.945 . S
H8 C29 0.952 . S
H9 C30 0.949 . S
H10 C32 0.950 . S
H11 C33 0.948 . S
H12 C35 0.951 . S
H13 C0 0.947 . S
H14 C2 0.952 . S
H15 C3 0.950 . S
N16 C19 1.382 . S
N16 C21 1.363 . S
N17 C19 1.371 . S
N17 C20 1.372 . S
N18 C20 1.361 . S
N18 C21 1.377 . S
C19 N16 1.382 . S
C19 N17 1.371 . S
C19 C22 1.480 . S
C20 N17 1.372 . S
C20 N18 1.361 . S
C20 C28 1.457 . S
C21 N16 1.363 . S
C21 N18 1.377 . S
C21 C34 1.479 . S
C22 C19 1.480 . S
C22 C23 1.383 . S
C22 C27 1.385 . S
C23 H4 0.947 . S
C23 C22 1.383 . S
C23 C24 1.388 . S
C24 H5 0.946 . S
C24 C23 1.388 . S
C24 C25 1.384 . S
C25 C24 1.384 . S
C25 C26 1.377 . S
C26 H6 0.953 1_554 S
C26 C25 1.377 . S
C26 C27 1.369 . S
C27 H7 0.945 . S
C27 C22 1.385 . S
C27 C26 1.369 . S
C28 C20 1.457 . S
C28 C29 1.372 1_554 S
C28 C33 1.364 . S
C29 H8 0.952 . S
C29 C28 1.372 1_556 S
C29 C30 1.389 . S
C30 H9 0.949 . S
C30 C29 1.389 . S
C30 C31 1.387 . S
C31 C30 1.387 . S
C31 C32 1.372 1_556 S
C32 H10 0.950 . S
C32 C31 1.372 1_554 S
C32 C33 1.379 . S
C33 H11 0.948 . S
C33 C28 1.364 . S
C33 C32 1.379 . S
C34 C3 1.383 . S
C34 C21 1.479 . S
C34 C35 1.398 . S
C35 C0 1.382 . S
C35 H12 0.951 . S
C35 C34 1.398 . S
C36 C37 1.384 . S
C36 H49 0.947 . S
C36 C71 1.382 . S
C37 C36 1.384 . S
C37 C38 1.378 . S
C38 C37 1.378 . S
C38 C39 1.378 . S
C38 H50 0.952 . S
C39 C38 1.378 . S
C39 H51 0.950 . S
C39 C70 1.383 . S
H40 C59 0.947 . S
H41 C60 0.946 . S
H42 C62 0.953 . S
H43 C63 0.945 . S
H44 C65 0.952 . S
H45 C66 0.949 . S
H46 C68 0.950 . S
H47 C69 0.948 . S
H48 C71 0.951 . S
H49 C36 0.947 . S
H50 C38 0.952 . S
H51 C39 0.950 . S
N52 C55 1.382 . S
N52 C57 1.363 . S
N53 C55 1.371 1_556 S
N53 C56 1.372 . S
N54 C56 1.361 1_554 S
N54 C57 1.377 . S
C55 N52 1.382 . S
C55 N53 1.371 1_554 S
C55 C58 1.480 . S
C56 N53 1.372 . S
C56 N54 1.361 1_556 S
C56 C64 1.457 . S
C57 N52 1.363 . S
C57 N54 1.377 . S
C57 C70 1.479 . S
C58 C55 1.480 . S
C58 C59 1.383 . S
C58 C63 1.385 1_554 S
C59 H40 0.947 . S
C59 C58 1.383 . S
C59 C60 1.388 . S
C60 H41 0.946 . S
C60 C59 1.388 . S
C60 C61 1.381 1_554 S
C61 C60 1.381 1_556 S
C61 C62 1.378 . S
C62 H42 0.953 . S
C62 C61 1.378 . S
C62 C63 1.369 . S
C63 H43 0.945 . S
C63 C58 1.385 1_556 S
C63 C62 1.369 . S
C64 C56 1.457 . S
C64 C65 1.372 . S
C64 C69 1.364 . S
C65 H44 0.952 . S
C65 C64 1.372 . S
C65 C66 1.389 . S
C66 H45 0.949 . S
C66 C65 1.389 . S
C66 C67 1.387 . S
C67 C66 1.387 . S
C67 C68 1.372 . S
C68 H46 0.950 . S
C68 C67 1.372 . S
C68 C69 1.379 . S
C69 H47 0.948 . S
C69 C64 1.364 . S
C69 C68 1.379 . S
C70 C39 1.383 . S
C70 C57 1.479 . S
C70 C71 1.398 . S
C71 C36 1.382 . S
C71 H48 0.951 . S
C71 C70 1.398 . S
C72 C73 1.383 1_565 S
C72 H85 0.947 . S
C72 C107 1.384 1_565 S
C73 C72 1.383 1_545 S
C73 C74 1.378 . S
C74 C73 1.378 . S
C74 C75 1.378 . S
C74 H86 0.952 . S
C75 C74 1.378 . S
C75 H87 0.950 . S
C75 C106 1.383 . S
H76 C95 0.947 . S
H77 C96 0.950 . S
H78 C98 0.953 . S
H79 C99 0.945 . S
H80 C101 0.946 1_565 S
H81 C102 0.949 . S
H82 C104 0.950 . S
H83 C105 0.948 . S
H84 C107 0.950 1_565 S
H85 C72 0.947 . S
H86 C74 0.952 . S
H87 C75 0.950 . S
N88 C91 1.382 . S
N88 C93 1.363 . S
N89 C91 1.371 1_556 S
N89 C92 1.372 . S
N90 C92 1.361 1_554 S
N90 C93 1.377 . S
C91 N88 1.382 . S
C91 N89 1.371 1_554 S
C91 C94 1.480 . S
C92 N89 1.372 . S
C92 N90 1.361 1_556 S
C92 C100 1.457 . S
C93 N88 1.363 . S
C93 N90 1.377 . S
C93 C106 1.479 . S
C94 C91 1.480 . S
C94 C95 1.383 . S
C94 C99 1.385 1_554 S
C95 H76 0.947 . S
C95 C94 1.383 . S
C95 C96 1.382 1_545 S
C96 H77 0.950 . S
C96 C95 1.382 1_565 S
C96 C97 1.387 1_564 S
C97 C96 1.387 1_546 S
C97 C98 1.377 . S
C98 H78 0.953 . S
C98 C97 1.377 . S
C98 C99 1.369 . S
C99 H79 0.945 . S
C99 C94 1.385 1_556 S
C99 C98 1.369 . S
C100 C92 1.457 . S
C100 C101 1.383 . S
C100 C105 1.364 . S
C101 H80 0.946 1_545 S
C101 C100 1.383 . S
C101 C102 1.385 1_545 S
C102 H81 0.949 . S
C102 C101 1.385 1_565 S
C102 C103 1.387 1_565 S
C103 C102 1.387 1_545 S
C103 C104 1.372 . S
C104 H82 0.950 . S
C104 C103 1.372 . S
C104 C105 1.379 . S
C105 H83 0.948 . S
C105 C100 1.364 . S
C105 C104 1.379 . S
C106 C75 1.383 . S
C106 C93 1.479 . S
C106 C107 1.398 . S
C107 C72 1.384 1_545 S
C107 H84 0.950 1_545 S
C107 C106 1.398 . S
C108 C109 1.384 . S
C108 H121 0.947 1_556 S
C108 C143 1.382 1_556 S
C109 C108 1.384 . S
C109 C110 1.378 . S
C110 C109 1.378 . S
C110 C111 1.378 . S
C110 H122 0.952 . S
C111 C110 1.378 . S
C111 H123 0.950 . S
C111 C142 1.383 1_556 S
H112 C131 0.947 . S
H113 C132 0.946 . S
H114 C134 0.953 . S
H115 C135 0.945 . S
H116 C137 0.952 . S
H117 C138 0.949 . S
H118 C140 0.950 . S
H119 C141 0.948 . S
H120 C143 0.951 . S
H121 C108 0.947 1_554 S
H122 C110 0.952 . S
H123 C111 0.950 . S
N124 C127 1.382 . S
N124 C129 1.363 . S
N125 C127 1.371 . S
N125 C128 1.372 . S
N126 C128 1.361 . S
N126 C129 1.377 . S
C127 N124 1.382 . S
C127 N125 1.371 . S
C127 C130 1.480 . S
C128 N125 1.372 . S
C128 N126 1.361 . S
C128 C136 1.457 . S
C129 N124 1.363 . S
C129 N126 1.377 . S
C129 C142 1.479 . S
C130 C127 1.480 . S
C130 C131 1.383 1_554 S
C130 C135 1.385 . S
C131 H112 0.947 . S
C131 C130 1.383 1_556 S
C131 C132 1.388 . S
C132 H113 0.946 . S
C132 C131 1.388 . S
C132 C133 1.384 1_556 S
C133 C132 1.384 1_554 S
C133 C134 1.377 . S
C134 H114 0.953 . S
C134 C133 1.377 . S
C134 C135 1.369 . S
C135 H115 0.945 . S
C135 C130 1.385 . S
C135 C134 1.369 . S
C136 C128 1.457 . S
C136 C137 1.372 . S
C136 C141 1.364 . S
C137 H116 0.952 . S
C137 C136 1.372 . S
C137 C138 1.389 . S
C138 H117 0.949 . S
C138 C137 1.389 . S
C138 C139 1.387 . S
C139 C138 1.387 . S
C139 C140 1.372 . S
C140 H118 0.950 . S
C140 C139 1.372 . S
C140 C141 1.379 . S
C141 H119 0.948 . S
C141 C136 1.364 . S
C141 C140 1.379 . S
C142 C111 1.383 1_554 S
C142 C129 1.479 . S
C142 C143 1.398 . S
C143 C108 1.382 1_554 S
C143 H120 0.951 . S
C143 C142 1.398 . S
C144 C145 1.384 1_554 S
C144 H157 0.947 . S
C144 C179 1.382 . S
C145 C144 1.384 1_556 S
C145 C146 1.378 1_556 S
C146 C145 1.378 1_554 S
C146 C147 1.378 . S
C146 H158 0.952 1_554 S
C147 C146 1.378 . S
C147 H159 0.950 . S
C147 C178 1.383 . S
H148 C167 0.947 . S
H149 C168 0.946 . S
H150 C170 0.953 . S
H151 C171 0.945 . S
H152 C173 0.952 . S
H153 C174 0.949 . S
H154 C176 0.950 . S
H155 C177 0.948 . S
H156 C179 0.951 . S
H157 C144 0.947 . S
H158 C146 0.952 1_556 S
H159 C147 0.950 . S
N160 C163 1.382 . S
N160 C165 1.363 . S
N161 C163 1.371 . S
N161 C164 1.372 . S
N162 C164 1.361 . S
N162 C165 1.377 . S
C163 N160 1.382 . S
C163 N161 1.371 . S
C163 C166 1.480 . S
C164 N161 1.372 . S
C164 N162 1.361 . S
C164 C172 1.457 . S
C165 N160 1.363 . S
C165 N162 1.377 . S
C165 C178 1.479 . S
C166 C163 1.480 . S
C166 C167 1.383 . S
C166 C171 1.385 . S
C167 H148 0.947 . S
C167 C166 1.383 . S
C167 C168 1.388 . S
C168 H149 0.946 . S
C168 C167 1.388 . S
C168 C169 1.384 . S
C169 C168 1.384 . S
C169 C170 1.377 . S
C170 H150 0.953 . S
C170 C169 1.377 . S
C170 C171 1.369 . S
C171 H151 0.945 . S
C171 C166 1.385 . S
C171 C170 1.369 . S
C172 C164 1.457 . S
C172 C173 1.372 . S
C172 C177 1.364 . S
C173 H152 0.952 . S
C173 C172 1.372 . S
C173 C174 1.389 . S
C174 H153 0.949 . S
C174 C173 1.389 . S
C174 C175 1.387 . S
C175 C174 1.387 . S
C175 C176 1.372 . S
C176 H154 0.950 . S
C176 C175 1.372 . S
C176 C177 1.379 . S
C177 H155 0.948 . S
C177 C172 1.364 . S
C177 C176 1.379 . S
C178 C147 1.383 . S
C178 C165 1.479 . S
C178 C179 1.398 . S
C179 C144 1.382 . S
C179 H156 0.951 . S
C179 C178 1.398 . S
C180 C181 1.384 . S
C180 H193 0.947 . S
C180 C215 1.382 . S
C181 C180 1.384 . S
C181 C182 1.378 . S
C182 C181 1.378 . S
C182 C183 1.378 . S
C182 H194 0.952 . S
C183 C182 1.378 . S
C183 H195 0.950 . S
C183 C214 1.383 . S
H184 C203 0.947 . S
H185 C204 0.946 . S
H186 C206 0.953 . S
H187 C207 0.945 . S
H188 C209 0.952 . S
H189 C210 0.949 . S
H190 C212 0.950 . S
H191 C213 0.948 . S
H192 C215 0.951 . S
H193 C180 0.947 . S
H194 C182 0.952 . S
H195 C183 0.950 . S
N196 C199 1.382 . S
N196 C201 1.363 . S
N197 C199 1.371 . S
N197 C200 1.372 . S
N198 C200 1.361 . S
N198 C201 1.377 . S
C199 N196 1.382 . S
C199 N197 1.371 . S
C199 C202 1.480 . S
C200 N197 1.372 . S
C200 N198 1.361 . S
C200 C208 1.457 . S
C201 N196 1.363 . S
C201 N198 1.377 . S
C201 C214 1.479 . S
C202 C199 1.480 . S
C202 C203 1.383 . S
C202 C207 1.385 . S
C203 H184 0.947 . S
C203 C202 1.383 . S
C203 C204 1.388 . S
C204 H185 0.946 . S
C204 C203 1.388 . S
C204 C205 1.384 . S
C205 C204 1.384 . S
C205 C206 1.377 . S
C206 H186 0.953 . S
C206 C205 1.377 . S
C206 C207 1.369 . S
C207 H187 0.945 . S
C207 C202 1.385 . S
C207 C206 1.369 . S
C208 C200 1.457 . S
C208 C209 1.372 . S
C208 C213 1.364 . S
C209 H188 0.952 . S
C209 C208 1.372 . S
C209 C210 1.389 . S
C210 H189 0.949 . S
C210 C209 1.389 . S
C210 C211 1.387 . S
C211 C210 1.387 . S
C211 C212 1.372 . S
C212 H190 0.950 . S
C212 C211 1.372 . S
C212 C213 1.379 . S
C213 H191 0.948 . S
C213 C208 1.364 . S
C213 C212 1.379 . S
C214 C183 1.383 . S
C214 C201 1.479 . S
C214 C215 1.398 . S
C215 C180 1.382 . S
C215 H192 0.951 . S
C215 C214 1.398 . S
C216 C217 1.384 1_565 S
C216 H229 0.947 . S
C216 C251 1.380 1_565 S
C217 C216 1.384 1_545 S
C217 C218 1.378 . S
C218 C217 1.378 . S
C218 C219 1.378 . S
C218 H230 0.952 . S
C219 C218 1.378 . S
C219 H231 0.950 . S
C219 C250 1.383 . S
H220 C239 0.947 . S
H221 C240 0.952 . S
H222 C242 0.953 . S
H223 C243 0.945 . S
H224 C245 0.952 1_565 S
H225 C246 0.949 . S
H226 C248 0.950 . S
H227 C249 0.948 . S
H228 C251 0.951 1_565 S
H229 C216 0.947 . S
H230 C218 0.952 . S
H231 C219 0.950 . S
N232 C235 1.382 . S
N232 C237 1.363 . S
N233 C235 1.371 . S
N233 C236 1.372 . S
N234 C236 1.361 . S
N234 C237 1.377 . S
C235 N232 1.382 . S
C235 N233 1.371 . S
C235 C238 1.480 . S
C236 N233 1.372 . S
C236 N234 1.361 . S
C236 C244 1.457 . S
C237 N232 1.363 . S
C237 N234 1.377 . S
C237 C250 1.479 . S
C238 C235 1.480 . S
C238 C239 1.383 . S
C238 C243 1.385 . S
C239 H220 0.947 . S
C239 C238 1.383 . S
C239 C240 1.389 1_545 S
C240 H221 0.952 . S
C240 C239 1.389 1_565 S
C240 C241 1.378 1_565 S
C241 C240 1.378 1_545 S
C241 C242 1.377 . S
C242 H222 0.953 . S
C242 C241 1.377 . S
C242 C243 1.369 . S
C243 H223 0.945 . S
C243 C238 1.385 . S
C243 C242 1.369 . S
C244 C236 1.457 . S
C244 C245 1.372 . S
C244 C249 1.364 . S
C245 H224 0.952 1_545 S
C245 C244 1.372 . S
C245 C246 1.389 1_545 S
C246 H225 0.949 . S
C246 C245 1.389 1_565 S
C246 C247 1.387 1_565 S
C247 C246 1.387 1_545 S
C247 C248 1.372 . S
C248 H226 0.950 . S
C248 C247 1.372 . S
C248 C249 1.379 . S
C249 H227 0.948 . S
C249 C244 1.364 . S
C249 C248 1.379 . S
C250 C219 1.383 . S
C250 C237 1.479 . S
C250 C251 1.401 . S
C251 C216 1.380 1_545 S
C251 H228 0.951 1_545 S
C251 C250 1.401 . S
C252 C253 1.384 . S
C252 H265 0.947 . S
C252 C287 1.382 . S
C253 C252 1.384 . S
C253 C254 1.378 . S
C254 C253 1.378 . S
C254 C255 1.378 . S
C254 H266 0.952 . S
C255 C254 1.378 . S
C255 H267 0.950 . S
C255 C286 1.383 . S
H256 C275 0.947 . S
H257 C276 0.946 . S
H258 C278 0.953 . S
H259 C279 0.945 . S
H260 C281 0.952 . S
H261 C282 0.949 . S
H262 C284 0.950 . S
H263 C285 0.948 . S
H264 C287 0.951 . S
H265 C252 0.947 . S
H266 C254 0.952 . S
H267 C255 0.950 . S
N268 C271 1.382 . S
N268 C273 1.363 . S
N269 C271 1.371 . S
N269 C272 1.372 . S
N270 C272 1.361 . S
N270 C273 1.377 . S
C271 N268 1.382 . S
C271 N269 1.371 . S
C271 C274 1.480 . S
C272 N269 1.372 . S
C272 N270 1.361 . S
C272 C280 1.457 . S
C273 N268 1.363 . S
C273 N270 1.377 . S
C273 C286 1.479 . S
C274 C271 1.480 . S
C274 C275 1.383 . S
C274 C279 1.385 . S
C275 H256 0.947 . S
C275 C274 1.383 . S
C275 C276 1.388 . S
C276 H257 0.946 . S
C276 C275 1.388 . S
C276 C277 1.384 . S
C277 C276 1.384 . S
C277 C278 1.377 . S
C278 H258 0.953 . S
C278 C277 1.377 . S
C278 C279 1.369 . S
C279 H259 0.945 . S
C279 C274 1.385 . S
C279 C278 1.369 . S
C280 C272 1.457 . S
C280 C281 1.372 . S
C280 C285 1.364 . S
C281 H260 0.952 . S
C281 C280 1.372 . S
C281 C282 1.389 . S
C282 H261 0.949 . S
C282 C281 1.389 . S
C282 C283 1.387 . S
C283 C282 1.387 . S
C283 C284 1.372 . S
C284 H262 0.950 . S
C284 C283 1.372 . S
C284 C285 1.379 . S
C285 H263 0.948 . S
C285 C280 1.364 . S
C285 C284 1.379 . S
C286 C255 1.383 . S
C286 C273 1.479 . S
C286 C287 1.398 . S
C287 C252 1.382 . S
C287 H264 0.951 . S
C287 C286 1.398 . S
Co288 N293 2.057 1_556 S
Co288 O305 2.021 1_545 S
Co288 O308 2.062 . S
Co288 O312 2.117 1_455 S
Co288 O313 2.020 1_545 S
C289 O309 1.259 . S
C289 O312 1.258 . S
Co290 N299 2.057 1_455 S
Co290 O306 2.117 . S
Co290 O307 2.020 1_565 S
Co290 O309 2.021 1_465 S
Co290 O314 2.062 1_455 S
C291 N293 1.316 . S
C291 N294 1.347 . S
C291 H296 0.931 . S
C292 N293 1.375 . S
C292 C295 1.350 . S
C292 H297 0.930 1_455 S
N293 Co288 2.057 1_554 S
N293 C291 1.316 . S
N293 C292 1.375 . S
N294 C291 1.347 . S
N294 C295 1.373 . S
C295 C292 1.350 . S
C295 N294 1.373 . S
C295 H316 0.931 . S
H296 C291 0.931 . S
H297 C292 0.930 1_655 S
C298 O305 1.259 . S
C298 O306 1.258 . S
N299 Co290 2.057 1_655 S
N299 C300 1.316 . S
N299 C301 1.375 1_655 S
C300 N299 1.316 . S
C300 N302 1.347 . S
C300 H311 0.931 . S
C301 N299 1.375 1_455 S
C301 C303 1.350 . S
C301 H310 0.930 . S
N302 C300 1.347 . S
N302 C303 1.373 1_655 S
C303 C301 1.350 . S
C303 N302 1.373 1_455 S
C303 H317 0.931 . S
C304 O307 1.256 . S
C304 O308 1.255 . S
O305 Co288 2.021 1_565 S
O305 C298 1.259 . S
O306 Co290 2.117 . S
O306 C298 1.258 . S
O307 Co290 2.020 1_545 S
O307 C304 1.256 . S
O308 Co288 2.062 . S
O308 C304 1.255 . S
O309 C289 1.259 . S
O309 Co290 2.021 1_645 S
H310 C301 0.930 . S
H311 C300 0.931 . S
O312 Co288 2.117 1_655 S
O312 C289 1.258 . S
O313 Co288 2.020 1_565 S
O313 C315 1.256 1_455 S
O314 Co290 2.062 1_655 S
O314 C315 1.255 . S
C315 O313 1.256 1_655 S
C315 O314 1.255 . S
H316 C295 0.931 . S
H317 C303 0.931 . S
Co318 N323 2.057 1_546 S
Co318 O335 2.021 . S
Co318 O338 2.062 1_545 S
Co318 O342 2.117 1_545 S
Co318 O343 2.020 . S
C319 O339 1.259 . S
C319 O342 1.258 . S
Co320 N329 2.057 1_565 S
Co320 O336 2.117 1_565 S
Co320 O337 2.020 . S
Co320 O339 2.021 . S
Co320 O344 2.062 1_565 S
C321 N323 1.316 1_545 S
C321 N324 1.347 . S
C321 H326 0.931 . S
C322 N323 1.375 . S
C322 C325 1.350 . S
C322 H327 0.930 . S
N323 Co318 2.057 1_564 S
N323 C321 1.316 1_565 S
N323 C322 1.375 . S
N324 C321 1.347 . S
N324 C325 1.373 1_545 S
C325 C322 1.350 . S
C325 N324 1.373 1_565 S
C325 H346 0.931 . S
H326 C321 0.931 . S
H327 C322 0.930 . S
C328 O335 1.259 . S
C328 O336 1.258 . S
N329 Co320 2.057 1_545 S
N329 C330 1.316 1_545 S
N329 C331 1.375 . S
C330 N329 1.316 1_565 S
C330 N332 1.347 . S
C330 H341 0.931 . S
C331 N329 1.375 . S
C331 C333 1.350 . S
C331 H340 0.930 . S
N332 C330 1.347 . S
N332 C333 1.373 1_565 S
C333 C331 1.350 . S
C333 N332 1.373 1_545 S
C333 H347 0.931 . S
C334 O337 1.256 . S
C334 O338 1.255 . S
O335 Co318 2.021 . S
O335 C328 1.259 . S
O336 Co320 2.117 1_545 S
O336 C328 1.258 . S
O337 Co320 2.020 . S
O337 C334 1.256 . S
O338 Co318 2.062 1_565 S
O338 C334 1.255 . S
O339 C319 1.259 . S
O339 Co320 2.021 . S
H340 C331 0.930 . S
H341 C330 0.931 . S
O342 Co318 2.117 1_565 S
O342 C319 1.258 . S
O343 Co318 2.020 . S
O343 C345 1.256 . S
O344 Co320 2.062 1_545 S
O344 C345 1.255 . S
C345 O343 1.256 . S
C345 O344 1.255 . S
H346 C325 0.931 . S
H347 C333 0.931 . S
Co348 N353 2.057 . S
Co348 O365 2.021 . S
Co348 O368 2.062 . S
Co348 O372 2.117 . S
Co348 O373 2.020 . S
C349 O369 1.259 . S
C349 O372 1.258 . S
Co350 N359 2.057 . S
Co350 O366 2.117 . S
Co350 O367 2.020 . S
Co350 O369 2.021 . S
Co350 O374 2.062 . S
C351 N353 1.316 . S
C351 N354 1.347 . S
C351 H356 0.931 . S
C352 N353 1.375 . S
C352 C355 1.350 1_556 S
C352 H357 0.930 1_556 S
N353 Co348 2.057 . S
N353 C351 1.316 . S
N353 C352 1.375 . S
N354 C351 1.347 . S
N354 C355 1.373 1_556 S
C355 C352 1.350 1_554 S
C355 N354 1.373 1_554 S
C355 H376 0.931 . S
H356 C351 0.931 . S
H357 C352 0.930 1_554 S
C358 O365 1.259 . S
C358 O366 1.258 . S
N359 Co350 2.057 . S
N359 C360 1.316 . S
N359 C361 1.375 . S
C360 N359 1.316 . S
C360 N362 1.347 . S
C360 H371 0.931 . S
C361 N359 1.375 . S
C361 C363 1.350 . S
C361 H370 0.930 . S
N362 C360 1.347 . S
N362 C363 1.373 . S
C363 C361 1.350 . S
C363 N362 1.373 . S
C363 H377 0.931 . S
C364 O367 1.256 . S
C364 O368 1.255 . S
O365 Co348 2.021 . S
O365 C358 1.259 . S
O366 Co350 2.117 . S
O366 C358 1.258 . S
O367 Co350 2.020 . S
O367 C364 1.256 . S
O368 Co348 2.062 . S
O368 C364 1.255 . S
O369 C349 1.259 . S
O369 Co350 2.021 . S
H370 C361 0.930 . S
H371 C360 0.931 . S
O372 Co348 2.117 . S
O372 C349 1.258 . S
O373 Co348 2.020 . S
O373 C375 1.256 . S
O374 Co350 2.062 . S
O374 C375 1.255 . S
C375 O373 1.256 . S
C375 O374 1.255 . S
H376 C355 0.931 . S
H377 C363 0.931 . S
Co378 N383 2.057 . S
Co378 O395 2.021 1_455 S
Co378 O398 2.062 1_455 S
Co378 O402 2.117 . S
Co378 O403 2.020 . S
C379 O399 1.259 . S
C379 O402 1.258 . S
Co380 N389 2.057 . S
Co380 O396 2.117 1_455 S
Co380 O397 2.020 1_455 S
Co380 O399 2.021 . S
Co380 O404 2.062 . S
C381 N383 1.316 1_655 S
C381 N384 1.347 . S
C381 H386 0.931 . S
C382 N383 1.375 . S
C382 C385 1.350 . S
C382 H387 0.930 . S
N383 Co378 2.057 . S
N383 C381 1.316 1_455 S
N383 C382 1.375 . S
N384 C381 1.347 . S
N384 C385 1.373 1_655 S
C385 C382 1.350 . S
C385 N384 1.373 1_455 S
C385 H406 0.931 . S
H386 C381 0.931 . S
H387 C382 0.930 . S
C388 O395 1.259 . S
C388 O396 1.258 . S
N389 Co380 2.057 . S
N389 C390 1.316 . S
N389 C391 1.375 . S
C390 N389 1.316 . S
C390 N392 1.347 . S
C390 H401 0.931 . S
C391 N389 1.375 . S
C391 C393 1.350 . S
C391 H400 0.930 1_455 S
N392 C390 1.347 . S
N392 C393 1.373 . S
C393 C391 1.350 . S
C393 N392 1.373 . S
C393 H407 0.931 . S
C394 O397 1.256 . S
C394 O398 1.255 . S
O395 Co378 2.021 1_655 S
O395 C388 1.259 . S
O396 Co380 2.117 1_655 S
O396 C388 1.258 . S
O397 Co380 2.020 1_655 S
O397 C394 1.256 . S
O398 Co378 2.062 1_655 S
O398 C394 1.255 . S
O399 C379 1.259 . S
O399 Co380 2.021 . S
H400 C391 0.930 1_655 S
H401 C390 0.931 . S
O402 Co378 2.117 . S
O402 C379 1.258 . S
O403 Co378 2.020 . S
O403 C405 1.256 . S
O404 Co380 2.062 . S
O404 C405 1.255 . S
C405 O403 1.256 . S
C405 O404 1.255 . S
H406 C385 0.931 . S
H407 C393 0.931 . S
C241 C298 2.165 1_545 S
C328 C277 2.788 . S
N362 C169 2.293 . S
N392 C205 3.175 . S
C289 C97 2.105 . S
C133 C319 2.917 1_554 S
C25 N354 2.305 1_554 S
C61 N384 3.009 . S
C304 C211 3.820 . S
C334 C247 2.312 1_565 S
C375 C253 1.976 . S
C175 C405 0.196 . S
C67 C315 3.658 . S
C345 C103 2.278 . S
C364 C109 2.109 . S
C31 C394 0.318 . S
C181 N294 3.196 . S
C217 N324 2.894 . S
C349 C283 2.848 1_556 S
C379 C145 2.530 . S
C37 N302 3.103 . S
N332 C73 2.905 1_565 S
C358 C139 2.919 . S
C1 C388 2.592 . S
