# Generated by pormake.
# Topology zzz, (3,6)-cn, num edge types: 1
# Building blocks:
#     Node 0, Type 0, BuildingBlock: MIDCAF_clean_linker_0, # of connection points: 3
#     Node 1, Type 0, BuildingBlock: MIDCAF_clean_linker_0, # of connection points: 3
#     Node 2, Type 0, BuildingBlock: MIDCAF_clean_linker_0, # of connection points: 3
#     Node 3, Type 0, BuildingBlock: MIDCAF_clean_linker_0, # of connection points: 3
#     Node 4, Type 0, BuildingBlock: MIDCAF_clean_linker_0, # of connection points: 3
#     Node 5, Type 0, BuildingBlock: MIDCAF_clean_linker_0, # of connection points: 3
#     Node 6, Type 0, BuildingBlock: MIDCAF_clean_linker_0, # of connection points: 3
#     Node 7, Type 0, BuildingBlock: MIDCAF_clean_linker_0, # of connection points: 3
#     Node 8, Type 1, BuildingBlock: KUMBOL_clean_sbu_0, # of connection points: 6
#     Node 9, Type 1, BuildingBlock: KUMBOL_clean_sbu_0, # of connection points: 6
#     Node 10, Type 1, BuildingBlock: KUMBOL_clean_sbu_0, # of connection points: 6
#     Node 11, Type 1, BuildingBlock: KUMBOL_clean_sbu_0, # of connection points: 6
#     Edge 12, Type (0, 1), BuildingBlock: ZUJKAS_clean_linker_0, # of connection points: 2
#     Edge 13, Type (0, 1), BuildingBlock: ZUJKAS_clean_linker_0, # of connection points: 2
#     Edge 14, Type (0, 1), BuildingBlock: ZUJKAS_clean_linker_0, # of connection points: 2
#     Edge 15, Type (0, 1), BuildingBlock: ZUJKAS_clean_linker_0, # of connection points: 2
#     Edge 16, Type (0, 1), BuildingBlock: ZUJKAS_clean_linker_0, # of connection points: 2
#     Edge 17, Type (0, 1), BuildingBlock: ZUJKAS_clean_linker_0, # of connection points: 2
#     Edge 18, Type (0, 1), BuildingBlock: ZUJKAS_clean_linker_0, # of connection points: 2
#     Edge 19, Type (0, 1), BuildingBlock: ZUJKAS_clean_linker_0, # of connection points: 2
#     Edge 20, Type (0, 1), BuildingBlock: ZUJKAS_clean_linker_0, # of connection points: 2
#     Edge 21, Type (0, 1), BuildingBlock: ZUJKAS_clean_linker_0, # of connection points: 2
#     Edge 22, Type (0, 1), BuildingBlock: ZUJKAS_clean_linker_0, # of connection points: 2
#     Edge 23, Type (0, 1), BuildingBlock: ZUJKAS_clean_linker_0, # of connection points: 2
#     Edge 24, Type (0, 1), BuildingBlock: ZUJKAS_clean_linker_0, # of connection points: 2
#     Edge 25, Type (0, 1), BuildingBlock: ZUJKAS_clean_linker_0, # of connection points: 2
#     Edge 26, Type (0, 1), BuildingBlock: ZUJKAS_clean_linker_0, # of connection points: 2
#     Edge 27, Type (0, 1), BuildingBlock: ZUJKAS_clean_linker_0, # of connection points: 2
#     Edge 28, Type (0, 1), BuildingBlock: ZUJKAS_clean_linker_0, # of connection points: 2
#     Edge 29, Type (0, 1), BuildingBlock: ZUJKAS_clean_linker_0, # of connection points: 2
#     Edge 30, Type (0, 1), BuildingBlock: ZUJKAS_clean_linker_0, # of connection points: 2
#     Edge 31, Type (0, 1), BuildingBlock: ZUJKAS_clean_linker_0, # of connection points: 2
#     Edge 32, Type (0, 1), BuildingBlock: ZUJKAS_clean_linker_0, # of connection points: 2
#     Edge 33, Type (0, 1), BuildingBlock: ZUJKAS_clean_linker_0, # of connection points: 2
#     Edge 34, Type (0, 1), BuildingBlock: ZUJKAS_clean_linker_0, # of connection points: 2
#     Edge 35, Type (0, 1), BuildingBlock: ZUJKAS_clean_linker_0, # of connection points: 2
# Relax obj value: 0.275
# Max RMSD: 0.228
# Mean RMSD: 0.211
data_MOF--net-zzz--node1-KUMBOL_clean_sbu_0--node2-MIDCAF_clean_linker_0--edge1-ZUJKAS_clean_linker_0
_symmetry_space_group_name_H-M    P1
_symmetry_Int_Tables_number       1
_symmetry_cell_setting            triclinic
loop_
_symmetry_equiv_pos_as_xyz
'x, y, z'
_cell_length_a     71.14095
_cell_length_b     71.030608
_cell_length_c     24.822394
_cell_angle_alpha  90.213264
_cell_angle_beta   90.10973
_cell_angle_gamma 89.960543
loop_
_atom_site_label
_atom_site_type_symbol
_atom_site_fract_x
_atom_site_fract_y
_atom_site_fract_z
_atom_type_partial_charge
C0 C 0.79048 0.56976 0.26966 0.0
C1 C 0.79807 0.55144 0.27103 0.0
C2 C 0.79091 0.538 0.23432 0.0
C3 C 0.77771 0.54317 0.1948 0.0
H4 H 0.70824 0.55516 0.11784 0.0
H5 H 0.67794 0.54879 0.07337 0.0
H6 H 0.70318 0.56045 0.919 0.0
H7 H 0.73287 0.56698 0.96271 0.0
H8 H 0.76874 0.58945 0.95242 0.0
H9 H 0.79404 0.60158 0.89737 0.0
H10 H 0.82155 0.62334 0.04007 0.0
H11 H 0.79657 0.61027 0.09552 0.0
H12 H 0.77317 0.58953 0.22729 0.0
H13 H 0.79512 0.58041 0.298 0.0
H14 H 0.79641 0.52379 0.23362 0.0
H15 H 0.77361 0.53292 0.16454 0.0
N16 N 0.74675 0.56221 0.11903 0.0
N17 N 0.75175 0.58052 0.0415 0.0
N18 N 0.77366 0.58135 0.11145 0.0
C19 C 0.74083 0.5683 0.06951 0.0
C20 C 0.76807 0.58716 0.06211 0.0
C21 C 0.76326 0.56892 0.14009 0.0
C22 C 0.72295 0.56185 0.04407 0.0
C23 C 0.70729 0.55612 0.07439 0.0
C24 C 0.68994 0.55251 0.04888 0.0
C25 C 0.68796 0.55454 0.9926 0.0
C26 C 0.70393 0.55934 0.96246 0.0
C27 C 0.72108 0.56297 0.9877 0.0
C28 C 0.78091 0.59847 0.02845 0.0
C29 C 0.77995 0.59721 0.97201 0.0
C30 C 0.79446 0.60434 0.94027 0.0
C31 C 0.81012 0.61313 0.96426 0.0
C32 C 0.81 0.61617 0.02034 0.0
C33 C 0.79565 0.60873 0.05216 0.0
C34 C 0.77148 0.56188 0.19096 0.0
C35 C 0.77758 0.57495 0.22975 0.0
C36 C 0.98173 0.79286 0.26316 0.0
C37 C 0.99376 0.80781 0.24908 0.0
C38 C 1.00276 0.80704 0.19859 0.0
C39 C 0.99882 0.79249 0.16192 0.0
H40 H 0.00869 0.72595 0.05722 0.0
H41 H 0.01638 0.69618 0.01103 0.0
H42 H 0.95754 0.68154 0.00802 0.0
H43 H 0.94989 0.71135 0.05243 0.0
H44 H 0.93195 0.75404 0.97914 0.0
H45 H 0.91518 0.77265 0.91206 0.0
H46 H 0.93385 0.82364 0.9918 0.0
H47 H 0.94937 0.80523 0.0595 0.0
H48 H 0.96749 0.76773 0.2369 0.0
H49 H 0.97471 0.7928 0.30183 0.0
H50 H 0.0119 0.81835 0.18578 0.0
H51 H 0.0048 0.79313 0.12186 0.0
N52 N 0.98228 0.74926 0.11804 0.0
N53 N 0.9599 0.74932 0.04776 0.0
N54 N 0.96382 0.77611 0.10138 0.0
C55 C 0.9734 0.74016 0.07639 0.0
C56 C 0.95511 0.76733 0.05978 0.0
C57 C 0.97715 0.76728 0.13096 0.0
C58 C 0.97871 0.72088 0.05883 0.0
C59 C 0.9975 0.71613 0.0478 0.0
C60 C 1.00186 0.69921 0.02089 0.0
C61 C 0.98755 0.68653 0.00578 0.0
C62 C 0.96889 0.69092 0.0194 0.0
C63 C 0.96451 0.70797 0.04492 0.0
C64 C 0.94231 0.77812 0.0242 0.0
C65 C 0.93205 0.76924 0.98285 0.0
C66 C 0.92251 0.77994 0.94419 0.0
C67 C 0.9233 0.79977 0.94552 0.0
C68 C 0.93251 0.80849 0.98922 0.0
C69 C 0.94171 0.79784 0.02817 0.0
C70 C 0.98601 0.77821 0.17498 0.0
C71 C 0.97785 0.77827 0.22642 0.0
C72 C 0.70396 0.95254 0.23808 0.0
C73 C 0.70459 0.97109 0.25778 0.0
C74 C 0.71877 0.98315 0.23806 0.0
C75 C 0.7316 0.97687 0.1986 0.0
H76 H 0.78383 0.98688 0.06804 0.0
H77 H 0.81408 0.99523 0.02633 0.0
H78 H 0.82718 0.93619 0.0081 0.0
H79 H 0.7972 0.92803 0.04893 0.0
H80 H 0.75434 0.92095 0.95231 0.0
H81 H 0.73519 0.90714 0.88084 0.0
H82 H 0.68783 0.90487 0.98937 0.0
H83 H 0.70693 0.91811 0.06074 0.0
H84 H 0.71514 0.9321 0.18376 0.0
H85 H 0.69318 0.94286 0.25141 0.0
H86 H 0.7198 0.9975 0.2526 0.0
H87 H 0.74194 0.98659 0.18299 0.0
N88 N 0.75927 0.95826 0.11938 0.0
N89 N 0.76003 0.93876 0.04224 0.0
N90 N 0.73319 0.93956 0.09591 0.0
C91 C 0.76871 0.95127 0.07555 0.0
C92 C 0.74225 0.93294 0.05184 0.0
C93 C 0.74143 0.95206 0.13008 0.0
C94 C 0.78824 0.95682 0.06202 0.0
C95 C 0.79347 0.97578 0.05648 0.0
C96 C 0.81067 0.98052 0.03202 0.0
C97 C 0.82306 0.96637 0.01362 0.0
C98 C 0.81815 0.94746 0.02217 0.0
C99 C 0.80093 0.94277 0.04557 0.0
C100 C 0.73206 0.92111 0.01199 0.0
C101 C 0.73998 0.91705 0.96134 0.0
C102 C 0.72899 0.90916 0.92027 0.0
C103 C 0.70988 0.90514 0.929 0.0
C104 C 0.70251 0.90762 0.98108 0.0
C105 C 0.71346 0.91547 0.02206 0.0
C106 C 0.7303 0.9585 0.17756 0.0
C107 C 0.71655 0.94638 0.19872 0.0
C108 C 0.61034 0.69505 0.03009 0.0
C109 C 0.61578 0.69901 0.97689 0.0
C110 C 0.61518 0.71782 0.95924 0.0
C111 C 0.60787 0.73201 0.99244 0.0
H112 H 0.5925 0.78732 0.99571 0.0
H113 H 0.586 0.81716 0.95263 0.0
H114 H 0.54151 0.82798 0.06671 0.0
H115 H 0.54786 0.79768 0.11 0.0
H116 H 0.53325 0.74029 0.16349 0.0
H117 H 0.52008 0.7202 0.23444 0.0
H118 H 0.57393 0.71948 0.31467 0.0
H119 H 0.58713 0.73903 0.24302 0.0
H120 H 0.59826 0.70535 0.10305 0.0
H121 H 0.61039 0.68076 0.04512 0.0
H122 H 0.61959 0.72144 0.91885 0.0
H123 H 0.60676 0.74614 0.97652 0.0
N124 N 0.5863 0.75901 0.05512 0.0
N125 N 0.5662 0.76567 0.12795 0.0
N126 N 0.5821 0.73668 0.12287 0.0
C127 C 0.57453 0.77116 0.08097 0.0
C128 C 0.57024 0.74845 0.14924 0.0
C129 C 0.59012 0.74174 0.07564 0.0
C130 C 0.57068 0.78993 0.05649 0.0
C131 C 0.58133 0.79598 0.01201 0.0
C132 C 0.5777 0.81326 0.98738 0.0
C133 C 0.56329 0.82508 0.00624 0.0
C134 C 0.55265 0.81916 0.05089 0.0
C135 C 0.55636 0.80183 0.0759 0.0
C136 C 0.56109 0.74141 0.19844 0.0
C137 C 0.54202 0.73639 0.19739 0.0
C138 C 0.53457 0.72476 0.2376 0.0
C139 C 0.54601 0.71826 0.27996 0.0
C140 C 0.56475 0.72442 0.28285 0.0
C141 C 0.57228 0.73565 0.24204 0.0
C142 C 0.60107 0.72771 0.04412 0.0
C143 C 0.60315 0.70922 0.06331 0.0
C144 C 0.22989 0.4607 0.89041 0.0
C145 C 0.2235 0.47944 0.89109 0.0
C146 C 0.23185 0.49213 0.92786 0.0
C147 C 0.2454 0.4859 0.96515 0.0
H148 H 0.30531 0.48884 0.06319 0.0
H149 H 0.3352 0.49719 0.10716 0.0
H150 H 0.3346 0.44423 0.19203 0.0
H151 H 0.30537 0.43589 0.14831 0.0
H152 H 0.25666 0.43489 0.1989 0.0
H153 H 0.23137 0.4226 0.25422 0.0
H154 H 0.20297 0.40244 0.11109 0.0
H155 H 0.2279 0.4156 0.05563 0.0
H156 H 0.2467 0.43964 0.92898 0.0
H157 H 0.22369 0.45046 0.86327 0.0
H158 H 0.22737 0.5067 0.92922 0.0
H159 H 0.25064 0.49564 0.9953 0.0
N160 N 0.27682 0.46456 0.0342 0.0
N161 N 0.27344 0.44399 0.1078 0.0
N162 N 0.24972 0.4458 0.04301 0.0
C163 C 0.28394 0.45674 0.08033 0.0
C164 C 0.25639 0.43846 0.08947 0.0
C165 C 0.25967 0.45881 0.01522 0.0
C166 C 0.30281 0.46176 0.10235 0.0
C167 C 0.31174 0.47893 0.09071 0.0
C168 C 0.32879 0.48375 0.1162 0.0
C169 C 0.33737 0.47137 0.15319 0.0
C170 C 0.32864 0.45403 0.16335 0.0
C171 C 0.31167 0.44933 0.13847 0.0
C172 C 0.24399 0.42663 0.1229 0.0
C173 C 0.24528 0.42737 0.17934 0.0
C174 C 0.23078 0.4202 0.21115 0.0
C175 C 0.21487 0.41193 0.18705 0.0
C176 C 0.21475 0.40924 0.13086 0.0
C177 C 0.22906 0.41671 0.09906 0.0
C178 C 0.25067 0.46685 0.96668 0.0
C179 C 0.24316 0.45448 0.92799 0.0
C180 C 0.04983 0.21647 0.91491 0.0
C181 C 0.03078 0.21279 0.90383 0.0
C182 C 0.01711 0.22338 0.93203 0.0
C183 C 0.02239 0.23637 0.97239 0.0
H184 H 0.03203 0.30331 0.05612 0.0
H185 H 0.02476 0.33367 0.09974 0.0
H186 H 0.0348 0.30867 0.25544 0.0
H187 H 0.04215 0.27892 0.21259 0.0
H188 H 0.07556 0.25052 0.22177 0.0
H189 H 0.09019 0.22783 0.28203 0.0
H190 H 0.0989 0.18985 0.1482 0.0
H191 H 0.08413 0.21237 0.08778 0.0
H192 H 0.06985 0.23086 0.96435 0.0
H193 H 0.06085 0.20858 0.89501 0.0
H194 H 1.0023 0.22118 0.92421 0.0
H195 H 0.01157 0.24339 0.99564 0.0
N196 N 0.03976 0.2643 0.05677 0.0
N197 N 0.05823 0.261 0.13515 0.0
N198 N 0.06031 0.23853 0.06689 0.0
C199 C 0.04541 0.27097 0.10619 0.0
C200 C 0.0658 0.24485 0.11587 0.0
C201 C 0.04741 0.24794 0.03702 0.0
C202 C 0.03796 0.2887 0.13066 0.0
C203 C 0.03237 0.30429 0.09966 0.0
C204 C 0.02825 0.32169 0.12471 0.0
C205 C 0.02963 0.32379 0.18119 0.0
C206 C 0.03414 0.30784 0.21189 0.0
C207 C 0.03826 0.29066 0.18713 0.0
C208 C 0.07819 0.23308 0.15011 0.0
C209 C 0.08099 0.23754 0.20482 0.0
C210 C 0.08954 0.22459 0.23938 0.0
C211 C 0.09545 0.20696 0.21991 0.0
C212 C 0.09422 0.20323 0.16441 0.0
C213 C 0.0857 0.21616 0.12986 0.0
C214 C 0.04144 0.23895 0.98553 0.0
C215 C 0.05504 0.2293 0.95501 0.0
C216 C 0.29849 0.02196 0.92621 0.0
C217 C 0.30088 0.03135 0.87676 0.0
C218 C 0.28772 0.04536 0.86274 0.0
C219 C 0.27381 0.05108 0.89929 0.0
H220 H 0.21879 0.02852 0.0604 0.0
H221 H 0.18961 0.02348 0.11133 0.0
H222 H 0.19223 0.08072 0.16991 0.0
H223 H 0.22092 0.08574 0.11951 0.0
H224 H 0.26869 0.0905 0.16392 0.0
H225 H 0.29512 0.10337 0.21442 0.0
H226 H 0.32784 0.10595 0.06828 0.0
H227 H 0.30155 0.0928 0.0178 0.0
H228 H 0.28421 0.0214 1.00234 0.0
H229 H 0.30837 0.01126 0.93892 0.0
H230 H 0.28881 0.05267 0.82469 0.0
H231 H 0.26509 0.06309 0.88937 0.0
N232 N 0.24707 0.05013 0.01694 0.0
N233 N 0.25247 0.07405 0.08126 0.0
N234 N 0.27533 0.06732 0.01676 0.0
C235 C 0.24096 0.06062 0.05999 0.0
C236 C 0.26963 0.0775 0.05984 0.0
C237 C 0.26431 0.05376 0.99499 0.0
C238 C 0.22231 0.0575 0.08591 0.0
C239 C 0.21297 0.04006 0.0836 0.0
C240 C 0.19633 0.03714 0.11314 0.0
C241 C 0.18853 0.0517 0.14484 0.0
C242 C 0.19763 0.06924 0.1456 0.0
C243 C 0.21424 0.07207 0.11683 0.0
C244 C 0.28322 0.0901 0.08716 0.0
C245 C 0.28128 0.09438 0.1422 0.0
C246 C 0.29643 0.10187 0.17115 0.0
C247 C 0.31369 0.10529 0.14544 0.0
C248 C 0.31483 0.10308 0.08931 0.0
C249 C 0.29976 0.09553 0.06045 0.0
C250 C 0.27249 0.04273 0.9503 0.0
C251 C 0.28449 0.02764 0.96257 0.0
C252 C 0.38956 0.31828 0.13807 0.0
C253 C 0.3922 0.32013 0.19404 0.0
C254 C 0.4005 0.30509 0.22223 0.0
C255 C 0.40769 0.28952 0.19451 0.0
H256 H 0.42766 0.23626 0.20726 0.0
H257 H 0.43682 0.20813 0.25455 0.0
H258 H 0.47253 0.19196 0.12174 0.0
H259 H 0.463 0.22044 0.0729 0.0
H260 H 0.47631 0.27279 0.00715 0.0
H261 H 0.48911 0.29348 0.93714 0.0
H262 H 0.43274 0.30517 0.88152 0.0
H263 H 0.42019 0.28462 0.95072 0.0
H264 H 0.39596 0.30253 0.06674 0.0
H265 H 0.38275 0.32932 0.11521 0.0
H266 H 0.40292 0.30596 0.26524 0.0
H267 H 0.41521 0.27888 0.21711 0.0
N268 N 0.42528 0.25942 0.13194 0.0
N269 N 0.44556 0.25358 0.05894 0.0
N270 N 0.42583 0.28018 0.0594 0.0
C271 C 0.43831 0.24825 0.10763 0.0
C272 C 0.43909 0.26955 0.03453 0.0
C273 C 0.41893 0.27533 0.10812 0.0
C274 C 0.4446 0.23082 0.13593 0.0
C275 C 0.43751 0.22686 0.18763 0.0
C276 C 0.44289 0.21067 0.21526 0.0
C277 C 0.45559 0.19781 0.19239 0.0
C278 C 0.46266 0.20155 0.14049 0.0
C279 C 0.45727 0.21793 0.11261 0.0
C280 C 0.44727 0.27706 0.9842 0.0
C281 C 0.46678 0.27923 0.97852 0.0
C282 C 0.47407 0.29129 0.93892 0.0
C283 C 0.46195 0.30119 0.90397 0.0
C284 C 0.44254 0.29773 0.90723 0.0
C285 C 0.43531 0.28592 0.94698 0.0
C286 C 0.40699 0.28882 0.138 0.0
C287 C 0.39705 0.30289 0.11027 0.0
Gd288 Gd 0.98691 0.01855 0.5267 0.0
Gd289 Gd 0.0227 1.00458 0.62639 0.0
C290 C 0.04355 0.04408 0.76082 0.0
C291 C 0.07667 0.04715 0.73913 0.0
C292 C 0.05623 0.02758 0.68366 0.0
C293 C 0.04107 0.03217 0.71564 0.0
C294 C 0.0743 0.0347 0.69561 0.0
C295 C 0.06133 0.05179 0.77177 0.0
C296 C 0.02823 0.04752 0.79453 0.0
C297 C 0.01107 0.03895 0.78344 0.0
N298 N 0.02412 0.02428 0.70418 0.0
C299 C 0.0093 0.02719 0.73848 0.0
H300 H 0.99572 0.02105 0.7315 0.0
C301 C 0.06853 0.00867 0.61367 0.0
N302 N 0.05353 0.01533 0.64251 0.0
C303 C 0.08667 0.01536 0.62381 0.0
C304 C 0.08954 0.02864 0.66453 0.0
H305 H 0.06636 0.99851 0.58171 0.0
H306 H 0.06344 0.06105 0.80603 0.0
H307 H 0.01387 1.00262 0.42072 0.0
H308 H 0.02957 0.05654 0.82964 0.0
H309 H 0.99914 0.0414 0.80954 0.0
H310 H 0.0904 0.05287 0.7487 0.0
H311 H 0.9425 0.02608 0.56318 0.0
H312 H 0.98169 0.96359 0.32911 0.0
H313 H 0.01127 0.98089 0.34547 0.0
H314 H 0.92098 0.96586 0.41058 0.0
H315 H 0.0984 0.01032 0.60007 0.0
H316 H 0.10362 0.03378 0.67246 0.0
H317 H 0.94835 0.95744 0.35509 0.0
H318 H 0.91091 0.01276 0.54698 0.0
N319 N 0.98592 0.99815 0.44998 0.0
C320 C 0.98272 0.97321 0.36296 0.0
C321 C 0.99936 0.98304 0.37186 0.0
C322 C 0.9674 0.97636 0.39679 0.0
C323 C 0.96938 0.98923 0.44 0.0
C324 C 1.00067 0.99562 0.41517 0.0
N325 N 0.95624 0.00727 0.5093 0.0
C326 C 0.95406 0.99387 0.47099 0.0
C327 C 0.92293 0.00717 0.52557 0.0
C328 C 0.92068 0.99247 0.48876 0.0
C329 C 0.94084 0.01466 0.53462 0.0
C330 C 0.93627 0.98592 0.45998 0.0
H331 H 0.90679 0.98674 0.4815 0.0
O332 O 0.96822 0.04151 0.50521 0.0
O333 O 0.00556 0.02778 0.59363 0.0
O334 O 0.99355 1.00035 0.66158 0.0
O335 O 0.97132 1.00275 0.59238 0.0
O336 O 0.97832 0.03745 0.59624 0.0
O337 O 0.99612 0.04063 0.47213 0.0
O338 O 0.0412 0.98099 0.64243 0.0
O339 O 1.00394 0.99494 0.55942 0.0
O340 O 0.01642 0.0223 0.49304 0.0
O341 O 0.03723 0.02352 0.56575 0.0
O342 O 0.03182 0.98678 0.55593 0.0
O343 O 0.01457 0.9829 0.68351 0.0
C344 C 0.99456 0.03851 0.61908 0.0
C345 C 0.93446 0.9723 0.41919 0.0
C346 C 0.95003 0.96753 0.38759 0.0
C347 C 0.98155 0.05111 0.48267 0.0
C348 C 0.98527 0.06996 0.50622 0.0
C349 C 0.97156 0.07893 0.53814 0.0
C350 C 1.00307 0.07837 0.50113 0.0
C351 C 0.0072 0.09536 0.52784 0.0
C352 C 0.9757 0.09566 0.56527 0.0
C353 C 0.9934 0.10385 0.56028 0.0
C354 C 0.97616 0.99879 0.64276 0.0
C355 C 0.01556 0.98485 0.53372 0.0
C356 C 0.02843 0.97195 0.66934 0.0
C357 C 0.02344 0.95301 0.64844 0.0
C358 C 0.03557 0.9436 0.61259 0.0
C359 C 0.006 0.94477 0.66096 0.0
C360 C 1.00066 0.92744 0.63782 0.0
C361 C 0.03026 0.92657 0.58903 0.0
C362 C 0.01296 0.91852 0.60146 0.0
C363 C 0.03317 0.0261 0.5141 0.0
H364 H 0.95774 0.0728 0.5432 0.0
H365 H 0.01368 0.07179 0.47603 0.0
H366 H 0.96516 0.10227 0.5904 0.0
H367 H 0.99632 0.11685 0.58165 0.0
H368 H 0.04907 0.94954 0.6019 0.0
H369 H 0.99649 0.95193 0.68824 0.0
H370 H 0.03964 0.91954 0.56117 0.0
H371 H 0.00949 0.905 0.58377 0.0
Gd372 Gd 0.50655 0.99396 0.5514 0.0
Gd373 Gd 0.51655 0.03118 0.65083 0.0
C374 C 0.47361 0.05871 0.7626 0.0
C375 C 0.47281 0.09085 0.7295 0.0
C376 C 0.49301 0.06753 0.68685 0.0
C377 C 0.48657 0.05392 0.72185 0.0
C378 C 0.48645 0.08624 0.69082 0.0
C379 C 0.46646 0.07712 0.7655 0.0
C380 C 0.46873 0.04504 0.80043 0.0
C381 C 0.47654 0.02708 0.79677 0.0
N382 N 0.4938 0.03626 0.71811 0.0
C383 C 0.48926 0.02297 0.75553 0.0
H384 H 0.49527 0.00907 0.75376 0.0
C385 C 0.51488 0.07616 0.61975 0.0
N386 N 0.50646 0.06271 0.65076 0.0
C387 C 0.50875 0.09486 0.62188 0.0
C388 C 0.49429 0.09988 0.65708 0.0
H389 H 0.52604 0.07235 0.59235 0.0
H390 H 0.45633 0.08098 0.79617 0.0
H391 H 0.52467 0.01712 0.44401 0.0
H392 H 0.45927 0.04835 0.83327 0.0
H393 H 0.47291 0.01643 0.82604 0.0
H394 H 0.4675 0.1051 0.73294 0.0
H395 H 0.49925 0.95174 0.60599 0.0
H396 H 0.56526 0.98166 0.36832 0.0
H397 H 0.54817 0.01192 0.37359 0.0
H398 H 0.5604 0.92382 0.46589 0.0
H399 H 0.51516 0.10537 0.59635 0.0
H400 H 0.48962 0.11439 0.65887 0.0
H401 H 0.56999 0.94894 0.40367 0.0
H402 H 0.51267 0.91965 0.60187 0.0
N403 N 0.52832 0.99015 0.48021 0.0
C404 C 0.55485 0.98382 0.39953 0.0
C405 C 0.5452 1.00089 0.40232 0.0
C406 C 0.55061 0.96959 0.43629 0.0
C407 C 0.53697 0.97316 0.47626 0.0
C408 C 0.53178 1.00376 0.44268 0.0
N409 N 0.51788 0.96283 0.54719 0.0
C410 C 0.53163 0.95907 0.51108 0.0
C411 C 0.51817 0.93062 0.57618 0.0
C412 C 0.53299 0.92676 0.541 0.0
C413 C 0.51057 0.94876 0.57825 0.0
C414 C 0.53971 0.94098 0.50725 0.0
H415 H 0.53885 0.91268 0.53939 0.0
O416 O 0.48243 0.9765 0.53255 0.0
O417 O 0.49468 0.0129 0.61441 0.0
O418 O 0.51871 1.00184 0.6879 0.0
O419 O 0.52518 0.98165 0.61603 0.0
O420 O 0.48574 0.98539 0.61575 0.0
O421 O 0.4895 0.99994 0.4808 0.0
O422 O 0.54056 0.04836 0.67241 0.0
O423 O 0.52821 0.01199 0.58877 0.0
O424 O 0.5041 0.02349 0.51551 0.0
O425 O 0.49744 0.04352 0.58749 0.0
O426 O 0.53884 0.03883 0.58907 0.0
O427 O 0.53113 0.02627 0.72634 0.0
C428 C 0.48356 1.00172 0.63758 0.0
C429 C 0.55387 0.93757 0.4691 0.0
C430 C 0.55932 0.95186 0.43367 0.0
C431 C 0.4765 0.98806 0.49555 0.0
C432 C 0.45742 0.99594 0.50342 0.0
C433 C 0.44539 0.98852 0.54302 0.0
C434 C 0.45172 0.01202 0.47478 0.0
C435 C 0.43457 0.02093 0.48659 0.0
C436 C 0.42837 0.99735 0.5549 0.0
C437 C 0.42302 0.01353 0.52721 0.0
C438 C 0.52473 0.9855 0.66825 0.0
C439 C 0.54002 0.02257 0.56645 0.0
C440 C 0.54409 0.03874 0.7158 0.0
C441 C 0.56375 0.033 0.72281 0.0
C442 C 0.57685 0.0466 0.73906 0.0
C443 C 0.56974 0.01446 0.71225 0.0
C444 C 0.58874 0.00944 0.71915 0.0
C445 C 0.59571 0.0418 0.7453 0.0
C446 C 0.60163 0.02337 0.73575 0.0
C447 C 0.49737 0.03954 0.53532 0.0
H448 H 0.44929 0.97616 0.56585 0.0
H449 H 0.46083 0.0179 0.44419 0.0
H450 H 0.41935 0.99168 0.5859 0.0
H451 H 0.40964 0.02003 0.53676 0.0
H452 H 0.57247 0.06096 0.7469 0.0
H453 H 0.55967 1.00404 0.69873 0.0
H454 H 0.60575 0.05234 0.75821 0.0
H455 H 0.61627 0.01997 0.74283 0.0
Gd456 Gd 0.48583 0.51876 0.64149 0.0
Gd457 Gd 0.52504 0.50369 0.55678 0.0
C458 C 0.58653 0.49968 0.61145 0.0
C459 C 0.6018 0.52151 0.55058 0.0
C460 C 0.56797 0.51658 0.54554 0.0
C461 C 0.56893 0.50392 0.58786 0.0
C462 C 0.58445 0.52528 0.52598 0.0
C463 C 0.60285 0.50867 0.593 0.0
C464 C 0.58735 0.48631 0.65246 0.0
C465 C 0.57092 0.47765 0.66953 0.0
N466 N 0.55286 0.49535 0.60485 0.0
C467 C 0.55382 0.48224 0.64523 0.0
H468 H 0.54159 0.47551 0.66125 0.0
C469 C 0.54994 0.53039 0.47597 0.0
N470 N 0.55113 0.51971 0.52165 0.0
C471 C 0.56581 0.53944 0.45556 0.0
C472 C 0.58312 0.53706 0.48107 0.0
H473 H 0.53661 0.53218 0.45571 0.0
H474 H 0.61642 0.50563 0.61091 0.0
H475 H 0.46278 0.54292 0.54668 0.0
H476 H 0.60059 0.48261 0.6713 0.0
H477 H 0.57138 0.46743 0.70176 0.0
H478 H 0.61457 0.52813 0.53627 0.0
H479 H 0.48239 0.49082 0.7501 0.0
H480 H 0.4057 0.52397 0.54344 0.0
H481 H 0.43072 0.54485 0.50886 0.0
H482 H 0.40358 0.47812 0.68396 0.0
H483 H 0.56469 0.54818 0.42008 0.0
H484 H 0.59545 0.54398 0.46497 0.0
H485 H 0.39593 0.49843 0.60687 0.0
H486 H 0.45873 0.47056 0.79339 0.0
N487 N 0.45622 0.52046 0.59986 0.0
C488 C 0.41985 0.52278 0.55925 0.0
C489 C 0.4339 0.53466 0.53989 0.0
C490 C 0.42404 0.50994 0.60014 0.0
C491 C 0.44254 0.50934 0.6206 0.0
C492 C 0.45205 0.53346 0.56121 0.0
N493 N 0.46435 0.49894 0.68565 0.0
C494 C 0.44673 0.49819 0.66467 0.0
C495 C 0.45519 0.47822 0.75715 0.0
C496 C 0.43723 0.47666 0.73476 0.0
C497 C 0.46856 0.48973 0.73248 0.0
C498 C 0.4327 0.48695 0.68852 0.0
H499 H 0.42687 0.46782 0.75413 0.0
O500 O 0.48575 0.5319 0.72065 0.0
O501 O 0.51692 0.51726 0.63328 0.0
O502 O 0.51534 0.48019 0.61246 0.0
O503 O 0.48405 0.48725 0.63135 0.0
O504 O 0.50629 0.5109 0.70795 0.0
O505 O 0.47189 0.54555 0.65327 0.0
O506 O 0.53842 0.49177 0.4857 0.0
O507 O 0.49413 0.50771 0.5609 0.0
O508 O 0.49545 0.54332 0.58969 0.0
O509 O 0.52569 0.53567 0.56049 0.0
O510 O 0.50719 0.51708 0.49197 0.0
O511 O 0.51527 0.4772 0.52238 0.0
C512 C 0.52151 0.51277 0.68054 0.0
C513 C 0.41452 0.48675 0.66643 0.0
C514 C 0.41017 0.4983 0.62249 0.0
C515 C 0.4773 0.54702 0.70318 0.0
C516 C 0.48556 0.56521 0.71789 0.0
C517 C 0.47346 0.58025 0.72937 0.0
C518 C 0.50514 0.56803 0.71834 0.0
C519 C 0.51258 0.58586 0.7311 0.0
C520 C 0.48073 0.59794 0.74168 0.0
C521 C 0.50011 0.60075 0.74279 0.0
C522 C 0.49829 0.47528 0.62911 0.0
C523 C 0.49111 0.51453 0.51467 0.0
C524 C 0.52547 0.47906 0.47933 0.0
C525 C 0.5151 0.47917 0.42753 0.0
C526 C 0.51956 0.49227 0.38716 0.0
C527 C 0.49938 0.46743 0.42048 0.0
C528 C 0.48775 0.46914 0.37473 0.0
C529 C 0.50823 0.49395 0.34158 0.0
C530 C 0.49235 0.48264 0.33553 0.0
C531 C 0.51199 0.54802 0.56916 0.0
H532 H 0.45835 0.5783 0.7286 0.0
H533 H 0.51447 0.55645 0.70849 0.0
H534 H 0.47131 0.60949 0.75082 0.0
H535 H 0.50532 0.61454 0.75407 0.0
H536 H 0.53152 0.50159 0.3913 0.0
H537 H 0.49617 0.45709 0.45108 0.0
H538 H 0.51159 0.50429 0.31118 0.0
H539 H 0.48359 0.48468 0.30034 0.0
Gd540 Gd 1.00028 0.48616 0.62344 0.0
Gd541 Gd 0.01591 0.52742 0.54622 0.0
C542 C 0.01479 0.5876 0.614 0.0
C543 C 0.99076 0.60219 0.55849 0.0
C544 C 0.99967 0.5695 0.54336 0.0
C545 C 0.01245 0.57048 0.58544 0.0
C546 C 0.9891 0.5855 0.52846 0.0
C547 C 1.00356 0.60322 0.60124 0.0
C548 C 0.02864 0.5887 0.6538 0.0
C549 C 0.04021 0.57325 0.66304 0.0
N550 N 0.02314 0.55508 0.59689 0.0
C551 C 0.03748 0.55663 0.63372 0.0
H552 H 0.04687 0.54522 0.64254 0.0
C553 C 0.98795 0.55247 0.46844 0.0
N554 N 0.99835 0.55324 0.5149 0.0
C555 C 0.97729 0.56797 0.45203 0.0
C556 C 0.97759 0.58445 0.48273 0.0
H557 H 0.98752 0.53968 0.4448 0.0
H558 H 0.00503 0.61634 0.62326 0.0
H559 H 0.96888 0.46913 0.52949 0.0
H560 H 0.03079 0.60153 0.67676 0.0
H561 H 0.05124 0.57408 0.69304 0.0
H562 H 0.98258 0.61453 0.54807 0.0
H563 H 0.02614 0.47057 0.72649 0.0
H564 H 0.98652 0.41447 0.48117 0.0
H565 H 0.96454 0.44126 0.4738 0.0
H566 H 0.03687 0.40044 0.60202 0.0
H567 H 0.96875 0.56712 0.41597 0.0
H568 H 0.9693 0.59644 0.47 0.0
H569 H 0.01405 0.39971 0.52748 0.0
H570 H 0.04666 0.44351 0.74859 0.0
N571 N 0.99382 0.4593 0.56849 0.0
C572 C 0.98863 0.42687 0.50598 0.0
C573 C 0.97618 0.44192 0.5019 0.0
C574 C 1.00319 0.42769 0.54367 0.0
C575 C 0.00526 0.44415 0.57531 0.0
C576 C 0.97882 0.45794 0.53399 0.0
N577 N 0.0182 0.45973 0.64987 0.0
C578 C 0.01804 0.44449 0.61705 0.0
C579 C 0.0389 0.44367 0.71106 0.0
C580 C 0.04014 0.42852 0.6753 0.0
C581 C 0.02741 0.459 0.69829 0.0
C582 C 0.02917 0.42852 0.62845 0.0
H583 H 0.04887 0.41654 0.68548 0.0
O584 O 0.98955 0.47161 0.69389 0.0
O585 O 1.00354 0.5173 0.62269 0.0
O586 O 0.03997 0.51811 0.59946 0.0
O587 O 0.03215 0.48829 0.63225 0.0
O588 O 0.01018 0.50402 0.69404 0.0
O589 O 0.97167 0.49083 0.65119 0.0
O590 O 0.02651 0.54123 0.47449 0.0
O591 O 0.01272 0.4961 0.54638 0.0
O592 O 0.97644 0.49698 0.57031 0.0
O593 O 0.98406 0.52819 0.55177 0.0
O594 O 1.00396 0.50996 0.47776 0.0
O595 O 0.04381 0.52095 0.51565 0.0
C596 C 0.00857 0.52015 0.67086 0.0
C597 C 0.02823 0.41271 0.59445 0.0
C598 C 0.01522 0.41229 0.55211 0.0
C599 C 0.9744 0.48177 0.6959 0.0
C600 C 0.9712 0.49256 0.74617 0.0
C601 C 0.98203 0.48894 0.79247 0.0
C602 C 0.95856 0.50779 0.74653 0.0
C603 C 0.9572 0.51973 0.79168 0.0
C604 C 0.98071 0.50069 0.83741 0.0
C605 C 0.96856 0.51609 0.83694 0.0
C606 C 0.04425 0.50224 0.62449 0.0
C607 C 0.00652 0.49366 0.4991 0.0
C608 C 0.04105 0.5302 0.4712 0.0
C609 C 0.0432 0.51928 0.42075 0.0
C610 C 0.03037 0.52147 0.378 0.0
C611 C 0.05714 0.5053 0.41704 0.0
C612 C 0.05802 0.49325 0.37199 0.0
C613 C 0.03119 0.50962 0.3332 0.0
C614 C 0.04479 0.49552 0.33026 0.0
C615 C 0.97182 0.51417 0.55402 0.0
H616 H 0.99191 0.47734 0.79354 0.0
H617 H 0.94989 0.51042 0.7114 0.0
H618 H 0.98936 0.498 0.87248 0.0
H619 H 0.96819 0.52524 0.87192 0.0
H620 H 0.01939 0.53202 0.37961 0.0
H621 H 0.06723 0.50378 0.44952 0.0
H622 H 0.02107 0.5112 0.3009 0.0
H623 H 0.0448 0.48629 0.29546 0.0
H624 H 0.15848 0.07545 0.1587 0.0
H625 H 0.13195 0.07199 0.22031 0.0
H626 H 0.15323 0.01798 0.27049 0.0
H627 H 0.17976 0.02126 0.20827 0.0
H628 H 0.11546 0.01713 0.25729 0.0
H629 H 0.13396 0.0795 0.38143 0.0
H630 H 0.13205 0.08439 0.31072 0.0
H631 H 0.15016 0.06884 0.33445 0.0
C632 C 0.15756 0.06283 0.18289 0.0
C633 C 0.17142 0.04872 0.1788 0.0
C634 C 0.1424 0.06092 0.21843 0.0
C635 C 0.14079 0.04497 0.25139 0.0
C636 C 0.1542 0.03052 0.24595 0.0
H637 H 0.0698 0.03617 0.53773 0.0
H638 H 0.09571 0.04065 0.47448 0.0
C639 C 0.16934 0.03236 0.21009 0.0
C640 C 0.12511 0.04332 0.29119 0.0
H641 H 0.10431 0.06549 0.39842 0.0
C642 C 0.11307 0.02769 0.28822 0.0
C643 C 0.12211 0.05689 0.33236 0.0
C644 C 0.13534 0.07326 0.34051 0.0
C645 C 0.09803 0.0254 0.32443 0.0
C646 C 0.09451 0.0394 0.3641 0.0
C647 C 0.10675 0.05488 0.36768 0.0
C648 C 0.07848 0.03794 0.40288 0.0
C649 C 0.08636 0.0077 0.3205 0.0
C650 C 0.05994 0.03575 0.38428 0.0
C651 C 0.04517 0.03273 0.42049 0.0
C652 C 0.04849 0.03193 0.47643 0.0
C653 C 0.06681 0.0357 0.49511 0.0
C654 C 0.08164 0.03852 0.45881 0.0
H655 H 0.0941 0.99619 0.29971 0.0
H656 H 0.08212 1.00267 0.36099 0.0
H657 H 0.07346 0.01066 0.2968 0.0
H658 H 0.0569 0.03607 0.34154 0.0
H659 H 0.0312 0.03064 0.40424 0.0
H660 H 0.46374 0.19521 0.29987 0.0
H661 H 0.46981 0.1669 0.35257 0.0
H662 H 0.46608 0.13305 0.20848 0.0
H663 H 0.45974 0.16143 0.15521 0.0
H664 H 0.44538 0.13516 0.36074 0.0
H665 H 0.51569 0.1155 0.2808 0.0
H666 H 0.50584 0.13874 0.27239 0.0
H667 H 0.49755 0.11953 0.23164 0.0
C668 C 0.4642 0.18177 0.2792 0.0
C669 C 0.46111 0.18063 0.22322 0.0
C670 C 0.46774 0.16559 0.30946 0.0
C671 C 0.46848 0.14785 0.28455 0.0
C672 C 0.46584 0.14662 0.2285 0.0
H673 H 0.49642 0.03828 0.42444 0.0
H674 H 0.48726 0.0634 0.36266 0.0
C675 C 0.46225 0.16286 0.19806 0.0
C676 C 0.47129 0.13072 0.31799 0.0
H677 H 0.50221 0.09514 0.34446 0.0
C678 C 0.4578 0.12637 0.35719 0.0
C679 C 0.48738 0.11917 0.313 0.0
C680 C 0.50256 0.12345 0.27252 0.0
C681 C 0.4599 0.1108 0.39152 0.0
C682 C 0.47626 0.09942 0.38756 0.0
C683 C 0.48962 0.10368 0.34765 0.0
C684 C 0.48021 0.0835 0.42532 0.0
C685 C 0.44422 0.10658 0.43047 0.0
C686 C 0.47901 0.08608 0.48138 0.0
C687 C 0.48356 0.07148 0.5167 0.0
C688 C 0.49051 0.05421 0.49724 0.0
C689 C 0.49145 0.05148 0.44112 0.0
C690 C 0.48626 0.06591 0.40563 0.0
H691 H 0.43039 0.11103 0.4139 0.0
H692 H 0.44348 0.09138 0.4401 0.0
H693 H 0.44655 0.11462 0.4683 0.0
H694 H 0.47486 0.09953 0.49817 0.0
H695 H 0.48193 0.07394 0.55942 0.0
H696 H 0.34654 0.50544 0.19904 0.0
H697 H 0.37346 0.51271 0.25706 0.0
H698 H 0.39417 0.45611 0.23598 0.0
H699 H 0.36768 0.44892 0.17703 0.0
H700 H 0.38156 0.49758 0.3518 0.0
H701 H 0.44195 0.48423 0.21622 0.0
H702 H 0.41812 0.48566 0.1915 0.0
H703 H 0.4266 0.46436 0.22232 0.0
C704 C 0.35706 0.49466 0.20572 0.0
C705 C 0.35485 0.47657 0.18338 0.0
C706 C 0.3724 0.49879 0.23936 0.0
C707 C 0.38599 0.48499 0.25112 0.0
C708 C 0.3841 0.4671 0.22745 0.0
H709 H 0.46268 0.48869 0.53008 0.0
H710 H 0.43644 0.48163 0.4688 0.0
C711 C 0.36878 0.46295 0.19394 0.0
C712 C 0.40132 0.48898 0.29088 0.0
H713 H 0.44901 0.48885 0.30887 0.0
C714 C 0.39631 0.49564 0.3423 0.0
C715 C 0.42063 0.48649 0.27878 0.0
C716 C 0.42718 0.47996 0.22405 0.0
C717 C 0.40996 0.49993 0.38157 0.0
C718 C 0.42922 0.4973 0.36968 0.0
C719 C 0.43426 0.49064 0.31834 0.0
C720 C 0.4444 0.50221 0.40894 0.0
C721 C 0.4037 0.50805 0.43468 0.0
C722 C 0.45763 0.51611 0.39596 0.0
C723 C 0.47233 0.52045 0.43146 0.0
C724 C 0.47427 0.5109 0.48065 0.0
C725 C 0.46119 0.49676 0.49341 0.0
C726 C 0.44623 0.49268 0.45826 0.0
H727 H 0.38855 0.51183 0.43467 0.0
H728 H 0.40614 0.49761 0.46709 0.0
H729 H 0.41203 0.52085 0.44406 0.0
H730 H 0.45664 0.52358 0.3581 0.0
H731 H 0.48241 0.53114 0.42001 0.0
H732 H 0.05075 0.33854 0.26329 0.0
H733 H 0.04608 0.36791 0.31266 0.0
H734 H 0.99893 0.3814 0.21053 0.0
H735 H 1.00324 0.35159 0.16148 0.0
H736 H 0.04697 0.40463 0.27873 0.0
H737 H 0.97643 0.38771 0.36084 0.0
H738 H 0.99128 0.37013 0.32994 0.0
H739 H 0.97824 0.38631 0.28876 0.0
C740 C 0.03923 0.34761 0.25151 0.0
C741 C 0.02719 0.34246 0.20877 0.0
C742 C 0.03666 0.36452 0.27968 0.0
C743 C 0.02193 0.37679 0.26621 0.0
C744 C 0.01015 0.37201 0.2226 0.0
H745 H 0.98597 0.48353 0.41173 0.0
H746 H 0.99007 0.45593 0.35314 0.0
C747 C 0.01276 0.35504 0.19414 0.0
C748 C 0.01923 0.39458 0.29778 0.0
H749 H 0.98837 0.41807 0.37971 0.0
C750 C 0.03414 0.40752 0.30083 0.0
C751 C 1.00251 0.39849 0.32672 0.0
C752 C 0.98623 0.38489 0.32696 0.0
C753 C 0.03276 0.42418 0.33151 0.0
C754 C 0.0162 0.42795 0.36119 0.0
C755 C 1.00116 0.41517 0.35749 0.0
C756 C 0.01418 0.44504 0.3962 0.0
C757 C 0.04892 0.43782 0.33091 0.0
C758 C 0.02641 0.44827 0.43994 0.0
C759 C 0.02394 0.46397 0.47382 0.0
C760 C 0.00909 0.47665 0.46492 0.0
C761 C 0.99728 0.47375 0.42019 0.0
C762 C 0.99963 0.45799 0.38668 0.0
H763 H 0.05798 0.43578 0.29499 0.0
H764 H 0.04376 0.45255 0.33125 0.0
H765 H 0.05764 0.43557 0.36739 0.0
H766 H 0.03767 0.43847 0.44856 0.0
H767 H 0.03358 0.46616 0.5071 0.0
H768 H 0.82692 0.99196 0.93185 0.0
H769 H 0.85412 0.99668 0.87309 0.0
H770 H 0.88558 0.95596 0.96491 0.0
H771 H 0.85832 0.95093 0.0231 0.0
H772 H 0.88945 0.00847 0.88832 0.0
H773 H 0.89175 0.9345 0.81634 0.0
H774 H 0.87241 0.94365 0.85536 0.0
H775 H 0.89388 0.93662 0.8881 0.0
C776 C 0.8397 0.98418 0.93998 0.0
C777 C 0.84035 0.97096 0.98203 0.0
C778 C 0.85525 0.98681 0.9061 0.0
C779 C 0.87183 0.97632 0.91346 0.0
C780 C 0.8728 0.96378 0.95706 0.0
H781 H 0.97992 0.98093 0.74053 0.0
H782 H 0.95541 0.97486 0.80777 0.0
C783 C 0.85722 0.96101 0.99062 0.0
C784 C 0.888 0.97851 0.87543 0.0
H785 H 0.91678 0.95429 0.78884 0.0
C786 C 0.89538 0.99659 0.86665 0.0
C787 C 0.89582 0.96305 0.84676 0.0
C788 C 0.88796 0.9434 0.85162 0.0
C789 C 0.91028 0.99961 0.83042 0.0
C790 C 0.91805 0.98418 0.80197 0.0
C791 C 0.9109 0.96608 0.81105 0.0
C792 C 0.93288 0.98685 0.7604 0.0
C793 C 0.91765 0.01931 0.82262 0.0
C794 C 0.92833 0.99522 0.71103 0.0
C795 C 0.94224 0.99851 0.67241 0.0
C796 C 0.96111 0.99365 0.68205 0.0
C797 C 0.96558 0.98491 0.7314 0.0
C798 C 0.95157 0.98142 0.76998 0.0
H799 H 0.91254 0.02914 0.85429 0.0
H800 H 0.93327 0.01934 0.82283 0.0
H801 H 0.91293 0.02465 0.78286 0.0
H802 H 0.91399 0.99945 0.70261 0.0
H803 H 0.93817 0.00546 0.63588 0.0
H804 H 0.52893 0.84051 0.98117 0.0
H805 H 0.5226 0.86897 0.92866 0.0
H806 H 0.58213 0.87892 0.91381 0.0
H807 H 0.58857 0.8508 0.96739 0.0
H808 H 0.56138 0.91183 0.93571 0.0
H809 H 0.53075 0.87145 0.76488 0.0
H810 H 0.51987 0.86716 0.82893 0.0
H811 H 0.54392 0.86036 0.81825 0.0
C812 C 0.54068 0.84889 0.96745 0.0
C813 C 0.55927 0.84322 0.97813 0.0
C814 C 0.53704 0.86507 0.93693 0.0
C815 C 0.5519 0.8759 0.9164 0.0
C816 C 0.57043 0.87071 0.92881 0.0
H817 H 0.54512 0.95359 0.6472 0.0
H818 H 0.5522 0.92773 0.70865 0.0
C819 C 0.57409 0.85454 0.95917 0.0
C820 C 0.54821 0.89235 0.88081 0.0
H821 H 0.52925 0.90463 0.75934 0.0
C822 C 0.55435 0.91028 0.89712 0.0
C823 C 0.5393 0.89028 0.8301 0.0
C824 C 0.53321 0.87127 0.80909 0.0
C825 C 0.5516 0.92623 0.8645 0.0
C826 C 0.54228 0.92423 0.81426 0.0
C827 C 0.53633 0.90623 0.79781 0.0
C828 C 0.53861 0.94048 0.77776 0.0
C829 C 0.55896 0.94498 0.88401 0.0
C830 C 0.52859 0.95633 0.79581 0.0
C831 C 0.52459 0.9712 0.76072 0.0
C832 C 0.53019 0.97039 0.70644 0.0
C833 C 0.54033 0.95457 0.68851 0.0
C834 C 0.54443 0.93977 0.72369 0.0
H835 H 0.57056 0.94319 0.91358 0.0
H836 H 0.56411 0.95371 0.85009 0.0
H837 H 0.54746 0.95274 0.90453 0.0
H838 H 0.52346 0.95706 0.8368 0.0
H839 H 0.51665 0.98309 0.7759 0.0
H840 H 0.67329 0.57588 0.91104 0.0
H841 H 0.64462 0.57041 0.85911 0.0
H842 H 0.63174 0.52245 0.95826 0.0
H843 H 0.66066 0.52769 0.01027 0.0
H844 H 0.6367 0.53757 0.80017 0.0
H845 H 0.58143 0.55165 0.9524 0.0
H846 H 0.60528 0.56 0.95965 0.0
H847 H 0.59969 0.53589 0.97413 0.0
C848 C 0.66439 0.56414 0.92197 0.0
C849 C 0.66946 0.55209 0.96461 0.0
C850 C 0.64792 0.56111 0.89234 0.0
C851 C 0.63594 0.54609 0.90484 0.0
C852 C 0.6406 0.53433 0.94835 0.0
H853 H 0.53447 0.49745 0.77282 0.0
H854 H 0.56276 0.50578 0.82361 0.0
C855 C 0.65716 0.53733 0.97808 0.0
C856 C 0.61935 0.54201 0.86991 0.0
H857 H 0.57155 0.53749 0.87054 0.0
C858 C 0.62242 0.53764 0.81543 0.0
C859 C 0.60073 0.54223 0.88972 0.0
C860 C 0.59647 0.54786 0.94704 0.0
C861 C 0.60752 0.53276 0.78074 0.0
C862 C 0.58886 0.53253 0.80071 0.0
C863 C 0.58579 0.53737 0.85508 0.0
C864 C 0.57235 0.52675 0.76691 0.0
C865 C 0.61211 0.52713 0.72372 0.0
C866 C 0.56824 0.53554 0.71744 0.0
C867 C 0.55213 0.53054 0.68786 0.0
C868 C 0.53974 0.51676 0.70737 0.0
C869 C 0.54387 0.50799 0.75659 0.0
C870 C 0.56001 0.51282 0.78576 0.0
H871 H 0.62706 0.52288 0.71928 0.0
H872 H 0.60313 0.51527 0.71069 0.0
H873 H 0.60955 0.53923 0.69652 0.0
H874 H 0.57711 0.54672 0.7025 0.0
H875 H 0.54904 0.5379 0.65076 0.0
H876 H 0.97631 0.65031 0.0249 0.0
H877 H 0.98122 0.62246 0.96819 0.0
H878 H 0.01159 0.65636 0.85373 0.0
H879 H 0.00751 0.68397 0.9119 0.0
H880 H 0.96931 0.61407 0.87452 0.0
H881 H 0.04682 0.6137 0.85967 0.0
H882 H 0.03453 0.62897 0.90581 0.0
H883 H 0.03714 0.63545 0.83605 0.0
C884 C 0.98431 0.65172 0.98805 0.0
C885 C 0.99171 0.6693 0.97322 0.0
C886 C 0.98707 0.63579 0.95544 0.0
C887 C 0.99708 0.63704 0.9067 0.0
C888 C 0.00439 0.65469 0.89177 0.0
H889 H 0.98451 0.54992 0.6542 0.0
H890 H 0.98142 0.57854 0.70941 0.0
C891 C 1.00197 0.67055 0.92498 0.0
C892 C 0.99896 0.62012 0.87063 0.0
H893 H 0.03039 0.59377 0.79804 0.0
C894 C 0.98274 0.60963 0.8582 0.0
C895 C 0.01644 0.61399 0.84934 0.0
C896 C 0.03473 0.6235 0.86386 0.0
C897 C 0.98348 0.59336 0.82564 0.0
C898 C 1.0008 0.58768 0.80258 0.0
C899 C 0.01703 0.59816 0.81493 0.0
C900 C 1.00261 0.57046 0.76783 0.0
C901 C 0.96576 0.58208 0.81801 0.0
C902 C 0.01578 0.55645 0.78112 0.0
C903 C 0.01777 0.54031 0.74902 0.0
C904 C 0.00687 0.53789 0.70226 0.0
C905 C 0.99346 0.55168 0.6892 0.0
C906 C 0.99149 0.5679 0.72131 0.0
H907 H 0.95548 0.5848 0.85077 0.0
H908 H 0.95908 0.58614 0.77936 0.0
H909 H 0.96885 0.56677 0.81698 0.0
H910 H 0.02446 0.5579 0.8168 0.0
H911 H 0.02794 0.52971 0.76065 0.0
H912 H 0.11798 0.20767 0.31035 0.0
H913 H 0.11909 0.18385 0.38169 0.0
H914 H 0.0816 0.14867 0.28848 0.0
H915 H 0.08123 0.1717 0.21729 0.0
H916 H 0.09281 0.17566 0.44156 0.0
H917 H 0.11028 0.10793 0.35231 0.0
H918 H 0.11578 0.12954 0.31757 0.0
H919 H 0.0935 0.11776 0.3069 0.0
C920 C 0.11056 0.1945 0.30457 0.0
C921 C 0.09958 0.19151 0.25817 0.0
C922 C 0.11121 0.18089 0.34527 0.0
C923 C 0.1007 0.16418 0.34049 0.0
C924 C 0.09053 0.16092 0.29277 0.0
H925 H 0.0125 0.13198 0.50282 0.0
H926 H 0.04139 0.14714 0.47521 0.0
C927 C 0.09016 0.17428 0.25193 0.0
C928 C 0.09704 0.15198 0.38795 0.0
H929 H 0.08155 0.10751 0.41279 0.0
C930 C 0.09105 0.16062 0.43597 0.0
C931 C 0.09551 0.13217 0.38303 0.0
C932 C 0.10439 0.1214 0.33725 0.0
C933 C 0.0809 0.15052 0.47461 0.0
C934 C 0.0759 0.13161 0.46364 0.0
C935 C 0.08454 0.12226 0.4203 0.0
C936 C 0.05918 0.12278 0.4889 0.0
C937 C 0.07468 0.16058 0.52512 0.0
C938 C 0.05924 0.10378 0.50474 0.0
C939 C 0.04245 0.0949 0.51941 0.0
C940 C 0.02538 0.10492 0.51867 0.0
C941 C 0.02548 0.12403 0.5048 0.0
C942 C 0.04212 0.13277 0.4895 0.0
H943 H 0.0861 0.16986 0.5403 0.0
H944 H 0.06248 0.16976 0.51574 0.0
H945 H 0.0707 0.1506 0.55746 0.0
H946 H 0.07215 0.09568 0.50405 0.0
H947 H 0.04272 0.08013 0.53017 0.0
H948 H 0.34666 0.08684 0.13086 0.0
H949 H 0.37237 0.08397 0.1946 0.0
H950 H 0.34615 0.12519 0.2982 0.0
H951 H 0.31979 0.12774 0.23458 0.0
H952 H 0.39854 0.10484 0.24591 0.0
H953 H 0.34478 0.07911 0.39131 0.0
H954 H 0.33906 0.08399 0.32209 0.0
H955 H 0.34224 0.103 0.3693 0.0
C956 C 0.34658 0.09578 0.1663 0.0
C957 C 0.33107 0.10737 0.178 0.0
C958 C 0.36133 0.09409 0.20289 0.0
C959 C 0.36096 0.104 0.25183 0.0
C960 C 0.34644 0.11701 0.26131 0.0
H961 H 0.41961 0.0538 0.52489 0.0
H962 H 0.40527 0.07912 0.47222 0.0
C963 C 0.33146 0.11852 0.22492 0.0
C964 C 0.37438 0.09847 0.29475 0.0
H965 H 0.37606 0.07408 0.41268 0.0
C966 C 0.39369 0.09846 0.28302 0.0
C967 C 0.36804 0.0901 0.34312 0.0
C968 C 0.34742 0.08887 0.35728 0.0
C969 C 0.40669 0.08929 0.3165 0.0
C970 C 0.40016 0.07997 0.36321 0.0
C971 C 0.38108 0.08127 0.37703 0.0
C972 C 0.412 0.06677 0.39472 0.0
C973 C 0.42706 0.08911 0.29975 0.0
C974 C 0.42086 0.05157 0.36877 0.0
C975 C 0.4291 0.03716 0.39876 0.0
C976 C 0.42831 0.0375 0.45528 0.0
C977 C 0.42017 0.05308 0.48131 0.0
C978 C 0.41206 0.06757 0.45129 0.0
H979 H 0.43124 0.10316 0.28433 0.0
H980 H 0.43664 0.08514 0.33303 0.0
H981 H 0.4289 0.07888 0.26626 0.0
H982 H 0.42053 0.05028 0.32529 0.0
H983 H 0.43511 0.02522 0.37767 0.0
H984 H 0.38033 0.32749 0.29795 0.0
H985 H 0.38469 0.35702 0.34758 0.0
H986 H 0.40283 0.38414 0.20152 0.0
H987 H 0.39901 0.35497 0.15234 0.0
H988 H 0.41962 0.37046 0.35574 0.0
H989 H 0.37504 0.42662 0.2742 0.0
H990 H 0.37018 0.40207 0.26108 0.0
H991 H 0.38632 0.41495 0.21896 0.0
C992 C 0.38479 0.33987 0.27614 0.0
C993 C 0.38956 0.33869 0.22118 0.0
C994 C 0.38712 0.35679 0.30451 0.0
C995 C 0.39398 0.37285 0.27826 0.0
C996 C 0.39708 0.37211 0.22252 0.0
H997 H 0.47358 0.45433 0.28089 0.0
H998 H 0.44673 0.43348 0.26977 0.0
C999 C 0.39489 0.35526 0.19429 0.0
C1000 C 0.40181 0.38888 0.30941 0.0
H1001 H 0.40722 0.43654 0.3028 0.0
C1002 C 0.41648 0.38497 0.34565 0.0
C1003 C 0.39769 0.40781 0.29639 0.0
C1004 C 0.38129 0.41304 0.26089 0.0
C1005 C 0.42841 0.39926 0.36443 0.0
C1006 C 0.42537 0.41795 0.3471 0.0
C1007 C 0.40964 0.42212 0.31515 0.0
C1008 C 0.43993 0.43256 0.3546 0.0
C1009 C 0.44515 0.39403 0.39878 0.0
C1010 C 0.44477 0.43921 0.40597 0.0
C1011 C 0.4602 0.45119 0.41258 0.0
C1012 C 0.47092 0.45689 0.36783 0.0
C1013 C 0.46558 0.45055 0.31626 0.0
C1014 C 0.45019 0.4386 0.30976 0.0
H1015 H 0.44657 0.37856 0.40384 0.0
H1016 H 0.4583 0.39952 0.38061 0.0
H1017 H 0.44364 0.4005 0.4393 0.0
H1018 H 0.43689 0.43482 0.44102 0.0
H1019 H 0.46369 0.45591 0.45285 0.0
H1020 H 0.17913 0.41974 0.15491 0.0
H1021 H 0.15139 0.42238 0.21061 0.0
H1022 H 0.18258 0.40211 0.34781 0.0
H1023 H 0.21081 0.39923 0.2916 0.0
H1024 H 0.12988 0.39952 0.27804 0.0
H1025 H 0.16801 0.45567 0.39225 0.0
H1026 H 0.17748 0.44584 0.33099 0.0
H1027 H 0.17766 0.43227 0.39188 0.0
C1028 C 0.18009 0.41514 0.19635 0.0
C1029 C 0.19734 0.40941 0.21877 0.0
C1030 C 0.16414 0.41676 0.22835 0.0
C1031 C 0.165 0.41277 0.28354 0.0
C1032 C 0.18173 0.4056 0.30545 0.0
H1033 H 0.07201 0.47072 0.45285 0.0
H1034 H 0.09687 0.44685 0.44551 0.0
C1035 C 0.19782 0.40398 0.27329 0.0
C1036 C 0.14897 0.41862 0.3177 0.0
H1037 H 0.1353 0.45577 0.39604 0.0
C1038 C 0.13109 0.41144 0.3053 0.0
C1039 C 0.15058 0.43413 0.35351 0.0
C1040 C 0.16941 0.44256 0.36803 0.0
C1041 C 0.11475 0.42049 0.32345 0.0
C1042 C 0.11642 0.43708 0.35456 0.0
C1043 C 0.13419 0.44306 0.37191 0.0
C1044 C 0.1006 0.45039 0.35976 0.0
C1045 C 0.09581 0.41308 0.30623 0.0
C1046 C 0.09487 0.46047 0.31416 0.0
C1047 C 0.08117 0.4744 0.31833 0.0
C1048 C 0.07272 0.47843 0.36821 0.0
C1049 C 0.07843 0.46819 0.41397 0.0
C1050 C 0.09243 0.45439 0.40983 0.0
H1051 H 0.09659 0.39807 0.29359 0.0
H1052 H 0.0855 0.41446 0.33953 0.0
H1053 H 0.0906 0.42142 0.27156 0.0
H1054 H 0.10137 0.45784 0.2754 0.0
H1055 H 0.07742 0.48221 0.28251 0.0
H1056 H 0.90936 0.83604 0.94509 0.0
H1057 H 0.9111 0.8577 0.87023 0.0
H1058 H 0.92302 0.81147 0.76224 0.0
H1059 H 0.92366 0.79004 0.83796 0.0
H1060 H 0.94953 0.83368 0.75636 0.0
H1061 H 0.88733 0.87906 0.74316 0.0
H1062 H 0.89503 0.87941 0.81175 0.0
H1063 H 0.88703 0.85759 0.78184 0.0
C1064 C 0.91219 0.83037 0.90539 0.0
C1065 C 0.91726 0.81134 0.89841 0.0
C1066 C 0.91269 0.84281 0.86201 0.0
C1067 C 0.91736 0.83636 0.81019 0.0
C1068 C 0.91961 0.8169 0.80189 0.0
H1069 H 0.97592 0.90752 0.57445 0.0
H1070 H 0.95111 0.88629 0.60552 0.0
C1071 C 0.9198 0.80454 0.84555 0.0
C1072 C 0.92422 0.84991 0.76905 0.0
H1073 H 0.91784 0.89467 0.72196 0.0
C1074 C 0.94219 0.84668 0.74734 0.0
C1075 C 0.91486 0.86703 0.75701 0.0
C1076 C 0.89491 0.87081 0.77435 0.0
C1077 C 0.95157 0.86052 0.71788 0.0
C1078 C 0.94289 0.87817 0.71021 0.0
C1079 C 0.9245 0.88113 0.72857 0.0
C1080 C 0.95395 0.8941 0.68937 0.0
C1081 C 0.9713 0.85667 0.69826 0.0
C1082 C 0.96323 0.90589 0.72615 0.0
C1083 C 0.97767 0.91769 0.70881 0.0
C1084 C 0.983 0.91791 0.65428 0.0
C1085 C 0.97248 0.90728 0.61689 0.0
C1086 C 0.95813 0.89537 0.63438 0.0
H1087 H 0.97616 0.84224 0.70833 0.0
H1088 H 0.9719 0.85841 0.65387 0.0
H1089 H 0.98121 0.86698 0.71645 0.0
H1090 H 0.96028 0.90492 0.76886 0.0
H1091 H 0.98549 0.92557 0.73878 0.0
H1092 H 0.6794 0.88129 0.92391 0.0
H1093 H 0.65295 0.88415 0.86132 0.0
H1094 H 0.68422 0.92466 0.76862 0.0
H1095 H 0.71038 0.92205 0.8306 0.0
H1096 H 0.63731 0.91793 0.86353 0.0
H1097 H 0.65234 0.9017 0.65151 0.0
H1098 H 0.66593 0.89177 0.70614 0.0
H1099 H 0.67157 0.91471 0.67974 0.0
C1100 C 0.68087 0.89029 0.88905 0.0
C1101 C 0.69686 0.90175 0.88299 0.0
C1102 C 0.6658 0.89177 0.85302 0.0
C1103 C 0.66655 0.90462 0.81018 0.0
C1104 C 0.68337 0.91434 0.80055 0.0
H1105 H 0.6218 0.99664 0.67615 0.0
H1106 H 0.63569 0.9657 0.68913 0.0
C1107 C 0.6984 0.91289 0.83648 0.0
C1108 C 0.64896 0.91182 0.78551 0.0
H1109 H 0.63225 0.92966 0.66736 0.0
C1110 C 0.63579 0.91998 0.82045 0.0
C1111 C 0.64693 0.91439 0.72939 0.0
C1112 C 0.65989 0.90497 0.68964 0.0
C1113 C 0.62217 0.93262 0.8017 0.0
C1114 C 0.62123 0.93667 0.74581 0.0
C1115 C 0.63306 0.92679 0.71019 0.0
C1116 C 0.61091 0.95345 0.72559 0.0
C1117 C 0.61025 0.94276 0.84293 0.0
C1118 C 0.59193 0.95662 0.73824 0.0
C1119 C 0.58418 0.97464 0.733 0.0
C1120 C 0.59512 0.98958 0.71316 0.0
C1121 C 0.61324 0.98564 0.69358 0.0
C1122 C 0.62111 0.96782 0.70023 0.0
H1123 H 0.61522 0.94038 0.88482 0.0
H1124 H 0.61013 0.95816 0.83557 0.0
H1125 H 0.59566 0.9374 0.84017 0.0
H1126 H 0.58356 0.94556 0.75602 0.0
H1127 H 0.57014 0.9771 0.74822 0.0
H1128 H 0.63438 0.66548 0.99438 0.0
H1129 H 0.63212 0.637 0.93883 0.0
H1130 H 0.60217 0.66834 0.8174 0.0
H1131 H 0.60409 0.69649 0.87236 0.0
H1132 H 0.59831 0.62297 0.92135 0.0
H1133 H 0.63078 0.63233 0.72323 0.0
H1134 H 0.63746 0.64647 0.7809 0.0
H1135 H 0.61773 0.65316 0.73934 0.0
C1136 C 0.62776 0.6664 0.95516 0.0
C1137 C 0.61917 0.68326 0.93828 0.0
C1138 C 0.62664 0.65014 0.92325 0.0
C1139 C 0.61712 0.65051 0.87366 0.0
C1140 C 0.61005 0.66772 0.85473 0.0
H1141 H 0.53258 0.61649 0.69799 0.0
H1142 H 0.56395 0.62541 0.7272 0.0
C1143 C 0.6111 0.68392 0.88656 0.0
C1144 C 0.61063 0.63281 0.84759 0.0
H1145 H 0.59997 0.61566 0.7228 0.0
C1146 C 0.59918 0.62086 0.87813 0.0
C1147 C 0.61206 0.62981 0.79144 0.0
C1148 C 0.62538 0.64105 0.75709 0.0
C1149 C 0.58696 0.60797 0.85332 0.0
C1150 C 0.58655 0.60676 0.79623 0.0
C1151 C 0.59996 0.61684 0.76639 0.0
C1152 C 0.56991 0.59902 0.7674 0.0
C1153 C 0.57322 0.59743 0.88841 0.0
C1154 C 0.56316 0.58076 0.77698 0.0
C1155 C 0.54482 0.57584 0.76188 0.0
C1156 C 0.53318 0.589 0.73571 0.0
C1157 C 0.54093 0.6063 0.71991 0.0
C1158 C 0.55903 0.61132 0.73598 0.0
H1159 H 0.57412 0.60174 0.9314 0.0
H1160 H 0.55858 0.59981 0.87442 0.0
H1161 H 0.57624 0.58213 0.88621 0.0
H1162 H 0.57156 0.57078 0.79931 0.0
H1163 H 0.53939 0.56228 0.77409 0.0
H1164 H 0.84619 0.60731 0.99756 0.0
H1165 H 0.87379 0.60409 0.94199 0.0
H1166 H 0.84189 0.62071 0.80208 0.0
H1167 H 0.81385 0.6244 0.8583 0.0
H1168 H 0.85689 0.58664 0.78977 0.0
H1169 H 0.91321 0.63294 0.86283 0.0
H1170 H 0.90225 0.62227 0.91991 0.0
H1171 H 0.88873 0.63769 0.877 0.0
C1172 C 0.84507 0.61123 0.95557 0.0
C1173 C 0.82763 0.61598 0.93251 0.0
C1174 C 0.86103 0.6094 0.92361 0.0
C1175 C 0.86003 0.61234 0.86782 0.0
C1176 C 0.84302 0.61848 0.84511 0.0
H1177 H 0.9484 0.54383 0.70848 0.0
H1178 H 0.92585 0.57002 0.71011 0.0
C1179 C 0.82697 0.62042 0.87727 0.0
C1180 C 0.87552 0.60514 0.8336 0.0
H1181 H 0.92317 0.6003 0.83791 0.0
C1182 C 0.87143 0.59016 0.79833 0.0
C1183 C 0.8945 0.6098 0.84415 0.0
C1184 C 0.89986 0.62672 0.87763 0.0
C1185 C 0.8857 0.57824 0.77938 0.0
C1186 C 0.90438 0.58146 0.79616 0.0
C1187 C 0.90874 0.59772 0.82583 0.0
C1188 C 0.91843 0.56623 0.79377 0.0
C1189 C 0.88055 0.56112 0.74639 0.0
C1190 C 0.92152 0.55548 0.84015 0.0
C1191 C 0.93401 0.5404 0.83922 0.0
C1192 C 0.94386 0.53583 0.79192 0.0
C1193 C 0.94081 0.54675 0.74535 0.0
C1194 C 0.92809 0.56181 0.74623 0.0
H1195 H 0.86554 0.56123 0.73392 0.0
H1196 H 0.88945 0.5604 0.70977 0.0
H1197 H 0.88326 0.54821 0.77026 0.0
H1198 H 0.91398 0.55862 0.87702 0.0
H1199 H 0.9357 0.53213 0.87547 0.0
H1200 H 0.04847 0.20134 0.81033 0.0
H1201 H 0.04269 0.17278 0.75758 0.0
H1202 H 0.99545 0.15944 0.85868 0.0
H1203 H 1.00145 0.18762 0.913 0.0
H1204 H 0.04243 0.13486 0.8033 0.0
H1205 H 0.9755 0.15287 0.7003 0.0
H1206 H 0.99119 0.17054 0.72738 0.0
H1207 H 0.97619 0.15745 0.77162 0.0
C1208 C 0.0368 0.1924 0.82153 0.0
C1209 C 0.02554 0.19689 0.86654 0.0
C1210 C 0.03347 0.17608 0.79099 0.0
C1211 C 0.0186 0.16395 0.80393 0.0
C1212 C 0.00687 0.16869 0.84741 0.0
H1213 H 0.97329 0.05811 0.68996 0.0
H1214 H 0.98043 0.08816 0.73381 0.0
C1215 C 0.01028 0.18493 0.87835 0.0
C1216 C 0.01612 0.14577 0.7743 0.0
H1217 H 0.98563 0.1212 0.69399 0.0
C1218 C 0.03007 0.13188 0.77911 0.0
C1219 C 1.00001 0.14188 0.74274 0.0
C1220 C 0.98489 0.15648 0.73463 0.0
C1221 C 0.02803 0.11398 0.75507 0.0
C1222 C 0.01177 0.10991 0.72393 0.0
C1223 C 0.99805 0.12408 0.71805 0.0
C1224 C 0.00818 0.09093 0.69904 0.0
C1225 C 0.04298 0.0994 0.76554 0.0
C1226 C 0.02139 0.08213 0.66492 0.0
C1227 C 0.01746 0.06462 0.64086 0.0
C1228 C 1.00009 0.05569 0.64956 0.0
C1229 C 0.98688 0.06453 0.68316 0.0
C1230 C 0.99093 0.0818 0.70795 0.0
H1231 H 0.05137 0.10277 0.80212 0.0
H1232 H 0.03662 0.08532 0.77072 0.0
H1233 H 0.05277 0.09884 0.73082 0.0
H1234 H 0.03453 0.08902 0.65554 0.0
H1235 H 0.0277 0.05843 0.61387 0.0
H1236 H 0.32179 0.05757 0.82227 0.0
H1237 H 0.35146 0.05312 0.77493 0.0
H1238 H 0.34997 0.99384 0.81106 0.0
H1239 H 0.3198 0.99801 0.85679 0.0
H1240 H 0.38407 0.04135 0.81896 0.0
H1241 H 0.36461 0.99255 0.65353 0.0
H1242 H 0.34727 0.00517 0.69259 0.0
H1243 H 0.35795 0.98414 0.71886 0.0
C1244 C 0.3274 0.04344 0.81892 0.0
C1245 C 0.31816 0.02813 0.84329 0.0
C1246 C 0.34455 0.04096 0.79214 0.0
C1247 C 0.35296 0.02311 0.7887 0.0
C1248 C 0.34366 0.00771 0.81206 0.0
H1249 H 0.46203 0.97926 0.69975 0.0
H1250 H 0.43047 0.98547 0.73503 0.0
C1251 C 0.32645 0.01017 0.83885 0.0
C1252 C 0.37209 0.02098 0.76446 0.0
H1253 H 0.39748 0.9966 0.67013 0.0
C1254 C 0.38691 0.03176 0.78586 0.0
C1255 C 0.37594 0.00837 0.7215 0.0
C1256 C 0.36058 0.99703 0.69488 0.0
C1257 C 0.40542 0.02993 0.76661 0.0
C1258 C 0.40934 0.01709 0.72442 0.0
C1259 C 0.39451 0.00646 0.70247 0.0
C1260 C 0.42887 0.01387 0.70433 0.0
C1261 C 0.4209 0.04085 0.79374 0.0
C1262 C 0.43858 0.02778 0.67531 0.0
C1263 C 0.45669 0.02425 0.65508 0.0
C1264 C 0.46548 0.00678 0.66388 0.0
C1265 C 0.45575 0.99296 0.69309 0.0
C1266 C 0.43767 0.99645 0.71304 0.0
H1267 H 0.41573 0.04951 0.82802 0.0
H1268 H 0.4316 0.03082 0.80897 0.0
H1269 H 0.42777 0.05031 0.76429 0.0
H1270 H 0.43197 0.04122 0.66724 0.0
H1271 H 0.46356 0.03498 0.63135 0.0
H1272 H 0.45111 0.30964 0.80039 0.0
H1273 H 0.45907 0.33772 0.7484 0.0
H1274 H 0.49649 0.35591 0.87503 0.0
H1275 H 0.48826 0.32811 0.92786 0.0
H1276 H 0.47104 0.38346 0.8442 0.0
H1277 H 0.5062 0.35293 0.66472 0.0
H1278 H 0.48367 0.34278 0.67931 0.0
H1279 H 0.50275 0.3398 0.72609 0.0
C1280 C 0.46122 0.31949 0.81693 0.0
C1281 C 0.46903 0.31656 0.86842 0.0
C1282 C 0.46587 0.33549 0.78691 0.0
C1283 C 0.4785 0.3489 0.80754 0.0
C1284 C 0.48678 0.34572 0.85812 0.0
H1285 H 0.52466 0.44769 0.64826 0.0
H1286 H 0.51974 0.41697 0.68987 0.0
C1287 C 0.48219 0.32971 0.8881 0.0
C1288 C 0.48193 0.3669 0.77848 0.0
H1289 H 0.49795 0.38539 0.66008 0.0
C1290 C 0.47699 0.38387 0.80402 0.0
C1291 C 0.4898 0.36748 0.72617 0.0
C1292 C 0.49609 0.3498 0.69753 0.0
C1293 C 0.47945 0.40134 0.77851 0.0
C1294 C 0.48684 0.40189 0.72562 0.0
C1295 C 0.49209 0.38495 0.70036 0.0
C1296 C 0.48958 0.42 0.69662 0.0
C1297 C 0.47438 0.41909 0.80879 0.0
C1298 C 0.47421 0.4317 0.68479 0.0
C1299 C 0.47699 0.44933 0.66107 0.0
C1300 C 0.49522 0.45575 0.64894 0.0
C1301 C 0.51048 0.44352 0.65814 0.0
C1302 C 0.50768 0.42586 0.68178 0.0
H1303 H 0.47327 0.41661 0.85284 0.0
H1304 H 0.48495 0.43031 0.80177 0.0
H1305 H 0.46056 0.4243 0.79432 0.0
H1306 H 0.46005 0.42729 0.69449 0.0
H1307 H 0.46482 0.45802 0.65288 0.0
H1308 H 0.19309 0.50091 0.92055 0.0
H1309 H 0.16406 0.50622 0.86977 0.0
H1310 H 0.18705 0.47566 0.73474 0.0
H1311 H 0.21608 0.47016 0.78546 0.0
H1312 H 0.15497 0.52296 0.77384 0.0
H1313 H 0.13919 0.44656 0.7637 0.0
H1314 H 0.15759 0.45602 0.80586 0.0
H1315 H 0.16143 0.45277 0.73482 0.0
C1316 C 0.19214 0.4956 0.87968 0.0
C1317 C 0.20693 0.48496 0.85734 0.0
C1318 C 0.17545 0.49857 0.85073 0.0
C1319 C 0.17312 0.49097 0.79878 0.0
C1320 C 0.18824 0.48122 0.77527 0.0
H1321 H 0.07696 0.5177 0.58675 0.0
H1322 H 0.10855 0.51544 0.62608 0.0
C1323 C 0.20489 0.47816 0.80428 0.0
C1324 C 0.15467 0.49269 0.77022 0.0
H1325 H 0.11878 0.46676 0.71578 0.0
C1326 C 0.14708 0.51067 0.76101 0.0
C1327 C 0.14417 0.47666 0.75413 0.0
C1328 C 0.15088 0.45691 0.76553 0.0
C1329 C 0.12941 0.51307 0.73612 0.0
C1330 C 0.11911 0.49704 0.71899 0.0
C1331 C 0.1267 0.47907 0.7283 0.0
C1332 C 0.10002 0.49846 0.69402 0.0
C1333 C 0.12168 0.53273 0.73 0.0
C1334 C 0.08469 0.48934 0.7181 0.0
C1335 C 0.0667 0.49047 0.69537 0.0
C1336 C 0.06352 0.5006 0.6477 0.0
C1337 C 0.07888 0.50975 0.62351 0.0
C1338 C 0.09695 0.50857 0.64617 0.0
H1339 H 0.12889 0.5429 0.75715 0.0
H1340 H 0.12383 0.53748 0.68793 0.0
H1341 H 0.10637 0.5331 0.73866 0.0
H1342 H 0.08658 0.48155 0.75517 0.0
H1343 H 0.05523 0.48389 0.71632 0.0
H1344 H 0.0254 0.82915 0.26915 0.0
H1345 H 0.02765 0.85866 0.31999 0.0
H1346 H 0.96876 0.85513 0.35906 0.0
H1347 H 0.96635 0.82572 0.30817 0.0
H1348 H 0.00902 0.89154 0.29941 0.0
H1349 H 0.99121 0.86752 0.50543 0.0
H1350 H 0.99733 0.85133 0.45198 0.0
H1351 H 0.9741 0.86128 0.45523 0.0
C1352 C 0.01292 0.83456 0.2888 0.0
C1353 C 0.9957 0.82489 0.28448 0.0
C1354 C 0.01426 0.85144 0.31809 0.0
C1355 C 0.99845 0.8591 0.34413 0.0
C1356 C 0.9813 0.84936 0.34062 0.0
H1357 H 0.98268 0.96407 0.53026 0.0
H1358 H 0.97745 0.93413 0.48217 0.0
C1359 C 0.97995 0.83246 0.31139 0.0
C1360 C 0.99968 0.87784 0.37172 0.0
H1361 H 0.99334 0.90045 0.4923 0.0
C1362 C 0.00562 0.89345 0.34166 0.0
C1363 C 0.99509 0.88048 0.42677 0.0
C1364 C 0.98924 0.86425 0.46197 0.0
C1365 C 0.00703 0.91152 0.36473 0.0
C1366 C 1.00273 0.91417 0.42007 0.0
C1367 C 0.99655 0.89859 0.44999 0.0
C1368 C 0.00545 0.9327 0.44815 0.0
C1369 C 0.01296 0.92756 0.32889 0.0
C1370 C 0.02293 0.94185 0.44596 0.0
C1371 C 0.02575 0.95905 0.47231 0.0
C1372 C 0.01127 0.96752 0.50228 0.0
C1373 C 0.9939 0.9582 0.50598 0.0
C1374 C 0.99099 0.94099 0.47894 0.0
H1375 H 0.00846 0.92511 0.28655 0.0
H1376 H 0.00708 0.94118 0.34265 0.0
H1377 H 0.02852 0.92859 0.32914 0.0
H1378 H 0.03457 0.93555 0.42441 0.0
H1379 H 0.03945 0.96564 0.46985 0.0
H1380 H 0.68907 0.95203 0.34308 0.0
H1381 H 0.66187 0.96103 0.39734 0.0
H1382 H 0.6594 0.01446 0.31587 0.0
H1383 H 0.68618 0.00525 0.25976 0.0
H1384 H 0.6543 0.98945 0.46763 0.0
H1385 H 0.6067 0.99483 0.29128 0.0
H1386 H 0.62989 0.98469 0.28662 0.0
H1387 H 0.6269 0.00985 0.28672 0.0
C1388 C 0.68274 0.9657 0.33646 0.0
C1389 C 0.68974 0.97777 0.29622 0.0
C1390 C 0.66721 0.97087 0.36787 0.0
C1391 C 0.6582 0.98824 0.35996 0.0
C1392 C 0.66575 1.00076 0.32189 0.0
H1393 H 0.5596 0.04314 0.49431 0.0
H1394 H 0.58849 0.03445 0.44656 0.0
C1395 C 0.68128 0.99558 0.29028 0.0
C1396 C 0.64073 0.99298 0.39071 0.0
H1397 H 0.59445 0.00503 0.37517 0.0
C1398 C 0.64121 0.99279 0.44738 0.0
C1399 C 0.62351 0.99718 0.3645 0.0
C1400 C 0.6216 0.99648 0.30396 0.0
C1401 C 0.62516 0.99714 0.47833 0.0
C1402 C 0.60806 1.00161 0.45199 0.0
C1403 C 0.60755 1.00167 0.39542 0.0
C1404 C 0.59062 0.00675 0.48209 0.0
C1405 C 0.62679 0.99737 0.53897 0.0
C1406 C 0.58206 0.99407 0.5179 0.0
C1407 C 0.56547 0.99902 0.54505 0.0
C1408 C 0.55698 0.01663 0.53625 0.0
C1409 C 0.56569 0.02936 0.50111 0.0
C1410 C 0.58219 0.02441 0.47387 0.0
H1411 H 0.64167 0.99825 0.55244 0.0
H1412 H 0.61891 0.00941 0.55652 0.0
H1413 H 0.62073 0.98419 0.55532 0.0
H1414 H 0.58808 0.98026 0.52443 0.0
H1415 H 0.55934 0.98911 0.57297 0.0
H1416 H 0.53031 0.68462 0.25345 0.0
H1417 H 0.52255 0.65856 0.31313 0.0
H1418 H 0.53854 0.69225 0.45084 0.0
H1419 H 0.54737 0.71804 0.39044 0.0
H1420 H 0.55217 0.65983 0.46416 0.0
H1421 H 0.47877 0.64771 0.40335 0.0
H1422 H 0.49345 0.64604 0.34508 0.0
H1423 H 0.49168 0.66808 0.38122 0.0
C1424 C 0.53182 0.68659 0.29655 0.0
C1425 C 0.53923 0.70344 0.31735 0.0
C1426 C 0.52726 0.67168 0.33082 0.0
C1427 C 0.52944 0.67345 0.38695 0.0
C1428 C 0.53658 0.69047 0.40784 0.0
H1429 H 0.48707 0.57758 0.57485 0.0
H1430 H 0.49118 0.60947 0.54011 0.0
C1431 C 0.54156 0.70525 0.37338 0.0
C1432 C 0.52556 0.65709 0.42309 0.0
H1433 H 0.49459 0.62115 0.44446 0.0
C1434 C 0.53941 0.65158 0.46036 0.0
C1435 C 0.50873 0.64646 0.41979 0.0
C1436 C 0.49226 0.65255 0.38564 0.0
C1437 C 0.53733 0.63535 0.49213 0.0
C1438 C 0.52135 0.6237 0.48475 0.0
C1439 C 0.50707 0.62973 0.44957 0.0
C1440 C 0.51949 0.60486 0.51091 0.0
C1441 C 0.55226 0.63108 0.53362 0.0
C1442 C 0.53407 0.59156 0.50714 0.0
C1443 C 0.53193 0.57347 0.52826 0.0
C1444 C 0.51486 0.56785 0.5517 0.0
C1445 C 0.50036 0.58126 0.55644 0.0
C1446 C 0.50267 0.59954 0.53641 0.0
H1447 H 0.5588 0.64424 0.54904 0.0
H1448 H 0.54647 0.62316 0.56833 0.0
H1449 H 0.56357 0.62259 0.51465 0.0
H1450 H 0.54703 0.59496 0.48661 0.0
H1451 H 0.54362 0.56384 0.52527 0.0
H1452 H 0.80653 0.51803 0.32316 0.0
H1453 H 0.83437 0.5108 0.37775 0.0
H1454 H 0.85464 0.56736 0.35545 0.0
H1455 H 0.82738 0.57458 0.29983 0.0
H1456 H 0.87321 0.51384 0.34472 0.0
H1457 H 0.85784 0.55968 0.52067 0.0
H1458 H 0.83999 0.55262 0.47284 0.0
H1459 H 0.85613 0.57119 0.4565 0.0
C1460 C 0.81688 0.52896 0.32974 0.0
C1461 C 0.81443 0.54699 0.3072 0.0
C1462 C 0.83278 0.52481 0.36127 0.0
C1463 C 0.84648 0.53862 0.37151 0.0
C1464 C 0.84407 0.55659 0.34927 0.0
H1465 H 0.95505 0.54791 0.52857 0.0
H1466 H 0.92462 0.55299 0.48524 0.0
C1467 C 0.82833 0.56071 0.31753 0.0
C1468 C 0.86376 0.53415 0.40315 0.0
H1469 H 0.88874 0.54701 0.51532 0.0
C1470 C 0.87653 0.52093 0.38233 0.0
C1471 C 0.86817 0.54352 0.452 0.0
C1472 C 0.85477 0.55744 0.47721 0.0
C1473 C 0.89382 0.51727 0.40801 0.0
C1474 C 0.89831 0.52671 0.45683 0.0
C1475 C 0.88538 0.53975 0.47801 0.0
C1476 C 0.91654 0.52362 0.48561 0.0
C1477 C 0.90742 0.50387 0.38129 0.0
C1478 C 0.92202 0.50554 0.50224 0.0
C1479 C 0.93966 0.50255 0.52604 0.0
C1480 C 0.95228 0.51758 0.534 0.0
C1481 C 0.9462 0.53585 0.52069 0.0
C1482 C 0.92862 0.53882 0.49649 0.0
H1483 H 0.90423 0.50199 0.33777 0.0
H1484 H 0.92213 0.50893 0.38538 0.0
H1485 H 0.90638 0.48988 0.40076 0.0
H1486 H 0.91271 0.49365 0.49638 0.0
H1487 H 0.9434 0.48838 0.53747 0.0
loop_
_geom_bond_atom_site_label_1
_geom_bond_atom_site_label_2
_geom_bond_distance
_geom_bond_site_symmetry_2
_ccdc_geom_bond_type
C0 C1 1.384 . S
C0 H13 0.947 . S
C0 C35 1.382 . S
C1 C0 1.384 . S
C1 C2 1.378 . S
C2 C1 1.378 . S
C2 C3 1.378 . S
C2 H14 0.952 . S
C3 C2 1.378 . S
C3 H15 0.950 . S
C3 C34 1.383 . S
H4 C23 0.947 . S
H5 C24 0.946 . S
H6 C26 0.953 . S
H7 C27 0.945 . S
H8 C29 0.952 1_556 S
H9 C30 0.949 . S
H10 C32 0.950 . S
H11 C33 0.948 . S
H12 C35 0.951 . S
H13 C0 0.947 . S
H14 C2 0.952 . S
H15 C3 0.950 . S
N16 C19 1.382 . S
N16 C21 1.363 . S
N17 C19 1.371 . S
N17 C20 1.372 . S
N18 C20 1.361 . S
N18 C21 1.377 . S
C19 N16 1.382 . S
C19 N17 1.371 . S
C19 C22 1.480 . S
C20 N17 1.372 . S
C20 N18 1.361 . S
C20 C28 1.457 . S
C21 N16 1.363 . S
C21 N18 1.377 . S
C21 C34 1.479 . S
C22 C19 1.480 . S
C22 C23 1.383 . S
C22 C27 1.385 . S
C23 H4 0.947 . S
C23 C22 1.383 . S
C23 C24 1.388 . S
C24 H5 0.946 . S
C24 C23 1.388 . S
C24 C25 1.384 . S
C25 C24 1.384 . S
C25 C26 1.377 . S
C26 H6 0.953 . S
C26 C25 1.377 . S
C26 C27 1.369 . S
C27 H7 0.945 . S
C27 C22 1.385 . S
C27 C26 1.369 . S
C28 C20 1.457 . S
C28 C29 1.372 . S
C28 C33 1.364 . S
C29 H8 0.952 1_554 S
C29 C28 1.372 . S
C29 C30 1.389 1_554 S
C30 H9 0.949 . S
C30 C29 1.389 1_556 S
C30 C31 1.387 . S
C31 C30 1.387 . S
C31 C32 1.372 1_556 S
C32 H10 0.950 . S
C32 C31 1.372 1_554 S
C32 C33 1.379 . S
C33 H11 0.948 . S
C33 C28 1.364 . S
C33 C32 1.379 . S
C34 C3 1.383 . S
C34 C21 1.479 . S
C34 C35 1.398 . S
C35 C0 1.382 . S
C35 H12 0.951 . S
C35 C34 1.398 . S
C36 C37 1.384 . S
C36 H49 0.947 . S
C36 C71 1.382 . S
C37 C36 1.384 . S
C37 C38 1.378 . S
C38 C37 1.378 . S
C38 C39 1.378 . S
C38 H50 0.952 . S
C39 C38 1.378 . S
C39 H51 0.950 . S
C39 C70 1.383 . S
H40 C59 0.947 . S
H41 C60 0.946 . S
H42 C62 0.953 . S
H43 C63 0.945 . S
H44 C65 0.952 . S
H45 C66 0.949 . S
H46 C68 0.950 . S
H47 C69 0.948 . S
H48 C71 0.951 . S
H49 C36 0.947 . S
H50 C38 0.952 . S
H51 C39 0.950 . S
N52 C55 1.382 . S
N52 C57 1.363 . S
N53 C55 1.371 . S
N53 C56 1.372 . S
N54 C56 1.361 . S
N54 C57 1.377 . S
C55 N52 1.382 . S
C55 N53 1.371 . S
C55 C58 1.480 . S
C56 N53 1.372 . S
C56 N54 1.361 . S
C56 C64 1.457 . S
C57 N52 1.363 . S
C57 N54 1.377 . S
C57 C70 1.479 . S
C58 C55 1.480 . S
C58 C59 1.383 . S
C58 C63 1.385 . S
C59 H40 0.947 . S
C59 C58 1.383 . S
C59 C60 1.388 . S
C60 H41 0.946 . S
C60 C59 1.388 . S
C60 C61 1.384 . S
C61 C60 1.384 . S
C61 C62 1.377 . S
C62 H42 0.953 . S
C62 C61 1.377 . S
C62 C63 1.369 . S
C63 H43 0.945 . S
C63 C58 1.385 . S
C63 C62 1.369 . S
C64 C56 1.457 . S
C64 C65 1.372 . S
C64 C69 1.364 . S
C65 H44 0.952 . S
C65 C64 1.372 . S
C65 C66 1.389 1_554 S
C66 H45 0.949 . S
C66 C65 1.389 1_556 S
C66 C67 1.387 . S
C67 C66 1.387 . S
C67 C68 1.372 1_556 S
C68 H46 0.950 . S
C68 C67 1.372 1_554 S
C68 C69 1.379 . S
C69 H47 0.948 . S
C69 C64 1.364 . S
C69 C68 1.379 . S
C70 C39 1.383 . S
C70 C57 1.479 . S
C70 C71 1.398 . S
C71 C36 1.382 . S
C71 H48 0.951 . S
C71 C70 1.398 . S
C72 C73 1.384 . S
C72 H85 0.947 . S
C72 C107 1.382 . S
C73 C72 1.384 . S
C73 C74 1.378 . S
C74 C73 1.378 . S
C74 C75 1.378 . S
C74 H86 0.952 . S
C75 C74 1.378 . S
C75 H87 0.950 . S
C75 C106 1.383 . S
H76 C95 0.947 . S
H77 C96 0.946 . S
H78 C98 0.953 . S
H79 C99 0.945 . S
H80 C101 0.952 . S
H81 C102 0.949 . S
H82 C104 0.950 . S
H83 C105 0.948 . S
H84 C107 0.951 . S
H85 C72 0.947 . S
H86 C74 0.952 . S
H87 C75 0.950 . S
N88 C91 1.382 . S
N88 C93 1.363 . S
N89 C91 1.371 . S
N89 C92 1.372 . S
N90 C92 1.361 . S
N90 C93 1.377 . S
C91 N88 1.382 . S
C91 N89 1.371 . S
C91 C94 1.480 . S
C92 N89 1.372 . S
C92 N90 1.361 . S
C92 C100 1.457 . S
C93 N88 1.363 . S
C93 N90 1.377 . S
C93 C106 1.479 . S
C94 C91 1.480 . S
C94 C95 1.383 . S
C94 C99 1.385 . S
C95 H76 0.947 . S
C95 C94 1.383 . S
C95 C96 1.388 . S
C96 H77 0.946 . S
C96 C95 1.388 . S
C96 C97 1.384 . S
C97 C96 1.384 . S
C97 C98 1.377 . S
C98 H78 0.953 . S
C98 C97 1.377 . S
C98 C99 1.369 . S
C99 H79 0.945 . S
C99 C94 1.385 . S
C99 C98 1.369 . S
C100 C92 1.457 . S
C100 C101 1.372 . S
C100 C105 1.364 . S
C101 H80 0.952 . S
C101 C100 1.372 . S
C101 C102 1.389 1_554 S
C102 H81 0.949 . S
C102 C101 1.389 1_556 S
C102 C103 1.387 . S
C103 C102 1.387 . S
C103 C104 1.372 1_556 S
C104 H82 0.950 . S
C104 C103 1.372 1_554 S
C104 C105 1.379 . S
C105 H83 0.948 . S
C105 C100 1.364 . S
C105 C104 1.379 . S
C106 C75 1.383 . S
C106 C93 1.479 . S
C106 C107 1.398 . S
C107 C72 1.382 . S
C107 H84 0.951 . S
C107 C106 1.398 . S
C108 C109 1.384 1_554 S
C108 H121 0.947 . S
C108 C143 1.382 . S
C109 C108 1.384 1_556 S
C109 C110 1.378 . S
C110 C109 1.378 . S
C110 C111 1.378 1_556 S
C110 H122 0.952 . S
C111 C110 1.378 1_554 S
C111 H123 0.950 1_554 S
C111 C142 1.383 . S
H112 C131 0.947 . S
H113 C132 0.946 . S
H114 C134 0.953 . S
H115 C135 0.945 . S
H116 C137 0.952 . S
H117 C138 0.949 . S
H118 C140 0.950 . S
H119 C141 0.948 . S
H120 C143 0.951 . S
H121 C108 0.947 . S
H122 C110 0.952 . S
H123 C111 0.950 1_556 S
N124 C127 1.382 . S
N124 C129 1.363 . S
N125 C127 1.371 . S
N125 C128 1.372 . S
N126 C128 1.361 . S
N126 C129 1.377 . S
C127 N124 1.382 . S
C127 N125 1.371 . S
C127 C130 1.480 . S
C128 N125 1.372 . S
C128 N126 1.361 . S
C128 C136 1.457 . S
C129 N124 1.363 . S
C129 N126 1.377 . S
C129 C142 1.479 . S
C130 C127 1.480 . S
C130 C131 1.383 . S
C130 C135 1.385 . S
C131 H112 0.947 . S
C131 C130 1.383 . S
C131 C132 1.388 . S
C132 H113 0.946 . S
C132 C131 1.388 . S
C132 C133 1.384 . S
C133 C132 1.384 . S
C133 C134 1.377 . S
C134 H114 0.953 . S
C134 C133 1.377 . S
C134 C135 1.369 . S
C135 H115 0.945 . S
C135 C130 1.385 . S
C135 C134 1.369 . S
C136 C128 1.457 . S
C136 C137 1.372 . S
C136 C141 1.364 . S
C137 H116 0.952 . S
C137 C136 1.372 . S
C137 C138 1.389 . S
C138 H117 0.949 . S
C138 C137 1.389 . S
C138 C139 1.387 . S
C139 C138 1.387 . S
C139 C140 1.372 . S
C140 H118 0.950 . S
C140 C139 1.372 . S
C140 C141 1.379 . S
C141 H119 0.948 . S
C141 C136 1.364 . S
C141 C140 1.379 . S
C142 C111 1.383 . S
C142 C129 1.479 . S
C142 C143 1.398 . S
C143 C108 1.382 . S
C143 H120 0.951 . S
C143 C142 1.398 . S
C144 C145 1.384 . S
C144 H157 0.947 . S
C144 C179 1.382 . S
C145 C144 1.384 . S
C145 C146 1.378 . S
C146 C145 1.378 . S
C146 C147 1.378 . S
C146 H158 0.952 . S
C147 C146 1.378 . S
C147 H159 0.950 . S
C147 C178 1.383 . S
H148 C167 0.947 1_556 S
H149 C168 0.946 1_556 S
H150 C170 0.953 . S
H151 C171 0.945 . S
H152 C173 0.952 . S
H153 C174 0.949 . S
H154 C176 0.950 . S
H155 C177 0.948 . S
H156 C179 0.951 . S
H157 C144 0.947 . S
H158 C146 0.952 . S
H159 C147 0.950 . S
N160 C163 1.382 1_556 S
N160 C165 1.363 . S
N161 C163 1.371 . S
N161 C164 1.372 . S
N162 C164 1.361 . S
N162 C165 1.377 1_554 S
C163 N160 1.382 1_554 S
C163 N161 1.371 . S
C163 C166 1.480 . S
C164 N161 1.372 . S
C164 N162 1.361 . S
C164 C172 1.457 . S
C165 N160 1.363 . S
C165 N162 1.377 1_556 S
C165 C178 1.479 . S
C166 C163 1.480 . S
C166 C167 1.383 . S
C166 C171 1.385 . S
C167 H148 0.947 1_554 S
C167 C166 1.383 . S
C167 C168 1.388 . S
C168 H149 0.946 1_554 S
C168 C167 1.388 . S
C168 C169 1.384 . S
C169 C168 1.384 . S
C169 C170 1.377 . S
C170 H150 0.953 . S
C170 C169 1.377 . S
C170 C171 1.369 . S
C171 H151 0.945 . S
C171 C166 1.385 . S
C171 C170 1.369 . S
C172 C164 1.457 . S
C172 C173 1.372 . S
C172 C177 1.364 . S
C173 H152 0.952 . S
C173 C172 1.372 . S
C173 C174 1.389 . S
C174 H153 0.949 . S
C174 C173 1.389 . S
C174 C175 1.387 . S
C175 C174 1.387 . S
C175 C176 1.372 . S
C176 H154 0.950 . S
C176 C175 1.372 . S
C176 C177 1.379 . S
C177 H155 0.948 . S
C177 C172 1.364 . S
C177 C176 1.379 . S
C178 C147 1.383 . S
C178 C165 1.479 . S
C178 C179 1.398 . S
C179 C144 1.382 . S
C179 H156 0.951 . S
C179 C178 1.398 . S
C180 C181 1.384 . S
C180 H193 0.947 . S
C180 C215 1.382 . S
C181 C180 1.384 . S
C181 C182 1.378 . S
C182 C181 1.378 . S
C182 C183 1.378 . S
C182 H194 0.952 . S
C183 C182 1.378 . S
C183 H195 0.950 . S
C183 C214 1.383 . S
H184 C203 0.947 . S
H185 C204 0.946 1_556 S
H186 C206 0.953 . S
H187 C207 0.945 . S
H188 C209 0.952 . S
H189 C210 0.949 . S
H190 C212 0.950 . S
H191 C213 0.948 . S
H192 C215 0.951 . S
H193 C180 0.947 . S
H194 C182 0.952 . S
H195 C183 0.950 . S
N196 C199 1.382 1_556 S
N196 C201 1.363 . S
N197 C199 1.371 . S
N197 C200 1.372 . S
N198 C200 1.370 . S
N198 C201 1.369 1_554 S
C199 N196 1.382 1_554 S
C199 N197 1.371 . S
C199 C202 1.480 . S
C200 N197 1.372 . S
C200 N198 1.370 . S
C200 C208 1.457 . S
C201 N196 1.363 . S
C201 N198 1.369 1_556 S
C201 C214 1.479 . S
C202 C199 1.480 . S
C202 C203 1.383 1_554 S
C202 C207 1.385 . S
C203 H184 0.947 . S
C203 C202 1.383 1_556 S
C203 C204 1.388 1_556 S
C204 H185 0.946 1_554 S
C204 C203 1.388 1_554 S
C204 C205 1.384 . S
C205 C204 1.384 . S
C205 C206 1.377 . S
C206 H186 0.953 . S
C206 C205 1.377 . S
C206 C207 1.369 . S
C207 H187 0.945 . S
C207 C202 1.385 . S
C207 C206 1.369 . S
C208 C200 1.457 . S
C208 C209 1.372 . S
C208 C213 1.364 . S
C209 H188 0.952 . S
C209 C208 1.372 . S
C209 C210 1.389 . S
C210 H189 0.949 . S
C210 C209 1.389 . S
C210 C211 1.387 . S
C211 C210 1.387 . S
C211 C212 1.372 . S
C212 H190 0.950 . S
C212 C211 1.372 . S
C212 C213 1.379 . S
C213 H191 0.948 . S
C213 C208 1.364 . S
C213 C212 1.379 . S
C214 C183 1.383 . S
C214 C201 1.479 . S
C214 C215 1.398 . S
C215 C180 1.382 . S
C215 H192 0.951 . S
C215 C214 1.398 . S
C216 C217 1.384 . S
C216 H229 0.947 . S
C216 C251 1.382 . S
C217 C216 1.384 . S
C217 C218 1.378 . S
C218 C217 1.378 . S
C218 C219 1.378 . S
C218 H230 0.952 . S
C219 C218 1.378 . S
C219 H231 0.950 . S
C219 C250 1.383 . S
H220 C239 0.947 . S
H221 C240 0.946 1_556 S
H222 C242 0.953 . S
H223 C243 0.945 . S
H224 C245 0.952 . S
H225 C246 0.949 . S
H226 C248 0.950 . S
H227 C249 0.948 . S
H228 C251 0.951 . S
H229 C216 0.947 . S
H230 C218 0.952 . S
H231 C219 0.950 . S
N232 C235 1.382 1_556 S
N232 C237 1.363 . S
N233 C235 1.371 . S
N233 C236 1.372 . S
N234 C236 1.346 1_556 S
N234 C237 1.388 . S
C235 N232 1.382 1_554 S
C235 N233 1.371 . S
C235 C238 1.480 . S
C236 N233 1.372 . S
C236 N234 1.346 1_554 S
C236 C244 1.457 . S
C237 N232 1.363 . S
C237 N234 1.388 . S
C237 C250 1.479 . S
C238 C235 1.480 . S
C238 C239 1.383 1_554 S
C238 C243 1.385 . S
C239 H220 0.947 . S
C239 C238 1.383 1_556 S
C239 C240 1.388 1_556 S
C240 H221 0.946 1_554 S
C240 C239 1.388 1_554 S
C240 C241 1.384 . S
C241 C240 1.384 . S
C241 C242 1.377 . S
C242 H222 0.953 . S
C242 C241 1.377 . S
C242 C243 1.369 . S
C243 H223 0.945 . S
C243 C238 1.385 . S
C243 C242 1.369 . S
C244 C236 1.457 . S
C244 C245 1.372 . S
C244 C249 1.364 . S
C245 H224 0.952 . S
C245 C244 1.372 . S
C245 C246 1.389 . S
C246 H225 0.949 . S
C246 C245 1.389 . S
C246 C247 1.387 . S
C247 C246 1.387 . S
C247 C248 1.372 . S
C248 H226 0.950 . S
C248 C247 1.372 . S
C248 C249 1.379 . S
C249 H227 0.948 . S
C249 C244 1.364 . S
C249 C248 1.379 . S
C250 C219 1.383 . S
C250 C237 1.479 . S
C250 C251 1.398 . S
C251 C216 1.382 . S
C251 H228 0.951 . S
C251 C250 1.398 . S
C252 C253 1.384 . S
C252 H265 0.947 . S
C252 C287 1.382 . S
C253 C252 1.384 . S
C253 C254 1.378 . S
C254 C253 1.378 . S
C254 C255 1.378 . S
C254 H266 0.952 . S
C255 C254 1.378 . S
C255 H267 0.950 . S
C255 C286 1.383 . S
H256 C275 0.947 . S
H257 C276 0.946 . S
H258 C278 0.953 1_556 S
H259 C279 0.945 . S
H260 C281 0.952 . S
H261 C282 0.949 . S
H262 C284 0.950 . S
H263 C285 0.948 . S
H264 C287 0.951 . S
H265 C252 0.947 . S
H266 C254 0.952 . S
H267 C255 0.950 . S
N268 C271 1.382 . S
N268 C273 1.363 . S
N269 C271 1.371 1_556 S
N269 C272 1.372 . S
N270 C272 1.367 . S
N270 C273 1.369 1_556 S
C271 N268 1.382 . S
C271 N269 1.371 1_554 S
C271 C274 1.480 . S
C272 N269 1.372 . S
C272 N270 1.367 . S
C272 C280 1.457 . S
C273 N268 1.363 . S
C273 N270 1.369 1_554 S
C273 C286 1.479 . S
C274 C271 1.480 . S
C274 C275 1.383 . S
C274 C279 1.385 1_554 S
C275 H256 0.947 . S
C275 C274 1.383 . S
C275 C276 1.388 . S
C276 H257 0.946 . S
C276 C275 1.388 . S
C276 C277 1.384 . S
C277 C276 1.384 . S
C277 C278 1.377 . S
C278 H258 0.953 1_554 S
C278 C277 1.377 . S
C278 C279 1.369 1_554 S
C279 H259 0.945 . S
C279 C274 1.385 1_556 S
C279 C278 1.369 1_556 S
C280 C272 1.457 . S
C280 C281 1.372 . S
C280 C285 1.364 . S
C281 H260 0.952 . S
C281 C280 1.372 . S
C281 C282 1.389 . S
C282 H261 0.949 . S
C282 C281 1.389 . S
C282 C283 1.387 . S
C283 C282 1.387 . S
C283 C284 1.372 . S
C284 H262 0.950 . S
C284 C283 1.372 . S
C284 C285 1.379 . S
C285 H263 0.948 . S
C285 C280 1.364 . S
C285 C284 1.379 . S
C286 C255 1.383 . S
C286 C273 1.479 . S
C286 C287 1.398 . S
C287 C252 1.382 . S
C287 H264 0.951 . S
C287 C286 1.398 . S
Gd288 N319 2.661 . S
Gd288 N325 2.601 . S
Gd288 O332 2.545 . S
Gd288 O333 2.606 1_655 S
Gd288 O335 2.429 . S
Gd288 O336 2.545 1_655 S
Gd288 O337 2.412 . S
Gd288 O339 2.362 1_545 S
Gd288 O340 2.324 1_655 S
Gd288 C347 2.828 . S
Gd289 N298 2.661 1_565 S
Gd289 N302 2.601 . S
Gd289 O333 2.362 1_565 S
Gd289 O334 2.324 1_455 S
Gd289 O338 2.545 . S
Gd289 O339 2.606 1_455 S
Gd289 O341 2.429 . S
Gd289 O342 2.545 . S
Gd289 O343 2.412 . S
Gd289 C356 2.828 . S
C290 C293 1.417 . S
C290 C295 1.431 . S
C290 C296 1.412 . S
C291 C294 1.437 . S
C291 C295 1.317 . S
C291 H310 0.929 . S
C292 C293 1.426 . S
C292 C294 1.413 . S
C292 N302 1.359 1_545 S
C293 C290 1.417 . S
C293 C292 1.426 . S
C293 N298 1.350 . S
C294 C291 1.437 . S
C294 C292 1.413 . S
C294 C304 1.391 1_545 S
C295 C290 1.431 . S
C295 C291 1.317 . S
C295 H306 0.930 . S
C296 C290 1.412 . S
C296 C297 1.355 . S
C296 H308 0.930 . S
C297 C296 1.355 . S
C297 C299 1.402 . S
C297 H309 0.930 1_455 S
N298 Gd289 2.661 1_545 S
N298 C293 1.350 . S
N298 C299 1.307 . S
C299 C297 1.402 . S
C299 N298 1.307 . S
C299 H300 0.930 1_455 S
H300 C299 0.930 1_655 S
C301 N302 1.334 . S
C301 C303 1.394 . S
C301 H305 0.930 . S
N302 Gd289 2.601 . S
N302 C292 1.359 1_565 S
N302 C301 1.334 . S
C303 C301 1.394 . S
C303 C304 1.359 . S
C303 H315 0.930 . S
C304 C294 1.391 1_565 S
C304 C303 1.359 . S
C304 H316 0.929 . S
H305 C301 0.930 . S
H306 C295 0.930 . S
H307 C324 0.930 . S
H308 C296 0.930 . S
H309 C297 0.930 1_655 S
H310 C291 0.929 . S
H311 C329 0.930 . S
H312 C320 0.930 . S
H313 C321 0.930 . S
H314 C345 0.929 . S
H315 C303 0.930 . S
H316 C304 0.929 . S
H317 C346 0.930 . S
H318 C327 0.930 . S
N319 Gd288 2.661 . S
N319 C323 1.346 1_545 S
N319 C324 1.307 1_645 S
C320 H312 0.930 . S
C320 C321 1.355 1_655 S
C320 C322 1.412 . S
C321 H313 0.930 . S
C321 C320 1.355 1_455 S
C321 C324 1.402 . S
C322 C320 1.412 . S
C322 C323 1.435 . S
C322 C346 1.431 . S
C323 N319 1.346 1_565 S
C323 C322 1.435 . S
C323 C326 1.414 1_565 S
C324 H307 0.930 . S
C324 N319 1.307 1_465 S
C324 C321 1.402 . S
N325 Gd288 2.601 . S
N325 C326 1.359 . S
N325 C329 1.334 . S
C326 C323 1.414 1_545 S
C326 N325 1.359 . S
C326 C330 1.413 . S
C327 H318 0.930 . S
C327 C328 1.359 . S
C327 C329 1.394 . S
C328 C327 1.359 . S
C328 C330 1.391 . S
C328 H331 0.929 . S
C329 H311 0.930 . S
C329 N325 1.334 . S
C329 C327 1.394 . S
C330 C326 1.413 . S
C330 C328 1.391 . S
C330 C345 1.437 1_545 S
H331 C328 0.929 . S
O332 Gd288 2.545 . S
O332 C347 1.258 . S
O333 Gd288 2.606 1_455 S
O333 Gd289 2.362 1_545 S
O333 C344 1.284 . S
O334 Gd289 2.324 1_655 S
O334 C354 1.254 1_565 S
O335 Gd288 2.429 . S
O335 C354 1.268 . S
O336 Gd288 2.545 1_455 S
O336 C344 1.250 . S
O337 Gd288 2.412 . S
O337 C347 1.252 . S
O338 Gd289 2.545 . S
O338 C356 1.258 . S
O339 Gd288 2.362 1_565 S
O339 Gd289 2.606 1_655 S
O339 C355 1.284 . S
O340 Gd288 2.324 1_455 S
O340 C363 1.254 . S
O341 Gd289 2.429 . S
O341 C363 1.268 1_565 S
O342 Gd289 2.545 . S
O342 C355 1.250 1_455 S
O343 Gd289 2.412 . S
O343 C356 1.252 . S
C344 O333 1.284 . S
C344 O336 1.250 . S
C345 H314 0.929 . S
C345 C330 1.437 1_565 S
C345 C346 1.317 . S
C346 H317 0.930 . S
C346 C322 1.431 . S
C346 C345 1.317 . S
C347 Gd288 2.828 . S
C347 O332 1.258 . S
C347 O337 1.252 . S
C347 C348 1.497 . S
C348 C347 1.497 . S
C348 C349 1.395 . S
C348 C350 1.380 . S
C349 C348 1.395 . S
C349 C352 1.398 . S
C349 H364 0.930 . S
C350 C348 1.380 . S
C350 C351 1.391 . S
C350 H365 0.930 1_655 S
C351 C350 1.391 . S
C351 C353 1.387 . S
C352 C349 1.398 . S
C352 C353 1.380 . S
C352 H366 0.930 . S
C353 C351 1.387 . S
C353 C352 1.380 . S
C353 H367 0.930 . S
C354 O334 1.254 1_545 S
C354 O335 1.268 . S
C355 O339 1.284 . S
C355 O342 1.250 1_655 S
C356 Gd289 2.828 . S
C356 O338 1.258 . S
C356 O343 1.252 . S
C356 C357 1.497 . S
C357 C356 1.497 . S
C357 C358 1.395 . S
C357 C359 1.380 . S
C358 C357 1.395 . S
C358 C361 1.398 . S
C358 H368 0.930 . S
C359 C357 1.380 . S
C359 C360 1.391 . S
C359 H369 0.930 1_455 S
C360 C359 1.391 . S
C360 C362 1.387 . S
C361 C358 1.398 . S
C361 C362 1.380 . S
C361 H370 0.930 . S
C362 C360 1.387 . S
C362 C361 1.380 . S
C362 H371 0.930 . S
C363 O340 1.254 . S
C363 O341 1.268 1_545 S
H364 C349 0.930 . S
H365 C350 0.930 1_455 S
H366 C352 0.930 . S
H367 C353 0.930 . S
H368 C358 0.930 . S
H369 C359 0.930 1_655 S
H370 C361 0.930 . S
H371 C362 0.930 . S
Gd372 N403 2.661 . S
Gd372 N409 2.601 . S
Gd372 O416 2.545 . S
Gd372 O417 2.606 1_565 S
Gd372 O419 2.429 . S
Gd372 O420 2.545 1_565 S
Gd372 O421 2.412 . S
Gd372 O423 2.362 . S
Gd372 O424 2.324 1_565 S
Gd372 C431 2.828 . S
Gd373 N382 2.661 . S
Gd373 N386 2.601 . S
Gd373 O417 2.362 . S
Gd373 O418 2.324 1_545 S
Gd373 O422 2.545 . S
Gd373 O423 2.606 1_545 S
Gd373 O425 2.429 . S
Gd373 O426 2.545 . S
Gd373 O427 2.412 . S
Gd373 C440 2.828 . S
C374 C377 1.417 . S
C374 C379 1.431 . S
C374 C380 1.412 . S
C375 C378 1.437 . S
C375 C379 1.317 . S
C375 H394 0.929 . S
C376 C377 1.426 . S
C376 C378 1.413 . S
C376 N386 1.359 . S
C377 C374 1.417 . S
C377 C376 1.426 . S
C377 N382 1.350 . S
C378 C375 1.437 . S
C378 C376 1.413 . S
C378 C388 1.391 . S
C379 C374 1.431 . S
C379 C375 1.317 . S
C379 H390 0.930 . S
C380 C374 1.412 . S
C380 C381 1.355 . S
C380 H392 0.930 . S
C381 C380 1.355 . S
C381 C383 1.402 . S
C381 H393 0.930 1_545 S
N382 Gd373 2.661 . S
N382 C377 1.350 . S
N382 C383 1.307 . S
C383 C381 1.402 . S
C383 N382 1.307 . S
C383 H384 0.930 1_545 S
H384 C383 0.930 1_565 S
C385 N386 1.334 . S
C385 C387 1.394 . S
C385 H389 0.930 . S
N386 Gd373 2.601 . S
N386 C376 1.359 . S
N386 C385 1.334 . S
C387 C385 1.394 . S
C387 C388 1.359 . S
C387 H399 0.930 . S
C388 C378 1.391 . S
C388 C387 1.359 . S
C388 H400 0.929 . S
H389 C385 0.930 . S
H390 C379 0.930 . S
H391 C408 0.930 . S
H392 C380 0.930 . S
H393 C381 0.930 1_565 S
H394 C375 0.929 . S
H395 C413 0.930 . S
H396 C404 0.930 . S
H397 C405 0.930 . S
H398 C429 0.929 . S
H399 C387 0.930 . S
H400 C388 0.929 . S
H401 C430 0.930 . S
H402 C411 0.930 . S
N403 Gd372 2.661 . S
N403 C407 1.350 . S
N403 C408 1.307 1_565 S
C404 H396 0.930 . S
C404 C405 1.355 1_565 S
C404 C406 1.412 . S
C405 H397 0.930 . S
C405 C404 1.355 1_545 S
C405 C408 1.402 . S
C406 C404 1.412 . S
C406 C407 1.417 . S
C406 C430 1.431 . S
C407 N403 1.350 . S
C407 C406 1.417 . S
C407 C410 1.426 . S
C408 H391 0.930 . S
C408 N403 1.307 1_545 S
C408 C405 1.402 . S
N409 Gd372 2.601 . S
N409 C410 1.359 . S
N409 C413 1.334 . S
C410 C407 1.426 . S
C410 N409 1.359 . S
C410 C414 1.413 . S
C411 H402 0.930 . S
C411 C412 1.359 . S
C411 C413 1.394 . S
C412 C411 1.359 . S
C412 C414 1.391 . S
C412 H415 0.929 . S
C413 H395 0.930 . S
C413 N409 1.334 . S
C413 C411 1.394 . S
C414 C410 1.413 . S
C414 C412 1.391 . S
C414 C429 1.437 . S
H415 C412 0.929 . S
O416 Gd372 2.545 . S
O416 C431 1.258 . S
O417 Gd372 2.606 1_545 S
O417 Gd373 2.362 . S
O417 C428 1.284 . S
O418 Gd373 2.324 1_565 S
O418 C438 1.254 . S
O419 Gd372 2.429 . S
O419 C438 1.268 . S
O420 Gd372 2.545 1_545 S
O420 C428 1.250 . S
O421 Gd372 2.412 . S
O421 C431 1.252 . S
O422 Gd373 2.545 . S
O422 C440 1.258 . S
O423 Gd372 2.362 . S
O423 Gd373 2.606 1_565 S
O423 C439 1.284 . S
O424 Gd372 2.324 1_545 S
O424 C447 1.254 . S
O425 Gd373 2.429 . S
O425 C447 1.268 . S
O426 Gd373 2.545 . S
O426 C439 1.250 1_545 S
O427 Gd373 2.412 . S
O427 C440 1.252 . S
C428 O417 1.284 . S
C428 O420 1.250 . S
C429 H398 0.929 . S
C429 C414 1.437 . S
C429 C430 1.317 . S
C430 H401 0.930 . S
C430 C406 1.431 . S
C430 C429 1.317 . S
C431 Gd372 2.828 . S
C431 O416 1.258 . S
C431 O421 1.252 . S
C431 C432 1.497 . S
C432 C431 1.497 . S
C432 C433 1.395 . S
C432 C434 1.419 . S
C433 C432 1.395 . S
C433 C436 1.398 . S
C433 H448 0.930 . S
C434 C432 1.419 . S
C434 C435 1.395 . S
C434 H449 0.889 1_565 S
C435 C434 1.395 . S
C435 C437 1.387 . S
C436 C433 1.398 . S
C436 C437 1.380 . S
C436 H450 0.930 . S
C437 C435 1.387 . S
C437 C436 1.380 . S
C437 H451 0.930 . S
C438 O418 1.254 . S
C438 O419 1.268 . S
C439 O423 1.284 . S
C439 O426 1.250 1_565 S
C440 Gd373 2.828 . S
C440 O422 1.258 . S
C440 O427 1.252 . S
C440 C441 1.497 . S
C441 C440 1.497 . S
C441 C442 1.395 . S
C441 C443 1.380 . S
C442 C441 1.395 . S
C442 C445 1.398 . S
C442 H452 0.930 . S
C443 C441 1.380 . S
C443 C444 1.391 . S
C443 H453 0.933 1_545 S
C444 C443 1.391 . S
C444 C446 1.387 . S
C445 C442 1.398 . S
C445 C446 1.380 . S
C445 H454 0.930 . S
C446 C444 1.387 . S
C446 C445 1.380 . S
C446 H455 0.930 . S
C447 O424 1.254 . S
C447 O425 1.268 . S
H448 C433 0.930 . S
H449 C434 0.889 1_545 S
H450 C436 0.930 . S
H451 C437 0.930 . S
H452 C442 0.930 . S
H453 C443 0.933 1_565 S
H454 C445 0.930 . S
H455 C446 0.930 . S
Gd456 N487 2.661 . S
Gd456 N493 2.601 . S
Gd456 O500 2.545 . S
Gd456 O501 2.606 . S
Gd456 O503 2.429 . S
Gd456 O504 2.545 . S
Gd456 O505 2.412 . S
Gd456 O507 2.362 . S
Gd456 O508 2.324 . S
Gd456 C515 2.828 . S
Gd457 N466 2.661 . S
Gd457 N470 2.601 . S
Gd457 O501 2.362 . S
Gd457 O502 2.324 . S
Gd457 O506 2.545 . S
Gd457 O507 2.606 . S
Gd457 O509 2.429 . S
Gd457 O510 2.545 . S
Gd457 O511 2.412 . S
Gd457 C524 2.828 . S
C458 C461 1.417 . S
C458 C463 1.431 . S
C458 C464 1.412 . S
C459 C462 1.437 . S
C459 C463 1.317 . S
C459 H478 0.929 . S
C460 C461 1.426 . S
C460 C462 1.413 . S
C460 N470 1.359 . S
C461 C458 1.417 . S
C461 C460 1.426 . S
C461 N466 1.350 . S
C462 C459 1.437 . S
C462 C460 1.413 . S
C462 C472 1.391 . S
C463 C458 1.431 . S
C463 C459 1.317 . S
C463 H474 0.930 . S
C464 C458 1.412 . S
C464 C465 1.355 . S
C464 H476 0.930 . S
C465 C464 1.355 . S
C465 C467 1.402 . S
C465 H477 0.930 . S
N466 Gd457 2.661 . S
N466 C461 1.350 . S
N466 C467 1.307 . S
C467 C465 1.402 . S
C467 N466 1.307 . S
C467 H468 0.930 . S
H468 C467 0.930 . S
C469 N470 1.334 . S
C469 C471 1.394 . S
C469 H473 0.930 . S
N470 Gd457 2.601 . S
N470 C460 1.359 . S
N470 C469 1.334 . S
C471 C469 1.394 . S
C471 C472 1.359 . S
C471 H483 0.930 . S
C472 C462 1.391 . S
C472 C471 1.359 . S
C472 H484 0.929 . S
H473 C469 0.930 . S
H474 C463 0.930 . S
H475 C492 0.930 . S
H476 C464 0.930 . S
H477 C465 0.930 . S
H478 C459 0.929 . S
H479 C497 0.930 . S
H480 C488 0.930 . S
H481 C489 0.930 . S
H482 C513 0.929 . S
H483 C471 0.930 . S
H484 C472 0.929 . S
H485 C514 0.930 . S
H486 C495 0.930 . S
N487 Gd456 2.661 . S
N487 C491 1.350 . S
N487 C492 1.307 . S
C488 H480 0.930 . S
C488 C489 1.355 . S
C488 C490 1.412 . S
C489 H481 0.930 . S
C489 C488 1.355 . S
C489 C492 1.402 . S
C490 C488 1.412 . S
C490 C491 1.417 . S
C490 C514 1.431 . S
C491 N487 1.350 . S
C491 C490 1.417 . S
C491 C494 1.426 . S
C492 H475 0.930 . S
C492 N487 1.307 . S
C492 C489 1.402 . S
N493 Gd456 2.601 . S
N493 C494 1.359 . S
N493 C497 1.334 . S
C494 C491 1.426 . S
C494 N493 1.359 . S
C494 C498 1.413 . S
C495 H486 0.930 . S
C495 C496 1.359 . S
C495 C497 1.394 . S
C496 C495 1.359 . S
C496 C498 1.391 . S
C496 H499 0.929 . S
C497 H479 0.930 . S
C497 N493 1.334 . S
C497 C495 1.394 . S
C498 C494 1.413 . S
C498 C496 1.391 . S
C498 C513 1.437 . S
H499 C496 0.929 . S
O500 Gd456 2.545 . S
O500 C515 1.258 . S
O501 Gd456 2.606 . S
O501 Gd457 2.362 . S
O501 C512 1.284 . S
O502 Gd457 2.324 . S
O502 C522 1.254 . S
O503 Gd456 2.429 . S
O503 C522 1.268 . S
O504 Gd456 2.545 . S
O504 C512 1.250 . S
O505 Gd456 2.412 . S
O505 C515 1.252 . S
O506 Gd457 2.545 . S
O506 C524 1.258 . S
O507 Gd456 2.362 . S
O507 Gd457 2.606 . S
O507 C523 1.284 . S
O508 Gd456 2.324 . S
O508 C531 1.254 . S
O509 Gd457 2.429 . S
O509 C531 1.268 . S
O510 Gd457 2.545 . S
O510 C523 1.250 . S
O511 Gd457 2.412 . S
O511 C524 1.252 . S
C512 O501 1.284 . S
C512 O504 1.250 . S
C513 H482 0.929 . S
C513 C498 1.437 . S
C513 C514 1.317 . S
C514 H485 0.930 . S
C514 C490 1.431 . S
C514 C513 1.317 . S
C515 Gd456 2.828 . S
C515 O500 1.258 . S
C515 O505 1.252 . S
C515 C516 1.497 . S
C516 C515 1.497 . S
C516 C517 1.395 . S
C516 C518 1.380 . S
C517 C516 1.395 . S
C517 C520 1.398 . S
C517 H532 0.930 . S
C518 C516 1.380 . S
C518 C519 1.391 . S
C518 H533 0.930 . S
C519 C518 1.391 . S
C519 C521 1.387 . S
C520 C517 1.398 . S
C520 C521 1.380 . S
C520 H534 0.930 . S
C521 C519 1.387 . S
C521 C520 1.380 . S
C521 H535 0.930 . S
C522 O502 1.254 . S
C522 O503 1.268 . S
C523 O507 1.284 . S
C523 O510 1.250 . S
C524 Gd457 2.828 . S
C524 O506 1.258 . S
C524 O511 1.252 . S
C524 C525 1.497 . S
C525 C524 1.497 . S
C525 C526 1.395 . S
C525 C527 1.380 . S
C526 C525 1.395 . S
C526 C529 1.398 . S
C526 H536 0.930 . S
C527 C525 1.380 . S
C527 C528 1.391 . S
C527 H537 0.930 . S
C528 C527 1.391 . S
C528 C530 1.387 . S
C529 C526 1.398 . S
C529 C530 1.380 . S
C529 H538 0.930 . S
C530 C528 1.387 . S
C530 C529 1.380 . S
C530 H539 0.930 . S
C531 O508 1.254 . S
C531 O509 1.268 . S
H532 C517 0.930 . S
H533 C518 0.930 . S
H534 C520 0.930 . S
H535 C521 0.930 . S
H536 C526 0.930 . S
H537 C527 0.930 . S
H538 C529 0.930 . S
H539 C530 0.930 . S
Gd540 N571 2.661 . S
Gd540 N577 2.601 . S
Gd540 O584 2.545 . S
Gd540 O585 2.585 1_655 S
Gd540 O587 2.429 1_655 S
Gd540 O588 2.545 . S
Gd540 O589 2.412 . S
Gd540 O591 2.362 1_655 S
Gd540 O592 2.324 . S
Gd540 C599 2.828 . S
Gd541 N550 2.661 . S
Gd541 N554 2.601 . S
Gd541 O585 2.396 . S
Gd541 O586 2.324 . S
Gd541 O590 2.545 . S
Gd541 O591 2.606 . S
Gd541 O593 2.429 1_455 S
Gd541 O594 2.545 . S
Gd541 O595 2.412 . S
Gd541 C608 2.828 . S
C542 C545 1.417 . S
C542 C547 1.431 . S
C542 C548 1.412 . S
C543 C546 1.437 . S
C543 C547 1.317 . S
C543 H562 0.929 . S
C544 C545 1.426 . S
C544 C546 1.413 . S
C544 N554 1.359 . S
C545 C542 1.417 . S
C545 C544 1.426 . S
C545 N550 1.350 . S
C546 C543 1.437 . S
C546 C544 1.413 . S
C546 C556 1.391 . S
C547 C542 1.431 . S
C547 C543 1.317 . S
C547 H558 0.930 . S
C548 C542 1.412 . S
C548 C549 1.355 . S
C548 H560 0.930 . S
C549 C548 1.355 . S
C549 C551 1.402 . S
C549 H561 0.930 . S
N550 Gd541 2.661 . S
N550 C545 1.350 . S
N550 C551 1.307 . S
C551 C549 1.402 . S
C551 N550 1.307 . S
C551 H552 0.930 . S
H552 C551 0.930 . S
C553 N554 1.334 . S
C553 C555 1.394 . S
C553 H557 0.930 1_455 S
N554 Gd541 2.601 . S
N554 C544 1.359 . S
N554 C553 1.334 . S
C555 C553 1.394 . S
C555 C556 1.359 . S
C555 H567 0.930 1_455 S
C556 C546 1.391 . S
C556 C555 1.359 . S
C556 H568 0.929 . S
H557 C553 0.930 1_655 S
H558 C547 0.930 . S
H559 C576 0.930 . S
H560 C548 0.930 . S
H561 C549 0.930 . S
H562 C543 0.929 . S
H563 C581 0.930 . S
H564 C572 0.930 . S
H565 C573 0.930 . S
H566 C597 0.929 . S
H567 C555 0.930 1_655 S
H568 C556 0.929 . S
H569 C598 0.930 . S
H570 C579 0.930 . S
N571 Gd540 2.661 . S
N571 C575 1.350 . S
N571 C576 1.307 . S
C572 H564 0.930 . S
C572 C573 1.355 . S
C572 C574 1.412 . S
C573 H565 0.930 . S
C573 C572 1.355 . S
C573 C576 1.402 . S
C574 C572 1.412 . S
C574 C575 1.417 . S
C574 C598 1.431 . S
C575 N571 1.350 . S
C575 C574 1.417 . S
C575 C578 1.426 . S
C576 H559 0.930 . S
C576 N571 1.307 . S
C576 C573 1.402 . S
N577 Gd540 2.601 . S
N577 C578 1.359 . S
N577 C581 1.334 1_655 S
C578 C575 1.426 . S
C578 N577 1.359 . S
C578 C582 1.413 . S
C579 H570 0.930 . S
C579 C580 1.359 1_455 S
C579 C581 1.394 . S
C580 C579 1.359 1_655 S
C580 C582 1.391 . S
C580 H583 0.929 . S
C581 H563 0.930 . S
C581 N577 1.334 1_455 S
C581 C579 1.394 . S
C582 C578 1.413 . S
C582 C580 1.391 . S
C582 C597 1.437 . S
H583 C580 0.929 . S
O584 Gd540 2.545 . S
O584 C599 1.258 . S
O585 Gd540 2.585 1_455 S
O585 Gd541 2.396 . S
O585 C596 1.261 1_455 S
O586 Gd541 2.324 . S
O586 C606 1.254 . S
O587 Gd540 2.429 1_455 S
O587 C606 1.268 . S
O588 Gd540 2.545 . S
O588 C596 1.250 . S
O589 Gd540 2.412 . S
O589 C599 1.252 . S
O590 Gd541 2.545 . S
O590 C608 1.258 . S
O591 Gd540 2.362 1_455 S
O591 Gd541 2.606 . S
O591 C607 1.284 . S
O592 Gd540 2.324 . S
O592 C615 1.254 . S
O593 Gd541 2.429 1_655 S
O593 C615 1.268 . S
O594 Gd541 2.545 . S
O594 C607 1.250 . S
O595 Gd541 2.412 . S
O595 C608 1.252 . S
C596 O585 1.261 1_655 S
C596 O588 1.250 . S
C597 H566 0.929 . S
C597 C582 1.437 . S
C597 C598 1.317 . S
C598 H569 0.930 . S
C598 C574 1.431 . S
C598 C597 1.317 . S
C599 Gd540 2.828 . S
C599 O584 1.258 . S
C599 O589 1.252 . S
C599 C600 1.497 . S
C600 C599 1.497 . S
C600 C601 1.395 . S
C600 C602 1.380 . S
C601 C600 1.395 . S
C601 C604 1.398 . S
C601 H616 0.930 . S
C602 C600 1.380 . S
C602 C603 1.391 . S
C602 H617 0.930 . S
C603 C602 1.391 . S
C603 C605 1.387 . S
C604 C601 1.398 . S
C604 C605 1.380 . S
C604 H618 0.930 . S
C605 C603 1.387 . S
C605 C604 1.380 . S
C605 H619 0.930 . S
C606 O586 1.254 . S
C606 O587 1.268 . S
C607 O591 1.284 . S
C607 O594 1.250 . S
C608 Gd541 2.828 . S
C608 O590 1.258 . S
C608 O595 1.252 . S
C608 C609 1.497 . S
C609 C608 1.497 . S
C609 C610 1.395 . S
C609 C611 1.380 . S
C610 C609 1.395 . S
C610 C613 1.398 . S
C610 H620 0.930 . S
C611 C609 1.380 . S
C611 C612 1.391 . S
C611 H621 0.930 . S
C612 C611 1.391 . S
C612 C614 1.387 . S
C613 C610 1.398 . S
C613 C614 1.380 . S
C613 H622 0.930 . S
C614 C612 1.387 . S
C614 C613 1.380 . S
C614 H623 0.930 . S
C615 O592 1.254 . S
C615 O593 1.268 . S
H616 C601 0.930 . S
H617 C602 0.930 . S
H618 C604 0.930 . S
H619 C605 0.930 . S
H620 C610 0.930 . S
H621 C611 0.930 . S
H622 C613 0.930 . S
H623 C614 0.930 . S
H624 C632 0.929 . S
H625 C634 0.930 . S
H626 C636 0.930 . S
H627 C639 0.929 . S
H628 C642 0.930 . S
H629 C644 0.960 . S
H630 C644 0.960 . S
H631 C644 0.960 . S
C632 H624 0.929 . S
C632 C633 1.377 . S
C632 C634 1.384 . S
C633 C632 1.377 . S
C633 C639 1.390 . S
C634 H625 0.930 . S
C634 C632 1.384 . S
C634 C635 1.372 . S
C635 C634 1.372 . S
C635 C636 1.400 . S
C635 C640 1.490 . S
C636 H626 0.930 . S
C636 C635 1.400 . S
C636 C639 1.386 . S
H637 C653 0.930 1_565 S
H638 C654 0.931 . S
C639 H627 0.929 . S
C639 C633 1.390 . S
C639 C636 1.386 . S
C640 C635 1.490 . S
C640 C642 1.395 . S
C640 C643 1.403 . S
H641 C647 0.930 . S
C642 H628 0.930 . S
C642 C640 1.395 . S
C642 C645 1.403 . S
C643 C640 1.403 . S
C643 C644 1.524 . S
C643 C647 1.400 . S
C644 H629 0.960 . S
C644 H630 0.960 . S
C644 H631 0.960 . S
C644 C643 1.524 . S
C645 C642 1.403 . S
C645 C646 1.392 . S
C645 C649 1.495 . S
C646 C645 1.392 . S
C646 C647 1.385 . S
C646 C648 1.478 . S
C647 H641 0.930 . S
C647 C643 1.400 . S
C647 C646 1.385 . S
C648 C646 1.478 . S
C648 C650 1.381 . S
C648 C654 1.383 . S
C649 C645 1.495 . S
C649 H655 0.959 . S
C649 H656 0.961 . S
C649 H657 0.960 . S
C650 C648 1.381 . S
C650 C651 1.394 . S
C650 H658 0.930 . S
C651 C650 1.394 . S
C651 C652 1.383 . S
C651 H659 0.929 . S
C652 C651 1.383 . S
C652 C653 1.377 . S
C653 H637 0.930 1_545 S
C653 C652 1.377 . S
C653 C654 1.379 . S
C654 H638 0.931 . S
C654 C648 1.383 . S
C654 C653 1.379 . S
H655 C649 0.959 . S
H656 C649 0.961 . S
H657 C649 0.960 . S
H658 C650 0.930 . S
H659 C651 0.929 . S
H660 C668 0.929 . S
H661 C670 0.930 . S
H662 C672 0.930 . S
H663 C675 0.929 . S
H664 C678 0.930 . S
H665 C680 0.960 . S
H666 C680 0.960 . S
H667 C680 0.960 . S
C668 H660 0.929 . S
C668 C669 1.377 . S
C668 C670 1.384 . S
C669 C668 1.377 . S
C669 C675 1.390 . S
C670 H661 0.930 . S
C670 C668 1.384 . S
C670 C671 1.372 . S
C671 C670 1.372 . S
C671 C672 1.400 . S
C671 C676 1.490 . S
C672 H662 0.930 . S
C672 C671 1.400 . S
C672 C675 1.386 . S
H673 C689 0.930 . S
H674 C690 0.931 . S
C675 H663 0.929 . S
C675 C669 1.390 . S
C675 C672 1.386 . S
C676 C671 1.490 . S
C676 C678 1.395 . S
C676 C679 1.403 . S
H677 C683 0.930 . S
C678 H664 0.930 . S
C678 C676 1.395 . S
C678 C681 1.403 . S
C679 C676 1.403 . S
C679 C680 1.524 . S
C679 C683 1.400 . S
C680 H665 0.960 . S
C680 H666 0.960 . S
C680 H667 0.960 . S
C680 C679 1.524 . S
C681 C678 1.403 . S
C681 C682 1.392 . S
C681 C685 1.495 . S
C682 C681 1.392 . S
C682 C683 1.385 . S
C682 C684 1.478 . S
C683 H677 0.930 . S
C683 C679 1.400 . S
C683 C682 1.385 . S
C684 C682 1.478 . S
C684 C686 1.381 . S
C684 C690 1.383 . S
C685 C681 1.495 . S
C685 H691 0.959 . S
C685 H692 0.961 . S
C685 H693 0.960 . S
C686 C684 1.381 . S
C686 C687 1.394 . S
C686 H694 0.930 . S
C687 C686 1.394 . S
C687 C688 1.383 . S
C687 H695 0.929 . S
C688 C687 1.383 . S
C688 C689 1.377 . S
C689 H673 0.930 . S
C689 C688 1.377 . S
C689 C690 1.379 . S
C690 H674 0.931 . S
C690 C684 1.383 . S
C690 C689 1.379 . S
H691 C685 0.959 . S
H692 C685 0.961 . S
H693 C685 0.960 . S
H694 C686 0.930 . S
H695 C687 0.929 . S
H696 C704 0.929 . S
H697 C706 0.930 . S
H698 C708 0.930 . S
H699 C711 0.929 . S
H700 C714 0.930 . S
H701 C716 0.960 . S
H702 C716 0.960 . S
H703 C716 0.960 . S
C704 H696 0.929 . S
C704 C705 1.377 . S
C704 C706 1.384 . S
C705 C704 1.377 . S
C705 C711 1.390 . S
C706 H697 0.930 . S
C706 C704 1.384 . S
C706 C707 1.372 . S
C707 C706 1.372 . S
C707 C708 1.400 . S
C707 C712 1.490 . S
C708 H698 0.930 . S
C708 C707 1.400 . S
C708 C711 1.386 . S
H709 C725 0.930 . S
H710 C726 0.931 . S
C711 H699 0.929 . S
C711 C705 1.390 . S
C711 C708 1.386 . S
C712 C707 1.490 . S
C712 C714 1.395 . S
C712 C715 1.403 . S
H713 C719 0.930 . S
C714 H700 0.930 . S
C714 C712 1.395 . S
C714 C717 1.403 . S
C715 C712 1.403 . S
C715 C716 1.524 . S
C715 C719 1.400 . S
C716 H701 0.960 . S
C716 H702 0.960 . S
C716 H703 0.960 . S
C716 C715 1.524 . S
C717 C714 1.403 . S
C717 C718 1.392 . S
C717 C721 1.495 . S
C718 C717 1.392 . S
C718 C719 1.385 . S
C718 C720 1.478 . S
C719 H713 0.930 . S
C719 C715 1.400 . S
C719 C718 1.385 . S
C720 C718 1.478 . S
C720 C722 1.381 . S
C720 C726 1.383 . S
C721 C717 1.495 . S
C721 H727 0.959 . S
C721 H728 0.961 . S
C721 H729 0.960 . S
C722 C720 1.381 . S
C722 C723 1.394 . S
C722 H730 0.930 . S
C723 C722 1.394 . S
C723 C724 1.383 . S
C723 H731 0.929 . S
C724 C723 1.383 . S
C724 C725 1.377 . S
C725 H709 0.930 . S
C725 C724 1.377 . S
C725 C726 1.379 . S
C726 H710 0.931 . S
C726 C720 1.383 . S
C726 C725 1.379 . S
H727 C721 0.959 . S
H728 C721 0.961 . S
H729 C721 0.960 . S
H730 C722 0.930 . S
H731 C723 0.929 . S
H732 C740 0.929 . S
H733 C742 0.930 . S
H734 C744 0.930 . S
H735 C747 0.929 . S
H736 C750 0.930 . S
H737 C752 0.960 . S
H738 C752 0.960 . S
H739 C752 0.960 . S
C740 H732 0.929 . S
C740 C741 1.377 . S
C740 C742 1.384 . S
C741 C740 1.377 . S
C741 C747 1.390 . S
C742 H733 0.930 . S
C742 C740 1.384 . S
C742 C743 1.372 . S
C743 C742 1.372 . S
C743 C744 1.400 . S
C743 C748 1.490 . S
C744 H734 0.930 . S
C744 C743 1.400 . S
C744 C747 1.386 . S
H745 C761 0.930 . S
H746 C762 0.931 . S
C747 H735 0.929 . S
C747 C741 1.390 . S
C747 C744 1.386 . S
C748 C743 1.490 . S
C748 C750 1.395 . S
C748 C751 1.403 . S
H749 C755 0.930 . S
C750 H736 0.930 . S
C750 C748 1.395 . S
C750 C753 1.403 . S
C751 C748 1.403 . S
C751 C752 1.524 . S
C751 C755 1.400 . S
C752 H737 0.960 . S
C752 H738 0.960 . S
C752 H739 0.960 . S
C752 C751 1.524 . S
C753 C750 1.403 . S
C753 C754 1.392 . S
C753 C757 1.495 . S
C754 C753 1.392 . S
C754 C755 1.385 . S
C754 C756 1.478 . S
C755 H749 0.930 . S
C755 C751 1.400 . S
C755 C754 1.385 . S
C756 C754 1.478 . S
C756 C758 1.381 . S
C756 C762 1.383 . S
C757 C753 1.495 . S
C757 H763 0.959 . S
C757 H764 0.961 . S
C757 H765 0.960 . S
C758 C756 1.381 . S
C758 C759 1.394 . S
C758 H766 0.930 . S
C759 C758 1.394 . S
C759 C760 1.383 . S
C759 H767 0.929 . S
C760 C759 1.383 . S
C760 C761 1.377 . S
C761 H745 0.930 . S
C761 C760 1.377 . S
C761 C762 1.379 . S
C762 H746 0.931 . S
C762 C756 1.383 . S
C762 C761 1.379 . S
H763 C757 0.959 . S
H764 C757 0.961 . S
H765 C757 0.960 . S
H766 C758 0.930 . S
H767 C759 0.929 . S
H768 C776 0.929 . S
H769 C778 0.930 . S
H770 C780 0.930 . S
H771 C783 0.929 . S
H772 C786 0.930 . S
H773 C788 0.960 . S
H774 C788 0.960 . S
H775 C788 0.960 . S
C776 H768 0.929 . S
C776 C777 1.377 . S
C776 C778 1.384 1_554 S
C777 C776 1.377 . S
C777 C783 1.390 . S
C778 H769 0.930 . S
C778 C776 1.384 1_556 S
C778 C779 1.372 . S
C779 C778 1.372 . S
C779 C780 1.400 . S
C779 C784 1.490 . S
C780 H770 0.930 . S
C780 C779 1.400 . S
C780 C783 1.386 1_556 S
H781 C797 0.930 . S
H782 C798 0.931 . S
C783 H771 0.929 . S
C783 C777 1.390 . S
C783 C780 1.386 1_554 S
C784 C779 1.490 . S
C784 C786 1.395 . S
C784 C787 1.403 . S
H785 C791 0.930 . S
C786 H772 0.930 . S
C786 C784 1.395 . S
C786 C789 1.403 . S
C787 C784 1.403 . S
C787 C788 1.524 . S
C787 C791 1.400 . S
C788 H773 0.960 . S
C788 H774 0.960 . S
C788 H775 0.960 . S
C788 C787 1.524 . S
C789 C786 1.403 . S
C789 C790 1.392 . S
C789 C793 1.495 1_565 S
C790 C789 1.392 . S
C790 C791 1.385 . S
C790 C792 1.478 . S
C791 H785 0.930 . S
C791 C787 1.400 . S
C791 C790 1.385 . S
C792 C790 1.478 . S
C792 C794 1.381 . S
C792 C798 1.383 . S
C793 C789 1.495 1_545 S
C793 H799 0.959 . S
C793 H800 0.961 . S
C793 H801 0.960 . S
C794 C792 1.381 . S
C794 C795 1.394 1_565 S
C794 H802 0.930 1_565 S
C795 C794 1.394 1_545 S
C795 C796 1.383 1_545 S
C795 H803 0.929 . S
C796 C795 1.383 1_565 S
C796 C797 1.377 . S
C797 H781 0.930 . S
C797 C796 1.377 . S
C797 C798 1.379 . S
C798 H782 0.931 . S
C798 C792 1.383 . S
C798 C797 1.379 . S
H799 C793 0.959 . S
H800 C793 0.961 . S
H801 C793 0.960 . S
H802 C794 0.930 1_545 S
H803 C795 0.929 . S
H804 C812 0.929 . S
H805 C814 0.930 . S
H806 C816 0.930 . S
H807 C819 0.929 . S
H808 C822 0.930 . S
H809 C824 0.960 . S
H810 C824 0.960 . S
H811 C824 0.960 . S
C812 H804 0.929 . S
C812 C813 1.377 . S
C812 C814 1.384 . S
C813 C812 1.377 . S
C813 C819 1.390 1_554 S
C814 H805 0.930 . S
C814 C812 1.384 . S
C814 C815 1.372 1_554 S
C815 C814 1.372 1_556 S
C815 C816 1.400 . S
C815 C820 1.490 . S
C816 H806 0.930 . S
C816 C815 1.400 . S
C816 C819 1.386 . S
H817 C833 0.930 . S
H818 C834 0.931 . S
C819 H807 0.929 . S
C819 C813 1.390 1_556 S
C819 C816 1.386 . S
C820 C815 1.490 . S
C820 C822 1.395 . S
C820 C823 1.403 . S
H821 C827 0.930 . S
C822 H808 0.930 . S
C822 C820 1.395 . S
C822 C825 1.403 . S
C823 C820 1.403 . S
C823 C824 1.524 . S
C823 C827 1.400 . S
C824 H809 0.960 . S
C824 H810 0.960 . S
C824 H811 0.960 . S
C824 C823 1.524 . S
C825 C822 1.403 . S
C825 C826 1.392 . S
C825 C829 1.495 . S
C826 C825 1.392 . S
C826 C827 1.385 . S
C826 C828 1.478 . S
C827 H821 0.930 . S
C827 C823 1.400 . S
C827 C826 1.385 . S
C828 C826 1.478 . S
C828 C830 1.381 . S
C828 C834 1.383 . S
C829 C825 1.495 . S
C829 H835 0.959 . S
C829 H836 0.961 . S
C829 H837 0.960 . S
C830 C828 1.381 . S
C830 C831 1.394 . S
C830 H838 0.930 . S
C831 C830 1.394 . S
C831 C832 1.383 . S
C831 H839 0.929 . S
C832 C831 1.383 . S
C832 C833 1.377 . S
C833 H817 0.930 . S
C833 C832 1.377 . S
C833 C834 1.379 . S
C834 H818 0.931 . S
C834 C828 1.383 . S
C834 C833 1.379 . S
H835 C829 0.959 . S
H836 C829 0.961 . S
H837 C829 0.960 . S
H838 C830 0.930 . S
H839 C831 0.929 . S
H840 C848 0.929 . S
H841 C850 0.930 . S
H842 C852 0.927 1_554 S
H843 C855 0.929 . S
H844 C858 0.930 . S
H845 C860 0.960 . S
H846 C860 0.960 . S
H847 C860 0.960 . S
C848 H840 0.929 . S
C848 C849 1.377 1_556 S
C848 C850 1.384 . S
C849 C848 1.377 1_554 S
C849 C855 1.390 . S
C850 H841 0.930 . S
C850 C848 1.384 . S
C850 C851 1.372 . S
C851 C850 1.372 . S
C851 C852 1.400 . S
C851 C856 1.490 . S
C852 H842 0.927 1_556 S
C852 C851 1.400 . S
C852 C855 1.386 1_556 S
H853 C869 0.930 . S
H854 C870 0.931 . S
C855 H843 0.929 . S
C855 C849 1.390 . S
C855 C852 1.386 1_554 S
C856 C851 1.490 . S
C856 C858 1.395 . S
C856 C859 1.403 . S
H857 C863 0.930 . S
C858 H844 0.930 . S
C858 C856 1.395 . S
C858 C861 1.403 . S
C859 C856 1.403 . S
C859 C860 1.524 . S
C859 C863 1.400 . S
C860 H845 0.960 . S
C860 H846 0.960 . S
C860 H847 0.960 . S
C860 C859 1.524 . S
C861 C858 1.403 . S
C861 C862 1.392 . S
C861 C865 1.495 . S
C862 C861 1.392 . S
C862 C863 1.385 . S
C862 C864 1.478 . S
C863 H857 0.930 . S
C863 C859 1.400 . S
C863 C862 1.385 . S
C864 C862 1.478 . S
C864 C866 1.381 . S
C864 C870 1.383 . S
C865 C861 1.495 . S
C865 H871 0.959 . S
C865 H872 0.961 . S
C865 H873 0.960 . S
C866 C864 1.381 . S
C866 C867 1.394 . S
C866 H874 0.930 . S
C867 C866 1.394 . S
C867 C868 1.383 . S
C867 H875 0.929 . S
C868 C867 1.383 . S
C868 C869 1.377 . S
C869 H853 0.930 . S
C869 C868 1.377 . S
C869 C870 1.379 . S
C870 H854 0.931 . S
C870 C864 1.383 . S
C870 C869 1.379 . S
H871 C865 0.959 . S
H872 C865 0.961 . S
H873 C865 0.960 . S
H874 C866 0.930 . S
H875 C867 0.929 . S
H876 C884 0.929 . S
H877 C886 0.930 . S
H878 C888 0.930 . S
H879 C891 0.929 . S
H880 C894 0.930 . S
H881 C896 0.960 1_455 S
H882 C896 0.960 . S
H883 C896 0.960 . S
C884 H876 0.929 . S
C884 C885 1.377 . S
C884 C886 1.384 1_554 S
C885 C884 1.377 . S
C885 C891 1.390 1_554 S
C886 H877 0.930 . S
C886 C884 1.384 1_556 S
C886 C887 1.372 . S
C887 C886 1.372 . S
C887 C888 1.400 . S
C887 C892 1.490 . S
C888 H878 0.930 . S
C888 C887 1.400 . S
C888 C891 1.386 . S
H889 C905 0.930 . S
H890 C906 0.931 . S
C891 H879 0.929 . S
C891 C885 1.390 1_556 S
C891 C888 1.386 . S
C892 C887 1.490 . S
C892 C894 1.395 . S
C892 C895 1.403 . S
H893 C899 0.930 . S
C894 H880 0.930 . S
C894 C892 1.395 . S
C894 C897 1.403 . S
C895 C892 1.403 . S
C895 C896 1.524 . S
C895 C899 1.400 . S
C896 H881 0.960 1_655 S
C896 H882 0.960 . S
C896 H883 0.960 . S
C896 C895 1.524 . S
C897 C894 1.403 . S
C897 C898 1.392 . S
C897 C901 1.495 . S
C898 C897 1.392 . S
C898 C899 1.385 . S
C898 C900 1.478 . S
C899 H893 0.930 . S
C899 C895 1.400 . S
C899 C898 1.385 . S
C900 C898 1.478 . S
C900 C902 1.381 . S
C900 C906 1.383 . S
C901 C897 1.495 . S
C901 H907 0.959 . S
C901 H908 0.961 . S
C901 H909 0.960 . S
C902 C900 1.381 . S
C902 C903 1.394 . S
C902 H910 0.930 . S
C903 C902 1.394 . S
C903 C904 1.383 . S
C903 H911 0.929 . S
C904 C903 1.383 . S
C904 C905 1.377 . S
C905 H889 0.930 . S
C905 C904 1.377 . S
C905 C906 1.379 . S
C906 H890 0.931 . S
C906 C900 1.383 . S
C906 C905 1.379 . S
H907 C901 0.959 . S
H908 C901 0.961 . S
H909 C901 0.960 . S
H910 C902 0.930 . S
H911 C903 0.929 . S
H912 C920 0.929 . S
H913 C922 0.930 . S
H914 C924 0.930 . S
H915 C927 0.929 . S
H916 C930 0.930 . S
H917 C932 0.960 . S
H918 C932 0.960 . S
H919 C932 0.960 . S
C920 H912 0.929 . S
C920 C921 1.377 . S
C920 C922 1.384 . S
C921 C920 1.377 . S
C921 C927 1.390 . S
C922 H913 0.930 . S
C922 C920 1.384 . S
C922 C923 1.372 . S
C923 C922 1.372 . S
C923 C924 1.400 . S
C923 C928 1.490 . S
C924 H914 0.930 . S
C924 C923 1.400 . S
C924 C927 1.386 . S
H925 C941 0.930 . S
H926 C942 0.931 . S
C927 H915 0.929 . S
C927 C921 1.390 . S
C927 C924 1.386 . S
C928 C923 1.490 . S
C928 C930 1.395 . S
C928 C931 1.403 . S
H929 C935 0.930 . S
C930 H916 0.930 . S
C930 C928 1.395 . S
C930 C933 1.403 . S
C931 C928 1.403 . S
C931 C932 1.524 . S
C931 C935 1.400 . S
C932 H917 0.960 . S
C932 H918 0.960 . S
C932 H919 0.960 . S
C932 C931 1.524 . S
C933 C930 1.403 . S
C933 C934 1.392 . S
C933 C937 1.495 . S
C934 C933 1.392 . S
C934 C935 1.385 . S
C934 C936 1.478 . S
C935 H929 0.930 . S
C935 C931 1.400 . S
C935 C934 1.385 . S
C936 C934 1.478 . S
C936 C938 1.381 . S
C936 C942 1.383 . S
C937 C933 1.495 . S
C937 H943 0.959 . S
C937 H944 0.961 . S
C937 H945 0.960 . S
C938 C936 1.381 . S
C938 C939 1.394 . S
C938 H946 0.930 . S
C939 C938 1.394 . S
C939 C940 1.383 . S
C939 H947 0.929 . S
C940 C939 1.383 . S
C940 C941 1.377 1_455 S
C941 H925 0.930 . S
C941 C940 1.377 1_655 S
C941 C942 1.379 1_655 S
C942 H926 0.931 . S
C942 C936 1.383 . S
C942 C941 1.379 1_455 S
H943 C937 0.959 . S
H944 C937 0.961 . S
H945 C937 0.960 . S
H946 C938 0.930 . S
H947 C939 0.929 . S
H948 C956 0.929 . S
H949 C958 0.930 . S
H950 C960 0.930 . S
H951 C963 0.929 . S
H952 C966 0.930 . S
H953 C968 0.960 . S
H954 C968 0.960 . S
H955 C968 0.960 . S
C956 H948 0.929 . S
C956 C957 1.377 . S
C956 C958 1.384 . S
C957 C956 1.377 . S
C957 C963 1.390 . S
C958 H949 0.930 . S
C958 C956 1.384 . S
C958 C959 1.372 . S
C959 C958 1.372 . S
C959 C960 1.400 . S
C959 C964 1.490 . S
C960 H950 0.930 . S
C960 C959 1.400 . S
C960 C963 1.386 . S
H961 C977 0.930 . S
H962 C978 0.931 . S
C963 H951 0.929 . S
C963 C957 1.390 . S
C963 C960 1.386 . S
C964 C959 1.490 . S
C964 C966 1.395 . S
C964 C967 1.403 . S
H965 C971 0.930 . S
C966 H952 0.930 . S
C966 C964 1.395 . S
C966 C969 1.403 . S
C967 C964 1.403 . S
C967 C968 1.524 . S
C967 C971 1.400 . S
C968 H953 0.960 . S
C968 H954 0.960 . S
C968 H955 0.960 . S
C968 C967 1.524 . S
C969 C966 1.403 . S
C969 C970 1.392 . S
C969 C973 1.495 . S
C970 C969 1.392 . S
C970 C971 1.385 . S
C970 C972 1.478 . S
C971 H965 0.930 . S
C971 C967 1.400 . S
C971 C970 1.385 . S
C972 C970 1.478 . S
C972 C974 1.381 . S
C972 C978 1.383 . S
C973 C969 1.495 . S
C973 H979 0.959 . S
C973 H980 0.961 . S
C973 H981 0.960 . S
C974 C972 1.381 . S
C974 C975 1.394 . S
C974 H982 0.930 . S
C975 C974 1.394 . S
C975 C976 1.383 . S
C975 H983 0.929 1_545 S
C976 C975 1.383 . S
C976 C977 1.377 . S
C977 H961 0.930 . S
C977 C976 1.377 . S
C977 C978 1.379 . S
C978 H962 0.931 . S
C978 C972 1.383 . S
C978 C977 1.379 . S
H979 C973 0.959 . S
H980 C973 0.961 . S
H981 C973 0.960 . S
H982 C974 0.930 . S
H983 C975 0.929 1_565 S
H984 C992 0.929 . S
H985 C994 0.930 . S
H986 C996 0.930 . S
H987 C999 0.929 . S
H988 C1002 0.930 . S
H989 C1004 0.960 . S
H990 C1004 0.960 . S
H991 C1004 0.960 . S
C992 H984 0.929 . S
C992 C993 1.377 . S
C992 C994 1.384 . S
C993 C992 1.377 . S
C993 C999 1.390 . S
C994 H985 0.930 . S
C994 C992 1.384 . S
C994 C995 1.372 . S
C995 C994 1.372 . S
C995 C996 1.400 . S
C995 C1000 1.490 . S
C996 H986 0.930 . S
C996 C995 1.400 . S
C996 C999 1.386 . S
H997 C1013 0.930 . S
H998 C1014 0.931 . S
C999 H987 0.929 . S
C999 C993 1.390 . S
C999 C996 1.386 . S
C1000 C995 1.490 . S
C1000 C1002 1.395 . S
C1000 C1003 1.403 . S
H1001 C1007 0.930 . S
C1002 H988 0.930 . S
C1002 C1000 1.395 . S
C1002 C1005 1.403 . S
C1003 C1000 1.403 . S
C1003 C1004 1.524 . S
C1003 C1007 1.400 . S
C1004 H989 0.960 . S
C1004 H990 0.960 . S
C1004 H991 0.960 . S
C1004 C1003 1.524 . S
C1005 C1002 1.403 . S
C1005 C1006 1.392 . S
C1005 C1009 1.495 . S
C1006 C1005 1.392 . S
C1006 C1007 1.385 . S
C1006 C1008 1.478 . S
C1007 H1001 0.930 . S
C1007 C1003 1.400 . S
C1007 C1006 1.385 . S
C1008 C1006 1.478 . S
C1008 C1010 1.381 . S
C1008 C1014 1.383 . S
C1009 C1005 1.495 . S
C1009 H1015 0.959 . S
C1009 H1016 0.961 . S
C1009 H1017 0.960 . S
C1010 C1008 1.381 . S
C1010 C1011 1.394 . S
C1010 H1018 0.930 . S
C1011 C1010 1.394 . S
C1011 C1012 1.383 . S
C1011 H1019 0.929 . S
C1012 C1011 1.383 . S
C1012 C1013 1.377 . S
C1013 H997 0.930 . S
C1013 C1012 1.377 . S
C1013 C1014 1.379 . S
C1014 H998 0.931 . S
C1014 C1008 1.383 . S
C1014 C1013 1.379 . S
H1015 C1009 0.959 . S
H1016 C1009 0.961 . S
H1017 C1009 0.960 . S
H1018 C1010 0.930 . S
H1019 C1011 0.929 . S
H1020 C1028 0.929 . S
H1021 C1030 0.930 . S
H1022 C1032 0.930 . S
H1023 C1035 0.929 . S
H1024 C1038 0.930 . S
H1025 C1040 0.960 . S
H1026 C1040 0.960 . S
H1027 C1040 0.960 . S
C1028 H1020 0.929 . S
C1028 C1029 1.377 . S
C1028 C1030 1.384 . S
C1029 C1028 1.377 . S
C1029 C1035 1.390 . S
C1030 H1021 0.930 . S
C1030 C1028 1.384 . S
C1030 C1031 1.372 . S
C1031 C1030 1.372 . S
C1031 C1032 1.400 . S
C1031 C1036 1.490 . S
C1032 H1022 0.930 . S
C1032 C1031 1.400 . S
C1032 C1035 1.386 . S
H1033 C1049 0.930 . S
H1034 C1050 0.931 . S
C1035 H1023 0.929 . S
C1035 C1029 1.390 . S
C1035 C1032 1.386 . S
C1036 C1031 1.490 . S
C1036 C1038 1.395 . S
C1036 C1039 1.403 . S
H1037 C1043 0.930 . S
C1038 H1024 0.930 . S
C1038 C1036 1.395 . S
C1038 C1041 1.403 . S
C1039 C1036 1.403 . S
C1039 C1040 1.524 . S
C1039 C1043 1.400 . S
C1040 H1025 0.960 . S
C1040 H1026 0.960 . S
C1040 H1027 0.960 . S
C1040 C1039 1.524 . S
C1041 C1038 1.403 . S
C1041 C1042 1.392 . S
C1041 C1045 1.495 . S
C1042 C1041 1.392 . S
C1042 C1043 1.385 . S
C1042 C1044 1.478 . S
C1043 H1037 0.930 . S
C1043 C1039 1.400 . S
C1043 C1042 1.385 . S
C1044 C1042 1.478 . S
C1044 C1046 1.381 . S
C1044 C1050 1.383 . S
C1045 C1041 1.495 . S
C1045 H1051 0.959 . S
C1045 H1052 0.961 . S
C1045 H1053 0.960 . S
C1046 C1044 1.381 . S
C1046 C1047 1.394 . S
C1046 H1054 0.930 . S
C1047 C1046 1.394 . S
C1047 C1048 1.383 . S
C1047 H1055 0.929 . S
C1048 C1047 1.383 . S
C1048 C1049 1.377 . S
C1049 H1033 0.930 . S
C1049 C1048 1.377 . S
C1049 C1050 1.379 . S
C1050 H1034 0.931 . S
C1050 C1044 1.383 . S
C1050 C1049 1.379 . S
H1051 C1045 0.959 . S
H1052 C1045 0.961 . S
H1053 C1045 0.960 . S
H1054 C1046 0.930 . S
H1055 C1047 0.929 . S
H1056 C1064 0.909 1_554 S
H1057 C1066 0.930 . S
H1058 C1068 0.930 . S
H1059 C1071 0.929 . S
H1060 C1074 0.930 . S
H1061 C1076 0.960 . S
H1062 C1076 0.960 . S
H1063 C1076 0.960 . S
C1064 H1056 0.909 1_556 S
C1064 C1065 1.388 . S
C1064 C1066 1.393 . S
C1065 C1064 1.388 . S
C1065 C1071 1.390 . S
C1066 H1057 0.930 . S
C1066 C1064 1.393 . S
C1066 C1067 1.372 . S
C1067 C1066 1.372 . S
C1067 C1068 1.400 . S
C1067 C1072 1.490 . S
C1068 H1058 0.930 . S
C1068 C1067 1.400 . S
C1068 C1071 1.386 . S
H1069 C1085 0.931 . S
H1070 C1086 0.931 . S
C1071 H1059 0.929 . S
C1071 C1065 1.390 . S
C1071 C1068 1.386 . S
C1072 C1067 1.490 . S
C1072 C1074 1.395 . S
C1072 C1075 1.403 . S
H1073 C1079 0.930 . S
C1074 H1060 0.930 . S
C1074 C1072 1.395 . S
C1074 C1077 1.403 . S
C1075 C1072 1.403 . S
C1075 C1076 1.524 . S
C1075 C1079 1.400 . S
C1076 H1061 0.960 . S
C1076 H1062 0.960 . S
C1076 H1063 0.960 . S
C1076 C1075 1.524 . S
C1077 C1074 1.403 . S
C1077 C1078 1.392 . S
C1077 C1081 1.495 1_655 S
C1078 C1077 1.392 . S
C1078 C1079 1.385 . S
C1078 C1080 1.478 . S
C1079 H1073 0.930 . S
C1079 C1075 1.400 . S
C1079 C1078 1.385 . S
C1080 C1078 1.478 . S
C1080 C1082 1.381 . S
C1080 C1086 1.383 . S
C1081 C1077 1.495 1_455 S
C1081 H1087 0.959 . S
C1081 H1088 0.961 . S
C1081 H1089 0.960 . S
C1082 C1080 1.381 . S
C1082 C1083 1.394 1_655 S
C1082 H1090 0.930 . S
C1083 C1082 1.394 1_455 S
C1083 C1084 1.383 . S
C1083 H1091 0.929 . S
C1084 C1083 1.383 . S
C1084 C1085 1.377 1_455 S
C1085 H1069 0.931 . S
C1085 C1084 1.377 1_655 S
C1085 C1086 1.379 . S
C1086 H1070 0.931 . S
C1086 C1080 1.383 . S
C1086 C1085 1.379 . S
H1087 C1081 0.959 . S
H1088 C1081 0.961 . S
H1089 C1081 0.960 . S
H1090 C1082 0.930 . S
H1091 C1083 0.929 . S
H1092 C1100 0.929 . S
H1093 C1102 0.930 . S
H1094 C1104 0.930 . S
H1095 C1107 0.929 . S
H1096 C1110 0.930 . S
H1097 C1112 0.960 . S
H1098 C1112 0.960 . S
H1099 C1112 0.960 . S
C1100 H1092 0.929 . S
C1100 C1101 1.377 . S
C1100 C1102 1.384 . S
C1101 C1100 1.377 . S
C1101 C1107 1.390 . S
C1102 H1093 0.930 . S
C1102 C1100 1.384 . S
C1102 C1103 1.372 . S
C1103 C1102 1.372 . S
C1103 C1104 1.400 . S
C1103 C1108 1.490 . S
C1104 H1094 0.930 . S
C1104 C1103 1.400 . S
C1104 C1107 1.386 . S
H1105 C1121 0.930 . S
H1106 C1122 0.931 . S
C1107 H1095 0.929 . S
C1107 C1101 1.390 . S
C1107 C1104 1.386 . S
C1108 C1103 1.490 . S
C1108 C1110 1.395 . S
C1108 C1111 1.403 . S
H1109 C1115 0.930 . S
C1110 H1096 0.930 . S
C1110 C1108 1.395 . S
C1110 C1113 1.403 . S
C1111 C1108 1.403 . S
C1111 C1112 1.524 . S
C1111 C1115 1.400 . S
C1112 H1097 0.960 . S
C1112 H1098 0.960 . S
C1112 H1099 0.960 . S
C1112 C1111 1.524 . S
C1113 C1110 1.403 . S
C1113 C1114 1.392 . S
C1113 C1117 1.495 . S
C1114 C1113 1.392 . S
C1114 C1115 1.385 . S
C1114 C1116 1.478 . S
C1115 H1109 0.930 . S
C1115 C1111 1.400 . S
C1115 C1114 1.385 . S
C1116 C1114 1.478 . S
C1116 C1118 1.381 . S
C1116 C1122 1.383 1_565 S
C1117 C1113 1.495 . S
C1117 H1123 0.959 . S
C1117 H1124 0.961 . S
C1117 H1125 0.960 . S
C1118 C1116 1.381 . S
C1118 C1119 1.394 . S
C1118 H1126 0.930 . S
C1119 C1118 1.394 . S
C1119 C1120 1.383 1_565 S
C1119 H1127 0.929 . S
C1120 C1119 1.383 1_545 S
C1120 C1121 1.377 . S
C1121 H1105 0.930 . S
C1121 C1120 1.377 . S
C1121 C1122 1.379 . S
C1122 H1106 0.931 . S
C1122 C1116 1.383 1_545 S
C1122 C1121 1.379 . S
H1123 C1117 0.959 . S
H1124 C1117 0.961 . S
H1125 C1117 0.960 . S
H1126 C1118 0.930 . S
H1127 C1119 0.929 . S
H1128 C1136 0.929 . S
H1129 C1138 0.930 . S
H1130 C1140 0.930 . S
H1131 C1143 0.940 . S
H1132 C1146 0.930 . S
H1133 C1148 0.960 . S
H1134 C1148 0.960 . S
H1135 C1148 0.960 . S
C1136 H1128 0.929 . S
C1136 C1137 1.377 . S
C1136 C1138 1.384 . S
C1137 C1136 1.377 . S
C1137 C1143 1.390 . S
C1138 H1129 0.930 . S
C1138 C1136 1.384 . S
C1138 C1139 1.372 . S
C1139 C1138 1.372 . S
C1139 C1140 1.400 . S
C1139 C1144 1.490 . S
C1140 H1130 0.930 . S
C1140 C1139 1.400 . S
C1140 C1143 1.386 . S
H1141 C1157 0.930 . S
H1142 C1158 0.931 . S
C1143 H1131 0.940 . S
C1143 C1137 1.390 . S
C1143 C1140 1.386 . S
C1144 C1139 1.490 . S
C1144 C1146 1.395 . S
C1144 C1147 1.403 . S
H1145 C1151 0.930 . S
C1146 H1132 0.930 . S
C1146 C1144 1.395 . S
C1146 C1149 1.403 . S
C1147 C1144 1.403 . S
C1147 C1148 1.524 . S
C1147 C1151 1.400 . S
C1148 H1133 0.960 . S
C1148 H1134 0.960 . S
C1148 H1135 0.960 . S
C1148 C1147 1.524 . S
C1149 C1146 1.403 . S
C1149 C1150 1.392 . S
C1149 C1153 1.495 . S
C1150 C1149 1.392 . S
C1150 C1151 1.385 . S
C1150 C1152 1.478 . S
C1151 H1145 0.930 . S
C1151 C1147 1.400 . S
C1151 C1150 1.385 . S
C1152 C1150 1.478 . S
C1152 C1154 1.381 . S
C1152 C1158 1.383 . S
C1153 C1149 1.495 . S
C1153 H1159 0.959 . S
C1153 H1160 0.961 . S
C1153 H1161 0.960 . S
C1154 C1152 1.381 . S
C1154 C1155 1.394 . S
C1154 H1162 0.930 . S
C1155 C1154 1.394 . S
C1155 C1156 1.383 . S
C1155 H1163 0.929 . S
C1156 C1155 1.383 . S
C1156 C1157 1.377 . S
C1157 H1141 0.930 . S
C1157 C1156 1.377 . S
C1157 C1158 1.379 . S
C1158 H1142 0.931 . S
C1158 C1152 1.383 . S
C1158 C1157 1.379 . S
H1159 C1153 0.959 . S
H1160 C1153 0.961 . S
H1161 C1153 0.960 . S
H1162 C1154 0.930 . S
H1163 C1155 0.929 . S
H1164 C1172 0.929 1_554 S
H1165 C1174 0.930 . S
H1166 C1176 0.930 . S
H1167 C1179 0.929 . S
H1168 C1182 0.930 . S
H1169 C1184 0.960 . S
H1170 C1184 0.960 . S
H1171 C1184 0.960 . S
C1172 H1164 0.929 1_556 S
C1172 C1173 1.377 . S
C1172 C1174 1.384 . S
C1173 C1172 1.377 . S
C1173 C1179 1.390 . S
C1174 H1165 0.930 . S
C1174 C1172 1.384 . S
C1174 C1175 1.372 . S
C1175 C1174 1.372 . S
C1175 C1176 1.400 . S
C1175 C1180 1.490 . S
C1176 H1166 0.930 . S
C1176 C1175 1.400 . S
C1176 C1179 1.386 . S
H1177 C1193 0.930 . S
H1178 C1194 0.931 . S
C1179 H1167 0.929 . S
C1179 C1173 1.390 . S
C1179 C1176 1.386 . S
C1180 C1175 1.490 . S
C1180 C1182 1.395 . S
C1180 C1183 1.403 . S
H1181 C1187 0.930 . S
C1182 H1168 0.930 . S
C1182 C1180 1.395 . S
C1182 C1185 1.403 . S
C1183 C1180 1.403 . S
C1183 C1184 1.524 . S
C1183 C1187 1.400 . S
C1184 H1169 0.960 . S
C1184 H1170 0.960 . S
C1184 H1171 0.960 . S
C1184 C1183 1.524 . S
C1185 C1182 1.403 . S
C1185 C1186 1.392 . S
C1185 C1189 1.495 . S
C1186 C1185 1.392 . S
C1186 C1187 1.385 . S
C1186 C1188 1.478 . S
C1187 H1181 0.930 . S
C1187 C1183 1.400 . S
C1187 C1186 1.385 . S
C1188 C1186 1.478 . S
C1188 C1190 1.381 . S
C1188 C1194 1.383 . S
C1189 C1185 1.495 . S
C1189 H1195 0.959 . S
C1189 H1196 0.961 . S
C1189 H1197 0.960 . S
C1190 C1188 1.381 . S
C1190 C1191 1.394 . S
C1190 H1198 0.930 . S
C1191 C1190 1.394 . S
C1191 C1192 1.383 . S
C1191 H1199 0.929 . S
C1192 C1191 1.383 . S
C1192 C1193 1.377 . S
C1193 H1177 0.930 . S
C1193 C1192 1.377 . S
C1193 C1194 1.379 . S
C1194 H1178 0.931 . S
C1194 C1188 1.383 . S
C1194 C1193 1.379 . S
H1195 C1189 0.959 . S
H1196 C1189 0.961 . S
H1197 C1189 0.960 . S
H1198 C1190 0.930 . S
H1199 C1191 0.929 . S
H1200 C1208 0.929 . S
H1201 C1210 0.930 . S
H1202 C1212 0.930 . S
H1203 C1215 0.929 . S
H1204 C1218 0.930 . S
H1205 C1220 0.960 . S
H1206 C1220 0.960 . S
H1207 C1220 0.960 . S
C1208 H1200 0.929 . S
C1208 C1209 1.377 . S
C1208 C1210 1.384 . S
C1209 C1208 1.377 . S
C1209 C1215 1.390 . S
C1210 H1201 0.930 . S
C1210 C1208 1.384 . S
C1210 C1211 1.372 . S
C1211 C1210 1.372 . S
C1211 C1212 1.400 . S
C1211 C1216 1.490 . S
C1212 H1202 0.930 . S
C1212 C1211 1.400 . S
C1212 C1215 1.386 . S
H1213 C1229 0.930 . S
H1214 C1230 0.931 . S
C1215 H1203 0.929 . S
C1215 C1209 1.390 . S
C1215 C1212 1.386 . S
C1216 C1211 1.490 . S
C1216 C1218 1.395 . S
C1216 C1219 1.403 . S
H1217 C1223 0.930 . S
C1218 H1204 0.930 . S
C1218 C1216 1.395 . S
C1218 C1221 1.403 . S
C1219 C1216 1.403 . S
C1219 C1220 1.524 . S
C1219 C1223 1.400 . S
C1220 H1205 0.960 . S
C1220 H1206 0.960 . S
C1220 H1207 0.960 . S
C1220 C1219 1.524 . S
C1221 C1218 1.403 . S
C1221 C1222 1.392 . S
C1221 C1225 1.495 . S
C1222 C1221 1.392 . S
C1222 C1223 1.385 . S
C1222 C1224 1.478 . S
C1223 H1217 0.930 . S
C1223 C1219 1.400 . S
C1223 C1222 1.385 . S
C1224 C1222 1.478 . S
C1224 C1226 1.381 . S
C1224 C1230 1.383 . S
C1225 C1221 1.495 . S
C1225 H1231 0.959 . S
C1225 H1232 0.961 . S
C1225 H1233 0.960 . S
C1226 C1224 1.381 . S
C1226 C1227 1.394 . S
C1226 H1234 0.930 . S
C1227 C1226 1.394 . S
C1227 C1228 1.383 . S
C1227 H1235 0.929 . S
C1228 C1227 1.383 . S
C1228 C1229 1.377 . S
C1229 H1213 0.930 . S
C1229 C1228 1.377 . S
C1229 C1230 1.379 . S
C1230 H1214 0.931 . S
C1230 C1224 1.383 . S
C1230 C1229 1.379 . S
H1231 C1225 0.959 . S
H1232 C1225 0.961 . S
H1233 C1225 0.960 . S
H1234 C1226 0.930 . S
H1235 C1227 0.929 . S
H1236 C1244 0.929 . S
H1237 C1246 0.930 . S
H1238 C1248 0.930 . S
H1239 C1251 0.929 . S
H1240 C1254 0.930 . S
H1241 C1256 0.960 . S
H1242 C1256 0.960 . S
H1243 C1256 0.960 . S
C1244 H1236 0.929 . S
C1244 C1245 1.377 . S
C1244 C1246 1.384 . S
C1245 C1244 1.377 . S
C1245 C1251 1.390 . S
C1246 H1237 0.930 . S
C1246 C1244 1.384 . S
C1246 C1247 1.372 . S
C1247 C1246 1.372 . S
C1247 C1248 1.400 . S
C1247 C1252 1.490 . S
C1248 H1238 0.930 . S
C1248 C1247 1.400 . S
C1248 C1251 1.386 . S
H1249 C1265 0.930 . S
H1250 C1266 0.931 . S
C1251 H1239 0.929 . S
C1251 C1245 1.390 . S
C1251 C1248 1.386 . S
C1252 C1247 1.490 . S
C1252 C1254 1.395 . S
C1252 C1255 1.403 . S
H1253 C1259 0.930 . S
C1254 H1240 0.930 . S
C1254 C1252 1.395 . S
C1254 C1257 1.403 . S
C1255 C1252 1.403 . S
C1255 C1256 1.524 . S
C1255 C1259 1.400 . S
C1256 H1241 0.960 . S
C1256 H1242 0.960 . S
C1256 H1243 0.960 . S
C1256 C1255 1.524 . S
C1257 C1254 1.403 . S
C1257 C1258 1.392 . S
C1257 C1261 1.495 . S
C1258 C1257 1.392 . S
C1258 C1259 1.385 . S
C1258 C1260 1.478 . S
C1259 H1253 0.930 . S
C1259 C1255 1.400 . S
C1259 C1258 1.385 . S
C1260 C1258 1.478 . S
C1260 C1262 1.381 . S
C1260 C1266 1.383 . S
C1261 C1257 1.495 . S
C1261 H1267 0.959 . S
C1261 H1268 0.961 . S
C1261 H1269 0.960 . S
C1262 C1260 1.381 . S
C1262 C1263 1.394 . S
C1262 H1270 0.930 . S
C1263 C1262 1.394 . S
C1263 C1264 1.383 . S
C1263 H1271 0.929 . S
C1264 C1263 1.383 . S
C1264 C1265 1.377 . S
C1265 H1249 0.930 . S
C1265 C1264 1.377 . S
C1265 C1266 1.379 . S
C1266 H1250 0.931 . S
C1266 C1260 1.383 . S
C1266 C1265 1.379 . S
H1267 C1261 0.959 . S
H1268 C1261 0.961 . S
H1269 C1261 0.960 . S
H1270 C1262 0.930 . S
H1271 C1263 0.929 . S
H1272 C1280 0.929 . S
H1273 C1282 0.930 . S
H1274 C1284 0.930 . S
H1275 C1287 0.929 . S
H1276 C1290 0.930 . S
H1277 C1292 0.960 . S
H1278 C1292 0.960 . S
H1279 C1292 0.960 . S
C1280 H1272 0.929 . S
C1280 C1281 1.377 . S
C1280 C1282 1.384 . S
C1281 C1280 1.377 . S
C1281 C1287 1.390 . S
C1282 H1273 0.930 . S
C1282 C1280 1.384 . S
C1282 C1283 1.372 . S
C1283 C1282 1.372 . S
C1283 C1284 1.400 . S
C1283 C1288 1.490 . S
C1284 H1274 0.930 . S
C1284 C1283 1.400 . S
C1284 C1287 1.386 . S
H1285 C1301 0.930 . S
H1286 C1302 0.931 . S
C1287 H1275 0.929 . S
C1287 C1281 1.390 . S
C1287 C1284 1.386 . S
C1288 C1283 1.490 . S
C1288 C1290 1.395 . S
C1288 C1291 1.403 . S
H1289 C1295 0.930 . S
C1290 H1276 0.930 . S
C1290 C1288 1.395 . S
C1290 C1293 1.403 . S
C1291 C1288 1.403 . S
C1291 C1292 1.524 . S
C1291 C1295 1.400 . S
C1292 H1277 0.960 . S
C1292 H1278 0.960 . S
C1292 H1279 0.960 . S
C1292 C1291 1.524 . S
C1293 C1290 1.403 . S
C1293 C1294 1.392 . S
C1293 C1297 1.495 . S
C1294 C1293 1.392 . S
C1294 C1295 1.385 . S
C1294 C1296 1.478 . S
C1295 H1289 0.930 . S
C1295 C1291 1.400 . S
C1295 C1294 1.385 . S
C1296 C1294 1.478 . S
C1296 C1298 1.381 . S
C1296 C1302 1.383 . S
C1297 C1293 1.495 . S
C1297 H1303 0.959 . S
C1297 H1304 0.961 . S
C1297 H1305 0.960 . S
C1298 C1296 1.381 . S
C1298 C1299 1.394 . S
C1298 H1306 0.930 . S
C1299 C1298 1.394 . S
C1299 C1300 1.383 . S
C1299 H1307 0.929 . S
C1300 C1299 1.383 . S
C1300 C1301 1.377 . S
C1301 H1285 0.930 . S
C1301 C1300 1.377 . S
C1301 C1302 1.379 . S
C1302 H1286 0.931 . S
C1302 C1296 1.383 . S
C1302 C1301 1.379 . S
H1303 C1297 0.959 . S
H1304 C1297 0.961 . S
H1305 C1297 0.960 . S
H1306 C1298 0.930 . S
H1307 C1299 0.929 . S
H1308 C1316 0.929 . S
H1309 C1318 0.930 . S
H1310 C1320 0.930 . S
H1311 C1323 0.929 . S
H1312 C1326 0.930 . S
H1313 C1328 0.960 . S
H1314 C1328 0.960 . S
H1315 C1328 0.960 . S
C1316 H1308 0.929 . S
C1316 C1317 1.377 . S
C1316 C1318 1.384 . S
C1317 C1316 1.377 . S
C1317 C1323 1.390 . S
C1318 H1309 0.930 . S
C1318 C1316 1.384 . S
C1318 C1319 1.372 . S
C1319 C1318 1.372 . S
C1319 C1320 1.400 . S
C1319 C1324 1.490 . S
C1320 H1310 0.930 . S
C1320 C1319 1.400 . S
C1320 C1323 1.386 . S
H1321 C1337 0.930 . S
H1322 C1338 0.931 . S
C1323 H1311 0.929 . S
C1323 C1317 1.390 . S
C1323 C1320 1.386 . S
C1324 C1319 1.490 . S
C1324 C1326 1.395 . S
C1324 C1327 1.403 . S
H1325 C1331 0.930 . S
C1326 H1312 0.930 . S
C1326 C1324 1.395 . S
C1326 C1329 1.403 . S
C1327 C1324 1.403 . S
C1327 C1328 1.524 . S
C1327 C1331 1.400 . S
C1328 H1313 0.960 . S
C1328 H1314 0.960 . S
C1328 H1315 0.960 . S
C1328 C1327 1.524 . S
C1329 C1326 1.403 . S
C1329 C1330 1.392 . S
C1329 C1333 1.495 . S
C1330 C1329 1.392 . S
C1330 C1331 1.385 . S
C1330 C1332 1.478 . S
C1331 H1325 0.930 . S
C1331 C1327 1.400 . S
C1331 C1330 1.385 . S
C1332 C1330 1.478 . S
C1332 C1334 1.381 . S
C1332 C1338 1.383 . S
C1333 C1329 1.495 . S
C1333 H1339 0.959 . S
C1333 H1340 0.961 . S
C1333 H1341 0.960 . S
C1334 C1332 1.381 . S
C1334 C1335 1.394 . S
C1334 H1342 0.930 . S
C1335 C1334 1.394 . S
C1335 C1336 1.383 . S
C1335 H1343 0.929 . S
C1336 C1335 1.383 . S
C1336 C1337 1.377 . S
C1337 H1321 0.930 . S
C1337 C1336 1.377 . S
C1337 C1338 1.379 . S
C1338 H1322 0.931 . S
C1338 C1332 1.383 . S
C1338 C1337 1.379 . S
H1339 C1333 0.959 . S
H1340 C1333 0.961 . S
H1341 C1333 0.960 . S
H1342 C1334 0.930 . S
H1343 C1335 0.929 . S
H1344 C1352 0.929 . S
H1345 C1354 0.930 . S
H1346 C1356 0.930 . S
H1347 C1359 0.929 . S
H1348 C1362 0.930 . S
H1349 C1364 0.960 . S
H1350 C1364 0.960 . S
H1351 C1364 0.960 . S
C1352 H1344 0.929 . S
C1352 C1353 1.377 . S
C1352 C1354 1.384 . S
C1353 C1352 1.377 . S
C1353 C1359 1.390 . S
C1354 H1345 0.930 . S
C1354 C1352 1.384 . S
C1354 C1355 1.372 . S
C1355 C1354 1.372 . S
C1355 C1356 1.400 . S
C1355 C1360 1.490 . S
C1356 H1346 0.930 . S
C1356 C1355 1.400 . S
C1356 C1359 1.386 . S
H1357 C1373 0.930 . S
H1358 C1374 0.931 . S
C1359 H1347 0.929 . S
C1359 C1353 1.390 . S
C1359 C1356 1.386 . S
C1360 C1355 1.490 . S
C1360 C1362 1.395 . S
C1360 C1363 1.403 . S
H1361 C1367 0.930 . S
C1362 H1348 0.930 . S
C1362 C1360 1.395 . S
C1362 C1365 1.403 . S
C1363 C1360 1.403 . S
C1363 C1364 1.524 . S
C1363 C1367 1.400 . S
C1364 H1349 0.960 . S
C1364 H1350 0.960 . S
C1364 H1351 0.960 . S
C1364 C1363 1.524 . S
C1365 C1362 1.403 . S
C1365 C1366 1.392 . S
C1365 C1369 1.495 . S
C1366 C1365 1.392 . S
C1366 C1367 1.385 . S
C1366 C1368 1.478 . S
C1367 H1361 0.930 . S
C1367 C1363 1.400 . S
C1367 C1366 1.385 . S
C1368 C1366 1.478 . S
C1368 C1370 1.381 . S
C1368 C1374 1.383 . S
C1369 C1365 1.495 . S
C1369 H1375 0.959 1_655 S
C1369 H1376 0.961 . S
C1369 H1377 0.960 1_655 S
C1370 C1368 1.381 . S
C1370 C1371 1.394 . S
C1370 H1378 0.930 . S
C1371 C1370 1.394 . S
C1371 C1372 1.383 . S
C1371 H1379 0.929 . S
C1372 C1371 1.383 . S
C1372 C1373 1.377 . S
C1373 H1357 0.930 . S
C1373 C1372 1.377 . S
C1373 C1374 1.379 . S
C1374 H1358 0.931 . S
C1374 C1368 1.383 . S
C1374 C1373 1.379 . S
H1375 C1369 0.959 1_455 S
H1376 C1369 0.961 . S
H1377 C1369 0.960 1_455 S
H1378 C1370 0.930 . S
H1379 C1371 0.929 . S
H1380 C1388 0.929 . S
H1381 C1390 0.930 . S
H1382 C1392 0.930 . S
H1383 C1395 0.929 . S
H1384 C1398 0.930 . S
H1385 C1400 0.960 . S
H1386 C1400 0.960 . S
H1387 C1400 0.960 . S
C1388 H1380 0.929 . S
C1388 C1389 1.377 . S
C1388 C1390 1.384 . S
C1389 C1388 1.377 . S
C1389 C1395 1.390 . S
C1390 H1381 0.930 . S
C1390 C1388 1.384 . S
C1390 C1391 1.372 . S
C1391 C1390 1.372 . S
C1391 C1392 1.400 . S
C1391 C1396 1.490 . S
C1392 H1382 0.930 . S
C1392 C1391 1.400 . S
C1392 C1395 1.386 . S
H1393 C1409 0.930 1_545 S
H1394 C1410 0.931 . S
C1395 H1383 0.929 . S
C1395 C1389 1.390 . S
C1395 C1392 1.386 . S
C1396 C1391 1.490 . S
C1396 C1398 1.395 . S
C1396 C1399 1.403 . S
H1397 C1403 0.930 . S
C1398 H1384 0.930 . S
C1398 C1396 1.395 . S
C1398 C1401 1.403 . S
C1399 C1396 1.403 . S
C1399 C1400 1.524 . S
C1399 C1403 1.400 . S
C1400 H1385 0.960 . S
C1400 H1386 0.960 . S
C1400 H1387 0.960 . S
C1400 C1399 1.524 . S
C1401 C1398 1.403 . S
C1401 C1402 1.392 . S
C1401 C1405 1.495 . S
C1402 C1401 1.392 . S
C1402 C1403 1.385 . S
C1402 C1404 1.478 . S
C1403 H1397 0.930 . S
C1403 C1399 1.400 . S
C1403 C1402 1.385 . S
C1404 C1402 1.478 . S
C1404 C1406 1.381 . S
C1404 C1410 1.383 . S
C1405 C1401 1.495 . S
C1405 H1411 0.959 . S
C1405 H1412 0.961 . S
C1405 H1413 0.960 . S
C1406 C1404 1.381 . S
C1406 C1407 1.394 . S
C1406 H1414 0.930 . S
C1407 C1406 1.394 . S
C1407 C1408 1.383 . S
C1407 H1415 0.929 . S
C1408 C1407 1.383 . S
C1408 C1409 1.377 . S
C1409 H1393 0.930 1_565 S
C1409 C1408 1.377 . S
C1409 C1410 1.379 . S
C1410 H1394 0.931 . S
C1410 C1404 1.383 . S
C1410 C1409 1.379 . S
H1411 C1405 0.959 . S
H1412 C1405 0.961 . S
H1413 C1405 0.960 . S
H1414 C1406 0.930 . S
H1415 C1407 0.929 . S
H1416 C1424 0.929 . S
H1417 C1426 0.930 . S
H1418 C1428 0.930 . S
H1419 C1431 0.929 . S
H1420 C1434 0.930 . S
H1421 C1436 0.960 . S
H1422 C1436 0.960 . S
H1423 C1436 0.960 . S
C1424 H1416 0.929 . S
C1424 C1425 1.377 . S
C1424 C1426 1.384 . S
C1425 C1424 1.377 . S
C1425 C1431 1.390 . S
C1426 H1417 0.930 . S
C1426 C1424 1.384 . S
C1426 C1427 1.372 . S
C1427 C1426 1.372 . S
C1427 C1428 1.400 . S
C1427 C1432 1.490 . S
C1428 H1418 0.930 . S
C1428 C1427 1.400 . S
C1428 C1431 1.386 . S
H1429 C1445 0.930 . S
H1430 C1446 0.931 . S
C1431 H1419 0.929 . S
C1431 C1425 1.390 . S
C1431 C1428 1.386 . S
C1432 C1427 1.490 . S
C1432 C1434 1.395 . S
C1432 C1435 1.403 . S
H1433 C1439 0.930 . S
C1434 H1420 0.930 . S
C1434 C1432 1.395 . S
C1434 C1437 1.403 . S
C1435 C1432 1.403 . S
C1435 C1436 1.524 . S
C1435 C1439 1.400 . S
C1436 H1421 0.960 . S
C1436 H1422 0.960 . S
C1436 H1423 0.960 . S
C1436 C1435 1.524 . S
C1437 C1434 1.403 . S
C1437 C1438 1.392 . S
C1437 C1441 1.495 . S
C1438 C1437 1.392 . S
C1438 C1439 1.385 . S
C1438 C1440 1.478 . S
C1439 H1433 0.930 . S
C1439 C1435 1.400 . S
C1439 C1438 1.385 . S
C1440 C1438 1.478 . S
C1440 C1442 1.381 . S
C1440 C1446 1.383 . S
C1441 C1437 1.495 . S
C1441 H1447 0.959 . S
C1441 H1448 0.961 . S
C1441 H1449 0.960 . S
C1442 C1440 1.381 . S
C1442 C1443 1.394 . S
C1442 H1450 0.930 . S
C1443 C1442 1.394 . S
C1443 C1444 1.383 . S
C1443 H1451 0.929 . S
C1444 C1443 1.383 . S
C1444 C1445 1.377 . S
C1445 H1429 0.930 . S
C1445 C1444 1.377 . S
C1445 C1446 1.379 . S
C1446 H1430 0.931 . S
C1446 C1440 1.383 . S
C1446 C1445 1.379 . S
H1447 C1441 0.959 . S
H1448 C1441 0.961 . S
H1449 C1441 0.960 . S
H1450 C1442 0.930 . S
H1451 C1443 0.929 . S
H1452 C1460 0.929 . S
H1453 C1462 0.930 . S
H1454 C1464 0.930 . S
H1455 C1467 0.929 . S
H1456 C1470 0.930 . S
H1457 C1472 0.960 . S
H1458 C1472 0.960 . S
H1459 C1472 0.960 . S
C1460 H1452 0.929 . S
C1460 C1461 1.377 . S
C1460 C1462 1.384 . S
C1461 C1460 1.377 . S
C1461 C1467 1.390 . S
C1462 H1453 0.930 . S
C1462 C1460 1.384 . S
C1462 C1463 1.372 . S
C1463 C1462 1.372 . S
C1463 C1464 1.400 . S
C1463 C1468 1.490 . S
C1464 H1454 0.930 . S
C1464 C1463 1.400 . S
C1464 C1467 1.386 . S
H1465 C1481 0.930 . S
H1466 C1482 0.931 . S
C1467 H1455 0.929 . S
C1467 C1461 1.390 . S
C1467 C1464 1.386 . S
C1468 C1463 1.490 . S
C1468 C1470 1.395 . S
C1468 C1471 1.403 . S
H1469 C1475 0.930 . S
C1470 H1456 0.930 . S
C1470 C1468 1.395 . S
C1470 C1473 1.403 . S
C1471 C1468 1.403 . S
C1471 C1472 1.524 . S
C1471 C1475 1.400 . S
C1472 H1457 0.960 . S
C1472 H1458 0.960 . S
C1472 H1459 0.960 . S
C1472 C1471 1.524 . S
C1473 C1470 1.403 . S
C1473 C1474 1.392 . S
C1473 C1477 1.495 . S
C1474 C1473 1.392 . S
C1474 C1475 1.385 . S
C1474 C1476 1.478 . S
C1475 H1469 0.930 . S
C1475 C1471 1.400 . S
C1475 C1474 1.385 . S
C1476 C1474 1.478 . S
C1476 C1478 1.381 . S
C1476 C1482 1.383 . S
C1477 C1473 1.495 . S
C1477 H1483 0.959 . S
C1477 H1484 0.961 . S
C1477 H1485 0.960 . S
C1478 C1476 1.381 . S
C1478 C1479 1.394 . S
C1478 H1486 0.930 . S
C1479 C1478 1.394 . S
C1479 C1480 1.383 . S
C1479 H1487 0.929 . S
C1480 C1479 1.383 . S
C1480 C1481 1.377 . S
C1481 H1465 0.930 . S
C1481 C1480 1.377 . S
C1481 C1482 1.379 . S
C1482 H1466 0.931 . S
C1482 C1476 1.383 . S
C1482 C1481 1.379 . S
H1483 C1477 0.959 . S
H1484 C1477 0.961 . S
H1485 C1477 0.960 . S
H1486 C1478 0.930 . S
H1487 C1479 0.929 . S
C633 C241 2.034 . S
C652 C363 2.088 . S
C688 C447 2.150 . S
C669 C277 2.071 . S
C724 C523 2.126 . S
C705 C169 2.209 . S
C760 C607 2.069 . S
C741 C205 2.183 . S
C796 C354 2.078 1_565 S
C777 C97 1.987 . S
C813 C133 2.125 . S
C832 C438 2.132 . S
C849 C25 2.153 . S
C868 C512 2.121 . S
C885 C61 2.141 . S
C904 C596 2.070 . S
C940 C351 0.404 1_455 S
C921 C211 0.429 . S
C976 C435 0.460 1_545 S
C957 C247 0.360 . S
C1012 C528 0.507 . S
C993 C253 0.473 . S
C1029 C175 0.389 . S
C1048 C612 0.393 . S
C1065 C67 0.511 . S
C1084 C360 0.342 . S
C1120 C444 0.386 . S
C1101 C103 0.503 . S
C1156 C519 0.417 . S
C1137 C109 0.361 . S
C1173 C31 0.499 . S
C1192 C603 0.461 . S
C1209 C181 2.626 . S
C1228 C344 2.702 . S
C1245 C217 2.570 . S
C1264 C428 2.649 . S
C1300 C522 2.649 . S
C1281 C283 2.354 . S
C1336 C606 2.666 . S
C1317 C145 2.472 . S
C1353 C37 2.592 . S
C1372 C355 2.679 . S
C1408 C439 2.609 . S
C1389 C73 2.535 . S
C1444 C531 2.650 . S
C1425 C139 2.391 . S
C1461 C1 2.445 . S
C1480 C615 2.667 . S
