# Generated by pormake.
# Topology pts, (4,4)-cn, num edge types: 1
# Building blocks:
#     Node 0, Type 0, BuildingBlock: GIZVER_clean_linker_0, # of connection points: 4
#     Node 1, Type 0, BuildingBlock: GIZVER_clean_linker_0, # of connection points: 4
#     Node 2, Type 1, BuildingBlock: UXUYUI_clean_sbu_0, # of connection points: 4
#     Node 3, Type 1, BuildingBlock: UXUYUI_clean_sbu_0, # of connection points: 4
#     Edge 4, Type (0, 1), BuildingBlock: CIFDUS_clean_linker_0, # of connection points: 2
#     Edge 5, Type (0, 1), BuildingBlock: CIFDUS_clean_linker_0, # of connection points: 2
#     Edge 6, Type (0, 1), BuildingBlock: CIFDUS_clean_linker_0, # of connection points: 2
#     Edge 7, Type (0, 1), BuildingBlock: CIFDUS_clean_linker_0, # of connection points: 2
#     Edge 8, Type (0, 1), BuildingBlock: CIFDUS_clean_linker_0, # of connection points: 2
#     Edge 9, Type (0, 1), BuildingBlock: CIFDUS_clean_linker_0, # of connection points: 2
#     Edge 10, Type (0, 1), BuildingBlock: CIFDUS_clean_linker_0, # of connection points: 2
#     Edge 11, Type (0, 1), BuildingBlock: CIFDUS_clean_linker_0, # of connection points: 2
# Relax obj value: 0.010
# Max RMSD: 0.058
# Mean RMSD: 0.057
data_MOF--net-pts--node1-UXUYUI_clean_sbu_0--node2-GIZVER_clean_linker_0--edge1-CIFDUS_clean_linker_0
_symmetry_space_group_name_H-M    P1
_symmetry_Int_Tables_number       1
_symmetry_cell_setting            triclinic
loop_
_symmetry_equiv_pos_as_xyz
'x, y, z'
_cell_length_a     28.555091
_cell_length_b     28.659927
_cell_length_c     38.639167
_cell_angle_alpha  89.94305
_cell_angle_beta   89.377633
_cell_angle_gamma 90.006887
loop_
_atom_site_label
_atom_site_type_symbol
_atom_site_fract_x
_atom_site_fract_y
_atom_site_fract_z
_atom_type_partial_charge
H0 H 0.58709 0.0765 0.03454 0.0
H1 H 0.58355 0.07284 0.92299 0.0
H2 H 0.70606 0.0268 0.97701 0.0
H3 H 0.53049 0.1233 0.00318 0.0
H4 H 0.53113 0.12523 0.9571 0.0
H5 H 0.47673 0.07306 0.03338 0.0
H6 H 0.37789 0.99441 0.97392 0.0
H7 H 0.49321 0.06218 0.92272 0.0
C8 C 0.60294 0.0668 0.00996 0.0
C9 C 0.64874 0.04932 0.0091 0.0
C10 C 0.57906 0.0753 0.97888 0.0
C11 C 0.60119 0.06498 0.94698 0.0
C12 C 0.64685 0.04656 0.94604 0.0
C13 C 0.66994 0.03858 0.97732 0.0
C14 C 0.53298 0.10108 0.97962 0.0
C15 C 0.49176 0.06817 0.97853 0.0
C16 C 0.46605 0.058 0.00899 0.0
C17 C 0.42418 0.03234 0.00736 0.0
C18 C 0.41038 1.01389 0.97544 0.0
C19 C 0.43446 0.02512 0.94483 0.0
C20 C 0.47544 0.05195 0.94647 0.0
H21 H 0.08102 0.57714 0.4262 0.0
H22 H 0.09023 0.58364 0.5374 0.0
H23 H 0.03099 0.6979 0.48154 0.0
H24 H 0.13828 0.52882 0.45867 0.0
H25 H 0.138 0.52848 0.50478 0.0
H26 H 0.08166 0.48273 0.42612 0.0
H27 H 1.01701 0.36931 0.48196 0.0
H28 H 0.08083 0.48122 0.53761 0.0
C29 C 0.07354 0.59502 0.45033 0.0
C30 C 0.05272 0.63951 0.44985 0.0
C31 C 0.08677 0.57437 0.48188 0.0
C32 C 0.07851 0.59834 0.51313 0.0
C33 C 0.05772 0.64256 0.5128 0.0
C34 C 0.04463 0.66257 0.48138 0.0
C35 C 0.1148 0.52977 0.48184 0.0
C36 C 0.08361 0.48728 0.4818 0.0
C37 C 0.07086 0.46652 0.45026 0.0
C38 C 0.04657 0.42381 0.44986 0.0
C39 C 0.03337 0.40344 0.48157 0.0
C40 C 0.04505 0.424 0.51317 0.0
C41 C 0.07026 0.466 0.51323 0.0
Li42 Li 0.02989 0.07138 0.25916 0.0
Li43 Li 0.02712 0.98778 0.25759 0.0
Li44 Li 0.07675 0.0333 0.2141 0.0
Li45 Li 0.98845 0.03155 0.21353 0.0
C46 C 0.11216 0.04501 0.28988 0.0
N47 N 0.17013 0.08057 0.34019 0.0
C48 C 0.09672 0.04736 0.32428 0.0
C49 C 0.15712 0.06059 0.28106 0.0
C50 C 0.12653 0.06554 0.34933 0.0
C51 C 0.1859 0.07846 0.30688 0.0
C52 C 0.94777 1.01109 0.28873 0.0
C53 C 0.89522 0.95028 0.30806 0.0
N54 N 0.89678 0.96772 0.34076 0.0
C55 C 0.94874 0.0285 0.32251 0.0
C56 C 0.92064 0.97179 0.28139 0.0
C57 C 0.92272 1.00606 0.34845 0.0
C58 C 0.98233 0.14425 0.2923 0.0
N59 N 0.02619 0.1275 0.28626 0.0
C60 C 0.05968 0.19344 0.31466 0.0
C61 C 0.06462 0.1518 0.29629 0.0
C62 C 1.01472 0.21136 0.32182 0.0
C63 C 0.97575 0.1863 0.30988 0.0
H64 H 0.95235 0.12522 0.28289 0.0
H65 H 0.09922 0.13942 0.28969 0.0
C66 C 0.02522 0.88927 0.2666 0.0
N67 N 0.02486 0.93086 0.28359 0.0
C68 C 0.02109 0.84739 0.28504 0.0
C69 C 1.01649 0.89201 0.33801 0.0
C70 C 0.02165 0.93278 0.31868 0.0
C71 C 1.01585 0.8487 0.32116 0.0
H72 H 0.02835 0.88859 0.2387 0.0
H73 H 0.02219 0.966 0.3317 0.0
C74 C 0.02687 0.13196 0.20763 0.0
N75 N 1.0159 0.2277 0.20879 0.0
C76 C 0.98228 0.15159 0.20477 0.0
C77 C 0.06592 0.16098 0.21091 0.0
C78 C 0.97747 0.2001 0.20543 0.0
C79 C 0.05962 0.20931 0.2115 0.0
C80 C 1.01609 0.95848 0.17762 0.0
C81 C 0.03788 0.96591 0.14552 0.0
C82 C 0.97568 0.93105 0.1797 0.0
C83 C 1.01853 0.9461 0.11591 0.0
C84 C 0.95738 0.91192 0.14949 0.0
N85 N 0.97899 0.9198 0.11848 0.0
C86 C 0.16614 1.00348 0.18795 0.0
C87 C 0.13279 0.07026 0.16167 0.0
C88 C 0.204 1.00467 0.16458 0.0
N89 N 0.13137 0.03576 0.18575 0.0
C90 C 0.16989 0.07295 0.13809 0.0
C91 C 0.20566 0.03929 0.13879 0.0
H92 H 0.16386 0.9762 0.20727 0.0
H93 H 0.10441 0.09507 0.16018 0.0
C94 C 0.89187 0.03154 0.19604 0.0
N95 N 0.93636 0.03576 0.18355 0.0
C96 C 0.85377 0.03793 0.17413 0.0
C97 C 0.90818 0.05265 0.127 0.0
C98 C 0.94511 0.0462 0.1498 0.0
C99 C 0.86171 0.04912 0.13915 0.0
H100 H 0.88589 0.02437 0.22317 0.0
H101 H 0.98085 0.05019 0.14076 0.0
O102 O 0.08373 0.02716 0.26494 0.0
O103 O 0.97337 0.03229 0.26304 0.0
O104 O 0.03214 0.08454 0.20802 0.0
O105 O 0.03399 0.97829 0.20681 0.0
H106 H 0.06179 0.03624 0.33145 0.0
H107 H 0.16959 0.05902 0.25454 0.0
H108 H 0.11493 0.0679 0.37602 0.0
H109 H 0.22075 0.09073 0.30043 0.0
H110 H 0.87435 0.91965 0.30279 0.0
H111 H 0.96986 0.05858 0.32878 0.0
H112 H 0.91968 0.9577 0.25546 0.0
H113 H 0.92336 0.01899 0.37473 0.0
H114 H 0.09095 0.21095 0.32345 0.0
H115 H 0.94043 0.19908 0.31379 0.0
H116 H 1.02101 0.81451 0.27126 0.0
H117 H 1.01329 0.89426 0.36593 0.0
H118 H 0.95166 0.12963 0.2025 0.0
H119 H 0.10062 0.14629 0.21359 0.0
H120 H 0.94315 0.21578 0.20343 0.0
H121 H 0.08947 0.23219 0.2143 0.0
H122 H 0.06916 0.98705 0.14344 0.0
H123 H 0.95843 0.92494 0.20435 0.0
H124 H 0.03488 0.95175 0.09087 0.0
H125 H 0.92596 0.89087 0.15068 0.0
H126 H 0.2306 0.97781 0.16584 0.0
H127 H 0.17003 0.10066 0.11901 0.0
H128 H 0.81857 0.03551 0.18469 0.0
H129 H 0.91601 0.06059 0.10015 0.0
Li130 Li 1.00076 0.03265 0.75345 0.0
Li131 Li 0.08649 0.03253 0.75403 0.0
Li132 Li 0.04314 0.07973 0.71061 0.0
Li133 Li 0.04585 0.99312 0.70719 0.0
C134 C 0.03833 0.108 0.79265 0.0
N135 N 0.02686 0.15195 0.85577 0.0
C136 C 0.04846 0.0843 0.82327 0.0
C137 C 0.0228 0.15421 0.79407 0.0
C138 C 0.04232 0.10707 0.85494 0.0
C139 C 1.01709 0.17578 0.82625 0.0
C140 C 0.05182 0.94757 0.78316 0.0
C141 C 0.08948 0.87808 0.80454 0.0
N142 N 0.06922 0.88521 0.83611 0.0
C143 C 0.03102 0.95394 0.81575 0.0
C144 C 0.08097 0.90909 0.77741 0.0
C145 C 0.04039 0.92213 0.8422 0.0
C146 C 0.92241 0.98576 0.78015 0.0
N147 N 0.94363 0.02821 0.7794 0.0
C148 C 0.88157 0.06132 0.81336 0.0
C149 C 0.92384 0.06587 0.79515 0.0
C150 C 0.85926 1.01765 0.81522 0.0
C151 C 0.88012 0.9796 0.79809 0.0
H152 H 0.93853 0.9566 0.76684 0.0
H153 H 0.94064 0.09952 0.79354 0.0
C154 C 0.17683 0.06347 0.76661 0.0
N155 N 0.14378 0.03375 0.77941 0.0
C156 C 0.22085 0.06632 0.78185 0.0
C157 C 0.19594 1.00842 0.82361 0.0
C158 C 0.15243 1.0066 0.8075 0.0
C159 C 0.23094 0.0385 0.81075 0.0
H160 H 0.16904 0.0848 0.7443 0.0
H161 H 0.12571 0.98377 0.81774 0.0
C162 C 0.94961 0.05876 0.69573 0.0
N163 N 0.86697 0.10568 0.6833 0.0
C164 C 0.91646 0.03968 0.6735 0.0
C165 C 0.94073 0.10165 0.7117 0.0
C166 C 0.87489 0.06397 0.66752 0.0
C167 C 0.89875 0.12483 0.70507 0.0
C168 C 0.13741 0.01912 0.68921 0.0
C169 C 0.15801 0.03872 0.65962 0.0
C170 C 0.15702 0.97928 0.70402 0.0
C171 C 0.19794 1.0179 0.64524 0.0
C172 C 0.19697 0.95951 0.68889 0.0
N173 N 0.21642 0.97906 0.66004 0.0
C174 C 0.07052 0.17231 0.70017 0.0
C175 C 0.02313 0.1424 0.65533 0.0
C176 C 0.07401 0.21536 0.68338 0.0
N177 N 0.04541 0.13702 0.68596 0.0
C178 C 0.02539 0.18499 0.63777 0.0
C179 C 0.05126 0.22211 0.65174 0.0
H180 H 0.08801 0.16685 0.72454 0.0
H181 H 1.0038 0.11356 0.64445 0.0
C182 C 0.0349 0.89821 0.69041 0.0
N183 N 0.04913 0.94023 0.67776 0.0
C184 C 0.04099 0.85775 0.67074 0.0
C185 C 0.0748 0.9049 0.62495 0.0
C186 C 0.06795 0.94441 0.64547 0.0
C187 C 0.06187 0.86072 0.63773 0.0
H188 H 1.01968 0.89601 0.71611 0.0
H189 H 0.0784 0.97835 0.63589 0.0
O190 O 0.04385 0.0864 0.76134 0.0
O191 O 0.04283 0.97816 0.75683 0.0
O192 O 0.99026 0.03512 0.70205 0.0
O193 O 0.09796 0.03874 0.70331 0.0
H194 H 0.06103 0.0488 0.82259 0.0
H195 H 1.0149 0.17308 0.77056 0.0
H196 H 0.04993 0.08909 0.87885 0.0
H197 H 1.00486 0.21145 0.82776 0.0
H198 H 0.11214 0.84829 0.80048 0.0
H199 H 1.00803 0.98319 0.82069 0.0
H200 H 0.09687 0.90311 0.75227 0.0
H201 H 0.02472 0.9268 0.86758 0.0
H202 H 0.86707 0.09152 0.82645 0.0
H203 H 0.8639 0.94544 0.79847 0.0
H204 H 0.24678 0.08985 0.77095 0.0
H205 H 0.20173 0.98714 0.84635 0.0
H206 H 0.92279 1.00643 0.66103 0.0
H207 H 0.96591 0.11689 0.72904 0.0
H208 H 0.8489 0.04963 0.65036 0.0
H209 H 0.89143 0.15804 0.71726 0.0
H210 H 0.14313 0.06956 0.64785 0.0
H211 H 0.14156 0.96386 0.72696 0.0
H212 H 0.21421 0.03261 0.62228 0.0
H213 H 0.2125 0.92863 0.70008 0.0
H214 H 0.09414 0.2431 0.69508 0.0
H215 H 1.008 0.18847 0.61313 0.0
H216 H 0.03064 0.82443 0.68162 0.0
H217 H 0.09011 0.90891 0.59935 0.0
H218 H 0.33169 0.04952 0.00457 0.0
H219 H 0.4407 1.01513 0.07661 0.0
H220 H 0.38274 1.01414 0.12417 0.0
H221 H 0.3002 0.02274 0.14473 0.0
H222 H 0.19291 0.05403 0.0702 0.0
H223 H 0.2512 0.05582 0.02404 0.0
C224 C 0.34287 0.04088 0.03055 0.0
C225 C 0.39032 0.03142 0.03691 0.0
C226 C 0.3096 0.03995 0.05733 0.0
C227 C 0.40432 0.02227 0.07101 0.0
C228 C 0.37117 0.02156 0.09813 0.0
C229 C 0.28966 0.02962 0.11834 0.0
C230 C 0.24222 0.03887 0.1111 0.0
C231 C 0.32357 0.0302 0.09154 0.0
C232 C 0.22919 0.0479 0.07674 0.0
C233 C 0.26246 0.04863 0.05021 0.0
H234 H 0.10867 0.39526 0.56002 0.0
H235 H 0.9616 0.39027 0.53653 0.0
H236 H 0.94953 0.32951 0.58024 0.0
H237 H 0.98278 0.27106 0.61947 0.0
H238 H 0.13069 0.27341 0.64089 0.0
H239 H 0.14045 0.3422 0.60414 0.0
C240 C 0.07379 0.38188 0.56536 0.0
C241 C 0.03603 0.3971 0.54527 0.0
C242 C 0.06747 0.34588 0.5897 0.0
C243 C 0.99107 0.37901 0.55187 0.0
C244 C 0.98428 0.34405 0.5766 0.0
C245 C 1.01708 0.28684 0.61623 0.0
C246 C 0.05602 0.26682 0.63253 0.0
C247 C 0.02254 0.32599 0.59469 0.0
C248 C 0.10011 0.28819 0.62869 0.0
C249 C 0.10577 0.32742 0.60754 0.0
H250 H 0.7213 0.10517 0.02161 0.0
H251 H 0.64258 0.99074 0.065 0.0
H252 H 0.70088 0.98185 0.11098 0.0
H253 H 0.77824 1.00242 0.13498 0.0
H254 H 0.85584 0.11754 0.09046 0.0
H255 H 0.79421 0.13013 0.04844 0.0
C256 C 0.71663 0.07888 0.0416 0.0
C257 C 0.6781 0.04863 0.04024 0.0
C258 C 0.75045 0.07364 0.06724 0.0
C259 C 0.67202 1.01454 0.06594 0.0
C260 C 0.70549 1.00929 0.09192 0.0
C261 C 0.78131 0.03069 0.11643 0.0
C262 C 0.82208 0.05843 0.1155 0.0
C263 C 0.74547 0.03796 0.09231 0.0
C264 C 0.8255 0.09485 0.09119 0.0
C265 C 0.7901 0.10236 0.0673 0.0
H266 H 0.12319 0.70283 0.53315 0.0
H267 H 0.98628 0.65028 0.55969 0.0
H268 H 0.97645 0.71212 0.60317 0.0
H269 H 1.00382 0.78606 0.62863 0.0
H270 H 0.14014 0.83959 0.59993 0.0
H271 H 0.15319 0.77276 0.56202 0.0
C272 C 0.09185 0.70434 0.54926 0.0
C273 C 0.05578 0.67202 0.54395 0.0
C274 C 0.08602 0.74071 0.57315 0.0
C275 C 1.01471 0.67453 0.56406 0.0
C276 C 1.00898 0.7101 0.58853 0.0
C277 C 0.03668 0.78269 0.61451 0.0
C278 C 0.07069 0.81813 0.61675 0.0
C279 C 0.04391 0.74416 0.59259 0.0
C280 C 0.11296 0.81337 0.59809 0.0
C281 C 0.12062 0.775 0.57659 0.0
H282 H 0.40608 0.0909 0.90011 0.0
H283 H 0.40491 0.9425 0.91779 0.0
H284 H 0.34427 0.93282 0.87402 0.0
H285 H 0.28382 0.96819 0.83752 0.0
H286 H 0.28103 0.11768 0.82398 0.0
H287 H 0.3513 0.12532 0.85878 0.0
C288 C 0.39377 0.0563 0.89335 0.0
C289 C 0.41 1.01739 0.9118 0.0
C290 C 0.35744 0.05139 0.86943 0.0
C291 C 0.39309 0.9728 0.90355 0.0
C292 C 0.35808 0.9674 0.87888 0.0
C293 C 0.29874 1.00241 0.84205 0.0
C294 C 0.27675 0.04232 0.8285 0.0
C295 C 0.33858 1.0067 0.86282 0.0
C296 C 0.29721 0.08632 0.83394 0.0
C297 C 0.33732 0.09078 0.85403 0.0
H298 H 0.97313 0.36795 0.43229 0.0
H299 H 0.10701 0.41729 0.39418 0.0
H300 H 0.10518 0.35989 0.34778 0.0
H301 H 0.07134 0.28872 0.32321 0.0
H302 H 0.9441 0.2321 0.36806 0.0
H303 H 0.93781 0.29896 0.40636 0.0
C304 C 1.00197 0.36631 0.41383 0.0
C305 C 0.04053 0.39653 0.41734 0.0
C306 C 1.00224 0.33125 0.38855 0.0
C307 C 0.07665 0.39486 0.39228 0.0
C308 C 0.076 0.36147 0.36592 0.0
C309 C 0.04232 0.29067 0.34146 0.0
C310 C 1.00862 0.25472 0.34277 0.0
C311 C 0.03996 0.32825 0.36474 0.0
C312 C 0.97045 0.25912 0.36594 0.0
C313 C 0.96696 0.2973 0.3882 0.0
H314 H 0.70311 0.97454 0.92694 0.0
H315 H 0.65264 0.10817 0.89203 0.0
H316 H 0.7114 0.10865 0.84553 0.0
H317 H 0.78389 0.07615 0.82009 0.0
H318 H 0.83727 0.94514 0.85827 0.0
H319 H 0.77075 0.93857 0.89802 0.0
C320 C 0.70452 1.00341 0.90877 0.0
C321 C 0.67392 0.04148 0.91319 0.0
C322 C 0.73949 1.00429 0.88301 0.0
C323 C 0.67557 0.07829 0.88913 0.0
C324 C 0.7096 0.07887 0.8628 0.0
C325 C 0.78084 0.04608 0.83702 0.0
C326 C 0.81589 1.01148 0.83642 0.0
C327 C 0.74289 0.04293 0.86038 0.0
C328 C 0.8108 0.97219 0.85798 0.0
C329 C 0.77287 0.96852 0.88092 0.0
H330 H 0.97903 0.69518 0.43383 0.0
H331 H 0.1099 0.64333 0.39239 0.0
H332 H 0.10636 0.7 0.34524 0.0
H333 H 0.07262 0.77258 0.32145 0.0
H334 H 0.94636 0.8288 0.36714 0.0
H335 H 0.94185 0.76288 0.40723 0.0
C336 C 1.00655 0.69592 0.41425 0.0
C337 C 0.04501 0.6655 0.41702 0.0
C338 C 1.00555 0.73015 0.38833 0.0
C339 C 0.07975 0.66613 0.39093 0.0
C340 C 0.07808 0.69901 0.36416 0.0
C341 C 0.0437 0.76971 0.33976 0.0
C342 C 1.01007 0.80546 0.34168 0.0
C343 C 0.04216 0.73242 0.36345 0.0
C344 C 0.97285 0.80179 0.36557 0.0
C345 C 0.97026 0.76415 0.38842 0.0
loop_
_geom_bond_atom_site_label_1
_geom_bond_atom_site_label_2
_geom_bond_distance
_geom_bond_site_symmetry_2
_ccdc_geom_bond_type
H0 C8 0.930 . S
H1 C11 0.930 . S
H2 C13 0.930 1_565 S
H3 C14 0.970 . S
H4 C14 0.970 1_556 S
H5 C16 0.930 . S
H6 C18 0.930 1_565 S
H7 C20 0.930 . S
C8 H0 0.930 . S
C8 C9 1.382 . S
C8 C10 1.426 . S
C9 C8 1.382 . S
C9 C13 1.389 . S
C10 C8 1.426 . S
C10 C11 1.375 1_554 S
C10 C14 1.532 . S
C11 H1 0.930 . S
C11 C10 1.375 1_556 S
C11 C12 1.416 . S
C12 C11 1.416 . S
C12 C13 1.371 1_556 S
C13 H2 0.930 1_545 S
C13 C9 1.389 . S
C13 C12 1.371 1_554 S
C14 H3 0.970 . S
C14 H4 0.970 1_554 S
C14 C10 1.532 . S
C14 C15 1.499 . S
C15 C14 1.499 . S
C15 C16 1.370 . S
C15 C20 1.415 1_554 S
C16 H5 0.930 . S
C16 C15 1.370 . S
C16 C17 1.407 . S
C17 C16 1.407 . S
C17 C18 1.365 . S
C18 H6 0.930 1_545 S
C18 C17 1.365 . S
C18 C19 1.393 1_554 S
C19 C18 1.393 1_556 S
C19 C20 1.387 . S
C20 H7 0.930 . S
C20 C15 1.415 1_556 S
C20 C19 1.387 . S
H21 C29 0.930 . S
H22 C32 0.930 . S
H23 C34 0.930 1_655 S
H24 C35 0.970 . S
H25 C35 0.970 . S
H26 C37 0.930 . S
H27 C39 0.930 1_655 S
H28 C41 0.930 . S
C29 H21 0.930 . S
C29 C30 1.382 . S
C29 C31 1.426 . S
C30 C29 1.382 . S
C30 C34 1.389 . S
C31 C29 1.426 . S
C31 C32 1.375 . S
C31 C35 1.532 . S
C32 H22 0.930 . S
C32 C31 1.375 . S
C32 C33 1.416 . S
C33 C32 1.416 . S
C33 C34 1.371 . S
C34 H23 0.930 1_455 S
C34 C30 1.389 . S
C34 C33 1.371 . S
C35 H24 0.970 . S
C35 H25 0.970 . S
C35 C31 1.532 . S
C35 C36 1.499 . S
C36 C35 1.499 . S
C36 C37 1.370 . S
C36 C41 1.415 . S
C37 H26 0.930 . S
C37 C36 1.370 . S
C37 C38 1.407 . S
C38 C37 1.407 . S
C38 C39 1.365 . S
C39 H27 0.930 1_455 S
C39 C38 1.365 . S
C39 C40 1.393 . S
C40 C39 1.393 . S
C40 C41 1.387 . S
C41 H28 0.930 . S
C41 C36 1.415 . S
C41 C40 1.387 . S
Li42 N59 1.990 . S
Li42 O102 1.956 . S
Li42 O103 1.970 1_455 S
Li42 O104 1.961 . S
Li43 N67 1.990 . S
Li43 O102 1.970 1_565 S
Li43 O103 1.956 1_465 S
Li43 O105 1.961 . S
Li44 N89 1.990 . S
Li44 O102 1.961 . S
Li44 O104 1.956 . S
Li44 O105 1.970 1_545 S
Li45 N95 1.990 . S
Li45 O103 1.961 . S
Li45 O104 1.970 1_655 S
Li45 O105 1.956 1_645 S
C46 C48 1.348 1_545 S
C46 C49 1.356 . S
C46 O102 1.325 . S
N47 C50 1.314 1_545 S
N47 C51 1.279 . S
C48 C46 1.348 1_565 S
C48 C50 1.353 . S
C48 H106 0.929 . S
C49 C46 1.356 . S
C49 C51 1.358 . S
C49 H107 0.930 . S
C50 N47 1.314 1_565 S
C50 C48 1.353 . S
C50 H108 0.930 . S
C51 N47 1.279 . S
C51 C49 1.358 . S
C51 H109 0.930 . S
C52 C55 1.348 . S
C52 C56 1.356 1_545 S
C52 O103 1.325 . S
C53 N54 1.279 1_565 S
C53 C56 1.358 . S
C53 H110 0.930 . S
N54 C53 1.279 1_545 S
N54 C57 1.314 . S
C55 C52 1.348 . S
C55 C57 1.353 . S
C55 H111 0.929 . S
C56 C52 1.356 1_565 S
C56 C53 1.358 . S
C56 H112 0.930 . S
C57 N54 1.314 . S
C57 C55 1.353 . S
C57 H113 0.930 . S
C58 N59 1.314 1_655 S
C58 C63 1.353 . S
C58 H64 0.930 . S
N59 Li42 1.990 . S
N59 C58 1.314 1_455 S
N59 C61 1.279 . S
C60 C61 1.358 . S
C60 C62 1.356 . S
C60 H114 0.930 . S
C61 N59 1.279 . S
C61 C60 1.358 . S
C61 H65 0.930 . S
C62 C60 1.356 . S
C62 C63 1.348 1_455 S
C63 C58 1.353 . S
C63 C62 1.348 1_655 S
C63 H115 0.929 . S
H64 C58 0.930 . S
H65 C61 0.930 . S
C66 N67 1.314 . S
C66 C68 1.353 . S
C66 H72 0.930 . S
N67 Li43 1.990 . S
N67 C66 1.314 . S
N67 C70 1.279 1_455 S
C68 C66 1.353 . S
C68 C71 1.348 . S
C68 H116 0.929 . S
C69 C70 1.358 . S
C69 C71 1.356 1_655 S
C69 H117 0.930 . S
C70 N67 1.279 1_655 S
C70 C69 1.358 . S
C70 H73 0.930 . S
C71 C68 1.348 . S
C71 C69 1.356 1_455 S
H72 C66 0.930 . S
H73 C70 0.930 . S
C74 C76 1.348 1_455 S
C74 C77 1.356 . S
C74 O104 1.325 . S
N75 C78 1.314 1_455 S
N75 C79 1.279 . S
C76 C74 1.348 1_655 S
C76 C78 1.353 . S
C76 H118 0.929 . S
C77 C74 1.356 . S
C77 C79 1.358 . S
C77 H119 0.930 . S
C78 N75 1.314 1_655 S
C78 C76 1.353 . S
C78 H120 0.930 . S
C79 N75 1.279 . S
C79 C77 1.358 . S
C79 H121 0.930 . S
C80 C81 1.348 . S
C80 C82 1.356 1_455 S
C80 O105 1.325 . S
C81 C80 1.348 . S
C81 C83 1.353 . S
C81 H122 0.929 . S
C82 C80 1.356 1_655 S
C82 C84 1.358 . S
C82 H123 0.930 . S
C83 C81 1.353 . S
C83 N85 1.314 . S
C83 H124 0.930 . S
C84 C82 1.358 . S
C84 N85 1.279 1_655 S
C84 H125 0.930 . S
N85 C83 1.314 . S
N85 C84 1.279 1_455 S
C86 C88 1.353 . S
C86 N89 1.314 1_565 S
C86 H92 0.930 . S
C87 N89 1.279 . S
C87 C90 1.358 . S
C87 H93 0.930 . S
C88 C86 1.353 . S
C88 C91 1.348 1_565 S
C88 H126 0.929 . S
N89 Li44 1.990 . S
N89 C86 1.314 1_545 S
N89 C87 1.279 . S
C90 C87 1.358 . S
C90 C91 1.356 . S
C90 H127 0.930 . S
C91 C88 1.348 1_545 S
C91 C90 1.356 . S
H92 C86 0.930 . S
H93 C87 0.930 . S
C94 N95 1.314 . S
C94 C96 1.353 . S
C94 H100 0.930 . S
N95 Li45 1.990 . S
N95 C94 1.314 . S
N95 C98 1.279 1_545 S
C96 C94 1.353 . S
C96 C99 1.348 . S
C96 H128 0.929 . S
C97 C98 1.358 . S
C97 C99 1.356 1_565 S
C97 H129 0.930 . S
C98 N95 1.279 1_565 S
C98 C97 1.358 . S
C98 H101 0.930 . S
C99 C96 1.348 . S
C99 C97 1.356 1_545 S
H100 C94 0.930 . S
H101 C98 0.930 . S
O102 Li42 1.956 . S
O102 Li43 1.970 1_545 S
O102 Li44 1.961 . S
O102 C46 1.325 . S
O103 Li42 1.970 1_655 S
O103 Li43 1.956 1_645 S
O103 Li45 1.961 . S
O103 C52 1.325 . S
O104 Li42 1.961 . S
O104 Li44 1.956 . S
O104 Li45 1.970 1_455 S
O104 C74 1.325 . S
O105 Li43 1.961 . S
O105 Li44 1.970 1_565 S
O105 Li45 1.956 1_465 S
O105 C80 1.325 . S
H106 C48 0.929 . S
H107 C49 0.930 . S
H108 C50 0.930 . S
H109 C51 0.930 . S
H110 C53 0.930 . S
H111 C55 0.929 . S
H112 C56 0.930 . S
H113 C57 0.930 . S
H114 C60 0.930 . S
H115 C63 0.929 . S
H116 C68 0.929 . S
H117 C69 0.930 . S
H118 C76 0.929 . S
H119 C77 0.930 . S
H120 C78 0.930 . S
H121 C79 0.930 . S
H122 C81 0.929 . S
H123 C82 0.930 . S
H124 C83 0.930 . S
H125 C84 0.930 . S
H126 C88 0.929 . S
H127 C90 0.930 . S
H128 C96 0.929 . S
H129 C97 0.930 . S
Li130 N147 1.990 . S
Li130 O190 1.956 1_655 S
Li130 O191 1.970 1_645 S
Li130 O192 1.961 . S
Li131 N155 1.990 . S
Li131 O190 1.970 . S
Li131 O191 1.956 1_545 S
Li131 O193 1.961 . S
Li132 N177 1.990 . S
Li132 O190 1.961 . S
Li132 O192 1.956 1_455 S
Li132 O193 1.970 . S
Li133 N183 1.990 . S
Li133 O191 1.961 . S
Li133 O192 1.970 1_465 S
Li133 O193 1.956 1_565 S
C134 C136 1.348 . S
C134 C137 1.356 1_455 S
C134 O190 1.325 . S
N135 C138 1.314 . S
N135 C139 1.279 1_455 S
C136 C134 1.348 . S
C136 C138 1.353 . S
C136 H194 0.929 . S
C137 C134 1.356 1_655 S
C137 C139 1.358 . S
C137 H195 0.930 . S
C138 N135 1.314 . S
C138 C136 1.353 . S
C138 H196 0.930 . S
C139 N135 1.279 1_655 S
C139 C137 1.358 . S
C139 H197 0.930 . S
C140 C143 1.348 1_455 S
C140 C144 1.356 . S
C140 O191 1.325 . S
C141 N142 1.279 . S
C141 C144 1.358 . S
C141 H198 0.930 . S
N142 C141 1.279 . S
N142 C145 1.314 1_455 S
C143 C140 1.348 1_655 S
C143 C145 1.353 . S
C143 H199 0.929 . S
C144 C140 1.356 . S
C144 C141 1.358 . S
C144 H200 0.930 . S
C145 N142 1.314 1_655 S
C145 C143 1.353 . S
C145 H201 0.930 . S
C146 N147 1.314 1_565 S
C146 C151 1.353 . S
C146 H152 0.930 . S
N147 Li130 1.990 . S
N147 C146 1.314 1_545 S
N147 C149 1.279 . S
C148 C149 1.358 . S
C148 C150 1.356 . S
C148 H202 0.930 . S
C149 N147 1.279 . S
C149 C148 1.358 . S
C149 H153 0.930 . S
C150 C148 1.356 . S
C150 C151 1.348 1_545 S
C151 C146 1.353 . S
C151 C150 1.348 1_565 S
C151 H203 0.929 . S
H152 C146 0.930 . S
H153 C149 0.930 . S
C154 N155 1.314 . S
C154 C156 1.353 . S
C154 H160 0.930 . S
N155 Li131 1.990 . S
N155 C154 1.314 . S
N155 C158 1.279 1_545 S
C156 C154 1.353 . S
C156 C159 1.348 . S
C156 H204 0.929 . S
C157 C158 1.358 . S
C157 C159 1.356 1_565 S
C157 H205 0.930 . S
C158 N155 1.279 1_565 S
C158 C157 1.358 . S
C158 H161 0.930 . S
C159 C156 1.348 . S
C159 C157 1.356 1_545 S
H160 C154 0.930 . S
H161 C158 0.930 . S
C162 C164 1.348 1_545 S
C162 C165 1.356 . S
C162 O192 1.325 . S
N163 C166 1.314 1_545 S
N163 C167 1.279 . S
C164 C162 1.348 1_565 S
C164 C166 1.353 . S
C164 H206 0.929 . S
C165 C162 1.356 . S
C165 C167 1.358 . S
C165 H207 0.930 . S
C166 N163 1.314 1_565 S
C166 C164 1.353 . S
C166 H208 0.930 . S
C167 N163 1.279 . S
C167 C165 1.358 . S
C167 H209 0.930 . S
C168 C169 1.348 . S
C168 C170 1.356 1_545 S
C168 O193 1.325 . S
C169 C168 1.348 . S
C169 C171 1.353 . S
C169 H210 0.929 . S
C170 C168 1.356 1_565 S
C170 C172 1.358 . S
C170 H211 0.930 . S
C171 C169 1.353 . S
C171 N173 1.314 . S
C171 H212 0.930 . S
C172 C170 1.358 . S
C172 N173 1.279 1_565 S
C172 H213 0.930 . S
N173 C171 1.314 . S
N173 C172 1.279 1_545 S
C174 C176 1.353 . S
C174 N177 1.314 . S
C174 H180 0.930 . S
C175 N177 1.279 1_655 S
C175 C178 1.358 . S
C175 H181 0.930 . S
C176 C174 1.353 . S
C176 C179 1.348 . S
C176 H214 0.929 . S
N177 Li132 1.990 . S
N177 C174 1.314 . S
N177 C175 1.279 1_455 S
C178 C175 1.358 . S
C178 C179 1.356 1_655 S
C178 H215 0.930 . S
C179 C176 1.348 . S
C179 C178 1.356 1_455 S
H180 C174 0.930 . S
H181 C175 0.930 . S
C182 N183 1.314 1_655 S
C182 C184 1.353 . S
C182 H188 0.930 . S
N183 Li133 1.990 . S
N183 C182 1.314 1_455 S
N183 C186 1.279 . S
C184 C182 1.353 . S
C184 C187 1.348 1_655 S
C184 H216 0.929 . S
C185 C186 1.358 . S
C185 C187 1.356 . S
C185 H217 0.930 . S
C186 N183 1.279 . S
C186 C185 1.358 . S
C186 H189 0.930 . S
C187 C184 1.348 1_455 S
C187 C185 1.356 . S
H188 C182 0.930 . S
H189 C186 0.930 . S
O190 Li130 1.956 1_455 S
O190 Li131 1.970 . S
O190 Li132 1.961 . S
O190 C134 1.325 . S
O191 Li130 1.970 1_465 S
O191 Li131 1.956 1_565 S
O191 Li133 1.961 . S
O191 C140 1.325 . S
O192 Li130 1.961 . S
O192 Li132 1.956 1_655 S
O192 Li133 1.970 1_645 S
O192 C162 1.325 . S
O193 Li131 1.961 . S
O193 Li132 1.970 . S
O193 Li133 1.956 1_545 S
O193 C168 1.325 . S
H194 C136 0.929 . S
H195 C137 0.930 . S
H196 C138 0.930 . S
H197 C139 0.930 . S
H198 C141 0.930 . S
H199 C143 0.929 . S
H200 C144 0.930 . S
H201 C145 0.930 . S
H202 C148 0.930 . S
H203 C151 0.929 . S
H204 C156 0.929 . S
H205 C157 0.930 . S
H206 C164 0.929 . S
H207 C165 0.930 . S
H208 C166 0.930 . S
H209 C167 0.930 . S
H210 C169 0.929 . S
H211 C170 0.930 . S
H212 C171 0.930 . S
H213 C172 0.930 . S
H214 C176 0.929 . S
H215 C178 0.930 . S
H216 C184 0.929 . S
H217 C185 0.930 . S
H218 C224 0.930 . S
H219 C227 0.930 . S
H220 C228 0.930 . S
H221 C229 0.930 . S
H222 C232 0.930 1_565 S
H223 C233 0.933 . S
C224 H218 0.930 . S
C224 C225 1.355 . S
C224 C226 1.415 . S
C225 C224 1.355 . S
C225 C227 1.419 . S
C226 C224 1.415 . S
C226 C231 1.425 . S
C226 C233 1.407 1_545 S
C227 H219 0.930 . S
C227 C225 1.419 . S
C227 C228 1.362 . S
C228 H220 0.930 . S
C228 C227 1.362 . S
C228 C231 1.409 . S
C229 H221 0.930 . S
C229 C230 1.355 . S
C229 C231 1.415 . S
C230 C229 1.355 . S
C230 C232 1.419 . S
C231 C226 1.425 . S
C231 C228 1.409 . S
C231 C229 1.415 . S
C232 H222 0.930 1_545 S
C232 C230 1.419 . S
C232 C233 1.362 1_545 S
C233 H223 0.933 . S
C233 C226 1.407 1_565 S
C233 C232 1.362 1_565 S
H234 C240 0.930 . S
H235 C243 0.930 . S
H236 C244 0.930 . S
H237 C245 0.930 . S
H238 C248 0.930 . S
H239 C249 0.930 . S
C240 H234 0.930 . S
C240 C241 1.355 . S
C240 C242 1.415 . S
C241 C240 1.355 . S
C241 C243 1.419 1_455 S
C242 C240 1.415 . S
C242 C247 1.425 1_455 S
C242 C249 1.409 . S
C243 H235 0.930 . S
C243 C241 1.419 1_655 S
C243 C244 1.362 . S
C244 H236 0.930 . S
C244 C243 1.362 . S
C244 C247 1.409 . S
C245 H237 0.930 . S
C245 C246 1.355 1_655 S
C245 C247 1.415 . S
C246 C245 1.355 1_455 S
C246 C248 1.419 . S
C247 C242 1.425 1_655 S
C247 C244 1.409 . S
C247 C245 1.415 . S
C248 H238 0.930 . S
C248 C246 1.419 . S
C248 C249 1.362 . S
C249 H239 0.930 . S
C249 C242 1.409 . S
C249 C248 1.362 . S
H250 C256 0.930 . S
H251 C259 0.930 . S
H252 C260 0.930 1_565 S
H253 C261 0.930 . S
H254 C264 0.930 . S
H255 C265 0.930 . S
C256 H250 0.930 . S
C256 C257 1.355 . S
C256 C258 1.415 . S
C257 C256 1.355 . S
C257 C259 1.419 . S
C258 C256 1.415 . S
C258 C263 1.425 . S
C258 C265 1.409 . S
C259 H251 0.930 . S
C259 C257 1.419 . S
C259 C260 1.362 . S
C260 H252 0.930 1_545 S
C260 C259 1.362 . S
C260 C263 1.409 . S
C261 H253 0.930 . S
C261 C262 1.355 . S
C261 C263 1.415 . S
C262 C261 1.355 . S
C262 C264 1.419 . S
C263 C258 1.425 . S
C263 C260 1.409 . S
C263 C261 1.415 . S
C264 H254 0.930 . S
C264 C262 1.419 . S
C264 C265 1.362 . S
C265 H255 0.930 . S
C265 C258 1.409 . S
C265 C264 1.362 . S
H266 C272 0.930 . S
H267 C275 0.930 . S
H268 C276 0.930 . S
H269 C277 0.930 . S
H270 C280 0.930 . S
H271 C281 0.930 . S
C272 H266 0.930 . S
C272 C273 1.355 . S
C272 C274 1.415 . S
C273 C272 1.355 . S
C273 C275 1.419 1_455 S
C274 C272 1.415 . S
C274 C279 1.425 1_455 S
C274 C281 1.409 . S
C275 H267 0.930 . S
C275 C273 1.419 1_655 S
C275 C276 1.362 . S
C276 H268 0.930 . S
C276 C275 1.362 . S
C276 C279 1.409 . S
C277 H269 0.930 . S
C277 C278 1.355 1_655 S
C277 C279 1.415 . S
C278 C277 1.355 1_455 S
C278 C280 1.419 . S
C279 C274 1.425 1_655 S
C279 C276 1.409 . S
C279 C277 1.415 . S
C280 H270 0.930 . S
C280 C278 1.419 . S
C280 C281 1.362 . S
C281 H271 0.930 . S
C281 C274 1.409 . S
C281 C280 1.362 . S
H282 C288 0.930 . S
H283 C291 0.930 . S
H284 C292 0.930 . S
H285 C293 0.930 . S
H286 C296 0.930 . S
H287 C297 0.930 . S
C288 H282 0.930 . S
C288 C289 1.355 . S
C288 C290 1.415 . S
C289 C288 1.355 . S
C289 C291 1.419 1_545 S
C290 C288 1.415 . S
C290 C295 1.425 . S
C290 C297 1.409 . S
C291 H283 0.930 . S
C291 C289 1.419 1_565 S
C291 C292 1.362 . S
C292 H284 0.930 . S
C292 C291 1.362 . S
C292 C295 1.409 1_565 S
C293 H285 0.930 . S
C293 C294 1.355 1_565 S
C293 C295 1.415 1_565 S
C294 C293 1.355 1_545 S
C294 C296 1.419 . S
C295 C290 1.425 . S
C295 C292 1.409 1_545 S
C295 C293 1.415 1_545 S
C296 H286 0.930 . S
C296 C294 1.419 . S
C296 C297 1.362 . S
C297 H287 0.930 . S
C297 C290 1.409 . S
C297 C296 1.362 . S
H298 C304 0.939 . S
H299 C307 0.930 . S
H300 C308 0.930 . S
H301 C309 0.930 . S
H302 C312 0.930 . S
H303 C313 0.930 . S
C304 H298 0.939 . S
C304 C305 1.347 1_655 S
C304 C306 1.414 1_655 S
C305 C304 1.347 1_455 S
C305 C307 1.419 . S
C306 C304 1.414 1_455 S
C306 C311 1.425 . S
C306 C313 1.409 1_455 S
C307 H299 0.930 . S
C307 C305 1.419 . S
C307 C308 1.362 . S
C308 H300 0.930 . S
C308 C307 1.362 . S
C308 C311 1.409 . S
C309 H301 0.930 . S
C309 C310 1.355 . S
C309 C311 1.415 . S
C310 C309 1.355 . S
C310 C312 1.419 1_455 S
C311 C306 1.425 . S
C311 C308 1.409 . S
C311 C309 1.415 . S
C312 H302 0.930 . S
C312 C310 1.419 1_655 S
C312 C313 1.362 . S
C313 H303 0.930 . S
C313 C306 1.409 1_655 S
C313 C312 1.362 . S
H314 C320 0.930 . S
H315 C323 0.930 . S
H316 C324 0.930 . S
H317 C325 0.930 . S
H318 C328 0.930 . S
H319 C329 0.930 . S
C320 H314 0.930 . S
C320 C321 1.355 1_565 S
C320 C322 1.415 . S
C321 C320 1.355 1_545 S
C321 C323 1.419 . S
C322 C320 1.415 . S
C322 C327 1.425 1_565 S
C322 C329 1.409 . S
C323 H315 0.930 . S
C323 C321 1.419 . S
C323 C324 1.362 . S
C324 H316 0.930 . S
C324 C323 1.362 . S
C324 C327 1.409 . S
C325 H317 0.930 . S
C325 C326 1.355 . S
C325 C327 1.415 . S
C326 C325 1.355 . S
C326 C328 1.419 1_545 S
C327 C322 1.425 1_545 S
C327 C324 1.409 . S
C327 C325 1.415 . S
C328 H318 0.930 . S
C328 C326 1.419 1_565 S
C328 C329 1.362 . S
C329 H319 0.930 . S
C329 C322 1.409 . S
C329 C328 1.362 . S
H330 C336 0.930 . S
H331 C339 0.930 . S
H332 C340 0.930 . S
H333 C341 0.930 . S
H334 C344 0.930 . S
H335 C345 0.930 . S
C336 H330 0.930 . S
C336 C337 1.355 1_655 S
C336 C338 1.415 . S
C337 C336 1.355 1_455 S
C337 C339 1.419 . S
C338 C336 1.415 . S
C338 C343 1.425 1_655 S
C338 C345 1.409 . S
C339 H331 0.930 . S
C339 C337 1.419 . S
C339 C340 1.362 . S
C340 H332 0.930 . S
C340 C339 1.362 . S
C340 C343 1.409 . S
C341 H333 0.930 . S
C341 C342 1.355 . S
C341 C343 1.415 . S
C342 C341 1.355 . S
C342 C344 1.419 1_455 S
C343 C338 1.425 1_455 S
C343 C340 1.409 . S
C343 C341 1.415 . S
C344 H334 0.930 . S
C344 C342 1.419 1_655 S
C344 C345 1.362 . S
C345 H335 0.930 . S
C345 C338 1.409 . S
C345 C344 1.362 . S
C230 C91 1.556 . S
C225 C17 1.473 . S
C246 C179 1.538 . S
C241 C40 1.470 . S
C262 C99 1.557 . S
C257 C9 1.510 . S
C278 C187 1.546 . S
C273 C33 1.485 . S
C294 C159 1.533 . S
C289 C19 1.440 . S
C310 C62 1.555 . S
C305 C38 1.459 . S
C326 C150 1.544 . S
C321 C12 1.405 . S
C337 C30 1.481 . S
C342 C71 1.554 . S
