# Generated by pormake.
# Topology tsx, (6,3)-cn, num edge types: 1
# Building blocks:
#     Node 0, Type 0, BuildingBlock: FUNLAD_clean_sbu_0, # of connection points: 6
#     Node 1, Type 0, BuildingBlock: FUNLAD_clean_sbu_0, # of connection points: 6
#     Node 2, Type 1, BuildingBlock: PAMTOO_clean_linker_0, # of connection points: 3
#     Node 3, Type 1, BuildingBlock: PAMTOO_clean_linker_0, # of connection points: 3
#     Node 4, Type 1, BuildingBlock: PAMTOO_clean_linker_0, # of connection points: 3
#     Node 5, Type 1, BuildingBlock: PAMTOO_clean_linker_0, # of connection points: 3
#     Edge 6, Type (0, 1), BuildingBlock: EZIPEK_clean_linker_0, # of connection points: 2
#     Edge 7, Type (0, 1), BuildingBlock: EZIPEK_clean_linker_0, # of connection points: 2
#     Edge 8, Type (0, 1), BuildingBlock: EZIPEK_clean_linker_0, # of connection points: 2
#     Edge 9, Type (0, 1), BuildingBlock: EZIPEK_clean_linker_0, # of connection points: 2
#     Edge 10, Type (0, 1), BuildingBlock: EZIPEK_clean_linker_0, # of connection points: 2
#     Edge 11, Type (0, 1), BuildingBlock: EZIPEK_clean_linker_0, # of connection points: 2
#     Edge 12, Type (0, 1), BuildingBlock: EZIPEK_clean_linker_0, # of connection points: 2
#     Edge 13, Type (0, 1), BuildingBlock: EZIPEK_clean_linker_0, # of connection points: 2
#     Edge 14, Type (0, 1), BuildingBlock: EZIPEK_clean_linker_0, # of connection points: 2
#     Edge 15, Type (0, 1), BuildingBlock: EZIPEK_clean_linker_0, # of connection points: 2
#     Edge 16, Type (0, 1), BuildingBlock: EZIPEK_clean_linker_0, # of connection points: 2
#     Edge 17, Type (0, 1), BuildingBlock: EZIPEK_clean_linker_0, # of connection points: 2
# Relax obj value: 0.130
# Max RMSD: 0.137
# Mean RMSD: 0.124
data_MOF--net-tsx--node1-FUNLAD_clean_sbu_0--node2-PAMTOO_clean_linker_0--edge1-EZIPEK_clean_linker_0
_symmetry_space_group_name_H-M    P1
_symmetry_Int_Tables_number       1
_symmetry_cell_setting            triclinic
loop_
_symmetry_equiv_pos_as_xyz
'x, y, z'
_cell_length_a     14.128617
_cell_length_b     14.804593
_cell_length_c     31.399038
_cell_angle_alpha  82.478376
_cell_angle_beta   91.939943
_cell_angle_gamma 89.652121
loop_
_atom_site_label
_atom_site_type_symbol
_atom_site_fract_x
_atom_site_fract_y
_atom_site_fract_z
_atom_type_partial_charge
C0 C 0.87734 0.83604 -0.02037 0.0
N1 N 0.01008 0.91902 0.08456 0.0
C2 C 0.93006 0.94377 0.10316 0.0
C3 C 0.93289 0.95661 0.14628 0.0
C4 C 0.01859 0.94288 0.16998 0.0
C5 C 0.09735 0.90806 0.15139 0.0
C6 C 0.09159 0.89684 0.10804 0.0
Zn7 Zn 0.01535 0.94292 0.01998 0.0
C8 C 0.14169 0.81644 -0.01843 0.0
N9 N 0.03756 1.00362 0.88668 0.0
C10 C 0.95901 1.0059 0.86028 0.0
C11 C 0.12517 1.02042 0.87089 0.0
C12 C 0.13621 0.04216 0.82688 0.0
C13 C 0.05631 0.04603 0.79916 0.0
C14 C 0.96689 1.02713 0.81596 0.0
Zn15 Zn 0.02652 0.97684 0.95114 0.0
O16 O 0.89902 0.86399 0.0149 0.0
C17 C 0.89392 0.10314 -0.01855 0.0
O18 O 0.91901 0.86927 0.9456 0.0
H19 H 0.18661 1.01767 0.8925 0.0
H20 H 0.86609 0.96057 0.0838 0.0
H21 H 0.89022 0.99235 0.87368 0.0
O22 O 0.92469 0.0653 0.01822 0.0
O23 O 0.92165 0.07404 0.94795 0.0
H24 H 0.15436 0.87796 0.09237 0.0
O25 O 0.13189 0.08111 0.96151 0.0
O26 O 0.13529 1.02001 0.02874 0.0
O27 O 0.13169 0.8806 0.95113 0.0
O28 O 0.10108 0.82194 0.01687 0.0
C29 C 0.16628 0.07831 -0.00021 0.0
H30 H 0.87103 0.98314 0.16013 0.0
H31 H 0.16427 0.89681 0.16926 0.0
H32 H 0.20597 0.05676 0.81458 0.0
H33 H 0.90407 1.03007 0.79504 0.0
C34 C 0.36324 0.53233 0.47947 0.0
N35 N 0.53599 0.62355 0.57121 0.0
C36 C 0.46386 0.624 0.59879 0.0
C37 C 0.48147 0.6022 0.64292 0.0
C38 C 0.57397 0.57995 0.65843 0.0
C39 C 0.64721 0.58054 0.62951 0.0
C40 C 0.62652 0.60295 0.58566 0.0
Zn41 Zn 0.5093 0.65227 0.50693 0.0
C42 C 0.62837 0.54578 0.4545 0.0
N43 N 0.45921 0.71414 0.37274 0.0
C44 C 0.38342 0.67814 0.3532 0.0
C45 C 0.53552 0.74505 0.34997 0.0
C46 C 0.54142 0.73254 0.30689 0.0
C47 C 0.46913 0.68593 0.28757 0.0
C48 C 0.38736 0.66241 0.31039 0.0
Zn49 Zn 0.477 0.68986 0.43827 0.0
O50 O 0.40418 0.55764 0.51208 0.0
C51 C 0.35305 0.79789 0.48261 0.0
O52 O 0.38141 0.57206 0.44209 0.0
H53 H 0.59598 0.77155 0.36609 0.0
H54 H 0.39253 0.64034 0.5865 0.0
H55 H 0.32313 0.65446 0.37163 0.0
O56 O 0.40419 0.76186 0.515 0.0
O57 O 0.36505 0.77348 0.44607 0.0
H58 H 0.68273 0.60335 0.56312 0.0
O59 O 0.56932 0.80819 0.44116 0.0
O60 O 0.61713 0.74589 0.50539 0.0
O61 O 0.59028 0.60567 0.42679 0.0
O62 O 0.60829 0.54507 0.49387 0.0
C63 C 0.61946 0.81162 0.47559 0.0
H64 H 0.42361 0.60176 0.66472 0.0
H65 H 0.71918 0.56321 0.64077 0.0
H66 H 0.6054 0.75149 0.29 0.0
H67 H 0.33018 0.62672 0.29618 0.0
H68 H 0.13524 0.97221 0.36144 0.0
H69 H 0.96091 0.20347 0.31123 0.0
H70 H 0.0445 0.15843 0.44496 0.0
H71 H 0.81503 0.20405 0.3836 0.0
C72 C 0.84702 0.27247 0.3772 0.0
O73 O 0.94461 0.26754 0.38509 0.0
H74 H 0.83775 0.29559 0.34219 0.0
C75 C 0.09744 0.03373 0.3665 0.0
C76 C 0.09819 0.06125 0.40735 0.0
C77 C 0.04692 0.08398 0.3322 0.0
C78 C -0.00053 0.16472 0.33806 0.0
C79 C 0.99668 0.19236 0.37902 0.0
C80 C 0.04629 0.13966 0.4135 0.0
H81 H 0.18652 0.24867 0.61621 0.0
H82 H 0.9643 0.0531 0.6065 0.0
H83 H 0.04631 0.23233 0.49565 0.0
H84 H 0.82047 0.18743 0.50463 0.0
C85 C 0.83467 0.12087 0.52447 0.0
O86 O 0.92981 0.09743 0.52394 0.0
H87 H 0.819 0.12876 0.55819 0.0
C88 C 0.13469 0.21667 0.59696 0.0
C89 C 0.12402 0.24554 0.5528 0.0
C90 C 0.07585 0.14824 0.61643 0.0
C91 C 0.00944 0.10613 0.59147 0.0
C92 C 0.99723 0.13582 0.54753 0.0
C93 C 0.05437 0.20624 0.52876 0.0
H94 H 0.71635 0.38523 0.8499 0.0
H95 H 0.49575 0.58904 0.84447 0.0
H96 H 0.5672 0.42223 0.96315 0.0
H97 H 0.36183 0.45701 0.94512 0.0
C98 C 0.36576 0.52582 0.92648 0.0
O99 O 0.458 0.55622 0.92574 0.0
H100 H 0.34342 0.52075 0.89261 0.0
C101 C 0.66448 0.42186 0.86591 0.0
C102 C 0.65118 0.39847 0.91006 0.0
C103 C 0.60725 0.48954 0.84207 0.0
C104 C 0.54012 0.53673 0.86275 0.0
C105 C 0.52626 0.51334 0.90658 0.0
C106 C 0.58072 0.44326 0.92994 0.0
H107 H 0.62577 0.67154 0.10623 0.0
H108 H 0.46004 0.42985 0.13638 0.0
H109 H 0.62216 0.46495 0.02218 0.0
H110 H 0.44382 0.38723 0.00403 0.0
C111 C 0.41906 0.36537 0.03667 0.0
O112 O 0.49587 0.36105 0.06553 0.0
H113 H 0.36765 0.41867 0.04318 0.0
C114 C 0.60037 0.60684 0.098 0.0
C115 C 0.62769 0.57668 0.05961 0.0
C116 C 0.54113 0.55357 0.126 0.0
C117 C 0.50723 0.47019 0.11523 0.0
C118 C 0.53443 0.43855 0.07727 0.0
C119 C 0.59779 0.4904 0.05051 0.0
C120 C 0.21585 0.19795 0.04619 0.0
C121 C 0.23714 0.14489 0.01271 0.0
C122 C 0.39492 0.21387 0.0079 0.0
C123 C 0.36775 0.27531 0.03632 0.0
N124 N 0.27279 0.30098 0.09548 0.0
N125 N 0.34916 0.09789 0.96339 0.0
C126 C 0.28438 0.25939 0.0596 0.0
C127 C 0.3278 0.15091 -0.00565 0.0
N128 N 0.12817 0.19388 0.06352 0.0
N129 N 0.48679 0.2124 -0.00395 0.0
H130 H 0.30488 0.04663 0.95486 0.0
H131 H 0.40887 0.10711 0.94483 0.0
H132 H 0.5375 0.25661 0.00625 0.0
H133 H 0.51495 0.16025 -0.0189 0.0
H134 H 0.10437 0.23925 0.08357 0.0
H135 H 0.07537 0.14966 0.05569 0.0
H136 H 0.21828 0.28632 0.11669 0.0
H137 H 0.32432 0.34302 0.10676 0.0
C138 C 0.27221 0.6997 -0.00247 0.0
C139 C 0.19081 0.73245 0.9727 0.0
C140 C 0.20996 0.61201 0.92668 0.0
C141 C 0.30069 0.59111 0.94588 0.0
N142 N 0.39904 0.58849 0.01 0.0
N143 N 0.08575 0.72354 0.91032 0.0
C144 C 0.32619 0.62706 -0.01549 0.0
C145 C 0.16049 0.68955 0.93646 0.0
N146 N 0.30272 0.74321 0.03123 0.0
N147 N 0.16737 0.55395 0.90161 0.0
H148 H 0.04136 0.7756 0.91701 0.0
H149 H 0.07088 0.70281 0.88035 0.0
H150 H 0.19665 0.49105 0.89739 0.0
H151 H 0.09724 0.56165 0.89025 0.0
H152 H 0.3673 0.72999 0.04768 0.0
H153 H 0.26613 0.79717 0.04156 0.0
H154 H 0.40788 0.59689 0.0422 0.0
H155 H 0.4449 0.54088 0.00036 0.0
C156 C 0.8481 0.67209 0.00267 0.0
C157 C 0.81266 0.75708 -0.01799 0.0
C158 C 0.65348 0.71716 0.00541 0.0
C159 C 0.68986 0.63504 0.02965 0.0
N160 N 0.82272 0.53529 0.05266 0.0
N161 N 0.68136 0.84835 0.9519 0.0
C162 C 0.78716 0.61146 0.02768 0.0
C163 C 0.71475 0.77489 -0.02075 0.0
N164 N 0.94116 0.65092 -0.00141 0.0
N165 N 0.56223 0.74362 0.01002 0.0
H166 H 0.72669 0.89018 0.93266 0.0
H167 H 0.60982 0.86274 0.94516 0.0
H168 H 0.51744 0.70613 0.03075 0.0
H169 H 0.53328 0.8061 -0.0034 0.0
H170 H 0.97257 0.5881 0.00953 0.0
H171 H 0.98571 0.69568 -0.01919 0.0
H172 H 0.89425 0.51815 0.05626 0.0
H173 H 0.78109 0.4902 0.07207 0.0
C174 C 0.73307 0.16004 0.95821 0.0
C175 C 0.82364 0.17876 -0.02454 0.0
C176 C 0.79169 0.34287 0.95781 0.0
C177 C 0.70754 0.32314 0.93498 0.0
N178 N 0.60171 0.21315 0.90954 0.0
N179 N 0.94457 0.28699 -0.01199 0.0
C180 C 0.67887 0.2317 0.93428 0.0
C181 C 0.85398 0.2701 0.97495 0.0
N182 N 0.6995 0.07311 0.96475 0.0
N183 N 0.81287 0.43115 0.96233 0.0
H184 H 0.9916 0.23507 0.00044 0.0
H185 H 0.97518 0.35119 -0.01616 0.0
H186 H 0.77016 0.48624 0.94919 0.0
H187 H 0.86916 0.44945 -0.01846 0.0
H188 H 0.63129 0.05524 0.95569 0.0
H189 H 0.73757 1.0201 -0.01698 0.0
H190 H 0.58424 0.14774 0.9034 0.0
H191 H 0.55723 0.26376 0.89337 0.0
C192 C 0.64548 0.93655 0.52228 0.0
C193 C 0.66871 0.89609 0.48493 0.0
C194 C 0.78902 1.01346 0.46886 0.0
C195 C 0.77108 0.04825 0.50797 0.0
N196 N 0.6482 0.07284 0.5568 0.0
N197 N 0.7678 0.89198 0.42436 0.0
C198 C 0.68958 1.01851 0.53049 0.0
C199 C 0.74089 0.93445 0.45822 0.0
N200 N 0.58207 0.89688 0.55074 0.0
N201 N 0.84685 0.0605 0.44039 0.0
H202 H 0.73501 0.83375 0.41583 0.0
H203 H 0.82716 0.90987 0.40662 0.0
H204 H 0.87764 0.12108 0.44661 0.0
H205 H 0.85516 0.04599 0.40918 0.0
H206 H 0.57512 0.91592 0.58131 0.0
H207 H 0.5395 0.84239 0.54535 0.0
H208 H 0.58305 0.05854 0.57062 0.0
H209 H 0.67064 0.1388 0.55961 0.0
C210 C 0.77737 0.44998 0.45286 0.0
C211 C 0.68285 0.47069 0.4386 0.0
C212 C 0.69506 0.36105 0.3861 0.0
C213 C 0.78989 0.33858 0.40111 0.0
N214 N 0.89983 0.33516 0.46165 0.0
N215 N 0.54428 0.42984 0.39833 0.0
C216 C 0.82545 0.37575 0.43804 0.0
C217 C 0.63971 0.42175 0.40703 0.0
N218 N 0.82259 0.50212 0.47987 0.0
N219 N 0.65679 0.32407 0.35173 0.0
H220 H 0.5005 0.47274 0.41269 0.0
H221 H 0.50618 0.38773 0.38009 0.0
H222 H 0.6875 0.27044 0.33852 0.0
H223 H 0.59519 0.34883 0.33494 0.0
H224 H 0.89503 0.4963 0.48713 0.0
H225 H 0.7897 0.55642 0.49179 0.0
H226 H 0.92339 0.35489 0.49077 0.0
H227 H 0.92432 0.27174 0.45634 0.0
C228 C 0.20192 0.47342 0.49415 0.0
C229 C 0.29807 0.45454 0.48727 0.0
C230 C 0.27748 0.29549 0.51935 0.0
C231 C 0.18483 0.3178 0.53088 0.0
N232 N 0.06403 0.43117 0.53581 0.0
N233 N 0.43165 0.35083 0.49703 0.0
C234 C 0.148 0.40751 0.51973 0.0
C235 C 0.33687 0.36606 0.50056 0.0
N236 N 0.16274 0.55509 0.47668 0.0
N237 N 0.3085 0.20692 0.52638 0.0
H238 H 0.47665 0.40023 0.48252 0.0
H239 H 0.46694 0.29159 0.51068 0.0
H240 H 0.2672 0.15368 0.54043 0.0
H241 H 0.37255 0.18479 0.51576 0.0
H242 H 0.09074 0.57017 0.47731 0.0
H243 H 0.20119 0.60462 0.45802 0.0
H244 H 0.03924 0.49809 0.53329 0.0
H245 H 0.02313 0.385 0.55512 0.0
C246 C 0.18842 0.85622 0.4844 0.0
C247 C 0.28616 0.87535 0.48397 0.0
C248 C 0.25061 1.03219 0.45038 0.0
C249 C 0.1557 1.00648 0.44264 0.0
N250 N 0.03121 0.89659 0.45402 0.0
N251 N 0.41205 0.98222 0.47044 0.0
C252 C 0.12313 0.91985 0.46118 0.0
C253 C 0.31736 0.96468 0.46921 0.0
N254 N 0.1594 0.77543 0.50581 0.0
N255 N 0.27736 0.11996 0.43774 0.0
H256 H 0.46092 0.93386 0.48472 0.0
H257 H 0.44278 0.0421 0.45655 0.0
H258 H 0.22995 0.17032 0.42374 0.0
H259 H 0.34448 0.14512 0.4434 0.0
H260 H 0.08877 0.75806 0.51002 0.0
H261 H 0.20747 0.72872 0.52259 0.0
H262 H 0.00426 0.83175 0.46254 0.0
H263 H 0.98237 0.94229 0.4375 0.0
C264 C 0.98468 0.93026 0.24811 0.0
C265 C 0.02875 0.97696 0.21195 0.0
C266 C 0.09128 0.09002 0.2555 0.0
C267 C 0.03971 0.04832 0.29051 0.0
N268 N 0.92459 0.9385 0.31878 0.0
N269 N 0.109 0.11039 0.17855 0.0
C270 C 0.98279 0.97098 0.28648 0.0
C271 C 0.07812 0.0594 0.21485 0.0
N272 N 0.94661 0.84621 0.24599 0.0
N273 N 0.15468 0.15709 0.26137 0.0
H274 H 0.10019 0.09105 0.14792 0.0
H275 H 0.13591 0.1758 0.17824 0.0
H276 H 0.16582 0.18172 0.29076 0.0
H277 H 0.2019 0.18289 0.23817 0.0
H278 H 0.92219 0.80465 0.27262 0.0
H279 H 0.94681 0.81451 0.2182 0.0
H280 H 0.87425 0.88837 0.31593 0.0
H281 H 0.92069 0.96733 0.34723 0.0
C282 C 0.03635 0.16225 0.73426 0.0
C283 C 0.06592 0.07356 0.7526 0.0
C284 C 0.11759 0.04049 0.68261 0.0
C285 C 0.07783 0.12491 0.6636 0.0
N286 N 0.98679 0.26102 0.66973 0.0
N287 N 0.12438 0.92357 0.74439 0.0
C288 C 0.03405 0.18472 0.68898 0.0
C289 C 0.10417 1.01132 0.72686 0.0
N290 N 0.01277 0.22567 0.7602 0.0
N291 N 0.16956 0.98928 0.65847 0.0
H292 H 0.11562 0.89981 0.77677 0.0
H293 H 0.14276 0.8724 0.7263 0.0
H294 H 0.18054 1.00893 0.62588 0.0
H295 H 0.20838 0.93157 0.67139 0.0
H296 H 0.00064 0.2942 0.74887 0.0
H297 H 0.01351 0.21174 0.79366 0.0
H298 H 0.94428 0.30126 0.68631 0.0
H299 H 0.98345 0.28039 0.63656 0.0
C300 C 0.63574 0.61514 0.73029 0.0
C301 C 0.59301 0.55284 0.70497 0.0
C302 C 0.56507 0.44605 0.76945 0.0
C303 C 0.61092 0.50678 0.79469 0.0
N304 N 0.70672 0.63931 0.79933 0.0
N305 N 0.5373 0.4014 0.69861 0.0
C306 C 0.65182 0.58831 0.77508 0.0
C307 C 0.56418 0.46572 0.72402 0.0
N308 N 0.65715 0.7011 0.71186 0.0
N309 N 0.51821 0.37206 0.78885 0.0
H310 H 0.53563 0.41359 0.6651 0.0
H311 H 0.52504 0.33366 0.71056 0.0
H312 H 0.51711 0.35485 0.82209 0.0
H313 H 0.47415 0.33164 0.77217 0.0
H314 H 0.67854 0.75285 0.7294 0.0
H315 H 0.64704 0.72298 0.67906 0.0
H316 H 0.7461 0.6948 0.78634 0.0
H317 H 0.71953 0.62122 0.83229 0.0
C318 C 0.55628 0.58285 0.24459 0.0
C319 C 0.48505 0.6505 0.24621 0.0
C320 C 0.43955 0.64134 0.17097 0.0
C321 C 0.51881 0.58353 0.16788 0.0
N322 N 0.65993 0.50716 0.20024 0.0
N323 N 0.36691 0.75359 0.20959 0.0
C324 C 0.57945 0.55668 0.20427 0.0
C325 C 0.42866 0.68236 0.209 0.0
N326 N 0.5989 0.54062 0.28175 0.0
N327 N 0.37327 0.65476 0.13807 0.0
H328 H 0.35762 0.7857 0.23683 0.0
H329 H 0.33105 0.78585 0.18219 0.0
H330 H 0.37771 0.62264 0.11063 0.0
H331 H 0.30956 0.68961 0.13986 0.0
H332 H 0.64488 0.4851 0.28276 0.0
H333 H 0.58147 0.55488 0.3122 0.0
H334 H 0.71256 0.49509 0.22439 0.0
H335 H 0.67771 0.48367 0.1716 0.0
loop_
_geom_bond_atom_site_label_1
_geom_bond_atom_site_label_2
_geom_bond_distance
_geom_bond_site_symmetry_2
_ccdc_geom_bond_type
C0 O16 1.251 . S
C0 O18 1.254 1_554 S
N1 C2 1.333 1_445 S
N1 C6 1.307 . S
N1 Zn7 2.020 . S
C2 N1 1.333 1_665 S
C2 C3 1.379 . S
C2 H20 0.952 . S
C3 C2 1.379 . S
C3 C4 1.390 1_655 S
C3 H30 0.949 . S
C4 C3 1.390 1_455 S
C4 C5 1.357 1_565 S
C5 C4 1.357 1_545 S
C5 C6 1.370 . S
C5 H31 0.950 . S
C6 N1 1.307 . S
C6 C5 1.370 . S
C6 H24 0.948 . S
Zn7 N1 2.020 . S
Zn7 O16 2.039 1_445 S
Zn7 O22 2.034 1_455 S
Zn7 O26 2.025 . S
Zn7 O28 2.024 1_545 S
C8 O27 1.246 1_554 S
C8 O28 1.249 . S
N9 C10 1.307 1_455 S
N9 C11 1.333 . S
N9 Zn15 2.020 . S
C10 N9 1.307 1_655 S
C10 C14 1.370 . S
C10 H21 0.948 . S
C11 N9 1.333 . S
C11 C12 1.379 . S
C11 H19 0.952 . S
C12 C11 1.379 . S
C12 C13 1.390 . S
C12 H32 0.949 . S
C13 C12 1.390 . S
C13 C14 1.357 1_455 S
C14 C10 1.370 . S
C14 C13 1.357 1_655 S
C14 H33 0.950 . S
Zn15 N9 2.020 . S
Zn15 O18 2.025 1_445 S
Zn15 O23 2.024 1_455 S
Zn15 O25 2.039 . S
Zn15 O27 2.034 1_545 S
O16 C0 1.251 . S
O16 Zn7 2.039 1_665 S
C17 O22 1.224 1_556 S
C17 O23 1.274 . S
O18 C0 1.254 1_556 S
O18 Zn15 2.025 1_665 S
H19 C11 0.952 . S
H20 C2 0.952 . S
H21 C10 0.948 . S
O22 Zn7 2.034 1_655 S
O22 C17 1.224 1_554 S
O23 Zn15 2.024 1_655 S
O23 C17 1.274 . S
H24 C6 0.948 . S
O25 Zn15 2.039 . S
O25 C29 1.269 . S
O26 Zn7 2.025 . S
O26 C29 1.236 1_554 S
O27 C8 1.246 1_556 S
O27 Zn15 2.034 1_565 S
O28 Zn7 2.024 1_565 S
O28 C8 1.249 . S
C29 O25 1.269 . S
C29 O26 1.236 1_556 S
H30 C3 0.949 . S
H31 C5 0.950 . S
H32 C12 0.949 . S
H33 C14 0.950 . S
C34 O50 1.251 . S
C34 O52 1.254 . S
N35 C36 1.333 . S
N35 C40 1.307 . S
N35 Zn41 2.020 . S
C36 N35 1.333 . S
C36 C37 1.379 . S
C36 H54 0.952 . S
C37 C36 1.379 . S
C37 C38 1.390 . S
C37 H64 0.949 . S
C38 C37 1.390 . S
C38 C39 1.357 . S
C39 C38 1.357 . S
C39 C40 1.370 . S
C39 H65 0.950 . S
C40 N35 1.307 . S
C40 C39 1.370 . S
C40 H58 0.948 . S
Zn41 N35 2.020 . S
Zn41 O50 2.039 . S
Zn41 O56 2.034 . S
Zn41 O60 2.025 . S
Zn41 O62 2.024 . S
C42 O61 1.246 . S
C42 O62 1.249 . S
N43 C44 1.307 . S
N43 C45 1.333 . S
N43 Zn49 2.020 . S
C44 N43 1.307 . S
C44 C48 1.370 . S
C44 H55 0.948 . S
C45 N43 1.333 . S
C45 C46 1.379 . S
C45 H53 0.952 . S
C46 C45 1.379 . S
C46 C47 1.390 . S
C46 H66 0.949 . S
C47 C46 1.390 . S
C47 C48 1.357 . S
C48 C44 1.370 . S
C48 C47 1.357 . S
C48 H67 0.950 . S
Zn49 N43 2.020 . S
Zn49 O52 2.025 . S
Zn49 O57 2.024 . S
Zn49 O59 2.039 . S
Zn49 O61 2.034 . S
O50 C34 1.251 . S
O50 Zn41 2.039 . S
C51 O56 1.246 . S
C51 O57 1.249 . S
O52 C34 1.254 . S
O52 Zn49 2.025 . S
H53 C45 0.952 . S
H54 C36 0.952 . S
H55 C44 0.948 . S
O56 Zn41 2.034 . S
O56 C51 1.246 . S
O57 Zn49 2.024 . S
O57 C51 1.249 . S
H58 C40 0.948 . S
O59 Zn49 2.039 . S
O59 C63 1.251 . S
O60 Zn41 2.025 . S
O60 C63 1.254 . S
O61 C42 1.246 . S
O61 Zn49 2.034 . S
O62 Zn41 2.024 . S
O62 C42 1.249 . S
C63 O59 1.251 . S
C63 O60 1.254 . S
H64 C37 0.949 . S
H65 C39 0.950 . S
H66 C46 0.949 . S
H67 C48 0.950 . S
H68 C75 0.929 . S
H69 C78 0.930 . S
H70 C80 0.929 . S
H71 C72 0.969 . S
C72 H71 0.969 . S
C72 O73 1.550 . S
C72 H74 0.973 . S
O73 C72 1.550 . S
O73 C79 1.412 . S
H74 C72 0.973 . S
C75 H68 0.929 . S
C75 C76 1.400 . S
C75 C77 1.364 . S
C76 C75 1.400 . S
C76 C80 1.377 . S
C77 C75 1.364 . S
C77 C78 1.374 1_465 S
C78 H69 0.930 . S
C78 C77 1.374 1_645 S
C78 C79 1.383 . S
C79 O73 1.412 . S
C79 C78 1.383 . S
C79 C80 1.394 1_645 S
C80 H70 0.929 . S
C80 C76 1.377 . S
C80 C79 1.394 1_465 S
H81 C88 0.929 . S
H82 C91 0.930 1_565 S
H83 C93 0.929 . S
H84 C85 0.969 . S
C85 H84 0.969 . S
C85 O86 1.550 . S
C85 H87 0.973 . S
O86 C85 1.550 . S
O86 C92 1.412 1_565 S
H87 C85 0.973 . S
C88 H81 0.929 . S
C88 C89 1.400 . S
C88 C90 1.364 . S
C89 C88 1.400 . S
C89 C93 1.377 . S
C90 C88 1.364 . S
C90 C91 1.374 1_455 S
C91 H82 0.930 1_545 S
C91 C90 1.374 1_655 S
C91 C92 1.383 . S
C92 O86 1.412 1_545 S
C92 C91 1.383 . S
C92 C93 1.394 1_655 S
C93 H83 0.929 . S
C93 C89 1.377 . S
C93 C92 1.394 1_455 S
H94 C101 0.929 . S
H95 C104 0.930 . S
H96 C106 0.929 . S
H97 C98 0.969 . S
C98 H97 0.969 . S
C98 O99 1.550 1_556 S
C98 H100 0.973 . S
O99 C98 1.550 1_554 S
O99 C105 1.412 1_554 S
H100 C98 0.973 . S
C101 H94 0.929 . S
C101 C102 1.400 . S
C101 C103 1.364 . S
C102 C101 1.400 . S
C102 C106 1.377 1_556 S
C103 C101 1.364 . S
C103 C104 1.374 . S
C104 H95 0.930 . S
C104 C103 1.374 . S
C104 C105 1.383 . S
C105 O99 1.412 1_556 S
C105 C104 1.383 . S
C105 C106 1.394 1_556 S
C106 H96 0.929 . S
C106 C102 1.377 1_554 S
C106 C105 1.394 1_554 S
H107 C114 0.929 . S
H108 C117 0.930 . S
H109 C119 0.929 1_556 S
H110 C111 0.969 . S
C111 H110 0.969 . S
C111 O112 1.550 1_554 S
C111 H113 0.973 . S
O112 C111 1.550 1_556 S
O112 C118 1.412 1_556 S
H113 C111 0.973 . S
C114 H107 0.929 . S
C114 C115 1.400 . S
C114 C116 1.364 . S
C115 C114 1.400 . S
C115 C119 1.377 . S
C116 C114 1.364 . S
C116 C117 1.374 . S
C117 H108 0.930 . S
C117 C116 1.374 . S
C117 C118 1.383 . S
C118 O112 1.412 1_554 S
C118 C117 1.383 . S
C118 C119 1.394 . S
C119 H109 0.929 1_554 S
C119 C115 1.377 . S
C119 C118 1.394 . S
C120 C121 1.363 1_554 S
C120 C126 1.379 . S
C120 N128 1.356 . S
C121 C120 1.363 1_556 S
C121 C127 1.363 . S
C122 C123 1.363 . S
C122 C127 1.379 . S
C122 N129 1.356 . S
C123 C122 1.363 . S
C123 C126 1.363 1_556 S
N124 C126 1.356 . S
N124 H136 0.984 . S
N124 H137 0.985 . S
N125 C127 1.356 . S
N125 H130 0.984 . S
N125 H131 0.985 . S
C126 C120 1.379 . S
C126 C123 1.363 1_554 S
C126 N124 1.356 . S
C127 C121 1.363 . S
C127 C122 1.379 . S
C127 N125 1.356 . S
N128 C120 1.356 . S
N128 H134 0.984 . S
N128 H135 0.984 . S
N129 C122 1.356 . S
N129 H132 0.984 . S
N129 H133 0.985 . S
H130 N125 0.984 . S
H131 N125 0.985 . S
H132 N129 0.984 . S
H133 N129 0.985 . S
H134 N128 0.984 . S
H135 N128 0.984 . S
H136 N124 0.984 . S
H137 N124 0.985 . S
C138 C139 1.363 . S
C138 C144 1.379 . S
C138 N146 1.356 . S
C139 C138 1.363 . S
C139 C145 1.363 1_554 S
C140 C141 1.363 1_556 S
C140 C145 1.379 . S
C140 N147 1.356 . S
C141 C140 1.363 1_554 S
C141 C144 1.363 . S
N142 C144 1.356 . S
N142 H154 0.984 . S
N142 H155 0.985 . S
N143 C145 1.356 . S
N143 H148 0.984 . S
N143 H149 0.985 . S
C144 C138 1.379 . S
C144 C141 1.363 . S
C144 N142 1.356 . S
C145 C139 1.363 1_556 S
C145 C140 1.379 . S
C145 N143 1.356 . S
N146 C138 1.356 . S
N146 H152 0.984 . S
N146 H153 0.984 . S
N147 C140 1.356 . S
N147 H150 0.984 . S
N147 H151 0.985 . S
H148 N143 0.984 . S
H149 N143 0.985 . S
H150 N147 0.984 . S
H151 N147 0.985 . S
H152 N146 0.984 . S
H153 N146 0.984 . S
H154 N142 0.984 . S
H155 N142 0.985 . S
C156 C157 1.363 . S
C156 C162 1.379 . S
C156 N164 1.356 . S
C157 C156 1.363 . S
C157 C163 1.363 1_554 S
C158 C159 1.363 1_556 S
C158 C163 1.379 . S
C158 N165 1.356 . S
C159 C158 1.363 1_554 S
C159 C162 1.363 . S
N160 C162 1.356 . S
N160 H172 0.984 . S
N160 H173 0.985 . S
N161 C163 1.356 . S
N161 H166 0.984 . S
N161 H167 0.985 . S
C162 C156 1.379 . S
C162 C159 1.363 . S
C162 N160 1.356 . S
C163 C157 1.363 1_556 S
C163 C158 1.379 . S
C163 N161 1.356 . S
N164 C156 1.356 . S
N164 H170 0.984 . S
N164 H171 0.984 . S
N165 C158 1.356 . S
N165 H168 0.984 . S
N165 H169 0.985 . S
H166 N161 0.984 . S
H167 N161 0.985 . S
H168 N165 0.984 . S
H169 N165 0.985 . S
H170 N164 0.984 . S
H171 N164 0.984 . S
H172 N160 0.984 . S
H173 N160 0.985 . S
C174 C175 1.363 1_554 S
C174 C180 1.379 . S
C174 N182 1.356 . S
C175 C174 1.363 1_556 S
C175 C181 1.363 . S
C176 C177 1.363 . S
C176 C181 1.379 . S
C176 N183 1.356 . S
C177 C176 1.363 . S
C177 C180 1.363 1_556 S
N178 C180 1.356 . S
N178 H190 0.984 . S
N178 H191 0.985 . S
N179 C181 1.356 . S
N179 H184 0.984 . S
N179 H185 0.985 . S
C180 C174 1.379 . S
C180 C177 1.363 1_554 S
C180 N178 1.356 . S
C181 C175 1.363 . S
C181 C176 1.379 . S
C181 N179 1.356 . S
N182 C174 1.356 . S
N182 H188 0.984 . S
N182 H189 0.984 . S
N183 C176 1.356 . S
N183 H186 0.984 . S
N183 H187 0.985 . S
H184 N179 0.984 . S
H185 N179 0.985 . S
H186 N183 0.984 . S
H187 N183 0.985 . S
H188 N182 0.984 . S
H189 N182 0.984 . S
H190 N178 0.984 . S
H191 N178 0.985 . S
C192 C193 1.363 . S
C192 C198 1.379 . S
C192 N200 1.356 . S
C193 C192 1.363 . S
C193 C199 1.363 . S
C194 C195 1.363 . S
C194 C199 1.379 . S
C194 N201 1.356 . S
C195 C194 1.363 . S
C195 C198 1.363 . S
N196 C198 1.356 . S
N196 H208 0.984 . S
N196 H209 0.985 . S
N197 C199 1.356 . S
N197 H202 0.984 . S
N197 H203 0.985 . S
C198 C192 1.379 . S
C198 C195 1.363 . S
C198 N196 1.356 . S
C199 C193 1.363 . S
C199 C194 1.379 . S
C199 N197 1.356 . S
N200 C192 1.356 . S
N200 H206 0.984 . S
N200 H207 0.984 . S
N201 C194 1.356 . S
N201 H204 0.984 . S
N201 H205 0.985 . S
H202 N197 0.984 . S
H203 N197 0.985 . S
H204 N201 0.984 . S
H205 N201 0.985 . S
H206 N200 0.984 . S
H207 N200 0.984 . S
H208 N196 0.984 . S
H209 N196 0.985 . S
C210 C211 1.363 . S
C210 C216 1.379 . S
C210 N218 1.356 . S
C211 C210 1.363 . S
C211 C217 1.363 . S
C212 C213 1.363 . S
C212 C217 1.379 . S
C212 N219 1.356 . S
C213 C212 1.363 . S
C213 C216 1.363 . S
N214 C216 1.356 . S
N214 H226 0.984 . S
N214 H227 0.985 . S
N215 C217 1.356 . S
N215 H220 0.984 . S
N215 H221 0.985 . S
C216 C210 1.379 . S
C216 C213 1.363 . S
C216 N214 1.356 . S
C217 C211 1.363 . S
C217 C212 1.379 . S
C217 N215 1.356 . S
N218 C210 1.356 . S
N218 H224 0.984 . S
N218 H225 0.984 . S
N219 C212 1.356 . S
N219 H222 0.984 . S
N219 H223 0.985 . S
H220 N215 0.984 . S
H221 N215 0.985 . S
H222 N219 0.984 . S
H223 N219 0.985 . S
H224 N218 0.984 . S
H225 N218 0.984 . S
H226 N214 0.984 . S
H227 N214 0.985 . S
C228 C229 1.363 . S
C228 C234 1.379 . S
C228 N236 1.356 . S
C229 C228 1.363 . S
C229 C235 1.363 . S
C230 C231 1.363 . S
C230 C235 1.379 . S
C230 N237 1.356 . S
C231 C230 1.363 . S
C231 C234 1.363 . S
N232 C234 1.356 . S
N232 H244 0.984 . S
N232 H245 0.985 . S
N233 C235 1.356 . S
N233 H238 0.984 . S
N233 H239 0.985 . S
C234 C228 1.379 . S
C234 C231 1.363 . S
C234 N232 1.356 . S
C235 C229 1.363 . S
C235 C230 1.379 . S
C235 N233 1.356 . S
N236 C228 1.356 . S
N236 H242 0.984 . S
N236 H243 0.984 . S
N237 C230 1.356 . S
N237 H240 0.984 . S
N237 H241 0.985 . S
H238 N233 0.984 . S
H239 N233 0.985 . S
H240 N237 0.984 . S
H241 N237 0.985 . S
H242 N236 0.984 . S
H243 N236 0.984 . S
H244 N232 0.984 . S
H245 N232 0.985 . S
C246 C247 1.363 . S
C246 C252 1.379 . S
C246 N254 1.356 . S
C247 C246 1.363 . S
C247 C253 1.363 . S
C248 C249 1.363 . S
C248 C253 1.379 . S
C248 N255 1.356 . S
C249 C248 1.363 . S
C249 C252 1.363 . S
N250 C252 1.356 . S
N250 H262 0.984 . S
N250 H263 0.985 . S
N251 C253 1.356 . S
N251 H256 0.984 . S
N251 H257 0.985 . S
C252 C246 1.379 . S
C252 C249 1.363 . S
C252 N250 1.356 . S
C253 C247 1.363 . S
C253 C248 1.379 . S
C253 N251 1.356 . S
N254 C246 1.356 . S
N254 H260 0.984 . S
N254 H261 0.984 . S
N255 C248 1.356 . S
N255 H258 0.984 . S
N255 H259 0.985 . S
H256 N251 0.984 . S
H257 N251 0.985 . S
H258 N255 0.984 . S
H259 N255 0.985 . S
H260 N254 0.984 . S
H261 N254 0.984 . S
H262 N250 0.984 . S
H263 N250 0.985 . S
C264 C265 1.363 1_655 S
C264 C270 1.379 . S
C264 N272 1.356 . S
C265 C264 1.363 1_455 S
C265 C271 1.363 1_565 S
C266 C267 1.363 1_545 S
C266 C271 1.379 . S
C266 N273 1.356 . S
C267 C266 1.363 1_565 S
C267 C270 1.363 1_455 S
N268 C270 1.356 . S
N268 H280 0.984 . S
N268 H281 0.985 . S
N269 C271 1.356 . S
N269 H274 0.984 . S
N269 H275 0.985 . S
C270 C264 1.379 . S
C270 C267 1.363 1_655 S
C270 N268 1.356 . S
C271 C265 1.363 1_545 S
C271 C266 1.379 . S
C271 N269 1.356 . S
N272 C264 1.356 . S
N272 H278 0.984 . S
N272 H279 0.984 . S
N273 C266 1.356 . S
N273 H276 0.984 . S
N273 H277 0.985 . S
H274 N269 0.984 . S
H275 N269 0.985 . S
H276 N273 0.984 . S
H277 N273 0.985 . S
H278 N272 0.984 . S
H279 N272 0.984 . S
H280 N268 0.984 . S
H281 N268 0.985 . S
C282 C283 1.363 1_655 S
C282 C288 1.379 . S
C282 N290 1.356 . S
C283 C282 1.363 1_455 S
C283 C289 1.363 . S
C284 C285 1.363 . S
C284 C289 1.379 . S
C284 N291 1.356 1_545 S
C285 C284 1.363 . S
C285 C288 1.363 1_455 S
N286 C288 1.356 . S
N286 H298 0.984 . S
N286 H299 0.985 . S
N287 C289 1.356 1_565 S
N287 H292 0.984 . S
N287 H293 0.985 . S
C288 C282 1.379 . S
C288 C285 1.363 1_655 S
C288 N286 1.356 . S
C289 C283 1.363 . S
C289 C284 1.379 . S
C289 N287 1.356 1_545 S
N290 C282 1.356 . S
N290 H296 0.984 . S
N290 H297 0.984 . S
N291 C284 1.356 1_565 S
N291 H294 0.984 . S
N291 H295 0.985 . S
H292 N287 0.984 . S
H293 N287 0.985 . S
H294 N291 0.984 . S
H295 N291 0.985 . S
H296 N290 0.984 . S
H297 N290 0.984 . S
H298 N286 0.984 . S
H299 N286 0.985 . S
C300 C301 1.363 . S
C300 C306 1.379 . S
C300 N308 1.356 . S
C301 C300 1.363 . S
C301 C307 1.363 . S
C302 C303 1.363 . S
C302 C307 1.379 . S
C302 N309 1.356 . S
C303 C302 1.363 . S
C303 C306 1.363 . S
N304 C306 1.356 . S
N304 H316 0.984 . S
N304 H317 0.985 . S
N305 C307 1.356 . S
N305 H310 0.984 . S
N305 H311 0.985 . S
C306 C300 1.379 . S
C306 C303 1.363 . S
C306 N304 1.356 . S
C307 C301 1.363 . S
C307 C302 1.379 . S
C307 N305 1.356 . S
N308 C300 1.356 . S
N308 H314 0.984 . S
N308 H315 0.984 . S
N309 C302 1.356 . S
N309 H312 0.984 . S
N309 H313 0.985 . S
H310 N305 0.984 . S
H311 N305 0.985 . S
H312 N309 0.984 . S
H313 N309 0.985 . S
H314 N308 0.984 . S
H315 N308 0.984 . S
H316 N304 0.984 . S
H317 N304 0.985 . S
C318 C319 1.363 . S
C318 C324 1.379 . S
C318 N326 1.356 . S
C319 C318 1.363 . S
C319 C325 1.363 . S
C320 C321 1.363 . S
C320 C325 1.379 . S
C320 N327 1.356 . S
C321 C320 1.363 . S
C321 C324 1.363 . S
N322 C324 1.356 . S
N322 H334 0.984 . S
N322 H335 0.985 . S
N323 C325 1.356 . S
N323 H328 0.984 . S
N323 H329 0.985 . S
C324 C318 1.379 . S
C324 C321 1.363 . S
C324 N322 1.356 . S
C325 C319 1.363 . S
C325 C320 1.379 . S
C325 N323 1.356 . S
N326 C318 1.356 . S
N326 H332 0.984 . S
N326 H333 0.984 . S
N327 C320 1.356 . S
N327 H330 0.984 . S
N327 H331 0.985 . S
H328 N323 0.984 . S
H329 N323 0.985 . S
H330 N327 0.984 . S
H331 N327 0.985 . S
H332 N326 0.984 . S
H333 N326 0.984 . S
H334 N322 0.984 . S
H335 N322 0.985 . S
C123 C111 1.323 1_556 S
C121 C29 1.473 . S
C139 C8 1.482 . S
C141 C98 1.344 1_554 S
C157 C0 1.520 . S
C159 C115 1.492 . S
C175 C17 1.512 . S
C177 C102 1.491 . S
C193 C63 1.474 . S
C195 C85 1.323 . S
C211 C42 1.483 . S
C213 C72 1.345 . S
C231 C89 1.492 . S
C229 C34 1.519 . S
C249 C76 1.491 . S
C247 C51 1.513 . S
C265 C4 1.514 . S
C267 C77 1.515 . S
C283 C13 1.525 . S
C285 C90 1.530 . S
C303 C103 1.515 . S
C301 C38 1.514 . S
C319 C47 1.525 . S
C321 C116 1.530 . S
