# Generated by pormake.
# Topology zzz, (3,6)-cn, num edge types: 1
# Building blocks:
#     Node 0, Type 0, BuildingBlock: BELTOD_clean_linker_0, # of connection points: 3
#     Node 1, Type 0, BuildingBlock: BELTOD_clean_linker_0, # of connection points: 3
#     Node 2, Type 0, BuildingBlock: BELTOD_clean_linker_0, # of connection points: 3
#     Node 3, Type 0, BuildingBlock: BELTOD_clean_linker_0, # of connection points: 3
#     Node 4, Type 0, BuildingBlock: BELTOD_clean_linker_0, # of connection points: 3
#     Node 5, Type 0, BuildingBlock: BELTOD_clean_linker_0, # of connection points: 3
#     Node 6, Type 0, BuildingBlock: BELTOD_clean_linker_0, # of connection points: 3
#     Node 7, Type 0, BuildingBlock: BELTOD_clean_linker_0, # of connection points: 3
#     Node 8, Type 1, BuildingBlock: BETGAK_clean_sbu_0, # of connection points: 6
#     Node 9, Type 1, BuildingBlock: BETGAK_clean_sbu_0, # of connection points: 6
#     Node 10, Type 1, BuildingBlock: BETGAK_clean_sbu_0, # of connection points: 6
#     Node 11, Type 1, BuildingBlock: BETGAK_clean_sbu_0, # of connection points: 6
#     Edge 12, Type (0, 1), BuildingBlock: MIFKUJ_clean_linker_0, # of connection points: 2
#     Edge 13, Type (0, 1), BuildingBlock: MIFKUJ_clean_linker_0, # of connection points: 2
#     Edge 14, Type (0, 1), BuildingBlock: MIFKUJ_clean_linker_0, # of connection points: 2
#     Edge 15, Type (0, 1), BuildingBlock: MIFKUJ_clean_linker_0, # of connection points: 2
#     Edge 16, Type (0, 1), BuildingBlock: MIFKUJ_clean_linker_0, # of connection points: 2
#     Edge 17, Type (0, 1), BuildingBlock: MIFKUJ_clean_linker_0, # of connection points: 2
#     Edge 18, Type (0, 1), BuildingBlock: MIFKUJ_clean_linker_0, # of connection points: 2
#     Edge 19, Type (0, 1), BuildingBlock: MIFKUJ_clean_linker_0, # of connection points: 2
#     Edge 20, Type (0, 1), BuildingBlock: MIFKUJ_clean_linker_0, # of connection points: 2
#     Edge 21, Type (0, 1), BuildingBlock: MIFKUJ_clean_linker_0, # of connection points: 2
#     Edge 22, Type (0, 1), BuildingBlock: MIFKUJ_clean_linker_0, # of connection points: 2
#     Edge 23, Type (0, 1), BuildingBlock: MIFKUJ_clean_linker_0, # of connection points: 2
#     Edge 24, Type (0, 1), BuildingBlock: MIFKUJ_clean_linker_0, # of connection points: 2
#     Edge 25, Type (0, 1), BuildingBlock: MIFKUJ_clean_linker_0, # of connection points: 2
#     Edge 26, Type (0, 1), BuildingBlock: MIFKUJ_clean_linker_0, # of connection points: 2
#     Edge 27, Type (0, 1), BuildingBlock: MIFKUJ_clean_linker_0, # of connection points: 2
#     Edge 28, Type (0, 1), BuildingBlock: MIFKUJ_clean_linker_0, # of connection points: 2
#     Edge 29, Type (0, 1), BuildingBlock: MIFKUJ_clean_linker_0, # of connection points: 2
#     Edge 30, Type (0, 1), BuildingBlock: MIFKUJ_clean_linker_0, # of connection points: 2
#     Edge 31, Type (0, 1), BuildingBlock: MIFKUJ_clean_linker_0, # of connection points: 2
#     Edge 32, Type (0, 1), BuildingBlock: MIFKUJ_clean_linker_0, # of connection points: 2
#     Edge 33, Type (0, 1), BuildingBlock: MIFKUJ_clean_linker_0, # of connection points: 2
#     Edge 34, Type (0, 1), BuildingBlock: MIFKUJ_clean_linker_0, # of connection points: 2
#     Edge 35, Type (0, 1), BuildingBlock: MIFKUJ_clean_linker_0, # of connection points: 2
# Relax obj value: 0.401
# Max RMSD: 0.259
# Mean RMSD: 0.242
data_MOF--net-zzz--node1-BETGAK_clean_sbu_0--node2-BELTOD_clean_linker_0--edge1-MIFKUJ_clean_linker_0
_symmetry_space_group_name_H-M    P1
_symmetry_Int_Tables_number       1
_symmetry_cell_setting            triclinic
loop_
_symmetry_equiv_pos_as_xyz
'x, y, z'
_cell_length_a     71.346409
_cell_length_b     71.396521
_cell_length_c     21.534581
_cell_angle_alpha  90.031475
_cell_angle_beta   89.865803
_cell_angle_gamma 89.961604
loop_
_atom_site_label
_atom_site_type_symbol
_atom_site_fract_x
_atom_site_fract_y
_atom_site_fract_z
_atom_type_partial_charge
P0 P 0.73348 0.47284 0.29335 0.0
H1 H 0.74531 0.45916 0.41527 0.0
H2 H 0.77188 0.46713 0.48078 0.0
H3 H 0.78345 0.51515 0.36496 0.0
H4 H 0.75638 0.50729 0.30023 0.0
H5 H 0.69406 0.46211 0.30418 0.0
H6 H 0.66654 0.47345 0.25014 0.0
H7 H 0.69754 0.52211 0.18921 0.0
H8 H 0.72542 0.51019 0.24224 0.0
H9 H 0.77363 0.47165 0.26091 0.0
H10 H 0.72068 0.46889 0.16453 0.0
O11 O 0.72814 0.45093 0.3138 0.0
H12 H 0.79007 0.47223 0.16173 0.0
H13 H 0.73725 0.46923 0.0649 0.0
C14 C 0.74886 0.48252 0.35227 0.0
C15 C 0.75318 0.47173 0.40476 0.0
C16 C 0.7686 0.47618 0.44196 0.0
C17 C 0.7802 0.49151 0.42741 0.0
C18 C 0.77489 0.50324 0.37777 0.0
C19 C 0.75931 0.49881 0.34072 0.0
C20 C 0.7119 0.48528 0.27751 0.0
C21 C 0.69485 0.47556 0.28119 0.0
C22 C 0.67898 0.48212 0.24992 0.0
C23 C 0.67977 0.4986 0.21416 0.0
C24 C 0.69646 0.50917 0.21515 0.0
C25 C 0.71237 0.50256 0.24652 0.0
C26 C 0.74584 0.47126 0.22036 0.0
C27 C 0.76547 0.47142 0.21865 0.0
C28 C 0.77489 0.47166 0.16186 0.0
C29 C 0.76486 0.47126 0.10578 0.0
C30 C 0.74527 0.46979 0.1075 0.0
C31 C 0.73583 0.46973 0.16446 0.0
P32 P 0.03145 0.71547 0.32173 0.0
H33 H 0.03962 0.73011 0.44562 0.0
H34 H 0.0307 0.75918 0.49542 0.0
H35 H 0.9876 0.76749 0.3573 0.0
H36 H 0.99744 0.73862 0.30561 0.0
H37 H 0.0425 0.67618 0.32511 0.0
H38 H 0.03236 0.64936 0.26533 0.0
H39 H 0.98452 0.68081 0.19994 0.0
H40 H 0.99534 0.70808 0.25869 0.0
H41 H 0.04304 0.75423 0.3041 0.0
H42 H 0.03523 0.70537 0.18847 0.0
O43 O 0.05141 0.7094 0.35666 0.0
H44 H 0.04715 0.77343 0.21161 0.0
H45 H 0.03953 0.72472 0.09568 0.0
C46 C 0.01916 0.73192 0.37182 0.0
C47 C 0.02782 0.73777 0.42698 0.0
C48 C 0.02265 0.75462 0.45567 0.0
C49 C 0.00855 0.76609 0.43022 0.0
C50 C 0.99882 0.75936 0.37774 0.0
C51 C 0.00413 0.74252 0.34875 0.0
C52 C 0.01962 0.69424 0.29724 0.0
C53 C 0.02947 0.67723 0.29973 0.0
C54 C 0.0236 0.66174 0.26512 0.0
C55 C 0.00766 0.66279 0.22689 0.0
C56 C 0.99705 0.67949 0.22787 0.0
C57 C 0.00301 0.69507 0.26253 0.0
C58 C 0.03784 0.72853 0.25335 0.0
C59 C 0.04222 0.74758 0.259 0.0
C60 C 0.04464 0.75854 0.2062 0.0
C61 C 0.04318 0.75054 0.14691 0.0
C62 C 0.04047 0.73117 0.14111 0.0
C63 C 0.03785 0.72019 0.19419 0.0
P64 P 0.7864 0.02867 0.31445 0.0
H65 H 0.76924 0.0363 0.4348 0.0
H66 H 0.73977 0.02709 0.47964 0.0
H67 H 0.73352 0.9847 0.33735 0.0
H68 H 0.7626 0.99545 0.28928 0.0
H69 H 0.82438 0.04214 0.30031 0.0
H70 H 0.85096 0.03116 0.24089 0.0
H71 H 0.82206 0.9792 0.20382 0.0
H72 H 0.79501 0.99057 0.26377 0.0
H73 H 0.75647 0.05595 0.30357 0.0
H74 H 0.78904 0.02133 0.17916 0.0
O75 O 0.7932 0.04706 0.35668 0.0
H76 H 0.7368 0.06574 0.21661 0.0
H77 H 0.76972 0.03126 0.0926 0.0
C78 C 0.76854 0.01641 0.35892 0.0
C79 C 0.76188 0.02466 0.41385 0.0
C80 C 0.74475 0.01924 0.43994 0.0
C81 C 0.73373 0.00509 0.41257 0.0
C82 C 0.74112 0.99595 0.35957 0.0
C83 C 0.75815 1.00174 0.3326 0.0
C84 C 0.80765 0.01712 0.28777 0.0
C85 C 0.82387 0.02808 0.28154 0.0
C86 C 0.83921 0.02175 0.24706 0.0
C87 C 0.8388 0.00426 0.21706 0.0
C88 C 0.82286 0.99283 0.22572 0.0
C89 C 0.80743 0.99919 0.26087 0.0
C90 C 0.77423 0.03791 0.24817 0.0
C91 C 0.75966 0.05079 0.25742 0.0
C92 C 0.74851 0.05646 0.20765 0.0
C93 C 0.75174 0.04924 0.14783 0.0
C94 C 0.76683 0.03692 0.13831 0.0
C95 C 0.77794 0.03125 0.18808 0.0
P96 P 0.48139 0.77948 0.31425 0.0
H97 H 0.49396 0.76951 0.43951 0.0
H98 H 0.50338 0.73958 0.48402 0.0
H99 H 0.507 0.71586 0.29969 0.0
H100 H 0.49848 0.74608 0.25555 0.0
H101 H 0.4707 0.81804 0.2974 0.0
H102 H 0.4814 0.84276 0.2291 0.0
H103 H 0.52692 0.80746 0.16641 0.0
H104 H 0.51563 0.78229 0.23512 0.0
H105 H 0.44422 0.76355 0.33589 0.0
H106 H 0.48192 0.77129 0.18132 0.0
O107 O 0.46978 0.78896 0.37392 0.0
H108 H 0.42481 0.74289 0.27265 0.0
H109 H 0.46349 0.74997 0.11933 0.0
C110 C 0.49518 0.7601 0.34407 0.0
C111 C 0.49737 0.75807 0.40843 0.0
C112 C 0.50248 0.74076 0.43399 0.0
C113 C 0.50539 0.72499 0.39578 0.0
C114 C 0.50482 0.72755 0.33091 0.0
C115 C 0.4999 0.74496 0.30539 0.0
C116 C 0.49261 0.79844 0.27269 0.0
C117 C 0.48331 0.81571 0.27038 0.0
C118 C 0.48951 0.82995 0.23104 0.0
C119 C 0.50519 0.82731 0.1923 0.0
C120 C 0.51477 0.81002 0.19538 0.0
C121 C 0.50849 0.79567 0.23518 0.0
C122 C 0.46446 0.76903 0.26325 0.0
C123 C 0.44804 0.76122 0.28781 0.0
C124 C 0.43706 0.74924 0.25171 0.0
C125 C 0.44267 0.74444 0.191 0.0
C126 C 0.45844 0.75345 0.16535 0.0
C127 C 0.46917 0.76566 0.20109 0.0
P128 P 0.27088 0.46467 0.12511 0.0
H129 H 0.26026 0.44185 0.01769 0.0
H130 H 0.23639 0.4475 0.93907 0.0
H131 H 0.2351 0.50601 0.98998 0.0
H132 H 0.25949 0.50037 0.06681 0.0
H133 H 0.29407 0.44265 0.2064 0.0
H134 H 0.32504 0.4468 0.24879 0.0
H135 H 0.33365 0.49476 0.12967 0.0
H136 H 0.30179 0.49059 0.08764 0.0
H137 H 0.2335 0.46194 0.17693 0.0
H138 H 0.28003 0.50038 0.18714 0.0
O139 O 0.26431 0.44264 0.13959 0.0
H140 H 0.21386 0.48427 0.2329 0.0
H141 H 0.26034 0.52292 0.24235 0.0
C142 C 0.26148 0.47057 0.04938 0.0
C143 C 0.25545 0.45606 0.01029 0.0
C144 C 0.24149 0.45927 0.96587 0.0
C145 C 0.23322 0.47709 0.95956 0.0
C146 C 0.24095 0.49206 0.9936 0.0
C147 C 0.25504 0.48884 0.03774 0.0
C148 C 0.29566 0.46602 0.14259 0.0
C149 C 0.30272 0.45376 0.18765 0.0
C150 C 0.32063 0.45616 0.21209 0.0
C151 C 0.33212 0.47103 0.19253 0.0
C152 C 0.32522 0.48317 0.14607 0.0
C153 C 0.3071 0.48068 0.12133 0.0
C154 C 0.2583 0.47932 0.17878 0.0
C155 C 0.23964 0.47497 0.19263 0.0
C156 C 0.22837 0.48785 0.22391 0.0
C157 C 0.23554 0.50542 0.24125 0.0
C158 C 0.2545 0.50943 0.22988 0.0
C159 C 0.26578 0.4965 0.19845 0.0
P160 P 0.0424 0.26886 0.07763 0.0
H161 H 0.06332 0.25346 0.97219 0.0
H162 H 0.05645 0.2274 0.90309 0.0
H163 H 0.999 0.22734 0.96677 0.0
H164 H 0.00592 0.25396 0.03488 0.0
H165 H 0.06459 0.30329 0.0751 0.0
H166 H 0.05861 0.33354 0.12334 0.0
H167 H 1.00033 0.31886 0.14635 0.0
H168 H 0.0064 0.28846 0.09702 0.0
H169 H 0.03219 0.22982 0.10452 0.0
H170 H 0.03489 0.2821 0.20504 0.0
O171 O 0.06571 0.26741 0.0825 0.0
H172 H 0.018 0.21487 0.19442 0.0
H173 H 0.0206 0.26708 0.29536 0.0
C174 C 0.03522 0.25557 0.0097 0.0
C175 C 0.04906 0.24832 0.96998 0.0
C176 C 0.04516 0.23315 0.9309 0.0
C177 C 0.02732 0.22475 0.9307 0.0
C178 C 0.01294 0.23331 0.96575 0.0
C179 C 0.01685 0.24868 0.00458 0.0
C180 C 0.036 0.2934 0.08304 0.0
C181 C 0.05034 0.30675 0.08812 0.0
C182 C 0.04695 0.32405 0.11655 0.0
C183 C 0.02912 0.32841 0.14052 0.0
C184 C 0.01425 0.31593 0.12871 0.0
C185 C 0.01767 0.29857 0.09994 0.0
C186 C 0.03345 0.25743 0.14626 0.0
C187 C 0.02937 0.23824 0.14524 0.0
C188 C 0.02129 0.22966 0.19684 0.0
C189 C 0.01761 0.24 0.25107 0.0
C190 C 0.02294 0.25889 0.25369 0.0
C191 C 0.03095 0.26751 0.20176 0.0
P192 P 0.22122 0.0399 0.01375 0.0
H193 H 0.23701 0.04645 0.89025 0.0
H194 H 0.26616 0.0365 0.84306 0.0
H195 H 0.27324 0.99511 0.98754 0.0
H196 H 0.2441 0.00578 0.0361 0.0
H197 H 0.18538 0.05694 0.03955 0.0
H198 H 0.15867 0.04749 0.10116 0.0
H199 H 0.18215 0.99198 0.11932 0.0
H200 H 0.20934 1.00177 0.05674 0.0
H201 H 0.24306 0.07349 0.04357 0.0
H202 H 0.22895 0.021 0.13095 0.0
O203 O 0.21561 0.05927 0.97447 0.0
H204 H 0.26545 0.07999 0.12656 0.0
H205 H 0.25157 0.02684 0.21148 0.0
C206 C 0.23809 0.02691 0.96702 0.0
C207 C 0.24442 0.03482 0.91106 0.0
C208 C 0.26132 0.02906 0.88381 0.0
C209 C 0.27247 0.0151 0.91157 0.0
C210 C 0.26538 0.00619 0.96526 0.0
C211 C 0.24843 0.01206 0.99269 0.0
C212 C 0.19937 0.03004 0.04229 0.0
C213 C 0.1846 0.0425 0.05462 0.0
C214 C 0.1692 0.03705 0.09038 0.0
C215 C 0.16811 0.01893 0.11567 0.0
C216 C 0.18256 0.00611 0.10116 0.0
C217 C 0.19803 0.01161 0.06464 0.0
C218 C 0.2342 0.04683 0.08125 0.0
C219 C 0.2444 0.06359 0.08136 0.0
C220 C 0.2573 0.06721 0.12864 0.0
C221 C 0.26046 0.0539 0.17569 0.0
C222 C 0.24934 0.03765 0.17705 0.0
C223 C 0.23637 0.03418 0.13034 0.0
P224 P 0.46386 0.21856 0.02838 0.0
H225 H 0.45913 0.23338 0.90279 0.0
H226 H 0.46957 0.26231 0.85609 0.0
H227 H 0.50921 0.2699 0.0057 0.0
H228 H 0.4975 0.24138 0.05462 0.0
H229 H 0.44904 0.18094 0.041 0.0
H230 H 0.45824 0.15443 0.10374 0.0
H231 H 0.51032 0.18214 0.14853 0.0
H232 H 0.50063 0.20915 0.08592 0.0
H233 H 0.44496 0.25443 0.03443 0.0
H234 H 0.46488 0.21322 0.16538 0.0
O235 O 0.44493 0.21272 0.98725 0.0
H236 H 0.44026 0.27659 0.11886 0.0
H237 H 0.45984 0.2352 0.25005 0.0
C238 C 0.47761 0.23488 0.9822 0.0
C239 C 0.4705 0.24087 0.92482 0.0
C240 C 0.47657 0.25766 0.89784 0.0
C241 C 0.49015 0.26894 0.92708 0.0
C242 C 0.49838 0.26204 0.98215 0.0
C243 C 0.49204 0.24533 0.00964 0.0
C244 C 0.47424 0.19706 0.05745 0.0
C245 C 0.46276 0.18117 0.06232 0.0
C246 C 0.46807 0.16587 0.09869 0.0
C247 C 0.48505 0.16599 0.13177 0.0
C248 C 0.49703 0.18157 0.1244 0.0
C249 C 0.49166 0.19696 0.08766 0.0
C250 C 0.4558 0.23237 0.09308 0.0
C251 C 0.44786 0.24996 0.08151 0.0
C252 C 0.44503 0.26259 0.13003 0.0
C253 C 0.44994 0.25773 0.19114 0.0
C254 C 0.45629 0.23946 0.20326 0.0
C255 C 0.45921 0.22686 0.15458 0.0
La256 La 0.0188 0.9928 0.72386 0.0
La257 La 0.99262 1.00132 0.62287 0.0
C258 C 0.03502 0.97891 0.81653 0.0
C259 C 0.03752 0.95956 0.83774 0.0
C260 C 0.05544 0.95323 0.85421 0.0
C261 C 0.05836 0.93439 0.86873 0.0
C262 C 0.04332 0.92173 0.86746 0.0
C263 C 0.02535 0.92816 0.85181 0.0
C264 C 0.02247 0.9469 0.83679 0.0
C265 C 0.03515 0.00335 0.61938 0.0
C266 C 1.00233 0.95939 0.63897 0.0
C267 C 0.97825 0.01713 0.53061 0.0
C268 C 0.9785 0.03725 0.51565 0.0
C269 C 0.96171 0.0467 0.5029 0.0
C270 C 0.96141 0.06626 0.49941 0.0
C271 C 0.97789 0.07662 0.50921 0.0
C272 C 0.9948 0.06709 0.51959 0.0
C273 C 0.99512 0.04762 0.52271 0.0
C274 C 0.97602 0.99068 0.72658 0.0
C275 C 0.00876 0.03458 0.70913 0.0
O276 O 0.04361 0.98301 0.76466 0.0
O277 O 0.01791 0.98554 0.81811 0.0
O278 O 0.04084 0.00801 0.67432 0.0
O279 O 0.02116 0.99269 0.62467 0.0
O280 O 0.01001 0.96456 0.69246 0.0
O281 O 0.99582 0.97195 0.59948 0.0
O282 O 0.9687 0.01276 0.58045 0.0
O283 O 0.99447 0.00856 0.52865 0.0
O284 O 0.97026 0.9864 0.67122 0.0
O285 O 0.99013 1.0013 0.72205 0.0
O286 O 1.0009 0.02945 0.6561 0.0
O287 O 0.01559 0.02208 0.74795 0.0
H288 H 0.06723 0.96278 0.85459 0.0
H289 H 0.07232 0.92972 0.88095 0.0
H290 H 0.01359 0.91859 0.84962 0.0
H291 H 0.00856 0.95136 0.82316 0.0
H292 H 0.94872 0.03899 0.49804 0.0
H293 H 0.94818 0.07331 0.49136 0.0
H294 H 0.00779 0.0747 0.52611 0.0
H295 H 0.00831 0.04076 0.53299 0.0
La296 La 0.50805 0.00834 0.71852 0.0
La297 La 0.49795 0.98511 0.61053 0.0
C298 C 0.52337 0.02039 0.81582 0.0
C299 C 0.54284 0.02533 0.83083 0.0
C300 C 0.54658 0.04117 0.86709 0.0
C301 C 0.56508 0.04656 0.87862 0.0
C302 C 0.58016 0.03634 0.85322 0.0
C303 C 0.57626 0.02042 0.81703 0.0
C304 C 0.55782 0.01486 0.80663 0.0
C305 C 0.49734 0.02777 0.62019 0.0
C306 C 0.54033 0.99429 0.62365 0.0
C307 C 0.48242 0.97296 0.51424 0.0
C308 C 0.46525 0.97921 0.48291 0.0
C309 C 0.45116 0.96625 0.46843 0.0
C310 C 0.4341 0.97239 0.44398 0.0
C311 C 0.43105 0.99155 0.4332 0.0
C312 C 0.44526 0.00445 0.44704 0.0
C313 C 0.46215 0.99837 0.47203 0.0
C314 C 0.50894 0.96576 0.70838 0.0
C315 C 0.46604 1.00072 0.70119 0.0
O316 O 0.51514 0.03123 0.77527 0.0
O317 O 0.52016 0.00264 0.80501 0.0
O318 O 0.49375 0.03251 0.67717 0.0
O319 O 0.50734 0.01323 0.62036 0.0
O320 O 0.53579 1.00198 0.67773 0.0
O321 O 0.5274 0.98745 0.58622 0.0
O322 O 0.47994 0.96548 0.56908 0.0
O323 O 0.49642 0.98479 0.51351 0.0
O324 O 0.51223 0.96097 0.65138 0.0
O325 O 0.49875 0.98018 0.70848 0.0
O326 O 0.4708 0.99683 0.64296 0.0
O327 O 0.47907 0.00322 0.74376 0.0
H328 H 0.53519 0.04939 0.88633 0.0
H329 H 0.56751 0.05864 0.9079 0.0
H330 H 0.58742 0.01231 0.79593 0.0
H331 H 0.55532 0.00245 0.77902 0.0
H332 H 0.45322 0.95145 0.4772 0.0
H333 H 0.42332 0.9622 0.4335 0.0
H334 H 0.44311 0.01933 0.44007 0.0
H335 H 0.47261 0.00875 0.48395 0.0
La336 La 0.49846 0.50443 0.74019 0.0
La337 La 0.52171 0.49397 0.63275 0.0
C338 C 0.48561 0.51866 0.83845 0.0
C339 C 0.47683 0.53639 0.85753 0.0
C340 C 0.46099 0.5359 0.89607 0.0
C341 C 0.45281 0.55252 0.91705 0.0
C342 C 0.46042 0.56996 0.9001 0.0
C343 C 0.47604 0.57039 0.86013 0.0
C344 C 0.48416 0.55376 0.83893 0.0
C345 C 0.47916 0.49384 0.64153 0.0
C346 C 0.51304 0.5365 0.64579 0.0
C347 C 0.53298 0.47775 0.53627 0.0
C348 C 0.5254 0.4607 0.50792 0.0
C349 C 0.53701 0.44841 0.47477 0.0
C350 C 0.52978 0.43154 0.452 0.0
C351 C 0.51087 0.42681 0.46231 0.0
C352 C 0.49935 0.43924 0.49556 0.0
C353 C 0.50655 0.45599 0.51809 0.0
C354 C 0.54111 0.5043 0.73136 0.0
C355 C 0.50613 0.46252 0.72341 0.0
O356 O 0.47575 0.50807 0.8013 0.0
O357 O 0.50332 0.51932 0.8224 0.0
O358 O 0.47431 0.49025 0.69824 0.0
O359 O 0.49366 0.50385 0.64192 0.0
O360 O 0.50457 0.5322 0.69897 0.0
O361 O 0.52026 0.52343 0.6095 0.0
O362 O 0.54074 0.47536 0.59065 0.0
O363 O 0.52166 0.49219 0.53565 0.0
O364 O 0.54622 0.50744 0.67451 0.0
O365 O 0.52643 0.49451 0.73087 0.0
O366 O 0.5094 0.4672 0.66491 0.0
O367 O 0.50457 0.47566 0.76614 0.0
H368 H 0.45506 0.52263 0.91055 0.0
H369 H 0.44062 0.55169 0.94696 0.0
H370 H 0.4824 0.58356 0.84675 0.0
H371 H 0.49636 0.55451 0.80901 0.0
H372 H 0.55164 0.45176 0.46713 0.0
H373 H 0.53893 0.42225 0.42618 0.0
H374 H 0.48484 0.43585 0.50534 0.0
H375 H 0.49741 0.46515 0.54441 0.0
La376 La 0.00448 0.48512 0.72669 0.0
La377 La 0.01237 0.51094 0.62582 0.0
C378 C 0.98894 0.46933 0.81709 0.0
C379 C 0.96893 0.46988 0.83402 0.0
C380 C 0.95842 0.45329 0.83295 0.0
C381 C 0.93886 0.45398 0.83427 0.0
C382 C 0.92949 0.47129 0.83688 0.0
C383 C 0.94006 0.48781 0.84193 0.0
C384 C 0.95958 0.48713 0.8403 0.0
C385 C 0.0147 0.46856 0.62214 0.0
C386 C 0.97113 0.50014 0.64335 0.0
C387 C 0.02422 0.52758 0.53022 0.0
C388 C 0.04045 0.53913 0.5141 0.0
C389 C 0.0409 0.54847 0.45703 0.0
C390 C 0.05696 0.55822 0.43884 0.0
C391 C 0.07288 0.55858 0.47733 0.0
C392 C 0.07192 0.54998 0.53606 0.0
C393 C 0.05577 0.54042 0.55437 0.0
C394 C 1.00255 0.52773 0.73085 0.0
C395 C 0.04625 0.49572 0.71207 0.0
O396 O 0.9925 0.46083 0.76459 0.0
O397 O 0.99821 0.48509 0.82205 0.0
O398 O 0.01982 0.46324 0.67705 0.0
O399 O 0.00377 0.48238 0.62713 0.0
O400 O 0.97652 0.49569 0.70008 0.0
O401 O 0.98382 0.50355 0.6003 0.0
O402 O 0.01248 0.53499 0.56984 0.0
O403 O 0.02777 0.51 0.54284 0.0
O404 O 0.99797 0.53344 0.67601 0.0
O405 O 0.0131 0.51369 0.72522 0.0
O406 O 0.041 0.5047 0.66083 0.0
O407 O 0.03384 0.48785 0.74936 0.0
H408 H 0.96532 0.43985 0.82787 0.0
H409 H 0.93108 0.44098 0.83199 0.0
H410 H 0.93328 0.50137 0.84381 0.0
H411 H 0.96724 0.50023 0.8405 0.0
H412 H 0.02902 0.54781 0.42582 0.0
H413 H 0.05713 0.56496 0.3938 0.0
H414 H 0.08394 0.54975 0.56664 0.0
H415 H 0.05548 0.53353 0.59904 0.0
H416 H 0.17004 0.99818 0.2234 0.0
H417 H 0.14566 0.99401 0.30238 0.0
H418 H 0.10692 0.02557 0.19025 0.0
H419 H 0.13102 0.02946 0.11058 0.0
H420 H 0.1067 0.03823 0.30795 0.0
H421 H 0.10177 0.97874 0.20739 0.0
H422 H 0.113 0.94863 0.16521 0.0
H423 H 0.13129 0.93197 0.34681 0.0
H424 H 0.12041 0.96211 0.38995 0.0
H425 H 0.02967 0.98704 0.50542 0.0
H426 H 0.05045 0.98841 0.41438 0.0
H427 H 0.08853 0.0239 0.51583 0.0
H428 H 0.06774 0.02279 0.60619 0.0
H429 H 0.08653 0.97735 0.39664 0.0
H430 H 0.10855 0.05481 0.41994 0.0
H431 H 0.09544 0.08405 0.46325 0.0
H432 H 0.03964 0.06421 0.42856 0.0
H433 H 0.0524 0.03499 0.38419 0.0
C434 C 0.15622 0.00387 0.21472 0.0
C435 C 0.15263 0.01426 0.16042 0.0
C436 C 0.14228 1.00155 0.26025 0.0
C437 C 0.1244 0.00953 0.2526 0.0
C438 C 0.12062 0.01942 0.19769 0.0
C439 C 0.13448 0.02165 0.15209 0.0
C440 C 0.10988 0.00825 0.30271 0.0
C441 C 0.1023 0.02489 0.32714 0.0
C442 C 0.10384 0.99088 0.32757 0.0
C443 C 0.11044 0.97277 0.30177 0.0
C444 C 0.10834 0.96873 0.23824 0.0
C445 C 0.11461 0.95164 0.21418 0.0
C446 C 0.1229 0.93842 0.25328 0.0
C447 C 0.12489 0.94224 0.31656 0.0
C448 C 0.11866 0.95932 0.34085 0.0
C449 C 0.0424 0.99527 0.508 0.0
C450 C 0.04702 0.00489 0.56288 0.0
C451 C 0.05433 0.99593 0.45611 0.0
C452 C 0.07105 0.00634 0.45789 0.0
C453 C 0.07563 0.01595 0.5128 0.0
C454 C 0.06373 0.0153 0.56454 0.0
C455 C 0.08371 0.00732 0.40253 0.0
C456 C 0.09093 0.99066 0.37722 0.0
C457 C 0.08924 0.02465 0.37624 0.0
C458 C 0.08145 0.04266 0.39916 0.0
C459 C 0.0935 0.05677 0.42094 0.0
C460 C 0.08612 0.07332 0.44581 0.0
C461 C 0.06674 0.07593 0.44881 0.0
C462 C 0.05466 0.06213 0.42632 0.0
C463 C 0.06196 0.04558 0.4013 0.0
H464 H 0.06107 0.08863 0.46865 0.0
H465 H 0.12773 0.92519 0.23457 0.0
H466 H 0.47748 0.12826 0.12101 0.0
H467 H 0.48022 0.10413 0.20088 0.0
H468 H 0.50505 0.14425 0.32546 0.0
H469 H 0.50184 0.16869 0.24659 0.0
H470 H 0.52266 0.10908 0.33056 0.0
H471 H 0.46015 0.13473 0.33998 0.0
H472 H 0.42938 0.14361 0.29715 0.0
H473 H 0.41875 0.08628 0.24822 0.0
H474 H 0.44961 0.07711 0.28988 0.0
H475 H 0.47714 0.06019 0.61403 0.0
H476 H 0.47568 0.08256 0.52779 0.0
H477 H 0.51151 0.0467 0.4184 0.0
H478 H 0.51296 0.02426 0.50451 0.0
H479 H 0.46373 0.07999 0.40638 0.0
H480 H 0.5413 0.07566 0.33447 0.0
H481 H 0.57188 0.06733 0.38021 0.0
H482 H 0.55196 0.08364 0.56063 0.0
H483 H 0.52137 0.09231 0.51584 0.0
C484 C 0.48353 0.13204 0.16534 0.0
C485 C 0.48923 0.15061 0.17721 0.0
C486 C 0.48516 0.11814 0.21095 0.0
C487 C 0.49263 0.12239 0.26956 0.0
C488 C 0.49924 0.14062 0.28062 0.0
C489 C 0.49748 0.15459 0.23515 0.0
C490 C 0.49267 0.10809 0.32021 0.0
C491 C 0.50978 0.10267 0.34689 0.0
C492 C 0.47587 0.09979 0.34217 0.0
C493 C 0.45727 0.10527 0.31745 0.0
C494 C 0.45132 0.12404 0.31961 0.0
C495 C 0.43385 0.12912 0.29562 0.0
C496 C 0.42214 0.11552 0.26982 0.0
C497 C 0.42785 0.09681 0.26811 0.0
C498 C 0.44533 0.09166 0.29192 0.0
C499 C 0.48458 0.05701 0.57141 0.0
C500 C 0.49526 0.04053 0.56622 0.0
C501 C 0.48371 0.06979 0.52207 0.0
C502 C 0.49366 0.06646 0.46674 0.0
C503 C 0.50389 0.04972 0.46083 0.0
C504 C 0.50466 0.03686 0.51001 0.0
C505 C 0.49374 0.08079 0.41621 0.0
C506 C 0.47663 0.08626 0.38964 0.0
C507 C 0.51053 0.08919 0.39457 0.0
C508 C 0.529 0.08445 0.42185 0.0
C509 C 0.54349 0.07755 0.38385 0.0
C510 C 0.56081 0.07276 0.40961 0.0
C511 C 0.56384 0.0749 0.47331 0.0
C512 C 0.54957 0.08193 0.51134 0.0
C513 C 0.53224 0.08676 0.48579 0.0
H514 H 0.57724 0.07114 0.49319 0.0
H515 H 0.40862 0.11949 0.25129 0.0
H516 H 0.34874 0.50459 0.225 0.0
H517 H 0.37638 0.50919 0.29091 0.0
H518 H 0.38423 0.44946 0.30131 0.0
H519 H 0.35737 0.4447 0.23326 0.0
H520 H 0.37975 0.47108 0.42113 0.0
H521 H 0.41456 0.4696 0.22684 0.0
H522 H 0.42205 0.48072 0.12129 0.0
H523 H 0.43387 0.53558 0.19297 0.0
H524 H 0.42618 0.52484 0.2989 0.0
H525 H 0.4582 0.4633 0.61369 0.0
H526 H 0.43611 0.45948 0.52791 0.0
H527 H 0.44877 0.51551 0.46495 0.0
H528 H 0.47213 0.51855 0.54768 0.0
H529 H 0.44222 0.49732 0.36961 0.0
H530 H 0.40736 0.50213 0.55811 0.0
H531 H 0.398 0.49453 0.66552 0.0
H532 H 0.38338 0.43872 0.60917 0.0
H533 H 0.39287 0.44593 0.50155 0.0
C534 C 0.35665 0.49243 0.23968 0.0
C535 C 0.35054 0.47423 0.22429 0.0
C536 C 0.37239 0.4951 0.27776 0.0
C537 C 0.38225 0.47965 0.30148 0.0
C538 C 0.37674 0.46157 0.28395 0.0
C539 C 0.36126 0.4589 0.24526 0.0
C540 C 0.39729 0.4821 0.3486 0.0
C541 C 0.39351 0.47662 0.40986 0.0
C542 C 0.41492 0.49005 0.33434 0.0
C543 C 0.41957 0.49647 0.27069 0.0
C544 C 0.41856 0.48408 0.22002 0.0
C545 C 0.42289 0.4903 0.16014 0.0
C546 C 0.42838 0.50886 0.15039 0.0
C547 C 0.42959 0.52122 0.20056 0.0
C548 C 0.42526 0.51506 0.26053 0.0
C549 C 0.45633 0.47469 0.58107 0.0
C550 C 0.46665 0.49128 0.58756 0.0
C551 C 0.44356 0.47261 0.53229 0.0
C552 C 0.44008 0.48746 0.49075 0.0
C553 C 0.45094 0.50384 0.49624 0.0
C554 C 0.46427 0.50563 0.5437 0.0
C555 C 0.42487 0.48605 0.44287 0.0
C556 C 0.42851 0.4918 0.38142 0.0
C557 C 0.40681 0.47888 0.45732 0.0
C558 C 0.40098 0.47452 0.52191 0.0
C559 C 0.40224 0.48821 0.56871 0.0
C560 C 0.39691 0.48397 0.62961 0.0
C561 C 0.39014 0.46614 0.64418 0.0
C562 C 0.38864 0.45252 0.59783 0.0
C563 C 0.39398 0.45668 0.53686 0.0
H564 H 0.38603 0.46289 0.69136 0.0
H565 H 0.43173 0.51365 0.104 0.0
H566 H 1.00048 0.35452 0.14657 0.0
H567 H 0.99662 0.3799 0.22303 0.0
H568 H 0.04836 0.36358 0.31074 0.0
H569 H 0.05228 0.33842 0.23521 0.0
H570 H 0.019 0.3683 0.39465 0.0
H571 H 0.04725 0.40167 0.22235 0.0
H572 H 0.0489 0.41275 0.11404 0.0
H573 H 0.99598 0.44071 0.13599 0.0
H574 H 0.99391 0.42957 0.24426 0.0
H575 H 0.03959 0.44034 0.6031 0.0
H576 H 0.04092 0.41834 0.51626 0.0
H577 H 0.99435 0.44663 0.42965 0.0
H578 H 0.99353 0.46922 0.51571 0.0
H579 H 0.0176 0.43598 0.34285 0.0
H580 H 0.98891 0.40457 0.51303 0.0
H581 H 0.98545 0.39334 0.6207 0.0
H582 H 0.03601 0.36113 0.60234 0.0
H583 H 0.03992 0.37237 0.49478 0.0
C584 C 0.01106 0.35644 0.18198 0.0
C585 C 0.0268 0.34454 0.18423 0.0
C586 C 0.00888 0.37098 0.22551 0.0
C587 C 0.02225 0.37372 0.27258 0.0
C588 C 0.03788 0.36181 0.27487 0.0
C589 C 0.04018 0.3475 0.23118 0.0
C590 C 0.01993 0.38857 0.32084 0.0
C591 C 0.01886 0.38311 0.38335 0.0
C592 C 0.01905 0.40788 0.30612 0.0
C593 C 0.02032 0.4146 0.24115 0.0
C594 C 0.03589 0.41004 0.20391 0.0
C595 C 0.03691 0.41636 0.14256 0.0
C596 C 0.02252 0.42738 0.11808 0.0
C597 C 0.0071 0.43214 0.15497 0.0
C598 C 0.006 0.42584 0.21633 0.0
C599 C 0.02974 0.44197 0.56526 0.0
C600 C 0.01635 0.45639 0.5665 0.0
C601 C 0.03041 0.42929 0.51573 0.0
C602 C 0.0174 0.43041 0.46687 0.0
C603 C 0.00447 0.44531 0.46682 0.0
C604 C 0.00399 0.45822 0.51607 0.0
C605 C 0.0171 0.41574 0.41707 0.0
C606 C 0.0176 0.42119 0.35431 0.0
C607 C 0.01714 0.39634 0.43142 0.0
C608 C 0.01479 0.38944 0.49598 0.0
C609 C 0.99936 0.39518 0.53207 0.0
C610 C 0.99731 0.3888 0.59307 0.0
C611 C 0.01052 0.37656 0.61839 0.0
C612 C 0.02579 0.37063 0.58268 0.0
C613 C 0.02792 0.37698 0.52167 0.0
H614 H 0.00891 0.37164 0.66563 0.0
H615 H 0.02335 0.43226 0.07058 0.0
H616 H 0.8362 0.98647 0.10389 0.0
H617 H 0.86105 0.98154 0.02712 0.0
H618 H 0.90131 0.0059 0.15228 0.0
H619 H 0.87667 0.01051 0.22982 0.0
H620 H 0.90375 0.0214 0.03725 0.0
H621 H 0.90199 0.95937 0.12206 0.0
H622 H 0.88721 0.92974 0.15454 0.0
H623 H 0.86926 0.91968 0.96729 0.0
H624 H 0.88371 0.9494 0.93382 0.0
H625 H 0.98277 0.00396 0.84415 0.0
H626 H 0.96134 0.00364 0.9334 0.0
H627 H 0.92005 0.97459 0.82346 0.0
H628 H 0.94164 0.97432 0.73521 0.0
H629 H 0.91925 0.96101 0.93534 0.0
H630 H 0.91879 0.02334 0.8509 0.0
H631 H 0.93286 0.05312 0.81631 0.0
H632 H 0.9538 0.063 1.0002 0.0
H633 H 0.94008 0.03312 0.03568 0.0
C634 C 0.85041 0.99037 0.11588 0.0
C635 C 0.85431 0.99898 0.17328 0.0
C636 C 0.86463 0.98762 0.07163 0.0
C637 C 0.88312 0.99338 0.08368 0.0
C638 C 0.88716 1.00147 0.14156 0.0
C639 C 0.873 0.00412 0.1859 0.0
C640 C 0.89803 0.9918 0.03503 0.0
C641 C 0.90735 0.00813 0.0157 0.0
C642 C 0.90246 0.9746 0.00561 0.0
C643 C 0.89378 0.9567 0.02556 0.0
C644 C 0.89475 0.95092 0.0879 0.0
C645 C 0.88646 0.93409 0.10647 0.0
C646 C 0.87726 0.92285 0.06304 0.0
C647 C 0.87637 0.92841 1.0009 0.0
C648 C 0.88463 0.94523 0.98209 0.0
C649 C 0.96921 0.99731 0.83935 0.0
C650 C 0.96386 0.98926 0.78249 0.0
C651 C 0.95688 0.99725 0.89027 0.0
C652 C 0.93883 0.98942 0.88513 0.0
C653 C 0.93381 0.98079 0.8289 0.0
C654 C 0.94617 0.98069 0.77828 0.0
C655 C 0.92493 0.99064 0.93724 0.0
C656 C 0.91576 0.97427 0.95713 0.0
C657 C 0.9205 0.00784 0.96684 0.0
C658 C 0.92859 0.0259 0.94577 0.0
C659 C 0.92651 0.0318 0.88386 0.0
C660 C 0.9344 0.0487 0.8641 0.0
C661 C 0.94427 0.05992 0.90598 0.0
C662 C 0.94619 0.05428 0.96778 0.0
C663 C 0.93835 0.03737 0.98775 0.0
H664 H 0.95038 0.07299 0.89059 0.0
H665 H 0.87085 0.90983 0.0775 0.0
H666 H 0.50455 0.86548 0.20888 0.0
H667 H 0.50827 0.88979 0.13013 0.0
H668 H 0.52204 0.8478 0.99366 0.0
H669 H 0.51769 0.82321 0.07173 0.0
H670 H 0.54457 0.8823 0.98742 0.0
H671 H 0.47983 0.86189 0.99461 0.0
H672 H 0.44993 0.85503 0.04755 0.0
H673 H 0.44625 0.91216 0.10891 0.0
H674 H 0.47631 0.91928 0.05712 0.0
H675 H 0.52565 0.93148 0.70854 0.0
H676 H 0.52804 0.90931 0.79448 0.0
H677 H 0.50085 0.94908 0.91593 0.0
H678 H 0.4978 0.97107 0.82907 0.0
H679 H 0.48621 0.9165 0.93404 0.0
H680 H 0.54898 0.93842 0.92494 0.0
H681 H 0.57912 0.94659 0.8757 0.0
H682 H 0.5875 0.88909 0.82412 0.0
H683 H 0.55725 0.88061 0.87216 0.0
C684 C 0.5084 0.86133 0.1622 0.0
C685 C 0.5105 0.84225 0.14669 0.0
C686 C 0.51065 0.87531 0.11729 0.0
C687 C 0.51523 0.87062 0.05583 0.0
C688 C 0.51851 0.85175 0.04084 0.0
C689 C 0.51609 0.83769 0.08572 0.0
C690 C 0.51511 0.88526 0.00654 0.0
C691 C 0.5318 0.88967 0.97515 0.0
C692 C 0.49857 0.89529 0.99194 0.0
C693 C 0.48041 0.89106 0.02256 0.0
C694 C 0.47272 0.87295 0.01983 0.0
C695 C 0.45574 0.86902 0.04956 0.0
C696 C 0.44622 0.88314 0.08172 0.0
C697 C 0.45366 0.90123 0.08406 0.0
C698 C 0.47066 0.90522 0.05451 0.0
C699 C 0.5203 0.93556 0.75369 0.0
C700 C 0.51158 0.95304 0.76207 0.0
C701 C 0.52179 0.9229 0.80303 0.0
C702 C 0.51486 0.92753 0.86227 0.0
C703 C 0.50634 0.94513 0.87085 0.0
C704 C 0.5047 0.95775 0.82126 0.0
C705 C 0.5157 0.91365 0.9142 0.0
C706 C 0.49908 0.90931 0.94623 0.0
C707 C 0.5324 0.90393 0.92993 0.0
C708 C 0.55075 0.90891 0.90171 0.0
C709 C 0.55719 0.92753 0.90274 0.0
C710 C 0.5743 0.93222 0.87508 0.0
C711 C 0.5852 0.91838 0.84667 0.0
C712 C 0.57903 0.8998 0.84608 0.0
C713 C 0.56191 0.89504 0.87358 0.0
H714 H 0.59843 0.92204 0.82521 0.0
H715 H 0.43307 0.88007 0.10469 0.0
H716 H 0.64172 0.49475 0.23358 0.0
H717 H 0.61659 0.49833 0.15743 0.0
H718 H 0.6567 0.51705 0.02106 0.0
H719 H 0.68198 0.51304 0.0961 0.0
H720 H 0.62337 0.53746 0.01698 0.0
H721 H 0.64294 0.47269 0.02014 0.0
H722 H 0.64947 0.44229 0.06987 0.0
H723 H 0.59217 0.43859 0.13003 0.0
H724 H 0.58536 0.46914 0.0814 0.0
H725 H 0.57604 0.51971 0.73385 0.0
H726 H 0.59764 0.52145 0.8216 0.0
H727 H 0.55604 0.49587 0.93999 0.0
H728 H 0.53454 0.49366 0.85159 0.0
H729 H 0.58848 0.47995 0.95931 0.0
H730 H 0.56786 0.54333 0.95101 0.0
H731 H 0.56086 0.57387 0.90291 0.0
H732 H 0.61892 0.58069 0.85519 0.0
H733 H 0.62624 0.55006 0.90223 0.0
C734 C 0.64525 0.49968 0.18749 0.0
C735 C 0.66401 0.50345 0.17117 0.0
C736 C 0.63081 0.50178 0.14401 0.0
C737 C 0.63477 0.50774 0.08321 0.0
C738 C 0.65329 0.51245 0.06767 0.0
C739 C 0.66775 0.51025 0.11097 0.0
C740 C 0.61985 0.50802 0.03479 0.0
C741 C 0.61583 0.52487 0.00397 0.0
C742 C 0.60965 0.4917 0.01885 0.0
C743 C 0.6137 0.47329 0.04775 0.0
C744 C 0.63177 0.46547 0.04441 0.0
C745 C 0.63551 0.4482 0.07233 0.0
C746 C 0.62126 0.43854 0.10325 0.0
C747 C 0.60321 0.4461 0.10616 0.0
C748 C 0.5994 0.46339 0.07842 0.0
C749 C 0.57144 0.51459 0.7787 0.0
C750 C 0.55359 0.50655 0.78582 0.0
C751 C 0.58378 0.51569 0.82905 0.0
C752 C 0.57847 0.509 0.88793 0.0
C753 C 0.56051 0.50116 0.89521 0.0
C754 C 0.54819 0.49997 0.84471 0.0
C755 C 0.59197 0.50941 0.94092 0.0
C756 C 0.59581 0.49264 0.97258 0.0
C757 C 0.60189 0.52584 0.95787 0.0
C758 C 0.59757 0.54431 0.92971 0.0
C759 C 0.57912 0.55128 0.92986 0.0
C760 C 0.5751 0.56862 0.90284 0.0
C761 C 0.58943 0.57919 0.87589 0.0
C762 C 0.60783 0.57247 0.87603 0.0
C763 C 0.61193 0.55513 0.90293 0.0
H764 H 0.58629 0.59261 0.855 0.0
H765 H 0.62418 0.42516 0.12482 0.0
H766 H 0.01195 0.62469 0.24389 0.0
H767 H 0.00911 0.5999 0.16615 0.0
H768 H 0.9904 0.64032 0.03134 0.0
H769 H 0.99388 0.66535 0.1078 0.0
H770 H 0.9699 0.60594 0.02908 0.0
H771 H 0.03441 0.62753 0.02897 0.0
H772 H 0.06479 0.63445 0.07829 0.0
H773 H 0.06999 0.57695 0.13402 0.0
H774 H 0.03948 0.56975 0.08578 0.0
H775 H 0.98581 0.56182 0.74116 0.0
H776 H 0.98463 0.58238 0.83161 0.0
H777 H 0.01394 0.54083 0.93977 0.0
H778 H 0.01571 0.52039 0.84812 0.0
H779 H 0.02822 0.57349 0.96365 0.0
H780 H 0.96609 0.5503 0.9599 0.0
H781 H 0.93549 0.54196 0.91481 0.0
H782 H 0.92487 0.59985 0.87379 0.0
H783 H 0.95557 0.60851 0.91767 0.0
C784 C 0.00725 0.6284 0.19775 0.0
C785 C 0.00334 0.6472 0.18238 0.0
C786 C 0.00554 0.61413 0.15338 0.0
C787 C 0.99973 0.61825 0.09266 0.0
C788 C 0.99489 0.63679 0.07791 0.0
C789 C 0.99678 0.65111 0.12204 0.0
C790 C 0.99961 0.60348 0.04363 0.0
C791 C 0.98266 0.59894 0.01432 0.0
C792 C 0.01615 0.59385 0.02588 0.0
C793 C 0.03457 0.59815 0.05437 0.0
C794 C 0.04196 0.6164 0.05218 0.0
C795 C 0.05922 0.62036 0.07986 0.0
C796 C 0.0693 0.60616 0.10943 0.0
C797 C 0.06216 0.58794 0.1112 0.0
C798 C 0.04489 0.58391 0.08367 0.0
C799 C 0.9919 0.55699 0.78431 0.0
C800 C 1.00082 0.53946 0.78751 0.0
C801 C 0.99112 0.56874 0.83627 0.0
C802 C 0.99895 0.56314 0.8932 0.0
C803 C 0.00775 0.54551 0.89661 0.0
C804 C 0.00867 0.53379 0.8443 0.0
C805 C 0.9985 0.57603 0.94805 0.0
C806 C 0.01537 0.58027 0.97856 0.0
C807 C 0.98181 0.58513 0.96764 0.0
C808 C 0.96323 0.58004 0.94168 0.0
C809 C 0.9573 0.56124 0.94088 0.0
C810 C 0.93992 0.55646 0.91557 0.0
C811 C 0.92825 0.57037 0.89136 0.0
C812 C 0.93393 0.58909 0.89254 0.0
C813 C 0.95132 0.59395 0.91768 0.0
H814 H 0.91481 0.56664 0.87178 0.0
H815 H 0.08265 0.60925 0.13083 0.0
H816 H 0.98699 0.2175 0.24899 0.0
H817 H 0.97545 0.19761 0.33226 0.0
H818 H 0.01576 0.22189 0.45802 0.0
H819 H 0.02778 0.24155 0.37354 0.0
H820 H 0.02001 0.18596 0.45255 0.0
H821 H 0.96791 0.22382 0.49241 0.0
H822 H 0.94092 0.24437 0.47113 0.0
H823 H 0.91264 0.19911 0.37947 0.0
H824 H 0.93955 0.17834 0.39923 0.0
H825 H 0.99449 0.10002 0.5922 0.0
H826 H 0.99685 0.13418 0.58695 0.0
H827 H 0.96326 0.13393 0.42044 0.0
H828 H 0.96067 0.09985 0.42639 0.0
H829 H 0.95507 0.16401 0.49047 0.0
H830 H 0.01263 0.1332 0.41439 0.0
H831 H 0.04149 0.11432 0.42242 0.0
H832 H 0.05953 0.14753 0.57753 0.0
H833 H 0.03074 0.16662 0.57022 0.0
C834 C 0.99316 0.21885 0.2947 0.0
C835 C 0.0085 0.23076 0.30462 0.0
C836 C 0.98634 0.2077 0.34268 0.0
C837 C 0.99462 0.20835 0.40171 0.0
C838 C 0.00908 0.22126 0.41294 0.0
C839 C 0.01593 0.23246 0.36472 0.0
C840 C 0.99069 0.193 0.44612 0.0
C841 C 0.0058 0.18154 0.46308 0.0
C842 C 0.97218 0.18711 0.45942 0.0
C843 C 0.95581 0.19948 0.44744 0.0
C844 C 0.95598 0.21825 0.46743 0.0
C845 C 0.94068 0.22995 0.45565 0.0
C846 C 0.92507 0.22305 0.42401 0.0
C847 C 0.92473 0.20442 0.40411 0.0
C848 C 0.93999 0.19266 0.41575 0.0
C849 C 0.98748 0.10734 0.55498 0.0
C850 C 0.97762 0.09733 0.50929 0.0
C851 C 0.98877 0.12682 0.55211 0.0
C852 C 0.98043 0.13657 0.50286 0.0
C853 C 0.96974 0.12668 0.45903 0.0
C854 C 0.96831 0.10722 0.46228 0.0
C855 C 0.98433 0.15668 0.49243 0.0
C856 C 0.96924 0.16894 0.48245 0.0
C857 C 0.00287 0.16336 0.48515 0.0
C858 C 0.01951 0.15117 0.49218 0.0
C859 C 0.02267 0.13632 0.4506 0.0
C860 C 0.03905 0.12566 0.45483 0.0
C861 C 0.05239 0.1298 0.50024 0.0
C862 C 0.04925 0.14443 0.54213 0.0
C863 C 0.0329 0.15516 0.53801 0.0
H864 H 0.06516 0.12167 0.50311 0.0
H865 H 0.91324 0.23213 0.4149 0.0
H866 H 0.26381 0.04264 0.29733 0.0
H867 H 0.29306 0.03542 0.35029 0.0
H868 H 0.3242 0.06144 0.20153 0.0
H869 H 0.29524 0.06733 0.14603 0.0
H870 H 0.33489 0.02723 0.21469 0.0
H871 H 0.32399 0.07793 0.35729 0.0
H872 H 0.30615 0.09669 0.4333 0.0
H873 H 0.30257 0.04916 0.55485 0.0
H874 H 0.32016 0.03003 0.4792 0.0
H875 H 0.42559 0.0161 0.33866 0.0
H876 H 0.39582 0.02903 0.30251 0.0
H877 H 0.36609 0.99546 0.43705 0.0
H878 H 0.39598 0.98254 0.47385 0.0
H879 H 0.35457 0.03301 0.43456 0.0
H880 H 0.36457 0.98243 0.2929 0.0
H881 H 0.38197 0.96305 0.21755 0.0
H882 H 0.38664 0.01009 0.09446 0.0
H883 H 0.36948 0.02988 0.16953 0.0
C884 C 0.27687 0.0471 0.27631 0.0
C885 C 0.27715 0.05512 0.2166 0.0
C886 C 0.2936 0.04318 0.30713 0.0
C887 C 0.31085 0.04773 0.27958 0.0
C888 C 0.31103 0.05765 0.22336 0.0
C889 C 0.29437 0.06123 0.19195 0.0
C890 C 0.32849 0.03963 0.3037 0.0
C891 C 0.33937 0.02888 0.2625 0.0
C892 C 0.33387 0.04101 0.36675 0.0
C893 C 0.32326 0.0525 0.41226 0.0
C894 C 0.31926 0.07143 0.39998 0.0
C895 C 0.30922 0.08214 0.44307 0.0
C896 C 0.30319 0.07411 0.4988 0.0
C897 C 0.30723 0.05536 0.51164 0.0
C898 C 0.31726 0.04458 0.4687 0.0
C899 C 0.41269 0.01146 0.36038 0.0
C900 C 0.41299 0.99833 0.40887 0.0
C901 C 0.39574 0.01879 0.33963 0.0
C902 C 0.37884 0.01312 0.36706 0.0
C903 C 0.37905 0.99997 0.41542 0.0
C904 C 0.39603 0.9925 0.43593 0.0
C905 C 0.361 0.02112 0.3451 0.0
C906 C 0.35007 0.03162 0.38669 0.0
C907 C 0.35548 0.01952 0.2824 0.0
C908 C 0.36591 0.0077 0.23721 0.0
C909 C 0.36946 0.98871 0.25006 0.0
C910 C 0.37925 0.97764 0.20732 0.0
C911 C 0.38544 0.98536 0.15132 0.0
C912 C 0.38184 0.00416 0.13789 0.0
C913 C 0.37207 0.0153 0.18051 0.0
H914 H 0.393 0.97676 0.11827 0.0
H915 H 0.29542 0.08243 0.53209 0.0
H916 H 0.47792 0.26292 0.27519 0.0
H917 H 0.48372 0.29074 0.33727 0.0
H918 H 0.43122 0.31439 0.27647 0.0
H919 H 0.42515 0.28632 0.21437 0.0
H920 H 0.46051 0.33636 0.24834 0.0
H921 H 0.4386 0.30467 0.42929 0.0
H922 H 0.43617 0.27907 0.50559 0.0
H923 H 0.49442 0.28537 0.5506 0.0
H924 H 0.4973 0.31083 0.47385 0.0
H925 H 0.47693 0.42125 0.40742 0.0
H926 H 0.46326 0.39165 0.3737 0.0
H927 H 0.51343 0.36247 0.42984 0.0
H928 H 0.52695 0.39204 0.46595 0.0
H929 H 0.48233 0.34384 0.46548 0.0
H930 H 0.50537 0.37211 0.27778 0.0
H931 H 0.50897 0.39702 0.19938 0.0
H932 H 0.4497 0.39618 0.16537 0.0
H933 H 0.44572 0.37138 0.24408 0.0
C934 C 0.46721 0.27366 0.27688 0.0
C935 C 0.45113 0.27248 0.23941 0.0
C936 C 0.47058 0.28962 0.31243 0.0
C937 C 0.45791 0.30463 0.31141 0.0
C938 C 0.44119 0.30294 0.27769 0.0
C939 C 0.43778 0.28695 0.24213 0.0
C940 C 0.46354 0.32294 0.33741 0.0
C941 C 0.46483 0.33812 0.29628 0.0
C942 C 0.46984 0.32497 0.39927 0.0
C943 C 0.46819 0.30959 0.44537 0.0
C944 C 0.45094 0.3005 0.45501 0.0
C945 C 0.44948 0.28602 0.49845 0.0
C946 C 0.46514 0.28057 0.53283 0.0
C947 C 0.4823 0.2896 0.52391 0.0
C948 C 0.48385 0.30407 0.48048 0.0
C949 C 0.48501 0.40852 0.413 0.0
C950 C 0.50303 0.40895 0.43924 0.0
C951 C 0.47723 0.39164 0.39331 0.0
C952 C 0.48741 0.37492 0.39876 0.0
C953 C 0.50537 0.37526 0.42517 0.0
C954 C 0.51315 0.39216 0.44511 0.0
C955 C 0.47934 0.35712 0.37628 0.0
C956 C 0.4777 0.34208 0.41788 0.0
C957 C 0.47286 0.3551 0.31462 0.0
C958 C 0.47522 0.37006 0.26738 0.0
C959 C 0.49308 0.37736 0.25399 0.0
C960 C 0.4952 0.39143 0.2094 0.0
C961 C 0.47956 0.39824 0.17762 0.0
C962 C 0.46179 0.39095 0.19021 0.0
C963 C 0.4596 0.37686 0.23471 0.0
H964 H 0.48123 0.40911 0.14305 0.0
H965 H 0.46397 0.26937 0.56646 0.0
H966 H 0.24159 0.52894 0.3402 0.0
H967 H 0.21922 0.55126 0.38579 0.0
H968 H 0.17865 0.53643 0.24576 0.0
H969 H 0.20095 0.51471 0.19942 0.0
H970 H 0.17704 0.5733 0.27079 0.0
H971 H 0.18001 0.51424 0.38803 0.0
H972 H 0.19617 0.49064 0.45228 0.0
H973 H 0.20991 0.53296 0.58645 0.0
H974 H 0.19399 0.55685 0.52249 0.0
H975 H 0.08711 0.55424 0.36085 0.0
H976 H 0.11903 0.55951 0.32716 0.0
H977 H 0.13257 0.58318 0.50592 0.0
H978 H 0.1002 0.57809 0.54022 0.0
H979 H 0.15443 0.55442 0.47946 0.0
H980 H 0.13881 0.6098 0.37215 0.0
H981 H 0.11968 0.63064 0.30662 0.0
H982 H 0.12725 0.59364 0.15136 0.0
H983 H 0.14622 0.57244 0.21602 0.0
C984 C 0.22799 0.53073 0.31873 0.0
C985 C 0.22283 0.51984 0.2671 0.0
C986 C 0.21526 0.54344 0.34475 0.0
C987 C 0.19724 0.54538 0.31941 0.0
C988 C 0.19249 0.5352 0.26601 0.0
C989 C 0.20514 0.52258 0.24013 0.0
C990 C 0.18238 0.55625 0.35124 0.0
C991 C 0.17214 0.56941 0.31672 0.0
C992 C 0.17643 0.55164 0.41204 0.0
C993 C 0.1861 0.53734 0.45013 0.0
C994 C 0.18663 0.51852 0.43098 0.0
C995 C 0.19571 0.5051 0.46736 0.0
C996 C 0.20413 0.51031 0.52329 0.0
C997 C 0.20344 0.52896 0.54301 0.0
C998 C 0.1944 0.54244 0.50672 0.0
C999 C 0.09656 0.5613 0.39237 0.0
C1000 C 0.09109 0.5656 0.45347 0.0
C1001 C 0.11491 0.56437 0.37288 0.0
C1002 C 0.1282 0.5719 0.41382 0.0
C1003 C 0.12251 0.57741 0.47352 0.0
C1004 C 0.10407 0.57437 0.49313 0.0
C1005 C 0.14832 0.57057 0.39736 0.0
C1006 C 0.15967 0.55919 0.43484 0.0
C1007 C 0.15509 0.57661 0.33889 0.0
C1008 C 0.14402 0.58952 0.29909 0.0
C1009 C 0.13637 0.60607 0.32407 0.0
C1010 C 0.12555 0.61795 0.28705 0.0
C1011 C 0.12226 0.61347 0.22486 0.0
C1012 C 0.12985 0.59712 0.1995 0.0
C1013 C 0.14071 0.58519 0.23629 0.0
H1014 H 0.11384 0.62267 0.19633 0.0
H1015 H 0.21114 0.4999 0.55143 0.0
H1016 H 0.06582 0.74894 0.04398 0.0
H1017 H 0.06792 0.77258 0.96091 0.0
H1018 H 0.02226 0.80317 0.04524 0.0
H1019 H 0.02016 0.77977 0.12719 0.0
H1020 H 0.02084 0.80477 0.91806 0.0
H1021 H 0.06728 0.8121 0.08706 0.0
H1022 H 0.09441 0.80096 0.1476 0.0
H1023 H 0.12689 0.79615 0.98015 0.0
H1024 H 0.09982 0.80708 0.91863 0.0
H1025 H 0.02288 0.90013 0.94574 0.0
H1026 H 0.02584 0.86649 0.96299 0.0
H1027 H 0.07305 0.86448 0.83747 0.0
H1028 H 0.07025 0.89842 0.82053 0.0
H1029 H 0.07826 0.84323 0.94336 0.0
H1030 H 0.03223 0.85104 0.78904 0.0
H1031 H 0.00459 0.86619 0.74295 0.0
H1032 H 0.96968 0.84348 0.88688 0.0
H1033 H 0.99726 0.82917 0.93635 0.0
C1034 C 0.05603 0.76053 0.04357 0.0
C1035 C 0.04305 0.76285 0.0921 0.0
C1036 C 0.0572 0.77395 0.99631 0.0
C1037 C 0.04531 0.78965 0.99726 0.0
C1038 C 0.0315 0.79113 0.04344 0.0
C1039 C 0.03044 0.7779 0.09057 0.0
C1040 C 0.04858 0.80603 0.95682 0.0
C1041 C 0.03346 0.81313 0.92255 0.0
C1042 C 0.06529 0.81661 0.96139 0.0
C1043 C 0.08152 0.81015 0.99829 0.0
C1044 C 0.08018 0.80855 0.06321 0.0
C1045 C 0.09554 0.80229 0.09766 0.0
C1046 C 0.11235 0.79779 0.06771 0.0
C1047 C 0.11385 0.79959 0.00325 0.0
C1048 C 0.09851 0.8058 0.96857 0.0
C1049 C 0.0339 0.89252 0.92194 0.0
C1050 C 0.04622 0.90174 0.88139 0.0
C1051 C 0.03557 0.87335 0.93168 0.0
C1052 C 0.04938 0.863 0.90025 0.0
C1053 C 0.06221 0.87226 0.8616 0.0
C1054 C 0.06063 0.89156 0.85217 0.0
C1055 C 0.05003 0.84249 0.90825 0.0
C1056 C 0.06593 0.83463 0.93597 0.0
C1057 C 0.03389 0.83134 0.89824 0.0
C1058 C 0.01696 0.83902 0.86667 0.0
C1059 C 0.01871 0.84939 0.81135 0.0
C1060 C 0.00305 0.85801 0.78492 0.0
C1061 C 0.98539 0.8558 0.81193 0.0
C1062 C 0.98338 0.84514 0.8659 0.0
C1063 C 0.99906 0.83686 0.89343 0.0
H1064 H 0.97325 0.8623 0.79092 0.0
H1065 H 0.12423 0.79295 0.09446 0.0
H1066 H 0.7356 0.08269 0.11515 0.0
H1067 H 0.70957 0.0873 0.04257 0.0
H1068 H 0.71103 0.02851 0.99609 0.0
H1069 H 0.73698 0.02388 0.06761 0.0
H1070 H 0.70208 0.04892 0.89605 0.0
H1071 H 0.68386 0.04542 0.11316 0.0
H1072 H 0.68421 0.05594 0.22222 0.0
H1073 H 0.66252 0.10955 0.16749 0.0
H1074 H 0.66258 0.09952 0.05774 0.0
H1075 H 0.61062 0.01347 0.87042 0.0
H1076 H 0.64253 0.02256 0.89573 0.0
H1077 H 0.62647 0.08078 0.89308 0.0
H1078 H 0.59453 0.07193 0.8644 0.0
H1079 H 0.64378 0.06869 0.00388 0.0
H1080 H 0.65562 0.0681 0.78717 0.0
H1081 H 0.65523 0.05618 0.67974 0.0
H1082 H 0.68753 0.00831 0.73527 0.0
H1083 H 0.6879 0.0198 0.84333 0.0
C1084 C 0.73054 0.07085 0.08855 0.0
C1085 C 0.73819 0.0529 0.09736 0.0
C1086 C 0.71575 0.07351 0.04703 0.0
C1087 C 0.70823 0.05819 0.01464 0.0
C1088 C 0.71667 0.04054 0.0204 0.0
C1089 C 0.73151 0.03791 0.06139 0.0
C1090 C 0.69026 0.05976 0.98092 0.0
C1091 C 0.68932 0.0533 0.91941 0.0
C1092 C 0.67369 0.06587 0.01116 0.0
C1093 C 0.67349 0.07182 0.07718 0.0
C1094 C 0.67933 0.05951 0.12432 0.0
C1095 C 0.67946 0.06538 0.18624 0.0
C1096 C 0.6734 0.0834 0.20179 0.0
C1097 C 0.66724 0.0956 0.15537 0.0
C1098 C 0.66725 0.08986 0.09327 0.0
C1099 C 0.61387 0.02826 0.87337 0.0
C1100 C 0.59987 0.04196 0.86558 0.0
C1101 C 0.63216 0.03341 0.888 0.0
C1102 C 0.63682 0.05233 0.89579 0.0
C1103 C 0.62309 0.0661 0.88703 0.0
C1104 C 0.6048 0.06098 0.87138 0.0
C1105 C 0.65553 0.05733 0.9197 0.0
C1106 C 0.65659 0.0649 0.97964 0.0
C1107 C 0.67211 0.05198 0.88831 0.0
C1108 C 0.67174 0.04482 0.82351 0.0
C1109 C 0.66252 0.05496 0.77664 0.0
C1110 C 0.66235 0.04831 0.71557 0.0
C1111 C 0.67143 0.03156 0.70065 0.0
C1112 C 0.6806 0.02135 0.74686 0.0
C1113 C 0.6808 0.02794 0.80803 0.0
H1114 H 0.67127 0.02644 0.65334 0.0
H1115 H 0.67344 0.08789 0.2498 0.0
H1116 H 0.42956 0.71197 0.24306 0.0
H1117 H 0.42434 0.68239 0.19048 0.0
H1118 H 0.43343 0.70907 0.01339 0.0
H1119 H 0.43733 0.73923 0.06536 0.0
H1120 H 0.4099 0.67914 0.00246 0.0
H1121 H 0.46998 0.69247 0.09422 0.0
H1122 H 0.49107 0.70147 0.17978 0.0
H1123 H 0.47368 0.65323 0.28395 0.0
H1124 H 0.45216 0.64416 0.19952 0.0
H1125 H 0.4554 0.60384 0.84216 0.0
H1126 H 0.4458 0.63344 0.88979 0.0
H1127 H 0.43816 0.60541 0.06547 0.0
H1128 H 0.44849 0.57601 0.01904 0.0
H1129 H 0.45921 0.63571 0.07784 0.0
H1130 H 0.40058 0.62123 0.97935 0.0
H1131 H 0.38005 0.61287 0.89167 0.0
H1132 H 0.396 0.66324 0.79645 0.0
H1133 H 0.41683 0.67179 0.88322 0.0
C1134 C 0.42957 0.7119 0.19281 0.0
C1135 C 0.43439 0.728 0.15861 0.0
C1136 C 0.42676 0.69483 0.1628 0.0
C1137 C 0.42919 0.69345 0.09833 0.0
C1138 C 0.4318 0.7098 0.06337 0.0
C1139 C 0.43426 0.72699 0.09328 0.0
C1140 C 0.43195 0.67488 0.06909 0.0
C1141 C 0.42071 0.66964 0.01863 0.0
C1142 C 0.44605 0.66251 0.09052 0.0
C1143 C 0.4593 0.66774 0.1408 0.0
C1144 C 0.47056 0.68384 0.13553 0.0
C1145 C 0.48259 0.68896 0.18383 0.0
C1146 C 0.48368 0.67795 0.23733 0.0
C1147 C 0.47279 0.66176 0.24254 0.0
C1148 C 0.46066 0.65663 0.19449 0.0
C1149 C 0.45163 0.60398 0.8909 0.0
C1150 C 0.45278 0.58756 0.92683 0.0
C1151 C 0.44593 0.62086 0.91787 0.0
C1152 C 0.44111 0.62159 0.98107 0.0
C1153 C 0.44175 0.60513 0.01655 0.0
C1154 C 0.44752 0.5883 0.98976 0.0
C1155 C 0.43696 0.63972 0.01161 0.0
C1156 C 0.44817 0.64502 0.06206 0.0
C1157 C 0.42299 0.65214 0.98966 0.0
C1158 C 0.41038 0.64707 0.93759 0.0
C1159 C 0.39981 0.63046 0.93952 0.0
C1160 C 0.3881 0.6257 0.89001 0.0
C1161 C 0.38675 0.63749 0.83846 0.0
C1162 C 0.39707 0.65411 0.83639 0.0
C1163 C 0.40881 0.65893 0.88576 0.0
H1164 H 0.37768 0.63378 0.80018 0.0
H1165 H 0.493 0.68192 0.27468 0.0
H1166 H 0.7913 0.49681 0.07506 0.0
H1167 H 0.8113 0.49706 0.98352 0.0
H1168 H 0.78142 0.44949 0.90945 0.0
H1169 H 0.76137 0.44908 0.00246 0.0
H1170 H 0.81737 0.44252 0.91347 0.0
H1171 H 0.78294 0.49035 0.82322 0.0
H1172 H 0.7641 0.51913 0.81336 0.0
H1173 H 0.81136 0.55221 0.86945 0.0
H1174 H 0.83042 0.52364 0.88065 0.0
H1175 H 0.90616 0.45083 0.76196 0.0
H1176 H 0.87187 0.45082 0.76229 0.0
H1177 H 0.87187 0.49427 0.90158 0.0
H1178 H 0.90597 0.49398 0.90295 0.0
H1179 H 0.84367 0.49927 0.81321 0.0
H1180 H 0.87079 0.44791 0.94152 0.0
H1181 H 0.88911 0.41871 0.95105 0.0
H1182 H 0.85367 0.39212 0.81635 0.0
H1183 H 0.83526 0.42125 0.80575 0.0
C1184 C 0.7888 0.48659 0.0388 0.0
C1185 C 0.77502 0.47276 0.04609 0.0
C1186 C 0.80003 0.48692 0.98593 0.0
C1187 C 0.79773 0.47343 0.93905 0.0
C1188 C 0.78332 0.46013 0.94475 0.0
C1189 C 0.77192 0.45989 0.99779 0.0
C1190 C 0.81252 0.47156 0.89102 0.0
C1191 C 0.82272 0.45476 0.88945 0.0
C1192 C 0.81948 0.48741 0.85899 0.0
C1193 C 0.80813 0.50478 0.85274 0.0
C1194 C 0.7893 0.50374 0.83386 0.0
C1195 C 0.77858 0.52004 0.82796 0.0
C1196 C 0.78653 0.53749 0.84074 0.0
C1197 C 0.80523 0.53868 0.85942 0.0
C1198 C 0.81602 0.52243 0.86538 0.0
C1199 C 0.89882 0.46038 0.79262 0.0
C1200 C 0.90877 0.47219 0.83325 0.0
C1201 C 0.87925 0.46055 0.79198 0.0
C1202 C 0.86935 0.47257 0.83179 0.0
C1203 C 0.87925 0.48502 0.86996 0.0
C1204 C 0.89876 0.48479 0.8709 0.0
C1205 C 0.8489 0.47081 0.84084 0.0
C1206 C 0.83774 0.48687 0.83472 0.0
C1207 C 0.84092 0.45424 0.86521 0.0
C1208 C 0.85186 0.43676 0.8722 0.0
C1209 C 0.867 0.43585 0.91373 0.0
C1210 C 0.87738 0.41932 0.91935 0.0
C1211 C 0.8726 0.40359 0.88415 0.0
C1212 C 0.85739 0.40433 0.84343 0.0
C1213 C 0.84699 0.42084 0.83757 0.0
H1214 H 0.88065 0.39081 0.88856 0.0
H1215 H 0.7782 0.55009 0.83616 0.0
H1216 H 0.99639 0.21212 0.8654 0.0
H1217 H 0.99161 0.18111 0.81891 0.0
H1218 H 0.04665 0.16424 0.87954 0.0
H1219 H 0.0515 0.19498 0.92565 0.0
H1220 H 0.04117 0.15143 0.7669 0.0
H1221 H 0.00534 0.1514 0.95729 0.0
H1222 H 0.98132 0.16279 0.03073 0.0
H1223 H 0.93855 0.15391 0.89389 0.0
H1224 H 0.96237 0.14269 0.81931 0.0
H1225 H 0.0341 0.05205 0.78435 0.0
H1226 H 0.03547 0.08529 0.81252 0.0
H1227 H 0.98608 0.09596 0.70327 0.0
H1228 H 0.98513 0.06281 0.67242 0.0
H1229 H 0.98652 0.11272 0.82901 0.0
H1230 H 0.02285 0.10853 0.64399 0.0
H1231 H 0.04698 0.09442 0.57698 0.0
H1232 H 0.08966 0.11091 0.70618 0.0
H1233 H 0.06557 0.12421 0.77579 0.0
C1234 C 0.00748 0.20181 0.8688 0.0
C1235 C 0.02438 0.20622 0.89916 0.0
C1236 C 0.00473 0.18403 0.84217 0.0
C1237 C 0.0187 0.17014 0.84598 0.0
C1238 C 0.03566 0.17464 0.8754 0.0
C1239 C 0.03844 0.19236 0.90167 0.0
C1240 C 0.01571 0.15075 0.821 0.0
C1241 C 0.02926 0.14298 0.78092 0.0
C1242 C 0.99998 0.13969 0.83779 0.0
C1243 C 0.98566 0.14644 0.8825 0.0
C1244 C 0.99083 0.15203 0.94271 0.0
C1245 C 0.97725 0.15843 0.98456 0.0
C1246 C 0.95843 0.15913 0.96692 0.0
C1247 C 0.95314 0.15339 0.90743 0.0
C1248 C 0.96667 0.14701 0.86536 0.0
C1249 C 0.02357 0.06147 0.76607 0.0
C1250 C 0.00956 0.05478 0.72593 0.0
C1251 C 0.02436 0.08047 0.78225 0.0
C1252 C 0.01093 0.09315 0.75979 0.0
C1253 C 0.99665 0.08645 0.72085 0.0
C1254 C 0.99617 0.06752 0.70313 0.0
C1255 C 0.01214 0.11342 0.77625 0.0
C1256 C 0.99829 0.12131 0.81456 0.0
C1257 C 0.02766 0.12454 0.75821 0.0
C1258 C 0.04231 0.11714 0.71559 0.0
C1259 C 0.03732 0.1089 0.65863 0.0
C1260 C 0.05101 0.101 0.62022 0.0
C1261 C 0.06987 0.10176 0.63726 0.0
C1262 C 0.07504 0.11032 0.69303 0.0
C1263 C 0.06134 0.11795 0.73218 0.0
H1264 H 0.08046 0.09577 0.60717 0.0
H1265 H 0.94793 0.16408 0.99939 0.0
H1266 H 0.30425 0.00569 0.9777 0.0
H1267 H 0.33621 1.0019 0.93951 0.0
H1268 H 0.31751 0.01303 0.75289 0.0
H1269 H 0.28528 0.01558 0.79007 0.0
H1270 H 0.34337 0.98775 0.74704 0.0
H1271 H 0.3394 0.04719 0.84981 0.0
H1272 H 0.33251 0.06873 0.93649 0.0
H1273 H 0.37284 0.04036 0.05032 0.0
H1274 H 0.37974 0.01839 0.96469 0.0
H1275 H 0.43517 0.00629 0.62663 0.0
H1276 H 0.40226 0.0087 0.65857 0.0
H1277 H 0.41834 0.9995 0.84922 0.0
H1278 H 0.45119 0.99812 0.81789 0.0
H1279 H 0.39336 0.02455 0.84999 0.0
H1280 H 0.39675 0.96453 0.74491 0.0
H1281 H 0.40371 0.94395 0.65568 0.0
H1282 H 0.36453 0.97455 0.54358 0.0
H1283 H 0.35754 0.99547 0.63189 0.0
C1284 C 0.30674 0.00692 0.92828 0.0
C1285 C 0.29192 0.01112 0.88734 0.0
C1286 C 0.32522 0.00504 0.9065 0.0
C1287 C 0.32956 0.00767 0.8433 0.0
C1288 C 0.31473 0.01111 0.80195 0.0
C1289 C 0.29621 0.01277 0.82356 0.0
C1290 C 0.34951 0.00726 0.82056 0.0
C1291 C 0.35424 0.99597 0.76926 0.0
C1292 C 0.36394 0.01777 0.84953 0.0
C1293 C 0.35995 0.03104 0.90098 0.0
C1294 C 0.34671 0.04546 0.89347 0.0
C1295 C 0.3428 0.05773 0.94243 0.0
C1296 C 0.35217 0.05585 0.99897 0.0
C1297 C 0.36554 0.04173 0.00659 0.0
C1298 C 0.36946 0.02937 0.95784 0.0
C1299 C 0.43167 0.0048 0.67536 0.0
C1300 C 0.44588 1.00201 0.71963 0.0
C1301 C 0.41276 0.00604 0.69367 0.0
C1302 C 0.40752 0.00394 0.7565 0.0
C1303 C 0.4218 1.0012 0.80054 0.0
C1304 C 0.44067 1.00036 0.78247 0.0
C1305 C 0.38734 0.00478 0.77707 0.0
C1306 C 0.38254 0.01625 0.82787 0.0
C1307 C 0.37286 0.9945 0.74745 0.0
C1308 C 0.37674 0.98165 0.69485 0.0
C1309 C 0.38967 0.9669 0.70115 0.0
C1310 C 0.39363 0.95519 0.65073 0.0
C1311 C 0.38461 0.95798 0.59394 0.0
C1312 C 0.37154 0.97242 0.58756 0.0
C1313 C 0.36756 0.9842 0.63778 0.0
H1314 H 0.38773 0.94893 0.55491 0.0
H1315 H 0.34913 0.06536 0.03682 0.0
H1316 H 0.50054 0.30048 0.99348 0.0
H1317 H 0.50484 0.33226 0.95605 0.0
H1318 H 0.49183 0.31432 0.76987 0.0
H1319 H 0.48933 0.28209 0.80576 0.0
H1320 H 0.51637 0.33967 0.76025 0.0
H1321 H 0.45859 0.3374 0.87566 0.0
H1322 H 0.43864 0.33083 0.96683 0.0
H1323 H 0.47129 0.36889 0.07669 0.0
H1324 H 0.49149 0.37561 0.98631 0.0
H1325 H 0.49787 0.43229 0.64931 0.0
H1326 H 0.49509 0.3994 0.68014 0.0
H1327 H 0.50906 0.41435 0.86869 0.0
H1328 H 0.51078 0.44727 0.83865 0.0
H1329 H 0.48312 0.39022 0.8738 0.0
H1330 H 0.54109 0.39212 0.75467 0.0
H1331 H 0.55966 0.399 0.66061 0.0
H1332 H 0.5251 0.36168 0.55441 0.0
H1333 H 0.5062 0.35474 0.6477 0.0
C1334 C 0.49906 0.30302 0.94422 0.0
C1335 C 0.49434 0.28837 0.90314 0.0
C1336 C 0.50116 0.32147 0.92293 0.0
C1337 C 0.49802 0.32605 0.86024 0.0
C1338 C 0.49409 0.31139 0.81863 0.0
C1339 C 0.49241 0.29285 0.83961 0.0
C1340 C 0.49852 0.34604 0.83835 0.0
C1341 C 0.5089 0.35065 0.78484 0.0
C1342 C 0.48898 0.36064 0.87024 0.0
C1343 C 0.47663 0.35689 0.92434 0.0
C1344 C 0.46153 0.34433 0.91932 0.0
C1345 C 0.45018 0.34059 0.97085 0.0
C1346 C 0.45371 0.34943 0.02755 0.0
C1347 C 0.46855 0.36208 0.03276 0.0
C1348 C 0.47994 0.36589 0.98137 0.0
C1349 C 0.50034 0.42854 0.69734 0.0
C1350 C 0.50458 0.44244 0.74148 0.0
C1351 C 0.49889 0.40965 0.71496 0.0
C1352 C 0.50224 0.4041 0.77677 0.0
C1353 C 0.5064 0.41807 0.82075 0.0
C1354 C 0.50743 0.43696 0.80347 0.0
C1355 C 0.50122 0.38392 0.79635 0.0
C1356 C 0.49063 0.37925 0.84931 0.0
C1357 C 0.51043 0.36929 0.76362 0.0
C1358 C 0.52216 0.37302 0.70805 0.0
C1359 C 0.53744 0.38542 0.71122 0.0
C1360 C 0.54801 0.38933 0.65803 0.0
C1361 C 0.54353 0.38082 0.60153 0.0
C1362 C 0.52854 0.36828 0.59817 0.0
C1363 C 0.51791 0.36433 0.6512 0.0
H1364 H 0.5517 0.38391 0.56038 0.0
H1365 H 0.44493 0.34649 0.06744 0.0
H1366 H 0.22199 0.50702 0.88683 0.0
H1367 H 0.19165 0.51156 0.83582 0.0
H1368 H 0.17348 0.45745 0.90132 0.0
H1369 H 0.20355 0.45286 0.95222 0.0
H1370 H 0.16219 0.4618 0.78682 0.0
H1371 H 0.15984 0.49916 0.97198 0.0
H1372 H 0.1702 0.5235 0.04557 0.0
H1373 H 0.16366 0.56552 0.90465 0.0
H1374 H 0.15351 0.54136 0.82991 0.0
H1375 H 0.06301 0.47028 0.78836 0.0
H1376 H 0.09589 0.46859 0.8194 0.0
H1377 H 0.10823 0.51722 0.70813 0.0
H1378 H 0.07524 0.51883 0.67584 0.0
H1379 H 0.12339 0.51764 0.83534 0.0
H1380 H 0.12267 0.47896 0.65326 0.0
H1381 H 0.11073 0.45379 0.58566 0.0
H1382 H 0.1217 0.41326 0.72827 0.0
H1383 H 0.13344 0.43824 0.79715 0.0
C1384 C 0.21156 0.49607 0.89028 0.0
C1385 C 0.21539 0.47953 0.92362 0.0
C1386 C 0.19416 0.49869 0.8611 0.0
C1387 C 0.18008 0.48493 0.86508 0.0
C1388 C 0.18405 0.46827 0.8971 0.0
C1389 C 0.2014 0.46562 0.92603 0.0
C1390 C 0.16107 0.48786 0.83724 0.0
C1391 C 0.15372 0.47399 0.79785 0.0
C1392 C 0.14998 0.50389 0.85041 0.0
C1393 C 0.15615 0.51843 0.89513 0.0
C1394 C 0.16078 0.51357 0.95652 0.0
C1395 C 0.16658 0.52733 0.99847 0.0
C1396 C 0.16765 0.54604 0.97974 0.0
C1397 C 0.16287 0.55102 0.91905 0.0
C1398 C 0.15709 0.5373 0.87687 0.0
C1399 C 0.07268 0.48063 0.77027 0.0
C1400 C 0.06643 0.49468 0.72941 0.0
C1401 C 0.09151 0.47961 0.78802 0.0
C1402 C 0.10457 0.49275 0.76605 0.0
C1403 C 0.09841 0.50692 0.72567 0.0
C1404 C 0.07956 0.50776 0.70695 0.0
C1405 C 0.12457 0.4915 0.78575 0.0
C1406 C 0.13204 0.50563 0.82372 0.0
C1407 C 0.13568 0.4756 0.77202 0.0
C1408 C 0.12879 0.46051 0.73056 0.0
C1409 C 0.12239 0.4647 0.67041 0.0
C1410 C 0.11569 0.45047 0.63182 0.0
C1411 C 0.11542 0.43194 0.65271 0.0
C1412 C 0.1219 0.42762 0.71218 0.0
C1413 C 0.1286 0.44181 0.75099 0.0
H1414 H 0.11022 0.42094 0.62276 0.0
H1415 H 0.17213 0.55667 0.0123 0.0
H1416 H 0.01125 0.77867 0.55142 0.0
H1417 H 0.0099 0.81076 0.58903 0.0
H1418 H 0.99609 0.83003 0.40501 0.0
H1419 H 0.99895 0.79811 0.36581 0.0
H1420 H 0.02071 0.85249 0.451 0.0
H1421 H 0.95949 0.83286 0.53498 0.0
H1422 H 0.9389 0.81068 0.59083 0.0
H1423 H 0.97609 0.81169 0.74743 0.0
H1424 H 0.99704 0.83344 0.69138 0.0
H1425 H 0.99062 0.94388 0.52926 0.0
H1426 H 0.99072 0.91094 0.49884 0.0
H1427 H 0.01261 0.89569 0.67823 0.0
H1428 H 0.01252 0.92876 0.70933 0.0
H1429 H 0.98449 0.87111 0.63815 0.0
H1430 H 0.04148 0.89715 0.5569 0.0
H1431 H 0.06058 0.92002 0.49892 0.0
H1432 H 0.0311 0.90646 0.33123 0.0
H1433 H 0.01161 0.88369 0.38843 0.0
C1434 C 0.00799 0.78966 0.51859 0.0
C1435 C 0.00526 0.78552 0.4552 0.0
C1436 C 0.00687 0.80812 0.5406 0.0
C1437 C 1.00252 0.823 0.50036 0.0
C1438 C 0.99939 0.8189 0.43736 0.0
C1439 C 1.00078 0.80047 0.41507 0.0
C1440 C 1.0021 0.84287 0.5232 0.0
C1441 C 0.01254 0.85656 0.49138 0.0
C1442 C 0.99193 0.84833 0.57684 0.0
C1443 C 0.97957 0.83503 0.60986 0.0
C1444 C 0.9632 0.82834 0.58137 0.0
C1445 C 0.95152 0.8158 0.61287 0.0
C1446 C 0.95611 0.80987 0.67281 0.0
C1447 C 0.97245 0.8164 0.70123 0.0
C1448 C 0.98417 0.82891 0.66981 0.0
C1449 C 0.99538 0.93357 0.56258 0.0
C1450 C 1.00164 0.93911 0.62179 0.0
C1451 C 0.99548 0.91468 0.54494 0.0
C1452 C 1.00184 0.90075 0.5859 0.0
C1453 C 0.00763 0.90612 0.6457 0.0
C1454 C 0.00764 0.92509 0.66334 0.0
C1455 C 0.00287 0.88073 0.56533 0.0
C1456 C 0.99262 0.86703 0.5977 0.0
C1457 C 0.01313 0.8753 0.51177 0.0
C1458 C 0.02497 0.88883 0.47709 0.0
C1459 C 0.03898 0.89913 0.50775 0.0
C1460 C 0.04988 0.91207 0.47501 0.0
C1461 C 0.04702 0.91472 0.41146 0.0
C1462 C 0.03328 0.9044 0.38048 0.0
C1463 C 0.02231 0.89147 0.41302 0.0
H1464 H 0.05548 0.92475 0.3862 0.0
H1465 H 0.94706 0.80016 0.69712 0.0
H1466 H 0.70283 0.99142 0.3486 0.0
H1467 H 0.67105 0.98715 0.38596 0.0
H1468 H 0.68733 0.00734 0.56674 0.0
H1469 H 0.71962 0.00936 0.53227 0.0
H1470 H 0.66298 0.9843 0.58795 0.0
H1471 H 0.66295 0.03497 0.44192 0.0
H1472 H 0.66795 0.05129 0.34223 0.0
H1473 H 0.63152 0.01223 0.25083 0.0
H1474 H 0.62647 0.99555 0.34975 0.0
H1475 H 0.57038 0.01139 0.67945 0.0
H1476 H 0.60305 0.01168 0.64549 0.0
H1477 H 0.58851 0.97805 0.48643 0.0
H1478 H 0.55574 0.97757 0.52045 0.0
H1479 H 0.6113 0.00787 0.45563 0.0
H1480 H 0.61177 0.95807 0.6101 0.0
H1481 H 0.60468 0.94597 0.71493 0.0
H1482 H 0.6391 0.98883 0.79575 0.0
H1483 H 0.64624 1.00118 0.6914 0.0
C1484 C 0.69996 0.99451 0.39685 0.0
C1485 C 0.71421 1.0011 0.43663 0.0
C1486 C 0.68144 0.99246 0.41795 0.0
C1487 C 0.67631 0.99765 0.47877 0.0
C1488 C 0.69059 0.00349 0.51929 0.0
C1489 C 0.70922 0.00495 0.49888 0.0
C1490 C 0.65619 0.99718 0.50003 0.0
C1491 C 0.65182 0.98968 0.55891 0.0
C1492 C 0.64123 0.00404 0.46283 0.0
C1493 C 0.64448 0.01391 0.40314 0.0
C1494 C 0.65613 0.02978 0.40046 0.0
C1495 C 0.65895 0.0391 0.3441 0.0
C1496 C 0.65008 0.03277 0.29025 0.0
C1497 C 0.63839 0.0171 0.29258 0.0
C1498 C 0.63554 0.00772 0.34876 0.0
C1499 C 0.57411 0.00379 0.63779 0.0
C1500 C 0.56036 0.99422 0.60335 0.0
C1501 C 0.59286 0.00402 0.61825 0.0
C1502 C 0.59837 0.99469 0.5637 0.0
C1503 C 0.58466 0.98531 0.52877 0.0
C1504 C 0.5659 0.98501 0.54843 0.0
C1505 C 0.61835 0.99494 0.54258 0.0
C1506 C 0.62261 0.00245 0.48405 0.0
C1507 C 0.63319 0.98856 0.5806 0.0
C1508 C 0.62956 0.98056 0.64303 0.0
C1509 C 0.61784 0.96487 0.65026 0.0
C1510 C 0.61379 0.95798 0.70957 0.0
C1511 C 0.62144 0.96661 0.76197 0.0
C1512 C 0.63323 0.9821 0.75515 0.0
C1513 C 0.63734 0.98902 0.69594 0.0
H1514 H 0.61822 0.9613 0.80784 0.0
H1515 H 0.65219 0.04003 0.24671 0.0
H1516 H 0.48785 0.7107 0.49903 0.0
H1517 H 0.49025 0.67933 0.54272 0.0
H1518 H 0.52926 0.66379 0.39848 0.0
H1519 H 0.52721 0.69538 0.35474 0.0
H1520 H 0.50293 0.63694 0.41528 0.0
H1521 H 0.54408 0.67202 0.54779 0.0
H1522 H 0.55287 0.69788 0.61786 0.0
H1523 H 0.50965 0.68151 0.74585 0.0
H1524 H 0.50043 0.6557 0.67611 0.0
H1525 H 0.53182 0.55084 0.54553 0.0
H1526 H 0.53121 0.58279 0.50569 0.0
H1527 H 0.49421 0.59919 0.65476 0.0
H1528 H 0.49502 0.56719 0.69576 0.0
H1529 H 0.51959 0.62573 0.63572 0.0
H1530 H 0.47806 0.59108 0.50529 0.0
H1531 H 0.46837 0.56538 0.43593 0.0
H1532 H 0.51091 0.5811 0.3046 0.0
H1533 H 0.52106 0.60672 0.37366 0.0
C1534 C 0.49728 0.70081 0.47708 0.0
C1535 C 0.50753 0.70582 0.42354 0.0
C1536 C 0.49855 0.68275 0.50211 0.0
C1537 C 0.51012 0.66916 0.47452 0.0
C1538 C 0.52025 0.674 0.42079 0.0
C1539 C 0.51903 0.69211 0.39572 0.0
C1540 C 0.51132 0.64985 0.50116 0.0
C1541 C 0.50687 0.63448 0.46321 0.0
C1542 C 0.51588 0.64658 0.5643 0.0
C1543 C 0.52146 0.66204 0.60644 0.0
C1544 C 0.53636 0.67402 0.59065 0.0
C1545 C 0.54143 0.68866 0.63035 0.0
C1546 C 0.53179 0.69137 0.6862 0.0
C1547 C 0.51709 0.67941 0.70254 0.0
C1548 C 0.51194 0.66477 0.66297 0.0
C1549 C 0.52357 0.56121 0.57016 0.0
C1550 C 0.51339 0.55631 0.62384 0.0
C1551 C 0.52317 0.57952 0.547 0.0
C1552 C 0.51238 0.59344 0.57636 0.0
C1553 C 0.50259 0.58875 0.63097 0.0
C1554 C 0.50306 0.5704 0.65442 0.0
C1555 C 0.51128 0.61278 0.54977 0.0
C1556 C 0.5157 0.62816 0.58773 0.0
C1557 C 0.50656 0.61608 0.48673 0.0
C1558 C 0.50045 0.60071 0.44497 0.0
C1559 C 0.48545 0.58897 0.46185 0.0
C1560 C 0.47986 0.57442 0.42256 0.0
C1561 C 0.48905 0.57158 0.36597 0.0
C1562 C 0.50382 0.5833 0.34849 0.0
C1563 C 0.5095 0.59784 0.38768 0.0
H1564 H 0.4847 0.56031 0.3356 0.0
H1565 H 0.53574 0.7027 0.71687 0.0
H1566 H 0.805 0.46448 0.46471 0.0
H1567 H 0.83555 0.46842 0.51303 0.0
H1568 H 0.82811 0.52837 0.51208 0.0
H1569 H 0.79732 0.5245 0.46336 0.0
H1570 H 0.86142 0.521 0.47358 0.0
H1571 H 0.82712 0.50254 0.65014 0.0
H1572 H 0.80531 0.48395 0.71407 0.0
H1573 H 0.84103 0.43585 0.69557 0.0
H1574 H 0.86291 0.45405 0.6306 0.0
H1575 H 0.94123 0.50426 0.72225 0.0
H1576 H 0.90785 0.50518 0.69603 0.0
H1577 H 0.92182 0.49728 0.50263 0.0
H1578 H 0.9551 0.49697 0.52868 0.0
H1579 H 0.88361 0.48313 0.65201 0.0
H1580 H 0.89174 0.51714 0.4067 0.0
H1581 H 0.91228 0.53996 0.35406 0.0
H1582 H 0.92652 0.56444 0.52987 0.0
H1583 H 0.90588 0.54195 0.5835 0.0
C1584 C 0.80961 0.47853 0.47588 0.0
C1585 C 0.7985 0.49417 0.4604 0.0
C1586 C 0.82719 0.48076 0.50364 0.0
C1587 C 0.83418 0.49869 0.51723 0.0
C1588 C 0.8231 0.51436 0.50225 0.0
C1589 C 0.80548 0.51214 0.4742 0.0
C1590 C 0.85347 0.50095 0.54347 0.0
C1591 C 0.86621 0.51276 0.51274 0.0
C1592 C 0.85974 0.49073 0.59598 0.0
C1593 C 0.84658 0.47964 0.63489 0.0
C1594 C 0.83024 0.48794 0.65914 0.0
C1595 C 0.81785 0.47747 0.69558 0.0
C1596 C 0.82174 0.45871 0.7087 0.0
C1597 C 0.838 0.45037 0.68524 0.0
C1598 C 0.85041 0.46077 0.6486 0.0
C1599 C 0.93714 0.5027 0.67421 0.0
C1600 C 0.95084 0.50064 0.6276 0.0
C1601 C 0.91802 0.50325 0.65915 0.0
C1602 C 0.91213 0.50168 0.59703 0.0
C1603 C 0.92585 0.49911 0.55069 0.0
C1604 C 0.94495 0.49885 0.56566 0.0
C1605 C 0.89174 0.50261 0.58038 0.0
C1606 C 0.8788 0.49145 0.61302 0.0
C1607 C 0.88508 0.514 0.53114 0.0
C1608 C 0.89737 0.52774 0.49913 0.0
C1609 C 0.89918 0.52745 0.4341 0.0
C1610 C 0.91086 0.54032 0.4041 0.0
C1611 C 0.92074 0.55361 0.43861 0.0
C1612 C 0.91891 0.5541 0.5032 0.0
C1613 C 0.90724 0.54128 0.53343 0.0
H1614 H 0.92979 0.56354 0.41529 0.0
H1615 H 0.81221 0.45067 0.73735 0.0
loop_
_geom_bond_atom_site_label_1
_geom_bond_atom_site_label_2
_geom_bond_distance
_geom_bond_site_symmetry_2
_ccdc_geom_bond_type
P0 O11 1.490 . S
P0 C14 1.812 . S
P0 C20 1.803 . S
P0 C26 1.819 . S
H1 C15 0.941 . S
H2 C16 0.939 . S
H3 C18 0.940 . S
H4 C19 0.940 . S
H5 C21 0.939 . S
H6 C22 0.942 . S
H7 C24 0.940 . S
H8 C25 0.939 . S
H9 C27 0.941 . S
H10 C31 0.939 . S
O11 P0 1.490 . S
H12 C28 0.939 . S
H13 C30 0.940 . S
C14 P0 1.812 . S
C14 C15 1.389 . S
C14 C19 1.391 . S
C15 H1 0.941 . S
C15 C14 1.389 . S
C15 C16 1.397 . S
C16 H2 0.939 . S
C16 C15 1.397 . S
C16 C17 1.378 . S
C17 C16 1.378 . S
C17 C18 1.378 . S
C18 H3 0.940 . S
C18 C17 1.378 . S
C18 C19 1.396 . S
C19 H4 0.940 . S
C19 C14 1.391 . S
C19 C18 1.396 . S
C20 P0 1.803 . S
C20 C21 1.378 . S
C20 C25 1.400 . S
C21 H5 0.939 . S
C21 C20 1.378 . S
C21 C22 1.361 . S
C22 H6 0.942 . S
C22 C21 1.361 . S
C22 C23 1.369 . S
C23 C22 1.369 . S
C23 C24 1.404 . S
C24 H7 0.940 . S
C24 C23 1.404 . S
C24 C25 1.389 . S
C25 H8 0.939 . S
C25 C20 1.400 . S
C25 C24 1.389 . S
C26 P0 1.819 . S
C26 C27 1.391 . S
C26 C31 1.391 . S
C27 H9 0.941 . S
C27 C26 1.391 . S
C27 C28 1.396 . S
C28 H12 0.939 . S
C28 C27 1.396 . S
C28 C29 1.397 . S
C29 C28 1.397 . S
C29 C30 1.385 . S
C30 H13 0.940 . S
C30 C29 1.385 . S
C30 C31 1.388 . S
C31 H10 0.939 . S
C31 C26 1.391 . S
C31 C30 1.388 . S
P32 O43 1.490 . S
P32 C46 1.812 . S
P32 C52 1.803 . S
P32 C58 1.819 . S
H33 C47 0.941 . S
H34 C48 0.939 . S
H35 C50 0.940 . S
H36 C51 0.940 . S
H37 C53 0.939 . S
H38 C54 0.942 . S
H39 C56 0.940 . S
H40 C57 0.939 . S
H41 C59 0.941 . S
H42 C63 0.939 1_655 S
O43 P32 1.490 . S
H44 C60 0.939 . S
H45 C62 0.940 . S
C46 P32 1.812 . S
C46 C47 1.389 . S
C46 C51 1.391 1_455 S
C47 H33 0.941 . S
C47 C46 1.389 . S
C47 C48 1.397 . S
C48 H34 0.939 . S
C48 C47 1.397 . S
C48 C49 1.378 . S
C49 C48 1.378 . S
C49 C50 1.378 1_455 S
C50 H35 0.940 . S
C50 C49 1.378 1_655 S
C50 C51 1.396 . S
C51 H36 0.940 . S
C51 C46 1.391 1_655 S
C51 C50 1.396 . S
C52 P32 1.803 . S
C52 C53 1.378 . S
C52 C57 1.400 1_455 S
C53 H37 0.939 . S
C53 C52 1.378 . S
C53 C54 1.361 . S
C54 H38 0.942 . S
C54 C53 1.361 . S
C54 C55 1.369 . S
C55 C54 1.369 . S
C55 C56 1.404 1_455 S
C56 H39 0.940 . S
C56 C55 1.404 1_655 S
C56 C57 1.389 . S
C57 H40 0.939 . S
C57 C52 1.400 1_655 S
C57 C56 1.389 . S
C58 P32 1.819 . S
C58 C59 1.391 . S
C58 C63 1.391 . S
C59 H41 0.941 . S
C59 C58 1.391 . S
C59 C60 1.396 . S
C60 H44 0.939 . S
C60 C59 1.396 . S
C60 C61 1.397 . S
C61 C60 1.397 . S
C61 C62 1.385 1_455 S
C62 H45 0.940 . S
C62 C61 1.385 1_655 S
C62 C63 1.388 1_655 S
C63 H42 0.939 1_455 S
C63 C58 1.391 . S
C63 C62 1.388 1_455 S
P64 O75 1.490 . S
P64 C78 1.812 . S
P64 C84 1.803 . S
P64 C90 1.819 . S
H65 C79 0.941 . S
H66 C80 0.939 . S
H67 C82 0.940 . S
H68 C83 0.950 . S
H69 C85 0.939 . S
H70 C86 0.942 . S
H71 C88 0.940 . S
H72 C89 0.959 . S
H73 C91 0.941 . S
H74 C95 0.929 1_565 S
O75 P64 1.490 . S
H76 C92 0.939 . S
H77 C94 0.940 . S
C78 P64 1.812 . S
C78 C79 1.389 . S
C78 C83 1.375 1_545 S
C79 H65 0.941 . S
C79 C78 1.389 . S
C79 C80 1.397 . S
C80 H66 0.939 . S
C80 C79 1.397 . S
C80 C81 1.378 . S
C81 C80 1.378 . S
C81 C82 1.378 1_545 S
C82 H67 0.940 . S
C82 C81 1.378 1_565 S
C82 C83 1.403 . S
C83 H68 0.950 . S
C83 C78 1.375 1_565 S
C83 C82 1.403 . S
C84 P64 1.803 . S
C84 C85 1.378 . S
C84 C89 1.368 1_545 S
C85 H69 0.939 . S
C85 C84 1.378 . S
C85 C86 1.361 . S
C86 H70 0.942 . S
C86 C85 1.361 . S
C86 C87 1.369 . S
C87 C86 1.369 . S
C87 C88 1.404 1_545 S
C88 H71 0.940 . S
C88 C87 1.404 1_565 S
C88 C89 1.402 . S
C89 H72 0.959 . S
C89 C84 1.368 1_565 S
C89 C88 1.402 . S
C90 P64 1.819 . S
C90 C91 1.391 . S
C90 C95 1.391 . S
C91 H73 0.941 . S
C91 C90 1.391 . S
C91 C92 1.396 . S
C92 H76 0.939 . S
C92 C91 1.396 . S
C92 C93 1.397 . S
C93 C92 1.397 . S
C93 C94 1.385 1_545 S
C94 H77 0.940 . S
C94 C93 1.385 1_565 S
C94 C95 1.388 1_565 S
C95 H74 0.929 1_545 S
C95 C90 1.391 . S
C95 C94 1.388 1_545 S
P96 O107 1.490 . S
P96 C110 1.812 . S
P96 C116 1.803 . S
P96 C122 1.819 . S
H97 C111 0.941 . S
H98 C112 0.939 . S
H99 C114 0.940 . S
H100 C115 0.940 . S
H101 C117 0.939 . S
H102 C118 0.942 . S
H103 C120 0.940 . S
H104 C121 0.939 . S
H105 C123 0.941 . S
H106 C127 0.939 . S
O107 P96 1.490 . S
H108 C124 0.939 . S
H109 C126 0.940 . S
C110 P96 1.812 . S
C110 C111 1.389 . S
C110 C115 1.391 . S
C111 H97 0.941 . S
C111 C110 1.389 . S
C111 C112 1.397 . S
C112 H98 0.939 . S
C112 C111 1.397 . S
C112 C113 1.378 . S
C113 C112 1.378 . S
C113 C114 1.378 . S
C114 H99 0.940 . S
C114 C113 1.378 . S
C114 C115 1.396 . S
C115 H100 0.940 . S
C115 C110 1.391 . S
C115 C114 1.396 . S
C116 P96 1.803 . S
C116 C117 1.378 . S
C116 C121 1.400 . S
C117 H101 0.939 . S
C117 C116 1.378 . S
C117 C118 1.361 . S
C118 H102 0.942 . S
C118 C117 1.361 . S
C118 C119 1.369 . S
C119 C118 1.369 . S
C119 C120 1.404 . S
C120 H103 0.940 . S
C120 C119 1.404 . S
C120 C121 1.389 . S
C121 H104 0.939 . S
C121 C116 1.400 . S
C121 C120 1.389 . S
C122 P96 1.819 . S
C122 C123 1.391 . S
C122 C127 1.391 . S
C123 H105 0.941 . S
C123 C122 1.391 . S
C123 C124 1.396 . S
C124 H108 0.939 . S
C124 C123 1.396 . S
C124 C125 1.397 . S
C125 C124 1.397 . S
C125 C126 1.385 . S
C126 H109 0.940 . S
C126 C125 1.385 . S
C126 C127 1.388 . S
C127 H106 0.939 . S
C127 C122 1.391 . S
C127 C126 1.388 . S
P128 O139 1.490 . S
P128 C142 1.812 1_554 S
P128 C148 1.803 . S
P128 C154 1.819 . S
H129 C143 0.941 . S
H130 C144 0.939 . S
H131 C146 0.940 . S
H132 C147 0.940 . S
H133 C149 0.939 . S
H134 C150 0.942 . S
H135 C152 0.940 . S
H136 C153 0.939 . S
H137 C155 0.941 . S
H138 C159 0.939 . S
O139 P128 1.490 . S
H140 C156 0.939 . S
H141 C158 0.940 . S
C142 P128 1.812 1_556 S
C142 C143 1.389 . S
C142 C147 1.391 . S
C143 H129 0.941 . S
C143 C142 1.389 . S
C143 C144 1.397 . S
C144 H130 0.939 . S
C144 C143 1.397 . S
C144 C145 1.378 . S
C145 C144 1.378 . S
C145 C146 1.378 . S
C146 H131 0.940 . S
C146 C145 1.378 . S
C146 C147 1.396 . S
C147 H132 0.940 . S
C147 C142 1.391 . S
C147 C146 1.396 . S
C148 P128 1.803 . S
C148 C149 1.378 . S
C148 C153 1.400 . S
C149 H133 0.939 . S
C149 C148 1.378 . S
C149 C150 1.361 . S
C150 H134 0.942 . S
C150 C149 1.361 . S
C150 C151 1.369 . S
C151 C150 1.369 . S
C151 C152 1.404 . S
C152 H135 0.940 . S
C152 C151 1.404 . S
C152 C153 1.389 . S
C153 H136 0.939 . S
C153 C148 1.400 . S
C153 C152 1.389 . S
C154 P128 1.819 . S
C154 C155 1.391 . S
C154 C159 1.391 . S
C155 H137 0.941 . S
C155 C154 1.391 . S
C155 C156 1.396 . S
C156 H140 0.939 . S
C156 C155 1.396 . S
C156 C157 1.397 . S
C157 C156 1.397 . S
C157 C158 1.385 . S
C158 H141 0.940 . S
C158 C157 1.385 . S
C158 C159 1.388 . S
C159 H138 0.939 . S
C159 C154 1.391 . S
C159 C158 1.388 . S
P160 O171 1.490 . S
P160 C174 1.812 1_554 S
P160 C180 1.803 . S
P160 C186 1.819 . S
H161 C175 0.941 . S
H162 C176 0.939 . S
H163 C178 0.940 . S
H164 C179 0.940 1_655 S
H165 C181 0.939 . S
H166 C182 0.942 . S
H167 C184 0.940 . S
H168 C185 0.939 1_655 S
H169 C187 0.941 . S
H170 C191 0.939 . S
O171 P160 1.490 . S
H172 C188 0.939 . S
H173 C190 0.968 . S
C174 P160 1.812 1_556 S
C174 C175 1.389 . S
C174 C179 1.391 . S
C175 H161 0.941 . S
C175 C174 1.389 . S
C175 C176 1.397 . S
C176 H162 0.939 . S
C176 C175 1.397 . S
C176 C177 1.378 . S
C177 C176 1.378 . S
C177 C178 1.378 1_455 S
C178 H163 0.940 . S
C178 C177 1.378 1_655 S
C178 C179 1.396 1_655 S
C179 H164 0.940 1_455 S
C179 C174 1.391 . S
C179 C178 1.396 1_455 S
C180 P160 1.803 . S
C180 C181 1.378 . S
C180 C185 1.400 . S
C181 H165 0.939 . S
C181 C180 1.378 . S
C181 C182 1.361 . S
C182 H166 0.942 . S
C182 C181 1.361 . S
C182 C183 1.369 . S
C183 C182 1.369 . S
C183 C184 1.404 1_455 S
C184 H167 0.940 . S
C184 C183 1.404 1_655 S
C184 C185 1.389 1_655 S
C185 H168 0.939 1_455 S
C185 C180 1.400 . S
C185 C184 1.389 1_455 S
C186 P160 1.819 . S
C186 C187 1.391 . S
C186 C191 1.391 . S
C187 H169 0.941 . S
C187 C186 1.391 . S
C187 C188 1.396 . S
C188 H172 0.939 . S
C188 C187 1.396 . S
C188 C189 1.397 . S
C189 C188 1.397 . S
C189 C190 1.371 1_455 S
C190 H173 0.968 . S
C190 C189 1.371 1_655 S
C190 C191 1.375 1_655 S
C191 H170 0.939 . S
C191 C186 1.391 . S
C191 C190 1.375 1_455 S
P192 O203 1.490 . S
P192 C206 1.812 1_554 S
P192 C212 1.803 . S
P192 C218 1.819 . S
H193 C207 0.941 . S
H194 C208 0.939 . S
H195 C210 0.940 . S
H196 C211 0.942 . S
H197 C213 0.939 . S
H198 C214 0.942 . S
H199 C216 0.940 . S
H200 C217 0.951 . S
H201 C219 0.941 . S
H202 C223 0.934 1_565 S
O203 P192 1.490 . S
H204 C220 0.939 . S
H205 C222 0.940 . S
C206 P192 1.812 1_556 S
C206 C207 1.389 . S
C206 C211 1.388 1_545 S
C207 H193 0.941 . S
C207 C206 1.389 . S
C207 C208 1.397 . S
C208 H194 0.939 . S
C208 C207 1.397 . S
C208 C209 1.378 . S
C209 C208 1.378 . S
C209 C210 1.378 1_545 S
C210 H195 0.940 . S
C210 C209 1.378 1_565 S
C210 C211 1.398 . S
C211 H196 0.942 . S
C211 C206 1.388 1_565 S
C211 C210 1.398 . S
C212 P192 1.803 . S
C212 C213 1.378 . S
C212 C217 1.381 1_545 S
C213 H197 0.939 . S
C213 C212 1.378 . S
C213 C214 1.361 . S
C214 H198 0.942 . S
C214 C213 1.361 . S
C214 C215 1.369 . S
C215 C214 1.369 . S
C215 C216 1.404 1_545 S
C216 H199 0.940 . S
C216 C215 1.404 1_565 S
C216 C217 1.396 . S
C217 H200 0.951 . S
C217 C212 1.381 1_565 S
C217 C216 1.396 . S
C218 P192 1.819 . S
C218 C219 1.391 . S
C218 C223 1.391 . S
C219 H201 0.941 . S
C219 C218 1.391 . S
C219 C220 1.396 . S
C220 H204 0.939 . S
C220 C219 1.396 . S
C220 C221 1.397 . S
C221 C220 1.397 . S
C221 C222 1.385 1_545 S
C222 H205 0.940 . S
C222 C221 1.385 1_565 S
C222 C223 1.388 1_565 S
C223 H202 0.934 1_545 S
C223 C218 1.391 . S
C223 C222 1.388 1_545 S
P224 O235 1.490 . S
P224 C238 1.812 1_554 S
P224 C244 1.803 . S
P224 C250 1.819 . S
H225 C239 0.941 . S
H226 C240 0.939 . S
H227 C242 0.940 . S
H228 C243 0.940 . S
H229 C245 0.939 . S
H230 C246 0.942 . S
H231 C248 0.940 . S
H232 C249 0.939 . S
H233 C251 0.941 . S
H234 C255 0.939 . S
O235 P224 1.490 . S
H236 C252 0.939 . S
H237 C254 0.940 . S
C238 P224 1.812 1_556 S
C238 C239 1.389 . S
C238 C243 1.391 . S
C239 H225 0.941 . S
C239 C238 1.389 . S
C239 C240 1.397 . S
C240 H226 0.939 . S
C240 C239 1.397 . S
C240 C241 1.378 . S
C241 C240 1.378 . S
C241 C242 1.378 . S
C242 H227 0.940 . S
C242 C241 1.378 . S
C242 C243 1.396 . S
C243 H228 0.940 . S
C243 C238 1.391 . S
C243 C242 1.396 . S
C244 P224 1.803 . S
C244 C245 1.378 . S
C244 C249 1.400 . S
C245 H229 0.939 . S
C245 C244 1.378 . S
C245 C246 1.361 . S
C246 H230 0.942 . S
C246 C245 1.361 . S
C246 C247 1.369 . S
C247 C246 1.369 . S
C247 C248 1.404 . S
C248 H231 0.940 . S
C248 C247 1.404 . S
C248 C249 1.389 . S
C249 H232 0.939 . S
C249 C244 1.400 . S
C249 C248 1.389 . S
C250 P224 1.819 . S
C250 C251 1.391 . S
C250 C255 1.391 . S
C251 H233 0.941 . S
C251 C250 1.391 . S
C251 C252 1.396 . S
C252 H236 0.939 . S
C252 C251 1.396 . S
C252 C253 1.397 . S
C253 C252 1.397 . S
C253 C254 1.385 . S
C254 H237 0.940 . S
C254 C253 1.385 . S
C254 C255 1.388 . S
C255 H234 0.939 . S
C255 C250 1.391 . S
C255 C254 1.388 . S
La256 C258 2.928 . S
La256 O276 2.521 . S
La256 O277 2.628 . S
La256 O278 2.554 . S
La256 O279 2.757 1_565 S
La256 O280 2.470 . S
La256 O285 2.482 1_455 S
La256 O287 2.503 1_565 S
La257 C267 2.928 . S
La257 O279 2.482 1_655 S
La257 O281 2.503 1_545 S
La257 O282 2.521 . S
La257 O283 2.628 . S
La257 O284 2.554 . S
La257 O285 2.757 1_545 S
La257 O286 2.470 . S
C258 La256 2.928 . S
C258 C259 1.503 . S
C258 O276 1.261 . S
C258 O277 1.243 . S
C259 C258 1.503 . S
C259 C260 1.394 . S
C259 C264 1.373 . S
C260 C259 1.394 . S
C260 C261 1.380 . S
C260 H288 0.930 . S
C261 C260 1.380 . S
C261 C262 1.376 . S
C261 H289 0.930 . S
C262 C261 1.376 . S
C262 C263 1.370 . S
C263 C262 1.370 . S
C263 C264 1.396 . S
C263 H290 0.929 1_455 S
C264 C259 1.373 . S
C264 C263 1.396 . S
C264 H291 0.929 1_455 S
C265 O278 1.271 . S
C265 O279 1.271 1_565 S
C266 O280 1.258 1_655 S
C266 O281 1.256 . S
C267 La257 2.928 . S
C267 C268 1.503 . S
C267 O282 1.261 . S
C267 O283 1.243 . S
C268 C267 1.503 . S
C268 C269 1.394 . S
C268 C273 1.373 . S
C269 C268 1.394 . S
C269 C270 1.380 . S
C269 H292 0.930 . S
C270 C269 1.380 . S
C270 C271 1.376 . S
C270 H293 0.930 . S
C271 C270 1.376 . S
C271 C272 1.370 . S
C272 C271 1.370 . S
C272 C273 1.396 . S
C272 H294 0.929 1_655 S
C273 C268 1.373 . S
C273 C272 1.396 . S
C273 H295 0.929 1_655 S
C274 O284 1.240 . S
C274 O285 1.289 1_545 S
C275 O286 1.258 1_455 S
C275 O287 1.256 . S
O276 La256 2.521 . S
O276 C258 1.261 . S
O277 La256 2.628 . S
O277 C258 1.243 . S
O278 La256 2.554 . S
O278 C265 1.271 . S
O279 La256 2.757 1_545 S
O279 La257 2.482 1_455 S
O279 C265 1.271 1_545 S
O280 La256 2.470 . S
O280 C266 1.258 1_455 S
O281 La257 2.503 1_565 S
O281 C266 1.256 . S
O282 La257 2.521 . S
O282 C267 1.261 . S
O283 La257 2.628 . S
O283 C267 1.243 . S
O284 La257 2.554 . S
O284 C274 1.240 . S
O285 La256 2.482 1_655 S
O285 La257 2.757 1_565 S
O285 C274 1.289 1_565 S
O286 La257 2.470 . S
O286 C275 1.258 1_655 S
O287 La256 2.503 1_545 S
O287 C275 1.256 . S
H288 C260 0.930 . S
H289 C261 0.930 . S
H290 C263 0.929 1_655 S
H291 C264 0.929 1_655 S
H292 C269 0.930 . S
H293 C270 0.930 . S
H294 C272 0.929 1_455 S
H295 C273 0.929 1_455 S
La296 C298 2.928 . S
La296 O316 2.521 . S
La296 O317 2.628 . S
La296 O318 2.554 . S
La296 O319 2.757 . S
La296 O320 2.470 . S
La296 O325 2.482 1_545 S
La296 O327 2.503 . S
La297 C307 2.928 . S
La297 O319 2.482 1_565 S
La297 O321 2.503 . S
La297 O322 2.521 . S
La297 O323 2.628 . S
La297 O324 2.554 . S
La297 O325 2.757 . S
La297 O326 2.470 . S
C298 La296 2.928 . S
C298 C299 1.503 . S
C298 O316 1.261 . S
C298 O317 1.243 . S
C299 C298 1.503 . S
C299 C300 1.394 . S
C299 C304 1.373 . S
C300 C299 1.394 . S
C300 C301 1.380 . S
C300 H328 0.930 . S
C301 C300 1.380 . S
C301 C302 1.376 . S
C301 H329 0.930 . S
C302 C301 1.376 . S
C302 C303 1.370 . S
C303 C302 1.370 . S
C303 C304 1.396 . S
C303 H330 0.929 1_545 S
C304 C299 1.373 . S
C304 C303 1.396 . S
C304 H331 0.929 1_545 S
C305 O318 1.240 . S
C305 O319 1.289 . S
C306 O320 1.258 1_565 S
C306 O321 1.256 . S
C307 La297 2.928 . S
C307 C308 1.503 . S
C307 O322 1.261 . S
C307 O323 1.243 . S
C308 C307 1.503 . S
C308 C309 1.394 . S
C308 C313 1.373 . S
C309 C308 1.394 . S
C309 C310 1.380 . S
C309 H332 0.930 . S
C310 C309 1.380 . S
C310 C311 1.376 . S
C310 H333 0.930 . S
C311 C310 1.376 . S
C311 C312 1.370 . S
C312 C311 1.370 . S
C312 C313 1.396 . S
C312 H334 0.929 1_565 S
C313 C308 1.373 . S
C313 C312 1.396 . S
C313 H335 0.929 1_565 S
C314 O324 1.240 . S
C314 O325 1.289 . S
C315 O326 1.258 1_545 S
C315 O327 1.256 . S
O316 La296 2.521 . S
O316 C298 1.261 . S
O317 La296 2.628 . S
O317 C298 1.243 . S
O318 La296 2.554 . S
O318 C305 1.240 . S
O319 La296 2.757 . S
O319 La297 2.482 1_545 S
O319 C305 1.289 . S
O320 La296 2.470 . S
O320 C306 1.258 1_545 S
O321 La297 2.503 . S
O321 C306 1.256 . S
O322 La297 2.521 . S
O322 C307 1.261 . S
O323 La297 2.628 . S
O323 C307 1.243 . S
O324 La297 2.554 . S
O324 C314 1.240 . S
O325 La296 2.482 1_565 S
O325 La297 2.757 . S
O325 C314 1.289 . S
O326 La297 2.470 . S
O326 C315 1.258 1_565 S
O327 La296 2.503 . S
O327 C315 1.256 . S
H328 C300 0.930 . S
H329 C301 0.930 . S
H330 C303 0.929 1_565 S
H331 C304 0.929 1_565 S
H332 C309 0.930 . S
H333 C310 0.930 . S
H334 C312 0.929 1_545 S
H335 C313 0.929 1_545 S
La336 C338 2.928 . S
La336 O356 2.521 . S
La336 O357 2.628 . S
La336 O358 2.554 . S
La336 O359 2.757 . S
La336 O360 2.470 . S
La336 O365 2.482 . S
La336 O367 2.503 . S
La337 C347 2.928 . S
La337 O359 2.482 . S
La337 O361 2.503 . S
La337 O362 2.521 . S
La337 O363 2.628 . S
La337 O364 2.554 . S
La337 O365 2.757 . S
La337 O366 2.470 . S
C338 La336 2.928 . S
C338 C339 1.503 . S
C338 O356 1.261 . S
C338 O357 1.243 . S
C339 C338 1.503 . S
C339 C340 1.394 . S
C339 C344 1.373 . S
C340 C339 1.394 . S
C340 C341 1.380 . S
C340 H368 0.930 . S
C341 C340 1.380 . S
C341 C342 1.376 . S
C341 H369 0.930 . S
C342 C341 1.376 . S
C342 C343 1.370 . S
C343 C342 1.370 . S
C343 C344 1.396 . S
C343 H370 0.929 . S
C344 C339 1.373 . S
C344 C343 1.396 . S
C344 H371 0.929 . S
C345 O358 1.240 . S
C345 O359 1.289 . S
C346 O360 1.258 . S
C346 O361 1.256 . S
C347 La337 2.928 . S
C347 C348 1.503 . S
C347 O362 1.261 . S
C347 O363 1.243 . S
C348 C347 1.503 . S
C348 C349 1.394 . S
C348 C353 1.373 . S
C349 C348 1.394 . S
C349 C350 1.380 . S
C349 H372 0.930 . S
C350 C349 1.380 . S
C350 C351 1.376 . S
C350 H373 0.930 . S
C351 C350 1.376 . S
C351 C352 1.370 . S
C352 C351 1.370 . S
C352 C353 1.396 . S
C352 H374 0.929 . S
C353 C348 1.373 . S
C353 C352 1.396 . S
C353 H375 0.929 . S
C354 O364 1.240 . S
C354 O365 1.289 . S
C355 O366 1.258 . S
C355 O367 1.256 . S
O356 La336 2.521 . S
O356 C338 1.261 . S
O357 La336 2.628 . S
O357 C338 1.243 . S
O358 La336 2.554 . S
O358 C345 1.240 . S
O359 La336 2.757 . S
O359 La337 2.482 . S
O359 C345 1.289 . S
O360 La336 2.470 . S
O360 C346 1.258 . S
O361 La337 2.503 . S
O361 C346 1.256 . S
O362 La337 2.521 . S
O362 C347 1.261 . S
O363 La337 2.628 . S
O363 C347 1.243 . S
O364 La337 2.554 . S
O364 C354 1.240 . S
O365 La336 2.482 . S
O365 La337 2.757 . S
O365 C354 1.289 . S
O366 La337 2.470 . S
O366 C355 1.258 . S
O367 La336 2.503 . S
O367 C355 1.256 . S
H368 C340 0.930 . S
H369 C341 0.930 . S
H370 C343 0.929 . S
H371 C344 0.929 . S
H372 C349 0.930 . S
H373 C350 0.930 . S
H374 C352 0.929 . S
H375 C353 0.929 . S
La376 C378 2.928 . S
La376 O396 2.521 . S
La376 O397 2.628 . S
La376 O398 2.554 . S
La376 O399 2.757 1_655 S
La376 O400 2.470 . S
La376 O405 2.482 . S
La376 O407 2.503 1_655 S
La377 C387 2.928 . S
La377 O399 2.482 . S
La377 O401 2.503 1_455 S
La377 O402 2.521 . S
La377 O403 2.628 . S
La377 O404 2.554 . S
La377 O405 2.757 1_455 S
La377 O406 2.470 . S
C378 La376 2.928 . S
C378 C379 1.503 . S
C378 O396 1.261 . S
C378 O397 1.243 . S
C379 C378 1.503 . S
C379 C380 1.394 . S
C379 C384 1.373 . S
C380 C379 1.394 . S
C380 C381 1.380 . S
C380 H408 0.930 . S
C381 C380 1.380 . S
C381 C382 1.376 . S
C381 H409 0.930 . S
C382 C381 1.376 . S
C382 C383 1.370 . S
C383 C382 1.370 . S
C383 C384 1.396 . S
C383 H410 0.929 . S
C384 C379 1.373 . S
C384 C383 1.396 . S
C384 H411 0.929 . S
C385 O398 1.258 . S
C385 O399 1.279 1_655 S
C386 O400 1.258 . S
C386 O401 1.256 . S
C387 La377 2.928 . S
C387 C388 1.503 . S
C387 O402 1.261 . S
C387 O403 1.243 . S
C388 C387 1.503 . S
C388 C389 1.394 . S
C388 C393 1.373 . S
C389 C388 1.394 . S
C389 C390 1.380 . S
C389 H412 0.930 . S
C390 C389 1.380 . S
C390 C391 1.376 . S
C390 H413 0.930 . S
C391 C390 1.376 . S
C391 C392 1.370 . S
C392 C391 1.370 . S
C392 C393 1.396 . S
C392 H414 0.929 . S
C393 C388 1.373 . S
C393 C392 1.396 . S
C393 H415 0.929 . S
C394 O404 1.266 . S
C394 O405 1.275 1_455 S
C395 O406 1.258 . S
C395 O407 1.256 . S
O396 La376 2.521 . S
O396 C378 1.261 . S
O397 La376 2.628 . S
O397 C378 1.243 . S
O398 La376 2.554 . S
O398 C385 1.258 . S
O399 La376 2.757 1_455 S
O399 La377 2.482 . S
O399 C385 1.279 1_455 S
O400 La376 2.470 . S
O400 C386 1.258 . S
O401 La377 2.503 1_655 S
O401 C386 1.256 . S
O402 La377 2.521 . S
O402 C387 1.261 . S
O403 La377 2.628 . S
O403 C387 1.243 . S
O404 La377 2.554 . S
O404 C394 1.266 . S
O405 La376 2.482 . S
O405 La377 2.757 1_655 S
O405 C394 1.275 1_655 S
O406 La377 2.470 . S
O406 C395 1.258 . S
O407 La376 2.503 1_455 S
O407 C395 1.256 . S
H408 C380 0.930 . S
H409 C381 0.930 . S
H410 C383 0.929 . S
H411 C384 0.929 . S
H412 C389 0.930 . S
H413 C390 0.930 . S
H414 C392 0.929 . S
H415 C393 0.929 . S
H416 C434 0.951 . S
H417 C436 0.951 . S
H418 C438 0.950 . S
H419 C439 0.950 . S
H420 C441 0.950 . S
H421 C444 0.950 . S
H422 C445 0.950 . S
H423 C447 0.950 . S
H424 C448 0.950 . S
H425 C449 0.951 . S
H426 C451 0.951 . S
H427 C453 0.950 . S
H428 C454 0.950 . S
H429 C456 0.950 . S
H430 C459 0.950 . S
H431 C460 0.950 . S
H432 C462 0.950 . S
H433 C463 0.950 . S
C434 H416 0.951 . S
C434 C435 1.365 1_565 S
C434 C436 1.388 . S
C435 C434 1.365 1_545 S
C435 C439 1.385 . S
C436 H417 0.951 . S
C436 C434 1.388 . S
C436 C437 1.368 . S
C437 C436 1.368 . S
C437 C438 1.411 1_565 S
C437 C440 1.499 . S
C438 H418 0.950 . S
C438 C437 1.411 1_545 S
C438 C439 1.374 . S
C439 H419 0.950 . S
C439 C435 1.385 . S
C439 C438 1.374 . S
C440 C437 1.499 . S
C440 C441 1.354 1_565 S
C440 C442 1.407 . S
C441 H420 0.950 . S
C441 C440 1.354 1_545 S
C441 C457 1.377 . S
C442 C440 1.407 . S
C442 C443 1.524 . S
C442 C456 1.377 . S
C443 C442 1.524 . S
C443 C444 1.397 . S
C443 C448 1.363 . S
C444 H421 0.950 . S
C444 C443 1.397 . S
C444 C445 1.334 . S
C445 H422 0.950 . S
C445 C444 1.334 . S
C445 C446 1.287 . S
C446 C445 1.287 . S
C446 C447 1.524 . S
C446 H465 0.913 . S
C447 H423 0.950 . S
C447 C446 1.524 . S
C447 C448 1.415 . S
C448 H424 0.950 . S
C448 C443 1.363 . S
C448 C447 1.415 . S
C449 H425 0.951 . S
C449 C450 1.366 . S
C449 C451 1.388 . S
C450 C449 1.366 . S
C450 C454 1.384 1_545 S
C451 H426 0.951 . S
C451 C449 1.388 . S
C451 C452 1.366 . S
C452 C451 1.366 . S
C452 C453 1.414 1_545 S
C452 C455 1.499 . S
C453 H427 0.950 . S
C453 C452 1.414 1_565 S
C453 C454 1.374 . S
C454 H428 0.950 . S
C454 C450 1.384 1_565 S
C454 C453 1.374 . S
C455 C452 1.499 . S
C455 C456 1.373 1_545 S
C455 C457 1.389 . S
C456 H429 0.950 . S
C456 C442 1.377 . S
C456 C455 1.373 1_565 S
C457 C441 1.377 . S
C457 C455 1.389 . S
C457 C458 1.524 . S
C458 C457 1.524 . S
C458 C459 1.397 . S
C458 C463 1.363 . S
C459 H430 0.950 . S
C459 C458 1.397 . S
C459 C460 1.334 . S
C460 H431 0.950 . S
C460 C459 1.334 . S
C460 C461 1.287 . S
C461 C460 1.287 . S
C461 C462 1.524 . S
C461 H464 0.999 . S
C462 H432 0.950 . S
C462 C461 1.524 . S
C462 C463 1.415 . S
C463 H433 0.950 . S
C463 C458 1.363 . S
C463 C462 1.415 . S
H464 C461 0.999 . S
H465 C446 0.913 . S
H466 C484 0.951 . S
H467 C486 0.951 . S
H468 C488 0.950 . S
H469 C489 0.950 . S
H470 C491 0.950 . S
H471 C494 0.950 . S
H472 C495 0.950 . S
H473 C497 0.950 . S
H474 C498 0.950 . S
H475 C499 0.951 . S
H476 C501 0.951 . S
H477 C503 0.950 . S
H478 C504 0.950 . S
H479 C506 0.950 . S
H480 C509 0.950 . S
H481 C510 0.950 . S
H482 C512 0.950 . S
H483 C513 0.950 . S
C484 H466 0.951 . S
C484 C485 1.366 . S
C484 C486 1.388 . S
C485 C484 1.366 . S
C485 C489 1.385 . S
C486 H467 0.951 . S
C486 C484 1.388 . S
C486 C487 1.366 . S
C487 C486 1.366 . S
C487 C488 1.414 . S
C487 C490 1.499 . S
C488 H468 0.950 . S
C488 C487 1.414 . S
C488 C489 1.374 . S
C489 H469 0.950 . S
C489 C485 1.385 . S
C489 C488 1.374 . S
C490 C487 1.499 . S
C490 C491 1.373 . S
C490 C492 1.389 . S
C491 H470 0.950 . S
C491 C490 1.373 . S
C491 C507 1.377 . S
C492 C490 1.389 . S
C492 C493 1.524 . S
C492 C506 1.377 . S
C493 C492 1.524 . S
C493 C494 1.397 . S
C493 C498 1.363 . S
C494 H471 0.950 . S
C494 C493 1.397 . S
C494 C495 1.334 . S
C495 H472 0.950 . S
C495 C494 1.334 . S
C495 C496 1.287 . S
C496 C495 1.287 . S
C496 C497 1.524 . S
C496 H515 0.913 . S
C497 H473 0.950 . S
C497 C496 1.524 . S
C497 C498 1.415 . S
C498 H474 0.950 . S
C498 C493 1.363 . S
C498 C497 1.415 . S
C499 H475 0.951 . S
C499 C500 1.366 . S
C499 C501 1.388 . S
C500 C499 1.366 . S
C500 C504 1.385 . S
C501 H476 0.951 . S
C501 C499 1.388 . S
C501 C502 1.366 . S
C502 C501 1.366 . S
C502 C503 1.414 . S
C502 C505 1.499 . S
C503 H477 0.950 . S
C503 C502 1.414 . S
C503 C504 1.374 . S
C504 H478 0.950 . S
C504 C500 1.385 . S
C504 C503 1.374 . S
C505 C502 1.499 . S
C505 C506 1.373 . S
C505 C507 1.389 . S
C506 H479 0.950 . S
C506 C492 1.377 . S
C506 C505 1.373 . S
C507 C491 1.377 . S
C507 C505 1.389 . S
C507 C508 1.524 . S
C508 C507 1.524 . S
C508 C509 1.397 . S
C508 C513 1.363 . S
C509 H480 0.950 . S
C509 C508 1.397 . S
C509 C510 1.334 . S
C510 H481 0.950 . S
C510 C509 1.334 . S
C510 C511 1.287 . S
C511 C510 1.287 . S
C511 C512 1.524 . S
C511 H514 0.999 . S
C512 H482 0.950 . S
C512 C511 1.524 . S
C512 C513 1.415 . S
C513 H483 0.950 . S
C513 C508 1.363 . S
C513 C512 1.415 . S
H514 C511 0.999 . S
H515 C496 0.913 . S
H516 C534 0.951 . S
H517 C536 0.951 . S
H518 C538 0.950 . S
H519 C539 0.950 . S
H520 C541 0.950 . S
H521 C544 0.950 . S
H522 C545 0.950 . S
H523 C547 0.950 . S
H524 C548 0.950 . S
H525 C549 0.951 . S
H526 C551 0.951 . S
H527 C553 0.950 . S
H528 C554 0.950 . S
H529 C556 0.950 . S
H530 C559 0.950 . S
H531 C560 0.950 . S
H532 C562 0.950 . S
H533 C563 0.950 . S
C534 H516 0.951 . S
C534 C535 1.366 . S
C534 C536 1.388 . S
C535 C534 1.366 . S
C535 C539 1.385 . S
C536 H517 0.951 . S
C536 C534 1.388 . S
C536 C537 1.366 . S
C537 C536 1.366 . S
C537 C538 1.414 . S
C537 C540 1.499 . S
C538 H518 0.950 . S
C538 C537 1.414 . S
C538 C539 1.374 . S
C539 H519 0.950 . S
C539 C535 1.385 . S
C539 C538 1.374 . S
C540 C537 1.499 . S
C540 C541 1.373 . S
C540 C542 1.389 . S
C541 H520 0.950 . S
C541 C540 1.373 . S
C541 C557 1.377 . S
C542 C540 1.389 . S
C542 C543 1.524 . S
C542 C556 1.377 . S
C543 C542 1.524 . S
C543 C544 1.397 . S
C543 C548 1.363 . S
C544 H521 0.950 . S
C544 C543 1.397 . S
C544 C545 1.334 . S
C545 H522 0.950 . S
C545 C544 1.334 . S
C545 C546 1.287 . S
C546 C545 1.287 . S
C546 C547 1.524 . S
C546 H565 0.913 . S
C547 H523 0.950 . S
C547 C546 1.524 . S
C547 C548 1.415 . S
C548 H524 0.950 . S
C548 C543 1.363 . S
C548 C547 1.415 . S
C549 H525 0.951 . S
C549 C550 1.366 . S
C549 C551 1.388 . S
C550 C549 1.366 . S
C550 C554 1.385 . S
C551 H526 0.951 . S
C551 C549 1.388 . S
C551 C552 1.366 . S
C552 C551 1.366 . S
C552 C553 1.414 . S
C552 C555 1.499 . S
C553 H527 0.950 . S
C553 C552 1.414 . S
C553 C554 1.374 . S
C554 H528 0.950 . S
C554 C550 1.385 . S
C554 C553 1.374 . S
C555 C552 1.499 . S
C555 C556 1.373 . S
C555 C557 1.389 . S
C556 H529 0.950 . S
C556 C542 1.377 . S
C556 C555 1.373 . S
C557 C541 1.377 . S
C557 C555 1.389 . S
C557 C558 1.524 . S
C558 C557 1.524 . S
C558 C559 1.397 . S
C558 C563 1.363 . S
C559 H530 0.950 . S
C559 C558 1.397 . S
C559 C560 1.334 . S
C560 H531 0.950 . S
C560 C559 1.334 . S
C560 C561 1.287 . S
C561 C560 1.287 . S
C561 C562 1.524 . S
C561 H564 0.999 . S
C562 H532 0.950 . S
C562 C561 1.524 . S
C562 C563 1.415 . S
C563 H533 0.950 . S
C563 C558 1.363 . S
C563 C562 1.415 . S
H564 C561 0.999 . S
H565 C546 0.913 . S
H566 C584 0.951 . S
H567 C586 0.951 . S
H568 C588 0.950 . S
H569 C589 0.950 . S
H570 C591 0.950 . S
H571 C594 0.950 . S
H572 C595 0.950 . S
H573 C597 0.950 . S
H574 C598 0.950 . S
H575 C599 0.951 . S
H576 C601 0.951 . S
H577 C603 0.950 . S
H578 C604 0.950 . S
H579 C606 0.950 . S
H580 C609 0.950 . S
H581 C610 0.950 . S
H582 C612 0.950 . S
H583 C613 0.950 . S
C584 H566 0.951 . S
C584 C585 1.366 1_655 S
C584 C586 1.388 . S
C585 C584 1.366 1_455 S
C585 C589 1.385 . S
C586 H567 0.951 . S
C586 C584 1.388 . S
C586 C587 1.366 1_655 S
C587 C586 1.366 1_455 S
C587 C588 1.414 . S
C587 C590 1.499 . S
C588 H568 0.950 . S
C588 C587 1.414 . S
C588 C589 1.374 . S
C589 H569 0.950 . S
C589 C585 1.385 . S
C589 C588 1.374 . S
C590 C587 1.499 . S
C590 C591 1.373 . S
C590 C592 1.389 1_455 S
C591 H570 0.950 . S
C591 C590 1.373 . S
C591 C607 1.377 . S
C592 C590 1.389 1_655 S
C592 C593 1.524 . S
C592 C606 1.377 . S
C593 C592 1.524 . S
C593 C594 1.397 1_655 S
C593 C598 1.363 . S
C594 H571 0.950 . S
C594 C593 1.397 1_455 S
C594 C595 1.334 . S
C595 H572 0.950 . S
C595 C594 1.334 . S
C595 C596 1.287 1_455 S
C596 C595 1.287 1_655 S
C596 C597 1.524 . S
C596 H615 0.913 . S
C597 H573 0.950 . S
C597 C596 1.524 . S
C597 C598 1.415 . S
C598 H574 0.950 . S
C598 C593 1.363 . S
C598 C597 1.415 . S
C599 H575 0.951 . S
C599 C600 1.366 . S
C599 C601 1.388 . S
C600 C599 1.366 . S
C600 C604 1.385 1_455 S
C601 H576 0.951 . S
C601 C599 1.388 . S
C601 C602 1.366 . S
C602 C601 1.366 . S
C602 C603 1.414 1_455 S
C602 C605 1.501 . S
C603 H577 0.950 . S
C603 C602 1.414 1_655 S
C603 C604 1.374 . S
C604 H578 0.950 . S
C604 C600 1.385 1_655 S
C604 C603 1.374 . S
C605 C602 1.501 . S
C605 C606 1.363 1_455 S
C605 C607 1.404 . S
C606 H579 0.950 . S
C606 C592 1.377 . S
C606 C605 1.363 1_655 S
C607 C591 1.377 . S
C607 C605 1.404 . S
C607 C608 1.524 . S
C608 C607 1.524 . S
C608 C609 1.397 1_455 S
C608 C613 1.363 . S
C609 H580 0.950 . S
C609 C608 1.397 1_655 S
C609 C610 1.334 . S
C610 H581 0.950 . S
C610 C609 1.334 . S
C610 C611 1.287 1_655 S
C611 C610 1.287 1_455 S
C611 C612 1.524 . S
C611 H614 0.999 . S
C612 H582 0.950 . S
C612 C611 1.524 . S
C612 C613 1.415 . S
C613 H583 0.950 . S
C613 C608 1.363 . S
C613 C612 1.415 . S
H614 C611 0.999 . S
H615 C596 0.913 . S
H616 C634 0.951 . S
H617 C636 0.951 . S
H618 C638 0.950 . S
H619 C639 0.950 . S
H620 C641 0.950 . S
H621 C644 0.950 . S
H622 C645 0.950 . S
H623 C647 0.950 . S
H624 C648 0.950 1_545 S
H625 C649 0.951 . S
H626 C651 0.951 . S
H627 C653 0.950 . S
H628 C654 0.950 . S
H629 C656 0.950 . S
H630 C659 0.950 . S
H631 C660 0.950 . S
H632 C662 0.950 . S
H633 C663 0.950 1_565 S
C634 H616 0.951 . S
C634 C635 1.363 . S
C634 C636 1.388 . S
C635 C634 1.363 . S
C635 C639 1.387 1_545 S
C636 H617 0.951 . S
C636 C634 1.388 . S
C636 C637 1.366 1_545 S
C637 C636 1.366 1_565 S
C637 C638 1.414 . S
C637 C640 1.499 . S
C638 H618 0.950 . S
C638 C637 1.414 . S
C638 C639 1.374 . S
C639 H619 0.950 . S
C639 C635 1.387 1_565 S
C639 C638 1.374 . S
C640 C637 1.499 . S
C640 C641 1.373 1_565 S
C640 C642 1.389 1_554 S
C641 H620 0.950 . S
C641 C640 1.373 1_545 S
C641 C657 1.377 . S
C642 C640 1.389 1_556 S
C642 C643 1.524 . S
C642 C656 1.377 . S
C643 C642 1.524 . S
C643 C644 1.397 1_556 S
C643 C648 1.363 . S
C644 H621 0.950 . S
C644 C643 1.397 1_554 S
C644 C645 1.334 . S
C645 H622 0.950 . S
C645 C644 1.334 . S
C645 C646 1.287 1_554 S
C646 C645 1.287 1_556 S
C646 C647 1.524 . S
C646 H665 0.913 . S
C647 H623 0.950 . S
C647 C646 1.524 . S
C647 C648 1.415 . S
C648 H624 0.950 1_565 S
C648 C643 1.363 . S
C648 C647 1.415 . S
C649 H625 0.951 . S
C649 C650 1.393 . S
C649 C651 1.388 . S
C650 C649 1.393 . S
C650 C654 1.357 1_565 S
C651 H626 0.951 . S
C651 C649 1.388 . S
C651 C652 1.363 1_565 S
C652 C651 1.363 1_545 S
C652 C653 1.416 . S
C652 C655 1.498 . S
C653 H627 0.950 . S
C653 C652 1.416 . S
C653 C654 1.374 . S
C654 H628 0.950 . S
C654 C650 1.357 1_545 S
C654 C653 1.374 . S
C655 C652 1.498 . S
C655 C656 1.362 1_545 S
C655 C657 1.400 1_556 S
C656 H629 0.950 . S
C656 C642 1.377 . S
C656 C655 1.362 1_565 S
C657 C641 1.377 . S
C657 C655 1.400 1_554 S
C657 C658 1.524 . S
C658 C657 1.524 . S
C658 C659 1.397 1_554 S
C658 C663 1.363 . S
C659 H630 0.950 . S
C659 C658 1.397 1_556 S
C659 C660 1.334 . S
C660 H631 0.950 . S
C660 C659 1.334 . S
C660 C661 1.287 1_556 S
C661 C660 1.287 1_554 S
C661 C662 1.524 . S
C661 H664 0.999 . S
C662 H632 0.950 . S
C662 C661 1.524 . S
C662 C663 1.415 . S
C663 H633 0.950 1_545 S
C663 C658 1.363 . S
C663 C662 1.415 . S
H664 C661 0.999 . S
H665 C646 0.913 . S
H666 C684 0.951 . S
H667 C686 0.951 . S
H668 C688 0.950 . S
H669 C689 0.950 . S
H670 C691 0.950 . S
H671 C694 0.950 1_554 S
H672 C695 0.950 . S
H673 C697 0.950 . S
H674 C698 0.950 . S
H675 C699 0.951 . S
H676 C701 0.951 . S
H677 C703 0.950 . S
H678 C704 0.950 . S
H679 C706 0.950 . S
H680 C709 0.950 . S
H681 C710 0.949 1_556 S
H682 C712 0.950 . S
H683 C713 0.950 . S
C684 H666 0.951 . S
C684 C685 1.366 . S
C684 C686 1.388 . S
C685 C684 1.366 . S
C685 C689 1.385 . S
C686 H667 0.951 . S
C686 C684 1.388 . S
C686 C687 1.366 . S
C687 C686 1.366 . S
C687 C688 1.414 . S
C687 C690 1.499 . S
C688 H668 0.950 . S
C688 C687 1.414 . S
C688 C689 1.374 . S
C689 H669 0.950 . S
C689 C685 1.385 . S
C689 C688 1.374 . S
C690 C687 1.499 . S
C690 C691 1.373 . S
C690 C692 1.389 . S
C691 H670 0.950 . S
C691 C690 1.373 . S
C691 C707 1.377 1_554 S
C692 C690 1.389 . S
C692 C693 1.524 1_554 S
C692 C706 1.377 1_554 S
C693 C692 1.524 1_556 S
C693 C694 1.397 . S
C693 C698 1.363 . S
C694 H671 0.950 1_556 S
C694 C693 1.397 . S
C694 C695 1.334 . S
C695 H672 0.950 . S
C695 C694 1.334 . S
C695 C696 1.287 . S
C696 C695 1.287 . S
C696 C697 1.524 . S
C696 H715 0.913 . S
C697 H673 0.950 . S
C697 C696 1.524 . S
C697 C698 1.415 . S
C698 H674 0.950 . S
C698 C693 1.363 . S
C698 C697 1.415 . S
C699 H675 0.951 . S
C699 C700 1.366 . S
C699 C701 1.388 . S
C700 C699 1.366 . S
C700 C704 1.385 . S
C701 H676 0.951 . S
C701 C699 1.388 . S
C701 C702 1.366 . S
C702 C701 1.366 . S
C702 C703 1.414 . S
C702 C705 1.499 . S
C703 H677 0.950 . S
C703 C702 1.414 . S
C703 C704 1.374 . S
C704 H678 0.950 . S
C704 C700 1.385 . S
C704 C703 1.374 . S
C705 C702 1.499 . S
C705 C706 1.373 . S
C705 C707 1.389 . S
C706 H679 0.950 . S
C706 C692 1.377 1_556 S
C706 C705 1.373 . S
C707 C691 1.377 1_556 S
C707 C705 1.389 . S
C707 C708 1.524 1_556 S
C708 C707 1.524 1_554 S
C708 C709 1.397 1_554 S
C708 C713 1.363 . S
C709 H680 0.950 . S
C709 C708 1.397 1_556 S
C709 C710 1.334 1_556 S
C710 H681 0.949 1_554 S
C710 C709 1.334 1_554 S
C710 C711 1.287 . S
C711 C710 1.287 . S
C711 C712 1.524 . S
C711 H714 0.999 . S
C712 H682 0.950 . S
C712 C711 1.524 . S
C712 C713 1.415 . S
C713 H683 0.950 . S
C713 C708 1.363 . S
C713 C712 1.415 . S
H714 C711 0.999 . S
H715 C696 0.913 . S
H716 C734 0.951 . S
H717 C736 0.951 . S
H718 C738 0.950 . S
H719 C739 0.950 . S
H720 C741 0.950 . S
H721 C744 0.950 . S
H722 C745 0.950 . S
H723 C747 0.950 . S
H724 C748 0.950 . S
H725 C749 0.951 . S
H726 C751 0.951 . S
H727 C753 0.950 . S
H728 C754 0.950 . S
H729 C756 0.950 . S
H730 C759 0.950 . S
H731 C760 0.950 . S
H732 C762 0.950 . S
H733 C763 0.950 . S
C734 H716 0.951 . S
C734 C735 1.366 . S
C734 C736 1.388 . S
C735 C734 1.366 . S
C735 C739 1.385 . S
C736 H717 0.951 . S
C736 C734 1.388 . S
C736 C737 1.366 . S
C737 C736 1.366 . S
C737 C738 1.414 . S
C737 C740 1.499 . S
C738 H718 0.950 . S
C738 C737 1.414 . S
C738 C739 1.374 . S
C739 H719 0.950 . S
C739 C735 1.385 . S
C739 C738 1.374 . S
C740 C737 1.499 . S
C740 C741 1.373 . S
C740 C742 1.389 . S
C741 H720 0.950 . S
C741 C740 1.373 . S
C741 C757 1.377 1_554 S
C742 C740 1.389 . S
C742 C743 1.524 . S
C742 C756 1.377 1_554 S
C743 C742 1.524 . S
C743 C744 1.397 . S
C743 C748 1.363 . S
C744 H721 0.950 . S
C744 C743 1.397 . S
C744 C745 1.334 . S
C745 H722 0.950 . S
C745 C744 1.334 . S
C745 C746 1.287 . S
C746 C745 1.287 . S
C746 C747 1.524 . S
C746 H765 0.913 . S
C747 H723 0.950 . S
C747 C746 1.524 . S
C747 C748 1.415 . S
C748 H724 0.950 . S
C748 C743 1.363 . S
C748 C747 1.415 . S
C749 H725 0.951 . S
C749 C750 1.366 . S
C749 C751 1.388 . S
C750 C749 1.366 . S
C750 C754 1.385 . S
C751 H726 0.951 . S
C751 C749 1.388 . S
C751 C752 1.366 . S
C752 C751 1.366 . S
C752 C753 1.414 . S
C752 C755 1.499 . S
C753 H727 0.950 . S
C753 C752 1.414 . S
C753 C754 1.374 . S
C754 H728 0.950 . S
C754 C750 1.385 . S
C754 C753 1.374 . S
C755 C752 1.499 . S
C755 C756 1.373 . S
C755 C757 1.389 . S
C756 H729 0.950 . S
C756 C742 1.377 1_556 S
C756 C755 1.373 . S
C757 C741 1.377 1_556 S
C757 C755 1.389 . S
C757 C758 1.524 . S
C758 C757 1.524 . S
C758 C759 1.397 . S
C758 C763 1.363 . S
C759 H730 0.950 . S
C759 C758 1.397 . S
C759 C760 1.334 . S
C760 H731 0.950 . S
C760 C759 1.334 . S
C760 C761 1.287 . S
C761 C760 1.287 . S
C761 C762 1.524 . S
C761 H764 0.999 . S
C762 H732 0.950 . S
C762 C761 1.524 . S
C762 C763 1.415 . S
C763 H733 0.950 . S
C763 C758 1.363 . S
C763 C762 1.415 . S
H764 C761 0.999 . S
H765 C746 0.913 . S
H766 C784 0.951 . S
H767 C786 0.951 . S
H768 C788 0.950 . S
H769 C789 0.950 . S
H770 C791 0.950 . S
H771 C794 0.950 . S
H772 C795 0.950 . S
H773 C797 0.950 . S
H774 C798 0.950 . S
H775 C799 0.951 . S
H776 C801 0.951 . S
H777 C803 0.950 . S
H778 C804 0.950 . S
H779 C806 0.950 . S
H780 C809 0.950 . S
H781 C810 0.950 . S
H782 C812 0.950 . S
H783 C813 0.950 . S
C784 H766 0.951 . S
C784 C785 1.366 1_455 S
C784 C786 1.388 . S
C785 C784 1.366 1_655 S
C785 C789 1.385 . S
C786 H767 0.951 . S
C786 C784 1.388 . S
C786 C787 1.366 1_455 S
C787 C786 1.366 1_655 S
C787 C788 1.414 . S
C787 C790 1.499 . S
C788 H768 0.950 . S
C788 C787 1.414 . S
C788 C789 1.374 . S
C789 H769 0.950 . S
C789 C785 1.385 . S
C789 C788 1.374 . S
C790 C787 1.499 . S
C790 C791 1.373 . S
C790 C792 1.389 1_655 S
C791 H770 0.950 . S
C791 C790 1.373 . S
C791 C807 1.377 1_554 S
C792 C790 1.389 1_455 S
C792 C793 1.524 . S
C792 C806 1.377 1_554 S
C793 C792 1.524 . S
C793 C794 1.397 . S
C793 C798 1.363 . S
C794 H771 0.950 . S
C794 C793 1.397 . S
C794 C795 1.334 . S
C795 H772 0.950 . S
C795 C794 1.334 . S
C795 C796 1.287 . S
C796 C795 1.287 . S
C796 C797 1.524 . S
C796 H815 0.913 . S
C797 H773 0.950 . S
C797 C796 1.524 . S
C797 C798 1.415 . S
C798 H774 0.950 . S
C798 C793 1.363 . S
C798 C797 1.415 . S
C799 H775 0.951 . S
C799 C800 1.366 . S
C799 C801 1.388 . S
C800 C799 1.366 . S
C800 C804 1.385 1_655 S
C801 H776 0.951 . S
C801 C799 1.388 . S
C801 C802 1.366 . S
C802 C801 1.366 . S
C802 C803 1.414 1_655 S
C802 C805 1.499 . S
C803 H777 0.950 . S
C803 C802 1.414 1_455 S
C803 C804 1.374 . S
C804 H778 0.950 . S
C804 C800 1.385 1_455 S
C804 C803 1.374 . S
C805 C802 1.499 . S
C805 C806 1.373 1_655 S
C805 C807 1.389 . S
C806 H779 0.950 . S
C806 C792 1.377 1_556 S
C806 C805 1.373 1_455 S
C807 C791 1.377 1_556 S
C807 C805 1.389 . S
C807 C808 1.524 . S
C808 C807 1.524 . S
C808 C809 1.397 . S
C808 C813 1.363 . S
C809 H780 0.950 . S
C809 C808 1.397 . S
C809 C810 1.334 . S
C810 H781 0.950 . S
C810 C809 1.334 . S
C810 C811 1.287 . S
C811 C810 1.287 . S
C811 C812 1.524 . S
C811 H814 0.999 . S
C812 H782 0.950 . S
C812 C811 1.524 . S
C812 C813 1.415 . S
C813 H783 0.950 . S
C813 C808 1.363 . S
C813 C812 1.415 . S
H814 C811 0.999 . S
H815 C796 0.913 . S
H816 C834 0.951 . S
H817 C836 0.951 . S
H818 C838 0.950 . S
H819 C839 0.950 . S
H820 C841 0.950 . S
H821 C844 0.950 . S
H822 C845 0.950 . S
H823 C847 0.950 . S
H824 C848 0.950 . S
H825 C849 0.951 . S
H826 C851 0.951 . S
H827 C853 0.950 . S
H828 C854 0.950 . S
H829 C856 0.950 . S
H830 C859 0.950 . S
H831 C860 0.950 . S
H832 C862 0.950 . S
H833 C863 0.950 . S
C834 H816 0.951 . S
C834 C835 1.366 1_655 S
C834 C836 1.388 . S
C835 C834 1.366 1_455 S
C835 C839 1.385 . S
C836 H817 0.951 . S
C836 C834 1.388 . S
C836 C837 1.366 . S
C837 C836 1.366 . S
C837 C838 1.414 1_655 S
C837 C840 1.499 . S
C838 H818 0.950 . S
C838 C837 1.414 1_455 S
C838 C839 1.374 . S
C839 H819 0.950 . S
C839 C835 1.385 . S
C839 C838 1.374 . S
C840 C837 1.499 . S
C840 C841 1.373 1_655 S
C840 C842 1.389 . S
C841 H820 0.950 . S
C841 C840 1.373 1_455 S
C841 C857 1.377 . S
C842 C840 1.389 . S
C842 C843 1.524 . S
C842 C856 1.377 . S
C843 C842 1.524 . S
C843 C844 1.397 . S
C843 C848 1.363 . S
C844 H821 0.950 . S
C844 C843 1.397 . S
C844 C845 1.334 . S
C845 H822 0.950 . S
C845 C844 1.334 . S
C845 C846 1.287 . S
C846 C845 1.287 . S
C846 C847 1.524 . S
C846 H865 0.913 . S
C847 H823 0.950 . S
C847 C846 1.524 . S
C847 C848 1.415 . S
C848 H824 0.950 . S
C848 C843 1.363 . S
C848 C847 1.415 . S
C849 H825 0.951 . S
C849 C850 1.366 . S
C849 C851 1.388 . S
C850 C849 1.366 . S
C850 C854 1.385 . S
C851 H826 0.951 . S
C851 C849 1.388 . S
C851 C852 1.366 . S
C852 C851 1.366 . S
C852 C853 1.414 . S
C852 C855 1.499 . S
C853 H827 0.950 . S
C853 C852 1.414 . S
C853 C854 1.374 . S
C854 H828 0.950 . S
C854 C850 1.385 . S
C854 C853 1.374 . S
C855 C852 1.499 . S
C855 C856 1.373 . S
C855 C857 1.389 1_655 S
C856 H829 0.950 . S
C856 C842 1.377 . S
C856 C855 1.373 . S
C857 C841 1.377 . S
C857 C855 1.389 1_455 S
C857 C858 1.524 . S
C858 C857 1.524 . S
C858 C859 1.397 . S
C858 C863 1.363 . S
C859 H830 0.950 . S
C859 C858 1.397 . S
C859 C860 1.334 . S
C860 H831 0.950 . S
C860 C859 1.334 . S
C860 C861 1.287 . S
C861 C860 1.287 . S
C861 C862 1.524 . S
C861 H864 0.999 . S
C862 H832 0.950 . S
C862 C861 1.524 . S
C862 C863 1.415 . S
C863 H833 0.950 . S
C863 C858 1.363 . S
C863 C862 1.415 . S
H864 C861 0.999 . S
H865 C846 0.913 . S
H866 C884 0.951 . S
H867 C886 0.951 . S
H868 C888 0.950 . S
H869 C889 0.950 . S
H870 C891 0.950 . S
H871 C894 0.950 . S
H872 C895 0.950 . S
H873 C897 0.950 . S
H874 C898 0.970 . S
H875 C899 0.951 . S
H876 C901 0.951 . S
H877 C903 0.950 . S
H878 C904 0.950 . S
H879 C906 0.950 . S
H880 C909 0.950 . S
H881 C910 0.950 . S
H882 C912 0.950 . S
H883 C913 0.950 . S
C884 H866 0.951 . S
C884 C885 1.366 1_565 S
C884 C886 1.388 . S
C885 C884 1.366 1_545 S
C885 C889 1.385 . S
C886 H867 0.951 . S
C886 C884 1.388 . S
C886 C887 1.366 . S
C887 C886 1.366 . S
C887 C888 1.414 1_565 S
C887 C890 1.499 . S
C888 H868 0.950 . S
C888 C887 1.414 1_545 S
C888 C889 1.374 . S
C889 H869 0.950 . S
C889 C885 1.385 . S
C889 C888 1.374 . S
C890 C887 1.499 . S
C890 C891 1.373 . S
C890 C892 1.389 . S
C891 H870 0.950 . S
C891 C890 1.373 . S
C891 C907 1.377 . S
C892 C890 1.389 . S
C892 C893 1.524 1_565 S
C892 C906 1.377 . S
C893 C892 1.524 1_545 S
C893 C894 1.397 . S
C893 C898 1.355 1_545 S
C894 H871 0.950 . S
C894 C893 1.397 . S
C894 C895 1.334 . S
C895 H872 0.950 . S
C895 C894 1.334 . S
C895 C896 1.287 . S
C896 C895 1.287 . S
C896 C897 1.524 . S
C896 H915 0.913 . S
C897 H873 0.950 . S
C897 C896 1.524 . S
C897 C898 1.403 1_545 S
C898 H874 0.970 . S
C898 C893 1.355 1_565 S
C898 C897 1.403 1_565 S
C899 H875 0.951 . S
C899 C900 1.366 . S
C899 C901 1.388 . S
C900 C899 1.366 . S
C900 C904 1.385 . S
C901 H876 0.951 . S
C901 C899 1.388 . S
C901 C902 1.366 . S
C902 C901 1.366 . S
C902 C903 1.414 . S
C902 C905 1.499 . S
C903 H877 0.950 . S
C903 C902 1.414 . S
C903 C904 1.374 . S
C904 H878 0.950 . S
C904 C900 1.385 . S
C904 C903 1.374 . S
C905 C902 1.499 . S
C905 C906 1.373 . S
C905 C907 1.389 . S
C906 H879 0.950 . S
C906 C892 1.377 . S
C906 C905 1.373 . S
C907 C891 1.377 . S
C907 C905 1.389 . S
C907 C908 1.524 . S
C908 C907 1.524 . S
C908 C909 1.397 . S
C908 C913 1.363 . S
C909 H880 0.950 . S
C909 C908 1.397 . S
C909 C910 1.334 . S
C910 H881 0.950 . S
C910 C909 1.334 . S
C910 C911 1.287 . S
C911 C910 1.287 . S
C911 C912 1.524 . S
C911 H914 0.999 . S
C912 H882 0.950 . S
C912 C911 1.524 . S
C912 C913 1.415 . S
C913 H883 0.950 . S
C913 C908 1.363 . S
C913 C912 1.415 . S
H914 C911 0.999 . S
H915 C896 0.913 . S
H916 C934 0.951 . S
H917 C936 0.951 . S
H918 C938 0.950 . S
H919 C939 0.950 . S
H920 C941 0.950 . S
H921 C944 0.950 . S
H922 C945 0.950 . S
H923 C947 0.950 . S
H924 C948 0.950 . S
H925 C949 0.951 . S
H926 C951 0.951 . S
H927 C953 0.950 . S
H928 C954 0.950 . S
H929 C956 0.950 . S
H930 C959 0.950 . S
H931 C960 0.950 . S
H932 C962 0.950 . S
H933 C963 0.950 . S
C934 H916 0.951 . S
C934 C935 1.366 . S
C934 C936 1.388 . S
C935 C934 1.366 . S
C935 C939 1.385 . S
C936 H917 0.951 . S
C936 C934 1.388 . S
C936 C937 1.366 . S
C937 C936 1.366 . S
C937 C938 1.414 . S
C937 C940 1.499 . S
C938 H918 0.950 . S
C938 C937 1.414 . S
C938 C939 1.374 . S
C939 H919 0.950 . S
C939 C935 1.385 . S
C939 C938 1.374 . S
C940 C937 1.499 . S
C940 C941 1.373 . S
C940 C942 1.389 . S
C941 H920 0.950 . S
C941 C940 1.373 . S
C941 C957 1.377 . S
C942 C940 1.389 . S
C942 C943 1.524 . S
C942 C956 1.377 . S
C943 C942 1.524 . S
C943 C944 1.397 . S
C943 C948 1.363 . S
C944 H921 0.950 . S
C944 C943 1.397 . S
C944 C945 1.334 . S
C945 H922 0.950 . S
C945 C944 1.334 . S
C945 C946 1.287 . S
C946 C945 1.287 . S
C946 C947 1.524 . S
C946 H965 0.913 . S
C947 H923 0.950 . S
C947 C946 1.524 . S
C947 C948 1.415 . S
C948 H924 0.950 . S
C948 C943 1.363 . S
C948 C947 1.415 . S
C949 H925 0.951 . S
C949 C950 1.366 . S
C949 C951 1.388 . S
C950 C949 1.366 . S
C950 C954 1.385 . S
C951 H926 0.951 . S
C951 C949 1.388 . S
C951 C952 1.366 . S
C952 C951 1.366 . S
C952 C953 1.414 . S
C952 C955 1.499 . S
C953 H927 0.950 . S
C953 C952 1.414 . S
C953 C954 1.374 . S
C954 H928 0.950 . S
C954 C950 1.385 . S
C954 C953 1.374 . S
C955 C952 1.499 . S
C955 C956 1.373 . S
C955 C957 1.389 . S
C956 H929 0.950 . S
C956 C942 1.377 . S
C956 C955 1.373 . S
C957 C941 1.377 . S
C957 C955 1.389 . S
C957 C958 1.524 . S
C958 C957 1.524 . S
C958 C959 1.397 . S
C958 C963 1.363 . S
C959 H930 0.950 . S
C959 C958 1.397 . S
C959 C960 1.334 . S
C960 H931 0.950 . S
C960 C959 1.334 . S
C960 C961 1.287 . S
C961 C960 1.287 . S
C961 C962 1.524 . S
C961 H964 0.999 . S
C962 H932 0.950 . S
C962 C961 1.524 . S
C962 C963 1.415 . S
C963 H933 0.950 . S
C963 C958 1.363 . S
C963 C962 1.415 . S
H964 C961 0.999 . S
H965 C946 0.913 . S
H966 C984 0.951 . S
H967 C986 0.951 . S
H968 C988 0.950 . S
H969 C989 0.950 . S
H970 C991 0.950 . S
H971 C994 0.950 . S
H972 C995 0.950 . S
H973 C997 0.950 . S
H974 C998 0.950 . S
H975 C999 0.951 . S
H976 C1001 0.951 . S
H977 C1003 0.950 . S
H978 C1004 0.950 . S
H979 C1006 0.950 . S
H980 C1009 0.950 . S
H981 C1010 0.950 . S
H982 C1012 0.950 . S
H983 C1013 0.950 . S
C984 H966 0.951 . S
C984 C985 1.366 . S
C984 C986 1.388 . S
C985 C984 1.366 . S
C985 C989 1.385 . S
C986 H967 0.951 . S
C986 C984 1.388 . S
C986 C987 1.366 . S
C987 C986 1.366 . S
C987 C988 1.414 . S
C987 C990 1.499 . S
C988 H968 0.950 . S
C988 C987 1.414 . S
C988 C989 1.374 . S
C989 H969 0.950 . S
C989 C985 1.385 . S
C989 C988 1.374 . S
C990 C987 1.499 . S
C990 C991 1.373 . S
C990 C992 1.389 . S
C991 H970 0.950 . S
C991 C990 1.373 . S
C991 C1007 1.377 . S
C992 C990 1.389 . S
C992 C993 1.524 . S
C992 C1006 1.377 . S
C993 C992 1.524 . S
C993 C994 1.397 . S
C993 C998 1.363 . S
C994 H971 0.950 . S
C994 C993 1.397 . S
C994 C995 1.334 . S
C995 H972 0.950 . S
C995 C994 1.334 . S
C995 C996 1.287 . S
C996 C995 1.287 . S
C996 C997 1.524 . S
C996 H1015 0.913 . S
C997 H973 0.950 . S
C997 C996 1.524 . S
C997 C998 1.415 . S
C998 H974 0.950 . S
C998 C993 1.363 . S
C998 C997 1.415 . S
C999 H975 0.951 . S
C999 C1000 1.366 . S
C999 C1001 1.388 . S
C1000 C999 1.366 . S
C1000 C1004 1.385 . S
C1001 H976 0.951 . S
C1001 C999 1.388 . S
C1001 C1002 1.366 . S
C1002 C1001 1.366 . S
C1002 C1003 1.414 . S
C1002 C1005 1.499 . S
C1003 H977 0.950 . S
C1003 C1002 1.414 . S
C1003 C1004 1.374 . S
C1004 H978 0.950 . S
C1004 C1000 1.385 . S
C1004 C1003 1.374 . S
C1005 C1002 1.499 . S
C1005 C1006 1.373 . S
C1005 C1007 1.389 . S
C1006 H979 0.950 . S
C1006 C992 1.377 . S
C1006 C1005 1.373 . S
C1007 C991 1.377 . S
C1007 C1005 1.389 . S
C1007 C1008 1.524 . S
C1008 C1007 1.524 . S
C1008 C1009 1.397 . S
C1008 C1013 1.363 . S
C1009 H980 0.950 . S
C1009 C1008 1.397 . S
C1009 C1010 1.334 . S
C1010 H981 0.950 . S
C1010 C1009 1.334 . S
C1010 C1011 1.287 . S
C1011 C1010 1.287 . S
C1011 C1012 1.524 . S
C1011 H1014 0.999 . S
C1012 H982 0.950 . S
C1012 C1011 1.524 . S
C1012 C1013 1.415 . S
C1013 H983 0.950 . S
C1013 C1008 1.363 . S
C1013 C1012 1.415 . S
H1014 C1011 0.999 . S
H1015 C996 0.913 . S
H1016 C1034 0.951 . S
H1017 C1036 0.951 . S
H1018 C1038 0.950 . S
H1019 C1039 0.950 . S
H1020 C1041 0.950 . S
H1021 C1044 0.950 . S
H1022 C1045 0.950 . S
H1023 C1047 0.950 . S
H1024 C1048 0.950 . S
H1025 C1049 0.951 . S
H1026 C1051 0.951 1_655 S
H1027 C1053 0.950 . S
H1028 C1054 0.950 . S
H1029 C1056 0.950 . S
H1030 C1059 0.978 . S
H1031 C1060 0.950 . S
H1032 C1062 0.950 . S
H1033 C1063 0.950 1_554 S
C1034 H1016 0.951 . S
C1034 C1035 1.366 1_455 S
C1034 C1036 1.388 . S
C1035 C1034 1.366 1_655 S
C1035 C1039 1.385 . S
C1036 H1017 0.951 . S
C1036 C1034 1.388 . S
C1036 C1037 1.366 . S
C1037 C1036 1.366 . S
C1037 C1038 1.414 1_455 S
C1037 C1040 1.499 . S
C1038 H1018 0.950 . S
C1038 C1037 1.414 1_655 S
C1038 C1039 1.374 . S
C1039 H1019 0.950 . S
C1039 C1035 1.385 . S
C1039 C1038 1.374 . S
C1040 C1037 1.499 . S
C1040 C1041 1.373 1_455 S
C1040 C1042 1.389 . S
C1041 H1020 0.950 . S
C1041 C1040 1.373 1_655 S
C1041 C1057 1.377 1_554 S
C1042 C1040 1.389 . S
C1042 C1043 1.524 . S
C1042 C1056 1.377 . S
C1043 C1042 1.524 . S
C1043 C1044 1.397 . S
C1043 C1048 1.363 . S
C1044 H1021 0.950 . S
C1044 C1043 1.397 . S
C1044 C1045 1.334 . S
C1045 H1022 0.950 . S
C1045 C1044 1.334 . S
C1045 C1046 1.287 . S
C1046 C1045 1.287 . S
C1046 C1047 1.524 . S
C1046 H1065 0.913 . S
C1047 H1023 0.950 . S
C1047 C1046 1.524 . S
C1047 C1048 1.415 . S
C1048 H1024 0.950 . S
C1048 C1043 1.363 . S
C1048 C1047 1.415 . S
C1049 H1025 0.951 . S
C1049 C1050 1.366 . S
C1049 C1051 1.388 . S
C1050 C1049 1.366 . S
C1050 C1054 1.385 . S
C1051 H1026 0.951 1_455 S
C1051 C1049 1.388 . S
C1051 C1052 1.366 . S
C1052 C1051 1.366 . S
C1052 C1053 1.414 . S
C1052 C1055 1.499 . S
C1053 H1027 0.950 . S
C1053 C1052 1.414 . S
C1053 C1054 1.374 . S
C1054 H1028 0.950 . S
C1054 C1050 1.385 . S
C1054 C1053 1.374 . S
C1055 C1052 1.499 . S
C1055 C1056 1.373 1_556 S
C1055 C1057 1.389 1_455 S
C1056 H1029 0.950 . S
C1056 C1042 1.377 . S
C1056 C1055 1.373 1_554 S
C1057 C1041 1.377 1_556 S
C1057 C1055 1.389 1_655 S
C1057 C1058 1.524 . S
C1058 C1057 1.524 . S
C1058 C1059 1.397 . S
C1058 C1063 1.363 . S
C1059 H1030 0.978 . S
C1059 C1058 1.397 . S
C1059 C1060 1.334 . S
C1060 H1031 0.950 . S
C1060 C1059 1.334 . S
C1060 C1061 1.287 . S
C1061 C1060 1.287 . S
C1061 C1062 1.524 . S
C1061 H1064 0.999 . S
C1062 H1032 0.950 . S
C1062 C1061 1.524 . S
C1062 C1063 1.415 . S
C1063 H1033 0.950 1_556 S
C1063 C1058 1.363 . S
C1063 C1062 1.415 . S
H1064 C1061 0.999 . S
H1065 C1046 0.913 . S
H1066 C1084 0.951 . S
H1067 C1086 0.951 . S
H1068 C1088 0.950 . S
H1069 C1089 0.950 . S
H1070 C1091 0.950 . S
H1071 C1094 0.950 . S
H1072 C1095 0.950 . S
H1073 C1097 0.950 . S
H1074 C1098 0.950 . S
H1075 C1099 0.951 . S
H1076 C1101 0.951 . S
H1077 C1103 0.950 . S
H1078 C1104 0.950 . S
H1079 C1106 0.950 . S
H1080 C1109 0.950 . S
H1081 C1110 0.950 . S
H1082 C1112 0.950 . S
H1083 C1113 0.950 1_554 S
C1084 H1066 0.951 . S
C1084 C1085 1.366 1_545 S
C1084 C1086 1.388 . S
C1085 C1084 1.366 1_565 S
C1085 C1089 1.385 . S
C1086 H1067 0.951 . S
C1086 C1084 1.388 . S
C1086 C1087 1.366 . S
C1087 C1086 1.366 . S
C1087 C1088 1.414 1_545 S
C1087 C1090 1.499 . S
C1088 H1068 0.950 . S
C1088 C1087 1.414 1_565 S
C1088 C1089 1.374 . S
C1089 H1069 0.950 . S
C1089 C1085 1.385 . S
C1089 C1088 1.374 . S
C1090 C1087 1.499 . S
C1090 C1091 1.373 1_545 S
C1090 C1092 1.389 . S
C1091 H1070 0.950 . S
C1091 C1090 1.373 1_565 S
C1091 C1107 1.381 1_554 S
C1092 C1090 1.389 . S
C1092 C1093 1.524 . S
C1092 C1106 1.377 . S
C1093 C1092 1.524 . S
C1093 C1094 1.397 . S
C1093 C1098 1.363 . S
C1094 H1071 0.950 . S
C1094 C1093 1.397 . S
C1094 C1095 1.334 . S
C1095 H1072 0.950 . S
C1095 C1094 1.334 . S
C1095 C1096 1.287 . S
C1096 C1095 1.287 . S
C1096 C1097 1.524 . S
C1096 H1115 0.913 . S
C1097 H1073 0.950 . S
C1097 C1096 1.524 . S
C1097 C1098 1.415 . S
C1098 H1074 0.950 . S
C1098 C1093 1.363 . S
C1098 C1097 1.415 . S
C1099 H1075 0.951 . S
C1099 C1100 1.366 . S
C1099 C1101 1.388 . S
C1100 C1099 1.366 . S
C1100 C1104 1.385 . S
C1101 H1076 0.951 . S
C1101 C1099 1.388 . S
C1101 C1102 1.366 . S
C1102 C1101 1.366 . S
C1102 C1103 1.414 . S
C1102 C1105 1.499 . S
C1103 H1077 0.950 . S
C1103 C1102 1.414 . S
C1103 C1104 1.374 . S
C1104 H1078 0.950 . S
C1104 C1100 1.385 . S
C1104 C1103 1.374 . S
C1105 C1102 1.499 . S
C1105 C1106 1.373 1_556 S
C1105 C1107 1.367 1_545 S
C1106 H1079 0.950 . S
C1106 C1092 1.377 . S
C1106 C1105 1.373 1_554 S
C1107 C1091 1.381 1_556 S
C1107 C1105 1.367 1_565 S
C1107 C1108 1.544 . S
C1108 C1107 1.544 . S
C1108 C1109 1.397 . S
C1108 C1113 1.363 . S
C1109 H1080 0.950 . S
C1109 C1108 1.397 . S
C1109 C1110 1.334 . S
C1110 H1081 0.950 . S
C1110 C1109 1.334 . S
C1110 C1111 1.287 . S
C1111 C1110 1.287 . S
C1111 C1112 1.524 . S
C1111 H1114 0.999 . S
C1112 H1082 0.950 . S
C1112 C1111 1.524 . S
C1112 C1113 1.415 . S
C1113 H1083 0.950 1_556 S
C1113 C1108 1.363 . S
C1113 C1112 1.415 . S
H1114 C1111 0.999 . S
H1115 C1096 0.913 . S
H1116 C1134 0.951 . S
H1117 C1136 0.951 . S
H1118 C1138 0.950 . S
H1119 C1139 0.950 . S
H1120 C1141 0.950 1_556 S
H1121 C1144 0.950 . S
H1122 C1145 0.950 . S
H1123 C1147 0.950 . S
H1124 C1148 0.950 . S
H1125 C1149 0.951 . S
H1126 C1151 0.951 . S
H1127 C1153 0.950 1_554 S
H1128 C1154 0.950 . S
H1129 C1156 0.950 . S
H1130 C1159 0.950 . S
H1131 C1160 0.950 . S
H1132 C1162 0.950 . S
H1133 C1163 0.950 . S
C1134 H1116 0.951 . S
C1134 C1135 1.366 . S
C1134 C1136 1.388 . S
C1135 C1134 1.366 . S
C1135 C1139 1.385 . S
C1136 H1117 0.951 . S
C1136 C1134 1.388 . S
C1136 C1137 1.366 . S
C1137 C1136 1.366 . S
C1137 C1138 1.414 . S
C1137 C1140 1.499 . S
C1138 H1118 0.950 . S
C1138 C1137 1.414 . S
C1138 C1139 1.374 . S
C1139 H1119 0.950 . S
C1139 C1135 1.385 . S
C1139 C1138 1.374 . S
C1140 C1137 1.499 . S
C1140 C1141 1.373 . S
C1140 C1142 1.389 . S
C1141 H1120 0.950 1_554 S
C1141 C1140 1.373 . S
C1141 C1157 1.377 1_554 S
C1142 C1140 1.389 . S
C1142 C1143 1.524 . S
C1142 C1156 1.377 . S
C1143 C1142 1.524 . S
C1143 C1144 1.397 . S
C1143 C1148 1.363 . S
C1144 H1121 0.950 . S
C1144 C1143 1.397 . S
C1144 C1145 1.334 . S
C1145 H1122 0.950 . S
C1145 C1144 1.334 . S
C1145 C1146 1.287 . S
C1146 C1145 1.287 . S
C1146 C1147 1.524 . S
C1146 H1165 0.913 . S
C1147 H1123 0.950 . S
C1147 C1146 1.524 . S
C1147 C1148 1.415 . S
C1148 H1124 0.950 . S
C1148 C1143 1.363 . S
C1148 C1147 1.415 . S
C1149 H1125 0.951 . S
C1149 C1150 1.366 . S
C1149 C1151 1.388 . S
C1150 C1149 1.366 . S
C1150 C1154 1.385 . S
C1151 H1126 0.951 . S
C1151 C1149 1.388 . S
C1151 C1152 1.366 . S
C1152 C1151 1.366 . S
C1152 C1153 1.414 . S
C1152 C1155 1.499 . S
C1153 H1127 0.950 1_556 S
C1153 C1152 1.414 . S
C1153 C1154 1.374 . S
C1154 H1128 0.950 . S
C1154 C1150 1.385 . S
C1154 C1153 1.374 . S
C1155 C1152 1.499 . S
C1155 C1156 1.373 1_556 S
C1155 C1157 1.389 . S
C1156 H1129 0.950 . S
C1156 C1142 1.377 . S
C1156 C1155 1.373 1_554 S
C1157 C1141 1.377 1_556 S
C1157 C1155 1.389 . S
C1157 C1158 1.524 . S
C1158 C1157 1.524 . S
C1158 C1159 1.397 . S
C1158 C1163 1.363 . S
C1159 H1130 0.950 . S
C1159 C1158 1.397 . S
C1159 C1160 1.334 . S
C1160 H1131 0.950 . S
C1160 C1159 1.334 . S
C1160 C1161 1.287 . S
C1161 C1160 1.287 . S
C1161 C1162 1.524 . S
C1161 H1164 0.999 . S
C1162 H1132 0.950 . S
C1162 C1161 1.524 . S
C1162 C1163 1.415 . S
C1163 H1133 0.950 . S
C1163 C1158 1.363 . S
C1163 C1162 1.415 . S
H1164 C1161 0.999 . S
H1165 C1146 0.913 . S
H1166 C1184 0.951 . S
H1167 C1186 0.951 . S
H1168 C1188 0.950 . S
H1169 C1189 0.950 . S
H1170 C1191 0.950 . S
H1171 C1194 0.950 . S
H1172 C1195 0.950 . S
H1173 C1197 0.950 . S
H1174 C1198 0.950 . S
H1175 C1199 0.951 . S
H1176 C1201 0.951 . S
H1177 C1203 0.950 . S
H1178 C1204 0.950 . S
H1179 C1206 0.950 . S
H1180 C1209 0.950 . S
H1181 C1210 0.950 . S
H1182 C1212 0.947 1_556 S
H1183 C1213 0.950 1_556 S
C1184 H1166 0.951 . S
C1184 C1185 1.366 . S
C1184 C1186 1.388 . S
C1185 C1184 1.366 . S
C1185 C1189 1.385 . S
C1186 H1167 0.951 . S
C1186 C1184 1.388 . S
C1186 C1187 1.366 . S
C1187 C1186 1.366 . S
C1187 C1188 1.414 . S
C1187 C1190 1.499 . S
C1188 H1168 0.950 . S
C1188 C1187 1.414 . S
C1188 C1189 1.374 . S
C1189 H1169 0.950 . S
C1189 C1185 1.385 . S
C1189 C1188 1.374 . S
C1190 C1187 1.499 . S
C1190 C1191 1.373 . S
C1190 C1192 1.389 . S
C1191 H1170 0.950 . S
C1191 C1190 1.373 . S
C1191 C1207 1.377 . S
C1192 C1190 1.389 . S
C1192 C1193 1.524 . S
C1192 C1206 1.377 1_554 S
C1193 C1192 1.524 . S
C1193 C1194 1.397 1_554 S
C1193 C1198 1.363 . S
C1194 H1171 0.950 . S
C1194 C1193 1.397 1_556 S
C1194 C1195 1.334 . S
C1195 H1172 0.950 . S
C1195 C1194 1.334 . S
C1195 C1196 1.286 1_556 S
C1196 C1195 1.286 1_554 S
C1196 C1197 1.525 . S
C1196 H1215 0.913 1_554 S
C1197 H1173 0.950 . S
C1197 C1196 1.525 . S
C1197 C1198 1.415 . S
C1198 H1174 0.950 . S
C1198 C1193 1.363 . S
C1198 C1197 1.415 . S
C1199 H1175 0.951 . S
C1199 C1200 1.366 . S
C1199 C1201 1.388 . S
C1200 C1199 1.366 . S
C1200 C1204 1.385 . S
C1201 H1176 0.951 . S
C1201 C1199 1.388 . S
C1201 C1202 1.366 . S
C1202 C1201 1.366 . S
C1202 C1203 1.414 . S
C1202 C1205 1.499 . S
C1203 H1177 0.950 . S
C1203 C1202 1.414 . S
C1203 C1204 1.374 . S
C1204 H1178 0.950 . S
C1204 C1200 1.385 . S
C1204 C1203 1.374 . S
C1205 C1202 1.499 . S
C1205 C1206 1.373 . S
C1205 C1207 1.389 1_556 S
C1206 H1179 0.950 . S
C1206 C1192 1.377 1_556 S
C1206 C1205 1.373 . S
C1207 C1191 1.377 . S
C1207 C1205 1.389 1_554 S
C1207 C1208 1.524 . S
C1208 C1207 1.524 . S
C1208 C1209 1.397 . S
C1208 C1213 1.363 . S
C1209 H1180 0.950 . S
C1209 C1208 1.397 . S
C1209 C1210 1.334 . S
C1210 H1181 0.950 . S
C1210 C1209 1.334 . S
C1210 C1211 1.287 . S
C1211 C1210 1.287 . S
C1211 C1212 1.524 . S
C1211 H1214 0.999 . S
C1212 H1182 0.947 1_554 S
C1212 C1211 1.524 . S
C1212 C1213 1.415 . S
C1213 H1183 0.950 1_554 S
C1213 C1208 1.363 . S
C1213 C1212 1.415 . S
H1214 C1211 0.999 . S
H1215 C1196 0.913 1_556 S
H1216 C1234 0.951 . S
H1217 C1236 0.951 . S
H1218 C1238 0.950 . S
H1219 C1239 0.950 . S
H1220 C1241 0.950 . S
H1221 C1244 0.950 . S
H1222 C1245 0.950 . S
H1223 C1247 0.950 . S
H1224 C1248 0.950 . S
H1225 C1249 0.951 . S
H1226 C1251 0.951 . S
H1227 C1253 0.950 . S
H1228 C1254 0.950 . S
H1229 C1256 0.950 . S
H1230 C1259 0.950 . S
H1231 C1260 0.950 . S
H1232 C1262 0.950 . S
H1233 C1263 0.950 . S
C1234 H1216 0.951 . S
C1234 C1235 1.366 1_655 S
C1234 C1236 1.388 . S
C1235 C1234 1.366 1_455 S
C1235 C1239 1.385 . S
C1236 H1217 0.951 . S
C1236 C1234 1.388 . S
C1236 C1237 1.366 1_655 S
C1237 C1236 1.366 1_455 S
C1237 C1238 1.414 . S
C1237 C1240 1.499 . S
C1238 H1218 0.950 . S
C1238 C1237 1.414 . S
C1238 C1239 1.374 . S
C1239 H1219 0.950 . S
C1239 C1235 1.385 . S
C1239 C1238 1.374 . S
C1240 C1237 1.499 . S
C1240 C1241 1.373 . S
C1240 C1242 1.389 1_455 S
C1241 H1220 0.950 . S
C1241 C1240 1.373 . S
C1241 C1257 1.377 . S
C1242 C1240 1.389 1_655 S
C1242 C1243 1.524 . S
C1242 C1256 1.377 . S
C1243 C1242 1.524 . S
C1243 C1244 1.397 . S
C1243 C1248 1.363 . S
C1244 H1221 0.950 . S
C1244 C1243 1.397 . S
C1244 C1245 1.334 . S
C1245 H1222 0.950 . S
C1245 C1244 1.334 . S
C1245 C1246 1.287 . S
C1246 C1245 1.287 . S
C1246 C1247 1.524 . S
C1246 H1265 0.913 . S
C1247 H1223 0.950 . S
C1247 C1246 1.524 . S
C1247 C1248 1.415 . S
C1248 H1224 0.950 . S
C1248 C1243 1.363 . S
C1248 C1247 1.415 . S
C1249 H1225 0.951 . S
C1249 C1250 1.366 . S
C1249 C1251 1.388 . S
C1250 C1249 1.366 . S
C1250 C1254 1.385 1_455 S
C1251 H1226 0.951 . S
C1251 C1249 1.388 . S
C1251 C1252 1.366 . S
C1252 C1251 1.366 . S
C1252 C1253 1.414 1_455 S
C1252 C1255 1.499 . S
C1253 H1227 0.950 . S
C1253 C1252 1.414 1_655 S
C1253 C1254 1.374 . S
C1254 H1228 0.950 . S
C1254 C1250 1.385 1_655 S
C1254 C1253 1.374 . S
C1255 C1252 1.499 . S
C1255 C1256 1.373 1_455 S
C1255 C1257 1.389 . S
C1256 H1229 0.950 . S
C1256 C1242 1.377 . S
C1256 C1255 1.373 1_655 S
C1257 C1241 1.377 . S
C1257 C1255 1.389 . S
C1257 C1258 1.524 . S
C1258 C1257 1.524 . S
C1258 C1259 1.397 . S
C1258 C1263 1.363 . S
C1259 H1230 0.950 . S
C1259 C1258 1.397 . S
C1259 C1260 1.334 . S
C1260 H1231 0.950 . S
C1260 C1259 1.334 . S
C1260 C1261 1.287 . S
C1261 C1260 1.287 . S
C1261 C1262 1.524 . S
C1261 H1264 0.999 . S
C1262 H1232 0.950 . S
C1262 C1261 1.524 . S
C1262 C1263 1.415 . S
C1263 H1233 0.950 . S
C1263 C1258 1.363 . S
C1263 C1262 1.415 . S
H1264 C1261 0.999 . S
H1265 C1246 0.913 . S
H1266 C1284 0.951 . S
H1267 C1286 0.951 . S
H1268 C1288 0.950 . S
H1269 C1289 0.950 . S
H1270 C1291 0.951 1_565 S
H1271 C1294 0.950 . S
H1272 C1295 0.950 . S
H1273 C1297 0.950 . S
H1274 C1298 0.950 1_565 S
H1275 C1299 0.951 . S
H1276 C1301 0.951 . S
H1277 C1303 0.950 . S
H1278 C1304 0.950 . S
H1279 C1306 0.950 . S
H1280 C1309 0.950 . S
H1281 C1310 0.950 . S
H1282 C1312 0.927 1_545 S
H1283 C1313 0.950 . S
C1284 H1266 0.951 . S
C1284 C1285 1.366 1_565 S
C1284 C1286 1.388 . S
C1285 C1284 1.366 1_545 S
C1285 C1289 1.385 . S
C1286 H1267 0.951 . S
C1286 C1284 1.388 . S
C1286 C1287 1.366 1_565 S
C1287 C1286 1.366 1_545 S
C1287 C1288 1.414 . S
C1287 C1290 1.499 . S
C1288 H1268 0.950 . S
C1288 C1287 1.414 . S
C1288 C1289 1.374 . S
C1289 H1269 0.950 . S
C1289 C1285 1.385 . S
C1289 C1288 1.374 . S
C1290 C1287 1.499 . S
C1290 C1291 1.373 . S
C1290 C1292 1.389 . S
C1291 H1270 0.951 1_545 S
C1291 C1290 1.373 . S
C1291 C1307 1.377 . S
C1292 C1290 1.389 . S
C1292 C1293 1.524 . S
C1292 C1306 1.377 . S
C1293 C1292 1.524 . S
C1293 C1294 1.397 . S
C1293 C1298 1.363 . S
C1294 H1271 0.950 . S
C1294 C1293 1.397 . S
C1294 C1295 1.334 . S
C1295 H1272 0.950 . S
C1295 C1294 1.334 . S
C1295 C1296 1.287 1_556 S
C1296 C1295 1.287 1_554 S
C1296 C1297 1.524 . S
C1296 H1315 0.913 . S
C1297 H1273 0.950 . S
C1297 C1296 1.524 . S
C1297 C1298 1.415 1_554 S
C1298 H1274 0.950 1_545 S
C1298 C1293 1.363 . S
C1298 C1297 1.415 1_556 S
C1299 H1275 0.951 . S
C1299 C1300 1.366 . S
C1299 C1301 1.388 . S
C1300 C1299 1.366 . S
C1300 C1304 1.385 1_545 S
C1301 H1276 0.951 . S
C1301 C1299 1.388 . S
C1301 C1302 1.366 . S
C1302 C1301 1.366 . S
C1302 C1303 1.414 1_545 S
C1302 C1305 1.499 . S
C1303 H1277 0.950 . S
C1303 C1302 1.414 1_565 S
C1303 C1304 1.374 . S
C1304 H1278 0.950 . S
C1304 C1300 1.385 1_565 S
C1304 C1303 1.374 . S
C1305 C1302 1.499 . S
C1305 C1306 1.373 . S
C1305 C1307 1.389 . S
C1306 H1279 0.950 . S
C1306 C1292 1.377 . S
C1306 C1305 1.373 . S
C1307 C1291 1.377 . S
C1307 C1305 1.389 . S
C1307 C1308 1.524 1_545 S
C1308 C1307 1.524 1_565 S
C1308 C1309 1.397 . S
C1308 C1313 1.363 1_565 S
C1309 H1280 0.950 . S
C1309 C1308 1.397 . S
C1309 C1310 1.334 . S
C1310 H1281 0.950 . S
C1310 C1309 1.334 . S
C1310 C1311 1.287 . S
C1311 C1310 1.287 . S
C1311 C1312 1.567 . S
C1311 H1314 0.999 . S
C1312 H1282 0.927 1_565 S
C1312 C1311 1.567 . S
C1312 C1313 1.400 1_565 S
C1313 H1283 0.950 . S
C1313 C1308 1.363 1_545 S
C1313 C1312 1.400 1_545 S
H1314 C1311 0.999 . S
H1315 C1296 0.913 . S
H1316 C1334 0.951 . S
H1317 C1336 0.951 . S
H1318 C1338 0.950 . S
H1319 C1339 0.950 . S
H1320 C1341 0.950 . S
H1321 C1344 0.950 . S
H1322 C1345 0.950 . S
H1323 C1347 0.950 . S
H1324 C1348 0.950 . S
H1325 C1349 0.951 . S
H1326 C1351 0.951 . S
H1327 C1353 0.950 . S
H1328 C1354 0.950 . S
H1329 C1356 0.950 . S
H1330 C1359 0.950 . S
H1331 C1360 0.950 . S
H1332 C1362 0.950 . S
H1333 C1363 0.950 . S
C1334 H1316 0.951 . S
C1334 C1335 1.366 . S
C1334 C1336 1.388 . S
C1335 C1334 1.366 . S
C1335 C1339 1.385 . S
C1336 H1317 0.951 . S
C1336 C1334 1.388 . S
C1336 C1337 1.366 . S
C1337 C1336 1.366 . S
C1337 C1338 1.414 . S
C1337 C1340 1.499 . S
C1338 H1318 0.950 . S
C1338 C1337 1.414 . S
C1338 C1339 1.374 . S
C1339 H1319 0.950 . S
C1339 C1335 1.385 . S
C1339 C1338 1.374 . S
C1340 C1337 1.499 . S
C1340 C1341 1.373 . S
C1340 C1342 1.389 . S
C1341 H1320 0.950 . S
C1341 C1340 1.373 . S
C1341 C1357 1.377 . S
C1342 C1340 1.389 . S
C1342 C1343 1.524 . S
C1342 C1356 1.377 . S
C1343 C1342 1.524 . S
C1343 C1344 1.397 . S
C1343 C1348 1.363 . S
C1344 H1321 0.950 . S
C1344 C1343 1.397 . S
C1344 C1345 1.334 . S
C1345 H1322 0.950 . S
C1345 C1344 1.334 . S
C1345 C1346 1.287 . S
C1346 C1345 1.287 . S
C1346 C1347 1.524 . S
C1346 H1365 0.913 . S
C1347 H1323 0.950 . S
C1347 C1346 1.524 . S
C1347 C1348 1.415 . S
C1348 H1324 0.950 . S
C1348 C1343 1.363 . S
C1348 C1347 1.415 . S
C1349 H1325 0.951 . S
C1349 C1350 1.366 . S
C1349 C1351 1.388 . S
C1350 C1349 1.366 . S
C1350 C1354 1.385 . S
C1351 H1326 0.951 . S
C1351 C1349 1.388 . S
C1351 C1352 1.366 . S
C1352 C1351 1.366 . S
C1352 C1353 1.414 . S
C1352 C1355 1.499 . S
C1353 H1327 0.950 . S
C1353 C1352 1.414 . S
C1353 C1354 1.374 . S
C1354 H1328 0.950 . S
C1354 C1350 1.385 . S
C1354 C1353 1.374 . S
C1355 C1352 1.499 . S
C1355 C1356 1.373 . S
C1355 C1357 1.389 . S
C1356 H1329 0.950 . S
C1356 C1342 1.377 . S
C1356 C1355 1.373 . S
C1357 C1341 1.377 . S
C1357 C1355 1.389 . S
C1357 C1358 1.524 . S
C1358 C1357 1.524 . S
C1358 C1359 1.397 . S
C1358 C1363 1.363 . S
C1359 H1330 0.950 . S
C1359 C1358 1.397 . S
C1359 C1360 1.334 . S
C1360 H1331 0.950 . S
C1360 C1359 1.334 . S
C1360 C1361 1.287 . S
C1361 C1360 1.287 . S
C1361 C1362 1.524 . S
C1361 H1364 0.999 . S
C1362 H1332 0.950 . S
C1362 C1361 1.524 . S
C1362 C1363 1.415 . S
C1363 H1333 0.950 . S
C1363 C1358 1.363 . S
C1363 C1362 1.415 . S
H1364 C1361 0.999 . S
H1365 C1346 0.913 . S
H1366 C1384 0.951 . S
H1367 C1386 0.951 . S
H1368 C1388 0.950 . S
H1369 C1389 0.950 . S
H1370 C1391 0.950 . S
H1371 C1394 0.950 . S
H1372 C1395 0.950 . S
H1373 C1397 0.950 . S
H1374 C1398 0.950 . S
H1375 C1399 0.951 . S
H1376 C1401 0.951 . S
H1377 C1403 0.950 . S
H1378 C1404 0.950 . S
H1379 C1406 0.950 . S
H1380 C1409 0.950 . S
H1381 C1410 0.950 . S
H1382 C1412 0.950 . S
H1383 C1413 0.950 . S
C1384 H1366 0.951 . S
C1384 C1385 1.366 . S
C1384 C1386 1.388 . S
C1385 C1384 1.366 . S
C1385 C1389 1.385 . S
C1386 H1367 0.951 . S
C1386 C1384 1.388 . S
C1386 C1387 1.366 . S
C1387 C1386 1.366 . S
C1387 C1388 1.414 . S
C1387 C1390 1.499 . S
C1388 H1368 0.950 . S
C1388 C1387 1.414 . S
C1388 C1389 1.374 . S
C1389 H1369 0.950 . S
C1389 C1385 1.385 . S
C1389 C1388 1.374 . S
C1390 C1387 1.499 . S
C1390 C1391 1.373 . S
C1390 C1392 1.389 . S
C1391 H1370 0.950 . S
C1391 C1390 1.373 . S
C1391 C1407 1.377 . S
C1392 C1390 1.389 . S
C1392 C1393 1.524 . S
C1392 C1406 1.377 . S
C1393 C1392 1.524 . S
C1393 C1394 1.397 . S
C1393 C1398 1.363 . S
C1394 H1371 0.950 . S
C1394 C1393 1.397 . S
C1394 C1395 1.334 . S
C1395 H1372 0.950 . S
C1395 C1394 1.334 . S
C1395 C1396 1.287 . S
C1396 C1395 1.287 . S
C1396 C1397 1.524 . S
C1396 H1415 0.913 . S
C1397 H1373 0.950 . S
C1397 C1396 1.524 . S
C1397 C1398 1.415 . S
C1398 H1374 0.950 . S
C1398 C1393 1.363 . S
C1398 C1397 1.415 . S
C1399 H1375 0.951 . S
C1399 C1400 1.366 . S
C1399 C1401 1.388 . S
C1400 C1399 1.366 . S
C1400 C1404 1.385 . S
C1401 H1376 0.951 . S
C1401 C1399 1.388 . S
C1401 C1402 1.366 . S
C1402 C1401 1.366 . S
C1402 C1403 1.414 . S
C1402 C1405 1.499 . S
C1403 H1377 0.950 . S
C1403 C1402 1.414 . S
C1403 C1404 1.374 . S
C1404 H1378 0.950 . S
C1404 C1400 1.385 . S
C1404 C1403 1.374 . S
C1405 C1402 1.499 . S
C1405 C1406 1.373 . S
C1405 C1407 1.389 . S
C1406 H1379 0.950 . S
C1406 C1392 1.377 . S
C1406 C1405 1.373 . S
C1407 C1391 1.377 . S
C1407 C1405 1.389 . S
C1407 C1408 1.524 . S
C1408 C1407 1.524 . S
C1408 C1409 1.397 . S
C1408 C1413 1.363 . S
C1409 H1380 0.950 . S
C1409 C1408 1.397 . S
C1409 C1410 1.334 . S
C1410 H1381 0.950 . S
C1410 C1409 1.334 . S
C1410 C1411 1.287 . S
C1411 C1410 1.287 . S
C1411 C1412 1.524 . S
C1411 H1414 0.999 . S
C1412 H1382 0.950 . S
C1412 C1411 1.524 . S
C1412 C1413 1.415 . S
C1413 H1383 0.950 . S
C1413 C1408 1.363 . S
C1413 C1412 1.415 . S
H1414 C1411 0.999 . S
H1415 C1396 0.913 . S
H1416 C1434 0.951 . S
H1417 C1436 0.951 . S
H1418 C1438 0.950 . S
H1419 C1439 0.950 . S
H1420 C1441 0.950 . S
H1421 C1444 0.950 . S
H1422 C1445 0.950 . S
H1423 C1447 0.950 . S
H1424 C1448 0.950 . S
H1425 C1449 0.951 . S
H1426 C1451 0.951 . S
H1427 C1453 0.950 . S
H1428 C1454 0.950 . S
H1429 C1456 0.950 . S
H1430 C1459 0.950 . S
H1431 C1460 0.950 . S
H1432 C1462 0.950 . S
H1433 C1463 0.950 . S
C1434 H1416 0.951 . S
C1434 C1435 1.366 . S
C1434 C1436 1.388 . S
C1435 C1434 1.366 . S
C1435 C1439 1.385 . S
C1436 H1417 0.951 . S
C1436 C1434 1.388 . S
C1436 C1437 1.366 . S
C1437 C1436 1.366 . S
C1437 C1438 1.414 . S
C1437 C1440 1.499 . S
C1438 H1418 0.950 . S
C1438 C1437 1.414 . S
C1438 C1439 1.374 . S
C1439 H1419 0.950 . S
C1439 C1435 1.385 . S
C1439 C1438 1.374 . S
C1440 C1437 1.499 . S
C1440 C1441 1.373 1_655 S
C1440 C1442 1.389 . S
C1441 H1420 0.950 . S
C1441 C1440 1.373 1_455 S
C1441 C1457 1.377 . S
C1442 C1440 1.389 . S
C1442 C1443 1.524 . S
C1442 C1456 1.377 . S
C1443 C1442 1.524 . S
C1443 C1444 1.397 . S
C1443 C1448 1.363 . S
C1444 H1421 0.950 . S
C1444 C1443 1.397 . S
C1444 C1445 1.334 . S
C1445 H1422 0.950 . S
C1445 C1444 1.334 . S
C1445 C1446 1.287 . S
C1446 C1445 1.287 . S
C1446 C1447 1.524 . S
C1446 H1465 0.913 . S
C1447 H1423 0.950 . S
C1447 C1446 1.524 . S
C1447 C1448 1.415 . S
C1448 H1424 0.950 . S
C1448 C1443 1.363 . S
C1448 C1447 1.415 . S
C1449 H1425 0.951 . S
C1449 C1450 1.366 . S
C1449 C1451 1.388 . S
C1450 C1449 1.366 . S
C1450 C1454 1.385 . S
C1451 H1426 0.951 . S
C1451 C1449 1.388 . S
C1451 C1452 1.366 . S
C1452 C1451 1.366 . S
C1452 C1453 1.414 . S
C1452 C1455 1.499 . S
C1453 H1427 0.950 . S
C1453 C1452 1.414 . S
C1453 C1454 1.374 . S
C1454 H1428 0.950 . S
C1454 C1450 1.385 . S
C1454 C1453 1.374 . S
C1455 C1452 1.499 . S
C1455 C1456 1.373 . S
C1455 C1457 1.389 1_655 S
C1456 H1429 0.950 . S
C1456 C1442 1.377 . S
C1456 C1455 1.373 . S
C1457 C1441 1.377 . S
C1457 C1455 1.389 1_455 S
C1457 C1458 1.524 . S
C1458 C1457 1.524 . S
C1458 C1459 1.397 . S
C1458 C1463 1.363 . S
C1459 H1430 0.950 . S
C1459 C1458 1.397 . S
C1459 C1460 1.334 . S
C1460 H1431 0.950 . S
C1460 C1459 1.334 . S
C1460 C1461 1.287 . S
C1461 C1460 1.287 . S
C1461 C1462 1.524 . S
C1461 H1464 0.999 . S
C1462 H1432 0.950 . S
C1462 C1461 1.524 . S
C1462 C1463 1.415 . S
C1463 H1433 0.950 . S
C1463 C1458 1.363 . S
C1463 C1462 1.415 . S
H1464 C1461 0.999 . S
H1465 C1446 0.913 . S
H1466 C1484 0.951 . S
H1467 C1486 0.951 . S
H1468 C1488 0.950 . S
H1469 C1489 0.950 . S
H1470 C1491 0.950 . S
H1471 C1494 0.950 . S
H1472 C1495 0.950 . S
H1473 C1497 0.950 . S
H1474 C1498 0.950 1_565 S
H1475 C1499 0.932 1_545 S
H1476 C1501 0.945 1_545 S
H1477 C1503 0.950 . S
H1478 C1504 0.950 . S
H1479 C1506 0.951 1_545 S
H1480 C1509 0.950 . S
H1481 C1510 0.950 . S
H1482 C1512 0.950 . S
H1483 C1513 0.950 . S
C1484 H1466 0.951 . S
C1484 C1485 1.366 . S
C1484 C1486 1.388 . S
C1485 C1484 1.366 . S
C1485 C1489 1.385 1_565 S
C1486 H1467 0.951 . S
C1486 C1484 1.388 . S
C1486 C1487 1.366 . S
C1487 C1486 1.366 . S
C1487 C1488 1.414 1_565 S
C1487 C1490 1.499 . S
C1488 H1468 0.950 . S
C1488 C1487 1.414 1_545 S
C1488 C1489 1.374 . S
C1489 H1469 0.950 . S
C1489 C1485 1.385 1_545 S
C1489 C1488 1.374 . S
C1490 C1487 1.499 . S
C1490 C1491 1.373 . S
C1490 C1492 1.389 1_565 S
C1491 H1470 0.950 . S
C1491 C1490 1.373 . S
C1491 C1507 1.377 . S
C1492 C1490 1.389 1_545 S
C1492 C1493 1.524 . S
C1492 C1506 1.377 1_545 S
C1493 C1492 1.524 . S
C1493 C1494 1.397 . S
C1493 C1498 1.363 . S
C1494 H1471 0.950 . S
C1494 C1493 1.397 . S
C1494 C1495 1.334 . S
C1495 H1472 0.950 . S
C1495 C1494 1.334 . S
C1495 C1496 1.287 . S
C1496 C1495 1.287 . S
C1496 C1497 1.524 . S
C1496 H1515 0.913 . S
C1497 H1473 0.950 . S
C1497 C1496 1.524 . S
C1497 C1498 1.415 . S
C1498 H1474 0.950 1_545 S
C1498 C1493 1.363 . S
C1498 C1497 1.415 . S
C1499 H1475 0.932 1_565 S
C1499 C1500 1.388 . S
C1499 C1501 1.387 . S
C1500 C1499 1.388 . S
C1500 C1504 1.385 . S
C1501 H1476 0.945 1_565 S
C1501 C1499 1.387 . S
C1501 C1502 1.371 . S
C1502 C1501 1.371 . S
C1502 C1503 1.414 . S
C1502 C1505 1.499 . S
C1503 H1477 0.950 . S
C1503 C1502 1.414 . S
C1503 C1504 1.374 . S
C1504 H1478 0.950 . S
C1504 C1500 1.385 . S
C1504 C1503 1.374 . S
C1505 C1502 1.499 . S
C1505 C1506 1.373 . S
C1505 C1507 1.389 . S
C1506 H1479 0.951 1_565 S
C1506 C1492 1.377 1_565 S
C1506 C1505 1.373 . S
C1507 C1491 1.377 . S
C1507 C1505 1.389 . S
C1507 C1508 1.524 . S
C1508 C1507 1.524 . S
C1508 C1509 1.397 . S
C1508 C1513 1.363 . S
C1509 H1480 0.950 . S
C1509 C1508 1.397 . S
C1509 C1510 1.334 . S
C1510 H1481 0.950 . S
C1510 C1509 1.334 . S
C1510 C1511 1.287 . S
C1511 C1510 1.287 . S
C1511 C1512 1.524 . S
C1511 H1514 0.999 . S
C1512 H1482 0.950 . S
C1512 C1511 1.524 . S
C1512 C1513 1.415 . S
C1513 H1483 0.950 . S
C1513 C1508 1.363 . S
C1513 C1512 1.415 . S
H1514 C1511 0.999 . S
H1515 C1496 0.913 . S
H1516 C1534 0.951 . S
H1517 C1536 0.951 . S
H1518 C1538 0.950 . S
H1519 C1539 0.950 . S
H1520 C1541 0.950 . S
H1521 C1544 0.950 . S
H1522 C1545 0.950 . S
H1523 C1547 0.950 . S
H1524 C1548 0.950 . S
H1525 C1549 0.951 . S
H1526 C1551 0.951 . S
H1527 C1553 0.950 . S
H1528 C1554 0.950 . S
H1529 C1556 0.950 . S
H1530 C1559 0.950 . S
H1531 C1560 0.950 . S
H1532 C1562 0.950 . S
H1533 C1563 0.950 . S
C1534 H1516 0.951 . S
C1534 C1535 1.366 . S
C1534 C1536 1.388 . S
C1535 C1534 1.366 . S
C1535 C1539 1.385 . S
C1536 H1517 0.951 . S
C1536 C1534 1.388 . S
C1536 C1537 1.366 . S
C1537 C1536 1.366 . S
C1537 C1538 1.414 . S
C1537 C1540 1.499 . S
C1538 H1518 0.950 . S
C1538 C1537 1.414 . S
C1538 C1539 1.374 . S
C1539 H1519 0.950 . S
C1539 C1535 1.385 . S
C1539 C1538 1.374 . S
C1540 C1537 1.499 . S
C1540 C1541 1.373 . S
C1540 C1542 1.389 . S
C1541 H1520 0.950 . S
C1541 C1540 1.373 . S
C1541 C1557 1.377 . S
C1542 C1540 1.389 . S
C1542 C1543 1.524 . S
C1542 C1556 1.377 . S
C1543 C1542 1.524 . S
C1543 C1544 1.397 . S
C1543 C1548 1.363 . S
C1544 H1521 0.950 . S
C1544 C1543 1.397 . S
C1544 C1545 1.334 . S
C1545 H1522 0.950 . S
C1545 C1544 1.334 . S
C1545 C1546 1.287 . S
C1546 C1545 1.287 . S
C1546 C1547 1.524 . S
C1546 H1565 0.913 . S
C1547 H1523 0.950 . S
C1547 C1546 1.524 . S
C1547 C1548 1.415 . S
C1548 H1524 0.950 . S
C1548 C1543 1.363 . S
C1548 C1547 1.415 . S
C1549 H1525 0.951 . S
C1549 C1550 1.366 . S
C1549 C1551 1.388 . S
C1550 C1549 1.366 . S
C1550 C1554 1.385 . S
C1551 H1526 0.951 . S
C1551 C1549 1.388 . S
C1551 C1552 1.366 . S
C1552 C1551 1.366 . S
C1552 C1553 1.414 . S
C1552 C1555 1.499 . S
C1553 H1527 0.950 . S
C1553 C1552 1.414 . S
C1553 C1554 1.374 . S
C1554 H1528 0.950 . S
C1554 C1550 1.385 . S
C1554 C1553 1.374 . S
C1555 C1552 1.499 . S
C1555 C1556 1.373 . S
C1555 C1557 1.389 . S
C1556 H1529 0.950 . S
C1556 C1542 1.377 . S
C1556 C1555 1.373 . S
C1557 C1541 1.377 . S
C1557 C1555 1.389 . S
C1557 C1558 1.524 . S
C1558 C1557 1.524 . S
C1558 C1559 1.397 . S
C1558 C1563 1.363 . S
C1559 H1530 0.950 . S
C1559 C1558 1.397 . S
C1559 C1560 1.334 . S
C1560 H1531 0.950 . S
C1560 C1559 1.334 . S
C1560 C1561 1.287 . S
C1561 C1560 1.287 . S
C1561 C1562 1.524 . S
C1561 H1564 0.999 . S
C1562 H1532 0.950 . S
C1562 C1561 1.524 . S
C1562 C1563 1.415 . S
C1563 H1533 0.950 . S
C1563 C1558 1.363 . S
C1563 C1562 1.415 . S
H1564 C1561 0.999 . S
H1565 C1546 0.913 . S
H1566 C1584 0.951 . S
H1567 C1586 0.951 . S
H1568 C1588 0.950 . S
H1569 C1589 0.950 . S
H1570 C1591 0.950 . S
H1571 C1594 0.950 . S
H1572 C1595 0.950 . S
H1573 C1597 0.950 . S
H1574 C1598 0.950 . S
H1575 C1599 0.951 . S
H1576 C1601 0.951 . S
H1577 C1603 0.950 . S
H1578 C1604 0.950 . S
H1579 C1606 0.950 . S
H1580 C1609 0.950 . S
H1581 C1610 0.950 . S
H1582 C1612 0.950 . S
H1583 C1613 0.950 . S
C1584 H1566 0.951 . S
C1584 C1585 1.366 . S
C1584 C1586 1.388 . S
C1585 C1584 1.366 . S
C1585 C1589 1.385 . S
C1586 H1567 0.951 . S
C1586 C1584 1.388 . S
C1586 C1587 1.366 . S
C1587 C1586 1.366 . S
C1587 C1588 1.414 . S
C1587 C1590 1.499 . S
C1588 H1568 0.950 . S
C1588 C1587 1.414 . S
C1588 C1589 1.374 . S
C1589 H1569 0.950 . S
C1589 C1585 1.385 . S
C1589 C1588 1.374 . S
C1590 C1587 1.499 . S
C1590 C1591 1.373 . S
C1590 C1592 1.389 . S
C1591 H1570 0.950 . S
C1591 C1590 1.373 . S
C1591 C1607 1.377 . S
C1592 C1590 1.389 . S
C1592 C1593 1.524 . S
C1592 C1606 1.377 . S
C1593 C1592 1.524 . S
C1593 C1594 1.397 . S
C1593 C1598 1.363 . S
C1594 H1571 0.950 . S
C1594 C1593 1.397 . S
C1594 C1595 1.334 . S
C1595 H1572 0.950 . S
C1595 C1594 1.334 . S
C1595 C1596 1.287 . S
C1596 C1595 1.287 . S
C1596 C1597 1.524 . S
C1596 H1615 0.913 . S
C1597 H1573 0.950 . S
C1597 C1596 1.524 . S
C1597 C1598 1.415 . S
C1598 H1574 0.950 . S
C1598 C1593 1.363 . S
C1598 C1597 1.415 . S
C1599 H1575 0.951 . S
C1599 C1600 1.366 . S
C1599 C1601 1.388 . S
C1600 C1599 1.366 . S
C1600 C1604 1.385 . S
C1601 H1576 0.951 . S
C1601 C1599 1.388 . S
C1601 C1602 1.366 . S
C1602 C1601 1.366 . S
C1602 C1603 1.414 . S
C1602 C1605 1.499 . S
C1603 H1577 0.950 . S
C1603 C1602 1.414 . S
C1603 C1604 1.374 . S
C1604 H1578 0.950 . S
C1604 C1600 1.385 . S
C1604 C1603 1.374 . S
C1605 C1602 1.499 . S
C1605 C1606 1.373 . S
C1605 C1607 1.389 . S
C1606 H1579 0.950 . S
C1606 C1592 1.377 . S
C1606 C1605 1.373 . S
C1607 C1591 1.377 . S
C1607 C1605 1.389 . S
C1607 C1608 1.524 . S
C1608 C1607 1.524 . S
C1608 C1609 1.397 . S
C1608 C1613 1.363 . S
C1609 H1580 0.950 . S
C1609 C1608 1.397 . S
C1609 C1610 1.334 . S
C1610 H1581 0.950 . S
C1610 C1609 1.334 . S
C1610 C1611 1.287 . S
C1611 C1610 1.287 . S
C1611 C1612 1.524 . S
C1611 H1614 0.999 . S
C1612 H1582 0.950 . S
C1612 C1611 1.524 . S
C1612 C1613 1.415 . S
C1613 H1583 0.950 . S
C1613 C1608 1.363 . S
C1613 C1612 1.415 . S
H1614 C1611 0.999 . S
H1615 C1596 0.913 . S
C435 C215 1.804 . S
C450 C265 1.904 1_545 S
C500 C305 1.910 . S
C485 C247 1.800 . S
C550 C345 1.909 . S
C535 C151 1.802 . S
C600 C385 1.908 1_455 S
C585 C183 1.804 . S
C650 C274 1.905 1_565 S
C635 C87 1.803 . S
C685 C119 1.804 . S
C700 C314 1.914 . S
C735 C23 1.805 . S
C750 C354 1.910 . S
C785 C55 1.804 1_655 S
C800 C394 1.907 1_655 S
C850 C271 0.287 . S
C835 C189 0.218 . S
C900 C311 0.282 . S
C885 C221 0.225 . S
C950 C351 0.285 . S
C935 C253 0.222 . S
C985 C157 0.226 . S
C1000 C391 0.280 . S
C1035 C61 0.450 1_655 S
C1050 C262 0.288 . S
C1100 C302 0.285 . S
C1085 C93 0.432 1_565 S
C1150 C342 0.283 . S
C1135 C125 0.447 . S
C1185 C29 0.440 . S
C1200 C382 0.282 . S
C1235 C177 2.237 . S
C1250 C275 2.456 . S
C1285 C209 2.236 . S
C1300 C315 2.464 . S
C1350 C355 2.463 . S
C1335 C241 2.236 . S
C1400 C395 2.463 . S
C1385 C145 2.232 . S
C1435 C49 2.252 1_655 S
C1450 C266 2.472 . S
C1500 C306 2.464 . S
C1485 C81 2.253 1_565 S
C1550 C346 2.463 . S
C1535 C113 2.251 . S
C1585 C17 2.254 . S
C1600 C386 2.466 . S
