# Generated by pormake.
# Topology rtl, (3,6)-cn, num edge types: 1
# Building blocks:
#     Node 0, Type 0, BuildingBlock: PAMTOO_clean_linker_0, # of connection points: 3
#     Node 1, Type 0, BuildingBlock: PAMTOO_clean_linker_0, # of connection points: 3
#     Node 2, Type 0, BuildingBlock: PAMTOO_clean_linker_0, # of connection points: 3
#     Node 3, Type 0, BuildingBlock: PAMTOO_clean_linker_0, # of connection points: 3
#     Node 4, Type 1, BuildingBlock: CIFDUS_clean_sbu_1, # of connection points: 6
#     Node 5, Type 1, BuildingBlock: CIFDUS_clean_sbu_1, # of connection points: 6
#     Edge 6, Type (0, 1), BuildingBlock: KIFKEQ_clean_linker_1, # of connection points: 2
#     Edge 7, Type (0, 1), BuildingBlock: KIFKEQ_clean_linker_1, # of connection points: 2
#     Edge 8, Type (0, 1), BuildingBlock: KIFKEQ_clean_linker_1, # of connection points: 2
#     Edge 9, Type (0, 1), BuildingBlock: KIFKEQ_clean_linker_1, # of connection points: 2
#     Edge 10, Type (0, 1), BuildingBlock: KIFKEQ_clean_linker_1, # of connection points: 2
#     Edge 11, Type (0, 1), BuildingBlock: KIFKEQ_clean_linker_1, # of connection points: 2
#     Edge 12, Type (0, 1), BuildingBlock: KIFKEQ_clean_linker_1, # of connection points: 2
#     Edge 13, Type (0, 1), BuildingBlock: KIFKEQ_clean_linker_1, # of connection points: 2
#     Edge 14, Type (0, 1), BuildingBlock: KIFKEQ_clean_linker_1, # of connection points: 2
#     Edge 15, Type (0, 1), BuildingBlock: KIFKEQ_clean_linker_1, # of connection points: 2
#     Edge 16, Type (0, 1), BuildingBlock: KIFKEQ_clean_linker_1, # of connection points: 2
#     Edge 17, Type (0, 1), BuildingBlock: KIFKEQ_clean_linker_1, # of connection points: 2
# Relax obj value: 0.020
# Max RMSD: 0.114
# Mean RMSD: 0.090
data_MOF--net-rtl--node1-CIFDUS_clean_sbu_1--node2-PAMTOO_clean_linker_0--edge1-KIFKEQ_clean_linker_1
_symmetry_space_group_name_H-M    P1
_symmetry_Int_Tables_number       1
_symmetry_cell_setting            triclinic
loop_
_symmetry_equiv_pos_as_xyz
'x, y, z'
_cell_length_a     35.48226
_cell_length_b     34.386798
_cell_length_c     22.399529
_cell_angle_alpha  92.026856
_cell_angle_beta   98.759868
_cell_angle_gamma 90.071786
loop_
_atom_site_label
_atom_site_type_symbol
_atom_site_fract_x
_atom_site_fract_y
_atom_site_fract_z
_atom_type_partial_charge
H0 H 0.18041 0.9456 0.07819 0.0
H1 H 0.24131 0.85845 0.18813 0.0
H2 H 0.23156 0.84883 0.99491 0.0
H3 H 0.22767 0.77336 0.06682 0.0
C4 C 0.25033 0.78196 0.10506 0.0
O5 O 0.26278 0.8193 0.09753 0.0
H6 H 0.23792 0.78095 0.1477 0.0
C7 C 0.19627 0.9187 0.08266 0.0
C8 C 0.2037 0.89871 0.02991 0.0
C9 C 0.20877 0.9044 0.14047 0.0
C10 C 0.23089 0.87029 0.1446 0.0
C11 C 0.23926 0.85044 0.09236 0.0
C12 C 0.22497 0.86422 0.03506 0.0
H13 H 0.67578 0.66134 0.60607 0.0
H14 H 0.73408 0.74761 0.51818 0.0
H15 H 0.75042 0.74505 0.71195 0.0
H16 H 0.74932 0.82391 0.66412 0.0
C17 C 0.76253 0.81783 0.6228 0.0
O18 O 0.77116 0.7787 0.61913 0.0
H19 H 0.74196 0.82558 0.58247 0.0
C20 C 0.69531 0.68582 0.60849 0.0
C21 C 0.71207 0.70107 0.66539 0.0
C22 C 0.70256 0.70255 0.55482 0.0
C23 C 0.72733 0.73487 0.55885 0.0
C24 C 0.74467 0.75 0.61552 0.0
C25 C 0.7367 0.73334 0.66848 0.0
H26 H 0.87413 0.15667 1.00504 0.0
H27 H 0.80289 0.23723 0.89674 0.0
H28 H 0.81431 0.24635 0.09011 0.0
H29 H 0.73231 0.2465 0.01071 0.0
C30 C 0.74031 0.26596 0.9759 0.0
O31 O 0.7791 0.27339 0.98796 0.0
H32 H 0.73326 0.25085 0.93083 0.0
C33 C 0.8558 0.18189 1.00126 0.0
C34 C 0.8479 0.20097 0.05453 0.0
C35 C 0.84026 0.19456 0.94366 0.0
C36 C 0.81495 0.22619 0.94013 0.0
C37 C 0.80477 0.24403 0.99269 0.0
C38 C 0.8214 0.23157 0.04982 0.0
H39 H 0.37384 0.44338 0.48503 0.0
H40 H 0.32054 0.35308 0.57289 0.0
H41 H 0.29943 0.35938 0.37971 0.0
H42 H 0.23298 0.34527 0.4302 0.0
C43 C 0.24382 0.32714 0.46928 0.0
O44 O 0.28271 0.32235 0.47224 0.0
H45 H 0.23773 0.34276 0.51109 0.0
C46 C 0.35529 0.41813 0.48287 0.0
C47 C 0.33734 0.40373 0.42613 0.0
C48 C 0.35017 0.39987 0.53648 0.0
C49 C 0.32519 0.36763 0.5325 0.0
C50 C 0.30676 0.3533 0.476 0.0
C51 C 0.31346 0.37092 0.42309 0.0
O52 O 0.99514 0.0735 0.46362 0.0
Mn53 Mn 0.02433 0.04983 0.5427 0.0
O54 O 0.9784 1.02256 0.39892 0.0
Mn55 Mn 1.00027 0.98382 0.44859 0.0
O56 O 0.05353 1.0263 0.62216 0.0
O57 O 0.05289 0.10079 0.56195 0.0
Mn58 Mn 0.04758 0.11624 0.63602 0.0
O59 O 0.97923 0.06753 0.589 0.0
O60 O 0.0691 0.07776 0.6863 0.0
O61 O 0.06934 0.03199 0.49612 0.0
O62 O 0.05135 0.97517 0.4478 0.0
O63 O 0.07757 0.15348 0.60973 0.0
O64 O 0.9964 0.12502 0.6355 0.0
C65 C 0.97491 0.96816 0.52463 0.0
C66 C 0.97917 0.05904 0.41209 0.0
C67 C 0.06895 0.04121 0.67379 0.0
C68 C 0.07378 0.13164 0.56093 0.0
C69 C 0.9716 0.09873 0.61817 0.0
C70 C 0.07646 1.00109 0.46567 0.0
O71 O 0.99576 0.99897 0.52319 0.0
O72 O 0.97074 0.94642 0.4757 0.0
O73 O 0.54984 0.5788 0.12815 0.0
Mn74 Mn 0.52241 0.55402 0.0454 0.0
O75 O 0.56235 0.52829 0.18925 0.0
Mn76 Mn 0.54273 0.48932 0.13387 0.0
O77 O 0.49507 0.52953 0.96269 0.0
O78 O 0.49386 0.60454 0.02877 0.0
Mn79 Mn 0.50188 0.61941 0.95718 0.0
O80 O 0.56888 0.57168 1.00323 0.0
O81 O 0.48212 0.5802 0.90187 0.0
O82 O 0.47585 0.53653 0.08738 0.0
O83 O 0.49148 0.4794 0.12887 0.0
O84 O 0.47079 0.6566 0.98351 0.0
O85 O 0.55321 0.62906 0.96236 0.0
C86 C 0.572 0.47225 0.06204 0.0
C87 C 0.56308 0.56462 0.17963 0.0
C88 C 0.48158 0.54379 0.91138 0.0
C89 C 0.47246 0.63508 0.03008 0.0
C90 C 0.57746 0.60282 0.9778 0.0
C91 C 0.46721 0.50552 0.11297 0.0
O92 O 0.55111 0.50333 0.06192 0.0
O93 O 0.57384 0.45171 0.10972 0.0
H94 H 0.18816 0.29969 0.37829 0.0
H95 H 0.25261 0.26785 0.54835 0.0
H96 H 0.14838 0.24144 0.37715 0.0
H97 H 0.21271 0.20988 0.548 0.0
H98 H 0.14334 0.10598 0.54331 0.0
H99 H 0.18971 0.14674 0.5037 0.0
H100 H 0.09946 0.2255 0.43721 0.0
H101 H 0.05361 0.18451 0.47634 0.0
C102 C 0.19428 0.27976 0.41485 0.0
C103 C 0.22339 0.28828 0.46359 0.0
C104 C 0.17143 0.24645 0.41429 0.0
C105 C 0.17717 0.22091 0.46251 0.0
C106 C 0.20775 0.22845 0.50956 0.0
C107 C 0.23052 0.26179 0.51012 0.0
C108 C 0.13321 0.1307 0.51684 0.0
C109 C 0.0949 0.14195 0.51222 0.0
C110 C 0.15985 0.15451 0.49521 0.0
C111 C 0.14853 0.18998 0.46862 0.0
C112 C 0.10933 0.19844 0.45725 0.0
C113 C 0.08283 0.17471 0.47913 0.0
H114 H 0.26124 0.72087 0.02701 0.0
H115 H 0.31384 0.78025 0.19146 0.0
H116 H 0.31615 0.67786 0.03045 0.0
H117 H 0.36899 0.73692 0.19556 0.0
H118 H 0.47596 0.69888 0.10341 0.0
H119 H 0.42062 0.73006 0.13573 0.0
H120 H 0.35397 0.62585 0.08284 0.0
H121 H 0.40993 0.59479 0.05028 0.0
C122 C 0.28444 0.72438 0.0643 0.0
C123 C 0.28348 0.75409 0.1087 0.0
C124 C 0.31576 0.69944 0.06675 0.0
C125 C 0.34702 0.70369 0.11353 0.0
C126 C 0.34553 0.73288 0.1588 0.0
C127 C 0.31406 0.75772 0.15647 0.0
C128 C 0.45009 0.68187 0.10209 0.0
C129 C 0.4473 0.64435 0.07497 0.0
C130 C 0.41814 0.69987 0.12009 0.0
C131 C 0.38252 0.68083 0.11059 0.0
C132 C 0.38083 0.64159 0.08974 0.0
C133 C 0.41305 0.62345 0.07223 0.0
H134 H 0.7776 0.89029 0.67662 0.0
H135 H 0.82653 0.80229 0.57014 0.0
H136 H 0.83345 0.93232 0.67497 0.0
H137 H 0.88199 0.84368 0.56892 0.0
H138 H 0.98789 0.907 0.59592 0.0
H139 H 0.938 0.87202 0.63605 0.0
H140 H 0.86162 0.96843 0.59564 0.0
H141 H 0.91217 1.00366 0.55656 0.0
C142 C 0.80059 0.87969 0.65383 0.0
C143 C 0.79814 0.84253 0.62502 0.0
C144 C 0.83245 0.90376 0.65275 0.0
C145 C 0.86257 0.89107 0.62293 0.0
C146 C 0.8599 0.85395 0.59393 0.0
C147 C 0.82798 0.83019 0.59441 0.0
C148 C 0.96117 0.92161 0.599 0.0
C149 C 0.9539 0.95805 0.57363 0.0
C150 C 0.93234 0.90131 0.62093 0.0
C151 C 0.8955 0.91694 0.61729 0.0
C152 C 0.88965 0.95551 0.59893 0.0
C153 C 0.91872 0.97593 0.57714 0.0
H154 H 0.6664 0.2716 0.99122 0.0
H155 H 0.76015 0.34262 0.95534 0.0
H156 H 0.62596 0.32872 0.98931 0.0
H157 H 0.71944 0.40038 0.9532 0.0
H158 H 0.64656 0.48739 0.06295 0.0
H159 H 0.68969 0.43987 0.02723 0.0
H160 H 0.59322 0.37795 0.92626 0.0
H161 H 0.55025 0.42528 0.96348 0.0
C162 C 0.67835 0.29957 0.98303 0.0
C163 C 0.71675 0.30272 0.97541 0.0
C164 C 0.65501 0.33232 0.98094 0.0
C165 C 0.66927 0.36929 0.97065 0.0
C166 C 0.70757 0.37241 0.96153 0.0
C167 C 0.73096 0.33938 0.96317 0.0
C168 C 0.6348 0.46503 0.03001 0.0
C169 C 0.59511 0.46014 0.01562 0.0
C170 C 0.65953 0.43741 0.01003 0.0
C171 C 0.64488 0.40434 0.97539 0.0
C172 C 0.60541 0.40255 0.95419 0.0
C173 C 0.58074 0.43016 0.97434 0.0
H174 H 0.14268 0.94421 0.15041 0.0
H175 H 0.24897 0.91032 0.25697 0.0
H176 H 0.12375 0.97625 0.23903 0.0
H177 H 0.22808 0.94037 0.34702 0.0
H178 H 0.12409 0.93943 0.47303 0.0
H179 H 0.16617 0.92178 0.39965 0.0
H180 H 0.14755 0.03414 0.3209 0.0
H181 H 0.10632 0.05223 0.39576 0.0
C182 C 0.16252 0.94409 0.19218 0.0
C183 C 0.19772 0.92468 0.19561 0.0
C184 C 0.15144 0.96248 0.24323 0.0
C185 C 0.17468 0.96126 0.29967 0.0
C186 C 0.20978 0.94196 0.30382 0.0
C187 C 0.22143 0.92431 0.25222 0.0
C188 C 0.13076 0.96111 0.44221 0.0
C189 C 0.11222 0.99724 0.44016 0.0
C190 C 0.15468 0.95095 0.40003 0.0
C191 C 0.15968 0.97643 0.35424 0.0
C192 C 0.14405 1.01398 0.35577 0.0
C193 C 0.12081 1.02449 0.39894 0.0
H194 H 0.7161 0.62454 0.69487 0.0
H195 H 0.68736 0.73811 0.7615 0.0
H196 H 0.69652 0.59518 0.78306 0.0
H197 H 0.66567 0.70913 0.84768 0.0
H198 H 0.63208 0.65852 1.00555 0.0
H199 H 0.67576 0.67903 0.93841 0.0
H200 H 0.64186 0.57875 0.82013 0.0
H201 H 0.60067 0.55727 0.88998 0.0
C202 C 0.7056 0.64318 0.72862 0.0
C203 C 0.70307 0.68356 0.72131 0.0
C204 C 0.69417 0.62639 0.77913 0.0
C205 C 0.67915 0.6495 0.82301 0.0
C206 C 0.67777 0.69015 0.81613 0.0
C207 C 0.68991 0.70693 0.76628 0.0
C208 C 0.63573 0.6399 0.96682 0.0
C209 C 0.61342 0.60614 0.95317 0.0
C210 C 0.66007 0.65207 0.9274 0.0
C211 C 0.66156 0.63145 0.87229 0.0
C212 C 0.64187 0.59558 0.86187 0.0
C213 C 0.61829 0.58294 0.90221 0.0
H214 H 0.8196 0.19085 0.16152 0.0
H215 H 0.92321 0.18348 0.08256 0.0
H216 H 0.85286 0.162 0.2538 0.0
H217 H 0.95567 0.15407 0.17336 0.0
H218 H 0.97085 0.04518 0.29096 0.0
H219 H 0.9401 0.08536 0.21085 0.0
H220 H 0.91524 0.17191 0.34326 0.0
H221 H 0.94701 0.13153 0.42474 0.0
C222 C 0.84952 0.18377 0.16417 0.0
C223 C 0.86847 0.18866 0.11405 0.0
C224 C 0.86853 0.16729 0.21696 0.0
C225 C 0.90668 0.15534 0.22031 0.0
C226 C 0.92612 0.16247 0.17169 0.0
C227 C 0.90738 0.17911 0.11953 0.0
C228 C 0.95898 0.07279 0.30335 0.0
C229 C 0.96139 0.08511 0.36435 0.0
C230 C 0.94149 0.09589 0.25731 0.0
C231 C 0.92533 0.13177 0.27079 0.0
C232 C 0.92741 0.14429 0.33171 0.0
C233 C 0.94575 0.12135 0.37817 0.0
H234 H 0.3249 0.40766 0.64696 0.0
H235 H 0.42437 0.42465 0.56088 0.0
H236 H 0.359 0.43717 0.74116 0.0
H237 H 0.45782 0.45461 0.65411 0.0
H238 H 0.47646 0.55799 0.79214 0.0
H239 H 0.4465 0.51851 0.70598 0.0
H240 H 0.4182 0.43092 0.82551 0.0
H241 H 0.44883 0.47083 0.91311 0.0
C242 C 0.35413 0.41713 0.64825 0.0
C243 C 0.37156 0.41445 0.59579 0.0
C244 C 0.37367 0.43399 0.70227 0.0
C245 C 0.41094 0.44865 0.70485 0.0
C246 C 0.42889 0.44424 0.65329 0.0
C247 C 0.40957 0.42726 0.59968 0.0
C248 C 0.46405 0.53025 0.80041 0.0
C249 C 0.46496 0.51767 0.85969 0.0
C250 C 0.44706 0.50748 0.75082 0.0
C251 C 0.43004 0.47153 0.75881 0.0
C252 C 0.43099 0.45859 0.818 0.0
C253 C 0.4487 0.48128 0.86802 0.0
H254 H 0.66679 0.74023 0.45539 0.0
H255 H 0.69785 0.62598 0.51929 0.0
H256 H 0.63192 0.71057 0.36165 0.0
H257 H 0.66392 0.59657 0.42622 0.0
H258 H 0.56415 0.55196 0.29823 0.0
H259 H 0.59796 0.58801 0.38484 0.0
H260 H 0.63584 0.67148 0.2667 0.0
H261 H 0.60065 0.63527 0.17871 0.0
C262 C 0.66662 0.70885 0.44904 0.0
C263 C 0.68453 0.6854 0.4952 0.0
C264 C 0.64668 0.69187 0.39536 0.0
C265 C 0.6444 0.65113 0.38679 0.0
C266 C 0.66402 0.62799 0.43188 0.0
C267 C 0.68362 0.64484 0.4853 0.0
C268 C 0.57947 0.57812 0.29042 0.0
C269 C 0.58016 0.59038 0.2314 0.0
C270 C 0.59913 0.59872 0.34026 0.0
C271 C 0.62056 0.63211 0.33285 0.0
C272 C 0.61975 0.64576 0.27402 0.0
C273 C 0.59961 0.62509 0.22364 0.0
H274 H 0.79743 0.18377 0.8298 0.0
H275 H 0.90919 0.16172 0.92996 0.0
H276 H 0.81774 0.15388 0.73902 0.0
H277 H 0.92767 0.12956 0.84103 0.0
H278 H 0.94197 0.04761 0.68823 0.0
H279 H 0.90072 0.06581 0.76301 0.0
H280 H 0.88118 0.17762 0.68292 0.0
H281 H 0.92343 0.15998 0.6097 0.0
C282 C 0.82608 0.17243 0.83299 0.0
C283 C 0.85145 0.17516 0.88803 0.0
C284 C 0.8374 0.15485 0.78109 0.0
C285 C 0.87389 0.13868 0.78364 0.0
C286 C 0.89898 0.14085 0.8384 0.0
C287 C 0.88817 0.15925 0.88958 0.0
C288 C 0.92725 0.07523 0.68469 0.0
C289 C 0.93573 0.10242 0.64331 0.0
C290 C 0.90395 0.08575 0.72772 0.0
C291 C 0.88809 0.12319 0.72876 0.0
C292 C 0.89285 0.14852 0.68272 0.0
C293 C 0.91687 0.13838 0.64071 0.0
H294 H 0.3605 0.36818 0.3277 0.0
H295 H 0.33205 0.48067 0.39878 0.0
H296 H 0.38034 0.39838 0.24116 0.0
H297 H 0.34982 0.5113 0.31023 0.0
H298 H 0.44434 0.55074 0.20135 0.0
H299 H 0.40363 0.52865 0.27147 0.0
H300 H 0.36877 0.42941 0.15144 0.0
H301 H 0.41207 0.45046 0.08406 0.0
C302 C 0.35757 0.39938 0.32383 0.0
C303 C 0.34505 0.42209 0.37011 0.0
C304 C 0.36864 0.41688 0.27377 0.0
C305 C 0.36683 0.4576 0.26799 0.0
C306 C 0.35244 0.48005 0.31324 0.0
C307 C 0.34206 0.46253 0.36396 0.0
C308 C 0.4266 0.52518 0.18883 0.0
C309 C 0.43119 0.50233 0.13738 0.0
C310 C 0.40328 0.5122 0.22931 0.0
C311 C 0.38358 0.47636 0.21849 0.0
C312 C 0.38456 0.45629 0.16277 0.0
C313 C 0.40866 0.46877 0.12322 0.0
H314 H 0.21589 0.97126 0.99293 0.0
H315 H 0.15833 0.86316 0.93282 0.0
H316 H 0.18482 1.00215 0.90247 0.0
H317 H 0.12597 0.89446 0.84217 0.0
H318 H 0.0943 0.96517 0.66448 0.0
H319 H 0.12998 0.92736 0.74553 0.0
H320 H 0.12041 1.02262 0.87313 0.0
H321 H 0.08606 0.06003 0.79351 0.0
C322 C 0.19676 0.95404 0.95989 0.0
C323 C 0.18921 0.91498 0.97016 0.0
C324 C 0.1787 0.97175 0.90819 0.0
C325 C 0.1521 0.95109 0.86558 0.0
C326 C 0.14623 0.91125 0.87399 0.0
C327 C 0.16472 0.89332 0.92583 0.0
C328 C 0.09976 0.97783 0.70999 0.0
C329 C 0.08779 1.01594 0.72211 0.0
C330 C 0.12017 0.95618 0.75639 0.0
C331 C 0.1289 0.97227 0.81569 0.0
C332 C 0.11542 1.00968 0.82779 0.0
C333 C 0.09539 0.03116 0.78189 0.0
loop_
_geom_bond_atom_site_label_1
_geom_bond_atom_site_label_2
_geom_bond_distance
_geom_bond_site_symmetry_2
_ccdc_geom_bond_type
H0 C7 0.929 . S
H1 C10 0.930 . S
H2 C12 0.929 1_556 S
H3 C4 0.969 . S
C4 H3 0.969 . S
C4 O5 1.550 . S
C4 H6 0.973 . S
O5 C4 1.550 . S
O5 C11 1.412 . S
H6 C4 0.973 . S
C7 H0 0.929 . S
C7 C8 1.400 . S
C7 C9 1.364 . S
C8 C7 1.400 . S
C8 C12 1.377 . S
C9 C7 1.364 . S
C9 C10 1.374 . S
C10 H1 0.930 . S
C10 C9 1.374 . S
C10 C11 1.383 . S
C11 O5 1.412 . S
C11 C10 1.383 . S
C11 C12 1.394 . S
C12 H2 0.929 1_554 S
C12 C8 1.377 . S
C12 C11 1.394 . S
H13 C20 0.929 . S
H14 C23 0.930 . S
H15 C25 0.929 . S
H16 C17 0.969 . S
C17 H16 0.969 . S
C17 O18 1.550 . S
C17 H19 0.973 . S
O18 C17 1.550 . S
O18 C24 1.412 . S
H19 C17 0.973 . S
C20 H13 0.929 . S
C20 C21 1.400 . S
C20 C22 1.364 . S
C21 C20 1.400 . S
C21 C25 1.377 . S
C22 C20 1.364 . S
C22 C23 1.374 . S
C23 H14 0.930 . S
C23 C22 1.374 . S
C23 C24 1.383 . S
C24 O18 1.412 . S
C24 C23 1.383 . S
C24 C25 1.394 . S
C25 H15 0.929 . S
C25 C21 1.377 . S
C25 C24 1.394 . S
H26 C33 0.929 . S
H27 C36 0.930 . S
H28 C38 0.929 . S
H29 C30 0.969 . S
C30 H29 0.969 . S
C30 O31 1.550 1_556 S
C30 H32 0.973 . S
O31 C30 1.550 1_554 S
O31 C37 1.412 . S
H32 C30 0.973 . S
C33 H26 0.929 . S
C33 C34 1.400 . S
C33 C35 1.364 1_554 S
C34 C33 1.400 . S
C34 C38 1.377 . S
C35 C33 1.364 1_556 S
C35 C36 1.374 . S
C36 H27 0.930 . S
C36 C35 1.374 . S
C36 C37 1.383 1_556 S
C37 O31 1.412 . S
C37 C36 1.383 1_554 S
C37 C38 1.394 . S
C38 H28 0.929 . S
C38 C34 1.377 . S
C38 C37 1.394 . S
H39 C46 0.929 . S
H40 C49 0.930 . S
H41 C51 0.929 . S
H42 C43 0.969 . S
C43 H42 0.969 . S
C43 O44 1.550 . S
C43 H45 0.973 . S
O44 C43 1.550 . S
O44 C50 1.412 . S
H45 C43 0.973 . S
C46 H39 0.929 . S
C46 C47 1.400 . S
C46 C48 1.364 . S
C47 C46 1.400 . S
C47 C51 1.377 . S
C48 C46 1.364 . S
C48 C49 1.374 . S
C49 H40 0.930 . S
C49 C48 1.374 . S
C49 C50 1.383 . S
C50 O44 1.412 . S
C50 C49 1.383 . S
C50 C51 1.394 . S
C51 H41 0.929 . S
C51 C47 1.377 . S
C51 C50 1.394 . S
O52 Mn53 2.163 1_655 S
O52 C66 1.244 . S
Mn53 O52 2.163 1_455 S
Mn53 O56 2.160 1_545 S
Mn53 O57 2.221 . S
Mn53 O59 2.163 1_455 S
Mn53 O61 2.160 1_545 S
Mn53 O71 2.221 1_445 S
O54 Mn55 2.087 1_545 S
O54 C66 1.256 . S
Mn55 O54 2.087 1_565 S
Mn55 O62 2.089 1_655 S
Mn55 O71 2.290 . S
Mn55 O72 2.251 . S
O56 Mn53 2.160 1_565 S
O56 C67 1.239 . S
O57 Mn53 2.221 . S
O57 Mn58 2.290 . S
O57 C68 1.278 . S
Mn58 O57 2.290 . S
Mn58 O60 2.089 . S
Mn58 O63 2.251 . S
Mn58 O64 2.087 . S
O59 Mn53 2.163 1_655 S
O59 C69 1.244 . S
O60 Mn58 2.089 . S
O60 C67 1.256 1_545 S
O61 Mn53 2.160 1_565 S
O61 C70 1.239 . S
O62 Mn55 2.089 1_455 S
O62 C70 1.256 . S
O63 Mn58 2.251 . S
O63 C68 1.241 . S
O64 Mn58 2.087 . S
O64 C69 1.256 1_455 S
C65 O71 1.278 . S
C65 O72 1.241 . S
C66 O52 1.244 . S
C66 O54 1.256 . S
C67 O56 1.239 . S
C67 O60 1.256 1_565 S
C68 O57 1.278 . S
C68 O63 1.241 . S
C69 O59 1.244 . S
C69 O64 1.256 1_655 S
C70 O61 1.239 . S
C70 O62 1.256 . S
O71 Mn53 2.221 1_665 S
O71 Mn55 2.290 . S
O71 C65 1.278 . S
O72 Mn55 2.251 . S
O72 C65 1.241 . S
O73 Mn74 2.163 . S
O73 C87 1.244 . S
Mn74 O73 2.163 . S
Mn74 O77 2.160 1_554 S
Mn74 O78 2.221 . S
Mn74 O80 2.163 1_554 S
Mn74 O82 2.160 . S
Mn74 O92 2.221 . S
O75 Mn76 2.087 . S
O75 C87 1.256 . S
Mn76 O75 2.087 . S
Mn76 O83 2.089 . S
Mn76 O92 2.290 . S
Mn76 O93 2.251 . S
O77 Mn74 2.160 1_556 S
O77 C88 1.239 . S
O78 Mn74 2.221 . S
O78 Mn79 2.290 1_554 S
O78 C89 1.278 . S
Mn79 O78 2.290 1_556 S
Mn79 O81 2.089 . S
Mn79 O84 2.251 . S
Mn79 O85 2.087 . S
O80 Mn74 2.163 1_556 S
O80 C90 1.244 . S
O81 Mn79 2.089 . S
O81 C88 1.256 . S
O82 Mn74 2.160 . S
O82 C91 1.239 . S
O83 Mn76 2.089 . S
O83 C91 1.256 . S
O84 Mn79 2.251 . S
O84 C89 1.241 1_556 S
O85 Mn79 2.087 . S
O85 C90 1.256 . S
C86 O92 1.278 . S
C86 O93 1.241 . S
C87 O73 1.244 . S
C87 O75 1.256 . S
C88 O77 1.239 . S
C88 O81 1.256 . S
C89 O78 1.278 . S
C89 O84 1.241 1_554 S
C90 O80 1.244 . S
C90 O85 1.256 . S
C91 O82 1.239 . S
C91 O83 1.256 . S
O92 Mn74 2.221 . S
O92 Mn76 2.290 . S
O92 C86 1.278 . S
O93 Mn76 2.251 . S
O93 C86 1.241 . S
H94 C102 0.950 . S
H95 C107 0.950 . S
H96 C104 0.950 . S
H97 C106 0.950 . S
H98 C108 0.950 . S
H99 C110 0.950 . S
H100 C112 0.950 . S
H101 C113 0.950 . S
C102 H94 0.950 . S
C102 C103 1.386 . S
C102 C104 1.391 . S
C103 C102 1.386 . S
C103 C107 1.393 . S
C104 H96 0.950 . S
C104 C102 1.391 . S
C104 C105 1.400 . S
C105 C104 1.400 . S
C105 C106 1.398 . S
C105 C111 1.491 . S
C106 H97 0.950 . S
C106 C105 1.398 . S
C106 C107 1.391 . S
C107 H95 0.950 . S
C107 C103 1.393 . S
C107 C106 1.391 . S
C108 H98 0.950 . S
C108 C109 1.386 . S
C108 C110 1.391 . S
C109 C108 1.386 . S
C109 C113 1.393 . S
C110 H99 0.950 . S
C110 C108 1.391 . S
C110 C111 1.400 . S
C111 C105 1.491 . S
C111 C110 1.400 . S
C111 C112 1.398 . S
C112 H100 0.950 . S
C112 C111 1.398 . S
C112 C113 1.391 . S
C113 H101 0.950 . S
C113 C109 1.393 . S
C113 C112 1.391 . S
H114 C122 0.950 . S
H115 C127 0.950 . S
H116 C124 0.950 . S
H117 C126 0.950 . S
H118 C128 0.950 . S
H119 C130 0.950 . S
H120 C132 0.950 . S
H121 C133 0.950 . S
C122 H114 0.950 . S
C122 C123 1.386 . S
C122 C124 1.391 . S
C123 C122 1.386 . S
C123 C127 1.393 . S
C124 H116 0.950 . S
C124 C122 1.391 . S
C124 C125 1.400 . S
C125 C124 1.400 . S
C125 C126 1.398 . S
C125 C131 1.491 . S
C126 H117 0.950 . S
C126 C125 1.398 . S
C126 C127 1.391 . S
C127 H115 0.950 . S
C127 C123 1.393 . S
C127 C126 1.391 . S
C128 H118 0.950 . S
C128 C129 1.386 . S
C128 C130 1.391 . S
C129 C128 1.386 . S
C129 C133 1.393 . S
C130 H119 0.950 . S
C130 C128 1.391 . S
C130 C131 1.400 . S
C131 C125 1.491 . S
C131 C130 1.400 . S
C131 C132 1.398 . S
C132 H120 0.950 . S
C132 C131 1.398 . S
C132 C133 1.391 . S
C133 H121 0.950 . S
C133 C129 1.393 . S
C133 C132 1.391 . S
H134 C142 0.950 . S
H135 C147 0.950 . S
H136 C144 0.950 . S
H137 C146 0.950 . S
H138 C148 0.950 . S
H139 C150 0.950 . S
H140 C152 0.950 . S
H141 C153 0.950 . S
C142 H134 0.950 . S
C142 C143 1.386 . S
C142 C144 1.391 . S
C143 C142 1.386 . S
C143 C147 1.393 . S
C144 H136 0.950 . S
C144 C142 1.391 . S
C144 C145 1.400 . S
C145 C144 1.400 . S
C145 C146 1.398 . S
C145 C151 1.491 . S
C146 H137 0.950 . S
C146 C145 1.398 . S
C146 C147 1.391 . S
C147 H135 0.950 . S
C147 C143 1.393 . S
C147 C146 1.391 . S
C148 H138 0.950 . S
C148 C149 1.386 . S
C148 C150 1.391 . S
C149 C148 1.386 . S
C149 C153 1.393 . S
C150 H139 0.950 . S
C150 C148 1.391 . S
C150 C151 1.400 . S
C151 C145 1.491 . S
C151 C150 1.400 . S
C151 C152 1.398 . S
C152 H140 0.950 . S
C152 C151 1.398 . S
C152 C153 1.391 . S
C153 H141 0.950 . S
C153 C149 1.393 . S
C153 C152 1.391 . S
H154 C162 0.950 . S
H155 C167 0.950 . S
H156 C164 0.950 . S
H157 C166 0.950 . S
H158 C168 0.950 . S
H159 C170 0.950 . S
H160 C172 0.950 . S
H161 C173 0.950 . S
C162 H154 0.950 . S
C162 C163 1.386 1_554 S
C162 C164 1.391 . S
C163 C162 1.386 1_556 S
C163 C167 1.393 . S
C164 H156 0.950 . S
C164 C162 1.391 . S
C164 C165 1.400 . S
C165 C164 1.400 . S
C165 C166 1.398 1_554 S
C165 C171 1.491 . S
C166 H157 0.950 . S
C166 C165 1.398 1_556 S
C166 C167 1.391 . S
C167 H155 0.950 . S
C167 C163 1.393 . S
C167 C166 1.391 . S
C168 H158 0.950 . S
C168 C169 1.386 1_556 S
C168 C170 1.391 . S
C169 C168 1.386 1_554 S
C169 C173 1.393 . S
C170 H159 0.950 . S
C170 C168 1.391 . S
C170 C171 1.400 1_556 S
C171 C165 1.491 . S
C171 C170 1.400 1_554 S
C171 C172 1.398 . S
C172 H160 0.950 . S
C172 C171 1.398 . S
C172 C173 1.391 . S
C173 H161 0.950 . S
C173 C169 1.393 . S
C173 C172 1.391 . S
H174 C182 0.950 . S
H175 C187 0.950 . S
H176 C184 0.950 . S
H177 C186 0.950 . S
H178 C188 0.950 . S
H179 C190 0.950 . S
H180 C192 0.950 . S
H181 C193 0.950 . S
C182 H174 0.950 . S
C182 C183 1.386 . S
C182 C184 1.391 . S
C183 C182 1.386 . S
C183 C187 1.393 . S
C184 H176 0.950 . S
C184 C182 1.391 . S
C184 C185 1.400 . S
C185 C184 1.400 . S
C185 C186 1.398 . S
C185 C191 1.491 . S
C186 H177 0.950 . S
C186 C185 1.398 . S
C186 C187 1.391 . S
C187 H175 0.950 . S
C187 C183 1.393 . S
C187 C186 1.391 . S
C188 H178 0.950 . S
C188 C189 1.386 . S
C188 C190 1.391 . S
C189 C188 1.386 . S
C189 C193 1.393 . S
C190 H179 0.950 . S
C190 C188 1.391 . S
C190 C191 1.400 . S
C191 C185 1.491 . S
C191 C190 1.400 . S
C191 C192 1.398 . S
C192 H180 0.950 . S
C192 C191 1.398 . S
C192 C193 1.391 . S
C193 H181 0.950 . S
C193 C189 1.393 . S
C193 C192 1.391 . S
H194 C202 0.950 . S
H195 C207 0.950 . S
H196 C204 0.950 . S
H197 C206 0.950 . S
H198 C208 0.950 . S
H199 C210 0.950 . S
H200 C212 0.950 . S
H201 C213 0.950 . S
C202 H194 0.950 . S
C202 C203 1.386 . S
C202 C204 1.391 . S
C203 C202 1.386 . S
C203 C207 1.393 . S
C204 H196 0.950 . S
C204 C202 1.391 . S
C204 C205 1.400 . S
C205 C204 1.400 . S
C205 C206 1.398 . S
C205 C211 1.491 . S
C206 H197 0.950 . S
C206 C205 1.398 . S
C206 C207 1.391 . S
C207 H195 0.950 . S
C207 C203 1.393 . S
C207 C206 1.391 . S
C208 H198 0.950 . S
C208 C209 1.386 . S
C208 C210 1.391 . S
C209 C208 1.386 . S
C209 C213 1.393 . S
C210 H199 0.950 . S
C210 C208 1.391 . S
C210 C211 1.400 . S
C211 C205 1.491 . S
C211 C210 1.400 . S
C211 C212 1.398 . S
C212 H200 0.950 . S
C212 C211 1.398 . S
C212 C213 1.391 . S
C213 H201 0.950 . S
C213 C209 1.393 . S
C213 C212 1.391 . S
H214 C222 0.950 . S
H215 C227 0.950 . S
H216 C224 0.950 . S
H217 C226 0.950 . S
H218 C228 0.950 1_455 S
H219 C230 0.950 . S
H220 C232 0.950 . S
H221 C233 0.950 . S
C222 H214 0.950 . S
C222 C223 1.386 . S
C222 C224 1.391 . S
C223 C222 1.386 . S
C223 C227 1.393 . S
C224 H216 0.950 . S
C224 C222 1.391 . S
C224 C225 1.400 . S
C225 C224 1.400 . S
C225 C226 1.398 . S
C225 C231 1.491 . S
C226 H217 0.950 . S
C226 C225 1.398 . S
C226 C227 1.391 . S
C227 H215 0.950 . S
C227 C223 1.393 . S
C227 C226 1.391 . S
C228 H218 0.950 1_655 S
C228 C229 1.386 . S
C228 C230 1.391 . S
C229 C228 1.386 . S
C229 C233 1.393 . S
C230 H219 0.950 . S
C230 C228 1.391 . S
C230 C231 1.400 . S
C231 C225 1.491 . S
C231 C230 1.400 . S
C231 C232 1.398 . S
C232 H220 0.950 . S
C232 C231 1.398 . S
C232 C233 1.391 . S
C233 H221 0.950 . S
C233 C229 1.393 . S
C233 C232 1.391 . S
H234 C242 0.950 . S
H235 C247 0.950 . S
H236 C244 0.950 . S
H237 C246 0.950 . S
H238 C248 0.950 . S
H239 C250 0.950 . S
H240 C252 0.950 . S
H241 C253 0.950 . S
C242 H234 0.950 . S
C242 C243 1.386 . S
C242 C244 1.391 . S
C243 C242 1.386 . S
C243 C247 1.393 . S
C244 H236 0.950 . S
C244 C242 1.391 . S
C244 C245 1.400 . S
C245 C244 1.400 . S
C245 C246 1.398 . S
C245 C251 1.491 . S
C246 H237 0.950 . S
C246 C245 1.398 . S
C246 C247 1.391 . S
C247 H235 0.950 . S
C247 C243 1.393 . S
C247 C246 1.391 . S
C248 H238 0.950 . S
C248 C249 1.386 . S
C248 C250 1.391 . S
C249 C248 1.386 . S
C249 C253 1.393 . S
C250 H239 0.950 . S
C250 C248 1.391 . S
C250 C251 1.400 . S
C251 C245 1.491 . S
C251 C250 1.400 . S
C251 C252 1.398 . S
C252 H240 0.950 . S
C252 C251 1.398 . S
C252 C253 1.391 . S
C253 H241 0.950 . S
C253 C249 1.393 . S
C253 C252 1.391 . S
H254 C262 0.950 . S
H255 C267 0.950 . S
H256 C264 0.950 . S
H257 C266 0.950 . S
H258 C268 0.950 . S
H259 C270 0.950 . S
H260 C272 0.950 . S
H261 C273 0.950 . S
C262 H254 0.950 . S
C262 C263 1.386 . S
C262 C264 1.391 . S
C263 C262 1.386 . S
C263 C267 1.393 . S
C264 H256 0.950 . S
C264 C262 1.391 . S
C264 C265 1.400 . S
C265 C264 1.400 . S
C265 C266 1.398 . S
C265 C271 1.491 . S
C266 H257 0.950 . S
C266 C265 1.398 . S
C266 C267 1.391 . S
C267 H255 0.950 . S
C267 C263 1.393 . S
C267 C266 1.391 . S
C268 H258 0.950 . S
C268 C269 1.386 . S
C268 C270 1.391 . S
C269 C268 1.386 . S
C269 C273 1.393 . S
C270 H259 0.950 . S
C270 C268 1.391 . S
C270 C271 1.400 . S
C271 C265 1.491 . S
C271 C270 1.400 . S
C271 C272 1.398 . S
C272 H260 0.950 . S
C272 C271 1.398 . S
C272 C273 1.391 . S
C273 H261 0.950 . S
C273 C269 1.393 . S
C273 C272 1.391 . S
H274 C282 0.950 . S
H275 C287 0.950 . S
H276 C284 0.950 . S
H277 C286 0.950 . S
H278 C288 0.950 . S
H279 C290 0.950 . S
H280 C292 0.950 . S
H281 C293 0.950 . S
C282 H274 0.950 . S
C282 C283 1.386 . S
C282 C284 1.391 . S
C283 C282 1.386 . S
C283 C287 1.393 . S
C284 H276 0.950 . S
C284 C282 1.391 . S
C284 C285 1.400 . S
C285 C284 1.400 . S
C285 C286 1.398 . S
C285 C291 1.491 . S
C286 H277 0.950 . S
C286 C285 1.398 . S
C286 C287 1.391 . S
C287 H275 0.950 . S
C287 C283 1.393 . S
C287 C286 1.391 . S
C288 H278 0.950 . S
C288 C289 1.386 . S
C288 C290 1.391 . S
C289 C288 1.386 . S
C289 C293 1.393 . S
C290 H279 0.950 . S
C290 C288 1.391 . S
C290 C291 1.400 . S
C291 C285 1.491 . S
C291 C290 1.400 . S
C291 C292 1.398 . S
C292 H280 0.950 . S
C292 C291 1.398 . S
C292 C293 1.391 . S
C293 H281 0.950 . S
C293 C289 1.393 . S
C293 C292 1.391 . S
H294 C302 0.950 . S
H295 C307 0.950 . S
H296 C304 0.950 . S
H297 C306 0.950 . S
H298 C308 0.950 . S
H299 C310 0.950 . S
H300 C312 0.950 . S
H301 C313 0.950 . S
C302 H294 0.950 . S
C302 C303 1.386 . S
C302 C304 1.391 . S
C303 C302 1.386 . S
C303 C307 1.393 . S
C304 H296 0.950 . S
C304 C302 1.391 . S
C304 C305 1.400 . S
C305 C304 1.400 . S
C305 C306 1.398 . S
C305 C311 1.491 . S
C306 H297 0.950 . S
C306 C305 1.398 . S
C306 C307 1.391 . S
C307 H295 0.950 . S
C307 C303 1.393 . S
C307 C306 1.391 . S
C308 H298 0.950 . S
C308 C309 1.386 . S
C308 C310 1.391 . S
C309 C308 1.386 . S
C309 C313 1.393 . S
C310 H299 0.950 . S
C310 C308 1.391 . S
C310 C311 1.400 . S
C311 C305 1.491 . S
C311 C310 1.400 . S
C311 C312 1.398 . S
C312 H300 0.950 . S
C312 C311 1.398 . S
C312 C313 1.391 . S
C313 H301 0.950 . S
C313 C309 1.393 . S
C313 C312 1.391 . S
H314 C322 0.950 . S
H315 C327 0.950 . S
H316 C324 0.950 . S
H317 C326 0.950 . S
H318 C328 0.950 . S
H319 C330 0.950 . S
H320 C332 0.950 . S
H321 C333 0.950 1_545 S
C322 H314 0.950 . S
C322 C323 1.386 . S
C322 C324 1.391 . S
C323 C322 1.386 . S
C323 C327 1.393 . S
C324 H316 0.950 . S
C324 C322 1.391 . S
C324 C325 1.400 . S
C325 C324 1.400 . S
C325 C326 1.398 . S
C325 C331 1.491 . S
C326 H317 0.950 . S
C326 C325 1.398 . S
C326 C327 1.391 . S
C327 H315 0.950 . S
C327 C323 1.393 . S
C327 C326 1.391 . S
C328 H318 0.950 . S
C328 C329 1.386 . S
C328 C330 1.391 . S
C329 C328 1.386 . S
C329 C333 1.393 . S
C330 H319 0.950 . S
C330 C328 1.391 . S
C330 C331 1.400 . S
C331 C325 1.491 . S
C331 C330 1.400 . S
C331 C332 1.398 . S
C332 H320 0.950 . S
C332 C331 1.398 . S
C332 C333 1.391 . S
C333 H321 0.950 1_565 S
C333 C329 1.393 . S
C333 C332 1.391 . S
C109 C68 1.238 . S
C103 C43 1.399 . S
C123 C4 1.439 . S
C129 C89 1.297 . S
C143 C17 1.549 . S
C149 C65 1.379 . S
C163 C30 1.599 . S
C169 C86 1.413 . S
C189 C70 1.460 . S
C183 C9 1.476 . S
C209 C90 1.505 . S
C203 C21 1.579 . S
C223 C34 1.560 . S
C229 C66 1.525 . S
C243 C48 1.494 . S
C249 C88 1.428 . S
C269 C87 1.512 . S
C263 C22 1.542 . S
C289 C69 1.528 . S
C283 C35 1.556 . S
C309 C91 1.437 . S
C303 C47 1.488 . S
C323 C8 1.504 1_556 S
C329 C67 1.446 . S
