# Generated by pormake.
# Topology anh, (6,3)-cn, num edge types: 1
# Building blocks:
#     Node 0, Type 0, BuildingBlock: PAMTUU_clean_sbu_0, # of connection points: 6
#     Node 1, Type 0, BuildingBlock: PAMTUU_clean_sbu_0, # of connection points: 6
#     Node 2, Type 0, BuildingBlock: PAMTUU_clean_sbu_0, # of connection points: 6
#     Node 3, Type 1, BuildingBlock: PAMTOO_clean_linker_0, # of connection points: 3
#     Node 4, Type 1, BuildingBlock: PAMTOO_clean_linker_0, # of connection points: 3
#     Node 5, Type 1, BuildingBlock: PAMTOO_clean_linker_0, # of connection points: 3
#     Node 6, Type 1, BuildingBlock: PAMTOO_clean_linker_0, # of connection points: 3
#     Node 7, Type 1, BuildingBlock: PAMTOO_clean_linker_0, # of connection points: 3
#     Node 8, Type 1, BuildingBlock: PAMTOO_clean_linker_0, # of connection points: 3
#     Edge 9, Type (0, 1), BuildingBlock: KIFKEQ_clean_linker_1, # of connection points: 2
#     Edge 10, Type (0, 1), BuildingBlock: KIFKEQ_clean_linker_1, # of connection points: 2
#     Edge 11, Type (0, 1), BuildingBlock: KIFKEQ_clean_linker_1, # of connection points: 2
#     Edge 12, Type (0, 1), BuildingBlock: KIFKEQ_clean_linker_1, # of connection points: 2
#     Edge 13, Type (0, 1), BuildingBlock: KIFKEQ_clean_linker_1, # of connection points: 2
#     Edge 14, Type (0, 1), BuildingBlock: KIFKEQ_clean_linker_1, # of connection points: 2
#     Edge 15, Type (0, 1), BuildingBlock: KIFKEQ_clean_linker_1, # of connection points: 2
#     Edge 16, Type (0, 1), BuildingBlock: KIFKEQ_clean_linker_1, # of connection points: 2
#     Edge 17, Type (0, 1), BuildingBlock: KIFKEQ_clean_linker_1, # of connection points: 2
#     Edge 18, Type (0, 1), BuildingBlock: KIFKEQ_clean_linker_1, # of connection points: 2
#     Edge 19, Type (0, 1), BuildingBlock: KIFKEQ_clean_linker_1, # of connection points: 2
#     Edge 20, Type (0, 1), BuildingBlock: KIFKEQ_clean_linker_1, # of connection points: 2
#     Edge 21, Type (0, 1), BuildingBlock: KIFKEQ_clean_linker_1, # of connection points: 2
#     Edge 22, Type (0, 1), BuildingBlock: KIFKEQ_clean_linker_1, # of connection points: 2
#     Edge 23, Type (0, 1), BuildingBlock: KIFKEQ_clean_linker_1, # of connection points: 2
#     Edge 24, Type (0, 1), BuildingBlock: KIFKEQ_clean_linker_1, # of connection points: 2
#     Edge 25, Type (0, 1), BuildingBlock: KIFKEQ_clean_linker_1, # of connection points: 2
#     Edge 26, Type (0, 1), BuildingBlock: KIFKEQ_clean_linker_1, # of connection points: 2
# Relax obj value: 0.261
# Max RMSD: 0.156
# Mean RMSD: 0.126
data_MOF--net-anh--node1-PAMTUU_clean_sbu_0--node2-PAMTOO_clean_linker_0--edge1-KIFKEQ_clean_linker_1
_symmetry_space_group_name_H-M    P1
_symmetry_Int_Tables_number       1
_symmetry_cell_setting            triclinic
loop_
_symmetry_equiv_pos_as_xyz
'x, y, z'
_cell_length_a     31.381135
_cell_length_b     31.235154
_cell_length_c     50.484654
_cell_angle_alpha  89.285404
_cell_angle_beta   92.563617
_cell_angle_gamma 120.21871
loop_
_atom_site_label
_atom_site_type_symbol
_atom_site_fract_x
_atom_site_fract_y
_atom_site_fract_z
_atom_type_partial_charge
Tb0 Tb 0.12297 0.64453 0.14562 0.0
Tb1 Tb 0.17955 0.58286 0.1533 0.0
C2 C 0.15545 0.60881 0.09561 0.0
C3 C 1.03541 0.68709 0.15609 0.0
C4 C 0.9406 0.65794 0.17308 0.0
C5 C 0.95942 0.68911 0.15106 0.0
C6 C 1.00649 0.70353 0.14265 0.0
C7 C 1.01831 0.65892 0.17915 0.0
C8 C 0.97138 0.64476 0.1877 0.0
C9 C 1.08066 0.69488 0.14443 0.0
O10 O 1.05873 0.56704 0.14498 0.0
O11 O 1.10009 0.52494 0.15393 0.0
O12 O 0.18403 0.6182 0.19103 0.0
O13 O 1.11014 0.61357 0.18484 0.0
O14 O 0.2342 0.56435 0.14655 0.0
O15 O 0.17631 0.523 0.17383 0.0
O16 O 0.2431 0.65942 0.15018 0.0
O17 O 0.20221 0.7029 0.15299 0.0
O18 O 0.14475 0.64058 0.10583 0.0
O19 O 0.16431 0.57901 0.11048 0.0
C20 C 1.05805 0.52488 0.15003 0.0
O21 O 0.11674 0.70284 0.16125 0.0
O22 O 1.07422 0.6631 0.1259 0.0
C23 C 0.14568 0.61727 0.20074 0.0
C24 C 0.2507 0.52269 0.18244 0.0
C25 C 0.31009 0.48958 0.20816 0.0
C26 C 0.26056 0.46918 0.21451 0.0
C27 C 0.23109 0.4855 0.2017 0.0
C28 C 0.30144 0.54676 0.17823 0.0
C29 C 0.33097 0.53053 0.19112 0.0
C30 C 0.2165 0.52893 0.16396 0.0
C31 C 0.24411 0.70219 0.15227 0.0
H32 H 0.93655 0.69935 0.13905 0.0
H33 H 1.01915 0.72518 0.12479 0.0
H34 H 1.04021 0.64586 0.18984 0.0
H35 H 0.95816 0.62122 0.20486 0.0
H36 H 0.2436 0.43777 0.22763 0.0
H37 H 0.19202 0.46619 0.20534 0.0
H38 H 0.31762 0.57548 0.16351 0.0
H39 H 0.36894 0.54677 0.18558 0.0
Tb40 Tb 0.63112 1.06199 0.47926 0.0
Tb41 Tb 0.75025 0.1205 0.48338 0.0
C42 C 0.69188 0.09623 0.42755 0.0
C43 C 0.4962 0.98268 0.49459 0.0
C44 C 0.40461 0.92072 0.5172 0.0
C45 C 0.4147 0.90927 0.49221 0.0
C46 C 0.45996 0.94013 0.48096 0.0
C47 C 0.48764 0.99188 0.52051 0.0
C48 C 0.44218 0.96124 0.53166 0.0
C49 C 0.53844 1.0208 0.48014 0.0
O50 O 0.64628 0.99944 0.4778 0.0
O51 O 0.73014 1.04128 0.48706 0.0
O52 O 0.72375 0.1253 0.52186 0.0
O53 O 0.65354 1.05075 0.51841 0.0
O54 O 0.81916 0.16533 0.46725 0.0
O55 O 0.81372 0.13456 0.5063 0.0
O56 O 0.73603 0.18352 0.48003 0.0
O57 O 0.65293 0.14098 0.48696 0.0
O58 O 0.65152 0.08689 0.43908 0.0
O59 O 0.73107 0.102 0.44127 0.0
C60 C 0.68794 0.999 0.48311 0.0
O61 O 0.56925 1.06087 0.49341 0.0
O62 O 0.56089 1.00662 0.46429 0.0
C63 C 0.68741 0.08704 0.53301 0.0
C64 C 0.88351 0.21207 0.49822 0.0
C65 C 0.96215 0.3088 0.50799 0.0
C66 C 0.9714 0.27053 0.50183 0.0
C67 C 0.93227 0.22249 0.49693 0.0
C68 C 0.87404 0.24923 0.50612 0.0
C69 C 0.91315 0.29732 0.51104 0.0
C70 C 0.84328 0.16399 0.48863 0.0
C71 C 0.69467 0.18361 0.4843 0.0
H72 H 0.38627 0.87866 0.4804 0.0
H73 H 0.46539 0.93239 0.46092 0.0
H74 H 0.51485 1.02436 0.53164 0.0
H75 H 0.43548 0.97072 0.551 0.0
H76 H 1.00878 0.27827 0.49955 0.0
H77 H 0.94005 0.19401 0.49092 0.0
H78 H 0.83644 0.24163 0.50716 0.0
H79 H 0.90481 0.32611 0.51543 0.0
Tb80 Tb 0.6699 0.55381 0.81295 0.0
Tb81 Tb 0.73041 0.67267 0.81768 0.0
C82 C 0.70002 0.61781 0.76141 0.0
C83 C 0.61698 0.41901 0.82977 0.0
C84 C 0.59451 0.32811 0.85333 0.0
C85 C 0.61908 0.34245 0.82935 0.0
C86 C 0.62995 0.38731 0.81764 0.0
C87 C 0.59598 0.40652 0.8548 0.0
C88 C 0.5848 0.36144 0.86644 0.0
C89 C 0.61877 0.46071 0.81472 0.0
O90 O 0.74783 0.56966 0.81201 0.0
O91 O 0.78958 0.65286 0.82244 0.0
O92 O 0.69547 0.64195 0.85511 0.0
O93 O 0.70395 0.57493 0.85207 0.0
O94 O 0.75596 0.74336 0.80201 0.0
O95 O 0.77801 0.73437 0.84188 0.0
O96 O 0.65327 0.65829 0.81277 0.0
O97 O 0.61181 0.57426 0.81912 0.0
O98 O 0.66788 0.57639 0.77241 0.0
O99 O 0.73182 0.65683 0.77567 0.0
C100 C 0.78995 0.61122 0.81797 0.0
O101 O 0.6098 0.4908 0.82778 0.0
O102 O 0.65417 0.48418 0.7983 0.0
C103 C 0.69676 0.60472 0.86645 0.0
C104 C 0.76723 0.80286 0.83384 0.0
C105 C 0.74892 0.87924 0.84743 0.0
C106 C 0.79533 0.88389 0.85344 0.0
C107 C 0.80443 0.84605 0.84656 0.0
C108 C 0.72017 0.79685 0.82915 0.0
C109 C 0.71123 0.83473 0.83565 0.0
C110 C 0.77836 0.76548 0.82433 0.0
C111 C 0.61135 0.61644 0.81656 0.0
H112 H 0.6264 0.3173 0.8185 0.0
H113 H 0.6458 0.39575 0.79831 0.0
H114 H 0.58557 0.43018 0.86476 0.0
H115 H 0.56609 0.35145 0.88496 0.0
H116 H 0.82498 0.91718 0.86285 0.0
H117 H 0.84087 0.85102 0.85056 0.0
H118 H 0.69076 0.76361 0.81952 0.0
H119 H 0.67528 0.82981 0.83015 0.0
H120 H 0.76423 0.20861 0.22716 0.0
H121 H 0.62062 0.07825 0.22149 0.0
H122 H 0.68938 0.15543 0.15024 0.0
H123 H 0.60782 1.0131 0.18536 0.0
C124 C 0.59431 1.02463 0.16747 0.0
O125 O 0.60675 1.07464 0.17059 0.0
H126 H 0.6155 1.02316 0.15079 0.0
C127 C 0.73315 0.18198 0.21478 0.0
C128 C 0.73341 0.18879 0.18703 0.0
C129 C 0.69299 0.14269 0.22724 0.0
C130 C 0.65151 0.10836 0.21183 0.0
C131 C 0.64945 0.11074 0.18409 0.0
C132 C 0.69065 0.15203 0.17158 0.0
H133 H 0.68964 0.69249 0.55775 0.0
H134 H 0.69954 0.56035 0.55494 0.0
H135 H 0.69565 0.63266 0.48207 0.0
H136 H 0.65206 0.50417 0.47788 0.0
C137 C 0.66755 0.50549 0.49826 0.0
O138 O 0.70424 0.55519 0.50407 0.0
H139 H 0.63641 0.49457 0.51155 0.0
C140 C 0.69159 0.66469 0.54605 0.0
C141 C 0.69138 0.66838 0.5182 0.0
C142 C 0.69433 0.62618 0.5593 0.0
C143 C 0.69663 0.58946 0.5446 0.0
C144 C 0.69701 0.59033 0.51679 0.0
C145 C 0.69469 0.63064 0.50347 0.0
H146 H 1.10259 0.61508 0.89208 0.0
H147 H 0.23222 0.60204 0.89024 0.0
H148 H 0.16079 0.61083 0.81668 0.0
H149 H 0.30159 0.65893 0.85865 0.0
C150 C 0.29008 0.64031 0.83888 0.0
O151 O 0.23947 0.60301 0.83902 0.0
H152 H 0.29303 0.66911 0.82472 0.0
C153 C 0.12991 0.61317 0.88051 0.0
C154 C 0.12511 0.61318 0.85264 0.0
C155 C 0.16798 0.60935 0.89408 0.0
C156 C 0.20325 0.60538 0.87964 0.0
C157 C 0.203 0.60738 0.85175 0.0
C158 C 0.16276 0.61056 0.83813 0.0
H159 H 0.11943 0.60166 0.40706 0.0
H160 H 0.11941 0.7374 0.39037 0.0
H161 H 0.11976 0.69144 0.47067 0.0
H162 H 1.05563 0.72504 0.46026 0.0
C163 C 1.08672 0.76262 0.45575 0.0
O164 O 0.12035 0.76033 0.43985 0.0
H165 H 1.0708 0.78321 0.44527 0.0
C166 C 0.12044 0.63497 0.41381 0.0
C167 C 0.11887 0.64229 0.44102 0.0
C168 C 0.12125 0.66923 0.39522 0.0
C169 C 0.11834 0.71014 0.40421 0.0
C170 C 0.11764 0.71811 0.43137 0.0
C171 C 0.11927 0.68486 0.44969 0.0
H172 H 0.66847 1.07116 0.74078 0.0
H173 H 0.53729 1.07343 0.71529 0.0
H174 H 0.57859 0.08646 0.79778 0.0
H175 H 0.47753 1.00448 0.77791 0.0
C176 C 0.47105 1.03623 0.77502 0.0
O177 O 0.50999 1.07577 0.76294 0.0
H178 H 0.43697 1.02287 0.76216 0.0
C179 C 0.63754 1.07533 0.74567 0.0
C180 C 0.62754 0.07783 0.77239 0.0
C181 C 0.60646 1.07566 0.72484 0.0
C182 C 0.56261 1.07444 0.73091 0.0
C183 C 0.55217 0.07686 0.75725 0.0
C184 C 0.58599 0.08167 0.7777 0.0
H185 H 0.66228 0.52663 0.0652 0.0
H186 H 0.50821 0.43595 0.04173 0.0
H187 H 0.55635 0.44708 0.12373 0.0
H188 H 0.48874 0.35648 0.11026 0.0
C189 C 0.46138 0.36888 0.10659 0.0
O190 O 0.47906 0.40915 0.08986 0.0
H191 H 0.42778 0.33763 0.0969 0.0
C192 C 0.62432 0.50168 0.07016 0.0
C193 C 0.61344 0.48806 0.09658 0.0
C194 C 0.58661 0.48391 0.05022 0.0
C195 C 0.5379 0.44984 0.05681 0.0
C196 C 0.52675 0.43678 0.08331 0.0
C197 C 0.5646 0.4569 0.1032 0.0
H198 H 0.40666 0.52443 0.22491 0.0
H199 H 0.27192 0.39067 0.20132 0.0
H200 H 0.45414 0.48572 0.21299 0.0
H201 H 0.31887 0.35298 0.18864 0.0
H202 H 0.40685 0.3059 0.14564 0.0
H203 H 0.37842 0.32574 0.18578 0.0
H204 H 0.4602 0.48108 0.16608 0.0
H205 H 0.48749 0.46182 0.12699 0.0
C206 C 0.3871 0.48609 0.21831 0.0
C207 C 0.33585 0.46127 0.21308 0.0
C208 C 0.41421 0.46389 0.21142 0.0
C209 C 0.39038 0.41725 0.19861 0.0
C210 C 0.3386 0.38921 0.19808 0.0
C211 C 0.31149 0.41107 0.20534 0.0
C212 C 0.41918 0.34426 0.15031 0.0
C213 C 0.44852 0.38187 0.13272 0.0
C214 C 0.40328 0.35566 0.17332 0.0
C215 C 0.41705 0.40502 0.17926 0.0
C216 C 0.44949 0.44273 0.16264 0.0
C217 C 0.46477 0.43139 0.13972 0.0
H218 H 1.03155 0.35073 0.47113 0.0
H219 H 0.98163 0.38545 0.54175 0.0
H220 H 1.08348 0.43792 0.46259 0.0
H221 H 1.03529 0.47382 0.53367 0.0
H222 H 1.05043 0.60163 0.47841 0.0
H223 H 1.02651 0.52557 0.50233 0.0
H224 H 0.14885 0.51864 0.47075 0.0
H225 H 0.17127 0.59406 0.44579 0.0
C226 C 1.03322 0.37711 0.48547 0.0
C227 C 1.00203 0.36126 0.50693 0.0
C228 C 1.06329 0.42744 0.48061 0.0
C229 C 1.06318 0.4632 0.49722 0.0
C230 C 1.03539 0.44728 0.52012 0.0
C231 C 1.0048 0.39674 0.52482 0.0
C232 C 1.07298 0.58455 0.47718 0.0
C233 C 0.11209 0.60305 0.45992 0.0
C234 C 1.05948 0.54097 0.49104 0.0
C235 C 1.08522 0.5153 0.48816 0.0
C236 C 0.12741 0.5367 0.47288 0.0
C237 C 0.14041 0.57991 0.45866 0.0
H238 H 0.66418 0.87729 0.8607 0.0
H239 H 0.81523 0.97865 0.8414 0.0
H240 H 0.64355 0.94049 0.85167 0.0
H241 H 0.7962 1.04435 0.83559 0.0
H242 H 0.72547 0.102 0.77378 0.0
H243 H 0.76229 1.06579 0.80196 0.0
H244 H 0.63765 1.00839 0.85248 0.0
H245 H 0.59731 1.03764 0.82193 0.0
C246 C 0.69343 0.91361 0.8552 0.0
C247 C 0.74074 0.92191 0.85047 0.0
C248 C 0.68183 0.9507 0.8505 0.0
C249 C 0.71773 0.99779 0.84175 0.0
C250 C 0.76682 1.00808 0.84096 0.0
C251 C 0.77806 0.97039 0.84485 0.0
C252 C 0.70536 0.08103 0.79065 0.0
C253 C 0.6568 1.07035 0.79431 0.0
C254 C 0.7273 1.0611 0.80746 0.0
C255 C 0.7021 1.03163 0.82911 0.0
C256 C 0.65718 1.02821 0.83522 0.0
C257 C 0.63428 1.04624 0.81777 0.0
H258 H 0.88062 0.56062 0.18488 0.0
H259 H 0.87852 0.69617 0.16991 0.0
H260 H 0.79189 0.5131 0.17665 0.0
H261 H 0.78957 0.64799 0.16063 0.0
H262 H 0.62724 0.54512 0.14021 0.0
H263 H 0.70028 0.58292 0.17096 0.0
H264 H 0.7618 0.50821 0.129 0.0
H265 H 0.68977 0.47151 0.09848 0.0
C266 C 0.86112 0.58059 0.18097 0.0
C267 C 0.88685 0.63217 0.17728 0.0
C268 C 0.8102 0.55317 0.17607 0.0
C269 C 0.78427 0.5768 0.16728 0.0
C270 C 0.80877 0.6288 0.16722 0.0
C271 C 0.85979 0.65634 0.17225 0.0
C272 C 0.65619 0.5363 0.13808 0.0
C273 C 0.65364 0.50601 0.11704 0.0
C274 C 0.69768 0.55774 0.15558 0.0
C275 C 0.73637 0.54811 0.15248 0.0
C276 C 0.73216 0.51556 0.13221 0.0
C277 C 0.69132 0.49499 0.11456 0.0
H278 H 0.35485 0.96373 0.53603 0.0
H279 H 0.33737 0.82142 0.51646 0.0
H280 H 0.26547 0.92659 0.53614 0.0
H281 H 0.24813 0.78447 0.5161 0.0
H282 H 1.09382 0.72383 0.50392 0.0
H283 H 0.16676 0.76291 0.53416 0.0
H284 H 0.21721 0.90139 0.4932 0.0
H285 H 0.14541 0.86196 0.46283 0.0
C286 C 0.33202 0.9241 0.53289 0.0
C287 C 0.35298 0.89558 0.52565 0.0
C288 C 0.28078 0.90291 0.53286 0.0
C289 C 0.24975 0.85288 0.52567 0.0
C290 C 0.27092 0.82312 0.52182 0.0
C291 C 0.32211 0.84435 0.52172 0.0
C292 C 0.11957 0.76313 0.50218 0.0
C293 C 0.11496 0.78971 0.48067 0.0
C294 C 0.16125 0.78547 0.51947 0.0
C295 C 0.1983 0.83483 0.51564 0.0
C296 C 0.18942 0.86328 0.49675 0.0
C297 C 0.14817 0.84077 0.4793 0.0
H298 H 0.50036 0.26843 0.86874 0.0
H299 H 0.63536 0.26859 0.85528 0.0
H300 H 0.45419 0.1785 0.86499 0.0
H301 H 0.58915 0.17895 0.85079 0.0
H302 H 0.50916 1.03073 0.82417 0.0
H303 H 0.53057 0.09086 0.86014 0.0
H304 H 0.44291 0.14503 0.81976 0.0
H305 H 0.42278 0.086 0.78397 0.0
C306 C 0.52059 0.2492 0.86625 0.0
C307 C 0.57128 0.27557 0.86142 0.0
C308 C 0.494 0.19758 0.86399 0.0
C309 C 0.5177 0.17174 0.85676 0.0
C310 C 0.56955 0.19761 0.85622 0.0
C311 C 0.59612 0.24917 0.8585 0.0
C312 C 0.49276 1.05407 0.82372 0.0
C313 C 0.46534 1.0548 0.80113 0.0
C314 C 0.50499 0.08844 0.84428 0.0
C315 C 0.48944 0.12348 0.84252 0.0
C316 C 0.45556 0.11862 0.82186 0.0
C317 C 0.44395 0.08479 0.80122 0.0
H318 H 0.60822 0.9013 0.4818 0.0
H319 H 0.76684 0.98149 0.49032 0.0
H320 H 0.6078 0.82302 0.48679 0.0
H321 H 0.76662 0.90337 0.49553 0.0
H322 H 0.75876 0.75091 0.48925 0.0
H323 H 0.75795 0.82798 0.47958 0.0
H324 H 0.61594 0.76627 0.51411 0.0
H325 H 0.61702 0.68996 0.52341 0.0
C326 C 0.64328 0.90267 0.48469 0.0
C327 C 0.68754 0.94922 0.48555 0.0
C328 C 0.64311 0.85703 0.48778 0.0
C329 C 0.68721 0.85499 0.49175 0.0
C330 C 0.73149 0.90168 0.49227 0.0
C331 C 0.73162 0.94731 0.48939 0.0
C332 C 0.72663 0.75308 0.49408 0.0
C333 C 0.68737 0.71244 0.5066 0.0
C334 C 0.72644 0.79822 0.48893 0.0
C335 C 0.68686 0.80522 0.49595 0.0
C336 C 0.64713 0.7638 0.5078 0.0
C337 C 0.64761 0.71915 0.51314 0.0
H338 H 0.80994 0.53292 0.81418 0.0
H339 H 0.88564 0.69052 0.82757 0.0
H340 H 0.88871 0.53427 0.81943 0.0
H341 H 0.96411 0.69246 0.83205 0.0
H342 H 1.09961 0.68372 0.863 0.0
H343 H 1.02232 0.68255 0.85439 0.0
H344 H 0.9661 0.54742 0.80885 0.0
H345 H 1.04423 0.54835 0.81841 0.0
C346 C 0.84323 0.56817 0.81809 0.0
C347 C 0.83975 0.61155 0.82046 0.0
C348 C 0.88936 0.56909 0.82102 0.0
C349 C 0.93505 0.61348 0.82649 0.0
C350 C 0.93124 0.65682 0.82849 0.0
C351 C 0.88527 0.65584 0.82566 0.0
C352 C 1.07143 0.65414 0.85055 0.0
C353 C 1.08021 0.6168 0.8411 0.0
C354 C 1.02599 0.65332 0.84551 0.0
C355 C 0.9856 0.61486 0.83067 0.0
C356 C 0.99473 0.57787 0.82059 0.0
C357 C 1.04064 0.5788 0.82567 0.0
H358 H 0.2653 0.79779 0.16631 0.0
H359 H 0.33884 0.72026 0.14292 0.0
H360 H 0.34495 0.87561 0.16943 0.0
H361 H 0.41814 0.79778 0.14576 0.0
H362 H 0.55193 0.9501 0.1294 0.0
H363 H 0.47035 0.87615 0.126 0.0
H364 H 0.42637 0.9271 0.19274 0.0
H365 H 0.50931 1.0017 0.19624 0.0
C366 C 0.29825 0.79694 0.16173 0.0
C367 C 0.29421 0.75136 0.15423 0.0
C368 C 0.34461 0.84218 0.16368 0.0
C369 C 0.38958 0.84466 0.15777 0.0
C370 C 0.38534 0.79897 0.15022 0.0
C371 C 0.33918 0.7537 0.14869 0.0
C372 C 0.52478 0.94662 0.14308 0.0
C373 C 0.53821 0.98403 0.16261 0.0
C374 C 0.47745 0.90306 0.14138 0.0
C375 C 0.44017 0.89382 0.15914 0.0
C376 C 0.45292 0.93185 0.17834 0.0
C377 C 0.50089 0.97545 0.18027 0.0
H378 H 0.6198 0.19983 0.49997 0.0
H379 H 0.7692 0.28178 0.47477 0.0
H380 H 0.61845 0.27688 0.50444 0.0
H381 H 0.76793 0.35947 0.47916 0.0
H382 H 0.7309 0.48944 0.46663 0.0
H383 H 0.73947 0.41547 0.46351 0.0
H384 H 0.64342 0.35071 0.52859 0.0
H385 H 0.63529 0.42418 0.53161 0.0
C386 C 0.65269 0.23419 0.49533 0.0
C387 C 0.69461 0.23304 0.48693 0.0
C388 C 0.65206 0.27926 0.49811 0.0
C389 C 0.69315 0.32623 0.4924 0.0
C390 C 0.73503 0.32509 0.48372 0.0
C391 C 0.73588 0.27988 0.48127 0.0
C392 C 0.71276 0.46016 0.48084 0.0
C393 C 0.68317 0.46461 0.49981 0.0
C394 C 0.71732 0.41689 0.47892 0.0
C395 C 0.69174 0.37515 0.49551 0.0
C396 C 0.66334 0.38048 0.5149 0.0
C397 C 0.65926 0.42372 0.51697 0.0
H398 H 0.5903 0.69273 0.80667 0.0
H399 H 0.51848 0.54122 0.83221 0.0
H400 H 0.51334 0.69371 0.81075 0.0
H401 H 0.4413 0.54212 0.83647 0.0
H402 H 0.3172 0.57508 0.86463 0.0
H403 H 0.39116 0.56799 0.85925 0.0
H404 H 0.43253 0.67013 0.79436 0.0
H405 H 0.35913 0.67664 0.7997 0.0
C406 C 0.55823 0.65927 0.8131 0.0
C407 C 0.56219 0.61682 0.81888 0.0
C408 C 0.51314 0.65969 0.81538 0.0
C409 C 0.46908 0.6179 0.82394 0.0
C410 C 0.47326 0.57557 0.82999 0.0
C411 C 0.51823 0.57495 0.82735 0.0
C412 C 0.34107 0.59481 0.84861 0.0
C413 C 0.32983 0.62532 0.83217 0.0
C414 C 0.38448 0.59118 0.8456 0.0
C415 C 0.41993 0.6188 0.82639 0.0
C416 C 0.40793 0.64847 0.80974 0.0
C417 C 0.36451 0.65158 0.81254 0.0
H418 H 0.95911 0.5041 0.14806 0.0
H419 H 1.04319 0.43022 0.15803 0.0
H420 H 0.88259 0.42484 0.15412 0.0
H421 H 0.96768 0.35163 0.16341 0.0
H422 H 0.83182 0.22037 0.19835 0.0
H423 H 0.90541 0.29819 0.18902 0.0
H424 H 0.81694 0.34377 0.14236 0.0
H425 H 0.74219 0.26504 0.15257 0.0
C426 C 0.9617 0.47115 0.15132 0.0
C427 C 1.00885 0.47514 0.1525 0.0
C428 C 0.91711 0.42486 0.15475 0.0
C429 C 0.91704 0.37985 0.15966 0.0
C430 C 0.96434 0.38417 0.16039 0.0
C431 C 1.00861 0.43015 0.157 0.0
C432 C 0.82758 0.2464 0.18573 0.0
C433 C 0.77966 0.23464 0.1762 0.0
C434 C 0.8707 0.29197 0.18016 0.0
C435 C 0.86917 0.32939 0.16466 0.0
C436 C 0.82121 0.31735 0.15457 0.0
C437 C 0.7777 0.2712 0.16011 0.0
H438 H 0.2018 0.57161 0.06623 0.0
H439 H 0.11401 0.64222 0.05809 0.0
H440 H 0.20813 0.57281 0.01814 0.0
H441 H 0.11793 0.64119 0.01025 0.0
H442 H 0.1677 0.67771 0.92696 0.0
H443 H 0.16709 0.67782 0.97511 0.0
H444 H 0.17038 0.54104 0.97658 0.0
H445 H 0.17359 0.54281 0.92821 0.0
C446 C 0.18338 0.58691 0.05417 0.0
C447 C 0.15772 0.60716 0.06616 0.0
C448 C 0.18676 0.5874 0.02645 0.0
C449 C 0.16397 0.60753 0.00988 0.0
C450 C 0.13734 0.62664 0.02204 0.0
C451 C 0.13467 0.62687 0.04966 0.0
C452 C 0.16859 0.64783 0.93763 0.0
C453 C 0.17052 0.61018 0.92374 0.0
C454 C 0.16775 0.64752 0.96535 0.0
C455 C 0.16783 0.60897 0.98017 0.0
C456 C 0.17076 0.57172 0.96618 0.0
C457 C 0.17245 0.57254 0.93836 0.0
H458 H 0.77271 0.14607 0.39702 0.0
H459 H 0.61376 1.05822 0.3914 0.0
H460 H 0.77399 0.15893 0.34926 0.0
H461 H 0.61479 1.06832 0.34361 0.0
H462 H 0.62342 0.13137 0.26177 0.0
H463 H 0.62435 0.12109 0.30963 0.0
H464 H 0.76536 0.12815 0.30693 0.0
H465 H 0.76518 0.14126 0.25918 0.0
C466 C 0.73803 0.12881 0.38551 0.0
C467 C 0.69314 0.10128 0.39813 0.0
C468 C 0.73868 0.13596 0.35796 0.0
C469 C 0.69445 0.11503 0.34211 0.0
C470 C 0.64968 0.08637 0.35486 0.0
C471 C 0.64903 0.08007 0.38241 0.0
C472 C 0.65464 0.13085 0.27149 0.0
C473 C 0.69421 0.13717 0.25667 0.0
C474 C 0.65511 0.1245 0.29903 0.0
C475 C 0.69476 0.12322 0.31261 0.0
C476 C 0.73445 0.12968 0.2976 0.0
C477 C 0.73434 0.13698 0.27009 0.0
H478 H 0.73155 0.69925 0.72949 0.0
H479 H 0.66963 0.54084 0.72646 0.0
H480 H 0.72909 0.70148 0.68118 0.0
H481 H 0.67012 0.54299 0.6784 0.0
H482 H 0.63363 0.55059 0.59139 0.0
H483 H 0.63422 0.54943 0.63967 0.0
H484 H 0.76135 0.69759 0.64227 0.0
H485 H 0.7581 0.6993 0.59396 0.0
C486 C 0.71802 0.66494 0.71847 0.0
C487 C 0.70056 0.61987 0.7319 0.0
C488 C 0.71688 0.66614 0.69062 0.0
C489 C 0.69927 0.62238 0.67533 0.0
C490 C 0.68274 0.57746 0.68902 0.0
C491 C 0.68285 0.57619 0.71679 0.0
C492 C 0.6616 0.58283 0.60239 0.0
C493 C 0.69572 0.62502 0.58889 0.0
C494 C 0.66232 0.58219 0.63021 0.0
C495 C 0.69802 0.62338 0.64542 0.0
C496 C 0.73252 0.66541 0.63166 0.0
C497 C 0.73102 0.66637 0.60384 0.0
H498 H 0.62903 1.00648 0.56213 0.0
H499 H 0.73149 0.16393 0.56902 0.0
H500 H 0.61192 1.0038 0.60871 0.0
H501 H 0.71319 0.16155 0.61579 0.0
H502 H 0.54593 1.0257 0.68165 0.0
H503 H 0.56858 1.03002 0.63583 0.0
H504 H 0.72114 0.13189 0.6591 0.0
H505 H 0.69803 0.12965 0.70474 0.0
C506 C 0.64801 1.04059 0.57364 0.0
C507 C 0.68139 0.08552 0.56188 0.0
C508 C 0.63788 1.03909 0.60033 0.0
C509 C 0.66054 0.08256 0.6159 0.0
C510 C 0.69529 0.12732 0.60438 0.0
C511 C 0.70575 0.12875 0.5776 0.0
C512 C 0.5842 1.04944 0.67697 0.0
C513 C 0.62013 0.07724 0.69689 0.0
C514 C 0.59735 1.05144 0.65074 0.0
C515 C 0.64679 0.08106 0.64381 0.0
C516 C 0.6827 0.109 0.66371 0.0
C517 C 0.66952 0.10719 0.68993 0.0
H518 H 0.66955 0.65127 0.9022 0.0
H519 H 0.69066 0.52578 0.89302 0.0
H520 H 0.63884 0.62247 0.94649 0.0
H521 H 0.6605 0.49759 0.93688 0.0
H522 H 0.55602 0.431 0.00362 0.0
H523 H 0.58101 0.46242 0.95897 0.0
H524 H 0.66975 0.61098 0.99091 0.0
H525 H 0.64393 0.57978 0.03533 0.0
C526 C 0.66812 0.61795 0.90969 0.0
C527 C 0.68253 0.59087 0.8941 0.0
C528 C 0.65048 0.60143 0.93498 0.0
C529 C 0.64668 0.55742 0.94495 0.0
C530 C 0.66203 0.53104 0.92952 0.0
C531 C 0.67982 0.54759 0.90445 0.0
C532 C 0.58029 0.4704 0.00099 0.0
C533 C 0.59854 0.50284 0.02292 0.0
C534 C 0.5949 0.48835 0.97553 0.0
C535 C 0.62772 0.5391 0.97154 0.0
C536 C 0.64432 0.57176 0.99336 0.0
C537 C 0.62995 0.5538 0.0188 0.0
H538 H 0.21987 0.64837 0.2392 0.0
H539 H 1.06448 0.59822 0.22718 0.0
H540 H 0.21512 0.66236 0.28619 0.0
H541 H 1.05926 0.61043 0.27406 0.0
H542 H 0.17774 0.63609 0.37333 0.0
H543 H 0.18311 0.6214 0.32678 0.0
H544 H 1.08355 0.67528 0.30558 0.0
H545 H 1.07567 0.68695 0.35231 0.0
C546 C 0.18462 0.63976 0.24667 0.0
C547 C 0.14266 0.62249 0.2295 0.0
C548 C 0.1818 0.64762 0.27359 0.0
C549 C 0.13685 0.63791 0.2839 0.0
C550 C 1.09471 0.61944 0.26674 0.0
C551 C 1.09764 0.61207 0.23986 0.0
C552 C 0.15641 0.64417 0.35878 0.0
C553 C 0.12586 0.66227 0.36662 0.0
C554 C 0.1601 0.63642 0.33202 0.0
C555 C 0.1337 0.64703 0.31238 0.0
C556 C 1.1038 0.66593 0.32019 0.0
C557 C 1.09978 0.6733 0.34699 0.0
loop_
_geom_bond_atom_site_label_1
_geom_bond_atom_site_label_2
_geom_bond_distance
_geom_bond_site_symmetry_2
_ccdc_geom_bond_type
Tb0 C9 2.764 . S
Tb0 O10 2.325 . S
Tb0 O13 2.303 . S
Tb0 O17 2.322 1_655 S
Tb0 O18 2.349 . S
Tb0 O21 2.415 . S
Tb0 O22 2.399 . S
Tb1 O11 2.322 1_455 S
Tb1 O12 2.349 . S
Tb1 O14 2.415 . S
Tb1 O15 2.399 . S
Tb1 O16 2.325 . S
Tb1 O19 2.303 . S
Tb1 C30 2.764 . S
C2 O18 1.261 1_455 S
C2 O19 1.257 . S
C3 C6 1.358 . S
C3 C7 1.332 . S
C3 C9 1.504 . S
C4 C5 1.373 . S
C4 C8 1.308 . S
C5 C4 1.373 . S
C5 C6 1.429 . S
C5 H32 0.932 . S
C6 C3 1.358 . S
C6 C5 1.429 . S
C6 H33 0.930 . S
C7 C3 1.332 . S
C7 C8 1.394 . S
C7 H34 0.932 . S
C8 C4 1.308 . S
C8 C7 1.394 . S
C8 H35 0.929 . S
C9 Tb0 2.764 . S
C9 C3 1.504 . S
C9 O21 1.239 . S
C9 O22 1.263 . S
O10 Tb0 2.325 . S
O10 C20 1.236 . S
O11 Tb1 2.322 1_655 S
O11 C20 1.257 . S
O12 Tb1 2.349 . S
O12 C23 1.261 . S
O13 Tb0 2.303 . S
O13 C23 1.257 1_655 S
O14 Tb1 2.415 . S
O14 C30 1.239 . S
O15 Tb1 2.399 . S
O15 C30 1.263 . S
O16 Tb1 2.325 . S
O16 C31 1.236 . S
O17 Tb0 2.322 1_455 S
O17 C31 1.257 . S
O18 Tb0 2.349 . S
O18 C2 1.261 1_655 S
O19 Tb1 2.303 . S
O19 C2 1.257 . S
C20 O10 1.236 . S
C20 O11 1.257 . S
O21 Tb0 2.415 . S
O21 C9 1.239 . S
O22 Tb0 2.399 . S
O22 C9 1.263 . S
C23 O12 1.261 . S
C23 O13 1.257 1_455 S
C24 C27 1.358 . S
C24 C28 1.332 . S
C24 C30 1.504 . S
C25 C26 1.373 . S
C25 C29 1.308 . S
C26 C25 1.373 . S
C26 C27 1.429 . S
C26 H36 0.932 . S
C27 C24 1.358 . S
C27 C26 1.429 . S
C27 H37 0.930 . S
C28 C24 1.332 . S
C28 C29 1.394 . S
C28 H38 0.932 . S
C29 C25 1.308 . S
C29 C28 1.394 . S
C29 H39 0.929 . S
C30 Tb1 2.764 . S
C30 O14 1.239 . S
C30 O15 1.263 . S
C30 C24 1.504 . S
C31 O16 1.236 . S
C31 O17 1.257 . S
H32 C5 0.932 . S
H33 C6 0.930 . S
H34 C7 0.932 . S
H35 C8 0.929 . S
H36 C26 0.932 . S
H37 C27 0.930 . S
H38 C28 0.932 . S
H39 C29 0.929 . S
Tb40 C49 2.764 . S
Tb40 O50 2.325 . S
Tb40 O53 2.303 1_565 S
Tb40 O57 2.322 1_565 S
Tb40 O58 2.349 1_565 S
Tb40 O61 2.415 . S
Tb40 O62 2.399 . S
Tb41 O51 2.322 1_545 S
Tb41 O52 2.349 . S
Tb41 O54 2.415 . S
Tb41 O55 2.399 . S
Tb41 O56 2.325 . S
Tb41 O59 2.303 . S
Tb41 C70 2.764 . S
C42 O58 1.261 . S
C42 O59 1.257 . S
C43 C46 1.358 . S
C43 C47 1.332 . S
C43 C49 1.504 . S
C44 C45 1.373 . S
C44 C48 1.308 . S
C45 C44 1.373 . S
C45 C46 1.429 . S
C45 H72 0.932 . S
C46 C43 1.358 . S
C46 C45 1.429 . S
C46 H73 0.930 . S
C47 C43 1.332 . S
C47 C48 1.394 . S
C47 H74 0.932 . S
C48 C44 1.308 . S
C48 C47 1.394 . S
C48 H75 0.929 . S
C49 Tb40 2.764 . S
C49 C43 1.504 . S
C49 O61 1.239 . S
C49 O62 1.263 . S
O50 Tb40 2.325 . S
O50 C60 1.236 . S
O51 Tb41 2.322 1_565 S
O51 C60 1.257 . S
O52 Tb41 2.349 . S
O52 C63 1.261 . S
O53 Tb40 2.303 1_545 S
O53 C63 1.257 . S
O54 Tb41 2.415 . S
O54 C70 1.239 . S
O55 Tb41 2.399 . S
O55 C70 1.263 . S
O56 Tb41 2.325 . S
O56 C71 1.236 . S
O57 Tb40 2.322 1_545 S
O57 C71 1.257 . S
O58 Tb40 2.349 1_545 S
O58 C42 1.261 . S
O59 Tb41 2.303 . S
O59 C42 1.257 . S
C60 O50 1.236 . S
C60 O51 1.257 . S
O61 Tb40 2.415 . S
O61 C49 1.239 . S
O62 Tb40 2.399 . S
O62 C49 1.263 . S
C63 O52 1.261 . S
C63 O53 1.257 . S
C64 C67 1.358 . S
C64 C68 1.332 . S
C64 C70 1.504 . S
C65 C66 1.373 . S
C65 C69 1.308 . S
C66 C65 1.373 . S
C66 C67 1.429 . S
C66 H76 0.932 . S
C67 C64 1.358 . S
C67 C66 1.429 . S
C67 H77 0.930 . S
C68 C64 1.332 . S
C68 C69 1.394 . S
C68 H78 0.932 . S
C69 C65 1.308 . S
C69 C68 1.394 . S
C69 H79 0.929 . S
C70 Tb41 2.764 . S
C70 O54 1.239 . S
C70 O55 1.263 . S
C70 C64 1.504 . S
C71 O56 1.236 . S
C71 O57 1.257 . S
H72 C45 0.932 . S
H73 C46 0.930 . S
H74 C47 0.932 . S
H75 C48 0.929 . S
H76 C66 0.932 . S
H77 C67 0.930 . S
H78 C68 0.932 . S
H79 C69 0.929 . S
Tb80 C89 2.764 . S
Tb80 O90 2.325 . S
Tb80 O93 2.303 . S
Tb80 O97 2.322 . S
Tb80 O98 2.349 . S
Tb80 O101 2.415 . S
Tb80 O102 2.399 . S
Tb81 O91 2.322 . S
Tb81 O92 2.349 . S
Tb81 O94 2.415 . S
Tb81 O95 2.399 . S
Tb81 O96 2.325 . S
Tb81 O99 2.303 . S
Tb81 C110 2.764 . S
C82 O98 1.261 . S
C82 O99 1.257 . S
C83 C86 1.358 . S
C83 C87 1.332 . S
C83 C89 1.504 . S
C84 C85 1.373 . S
C84 C88 1.308 . S
C85 C84 1.373 . S
C85 C86 1.429 . S
C85 H112 0.932 . S
C86 C83 1.358 . S
C86 C85 1.429 . S
C86 H113 0.930 . S
C87 C83 1.332 . S
C87 C88 1.394 . S
C87 H114 0.932 . S
C88 C84 1.308 . S
C88 C87 1.394 . S
C88 H115 0.929 . S
C89 Tb80 2.764 . S
C89 C83 1.504 . S
C89 O101 1.239 . S
C89 O102 1.263 . S
O90 Tb80 2.325 . S
O90 C100 1.236 . S
O91 Tb81 2.322 . S
O91 C100 1.257 . S
O92 Tb81 2.349 . S
O92 C103 1.261 . S
O93 Tb80 2.303 . S
O93 C103 1.257 . S
O94 Tb81 2.415 . S
O94 C110 1.239 . S
O95 Tb81 2.399 . S
O95 C110 1.263 . S
O96 Tb81 2.325 . S
O96 C111 1.236 . S
O97 Tb80 2.322 . S
O97 C111 1.257 . S
O98 Tb80 2.349 . S
O98 C82 1.261 . S
O99 Tb81 2.303 . S
O99 C82 1.257 . S
C100 O90 1.236 . S
C100 O91 1.257 . S
O101 Tb80 2.415 . S
O101 C89 1.239 . S
O102 Tb80 2.399 . S
O102 C89 1.263 . S
C103 O92 1.261 . S
C103 O93 1.257 . S
C104 C107 1.358 . S
C104 C108 1.332 . S
C104 C110 1.504 . S
C105 C106 1.373 . S
C105 C109 1.308 . S
C106 C105 1.373 . S
C106 C107 1.429 . S
C106 H116 0.932 . S
C107 C104 1.358 . S
C107 C106 1.429 . S
C107 H117 0.930 . S
C108 C104 1.332 . S
C108 C109 1.394 . S
C108 H118 0.932 . S
C109 C105 1.308 . S
C109 C108 1.394 . S
C109 H119 0.929 . S
C110 Tb81 2.764 . S
C110 O94 1.239 . S
C110 O95 1.263 . S
C110 C104 1.504 . S
C111 O96 1.236 . S
C111 O97 1.257 . S
H112 C85 0.932 . S
H113 C86 0.930 . S
H114 C87 0.932 . S
H115 C88 0.929 . S
H116 C106 0.932 . S
H117 C107 0.930 . S
H118 C108 0.932 . S
H119 C109 0.929 . S
H120 C127 0.929 . S
H121 C130 0.930 . S
H122 C132 0.929 . S
H123 C124 0.969 . S
C124 H123 0.969 . S
C124 O125 1.550 . S
C124 H126 0.973 . S
O125 C124 1.550 . S
O125 C131 1.422 . S
H126 C124 0.973 . S
C127 H120 0.929 . S
C127 C128 1.400 . S
C127 C129 1.364 . S
C128 C127 1.400 . S
C128 C132 1.377 . S
C129 C127 1.364 . S
C129 C130 1.374 1_545 S
C130 H121 0.930 . S
C130 C129 1.374 1_565 S
C130 C131 1.384 . S
C131 O125 1.422 . S
C131 C130 1.384 . S
C131 C132 1.388 1_565 S
C132 H122 0.929 . S
C132 C128 1.377 . S
C132 C131 1.388 1_545 S
H133 C140 0.929 . S
H134 C143 0.930 . S
H135 C145 0.929 . S
H136 C137 0.969 . S
C137 H136 0.969 . S
C137 O138 1.550 . S
C137 H139 0.973 . S
O138 C137 1.550 . S
O138 C144 1.412 . S
H139 C137 0.973 . S
C140 H133 0.929 . S
C140 C141 1.400 . S
C140 C142 1.364 . S
C141 C140 1.400 . S
C141 C145 1.377 . S
C142 C140 1.364 . S
C142 C143 1.374 . S
C143 H134 0.930 . S
C143 C142 1.374 . S
C143 C144 1.383 . S
C144 O138 1.412 . S
C144 C143 1.383 . S
C144 C145 1.394 . S
C145 H135 0.929 . S
C145 C141 1.377 . S
C145 C144 1.394 . S
H146 C153 0.955 . S
H147 C156 0.930 . S
H148 C158 0.929 . S
H149 C150 0.969 . S
C150 H149 0.969 . S
C150 O151 1.550 . S
C150 H152 0.973 . S
O151 C150 1.550 . S
O151 C157 1.412 . S
H152 C150 0.973 . S
C153 H146 0.955 . S
C153 C154 1.400 . S
C153 C155 1.364 . S
C154 C153 1.400 . S
C154 C158 1.377 . S
C155 C153 1.364 . S
C155 C156 1.374 . S
C156 H147 0.930 . S
C156 C155 1.374 . S
C156 C157 1.383 . S
C157 O151 1.412 . S
C157 C156 1.383 . S
C157 C158 1.394 . S
C158 H148 0.929 . S
C158 C154 1.377 . S
C158 C157 1.394 . S
H159 C166 0.929 . S
H160 C169 0.930 . S
H161 C171 0.929 . S
H162 C163 0.969 . S
C163 H162 0.969 . S
C163 O164 1.550 . S
C163 H165 0.973 . S
O164 C163 1.550 . S
O164 C170 1.412 . S
H165 C163 0.973 . S
C166 H159 0.929 . S
C166 C167 1.400 . S
C166 C168 1.364 . S
C167 C166 1.400 . S
C167 C171 1.377 . S
C168 C166 1.364 . S
C168 C169 1.374 1_655 S
C169 H160 0.930 . S
C169 C168 1.374 1_455 S
C169 C170 1.383 . S
C170 O164 1.412 . S
C170 C169 1.383 . S
C170 C171 1.394 1_455 S
C171 H161 0.929 . S
C171 C167 1.377 . S
C171 C170 1.394 1_655 S
H172 C179 0.929 . S
H173 C182 0.930 . S
H174 C184 0.929 . S
H175 C176 0.969 . S
C176 H175 0.969 . S
C176 O177 1.550 . S
C176 H178 0.973 . S
O177 C176 1.550 . S
O177 C183 1.412 . S
H178 C176 0.973 . S
C179 H172 0.929 . S
C179 C180 1.400 . S
C179 C181 1.364 . S
C180 C179 1.400 . S
C180 C184 1.377 . S
C181 C179 1.364 . S
C181 C182 1.374 1_565 S
C182 H173 0.930 . S
C182 C181 1.374 1_545 S
C182 C183 1.383 . S
C183 O177 1.412 . S
C183 C182 1.383 . S
C183 C184 1.394 1_545 S
C184 H174 0.929 . S
C184 C180 1.377 . S
C184 C183 1.394 1_565 S
H185 C192 0.929 . S
H186 C195 0.930 . S
H187 C197 0.929 . S
H188 C189 0.969 . S
C189 H188 0.969 . S
C189 O190 1.550 . S
C189 H191 0.973 . S
O190 C189 1.550 . S
O190 C196 1.412 . S
H191 C189 0.973 . S
C192 H185 0.929 . S
C192 C193 1.400 . S
C192 C194 1.364 . S
C193 C192 1.400 . S
C193 C197 1.377 . S
C194 C192 1.364 . S
C194 C195 1.374 . S
C195 H186 0.930 . S
C195 C194 1.374 . S
C195 C196 1.383 . S
C196 O190 1.412 . S
C196 C195 1.383 . S
C196 C197 1.394 . S
C197 H187 0.929 . S
C197 C193 1.377 . S
C197 C196 1.394 . S
H198 C206 0.950 . S
H199 C211 0.950 . S
H200 C208 0.950 . S
H201 C210 0.950 . S
H202 C212 0.950 . S
H203 C214 0.950 . S
H204 C216 0.950 . S
H205 C217 0.950 . S
C206 H198 0.950 . S
C206 C207 1.386 . S
C206 C208 1.391 . S
C207 C206 1.386 . S
C207 C211 1.393 . S
C208 H200 0.950 . S
C208 C206 1.391 . S
C208 C209 1.400 . S
C209 C208 1.400 . S
C209 C210 1.398 . S
C209 C215 1.491 . S
C210 H201 0.950 . S
C210 C209 1.398 . S
C210 C211 1.391 . S
C211 H199 0.950 . S
C211 C207 1.393 . S
C211 C210 1.391 . S
C212 H202 0.950 . S
C212 C213 1.386 . S
C212 C214 1.391 . S
C213 C212 1.386 . S
C213 C217 1.393 . S
C214 H203 0.950 . S
C214 C212 1.391 . S
C214 C215 1.400 . S
C215 C209 1.491 . S
C215 C214 1.400 . S
C215 C216 1.398 . S
C216 H204 0.950 . S
C216 C215 1.398 . S
C216 C217 1.391 . S
C217 H205 0.950 . S
C217 C213 1.393 . S
C217 C216 1.391 . S
H218 C226 0.950 . S
H219 C231 0.950 . S
H220 C228 0.950 . S
H221 C230 0.950 . S
H222 C232 0.950 . S
H223 C234 0.950 . S
H224 C236 0.950 . S
H225 C237 0.950 . S
C226 H218 0.950 . S
C226 C227 1.386 . S
C226 C228 1.391 . S
C227 C226 1.386 . S
C227 C231 1.393 . S
C228 H220 0.950 . S
C228 C226 1.391 . S
C228 C229 1.400 . S
C229 C228 1.400 . S
C229 C230 1.398 . S
C229 C235 1.491 . S
C230 H221 0.950 . S
C230 C229 1.398 . S
C230 C231 1.391 . S
C231 H219 0.950 . S
C231 C227 1.393 . S
C231 C230 1.391 . S
C232 H222 0.950 . S
C232 C233 1.386 . S
C232 C234 1.391 . S
C233 C232 1.386 . S
C233 C237 1.393 . S
C234 H223 0.950 . S
C234 C232 1.391 . S
C234 C235 1.400 . S
C235 C229 1.491 . S
C235 C234 1.400 . S
C235 C236 1.398 . S
C236 H224 0.950 . S
C236 C235 1.398 . S
C236 C237 1.391 . S
C237 H225 0.950 . S
C237 C233 1.393 . S
C237 C236 1.391 . S
H238 C246 0.950 . S
H239 C251 0.950 . S
H240 C248 0.950 . S
H241 C250 0.950 . S
H242 C252 0.950 . S
H243 C254 0.950 . S
H244 C256 0.950 . S
H245 C257 0.950 . S
C246 H238 0.950 . S
C246 C247 1.386 . S
C246 C248 1.391 . S
C247 C246 1.386 . S
C247 C251 1.393 . S
C248 H240 0.950 . S
C248 C246 1.391 . S
C248 C249 1.400 . S
C249 C248 1.400 . S
C249 C250 1.398 . S
C249 C255 1.491 . S
C250 H241 0.950 . S
C250 C249 1.398 . S
C250 C251 1.391 . S
C251 H239 0.950 . S
C251 C247 1.393 . S
C251 C250 1.391 . S
C252 H242 0.950 . S
C252 C253 1.386 . S
C252 C254 1.391 . S
C253 C252 1.386 . S
C253 C257 1.393 . S
C254 H243 0.950 . S
C254 C252 1.391 . S
C254 C255 1.400 . S
C255 C249 1.491 . S
C255 C254 1.400 . S
C255 C256 1.398 . S
C256 H244 0.950 . S
C256 C255 1.398 . S
C256 C257 1.391 . S
C257 H245 0.950 . S
C257 C253 1.393 . S
C257 C256 1.391 . S
H258 C266 0.950 . S
H259 C271 0.950 . S
H260 C268 0.950 . S
H261 C270 0.950 . S
H262 C272 0.950 . S
H263 C274 0.950 . S
H264 C276 0.950 . S
H265 C277 0.950 . S
C266 H258 0.950 . S
C266 C267 1.386 . S
C266 C268 1.391 . S
C267 C266 1.386 . S
C267 C271 1.393 . S
C268 H260 0.950 . S
C268 C266 1.391 . S
C268 C269 1.400 . S
C269 C268 1.400 . S
C269 C270 1.398 . S
C269 C275 1.491 . S
C270 H261 0.950 . S
C270 C269 1.398 . S
C270 C271 1.391 . S
C271 H259 0.950 . S
C271 C267 1.393 . S
C271 C270 1.391 . S
C272 H262 0.950 . S
C272 C273 1.386 . S
C272 C274 1.391 . S
C273 C272 1.386 . S
C273 C277 1.393 . S
C274 H263 0.950 . S
C274 C272 1.391 . S
C274 C275 1.400 . S
C275 C269 1.491 . S
C275 C274 1.400 . S
C275 C276 1.398 . S
C276 H264 0.950 . S
C276 C275 1.398 . S
C276 C277 1.391 . S
C277 H265 0.950 . S
C277 C273 1.393 . S
C277 C276 1.391 . S
H278 C286 0.950 . S
H279 C291 0.950 . S
H280 C288 0.950 . S
H281 C290 0.950 . S
H282 C292 0.950 . S
H283 C294 0.950 . S
H284 C296 0.950 . S
H285 C297 0.950 . S
C286 H278 0.950 . S
C286 C287 1.386 . S
C286 C288 1.391 . S
C287 C286 1.386 . S
C287 C291 1.393 . S
C288 H280 0.950 . S
C288 C286 1.391 . S
C288 C289 1.400 . S
C289 C288 1.400 . S
C289 C290 1.398 . S
C289 C295 1.491 . S
C290 H281 0.950 . S
C290 C289 1.398 . S
C290 C291 1.391 . S
C291 H279 0.950 . S
C291 C287 1.393 . S
C291 C290 1.391 . S
C292 H282 0.950 . S
C292 C293 1.386 . S
C292 C294 1.391 . S
C293 C292 1.386 . S
C293 C297 1.393 . S
C294 H283 0.950 . S
C294 C292 1.391 . S
C294 C295 1.400 . S
C295 C289 1.491 . S
C295 C294 1.400 . S
C295 C296 1.398 . S
C296 H284 0.950 . S
C296 C295 1.398 . S
C296 C297 1.391 . S
C297 H285 0.950 . S
C297 C293 1.393 . S
C297 C296 1.391 . S
H298 C306 0.950 . S
H299 C311 0.950 . S
H300 C308 0.950 . S
H301 C310 0.950 . S
H302 C312 0.950 . S
H303 C314 0.950 . S
H304 C316 0.950 . S
H305 C317 0.950 . S
C306 H298 0.950 . S
C306 C307 1.386 . S
C306 C308 1.391 . S
C307 C306 1.386 . S
C307 C311 1.393 . S
C308 H300 0.950 . S
C308 C306 1.391 . S
C308 C309 1.400 . S
C309 C308 1.400 . S
C309 C310 1.398 . S
C309 C315 1.491 . S
C310 H301 0.950 . S
C310 C309 1.398 . S
C310 C311 1.391 . S
C311 H299 0.950 . S
C311 C307 1.393 . S
C311 C310 1.391 . S
C312 H302 0.950 . S
C312 C313 1.386 . S
C312 C314 1.391 . S
C313 C312 1.386 . S
C313 C317 1.393 . S
C314 H303 0.950 . S
C314 C312 1.391 . S
C314 C315 1.400 . S
C315 C309 1.491 . S
C315 C314 1.400 . S
C315 C316 1.398 . S
C316 H304 0.950 . S
C316 C315 1.398 . S
C316 C317 1.391 . S
C317 H305 0.950 . S
C317 C313 1.393 . S
C317 C316 1.391 . S
H318 C326 0.950 . S
H319 C331 0.950 . S
H320 C328 0.950 . S
H321 C330 0.950 . S
H322 C332 0.950 . S
H323 C334 0.950 . S
H324 C336 0.950 . S
H325 C337 0.950 . S
C326 H318 0.950 . S
C326 C327 1.386 . S
C326 C328 1.391 . S
C327 C326 1.386 . S
C327 C331 1.393 . S
C328 H320 0.950 . S
C328 C326 1.391 . S
C328 C329 1.400 . S
C329 C328 1.400 . S
C329 C330 1.398 . S
C329 C335 1.491 . S
C330 H321 0.950 . S
C330 C329 1.398 . S
C330 C331 1.391 . S
C331 H319 0.950 . S
C331 C327 1.393 . S
C331 C330 1.391 . S
C332 H322 0.950 . S
C332 C333 1.386 . S
C332 C334 1.391 . S
C333 C332 1.386 . S
C333 C337 1.393 . S
C334 H323 0.950 . S
C334 C332 1.391 . S
C334 C335 1.400 . S
C335 C329 1.491 . S
C335 C334 1.400 . S
C335 C336 1.398 . S
C336 H324 0.950 . S
C336 C335 1.398 . S
C336 C337 1.391 . S
C337 H325 0.950 . S
C337 C333 1.393 . S
C337 C336 1.391 . S
H338 C346 0.950 . S
H339 C351 0.950 . S
H340 C348 0.950 . S
H341 C350 0.950 . S
H342 C352 0.950 . S
H343 C354 0.950 . S
H344 C356 0.950 . S
H345 C357 0.950 . S
C346 H338 0.950 . S
C346 C347 1.386 . S
C346 C348 1.391 . S
C347 C346 1.386 . S
C347 C351 1.393 . S
C348 H340 0.950 . S
C348 C346 1.391 . S
C348 C349 1.400 . S
C349 C348 1.400 . S
C349 C350 1.398 . S
C349 C355 1.491 . S
C350 H341 0.950 . S
C350 C349 1.398 . S
C350 C351 1.391 . S
C351 H339 0.950 . S
C351 C347 1.393 . S
C351 C350 1.391 . S
C352 H342 0.950 . S
C352 C353 1.386 . S
C352 C354 1.391 . S
C353 C352 1.386 . S
C353 C357 1.393 . S
C354 H343 0.950 . S
C354 C352 1.391 . S
C354 C355 1.400 . S
C355 C349 1.491 . S
C355 C354 1.400 . S
C355 C356 1.398 . S
C356 H344 0.950 . S
C356 C355 1.398 . S
C356 C357 1.391 . S
C357 H345 0.950 . S
C357 C353 1.393 . S
C357 C356 1.391 . S
H358 C366 0.950 . S
H359 C371 0.950 . S
H360 C368 0.950 . S
H361 C370 0.950 . S
H362 C372 0.950 . S
H363 C374 0.950 . S
H364 C376 0.950 . S
H365 C377 0.950 . S
C366 H358 0.950 . S
C366 C367 1.386 . S
C366 C368 1.391 . S
C367 C366 1.386 . S
C367 C371 1.393 . S
C368 H360 0.950 . S
C368 C366 1.391 . S
C368 C369 1.400 . S
C369 C368 1.400 . S
C369 C370 1.398 . S
C369 C375 1.491 . S
C370 H361 0.950 . S
C370 C369 1.398 . S
C370 C371 1.391 . S
C371 H359 0.950 . S
C371 C367 1.393 . S
C371 C370 1.391 . S
C372 H362 0.950 . S
C372 C373 1.386 . S
C372 C374 1.391 . S
C373 C372 1.386 . S
C373 C377 1.393 . S
C374 H363 0.950 . S
C374 C372 1.391 . S
C374 C375 1.400 . S
C375 C369 1.491 . S
C375 C374 1.400 . S
C375 C376 1.398 . S
C376 H364 0.950 . S
C376 C375 1.398 . S
C376 C377 1.391 . S
C377 H365 0.950 . S
C377 C373 1.393 . S
C377 C376 1.391 . S
H378 C386 0.950 . S
H379 C391 0.950 . S
H380 C388 0.950 . S
H381 C390 0.950 . S
H382 C392 0.950 . S
H383 C394 0.950 . S
H384 C396 0.950 . S
H385 C397 0.950 . S
C386 H378 0.950 . S
C386 C387 1.386 . S
C386 C388 1.391 . S
C387 C386 1.386 . S
C387 C391 1.393 . S
C388 H380 0.950 . S
C388 C386 1.391 . S
C388 C389 1.400 . S
C389 C388 1.400 . S
C389 C390 1.398 . S
C389 C395 1.491 . S
C390 H381 0.950 . S
C390 C389 1.398 . S
C390 C391 1.391 . S
C391 H379 0.950 . S
C391 C387 1.393 . S
C391 C390 1.391 . S
C392 H382 0.950 . S
C392 C393 1.386 . S
C392 C394 1.391 . S
C393 C392 1.386 . S
C393 C397 1.393 . S
C394 H383 0.950 . S
C394 C392 1.391 . S
C394 C395 1.400 . S
C395 C389 1.491 . S
C395 C394 1.400 . S
C395 C396 1.398 . S
C396 H384 0.950 . S
C396 C395 1.398 . S
C396 C397 1.391 . S
C397 H385 0.950 . S
C397 C393 1.393 . S
C397 C396 1.391 . S
H398 C406 0.950 . S
H399 C411 0.950 . S
H400 C408 0.950 . S
H401 C410 0.950 . S
H402 C412 0.950 . S
H403 C414 0.950 . S
H404 C416 0.950 . S
H405 C417 0.950 . S
C406 H398 0.950 . S
C406 C407 1.386 . S
C406 C408 1.391 . S
C407 C406 1.386 . S
C407 C411 1.393 . S
C408 H400 0.950 . S
C408 C406 1.391 . S
C408 C409 1.400 . S
C409 C408 1.400 . S
C409 C410 1.398 . S
C409 C415 1.491 . S
C410 H401 0.950 . S
C410 C409 1.398 . S
C410 C411 1.391 . S
C411 H399 0.950 . S
C411 C407 1.393 . S
C411 C410 1.391 . S
C412 H402 0.950 . S
C412 C413 1.386 . S
C412 C414 1.391 . S
C413 C412 1.386 . S
C413 C417 1.393 . S
C414 H403 0.950 . S
C414 C412 1.391 . S
C414 C415 1.400 . S
C415 C409 1.491 . S
C415 C414 1.400 . S
C415 C416 1.398 . S
C416 H404 0.950 . S
C416 C415 1.398 . S
C416 C417 1.391 . S
C417 H405 0.950 . S
C417 C413 1.393 . S
C417 C416 1.391 . S
H418 C426 0.950 . S
H419 C431 0.950 . S
H420 C428 0.950 . S
H421 C430 0.950 . S
H422 C432 0.950 . S
H423 C434 0.950 . S
H424 C436 0.950 . S
H425 C437 0.950 . S
C426 H418 0.950 . S
C426 C427 1.386 . S
C426 C428 1.391 . S
C427 C426 1.386 . S
C427 C431 1.393 . S
C428 H420 0.950 . S
C428 C426 1.391 . S
C428 C429 1.400 . S
C429 C428 1.400 . S
C429 C430 1.398 . S
C429 C435 1.491 . S
C430 H421 0.950 . S
C430 C429 1.398 . S
C430 C431 1.391 . S
C431 H419 0.950 . S
C431 C427 1.393 . S
C431 C430 1.391 . S
C432 H422 0.950 . S
C432 C433 1.386 . S
C432 C434 1.391 . S
C433 C432 1.386 . S
C433 C437 1.393 . S
C434 H423 0.950 . S
C434 C432 1.391 . S
C434 C435 1.400 . S
C435 C429 1.491 . S
C435 C434 1.400 . S
C435 C436 1.398 . S
C436 H424 0.950 . S
C436 C435 1.398 . S
C436 C437 1.391 . S
C437 H425 0.950 . S
C437 C433 1.393 . S
C437 C436 1.391 . S
H438 C446 0.950 . S
H439 C451 0.950 . S
H440 C448 0.950 . S
H441 C450 0.950 . S
H442 C452 0.950 . S
H443 C454 0.950 . S
H444 C456 0.950 . S
H445 C457 0.950 . S
C446 H438 0.950 . S
C446 C447 1.386 . S
C446 C448 1.391 . S
C447 C446 1.386 . S
C447 C451 1.393 . S
C448 H440 0.950 . S
C448 C446 1.391 . S
C448 C449 1.400 . S
C449 C448 1.400 . S
C449 C450 1.398 . S
C449 C455 1.491 1_554 S
C450 H441 0.950 . S
C450 C449 1.398 . S
C450 C451 1.391 . S
C451 H439 0.950 . S
C451 C447 1.393 . S
C451 C450 1.391 . S
C452 H442 0.950 . S
C452 C453 1.386 . S
C452 C454 1.391 . S
C453 C452 1.386 . S
C453 C457 1.393 . S
C454 H443 0.950 . S
C454 C452 1.391 . S
C454 C455 1.400 . S
C455 C449 1.491 1_556 S
C455 C454 1.400 . S
C455 C456 1.398 . S
C456 H444 0.950 . S
C456 C455 1.398 . S
C456 C457 1.391 . S
C457 H445 0.950 . S
C457 C453 1.393 . S
C457 C456 1.391 . S
H458 C466 0.950 . S
H459 C471 0.961 . S
H460 C468 0.950 . S
H461 C470 0.950 . S
H462 C472 0.950 . S
H463 C474 0.950 . S
H464 C476 0.950 . S
H465 C477 0.950 . S
C466 H458 0.950 . S
C466 C467 1.386 . S
C466 C468 1.391 . S
C467 C466 1.386 . S
C467 C471 1.382 1_545 S
C468 H460 0.950 . S
C468 C466 1.391 . S
C468 C469 1.400 . S
C469 C468 1.400 . S
C469 C470 1.398 1_545 S
C469 C475 1.491 . S
C470 H461 0.950 . S
C470 C469 1.398 1_565 S
C470 C471 1.391 . S
C471 H459 0.961 . S
C471 C467 1.382 1_565 S
C471 C470 1.391 . S
C472 H462 0.950 . S
C472 C473 1.386 1_565 S
C472 C474 1.391 . S
C473 C472 1.386 1_545 S
C473 C477 1.393 . S
C474 H463 0.950 . S
C474 C472 1.391 . S
C474 C475 1.400 1_565 S
C475 C469 1.491 . S
C475 C474 1.400 1_545 S
C475 C476 1.398 . S
C476 H464 0.950 . S
C476 C475 1.398 . S
C476 C477 1.391 . S
C477 H465 0.950 . S
C477 C473 1.393 . S
C477 C476 1.391 . S
H478 C486 0.950 . S
H479 C491 0.950 . S
H480 C488 0.950 . S
H481 C490 0.950 . S
H482 C492 0.950 . S
H483 C494 0.950 . S
H484 C496 0.950 . S
H485 C497 0.950 . S
C486 H478 0.950 . S
C486 C487 1.386 . S
C486 C488 1.391 . S
C487 C486 1.386 . S
C487 C491 1.393 . S
C488 H480 0.950 . S
C488 C486 1.391 . S
C488 C489 1.400 . S
C489 C488 1.400 . S
C489 C490 1.398 . S
C489 C495 1.491 . S
C490 H481 0.950 . S
C490 C489 1.398 . S
C490 C491 1.391 . S
C491 H479 0.950 . S
C491 C487 1.393 . S
C491 C490 1.391 . S
C492 H482 0.950 . S
C492 C493 1.386 . S
C492 C494 1.391 . S
C493 C492 1.386 . S
C493 C497 1.393 . S
C494 H483 0.950 . S
C494 C492 1.391 . S
C494 C495 1.400 . S
C495 C489 1.491 . S
C495 C494 1.400 . S
C495 C496 1.398 . S
C496 H484 0.950 . S
C496 C495 1.398 . S
C496 C497 1.391 . S
C497 H485 0.950 . S
C497 C493 1.393 . S
C497 C496 1.391 . S
H498 C506 0.949 . S
H499 C511 0.950 . S
H500 C508 0.950 1_565 S
H501 C510 0.950 . S
H502 C512 0.950 . S
H503 C514 0.950 . S
H504 C516 0.950 . S
H505 C517 0.950 . S
C506 H498 0.949 . S
C506 C507 1.386 . S
C506 C508 1.391 . S
C507 C506 1.386 . S
C507 C511 1.393 . S
C508 H500 0.950 1_545 S
C508 C506 1.391 . S
C508 C509 1.400 . S
C509 C508 1.400 . S
C509 C510 1.398 . S
C509 C515 1.491 . S
C510 H501 0.950 . S
C510 C509 1.398 . S
C510 C511 1.391 . S
C511 H499 0.950 . S
C511 C507 1.393 . S
C511 C510 1.391 . S
C512 H502 0.950 . S
C512 C513 1.386 1_545 S
C512 C514 1.391 . S
C513 C512 1.386 1_565 S
C513 C517 1.393 . S
C514 H503 0.950 . S
C514 C512 1.391 . S
C514 C515 1.400 . S
C515 C509 1.491 . S
C515 C514 1.400 . S
C515 C516 1.398 1_545 S
C516 H504 0.950 . S
C516 C515 1.398 1_565 S
C516 C517 1.391 . S
C517 H505 0.950 . S
C517 C513 1.393 . S
C517 C516 1.391 . S
H518 C526 0.950 . S
H519 C531 0.950 . S
H520 C528 0.950 . S
H521 C530 0.950 . S
H522 C532 0.950 . S
H523 C534 0.963 . S
H524 C536 0.950 1_556 S
H525 C537 0.950 . S
C526 H518 0.950 . S
C526 C527 1.386 . S
C526 C528 1.391 . S
C527 C526 1.386 . S
C527 C531 1.393 . S
C528 H520 0.950 . S
C528 C526 1.391 . S
C528 C529 1.400 . S
C529 C528 1.400 . S
C529 C530 1.398 . S
C529 C535 1.491 . S
C530 H521 0.950 . S
C530 C529 1.398 . S
C530 C531 1.391 . S
C531 H519 0.950 . S
C531 C527 1.393 . S
C531 C530 1.391 . S
C532 H522 0.950 . S
C532 C533 1.386 . S
C532 C534 1.391 . S
C533 C532 1.386 . S
C533 C537 1.393 . S
C534 H523 0.963 . S
C534 C532 1.391 . S
C534 C535 1.400 1_554 S
C535 C529 1.491 . S
C535 C534 1.400 1_556 S
C535 C536 1.398 1_556 S
C536 H524 0.950 1_554 S
C536 C535 1.398 1_554 S
C536 C537 1.391 . S
C537 H525 0.950 . S
C537 C533 1.393 . S
C537 C536 1.391 . S
H538 C546 0.948 . S
H539 C551 0.950 . S
H540 C548 0.950 . S
H541 C550 0.950 . S
H542 C552 0.950 . S
H543 C554 0.950 . S
H544 C556 0.950 . S
H545 C557 0.950 . S
C546 H538 0.948 . S
C546 C547 1.388 1_455 S
C546 C548 1.391 . S
C547 C546 1.388 1_655 S
C547 C551 1.393 . S
C548 H540 0.950 . S
C548 C546 1.391 . S
C548 C549 1.400 1_455 S
C549 C548 1.400 1_655 S
C549 C550 1.398 . S
C549 C555 1.491 . S
C550 H541 0.950 . S
C550 C549 1.398 . S
C550 C551 1.391 . S
C551 H539 0.950 . S
C551 C547 1.393 . S
C551 C550 1.391 . S
C552 H542 0.950 . S
C552 C553 1.386 1_655 S
C552 C554 1.391 . S
C553 C552 1.386 1_455 S
C553 C557 1.392 . S
C554 H543 0.950 . S
C554 C552 1.391 . S
C554 C555 1.400 . S
C555 C549 1.491 . S
C555 C554 1.400 . S
C555 C556 1.398 1_655 S
C556 H544 0.950 . S
C556 C555 1.398 1_455 S
C556 C557 1.391 . S
C557 H545 0.950 . S
C557 C553 1.392 . S
C557 C556 1.391 . S
C207 C25 0.430 . S
C213 C189 0.456 . S
C227 C65 0.316 . S
C233 C167 0.266 . S
C247 C105 0.452 . S
C253 C180 0.338 . S
C267 C4 0.400 . S
C273 C193 0.223 . S
C293 C163 0.527 . S
C287 C44 0.472 . S
C313 C176 0.545 . S
C307 C84 0.462 . S
C327 C60 2.891 . S
C333 C141 2.854 . S
C347 C100 3.011 . S
C353 C154 2.963 1_655 S
C367 C31 3.125 . S
C373 C124 2.908 . S
C393 C137 2.936 . S
C387 C71 3.137 . S
C413 C150 2.818 . S
C407 C111 3.002 . S
C427 C20 2.902 . S
C433 C128 2.863 . S
C453 C155 1.764 . S
C447 C2 1.715 . S
C467 C42 1.710 . S
C473 C129 1.783 . S
C487 C82 1.723 . S
C493 C142 1.811 . S
C513 C181 1.254 . S
C507 C63 1.232 . S
C533 C194 1.297 . S
C527 C103 1.295 . S
C547 C23 1.242 1_655 S
C553 C168 1.255 1_455 S
