# Generated by pormake.
# Topology ptr, (4,4)-cn, num edge types: 1
# Building blocks:
#     Node 0, Type 0, BuildingBlock: GALJAG_clean_sbu_0, # of connection points: 4
#     Node 1, Type 0, BuildingBlock: GALJAG_clean_sbu_0, # of connection points: 4
#     Node 2, Type 0, BuildingBlock: GALJAG_clean_sbu_0, # of connection points: 4
#     Node 3, Type 0, BuildingBlock: GALJAG_clean_sbu_0, # of connection points: 4
#     Node 4, Type 0, BuildingBlock: GALJAG_clean_sbu_0, # of connection points: 4
#     Node 5, Type 0, BuildingBlock: GALJAG_clean_sbu_0, # of connection points: 4
#     Node 6, Type 0, BuildingBlock: GALJAG_clean_sbu_0, # of connection points: 4
#     Node 7, Type 0, BuildingBlock: GALJAG_clean_sbu_0, # of connection points: 4
#     Node 8, Type 0, BuildingBlock: GALJAG_clean_sbu_0, # of connection points: 4
#     Node 9, Type 0, BuildingBlock: GALJAG_clean_sbu_0, # of connection points: 4
#     Node 10, Type 0, BuildingBlock: GALJAG_clean_sbu_0, # of connection points: 4
#     Node 11, Type 0, BuildingBlock: GALJAG_clean_sbu_0, # of connection points: 4
#     Node 12, Type 0, BuildingBlock: GALJAG_clean_sbu_0, # of connection points: 4
#     Node 13, Type 0, BuildingBlock: GALJAG_clean_sbu_0, # of connection points: 4
#     Node 14, Type 0, BuildingBlock: GALJAG_clean_sbu_0, # of connection points: 4
#     Node 15, Type 0, BuildingBlock: GALJAG_clean_sbu_0, # of connection points: 4
#     Node 16, Type 0, BuildingBlock: GALJAG_clean_sbu_0, # of connection points: 4
#     Node 17, Type 0, BuildingBlock: GALJAG_clean_sbu_0, # of connection points: 4
#     Node 18, Type 1, BuildingBlock: MIFKUJ_clean_linker_1, # of connection points: 4
#     Node 19, Type 1, BuildingBlock: MIFKUJ_clean_linker_1, # of connection points: 4
#     Node 20, Type 1, BuildingBlock: MIFKUJ_clean_linker_1, # of connection points: 4
#     Node 21, Type 1, BuildingBlock: MIFKUJ_clean_linker_1, # of connection points: 4
#     Node 22, Type 1, BuildingBlock: MIFKUJ_clean_linker_1, # of connection points: 4
#     Node 23, Type 1, BuildingBlock: MIFKUJ_clean_linker_1, # of connection points: 4
#     Node 24, Type 1, BuildingBlock: MIFKUJ_clean_linker_1, # of connection points: 4
#     Node 25, Type 1, BuildingBlock: MIFKUJ_clean_linker_1, # of connection points: 4
#     Node 26, Type 1, BuildingBlock: MIFKUJ_clean_linker_1, # of connection points: 4
#     Node 27, Type 1, BuildingBlock: MIFKUJ_clean_linker_1, # of connection points: 4
#     Node 28, Type 1, BuildingBlock: MIFKUJ_clean_linker_1, # of connection points: 4
#     Node 29, Type 1, BuildingBlock: MIFKUJ_clean_linker_1, # of connection points: 4
#     Node 30, Type 1, BuildingBlock: MIFKUJ_clean_linker_1, # of connection points: 4
#     Node 31, Type 1, BuildingBlock: MIFKUJ_clean_linker_1, # of connection points: 4
#     Node 32, Type 1, BuildingBlock: MIFKUJ_clean_linker_1, # of connection points: 4
#     Node 33, Type 1, BuildingBlock: MIFKUJ_clean_linker_1, # of connection points: 4
#     Node 34, Type 1, BuildingBlock: MIFKUJ_clean_linker_1, # of connection points: 4
#     Node 35, Type 1, BuildingBlock: MIFKUJ_clean_linker_1, # of connection points: 4
#     Edge 36, Type (0, 1), BuildingBlock: TEMPAE_clean_linker_10, # of connection points: 2
#     Edge 37, Type (0, 1), BuildingBlock: TEMPAE_clean_linker_10, # of connection points: 2
#     Edge 38, Type (0, 1), BuildingBlock: TEMPAE_clean_linker_10, # of connection points: 2
#     Edge 39, Type (0, 1), BuildingBlock: TEMPAE_clean_linker_10, # of connection points: 2
#     Edge 40, Type (0, 1), BuildingBlock: TEMPAE_clean_linker_10, # of connection points: 2
#     Edge 41, Type (0, 1), BuildingBlock: TEMPAE_clean_linker_10, # of connection points: 2
#     Edge 42, Type (0, 1), BuildingBlock: TEMPAE_clean_linker_10, # of connection points: 2
#     Edge 43, Type (0, 1), BuildingBlock: TEMPAE_clean_linker_10, # of connection points: 2
#     Edge 44, Type (0, 1), BuildingBlock: TEMPAE_clean_linker_10, # of connection points: 2
#     Edge 45, Type (0, 1), BuildingBlock: TEMPAE_clean_linker_10, # of connection points: 2
#     Edge 46, Type (0, 1), BuildingBlock: TEMPAE_clean_linker_10, # of connection points: 2
#     Edge 47, Type (0, 1), BuildingBlock: TEMPAE_clean_linker_10, # of connection points: 2
#     Edge 48, Type (0, 1), BuildingBlock: TEMPAE_clean_linker_10, # of connection points: 2
#     Edge 49, Type (0, 1), BuildingBlock: TEMPAE_clean_linker_10, # of connection points: 2
#     Edge 50, Type (0, 1), BuildingBlock: TEMPAE_clean_linker_10, # of connection points: 2
#     Edge 51, Type (0, 1), BuildingBlock: TEMPAE_clean_linker_10, # of connection points: 2
#     Edge 52, Type (0, 1), BuildingBlock: TEMPAE_clean_linker_10, # of connection points: 2
#     Edge 53, Type (0, 1), BuildingBlock: TEMPAE_clean_linker_10, # of connection points: 2
#     Edge 54, Type (0, 1), BuildingBlock: TEMPAE_clean_linker_10, # of connection points: 2
#     Edge 55, Type (0, 1), BuildingBlock: TEMPAE_clean_linker_10, # of connection points: 2
#     Edge 56, Type (0, 1), BuildingBlock: TEMPAE_clean_linker_10, # of connection points: 2
#     Edge 57, Type (0, 1), BuildingBlock: TEMPAE_clean_linker_10, # of connection points: 2
#     Edge 58, Type (0, 1), BuildingBlock: TEMPAE_clean_linker_10, # of connection points: 2
#     Edge 59, Type (0, 1), BuildingBlock: TEMPAE_clean_linker_10, # of connection points: 2
#     Edge 60, Type (0, 1), BuildingBlock: TEMPAE_clean_linker_10, # of connection points: 2
#     Edge 61, Type (0, 1), BuildingBlock: TEMPAE_clean_linker_10, # of connection points: 2
#     Edge 62, Type (0, 1), BuildingBlock: TEMPAE_clean_linker_10, # of connection points: 2
#     Edge 63, Type (0, 1), BuildingBlock: TEMPAE_clean_linker_10, # of connection points: 2
#     Edge 64, Type (0, 1), BuildingBlock: TEMPAE_clean_linker_10, # of connection points: 2
#     Edge 65, Type (0, 1), BuildingBlock: TEMPAE_clean_linker_10, # of connection points: 2
#     Edge 66, Type (0, 1), BuildingBlock: TEMPAE_clean_linker_10, # of connection points: 2
#     Edge 67, Type (0, 1), BuildingBlock: TEMPAE_clean_linker_10, # of connection points: 2
#     Edge 68, Type (0, 1), BuildingBlock: TEMPAE_clean_linker_10, # of connection points: 2
#     Edge 69, Type (0, 1), BuildingBlock: TEMPAE_clean_linker_10, # of connection points: 2
#     Edge 70, Type (0, 1), BuildingBlock: TEMPAE_clean_linker_10, # of connection points: 2
#     Edge 71, Type (0, 1), BuildingBlock: TEMPAE_clean_linker_10, # of connection points: 2
#     Edge 72, Type (0, 1), BuildingBlock: TEMPAE_clean_linker_10, # of connection points: 2
#     Edge 73, Type (0, 1), BuildingBlock: TEMPAE_clean_linker_10, # of connection points: 2
#     Edge 74, Type (0, 1), BuildingBlock: TEMPAE_clean_linker_10, # of connection points: 2
#     Edge 75, Type (0, 1), BuildingBlock: TEMPAE_clean_linker_10, # of connection points: 2
#     Edge 76, Type (0, 1), BuildingBlock: TEMPAE_clean_linker_10, # of connection points: 2
#     Edge 77, Type (0, 1), BuildingBlock: TEMPAE_clean_linker_10, # of connection points: 2
#     Edge 78, Type (0, 1), BuildingBlock: TEMPAE_clean_linker_10, # of connection points: 2
#     Edge 79, Type (0, 1), BuildingBlock: TEMPAE_clean_linker_10, # of connection points: 2
#     Edge 80, Type (0, 1), BuildingBlock: TEMPAE_clean_linker_10, # of connection points: 2
#     Edge 81, Type (0, 1), BuildingBlock: TEMPAE_clean_linker_10, # of connection points: 2
#     Edge 82, Type (0, 1), BuildingBlock: TEMPAE_clean_linker_10, # of connection points: 2
#     Edge 83, Type (0, 1), BuildingBlock: TEMPAE_clean_linker_10, # of connection points: 2
#     Edge 84, Type (0, 1), BuildingBlock: TEMPAE_clean_linker_10, # of connection points: 2
#     Edge 85, Type (0, 1), BuildingBlock: TEMPAE_clean_linker_10, # of connection points: 2
#     Edge 86, Type (0, 1), BuildingBlock: TEMPAE_clean_linker_10, # of connection points: 2
#     Edge 87, Type (0, 1), BuildingBlock: TEMPAE_clean_linker_10, # of connection points: 2
#     Edge 88, Type (0, 1), BuildingBlock: TEMPAE_clean_linker_10, # of connection points: 2
#     Edge 89, Type (0, 1), BuildingBlock: TEMPAE_clean_linker_10, # of connection points: 2
#     Edge 90, Type (0, 1), BuildingBlock: TEMPAE_clean_linker_10, # of connection points: 2
#     Edge 91, Type (0, 1), BuildingBlock: TEMPAE_clean_linker_10, # of connection points: 2
#     Edge 92, Type (0, 1), BuildingBlock: TEMPAE_clean_linker_10, # of connection points: 2
#     Edge 93, Type (0, 1), BuildingBlock: TEMPAE_clean_linker_10, # of connection points: 2
#     Edge 94, Type (0, 1), BuildingBlock: TEMPAE_clean_linker_10, # of connection points: 2
#     Edge 95, Type (0, 1), BuildingBlock: TEMPAE_clean_linker_10, # of connection points: 2
#     Edge 96, Type (0, 1), BuildingBlock: TEMPAE_clean_linker_10, # of connection points: 2
#     Edge 97, Type (0, 1), BuildingBlock: TEMPAE_clean_linker_10, # of connection points: 2
#     Edge 98, Type (0, 1), BuildingBlock: TEMPAE_clean_linker_10, # of connection points: 2
#     Edge 99, Type (0, 1), BuildingBlock: TEMPAE_clean_linker_10, # of connection points: 2
#     Edge 100, Type (0, 1), BuildingBlock: TEMPAE_clean_linker_10, # of connection points: 2
#     Edge 101, Type (0, 1), BuildingBlock: TEMPAE_clean_linker_10, # of connection points: 2
#     Edge 102, Type (0, 1), BuildingBlock: TEMPAE_clean_linker_10, # of connection points: 2
#     Edge 103, Type (0, 1), BuildingBlock: TEMPAE_clean_linker_10, # of connection points: 2
#     Edge 104, Type (0, 1), BuildingBlock: TEMPAE_clean_linker_10, # of connection points: 2
#     Edge 105, Type (0, 1), BuildingBlock: TEMPAE_clean_linker_10, # of connection points: 2
#     Edge 106, Type (0, 1), BuildingBlock: TEMPAE_clean_linker_10, # of connection points: 2
#     Edge 107, Type (0, 1), BuildingBlock: TEMPAE_clean_linker_10, # of connection points: 2
# Relax obj value: 0.053
# Max RMSD: 0.081
# Mean RMSD: 0.075
data_MOF--net-ptr--node1-GALJAG_clean_sbu_0--node2-MIFKUJ_clean_linker_1--edge1-TEMPAE_clean_linker_10
_symmetry_space_group_name_H-M    P1
_symmetry_Int_Tables_number       1
_symmetry_cell_setting            triclinic
loop_
_symmetry_equiv_pos_as_xyz
'x, y, z'
_cell_length_a     89.475188
_cell_length_b     89.582822
_cell_length_c     65.739261
_cell_angle_alpha  90.012511
_cell_angle_beta   89.980866
_cell_angle_gamma 120.08476
loop_
_atom_site_label
_atom_site_type_symbol
_atom_site_fract_x
_atom_site_fract_y
_atom_site_fract_z
_atom_type_partial_charge
In0 In 0.00318 0.35621 0.01262 0.0
O1 O 0.98567 0.35566 0.03858 0.0
O2 O 0.01109 0.37714 0.03647 0.0
C3 C 0.97597 0.32757 0.99705 0.0
C4 C 0.02741 0.3497 0.02772 0.0
C5 C 0.01187 0.37774 0.9803 0.0
O6 O 0.97534 0.34105 1.00094 0.0
O7 O 0.99012 0.32848 0.0014 0.0
O8 O 0.01242 0.36395 0.97963 0.0
O9 O 0.00738 0.38076 0.99724 0.0
C10 C 0.99691 0.37 0.04588 0.0
O11 O 0.03105 0.36169 0.01513 0.0
O12 O 0.01165 0.34099 0.03239 0.0
In13 In 0.64695 0.64824 0.0114 0.0
O14 O 0.64727 0.64215 0.04517 0.0
O15 O 0.6327 0.62119 0.02522 0.0
C16 C 0.67589 0.65103 0.99466 0.0
C17 C 0.6507 0.6778 0.02734 0.0
C18 C 0.62387 0.6376 0.98031 0.0
O19 O 0.66499 0.63764 0.00402 0.0
O20 O 0.6723 0.66296 0.99411 0.0
O21 O 0.63993 0.64669 0.97765 0.0
O22 O 0.61939 0.63436 0.99869 0.0
C23 C 0.63719 0.62613 0.04329 0.0
O24 O 0.6363 0.66564 0.0214 0.0
O25 O 0.66316 0.67518 0.02485 0.0
In26 In 0.35639 0.00014 0.01033 0.0
O27 O 0.3605 0.02766 0.00919 0.0
O28 O 0.34596 0.01019 0.98568 0.0
C29 C 0.37731 0.00879 0.04328 0.0
C30 C 0.37128 0.99254 0.97942 0.0
C31 C 0.32665 0.97361 0.02505 0.0
O32 O 0.36304 0.00845 0.04381 0.0
O33 O 0.38107 0.00522 0.02619 0.0
O34 O 0.33999 0.97245 0.02223 0.0
O35 O 0.32824 0.9879 0.01999 0.0
C36 C 0.35212 0.02515 0.99288 0.0
O37 O 0.35545 0.98308 0.98365 0.0
O38 O 0.37937 0.00551 0.99078 0.0
In39 In 0.9989 0.64498 0.01417 0.0
O40 O 0.00199 0.64172 0.98027 0.0
O41 O 0.01299 0.63171 1.00086 0.0
C42 C 0.02429 0.67448 0.03059 0.0
C43 C 0.97318 0.65015 1.00094 0.0
C44 C 0.98861 0.6215 0.04465 0.0
O45 O 0.02691 0.66759 0.01522 0.0
O46 O 0.00901 0.66667 0.0372 0.0
O47 O 0.98399 0.6172 0.02644 0.0
O48 O 0.99802 0.63749 0.04739 0.0
C49 C 0.00993 0.63353 0.98257 0.0
O50 O 0.97029 0.63611 0.00882 0.0
O51 O 0.9889 0.66157 1.00019 0.0
In52 In 0.35278 0.35317 0.01338 0.0
O53 O 0.35413 0.37251 0.98959 0.0
O54 O 0.3754 0.36829 0.99196 0.0
C55 C 0.32258 0.34457 0.03187 0.0
C56 C 0.34596 0.3231 0.99582 0.0
C57 C 0.37489 0.37047 0.0439 0.0
O58 O 0.32714 0.35297 0.01541 0.0
O59 O 0.33305 0.34026 0.03867 0.0
O60 O 0.37398 0.3572 0.0359 0.0
O61 O 0.36479 0.37499 0.03638 0.0
C62 C 0.36887 0.37616 0.98312 0.0
O63 O 0.35523 0.32893 0.01152 0.0
O64 O 0.33999 0.33228 0.98927 0.0
In65 In 0.64547 0.99944 0.01195 0.0
O66 O 0.64641 0.00676 0.04572 0.0
O67 O 0.62644 0.00563 0.02728 0.0
C68 C 0.6752 0.02458 0.9952 0.0
C69 C 0.64774 0.97249 0.02686 0.0
C70 C 0.62311 0.99197 0.98085 0.0
O71 O 0.66918 0.02687 0.01152 0.0
O72 O 0.66635 0.00976 0.98766 0.0
O73 O 0.62973 0.98271 0.98479 0.0
O74 O 0.62769 0.00466 0.99258 0.0
C75 C 0.63305 0.00813 0.04473 0.0
O76 O 0.63342 0.97171 0.02388 0.0
O77 O 0.66074 0.98659 0.02178 0.0
In78 In 0.66851 0.68761 0.34627 0.0
O79 O 0.65253 0.6885 0.37291 0.0
O80 O 0.67625 0.71123 0.36602 0.0
C81 C 0.64549 0.65654 0.33044 0.0
C82 C 0.69214 0.682 0.36475 0.0
C83 C 0.67372 0.70868 0.31426 0.0
O84 O 0.64093 0.66603 0.33949 0.0
O85 O 0.66158 0.66256 0.32968 0.0
O86 O 0.68546 0.70608 0.32092 0.0
O87 O 0.6596 0.7007 0.3237 0.0
C88 C 0.6631 0.70403 0.37734 0.0
O89 O 0.69493 0.6894 0.34765 0.0
O90 O 0.67747 0.67736 0.37228 0.0
In91 In 0.3123 0.98113 0.34457 0.0
O92 O 0.31074 0.97549 0.37859 0.0
O93 O 0.29912 0.95409 0.35847 0.0
C94 C 0.34183 0.98466 0.32887 0.0
C95 C 0.31576 0.01101 0.35898 0.0
C96 C 0.28964 0.96849 0.31312 0.0
O97 O 0.33342 0.97368 0.34252 0.0
O98 O 0.3355 0.99387 0.32364 0.0
O99 O 0.30554 0.97882 0.31082 0.0
O100 O 0.28495 0.96492 0.33141 0.0
C101 C 0.30202 0.95932 0.37666 0.0
O102 O 0.30141 0.99865 0.35325 0.0
O103 O 0.32826 0.00839 0.35707 0.0
In104 In 0.02109 0.33377 0.34671 0.0
O105 O 0.03257 0.36161 0.33537 0.0
O106 O 0.00531 0.34584 0.33595 0.0
C107 C 0.04136 0.33874 0.3793 0.0
C108 C 0.03432 0.32549 0.31446 0.0
C109 C 0.99106 0.30966 0.36332 0.0
O110 O 0.03837 0.35031 0.37292 0.0
O111 O 0.0342 0.3249 0.36919 0.0
O112 O 0.99756 0.30653 0.34797 0.0
O113 O 0.99958 0.32491 0.36993 0.0
C114 C 0.01814 0.36031 0.33166 0.0
O115 O 0.01872 0.32177 0.31506 0.0
O116 O 0.04292 0.33301 0.33011 0.0
In117 In 0.66567 0.97772 0.34733 0.0
O118 O 0.68053 0.96546 0.33375 0.0
O119 O 0.67035 0.97652 0.31342 0.0
C120 C 0.69073 0.0075 0.36368 0.0
C121 C 0.63891 0.98046 0.33255 0.0
C122 C 0.65542 0.9545 0.37818 0.0
O123 O 0.69394 0.99954 0.35006 0.0
O124 O 0.67505 0.00058 0.36863 0.0
O125 O 0.66153 0.97041 0.38097 0.0
O126 O 0.65401 0.95013 0.35974 0.0
C127 C 0.67823 0.96825 0.31551 0.0
O128 O 0.63722 0.96629 0.3384 0.0
O129 O 0.65392 0.99319 0.33455 0.0
In130 In 0.02131 0.68702 0.34438 0.0
O131 O 0.02469 0.70817 0.32215 0.0
O132 O 0.04071 0.69704 0.31853 0.0
C133 C 0.99241 0.68311 0.36262 0.0
C134 C 0.01307 0.65594 0.32851 0.0
C135 C 0.04495 0.7032 0.37407 0.0
O136 O 0.99655 0.68887 0.34473 0.0
O137 O 0.00271 0.67931 0.37101 0.0
O138 O 0.03503 0.68706 0.3738 0.0
O139 O 0.04319 0.71111 0.35924 0.0
C140 C 0.03657 0.70777 0.31213 0.0
O141 O 0.0254 0.66386 0.34082 0.0
O142 O 0.00471 0.66348 0.32464 0.0
In143 In 0.318 0.33749 0.3474 0.0
O144 O 0.31703 0.31154 0.34914 0.0
O145 O 0.33139 0.33032 0.37176 0.0
C146 C 0.2959 0.33154 0.31627 0.0
C147 C 0.30116 0.3422 0.37871 0.0
C148 C 0.34831 0.36033 0.32984 0.0
O149 O 0.29746 0.31962 0.32441 0.0
O150 O 0.30538 0.34626 0.32388 0.0
O151 O 0.34095 0.36478 0.34294 0.0
O152 O 0.34056 0.3444 0.32597 0.0
C153 C 0.32616 0.31529 0.36503 0.0
O154 O 0.31546 0.35418 0.37217 0.0
O155 O 0.29543 0.32809 0.36935 0.0
In156 In 0.33408 0.02224 0.67912 0.0
O157 O 0.36047 0.02363 0.67816 0.0
O158 O 0.3447 0.01281 0.70425 0.0
C159 C 0.34336 0.04352 0.64641 0.0
C160 C 0.32672 0.0372 0.71019 0.0
C161 C 0.30694 0.99251 0.66543 0.0
O162 O 0.34104 0.02845 0.64529 0.0
O163 O 0.34155 0.04795 0.66399 0.0
O164 O 0.32062 0.99348 0.67205 0.0
O165 O 0.30667 0.00645 0.66634 0.0
C166 C 0.35877 0.01693 0.69552 0.0
O167 O 0.31573 0.02252 0.70338 0.0
O168 O 0.34112 0.04416 0.70123 0.0
In169 In 0.97898 0.31393 0.67751 0.0
O170 O 0.97182 0.33467 0.68374 0.0
O171 O 0.9954 0.33828 0.69604 0.0
C172 C 0.9584 0.29872 0.64491 0.0
C173 C 0.96333 0.29355 0.71014 0.0
C174 C 0.00902 0.31963 0.66096 0.0
O175 O 0.96377 0.31429 0.64948 0.0
O176 O 0.96341 0.29103 0.6567 0.0
O177 O 0.99937 0.30625 0.67118 0.0
O178 O 0.00362 0.33015 0.6593 0.0
C179 C 0.98512 0.34399 0.69425 0.0
O180 O 0.97888 0.29862 0.70568 0.0
O181 O 0.95586 0.29868 0.69815 0.0
In182 In 0.68507 0.66444 0.67676 0.0
O183 O 0.69301 0.69274 0.67178 0.0
O184 O 0.6674 0.67367 0.66399 0.0
C185 C 0.70799 0.66883 0.7061 0.0
C186 C 0.69821 0.65771 0.64311 0.0
C187 C 0.65549 0.64165 0.6954 0.0
O188 O 0.70401 0.6802 0.70213 0.0
O189 O 0.70066 0.65552 0.69508 0.0
O190 O 0.65753 0.64128 0.67641 0.0
O191 O 0.66818 0.65355 0.70476 0.0
C192 C 0.67862 0.68947 0.66454 0.0
O193 O 0.68621 0.64586 0.65337 0.0
O194 O 0.70332 0.67268 0.64976 0.0
In195 In 0.33469 0.31421 0.6813 0.0
O196 O 0.34898 0.31457 0.65226 0.0
O197 O 0.33167 0.29022 0.66546 0.0
C198 C 0.35723 0.34495 0.69837 0.0
C199 C 0.30991 0.31803 0.66244 0.0
C200 C 0.32902 0.29271 0.71276 0.0
O201 O 0.36185 0.33754 0.6856 0.0
O202 O 0.34128 0.33705 0.70216 0.0
O203 O 0.31703 0.2943 0.70476 0.0
O204 O 0.34373 0.30192 0.70483 0.0
C205 C 0.34207 0.29837 0.65126 0.0
O206 O 0.30764 0.31126 0.67983 0.0
O207 O 0.32457 0.32295 0.65486 0.0
In208 In 0.69067 0.02018 0.67973 0.0
O209 O 0.69153 0.03929 0.65589 0.0
O210 O 0.71102 0.03234 0.65503 0.0
C211 C 0.6621 0.01728 0.69742 0.0
C212 C 0.68271 0.98884 0.66477 0.0
C213 C 0.71337 0.03586 0.71038 0.0
O214 O 0.66609 0.02216 0.67919 0.0
O215 O 0.67246 0.01391 0.7065 0.0
O216 O 0.70339 0.01973 0.70976 0.0
O217 O 0.71207 0.04401 0.69549 0.0
C218 C 0.70496 0.04107 0.64727 0.0
O219 O 0.69742 0.99934 0.67177 0.0
O220 O 0.67195 0.99395 0.66573 0.0
In221 In 0.98209 0.66829 0.67898 0.0
O222 O 0.97158 0.6402 0.68867 0.0
O223 O 0.99805 0.65812 0.69427 0.0
C224 C 0.96322 0.66202 0.64464 0.0
C225 C 0.96719 0.67567 0.71042 0.0
C226 C 0.0125 0.69252 0.66318 0.0
O227 O 0.96529 0.6505 0.65307 0.0
O228 O 0.97064 0.67643 0.65351 0.0
O229 O 0.00292 0.69634 0.67342 0.0
O230 O 0.00689 0.67656 0.66129 0.0
C231 C 0.98576 0.64281 0.69591 0.0
O232 O 0.98311 0.68064 0.71011 0.0
O233 O 0.95907 0.66743 0.69485 0.0
H234 H 0.14944 0.34624 0.19376 0.0
H235 H 0.12598 0.34513 0.21397 0.0
H236 H 0.0893 0.29888 0.18221 0.0
H237 H 0.11295 0.29999 0.16206 0.0
H238 H 0.15904 0.32173 0.1935 0.0
H239 H 0.14328 0.35111 0.14459 0.0
H240 H 0.12362 0.3557 0.12328 0.0
H241 H 0.10679 0.30657 0.09393 0.0
H242 H 0.12706 0.30246 0.11486 0.0
H243 H 0.17513 0.30362 0.11413 0.0
H244 H 0.1995 0.3067 0.09429 0.0
H245 H 0.23456 0.34772 0.13432 0.0
H246 H 0.21004 0.34555 0.15296 0.0
H247 H 0.16369 0.32445 0.1183 0.0
H248 H 0.18719 0.30025 0.16675 0.0
H249 H 0.20785 0.29921 0.19049 0.0
H250 H 0.2112 0.34252 0.22332 0.0
H251 H 0.191 0.34381 0.19948 0.0
C252 C 0.13293 0.32322 0.17642 0.0
C253 C 0.13632 0.33596 0.191 0.0
C254 C 0.1229 0.33538 0.20243 0.0
C255 C 0.1058 0.32193 0.19963 0.0
C256 C 0.10236 0.30934 0.18473 0.0
C257 C 0.11582 0.31002 0.17315 0.0
C258 C 0.14745 0.32324 0.16554 0.0
C259 C 0.16022 0.32247 0.17705 0.0
C260 C 0.14871 0.3239 0.14414 0.0
C261 C 0.1365 0.32639 0.13139 0.0
C262 C 0.1353 0.34132 0.13359 0.0
C263 C 0.12398 0.34388 0.12144 0.0
C264 C 0.11351 0.33147 0.10691 0.0
C265 C 0.11481 0.31652 0.10473 0.0
C266 C 0.1263 0.31407 0.11676 0.0
C267 C 0.19068 0.32418 0.13525 0.0
C268 C 0.18807 0.31331 0.11861 0.0
C269 C 0.20209 0.31497 0.10738 0.0
C270 C 0.21911 0.32743 0.11267 0.0
C271 C 0.22168 0.33815 0.12955 0.0
C272 C 0.20763 0.3367 0.14052 0.0
C273 C 0.17562 0.32304 0.14625 0.0
C274 C 0.16259 0.32351 0.13475 0.0
C275 C 0.17439 0.32251 0.16779 0.0
C276 C 0.18754 0.32213 0.18128 0.0
C277 C 0.19258 0.30967 0.17887 0.0
C278 C 0.20432 0.30905 0.19246 0.0
C279 C 0.21096 0.32068 0.20884 0.0
C280 C 0.20607 0.33323 0.21103 0.0
C281 C 0.19454 0.33398 0.19738 0.0
H282 H 0.70684 0.87745 0.18609 0.0
H283 H 0.70858 0.89966 0.20914 0.0
H284 H 0.65645 0.88604 0.19295 0.0
H285 H 0.65459 0.86342 0.17045 0.0
H286 H 0.68552 0.84373 0.19009 0.0
H287 H 0.69499 0.88646 0.13955 0.0
H288 H 0.68963 0.90645 0.11973 0.0
H289 H 0.64023 0.86413 0.10094 0.0
H290 H 0.64538 0.84425 0.12115 0.0
H291 H 0.64667 0.80299 0.11988 0.0
H292 H 0.64261 0.77838 0.09952 0.0
H293 H 0.69169 0.78611 0.12052 0.0
H294 H 0.69613 0.81122 0.14023 0.0
H295 H 0.66798 0.83484 0.11764 0.0
H296 H 0.65548 0.79287 0.16984 0.0
H297 H 0.65755 0.77232 0.1925 0.0
H298 H 0.70924 0.81149 0.20937 0.0
H299 H 0.70714 0.83197 0.18661 0.0
C300 C 0.68062 0.86881 0.17645 0.0
C301 C 0.69584 0.87935 0.18738 0.0
C302 C 0.69686 0.89214 0.20044 0.0
C303 C 0.68264 0.89461 0.20293 0.0
C304 C 0.66756 0.88434 0.19155 0.0
C305 C 0.66655 0.87153 0.1785 0.0
C306 C 0.67906 0.85413 0.16425 0.0
C307 C 0.68198 0.84193 0.17412 0.0
C308 C 0.67376 0.85146 0.14364 0.0
C309 C 0.67052 0.86383 0.13205 0.0
C310 C 0.68288 0.88151 0.13146 0.0
C311 C 0.67983 0.89291 0.12008 0.0
C312 C 0.66452 0.88682 0.10878 0.0
C313 C 0.65221 0.86915 0.10934 0.0
C314 C 0.65515 0.85779 0.1209 0.0
C315 C 0.67164 0.80894 0.13181 0.0
C316 C 0.65664 0.7995 0.12005 0.0
C317 C 0.6543 0.78543 0.10844 0.0
C318 C 0.66682 0.78037 0.10852 0.0
C319 C 0.68177 0.78967 0.12038 0.0
C320 C 0.68426 0.80396 0.13173 0.0
C321 C 0.67423 0.82428 0.14354 0.0
C322 C 0.67158 0.83665 0.13358 0.0
C323 C 0.67942 0.82693 0.16421 0.0
C324 C 0.6812 0.81395 0.17642 0.0
C325 C 0.6674 0.79693 0.17808 0.0
C326 C 0.6686 0.7852 0.19104 0.0
C327 C 0.68354 0.79031 0.20277 0.0
C328 C 0.69749 0.80723 0.20071 0.0
C329 C 0.69631 0.81892 0.18768 0.0
H330 H 0.11442 0.81219 0.1588 0.0
H331 H 0.09228 0.79193 0.18257 0.0
H332 H 0.13203 0.79018 0.218 0.0
H333 H 0.1539 0.81026 0.19443 0.0
H334 H 0.16133 0.84269 0.18766 0.0
H335 H 0.13442 0.82351 0.10575 0.0
H336 H 0.11435 0.79868 0.08564 0.0
H337 H 0.11714 0.76471 0.13033 0.0
H338 H 0.13842 0.7897 0.14938 0.0
H339 H 0.19861 0.84488 0.11543 0.0
H340 H 0.22338 0.86517 0.09505 0.0
H341 H 0.21656 0.90703 0.11612 0.0
H342 H 0.19147 0.88662 0.13616 0.0
H343 H 0.16625 0.83515 0.1138 0.0
H344 H 0.21103 0.865 0.16473 0.0
H345 H 0.23179 0.88782 0.18711 0.0
H346 H 0.19187 0.89836 0.20675 0.0
H347 H 0.17146 0.87607 0.18378 0.0
C348 C 0.13581 0.81276 0.17489 0.0
C349 C 0.11828 0.80725 0.17156 0.0
C350 C 0.10568 0.79571 0.18514 0.0
C351 C 0.11047 0.78967 0.2023 0.0
C352 C 0.12797 0.79488 0.20518 0.0
C353 C 0.14047 0.8063 0.19166 0.0
C354 C 0.14962 0.82606 0.16188 0.0
C355 C 0.16233 0.8411 0.17144 0.0
C356 C 0.15083 0.82397 0.1407 0.0
C357 C 0.13779 0.80856 0.1293 0.0
C358 C 0.13078 0.81071 0.11118 0.0
C359 C 0.11911 0.79643 0.09978 0.0
C360 C 0.11394 0.77957 0.10634 0.0
C361 C 0.12093 0.77745 0.12458 0.0
C362 C 0.13289 0.79177 0.13577 0.0
C363 C 0.19323 0.86421 0.12751 0.0
C364 C 0.20235 0.85841 0.11559 0.0
C365 C 0.21649 0.87 0.10393 0.0
C366 C 0.2219 0.88767 0.10403 0.0
C367 C 0.21279 0.8935 0.11595 0.0
C368 C 0.19848 0.88186 0.12744 0.0
C369 C 0.17813 0.85163 0.1397 0.0
C370 C 0.16511 0.83682 0.12996 0.0
C371 C 0.17654 0.8539 0.16073 0.0
C372 C 0.18971 0.8689 0.17247 0.0
C373 C 0.20688 0.87252 0.17348 0.0
C374 C 0.21868 0.88544 0.18647 0.0
C375 C 0.21348 0.89486 0.19884 0.0
C376 C 0.1964 0.89153 0.19729 0.0
C377 C 0.18467 0.8787 0.18426 0.0
H378 H 0.29045 0.16761 0.8397 0.0
H379 H 0.28937 0.18841 0.81648 0.0
H380 H 0.34056 0.22709 0.83553 0.0
H381 H 0.34174 0.20624 0.85841 0.0
H382 H 0.31099 0.1551 0.83754 0.0
H383 H 0.29934 0.18534 0.88971 0.0
H384 H 0.30306 0.21027 0.90925 0.0
H385 H 0.35527 0.2233 0.92402 0.0
H386 H 0.35156 0.19851 0.90425 0.0
H387 H 0.35291 0.15448 0.90312 0.0
H388 H 0.35831 0.13452 0.92287 0.0
H389 H 0.30643 0.09342 0.91019 0.0
H390 H 0.30099 0.11354 0.89074 0.0
H391 H 0.32987 0.16485 0.90958 0.0
H392 H 0.3417 0.13514 0.85689 0.0
H393 H 0.33953 0.11269 0.8339 0.0
H394 H 0.28711 0.09897 0.81923 0.0
H395 H 0.28934 0.12143 0.8423 0.0
C396 C 0.31612 0.18536 0.85097 0.0
C397 C 0.30138 0.18062 0.83903 0.0
C398 C 0.30078 0.19249 0.82575 0.0
C399 C 0.31488 0.20936 0.82418 0.0
C400 C 0.3294 0.21426 0.83662 0.0
C401 C 0.33006 0.20234 0.84976 0.0
C402 C 0.31755 0.17218 0.86322 0.0
C403 C 0.3147 0.15704 0.85345 0.0
C404 C 0.32294 0.17495 0.88379 0.0
C405 C 0.32522 0.19014 0.89541 0.0
C406 C 0.31162 0.19364 0.89704 0.0
C407 C 0.31371 0.20779 0.90834 0.0
C408 C 0.32946 0.21872 0.91816 0.0
C409 C 0.34305 0.2152 0.91646 0.0
C410 C 0.34091 0.20099 0.90529 0.0
C411 C 0.32658 0.13548 0.89535 0.0
C412 C 0.34269 0.14117 0.90461 0.0
C413 C 0.3458 0.12974 0.91578 0.0
C414 C 0.3328 0.11241 0.91806 0.0
C415 C 0.31665 0.10674 0.90884 0.0
C416 C 0.31357 0.11817 0.89757 0.0
C417 C 0.32334 0.14781 0.88384 0.0
C418 C 0.32587 0.16279 0.89376 0.0
C419 C 0.31759 0.14485 0.86341 0.0
C420 C 0.31564 0.12992 0.85143 0.0
C421 C 0.32959 0.12702 0.84913 0.0
C422 C 0.32834 0.11418 0.83596 0.0
C423 C 0.31316 0.1041 0.82469 0.0
C424 C 0.29903 0.10666 0.82752 0.0
C425 C 0.30027 0.11945 0.84074 0.0
H426 H 0.83175 0.12925 0.83852 0.0
H427 H 0.8116 0.10732 0.81534 0.0
H428 H 0.77002 0.11295 0.84062 0.0
H429 H 0.79066 0.13628 0.86208 0.0
H430 H 0.84207 0.16065 0.83781 0.0
H431 H 0.81343 0.11828 0.89127 0.0
H432 H 0.78874 0.09711 0.91128 0.0
H433 H 0.77585 0.13626 0.92634 0.0
H434 H 0.80035 0.15726 0.90609 0.0
H435 H 0.84375 0.20148 0.90719 0.0
H436 H 0.86424 0.2268 0.92673 0.0
H437 H 0.90599 0.21943 0.90643 0.0
H438 H 0.88544 0.19383 0.88737 0.0
H439 H 0.83417 0.1693 0.9106 0.0
H440 H 0.86147 0.211 0.85652 0.0
H441 H 0.88365 0.23156 0.83336 0.0
H442 H 0.89876 0.19383 0.81927 0.0
H443 H 0.87639 0.17329 0.84222 0.0
C444 C 0.81283 0.13447 0.85224 0.0
C445 C 0.81828 0.12577 0.83909 0.0
C446 C 0.80661 0.11297 0.82596 0.0
C447 C 0.78903 0.10822 0.82591 0.0
C448 C 0.78346 0.11642 0.83979 0.0
C449 C 0.79526 0.12959 0.85251 0.0
C450 C 0.82581 0.14962 0.86414 0.0
C451 C 0.84049 0.1623 0.85386 0.0
C452 C 0.82353 0.15223 0.88491 0.0
C453 C 0.80865 0.13931 0.89706 0.0
C454 C 0.80523 0.12226 0.89881 0.0
C455 C 0.79121 0.11023 0.91037 0.0
C456 C 0.78035 0.11503 0.92035 0.0
C457 C 0.78388 0.13213 0.91865 0.0
C458 C 0.79793 0.14417 0.9072 0.0
C459 C 0.86304 0.19582 0.89559 0.0
C460 C 0.85731 0.20527 0.90698 0.0
C461 C 0.869 0.21972 0.91815 0.0
C462 C 0.88669 0.22509 0.91802 0.0
C463 C 0.89245 0.2157 0.90656 0.0
C464 C 0.88072 0.20111 0.89561 0.0
C465 C 0.85042 0.18017 0.88424 0.0
C466 C 0.83582 0.16747 0.89461 0.0
C467 C 0.85276 0.17752 0.86354 0.0
C468 C 0.8673 0.19062 0.85113 0.0
C469 C 0.86976 0.20728 0.8487 0.0
C470 C 0.88248 0.21902 0.83548 0.0
C471 C 0.89294 0.21431 0.82437 0.0
C472 C 0.89076 0.19779 0.82734 0.0
C473 C 0.87803 0.18605 0.84051 0.0
H474 H 0.80666 0.64884 0.82619 0.0
H475 H 0.78716 0.65092 0.80188 0.0
H476 H 0.78817 0.692 0.83721 0.0
H477 H 0.80834 0.69044 0.86124 0.0
H478 H 0.83793 0.67095 0.83285 0.0
H479 H 0.7877 0.64365 0.876 0.0
H480 H 0.76286 0.63986 0.89574 0.0
H481 H 0.79625 0.68611 0.92976 0.0
H482 H 0.82104 0.68965 0.91018 0.0
H483 H 0.86844 0.69049 0.91312 0.0
H484 H 0.88922 0.68762 0.93458 0.0
H485 H 0.879 0.64184 0.90128 0.0
H486 H 0.85847 0.64493 0.87979 0.0
H487 H 0.83405 0.66834 0.90809 0.0
H488 H 0.88431 0.69494 0.86322 0.0
H489 H 0.90823 0.69763 0.84216 0.0
H490 H 0.87297 0.65028 0.81126 0.0
H491 H 0.84924 0.64765 0.83229 0.0
C492 C 0.809 0.66946 0.84562 0.0
C493 C 0.80269 0.65829 0.82881 0.0
C494 C 0.79156 0.65947 0.81491 0.0
C495 C 0.78631 0.6717 0.81766 0.0
C496 C 0.79202 0.68244 0.83486 0.0
C497 C 0.80344 0.68146 0.84864 0.0
C498 C 0.82246 0.66936 0.85881 0.0
C499 C 0.83689 0.67012 0.84931 0.0
C500 C 0.82148 0.66886 0.88033 0.0
C501 C 0.80622 0.66701 0.89151 0.0
C502 C 0.78963 0.65307 0.88756 0.0
C503 C 0.77543 0.65093 0.89886 0.0
C504 C 0.77755 0.66266 0.91439 0.0
C505 C 0.79418 0.67668 0.91816 0.0
C506 C 0.80836 0.67878 0.9069 0.0
C507 C 0.8621 0.66807 0.89468 0.0
C508 C 0.87075 0.67988 0.91043 0.0
C509 C 0.88254 0.67817 0.92274 0.0
C510 C 0.8858 0.66452 0.91962 0.0
C511 C 0.87703 0.65267 0.90387 0.0
C512 C 0.86529 0.65442 0.89156 0.0
C513 C 0.84919 0.66955 0.88202 0.0
C514 C 0.83499 0.66918 0.89163 0.0
C515 C 0.8502 0.67015 0.86057 0.0
C516 C 0.86502 0.67108 0.84932 0.0
C517 C 0.88183 0.68503 0.85211 0.0
C518 C 0.89543 0.6866 0.84001 0.0
C519 C 0.89246 0.67416 0.82509 0.0
C520 C 0.87571 0.65996 0.82279 0.0
C521 C 0.86212 0.6585 0.83471 0.0
H522 H 0.81737 0.67327 0.53059 0.0
H523 H 0.7945 0.67065 0.55305 0.0
H524 H 0.75664 0.62834 0.51677 0.0
H525 H 0.77975 0.63099 0.49419 0.0
H526 H 0.82715 0.6506 0.52464 0.0
H527 H 0.80413 0.67833 0.48439 0.0
H528 H 0.78301 0.68213 0.4652 0.0
H529 H 0.77796 0.64315 0.42245 0.0
H530 H 0.79816 0.63853 0.44263 0.0
H531 H 0.84335 0.63888 0.44247 0.0
H532 H 0.868 0.64402 0.42152 0.0
H533 H 0.90217 0.68448 0.46269 0.0
H534 H 0.87735 0.68001 0.48278 0.0
H535 H 0.8306 0.65879 0.44993 0.0
H536 H 0.85659 0.63324 0.49306 0.0
H537 H 0.87776 0.6316 0.5154 0.0
H538 H 0.87979 0.67224 0.55273 0.0
H539 H 0.85903 0.67406 0.53038 0.0
C540 C 0.80031 0.65231 0.51073 0.0
C541 C 0.80416 0.66342 0.52742 0.0
C542 C 0.79108 0.66187 0.5403 0.0
C543 C 0.77381 0.64914 0.53682 0.0
C544 C 0.76984 0.63829 0.51978 0.0
C545 C 0.78301 0.63981 0.50688 0.0
C546 C 0.81465 0.65343 0.4982 0.0
C547 C 0.82799 0.65255 0.50829 0.0
C548 C 0.81551 0.65561 0.47682 0.0
C549 C 0.80251 0.65787 0.46524 0.0
C550 C 0.79819 0.67031 0.47116 0.0
C551 C 0.7863 0.67269 0.45992 0.0
C552 C 0.77874 0.66298 0.44219 0.0
C553 C 0.78324 0.65066 0.43619 0.0
C554 C 0.79494 0.64811 0.44762 0.0
C555 C 0.85847 0.65887 0.4644 0.0
C556 C 0.85615 0.64889 0.44695 0.0
C557 C 0.87031 0.65175 0.43507 0.0
C558 C 0.88714 0.66463 0.44042 0.0
C559 C 0.88941 0.67459 0.45794 0.0
C560 C 0.87522 0.67185 0.46967 0.0
C561 C 0.84326 0.6562 0.47644 0.0
C562 C 0.82969 0.65668 0.46624 0.0
C563 C 0.84238 0.65411 0.49784 0.0
C564 C 0.85618 0.65376 0.51006 0.0
C565 C 0.86182 0.64198 0.50587 0.0
C566 C 0.87385 0.64101 0.51864 0.0
C567 C 0.88021 0.65164 0.53593 0.0
C568 C 0.87487 0.66368 0.53973 0.0
C569 C 0.86304 0.66475 0.52693 0.0
H570 H 0.37091 0.2058 0.5257 0.0
H571 H 0.37173 0.22689 0.54953 0.0
H572 H 0.32669 0.22349 0.52056 0.0
H573 H 0.3248 0.20093 0.4984 0.0
H574 H 0.34958 0.17452 0.52324 0.0
H575 H 0.36777 0.22008 0.47288 0.0
H576 H 0.36606 0.24276 0.45389 0.0
H577 H 0.31453 0.20548 0.43417 0.0
H578 H 0.31623 0.18296 0.45328 0.0
H579 H 0.31444 0.13855 0.44978 0.0
H580 H 0.30977 0.11395 0.42894 0.0
H581 H 0.35711 0.11862 0.45195 0.0
H582 H 0.36212 0.14363 0.47227 0.0
H583 H 0.33793 0.17059 0.4492 0.0
H584 H 0.32048 0.12493 0.49893 0.0
H585 H 0.32146 0.10285 0.51981 0.0
H586 H 0.37184 0.14098 0.54207 0.0
H587 H 0.37113 0.1627 0.52043 0.0
C588 C 0.34788 0.20177 0.51003 0.0
C589 C 0.36117 0.20956 0.52449 0.0
C590 C 0.36176 0.22188 0.538 0.0
C591 C 0.34928 0.22706 0.53713 0.0
C592 C 0.33636 0.21969 0.52209 0.0
C593 C 0.33548 0.20698 0.50899 0.0
C594 C 0.34631 0.18728 0.49727 0.0
C595 C 0.34741 0.17388 0.50695 0.0
C596 C 0.34291 0.18606 0.47611 0.0
C597 C 0.34208 0.19987 0.4646 0.0
C598 C 0.35609 0.21684 0.46451 0.0
C599 C 0.35514 0.22973 0.45357 0.0
C600 C 0.34013 0.22588 0.44261 0.0
C601 C 0.32617 0.20887 0.44266 0.0
C602 C 0.32718 0.19597 0.45345 0.0
C603 C 0.33853 0.14285 0.46282 0.0
C604 C 0.3239 0.13437 0.45027 0.0
C605 C 0.32122 0.12033 0.43837 0.0
C606 C 0.33305 0.11438 0.43893 0.0
C607 C 0.3477 0.12284 0.45145 0.0
C608 C 0.35052 0.13708 0.46311 0.0
C609 C 0.3413 0.15792 0.47519 0.0
C610 C 0.34036 0.17139 0.46544 0.0
C611 C 0.34498 0.15925 0.49628 0.0
C612 C 0.34579 0.14547 0.50797 0.0
C613 C 0.33188 0.12844 0.50798 0.0
C614 C 0.33239 0.11586 0.52011 0.0
C615 C 0.34672 0.12012 0.53268 0.0
C616 C 0.36072 0.13713 0.53236 0.0
C617 C 0.36026 0.14964 0.52014 0.0
H618 H 0.78915 0.16455 0.51744 0.0
H619 H 0.76694 0.14398 0.54062 0.0
H620 H 0.7798 0.10525 0.52338 0.0
H621 H 0.80218 0.12588 0.50058 0.0
H622 H 0.82237 0.17709 0.52062 0.0
H623 H 0.78116 0.14618 0.46667 0.0
H624 H 0.76078 0.12097 0.44674 0.0
H625 H 0.80056 0.10795 0.43644 0.0
H626 H 0.82088 0.13315 0.45636 0.0
H627 H 0.86602 0.17907 0.45513 0.0
H628 H 0.89091 0.19978 0.43507 0.0
H629 H 0.87763 0.23908 0.44748 0.0
H630 H 0.85264 0.21826 0.46734 0.0
H631 H 0.83213 0.16718 0.44885 0.0
H632 H 0.87314 0.19676 0.50123 0.0
H633 H 0.89391 0.21948 0.52354 0.0
H634 H 0.85579 0.23395 0.53826 0.0
H635 H 0.83499 0.21104 0.51599 0.0
C636 C 0.79727 0.14676 0.50709 0.0
C637 C 0.78706 0.15157 0.51847 0.0
C638 C 0.7744 0.13983 0.53172 0.0
C639 C 0.77165 0.12302 0.53379 0.0
C640 C 0.78145 0.11803 0.52188 0.0
C641 C 0.79422 0.12982 0.50878 0.0
C642 C 0.81209 0.15986 0.49499 0.0
C643 C 0.82428 0.17511 0.50476 0.0
C644 C 0.81501 0.15696 0.47458 0.0
C645 C 0.80249 0.14147 0.46306 0.0
C646 C 0.78545 0.13783 0.46021 0.0
C647 C 0.77387 0.12353 0.44872 0.0
C648 C 0.77912 0.11255 0.44004 0.0
C649 C 0.79615 0.11614 0.44307 0.0
C650 C 0.80777 0.13055 0.45435 0.0
C651 C 0.85756 0.19717 0.46281 0.0
C652 C 0.86849 0.19216 0.45353 0.0
C653 C 0.88273 0.204 0.44218 0.0
C654 C 0.88618 0.22103 0.43973 0.0
C655 C 0.87519 0.226 0.44899 0.0
C656 C 0.86101 0.21418 0.46046 0.0
C657 C 0.84225 0.18444 0.47445 0.0
C658 C 0.83005 0.16928 0.46461 0.0
C659 C 0.83941 0.18735 0.49486 0.0
C660 C 0.85253 0.20225 0.50682 0.0
C661 C 0.86936 0.20505 0.50891 0.0
C662 C 0.88124 0.21808 0.52168 0.0
C663 C 0.87651 0.22853 0.53272 0.0
C664 C 0.85978 0.22599 0.53017 0.0
C665 C 0.8479 0.21295 0.5174 0.0
H666 H 0.95531 0.49956 0.17431 0.0
H667 H 0.95389 0.5196 0.15009 0.0
H668 H 0.00644 0.55785 0.16502 0.0
H669 H 0.00789 0.53769 0.18887 0.0
H670 H 0.97715 0.4871 0.17057 0.0
H671 H 0.96466 0.51688 0.22371 0.0
H672 H 0.96832 0.54187 0.24317 0.0
H673 H 0.0218 0.55746 0.25383 0.0
H674 H 0.01806 0.53241 0.2345 0.0
H675 H 0.01833 0.48841 0.23966 0.0
H676 H 0.02401 0.46882 0.25979 0.0
H677 H 0.97472 0.42601 0.24156 0.0
H678 H 0.96881 0.44568 0.22192 0.0
H679 H 0.99586 0.49791 0.24265 0.0
H680 H 0.0092 0.46878 0.19106 0.0
H681 H 0.00808 0.44642 0.16872 0.0
H682 H 0.95556 0.43116 0.15244 0.0
H683 H 0.95669 0.45347 0.17493 0.0
C684 C 0.98166 0.51716 0.1835 0.0
C685 C 0.96642 0.51236 0.17256 0.0
C686 C 0.96561 0.52383 0.15881 0.0
C687 C 0.98009 0.54025 0.15558 0.0
C688 C 0.99514 0.54522 0.16704 0.0
C689 C 0.99592 0.53378 0.18084 0.0
C690 C 0.98331 0.50429 0.19602 0.0
C691 C 0.98084 0.48922 0.18649 0.0
C692 C 0.98881 0.50745 0.2165 0.0
C693 C 0.99111 0.52284 0.22763 0.0
C694 C 0.97719 0.52573 0.23016 0.0
C695 C 0.97925 0.53992 0.24136 0.0
C696 C 0.99534 0.55155 0.24999 0.0
C697 C 0.00931 0.54875 0.24722 0.0
C698 C 0.00717 0.53443 0.23628 0.0
C699 C 0.99321 0.46853 0.22907 0.0
C700 C 0.00869 0.47482 0.24007 0.0
C701 C 0.01193 0.46364 0.25156 0.0
C702 C 0.99983 0.44592 0.25215 0.0
C703 C 0.98436 0.4396 0.24114 0.0
C704 C 0.98101 0.45082 0.22987 0.0
C705 C 0.98976 0.4806 0.21719 0.0
C706 C 0.99192 0.49557 0.22682 0.0
C707 C 0.98419 0.47742 0.19666 0.0
C708 C 0.98299 0.46275 0.18479 0.0
C709 C 0.99731 0.46037 0.18306 0.0
C710 C 0.99665 0.44757 0.17028 0.0
C711 C 0.98174 0.43706 0.15879 0.0
C712 C 0.96728 0.43918 0.16095 0.0
C713 C 0.9679 0.45189 0.17382 0.0
H714 H 0.48279 0.44662 0.19344 0.0
H715 H 0.46114 0.42578 0.16985 0.0
H716 H 0.45987 0.46745 0.1384 0.0
H717 H 0.48129 0.48813 0.16201 0.0
H718 H 0.51343 0.49511 0.16643 0.0
H719 H 0.49456 0.45654 0.23886 0.0
H720 H 0.46947 0.43539 0.25813 0.0
H721 H 0.43958 0.45724 0.23408 0.0
H722 H 0.46455 0.47768 0.21405 0.0
H723 H 0.51912 0.52635 0.24483 0.0
H724 H 0.54038 0.55007 0.26574 0.0
H725 H 0.5815 0.54676 0.2357 0.0
H726 H 0.56016 0.52234 0.21544 0.0
H727 H 0.50931 0.49466 0.24163 0.0
H728 H 0.53707 0.54285 0.19319 0.0
H729 H 0.55965 0.56487 0.17149 0.0
H730 H 0.56978 0.52625 0.14631 0.0
H731 H 0.54757 0.50448 0.16833 0.0
C732 C 0.48365 0.46895 0.17952 0.0
C733 C 0.4776 0.45122 0.18171 0.0
C734 C 0.46528 0.43933 0.1682 0.0
C735 C 0.45897 0.44503 0.15217 0.0
C736 C 0.46472 0.46272 0.15038 0.0
C737 C 0.47692 0.47454 0.16391 0.0
C738 C 0.49778 0.4819 0.19249 0.0
C739 C 0.51257 0.49502 0.1829 0.0
C740 C 0.49675 0.48169 0.21392 0.0
C741 C 0.48134 0.46856 0.225 0.0
C742 C 0.48253 0.45663 0.23767 0.0
C743 C 0.46819 0.44465 0.2488 0.0
C744 C 0.45243 0.4446 0.24783 0.0
C745 C 0.45135 0.45663 0.235 0.0
C746 C 0.46563 0.46842 0.22361 0.0
C747 C 0.53799 0.52262 0.22831 0.0
C748 C 0.53268 0.53052 0.24287 0.0
C749 C 0.54481 0.54408 0.2548 0.0
C750 C 0.56251 0.55021 0.25222 0.0
C751 C 0.56789 0.54231 0.2378 0.0
C752 C 0.55571 0.52846 0.22615 0.0
C753 C 0.52482 0.50837 0.21555 0.0
C754 C 0.5103 0.49481 0.22517 0.0
C755 C 0.52605 0.50829 0.19406 0.0
C756 C 0.54072 0.52205 0.18246 0.0
C757 C 0.5444 0.53923 0.18327 0.0
C758 C 0.5572 0.55175 0.17075 0.0
C759 C 0.5665 0.5473 0.15713 0.0
C760 C 0.56305 0.53017 0.15679 0.0
C761 C 0.55027 0.51768 0.16927 0.0
H762 H 0.5381 0.03121 0.17093 0.0
H763 H 0.5609 0.033 0.14897 0.0
H764 H 0.55033 0.98298 0.17032 0.0
H765 H 0.52683 0.98085 0.19135 0.0
H766 H 0.50513 0.0101 0.16906 0.0
H767 H 0.54882 0.02203 0.21881 0.0
H768 H 0.56969 0.01815 0.23887 0.0
H769 H 0.52851 0.96946 0.2611 0.0
H770 H 0.50774 0.97297 0.24045 0.0
H771 H 0.46264 0.97184 0.23601 0.0
H772 H 0.43833 0.96861 0.25654 0.0
H773 H 0.45324 0.02162 0.24405 0.0
H774 H 0.47753 0.02477 0.22344 0.0
H775 H 0.4975 0.99479 0.24224 0.0
H776 H 0.45415 0.98229 0.19232 0.0
H777 H 0.43312 0.98492 0.17135 0.0
H778 H 0.47362 0.03411 0.149 0.0
H779 H 0.49433 0.03192 0.17107 0.0
C780 C 0.53077 0.00595 0.18292 0.0
C781 C 0.54069 0.02063 0.1709 0.0
C782 C 0.55389 0.02172 0.1585 0.0
C783 C 0.55754 0.00816 0.15787 0.0
C784 C 0.54778 0.99359 0.17023 0.0
C785 C 0.53445 0.99244 0.18247 0.0
C786 C 0.51609 0.0045 0.19511 0.0
C787 C 0.50364 0.00707 0.18517 0.0
C788 C 0.51384 -2e-05 0.216 0.0
C789 C 0.5267 0.99768 0.22786 0.0
C790 C 0.54429 0.01036 0.22768 0.0
C791 C 0.5562 0.00819 0.23921 0.0
C792 C 0.55066 0.99352 0.2515 0.0
C793 C 0.53307 0.98094 0.25185 0.0
C794 C 0.52122 0.98295 0.24006 0.0
C795 C 0.4718 0.9985 0.22814 0.0
C796 C 0.46064 0.98274 0.23767 0.0
C797 C 0.44674 0.9809 0.2493 0.0
C798 C 0.44395 0.99488 0.25188 0.0
C799 C 0.4552 0.01069 0.24241 0.0
C800 C 0.46898 0.01246 0.23056 0.0
C801 C 0.48669 0.00043 0.21617 0.0
C802 C 0.49913 0.99795 0.22616 0.0
C803 C 0.48892 0.00503 0.19536 0.0
C804 C 0.47584 0.00701 0.18352 0.0
C805 C 0.45843 0.99387 0.18336 0.0
C806 C 0.44643 0.99528 0.17108 0.0
C807 C 0.45164 0.0097 0.15835 0.0
C808 C 0.46904 0.02295 0.1588 0.0
C809 C 0.48097 0.02163 0.17127 0.0
H810 H 0.48518 0.01645 0.85474 0.0
H811 H 0.46159 0.01366 0.87635 0.0
H812 H 0.42726 0.96397 0.84962 0.0
H813 H 0.45087 0.96702 0.82755 0.0
H814 H 0.49698 0.9916 0.85469 0.0
H815 H 0.47375 0.01752 0.81193 0.0
H816 H 0.45254 0.0206 0.79203 0.0
H817 H 0.44717 0.98002 0.75174 0.0
H818 H 0.46748 0.97614 0.77271 0.0
H819 H 0.51249 0.97614 0.77365 0.0
H820 H 0.53718 0.98028 0.7534 0.0
H821 H 0.57146 0.02175 0.79339 0.0
H822 H 0.54668 0.01826 0.8127 0.0
H823 H 0.50004 0.99666 0.7795 0.0
H824 H 0.51917 0.96738 0.828 0.0
H825 H 0.53958 0.9644 0.85038 0.0
H826 H 0.55422 0.01372 0.87759 0.0
H827 H 0.53357 0.01644 0.85564 0.0
C828 C 0.46971 0.99198 0.83954 0.0
C829 C 0.47251 0.00507 0.85335 0.0
C830 C 0.45905 0.0035 0.86558 0.0
C831 C 0.44265 0.98862 0.86455 0.0
C832 C 0.4398 0.97555 0.85063 0.0
C833 C 0.45322 0.9773 0.83804 0.0
C834 C 0.48435 0.99328 0.82763 0.0
C835 C 0.49769 0.9928 0.83824 0.0
C836 C 0.48509 0.99458 0.80617 0.0
C837 C 0.47196 0.99631 0.79416 0.0
C838 C 0.46769 0.00896 0.79915 0.0
C839 C 0.45577 0.01095 0.78745 0.0
C840 C 0.44813 0.00061 0.77017 0.0
C841 C 0.45255 0.98804 0.7651 0.0
C842 C 0.4643 0.9859 0.77699 0.0
C843 C 0.5277 0.99668 0.79493 0.0
C844 C 0.52533 0.98613 0.77803 0.0
C845 C 0.53949 0.98843 0.76655 0.0
C846 C 0.55635 0.00133 0.77176 0.0
C847 C 0.55867 0.01183 0.78876 0.0
C848 C 0.5445 0.00964 0.80007 0.0
C849 C 0.51258 0.99473 0.80653 0.0
C850 C 0.49916 0.99516 0.79591 0.0
C851 C 0.51171 0.9934 0.82798 0.0
C852 C 0.52493 0.99214 0.84019 0.0
C853 C 0.52691 0.97759 0.83867 0.0
C854 C 0.53849 0.97589 0.85144 0.0
C855 C 0.54847 0.98887 0.86558 0.0
C856 C 0.54678 0.00362 0.86666 0.0
C857 C 0.53497 0.00515 0.85423 0.0
H858 H 0.0393 0.54224 0.85462 0.0
H859 H 0.04034 0.56388 0.8781 0.0
H860 H 0.98901 0.5512 0.85936 0.0
H861 H 0.98788 0.52919 0.83628 0.0
H862 H 0.01714 0.50816 0.85668 0.0
H863 H 0.02966 0.55374 0.80898 0.0
H864 H 0.02519 0.57466 0.78988 0.0
H865 H 0.97801 0.53314 0.76485 0.0
H866 H 0.98205 0.51228 0.78457 0.0
H867 H 0.98376 0.47163 0.78178 0.0
H868 H 0.98078 0.44756 0.7611 0.0
H869 H 0.02777 0.45358 0.787 0.0
H870 H 0.03139 0.47836 0.80683 0.0
H871 H 0.00487 0.50337 0.78276 0.0
H872 H 0.98958 0.45817 0.83142 0.0
H873 H 0.99109 0.43637 0.85217 0.0
H874 H 0.03988 0.47571 0.87695 0.0
H875 H 0.0388 0.49714 0.85519 0.0
C876 C 0.01355 0.53414 0.84361 0.0
C877 C 0.02832 0.54421 0.85546 0.0
C878 C 0.02895 0.55667 0.86877 0.0
C879 C 0.01476 0.55927 0.87062 0.0
C880 C 9e-05 0.5494 0.85843 0.0
C881 C 0.99949 0.53693 0.84509 0.0
C882 C 0.01252 0.51998 0.83082 0.0
C883 C 0.01472 0.50722 0.84043 0.0
C884 C 0.00867 0.51847 0.80978 0.0
C885 C 0.00608 0.53139 0.79848 0.0
C886 C 0.01817 0.54912 0.79972 0.0
C887 C 0.01567 0.56107 0.78873 0.0
C888 C 0.00127 0.55547 0.77591 0.0
C889 C 0.98928 0.53776 0.77452 0.0
C890 C 0.9916 0.52586 0.78578 0.0
C891 C 0.00768 0.47675 0.79615 0.0
C892 C 0.99357 0.46796 0.78288 0.0
C893 C 0.99183 0.45419 0.77111 0.0
C894 C 0.004 0.44875 0.77263 0.0
C895 C 0.01815 0.4575 0.78577 0.0
C896 C 0.02013 0.47156 0.79719 0.0
C897 C 0.00935 0.49139 0.80864 0.0
C898 C 0.00731 0.50427 0.799 0.0
C899 C 0.01296 0.49284 0.82977 0.0
C900 C 0.01416 0.4793 0.84156 0.0
C901 C 0.00079 0.46202 0.84096 0.0
C902 C 0.00158 0.44959 0.85306 0.0
C903 C 0.01559 0.45423 0.86634 0.0
C904 C 0.02903 0.47154 0.86669 0.0
C905 C 0.02834 0.48389 0.8544 0.0
H906 H 0.45428 0.50138 0.85513 0.0
H907 H 0.43227 0.48069 0.87841 0.0
H908 H 0.4457 0.44237 0.86104 0.0
H909 H 0.4677 0.46308 0.83796 0.0
H910 H 0.48795 0.51409 0.8578 0.0
H911 H 0.44578 0.48379 0.80457 0.0
H912 H 0.42471 0.45865 0.785 0.0
H913 H 0.46352 0.44446 0.77371 0.0
H914 H 0.48454 0.46963 0.79317 0.0
H915 H 0.53462 0.51866 0.79952 0.0
H916 H 0.55944 0.53922 0.77955 0.0
H917 H 0.5367 0.57185 0.77429 0.0
H918 H 0.51269 0.55176 0.79572 0.0
H919 H 0.49631 0.50403 0.78556 0.0
H920 H 0.53824 0.53329 0.83723 0.0
H921 H 0.55952 0.55596 0.85908 0.0
H922 H 0.52172 0.57026 0.87612 0.0
H923 H 0.50071 0.54808 0.85332 0.0
C924 C 0.46255 0.48376 0.84463 0.0
C925 C 0.45233 0.48846 0.85617 0.0
C926 C 0.43981 0.47665 0.8695 0.0
C927 C 0.43726 0.45991 0.87157 0.0
C928 C 0.44716 0.45508 0.85956 0.0
C929 C 0.45973 0.46691 0.84631 0.0
C930 C 0.47712 0.49686 0.83224 0.0
C931 C 0.48954 0.51208 0.84185 0.0
C932 C 0.47958 0.49394 0.81168 0.0
C933 C 0.46669 0.47851 0.80037 0.0
C934 C 0.4497 0.47521 0.79795 0.0
C935 C 0.43774 0.46094 0.7867 0.0
C936 C 0.44252 0.44965 0.77787 0.0
C937 C 0.45948 0.4529 0.78048 0.0
C938 C 0.47149 0.46729 0.79149 0.0
C939 C 0.52199 0.53383 0.79919 0.0
C940 C 0.53515 0.53036 0.79418 0.0
C941 C 0.54924 0.54208 0.78253 0.0
C942 C 0.55017 0.55727 0.77506 0.0
C943 C 0.53674 0.56054 0.78003 0.0
C944 C 0.52289 0.54901 0.79216 0.0
C945 C 0.50693 0.52123 0.81111 0.0
C946 C 0.49449 0.50615 0.8014 0.0
C947 C 0.50453 0.52424 0.83163 0.0
C948 C 0.51793 0.53915 0.84331 0.0
C949 C 0.53468 0.54167 0.8451 0.0
C950 C 0.54677 0.55447 0.85791 0.0
C951 C 0.5423 0.56487 0.8695 0.0
C952 C 0.52566 0.56263 0.86727 0.0
C953 C 0.5136 0.54987 0.85433 0.0
H954 H 0.62137 0.8324 0.50575 0.0
H955 H 0.62117 0.85334 0.48216 0.0
H956 H 0.67167 0.89185 0.50363 0.0
H957 H 0.67207 0.87061 0.52663 0.0
H958 H 0.64329 0.82067 0.50412 0.0
H959 H 0.63014 0.85265 0.55267 0.0
H960 H 0.63445 0.8778 0.57227 0.0
H961 H 0.68123 0.88298 0.5978 0.0
H962 H 0.67745 0.85845 0.57754 0.0
H963 H 0.67772 0.81787 0.57794 0.0
H964 H 0.68157 0.79727 0.59845 0.0
H965 H 0.63532 0.75532 0.5723 0.0
H966 H 0.63094 0.77597 0.55247 0.0
H967 H 0.6554 0.82693 0.57809 0.0
H968 H 0.67366 0.80172 0.52586 0.0
H969 H 0.67432 0.78098 0.50221 0.0
H970 H 0.62218 0.76516 0.48337 0.0
H971 H 0.62174 0.78612 0.5068 0.0
C972 C 0.64668 0.84994 0.51805 0.0
C973 C 0.63233 0.84541 0.50551 0.0
C974 C 0.63218 0.85744 0.49213 0.0
C975 C 0.64642 0.87427 0.49096 0.0
C976 C 0.66058 0.87894 0.50398 0.0
C977 C 0.66075 0.86686 0.51732 0.0
C978 C 0.64752 0.83655 0.53049 0.0
C979 C 0.64565 0.82191 0.52039 0.0
C980 C 0.65126 0.83851 0.55158 0.0
C981 C 0.65358 0.85371 0.56338 0.0
C982 C 0.6415 0.85936 0.56218 0.0
C983 C 0.64389 0.87364 0.57346 0.0
C984 C 0.65813 0.88222 0.58653 0.0
C985 C 0.67007 0.87646 0.58794 0.0
C986 C 0.66788 0.86244 0.57638 0.0
C987 C 0.65412 0.79853 0.56344 0.0
C988 C 0.6683 0.80426 0.57668 0.0
C989 C 0.67052 0.79251 0.58838 0.0
C990 C 0.65875 0.77477 0.58687 0.0
C991 C 0.64465 0.76896 0.57355 0.0
C992 C 0.64223 0.78075 0.56213 0.0
C993 C 0.65162 0.81127 0.55161 0.0
C994 C 0.65301 0.8257 0.56183 0.0
C995 C 0.64794 0.80941 0.53053 0.0
C996 C 0.64763 0.79543 0.51813 0.0
C997 C 0.66227 0.79355 0.51691 0.0
C998 C 0.66261 0.78167 0.50339 0.0
C999 C 0.64834 0.77149 0.49079 0.0
C1000 C 0.63349 0.773 0.4926 0.0
C1001 C 0.63318 0.7849 0.50606 0.0
H1002 H 0.16653 0.79618 0.49952 0.0
H1003 H 0.146 0.77507 0.47588 0.0
H1004 H 0.10501 0.78043 0.50349 0.0
H1005 H 0.12605 0.80295 0.52559 0.0
H1006 H 0.1773 0.82767 0.50104 0.0
H1007 H 0.14615 0.7821 0.54905 0.0
H1008 H 0.12151 0.76041 0.56877 0.0
H1009 H 0.11467 0.80057 0.59542 0.0
H1010 H 0.13858 0.82216 0.57493 0.0
H1011 H 0.17891 0.86555 0.57233 0.0
H1012 H 0.19891 0.89032 0.59288 0.0
H1013 H 0.24122 0.88382 0.57263 0.0
H1014 H 0.22112 0.85886 0.55225 0.0
H1015 H 0.17019 0.83308 0.57489 0.0
H1016 H 0.19785 0.87731 0.52312 0.0
H1017 H 0.22047 0.89865 0.50097 0.0
H1018 H 0.23359 0.8604 0.48215 0.0
H1019 H 0.21134 0.83933 0.50476 0.0
C1020 C 0.14792 0.80119 0.51451 0.0
C1021 C 0.15312 0.79285 0.50047 0.0
C1022 C 0.14123 0.78052 0.48708 0.0
C1023 C 0.12368 0.77587 0.48763 0.0
C1024 C 0.1184 0.78382 0.50222 0.0
C1025 C 0.13042 0.79653 0.51524 0.0
C1026 C 0.1611 0.8156 0.52716 0.0
C1027 C 0.17583 0.82861 0.51729 0.0
C1028 C 0.15903 0.81718 0.54832 0.0
C1029 C 0.14415 0.80381 0.56022 0.0
C1030 C 0.13918 0.78625 0.55882 0.0
C1031 C 0.1252 0.77388 0.57017 0.0
C1032 C 0.11632 0.77892 0.58356 0.0
C1033 C 0.12143 0.79644 0.58525 0.0
C1034 C 0.1351 0.80874 0.57357 0.0
C1035 C 0.19851 0.8604 0.56059 0.0
C1036 C 0.19249 0.86942 0.57233 0.0
C1037 C 0.20392 0.88355 0.58411 0.0
C1038 C 0.22163 0.889 0.58437 0.0
C1039 C 0.22767 0.88003 0.57253 0.0
C1040 C 0.2162 0.86579 0.56086 0.0
C1041 C 0.18607 0.84508 0.54863 0.0
C1042 C 0.17158 0.83192 0.55866 0.0
C1043 C 0.18831 0.8433 0.52765 0.0
C1044 C 0.20297 0.85675 0.5157 0.0
C1045 C 0.20584 0.87364 0.51455 0.0
C1046 C 0.21866 0.88576 0.50172 0.0
C1047 C 0.2288 0.8812 0.48972 0.0
C1048 C 0.22617 0.86441 0.49134 0.0
C1049 C 0.21337 0.85231 0.50416 0.0
H1050 H 0.12569 0.32329 0.52652 0.0
H1051 H 0.10459 0.32457 0.50393 0.0
H1052 H 0.14361 0.37535 0.48401 0.0
H1053 H 0.16462 0.37392 0.50646 0.0
H1054 H 0.17474 0.35014 0.50286 0.0
H1055 H 0.1392 0.31893 0.57852 0.0
H1056 H 0.11469 0.31581 0.59849 0.0
H1057 H 0.1204 0.36221 0.57133 0.0
H1058 H 0.14559 0.36597 0.55223 0.0
H1059 H 0.20351 0.35996 0.58402 0.0
H1060 H 0.22357 0.35501 0.60394 0.0
H1061 H 0.21762 0.31568 0.56121 0.0
H1062 H 0.19659 0.31986 0.54219 0.0
H1063 H 0.17108 0.34014 0.57725 0.0
H1064 H 0.22207 0.36612 0.53258 0.0
H1065 H 0.24419 0.36773 0.50902 0.0
H1066 H 0.20422 0.32817 0.47178 0.0
H1067 H 0.18232 0.32634 0.49536 0.0
C1068 C 0.14671 0.34852 0.51817 0.0
C1069 C 0.12958 0.33481 0.51757 0.0
C1070 C 0.11755 0.33558 0.50468 0.0
C1071 C 0.12248 0.35002 0.49209 0.0
C1072 C 0.13949 0.36395 0.4933 0.0
C1073 C 0.15148 0.36318 0.50616 0.0
C1074 C 0.16005 0.34709 0.52998 0.0
C1075 C 0.17399 0.34799 0.51917 0.0
C1076 C 0.15886 0.34412 0.55122 0.0
C1077 C 0.14416 0.34255 0.56355 0.0
C1078 C 0.13538 0.3286 0.57702 0.0
C1079 C 0.12136 0.32677 0.58838 0.0
C1080 C 0.11567 0.33871 0.58627 0.0
C1081 C 0.12448 0.35275 0.573 0.0
C1082 C 0.13878 0.35481 0.562 0.0
C1083 C 0.19867 0.34046 0.56142 0.0
C1084 C 0.20648 0.35022 0.57897 0.0
C1085 C 0.21811 0.34748 0.59026 0.0
C1086 C 0.22236 0.335 0.58417 0.0
C1087 C 0.21455 0.32526 0.56653 0.0
C1088 C 0.2027 0.32784 0.55541 0.0
C1089 C 0.18579 0.34306 0.55007 0.0
C1090 C 0.17189 0.34235 0.56096 0.0
C1091 C 0.18675 0.34578 0.52877 0.0
C1092 C 0.20051 0.3461 0.51576 0.0
C1093 C 0.21812 0.3576 0.51953 0.0
C1094 C 0.23072 0.35855 0.50605 0.0
C1095 C 0.22588 0.34822 0.48846 0.0
C1096 C 0.20831 0.33649 0.48502 0.0
C1097 C 0.19579 0.33541 0.49853 0.0
C1098 C 0.00637 0.39492 0.06943 0.0
C1099 C 0.99378 0.3782 0.06364 0.0
C1100 C 0.00356 0.40332 0.08571 0.0
C1101 C 0.98782 0.39475 0.09661 0.0
C1102 C 0.97517 0.37772 0.09113 0.0
C1103 C 0.97827 0.36965 0.07461 0.0
C1104 C 0.01733 0.42153 0.09097 0.0
C1105 C 0.9583 0.36813 0.10252 0.0
C1106 C 0.98877 0.41435 0.14819 0.0
C1107 C 0.98176 0.42486 0.14351 0.0
C1108 C 0.99011 0.40384 0.13328 0.0
C1109 C 0.98447 0.404 0.1132 0.0
C1110 C 0.97689 0.41418 0.10857 0.0
C1111 C 0.97559 0.42444 0.12379 0.0
C1112 C 0.9981 0.39302 0.13885 0.0
C1113 C 0.97087 0.41485 0.0873 0.0
H1114 H 0.01839 0.40161 0.06101 0.0
H1115 H 0.96853 0.3567 0.07023 0.0
H1116 H 0.01211 0.43037 0.08915 0.0
H1117 H 0.02126 0.42223 0.1071 0.0
H1118 H 0.029 0.42624 0.08124 0.0
H1119 H 0.95019 0.35467 0.09704 0.0
H1120 H 0.96078 0.36785 0.11901 0.0
H1121 H 0.95089 0.37495 0.10077 0.0
H1122 H 0.99338 0.41449 0.16348 0.0
H1123 H 0.97035 0.4327 0.12001 0.0
H1124 H 0.01065 0.39802 0.1309 0.0
H1125 H 0.98966 0.37949 0.13382 0.0
H1126 H 0.00034 0.39309 0.15548 0.0
H1127 H 0.98213 0.42078 0.07686 0.0
H1128 H 0.96417 0.42245 0.08653 0.0
H1129 H 0.96197 0.40162 0.08164 0.0
C1130 C 0.61739 0.597 0.05794 0.0
C1131 C 0.62967 0.61443 0.06095 0.0
C1132 C 0.60843 0.58624 0.07442 0.0
C1133 C 0.61183 0.59308 0.0944 0.0
C1134 C 0.62478 0.61047 0.09762 0.0
C1135 C 0.63355 0.62095 0.08084 0.0
C1136 C 0.59477 0.56774 0.07034 0.0
C1137 C 0.62884 0.61822 0.11869 0.0
C1138 C 0.57462 0.57102 0.13176 0.0
C1139 C 0.57892 0.56011 0.14237 0.0
C1140 C 0.58545 0.58212 0.11648 0.0
C1141 C 0.60098 0.58233 0.11166 0.0
C1142 C 0.60567 0.57174 0.12271 0.0
C1143 C 0.59457 0.56074 0.13791 0.0
C1144 C 0.57996 0.5932 0.10504 0.0
C1145 C 0.62218 0.5717 0.11812 0.0
H1146 H 0.61435 0.59187 0.04261 0.0
H1147 H 0.64303 0.63442 0.08328 0.0
H1148 H 0.59701 0.55888 0.07997 0.0
H1149 H 0.58187 0.5658 0.07439 0.0
H1150 H 0.59452 0.56409 0.05414 0.0
H1151 H 0.6403 0.63142 0.11883 0.0
H1152 H 0.6176 0.61889 0.12469 0.0
H1153 H 0.63123 0.60996 0.12921 0.0
H1154 H 0.56245 0.57045 0.1349 0.0
H1155 H 0.59807 0.55249 0.14622 0.0
H1156 H 0.57778 0.58932 0.0888 0.0
H1157 H 0.59034 0.60693 0.10561 0.0
H1158 H 0.56793 0.59214 0.11128 0.0
H1159 H 0.62166 0.56686 0.10245 0.0
H1160 H 0.62446 0.56349 0.12888 0.0
H1161 H 0.63336 0.58503 0.11879 0.0
C1162 C 0.38162 0.01034 0.08105 0.0
C1163 C 0.38826 0.01172 0.06138 0.0
C1164 C 0.39131 0.01101 0.09823 0.0
C1165 C 0.40807 0.01333 0.0956 0.0
C1166 C 0.41509 0.01555 0.0758 0.0
C1167 C 0.40507 0.01462 0.05894 0.0
C1168 C 0.38333 0.00846 0.11908 0.0
C1169 C 0.43299 0.01828 0.07233 0.0
C1170 C 0.44013 0.02618 0.13919 0.0
C1171 C 0.43928 0.01045 0.14372 0.0
C1172 C 0.42964 0.02726 0.12403 0.0
C1173 C 0.41787 0.01221 0.11328 0.0
C1174 C 0.41641 0.99618 0.11837 0.0
C1175 C 0.42719 0.99551 0.13339 0.0
C1176 C 0.43163 0.0446 0.11899 0.0
C1177 C 0.40392 0.97979 0.10736 0.0
H1178 H 0.3686 0.00803 0.08299 0.0
H1179 H 0.41029 0.0158 0.04376 0.0
H1180 H 0.381 0.99601 0.12549 0.0
H1181 H 0.39227 0.0188 0.12957 0.0
H1182 H 0.37086 0.00835 0.11871 0.0
H1183 H 0.43704 0.02112 0.05616 0.0
H1184 H 0.44254 0.0291 0.08185 0.0
H1185 H 0.43333 0.00654 0.07692 0.0
H1186 H 0.44919 0.03775 0.14732 0.0
H1187 H 0.42655 0.98332 0.13647 0.0
H1188 H 0.41887 0.04385 0.11921 0.0
H1189 H 0.43692 0.04845 0.10339 0.0
H1190 H 0.44039 0.05483 0.12976 0.0
H1191 H 0.39078 0.97816 0.10737 0.0
H1192 H 0.40324 0.96817 0.11434 0.0
H1193 H 0.40797 0.98059 0.09126 0.0
C1194 C 0.39786 0.99666 0.96232 0.0
C1195 C 0.37986 0.98922 0.96224 0.0
C1196 C 0.40657 0.99478 0.94569 0.0
C1197 C 0.39708 0.98554 0.92832 0.0
C1198 C 0.37884 0.97774 0.92827 0.0
C1199 C 0.3704 0.97952 0.94538 0.0
C1200 C 0.42599 0.003 0.94656 0.0
C1201 C 0.36833 0.96806 0.9099 0.0
C1202 C 0.4246 0.99942 0.88065 0.0
C1203 C 0.42899 0.98651 0.87891 0.0
C1204 C 0.41326 0.99865 0.8959 0.0
C1205 C 0.40651 0.98484 0.91002 0.0
C1206 C 0.41037 0.9714 0.90779 0.0
C1207 C 0.42147 0.97233 0.89211 0.0
C1208 C 0.4092 0.01306 0.8975 0.0
C1209 C 0.40368 0.95663 0.92271 0.0
H1210 H 0.40519 0.00407 0.97542 0.0
H1211 H 0.35648 0.97385 0.94526 0.0
H1212 H 0.42987 0.99331 0.94301 0.0
H1213 H 0.432 0.01334 0.93494 0.0
H1214 H 0.43129 0.00871 0.9617 0.0
H1215 H 0.35422 0.96195 0.91268 0.0
H1216 H 0.37179 0.97706 0.89685 0.0
H1217 H 0.37132 0.95791 0.9054 0.0
H1218 H 0.43036 0.01033 0.87032 0.0
H1219 H 0.425 0.96242 0.89083 0.0
H1220 H 0.41554 0.02095 0.9112 0.0
H1221 H 0.39508 0.00772 0.89925 0.0
H1222 H 0.41372 0.02165 0.88398 0.0
H1223 H 0.40992 0.96152 0.93772 0.0
H1224 H 0.40635 0.94636 0.91767 0.0
H1225 H 0.38956 0.95087 0.92492 0.0
C1226 C 0.01747 0.40554 0.96514 0.0
C1227 C 0.01493 0.38891 0.96243 0.0
C1228 C 0.0187 0.41581 0.94843 0.0
C1229 C 0.01705 0.40917 0.92849 0.0
C1230 C 0.01497 0.39256 0.92562 0.0
C1231 C 0.01407 0.38266 0.94266 0.0
C1232 C 0.02122 0.43357 0.95215 0.0
C1233 C 0.01296 0.38497 0.90461 0.0
C1234 C 0.00047 0.42915 0.89028 0.0
C1235 C 0.01576 0.44142 0.88067 0.0
C1236 C 0.00062 0.41801 0.90517 0.0
C1237 C 0.01649 0.41931 0.91087 0.0
C1238 C 0.03189 0.43123 0.9008 0.0
C1239 C 0.03132 0.44204 0.88572 0.0
C1240 C 0.98387 0.40533 0.9154 0.0
C1241 C 0.04907 0.43306 0.90652 0.0
H1242 H 0.01824 0.41046 0.98041 0.0
H1243 H 0.012 0.36976 0.94052 0.0
H1244 H 0.03232 0.44333 0.94314 0.0
H1245 H 0.00959 0.43395 0.94708 0.0
H1246 H 0.02353 0.4373 0.96846 0.0
H1247 H 0.01276 0.37247 0.90487 0.0
H1248 H 0.00072 0.38286 0.89775 0.0
H1249 H 0.02363 0.39406 0.89458 0.0
H1250 H 0.9884 0.42866 0.88676 0.0
H1251 H 0.04316 0.45121 0.87811 0.0
H1252 H 0.98412 0.4091 0.93153 0.0
H1253 H 0.98226 0.39222 0.91531 0.0
H1254 H 0.97247 0.40477 0.90789 0.0
H1255 H 0.05243 0.43802 0.92231 0.0
H1256 H 0.05964 0.442 0.89624 0.0
H1257 H 0.04829 0.42031 0.90617 0.0
C1258 C 0.61753 0.63202 0.94317 0.0
C1259 C 0.61152 0.62983 0.96327 0.0
C1260 C 0.60628 0.62292 0.9271 0.0
C1261 C 0.5886 0.61139 0.93124 0.0
C1262 C 0.58231 0.60981 0.95136 0.0
C1263 C 0.59386 0.61904 0.96715 0.0
C1264 C 0.61349 0.62496 0.90586 0.0
C1265 C 0.56353 0.59774 0.95639 0.0
C1266 C 0.55623 0.59347 0.88768 0.0
C1267 C 0.55458 0.57718 0.88478 0.0
C1268 C 0.56734 0.60484 0.90264 0.0
C1269 C 0.57704 0.5998 0.91495 0.0
C1270 C 0.57554 0.58346 0.91196 0.0
C1271 C 0.56432 0.57236 0.89699 0.0
C1272 C 0.56861 0.62217 0.90538 0.0
C1273 C 0.58565 0.57758 0.92477 0.0
H1274 H 0.63117 0.64038 0.94007 0.0
H1275 H 0.58913 0.61734 0.98264 0.0
H1276 H 0.61296 0.61281 0.90114 0.0
H1277 H 0.60558 0.62745 0.89488 0.0
H1278 H 0.62709 0.63564 0.90483 0.0
H1279 H 0.56039 0.59922 0.97235 0.0
H1280 H 0.55511 0.60005 0.94604 0.0
H1281 H 0.56039 0.5842 0.95412 0.0
H1282 H 0.54888 0.59737 0.87818 0.0
H1283 H 0.56289 0.55968 0.89517 0.0
H1284 H 0.58219 0.63265 0.90346 0.0
H1285 H 0.56462 0.62325 0.92104 0.0
H1286 H 0.56039 0.62424 0.89439 0.0
H1287 H 0.59968 0.58696 0.92353 0.0
H1288 H 0.58334 0.56466 0.92019 0.0
H1289 H 0.58204 0.57705 0.94102 0.0
C1290 C 0.00923 0.6272 0.94544 0.0
C1291 C 0.01356 0.62516 0.96535 0.0
C1292 C 0.01053 0.61768 0.92925 0.0
C1293 C 0.01627 0.60582 0.93308 0.0
C1294 C 0.02135 0.60425 0.953 0.0
C1295 C 0.01996 0.61396 0.96891 0.0
C1296 C 0.00509 0.61981 0.90822 0.0
C1297 C 0.02757 0.59176 0.9577 0.0
C1298 C 0.00045 0.56695 0.89821 0.0
C1299 C 0.01497 0.57161 0.88595 0.0
C1300 C 0.00069 0.57803 0.91346 0.0
C1301 C 0.01581 0.5942 0.91656 0.0
C1302 C 0.03045 0.5991 0.90408 0.0
C1303 C 0.02986 0.58774 0.88893 0.0
C1304 C 0.98481 0.57231 0.92648 0.0
C1305 C 0.04676 0.61627 0.90683 0.0
H1306 H 0.0043 0.63586 0.94258 0.0
H1307 H 0.02333 0.61233 0.98426 0.0
H1308 H 0.01531 0.62222 0.89698 0.0
H1309 H 0.99329 0.60773 0.90363 0.0
H1310 H 0.00232 0.63059 0.90744 0.0
H1311 H 0.0322 0.59296 0.97362 0.0
H1312 H 0.01688 0.57835 0.95527 0.0
H1313 H 0.0382 0.59391 0.94724 0.0
H1314 H 0.989 0.55441 0.89623 0.0
H1315 H 0.04106 0.5915 0.87937 0.0
H1316 H 0.98039 0.58185 0.92548 0.0
H1317 H 0.98798 0.57164 0.94265 0.0
H1318 H 0.974 0.55947 0.92188 0.0
H1319 H 0.04389 0.62691 0.90527 0.0
H1320 H 0.0569 0.61829 0.89561 0.0
H1321 H 0.05197 0.61713 0.92237 0.0
C1322 C 0.3947 0.39282 0.96102 0.0
C1323 C 0.37786 0.38856 0.96643 0.0
C1324 C 0.4035 0.40449 0.94523 0.0
C1325 C 0.39524 0.41205 0.9345 0.0
C1326 C 0.37821 0.40777 0.93983 0.0
C1327 C 0.36972 0.3961 0.95581 0.0
C1328 C 0.42169 0.40879 0.94008 0.0
C1329 C 0.36898 0.41552 0.92867 0.0
C1330 C 0.42524 0.45378 0.90692 0.0
C1331 C 0.4252 0.44788 0.88714 0.0
C1332 C 0.4151 0.44233 0.92234 0.0
C1333 C 0.40462 0.42456 0.91785 0.0
C1334 C 0.40404 0.41862 0.89775 0.0
C1335 C 0.41439 0.43035 0.88264 0.0
C1336 C 0.41615 0.44916 0.94361 0.0
C1337 C 0.39292 0.39979 0.89234 0.0
H1338 H 0.40106 0.38705 0.96919 0.0
H1339 H 0.35669 0.39282 0.95991 0.0
H1340 H 0.42235 0.40545 0.92399 0.0
H1341 H 0.43066 0.42285 0.9418 0.0
H1342 H 0.42627 0.40181 0.94992 0.0
H1343 H 0.35568 0.4107 0.93451 0.0
H1344 H 0.37635 0.42978 0.93015 0.0
H1345 H 0.36824 0.41248 0.91221 0.0
H1346 H 0.43373 0.46727 0.91056 0.0
H1347 H 0.41416 0.42576 0.86731 0.0
H1348 H 0.42205 0.44374 0.95392 0.0
H1349 H 0.40302 0.44502 0.9495 0.0
H1350 H 0.42397 0.46346 0.94428 0.0
H1351 H 0.39769 0.39212 0.90042 0.0
H1352 H 0.39293 0.39746 0.87574 0.0
H1353 H 0.37941 0.39494 0.89735 0.0
C1354 C 0.61136 0.97948 0.94647 0.0
C1355 C 0.61132 0.98879 0.96359 0.0
C1356 C 0.60125 0.97788 0.92932 0.0
C1357 C 0.59065 0.98547 0.92956 0.0
C1358 C 0.5901 0.99429 0.94717 0.0
C1359 C 0.60058 0.996 0.96385 0.0
C1360 C 0.60238 0.96864 0.9107 0.0
C1361 C 0.57872 0.00227 0.94824 0.0
C1362 C 0.57721 0.99986 0.88218 0.0
C1363 C 0.55995 0.98679 0.88007 0.0
C1364 C 0.5877 0.99901 0.89747 0.0
C1365 C 0.58062 0.98495 0.91124 0.0
C1366 C 0.56337 0.97139 0.90866 0.0
C1367 C 0.55328 0.97241 0.89295 0.0
C1368 C 0.60612 0.01356 0.89945 0.0
C1369 C 0.55525 0.95634 0.92321 0.0
H1370 H 0.61975 0.974 0.94621 0.0
H1371 H 0.60044 0.0031 0.97714 0.0
H1372 H 0.58931 0.95844 0.90594 0.0
H1373 H 0.60798 0.9779 0.89789 0.0
H1374 H 0.6105 0.96266 0.91332 0.0
H1375 H 0.57892 0.00766 0.96353 0.0
H1376 H 0.58308 0.01281 0.93689 0.0
H1377 H 0.56519 0.99251 0.94445 0.0
H1378 H 0.58238 0.01092 0.8721 0.0
H1379 H 0.53987 0.96237 0.89139 0.0
H1380 H 0.61502 0.00838 0.90104 0.0
H1381 H 0.60745 0.02114 0.91336 0.0
H1382 H 0.61025 0.02241 0.88616 0.0
H1383 H 0.5637 0.95069 0.92526 0.0
H1384 H 0.54235 0.94606 0.91794 0.0
H1385 H 0.55373 0.96091 0.93835 0.0
C1386 C 0.6113 0.0144 0.05996 0.0
C1387 C 0.62476 0.01087 0.06269 0.0
C1388 C 0.60184 0.01509 0.07657 0.0
C1389 C 0.60582 0.01201 0.09642 0.0
C1390 C 0.61982 0.00907 0.09937 0.0
C1391 C 0.6292 0.00862 0.08244 0.0
C1392 C 0.58715 0.01849 0.07278 0.0
C1393 C 0.62439 0.00564 0.12028 0.0
C1394 C 0.58614 0.02449 0.13983 0.0
C1395 C 0.57081 0.00887 0.14356 0.0
C1396 C 0.59798 0.02561 0.125 0.0
C1397 C 0.59451 0.01074 0.11376 0.0
C1398 C 0.57945 0.9948 0.11803 0.0
C1399 C 0.56776 0.99408 0.13276 0.0
C1400 C 0.61387 0.04285 0.12085 0.0
C1401 C 0.57533 0.9786 0.10647 0.0
H1402 H 0.60787 0.01624 0.04472 0.0
H1403 H 0.63956 0.00583 0.08461 0.0
H1404 H 0.57471 0.00684 0.07673 0.0
H1405 H 0.58851 0.02916 0.08262 0.0
H1406 H 0.58655 0.02188 0.05666 0.0
H1407 H 0.63652 0.00509 0.12025 0.0
H1408 H 0.62584 0.01579 0.1311 0.0
H1409 H 0.61377 0.99316 0.12604 0.0
H1410 H 0.5888 0.03592 0.14833 0.0
H1411 H 0.55588 0.98201 0.13527 0.0
H1412 H 0.61308 0.04726 0.10532 0.0
H1413 H 0.62562 0.04165 0.12139 0.0
H1414 H 0.61537 0.05288 0.13192 0.0
H1415 H 0.57269 0.98002 0.0903 0.0
H1416 H 0.5639 0.96698 0.11279 0.0
H1417 H 0.58654 0.97651 0.10677 0.0
C1418 C 0.97608 0.59118 0.05732 0.0
C1419 C 0.98453 0.60894 0.0613 0.0
C1420 C 0.9738 0.57936 0.07275 0.0
C1421 C 0.98011 0.58549 0.09258 0.0
C1422 C 0.988 0.60334 0.09684 0.0
C1423 C 0.99013 0.61485 0.08115 0.0
C1424 C 0.9653 0.56041 0.06764 0.0
C1425 C 0.99484 0.61039 0.11778 0.0
C1426 C 0.96577 0.55437 0.13731 0.0
C1427 C 0.9799 0.55177 0.13949 0.0
C1428 C 0.96554 0.56519 0.12199 0.0
C1429 C 0.97972 0.57348 0.10847 0.0
C1430 C 0.99391 0.57073 0.11047 0.0
C1431 C 0.99384 0.55995 0.12597 0.0
C1432 C 0.95026 0.56794 0.12042 0.0
C1433 C 0.00923 0.57923 0.09628 0.0
H1434 H 0.97172 0.58656 0.04201 0.0
H1435 H 0.99661 0.62856 0.08434 0.0
H1436 H 0.97492 0.55609 0.06887 0.0
H1437 H 0.95481 0.5527 0.07863 0.0
H1438 H 0.95983 0.55759 0.05202 0.0
H1439 H 0.99939 0.62439 0.11899 0.0
H1440 H 0.9847 0.60341 0.12942 0.0
H1441 H 0.0058 0.60835 0.12144 0.0
H1442 H 0.95501 0.54813 0.1478 0.0
H1443 H 0.00464 0.55773 0.12735 0.0
H1444 H 0.94456 0.56445 0.10496 0.0
H1445 H 0.95454 0.58177 0.12279 0.0
H1446 H 0.94006 0.56018 0.13175 0.0
H1447 H 0.00489 0.57577 0.08029 0.0
H1448 H 0.01903 0.57542 0.09958 0.0
H1449 H 0.01548 0.59347 0.09757 0.0
C1450 C 0.3855 0.39317 0.07076 0.0
C1451 C 0.38684 0.38008 0.06073 0.0
C1452 C 0.39695 0.40277 0.08642 0.0
C1453 C 0.41018 0.39931 0.09206 0.0
C1454 C 0.41146 0.38593 0.0822 0.0
C1455 C 0.3997 0.37641 0.06669 0.0
C1456 C 0.39508 0.41684 0.09667 0.0
C1457 C 0.42548 0.38197 0.0877 0.0
C1458 C 0.4497 0.43679 0.1161 0.0
C1459 C 0.44685 0.43274 0.13686 0.0
C1460 C 0.4381 0.42578 0.10136 0.0
C1461 C 0.4232 0.41036 0.10752 0.0
C1462 C 0.42042 0.40599 0.12843 0.0
C1463 C 0.43234 0.41722 0.14287 0.0
C1464 C 0.44162 0.43084 0.07921 0.0
C1465 C 0.40463 0.3897 0.13556 0.0
H1466 H 0.3755 0.39599 0.0663 0.0
H1467 H 0.40078 0.36629 0.05898 0.0
H1468 H 0.39408 0.41489 0.11339 0.0
H1469 H 0.40671 0.42955 0.09366 0.0
H1470 H 0.38353 0.41727 0.09127 0.0
H1471 H 0.42424 0.37066 0.07924 0.0
H1472 H 0.43832 0.39331 0.08429 0.0
H1473 H 0.42515 0.37939 0.10424 0.0
H1474 H 0.46107 0.44864 0.11137 0.0
H1475 H 0.43005 0.4141 0.15892 0.0
H1476 H 0.43124 0.43286 0.073 0.0
H1477 H 0.44157 0.42031 0.07027 0.0
H1478 H 0.45421 0.44284 0.07689 0.0
H1479 H 0.39284 0.39027 0.13177 0.0
H1480 H 0.40481 0.38773 0.15223 0.0
H1481 H 0.40365 0.37833 0.12758 0.0
C1482 C 0.67295 0.73023 0.39897 0.0
C1483 C 0.66048 0.71311 0.39456 0.0
C1484 C 0.6707 0.73911 0.41517 0.0
C1485 C 0.65559 0.73068 0.42725 0.0
C1486 C 0.64299 0.71335 0.42296 0.0
C1487 C 0.64559 0.70476 0.40666 0.0
C1488 C 0.68444 0.75758 0.41926 0.0
C1489 C 0.6267 0.70396 0.43548 0.0
C1490 C 0.65721 0.75033 0.47906 0.0
C1491 C 0.64933 0.76017 0.47493 0.0
C1492 C 0.65902 0.74037 0.46379 0.0
C1493 C 0.6528 0.74024 0.44395 0.0
C1494 C 0.64454 0.74986 0.4398 0.0
C1495 C 0.64294 0.75972 0.45531 0.0
C1496 C 0.66787 0.73024 0.4688 0.0
C1497 C 0.63778 0.75009 0.41882 0.0
H1498 H 0.68451 0.73674 0.38971 0.0
H1499 H 0.63592 0.69151 0.40333 0.0
H1500 H 0.67888 0.76615 0.41762 0.0
H1501 H 0.68919 0.75892 0.43512 0.0
H1502 H 0.69562 0.76214 0.40875 0.0
H1503 H 0.61839 0.69036 0.43052 0.0
H1504 H 0.63 0.70404 0.45176 0.0
H1505 H 0.61917 0.71068 0.4343 0.0
H1506 H 0.662 0.75046 0.49423 0.0
H1507 H 0.6371 0.7675 0.45188 0.0
H1508 H 0.67982 0.73511 0.45962 0.0
H1509 H 0.65937 0.71645 0.4648 0.0
H1510 H 0.67134 0.73113 0.48516 0.0
H1511 H 0.64865 0.7559 0.40783 0.0
H1512 H 0.63093 0.75756 0.41835 0.0
H1513 H 0.62878 0.73674 0.41364 0.0
C1514 C 0.28289 0.92993 0.39119 0.0
C1515 C 0.29415 0.94762 0.39426 0.0
C1516 C 0.27351 0.91909 0.40744 0.0
C1517 C 0.27545 0.9261 0.42722 0.0
C1518 C 0.28743 0.94378 0.43057 0.0
C1519 C 0.29663 0.95434 0.41404 0.0
C1520 C 0.26092 0.90028 0.40325 0.0
C1521 C 0.28994 0.95173 0.45144 0.0
C1522 C 0.23671 0.90339 0.46236 0.0
C1523 C 0.24131 0.89352 0.47463 0.0
C1524 C 0.24783 0.91423 0.44712 0.0
C1525 C 0.26398 0.91524 0.44402 0.0
C1526 C 0.26887 0.90558 0.45659 0.0
C1527 C 0.25747 0.89482 0.47174 0.0
C1528 C 0.24212 0.9243 0.43402 0.0
C1529 C 0.28602 0.9064 0.45383 0.0
H1530 H 0.28093 0.92466 0.37595 0.0
H1531 H 0.30534 0.968 0.41652 0.0
H1532 H 0.26316 0.89199 0.41389 0.0
H1533 H 0.24753 0.8976 0.40581 0.0
H1534 H 0.26192 0.89655 0.38741 0.0
H1535 H 0.30087 0.96523 0.45186 0.0
H1536 H 0.278 0.95169 0.45611 0.0
H1537 H 0.29233 0.94402 0.46282 0.0
H1538 H 0.22415 0.90226 0.46427 0.0
H1539 H 0.26119 0.88737 0.48132 0.0
H1540 H 0.24117 0.9202 0.41792 0.0
H1541 H 0.25181 0.93826 0.43468 0.0
H1542 H 0.2294 0.92249 0.43879 0.0
H1543 H 0.28667 0.90165 0.43846 0.0
H1544 H 0.28815 0.89858 0.46533 0.0
H1545 H 0.29671 0.91996 0.4549 0.0
C1546 C 0.05555 0.32775 0.40273 0.0
C1547 C 0.05251 0.34108 0.39701 0.0
C1548 C 0.06647 0.32977 0.41907 0.0
C1549 C 0.07453 0.34549 0.43001 0.0
C1550 C 0.07126 0.35889 0.42458 0.0
C1551 C 0.06029 0.35654 0.40809 0.0
C1552 C 0.06966 0.31518 0.42433 0.0
C1553 C 0.07959 0.37581 0.43596 0.0
C1554 C 0.09296 0.34395 0.48155 0.0
C1555 C 0.11034 0.35005 0.4767 0.0
C1556 C 0.08123 0.34296 0.46666 0.0
C1557 C 0.08702 0.34809 0.44645 0.0
C1558 C 0.10464 0.35464 0.4416 0.0
C1559 C 0.11607 0.35554 0.45677 0.0
C1560 C 0.06255 0.336 0.47242 0.0
C1561 C 0.11131 0.36012 0.4202 0.0
H1562 H 0.04954 0.31575 0.39427 0.0
H1563 H 0.05793 0.36685 0.40376 0.0
H1564 H 0.08354 0.31945 0.42227 0.0
H1565 H 0.06645 0.31151 0.44053 0.0
H1566 H 0.06194 0.30358 0.41476 0.0
H1567 H 0.075 0.38457 0.43055 0.0
H1568 H 0.07685 0.37347 0.45247 0.0
H1569 H 0.09382 0.38242 0.43407 0.0
H1570 H 0.08851 0.33986 0.49698 0.0
H1571 H 0.12942 0.36002 0.45283 0.0
H1572 H 0.05432 0.32363 0.4644 0.0
H1573 H 0.05824 0.34511 0.46759 0.0
H1574 H 0.06038 0.33375 0.48905 0.0
H1575 H 0.10516 0.34878 0.40991 0.0
H1576 H 0.12555 0.3659 0.41921 0.0
H1577 H 0.10784 0.36964 0.41452 0.0
C1578 C 0.03379 0.31747 0.2778 0.0
C1579 C 0.04235 0.32231 0.29658 0.0
C1580 C 0.0421 0.31597 0.2604 0.0
C1581 C 0.05929 0.31928 0.26195 0.0
C1582 C 0.06773 0.32358 0.28105 0.0
C1583 C 0.05918 0.32509 0.29809 0.0
C1584 C 0.03272 0.3114 0.24028 0.0
C1585 C 0.08601 0.32707 0.2834 0.0
C1586 C 0.08072 0.30492 0.22289 0.0
C1587 C 0.09195 0.32058 0.21325 0.0
C1588 C 0.06923 0.30404 0.23805 0.0
C1589 C 0.06896 0.31917 0.24358 0.0
C1590 C 0.07951 0.33477 0.23299 0.0
C1591 C 0.09092 0.3353 0.21799 0.0
C1592 C 0.05821 0.28718 0.24899 0.0
C1593 C 0.07948 0.35116 0.23829 0.0
H1594 H 0.02078 0.31534 0.27657 0.0
H1595 H 0.06583 0.32874 0.31259 0.0
H1596 H 0.03923 0.3225 0.22971 0.0
H1597 H 0.03317 0.3004 0.23318 0.0
H1598 H 0.019 0.30797 0.2419 0.0
H1599 H 0.09039 0.32938 0.29949 0.0
H1600 H 0.08703 0.316 0.27753 0.0
H1601 H 0.09494 0.33856 0.27432 0.0
H1602 H 0.08155 0.29353 0.21937 0.0
H1603 H 0.0994 0.34737 0.21034 0.0
H1604 H 0.04469 0.28439 0.25024 0.0
H1605 H 0.06318 0.28811 0.26468 0.0
H1606 H 0.05825 0.27619 0.2412 0.0
H1607 H 0.06606 0.34877 0.23885 0.0
H1608 H 0.08698 0.36166 0.2272 0.0
H1609 H 0.0852 0.35562 0.25361 0.0
C1610 C 0.69159 0.72821 0.28584 0.0
C1611 C 0.67616 0.72031 0.29701 0.0
C1612 C 0.69392 0.73944 0.26964 0.0
C1613 C 0.68055 0.74291 0.26466 0.0
C1614 C 0.66492 0.73485 0.27582 0.0
C1615 C 0.6629 0.72362 0.29179 0.0
C1616 C 0.71072 0.74771 0.25799 0.0
C1617 C 0.65038 0.73828 0.27109 0.0
C1618 C 0.69023 0.78429 0.23777 0.0
C1619 C 0.68414 0.77839 0.21805 0.0
C1620 C 0.68968 0.77299 0.25289 0.0
C1621 C 0.68295 0.75533 0.24819 0.0
C1622 C 0.67732 0.74939 0.22814 0.0
C1623 C 0.67791 0.76098 0.21332 0.0
C1624 C 0.69567 0.77981 0.27413 0.0
C1625 C 0.6702 0.7307 0.22249 0.0
H1626 H 0.70185 0.72565 0.28978 0.0
H1627 H 0.65093 0.71756 0.30036 0.0
H1628 H 0.70816 0.74482 0.24152 0.0
H1629 H 0.71733 0.76193 0.2597 0.0
H1630 H 0.71957 0.74319 0.26326 0.0
H1631 H 0.63897 0.7308 0.28105 0.0
H1632 H 0.65491 0.75221 0.273 0.0
H1633 H 0.64628 0.73492 0.25502 0.0
H1634 H 0.69485 0.79768 0.2416 0.0
H1635 H 0.67338 0.7564 0.19804 0.0
H1636 H 0.70521 0.77624 0.27952 0.0
H1637 H 0.68452 0.77387 0.28474 0.0
H1638 H 0.70162 0.79406 0.27497 0.0
H1639 H 0.67933 0.72636 0.22711 0.0
H1640 H 0.66769 0.72843 0.20591 0.0
H1641 H 0.65791 0.72257 0.23076 0.0
C1642 C 0.26057 0.94755 0.29895 0.0
C1643 C 0.27793 0.95998 0.29571 0.0
C1644 C 0.24989 0.93799 0.28267 0.0
C1645 C 0.25677 0.94091 0.26271 0.0
C1646 C 0.2741 0.95393 0.25926 0.0
C1647 C 0.28447 0.96332 0.2758 0.0
C1648 C 0.23143 0.9243 0.28693 0.0
C1649 C 0.28192 0.95743 0.23822 0.0
C1650 C 0.23592 0.90316 0.22602 0.0
C1651 C 0.22538 0.90728 0.21429 0.0
C1652 C 0.24635 0.91412 0.2416 0.0
C1653 C 0.24621 0.92956 0.24569 0.0
C1654 C 0.23583 0.93397 0.23373 0.0
C1655 C 0.22558 0.9228 0.21814 0.0
C1656 C 0.2573 0.90899 0.25397 0.0
C1657 C 0.23537 0.95035 0.23761 0.0
H1658 H 0.25545 0.94493 0.3143 0.0
H1659 H 0.29788 0.97293 0.27319 0.0
H1660 H 0.2225 0.92607 0.27684 0.0
H1661 H 0.22968 0.91137 0.28363 0.0
H1662 H 0.22768 0.92452 0.30299 0.0
H1663 H 0.29515 0.96885 0.23787 0.0
H1664 H 0.28257 0.94603 0.23281 0.0
H1665 H 0.2737 0.95956 0.22735 0.0
H1666 H 0.23564 0.89108 0.22341 0.0
H1667 H 0.21764 0.92618 0.20899 0.0
H1668 H 0.25318 0.90725 0.27013 0.0
H1669 H 0.27103 0.91937 0.25345 0.0
H1670 H 0.25636 0.89683 0.24844 0.0
H1671 H 0.23063 0.95016 0.25326 0.0
H1672 H 0.2269 0.95208 0.22668 0.0
H1673 H 0.24859 0.96168 0.23655 0.0
C1674 C 0.68924 0.94969 0.30123 0.0
C1675 C 0.6824 0.96056 0.29802 0.0
C1676 C 0.69082 0.94027 0.28512 0.0
C1677 C 0.68542 0.94177 0.26534 0.0
C1678 C 0.67937 0.95343 0.26183 0.0
C1679 C 0.67794 0.96269 0.27821 0.0
C1680 C 0.69743 0.92805 0.28947 0.0
C1681 C 0.67355 0.95545 0.24097 0.0
C1682 C 0.69808 0.92336 0.22066 0.0
C1683 C 0.68319 0.90713 0.21823 0.0
C1684 C 0.69898 0.93488 0.23579 0.0
C1685 C 0.68466 0.93004 0.2488 0.0
C1686 C 0.66953 0.91378 0.24625 0.0
C1687 C 0.66899 0.90254 0.23103 0.0
C1688 C 0.71529 0.95213 0.238 0.0
C1689 C 0.65397 0.90812 0.25982 0.0
H1690 H 0.69275 0.94801 0.31649 0.0
H1691 H 0.67267 0.9711 0.27561 0.0
H1692 H 0.68678 0.91455 0.28753 0.0
H1693 H 0.70776 0.93017 0.27854 0.0
H1694 H 0.70259 0.92956 0.30517 0.0
H1695 H 0.67084 0.96626 0.24034 0.0
H1696 H 0.68351 0.95772 0.22942 0.0
H1697 H 0.66162 0.94337 0.2367 0.0
H1698 H 0.70904 0.92707 0.2107 0.0
H1699 H 0.65755 0.88993 0.22951 0.0
H1700 H 0.72092 0.95318 0.25333 0.0
H1701 H 0.7123 0.96269 0.2366 0.0
H1702 H 0.72515 0.95408 0.22641 0.0
H1703 H 0.65754 0.90763 0.27586 0.0
H1704 H 0.64308 0.89522 0.25556 0.0
H1705 H 0.64946 0.91761 0.25903 0.0
C1706 C 0.04133 0.73183 0.28865 0.0
C1707 C 0.04539 0.71925 0.29463 0.0
C1708 C 0.05033 0.74331 0.27268 0.0
C1709 C 0.06366 0.74213 0.2625 0.0
C1710 C 0.06744 0.72913 0.26813 0.0
C1711 C 0.05827 0.71786 0.28411 0.0
C1712 C 0.04592 0.75699 0.26709 0.0
C1713 C 0.08156 0.72743 0.25767 0.0
C1714 C 0.08193 0.76383 0.21155 0.0
C1715 C 0.09751 0.77828 0.21757 0.0
C1716 C 0.0704 0.75222 0.22605 0.0
C1717 C 0.07457 0.7552 0.247 0.0
C1718 C 0.08994 0.77016 0.25315 0.0
C1719 C 0.10119 0.7815 0.23838 0.0
C1720 C 0.05411 0.73644 0.21892 0.0
C1721 C 0.09484 0.77388 0.27533 0.0
H1722 H 0.03134 0.73292 0.29669 0.0
H1723 H 0.06141 0.7081 0.28858 0.0
H1724 H 0.05699 0.76993 0.27071 0.0
H1725 H 0.04352 0.75669 0.2505 0.0
H1726 H 0.03436 0.75535 0.27537 0.0
H1727 H 0.08221 0.71602 0.26304 0.0
H1728 H 0.07946 0.72636 0.24097 0.0
H1729 H 0.09423 0.73916 0.26053 0.0
H1730 H 0.07906 0.76127 0.19548 0.0
H1731 H 0.11306 0.79284 0.24312 0.0
H1732 H 0.04274 0.73516 0.22725 0.0
H1733 H 0.05493 0.72472 0.22224 0.0
H1734 H 0.05194 0.73682 0.20233 0.0
H1735 H 0.08412 0.77361 0.28413 0.0
H1736 H 0.10667 0.78661 0.27763 0.0
H1737 H 0.09713 0.76373 0.2817 0.0
C1738 C 0.28437 0.34273 0.28946 0.0
C1739 C 0.28381 0.32861 0.29937 0.0
C1740 C 0.27266 0.34035 0.2739 0.0
C1741 C 0.25995 0.32341 0.26822 0.0
C1742 C 0.25951 0.30908 0.27791 0.0
C1743 C 0.27152 0.31185 0.29334 0.0
C1744 C 0.27366 0.35599 0.26384 0.0
C1745 C 0.24607 0.29084 0.27236 0.0
C1746 C 0.21977 0.3203 0.24479 0.0
C1747 C 0.22278 0.31974 0.22395 0.0
C1748 C 0.23144 0.32079 0.25937 0.0
C1749 C 0.24659 0.32088 0.25295 0.0
C1750 C 0.24943 0.31974 0.23194 0.0
C1751 C 0.23742 0.31909 0.21766 0.0
C1752 C 0.22781 0.32177 0.28162 0.0
C1753 C 0.26548 0.31993 0.22451 0.0
H1754 H 0.29392 0.35572 0.29397 0.0
H1755 H 0.27104 0.30089 0.30096 0.0
H1756 H 0.27458 0.35516 0.24709 0.0
H1757 H 0.26171 0.35641 0.26709 0.0
H1758 H 0.28491 0.36823 0.2692 0.0
H1759 H 0.24804 0.28111 0.28054 0.0
H1760 H 0.23302 0.28862 0.2761 0.0
H1761 H 0.24634 0.28879 0.25576 0.0
H1762 H 0.20832 0.32054 0.24968 0.0
H1763 H 0.2398 0.31873 0.20155 0.0
H1764 H 0.2377 0.3344 0.28793 0.0
H1765 H 0.22863 0.31159 0.29031 0.0
H1766 H 0.21486 0.3203 0.28415 0.0
H1767 H 0.277 0.33261 0.22801 0.0
H1768 H 0.26514 0.31765 0.20786 0.0
H1769 H 0.26713 0.30995 0.23252 0.0
C1770 C 0.29679 0.3607 0.40393 0.0
C1771 C 0.29175 0.34432 0.39596 0.0
C1772 C 0.28743 0.36274 0.41982 0.0
C1773 C 0.27282 0.34804 0.42802 0.0
C1774 C 0.26797 0.33145 0.42035 0.0
C1775 C 0.27743 0.32981 0.40436 0.0
C1776 C 0.29289 0.38065 0.42747 0.0
C1777 C 0.25257 0.31543 0.42877 0.0
C1778 C 0.25362 0.34922 0.4793 0.0
C1779 C 0.23889 0.3498 0.47329 0.0
C1780 C 0.26514 0.34918 0.46475 0.0
C1781 C 0.2619 0.34993 0.44377 0.0
C1782 C 0.24743 0.35127 0.43773 0.0
C1783 C 0.23608 0.35111 0.45255 0.0
C1784 C 0.28035 0.34761 0.47178 0.0
C1785 C 0.24361 0.35231 0.41556 0.0
H1786 H 0.30786 0.37195 0.39749 0.0
H1787 H 0.27354 0.3171 0.39836 0.0
H1788 H 0.28256 0.38374 0.4243 0.0
H1789 H 0.29475 0.38129 0.44419 0.0
H1790 H 0.30504 0.39065 0.42023 0.0
H1791 H 0.25113 0.30343 0.42195 0.0
H1792 H 0.25379 0.31483 0.4455 0.0
H1793 H 0.2406 0.31588 0.42577 0.0
H1794 H 0.25578 0.34814 0.49532 0.0
H1795 H 0.22483 0.35183 0.44789 0.0
H1796 H 0.29245 0.35786 0.46477 0.0
H1797 H 0.27867 0.33503 0.46678 0.0
H1798 H 0.28182 0.34851 0.48859 0.0
H1799 H 0.25515 0.36283 0.40793 0.0
H1800 H 0.2326 0.3546 0.41349 0.0
H1801 H 0.24048 0.34008 0.40779 0.0
C1802 C 0.64603 0.92489 0.39135 0.0
C1803 C 0.65164 0.94231 0.39518 0.0
C1804 C 0.64404 0.9136 0.40728 0.0
C1805 C 0.64778 0.9199 0.4275 0.0
C1806 C 0.65285 0.93733 0.43152 0.0
C1807 C 0.6547 0.94832 0.41531 0.0
C1808 C 0.63852 0.89507 0.40241 0.0
C1809 C 0.65695 0.94454 0.45285 0.0
C1810 C 0.63207 0.88759 0.47103 0.0
C1811 C 0.64689 0.88655 0.47539 0.0
C1812 C 0.63217 0.89845 0.45557 0.0
C1813 C 0.64745 0.90856 0.44424 0.0
C1814 C 0.66251 0.90777 0.44875 0.0
C1815 C 0.66203 0.89676 0.46422 0.0
C1816 C 0.61588 0.899 0.45122 0.0
C1817 C 0.67908 0.91837 0.43703 0.0
H1818 H 0.64362 0.92017 0.37583 0.0
H1819 H 0.65902 0.96177 0.41837 0.0
H1820 H 0.64919 0.89257 0.40599 0.0
H1821 H 0.6273 0.88622 0.41194 0.0
H1822 H 0.63497 0.8919 0.38614 0.0
H1823 H 0.65955 0.95802 0.45359 0.0
H1824 H 0.64608 0.93645 0.46324 0.0
H1825 H 0.66848 0.94428 0.45858 0.0
H1826 H 0.62038 0.87989 0.47974 0.0
H1827 H 0.67345 0.89583 0.46723 0.0
H1828 H 0.61171 0.89492 0.4353 0.0
H1829 H 0.61839 0.91239 0.45279 0.0
H1830 H 0.60513 0.8905 0.46158 0.0
H1831 H 0.67696 0.91476 0.42071 0.0
H1832 H 0.68976 0.91657 0.44274 0.0
H1833 H 0.68317 0.93227 0.43804 0.0
C1834 C 0.05284 0.70569 0.4108 0.0
C1835 C 0.05691 0.71232 0.391 0.0
C1836 C 0.06328 0.71507 0.42734 0.0
C1837 C 0.07841 0.73115 0.42384 0.0
C1838 C 0.08291 0.73753 0.40372 0.0
C1839 C 0.07193 0.72817 0.38757 0.0
C1840 C 0.05775 0.70809 0.44861 0.0
C1841 C 0.09921 0.75436 0.39927 0.0
C1842 C 0.09766 0.76555 0.46487 0.0
C1843 C 0.11123 0.76349 0.47236 0.0
C1844 C 0.08648 0.75466 0.4497 0.0
C1845 C 0.08922 0.7417 0.44122 0.0
C1846 C 0.1027 0.73936 0.44878 0.0
C1847 C 0.11332 0.75005 0.46447 0.0
C1848 C 0.07196 0.7573 0.44241 0.0
C1849 C 0.10625 0.72591 0.43985 0.0
H1850 H 0.0411 0.6935 0.41346 0.0
H1851 H 0.07511 0.73324 0.37222 0.0
H1852 H 0.06823 0.70717 0.45645 0.0
H1853 H 0.05521 0.71709 0.45758 0.0
H1854 H 0.04591 0.69516 0.4487 0.0
H1855 H 0.10154 0.75681 0.38268 0.0
H1856 H 0.09834 0.7652 0.40616 0.0
H1857 H 0.11052 0.75434 0.40617 0.0
H1858 H 0.09598 0.776 0.47043 0.0
H1859 H 0.12341 0.74795 0.47039 0.0
H1860 H 0.05956 0.74488 0.44259 0.0
H1861 H 0.0744 0.762 0.42648 0.0
H1862 H 0.07053 0.76677 0.4519 0.0
H1863 H 0.09458 0.71294 0.44095 0.0
H1864 H 0.11712 0.72558 0.44759 0.0
H1865 H 0.10943 0.72861 0.42346 0.0
C1866 C 0.33576 0.06256 0.73293 0.0
C1867 C 0.32329 0.04571 0.7274 0.0
C1868 C 0.333 0.07096 0.74925 0.0
C1869 C 0.31741 0.06228 0.76044 0.0
C1870 C 0.30477 0.04523 0.75501 0.0
C1871 C 0.30784 0.03715 0.73848 0.0
C1872 C 0.34676 0.08918 0.75444 0.0
C1873 C 0.28804 0.03556 0.76666 0.0
C1874 C 0.31954 0.08123 0.81277 0.0
C1875 C 0.31259 0.09192 0.80892 0.0
C1876 C 0.32046 0.07086 0.79735 0.0
C1877 C 0.3144 0.07131 0.77759 0.0
C1878 C 0.30681 0.08161 0.77381 0.0
C1879 C 0.30598 0.09177 0.78952 0.0
C1880 C 0.3285 0.05992 0.80202 0.0
C1881 C 0.30032 0.08256 0.75292 0.0
H1882 H 0.34772 0.06926 0.72442 0.0
H1883 H 0.29819 0.0241 0.7343 0.0
H1884 H 0.34137 0.09793 0.75335 0.0
H1885 H 0.35116 0.08976 0.77035 0.0
H1886 H 0.35816 0.0941 0.74422 0.0
H1887 H 0.27965 0.02229 0.76072 0.0
H1888 H 0.29075 0.03473 0.78296 0.0
H1889 H 0.28083 0.04264 0.76584 0.0
H1890 H 0.32447 0.08114 0.8278 0.0
H1891 H 0.30079 0.10017 0.78636 0.0
H1892 H 0.34087 0.06499 0.79363 0.0
H1893 H 0.31991 0.04646 0.79684 0.0
H1894 H 0.33112 0.05977 0.81851 0.0
H1895 H 0.31136 0.08878 0.7422 0.0
H1896 H 0.29348 0.09004 0.7529 0.0
H1897 H 0.29141 0.06941 0.74705 0.0
C1898 C 0.93713 0.27772 0.73187 0.0
C1899 C 0.95434 0.28245 0.72786 0.0
C1900 C 0.92815 0.267 0.74833 0.0
C1901 C 0.93656 0.26081 0.76113 0.0
C1902 C 0.95401 0.26567 0.75732 0.0
C1903 C 0.96271 0.27645 0.7407 0.0
C1904 C 0.90956 0.26214 0.75186 0.0
C1905 C 0.96339 0.25929 0.77064 0.0
C1906 C 0.91532 0.24394 0.81259 0.0
C1907 C 0.90529 0.22616 0.80883 0.0
C1908 C 0.92607 0.25534 0.79743 0.0
C1909 C 0.9268 0.2488 0.77807 0.0
C1910 C 0.91712 0.23082 0.7744 0.0
C1911 C 0.90648 0.21975 0.78979 0.0
C1912 C 0.93624 0.27442 0.80195 0.0
C1913 C 0.91749 0.22334 0.75394 0.0
H1914 H 0.93058 0.28235 0.72204 0.0
H1915 H 0.97602 0.28009 0.73768 0.0
H1916 H 0.9011 0.24795 0.75062 0.0
H1917 H 0.90798 0.26589 0.76745 0.0
H1918 H 0.90503 0.26839 0.74079 0.0
H1919 H 0.9771 0.26471 0.76605 0.0
H1920 H 0.96297 0.26279 0.78673 0.0
H1921 H 0.95686 0.24501 0.76987 0.0
H1922 H 0.91465 0.24897 0.82735 0.0
H1923 H 0.8986 0.20607 0.78663 0.0
H1924 H 0.9314 0.2813 0.79236 0.0
H1925 H 0.95005 0.27967 0.79809 0.0
H1926 H 0.93525 0.2773 0.81817 0.0
H1927 H 0.9117 0.22786 0.74227 0.0
H1928 H 0.91027 0.20901 0.75402 0.0
H1929 H 0.93101 0.22786 0.74926 0.0
C1930 C 0.73034 0.68645 0.73223 0.0
C1931 C 0.71968 0.67047 0.72292 0.0
C1932 C 0.74149 0.688 0.74819 0.0
C1933 C 0.74169 0.67314 0.75519 0.0
C1934 C 0.73071 0.65694 0.74604 0.0
C1935 C 0.71997 0.65584 0.7299 0.0
C1936 C 0.75323 0.70553 0.75734 0.0
C1937 C 0.73037 0.64075 0.75323 0.0
C1938 C 0.78065 0.67595 0.78165 0.0
C1939 C 0.77543 0.67353 0.80205 0.0
C1940 C 0.7701 0.67663 0.76635 0.0
C1941 C 0.75379 0.6745 0.77156 0.0
C1942 C 0.74864 0.67246 0.79224 0.0
C1943 C 0.75963 0.67217 0.8073 0.0
C1944 C 0.77622 0.67915 0.74454 0.0
C1945 C 0.73123 0.66988 0.79835 0.0
H1946 H 0.73015 0.69779 0.72685 0.0
H1947 H 0.71163 0.64342 0.72287 0.0
H1948 H 0.75094 0.70524 0.77395 0.0
H1949 H 0.76691 0.70903 0.7552 0.0
H1950 H 0.75131 0.71575 0.7504 0.0
H1951 H 0.72049 0.62904 0.74515 0.0
H1952 H 0.74319 0.64195 0.7508 0.0
H1953 H 0.72763 0.63897 0.76979 0.0
H1954 H 0.79299 0.6772 0.77766 0.0
H1955 H 0.75561 0.67023 0.8231 0.0
H1956 H 0.77514 0.68981 0.73745 0.0
H1957 H 0.7679 0.66728 0.73567 0.0
H1958 H 0.78981 0.68209 0.74326 0.0
H1959 H 0.72944 0.68037 0.79208 0.0
H1960 H 0.72961 0.66952 0.81513 0.0
H1961 H 0.72087 0.65756 0.7919 0.0
C1962 C 0.71927 0.6686 0.61448 0.0
C1963 C 0.70645 0.65456 0.62539 0.0
C1964 C 0.72845 0.66617 0.5988 0.0
C1965 C 0.72475 0.64927 0.59388 0.0
C1966 C 0.71131 0.63497 0.60424 0.0
C1967 C 0.7023 0.63778 0.61992 0.0
C1968 C 0.74265 0.68179 0.5881 0.0
C1969 C 0.70695 0.61676 0.59935 0.0
C1970 C 0.74465 0.64558 0.54434 0.0
C1971 C 0.76021 0.6472 0.55131 0.0
C1972 C 0.73252 0.64543 0.55808 0.0
C1973 C 0.73607 0.6469 0.57922 0.0
C1974 C 0.75138 0.64769 0.58633 0.0
C1975 C 0.76323 0.64782 0.5723 0.0
C1976 C 0.71631 0.64451 0.54993 0.0
C1977 C 0.75564 0.64918 0.60874 0.0
H1978 H 0.72246 0.6816 0.61854 0.0
H1979 H 0.69236 0.62688 0.62827 0.0
H1980 H 0.75533 0.68301 0.59169 0.0
H1981 H 0.74089 0.6803 0.57138 0.0
H1982 H 0.74305 0.69392 0.59269 0.0
H1983 H 0.69501 0.60701 0.60719 0.0
H1984 H 0.70526 0.61445 0.58272 0.0
H1985 H 0.71777 0.61485 0.60411 0.0
H1986 H 0.74227 0.64513 0.52812 0.0
H1987 H 0.77508 0.64871 0.57777 0.0
H1988 H 0.71698 0.65709 0.5523 0.0
H1989 H 0.70481 0.63463 0.55829 0.0
H1990 H 0.71449 0.64141 0.53344 0.0
H1991 H 0.75772 0.6617 0.61461 0.0
H1992 H 0.76742 0.64839 0.61185 0.0
H1993 H 0.7447 0.63882 0.61737 0.0
C1994 C 0.35056 0.0718 0.63107 0.0
C1995 C 0.34636 0.0546 0.62843 0.0
C1996 C 0.35161 0.08204 0.61439 0.0
C1997 C 0.3482 0.07486 0.59459 0.0
C1998 C 0.34453 0.05767 0.59174 0.0
C1999 C 0.34373 0.04776 0.60871 0.0
C2000 C 0.35577 0.10038 0.61807 0.0
C2001 C 0.34073 0.04954 0.57088 0.0
C2002 C 0.3317 0.09598 0.55782 0.0
C2003 C 0.34673 0.10723 0.54702 0.0
C2004 C 0.33186 0.08486 0.57275 0.0
C2005 C 0.34746 0.08509 0.57716 0.0
C2006 C 0.36254 0.09597 0.56587 0.0
C2007 C 0.36198 0.10685 0.55088 0.0
C2008 C 0.31547 0.07336 0.58436 0.0
C2009 C 0.37942 0.09659 0.57013 0.0
H2010 H 0.35267 0.07718 0.64628 0.0
H2011 H 0.34042 0.03444 0.60661 0.0
H2012 H 0.36666 0.10939 0.60822 0.0
H2013 H 0.34445 0.1017 0.61403 0.0
H2014 H 0.35925 0.10438 0.63417 0.0
H2015 H 0.33947 0.03655 0.57101 0.0
H2016 H 0.3285 0.04827 0.56507 0.0
H2017 H 0.3511 0.05787 0.56004 0.0
H2018 H 0.31992 0.0963 0.55519 0.0
H2019 H 0.37358 0.11527 0.54237 0.0
H2020 H 0.31706 0.07754 0.60049 0.0
H2021 H 0.31274 0.05984 0.5842 0.0
H2022 H 0.30413 0.07366 0.57798 0.0
H2023 H 0.38396 0.1018 0.58563 0.0
H2024 H 0.38964 0.10479 0.55904 0.0
H2025 H 0.37762 0.0834 0.56973 0.0
C2026 C 0.94079 0.29845 0.61504 0.0
C2027 C 0.94694 0.28992 0.62737 0.0
C2028 C 0.92954 0.28989 0.59871 0.0
C2029 C 0.92438 0.27242 0.59467 0.0
C2030 C 0.93075 0.26385 0.60694 0.0
C2031 C 0.94192 0.27269 0.62312 0.0
C2032 C 0.92301 0.29943 0.58596 0.0
C2033 C 0.92559 0.24524 0.60313 0.0
C2034 C 0.8826 0.24252 0.56709 0.0
C2035 C 0.88862 0.24121 0.54783 0.0
C2036 C 0.89404 0.25322 0.5822 0.0
C2037 C 0.91196 0.26281 0.57801 0.0
C2038 C 0.91806 0.26206 0.55837 0.0
C2039 C 0.90632 0.25127 0.54352 0.0
C2040 C 0.88701 0.25364 0.60295 0.0
C2041 C 0.93707 0.27215 0.55328 0.0
H2042 H 0.94464 0.31177 0.61825 0.0
H2043 H 0.94666 0.26602 0.63256 0.0
H2044 H 0.92609 0.29902 0.5697 0.0
H2045 H 0.90874 0.29304 0.58723 0.0
H2046 H 0.92867 0.31313 0.59066 0.0
H2047 H 0.93199 0.24058 0.61379 0.0
H2048 H 0.9114 0.23692 0.60478 0.0
H2049 H 0.92896 0.24367 0.58734 0.0
H2050 H 0.86899 0.23465 0.57066 0.0
H2051 H 0.91104 0.25052 0.52858 0.0
H2052 H 0.89184 0.26716 0.6078 0.0
H2053 H 0.89159 0.24766 0.61428 0.0
H2054 H 0.87266 0.24662 0.60324 0.0
H2055 H 0.94252 0.28593 0.55739 0.0
H2056 H 0.93957 0.27129 0.53689 0.0
H2057 H 0.94408 0.26714 0.56233 0.0
C2058 C 0.34375 0.27338 0.63747 0.0
C2059 C 0.34516 0.28949 0.6343 0.0
C2060 C 0.34566 0.26426 0.62128 0.0
C2061 C 0.34841 0.27117 0.60135 0.0
C2062 C 0.34996 0.28752 0.59812 0.0
C2063 C 0.3486 0.29663 0.61474 0.0
C2064 C 0.34445 0.24711 0.62546 0.0
C2065 C 0.35234 0.29506 0.57703 0.0
C2066 C 0.36473 0.25231 0.56111 0.0
C2067 C 0.34922 0.23932 0.55254 0.0
C2068 C 0.3647 0.26286 0.5769 0.0
C2069 C 0.34883 0.26084 0.58385 0.0
C2070 C 0.3332 0.24836 0.57469 0.0
C2071 C 0.33355 0.23758 0.55945 0.0
C2072 C 0.38162 0.27578 0.58658 0.0
C2073 C 0.31601 0.24609 0.58133 0.0
H2074 H 0.34118 0.26792 0.65265 0.0
H2075 H 0.34951 0.30903 0.61229 0.0
H2076 H 0.33277 0.23662 0.61803 0.0
H2077 H 0.35581 0.24695 0.61894 0.0
H2078 H 0.34376 0.24428 0.642 0.0
H2079 H 0.35391 0.30817 0.57719 0.0
H2080 H 0.36382 0.29577 0.56962 0.0
H2081 H 0.34096 0.28653 0.56752 0.0
H2082 H 0.37697 0.25416 0.55566 0.0
H2083 H 0.32142 0.22746 0.5534 0.0
H2084 H 0.38151 0.27265 0.60294 0.0
H2085 H 0.38337 0.28893 0.58574 0.0
H2086 H 0.39288 0.27595 0.57922 0.0
H2087 H 0.31312 0.24102 0.5971 0.0
H2088 H 0.30525 0.23705 0.57132 0.0
H2089 H 0.31649 0.25871 0.58134 0.0
C2090 C 0.70528 0.06072 0.61991 0.0
C2091 C 0.71331 0.05274 0.6298 0.0
C2092 C 0.71336 0.07201 0.60349 0.0
C2093 C 0.72991 0.07551 0.59704 0.0
C2094 C 0.73801 0.06741 0.60694 0.0
C2095 C 0.72957 0.05606 0.62311 0.0
C2096 C 0.70425 0.08026 0.59314 0.0
C2097 C 0.75574 0.07093 0.60067 0.0
C2098 C 0.7482 0.09375 0.54486 0.0
C2099 C 0.75959 0.11115 0.54944 0.0
C2100 C 0.73784 0.08212 0.56005 0.0
C2101 C 0.73911 0.08801 0.58032 0.0
C2102 C 0.75023 0.10566 0.58489 0.0
C2103 C 0.76027 0.11703 0.56937 0.0
C2104 C 0.72597 0.06344 0.55453 0.0
C2105 C 0.75211 0.11241 0.60634 0.0
H2106 H 0.69268 0.05814 0.62499 0.0
H2107 H 0.73586 0.04995 0.63073 0.0
H2108 H 0.71195 0.09448 0.59488 0.0
H2109 H 0.7031 0.07745 0.5766 0.0
H2110 H 0.69114 0.07567 0.59946 0.0
H2111 H 0.76019 0.0635 0.60986 0.0
H2112 H 0.75567 0.0676 0.5844 0.0
H2113 H 0.76524 0.08488 0.60236 0.0
H2114 H 0.74753 0.08921 0.52942 0.0
H2115 H 0.76922 0.13043 0.57303 0.0
H2116 H 0.71274 0.059 0.56032 0.0
H2117 H 0.73059 0.05533 0.56184 0.0
H2118 H 0.7253 0.06126 0.53784 0.0
H2119 H 0.73927 0.10876 0.61279 0.0
H2120 H 0.76043 0.12667 0.60712 0.0
H2121 H 0.75785 0.1065 0.61611 0.0
C2122 C 0.95254 0.67292 0.61663 0.0
C2123 C 0.95237 0.65893 0.62641 0.0
C2124 C 0.94132 0.67037 0.60044 0.0
C2125 C 0.92951 0.65337 0.59393 0.0
C2126 C 0.92974 0.63921 0.60319 0.0
C2127 C 0.94124 0.64217 0.61932 0.0
C2128 C 0.9416 0.68585 0.5909 0.0
C2129 C 0.91733 0.62092 0.59668 0.0
C2130 C 0.88868 0.64925 0.57139 0.0
C2131 C 0.89201 0.65005 0.55047 0.0
C2132 C 0.90041 0.64944 0.58564 0.0
C2133 C 0.91595 0.65056 0.57882 0.0
C2134 C 0.91905 0.65059 0.55767 0.0
C2135 C 0.90698 0.65026 0.5437 0.0
C2136 C 0.8965 0.64922 0.60803 0.0
C2137 C 0.93548 0.65181 0.54983 0.0
H2138 H 0.96123 0.68593 0.62192 0.0
H2139 H 0.94109 0.63131 0.62681 0.0
H2140 H 0.94261 0.68544 0.57411 0.0
H2141 H 0.92934 0.6856 0.59435 0.0
H2142 H 0.9525 0.69822 0.59654 0.0
H2143 H 0.92037 0.61151 0.60383 0.0
H2144 H 0.90399 0.61746 0.60102 0.0
H2145 H 0.91755 0.61969 0.57991 0.0
H2146 H 0.87696 0.64878 0.57664 0.0
H2147 H 0.90959 0.65091 0.52752 0.0
H2148 H 0.90585 0.66178 0.61498 0.0
H2149 H 0.89794 0.63908 0.61595 0.0
H2150 H 0.88323 0.64686 0.61079 0.0
H2151 H 0.94657 0.66477 0.55333 0.0
H2152 H 0.93507 0.64974 0.53313 0.0
H2153 H 0.93789 0.6422 0.5575 0.0
C2154 C 0.96664 0.6837 0.74687 0.0
C2155 C 0.95835 0.67819 0.728 0.0
C2156 C 0.95767 0.68451 0.76403 0.0
C2157 C 0.94007 0.67982 0.76217 0.0
C2158 C 0.93187 0.67485 0.74296 0.0
C2159 C 0.94107 0.67402 0.72616 0.0
C2160 C 0.96683 0.68981 0.78427 0.0
C2161 C 0.91318 0.66992 0.74025 0.0
C2162 C 0.90855 0.66227 0.80628 0.0
C2163 C 0.90641 0.67634 0.81101 0.0
C2164 C 0.92019 0.66353 0.79114 0.0
C2165 C 0.92983 0.67921 0.78035 0.0
C2166 C 0.92833 0.69371 0.78572 0.0
C2167 C 0.91666 0.69212 0.80105 0.0
C2168 C 0.92156 0.64781 0.78605 0.0
C2169 C 0.93831 0.71063 0.77453 0.0
H2170 H 0.97998 0.68689 0.74837 0.0
H2171 H 0.93462 0.66983 0.71158 0.0
H2172 H 0.96539 0.70035 0.79108 0.0
H2173 H 0.96086 0.67874 0.79496 0.0
H2174 H 0.98081 0.6942 0.78291 0.0
H2175 H 0.909 0.66728 0.7241 0.0
H2176 H 0.90479 0.6582 0.74932 0.0
H2177 H 0.91107 0.68039 0.74592 0.0
H2178 H 0.90081 0.65012 0.81414 0.0
H2179 H 0.91496 0.703 0.80454 0.0
H2180 H 0.93529 0.65117 0.78571 0.0
H2181 H 0.91613 0.64307 0.77067 0.0
H2182 H 0.9145 0.63717 0.79712 0.0
H2183 H 0.95217 0.71454 0.77355 0.0
H2184 H 0.93716 0.72114 0.78197 0.0
H2185 H 0.93337 0.70908 0.75874 0.0
C2186 C 0.33939 0.2778 0.73599 0.0
C2187 C 0.32611 0.28078 0.7298 0.0
C2188 C 0.33684 0.26625 0.75181 0.0
C2189 C 0.32067 0.2576 0.76185 0.0
C2190 C 0.30728 0.26074 0.75588 0.0
C2191 C 0.31013 0.27223 0.73983 0.0
C2192 C 0.3514 0.26314 0.75759 0.0
C2193 C 0.28994 0.25187 0.76637 0.0
C2194 C 0.31009 0.21587 0.78859 0.0
C2195 C 0.31501 0.22146 0.80867 0.0
C2196 C 0.31145 0.22742 0.7733 0.0
C2197 C 0.31775 0.24496 0.77825 0.0
C2198 C 0.3222 0.25057 0.79863 0.0
C2199 C 0.32088 0.23877 0.81359 0.0
C2200 C 0.30674 0.22097 0.75171 0.0
C2201 C 0.32878 0.26912 0.80454 0.0
H2202 H 0.35176 0.28434 0.72827 0.0
H2203 H 0.29985 0.27454 0.73515 0.0
H2204 H 0.3547 0.26626 0.77388 0.0
H2205 H 0.34726 0.24931 0.75551 0.0
H2206 H 0.36321 0.27099 0.74836 0.0
H2207 H 0.28109 0.25617 0.76039 0.0
H2208 H 0.28374 0.2377 0.76434 0.0
H2209 H 0.29163 0.25448 0.78295 0.0
H2210 H 0.30575 0.20256 0.78466 0.0
H2211 H 0.32454 0.24309 0.82914 0.0
H2212 H 0.31841 0.22739 0.74194 0.0
H2213 H 0.29723 0.22428 0.74553 0.0
H2214 H 0.30121 0.20678 0.75058 0.0
H2215 H 0.34138 0.27755 0.79704 0.0
H2216 H 0.3305 0.27113 0.82124 0.0
H2217 H 0.31969 0.27332 0.79923 0.0
C2218 C 0.74008 0.06051 0.72481 0.0
C2219 C 0.72487 0.04472 0.72774 0.0
C2220 C 0.75062 0.06969 0.74134 0.0
C2221 C 0.74548 0.06318 0.76132 0.0
C2222 C 0.73019 0.04713 0.76432 0.0
C2223 C 0.7202 0.03794 0.74742 0.0
C2224 C 0.76709 0.0865 0.73744 0.0
C2225 C 0.724 0.04003 0.7854 0.0
C2226 C 0.77919 0.08215 0.80328 0.0
C2227 C 0.77689 0.09563 0.81058 0.0
C2228 C 0.76897 0.07137 0.7874 0.0
C2229 C 0.7557 0.07367 0.77905 0.0
C2230 C 0.75271 0.08663 0.78697 0.0
C2231 C 0.76349 0.09761 0.80234 0.0
C2232 C 0.77279 0.05791 0.77908 0.0
C2233 C 0.73839 0.08923 0.77882 0.0
H2234 H 0.74372 0.0657 0.70956 0.0
H2235 H 0.70832 0.02579 0.74967 0.0
H2236 H 0.76603 0.09734 0.74397 0.0
H2237 H 0.77814 0.08643 0.74502 0.0
H2238 H 0.76999 0.08898 0.72094 0.0
H2239 H 0.71223 0.02704 0.78509 0.0
H2240 H 0.73426 0.03919 0.79388 0.0
H2241 H 0.72105 0.04891 0.79399 0.0
H2242 H 0.78916 0.08012 0.80977 0.0
H2243 H 0.76167 0.10809 0.80742 0.0
H2244 H 0.77664 0.06073 0.76286 0.0
H2245 H 0.76104 0.04497 0.77969 0.0
H2246 H 0.7833 0.05747 0.78757 0.0
H2247 H 0.74135 0.09402 0.76294 0.0
H2248 H 0.73661 0.09864 0.78802 0.0
H2249 H 0.72602 0.07679 0.77857 0.0
C2250 C 0.05811 0.35902 0.03624 0.0
C2251 C 0.04055 0.34651 0.03714 0.0
C2252 C 0.0705 0.35666 0.04663 0.0
C2253 C 0.06517 0.34132 0.0579 0.0
C2254 C 0.04752 0.32839 0.05821 0.0
C2255 C 0.0354 0.33121 0.04796 0.0
C2256 C 0.08918 0.37083 0.04614 0.0
C2257 C 0.04136 0.31175 0.06977 0.0
C2258 C 0.09855 0.32912 0.07365 0.0
C2259 C 0.10125 0.33412 0.09419 0.0
C2260 C 0.0869 0.33143 0.06161 0.0
C2261 C 0.07789 0.33913 0.07022 0.0
C2262 C 0.08068 0.34438 0.09084 0.0
C2263 C 0.09219 0.34168 0.1026 0.0
C2264 C 0.08412 0.3255 0.03973 0.0
C2265 C 0.07138 0.35273 0.10055 0.0
H2266 H 0.06212 0.37089 0.02794 0.0
H2267 H 0.02183 0.32145 0.04859 0.0
H2268 H 0.09343 0.37604 0.06171 0.0
H2269 H 0.09749 0.36563 0.04102 0.0
H2270 H 0.09133 0.3816 0.03592 0.0
H2271 H 0.02739 0.30253 0.06736 0.0
H2272 H 0.04879 0.30546 0.06503 0.0
H2273 H 0.04363 0.31449 0.08629 0.0
H2274 H 0.10567 0.32352 0.06689 0.0
H2275 H 0.09391 0.3453 0.11852 0.0
H2276 H 0.08729 0.33653 0.02948 0.0
H2277 H 0.07032 0.31579 0.03723 0.0
H2278 H 0.09212 0.31973 0.03534 0.0
H2279 H 0.07374 0.36424 0.09167 0.0
H2280 H 0.07556 0.35675 0.11651 0.0
H2281 H 0.05725 0.3436 0.10046 0.0
C2282 C 0.66918 0.70792 0.03994 0.0
C2283 C 0.65272 0.69338 0.03762 0.0
C2284 C 0.67149 0.72244 0.05075 0.0
C2285 C 0.65704 0.72226 0.05982 0.0
C2286 C 0.64036 0.70766 0.05734 0.0
C2287 C 0.63838 0.69345 0.04608 0.0
C2288 C 0.68942 0.73789 0.0527 0.0
C2289 C 0.62468 0.70687 0.06705 0.0
C2290 C 0.66593 0.75215 0.10491 0.0
C2291 C 0.66434 0.76551 0.09607 0.0
C2292 C 0.66336 0.73787 0.09333 0.0
C2293 C 0.65946 0.73716 0.07234 0.0
C2294 C 0.65802 0.75073 0.06332 0.0
C2295 C 0.66031 0.76468 0.07535 0.0
C2296 C 0.6647 0.72351 0.10359 0.0
C2297 C 0.65423 0.75061 0.04092 0.0
H2298 H 0.68029 0.70793 0.03334 0.0
H2299 H 0.62566 0.68218 0.04443 0.0
H2300 H 0.68951 0.7497 0.04742 0.0
H2301 H 0.69343 0.73991 0.0689 0.0
H2302 H 0.69913 0.73636 0.04379 0.0
H2303 H 0.61259 0.69469 0.06342 0.0
H2304 H 0.62631 0.70794 0.08382 0.0
H2305 H 0.62329 0.71789 0.06188 0.0
H2306 H 0.6689 0.75274 0.12098 0.0
H2307 H 0.65924 0.77511 0.06849 0.0
H2308 H 0.67519 0.72213 0.0965 0.0
H2309 H 0.65251 0.71109 0.10148 0.0
H2310 H 0.66735 0.72582 0.12015 0.0
H2311 H 0.6643 0.7499 0.03182 0.0
H2312 H 0.65372 0.76226 0.03621 0.0
H2313 H 0.64169 0.73902 0.03716 0.0
C2314 C 0.2958 0.96119 0.03526 0.0
C2315 C 0.31078 0.95989 0.03479 0.0
C2316 C 0.281 0.94902 0.04575 0.0
C2317 C 0.28126 0.93535 0.05622 0.0
C2318 C 0.29624 0.93379 0.05547 0.0
C2319 C 0.3108 0.94603 0.04464 0.0
C2320 C 0.26521 0.95101 0.04595 0.0
C2321 C 0.29705 0.91946 0.06657 0.0
C2322 C 0.25003 0.91528 0.10041 0.0
C2323 C 0.23703 0.89994 0.09174 0.0
C2324 C 0.26458 0.92683 0.08907 0.0
C2325 C 0.26605 0.92304 0.0685 0.0
C2326 C 0.25289 0.90762 0.05962 0.0
C2327 C 0.23858 0.8962 0.07139 0.0
C2328 C 0.27842 0.94306 0.09914 0.0
C2329 C 0.25387 0.90325 0.03766 0.0
H2330 H 0.2957 0.97185 0.0276 0.0
H2331 H 0.32238 0.94503 0.04439 0.0
H2332 H 0.25374 0.93892 0.0407 0.0
H2333 H 0.26252 0.95343 0.06172 0.0
H2334 H 0.26678 0.9618 0.03614 0.0
H2335 H 0.30946 0.91973 0.06396 0.0
H2336 H 0.29549 0.92057 0.08315 0.0
H2337 H 0.2863 0.90674 0.06163 0.0
H2338 H 0.24894 0.9181 0.11621 0.0
H2339 H 0.22846 0.88442 0.0646 0.0
H2340 H 0.27989 0.95456 0.091 0.0
H2341 H 0.29103 0.9435 0.09827 0.0
H2342 H 0.27548 0.94394 0.11537 0.0
H2343 H 0.25458 0.91355 0.02762 0.0
H2344 H 0.24255 0.89075 0.03305 0.0
H2345 H 0.26578 0.9026 0.03507 0.0
C2346 C 0.34127 0.03494 0.96385 0.0
C2347 C 0.34966 0.0385 0.98274 0.0
C2348 C 0.33879 0.04732 0.95379 0.0
C2349 C 0.34475 0.06366 0.96288 0.0
C2350 C 0.35319 0.06735 0.98199 0.0
C2351 C 0.3556 0.05472 0.99168 0.0
C2352 C 0.3298 0.0429 0.93339 0.0
C2353 C 0.35965 0.08462 0.99217 0.0
C2354 C 0.35153 0.10004 0.92746 0.0
C2355 C 0.3361 0.1003 0.93004 0.0
C2356 C 0.35467 0.08842 0.93836 0.0
C2357 C 0.34211 0.07683 0.95225 0.0
C2358 C 0.32664 0.07724 0.9552 0.0
C2359 C 0.3238 0.08893 0.94401 0.0
C2360 C 0.37125 0.08827 0.93465 0.0
C2361 C 0.31299 0.06516 0.96997 0.0
H2362 H 0.33668 0.02244 0.95682 0.0
H2363 H 0.36207 0.05752 0.00629 0.0
H2364 H 0.31801 0.04402 0.93416 0.0
H2365 H 0.33839 0.05218 0.9217 0.0
H2366 H 0.32605 0.02964 0.92834 0.0
H2367 H 0.36584 0.08541 0.00709 0.0
H2368 H 0.36916 0.09507 0.98221 0.0
H2369 H 0.34877 0.08704 0.99457 0.0
H2370 H 0.361 0.10868 0.91654 0.0
H2371 H 0.31196 0.08925 0.94627 0.0
H2372 H 0.36829 0.07562 0.92822 0.0
H2373 H 0.37816 0.08991 0.94922 0.0
H2374 H 0.38001 0.0986 0.924 0.0
H2375 H 0.30785 0.05161 0.96501 0.0
H2376 H 0.30206 0.06767 0.9712 0.0
H2377 H 0.31872 0.06645 0.98528 0.0
C2378 C 0.94811 0.31319 0.9778 0.0
C2379 C 0.96171 0.31225 0.98709 0.0
C2380 C 0.93527 0.29911 0.96688 0.0
C2381 C 0.93595 0.28368 0.9655 0.0
C2382 C 0.94938 0.28251 0.97541 0.0
C2383 C 0.96216 0.29686 0.98596 0.0
C2384 C 0.92125 0.30089 0.95635 0.0
C2385 C 0.95042 0.26621 0.97454 0.0
C2386 C 0.89561 0.242 0.95045 0.0
C2387 C 0.89908 0.24032 0.93004 0.0
C2388 C 0.90744 0.25611 0.96216 0.0
C2389 C 0.92299 0.26894 0.95316 0.0
C2390 C 0.92642 0.26744 0.93245 0.0
C2391 C 0.91446 0.25307 0.92117 0.0
C2392 C 0.90345 0.25713 0.98427 0.0
C2393 C 0.94276 0.28096 0.92223 0.0
H2394 H 0.94777 0.3251 0.97856 0.0
H2395 H 0.97262 0.29606 0.9932 0.0
H2396 H 0.92204 0.29948 0.93968 0.0
H2397 H 0.90835 0.29049 0.96136 0.0
H2398 H 0.92223 0.31355 0.95943 0.0
H2399 H 0.96114 0.26709 0.98397 0.0
H2400 H 0.93811 0.25506 0.97987 0.0
H2401 H 0.95239 0.26353 0.95859 0.0
H2402 H 0.88378 0.23205 0.95737 0.0
H2403 H 0.91707 0.25187 0.90533 0.0
H2404 H 0.9037 0.26944 0.98727 0.0
H2405 H 0.91349 0.25699 0.99402 0.0
H2406 H 0.89063 0.24627 0.98886 0.0
H2407 H 0.94391 0.29383 0.92373 0.0
H2408 H 0.94316 0.27821 0.90582 0.0
H2409 H 0.95417 0.28167 0.92981 0.0
C2410 C 0.69359 0.63818 0.98266 0.0
C2411 C 0.69123 0.65247 0.98422 0.0
C2412 C 0.70761 0.63923 0.97175 0.0
C2413 C 0.71958 0.65498 0.96231 0.0
C2414 C 0.71741 0.66953 0.96419 0.0
C2415 C 0.70324 0.66808 0.97506 0.0
C2416 C 0.70946 0.62343 0.97003 0.0
C2417 C 0.72994 0.68659 0.95448 0.0
C2418 C 0.76424 0.66326 0.94781 0.0
C2419 C 0.76253 0.66022 0.92676 0.0
C2420 C 0.75032 0.66139 0.95961 0.0
C2421 C 0.73424 0.65625 0.95018 0.0
C2422 C 0.73233 0.6529 0.92901 0.0
C2423 C 0.74649 0.65496 0.91755 0.0
C2424 C 0.75288 0.66511 0.98214 0.0
C2425 C 0.71538 0.64739 0.91839 0.0
H2426 H 0.68431 0.62607 0.98966 0.0
H2427 H 0.70151 0.67919 0.97624 0.0
H2428 H 0.70873 0.61968 0.95382 0.0
H2429 H 0.72229 0.62632 0.9758 0.0
H2430 H 0.6993 0.61229 0.97864 0.0
H2431 H 0.72668 0.69678 0.95781 0.0
H2432 H 0.74324 0.691 0.95999 0.0
H2433 H 0.73 0.68503 0.93775 0.0
H2434 H 0.77648 0.66704 0.95513 0.0
H2435 H 0.74509 0.65277 0.90127 0.0
H2436 H 0.74337 0.65366 0.99088 0.0
H2437 H 0.75059 0.67587 0.98595 0.0
H2438 H 0.76608 0.66863 0.98723 0.0
H2439 H 0.70487 0.63568 0.92577 0.0
H2440 H 0.71581 0.64459 0.902 0.0
H2441 H 0.71202 0.6577 0.91972 0.0
C2442 C 0.94266 0.6387 0.98961 0.0
C2443 C 0.95951 0.65264 0.99176 0.0
C2444 C 0.93006 0.64057 0.97902 0.0
C2445 C 0.93442 0.65678 0.97051 0.0
C2446 C 0.95123 0.67105 0.97334 0.0
C2447 C 0.96358 0.66879 0.98388 0.0
C2448 C 0.91228 0.62504 0.97627 0.0
C2449 C 0.95634 0.68858 0.96465 0.0
C2450 C 0.90967 0.65786 0.9242 0.0
C2451 C 0.89825 0.66256 0.93275 0.0
C2452 C 0.92138 0.6558 0.93636 0.0
C2453 C 0.92178 0.6586 0.9576 0.0
C2454 C 0.91033 0.66338 0.96635 0.0
C2455 C 0.89867 0.66527 0.95383 0.0
C2456 C 0.9334 0.65071 0.92645 0.0
C2457 C 0.91041 0.66651 0.98893 0.0
H2458 H 0.93945 0.62618 0.99565 0.0
H2459 H 0.97658 0.67964 0.98558 0.0
H2460 H 0.90226 0.62809 0.98124 0.0
H2461 H 0.91 0.62155 0.95992 0.0
H2462 H 0.9106 0.61366 0.98495 0.0
H2463 H 0.96953 0.6986 0.9694 0.0
H2464 H 0.95593 0.6879 0.9478 0.0
H2465 H 0.94706 0.69265 0.96954 0.0
H2466 H 0.9096 0.656 0.9079 0.0
H2467 H 0.88973 0.66867 0.96059 0.0
H2468 H 0.93166 0.63865 0.93341 0.0
H2469 H 0.94702 0.66089 0.92905 0.0
H2470 H 0.9312 0.64866 0.9098 0.0
H2471 H 0.90774 0.65473 0.99745 0.0
H2472 H 0.90067 0.67014 0.99336 0.0
H2473 H 0.92337 0.67696 0.9937 0.0
C2474 C 0.34884 0.29675 0.9937 0.0
C2475 C 0.34283 0.30717 0.98536 0.0
C2476 C 0.34645 0.28195 0.98345 0.0
C2477 C 0.33798 0.27758 0.96435 0.0
C2478 C 0.33175 0.28798 0.95597 0.0
C2479 C 0.33419 0.30261 0.96662 0.0
C2480 C 0.35314 0.27108 0.99293 0.0
C2481 C 0.32275 0.28382 0.93559 0.0
C2482 C 0.34668 0.24987 0.92795 0.0
C2483 C 0.3317 0.23373 0.93017 0.0
C2484 C 0.34894 0.26423 0.93908 0.0
C2485 C 0.33594 0.26236 0.95287 0.0
C2486 C 0.32086 0.24605 0.95532 0.0
C2487 C 0.31888 0.23195 0.94387 0.0
C2488 C 0.36512 0.28144 0.9359 0.0
C2489 C 0.30679 0.24353 0.96999 0.0
H2490 H 0.3555 0.30021 0.0082 0.0
H2491 H 0.32955 0.31064 0.96007 0.0
H2492 H 0.3425 0.25753 0.99443 0.0
H2493 H 0.36309 0.271 0.98294 0.0
H2494 H 0.35889 0.27589 0.00819 0.0
H2495 H 0.31846 0.29308 0.93133 0.0
H2496 H 0.33158 0.28402 0.9236 0.0
H2497 H 0.31131 0.27063 0.93584 0.0
H2498 H 0.35653 0.25135 0.91722 0.0
H2499 H 0.30738 0.21943 0.9458 0.0
H2500 H 0.37201 0.28636 0.95055 0.0
H2501 H 0.36167 0.29101 0.9303 0.0
H2502 H 0.37409 0.28068 0.92481 0.0
H2503 H 0.3122 0.24742 0.98554 0.0
H2504 H 0.29605 0.22993 0.97047 0.0
H2505 H 0.30145 0.25188 0.96558 0.0
C2506 C 0.69606 0.03488 0.96631 0.0
C2507 C 0.69111 0.03812 0.9853 0.0
C2508 C 0.71083 0.04757 0.95629 0.0
C2509 C 0.72099 0.06391 0.96553 0.0
C2510 C 0.71619 0.06722 0.98482 0.0
C2511 C 0.70124 0.05428 0.99446 0.0
C2512 C 0.71545 0.04355 0.9357 0.0
C2513 C 0.72676 0.08445 0.99519 0.0
C2514 C 0.76693 0.09099 0.94584 0.0
C2515 C 0.76528 0.10222 0.93238 0.0
C2516 C 0.75271 0.07872 0.95711 0.0
C2517 C 0.73644 0.07757 0.95473 0.0
C2518 C 0.73473 0.08897 0.94128 0.0
C2519 C 0.74918 0.10119 0.93031 0.0
C2520 C 0.75506 0.06687 0.97141 0.0
C2521 C 0.71756 0.08803 0.93815 0.0
H2522 H 0.68828 0.02242 0.95912 0.0
H2523 H 0.69748 0.05684 0.00915 0.0
H2524 H 0.71553 0.05263 0.92416 0.0
H2525 H 0.72864 0.04532 0.9361 0.0
H2526 H 0.70628 0.03016 0.93068 0.0
H2527 H 0.72156 0.08481 0.01041 0.0
H2528 H 0.74031 0.0874 0.99699 0.0
H2529 H 0.72705 0.0948 0.98564 0.0
H2530 H 0.77939 0.09189 0.94768 0.0
H2531 H 0.7478 0.10971 0.91976 0.0
H2532 H 0.74695 0.05329 0.96635 0.0
H2533 H 0.75074 0.0678 0.98693 0.0
H2534 H 0.76871 0.06991 0.97219 0.0
H2535 H 0.7081 0.07525 0.93178 0.0
H2536 H 0.71854 0.09821 0.92767 0.0
H2537 H 0.71236 0.08936 0.95293 0.0
C2538 C 0.66539 0.95937 0.03755 0.0
C2539 C 0.64936 0.95861 0.03696 0.0
C2540 C 0.66756 0.94714 0.04849 0.0
C2541 C 0.65342 0.93397 0.05934 0.0
C2542 C 0.6371 0.93293 0.05846 0.0
C2543 C 0.63524 0.94521 0.04716 0.0
C2544 C 0.6851 0.94855 0.04881 0.0
C2545 C 0.62176 0.91916 0.06995 0.0
C2546 C 0.65581 0.89458 0.07603 0.0
C2547 C 0.66148 0.8988 0.09621 0.0
C2548 C 0.65309 0.90587 0.06385 0.0
C2549 C 0.6559 0.92166 0.07214 0.0
C2550 C 0.66143 0.92589 0.09259 0.0
C2551 C 0.66426 0.91445 0.10433 0.0
C2552 C 0.64743 0.90102 0.04204 0.0
C2553 C 0.66437 0.94251 0.10205 0.0
H2554 H 0.67633 0.96967 0.02964 0.0
H2555 H 0.62284 0.94463 0.04683 0.0
H2556 H 0.69033 0.95125 0.06452 0.0
H2557 H 0.68399 0.93614 0.04405 0.0
H2558 H 0.6945 0.95894 0.03865 0.0
H2559 H 0.60983 0.91975 0.06714 0.0
H2560 H 0.61935 0.90618 0.06555 0.0
H2561 H 0.62452 0.92065 0.08651 0.0
H2562 H 0.65382 0.88256 0.06964 0.0
H2563 H 0.66847 0.91766 0.11999 0.0
H2564 H 0.6572 0.91082 0.03166 0.0
H2565 H 0.6351 0.90084 0.03935 0.0
H2566 H 0.64564 0.88818 0.03798 0.0
H2567 H 0.67467 0.95368 0.09366 0.0
H2568 H 0.66817 0.94364 0.11831 0.0
H2569 H 0.65244 0.94336 0.10092 0.0
C2570 C 0.03581 0.69327 0.0611 0.0
C2571 C 0.03802 0.69002 0.04078 0.0
C2572 C 0.04862 0.70779 0.07134 0.0
C2573 C 0.06384 0.71959 0.06087 0.0
C2574 C 0.06609 0.71645 0.04027 0.0
C2575 C 0.05322 0.70154 0.03053 0.0
C2576 C 0.04587 0.71046 0.09343 0.0
C2577 C 0.08197 0.72895 0.02848 0.0
C2578 C 0.08781 0.76457 0.08369 0.0
C2579 C 0.10138 0.76432 0.09416 0.0
C2580 C 0.0759 0.75034 0.07219 0.0
C2581 C 0.07725 0.73527 0.07154 0.0
C2582 C 0.09087 0.73488 0.08201 0.0
C2583 C 0.10287 0.74946 0.09297 0.0
C2584 C 0.06168 0.75134 0.06102 0.0
C2585 C 0.09257 0.71894 0.08198 0.0
H2586 H 0.02413 0.68429 0.06913 0.0
H2587 H 0.0549 0.69906 0.01479 0.0
H2588 H 0.05672 0.71157 0.10276 0.0
H2589 H 0.0457 0.72268 0.09522 0.0
H2590 H 0.03359 0.69974 0.09955 0.0
H2591 H 0.08169 0.72472 0.01253 0.0
H2592 H 0.08309 0.74186 0.0283 0.0
H2593 H 0.09373 0.73043 0.03602 0.0
H2594 H 0.08627 0.77579 0.08472 0.0
H2595 H 0.11346 0.74919 0.10059 0.0
H2596 H 0.04898 0.74205 0.06774 0.0
H2597 H 0.06139 0.74769 0.04483 0.0
H2598 H 0.06326 0.76444 0.06167 0.0
H2599 H 0.08083 0.70797 0.08874 0.0
H2600 H 0.10402 0.72079 0.09067 0.0
H2601 H 0.0936 0.71527 0.06615 0.0
C2602 C 0.30518 0.33673 0.06373 0.0
C2603 C 0.30676 0.34091 0.043 0.0
C2604 C 0.29076 0.33421 0.07493 0.0
C2605 C 0.27741 0.33552 0.06505 0.0
C2606 C 0.27872 0.33928 0.04397 0.0
C2607 C 0.2935 0.34213 0.03323 0.0
C2608 C 0.29001 0.33057 0.09746 0.0
C2609 C 0.26457 0.34041 0.03282 0.0
C2610 C 0.2339 0.31505 0.09175 0.0
C2611 C 0.23405 0.32947 0.10039 0.0
C2612 C 0.24775 0.31685 0.07987 0.0
C2613 C 0.26232 0.33343 0.07693 0.0
C2614 C 0.26267 0.34803 0.0857 0.0
C2615 C 0.24847 0.3459 0.0971 0.0
C2616 C 0.24682 0.30101 0.07051 0.0
C2617 C 0.2781 0.3659 0.08317 0.0
H2618 H 0.31548 0.33589 0.07136 0.0
H2619 H 0.29467 0.34529 0.01717 0.0
H2620 H 0.28936 0.34088 0.10611 0.0
H2621 H 0.27816 0.31822 0.10112 0.0
H2622 H 0.3014 0.32984 0.10281 0.0
H2623 H 0.26715 0.34253 0.01623 0.0
H2624 H 0.25203 0.32837 0.0351 0.0
H2625 H 0.26321 0.35117 0.03906 0.0
H2626 H 0.22301 0.30226 0.09442 0.0
H2627 H 0.24864 0.35719 0.10328 0.0
H2628 H 0.25724 0.29908 0.07676 0.0
H2629 H 0.24886 0.30276 0.05383 0.0
H2630 H 0.23421 0.28916 0.07339 0.0
H2631 H 0.28989 0.3662 0.08899 0.0
H2632 H 0.27648 0.37587 0.09133 0.0
H2633 H 0.28027 0.36936 0.06681 0.0
C2634 C 0.7029 0.67486 0.39613 0.0
C2635 C 0.70504 0.67916 0.37542 0.0
C2636 C 0.71506 0.67232 0.40669 0.0
C2637 C 0.72956 0.67381 0.39619 0.0
C2638 C 0.7317 0.67797 0.37521 0.0
C2639 C 0.71947 0.68075 0.3651 0.0
C2640 C 0.71247 0.6682 0.42914 0.0
C2641 C 0.74684 0.67938 0.36343 0.0
C2642 C 0.76875 0.68245 0.42758 0.0
C2643 C 0.76633 0.6658 0.42995 0.0
C2644 C 0.75696 0.68526 0.41654 0.0
C2645 C 0.74252 0.67112 0.40729 0.0
C2646 C 0.74016 0.65433 0.40923 0.0
C2647 C 0.75198 0.65185 0.42067 0.0
C2648 C 0.75982 0.70333 0.41501 0.0
C2649 C 0.72501 0.63895 0.39941 0.0
H2650 H 0.6918 0.67371 0.4042 0.0
H2651 H 0.72112 0.684 0.34906 0.0
H2652 H 0.71155 0.65557 0.43205 0.0
H2653 H 0.72376 0.67807 0.43781 0.0
H2654 H 0.70062 0.66772 0.43511 0.0
H2655 H 0.74644 0.68235 0.3471 0.0
H2656 H 0.75912 0.68965 0.37008 0.0
H2657 H 0.74701 0.6671 0.36455 0.0
H2658 H 0.77995 0.69338 0.43429 0.0
H2659 H 0.7498 0.6389 0.42262 0.0
H2660 H 0.74862 0.70374 0.42162 0.0
H2661 H 0.76079 0.70719 0.39881 0.0
H2662 H 0.77172 0.71294 0.42303 0.0
H2663 H 0.71277 0.63694 0.40614 0.0
H2664 H 0.72557 0.62692 0.40135 0.0
H2665 H 0.72461 0.64132 0.38291 0.0
C2666 C 0.33421 0.04129 0.37095 0.0
C2667 C 0.31772 0.02681 0.36856 0.0
C2668 C 0.33653 0.05593 0.38145 0.0
C2669 C 0.32204 0.05595 0.39009 0.0
C2670 C 0.30532 0.04148 0.38738 0.0
C2671 C 0.30334 0.02712 0.37647 0.0
C2672 C 0.35453 0.07123 0.38369 0.0
C2673 C 0.28959 0.04094 0.39659 0.0
C2674 C 0.331 0.08565 0.43532 0.0
C2675 C 0.3301 0.09938 0.42644 0.0
C2676 C 0.32811 0.07129 0.42371 0.0
C2677 C 0.32453 0.07083 0.40266 0.0
C2678 C 0.32367 0.08473 0.3936 0.0
C2679 C 0.32633 0.09879 0.40566 0.0
C2680 C 0.32887 0.05661 0.43398 0.0
C2681 C 0.32019 0.08484 0.37115 0.0
H2682 H 0.34535 0.04111 0.36476 0.0
H2683 H 0.29059 0.01589 0.37474 0.0
H2684 H 0.35485 0.08316 0.37847 0.0
H2685 H 0.35834 0.07307 0.39995 0.0
H2686 H 0.36424 0.06961 0.37491 0.0
H2687 H 0.27744 0.029 0.39247 0.0
H2688 H 0.2908 0.04167 0.41341 0.0
H2689 H 0.28865 0.05225 0.39151 0.0
H2690 H 0.33374 0.08604 0.45144 0.0
H2691 H 0.32578 0.10949 0.39877 0.0
H2692 H 0.33934 0.05503 0.42717 0.0
H2693 H 0.31657 0.04435 0.43153 0.0
H2694 H 0.33122 0.0587 0.45061 0.0
H2695 H 0.33035 0.08413 0.36223 0.0
H2696 H 0.31987 0.09659 0.36649 0.0
H2697 H 0.30766 0.07334 0.36712 0.0
C2698 C 0.96526 0.27992 0.36503 0.0
C2699 C 0.97507 0.29648 0.37337 0.0
C2700 C 0.95036 0.26723 0.37493 0.0
C2701 C 0.94529 0.27118 0.39366 0.0
C2702 C 0.95509 0.28792 0.40203 0.0
C2703 C 0.96982 0.30038 0.39174 0.0
C2704 C 0.94013 0.24955 0.36547 0.0
C2705 C 0.95018 0.2926 0.42203 0.0
C2706 C 0.89937 0.24408 0.41315 0.0
C2707 C 0.90121 0.23355 0.42752 0.0
C2708 C 0.91353 0.25613 0.40166 0.0
C2709 C 0.92995 0.25777 0.40478 0.0
C2710 C 0.93185 0.24707 0.41916 0.0
C2711 C 0.91744 0.23504 0.4303 0.0
C2712 C 0.91098 0.26721 0.38634 0.0
C2713 C 0.94919 0.24858 0.42307 0.0
H2714 H 0.96926 0.27687 0.35081 0.0
H2715 H 0.97737 0.31315 0.39829 0.0
H2716 H 0.94008 0.23973 0.37579 0.0
H2717 H 0.92649 0.2462 0.36334 0.0
H2718 H 0.94546 0.24872 0.35052 0.0
H2719 H 0.95908 0.30625 0.42636 0.0
H2720 H 0.93687 0.29047 0.42113 0.0
H2721 H 0.95027 0.28414 0.43429 0.0
H2722 H 0.88679 0.2428 0.41078 0.0
H2723 H 0.91893 0.22702 0.44154 0.0
H2724 H 0.9155 0.2658 0.37112 0.0
H2725 H 0.91882 0.28099 0.39071 0.0
H2726 H 0.89725 0.26382 0.38514 0.0
H2727 H 0.95458 0.24678 0.40868 0.0
H2728 H 0.94839 0.23896 0.43434 0.0
H2729 H 0.95841 0.26169 0.4288 0.0
C2730 C 0.03043 0.38792 0.31216 0.0
C2731 C 0.0163 0.37413 0.32185 0.0
C2732 C 0.02843 0.40028 0.30122 0.0
C2733 C 0.01197 0.39891 0.30025 0.0
C2734 C 0.99781 0.38533 0.31062 0.0
C2735 C 0.00012 0.37302 0.32116 0.0
C2736 C 0.04378 0.41447 0.29017 0.0
C2737 C 0.98013 0.38359 0.31022 0.0
C2738 C 0.00879 0.43806 0.28461 0.0
C2739 C 0.00327 0.43407 0.26436 0.0
C2740 C 0.01175 0.42677 0.29648 0.0
C2741 C 0.00936 0.41126 0.28778 0.0
C2742 C 0.00405 0.40732 0.26723 0.0
C2743 C 0.00094 0.41872 0.25581 0.0
C2744 C 0.01715 0.43129 0.31841 0.0
C2745 C 0.00159 0.39102 0.25733 0.0
H2746 H 0.04294 0.38877 0.31258 0.0
H2747 H 0.98918 0.36241 0.32872 0.0
H2748 H 0.04124 0.41328 0.27356 0.0
H2749 H 0.04587 0.42726 0.29492 0.0
H2750 H 0.05582 0.41408 0.29303 0.0
H2751 H 0.97074 0.37292 0.32007 0.0
H2752 H 0.98095 0.39579 0.31531 0.0
H2753 H 0.97508 0.38113 0.29443 0.0
H2754 H 0.01045 0.44986 0.29128 0.0
H2755 H 0.99686 0.41573 0.24009 0.0
H2756 H 0.02956 0.43164 0.32114 0.0
H2757 H 0.00737 0.42121 0.32852 0.0
H2758 H 0.01868 0.44396 0.32278 0.0
H2759 H 0.01364 0.39041 0.25856 0.0
H2760 H 0.99803 0.39018 0.24101 0.0
H2761 H 0.99129 0.37958 0.26534 0.0
C2762 C 0.63801 0.62799 0.31557 0.0
C2763 C 0.6331 0.64015 0.32052 0.0
C2764 C 0.62666 0.61273 0.30523 0.0
C2765 C 0.6102 0.6098 0.29927 0.0
C2766 C 0.60515 0.62201 0.30436 0.0
C2767 C 0.6166 0.63695 0.31516 0.0
C2768 C 0.63234 0.59982 0.30051 0.0
C2769 C 0.58784 0.61951 0.29793 0.0
C2770 C 0.58809 0.57987 0.25453 0.0
C2771 C 0.57527 0.56508 0.26431 0.0
C2772 C 0.59956 0.59452 0.26574 0.0
C2773 C 0.5984 0.59419 0.28725 0.0
C2774 C 0.58576 0.57908 0.2972 0.0
C2775 C 0.57419 0.56476 0.28558 0.0
C2776 C 0.61264 0.6105 0.25454 0.0
C2777 C 0.58437 0.57809 0.32011 0.0
H2778 H 0.65074 0.63041 0.3198 0.0
H2779 H 0.61283 0.6464 0.31886 0.0
H2780 H 0.62269 0.58691 0.30637 0.0
H2781 H 0.63312 0.59862 0.2838 0.0
H2782 H 0.64513 0.60356 0.30723 0.0
H2783 H 0.58585 0.63018 0.30317 0.0
H2784 H 0.58676 0.61869 0.2811 0.0
H2785 H 0.57727 0.60719 0.3041 0.0
H2786 H 0.58877 0.58012 0.23805 0.0
H2787 H 0.56429 0.55325 0.2931 0.0
H2788 H 0.6259 0.61422 0.25956 0.0
H2789 H 0.61057 0.62143 0.25819 0.0
H2790 H 0.61185 0.60864 0.23778 0.0
H2791 H 0.597 0.5813 0.32688 0.0
H2792 H 0.57442 0.5651 0.32551 0.0
H2793 H 0.58105 0.58771 0.32586 0.0
C2794 C 0.3636 0.99596 0.30103 0.0
C2795 C 0.35736 0.98622 0.31891 0.0
C2796 C 0.37788 0.99716 0.29073 0.0
C2797 C 0.3863 0.98863 0.29867 0.0
C2798 C 0.38024 0.979 0.31692 0.0
C2799 C 0.36572 0.97779 0.32676 0.0
C2800 C 0.38378 0.00735 0.27117 0.0
C2801 C 0.38907 0.96995 0.32597 0.0
C2802 C 0.41266 0.97893 0.26124 0.0
C2803 C 0.42931 0.99294 0.26439 0.0
C2804 C 0.39857 0.97719 0.27256 0.0
C2805 C 0.40128 0.98964 0.28758 0.0
C2806 C 0.41815 0.00359 0.29116 0.0
C2807 C 0.43196 0.00515 0.27939 0.0
C2808 C 0.38073 0.9623 0.26806 0.0
C2809 C 0.42158 0.01698 0.30722 0.0
H2810 H 0.35713 0.00243 0.29483 0.0
H2811 H 0.36094 0.97029 0.3406 0.0
H2812 H 0.39741 0.01784 0.27259 0.0
H2813 H 0.38321 0.99886 0.25855 0.0
H2814 H 0.37576 0.01316 0.26701 0.0
H2815 H 0.38313 0.96349 0.3406 0.0
H2816 H 0.38841 0.96012 0.31517 0.0
H2817 H 0.40294 0.97934 0.3286 0.0
H2818 H 0.41058 0.96956 0.24954 0.0
H2819 H 0.44488 0.01588 0.28199 0.0
H2820 H 0.37234 0.9673 0.26255 0.0
H2821 H 0.37476 0.95485 0.28214 0.0
H2822 H 0.38091 0.95342 0.25639 0.0
H2823 H 0.41487 0.02415 0.30316 0.0
H2824 H 0.43558 0.02639 0.309 0.0
H2825 H 0.41635 0.01064 0.32209 0.0
C2826 C 0.61047 0.96733 0.3147 0.0
C2827 C 0.62489 0.98195 0.32271 0.0
C2828 C 0.59788 0.96883 0.30359 0.0
C2829 C 0.59963 0.98531 0.3008 0.0
C2830 C 0.61385 3e-05 0.30951 0.0
C2831 C 0.6264 0.99819 0.3202 0.0
C2832 C 0.58303 0.95287 0.29428 0.0
C2833 C 0.61599 0.01777 0.30721 0.0
C2834 C 0.57818 0.99302 0.25535 0.0
C2835 C 0.56316 0.99138 0.26411 0.0
C2836 C 0.59005 0.99084 0.26708 0.0
C2837 C 0.58694 0.98726 0.28814 0.0
C2838 C 0.57185 0.98574 0.29709 0.0
C2839 C 0.56004 0.98767 0.2849 0.0
C2840 C 0.60586 0.99228 0.25692 0.0
C2841 C 0.56827 0.98227 0.31955 0.0
H2842 H 0.60932 0.95477 0.31651 0.0
H2843 H 0.63751 0.00952 0.32646 0.0
H2844 H 0.57055 0.95143 0.29934 0.0
H2845 H 0.58352 0.95413 0.27747 0.0
H2846 H 0.58327 0.94096 0.29836 0.0
H2847 H 0.62715 0.0277 0.31602 0.0
H2848 H 0.61792 0.02158 0.29094 0.0
H2849 H 0.60412 0.01766 0.31234 0.0
H2850 H 0.58049 0.99575 0.23922 0.0
H2851 H 0.54848 0.98655 0.2917 0.0
H2852 H 0.6063 0.98025 0.25937 0.0
H2853 H 0.6177 0.00299 0.26381 0.0
H2854 H 0.60611 0.99462 0.24029 0.0
H2855 H 0.56759 0.96994 0.32364 0.0
H2856 H 0.55599 0.98158 0.32416 0.0
H2857 H 0.57899 0.99261 0.32846 0.0
C2858 C 0.01745 0.63059 0.3248 0.0
C2859 C 0.0094 0.63973 0.31831 0.0
C2860 C 0.01477 0.61572 0.31446 0.0
C2861 C 0.00402 0.61007 0.29703 0.0
C2862 C 0.9957 0.61915 0.29057 0.0
C2863 C 0.99839 0.6338 0.30139 0.0
C2864 C 0.02364 0.60621 0.32199 0.0
C2865 C 0.98432 0.61367 0.27192 0.0
C2866 C 0.01137 0.58308 0.25804 0.0
C2867 C 0.99753 0.56651 0.26203 0.0
C2868 C 0.01361 0.59737 0.2693 0.0
C2869 C 0.00188 0.59497 0.28514 0.0
C2870 C 0.98797 0.57822 0.28938 0.0
C2871 C 0.98588 0.5642 0.27764 0.0
C2872 C 0.02843 0.61507 0.26409 0.0
C2873 C 0.97536 0.57511 0.30634 0.0
H2874 H 0.02593 0.63511 0.33792 0.0
H2875 H 0.9922 0.64087 0.29625 0.0
H2876 H 0.01401 0.5924 0.3245 0.0
H2877 H 0.03287 0.60675 0.31033 0.0
H2878 H 0.03081 0.61171 0.3364 0.0
H2879 H 0.97855 0.62194 0.26913 0.0
H2880 H 0.99198 0.61425 0.25835 0.0
H2881 H 0.97374 0.60011 0.27354 0.0
H2882 H 0.0203 0.58489 0.24586 0.0
H2883 H 0.97528 0.55135 0.28088 0.0
H2884 H 0.03693 0.62078 0.27753 0.0
H2885 H 0.0234 0.62375 0.25997 0.0
H2886 H 0.03634 0.61475 0.25125 0.0
H2887 H 0.98239 0.57981 0.32096 0.0
H2888 H 0.9655 0.56124 0.308 0.0
H2889 H 0.96864 0.58248 0.30345 0.0
C2890 C 0.37091 0.39063 0.32128 0.0
C2891 C 0.36427 0.37283 0.31907 0.0
C2892 C 0.38544 0.40256 0.31014 0.0
C2893 C 0.3936 0.39653 0.29663 0.0
C2894 C 0.38716 0.37858 0.29469 0.0
C2895 C 0.37253 0.36695 0.30585 0.0
C2896 C 0.39184 0.42159 0.31251 0.0
C2897 C 0.39561 0.37165 0.28063 0.0
C2898 C 0.42042 0.42508 0.25276 0.0
C2899 C 0.43731 0.43225 0.26036 0.0
C2900 C 0.40609 0.41364 0.26451 0.0
C2901 C 0.40867 0.40897 0.28422 0.0
C2902 C 0.42564 0.41601 0.29194 0.0
C2903 C 0.43972 0.42768 0.28003 0.0
C2904 C 0.38817 0.40653 0.2558 0.0
C2905 C 0.42894 0.41119 0.31279 0.0
H2906 H 0.36454 0.39524 0.33142 0.0
H2907 H 0.36747 0.35321 0.30412 0.0
H2908 H 0.4056 0.42847 0.3172 0.0
H2909 H 0.39107 0.42708 0.29768 0.0
H2910 H 0.38426 0.42418 0.32391 0.0
H2911 H 0.38941 0.35738 0.28143 0.0
H2912 H 0.39492 0.37536 0.26471 0.0
H2913 H 0.40948 0.3774 0.28453 0.0
H2914 H 0.41835 0.42823 0.2375 0.0
H2915 H 0.45263 0.43336 0.28628 0.0
H2916 H 0.38018 0.40948 0.26614 0.0
H2917 H 0.38177 0.39229 0.25455 0.0
H2918 H 0.38832 0.41191 0.24053 0.0
H2919 H 0.42245 0.41483 0.32454 0.0
H2920 H 0.44293 0.41757 0.31644 0.0
H2921 H 0.42339 0.39701 0.31377 0.0
C2922 C 0.33787 0.30688 0.39462 0.0
C2923 C 0.32972 0.30282 0.37556 0.0
C2924 C 0.34035 0.29479 0.40544 0.0
C2925 C 0.33467 0.27829 0.39693 0.0
C2926 C 0.32686 0.27427 0.37745 0.0
C2927 C 0.32441 0.28657 0.36703 0.0
C2928 C 0.34865 0.29952 0.42621 0.0
C2929 C 0.32076 0.25686 0.3678 0.0
C2930 C 0.35252 0.25098 0.41853 0.0
C2931 C 0.33894 0.23953 0.43115 0.0
C2932 C 0.35132 0.26365 0.40724 0.0
C2933 C 0.33624 0.26497 0.40877 0.0
C2934 C 0.32257 0.25356 0.42166 0.0
C2935 C 0.32407 0.24094 0.43263 0.0
C2936 C 0.36609 0.27549 0.39352 0.0
C2937 C 0.30636 0.25468 0.42389 0.0
H2938 H 0.34199 0.31942 0.4013 0.0
H2939 H 0.31815 0.28338 0.35228 0.0
H2940 H 0.33934 0.29091 0.43787 0.0
H2941 H 0.35998 0.29764 0.42676 0.0
H2942 H 0.35292 0.31311 0.43035 0.0
H2943 H 0.31579 0.2561 0.35212 0.0
H2944 H 0.33148 0.25403 0.36724 0.0
H2945 H 0.31032 0.24665 0.37716 0.0
H2946 H 0.36397 0.24981 0.4172 0.0
H2947 H 0.31363 0.23225 0.44257 0.0
H2948 H 0.37103 0.28912 0.39797 0.0
H2949 H 0.36149 0.27406 0.37759 0.0
H2950 H 0.37693 0.2728 0.39408 0.0
H2951 H 0.3097 0.26773 0.4293 0.0
H2952 H 0.29702 0.24496 0.43472 0.0
H2953 H 0.29995 0.25271 0.4089 0.0
C2954 C 0.7211 0.03227 0.3662 0.0
C2955 C 0.7042 0.02329 0.37379 0.0
C2956 C 0.73391 0.04715 0.37605 0.0
C2957 C 0.72971 0.05296 0.39406 0.0
C2958 C 0.71266 0.04389 0.40178 0.0
C2959 C 0.7001 0.02926 0.39147 0.0
C2960 C 0.7519 0.05663 0.36723 0.0
C2961 C 0.70772 0.04954 0.42107 0.0
C2962 C 0.76505 0.08115 0.43149 0.0
C2963 C 0.76688 0.0974 0.4278 0.0
C2964 C 0.7532 0.06661 0.42038 0.0
C2965 C 0.74312 0.06843 0.40504 0.0
C2966 C 0.74521 0.08489 0.40094 0.0
C2967 C 0.75698 0.09916 0.41249 0.0
C2968 C 0.75115 0.04924 0.42541 0.0
C2969 C 0.73485 0.08738 0.38454 0.0
H2970 H 0.7243 0.02772 0.3525 0.0
H2971 H 0.68707 0.02231 0.39748 0.0
H2972 H 0.7557 0.07027 0.3642 0.0
H2973 H 0.76127 0.05674 0.37835 0.0
H2974 H 0.75295 0.0507 0.35286 0.0
H2975 H 0.69393 0.04097 0.42513 0.0
H2976 H 0.71583 0.04964 0.43389 0.0
H2977 H 0.71013 0.06288 0.41932 0.0
H2978 H 0.77261 0.07975 0.44344 0.0
H2979 H 0.75855 0.11177 0.40945 0.0
H2980 H 0.75315 0.04336 0.41158 0.0
H2981 H 0.73781 0.0404 0.43085 0.0
H2982 H 0.76037 0.05011 0.43731 0.0
H2983 H 0.73645 0.08224 0.36985 0.0
H2984 H 0.73873 0.10117 0.38246 0.0
H2985 H 0.72091 0.08006 0.38845 0.0
C2986 C 0.96376 0.6818 0.36246 0.0
C2987 C 0.97687 0.68097 0.37317 0.0
C2988 C 0.9488 0.67932 0.37248 0.0
C2989 C 0.94708 0.67621 0.39372 0.0
C2990 C 0.96042 0.67562 0.40461 0.0
C2991 C 0.97508 0.67789 0.39418 0.0
C2992 C 0.93474 0.67981 0.36033 0.0
C2993 C 0.9592 0.67258 0.42731 0.0
C2994 C 0.91601 0.68448 0.4245 0.0
C2995 C 0.90224 0.66767 0.42779 0.0
C2996 C 0.93056 0.68748 0.41317 0.0
C2997 C 0.93129 0.67335 0.40465 0.0
C2998 C 0.91729 0.65639 0.40746 0.0
C2999 C 0.90301 0.65374 0.41911 0.0
C3000 C 0.9453 0.70574 0.41065 0.0
C3001 C 0.91754 0.64099 0.3985 0.0
H3002 H 0.96509 0.68413 0.3462 0.0
H3003 H 0.98522 0.67733 0.40256 0.0
H3004 H 0.92253 0.66729 0.36174 0.0
H3005 H 0.93225 0.68991 0.36643 0.0
H3006 H 0.93809 0.68245 0.34394 0.0
H3007 H 0.97091 0.67296 0.4336 0.0
H3008 H 0.95735 0.6825 0.43517 0.0
H3009 H 0.94782 0.65983 0.43088 0.0
H3010 H 0.91542 0.69536 0.43078 0.0
H3011 H 0.8926 0.64069 0.42176 0.0
H3012 H 0.94806 0.7089 0.39427 0.0
H3013 H 0.95717 0.70703 0.41764 0.0
H3014 H 0.94253 0.71535 0.41779 0.0
H3015 H 0.92019 0.64286 0.38193 0.0
H3016 H 0.90516 0.62878 0.40091 0.0
H3017 H 0.92809 0.63967 0.40554 0.0
C3018 C 0.37117 0.0108 0.72614 0.0
C3019 C 0.37222 0.01438 0.70526 0.0
C3020 C 0.38386 0.00861 0.73593 0.0
C3021 C 0.39779 0.00972 0.72449 0.0
C3022 C 0.39882 0.01314 0.70334 0.0
C3023 C 0.38608 0.01559 0.69399 0.0
C3024 C 0.38243 0.00527 0.75857 0.0
C3025 C 0.41333 0.01413 0.69061 0.0
C3026 C 0.4381 0.01957 0.7542 0.0
C3027 C 0.43566 0.003 0.75751 0.0
C3028 C 0.42604 0.02197 0.74316 0.0
C3029 C 0.41132 0.00749 0.73487 0.0
C3030 C 0.40904 0.99079 0.73754 0.0
C3031 C 0.42114 0.98873 0.74896 0.0
C3032 C 0.42885 0.03997 0.74083 0.0
C3033 C 0.39359 0.97505 0.72873 0.0
H3034 H 0.36053 0.00995 0.73495 0.0
H3035 H 0.38687 0.01829 0.67783 0.0
H3036 H 0.38171 0.99277 0.76175 0.0
H3037 H 0.39412 0.01546 0.76635 0.0
H3038 H 0.37088 0.00497 0.76528 0.0
H3039 H 0.41205 0.01648 0.67428 0.0
H3040 H 0.42591 0.02466 0.69625 0.0
H3041 H 0.41362 0.00193 0.69198 0.0
H3042 H 0.44944 0.03073 0.76031 0.0
H3043 H 0.41897 0.97586 0.75159 0.0
H3044 H 0.4181 0.04075 0.74821 0.0
H3045 H 0.42881 0.04306 0.7245 0.0
H3046 H 0.44122 0.04992 0.7477 0.0
H3047 H 0.38162 0.97306 0.73626 0.0
H3048 H 0.39444 0.96319 0.73071 0.0
H3049 H 0.39236 0.97695 0.71227 0.0
C3050 C 0.0049 0.37253 0.71016 0.0
C3051 C 0.98815 0.35997 0.70442 0.0
C3052 C 0.00791 0.38749 0.72055 0.0
C3053 C 0.99378 0.38967 0.72581 0.0
C3054 C 0.97683 0.37701 0.71999 0.0
C3055 C 0.97425 0.36242 0.70911 0.0
C3056 C 0.02621 0.40089 0.72601 0.0
C3057 C 0.96138 0.37867 0.72573 0.0
C3058 C 0.99989 0.41914 0.7705 0.0
C3059 C 0.00179 0.43383 0.76063 0.0
C3060 C 0.9971 0.40459 0.75935 0.0
C3061 C 0.99667 0.40499 0.73781 0.0
C3062 C 0.99893 0.41998 0.72779 0.0
C3063 C 0.00122 0.43416 0.73936 0.0
C3064 C 0.99434 0.38872 0.77061 0.0
C3065 C 0.999 0.42107 0.70487 0.0
H3066 H 0.01568 0.37069 0.70644 0.0
H3067 H 0.96128 0.35264 0.70481 0.0
H3068 H 0.02919 0.41371 0.72013 0.0
H3069 H 0.02767 0.40201 0.74278 0.0
H3070 H 0.03583 0.39772 0.71977 0.0
H3071 H 0.94907 0.3677 0.72006 0.0
H3072 H 0.9606 0.37932 0.74253 0.0
H3073 H 0.9628 0.39082 0.71949 0.0
H3074 H 0.0002 0.41891 0.78699 0.0
H3075 H 0.00278 0.44561 0.7318 0.0
H3076 H 0.00445 0.38561 0.76628 0.0
H3077 H 0.98169 0.37749 0.76632 0.0
H3078 H 0.99466 0.39038 0.78739 0.0
H3079 H 0.00902 0.41856 0.6985 0.0
H3080 H 0.00154 0.43388 0.69944 0.0
H3081 H 0.98637 0.41102 0.69873 0.0
C3082 C 0.62361 0.62143 0.69641 0.0
C3083 C 0.6397 0.62902 0.70611 0.0
C3084 C 0.60848 0.60983 0.70689 0.0
C3085 C 0.60964 0.60532 0.72725 0.0
C3086 C 0.62596 0.61269 0.7369 0.0
C3087 C 0.64076 0.62468 0.72631 0.0
C3088 C 0.59125 0.60265 0.69632 0.0
C3089 C 0.62783 0.60782 0.75836 0.0
C3090 C 0.5713 0.58744 0.76324 0.0
C3091 C 0.56505 0.56959 0.76218 0.0
C3092 C 0.58538 0.59913 0.75136 0.0
C3093 C 0.59384 0.59296 0.73861 0.0
C3094 C 0.58767 0.57504 0.73741 0.0
C3095 C 0.57319 0.56357 0.74891 0.0
C3096 C 0.59135 0.61815 0.75271 0.0
C3097 C 0.59659 0.56798 0.72433 0.0
H3098 H 0.62281 0.62491 0.68082 0.0
H3099 H 0.65325 0.63046 0.73374 0.0
H3100 H 0.58475 0.58838 0.69562 0.0
H3101 H 0.58272 0.60596 0.70513 0.0
H3102 H 0.59254 0.60771 0.6806 0.0
H3103 H 0.64153 0.61414 0.76331 0.0
H3104 H 0.62067 0.61154 0.76906 0.0
H3105 H 0.62213 0.59363 0.75952 0.0
H3106 H 0.56542 0.59238 0.77362 0.0
H3107 H 0.56831 0.54985 0.74747 0.0
H3108 H 0.59244 0.62358 0.73726 0.0
H3109 H 0.60436 0.62513 0.75974 0.0
H3110 H 0.58243 0.6207 0.76188 0.0
H3111 H 0.59677 0.57176 0.70824 0.0
H3112 H 0.59022 0.55369 0.72515 0.0
H3113 H 0.61023 0.57356 0.72924 0.0
C3114 C 0.68953 0.71871 0.64952 0.0
C3115 C 0.67556 0.70285 0.65567 0.0
C3116 C 0.68681 0.73078 0.63901 0.0
C3117 C 0.66972 0.72703 0.63498 0.0
C3118 C 0.65558 0.71133 0.64195 0.0
C3119 C 0.65868 0.69933 0.65201 0.0
C3120 C 0.70223 0.74725 0.63152 0.0
C3121 C 0.63718 0.70705 0.63836 0.0
C3122 C 0.66324 0.76444 0.62036 0.0
C3123 C 0.66122 0.76238 0.59923 0.0
C3124 C 0.66576 0.75288 0.63227 0.0
C3125 C 0.66665 0.73919 0.6227 0.0
C3126 C 0.66471 0.73713 0.60132 0.0
C3127 C 0.66182 0.74866 0.58986 0.0
C3128 C 0.66739 0.75526 0.65505 0.0
C3129 C 0.66591 0.72289 0.59051 0.0
H3130 H 0.7026 0.7214 0.65221 0.0
H3131 H 0.64786 0.68709 0.65684 0.0
H3132 H 0.70205 0.74765 0.61466 0.0
H3133 H 0.70163 0.7586 0.63718 0.0
H3134 H 0.71467 0.74846 0.63645 0.0
H3135 H 0.62769 0.69494 0.64612 0.0
H3136 H 0.63533 0.71772 0.64386 0.0
H3137 H 0.63436 0.70559 0.62182 0.0
H3138 H 0.66264 0.77501 0.62759 0.0
H3139 H 0.6604 0.74718 0.57348 0.0
H3140 H 0.68018 0.75752 0.66012 0.0
H3141 H 0.65744 0.74336 0.66272 0.0
H3142 H 0.6659 0.76627 0.66017 0.0
H3143 H 0.67858 0.72395 0.59375 0.0
H3144 H 0.66443 0.72326 0.57377 0.0
H3145 H 0.65576 0.71014 0.59624 0.0
C3146 C 0.27977 0.97715 0.64499 0.0
C3147 C 0.29308 0.97671 0.65573 0.0
C3148 C 0.26756 0.96273 0.63397 0.0
C3149 C 0.26863 0.94748 0.63385 0.0
C3150 C 0.28168 0.94678 0.64525 0.0
C3151 C 0.2938 0.96143 0.65598 0.0
C3152 C 0.25386 0.96399 0.62195 0.0
C3153 C 0.28314 0.9307 0.64567 0.0
C3154 C 0.22936 0.90547 0.61718 0.0
C3155 C 0.2337 0.90394 0.59707 0.0
C3156 C 0.2406 0.91955 0.62935 0.0
C3157 C 0.25651 0.93247 0.62117 0.0
C3158 C 0.26094 0.93102 0.60086 0.0
C3159 C 0.24951 0.91674 0.58909 0.0
C3160 C 0.2355 0.92055 0.65098 0.0
C3161 C 0.27774 0.9446 0.59154 0.0
H3162 H 0.2792 0.98895 0.64469 0.0
H3163 H 0.30404 0.96101 0.6643 0.0
H3164 H 0.25557 0.96252 0.60549 0.0
H3165 H 0.24084 0.95339 0.62628 0.0
H3166 H 0.25434 0.9765 0.62433 0.0
H3167 H 0.2934 0.93192 0.65621 0.0
H3168 H 0.27067 0.91943 0.65037 0.0
H3169 H 0.28609 0.92797 0.63018 0.0
H3170 H 0.21723 0.8955 0.62349 0.0
H3171 H 0.25282 0.9157 0.57349 0.0
H3172 H 0.23517 0.93266 0.65326 0.0
H3173 H 0.24526 0.92088 0.66165 0.0
H3174 H 0.22265 0.90946 0.65503 0.0
H3175 H 0.27851 0.95735 0.59207 0.0
H3176 H 0.27917 0.94165 0.57549 0.0
H3177 H 0.28879 0.94573 0.60045 0.0
C3178 C 0.03798 0.33932 0.64585 0.0
C3179 C 0.02513 0.32257 0.65114 0.0
C3180 C 0.05314 0.3423 0.63596 0.0
C3181 C 0.05527 0.32813 0.63074 0.0
C3182 C 0.04231 0.31118 0.63606 0.0
C3183 C 0.02749 0.30863 0.64646 0.0
C3184 C 0.06685 0.36059 0.63102 0.0
C3185 C 0.04391 0.29572 0.63035 0.0
C3186 C 0.086 0.33468 0.58725 0.0
C3187 C 0.10038 0.33633 0.59769 0.0
C3188 C 0.07114 0.33181 0.59781 0.0
C3189 C 0.0709 0.33103 0.61935 0.0
C3190 C 0.08556 0.333 0.62996 0.0
C3191 C 0.10006 0.33539 0.61896 0.0
C3192 C 0.05564 0.32938 0.58592 0.0
C3193 C 0.08596 0.33268 0.65291 0.0
H3194 H 0.03622 0.35013 0.64957 0.0
H3195 H 0.0175 0.29566 0.65041 0.0
H3196 H 0.07946 0.36335 0.63744 0.0
H3197 H 0.06848 0.36227 0.6143 0.0
H3198 H 0.06363 0.37021 0.63709 0.0
H3199 H 0.03266 0.28339 0.63554 0.0
H3200 H 0.04506 0.2952 0.61359 0.0
H3201 H 0.05581 0.29687 0.63708 0.0
H3202 H 0.08625 0.33527 0.57076 0.0
H3203 H 0.11127 0.33676 0.62698 0.0
H3204 H 0.05254 0.33951 0.59012 0.0
H3205 H 0.0442 0.31674 0.58977 0.0
H3206 H 0.05778 0.32992 0.56922 0.0
H3207 H 0.08343 0.3427 0.6592 0.0
H3208 H 0.09856 0.33495 0.65884 0.0
H3209 H 0.07562 0.32003 0.65861 0.0
C3210 C 0.2984 0.32362 0.63062 0.0
C3211 C 0.29653 0.31994 0.6515 0.0
C3212 C 0.28597 0.32558 0.61985 0.0
C3213 C 0.27146 0.32413 0.63028 0.0
C3214 C 0.2695 0.32043 0.65139 0.0
C3215 C 0.28201 0.31822 0.66173 0.0
C3216 C 0.28838 0.32923 0.59729 0.0
C3217 C 0.25434 0.31906 0.66308 0.0
C3218 C 0.24927 0.3461 0.60533 0.0
C3219 C 0.23481 0.33214 0.59625 0.0
C3220 C 0.26105 0.34361 0.61685 0.0
C3221 C 0.25853 0.32679 0.61907 0.0
C3222 C 0.24401 0.31263 0.60996 0.0
C3223 C 0.23226 0.31545 0.59882 0.0
C3224 C 0.27631 0.35903 0.62647 0.0
C3225 C 0.241 0.29452 0.61178 0.0
H3226 H 0.30955 0.32484 0.62262 0.0
H3227 H 0.28056 0.31543 0.67789 0.0
H3228 H 0.27695 0.3193 0.58887 0.0
H3229 H 0.2895 0.34189 0.59403 0.0
H3230 H 0.30008 0.32939 0.59133 0.0
H3231 H 0.25467 0.31606 0.67941 0.0
H3232 H 0.25426 0.33138 0.66195 0.0
H3233 H 0.24206 0.30885 0.65637 0.0
H3234 H 0.25157 0.35908 0.6032 0.0
H3235 H 0.22099 0.30452 0.59222 0.0
H3236 H 0.28849 0.36083 0.61979 0.0
H3237 H 0.27671 0.35684 0.64302 0.0
H3238 H 0.27588 0.37111 0.62427 0.0
H3239 H 0.25212 0.29393 0.60521 0.0
H3240 H 0.22903 0.2849 0.60387 0.0
H3241 H 0.24006 0.29083 0.62803 0.0
C3242 C 0.69207 0.9699 0.64794 0.0
C3243 C 0.67871 0.97241 0.65498 0.0
C3244 C 0.68846 0.95495 0.63712 0.0
C3245 C 0.67106 0.94205 0.63368 0.0
C3246 C 0.65752 0.94429 0.64132 0.0
C3247 C 0.66151 0.95955 0.65168 0.0
C3248 C 0.70325 0.95317 0.62891 0.0
C3249 C 0.63882 0.93066 0.63836 0.0
C3250 C 0.6613 0.91148 0.58913 0.0
C3251 C 0.66068 0.89722 0.59868 0.0
C3252 C 0.66466 0.92618 0.60035 0.0
C3253 C 0.66707 0.9264 0.62168 0.0
C3254 C 0.666 0.91181 0.63145 0.0
C3255 C 0.66302 0.89745 0.61978 0.0
C3256 C 0.66601 0.9416 0.58934 0.0
C3257 C 0.66811 0.91141 0.65419 0.0
H3258 H 0.70538 0.97989 0.65034 0.0
H3259 H 0.65115 0.96144 0.65719 0.0
H3260 H 0.70252 0.94123 0.63486 0.0
H3261 H 0.70234 0.95203 0.61209 0.0
H3262 H 0.71604 0.96433 0.633 0.0
H3263 H 0.62986 0.93395 0.64623 0.0
H3264 H 0.63565 0.92901 0.62191 0.0
H3265 H 0.63654 0.91805 0.64418 0.0
H3266 H 0.65962 0.9113 0.57278 0.0
H3267 H 0.6624 0.88633 0.62715 0.0
H3268 H 0.67902 0.953 0.5918 0.0
H3269 H 0.65645 0.94482 0.59554 0.0
H3270 H 0.66381 0.93934 0.57271 0.0
H3271 H 0.68126 0.92162 0.65873 0.0
H3272 H 0.6661 0.89877 0.65954 0.0
H3273 H 0.65878 0.91414 0.66211 0.0
C3274 C 0.03083 0.72185 0.64829 0.0
C3275 C 0.02853 0.7056 0.65314 0.0
C3276 C 0.04535 0.73388 0.63724 0.0
C3277 C 0.05806 0.7297 0.63141 0.0
C3278 C 0.05606 0.71351 0.63689 0.0
C3279 C 0.04118 0.70155 0.64745 0.0
C3280 C 0.04683 0.75085 0.63129 0.0
C3281 C 0.06954 0.70875 0.63144 0.0
C3282 C 0.08697 0.75289 0.58619 0.0
C3283 C 0.10168 0.76598 0.59579 0.0
C3284 C 0.07262 0.74105 0.5976 0.0
C3285 C 0.07324 0.7421 0.61913 0.0
C3286 C 0.08828 0.75509 0.62888 0.0
C3287 C 0.10225 0.76704 0.61706 0.0
C3288 C 0.05669 0.72763 0.58663 0.0
C3289 C 0.08961 0.75636 0.65178 0.0
H3290 H 0.02098 0.72494 0.65253 0.0
H3291 H 0.03945 0.68901 0.65129 0.0
H3292 H 0.05904 0.76173 0.63726 0.0
H3293 H 0.04727 0.75206 0.61447 0.0
H3294 H 0.03587 0.75214 0.63707 0.0
H3295 H 0.06655 0.6961 0.63793 0.0
H3296 H 0.07047 0.70815 0.61467 0.0
H3297 H 0.0824 0.71879 0.63704 0.0
H3298 H 0.08656 0.75222 0.56971 0.0
H3299 H 0.11371 0.77716 0.62441 0.0
H3300 H 0.04542 0.72896 0.59092 0.0
H3301 H 0.05372 0.71451 0.59123 0.0
H3302 H 0.05821 0.72873 0.56983 0.0
H3303 H 0.0796 0.75894 0.65799 0.0
H3304 H 0.10248 0.76674 0.65698 0.0
H3305 H 0.08719 0.74391 0.6583 0.0
C3306 C 0.97325 0.61435 0.71363 0.0
C3307 C 0.98775 0.62931 0.70635 0.0
C3308 C 0.97511 0.60201 0.7248 0.0
C3309 C 0.99184 0.60455 0.72838 0.0
C3310 C 0.00648 0.61941 0.72056 0.0
C3311 C 0.00427 0.6317 0.70982 0.0
C3312 C 0.9592 0.58647 0.73317 0.0
C3313 C 0.0245 0.62241 0.7237 0.0
C3314 C 0.99939 0.58232 0.77319 0.0
C3315 C 0.99884 0.56802 0.76379 0.0
C3316 C 0.99686 0.59417 0.76189 0.0
C3317 C 0.99408 0.59183 0.74062 0.0
C3318 C 0.99367 0.57747 0.73104 0.0
C3319 C 0.99589 0.56563 0.74279 0.0
C3320 C 0.99709 0.60915 0.77271 0.0
C3321 C 0.99108 0.57471 0.70836 0.0
H3322 H 0.96047 0.61253 0.71108 0.0
H3323 H 0.0155 0.64322 0.70412 0.0
H3324 H 0.95845 0.57444 0.7275 0.0
H3325 H 0.96 0.58632 0.75001 0.0
H3326 H 0.94712 0.58634 0.72891 0.0
H3327 H 0.03444 0.6342 0.71581 0.0
H3328 H 0.02758 0.62369 0.74017 0.0
H3329 H 0.02532 0.61117 0.71801 0.0
H3330 H 0.00152 0.58406 0.78946 0.0
H3331 H 0.99561 0.55464 0.7355 0.0
H3332 H 0.9848 0.60903 0.76989 0.0
H3333 H 0.00769 0.6215 0.76664 0.0
H3334 H 0.99888 0.60883 0.78939 0.0
H3335 H 0.97858 0.57353 0.70388 0.0
H3336 H 0.99122 0.56296 0.70325 0.0
H3337 H 0.0014 0.58603 0.70019 0.0
C3338 C 0.36427 0.36648 0.72613 0.0
C3339 C 0.36956 0.36105 0.70894 0.0
C3340 C 0.37602 0.38113 0.73714 0.0
C3341 C 0.39342 0.39074 0.73062 0.0
C3342 C 0.39873 0.38557 0.71298 0.0
C3343 C 0.38676 0.37069 0.70243 0.0
C3344 C 0.3699 0.3861 0.75601 0.0
C3345 C 0.41711 0.39564 0.70538 0.0
C3346 C 0.42025 0.43662 0.7504 0.0
C3347 C 0.42991 0.43458 0.7658 0.0
C3348 C 0.40848 0.42251 0.73863 0.0
C3349 C 0.40614 0.40593 0.7426 0.0
C3350 C 0.41579 0.4038 0.75825 0.0
C3351 C 0.42766 0.41819 0.76956 0.0
C3352 C 0.39861 0.42534 0.72189 0.0
C3353 C 0.41346 0.38629 0.76317 0.0
H3354 H 0.351 0.35903 0.73128 0.0
H3355 H 0.39088 0.36656 0.68912 0.0
H3356 H 0.37722 0.38572 0.76944 0.0
H3357 H 0.37243 0.39951 0.75462 0.0
H3358 H 0.3559 0.37741 0.75887 0.0
H3359 H 0.41897 0.3904 0.69088 0.0
H3360 H 0.42088 0.40935 0.70302 0.0
H3361 H 0.42601 0.39537 0.71695 0.0
H3362 H 0.42212 0.44934 0.74735 0.0
H3363 H 0.43503 0.41658 0.78158 0.0
H3364 H 0.38454 0.41754 0.72485 0.0
H3365 H 0.4011 0.42096 0.70713 0.0
H3366 H 0.40221 0.4391 0.72046 0.0
H3367 H 0.39981 0.37724 0.76734 0.0
H3368 H 0.42187 0.38681 0.7759 0.0
H3369 H 0.41643 0.38089 0.74959 0.0
C3370 C 0.63344 0.01586 0.69616 0.0
C3371 C 0.64651 0.01548 0.70748 0.0
C3372 C 0.61839 0.01364 0.70567 0.0
C3373 C 0.61654 0.01123 0.72702 0.0
C3374 C 0.62983 0.01109 0.73853 0.0
C3375 C 0.6446 0.01309 0.7286 0.0
C3376 C 0.6044 0.01368 0.69289 0.0
C3377 C 0.62845 0.00879 0.76134 0.0
C3378 C 0.58529 0.02057 0.75571 0.0
C3379 C 0.57148 0.00389 0.75953 0.0
C3380 C 0.59992 0.02317 0.74488 0.0
C3381 C 0.60069 0.00875 0.73742 0.0
C3382 C 0.58663 0.9919 0.74075 0.0
C3383 C 0.57226 0.98967 0.75187 0.0
C3384 C 0.6147 0.04133 0.74177 0.0
C3385 C 0.58693 0.97621 0.73291 0.0
H3386 H 0.63486 0.01764 0.67982 0.0
H3387 H 0.65471 0.01287 0.73744 0.0
H3388 H 0.59219 0.00121 0.69466 0.0
H3389 H 0.60187 0.02397 0.69817 0.0
H3390 H 0.60784 0.01574 0.67649 0.0
H3391 H 0.64011 0.00936 0.7681 0.0
H3392 H 0.62657 0.01896 0.76845 0.0
H3393 H 0.61703 0.99617 0.76528 0.0
H3394 H 0.58468 0.03166 0.7612 0.0
H3395 H 0.56178 0.97672 0.75493 0.0
H3396 H 0.61759 0.04392 0.72531 0.0
H3397 H 0.62652 0.04283 0.7492 0.0
H3398 H 0.61191 0.05117 0.74809 0.0
H3399 H 0.58968 0.97749 0.71635 0.0
H3400 H 0.57453 0.96409 0.73563 0.0
H3401 H 0.59743 0.97514 0.7405 0.0
loop_
_geom_bond_atom_site_label_1
_geom_bond_atom_site_label_2
_geom_bond_distance
_geom_bond_site_symmetry_2
_ccdc_geom_bond_type
In0 O1 2.269 1_455 S
In0 O2 2.329 . S
In0 O6 2.239 1_455 S
In0 O7 2.332 1_454 S
In0 O8 2.275 1_554 S
In0 O9 2.294 1_454 S
In0 O11 2.338 . S
In0 O12 2.351 . S
O1 In0 2.269 1_655 S
O1 C10 1.223 1_655 S
O2 In0 2.329 . S
O2 C10 1.284 . S
C3 O6 1.252 1_556 S
C3 O7 1.260 . S
C4 O11 1.240 . S
C4 O12 1.252 . S
C5 O8 1.270 . S
C5 O9 1.247 1_455 S
O6 In0 2.239 1_655 S
O6 C3 1.252 1_554 S
O7 In0 2.332 1_656 S
O7 C3 1.260 . S
O8 In0 2.275 1_556 S
O8 C5 1.270 . S
O9 In0 2.294 1_656 S
O9 C5 1.247 1_655 S
C10 O1 1.223 1_455 S
C10 O2 1.284 . S
O11 In0 2.338 . S
O11 C4 1.240 . S
O12 In0 2.351 . S
O12 C4 1.252 . S
In13 O14 2.294 . S
In13 O15 2.326 . S
In13 O19 2.266 . S
In13 O20 2.326 1_554 S
In13 O21 2.266 1_554 S
In13 O22 2.326 1_554 S
In13 O24 2.294 . S
In13 O25 2.326 . S
O14 In13 2.294 . S
O14 C23 1.240 . S
O15 In13 2.326 . S
O15 C23 1.252 . S
C16 O19 1.252 1_556 S
C16 O20 1.260 . S
C17 O24 1.240 . S
C17 O25 1.252 . S
C18 O21 1.252 . S
C18 O22 1.260 . S
O19 In13 2.266 . S
O19 C16 1.252 1_554 S
O20 In13 2.326 1_556 S
O20 C16 1.260 . S
O21 In13 2.266 1_556 S
O21 C18 1.252 . S
O22 In13 2.326 1_556 S
O22 C18 1.260 . S
C23 O14 1.240 . S
C23 O15 1.252 . S
O24 In13 2.294 . S
O24 C17 1.240 . S
O25 In13 2.326 . S
O25 C17 1.252 . S
In26 O27 2.354 . S
In26 O28 2.360 1_554 S
In26 O32 2.278 . S
In26 O33 2.282 1_545 S
In26 O34 2.229 1_545 S
In26 O35 2.335 1_545 S
In26 O37 2.260 1_544 S
In26 O38 2.331 1_554 S
O27 In26 2.354 . S
O27 C36 1.240 1_554 S
O28 In26 2.360 1_556 S
O28 C36 1.252 . S
C29 O32 1.288 . S
C29 O33 1.235 1_545 S
C30 O37 1.217 1_545 S
C30 O38 1.297 . S
C31 O34 1.252 . S
C31 O35 1.260 . S
O32 In26 2.278 . S
O32 C29 1.288 . S
O33 In26 2.282 1_565 S
O33 C29 1.235 1_565 S
O34 In26 2.229 1_565 S
O34 C31 1.252 . S
O35 In26 2.335 1_565 S
O35 C31 1.260 . S
C36 O27 1.240 1_556 S
C36 O28 1.252 . S
O37 In26 2.260 1_566 S
O37 C30 1.217 1_565 S
O38 In26 2.331 1_556 S
O38 C30 1.297 . S
In39 O40 2.293 1_554 S
In39 O41 2.326 1_454 S
In39 O45 2.265 . S
In39 O46 2.326 . S
In39 O47 2.267 1_455 S
In39 O48 2.324 . S
In39 O50 2.296 1_455 S
In39 O51 2.328 1_454 S
O40 In39 2.293 1_556 S
O40 C49 1.239 . S
O41 In39 2.326 1_656 S
O41 C49 1.254 1_655 S
C42 O45 1.252 . S
C42 O46 1.260 . S
C43 O50 1.240 1_556 S
C43 O51 1.252 . S
C44 O47 1.231 1_455 S
C44 O48 1.275 . S
O45 In39 2.265 . S
O45 C42 1.252 . S
O46 In39 2.326 . S
O46 C42 1.260 . S
O47 In39 2.267 1_655 S
O47 C44 1.231 1_655 S
O48 In39 2.324 . S
O48 C44 1.275 . S
C49 O40 1.239 . S
C49 O41 1.254 1_455 S
O50 In39 2.296 1_655 S
O50 C43 1.240 1_554 S
O51 In39 2.328 1_656 S
O51 C43 1.252 . S
In52 O53 2.294 1_554 S
In52 O54 2.326 1_554 S
In52 O58 2.266 . S
In52 O59 2.326 . S
In52 O60 2.266 . S
In52 O61 2.326 . S
In52 O63 2.294 . S
In52 O64 2.326 1_554 S
O53 In52 2.294 1_556 S
O53 C62 1.240 . S
O54 In52 2.326 1_556 S
O54 C62 1.252 . S
C55 O58 1.252 . S
C55 O59 1.260 . S
C56 O63 1.240 1_556 S
C56 O64 1.252 . S
C57 O60 1.252 . S
C57 O61 1.260 . S
O58 In52 2.266 . S
O58 C55 1.252 . S
O59 In52 2.326 . S
O59 C55 1.260 . S
O60 In52 2.266 . S
O60 C57 1.252 . S
O61 In52 2.326 . S
O61 C57 1.260 . S
C62 O53 1.240 . S
C62 O54 1.252 . S
O63 In52 2.294 . S
O63 C56 1.240 1_554 S
O64 In52 2.326 1_556 S
O64 C56 1.252 . S
In65 O66 2.293 . S
In65 O67 2.326 1_545 S
In65 O71 2.265 . S
In65 O72 2.326 1_554 S
In65 O73 2.267 1_544 S
In65 O74 2.324 1_554 S
In65 O76 2.296 1_545 S
In65 O77 2.328 1_545 S
O66 In65 2.293 . S
O66 C75 1.239 . S
O67 In65 2.326 1_565 S
O67 C75 1.255 1_565 S
C68 O71 1.252 1_556 S
C68 O72 1.260 . S
C69 O76 1.240 . S
C69 O77 1.252 . S
C70 O73 1.234 1_545 S
C70 O74 1.273 . S
O71 In65 2.265 . S
O71 C68 1.252 1_554 S
O72 In65 2.326 1_556 S
O72 C68 1.260 . S
O73 In65 2.267 1_566 S
O73 C70 1.234 1_565 S
O74 In65 2.324 1_556 S
O74 C70 1.273 . S
C75 O66 1.239 . S
C75 O67 1.255 1_545 S
O76 In65 2.296 1_565 S
O76 C69 1.240 . S
O77 In65 2.328 1_565 S
O77 C69 1.252 . S
In78 O79 2.294 . S
In78 O80 2.326 . S
In78 O84 2.266 . S
In78 O85 2.326 . S
In78 O86 2.266 . S
In78 O87 2.326 . S
In78 O89 2.294 . S
In78 O90 2.326 . S
O79 In78 2.294 . S
O79 C88 1.240 . S
O80 In78 2.326 . S
O80 C88 1.252 . S
C81 O84 1.252 . S
C81 O85 1.260 . S
C82 O89 1.240 . S
C82 O90 1.252 . S
C83 O86 1.252 . S
C83 O87 1.260 . S
O84 In78 2.266 . S
O84 C81 1.252 . S
O85 In78 2.326 . S
O85 C81 1.260 . S
O86 In78 2.266 . S
O86 C83 1.252 . S
O87 In78 2.326 . S
O87 C83 1.260 . S
C88 O79 1.240 . S
C88 O80 1.252 . S
O89 In78 2.294 . S
O89 C82 1.240 . S
O90 In78 2.326 . S
O90 C82 1.252 . S
In91 O92 2.294 . S
In91 O93 2.326 . S
In91 O97 2.266 . S
In91 O98 2.326 . S
In91 O99 2.266 . S
In91 O100 2.326 . S
In91 O102 2.294 1_565 S
In91 O103 2.326 1_565 S
O92 In91 2.294 . S
O92 C101 1.240 . S
O93 In91 2.326 . S
O93 C101 1.252 . S
C94 O97 1.252 . S
C94 O98 1.260 . S
C95 O102 1.240 . S
C95 O103 1.252 . S
C96 O99 1.252 . S
C96 O100 1.260 . S
O97 In91 2.266 . S
O97 C94 1.252 . S
O98 In91 2.326 . S
O98 C94 1.260 . S
O99 In91 2.266 . S
O99 C96 1.252 . S
O100 In91 2.326 . S
O100 C96 1.260 . S
C101 O92 1.240 . S
C101 O93 1.252 . S
O102 In91 2.294 1_545 S
O102 C95 1.240 . S
O103 In91 2.326 1_545 S
O103 C95 1.252 . S
In104 O105 2.294 . S
In104 O106 2.326 . S
In104 O110 2.266 . S
In104 O111 2.326 . S
In104 O112 2.266 1_455 S
In104 O113 2.326 1_455 S
In104 O115 2.294 . S
In104 O116 2.326 . S
O105 In104 2.294 . S
O105 C114 1.240 . S
O106 In104 2.326 . S
O106 C114 1.252 . S
C107 O110 1.252 . S
C107 O111 1.260 . S
C108 O115 1.240 . S
C108 O116 1.252 . S
C109 O112 1.252 . S
C109 O113 1.260 . S
O110 In104 2.266 . S
O110 C107 1.252 . S
O111 In104 2.326 . S
O111 C107 1.260 . S
O112 In104 2.266 1_655 S
O112 C109 1.252 . S
O113 In104 2.326 1_655 S
O113 C109 1.260 . S
C114 O105 1.240 . S
C114 O106 1.252 . S
O115 In104 2.294 . S
O115 C108 1.240 . S
O116 In104 2.326 . S
O116 C108 1.252 . S
In117 O118 2.294 . S
In117 O119 2.326 . S
In117 O123 2.266 1_565 S
In117 O124 2.326 1_565 S
In117 O125 2.266 . S
In117 O126 2.326 . S
In117 O128 2.294 . S
In117 O129 2.326 . S
O118 In117 2.294 . S
O118 C127 1.240 . S
O119 In117 2.326 . S
O119 C127 1.252 . S
C120 O123 1.252 . S
C120 O124 1.260 . S
C121 O128 1.240 . S
C121 O129 1.252 . S
C122 O125 1.252 . S
C122 O126 1.260 . S
O123 In117 2.266 1_545 S
O123 C120 1.252 . S
O124 In117 2.326 1_545 S
O124 C120 1.260 . S
O125 In117 2.266 . S
O125 C122 1.252 . S
O126 In117 2.326 . S
O126 C122 1.260 . S
C127 O118 1.240 . S
C127 O119 1.252 . S
O128 In117 2.294 . S
O128 C121 1.240 . S
O129 In117 2.326 . S
O129 C121 1.252 . S
In130 O131 2.294 . S
In130 O132 2.326 . S
In130 O136 2.266 1_455 S
In130 O137 2.326 1_455 S
In130 O138 2.266 . S
In130 O139 2.326 . S
In130 O141 2.294 . S
In130 O142 2.326 . S
O131 In130 2.294 . S
O131 C140 1.240 . S
O132 In130 2.326 . S
O132 C140 1.252 . S
C133 O136 1.252 . S
C133 O137 1.260 . S
C134 O141 1.240 . S
C134 O142 1.252 . S
C135 O138 1.252 . S
C135 O139 1.260 . S
O136 In130 2.266 1_655 S
O136 C133 1.252 . S
O137 In130 2.326 1_655 S
O137 C133 1.260 . S
O138 In130 2.266 . S
O138 C135 1.252 . S
O139 In130 2.326 . S
O139 C135 1.260 . S
C140 O131 1.240 . S
C140 O132 1.252 . S
O141 In130 2.294 . S
O141 C134 1.240 . S
O142 In130 2.326 . S
O142 C134 1.252 . S
In143 O144 2.294 . S
In143 O145 2.326 . S
In143 O149 2.266 . S
In143 O150 2.326 . S
In143 O151 2.266 . S
In143 O152 2.326 . S
In143 O154 2.294 . S
In143 O155 2.326 . S
O144 In143 2.294 . S
O144 C153 1.240 . S
O145 In143 2.326 . S
O145 C153 1.252 . S
C146 O149 1.252 . S
C146 O150 1.260 . S
C147 O154 1.240 . S
C147 O155 1.252 . S
C148 O151 1.252 . S
C148 O152 1.260 . S
O149 In143 2.266 . S
O149 C146 1.252 . S
O150 In143 2.326 . S
O150 C146 1.260 . S
O151 In143 2.266 . S
O151 C148 1.252 . S
O152 In143 2.326 . S
O152 C148 1.260 . S
C153 O144 1.240 . S
C153 O145 1.252 . S
O154 In143 2.294 . S
O154 C147 1.240 . S
O155 In143 2.326 . S
O155 C147 1.252 . S
In156 O157 2.294 . S
In156 O158 2.326 . S
In156 O162 2.266 . S
In156 O163 2.326 . S
In156 O164 2.266 1_545 S
In156 O165 2.326 1_545 S
In156 O167 2.294 . S
In156 O168 2.326 . S
O157 In156 2.294 . S
O157 C166 1.240 . S
O158 In156 2.326 . S
O158 C166 1.252 . S
C159 O162 1.252 . S
C159 O163 1.260 . S
C160 O167 1.240 . S
C160 O168 1.252 . S
C161 O164 1.252 . S
C161 O165 1.260 . S
O162 In156 2.266 . S
O162 C159 1.252 . S
O163 In156 2.326 . S
O163 C159 1.260 . S
O164 In156 2.266 1_565 S
O164 C161 1.252 . S
O165 In156 2.326 1_565 S
O165 C161 1.260 . S
C166 O157 1.240 . S
C166 O158 1.252 . S
O167 In156 2.294 . S
O167 C160 1.240 . S
O168 In156 2.326 . S
O168 C160 1.252 . S
In169 O170 2.294 . S
In169 O171 2.326 . S
In169 O175 2.266 . S
In169 O176 2.326 . S
In169 O177 2.266 1_655 S
In169 O178 2.326 1_655 S
In169 O180 2.294 . S
In169 O181 2.326 . S
O170 In169 2.294 . S
O170 C179 1.240 . S
O171 In169 2.326 . S
O171 C179 1.252 . S
C172 O175 1.252 . S
C172 O176 1.260 . S
C173 O180 1.240 . S
C173 O181 1.252 . S
C174 O177 1.252 . S
C174 O178 1.260 . S
O175 In169 2.266 . S
O175 C172 1.252 . S
O176 In169 2.326 . S
O176 C172 1.260 . S
O177 In169 2.266 1_455 S
O177 C174 1.252 . S
O178 In169 2.326 1_455 S
O178 C174 1.260 . S
C179 O170 1.240 . S
C179 O171 1.252 . S
O180 In169 2.294 . S
O180 C173 1.240 . S
O181 In169 2.326 . S
O181 C173 1.252 . S
In182 O183 2.294 . S
In182 O184 2.326 . S
In182 O188 2.266 . S
In182 O189 2.326 . S
In182 O190 2.266 . S
In182 O191 2.326 . S
In182 O193 2.294 . S
In182 O194 2.326 . S
O183 In182 2.294 . S
O183 C192 1.240 . S
O184 In182 2.326 . S
O184 C192 1.252 . S
C185 O188 1.252 . S
C185 O189 1.260 . S
C186 O193 1.240 . S
C186 O194 1.252 . S
C187 O190 1.252 . S
C187 O191 1.260 . S
O188 In182 2.266 . S
O188 C185 1.252 . S
O189 In182 2.326 . S
O189 C185 1.260 . S
O190 In182 2.266 . S
O190 C187 1.252 . S
O191 In182 2.326 . S
O191 C187 1.260 . S
C192 O183 1.240 . S
C192 O184 1.252 . S
O193 In182 2.294 . S
O193 C186 1.240 . S
O194 In182 2.326 . S
O194 C186 1.252 . S
In195 O196 2.294 . S
In195 O197 2.326 . S
In195 O201 2.266 . S
In195 O202 2.326 . S
In195 O203 2.266 . S
In195 O204 2.326 . S
In195 O206 2.294 . S
In195 O207 2.326 . S
O196 In195 2.294 . S
O196 C205 1.240 . S
O197 In195 2.326 . S
O197 C205 1.252 . S
C198 O201 1.252 . S
C198 O202 1.260 . S
C199 O206 1.240 . S
C199 O207 1.252 . S
C200 O203 1.252 . S
C200 O204 1.260 . S
O201 In195 2.266 . S
O201 C198 1.252 . S
O202 In195 2.326 . S
O202 C198 1.260 . S
O203 In195 2.266 . S
O203 C200 1.252 . S
O204 In195 2.326 . S
O204 C200 1.260 . S
C205 O196 1.240 . S
C205 O197 1.252 . S
O206 In195 2.294 . S
O206 C199 1.240 . S
O207 In195 2.326 . S
O207 C199 1.252 . S
In208 O209 2.294 . S
In208 O210 2.326 . S
In208 O214 2.266 . S
In208 O215 2.326 . S
In208 O216 2.266 . S
In208 O217 2.326 . S
In208 O219 2.294 1_545 S
In208 O220 2.326 1_545 S
O209 In208 2.294 . S
O209 C218 1.240 . S
O210 In208 2.326 . S
O210 C218 1.252 . S
C211 O214 1.252 . S
C211 O215 1.260 . S
C212 O219 1.240 . S
C212 O220 1.252 . S
C213 O216 1.252 . S
C213 O217 1.260 . S
O214 In208 2.266 . S
O214 C211 1.252 . S
O215 In208 2.326 . S
O215 C211 1.260 . S
O216 In208 2.266 . S
O216 C213 1.252 . S
O217 In208 2.326 . S
O217 C213 1.260 . S
C218 O209 1.240 . S
C218 O210 1.252 . S
O219 In208 2.294 1_565 S
O219 C212 1.240 . S
O220 In208 2.326 1_565 S
O220 C212 1.252 . S
In221 O222 2.294 . S
In221 O223 2.326 . S
In221 O227 2.266 . S
In221 O228 2.326 . S
In221 O229 2.266 1_655 S
In221 O230 2.326 1_655 S
In221 O232 2.294 . S
In221 O233 2.326 . S
O222 In221 2.294 . S
O222 C231 1.240 . S
O223 In221 2.326 . S
O223 C231 1.252 . S
C224 O227 1.252 . S
C224 O228 1.260 . S
C225 O232 1.240 . S
C225 O233 1.252 . S
C226 O229 1.252 . S
C226 O230 1.260 . S
O227 In221 2.266 . S
O227 C224 1.252 . S
O228 In221 2.326 . S
O228 C224 1.260 . S
O229 In221 2.266 1_455 S
O229 C226 1.252 . S
O230 In221 2.326 1_455 S
O230 C226 1.260 . S
C231 O222 1.240 . S
C231 O223 1.252 . S
O232 In221 2.294 . S
O232 C225 1.240 . S
O233 In221 2.326 . S
O233 C225 1.252 . S
H234 C253 0.949 . S
H235 C254 0.950 . S
H236 C256 0.950 . S
H237 C257 0.950 . S
H238 C259 0.950 . S
H239 C262 0.950 . S
H240 C263 0.950 . S
H241 C265 0.951 . S
H242 C266 0.949 . S
H243 C268 0.949 . S
H244 C269 0.950 . S
H245 C271 0.950 . S
H246 C272 0.950 . S
H247 C274 0.950 . S
H248 C277 0.950 . S
H249 C278 0.950 . S
H250 C280 0.951 . S
H251 C281 0.949 . S
C252 C253 1.376 . S
C252 C257 1.386 . S
C252 C258 1.483 . S
C253 H234 0.949 . S
C253 C252 1.376 . S
C253 C254 1.397 . S
C254 H235 0.950 . S
C254 C253 1.397 . S
C254 C255 1.391 . S
C255 C254 1.391 . S
C255 C256 1.405 . S
C256 H236 0.950 . S
C256 C255 1.405 . S
C256 C257 1.367 . S
C257 H237 0.950 . S
C257 C252 1.386 . S
C257 C256 1.367 . S
C258 C252 1.483 . S
C258 C259 1.382 . S
C258 C260 1.403 . S
C259 H238 0.950 . S
C259 C258 1.382 . S
C259 C275 1.411 . S
C260 C258 1.403 . S
C260 C261 1.489 . S
C260 C274 1.411 . S
C261 C260 1.489 . S
C261 C262 1.383 . S
C261 C266 1.382 . S
C262 H239 0.950 . S
C262 C261 1.383 . S
C262 C263 1.395 . S
C263 H240 0.950 . S
C263 C262 1.395 . S
C263 C264 1.288 . S
C264 C263 1.288 . S
C264 C265 1.392 . S
C265 H241 0.951 . S
C265 C264 1.392 . S
C265 C266 1.392 . S
C266 H242 0.949 . S
C266 C261 1.382 . S
C266 C265 1.392 . S
C267 C268 1.376 . S
C267 C272 1.386 . S
C267 C273 1.483 . S
C268 H243 0.949 . S
C268 C267 1.376 . S
C268 C269 1.397 . S
C269 H244 0.950 . S
C269 C268 1.397 . S
C269 C270 1.391 . S
C270 C269 1.391 . S
C270 C271 1.405 . S
C271 H245 0.950 . S
C271 C270 1.405 . S
C271 C272 1.367 . S
C272 H246 0.950 . S
C272 C267 1.386 . S
C272 C271 1.367 . S
C273 C267 1.483 . S
C273 C274 1.382 . S
C273 C275 1.403 . S
C274 H247 0.950 . S
C274 C260 1.411 . S
C274 C273 1.382 . S
C275 C259 1.411 . S
C275 C273 1.403 . S
C275 C276 1.489 . S
C276 C275 1.489 . S
C276 C277 1.383 . S
C276 C281 1.382 . S
C277 H248 0.950 . S
C277 C276 1.383 . S
C277 C278 1.395 . S
C278 H249 0.950 . S
C278 C277 1.395 . S
C278 C279 1.288 . S
C279 C278 1.288 . S
C279 C280 1.392 . S
C280 H250 0.951 . S
C280 C279 1.392 . S
C280 C281 1.392 . S
C281 H251 0.949 . S
C281 C276 1.382 . S
C281 C280 1.392 . S
H282 C301 0.949 . S
H283 C302 0.950 . S
H284 C304 0.950 . S
H285 C305 0.950 . S
H286 C307 0.950 . S
H287 C310 0.950 . S
H288 C311 0.950 . S
H289 C313 0.951 . S
H290 C314 0.949 . S
H291 C316 0.949 . S
H292 C317 0.950 . S
H293 C319 0.950 . S
H294 C320 0.950 . S
H295 C322 0.950 . S
H296 C325 0.950 . S
H297 C326 0.950 . S
H298 C328 0.951 . S
H299 C329 0.949 . S
C300 C301 1.376 . S
C300 C305 1.386 . S
C300 C306 1.483 . S
C301 H282 0.949 . S
C301 C300 1.376 . S
C301 C302 1.397 . S
C302 H283 0.950 . S
C302 C301 1.397 . S
C302 C303 1.391 . S
C303 C302 1.391 . S
C303 C304 1.405 . S
C304 H284 0.950 . S
C304 C303 1.405 . S
C304 C305 1.367 . S
C305 H285 0.950 . S
C305 C300 1.386 . S
C305 C304 1.367 . S
C306 C300 1.483 . S
C306 C307 1.382 . S
C306 C308 1.403 . S
C307 H286 0.950 . S
C307 C306 1.382 . S
C307 C323 1.411 . S
C308 C306 1.403 . S
C308 C309 1.489 . S
C308 C322 1.411 . S
C309 C308 1.489 . S
C309 C310 1.383 . S
C309 C314 1.382 . S
C310 H287 0.950 . S
C310 C309 1.383 . S
C310 C311 1.395 . S
C311 H288 0.950 . S
C311 C310 1.395 . S
C311 C312 1.288 . S
C312 C311 1.288 . S
C312 C313 1.392 . S
C313 H289 0.951 . S
C313 C312 1.392 . S
C313 C314 1.392 . S
C314 H290 0.949 . S
C314 C309 1.382 . S
C314 C313 1.392 . S
C315 C316 1.376 . S
C315 C320 1.386 . S
C315 C321 1.483 . S
C316 H291 0.949 . S
C316 C315 1.376 . S
C316 C317 1.397 . S
C317 H292 0.950 . S
C317 C316 1.397 . S
C317 C318 1.391 . S
C318 C317 1.391 . S
C318 C319 1.405 . S
C319 H293 0.950 . S
C319 C318 1.405 . S
C319 C320 1.367 . S
C320 H294 0.950 . S
C320 C315 1.386 . S
C320 C319 1.367 . S
C321 C315 1.483 . S
C321 C322 1.382 . S
C321 C323 1.403 . S
C322 H295 0.950 . S
C322 C308 1.411 . S
C322 C321 1.382 . S
C323 C307 1.411 . S
C323 C321 1.403 . S
C323 C324 1.489 . S
C324 C323 1.489 . S
C324 C325 1.383 . S
C324 C329 1.382 . S
C325 H296 0.950 . S
C325 C324 1.383 . S
C325 C326 1.395 . S
C326 H297 0.950 . S
C326 C325 1.395 . S
C326 C327 1.288 . S
C327 C326 1.288 . S
C327 C328 1.392 . S
C328 H298 0.951 . S
C328 C327 1.392 . S
C328 C329 1.392 . S
C329 H299 0.949 . S
C329 C324 1.382 . S
C329 C328 1.392 . S
H330 C349 0.949 . S
H331 C350 0.950 . S
H332 C352 0.950 . S
H333 C353 0.950 . S
H334 C355 0.950 . S
H335 C358 0.950 . S
H336 C359 0.950 . S
H337 C361 0.951 . S
H338 C362 0.949 . S
H339 C364 0.949 . S
H340 C365 0.950 . S
H341 C367 0.950 . S
H342 C368 0.950 . S
H343 C370 0.950 . S
H344 C373 0.950 . S
H345 C374 0.950 . S
H346 C376 0.951 . S
H347 C377 0.949 . S
C348 C349 1.376 . S
C348 C353 1.386 . S
C348 C354 1.483 . S
C349 H330 0.949 . S
C349 C348 1.376 . S
C349 C350 1.397 . S
C350 H331 0.950 . S
C350 C349 1.397 . S
C350 C351 1.391 . S
C351 C350 1.391 . S
C351 C352 1.405 . S
C352 H332 0.950 . S
C352 C351 1.405 . S
C352 C353 1.367 . S
C353 H333 0.950 . S
C353 C348 1.386 . S
C353 C352 1.367 . S
C354 C348 1.483 . S
C354 C355 1.382 . S
C354 C356 1.403 . S
C355 H334 0.950 . S
C355 C354 1.382 . S
C355 C371 1.411 . S
C356 C354 1.403 . S
C356 C357 1.489 . S
C356 C370 1.411 . S
C357 C356 1.489 . S
C357 C358 1.383 . S
C357 C362 1.382 . S
C358 H335 0.950 . S
C358 C357 1.383 . S
C358 C359 1.395 . S
C359 H336 0.950 . S
C359 C358 1.395 . S
C359 C360 1.288 . S
C360 C359 1.288 . S
C360 C361 1.392 . S
C361 H337 0.951 . S
C361 C360 1.392 . S
C361 C362 1.392 . S
C362 H338 0.949 . S
C362 C357 1.382 . S
C362 C361 1.392 . S
C363 C364 1.376 . S
C363 C368 1.386 . S
C363 C369 1.483 . S
C364 H339 0.949 . S
C364 C363 1.376 . S
C364 C365 1.397 . S
C365 H340 0.950 . S
C365 C364 1.397 . S
C365 C366 1.391 . S
C366 C365 1.391 . S
C366 C367 1.405 . S
C367 H341 0.950 . S
C367 C366 1.405 . S
C367 C368 1.367 . S
C368 H342 0.950 . S
C368 C363 1.386 . S
C368 C367 1.367 . S
C369 C363 1.483 . S
C369 C370 1.382 . S
C369 C371 1.403 . S
C370 H343 0.950 . S
C370 C356 1.411 . S
C370 C369 1.382 . S
C371 C355 1.411 . S
C371 C369 1.403 . S
C371 C372 1.489 . S
C372 C371 1.489 . S
C372 C373 1.383 . S
C372 C377 1.382 . S
C373 H344 0.950 . S
C373 C372 1.383 . S
C373 C374 1.395 . S
C374 H345 0.950 . S
C374 C373 1.395 . S
C374 C375 1.288 . S
C375 C374 1.288 . S
C375 C376 1.392 . S
C376 H346 0.951 . S
C376 C375 1.392 . S
C376 C377 1.392 . S
C377 H347 0.949 . S
C377 C372 1.382 . S
C377 C376 1.392 . S
H378 C397 0.949 . S
H379 C398 0.950 . S
H380 C400 0.950 . S
H381 C401 0.950 . S
H382 C403 0.950 . S
H383 C406 0.950 . S
H384 C407 0.950 . S
H385 C409 0.951 . S
H386 C410 0.949 . S
H387 C412 0.949 . S
H388 C413 0.950 . S
H389 C415 0.950 . S
H390 C416 0.950 . S
H391 C418 0.950 . S
H392 C421 0.950 . S
H393 C422 0.950 . S
H394 C424 0.951 . S
H395 C425 0.949 . S
C396 C397 1.376 . S
C396 C401 1.386 . S
C396 C402 1.483 . S
C397 H378 0.949 . S
C397 C396 1.376 . S
C397 C398 1.397 . S
C398 H379 0.950 . S
C398 C397 1.397 . S
C398 C399 1.391 . S
C399 C398 1.391 . S
C399 C400 1.405 . S
C400 H380 0.950 . S
C400 C399 1.405 . S
C400 C401 1.367 . S
C401 H381 0.950 . S
C401 C396 1.386 . S
C401 C400 1.367 . S
C402 C396 1.483 . S
C402 C403 1.382 . S
C402 C404 1.403 . S
C403 H382 0.950 . S
C403 C402 1.382 . S
C403 C419 1.411 . S
C404 C402 1.403 . S
C404 C405 1.489 . S
C404 C418 1.411 . S
C405 C404 1.489 . S
C405 C406 1.383 . S
C405 C410 1.382 . S
C406 H383 0.950 . S
C406 C405 1.383 . S
C406 C407 1.395 . S
C407 H384 0.950 . S
C407 C406 1.395 . S
C407 C408 1.288 . S
C408 C407 1.288 . S
C408 C409 1.392 . S
C409 H385 0.951 . S
C409 C408 1.392 . S
C409 C410 1.392 . S
C410 H386 0.949 . S
C410 C405 1.382 . S
C410 C409 1.392 . S
C411 C412 1.376 . S
C411 C416 1.386 . S
C411 C417 1.483 . S
C412 H387 0.949 . S
C412 C411 1.376 . S
C412 C413 1.397 . S
C413 H388 0.950 . S
C413 C412 1.397 . S
C413 C414 1.391 . S
C414 C413 1.391 . S
C414 C415 1.405 . S
C415 H389 0.950 . S
C415 C414 1.405 . S
C415 C416 1.367 . S
C416 H390 0.950 . S
C416 C411 1.386 . S
C416 C415 1.367 . S
C417 C411 1.483 . S
C417 C418 1.382 . S
C417 C419 1.403 . S
C418 H391 0.950 . S
C418 C404 1.411 . S
C418 C417 1.382 . S
C419 C403 1.411 . S
C419 C417 1.403 . S
C419 C420 1.489 . S
C420 C419 1.489 . S
C420 C421 1.383 . S
C420 C425 1.382 . S
C421 H392 0.950 . S
C421 C420 1.383 . S
C421 C422 1.395 . S
C422 H393 0.950 . S
C422 C421 1.395 . S
C422 C423 1.288 . S
C423 C422 1.288 . S
C423 C424 1.392 . S
C424 H394 0.951 . S
C424 C423 1.392 . S
C424 C425 1.392 . S
C425 H395 0.949 . S
C425 C420 1.382 . S
C425 C424 1.392 . S
H426 C445 0.949 . S
H427 C446 0.950 . S
H428 C448 0.950 . S
H429 C449 0.950 . S
H430 C451 0.950 . S
H431 C454 0.950 . S
H432 C455 0.950 . S
H433 C457 0.951 . S
H434 C458 0.949 . S
H435 C460 0.949 . S
H436 C461 0.950 . S
H437 C463 0.950 . S
H438 C464 0.950 . S
H439 C466 0.950 . S
H440 C469 0.950 . S
H441 C470 0.950 . S
H442 C472 0.951 . S
H443 C473 0.949 . S
C444 C445 1.376 . S
C444 C449 1.386 . S
C444 C450 1.483 . S
C445 H426 0.949 . S
C445 C444 1.376 . S
C445 C446 1.397 . S
C446 H427 0.950 . S
C446 C445 1.397 . S
C446 C447 1.391 . S
C447 C446 1.391 . S
C447 C448 1.405 . S
C448 H428 0.950 . S
C448 C447 1.405 . S
C448 C449 1.367 . S
C449 H429 0.950 . S
C449 C444 1.386 . S
C449 C448 1.367 . S
C450 C444 1.483 . S
C450 C451 1.382 . S
C450 C452 1.403 . S
C451 H430 0.950 . S
C451 C450 1.382 . S
C451 C467 1.411 . S
C452 C450 1.403 . S
C452 C453 1.489 . S
C452 C466 1.411 . S
C453 C452 1.489 . S
C453 C454 1.383 . S
C453 C458 1.382 . S
C454 H431 0.950 . S
C454 C453 1.383 . S
C454 C455 1.395 . S
C455 H432 0.950 . S
C455 C454 1.395 . S
C455 C456 1.288 . S
C456 C455 1.288 . S
C456 C457 1.392 . S
C457 H433 0.951 . S
C457 C456 1.392 . S
C457 C458 1.392 . S
C458 H434 0.949 . S
C458 C453 1.382 . S
C458 C457 1.392 . S
C459 C460 1.376 . S
C459 C464 1.386 . S
C459 C465 1.483 . S
C460 H435 0.949 . S
C460 C459 1.376 . S
C460 C461 1.397 . S
C461 H436 0.950 . S
C461 C460 1.397 . S
C461 C462 1.391 . S
C462 C461 1.391 . S
C462 C463 1.405 . S
C463 H437 0.950 . S
C463 C462 1.405 . S
C463 C464 1.367 . S
C464 H438 0.950 . S
C464 C459 1.386 . S
C464 C463 1.367 . S
C465 C459 1.483 . S
C465 C466 1.382 . S
C465 C467 1.403 . S
C466 H439 0.950 . S
C466 C452 1.411 . S
C466 C465 1.382 . S
C467 C451 1.411 . S
C467 C465 1.403 . S
C467 C468 1.489 . S
C468 C467 1.489 . S
C468 C469 1.383 . S
C468 C473 1.382 . S
C469 H440 0.950 . S
C469 C468 1.383 . S
C469 C470 1.395 . S
C470 H441 0.950 . S
C470 C469 1.395 . S
C470 C471 1.288 . S
C471 C470 1.288 . S
C471 C472 1.392 . S
C472 H442 0.951 . S
C472 C471 1.392 . S
C472 C473 1.392 . S
C473 H443 0.949 . S
C473 C468 1.382 . S
C473 C472 1.392 . S
H474 C493 0.949 . S
H475 C494 0.950 . S
H476 C496 0.950 . S
H477 C497 0.950 . S
H478 C499 0.950 . S
H479 C502 0.950 . S
H480 C503 0.950 . S
H481 C505 0.951 . S
H482 C506 0.949 . S
H483 C508 0.949 . S
H484 C509 0.950 . S
H485 C511 0.950 . S
H486 C512 0.950 . S
H487 C514 0.950 . S
H488 C517 0.950 . S
H489 C518 0.950 . S
H490 C520 0.951 . S
H491 C521 0.949 . S
C492 C493 1.376 . S
C492 C497 1.386 . S
C492 C498 1.483 . S
C493 H474 0.949 . S
C493 C492 1.376 . S
C493 C494 1.397 . S
C494 H475 0.950 . S
C494 C493 1.397 . S
C494 C495 1.391 . S
C495 C494 1.391 . S
C495 C496 1.405 . S
C496 H476 0.950 . S
C496 C495 1.405 . S
C496 C497 1.367 . S
C497 H477 0.950 . S
C497 C492 1.386 . S
C497 C496 1.367 . S
C498 C492 1.483 . S
C498 C499 1.382 . S
C498 C500 1.403 . S
C499 H478 0.950 . S
C499 C498 1.382 . S
C499 C515 1.411 . S
C500 C498 1.403 . S
C500 C501 1.489 . S
C500 C514 1.411 . S
C501 C500 1.489 . S
C501 C502 1.383 . S
C501 C506 1.382 . S
C502 H479 0.950 . S
C502 C501 1.383 . S
C502 C503 1.395 . S
C503 H480 0.950 . S
C503 C502 1.395 . S
C503 C504 1.288 . S
C504 C503 1.288 . S
C504 C505 1.392 . S
C505 H481 0.951 . S
C505 C504 1.392 . S
C505 C506 1.392 . S
C506 H482 0.949 . S
C506 C501 1.382 . S
C506 C505 1.392 . S
C507 C508 1.376 . S
C507 C512 1.386 . S
C507 C513 1.483 . S
C508 H483 0.949 . S
C508 C507 1.376 . S
C508 C509 1.397 . S
C509 H484 0.950 . S
C509 C508 1.397 . S
C509 C510 1.391 . S
C510 C509 1.391 . S
C510 C511 1.405 . S
C511 H485 0.950 . S
C511 C510 1.405 . S
C511 C512 1.367 . S
C512 H486 0.950 . S
C512 C507 1.386 . S
C512 C511 1.367 . S
C513 C507 1.483 . S
C513 C514 1.382 . S
C513 C515 1.403 . S
C514 H487 0.950 . S
C514 C500 1.411 . S
C514 C513 1.382 . S
C515 C499 1.411 . S
C515 C513 1.403 . S
C515 C516 1.489 . S
C516 C515 1.489 . S
C516 C517 1.383 . S
C516 C521 1.382 . S
C517 H488 0.950 . S
C517 C516 1.383 . S
C517 C518 1.395 . S
C518 H489 0.950 . S
C518 C517 1.395 . S
C518 C519 1.288 . S
C519 C518 1.288 . S
C519 C520 1.392 . S
C520 H490 0.951 . S
C520 C519 1.392 . S
C520 C521 1.392 . S
C521 H491 0.949 . S
C521 C516 1.382 . S
C521 C520 1.392 . S
H522 C541 0.949 . S
H523 C542 0.950 . S
H524 C544 0.950 . S
H525 C545 0.950 . S
H526 C547 0.950 . S
H527 C550 0.950 . S
H528 C551 0.950 . S
H529 C553 0.951 . S
H530 C554 0.949 . S
H531 C556 0.949 . S
H532 C557 0.950 . S
H533 C559 0.950 . S
H534 C560 0.950 . S
H535 C562 0.950 . S
H536 C565 0.950 . S
H537 C566 0.950 . S
H538 C568 0.951 . S
H539 C569 0.949 . S
C540 C541 1.376 . S
C540 C545 1.386 . S
C540 C546 1.483 . S
C541 H522 0.949 . S
C541 C540 1.376 . S
C541 C542 1.397 . S
C542 H523 0.950 . S
C542 C541 1.397 . S
C542 C543 1.391 . S
C543 C542 1.391 . S
C543 C544 1.405 . S
C544 H524 0.950 . S
C544 C543 1.405 . S
C544 C545 1.367 . S
C545 H525 0.950 . S
C545 C540 1.386 . S
C545 C544 1.367 . S
C546 C540 1.483 . S
C546 C547 1.382 . S
C546 C548 1.403 . S
C547 H526 0.950 . S
C547 C546 1.382 . S
C547 C563 1.411 . S
C548 C546 1.403 . S
C548 C549 1.489 . S
C548 C562 1.411 . S
C549 C548 1.489 . S
C549 C550 1.383 . S
C549 C554 1.382 . S
C550 H527 0.950 . S
C550 C549 1.383 . S
C550 C551 1.395 . S
C551 H528 0.950 . S
C551 C550 1.395 . S
C551 C552 1.288 . S
C552 C551 1.288 . S
C552 C553 1.392 . S
C553 H529 0.951 . S
C553 C552 1.392 . S
C553 C554 1.392 . S
C554 H530 0.949 . S
C554 C549 1.382 . S
C554 C553 1.392 . S
C555 C556 1.376 . S
C555 C560 1.386 . S
C555 C561 1.483 . S
C556 H531 0.949 . S
C556 C555 1.376 . S
C556 C557 1.397 . S
C557 H532 0.950 . S
C557 C556 1.397 . S
C557 C558 1.391 . S
C558 C557 1.391 . S
C558 C559 1.405 . S
C559 H533 0.950 . S
C559 C558 1.405 . S
C559 C560 1.367 . S
C560 H534 0.950 . S
C560 C555 1.386 . S
C560 C559 1.367 . S
C561 C555 1.483 . S
C561 C562 1.382 . S
C561 C563 1.403 . S
C562 H535 0.950 . S
C562 C548 1.411 . S
C562 C561 1.382 . S
C563 C547 1.411 . S
C563 C561 1.403 . S
C563 C564 1.489 . S
C564 C563 1.489 . S
C564 C565 1.383 . S
C564 C569 1.382 . S
C565 H536 0.950 . S
C565 C564 1.383 . S
C565 C566 1.395 . S
C566 H537 0.950 . S
C566 C565 1.395 . S
C566 C567 1.288 . S
C567 C566 1.288 . S
C567 C568 1.392 . S
C568 H538 0.951 . S
C568 C567 1.392 . S
C568 C569 1.392 . S
C569 H539 0.949 . S
C569 C564 1.382 . S
C569 C568 1.392 . S
H570 C589 0.949 . S
H571 C590 0.950 . S
H572 C592 0.950 . S
H573 C593 0.950 . S
H574 C595 0.950 . S
H575 C598 0.950 . S
H576 C599 0.950 . S
H577 C601 0.951 . S
H578 C602 0.949 . S
H579 C604 0.949 . S
H580 C605 0.950 . S
H581 C607 0.950 . S
H582 C608 0.950 . S
H583 C610 0.950 . S
H584 C613 0.950 . S
H585 C614 0.950 . S
H586 C616 0.951 . S
H587 C617 0.949 . S
C588 C589 1.376 . S
C588 C593 1.386 . S
C588 C594 1.483 . S
C589 H570 0.949 . S
C589 C588 1.376 . S
C589 C590 1.397 . S
C590 H571 0.950 . S
C590 C589 1.397 . S
C590 C591 1.391 . S
C591 C590 1.391 . S
C591 C592 1.405 . S
C592 H572 0.950 . S
C592 C591 1.405 . S
C592 C593 1.367 . S
C593 H573 0.950 . S
C593 C588 1.386 . S
C593 C592 1.367 . S
C594 C588 1.483 . S
C594 C595 1.382 . S
C594 C596 1.403 . S
C595 H574 0.950 . S
C595 C594 1.382 . S
C595 C611 1.411 . S
C596 C594 1.403 . S
C596 C597 1.489 . S
C596 C610 1.411 . S
C597 C596 1.489 . S
C597 C598 1.383 . S
C597 C602 1.382 . S
C598 H575 0.950 . S
C598 C597 1.383 . S
C598 C599 1.395 . S
C599 H576 0.950 . S
C599 C598 1.395 . S
C599 C600 1.288 . S
C600 C599 1.288 . S
C600 C601 1.392 . S
C601 H577 0.951 . S
C601 C600 1.392 . S
C601 C602 1.392 . S
C602 H578 0.949 . S
C602 C597 1.382 . S
C602 C601 1.392 . S
C603 C604 1.376 . S
C603 C608 1.386 . S
C603 C609 1.483 . S
C604 H579 0.949 . S
C604 C603 1.376 . S
C604 C605 1.397 . S
C605 H580 0.950 . S
C605 C604 1.397 . S
C605 C606 1.391 . S
C606 C605 1.391 . S
C606 C607 1.405 . S
C607 H581 0.950 . S
C607 C606 1.405 . S
C607 C608 1.367 . S
C608 H582 0.950 . S
C608 C603 1.386 . S
C608 C607 1.367 . S
C609 C603 1.483 . S
C609 C610 1.382 . S
C609 C611 1.403 . S
C610 H583 0.950 . S
C610 C596 1.411 . S
C610 C609 1.382 . S
C611 C595 1.411 . S
C611 C609 1.403 . S
C611 C612 1.489 . S
C612 C611 1.489 . S
C612 C613 1.383 . S
C612 C617 1.382 . S
C613 H584 0.950 . S
C613 C612 1.383 . S
C613 C614 1.395 . S
C614 H585 0.950 . S
C614 C613 1.395 . S
C614 C615 1.288 . S
C615 C614 1.288 . S
C615 C616 1.392 . S
C616 H586 0.951 . S
C616 C615 1.392 . S
C616 C617 1.392 . S
C617 H587 0.949 . S
C617 C612 1.382 . S
C617 C616 1.392 . S
H618 C637 0.949 . S
H619 C638 0.950 . S
H620 C640 0.950 . S
H621 C641 0.950 . S
H622 C643 0.950 . S
H623 C646 0.950 . S
H624 C647 0.950 . S
H625 C649 0.951 . S
H626 C650 0.949 . S
H627 C652 0.949 . S
H628 C653 0.950 . S
H629 C655 0.950 . S
H630 C656 0.950 . S
H631 C658 0.950 . S
H632 C661 0.950 . S
H633 C662 0.950 . S
H634 C664 0.951 . S
H635 C665 0.949 . S
C636 C637 1.376 . S
C636 C641 1.386 . S
C636 C642 1.483 . S
C637 H618 0.949 . S
C637 C636 1.376 . S
C637 C638 1.397 . S
C638 H619 0.950 . S
C638 C637 1.397 . S
C638 C639 1.391 . S
C639 C638 1.391 . S
C639 C640 1.405 . S
C640 H620 0.950 . S
C640 C639 1.405 . S
C640 C641 1.367 . S
C641 H621 0.950 . S
C641 C636 1.386 . S
C641 C640 1.367 . S
C642 C636 1.483 . S
C642 C643 1.382 . S
C642 C644 1.403 . S
C643 H622 0.950 . S
C643 C642 1.382 . S
C643 C659 1.411 . S
C644 C642 1.403 . S
C644 C645 1.489 . S
C644 C658 1.411 . S
C645 C644 1.489 . S
C645 C646 1.383 . S
C645 C650 1.382 . S
C646 H623 0.950 . S
C646 C645 1.383 . S
C646 C647 1.395 . S
C647 H624 0.950 . S
C647 C646 1.395 . S
C647 C648 1.288 . S
C648 C647 1.288 . S
C648 C649 1.392 . S
C649 H625 0.951 . S
C649 C648 1.392 . S
C649 C650 1.392 . S
C650 H626 0.949 . S
C650 C645 1.382 . S
C650 C649 1.392 . S
C651 C652 1.376 . S
C651 C656 1.386 . S
C651 C657 1.483 . S
C652 H627 0.949 . S
C652 C651 1.376 . S
C652 C653 1.397 . S
C653 H628 0.950 . S
C653 C652 1.397 . S
C653 C654 1.391 . S
C654 C653 1.391 . S
C654 C655 1.405 . S
C655 H629 0.950 . S
C655 C654 1.405 . S
C655 C656 1.367 . S
C656 H630 0.950 . S
C656 C651 1.386 . S
C656 C655 1.367 . S
C657 C651 1.483 . S
C657 C658 1.382 . S
C657 C659 1.403 . S
C658 H631 0.950 . S
C658 C644 1.411 . S
C658 C657 1.382 . S
C659 C643 1.411 . S
C659 C657 1.403 . S
C659 C660 1.489 . S
C660 C659 1.489 . S
C660 C661 1.383 . S
C660 C665 1.382 . S
C661 H632 0.950 . S
C661 C660 1.383 . S
C661 C662 1.395 . S
C662 H633 0.950 . S
C662 C661 1.395 . S
C662 C663 1.288 . S
C663 C662 1.288 . S
C663 C664 1.392 . S
C664 H634 0.951 . S
C664 C663 1.392 . S
C664 C665 1.392 . S
C665 H635 0.949 . S
C665 C660 1.382 . S
C665 C664 1.392 . S
H666 C685 0.949 . S
H667 C686 0.950 . S
H668 C688 0.950 . S
H669 C689 0.950 . S
H670 C691 0.950 . S
H671 C694 0.950 . S
H672 C695 0.950 . S
H673 C697 0.951 . S
H674 C698 0.949 . S
H675 C700 0.949 . S
H676 C701 0.950 . S
H677 C703 0.950 . S
H678 C704 0.950 . S
H679 C706 0.950 . S
H680 C709 0.950 . S
H681 C710 0.950 . S
H682 C712 0.951 . S
H683 C713 0.949 . S
C684 C685 1.376 . S
C684 C689 1.386 1_655 S
C684 C690 1.483 . S
C685 H666 0.949 . S
C685 C684 1.376 . S
C685 C686 1.397 . S
C686 H667 0.950 . S
C686 C685 1.397 . S
C686 C687 1.391 . S
C687 C686 1.391 . S
C687 C688 1.405 1_655 S
C688 H668 0.950 . S
C688 C687 1.405 1_455 S
C688 C689 1.367 . S
C689 H669 0.950 . S
C689 C684 1.386 1_455 S
C689 C688 1.367 . S
C690 C684 1.483 . S
C690 C691 1.382 . S
C690 C692 1.403 1_655 S
C691 H670 0.950 . S
C691 C690 1.382 . S
C691 C707 1.411 . S
C692 C690 1.403 1_455 S
C692 C693 1.489 . S
C692 C706 1.411 . S
C693 C692 1.489 . S
C693 C694 1.383 1_455 S
C693 C698 1.382 . S
C694 H671 0.950 . S
C694 C693 1.383 1_655 S
C694 C695 1.395 . S
C695 H672 0.950 . S
C695 C694 1.395 . S
C695 C696 1.288 1_655 S
C696 C695 1.288 1_455 S
C696 C697 1.392 . S
C697 H673 0.951 . S
C697 C696 1.392 . S
C697 C698 1.392 . S
C698 H674 0.949 . S
C698 C693 1.382 . S
C698 C697 1.392 . S
C699 C700 1.376 . S
C699 C704 1.386 1_455 S
C699 C705 1.483 . S
C700 H675 0.949 . S
C700 C699 1.376 . S
C700 C701 1.397 . S
C701 H676 0.950 . S
C701 C700 1.397 . S
C701 C702 1.391 . S
C702 C701 1.391 . S
C702 C703 1.405 1_455 S
C703 H677 0.950 . S
C703 C702 1.405 1_655 S
C703 C704 1.367 . S
C704 H678 0.950 . S
C704 C699 1.386 1_655 S
C704 C703 1.367 . S
C705 C699 1.483 . S
C705 C706 1.382 . S
C705 C707 1.403 1_455 S
C706 H679 0.950 . S
C706 C692 1.411 . S
C706 C705 1.382 . S
C707 C691 1.411 . S
C707 C705 1.403 1_655 S
C707 C708 1.489 . S
C708 C707 1.489 . S
C708 C709 1.383 1_655 S
C708 C713 1.382 . S
C709 H680 0.950 . S
C709 C708 1.383 1_455 S
C709 C710 1.395 . S
C710 H681 0.950 . S
C710 C709 1.395 . S
C710 C711 1.288 1_455 S
C711 C710 1.288 1_655 S
C711 C712 1.392 . S
C712 H682 0.951 . S
C712 C711 1.392 . S
C712 C713 1.392 . S
C713 H683 0.949 . S
C713 C708 1.382 . S
C713 C712 1.392 . S
H714 C733 0.949 . S
H715 C734 0.950 . S
H716 C736 0.950 . S
H717 C737 0.950 . S
H718 C739 0.950 . S
H719 C742 0.950 . S
H720 C743 0.950 . S
H721 C745 0.951 . S
H722 C746 0.949 . S
H723 C748 0.949 . S
H724 C749 0.950 . S
H725 C751 0.950 . S
H726 C752 0.950 . S
H727 C754 0.950 . S
H728 C757 0.950 . S
H729 C758 0.950 . S
H730 C760 0.951 . S
H731 C761 0.949 . S
C732 C733 1.376 . S
C732 C737 1.386 . S
C732 C738 1.483 . S
C733 H714 0.949 . S
C733 C732 1.376 . S
C733 C734 1.397 . S
C734 H715 0.950 . S
C734 C733 1.397 . S
C734 C735 1.391 . S
C735 C734 1.391 . S
C735 C736 1.405 . S
C736 H716 0.950 . S
C736 C735 1.405 . S
C736 C737 1.367 . S
C737 H717 0.950 . S
C737 C732 1.386 . S
C737 C736 1.367 . S
C738 C732 1.483 . S
C738 C739 1.382 . S
C738 C740 1.403 . S
C739 H718 0.950 . S
C739 C738 1.382 . S
C739 C755 1.411 . S
C740 C738 1.403 . S
C740 C741 1.489 . S
C740 C754 1.411 . S
C741 C740 1.489 . S
C741 C742 1.383 . S
C741 C746 1.382 . S
C742 H719 0.950 . S
C742 C741 1.383 . S
C742 C743 1.395 . S
C743 H720 0.950 . S
C743 C742 1.395 . S
C743 C744 1.288 . S
C744 C743 1.288 . S
C744 C745 1.392 . S
C745 H721 0.951 . S
C745 C744 1.392 . S
C745 C746 1.392 . S
C746 H722 0.949 . S
C746 C741 1.382 . S
C746 C745 1.392 . S
C747 C748 1.376 . S
C747 C752 1.386 . S
C747 C753 1.483 . S
C748 H723 0.949 . S
C748 C747 1.376 . S
C748 C749 1.397 . S
C749 H724 0.950 . S
C749 C748 1.397 . S
C749 C750 1.391 . S
C750 C749 1.391 . S
C750 C751 1.405 . S
C751 H725 0.950 . S
C751 C750 1.405 . S
C751 C752 1.367 . S
C752 H726 0.950 . S
C752 C747 1.386 . S
C752 C751 1.367 . S
C753 C747 1.483 . S
C753 C754 1.382 . S
C753 C755 1.403 . S
C754 H727 0.950 . S
C754 C740 1.411 . S
C754 C753 1.382 . S
C755 C739 1.411 . S
C755 C753 1.403 . S
C755 C756 1.489 . S
C756 C755 1.489 . S
C756 C757 1.383 . S
C756 C761 1.382 . S
C757 H728 0.950 . S
C757 C756 1.383 . S
C757 C758 1.395 . S
C758 H729 0.950 . S
C758 C757 1.395 . S
C758 C759 1.288 . S
C759 C758 1.288 . S
C759 C760 1.392 . S
C760 H730 0.951 . S
C760 C759 1.392 . S
C760 C761 1.392 . S
C761 H731 0.949 . S
C761 C756 1.382 . S
C761 C760 1.392 . S
H762 C781 0.949 . S
H763 C782 0.950 . S
H764 C784 0.950 . S
H765 C785 0.950 . S
H766 C787 0.950 . S
H767 C790 0.950 . S
H768 C791 0.950 . S
H769 C793 0.951 . S
H770 C794 0.949 . S
H771 C796 0.949 . S
H772 C797 0.950 . S
H773 C799 0.950 . S
H774 C800 0.950 . S
H775 C802 0.950 . S
H776 C805 0.950 . S
H777 C806 0.950 . S
H778 C808 0.951 . S
H779 C809 0.949 . S
C780 C781 1.376 . S
C780 C785 1.386 1_545 S
C780 C786 1.483 . S
C781 H762 0.949 . S
C781 C780 1.376 . S
C781 C782 1.397 . S
C782 H763 0.950 . S
C782 C781 1.397 . S
C782 C783 1.391 . S
C783 C782 1.391 . S
C783 C784 1.405 1_545 S
C784 H764 0.950 . S
C784 C783 1.405 1_565 S
C784 C785 1.367 . S
C785 H765 0.950 . S
C785 C780 1.386 1_565 S
C785 C784 1.367 . S
C786 C780 1.483 . S
C786 C787 1.382 . S
C786 C788 1.403 1_545 S
C787 H766 0.950 . S
C787 C786 1.382 . S
C787 C803 1.411 . S
C788 C786 1.403 1_565 S
C788 C789 1.489 . S
C788 C802 1.411 . S
C789 C788 1.489 . S
C789 C790 1.383 1_565 S
C789 C794 1.382 . S
C790 H767 0.950 . S
C790 C789 1.383 1_545 S
C790 C791 1.395 . S
C791 H768 0.950 . S
C791 C790 1.395 . S
C791 C792 1.288 1_545 S
C792 C791 1.288 1_565 S
C792 C793 1.392 . S
C793 H769 0.951 . S
C793 C792 1.392 . S
C793 C794 1.392 . S
C794 H770 0.949 . S
C794 C789 1.382 . S
C794 C793 1.392 . S
C795 C796 1.376 . S
C795 C800 1.386 1_565 S
C795 C801 1.483 . S
C796 H771 0.949 . S
C796 C795 1.376 . S
C796 C797 1.397 . S
C797 H772 0.950 . S
C797 C796 1.397 . S
C797 C798 1.391 . S
C798 C797 1.391 . S
C798 C799 1.405 1_565 S
C799 H773 0.950 . S
C799 C798 1.405 1_545 S
C799 C800 1.367 . S
C800 H774 0.950 . S
C800 C795 1.386 1_545 S
C800 C799 1.367 . S
C801 C795 1.483 . S
C801 C802 1.382 . S
C801 C803 1.403 1_565 S
C802 H775 0.950 . S
C802 C788 1.411 . S
C802 C801 1.382 . S
C803 C787 1.411 . S
C803 C801 1.403 1_545 S
C803 C804 1.489 . S
C804 C803 1.489 . S
C804 C805 1.383 1_545 S
C804 C809 1.382 . S
C805 H776 0.950 . S
C805 C804 1.383 1_565 S
C805 C806 1.395 . S
C806 H777 0.950 . S
C806 C805 1.395 . S
C806 C807 1.288 1_565 S
C807 C806 1.288 1_545 S
C807 C808 1.392 . S
C808 H778 0.951 . S
C808 C807 1.392 . S
C808 C809 1.392 . S
C809 H779 0.949 . S
C809 C804 1.382 . S
C809 C808 1.392 . S
H810 C829 0.949 . S
H811 C830 0.950 . S
H812 C832 0.950 . S
H813 C833 0.950 . S
H814 C835 0.950 . S
H815 C838 0.950 . S
H816 C839 0.950 . S
H817 C841 0.951 . S
H818 C842 0.949 . S
H819 C844 0.949 . S
H820 C845 0.950 . S
H821 C847 0.950 . S
H822 C848 0.950 . S
H823 C850 0.950 . S
H824 C853 0.950 . S
H825 C854 0.950 . S
H826 C856 0.951 . S
H827 C857 0.949 . S
C828 C829 1.382 . S
C828 C833 1.383 1_545 S
C828 C834 1.505 . S
C829 H810 0.949 . S
C829 C828 1.382 . S
C829 C830 1.397 . S
C830 H811 0.950 . S
C830 C829 1.397 . S
C830 C831 1.391 1_545 S
C831 C830 1.391 1_565 S
C831 C832 1.405 . S
C832 H812 0.950 . S
C832 C831 1.405 . S
C832 C833 1.367 . S
C833 H813 0.950 . S
C833 C828 1.383 1_565 S
C833 C832 1.367 . S
C834 C828 1.505 . S
C834 C835 1.359 . S
C834 C836 1.398 1_545 S
C835 H814 0.950 . S
C835 C834 1.359 . S
C835 C851 1.444 . S
C836 C834 1.398 1_565 S
C836 C837 1.484 . S
C836 C850 1.435 . S
C837 C836 1.484 . S
C837 C838 1.349 1_565 S
C837 C842 1.400 . S
C838 H815 0.950 . S
C838 C837 1.349 1_545 S
C838 C839 1.395 . S
C839 H816 0.950 . S
C839 C838 1.395 . S
C839 C840 1.288 . S
C840 C839 1.288 . S
C840 C841 1.392 1_545 S
C841 H817 0.951 . S
C841 C840 1.392 1_565 S
C841 C842 1.392 . S
C842 H818 0.949 . S
C842 C837 1.400 . S
C842 C841 1.392 . S
C843 C844 1.369 . S
C843 C848 1.389 1_565 S
C843 C849 1.505 . S
C844 H819 0.949 . S
C844 C843 1.369 . S
C844 C845 1.397 . S
C845 H820 0.950 . S
C845 C844 1.397 . S
C845 C846 1.391 1_565 S
C846 C845 1.391 1_545 S
C846 C847 1.405 . S
C847 H821 0.950 . S
C847 C846 1.405 . S
C847 C848 1.367 . S
C848 H822 0.950 . S
C848 C843 1.389 1_545 S
C848 C847 1.367 . S
C849 C843 1.505 . S
C849 C850 1.365 . S
C849 C851 1.398 1_565 S
C850 H823 0.950 . S
C850 C836 1.435 . S
C850 C849 1.365 . S
C851 C835 1.444 . S
C851 C849 1.398 1_545 S
C851 C852 1.484 . S
C852 C851 1.484 . S
C852 C853 1.332 1_545 S
C852 C857 1.410 . S
C853 H824 0.950 . S
C853 C852 1.332 1_565 S
C853 C854 1.395 . S
C854 H825 0.950 . S
C854 C853 1.395 . S
C854 C855 1.288 . S
C855 C854 1.288 . S
C855 C856 1.392 1_565 S
C856 H826 0.951 . S
C856 C855 1.392 1_545 S
C856 C857 1.392 . S
C857 H827 0.949 . S
C857 C852 1.410 . S
C857 C856 1.392 . S
H858 C877 0.949 . S
H859 C878 0.950 . S
H860 C880 0.950 . S
H861 C881 0.950 . S
H862 C883 0.950 . S
H863 C886 0.950 . S
H864 C887 0.950 . S
H865 C889 0.951 . S
H866 C890 0.949 . S
H867 C892 0.949 . S
H868 C893 0.950 . S
H869 C895 0.950 . S
H870 C896 0.950 . S
H871 C898 0.950 . S
H872 C901 0.950 . S
H873 C902 0.950 . S
H874 C904 0.951 . S
H875 C905 0.949 . S
C876 C877 1.376 . S
C876 C881 1.386 1_455 S
C876 C882 1.483 . S
C877 H858 0.949 . S
C877 C876 1.376 . S
C877 C878 1.397 . S
C878 H859 0.950 . S
C878 C877 1.397 . S
C878 C879 1.391 . S
C879 C878 1.391 . S
C879 C880 1.405 1_455 S
C880 H860 0.950 . S
C880 C879 1.405 1_655 S
C880 C881 1.367 . S
C881 H861 0.950 . S
C881 C876 1.386 1_655 S
C881 C880 1.367 . S
C882 C876 1.483 . S
C882 C883 1.382 . S
C882 C884 1.403 1_455 S
C883 H862 0.950 . S
C883 C882 1.382 . S
C883 C899 1.411 . S
C884 C882 1.403 1_655 S
C884 C885 1.489 . S
C884 C898 1.411 . S
C885 C884 1.489 . S
C885 C886 1.383 1_655 S
C885 C890 1.382 . S
C886 H863 0.950 . S
C886 C885 1.383 1_455 S
C886 C887 1.395 . S
C887 H864 0.950 . S
C887 C886 1.395 . S
C887 C888 1.288 1_455 S
C888 C887 1.288 1_655 S
C888 C889 1.392 . S
C889 H865 0.951 . S
C889 C888 1.392 . S
C889 C890 1.392 . S
C890 H866 0.949 . S
C890 C885 1.382 . S
C890 C889 1.392 . S
C891 C892 1.376 . S
C891 C896 1.386 1_655 S
C891 C897 1.483 . S
C892 H867 0.949 . S
C892 C891 1.376 . S
C892 C893 1.397 . S
C893 H868 0.950 . S
C893 C892 1.397 . S
C893 C894 1.391 . S
C894 C893 1.391 . S
C894 C895 1.405 1_655 S
C895 H869 0.950 . S
C895 C894 1.405 1_455 S
C895 C896 1.367 . S
C896 H870 0.950 . S
C896 C891 1.386 1_455 S
C896 C895 1.367 . S
C897 C891 1.483 . S
C897 C898 1.382 . S
C897 C899 1.403 1_655 S
C898 H871 0.950 . S
C898 C884 1.411 . S
C898 C897 1.382 . S
C899 C883 1.411 . S
C899 C897 1.403 1_455 S
C899 C900 1.489 . S
C900 C899 1.489 . S
C900 C901 1.383 1_455 S
C900 C905 1.382 . S
C901 H872 0.950 . S
C901 C900 1.383 1_655 S
C901 C902 1.395 . S
C902 H873 0.950 . S
C902 C901 1.395 . S
C902 C903 1.288 1_655 S
C903 C902 1.288 1_455 S
C903 C904 1.392 . S
C904 H874 0.951 . S
C904 C903 1.392 . S
C904 C905 1.392 . S
C905 H875 0.949 . S
C905 C900 1.382 . S
C905 C904 1.392 . S
H906 C925 0.949 . S
H907 C926 0.950 . S
H908 C928 0.950 . S
H909 C929 0.950 . S
H910 C931 0.950 . S
H911 C934 0.950 . S
H912 C935 0.950 . S
H913 C937 0.951 . S
H914 C938 0.949 . S
H915 C940 0.949 . S
H916 C941 0.950 . S
H917 C943 0.950 . S
H918 C944 0.950 . S
H919 C946 0.950 . S
H920 C949 0.950 . S
H921 C950 0.950 . S
H922 C952 0.951 . S
H923 C953 0.949 . S
C924 C925 1.376 . S
C924 C929 1.386 . S
C924 C930 1.483 . S
C925 H906 0.949 . S
C925 C924 1.376 . S
C925 C926 1.397 . S
C926 H907 0.950 . S
C926 C925 1.397 . S
C926 C927 1.391 . S
C927 C926 1.391 . S
C927 C928 1.405 . S
C928 H908 0.950 . S
C928 C927 1.405 . S
C928 C929 1.367 . S
C929 H909 0.950 . S
C929 C924 1.386 . S
C929 C928 1.367 . S
C930 C924 1.483 . S
C930 C931 1.382 . S
C930 C932 1.403 . S
C931 H910 0.950 . S
C931 C930 1.382 . S
C931 C947 1.411 . S
C932 C930 1.403 . S
C932 C933 1.489 . S
C932 C946 1.411 . S
C933 C932 1.489 . S
C933 C934 1.383 . S
C933 C938 1.382 . S
C934 H911 0.950 . S
C934 C933 1.383 . S
C934 C935 1.395 . S
C935 H912 0.950 . S
C935 C934 1.395 . S
C935 C936 1.288 . S
C936 C935 1.288 . S
C936 C937 1.392 . S
C937 H913 0.951 . S
C937 C936 1.392 . S
C937 C938 1.392 . S
C938 H914 0.949 . S
C938 C933 1.382 . S
C938 C937 1.392 . S
C939 C940 1.376 . S
C939 C944 1.386 . S
C939 C945 1.483 . S
C940 H915 0.949 . S
C940 C939 1.376 . S
C940 C941 1.397 . S
C941 H916 0.950 . S
C941 C940 1.397 . S
C941 C942 1.391 . S
C942 C941 1.391 . S
C942 C943 1.405 . S
C943 H917 0.950 . S
C943 C942 1.405 . S
C943 C944 1.367 . S
C944 H918 0.950 . S
C944 C939 1.386 . S
C944 C943 1.367 . S
C945 C939 1.483 . S
C945 C946 1.382 . S
C945 C947 1.403 . S
C946 H919 0.950 . S
C946 C932 1.411 . S
C946 C945 1.382 . S
C947 C931 1.411 . S
C947 C945 1.403 . S
C947 C948 1.489 . S
C948 C947 1.489 . S
C948 C949 1.383 . S
C948 C953 1.382 . S
C949 H920 0.950 . S
C949 C948 1.383 . S
C949 C950 1.395 . S
C950 H921 0.950 . S
C950 C949 1.395 . S
C950 C951 1.288 . S
C951 C950 1.288 . S
C951 C952 1.392 . S
C952 H922 0.951 . S
C952 C951 1.392 . S
C952 C953 1.392 . S
C953 H923 0.949 . S
C953 C948 1.382 . S
C953 C952 1.392 . S
H954 C973 0.949 . S
H955 C974 0.950 . S
H956 C976 0.950 . S
H957 C977 0.950 . S
H958 C979 0.950 . S
H959 C982 0.950 . S
H960 C983 0.950 . S
H961 C985 0.951 . S
H962 C986 0.949 . S
H963 C988 0.949 . S
H964 C989 0.950 . S
H965 C991 0.950 . S
H966 C992 0.950 . S
H967 C994 0.950 . S
H968 C997 0.950 . S
H969 C998 0.950 . S
H970 C1000 0.951 . S
H971 C1001 0.949 . S
C972 C973 1.376 . S
C972 C977 1.386 . S
C972 C978 1.483 . S
C973 H954 0.949 . S
C973 C972 1.376 . S
C973 C974 1.397 . S
C974 H955 0.950 . S
C974 C973 1.397 . S
C974 C975 1.391 . S
C975 C974 1.391 . S
C975 C976 1.405 . S
C976 H956 0.950 . S
C976 C975 1.405 . S
C976 C977 1.367 . S
C977 H957 0.950 . S
C977 C972 1.386 . S
C977 C976 1.367 . S
C978 C972 1.483 . S
C978 C979 1.382 . S
C978 C980 1.403 . S
C979 H958 0.950 . S
C979 C978 1.382 . S
C979 C995 1.411 . S
C980 C978 1.403 . S
C980 C981 1.489 . S
C980 C994 1.411 . S
C981 C980 1.489 . S
C981 C982 1.383 . S
C981 C986 1.382 . S
C982 H959 0.950 . S
C982 C981 1.383 . S
C982 C983 1.395 . S
C983 H960 0.950 . S
C983 C982 1.395 . S
C983 C984 1.288 . S
C984 C983 1.288 . S
C984 C985 1.392 . S
C985 H961 0.951 . S
C985 C984 1.392 . S
C985 C986 1.392 . S
C986 H962 0.949 . S
C986 C981 1.382 . S
C986 C985 1.392 . S
C987 C988 1.376 . S
C987 C992 1.386 . S
C987 C993 1.483 . S
C988 H963 0.949 . S
C988 C987 1.376 . S
C988 C989 1.397 . S
C989 H964 0.950 . S
C989 C988 1.397 . S
C989 C990 1.391 . S
C990 C989 1.391 . S
C990 C991 1.405 . S
C991 H965 0.950 . S
C991 C990 1.405 . S
C991 C992 1.367 . S
C992 H966 0.950 . S
C992 C987 1.386 . S
C992 C991 1.367 . S
C993 C987 1.483 . S
C993 C994 1.382 . S
C993 C995 1.403 . S
C994 H967 0.950 . S
C994 C980 1.411 . S
C994 C993 1.382 . S
C995 C979 1.411 . S
C995 C993 1.403 . S
C995 C996 1.489 . S
C996 C995 1.489 . S
C996 C997 1.383 . S
C996 C1001 1.382 . S
C997 H968 0.950 . S
C997 C996 1.383 . S
C997 C998 1.395 . S
C998 H969 0.950 . S
C998 C997 1.395 . S
C998 C999 1.288 . S
C999 C998 1.288 . S
C999 C1000 1.392 . S
C1000 H970 0.951 . S
C1000 C999 1.392 . S
C1000 C1001 1.392 . S
C1001 H971 0.949 . S
C1001 C996 1.382 . S
C1001 C1000 1.392 . S
H1002 C1021 0.949 . S
H1003 C1022 0.950 . S
H1004 C1024 0.950 . S
H1005 C1025 0.950 . S
H1006 C1027 0.950 . S
H1007 C1030 0.950 . S
H1008 C1031 0.950 . S
H1009 C1033 0.951 . S
H1010 C1034 0.949 . S
H1011 C1036 0.949 . S
H1012 C1037 0.950 . S
H1013 C1039 0.950 . S
H1014 C1040 0.950 . S
H1015 C1042 0.950 . S
H1016 C1045 0.950 . S
H1017 C1046 0.950 . S
H1018 C1048 0.951 . S
H1019 C1049 0.949 . S
C1020 C1021 1.376 . S
C1020 C1025 1.386 . S
C1020 C1026 1.483 . S
C1021 H1002 0.949 . S
C1021 C1020 1.376 . S
C1021 C1022 1.397 . S
C1022 H1003 0.950 . S
C1022 C1021 1.397 . S
C1022 C1023 1.391 . S
C1023 C1022 1.391 . S
C1023 C1024 1.405 . S
C1024 H1004 0.950 . S
C1024 C1023 1.405 . S
C1024 C1025 1.367 . S
C1025 H1005 0.950 . S
C1025 C1020 1.386 . S
C1025 C1024 1.367 . S
C1026 C1020 1.483 . S
C1026 C1027 1.382 . S
C1026 C1028 1.403 . S
C1027 H1006 0.950 . S
C1027 C1026 1.382 . S
C1027 C1043 1.411 . S
C1028 C1026 1.403 . S
C1028 C1029 1.489 . S
C1028 C1042 1.411 . S
C1029 C1028 1.489 . S
C1029 C1030 1.383 . S
C1029 C1034 1.382 . S
C1030 H1007 0.950 . S
C1030 C1029 1.383 . S
C1030 C1031 1.395 . S
C1031 H1008 0.950 . S
C1031 C1030 1.395 . S
C1031 C1032 1.288 . S
C1032 C1031 1.288 . S
C1032 C1033 1.392 . S
C1033 H1009 0.951 . S
C1033 C1032 1.392 . S
C1033 C1034 1.392 . S
C1034 H1010 0.949 . S
C1034 C1029 1.382 . S
C1034 C1033 1.392 . S
C1035 C1036 1.376 . S
C1035 C1040 1.386 . S
C1035 C1041 1.483 . S
C1036 H1011 0.949 . S
C1036 C1035 1.376 . S
C1036 C1037 1.397 . S
C1037 H1012 0.950 . S
C1037 C1036 1.397 . S
C1037 C1038 1.391 . S
C1038 C1037 1.391 . S
C1038 C1039 1.405 . S
C1039 H1013 0.950 . S
C1039 C1038 1.405 . S
C1039 C1040 1.367 . S
C1040 H1014 0.950 . S
C1040 C1035 1.386 . S
C1040 C1039 1.367 . S
C1041 C1035 1.483 . S
C1041 C1042 1.382 . S
C1041 C1043 1.403 . S
C1042 H1015 0.950 . S
C1042 C1028 1.411 . S
C1042 C1041 1.382 . S
C1043 C1027 1.411 . S
C1043 C1041 1.403 . S
C1043 C1044 1.489 . S
C1044 C1043 1.489 . S
C1044 C1045 1.383 . S
C1044 C1049 1.382 . S
C1045 H1016 0.950 . S
C1045 C1044 1.383 . S
C1045 C1046 1.395 . S
C1046 H1017 0.950 . S
C1046 C1045 1.395 . S
C1046 C1047 1.288 . S
C1047 C1046 1.288 . S
C1047 C1048 1.392 . S
C1048 H1018 0.951 . S
C1048 C1047 1.392 . S
C1048 C1049 1.392 . S
C1049 H1019 0.949 . S
C1049 C1044 1.382 . S
C1049 C1048 1.392 . S
H1050 C1069 0.949 . S
H1051 C1070 0.950 . S
H1052 C1072 0.950 . S
H1053 C1073 0.950 . S
H1054 C1075 0.950 . S
H1055 C1078 0.950 . S
H1056 C1079 0.950 . S
H1057 C1081 0.951 . S
H1058 C1082 0.949 . S
H1059 C1084 0.949 . S
H1060 C1085 0.950 . S
H1061 C1087 0.950 . S
H1062 C1088 0.950 . S
H1063 C1090 0.950 . S
H1064 C1093 0.950 . S
H1065 C1094 0.950 . S
H1066 C1096 0.951 . S
H1067 C1097 0.949 . S
C1068 C1069 1.376 . S
C1068 C1073 1.386 . S
C1068 C1074 1.483 . S
C1069 H1050 0.949 . S
C1069 C1068 1.376 . S
C1069 C1070 1.397 . S
C1070 H1051 0.950 . S
C1070 C1069 1.397 . S
C1070 C1071 1.391 . S
C1071 C1070 1.391 . S
C1071 C1072 1.405 . S
C1072 H1052 0.950 . S
C1072 C1071 1.405 . S
C1072 C1073 1.367 . S
C1073 H1053 0.950 . S
C1073 C1068 1.386 . S
C1073 C1072 1.367 . S
C1074 C1068 1.483 . S
C1074 C1075 1.382 . S
C1074 C1076 1.403 . S
C1075 H1054 0.950 . S
C1075 C1074 1.382 . S
C1075 C1091 1.411 . S
C1076 C1074 1.403 . S
C1076 C1077 1.489 . S
C1076 C1090 1.411 . S
C1077 C1076 1.489 . S
C1077 C1078 1.383 . S
C1077 C1082 1.382 . S
C1078 H1055 0.950 . S
C1078 C1077 1.383 . S
C1078 C1079 1.395 . S
C1079 H1056 0.950 . S
C1079 C1078 1.395 . S
C1079 C1080 1.288 . S
C1080 C1079 1.288 . S
C1080 C1081 1.392 . S
C1081 H1057 0.951 . S
C1081 C1080 1.392 . S
C1081 C1082 1.392 . S
C1082 H1058 0.949 . S
C1082 C1077 1.382 . S
C1082 C1081 1.392 . S
C1083 C1084 1.376 . S
C1083 C1088 1.386 . S
C1083 C1089 1.483 . S
C1084 H1059 0.949 . S
C1084 C1083 1.376 . S
C1084 C1085 1.397 . S
C1085 H1060 0.950 . S
C1085 C1084 1.397 . S
C1085 C1086 1.391 . S
C1086 C1085 1.391 . S
C1086 C1087 1.405 . S
C1087 H1061 0.950 . S
C1087 C1086 1.405 . S
C1087 C1088 1.367 . S
C1088 H1062 0.950 . S
C1088 C1083 1.386 . S
C1088 C1087 1.367 . S
C1089 C1083 1.483 . S
C1089 C1090 1.382 . S
C1089 C1091 1.403 . S
C1090 H1063 0.950 . S
C1090 C1076 1.411 . S
C1090 C1089 1.382 . S
C1091 C1075 1.411 . S
C1091 C1089 1.403 . S
C1091 C1092 1.489 . S
C1092 C1091 1.489 . S
C1092 C1093 1.383 . S
C1092 C1097 1.382 . S
C1093 H1064 0.950 . S
C1093 C1092 1.383 . S
C1093 C1094 1.395 . S
C1094 H1065 0.950 . S
C1094 C1093 1.395 . S
C1094 C1095 1.288 . S
C1095 C1094 1.288 . S
C1095 C1096 1.392 . S
C1096 H1066 0.951 . S
C1096 C1095 1.392 . S
C1096 C1097 1.392 . S
C1097 H1067 0.949 . S
C1097 C1092 1.382 . S
C1097 C1096 1.392 . S
C1098 C1099 1.380 1_455 S
C1098 C1100 1.394 . S
C1098 H1114 0.931 . S
C1099 C1098 1.380 1_655 S
C1099 C1103 1.396 . S
C1100 C1098 1.394 . S
C1100 C1101 1.369 1_455 S
C1100 C1104 1.531 . S
C1101 C1100 1.369 1_655 S
C1101 C1102 1.410 . S
C1101 C1109 1.503 . S
C1102 C1101 1.410 . S
C1102 C1103 1.392 . S
C1102 C1105 1.511 . S
C1103 C1099 1.396 . S
C1103 C1102 1.392 . S
C1103 H1115 0.929 . S
C1104 C1100 1.531 . S
C1104 H1116 0.960 . S
C1104 H1117 0.962 . S
C1104 H1118 0.960 . S
C1105 C1102 1.511 . S
C1105 H1119 0.961 . S
C1105 H1120 0.961 . S
C1105 H1121 0.961 . S
C1106 C1107 1.402 . S
C1106 C1108 1.358 . S
C1106 H1122 0.908 1_655 S
C1107 C1106 1.402 . S
C1107 C1111 1.408 . S
C1108 C1106 1.358 . S
C1108 C1109 1.379 . S
C1108 C1112 1.504 1_655 S
C1109 C1101 1.503 . S
C1109 C1108 1.379 . S
C1109 C1110 1.403 . S
C1110 C1109 1.403 . S
C1110 C1111 1.404 . S
C1110 C1113 1.539 . S
C1111 C1107 1.408 . S
C1111 C1110 1.404 . S
C1111 H1123 0.930 . S
C1112 C1108 1.504 1_455 S
C1112 H1124 0.956 . S
C1112 H1125 0.961 1_455 S
C1112 H1126 0.960 . S
C1113 C1110 1.539 . S
C1113 H1127 0.958 1_655 S
C1113 H1128 0.961 . S
C1113 H1129 0.960 . S
H1114 C1098 0.931 . S
H1115 C1103 0.929 . S
H1116 C1104 0.960 . S
H1117 C1104 0.962 . S
H1118 C1104 0.960 . S
H1119 C1105 0.961 . S
H1120 C1105 0.961 . S
H1121 C1105 0.961 . S
H1122 C1106 0.908 1_455 S
H1123 C1111 0.930 . S
H1124 C1112 0.956 . S
H1125 C1112 0.961 1_655 S
H1126 C1112 0.960 . S
H1127 C1113 0.958 1_455 S
H1128 C1113 0.961 . S
H1129 C1113 0.960 . S
C1130 C1131 1.391 . S
C1130 C1132 1.394 . S
C1130 H1146 0.931 . S
C1131 C1130 1.391 . S
C1131 C1135 1.376 . S
C1132 C1130 1.394 . S
C1132 C1133 1.369 . S
C1132 C1136 1.531 . S
C1133 C1132 1.369 . S
C1133 C1134 1.410 . S
C1133 C1141 1.503 . S
C1134 C1133 1.410 . S
C1134 C1135 1.392 . S
C1134 C1137 1.511 . S
C1135 C1131 1.376 . S
C1135 C1134 1.392 . S
C1135 H1147 0.929 . S
C1136 C1132 1.531 . S
C1136 H1148 0.960 . S
C1136 H1149 0.962 . S
C1136 H1150 0.960 . S
C1137 C1134 1.511 . S
C1137 H1151 0.961 . S
C1137 H1152 0.961 . S
C1137 H1153 0.961 . S
C1138 C1139 1.370 . S
C1138 C1140 1.363 . S
C1138 H1154 0.931 . S
C1139 C1138 1.370 . S
C1139 C1143 1.408 . S
C1140 C1138 1.363 . S
C1140 C1141 1.370 . S
C1140 C1144 1.524 . S
C1141 C1133 1.503 . S
C1141 C1140 1.370 . S
C1141 C1142 1.403 . S
C1142 C1141 1.403 . S
C1142 C1143 1.404 . S
C1142 C1145 1.539 . S
C1143 C1139 1.408 . S
C1143 C1142 1.404 . S
C1143 H1155 0.930 . S
C1144 C1140 1.524 . S
C1144 H1156 0.956 . S
C1144 H1157 0.961 . S
C1144 H1158 0.961 . S
C1145 C1142 1.539 . S
C1145 H1159 0.958 . S
C1145 H1160 0.961 . S
C1145 H1161 0.960 . S
H1146 C1130 0.931 . S
H1147 C1135 0.929 . S
H1148 C1136 0.960 . S
H1149 C1136 0.962 . S
H1150 C1136 0.960 . S
H1151 C1137 0.961 . S
H1152 C1137 0.961 . S
H1153 C1137 0.961 . S
H1154 C1138 0.931 . S
H1155 C1143 0.930 . S
H1156 C1144 0.956 . S
H1157 C1144 0.961 . S
H1158 C1144 0.961 . S
H1159 C1145 0.958 . S
H1160 C1145 0.961 . S
H1161 C1145 0.960 . S
C1162 C1163 1.383 1_545 S
C1162 C1164 1.394 . S
C1162 H1178 0.931 . S
C1163 C1162 1.383 1_565 S
C1163 C1167 1.392 . S
C1164 C1162 1.394 . S
C1164 C1165 1.369 1_545 S
C1164 C1168 1.531 . S
C1165 C1164 1.369 1_565 S
C1165 C1166 1.410 . S
C1165 C1173 1.493 . S
C1166 C1165 1.410 . S
C1166 C1167 1.392 . S
C1166 C1169 1.511 . S
C1167 C1163 1.392 . S
C1167 C1166 1.392 . S
C1167 H1179 0.929 . S
C1168 C1164 1.531 . S
C1168 H1180 0.960 . S
C1168 H1181 0.962 . S
C1168 H1182 0.960 . S
C1169 C1166 1.511 . S
C1169 H1183 0.961 . S
C1169 H1184 0.961 . S
C1169 H1185 0.961 . S
C1170 C1171 1.370 . S
C1170 C1172 1.363 . S
C1170 H1186 0.931 . S
C1171 C1170 1.370 . S
C1171 C1175 1.408 1_545 S
C1172 C1170 1.363 . S
C1172 C1173 1.353 1_545 S
C1172 C1176 1.524 . S
C1173 C1165 1.493 . S
C1173 C1172 1.353 1_565 S
C1173 C1174 1.432 . S
C1174 C1173 1.432 . S
C1174 C1175 1.404 . S
C1174 C1177 1.539 . S
C1175 C1171 1.408 1_565 S
C1175 C1174 1.404 . S
C1175 H1187 0.930 . S
C1176 C1172 1.524 . S
C1176 H1188 0.956 . S
C1176 H1189 0.961 . S
C1176 H1190 0.961 . S
C1177 C1174 1.539 . S
C1177 H1191 0.958 . S
C1177 H1192 0.961 . S
C1177 H1193 0.960 . S
H1178 C1162 0.931 . S
H1179 C1167 0.929 . S
H1180 C1168 0.960 . S
H1181 C1168 0.962 . S
H1182 C1168 0.960 . S
H1183 C1169 0.961 . S
H1184 C1169 0.961 . S
H1185 C1169 0.961 . S
H1186 C1170 0.931 . S
H1187 C1175 0.930 . S
H1188 C1176 0.956 . S
H1189 C1176 0.961 . S
H1190 C1176 0.961 . S
H1191 C1177 0.958 . S
H1192 C1177 0.961 . S
H1193 C1177 0.960 . S
C1194 C1195 1.391 . S
C1194 C1196 1.394 . S
C1194 H1210 0.931 . S
C1195 C1194 1.391 . S
C1195 C1199 1.376 . S
C1196 C1194 1.394 . S
C1196 C1197 1.369 . S
C1196 C1200 1.531 . S
C1197 C1196 1.369 . S
C1197 C1198 1.410 . S
C1197 C1205 1.503 . S
C1198 C1197 1.410 . S
C1198 C1199 1.392 . S
C1198 C1201 1.511 . S
C1199 C1195 1.376 . S
C1199 C1198 1.392 . S
C1199 H1211 0.906 1_565 S
C1200 C1196 1.531 . S
C1200 H1212 0.960 . S
C1200 H1213 0.962 1_565 S
C1200 H1214 0.960 . S
C1201 C1198 1.511 . S
C1201 H1215 0.961 1_565 S
C1201 H1216 0.961 1_565 S
C1201 H1217 0.961 . S
C1202 C1203 1.370 1_545 S
C1202 C1204 1.363 . S
C1202 H1218 0.931 . S
C1203 C1202 1.370 1_565 S
C1203 C1207 1.408 . S
C1204 C1202 1.363 . S
C1204 C1205 1.370 1_545 S
C1204 C1208 1.524 . S
C1205 C1197 1.503 . S
C1205 C1204 1.370 1_565 S
C1205 C1206 1.403 . S
C1206 C1205 1.403 . S
C1206 C1207 1.404 . S
C1206 C1209 1.539 . S
C1207 C1203 1.408 . S
C1207 C1206 1.404 . S
C1207 H1219 0.930 . S
C1208 C1204 1.524 . S
C1208 H1220 0.956 . S
C1208 H1221 0.961 . S
C1208 H1222 0.961 . S
C1209 C1206 1.539 . S
C1209 H1223 0.958 . S
C1209 H1224 0.961 . S
C1209 H1225 0.960 . S
H1210 C1194 0.931 . S
H1211 C1199 0.906 1_545 S
H1212 C1200 0.960 . S
H1213 C1200 0.962 1_545 S
H1214 C1200 0.960 . S
H1215 C1201 0.961 1_545 S
H1216 C1201 0.961 1_545 S
H1217 C1201 0.961 . S
H1218 C1202 0.931 . S
H1219 C1207 0.930 . S
H1220 C1208 0.956 . S
H1221 C1208 0.961 . S
H1222 C1208 0.961 . S
H1223 C1209 0.958 . S
H1224 C1209 0.961 . S
H1225 C1209 0.960 . S
C1226 C1227 1.391 1_655 S
C1226 C1228 1.398 1_655 S
C1226 H1242 0.931 . S
C1227 C1226 1.391 1_455 S
C1227 C1231 1.376 . S
C1228 C1226 1.398 1_455 S
C1228 C1229 1.375 . S
C1228 C1232 1.520 1_455 S
C1229 C1228 1.375 . S
C1229 C1230 1.410 . S
C1229 C1237 1.503 . S
C1230 C1229 1.410 . S
C1230 C1231 1.392 . S
C1230 C1233 1.511 . S
C1231 C1227 1.376 . S
C1231 C1230 1.392 . S
C1231 H1243 0.929 . S
C1232 C1228 1.520 1_655 S
C1232 H1244 0.960 1_655 S
C1232 H1245 0.962 . S
C1232 H1246 0.960 . S
C1233 C1230 1.511 . S
C1233 H1247 0.961 . S
C1233 H1248 0.961 . S
C1233 H1249 0.961 . S
C1234 C1235 1.370 1_655 S
C1234 C1236 1.363 . S
C1234 H1250 0.931 . S
C1235 C1234 1.370 1_455 S
C1235 C1239 1.408 . S
C1236 C1234 1.363 . S
C1236 C1237 1.370 1_655 S
C1236 C1240 1.524 . S
C1237 C1229 1.503 . S
C1237 C1236 1.370 1_455 S
C1237 C1238 1.403 . S
C1238 C1237 1.403 . S
C1238 C1239 1.404 . S
C1238 C1241 1.539 . S
C1239 C1235 1.408 . S
C1239 C1238 1.404 . S
C1239 H1251 0.930 . S
C1240 C1236 1.524 . S
C1240 H1252 0.956 . S
C1240 H1253 0.961 . S
C1240 H1254 0.961 . S
C1241 C1238 1.539 . S
C1241 H1255 0.958 . S
C1241 H1256 0.961 . S
C1241 H1257 0.960 . S
H1242 C1226 0.931 . S
H1243 C1231 0.929 . S
H1244 C1232 0.960 1_455 S
H1245 C1232 0.962 . S
H1246 C1232 0.960 . S
H1247 C1233 0.961 . S
H1248 C1233 0.961 . S
H1249 C1233 0.961 . S
H1250 C1234 0.931 . S
H1251 C1239 0.930 . S
H1252 C1240 0.956 . S
H1253 C1240 0.961 . S
H1254 C1240 0.961 . S
H1255 C1241 0.958 . S
H1256 C1241 0.961 . S
H1257 C1241 0.960 . S
C1258 C1259 1.391 . S
C1258 C1260 1.394 . S
C1258 H1274 0.931 . S
C1259 C1258 1.391 . S
C1259 C1263 1.376 . S
C1260 C1258 1.394 . S
C1260 C1261 1.369 . S
C1260 C1264 1.531 . S
C1261 C1260 1.369 . S
C1261 C1262 1.410 . S
C1261 C1269 1.503 . S
C1262 C1261 1.410 . S
C1262 C1263 1.392 . S
C1262 C1265 1.511 . S
C1263 C1259 1.376 . S
C1263 C1262 1.392 . S
C1263 H1275 0.929 . S
C1264 C1260 1.531 . S
C1264 H1276 0.960 . S
C1264 H1277 0.962 . S
C1264 H1278 0.960 . S
C1265 C1262 1.511 . S
C1265 H1279 0.961 . S
C1265 H1280 0.961 . S
C1265 H1281 0.961 . S
C1266 C1267 1.370 . S
C1266 C1268 1.363 . S
C1266 H1282 0.931 . S
C1267 C1266 1.370 . S
C1267 C1271 1.408 . S
C1268 C1266 1.363 . S
C1268 C1269 1.370 . S
C1268 C1272 1.524 . S
C1269 C1261 1.503 . S
C1269 C1268 1.370 . S
C1269 C1270 1.403 . S
C1270 C1269 1.403 . S
C1270 C1271 1.404 . S
C1270 C1273 1.539 . S
C1271 C1267 1.408 . S
C1271 C1270 1.404 . S
C1271 H1283 0.930 . S
C1272 C1268 1.524 . S
C1272 H1284 0.956 . S
C1272 H1285 0.961 . S
C1272 H1286 0.961 . S
C1273 C1270 1.539 . S
C1273 H1287 0.958 . S
C1273 H1288 0.961 . S
C1273 H1289 0.960 . S
H1274 C1258 0.931 . S
H1275 C1263 0.929 . S
H1276 C1264 0.960 . S
H1277 C1264 0.962 . S
H1278 C1264 0.960 . S
H1279 C1265 0.961 . S
H1280 C1265 0.961 . S
H1281 C1265 0.961 . S
H1282 C1266 0.931 . S
H1283 C1271 0.930 . S
H1284 C1272 0.956 . S
H1285 C1272 0.961 . S
H1286 C1272 0.961 . S
H1287 C1273 0.958 . S
H1288 C1273 0.961 . S
H1289 C1273 0.960 . S
C1290 C1291 1.391 1_655 S
C1290 C1292 1.385 1_655 S
C1290 H1306 0.931 . S
C1291 C1290 1.391 1_455 S
C1291 C1295 1.376 . S
C1292 C1290 1.385 1_455 S
C1292 C1293 1.384 . S
C1292 C1296 1.524 1_455 S
C1293 C1292 1.384 . S
C1293 C1294 1.410 . S
C1293 C1301 1.503 . S
C1294 C1293 1.410 . S
C1294 C1295 1.392 . S
C1294 C1297 1.511 . S
C1295 C1291 1.376 . S
C1295 C1294 1.392 . S
C1295 H1307 0.929 . S
C1296 C1292 1.524 1_655 S
C1296 H1308 0.960 1_655 S
C1296 H1309 0.962 . S
C1296 H1310 0.960 . S
C1297 C1294 1.511 . S
C1297 H1311 0.961 . S
C1297 H1312 0.961 . S
C1297 H1313 0.961 . S
C1298 C1299 1.370 1_655 S
C1298 C1300 1.363 . S
C1298 H1314 0.931 . S
C1299 C1298 1.370 1_455 S
C1299 C1303 1.408 . S
C1300 C1298 1.363 . S
C1300 C1301 1.370 1_655 S
C1300 C1304 1.524 . S
C1301 C1293 1.503 . S
C1301 C1300 1.370 1_455 S
C1301 C1302 1.403 . S
C1302 C1301 1.403 . S
C1302 C1303 1.404 . S
C1302 C1305 1.539 . S
C1303 C1299 1.408 . S
C1303 C1302 1.404 . S
C1303 H1315 0.930 . S
C1304 C1300 1.524 . S
C1304 H1316 0.956 . S
C1304 H1317 0.961 . S
C1304 H1318 0.961 . S
C1305 C1302 1.539 . S
C1305 H1319 0.958 . S
C1305 H1320 0.961 . S
C1305 H1321 0.960 . S
H1306 C1290 0.931 . S
H1307 C1295 0.929 . S
H1308 C1296 0.960 1_455 S
H1309 C1296 0.962 . S
H1310 C1296 0.960 . S
H1311 C1297 0.961 . S
H1312 C1297 0.961 . S
H1313 C1297 0.961 . S
H1314 C1298 0.931 . S
H1315 C1303 0.930 . S
H1316 C1304 0.956 . S
H1317 C1304 0.961 . S
H1318 C1304 0.961 . S
H1319 C1305 0.958 . S
H1320 C1305 0.961 . S
H1321 C1305 0.960 . S
C1322 C1323 1.391 . S
C1322 C1324 1.394 . S
C1322 H1338 0.931 . S
C1323 C1322 1.391 . S
C1323 C1327 1.376 . S
C1324 C1322 1.394 . S
C1324 C1325 1.369 . S
C1324 C1328 1.531 . S
C1325 C1324 1.369 . S
C1325 C1326 1.410 . S
C1325 C1333 1.503 . S
C1326 C1325 1.410 . S
C1326 C1327 1.392 . S
C1326 C1329 1.511 . S
C1327 C1323 1.376 . S
C1327 C1326 1.392 . S
C1327 H1339 0.929 . S
C1328 C1324 1.531 . S
C1328 H1340 0.960 . S
C1328 H1341 0.962 . S
C1328 H1342 0.960 . S
C1329 C1326 1.511 . S
C1329 H1343 0.961 . S
C1329 H1344 0.961 . S
C1329 H1345 0.961 . S
C1330 C1331 1.370 . S
C1330 C1332 1.363 . S
C1330 H1346 0.931 . S
C1331 C1330 1.370 . S
C1331 C1335 1.408 . S
C1332 C1330 1.363 . S
C1332 C1333 1.370 . S
C1332 C1336 1.524 . S
C1333 C1325 1.503 . S
C1333 C1332 1.370 . S
C1333 C1334 1.403 . S
C1334 C1333 1.403 . S
C1334 C1335 1.404 . S
C1334 C1337 1.539 . S
C1335 C1331 1.408 . S
C1335 C1334 1.404 . S
C1335 H1347 0.930 . S
C1336 C1332 1.524 . S
C1336 H1348 0.956 . S
C1336 H1349 0.961 . S
C1336 H1350 0.961 . S
C1337 C1334 1.539 . S
C1337 H1351 0.958 . S
C1337 H1352 0.961 . S
C1337 H1353 0.960 . S
H1338 C1322 0.931 . S
H1339 C1327 0.929 . S
H1340 C1328 0.960 . S
H1341 C1328 0.962 . S
H1342 C1328 0.960 . S
H1343 C1329 0.961 . S
H1344 C1329 0.961 . S
H1345 C1329 0.961 . S
H1346 C1330 0.931 . S
H1347 C1335 0.930 . S
H1348 C1336 0.956 . S
H1349 C1336 0.961 . S
H1350 C1336 0.961 . S
H1351 C1337 0.958 . S
H1352 C1337 0.961 . S
H1353 C1337 0.960 . S
C1354 C1355 1.391 . S
C1354 C1356 1.394 . S
C1354 H1370 0.931 . S
C1355 C1354 1.391 . S
C1355 C1359 1.376 1_565 S
C1356 C1354 1.394 . S
C1356 C1357 1.369 . S
C1356 C1360 1.531 . S
C1357 C1356 1.369 . S
C1357 C1358 1.410 1_565 S
C1357 C1365 1.503 . S
C1358 C1357 1.410 1_545 S
C1358 C1359 1.392 . S
C1358 C1361 1.511 . S
C1359 C1355 1.376 1_545 S
C1359 C1358 1.392 . S
C1359 H1371 0.929 . S
C1360 C1356 1.531 . S
C1360 H1372 0.960 . S
C1360 H1373 0.962 . S
C1360 H1374 0.960 . S
C1361 C1358 1.511 . S
C1361 H1375 0.961 . S
C1361 H1376 0.961 . S
C1361 H1377 0.961 1_545 S
C1362 C1363 1.370 1_545 S
C1362 C1364 1.363 . S
C1362 H1378 0.931 . S
C1363 C1362 1.370 1_565 S
C1363 C1367 1.408 . S
C1364 C1362 1.363 . S
C1364 C1365 1.370 1_545 S
C1364 C1368 1.524 . S
C1365 C1357 1.503 . S
C1365 C1364 1.370 1_565 S
C1365 C1366 1.403 . S
C1366 C1365 1.403 . S
C1366 C1367 1.404 . S
C1366 C1369 1.539 . S
C1367 C1363 1.408 . S
C1367 C1366 1.404 . S
C1367 H1379 0.930 . S
C1368 C1364 1.524 . S
C1368 H1380 0.956 . S
C1368 H1381 0.961 . S
C1368 H1382 0.961 . S
C1369 C1366 1.539 . S
C1369 H1383 0.958 . S
C1369 H1384 0.961 . S
C1369 H1385 0.960 . S
H1370 C1354 0.931 . S
H1371 C1359 0.929 . S
H1372 C1360 0.960 . S
H1373 C1360 0.962 . S
H1374 C1360 0.960 . S
H1375 C1361 0.961 . S
H1376 C1361 0.961 . S
H1377 C1361 0.961 1_565 S
H1378 C1362 0.931 . S
H1379 C1367 0.930 . S
H1380 C1368 0.956 . S
H1381 C1368 0.961 . S
H1382 C1368 0.961 . S
H1383 C1369 0.958 . S
H1384 C1369 0.961 . S
H1385 C1369 0.960 . S
C1386 C1387 1.378 . S
C1386 C1388 1.394 . S
C1386 H1402 0.931 . S
C1387 C1386 1.378 . S
C1387 C1391 1.376 1_565 S
C1388 C1386 1.394 . S
C1388 C1389 1.369 . S
C1388 C1392 1.531 . S
C1389 C1388 1.369 . S
C1389 C1390 1.410 1_565 S
C1389 C1397 1.534 . S
C1390 C1389 1.410 1_545 S
C1390 C1391 1.392 . S
C1390 C1393 1.511 . S
C1391 C1387 1.376 1_545 S
C1391 C1390 1.392 . S
C1391 H1403 0.929 . S
C1392 C1388 1.531 . S
C1392 H1404 0.960 . S
C1392 H1405 1.003 . S
C1392 H1406 0.960 . S
C1393 C1390 1.511 . S
C1393 H1407 0.961 . S
C1393 H1408 0.961 . S
C1393 H1409 0.961 1_545 S
C1394 C1395 1.370 . S
C1394 C1396 1.363 . S
C1394 H1410 0.931 . S
C1395 C1394 1.370 . S
C1395 C1399 1.408 1_545 S
C1396 C1394 1.363 . S
C1396 C1397 1.301 1_545 S
C1396 C1400 1.524 . S
C1397 C1389 1.534 . S
C1397 C1396 1.301 1_565 S
C1397 C1398 1.444 . S
C1398 C1397 1.444 . S
C1398 C1399 1.404 . S
C1398 C1401 1.539 . S
C1399 C1395 1.408 1_565 S
C1399 C1398 1.404 . S
C1399 H1411 0.930 . S
C1400 C1396 1.524 . S
C1400 H1412 0.956 . S
C1400 H1413 0.961 . S
C1400 H1414 0.961 . S
C1401 C1398 1.539 . S
C1401 H1415 0.958 . S
C1401 H1416 0.961 . S
C1401 H1417 0.960 . S
H1402 C1386 0.931 . S
H1403 C1391 0.929 . S
H1404 C1392 0.960 . S
H1405 C1392 1.003 . S
H1406 C1392 0.960 . S
H1407 C1393 0.961 . S
H1408 C1393 0.961 . S
H1409 C1393 0.961 1_565 S
H1410 C1394 0.931 . S
H1411 C1399 0.930 . S
H1412 C1400 0.956 . S
H1413 C1400 0.961 . S
H1414 C1400 0.961 . S
H1415 C1401 0.958 . S
H1416 C1401 0.961 . S
H1417 C1401 0.960 . S
C1418 C1419 1.384 1_655 S
C1418 C1420 1.394 . S
C1418 H1434 0.931 . S
C1419 C1418 1.384 1_455 S
C1419 C1423 1.394 . S
C1420 C1418 1.394 . S
C1420 C1421 1.339 1_655 S
C1420 C1424 1.531 . S
C1421 C1420 1.339 1_455 S
C1421 C1422 1.425 . S
C1421 C1429 1.524 1_455 S
C1422 C1421 1.425 . S
C1422 C1423 1.392 . S
C1422 C1425 1.511 . S
C1423 C1419 1.394 . S
C1423 C1422 1.392 . S
C1423 H1435 0.929 . S
C1424 C1420 1.531 . S
C1424 H1436 0.960 . S
C1424 H1437 0.962 . S
C1424 H1438 0.960 . S
C1425 C1422 1.511 . S
C1425 H1439 0.961 . S
C1425 H1440 0.961 . S
C1425 H1441 0.961 . S
C1426 C1427 1.370 . S
C1426 C1428 1.363 . S
C1426 H1442 0.931 . S
C1427 C1426 1.370 . S
C1427 C1431 1.408 1_655 S
C1428 C1426 1.363 . S
C1428 C1429 1.383 . S
C1428 C1432 1.524 . S
C1429 C1421 1.524 1_655 S
C1429 C1428 1.383 . S
C1429 C1430 1.384 1_655 S
C1430 C1429 1.384 1_455 S
C1430 C1431 1.404 . S
C1430 C1433 1.539 . S
C1431 C1427 1.408 1_455 S
C1431 C1430 1.404 . S
C1431 H1443 0.930 . S
C1432 C1428 1.524 . S
C1432 H1444 0.956 . S
C1432 H1445 0.961 . S
C1432 H1446 0.961 . S
C1433 C1430 1.539 . S
C1433 H1447 0.958 . S
C1433 H1448 0.961 . S
C1433 H1449 0.960 . S
H1434 C1418 0.931 . S
H1435 C1423 0.929 . S
H1436 C1424 0.960 . S
H1437 C1424 0.962 . S
H1438 C1424 0.960 . S
H1439 C1425 0.961 . S
H1440 C1425 0.961 . S
H1441 C1425 0.961 . S
H1442 C1426 0.931 . S
H1443 C1431 0.930 . S
H1444 C1432 0.956 . S
H1445 C1432 0.961 . S
H1446 C1432 0.961 . S
H1447 C1433 0.958 . S
H1448 C1433 0.961 . S
H1449 C1433 0.960 . S
C1450 C1451 1.391 . S
C1450 C1452 1.394 . S
C1450 H1466 0.931 . S
C1451 C1450 1.391 . S
C1451 C1455 1.376 . S
C1452 C1450 1.394 . S
C1452 C1453 1.369 . S
C1452 C1456 1.531 . S
C1453 C1452 1.369 . S
C1453 C1454 1.410 . S
C1453 C1461 1.503 . S
C1454 C1453 1.410 . S
C1454 C1455 1.392 . S
C1454 C1457 1.511 . S
C1455 C1451 1.376 . S
C1455 C1454 1.392 . S
C1455 H1467 0.929 . S
C1456 C1452 1.531 . S
C1456 H1468 0.960 . S
C1456 H1469 0.962 . S
C1456 H1470 0.960 . S
C1457 C1454 1.511 . S
C1457 H1471 0.961 . S
C1457 H1472 0.961 . S
C1457 H1473 0.961 . S
C1458 C1459 1.370 . S
C1458 C1460 1.363 . S
C1458 H1474 0.931 . S
C1459 C1458 1.370 . S
C1459 C1463 1.408 . S
C1460 C1458 1.363 . S
C1460 C1461 1.370 . S
C1460 C1464 1.524 . S
C1461 C1453 1.503 . S
C1461 C1460 1.370 . S
C1461 C1462 1.403 . S
C1462 C1461 1.403 . S
C1462 C1463 1.404 . S
C1462 C1465 1.539 . S
C1463 C1459 1.408 . S
C1463 C1462 1.404 . S
C1463 H1475 0.930 . S
C1464 C1460 1.524 . S
C1464 H1476 0.956 . S
C1464 H1477 0.961 . S
C1464 H1478 0.961 . S
C1465 C1462 1.539 . S
C1465 H1479 0.958 . S
C1465 H1480 0.961 . S
C1465 H1481 0.960 . S
H1466 C1450 0.931 . S
H1467 C1455 0.929 . S
H1468 C1456 0.960 . S
H1469 C1456 0.962 . S
H1470 C1456 0.960 . S
H1471 C1457 0.961 . S
H1472 C1457 0.961 . S
H1473 C1457 0.961 . S
H1474 C1458 0.931 . S
H1475 C1463 0.930 . S
H1476 C1464 0.956 . S
H1477 C1464 0.961 . S
H1478 C1464 0.961 . S
H1479 C1465 0.958 . S
H1480 C1465 0.961 . S
H1481 C1465 0.960 . S
C1482 C1483 1.391 . S
C1482 C1484 1.394 . S
C1482 H1498 0.931 . S
C1483 C1482 1.391 . S
C1483 C1487 1.376 . S
C1484 C1482 1.394 . S
C1484 C1485 1.369 . S
C1484 C1488 1.531 . S
C1485 C1484 1.369 . S
C1485 C1486 1.410 . S
C1485 C1493 1.503 . S
C1486 C1485 1.410 . S
C1486 C1487 1.392 . S
C1486 C1489 1.511 . S
C1487 C1483 1.376 . S
C1487 C1486 1.392 . S
C1487 H1499 0.929 . S
C1488 C1484 1.531 . S
C1488 H1500 0.960 . S
C1488 H1501 0.962 . S
C1488 H1502 0.960 . S
C1489 C1486 1.511 . S
C1489 H1503 0.961 . S
C1489 H1504 0.961 . S
C1489 H1505 0.961 . S
C1490 C1491 1.370 . S
C1490 C1492 1.363 . S
C1490 H1506 0.931 . S
C1491 C1490 1.370 . S
C1491 C1495 1.408 . S
C1492 C1490 1.363 . S
C1492 C1493 1.370 . S
C1492 C1496 1.524 . S
C1493 C1485 1.503 . S
C1493 C1492 1.370 . S
C1493 C1494 1.403 . S
C1494 C1493 1.403 . S
C1494 C1495 1.404 . S
C1494 C1497 1.539 . S
C1495 C1491 1.408 . S
C1495 C1494 1.404 . S
C1495 H1507 0.930 . S
C1496 C1492 1.524 . S
C1496 H1508 0.956 . S
C1496 H1509 0.961 . S
C1496 H1510 0.961 . S
C1497 C1494 1.539 . S
C1497 H1511 0.958 . S
C1497 H1512 0.961 . S
C1497 H1513 0.960 . S
H1498 C1482 0.931 . S
H1499 C1487 0.929 . S
H1500 C1488 0.960 . S
H1501 C1488 0.962 . S
H1502 C1488 0.960 . S
H1503 C1489 0.961 . S
H1504 C1489 0.961 . S
H1505 C1489 0.961 . S
H1506 C1490 0.931 . S
H1507 C1495 0.930 . S
H1508 C1496 0.956 . S
H1509 C1496 0.961 . S
H1510 C1496 0.961 . S
H1511 C1497 0.958 . S
H1512 C1497 0.961 . S
H1513 C1497 0.960 . S
C1514 C1515 1.391 . S
C1514 C1516 1.394 . S
C1514 H1530 0.931 . S
C1515 C1514 1.391 . S
C1515 C1519 1.376 . S
C1516 C1514 1.394 . S
C1516 C1517 1.369 . S
C1516 C1520 1.531 . S
C1517 C1516 1.369 . S
C1517 C1518 1.410 . S
C1517 C1525 1.503 . S
C1518 C1517 1.410 . S
C1518 C1519 1.392 . S
C1518 C1521 1.511 . S
C1519 C1515 1.376 . S
C1519 C1518 1.392 . S
C1519 H1531 0.929 . S
C1520 C1516 1.531 . S
C1520 H1532 0.960 . S
C1520 H1533 0.962 . S
C1520 H1534 0.960 . S
C1521 C1518 1.511 . S
C1521 H1535 0.961 . S
C1521 H1536 0.961 . S
C1521 H1537 0.961 . S
C1522 C1523 1.370 . S
C1522 C1524 1.363 . S
C1522 H1538 0.931 . S
C1523 C1522 1.370 . S
C1523 C1527 1.408 . S
C1524 C1522 1.363 . S
C1524 C1525 1.370 . S
C1524 C1528 1.524 . S
C1525 C1517 1.503 . S
C1525 C1524 1.370 . S
C1525 C1526 1.403 . S
C1526 C1525 1.403 . S
C1526 C1527 1.404 . S
C1526 C1529 1.539 . S
C1527 C1523 1.408 . S
C1527 C1526 1.404 . S
C1527 H1539 0.930 . S
C1528 C1524 1.524 . S
C1528 H1540 0.956 . S
C1528 H1541 0.961 . S
C1528 H1542 0.961 . S
C1529 C1526 1.539 . S
C1529 H1543 0.958 . S
C1529 H1544 0.961 . S
C1529 H1545 0.960 . S
H1530 C1514 0.931 . S
H1531 C1519 0.929 . S
H1532 C1520 0.960 . S
H1533 C1520 0.962 . S
H1534 C1520 0.960 . S
H1535 C1521 0.961 . S
H1536 C1521 0.961 . S
H1537 C1521 0.961 . S
H1538 C1522 0.931 . S
H1539 C1527 0.930 . S
H1540 C1528 0.956 . S
H1541 C1528 0.961 . S
H1542 C1528 0.961 . S
H1543 C1529 0.958 . S
H1544 C1529 0.961 . S
H1545 C1529 0.960 . S
C1546 C1547 1.391 . S
C1546 C1548 1.394 . S
C1546 H1562 0.931 . S
C1547 C1546 1.391 . S
C1547 C1551 1.376 . S
C1548 C1546 1.394 . S
C1548 C1549 1.369 . S
C1548 C1552 1.531 . S
C1549 C1548 1.369 . S
C1549 C1550 1.410 . S
C1549 C1557 1.503 . S
C1550 C1549 1.410 . S
C1550 C1551 1.392 . S
C1550 C1553 1.511 . S
C1551 C1547 1.376 . S
C1551 C1550 1.392 . S
C1551 H1563 0.929 . S
C1552 C1548 1.531 . S
C1552 H1564 0.960 . S
C1552 H1565 0.962 . S
C1552 H1566 0.960 . S
C1553 C1550 1.511 . S
C1553 H1567 0.961 . S
C1553 H1568 0.961 . S
C1553 H1569 0.961 . S
C1554 C1555 1.370 . S
C1554 C1556 1.363 . S
C1554 H1570 0.931 . S
C1555 C1554 1.370 . S
C1555 C1559 1.408 . S
C1556 C1554 1.363 . S
C1556 C1557 1.370 . S
C1556 C1560 1.524 . S
C1557 C1549 1.503 . S
C1557 C1556 1.370 . S
C1557 C1558 1.403 . S
C1558 C1557 1.403 . S
C1558 C1559 1.404 . S
C1558 C1561 1.539 . S
C1559 C1555 1.408 . S
C1559 C1558 1.404 . S
C1559 H1571 0.930 . S
C1560 C1556 1.524 . S
C1560 H1572 0.956 . S
C1560 H1573 0.961 . S
C1560 H1574 0.961 . S
C1561 C1558 1.539 . S
C1561 H1575 0.958 . S
C1561 H1576 0.961 . S
C1561 H1577 0.960 . S
H1562 C1546 0.931 . S
H1563 C1551 0.929 . S
H1564 C1552 0.960 . S
H1565 C1552 0.962 . S
H1566 C1552 0.960 . S
H1567 C1553 0.961 . S
H1568 C1553 0.961 . S
H1569 C1553 0.961 . S
H1570 C1554 0.931 . S
H1571 C1559 0.930 . S
H1572 C1560 0.956 . S
H1573 C1560 0.961 . S
H1574 C1560 0.961 . S
H1575 C1561 0.958 . S
H1576 C1561 0.961 . S
H1577 C1561 0.960 . S
C1578 C1579 1.391 . S
C1578 C1580 1.394 . S
C1578 H1594 0.931 . S
C1579 C1578 1.391 . S
C1579 C1583 1.376 . S
C1580 C1578 1.394 . S
C1580 C1581 1.369 . S
C1580 C1584 1.531 . S
C1581 C1580 1.369 . S
C1581 C1582 1.410 . S
C1581 C1589 1.503 . S
C1582 C1581 1.410 . S
C1582 C1583 1.392 . S
C1582 C1585 1.511 . S
C1583 C1579 1.376 . S
C1583 C1582 1.392 . S
C1583 H1595 0.929 . S
C1584 C1580 1.531 . S
C1584 H1596 0.960 . S
C1584 H1597 0.962 . S
C1584 H1598 0.960 . S
C1585 C1582 1.511 . S
C1585 H1599 0.961 . S
C1585 H1600 0.961 . S
C1585 H1601 0.961 . S
C1586 C1587 1.370 . S
C1586 C1588 1.363 . S
C1586 H1602 0.931 . S
C1587 C1586 1.370 . S
C1587 C1591 1.408 . S
C1588 C1586 1.363 . S
C1588 C1589 1.370 . S
C1588 C1592 1.524 . S
C1589 C1581 1.503 . S
C1589 C1588 1.370 . S
C1589 C1590 1.403 . S
C1590 C1589 1.403 . S
C1590 C1591 1.404 . S
C1590 C1593 1.539 . S
C1591 C1587 1.408 . S
C1591 C1590 1.404 . S
C1591 H1603 0.930 . S
C1592 C1588 1.524 . S
C1592 H1604 0.956 . S
C1592 H1605 0.961 . S
C1592 H1606 0.961 . S
C1593 C1590 1.539 . S
C1593 H1607 0.958 . S
C1593 H1608 0.961 . S
C1593 H1609 0.960 . S
H1594 C1578 0.931 . S
H1595 C1583 0.929 . S
H1596 C1584 0.960 . S
H1597 C1584 0.962 . S
H1598 C1584 0.960 . S
H1599 C1585 0.961 . S
H1600 C1585 0.961 . S
H1601 C1585 0.961 . S
H1602 C1586 0.931 . S
H1603 C1591 0.930 . S
H1604 C1592 0.956 . S
H1605 C1592 0.961 . S
H1606 C1592 0.961 . S
H1607 C1593 0.958 . S
H1608 C1593 0.961 . S
H1609 C1593 0.960 . S
C1610 C1611 1.391 . S
C1610 C1612 1.394 . S
C1610 H1626 0.931 . S
C1611 C1610 1.391 . S
C1611 C1615 1.376 . S
C1612 C1610 1.394 . S
C1612 C1613 1.369 . S
C1612 C1616 1.531 . S
C1613 C1612 1.369 . S
C1613 C1614 1.410 . S
C1613 C1621 1.503 . S
C1614 C1613 1.410 . S
C1614 C1615 1.392 . S
C1614 C1617 1.511 . S
C1615 C1611 1.376 . S
C1615 C1614 1.392 . S
C1615 H1627 0.929 . S
C1616 C1612 1.531 . S
C1616 H1628 0.960 . S
C1616 H1629 0.962 . S
C1616 H1630 0.960 . S
C1617 C1614 1.511 . S
C1617 H1631 0.961 . S
C1617 H1632 0.961 . S
C1617 H1633 0.961 . S
C1618 C1619 1.370 . S
C1618 C1620 1.363 . S
C1618 H1634 0.931 . S
C1619 C1618 1.370 . S
C1619 C1623 1.408 . S
C1620 C1618 1.363 . S
C1620 C1621 1.370 . S
C1620 C1624 1.524 . S
C1621 C1613 1.503 . S
C1621 C1620 1.370 . S
C1621 C1622 1.403 . S
C1622 C1621 1.403 . S
C1622 C1623 1.404 . S
C1622 C1625 1.539 . S
C1623 C1619 1.408 . S
C1623 C1622 1.404 . S
C1623 H1635 0.930 . S
C1624 C1620 1.524 . S
C1624 H1636 0.956 . S
C1624 H1637 0.961 . S
C1624 H1638 0.961 . S
C1625 C1622 1.539 . S
C1625 H1639 0.958 . S
C1625 H1640 0.961 . S
C1625 H1641 0.960 . S
H1626 C1610 0.931 . S
H1627 C1615 0.929 . S
H1628 C1616 0.960 . S
H1629 C1616 0.962 . S
H1630 C1616 0.960 . S
H1631 C1617 0.961 . S
H1632 C1617 0.961 . S
H1633 C1617 0.961 . S
H1634 C1618 0.931 . S
H1635 C1623 0.930 . S
H1636 C1624 0.956 . S
H1637 C1624 0.961 . S
H1638 C1624 0.961 . S
H1639 C1625 0.958 . S
H1640 C1625 0.961 . S
H1641 C1625 0.960 . S
C1642 C1643 1.391 . S
C1642 C1644 1.394 . S
C1642 H1658 0.931 . S
C1643 C1642 1.391 . S
C1643 C1647 1.376 . S
C1644 C1642 1.394 . S
C1644 C1645 1.369 . S
C1644 C1648 1.531 . S
C1645 C1644 1.369 . S
C1645 C1646 1.410 . S
C1645 C1653 1.503 . S
C1646 C1645 1.410 . S
C1646 C1647 1.392 . S
C1646 C1649 1.511 . S
C1647 C1643 1.376 . S
C1647 C1646 1.392 . S
C1647 H1659 0.929 . S
C1648 C1644 1.531 . S
C1648 H1660 0.960 . S
C1648 H1661 0.962 . S
C1648 H1662 0.960 . S
C1649 C1646 1.511 . S
C1649 H1663 0.961 . S
C1649 H1664 0.961 . S
C1649 H1665 0.961 . S
C1650 C1651 1.370 . S
C1650 C1652 1.363 . S
C1650 H1666 0.931 . S
C1651 C1650 1.370 . S
C1651 C1655 1.408 . S
C1652 C1650 1.363 . S
C1652 C1653 1.370 . S
C1652 C1656 1.524 . S
C1653 C1645 1.503 . S
C1653 C1652 1.370 . S
C1653 C1654 1.403 . S
C1654 C1653 1.403 . S
C1654 C1655 1.404 . S
C1654 C1657 1.539 . S
C1655 C1651 1.408 . S
C1655 C1654 1.404 . S
C1655 H1667 0.930 . S
C1656 C1652 1.524 . S
C1656 H1668 0.956 . S
C1656 H1669 0.961 . S
C1656 H1670 0.961 . S
C1657 C1654 1.539 . S
C1657 H1671 0.958 . S
C1657 H1672 0.961 . S
C1657 H1673 0.960 . S
H1658 C1642 0.931 . S
H1659 C1647 0.929 . S
H1660 C1648 0.960 . S
H1661 C1648 0.962 . S
H1662 C1648 0.960 . S
H1663 C1649 0.961 . S
H1664 C1649 0.961 . S
H1665 C1649 0.961 . S
H1666 C1650 0.931 . S
H1667 C1655 0.930 . S
H1668 C1656 0.956 . S
H1669 C1656 0.961 . S
H1670 C1656 0.961 . S
H1671 C1657 0.958 . S
H1672 C1657 0.961 . S
H1673 C1657 0.960 . S
C1674 C1675 1.391 . S
C1674 C1676 1.394 . S
C1674 H1690 0.931 . S
C1675 C1674 1.391 . S
C1675 C1679 1.376 . S
C1676 C1674 1.394 . S
C1676 C1677 1.369 . S
C1676 C1680 1.531 . S
C1677 C1676 1.369 . S
C1677 C1678 1.410 . S
C1677 C1685 1.503 . S
C1678 C1677 1.410 . S
C1678 C1679 1.392 . S
C1678 C1681 1.511 . S
C1679 C1675 1.376 . S
C1679 C1678 1.392 . S
C1679 H1691 0.929 . S
C1680 C1676 1.531 . S
C1680 H1692 0.960 . S
C1680 H1693 0.962 . S
C1680 H1694 0.960 . S
C1681 C1678 1.511 . S
C1681 H1695 0.961 . S
C1681 H1696 0.961 . S
C1681 H1697 0.961 . S
C1682 C1683 1.370 . S
C1682 C1684 1.363 . S
C1682 H1698 0.931 . S
C1683 C1682 1.370 . S
C1683 C1687 1.408 . S
C1684 C1682 1.363 . S
C1684 C1685 1.370 . S
C1684 C1688 1.524 . S
C1685 C1677 1.503 . S
C1685 C1684 1.370 . S
C1685 C1686 1.403 . S
C1686 C1685 1.403 . S
C1686 C1687 1.404 . S
C1686 C1689 1.539 . S
C1687 C1683 1.408 . S
C1687 C1686 1.404 . S
C1687 H1699 0.930 . S
C1688 C1684 1.524 . S
C1688 H1700 0.956 . S
C1688 H1701 0.961 . S
C1688 H1702 0.961 . S
C1689 C1686 1.539 . S
C1689 H1703 0.958 . S
C1689 H1704 0.961 . S
C1689 H1705 0.960 . S
H1690 C1674 0.931 . S
H1691 C1679 0.929 . S
H1692 C1680 0.960 . S
H1693 C1680 0.962 . S
H1694 C1680 0.960 . S
H1695 C1681 0.961 . S
H1696 C1681 0.961 . S
H1697 C1681 0.961 . S
H1698 C1682 0.931 . S
H1699 C1687 0.930 . S
H1700 C1688 0.956 . S
H1701 C1688 0.961 . S
H1702 C1688 0.961 . S
H1703 C1689 0.958 . S
H1704 C1689 0.961 . S
H1705 C1689 0.960 . S
C1706 C1707 1.391 . S
C1706 C1708 1.394 . S
C1706 H1722 0.931 . S
C1707 C1706 1.391 . S
C1707 C1711 1.376 . S
C1708 C1706 1.394 . S
C1708 C1709 1.369 . S
C1708 C1712 1.531 . S
C1709 C1708 1.369 . S
C1709 C1710 1.410 . S
C1709 C1717 1.503 . S
C1710 C1709 1.410 . S
C1710 C1711 1.392 . S
C1710 C1713 1.511 . S
C1711 C1707 1.376 . S
C1711 C1710 1.392 . S
C1711 H1723 0.929 . S
C1712 C1708 1.531 . S
C1712 H1724 0.960 . S
C1712 H1725 0.962 . S
C1712 H1726 0.960 . S
C1713 C1710 1.511 . S
C1713 H1727 0.961 . S
C1713 H1728 0.961 . S
C1713 H1729 0.961 . S
C1714 C1715 1.370 . S
C1714 C1716 1.363 . S
C1714 H1730 0.931 . S
C1715 C1714 1.370 . S
C1715 C1719 1.408 . S
C1716 C1714 1.363 . S
C1716 C1717 1.370 . S
C1716 C1720 1.524 . S
C1717 C1709 1.503 . S
C1717 C1716 1.370 . S
C1717 C1718 1.403 . S
C1718 C1717 1.403 . S
C1718 C1719 1.404 . S
C1718 C1721 1.539 . S
C1719 C1715 1.408 . S
C1719 C1718 1.404 . S
C1719 H1731 0.930 . S
C1720 C1716 1.524 . S
C1720 H1732 0.956 . S
C1720 H1733 0.961 . S
C1720 H1734 0.961 . S
C1721 C1718 1.539 . S
C1721 H1735 0.958 . S
C1721 H1736 0.961 . S
C1721 H1737 0.960 . S
H1722 C1706 0.931 . S
H1723 C1711 0.929 . S
H1724 C1712 0.960 . S
H1725 C1712 0.962 . S
H1726 C1712 0.960 . S
H1727 C1713 0.961 . S
H1728 C1713 0.961 . S
H1729 C1713 0.961 . S
H1730 C1714 0.931 . S
H1731 C1719 0.930 . S
H1732 C1720 0.956 . S
H1733 C1720 0.961 . S
H1734 C1720 0.961 . S
H1735 C1721 0.958 . S
H1736 C1721 0.961 . S
H1737 C1721 0.960 . S
C1738 C1739 1.391 . S
C1738 C1740 1.394 . S
C1738 H1754 0.931 . S
C1739 C1738 1.391 . S
C1739 C1743 1.376 . S
C1740 C1738 1.394 . S
C1740 C1741 1.369 . S
C1740 C1744 1.531 . S
C1741 C1740 1.369 . S
C1741 C1742 1.410 . S
C1741 C1749 1.503 . S
C1742 C1741 1.410 . S
C1742 C1743 1.392 . S
C1742 C1745 1.511 . S
C1743 C1739 1.376 . S
C1743 C1742 1.392 . S
C1743 H1755 0.929 . S
C1744 C1740 1.531 . S
C1744 H1756 0.960 . S
C1744 H1757 0.962 . S
C1744 H1758 0.960 . S
C1745 C1742 1.511 . S
C1745 H1759 0.961 . S
C1745 H1760 0.961 . S
C1745 H1761 0.961 . S
C1746 C1747 1.370 . S
C1746 C1748 1.363 . S
C1746 H1762 0.931 . S
C1747 C1746 1.370 . S
C1747 C1751 1.408 . S
C1748 C1746 1.363 . S
C1748 C1749 1.370 . S
C1748 C1752 1.524 . S
C1749 C1741 1.503 . S
C1749 C1748 1.370 . S
C1749 C1750 1.403 . S
C1750 C1749 1.403 . S
C1750 C1751 1.404 . S
C1750 C1753 1.539 . S
C1751 C1747 1.408 . S
C1751 C1750 1.404 . S
C1751 H1763 0.930 . S
C1752 C1748 1.524 . S
C1752 H1764 0.956 . S
C1752 H1765 0.961 . S
C1752 H1766 0.961 . S
C1753 C1750 1.539 . S
C1753 H1767 0.958 . S
C1753 H1768 0.961 . S
C1753 H1769 0.960 . S
H1754 C1738 0.931 . S
H1755 C1743 0.929 . S
H1756 C1744 0.960 . S
H1757 C1744 0.962 . S
H1758 C1744 0.960 . S
H1759 C1745 0.961 . S
H1760 C1745 0.961 . S
H1761 C1745 0.961 . S
H1762 C1746 0.931 . S
H1763 C1751 0.930 . S
H1764 C1752 0.956 . S
H1765 C1752 0.961 . S
H1766 C1752 0.961 . S
H1767 C1753 0.958 . S
H1768 C1753 0.961 . S
H1769 C1753 0.960 . S
C1770 C1771 1.391 . S
C1770 C1772 1.394 . S
C1770 H1786 0.931 . S
C1771 C1770 1.391 . S
C1771 C1775 1.376 . S
C1772 C1770 1.394 . S
C1772 C1773 1.369 . S
C1772 C1776 1.531 . S
C1773 C1772 1.369 . S
C1773 C1774 1.410 . S
C1773 C1781 1.503 . S
C1774 C1773 1.410 . S
C1774 C1775 1.392 . S
C1774 C1777 1.511 . S
C1775 C1771 1.376 . S
C1775 C1774 1.392 . S
C1775 H1787 0.929 . S
C1776 C1772 1.531 . S
C1776 H1788 0.960 . S
C1776 H1789 0.962 . S
C1776 H1790 0.960 . S
C1777 C1774 1.511 . S
C1777 H1791 0.961 . S
C1777 H1792 0.961 . S
C1777 H1793 0.961 . S
C1778 C1779 1.370 . S
C1778 C1780 1.363 . S
C1778 H1794 0.931 . S
C1779 C1778 1.370 . S
C1779 C1783 1.408 . S
C1780 C1778 1.363 . S
C1780 C1781 1.370 . S
C1780 C1784 1.524 . S
C1781 C1773 1.503 . S
C1781 C1780 1.370 . S
C1781 C1782 1.403 . S
C1782 C1781 1.403 . S
C1782 C1783 1.404 . S
C1782 C1785 1.539 . S
C1783 C1779 1.408 . S
C1783 C1782 1.404 . S
C1783 H1795 0.930 . S
C1784 C1780 1.524 . S
C1784 H1796 0.956 . S
C1784 H1797 0.961 . S
C1784 H1798 0.961 . S
C1785 C1782 1.539 . S
C1785 H1799 0.958 . S
C1785 H1800 0.961 . S
C1785 H1801 0.960 . S
H1786 C1770 0.931 . S
H1787 C1775 0.929 . S
H1788 C1776 0.960 . S
H1789 C1776 0.962 . S
H1790 C1776 0.960 . S
H1791 C1777 0.961 . S
H1792 C1777 0.961 . S
H1793 C1777 0.961 . S
H1794 C1778 0.931 . S
H1795 C1783 0.930 . S
H1796 C1784 0.956 . S
H1797 C1784 0.961 . S
H1798 C1784 0.961 . S
H1799 C1785 0.958 . S
H1800 C1785 0.961 . S
H1801 C1785 0.960 . S
C1802 C1803 1.391 . S
C1802 C1804 1.394 . S
C1802 H1818 0.931 . S
C1803 C1802 1.391 . S
C1803 C1807 1.376 . S
C1804 C1802 1.394 . S
C1804 C1805 1.369 . S
C1804 C1808 1.531 . S
C1805 C1804 1.369 . S
C1805 C1806 1.410 . S
C1805 C1813 1.503 . S
C1806 C1805 1.410 . S
C1806 C1807 1.392 . S
C1806 C1809 1.511 . S
C1807 C1803 1.376 . S
C1807 C1806 1.392 . S
C1807 H1819 0.929 . S
C1808 C1804 1.531 . S
C1808 H1820 0.960 . S
C1808 H1821 0.962 . S
C1808 H1822 0.960 . S
C1809 C1806 1.511 . S
C1809 H1823 0.961 . S
C1809 H1824 0.961 . S
C1809 H1825 0.961 . S
C1810 C1811 1.370 . S
C1810 C1812 1.363 . S
C1810 H1826 0.931 . S
C1811 C1810 1.370 . S
C1811 C1815 1.408 . S
C1812 C1810 1.363 . S
C1812 C1813 1.370 . S
C1812 C1816 1.524 . S
C1813 C1805 1.503 . S
C1813 C1812 1.370 . S
C1813 C1814 1.403 . S
C1814 C1813 1.403 . S
C1814 C1815 1.404 . S
C1814 C1817 1.539 . S
C1815 C1811 1.408 . S
C1815 C1814 1.404 . S
C1815 H1827 0.930 . S
C1816 C1812 1.524 . S
C1816 H1828 0.956 . S
C1816 H1829 0.961 . S
C1816 H1830 0.961 . S
C1817 C1814 1.539 . S
C1817 H1831 0.958 . S
C1817 H1832 0.961 . S
C1817 H1833 0.960 . S
H1818 C1802 0.931 . S
H1819 C1807 0.929 . S
H1820 C1808 0.960 . S
H1821 C1808 0.962 . S
H1822 C1808 0.960 . S
H1823 C1809 0.961 . S
H1824 C1809 0.961 . S
H1825 C1809 0.961 . S
H1826 C1810 0.931 . S
H1827 C1815 0.930 . S
H1828 C1816 0.956 . S
H1829 C1816 0.961 . S
H1830 C1816 0.961 . S
H1831 C1817 0.958 . S
H1832 C1817 0.961 . S
H1833 C1817 0.960 . S
C1834 C1835 1.391 . S
C1834 C1836 1.394 . S
C1834 H1850 0.931 . S
C1835 C1834 1.391 . S
C1835 C1839 1.376 . S
C1836 C1834 1.394 . S
C1836 C1837 1.369 . S
C1836 C1840 1.531 . S
C1837 C1836 1.369 . S
C1837 C1838 1.410 . S
C1837 C1845 1.503 . S
C1838 C1837 1.410 . S
C1838 C1839 1.392 . S
C1838 C1841 1.511 . S
C1839 C1835 1.376 . S
C1839 C1838 1.392 . S
C1839 H1851 0.929 . S
C1840 C1836 1.531 . S
C1840 H1852 0.960 . S
C1840 H1853 0.962 . S
C1840 H1854 0.960 . S
C1841 C1838 1.511 . S
C1841 H1855 0.961 . S
C1841 H1856 0.961 . S
C1841 H1857 0.961 . S
C1842 C1843 1.370 . S
C1842 C1844 1.363 . S
C1842 H1858 0.931 . S
C1843 C1842 1.370 . S
C1843 C1847 1.408 . S
C1844 C1842 1.363 . S
C1844 C1845 1.370 . S
C1844 C1848 1.524 . S
C1845 C1837 1.503 . S
C1845 C1844 1.370 . S
C1845 C1846 1.403 . S
C1846 C1845 1.403 . S
C1846 C1847 1.404 . S
C1846 C1849 1.539 . S
C1847 C1843 1.408 . S
C1847 C1846 1.404 . S
C1847 H1859 0.930 . S
C1848 C1844 1.524 . S
C1848 H1860 0.956 . S
C1848 H1861 0.961 . S
C1848 H1862 0.961 . S
C1849 C1846 1.539 . S
C1849 H1863 0.958 . S
C1849 H1864 0.961 . S
C1849 H1865 0.960 . S
H1850 C1834 0.931 . S
H1851 C1839 0.929 . S
H1852 C1840 0.960 . S
H1853 C1840 0.962 . S
H1854 C1840 0.960 . S
H1855 C1841 0.961 . S
H1856 C1841 0.961 . S
H1857 C1841 0.961 . S
H1858 C1842 0.931 . S
H1859 C1847 0.930 . S
H1860 C1848 0.956 . S
H1861 C1848 0.961 . S
H1862 C1848 0.961 . S
H1863 C1849 0.958 . S
H1864 C1849 0.961 . S
H1865 C1849 0.960 . S
C1866 C1867 1.391 . S
C1866 C1868 1.394 . S
C1866 H1882 0.931 . S
C1867 C1866 1.391 . S
C1867 C1871 1.376 . S
C1868 C1866 1.394 . S
C1868 C1869 1.369 . S
C1868 C1872 1.531 . S
C1869 C1868 1.369 . S
C1869 C1870 1.410 . S
C1869 C1877 1.503 . S
C1870 C1869 1.410 . S
C1870 C1871 1.392 . S
C1870 C1873 1.511 . S
C1871 C1867 1.376 . S
C1871 C1870 1.392 . S
C1871 H1883 0.929 . S
C1872 C1868 1.531 . S
C1872 H1884 0.960 . S
C1872 H1885 0.962 . S
C1872 H1886 0.960 . S
C1873 C1870 1.511 . S
C1873 H1887 0.961 . S
C1873 H1888 0.961 . S
C1873 H1889 0.961 . S
C1874 C1875 1.370 . S
C1874 C1876 1.363 . S
C1874 H1890 0.931 . S
C1875 C1874 1.370 . S
C1875 C1879 1.408 . S
C1876 C1874 1.363 . S
C1876 C1877 1.370 . S
C1876 C1880 1.524 . S
C1877 C1869 1.503 . S
C1877 C1876 1.370 . S
C1877 C1878 1.403 . S
C1878 C1877 1.403 . S
C1878 C1879 1.404 . S
C1878 C1881 1.539 . S
C1879 C1875 1.408 . S
C1879 C1878 1.404 . S
C1879 H1891 0.930 . S
C1880 C1876 1.524 . S
C1880 H1892 0.956 . S
C1880 H1893 0.961 . S
C1880 H1894 0.961 . S
C1881 C1878 1.539 . S
C1881 H1895 0.958 . S
C1881 H1896 0.961 . S
C1881 H1897 0.960 . S
H1882 C1866 0.931 . S
H1883 C1871 0.929 . S
H1884 C1872 0.960 . S
H1885 C1872 0.962 . S
H1886 C1872 0.960 . S
H1887 C1873 0.961 . S
H1888 C1873 0.961 . S
H1889 C1873 0.961 . S
H1890 C1874 0.931 . S
H1891 C1879 0.930 . S
H1892 C1880 0.956 . S
H1893 C1880 0.961 . S
H1894 C1880 0.961 . S
H1895 C1881 0.958 . S
H1896 C1881 0.961 . S
H1897 C1881 0.960 . S
C1898 C1899 1.391 . S
C1898 C1900 1.394 . S
C1898 H1914 0.931 . S
C1899 C1898 1.391 . S
C1899 C1903 1.376 . S
C1900 C1898 1.394 . S
C1900 C1901 1.369 . S
C1900 C1904 1.531 . S
C1901 C1900 1.369 . S
C1901 C1902 1.410 . S
C1901 C1909 1.503 . S
C1902 C1901 1.410 . S
C1902 C1903 1.392 . S
C1902 C1905 1.511 . S
C1903 C1899 1.376 . S
C1903 C1902 1.392 . S
C1903 H1915 0.929 . S
C1904 C1900 1.531 . S
C1904 H1916 0.960 . S
C1904 H1917 0.962 . S
C1904 H1918 0.960 . S
C1905 C1902 1.511 . S
C1905 H1919 0.961 . S
C1905 H1920 0.961 . S
C1905 H1921 0.961 . S
C1906 C1907 1.370 . S
C1906 C1908 1.363 . S
C1906 H1922 0.931 . S
C1907 C1906 1.370 . S
C1907 C1911 1.408 . S
C1908 C1906 1.363 . S
C1908 C1909 1.370 . S
C1908 C1912 1.524 . S
C1909 C1901 1.503 . S
C1909 C1908 1.370 . S
C1909 C1910 1.403 . S
C1910 C1909 1.403 . S
C1910 C1911 1.404 . S
C1910 C1913 1.539 . S
C1911 C1907 1.408 . S
C1911 C1910 1.404 . S
C1911 H1923 0.930 . S
C1912 C1908 1.524 . S
C1912 H1924 0.956 . S
C1912 H1925 0.961 . S
C1912 H1926 0.961 . S
C1913 C1910 1.539 . S
C1913 H1927 0.958 . S
C1913 H1928 0.961 . S
C1913 H1929 0.960 . S
H1914 C1898 0.931 . S
H1915 C1903 0.929 . S
H1916 C1904 0.960 . S
H1917 C1904 0.962 . S
H1918 C1904 0.960 . S
H1919 C1905 0.961 . S
H1920 C1905 0.961 . S
H1921 C1905 0.961 . S
H1922 C1906 0.931 . S
H1923 C1911 0.930 . S
H1924 C1912 0.956 . S
H1925 C1912 0.961 . S
H1926 C1912 0.961 . S
H1927 C1913 0.958 . S
H1928 C1913 0.961 . S
H1929 C1913 0.960 . S
C1930 C1931 1.391 . S
C1930 C1932 1.394 . S
C1930 H1946 0.931 . S
C1931 C1930 1.391 . S
C1931 C1935 1.376 . S
C1932 C1930 1.394 . S
C1932 C1933 1.369 . S
C1932 C1936 1.531 . S
C1933 C1932 1.369 . S
C1933 C1934 1.410 . S
C1933 C1941 1.503 . S
C1934 C1933 1.410 . S
C1934 C1935 1.392 . S
C1934 C1937 1.511 . S
C1935 C1931 1.376 . S
C1935 C1934 1.392 . S
C1935 H1947 0.929 . S
C1936 C1932 1.531 . S
C1936 H1948 0.960 . S
C1936 H1949 0.962 . S
C1936 H1950 0.960 . S
C1937 C1934 1.511 . S
C1937 H1951 0.961 . S
C1937 H1952 0.961 . S
C1937 H1953 0.961 . S
C1938 C1939 1.370 . S
C1938 C1940 1.363 . S
C1938 H1954 0.931 . S
C1939 C1938 1.370 . S
C1939 C1943 1.408 . S
C1940 C1938 1.363 . S
C1940 C1941 1.370 . S
C1940 C1944 1.524 . S
C1941 C1933 1.503 . S
C1941 C1940 1.370 . S
C1941 C1942 1.403 . S
C1942 C1941 1.403 . S
C1942 C1943 1.404 . S
C1942 C1945 1.539 . S
C1943 C1939 1.408 . S
C1943 C1942 1.404 . S
C1943 H1955 0.930 . S
C1944 C1940 1.524 . S
C1944 H1956 0.956 . S
C1944 H1957 0.961 . S
C1944 H1958 0.961 . S
C1945 C1942 1.539 . S
C1945 H1959 0.958 . S
C1945 H1960 0.961 . S
C1945 H1961 0.960 . S
H1946 C1930 0.931 . S
H1947 C1935 0.929 . S
H1948 C1936 0.960 . S
H1949 C1936 0.962 . S
H1950 C1936 0.960 . S
H1951 C1937 0.961 . S
H1952 C1937 0.961 . S
H1953 C1937 0.961 . S
H1954 C1938 0.931 . S
H1955 C1943 0.930 . S
H1956 C1944 0.956 . S
H1957 C1944 0.961 . S
H1958 C1944 0.961 . S
H1959 C1945 0.958 . S
H1960 C1945 0.961 . S
H1961 C1945 0.960 . S
C1962 C1963 1.391 . S
C1962 C1964 1.394 . S
C1962 H1978 0.931 . S
C1963 C1962 1.391 . S
C1963 C1967 1.376 . S
C1964 C1962 1.394 . S
C1964 C1965 1.369 . S
C1964 C1968 1.531 . S
C1965 C1964 1.369 . S
C1965 C1966 1.410 . S
C1965 C1973 1.503 . S
C1966 C1965 1.410 . S
C1966 C1967 1.392 . S
C1966 C1969 1.511 . S
C1967 C1963 1.376 . S
C1967 C1966 1.392 . S
C1967 H1979 0.929 . S
C1968 C1964 1.531 . S
C1968 H1980 0.960 . S
C1968 H1981 0.962 . S
C1968 H1982 0.960 . S
C1969 C1966 1.511 . S
C1969 H1983 0.961 . S
C1969 H1984 0.961 . S
C1969 H1985 0.961 . S
C1970 C1971 1.370 . S
C1970 C1972 1.363 . S
C1970 H1986 0.931 . S
C1971 C1970 1.370 . S
C1971 C1975 1.408 . S
C1972 C1970 1.363 . S
C1972 C1973 1.370 . S
C1972 C1976 1.524 . S
C1973 C1965 1.503 . S
C1973 C1972 1.370 . S
C1973 C1974 1.403 . S
C1974 C1973 1.403 . S
C1974 C1975 1.404 . S
C1974 C1977 1.539 . S
C1975 C1971 1.408 . S
C1975 C1974 1.404 . S
C1975 H1987 0.930 . S
C1976 C1972 1.524 . S
C1976 H1988 0.956 . S
C1976 H1989 0.961 . S
C1976 H1990 0.961 . S
C1977 C1974 1.539 . S
C1977 H1991 0.958 . S
C1977 H1992 0.961 . S
C1977 H1993 0.960 . S
H1978 C1962 0.931 . S
H1979 C1967 0.929 . S
H1980 C1968 0.960 . S
H1981 C1968 0.962 . S
H1982 C1968 0.960 . S
H1983 C1969 0.961 . S
H1984 C1969 0.961 . S
H1985 C1969 0.961 . S
H1986 C1970 0.931 . S
H1987 C1975 0.930 . S
H1988 C1976 0.956 . S
H1989 C1976 0.961 . S
H1990 C1976 0.961 . S
H1991 C1977 0.958 . S
H1992 C1977 0.961 . S
H1993 C1977 0.960 . S
C1994 C1995 1.391 . S
C1994 C1996 1.394 . S
C1994 H2010 0.931 . S
C1995 C1994 1.391 . S
C1995 C1999 1.376 . S
C1996 C1994 1.394 . S
C1996 C1997 1.369 . S
C1996 C2000 1.531 . S
C1997 C1996 1.369 . S
C1997 C1998 1.410 . S
C1997 C2005 1.503 . S
C1998 C1997 1.410 . S
C1998 C1999 1.392 . S
C1998 C2001 1.511 . S
C1999 C1995 1.376 . S
C1999 C1998 1.392 . S
C1999 H2011 0.929 . S
C2000 C1996 1.531 . S
C2000 H2012 0.960 . S
C2000 H2013 0.962 . S
C2000 H2014 0.960 . S
C2001 C1998 1.511 . S
C2001 H2015 0.961 . S
C2001 H2016 0.961 . S
C2001 H2017 0.961 . S
C2002 C2003 1.370 . S
C2002 C2004 1.363 . S
C2002 H2018 0.931 . S
C2003 C2002 1.370 . S
C2003 C2007 1.408 . S
C2004 C2002 1.363 . S
C2004 C2005 1.370 . S
C2004 C2008 1.524 . S
C2005 C1997 1.503 . S
C2005 C2004 1.370 . S
C2005 C2006 1.403 . S
C2006 C2005 1.403 . S
C2006 C2007 1.404 . S
C2006 C2009 1.539 . S
C2007 C2003 1.408 . S
C2007 C2006 1.404 . S
C2007 H2019 0.930 . S
C2008 C2004 1.524 . S
C2008 H2020 0.956 . S
C2008 H2021 0.961 . S
C2008 H2022 0.961 . S
C2009 C2006 1.539 . S
C2009 H2023 0.958 . S
C2009 H2024 0.961 . S
C2009 H2025 0.960 . S
H2010 C1994 0.931 . S
H2011 C1999 0.929 . S
H2012 C2000 0.960 . S
H2013 C2000 0.962 . S
H2014 C2000 0.960 . S
H2015 C2001 0.961 . S
H2016 C2001 0.961 . S
H2017 C2001 0.961 . S
H2018 C2002 0.931 . S
H2019 C2007 0.930 . S
H2020 C2008 0.956 . S
H2021 C2008 0.961 . S
H2022 C2008 0.961 . S
H2023 C2009 0.958 . S
H2024 C2009 0.961 . S
H2025 C2009 0.960 . S
C2026 C2027 1.391 . S
C2026 C2028 1.394 . S
C2026 H2042 0.931 . S
C2027 C2026 1.391 . S
C2027 C2031 1.376 . S
C2028 C2026 1.394 . S
C2028 C2029 1.369 . S
C2028 C2032 1.531 . S
C2029 C2028 1.369 . S
C2029 C2030 1.410 . S
C2029 C2037 1.503 . S
C2030 C2029 1.410 . S
C2030 C2031 1.392 . S
C2030 C2033 1.511 . S
C2031 C2027 1.376 . S
C2031 C2030 1.392 . S
C2031 H2043 0.929 . S
C2032 C2028 1.531 . S
C2032 H2044 0.960 . S
C2032 H2045 0.962 . S
C2032 H2046 0.960 . S
C2033 C2030 1.511 . S
C2033 H2047 0.961 . S
C2033 H2048 0.961 . S
C2033 H2049 0.961 . S
C2034 C2035 1.370 . S
C2034 C2036 1.363 . S
C2034 H2050 0.931 . S
C2035 C2034 1.370 . S
C2035 C2039 1.408 . S
C2036 C2034 1.363 . S
C2036 C2037 1.370 . S
C2036 C2040 1.524 . S
C2037 C2029 1.503 . S
C2037 C2036 1.370 . S
C2037 C2038 1.403 . S
C2038 C2037 1.403 . S
C2038 C2039 1.404 . S
C2038 C2041 1.539 . S
C2039 C2035 1.408 . S
C2039 C2038 1.404 . S
C2039 H2051 0.930 . S
C2040 C2036 1.524 . S
C2040 H2052 0.956 . S
C2040 H2053 0.961 . S
C2040 H2054 0.961 . S
C2041 C2038 1.539 . S
C2041 H2055 0.958 . S
C2041 H2056 0.961 . S
C2041 H2057 0.960 . S
H2042 C2026 0.931 . S
H2043 C2031 0.929 . S
H2044 C2032 0.960 . S
H2045 C2032 0.962 . S
H2046 C2032 0.960 . S
H2047 C2033 0.961 . S
H2048 C2033 0.961 . S
H2049 C2033 0.961 . S
H2050 C2034 0.931 . S
H2051 C2039 0.930 . S
H2052 C2040 0.956 . S
H2053 C2040 0.961 . S
H2054 C2040 0.961 . S
H2055 C2041 0.958 . S
H2056 C2041 0.961 . S
H2057 C2041 0.960 . S
C2058 C2059 1.391 . S
C2058 C2060 1.394 . S
C2058 H2074 0.931 . S
C2059 C2058 1.391 . S
C2059 C2063 1.376 . S
C2060 C2058 1.394 . S
C2060 C2061 1.369 . S
C2060 C2064 1.531 . S
C2061 C2060 1.369 . S
C2061 C2062 1.410 . S
C2061 C2069 1.503 . S
C2062 C2061 1.410 . S
C2062 C2063 1.392 . S
C2062 C2065 1.511 . S
C2063 C2059 1.376 . S
C2063 C2062 1.392 . S
C2063 H2075 0.929 . S
C2064 C2060 1.531 . S
C2064 H2076 0.960 . S
C2064 H2077 0.962 . S
C2064 H2078 0.960 . S
C2065 C2062 1.511 . S
C2065 H2079 0.961 . S
C2065 H2080 0.961 . S
C2065 H2081 0.961 . S
C2066 C2067 1.370 . S
C2066 C2068 1.363 . S
C2066 H2082 0.931 . S
C2067 C2066 1.370 . S
C2067 C2071 1.408 . S
C2068 C2066 1.363 . S
C2068 C2069 1.370 . S
C2068 C2072 1.524 . S
C2069 C2061 1.503 . S
C2069 C2068 1.370 . S
C2069 C2070 1.403 . S
C2070 C2069 1.403 . S
C2070 C2071 1.404 . S
C2070 C2073 1.539 . S
C2071 C2067 1.408 . S
C2071 C2070 1.404 . S
C2071 H2083 0.930 . S
C2072 C2068 1.524 . S
C2072 H2084 0.956 . S
C2072 H2085 0.961 . S
C2072 H2086 0.961 . S
C2073 C2070 1.539 . S
C2073 H2087 0.958 . S
C2073 H2088 0.961 . S
C2073 H2089 0.960 . S
H2074 C2058 0.931 . S
H2075 C2063 0.929 . S
H2076 C2064 0.960 . S
H2077 C2064 0.962 . S
H2078 C2064 0.960 . S
H2079 C2065 0.961 . S
H2080 C2065 0.961 . S
H2081 C2065 0.961 . S
H2082 C2066 0.931 . S
H2083 C2071 0.930 . S
H2084 C2072 0.956 . S
H2085 C2072 0.961 . S
H2086 C2072 0.961 . S
H2087 C2073 0.958 . S
H2088 C2073 0.961 . S
H2089 C2073 0.960 . S
C2090 C2091 1.391 . S
C2090 C2092 1.394 . S
C2090 H2106 0.931 . S
C2091 C2090 1.391 . S
C2091 C2095 1.376 . S
C2092 C2090 1.394 . S
C2092 C2093 1.369 . S
C2092 C2096 1.531 . S
C2093 C2092 1.369 . S
C2093 C2094 1.410 . S
C2093 C2101 1.503 . S
C2094 C2093 1.410 . S
C2094 C2095 1.392 . S
C2094 C2097 1.511 . S
C2095 C2091 1.376 . S
C2095 C2094 1.392 . S
C2095 H2107 0.929 . S
C2096 C2092 1.531 . S
C2096 H2108 0.960 . S
C2096 H2109 0.962 . S
C2096 H2110 0.960 . S
C2097 C2094 1.511 . S
C2097 H2111 0.961 . S
C2097 H2112 0.961 . S
C2097 H2113 0.961 . S
C2098 C2099 1.370 . S
C2098 C2100 1.363 . S
C2098 H2114 0.931 . S
C2099 C2098 1.370 . S
C2099 C2103 1.408 . S
C2100 C2098 1.363 . S
C2100 C2101 1.370 . S
C2100 C2104 1.524 . S
C2101 C2093 1.503 . S
C2101 C2100 1.370 . S
C2101 C2102 1.403 . S
C2102 C2101 1.403 . S
C2102 C2103 1.404 . S
C2102 C2105 1.539 . S
C2103 C2099 1.408 . S
C2103 C2102 1.404 . S
C2103 H2115 0.930 . S
C2104 C2100 1.524 . S
C2104 H2116 0.956 . S
C2104 H2117 0.961 . S
C2104 H2118 0.961 . S
C2105 C2102 1.539 . S
C2105 H2119 0.958 . S
C2105 H2120 0.961 . S
C2105 H2121 0.960 . S
H2106 C2090 0.931 . S
H2107 C2095 0.929 . S
H2108 C2096 0.960 . S
H2109 C2096 0.962 . S
H2110 C2096 0.960 . S
H2111 C2097 0.961 . S
H2112 C2097 0.961 . S
H2113 C2097 0.961 . S
H2114 C2098 0.931 . S
H2115 C2103 0.930 . S
H2116 C2104 0.956 . S
H2117 C2104 0.961 . S
H2118 C2104 0.961 . S
H2119 C2105 0.958 . S
H2120 C2105 0.961 . S
H2121 C2105 0.960 . S
C2122 C2123 1.391 . S
C2122 C2124 1.394 . S
C2122 H2138 0.931 . S
C2123 C2122 1.391 . S
C2123 C2127 1.376 . S
C2124 C2122 1.394 . S
C2124 C2125 1.369 . S
C2124 C2128 1.531 . S
C2125 C2124 1.369 . S
C2125 C2126 1.410 . S
C2125 C2133 1.503 . S
C2126 C2125 1.410 . S
C2126 C2127 1.392 . S
C2126 C2129 1.511 . S
C2127 C2123 1.376 . S
C2127 C2126 1.392 . S
C2127 H2139 0.929 . S
C2128 C2124 1.531 . S
C2128 H2140 0.960 . S
C2128 H2141 0.962 . S
C2128 H2142 0.960 . S
C2129 C2126 1.511 . S
C2129 H2143 0.961 . S
C2129 H2144 0.961 . S
C2129 H2145 0.961 . S
C2130 C2131 1.370 . S
C2130 C2132 1.363 . S
C2130 H2146 0.931 . S
C2131 C2130 1.370 . S
C2131 C2135 1.408 . S
C2132 C2130 1.363 . S
C2132 C2133 1.370 . S
C2132 C2136 1.524 . S
C2133 C2125 1.503 . S
C2133 C2132 1.370 . S
C2133 C2134 1.403 . S
C2134 C2133 1.403 . S
C2134 C2135 1.404 . S
C2134 C2137 1.539 . S
C2135 C2131 1.408 . S
C2135 C2134 1.404 . S
C2135 H2147 0.930 . S
C2136 C2132 1.524 . S
C2136 H2148 0.956 . S
C2136 H2149 0.961 . S
C2136 H2150 0.961 . S
C2137 C2134 1.539 . S
C2137 H2151 0.958 . S
C2137 H2152 0.961 . S
C2137 H2153 0.960 . S
H2138 C2122 0.931 . S
H2139 C2127 0.929 . S
H2140 C2128 0.960 . S
H2141 C2128 0.962 . S
H2142 C2128 0.960 . S
H2143 C2129 0.961 . S
H2144 C2129 0.961 . S
H2145 C2129 0.961 . S
H2146 C2130 0.931 . S
H2147 C2135 0.930 . S
H2148 C2136 0.956 . S
H2149 C2136 0.961 . S
H2150 C2136 0.961 . S
H2151 C2137 0.958 . S
H2152 C2137 0.961 . S
H2153 C2137 0.960 . S
C2154 C2155 1.391 . S
C2154 C2156 1.394 . S
C2154 H2170 0.931 . S
C2155 C2154 1.391 . S
C2155 C2159 1.376 . S
C2156 C2154 1.394 . S
C2156 C2157 1.369 . S
C2156 C2160 1.531 . S
C2157 C2156 1.369 . S
C2157 C2158 1.410 . S
C2157 C2165 1.503 . S
C2158 C2157 1.410 . S
C2158 C2159 1.392 . S
C2158 C2161 1.511 . S
C2159 C2155 1.376 . S
C2159 C2158 1.392 . S
C2159 H2171 0.929 . S
C2160 C2156 1.531 . S
C2160 H2172 0.960 . S
C2160 H2173 0.962 . S
C2160 H2174 0.960 . S
C2161 C2158 1.511 . S
C2161 H2175 0.961 . S
C2161 H2176 0.961 . S
C2161 H2177 0.961 . S
C2162 C2163 1.370 . S
C2162 C2164 1.363 . S
C2162 H2178 0.931 . S
C2163 C2162 1.370 . S
C2163 C2167 1.408 . S
C2164 C2162 1.363 . S
C2164 C2165 1.370 . S
C2164 C2168 1.524 . S
C2165 C2157 1.503 . S
C2165 C2164 1.370 . S
C2165 C2166 1.403 . S
C2166 C2165 1.403 . S
C2166 C2167 1.404 . S
C2166 C2169 1.539 . S
C2167 C2163 1.408 . S
C2167 C2166 1.404 . S
C2167 H2179 0.930 . S
C2168 C2164 1.524 . S
C2168 H2180 0.956 . S
C2168 H2181 0.961 . S
C2168 H2182 0.961 . S
C2169 C2166 1.539 . S
C2169 H2183 0.958 . S
C2169 H2184 0.961 . S
C2169 H2185 0.960 . S
H2170 C2154 0.931 . S
H2171 C2159 0.929 . S
H2172 C2160 0.960 . S
H2173 C2160 0.962 . S
H2174 C2160 0.960 . S
H2175 C2161 0.961 . S
H2176 C2161 0.961 . S
H2177 C2161 0.961 . S
H2178 C2162 0.931 . S
H2179 C2167 0.930 . S
H2180 C2168 0.956 . S
H2181 C2168 0.961 . S
H2182 C2168 0.961 . S
H2183 C2169 0.958 . S
H2184 C2169 0.961 . S
H2185 C2169 0.960 . S
C2186 C2187 1.391 . S
C2186 C2188 1.394 . S
C2186 H2202 0.931 . S
C2187 C2186 1.391 . S
C2187 C2191 1.376 . S
C2188 C2186 1.394 . S
C2188 C2189 1.369 . S
C2188 C2192 1.531 . S
C2189 C2188 1.369 . S
C2189 C2190 1.410 . S
C2189 C2197 1.503 . S
C2190 C2189 1.410 . S
C2190 C2191 1.392 . S
C2190 C2193 1.511 . S
C2191 C2187 1.376 . S
C2191 C2190 1.392 . S
C2191 H2203 0.929 . S
C2192 C2188 1.531 . S
C2192 H2204 0.960 . S
C2192 H2205 0.962 . S
C2192 H2206 0.960 . S
C2193 C2190 1.511 . S
C2193 H2207 0.961 . S
C2193 H2208 0.961 . S
C2193 H2209 0.961 . S
C2194 C2195 1.370 . S
C2194 C2196 1.363 . S
C2194 H2210 0.931 . S
C2195 C2194 1.370 . S
C2195 C2199 1.408 . S
C2196 C2194 1.363 . S
C2196 C2197 1.370 . S
C2196 C2200 1.524 . S
C2197 C2189 1.503 . S
C2197 C2196 1.370 . S
C2197 C2198 1.403 . S
C2198 C2197 1.403 . S
C2198 C2199 1.404 . S
C2198 C2201 1.539 . S
C2199 C2195 1.408 . S
C2199 C2198 1.404 . S
C2199 H2211 0.930 . S
C2200 C2196 1.524 . S
C2200 H2212 0.956 . S
C2200 H2213 0.961 . S
C2200 H2214 0.961 . S
C2201 C2198 1.539 . S
C2201 H2215 0.958 . S
C2201 H2216 0.961 . S
C2201 H2217 0.960 . S
H2202 C2186 0.931 . S
H2203 C2191 0.929 . S
H2204 C2192 0.960 . S
H2205 C2192 0.962 . S
H2206 C2192 0.960 . S
H2207 C2193 0.961 . S
H2208 C2193 0.961 . S
H2209 C2193 0.961 . S
H2210 C2194 0.931 . S
H2211 C2199 0.930 . S
H2212 C2200 0.956 . S
H2213 C2200 0.961 . S
H2214 C2200 0.961 . S
H2215 C2201 0.958 . S
H2216 C2201 0.961 . S
H2217 C2201 0.960 . S
C2218 C2219 1.391 . S
C2218 C2220 1.394 . S
C2218 H2234 0.931 . S
C2219 C2218 1.391 . S
C2219 C2223 1.376 . S
C2220 C2218 1.394 . S
C2220 C2221 1.369 . S
C2220 C2224 1.531 . S
C2221 C2220 1.369 . S
C2221 C2222 1.410 . S
C2221 C2229 1.503 . S
C2222 C2221 1.410 . S
C2222 C2223 1.392 . S
C2222 C2225 1.511 . S
C2223 C2219 1.376 . S
C2223 C2222 1.392 . S
C2223 H2235 0.929 . S
C2224 C2220 1.531 . S
C2224 H2236 0.960 . S
C2224 H2237 0.962 . S
C2224 H2238 0.960 . S
C2225 C2222 1.511 . S
C2225 H2239 0.961 . S
C2225 H2240 0.961 . S
C2225 H2241 0.961 . S
C2226 C2227 1.370 . S
C2226 C2228 1.363 . S
C2226 H2242 0.931 . S
C2227 C2226 1.370 . S
C2227 C2231 1.408 . S
C2228 C2226 1.363 . S
C2228 C2229 1.370 . S
C2228 C2232 1.524 . S
C2229 C2221 1.503 . S
C2229 C2228 1.370 . S
C2229 C2230 1.403 . S
C2230 C2229 1.403 . S
C2230 C2231 1.404 . S
C2230 C2233 1.539 . S
C2231 C2227 1.408 . S
C2231 C2230 1.404 . S
C2231 H2243 0.930 . S
C2232 C2228 1.524 . S
C2232 H2244 0.956 . S
C2232 H2245 0.961 . S
C2232 H2246 0.961 . S
C2233 C2230 1.539 . S
C2233 H2247 0.958 . S
C2233 H2248 0.961 . S
C2233 H2249 0.960 . S
H2234 C2218 0.931 . S
H2235 C2223 0.929 . S
H2236 C2224 0.960 . S
H2237 C2224 0.962 . S
H2238 C2224 0.960 . S
H2239 C2225 0.961 . S
H2240 C2225 0.961 . S
H2241 C2225 0.961 . S
H2242 C2226 0.931 . S
H2243 C2231 0.930 . S
H2244 C2232 0.956 . S
H2245 C2232 0.961 . S
H2246 C2232 0.961 . S
H2247 C2233 0.958 . S
H2248 C2233 0.961 . S
H2249 C2233 0.960 . S
C2250 C2251 1.391 . S
C2250 C2252 1.394 . S
C2250 H2266 0.931 . S
C2251 C2250 1.391 . S
C2251 C2255 1.376 . S
C2252 C2250 1.394 . S
C2252 C2253 1.369 . S
C2252 C2256 1.531 . S
C2253 C2252 1.369 . S
C2253 C2254 1.410 . S
C2253 C2261 1.503 . S
C2254 C2253 1.410 . S
C2254 C2255 1.392 . S
C2254 C2257 1.511 . S
C2255 C2251 1.376 . S
C2255 C2254 1.392 . S
C2255 H2267 0.929 . S
C2256 C2252 1.531 . S
C2256 H2268 0.960 . S
C2256 H2269 0.962 . S
C2256 H2270 0.960 . S
C2257 C2254 1.511 . S
C2257 H2271 0.961 . S
C2257 H2272 0.961 . S
C2257 H2273 0.961 . S
C2258 C2259 1.370 . S
C2258 C2260 1.363 . S
C2258 H2274 0.931 . S
C2259 C2258 1.370 . S
C2259 C2263 1.408 . S
C2260 C2258 1.363 . S
C2260 C2261 1.370 . S
C2260 C2264 1.524 . S
C2261 C2253 1.503 . S
C2261 C2260 1.370 . S
C2261 C2262 1.403 . S
C2262 C2261 1.403 . S
C2262 C2263 1.404 . S
C2262 C2265 1.539 . S
C2263 C2259 1.408 . S
C2263 C2262 1.404 . S
C2263 H2275 0.930 . S
C2264 C2260 1.524 . S
C2264 H2276 0.956 . S
C2264 H2277 0.961 . S
C2264 H2278 0.961 . S
C2265 C2262 1.539 . S
C2265 H2279 0.958 . S
C2265 H2280 0.961 . S
C2265 H2281 0.960 . S
H2266 C2250 0.931 . S
H2267 C2255 0.929 . S
H2268 C2256 0.960 . S
H2269 C2256 0.962 . S
H2270 C2256 0.960 . S
H2271 C2257 0.961 . S
H2272 C2257 0.961 . S
H2273 C2257 0.961 . S
H2274 C2258 0.931 . S
H2275 C2263 0.930 . S
H2276 C2264 0.956 . S
H2277 C2264 0.961 . S
H2278 C2264 0.961 . S
H2279 C2265 0.958 . S
H2280 C2265 0.961 . S
H2281 C2265 0.960 . S
C2282 C2283 1.391 . S
C2282 C2284 1.394 . S
C2282 H2298 0.931 . S
C2283 C2282 1.391 . S
C2283 C2287 1.376 . S
C2284 C2282 1.394 . S
C2284 C2285 1.369 . S
C2284 C2288 1.531 . S
C2285 C2284 1.369 . S
C2285 C2286 1.410 . S
C2285 C2293 1.503 . S
C2286 C2285 1.410 . S
C2286 C2287 1.392 . S
C2286 C2289 1.511 . S
C2287 C2283 1.376 . S
C2287 C2286 1.392 . S
C2287 H2299 0.929 . S
C2288 C2284 1.531 . S
C2288 H2300 0.960 . S
C2288 H2301 0.962 . S
C2288 H2302 0.960 . S
C2289 C2286 1.511 . S
C2289 H2303 0.961 . S
C2289 H2304 0.961 . S
C2289 H2305 0.961 . S
C2290 C2291 1.370 . S
C2290 C2292 1.363 . S
C2290 H2306 0.931 . S
C2291 C2290 1.370 . S
C2291 C2295 1.408 . S
C2292 C2290 1.363 . S
C2292 C2293 1.370 . S
C2292 C2296 1.524 . S
C2293 C2285 1.503 . S
C2293 C2292 1.370 . S
C2293 C2294 1.403 . S
C2294 C2293 1.403 . S
C2294 C2295 1.404 . S
C2294 C2297 1.539 . S
C2295 C2291 1.408 . S
C2295 C2294 1.404 . S
C2295 H2307 0.930 . S
C2296 C2292 1.524 . S
C2296 H2308 0.956 . S
C2296 H2309 0.961 . S
C2296 H2310 0.961 . S
C2297 C2294 1.539 . S
C2297 H2311 0.958 . S
C2297 H2312 0.961 . S
C2297 H2313 0.960 . S
H2298 C2282 0.931 . S
H2299 C2287 0.929 . S
H2300 C2288 0.960 . S
H2301 C2288 0.962 . S
H2302 C2288 0.960 . S
H2303 C2289 0.961 . S
H2304 C2289 0.961 . S
H2305 C2289 0.961 . S
H2306 C2290 0.931 . S
H2307 C2295 0.930 . S
H2308 C2296 0.956 . S
H2309 C2296 0.961 . S
H2310 C2296 0.961 . S
H2311 C2297 0.958 . S
H2312 C2297 0.961 . S
H2313 C2297 0.960 . S
C2314 C2315 1.391 . S
C2314 C2316 1.394 . S
C2314 H2330 0.931 . S
C2315 C2314 1.391 . S
C2315 C2319 1.376 . S
C2316 C2314 1.394 . S
C2316 C2317 1.369 . S
C2316 C2320 1.531 . S
C2317 C2316 1.369 . S
C2317 C2318 1.410 . S
C2317 C2325 1.503 . S
C2318 C2317 1.410 . S
C2318 C2319 1.392 . S
C2318 C2321 1.511 . S
C2319 C2315 1.376 . S
C2319 C2318 1.392 . S
C2319 H2331 0.929 . S
C2320 C2316 1.531 . S
C2320 H2332 0.960 . S
C2320 H2333 0.962 . S
C2320 H2334 0.960 . S
C2321 C2318 1.511 . S
C2321 H2335 0.961 . S
C2321 H2336 0.961 . S
C2321 H2337 0.961 . S
C2322 C2323 1.370 . S
C2322 C2324 1.363 . S
C2322 H2338 0.931 . S
C2323 C2322 1.370 . S
C2323 C2327 1.408 . S
C2324 C2322 1.363 . S
C2324 C2325 1.370 . S
C2324 C2328 1.524 . S
C2325 C2317 1.503 . S
C2325 C2324 1.370 . S
C2325 C2326 1.403 . S
C2326 C2325 1.403 . S
C2326 C2327 1.404 . S
C2326 C2329 1.539 . S
C2327 C2323 1.408 . S
C2327 C2326 1.404 . S
C2327 H2339 0.930 . S
C2328 C2324 1.524 . S
C2328 H2340 0.956 . S
C2328 H2341 0.961 . S
C2328 H2342 0.961 . S
C2329 C2326 1.539 . S
C2329 H2343 0.958 . S
C2329 H2344 0.961 . S
C2329 H2345 0.960 . S
H2330 C2314 0.931 . S
H2331 C2319 0.929 . S
H2332 C2320 0.960 . S
H2333 C2320 0.962 . S
H2334 C2320 0.960 . S
H2335 C2321 0.961 . S
H2336 C2321 0.961 . S
H2337 C2321 0.961 . S
H2338 C2322 0.931 . S
H2339 C2327 0.930 . S
H2340 C2328 0.956 . S
H2341 C2328 0.961 . S
H2342 C2328 0.961 . S
H2343 C2329 0.958 . S
H2344 C2329 0.961 . S
H2345 C2329 0.960 . S
C2346 C2347 1.391 . S
C2346 C2348 1.394 . S
C2346 H2362 0.931 . S
C2347 C2346 1.391 . S
C2347 C2351 1.376 . S
C2348 C2346 1.394 . S
C2348 C2349 1.369 . S
C2348 C2352 1.531 . S
C2349 C2348 1.369 . S
C2349 C2350 1.410 . S
C2349 C2357 1.503 . S
C2350 C2349 1.410 . S
C2350 C2351 1.392 . S
C2350 C2353 1.511 . S
C2351 C2347 1.376 . S
C2351 C2350 1.392 . S
C2351 H2363 0.929 1_556 S
C2352 C2348 1.531 . S
C2352 H2364 0.960 . S
C2352 H2365 0.962 . S
C2352 H2366 0.960 . S
C2353 C2350 1.511 . S
C2353 H2367 0.961 . S
C2353 H2368 0.961 . S
C2353 H2369 0.933 1_556 S
C2354 C2355 1.370 . S
C2354 C2356 1.363 . S
C2354 H2370 0.931 . S
C2355 C2354 1.370 . S
C2355 C2359 1.408 . S
C2356 C2354 1.363 . S
C2356 C2357 1.370 . S
C2356 C2360 1.524 . S
C2357 C2349 1.503 . S
C2357 C2356 1.370 . S
C2357 C2358 1.403 . S
C2358 C2357 1.403 . S
C2358 C2359 1.404 . S
C2358 C2361 1.539 . S
C2359 C2355 1.408 . S
C2359 C2358 1.404 . S
C2359 H2371 0.930 . S
C2360 C2356 1.524 . S
C2360 H2372 0.956 . S
C2360 H2373 0.961 . S
C2360 H2374 0.961 . S
C2361 C2358 1.539 . S
C2361 H2375 0.958 . S
C2361 H2376 0.961 . S
C2361 H2377 0.960 . S
H2362 C2346 0.931 . S
H2363 C2351 0.929 1_554 S
H2364 C2352 0.960 . S
H2365 C2352 0.962 . S
H2366 C2352 0.960 . S
H2367 C2353 0.961 . S
H2368 C2353 0.961 . S
H2369 C2353 0.933 1_554 S
H2370 C2354 0.931 . S
H2371 C2359 0.930 . S
H2372 C2360 0.956 . S
H2373 C2360 0.961 . S
H2374 C2360 0.961 . S
H2375 C2361 0.958 . S
H2376 C2361 0.961 . S
H2377 C2361 0.960 . S
C2378 C2379 1.391 . S
C2378 C2380 1.394 . S
C2378 H2394 0.931 . S
C2379 C2378 1.391 . S
C2379 C2383 1.376 . S
C2380 C2378 1.394 . S
C2380 C2381 1.369 . S
C2380 C2384 1.531 . S
C2381 C2380 1.369 . S
C2381 C2382 1.410 . S
C2381 C2389 1.503 . S
C2382 C2381 1.410 . S
C2382 C2383 1.392 . S
C2382 C2385 1.511 . S
C2383 C2379 1.376 . S
C2383 C2382 1.392 . S
C2383 H2395 0.929 . S
C2384 C2380 1.531 . S
C2384 H2396 0.960 . S
C2384 H2397 0.962 . S
C2384 H2398 0.960 . S
C2385 C2382 1.511 . S
C2385 H2399 0.961 . S
C2385 H2400 0.961 . S
C2385 H2401 0.961 . S
C2386 C2387 1.370 . S
C2386 C2388 1.363 . S
C2386 H2402 0.931 . S
C2387 C2386 1.370 . S
C2387 C2391 1.408 . S
C2388 C2386 1.363 . S
C2388 C2389 1.370 . S
C2388 C2392 1.524 . S
C2389 C2381 1.503 . S
C2389 C2388 1.370 . S
C2389 C2390 1.403 . S
C2390 C2389 1.403 . S
C2390 C2391 1.404 . S
C2390 C2393 1.539 . S
C2391 C2387 1.408 . S
C2391 C2390 1.404 . S
C2391 H2403 0.930 . S
C2392 C2388 1.524 . S
C2392 H2404 0.956 . S
C2392 H2405 0.961 . S
C2392 H2406 0.961 . S
C2393 C2390 1.539 . S
C2393 H2407 0.958 . S
C2393 H2408 0.961 . S
C2393 H2409 0.960 . S
H2394 C2378 0.931 . S
H2395 C2383 0.929 . S
H2396 C2384 0.960 . S
H2397 C2384 0.962 . S
H2398 C2384 0.960 . S
H2399 C2385 0.961 . S
H2400 C2385 0.961 . S
H2401 C2385 0.961 . S
H2402 C2386 0.931 . S
H2403 C2391 0.930 . S
H2404 C2392 0.956 . S
H2405 C2392 0.961 . S
H2406 C2392 0.961 . S
H2407 C2393 0.958 . S
H2408 C2393 0.961 . S
H2409 C2393 0.960 . S
C2410 C2411 1.391 . S
C2410 C2412 1.394 . S
C2410 H2426 0.931 . S
C2411 C2410 1.391 . S
C2411 C2415 1.376 . S
C2412 C2410 1.394 . S
C2412 C2413 1.369 . S
C2412 C2416 1.531 . S
C2413 C2412 1.369 . S
C2413 C2414 1.410 . S
C2413 C2421 1.503 . S
C2414 C2413 1.410 . S
C2414 C2415 1.392 . S
C2414 C2417 1.511 . S
C2415 C2411 1.376 . S
C2415 C2414 1.392 . S
C2415 H2427 0.929 . S
C2416 C2412 1.531 . S
C2416 H2428 0.960 . S
C2416 H2429 0.962 . S
C2416 H2430 0.960 . S
C2417 C2414 1.511 . S
C2417 H2431 0.961 . S
C2417 H2432 0.961 . S
C2417 H2433 0.961 . S
C2418 C2419 1.370 . S
C2418 C2420 1.363 . S
C2418 H2434 0.931 . S
C2419 C2418 1.370 . S
C2419 C2423 1.408 . S
C2420 C2418 1.363 . S
C2420 C2421 1.370 . S
C2420 C2424 1.524 . S
C2421 C2413 1.503 . S
C2421 C2420 1.370 . S
C2421 C2422 1.403 . S
C2422 C2421 1.403 . S
C2422 C2423 1.404 . S
C2422 C2425 1.539 . S
C2423 C2419 1.408 . S
C2423 C2422 1.404 . S
C2423 H2435 0.930 . S
C2424 C2420 1.524 . S
C2424 H2436 0.956 . S
C2424 H2437 0.961 . S
C2424 H2438 0.961 . S
C2425 C2422 1.539 . S
C2425 H2439 0.958 . S
C2425 H2440 0.961 . S
C2425 H2441 0.960 . S
H2426 C2410 0.931 . S
H2427 C2415 0.929 . S
H2428 C2416 0.960 . S
H2429 C2416 0.962 . S
H2430 C2416 0.960 . S
H2431 C2417 0.961 . S
H2432 C2417 0.961 . S
H2433 C2417 0.961 . S
H2434 C2418 0.931 . S
H2435 C2423 0.930 . S
H2436 C2424 0.956 . S
H2437 C2424 0.961 . S
H2438 C2424 0.961 . S
H2439 C2425 0.958 . S
H2440 C2425 0.961 . S
H2441 C2425 0.960 . S
C2442 C2443 1.391 . S
C2442 C2444 1.394 . S
C2442 H2458 0.931 . S
C2443 C2442 1.391 . S
C2443 C2447 1.376 . S
C2444 C2442 1.394 . S
C2444 C2445 1.369 . S
C2444 C2448 1.531 . S
C2445 C2444 1.369 . S
C2445 C2446 1.410 . S
C2445 C2453 1.503 . S
C2446 C2445 1.410 . S
C2446 C2447 1.392 . S
C2446 C2449 1.511 . S
C2447 C2443 1.376 . S
C2447 C2446 1.392 . S
C2447 H2459 0.929 . S
C2448 C2444 1.531 . S
C2448 H2460 0.960 . S
C2448 H2461 0.962 . S
C2448 H2462 0.960 . S
C2449 C2446 1.511 . S
C2449 H2463 0.961 . S
C2449 H2464 0.961 . S
C2449 H2465 0.961 . S
C2450 C2451 1.370 . S
C2450 C2452 1.363 . S
C2450 H2466 0.931 . S
C2451 C2450 1.370 . S
C2451 C2455 1.408 . S
C2452 C2450 1.363 . S
C2452 C2453 1.370 . S
C2452 C2456 1.524 . S
C2453 C2445 1.503 . S
C2453 C2452 1.370 . S
C2453 C2454 1.403 . S
C2454 C2453 1.403 . S
C2454 C2455 1.404 . S
C2454 C2457 1.539 . S
C2455 C2451 1.408 . S
C2455 C2454 1.404 . S
C2455 H2467 0.930 . S
C2456 C2452 1.524 . S
C2456 H2468 0.956 . S
C2456 H2469 0.961 . S
C2456 H2470 0.961 . S
C2457 C2454 1.539 . S
C2457 H2471 0.958 . S
C2457 H2472 0.961 . S
C2457 H2473 0.960 . S
H2458 C2442 0.931 . S
H2459 C2447 0.929 . S
H2460 C2448 0.960 . S
H2461 C2448 0.962 . S
H2462 C2448 0.960 . S
H2463 C2449 0.961 . S
H2464 C2449 0.961 . S
H2465 C2449 0.961 . S
H2466 C2450 0.931 . S
H2467 C2455 0.930 . S
H2468 C2456 0.956 . S
H2469 C2456 0.961 . S
H2470 C2456 0.961 . S
H2471 C2457 0.958 . S
H2472 C2457 0.961 . S
H2473 C2457 0.960 . S
C2474 C2475 1.391 . S
C2474 C2476 1.394 . S
C2474 H2490 0.931 . S
C2475 C2474 1.391 . S
C2475 C2479 1.376 . S
C2476 C2474 1.394 . S
C2476 C2477 1.369 . S
C2476 C2480 1.531 . S
C2477 C2476 1.369 . S
C2477 C2478 1.410 . S
C2477 C2485 1.503 . S
C2478 C2477 1.410 . S
C2478 C2479 1.392 . S
C2478 C2481 1.511 . S
C2479 C2475 1.376 . S
C2479 C2478 1.392 . S
C2479 H2491 0.929 . S
C2480 C2476 1.531 . S
C2480 H2492 0.960 . S
C2480 H2493 0.962 . S
C2480 H2494 0.960 . S
C2481 C2478 1.511 . S
C2481 H2495 0.961 . S
C2481 H2496 0.961 . S
C2481 H2497 0.961 . S
C2482 C2483 1.370 . S
C2482 C2484 1.363 . S
C2482 H2498 0.931 . S
C2483 C2482 1.370 . S
C2483 C2487 1.408 . S
C2484 C2482 1.363 . S
C2484 C2485 1.370 . S
C2484 C2488 1.524 . S
C2485 C2477 1.503 . S
C2485 C2484 1.370 . S
C2485 C2486 1.403 . S
C2486 C2485 1.403 . S
C2486 C2487 1.404 . S
C2486 C2489 1.539 . S
C2487 C2483 1.408 . S
C2487 C2486 1.404 . S
C2487 H2499 0.930 . S
C2488 C2484 1.524 . S
C2488 H2500 0.956 . S
C2488 H2501 0.961 . S
C2488 H2502 0.961 . S
C2489 C2486 1.539 . S
C2489 H2503 0.958 . S
C2489 H2504 0.961 . S
C2489 H2505 0.960 . S
H2490 C2474 0.931 . S
H2491 C2479 0.929 . S
H2492 C2480 0.960 . S
H2493 C2480 0.962 . S
H2494 C2480 0.960 . S
H2495 C2481 0.961 . S
H2496 C2481 0.961 . S
H2497 C2481 0.961 . S
H2498 C2482 0.931 . S
H2499 C2487 0.930 . S
H2500 C2488 0.956 . S
H2501 C2488 0.961 . S
H2502 C2488 0.961 . S
H2503 C2489 0.958 . S
H2504 C2489 0.961 . S
H2505 C2489 0.960 . S
C2506 C2507 1.391 . S
C2506 C2508 1.394 . S
C2506 H2522 0.931 . S
C2507 C2506 1.391 . S
C2507 C2511 1.376 . S
C2508 C2506 1.394 . S
C2508 C2509 1.369 . S
C2508 C2512 1.531 . S
C2509 C2508 1.369 . S
C2509 C2510 1.410 . S
C2509 C2517 1.503 . S
C2510 C2509 1.410 . S
C2510 C2511 1.392 . S
C2510 C2513 1.511 . S
C2511 C2507 1.376 . S
C2511 C2510 1.392 . S
C2511 H2523 0.929 1_556 S
C2512 C2508 1.531 . S
C2512 H2524 0.960 . S
C2512 H2525 0.962 . S
C2512 H2526 0.960 . S
C2513 C2510 1.511 . S
C2513 H2527 0.961 1_556 S
C2513 H2528 0.961 . S
C2513 H2529 0.961 . S
C2514 C2515 1.370 . S
C2514 C2516 1.363 . S
C2514 H2530 0.931 . S
C2515 C2514 1.370 . S
C2515 C2519 1.408 . S
C2516 C2514 1.363 . S
C2516 C2517 1.370 . S
C2516 C2520 1.524 . S
C2517 C2509 1.503 . S
C2517 C2516 1.370 . S
C2517 C2518 1.403 . S
C2518 C2517 1.403 . S
C2518 C2519 1.404 . S
C2518 C2521 1.539 . S
C2519 C2515 1.408 . S
C2519 C2518 1.404 . S
C2519 H2531 0.930 . S
C2520 C2516 1.524 . S
C2520 H2532 0.956 . S
C2520 H2533 0.961 . S
C2520 H2534 0.961 . S
C2521 C2518 1.539 . S
C2521 H2535 0.958 . S
C2521 H2536 0.961 . S
C2521 H2537 0.960 . S
H2522 C2506 0.931 . S
H2523 C2511 0.929 1_554 S
H2524 C2512 0.960 . S
H2525 C2512 0.962 . S
H2526 C2512 0.960 . S
H2527 C2513 0.961 1_554 S
H2528 C2513 0.961 . S
H2529 C2513 0.961 . S
H2530 C2514 0.931 . S
H2531 C2519 0.930 . S
H2532 C2520 0.956 . S
H2533 C2520 0.961 . S
H2534 C2520 0.961 . S
H2535 C2521 0.958 . S
H2536 C2521 0.961 . S
H2537 C2521 0.960 . S
C2538 C2539 1.391 . S
C2538 C2540 1.394 . S
C2538 H2554 0.931 . S
C2539 C2538 1.391 . S
C2539 C2543 1.376 . S
C2540 C2538 1.394 . S
C2540 C2541 1.369 . S
C2540 C2544 1.531 . S
C2541 C2540 1.369 . S
C2541 C2542 1.410 . S
C2541 C2549 1.503 . S
C2542 C2541 1.410 . S
C2542 C2543 1.392 . S
C2542 C2545 1.511 . S
C2543 C2539 1.376 . S
C2543 C2542 1.392 . S
C2543 H2555 0.929 . S
C2544 C2540 1.531 . S
C2544 H2556 0.960 . S
C2544 H2557 0.962 . S
C2544 H2558 0.960 . S
C2545 C2542 1.511 . S
C2545 H2559 0.961 . S
C2545 H2560 0.961 . S
C2545 H2561 0.961 . S
C2546 C2547 1.370 . S
C2546 C2548 1.363 . S
C2546 H2562 0.931 . S
C2547 C2546 1.370 . S
C2547 C2551 1.408 . S
C2548 C2546 1.363 . S
C2548 C2549 1.370 . S
C2548 C2552 1.524 . S
C2549 C2541 1.503 . S
C2549 C2548 1.370 . S
C2549 C2550 1.403 . S
C2550 C2549 1.403 . S
C2550 C2551 1.404 . S
C2550 C2553 1.539 . S
C2551 C2547 1.408 . S
C2551 C2550 1.404 . S
C2551 H2563 0.930 . S
C2552 C2548 1.524 . S
C2552 H2564 0.956 . S
C2552 H2565 0.961 . S
C2552 H2566 0.961 . S
C2553 C2550 1.539 . S
C2553 H2567 0.958 . S
C2553 H2568 0.961 . S
C2553 H2569 0.960 . S
H2554 C2538 0.931 . S
H2555 C2543 0.929 . S
H2556 C2544 0.960 . S
H2557 C2544 0.962 . S
H2558 C2544 0.960 . S
H2559 C2545 0.961 . S
H2560 C2545 0.961 . S
H2561 C2545 0.961 . S
H2562 C2546 0.931 . S
H2563 C2551 0.930 . S
H2564 C2552 0.956 . S
H2565 C2552 0.961 . S
H2566 C2552 0.961 . S
H2567 C2553 0.958 . S
H2568 C2553 0.961 . S
H2569 C2553 0.960 . S
C2570 C2571 1.391 . S
C2570 C2572 1.394 . S
C2570 H2586 0.931 . S
C2571 C2570 1.391 . S
C2571 C2575 1.376 . S
C2572 C2570 1.394 . S
C2572 C2573 1.369 . S
C2572 C2576 1.531 . S
C2573 C2572 1.369 . S
C2573 C2574 1.410 . S
C2573 C2581 1.503 . S
C2574 C2573 1.410 . S
C2574 C2575 1.392 . S
C2574 C2577 1.511 . S
C2575 C2571 1.376 . S
C2575 C2574 1.392 . S
C2575 H2587 0.929 . S
C2576 C2572 1.531 . S
C2576 H2588 0.960 . S
C2576 H2589 0.962 . S
C2576 H2590 0.960 . S
C2577 C2574 1.511 . S
C2577 H2591 0.961 . S
C2577 H2592 0.961 . S
C2577 H2593 0.961 . S
C2578 C2579 1.370 . S
C2578 C2580 1.363 . S
C2578 H2594 0.931 . S
C2579 C2578 1.370 . S
C2579 C2583 1.408 . S
C2580 C2578 1.363 . S
C2580 C2581 1.370 . S
C2580 C2584 1.524 . S
C2581 C2573 1.503 . S
C2581 C2580 1.370 . S
C2581 C2582 1.403 . S
C2582 C2581 1.403 . S
C2582 C2583 1.404 . S
C2582 C2585 1.539 . S
C2583 C2579 1.408 . S
C2583 C2582 1.404 . S
C2583 H2595 0.930 . S
C2584 C2580 1.524 . S
C2584 H2596 0.956 . S
C2584 H2597 0.961 . S
C2584 H2598 0.961 . S
C2585 C2582 1.539 . S
C2585 H2599 0.958 . S
C2585 H2600 0.961 . S
C2585 H2601 0.960 . S
H2586 C2570 0.931 . S
H2587 C2575 0.929 . S
H2588 C2576 0.960 . S
H2589 C2576 0.962 . S
H2590 C2576 0.960 . S
H2591 C2577 0.961 . S
H2592 C2577 0.961 . S
H2593 C2577 0.961 . S
H2594 C2578 0.931 . S
H2595 C2583 0.930 . S
H2596 C2584 0.956 . S
H2597 C2584 0.961 . S
H2598 C2584 0.961 . S
H2599 C2585 0.958 . S
H2600 C2585 0.961 . S
H2601 C2585 0.960 . S
C2602 C2603 1.391 . S
C2602 C2604 1.394 . S
C2602 H2618 0.931 . S
C2603 C2602 1.391 . S
C2603 C2607 1.376 . S
C2604 C2602 1.394 . S
C2604 C2605 1.369 . S
C2604 C2608 1.531 . S
C2605 C2604 1.369 . S
C2605 C2606 1.410 . S
C2605 C2613 1.503 . S
C2606 C2605 1.410 . S
C2606 C2607 1.392 . S
C2606 C2609 1.511 . S
C2607 C2603 1.376 . S
C2607 C2606 1.392 . S
C2607 H2619 0.929 . S
C2608 C2604 1.531 . S
C2608 H2620 0.960 . S
C2608 H2621 0.962 . S
C2608 H2622 0.960 . S
C2609 C2606 1.511 . S
C2609 H2623 0.961 . S
C2609 H2624 0.961 . S
C2609 H2625 0.961 . S
C2610 C2611 1.370 . S
C2610 C2612 1.363 . S
C2610 H2626 0.931 . S
C2611 C2610 1.370 . S
C2611 C2615 1.408 . S
C2612 C2610 1.363 . S
C2612 C2613 1.370 . S
C2612 C2616 1.524 . S
C2613 C2605 1.503 . S
C2613 C2612 1.370 . S
C2613 C2614 1.403 . S
C2614 C2613 1.403 . S
C2614 C2615 1.404 . S
C2614 C2617 1.539 . S
C2615 C2611 1.408 . S
C2615 C2614 1.404 . S
C2615 H2627 0.930 . S
C2616 C2612 1.524 . S
C2616 H2628 0.956 . S
C2616 H2629 0.961 . S
C2616 H2630 0.961 . S
C2617 C2614 1.539 . S
C2617 H2631 0.958 . S
C2617 H2632 0.961 . S
C2617 H2633 0.960 . S
H2618 C2602 0.931 . S
H2619 C2607 0.929 . S
H2620 C2608 0.960 . S
H2621 C2608 0.962 . S
H2622 C2608 0.960 . S
H2623 C2609 0.961 . S
H2624 C2609 0.961 . S
H2625 C2609 0.961 . S
H2626 C2610 0.931 . S
H2627 C2615 0.930 . S
H2628 C2616 0.956 . S
H2629 C2616 0.961 . S
H2630 C2616 0.961 . S
H2631 C2617 0.958 . S
H2632 C2617 0.961 . S
H2633 C2617 0.960 . S
C2634 C2635 1.391 . S
C2634 C2636 1.394 . S
C2634 H2650 0.931 . S
C2635 C2634 1.391 . S
C2635 C2639 1.376 . S
C2636 C2634 1.394 . S
C2636 C2637 1.369 . S
C2636 C2640 1.531 . S
C2637 C2636 1.369 . S
C2637 C2638 1.410 . S
C2637 C2645 1.503 . S
C2638 C2637 1.410 . S
C2638 C2639 1.392 . S
C2638 C2641 1.511 . S
C2639 C2635 1.376 . S
C2639 C2638 1.392 . S
C2639 H2651 0.929 . S
C2640 C2636 1.531 . S
C2640 H2652 0.960 . S
C2640 H2653 0.962 . S
C2640 H2654 0.960 . S
C2641 C2638 1.511 . S
C2641 H2655 0.961 . S
C2641 H2656 0.961 . S
C2641 H2657 0.961 . S
C2642 C2643 1.370 . S
C2642 C2644 1.363 . S
C2642 H2658 0.931 . S
C2643 C2642 1.370 . S
C2643 C2647 1.408 . S
C2644 C2642 1.363 . S
C2644 C2645 1.370 . S
C2644 C2648 1.524 . S
C2645 C2637 1.503 . S
C2645 C2644 1.370 . S
C2645 C2646 1.403 . S
C2646 C2645 1.403 . S
C2646 C2647 1.404 . S
C2646 C2649 1.539 . S
C2647 C2643 1.408 . S
C2647 C2646 1.404 . S
C2647 H2659 0.930 . S
C2648 C2644 1.524 . S
C2648 H2660 0.956 . S
C2648 H2661 0.961 . S
C2648 H2662 0.961 . S
C2649 C2646 1.539 . S
C2649 H2663 0.958 . S
C2649 H2664 0.961 . S
C2649 H2665 0.960 . S
H2650 C2634 0.931 . S
H2651 C2639 0.929 . S
H2652 C2640 0.960 . S
H2653 C2640 0.962 . S
H2654 C2640 0.960 . S
H2655 C2641 0.961 . S
H2656 C2641 0.961 . S
H2657 C2641 0.961 . S
H2658 C2642 0.931 . S
H2659 C2647 0.930 . S
H2660 C2648 0.956 . S
H2661 C2648 0.961 . S
H2662 C2648 0.961 . S
H2663 C2649 0.958 . S
H2664 C2649 0.961 . S
H2665 C2649 0.960 . S
C2666 C2667 1.391 . S
C2666 C2668 1.394 . S
C2666 H2682 0.931 . S
C2667 C2666 1.391 . S
C2667 C2671 1.376 . S
C2668 C2666 1.394 . S
C2668 C2669 1.369 . S
C2668 C2672 1.531 . S
C2669 C2668 1.369 . S
C2669 C2670 1.410 . S
C2669 C2677 1.503 . S
C2670 C2669 1.410 . S
C2670 C2671 1.392 . S
C2670 C2673 1.511 . S
C2671 C2667 1.376 . S
C2671 C2670 1.392 . S
C2671 H2683 0.929 . S
C2672 C2668 1.531 . S
C2672 H2684 0.960 . S
C2672 H2685 0.962 . S
C2672 H2686 0.960 . S
C2673 C2670 1.511 . S
C2673 H2687 0.961 . S
C2673 H2688 0.961 . S
C2673 H2689 0.961 . S
C2674 C2675 1.370 . S
C2674 C2676 1.363 . S
C2674 H2690 0.931 . S
C2675 C2674 1.370 . S
C2675 C2679 1.408 . S
C2676 C2674 1.363 . S
C2676 C2677 1.370 . S
C2676 C2680 1.524 . S
C2677 C2669 1.503 . S
C2677 C2676 1.370 . S
C2677 C2678 1.403 . S
C2678 C2677 1.403 . S
C2678 C2679 1.404 . S
C2678 C2681 1.539 . S
C2679 C2675 1.408 . S
C2679 C2678 1.404 . S
C2679 H2691 0.930 . S
C2680 C2676 1.524 . S
C2680 H2692 0.956 . S
C2680 H2693 0.961 . S
C2680 H2694 0.961 . S
C2681 C2678 1.539 . S
C2681 H2695 0.958 . S
C2681 H2696 0.961 . S
C2681 H2697 0.960 . S
H2682 C2666 0.931 . S
H2683 C2671 0.929 . S
H2684 C2672 0.960 . S
H2685 C2672 0.962 . S
H2686 C2672 0.960 . S
H2687 C2673 0.961 . S
H2688 C2673 0.961 . S
H2689 C2673 0.961 . S
H2690 C2674 0.931 . S
H2691 C2679 0.930 . S
H2692 C2680 0.956 . S
H2693 C2680 0.961 . S
H2694 C2680 0.961 . S
H2695 C2681 0.958 . S
H2696 C2681 0.961 . S
H2697 C2681 0.960 . S
C2698 C2699 1.391 . S
C2698 C2700 1.394 . S
C2698 H2714 0.931 . S
C2699 C2698 1.391 . S
C2699 C2703 1.376 . S
C2700 C2698 1.394 . S
C2700 C2701 1.369 . S
C2700 C2704 1.531 . S
C2701 C2700 1.369 . S
C2701 C2702 1.410 . S
C2701 C2709 1.503 . S
C2702 C2701 1.410 . S
C2702 C2703 1.392 . S
C2702 C2705 1.511 . S
C2703 C2699 1.376 . S
C2703 C2702 1.392 . S
C2703 H2715 0.929 . S
C2704 C2700 1.531 . S
C2704 H2716 0.960 . S
C2704 H2717 0.962 . S
C2704 H2718 0.960 . S
C2705 C2702 1.511 . S
C2705 H2719 0.961 . S
C2705 H2720 0.961 . S
C2705 H2721 0.961 . S
C2706 C2707 1.370 . S
C2706 C2708 1.363 . S
C2706 H2722 0.931 . S
C2707 C2706 1.370 . S
C2707 C2711 1.408 . S
C2708 C2706 1.363 . S
C2708 C2709 1.370 . S
C2708 C2712 1.524 . S
C2709 C2701 1.503 . S
C2709 C2708 1.370 . S
C2709 C2710 1.403 . S
C2710 C2709 1.403 . S
C2710 C2711 1.404 . S
C2710 C2713 1.539 . S
C2711 C2707 1.408 . S
C2711 C2710 1.404 . S
C2711 H2723 0.930 . S
C2712 C2708 1.524 . S
C2712 H2724 0.956 . S
C2712 H2725 0.961 . S
C2712 H2726 0.961 . S
C2713 C2710 1.539 . S
C2713 H2727 0.958 . S
C2713 H2728 0.961 . S
C2713 H2729 0.960 . S
H2714 C2698 0.931 . S
H2715 C2703 0.929 . S
H2716 C2704 0.960 . S
H2717 C2704 0.962 . S
H2718 C2704 0.960 . S
H2719 C2705 0.961 . S
H2720 C2705 0.961 . S
H2721 C2705 0.961 . S
H2722 C2706 0.931 . S
H2723 C2711 0.930 . S
H2724 C2712 0.956 . S
H2725 C2712 0.961 . S
H2726 C2712 0.961 . S
H2727 C2713 0.958 . S
H2728 C2713 0.961 . S
H2729 C2713 0.960 . S
C2730 C2731 1.391 . S
C2730 C2732 1.394 . S
C2730 H2746 0.931 . S
C2731 C2730 1.391 . S
C2731 C2735 1.376 1_455 S
C2732 C2730 1.394 . S
C2732 C2733 1.369 . S
C2732 C2736 1.531 . S
C2733 C2732 1.369 . S
C2733 C2734 1.410 1_455 S
C2733 C2741 1.503 . S
C2734 C2733 1.410 1_655 S
C2734 C2735 1.392 . S
C2734 C2737 1.511 . S
C2735 C2731 1.376 1_655 S
C2735 C2734 1.392 . S
C2735 H2747 0.929 . S
C2736 C2732 1.531 . S
C2736 H2748 0.960 . S
C2736 H2749 0.962 . S
C2736 H2750 0.960 . S
C2737 C2734 1.511 . S
C2737 H2751 0.961 . S
C2737 H2752 0.961 . S
C2737 H2753 0.961 . S
C2738 C2739 1.370 . S
C2738 C2740 1.363 . S
C2738 H2754 0.931 . S
C2739 C2738 1.370 . S
C2739 C2743 1.423 1_455 S
C2740 C2738 1.363 . S
C2740 C2741 1.370 . S
C2740 C2744 1.524 . S
C2741 C2733 1.503 . S
C2741 C2740 1.370 . S
C2741 C2742 1.411 . S
C2742 C2741 1.411 . S
C2742 C2743 1.356 1_455 S
C2742 C2745 1.543 1_455 S
C2743 C2739 1.423 1_655 S
C2743 C2742 1.356 1_655 S
C2743 H2755 0.955 . S
C2744 C2740 1.524 . S
C2744 H2756 0.956 . S
C2744 H2757 0.961 . S
C2744 H2758 0.961 . S
C2745 C2742 1.543 1_655 S
C2745 H2759 0.958 1_655 S
C2745 H2760 0.961 . S
C2745 H2761 0.960 . S
H2746 C2730 0.931 . S
H2747 C2735 0.929 . S
H2748 C2736 0.960 . S
H2749 C2736 0.962 . S
H2750 C2736 0.960 . S
H2751 C2737 0.961 . S
H2752 C2737 0.961 . S
H2753 C2737 0.961 . S
H2754 C2738 0.931 . S
H2755 C2743 0.955 . S
H2756 C2744 0.956 . S
H2757 C2744 0.961 . S
H2758 C2744 0.961 . S
H2759 C2745 0.958 1_455 S
H2760 C2745 0.961 . S
H2761 C2745 0.960 . S
C2762 C2763 1.391 . S
C2762 C2764 1.394 . S
C2762 H2778 0.931 . S
C2763 C2762 1.391 . S
C2763 C2767 1.376 . S
C2764 C2762 1.394 . S
C2764 C2765 1.369 . S
C2764 C2768 1.531 . S
C2765 C2764 1.369 . S
C2765 C2766 1.410 . S
C2765 C2773 1.503 . S
C2766 C2765 1.410 . S
C2766 C2767 1.392 . S
C2766 C2769 1.511 . S
C2767 C2763 1.376 . S
C2767 C2766 1.392 . S
C2767 H2779 0.929 . S
C2768 C2764 1.531 . S
C2768 H2780 0.960 . S
C2768 H2781 0.962 . S
C2768 H2782 0.960 . S
C2769 C2766 1.511 . S
C2769 H2783 0.961 . S
C2769 H2784 0.961 . S
C2769 H2785 0.961 . S
C2770 C2771 1.370 . S
C2770 C2772 1.363 . S
C2770 H2786 0.931 . S
C2771 C2770 1.370 . S
C2771 C2775 1.408 . S
C2772 C2770 1.363 . S
C2772 C2773 1.370 . S
C2772 C2776 1.524 . S
C2773 C2765 1.503 . S
C2773 C2772 1.370 . S
C2773 C2774 1.403 . S
C2774 C2773 1.403 . S
C2774 C2775 1.404 . S
C2774 C2777 1.539 . S
C2775 C2771 1.408 . S
C2775 C2774 1.404 . S
C2775 H2787 0.930 . S
C2776 C2772 1.524 . S
C2776 H2788 0.956 . S
C2776 H2789 0.961 . S
C2776 H2790 0.961 . S
C2777 C2774 1.539 . S
C2777 H2791 0.958 . S
C2777 H2792 0.961 . S
C2777 H2793 0.960 . S
H2778 C2762 0.931 . S
H2779 C2767 0.929 . S
H2780 C2768 0.960 . S
H2781 C2768 0.962 . S
H2782 C2768 0.960 . S
H2783 C2769 0.961 . S
H2784 C2769 0.961 . S
H2785 C2769 0.961 . S
H2786 C2770 0.931 . S
H2787 C2775 0.930 . S
H2788 C2776 0.956 . S
H2789 C2776 0.961 . S
H2790 C2776 0.961 . S
H2791 C2777 0.958 . S
H2792 C2777 0.961 . S
H2793 C2777 0.960 . S
C2794 C2795 1.391 1_545 S
C2794 C2796 1.394 . S
C2794 H2810 0.931 . S
C2795 C2794 1.391 1_565 S
C2795 C2799 1.376 . S
C2796 C2794 1.394 . S
C2796 C2797 1.369 1_545 S
C2796 C2800 1.531 . S
C2797 C2796 1.369 1_565 S
C2797 C2798 1.410 . S
C2797 C2805 1.503 . S
C2798 C2797 1.410 . S
C2798 C2799 1.392 . S
C2798 C2801 1.511 . S
C2799 C2795 1.376 . S
C2799 C2798 1.392 . S
C2799 H2811 0.929 . S
C2800 C2796 1.531 . S
C2800 H2812 0.960 . S
C2800 H2813 0.962 . S
C2800 H2814 0.960 . S
C2801 C2798 1.511 . S
C2801 H2815 0.961 . S
C2801 H2816 0.961 . S
C2801 H2817 0.961 . S
C2802 C2803 1.370 . S
C2802 C2804 1.363 . S
C2802 H2818 0.931 . S
C2803 C2802 1.370 . S
C2803 C2807 1.408 1_565 S
C2804 C2802 1.363 . S
C2804 C2805 1.370 . S
C2804 C2808 1.524 . S
C2805 C2797 1.503 . S
C2805 C2804 1.370 . S
C2805 C2806 1.403 1_565 S
C2806 C2805 1.403 1_545 S
C2806 C2807 1.404 . S
C2806 C2809 1.539 . S
C2807 C2803 1.408 1_545 S
C2807 C2806 1.404 . S
C2807 H2819 0.930 . S
C2808 C2804 1.524 . S
C2808 H2820 0.956 . S
C2808 H2821 0.961 . S
C2808 H2822 0.961 . S
C2809 C2806 1.539 . S
C2809 H2823 0.958 . S
C2809 H2824 0.961 . S
C2809 H2825 0.960 . S
H2810 C2794 0.931 . S
H2811 C2799 0.929 . S
H2812 C2800 0.960 . S
H2813 C2800 0.962 . S
H2814 C2800 0.960 . S
H2815 C2801 0.961 . S
H2816 C2801 0.961 . S
H2817 C2801 0.961 . S
H2818 C2802 0.931 . S
H2819 C2807 0.930 . S
H2820 C2808 0.956 . S
H2821 C2808 0.961 . S
H2822 C2808 0.961 . S
H2823 C2809 0.958 . S
H2824 C2809 0.961 . S
H2825 C2809 0.960 . S
C2826 C2827 1.391 . S
C2826 C2828 1.394 . S
C2826 H2842 0.931 . S
C2827 C2826 1.391 . S
C2827 C2831 1.376 1_565 S
C2828 C2826 1.394 . S
C2828 C2829 1.369 . S
C2828 C2832 1.531 . S
C2829 C2828 1.369 . S
C2829 C2830 1.410 1_565 S
C2829 C2837 1.503 . S
C2830 C2829 1.410 1_545 S
C2830 C2831 1.392 . S
C2830 C2833 1.511 . S
C2831 C2827 1.376 1_545 S
C2831 C2830 1.392 . S
C2831 H2843 0.929 . S
C2832 C2828 1.531 . S
C2832 H2844 0.960 . S
C2832 H2845 0.962 . S
C2832 H2846 0.960 . S
C2833 C2830 1.511 . S
C2833 H2847 0.961 . S
C2833 H2848 0.961 . S
C2833 H2849 0.961 . S
C2834 C2835 1.370 . S
C2834 C2836 1.363 . S
C2834 H2850 0.931 . S
C2835 C2834 1.370 . S
C2835 C2839 1.408 . S
C2836 C2834 1.363 . S
C2836 C2837 1.370 . S
C2836 C2840 1.524 . S
C2837 C2829 1.503 . S
C2837 C2836 1.370 . S
C2837 C2838 1.403 . S
C2838 C2837 1.403 . S
C2838 C2839 1.404 . S
C2838 C2841 1.539 . S
C2839 C2835 1.408 . S
C2839 C2838 1.404 . S
C2839 H2851 0.930 . S
C2840 C2836 1.524 . S
C2840 H2852 0.956 . S
C2840 H2853 0.961 1_565 S
C2840 H2854 0.961 . S
C2841 C2838 1.539 . S
C2841 H2855 0.958 . S
C2841 H2856 0.961 1_565 S
C2841 H2857 0.956 . S
H2842 C2826 0.931 . S
H2843 C2831 0.929 . S
H2844 C2832 0.960 . S
H2845 C2832 0.962 . S
H2846 C2832 0.960 . S
H2847 C2833 0.961 . S
H2848 C2833 0.961 . S
H2849 C2833 0.961 . S
H2850 C2834 0.931 . S
H2851 C2839 0.930 . S
H2852 C2840 0.956 . S
H2853 C2840 0.961 1_545 S
H2854 C2840 0.961 . S
H2855 C2841 0.958 . S
H2856 C2841 0.961 1_545 S
H2857 C2841 0.956 . S
C2858 C2859 1.391 . S
C2858 C2860 1.394 . S
C2858 H2874 0.931 . S
C2859 C2858 1.391 . S
C2859 C2863 1.376 1_455 S
C2860 C2858 1.394 . S
C2860 C2861 1.369 . S
C2860 C2864 1.531 . S
C2861 C2860 1.369 . S
C2861 C2862 1.410 1_455 S
C2861 C2869 1.503 . S
C2862 C2861 1.410 1_655 S
C2862 C2863 1.392 . S
C2862 C2865 1.511 . S
C2863 C2859 1.376 1_655 S
C2863 C2862 1.392 . S
C2863 H2875 0.929 . S
C2864 C2860 1.531 . S
C2864 H2876 0.960 . S
C2864 H2877 0.962 . S
C2864 H2878 0.960 . S
C2865 C2862 1.511 . S
C2865 H2879 0.961 . S
C2865 H2880 0.961 . S
C2865 H2881 0.961 . S
C2866 C2867 1.370 . S
C2866 C2868 1.363 . S
C2866 H2882 0.931 . S
C2867 C2866 1.370 . S
C2867 C2871 1.408 1_455 S
C2868 C2866 1.363 . S
C2868 C2869 1.370 . S
C2868 C2872 1.524 . S
C2869 C2861 1.503 . S
C2869 C2868 1.370 . S
C2869 C2870 1.403 1_455 S
C2870 C2869 1.403 1_655 S
C2870 C2871 1.404 . S
C2870 C2873 1.539 . S
C2871 C2867 1.408 1_655 S
C2871 C2870 1.404 . S
C2871 H2883 0.930 . S
C2872 C2868 1.524 . S
C2872 H2884 0.956 . S
C2872 H2885 0.961 . S
C2872 H2886 0.961 . S
C2873 C2870 1.539 . S
C2873 H2887 0.958 . S
C2873 H2888 0.961 . S
C2873 H2889 0.960 . S
H2874 C2858 0.931 . S
H2875 C2863 0.929 . S
H2876 C2864 0.960 . S
H2877 C2864 0.962 . S
H2878 C2864 0.960 . S
H2879 C2865 0.961 . S
H2880 C2865 0.961 . S
H2881 C2865 0.961 . S
H2882 C2866 0.931 . S
H2883 C2871 0.930 . S
H2884 C2872 0.956 . S
H2885 C2872 0.961 . S
H2886 C2872 0.961 . S
H2887 C2873 0.958 . S
H2888 C2873 0.961 . S
H2889 C2873 0.960 . S
C2890 C2891 1.391 . S
C2890 C2892 1.394 . S
C2890 H2906 0.931 . S
C2891 C2890 1.391 . S
C2891 C2895 1.376 . S
C2892 C2890 1.394 . S
C2892 C2893 1.369 . S
C2892 C2896 1.531 . S
C2893 C2892 1.369 . S
C2893 C2894 1.410 . S
C2893 C2901 1.503 . S
C2894 C2893 1.410 . S
C2894 C2895 1.392 . S
C2894 C2897 1.511 . S
C2895 C2891 1.376 . S
C2895 C2894 1.392 . S
C2895 H2907 0.929 . S
C2896 C2892 1.531 . S
C2896 H2908 0.960 . S
C2896 H2909 0.962 . S
C2896 H2910 0.960 . S
C2897 C2894 1.511 . S
C2897 H2911 0.961 . S
C2897 H2912 0.961 . S
C2897 H2913 0.961 . S
C2898 C2899 1.370 . S
C2898 C2900 1.363 . S
C2898 H2914 0.931 . S
C2899 C2898 1.370 . S
C2899 C2903 1.408 . S
C2900 C2898 1.363 . S
C2900 C2901 1.370 . S
C2900 C2904 1.524 . S
C2901 C2893 1.503 . S
C2901 C2900 1.370 . S
C2901 C2902 1.403 . S
C2902 C2901 1.403 . S
C2902 C2903 1.404 . S
C2902 C2905 1.539 . S
C2903 C2899 1.408 . S
C2903 C2902 1.404 . S
C2903 H2915 0.930 . S
C2904 C2900 1.524 . S
C2904 H2916 0.956 . S
C2904 H2917 0.961 . S
C2904 H2918 0.961 . S
C2905 C2902 1.539 . S
C2905 H2919 0.958 . S
C2905 H2920 0.961 . S
C2905 H2921 0.960 . S
H2906 C2890 0.931 . S
H2907 C2895 0.929 . S
H2908 C2896 0.960 . S
H2909 C2896 0.962 . S
H2910 C2896 0.960 . S
H2911 C2897 0.961 . S
H2912 C2897 0.961 . S
H2913 C2897 0.961 . S
H2914 C2898 0.931 . S
H2915 C2903 0.930 . S
H2916 C2904 0.956 . S
H2917 C2904 0.961 . S
H2918 C2904 0.961 . S
H2919 C2905 0.958 . S
H2920 C2905 0.961 . S
H2921 C2905 0.960 . S
C2922 C2923 1.391 . S
C2922 C2924 1.394 . S
C2922 H2938 0.931 . S
C2923 C2922 1.391 . S
C2923 C2927 1.376 . S
C2924 C2922 1.394 . S
C2924 C2925 1.369 . S
C2924 C2928 1.531 . S
C2925 C2924 1.369 . S
C2925 C2926 1.410 . S
C2925 C2933 1.503 . S
C2926 C2925 1.410 . S
C2926 C2927 1.392 . S
C2926 C2929 1.511 . S
C2927 C2923 1.376 . S
C2927 C2926 1.392 . S
C2927 H2939 0.929 . S
C2928 C2924 1.531 . S
C2928 H2940 0.960 . S
C2928 H2941 0.962 . S
C2928 H2942 0.960 . S
C2929 C2926 1.511 . S
C2929 H2943 0.961 . S
C2929 H2944 0.961 . S
C2929 H2945 0.961 . S
C2930 C2931 1.370 . S
C2930 C2932 1.363 . S
C2930 H2946 0.931 . S
C2931 C2930 1.370 . S
C2931 C2935 1.408 . S
C2932 C2930 1.363 . S
C2932 C2933 1.370 . S
C2932 C2936 1.524 . S
C2933 C2925 1.503 . S
C2933 C2932 1.370 . S
C2933 C2934 1.403 . S
C2934 C2933 1.403 . S
C2934 C2935 1.404 . S
C2934 C2937 1.539 . S
C2935 C2931 1.408 . S
C2935 C2934 1.404 . S
C2935 H2947 0.930 . S
C2936 C2932 1.524 . S
C2936 H2948 0.956 . S
C2936 H2949 0.961 . S
C2936 H2950 0.961 . S
C2937 C2934 1.539 . S
C2937 H2951 0.958 . S
C2937 H2952 0.961 . S
C2937 H2953 0.960 . S
H2938 C2922 0.931 . S
H2939 C2927 0.929 . S
H2940 C2928 0.960 . S
H2941 C2928 0.962 . S
H2942 C2928 0.960 . S
H2943 C2929 0.961 . S
H2944 C2929 0.961 . S
H2945 C2929 0.961 . S
H2946 C2930 0.931 . S
H2947 C2935 0.930 . S
H2948 C2936 0.956 . S
H2949 C2936 0.961 . S
H2950 C2936 0.961 . S
H2951 C2937 0.958 . S
H2952 C2937 0.961 . S
H2953 C2937 0.960 . S
C2954 C2955 1.391 . S
C2954 C2956 1.394 . S
C2954 H2970 0.931 . S
C2955 C2954 1.391 . S
C2955 C2959 1.376 . S
C2956 C2954 1.394 . S
C2956 C2957 1.369 . S
C2956 C2960 1.531 . S
C2957 C2956 1.369 . S
C2957 C2958 1.410 . S
C2957 C2965 1.503 . S
C2958 C2957 1.410 . S
C2958 C2959 1.392 . S
C2958 C2961 1.511 . S
C2959 C2955 1.376 . S
C2959 C2958 1.392 . S
C2959 H2971 0.929 . S
C2960 C2956 1.531 . S
C2960 H2972 0.960 . S
C2960 H2973 0.962 . S
C2960 H2974 0.960 . S
C2961 C2958 1.511 . S
C2961 H2975 0.961 . S
C2961 H2976 0.961 . S
C2961 H2977 0.961 . S
C2962 C2963 1.370 . S
C2962 C2964 1.363 . S
C2962 H2978 0.931 . S
C2963 C2962 1.370 . S
C2963 C2967 1.408 . S
C2964 C2962 1.363 . S
C2964 C2965 1.370 . S
C2964 C2968 1.524 . S
C2965 C2957 1.503 . S
C2965 C2964 1.370 . S
C2965 C2966 1.403 . S
C2966 C2965 1.403 . S
C2966 C2967 1.404 . S
C2966 C2969 1.539 . S
C2967 C2963 1.408 . S
C2967 C2966 1.404 . S
C2967 H2979 0.930 . S
C2968 C2964 1.524 . S
C2968 H2980 0.956 . S
C2968 H2981 0.961 . S
C2968 H2982 0.961 . S
C2969 C2966 1.539 . S
C2969 H2983 0.958 . S
C2969 H2984 0.961 . S
C2969 H2985 0.960 . S
H2970 C2954 0.931 . S
H2971 C2959 0.929 . S
H2972 C2960 0.960 . S
H2973 C2960 0.962 . S
H2974 C2960 0.960 . S
H2975 C2961 0.961 . S
H2976 C2961 0.961 . S
H2977 C2961 0.961 . S
H2978 C2962 0.931 . S
H2979 C2967 0.930 . S
H2980 C2968 0.956 . S
H2981 C2968 0.961 . S
H2982 C2968 0.961 . S
H2983 C2969 0.958 . S
H2984 C2969 0.961 . S
H2985 C2969 0.960 . S
C2986 C2987 1.391 . S
C2986 C2988 1.394 . S
C2986 H3002 0.931 . S
C2987 C2986 1.391 . S
C2987 C2991 1.376 . S
C2988 C2986 1.394 . S
C2988 C2989 1.369 . S
C2988 C2992 1.531 . S
C2989 C2988 1.369 . S
C2989 C2990 1.410 . S
C2989 C2997 1.503 . S
C2990 C2989 1.410 . S
C2990 C2991 1.392 . S
C2990 C2993 1.511 . S
C2991 C2987 1.376 . S
C2991 C2990 1.392 . S
C2991 H3003 0.929 . S
C2992 C2988 1.531 . S
C2992 H3004 0.960 . S
C2992 H3005 0.962 . S
C2992 H3006 0.960 . S
C2993 C2990 1.511 . S
C2993 H3007 0.961 . S
C2993 H3008 0.961 . S
C2993 H3009 0.961 . S
C2994 C2995 1.370 . S
C2994 C2996 1.363 . S
C2994 H3010 0.931 . S
C2995 C2994 1.370 . S
C2995 C2999 1.408 . S
C2996 C2994 1.363 . S
C2996 C2997 1.370 . S
C2996 C3000 1.524 . S
C2997 C2989 1.503 . S
C2997 C2996 1.370 . S
C2997 C2998 1.403 . S
C2998 C2997 1.403 . S
C2998 C2999 1.404 . S
C2998 C3001 1.539 . S
C2999 C2995 1.408 . S
C2999 C2998 1.404 . S
C2999 H3011 0.930 . S
C3000 C2996 1.524 . S
C3000 H3012 0.956 . S
C3000 H3013 0.961 . S
C3000 H3014 0.961 . S
C3001 C2998 1.539 . S
C3001 H3015 0.958 . S
C3001 H3016 0.961 . S
C3001 H3017 0.960 . S
H3002 C2986 0.931 . S
H3003 C2991 0.929 . S
H3004 C2992 0.960 . S
H3005 C2992 0.962 . S
H3006 C2992 0.960 . S
H3007 C2993 0.961 . S
H3008 C2993 0.961 . S
H3009 C2993 0.961 . S
H3010 C2994 0.931 . S
H3011 C2999 0.930 . S
H3012 C3000 0.956 . S
H3013 C3000 0.961 . S
H3014 C3000 0.961 . S
H3015 C3001 0.958 . S
H3016 C3001 0.961 . S
H3017 C3001 0.960 . S
C3018 C3019 1.391 . S
C3018 C3020 1.408 . S
C3018 H3034 0.930 1_545 S
C3019 C3018 1.391 . S
C3019 C3023 1.376 . S
C3020 C3018 1.408 . S
C3020 C3021 1.363 . S
C3020 C3024 1.523 1_545 S
C3021 C3020 1.363 . S
C3021 C3022 1.410 . S
C3021 C3029 1.503 . S
C3022 C3021 1.410 . S
C3022 C3023 1.392 . S
C3022 C3025 1.511 . S
C3023 C3019 1.376 . S
C3023 C3022 1.392 . S
C3023 H3035 0.929 . S
C3024 C3020 1.523 1_565 S
C3024 H3036 0.960 . S
C3024 H3037 0.962 1_565 S
C3024 H3038 0.960 . S
C3025 C3022 1.511 . S
C3025 H3039 0.961 . S
C3025 H3040 0.961 . S
C3025 H3041 0.961 . S
C3026 C3027 1.370 . S
C3026 C3028 1.363 . S
C3026 H3042 0.931 . S
C3027 C3026 1.370 . S
C3027 C3031 1.408 1_545 S
C3028 C3026 1.363 . S
C3028 C3029 1.370 . S
C3028 C3032 1.524 . S
C3029 C3021 1.503 . S
C3029 C3028 1.370 . S
C3029 C3030 1.403 1_545 S
C3030 C3029 1.403 1_565 S
C3030 C3031 1.404 . S
C3030 C3033 1.539 . S
C3031 C3027 1.408 1_565 S
C3031 C3030 1.404 . S
C3031 H3043 0.930 . S
C3032 C3028 1.524 . S
C3032 H3044 0.956 . S
C3032 H3045 0.961 . S
C3032 H3046 0.961 . S
C3033 C3030 1.539 . S
C3033 H3047 0.958 . S
C3033 H3048 0.961 . S
C3033 H3049 0.960 . S
H3034 C3018 0.930 1_565 S
H3035 C3023 0.929 . S
H3036 C3024 0.960 . S
H3037 C3024 0.962 1_545 S
H3038 C3024 0.960 . S
H3039 C3025 0.961 . S
H3040 C3025 0.961 . S
H3041 C3025 0.961 . S
H3042 C3026 0.931 . S
H3043 C3031 0.930 . S
H3044 C3032 0.956 . S
H3045 C3032 0.961 . S
H3046 C3032 0.961 . S
H3047 C3033 0.958 . S
H3048 C3033 0.961 . S
H3049 C3033 0.960 . S
C3050 C3051 1.391 1_455 S
C3050 C3052 1.394 . S
C3050 H3066 0.931 . S
C3051 C3050 1.391 1_655 S
C3051 C3055 1.376 . S
C3052 C3050 1.394 . S
C3052 C3053 1.369 1_455 S
C3052 C3056 1.531 . S
C3053 C3052 1.369 1_655 S
C3053 C3054 1.410 . S
C3053 C3061 1.503 . S
C3054 C3053 1.410 . S
C3054 C3055 1.392 . S
C3054 C3057 1.511 . S
C3055 C3051 1.376 . S
C3055 C3054 1.392 . S
C3055 H3067 0.929 . S
C3056 C3052 1.531 . S
C3056 H3068 0.960 . S
C3056 H3069 0.962 . S
C3056 H3070 0.960 . S
C3057 C3054 1.511 . S
C3057 H3071 0.961 . S
C3057 H3072 0.961 . S
C3057 H3073 0.961 . S
C3058 C3059 1.370 . S
C3058 C3060 1.363 . S
C3058 H3074 0.940 . S
C3059 C3058 1.370 . S
C3059 C3063 1.408 . S
C3060 C3058 1.363 . S
C3060 C3061 1.370 . S
C3060 C3064 1.524 . S
C3061 C3053 1.503 . S
C3061 C3060 1.370 . S
C3061 C3062 1.403 . S
C3062 C3061 1.403 . S
C3062 C3063 1.404 . S
C3062 C3065 1.539 . S
C3063 C3059 1.408 . S
C3063 C3062 1.404 . S
C3063 H3075 0.930 . S
C3064 C3060 1.524 . S
C3064 H3076 0.956 1_655 S
C3064 H3077 0.961 . S
C3064 H3078 0.961 . S
C3065 C3062 1.539 . S
C3065 H3079 0.958 . S
C3065 H3080 0.961 . S
C3065 H3081 0.960 . S
H3066 C3050 0.931 . S
H3067 C3055 0.929 . S
H3068 C3056 0.960 . S
H3069 C3056 0.962 . S
H3070 C3056 0.960 . S
H3071 C3057 0.961 . S
H3072 C3057 0.961 . S
H3073 C3057 0.961 . S
H3074 C3058 0.940 . S
H3075 C3063 0.930 . S
H3076 C3064 0.956 1_455 S
H3077 C3064 0.961 . S
H3078 C3064 0.961 . S
H3079 C3065 0.958 . S
H3080 C3065 0.961 . S
H3081 C3065 0.960 . S
C3082 C3083 1.391 . S
C3082 C3084 1.394 . S
C3082 H3098 0.931 . S
C3083 C3082 1.391 . S
C3083 C3087 1.376 . S
C3084 C3082 1.394 . S
C3084 C3085 1.369 . S
C3084 C3088 1.531 . S
C3085 C3084 1.369 . S
C3085 C3086 1.410 . S
C3085 C3093 1.503 . S
C3086 C3085 1.410 . S
C3086 C3087 1.392 . S
C3086 C3089 1.511 . S
C3087 C3083 1.376 . S
C3087 C3086 1.392 . S
C3087 H3099 0.929 . S
C3088 C3084 1.531 . S
C3088 H3100 0.960 . S
C3088 H3101 0.962 . S
C3088 H3102 0.960 . S
C3089 C3086 1.511 . S
C3089 H3103 0.961 . S
C3089 H3104 0.961 . S
C3089 H3105 0.961 . S
C3090 C3091 1.370 . S
C3090 C3092 1.363 . S
C3090 H3106 0.931 . S
C3091 C3090 1.370 . S
C3091 C3095 1.408 . S
C3092 C3090 1.363 . S
C3092 C3093 1.370 . S
C3092 C3096 1.524 . S
C3093 C3085 1.503 . S
C3093 C3092 1.370 . S
C3093 C3094 1.403 . S
C3094 C3093 1.403 . S
C3094 C3095 1.404 . S
C3094 C3097 1.539 . S
C3095 C3091 1.408 . S
C3095 C3094 1.404 . S
C3095 H3107 0.930 . S
C3096 C3092 1.524 . S
C3096 H3108 0.956 . S
C3096 H3109 0.961 . S
C3096 H3110 0.961 . S
C3097 C3094 1.539 . S
C3097 H3111 0.958 . S
C3097 H3112 0.961 . S
C3097 H3113 0.960 . S
H3098 C3082 0.931 . S
H3099 C3087 0.929 . S
H3100 C3088 0.960 . S
H3101 C3088 0.962 . S
H3102 C3088 0.960 . S
H3103 C3089 0.961 . S
H3104 C3089 0.961 . S
H3105 C3089 0.961 . S
H3106 C3090 0.931 . S
H3107 C3095 0.930 . S
H3108 C3096 0.956 . S
H3109 C3096 0.961 . S
H3110 C3096 0.961 . S
H3111 C3097 0.958 . S
H3112 C3097 0.961 . S
H3113 C3097 0.960 . S
C3114 C3115 1.391 . S
C3114 C3116 1.394 . S
C3114 H3130 0.931 . S
C3115 C3114 1.391 . S
C3115 C3119 1.376 . S
C3116 C3114 1.394 . S
C3116 C3117 1.369 . S
C3116 C3120 1.531 . S
C3117 C3116 1.369 . S
C3117 C3118 1.410 . S
C3117 C3125 1.503 . S
C3118 C3117 1.410 . S
C3118 C3119 1.392 . S
C3118 C3121 1.511 . S
C3119 C3115 1.376 . S
C3119 C3118 1.392 . S
C3119 H3131 0.929 . S
C3120 C3116 1.531 . S
C3120 H3132 0.960 . S
C3120 H3133 0.962 . S
C3120 H3134 0.960 . S
C3121 C3118 1.511 . S
C3121 H3135 0.961 . S
C3121 H3136 0.961 . S
C3121 H3137 0.961 . S
C3122 C3123 1.370 . S
C3122 C3124 1.363 . S
C3122 H3138 0.931 . S
C3123 C3122 1.370 . S
C3123 C3127 1.408 . S
C3124 C3122 1.363 . S
C3124 C3125 1.370 . S
C3124 C3128 1.524 . S
C3125 C3117 1.503 . S
C3125 C3124 1.370 . S
C3125 C3126 1.403 . S
C3126 C3125 1.403 . S
C3126 C3127 1.404 . S
C3126 C3129 1.539 . S
C3127 C3123 1.408 . S
C3127 C3126 1.404 . S
C3127 H3139 0.930 . S
C3128 C3124 1.524 . S
C3128 H3140 0.956 . S
C3128 H3141 0.961 . S
C3128 H3142 0.961 . S
C3129 C3126 1.539 . S
C3129 H3143 0.958 . S
C3129 H3144 0.961 . S
C3129 H3145 0.960 . S
H3130 C3114 0.931 . S
H3131 C3119 0.929 . S
H3132 C3120 0.960 . S
H3133 C3120 0.962 . S
H3134 C3120 0.960 . S
H3135 C3121 0.961 . S
H3136 C3121 0.961 . S
H3137 C3121 0.961 . S
H3138 C3122 0.931 . S
H3139 C3127 0.930 . S
H3140 C3128 0.956 . S
H3141 C3128 0.961 . S
H3142 C3128 0.961 . S
H3143 C3129 0.958 . S
H3144 C3129 0.961 . S
H3145 C3129 0.960 . S
C3146 C3147 1.391 . S
C3146 C3148 1.394 . S
C3146 H3162 0.931 . S
C3147 C3146 1.391 . S
C3147 C3151 1.376 . S
C3148 C3146 1.394 . S
C3148 C3149 1.369 . S
C3148 C3152 1.531 . S
C3149 C3148 1.369 . S
C3149 C3150 1.410 . S
C3149 C3157 1.503 . S
C3150 C3149 1.410 . S
C3150 C3151 1.392 . S
C3150 C3153 1.511 . S
C3151 C3147 1.376 . S
C3151 C3150 1.392 . S
C3151 H3163 0.929 . S
C3152 C3148 1.531 . S
C3152 H3164 0.960 . S
C3152 H3165 0.962 . S
C3152 H3166 0.960 . S
C3153 C3150 1.511 . S
C3153 H3167 0.961 . S
C3153 H3168 0.961 . S
C3153 H3169 0.961 . S
C3154 C3155 1.370 . S
C3154 C3156 1.363 . S
C3154 H3170 0.931 . S
C3155 C3154 1.370 . S
C3155 C3159 1.408 . S
C3156 C3154 1.363 . S
C3156 C3157 1.370 . S
C3156 C3160 1.524 . S
C3157 C3149 1.503 . S
C3157 C3156 1.370 . S
C3157 C3158 1.403 . S
C3158 C3157 1.403 . S
C3158 C3159 1.404 . S
C3158 C3161 1.539 . S
C3159 C3155 1.408 . S
C3159 C3158 1.404 . S
C3159 H3171 0.930 . S
C3160 C3156 1.524 . S
C3160 H3172 0.956 . S
C3160 H3173 0.961 . S
C3160 H3174 0.961 . S
C3161 C3158 1.539 . S
C3161 H3175 0.958 . S
C3161 H3176 0.961 . S
C3161 H3177 0.960 . S
H3162 C3146 0.931 . S
H3163 C3151 0.929 . S
H3164 C3152 0.960 . S
H3165 C3152 0.962 . S
H3166 C3152 0.960 . S
H3167 C3153 0.961 . S
H3168 C3153 0.961 . S
H3169 C3153 0.961 . S
H3170 C3154 0.931 . S
H3171 C3159 0.930 . S
H3172 C3160 0.956 . S
H3173 C3160 0.961 . S
H3174 C3160 0.961 . S
H3175 C3161 0.958 . S
H3176 C3161 0.961 . S
H3177 C3161 0.960 . S
C3178 C3179 1.391 . S
C3178 C3180 1.394 . S
C3178 H3194 0.931 . S
C3179 C3178 1.391 . S
C3179 C3183 1.376 . S
C3180 C3178 1.394 . S
C3180 C3181 1.369 . S
C3180 C3184 1.531 . S
C3181 C3180 1.369 . S
C3181 C3182 1.410 . S
C3181 C3189 1.503 . S
C3182 C3181 1.410 . S
C3182 C3183 1.392 . S
C3182 C3185 1.511 . S
C3183 C3179 1.376 . S
C3183 C3182 1.392 . S
C3183 H3195 0.929 . S
C3184 C3180 1.531 . S
C3184 H3196 0.960 . S
C3184 H3197 0.962 . S
C3184 H3198 0.960 . S
C3185 C3182 1.511 . S
C3185 H3199 0.961 . S
C3185 H3200 0.961 . S
C3185 H3201 0.961 . S
C3186 C3187 1.370 . S
C3186 C3188 1.363 . S
C3186 H3202 0.931 . S
C3187 C3186 1.370 . S
C3187 C3191 1.408 . S
C3188 C3186 1.363 . S
C3188 C3189 1.370 . S
C3188 C3192 1.524 . S
C3189 C3181 1.503 . S
C3189 C3188 1.370 . S
C3189 C3190 1.403 . S
C3190 C3189 1.403 . S
C3190 C3191 1.404 . S
C3190 C3193 1.539 . S
C3191 C3187 1.408 . S
C3191 C3190 1.404 . S
C3191 H3203 0.930 . S
C3192 C3188 1.524 . S
C3192 H3204 0.956 . S
C3192 H3205 0.961 . S
C3192 H3206 0.961 . S
C3193 C3190 1.539 . S
C3193 H3207 0.958 . S
C3193 H3208 0.961 . S
C3193 H3209 0.960 . S
H3194 C3178 0.931 . S
H3195 C3183 0.929 . S
H3196 C3184 0.960 . S
H3197 C3184 0.962 . S
H3198 C3184 0.960 . S
H3199 C3185 0.961 . S
H3200 C3185 0.961 . S
H3201 C3185 0.961 . S
H3202 C3186 0.931 . S
H3203 C3191 0.930 . S
H3204 C3192 0.956 . S
H3205 C3192 0.961 . S
H3206 C3192 0.961 . S
H3207 C3193 0.958 . S
H3208 C3193 0.961 . S
H3209 C3193 0.960 . S
C3210 C3211 1.391 . S
C3210 C3212 1.394 . S
C3210 H3226 0.931 . S
C3211 C3210 1.391 . S
C3211 C3215 1.376 . S
C3212 C3210 1.394 . S
C3212 C3213 1.369 . S
C3212 C3216 1.531 . S
C3213 C3212 1.369 . S
C3213 C3214 1.410 . S
C3213 C3221 1.503 . S
C3214 C3213 1.410 . S
C3214 C3215 1.392 . S
C3214 C3217 1.511 . S
C3215 C3211 1.376 . S
C3215 C3214 1.392 . S
C3215 H3227 0.929 . S
C3216 C3212 1.531 . S
C3216 H3228 0.960 . S
C3216 H3229 0.962 . S
C3216 H3230 0.960 . S
C3217 C3214 1.511 . S
C3217 H3231 0.961 . S
C3217 H3232 0.961 . S
C3217 H3233 0.961 . S
C3218 C3219 1.370 . S
C3218 C3220 1.363 . S
C3218 H3234 0.931 . S
C3219 C3218 1.370 . S
C3219 C3223 1.408 . S
C3220 C3218 1.363 . S
C3220 C3221 1.370 . S
C3220 C3224 1.524 . S
C3221 C3213 1.503 . S
C3221 C3220 1.370 . S
C3221 C3222 1.403 . S
C3222 C3221 1.403 . S
C3222 C3223 1.404 . S
C3222 C3225 1.539 . S
C3223 C3219 1.408 . S
C3223 C3222 1.404 . S
C3223 H3235 0.930 . S
C3224 C3220 1.524 . S
C3224 H3236 0.956 . S
C3224 H3237 0.961 . S
C3224 H3238 0.961 . S
C3225 C3222 1.539 . S
C3225 H3239 0.958 . S
C3225 H3240 0.961 . S
C3225 H3241 0.960 . S
H3226 C3210 0.931 . S
H3227 C3215 0.929 . S
H3228 C3216 0.960 . S
H3229 C3216 0.962 . S
H3230 C3216 0.960 . S
H3231 C3217 0.961 . S
H3232 C3217 0.961 . S
H3233 C3217 0.961 . S
H3234 C3218 0.931 . S
H3235 C3223 0.930 . S
H3236 C3224 0.956 . S
H3237 C3224 0.961 . S
H3238 C3224 0.961 . S
H3239 C3225 0.958 . S
H3240 C3225 0.961 . S
H3241 C3225 0.960 . S
C3242 C3243 1.391 . S
C3242 C3244 1.394 . S
C3242 H3258 0.931 . S
C3243 C3242 1.391 . S
C3243 C3247 1.376 . S
C3244 C3242 1.394 . S
C3244 C3245 1.369 . S
C3244 C3248 1.531 . S
C3245 C3244 1.369 . S
C3245 C3246 1.410 . S
C3245 C3253 1.503 . S
C3246 C3245 1.410 . S
C3246 C3247 1.392 . S
C3246 C3249 1.511 . S
C3247 C3243 1.376 . S
C3247 C3246 1.392 . S
C3247 H3259 0.929 . S
C3248 C3244 1.531 . S
C3248 H3260 0.960 . S
C3248 H3261 0.962 . S
C3248 H3262 0.960 . S
C3249 C3246 1.511 . S
C3249 H3263 0.961 . S
C3249 H3264 0.961 . S
C3249 H3265 0.961 . S
C3250 C3251 1.370 . S
C3250 C3252 1.363 . S
C3250 H3266 0.931 . S
C3251 C3250 1.370 . S
C3251 C3255 1.408 . S
C3252 C3250 1.363 . S
C3252 C3253 1.370 . S
C3252 C3256 1.524 . S
C3253 C3245 1.503 . S
C3253 C3252 1.370 . S
C3253 C3254 1.403 . S
C3254 C3253 1.403 . S
C3254 C3255 1.404 . S
C3254 C3257 1.539 . S
C3255 C3251 1.408 . S
C3255 C3254 1.404 . S
C3255 H3267 0.930 . S
C3256 C3252 1.524 . S
C3256 H3268 0.956 . S
C3256 H3269 0.961 . S
C3256 H3270 0.961 . S
C3257 C3254 1.539 . S
C3257 H3271 0.958 . S
C3257 H3272 0.961 . S
C3257 H3273 0.960 . S
H3258 C3242 0.931 . S
H3259 C3247 0.929 . S
H3260 C3248 0.960 . S
H3261 C3248 0.962 . S
H3262 C3248 0.960 . S
H3263 C3249 0.961 . S
H3264 C3249 0.961 . S
H3265 C3249 0.961 . S
H3266 C3250 0.931 . S
H3267 C3255 0.930 . S
H3268 C3256 0.956 . S
H3269 C3256 0.961 . S
H3270 C3256 0.961 . S
H3271 C3257 0.958 . S
H3272 C3257 0.961 . S
H3273 C3257 0.960 . S
C3274 C3275 1.391 . S
C3274 C3276 1.394 . S
C3274 H3290 0.931 . S
C3275 C3274 1.391 . S
C3275 C3279 1.376 . S
C3276 C3274 1.394 . S
C3276 C3277 1.369 . S
C3276 C3280 1.531 . S
C3277 C3276 1.369 . S
C3277 C3278 1.410 . S
C3277 C3285 1.503 . S
C3278 C3277 1.410 . S
C3278 C3279 1.392 . S
C3278 C3281 1.511 . S
C3279 C3275 1.376 . S
C3279 C3278 1.392 . S
C3279 H3291 0.929 . S
C3280 C3276 1.531 . S
C3280 H3292 0.960 . S
C3280 H3293 0.962 . S
C3280 H3294 0.960 . S
C3281 C3278 1.511 . S
C3281 H3295 0.961 . S
C3281 H3296 0.961 . S
C3281 H3297 0.961 . S
C3282 C3283 1.370 . S
C3282 C3284 1.363 . S
C3282 H3298 0.931 . S
C3283 C3282 1.370 . S
C3283 C3287 1.408 . S
C3284 C3282 1.363 . S
C3284 C3285 1.370 . S
C3284 C3288 1.524 . S
C3285 C3277 1.503 . S
C3285 C3284 1.370 . S
C3285 C3286 1.403 . S
C3286 C3285 1.403 . S
C3286 C3287 1.404 . S
C3286 C3289 1.539 . S
C3287 C3283 1.408 . S
C3287 C3286 1.404 . S
C3287 H3299 0.930 . S
C3288 C3284 1.524 . S
C3288 H3300 0.956 . S
C3288 H3301 0.961 . S
C3288 H3302 0.961 . S
C3289 C3286 1.539 . S
C3289 H3303 0.958 . S
C3289 H3304 0.961 . S
C3289 H3305 0.960 . S
H3290 C3274 0.931 . S
H3291 C3279 0.929 . S
H3292 C3280 0.960 . S
H3293 C3280 0.962 . S
H3294 C3280 0.960 . S
H3295 C3281 0.961 . S
H3296 C3281 0.961 . S
H3297 C3281 0.961 . S
H3298 C3282 0.931 . S
H3299 C3287 0.930 . S
H3300 C3288 0.956 . S
H3301 C3288 0.961 . S
H3302 C3288 0.961 . S
H3303 C3289 0.958 . S
H3304 C3289 0.961 . S
H3305 C3289 0.960 . S
C3306 C3307 1.391 . S
C3306 C3308 1.394 . S
C3306 H3322 0.931 . S
C3307 C3306 1.391 . S
C3307 C3311 1.376 1_655 S
C3308 C3306 1.394 . S
C3308 C3309 1.369 . S
C3308 C3312 1.531 . S
C3309 C3308 1.369 . S
C3309 C3310 1.410 1_655 S
C3309 C3317 1.503 . S
C3310 C3309 1.410 1_455 S
C3310 C3311 1.392 . S
C3310 C3313 1.511 . S
C3311 C3307 1.376 1_455 S
C3311 C3310 1.392 . S
C3311 H3323 0.929 . S
C3312 C3308 1.531 . S
C3312 H3324 0.960 . S
C3312 H3325 0.962 . S
C3312 H3326 0.960 . S
C3313 C3310 1.511 . S
C3313 H3327 0.961 . S
C3313 H3328 0.961 . S
C3313 H3329 0.961 . S
C3314 C3315 1.370 . S
C3314 C3316 1.363 . S
C3314 H3330 0.931 . S
C3315 C3314 1.370 . S
C3315 C3319 1.408 . S
C3316 C3314 1.363 . S
C3316 C3317 1.370 . S
C3316 C3320 1.524 . S
C3317 C3309 1.503 . S
C3317 C3316 1.370 . S
C3317 C3318 1.403 . S
C3318 C3317 1.403 . S
C3318 C3319 1.404 . S
C3318 C3321 1.539 . S
C3319 C3315 1.408 . S
C3319 C3318 1.404 . S
C3319 H3331 0.930 . S
C3320 C3316 1.524 . S
C3320 H3332 0.956 . S
C3320 H3333 0.961 1_655 S
C3320 H3334 0.961 . S
C3321 C3318 1.539 . S
C3321 H3335 0.958 . S
C3321 H3336 0.961 . S
C3321 H3337 0.960 . S
H3322 C3306 0.931 . S
H3323 C3311 0.929 . S
H3324 C3312 0.960 . S
H3325 C3312 0.962 . S
H3326 C3312 0.960 . S
H3327 C3313 0.961 . S
H3328 C3313 0.961 . S
H3329 C3313 0.961 . S
H3330 C3314 0.931 . S
H3331 C3319 0.930 . S
H3332 C3320 0.956 . S
H3333 C3320 0.961 1_455 S
H3334 C3320 0.961 . S
H3335 C3321 0.958 . S
H3336 C3321 0.961 . S
H3337 C3321 0.960 . S
C3338 C3339 1.391 . S
C3338 C3340 1.394 . S
C3338 H3354 0.931 . S
C3339 C3338 1.391 . S
C3339 C3343 1.376 . S
C3340 C3338 1.394 . S
C3340 C3341 1.369 . S
C3340 C3344 1.531 . S
C3341 C3340 1.369 . S
C3341 C3342 1.410 . S
C3341 C3349 1.503 . S
C3342 C3341 1.410 . S
C3342 C3343 1.392 . S
C3342 C3345 1.511 . S
C3343 C3339 1.376 . S
C3343 C3342 1.392 . S
C3343 H3355 0.929 . S
C3344 C3340 1.531 . S
C3344 H3356 0.960 . S
C3344 H3357 0.962 . S
C3344 H3358 0.960 . S
C3345 C3342 1.511 . S
C3345 H3359 0.961 . S
C3345 H3360 0.961 . S
C3345 H3361 0.961 . S
C3346 C3347 1.370 . S
C3346 C3348 1.363 . S
C3346 H3362 0.931 . S
C3347 C3346 1.370 . S
C3347 C3351 1.408 . S
C3348 C3346 1.363 . S
C3348 C3349 1.370 . S
C3348 C3352 1.524 . S
C3349 C3341 1.503 . S
C3349 C3348 1.370 . S
C3349 C3350 1.403 . S
C3350 C3349 1.403 . S
C3350 C3351 1.404 . S
C3350 C3353 1.539 . S
C3351 C3347 1.408 . S
C3351 C3350 1.404 . S
C3351 H3363 0.930 . S
C3352 C3348 1.524 . S
C3352 H3364 0.956 . S
C3352 H3365 0.961 . S
C3352 H3366 0.961 . S
C3353 C3350 1.539 . S
C3353 H3367 0.958 . S
C3353 H3368 0.961 . S
C3353 H3369 0.960 . S
H3354 C3338 0.931 . S
H3355 C3343 0.929 . S
H3356 C3344 0.960 . S
H3357 C3344 0.962 . S
H3358 C3344 0.960 . S
H3359 C3345 0.961 . S
H3360 C3345 0.961 . S
H3361 C3345 0.961 . S
H3362 C3346 0.931 . S
H3363 C3351 0.930 . S
H3364 C3352 0.956 . S
H3365 C3352 0.961 . S
H3366 C3352 0.961 . S
H3367 C3353 0.958 . S
H3368 C3353 0.961 . S
H3369 C3353 0.960 . S
C3370 C3371 1.391 1_565 S
C3370 C3372 1.394 . S
C3370 H3386 0.931 . S
C3371 C3370 1.391 1_545 S
C3371 C3375 1.376 . S
C3372 C3370 1.394 . S
C3372 C3373 1.369 1_565 S
C3372 C3376 1.531 . S
C3373 C3372 1.369 1_545 S
C3373 C3374 1.410 . S
C3373 C3381 1.503 . S
C3374 C3373 1.410 . S
C3374 C3375 1.392 . S
C3374 C3377 1.511 . S
C3375 C3371 1.376 . S
C3375 C3374 1.392 . S
C3375 H3387 0.929 . S
C3376 C3372 1.531 . S
C3376 H3388 0.960 . S
C3376 H3389 0.962 . S
C3376 H3390 0.960 . S
C3377 C3374 1.511 . S
C3377 H3391 0.961 . S
C3377 H3392 0.961 . S
C3377 H3393 0.961 . S
C3378 C3379 1.370 . S
C3378 C3380 1.363 . S
C3378 H3394 0.931 . S
C3379 C3378 1.370 . S
C3379 C3383 1.408 1_545 S
C3380 C3378 1.363 . S
C3380 C3381 1.370 . S
C3380 C3384 1.524 . S
C3381 C3373 1.503 . S
C3381 C3380 1.370 . S
C3381 C3382 1.403 1_545 S
C3382 C3381 1.403 1_565 S
C3382 C3383 1.404 . S
C3382 C3385 1.539 . S
C3383 C3379 1.408 1_565 S
C3383 C3382 1.404 . S
C3383 H3395 0.930 . S
C3384 C3380 1.524 . S
C3384 H3396 0.956 . S
C3384 H3397 0.961 . S
C3384 H3398 0.961 . S
C3385 C3382 1.539 . S
C3385 H3399 0.958 . S
C3385 H3400 0.961 . S
C3385 H3401 0.960 . S
H3386 C3370 0.931 . S
H3387 C3375 0.929 . S
H3388 C3376 0.960 . S
H3389 C3376 0.962 . S
H3390 C3376 0.960 . S
H3391 C3377 0.961 . S
H3392 C3377 0.961 . S
H3393 C3377 0.961 . S
H3394 C3378 0.931 . S
H3395 C3383 0.930 . S
H3396 C3384 0.956 . S
H3397 C3384 0.961 . S
H3398 C3384 0.961 . S
H3399 C3385 0.958 . S
H3400 C3385 0.961 . S
H3401 C3385 0.960 . S
C1099 C10 1.574 1_655 S
C1107 C711 1.584 . S
C1131 C23 1.619 . S
C1139 C759 1.612 . S
C1171 C807 1.601 . S
C1163 C29 1.589 1_565 S
C1195 C30 1.581 1_565 S
C1203 C831 1.603 . S
C1227 C5 1.603 . S
C1235 C903 1.601 . S
C1259 C18 1.627 . S
C1267 C951 1.620 . S
C1291 C49 1.603 . S
C1299 C879 1.597 . S
C1331 C927 1.629 . S
C1323 C62 1.629 . S
C1363 C855 1.590 . S
C1355 C70 1.608 1_565 S
C1387 C75 1.616 1_565 S
C1395 C783 1.595 . S
C1427 C687 1.616 . S
C1419 C44 1.606 . S
C1451 C57 1.633 . S
C1459 C735 1.634 . S
C1483 C88 1.645 . S
C1491 C999 1.637 . S
C1515 C101 1.644 . S
C1523 C1047 1.638 . S
C1555 C1071 1.631 . S
C1547 C107 1.640 . S
C1579 C108 1.634 . S
C1587 C255 1.621 . S
C1611 C83 1.648 . S
C1619 C327 1.640 . S
C1643 C96 1.639 . S
C1651 C375 1.633 . S
C1675 C127 1.629 . S
C1683 C303 1.626 . S
C1707 C140 1.636 . S
C1715 C351 1.632 . S
C1747 C279 1.614 . S
C1739 C146 1.641 . S
C1779 C1095 1.616 . S
C1771 C147 1.643 . S
C1811 C975 1.646 . S
C1803 C122 1.647 . S
C1843 C1023 1.655 . S
C1835 C135 1.652 . S
C1867 C160 1.626 . S
C1875 C423 1.617 . S
C1899 C173 1.629 . S
C1907 C471 1.618 . S
C1931 C185 1.643 . S
C1939 C495 1.639 . S
C1963 C186 1.647 . S
C1971 C543 1.640 . S
C2003 C615 1.639 . S
C1995 C159 1.642 . S
C2035 C663 1.650 . S
C2027 C172 1.658 . S
C2067 C591 1.650 . S
C2059 C205 1.653 . S
C2099 C639 1.645 . S
C2091 C218 1.647 . S
C2123 C224 1.643 . S
C2131 C567 1.619 . S
C2163 C519 1.597 . S
C2155 C225 1.621 . S
C2187 C200 1.653 . S
C2195 C399 1.651 . S
C2227 C447 1.641 . S
C2219 C213 1.643 . S
C2259 C264 1.516 . S
C2251 C4 1.508 . S
C2283 C17 1.493 . S
C2291 C318 1.489 . S
C2323 C366 1.509 . S
C2315 C31 1.517 . S
C2355 C414 1.515 . S
C2347 C36 1.520 . S
C2387 C462 1.509 . S
C2379 C3 1.518 . S
C2419 C504 1.498 . S
C2411 C16 1.496 . S
C2443 C43 1.519 . S
C2451 C510 1.528 . S
C2475 C56 1.495 . S
C2483 C408 1.486 . S
C2507 C68 1.508 . S
C2515 C456 1.487 . S
C2539 C69 1.513 . S
C2547 C312 1.510 . S
C2579 C360 1.502 . S
C2571 C42 1.515 . S
C2603 C55 1.499 . S
C2611 C270 1.498 . S
C2643 C552 1.514 . S
C2635 C82 1.516 . S
C2667 C95 1.526 . S
C2675 C606 1.523 . S
C2699 C109 1.538 . S
C2707 C654 1.529 . S
C2739 C702 1.485 . S
C2731 C114 1.485 . S
C2763 C81 1.523 . S
C2771 C750 1.519 . S
C2795 C94 1.494 . S
C2803 C798 1.495 . S
C2827 C121 1.488 . S
C2835 C792 1.485 . S
C2859 C134 1.488 . S
C2867 C696 1.489 . S
C2899 C744 1.511 . S
C2891 C148 1.517 . S
C2923 C153 1.508 . S
C2931 C600 1.494 . S
C2955 C120 1.543 . S
C2963 C648 1.533 . S
C2995 C558 1.533 . S
C2987 C133 1.536 . S
C3027 C840 1.488 . S
C3019 C166 1.489 . S
C3051 C179 1.479 . S
C3059 C894 1.486 . S
C3083 C187 1.519 . S
C3091 C942 1.512 . S
C3123 C990 1.505 . S
C3115 C192 1.515 . S
C3155 C1038 1.534 . S
C3147 C161 1.543 . S
C3179 C174 1.530 . S
C3187 C1080 1.537 . S
C3211 C199 1.513 . S
C3219 C1086 1.516 . S
C3243 C212 1.521 . S
C3251 C984 1.511 . S
C3283 C1032 1.522 . S
C3275 C226 1.533 . S
C3315 C888 1.483 . S
C3307 C231 1.477 . S
C3347 C936 1.507 . S
C3339 C198 1.523 . S
C3371 C211 1.495 . S
C3379 C846 1.492 . S
