# Generated by pormake.
# Topology ptr, (4,4)-cn, num edge types: 1
# Building blocks:
#     Node 0, Type 0, BuildingBlock: QUQFOY_clean_sbu_1, # of connection points: 4
#     Node 1, Type 0, BuildingBlock: QUQFOY_clean_sbu_1, # of connection points: 4
#     Node 2, Type 0, BuildingBlock: QUQFOY_clean_sbu_1, # of connection points: 4
#     Node 3, Type 0, BuildingBlock: QUQFOY_clean_sbu_1, # of connection points: 4
#     Node 4, Type 0, BuildingBlock: QUQFOY_clean_sbu_1, # of connection points: 4
#     Node 5, Type 0, BuildingBlock: QUQFOY_clean_sbu_1, # of connection points: 4
#     Node 6, Type 0, BuildingBlock: QUQFOY_clean_sbu_1, # of connection points: 4
#     Node 7, Type 0, BuildingBlock: QUQFOY_clean_sbu_1, # of connection points: 4
#     Node 8, Type 0, BuildingBlock: QUQFOY_clean_sbu_1, # of connection points: 4
#     Node 9, Type 0, BuildingBlock: QUQFOY_clean_sbu_1, # of connection points: 4
#     Node 10, Type 0, BuildingBlock: QUQFOY_clean_sbu_1, # of connection points: 4
#     Node 11, Type 0, BuildingBlock: QUQFOY_clean_sbu_1, # of connection points: 4
#     Node 12, Type 0, BuildingBlock: QUQFOY_clean_sbu_1, # of connection points: 4
#     Node 13, Type 0, BuildingBlock: QUQFOY_clean_sbu_1, # of connection points: 4
#     Node 14, Type 0, BuildingBlock: QUQFOY_clean_sbu_1, # of connection points: 4
#     Node 15, Type 0, BuildingBlock: QUQFOY_clean_sbu_1, # of connection points: 4
#     Node 16, Type 0, BuildingBlock: QUQFOY_clean_sbu_1, # of connection points: 4
#     Node 17, Type 0, BuildingBlock: QUQFOY_clean_sbu_1, # of connection points: 4
#     Node 18, Type 1, BuildingBlock: MIFKUJ_clean_linker_1, # of connection points: 4
#     Node 19, Type 1, BuildingBlock: MIFKUJ_clean_linker_1, # of connection points: 4
#     Node 20, Type 1, BuildingBlock: MIFKUJ_clean_linker_1, # of connection points: 4
#     Node 21, Type 1, BuildingBlock: MIFKUJ_clean_linker_1, # of connection points: 4
#     Node 22, Type 1, BuildingBlock: MIFKUJ_clean_linker_1, # of connection points: 4
#     Node 23, Type 1, BuildingBlock: MIFKUJ_clean_linker_1, # of connection points: 4
#     Node 24, Type 1, BuildingBlock: MIFKUJ_clean_linker_1, # of connection points: 4
#     Node 25, Type 1, BuildingBlock: MIFKUJ_clean_linker_1, # of connection points: 4
#     Node 26, Type 1, BuildingBlock: MIFKUJ_clean_linker_1, # of connection points: 4
#     Node 27, Type 1, BuildingBlock: MIFKUJ_clean_linker_1, # of connection points: 4
#     Node 28, Type 1, BuildingBlock: MIFKUJ_clean_linker_1, # of connection points: 4
#     Node 29, Type 1, BuildingBlock: MIFKUJ_clean_linker_1, # of connection points: 4
#     Node 30, Type 1, BuildingBlock: MIFKUJ_clean_linker_1, # of connection points: 4
#     Node 31, Type 1, BuildingBlock: MIFKUJ_clean_linker_1, # of connection points: 4
#     Node 32, Type 1, BuildingBlock: MIFKUJ_clean_linker_1, # of connection points: 4
#     Node 33, Type 1, BuildingBlock: MIFKUJ_clean_linker_1, # of connection points: 4
#     Node 34, Type 1, BuildingBlock: MIFKUJ_clean_linker_1, # of connection points: 4
#     Node 35, Type 1, BuildingBlock: MIFKUJ_clean_linker_1, # of connection points: 4
#     Edge 36, Type (0, 1), BuildingBlock: TEMPAE_clean_linker_10, # of connection points: 2
#     Edge 37, Type (0, 1), BuildingBlock: TEMPAE_clean_linker_10, # of connection points: 2
#     Edge 38, Type (0, 1), BuildingBlock: TEMPAE_clean_linker_10, # of connection points: 2
#     Edge 39, Type (0, 1), BuildingBlock: TEMPAE_clean_linker_10, # of connection points: 2
#     Edge 40, Type (0, 1), BuildingBlock: TEMPAE_clean_linker_10, # of connection points: 2
#     Edge 41, Type (0, 1), BuildingBlock: TEMPAE_clean_linker_10, # of connection points: 2
#     Edge 42, Type (0, 1), BuildingBlock: TEMPAE_clean_linker_10, # of connection points: 2
#     Edge 43, Type (0, 1), BuildingBlock: TEMPAE_clean_linker_10, # of connection points: 2
#     Edge 44, Type (0, 1), BuildingBlock: TEMPAE_clean_linker_10, # of connection points: 2
#     Edge 45, Type (0, 1), BuildingBlock: TEMPAE_clean_linker_10, # of connection points: 2
#     Edge 46, Type (0, 1), BuildingBlock: TEMPAE_clean_linker_10, # of connection points: 2
#     Edge 47, Type (0, 1), BuildingBlock: TEMPAE_clean_linker_10, # of connection points: 2
#     Edge 48, Type (0, 1), BuildingBlock: TEMPAE_clean_linker_10, # of connection points: 2
#     Edge 49, Type (0, 1), BuildingBlock: TEMPAE_clean_linker_10, # of connection points: 2
#     Edge 50, Type (0, 1), BuildingBlock: TEMPAE_clean_linker_10, # of connection points: 2
#     Edge 51, Type (0, 1), BuildingBlock: TEMPAE_clean_linker_10, # of connection points: 2
#     Edge 52, Type (0, 1), BuildingBlock: TEMPAE_clean_linker_10, # of connection points: 2
#     Edge 53, Type (0, 1), BuildingBlock: TEMPAE_clean_linker_10, # of connection points: 2
#     Edge 54, Type (0, 1), BuildingBlock: TEMPAE_clean_linker_10, # of connection points: 2
#     Edge 55, Type (0, 1), BuildingBlock: TEMPAE_clean_linker_10, # of connection points: 2
#     Edge 56, Type (0, 1), BuildingBlock: TEMPAE_clean_linker_10, # of connection points: 2
#     Edge 57, Type (0, 1), BuildingBlock: TEMPAE_clean_linker_10, # of connection points: 2
#     Edge 58, Type (0, 1), BuildingBlock: TEMPAE_clean_linker_10, # of connection points: 2
#     Edge 59, Type (0, 1), BuildingBlock: TEMPAE_clean_linker_10, # of connection points: 2
#     Edge 60, Type (0, 1), BuildingBlock: TEMPAE_clean_linker_10, # of connection points: 2
#     Edge 61, Type (0, 1), BuildingBlock: TEMPAE_clean_linker_10, # of connection points: 2
#     Edge 62, Type (0, 1), BuildingBlock: TEMPAE_clean_linker_10, # of connection points: 2
#     Edge 63, Type (0, 1), BuildingBlock: TEMPAE_clean_linker_10, # of connection points: 2
#     Edge 64, Type (0, 1), BuildingBlock: TEMPAE_clean_linker_10, # of connection points: 2
#     Edge 65, Type (0, 1), BuildingBlock: TEMPAE_clean_linker_10, # of connection points: 2
#     Edge 66, Type (0, 1), BuildingBlock: TEMPAE_clean_linker_10, # of connection points: 2
#     Edge 67, Type (0, 1), BuildingBlock: TEMPAE_clean_linker_10, # of connection points: 2
#     Edge 68, Type (0, 1), BuildingBlock: TEMPAE_clean_linker_10, # of connection points: 2
#     Edge 69, Type (0, 1), BuildingBlock: TEMPAE_clean_linker_10, # of connection points: 2
#     Edge 70, Type (0, 1), BuildingBlock: TEMPAE_clean_linker_10, # of connection points: 2
#     Edge 71, Type (0, 1), BuildingBlock: TEMPAE_clean_linker_10, # of connection points: 2
#     Edge 72, Type (0, 1), BuildingBlock: TEMPAE_clean_linker_10, # of connection points: 2
#     Edge 73, Type (0, 1), BuildingBlock: TEMPAE_clean_linker_10, # of connection points: 2
#     Edge 74, Type (0, 1), BuildingBlock: TEMPAE_clean_linker_10, # of connection points: 2
#     Edge 75, Type (0, 1), BuildingBlock: TEMPAE_clean_linker_10, # of connection points: 2
#     Edge 76, Type (0, 1), BuildingBlock: TEMPAE_clean_linker_10, # of connection points: 2
#     Edge 77, Type (0, 1), BuildingBlock: TEMPAE_clean_linker_10, # of connection points: 2
#     Edge 78, Type (0, 1), BuildingBlock: TEMPAE_clean_linker_10, # of connection points: 2
#     Edge 79, Type (0, 1), BuildingBlock: TEMPAE_clean_linker_10, # of connection points: 2
#     Edge 80, Type (0, 1), BuildingBlock: TEMPAE_clean_linker_10, # of connection points: 2
#     Edge 81, Type (0, 1), BuildingBlock: TEMPAE_clean_linker_10, # of connection points: 2
#     Edge 82, Type (0, 1), BuildingBlock: TEMPAE_clean_linker_10, # of connection points: 2
#     Edge 83, Type (0, 1), BuildingBlock: TEMPAE_clean_linker_10, # of connection points: 2
#     Edge 84, Type (0, 1), BuildingBlock: TEMPAE_clean_linker_10, # of connection points: 2
#     Edge 85, Type (0, 1), BuildingBlock: TEMPAE_clean_linker_10, # of connection points: 2
#     Edge 86, Type (0, 1), BuildingBlock: TEMPAE_clean_linker_10, # of connection points: 2
#     Edge 87, Type (0, 1), BuildingBlock: TEMPAE_clean_linker_10, # of connection points: 2
#     Edge 88, Type (0, 1), BuildingBlock: TEMPAE_clean_linker_10, # of connection points: 2
#     Edge 89, Type (0, 1), BuildingBlock: TEMPAE_clean_linker_10, # of connection points: 2
#     Edge 90, Type (0, 1), BuildingBlock: TEMPAE_clean_linker_10, # of connection points: 2
#     Edge 91, Type (0, 1), BuildingBlock: TEMPAE_clean_linker_10, # of connection points: 2
#     Edge 92, Type (0, 1), BuildingBlock: TEMPAE_clean_linker_10, # of connection points: 2
#     Edge 93, Type (0, 1), BuildingBlock: TEMPAE_clean_linker_10, # of connection points: 2
#     Edge 94, Type (0, 1), BuildingBlock: TEMPAE_clean_linker_10, # of connection points: 2
#     Edge 95, Type (0, 1), BuildingBlock: TEMPAE_clean_linker_10, # of connection points: 2
#     Edge 96, Type (0, 1), BuildingBlock: TEMPAE_clean_linker_10, # of connection points: 2
#     Edge 97, Type (0, 1), BuildingBlock: TEMPAE_clean_linker_10, # of connection points: 2
#     Edge 98, Type (0, 1), BuildingBlock: TEMPAE_clean_linker_10, # of connection points: 2
#     Edge 99, Type (0, 1), BuildingBlock: TEMPAE_clean_linker_10, # of connection points: 2
#     Edge 100, Type (0, 1), BuildingBlock: TEMPAE_clean_linker_10, # of connection points: 2
#     Edge 101, Type (0, 1), BuildingBlock: TEMPAE_clean_linker_10, # of connection points: 2
#     Edge 102, Type (0, 1), BuildingBlock: TEMPAE_clean_linker_10, # of connection points: 2
#     Edge 103, Type (0, 1), BuildingBlock: TEMPAE_clean_linker_10, # of connection points: 2
#     Edge 104, Type (0, 1), BuildingBlock: TEMPAE_clean_linker_10, # of connection points: 2
#     Edge 105, Type (0, 1), BuildingBlock: TEMPAE_clean_linker_10, # of connection points: 2
#     Edge 106, Type (0, 1), BuildingBlock: TEMPAE_clean_linker_10, # of connection points: 2
#     Edge 107, Type (0, 1), BuildingBlock: TEMPAE_clean_linker_10, # of connection points: 2
# Relax obj value: 0.012
# Max RMSD: 0.044
# Mean RMSD: 0.040
data_MOF--net-ptr--node1-QUQFOY_clean_sbu_1--node2-MIFKUJ_clean_linker_1--edge1-TEMPAE_clean_linker_10
_symmetry_space_group_name_H-M    P1
_symmetry_Int_Tables_number       1
_symmetry_cell_setting            triclinic
loop_
_symmetry_equiv_pos_as_xyz
'x, y, z'
_cell_length_a     92.730388
_cell_length_b     92.715089
_cell_length_c     63.788699
_cell_angle_alpha  90.10086
_cell_angle_beta   89.902194
_cell_angle_gamma 119.93967
loop_
_atom_site_label
_atom_site_type_symbol
_atom_site_fract_x
_atom_site_fract_y
_atom_site_fract_z
_atom_type_partial_charge
O0 O 0.01402 0.38164 0.04692 0.0
Cd1 Cd 0.02076 0.37165 0.02236 0.0
Cd2 Cd 0.98744 0.35486 0.01698 0.0
O3 O 0.98699 0.36417 0.04638 0.0
O4 O 0.04407 0.37757 0.02906 0.0
O5 O 0.02325 0.35162 0.02813 0.0
C6 C 0.03881 0.36194 0.03172 0.0
C7 C 0.96972 0.32692 0.0081 0.0
C8 C 0.99967 0.37623 0.05494 0.0
C9 C 0.00836 0.37993 0.9839 0.0
O10 O 0.99403 0.37111 0.992 0.0
O11 O 0.02109 0.3808 0.99265 0.0
O12 O 0.96422 0.33715 0.01046 0.0
O13 O 0.98531 0.3324 0.01178 0.0
O14 O 0.62469 0.63164 0.04634 0.0
Cd15 Cd 0.63408 0.64796 0.02142 0.0
Cd16 Cd 0.65067 0.63158 0.01525 0.0
O17 O 0.64259 0.62263 0.04523 0.0
O18 O 0.62828 0.66539 0.02859 0.0
O19 O 0.65423 0.67059 0.02621 0.0
C20 C 0.64397 0.67581 0.03049 0.0
C21 C 0.67845 0.64305 0.00537 0.0
C22 C 0.63061 0.62313 0.05424 0.0
C23 C 0.62478 0.62658 0.98333 0.0
O24 O 0.63366 0.62101 0.99112 0.0
O25 O 0.62431 0.6387 0.99206 0.0
O26 O 0.6693 0.62733 0.00894 0.0
O27 O 0.67202 0.65247 0.00815 0.0
O28 O 0.37776 0.0086 0.98852 0.0
Cd29 Cd 0.37012 0.01743 0.0134 0.0
Cd30 Cd 0.35292 0.98375 0.02243 0.0
O31 O 0.36173 0.9816 0.9934 0.0
O32 O 0.37687 0.04059 0.0046 0.0
O33 O 0.35063 0.0212 0.00939 0.0
C34 C 0.36133 0.03621 0.00381 0.0
C35 C 0.32536 0.96521 0.03224 0.0
C36 C 0.37258 0.9937 0.98263 0.0
C37 C 0.37966 0.00697 0.05291 0.0
O38 O 0.36957 0.99216 0.04706 0.0
O39 O 0.38122 0.01926 0.04223 0.0
O40 O 0.33632 0.96057 0.03086 0.0
O41 O 0.32991 0.9804 0.02724 0.0
O42 O 0.98966 0.61949 0.98993 0.0
Cd43 Cd 0.98452 0.6311 0.01408 0.0
Cd44 Cd 0.01734 0.64747 0.01765 0.0
O45 O 0.01644 0.63779 0.98803 0.0
O46 O 0.96149 0.62699 0.00931 0.0
O47 O 0.98405 0.65184 0.00618 0.0
C48 C 0.96809 0.64254 0.0046 0.0
C49 C 0.03395 0.67565 0.02587 0.0
C50 C 0.00361 0.62512 0.98068 0.0
C51 C 0.99808 0.62369 0.05208 0.0
O52 O 0.01204 0.63158 0.04278 0.0
O53 O 0.98532 0.6234 0.0443 0.0
O54 O 0.04039 0.66635 0.02231 0.0
O55 O 0.01804 0.66912 0.02373 0.0
O56 O 0.38261 0.37327 0.98927 0.0
Cd57 Cd 0.37318 0.35681 0.01406 0.0
Cd58 Cd 0.35746 0.37439 0.02101 0.0
O59 O 0.36617 0.38402 0.99142 0.0
O60 O 0.37852 0.33918 0.00614 0.0
O61 O 0.35274 0.33433 0.00944 0.0
C62 C 0.36276 0.32893 0.00461 0.0
C63 C 0.32984 0.36499 0.03085 0.0
C64 C 0.37755 0.38271 0.98197 0.0
C65 C 0.38329 0.37769 0.05256 0.0
O66 O 0.37442 0.38347 0.04537 0.0
O67 O 0.3836 0.36569 0.04327 0.0
O68 O 0.34042 0.38062 0.0287 0.0
O69 O 0.33479 0.35452 0.02656 0.0
O70 O 0.62406 0.99233 0.0466 0.0
Cd71 Cd 0.63232 0.98388 0.02215 0.0
Cd72 Cd 0.65035 0.01739 0.01352 0.0
O73 O 0.64062 0.01932 0.04213 0.0
O74 O 0.62617 0.96077 0.0303 0.0
O75 O 0.65224 0.98099 0.02674 0.0
C76 C 0.64183 0.96571 0.03163 0.0
C77 C 0.67829 0.03573 0.00512 0.0
C78 C 0.62933 0.00723 0.05252 0.0
C79 C 0.62417 0.99464 0.98208 0.0
O80 O 0.63474 0.00936 0.98773 0.0
O81 O 0.62158 0.98225 0.99328 0.0
O82 O 0.66741 0.0405 0.00549 0.0
O83 O 0.67346 0.02055 0.01047 0.0
O84 O 0.67729 0.71405 0.38107 0.0
Cd85 Cd 0.68418 0.70423 0.35649 0.0
Cd86 Cd 0.65111 0.68718 0.35103 0.0
O87 O 0.65037 0.69625 0.38047 0.0
O88 O 0.70746 0.71017 0.36351 0.0
O89 O 0.68676 0.68418 0.36176 0.0
C90 C 0.70224 0.69451 0.36575 0.0
C91 C 0.63459 0.65912 0.34225 0.0
C92 C 0.66291 0.70843 0.38906 0.0
C93 C 0.67158 0.71233 0.31799 0.0
O94 O 0.65725 0.70338 0.32606 0.0
O95 O 0.68437 0.71337 0.3268 0.0
O96 O 0.62821 0.66856 0.34506 0.0
O97 O 0.65038 0.66546 0.34534 0.0
O98 O 0.2894 0.96562 0.37649 0.0
Cd99 Cd 0.29798 0.98183 0.35146 0.0
Cd100 Cd 0.31492 0.96531 0.34405 0.0
O101 O 0.30633 0.95548 0.37366 0.0
O102 O 0.29249 0.99931 0.35949 0.0
O103 O 0.31832 0.00443 0.35553 0.0
C104 C 0.30824 0.0097 0.36064 0.0
C105 C 0.34253 0.97452 0.33429 0.0
C106 C 0.29494 0.95651 0.38351 0.0
C107 C 0.28849 0.96122 0.31272 0.0
O108 O 0.29819 0.95627 0.31945 0.0
O109 O 0.28723 0.9725 0.32255 0.0
O110 O 0.33184 0.95892 0.33635 0.0
O111 O 0.33771 0.98508 0.33863 0.0
O112 O 0.04324 0.33949 0.31887 0.0
Cd113 Cd 0.03918 0.35115 0.34381 0.0
Cd114 Cd 0.02225 0.31867 0.35869 0.0
O115 O 0.03185 0.314 0.33169 0.0
O116 O 0.046 0.37369 0.33256 0.0
O117 O 0.02021 0.35592 0.34224 0.0
C118 C 0.03074 0.37018 0.33429 0.0
C119 C 0.99441 0.30101 0.36801 0.0
C120 C 0.03973 0.32444 0.31722 0.0
C121 C 0.05016 0.34446 0.38525 0.0
O122 O 0.03813 0.32965 0.38363 0.0
O123 O 0.0532 0.35504 0.3708 0.0
O124 O 0.00542 0.29648 0.36981 0.0
O125 O 0.9991 0.31553 0.36014 0.0
O126 O 0.65978 0.95847 0.32086 0.0
Cd127 Cd 0.65347 0.96841 0.34595 0.0
Cd128 Cd 0.68655 0.98386 0.3521 0.0
O129 O 0.68702 0.97467 0.32269 0.0
O130 O 0.63048 0.96392 0.3399 0.0
O131 O 0.65243 0.98928 0.34047 0.0
C132 C 0.63666 0.97971 0.33732 0.0
C133 C 0.70428 0.01166 0.36146 0.0
C134 C 0.67422 0.96335 0.31338 0.0
C135 C 0.66487 0.9587 0.38437 0.0
O136 O 0.67939 0.9673 0.37671 0.0
O137 O 0.65252 0.95849 0.37541 0.0
O138 O 0.70973 1.00139 0.35911 0.0
O139 O 0.68875 0.0063 0.35749 0.0
O140 O 0.04829 0.70446 0.3264 0.0
Cd141 Cd 0.03864 0.68805 0.35116 0.0
Cd142 Cd 0.02218 0.70488 0.35798 0.0
O143 O 0.03113 0.7144 0.32835 0.0
O144 O 0.04339 0.6698 0.34456 0.0
O145 O 0.0179 0.66612 0.34551 0.0
C146 C 0.02761 0.66011 0.34201 0.0
C147 C 0.99452 0.69576 0.36736 0.0
C148 C 0.04277 0.71348 0.31897 0.0
C149 C 0.04781 0.70854 0.38998 0.0
O150 O 0.03869 0.71403 0.38278 0.0
O151 O 0.04865 0.69692 0.38048 0.0
O152 O 0.00521 0.71134 0.36508 0.0
O153 O 0.99937 0.68517 0.36338 0.0
O154 O 0.29433 0.32575 0.38122 0.0
Cd155 Cd 0.30154 0.31709 0.35599 0.0
Cd156 Cd 0.31937 0.35032 0.34644 0.0
O157 O 0.31013 0.35263 0.37525 0.0
O158 O 0.29569 0.29407 0.36409 0.0
O159 O 0.32161 0.31429 0.35925 0.0
C160 C 0.31139 0.29907 0.36461 0.0
C161 C 0.34733 0.36782 0.33792 0.0
C162 C 0.29955 0.34075 0.38659 0.0
C163 C 0.29256 0.32752 0.31608 0.0
O164 O 0.30355 0.3423 0.32087 0.0
O165 O 0.28982 0.31534 0.3278 0.0
O166 O 0.33705 0.37333 0.33907 0.0
O167 O 0.34188 0.35236 0.34238 0.0
O168 O 0.34523 0.048 0.71575 0.0
Cd169 Cd 0.35331 0.03953 0.69104 0.0
Cd170 Cd 0.32022 0.02303 0.68112 0.0
O171 O 0.31829 0.03377 0.70885 0.0
O172 O 0.37593 0.0437 0.69866 0.0
O173 O 0.3539 0.01841 0.69611 0.0
C174 C 0.3695 0.02781 0.70042 0.0
C175 C 0.30215 0.99498 0.67323 0.0
C176 C 0.33032 0.04392 0.72036 0.0
C177 C 0.34386 0.04828 0.65002 0.0
O178 O 0.32891 0.03799 0.655 0.0
O179 O 0.35577 0.05062 0.66204 0.0
O180 O 0.29727 0.00579 0.67282 0.0
O181 O 0.31721 0.99996 0.67927 0.0
O182 O 0.95927 0.297 0.71252 0.0
Cd183 Cd 0.96877 0.31315 0.68738 0.0
Cd184 Cd 0.98451 0.29554 0.68074 0.0
O185 O 0.97532 0.28578 0.7101 0.0
O186 O 0.96339 0.33104 0.69359 0.0
O187 O 0.98913 0.33547 0.69291 0.0
C188 C 0.97908 0.34111 0.69616 0.0
C189 C 0.01235 0.30558 0.67162 0.0
C190 C 0.96418 0.2874 0.71974 0.0
C191 C 0.95934 0.29223 0.64857 0.0
O192 O 0.96809 0.28639 0.65595 0.0
O193 O 0.95886 0.30412 0.65793 0.0
O194 O 1.00204 0.28987 0.67367 0.0
O195 O 0.00699 0.31576 0.67571 0.0
O196 O 0.71544 0.68306 0.65745 0.0
Cd197 Cd 0.70511 0.68929 0.68203 0.0
Cd198 Cd 0.68838 0.65626 0.68772 0.0
O199 O 0.69774 0.65609 0.6582 0.0
O200 O 0.70975 0.71232 0.67614 0.0
O201 O 0.68437 0.69034 0.67586 0.0
C202 C 0.69401 0.70614 0.67302 0.0
C203 C 0.66038 0.63872 0.69611 0.0
C204 C 0.70981 0.66866 0.64948 0.0
C205 C 0.71327 0.67705 0.7208 0.0
O206 O 0.70441 0.66263 0.71294 0.0
O207 O 0.71424 0.6897 0.7117 0.0
O208 O 0.67035 0.63297 0.69327 0.0
O209 O 0.66616 0.65447 0.69331 0.0
O210 O 0.32858 0.29059 0.65515 0.0
Cd211 Cd 0.32061 0.29923 0.68002 0.0
Cd212 Cd 0.35397 0.31545 0.68817 0.0
O213 O 0.3557 0.30648 0.65912 0.0
O214 O 0.29755 0.29347 0.672 0.0
O215 O 0.31807 0.3194 0.67532 0.0
C216 C 0.30272 0.30917 0.67055 0.0
C217 C 0.37207 0.3431 0.6979 0.0
C218 C 0.34333 0.29552 0.64881 0.0
C219 C 0.33104 0.28945 0.71927 0.0
O220 O 0.34581 0.29879 0.71274 0.0
O221 O 0.31879 0.2886 0.70923 0.0
O222 O 0.37699 0.33235 0.6967 0.0
O223 O 0.35688 0.33832 0.69264 0.0
O224 O 0.71559 0.03957 0.65861 0.0
Cd225 Cd 0.70728 0.02325 0.68343 0.0
Cd226 Cd 0.69041 0.0399 0.69261 0.0
O227 O 0.70029 0.05135 0.66403 0.0
O228 O 0.71219 0.00529 0.67572 0.0
O229 O 0.68658 1.00109 0.67874 0.0
C230 C 0.69636 0.99535 0.67417 0.0
C231 C 0.66268 0.03108 0.70116 0.0
C232 C 0.71087 0.04972 0.65304 0.0
C233 C 0.71631 0.04236 0.72366 0.0
O234 O 0.70601 0.04695 0.71832 0.0
O235 O 0.71846 0.03236 0.7122 0.0
O236 O 0.67387 0.04662 0.70087 0.0
O237 O 0.66708 0.02042 0.69562 0.0
O238 O 0.96339 0.66425 0.71622 0.0
Cd239 Cd 0.96697 0.65244 0.69104 0.0
Cd240 Cd 0.98406 0.68537 0.67606 0.0
O241 O 0.97483 0.68979 0.70352 0.0
O242 O 0.95943 0.62969 0.70216 0.0
O243 O 0.98537 0.6468 0.69247 0.0
C244 C 0.97451 0.63266 0.70039 0.0
C245 C 0.01165 0.70369 0.66623 0.0
C246 C 0.96706 0.67934 0.71802 0.0
C247 C 0.95572 0.65962 0.64992 0.0
O248 O 0.96779 0.67442 0.65148 0.0
O249 O 0.95286 0.64896 0.66421 0.0
O250 O 1.00036 0.70789 0.66527 0.0
O251 O 0.00737 0.68906 0.6734 0.0
H252 H 0.15435 0.33925 0.1995 0.0
H253 H 0.13302 0.33729 0.22301 0.0
H254 H 0.09508 0.30331 0.18009 0.0
H255 H 0.11673 0.30393 0.15761 0.0
H256 H 0.16259 0.3187 0.19034 0.0
H257 H 0.14323 0.34859 0.14781 0.0
H258 H 0.1231 0.35291 0.12818 0.0
H259 H 0.11269 0.31097 0.08851 0.0
H260 H 0.13301 0.30685 0.10814 0.0
H261 H 0.18041 0.30834 0.1074 0.0
H262 H 0.20509 0.31339 0.08746 0.0
H263 H 0.23556 0.35592 0.12673 0.0
H264 H 0.21087 0.35074 0.14661 0.0
H265 H 0.16651 0.3281 0.11365 0.0
H266 H 0.1955 0.30684 0.15635 0.0
H267 H 0.21777 0.30806 0.17796 0.0
H268 H 0.21149 0.3403 0.22166 0.0
H269 H 0.19092 0.34061 0.19887 0.0
C270 C 0.13729 0.3218 0.17661 0.0
C271 C 0.14144 0.33123 0.19515 0.0
C272 C 0.12911 0.33031 0.20851 0.0
C273 C 0.11214 0.3203 0.2035 0.0
C274 C 0.10795 0.31103 0.18471 0.0
C275 C 0.12038 0.3116 0.17157 0.0
C276 C 0.15086 0.32233 0.16341 0.0
C277 C 0.16361 0.32109 0.17361 0.0
C278 C 0.15186 0.32476 0.14141 0.0
C279 C 0.13948 0.32726 0.12962 0.0
C280 C 0.13651 0.34024 0.13501 0.0
C281 C 0.12495 0.34266 0.12378 0.0
C282 C 0.11619 0.33223 0.10682 0.0
C283 C 0.11931 0.31933 0.10135 0.0
C284 C 0.13088 0.31691 0.1126 0.0
C285 C 0.19381 0.329 0.12869 0.0
C286 C 0.19241 0.31877 0.11166 0.0
C287 C 0.20653 0.3217 0.10025 0.0
C288 C 0.22233 0.33499 0.10558 0.0
C289 C 0.22364 0.34538 0.12245 0.0
C290 C 0.20952 0.34247 0.13381 0.0
C291 C 0.17883 0.3257 0.14095 0.0
C292 C 0.16561 0.32594 0.13044 0.0
C293 C 0.17784 0.32331 0.16296 0.0
C294 C 0.19157 0.3238 0.17573 0.0
C295 C 0.19928 0.31456 0.17028 0.0
C296 C 0.21186 0.31503 0.18294 0.0
C297 C 0.21666 0.32434 0.2017 0.0
C298 C 0.20869 0.33337 0.20714 0.0
C299 C 0.19657 0.33331 0.19421 0.0
H300 H 0.70051 0.88632 0.15873 0.0
H301 H 0.70072 0.90743 0.18222 0.0
H302 H 0.6601 0.86867 0.21751 0.0
H303 H 0.65991 0.84775 0.1941 0.0
H304 H 0.68341 0.84021 0.18843 0.0
H305 H 0.69725 0.8715 0.10687 0.0
H306 H 0.69321 0.89201 0.08753 0.0
H307 H 0.65046 0.88048 0.12614 0.0
H308 H 0.65455 0.86002 0.14535 0.0
H309 H 0.65642 0.80744 0.10927 0.0
H310 H 0.65377 0.78398 0.08871 0.0
H311 H 0.69807 0.78917 0.11792 0.0
H312 H 0.70109 0.8131 0.138 0.0
H313 H 0.67735 0.8384 0.11116 0.0
H314 H 0.65922 0.79318 0.16161 0.0
H315 H 0.65932 0.77243 0.18528 0.0
H316 H 0.70624 0.81004 0.21105 0.0
H317 H 0.70614 0.83066 0.18733 0.0
C318 C 0.68019 0.86543 0.17465 0.0
C319 C 0.69152 0.88241 0.17137 0.0
C320 C 0.69164 0.89446 0.1848 0.0
C321 C 0.68054 0.8897 0.20184 0.0
C322 C 0.66901 0.87272 0.20477 0.0
C323 C 0.66886 0.86075 0.19136 0.0
C324 C 0.68047 0.85235 0.16143 0.0
C325 C 0.68216 0.83983 0.1715 0.0
C326 C 0.67881 0.85188 0.13935 0.0
C327 C 0.67635 0.86438 0.12775 0.0
C328 C 0.68701 0.8734 0.11115 0.0
C329 C 0.68466 0.88508 0.10008 0.0
C330 C 0.67156 0.88795 0.10537 0.0
C331 C 0.66084 0.8788 0.12192 0.0
C332 C 0.66316 0.86708 0.13291 0.0
C333 C 0.67885 0.81199 0.12543 0.0
C334 C 0.66572 0.80371 0.11109 0.0
C335 C 0.6642 0.7903 0.09933 0.0
C336 C 0.67569 0.78475 0.10175 0.0
C337 C 0.68895 0.79311 0.1159 0.0
C338 C 0.69062 0.80673 0.12744 0.0
C339 C 0.67999 0.82598 0.13824 0.0
C340 C 0.67874 0.83879 0.12807 0.0
C341 C 0.68183 0.82661 0.16033 0.0
C342 C 0.6827 0.81348 0.17264 0.0
C343 C 0.6697 0.79686 0.17202 0.0
C344 C 0.66977 0.78502 0.18556 0.0
C345 C 0.68273 0.78965 0.20013 0.0
C346 C 0.69598 0.80615 0.20019 0.0
C347 C 0.69596 0.81793 0.1866 0.0
H348 H 0.12397 0.82987 0.18373 0.0
H349 H 0.10285 0.8099 0.2077 0.0
H350 H 0.11288 0.77171 0.18568 0.0
H351 H 0.13418 0.79177 0.16194 0.0
H352 H 0.15622 0.83942 0.18689 0.0
H353 H 0.11531 0.81589 0.12752 0.0
H354 H 0.09477 0.79175 0.10714 0.0
H355 H 0.13061 0.77542 0.09915 0.0
H356 H 0.15121 0.79974 0.11892 0.0
H357 H 0.20651 0.85864 0.14579 0.0
H358 H 0.23125 0.87918 0.12692 0.0
H359 H 0.20022 0.88924 0.086 0.0
H360 H 0.17551 0.86863 0.10493 0.0
H361 H 0.16302 0.83529 0.1104 0.0
H362 H 0.18738 0.84652 0.19386 0.0
H363 H 0.20757 0.86763 0.21745 0.0
H364 H 0.20644 0.9061 0.1806 0.0
H365 H 0.18615 0.88477 0.15683 0.0
C366 C 0.1306 0.81232 0.17088 0.0
C367 C 0.12144 0.81712 0.1838 0.0
C368 C 0.10942 0.80573 0.19755 0.0
C369 C 0.10628 0.78927 0.19864 0.0
C370 C 0.1149 0.78426 0.18501 0.0
C371 C 0.12703 0.79571 0.17136 0.0
C372 C 0.14511 0.82515 0.15893 0.0
C373 C 0.15764 0.83861 0.17011 0.0
C374 C 0.14715 0.82388 0.13716 0.0
C375 C 0.13475 0.80956 0.12468 0.0
C376 C 0.11874 0.80715 0.12124 0.0
C377 C 0.10707 0.79344 0.10962 0.0
C378 C 0.11116 0.78178 0.10169 0.0
C379 C 0.12717 0.78422 0.1052 0.0
C380 C 0.13893 0.7981 0.11638 0.0
C381 C 0.18915 0.86223 0.12694 0.0
C382 C 0.20504 0.86538 0.13288 0.0
C383 C 0.21918 0.87715 0.12209 0.0
C384 C 0.21773 0.88592 0.105 0.0
C385 C 0.20178 0.88261 0.09896 0.0
C386 C 0.18764 0.87086 0.1098 0.0
C387 C 0.17407 0.84978 0.13836 0.0
C388 C 0.16149 0.8363 0.12711 0.0
C389 C 0.17218 0.85081 0.16025 0.0
C390 C 0.18522 0.86404 0.17358 0.0
C391 C 0.19148 0.8595 0.19081 0.0
C392 C 0.20298 0.87158 0.20434 0.0
C393 C 0.20847 0.88854 0.20105 0.0
C394 C 0.20251 0.89315 0.18349 0.0
C395 C 0.19092 0.88098 0.16991 0.0
H396 H 0.29319 0.17001 0.85124 0.0
H397 H 0.2927 0.19022 0.82709 0.0
H398 H 0.34059 0.22795 0.85023 0.0
H399 H 0.34122 0.20762 0.87409 0.0
H400 H 0.31419 0.15904 0.85016 0.0
H401 H 0.30103 0.18937 0.90076 0.0
H402 H 0.30515 0.21396 0.92022 0.0
H403 H 0.35105 0.22019 0.94553 0.0
H404 H 0.3473 0.19607 0.92552 0.0
H405 H 0.34854 0.15641 0.92491 0.0
H406 H 0.35309 0.13638 0.94451 0.0
H407 H 0.30759 0.0961 0.91917 0.0
H408 H 0.30276 0.11618 0.90011 0.0
H409 H 0.32653 0.16531 0.92626 0.0
H410 H 0.34566 0.14483 0.86771 0.0
H411 H 0.34657 0.12487 0.84311 0.0
H412 H 0.29366 0.10239 0.83316 0.0
H413 H 0.29287 0.12269 0.8573 0.0
C414 C 0.31718 0.18727 0.86463 0.0
C415 C 0.30352 0.18267 0.85128 0.0
C416 C 0.30326 0.19421 0.83746 0.0
C417 C 0.31662 0.21065 0.83675 0.0
C418 C 0.33003 0.21542 0.85061 0.0
C419 C 0.33038 0.20381 0.86429 0.0
C420 C 0.31822 0.1744 0.8774 0.0
C421 C 0.31656 0.16031 0.86691 0.0
C422 C 0.32195 0.17631 0.89914 0.0
C423 C 0.32396 0.19092 0.91138 0.0
C424 C 0.31209 0.19612 0.91028 0.0
C425 C 0.31439 0.21012 0.92148 0.0
C426 C 0.32839 0.21894 0.9344 0.0
C427 C 0.34005 0.21352 0.93587 0.0
C428 C 0.3379 0.19972 0.92442 0.0
C429 C 0.32542 0.13786 0.91072 0.0
C430 C 0.33946 0.14329 0.92366 0.0
C431 C 0.34204 0.13183 0.93488 0.0
C432 C 0.33071 0.11468 0.93332 0.0
C433 C 0.31663 0.10924 0.92047 0.0
C434 C 0.31393 0.12071 0.90946 0.0
C435 C 0.32274 0.15018 0.89889 0.0
C436 C 0.32401 0.16406 0.90956 0.0
C437 C 0.31903 0.14838 0.87723 0.0
C438 C 0.31919 0.13515 0.86436 0.0
C439 C 0.33423 0.13547 0.86043 0.0
C440 C 0.33475 0.12414 0.84638 0.0
C441 C 0.32017 0.11215 0.83634 0.0
C442 C 0.30502 0.11146 0.84085 0.0
C443 C 0.30457 0.12303 0.85455 0.0
H444 H 0.831 0.12144 0.86039 0.0
H445 H 0.80944 0.10062 0.83728 0.0
H446 H 0.77939 0.1236 0.84712 0.0
H447 H 0.80074 0.14408 0.87076 0.0
H448 H 0.84434 0.15909 0.85078 0.0
H449 H 0.81752 0.11539 0.9025 0.0
H450 H 0.79314 0.09502 0.92219 0.0
H451 H 0.78811 0.1349 0.94959 0.0
H452 H 0.81215 0.1552 0.9294 0.0
H453 H 0.86503 0.20836 0.8935 0.0
H454 H 0.88545 0.23294 0.91269 0.0
H455 H 0.89769 0.20194 0.95057 0.0
H456 H 0.8771 0.17736 0.93137 0.0
H457 H 0.84358 0.16454 0.92805 0.0
H458 H 0.85186 0.19041 0.84536 0.0
H459 H 0.87224 0.21047 0.82097 0.0
H460 H 0.91161 0.20818 0.85419 0.0
H461 H 0.89103 0.18802 0.87877 0.0
C462 C 0.81734 0.13416 0.86737 0.0
C463 C 0.8196 0.12175 0.85791 0.0
C464 C 0.80732 0.10989 0.84479 0.0
C465 C 0.79283 0.11058 0.8405 0.0
C466 C 0.79047 0.12285 0.85026 0.0
C467 C 0.80259 0.13447 0.86375 0.0
C468 C 0.8311 0.1478 0.87923 0.0
C469 C 0.84428 0.16027 0.86771 0.0
C470 C 0.83072 0.1493 0.90126 0.0
C471 C 0.81653 0.13686 0.91411 0.0
C472 C 0.81107 0.11976 0.91253 0.0
C473 C 0.79719 0.10813 0.92388 0.0
C474 C 0.78871 0.11337 0.93739 0.0
C475 C 0.79449 0.1305 0.93945 0.0
C476 C 0.80823 0.14211 0.92789 0.0
C477 C 0.86966 0.19102 0.91082 0.0
C478 C 0.87225 0.20687 0.90576 0.0
C479 C 0.88396 0.22093 0.91675 0.0
C480 C 0.89328 0.21944 0.93314 0.0
C481 C 0.89062 0.20353 0.93819 0.0
C482 C 0.8789 0.18947 0.92718 0.0
C483 C 0.85691 0.17601 0.89955 0.0
C484 C 0.84382 0.16329 0.91116 0.0
C485 C 0.85705 0.1745 0.87746 0.0
C486 C 0.86989 0.18766 0.86386 0.0
C487 C 0.86489 0.19425 0.84747 0.0
C488 C 0.87655 0.20568 0.83348 0.0
C489 C 0.89352 0.21076 0.83548 0.0
C490 C 0.89863 0.20455 0.8523 0.0
C491 C 0.88689 0.19304 0.86634 0.0
H492 H 0.81374 0.66263 0.83707 0.0
H493 H 0.79367 0.66442 0.81425 0.0
H494 H 0.79525 0.70324 0.85341 0.0
H495 H 0.81559 0.70142 0.87641 0.0
H496 H 0.84479 0.68632 0.84432 0.0
H497 H 0.7941 0.6572 0.88292 0.0
H498 H 0.77002 0.65393 0.90183 0.0
H499 H 0.80219 0.68511 0.95168 0.0
H500 H 0.82633 0.69018 0.93113 0.0
H501 H 0.86777 0.6901 0.93065 0.0
H502 H 0.88667 0.68476 0.95102 0.0
H503 H 0.88702 0.65311 0.90123 0.0
H504 H 0.86638 0.65675 0.88242 0.0
H505 H 0.83807 0.67227 0.91984 0.0
H506 H 0.88956 0.6992 0.87771 0.0
H507 H 0.91154 0.70019 0.85541 0.0
H508 H 0.87421 0.66767 0.81086 0.0
H509 H 0.85257 0.66536 0.83405 0.0
C510 C 0.81623 0.68193 0.85841 0.0
C511 C 0.80981 0.67156 0.84078 0.0
C512 C 0.79837 0.67263 0.82771 0.0
C513 C 0.79305 0.68411 0.8319 0.0
C514 C 0.79913 0.69425 0.84984 0.0
C515 C 0.81073 0.69324 0.86295 0.0
C516 C 0.82908 0.68101 0.87129 0.0
C517 C 0.84332 0.68314 0.86086 0.0
C518 C 0.82719 0.67726 0.89299 0.0
C519 C 0.81221 0.67444 0.90512 0.0
C520 C 0.79605 0.66382 0.89757 0.0
C521 C 0.78213 0.6616 0.90881 0.0
C522 C 0.78389 0.66923 0.92852 0.0
C523 C 0.80012 0.67935 0.93639 0.0
C524 C 0.81405 0.68207 0.92473 0.0
C525 C 0.86582 0.67416 0.90468 0.0
C526 C 0.87176 0.68184 0.92423 0.0
C527 C 0.88288 0.67896 0.93577 0.0
C528 C 0.88877 0.66863 0.92786 0.0
C529 C 0.88273 0.66094 0.90823 0.0
C530 C 0.87112 0.66333 0.89708 0.0
C531 C 0.85375 0.67716 0.89271 0.0
C532 C 0.8397 0.67561 0.90338 0.0
C533 C 0.85554 0.68098 0.87098 0.0
C534 C 0.86932 0.68202 0.85778 0.0
C535 C 0.88615 0.692 0.86334 0.0
C536 C 0.89874 0.69275 0.85037 0.0
C537 C 0.89479 0.68389 0.83127 0.0
C538 C 0.87791 0.67426 0.82565 0.0
C539 C 0.86541 0.67315 0.83882 0.0
H540 H 0.80413 0.67806 0.49595 0.0
H541 H 0.78321 0.67846 0.51908 0.0
H542 H 0.77199 0.6308 0.54442 0.0
H543 H 0.79276 0.63037 0.52116 0.0
H544 H 0.82486 0.65166 0.52284 0.0
H545 H 0.82143 0.68151 0.44441 0.0
H546 H 0.80101 0.68475 0.42387 0.0
H547 H 0.76142 0.63989 0.45141 0.0
H548 H 0.78194 0.63628 0.47142 0.0
H549 H 0.84484 0.64079 0.44144 0.0
H550 H 0.86976 0.6455 0.42243 0.0
H551 H 0.89998 0.68746 0.46263 0.0
H552 H 0.87502 0.6826 0.48165 0.0
H553 H 0.83165 0.66081 0.44613 0.0
H554 H 0.85774 0.6383 0.49114 0.0
H555 H 0.87879 0.63834 0.51404 0.0
H556 H 0.87251 0.67096 0.55706 0.0
H557 H 0.85313 0.67238 0.53305 0.0
C558 C 0.79998 0.65414 0.50673 0.0
C559 C 0.79689 0.66751 0.50612 0.0
C560 C 0.78495 0.66774 0.51936 0.0
C561 C 0.77605 0.6547 0.53366 0.0
C562 C 0.7788 0.64111 0.53375 0.0
C563 C 0.79063 0.64083 0.52043 0.0
C564 C 0.814 0.65472 0.49468 0.0
C565 C 0.82639 0.65367 0.50604 0.0
C566 C 0.81584 0.65728 0.47273 0.0
C567 C 0.80328 0.65876 0.45973 0.0
C568 C 0.80839 0.67221 0.44585 0.0
C569 C 0.79671 0.67407 0.43411 0.0
C570 C 0.77964 0.6626 0.43611 0.0
C571 C 0.7745 0.649 0.44974 0.0
C572 C 0.78622 0.64699 0.46124 0.0
C573 C 0.85807 0.66122 0.46312 0.0
C574 C 0.85684 0.65101 0.44614 0.0
C575 C 0.87109 0.65375 0.43525 0.0
C576 C 0.88689 0.66683 0.44103 0.0
C577 C 0.88806 0.6771 0.45798 0.0
C578 C 0.87379 0.67437 0.46885 0.0
C579 C 0.84284 0.65832 0.47446 0.0
C580 C 0.83016 0.65882 0.46293 0.0
C581 C 0.84095 0.65572 0.49643 0.0
C582 C 0.85393 0.65555 0.51008 0.0
C583 C 0.86126 0.64584 0.50521 0.0
C584 C 0.87312 0.64562 0.51862 0.0
C585 C 0.87756 0.6547 0.53756 0.0
C586 C 0.86994 0.66416 0.54246 0.0
C587 C 0.85852 0.66476 0.5288 0.0
H588 H 0.3731 0.22172 0.4928 0.0
H589 H 0.37343 0.24256 0.51691 0.0
H590 H 0.33286 0.20338 0.55181 0.0
H591 H 0.33261 0.18275 0.52786 0.0
H592 H 0.35602 0.17507 0.52129 0.0
H593 H 0.36903 0.20693 0.44019 0.0
H594 H 0.36477 0.2273 0.42089 0.0
H595 H 0.32282 0.21646 0.46072 0.0
H596 H 0.32713 0.19613 0.4799 0.0
H597 H 0.32598 0.14295 0.44317 0.0
H598 H 0.32158 0.119 0.42218 0.0
H599 H 0.36602 0.12236 0.44847 0.0
H600 H 0.37077 0.14672 0.46892 0.0
H601 H 0.34825 0.1738 0.44431 0.0
H602 H 0.32675 0.13115 0.50146 0.0
H603 H 0.32601 0.10991 0.52517 0.0
H604 H 0.37902 0.14003 0.53449 0.0
H605 H 0.37963 0.16146 0.51128 0.0
C606 C 0.35285 0.20065 0.50854 0.0
C607 C 0.36419 0.21766 0.50553 0.0
C608 C 0.36436 0.22955 0.51931 0.0
C609 C 0.35329 0.2246 0.53641 0.0
C610 C 0.34178 0.20758 0.53907 0.0
C611 C 0.34158 0.19577 0.52533 0.0
C612 C 0.35292 0.18769 0.49484 0.0
C613 C 0.35444 0.17489 0.50441 0.0
C614 C 0.35085 0.1874 0.47282 0.0
C615 C 0.34855 0.20015 0.46167 0.0
C616 C 0.35895 0.20899 0.44479 0.0
C617 C 0.35647 0.22059 0.43374 0.0
C618 C 0.34349 0.22355 0.43931 0.0
C619 C 0.33311 0.21469 0.45626 0.0
C620 C 0.33556 0.20306 0.46725 0.0
C621 C 0.34859 0.14657 0.45792 0.0
C622 C 0.33491 0.13868 0.44429 0.0
C623 C 0.3324 0.12499 0.43228 0.0
C624 C 0.34344 0.1188 0.43375 0.0
C625 C 0.35721 0.12676 0.44722 0.0
C626 C 0.35986 0.14062 0.45902 0.0
C627 C 0.35092 0.16097 0.47087 0.0
C628 C 0.35006 0.17413 0.46113 0.0
C629 C 0.3533 0.16151 0.49281 0.0
C630 C 0.35326 0.14777 0.50458 0.0
C631 C 0.33823 0.13303 0.50835 0.0
C632 C 0.33781 0.12098 0.52189 0.0
C633 C 0.35247 0.1234 0.53155 0.0
C634 C 0.36761 0.13786 0.52706 0.0
C635 C 0.36796 0.15006 0.51388 0.0
H636 H 0.78164 0.15 0.49367 0.0
H637 H 0.76111 0.13014 0.51856 0.0
H638 H 0.80032 0.12684 0.55076 0.0
H639 H 0.82064 0.14667 0.52613 0.0
H640 H 0.82807 0.17823 0.52146 0.0
H641 H 0.79573 0.16051 0.44047 0.0
H642 H 0.77543 0.13602 0.42087 0.0
H643 H 0.78734 0.10487 0.45891 0.0
H644 H 0.80752 0.12934 0.47846 0.0
H645 H 0.86035 0.18322 0.44267 0.0
H646 H 0.88417 0.20376 0.42251 0.0
H647 H 0.87846 0.24318 0.45014 0.0
H648 H 0.85436 0.22251 0.47006 0.0
H649 H 0.82893 0.17351 0.44413 0.0
H650 H 0.87471 0.20045 0.49353 0.0
H651 H 0.89594 0.22124 0.51679 0.0
H652 H 0.85909 0.23119 0.54393 0.0
H653 H 0.83798 0.21056 0.52057 0.0
C654 C 0.80268 0.14986 0.50811 0.0
C655 C 0.78574 0.1448 0.50594 0.0
C656 C 0.77403 0.13347 0.52016 0.0
C657 C 0.77913 0.12711 0.53681 0.0
C658 C 0.79603 0.13179 0.53841 0.0
C659 C 0.80766 0.14306 0.52428 0.0
C660 C 0.81554 0.16307 0.49462 0.0
C661 C 0.82822 0.17727 0.50451 0.0
C662 C 0.81568 0.16174 0.47254 0.0
C663 C 0.80301 0.14676 0.46112 0.0
C664 C 0.79392 0.14838 0.44462 0.0
C665 C 0.78236 0.13439 0.43338 0.0
C666 C 0.77971 0.11846 0.43835 0.0
C667 C 0.78884 0.11689 0.45491 0.0
C668 C 0.8004 0.13089 0.46611 0.0
C669 C 0.85563 0.20129 0.45809 0.0
C670 C 0.86405 0.19626 0.44421 0.0
C671 C 0.87767 0.20801 0.43265 0.0
C672 C 0.88321 0.22508 0.43477 0.0
C673 C 0.87458 0.23012 0.44836 0.0
C674 C 0.86083 0.21832 0.45978 0.0
C675 C 0.84168 0.18865 0.47104 0.0
C676 C 0.8287 0.17462 0.46104 0.0
C677 C 0.84134 0.19002 0.49313 0.0
C678 C 0.85474 0.20398 0.50522 0.0
C679 C 0.87129 0.2074 0.50412 0.0
C680 C 0.88341 0.21926 0.51744 0.0
C681 C 0.87914 0.22775 0.53228 0.0
C682 C 0.8627 0.2247 0.53284 0.0
C683 C 0.85065 0.21295 0.51946 0.0
H684 H 0.96453 0.50605 0.18452 0.0
H685 H 0.96364 0.52637 0.16091 0.0
H686 H 0.01253 0.56363 0.18191 0.0
H687 H 0.01348 0.54324 0.20522 0.0
H688 H 0.9857 0.49477 0.18212 0.0
H689 H 0.9704 0.52022 0.24018 0.0
H690 H 0.97378 0.54442 0.26025 0.0
H691 H 0.02605 0.56129 0.26789 0.0
H692 H 0.02255 0.53686 0.24844 0.0
H693 H 0.02025 0.49126 0.25622 0.0
H694 H 0.0239 0.47075 0.276 0.0
H695 H 0.9768 0.43161 0.25263 0.0
H696 H 0.97299 0.45221 0.23319 0.0
H697 H 0.99922 0.50162 0.25793 0.0
H698 H 0.01382 0.47409 0.20572 0.0
H699 H 0.01314 0.4527 0.18254 0.0
H700 H 0.96484 0.44165 0.15984 0.0
H701 H 0.9654 0.46282 0.18331 0.0
C702 C 0.98898 0.52312 0.19685 0.0
C703 C 0.97497 0.51865 0.18423 0.0
C704 C 0.9745 0.53025 0.1707 0.0
C705 C 0.98803 0.54659 0.16953 0.0
C706 C 1.00182 0.55121 0.18267 0.0
C707 C 1.00234 0.53956 0.19609 0.0
C708 C 0.99023 0.51024 0.20928 0.0
C709 C 0.98828 0.49604 0.19881 0.0
C710 C 0.99429 0.51226 0.23083 0.0
C711 C 0.99624 0.52681 0.24285 0.0
C712 C 0.98256 0.52911 0.24627 0.0
C713 C 0.98448 0.54285 0.25772 0.0
C714 C 1.00017 0.55464 0.26551 0.0
C715 C 0.01385 0.55236 0.26196 0.0
C716 C 0.01186 0.53844 0.25094 0.0
C717 C 0.99643 0.4733 0.24298 0.0
C718 C 0.01062 0.47829 0.25548 0.0
C719 C 0.01268 0.46656 0.26681 0.0
C720 C 1.00064 0.44957 0.26584 0.0
C721 C 0.98637 0.44459 0.25349 0.0
C722 C 0.98422 0.45636 0.24233 0.0
C723 C 0.99444 0.48588 0.23082 0.0
C724 C 0.99636 0.50011 0.24131 0.0
C725 C 0.9905 0.48391 0.20916 0.0
C726 C 0.9896 0.47001 0.19643 0.0
C727 C 0.0029 0.46681 0.19613 0.0
C728 C 1.00252 0.4546 0.18284 0.0
C729 C 0.98895 0.44554 0.16934 0.0
C730 C 0.97552 0.44854 0.16993 0.0
C731 C 0.97583 0.46063 0.18335 0.0
H732 H 0.50332 0.46037 0.18414 0.0
H733 H 0.4832 0.43925 0.16021 0.0
H734 H 0.4456 0.45044 0.18131 0.0
H735 H 0.46579 0.4718 0.20475 0.0
H736 H 0.51504 0.49235 0.18262 0.0
H737 H 0.4884 0.45206 0.23969 0.0
H738 H 0.46407 0.43109 0.25932 0.0
H739 H 0.44685 0.46626 0.267 0.0
H740 H 0.47143 0.48736 0.24798 0.0
H741 H 0.51821 0.53473 0.24814 0.0
H742 H 0.53858 0.55932 0.26777 0.0
H743 H 0.5746 0.54305 0.26153 0.0
H744 H 0.55434 0.51868 0.24132 0.0
H745 H 0.5062 0.49983 0.25763 0.0
H746 H 0.53503 0.54115 0.20544 0.0
H747 H 0.55683 0.56154 0.18261 0.0
H748 H 0.56873 0.52422 0.16241 0.0
H749 H 0.54715 0.5039 0.18569 0.0
C750 C 0.48608 0.46758 0.19651 0.0
C751 C 0.4907 0.45817 0.18378 0.0
C752 C 0.47921 0.44612 0.17009 0.0
C753 C 0.46282 0.44318 0.16892 0.0
C754 C 0.45806 0.45225 0.18211 0.0
C755 C 0.4696 0.46442 0.19561 0.0
C756 C 0.4988 0.48166 0.20922 0.0
C757 C 0.51332 0.49376 0.19917 0.0
C758 C 0.49629 0.48387 0.23061 0.0
C759 C 0.48165 0.47121 0.24239 0.0
C760 C 0.47941 0.45525 0.24568 0.0
C761 C 0.4656 0.44334 0.25688 0.0
C762 C 0.45369 0.44716 0.26455 0.0
C763 C 0.4559 0.46309 0.26115 0.0
C764 C 0.4699 0.47511 0.25039 0.0
C765 C 0.53481 0.52496 0.24324 0.0
C766 C 0.53049 0.53647 0.251 0.0
C767 C 0.54211 0.55049 0.26211 0.0
C768 C 0.55809 0.55299 0.2661 0.0
C769 C 0.56232 0.54131 0.25867 0.0
C770 C 0.55081 0.52747 0.24713 0.0
C771 C 0.52257 0.51033 0.23106 0.0
C772 C 0.50811 0.49822 0.2412 0.0
C773 C 0.5252 0.50812 0.20973 0.0
C774 C 0.53955 0.521 0.19755 0.0
C775 C 0.54265 0.53745 0.19664 0.0
C776 C 0.55508 0.5491 0.1835 0.0
C777 C 0.56446 0.54446 0.17072 0.0
C778 C 0.56161 0.52811 0.17198 0.0
C779 C 0.5493 0.51651 0.18529 0.0
H780 H 0.54453 0.0431 0.18251 0.0
H781 H 0.56641 0.04498 0.15925 0.0
H782 H 0.55791 0.99755 0.18209 0.0
H783 H 0.53579 0.99552 0.20497 0.0
H784 H 0.51263 0.02007 0.17948 0.0
H785 H 0.55352 0.03808 0.23882 0.0
H786 H 0.57444 0.03478 0.25873 0.0
H787 H 0.53913 0.98257 0.26692 0.0
H788 H 0.51814 0.98598 0.24764 0.0
H789 H 0.46233 0.98834 0.22031 0.0
H790 H 0.43736 0.98358 0.23917 0.0
H791 H 0.46767 0.02488 0.28025 0.0
H792 H 0.49261 0.02951 0.26135 0.0
H793 H 0.50573 0.00917 0.25594 0.0
H794 H 0.48142 0.99544 0.17259 0.0
H795 H 0.46114 0.99601 0.14886 0.0
H796 H 0.46195 0.03578 0.18523 0.0
H797 H 0.48226 0.03501 0.20919 0.0
C798 C 0.53859 0.01926 0.19568 0.0
C799 C 0.54752 0.03321 0.18273 0.0
C800 C 0.56 0.03426 0.16942 0.0
C801 C 0.56385 0.0214 0.16884 0.0
C802 C 0.55537 0.00775 0.18241 0.0
C803 C 0.54276 0.00662 0.19557 0.0
C804 C 0.52385 0.01722 0.20751 0.0
C805 C 0.51119 0.01785 0.19625 0.0
C806 C 0.52178 0.01393 0.22927 0.0
C807 C 0.53431 0.01227 0.24181 0.0
C808 C 0.55027 0.02598 0.24509 0.0
C809 C 0.56216 0.0241 0.25643 0.0
C810 C 0.55833 0.00842 0.26423 0.0
C811 C 0.54234 0.99475 0.26097 0.0
C812 C 0.53037 0.99671 0.25007 0.0
C813 C 0.47934 0.00941 0.23925 0.0
C814 C 0.46359 0.99647 0.23324 0.0
C815 C 0.44931 0.99378 0.24404 0.0
C816 C 0.45049 0.00389 0.26118 0.0
C817 C 0.46632 0.01676 0.26726 0.0
C818 C 0.48059 0.01945 0.25643 0.0
C819 C 0.49458 0.01233 0.22791 0.0
C820 C 0.50728 0.01171 0.23924 0.0
C821 C 0.49651 0.01524 0.20604 0.0
C822 C 0.48338 0.01519 0.19265 0.0
C823 C 0.47721 0.00426 0.17551 0.0
C824 C 0.46567 0.00466 0.16189 0.0
C825 C 0.46008 0.01609 0.16499 0.0
C826 C 0.46595 0.02678 0.18247 0.0
C827 C 0.47756 0.02636 0.19616 0.0
H828 H 0.48602 0.00564 0.86522 0.0
H829 H 0.46442 0.00352 0.88889 0.0
H830 H 0.42698 0.96406 0.85077 0.0
H831 H 0.44886 0.96632 0.82686 0.0
H832 H 0.49469 0.98311 0.85664 0.0
H833 H 0.47026 0.01066 0.82068 0.0
H834 H 0.44908 0.01399 0.80292 0.0
H835 H 0.44967 0.98358 0.75168 0.0
H836 H 0.46906 0.97836 0.77109 0.0
H837 H 0.52373 0.97116 0.8037 0.0
H838 H 0.54833 0.97599 0.78382 0.0
H839 H 0.55401 0.02227 0.76065 0.0
H840 H 0.52972 0.0177 0.78108 0.0
H841 H 0.49858 0.99611 0.78081 0.0
H842 H 0.50939 0.96156 0.84679 0.0
H843 H 0.53105 0.962 0.86941 0.0
H844 H 0.56107 0.01509 0.86068 0.0
H845 H 0.53963 0.01454 0.83755 0.0
C846 C 0.46908 0.98612 0.84428 0.0
C847 C 0.47318 0.99647 0.86196 0.0
C848 C 0.46081 0.9952 0.87553 0.0
C849 C 0.44399 0.98348 0.87185 0.0
C850 C 0.43982 0.97325 0.85397 0.0
C851 C 0.45229 0.97451 0.84033 0.0
C852 C 0.48266 0.9875 0.83053 0.0
C853 C 0.49538 0.98577 0.83999 0.0
C854 C 0.48371 0.99124 0.80881 0.0
C855 C 0.471 0.99379 0.79767 0.0
C856 C 0.4654 0.00417 0.80599 0.0
C857 C 0.45349 0.00645 0.79541 0.0
C858 C 0.44745 0.99912 0.77561 0.0
C859 C 0.45349 0.98912 0.76706 0.0
C860 C 0.4649 0.98632 0.77806 0.0
C861 C 0.52499 0.99421 0.79425 0.0
C862 C 0.53037 0.98247 0.79459 0.0
C863 C 0.54438 0.98518 0.78313 0.0
C864 C 0.55309 0.99952 0.77074 0.0
C865 C 0.54745 0.01104 0.76994 0.0
C866 C 0.53358 0.00844 0.78162 0.0
C867 C 0.51045 0.99168 0.80701 0.0
C868 C 0.49759 0.99314 0.79737 0.0
C869 C 0.5093 0.98804 0.82865 0.0
C870 C 0.523 0.988 0.84044 0.0
C871 C 0.52078 0.97322 0.84944 0.0
C872 C 0.53313 0.97347 0.86227 0.0
C873 C 0.54765 0.98857 0.86669 0.0
C874 C 0.54996 0.00331 0.85742 0.0
C875 C 0.53778 0.003 0.84422 0.0
H876 H 0.03759 0.53902 0.8516 0.0
H877 H 0.03762 0.55988 0.87515 0.0
H878 H 0.98881 0.54747 0.85289 0.0
H879 H 0.98872 0.52645 0.82953 0.0
H880 H 0.01787 0.50694 0.85299 0.0
H881 H 0.02989 0.54906 0.80201 0.0
H882 H 0.02599 0.56958 0.78257 0.0
H883 H 0.97907 0.5303 0.75897 0.0
H884 H 0.98284 0.50984 0.77874 0.0
H885 H 0.98128 0.46414 0.78721 0.0
H886 H 0.97818 0.43972 0.76813 0.0
H887 H 0.03075 0.45783 0.77502 0.0
H888 H 0.03374 0.48203 0.79473 0.0
H889 H 0.00405 0.49961 0.77727 0.0
H890 H 0.99129 0.45822 0.83019 0.0
H891 H 0.99321 0.43844 0.85366 0.0
H892 H 0.04161 0.47704 0.87423 0.0
H893 H 0.03979 0.49674 0.85042 0.0
C894 C 0.0132 0.53119 0.83868 0.0
C895 C 0.02693 0.54086 0.85167 0.0
C896 C 0.02693 0.55275 0.86515 0.0
C897 C 0.01319 0.55527 0.86592 0.0
C898 C 0.99965 0.54595 0.85247 0.0
C899 C 0.9996 0.53394 0.83909 0.0
C900 C 0.01262 0.51744 0.82596 0.0
C901 C 0.01522 0.50556 0.83631 0.0
C902 C 0.00866 0.51538 0.80431 0.0
C903 C 0.00655 0.52788 0.79212 0.0
C904 C 0.01868 0.54486 0.79283 0.0
C905 C 0.01647 0.55658 0.78167 0.0
C906 C 1.00222 0.55155 0.76926 0.0
C907 C 0.99026 0.53453 0.76822 0.0
C908 C 0.99239 0.52283 0.77954 0.0
C909 C 0.00772 0.47482 0.79241 0.0
C910 C 0.99213 0.46285 0.7846 0.0
C911 C 0.99036 0.44892 0.77381 0.0
C912 C 0.00424 0.44698 0.77017 0.0
C913 C 0.0199 0.45913 0.77762 0.0
C914 C 0.0216 0.47288 0.78886 0.0
C915 C 0.00941 0.4893 0.80436 0.0
C916 C 0.00697 0.50122 0.79387 0.0
C917 C 0.01362 0.49149 0.82587 0.0
C918 C 0.01548 0.47897 0.83831 0.0
C919 C 1.00254 0.46233 0.83924 0.0
C920 C 0.00362 0.45103 0.85274 0.0
C921 C 0.01754 0.45621 0.86582 0.0
C922 C 0.03066 0.47274 0.86447 0.0
C923 C 0.02965 0.48399 0.85084 0.0
H924 H 0.4625 0.50134 0.85092 0.0
H925 H 0.44145 0.4811 0.87472 0.0
H926 H 0.45199 0.44337 0.85225 0.0
H927 H 0.47331 0.46374 0.82873 0.0
H928 H 0.49436 0.51244 0.85242 0.0
H929 H 0.4516 0.48226 0.80155 0.0
H930 H 0.43118 0.45775 0.78205 0.0
H931 H 0.47075 0.45094 0.7574 0.0
H932 H 0.49109 0.47505 0.77743 0.0
H933 H 0.53636 0.51789 0.7855 0.0
H934 H 0.56086 0.53901 0.76641 0.0
H935 H 0.54417 0.57446 0.77553 0.0
H936 H 0.51991 0.55346 0.79523 0.0
H937 H 0.50121 0.50609 0.77649 0.0
H938 H 0.54287 0.53302 0.82903 0.0
H939 H 0.5633 0.55389 0.85279 0.0
H940 H 0.52616 0.56536 0.87507 0.0
H941 H 0.50581 0.54468 0.85096 0.0
C942 C 0.46946 0.48409 0.83791 0.0
C943 C 0.4602 0.48868 0.85097 0.0
C944 C 0.44819 0.47712 0.86458 0.0
C945 C 0.44511 0.46068 0.86536 0.0
C946 C 0.45397 0.45591 0.8518 0.0
C947 C 0.46614 0.46754 0.83833 0.0
C948 C 0.48345 0.49696 0.82523 0.0
C949 C 0.49563 0.5112 0.8357 0.0
C950 C 0.48544 0.49501 0.80353 0.0
C951 C 0.47293 0.48042 0.79127 0.0
C952 C 0.4559 0.4754 0.79217 0.0
C953 C 0.44423 0.46144 0.78095 0.0
C954 C 0.4494 0.45247 0.76822 0.0
C955 C 0.46644 0.45772 0.76693 0.0
C956 C 0.47807 0.4715 0.77839 0.0
C957 C 0.52639 0.53416 0.7918 0.0
C958 C 0.53798 0.53021 0.78337 0.0
C959 C 0.55195 0.54224 0.77257 0.0
C960 C 0.5543 0.55828 0.76956 0.0
C961 C 0.54254 0.56215 0.77764 0.0
C962 C 0.52876 0.55021 0.78888 0.0
C963 C 0.51186 0.52149 0.80374 0.0
C964 C 0.49969 0.50735 0.79314 0.0
C965 C 0.50986 0.52342 0.82534 0.0
C966 C 0.52281 0.53738 0.83797 0.0
C967 C 0.53923 0.54037 0.83852 0.0
C968 C 0.5509 0.55226 0.8522 0.0
C969 C 0.54631 0.56122 0.86584 0.0
C970 C 0.53001 0.55853 0.86488 0.0
C971 C 0.51839 0.54676 0.85107 0.0
H972 H 0.62914 0.83976 0.51691 0.0
H973 H 0.62778 0.85977 0.49317 0.0
H974 H 0.67693 0.89738 0.51278 0.0
H975 H 0.67845 0.87728 0.53604 0.0
H976 H 0.6495 0.82803 0.51438 0.0
H977 H 0.6368 0.85509 0.5727 0.0
H978 H 0.64078 0.87947 0.59286 0.0
H979 H 0.6932 0.89632 0.59813 0.0
H980 H 0.68912 0.87169 0.5786 0.0
H981 H 0.68864 0.82423 0.57975 0.0
H982 H 0.69238 0.80351 0.59925 0.0
H983 H 0.64002 0.76811 0.59262 0.0
H984 H 0.63639 0.78872 0.57257 0.0
H985 H 0.66639 0.83683 0.58914 0.0
H986 H 0.67819 0.80762 0.53694 0.0
H987 H 0.67649 0.78547 0.51449 0.0
H988 H 0.62756 0.77414 0.49413 0.0
H989 H 0.62909 0.79606 0.51708 0.0
C990 C 0.65381 0.85702 0.52851 0.0
C991 C 0.63956 0.85236 0.51627 0.0
C992 C 0.6388 0.86378 0.5027 0.0
C993 C 0.65224 0.88014 0.50116 0.0
C994 C 0.66628 0.88494 0.51388 0.0
C995 C 0.66712 0.87346 0.52728 0.0
C996 C 0.65535 0.84432 0.54103 0.0
C997 C 0.65277 0.82975 0.53088 0.0
C998 C 0.66032 0.84687 0.56231 0.0
C999 C 0.66268 0.86165 0.57416 0.0
C1000 C 0.64912 0.86402 0.57825 0.0
C1001 C 0.65138 0.87787 0.58976 0.0
C1002 C 0.66728 0.88969 0.59693 0.0
C1003 C 0.68085 0.88736 0.59267 0.0
C1004 C 0.67852 0.87333 0.58161 0.0
C1005 C 0.66226 0.80796 0.57468 0.0
C1006 C 0.67798 0.81201 0.5825 0.0
C1007 C 0.68011 0.8002 0.59353 0.0
C1008 C 0.66647 0.78429 0.59737 0.0
C1009 C 0.65069 0.78033 0.58988 0.0
C1010 C 0.64862 0.79204 0.57843 0.0
C1011 C 0.66015 0.82039 0.56257 0.0
C1012 C 0.66275 0.83493 0.57276 0.0
C1013 C 0.65523 0.8178 0.54127 0.0
C1014 C 0.65366 0.8034 0.52901 0.0
C1015 C 0.66687 0.80007 0.52817 0.0
C1016 C 0.66593 0.78744 0.51524 0.0
C1017 C 0.65189 0.77807 0.50257 0.0
C1018 C 0.63857 0.78123 0.50363 0.0
C1019 C 0.63943 0.79374 0.51676 0.0
H1020 H 0.15217 0.78351 0.54422 0.0
H1021 H 0.13131 0.76249 0.52068 0.0
H1022 H 0.13072 0.80153 0.48449 0.0
H1023 H 0.1514 0.82235 0.50794 0.0
H1024 H 0.18221 0.82946 0.5147 0.0
H1025 H 0.16286 0.79888 0.59657 0.0
H1026 H 0.13787 0.77836 0.61523 0.0
H1027 H 0.10749 0.78921 0.5742 0.0
H1028 H 0.13247 0.8098 0.55578 0.0
H1029 H 0.18581 0.86276 0.59261 0.0
H1030 H 0.20588 0.8863 0.61358 0.0
H1031 H 0.2459 0.88097 0.58731 0.0
H1032 H 0.2257 0.857 0.56674 0.0
H1033 H 0.17605 0.83179 0.59161 0.0
H1034 H 0.20438 0.87665 0.54104 0.0
H1035 H 0.22541 0.89713 0.51727 0.0
H1036 H 0.23519 0.85931 0.49311 0.0
H1037 H 0.21434 0.83897 0.51698 0.0
C1038 C 0.15336 0.80452 0.52784 0.0
C1039 C 0.14741 0.7875 0.53133 0.0
C1040 C 0.1355 0.77551 0.51789 0.0
C1041 C 0.1295 0.78037 0.50062 0.0
C1042 C 0.13532 0.7974 0.49741 0.0
C1043 C 0.14712 0.80932 0.51084 0.0
C1044 C 0.16648 0.81753 0.54132 0.0
C1045 C 0.18094 0.82994 0.53157 0.0
C1046 C 0.16475 0.81813 0.5633 0.0
C1047 C 0.14954 0.80571 0.57457 0.0
C1048 C 0.15081 0.79685 0.59163 0.0
C1049 C 0.13654 0.78516 0.60229 0.0
C1050 C 0.12071 0.78208 0.59609 0.0
C1051 C 0.11948 0.79107 0.57911 0.0
C1052 C 0.13376 0.80285 0.56857 0.0
C1053 C 0.2042 0.85814 0.57787 0.0
C1054 C 0.19887 0.86648 0.59151 0.0
C1055 C 0.21035 0.87994 0.60352 0.0
C1056 C 0.22744 0.88546 0.60207 0.0
C1057 C 0.2328 0.87706 0.58858 0.0
C1058 C 0.22127 0.86341 0.57677 0.0
C1059 C 0.19176 0.84402 0.5649 0.0
C1060 C 0.17748 0.83128 0.57479 0.0
C1061 C 0.19355 0.84322 0.54293 0.0
C1062 C 0.20781 0.85627 0.53085 0.0
C1063 C 0.21136 0.87288 0.53102 0.0
C1064 C 0.22336 0.88456 0.51742 0.0
C1065 C 0.23184 0.87977 0.50323 0.0
C1066 C 0.22871 0.86331 0.50369 0.0
C1067 C 0.21684 0.85169 0.51736 0.0
H1068 H 0.15061 0.33038 0.50331 0.0
H1069 H 0.13085 0.33163 0.47988 0.0
H1070 H 0.12641 0.36574 0.52224 0.0
H1071 H 0.1478 0.36584 0.54457 0.0
H1072 H 0.17929 0.35145 0.51152 0.0
H1073 H 0.1312 0.32156 0.55523 0.0
H1074 H 0.1066 0.31655 0.57514 0.0
H1075 H 0.13725 0.35916 0.61419 0.0
H1076 H 0.16187 0.36406 0.59421 0.0
H1077 H 0.2089 0.36517 0.59445 0.0
H1078 H 0.22933 0.36128 0.61428 0.0
H1079 H 0.21937 0.31939 0.5748 0.0
H1080 H 0.19907 0.32335 0.55513 0.0
H1081 H 0.17564 0.34446 0.58867 0.0
H1082 H 0.22478 0.37029 0.54202 0.0
H1083 H 0.24654 0.3719 0.51843 0.0
H1084 H 0.20926 0.3296 0.48382 0.0
H1085 H 0.18775 0.32814 0.50715 0.0
C1086 C 0.15079 0.34797 0.52586 0.0
C1087 C 0.14551 0.33825 0.50756 0.0
C1088 C 0.13388 0.33877 0.49424 0.0
C1089 C 0.12672 0.34866 0.49908 0.0
C1090 C 0.13173 0.35813 0.51771 0.0
C1091 C 0.1438 0.35797 0.53079 0.0
C1092 C 0.16426 0.34812 0.53885 0.0
C1093 C 0.17831 0.3497 0.52838 0.0
C1094 C 0.16333 0.34632 0.56097 0.0
C1095 C 0.14836 0.34333 0.57303 0.0
C1096 C 0.13261 0.32992 0.56794 0.0
C1097 C 0.11854 0.32709 0.57933 0.0
C1098 C 0.11993 0.33752 0.59619 0.0
C1099 C 0.13576 0.35082 0.60141 0.0
C1100 C 0.14983 0.35367 0.58997 0.0
C1101 C 0.20264 0.34474 0.57306 0.0
C1102 C 0.21115 0.35517 0.59008 0.0
C1103 C 0.22279 0.3529 0.60143 0.0
C1104 C 0.22609 0.3401 0.59603 0.0
C1105 C 0.2174 0.32959 0.57911 0.0
C1106 C 0.20577 0.33183 0.56783 0.0
C1107 C 0.19019 0.34704 0.56108 0.0
C1108 C 0.17652 0.34622 0.57181 0.0
C1109 C 0.19104 0.3488 0.53903 0.0
C1110 C 0.20463 0.34915 0.52626 0.0
C1111 C 0.22137 0.36126 0.52949 0.0
C1112 C 0.23377 0.36217 0.51602 0.0
C1113 C 0.22957 0.35104 0.49907 0.0
C1114 C 0.21286 0.33861 0.49641 0.0
C1115 C 0.20056 0.3377 0.5098 0.0
C1116 C 0.0112 0.39985 0.08054 0.0
C1117 C 0.99774 0.38473 0.0736 0.0
C1118 C 0.00938 0.40881 0.09708 0.0
C1119 C 0.99377 0.40245 0.10716 0.0
C1120 C 0.98028 0.38692 0.10077 0.0
C1121 C 0.98239 0.37828 0.08398 0.0
C1122 C 0.02405 0.4254 0.10327 0.0
C1123 C 0.9635 0.37962 0.11133 0.0
C1124 C 0.99408 0.42219 0.15967 0.0
C1125 C 0.98924 0.43373 0.1538 0.0
C1126 C 0.99508 0.41151 0.1448 0.0
C1127 C 0.9914 0.4126 0.1235 0.0
C1128 C 0.98629 0.42408 0.11757 0.0
C1129 C 0.9852 0.43443 0.13279 0.0
C1130 C 1.00035 0.39929 0.15178 0.0
C1131 C 0.98248 0.42579 0.095 0.0
H1132 H 0.02311 0.40497 0.07265 0.0
H1133 H 0.97194 0.36658 0.07882 0.0
H1134 H 0.02111 0.43545 0.10033 0.0
H1135 H 0.0266 0.42554 0.12027 0.0
H1136 H 0.03551 0.42829 0.09444 0.0
H1137 H 0.95469 0.36685 0.10566 0.0
H1138 H 0.96489 0.37921 0.12856 0.0
H1139 H 0.95801 0.38765 0.10831 0.0
H1140 H 0.99707 0.42152 0.17593 0.0
H1141 H 0.98166 0.44348 0.12812 0.0
H1142 H 0.01244 0.40248 0.14446 0.0
H1143 H 0.99113 0.38654 0.14653 0.0
H1144 H 1.00168 0.39921 0.16908 0.0
H1145 H 0.99379 0.42989 0.08527 0.0
H1146 H 0.97812 0.43491 0.09309 0.0
H1147 H 0.97277 0.41358 0.08881 0.0
C1148 C 0.60752 0.61082 0.08054 0.0
C1149 C 0.62276 0.61297 0.07326 0.0
C1150 C 0.59914 0.60019 0.09739 0.0
C1151 C 0.60624 0.59161 0.10744 0.0
C1152 C 0.62192 0.59418 0.10072 0.0
C1153 C 0.62995 0.60475 0.0836 0.0
C1154 C 0.58237 0.59768 0.10393 0.0
C1155 C 0.63 0.58546 0.11126 0.0
C1156 C 0.58752 0.57284 0.16048 0.0
C1157 C 0.57626 0.55629 0.15501 0.0
C1158 C 0.59788 0.58436 0.14531 0.0
C1159 C 0.59673 0.57925 0.12415 0.0
C1160 C 0.58562 0.56246 0.11865 0.0
C1161 C 0.5756 0.55118 0.13417 0.0
C1162 C 0.60975 0.60208 0.15184 0.0
C1163 C 0.58384 0.55655 0.09623 0.0
H1164 H 0.60184 0.61709 0.07266 0.0
H1165 H 0.64176 0.6064 0.07818 0.0
H1166 H 0.57266 0.58449 0.10142 0.0
H1167 H 0.58241 0.60037 0.12089 0.0
H1168 H 0.57885 0.60573 0.09501 0.0
H1169 H 0.64279 0.58982 0.10532 0.0
H1170 H 0.63058 0.5875 0.12846 0.0
H1171 H 0.6224 0.57185 0.10855 0.0
H1172 H 0.58816 0.57679 0.17662 0.0
H1173 H 0.56676 0.53845 0.12982 0.0
H1174 H 0.6059 0.61052 0.14464 0.0
H1175 H 0.62249 0.60601 0.14612 0.0
H1176 H 0.61016 0.60372 0.16912 0.0
H1177 H 0.5791 0.56316 0.08643 0.0
H1178 H 0.57519 0.54294 0.09471 0.0
H1179 H 0.59614 0.55951 0.0898 0.0
C1180 C 0.40273 0.02578 0.0774 0.0
C1181 C 0.39027 0.00971 0.07161 0.0
C1182 C 0.41382 0.02823 0.09385 0.0
C1183 C 0.41245 0.01428 0.10471 0.0
C1184 C 0.39948 0.99812 0.09952 0.0
C1185 C 0.38857 0.99604 0.08309 0.0
C1186 C 0.42741 0.04567 0.09903 0.0
C1187 C 0.39757 0.9829 0.11069 0.0
C1188 C 0.45079 0.01583 0.12808 0.0
C1189 C 0.44844 0.01693 0.14964 0.0
C1190 C 0.43943 0.01547 0.11332 0.0
C1191 C 0.42536 0.01632 0.12021 0.0
C1192 C 0.42319 0.01805 0.14188 0.0
C1193 C 0.43476 0.01832 0.15636 0.0
C1194 C 0.44225 0.01367 0.09036 0.0
C1195 C 0.40838 0.01906 0.14982 0.0
H1196 H 0.40412 0.03644 0.06872 0.0
H1197 H 0.37894 0.98357 0.07889 0.0
H1198 H 0.42774 0.04795 0.11615 0.0
H1199 H 0.43966 0.04719 0.09457 0.0
H1200 H 0.42575 0.05526 0.0907 0.0
H1201 H 0.38614 0.97134 0.10585 0.0
H1202 H 0.4085 0.98141 0.10729 0.0
H1203 H 0.39716 0.98439 0.1279 0.0
H1204 H 0.46152 0.01513 0.12273 0.0
H1205 H 0.43281 0.0191 0.17299 0.0
H1206 H 0.44223 0.02381 0.08119 0.0
H1207 H 0.43196 1.00171 0.08431 0.0
H1208 H 0.45421 0.01394 0.08751 0.0
H1209 H 0.40722 0.02883 0.14122 0.0
H1210 H 0.40925 0.02184 0.16687 0.0
H1211 H 0.39682 0.00706 0.14691 0.0
C1212 C 0.37605 0.97436 0.95808 0.0
C1213 C 0.38016 0.9906 0.96385 0.0
C1214 C 0.38451 0.97153 0.9417 0.0
C1215 C 0.39742 0.98525 0.9309 0.0
C1216 C 0.40108 1.0016 0.936 0.0
C1217 C 0.39241 0.00406 0.95235 0.0
C1218 C 0.38014 0.95391 0.93658 0.0
C1219 C 0.41475 0.01658 0.92488 0.0
C1220 C 0.43404 0.98281 0.9085 0.0
C1221 C 0.43107 0.9821 0.88687 0.0
C1222 C 0.42286 0.98321 0.92299 0.0
C1223 C 0.40824 0.98278 0.91571 0.0
C1224 C 0.40474 0.98128 0.89395 0.0
C1225 C 0.41622 0.98097 0.87975 0.0
C1226 C 0.42705 0.98476 0.94605 0.0
C1227 C 0.38923 0.98067 0.8856 0.0
H1228 H 0.36655 0.96386 0.96677 0.0
H1229 H 0.39562 0.01666 0.95653 0.0
H1230 H 0.37851 0.95171 0.91943 0.0
H1231 H 0.39048 0.95189 0.94147 0.0
H1232 H 0.36859 0.94458 0.94463 0.0
H1233 H 0.41518 0.02834 0.92957 0.0
H1234 H 0.42696 0.01769 0.92852 0.0
H1235 H 0.41301 0.01509 0.90765 0.0
H1236 H 0.44531 0.98334 0.91413 0.0
H1237 H 0.41387 0.98048 0.86305 0.0
H1238 H 0.41655 0.97481 0.95503 0.0
H1239 H 0.42906 0.99687 0.95206 0.0
H1240 H 0.43843 0.98399 0.94922 0.0
H1241 H 0.3781 0.97127 0.89425 0.0
H1242 H 0.38742 0.97766 0.86861 0.0
H1243 H 0.39007 0.99292 0.88805 0.0
C1244 C 0.02549 0.39848 0.95428 0.0
C1245 C 0.0102 0.38989 0.96485 0.0
C1246 C 0.0275 0.40872 0.937 0.0
C1247 C 0.01397 0.4106 0.93031 0.0
C1248 C 0.99842 0.40169 0.94062 0.0
C1249 C 0.99671 0.39139 0.95765 0.0
C1250 C 0.0442 0.41785 0.9262 0.0
C1251 C 0.98372 0.40345 0.93412 0.0
C1252 C 0.02213 0.45021 0.90264 0.0
C1253 C 0.01781 0.44476 0.88188 0.0
C1254 C 0.02131 0.43931 0.91843 0.0
C1255 C 0.01621 0.42256 0.91333 0.0
C1256 C 0.01232 0.41711 0.89227 0.0
C1257 C 0.01305 0.42825 0.87682 0.0
C1258 C 0.02535 0.44558 0.94073 0.0
C1259 C 0.00704 0.39942 0.88617 0.0
H1260 H 0.03596 0.39733 0.95963 0.0
H1261 H 0.98484 0.38485 0.96569 0.0
H1262 H 0.04269 0.41548 0.90907 0.0
H1263 H 0.0497 0.43145 0.92854 0.0
H1264 H 0.05307 0.41409 0.93225 0.0
H1265 H 0.97233 0.39521 0.94327 0.0
H1266 H 0.9867 0.41653 0.93635 0.0
H1267 H 0.98101 0.40047 0.91724 0.0
H1268 H 0.0256 0.46289 0.9067 0.0
H1269 H 0.00984 0.42403 0.86075 0.0
H1270 H 0.03506 0.4432 0.9472 0.0
H1271 H 0.01411 0.43875 0.95068 0.0
H1272 H 0.02978 0.45911 0.94195 0.0
H1273 H 0.01628 0.39604 0.89184 0.0
H1274 H 0.00566 0.39748 0.86893 0.0
H1275 H 0.99497 0.39077 0.8937 0.0
C1276 C 0.61237 0.60318 0.95739 0.0
C1277 C 0.61439 0.6184 0.96458 0.0
C1278 C 0.60177 0.5947 0.94053 0.0
C1279 C 0.5931 0.60167 0.9304 0.0
C1280 C 0.59546 0.61726 0.93713 0.0
C1281 C 0.606 0.6254 0.95422 0.0
C1282 C 0.59949 0.57802 0.93396 0.0
C1283 C 0.58659 0.62519 0.92656 0.0
C1284 C 0.57476 0.58372 0.87687 0.0
C1285 C 0.55814 0.57244 0.882 0.0
C1286 C 0.5862 0.5937 0.89235 0.0
C1287 C 0.58092 0.59217 0.91349 0.0
C1288 C 0.5641 0.58097 0.91869 0.0
C1289 C 0.55291 0.57131 0.90288 0.0
C1290 C 0.60398 0.60565 0.88616 0.0
C1291 C 0.55801 0.57882 0.94106 0.0
H1292 H 0.61876 0.59764 0.96528 0.0
H1293 H 0.60755 0.63719 0.95956 0.0
H1294 H 0.58632 0.56821 0.93629 0.0
H1295 H 0.60232 0.57816 0.91704 0.0
H1296 H 0.60756 0.57458 0.94298 0.0
H1297 H 0.59061 0.63786 0.93272 0.0
H1298 H 0.58889 0.62604 0.90941 0.0
H1299 H 0.57296 0.61733 0.92894 0.0
H1300 H 0.57882 0.58472 0.86072 0.0
H1301 H 0.54013 0.56244 0.90698 0.0
H1302 H 0.61239 0.60191 0.89366 0.0
H1303 H 0.60772 0.61837 0.8918 0.0
H1304 H 0.60585 0.60608 0.86891 0.0
H1305 H 0.5647 0.57414 0.95081 0.0
H1306 H 0.54443 0.56997 0.94239 0.0
H1307 H 0.56071 0.59098 0.94769 0.0
C1308 C 0.01998 0.62279 0.95072 0.0
C1309 C 0.00501 0.6163 0.962 0.0
C1310 C 0.0217 0.61394 0.9339 0.0
C1311 C 0.0082 0.59815 0.92835 0.0
C1312 C 0.99294 0.59173 0.93932 0.0
C1313 C 0.99151 0.6009 0.95591 0.0
C1314 C 0.03812 0.62128 0.92243 0.0
C1315 C 0.97827 0.5749 0.93399 0.0
C1316 C 0.00711 0.57795 0.87589 0.0
C1317 C 0.01261 0.56688 0.88156 0.0
C1318 C 0.006 0.58852 0.89083 0.0
C1319 C 0.01028 0.58784 0.91197 0.0
C1320 C 0.01597 0.57679 0.91771 0.0
C1321 C 0.01712 0.5665 0.90244 0.0
C1322 C 1.00005 0.60027 0.88406 0.0
C1323 C 0.02048 0.57553 0.94011 0.0
H1324 H 0.03046 0.63471 0.9552 0.0
H1325 H 0.97988 0.59576 0.96449 0.0
H1326 H 0.04393 0.6135 0.9252 0.0
H1327 H 0.03612 0.62131 0.90529 0.0
H1328 H 0.04695 0.6342 0.92757 0.0
H1329 H 0.96704 0.57202 0.94337 0.0
H1330 H 0.97516 0.57433 0.91712 0.0
H1331 H 0.98153 0.56507 0.93692 0.0
H1332 H 0.00375 0.57838 0.85973 0.0
H1333 H 0.02115 0.55781 0.90697 0.0
H1334 H 0.00928 0.61321 0.88862 0.0
H1335 H 0.98822 0.59703 0.89216 0.0
H1336 H 0.99799 0.59987 0.86687 0.0
H1337 H 0.03023 0.58791 0.94581 0.0
H1338 H 0.02509 0.56661 0.9419 0.0
H1339 H 0.00943 0.57146 0.95035 0.0
C1340 C 0.3793 0.40192 0.95304 0.0
C1341 C 0.38572 0.39287 0.96306 0.0
C1342 C 0.38763 0.41237 0.93593 0.0
C1343 C 0.40287 0.41398 0.92889 0.0
C1344 C 0.40921 0.4046 0.93865 0.0
C1345 C 0.40052 0.3941 0.95548 0.0
C1346 C 0.38035 0.42197 0.92571 0.0
C1347 C 0.42551 0.40609 0.9318 0.0
C1348 C 0.42166 0.43254 0.87574 0.0
C1349 C 0.43352 0.44889 0.88126 0.0
C1350 C 0.41116 0.42116 0.89096 0.0
C1351 C 0.41277 0.4262 0.91221 0.0
C1352 C 0.42459 0.44276 0.91779 0.0
C1353 C 0.43474 0.45391 0.90223 0.0
C1354 C 0.39854 0.40369 0.88435 0.0
C1355 C 0.42691 0.44858 0.9403 0.0
H1356 H 0.36783 0.40099 0.95869 0.0
H1357 H 0.40563 0.3872 0.9631 0.0
H1358 H 0.38863 0.43549 0.92847 0.0
H1359 H 0.3795 0.41997 0.9085 0.0
H1360 H 0.36777 0.41832 0.93187 0.0
H1361 H 0.42841 0.39748 0.94048 0.0
H1362 H 0.42518 0.40343 0.91479 0.0
H1363 H 0.43578 0.41903 0.93436 0.0
H1364 H 0.4206 0.42866 0.8595 0.0
H1365 H 0.44404 0.46648 0.9066 0.0
H1366 H 0.38598 0.40047 0.89011 0.0
H1367 H 0.40168 0.3947 0.89148 0.0
H1368 H 0.39802 0.40209 0.86706 0.0
H1369 H 0.41493 0.44641 0.94693 0.0
H1370 H 0.43626 0.462 0.94193 0.0
H1371 H 0.43101 0.44129 0.94985 0.0
C1372 C 0.5977 0.97875 0.96188 0.0
C1373 C 0.61402 0.99218 0.96311 0.0
C1374 C 0.5872 0.97746 0.94525 0.0
C1375 C 0.59333 0.98964 0.92921 0.0
C1376 C 0.6101 0.00269 0.92979 0.0
C1377 C 0.62017 0.00394 0.94689 0.0
C1378 C 0.56931 0.96356 0.94546 0.0
C1379 C 0.61724 0.01566 0.9127 0.0
C1380 C 0.56782 0.97994 0.8791 0.0
C1381 C 0.55974 0.98913 0.8822 0.0
C1382 C 0.57907 0.98022 0.89408 0.0
C1383 C 0.58186 0.98951 0.91279 0.0
C1384 C 0.57357 0.99869 0.91598 0.0
C1385 C 0.56277 0.99855 0.90051 0.0
C1386 C 0.588 0.97065 0.88986 0.0
C1387 C 0.5759 0.00845 0.9359 0.0
H1388 H 0.59286 0.9697 0.97446 0.0
H1389 H 0.63283 0.01426 0.94771 0.0
H1390 H 0.56098 0.96887 0.94737 0.0
H1391 H 0.56607 0.95673 0.93035 0.0
H1392 H 0.56674 0.95456 0.95836 0.0
H1393 H 0.63093 0.02384 0.91423 0.0
H1394 H 0.61447 0.00961 0.89707 0.0
H1395 H 0.61138 0.02356 0.91333 0.0
H1396 H 0.56545 0.9727 0.86487 0.0
H1397 H 0.55635 0.0055 0.90293 0.0
H1398 H 0.58468 0.96095 0.90202 0.0
H1399 H 0.60165 0.97914 0.89075 0.0
H1400 H 0.5849 0.96455 0.87423 0.0
H1401 H 0.57257 1.00009 0.94967 0.0
H1402 H 0.56818 0.01454 0.93617 0.0
H1403 H 0.58915 0.01819 0.93765 0.0
C1404 C 0.62837 0.02625 0.08001 0.0
C1405 C 0.62157 0.01033 0.0711 0.0
C1406 C 0.62052 0.02926 0.097 0.0
C1407 C 0.60541 0.0161 0.10503 0.0
C1408 C 0.59866 0.99997 0.0963 0.0
C1409 C 0.60686 0.99726 0.07958 0.0
C1410 C 0.62823 0.04657 0.10613 0.0
C1411 C 0.58247 0.98562 0.1042 0.0
C1412 C 0.5878 0.01746 0.15843 0.0
C1413 C 0.57563 0.02154 0.15294 0.0
C1414 C 0.59816 0.01641 0.14312 0.0
C1415 C 0.59608 0.01922 0.12179 0.0
C1416 C 0.58408 0.02373 0.11626 0.0
C1417 C 0.57408 0.02492 0.13191 0.0
C1418 C 0.61099 0.01183 0.14967 0.0
C1419 C 0.58127 0.02656 0.09368 0.0
H1420 H 0.63977 0.0364 0.07365 0.0
H1421 H 0.60146 0.98492 0.07281 0.0
H1422 H 0.61991 0.05178 0.10335 0.0
H1423 H 0.62965 0.04614 0.12334 0.0
H1424 H 0.6406 0.05514 0.09916 0.0
H1425 H 0.5791 0.97375 0.09606 0.0
H1426 H 0.5833 0.98387 0.12126 0.0
H1427 H 0.57226 0.98842 0.10187 0.0
H1428 H 0.58912 0.01498 0.1747 0.0
H1429 H 0.56454 0.02787 0.12755 0.0
H1430 H 0.62333 0.02077 0.14297 0.0
H1431 H 0.60752 0.99933 0.14347 0.0
H1432 H 0.61216 0.01165 0.16699 0.0
H1433 H 0.59315 0.03592 0.08636 0.0
H1434 H 0.5721 0.03089 0.09212 0.0
H1435 H 0.57664 0.0148 0.08471 0.0
C1436 C 0.00991 0.61205 0.07788 0.0
C1437 C 0.99654 0.61399 0.0713 0.0
C1438 C 0.00828 0.60177 0.0949 0.0
C1439 C 0.99295 0.59332 0.10578 0.0
C1440 C 0.9796 0.59571 0.09976 0.0
C1441 C 0.98152 0.60595 0.08252 0.0
C1442 C 0.02279 0.59948 0.10074 0.0
C1443 C 0.96312 0.58706 0.11114 0.0
C1444 C 0.98366 0.55314 0.13288 0.0
C1445 C 0.98827 0.55841 0.15364 0.0
C1446 C 0.98482 0.56432 0.11727 0.0
C1447 C 0.99063 0.58118 0.12256 0.0
C1448 C 0.99491 0.5865 0.1436 0.0
C1449 C 0.99378 0.57506 0.15888 0.0
C1450 C 0.9803 0.55818 0.09499 0.0
C1451 C 1.00096 0.60431 0.14989 0.0
H1452 H 0.02158 0.6182 0.06935 0.0
H1453 H 0.97115 0.60744 0.07765 0.0
H1454 H 0.02581 0.60229 0.1176 0.0
H1455 H 0.0194 0.58631 0.09821 0.0
H1456 H 0.03411 0.60756 0.09138 0.0
H1457 H 0.95447 0.59129 0.10566 0.0
H1458 H 0.95713 0.57343 0.10867 0.0
H1459 H 0.96507 0.58934 0.12825 0.0
H1460 H 0.97963 0.54035 0.12868 0.0
H1461 H 0.99722 0.57915 0.17495 0.0
H1462 H 0.99142 0.56479 0.08477 0.0
H1463 H 0.97073 0.56094 0.08895 0.0
H1464 H 0.97547 0.54458 0.0936 0.0
H1465 H 0.01293 0.61265 0.14194 0.0
H1466 H 0.00281 0.60622 0.16709 0.0
H1467 H 0.99191 0.60813 0.1448 0.0
C1468 C 0.39621 0.40088 0.0787 0.0
C1469 C 0.39395 0.38564 0.0712 0.0
C1470 C 0.40708 0.40923 0.09538 0.0
C1471 C 0.41579 0.4021 0.10504 0.0
C1472 C 0.4132 0.38649 0.098 0.0
C1473 C 0.4024 0.37849 0.08107 0.0
C1474 C 0.4096 0.42593 0.10225 0.0
C1475 C 0.42208 0.37839 0.10811 0.0
C1476 C 0.45618 0.43255 0.1321 0.0
C1477 C 0.45105 0.43158 0.153 0.0
C1478 C 0.44493 0.4227 0.11644 0.0
C1479 C 0.42815 0.41145 0.12183 0.0
C1480 C 0.42303 0.40999 0.14304 0.0
C1481 C 0.43452 0.42017 0.15835 0.0
C1482 C 0.45085 0.42481 0.094 0.0
C1483 C 0.40532 0.39797 0.14946 0.0
H1484 H 0.38979 0.40655 0.07119 0.0
H1485 H 0.40067 0.36669 0.07546 0.0
H1486 H 0.40688 0.4257 0.11923 0.0
H1487 H 0.42279 0.43566 0.09987 0.0
H1488 H 0.40157 0.42957 0.09348 0.0
H1489 H 0.41788 0.36573 0.10177 0.0
H1490 H 0.43568 0.38617 0.1055 0.0
H1491 H 0.41998 0.37746 0.1253 0.0
H1492 H 0.4689 0.4415 0.12785 0.0
H1493 H 0.43055 0.41928 0.17452 0.0
H1494 H 0.44423 0.42968 0.08444 0.0
H1495 H 0.44791 0.41262 0.08725 0.0
H1496 H 0.46445 0.4335 0.09255 0.0
H1497 H 0.39684 0.40185 0.14245 0.0
H1498 H 0.40367 0.39734 0.16675 0.0
H1499 H 0.40146 0.38531 0.14346 0.0
C1500 C 0.67398 0.73219 0.41442 0.0
C1501 C 0.66075 0.71686 0.40763 0.0
C1502 C 0.6719 0.7411 0.43081 0.0
C1503 C 0.65627 0.73447 0.44091 0.0
C1504 C 0.64302 0.71873 0.43468 0.0
C1505 C 0.64538 0.71016 0.41801 0.0
C1506 C 0.68632 0.75791 0.43683 0.0
C1507 C 0.62624 0.71114 0.44529 0.0
C1508 C 0.6567 0.75448 0.49321 0.0
C1509 C 0.65167 0.76586 0.48727 0.0
C1510 C 0.65761 0.74368 0.47846 0.0
C1511 C 0.65366 0.74449 0.45721 0.0
C1512 C 0.64823 0.75571 0.45123 0.0
C1513 C 0.64722 0.76618 0.46635 0.0
C1514 C 0.66321 0.73172 0.4855 0.0
C1515 C 0.64412 0.75712 0.4287 0.0
H1516 H 0.6859 0.73751 0.40651 0.0
H1517 H 0.63511 0.69829 0.41297 0.0
H1518 H 0.68302 0.7677 0.43391 0.0
H1519 H 0.68901 0.75819 0.45381 0.0
H1520 H 0.69782 0.76107 0.4279 0.0
H1521 H 0.61764 0.69828 0.43971 0.0
H1522 H 0.6277 0.71086 0.46252 0.0
H1523 H 0.62045 0.7189 0.44221 0.0
H1524 H 0.66001 0.75409 0.50941 0.0
H1525 H 0.64352 0.77509 0.46163 0.0
H1526 H 0.67541 0.7352 0.47829 0.0
H1527 H 0.65423 0.71891 0.48019 0.0
H1528 H 0.66447 0.73164 0.50281 0.0
H1529 H 0.65542 0.7615 0.41886 0.0
H1530 H 0.63935 0.76591 0.4268 0.0
H1531 H 0.63464 0.74476 0.42264 0.0
C1532 C 0.29437 0.93777 0.41237 0.0
C1533 C 0.28744 0.94652 0.40276 0.0
C1534 C 0.28673 0.92758 0.42991 0.0
C1535 C 0.27169 0.92592 0.43782 0.0
C1536 C 0.26485 0.935 0.42847 0.0
C1537 C 0.27285 0.94524 0.41117 0.0
C1538 C 0.29452 0.91827 0.43965 0.0
C1539 C 0.24874 0.93345 0.43626 0.0
C1540 C 0.24099 0.88622 0.46589 0.0
C1541 C 0.24288 0.89147 0.48684 0.0
C1542 C 0.25056 0.89722 0.44989 0.0
C1543 C 0.26244 0.91388 0.45495 0.0
C1544 C 0.26471 0.91916 0.47615 0.0
C1545 C 0.25479 0.90792 0.49185 0.0
C1546 C 0.24755 0.89114 0.42748 0.0
C1547 C 0.27741 0.93676 0.48218 0.0
H1548 H 0.3057 0.93876 0.40609 0.0
H1549 H 0.26736 0.95192 0.40388 0.0
H1550 H 0.29593 0.92053 0.45681 0.0
H1551 H 0.28626 0.90469 0.43729 0.0
H1552 H 0.3069 0.92195 0.43281 0.0
H1553 H 0.24544 0.94187 0.42782 0.0
H1554 H 0.23847 0.92045 0.43419 0.0
H1555 H 0.24962 0.93632 0.45325 0.0
H1556 H 0.23163 0.87358 0.46191 0.0
H1557 H 0.25636 0.91198 0.50805 0.0
H1558 H 0.25935 0.89336 0.42018 0.0
H1559 H 0.24301 0.89821 0.41824 0.0
H1560 H 0.23826 0.87766 0.42626 0.0
H1561 H 0.2898 0.94003 0.47575 0.0
H1562 H 0.27848 0.93857 0.49945 0.0
H1563 H 0.27391 0.94557 0.47532 0.0
C1564 C 0.05485 0.34362 0.42356 0.0
C1565 C 0.06141 0.34875 0.40339 0.0
C1566 C 0.06525 0.34549 0.44056 0.0
C1567 C 0.08249 0.35193 0.43707 0.0
C1568 C 0.08922 0.35764 0.4168 0.0
C1569 C 0.07861 0.35626 0.40026 0.0
C1570 C 0.05768 0.33991 0.46206 0.0
C1571 C 0.1074 0.36408 0.41223 0.0
C1572 C 0.11368 0.36394 0.48175 0.0
C1573 C 0.11448 0.34929 0.48434 0.0
C1574 C 0.10288 0.36483 0.46699 0.0
C1575 C 0.09309 0.35097 0.45393 0.0
C1576 C 0.09365 0.33611 0.45661 0.0
C1577 C 0.10398 0.33533 0.47206 0.0
C1578 C 0.10215 0.38068 0.46516 0.0
C1579 C 0.08363 0.3211 0.4428 0.0
H1580 H 0.04153 0.33786 0.42595 0.0
H1581 H 0.08361 0.36003 0.38458 0.0
H1582 H 0.05729 0.32811 0.4662 0.0
H1583 H 0.06537 0.3493 0.47406 0.0
H1584 H 0.0448 0.3378 0.46282 0.0
H1585 H 0.11088 0.36903 0.39603 0.0
H1586 H 0.11533 0.37406 0.42344 0.0
H1587 H 0.11022 0.35385 0.41423 0.0
H1588 H 0.12175 0.3749 0.49087 0.0
H1589 H 0.10392 0.32373 0.47429 0.0
H1590 H 0.08902 0.37785 0.46555 0.0
H1591 H 0.1075 0.38677 0.44993 0.0
H1592 H 0.10911 0.38963 0.47794 0.0
H1593 H 0.07015 0.31649 0.44487 0.0
H1594 H 0.08603 0.31075 0.4463 0.0
H1595 H 0.08666 0.32461 0.42607 0.0
C1596 C 0.05597 0.31216 0.30219 0.0
C1597 C 0.04631 0.3197 0.29906 0.0
C1598 C 0.06511 0.31062 0.2856 0.0
C1599 C 0.06403 0.31622 0.2653 0.0
C1600 C 0.05319 0.32261 0.2618 0.0
C1601 C 0.04476 0.32464 0.27885 0.0
C1602 C 0.0769 0.30423 0.29018 0.0
C1603 C 0.05113 0.32808 0.24028 0.0
C1604 C 0.1023 0.33329 0.23052 0.0
C1605 C 0.0991 0.31942 0.21818 0.0
C1606 C 0.09104 0.33232 0.24591 0.0
C1607 C 0.07573 0.31735 0.24848 0.0
C1608 C 0.07192 0.30357 0.23537 0.0
C1609 C 0.08376 0.30466 0.22065 0.0
C1610 C 0.09576 0.34726 0.25977 0.0
C1611 C 0.05546 0.28761 0.23708 0.0
H1612 H 0.05731 0.30854 0.31791 0.0
H1613 H 0.03722 0.33044 0.27647 0.0
H1614 H 0.07503 0.29436 0.27887 0.0
H1615 H 0.08992 0.31454 0.28836 0.0
H1616 H 0.07532 0.29918 0.30632 0.0
H1617 H 0.04021 0.32996 0.2395 0.0
H1618 H 0.06241 0.33998 0.23615 0.0
H1619 H 0.04964 0.31874 0.2283 0.0
H1620 H 0.11375 0.34498 0.22836 0.0
H1621 H 0.08107 0.29377 0.21145 0.0
H1622 H 0.0952 0.34372 0.27649 0.0
H1623 H 0.0868 0.35176 0.25763 0.0
H1624 H 0.10847 0.35771 0.25638 0.0
H1625 H 0.05472 0.28149 0.25228 0.0
H1626 H 0.05366 0.27874 0.22425 0.0
H1627 H 0.04506 0.29029 0.23669 0.0
C1628 C 0.68878 0.7312 0.28867 0.0
C1629 C 0.67336 0.72218 0.29884 0.0
C1630 C 0.69075 0.74141 0.27136 0.0
C1631 C 0.67703 0.74277 0.2642 0.0
C1632 C 0.66134 0.73335 0.27404 0.0
C1633 C 0.65968 0.72313 0.29114 0.0
C1634 C 0.70763 0.75111 0.26113 0.0
C1635 C 0.64642 0.73454 0.26701 0.0
C1636 C 0.68515 0.78262 0.23729 0.0
C1637 C 0.68191 0.77769 0.21622 0.0
C1638 C 0.68384 0.77144 0.25296 0.0
C1639 C 0.67927 0.7549 0.24745 0.0
C1640 C 0.67625 0.74989 0.22616 0.0
C1641 C 0.67749 0.76133 0.2108 0.0
C1642 C 0.68696 0.77723 0.27549 0.0
C1643 C 0.67153 0.73242 0.21966 0.0
H1644 H 0.6994 0.73047 0.29439 0.0
H1645 H 0.6477 0.71622 0.29884 0.0
H1646 H 0.70655 0.74903 0.24393 0.0
H1647 H 0.7127 0.76462 0.2638 0.0
H1648 H 0.71665 0.74762 0.26737 0.0
H1649 H 0.6349 0.72575 0.27557 0.0
H1650 H 0.64879 0.74739 0.2696 0.0
H1651 H 0.64429 0.73193 0.24997 0.0
H1652 H 0.68832 0.79518 0.24162 0.0
H1653 H 0.67509 0.7575 0.19451 0.0
H1654 H 0.69684 0.77527 0.28232 0.0
H1655 H 0.67551 0.76979 0.2849 0.0
H1656 H 0.69078 0.79061 0.27709 0.0
H1657 H 0.68099 0.72935 0.22534 0.0
H1658 H 0.67039 0.73073 0.20238 0.0
H1659 H 0.65949 0.72339 0.22694 0.0
C1660 C 0.27967 0.94081 0.2831 0.0
C1661 C 0.27798 0.95304 0.29404 0.0
C1662 C 0.26885 0.93176 0.26668 0.0
C1663 C 0.25597 0.93497 0.26098 0.0
C1664 C 0.25461 0.94777 0.27132 0.0
C1665 C 0.26563 0.95666 0.28773 0.0
C1666 C 0.27077 0.91824 0.25603 0.0
C1667 C 0.24109 0.95162 0.26563 0.0
C1668 C 0.23384 0.91607 0.20939 0.0
C1669 C 0.22009 0.90117 0.21627 0.0
C1670 C 0.24541 0.9275 0.22378 0.0
C1671 C 0.24314 0.92392 0.24552 0.0
C1672 C 0.22899 0.90915 0.25254 0.0
C1673 C 0.21765 0.898 0.23786 0.0
C1674 C 0.26032 0.94313 0.2157 0.0
C1675 C 0.22604 0.90487 0.27557 0.0
H1676 H 0.28923 0.93798 0.2877 0.0
H1677 H 0.26424 0.96611 0.29601 0.0
H1678 H 0.2598 0.90592 0.25961 0.0
H1679 H 0.27127 0.91985 0.23877 0.0
H1680 H 0.28216 0.91815 0.26118 0.0
H1681 H 0.24272 0.96299 0.27363 0.0
H1682 H 0.24089 0.95332 0.24844 0.0
H1683 H 0.2288 0.941 0.2701 0.0
H1684 H 0.23584 0.91857 0.19273 0.0
H1685 H 0.20687 0.88667 0.24331 0.0
H1686 H 0.27182 0.94266 0.21898 0.0
H1687 H 0.26146 0.95421 0.22392 0.0
H1688 H 0.25958 0.94476 0.19856 0.0
H1689 H 0.23625 0.90321 0.28191 0.0
H1690 H 0.21403 0.89329 0.27851 0.0
H1691 H 0.22608 0.9152 0.28442 0.0
C1692 C 0.66195 0.94285 0.28391 0.0
C1693 C 0.67609 0.95496 0.29455 0.0
C1694 C 0.66333 0.93355 0.26744 0.0
C1695 C 0.67923 0.93637 0.26144 0.0
C1696 C 0.69361 0.94905 0.27147 0.0
C1697 C 0.69187 0.95822 0.28789 0.0
C1698 C 0.64769 0.9202 0.25707 0.0
C1699 C 0.71079 0.95245 0.26551 0.0
C1700 C 0.68008 0.89899 0.23856 0.0
C1701 C 0.68113 0.90221 0.21697 0.0
C1702 C 0.67982 0.91018 0.25315 0.0
C1703 C 0.68063 0.92502 0.24603 0.0
C1704 C 0.68209 0.92857 0.22428 0.0
C1705 C 0.68235 0.91713 0.20999 0.0
C1706 C 0.67838 0.90596 0.2762 0.0
C1707 C 0.68295 0.94425 0.21609 0.0
H1708 H 0.64969 0.94031 0.28879 0.0
H1709 H 0.70288 0.96756 0.29594 0.0
H1710 H 0.64872 0.92161 0.23978 0.0
H1711 H 0.64601 0.90778 0.26084 0.0
H1712 H 0.63641 0.92052 0.26229 0.0
H1713 H 0.72075 0.96375 0.27335 0.0
H1714 H 0.7122 0.94166 0.26997 0.0
H1715 H 0.71258 0.95403 0.24829 0.0
H1716 H 0.67944 0.88763 0.24407 0.0
H1717 H 0.68308 0.91965 0.19332 0.0
H1718 H 0.66665 0.90466 0.28257 0.0
H1719 H 0.6888 0.91617 0.28498 0.0
H1720 H 0.67848 0.89421 0.2792 0.0
H1721 H 0.67118 0.9441 0.21975 0.0
H1722 H 0.68501 0.94564 0.19888 0.0
H1723 H 0.69315 0.95532 0.22396 0.0
C1724 C 0.06533 0.725 0.2919 0.0
C1725 C 0.05048 0.72347 0.29979 0.0
C1726 C 0.07342 0.73518 0.27458 0.0
C1727 C 0.06643 0.74392 0.26468 0.0
C1728 C 0.05118 0.74204 0.27212 0.0
C1729 C 0.04344 0.73192 0.28968 0.0
C1730 C 0.08975 0.73699 0.26728 0.0
C1731 C 0.04323 0.75099 0.26181 0.0
C1732 C 0.09679 0.7834 0.23592 0.0
C1733 C 0.09513 0.77783 0.21514 0.0
C1734 C 0.08726 0.77258 0.25209 0.0
C1735 C 0.07564 0.75577 0.24737 0.0
C1736 C 0.07356 0.75016 0.22632 0.0
C1737 C 0.08343 0.76123 0.21047 0.0
C1738 C 0.09004 0.77902 0.27434 0.0
C1739 C 0.06114 0.73238 0.22063 0.0
H1740 H 0.0709 0.71856 0.29959 0.0
H1741 H 0.03192 0.73073 0.29557 0.0
H1742 H 0.08906 0.73385 0.25039 0.0
H1743 H 0.09981 0.75011 0.26914 0.0
H1744 H 0.09322 0.72889 0.27619 0.0
H1745 H 0.03077 0.74725 0.26847 0.0
H1746 H 0.05132 0.76462 0.26384 0.0
H1747 H 0.04191 0.74844 0.24471 0.0
H1748 H 0.10599 0.79615 0.23967 0.0
H1749 H 0.08203 0.75691 0.1944 0.0
H1750 H 0.09476 0.7723 0.28397 0.0
H1751 H 0.07811 0.77664 0.28141 0.0
H1752 H 0.09909 0.79257 0.27528 0.0
H1753 H 0.06484 0.72387 0.22793 0.0
H1754 H 0.06018 0.73029 0.20342 0.0
H1755 H 0.04866 0.72898 0.22686 0.0
C1756 C 0.26475 0.3167 0.29978 0.0
C1757 C 0.28205 0.32477 0.29755 0.0
C1758 C 0.2546 0.3159 0.28299 0.0
C1759 C 0.26193 0.32274 0.26331 0.0
C1760 C 0.27937 0.33 0.26071 0.0
C1761 C 0.28929 0.33131 0.27805 0.0
C1762 C 0.23616 0.3086 0.28668 0.0
C1763 C 0.28759 0.33676 0.23978 0.0
C1764 C 0.23135 0.31028 0.21796 0.0
C1765 C 0.22947 0.32437 0.21602 0.0
C1766 C 0.24251 0.30987 0.23254 0.0
C1767 C 0.25152 0.32358 0.24612 0.0
C1768 C 0.24999 0.33794 0.24399 0.0
C1769 C 0.23937 0.33832 0.22865 0.0
C1770 C 0.24434 0.29461 0.23372 0.0
C1771 C 0.25909 0.35272 0.25845 0.0
H1772 H 0.25924 0.31182 0.31499 0.0
H1773 H 0.30271 0.33749 0.27639 0.0
H1774 H 0.23273 0.31837 0.28435 0.0
H1775 H 0.22895 0.29856 0.27519 0.0
H1776 H 0.23236 0.30344 0.30274 0.0
H1777 H 0.30076 0.33969 0.23961 0.0
H1778 H 0.28073 0.32766 0.22713 0.0
H1779 H 0.28731 0.34831 0.23613 0.0
H1780 H 0.22379 0.29933 0.20854 0.0
H1781 H 0.23866 0.34956 0.22688 0.0
H1782 H 0.23856 0.28769 0.24838 0.0
H1783 H 0.25769 0.29823 0.23413 0.0
H1784 H 0.23834 0.28608 0.22024 0.0
H1785 H 0.25568 0.34872 0.27498 0.0
H1786 H 0.25618 0.36275 0.25509 0.0
H1787 H 0.27271 0.35796 0.25698 0.0
C1788 C 0.29598 0.36041 0.41042 0.0
C1789 C 0.29239 0.34419 0.40551 0.0
C1790 C 0.28779 0.36339 0.42701 0.0
C1791 C 0.27572 0.34982 0.43892 0.0
C1792 C 0.27267 0.33355 0.43469 0.0
C1793 C 0.28104 0.33094 0.4181 0.0
C1794 C 0.29147 0.38094 0.43117 0.0
C1795 C 0.25992 0.31872 0.44701 0.0
C1796 C 0.25773 0.35479 0.49035 0.0
C1797 C 0.24229 0.35246 0.48371 0.0
C1798 C 0.26914 0.3547 0.47585 0.0
C1799 C 0.26497 0.35221 0.45427 0.0
C1800 C 0.24971 0.35059 0.44745 0.0
C1801 C 0.23861 0.35079 0.46222 0.0
C1802 C 0.28533 0.35657 0.4837 0.0
C1803 C 0.24478 0.34798 0.4246 0.0
H1804 H 0.30479 0.37075 0.40088 0.0
H1805 H 0.27827 0.31837 0.41462 0.0
H1806 H 0.28063 0.38217 0.42641 0.0
H1807 H 0.29352 0.38383 0.44815 0.0
H1808 H 0.30258 0.39029 0.42239 0.0
H1809 H 0.26001 0.30711 0.44292 0.0
H1810 H 0.26222 0.321 0.46407 0.0
H1811 H 0.24731 0.31678 0.44383 0.0
H1812 H 0.26063 0.35607 0.50693 0.0
H1813 H 0.22687 0.34937 0.45694 0.0
H1814 H 0.29592 0.36598 0.47427 0.0
H1815 H 0.28515 0.34458 0.4819 0.0
H1816 H 0.28756 0.3603 0.50047 0.0
H1817 H 0.25471 0.35788 0.41489 0.0
H1818 H 0.23296 0.34795 0.42173 0.0
H1819 H 0.24324 0.3359 0.4192 0.0
C1820 C 0.67538 0.94594 0.41034 0.0
C1821 C 0.66237 0.94824 0.40314 0.0
C1822 C 0.67304 0.93522 0.42712 0.0
C1823 C 0.65736 0.92672 0.4372 0.0
C1824 C 0.64431 0.92937 0.43048 0.0
C1825 C 0.64693 0.94001 0.41343 0.0
C1826 C 0.68724 0.93263 0.43365 0.0
C1827 C 0.62749 0.9207 0.44103 0.0
C1828 C 0.64765 0.88649 0.4645 0.0
C1829 C 0.65217 0.8918 0.48527 0.0
C1830 C 0.64884 0.89764 0.44882 0.0
C1831 C 0.65451 0.91448 0.45407 0.0
C1832 C 0.65852 0.91978 0.47516 0.0
C1833 C 0.65743 0.9084 0.49049 0.0
C1834 C 0.64466 0.89152 0.42649 0.0
C1835 C 0.66438 0.93756 0.48143 0.0
H1836 H 0.68735 0.95219 0.4025 0.0
H1837 H 0.63683 0.94177 0.40806 0.0
H1838 H 0.68997 0.9355 0.45055 0.0
H1839 H 0.68367 0.91939 0.43136 0.0
H1840 H 0.69878 0.94052 0.42457 0.0
H1841 H 0.61904 0.92496 0.43492 0.0
H1842 H 0.62155 0.90707 0.43857 0.0
H1843 H 0.62893 0.92294 0.4582 0.0
H1844 H 0.64378 0.87373 0.46034 0.0
H1845 H 0.66079 0.9125 0.50657 0.0
H1846 H 0.656 0.89798 0.41661 0.0
H1847 H 0.63537 0.89451 0.41999 0.0
H1848 H 0.63964 0.87789 0.42518 0.0
H1849 H 0.67664 0.94592 0.47413 0.0
H1850 H 0.66563 0.93935 0.4987 0.0
H1851 H 0.65557 0.94146 0.47565 0.0
C1852 C 0.05702 0.72909 0.41949 0.0
C1853 C 0.0583 0.71656 0.40873 0.0
C1854 C 0.06797 0.73805 0.43585 0.0
C1855 C 0.08057 0.73444 0.44162 0.0
C1856 C 0.08147 0.72131 0.43149 0.0
C1857 C 0.07032 0.71252 0.41517 0.0
C1858 C 0.06652 0.7519 0.44631 0.0
C1859 C 0.09469 0.71706 0.43724 0.0
C1860 C 0.11968 0.77092 0.46401 0.0
C1861 C 0.11743 0.7679 0.48563 0.0
C1862 C 0.10798 0.75989 0.44955 0.0
C1863 C 0.09364 0.74543 0.45686 0.0
C1864 C 0.09151 0.74202 0.47864 0.0
C1865 C 0.10346 0.7533 0.49279 0.0
C1866 C 0.1108 0.76395 0.42646 0.0
C1867 C 0.07638 0.72673 0.48702 0.0
H1868 H 0.0477 0.73224 0.41478 0.0
H1869 H 0.07139 0.70282 0.40703 0.0
H1870 H 0.06616 0.7505 0.4636 0.0
H1871 H 0.07761 0.76406 0.44246 0.0
H1872 H 0.05522 0.75222 0.44126 0.0
H1873 H 0.09269 0.70548 0.42944 0.0
H1874 H 0.10709 0.72741 0.43256 0.0
H1875 H 0.09496 0.71552 0.45445 0.0
H1876 H 0.13061 0.78202 0.45836 0.0
H1877 H 0.10161 0.75094 0.50949 0.0
H1878 H 0.10073 0.76587 0.4202 0.0
H1879 H 0.11038 0.75339 0.4177 0.0
H1880 H 0.12294 0.77532 0.4233 0.0
H1881 H 0.06506 0.72753 0.48369 0.0
H1882 H 0.07714 0.72527 0.50419 0.0
H1883 H 0.07485 0.71542 0.47903 0.0
C1884 C 0.33822 0.05703 0.75581 0.0
C1885 C 0.3272 0.0517 0.73878 0.0
C1886 C 0.33625 0.06562 0.7727 0.0
C1887 C 0.32323 0.06941 0.77226 0.0
C1888 C 0.31185 0.06375 0.7553 0.0
C1889 C 0.31384 0.05476 0.73889 0.0
C1890 C 0.34837 0.07103 0.79075 0.0
C1891 C 0.29804 0.06786 0.75401 0.0
C1892 C 0.31147 0.08375 0.82219 0.0
C1893 C 0.32096 0.10108 0.8202 0.0
C1894 C 0.31217 0.07323 0.80681 0.0
C1895 C 0.32226 0.08027 0.78881 0.0
C1896 C 0.33166 0.09781 0.78665 0.0
C1897 C 0.33106 0.10799 0.80251 0.0
C1898 C 0.30231 0.05462 0.80993 0.0
C1899 C 0.34228 0.10582 0.76751 0.0
H1900 H 0.34848 0.05455 0.75587 0.0
H1901 H 0.30537 0.05076 0.72567 0.0
H1902 H 0.35615 0.0848 0.79091 0.0
H1903 H 0.34156 0.06723 0.80587 0.0
H1904 H 0.35673 0.06568 0.78972 0.0
H1905 H 0.28976 0.06186 0.74034 0.0
H1906 H 0.29041 0.06385 0.7685 0.0
H1907 H 0.30347 0.08154 0.75271 0.0
H1908 H 0.3037 0.07846 0.83594 0.0
H1909 H 0.33825 0.12142 0.80093 0.0
H1910 H 0.31081 0.04943 0.80979 0.0
H1911 H 0.2934 0.0487 0.79684 0.0
H1912 H 0.29527 0.05115 0.82493 0.0
H1913 H 0.35215 0.10243 0.76634 0.0
H1914 H 0.34828 0.11961 0.76785 0.0
H1915 H 0.33457 0.10115 0.75313 0.0
C1916 C 0.94478 0.28009 0.7503 0.0
C1917 C 0.95618 0.27743 0.73885 0.0
C1918 C 0.93595 0.26986 0.76729 0.0
C1919 C 0.93852 0.25655 0.77297 0.0
C1920 C 0.95048 0.25418 0.76204 0.0
C1921 C 0.9592 0.26467 0.74514 0.0
C1922 C 0.92338 0.27287 0.77861 0.0
C1923 C 0.95357 0.24014 0.76762 0.0
C1924 C 0.92103 0.23558 0.82558 0.0
C1925 C 0.90562 0.22209 0.81958 0.0
C1926 C 0.93208 0.24674 0.81056 0.0
C1927 C 0.92761 0.24431 0.78908 0.0
C1928 C 0.91227 0.23046 0.78293 0.0
C1929 C 0.9015 0.21954 0.79822 0.0
C1930 C 0.94833 0.26136 0.81772 0.0
C1931 C 0.90705 0.22734 0.76019 0.0
H1932 H 0.94244 0.29 0.74572 0.0
H1933 H 0.96801 0.26252 0.73645 0.0
H1934 H 0.91066 0.26231 0.7757 0.0
H1935 H 0.92554 0.27357 0.79577 0.0
H1936 H 0.92384 0.28453 0.77343 0.0
H1937 H 0.96433 0.2409 0.75895 0.0
H1938 H 0.95589 0.2402 0.78469 0.0
H1939 H 0.94236 0.22805 0.76389 0.0
H1940 H 0.92425 0.23766 0.84206 0.0
H1941 H 0.88976 0.20896 0.79343 0.0
H1942 H 0.94844 0.27313 0.81419 0.0
H1943 H 0.95887 0.26169 0.80905 0.0
H1944 H 0.95042 0.26094 0.83479 0.0
H1945 H 0.90586 0.23788 0.75399 0.0
H1946 H 0.89499 0.21567 0.75795 0.0
H1947 H 0.91669 0.22658 0.7507 0.0
C1948 C 0.72215 0.66521 0.75 0.0
C1949 C 0.72333 0.67917 0.73985 0.0
C1950 C 0.73281 0.66697 0.76662 0.0
C1951 C 0.74499 0.68309 0.77328 0.0
C1952 C 0.74571 0.69724 0.76382 0.0
C1953 C 0.73487 0.69512 0.74722 0.0
C1954 C 0.73158 0.65155 0.77634 0.0
C1955 C 0.75848 0.71464 0.77053 0.0
C1956 C 0.76727 0.68575 0.82449 0.0
C1957 C 0.78141 0.68549 0.81716 0.0
C1958 C 0.75548 0.68549 0.8104 0.0
C1959 C 0.75798 0.68503 0.78854 0.0
C1960 C 0.77257 0.68546 0.78112 0.0
C1961 C 0.78409 0.68569 0.7955 0.0
C1962 C 0.74009 0.6851 0.8189 0.0
C1963 C 0.7758 0.68511 0.75794 0.0
H1964 H 0.7132 0.65283 0.74458 0.0
H1965 H 0.73584 0.706 0.73957 0.0
H1966 H 0.74289 0.65087 0.77244 0.0
H1967 H 0.73093 0.65209 0.79367 0.0
H1968 H 0.72051 0.63997 0.77073 0.0
H1969 H 0.75619 0.72423 0.76336 0.0
H1970 H 0.75849 0.71584 0.78783 0.0
H1971 H 0.77107 0.71721 0.76582 0.0
H1972 H 0.76512 0.68553 0.84123 0.0
H1973 H 0.79516 0.68581 0.78977 0.0
H1974 H 0.72899 0.67289 0.81527 0.0
H1975 H 0.73827 0.69481 0.81126 0.0
H1976 H 0.74072 0.68703 0.83614 0.0
H1977 H 0.76606 0.67322 0.75104 0.0
H1978 H 0.78815 0.68636 0.75475 0.0
H1979 H 0.77514 0.69533 0.74981 0.0
C1980 C 0.71121 0.65103 0.62046 0.0
C1981 C 0.71795 0.6665 0.6306 0.0
C1982 C 0.71946 0.64864 0.60346 0.0
C1983 C 0.73491 0.66198 0.59658 0.0
C1984 C 0.74155 0.67774 0.60639 0.0
C1985 C 0.73296 0.67982 0.62318 0.0
C1986 C 0.71189 0.63171 0.59324 0.0
C1987 C 0.75805 0.69225 0.59965 0.0
C1988 C 0.76598 0.65233 0.57055 0.0
C1989 C 0.76483 0.65581 0.54943 0.0
C1990 C 0.75613 0.65405 0.58596 0.0
C1991 C 0.74472 0.65926 0.58011 0.0
C1992 C 0.74324 0.66248 0.55875 0.0
C1993 C 0.7534 0.66082 0.54367 0.0
C1994 C 0.75825 0.65069 0.60858 0.0
C1995 C 0.73108 0.66787 0.55189 0.0
H1996 H 0.69957 0.64069 0.62598 0.0
H1997 H 0.7383 0.69183 0.63088 0.0
H1998 H 0.71122 0.63287 0.576 0.0
H1999 H 0.71988 0.62616 0.59618 0.0
H2000 H 0.69919 0.62305 0.59925 0.0
H2001 H 0.76111 0.70389 0.60819 0.0
H2002 H 0.76812 0.68933 0.60253 0.0
H2003 H 0.75794 0.69449 0.58259 0.0
H2004 H 0.77496 0.64869 0.57514 0.0
H2005 H 0.75239 0.6634 0.52733 0.0
H2006 H 0.74614 0.64113 0.6152 0.0
H2007 H 0.76255 0.6622 0.61797 0.0
H2008 H 0.76737 0.64633 0.61045 0.0
H2009 H 0.71836 0.65879 0.55739 0.0
H2010 H 0.73081 0.66904 0.53458 0.0
H2011 H 0.73446 0.68006 0.55907 0.0
C2012 C 0.33609 0.05191 0.61378 0.0
C2013 C 0.34712 0.05829 0.63075 0.0
C2014 C 0.33787 0.06185 0.59631 0.0
C2015 C 0.35069 0.07872 0.59609 0.0
C2016 C 0.36219 0.08508 0.6129 0.0
C2017 C 0.36039 0.07471 0.62993 0.0
C2018 C 0.32564 0.05446 0.57845 0.0
C2019 C 0.37581 0.10309 0.61349 0.0
C2020 C 0.36148 0.10393 0.54561 0.0
C2021 C 0.35177 0.11156 0.54758 0.0
C2022 C 0.3611 0.09298 0.56112 0.0
C2023 C 0.35114 0.09004 0.57924 0.0
C2024 C 0.34145 0.0979 0.58132 0.0
C2025 C 0.34174 0.1084 0.56533 0.0
C2026 C 0.37124 0.0845 0.55809 0.0
C2027 C 0.33094 0.09538 0.60056 0.0
H2028 H 0.32589 0.03917 0.6143 0.0
H2029 H 0.36887 0.07971 0.6431 0.0
H2030 H 0.31744 0.06 0.57818 0.0
H2031 H 0.33232 0.05739 0.56322 0.0
H2032 H 0.3177 0.04073 0.57984 0.0
H2033 H 0.3844 0.10581 0.62692 0.0
H2034 H 0.38314 0.10649 0.59876 0.0
H2035 H 0.37018 0.11118 0.61476 0.0
H2036 H 0.36921 0.1064 0.53182 0.0
H2037 H 0.3344 0.1145 0.56692 0.0
H2038 H 0.36301 0.0708 0.55879 0.0
H2039 H 0.38045 0.08802 0.57093 0.0
H2040 H 0.37798 0.08778 0.54288 0.0
H2041 H 0.32136 0.08206 0.60212 0.0
H2042 H 0.32459 0.10285 0.60005 0.0
H2043 H 0.33883 0.0989 0.61482 0.0
C2044 C 0.94007 0.29131 0.62023 0.0
C2045 C 0.949 0.2845 0.62963 0.0
C2046 C 0.9294 0.28338 0.60317 0.0
C2047 C 0.92749 0.26818 0.59548 0.0
C2048 C 0.9368 0.26148 0.60453 0.0
C2049 C 0.94749 0.26975 0.62139 0.0
C2050 C 0.91983 0.29101 0.59377 0.0
C2051 C 0.93502 0.24523 0.59691 0.0
C2052 C 0.88688 0.2372 0.56936 0.0
C2053 C 0.89143 0.23883 0.54815 0.0
C2054 C 0.89842 0.2469 0.58483 0.0
C2055 C 0.91493 0.25863 0.57896 0.0
C2056 C 0.91953 0.26061 0.55751 0.0
C2057 C 0.90775 0.25058 0.54236 0.0
C2058 C 0.89305 0.24424 0.60753 0.0
C2059 C 0.93695 0.27313 0.55063 0.0
H2060 H 0.94122 0.30275 0.62639 0.0
H2061 H 0.95432 0.26435 0.62849 0.0
H2062 H 0.92154 0.29207 0.57652 0.0
H2063 H 0.90634 0.28283 0.59683 0.0
H2064 H 0.92375 0.30354 0.60033 0.0
H2065 H 0.94375 0.24212 0.60492 0.0
H2066 H 0.92212 0.23499 0.59971 0.0
H2067 H 0.93731 0.24578 0.57978 0.0
H2068 H 0.87435 0.22796 0.57396 0.0
H2069 H 0.91127 0.25196 0.52596 0.0
H2070 H 0.89548 0.25616 0.6147 0.0
H2071 H 0.90041 0.23986 0.61642 0.0
H2072 H 0.87963 0.23497 0.60942 0.0
H2073 H 0.94043 0.28566 0.55675 0.0
H2074 H 0.93828 0.27383 0.53329 0.0
H2075 H 0.94593 0.26974 0.55721 0.0
C2076 C 0.33228 0.2756 0.61861 0.0
C2077 C 0.34598 0.28761 0.63002 0.0
C2078 C 0.33436 0.26677 0.60211 0.0
C2079 C 0.35053 0.26999 0.59681 0.0
C2080 C 0.36448 0.2826 0.60761 0.0
C2081 C 0.36205 0.29126 0.62409 0.0
C2082 C 0.31914 0.25347 0.59095 0.0
C2083 C 0.38193 0.28645 0.60236 0.0
C2084 C 0.35248 0.23338 0.57331 0.0
C2085 C 0.35379 0.23693 0.55179 0.0
C2086 C 0.35185 0.24426 0.5881 0.0
C2087 C 0.35261 0.25914 0.58126 0.0
C2088 C 0.35446 0.26309 0.55962 0.0
C2089 C 0.35505 0.25193 0.54512 0.0
C2090 C 0.34996 0.2396 0.61103 0.0
C2091 C 0.35533 0.27884 0.55173 0.0
H2092 H 0.31982 0.27274 0.62292 0.0
H2093 H 0.37272 0.30056 0.63273 0.0
H2094 H 0.32063 0.25531 0.57373 0.0
H2095 H 0.31766 0.24106 0.59437 0.0
H2096 H 0.30759 0.25338 0.59579 0.0
H2097 H 0.39151 0.29767 0.61074 0.0
H2098 H 0.38347 0.27572 0.60673 0.0
H2099 H 0.38419 0.28841 0.58525 0.0
H2100 H 0.35183 0.22197 0.57861 0.0
H2101 H 0.35599 0.25471 0.52851 0.0
H2102 H 0.33797 0.23791 0.61702 0.0
H2103 H 0.36004 0.24975 0.62028 0.0
H2104 H 0.35026 0.22793 0.61384 0.0
H2105 H 0.34332 0.27836 0.55478 0.0
H2106 H 0.35801 0.2807 0.53466 0.0
H2107 H 0.36511 0.28979 0.56028 0.0
C2108 C 0.71522 0.07301 0.62894 0.0
C2109 C 0.71838 0.06014 0.63411 0.0
C2110 C 0.72343 0.08376 0.61204 0.0
C2111 C 0.73506 0.08156 0.60003 0.0
C2112 C 0.73778 0.06819 0.60465 0.0
C2113 C 0.72943 0.05766 0.62159 0.0
C2114 C 0.72014 0.09784 0.60754 0.0
C2115 C 0.75005 0.06538 0.59222 0.0
C2116 C 0.75146 0.1028 0.54733 0.0
C2117 C 0.76713 0.11605 0.55297 0.0
C2118 C 0.74058 0.09174 0.56256 0.0
C2119 C 0.74551 0.09402 0.58388 0.0
C2120 C 0.76107 0.10771 0.5897 0.0
C2121 C 0.77164 0.11855 0.57421 0.0
C2122 C 0.72407 0.07732 0.55576 0.0
C2123 C 0.7668 0.11065 0.61225 0.0
H2124 H 0.70666 0.07499 0.63845 0.0
H2125 H 0.73188 0.04768 0.62529 0.0
H2126 H 0.73142 0.10989 0.61125 0.0
H2127 H 0.71742 0.09806 0.59066 0.0
H2128 H 0.70958 0.09687 0.6169 0.0
H2129 H 0.74984 0.05372 0.59679 0.0
H2130 H 0.74734 0.06482 0.57521 0.0
H2131 H 0.76282 0.07598 0.5947 0.0
H2132 H 0.74792 0.10076 0.53094 0.0
H2133 H 0.78358 0.12898 0.57874 0.0
H2134 H 0.71383 0.07683 0.56533 0.0
H2135 H 0.72402 0.06546 0.55834 0.0
H2136 H 0.72145 0.07811 0.53894 0.0
H2137 H 0.75736 0.11124 0.62235 0.0
H2138 H 0.77887 0.12234 0.6143 0.0
H2139 H 0.76821 0.1001 0.61789 0.0
C2140 C 0.95052 0.66103 0.61187 0.0
C2141 C 0.94424 0.6554 0.63203 0.0
C2142 C 0.93985 0.65912 0.59518 0.0
C2143 C 0.92258 0.65209 0.59901 0.0
C2144 C 0.91613 0.6459 0.61925 0.0
C2145 C 0.92704 0.64736 0.63544 0.0
C2146 C 0.94715 0.66526 0.57368 0.0
C2147 C 0.8979 0.63881 0.62418 0.0
C2148 C 0.89985 0.66802 0.56515 0.0
C2149 C 0.88979 0.65418 0.55244 0.0
C2150 C 0.91038 0.66738 0.58043 0.0
C2151 C 0.91157 0.65282 0.58253 0.0
C2152 C 0.90213 0.63908 0.56916 0.0
C2153 C 0.89114 0.6398 0.55457 0.0
C2154 C 0.92 0.68225 0.59461 0.0
C2155 C 0.90351 0.62356 0.5704 0.0
H2156 H 0.96385 0.66719 0.60924 0.0
H2157 H 0.92223 0.64319 0.65112 0.0
H2158 H 0.93963 0.65591 0.56155 0.0
H2159 H 0.94693 0.67683 0.57001 0.0
H2160 H 0.96022 0.66795 0.57258 0.0
H2161 H 0.8947 0.63354 0.64026 0.0
H2162 H 0.89463 0.64876 0.62277 0.0
H2163 H 0.8901 0.62892 0.6128 0.0
H2164 H 0.89949 0.67944 0.56332 0.0
H2165 H 0.88339 0.62891 0.54513 0.0
H2166 H 0.93356 0.68741 0.59233 0.0
H2167 H 0.91717 0.67839 0.61126 0.0
H2168 H 0.91706 0.6923 0.59163 0.0
H2169 H 0.91677 0.62685 0.5695 0.0
H2170 H 0.89652 0.61459 0.55765 0.0
H2171 H 0.89861 0.61729 0.58567 0.0
C2172 C 0.95146 0.69216 0.73345 0.0
C2173 C 0.96071 0.68415 0.73635 0.0
C2174 C 0.94248 0.69382 0.75012 0.0
C2175 C 0.9433 0.68786 0.77028 0.0
C2176 C 0.95379 0.68103 0.77359 0.0
C2177 C 0.96205 0.67888 0.75644 0.0
C2178 C 0.93106 0.70069 0.74574 0.0
C2179 C 0.95559 0.67518 0.79498 0.0
C2180 C 0.92352 0.69931 0.81498 0.0
C2181 C 0.90797 0.6847 0.81692 0.0
C2182 C 0.93546 0.70035 0.80047 0.0
C2183 C 0.93156 0.68671 0.78705 0.0
C2184 C 0.91607 0.67187 0.78916 0.0
C2185 C 0.9047 0.67093 0.80436 0.0
C2186 C 0.95212 0.71614 0.79926 0.0
C2187 C 0.91125 0.65708 0.77497 0.0
H2188 H 0.9503 0.69605 0.71782 0.0
H2189 H 0.96929 0.67273 0.75865 0.0
H2190 H 0.91793 0.69058 0.74734 0.0
H2191 H 0.9331 0.71048 0.75728 0.0
H2192 H 0.93286 0.70601 0.72972 0.0
H2193 H 0.96638 0.67309 0.7957 0.0
H2194 H 0.95713 0.6844 0.80718 0.0
H2195 H 0.94418 0.66331 0.79884 0.0
H2196 H 0.92627 0.71011 0.8244 0.0
H2197 H 0.89309 0.65934 0.80615 0.0
H2198 H 0.95309 0.72266 0.78432 0.0
H2199 H 0.96233 0.71318 0.79944 0.0
H2200 H 0.954 0.72476 0.81243 0.0
H2201 H 0.91206 0.66089 0.75832 0.0
H2202 H 0.89842 0.64674 0.77805 0.0
H2203 H 0.91999 0.65232 0.77709 0.0
C2204 C 0.34137 0.27724 0.74626 0.0
C2205 C 0.32824 0.27892 0.73807 0.0
C2206 C 0.33886 0.26654 0.76312 0.0
C2207 C 0.32287 0.25742 0.77229 0.0
C2208 C 0.30967 0.25943 0.76458 0.0
C2209 C 0.31247 0.27007 0.74745 0.0
C2210 C 0.35325 0.26463 0.77069 0.0
C2211 C 0.29251 0.2501 0.77416 0.0
C2212 C 0.31361 0.21732 0.79962 0.0
C2213 C 0.31709 0.22241 0.82061 0.0
C2214 C 0.31504 0.22849 0.78384 0.0
C2215 C 0.3199 0.24514 0.78918 0.0
C2216 C 0.32294 0.25023 0.81044 0.0
C2217 C 0.32164 0.23883 0.82589 0.0
C2218 C 0.31194 0.22262 0.76134 0.0
C2219 C 0.32791 0.26779 0.8168 0.0
H2220 H 0.35359 0.28398 0.73913 0.0
H2221 H 0.30227 0.27135 0.74131 0.0
H2222 H 0.35525 0.26735 0.78771 0.0
H2223 H 0.35032 0.25157 0.76841 0.0
H2224 H 0.36502 0.27298 0.76228 0.0
H2225 H 0.28391 0.25395 0.7674 0.0
H2226 H 0.28714 0.23654 0.77155 0.0
H2227 H 0.29324 0.25216 0.79135 0.0
H2228 H 0.31029 0.2047 0.79542 0.0
H2229 H 0.32421 0.24276 0.84213 0.0
H2230 H 0.32358 0.22963 0.75213 0.0
H2231 H 0.3025 0.2251 0.75418 0.0
H2232 H 0.30758 0.20911 0.7599 0.0
H2233 H 0.34029 0.27659 0.81011 0.0
H2234 H 0.32852 0.2694 0.8341 0.0
H2235 H 0.31892 0.27125 0.81044 0.0
C2236 C 0.72046 0.05493 0.75936 0.0
C2237 C 0.72657 0.04968 0.74264 0.0
C2238 C 0.73059 0.06342 0.77658 0.0
C2239 C 0.74739 0.06721 0.77678 0.0
C2240 C 0.7535 0.06154 0.76019 0.0
C2241 C 0.74292 0.05263 0.74345 0.0
C2242 C 0.72347 0.06882 0.79422 0.0
C2243 C 0.77143 0.06564 0.75956 0.0
C2244 C 0.77773 0.10608 0.80675 0.0
C2245 C 0.78083 0.09934 0.82465 0.0
C2246 C 0.76703 0.09573 0.79097 0.0
C2247 C 0.7589 0.07822 0.79343 0.0
C2248 C 0.76178 0.07136 0.81171 0.0
C2249 C 0.77294 0.08203 0.827 0.0
C2250 C 0.7646 0.10356 0.77154 0.0
C2251 C 0.75303 0.05279 0.81515 0.0
H2252 H 0.70777 0.05255 0.75886 0.0
H2253 H 0.74772 0.0487 0.73048 0.0
H2254 H 0.72633 0.06522 0.80957 0.0
H2255 H 0.72927 0.08258 0.79417 0.0
H2256 H 0.70977 0.0633 0.79286 0.0
H2257 H 0.77397 0.05951 0.74623 0.0
H2258 H 0.77966 0.07931 0.75809 0.0
H2259 H 0.77479 0.06179 0.77436 0.0
H2260 H 0.78402 0.11948 0.80489 0.0
H2261 H 0.77536 0.07688 0.84091 0.0
H2262 H 0.75133 0.10004 0.77001 0.0
H2263 H 0.76792 0.09884 0.7574 0.0
H2264 H 0.77226 0.11736 0.77176 0.0
H2265 H 0.73935 0.04756 0.81449 0.0
H2266 H 0.75626 0.04947 0.83047 0.0
H2267 H 0.75635 0.04676 0.80249 0.0
C2268 C 0.0668 0.36799 0.04432 0.0
C2269 C 0.05012 0.3563 0.04003 0.0
C2270 C 0.07735 0.36328 0.05414 0.0
C2271 C 0.07112 0.34644 0.05982 0.0
C2272 C 0.05445 0.33445 0.0549 0.0
C2273 C 0.04414 0.33953 0.04507 0.0
C2274 C 0.09504 0.37646 0.05907 0.0
C2275 C 0.04738 0.31636 0.06058 0.0
C2276 C 0.10334 0.3338 0.07279 0.0
C2277 C 0.10401 0.33498 0.09476 0.0
C2278 C 0.09239 0.33705 0.06122 0.0
C2279 C 0.08186 0.34164 0.07185 0.0
C2280 C 0.08222 0.34251 0.09402 0.0
C2281 C 0.09324 0.33914 0.10519 0.0
C2282 C 0.09238 0.33598 0.0376 0.0
C2283 C 0.07118 0.34734 0.10597 0.0
H2284 H 0.07157 0.38097 0.04045 0.0
H2285 H 0.03127 0.3304 0.04183 0.0
H2286 H 0.09688 0.3776 0.07631 0.0
H2287 H 0.10388 0.37285 0.05255 0.0
H2288 H 0.09822 0.38884 0.05268 0.0
H2289 H 0.03458 0.30842 0.05441 0.0
H2290 H 0.05546 0.31168 0.05438 0.0
H2291 H 0.04704 0.31504 0.07789 0.0
H2292 H 0.11172 0.33076 0.06457 0.0
H2293 H 0.09345 0.3398 0.12216 0.0
H2294 H 0.09679 0.34849 0.03077 0.0
H2295 H 0.07955 0.32774 0.03177 0.0
H2296 H 0.10049 0.33118 0.0318 0.0
H2297 H 0.07433 0.36017 0.10165 0.0
H2298 H 0.07249 0.34682 0.12322 0.0
H2299 H 0.05796 0.33895 0.1017 0.0
C2300 C 0.63831 0.6968 0.04738 0.0
C2301 C 0.64981 0.69282 0.03871 0.0
C2302 C 0.64354 0.71229 0.05688 0.0
C2303 C 0.6607 0.72427 0.05748 0.0
C2304 C 0.67237 0.72055 0.04822 0.0
C2305 C 0.66679 0.70481 0.03908 0.0
C2306 C 0.63069 0.71567 0.06675 0.0
C2307 C 0.69074 0.7331 0.04824 0.0
C2308 C 0.67013 0.76846 0.06841 0.0
C2309 C 0.67343 0.76992 0.08999 0.0
C2310 C 0.66672 0.75396 0.05741 0.0
C2311 C 0.66632 0.74048 0.06833 0.0
C2312 C 0.67008 0.74206 0.09003 0.0
C2313 C 0.67371 0.75682 0.10056 0.0
C2314 C 0.66307 0.75288 0.03422 0.0
C2315 C 0.66955 0.72791 0.10232 0.0
H2316 H 0.62516 0.68761 0.04728 0.0
H2317 H 0.67575 0.70184 0.03238 0.0
H2318 H 0.63326 0.71814 0.08376 0.0
H2319 H 0.63141 0.72694 0.05971 0.0
H2320 H 0.61782 0.7051 0.06478 0.0
H2321 H 0.69809 0.72865 0.03936 0.0
H2322 H 0.69295 0.74499 0.04128 0.0
H2323 H 0.6954 0.73579 0.06459 0.0
H2324 H 0.67009 0.77866 0.06016 0.0
H2325 H 0.67611 0.75785 0.11728 0.0
H2326 H 0.64986 0.74343 0.03137 0.0
H2327 H 0.67083 0.74884 0.02557 0.0
H2328 H 0.6654 0.76496 0.02769 0.0
H2329 H 0.65666 0.71718 0.10242 0.0
H2330 H 0.67369 0.73145 0.1188 0.0
H2331 H 0.67757 0.72366 0.09477 0.0
C2332 C 0.30401 0.93716 0.04534 0.0
C2333 C 0.30848 0.95364 0.04051 0.0
C2334 C 0.28872 0.92634 0.0549 0.0
C2335 C 0.27757 0.93211 0.05981 0.0
C2336 C 0.28177 0.94857 0.05443 0.0
C2337 C 0.29718 0.95915 0.04483 0.0
C2338 C 0.28471 0.90886 0.06029 0.0
C2339 C 0.27018 0.95515 0.05936 0.0
C2340 C 0.23282 0.89893 0.0714 0.0
C2341 C 0.2328 0.89833 0.09339 0.0
C2342 C 0.24716 0.91015 0.06026 0.0
C2343 C 0.26186 0.92104 0.07135 0.0
C2344 C 0.26182 0.92074 0.09355 0.0
C2345 C 0.24731 0.9094 0.10429 0.0
C2346 C 0.24672 0.91005 0.0366 0.0
C2347 C 0.27721 0.93219 0.10598 0.0
H2348 H 0.31262 0.93275 0.04201 0.0
H2349 H 0.30054 0.97186 0.04117 0.0
H2350 H 0.28361 0.90714 0.07754 0.0
H2351 H 0.27255 0.89968 0.05341 0.0
H2352 H 0.29437 0.90606 0.05456 0.0
H2353 H 0.27483 0.9679 0.05311 0.0
H2354 H 0.25767 0.94678 0.0527 0.0
H2355 H 0.26867 0.95543 0.07659 0.0
H2356 H 0.22173 0.89031 0.06285 0.0
H2357 H 0.24731 0.90921 0.12128 0.0
H2358 H 0.25535 0.90606 0.03036 0.0
H2359 H 0.25101 0.92279 0.0306 0.0
H2360 H 0.23406 0.90156 0.03036 0.0
H2361 H 0.28727 0.9294 0.10235 0.0
H2362 H 0.27492 0.93092 0.12316 0.0
H2363 H 0.28177 0.94532 0.10149 0.0
C2364 C 0.33938 0.04387 0.99621 0.0
C2365 C 0.35609 0.04784 0.99551 0.0
C2366 C 0.33431 0.05446 0.98716 0.0
C2367 C 0.34619 0.06923 0.97694 0.0
C2368 C 0.36309 0.07338 0.97644 0.0
C2369 C 0.36784 0.06271 0.98584 0.0
C2370 C 0.31622 0.04974 0.98828 0.0
C2371 C 0.37613 0.08891 0.96553 0.0
C2372 C 0.33251 0.0886 0.93447 0.0
C2373 C 0.33374 0.10252 0.94485 0.0
C2374 C 0.33619 0.07747 0.94486 0.0
C2375 C 0.34099 0.08019 0.96622 0.0
C2376 C 0.34177 0.09396 0.97693 0.0
C2377 C 0.33826 0.10502 0.96608 0.0
C2378 C 0.33544 0.0631 0.93277 0.0
C2379 C 0.34661 0.09717 0.99977 0.0
H2380 H 0.33024 0.03242 0.00368 0.0
H2381 H 0.38077 0.06587 0.98513 0.0
H2382 H 0.31503 0.06007 0.99524 0.0
H2383 H 0.31092 0.04758 0.97225 0.0
H2384 H 0.30871 0.03832 0.99774 0.0
H2385 H 0.38877 0.09046 0.96677 0.0
H2386 H 0.37294 0.08844 0.94869 0.0
H2387 H 0.37642 0.10006 0.97235 0.0
H2388 H 0.32916 0.0867 0.91802 0.0
H2389 H 0.33903 0.11566 0.97421 0.0
H2390 H 0.32716 0.05119 0.94087 0.0
H2391 H 0.34802 0.06446 0.93208 0.0
H2392 H 0.33086 0.06233 0.9165 0.0
H2393 H 0.33864 0.08588 0.00919 0.0
H2394 H 0.34552 0.10773 0.00619 0.0
H2395 H 0.35966 0.10001 1.00172 0.0
C2396 C 0.96498 0.29946 0.9944 0.0
C2397 C 0.95863 0.30987 0.99993 0.0
C2398 C 0.95486 0.28402 0.98455 0.0
C2399 C 0.93801 0.27889 0.98015 0.0
C2400 C 0.93139 0.28909 0.98639 0.0
C2401 C 0.94176 0.30441 0.99619 0.0
C2402 C 0.96235 0.27347 0.97824 0.0
C2403 C 0.91348 0.28407 0.98207 0.0
C2404 C 0.91573 0.24948 0.93475 0.0
C2405 C 0.90546 0.23442 0.94514 0.0
C2406 C 0.92667 0.26392 0.94593 0.0
C2407 C 0.92743 0.26332 0.96806 0.0
C2408 C 0.91743 0.24807 0.97862 0.0
C2409 C 0.90655 0.23382 0.96705 0.0
C2410 C 0.93715 0.27991 0.93405 0.0
C2411 C 0.91787 0.24692 1.00219 0.0
H2412 H 0.97799 0.30356 0.99722 0.0
H2413 H 0.9367 0.31233 1.00045 0.0
H2414 H 0.95465 0.26061 0.9843 0.0
H2415 H 0.9625 0.27262 0.96089 0.0
H2416 H 0.97528 0.27862 0.9841 0.0
H2417 H 0.91002 0.29295 0.98892 0.0
H2418 H 0.91135 0.28342 0.9649 0.0
H2419 H 0.90504 0.2715 0.98854 0.0
H2420 H 0.91519 0.25 0.91782 0.0
H2421 H 0.89855 0.2223 0.97525 0.0
H2422 H 0.95049 0.2851 0.93796 0.0
H2423 H 0.93366 0.28929 0.93878 0.0
H2424 H 0.93563 0.27814 0.9168 0.0
H2425 H 0.93086 0.25187 0.00763 0.0
H2426 H 0.9102 0.23393 0.0079 0.0
H2427 H 0.91318 0.25466 0.00948 0.0
C2428 C 0.70014 0.65993 0.97896 0.0
C2429 C 0.69531 0.64964 0.99665 0.0
C2430 C 0.71501 0.6641 0.96833 0.0
C2431 C 0.72556 0.65837 0.97614 0.0
C2432 C 0.72117 0.64883 0.9948 0.0
C2433 C 0.70588 0.64424 0.00455 0.0
C2434 C 0.71889 0.67374 0.94808 0.0
C2435 C 0.73237 0.64305 0.00414 0.0
C2436 C 0.75363 0.65161 0.93877 0.0
C2437 C 0.76892 0.6665 0.94083 0.0
C2438 C 0.7394 0.64904 0.94974 0.0
C2439 C 0.74053 0.66128 0.96399 0.0
C2440 C 0.75592 0.67614 0.96664 0.0
C2441 C 0.76978 0.67874 0.95471 0.0
C2442 C 0.72311 0.63318 0.946 0.0
C2443 C 0.75779 0.68925 0.9822 0.0
H2444 H 0.6918 0.66388 0.9727 0.0
H2445 H 0.70211 0.63629 0.01828 0.0
H2446 H 0.73155 0.68478 0.9486 0.0
H2447 H 0.71867 0.66578 0.93492 0.0
H2448 H 0.70983 0.67795 0.94466 0.0
H2449 H 0.72823 0.63767 0.02004 0.0
H2450 H 0.7325 0.63344 0.9939 0.0
H2451 H 0.74535 0.65357 0.00515 0.0
H2452 H 0.75268 0.64178 0.92869 0.0
H2453 H 0.78127 0.69047 0.95628 0.0
H2454 H 0.71325 0.63615 0.9419 0.0
H2455 H 0.7191 0.62561 0.96052 0.0
H2456 H 0.72401 0.62552 0.93321 0.0
H2457 H 0.74972 0.6944 0.97765 0.0
H2458 H 0.77082 0.69967 0.98331 0.0
H2459 H 0.75369 0.68361 0.99797 0.0
C2460 C 0.9418 0.64369 0.00383 0.0
C2461 C 0.95772 0.64897 0.99577 0.0
C2462 C 0.93105 0.64817 0.99403 0.0
C2463 C 0.93608 0.65748 0.97518 0.0
C2464 C 0.95229 0.66306 0.96719 0.0
C2465 C 0.96304 0.65901 0.97785 0.0
C2466 C 0.91415 0.64256 0.00355 0.0
C2467 C 0.95793 0.67247 0.94675 0.0
C2468 C 0.9012 0.65081 0.93811 0.0
C2469 C 0.90098 0.66582 0.94006 0.0
C2470 C 0.9128 0.64815 0.94905 0.0
C2471 C 0.92402 0.66043 0.96313 0.0
C2472 C 0.92368 0.67541 0.96564 0.0
C2473 C 0.91247 0.67808 0.95376 0.0
C2474 C 0.91305 0.63216 0.94545 0.0
C2475 C 0.93508 0.68859 0.98101 0.0
H2476 H 0.93772 0.63593 0.01773 0.0
H2477 H 0.97528 0.66287 0.97146 0.0
H2478 H 0.91179 0.65316 0.00453 0.0
H2479 H 0.90433 0.63294 0.99344 0.0
H2480 H 0.91296 0.63726 0.01949 0.0
H2481 H 0.97113 0.67648 0.94311 0.0
H2482 H 0.95002 0.66442 0.93379 0.0
H2483 H 0.95647 0.68362 0.94719 0.0
H2484 H 0.89223 0.64097 0.92814 0.0
H2485 H 0.91286 0.68991 0.95521 0.0
H2486 H 0.90956 0.62473 0.96008 0.0
H2487 H 0.9258 0.63497 0.94116 0.0
H2488 H 0.90435 0.62443 0.93284 0.0
H2489 H 0.9336 0.68305 0.99683 0.0
H2490 H 0.93256 0.69909 0.98209 0.0
H2491 H 0.94823 0.6936 0.97627 0.0
C2492 C 0.36775 0.30785 0.9867 0.0
C2493 C 0.35659 0.31189 0.99627 0.0
C2494 C 0.36218 0.29226 0.9773 0.0
C2495 C 0.34502 0.28025 0.97772 0.0
C2496 C 0.33371 0.28407 0.98782 0.0
C2497 C 0.33961 0.29991 0.99683 0.0
C2498 C 0.37465 0.28879 0.96649 0.0
C2499 C 0.31537 0.27148 0.98892 0.0
C2500 C 0.33037 0.24687 0.93548 0.0
C2501 C 0.33116 0.23402 0.94598 0.0
C2502 C 0.33438 0.26182 0.94579 0.0
C2503 C 0.33904 0.26385 0.96721 0.0
C2504 C 0.33918 0.25063 0.9781 0.0
C2505 C 0.33539 0.23593 0.9673 0.0
C2506 C 0.33432 0.2757 0.93351 0.0
C2507 C 0.34381 0.25217 1.001 0.0
H2508 H 0.38088 0.31704 0.98607 0.0
H2509 H 0.33091 0.30293 0.00423 0.0
H2510 H 0.37434 0.27771 0.97353 0.0
H2511 H 0.37134 0.28596 0.94968 0.0
H2512 H 0.38756 0.29947 0.96756 0.0
H2513 H 0.30833 0.27608 0.99819 0.0
H2514 H 0.31009 0.26842 0.97287 0.0
H2515 H 0.31348 0.25976 0.99606 0.0
H2516 H 0.32723 0.24548 0.91895 0.0
H2517 H 0.33584 0.22593 0.9755 0.0
H2518 H 0.34717 0.28646 0.93258 0.0
H2519 H 0.32658 0.28005 0.9416 0.0
H2520 H 0.32952 0.27183 0.91732 0.0
H2521 H 0.35709 0.26174 0.00299 0.0
H2522 H 0.34184 0.24025 0.00764 0.0
H2523 H 0.33635 0.25631 0.01018 0.0
C2524 C 0.69924 0.06235 0.98828 0.0
C2525 C 0.69544 0.04712 0.9975 0.0
C2526 C 0.71492 0.07282 0.9794 0.0
C2527 C 0.72726 0.06808 0.97997 0.0
C2528 C 0.72369 0.05295 0.98979 0.0
C2529 C 0.70777 0.04258 0.99832 0.0
C2530 C 0.71814 0.08875 0.96891 0.0
C2531 C 0.7366 0.0476 0.99096 0.0
C2532 C 0.7608 0.08743 0.93806 0.0
C2533 C 0.77352 0.10104 0.94877 0.0
C2534 C 0.74585 0.07633 0.94818 0.0
C2535 C 0.74365 0.07879 0.96962 0.0
C2536 C 0.7567 0.09218 0.9807 0.0
C2537 C 0.77143 0.10322 0.9701 0.0
C2538 C 0.73216 0.06236 0.93572 0.0
C2539 C 0.75494 0.09509 0.00363 0.0
H2540 H 0.68979 0.06596 0.98748 0.0
H2541 H 0.70494 0.03086 0.00545 0.0
H2542 H 0.72911 0.09955 0.97609 0.0
H2543 H 0.72103 0.08846 0.95208 0.0
H2544 H 0.70732 0.09077 0.97012 0.0
H2545 H 0.73221 0.036 1.0002 0.0
H2546 H 0.73981 0.04548 0.97492 0.0
H2547 H 0.74819 0.05759 0.99818 0.0
H2548 H 0.7623 0.08579 0.92152 0.0
H2549 H 0.78133 0.11363 0.97849 0.0
H2550 H 0.72124 0.0642 0.93486 0.0
H2551 H 0.72803 0.05026 0.94361 0.0
H2552 H 0.73614 0.06164 0.9195 0.0
H2553 H 0.74511 0.09847 0.00562 0.0
H2554 H 0.76671 0.1052 0.01038 0.0
H2555 H 0.75104 0.08352 0.0127 0.0
C2556 C 0.66428 0.96028 0.04445 0.0
C2557 C 0.64747 0.95437 0.03979 0.0
C2558 C 0.66939 0.94995 0.05412 0.0
C2559 C 0.6574 0.93332 0.05919 0.0
C2560 C 0.64051 0.92714 0.05385 0.0
C2561 C 0.63576 0.93773 0.04425 0.0
C2562 C 0.68753 0.95697 0.05952 0.0
C2563 C 0.62734 0.90947 0.05888 0.0
C2564 C 0.67002 0.90099 0.07157 0.0
C2565 C 0.6689 0.90024 0.09353 0.0
C2566 C 0.66675 0.91201 0.06018 0.0
C2567 C 0.66227 0.92254 0.07101 0.0
C2568 C 0.66152 0.92213 0.09319 0.0
C2569 C 0.66483 0.91099 0.10417 0.0
C2570 C 0.66762 0.91204 0.03655 0.0
C2571 C 0.65687 0.93321 0.10534 0.0
H2572 H 0.67341 0.97313 0.04107 0.0
H2573 H 0.62274 0.93301 0.04064 0.0
H2574 H 0.68901 0.9573 0.0768 0.0
H2575 H 0.69212 0.94886 0.05315 0.0
H2576 H 0.69544 0.96977 0.05332 0.0
H2577 H 0.61491 0.90632 0.05269 0.0
H2578 H 0.63086 0.90059 0.05222 0.0
H2579 H 0.62635 0.90764 0.07612 0.0
H2580 H 0.673 0.89262 0.06323 0.0
H2581 H 0.66421 0.91068 0.12115 0.0
H2582 H 0.67584 0.92487 0.0307 0.0
H2583 H 0.65506 0.90767 0.0299 0.0
H2584 H 0.67233 0.90389 0.03057 0.0
H2585 H 0.6652 0.94642 0.10097 0.0
H2586 H 0.65762 0.93195 0.12257 0.0
H2587 H 0.64398 0.93006 0.10133 0.0
C2588 C 0.03749 0.70002 0.04688 0.0
C2589 C 0.04441 0.6928 0.03395 0.0
C2590 C 0.04767 0.71518 0.05725 0.0
C2591 C 0.06513 0.72349 0.05419 0.0
C2592 C 0.07205 0.7167 0.04017 0.0
C2593 C 0.06164 0.70133 0.03045 0.0
C2594 C 0.03983 0.72181 0.07237 0.0
C2595 C 0.09055 0.72535 0.03604 0.0
C2596 C 0.09172 0.7687 0.07142 0.0
C2597 C 0.09876 0.76695 0.08998 0.0
C2598 C 0.08068 0.75467 0.05959 0.0
C2599 C 0.07631 0.73855 0.06681 0.0
C2600 C 0.08306 0.73676 0.08591 0.0
C2601 C 0.09437 0.751 0.09711 0.0
C2602 C 0.07406 0.75712 0.03911 0.0
C2603 C 0.07846 0.71981 0.09442 0.0
H2604 H 0.0242 0.6934 0.04978 0.0
H2605 H 0.06703 0.69584 0.02037 0.0
H2606 H 0.04392 0.72132 0.08856 0.0
H2607 H 0.04397 0.73503 0.06888 0.0
H2608 H 0.02602 0.71457 0.07185 0.0
H2609 H 0.09373 0.71941 0.02308 0.0
H2610 H 0.09531 0.73862 0.03205 0.0
H2611 H 0.09713 0.72505 0.0504 0.0
H2612 H 0.09524 0.78108 0.06588 0.0
H2613 H 0.09977 0.74969 0.11155 0.0
H2614 H 0.06026 0.7501 0.03918 0.0
H2615 H 0.0782 0.75213 0.02604 0.0
H2616 H 0.07835 0.77044 0.03594 0.0
H2617 H 0.06473 0.71196 0.09566 0.0
H2618 H 0.08399 0.72054 0.1101 0.0
H2619 H 0.08281 0.71344 0.08352 0.0
C2620 C 0.30207 0.34271 0.04427 0.0
C2621 C 0.31292 0.35947 0.03925 0.0
C2622 C 0.28668 0.33773 0.05408 0.0
C2623 C 0.28204 0.34978 0.05897 0.0
C2624 C 0.29272 0.36661 0.05331 0.0
C2625 C 0.308 0.37124 0.04356 0.0
C2626 C 0.27562 0.31965 0.0598 0.0
C2627 C 0.28823 0.37984 0.05816 0.0
C2628 C 0.23706 0.33695 0.07163 0.0
C2629 C 0.23742 0.33809 0.0936 0.0
C2630 C 0.25138 0.34036 0.06016 0.0
C2631 C 0.26644 0.34503 0.07088 0.0
C2632 C 0.26681 0.34589 0.09306 0.0
C2633 C 0.25232 0.34242 0.10413 0.0
C2634 C 0.25048 0.33934 0.03653 0.0
C2635 C 0.28259 0.35076 0.10512 0.0
H2636 H 0.30577 0.33354 0.04102 0.0
H2637 H 0.31626 0.38421 0.0397 0.0
H2638 H 0.27448 0.31836 0.0771 0.0
H2639 H 0.26291 0.31498 0.05346 0.0
H2640 H 0.28051 0.31167 0.05378 0.0
H2641 H 0.29748 0.3922 0.05176 0.0
H2642 H 0.27583 0.37627 0.05158 0.0
H2643 H 0.28746 0.38101 0.07538 0.0
H2644 H 0.22565 0.33377 0.06335 0.0
H2645 H 0.25265 0.34305 0.1211 0.0
H2646 H 0.255 0.331 0.03076 0.0
H2647 H 0.25872 0.35184 0.02974 0.0
H2648 H 0.23764 0.33468 0.03062 0.0
H2649 H 0.28747 0.34236 0.10096 0.0
H2650 H 0.28066 0.35027 0.12235 0.0
H2651 H 0.29228 0.36358 0.10078 0.0
C2652 C 0.72889 0.70037 0.38272 0.0
C2653 C 0.71352 0.6888 0.37395 0.0
C2654 C 0.73926 0.69524 0.3921 0.0
C2655 C 0.73432 0.67812 0.39244 0.0
C2656 C 0.71904 0.66639 0.38307 0.0
C2657 C 0.70875 0.67186 0.37409 0.0
C2658 C 0.75534 0.70814 0.40212 0.0
C2659 C 0.71348 0.64807 0.3828 0.0
C2660 C 0.76928 0.66889 0.40302 0.0
C2661 C 0.76725 0.66521 0.4245 0.0
C2662 C 0.75822 0.67242 0.39216 0.0
C2663 C 0.74501 0.67258 0.40314 0.0
C2664 C 0.74272 0.66853 0.42476 0.0
C2665 C 0.75379 0.66477 0.43514 0.0
C2666 C 0.76093 0.67639 0.36906 0.0
C2667 C 0.72897 0.66881 0.43713 0.0
H2668 H 0.73265 0.71347 0.3828 0.0
H2669 H 0.69691 0.66285 0.3673 0.0
H2670 H 0.7552 0.70543 0.41908 0.0
H2671 H 0.76602 0.70764 0.39502 0.0
H2672 H 0.75745 0.72097 0.40036 0.0
H2673 H 0.70175 0.64068 0.37388 0.0
H2674 H 0.7233 0.64609 0.37572 0.0
H2675 H 0.71152 0.64326 0.39908 0.0
H2676 H 0.77958 0.66908 0.39473 0.0
H2677 H 0.75229 0.66208 0.45179 0.0
H2678 H 0.76446 0.68957 0.36646 0.0
H2679 H 0.74924 0.66858 0.36027 0.0
H2680 H 0.77087 0.67434 0.36246 0.0
H2681 H 0.73094 0.68165 0.43735 0.0
H2682 H 0.72839 0.66462 0.45357 0.0
H2683 H 0.71677 0.66072 0.42956 0.0
C2684 C 0.33139 0.03865 0.36873 0.0
C2685 C 0.31438 0.02673 0.369 0.0
C2686 C 0.33729 0.05438 0.37805 0.0
C2687 C 0.32595 0.05816 0.38814 0.0
C2688 C 0.30876 0.04626 0.38816 0.0
C2689 C 0.30319 0.03077 0.37847 0.0
C2690 C 0.35568 0.06685 0.3774 0.0
C2691 C 0.29626 0.0497 0.39893 0.0
C2692 C 0.34055 0.09051 0.43165 0.0
C2693 C 0.34027 0.1038 0.42163 0.0
C2694 C 0.33635 0.07573 0.42078 0.0
C2695 C 0.33198 0.07431 0.39929 0.0
C2696 C 0.33227 0.08795 0.38891 0.0
C2697 C 0.33628 0.10248 0.40025 0.0
C2698 C 0.33595 0.0614 0.43252 0.0
C2699 C 0.32795 0.08703 0.36596 0.0
H2700 H 0.34011 0.03563 0.36141 0.0
H2701 H 0.29003 0.02163 0.37886 0.0
H2702 H 0.35778 0.07882 0.37082 0.0
H2703 H 0.3608 0.0694 0.39355 0.0
H2704 H 0.36272 0.06239 0.36786 0.0
H2705 H 0.2833 0.03922 0.39727 0.0
H2706 H 0.29924 0.052 0.41587 0.0
H2707 H 0.29692 0.06108 0.39234 0.0
H2708 H 0.34349 0.09144 0.44821 0.0
H2709 H 0.33623 0.11282 0.39241 0.0
H2710 H 0.34372 0.05714 0.42435 0.0
H2711 H 0.32302 0.05074 0.43289 0.0
H2712 H 0.34046 0.06478 0.4489 0.0
H2713 H 0.33544 0.08302 0.35662 0.0
H2714 H 0.33013 0.09916 0.35981 0.0
H2715 H 0.31466 0.07761 0.36357 0.0
C2716 C 0.965 0.29476 0.37379 0.0
C2717 C 0.9772 0.2901 0.37576 0.0
C2718 C 0.94897 0.28483 0.38225 0.0
C2719 C 0.94512 0.26999 0.39304 0.0
C2720 C 0.95732 0.26513 0.39479 0.0
C2721 C 0.97315 0.27519 0.38608 0.0
C2722 C 0.93624 0.29033 0.3799 0.0
C2723 C 0.95376 0.24943 0.40624 0.0
C2724 C 0.91085 0.25139 0.43408 0.0
C2725 C 0.89836 0.23754 0.42343 0.0
C2726 C 0.92591 0.26242 0.42412 0.0
C2727 C 0.9285 0.2596 0.40297 0.0
C2728 C 0.91565 0.24603 0.39189 0.0
C2729 C 0.90077 0.23512 0.40228 0.0
C2730 C 0.93934 0.27665 0.43655 0.0
C2731 C 0.91785 0.24269 0.36927 0.0
H2732 H 0.96802 0.30625 0.36583 0.0
H2733 H 0.98248 0.27148 0.38772 0.0
H2734 H 0.92478 0.28029 0.3725 0.0
H2735 H 0.93268 0.29274 0.39558 0.0
H2736 H 0.94094 0.30179 0.3703 0.0
H2737 H 0.96453 0.2473 0.40597 0.0
H2738 H 0.95052 0.25015 0.42281 0.0
H2739 H 0.94291 0.2385 0.39908 0.0
H2740 H 0.90912 0.25323 0.45047 0.0
H2741 H 0.89106 0.22455 0.39391 0.0
H2742 H 0.94383 0.28855 0.42801 0.0
H2743 H 0.95013 0.2747 0.43851 0.0
H2744 H 0.93495 0.27785 0.45233 0.0
H2745 H 0.92208 0.25412 0.35976 0.0
H2746 H 0.90617 0.23255 0.36236 0.0
H2747 H 0.92759 0.23911 0.36812 0.0
C2748 C 0.00907 0.37853 0.32864 0.0
C2749 C 0.02551 0.38188 0.32629 0.0
C2750 C 0.00393 0.38918 0.31995 0.0
C2751 C 0.01546 0.40338 0.30849 0.0
C2752 C 0.03211 0.40692 0.30634 0.0
C2753 C 0.03693 0.39619 0.31533 0.0
C2754 C 0.98613 0.3851 0.32276 0.0
C2755 C 0.04477 0.42188 0.29413 0.0
C2756 C 1.00075 0.42262 0.26717 0.0
C2757 C 0.00321 0.43711 0.27731 0.0
C2758 C 0.00422 0.41128 0.27734 0.0
C2759 C 0.01017 0.41442 0.29825 0.0
C2760 C 0.01214 0.42875 0.30881 0.0
C2761 C 0.00873 0.43996 0.29817 0.0
C2762 C 1.00213 0.39626 0.26545 0.0
C2763 C 0.01826 0.43245 0.33116 0.0
H2764 H 1.00018 0.36752 0.33711 0.0
H2765 H 0.04965 0.39888 0.31337 0.0
H2766 H 0.98576 0.39587 0.32979 0.0
H2767 H 0.97991 0.38266 0.30727 0.0
H2768 H 0.97891 0.37404 0.33291 0.0
H2769 H 0.05727 0.423 0.29415 0.0
H2770 H 0.04061 0.421 0.27765 0.0
H2771 H 0.04589 0.43344 0.30085 0.0
H2772 H 0.99663 0.42044 0.25098 0.0
H2773 H 0.01045 0.45104 0.30616 0.0
H2774 H 0.99416 0.38473 0.27445 0.0
H2775 H 0.01443 0.39714 0.26342 0.0
H2776 H 0.99652 0.3951 0.24973 0.0
H2777 H 0.01061 0.42151 0.34127 0.0
H2778 H 0.0179 0.44339 0.33765 0.0
H2779 H 0.03127 0.43495 0.33192 0.0
C2780 C 0.60692 0.6336 0.33712 0.0
C2781 C 0.6242 0.64202 0.33409 0.0
C2782 C 0.59659 0.61826 0.32733 0.0
C2783 C 0.60365 0.61138 0.3137 0.0
C2784 C 0.62116 0.61957 0.31109 0.0
C2785 C 0.63125 0.63471 0.32154 0.0
C2786 C 0.57803 0.60972 0.33098 0.0
C2787 C 0.62915 0.61283 0.29638 0.0
C2788 C 0.57707 0.56614 0.2967 0.0
C2789 C 0.57031 0.56786 0.27788 0.0
C2790 C 0.58803 0.58019 0.30854 0.0
C2791 C 0.5926 0.5963 0.30105 0.0
C2792 C 0.58614 0.59805 0.2817 0.0
C2793 C 0.57489 0.58379 0.27049 0.0
C2794 C 0.59433 0.5778 0.3293 0.0
C2795 C 0.59097 0.61499 0.27292 0.0
H2796 H 0.60143 0.63917 0.34691 0.0
H2797 H 0.64459 0.64125 0.319 0.0
H2798 H 0.57171 0.61001 0.31637 0.0
H2799 H 0.57313 0.59646 0.33512 0.0
H2800 H 0.5747 0.61576 0.34367 0.0
H2801 H 0.64296 0.62002 0.29721 0.0
H2802 H 0.62489 0.59961 0.30002 0.0
H2803 H 0.62531 0.61329 0.28004 0.0
H2804 H 0.5734 0.55378 0.30243 0.0
H2805 H 0.56972 0.58506 0.25584 0.0
H2806 H 0.59009 0.58292 0.34211 0.0
H2807 H 0.60813 0.58473 0.32951 0.0
H2808 H 0.58991 0.56448 0.33266 0.0
H2809 H 0.58653 0.62146 0.28352 0.0
H2810 H 0.58568 0.61421 0.25707 0.0
H2811 H 0.60472 0.62275 0.27197 0.0
C2812 C 0.3641 0.96799 0.32131 0.0
C2813 C 0.35943 0.9799 0.32594 0.0
C2814 C 0.37939 0.97253 0.31166 0.0
C2815 C 0.39035 0.9894 0.30648 0.0
C2816 C 0.38595 1.00158 0.31166 0.0
C2817 C 0.37053 0.99669 0.32133 0.0
C2818 C 0.38361 0.95915 0.30648 0.0
C2819 C 0.39732 0.01971 0.30646 0.0
C2820 C 0.43528 1.00158 0.2948 0.0
C2821 C 0.43529 1.00089 0.27281 0.0
C2822 C 0.42087 0.99826 0.30597 0.0
C2823 C 0.40607 0.99411 0.2949 0.0
C2824 C 0.40607 0.99367 0.2727 0.0
C2825 C 0.42066 0.99707 0.26194 0.0
C2826 C 0.42137 0.99881 0.32962 0.0
C2827 C 0.39056 0.98934 0.2603 0.0
H2828 H 0.35564 0.955 0.32484 0.0
H2829 H 0.36702 0.00597 0.32483 0.0
H2830 H 0.38466 0.95835 0.28923 0.0
H2831 H 0.39584 0.96234 0.31332 0.0
H2832 H 0.37409 0.94672 0.31238 0.0
H2833 H 0.39252 0.02775 0.31255 0.0
H2834 H 0.40988 0.02407 0.31312 0.0
H2835 H 0.39877 0.02128 0.28921 0.0
H2836 H 0.44647 0.00434 0.30334 0.0
H2837 H 0.42062 0.99677 0.24495 0.0
H2838 H 0.41285 0.98622 0.33599 0.0
H2839 H 0.41697 0.00721 0.33552 0.0
H2840 H 0.43407 0.00313 0.33584 0.0
H2841 H 0.38064 0.9765 0.26417 0.0
H2842 H 0.39278 0.99013 0.24311 0.0
H2843 H 0.38584 0.99784 0.26459 0.0
C2844 C 0.6088 0.97726 0.33263 0.0
C2845 C 0.62606 0.9863 0.32949 0.0
C2846 C 0.59828 0.98221 0.32325 0.0
C2847 C 0.60514 0.9963 0.30993 0.0
C2848 C 0.62262 0.00578 0.30721 0.0
C2849 C 0.63291 1.00078 0.31725 0.0
C2850 C 0.57976 0.97199 0.32701 0.0
C2851 C 0.6304 0.02068 0.29282 0.0
C2852 C 0.57583 0.99509 0.26751 0.0
C2853 C 0.57099 0.00613 0.27544 0.0
C2854 C 0.58737 0.99224 0.27826 0.0
C2855 C 0.59389 1.0003 0.29769 0.0
C2856 C 0.58909 0.01156 0.3057 0.0
C2857 C 0.57783 0.0145 0.29431 0.0
C2858 C 0.59241 0.98042 0.26892 0.0
C2859 C 0.59545 0.02009 0.32656 0.0
H2860 H 0.60347 0.96611 0.34219 0.0
H2861 H 0.64624 0.00773 0.31464 0.0
H2862 H 0.57473 0.98018 0.33157 0.0
H2863 H 0.57341 0.96553 0.31233 0.0
H2864 H 0.57659 0.9625 0.33945 0.0
H2865 H 0.64421 0.02741 0.29355 0.0
H2866 H 0.62652 0.01654 0.27643 0.0
H2867 H 0.626 0.02948 0.29685 0.0
H2868 H 0.57058 0.98872 0.25283 0.0
H2869 H 0.57397 0.02296 0.30046 0.0
H2870 H 0.58813 0.96939 0.27921 0.0
H2871 H 0.60617 0.98656 0.26789 0.0
H2872 H 0.5871 0.97609 0.25303 0.0
H2873 H 0.59133 0.01062 0.33918 0.0
H2874 H 0.59095 0.02888 0.33027 0.0
H2875 H 0.60925 0.02703 0.32667 0.0
C2876 C 0.03035 0.63493 0.33656 0.0
C2877 C 0.02119 0.64307 0.33373 0.0
C2878 C 0.02562 0.61967 0.32668 0.0
C2879 C 0.01164 0.6126 0.31317 0.0
C2880 C 1.00204 0.62051 0.31077 0.0
C2881 C 0.00682 0.63557 0.32131 0.0
C2882 C 0.03594 0.61143 0.33011 0.0
C2883 C 0.98726 0.61356 0.29619 0.0
C2884 C 0.01342 0.58538 0.2698 0.0
C2885 C 1.00239 0.56938 0.27724 0.0
C2886 C 0.0161 0.59954 0.28103 0.0
C2887 C 0.00788 0.59762 0.30045 0.0
C2888 C 0.99664 0.58143 0.30797 0.0
C2889 C 0.99387 0.56748 0.29611 0.0
C2890 C 0.02789 0.61656 0.27222 0.0
C2891 C 0.98795 0.57885 0.3288 0.0
H2892 H 0.04142 0.64066 0.34626 0.0
H2893 H 0.99979 0.64191 0.31894 0.0
H2894 H 0.02781 0.59813 0.33425 0.0
H2895 H 0.04256 0.61187 0.31542 0.0
H2896 H 0.04531 0.61758 0.34273 0.0
H2897 H 0.98041 0.62054 0.29717 0.0
H2898 H 0.99155 0.61415 0.2798 0.0
H2899 H 0.97852 0.60029 0.29981 0.0
H2900 H 0.0199 0.58679 0.25512 0.0
H2901 H 0.98542 0.55505 0.30187 0.0
H2902 H 0.03882 0.62319 0.2827 0.0
H2903 H 0.02166 0.62412 0.27144 0.0
H2904 H 0.03239 0.61591 0.25629 0.0
H2905 H 0.99732 0.58406 0.34155 0.0
H2906 H 0.97925 0.56549 0.33214 0.0
H2907 H 0.98088 0.5856 0.32915 0.0
C2908 C 0.37186 0.39608 0.33237 0.0
C2909 C 0.36447 0.37877 0.33022 0.0
C2910 C 0.38726 0.40684 0.32298 0.0
C2911 C 0.39523 0.40014 0.31065 0.0
C2912 C 0.38806 0.38264 0.30895 0.0
C2913 C 0.37284 0.37215 0.319 0.0
C2914 C 0.39468 0.4254 0.32564 0.0
C2915 C 0.396 0.37502 0.29562 0.0
C2916 C 0.42301 0.42874 0.2675 0.0
C2917 C 0.43887 0.43453 0.27594 0.0
C2918 C 0.40873 0.41711 0.27835 0.0
C2919 C 0.41039 0.41149 0.29838 0.0
C2920 C 0.42646 0.41729 0.30692 0.0
C2921 C 0.44056 0.42862 0.29544 0.0
C2922 C 0.39186 0.41098 0.26848 0.0
C2923 C 0.42874 0.41192 0.3284 0.0
H2924 H 0.36546 0.40123 0.34115 0.0
H2925 H 0.36708 0.35877 0.31716 0.0
H2926 H 0.4079 0.43117 0.33053 0.0
H2927 H 0.3944 0.43105 0.31045 0.0
H2928 H 0.38784 0.42853 0.33744 0.0
H2929 H 0.3895 0.36125 0.29709 0.0
H2930 H 0.39574 0.37823 0.27892 0.0
H2931 H 0.40923 0.38016 0.30002 0.0
H2932 H 0.4218 0.43331 0.25234 0.0
H2933 H 0.45289 0.43323 0.30194 0.0
H2934 H 0.38455 0.41508 0.27801 0.0
H2935 H 0.38484 0.39717 0.26814 0.0
H2936 H 0.3928 0.41566 0.25224 0.0
H2937 H 0.42279 0.41599 0.34034 0.0
H2938 H 0.44207 0.4172 0.33252 0.0
H2939 H 0.42251 0.39816 0.32923 0.0
C2940 C 0.30583 0.27137 0.37768 0.0
C2941 C 0.31734 0.28795 0.3726 0.0
C2942 C 0.31091 0.26108 0.38739 0.0
C2943 C 0.32793 0.2675 0.3922 0.0
C2944 C 0.33972 0.28403 0.38645 0.0
C2945 C 0.33428 0.29407 0.37668 0.0
C2946 C 0.29795 0.2435 0.39316 0.0
C2947 C 0.35798 0.29129 0.39126 0.0
C2948 C 0.33655 0.24644 0.43764 0.0
C2949 C 0.3405 0.23552 0.42722 0.0
C2950 C 0.33289 0.25723 0.42642 0.0
C2951 C 0.33316 0.25711 0.40422 0.0
C2952 C 0.33751 0.2464 0.3936 0.0
C2953 C 0.34114 0.23574 0.40523 0.0
C2954 C 0.32838 0.26851 0.43834 0.0
C2955 C 0.33788 0.24586 0.36996 0.0
H2956 H 0.29272 0.26651 0.37452 0.0
H2957 H 0.34326 0.30686 0.37283 0.0
H2958 H 0.30144 0.23454 0.38671 0.0
H2959 H 0.2973 0.24209 0.41046 0.0
H2960 H 0.28538 0.2401 0.38726 0.0
H2961 H 0.36568 0.30392 0.38449 0.0
H2962 H 0.35985 0.2921 0.40849 0.0
H2963 H 0.36251 0.28307 0.38509 0.0
H2964 H 0.33629 0.24652 0.45463 0.0
H2965 H 0.34401 0.22722 0.39705 0.0
H2966 H 0.31538 0.26516 0.43467 0.0
H2967 H 0.33653 0.28162 0.43343 0.0
H2968 H 0.32951 0.26768 0.45558 0.0
H2969 H 0.32516 0.24124 0.3637 0.0
H2970 H 0.34256 0.23765 0.36412 0.0
H2971 H 0.34589 0.25856 0.36358 0.0
C2972 C 0.73208 0.03391 0.37419 0.0
C2973 C 0.71531 0.02861 0.36995 0.0
C2974 C 0.74234 0.04913 0.38427 0.0
C2975 C 0.73573 0.05937 0.39029 0.0
C2976 C 0.71898 0.05439 0.3854 0.0
C2977 C 0.70896 0.03906 0.37528 0.0
C2978 C 0.76015 0.05399 0.38911 0.0
C2979 C 0.71149 0.065 0.39148 0.0
C2980 C 0.75729 0.08845 0.43621 0.0
C2981 C 0.76774 0.10357 0.42606 0.0
C2982 C 0.74653 0.07409 0.42478 0.0
C2983 C 0.74616 0.07484 0.40262 0.0
C2984 C 0.75638 0.09014 0.39229 0.0
C2985 C 0.76705 0.10431 0.40413 0.0
C2986 C 0.7358 0.05803 0.43641 0.0
C2987 C 0.75636 0.09145 0.36871 0.0
H2988 H 0.73713 0.02596 0.37009 0.0
H2989 H 0.69603 0.03507 0.37208 0.0
H2990 H 0.76876 0.06659 0.38286 0.0
H2991 H 0.76196 0.0545 0.40634 0.0
H2992 H 0.76365 0.0451 0.38239 0.0
H2993 H 0.69867 0.05995 0.3853 0.0
H2994 H 0.71109 0.06575 0.40881 0.0
H2995 H 0.71934 0.07787 0.38556 0.0
H2996 H 0.75755 0.08782 0.45316 0.0
H2997 H 0.7752 0.11589 0.39612 0.0
H2998 H 0.73931 0.04864 0.43181 0.0
H2999 H 0.72253 0.05293 0.43214 0.0
H3000 H 0.73704 0.05968 0.45369 0.0
H3001 H 0.76108 0.08367 0.3616 0.0
H3002 H 0.76422 0.10446 0.36316 0.0
H3003 H 0.74349 0.08664 0.3629 0.0
C3004 C 0.9666 0.67373 0.38068 0.0
C3005 C 0.97763 0.69045 0.37566 0.0
C3006 C 0.95124 0.66894 0.39043 0.0
C3007 C 0.94681 0.68115 0.39526 0.0
C3008 C 0.95766 0.69795 0.38962 0.0
C3009 C 0.97291 0.70238 0.37991 0.0
C3010 C 0.93996 0.6509 0.39612 0.0
C3011 C 0.9534 0.71135 0.39441 0.0
C3012 C 0.90189 0.66885 0.40733 0.0
C3013 C 0.90207 0.66987 0.4293 0.0
C3014 C 0.91625 0.67214 0.39605 0.0
C3015 C 0.93117 0.67658 0.40698 0.0
C3016 C 0.93137 0.67738 0.42917 0.0
C3017 C 0.91683 0.67402 0.44004 0.0
C3018 C 0.91554 0.6712 0.37241 0.0
C3019 C 0.94701 0.68204 0.44143 0.0
H3020 H 0.97014 0.66444 0.37748 0.0
H3021 H 0.98131 0.71532 0.37605 0.0
H3022 H 0.93869 0.64961 0.41341 0.0
H3023 H 0.92733 0.64638 0.38962 0.0
H3024 H 0.94475 0.64279 0.39023 0.0
H3025 H 0.96281 0.72368 0.38812 0.0
H3026 H 0.94109 0.70797 0.38769 0.0
H3027 H 0.95253 0.71248 0.41163 0.0
H3028 H 0.8906 0.66585 0.39888 0.0
H3029 H 0.91701 0.67457 0.45702 0.0
H3030 H 0.91992 0.66272 0.36673 0.0
H3031 H 0.92398 0.68368 0.36571 0.0
H3032 H 0.90278 0.66674 0.36632 0.0
H3033 H 0.95175 0.67351 0.4374 0.0
H3034 H 0.94496 0.68157 0.45863 0.0
H3035 H 0.95685 0.69481 0.43716 0.0
C3036 C 0.37375 0.0102 0.72618 0.0
C3037 C 0.37953 0.02089 0.70888 0.0
C3038 C 0.38422 0.00568 0.73669 0.0
C3039 C 0.40059 0.01148 0.72913 0.0
C3040 C 0.40607 0.02146 0.71084 0.0
C3041 C 0.3956 0.0264 0.70124 0.0
C3042 C 0.3781 0.99559 0.75658 0.0
C3043 C 0.42315 0.02733 0.70177 0.0
C3044 C 0.43485 0.01702 0.76654 0.0
C3045 C 0.4352 0.00214 0.76381 0.0
C3046 C 0.42335 0.01995 0.75583 0.0
C3047 C 0.41237 0.00811 0.74116 0.0
C3048 C 0.41279 0.99323 0.7379 0.0
C3049 C 0.42388 0.99025 0.74959 0.0
C3050 C 0.42299 0.03579 0.76024 0.0
C3051 C 0.40167 0.98055 0.72188 0.0
H3052 H 0.36139 0.0062 0.73225 0.0
H3053 H 0.40002 0.03469 0.68784 0.0
H3054 H 0.37965 0.9845 0.75568 0.0
H3055 H 0.38567 0.00321 0.77003 0.0
H3056 H 0.36481 0.9914 0.75981 0.0
H3057 H 0.42467 0.03312 0.68608 0.0
H3058 H 0.43276 0.03664 0.71238 0.0
H3059 H 0.42553 0.01676 0.70035 0.0
H3060 H 0.4437 0.02661 0.7769 0.0
H3061 H 0.42357 0.97851 0.74753 0.0
H3062 H 0.41013 0.03284 0.76415 0.0
H3063 H 0.42688 0.04377 0.74607 0.0
H3064 H 0.43133 0.04303 0.77338 0.0
H3065 H 0.38843 0.97549 0.72621 0.0
H3066 H 0.40412 0.97002 0.72043 0.0
H3067 H 0.40353 0.98656 0.70631 0.0
C3068 C 0.97539 0.36577 0.70118 0.0
C3069 C 0.98504 0.35816 0.70413 0.0
C3070 C 0.97974 0.38107 0.7107 0.0
C3071 C 0.99384 0.38874 0.72398 0.0
C3072 C 0.00392 0.38135 0.72653 0.0
C3073 C 0.9995 0.36623 0.71635 0.0
C3074 C 0.9689 0.38873 0.70713 0.0
C3075 C 0.01885 0.38894 0.74087 0.0
C3076 C 0.0106 0.43399 0.73978 0.0
C3077 C 1.00225 0.43219 0.75876 0.0
C3078 C 0.00808 0.41997 0.72828 0.0
C3079 C 0.99729 0.40382 0.73628 0.0
C3080 C 0.98923 0.40202 0.7558 0.0
C3081 C 0.99164 0.41624 0.76666 0.0
C3082 C 0.01658 0.42241 0.70733 0.0
C3083 C 0.97791 0.38507 0.76512 0.0
H3084 H 0.96425 0.35962 0.69164 0.0
H3085 H 0.00691 0.36031 0.71882 0.0
H3086 H 0.96237 0.38835 0.72188 0.0
H3087 H 0.97665 0.402 0.70259 0.0
H3088 H 0.95944 0.38213 0.69474 0.0
H3089 H 0.02602 0.38229 0.74008 0.0
H3090 H 0.02726 0.4022 0.73682 0.0
H3091 H 0.01468 0.38856 0.75728 0.0
H3092 H 0.01873 0.44638 0.73366 0.0
H3093 H 0.98528 0.41491 0.78143 0.0
H3094 H 0.00709 0.41669 0.69479 0.0
H3095 H 0.02403 0.41605 0.70713 0.0
H3096 H 0.0249 0.43577 0.70356 0.0
H3097 H 0.96692 0.37799 0.75486 0.0
H3098 H 0.97348 0.38586 0.78104 0.0
H3099 H 0.98452 0.37787 0.76609 0.0
C3100 C 0.63547 0.61049 0.70041 0.0
C3101 C 0.6433 0.62769 0.70396 0.0
C3102 C 0.62013 0.59956 0.70983 0.0
C3103 C 0.61267 0.60593 0.72362 0.0
C3104 C 0.62029 0.62335 0.72677 0.0
C3105 C 0.63542 0.63405 0.71667 0.0
C3106 C 0.61222 0.58112 0.70559 0.0
C3107 C 0.61292 0.63062 0.74167 0.0
C3108 C 0.56739 0.57789 0.73953 0.0
C3109 C 0.56914 0.57096 0.75818 0.0
C3110 C 0.58145 0.58935 0.72808 0.0
C3111 C 0.59757 0.59427 0.73581 0.0
C3112 C 0.59933 0.58759 0.75499 0.0
C3113 C 0.58508 0.57584 0.76579 0.0
C3114 C 0.57905 0.59586 0.70748 0.0
C3115 C 0.61627 0.59276 0.76403 0.0
H3116 H 0.64148 0.60554 0.69049 0.0
H3117 H 0.64152 0.64733 0.71961 0.0
H3118 H 0.61256 0.57464 0.72002 0.0
H3119 H 0.59895 0.57588 0.70121 0.0
H3120 H 0.61866 0.57835 0.69286 0.0
H3121 H 0.61975 0.64445 0.74135 0.0
H3122 H 0.59969 0.62606 0.73778 0.0
H3123 H 0.61329 0.62649 0.75788 0.0
H3124 H 0.55502 0.57399 0.73363 0.0
H3125 H 0.58636 0.57052 0.78031 0.0
H3126 H 0.58464 0.59219 0.69461 0.0
H3127 H 0.58554 0.60965 0.70774 0.0
H3128 H 0.5657 0.59105 0.70385 0.0
H3129 H 0.62316 0.58887 0.75336 0.0
H3130 H 0.61546 0.58721 0.77971 0.0
H3131 H 0.62365 0.60652 0.76545 0.0
C3132 C 0.69656 0.73401 0.66817 0.0
C3133 C 0.68759 0.71677 0.66484 0.0
C3134 C 0.69183 0.74458 0.65843 0.0
C3135 C 0.67807 0.73778 0.64458 0.0
C3136 C 0.66865 0.72031 0.64168 0.0
C3137 C 0.67341 0.70998 0.65207 0.0
C3138 C 0.70195 0.76309 0.66238 0.0
C3139 C 0.6541 0.71261 0.62673 0.0
C3140 C 0.6601 0.76498 0.62771 0.0
C3141 C 0.66883 0.77185 0.60905 0.0
C3142 C 0.66289 0.75378 0.63945 0.0
C3143 C 0.67437 0.74908 0.63202 0.0
C3144 C 0.68284 0.75567 0.61283 0.0
C3145 C 0.68012 0.76714 0.60172 0.0
C3146 C 0.65391 0.74734 0.66005 0.0
C3147 C 0.6949 0.75072 0.60412 0.0
H3148 H 0.70747 0.73928 0.67814 0.0
H3149 H 0.66653 0.69667 0.64932 0.0
H3150 H 0.70877 0.76951 0.64791 0.0
H3151 H 0.69366 0.76809 0.6665 0.0
H3152 H 0.71114 0.76619 0.6752 0.0
H3153 H 0.64736 0.69879 0.62733 0.0
H3154 H 0.64521 0.71698 0.63032 0.0
H3155 H 0.65863 0.71659 0.61048 0.0
H3156 H 0.65144 0.76874 0.63339 0.0
H3157 H 0.68676 0.7724 0.58718 0.0
H3158 H 0.6631 0.75135 0.67299 0.0
H3159 H 0.64693 0.73354 0.66003 0.0
H3160 H 0.64509 0.75188 0.66337 0.0
H3161 H 0.70566 0.75492 0.61487 0.0
H3162 H 0.69965 0.75614 0.58838 0.0
H3163 H 0.6888 0.73696 0.60295 0.0
C3164 C 0.29597 0.9657 0.66652 0.0
C3165 C 0.29112 0.9778 0.66546 0.0
C3166 C 0.28612 0.94985 0.65754 0.0
C3167 C 0.2712 0.94611 0.64703 0.0
C3168 C 0.2661 0.95817 0.64629 0.0
C3169 C 0.27605 0.97379 0.65561 0.0
C3170 C 0.29183 0.93722 0.65892 0.0
C3171 C 0.25035 0.95476 0.63511 0.0
C3172 C 0.25343 0.91328 0.6041 0.0
C3173 C 0.23959 0.90031 0.61414 0.0
C3174 C 0.26416 0.92807 0.61482 0.0
C3175 C 0.26107 0.92983 0.63618 0.0
C3176 C 0.2475 0.91647 0.64662 0.0
C3177 C 0.23685 0.90192 0.63544 0.0
C3178 C 0.27835 0.94209 0.60303 0.0
C3179 C 0.24393 0.91774 0.66944 0.0
H3180 H 0.30758 0.96869 0.67412 0.0
H3181 H 0.2722 0.98306 0.65463 0.0
H3182 H 0.28178 0.92539 0.66556 0.0
H3183 H 0.29459 0.93442 0.64299 0.0
H3184 H 0.30314 0.94166 0.66876 0.0
H3185 H 0.24799 0.96536 0.63627 0.0
H3186 H 0.25119 0.95219 0.61829 0.0
H3187 H 0.2395 0.94354 0.64178 0.0
H3188 H 0.2555 0.91214 0.5876 0.0
H3189 H 0.22626 0.89182 0.6433 0.0
H3190 H 0.29023 0.94635 0.61152 0.0
H3191 H 0.27625 0.95285 0.60202 0.0
H3192 H 0.27967 0.93839 0.58688 0.0
H3193 H 0.25532 0.92183 0.67897 0.0
H3194 H 0.23389 0.90573 0.67575 0.0
H3195 H 0.24009 0.92725 0.67135 0.0
C3196 C 0.03996 0.32834 0.65851 0.0
C3197 C 0.02938 0.3115 0.66338 0.0
C3198 C 0.0554 0.33369 0.64866 0.0
C3199 C 0.06036 0.32191 0.64358 0.0
C3200 C 0.04999 0.30501 0.64914 0.0
C3201 C 0.03465 0.30002 0.65896 0.0
C3202 C 0.06615 0.35183 0.64306 0.0
C3203 C 0.05482 0.29206 0.64407 0.0
C3204 C 0.0899 0.32989 0.59803 0.0
C3205 C 0.1049 0.33437 0.60836 0.0
C3206 C 0.07543 0.3262 0.60929 0.0
C3207 C 0.07595 0.32701 0.63147 0.0
C3208 C 0.09113 0.33187 0.642 0.0
C3209 C 0.10542 0.33549 0.63033 0.0
C3210 C 0.05951 0.32111 0.59744 0.0
C3211 C 0.09218 0.33286 0.66562 0.0
H3212 H 0.03599 0.3373 0.66185 0.0
H3213 H 0.0266 0.28699 0.66271 0.0
H3214 H 0.07894 0.35669 0.64919 0.0
H3215 H 0.06712 0.35323 0.62577 0.0
H3216 H 0.06109 0.35959 0.64937 0.0
H3217 H 0.04581 0.27961 0.65047 0.0
H3218 H 0.0555 0.29096 0.62682 0.0
H3219 H 0.06733 0.29588 0.65049 0.0
H3220 H 0.08946 0.32927 0.58105 0.0
H3221 H 0.11691 0.33878 0.63846 0.0
H3222 H 0.05443 0.32929 0.60183 0.0
H3223 H 0.05003 0.3082 0.60172 0.0
H3224 H 0.06134 0.32172 0.58018 0.0
H3225 H 0.0874 0.34093 0.67158 0.0
H3226 H 0.10511 0.3378 0.67137 0.0
H3227 H 0.08423 0.32029 0.67239 0.0
C3228 C 0.27495 0.30349 0.6575 0.0
C3229 C 0.29157 0.31505 0.66236 0.0
C3230 C 0.26456 0.30848 0.64786 0.0
C3231 C 0.27089 0.32547 0.6429 0.0
C3232 C 0.28748 0.3373 0.64839 0.0
C3233 C 0.29763 0.33195 0.65806 0.0
C3234 C 0.24694 0.29545 0.64234 0.0
C3235 C 0.29466 0.35554 0.64344 0.0
C3236 C 0.24933 0.33364 0.59762 0.0
C3237 C 0.23835 0.33749 0.60809 0.0
C3238 C 0.2603 0.33019 0.60876 0.0
C3239 C 0.26035 0.33059 0.63096 0.0
C3240 C 0.24964 0.33492 0.64163 0.0
C3241 C 0.23877 0.33832 0.63008 0.0
C3242 C 0.27156 0.32569 0.59675 0.0
C3243 C 0.2493 0.33547 0.66527 0.0
H3244 H 0.27012 0.29041 0.66081 0.0
H3245 H 0.31044 0.34097 0.66175 0.0
H3246 H 0.23802 0.29894 0.64893 0.0
H3247 H 0.24538 0.29474 0.62506 0.0
H3248 H 0.24364 0.28292 0.64827 0.0
H3249 H 0.30734 0.3633 0.65003 0.0
H3250 H 0.2953 0.35731 0.6262 0.0
H3251 H 0.28647 0.36007 0.64972 0.0
H3252 H 0.2493 0.33326 0.58064 0.0
H3253 H 0.23024 0.34114 0.63831 0.0
H3254 H 0.2683 0.31272 0.60049 0.0
H3255 H 0.2847 0.33391 0.60151 0.0
H3256 H 0.2706 0.32673 0.57952 0.0
H3257 H 0.24471 0.32279 0.67166 0.0
H3258 H 0.24116 0.34022 0.67115 0.0
H3259 H 0.26205 0.34351 0.67147 0.0
C3260 C 0.69943 0.97047 0.66763 0.0
C3261 C 0.6899 0.97832 0.66583 0.0
C3262 C 0.69453 0.9552 0.65767 0.0
C3263 C 0.68001 0.94783 0.64511 0.0
C3264 C 0.67008 0.95546 0.64374 0.0
C3265 C 0.67504 0.97053 0.65435 0.0
C3266 C 0.70524 0.94726 0.66 0.0
C3267 C 0.6547 0.94819 0.63018 0.0
C3268 C 0.68036 0.92044 0.60095 0.0
C3269 C 0.66982 0.90447 0.60885 0.0
C3270 C 0.68333 0.93464 0.61231 0.0
C3271 C 0.67593 0.93279 0.63232 0.0
C3272 C 0.6652 0.91663 0.64032 0.0
C3273 C 0.66211 0.90263 0.62833 0.0
C3274 C 0.69454 0.95162 0.603 0.0
C3275 C 0.65741 0.91413 0.66176 0.0
H3276 H 0.71088 0.97642 0.67659 0.0
H3277 H 0.66773 0.97665 0.65277 0.0
H3278 H 0.69748 0.93398 0.66445 0.0
H3279 H 0.71125 0.94767 0.6448 0.0
H3280 H 0.71513 0.95365 0.67199 0.0
H3281 H 0.64775 0.95501 0.63186 0.0
H3282 H 0.65831 0.94866 0.61349 0.0
H3283 H 0.64626 0.93493 0.63417 0.0
H3284 H 0.68622 0.92178 0.5858 0.0
H3285 H 0.65404 0.89022 0.63443 0.0
H3286 H 0.70589 0.95847 0.61274 0.0
H3287 H 0.68811 0.959 0.60293 0.0
H3288 H 0.69839 0.95088 0.58671 0.0
H3289 H 0.66731 0.91961 0.67385 0.0
H3290 H 0.64903 0.90077 0.66547 0.0
H3291 H 0.65017 0.92068 0.66286 0.0
C3292 C 0.03323 0.73146 0.65272 0.0
C3293 C 0.02868 0.7151 0.65834 0.0
C3294 C 0.04877 0.74214 0.64363 0.0
C3295 C 0.06005 0.73632 0.63992 0.0
C3296 C 0.05573 0.71997 0.64605 0.0
C3297 C 0.0401 0.70956 0.65526 0.0
C3298 C 0.05293 0.75953 0.6375 0.0
C3299 C 0.06742 0.71331 0.6423 0.0
C3300 C 0.09124 0.75849 0.59618 0.0
C3301 C 0.10549 0.7697 0.6074 0.0
C3302 C 0.07654 0.74721 0.6066 0.0
C3303 C 0.07602 0.74719 0.6288 0.0
C3304 C 0.09046 0.75823 0.64022 0.0
C3305 C 0.10504 0.76932 0.62938 0.0
C3306 C 0.06145 0.73556 0.59383 0.0
C3307 C 0.09037 0.75867 0.66388 0.0
H3308 H 0.02452 0.73589 0.65513 0.0
H3309 H 0.03667 0.69693 0.65951 0.0
H3310 H 0.06493 0.76882 0.64463 0.0
H3311 H 0.05441 0.76098 0.62024 0.0
H3312 H 0.04317 0.76244 0.64246 0.0
H3313 H 0.0626 0.70066 0.64897 0.0
H3314 H 0.06933 0.71277 0.6252 0.0
H3315 H 0.07977 0.72178 0.6493 0.0
H3316 H 0.0916 0.75856 0.57919 0.0
H3317 H 0.11597 0.77805 0.63813 0.0
H3318 H 0.05134 0.73846 0.59652 0.0
H3319 H 0.05671 0.72251 0.59887 0.0
H3320 H 0.06417 0.73649 0.57676 0.0
H3321 H 0.08162 0.76277 0.66934 0.0
H3322 H 0.10289 0.76725 0.67045 0.0
H3323 H 0.08593 0.74603 0.67031 0.0
C3324 C 0.99548 0.62339 0.70615 0.0
C3325 C 0.9792 0.62053 0.70834 0.0
C3326 C 1.00014 0.61239 0.7149 0.0
C3327 C 0.98827 0.59829 0.72625 0.0
C3328 C 0.97176 0.59521 0.72818 0.0
C3329 C 0.96742 0.6063 0.71914 0.0
C3330 C 0.01781 0.61599 0.71232 0.0
C3331 C 0.95874 0.58038 0.74024 0.0
C3332 C 0.99413 0.56118 0.73691 0.0
C3333 C 0.99962 0.56402 0.75778 0.0
C3334 C 0.99093 0.57252 0.7262 0.0
C3335 C 0.99311 0.58695 0.73668 0.0
C3336 C 0.99895 0.59002 0.75762 0.0
C3337 C 1.0022 0.57856 0.76788 0.0
C3338 C 0.98489 0.56888 0.70381 0.0
C3339 C 1.00125 0.60516 0.76944 0.0
H3340 H 0.00465 0.63434 0.69782 0.0
H3341 H 0.95481 0.60397 0.72097 0.0
H3342 H 0.02391 0.61833 0.72788 0.0
H3343 H 0.01791 0.60504 0.70543 0.0
H3344 H 0.02531 0.62697 0.70216 0.0
H3345 H 0.94638 0.57957 0.73995 0.0
H3346 H 0.95741 0.56871 0.73362 0.0
H3347 H 0.96269 0.58116 0.75681 0.0
H3348 H 0.99232 0.55006 0.72895 0.0
H3349 H 0.00629 0.58073 0.78408 0.0
H3350 H 0.99284 0.57971 0.69368 0.0
H3351 H 0.97204 0.56679 0.70288 0.0
H3352 H 0.98491 0.55773 0.69745 0.0
H3353 H 0.00954 0.61664 0.76054 0.0
H3354 H 0.00661 0.60614 0.7853 0.0
H3355 H 0.98907 0.6046 0.77117 0.0
C3356 C 0.39825 0.36351 0.71607 0.0
C3357 C 0.38332 0.36003 0.70627 0.0
C3358 C 0.4086 0.37901 0.72546 0.0
C3359 C 0.40408 0.39149 0.72481 0.0
C3360 C 0.38923 0.38824 0.71448 0.0
C3361 C 0.37894 0.37249 0.70547 0.0
C3362 C 0.42422 0.38188 0.73651 0.0
C3363 C 0.38413 0.40134 0.71317 0.0
C3364 C 0.42316 0.42482 0.76704 0.0
C3365 C 0.43707 0.43742 0.75664 0.0
C3366 C 0.41206 0.40997 0.7567 0.0
C3367 C 0.41481 0.40779 0.73536 0.0
C3368 C 0.4285 0.42075 0.72459 0.0
C3369 C 0.43955 0.43535 0.73541 0.0
C3370 C 0.39776 0.39637 0.76886 0.0
C3371 C 0.43173 0.41902 0.70177 0.0
H3372 H 0.4017 0.35394 0.71687 0.0
H3373 H 0.36744 0.36991 0.6979 0.0
H3374 H 0.43527 0.39274 0.72958 0.0
H3375 H 0.42369 0.38477 0.75329 0.0
H3376 H 0.426 0.3709 0.73554 0.0
H3377 H 0.37266 0.39714 0.70373 0.0
H3378 H 0.38192 0.40457 0.72915 0.0
H3379 H 0.39431 0.41288 0.70609 0.0
H3380 H 0.42129 0.42634 0.7835 0.0
H3381 H 0.45021 0.44516 0.72728 0.0
H3382 H 0.39937 0.38531 0.76985 0.0
H3383 H 0.38584 0.39246 0.76064 0.0
H3384 H 0.39686 0.40034 0.78502 0.0
H3385 H 0.43494 0.40905 0.69995 0.0
H3386 H 0.44206 0.43074 0.69522 0.0
H3387 H 0.42034 0.41533 0.69238 0.0
C3388 C 0.63292 0.00912 0.70762 0.0
C3389 C 0.64568 0.02578 0.70898 0.0
C3390 C 0.61713 0.00393 0.71637 0.0
C3391 C 0.61414 0.01563 0.72698 0.0
C3392 C 0.6269 0.0325 0.72808 0.0
C3393 C 0.64244 0.03737 0.71895 0.0
C3394 C 0.60375 0.9859 0.71458 0.0
C3395 C 0.62431 0.04534 0.73945 0.0
C3396 C 0.57044 0.00766 0.73803 0.0
C3397 C 0.56828 0.00268 0.75909 0.0
C3398 C 0.58505 0.01133 0.72712 0.0
C3399 C 0.59793 0.01025 0.73764 0.0
C3400 C 0.59569 0.00499 0.75883 0.0
C3401 C 0.58085 1.00117 0.76924 0.0
C3402 C 0.58686 0.01665 0.70447 0.0
C3403 C 0.6092 0.00394 0.77072 0.0
H3404 H 0.63531 1.0001 0.6999 0.0
H3405 H 0.65223 0.05026 0.72017 0.0
H3406 H 0.60049 0.98019 0.7304 0.0
H3407 H 0.59229 0.98492 0.70777 0.0
H3408 H 0.6077 0.97859 0.70471 0.0
H3409 H 0.63539 0.05801 0.73854 0.0
H3410 H 0.61349 0.04576 0.73274 0.0
H3411 H 0.62148 0.04184 0.7562 0.0
H3412 H 0.56065 0.00867 0.73008 0.0
H3413 H 0.57928 0.99747 0.78558 0.0
H3414 H 0.59025 0.00887 0.69471 0.0
H3415 H 0.59705 0.02973 0.70292 0.0
H3416 H 0.57525 0.01569 0.69814 0.0
H3417 H 0.61286 0.99579 0.76225 0.0
H3418 H 0.60527 0.99903 0.78685 0.0
H3419 H 0.62042 0.01648 0.77176 0.0
loop_
_geom_bond_atom_site_label_1
_geom_bond_atom_site_label_2
_geom_bond_distance
_geom_bond_site_symmetry_2
_ccdc_geom_bond_type
O0 Cd1 2.223 . S
O0 C8 1.315 . S
Cd1 O0 2.223 . S
Cd1 O4 2.297 . S
Cd1 O5 2.439 . S
Cd1 O11 2.240 1_554 S
Cd2 O3 2.240 . S
Cd2 O10 2.223 1_554 S
Cd2 O12 2.297 1_554 S
Cd2 O13 2.424 1_554 S
O3 Cd2 2.240 . S
O3 C8 1.279 1_655 S
O4 Cd1 2.297 . S
O4 C6 1.247 . S
O5 Cd1 2.439 . S
O5 C6 1.208 . S
C6 O4 1.247 . S
C6 O5 1.208 . S
C7 O12 1.247 . S
C7 O13 1.229 . S
C8 O0 1.315 . S
C8 O3 1.279 1_455 S
C9 O10 1.315 . S
C9 O11 1.279 1_655 S
O10 Cd2 2.223 1_556 S
O10 C9 1.315 . S
O11 Cd1 2.240 1_556 S
O11 C9 1.279 1_455 S
O12 Cd2 2.297 1_556 S
O12 C7 1.247 . S
O13 Cd2 2.424 1_556 S
O13 C7 1.229 . S
O14 Cd15 2.223 . S
O14 C22 1.315 . S
Cd15 O14 2.223 . S
Cd15 O18 2.297 . S
Cd15 O19 2.439 . S
Cd15 O25 2.240 1_554 S
Cd16 O17 2.240 . S
Cd16 O24 2.223 1_554 S
Cd16 O26 2.297 1_554 S
Cd16 O27 2.439 1_554 S
O17 Cd16 2.240 . S
O17 C22 1.279 . S
O18 Cd15 2.297 . S
O18 C20 1.247 . S
O19 Cd15 2.439 . S
O19 C20 1.208 . S
C20 O18 1.247 . S
C20 O19 1.208 . S
C21 O26 1.247 . S
C21 O27 1.208 . S
C22 O14 1.315 . S
C22 O17 1.279 . S
C23 O24 1.315 . S
C23 O25 1.279 . S
O24 Cd16 2.223 1_556 S
O24 C23 1.315 . S
O25 Cd15 2.240 1_556 S
O25 C23 1.279 . S
O26 Cd16 2.297 1_556 S
O26 C21 1.247 . S
O27 Cd16 2.439 1_556 S
O27 C21 1.208 . S
O28 Cd29 2.223 1_556 S
O28 C36 1.315 . S
Cd29 O28 2.223 1_554 S
Cd29 O32 2.297 1_554 S
Cd29 O33 2.418 1_554 S
Cd29 O39 2.240 . S
Cd30 O31 2.240 1_554 S
Cd30 O38 2.223 . S
Cd30 O40 2.297 . S
Cd30 O41 2.439 . S
O31 Cd30 2.240 1_556 S
O31 C36 1.279 1_565 S
O32 Cd29 2.297 1_556 S
O32 C34 1.247 . S
O33 Cd29 2.418 1_556 S
O33 C34 1.238 . S
C34 O32 1.247 . S
C34 O33 1.238 . S
C35 O40 1.247 . S
C35 O41 1.208 . S
C36 O28 1.315 . S
C36 O31 1.279 1_545 S
C37 O38 1.315 . S
C37 O39 1.279 1_565 S
O38 Cd30 2.223 . S
O38 C37 1.315 . S
O39 Cd29 2.240 . S
O39 C37 1.279 1_545 S
O40 Cd30 2.297 . S
O40 C35 1.247 . S
O41 Cd30 2.439 . S
O41 C35 1.208 . S
O42 Cd43 2.223 1_556 S
O42 C50 1.315 . S
Cd43 O42 2.223 1_554 S
Cd43 O46 2.297 1_554 S
Cd43 O47 2.439 1_554 S
Cd43 O53 2.240 . S
Cd44 O45 2.240 1_554 S
Cd44 O52 2.223 . S
Cd44 O54 2.297 . S
Cd44 O55 2.439 . S
O45 Cd44 2.240 1_556 S
O45 C50 1.279 1_455 S
O46 Cd43 2.297 1_556 S
O46 C48 1.247 . S
O47 Cd43 2.439 1_556 S
O47 C48 1.208 . S
C48 O46 1.247 . S
C48 O47 1.208 . S
C49 O54 1.247 . S
C49 O55 1.208 . S
C50 O42 1.315 . S
C50 O45 1.279 1_655 S
C51 O52 1.315 . S
C51 O53 1.279 1_455 S
O52 Cd44 2.223 . S
O52 C51 1.315 . S
O53 Cd43 2.240 . S
O53 C51 1.279 1_655 S
O54 Cd44 2.297 . S
O54 C49 1.247 . S
O55 Cd44 2.439 . S
O55 C49 1.208 . S
O56 Cd57 2.223 1_556 S
O56 C64 1.315 . S
Cd57 O56 2.223 1_554 S
Cd57 O60 2.297 1_554 S
Cd57 O61 2.439 1_554 S
Cd57 O67 2.240 . S
Cd58 O59 2.240 1_554 S
Cd58 O66 2.223 . S
Cd58 O68 2.297 . S
Cd58 O69 2.439 . S
O59 Cd58 2.240 1_556 S
O59 C64 1.279 . S
O60 Cd57 2.297 1_556 S
O60 C62 1.247 . S
O61 Cd57 2.439 1_556 S
O61 C62 1.208 . S
C62 O60 1.247 . S
C62 O61 1.208 . S
C63 O68 1.247 . S
C63 O69 1.208 . S
C64 O56 1.315 . S
C64 O59 1.279 . S
C65 O66 1.315 . S
C65 O67 1.279 . S
O66 Cd58 2.223 . S
O66 C65 1.315 . S
O67 Cd57 2.240 . S
O67 C65 1.279 . S
O68 Cd58 2.297 . S
O68 C63 1.247 . S
O69 Cd58 2.439 . S
O69 C63 1.208 . S
O70 Cd71 2.223 . S
O70 C78 1.315 . S
Cd71 O70 2.223 . S
Cd71 O74 2.297 . S
Cd71 O75 2.439 . S
Cd71 O81 2.240 1_554 S
Cd72 O73 2.240 . S
Cd72 O80 2.223 1_554 S
Cd72 O82 2.297 1_554 S
Cd72 O83 2.432 1_554 S
O73 Cd72 2.240 . S
O73 C78 1.279 1_545 S
O74 Cd71 2.297 . S
O74 C76 1.247 . S
O75 Cd71 2.439 . S
O75 C76 1.208 . S
C76 O74 1.247 . S
C76 O75 1.208 . S
C77 O82 1.247 . S
C77 O83 1.218 . S
C78 O70 1.315 . S
C78 O73 1.279 1_565 S
C79 O80 1.315 . S
C79 O81 1.279 1_545 S
O80 Cd72 2.223 1_556 S
O80 C79 1.315 . S
O81 Cd71 2.240 1_556 S
O81 C79 1.279 1_565 S
O82 Cd72 2.297 1_556 S
O82 C77 1.247 . S
O83 Cd72 2.432 1_556 S
O83 C77 1.218 . S
O84 Cd85 2.223 . S
O84 C92 1.315 . S
Cd85 O84 2.223 . S
Cd85 O88 2.297 . S
Cd85 O89 2.439 . S
Cd85 O95 2.240 . S
Cd86 O87 2.240 . S
Cd86 O94 2.223 . S
Cd86 O96 2.297 . S
Cd86 O97 2.439 . S
O87 Cd86 2.240 . S
O87 C92 1.279 . S
O88 Cd85 2.297 . S
O88 C90 1.247 . S
O89 Cd85 2.439 . S
O89 C90 1.208 . S
C90 O88 1.247 . S
C90 O89 1.208 . S
C91 O96 1.247 . S
C91 O97 1.208 . S
C92 O84 1.315 . S
C92 O87 1.279 . S
C93 O94 1.315 . S
C93 O95 1.279 . S
O94 Cd86 2.223 . S
O94 C93 1.315 . S
O95 Cd85 2.240 . S
O95 C93 1.279 . S
O96 Cd86 2.297 . S
O96 C91 1.247 . S
O97 Cd86 2.439 . S
O97 C91 1.208 . S
O98 Cd99 2.223 . S
O98 C106 1.315 . S
Cd99 O98 2.223 . S
Cd99 O102 2.297 1_565 S
Cd99 O103 2.439 1_565 S
Cd99 O109 2.240 . S
Cd100 O101 2.240 . S
Cd100 O108 2.223 . S
Cd100 O110 2.297 . S
Cd100 O111 2.439 . S
O101 Cd100 2.240 . S
O101 C106 1.279 . S
O102 Cd99 2.297 1_545 S
O102 C104 1.247 . S
O103 Cd99 2.439 1_545 S
O103 C104 1.208 . S
C104 O102 1.247 . S
C104 O103 1.208 . S
C105 O110 1.247 . S
C105 O111 1.208 . S
C106 O98 1.315 . S
C106 O101 1.279 . S
C107 O108 1.315 . S
C107 O109 1.279 . S
O108 Cd100 2.223 . S
O108 C107 1.315 . S
O109 Cd99 2.240 . S
O109 C107 1.279 . S
O110 Cd100 2.297 . S
O110 C105 1.247 . S
O111 Cd100 2.439 . S
O111 C105 1.208 . S
O112 Cd113 2.223 . S
O112 C120 1.315 . S
Cd113 O112 2.223 . S
Cd113 O116 2.297 . S
Cd113 O117 2.439 . S
Cd113 O123 2.240 . S
Cd114 O115 2.240 . S
Cd114 O122 2.223 . S
Cd114 O124 2.297 1_455 S
Cd114 O125 2.439 1_455 S
O115 Cd114 2.240 . S
O115 C120 1.279 . S
O116 Cd113 2.297 . S
O116 C118 1.247 . S
O117 Cd113 2.439 . S
O117 C118 1.208 . S
C118 O116 1.247 . S
C118 O117 1.208 . S
C119 O124 1.247 . S
C119 O125 1.208 . S
C120 O112 1.315 . S
C120 O115 1.279 . S
C121 O122 1.315 . S
C121 O123 1.279 . S
O122 Cd114 2.223 . S
O122 C121 1.315 . S
O123 Cd113 2.240 . S
O123 C121 1.279 . S
O124 Cd114 2.297 1_655 S
O124 C119 1.247 . S
O125 Cd114 2.439 1_655 S
O125 C119 1.208 . S
O126 Cd127 2.223 . S
O126 C134 1.315 . S
Cd127 O126 2.223 . S
Cd127 O130 2.297 . S
Cd127 O131 2.439 . S
Cd127 O137 2.240 . S
Cd128 O129 2.240 . S
Cd128 O136 2.223 . S
Cd128 O138 2.297 1_565 S
Cd128 O139 2.439 1_565 S
O129 Cd128 2.240 . S
O129 C134 1.279 . S
O130 Cd127 2.297 . S
O130 C132 1.247 . S
O131 Cd127 2.439 . S
O131 C132 1.208 . S
C132 O130 1.247 . S
C132 O131 1.208 . S
C133 O138 1.247 . S
C133 O139 1.208 . S
C134 O126 1.315 . S
C134 O129 1.279 . S
C135 O136 1.315 . S
C135 O137 1.279 . S
O136 Cd128 2.223 . S
O136 C135 1.315 . S
O137 Cd127 2.240 . S
O137 C135 1.279 . S
O138 Cd128 2.297 1_545 S
O138 C133 1.247 . S
O139 Cd128 2.439 1_545 S
O139 C133 1.208 . S
O140 Cd141 2.223 . S
O140 C148 1.315 . S
Cd141 O140 2.223 . S
Cd141 O144 2.297 . S
Cd141 O145 2.439 . S
Cd141 O151 2.240 . S
Cd142 O143 2.240 . S
Cd142 O150 2.223 . S
Cd142 O152 2.297 1_455 S
Cd142 O153 2.439 1_455 S
O143 Cd142 2.240 . S
O143 C148 1.279 . S
O144 Cd141 2.297 . S
O144 C146 1.247 . S
O145 Cd141 2.439 . S
O145 C146 1.208 . S
C146 O144 1.247 . S
C146 O145 1.208 . S
C147 O152 1.247 . S
C147 O153 1.208 . S
C148 O140 1.315 . S
C148 O143 1.279 . S
C149 O150 1.315 . S
C149 O151 1.279 . S
O150 Cd142 2.223 . S
O150 C149 1.315 . S
O151 Cd141 2.240 . S
O151 C149 1.279 . S
O152 Cd142 2.297 1_655 S
O152 C147 1.247 . S
O153 Cd142 2.439 1_655 S
O153 C147 1.208 . S
O154 Cd155 2.223 . S
O154 C162 1.315 . S
Cd155 O154 2.223 . S
Cd155 O158 2.297 . S
Cd155 O159 2.439 . S
Cd155 O165 2.240 . S
Cd156 O157 2.240 . S
Cd156 O164 2.223 . S
Cd156 O166 2.297 . S
Cd156 O167 2.439 . S
O157 Cd156 2.240 . S
O157 C162 1.279 . S
O158 Cd155 2.297 . S
O158 C160 1.247 . S
O159 Cd155 2.439 . S
O159 C160 1.208 . S
C160 O158 1.247 . S
C160 O159 1.208 . S
C161 O166 1.247 . S
C161 O167 1.208 . S
C162 O154 1.315 . S
C162 O157 1.279 . S
C163 O164 1.315 . S
C163 O165 1.279 . S
O164 Cd156 2.223 . S
O164 C163 1.315 . S
O165 Cd155 2.240 . S
O165 C163 1.279 . S
O166 Cd156 2.297 . S
O166 C161 1.247 . S
O167 Cd156 2.439 . S
O167 C161 1.208 . S
O168 Cd169 2.223 . S
O168 C176 1.315 . S
Cd169 O168 2.223 . S
Cd169 O172 2.297 . S
Cd169 O173 2.439 . S
Cd169 O179 2.240 . S
Cd170 O171 2.240 . S
Cd170 O178 2.223 . S
Cd170 O180 2.297 1_545 S
Cd170 O181 2.439 1_545 S
O171 Cd170 2.240 . S
O171 C176 1.279 . S
O172 Cd169 2.297 . S
O172 C174 1.247 . S
O173 Cd169 2.439 . S
O173 C174 1.208 . S
C174 O172 1.247 . S
C174 O173 1.208 . S
C175 O180 1.247 . S
C175 O181 1.208 . S
C176 O168 1.315 . S
C176 O171 1.279 . S
C177 O178 1.315 . S
C177 O179 1.279 . S
O178 Cd170 2.223 . S
O178 C177 1.315 . S
O179 Cd169 2.240 . S
O179 C177 1.279 . S
O180 Cd170 2.297 1_565 S
O180 C175 1.247 . S
O181 Cd170 2.439 1_565 S
O181 C175 1.208 . S
O182 Cd183 2.223 . S
O182 C190 1.315 . S
Cd183 O182 2.223 . S
Cd183 O186 2.297 . S
Cd183 O187 2.439 . S
Cd183 O193 2.240 . S
Cd184 O185 2.240 . S
Cd184 O192 2.223 . S
Cd184 O194 2.297 1_655 S
Cd184 O195 2.439 1_655 S
O185 Cd184 2.240 . S
O185 C190 1.279 . S
O186 Cd183 2.297 . S
O186 C188 1.247 . S
O187 Cd183 2.439 . S
O187 C188 1.208 . S
C188 O186 1.247 . S
C188 O187 1.208 . S
C189 O194 1.247 . S
C189 O195 1.208 . S
C190 O182 1.315 . S
C190 O185 1.279 . S
C191 O192 1.315 . S
C191 O193 1.279 . S
O192 Cd184 2.223 . S
O192 C191 1.315 . S
O193 Cd183 2.240 . S
O193 C191 1.279 . S
O194 Cd184 2.297 1_455 S
O194 C189 1.247 . S
O195 Cd184 2.439 1_455 S
O195 C189 1.208 . S
O196 Cd197 2.223 . S
O196 C204 1.315 . S
Cd197 O196 2.223 . S
Cd197 O200 2.297 . S
Cd197 O201 2.439 . S
Cd197 O207 2.240 . S
Cd198 O199 2.240 . S
Cd198 O206 2.223 . S
Cd198 O208 2.297 . S
Cd198 O209 2.439 . S
O199 Cd198 2.240 . S
O199 C204 1.279 . S
O200 Cd197 2.297 . S
O200 C202 1.247 . S
O201 Cd197 2.439 . S
O201 C202 1.208 . S
C202 O200 1.247 . S
C202 O201 1.208 . S
C203 O208 1.247 . S
C203 O209 1.208 . S
C204 O196 1.315 . S
C204 O199 1.279 . S
C205 O206 1.315 . S
C205 O207 1.279 . S
O206 Cd198 2.223 . S
O206 C205 1.315 . S
O207 Cd197 2.240 . S
O207 C205 1.279 . S
O208 Cd198 2.297 . S
O208 C203 1.247 . S
O209 Cd198 2.439 . S
O209 C203 1.208 . S
O210 Cd211 2.223 . S
O210 C218 1.315 . S
Cd211 O210 2.223 . S
Cd211 O214 2.297 . S
Cd211 O215 2.439 . S
Cd211 O221 2.240 . S
Cd212 O213 2.240 . S
Cd212 O220 2.223 . S
Cd212 O222 2.297 . S
Cd212 O223 2.439 . S
O213 Cd212 2.240 . S
O213 C218 1.279 . S
O214 Cd211 2.297 . S
O214 C216 1.247 . S
O215 Cd211 2.439 . S
O215 C216 1.208 . S
C216 O214 1.247 . S
C216 O215 1.208 . S
C217 O222 1.247 . S
C217 O223 1.208 . S
C218 O210 1.315 . S
C218 O213 1.279 . S
C219 O220 1.315 . S
C219 O221 1.279 . S
O220 Cd212 2.223 . S
O220 C219 1.315 . S
O221 Cd211 2.240 . S
O221 C219 1.279 . S
O222 Cd212 2.297 . S
O222 C217 1.247 . S
O223 Cd212 2.439 . S
O223 C217 1.208 . S
O224 Cd225 2.223 . S
O224 C232 1.315 . S
Cd225 O224 2.223 . S
Cd225 O228 2.297 1_545 S
Cd225 O229 2.439 1_545 S
Cd225 O235 2.240 . S
Cd226 O227 2.240 . S
Cd226 O234 2.223 . S
Cd226 O236 2.297 . S
Cd226 O237 2.439 . S
O227 Cd226 2.240 . S
O227 C232 1.279 . S
O228 Cd225 2.297 1_565 S
O228 C230 1.247 . S
O229 Cd225 2.439 1_565 S
O229 C230 1.208 . S
C230 O228 1.247 . S
C230 O229 1.208 . S
C231 O236 1.247 . S
C231 O237 1.208 . S
C232 O224 1.315 . S
C232 O227 1.279 . S
C233 O234 1.315 . S
C233 O235 1.279 . S
O234 Cd226 2.223 . S
O234 C233 1.315 . S
O235 Cd225 2.240 . S
O235 C233 1.279 . S
O236 Cd226 2.297 . S
O236 C231 1.247 . S
O237 Cd226 2.439 . S
O237 C231 1.208 . S
O238 Cd239 2.223 . S
O238 C246 1.315 . S
Cd239 O238 2.223 . S
Cd239 O242 2.297 . S
Cd239 O243 2.439 . S
Cd239 O249 2.240 . S
Cd240 O241 2.240 . S
Cd240 O248 2.223 . S
Cd240 O250 2.297 1_655 S
Cd240 O251 2.439 1_655 S
O241 Cd240 2.240 . S
O241 C246 1.279 . S
O242 Cd239 2.297 . S
O242 C244 1.247 . S
O243 Cd239 2.439 . S
O243 C244 1.208 . S
C244 O242 1.247 . S
C244 O243 1.208 . S
C245 O250 1.247 . S
C245 O251 1.208 . S
C246 O238 1.315 . S
C246 O241 1.279 . S
C247 O248 1.315 . S
C247 O249 1.279 . S
O248 Cd240 2.223 . S
O248 C247 1.315 . S
O249 Cd239 2.240 . S
O249 C247 1.279 . S
O250 Cd240 2.297 1_455 S
O250 C245 1.247 . S
O251 Cd240 2.439 1_455 S
O251 C245 1.208 . S
H252 C271 0.949 . S
H253 C272 0.950 . S
H254 C274 0.950 . S
H255 C275 0.950 . S
H256 C277 0.950 . S
H257 C280 0.950 . S
H258 C281 0.950 . S
H259 C283 0.951 . S
H260 C284 0.949 . S
H261 C286 0.949 . S
H262 C287 0.950 . S
H263 C289 0.950 . S
H264 C290 0.950 . S
H265 C292 0.950 . S
H266 C295 0.950 . S
H267 C296 0.950 . S
H268 C298 0.951 . S
H269 C299 0.949 . S
C270 C271 1.376 . S
C270 C275 1.386 . S
C270 C276 1.483 . S
C271 H252 0.949 . S
C271 C270 1.376 . S
C271 C272 1.397 . S
C272 H253 0.950 . S
C272 C271 1.397 . S
C272 C273 1.391 . S
C273 C272 1.391 . S
C273 C274 1.405 . S
C274 H254 0.950 . S
C274 C273 1.405 . S
C274 C275 1.367 . S
C275 H255 0.950 . S
C275 C270 1.386 . S
C275 C274 1.367 . S
C276 C270 1.483 . S
C276 C277 1.382 . S
C276 C278 1.403 . S
C277 H256 0.950 . S
C277 C276 1.382 . S
C277 C293 1.411 . S
C278 C276 1.403 . S
C278 C279 1.489 . S
C278 C292 1.411 . S
C279 C278 1.489 . S
C279 C280 1.383 . S
C279 C284 1.382 . S
C280 H257 0.950 . S
C280 C279 1.383 . S
C280 C281 1.395 . S
C281 H258 0.950 . S
C281 C280 1.395 . S
C281 C282 1.288 . S
C282 C281 1.288 . S
C282 C283 1.392 . S
C283 H259 0.951 . S
C283 C282 1.392 . S
C283 C284 1.392 . S
C284 H260 0.949 . S
C284 C279 1.382 . S
C284 C283 1.392 . S
C285 C286 1.376 . S
C285 C290 1.386 . S
C285 C291 1.483 . S
C286 H261 0.949 . S
C286 C285 1.376 . S
C286 C287 1.397 . S
C287 H262 0.950 . S
C287 C286 1.397 . S
C287 C288 1.391 . S
C288 C287 1.391 . S
C288 C289 1.405 . S
C289 H263 0.950 . S
C289 C288 1.405 . S
C289 C290 1.367 . S
C290 H264 0.950 . S
C290 C285 1.386 . S
C290 C289 1.367 . S
C291 C285 1.483 . S
C291 C292 1.382 . S
C291 C293 1.403 . S
C292 H265 0.950 . S
C292 C278 1.411 . S
C292 C291 1.382 . S
C293 C277 1.411 . S
C293 C291 1.403 . S
C293 C294 1.489 . S
C294 C293 1.489 . S
C294 C295 1.383 . S
C294 C299 1.382 . S
C295 H266 0.950 . S
C295 C294 1.383 . S
C295 C296 1.395 . S
C296 H267 0.950 . S
C296 C295 1.395 . S
C296 C297 1.288 . S
C297 C296 1.288 . S
C297 C298 1.392 . S
C298 H268 0.951 . S
C298 C297 1.392 . S
C298 C299 1.392 . S
C299 H269 0.949 . S
C299 C294 1.382 . S
C299 C298 1.392 . S
H300 C319 0.949 . S
H301 C320 0.950 . S
H302 C322 0.950 . S
H303 C323 0.950 . S
H304 C325 0.950 . S
H305 C328 0.950 . S
H306 C329 0.950 . S
H307 C331 0.951 . S
H308 C332 0.949 . S
H309 C334 0.949 . S
H310 C335 0.950 . S
H311 C337 0.950 . S
H312 C338 0.950 . S
H313 C340 0.950 . S
H314 C343 0.950 . S
H315 C344 0.950 . S
H316 C346 0.951 . S
H317 C347 0.949 . S
C318 C319 1.376 . S
C318 C323 1.386 . S
C318 C324 1.483 . S
C319 H300 0.949 . S
C319 C318 1.376 . S
C319 C320 1.397 . S
C320 H301 0.950 . S
C320 C319 1.397 . S
C320 C321 1.391 . S
C321 C320 1.391 . S
C321 C322 1.405 . S
C322 H302 0.950 . S
C322 C321 1.405 . S
C322 C323 1.367 . S
C323 H303 0.950 . S
C323 C318 1.386 . S
C323 C322 1.367 . S
C324 C318 1.483 . S
C324 C325 1.382 . S
C324 C326 1.403 . S
C325 H304 0.950 . S
C325 C324 1.382 . S
C325 C341 1.411 . S
C326 C324 1.403 . S
C326 C327 1.489 . S
C326 C340 1.411 . S
C327 C326 1.489 . S
C327 C328 1.383 . S
C327 C332 1.382 . S
C328 H305 0.950 . S
C328 C327 1.383 . S
C328 C329 1.395 . S
C329 H306 0.950 . S
C329 C328 1.395 . S
C329 C330 1.288 . S
C330 C329 1.288 . S
C330 C331 1.392 . S
C331 H307 0.951 . S
C331 C330 1.392 . S
C331 C332 1.392 . S
C332 H308 0.949 . S
C332 C327 1.382 . S
C332 C331 1.392 . S
C333 C334 1.376 . S
C333 C338 1.386 . S
C333 C339 1.483 . S
C334 H309 0.949 . S
C334 C333 1.376 . S
C334 C335 1.397 . S
C335 H310 0.950 . S
C335 C334 1.397 . S
C335 C336 1.391 . S
C336 C335 1.391 . S
C336 C337 1.405 . S
C337 H311 0.950 . S
C337 C336 1.405 . S
C337 C338 1.367 . S
C338 H312 0.950 . S
C338 C333 1.386 . S
C338 C337 1.367 . S
C339 C333 1.483 . S
C339 C340 1.382 . S
C339 C341 1.403 . S
C340 H313 0.950 . S
C340 C326 1.411 . S
C340 C339 1.382 . S
C341 C325 1.411 . S
C341 C339 1.403 . S
C341 C342 1.489 . S
C342 C341 1.489 . S
C342 C343 1.383 . S
C342 C347 1.382 . S
C343 H314 0.950 . S
C343 C342 1.383 . S
C343 C344 1.395 . S
C344 H315 0.950 . S
C344 C343 1.395 . S
C344 C345 1.288 . S
C345 C344 1.288 . S
C345 C346 1.392 . S
C346 H316 0.951 . S
C346 C345 1.392 . S
C346 C347 1.392 . S
C347 H317 0.949 . S
C347 C342 1.382 . S
C347 C346 1.392 . S
H348 C367 0.949 . S
H349 C368 0.950 . S
H350 C370 0.950 . S
H351 C371 0.950 . S
H352 C373 0.950 . S
H353 C376 0.950 . S
H354 C377 0.950 . S
H355 C379 0.951 . S
H356 C380 0.949 . S
H357 C382 0.949 . S
H358 C383 0.950 . S
H359 C385 0.950 . S
H360 C386 0.950 . S
H361 C388 0.950 . S
H362 C391 0.950 . S
H363 C392 0.950 . S
H364 C394 0.951 . S
H365 C395 0.949 . S
C366 C367 1.376 . S
C366 C371 1.386 . S
C366 C372 1.483 . S
C367 H348 0.949 . S
C367 C366 1.376 . S
C367 C368 1.397 . S
C368 H349 0.950 . S
C368 C367 1.397 . S
C368 C369 1.391 . S
C369 C368 1.391 . S
C369 C370 1.405 . S
C370 H350 0.950 . S
C370 C369 1.405 . S
C370 C371 1.367 . S
C371 H351 0.950 . S
C371 C366 1.386 . S
C371 C370 1.367 . S
C372 C366 1.483 . S
C372 C373 1.382 . S
C372 C374 1.403 . S
C373 H352 0.950 . S
C373 C372 1.382 . S
C373 C389 1.411 . S
C374 C372 1.403 . S
C374 C375 1.489 . S
C374 C388 1.411 . S
C375 C374 1.489 . S
C375 C376 1.383 . S
C375 C380 1.382 . S
C376 H353 0.950 . S
C376 C375 1.383 . S
C376 C377 1.395 . S
C377 H354 0.950 . S
C377 C376 1.395 . S
C377 C378 1.288 . S
C378 C377 1.288 . S
C378 C379 1.392 . S
C379 H355 0.951 . S
C379 C378 1.392 . S
C379 C380 1.392 . S
C380 H356 0.949 . S
C380 C375 1.382 . S
C380 C379 1.392 . S
C381 C382 1.376 . S
C381 C386 1.386 . S
C381 C387 1.483 . S
C382 H357 0.949 . S
C382 C381 1.376 . S
C382 C383 1.397 . S
C383 H358 0.950 . S
C383 C382 1.397 . S
C383 C384 1.391 . S
C384 C383 1.391 . S
C384 C385 1.405 . S
C385 H359 0.950 . S
C385 C384 1.405 . S
C385 C386 1.367 . S
C386 H360 0.950 . S
C386 C381 1.386 . S
C386 C385 1.367 . S
C387 C381 1.483 . S
C387 C388 1.382 . S
C387 C389 1.403 . S
C388 H361 0.950 . S
C388 C374 1.411 . S
C388 C387 1.382 . S
C389 C373 1.411 . S
C389 C387 1.403 . S
C389 C390 1.489 . S
C390 C389 1.489 . S
C390 C391 1.383 . S
C390 C395 1.382 . S
C391 H362 0.950 . S
C391 C390 1.383 . S
C391 C392 1.395 . S
C392 H363 0.950 . S
C392 C391 1.395 . S
C392 C393 1.288 . S
C393 C392 1.288 . S
C393 C394 1.392 . S
C394 H364 0.951 . S
C394 C393 1.392 . S
C394 C395 1.392 . S
C395 H365 0.949 . S
C395 C390 1.382 . S
C395 C394 1.392 . S
H396 C415 0.949 . S
H397 C416 0.950 . S
H398 C418 0.950 . S
H399 C419 0.950 . S
H400 C421 0.950 . S
H401 C424 0.950 . S
H402 C425 0.950 . S
H403 C427 0.951 . S
H404 C428 0.949 . S
H405 C430 0.949 . S
H406 C431 0.950 . S
H407 C433 0.950 . S
H408 C434 0.950 . S
H409 C436 0.950 . S
H410 C439 0.950 . S
H411 C440 0.950 . S
H412 C442 0.951 . S
H413 C443 0.949 . S
C414 C415 1.376 . S
C414 C419 1.386 . S
C414 C420 1.483 . S
C415 H396 0.949 . S
C415 C414 1.376 . S
C415 C416 1.397 . S
C416 H397 0.950 . S
C416 C415 1.397 . S
C416 C417 1.391 . S
C417 C416 1.391 . S
C417 C418 1.405 . S
C418 H398 0.950 . S
C418 C417 1.405 . S
C418 C419 1.367 . S
C419 H399 0.950 . S
C419 C414 1.386 . S
C419 C418 1.367 . S
C420 C414 1.483 . S
C420 C421 1.382 . S
C420 C422 1.403 . S
C421 H400 0.950 . S
C421 C420 1.382 . S
C421 C437 1.411 . S
C422 C420 1.403 . S
C422 C423 1.489 . S
C422 C436 1.411 . S
C423 C422 1.489 . S
C423 C424 1.383 . S
C423 C428 1.382 . S
C424 H401 0.950 . S
C424 C423 1.383 . S
C424 C425 1.395 . S
C425 H402 0.950 . S
C425 C424 1.395 . S
C425 C426 1.288 . S
C426 C425 1.288 . S
C426 C427 1.392 . S
C427 H403 0.951 . S
C427 C426 1.392 . S
C427 C428 1.392 . S
C428 H404 0.949 . S
C428 C423 1.382 . S
C428 C427 1.392 . S
C429 C430 1.376 . S
C429 C434 1.386 . S
C429 C435 1.483 . S
C430 H405 0.949 . S
C430 C429 1.376 . S
C430 C431 1.397 . S
C431 H406 0.950 . S
C431 C430 1.397 . S
C431 C432 1.391 . S
C432 C431 1.391 . S
C432 C433 1.405 . S
C433 H407 0.950 . S
C433 C432 1.405 . S
C433 C434 1.367 . S
C434 H408 0.950 . S
C434 C429 1.386 . S
C434 C433 1.367 . S
C435 C429 1.483 . S
C435 C436 1.382 . S
C435 C437 1.403 . S
C436 H409 0.950 . S
C436 C422 1.411 . S
C436 C435 1.382 . S
C437 C421 1.411 . S
C437 C435 1.403 . S
C437 C438 1.489 . S
C438 C437 1.489 . S
C438 C439 1.383 . S
C438 C443 1.382 . S
C439 H410 0.950 . S
C439 C438 1.383 . S
C439 C440 1.395 . S
C440 H411 0.950 . S
C440 C439 1.395 . S
C440 C441 1.288 . S
C441 C440 1.288 . S
C441 C442 1.392 . S
C442 H412 0.951 . S
C442 C441 1.392 . S
C442 C443 1.392 . S
C443 H413 0.949 . S
C443 C438 1.382 . S
C443 C442 1.392 . S
H444 C463 0.949 . S
H445 C464 0.950 . S
H446 C466 0.950 . S
H447 C467 0.950 . S
H448 C469 0.950 . S
H449 C472 0.950 . S
H450 C473 0.950 . S
H451 C475 0.951 . S
H452 C476 0.949 . S
H453 C478 0.949 . S
H454 C479 0.950 . S
H455 C481 0.950 . S
H456 C482 0.950 . S
H457 C484 0.950 . S
H458 C487 0.950 . S
H459 C488 0.950 . S
H460 C490 0.951 . S
H461 C491 0.949 . S
C462 C463 1.376 . S
C462 C467 1.386 . S
C462 C468 1.483 . S
C463 H444 0.949 . S
C463 C462 1.376 . S
C463 C464 1.397 . S
C464 H445 0.950 . S
C464 C463 1.397 . S
C464 C465 1.391 . S
C465 C464 1.391 . S
C465 C466 1.405 . S
C466 H446 0.950 . S
C466 C465 1.405 . S
C466 C467 1.367 . S
C467 H447 0.950 . S
C467 C462 1.386 . S
C467 C466 1.367 . S
C468 C462 1.483 . S
C468 C469 1.382 . S
C468 C470 1.403 . S
C469 H448 0.950 . S
C469 C468 1.382 . S
C469 C485 1.411 . S
C470 C468 1.403 . S
C470 C471 1.489 . S
C470 C484 1.411 . S
C471 C470 1.489 . S
C471 C472 1.383 . S
C471 C476 1.382 . S
C472 H449 0.950 . S
C472 C471 1.383 . S
C472 C473 1.395 . S
C473 H450 0.950 . S
C473 C472 1.395 . S
C473 C474 1.288 . S
C474 C473 1.288 . S
C474 C475 1.392 . S
C475 H451 0.951 . S
C475 C474 1.392 . S
C475 C476 1.392 . S
C476 H452 0.949 . S
C476 C471 1.382 . S
C476 C475 1.392 . S
C477 C478 1.376 . S
C477 C482 1.386 . S
C477 C483 1.483 . S
C478 H453 0.949 . S
C478 C477 1.376 . S
C478 C479 1.397 . S
C479 H454 0.950 . S
C479 C478 1.397 . S
C479 C480 1.391 . S
C480 C479 1.391 . S
C480 C481 1.405 . S
C481 H455 0.950 . S
C481 C480 1.405 . S
C481 C482 1.367 . S
C482 H456 0.950 . S
C482 C477 1.386 . S
C482 C481 1.367 . S
C483 C477 1.483 . S
C483 C484 1.382 . S
C483 C485 1.403 . S
C484 H457 0.950 . S
C484 C470 1.411 . S
C484 C483 1.382 . S
C485 C469 1.411 . S
C485 C483 1.403 . S
C485 C486 1.489 . S
C486 C485 1.489 . S
C486 C487 1.383 . S
C486 C491 1.382 . S
C487 H458 0.950 . S
C487 C486 1.383 . S
C487 C488 1.395 . S
C488 H459 0.950 . S
C488 C487 1.395 . S
C488 C489 1.288 . S
C489 C488 1.288 . S
C489 C490 1.392 . S
C490 H460 0.951 . S
C490 C489 1.392 . S
C490 C491 1.392 . S
C491 H461 0.949 . S
C491 C486 1.382 . S
C491 C490 1.392 . S
H492 C511 0.949 . S
H493 C512 0.950 . S
H494 C514 0.950 . S
H495 C515 0.950 . S
H496 C517 0.950 . S
H497 C520 0.950 . S
H498 C521 0.950 . S
H499 C523 0.951 . S
H500 C524 0.949 . S
H501 C526 0.949 . S
H502 C527 0.950 . S
H503 C529 0.950 . S
H504 C530 0.950 . S
H505 C532 0.950 . S
H506 C535 0.950 . S
H507 C536 0.950 . S
H508 C538 0.951 . S
H509 C539 0.949 . S
C510 C511 1.376 . S
C510 C515 1.386 . S
C510 C516 1.483 . S
C511 H492 0.949 . S
C511 C510 1.376 . S
C511 C512 1.397 . S
C512 H493 0.950 . S
C512 C511 1.397 . S
C512 C513 1.391 . S
C513 C512 1.391 . S
C513 C514 1.405 . S
C514 H494 0.950 . S
C514 C513 1.405 . S
C514 C515 1.367 . S
C515 H495 0.950 . S
C515 C510 1.386 . S
C515 C514 1.367 . S
C516 C510 1.483 . S
C516 C517 1.382 . S
C516 C518 1.403 . S
C517 H496 0.950 . S
C517 C516 1.382 . S
C517 C533 1.411 . S
C518 C516 1.403 . S
C518 C519 1.489 . S
C518 C532 1.411 . S
C519 C518 1.489 . S
C519 C520 1.383 . S
C519 C524 1.382 . S
C520 H497 0.950 . S
C520 C519 1.383 . S
C520 C521 1.395 . S
C521 H498 0.950 . S
C521 C520 1.395 . S
C521 C522 1.288 . S
C522 C521 1.288 . S
C522 C523 1.392 . S
C523 H499 0.951 . S
C523 C522 1.392 . S
C523 C524 1.392 . S
C524 H500 0.949 . S
C524 C519 1.382 . S
C524 C523 1.392 . S
C525 C526 1.376 . S
C525 C530 1.386 . S
C525 C531 1.483 . S
C526 H501 0.949 . S
C526 C525 1.376 . S
C526 C527 1.397 . S
C527 H502 0.950 . S
C527 C526 1.397 . S
C527 C528 1.391 . S
C528 C527 1.391 . S
C528 C529 1.405 . S
C529 H503 0.950 . S
C529 C528 1.405 . S
C529 C530 1.367 . S
C530 H504 0.950 . S
C530 C525 1.386 . S
C530 C529 1.367 . S
C531 C525 1.483 . S
C531 C532 1.382 . S
C531 C533 1.403 . S
C532 H505 0.950 . S
C532 C518 1.411 . S
C532 C531 1.382 . S
C533 C517 1.411 . S
C533 C531 1.403 . S
C533 C534 1.489 . S
C534 C533 1.489 . S
C534 C535 1.383 . S
C534 C539 1.382 . S
C535 H506 0.950 . S
C535 C534 1.383 . S
C535 C536 1.395 . S
C536 H507 0.950 . S
C536 C535 1.395 . S
C536 C537 1.288 . S
C537 C536 1.288 . S
C537 C538 1.392 . S
C538 H508 0.951 . S
C538 C537 1.392 . S
C538 C539 1.392 . S
C539 H509 0.949 . S
C539 C534 1.382 . S
C539 C538 1.392 . S
H540 C559 0.949 . S
H541 C560 0.950 . S
H542 C562 0.950 . S
H543 C563 0.950 . S
H544 C565 0.950 . S
H545 C568 0.950 . S
H546 C569 0.950 . S
H547 C571 0.951 . S
H548 C572 0.949 . S
H549 C574 0.949 . S
H550 C575 0.950 . S
H551 C577 0.950 . S
H552 C578 0.950 . S
H553 C580 0.950 . S
H554 C583 0.950 . S
H555 C584 0.950 . S
H556 C586 0.951 . S
H557 C587 0.949 . S
C558 C559 1.376 . S
C558 C563 1.386 . S
C558 C564 1.483 . S
C559 H540 0.949 . S
C559 C558 1.376 . S
C559 C560 1.397 . S
C560 H541 0.950 . S
C560 C559 1.397 . S
C560 C561 1.391 . S
C561 C560 1.391 . S
C561 C562 1.405 . S
C562 H542 0.950 . S
C562 C561 1.405 . S
C562 C563 1.367 . S
C563 H543 0.950 . S
C563 C558 1.386 . S
C563 C562 1.367 . S
C564 C558 1.483 . S
C564 C565 1.382 . S
C564 C566 1.403 . S
C565 H544 0.950 . S
C565 C564 1.382 . S
C565 C581 1.411 . S
C566 C564 1.403 . S
C566 C567 1.489 . S
C566 C580 1.411 . S
C567 C566 1.489 . S
C567 C568 1.383 . S
C567 C572 1.382 . S
C568 H545 0.950 . S
C568 C567 1.383 . S
C568 C569 1.395 . S
C569 H546 0.950 . S
C569 C568 1.395 . S
C569 C570 1.288 . S
C570 C569 1.288 . S
C570 C571 1.392 . S
C571 H547 0.951 . S
C571 C570 1.392 . S
C571 C572 1.392 . S
C572 H548 0.949 . S
C572 C567 1.382 . S
C572 C571 1.392 . S
C573 C574 1.376 . S
C573 C578 1.386 . S
C573 C579 1.483 . S
C574 H549 0.949 . S
C574 C573 1.376 . S
C574 C575 1.397 . S
C575 H550 0.950 . S
C575 C574 1.397 . S
C575 C576 1.391 . S
C576 C575 1.391 . S
C576 C577 1.405 . S
C577 H551 0.950 . S
C577 C576 1.405 . S
C577 C578 1.367 . S
C578 H552 0.950 . S
C578 C573 1.386 . S
C578 C577 1.367 . S
C579 C573 1.483 . S
C579 C580 1.382 . S
C579 C581 1.403 . S
C580 H553 0.950 . S
C580 C566 1.411 . S
C580 C579 1.382 . S
C581 C565 1.411 . S
C581 C579 1.403 . S
C581 C582 1.489 . S
C582 C581 1.489 . S
C582 C583 1.383 . S
C582 C587 1.382 . S
C583 H554 0.950 . S
C583 C582 1.383 . S
C583 C584 1.395 . S
C584 H555 0.950 . S
C584 C583 1.395 . S
C584 C585 1.288 . S
C585 C584 1.288 . S
C585 C586 1.392 . S
C586 H556 0.951 . S
C586 C585 1.392 . S
C586 C587 1.392 . S
C587 H557 0.949 . S
C587 C582 1.382 . S
C587 C586 1.392 . S
H588 C607 0.949 . S
H589 C608 0.950 . S
H590 C610 0.950 . S
H591 C611 0.950 . S
H592 C613 0.950 . S
H593 C616 0.950 . S
H594 C617 0.950 . S
H595 C619 0.951 . S
H596 C620 0.949 . S
H597 C622 0.949 . S
H598 C623 0.950 . S
H599 C625 0.950 . S
H600 C626 0.950 . S
H601 C628 0.950 . S
H602 C631 0.950 . S
H603 C632 0.950 . S
H604 C634 0.951 . S
H605 C635 0.949 . S
C606 C607 1.376 . S
C606 C611 1.386 . S
C606 C612 1.483 . S
C607 H588 0.949 . S
C607 C606 1.376 . S
C607 C608 1.397 . S
C608 H589 0.950 . S
C608 C607 1.397 . S
C608 C609 1.391 . S
C609 C608 1.391 . S
C609 C610 1.405 . S
C610 H590 0.950 . S
C610 C609 1.405 . S
C610 C611 1.367 . S
C611 H591 0.950 . S
C611 C606 1.386 . S
C611 C610 1.367 . S
C612 C606 1.483 . S
C612 C613 1.382 . S
C612 C614 1.403 . S
C613 H592 0.950 . S
C613 C612 1.382 . S
C613 C629 1.411 . S
C614 C612 1.403 . S
C614 C615 1.489 . S
C614 C628 1.411 . S
C615 C614 1.489 . S
C615 C616 1.383 . S
C615 C620 1.382 . S
C616 H593 0.950 . S
C616 C615 1.383 . S
C616 C617 1.395 . S
C617 H594 0.950 . S
C617 C616 1.395 . S
C617 C618 1.288 . S
C618 C617 1.288 . S
C618 C619 1.392 . S
C619 H595 0.951 . S
C619 C618 1.392 . S
C619 C620 1.392 . S
C620 H596 0.949 . S
C620 C615 1.382 . S
C620 C619 1.392 . S
C621 C622 1.376 . S
C621 C626 1.386 . S
C621 C627 1.483 . S
C622 H597 0.949 . S
C622 C621 1.376 . S
C622 C623 1.397 . S
C623 H598 0.950 . S
C623 C622 1.397 . S
C623 C624 1.391 . S
C624 C623 1.391 . S
C624 C625 1.405 . S
C625 H599 0.950 . S
C625 C624 1.405 . S
C625 C626 1.367 . S
C626 H600 0.950 . S
C626 C621 1.386 . S
C626 C625 1.367 . S
C627 C621 1.483 . S
C627 C628 1.382 . S
C627 C629 1.403 . S
C628 H601 0.950 . S
C628 C614 1.411 . S
C628 C627 1.382 . S
C629 C613 1.411 . S
C629 C627 1.403 . S
C629 C630 1.489 . S
C630 C629 1.489 . S
C630 C631 1.383 . S
C630 C635 1.382 . S
C631 H602 0.950 . S
C631 C630 1.383 . S
C631 C632 1.395 . S
C632 H603 0.950 . S
C632 C631 1.395 . S
C632 C633 1.288 . S
C633 C632 1.288 . S
C633 C634 1.392 . S
C634 H604 0.951 . S
C634 C633 1.392 . S
C634 C635 1.392 . S
C635 H605 0.949 . S
C635 C630 1.382 . S
C635 C634 1.392 . S
H636 C655 0.949 . S
H637 C656 0.950 . S
H638 C658 0.950 . S
H639 C659 0.950 . S
H640 C661 0.950 . S
H641 C664 0.950 . S
H642 C665 0.950 . S
H643 C667 0.951 . S
H644 C668 0.949 . S
H645 C670 0.949 . S
H646 C671 0.950 . S
H647 C673 0.950 . S
H648 C674 0.950 . S
H649 C676 0.950 . S
H650 C679 0.950 . S
H651 C680 0.950 . S
H652 C682 0.951 . S
H653 C683 0.949 . S
C654 C655 1.376 . S
C654 C659 1.386 . S
C654 C660 1.483 . S
C655 H636 0.949 . S
C655 C654 1.376 . S
C655 C656 1.397 . S
C656 H637 0.950 . S
C656 C655 1.397 . S
C656 C657 1.391 . S
C657 C656 1.391 . S
C657 C658 1.405 . S
C658 H638 0.950 . S
C658 C657 1.405 . S
C658 C659 1.367 . S
C659 H639 0.950 . S
C659 C654 1.386 . S
C659 C658 1.367 . S
C660 C654 1.483 . S
C660 C661 1.382 . S
C660 C662 1.403 . S
C661 H640 0.950 . S
C661 C660 1.382 . S
C661 C677 1.411 . S
C662 C660 1.403 . S
C662 C663 1.489 . S
C662 C676 1.411 . S
C663 C662 1.489 . S
C663 C664 1.383 . S
C663 C668 1.382 . S
C664 H641 0.950 . S
C664 C663 1.383 . S
C664 C665 1.395 . S
C665 H642 0.950 . S
C665 C664 1.395 . S
C665 C666 1.288 . S
C666 C665 1.288 . S
C666 C667 1.392 . S
C667 H643 0.951 . S
C667 C666 1.392 . S
C667 C668 1.392 . S
C668 H644 0.949 . S
C668 C663 1.382 . S
C668 C667 1.392 . S
C669 C670 1.376 . S
C669 C674 1.386 . S
C669 C675 1.483 . S
C670 H645 0.949 . S
C670 C669 1.376 . S
C670 C671 1.397 . S
C671 H646 0.950 . S
C671 C670 1.397 . S
C671 C672 1.391 . S
C672 C671 1.391 . S
C672 C673 1.405 . S
C673 H647 0.950 . S
C673 C672 1.405 . S
C673 C674 1.367 . S
C674 H648 0.950 . S
C674 C669 1.386 . S
C674 C673 1.367 . S
C675 C669 1.483 . S
C675 C676 1.382 . S
C675 C677 1.403 . S
C676 H649 0.950 . S
C676 C662 1.411 . S
C676 C675 1.382 . S
C677 C661 1.411 . S
C677 C675 1.403 . S
C677 C678 1.489 . S
C678 C677 1.489 . S
C678 C679 1.383 . S
C678 C683 1.382 . S
C679 H650 0.950 . S
C679 C678 1.383 . S
C679 C680 1.395 . S
C680 H651 0.950 . S
C680 C679 1.395 . S
C680 C681 1.288 . S
C681 C680 1.288 . S
C681 C682 1.392 . S
C682 H652 0.951 . S
C682 C681 1.392 . S
C682 C683 1.392 . S
C683 H653 0.949 . S
C683 C678 1.382 . S
C683 C682 1.392 . S
H684 C703 0.949 . S
H685 C704 0.950 . S
H686 C706 0.950 . S
H687 C707 0.950 . S
H688 C709 0.950 . S
H689 C712 0.950 . S
H690 C713 0.950 . S
H691 C715 0.951 . S
H692 C716 0.949 . S
H693 C718 0.949 . S
H694 C719 0.950 . S
H695 C721 0.950 . S
H696 C722 0.950 . S
H697 C724 0.950 . S
H698 C727 0.950 . S
H699 C728 0.950 . S
H700 C730 0.951 . S
H701 C731 0.949 . S
C702 C703 1.376 . S
C702 C707 1.386 1_655 S
C702 C708 1.483 . S
C703 H684 0.949 . S
C703 C702 1.376 . S
C703 C704 1.397 . S
C704 H685 0.950 . S
C704 C703 1.397 . S
C704 C705 1.391 . S
C705 C704 1.391 . S
C705 C706 1.405 1_655 S
C706 H686 0.950 . S
C706 C705 1.405 1_455 S
C706 C707 1.367 . S
C707 H687 0.950 . S
C707 C702 1.386 1_455 S
C707 C706 1.367 . S
C708 C702 1.483 . S
C708 C709 1.382 . S
C708 C710 1.403 1_655 S
C709 H688 0.950 . S
C709 C708 1.382 . S
C709 C725 1.411 . S
C710 C708 1.403 1_455 S
C710 C711 1.489 . S
C710 C724 1.411 . S
C711 C710 1.489 . S
C711 C712 1.383 1_455 S
C711 C716 1.382 . S
C712 H689 0.950 . S
C712 C711 1.383 1_655 S
C712 C713 1.395 . S
C713 H690 0.950 . S
C713 C712 1.395 . S
C713 C714 1.288 1_655 S
C714 C713 1.288 1_455 S
C714 C715 1.392 . S
C715 H691 0.951 . S
C715 C714 1.392 . S
C715 C716 1.392 . S
C716 H692 0.949 . S
C716 C711 1.382 . S
C716 C715 1.392 . S
C717 C718 1.376 . S
C717 C722 1.386 1_455 S
C717 C723 1.483 . S
C718 H693 0.949 . S
C718 C717 1.376 . S
C718 C719 1.397 . S
C719 H694 0.950 . S
C719 C718 1.397 . S
C719 C720 1.391 . S
C720 C719 1.391 . S
C720 C721 1.405 1_455 S
C721 H695 0.950 . S
C721 C720 1.405 1_655 S
C721 C722 1.367 . S
C722 H696 0.950 . S
C722 C717 1.386 1_655 S
C722 C721 1.367 . S
C723 C717 1.483 . S
C723 C724 1.382 . S
C723 C725 1.403 1_455 S
C724 H697 0.950 . S
C724 C710 1.411 . S
C724 C723 1.382 . S
C725 C709 1.411 . S
C725 C723 1.403 1_655 S
C725 C726 1.489 . S
C726 C725 1.489 . S
C726 C727 1.383 1_655 S
C726 C731 1.382 . S
C727 H698 0.950 . S
C727 C726 1.383 1_455 S
C727 C728 1.395 . S
C728 H699 0.950 . S
C728 C727 1.395 . S
C728 C729 1.288 1_455 S
C729 C728 1.288 1_655 S
C729 C730 1.392 . S
C730 H700 0.951 . S
C730 C729 1.392 . S
C730 C731 1.392 . S
C731 H701 0.949 . S
C731 C726 1.382 . S
C731 C730 1.392 . S
H732 C751 0.949 . S
H733 C752 0.950 . S
H734 C754 0.950 . S
H735 C755 0.950 . S
H736 C757 0.950 . S
H737 C760 0.950 . S
H738 C761 0.950 . S
H739 C763 0.951 . S
H740 C764 0.949 . S
H741 C766 0.949 . S
H742 C767 0.950 . S
H743 C769 0.950 . S
H744 C770 0.950 . S
H745 C772 0.950 . S
H746 C775 0.950 . S
H747 C776 0.950 . S
H748 C778 0.951 . S
H749 C779 0.949 . S
C750 C751 1.376 . S
C750 C755 1.386 . S
C750 C756 1.483 . S
C751 H732 0.949 . S
C751 C750 1.376 . S
C751 C752 1.397 . S
C752 H733 0.950 . S
C752 C751 1.397 . S
C752 C753 1.391 . S
C753 C752 1.391 . S
C753 C754 1.405 . S
C754 H734 0.950 . S
C754 C753 1.405 . S
C754 C755 1.367 . S
C755 H735 0.950 . S
C755 C750 1.386 . S
C755 C754 1.367 . S
C756 C750 1.483 . S
C756 C757 1.382 . S
C756 C758 1.403 . S
C757 H736 0.950 . S
C757 C756 1.382 . S
C757 C773 1.411 . S
C758 C756 1.403 . S
C758 C759 1.489 . S
C758 C772 1.411 . S
C759 C758 1.489 . S
C759 C760 1.383 . S
C759 C764 1.382 . S
C760 H737 0.950 . S
C760 C759 1.383 . S
C760 C761 1.395 . S
C761 H738 0.950 . S
C761 C760 1.395 . S
C761 C762 1.288 . S
C762 C761 1.288 . S
C762 C763 1.392 . S
C763 H739 0.951 . S
C763 C762 1.392 . S
C763 C764 1.392 . S
C764 H740 0.949 . S
C764 C759 1.382 . S
C764 C763 1.392 . S
C765 C766 1.376 . S
C765 C770 1.386 . S
C765 C771 1.483 . S
C766 H741 0.949 . S
C766 C765 1.376 . S
C766 C767 1.397 . S
C767 H742 0.950 . S
C767 C766 1.397 . S
C767 C768 1.391 . S
C768 C767 1.391 . S
C768 C769 1.405 . S
C769 H743 0.950 . S
C769 C768 1.405 . S
C769 C770 1.367 . S
C770 H744 0.950 . S
C770 C765 1.386 . S
C770 C769 1.367 . S
C771 C765 1.483 . S
C771 C772 1.382 . S
C771 C773 1.403 . S
C772 H745 0.950 . S
C772 C758 1.411 . S
C772 C771 1.382 . S
C773 C757 1.411 . S
C773 C771 1.403 . S
C773 C774 1.489 . S
C774 C773 1.489 . S
C774 C775 1.383 . S
C774 C779 1.382 . S
C775 H746 0.950 . S
C775 C774 1.383 . S
C775 C776 1.395 . S
C776 H747 0.950 . S
C776 C775 1.395 . S
C776 C777 1.288 . S
C777 C776 1.288 . S
C777 C778 1.392 . S
C778 H748 0.951 . S
C778 C777 1.392 . S
C778 C779 1.392 . S
C779 H749 0.949 . S
C779 C774 1.382 . S
C779 C778 1.392 . S
H780 C799 0.949 . S
H781 C800 0.950 . S
H782 C802 0.950 . S
H783 C803 0.950 . S
H784 C805 0.950 . S
H785 C808 0.950 . S
H786 C809 0.950 . S
H787 C811 0.951 . S
H788 C812 0.949 . S
H789 C814 0.949 . S
H790 C815 0.950 . S
H791 C817 0.950 . S
H792 C818 0.950 . S
H793 C820 0.950 . S
H794 C823 0.950 . S
H795 C824 0.950 . S
H796 C826 0.951 . S
H797 C827 0.949 . S
C798 C799 1.376 . S
C798 C803 1.386 1_545 S
C798 C804 1.483 . S
C799 H780 0.949 . S
C799 C798 1.376 . S
C799 C800 1.397 . S
C800 H781 0.950 . S
C800 C799 1.397 . S
C800 C801 1.391 . S
C801 C800 1.391 . S
C801 C802 1.405 1_545 S
C802 H782 0.950 . S
C802 C801 1.405 1_565 S
C802 C803 1.367 . S
C803 H783 0.950 . S
C803 C798 1.386 1_565 S
C803 C802 1.367 . S
C804 C798 1.483 . S
C804 C805 1.382 . S
C804 C806 1.403 1_545 S
C805 H784 0.950 . S
C805 C804 1.382 . S
C805 C821 1.411 . S
C806 C804 1.403 1_565 S
C806 C807 1.489 . S
C806 C820 1.411 . S
C807 C806 1.489 . S
C807 C808 1.383 1_565 S
C807 C812 1.382 . S
C808 H785 0.950 . S
C808 C807 1.383 1_545 S
C808 C809 1.395 . S
C809 H786 0.950 . S
C809 C808 1.395 . S
C809 C810 1.288 1_545 S
C810 C809 1.288 1_565 S
C810 C811 1.392 . S
C811 H787 0.951 . S
C811 C810 1.392 . S
C811 C812 1.392 . S
C812 H788 0.949 . S
C812 C807 1.382 . S
C812 C811 1.392 . S
C813 C814 1.376 . S
C813 C818 1.386 1_565 S
C813 C819 1.483 . S
C814 H789 0.949 . S
C814 C813 1.376 . S
C814 C815 1.397 . S
C815 H790 0.950 . S
C815 C814 1.397 . S
C815 C816 1.391 . S
C816 C815 1.391 . S
C816 C817 1.405 1_565 S
C817 H791 0.950 . S
C817 C816 1.405 1_545 S
C817 C818 1.367 . S
C818 H792 0.950 . S
C818 C813 1.386 1_545 S
C818 C817 1.367 . S
C819 C813 1.483 . S
C819 C820 1.382 . S
C819 C821 1.403 1_565 S
C820 H793 0.950 . S
C820 C806 1.411 . S
C820 C819 1.382 . S
C821 C805 1.411 . S
C821 C819 1.403 1_545 S
C821 C822 1.489 . S
C822 C821 1.489 . S
C822 C823 1.383 1_545 S
C822 C827 1.382 . S
C823 H794 0.950 . S
C823 C822 1.383 1_565 S
C823 C824 1.395 . S
C824 H795 0.950 . S
C824 C823 1.395 . S
C824 C825 1.288 1_565 S
C825 C824 1.288 1_545 S
C825 C826 1.392 . S
C826 H796 0.951 . S
C826 C825 1.392 . S
C826 C827 1.392 . S
C827 H797 0.949 . S
C827 C822 1.382 . S
C827 C826 1.392 . S
H828 C847 0.949 . S
H829 C848 0.950 . S
H830 C850 0.950 . S
H831 C851 0.950 . S
H832 C853 0.950 . S
H833 C856 0.950 . S
H834 C857 0.950 . S
H835 C859 0.951 . S
H836 C860 0.949 . S
H837 C862 0.949 . S
H838 C863 0.950 . S
H839 C865 0.950 . S
H840 C866 0.950 . S
H841 C868 0.950 . S
H842 C871 0.950 . S
H843 C872 0.950 . S
H844 C874 0.951 . S
H845 C875 0.949 . S
C846 C847 1.390 . S
C846 C851 1.379 1_545 S
C846 C852 1.502 . S
C847 H828 0.949 . S
C847 C846 1.390 . S
C847 C848 1.397 . S
C848 H829 0.950 . S
C848 C847 1.397 . S
C848 C849 1.391 1_545 S
C849 C848 1.391 1_565 S
C849 C850 1.405 . S
C850 H830 0.950 . S
C850 C849 1.405 . S
C850 C851 1.367 . S
C851 H831 0.950 . S
C851 C846 1.379 1_565 S
C851 C850 1.367 . S
C852 C846 1.502 . S
C852 C853 1.357 . S
C852 C854 1.398 1_545 S
C853 H832 0.950 . S
C853 C852 1.357 . S
C853 C869 1.448 . S
C854 C852 1.398 1_565 S
C854 C855 1.487 . S
C854 C868 1.438 . S
C855 C854 1.487 . S
C855 C856 1.336 1_565 S
C855 C860 1.408 . S
C856 H833 0.950 . S
C856 C855 1.336 1_545 S
C856 C857 1.395 . S
C857 H834 0.950 . S
C857 C856 1.395 . S
C857 C858 1.327 . S
C858 C857 1.327 . S
C858 C859 1.317 1_545 S
C859 H835 0.951 . S
C859 C858 1.317 1_565 S
C859 C860 1.392 . S
C860 H836 0.949 . S
C860 C855 1.408 . S
C860 C859 1.392 . S
C861 C862 1.377 . S
C861 C866 1.386 1_565 S
C861 C867 1.502 . S
C862 H837 0.949 . S
C862 C861 1.377 . S
C862 C863 1.397 . S
C863 H838 0.950 . S
C863 C862 1.397 . S
C863 C864 1.391 1_565 S
C864 C863 1.391 1_545 S
C864 C865 1.405 . S
C865 H839 0.950 . S
C865 C864 1.405 . S
C865 C866 1.367 . S
C866 H840 0.950 . S
C866 C861 1.386 1_545 S
C866 C865 1.367 . S
C867 C861 1.502 . S
C867 C868 1.364 . S
C867 C869 1.398 1_565 S
C868 H841 0.950 . S
C868 C854 1.438 . S
C868 C867 1.364 . S
C869 C853 1.448 . S
C869 C867 1.398 1_545 S
C869 C870 1.487 . S
C870 C869 1.487 . S
C870 C871 1.318 1_545 S
C870 C875 1.418 . S
C871 H842 0.950 . S
C871 C870 1.318 1_565 S
C871 C872 1.395 . S
C872 H843 0.950 . S
C872 C871 1.395 . S
C872 C873 1.317 . S
C873 C872 1.317 . S
C873 C874 1.335 1_565 S
C874 H844 0.951 . S
C874 C873 1.335 1_545 S
C874 C875 1.392 . S
C875 H845 0.949 . S
C875 C870 1.418 . S
C875 C874 1.392 . S
H876 C895 0.949 . S
H877 C896 0.950 . S
H878 C898 0.950 . S
H879 C899 0.950 . S
H880 C901 0.950 . S
H881 C904 0.950 . S
H882 C905 0.950 . S
H883 C907 0.951 . S
H884 C908 0.949 . S
H885 C910 0.949 . S
H886 C911 0.950 . S
H887 C913 0.950 . S
H888 C914 0.950 . S
H889 C916 0.950 . S
H890 C919 0.950 . S
H891 C920 0.950 . S
H892 C922 0.951 . S
H893 C923 0.949 . S
C894 C895 1.376 . S
C894 C899 1.386 1_455 S
C894 C900 1.483 . S
C895 H876 0.949 . S
C895 C894 1.376 . S
C895 C896 1.397 . S
C896 H877 0.950 . S
C896 C895 1.397 . S
C896 C897 1.391 . S
C897 C896 1.391 . S
C897 C898 1.405 1_455 S
C898 H878 0.950 . S
C898 C897 1.405 1_655 S
C898 C899 1.367 . S
C899 H879 0.950 . S
C899 C894 1.386 1_655 S
C899 C898 1.367 . S
C900 C894 1.483 . S
C900 C901 1.382 . S
C900 C902 1.403 1_455 S
C901 H880 0.950 . S
C901 C900 1.382 . S
C901 C917 1.411 . S
C902 C900 1.403 1_655 S
C902 C903 1.489 . S
C902 C916 1.411 . S
C903 C902 1.489 . S
C903 C904 1.383 1_655 S
C903 C908 1.382 . S
C904 H881 0.950 . S
C904 C903 1.383 1_455 S
C904 C905 1.395 . S
C905 H882 0.950 . S
C905 C904 1.395 . S
C905 C906 1.288 1_455 S
C906 C905 1.288 1_655 S
C906 C907 1.392 . S
C907 H883 0.951 . S
C907 C906 1.392 . S
C907 C908 1.392 . S
C908 H884 0.949 . S
C908 C903 1.382 . S
C908 C907 1.392 . S
C909 C910 1.376 . S
C909 C914 1.386 1_655 S
C909 C915 1.483 . S
C910 H885 0.949 . S
C910 C909 1.376 . S
C910 C911 1.397 . S
C911 H886 0.950 . S
C911 C910 1.397 . S
C911 C912 1.391 . S
C912 C911 1.391 . S
C912 C913 1.405 1_655 S
C913 H887 0.950 . S
C913 C912 1.405 1_455 S
C913 C914 1.367 . S
C914 H888 0.950 . S
C914 C909 1.386 1_455 S
C914 C913 1.367 . S
C915 C909 1.483 . S
C915 C916 1.382 . S
C915 C917 1.403 1_655 S
C916 H889 0.950 . S
C916 C902 1.411 . S
C916 C915 1.382 . S
C917 C901 1.411 . S
C917 C915 1.403 1_455 S
C917 C918 1.489 . S
C918 C917 1.489 . S
C918 C919 1.383 1_455 S
C918 C923 1.382 . S
C919 H890 0.950 . S
C919 C918 1.383 1_655 S
C919 C920 1.395 . S
C920 H891 0.950 . S
C920 C919 1.395 . S
C920 C921 1.288 1_655 S
C921 C920 1.288 1_455 S
C921 C922 1.392 . S
C922 H892 0.951 . S
C922 C921 1.392 . S
C922 C923 1.392 . S
C923 H893 0.949 . S
C923 C918 1.382 . S
C923 C922 1.392 . S
H924 C943 0.949 . S
H925 C944 0.950 . S
H926 C946 0.950 . S
H927 C947 0.950 . S
H928 C949 0.950 . S
H929 C952 0.950 . S
H930 C953 0.950 . S
H931 C955 0.951 . S
H932 C956 0.949 . S
H933 C958 0.949 . S
H934 C959 0.950 . S
H935 C961 0.950 . S
H936 C962 0.950 . S
H937 C964 0.950 . S
H938 C967 0.950 . S
H939 C968 0.950 . S
H940 C970 0.951 . S
H941 C971 0.949 . S
C942 C943 1.376 . S
C942 C947 1.386 . S
C942 C948 1.483 . S
C943 H924 0.949 . S
C943 C942 1.376 . S
C943 C944 1.397 . S
C944 H925 0.950 . S
C944 C943 1.397 . S
C944 C945 1.391 . S
C945 C944 1.391 . S
C945 C946 1.405 . S
C946 H926 0.950 . S
C946 C945 1.405 . S
C946 C947 1.367 . S
C947 H927 0.950 . S
C947 C942 1.386 . S
C947 C946 1.367 . S
C948 C942 1.483 . S
C948 C949 1.382 . S
C948 C950 1.403 . S
C949 H928 0.950 . S
C949 C948 1.382 . S
C949 C965 1.411 . S
C950 C948 1.403 . S
C950 C951 1.489 . S
C950 C964 1.411 . S
C951 C950 1.489 . S
C951 C952 1.383 . S
C951 C956 1.382 . S
C952 H929 0.950 . S
C952 C951 1.383 . S
C952 C953 1.395 . S
C953 H930 0.950 . S
C953 C952 1.395 . S
C953 C954 1.288 . S
C954 C953 1.288 . S
C954 C955 1.392 . S
C955 H931 0.951 . S
C955 C954 1.392 . S
C955 C956 1.392 . S
C956 H932 0.949 . S
C956 C951 1.382 . S
C956 C955 1.392 . S
C957 C958 1.376 . S
C957 C962 1.386 . S
C957 C963 1.483 . S
C958 H933 0.949 . S
C958 C957 1.376 . S
C958 C959 1.397 . S
C959 H934 0.950 . S
C959 C958 1.397 . S
C959 C960 1.391 . S
C960 C959 1.391 . S
C960 C961 1.405 . S
C961 H935 0.950 . S
C961 C960 1.405 . S
C961 C962 1.367 . S
C962 H936 0.950 . S
C962 C957 1.386 . S
C962 C961 1.367 . S
C963 C957 1.483 . S
C963 C964 1.382 . S
C963 C965 1.403 . S
C964 H937 0.950 . S
C964 C950 1.411 . S
C964 C963 1.382 . S
C965 C949 1.411 . S
C965 C963 1.403 . S
C965 C966 1.489 . S
C966 C965 1.489 . S
C966 C967 1.383 . S
C966 C971 1.382 . S
C967 H938 0.950 . S
C967 C966 1.383 . S
C967 C968 1.395 . S
C968 H939 0.950 . S
C968 C967 1.395 . S
C968 C969 1.288 . S
C969 C968 1.288 . S
C969 C970 1.392 . S
C970 H940 0.951 . S
C970 C969 1.392 . S
C970 C971 1.392 . S
C971 H941 0.949 . S
C971 C966 1.382 . S
C971 C970 1.392 . S
H972 C991 0.949 . S
H973 C992 0.950 . S
H974 C994 0.950 . S
H975 C995 0.950 . S
H976 C997 0.950 . S
H977 C1000 0.950 . S
H978 C1001 0.950 . S
H979 C1003 0.951 . S
H980 C1004 0.949 . S
H981 C1006 0.949 . S
H982 C1007 0.950 . S
H983 C1009 0.950 . S
H984 C1010 0.950 . S
H985 C1012 0.950 . S
H986 C1015 0.950 . S
H987 C1016 0.950 . S
H988 C1018 0.951 . S
H989 C1019 0.949 . S
C990 C991 1.376 . S
C990 C995 1.386 . S
C990 C996 1.483 . S
C991 H972 0.949 . S
C991 C990 1.376 . S
C991 C992 1.397 . S
C992 H973 0.950 . S
C992 C991 1.397 . S
C992 C993 1.391 . S
C993 C992 1.391 . S
C993 C994 1.405 . S
C994 H974 0.950 . S
C994 C993 1.405 . S
C994 C995 1.367 . S
C995 H975 0.950 . S
C995 C990 1.386 . S
C995 C994 1.367 . S
C996 C990 1.483 . S
C996 C997 1.382 . S
C996 C998 1.403 . S
C997 H976 0.950 . S
C997 C996 1.382 . S
C997 C1013 1.411 . S
C998 C996 1.403 . S
C998 C999 1.489 . S
C998 C1012 1.411 . S
C999 C998 1.489 . S
C999 C1000 1.383 . S
C999 C1004 1.382 . S
C1000 H977 0.950 . S
C1000 C999 1.383 . S
C1000 C1001 1.395 . S
C1001 H978 0.950 . S
C1001 C1000 1.395 . S
C1001 C1002 1.288 . S
C1002 C1001 1.288 . S
C1002 C1003 1.392 . S
C1003 H979 0.951 . S
C1003 C1002 1.392 . S
C1003 C1004 1.392 . S
C1004 H980 0.949 . S
C1004 C999 1.382 . S
C1004 C1003 1.392 . S
C1005 C1006 1.376 . S
C1005 C1010 1.386 . S
C1005 C1011 1.483 . S
C1006 H981 0.949 . S
C1006 C1005 1.376 . S
C1006 C1007 1.397 . S
C1007 H982 0.950 . S
C1007 C1006 1.397 . S
C1007 C1008 1.391 . S
C1008 C1007 1.391 . S
C1008 C1009 1.405 . S
C1009 H983 0.950 . S
C1009 C1008 1.405 . S
C1009 C1010 1.367 . S
C1010 H984 0.950 . S
C1010 C1005 1.386 . S
C1010 C1009 1.367 . S
C1011 C1005 1.483 . S
C1011 C1012 1.382 . S
C1011 C1013 1.403 . S
C1012 H985 0.950 . S
C1012 C998 1.411 . S
C1012 C1011 1.382 . S
C1013 C997 1.411 . S
C1013 C1011 1.403 . S
C1013 C1014 1.489 . S
C1014 C1013 1.489 . S
C1014 C1015 1.383 . S
C1014 C1019 1.382 . S
C1015 H986 0.950 . S
C1015 C1014 1.383 . S
C1015 C1016 1.395 . S
C1016 H987 0.950 . S
C1016 C1015 1.395 . S
C1016 C1017 1.288 . S
C1017 C1016 1.288 . S
C1017 C1018 1.392 . S
C1018 H988 0.951 . S
C1018 C1017 1.392 . S
C1018 C1019 1.392 . S
C1019 H989 0.949 . S
C1019 C1014 1.382 . S
C1019 C1018 1.392 . S
H1020 C1039 0.949 . S
H1021 C1040 0.950 . S
H1022 C1042 0.950 . S
H1023 C1043 0.950 . S
H1024 C1045 0.950 . S
H1025 C1048 0.950 . S
H1026 C1049 0.950 . S
H1027 C1051 0.951 . S
H1028 C1052 0.949 . S
H1029 C1054 0.949 . S
H1030 C1055 0.950 . S
H1031 C1057 0.950 . S
H1032 C1058 0.950 . S
H1033 C1060 0.950 . S
H1034 C1063 0.950 . S
H1035 C1064 0.950 . S
H1036 C1066 0.951 . S
H1037 C1067 0.949 . S
C1038 C1039 1.376 . S
C1038 C1043 1.386 . S
C1038 C1044 1.483 . S
C1039 H1020 0.949 . S
C1039 C1038 1.376 . S
C1039 C1040 1.397 . S
C1040 H1021 0.950 . S
C1040 C1039 1.397 . S
C1040 C1041 1.391 . S
C1041 C1040 1.391 . S
C1041 C1042 1.405 . S
C1042 H1022 0.950 . S
C1042 C1041 1.405 . S
C1042 C1043 1.367 . S
C1043 H1023 0.950 . S
C1043 C1038 1.386 . S
C1043 C1042 1.367 . S
C1044 C1038 1.483 . S
C1044 C1045 1.382 . S
C1044 C1046 1.403 . S
C1045 H1024 0.950 . S
C1045 C1044 1.382 . S
C1045 C1061 1.411 . S
C1046 C1044 1.403 . S
C1046 C1047 1.489 . S
C1046 C1060 1.411 . S
C1047 C1046 1.489 . S
C1047 C1048 1.383 . S
C1047 C1052 1.382 . S
C1048 H1025 0.950 . S
C1048 C1047 1.383 . S
C1048 C1049 1.395 . S
C1049 H1026 0.950 . S
C1049 C1048 1.395 . S
C1049 C1050 1.288 . S
C1050 C1049 1.288 . S
C1050 C1051 1.392 . S
C1051 H1027 0.951 . S
C1051 C1050 1.392 . S
C1051 C1052 1.392 . S
C1052 H1028 0.949 . S
C1052 C1047 1.382 . S
C1052 C1051 1.392 . S
C1053 C1054 1.376 . S
C1053 C1058 1.386 . S
C1053 C1059 1.483 . S
C1054 H1029 0.949 . S
C1054 C1053 1.376 . S
C1054 C1055 1.397 . S
C1055 H1030 0.950 . S
C1055 C1054 1.397 . S
C1055 C1056 1.391 . S
C1056 C1055 1.391 . S
C1056 C1057 1.405 . S
C1057 H1031 0.950 . S
C1057 C1056 1.405 . S
C1057 C1058 1.367 . S
C1058 H1032 0.950 . S
C1058 C1053 1.386 . S
C1058 C1057 1.367 . S
C1059 C1053 1.483 . S
C1059 C1060 1.382 . S
C1059 C1061 1.403 . S
C1060 H1033 0.950 . S
C1060 C1046 1.411 . S
C1060 C1059 1.382 . S
C1061 C1045 1.411 . S
C1061 C1059 1.403 . S
C1061 C1062 1.489 . S
C1062 C1061 1.489 . S
C1062 C1063 1.383 . S
C1062 C1067 1.382 . S
C1063 H1034 0.950 . S
C1063 C1062 1.383 . S
C1063 C1064 1.395 . S
C1064 H1035 0.950 . S
C1064 C1063 1.395 . S
C1064 C1065 1.288 . S
C1065 C1064 1.288 . S
C1065 C1066 1.392 . S
C1066 H1036 0.951 . S
C1066 C1065 1.392 . S
C1066 C1067 1.392 . S
C1067 H1037 0.949 . S
C1067 C1062 1.382 . S
C1067 C1066 1.392 . S
H1068 C1087 0.949 . S
H1069 C1088 0.950 . S
H1070 C1090 0.950 . S
H1071 C1091 0.950 . S
H1072 C1093 0.950 . S
H1073 C1096 0.950 . S
H1074 C1097 0.950 . S
H1075 C1099 0.951 . S
H1076 C1100 0.949 . S
H1077 C1102 0.949 . S
H1078 C1103 0.950 . S
H1079 C1105 0.950 . S
H1080 C1106 0.950 . S
H1081 C1108 0.950 . S
H1082 C1111 0.950 . S
H1083 C1112 0.950 . S
H1084 C1114 0.951 . S
H1085 C1115 0.949 . S
C1086 C1087 1.376 . S
C1086 C1091 1.386 . S
C1086 C1092 1.483 . S
C1087 H1068 0.949 . S
C1087 C1086 1.376 . S
C1087 C1088 1.397 . S
C1088 H1069 0.950 . S
C1088 C1087 1.397 . S
C1088 C1089 1.391 . S
C1089 C1088 1.391 . S
C1089 C1090 1.405 . S
C1090 H1070 0.950 . S
C1090 C1089 1.405 . S
C1090 C1091 1.367 . S
C1091 H1071 0.950 . S
C1091 C1086 1.386 . S
C1091 C1090 1.367 . S
C1092 C1086 1.483 . S
C1092 C1093 1.382 . S
C1092 C1094 1.403 . S
C1093 H1072 0.950 . S
C1093 C1092 1.382 . S
C1093 C1109 1.411 . S
C1094 C1092 1.403 . S
C1094 C1095 1.489 . S
C1094 C1108 1.411 . S
C1095 C1094 1.489 . S
C1095 C1096 1.383 . S
C1095 C1100 1.382 . S
C1096 H1073 0.950 . S
C1096 C1095 1.383 . S
C1096 C1097 1.395 . S
C1097 H1074 0.950 . S
C1097 C1096 1.395 . S
C1097 C1098 1.288 . S
C1098 C1097 1.288 . S
C1098 C1099 1.392 . S
C1099 H1075 0.951 . S
C1099 C1098 1.392 . S
C1099 C1100 1.392 . S
C1100 H1076 0.949 . S
C1100 C1095 1.382 . S
C1100 C1099 1.392 . S
C1101 C1102 1.376 . S
C1101 C1106 1.386 . S
C1101 C1107 1.483 . S
C1102 H1077 0.949 . S
C1102 C1101 1.376 . S
C1102 C1103 1.397 . S
C1103 H1078 0.950 . S
C1103 C1102 1.397 . S
C1103 C1104 1.391 . S
C1104 C1103 1.391 . S
C1104 C1105 1.405 . S
C1105 H1079 0.950 . S
C1105 C1104 1.405 . S
C1105 C1106 1.367 . S
C1106 H1080 0.950 . S
C1106 C1101 1.386 . S
C1106 C1105 1.367 . S
C1107 C1101 1.483 . S
C1107 C1108 1.382 . S
C1107 C1109 1.403 . S
C1108 H1081 0.950 . S
C1108 C1094 1.411 . S
C1108 C1107 1.382 . S
C1109 C1093 1.411 . S
C1109 C1107 1.403 . S
C1109 C1110 1.489 . S
C1110 C1109 1.489 . S
C1110 C1111 1.383 . S
C1110 C1115 1.382 . S
C1111 H1082 0.950 . S
C1111 C1110 1.383 . S
C1111 C1112 1.395 . S
C1112 H1083 0.950 . S
C1112 C1111 1.395 . S
C1112 C1113 1.288 . S
C1113 C1112 1.288 . S
C1113 C1114 1.392 . S
C1114 H1084 0.951 . S
C1114 C1113 1.392 . S
C1114 C1115 1.392 . S
C1115 H1085 0.949 . S
C1115 C1110 1.382 . S
C1115 C1114 1.392 . S
C1116 C1117 1.379 1_455 S
C1116 C1118 1.394 . S
C1116 H1132 0.931 . S
C1117 C1116 1.379 1_655 S
C1117 C1121 1.399 . S
C1118 C1116 1.394 . S
C1118 C1119 1.291 1_455 S
C1118 C1122 1.531 . S
C1119 C1118 1.291 1_655 S
C1119 C1120 1.456 . S
C1119 C1127 1.538 . S
C1120 C1119 1.456 . S
C1120 C1121 1.392 . S
C1120 C1123 1.511 . S
C1121 C1117 1.399 . S
C1121 C1120 1.392 . S
C1121 H1133 0.929 . S
C1122 C1118 1.531 . S
C1122 H1134 0.960 . S
C1122 H1135 0.962 . S
C1122 H1136 0.960 . S
C1123 C1120 1.511 . S
C1123 H1137 0.961 . S
C1123 H1138 0.961 . S
C1123 H1139 0.961 . S
C1124 C1125 1.370 . S
C1124 C1126 1.363 . S
C1124 H1140 0.941 . S
C1125 C1124 1.370 . S
C1125 C1129 1.408 . S
C1126 C1124 1.363 . S
C1126 C1127 1.370 . S
C1126 C1130 1.544 . S
C1127 C1119 1.538 . S
C1127 C1126 1.370 . S
C1127 C1128 1.403 . S
C1128 C1127 1.403 . S
C1128 C1129 1.404 . S
C1128 C1131 1.539 . S
C1129 C1125 1.408 . S
C1129 C1128 1.404 . S
C1129 H1141 0.930 . S
C1130 C1126 1.544 . S
C1130 H1142 0.919 1_655 S
C1130 H1143 0.976 . S
C1130 H1144 0.964 . S
C1131 C1128 1.539 . S
C1131 H1145 0.958 1_655 S
C1131 H1146 0.961 . S
C1131 H1147 0.960 . S
H1132 C1116 0.931 . S
H1133 C1121 0.929 . S
H1134 C1122 0.960 . S
H1135 C1122 0.962 . S
H1136 C1122 0.960 . S
H1137 C1123 0.961 . S
H1138 C1123 0.961 . S
H1139 C1123 0.961 . S
H1140 C1124 0.941 . S
H1141 C1129 0.930 . S
H1142 C1130 0.919 1_455 S
H1143 C1130 0.976 . S
H1144 C1130 0.964 . S
H1145 C1131 0.958 1_455 S
H1146 C1131 0.961 . S
H1147 C1131 0.960 . S
C1148 C1149 1.391 . S
C1148 C1150 1.394 . S
C1148 H1164 0.931 . S
C1149 C1148 1.391 . S
C1149 C1153 1.376 . S
C1150 C1148 1.394 . S
C1150 C1151 1.369 . S
C1150 C1154 1.531 . S
C1151 C1150 1.369 . S
C1151 C1152 1.410 . S
C1151 C1159 1.503 . S
C1152 C1151 1.410 . S
C1152 C1153 1.392 . S
C1152 C1155 1.511 . S
C1153 C1149 1.376 . S
C1153 C1152 1.392 . S
C1153 H1165 0.929 . S
C1154 C1150 1.531 . S
C1154 H1166 0.960 . S
C1154 H1167 0.962 . S
C1154 H1168 0.960 . S
C1155 C1152 1.511 . S
C1155 H1169 0.961 . S
C1155 H1170 0.961 . S
C1155 H1171 0.961 . S
C1156 C1157 1.370 . S
C1156 C1158 1.363 . S
C1156 H1172 0.931 . S
C1157 C1156 1.370 . S
C1157 C1161 1.408 . S
C1158 C1156 1.363 . S
C1158 C1159 1.370 . S
C1158 C1162 1.524 . S
C1159 C1151 1.503 . S
C1159 C1158 1.370 . S
C1159 C1160 1.403 . S
C1160 C1159 1.403 . S
C1160 C1161 1.404 . S
C1160 C1163 1.539 . S
C1161 C1157 1.408 . S
C1161 C1160 1.404 . S
C1161 H1173 0.930 . S
C1162 C1158 1.524 . S
C1162 H1174 0.956 . S
C1162 H1175 0.961 . S
C1162 H1176 0.961 . S
C1163 C1160 1.539 . S
C1163 H1177 0.958 . S
C1163 H1178 0.961 . S
C1163 H1179 0.960 . S
H1164 C1148 0.931 . S
H1165 C1153 0.929 . S
H1166 C1154 0.960 . S
H1167 C1154 0.962 . S
H1168 C1154 0.960 . S
H1169 C1155 0.961 . S
H1170 C1155 0.961 . S
H1171 C1155 0.961 . S
H1172 C1156 0.931 . S
H1173 C1161 0.930 . S
H1174 C1162 0.956 . S
H1175 C1162 0.961 . S
H1176 C1162 0.961 . S
H1177 C1163 0.958 . S
H1178 C1163 0.961 . S
H1179 C1163 0.960 . S
C1180 C1181 1.391 . S
C1180 C1182 1.394 . S
C1180 H1196 0.931 . S
C1181 C1180 1.391 . S
C1181 C1185 1.376 1_545 S
C1182 C1180 1.394 . S
C1182 C1183 1.369 . S
C1182 C1186 1.531 . S
C1183 C1182 1.369 . S
C1183 C1184 1.410 1_545 S
C1183 C1191 1.503 . S
C1184 C1183 1.410 1_565 S
C1184 C1185 1.392 . S
C1184 C1187 1.511 . S
C1185 C1181 1.376 1_565 S
C1185 C1184 1.392 . S
C1185 H1197 0.929 . S
C1186 C1182 1.531 . S
C1186 H1198 0.960 . S
C1186 H1199 0.962 . S
C1186 H1200 0.960 . S
C1187 C1184 1.511 . S
C1187 H1201 0.961 . S
C1187 H1202 0.961 . S
C1187 H1203 0.961 . S
C1188 C1189 1.370 1_565 S
C1188 C1190 1.363 . S
C1188 H1204 0.931 . S
C1189 C1188 1.370 1_545 S
C1189 C1193 1.408 . S
C1190 C1188 1.363 . S
C1190 C1191 1.370 1_565 S
C1190 C1194 1.524 . S
C1191 C1183 1.503 . S
C1191 C1190 1.370 1_545 S
C1191 C1192 1.403 . S
C1192 C1191 1.403 . S
C1192 C1193 1.404 . S
C1192 C1195 1.539 . S
C1193 C1189 1.408 . S
C1193 C1192 1.404 . S
C1193 H1205 0.930 . S
C1194 C1190 1.524 . S
C1194 H1206 0.956 . S
C1194 H1207 0.961 . S
C1194 H1208 0.961 . S
C1195 C1192 1.539 . S
C1195 H1209 0.958 . S
C1195 H1210 0.961 . S
C1195 H1211 0.960 . S
H1196 C1180 0.931 . S
H1197 C1185 0.929 . S
H1198 C1186 0.960 . S
H1199 C1186 0.962 . S
H1200 C1186 0.960 . S
H1201 C1187 0.961 . S
H1202 C1187 0.961 . S
H1203 C1187 0.961 . S
H1204 C1188 0.931 . S
H1205 C1193 0.930 . S
H1206 C1194 0.956 . S
H1207 C1194 0.961 . S
H1208 C1194 0.961 . S
H1209 C1195 0.958 . S
H1210 C1195 0.961 . S
H1211 C1195 0.960 . S
C1212 C1213 1.459 . S
C1212 C1214 1.394 . S
C1212 H1228 0.931 . S
C1213 C1212 1.459 . S
C1213 C1217 1.337 1_565 S
C1214 C1212 1.394 . S
C1214 C1215 1.369 . S
C1214 C1218 1.531 . S
C1215 C1214 1.369 . S
C1215 C1216 1.410 1_565 S
C1215 C1223 1.503 . S
C1216 C1215 1.410 1_545 S
C1216 C1217 1.392 . S
C1216 C1219 1.511 . S
C1217 C1213 1.337 1_545 S
C1217 C1216 1.392 . S
C1217 H1229 0.929 . S
C1218 C1214 1.531 . S
C1218 H1230 0.960 . S
C1218 H1231 0.962 . S
C1218 H1232 0.960 . S
C1219 C1216 1.511 . S
C1219 H1233 0.961 . S
C1219 H1234 0.961 . S
C1219 H1235 0.961 . S
C1220 C1221 1.370 1_545 S
C1220 C1222 1.363 . S
C1220 H1236 0.931 . S
C1221 C1220 1.370 1_565 S
C1221 C1225 1.408 . S
C1222 C1220 1.363 . S
C1222 C1223 1.370 1_545 S
C1222 C1226 1.524 . S
C1223 C1215 1.503 . S
C1223 C1222 1.370 1_565 S
C1223 C1224 1.403 . S
C1224 C1223 1.403 . S
C1224 C1225 1.404 . S
C1224 C1227 1.539 . S
C1225 C1221 1.408 . S
C1225 C1224 1.404 . S
C1225 H1237 0.930 . S
C1226 C1222 1.524 . S
C1226 H1238 0.983 . S
C1226 H1239 0.961 . S
C1226 H1240 0.961 . S
C1227 C1224 1.539 . S
C1227 H1241 0.958 . S
C1227 H1242 0.961 . S
C1227 H1243 0.960 . S
H1228 C1212 0.931 . S
H1229 C1217 0.929 . S
H1230 C1218 0.960 . S
H1231 C1218 0.962 . S
H1232 C1218 0.960 . S
H1233 C1219 0.961 . S
H1234 C1219 0.961 . S
H1235 C1219 0.961 . S
H1236 C1220 0.931 . S
H1237 C1225 0.930 . S
H1238 C1226 0.983 . S
H1239 C1226 0.961 . S
H1240 C1226 0.961 . S
H1241 C1227 0.958 . S
H1242 C1227 0.961 . S
H1243 C1227 0.960 . S
C1244 C1245 1.414 . S
C1244 C1246 1.394 . S
C1244 H1260 0.931 . S
C1245 C1244 1.414 . S
C1245 C1249 1.335 1_455 S
C1246 C1244 1.394 . S
C1246 C1247 1.317 1_455 S
C1246 C1250 1.531 . S
C1247 C1246 1.317 1_655 S
C1247 C1248 1.440 . S
C1247 C1255 1.528 1_655 S
C1248 C1247 1.440 . S
C1248 C1249 1.392 . S
C1248 C1251 1.511 . S
C1249 C1245 1.335 1_655 S
C1249 C1248 1.392 . S
C1249 H1261 0.929 . S
C1250 C1246 1.531 . S
C1250 H1262 0.960 . S
C1250 H1263 0.962 . S
C1250 H1264 0.960 . S
C1251 C1248 1.511 . S
C1251 H1265 0.961 . S
C1251 H1266 0.961 . S
C1251 H1267 0.961 . S
C1252 C1253 1.370 . S
C1252 C1254 1.363 . S
C1252 H1268 0.931 . S
C1253 C1252 1.370 . S
C1253 C1257 1.408 1_455 S
C1254 C1252 1.363 . S
C1254 C1255 1.373 . S
C1254 C1258 1.524 . S
C1255 C1247 1.528 1_455 S
C1255 C1254 1.373 . S
C1255 C1256 1.397 1_455 S
C1256 C1255 1.397 1_655 S
C1256 C1257 1.404 . S
C1256 C1259 1.539 . S
C1257 C1253 1.408 1_655 S
C1257 C1256 1.404 . S
C1257 H1269 0.930 . S
C1258 C1254 1.524 . S
C1258 H1270 0.956 . S
C1258 H1271 0.961 . S
C1258 H1272 0.961 . S
C1259 C1256 1.539 . S
C1259 H1273 0.958 . S
C1259 H1274 0.961 . S
C1259 H1275 0.960 . S
H1260 C1244 0.931 . S
H1261 C1249 0.929 . S
H1262 C1250 0.960 . S
H1263 C1250 0.962 . S
H1264 C1250 0.960 . S
H1265 C1251 0.961 . S
H1266 C1251 0.961 . S
H1267 C1251 0.961 . S
H1268 C1252 0.931 . S
H1269 C1257 0.930 . S
H1270 C1258 0.956 . S
H1271 C1258 0.961 . S
H1272 C1258 0.961 . S
H1273 C1259 0.958 . S
H1274 C1259 0.961 . S
H1275 C1259 0.960 . S
C1276 C1277 1.391 . S
C1276 C1278 1.394 . S
C1276 H1292 0.931 . S
C1277 C1276 1.391 . S
C1277 C1281 1.376 . S
C1278 C1276 1.394 . S
C1278 C1279 1.369 . S
C1278 C1282 1.531 . S
C1279 C1278 1.369 . S
C1279 C1280 1.410 . S
C1279 C1287 1.503 . S
C1280 C1279 1.410 . S
C1280 C1281 1.392 . S
C1280 C1283 1.511 . S
C1281 C1277 1.376 . S
C1281 C1280 1.392 . S
C1281 H1293 0.929 . S
C1282 C1278 1.531 . S
C1282 H1294 0.960 . S
C1282 H1295 0.962 . S
C1282 H1296 0.960 . S
C1283 C1280 1.511 . S
C1283 H1297 0.961 . S
C1283 H1298 0.961 . S
C1283 H1299 0.961 . S
C1284 C1285 1.370 . S
C1284 C1286 1.363 . S
C1284 H1300 0.931 . S
C1285 C1284 1.370 . S
C1285 C1289 1.408 . S
C1286 C1284 1.363 . S
C1286 C1287 1.370 . S
C1286 C1290 1.524 . S
C1287 C1279 1.503 . S
C1287 C1286 1.370 . S
C1287 C1288 1.403 . S
C1288 C1287 1.403 . S
C1288 C1289 1.404 . S
C1288 C1291 1.539 . S
C1289 C1285 1.408 . S
C1289 C1288 1.404 . S
C1289 H1301 0.930 . S
C1290 C1286 1.524 . S
C1290 H1302 0.956 . S
C1290 H1303 0.961 . S
C1290 H1304 0.961 . S
C1291 C1288 1.539 . S
C1291 H1305 0.958 . S
C1291 H1306 0.961 . S
C1291 H1307 0.960 . S
H1292 C1276 0.931 . S
H1293 C1281 0.929 . S
H1294 C1282 0.960 . S
H1295 C1282 0.962 . S
H1296 C1282 0.960 . S
H1297 C1283 0.961 . S
H1298 C1283 0.961 . S
H1299 C1283 0.961 . S
H1300 C1284 0.931 . S
H1301 C1289 0.930 . S
H1302 C1290 0.956 . S
H1303 C1290 0.961 . S
H1304 C1290 0.961 . S
H1305 C1291 0.958 . S
H1306 C1291 0.961 . S
H1307 C1291 0.960 . S
C1308 C1309 1.391 . S
C1308 C1310 1.394 . S
C1308 H1324 0.931 . S
C1309 C1308 1.391 . S
C1309 C1313 1.376 1_455 S
C1310 C1308 1.394 . S
C1310 C1311 1.369 . S
C1310 C1314 1.531 . S
C1311 C1310 1.369 . S
C1311 C1312 1.410 1_455 S
C1311 C1319 1.503 . S
C1312 C1311 1.410 1_655 S
C1312 C1313 1.392 . S
C1312 C1315 1.511 . S
C1313 C1309 1.376 1_655 S
C1313 C1312 1.392 . S
C1313 H1325 0.929 . S
C1314 C1310 1.531 . S
C1314 H1326 0.960 . S
C1314 H1327 0.962 . S
C1314 H1328 0.960 . S
C1315 C1312 1.511 . S
C1315 H1329 0.961 . S
C1315 H1330 0.961 . S
C1315 H1331 0.961 . S
C1316 C1317 1.370 1_655 S
C1316 C1318 1.363 . S
C1316 H1332 0.931 . S
C1317 C1316 1.370 1_455 S
C1317 C1321 1.408 . S
C1318 C1316 1.363 . S
C1318 C1319 1.370 1_655 S
C1318 C1322 1.524 . S
C1319 C1311 1.503 . S
C1319 C1318 1.370 1_455 S
C1319 C1320 1.403 . S
C1320 C1319 1.403 . S
C1320 C1321 1.404 . S
C1320 C1323 1.539 . S
C1321 C1317 1.408 . S
C1321 C1320 1.404 . S
C1321 H1333 0.930 . S
C1322 C1318 1.524 . S
C1322 H1334 0.947 1_655 S
C1322 H1335 0.961 . S
C1322 H1336 0.961 . S
C1323 C1320 1.539 . S
C1323 H1337 0.958 . S
C1323 H1338 0.961 . S
C1323 H1339 0.960 . S
H1324 C1308 0.931 . S
H1325 C1313 0.929 . S
H1326 C1314 0.960 . S
H1327 C1314 0.962 . S
H1328 C1314 0.960 . S
H1329 C1315 0.961 . S
H1330 C1315 0.961 . S
H1331 C1315 0.961 . S
H1332 C1316 0.931 . S
H1333 C1321 0.930 . S
H1334 C1322 0.947 1_455 S
H1335 C1322 0.961 . S
H1336 C1322 0.961 . S
H1337 C1323 0.958 . S
H1338 C1323 0.961 . S
H1339 C1323 0.960 . S
C1340 C1341 1.391 . S
C1340 C1342 1.394 . S
C1340 H1356 0.931 . S
C1341 C1340 1.391 . S
C1341 C1345 1.376 . S
C1342 C1340 1.394 . S
C1342 C1343 1.369 . S
C1342 C1346 1.531 . S
C1343 C1342 1.369 . S
C1343 C1344 1.410 . S
C1343 C1351 1.503 . S
C1344 C1343 1.410 . S
C1344 C1345 1.392 . S
C1344 C1347 1.511 . S
C1345 C1341 1.376 . S
C1345 C1344 1.392 . S
C1345 H1357 0.929 . S
C1346 C1342 1.531 . S
C1346 H1358 0.960 . S
C1346 H1359 0.962 . S
C1346 H1360 0.960 . S
C1347 C1344 1.511 . S
C1347 H1361 0.961 . S
C1347 H1362 0.961 . S
C1347 H1363 0.961 . S
C1348 C1349 1.370 . S
C1348 C1350 1.363 . S
C1348 H1364 0.931 . S
C1349 C1348 1.370 . S
C1349 C1353 1.408 . S
C1350 C1348 1.363 . S
C1350 C1351 1.370 . S
C1350 C1354 1.524 . S
C1351 C1343 1.503 . S
C1351 C1350 1.370 . S
C1351 C1352 1.403 . S
C1352 C1351 1.403 . S
C1352 C1353 1.404 . S
C1352 C1355 1.539 . S
C1353 C1349 1.408 . S
C1353 C1352 1.404 . S
C1353 H1365 0.930 . S
C1354 C1350 1.524 . S
C1354 H1366 0.956 . S
C1354 H1367 0.961 . S
C1354 H1368 0.961 . S
C1355 C1352 1.539 . S
C1355 H1369 0.958 . S
C1355 H1370 0.961 . S
C1355 H1371 0.960 . S
H1356 C1340 0.931 . S
H1357 C1345 0.929 . S
H1358 C1346 0.960 . S
H1359 C1346 0.962 . S
H1360 C1346 0.960 . S
H1361 C1347 0.961 . S
H1362 C1347 0.961 . S
H1363 C1347 0.961 . S
H1364 C1348 0.931 . S
H1365 C1353 0.930 . S
H1366 C1354 0.956 . S
H1367 C1354 0.961 . S
H1368 C1354 0.961 . S
H1369 C1355 0.958 . S
H1370 C1355 0.961 . S
H1371 C1355 0.960 . S
C1372 C1373 1.390 1_565 S
C1372 C1374 1.394 . S
C1372 H1388 0.931 . S
C1373 C1372 1.390 1_545 S
C1373 C1377 1.386 . S
C1374 C1372 1.394 . S
C1374 C1375 1.369 1_565 S
C1374 C1378 1.531 . S
C1375 C1374 1.369 1_545 S
C1375 C1376 1.410 . S
C1375 C1383 1.496 . S
C1376 C1375 1.410 . S
C1376 C1377 1.392 . S
C1376 C1379 1.511 . S
C1377 C1373 1.386 . S
C1377 C1376 1.392 . S
C1377 H1389 0.929 . S
C1378 C1374 1.531 . S
C1378 H1390 0.960 . S
C1378 H1391 0.962 . S
C1378 H1392 0.960 . S
C1379 C1376 1.511 . S
C1379 H1393 0.961 . S
C1379 H1394 0.961 . S
C1379 H1395 0.961 . S
C1380 C1381 1.370 . S
C1380 C1382 1.363 . S
C1380 H1396 0.931 . S
C1381 C1380 1.370 . S
C1381 C1385 1.408 1_565 S
C1382 C1380 1.363 . S
C1382 C1383 1.356 1_565 S
C1382 C1386 1.524 . S
C1383 C1375 1.496 . S
C1383 C1382 1.356 1_545 S
C1383 C1384 1.424 . S
C1384 C1383 1.424 . S
C1384 C1385 1.404 . S
C1384 C1387 1.539 . S
C1385 C1381 1.408 1_545 S
C1385 C1384 1.404 . S
C1385 H1397 0.930 . S
C1386 C1382 1.524 . S
C1386 H1398 0.956 . S
C1386 H1399 0.961 . S
C1386 H1400 0.961 . S
C1387 C1384 1.539 . S
C1387 H1401 0.958 . S
C1387 H1402 0.961 . S
C1387 H1403 0.960 . S
H1388 C1372 0.931 . S
H1389 C1377 0.929 . S
H1390 C1378 0.960 . S
H1391 C1378 0.962 . S
H1392 C1378 0.960 . S
H1393 C1379 0.961 . S
H1394 C1379 0.961 . S
H1395 C1379 0.961 . S
H1396 C1380 0.931 . S
H1397 C1385 0.930 . S
H1398 C1386 0.956 . S
H1399 C1386 0.961 . S
H1400 C1386 0.961 . S
H1401 C1387 0.958 . S
H1402 C1387 0.961 . S
H1403 C1387 0.960 . S
C1404 C1405 1.391 . S
C1404 C1406 1.394 . S
C1404 H1420 0.931 . S
C1405 C1404 1.391 . S
C1405 C1409 1.376 1_545 S
C1406 C1404 1.394 . S
C1406 C1407 1.369 . S
C1406 C1410 1.531 . S
C1407 C1406 1.369 . S
C1407 C1408 1.394 1_545 S
C1407 C1415 1.503 . S
C1408 C1407 1.394 1_565 S
C1408 C1409 1.428 . S
C1408 C1411 1.498 . S
C1409 C1405 1.376 1_565 S
C1409 C1408 1.428 . S
C1409 H1421 0.929 . S
C1410 C1406 1.531 . S
C1410 H1422 0.960 . S
C1410 H1423 0.962 . S
C1410 H1424 0.960 . S
C1411 C1408 1.498 . S
C1411 H1425 0.961 . S
C1411 H1426 0.961 . S
C1411 H1427 0.961 1_565 S
C1412 C1413 1.370 1_565 S
C1412 C1414 1.363 . S
C1412 H1428 0.931 . S
C1413 C1412 1.370 1_545 S
C1413 C1417 1.408 . S
C1414 C1412 1.363 . S
C1414 C1415 1.370 1_565 S
C1414 C1418 1.524 . S
C1415 C1407 1.503 . S
C1415 C1414 1.370 1_545 S
C1415 C1416 1.403 . S
C1416 C1415 1.403 . S
C1416 C1417 1.404 . S
C1416 C1419 1.539 . S
C1417 C1413 1.408 . S
C1417 C1416 1.404 . S
C1417 H1429 0.930 . S
C1418 C1414 1.524 . S
C1418 H1430 0.956 . S
C1418 H1431 0.961 . S
C1418 H1432 0.961 . S
C1419 C1416 1.539 . S
C1419 H1433 0.958 . S
C1419 H1434 0.961 . S
C1419 H1435 0.960 . S
H1420 C1404 0.931 . S
H1421 C1409 0.929 . S
H1422 C1410 0.960 . S
H1423 C1410 0.962 . S
H1424 C1410 0.960 . S
H1425 C1411 0.961 . S
H1426 C1411 0.961 . S
H1427 C1411 0.961 1_545 S
H1428 C1412 0.931 . S
H1429 C1417 0.930 . S
H1430 C1418 0.956 . S
H1431 C1418 0.961 . S
H1432 C1418 0.961 . S
H1433 C1419 0.958 . S
H1434 C1419 0.961 . S
H1435 C1419 0.960 . S
C1436 C1437 1.391 1_455 S
C1436 C1438 1.394 . S
C1436 H1452 0.931 . S
C1437 C1436 1.391 1_655 S
C1437 C1441 1.376 . S
C1438 C1436 1.394 . S
C1438 C1439 1.369 1_455 S
C1438 C1442 1.531 . S
C1439 C1438 1.369 1_655 S
C1439 C1440 1.410 . S
C1439 C1447 1.503 . S
C1440 C1439 1.410 . S
C1440 C1441 1.392 . S
C1440 C1443 1.511 . S
C1441 C1437 1.376 . S
C1441 C1440 1.392 . S
C1441 H1453 0.929 . S
C1442 C1438 1.531 . S
C1442 H1454 0.960 . S
C1442 H1455 0.962 . S
C1442 H1456 0.960 . S
C1443 C1440 1.511 . S
C1443 H1457 0.961 . S
C1443 H1458 0.961 . S
C1443 H1459 0.961 . S
C1444 C1445 1.370 1_455 S
C1444 C1446 1.363 . S
C1444 H1460 0.931 . S
C1445 C1444 1.370 1_655 S
C1445 C1449 1.408 . S
C1446 C1444 1.363 . S
C1446 C1447 1.370 1_455 S
C1446 C1450 1.524 . S
C1447 C1439 1.503 . S
C1447 C1446 1.370 1_655 S
C1447 C1448 1.403 . S
C1448 C1447 1.403 . S
C1448 C1449 1.404 . S
C1448 C1451 1.539 . S
C1449 C1445 1.408 . S
C1449 C1448 1.404 . S
C1449 H1461 0.930 . S
C1450 C1446 1.524 . S
C1450 H1462 0.956 . S
C1450 H1463 0.961 . S
C1450 H1464 0.961 . S
C1451 C1448 1.539 . S
C1451 H1465 0.958 . S
C1451 H1466 0.961 . S
C1451 H1467 0.960 . S
H1452 C1436 0.931 . S
H1453 C1441 0.929 . S
H1454 C1442 0.960 . S
H1455 C1442 0.962 . S
H1456 C1442 0.960 . S
H1457 C1443 0.961 . S
H1458 C1443 0.961 . S
H1459 C1443 0.961 . S
H1460 C1444 0.931 . S
H1461 C1449 0.930 . S
H1462 C1450 0.956 . S
H1463 C1450 0.961 . S
H1464 C1450 0.961 . S
H1465 C1451 0.958 . S
H1466 C1451 0.961 . S
H1467 C1451 0.960 . S
C1468 C1469 1.391 . S
C1468 C1470 1.394 . S
C1468 H1484 0.931 . S
C1469 C1468 1.391 . S
C1469 C1473 1.376 . S
C1470 C1468 1.394 . S
C1470 C1471 1.369 . S
C1470 C1474 1.531 . S
C1471 C1470 1.369 . S
C1471 C1472 1.410 . S
C1471 C1479 1.503 . S
C1472 C1471 1.410 . S
C1472 C1473 1.392 . S
C1472 C1475 1.511 . S
C1473 C1469 1.376 . S
C1473 C1472 1.392 . S
C1473 H1485 0.929 . S
C1474 C1470 1.531 . S
C1474 H1486 0.960 . S
C1474 H1487 0.962 . S
C1474 H1488 0.960 . S
C1475 C1472 1.511 . S
C1475 H1489 0.961 . S
C1475 H1490 0.961 . S
C1475 H1491 0.961 . S
C1476 C1477 1.370 . S
C1476 C1478 1.363 . S
C1476 H1492 0.931 . S
C1477 C1476 1.370 . S
C1477 C1481 1.408 . S
C1478 C1476 1.363 . S
C1478 C1479 1.370 . S
C1478 C1482 1.524 . S
C1479 C1471 1.503 . S
C1479 C1478 1.370 . S
C1479 C1480 1.403 . S
C1480 C1479 1.403 . S
C1480 C1481 1.404 . S
C1480 C1483 1.539 . S
C1481 C1477 1.408 . S
C1481 C1480 1.404 . S
C1481 H1493 0.930 . S
C1482 C1478 1.524 . S
C1482 H1494 0.956 . S
C1482 H1495 0.961 . S
C1482 H1496 0.961 . S
C1483 C1480 1.539 . S
C1483 H1497 0.958 . S
C1483 H1498 0.961 . S
C1483 H1499 0.960 . S
H1484 C1468 0.931 . S
H1485 C1473 0.929 . S
H1486 C1474 0.960 . S
H1487 C1474 0.962 . S
H1488 C1474 0.960 . S
H1489 C1475 0.961 . S
H1490 C1475 0.961 . S
H1491 C1475 0.961 . S
H1492 C1476 0.931 . S
H1493 C1481 0.930 . S
H1494 C1482 0.956 . S
H1495 C1482 0.961 . S
H1496 C1482 0.961 . S
H1497 C1483 0.958 . S
H1498 C1483 0.961 . S
H1499 C1483 0.960 . S
C1500 C1501 1.391 . S
C1500 C1502 1.394 . S
C1500 H1516 0.931 . S
C1501 C1500 1.391 . S
C1501 C1505 1.376 . S
C1502 C1500 1.394 . S
C1502 C1503 1.369 . S
C1502 C1506 1.531 . S
C1503 C1502 1.369 . S
C1503 C1504 1.410 . S
C1503 C1511 1.503 . S
C1504 C1503 1.410 . S
C1504 C1505 1.392 . S
C1504 C1507 1.511 . S
C1505 C1501 1.376 . S
C1505 C1504 1.392 . S
C1505 H1517 0.929 . S
C1506 C1502 1.531 . S
C1506 H1518 0.960 . S
C1506 H1519 0.962 . S
C1506 H1520 0.960 . S
C1507 C1504 1.511 . S
C1507 H1521 0.961 . S
C1507 H1522 0.961 . S
C1507 H1523 0.961 . S
C1508 C1509 1.370 . S
C1508 C1510 1.363 . S
C1508 H1524 0.931 . S
C1509 C1508 1.370 . S
C1509 C1513 1.408 . S
C1510 C1508 1.363 . S
C1510 C1511 1.370 . S
C1510 C1514 1.524 . S
C1511 C1503 1.503 . S
C1511 C1510 1.370 . S
C1511 C1512 1.403 . S
C1512 C1511 1.403 . S
C1512 C1513 1.404 . S
C1512 C1515 1.539 . S
C1513 C1509 1.408 . S
C1513 C1512 1.404 . S
C1513 H1525 0.930 . S
C1514 C1510 1.524 . S
C1514 H1526 0.956 . S
C1514 H1527 0.961 . S
C1514 H1528 0.961 . S
C1515 C1512 1.539 . S
C1515 H1529 0.958 . S
C1515 H1530 0.961 . S
C1515 H1531 0.960 . S
H1516 C1500 0.931 . S
H1517 C1505 0.929 . S
H1518 C1506 0.960 . S
H1519 C1506 0.962 . S
H1520 C1506 0.960 . S
H1521 C1507 0.961 . S
H1522 C1507 0.961 . S
H1523 C1507 0.961 . S
H1524 C1508 0.931 . S
H1525 C1513 0.930 . S
H1526 C1514 0.956 . S
H1527 C1514 0.961 . S
H1528 C1514 0.961 . S
H1529 C1515 0.958 . S
H1530 C1515 0.961 . S
H1531 C1515 0.960 . S
C1532 C1533 1.391 . S
C1532 C1534 1.394 . S
C1532 H1548 0.931 . S
C1533 C1532 1.391 . S
C1533 C1537 1.376 . S
C1534 C1532 1.394 . S
C1534 C1535 1.369 . S
C1534 C1538 1.531 . S
C1535 C1534 1.369 . S
C1535 C1536 1.410 . S
C1535 C1543 1.503 . S
C1536 C1535 1.410 . S
C1536 C1537 1.392 . S
C1536 C1539 1.511 . S
C1537 C1533 1.376 . S
C1537 C1536 1.392 . S
C1537 H1549 0.929 . S
C1538 C1534 1.531 . S
C1538 H1550 0.960 . S
C1538 H1551 0.962 . S
C1538 H1552 0.960 . S
C1539 C1536 1.511 . S
C1539 H1553 0.961 . S
C1539 H1554 0.961 . S
C1539 H1555 0.961 . S
C1540 C1541 1.370 . S
C1540 C1542 1.363 . S
C1540 H1556 0.931 . S
C1541 C1540 1.370 . S
C1541 C1545 1.408 . S
C1542 C1540 1.363 . S
C1542 C1543 1.370 . S
C1542 C1546 1.524 . S
C1543 C1535 1.503 . S
C1543 C1542 1.370 . S
C1543 C1544 1.403 . S
C1544 C1543 1.403 . S
C1544 C1545 1.404 . S
C1544 C1547 1.539 . S
C1545 C1541 1.408 . S
C1545 C1544 1.404 . S
C1545 H1557 0.930 . S
C1546 C1542 1.524 . S
C1546 H1558 0.956 . S
C1546 H1559 0.961 . S
C1546 H1560 0.961 . S
C1547 C1544 1.539 . S
C1547 H1561 0.958 . S
C1547 H1562 0.961 . S
C1547 H1563 0.960 . S
H1548 C1532 0.931 . S
H1549 C1537 0.929 . S
H1550 C1538 0.960 . S
H1551 C1538 0.962 . S
H1552 C1538 0.960 . S
H1553 C1539 0.961 . S
H1554 C1539 0.961 . S
H1555 C1539 0.961 . S
H1556 C1540 0.931 . S
H1557 C1545 0.930 . S
H1558 C1546 0.956 . S
H1559 C1546 0.961 . S
H1560 C1546 0.961 . S
H1561 C1547 0.958 . S
H1562 C1547 0.961 . S
H1563 C1547 0.960 . S
C1564 C1565 1.391 . S
C1564 C1566 1.394 . S
C1564 H1580 0.931 . S
C1565 C1564 1.391 . S
C1565 C1569 1.376 . S
C1566 C1564 1.394 . S
C1566 C1567 1.369 . S
C1566 C1570 1.531 . S
C1567 C1566 1.369 . S
C1567 C1568 1.410 . S
C1567 C1575 1.503 . S
C1568 C1567 1.410 . S
C1568 C1569 1.392 . S
C1568 C1571 1.511 . S
C1569 C1565 1.376 . S
C1569 C1568 1.392 . S
C1569 H1581 0.929 . S
C1570 C1566 1.531 . S
C1570 H1582 0.960 . S
C1570 H1583 0.962 . S
C1570 H1584 0.960 . S
C1571 C1568 1.511 . S
C1571 H1585 0.961 . S
C1571 H1586 0.961 . S
C1571 H1587 0.961 . S
C1572 C1573 1.370 . S
C1572 C1574 1.363 . S
C1572 H1588 0.931 . S
C1573 C1572 1.370 . S
C1573 C1577 1.408 . S
C1574 C1572 1.363 . S
C1574 C1575 1.370 . S
C1574 C1578 1.524 . S
C1575 C1567 1.503 . S
C1575 C1574 1.370 . S
C1575 C1576 1.403 . S
C1576 C1575 1.403 . S
C1576 C1577 1.404 . S
C1576 C1579 1.539 . S
C1577 C1573 1.408 . S
C1577 C1576 1.404 . S
C1577 H1589 0.930 . S
C1578 C1574 1.524 . S
C1578 H1590 0.956 . S
C1578 H1591 0.961 . S
C1578 H1592 0.961 . S
C1579 C1576 1.539 . S
C1579 H1593 0.958 . S
C1579 H1594 0.961 . S
C1579 H1595 0.960 . S
H1580 C1564 0.931 . S
H1581 C1569 0.929 . S
H1582 C1570 0.960 . S
H1583 C1570 0.962 . S
H1584 C1570 0.960 . S
H1585 C1571 0.961 . S
H1586 C1571 0.961 . S
H1587 C1571 0.961 . S
H1588 C1572 0.931 . S
H1589 C1577 0.930 . S
H1590 C1578 0.956 . S
H1591 C1578 0.961 . S
H1592 C1578 0.961 . S
H1593 C1579 0.958 . S
H1594 C1579 0.961 . S
H1595 C1579 0.960 . S
C1596 C1597 1.391 . S
C1596 C1598 1.394 . S
C1596 H1612 0.931 . S
C1597 C1596 1.391 . S
C1597 C1601 1.376 . S
C1598 C1596 1.394 . S
C1598 C1599 1.369 . S
C1598 C1602 1.531 . S
C1599 C1598 1.369 . S
C1599 C1600 1.410 . S
C1599 C1607 1.503 . S
C1600 C1599 1.410 . S
C1600 C1601 1.392 . S
C1600 C1603 1.511 . S
C1601 C1597 1.376 . S
C1601 C1600 1.392 . S
C1601 H1613 0.929 . S
C1602 C1598 1.531 . S
C1602 H1614 0.960 . S
C1602 H1615 0.962 . S
C1602 H1616 0.960 . S
C1603 C1600 1.511 . S
C1603 H1617 0.961 . S
C1603 H1618 0.961 . S
C1603 H1619 0.961 . S
C1604 C1605 1.370 . S
C1604 C1606 1.363 . S
C1604 H1620 0.931 . S
C1605 C1604 1.370 . S
C1605 C1609 1.408 . S
C1606 C1604 1.363 . S
C1606 C1607 1.370 . S
C1606 C1610 1.524 . S
C1607 C1599 1.503 . S
C1607 C1606 1.370 . S
C1607 C1608 1.403 . S
C1608 C1607 1.403 . S
C1608 C1609 1.404 . S
C1608 C1611 1.539 . S
C1609 C1605 1.408 . S
C1609 C1608 1.404 . S
C1609 H1621 0.930 . S
C1610 C1606 1.524 . S
C1610 H1622 0.956 . S
C1610 H1623 0.961 . S
C1610 H1624 0.961 . S
C1611 C1608 1.539 . S
C1611 H1625 0.958 . S
C1611 H1626 0.961 . S
C1611 H1627 0.960 . S
H1612 C1596 0.931 . S
H1613 C1601 0.929 . S
H1614 C1602 0.960 . S
H1615 C1602 0.962 . S
H1616 C1602 0.960 . S
H1617 C1603 0.961 . S
H1618 C1603 0.961 . S
H1619 C1603 0.961 . S
H1620 C1604 0.931 . S
H1621 C1609 0.930 . S
H1622 C1610 0.956 . S
H1623 C1610 0.961 . S
H1624 C1610 0.961 . S
H1625 C1611 0.958 . S
H1626 C1611 0.961 . S
H1627 C1611 0.960 . S
C1628 C1629 1.391 . S
C1628 C1630 1.394 . S
C1628 H1644 0.931 . S
C1629 C1628 1.391 . S
C1629 C1633 1.376 . S
C1630 C1628 1.394 . S
C1630 C1631 1.369 . S
C1630 C1634 1.531 . S
C1631 C1630 1.369 . S
C1631 C1632 1.410 . S
C1631 C1639 1.503 . S
C1632 C1631 1.410 . S
C1632 C1633 1.392 . S
C1632 C1635 1.511 . S
C1633 C1629 1.376 . S
C1633 C1632 1.392 . S
C1633 H1645 0.929 . S
C1634 C1630 1.531 . S
C1634 H1646 0.960 . S
C1634 H1647 0.962 . S
C1634 H1648 0.960 . S
C1635 C1632 1.511 . S
C1635 H1649 0.961 . S
C1635 H1650 0.961 . S
C1635 H1651 0.961 . S
C1636 C1637 1.370 . S
C1636 C1638 1.363 . S
C1636 H1652 0.931 . S
C1637 C1636 1.370 . S
C1637 C1641 1.408 . S
C1638 C1636 1.363 . S
C1638 C1639 1.370 . S
C1638 C1642 1.524 . S
C1639 C1631 1.503 . S
C1639 C1638 1.370 . S
C1639 C1640 1.403 . S
C1640 C1639 1.403 . S
C1640 C1641 1.404 . S
C1640 C1643 1.539 . S
C1641 C1637 1.408 . S
C1641 C1640 1.404 . S
C1641 H1653 0.930 . S
C1642 C1638 1.524 . S
C1642 H1654 0.956 . S
C1642 H1655 0.961 . S
C1642 H1656 0.961 . S
C1643 C1640 1.539 . S
C1643 H1657 0.958 . S
C1643 H1658 0.961 . S
C1643 H1659 0.960 . S
H1644 C1628 0.931 . S
H1645 C1633 0.929 . S
H1646 C1634 0.960 . S
H1647 C1634 0.962 . S
H1648 C1634 0.960 . S
H1649 C1635 0.961 . S
H1650 C1635 0.961 . S
H1651 C1635 0.961 . S
H1652 C1636 0.931 . S
H1653 C1641 0.930 . S
H1654 C1642 0.956 . S
H1655 C1642 0.961 . S
H1656 C1642 0.961 . S
H1657 C1643 0.958 . S
H1658 C1643 0.961 . S
H1659 C1643 0.960 . S
C1660 C1661 1.391 . S
C1660 C1662 1.394 . S
C1660 H1676 0.931 . S
C1661 C1660 1.391 . S
C1661 C1665 1.376 . S
C1662 C1660 1.394 . S
C1662 C1663 1.369 . S
C1662 C1666 1.531 . S
C1663 C1662 1.369 . S
C1663 C1664 1.410 . S
C1663 C1671 1.503 . S
C1664 C1663 1.410 . S
C1664 C1665 1.392 . S
C1664 C1667 1.511 . S
C1665 C1661 1.376 . S
C1665 C1664 1.392 . S
C1665 H1677 0.929 . S
C1666 C1662 1.531 . S
C1666 H1678 0.960 . S
C1666 H1679 0.962 . S
C1666 H1680 0.960 . S
C1667 C1664 1.511 . S
C1667 H1681 0.961 . S
C1667 H1682 0.961 . S
C1667 H1683 0.961 . S
C1668 C1669 1.370 . S
C1668 C1670 1.363 . S
C1668 H1684 0.931 . S
C1669 C1668 1.370 . S
C1669 C1673 1.408 . S
C1670 C1668 1.363 . S
C1670 C1671 1.370 . S
C1670 C1674 1.524 . S
C1671 C1663 1.503 . S
C1671 C1670 1.370 . S
C1671 C1672 1.403 . S
C1672 C1671 1.403 . S
C1672 C1673 1.404 . S
C1672 C1675 1.539 . S
C1673 C1669 1.408 . S
C1673 C1672 1.404 . S
C1673 H1685 0.930 . S
C1674 C1670 1.524 . S
C1674 H1686 0.956 . S
C1674 H1687 0.961 . S
C1674 H1688 0.961 . S
C1675 C1672 1.539 . S
C1675 H1689 0.958 . S
C1675 H1690 0.961 . S
C1675 H1691 0.960 . S
H1676 C1660 0.931 . S
H1677 C1665 0.929 . S
H1678 C1666 0.960 . S
H1679 C1666 0.962 . S
H1680 C1666 0.960 . S
H1681 C1667 0.961 . S
H1682 C1667 0.961 . S
H1683 C1667 0.961 . S
H1684 C1668 0.931 . S
H1685 C1673 0.930 . S
H1686 C1674 0.956 . S
H1687 C1674 0.961 . S
H1688 C1674 0.961 . S
H1689 C1675 0.958 . S
H1690 C1675 0.961 . S
H1691 C1675 0.960 . S
C1692 C1693 1.391 . S
C1692 C1694 1.394 . S
C1692 H1708 0.931 . S
C1693 C1692 1.391 . S
C1693 C1697 1.376 . S
C1694 C1692 1.394 . S
C1694 C1695 1.369 . S
C1694 C1698 1.531 . S
C1695 C1694 1.369 . S
C1695 C1696 1.410 . S
C1695 C1703 1.503 . S
C1696 C1695 1.410 . S
C1696 C1697 1.392 . S
C1696 C1699 1.511 . S
C1697 C1693 1.376 . S
C1697 C1696 1.392 . S
C1697 H1709 0.929 . S
C1698 C1694 1.531 . S
C1698 H1710 0.960 . S
C1698 H1711 0.962 . S
C1698 H1712 0.960 . S
C1699 C1696 1.511 . S
C1699 H1713 0.961 . S
C1699 H1714 0.961 . S
C1699 H1715 0.961 . S
C1700 C1701 1.370 . S
C1700 C1702 1.363 . S
C1700 H1716 0.931 . S
C1701 C1700 1.370 . S
C1701 C1705 1.408 . S
C1702 C1700 1.363 . S
C1702 C1703 1.370 . S
C1702 C1706 1.524 . S
C1703 C1695 1.503 . S
C1703 C1702 1.370 . S
C1703 C1704 1.403 . S
C1704 C1703 1.403 . S
C1704 C1705 1.404 . S
C1704 C1707 1.539 . S
C1705 C1701 1.408 . S
C1705 C1704 1.404 . S
C1705 H1717 0.930 . S
C1706 C1702 1.524 . S
C1706 H1718 0.956 . S
C1706 H1719 0.961 . S
C1706 H1720 0.961 . S
C1707 C1704 1.539 . S
C1707 H1721 0.958 . S
C1707 H1722 0.961 . S
C1707 H1723 0.960 . S
H1708 C1692 0.931 . S
H1709 C1697 0.929 . S
H1710 C1698 0.960 . S
H1711 C1698 0.962 . S
H1712 C1698 0.960 . S
H1713 C1699 0.961 . S
H1714 C1699 0.961 . S
H1715 C1699 0.961 . S
H1716 C1700 0.931 . S
H1717 C1705 0.930 . S
H1718 C1706 0.956 . S
H1719 C1706 0.961 . S
H1720 C1706 0.961 . S
H1721 C1707 0.958 . S
H1722 C1707 0.961 . S
H1723 C1707 0.960 . S
C1724 C1725 1.391 . S
C1724 C1726 1.394 . S
C1724 H1740 0.931 . S
C1725 C1724 1.391 . S
C1725 C1729 1.376 . S
C1726 C1724 1.394 . S
C1726 C1727 1.369 . S
C1726 C1730 1.531 . S
C1727 C1726 1.369 . S
C1727 C1728 1.410 . S
C1727 C1735 1.503 . S
C1728 C1727 1.410 . S
C1728 C1729 1.392 . S
C1728 C1731 1.511 . S
C1729 C1725 1.376 . S
C1729 C1728 1.392 . S
C1729 H1741 0.929 . S
C1730 C1726 1.531 . S
C1730 H1742 0.960 . S
C1730 H1743 0.962 . S
C1730 H1744 0.960 . S
C1731 C1728 1.511 . S
C1731 H1745 0.961 . S
C1731 H1746 0.961 . S
C1731 H1747 0.961 . S
C1732 C1733 1.370 . S
C1732 C1734 1.363 . S
C1732 H1748 0.931 . S
C1733 C1732 1.370 . S
C1733 C1737 1.408 . S
C1734 C1732 1.363 . S
C1734 C1735 1.370 . S
C1734 C1738 1.524 . S
C1735 C1727 1.503 . S
C1735 C1734 1.370 . S
C1735 C1736 1.403 . S
C1736 C1735 1.403 . S
C1736 C1737 1.404 . S
C1736 C1739 1.539 . S
C1737 C1733 1.408 . S
C1737 C1736 1.404 . S
C1737 H1749 0.930 . S
C1738 C1734 1.524 . S
C1738 H1750 0.956 . S
C1738 H1751 0.961 . S
C1738 H1752 0.961 . S
C1739 C1736 1.539 . S
C1739 H1753 0.958 . S
C1739 H1754 0.961 . S
C1739 H1755 0.960 . S
H1740 C1724 0.931 . S
H1741 C1729 0.929 . S
H1742 C1730 0.960 . S
H1743 C1730 0.962 . S
H1744 C1730 0.960 . S
H1745 C1731 0.961 . S
H1746 C1731 0.961 . S
H1747 C1731 0.961 . S
H1748 C1732 0.931 . S
H1749 C1737 0.930 . S
H1750 C1738 0.956 . S
H1751 C1738 0.961 . S
H1752 C1738 0.961 . S
H1753 C1739 0.958 . S
H1754 C1739 0.961 . S
H1755 C1739 0.960 . S
C1756 C1757 1.391 . S
C1756 C1758 1.394 . S
C1756 H1772 0.931 . S
C1757 C1756 1.391 . S
C1757 C1761 1.376 . S
C1758 C1756 1.394 . S
C1758 C1759 1.369 . S
C1758 C1762 1.531 . S
C1759 C1758 1.369 . S
C1759 C1760 1.410 . S
C1759 C1767 1.503 . S
C1760 C1759 1.410 . S
C1760 C1761 1.392 . S
C1760 C1763 1.511 . S
C1761 C1757 1.376 . S
C1761 C1760 1.392 . S
C1761 H1773 0.929 . S
C1762 C1758 1.531 . S
C1762 H1774 0.960 . S
C1762 H1775 0.962 . S
C1762 H1776 0.960 . S
C1763 C1760 1.511 . S
C1763 H1777 0.961 . S
C1763 H1778 0.961 . S
C1763 H1779 0.961 . S
C1764 C1765 1.370 . S
C1764 C1766 1.363 . S
C1764 H1780 0.931 . S
C1765 C1764 1.370 . S
C1765 C1769 1.408 . S
C1766 C1764 1.363 . S
C1766 C1767 1.370 . S
C1766 C1770 1.524 . S
C1767 C1759 1.503 . S
C1767 C1766 1.370 . S
C1767 C1768 1.403 . S
C1768 C1767 1.403 . S
C1768 C1769 1.404 . S
C1768 C1771 1.539 . S
C1769 C1765 1.408 . S
C1769 C1768 1.404 . S
C1769 H1781 0.930 . S
C1770 C1766 1.524 . S
C1770 H1782 0.956 . S
C1770 H1783 0.961 . S
C1770 H1784 0.961 . S
C1771 C1768 1.539 . S
C1771 H1785 0.958 . S
C1771 H1786 0.961 . S
C1771 H1787 0.960 . S
H1772 C1756 0.931 . S
H1773 C1761 0.929 . S
H1774 C1762 0.960 . S
H1775 C1762 0.962 . S
H1776 C1762 0.960 . S
H1777 C1763 0.961 . S
H1778 C1763 0.961 . S
H1779 C1763 0.961 . S
H1780 C1764 0.931 . S
H1781 C1769 0.930 . S
H1782 C1770 0.956 . S
H1783 C1770 0.961 . S
H1784 C1770 0.961 . S
H1785 C1771 0.958 . S
H1786 C1771 0.961 . S
H1787 C1771 0.960 . S
C1788 C1789 1.391 . S
C1788 C1790 1.394 . S
C1788 H1804 0.931 . S
C1789 C1788 1.391 . S
C1789 C1793 1.376 . S
C1790 C1788 1.394 . S
C1790 C1791 1.369 . S
C1790 C1794 1.531 . S
C1791 C1790 1.369 . S
C1791 C1792 1.410 . S
C1791 C1799 1.503 . S
C1792 C1791 1.410 . S
C1792 C1793 1.392 . S
C1792 C1795 1.511 . S
C1793 C1789 1.376 . S
C1793 C1792 1.392 . S
C1793 H1805 0.929 . S
C1794 C1790 1.531 . S
C1794 H1806 0.960 . S
C1794 H1807 0.962 . S
C1794 H1808 0.960 . S
C1795 C1792 1.511 . S
C1795 H1809 0.961 . S
C1795 H1810 0.961 . S
C1795 H1811 0.961 . S
C1796 C1797 1.370 . S
C1796 C1798 1.363 . S
C1796 H1812 0.931 . S
C1797 C1796 1.370 . S
C1797 C1801 1.408 . S
C1798 C1796 1.363 . S
C1798 C1799 1.370 . S
C1798 C1802 1.524 . S
C1799 C1791 1.503 . S
C1799 C1798 1.370 . S
C1799 C1800 1.403 . S
C1800 C1799 1.403 . S
C1800 C1801 1.404 . S
C1800 C1803 1.539 . S
C1801 C1797 1.408 . S
C1801 C1800 1.404 . S
C1801 H1813 0.930 . S
C1802 C1798 1.524 . S
C1802 H1814 0.956 . S
C1802 H1815 0.961 . S
C1802 H1816 0.961 . S
C1803 C1800 1.539 . S
C1803 H1817 0.958 . S
C1803 H1818 0.961 . S
C1803 H1819 0.960 . S
H1804 C1788 0.931 . S
H1805 C1793 0.929 . S
H1806 C1794 0.960 . S
H1807 C1794 0.962 . S
H1808 C1794 0.960 . S
H1809 C1795 0.961 . S
H1810 C1795 0.961 . S
H1811 C1795 0.961 . S
H1812 C1796 0.931 . S
H1813 C1801 0.930 . S
H1814 C1802 0.956 . S
H1815 C1802 0.961 . S
H1816 C1802 0.961 . S
H1817 C1803 0.958 . S
H1818 C1803 0.961 . S
H1819 C1803 0.960 . S
C1820 C1821 1.391 . S
C1820 C1822 1.394 . S
C1820 H1836 0.931 . S
C1821 C1820 1.391 . S
C1821 C1825 1.376 . S
C1822 C1820 1.394 . S
C1822 C1823 1.369 . S
C1822 C1826 1.531 . S
C1823 C1822 1.369 . S
C1823 C1824 1.410 . S
C1823 C1831 1.503 . S
C1824 C1823 1.410 . S
C1824 C1825 1.392 . S
C1824 C1827 1.511 . S
C1825 C1821 1.376 . S
C1825 C1824 1.392 . S
C1825 H1837 0.929 . S
C1826 C1822 1.531 . S
C1826 H1838 0.960 . S
C1826 H1839 0.962 . S
C1826 H1840 0.960 . S
C1827 C1824 1.511 . S
C1827 H1841 0.961 . S
C1827 H1842 0.961 . S
C1827 H1843 0.961 . S
C1828 C1829 1.370 . S
C1828 C1830 1.363 . S
C1828 H1844 0.931 . S
C1829 C1828 1.370 . S
C1829 C1833 1.408 . S
C1830 C1828 1.363 . S
C1830 C1831 1.370 . S
C1830 C1834 1.524 . S
C1831 C1823 1.503 . S
C1831 C1830 1.370 . S
C1831 C1832 1.403 . S
C1832 C1831 1.403 . S
C1832 C1833 1.404 . S
C1832 C1835 1.539 . S
C1833 C1829 1.408 . S
C1833 C1832 1.404 . S
C1833 H1845 0.930 . S
C1834 C1830 1.524 . S
C1834 H1846 0.956 . S
C1834 H1847 0.961 . S
C1834 H1848 0.961 . S
C1835 C1832 1.539 . S
C1835 H1849 0.958 . S
C1835 H1850 0.961 . S
C1835 H1851 0.960 . S
H1836 C1820 0.931 . S
H1837 C1825 0.929 . S
H1838 C1826 0.960 . S
H1839 C1826 0.962 . S
H1840 C1826 0.960 . S
H1841 C1827 0.961 . S
H1842 C1827 0.961 . S
H1843 C1827 0.961 . S
H1844 C1828 0.931 . S
H1845 C1833 0.930 . S
H1846 C1834 0.956 . S
H1847 C1834 0.961 . S
H1848 C1834 0.961 . S
H1849 C1835 0.958 . S
H1850 C1835 0.961 . S
H1851 C1835 0.960 . S
C1852 C1853 1.391 . S
C1852 C1854 1.394 . S
C1852 H1868 0.931 . S
C1853 C1852 1.391 . S
C1853 C1857 1.376 . S
C1854 C1852 1.394 . S
C1854 C1855 1.369 . S
C1854 C1858 1.531 . S
C1855 C1854 1.369 . S
C1855 C1856 1.410 . S
C1855 C1863 1.503 . S
C1856 C1855 1.410 . S
C1856 C1857 1.392 . S
C1856 C1859 1.511 . S
C1857 C1853 1.376 . S
C1857 C1856 1.392 . S
C1857 H1869 0.929 . S
C1858 C1854 1.531 . S
C1858 H1870 0.960 . S
C1858 H1871 0.962 . S
C1858 H1872 0.960 . S
C1859 C1856 1.511 . S
C1859 H1873 0.961 . S
C1859 H1874 0.961 . S
C1859 H1875 0.961 . S
C1860 C1861 1.370 . S
C1860 C1862 1.363 . S
C1860 H1876 0.931 . S
C1861 C1860 1.370 . S
C1861 C1865 1.408 . S
C1862 C1860 1.363 . S
C1862 C1863 1.370 . S
C1862 C1866 1.524 . S
C1863 C1855 1.503 . S
C1863 C1862 1.370 . S
C1863 C1864 1.403 . S
C1864 C1863 1.403 . S
C1864 C1865 1.404 . S
C1864 C1867 1.539 . S
C1865 C1861 1.408 . S
C1865 C1864 1.404 . S
C1865 H1877 0.930 . S
C1866 C1862 1.524 . S
C1866 H1878 0.956 . S
C1866 H1879 0.961 . S
C1866 H1880 0.961 . S
C1867 C1864 1.539 . S
C1867 H1881 0.958 . S
C1867 H1882 0.961 . S
C1867 H1883 0.960 . S
H1868 C1852 0.931 . S
H1869 C1857 0.929 . S
H1870 C1858 0.960 . S
H1871 C1858 0.962 . S
H1872 C1858 0.960 . S
H1873 C1859 0.961 . S
H1874 C1859 0.961 . S
H1875 C1859 0.961 . S
H1876 C1860 0.931 . S
H1877 C1865 0.930 . S
H1878 C1866 0.956 . S
H1879 C1866 0.961 . S
H1880 C1866 0.961 . S
H1881 C1867 0.958 . S
H1882 C1867 0.961 . S
H1883 C1867 0.960 . S
C1884 C1885 1.391 . S
C1884 C1886 1.394 . S
C1884 H1900 0.931 . S
C1885 C1884 1.391 . S
C1885 C1889 1.376 . S
C1886 C1884 1.394 . S
C1886 C1887 1.369 . S
C1886 C1890 1.531 . S
C1887 C1886 1.369 . S
C1887 C1888 1.410 . S
C1887 C1895 1.503 . S
C1888 C1887 1.410 . S
C1888 C1889 1.392 . S
C1888 C1891 1.511 . S
C1889 C1885 1.376 . S
C1889 C1888 1.392 . S
C1889 H1901 0.929 . S
C1890 C1886 1.531 . S
C1890 H1902 0.960 . S
C1890 H1903 0.962 . S
C1890 H1904 0.960 . S
C1891 C1888 1.511 . S
C1891 H1905 0.961 . S
C1891 H1906 0.961 . S
C1891 H1907 0.961 . S
C1892 C1893 1.370 . S
C1892 C1894 1.363 . S
C1892 H1908 0.931 . S
C1893 C1892 1.370 . S
C1893 C1897 1.408 . S
C1894 C1892 1.363 . S
C1894 C1895 1.370 . S
C1894 C1898 1.524 . S
C1895 C1887 1.503 . S
C1895 C1894 1.370 . S
C1895 C1896 1.403 . S
C1896 C1895 1.403 . S
C1896 C1897 1.404 . S
C1896 C1899 1.539 . S
C1897 C1893 1.408 . S
C1897 C1896 1.404 . S
C1897 H1909 0.930 . S
C1898 C1894 1.524 . S
C1898 H1910 0.956 . S
C1898 H1911 0.961 . S
C1898 H1912 0.961 . S
C1899 C1896 1.539 . S
C1899 H1913 0.958 . S
C1899 H1914 0.961 . S
C1899 H1915 0.960 . S
H1900 C1884 0.931 . S
H1901 C1889 0.929 . S
H1902 C1890 0.960 . S
H1903 C1890 0.962 . S
H1904 C1890 0.960 . S
H1905 C1891 0.961 . S
H1906 C1891 0.961 . S
H1907 C1891 0.961 . S
H1908 C1892 0.931 . S
H1909 C1897 0.930 . S
H1910 C1898 0.956 . S
H1911 C1898 0.961 . S
H1912 C1898 0.961 . S
H1913 C1899 0.958 . S
H1914 C1899 0.961 . S
H1915 C1899 0.960 . S
C1916 C1917 1.391 . S
C1916 C1918 1.394 . S
C1916 H1932 0.931 . S
C1917 C1916 1.391 . S
C1917 C1921 1.376 . S
C1918 C1916 1.394 . S
C1918 C1919 1.369 . S
C1918 C1922 1.531 . S
C1919 C1918 1.369 . S
C1919 C1920 1.410 . S
C1919 C1927 1.503 . S
C1920 C1919 1.410 . S
C1920 C1921 1.392 . S
C1920 C1923 1.511 . S
C1921 C1917 1.376 . S
C1921 C1920 1.392 . S
C1921 H1933 0.929 . S
C1922 C1918 1.531 . S
C1922 H1934 0.960 . S
C1922 H1935 0.962 . S
C1922 H1936 0.960 . S
C1923 C1920 1.511 . S
C1923 H1937 0.961 . S
C1923 H1938 0.961 . S
C1923 H1939 0.961 . S
C1924 C1925 1.370 . S
C1924 C1926 1.363 . S
C1924 H1940 0.931 . S
C1925 C1924 1.370 . S
C1925 C1929 1.408 . S
C1926 C1924 1.363 . S
C1926 C1927 1.370 . S
C1926 C1930 1.524 . S
C1927 C1919 1.503 . S
C1927 C1926 1.370 . S
C1927 C1928 1.403 . S
C1928 C1927 1.403 . S
C1928 C1929 1.404 . S
C1928 C1931 1.539 . S
C1929 C1925 1.408 . S
C1929 C1928 1.404 . S
C1929 H1941 0.930 . S
C1930 C1926 1.524 . S
C1930 H1942 0.956 . S
C1930 H1943 0.961 . S
C1930 H1944 0.961 . S
C1931 C1928 1.539 . S
C1931 H1945 0.958 . S
C1931 H1946 0.961 . S
C1931 H1947 0.960 . S
H1932 C1916 0.931 . S
H1933 C1921 0.929 . S
H1934 C1922 0.960 . S
H1935 C1922 0.962 . S
H1936 C1922 0.960 . S
H1937 C1923 0.961 . S
H1938 C1923 0.961 . S
H1939 C1923 0.961 . S
H1940 C1924 0.931 . S
H1941 C1929 0.930 . S
H1942 C1930 0.956 . S
H1943 C1930 0.961 . S
H1944 C1930 0.961 . S
H1945 C1931 0.958 . S
H1946 C1931 0.961 . S
H1947 C1931 0.960 . S
C1948 C1949 1.391 . S
C1948 C1950 1.394 . S
C1948 H1964 0.931 . S
C1949 C1948 1.391 . S
C1949 C1953 1.376 . S
C1950 C1948 1.394 . S
C1950 C1951 1.369 . S
C1950 C1954 1.531 . S
C1951 C1950 1.369 . S
C1951 C1952 1.410 . S
C1951 C1959 1.503 . S
C1952 C1951 1.410 . S
C1952 C1953 1.392 . S
C1952 C1955 1.511 . S
C1953 C1949 1.376 . S
C1953 C1952 1.392 . S
C1953 H1965 0.929 . S
C1954 C1950 1.531 . S
C1954 H1966 0.960 . S
C1954 H1967 0.962 . S
C1954 H1968 0.960 . S
C1955 C1952 1.511 . S
C1955 H1969 0.961 . S
C1955 H1970 0.961 . S
C1955 H1971 0.961 . S
C1956 C1957 1.370 . S
C1956 C1958 1.363 . S
C1956 H1972 0.931 . S
C1957 C1956 1.370 . S
C1957 C1961 1.408 . S
C1958 C1956 1.363 . S
C1958 C1959 1.370 . S
C1958 C1962 1.524 . S
C1959 C1951 1.503 . S
C1959 C1958 1.370 . S
C1959 C1960 1.403 . S
C1960 C1959 1.403 . S
C1960 C1961 1.404 . S
C1960 C1963 1.539 . S
C1961 C1957 1.408 . S
C1961 C1960 1.404 . S
C1961 H1973 0.930 . S
C1962 C1958 1.524 . S
C1962 H1974 0.956 . S
C1962 H1975 0.961 . S
C1962 H1976 0.961 . S
C1963 C1960 1.539 . S
C1963 H1977 0.958 . S
C1963 H1978 0.961 . S
C1963 H1979 0.960 . S
H1964 C1948 0.931 . S
H1965 C1953 0.929 . S
H1966 C1954 0.960 . S
H1967 C1954 0.962 . S
H1968 C1954 0.960 . S
H1969 C1955 0.961 . S
H1970 C1955 0.961 . S
H1971 C1955 0.961 . S
H1972 C1956 0.931 . S
H1973 C1961 0.930 . S
H1974 C1962 0.956 . S
H1975 C1962 0.961 . S
H1976 C1962 0.961 . S
H1977 C1963 0.958 . S
H1978 C1963 0.961 . S
H1979 C1963 0.960 . S
C1980 C1981 1.391 . S
C1980 C1982 1.394 . S
C1980 H1996 0.931 . S
C1981 C1980 1.391 . S
C1981 C1985 1.376 . S
C1982 C1980 1.394 . S
C1982 C1983 1.369 . S
C1982 C1986 1.531 . S
C1983 C1982 1.369 . S
C1983 C1984 1.410 . S
C1983 C1991 1.503 . S
C1984 C1983 1.410 . S
C1984 C1985 1.392 . S
C1984 C1987 1.511 . S
C1985 C1981 1.376 . S
C1985 C1984 1.392 . S
C1985 H1997 0.929 . S
C1986 C1982 1.531 . S
C1986 H1998 0.960 . S
C1986 H1999 0.962 . S
C1986 H2000 0.960 . S
C1987 C1984 1.511 . S
C1987 H2001 0.961 . S
C1987 H2002 0.961 . S
C1987 H2003 0.961 . S
C1988 C1989 1.370 . S
C1988 C1990 1.363 . S
C1988 H2004 0.931 . S
C1989 C1988 1.370 . S
C1989 C1993 1.408 . S
C1990 C1988 1.363 . S
C1990 C1991 1.370 . S
C1990 C1994 1.524 . S
C1991 C1983 1.503 . S
C1991 C1990 1.370 . S
C1991 C1992 1.403 . S
C1992 C1991 1.403 . S
C1992 C1993 1.404 . S
C1992 C1995 1.539 . S
C1993 C1989 1.408 . S
C1993 C1992 1.404 . S
C1993 H2005 0.930 . S
C1994 C1990 1.524 . S
C1994 H2006 0.956 . S
C1994 H2007 0.961 . S
C1994 H2008 0.961 . S
C1995 C1992 1.539 . S
C1995 H2009 0.958 . S
C1995 H2010 0.961 . S
C1995 H2011 0.960 . S
H1996 C1980 0.931 . S
H1997 C1985 0.929 . S
H1998 C1986 0.960 . S
H1999 C1986 0.962 . S
H2000 C1986 0.960 . S
H2001 C1987 0.961 . S
H2002 C1987 0.961 . S
H2003 C1987 0.961 . S
H2004 C1988 0.931 . S
H2005 C1993 0.930 . S
H2006 C1994 0.956 . S
H2007 C1994 0.961 . S
H2008 C1994 0.961 . S
H2009 C1995 0.958 . S
H2010 C1995 0.961 . S
H2011 C1995 0.960 . S
C2012 C2013 1.391 . S
C2012 C2014 1.394 . S
C2012 H2028 0.931 . S
C2013 C2012 1.391 . S
C2013 C2017 1.376 . S
C2014 C2012 1.394 . S
C2014 C2015 1.369 . S
C2014 C2018 1.531 . S
C2015 C2014 1.369 . S
C2015 C2016 1.410 . S
C2015 C2023 1.503 . S
C2016 C2015 1.410 . S
C2016 C2017 1.392 . S
C2016 C2019 1.511 . S
C2017 C2013 1.376 . S
C2017 C2016 1.392 . S
C2017 H2029 0.929 . S
C2018 C2014 1.531 . S
C2018 H2030 0.960 . S
C2018 H2031 0.962 . S
C2018 H2032 0.960 . S
C2019 C2016 1.511 . S
C2019 H2033 0.961 . S
C2019 H2034 0.961 . S
C2019 H2035 0.961 . S
C2020 C2021 1.370 . S
C2020 C2022 1.363 . S
C2020 H2036 0.931 . S
C2021 C2020 1.370 . S
C2021 C2025 1.408 . S
C2022 C2020 1.363 . S
C2022 C2023 1.370 . S
C2022 C2026 1.524 . S
C2023 C2015 1.503 . S
C2023 C2022 1.370 . S
C2023 C2024 1.403 . S
C2024 C2023 1.403 . S
C2024 C2025 1.404 . S
C2024 C2027 1.539 . S
C2025 C2021 1.408 . S
C2025 C2024 1.404 . S
C2025 H2037 0.930 . S
C2026 C2022 1.524 . S
C2026 H2038 0.956 . S
C2026 H2039 0.961 . S
C2026 H2040 0.961 . S
C2027 C2024 1.539 . S
C2027 H2041 0.958 . S
C2027 H2042 0.961 . S
C2027 H2043 0.960 . S
H2028 C2012 0.931 . S
H2029 C2017 0.929 . S
H2030 C2018 0.960 . S
H2031 C2018 0.962 . S
H2032 C2018 0.960 . S
H2033 C2019 0.961 . S
H2034 C2019 0.961 . S
H2035 C2019 0.961 . S
H2036 C2020 0.931 . S
H2037 C2025 0.930 . S
H2038 C2026 0.956 . S
H2039 C2026 0.961 . S
H2040 C2026 0.961 . S
H2041 C2027 0.958 . S
H2042 C2027 0.961 . S
H2043 C2027 0.960 . S
C2044 C2045 1.391 . S
C2044 C2046 1.394 . S
C2044 H2060 0.931 . S
C2045 C2044 1.391 . S
C2045 C2049 1.376 . S
C2046 C2044 1.394 . S
C2046 C2047 1.369 . S
C2046 C2050 1.531 . S
C2047 C2046 1.369 . S
C2047 C2048 1.410 . S
C2047 C2055 1.503 . S
C2048 C2047 1.410 . S
C2048 C2049 1.392 . S
C2048 C2051 1.511 . S
C2049 C2045 1.376 . S
C2049 C2048 1.392 . S
C2049 H2061 0.929 . S
C2050 C2046 1.531 . S
C2050 H2062 0.960 . S
C2050 H2063 0.962 . S
C2050 H2064 0.960 . S
C2051 C2048 1.511 . S
C2051 H2065 0.961 . S
C2051 H2066 0.961 . S
C2051 H2067 0.961 . S
C2052 C2053 1.370 . S
C2052 C2054 1.363 . S
C2052 H2068 0.931 . S
C2053 C2052 1.370 . S
C2053 C2057 1.408 . S
C2054 C2052 1.363 . S
C2054 C2055 1.370 . S
C2054 C2058 1.524 . S
C2055 C2047 1.503 . S
C2055 C2054 1.370 . S
C2055 C2056 1.403 . S
C2056 C2055 1.403 . S
C2056 C2057 1.404 . S
C2056 C2059 1.539 . S
C2057 C2053 1.408 . S
C2057 C2056 1.404 . S
C2057 H2069 0.930 . S
C2058 C2054 1.524 . S
C2058 H2070 0.956 . S
C2058 H2071 0.961 . S
C2058 H2072 0.961 . S
C2059 C2056 1.539 . S
C2059 H2073 0.958 . S
C2059 H2074 0.961 . S
C2059 H2075 0.960 . S
H2060 C2044 0.931 . S
H2061 C2049 0.929 . S
H2062 C2050 0.960 . S
H2063 C2050 0.962 . S
H2064 C2050 0.960 . S
H2065 C2051 0.961 . S
H2066 C2051 0.961 . S
H2067 C2051 0.961 . S
H2068 C2052 0.931 . S
H2069 C2057 0.930 . S
H2070 C2058 0.956 . S
H2071 C2058 0.961 . S
H2072 C2058 0.961 . S
H2073 C2059 0.958 . S
H2074 C2059 0.961 . S
H2075 C2059 0.960 . S
C2076 C2077 1.391 . S
C2076 C2078 1.394 . S
C2076 H2092 0.931 . S
C2077 C2076 1.391 . S
C2077 C2081 1.376 . S
C2078 C2076 1.394 . S
C2078 C2079 1.369 . S
C2078 C2082 1.531 . S
C2079 C2078 1.369 . S
C2079 C2080 1.410 . S
C2079 C2087 1.503 . S
C2080 C2079 1.410 . S
C2080 C2081 1.392 . S
C2080 C2083 1.511 . S
C2081 C2077 1.376 . S
C2081 C2080 1.392 . S
C2081 H2093 0.929 . S
C2082 C2078 1.531 . S
C2082 H2094 0.960 . S
C2082 H2095 0.962 . S
C2082 H2096 0.960 . S
C2083 C2080 1.511 . S
C2083 H2097 0.961 . S
C2083 H2098 0.961 . S
C2083 H2099 0.961 . S
C2084 C2085 1.370 . S
C2084 C2086 1.363 . S
C2084 H2100 0.931 . S
C2085 C2084 1.370 . S
C2085 C2089 1.408 . S
C2086 C2084 1.363 . S
C2086 C2087 1.370 . S
C2086 C2090 1.524 . S
C2087 C2079 1.503 . S
C2087 C2086 1.370 . S
C2087 C2088 1.403 . S
C2088 C2087 1.403 . S
C2088 C2089 1.404 . S
C2088 C2091 1.539 . S
C2089 C2085 1.408 . S
C2089 C2088 1.404 . S
C2089 H2101 0.930 . S
C2090 C2086 1.524 . S
C2090 H2102 0.956 . S
C2090 H2103 0.961 . S
C2090 H2104 0.961 . S
C2091 C2088 1.539 . S
C2091 H2105 0.958 . S
C2091 H2106 0.961 . S
C2091 H2107 0.960 . S
H2092 C2076 0.931 . S
H2093 C2081 0.929 . S
H2094 C2082 0.960 . S
H2095 C2082 0.962 . S
H2096 C2082 0.960 . S
H2097 C2083 0.961 . S
H2098 C2083 0.961 . S
H2099 C2083 0.961 . S
H2100 C2084 0.931 . S
H2101 C2089 0.930 . S
H2102 C2090 0.956 . S
H2103 C2090 0.961 . S
H2104 C2090 0.961 . S
H2105 C2091 0.958 . S
H2106 C2091 0.961 . S
H2107 C2091 0.960 . S
C2108 C2109 1.391 . S
C2108 C2110 1.394 . S
C2108 H2124 0.931 . S
C2109 C2108 1.391 . S
C2109 C2113 1.376 . S
C2110 C2108 1.394 . S
C2110 C2111 1.369 . S
C2110 C2114 1.531 . S
C2111 C2110 1.369 . S
C2111 C2112 1.410 . S
C2111 C2119 1.503 . S
C2112 C2111 1.410 . S
C2112 C2113 1.392 . S
C2112 C2115 1.511 . S
C2113 C2109 1.376 . S
C2113 C2112 1.392 . S
C2113 H2125 0.929 . S
C2114 C2110 1.531 . S
C2114 H2126 0.960 . S
C2114 H2127 0.962 . S
C2114 H2128 0.960 . S
C2115 C2112 1.511 . S
C2115 H2129 0.961 . S
C2115 H2130 0.961 . S
C2115 H2131 0.961 . S
C2116 C2117 1.370 . S
C2116 C2118 1.363 . S
C2116 H2132 0.931 . S
C2117 C2116 1.370 . S
C2117 C2121 1.408 . S
C2118 C2116 1.363 . S
C2118 C2119 1.370 . S
C2118 C2122 1.524 . S
C2119 C2111 1.503 . S
C2119 C2118 1.370 . S
C2119 C2120 1.403 . S
C2120 C2119 1.403 . S
C2120 C2121 1.404 . S
C2120 C2123 1.539 . S
C2121 C2117 1.408 . S
C2121 C2120 1.404 . S
C2121 H2133 0.930 . S
C2122 C2118 1.524 . S
C2122 H2134 0.956 . S
C2122 H2135 0.961 . S
C2122 H2136 0.961 . S
C2123 C2120 1.539 . S
C2123 H2137 0.958 . S
C2123 H2138 0.961 . S
C2123 H2139 0.960 . S
H2124 C2108 0.931 . S
H2125 C2113 0.929 . S
H2126 C2114 0.960 . S
H2127 C2114 0.962 . S
H2128 C2114 0.960 . S
H2129 C2115 0.961 . S
H2130 C2115 0.961 . S
H2131 C2115 0.961 . S
H2132 C2116 0.931 . S
H2133 C2121 0.930 . S
H2134 C2122 0.956 . S
H2135 C2122 0.961 . S
H2136 C2122 0.961 . S
H2137 C2123 0.958 . S
H2138 C2123 0.961 . S
H2139 C2123 0.960 . S
C2140 C2141 1.391 . S
C2140 C2142 1.394 . S
C2140 H2156 0.931 . S
C2141 C2140 1.391 . S
C2141 C2145 1.376 . S
C2142 C2140 1.394 . S
C2142 C2143 1.369 . S
C2142 C2146 1.531 . S
C2143 C2142 1.369 . S
C2143 C2144 1.410 . S
C2143 C2151 1.503 . S
C2144 C2143 1.410 . S
C2144 C2145 1.392 . S
C2144 C2147 1.511 . S
C2145 C2141 1.376 . S
C2145 C2144 1.392 . S
C2145 H2157 0.929 . S
C2146 C2142 1.531 . S
C2146 H2158 0.960 . S
C2146 H2159 0.962 . S
C2146 H2160 0.960 . S
C2147 C2144 1.511 . S
C2147 H2161 0.961 . S
C2147 H2162 0.961 . S
C2147 H2163 0.961 . S
C2148 C2149 1.370 . S
C2148 C2150 1.363 . S
C2148 H2164 0.931 . S
C2149 C2148 1.370 . S
C2149 C2153 1.408 . S
C2150 C2148 1.363 . S
C2150 C2151 1.370 . S
C2150 C2154 1.524 . S
C2151 C2143 1.503 . S
C2151 C2150 1.370 . S
C2151 C2152 1.403 . S
C2152 C2151 1.403 . S
C2152 C2153 1.404 . S
C2152 C2155 1.539 . S
C2153 C2149 1.408 . S
C2153 C2152 1.404 . S
C2153 H2165 0.930 . S
C2154 C2150 1.524 . S
C2154 H2166 0.956 . S
C2154 H2167 0.961 . S
C2154 H2168 0.961 . S
C2155 C2152 1.539 . S
C2155 H2169 0.958 . S
C2155 H2170 0.961 . S
C2155 H2171 0.960 . S
H2156 C2140 0.931 . S
H2157 C2145 0.929 . S
H2158 C2146 0.960 . S
H2159 C2146 0.962 . S
H2160 C2146 0.960 . S
H2161 C2147 0.961 . S
H2162 C2147 0.961 . S
H2163 C2147 0.961 . S
H2164 C2148 0.931 . S
H2165 C2153 0.930 . S
H2166 C2154 0.956 . S
H2167 C2154 0.961 . S
H2168 C2154 0.961 . S
H2169 C2155 0.958 . S
H2170 C2155 0.961 . S
H2171 C2155 0.960 . S
C2172 C2173 1.391 . S
C2172 C2174 1.394 . S
C2172 H2188 0.931 . S
C2173 C2172 1.391 . S
C2173 C2177 1.376 . S
C2174 C2172 1.394 . S
C2174 C2175 1.369 . S
C2174 C2178 1.531 . S
C2175 C2174 1.369 . S
C2175 C2176 1.410 . S
C2175 C2183 1.503 . S
C2176 C2175 1.410 . S
C2176 C2177 1.392 . S
C2176 C2179 1.511 . S
C2177 C2173 1.376 . S
C2177 C2176 1.392 . S
C2177 H2189 0.929 . S
C2178 C2174 1.531 . S
C2178 H2190 0.960 . S
C2178 H2191 0.962 . S
C2178 H2192 0.960 . S
C2179 C2176 1.511 . S
C2179 H2193 0.961 . S
C2179 H2194 0.961 . S
C2179 H2195 0.961 . S
C2180 C2181 1.370 . S
C2180 C2182 1.363 . S
C2180 H2196 0.931 . S
C2181 C2180 1.370 . S
C2181 C2185 1.408 . S
C2182 C2180 1.363 . S
C2182 C2183 1.370 . S
C2182 C2186 1.524 . S
C2183 C2175 1.503 . S
C2183 C2182 1.370 . S
C2183 C2184 1.403 . S
C2184 C2183 1.403 . S
C2184 C2185 1.404 . S
C2184 C2187 1.539 . S
C2185 C2181 1.408 . S
C2185 C2184 1.404 . S
C2185 H2197 0.930 . S
C2186 C2182 1.524 . S
C2186 H2198 0.956 . S
C2186 H2199 0.961 . S
C2186 H2200 0.961 . S
C2187 C2184 1.539 . S
C2187 H2201 0.958 . S
C2187 H2202 0.961 . S
C2187 H2203 0.960 . S
H2188 C2172 0.931 . S
H2189 C2177 0.929 . S
H2190 C2178 0.960 . S
H2191 C2178 0.962 . S
H2192 C2178 0.960 . S
H2193 C2179 0.961 . S
H2194 C2179 0.961 . S
H2195 C2179 0.961 . S
H2196 C2180 0.931 . S
H2197 C2185 0.930 . S
H2198 C2186 0.956 . S
H2199 C2186 0.961 . S
H2200 C2186 0.961 . S
H2201 C2187 0.958 . S
H2202 C2187 0.961 . S
H2203 C2187 0.960 . S
C2204 C2205 1.391 . S
C2204 C2206 1.394 . S
C2204 H2220 0.931 . S
C2205 C2204 1.391 . S
C2205 C2209 1.376 . S
C2206 C2204 1.394 . S
C2206 C2207 1.369 . S
C2206 C2210 1.531 . S
C2207 C2206 1.369 . S
C2207 C2208 1.410 . S
C2207 C2215 1.503 . S
C2208 C2207 1.410 . S
C2208 C2209 1.392 . S
C2208 C2211 1.511 . S
C2209 C2205 1.376 . S
C2209 C2208 1.392 . S
C2209 H2221 0.929 . S
C2210 C2206 1.531 . S
C2210 H2222 0.960 . S
C2210 H2223 0.962 . S
C2210 H2224 0.960 . S
C2211 C2208 1.511 . S
C2211 H2225 0.961 . S
C2211 H2226 0.961 . S
C2211 H2227 0.961 . S
C2212 C2213 1.370 . S
C2212 C2214 1.363 . S
C2212 H2228 0.931 . S
C2213 C2212 1.370 . S
C2213 C2217 1.408 . S
C2214 C2212 1.363 . S
C2214 C2215 1.370 . S
C2214 C2218 1.524 . S
C2215 C2207 1.503 . S
C2215 C2214 1.370 . S
C2215 C2216 1.403 . S
C2216 C2215 1.403 . S
C2216 C2217 1.404 . S
C2216 C2219 1.539 . S
C2217 C2213 1.408 . S
C2217 C2216 1.404 . S
C2217 H2229 0.930 . S
C2218 C2214 1.524 . S
C2218 H2230 0.956 . S
C2218 H2231 0.961 . S
C2218 H2232 0.961 . S
C2219 C2216 1.539 . S
C2219 H2233 0.958 . S
C2219 H2234 0.961 . S
C2219 H2235 0.960 . S
H2220 C2204 0.931 . S
H2221 C2209 0.929 . S
H2222 C2210 0.960 . S
H2223 C2210 0.962 . S
H2224 C2210 0.960 . S
H2225 C2211 0.961 . S
H2226 C2211 0.961 . S
H2227 C2211 0.961 . S
H2228 C2212 0.931 . S
H2229 C2217 0.930 . S
H2230 C2218 0.956 . S
H2231 C2218 0.961 . S
H2232 C2218 0.961 . S
H2233 C2219 0.958 . S
H2234 C2219 0.961 . S
H2235 C2219 0.960 . S
C2236 C2237 1.391 . S
C2236 C2238 1.394 . S
C2236 H2252 0.931 . S
C2237 C2236 1.391 . S
C2237 C2241 1.376 . S
C2238 C2236 1.394 . S
C2238 C2239 1.369 . S
C2238 C2242 1.531 . S
C2239 C2238 1.369 . S
C2239 C2240 1.410 . S
C2239 C2247 1.503 . S
C2240 C2239 1.410 . S
C2240 C2241 1.392 . S
C2240 C2243 1.511 . S
C2241 C2237 1.376 . S
C2241 C2240 1.392 . S
C2241 H2253 0.929 . S
C2242 C2238 1.531 . S
C2242 H2254 0.960 . S
C2242 H2255 0.962 . S
C2242 H2256 0.960 . S
C2243 C2240 1.511 . S
C2243 H2257 0.961 . S
C2243 H2258 0.961 . S
C2243 H2259 0.961 . S
C2244 C2245 1.370 . S
C2244 C2246 1.363 . S
C2244 H2260 0.931 . S
C2245 C2244 1.370 . S
C2245 C2249 1.408 . S
C2246 C2244 1.363 . S
C2246 C2247 1.370 . S
C2246 C2250 1.524 . S
C2247 C2239 1.503 . S
C2247 C2246 1.370 . S
C2247 C2248 1.403 . S
C2248 C2247 1.403 . S
C2248 C2249 1.404 . S
C2248 C2251 1.539 . S
C2249 C2245 1.408 . S
C2249 C2248 1.404 . S
C2249 H2261 0.930 . S
C2250 C2246 1.524 . S
C2250 H2262 0.956 . S
C2250 H2263 0.961 . S
C2250 H2264 0.961 . S
C2251 C2248 1.539 . S
C2251 H2265 0.958 . S
C2251 H2266 0.961 . S
C2251 H2267 0.960 . S
H2252 C2236 0.931 . S
H2253 C2241 0.929 . S
H2254 C2242 0.960 . S
H2255 C2242 0.962 . S
H2256 C2242 0.960 . S
H2257 C2243 0.961 . S
H2258 C2243 0.961 . S
H2259 C2243 0.961 . S
H2260 C2244 0.931 . S
H2261 C2249 0.930 . S
H2262 C2250 0.956 . S
H2263 C2250 0.961 . S
H2264 C2250 0.961 . S
H2265 C2251 0.958 . S
H2266 C2251 0.961 . S
H2267 C2251 0.960 . S
C2268 C2269 1.391 . S
C2268 C2270 1.394 . S
C2268 H2284 0.931 . S
C2269 C2268 1.391 . S
C2269 C2273 1.376 . S
C2270 C2268 1.394 . S
C2270 C2271 1.369 . S
C2270 C2274 1.531 . S
C2271 C2270 1.369 . S
C2271 C2272 1.410 . S
C2271 C2279 1.503 . S
C2272 C2271 1.410 . S
C2272 C2273 1.392 . S
C2272 C2275 1.511 . S
C2273 C2269 1.376 . S
C2273 C2272 1.392 . S
C2273 H2285 0.929 . S
C2274 C2270 1.531 . S
C2274 H2286 0.960 . S
C2274 H2287 0.962 . S
C2274 H2288 0.960 . S
C2275 C2272 1.511 . S
C2275 H2289 0.961 . S
C2275 H2290 0.961 . S
C2275 H2291 0.961 . S
C2276 C2277 1.370 . S
C2276 C2278 1.363 . S
C2276 H2292 0.931 . S
C2277 C2276 1.370 . S
C2277 C2281 1.408 . S
C2278 C2276 1.363 . S
C2278 C2279 1.370 . S
C2278 C2282 1.524 . S
C2279 C2271 1.503 . S
C2279 C2278 1.370 . S
C2279 C2280 1.403 . S
C2280 C2279 1.403 . S
C2280 C2281 1.404 . S
C2280 C2283 1.539 . S
C2281 C2277 1.408 . S
C2281 C2280 1.404 . S
C2281 H2293 0.930 . S
C2282 C2278 1.524 . S
C2282 H2294 0.956 . S
C2282 H2295 0.961 . S
C2282 H2296 0.961 . S
C2283 C2280 1.539 . S
C2283 H2297 0.958 . S
C2283 H2298 0.961 . S
C2283 H2299 0.960 . S
H2284 C2268 0.931 . S
H2285 C2273 0.929 . S
H2286 C2274 0.960 . S
H2287 C2274 0.962 . S
H2288 C2274 0.960 . S
H2289 C2275 0.961 . S
H2290 C2275 0.961 . S
H2291 C2275 0.961 . S
H2292 C2276 0.931 . S
H2293 C2281 0.930 . S
H2294 C2282 0.956 . S
H2295 C2282 0.961 . S
H2296 C2282 0.961 . S
H2297 C2283 0.958 . S
H2298 C2283 0.961 . S
H2299 C2283 0.960 . S
C2300 C2301 1.391 . S
C2300 C2302 1.394 . S
C2300 H2316 0.931 . S
C2301 C2300 1.391 . S
C2301 C2305 1.376 . S
C2302 C2300 1.394 . S
C2302 C2303 1.369 . S
C2302 C2306 1.531 . S
C2303 C2302 1.369 . S
C2303 C2304 1.410 . S
C2303 C2311 1.503 . S
C2304 C2303 1.410 . S
C2304 C2305 1.392 . S
C2304 C2307 1.511 . S
C2305 C2301 1.376 . S
C2305 C2304 1.392 . S
C2305 H2317 0.929 . S
C2306 C2302 1.531 . S
C2306 H2318 0.960 . S
C2306 H2319 0.962 . S
C2306 H2320 0.960 . S
C2307 C2304 1.511 . S
C2307 H2321 0.961 . S
C2307 H2322 0.961 . S
C2307 H2323 0.961 . S
C2308 C2309 1.370 . S
C2308 C2310 1.363 . S
C2308 H2324 0.931 . S
C2309 C2308 1.370 . S
C2309 C2313 1.408 . S
C2310 C2308 1.363 . S
C2310 C2311 1.370 . S
C2310 C2314 1.524 . S
C2311 C2303 1.503 . S
C2311 C2310 1.370 . S
C2311 C2312 1.403 . S
C2312 C2311 1.403 . S
C2312 C2313 1.404 . S
C2312 C2315 1.539 . S
C2313 C2309 1.408 . S
C2313 C2312 1.404 . S
C2313 H2325 0.930 . S
C2314 C2310 1.524 . S
C2314 H2326 0.956 . S
C2314 H2327 0.961 . S
C2314 H2328 0.961 . S
C2315 C2312 1.539 . S
C2315 H2329 0.958 . S
C2315 H2330 0.961 . S
C2315 H2331 0.960 . S
H2316 C2300 0.931 . S
H2317 C2305 0.929 . S
H2318 C2306 0.960 . S
H2319 C2306 0.962 . S
H2320 C2306 0.960 . S
H2321 C2307 0.961 . S
H2322 C2307 0.961 . S
H2323 C2307 0.961 . S
H2324 C2308 0.931 . S
H2325 C2313 0.930 . S
H2326 C2314 0.956 . S
H2327 C2314 0.961 . S
H2328 C2314 0.961 . S
H2329 C2315 0.958 . S
H2330 C2315 0.961 . S
H2331 C2315 0.960 . S
C2332 C2333 1.391 . S
C2332 C2334 1.394 . S
C2332 H2348 0.931 . S
C2333 C2332 1.391 . S
C2333 C2337 1.376 . S
C2334 C2332 1.394 . S
C2334 C2335 1.369 . S
C2334 C2338 1.531 . S
C2335 C2334 1.369 . S
C2335 C2336 1.410 . S
C2335 C2343 1.503 . S
C2336 C2335 1.410 . S
C2336 C2337 1.392 . S
C2336 C2339 1.511 . S
C2337 C2333 1.376 . S
C2337 C2336 1.392 . S
C2337 H2349 0.929 . S
C2338 C2334 1.531 . S
C2338 H2350 0.960 . S
C2338 H2351 0.962 . S
C2338 H2352 0.960 . S
C2339 C2336 1.511 . S
C2339 H2353 0.961 . S
C2339 H2354 0.961 . S
C2339 H2355 0.961 . S
C2340 C2341 1.370 . S
C2340 C2342 1.363 . S
C2340 H2356 0.931 . S
C2341 C2340 1.370 . S
C2341 C2345 1.408 . S
C2342 C2340 1.363 . S
C2342 C2343 1.370 . S
C2342 C2346 1.524 . S
C2343 C2335 1.503 . S
C2343 C2342 1.370 . S
C2343 C2344 1.403 . S
C2344 C2343 1.403 . S
C2344 C2345 1.404 . S
C2344 C2347 1.539 . S
C2345 C2341 1.408 . S
C2345 C2344 1.404 . S
C2345 H2357 0.930 . S
C2346 C2342 1.524 . S
C2346 H2358 0.956 . S
C2346 H2359 0.961 . S
C2346 H2360 0.961 . S
C2347 C2344 1.539 . S
C2347 H2361 0.958 . S
C2347 H2362 0.961 . S
C2347 H2363 0.960 . S
H2348 C2332 0.931 . S
H2349 C2337 0.929 . S
H2350 C2338 0.960 . S
H2351 C2338 0.962 . S
H2352 C2338 0.960 . S
H2353 C2339 0.961 . S
H2354 C2339 0.961 . S
H2355 C2339 0.961 . S
H2356 C2340 0.931 . S
H2357 C2345 0.930 . S
H2358 C2346 0.956 . S
H2359 C2346 0.961 . S
H2360 C2346 0.961 . S
H2361 C2347 0.958 . S
H2362 C2347 0.961 . S
H2363 C2347 0.960 . S
C2364 C2365 1.391 . S
C2364 C2366 1.394 . S
C2364 H2380 0.931 . S
C2365 C2364 1.391 . S
C2365 C2369 1.376 . S
C2366 C2364 1.394 . S
C2366 C2367 1.369 . S
C2366 C2370 1.531 . S
C2367 C2366 1.369 . S
C2367 C2368 1.410 . S
C2367 C2375 1.503 . S
C2368 C2367 1.410 . S
C2368 C2369 1.392 . S
C2368 C2371 1.511 . S
C2369 C2365 1.376 . S
C2369 C2368 1.392 . S
C2369 H2381 0.929 . S
C2370 C2366 1.531 . S
C2370 H2382 0.960 . S
C2370 H2383 0.962 . S
C2370 H2384 0.960 . S
C2371 C2368 1.511 . S
C2371 H2385 0.961 . S
C2371 H2386 0.961 . S
C2371 H2387 0.961 . S
C2372 C2373 1.370 . S
C2372 C2374 1.363 . S
C2372 H2388 0.931 . S
C2373 C2372 1.370 . S
C2373 C2377 1.408 . S
C2374 C2372 1.363 . S
C2374 C2375 1.370 . S
C2374 C2378 1.524 . S
C2375 C2367 1.503 . S
C2375 C2374 1.370 . S
C2375 C2376 1.403 . S
C2376 C2375 1.403 . S
C2376 C2377 1.404 . S
C2376 C2379 1.539 . S
C2377 C2373 1.408 . S
C2377 C2376 1.404 . S
C2377 H2389 0.930 . S
C2378 C2374 1.524 . S
C2378 H2390 0.956 . S
C2378 H2391 0.961 . S
C2378 H2392 0.961 . S
C2379 C2376 1.539 . S
C2379 H2393 0.958 . S
C2379 H2394 0.961 . S
C2379 H2395 0.960 . S
H2380 C2364 0.931 . S
H2381 C2369 0.929 . S
H2382 C2370 0.960 . S
H2383 C2370 0.962 . S
H2384 C2370 0.960 . S
H2385 C2371 0.961 . S
H2386 C2371 0.961 . S
H2387 C2371 0.961 . S
H2388 C2372 0.931 . S
H2389 C2377 0.930 . S
H2390 C2378 0.956 . S
H2391 C2378 0.961 . S
H2392 C2378 0.961 . S
H2393 C2379 0.958 . S
H2394 C2379 0.961 . S
H2395 C2379 0.960 . S
C2396 C2397 1.391 . S
C2396 C2398 1.394 . S
C2396 H2412 0.931 . S
C2397 C2396 1.391 . S
C2397 C2401 1.376 . S
C2398 C2396 1.394 . S
C2398 C2399 1.369 . S
C2398 C2402 1.531 . S
C2399 C2398 1.369 . S
C2399 C2400 1.410 . S
C2399 C2407 1.503 . S
C2400 C2399 1.410 . S
C2400 C2401 1.392 . S
C2400 C2403 1.511 . S
C2401 C2397 1.376 . S
C2401 C2400 1.392 . S
C2401 H2413 0.929 . S
C2402 C2398 1.531 . S
C2402 H2414 0.960 . S
C2402 H2415 0.962 . S
C2402 H2416 0.960 . S
C2403 C2400 1.511 . S
C2403 H2417 0.961 . S
C2403 H2418 0.961 . S
C2403 H2419 0.961 . S
C2404 C2405 1.370 . S
C2404 C2406 1.363 . S
C2404 H2420 0.931 . S
C2405 C2404 1.370 . S
C2405 C2409 1.408 . S
C2406 C2404 1.363 . S
C2406 C2407 1.370 . S
C2406 C2410 1.524 . S
C2407 C2399 1.503 . S
C2407 C2406 1.370 . S
C2407 C2408 1.403 . S
C2408 C2407 1.403 . S
C2408 C2409 1.404 . S
C2408 C2411 1.539 . S
C2409 C2405 1.408 . S
C2409 C2408 1.404 . S
C2409 H2421 0.930 . S
C2410 C2406 1.524 . S
C2410 H2422 0.956 . S
C2410 H2423 0.961 . S
C2410 H2424 0.961 . S
C2411 C2408 1.539 . S
C2411 H2425 0.958 . S
C2411 H2426 0.961 . S
C2411 H2427 0.960 . S
H2412 C2396 0.931 . S
H2413 C2401 0.929 . S
H2414 C2402 0.960 . S
H2415 C2402 0.962 . S
H2416 C2402 0.960 . S
H2417 C2403 0.961 . S
H2418 C2403 0.961 . S
H2419 C2403 0.961 . S
H2420 C2404 0.931 . S
H2421 C2409 0.930 . S
H2422 C2410 0.956 . S
H2423 C2410 0.961 . S
H2424 C2410 0.961 . S
H2425 C2411 0.958 . S
H2426 C2411 0.961 . S
H2427 C2411 0.960 . S
C2428 C2429 1.391 . S
C2428 C2430 1.394 . S
C2428 H2444 0.931 . S
C2429 C2428 1.391 . S
C2429 C2433 1.376 . S
C2430 C2428 1.394 . S
C2430 C2431 1.369 . S
C2430 C2434 1.531 . S
C2431 C2430 1.369 . S
C2431 C2432 1.410 . S
C2431 C2439 1.503 . S
C2432 C2431 1.410 . S
C2432 C2433 1.392 . S
C2432 C2435 1.511 . S
C2433 C2429 1.376 . S
C2433 C2432 1.392 . S
C2433 H2445 0.977 . S
C2434 C2430 1.531 . S
C2434 H2446 0.960 . S
C2434 H2447 0.962 . S
C2434 H2448 0.960 . S
C2435 C2432 1.511 . S
C2435 H2449 0.961 . S
C2435 H2450 0.961 . S
C2435 H2451 0.961 . S
C2436 C2437 1.370 . S
C2436 C2438 1.363 . S
C2436 H2452 0.931 . S
C2437 C2436 1.370 . S
C2437 C2441 1.408 . S
C2438 C2436 1.363 . S
C2438 C2439 1.370 . S
C2438 C2442 1.524 . S
C2439 C2431 1.503 . S
C2439 C2438 1.370 . S
C2439 C2440 1.403 . S
C2440 C2439 1.403 . S
C2440 C2441 1.404 . S
C2440 C2443 1.539 . S
C2441 C2437 1.408 . S
C2441 C2440 1.404 . S
C2441 H2453 0.930 . S
C2442 C2438 1.524 . S
C2442 H2454 0.956 . S
C2442 H2455 0.961 . S
C2442 H2456 0.961 . S
C2443 C2440 1.539 . S
C2443 H2457 0.958 . S
C2443 H2458 0.961 . S
C2443 H2459 0.960 . S
H2444 C2428 0.931 . S
H2445 C2433 0.977 . S
H2446 C2434 0.960 . S
H2447 C2434 0.962 . S
H2448 C2434 0.960 . S
H2449 C2435 0.961 . S
H2450 C2435 0.961 . S
H2451 C2435 0.961 . S
H2452 C2436 0.931 . S
H2453 C2441 0.930 . S
H2454 C2442 0.956 . S
H2455 C2442 0.961 . S
H2456 C2442 0.961 . S
H2457 C2443 0.958 . S
H2458 C2443 0.961 . S
H2459 C2443 0.960 . S
C2460 C2461 1.391 . S
C2460 C2462 1.394 . S
C2460 H2476 0.896 1_556 S
C2461 C2460 1.391 . S
C2461 C2465 1.376 . S
C2462 C2460 1.394 . S
C2462 C2463 1.369 . S
C2462 C2466 1.531 . S
C2463 C2462 1.369 . S
C2463 C2464 1.410 . S
C2463 C2471 1.503 . S
C2464 C2463 1.410 . S
C2464 C2465 1.392 . S
C2464 C2467 1.511 . S
C2465 C2461 1.376 . S
C2465 C2464 1.392 . S
C2465 H2477 0.929 . S
C2466 C2462 1.531 . S
C2466 H2478 0.960 . S
C2466 H2479 0.962 . S
C2466 H2480 0.960 1_556 S
C2467 C2464 1.511 . S
C2467 H2481 0.961 . S
C2467 H2482 0.961 . S
C2467 H2483 0.961 . S
C2468 C2469 1.370 . S
C2468 C2470 1.363 . S
C2468 H2484 0.931 . S
C2469 C2468 1.370 . S
C2469 C2473 1.408 . S
C2470 C2468 1.363 . S
C2470 C2471 1.370 . S
C2470 C2474 1.524 . S
C2471 C2463 1.503 . S
C2471 C2470 1.370 . S
C2471 C2472 1.403 . S
C2472 C2471 1.403 . S
C2472 C2473 1.404 . S
C2472 C2475 1.539 . S
C2473 C2469 1.408 . S
C2473 C2472 1.404 . S
C2473 H2485 0.930 . S
C2474 C2470 1.524 . S
C2474 H2486 0.956 . S
C2474 H2487 0.961 . S
C2474 H2488 0.961 . S
C2475 C2472 1.539 . S
C2475 H2489 0.958 . S
C2475 H2490 0.961 . S
C2475 H2491 0.960 . S
H2476 C2460 0.896 1_554 S
H2477 C2465 0.929 . S
H2478 C2466 0.960 . S
H2479 C2466 0.962 . S
H2480 C2466 0.960 1_554 S
H2481 C2467 0.961 . S
H2482 C2467 0.961 . S
H2483 C2467 0.961 . S
H2484 C2468 0.931 . S
H2485 C2473 0.930 . S
H2486 C2474 0.956 . S
H2487 C2474 0.961 . S
H2488 C2474 0.961 . S
H2489 C2475 0.958 . S
H2490 C2475 0.961 . S
H2491 C2475 0.960 . S
C2492 C2493 1.391 . S
C2492 C2494 1.394 . S
C2492 H2508 0.931 . S
C2493 C2492 1.391 . S
C2493 C2497 1.376 . S
C2494 C2492 1.394 . S
C2494 C2495 1.369 . S
C2494 C2498 1.531 . S
C2495 C2494 1.369 . S
C2495 C2496 1.410 . S
C2495 C2503 1.503 . S
C2496 C2495 1.410 . S
C2496 C2497 1.392 . S
C2496 C2499 1.511 . S
C2497 C2493 1.376 . S
C2497 C2496 1.392 . S
C2497 H2509 0.929 . S
C2498 C2494 1.531 . S
C2498 H2510 0.960 . S
C2498 H2511 0.962 . S
C2498 H2512 0.960 . S
C2499 C2496 1.511 . S
C2499 H2513 0.961 . S
C2499 H2514 0.961 . S
C2499 H2515 0.961 . S
C2500 C2501 1.370 . S
C2500 C2502 1.363 . S
C2500 H2516 0.931 . S
C2501 C2500 1.370 . S
C2501 C2505 1.408 . S
C2502 C2500 1.363 . S
C2502 C2503 1.370 . S
C2502 C2506 1.524 . S
C2503 C2495 1.503 . S
C2503 C2502 1.370 . S
C2503 C2504 1.403 . S
C2504 C2503 1.403 . S
C2504 C2505 1.404 . S
C2504 C2507 1.539 . S
C2505 C2501 1.408 . S
C2505 C2504 1.404 . S
C2505 H2517 0.930 . S
C2506 C2502 1.524 . S
C2506 H2518 0.956 . S
C2506 H2519 0.961 . S
C2506 H2520 0.961 . S
C2507 C2504 1.539 . S
C2507 H2521 0.958 . S
C2507 H2522 0.961 . S
C2507 H2523 0.960 . S
H2508 C2492 0.931 . S
H2509 C2497 0.929 . S
H2510 C2498 0.960 . S
H2511 C2498 0.962 . S
H2512 C2498 0.960 . S
H2513 C2499 0.961 . S
H2514 C2499 0.961 . S
H2515 C2499 0.961 . S
H2516 C2500 0.931 . S
H2517 C2505 0.930 . S
H2518 C2506 0.956 . S
H2519 C2506 0.961 . S
H2520 C2506 0.961 . S
H2521 C2507 0.958 . S
H2522 C2507 0.961 . S
H2523 C2507 0.960 . S
C2524 C2525 1.391 . S
C2524 C2526 1.394 . S
C2524 H2540 0.931 . S
C2525 C2524 1.391 . S
C2525 C2529 1.376 . S
C2526 C2524 1.394 . S
C2526 C2527 1.369 . S
C2526 C2530 1.531 . S
C2527 C2526 1.369 . S
C2527 C2528 1.410 . S
C2527 C2535 1.503 . S
C2528 C2527 1.410 . S
C2528 C2529 1.392 . S
C2528 C2531 1.511 . S
C2529 C2525 1.376 . S
C2529 C2528 1.392 . S
C2529 H2541 0.929 . S
C2530 C2526 1.531 . S
C2530 H2542 0.960 . S
C2530 H2543 0.962 . S
C2530 H2544 0.960 . S
C2531 C2528 1.511 . S
C2531 H2545 0.961 . S
C2531 H2546 0.961 . S
C2531 H2547 0.961 . S
C2532 C2533 1.370 . S
C2532 C2534 1.363 . S
C2532 H2548 0.931 . S
C2533 C2532 1.370 . S
C2533 C2537 1.408 . S
C2534 C2532 1.363 . S
C2534 C2535 1.370 . S
C2534 C2538 1.524 . S
C2535 C2527 1.503 . S
C2535 C2534 1.370 . S
C2535 C2536 1.403 . S
C2536 C2535 1.403 . S
C2536 C2537 1.404 . S
C2536 C2539 1.539 . S
C2537 C2533 1.408 . S
C2537 C2536 1.404 . S
C2537 H2549 0.930 . S
C2538 C2534 1.524 . S
C2538 H2550 0.956 . S
C2538 H2551 0.961 . S
C2538 H2552 0.961 . S
C2539 C2536 1.539 . S
C2539 H2553 0.958 . S
C2539 H2554 0.961 . S
C2539 H2555 0.960 . S
H2540 C2524 0.931 . S
H2541 C2529 0.929 . S
H2542 C2530 0.960 . S
H2543 C2530 0.962 . S
H2544 C2530 0.960 . S
H2545 C2531 0.961 . S
H2546 C2531 0.961 . S
H2547 C2531 0.961 . S
H2548 C2532 0.931 . S
H2549 C2537 0.930 . S
H2550 C2538 0.956 . S
H2551 C2538 0.961 . S
H2552 C2538 0.961 . S
H2553 C2539 0.958 . S
H2554 C2539 0.961 . S
H2555 C2539 0.960 . S
C2556 C2557 1.391 . S
C2556 C2558 1.394 . S
C2556 H2572 0.931 . S
C2557 C2556 1.391 . S
C2557 C2561 1.376 . S
C2558 C2556 1.394 . S
C2558 C2559 1.369 . S
C2558 C2562 1.531 . S
C2559 C2558 1.369 . S
C2559 C2560 1.410 . S
C2559 C2567 1.503 . S
C2560 C2559 1.410 . S
C2560 C2561 1.392 . S
C2560 C2563 1.511 . S
C2561 C2557 1.376 . S
C2561 C2560 1.392 . S
C2561 H2573 0.929 . S
C2562 C2558 1.531 . S
C2562 H2574 0.960 . S
C2562 H2575 0.962 . S
C2562 H2576 0.960 . S
C2563 C2560 1.511 . S
C2563 H2577 0.961 . S
C2563 H2578 0.961 . S
C2563 H2579 0.961 . S
C2564 C2565 1.370 . S
C2564 C2566 1.363 . S
C2564 H2580 0.931 . S
C2565 C2564 1.370 . S
C2565 C2569 1.408 . S
C2566 C2564 1.363 . S
C2566 C2567 1.370 . S
C2566 C2570 1.524 . S
C2567 C2559 1.503 . S
C2567 C2566 1.370 . S
C2567 C2568 1.403 . S
C2568 C2567 1.403 . S
C2568 C2569 1.404 . S
C2568 C2571 1.539 . S
C2569 C2565 1.408 . S
C2569 C2568 1.404 . S
C2569 H2581 0.930 . S
C2570 C2566 1.524 . S
C2570 H2582 0.956 . S
C2570 H2583 0.961 . S
C2570 H2584 0.961 . S
C2571 C2568 1.539 . S
C2571 H2585 0.958 . S
C2571 H2586 0.961 . S
C2571 H2587 0.960 . S
H2572 C2556 0.931 . S
H2573 C2561 0.929 . S
H2574 C2562 0.960 . S
H2575 C2562 0.962 . S
H2576 C2562 0.960 . S
H2577 C2563 0.961 . S
H2578 C2563 0.961 . S
H2579 C2563 0.961 . S
H2580 C2564 0.931 . S
H2581 C2569 0.930 . S
H2582 C2570 0.956 . S
H2583 C2570 0.961 . S
H2584 C2570 0.961 . S
H2585 C2571 0.958 . S
H2586 C2571 0.961 . S
H2587 C2571 0.960 . S
C2588 C2589 1.391 . S
C2588 C2590 1.394 . S
C2588 H2604 0.931 . S
C2589 C2588 1.391 . S
C2589 C2593 1.376 . S
C2590 C2588 1.394 . S
C2590 C2591 1.369 . S
C2590 C2594 1.531 . S
C2591 C2590 1.369 . S
C2591 C2592 1.410 . S
C2591 C2599 1.503 . S
C2592 C2591 1.410 . S
C2592 C2593 1.392 . S
C2592 C2595 1.511 . S
C2593 C2589 1.376 . S
C2593 C2592 1.392 . S
C2593 H2605 0.929 . S
C2594 C2590 1.531 . S
C2594 H2606 0.960 . S
C2594 H2607 0.962 . S
C2594 H2608 0.960 . S
C2595 C2592 1.511 . S
C2595 H2609 0.961 . S
C2595 H2610 0.961 . S
C2595 H2611 0.961 . S
C2596 C2597 1.370 . S
C2596 C2598 1.363 . S
C2596 H2612 0.931 . S
C2597 C2596 1.370 . S
C2597 C2601 1.408 . S
C2598 C2596 1.363 . S
C2598 C2599 1.370 . S
C2598 C2602 1.524 . S
C2599 C2591 1.503 . S
C2599 C2598 1.370 . S
C2599 C2600 1.403 . S
C2600 C2599 1.403 . S
C2600 C2601 1.404 . S
C2600 C2603 1.539 . S
C2601 C2597 1.408 . S
C2601 C2600 1.404 . S
C2601 H2613 0.930 . S
C2602 C2598 1.524 . S
C2602 H2614 0.956 . S
C2602 H2615 0.961 . S
C2602 H2616 0.961 . S
C2603 C2600 1.539 . S
C2603 H2617 0.958 . S
C2603 H2618 0.961 . S
C2603 H2619 0.960 . S
H2604 C2588 0.931 . S
H2605 C2593 0.929 . S
H2606 C2594 0.960 . S
H2607 C2594 0.962 . S
H2608 C2594 0.960 . S
H2609 C2595 0.961 . S
H2610 C2595 0.961 . S
H2611 C2595 0.961 . S
H2612 C2596 0.931 . S
H2613 C2601 0.930 . S
H2614 C2602 0.956 . S
H2615 C2602 0.961 . S
H2616 C2602 0.961 . S
H2617 C2603 0.958 . S
H2618 C2603 0.961 . S
H2619 C2603 0.960 . S
C2620 C2621 1.391 . S
C2620 C2622 1.394 . S
C2620 H2636 0.931 . S
C2621 C2620 1.391 . S
C2621 C2625 1.376 . S
C2622 C2620 1.394 . S
C2622 C2623 1.369 . S
C2622 C2626 1.531 . S
C2623 C2622 1.369 . S
C2623 C2624 1.410 . S
C2623 C2631 1.503 . S
C2624 C2623 1.410 . S
C2624 C2625 1.392 . S
C2624 C2627 1.511 . S
C2625 C2621 1.376 . S
C2625 C2624 1.392 . S
C2625 H2637 0.929 . S
C2626 C2622 1.531 . S
C2626 H2638 0.960 . S
C2626 H2639 0.962 . S
C2626 H2640 0.960 . S
C2627 C2624 1.511 . S
C2627 H2641 0.961 . S
C2627 H2642 0.961 . S
C2627 H2643 0.961 . S
C2628 C2629 1.370 . S
C2628 C2630 1.363 . S
C2628 H2644 0.931 . S
C2629 C2628 1.370 . S
C2629 C2633 1.408 . S
C2630 C2628 1.363 . S
C2630 C2631 1.370 . S
C2630 C2634 1.524 . S
C2631 C2623 1.503 . S
C2631 C2630 1.370 . S
C2631 C2632 1.403 . S
C2632 C2631 1.403 . S
C2632 C2633 1.404 . S
C2632 C2635 1.539 . S
C2633 C2629 1.408 . S
C2633 C2632 1.404 . S
C2633 H2645 0.930 . S
C2634 C2630 1.524 . S
C2634 H2646 0.956 . S
C2634 H2647 0.961 . S
C2634 H2648 0.961 . S
C2635 C2632 1.539 . S
C2635 H2649 0.958 . S
C2635 H2650 0.961 . S
C2635 H2651 0.960 . S
H2636 C2620 0.931 . S
H2637 C2625 0.929 . S
H2638 C2626 0.960 . S
H2639 C2626 0.962 . S
H2640 C2626 0.960 . S
H2641 C2627 0.961 . S
H2642 C2627 0.961 . S
H2643 C2627 0.961 . S
H2644 C2628 0.931 . S
H2645 C2633 0.930 . S
H2646 C2634 0.956 . S
H2647 C2634 0.961 . S
H2648 C2634 0.961 . S
H2649 C2635 0.958 . S
H2650 C2635 0.961 . S
H2651 C2635 0.960 . S
C2652 C2653 1.391 . S
C2652 C2654 1.394 . S
C2652 H2668 0.931 . S
C2653 C2652 1.391 . S
C2653 C2657 1.376 . S
C2654 C2652 1.394 . S
C2654 C2655 1.369 . S
C2654 C2658 1.531 . S
C2655 C2654 1.369 . S
C2655 C2656 1.410 . S
C2655 C2663 1.503 . S
C2656 C2655 1.410 . S
C2656 C2657 1.392 . S
C2656 C2659 1.511 . S
C2657 C2653 1.376 . S
C2657 C2656 1.392 . S
C2657 H2669 0.929 . S
C2658 C2654 1.531 . S
C2658 H2670 0.960 . S
C2658 H2671 0.962 . S
C2658 H2672 0.960 . S
C2659 C2656 1.511 . S
C2659 H2673 0.961 . S
C2659 H2674 0.961 . S
C2659 H2675 0.961 . S
C2660 C2661 1.370 . S
C2660 C2662 1.363 . S
C2660 H2676 0.931 . S
C2661 C2660 1.370 . S
C2661 C2665 1.408 . S
C2662 C2660 1.363 . S
C2662 C2663 1.370 . S
C2662 C2666 1.524 . S
C2663 C2655 1.503 . S
C2663 C2662 1.370 . S
C2663 C2664 1.403 . S
C2664 C2663 1.403 . S
C2664 C2665 1.404 . S
C2664 C2667 1.539 . S
C2665 C2661 1.408 . S
C2665 C2664 1.404 . S
C2665 H2677 0.930 . S
C2666 C2662 1.524 . S
C2666 H2678 0.956 . S
C2666 H2679 0.961 . S
C2666 H2680 0.961 . S
C2667 C2664 1.539 . S
C2667 H2681 0.958 . S
C2667 H2682 0.961 . S
C2667 H2683 0.960 . S
H2668 C2652 0.931 . S
H2669 C2657 0.929 . S
H2670 C2658 0.960 . S
H2671 C2658 0.962 . S
H2672 C2658 0.960 . S
H2673 C2659 0.961 . S
H2674 C2659 0.961 . S
H2675 C2659 0.961 . S
H2676 C2660 0.931 . S
H2677 C2665 0.930 . S
H2678 C2666 0.956 . S
H2679 C2666 0.961 . S
H2680 C2666 0.961 . S
H2681 C2667 0.958 . S
H2682 C2667 0.961 . S
H2683 C2667 0.960 . S
C2684 C2685 1.391 . S
C2684 C2686 1.394 . S
C2684 H2700 0.931 . S
C2685 C2684 1.391 . S
C2685 C2689 1.376 . S
C2686 C2684 1.394 . S
C2686 C2687 1.369 . S
C2686 C2690 1.531 . S
C2687 C2686 1.369 . S
C2687 C2688 1.410 . S
C2687 C2695 1.503 . S
C2688 C2687 1.410 . S
C2688 C2689 1.392 . S
C2688 C2691 1.511 . S
C2689 C2685 1.376 . S
C2689 C2688 1.392 . S
C2689 H2701 0.929 . S
C2690 C2686 1.531 . S
C2690 H2702 0.960 . S
C2690 H2703 0.962 . S
C2690 H2704 0.960 . S
C2691 C2688 1.511 . S
C2691 H2705 0.961 . S
C2691 H2706 0.961 . S
C2691 H2707 0.961 . S
C2692 C2693 1.370 . S
C2692 C2694 1.363 . S
C2692 H2708 0.931 . S
C2693 C2692 1.370 . S
C2693 C2697 1.408 . S
C2694 C2692 1.363 . S
C2694 C2695 1.370 . S
C2694 C2698 1.524 . S
C2695 C2687 1.503 . S
C2695 C2694 1.370 . S
C2695 C2696 1.403 . S
C2696 C2695 1.403 . S
C2696 C2697 1.404 . S
C2696 C2699 1.539 . S
C2697 C2693 1.408 . S
C2697 C2696 1.404 . S
C2697 H2709 0.930 . S
C2698 C2694 1.524 . S
C2698 H2710 0.956 . S
C2698 H2711 0.961 . S
C2698 H2712 0.961 . S
C2699 C2696 1.539 . S
C2699 H2713 0.958 . S
C2699 H2714 0.961 . S
C2699 H2715 0.960 . S
H2700 C2684 0.931 . S
H2701 C2689 0.929 . S
H2702 C2690 0.960 . S
H2703 C2690 0.962 . S
H2704 C2690 0.960 . S
H2705 C2691 0.961 . S
H2706 C2691 0.961 . S
H2707 C2691 0.961 . S
H2708 C2692 0.931 . S
H2709 C2697 0.930 . S
H2710 C2698 0.956 . S
H2711 C2698 0.961 . S
H2712 C2698 0.961 . S
H2713 C2699 0.958 . S
H2714 C2699 0.961 . S
H2715 C2699 0.960 . S
C2716 C2717 1.391 . S
C2716 C2718 1.394 . S
C2716 H2732 0.931 . S
C2717 C2716 1.391 . S
C2717 C2721 1.376 . S
C2718 C2716 1.394 . S
C2718 C2719 1.369 . S
C2718 C2722 1.531 . S
C2719 C2718 1.369 . S
C2719 C2720 1.410 . S
C2719 C2727 1.503 . S
C2720 C2719 1.410 . S
C2720 C2721 1.392 . S
C2720 C2723 1.511 . S
C2721 C2717 1.376 . S
C2721 C2720 1.392 . S
C2721 H2733 0.929 . S
C2722 C2718 1.531 . S
C2722 H2734 0.960 . S
C2722 H2735 0.962 . S
C2722 H2736 0.960 . S
C2723 C2720 1.511 . S
C2723 H2737 0.961 . S
C2723 H2738 0.961 . S
C2723 H2739 0.961 . S
C2724 C2725 1.370 . S
C2724 C2726 1.363 . S
C2724 H2740 0.931 . S
C2725 C2724 1.370 . S
C2725 C2729 1.408 . S
C2726 C2724 1.363 . S
C2726 C2727 1.370 . S
C2726 C2730 1.524 . S
C2727 C2719 1.503 . S
C2727 C2726 1.370 . S
C2727 C2728 1.403 . S
C2728 C2727 1.403 . S
C2728 C2729 1.404 . S
C2728 C2731 1.539 . S
C2729 C2725 1.408 . S
C2729 C2728 1.404 . S
C2729 H2741 0.930 . S
C2730 C2726 1.524 . S
C2730 H2742 0.956 . S
C2730 H2743 0.961 . S
C2730 H2744 0.961 . S
C2731 C2728 1.539 . S
C2731 H2745 0.958 . S
C2731 H2746 0.961 . S
C2731 H2747 0.960 . S
H2732 C2716 0.931 . S
H2733 C2721 0.929 . S
H2734 C2722 0.960 . S
H2735 C2722 0.962 . S
H2736 C2722 0.960 . S
H2737 C2723 0.961 . S
H2738 C2723 0.961 . S
H2739 C2723 0.961 . S
H2740 C2724 0.931 . S
H2741 C2729 0.930 . S
H2742 C2730 0.956 . S
H2743 C2730 0.961 . S
H2744 C2730 0.961 . S
H2745 C2731 0.958 . S
H2746 C2731 0.961 . S
H2747 C2731 0.960 . S
C2748 C2749 1.391 1_655 S
C2748 C2750 1.394 . S
C2748 H2764 0.931 . S
C2749 C2748 1.391 1_455 S
C2749 C2753 1.376 . S
C2750 C2748 1.394 . S
C2750 C2751 1.369 1_655 S
C2750 C2754 1.531 . S
C2751 C2750 1.369 1_455 S
C2751 C2752 1.410 . S
C2751 C2759 1.503 . S
C2752 C2751 1.410 . S
C2752 C2753 1.392 . S
C2752 C2755 1.511 . S
C2753 C2749 1.376 . S
C2753 C2752 1.392 . S
C2753 H2765 0.929 . S
C2754 C2750 1.531 . S
C2754 H2766 0.960 . S
C2754 H2767 0.962 . S
C2754 H2768 0.960 . S
C2755 C2752 1.511 . S
C2755 H2769 0.961 . S
C2755 H2770 0.961 . S
C2755 H2771 0.961 . S
C2756 C2757 1.370 . S
C2756 C2758 1.363 . S
C2756 H2772 0.931 . S
C2757 C2756 1.370 . S
C2757 C2761 1.408 1_455 S
C2758 C2756 1.363 . S
C2758 C2759 1.370 . S
C2758 C2762 1.524 . S
C2759 C2751 1.503 . S
C2759 C2758 1.370 . S
C2759 C2760 1.403 1_455 S
C2760 C2759 1.403 1_655 S
C2760 C2761 1.404 . S
C2760 C2763 1.539 . S
C2761 C2757 1.408 1_655 S
C2761 C2760 1.404 . S
C2761 H2773 0.930 . S
C2762 C2758 1.524 . S
C2762 H2774 0.956 . S
C2762 H2775 0.961 . S
C2762 H2776 0.961 . S
C2763 C2760 1.539 . S
C2763 H2777 0.958 . S
C2763 H2778 0.961 . S
C2763 H2779 0.960 . S
H2764 C2748 0.931 . S
H2765 C2753 0.929 . S
H2766 C2754 0.960 . S
H2767 C2754 0.962 . S
H2768 C2754 0.960 . S
H2769 C2755 0.961 . S
H2770 C2755 0.961 . S
H2771 C2755 0.961 . S
H2772 C2756 0.931 . S
H2773 C2761 0.930 . S
H2774 C2762 0.956 . S
H2775 C2762 0.961 . S
H2776 C2762 0.961 . S
H2777 C2763 0.958 . S
H2778 C2763 0.961 . S
H2779 C2763 0.960 . S
C2780 C2781 1.391 . S
C2780 C2782 1.394 . S
C2780 H2796 0.931 . S
C2781 C2780 1.391 . S
C2781 C2785 1.376 . S
C2782 C2780 1.394 . S
C2782 C2783 1.369 . S
C2782 C2786 1.531 . S
C2783 C2782 1.369 . S
C2783 C2784 1.410 . S
C2783 C2791 1.503 . S
C2784 C2783 1.410 . S
C2784 C2785 1.392 . S
C2784 C2787 1.511 . S
C2785 C2781 1.376 . S
C2785 C2784 1.392 . S
C2785 H2797 0.929 . S
C2786 C2782 1.531 . S
C2786 H2798 0.960 . S
C2786 H2799 0.962 . S
C2786 H2800 0.960 . S
C2787 C2784 1.511 . S
C2787 H2801 0.961 . S
C2787 H2802 0.961 . S
C2787 H2803 0.961 . S
C2788 C2789 1.370 . S
C2788 C2790 1.363 . S
C2788 H2804 0.931 . S
C2789 C2788 1.370 . S
C2789 C2793 1.408 . S
C2790 C2788 1.363 . S
C2790 C2791 1.370 . S
C2790 C2794 1.524 . S
C2791 C2783 1.503 . S
C2791 C2790 1.370 . S
C2791 C2792 1.403 . S
C2792 C2791 1.403 . S
C2792 C2793 1.404 . S
C2792 C2795 1.539 . S
C2793 C2789 1.408 . S
C2793 C2792 1.404 . S
C2793 H2805 0.930 . S
C2794 C2790 1.524 . S
C2794 H2806 0.956 . S
C2794 H2807 0.961 . S
C2794 H2808 0.961 . S
C2795 C2792 1.539 . S
C2795 H2809 0.958 . S
C2795 H2810 0.961 . S
C2795 H2811 0.960 . S
H2796 C2780 0.931 . S
H2797 C2785 0.929 . S
H2798 C2786 0.960 . S
H2799 C2786 0.962 . S
H2800 C2786 0.960 . S
H2801 C2787 0.961 . S
H2802 C2787 0.961 . S
H2803 C2787 0.961 . S
H2804 C2788 0.931 . S
H2805 C2793 0.930 . S
H2806 C2794 0.956 . S
H2807 C2794 0.961 . S
H2808 C2794 0.961 . S
H2809 C2795 0.958 . S
H2810 C2795 0.961 . S
H2811 C2795 0.960 . S
C2812 C2813 1.391 . S
C2812 C2814 1.394 . S
C2812 H2828 0.931 . S
C2813 C2812 1.391 . S
C2813 C2817 1.343 1_565 S
C2814 C2812 1.394 . S
C2814 C2815 1.369 . S
C2814 C2818 1.531 . S
C2815 C2814 1.369 . S
C2815 C2816 1.410 1_565 S
C2815 C2823 1.503 . S
C2816 C2815 1.410 1_545 S
C2816 C2817 1.364 . S
C2816 C2819 1.511 . S
C2817 C2813 1.343 1_545 S
C2817 C2816 1.364 . S
C2817 H2829 0.994 . S
C2818 C2814 1.531 . S
C2818 H2830 0.960 . S
C2818 H2831 0.962 . S
C2818 H2832 0.960 . S
C2819 C2816 1.511 . S
C2819 H2833 0.961 . S
C2819 H2834 0.961 . S
C2819 H2835 0.961 . S
C2820 C2821 1.370 1_545 S
C2820 C2822 1.363 . S
C2820 H2836 0.931 . S
C2821 C2820 1.370 1_565 S
C2821 C2825 1.408 . S
C2822 C2820 1.363 . S
C2822 C2823 1.370 1_545 S
C2822 C2826 1.524 . S
C2823 C2815 1.503 . S
C2823 C2822 1.370 1_565 S
C2823 C2824 1.403 . S
C2824 C2823 1.403 . S
C2824 C2825 1.404 . S
C2824 C2827 1.539 . S
C2825 C2821 1.408 . S
C2825 C2824 1.404 . S
C2825 H2837 0.930 . S
C2826 C2822 1.524 . S
C2826 H2838 0.956 . S
C2826 H2839 0.961 . S
C2826 H2840 0.961 . S
C2827 C2824 1.539 . S
C2827 H2841 0.958 . S
C2827 H2842 0.961 . S
C2827 H2843 0.960 . S
H2828 C2812 0.931 . S
H2829 C2817 0.994 . S
H2830 C2818 0.960 . S
H2831 C2818 0.962 . S
H2832 C2818 0.960 . S
H2833 C2819 0.961 . S
H2834 C2819 0.961 . S
H2835 C2819 0.961 . S
H2836 C2820 0.931 . S
H2837 C2825 0.930 . S
H2838 C2826 0.956 . S
H2839 C2826 0.961 . S
H2840 C2826 0.961 . S
H2841 C2827 0.958 . S
H2842 C2827 0.961 . S
H2843 C2827 0.960 . S
C2844 C2845 1.393 . S
C2844 C2846 1.392 1_565 S
C2844 H2860 0.930 1_565 S
C2845 C2844 1.393 . S
C2845 C2849 1.376 . S
C2846 C2844 1.392 1_545 S
C2846 C2847 1.369 1_545 S
C2846 C2850 1.531 . S
C2847 C2846 1.369 1_565 S
C2847 C2848 1.410 . S
C2847 C2855 1.503 . S
C2848 C2847 1.410 . S
C2848 C2849 1.392 . S
C2848 C2851 1.511 . S
C2849 C2845 1.376 . S
C2849 C2848 1.392 . S
C2849 H2861 0.929 . S
C2850 C2846 1.531 . S
C2850 H2862 0.960 . S
C2850 H2863 0.944 1_545 S
C2850 H2864 0.960 . S
C2851 C2848 1.511 . S
C2851 H2865 0.961 . S
C2851 H2866 0.961 . S
C2851 H2867 0.961 . S
C2852 C2853 1.370 . S
C2852 C2854 1.363 . S
C2852 H2868 0.931 . S
C2853 C2852 1.370 . S
C2853 C2857 1.408 1_565 S
C2854 C2852 1.363 . S
C2854 C2855 1.370 . S
C2854 C2858 1.524 . S
C2855 C2847 1.503 . S
C2855 C2854 1.370 . S
C2855 C2856 1.403 1_565 S
C2856 C2855 1.403 1_545 S
C2856 C2857 1.404 . S
C2856 C2859 1.539 . S
C2857 C2853 1.408 1_545 S
C2857 C2856 1.404 . S
C2857 H2869 0.930 . S
C2858 C2854 1.524 . S
C2858 H2870 0.956 . S
C2858 H2871 0.961 . S
C2858 H2872 0.961 . S
C2859 C2856 1.539 . S
C2859 H2873 0.958 . S
C2859 H2874 0.961 . S
C2859 H2875 0.960 . S
H2860 C2844 0.930 1_545 S
H2861 C2849 0.929 . S
H2862 C2850 0.960 . S
H2863 C2850 0.944 1_565 S
H2864 C2850 0.960 . S
H2865 C2851 0.961 . S
H2866 C2851 0.961 . S
H2867 C2851 0.961 . S
H2868 C2852 0.931 . S
H2869 C2857 0.930 . S
H2870 C2858 0.956 . S
H2871 C2858 0.961 . S
H2872 C2858 0.961 . S
H2873 C2859 0.958 . S
H2874 C2859 0.961 . S
H2875 C2859 0.960 . S
C2876 C2877 1.391 . S
C2876 C2878 1.394 . S
C2876 H2892 0.931 . S
C2877 C2876 1.391 . S
C2877 C2881 1.376 . S
C2878 C2876 1.394 . S
C2878 C2879 1.369 . S
C2878 C2882 1.531 . S
C2879 C2878 1.369 . S
C2879 C2880 1.410 . S
C2879 C2887 1.503 . S
C2880 C2879 1.410 . S
C2880 C2881 1.392 . S
C2880 C2883 1.511 1_455 S
C2881 C2877 1.376 . S
C2881 C2880 1.392 . S
C2881 H2893 0.929 . S
C2882 C2878 1.531 . S
C2882 H2894 0.960 1_455 S
C2882 H2895 0.962 . S
C2882 H2896 0.947 1_455 S
C2883 C2880 1.511 1_655 S
C2883 H2897 0.961 1_655 S
C2883 H2898 0.960 1_655 S
C2883 H2899 0.962 . S
C2884 C2885 1.370 . S
C2884 C2886 1.363 . S
C2884 H2900 0.931 . S
C2885 C2884 1.370 . S
C2885 C2889 1.408 1_455 S
C2886 C2884 1.363 . S
C2886 C2887 1.370 . S
C2886 C2890 1.524 . S
C2887 C2879 1.503 . S
C2887 C2886 1.370 . S
C2887 C2888 1.403 1_455 S
C2888 C2887 1.403 1_655 S
C2888 C2889 1.404 . S
C2888 C2891 1.539 . S
C2889 C2885 1.408 1_655 S
C2889 C2888 1.404 . S
C2889 H2901 0.930 . S
C2890 C2886 1.524 . S
C2890 H2902 0.956 . S
C2890 H2903 0.961 . S
C2890 H2904 0.961 . S
C2891 C2888 1.539 . S
C2891 H2905 0.958 . S
C2891 H2906 0.961 . S
C2891 H2907 0.960 . S
H2892 C2876 0.931 . S
H2893 C2881 0.929 . S
H2894 C2882 0.960 1_655 S
H2895 C2882 0.962 . S
H2896 C2882 0.947 1_655 S
H2897 C2883 0.961 1_455 S
H2898 C2883 0.960 1_455 S
H2899 C2883 0.962 . S
H2900 C2884 0.931 . S
H2901 C2889 0.930 . S
H2902 C2890 0.956 . S
H2903 C2890 0.961 . S
H2904 C2890 0.961 . S
H2905 C2891 0.958 . S
H2906 C2891 0.961 . S
H2907 C2891 0.960 . S
C2908 C2909 1.391 . S
C2908 C2910 1.394 . S
C2908 H2924 0.931 . S
C2909 C2908 1.391 . S
C2909 C2913 1.376 . S
C2910 C2908 1.394 . S
C2910 C2911 1.369 . S
C2910 C2914 1.531 . S
C2911 C2910 1.369 . S
C2911 C2912 1.410 . S
C2911 C2919 1.503 . S
C2912 C2911 1.410 . S
C2912 C2913 1.392 . S
C2912 C2915 1.511 . S
C2913 C2909 1.376 . S
C2913 C2912 1.392 . S
C2913 H2925 0.929 . S
C2914 C2910 1.531 . S
C2914 H2926 0.960 . S
C2914 H2927 0.962 . S
C2914 H2928 0.960 . S
C2915 C2912 1.511 . S
C2915 H2929 0.961 . S
C2915 H2930 0.961 . S
C2915 H2931 0.961 . S
C2916 C2917 1.370 . S
C2916 C2918 1.363 . S
C2916 H2932 0.931 . S
C2917 C2916 1.370 . S
C2917 C2921 1.408 . S
C2918 C2916 1.363 . S
C2918 C2919 1.370 . S
C2918 C2922 1.524 . S
C2919 C2911 1.503 . S
C2919 C2918 1.370 . S
C2919 C2920 1.403 . S
C2920 C2919 1.403 . S
C2920 C2921 1.404 . S
C2920 C2923 1.539 . S
C2921 C2917 1.408 . S
C2921 C2920 1.404 . S
C2921 H2933 0.930 . S
C2922 C2918 1.524 . S
C2922 H2934 0.956 . S
C2922 H2935 0.961 . S
C2922 H2936 0.961 . S
C2923 C2920 1.539 . S
C2923 H2937 0.958 . S
C2923 H2938 0.961 . S
C2923 H2939 0.960 . S
H2924 C2908 0.931 . S
H2925 C2913 0.929 . S
H2926 C2914 0.960 . S
H2927 C2914 0.962 . S
H2928 C2914 0.960 . S
H2929 C2915 0.961 . S
H2930 C2915 0.961 . S
H2931 C2915 0.961 . S
H2932 C2916 0.931 . S
H2933 C2921 0.930 . S
H2934 C2922 0.956 . S
H2935 C2922 0.961 . S
H2936 C2922 0.961 . S
H2937 C2923 0.958 . S
H2938 C2923 0.961 . S
H2939 C2923 0.960 . S
C2940 C2941 1.391 . S
C2940 C2942 1.394 . S
C2940 H2956 0.931 . S
C2941 C2940 1.391 . S
C2941 C2945 1.376 . S
C2942 C2940 1.394 . S
C2942 C2943 1.369 . S
C2942 C2946 1.531 . S
C2943 C2942 1.369 . S
C2943 C2944 1.410 . S
C2943 C2951 1.503 . S
C2944 C2943 1.410 . S
C2944 C2945 1.392 . S
C2944 C2947 1.511 . S
C2945 C2941 1.376 . S
C2945 C2944 1.392 . S
C2945 H2957 0.929 . S
C2946 C2942 1.531 . S
C2946 H2958 0.960 . S
C2946 H2959 0.962 . S
C2946 H2960 0.960 . S
C2947 C2944 1.511 . S
C2947 H2961 0.961 . S
C2947 H2962 0.961 . S
C2947 H2963 0.961 . S
C2948 C2949 1.370 . S
C2948 C2950 1.363 . S
C2948 H2964 0.931 . S
C2949 C2948 1.370 . S
C2949 C2953 1.408 . S
C2950 C2948 1.363 . S
C2950 C2951 1.370 . S
C2950 C2954 1.524 . S
C2951 C2943 1.503 . S
C2951 C2950 1.370 . S
C2951 C2952 1.403 . S
C2952 C2951 1.403 . S
C2952 C2953 1.404 . S
C2952 C2955 1.539 . S
C2953 C2949 1.408 . S
C2953 C2952 1.404 . S
C2953 H2965 0.930 . S
C2954 C2950 1.524 . S
C2954 H2966 0.956 . S
C2954 H2967 0.961 . S
C2954 H2968 0.961 . S
C2955 C2952 1.539 . S
C2955 H2969 0.958 . S
C2955 H2970 0.961 . S
C2955 H2971 0.960 . S
H2956 C2940 0.931 . S
H2957 C2945 0.929 . S
H2958 C2946 0.960 . S
H2959 C2946 0.962 . S
H2960 C2946 0.960 . S
H2961 C2947 0.961 . S
H2962 C2947 0.961 . S
H2963 C2947 0.961 . S
H2964 C2948 0.931 . S
H2965 C2953 0.930 . S
H2966 C2954 0.956 . S
H2967 C2954 0.961 . S
H2968 C2954 0.961 . S
H2969 C2955 0.958 . S
H2970 C2955 0.961 . S
H2971 C2955 0.960 . S
C2972 C2973 1.391 . S
C2972 C2974 1.394 . S
C2972 H2988 0.931 . S
C2973 C2972 1.391 . S
C2973 C2977 1.376 . S
C2974 C2972 1.394 . S
C2974 C2975 1.369 . S
C2974 C2978 1.531 . S
C2975 C2974 1.369 . S
C2975 C2976 1.410 . S
C2975 C2983 1.503 . S
C2976 C2975 1.410 . S
C2976 C2977 1.392 . S
C2976 C2979 1.511 . S
C2977 C2973 1.376 . S
C2977 C2976 1.392 . S
C2977 H2989 0.929 . S
C2978 C2974 1.531 . S
C2978 H2990 0.960 . S
C2978 H2991 0.962 . S
C2978 H2992 0.960 . S
C2979 C2976 1.511 . S
C2979 H2993 0.961 . S
C2979 H2994 0.961 . S
C2979 H2995 0.961 . S
C2980 C2981 1.370 . S
C2980 C2982 1.363 . S
C2980 H2996 0.931 . S
C2981 C2980 1.370 . S
C2981 C2985 1.408 . S
C2982 C2980 1.363 . S
C2982 C2983 1.370 . S
C2982 C2986 1.524 . S
C2983 C2975 1.503 . S
C2983 C2982 1.370 . S
C2983 C2984 1.403 . S
C2984 C2983 1.403 . S
C2984 C2985 1.404 . S
C2984 C2987 1.539 . S
C2985 C2981 1.408 . S
C2985 C2984 1.404 . S
C2985 H2997 0.930 . S
C2986 C2982 1.524 . S
C2986 H2998 0.956 . S
C2986 H2999 0.961 . S
C2986 H3000 0.961 . S
C2987 C2984 1.539 . S
C2987 H3001 0.958 . S
C2987 H3002 0.961 . S
C2987 H3003 0.960 . S
H2988 C2972 0.931 . S
H2989 C2977 0.929 . S
H2990 C2978 0.960 . S
H2991 C2978 0.962 . S
H2992 C2978 0.960 . S
H2993 C2979 0.961 . S
H2994 C2979 0.961 . S
H2995 C2979 0.961 . S
H2996 C2980 0.931 . S
H2997 C2985 0.930 . S
H2998 C2986 0.956 . S
H2999 C2986 0.961 . S
H3000 C2986 0.961 . S
H3001 C2987 0.958 . S
H3002 C2987 0.961 . S
H3003 C2987 0.960 . S
C3004 C3005 1.391 . S
C3004 C3006 1.394 . S
C3004 H3020 0.931 . S
C3005 C3004 1.391 . S
C3005 C3009 1.376 . S
C3006 C3004 1.394 . S
C3006 C3007 1.369 . S
C3006 C3010 1.531 . S
C3007 C3006 1.369 . S
C3007 C3008 1.410 . S
C3007 C3015 1.503 . S
C3008 C3007 1.410 . S
C3008 C3009 1.392 . S
C3008 C3011 1.511 . S
C3009 C3005 1.376 . S
C3009 C3008 1.392 . S
C3009 H3021 0.929 . S
C3010 C3006 1.531 . S
C3010 H3022 0.960 . S
C3010 H3023 0.962 . S
C3010 H3024 0.960 . S
C3011 C3008 1.511 . S
C3011 H3025 0.961 . S
C3011 H3026 0.961 . S
C3011 H3027 0.961 . S
C3012 C3013 1.370 . S
C3012 C3014 1.363 . S
C3012 H3028 0.931 . S
C3013 C3012 1.370 . S
C3013 C3017 1.408 . S
C3014 C3012 1.363 . S
C3014 C3015 1.370 . S
C3014 C3018 1.524 . S
C3015 C3007 1.503 . S
C3015 C3014 1.370 . S
C3015 C3016 1.403 . S
C3016 C3015 1.403 . S
C3016 C3017 1.404 . S
C3016 C3019 1.539 . S
C3017 C3013 1.408 . S
C3017 C3016 1.404 . S
C3017 H3029 0.930 . S
C3018 C3014 1.524 . S
C3018 H3030 0.956 . S
C3018 H3031 0.961 . S
C3018 H3032 0.961 . S
C3019 C3016 1.539 . S
C3019 H3033 0.958 . S
C3019 H3034 0.961 . S
C3019 H3035 0.960 . S
H3020 C3004 0.931 . S
H3021 C3009 0.929 . S
H3022 C3010 0.960 . S
H3023 C3010 0.962 . S
H3024 C3010 0.960 . S
H3025 C3011 0.961 . S
H3026 C3011 0.961 . S
H3027 C3011 0.961 . S
H3028 C3012 0.931 . S
H3029 C3017 0.930 . S
H3030 C3018 0.956 . S
H3031 C3018 0.961 . S
H3032 C3018 0.961 . S
H3033 C3019 0.958 . S
H3034 C3019 0.961 . S
H3035 C3019 0.960 . S
C3036 C3037 1.382 1_565 S
C3036 C3038 1.407 . S
C3036 H3052 0.927 . S
C3037 C3036 1.382 1_545 S
C3037 C3041 1.376 . S
C3038 C3036 1.407 . S
C3038 C3039 1.369 1_565 S
C3038 C3042 1.531 . S
C3039 C3038 1.369 1_545 S
C3039 C3040 1.410 . S
C3039 C3047 1.503 . S
C3040 C3039 1.410 . S
C3040 C3041 1.392 . S
C3040 C3043 1.511 . S
C3041 C3037 1.376 . S
C3041 C3040 1.392 . S
C3041 H3053 0.929 . S
C3042 C3038 1.531 . S
C3042 H3054 0.960 . S
C3042 H3055 0.962 . S
C3042 H3056 0.960 . S
C3043 C3040 1.511 . S
C3043 H3057 0.961 . S
C3043 H3058 0.961 . S
C3043 H3059 0.961 . S
C3044 C3045 1.370 . S
C3044 C3046 1.363 . S
C3044 H3060 0.931 . S
C3045 C3044 1.370 . S
C3045 C3049 1.408 1_545 S
C3046 C3044 1.363 . S
C3046 C3047 1.370 . S
C3046 C3050 1.524 . S
C3047 C3039 1.503 . S
C3047 C3046 1.370 . S
C3047 C3048 1.403 1_545 S
C3048 C3047 1.403 1_565 S
C3048 C3049 1.404 . S
C3048 C3051 1.539 . S
C3049 C3045 1.408 1_565 S
C3049 C3048 1.404 . S
C3049 H3061 0.930 . S
C3050 C3046 1.524 . S
C3050 H3062 0.956 . S
C3050 H3063 0.961 . S
C3050 H3064 0.961 . S
C3051 C3048 1.539 . S
C3051 H3065 0.958 . S
C3051 H3066 0.961 . S
C3051 H3067 0.960 . S
H3052 C3036 0.927 . S
H3053 C3041 0.929 . S
H3054 C3042 0.960 . S
H3055 C3042 0.962 . S
H3056 C3042 0.960 . S
H3057 C3043 0.961 . S
H3058 C3043 0.961 . S
H3059 C3043 0.961 . S
H3060 C3044 0.931 . S
H3061 C3049 0.930 . S
H3062 C3050 0.956 . S
H3063 C3050 0.961 . S
H3064 C3050 0.961 . S
H3065 C3051 0.958 . S
H3066 C3051 0.961 . S
H3067 C3051 0.960 . S
C3068 C3069 1.391 . S
C3068 C3070 1.394 . S
C3068 H3084 0.931 . S
C3069 C3068 1.391 . S
C3069 C3073 1.376 . S
C3070 C3068 1.394 . S
C3070 C3071 1.369 . S
C3070 C3074 1.531 . S
C3071 C3070 1.369 . S
C3071 C3072 1.410 . S
C3071 C3079 1.503 . S
C3072 C3071 1.410 . S
C3072 C3073 1.392 . S
C3072 C3075 1.511 . S
C3073 C3069 1.376 . S
C3073 C3072 1.392 . S
C3073 H3085 0.929 . S
C3074 C3070 1.531 . S
C3074 H3086 0.960 . S
C3074 H3087 0.962 1_655 S
C3074 H3088 0.960 . S
C3075 C3072 1.511 . S
C3075 H3089 0.961 . S
C3075 H3090 0.961 . S
C3075 H3091 0.961 . S
C3076 C3077 1.370 1_455 S
C3076 C3078 1.363 . S
C3076 H3092 0.931 . S
C3077 C3076 1.370 1_655 S
C3077 C3081 1.408 . S
C3078 C3076 1.363 . S
C3078 C3079 1.370 1_455 S
C3078 C3082 1.524 . S
C3079 C3071 1.503 . S
C3079 C3078 1.370 1_655 S
C3079 C3080 1.403 . S
C3080 C3079 1.403 . S
C3080 C3081 1.404 . S
C3080 C3083 1.539 . S
C3081 C3077 1.408 . S
C3081 C3080 1.404 . S
C3081 H3093 0.930 . S
C3082 C3078 1.524 . S
C3082 H3094 0.956 . S
C3082 H3095 0.961 . S
C3082 H3096 0.961 . S
C3083 C3080 1.539 . S
C3083 H3097 0.958 . S
C3083 H3098 0.961 . S
C3083 H3099 0.960 . S
H3084 C3068 0.931 . S
H3085 C3073 0.929 . S
H3086 C3074 0.960 . S
H3087 C3074 0.962 1_455 S
H3088 C3074 0.960 . S
H3089 C3075 0.961 . S
H3090 C3075 0.961 . S
H3091 C3075 0.961 . S
H3092 C3076 0.931 . S
H3093 C3081 0.930 . S
H3094 C3082 0.956 . S
H3095 C3082 0.961 . S
H3096 C3082 0.961 . S
H3097 C3083 0.958 . S
H3098 C3083 0.961 . S
H3099 C3083 0.960 . S
C3100 C3101 1.391 . S
C3100 C3102 1.394 . S
C3100 H3116 0.931 . S
C3101 C3100 1.391 . S
C3101 C3105 1.376 . S
C3102 C3100 1.394 . S
C3102 C3103 1.369 . S
C3102 C3106 1.531 . S
C3103 C3102 1.369 . S
C3103 C3104 1.410 . S
C3103 C3111 1.503 . S
C3104 C3103 1.410 . S
C3104 C3105 1.392 . S
C3104 C3107 1.511 . S
C3105 C3101 1.376 . S
C3105 C3104 1.392 . S
C3105 H3117 0.929 . S
C3106 C3102 1.531 . S
C3106 H3118 0.960 . S
C3106 H3119 0.962 . S
C3106 H3120 0.960 . S
C3107 C3104 1.511 . S
C3107 H3121 0.961 . S
C3107 H3122 0.961 . S
C3107 H3123 0.961 . S
C3108 C3109 1.370 . S
C3108 C3110 1.363 . S
C3108 H3124 0.931 . S
C3109 C3108 1.370 . S
C3109 C3113 1.408 . S
C3110 C3108 1.363 . S
C3110 C3111 1.370 . S
C3110 C3114 1.524 . S
C3111 C3103 1.503 . S
C3111 C3110 1.370 . S
C3111 C3112 1.403 . S
C3112 C3111 1.403 . S
C3112 C3113 1.404 . S
C3112 C3115 1.539 . S
C3113 C3109 1.408 . S
C3113 C3112 1.404 . S
C3113 H3125 0.930 . S
C3114 C3110 1.524 . S
C3114 H3126 0.956 . S
C3114 H3127 0.961 . S
C3114 H3128 0.961 . S
C3115 C3112 1.539 . S
C3115 H3129 0.958 . S
C3115 H3130 0.961 . S
C3115 H3131 0.960 . S
H3116 C3100 0.931 . S
H3117 C3105 0.929 . S
H3118 C3106 0.960 . S
H3119 C3106 0.962 . S
H3120 C3106 0.960 . S
H3121 C3107 0.961 . S
H3122 C3107 0.961 . S
H3123 C3107 0.961 . S
H3124 C3108 0.931 . S
H3125 C3113 0.930 . S
H3126 C3114 0.956 . S
H3127 C3114 0.961 . S
H3128 C3114 0.961 . S
H3129 C3115 0.958 . S
H3130 C3115 0.961 . S
H3131 C3115 0.960 . S
C3132 C3133 1.391 . S
C3132 C3134 1.394 . S
C3132 H3148 0.931 . S
C3133 C3132 1.391 . S
C3133 C3137 1.376 . S
C3134 C3132 1.394 . S
C3134 C3135 1.369 . S
C3134 C3138 1.531 . S
C3135 C3134 1.369 . S
C3135 C3136 1.410 . S
C3135 C3143 1.503 . S
C3136 C3135 1.410 . S
C3136 C3137 1.392 . S
C3136 C3139 1.511 . S
C3137 C3133 1.376 . S
C3137 C3136 1.392 . S
C3137 H3149 0.929 . S
C3138 C3134 1.531 . S
C3138 H3150 0.960 . S
C3138 H3151 0.962 . S
C3138 H3152 0.960 . S
C3139 C3136 1.511 . S
C3139 H3153 0.961 . S
C3139 H3154 0.961 . S
C3139 H3155 0.961 . S
C3140 C3141 1.370 . S
C3140 C3142 1.363 . S
C3140 H3156 0.931 . S
C3141 C3140 1.370 . S
C3141 C3145 1.408 . S
C3142 C3140 1.363 . S
C3142 C3143 1.370 . S
C3142 C3146 1.524 . S
C3143 C3135 1.503 . S
C3143 C3142 1.370 . S
C3143 C3144 1.403 . S
C3144 C3143 1.403 . S
C3144 C3145 1.404 . S
C3144 C3147 1.539 . S
C3145 C3141 1.408 . S
C3145 C3144 1.404 . S
C3145 H3157 0.930 . S
C3146 C3142 1.524 . S
C3146 H3158 0.956 . S
C3146 H3159 0.961 . S
C3146 H3160 0.961 . S
C3147 C3144 1.539 . S
C3147 H3161 0.958 . S
C3147 H3162 0.961 . S
C3147 H3163 0.960 . S
H3148 C3132 0.931 . S
H3149 C3137 0.929 . S
H3150 C3138 0.960 . S
H3151 C3138 0.962 . S
H3152 C3138 0.960 . S
H3153 C3139 0.961 . S
H3154 C3139 0.961 . S
H3155 C3139 0.961 . S
H3156 C3140 0.931 . S
H3157 C3145 0.930 . S
H3158 C3146 0.956 . S
H3159 C3146 0.961 . S
H3160 C3146 0.961 . S
H3161 C3147 0.958 . S
H3162 C3147 0.961 . S
H3163 C3147 0.960 . S
C3164 C3165 1.391 . S
C3164 C3166 1.394 . S
C3164 H3180 0.931 . S
C3165 C3164 1.391 . S
C3165 C3169 1.376 . S
C3166 C3164 1.394 . S
C3166 C3167 1.369 . S
C3166 C3170 1.531 . S
C3167 C3166 1.369 . S
C3167 C3168 1.410 . S
C3167 C3175 1.503 . S
C3168 C3167 1.410 . S
C3168 C3169 1.392 . S
C3168 C3171 1.511 . S
C3169 C3165 1.376 . S
C3169 C3168 1.392 . S
C3169 H3181 0.929 . S
C3170 C3166 1.531 . S
C3170 H3182 0.960 . S
C3170 H3183 0.962 . S
C3170 H3184 0.960 . S
C3171 C3168 1.511 . S
C3171 H3185 0.961 . S
C3171 H3186 0.961 . S
C3171 H3187 0.961 . S
C3172 C3173 1.370 . S
C3172 C3174 1.363 . S
C3172 H3188 0.931 . S
C3173 C3172 1.370 . S
C3173 C3177 1.408 . S
C3174 C3172 1.363 . S
C3174 C3175 1.370 . S
C3174 C3178 1.524 . S
C3175 C3167 1.503 . S
C3175 C3174 1.370 . S
C3175 C3176 1.403 . S
C3176 C3175 1.403 . S
C3176 C3177 1.404 . S
C3176 C3179 1.539 . S
C3177 C3173 1.408 . S
C3177 C3176 1.404 . S
C3177 H3189 0.930 . S
C3178 C3174 1.524 . S
C3178 H3190 0.956 . S
C3178 H3191 0.961 . S
C3178 H3192 0.961 . S
C3179 C3176 1.539 . S
C3179 H3193 0.958 . S
C3179 H3194 0.961 . S
C3179 H3195 0.960 . S
H3180 C3164 0.931 . S
H3181 C3169 0.929 . S
H3182 C3170 0.960 . S
H3183 C3170 0.962 . S
H3184 C3170 0.960 . S
H3185 C3171 0.961 . S
H3186 C3171 0.961 . S
H3187 C3171 0.961 . S
H3188 C3172 0.931 . S
H3189 C3177 0.930 . S
H3190 C3178 0.956 . S
H3191 C3178 0.961 . S
H3192 C3178 0.961 . S
H3193 C3179 0.958 . S
H3194 C3179 0.961 . S
H3195 C3179 0.960 . S
C3196 C3197 1.391 . S
C3196 C3198 1.394 . S
C3196 H3212 0.931 . S
C3197 C3196 1.391 . S
C3197 C3201 1.376 . S
C3198 C3196 1.394 . S
C3198 C3199 1.369 . S
C3198 C3202 1.531 . S
C3199 C3198 1.369 . S
C3199 C3200 1.410 . S
C3199 C3207 1.503 . S
C3200 C3199 1.410 . S
C3200 C3201 1.392 . S
C3200 C3203 1.511 . S
C3201 C3197 1.376 . S
C3201 C3200 1.392 . S
C3201 H3213 0.929 . S
C3202 C3198 1.531 . S
C3202 H3214 0.960 . S
C3202 H3215 0.962 . S
C3202 H3216 0.960 . S
C3203 C3200 1.511 . S
C3203 H3217 0.961 . S
C3203 H3218 0.961 . S
C3203 H3219 0.961 . S
C3204 C3205 1.370 . S
C3204 C3206 1.363 . S
C3204 H3220 0.931 . S
C3205 C3204 1.370 . S
C3205 C3209 1.408 . S
C3206 C3204 1.363 . S
C3206 C3207 1.370 . S
C3206 C3210 1.524 . S
C3207 C3199 1.503 . S
C3207 C3206 1.370 . S
C3207 C3208 1.403 . S
C3208 C3207 1.403 . S
C3208 C3209 1.404 . S
C3208 C3211 1.539 . S
C3209 C3205 1.408 . S
C3209 C3208 1.404 . S
C3209 H3221 0.930 . S
C3210 C3206 1.524 . S
C3210 H3222 0.956 . S
C3210 H3223 0.961 . S
C3210 H3224 0.961 . S
C3211 C3208 1.539 . S
C3211 H3225 0.958 . S
C3211 H3226 0.961 . S
C3211 H3227 0.960 . S
H3212 C3196 0.931 . S
H3213 C3201 0.929 . S
H3214 C3202 0.960 . S
H3215 C3202 0.962 . S
H3216 C3202 0.960 . S
H3217 C3203 0.961 . S
H3218 C3203 0.961 . S
H3219 C3203 0.961 . S
H3220 C3204 0.931 . S
H3221 C3209 0.930 . S
H3222 C3210 0.956 . S
H3223 C3210 0.961 . S
H3224 C3210 0.961 . S
H3225 C3211 0.958 . S
H3226 C3211 0.961 . S
H3227 C3211 0.960 . S
C3228 C3229 1.391 . S
C3228 C3230 1.394 . S
C3228 H3244 0.931 . S
C3229 C3228 1.391 . S
C3229 C3233 1.376 . S
C3230 C3228 1.394 . S
C3230 C3231 1.369 . S
C3230 C3234 1.531 . S
C3231 C3230 1.369 . S
C3231 C3232 1.410 . S
C3231 C3239 1.503 . S
C3232 C3231 1.410 . S
C3232 C3233 1.392 . S
C3232 C3235 1.511 . S
C3233 C3229 1.376 . S
C3233 C3232 1.392 . S
C3233 H3245 0.929 . S
C3234 C3230 1.531 . S
C3234 H3246 0.960 . S
C3234 H3247 0.962 . S
C3234 H3248 0.960 . S
C3235 C3232 1.511 . S
C3235 H3249 0.961 . S
C3235 H3250 0.961 . S
C3235 H3251 0.961 . S
C3236 C3237 1.370 . S
C3236 C3238 1.363 . S
C3236 H3252 0.931 . S
C3237 C3236 1.370 . S
C3237 C3241 1.408 . S
C3238 C3236 1.363 . S
C3238 C3239 1.370 . S
C3238 C3242 1.524 . S
C3239 C3231 1.503 . S
C3239 C3238 1.370 . S
C3239 C3240 1.403 . S
C3240 C3239 1.403 . S
C3240 C3241 1.404 . S
C3240 C3243 1.539 . S
C3241 C3237 1.408 . S
C3241 C3240 1.404 . S
C3241 H3253 0.930 . S
C3242 C3238 1.524 . S
C3242 H3254 0.956 . S
C3242 H3255 0.961 . S
C3242 H3256 0.961 . S
C3243 C3240 1.539 . S
C3243 H3257 0.958 . S
C3243 H3258 0.961 . S
C3243 H3259 0.960 . S
H3244 C3228 0.931 . S
H3245 C3233 0.929 . S
H3246 C3234 0.960 . S
H3247 C3234 0.962 . S
H3248 C3234 0.960 . S
H3249 C3235 0.961 . S
H3250 C3235 0.961 . S
H3251 C3235 0.961 . S
H3252 C3236 0.931 . S
H3253 C3241 0.930 . S
H3254 C3242 0.956 . S
H3255 C3242 0.961 . S
H3256 C3242 0.961 . S
H3257 C3243 0.958 . S
H3258 C3243 0.961 . S
H3259 C3243 0.960 . S
C3260 C3261 1.391 . S
C3260 C3262 1.394 . S
C3260 H3276 0.931 . S
C3261 C3260 1.391 . S
C3261 C3265 1.376 . S
C3262 C3260 1.394 . S
C3262 C3263 1.369 . S
C3262 C3266 1.531 . S
C3263 C3262 1.369 . S
C3263 C3264 1.410 . S
C3263 C3271 1.503 . S
C3264 C3263 1.410 . S
C3264 C3265 1.392 . S
C3264 C3267 1.511 . S
C3265 C3261 1.376 . S
C3265 C3264 1.392 . S
C3265 H3277 0.929 . S
C3266 C3262 1.531 . S
C3266 H3278 0.960 . S
C3266 H3279 0.962 . S
C3266 H3280 0.960 . S
C3267 C3264 1.511 . S
C3267 H3281 0.961 . S
C3267 H3282 0.961 . S
C3267 H3283 0.961 . S
C3268 C3269 1.370 . S
C3268 C3270 1.363 . S
C3268 H3284 0.931 . S
C3269 C3268 1.370 . S
C3269 C3273 1.408 . S
C3270 C3268 1.363 . S
C3270 C3271 1.370 . S
C3270 C3274 1.524 . S
C3271 C3263 1.503 . S
C3271 C3270 1.370 . S
C3271 C3272 1.403 . S
C3272 C3271 1.403 . S
C3272 C3273 1.404 . S
C3272 C3275 1.539 . S
C3273 C3269 1.408 . S
C3273 C3272 1.404 . S
C3273 H3285 0.930 . S
C3274 C3270 1.524 . S
C3274 H3286 0.956 . S
C3274 H3287 0.961 . S
C3274 H3288 0.961 . S
C3275 C3272 1.539 . S
C3275 H3289 0.958 . S
C3275 H3290 0.961 . S
C3275 H3291 0.960 . S
H3276 C3260 0.931 . S
H3277 C3265 0.929 . S
H3278 C3266 0.960 . S
H3279 C3266 0.962 . S
H3280 C3266 0.960 . S
H3281 C3267 0.961 . S
H3282 C3267 0.961 . S
H3283 C3267 0.961 . S
H3284 C3268 0.931 . S
H3285 C3273 0.930 . S
H3286 C3274 0.956 . S
H3287 C3274 0.961 . S
H3288 C3274 0.961 . S
H3289 C3275 0.958 . S
H3290 C3275 0.961 . S
H3291 C3275 0.960 . S
C3292 C3293 1.391 . S
C3292 C3294 1.394 . S
C3292 H3308 0.931 . S
C3293 C3292 1.391 . S
C3293 C3297 1.376 . S
C3294 C3292 1.394 . S
C3294 C3295 1.369 . S
C3294 C3298 1.531 . S
C3295 C3294 1.369 . S
C3295 C3296 1.410 . S
C3295 C3303 1.503 . S
C3296 C3295 1.410 . S
C3296 C3297 1.392 . S
C3296 C3299 1.511 . S
C3297 C3293 1.376 . S
C3297 C3296 1.392 . S
C3297 H3309 0.929 . S
C3298 C3294 1.531 . S
C3298 H3310 0.960 . S
C3298 H3311 0.962 . S
C3298 H3312 0.960 . S
C3299 C3296 1.511 . S
C3299 H3313 0.961 . S
C3299 H3314 0.961 . S
C3299 H3315 0.961 . S
C3300 C3301 1.370 . S
C3300 C3302 1.363 . S
C3300 H3316 0.931 . S
C3301 C3300 1.370 . S
C3301 C3305 1.408 . S
C3302 C3300 1.363 . S
C3302 C3303 1.370 . S
C3302 C3306 1.524 . S
C3303 C3295 1.503 . S
C3303 C3302 1.370 . S
C3303 C3304 1.403 . S
C3304 C3303 1.403 . S
C3304 C3305 1.404 . S
C3304 C3307 1.539 . S
C3305 C3301 1.408 . S
C3305 C3304 1.404 . S
C3305 H3317 0.930 . S
C3306 C3302 1.524 . S
C3306 H3318 0.956 . S
C3306 H3319 0.961 . S
C3306 H3320 0.961 . S
C3307 C3304 1.539 . S
C3307 H3321 0.958 . S
C3307 H3322 0.961 . S
C3307 H3323 0.960 . S
H3308 C3292 0.931 . S
H3309 C3297 0.929 . S
H3310 C3298 0.960 . S
H3311 C3298 0.962 . S
H3312 C3298 0.960 . S
H3313 C3299 0.961 . S
H3314 C3299 0.961 . S
H3315 C3299 0.961 . S
H3316 C3300 0.931 . S
H3317 C3305 0.930 . S
H3318 C3306 0.956 . S
H3319 C3306 0.961 . S
H3320 C3306 0.961 . S
H3321 C3307 0.958 . S
H3322 C3307 0.961 . S
H3323 C3307 0.960 . S
C3324 C3325 1.391 1_455 S
C3324 C3326 1.394 . S
C3324 H3340 0.931 . S
C3325 C3324 1.391 1_655 S
C3325 C3329 1.376 . S
C3326 C3324 1.394 . S
C3326 C3327 1.369 1_455 S
C3326 C3330 1.531 . S
C3327 C3326 1.369 1_655 S
C3327 C3328 1.410 . S
C3327 C3335 1.503 . S
C3328 C3327 1.410 . S
C3328 C3329 1.392 . S
C3328 C3331 1.511 . S
C3329 C3325 1.376 . S
C3329 C3328 1.392 . S
C3329 H3341 0.929 . S
C3330 C3326 1.531 . S
C3330 H3342 0.960 . S
C3330 H3343 0.962 . S
C3330 H3344 0.960 . S
C3331 C3328 1.511 . S
C3331 H3345 0.961 . S
C3331 H3346 0.961 . S
C3331 H3347 0.961 . S
C3332 C3333 1.370 . S
C3332 C3334 1.363 . S
C3332 H3348 0.931 . S
C3333 C3332 1.370 . S
C3333 C3337 1.408 1_655 S
C3334 C3332 1.363 . S
C3334 C3335 1.370 . S
C3334 C3338 1.524 . S
C3335 C3327 1.503 . S
C3335 C3334 1.370 . S
C3335 C3336 1.403 1_655 S
C3336 C3335 1.403 1_455 S
C3336 C3337 1.404 . S
C3336 C3339 1.539 . S
C3337 C3333 1.408 1_455 S
C3337 C3336 1.404 . S
C3337 H3349 0.930 . S
C3338 C3334 1.524 . S
C3338 H3350 0.956 . S
C3338 H3351 0.961 . S
C3338 H3352 0.961 . S
C3339 C3336 1.539 . S
C3339 H3353 0.958 . S
C3339 H3354 0.961 . S
C3339 H3355 0.960 . S
H3340 C3324 0.931 . S
H3341 C3329 0.929 . S
H3342 C3330 0.960 . S
H3343 C3330 0.962 . S
H3344 C3330 0.960 . S
H3345 C3331 0.961 . S
H3346 C3331 0.961 . S
H3347 C3331 0.961 . S
H3348 C3332 0.931 . S
H3349 C3337 0.930 . S
H3350 C3338 0.956 . S
H3351 C3338 0.961 . S
H3352 C3338 0.961 . S
H3353 C3339 0.958 . S
H3354 C3339 0.961 . S
H3355 C3339 0.960 . S
C3356 C3357 1.391 . S
C3356 C3358 1.394 . S
C3356 H3372 0.931 . S
C3357 C3356 1.391 . S
C3357 C3361 1.376 . S
C3358 C3356 1.394 . S
C3358 C3359 1.369 . S
C3358 C3362 1.531 . S
C3359 C3358 1.369 . S
C3359 C3360 1.410 . S
C3359 C3367 1.503 . S
C3360 C3359 1.410 . S
C3360 C3361 1.392 . S
C3360 C3363 1.511 . S
C3361 C3357 1.376 . S
C3361 C3360 1.392 . S
C3361 H3373 0.929 . S
C3362 C3358 1.531 . S
C3362 H3374 0.960 . S
C3362 H3375 0.962 . S
C3362 H3376 0.960 . S
C3363 C3360 1.511 . S
C3363 H3377 0.961 . S
C3363 H3378 0.961 . S
C3363 H3379 0.961 . S
C3364 C3365 1.370 . S
C3364 C3366 1.363 . S
C3364 H3380 0.931 . S
C3365 C3364 1.370 . S
C3365 C3369 1.408 . S
C3366 C3364 1.363 . S
C3366 C3367 1.370 . S
C3366 C3370 1.524 . S
C3367 C3359 1.503 . S
C3367 C3366 1.370 . S
C3367 C3368 1.403 . S
C3368 C3367 1.403 . S
C3368 C3369 1.404 . S
C3368 C3371 1.539 . S
C3369 C3365 1.408 . S
C3369 C3368 1.404 . S
C3369 H3381 0.930 . S
C3370 C3366 1.524 . S
C3370 H3382 0.956 . S
C3370 H3383 0.961 . S
C3370 H3384 0.961 . S
C3371 C3368 1.539 . S
C3371 H3385 0.958 . S
C3371 H3386 0.961 . S
C3371 H3387 0.960 . S
H3372 C3356 0.931 . S
H3373 C3361 0.929 . S
H3374 C3362 0.960 . S
H3375 C3362 0.962 . S
H3376 C3362 0.960 . S
H3377 C3363 0.961 . S
H3378 C3363 0.961 . S
H3379 C3363 0.961 . S
H3380 C3364 0.931 . S
H3381 C3369 0.930 . S
H3382 C3370 0.956 . S
H3383 C3370 0.961 . S
H3384 C3370 0.961 . S
H3385 C3371 0.958 . S
H3386 C3371 0.961 . S
H3387 C3371 0.960 . S
C3388 C3389 1.392 1_565 S
C3388 C3390 1.377 . S
C3388 H3404 0.950 . S
C3389 C3388 1.392 1_545 S
C3389 C3393 1.376 . S
C3390 C3388 1.377 . S
C3390 C3391 1.369 1_565 S
C3390 C3394 1.531 . S
C3391 C3390 1.369 1_545 S
C3391 C3392 1.410 . S
C3391 C3399 1.503 . S
C3392 C3391 1.410 . S
C3392 C3393 1.392 . S
C3392 C3395 1.511 . S
C3393 C3389 1.376 . S
C3393 C3392 1.392 . S
C3393 H3405 0.929 . S
C3394 C3390 1.531 . S
C3394 H3406 0.960 . S
C3394 H3407 0.962 . S
C3394 H3408 0.960 . S
C3395 C3392 1.511 . S
C3395 H3409 0.961 . S
C3395 H3410 0.961 . S
C3395 H3411 0.961 . S
C3396 C3397 1.370 . S
C3396 C3398 1.363 . S
C3396 H3412 0.931 . S
C3397 C3396 1.370 . S
C3397 C3401 1.408 1_545 S
C3398 C3396 1.363 . S
C3398 C3399 1.370 . S
C3398 C3402 1.524 . S
C3399 C3391 1.503 . S
C3399 C3398 1.370 . S
C3399 C3400 1.403 1_545 S
C3400 C3399 1.403 1_565 S
C3400 C3401 1.404 . S
C3400 C3403 1.539 . S
C3401 C3397 1.408 1_565 S
C3401 C3400 1.404 . S
C3401 H3413 0.930 . S
C3402 C3398 1.524 . S
C3402 H3414 0.956 . S
C3402 H3415 0.961 . S
C3402 H3416 0.961 . S
C3403 C3400 1.539 . S
C3403 H3417 0.958 . S
C3403 H3418 0.961 . S
C3403 H3419 0.960 . S
H3404 C3388 0.950 . S
H3405 C3393 0.929 . S
H3406 C3394 0.960 . S
H3407 C3394 0.962 . S
H3408 C3394 0.960 . S
H3409 C3395 0.961 . S
H3410 C3395 0.961 . S
H3411 C3395 0.961 . S
H3412 C3396 0.931 . S
H3413 C3401 0.930 . S
H3414 C3402 0.956 . S
H3415 C3402 0.961 . S
H3416 C3402 0.961 . S
H3417 C3403 0.958 . S
H3418 C3403 0.961 . S
H3419 C3403 0.960 . S
C1117 C8 1.469 1_655 S
C1125 C729 1.501 . S
C1149 C22 1.557 . S
C1157 C777 1.561 . S
C1189 C825 1.513 . S
C1181 C37 1.507 1_545 S
C1213 C36 1.461 1_565 S
C1221 C849 1.511 . S
C1245 C9 1.482 1_455 S
C1253 C921 1.518 . S
C1277 C23 1.545 . S
C1285 C969 1.561 . S
C1309 C50 1.486 1_455 S
C1317 C897 1.503 . S
C1349 C945 1.567 . S
C1341 C64 1.553 . S
C1381 C873 1.530 . S
C1373 C79 1.468 . S
C1405 C78 1.499 1_545 S
C1413 C801 1.503 . S
C1445 C705 1.525 . S
C1437 C51 1.509 1_655 S
C1469 C65 1.548 . S
C1477 C753 1.568 . S
C1501 C92 1.583 . S
C1509 C1017 1.596 . S
C1533 C106 1.584 . S
C1541 C1065 1.607 . S
C1573 C1089 1.572 . S
C1565 C121 1.558 . S
C1597 C120 1.555 . S
C1605 C273 1.553 . S
C1629 C93 1.552 . S
C1637 C345 1.575 . S
C1661 C107 1.551 . S
C1669 C393 1.579 . S
C1693 C134 1.547 . S
C1701 C321 1.555 . S
C1725 C148 1.573 . S
C1733 C369 1.586 . S
C1765 C297 1.541 . S
C1757 C163 1.542 . S
C1797 C1113 1.577 . S
C1789 C162 1.594 . S
C1829 C993 1.585 . S
C1821 C135 1.574 . S
C1861 C1041 1.613 . S
C1853 C149 1.605 . S
C1885 C176 1.520 . S
C1893 C441 1.551 . S
C1917 C190 1.551 . S
C1925 C489 1.579 . S
C1949 C205 1.551 . S
C1957 C513 1.566 . S
C1981 C204 1.576 . S
C1989 C561 1.590 . S
C2021 C633 1.580 . S
C2013 C177 1.554 . S
C2053 C681 1.607 . S
C2045 C191 1.584 . S
C2085 C609 1.607 . S
C2077 C218 1.597 . S
C2117 C657 1.607 . S
C2109 C232 1.586 . S
C2141 C247 1.579 . S
C2149 C585 1.564 . S
C2181 C537 1.520 . S
C2173 C246 1.518 . S
C2205 C219 1.552 . S
C2213 C417 1.577 . S
C2245 C465 1.586 . S
C2237 C233 1.578 . S
C2277 C282 1.541 . S
C2269 C6 1.520 . S
C2301 C20 1.503 . S
C2309 C336 1.503 . S
C2341 C384 1.529 . S
C2333 C35 1.511 . S
C2373 C432 1.533 . S
C2365 C34 1.501 . S
C2405 C480 1.538 . S
C2397 C7 1.526 . S
C2437 C522 1.510 . S
C2429 C21 1.497 . S
C2461 C48 1.538 . S
C2469 C528 1.554 . S
C2493 C62 1.483 . S
C2501 C426 1.499 . S
C2525 C77 1.511 . S
C2533 C474 1.520 . S
C2557 C76 1.506 . S
C2565 C330 1.527 . S
C2597 C378 1.515 . S
C2589 C49 1.504 . S
C2621 C63 1.493 . S
C2629 C288 1.505 . S
C2661 C570 1.534 . S
C2653 C90 1.524 . S
C2685 C104 1.516 . S
C2693 C624 1.560 . S
C2717 C119 1.521 . S
C2725 C672 1.564 . S
C2757 C720 1.502 . S
C2749 C118 1.468 . S
C2781 C91 1.499 . S
C2789 C768 1.526 . S
C2813 C105 1.442 . S
C2821 C816 1.496 . S
C2845 C132 1.481 . S
C2853 C810 1.492 . S
C2877 C146 1.483 . S
C2885 C714 1.504 . S
C2917 C762 1.529 . S
C2909 C161 1.516 . S
C2941 C160 1.527 . S
C2949 C618 1.525 . S
C2973 C133 1.559 . S
C2981 C666 1.560 . S
C3013 C576 1.566 . S
C3005 C147 1.558 . S
C3045 C858 1.533 . S
C3037 C174 1.468 . S
C3069 C188 1.428 . S
C3077 C912 1.497 . S
C3101 C203 1.491 . S
C3109 C960 1.529 . S
C3141 C1008 1.522 . S
C3133 C202 1.500 . S
C3173 C1056 1.560 . S
C3165 C175 1.518 . S
C3197 C189 1.528 . S
C3205 C1098 1.570 . S
C3229 C216 1.491 . S
C3237 C1104 1.539 . S
C3261 C230 1.557 . S
C3269 C1002 1.558 . S
C3301 C1050 1.559 . S
C3293 C245 1.557 . S
C3333 C906 1.489 . S
C3325 C244 1.463 . S
C3365 C954 1.522 . S
C3357 C217 1.490 . S
C3389 C231 1.487 . S
C3397 C864 1.502 . S
