# Generated by pormake.
# Topology zzz, (3,6)-cn, num edge types: 1
# Building blocks:
#     Node 0, Type 0, BuildingBlock: ESEHIV_clean_linker_0, # of connection points: 3
#     Node 1, Type 0, BuildingBlock: ESEHIV_clean_linker_0, # of connection points: 3
#     Node 2, Type 0, BuildingBlock: ESEHIV_clean_linker_0, # of connection points: 3
#     Node 3, Type 0, BuildingBlock: ESEHIV_clean_linker_0, # of connection points: 3
#     Node 4, Type 0, BuildingBlock: ESEHIV_clean_linker_0, # of connection points: 3
#     Node 5, Type 0, BuildingBlock: ESEHIV_clean_linker_0, # of connection points: 3
#     Node 6, Type 0, BuildingBlock: ESEHIV_clean_linker_0, # of connection points: 3
#     Node 7, Type 0, BuildingBlock: ESEHIV_clean_linker_0, # of connection points: 3
#     Node 8, Type 1, BuildingBlock: BETDIP_clean_sbu_0, # of connection points: 6
#     Node 9, Type 1, BuildingBlock: BETDIP_clean_sbu_0, # of connection points: 6
#     Node 10, Type 1, BuildingBlock: BETDIP_clean_sbu_0, # of connection points: 6
#     Node 11, Type 1, BuildingBlock: BETDIP_clean_sbu_0, # of connection points: 6
#     Edge 12, Type (0, 1), BuildingBlock: KIFKEQ_clean_linker_1, # of connection points: 2
#     Edge 13, Type (0, 1), BuildingBlock: KIFKEQ_clean_linker_1, # of connection points: 2
#     Edge 14, Type (0, 1), BuildingBlock: KIFKEQ_clean_linker_1, # of connection points: 2
#     Edge 15, Type (0, 1), BuildingBlock: KIFKEQ_clean_linker_1, # of connection points: 2
#     Edge 16, Type (0, 1), BuildingBlock: KIFKEQ_clean_linker_1, # of connection points: 2
#     Edge 17, Type (0, 1), BuildingBlock: KIFKEQ_clean_linker_1, # of connection points: 2
#     Edge 18, Type (0, 1), BuildingBlock: KIFKEQ_clean_linker_1, # of connection points: 2
#     Edge 19, Type (0, 1), BuildingBlock: KIFKEQ_clean_linker_1, # of connection points: 2
#     Edge 20, Type (0, 1), BuildingBlock: KIFKEQ_clean_linker_1, # of connection points: 2
#     Edge 21, Type (0, 1), BuildingBlock: KIFKEQ_clean_linker_1, # of connection points: 2
#     Edge 22, Type (0, 1), BuildingBlock: KIFKEQ_clean_linker_1, # of connection points: 2
#     Edge 23, Type (0, 1), BuildingBlock: KIFKEQ_clean_linker_1, # of connection points: 2
#     Edge 24, Type (0, 1), BuildingBlock: KIFKEQ_clean_linker_1, # of connection points: 2
#     Edge 25, Type (0, 1), BuildingBlock: KIFKEQ_clean_linker_1, # of connection points: 2
#     Edge 26, Type (0, 1), BuildingBlock: KIFKEQ_clean_linker_1, # of connection points: 2
#     Edge 27, Type (0, 1), BuildingBlock: KIFKEQ_clean_linker_1, # of connection points: 2
#     Edge 28, Type (0, 1), BuildingBlock: KIFKEQ_clean_linker_1, # of connection points: 2
#     Edge 29, Type (0, 1), BuildingBlock: KIFKEQ_clean_linker_1, # of connection points: 2
#     Edge 30, Type (0, 1), BuildingBlock: KIFKEQ_clean_linker_1, # of connection points: 2
#     Edge 31, Type (0, 1), BuildingBlock: KIFKEQ_clean_linker_1, # of connection points: 2
#     Edge 32, Type (0, 1), BuildingBlock: KIFKEQ_clean_linker_1, # of connection points: 2
#     Edge 33, Type (0, 1), BuildingBlock: KIFKEQ_clean_linker_1, # of connection points: 2
#     Edge 34, Type (0, 1), BuildingBlock: KIFKEQ_clean_linker_1, # of connection points: 2
#     Edge 35, Type (0, 1), BuildingBlock: KIFKEQ_clean_linker_1, # of connection points: 2
# Relax obj value: 0.496
# Max RMSD: 0.258
# Mean RMSD: 0.242
data_MOF--net-zzz--node1-BETDIP_clean_sbu_0--node2-ESEHIV_clean_linker_0--edge1-KIFKEQ_clean_linker_1
_symmetry_space_group_name_H-M    P1
_symmetry_Int_Tables_number       1
_symmetry_cell_setting            triclinic
loop_
_symmetry_equiv_pos_as_xyz
'x, y, z'
_cell_length_a     45.949793
_cell_length_b     45.967347
_cell_length_c     14.53094
_cell_angle_alpha  89.753888
_cell_angle_beta   89.786802
_cell_angle_gamma 89.954627
loop_
_atom_site_label
_atom_site_type_symbol
_atom_site_fract_x
_atom_site_fract_y
_atom_site_fract_z
_atom_type_partial_charge
H0 H 0.78939 0.44442 0.38938 0.0
H1 H 0.71378 0.44436 0.21849 0.0
H2 H 0.7309 0.51762 0.39577 0.0
C3 C 0.76902 0.45447 0.36891 0.0
C4 C 0.76189 0.48195 0.40383 0.0
C5 C 0.75212 0.44111 0.30134 0.0
C6 C 0.72651 0.45463 0.272 0.0
C7 C 0.71807 0.48198 0.30635 0.0
C8 C 0.73645 0.49614 0.37089 0.0
H9 H 0.0844 0.79135 0.39136 0.0
H10 H 0.08589 0.71721 0.21446 0.0
H11 H 1.01078 0.73346 0.38686 0.0
C12 C 0.07444 0.77125 0.36846 0.0
C13 C 0.04649 0.76411 0.40012 0.0
C14 C 0.08844 0.75479 0.3008 0.0
C15 C 0.07511 0.72956 0.26816 0.0
C16 C 0.04736 0.72104 0.29976 0.0
C17 C 0.03256 0.73904 0.36424 0.0
H18 H 0.7433 0.08447 0.39024 0.0
H19 H 0.81352 0.08394 0.19582 0.0
H20 H 0.79934 1.00959 0.3727 0.0
C21 C 0.76287 0.07423 0.36361 0.0
C22 C 0.77011 0.04617 0.39418 0.0
C23 C 0.77791 0.08767 0.29113 0.0
C24 C 0.80214 0.07371 0.25295 0.0
C25 C 0.81052 0.04577 0.28245 0.0
C26 C 0.79411 0.0317 0.35271 0.0
H27 H 0.43749 0.74742 0.39471 0.0
H28 H 0.51459 0.80041 0.38711 0.0
H29 H 0.44151 0.82109 0.21335 0.0
C30 C 0.44852 0.76701 0.37169 0.0
C31 C 0.436 0.7838 0.30148 0.0
C32 C 0.47668 0.77263 0.40424 0.0
C33 C 0.49233 0.79649 0.36635 0.0
C34 C 0.47913 0.81474 0.29933 0.0
C35 C 0.45095 0.80826 0.26856 0.0
H36 H 0.23518 0.59199 0.15772 0.0
H37 H 0.31044 0.59132 0.32942 0.0
H38 H 0.29551 0.52025 0.14156 0.0
C39 C 0.25569 0.58199 0.17696 0.0
C40 C 0.26347 0.55512 0.1385 0.0
C41 C 0.27231 0.59478 0.24625 0.0
C42 C 0.29809 0.58145 0.27427 0.0
C43 C 0.30733 0.5549 0.23617 0.0
C44 C 0.28932 0.54116 0.1696 0.0
H45 H 0.9493 0.23537 0.12544 0.0
H46 H 0.93926 0.30919 0.30109 0.0
H47 H 0.02094 0.29431 0.15943 0.0
C48 C 0.95776 0.25565 0.1524 0.0
C49 C 0.98664 0.26307 0.13334 0.0
C50 C 0.94074 0.27195 0.21329 0.0
C51 C 0.95231 0.2973 0.25162 0.0
C52 C 0.98098 0.30641 0.23129 0.0
C53 C 0.99848 0.28857 0.17316 0.0
H54 H 0.297 0.944 0.12488 0.0
H55 H 0.22233 0.94192 0.30186 0.0
H56 H 0.23641 1.01553 0.12101 0.0
C57 C 0.27654 0.95356 0.14694 0.0
C58 C 0.26849 0.98087 0.11218 0.0
C59 C 0.26037 0.93969 0.21591 0.0
C60 C 0.23464 0.95256 0.24751 0.0
C61 C 0.2253 0.97961 0.21265 0.0
C62 C 0.24282 0.99429 0.14635 0.0
H63 H 0.58556 0.2959 0.1599 0.0
H64 H 0.51597 0.23469 0.11498 0.0
H65 H 0.58188 0.21751 0.31932 0.0
C66 C 0.57552 0.27494 0.17335 0.0
C67 C 0.58673 0.25735 0.24349 0.0
C68 C 0.55001 0.26736 0.12635 0.0
C69 C 0.53588 0.2408 0.14952 0.0
C70 C 0.54811 0.22209 0.21728 0.0
C71 C 0.57326 0.2309 0.26405 0.0
Tb72 Tb 0.03999 1.00509 0.83233 0.0
Tb73 Tb 1.00158 0.02471 0.67156 0.0
C74 C 0.06589 0.99486 0.98037 0.0
C75 C 0.08748 0.97343 1.01205 0.0
C76 C 0.08371 0.9603 0.09822 0.0
C77 C 0.10228 0.93803 0.1266 0.0
C78 C 0.12532 0.92861 0.06971 0.0
C79 C 0.12989 0.94286 0.98502 0.0
C80 C 0.11102 0.96496 0.95615 0.0
C81 C 0.06629 1.00539 0.66986 0.0
C82 C 1.01538 0.95739 0.70179 0.0
C83 C 0.98238 0.04108 0.51868 0.0
C84 C 0.95837 0.06048 0.49206 0.0
C85 C 0.95053 0.08402 0.548 0.0
C86 C 0.92895 0.10343 0.51981 0.0
C87 C 0.91446 0.09954 0.43547 0.0
C88 C 0.92118 0.0748 0.38252 0.0
C89 C 0.94303 0.05551 0.41047 0.0
C90 C 0.96847 1.01506 0.8207 0.0
C91 C 0.02007 0.07242 0.81482 0.0
O92 O 0.03995 0.98453 0.96151 0.0
O93 O 0.07496 1.01391 0.91934 0.0
O94 O 0.04779 0.02387 0.69762 0.0
O95 O 0.07177 0.98736 0.73608 0.0
O96 O 0.02286 0.9629 0.7882 0.0
O97 O 1.01075 0.97878 0.64197 0.0
O98 O 1.00454 0.05342 0.55973 0.0
O99 O 0.97455 0.01671 0.55848 0.0
O100 O 0.99553 1.01257 0.81145 0.0
O101 O 0.95868 0.02328 0.74148 0.0
O102 O 1.0072 0.06737 0.73498 0.0
O103 O 0.03268 0.05138 0.86327 0.0
H104 H 0.0657 0.96654 0.14231 0.0
H105 H 0.09756 0.92727 0.19136 0.0
H106 H 0.14752 0.9364 0.93987 0.0
H107 H 0.11444 0.97487 0.88921 0.0
H108 H 0.96174 0.08797 0.61221 0.0
H109 H 0.92489 0.12236 0.56201 0.0
H110 H 0.91027 0.07087 0.31791 0.0
H111 H 0.94841 0.03709 0.3673 0.0
Tb112 Tb 0.52765 0.03549 0.82321 0.0
Tb113 Tb 0.51003 0.99558 0.66259 0.0
C114 C 0.53623 0.06198 0.97085 0.0
C115 C 0.55718 0.08382 1.0033 0.0
C116 C 0.57005 0.08001 0.08958 0.0
C117 C 0.59213 0.09862 0.11834 0.0
C118 C 0.60162 0.12175 0.06178 0.0
C119 C 0.58757 0.1264 0.97711 0.0
C120 C 0.56567 0.10749 0.94782 0.0
C121 C 0.52725 0.06083 0.65909 0.0
C122 C 0.57677 1.01151 0.69546 0.0
C123 C 0.49604 0.97538 0.50878 0.0
C124 C 0.47779 0.95102 0.47861 0.0
C125 C 0.46473 0.95225 0.39197 0.0
C126 C 0.44425 0.93137 0.36684 0.0
C127 C 0.43646 0.90875 0.42802 0.0
C128 C 0.45114 0.90656 0.51256 0.0
C129 C 0.47151 0.92762 0.53787 0.0
C130 C 0.51875 0.96422 0.81627 0.0
C131 C 0.4609 1.01433 0.80144 0.0
O132 O 0.54704 0.03609 0.95356 0.0
O133 O 0.5176 0.07066 0.90828 0.0
O134 O 0.50938 0.04184 0.68757 0.0
O135 O 0.54466 0.06742 0.72551 0.0
O136 O 0.57055 0.01925 0.78131 0.0
O137 O 0.55589 1.00605 0.63506 0.0
O138 O 0.48212 0.99681 0.5488 0.0
O139 O 0.52008 0.9684 0.55165 0.0
O140 O 0.52115 0.99104 0.80289 0.0
O141 O 0.51109 0.95338 0.73808 0.0
O142 O 0.46667 1.00231 0.72061 0.0
O143 O 0.48149 0.02633 0.85277 0.0
H144 H 0.56379 0.0619 0.13336 0.0
H145 H 0.60273 0.09383 0.18307 0.0
H146 H 0.59409 0.14411 0.93219 0.0
H147 H 0.55599 0.11093 0.88079 0.0
H148 H 0.46936 0.97013 0.34533 0.0
H149 H 0.43322 0.9342 0.30172 0.0
H150 H 0.44605 0.88925 0.56077 0.0
H151 H 0.48152 0.9262 0.60503 0.0
Tb152 Tb 0.49305 0.52598 0.83508 0.0
Tb153 Tb 0.53508 0.51453 0.69729 0.0
C154 C 0.46236 0.54467 0.96617 0.0
C155 C 0.44145 0.56846 0.98012 0.0
C156 C 0.44442 0.59501 0.93313 0.0
C157 C 0.42566 0.61811 0.95249 0.0
C158 C 0.40343 0.61499 0.01869 0.0
C159 C 0.39941 0.58773 0.06109 0.0
C160 C 0.41836 0.5647 0.04228 0.0
C161 C 0.4689 0.51006 0.67603 0.0
C162 C 0.51371 0.57834 0.705 0.0
C163 C 0.56526 0.49634 0.56456 0.0
C164 C 0.58685 0.47338 0.54933 0.0
C165 C 0.59115 0.463 0.46014 0.0
C166 C 0.60973 0.43956 0.44449 0.0
C167 C 0.62465 0.4261 0.51794 0.0
C168 C 0.62135 0.43769 0.60699 0.0
C169 C 0.60242 0.46102 0.62265 0.0
C170 C 0.55926 0.52995 0.85719 0.0
C171 C 0.51439 0.46195 0.82623 0.0
O172 O 0.48956 0.55205 0.95271 0.0
O173 O 0.45403 0.5242 0.91038 0.0
O174 O 0.49029 0.52693 0.68621 0.0
O175 O 0.46035 0.50203 0.75685 0.0
O176 O 0.50339 0.57088 0.78707 0.0
O177 O 0.52328 0.55788 0.64932 0.0
O178 O 0.5387 0.48759 0.5815 0.0
O179 O 0.57321 0.51746 0.61861 0.0
O180 O 0.53777 0.5133 0.84624 0.0
O181 O 0.56799 0.53796 0.7765 0.0
O182 O 0.52523 0.46959 0.74497 0.0
O183 O 0.50431 0.48224 0.8819 0.0
H184 H 0.46181 0.59823 0.88378 0.0
H185 H 0.42967 0.63887 0.91925 0.0
H186 H 0.38219 0.58451 0.11093 0.0
H187 H 0.41542 0.54417 0.07805 0.0
H188 H 0.57931 0.47237 0.40281 0.0
H189 H 0.61099 0.4311 0.3752 0.0
H190 H 0.6327 0.42825 0.66504 0.0
H191 H 0.59941 0.46895 0.69217 0.0
Tb192 Tb 1.00788 0.49516 0.83305 0.0
Tb193 Tb 0.02027 0.53591 0.69238 0.0
C194 C 0.98881 0.46527 0.96572 0.0
C195 C 0.96566 0.44367 0.97974 0.0
C196 C 0.93936 0.44553 0.93146 0.0
C197 C 0.91673 0.42623 0.95124 0.0
C198 C 0.9201 0.40455 0.01914 0.0
C199 C 0.94724 0.40156 0.06263 0.0
C200 C 0.96978 0.42107 0.04338 0.0
C201 C 0.02399 0.46952 0.6758 0.0
C202 C 0.95616 0.5153 0.70163 0.0
C203 C 0.03859 0.56479 0.55646 0.0
C204 C 0.06019 0.58753 0.53781 0.0
C205 C 0.0717 0.59002 0.44906 0.0
C206 C 0.09325 0.61048 0.42992 0.0
C207 C 0.10366 0.62914 0.49923 0.0
C208 C 0.09106 0.62733 0.5876 0.0
C209 C 0.0696 0.60656 0.60688 0.0
C210 C 1.00406 0.56159 0.84949 0.0
C211 C 0.07201 0.5164 0.82563 0.0
O212 O 0.98061 0.49202 0.94867 0.0
O213 O 1.01023 0.45709 0.91278 0.0
O214 O 1.00741 0.49122 0.68433 0.0
O215 O 0.03174 0.46161 0.75731 0.0
O216 O 0.96319 0.50578 0.78484 0.0
O217 O 0.97702 0.52374 0.64506 0.0
O218 O 0.04875 0.53916 0.57926 0.0
O219 O 0.0164 0.57244 0.60712 0.0
O220 O 0.0206 0.53988 0.84106 0.0
O221 O 0.99692 0.56992 0.76778 0.0
O222 O 0.06503 0.52635 0.74272 0.0
O223 O 0.05118 0.50705 0.88107 0.0
H224 H 0.93589 0.46253 0.88089 0.0
H225 H 0.89606 0.42949 0.91713 0.0
H226 H 0.95069 0.38484 0.11402 0.0
H227 H 0.99017 0.419 0.08011 0.0
H228 H 0.06458 0.57555 0.39492 0.0
H229 H 0.1027 0.6105 0.36157 0.0
H230 H 0.09822 0.64146 0.64244 0.0
H231 H 0.06072 0.60503 0.67592 0.0
H232 H 0.21732 0.02742 0.32324 0.0
H233 H 0.17116 0.95733 0.1933 0.0
H234 H 0.17448 0.03754 0.41995 0.0
H235 H 0.12846 0.96731 0.28887 0.0
H236 H 0.088 0.95897 0.5813 0.0
H237 H 0.12263 0.95772 0.45446 0.0
H238 H 0.12048 0.05149 0.43741 0.0
H239 H 0.08497 0.05258 0.56537 0.0
C240 C 0.19761 1.01497 0.31274 0.0
C241 C 0.19754 0.99164 0.25044 0.0
C242 C 0.17307 0.02066 0.36843 0.0
C243 C 0.14806 1.00296 0.36335 0.0
C244 C 0.1474 0.98111 0.29576 0.0
C245 C 0.17177 0.97552 0.24034 0.0
C246 C 0.09442 0.97934 0.54934 0.0
C247 C 0.08364 1.00584 0.58315 0.0
C248 C 0.11427 0.97864 0.47618 0.0
C249 C 0.12448 1.0045 0.43515 0.0
C250 C 0.11318 0.03116 0.46746 0.0
C251 C 0.09266 0.03181 0.5401 0.0
H252 H 0.50006 0.21215 0.32499 0.0
H253 H 0.56977 0.16842 0.18284 0.0
H254 H 0.49094 0.16806 0.41668 0.0
H255 H 0.56084 0.12448 0.27402 0.0
H256 H 0.57262 0.08412 0.56763 0.0
H257 H 0.57206 0.11874 0.44043 0.0
H258 H 0.47835 0.11319 0.42969 0.0
H259 H 0.47912 0.07761 0.55743 0.0
C260 C 0.51243 0.19265 0.3101 0.0
C261 C 0.53537 0.19363 0.24581 0.0
C262 C 0.50738 0.16741 0.36314 0.0
C263 C 0.52544 0.14278 0.35371 0.0
C264 C 0.54673 0.14309 0.28378 0.0
C265 C 0.55162 0.16815 0.23066 0.0
C266 C 0.55191 0.08976 0.53683 0.0
C267 C 0.52596 0.07805 0.5723 0.0
C268 C 0.55157 0.10959 0.46353 0.0
C269 C 0.52515 0.11885 0.42436 0.0
C270 C 0.49907 0.10657 0.45826 0.0
C271 C 0.4995 0.08605 0.53082 0.0
H272 H 0.31819 0.49939 0.30258 0.0
H273 H 0.35901 0.58266 0.25816 0.0
H274 H 0.36011 0.48384 0.39478 0.0
H275 H 0.40009 0.56787 0.35093 0.0
H276 H 0.47724 0.53561 0.50626 0.0
H277 H 0.44182 0.54103 0.38206 0.0
H278 H 0.37879 0.49272 0.54269 0.0
H279 H 0.41457 0.48639 0.66415 0.0
C280 C 0.33644 0.51406 0.31015 0.0
C281 C 0.33516 0.54227 0.27257 0.0
C282 C 0.36036 0.50537 0.3644 0.0
C283 C 0.38365 0.52466 0.38226 0.0
C284 C 0.38306 0.55209 0.33892 0.0
C285 C 0.35931 0.56068 0.28525 0.0
C286 C 0.45596 0.52576 0.51417 0.0
C287 C 0.44873 0.51078 0.59561 0.0
C288 C 0.43545 0.52904 0.44315 0.0
C289 C 0.407 0.51764 0.45178 0.0
C290 C 0.40036 0.50158 0.53199 0.0
C291 C 0.42092 0.49813 0.60247 0.0
H292 H 0.0348 0.31669 0.3106 0.0
H293 H 0.95194 0.35768 0.25888 0.0
H294 H 0.04908 0.35819 0.40528 0.0
H295 H 0.96543 0.3982 0.3556 0.0
H296 H 0.99825 0.47649 0.50626 0.0
H297 H 0.99222 0.43998 0.38585 0.0
H298 H 0.03965 0.37776 0.55132 0.0
H299 H 0.04658 0.41458 0.66898 0.0
C300 C 0.01979 0.33471 0.318 0.0
C301 C 0.99209 0.33352 0.27723 0.0
C302 C 0.02779 0.35844 0.37363 0.0
C303 C 1.00835 0.38173 0.39003 0.0
C304 C 0.98129 0.38111 0.34493 0.0
C305 C 0.97338 0.35754 0.28957 0.0
C306 C 1.00776 0.45513 0.51608 0.0
C307 C 0.02275 0.44849 0.59768 0.0
C308 C 1.00409 0.43399 0.44727 0.0
C309 C 1.01513 0.40547 0.45828 0.0
C310 C 0.03107 0.39934 0.5388 0.0
C311 C 0.03489 0.42052 0.60707 0.0
H312 H 0.86639 0.03172 0.33645 0.0
H313 H 0.80832 0.02943 0.10477 0.0
H314 H 0.90726 0.01818 0.23528 0.0
H315 H 0.84846 0.01723 1.00363 0.0
H316 H 0.9184 0.9849 0.82854 0.0
H317 H 0.88205 0.98454 0.95042 0.0
H318 H 0.93829 0.03763 0.11836 0.0
H319 H 0.97563 0.03608 0.99689 0.0
C320 C 0.86225 0.02749 0.2644 0.0
C321 C 0.83405 0.0311 0.22879 0.0
C322 C 0.88574 0.02022 0.20588 0.0
C323 C 0.88154 0.01651 0.11033 0.0
C324 C 0.85292 0.01912 0.07642 0.0
C325 C 0.82967 0.02619 0.13458 0.0
C326 C 0.92332 0.99578 0.89265 0.0
C327 C 0.94988 1.01038 0.90331 0.0
C328 C 0.90224 0.99599 0.96245 0.0
C329 C 0.90655 1.01178 0.04426 0.0
C330 C 0.93397 0.0251 0.05701 0.0
C331 C 0.95549 0.02423 0.98743 0.0
H332 H 0.50724 0.80916 0.13745 0.0
H333 H 0.48376 0.87283 0.34078 0.0
H334 H 0.52083 0.84747 0.03082 0.0
H335 H 0.49894 0.91198 0.23598 0.0
H336 H 0.48956 0.9727 0.97932 0.0
H337 H 0.48527 0.93801 0.10699 0.0
H338 H 0.54969 0.88308 0.9763 0.0
H339 H 0.55177 0.91662 0.84665 0.0
C340 C 0.50633 0.83152 0.16073 0.0
C341 C 0.49514 0.83793 0.24823 0.0
C342 C 0.51412 0.85377 0.09931 0.0
C343 C 0.51122 0.88338 0.12343 0.0
C344 C 0.50123 0.8897 0.21335 0.0
C345 C 0.49303 0.86725 0.27454 0.0
C346 C 0.50317 0.95344 0.97939 0.0
C347 C 0.52106 0.94736 0.9033 0.0
C348 C 0.50078 0.9334 0.05278 0.0
C349 C 0.51666 0.907 0.05251 0.0
C350 C 0.53617 0.90234 0.97873 0.0
C351 C 0.53783 0.92187 0.90458 0.0
H352 H 0.6646 0.45694 0.29144 0.0
H353 H 0.71038 0.5364 0.22887 0.0
H354 H 0.62455 0.47202 0.19406 0.0
H355 H 0.66945 0.55256 0.13393 0.0
H356 H 0.61486 0.55058 0.86765 0.0
H357 H 0.65018 0.54326 0.98958 0.0
H358 H 0.58462 0.49958 0.1535 0.0
H359 H 0.54966 0.5058 0.0284 0.0
C360 C 0.6657 0.47814 0.25877 0.0
C361 C 0.69092 0.49529 0.26741 0.0
C362 C 0.64251 0.48696 0.20278 0.0
C363 C 0.64357 0.51344 0.15368 0.0
C364 C 0.66792 0.53166 0.16816 0.0
C365 C 0.69129 0.52268 0.22412 0.0
C366 C 0.60787 0.53963 0.93007 0.0
C367 C 0.57942 0.52854 0.93762 0.0
C368 C 0.62819 0.5356 1.00093 0.0
C369 C 0.6207 0.5206 0.0825 0.0
C370 C 0.59169 0.51068 0.09153 0.0
C371 C 0.57143 0.51445 0.01997 0.0
H372 H 0.07226 0.66757 0.28741 0.0
H373 H 0.99405 0.71389 0.21556 0.0
H374 H 0.05832 0.62753 0.18893 0.0
H375 H 0.9789 0.67298 0.11933 0.0
H376 H 0.984 0.61749 0.85517 0.0
H377 H 0.99006 0.65319 0.97645 0.0
H378 H 0.03083 0.58777 0.14754 0.0
H379 H 0.02592 0.55242 0.02328 0.0
C380 C 0.05158 0.66878 0.25228 0.0
C381 C 0.03448 0.69411 0.25883 0.0
C382 C 0.04339 0.64561 0.19573 0.0
C383 C 0.01756 0.6468 0.14391 0.0
C384 C 0.99932 0.67133 0.15587 0.0
C385 C 1.0077 0.69469 0.21245 0.0
C386 C 0.99405 0.61063 0.91901 0.0
C387 C 1.00472 0.5821 0.92896 0.0
C388 C 0.99733 0.63116 0.98944 0.0
C389 C 1.01114 0.62379 0.07285 0.0
C390 C 0.02064 0.59473 0.08412 0.0
C391 C 0.01762 0.57425 1.01304 0.0
H392 H 0.895 0.24888 0.11751 0.0
H393 H 0.92671 0.26306 0.3927 0.0
H394 H 0.86661 0.20743 0.17245 0.0
H395 H 0.89899 0.22178 0.44731 0.0
H396 H 0.91084 0.11755 0.2563 0.0
H397 H 0.89572 0.16473 0.20349 0.0
H398 H 0.86221 0.18468 0.47421 0.0
H399 H 0.87691 0.13644 0.52747 0.0
C400 C 0.89468 0.24407 0.19057 0.0
C401 C 0.91387 0.2584 0.2503 0.0
C402 C 0.8785 0.22027 0.22204 0.0
C403 C 0.88163 0.21044 0.31328 0.0
C404 C 0.8963 0.22838 0.37622 0.0
C405 C 0.91234 0.25223 0.34484 0.0
C406 C 0.89897 0.13119 0.304 0.0
C407 C 0.89623 0.12351 0.39735 0.0
C408 C 0.8901 0.15854 0.27331 0.0
C409 C 0.87853 0.17896 0.33541 0.0
C410 C 0.87175 0.1697 0.42528 0.0
C411 C 0.88044 0.14214 0.45592 0.0
H412 H 0.28119 0.88859 0.14491 0.0
H413 H 0.27189 0.93643 0.39775 0.0
H414 H 0.32085 0.86039 0.21214 0.0
H415 H 0.31205 0.90994 0.46345 0.0
H416 H 0.41778 0.88705 0.26245 0.0
H417 H 0.3677 0.87701 0.22455 0.0
H418 H 0.34537 0.87664 0.51407 0.0
H419 H 0.395 0.88965 0.551 0.0
C420 C 0.28691 0.8922 0.21623 0.0
C421 C 0.27409 0.91513 0.26554 0.0
C422 C 0.30988 0.87633 0.25455 0.0
C423 C 0.32087 0.88377 0.34171 0.0
C424 C 0.30474 0.90351 0.39586 0.0
C425 C 0.28147 0.91892 0.35813 0.0
C426 C 0.40226 0.88443 0.31817 0.0
C427 C 0.4101 0.89094 0.40912 0.0
C428 C 0.37337 0.87811 0.29663 0.0
C429 C 0.35185 0.87754 0.36607 0.0
C430 C 0.36098 0.87841 0.45835 0.0
C431 C 0.38974 0.8855 0.47971 0.0
H432 H 0.58124 0.26572 0.42596 0.0
H433 H 0.64118 0.27759 0.20021 0.0
H434 H 0.60724 0.30105 0.51499 0.0
H435 H 0.66938 0.31166 0.29213 0.0
H436 H 0.62881 0.37905 0.63572 0.0
H437 H 0.63825 0.32934 0.59137 0.0
H438 H 0.66128 0.35889 0.31732 0.0
H439 H 0.65565 0.40848 0.36566 0.0
C440 C 0.60106 0.27486 0.39737 0.0
C441 C 0.60881 0.26964 0.30568 0.0
C442 C 0.61632 0.29526 0.44881 0.0
C443 C 0.63999 0.3106 0.40986 0.0
C444 C 0.65044 0.30159 0.32311 0.0
C445 C 0.63457 0.28176 0.27057 0.0
C446 C 0.6373 0.37514 0.56731 0.0
C447 C 0.63975 0.39781 0.50239 0.0
C448 C 0.64222 0.34633 0.5411 0.0
C449 C 0.64833 0.33955 0.44856 0.0
C450 C 0.65566 0.36262 0.3886 0.0
C451 C 0.65185 0.39142 0.41586 0.0
H452 H 0.25082 0.64709 0.1849 0.0
H453 H 0.26421 0.5958 0.43018 0.0
H454 H 0.2157 0.67726 0.26706 0.0
H455 H 0.22816 0.62383 0.51028 0.0
H456 H 0.11963 0.65733 0.33955 0.0
H457 H 0.16879 0.66689 0.293 0.0
H458 H 0.19729 0.65555 0.5745 0.0
H459 H 0.14821 0.64247 0.61868 0.0
C460 C 0.24677 0.64284 0.25721 0.0
C461 C 0.25947 0.61869 0.30068 0.0
C462 C 0.22641 0.65988 0.30432 0.0
C463 C 0.21751 0.65216 0.39418 0.0
C464 C 0.2337 0.63066 0.44111 0.0
C465 C 0.25454 0.61422 0.39484 0.0
C466 C 0.13627 0.65712 0.39195 0.0
C467 C 0.13015 0.64702 0.48132 0.0
C468 C 0.16481 0.66319 0.36548 0.0
C469 C 0.18778 0.65994 0.4287 0.0
C470 C 0.18055 0.65626 0.52235 0.0
C471 C 0.15208 0.64918 0.54822 0.0
H472 H 0.13915 0.77566 0.37447 0.0
H473 H 0.09368 0.7646 0.118 0.0
H474 H 0.16876 0.81399 0.30489 0.0
H475 H 0.12162 0.80341 0.04984 0.0
H476 H 0.1445 0.88533 0.95433 0.0
H477 H 0.15606 0.83577 0.99874 0.0
H478 H 0.15214 0.86073 0.2853 0.0
H479 H 0.14329 0.91046 0.2405 0.0
C480 C 0.13632 0.78069 0.30214 0.0
C481 C 0.11363 0.76785 0.25222 0.0
C482 C 0.15304 0.80286 0.26236 0.0
C483 C 0.14667 0.81303 0.17307 0.0
C484 C 0.12721 0.79672 0.11903 0.0
C485 C 0.11094 0.77425 0.15826 0.0
C486 C 0.14751 0.88058 0.0267 0.0
C487 C 0.14157 0.90165 0.09416 0.0
C488 C 0.15382 0.85192 0.05232 0.0
C489 C 0.15345 0.84365 0.14571 0.0
C490 C 0.15213 0.86576 0.21251 0.0
C491 C 0.14649 0.89447 0.18685 0.0
H492 H 0.76687 0.09183 0.10868 0.0
H493 H 0.75541 0.13805 0.36404 0.0
H494 H 0.72709 0.11838 0.04189 0.0
H495 H 0.71577 0.16605 0.29573 0.0
H496 H 0.61942 0.1395 0.23271 0.0
H497 H 0.66916 0.14837 0.27727 0.0
H498 H 0.69456 0.15268 0.99054 0.0
H499 H 0.64512 0.141 0.94641 0.0
C500 C 0.75688 0.10894 0.14902 0.0
C501 C 0.76362 0.11221 0.24248 0.0
C502 C 0.73381 0.1244 0.11049 0.0
C503 C 0.71713 0.14363 0.16457 0.0
C504 C 0.72728 0.15052 0.2532 0.0
C505 C 0.75017 0.13469 0.29223 0.0
C506 C 0.63553 0.14274 0.17903 0.0
C507 C 0.62852 0.13794 0.08631 0.0
C508 C 0.66421 0.1484 0.20454 0.0
C509 C 0.68642 0.14994 0.13755 0.0
C510 C 0.67832 0.15031 0.04423 0.0
C511 C 0.64972 0.14396 0.01877 0.0
H512 H 0.43212 0.77847 0.11595 0.0
H513 H 0.38529 0.75936 0.36706 0.0
H514 H 0.40594 0.74066 0.03783 0.0
H515 H 0.35819 0.72137 0.28766 0.0
H516 H 0.39113 0.62861 0.19674 0.0
H517 H 0.38079 0.67632 0.25631 0.0
H518 H 0.37014 0.70923 0.97918 0.0
H519 H 0.38114 0.66091 0.9191 0.0
C520 C 0.41499 0.7673 0.15335 0.0
C521 C 0.41152 0.77118 0.24858 0.0
C522 C 0.39979 0.74538 0.10819 0.0
C523 C 0.38076 0.72699 0.15743 0.0
C524 C 0.37351 0.73442 0.24858 0.0
C525 C 0.38892 0.75627 0.29404 0.0
C526 C 0.38538 0.64563 0.1483 0.0
C527 C 0.38789 0.64116 0.05304 0.0
C528 C 0.37926 0.67324 0.18267 0.0
C529 C 0.37546 0.69703 0.12252 0.0
C530 C 0.37384 0.69159 0.02741 0.0
C531 C 0.3802 0.66393 0.99293 0.0
H532 H 0.77596 0.39081 0.3701 0.0
H533 H 0.75798 0.43635 0.11636 0.0
H534 H 0.81316 0.36201 0.29186 0.0
H535 H 0.79533 0.40864 0.03914 0.0
H536 H 0.87446 0.38139 0.92128 0.0
H537 H 0.82594 0.37141 0.98264 0.0
H538 H 0.85869 0.38317 0.2586 0.0
H539 H 0.9065 0.39267 0.19796 0.0
C540 C 0.77917 0.39381 0.29676 0.0
C541 C 0.76479 0.41638 0.24984 0.0
C542 C 0.80055 0.37743 0.25195 0.0
C543 C 0.80819 0.38383 0.16017 0.0
C544 C 0.79038 0.4031 0.10997 0.0
C545 C 0.76883 0.4192 0.15447 0.0
C546 C 0.87136 0.38089 0.9952 0.0
C547 C 0.89409 0.38884 0.05453 0.0
C548 C 0.84357 0.37511 0.0304 0.0
C549 C 0.83805 0.37748 0.12539 0.0
C550 C 0.86183 0.38117 0.18503 0.0
C551 C 0.88953 0.38679 0.14997 0.0
H552 H 0.01672 0.21701 0.20052 0.0
H553 H 0.99068 0.25758 0.94651 0.0
H554 H 0.02744 0.17208 0.11925 0.0
H555 H 1.00272 0.21308 0.86283 0.0
H556 H 0.98577 0.11925 0.7659 0.0
H557 H 0.98365 0.16718 0.83679 0.0
H558 H 0.05313 0.14248 0.02107 0.0
H559 H 0.05413 0.09426 0.95301 0.0
C560 C 1.01486 0.21679 0.12621 0.0
C561 C 1.00364 0.24119 0.07978 0.0
C562 C 0.02076 0.19079 0.0791 0.0
C563 C 0.01569 0.18832 0.98362 0.0
C564 C 1.00635 0.21356 0.93634 0.0
C565 C 1.00014 0.23947 0.98388 0.0
C566 C 1.00069 0.12409 0.82128 0.0
C567 C 0.01995 0.1026 0.85385 0.0
C568 C 0.99967 0.15185 0.86186 0.0
C569 C 0.01817 0.15923 0.93568 0.0
C570 C 0.03802 0.13785 0.96613 0.0
C571 C 0.03873 0.11002 0.92644 0.0
H572 H 0.30083 0.03056 0.13397 0.0
H573 H 0.28531 0.96027 0.94554 0.0
H574 H 0.34561 0.04291 0.0505 0.0
H575 H 0.33026 0.97147 0.86442 0.0
H576 H 0.41025 1.00061 0.71016 0.0
H577 H 0.36075 0.99906 0.77131 0.0
H578 H 0.39289 0.02427 0.03845 0.0
H579 H 0.44199 0.02693 0.97625 0.0
C580 C 0.30642 0.01845 0.0726 0.0
C581 C 0.28929 0.99467 0.0458 0.0
C582 C 0.33251 0.02504 0.02571 0.0
C583 C 0.34226 1.00788 0.95115 0.0
C584 C 0.32378 0.98549 0.92051 0.0
C585 C 0.29775 0.97907 0.96694 0.0
C586 C 0.40674 1.006 0.78183 0.0
C587 C 0.43034 1.01383 0.83799 0.0
C588 C 0.37822 1.00501 0.81732 0.0
C589 C 0.37236 1.0115 0.91048 0.0
C590 C 0.39605 0.01967 0.96611 0.0
C591 C 0.42447 0.02094 0.93041 0.0
H592 H 0.57769 0.29012 0.97684 0.0
H593 H 0.49742 0.29601 0.12961 0.0
H594 H 0.56632 0.33528 0.8967 0.0
H595 H 0.4853 0.3411 0.04736 0.0
H596 H 0.49647 0.43977 0.9925 0.0
H597 H 0.50085 0.39028 0.05059 0.0
H598 H 0.53919 0.36372 0.79237 0.0
H599 H 0.5355 0.41367 0.73515 0.0
C600 C 0.55699 0.30056 0.99067 0.0
C601 C 0.53839 0.28928 0.05929 0.0
C602 C 0.55043 0.32664 0.94469 0.0
C603 C 0.525 0.34244 0.96585 0.0
C604 C 0.50538 0.33004 0.03013 0.0
C605 C 0.512 0.30382 0.07624 0.0
C606 C 0.50571 0.4234 0.94763 0.0
C607 C 0.51576 0.43098 0.859 0.0
C608 C 0.50799 0.39475 0.98087 0.0
C609 C 0.52035 0.37256 0.92665 0.0
C610 C 0.52986 0.38006 0.83709 0.0
C611 C 0.52762 0.4088 0.80385 0.0
H612 H 0.24385 0.57915 0.9789 0.0
H613 H 0.23338 0.50345 0.15143 0.0
H614 H 0.19957 0.56695 0.8964 0.0
H615 H 0.18926 0.49036 0.06678 0.0
H616 H 0.09195 0.50166 0.9971 0.0
H617 H 0.14068 0.50642 0.05925 0.0
H618 H 0.17119 0.53888 0.7967 0.0
H619 H 0.12185 0.53492 0.73524 0.0
C620 C 0.23263 0.55917 0.99679 0.0
C621 C 0.24237 0.5422 0.07158 0.0
C622 C 0.20703 0.55214 0.9494 0.0
C623 C 0.19015 0.52782 0.9751 0.0
C624 C 0.2011 0.50964 0.04579 0.0
C625 C 0.22682 0.51676 0.09342 0.0
C626 C 0.10901 0.50969 0.95209 0.0
C627 C 0.10266 0.51803 0.86089 0.0
C628 C 0.13727 0.51218 0.9878 0.0
C629 C 0.16038 0.523 0.93362 0.0
C630 C 0.15413 0.5308 0.84155 0.0
C631 C 0.12574 0.5284 0.80585 0.0
H632 H 0.06559 0.78046 0.56891 0.0
H633 H 0.99796 0.79787 0.37183 0.0
H634 H 0.05417 0.82548 0.64879 0.0
H635 H 0.98558 0.8428 0.45338 0.0
H636 H 0.02408 0.90611 0.79841 0.0
H637 H 0.02493 0.85647 0.73859 0.0
H638 H 1.0064 0.88948 0.46625 0.0
H639 H 1.00468 0.93862 0.52631 0.0
C640 C 0.04733 0.79335 0.5451 0.0
C641 C 0.03252 0.78536 0.4644 0.0
C642 C 0.04079 0.8194 0.59082 0.0
C643 C 0.01919 0.83841 0.55731 0.0
C644 C 1.00281 0.82921 0.48054 0.0
C645 C 1.00944 0.80307 0.43461 0.0
C646 C 0.01987 0.90275 0.72595 0.0
C647 C 1.01438 0.92663 0.66756 0.0
C648 C 0.02051 0.87417 0.69128 0.0
C649 C 0.01575 0.86855 0.597 0.0
C650 C 1.00964 0.89249 0.53934 0.0
C651 C 1.00892 0.92095 0.57396 0.0
H652 H 0.7382 0.99628 0.37035 0.0
H653 H 0.75264 0.06598 0.56196 0.0
H654 H 0.69353 0.98304 0.45282 0.0
H655 H 0.70777 0.0537 0.64251 0.0
H656 H 0.62726 0.02251 0.79275 0.0
H657 H 0.67719 0.02433 0.73412 0.0
H658 H 0.6462 1.00255 0.46273 0.0
H659 H 0.59683 0.99988 0.52163 0.0
C660 C 0.73241 1.0081 0.43211 0.0
C661 C 0.74915 0.03207 0.45978 0.0
C662 C 0.7064 1.00094 0.47853 0.0
C663 C 0.69635 0.01764 0.55376 0.0
C664 C 0.7145 0.0401 0.58564 0.0
C665 C 0.74044 0.04716 0.53946 0.0
C666 C 0.63114 0.01779 0.72079 0.0
C667 C 0.60774 1.01112 0.66226 0.0
C668 C 0.65989 0.01898 0.68679 0.0
C669 C 0.66615 1.01361 0.59312 0.0
C670 C 0.64271 1.00631 0.53542 0.0
C671 C 0.6141 1.00504 0.56935 0.0
H672 H 0.45389 0.75264 0.56599 0.0
H673 H 0.52716 0.74095 0.38398 0.0
H674 H 0.46582 0.70752 0.64541 0.0
H675 H 0.54 0.69602 0.46559 0.0
H676 H 0.52628 0.59877 0.53217 0.0
H677 H 0.52212 0.64799 0.47248 0.0
H678 H 0.49475 0.67788 0.74068 0.0
H679 H 0.49826 0.62812 0.79992 0.0
C680 C 0.47326 0.7409 0.54511 0.0
C681 C 0.48956 0.75052 0.4685 0.0
C682 C 0.48016 0.71485 0.5908 0.0
C683 C 0.50367 0.69747 0.56157 0.0
C684 C 0.52131 0.70829 0.48918 0.0
C685 C 0.51433 0.73443 0.44325 0.0
C686 C 0.51951 0.61579 0.57892 0.0
C687 C 0.51238 0.60917 0.67105 0.0
C688 C 0.51737 0.6443 0.54461 0.0
C689 C 0.50814 0.66737 0.60121 0.0
C690 C 0.50156 0.66084 0.6941 0.0
C691 C 0.50362 0.6322 0.72843 0.0
H692 H 0.79452 0.53157 0.38041 0.0
H693 H 0.77999 0.46034 0.56842 0.0
H694 H 0.83965 0.5436 0.46112 0.0
H695 H 0.82524 0.47141 0.64716 0.0
H696 H 0.93629 0.52727 0.52813 0.0
H697 H 0.887 0.52436 0.46935 0.0
H698 H 0.85603 0.49951 0.73952 0.0
H699 H 0.90585 0.50164 0.79777 0.0
C700 C 0.80042 0.51914 0.44105 0.0
C701 C 0.78343 0.4952 0.46845 0.0
C702 C 0.82669 0.52559 0.48642 0.0
C703 C 0.83678 0.50817 0.56022 0.0
C704 C 0.8185 0.48558 0.59152 0.0
C705 C 0.79232 0.47924 0.54642 0.0
C706 C 0.91902 0.52129 0.57547 0.0
C707 C 0.92533 0.5145 0.66791 0.0
C708 C 0.89046 0.51989 0.54168 0.0
C709 C 0.86703 0.51179 0.59914 0.0
C710 C 0.8733 0.50548 0.69228 0.0
C711 C 0.90199 0.50678 0.72606 0.0
loop_
_geom_bond_atom_site_label_1
_geom_bond_atom_site_label_2
_geom_bond_distance
_geom_bond_site_symmetry_2
_ccdc_geom_bond_type
H0 C3 0.931 . S
H1 C6 0.928 . S
H2 C8 0.930 . S
C3 H0 0.931 . S
C3 C4 1.413 . S
C3 C5 1.360 . S
C4 C3 1.413 . S
C4 C8 1.429 . S
C5 C3 1.360 . S
C5 C6 1.372 . S
C6 H1 0.928 . S
C6 C5 1.372 . S
C6 C7 1.404 . S
C7 C6 1.404 . S
C7 C8 1.391 . S
C8 H2 0.930 . S
C8 C4 1.429 . S
C8 C7 1.391 . S
H9 C12 0.931 . S
H10 C15 0.928 . S
H11 C17 0.930 . S
C12 H9 0.931 . S
C12 C13 1.413 . S
C12 C14 1.360 . S
C13 C12 1.413 . S
C13 C17 1.429 1_655 S
C14 C12 1.360 . S
C14 C15 1.372 . S
C15 H10 0.928 . S
C15 C14 1.372 . S
C15 C16 1.404 . S
C16 C15 1.404 . S
C16 C17 1.390 1_655 S
C17 H11 0.930 . S
C17 C13 1.429 1_455 S
C17 C16 1.390 1_455 S
H18 C21 0.931 . S
H19 C24 0.928 . S
H20 C26 0.930 . S
C21 H18 0.931 . S
C21 C22 1.413 . S
C21 C23 1.360 . S
C22 C21 1.413 . S
C22 C26 1.429 1_565 S
C23 C21 1.360 . S
C23 C24 1.372 . S
C24 H19 0.928 . S
C24 C23 1.372 . S
C24 C25 1.404 . S
C25 C24 1.404 . S
C25 C26 1.390 1_565 S
C26 H20 0.930 . S
C26 C22 1.429 1_545 S
C26 C25 1.390 1_545 S
H27 C30 0.931 . S
H28 C33 0.928 . S
H29 C35 0.930 . S
C30 H27 0.931 . S
C30 C31 1.413 . S
C30 C32 1.360 . S
C31 C30 1.413 . S
C31 C35 1.429 . S
C32 C30 1.360 . S
C32 C33 1.372 . S
C33 H28 0.928 . S
C33 C32 1.372 . S
C33 C34 1.404 . S
C34 C33 1.404 . S
C34 C35 1.391 . S
C35 H29 0.930 . S
C35 C31 1.429 . S
C35 C34 1.391 . S
H36 C39 0.931 . S
H37 C42 0.928 . S
H38 C44 0.930 . S
C39 H36 0.931 . S
C39 C40 1.413 1_554 S
C39 C41 1.360 . S
C40 C39 1.413 1_556 S
C40 C44 1.429 . S
C41 C39 1.360 . S
C41 C42 1.372 . S
C42 H37 0.928 . S
C42 C41 1.372 . S
C42 C43 1.404 . S
C43 C42 1.404 . S
C43 C44 1.391 1_554 S
C44 H38 0.930 . S
C44 C40 1.429 . S
C44 C43 1.391 1_556 S
H45 C48 0.931 . S
H46 C51 0.928 . S
H47 C53 0.930 . S
C48 H45 0.931 . S
C48 C49 1.413 1_554 S
C48 C50 1.360 . S
C49 C48 1.413 1_556 S
C49 C53 1.429 1_655 S
C50 C48 1.360 . S
C50 C51 1.372 . S
C51 H46 0.928 . S
C51 C50 1.372 . S
C51 C52 1.404 . S
C52 C51 1.404 . S
C52 C53 1.391 1_654 S
C53 H47 0.930 . S
C53 C49 1.429 1_455 S
C53 C52 1.391 1_456 S
H54 C57 0.931 . S
H55 C60 0.928 . S
H56 C62 0.930 . S
C57 H54 0.931 . S
C57 C58 1.413 1_554 S
C57 C59 1.360 . S
C58 C57 1.413 1_556 S
C58 C62 1.429 1_565 S
C59 C57 1.360 . S
C59 C60 1.372 . S
C60 H55 0.928 . S
C60 C59 1.372 . S
C60 C61 1.404 . S
C61 C60 1.404 . S
C61 C62 1.391 1_564 S
C62 H56 0.930 . S
C62 C58 1.429 1_545 S
C62 C61 1.391 1_546 S
H63 C66 0.931 . S
H64 C69 0.928 . S
H65 C71 0.930 . S
C66 H63 0.931 . S
C66 C67 1.413 . S
C66 C68 1.360 1_554 S
C67 C66 1.413 . S
C67 C71 1.429 . S
C68 C66 1.360 1_556 S
C68 C69 1.372 . S
C69 H64 0.928 . S
C69 C68 1.372 . S
C69 C70 1.404 1_556 S
C70 C69 1.404 1_554 S
C70 C71 1.391 . S
C71 H65 0.930 . S
C71 C67 1.429 . S
C71 C70 1.391 . S
Tb72 C74 2.809 . S
Tb72 O92 2.484 . S
Tb72 O93 2.440 . S
Tb72 O94 2.658 1_565 S
Tb72 O95 2.409 . S
Tb72 O96 2.378 . S
Tb72 O100 2.325 1_455 S
Tb72 O103 2.341 1_565 S
Tb73 C83 2.809 . S
Tb73 O94 2.325 1_655 S
Tb73 O97 2.341 1_545 S
Tb73 O98 2.484 . S
Tb73 O99 2.440 . S
Tb73 O100 2.658 1_545 S
Tb73 O101 2.409 . S
Tb73 O102 2.378 . S
C74 Tb72 2.809 . S
C74 C75 1.514 . S
C74 O92 1.248 . S
C74 O93 1.266 . S
C75 C74 1.514 . S
C75 C76 1.359 1_556 S
C75 C80 1.348 . S
C76 C75 1.359 1_554 S
C76 C77 1.380 . S
C76 H104 0.929 1_455 S
C77 C76 1.380 . S
C77 C78 1.347 . S
C77 H105 0.962 . S
C78 C77 1.347 . S
C78 C79 1.371 . S
C79 C78 1.371 . S
C79 C80 1.406 1_554 S
C79 H106 0.930 . S
C80 C75 1.348 . S
C80 C79 1.406 1_556 S
C80 H107 0.930 . S
C81 O94 1.281 1_565 S
C81 O95 1.254 . S
C82 O96 1.236 1_655 S
C82 O97 1.266 . S
C83 Tb73 2.809 . S
C83 C84 1.514 . S
C83 O98 1.248 . S
C83 O99 1.266 . S
C84 C83 1.514 . S
C84 C85 1.359 . S
C84 C89 1.348 . S
C85 C84 1.359 . S
C85 C86 1.380 . S
C85 H108 0.929 1_655 S
C86 C85 1.380 . S
C86 C87 1.347 . S
C86 H109 0.955 . S
C87 C86 1.347 . S
C87 C88 1.369 . S
C88 C87 1.369 . S
C88 C89 1.408 . S
C88 H110 0.930 . S
C89 C84 1.348 . S
C89 C88 1.408 . S
C89 H111 0.930 . S
C90 O100 1.281 1_545 S
C90 O101 1.254 . S
C91 O102 1.236 1_455 S
C91 O103 1.266 . S
O92 Tb72 2.484 . S
O92 C74 1.248 . S
O93 Tb72 2.440 . S
O93 C74 1.266 . S
O94 Tb72 2.658 1_545 S
O94 Tb73 2.325 1_455 S
O94 C81 1.281 1_545 S
O95 Tb72 2.409 . S
O95 C81 1.254 . S
O96 Tb72 2.378 . S
O96 C82 1.236 1_455 S
O97 Tb73 2.341 1_565 S
O97 C82 1.266 . S
O98 Tb73 2.484 . S
O98 C83 1.248 . S
O99 Tb73 2.440 . S
O99 C83 1.266 . S
O100 Tb72 2.325 1_655 S
O100 Tb73 2.658 1_565 S
O100 C90 1.281 1_565 S
O101 Tb73 2.409 . S
O101 C90 1.254 . S
O102 Tb73 2.378 . S
O102 C91 1.236 1_655 S
O103 Tb72 2.341 1_545 S
O103 C91 1.266 . S
H104 C76 0.929 1_655 S
H105 C77 0.962 . S
H106 C79 0.930 . S
H107 C80 0.930 . S
H108 C85 0.929 1_455 S
H109 C86 0.955 . S
H110 C88 0.930 . S
H111 C89 0.930 . S
Tb112 C114 2.809 . S
Tb112 O132 2.484 . S
Tb112 O133 2.440 . S
Tb112 O134 2.658 . S
Tb112 O135 2.409 . S
Tb112 O136 2.378 . S
Tb112 O140 2.325 1_545 S
Tb112 O143 2.341 . S
Tb113 C123 2.809 . S
Tb113 O134 2.325 1_565 S
Tb113 O137 2.341 . S
Tb113 O138 2.484 . S
Tb113 O139 2.440 . S
Tb113 O140 2.658 . S
Tb113 O141 2.409 . S
Tb113 O142 2.378 . S
C114 Tb112 2.809 . S
C114 C115 1.514 . S
C114 O132 1.248 . S
C114 O133 1.266 . S
C115 C114 1.514 . S
C115 C116 1.359 1_556 S
C115 C120 1.348 . S
C116 C115 1.359 1_554 S
C116 C117 1.380 . S
C116 H144 0.929 1_545 S
C117 C116 1.380 . S
C117 C118 1.347 . S
C117 H145 0.931 1_545 S
C118 C117 1.347 . S
C118 C119 1.369 . S
C119 C118 1.369 . S
C119 C120 1.408 1_554 S
C119 H146 0.930 . S
C120 C115 1.348 . S
C120 C119 1.408 1_556 S
C120 H147 0.930 . S
C121 O134 1.281 . S
C121 O135 1.254 . S
C122 O136 1.236 1_565 S
C122 O137 1.266 . S
C123 Tb113 2.809 . S
C123 C124 1.514 . S
C123 O138 1.248 . S
C123 O139 1.266 . S
C124 C123 1.514 . S
C124 C125 1.359 . S
C124 C129 1.348 . S
C125 C124 1.359 . S
C125 C126 1.380 . S
C125 H148 0.929 1_565 S
C126 C125 1.380 . S
C126 C127 1.347 . S
C126 H149 0.931 1_565 S
C127 C126 1.347 . S
C127 C128 1.369 . S
C128 C127 1.369 . S
C128 C129 1.408 . S
C128 H150 0.930 . S
C129 C124 1.348 . S
C129 C128 1.408 . S
C129 H151 0.930 . S
C130 O140 1.281 . S
C130 O141 1.254 . S
C131 O142 1.236 1_545 S
C131 O143 1.266 . S
O132 Tb112 2.484 . S
O132 C114 1.248 . S
O133 Tb112 2.440 . S
O133 C114 1.266 . S
O134 Tb112 2.658 . S
O134 Tb113 2.325 1_545 S
O134 C121 1.281 . S
O135 Tb112 2.409 . S
O135 C121 1.254 . S
O136 Tb112 2.378 . S
O136 C122 1.236 1_545 S
O137 Tb113 2.341 . S
O137 C122 1.266 . S
O138 Tb113 2.484 . S
O138 C123 1.248 . S
O139 Tb113 2.440 . S
O139 C123 1.266 . S
O140 Tb112 2.325 1_565 S
O140 Tb113 2.658 . S
O140 C130 1.281 . S
O141 Tb113 2.409 . S
O141 C130 1.254 . S
O142 Tb113 2.378 . S
O142 C131 1.236 1_565 S
O143 Tb112 2.341 . S
O143 C131 1.266 . S
H144 C116 0.929 1_565 S
H145 C117 0.931 1_565 S
H146 C119 0.930 . S
H147 C120 0.930 . S
H148 C125 0.929 1_545 S
H149 C126 0.931 1_545 S
H150 C128 0.930 . S
H151 C129 0.930 . S
Tb152 C154 2.809 . S
Tb152 O172 2.484 . S
Tb152 O173 2.440 . S
Tb152 O174 2.658 . S
Tb152 O175 2.409 . S
Tb152 O176 2.378 . S
Tb152 O180 2.325 . S
Tb152 O183 2.341 . S
Tb153 C163 2.809 . S
Tb153 O174 2.325 . S
Tb153 O177 2.341 . S
Tb153 O178 2.484 . S
Tb153 O179 2.440 . S
Tb153 O180 2.658 . S
Tb153 O181 2.409 . S
Tb153 O182 2.378 . S
C154 Tb152 2.809 . S
C154 C155 1.514 . S
C154 O172 1.248 . S
C154 O173 1.266 . S
C155 C154 1.514 . S
C155 C156 1.359 1_556 S
C155 C160 1.348 . S
C156 C155 1.359 1_554 S
C156 C157 1.380 . S
C156 H184 0.929 . S
C157 C156 1.380 . S
C157 C158 1.347 . S
C157 H185 0.931 . S
C158 C157 1.347 . S
C158 C159 1.369 . S
C159 C158 1.369 . S
C159 C160 1.408 1_554 S
C159 H186 0.930 . S
C160 C155 1.348 . S
C160 C159 1.408 1_556 S
C160 H187 0.930 . S
C161 O174 1.281 . S
C161 O175 1.254 . S
C162 O176 1.236 . S
C162 O177 1.266 . S
C163 Tb153 2.809 . S
C163 C164 1.514 . S
C163 O178 1.248 . S
C163 O179 1.266 . S
C164 C163 1.514 . S
C164 C165 1.359 . S
C164 C169 1.348 . S
C165 C164 1.359 . S
C165 C166 1.380 . S
C165 H188 0.929 . S
C166 C165 1.380 . S
C166 C167 1.347 . S
C166 H189 0.931 . S
C167 C166 1.347 . S
C167 C168 1.369 . S
C168 C167 1.369 . S
C168 C169 1.408 . S
C168 H190 0.930 . S
C169 C164 1.348 . S
C169 C168 1.408 . S
C169 H191 0.930 . S
C170 O180 1.281 . S
C170 O181 1.254 . S
C171 O182 1.236 . S
C171 O183 1.266 . S
O172 Tb152 2.484 . S
O172 C154 1.248 . S
O173 Tb152 2.440 . S
O173 C154 1.266 . S
O174 Tb152 2.658 . S
O174 Tb153 2.325 . S
O174 C161 1.281 . S
O175 Tb152 2.409 . S
O175 C161 1.254 . S
O176 Tb152 2.378 . S
O176 C162 1.236 . S
O177 Tb153 2.341 . S
O177 C162 1.266 . S
O178 Tb153 2.484 . S
O178 C163 1.248 . S
O179 Tb153 2.440 . S
O179 C163 1.266 . S
O180 Tb152 2.325 . S
O180 Tb153 2.658 . S
O180 C170 1.281 . S
O181 Tb153 2.409 . S
O181 C170 1.254 . S
O182 Tb153 2.378 . S
O182 C171 1.236 . S
O183 Tb152 2.341 . S
O183 C171 1.266 . S
H184 C156 0.929 . S
H185 C157 0.931 . S
H186 C159 0.930 . S
H187 C160 0.930 . S
H188 C165 0.929 . S
H189 C166 0.931 . S
H190 C168 0.930 . S
H191 C169 0.930 . S
Tb192 C194 2.809 . S
Tb192 O212 2.484 . S
Tb192 O213 2.440 . S
Tb192 O214 2.658 1_655 S
Tb192 O215 2.409 . S
Tb192 O216 2.378 . S
Tb192 O220 2.325 . S
Tb192 O223 2.341 1_655 S
Tb193 C203 2.809 . S
Tb193 O214 2.325 . S
Tb193 O217 2.341 1_455 S
Tb193 O218 2.484 . S
Tb193 O219 2.440 . S
Tb193 O220 2.658 1_455 S
Tb193 O221 2.409 . S
Tb193 O222 2.378 . S
C194 Tb192 2.809 . S
C194 C195 1.514 . S
C194 O212 1.248 . S
C194 O213 1.266 . S
C195 C194 1.514 . S
C195 C196 1.359 1_556 S
C195 C200 1.348 . S
C196 C195 1.359 1_554 S
C196 C197 1.380 . S
C196 H224 0.929 . S
C197 C196 1.380 . S
C197 C198 1.347 . S
C197 H225 0.931 . S
C198 C197 1.347 . S
C198 C199 1.369 . S
C199 C198 1.369 . S
C199 C200 1.408 1_554 S
C199 H226 0.930 . S
C200 C195 1.348 . S
C200 C199 1.408 1_556 S
C200 H227 0.930 . S
C201 O214 1.280 1_655 S
C201 O215 1.255 . S
C202 O216 1.236 . S
C202 O217 1.266 . S
C203 Tb193 2.809 . S
C203 C204 1.514 . S
C203 O218 1.248 . S
C203 O219 1.266 . S
C204 C203 1.514 . S
C204 C205 1.359 . S
C204 C209 1.348 . S
C205 C204 1.359 . S
C205 C206 1.380 . S
C205 H228 0.929 . S
C206 C205 1.380 . S
C206 C207 1.347 . S
C206 H229 0.931 . S
C207 C206 1.347 . S
C207 C208 1.369 . S
C208 C207 1.369 . S
C208 C209 1.408 . S
C208 H230 0.930 . S
C209 C204 1.348 . S
C209 C208 1.408 . S
C209 H231 0.930 . S
C210 O220 1.277 1_455 S
C210 O221 1.259 . S
C211 O222 1.236 . S
C211 O223 1.266 . S
O212 Tb192 2.484 . S
O212 C194 1.248 . S
O213 Tb192 2.440 . S
O213 C194 1.266 . S
O214 Tb192 2.658 1_455 S
O214 Tb193 2.325 . S
O214 C201 1.280 1_455 S
O215 Tb192 2.409 . S
O215 C201 1.255 . S
O216 Tb192 2.378 . S
O216 C202 1.236 . S
O217 Tb193 2.341 1_655 S
O217 C202 1.266 . S
O218 Tb193 2.484 . S
O218 C203 1.248 . S
O219 Tb193 2.440 . S
O219 C203 1.266 . S
O220 Tb192 2.325 . S
O220 Tb193 2.658 1_655 S
O220 C210 1.277 1_655 S
O221 Tb193 2.409 . S
O221 C210 1.259 . S
O222 Tb193 2.378 . S
O222 C211 1.236 . S
O223 Tb192 2.341 1_455 S
O223 C211 1.266 . S
H224 C196 0.929 . S
H225 C197 0.931 . S
H226 C199 0.930 . S
H227 C200 0.930 . S
H228 C205 0.929 . S
H229 C206 0.931 . S
H230 C208 0.930 . S
H231 C209 0.930 . S
H232 C240 0.950 . S
H233 C245 0.950 . S
H234 C242 0.950 . S
H235 C244 0.950 . S
H236 C246 0.950 . S
H237 C248 0.950 . S
H238 C250 0.950 . S
H239 C251 0.950 . S
C240 H232 0.950 . S
C240 C241 1.371 1_545 S
C240 C242 1.391 . S
C241 C240 1.371 1_565 S
C241 C245 1.407 . S
C242 H234 0.950 . S
C242 C240 1.391 . S
C242 C243 1.394 1_545 S
C243 C242 1.394 1_565 S
C243 C244 1.405 . S
C243 C249 1.490 1_565 S
C244 H235 0.950 . S
C244 C243 1.405 . S
C244 C245 1.391 . S
C245 H233 0.950 . S
C245 C241 1.407 . S
C245 C244 1.391 . S
C246 H236 0.950 . S
C246 C247 1.373 1_565 S
C246 C248 1.391 . S
C247 C246 1.373 1_545 S
C247 C251 1.406 . S
C248 H237 0.950 . S
C248 C246 1.391 . S
C248 C249 1.395 1_565 S
C249 C243 1.490 1_545 S
C249 C248 1.395 1_545 S
C249 C250 1.403 . S
C250 H238 0.950 . S
C250 C249 1.403 . S
C250 C251 1.391 . S
C251 H239 0.950 . S
C251 C247 1.406 . S
C251 C250 1.391 . S
H252 C260 0.950 . S
H253 C265 0.950 . S
H254 C262 0.950 . S
H255 C264 0.950 . S
H256 C266 0.950 . S
H257 C268 0.950 . S
H258 C270 0.950 . S
H259 C271 0.950 . S
C260 H252 0.950 . S
C260 C261 1.386 . S
C260 C262 1.391 . S
C261 C260 1.386 . S
C261 C265 1.393 . S
C262 H254 0.950 . S
C262 C260 1.391 . S
C262 C263 1.400 . S
C263 C262 1.400 . S
C263 C264 1.398 . S
C263 C269 1.491 . S
C264 H255 0.950 . S
C264 C263 1.398 . S
C264 C265 1.391 . S
C265 H253 0.950 . S
C265 C261 1.393 . S
C265 C264 1.391 . S
C266 H256 0.950 . S
C266 C267 1.386 . S
C266 C268 1.391 . S
C267 C266 1.386 . S
C267 C271 1.393 . S
C268 H257 0.950 . S
C268 C266 1.391 . S
C268 C269 1.400 . S
C269 C263 1.491 . S
C269 C268 1.400 . S
C269 C270 1.398 . S
C270 H258 0.950 . S
C270 C269 1.398 . S
C270 C271 1.391 . S
C271 H259 0.950 . S
C271 C267 1.393 . S
C271 C270 1.391 . S
H272 C280 0.950 . S
H273 C285 0.950 . S
H274 C282 0.950 . S
H275 C284 0.950 . S
H276 C286 0.950 . S
H277 C288 0.950 . S
H278 C290 0.950 . S
H279 C291 0.950 . S
C280 H272 0.950 . S
C280 C281 1.386 . S
C280 C282 1.391 . S
C281 C280 1.386 . S
C281 C285 1.393 . S
C282 H274 0.950 . S
C282 C280 1.391 . S
C282 C283 1.400 . S
C283 C282 1.400 . S
C283 C284 1.398 . S
C283 C289 1.491 . S
C284 H275 0.950 . S
C284 C283 1.398 . S
C284 C285 1.391 . S
C285 H273 0.950 . S
C285 C281 1.393 . S
C285 C284 1.391 . S
C286 H276 0.950 . S
C286 C287 1.386 . S
C286 C288 1.391 . S
C287 C286 1.386 . S
C287 C291 1.393 . S
C288 H277 0.950 . S
C288 C286 1.391 . S
C288 C289 1.400 . S
C289 C283 1.491 . S
C289 C288 1.400 . S
C289 C290 1.398 . S
C290 H278 0.950 . S
C290 C289 1.398 . S
C290 C291 1.391 . S
C291 H279 0.950 . S
C291 C287 1.393 . S
C291 C290 1.391 . S
H292 C300 0.950 . S
H293 C305 0.950 . S
H294 C302 0.950 . S
H295 C304 0.950 . S
H296 C306 0.950 . S
H297 C308 0.950 . S
H298 C310 0.950 . S
H299 C311 0.950 . S
C300 H292 0.950 . S
C300 C301 1.386 . S
C300 C302 1.391 . S
C301 C300 1.386 . S
C301 C305 1.393 1_455 S
C302 H294 0.950 . S
C302 C300 1.391 . S
C302 C303 1.400 . S
C303 C302 1.400 . S
C303 C304 1.398 1_455 S
C303 C309 1.491 . S
C304 H295 0.950 . S
C304 C303 1.398 1_655 S
C304 C305 1.391 . S
C305 H293 0.950 . S
C305 C301 1.393 1_655 S
C305 C304 1.391 . S
C306 H296 0.950 . S
C306 C307 1.376 1_655 S
C306 C308 1.391 . S
C307 C306 1.376 1_455 S
C307 C311 1.402 . S
C308 H297 0.950 . S
C308 C306 1.391 . S
C308 C309 1.392 1_655 S
C309 C303 1.491 . S
C309 C308 1.392 1_455 S
C309 C310 1.406 . S
C310 H298 0.950 . S
C310 C309 1.406 . S
C310 C311 1.391 . S
C311 H299 0.950 . S
C311 C307 1.402 . S
C311 C310 1.391 . S
H312 C320 0.950 . S
H313 C325 0.950 . S
H314 C322 0.950 . S
H315 C324 0.950 . S
H316 C326 0.950 . S
H317 C328 0.950 . S
H318 C330 0.950 . S
H319 C331 0.950 . S
C320 H312 0.950 . S
C320 C321 1.405 . S
C320 C322 1.391 . S
C321 C320 1.405 . S
C321 C325 1.374 1_545 S
C322 H314 0.950 . S
C322 C320 1.391 . S
C322 C323 1.413 . S
C323 C322 1.413 . S
C323 C324 1.387 1_545 S
C323 C329 1.490 1_545 S
C324 H315 0.950 . S
C324 C323 1.387 1_565 S
C324 C325 1.391 . S
C325 H313 0.950 . S
C325 C321 1.374 1_565 S
C325 C324 1.391 . S
C326 H316 0.950 . S
C326 C327 1.393 . S
C326 C328 1.391 1_556 S
C327 C326 1.393 . S
C327 C331 1.385 1_565 S
C328 H317 0.950 . S
C328 C326 1.391 1_554 S
C328 C329 1.401 . S
C329 C323 1.490 1_565 S
C329 C328 1.401 . S
C329 C330 1.397 1_565 S
C330 H318 0.950 . S
C330 C329 1.397 1_545 S
C330 C331 1.391 1_554 S
C331 H319 0.950 . S
C331 C327 1.385 1_545 S
C331 C330 1.391 1_556 S
H332 C340 0.950 . S
H333 C345 0.950 . S
H334 C342 0.950 . S
H335 C344 0.950 . S
H336 C346 0.950 . S
H337 C348 0.950 . S
H338 C350 0.950 . S
H339 C351 0.950 1_556 S
C340 H332 0.950 . S
C340 C341 1.386 . S
C340 C342 1.391 . S
C341 C340 1.386 . S
C341 C345 1.393 . S
C342 H334 0.950 . S
C342 C340 1.391 . S
C342 C343 1.400 . S
C343 C342 1.400 . S
C343 C344 1.398 . S
C343 C349 1.491 . S
C344 H335 0.950 . S
C344 C343 1.398 . S
C344 C345 1.391 . S
C345 H333 0.950 . S
C345 C341 1.393 . S
C345 C344 1.391 . S
C346 H336 0.950 . S
C346 C347 1.386 . S
C346 C348 1.391 1_556 S
C347 C346 1.386 . S
C347 C351 1.393 1_556 S
C348 H337 0.950 . S
C348 C346 1.391 1_554 S
C348 C349 1.400 . S
C349 C343 1.491 . S
C349 C348 1.400 . S
C349 C350 1.398 . S
C350 H338 0.950 . S
C350 C349 1.398 . S
C350 C351 1.391 . S
C351 H339 0.950 1_554 S
C351 C347 1.393 1_554 S
C351 C350 1.391 . S
H352 C360 0.950 . S
H353 C365 0.950 . S
H354 C362 0.950 . S
H355 C364 0.950 . S
H356 C366 0.950 . S
H357 C368 0.950 . S
H358 C370 0.950 . S
H359 C371 0.949 1_556 S
C360 H352 0.950 . S
C360 C361 1.386 . S
C360 C362 1.391 . S
C361 C360 1.386 . S
C361 C365 1.393 . S
C362 H354 0.950 . S
C362 C360 1.391 . S
C362 C363 1.400 . S
C363 C362 1.400 . S
C363 C364 1.398 . S
C363 C369 1.491 . S
C364 H355 0.950 . S
C364 C363 1.398 . S
C364 C365 1.391 . S
C365 H353 0.950 . S
C365 C361 1.393 . S
C365 C364 1.391 . S
C366 H356 0.950 . S
C366 C367 1.386 . S
C366 C368 1.391 1_556 S
C367 C366 1.386 . S
C367 C371 1.385 1_556 S
C368 H357 0.950 . S
C368 C366 1.391 1_554 S
C368 C369 1.400 . S
C369 C363 1.491 . S
C369 C368 1.400 . S
C369 C370 1.398 . S
C370 H358 0.950 . S
C370 C369 1.398 . S
C370 C371 1.399 . S
C371 H359 0.949 1_554 S
C371 C367 1.385 1_554 S
C371 C370 1.399 . S
H372 C380 0.950 . S
H373 C385 0.950 . S
H374 C382 0.950 . S
H375 C384 0.950 . S
H376 C386 0.950 . S
H377 C388 0.950 . S
H378 C390 0.950 . S
H379 C391 0.951 . S
C380 H372 0.950 . S
C380 C381 1.386 1_455 S
C380 C382 1.391 . S
C381 C380 1.386 1_655 S
C381 C385 1.393 . S
C382 H374 0.950 . S
C382 C380 1.391 . S
C382 C383 1.400 1_455 S
C383 C382 1.400 1_655 S
C383 C384 1.398 . S
C383 C389 1.491 . S
C384 H375 0.950 . S
C384 C383 1.398 . S
C384 C385 1.391 . S
C385 H373 0.950 . S
C385 C381 1.393 . S
C385 C384 1.391 . S
C386 H376 0.950 . S
C386 C387 1.399 . S
C386 C388 1.391 1_556 S
C387 C386 1.399 . S
C387 C391 1.388 1_655 S
C388 H377 0.950 . S
C388 C386 1.391 1_554 S
C388 C389 1.412 . S
C389 C383 1.491 . S
C389 C388 1.412 . S
C389 C390 1.386 1_655 S
C390 H378 0.950 . S
C390 C389 1.386 1_455 S
C390 C391 1.381 1_554 S
C391 H379 0.951 . S
C391 C387 1.388 1_455 S
C391 C390 1.381 1_556 S
H392 C400 0.950 . S
H393 C405 0.950 . S
H394 C402 0.950 . S
H395 C404 0.950 . S
H396 C406 0.950 . S
H397 C408 0.950 1_455 S
H398 C410 0.950 . S
H399 C411 0.950 . S
C400 H392 0.950 . S
C400 C401 1.386 1_655 S
C400 C402 1.391 . S
C401 C400 1.386 1_455 S
C401 C405 1.393 . S
C402 H394 0.950 . S
C402 C400 1.391 . S
C402 C403 1.400 . S
C403 C402 1.400 . S
C403 C404 1.398 1_655 S
C403 C409 1.491 . S
C404 H395 0.950 . S
C404 C403 1.398 1_455 S
C404 C405 1.391 . S
C405 H393 0.950 . S
C405 C401 1.393 . S
C405 C404 1.391 . S
C406 H396 0.950 . S
C406 C407 1.386 . S
C406 C408 1.391 . S
C407 C406 1.386 . S
C407 C411 1.393 . S
C408 H397 0.950 1_655 S
C408 C406 1.391 . S
C408 C409 1.400 . S
C409 C403 1.491 . S
C409 C408 1.400 . S
C409 C410 1.398 . S
C410 H398 0.950 . S
C410 C409 1.398 . S
C410 C411 1.391 . S
C411 H399 0.950 . S
C411 C407 1.393 . S
C411 C410 1.391 . S
H412 C420 0.950 . S
H413 C425 0.950 . S
H414 C422 0.950 . S
H415 C424 0.949 . S
H416 C426 0.950 . S
H417 C428 0.950 . S
H418 C430 0.950 . S
H419 C431 0.950 . S
C420 H412 0.950 . S
C420 C421 1.386 1_565 S
C420 C422 1.391 . S
C421 C420 1.386 1_545 S
C421 C425 1.393 . S
C422 H414 0.950 . S
C422 C420 1.391 . S
C422 C423 1.400 . S
C423 C422 1.400 . S
C423 C424 1.400 1_565 S
C423 C429 1.491 . S
C424 H415 0.949 . S
C424 C423 1.400 1_545 S
C424 C425 1.390 . S
C425 H413 0.950 . S
C425 C421 1.393 . S
C425 C424 1.390 . S
C426 H416 0.950 . S
C426 C427 1.386 . S
C426 C428 1.391 . S
C427 C426 1.386 . S
C427 C431 1.393 . S
C428 H417 0.950 . S
C428 C426 1.391 . S
C428 C429 1.400 . S
C429 C423 1.491 . S
C429 C428 1.400 . S
C429 C430 1.398 . S
C430 H418 0.950 . S
C430 C429 1.398 . S
C430 C431 1.391 . S
C431 H419 0.950 . S
C431 C427 1.393 . S
C431 C430 1.391 . S
H432 C440 0.950 . S
H433 C445 0.950 . S
H434 C442 0.950 . S
H435 C444 0.950 . S
H436 C446 0.950 . S
H437 C448 0.950 . S
H438 C450 0.950 . S
H439 C451 0.950 . S
C440 H432 0.950 . S
C440 C441 1.386 . S
C440 C442 1.391 . S
C441 C440 1.386 . S
C441 C445 1.393 . S
C442 H434 0.950 . S
C442 C440 1.391 . S
C442 C443 1.400 . S
C443 C442 1.400 . S
C443 C444 1.398 . S
C443 C449 1.491 . S
C444 H435 0.950 . S
C444 C443 1.398 . S
C444 C445 1.391 . S
C445 H433 0.950 . S
C445 C441 1.393 . S
C445 C444 1.391 . S
C446 H436 0.950 . S
C446 C447 1.386 . S
C446 C448 1.391 . S
C447 C446 1.386 . S
C447 C451 1.393 . S
C448 H437 0.950 . S
C448 C446 1.391 . S
C448 C449 1.400 . S
C449 C443 1.491 . S
C449 C448 1.400 . S
C449 C450 1.398 . S
C450 H438 0.950 . S
C450 C449 1.398 . S
C450 C451 1.391 . S
C451 H439 0.950 . S
C451 C447 1.393 . S
C451 C450 1.391 . S
H452 C460 0.950 . S
H453 C465 0.950 . S
H454 C462 0.950 . S
H455 C464 0.950 . S
H456 C466 0.950 . S
H457 C468 0.950 . S
H458 C470 0.950 . S
H459 C471 0.950 . S
C460 H452 0.950 . S
C460 C461 1.386 . S
C460 C462 1.391 . S
C461 C460 1.386 . S
C461 C465 1.393 . S
C462 H454 0.950 . S
C462 C460 1.391 . S
C462 C463 1.400 . S
C463 C462 1.400 . S
C463 C464 1.398 . S
C463 C469 1.491 . S
C464 H455 0.950 . S
C464 C463 1.398 . S
C464 C465 1.391 . S
C465 H453 0.950 . S
C465 C461 1.393 . S
C465 C464 1.391 . S
C466 H456 0.950 . S
C466 C467 1.386 . S
C466 C468 1.391 . S
C467 C466 1.386 . S
C467 C471 1.393 . S
C468 H457 0.950 . S
C468 C466 1.391 . S
C468 C469 1.400 . S
C469 C463 1.491 . S
C469 C468 1.400 . S
C469 C470 1.398 . S
C470 H458 0.950 . S
C470 C469 1.398 . S
C470 C471 1.391 . S
C471 H459 0.950 . S
C471 C467 1.393 . S
C471 C470 1.391 . S
H472 C480 0.950 . S
H473 C485 0.950 . S
H474 C482 0.950 . S
H475 C484 0.950 . S
H476 C486 0.950 1_556 S
H477 C488 0.950 1_655 S
H478 C490 0.950 . S
H479 C491 0.950 . S
C480 H472 0.950 . S
C480 C481 1.386 1_455 S
C480 C482 1.391 . S
C481 C480 1.386 1_655 S
C481 C485 1.393 . S
C482 H474 0.950 . S
C482 C480 1.391 . S
C482 C483 1.400 . S
C483 C482 1.400 . S
C483 C484 1.398 1_455 S
C483 C489 1.491 . S
C484 H475 0.950 . S
C484 C483 1.398 1_655 S
C484 C485 1.391 . S
C485 H473 0.950 . S
C485 C481 1.393 . S
C485 C484 1.391 . S
C486 H476 0.950 1_554 S
C486 C487 1.386 . S
C486 C488 1.391 . S
C487 C486 1.386 . S
C487 C491 1.393 . S
C488 H477 0.950 1_455 S
C488 C486 1.391 . S
C488 C489 1.400 . S
C489 C483 1.491 . S
C489 C488 1.400 . S
C489 C490 1.398 . S
C490 H478 0.950 . S
C490 C489 1.398 . S
C490 C491 1.391 . S
C491 H479 0.950 . S
C491 C487 1.393 . S
C491 C490 1.391 . S
H492 C500 0.950 . S
H493 C505 0.950 . S
H494 C502 0.950 . S
H495 C504 0.950 . S
H496 C506 0.950 . S
H497 C508 0.950 . S
H498 C510 0.950 1_565 S
H499 C511 0.950 . S
C500 H492 0.950 . S
C500 C501 1.386 . S
C500 C502 1.391 . S
C501 C500 1.386 . S
C501 C505 1.393 1_565 S
C502 H494 0.950 . S
C502 C500 1.391 . S
C502 C503 1.400 1_565 S
C503 C502 1.400 1_545 S
C503 C504 1.398 . S
C503 C509 1.491 . S
C504 H495 0.950 . S
C504 C503 1.398 . S
C504 C505 1.391 . S
C505 H493 0.950 . S
C505 C501 1.393 1_545 S
C505 C504 1.391 . S
C506 H496 0.950 . S
C506 C507 1.386 . S
C506 C508 1.391 . S
C507 C506 1.386 . S
C507 C511 1.393 . S
C508 H497 0.950 . S
C508 C506 1.391 . S
C508 C509 1.400 . S
C509 C503 1.491 . S
C509 C508 1.400 . S
C509 C510 1.398 . S
C510 H498 0.950 1_545 S
C510 C509 1.398 . S
C510 C511 1.391 . S
C511 H499 0.950 . S
C511 C507 1.393 . S
C511 C510 1.391 . S
H512 C520 0.950 . S
H513 C525 0.950 . S
H514 C522 0.950 . S
H515 C524 0.950 . S
H516 C526 0.950 . S
H517 C528 0.950 . S
H518 C530 0.950 . S
H519 C531 0.950 1_556 S
C520 H512 0.950 . S
C520 C521 1.386 . S
C520 C522 1.391 . S
C521 C520 1.386 . S
C521 C525 1.393 . S
C522 H514 0.950 . S
C522 C520 1.391 . S
C522 C523 1.400 . S
C523 C522 1.400 . S
C523 C524 1.398 . S
C523 C529 1.491 . S
C524 H515 0.950 . S
C524 C523 1.398 . S
C524 C525 1.391 . S
C525 H513 0.950 . S
C525 C521 1.393 . S
C525 C524 1.391 . S
C526 H516 0.950 . S
C526 C527 1.386 . S
C526 C528 1.391 . S
C527 C526 1.386 . S
C527 C531 1.393 . S
C528 H517 0.950 . S
C528 C526 1.391 . S
C528 C529 1.400 . S
C529 C523 1.491 . S
C529 C528 1.400 . S
C529 C530 1.398 . S
C530 H518 0.950 . S
C530 C529 1.398 . S
C530 C531 1.391 . S
C531 H519 0.950 1_554 S
C531 C527 1.393 . S
C531 C530 1.391 . S
H532 C540 0.950 . S
H533 C545 0.950 . S
H534 C542 0.950 . S
H535 C544 0.950 . S
H536 C546 0.950 1_556 S
H537 C548 0.950 . S
H538 C550 0.950 . S
H539 C551 0.950 . S
C540 H532 0.950 . S
C540 C541 1.386 . S
C540 C542 1.391 . S
C541 C540 1.386 . S
C541 C545 1.393 . S
C542 H534 0.950 . S
C542 C540 1.391 . S
C542 C543 1.400 . S
C543 C542 1.400 . S
C543 C544 1.398 . S
C543 C549 1.491 . S
C544 H535 0.950 . S
C544 C543 1.398 . S
C544 C545 1.391 . S
C545 H533 0.950 . S
C545 C541 1.393 . S
C545 C544 1.391 . S
C546 H536 0.950 1_554 S
C546 C547 1.386 . S
C546 C548 1.391 . S
C547 C546 1.386 . S
C547 C551 1.393 . S
C548 H537 0.950 . S
C548 C546 1.391 . S
C548 C549 1.400 . S
C549 C543 1.491 . S
C549 C548 1.400 . S
C549 C550 1.398 . S
C550 H538 0.950 . S
C550 C549 1.398 . S
C550 C551 1.391 . S
C551 H539 0.950 . S
C551 C547 1.393 . S
C551 C550 1.391 . S
H552 C560 0.950 . S
H553 C565 0.950 . S
H554 C562 0.950 . S
H555 C564 0.950 . S
H556 C566 0.950 . S
H557 C568 0.950 . S
H558 C570 0.950 . S
H559 C571 0.950 . S
C560 H552 0.950 . S
C560 C561 1.386 . S
C560 C562 1.391 . S
C561 C560 1.386 . S
C561 C565 1.393 1_455 S
C562 H554 0.950 . S
C562 C560 1.391 . S
C562 C563 1.400 . S
C563 C562 1.400 . S
C563 C564 1.398 1_455 S
C563 C569 1.491 . S
C564 H555 0.950 . S
C564 C563 1.398 1_655 S
C564 C565 1.391 . S
C565 H553 0.950 . S
C565 C561 1.393 1_655 S
C565 C564 1.391 . S
C566 H556 0.950 . S
C566 C567 1.386 1_655 S
C566 C568 1.391 . S
C567 C566 1.386 1_455 S
C567 C571 1.393 . S
C568 H557 0.950 . S
C568 C566 1.391 . S
C568 C569 1.400 1_655 S
C569 C563 1.491 . S
C569 C568 1.400 1_455 S
C569 C570 1.398 . S
C570 H558 0.950 . S
C570 C569 1.398 . S
C570 C571 1.391 . S
C571 H559 0.950 . S
C571 C567 1.393 . S
C571 C570 1.391 . S
H572 C580 0.950 . S
H573 C585 0.950 . S
H574 C582 0.950 . S
H575 C584 0.950 . S
H576 C586 0.950 . S
H577 C588 0.950 . S
H578 C590 0.950 . S
H579 C591 0.950 . S
C580 H572 0.950 . S
C580 C581 1.386 . S
C580 C582 1.391 . S
C581 C580 1.386 . S
C581 C585 1.393 1_545 S
C582 H574 0.950 . S
C582 C580 1.391 . S
C582 C583 1.400 . S
C583 C582 1.400 . S
C583 C584 1.398 1_545 S
C583 C589 1.491 . S
C584 H575 0.950 . S
C584 C583 1.398 1_565 S
C584 C585 1.391 . S
C585 H573 0.950 . S
C585 C581 1.393 1_565 S
C585 C584 1.391 . S
C586 H576 0.950 . S
C586 C587 1.386 1_565 S
C586 C588 1.391 . S
C587 C586 1.386 1_545 S
C587 C591 1.393 . S
C588 H577 0.950 . S
C588 C586 1.391 . S
C588 C589 1.400 1_565 S
C589 C583 1.491 . S
C589 C588 1.400 1_545 S
C589 C590 1.398 . S
C590 H578 0.950 . S
C590 C589 1.398 . S
C590 C591 1.391 . S
C591 H579 0.950 . S
C591 C587 1.393 . S
C591 C590 1.391 . S
H592 C600 0.950 . S
H593 C605 0.950 . S
H594 C602 0.950 . S
H595 C604 0.950 . S
H596 C606 0.950 . S
H597 C608 0.950 . S
H598 C610 0.950 . S
H599 C611 0.950 . S
C600 H592 0.950 . S
C600 C601 1.386 . S
C600 C602 1.391 . S
C601 C600 1.386 . S
C601 C605 1.393 . S
C602 H594 0.950 . S
C602 C600 1.391 . S
C602 C603 1.400 . S
C603 C602 1.400 . S
C603 C604 1.398 . S
C603 C609 1.491 . S
C604 H595 0.950 . S
C604 C603 1.398 . S
C604 C605 1.391 . S
C605 H593 0.950 . S
C605 C601 1.393 . S
C605 C604 1.391 . S
C606 H596 0.950 . S
C606 C607 1.386 . S
C606 C608 1.391 . S
C607 C606 1.386 . S
C607 C611 1.393 . S
C608 H597 0.950 . S
C608 C606 1.391 . S
C608 C609 1.400 . S
C609 C603 1.491 . S
C609 C608 1.400 . S
C609 C610 1.398 . S
C610 H598 0.950 . S
C610 C609 1.398 . S
C610 C611 1.391 . S
C611 H599 0.950 . S
C611 C607 1.393 . S
C611 C610 1.391 . S
H612 C620 0.950 . S
H613 C625 0.950 1_554 S
H614 C622 0.950 . S
H615 C624 0.950 . S
H616 C626 0.950 . S
H617 C628 0.950 . S
H618 C630 0.950 . S
H619 C631 0.950 . S
C620 H612 0.950 . S
C620 C621 1.386 . S
C620 C622 1.391 . S
C621 C620 1.386 . S
C621 C625 1.393 . S
C622 H614 0.950 . S
C622 C620 1.391 . S
C622 C623 1.400 . S
C623 C622 1.400 . S
C623 C624 1.398 . S
C623 C629 1.491 . S
C624 H615 0.950 . S
C624 C623 1.398 . S
C624 C625 1.391 . S
C625 H613 0.950 1_556 S
C625 C621 1.393 . S
C625 C624 1.391 . S
C626 H616 0.950 . S
C626 C627 1.386 . S
C626 C628 1.391 . S
C627 C626 1.386 . S
C627 C631 1.393 . S
C628 H617 0.950 . S
C628 C626 1.391 . S
C628 C629 1.400 . S
C629 C623 1.491 . S
C629 C628 1.400 . S
C629 C630 1.398 . S
C630 H618 0.950 . S
C630 C629 1.398 . S
C630 C631 1.391 . S
C631 H619 0.950 . S
C631 C627 1.393 . S
C631 C630 1.391 . S
H632 C640 0.950 . S
H633 C645 0.950 . S
H634 C642 0.950 . S
H635 C644 0.950 . S
H636 C646 0.950 . S
H637 C648 0.950 . S
H638 C650 0.950 . S
H639 C651 0.950 . S
C640 H632 0.950 . S
C640 C641 1.386 1_455 S
C640 C642 1.391 . S
C641 C640 1.386 1_655 S
C641 C645 1.393 . S
C642 H634 0.950 . S
C642 C640 1.391 . S
C642 C643 1.400 1_455 S
C643 C642 1.400 1_655 S
C643 C644 1.398 . S
C643 C649 1.491 . S
C644 H635 0.950 . S
C644 C643 1.398 . S
C644 C645 1.391 . S
C645 H633 0.950 . S
C645 C641 1.393 . S
C645 C644 1.391 . S
C646 H636 0.950 . S
C646 C647 1.386 . S
C646 C648 1.391 . S
C647 C646 1.386 . S
C647 C651 1.393 1_655 S
C648 H637 0.950 . S
C648 C646 1.391 . S
C648 C649 1.400 . S
C649 C643 1.491 . S
C649 C648 1.400 . S
C649 C650 1.398 1_655 S
C650 H638 0.950 . S
C650 C649 1.398 1_455 S
C650 C651 1.391 . S
C651 H639 0.950 . S
C651 C647 1.393 1_455 S
C651 C650 1.391 . S
H652 C660 0.950 . S
H653 C665 0.950 . S
H654 C662 0.950 . S
H655 C664 0.950 . S
H656 C666 0.939 1_545 S
H657 C668 0.966 . S
H658 C670 0.950 . S
H659 C671 0.950 . S
C660 H652 0.950 . S
C660 C661 1.386 . S
C660 C662 1.391 . S
C661 C660 1.386 . S
C661 C665 1.393 1_565 S
C662 H654 0.950 . S
C662 C660 1.391 . S
C662 C663 1.400 . S
C663 C662 1.400 . S
C663 C664 1.398 1_565 S
C663 C669 1.491 . S
C664 H655 0.950 . S
C664 C663 1.398 1_545 S
C664 C665 1.391 . S
C665 H653 0.950 . S
C665 C661 1.393 1_545 S
C665 C664 1.391 . S
C666 H656 0.939 1_565 S
C666 C667 1.398 . S
C666 C668 1.389 1_565 S
C667 C666 1.398 . S
C667 C671 1.393 . S
C668 H657 0.966 . S
C668 C666 1.389 1_545 S
C668 C669 1.388 1_545 S
C669 C663 1.491 . S
C669 C668 1.388 1_565 S
C669 C670 1.398 . S
C670 H658 0.950 . S
C670 C669 1.398 . S
C670 C671 1.391 . S
C671 H659 0.950 . S
C671 C667 1.393 . S
C671 C670 1.391 . S
H672 C680 0.950 . S
H673 C685 0.950 . S
H674 C682 0.950 . S
H675 C684 0.950 . S
H676 C686 0.950 . S
H677 C688 0.950 . S
H678 C690 0.950 . S
H679 C691 0.950 . S
C680 H672 0.950 . S
C680 C681 1.386 . S
C680 C682 1.391 . S
C681 C680 1.386 . S
C681 C685 1.393 . S
C682 H674 0.950 . S
C682 C680 1.391 . S
C682 C683 1.400 . S
C683 C682 1.400 . S
C683 C684 1.398 . S
C683 C689 1.491 . S
C684 H675 0.950 . S
C684 C683 1.398 . S
C684 C685 1.391 . S
C685 H673 0.950 . S
C685 C681 1.393 . S
C685 C684 1.391 . S
C686 H676 0.950 . S
C686 C687 1.386 . S
C686 C688 1.391 . S
C687 C686 1.386 . S
C687 C691 1.393 . S
C688 H677 0.950 . S
C688 C686 1.391 . S
C688 C689 1.400 . S
C689 C683 1.491 . S
C689 C688 1.400 . S
C689 C690 1.398 . S
C690 H678 0.950 . S
C690 C689 1.398 . S
C690 C691 1.391 . S
C691 H679 0.950 . S
C691 C687 1.393 . S
C691 C690 1.391 . S
H692 C700 0.950 . S
H693 C705 0.950 . S
H694 C702 0.950 . S
H695 C704 0.950 . S
H696 C706 0.950 . S
H697 C708 0.950 . S
H698 C710 0.950 . S
H699 C711 0.950 . S
C700 H692 0.950 . S
C700 C701 1.386 . S
C700 C702 1.391 . S
C701 C700 1.386 . S
C701 C705 1.393 . S
C702 H694 0.950 . S
C702 C700 1.391 . S
C702 C703 1.400 . S
C703 C702 1.400 . S
C703 C704 1.398 . S
C703 C709 1.491 . S
C704 H695 0.950 . S
C704 C703 1.398 . S
C704 C705 1.391 . S
C705 H693 0.950 . S
C705 C701 1.393 . S
C705 C704 1.391 . S
C706 H696 0.950 . S
C706 C707 1.386 . S
C706 C708 1.391 . S
C707 C706 1.386 . S
C707 C711 1.393 . S
C708 H697 0.950 . S
C708 C706 1.391 . S
C708 C709 1.400 . S
C709 C703 1.491 . S
C709 C708 1.400 . S
C709 C710 1.398 . S
C710 H698 0.950 . S
C710 C709 1.398 . S
C710 C711 1.391 . S
C711 H699 0.950 . S
C711 C707 1.393 . S
C711 C710 1.391 . S
C241 C61 1.790 . S
C247 C81 1.915 1_545 S
C267 C121 1.947 . S
C261 C70 1.815 . S
C287 C161 1.951 . S
C281 C43 1.820 . S
C307 C201 1.931 1_455 S
C301 C52 1.804 1_455 S
C327 C90 1.918 1_565 S
C321 C25 1.792 1_545 S
C341 C34 1.804 . S
C347 C130 1.947 . S
C361 C7 1.821 . S
C367 C170 1.951 . S
C381 C16 1.804 . S
C387 C210 1.932 1_655 S
C407 C87 0.477 . S
C401 C50 0.417 1_455 S
C427 C127 0.467 . S
C421 C59 0.428 1_545 S
C447 C167 0.483 . S
C441 C67 0.465 . S
C461 C41 0.417 . S
C467 C207 0.458 . S
C481 C14 0.440 . S
C487 C78 0.457 . S
C507 C118 0.505 . S
C501 C23 0.445 . S
C527 C158 0.521 . S
C521 C31 0.468 . S
C541 C5 0.416 . S
C547 C198 0.451 . S
C561 C49 2.037 1_455 S
C567 C91 2.277 . S
C581 C58 1.975 1_545 S
C587 C131 2.217 . S
C607 C171 2.183 . S
C601 C68 1.976 . S
C627 C211 2.240 . S
C621 C40 2.018 . S
C641 C13 2.040 . S
C647 C82 2.275 . S
C667 C122 2.205 . S
C661 C22 1.993 . S
C687 C162 2.188 . S
C681 C32 1.948 . S
C701 C4 2.027 . S
C707 C202 2.256 . S
