# Generated by pormake.
# Topology zzz, (3,6)-cn, num edge types: 1
# Building blocks:
#     Node 0, Type 0, BuildingBlock: PAMTOO_clean_linker_0, # of connection points: 3
#     Node 1, Type 0, BuildingBlock: PAMTOO_clean_linker_0, # of connection points: 3
#     Node 2, Type 0, BuildingBlock: PAMTOO_clean_linker_0, # of connection points: 3
#     Node 3, Type 0, BuildingBlock: PAMTOO_clean_linker_0, # of connection points: 3
#     Node 4, Type 0, BuildingBlock: PAMTOO_clean_linker_0, # of connection points: 3
#     Node 5, Type 0, BuildingBlock: PAMTOO_clean_linker_0, # of connection points: 3
#     Node 6, Type 0, BuildingBlock: PAMTOO_clean_linker_0, # of connection points: 3
#     Node 7, Type 0, BuildingBlock: PAMTOO_clean_linker_0, # of connection points: 3
#     Node 8, Type 1, BuildingBlock: BETGAK_clean_sbu_0, # of connection points: 6
#     Node 9, Type 1, BuildingBlock: BETGAK_clean_sbu_0, # of connection points: 6
#     Node 10, Type 1, BuildingBlock: BETGAK_clean_sbu_0, # of connection points: 6
#     Node 11, Type 1, BuildingBlock: BETGAK_clean_sbu_0, # of connection points: 6
#     Edge 12, Type (0, 1), BuildingBlock: KIFKEQ_clean_linker_1, # of connection points: 2
#     Edge 13, Type (0, 1), BuildingBlock: KIFKEQ_clean_linker_1, # of connection points: 2
#     Edge 14, Type (0, 1), BuildingBlock: KIFKEQ_clean_linker_1, # of connection points: 2
#     Edge 15, Type (0, 1), BuildingBlock: KIFKEQ_clean_linker_1, # of connection points: 2
#     Edge 16, Type (0, 1), BuildingBlock: KIFKEQ_clean_linker_1, # of connection points: 2
#     Edge 17, Type (0, 1), BuildingBlock: KIFKEQ_clean_linker_1, # of connection points: 2
#     Edge 18, Type (0, 1), BuildingBlock: KIFKEQ_clean_linker_1, # of connection points: 2
#     Edge 19, Type (0, 1), BuildingBlock: KIFKEQ_clean_linker_1, # of connection points: 2
#     Edge 20, Type (0, 1), BuildingBlock: KIFKEQ_clean_linker_1, # of connection points: 2
#     Edge 21, Type (0, 1), BuildingBlock: KIFKEQ_clean_linker_1, # of connection points: 2
#     Edge 22, Type (0, 1), BuildingBlock: KIFKEQ_clean_linker_1, # of connection points: 2
#     Edge 23, Type (0, 1), BuildingBlock: KIFKEQ_clean_linker_1, # of connection points: 2
#     Edge 24, Type (0, 1), BuildingBlock: KIFKEQ_clean_linker_1, # of connection points: 2
#     Edge 25, Type (0, 1), BuildingBlock: KIFKEQ_clean_linker_1, # of connection points: 2
#     Edge 26, Type (0, 1), BuildingBlock: KIFKEQ_clean_linker_1, # of connection points: 2
#     Edge 27, Type (0, 1), BuildingBlock: KIFKEQ_clean_linker_1, # of connection points: 2
#     Edge 28, Type (0, 1), BuildingBlock: KIFKEQ_clean_linker_1, # of connection points: 2
#     Edge 29, Type (0, 1), BuildingBlock: KIFKEQ_clean_linker_1, # of connection points: 2
#     Edge 30, Type (0, 1), BuildingBlock: KIFKEQ_clean_linker_1, # of connection points: 2
#     Edge 31, Type (0, 1), BuildingBlock: KIFKEQ_clean_linker_1, # of connection points: 2
#     Edge 32, Type (0, 1), BuildingBlock: KIFKEQ_clean_linker_1, # of connection points: 2
#     Edge 33, Type (0, 1), BuildingBlock: KIFKEQ_clean_linker_1, # of connection points: 2
#     Edge 34, Type (0, 1), BuildingBlock: KIFKEQ_clean_linker_1, # of connection points: 2
#     Edge 35, Type (0, 1), BuildingBlock: KIFKEQ_clean_linker_1, # of connection points: 2
# Relax obj value: 0.275
# Max RMSD: 0.193
# Mean RMSD: 0.161
data_MOF--net-zzz--node1-BETGAK_clean_sbu_0--node2-PAMTOO_clean_linker_0--edge1-KIFKEQ_clean_linker_1
_symmetry_space_group_name_H-M    P1
_symmetry_Int_Tables_number       1
_symmetry_cell_setting            triclinic
loop_
_symmetry_equiv_pos_as_xyz
'x, y, z'
_cell_length_a     52.923919
_cell_length_b     52.93425
_cell_length_c     13.690618
_cell_angle_alpha  89.874924
_cell_angle_beta   90.177085
_cell_angle_gamma 89.994516
loop_
_atom_site_label
_atom_site_type_symbol
_atom_site_fract_x
_atom_site_fract_y
_atom_site_fract_z
_atom_type_partial_charge
H0 H 0.81657 0.47525 0.38308 0.0
H1 H 0.74929 0.4838 0.21063 0.0
H2 H 0.77286 0.54355 0.40422 0.0
H3 H 0.70952 0.54006 0.3687 0.0
C4 C 0.71279 0.52524 0.31278 0.0
O5 O 0.73715 0.52826 0.27645 0.0
H6 H 0.71084 0.50664 0.3502 0.0
C7 C 0.79968 0.48596 0.36518 0.0
C8 C 0.79682 0.51017 0.40437 0.0
C9 C 0.78286 0.4764 0.29516 0.0
C10 C 0.76186 0.49079 0.26695 0.0
C11 C 0.75748 0.5146 0.30834 0.0
C12 C 0.77539 0.52465 0.37585 0.0
H13 H 0.03989 0.82376 0.23248 0.0
H14 H 0.03914 0.74544 0.15669 0.0
H15 H 1.01983 0.76807 0.44985 0.0
H16 H 0.99113 0.72583 0.25139 0.0
C17 C 1.00419 0.71433 0.29741 0.0
O18 O 0.02513 0.72858 0.32562 0.0
H19 H 0.99364 0.70907 0.36448 0.0
C20 C 0.03647 0.80433 0.25415 0.0
C21 C 0.02999 0.79883 0.35141 0.0
C22 C 0.03987 0.78526 0.18471 0.0
C23 C 0.03604 0.7601 0.21036 0.0
C24 C 0.02804 0.75365 0.30438 0.0
C25 C 0.02497 0.77309 0.37583 0.0
H26 H 0.72736 0.06886 0.32538 0.0
H27 H 0.79716 0.05288 0.1795 0.0
H28 H 0.77314 1.00596 0.41965 0.0
H29 H 0.83764 1.0115 0.39095 0.0
C30 C 0.83363 0.02224 0.32281 0.0
O31 O 0.81002 1.01475 0.28826 0.0
H32 H 0.83354 0.04267 0.34206 0.0
C33 C 0.74469 0.05795 0.3213 0.0
C34 C 0.74789 0.03703 0.38312 0.0
C35 C 0.7622 0.06363 0.24786 0.0
C36 C 0.78393 0.04887 0.23777 0.0
C37 C 0.78856 0.02863 0.30133 0.0
C38 C 0.7702 0.02228 0.37322 0.0
H39 H 0.47547 0.72839 0.37379 0.0
H40 H 0.48395 0.79652 0.20637 0.0
H41 H 0.5419 0.77424 0.41147 0.0
H42 H 0.5343 0.83732 0.38377 0.0
C43 C 0.52158 0.83389 0.32042 0.0
O44 O 0.52688 0.80999 0.28352 0.0
H45 H 0.50178 0.83477 0.34746 0.0
C46 C 0.48587 0.74563 0.35863 0.0
C47 C 0.50945 0.74914 0.40288 0.0
C48 C 0.4766 0.76241 0.28775 0.0
C49 C 0.49068 0.78386 0.26309 0.0
C50 C 0.51376 0.78886 0.30988 0.0
C51 C 0.52352 0.77112 0.37866 0.0
H52 H 0.22542 0.56694 0.14556 0.0
H53 H 0.29813 0.56559 0.28557 0.0
H54 H 0.27471 0.50331 0.10304 0.0
H55 H 0.31723 0.48765 0.26886 0.0
C56 C 0.31892 0.5078 0.29064 0.0
O57 O 0.31281 0.52273 0.21029 0.0
H58 H 0.30519 0.51088 0.35095 0.0
C59 C 0.24352 0.55773 0.15736 0.0
C60 C 0.24767 0.53403 0.11581 0.0
C61 C 0.26139 0.56912 0.21869 0.0
C62 C 0.28436 0.5569 0.23755 0.0
C63 C 0.28957 0.53331 0.19529 0.0
C64 C 0.27095 0.5216 0.13511 0.0
H65 H 0.97967 0.22197 0.20945 0.0
H66 H 0.9869 0.2961 0.33114 0.0
H67 H 0.03485 0.27364 0.09195 0.0
H68 H 0.0582 0.32121 0.23711 0.0
C69 C 0.03986 0.32071 0.27634 0.0
O70 O 1.02147 0.31215 0.21128 0.0
H71 H 0.04213 0.30724 0.33833 0.0
C72 C 0.98854 0.24046 0.20803 0.0
C73 C 1.00795 0.24524 0.14119 0.0
C74 C 0.98119 0.25858 0.27661 0.0
C75 C 0.99271 0.28228 0.27764 0.0
C76 C 1.01192 0.28814 0.21124 0.0
C77 C 1.01994 0.26935 0.14334 0.0
H78 H 0.31792 0.97235 0.1465 0.0
H79 H 0.25023 0.98248 0.31418 0.0
H80 H 0.27375 0.04001 0.11041 0.0
H81 H 0.21277 1.00442 0.16081 0.0
C82 C 0.21399 0.02266 0.20106 0.0
O83 O 0.2381 0.02604 0.2395 0.0
H84 H 0.21034 0.03781 0.14653 0.0
C85 C 0.30097 0.98316 0.16187 0.0
C86 C 0.29792 1.00684 0.1176 0.0
C87 C 0.28413 0.97432 0.23305 0.0
C88 C 0.26299 0.9889 0.25756 0.0
C89 C 0.25858 1.01219 0.21157 0.0
C90 C 0.27643 1.02151 0.14272 0.0
H91 H 0.57065 0.31784 0.13302 0.0
H92 H 0.56163 0.25007 0.30236 0.0
H93 H 0.50289 0.27364 0.10305 0.0
H94 H 0.53905 0.21259 0.15076 0.0
C95 C 0.52094 0.21377 0.19188 0.0
O96 O 0.51774 0.23781 0.23065 0.0
H97 H 0.50559 0.21023 0.13811 0.0
C98 C 0.56001 0.30081 0.14925 0.0
C99 C 0.53607 0.29781 0.10732 0.0
C100 C 0.56929 0.28396 0.2199 0.0
C101 C 0.55492 0.26278 0.24579 0.0
C102 C 0.53139 0.25835 0.20158 0.0
C103 C 0.5216 0.27627 0.1336 0.0
La104 La 0.0389 1.01458 0.83423 0.0
La105 La 1.00739 0.02704 0.68345 0.0
C106 C 0.06364 0.99228 0.96535 0.0
C107 C 0.07894 0.96952 0.95144 0.0
C108 C 0.08606 0.96255 0.85635 0.0
C109 C 0.09542 0.93841 0.83794 0.0
C110 C 0.09781 0.92088 0.9144 0.0
C111 C 0.09259 0.92868 0.01072 0.0
C112 C 0.08308 0.95282 0.02899 0.0
C113 C 0.06508 0.02997 0.6782 0.0
C114 C 0.023 0.97116 0.68377 0.0
C115 C 0.98378 0.04766 0.54461 0.0
C116 C 0.96654 0.06926 0.54293 0.0
C117 C 0.95614 0.07849 0.63011 0.0
C118 C 0.94216 0.10088 0.62992 0.0
C119 C 0.9386 0.1145 0.54263 0.0
C120 C 0.94819 0.1044 0.45492 0.0
C121 C 0.96199 0.08197 0.45519 0.0
C122 C 0.98107 1.01174 0.83928 0.0
C123 C 0.02332 0.07057 0.83488 0.0
O124 O 0.07179 1.01235 0.92006 0.0
O125 O 0.03942 0.98895 0.95178 0.0
O126 O 0.06898 0.0369 0.76708 0.0
O127 O 0.04623 1.01531 0.67786 0.0
O128 O 0.02889 0.97647 0.77549 0.0
O129 O 1.01762 0.99008 0.62461 0.0
O130 O 0.97564 0.02781 0.59143 0.0
O131 O 1.00717 0.05302 0.56726 0.0
O132 O 0.97694 1.00516 0.75008 0.0
O133 O 1.00004 0.02627 0.83998 0.0
O134 O 1.01604 0.06514 0.74457 0.0
O135 O 0.03005 0.05188 0.89331 0.0
H136 H 0.08287 0.97522 0.79524 0.0
H137 H 0.09929 0.93295 0.76325 0.0
H138 H 0.0938 0.91549 0.07113 0.0
H139 H 0.07746 0.95783 0.10248 0.0
H140 H 0.95957 0.06884 0.69879 0.0
H141 H 0.93493 0.10796 0.69851 0.0
H142 H 0.94643 0.11455 0.38649 0.0
H143 H 0.97003 0.07513 0.38751 0.0
La144 La 0.52869 0.03808 0.82916 0.0
La145 La 0.51618 1.0073 0.67305 0.0
C146 C 0.54908 0.06012 0.97187 0.0
C147 C 0.57126 0.07659 0.97752 0.0
C148 C 0.58092 0.08807 0.89291 0.0
C149 C 0.60348 0.10174 0.89689 0.0
C150 C 0.61686 0.1039 0.98538 0.0
C151 C 0.60649 0.09301 0.07046 0.0
C152 C 0.58387 0.07954 0.06646 0.0
C153 C 0.51439 0.06526 0.67372 0.0
C154 C 0.57256 0.02234 0.68059 0.0
C155 C 0.49654 0.98446 0.52967 0.0
C156 C 0.47459 0.96769 0.51806 0.0
C157 C 0.47436 0.94948 0.44398 0.0
C158 C 0.45306 0.93423 0.42988 0.0
C159 C 0.43153 0.93718 0.48912 0.0
C160 C 0.4325 0.95465 0.56643 0.0
C161 C 0.45388 0.96956 0.58111 0.0
C162 C 0.53042 0.98033 0.82932 0.0
C163 C 0.47248 0.02377 0.82181 0.0
O164 O 0.52991 0.06925 0.92328 0.0
O165 O 0.55377 0.03668 0.94834 0.0
O166 O 0.50783 0.06935 0.76286 0.0
O167 O 0.52856 0.04601 0.67286 0.0
O168 O 0.56686 0.02923 0.77078 0.0
O169 O 0.55409 1.01629 0.62013 0.0
O170 O 0.51496 0.97536 0.58221 0.0
O171 O 0.49175 1.008 0.55172 0.0
O172 O 0.53713 0.97619 0.74045 0.0
O173 O 0.51617 0.9995 0.82925 0.0
O174 O 0.47812 1.01737 0.73089 0.0
O175 O 0.49105 0.02893 0.88284 0.0
H176 H 0.57137 0.08586 0.82329 0.0
H177 H 0.61077 0.10998 0.83024 0.0
H178 H 0.61647 0.09366 0.13955 0.0
H179 H 0.57672 0.07063 0.13216 0.0
H180 H 0.49044 0.94738 0.39587 0.0
H181 H 0.45322 0.92067 0.3708 0.0
H182 H 0.4163 0.95784 0.61288 0.0
H183 H 0.45388 0.98304 0.64015 0.0
La184 La 0.51086 0.5327 0.85644 0.0
La185 La 0.53586 0.51474 0.65774 0.0
C186 C 0.50199 0.54938 0.02392 0.0
C187 C 0.48366 0.56839 0.05703 0.0
C188 C 0.46092 0.57219 1.00572 0.0
C189 C 0.44539 0.59272 0.02741 0.0
C190 C 0.45229 0.60976 0.10113 0.0
C191 C 0.4744 0.60513 0.1559 0.0
C192 C 0.49 0.58464 0.13374 0.0
C193 C 0.47596 0.52793 0.71355 0.0
C194 C 0.52486 0.5735 0.6926 0.0
C195 C 0.54481 0.49766 0.4908 0.0
C196 C 0.56296 0.47844 0.45815 0.0
C197 C 0.58517 0.47379 0.51183 0.0
C198 C 0.6005 0.45315 0.48958 0.0
C199 C 0.59391 0.43677 0.41319 0.0
C200 C 0.5723 0.44222 0.35649 0.0
C201 C 0.55693 0.46286 0.37901 0.0
C202 C 0.57065 0.52015 0.80104 0.0
C203 C 0.52173 0.47388 0.82118 0.0
O204 O 0.49236 0.52824 0.99041 0.0
O205 O 0.52014 0.55817 0.96815 0.0
O206 O 0.47153 0.53497 0.80216 0.0
O207 O 0.49941 0.52387 0.71077 0.0
O208 O 0.52029 0.56899 0.78661 0.0
O209 O 0.52842 0.55497 0.62849 0.0
O210 O 0.55461 0.51875 0.52401 0.0
O211 O 0.52658 0.4891 0.54665 0.0
O212 O 0.57537 0.51349 0.71217 0.0
O213 O 0.54711 0.52346 0.80328 0.0
O214 O 0.52669 0.47842 0.72753 0.0
O215 O 0.5179 0.49237 0.88517 0.0
H216 H 0.45551 0.55985 0.94651 0.0
H217 H 0.42842 0.59572 0.98453 0.0
H218 H 0.48044 0.61815 0.21226 0.0
H219 H 0.50753 0.58213 0.1737 0.0
H220 H 0.59026 0.48556 0.57318 0.0
H221 H 0.61709 0.44956 0.53402 0.0
H222 H 0.56644 0.42974 0.29808 0.0
H223 H 0.53979 0.46602 0.33724 0.0
La224 La 1.0125 0.50805 0.86296 0.0
La225 La 0.03159 0.53459 0.66891 0.0
C226 C 0.9952 0.49805 0.0288 0.0
C227 C 0.97599 0.47978 0.06068 0.0
C228 C 0.97138 0.45772 0.00652 0.0
C229 C 0.95086 0.4422 0.02889 0.0
C230 C 0.93458 0.44847 0.10585 0.0
C231 C 0.93999 0.46996 0.16282 0.0
C232 C 0.9605 0.48549 0.14023 0.0
C233 C 1.01745 0.47428 0.71668 0.0
C234 C 0.97244 0.52438 0.69869 0.0
C235 C 0.04988 0.5456 0.5061 0.0
C236 C 0.07102 0.56266 0.48315 0.0
C237 C 0.07052 0.57776 0.39897 0.0
C238 C 0.09066 0.59412 0.37856 0.0
C239 C 0.11169 0.59548 0.44188 0.0
C240 C 0.11156 0.58081 0.52769 0.0
C241 C 0.0914 0.5648 0.54839 0.0
C242 C 0.02711 0.56803 0.81702 0.0
C243 C 0.07162 0.51819 0.83214 0.0
O244 O 1.01627 0.48837 0.99511 0.0
O245 O 0.98666 0.51658 0.974 0.0
O246 O 1.01007 0.46921 0.80447 0.0
O247 O 1.02168 0.49774 0.71649 0.0
O248 O 0.97658 0.51857 0.79207 0.0
O249 O 0.99124 0.52866 0.63635 0.0
O250 O 0.02973 0.55668 0.54148 0.0
O251 O 0.05591 0.52498 0.55452 0.0
O252 O 0.03465 0.57332 0.72959 0.0
O253 O 0.02265 0.54466 0.81548 0.0
O254 O 0.06742 0.5236 0.73862 0.0
O255 O 0.05285 0.51441 0.895 0.0
H256 H 0.9831 0.45286 0.94488 0.0
H257 H 0.94729 0.42571 0.98418 0.0
H258 H 0.92757 0.47561 0.22161 0.0
H259 H 0.96365 0.50251 0.1824 0.0
H260 H 0.05468 0.5768 0.34882 0.0
H261 H 0.08991 0.60537 0.31248 0.0
H262 H 0.12749 0.58082 0.57746 0.0
H263 H 0.09202 0.55377 0.61496 0.0
H264 H 0.18493 0.98366 0.27442 0.0
H265 H 0.19611 0.06391 0.30258 0.0
H266 H 0.14897 0.98582 0.38597 0.0
H267 H 0.15993 0.06634 0.41335 0.0
H268 H 0.1083 0.05792 0.68151 0.0
H269 H 0.14443 0.056 0.57184 0.0
H270 H 0.10578 1.00006 0.39752 0.0
H271 H 0.06965 1.00176 0.50921 0.0
C272 C 0.17982 1.00177 0.3052 0.0
C273 C 0.19349 0.02362 0.27953 0.0
C274 C 0.15894 1.00309 0.36848 0.0
C275 C 0.1511 0.0263 0.40873 0.0
C276 C 0.16531 0.04805 0.38498 0.0
C277 C 0.18614 0.04671 0.32137 0.0
C278 C 0.10738 0.04532 0.61934 0.0
C279 C 0.08595 0.03003 0.60441 0.0
C280 C 0.12818 0.04428 0.55588 0.0
C281 C 0.12836 0.02781 0.47515 0.0
C282 C 0.10668 1.01274 0.45937 0.0
C283 C 0.08576 1.01388 0.5229 0.0
H284 H 0.48024 0.19679 0.29884 0.0
H285 H 0.55987 0.18357 0.25955 0.0
H286 H 0.47796 0.16062 0.41037 0.0
H287 H 0.55788 0.14763 0.37189 0.0
H288 H 0.54123 0.0689 0.50089 0.0
H289 H 0.54276 0.10483 0.38742 0.0
H290 H 0.48942 0.14505 0.56759 0.0
H291 H 0.48763 0.10914 0.67885 0.0
C292 C 0.49735 0.18636 0.31533 0.0
C293 C 0.52021 0.19317 0.27032 0.0
C294 C 0.4961 0.16554 0.37937 0.0
C295 C 0.51771 0.1508 0.40039 0.0
C296 C 0.5407 0.15804 0.35668 0.0
C297 C 0.54193 0.1789 0.29293 0.0
C298 C 0.52965 0.08532 0.5155 0.0
C299 C 0.51428 0.08603 0.59912 0.0
C300 C 0.53069 0.10612 0.45093 0.0
C301 C 0.51629 0.12818 0.46781 0.0
C302 C 0.50059 0.1285 0.55071 0.0
C303 C 0.49964 0.10783 0.61512 0.0
H304 H 0.33714 0.55145 0.37476 0.0
H305 H 0.36037 0.47593 0.30036 0.0
H306 H 0.37706 0.55798 0.46159 0.0
H307 H 0.40016 0.48212 0.38894 0.0
H308 H 0.47714 0.50639 0.52627 0.0
H309 H 0.44157 0.50324 0.40965 0.0
H310 H 0.3939 0.54321 0.61277 0.0
H311 H 0.42882 0.54638 0.72636 0.0
C312 C 0.35098 0.5364 0.37539 0.0
C313 C 0.34546 0.51322 0.33024 0.0
C314 C 0.37386 0.53999 0.42618 0.0
C315 C 0.39198 0.52046 0.43404 0.0
C316 C 0.38695 0.4977 0.38444 0.0
C317 C 0.36402 0.49412 0.33365 0.0
C318 C 0.45911 0.51468 0.54507 0.0
C319 C 0.45595 0.52663 0.63594 0.0
C320 C 0.43862 0.51279 0.47853 0.0
C321 C 0.41464 0.52313 0.50082 0.0
C322 C 0.41195 0.53541 0.59117 0.0
C323 C 0.43212 0.53705 0.65718 0.0
H324 H 0.07131 0.36207 0.29404 0.0
H325 H 0.99563 0.33806 0.3624 0.0
H326 H 0.06483 0.4009 0.38747 0.0
H327 H 0.98893 0.37687 0.45471 0.0
H328 H 0.99945 0.42683 0.72464 0.0
H329 H 1.00321 0.39273 0.60823 0.0
H330 H 0.04339 0.44209 0.41116 0.0
H331 H 0.03961 0.4768 0.53049 0.0
C332 C 0.05302 0.36534 0.32689 0.0
C333 C 0.03391 0.34682 0.31935 0.0
C334 C 0.04928 0.38772 0.38066 0.0
C335 C 0.02641 0.39223 0.43007 0.0
C336 C 1.00699 0.3741 0.41935 0.0
C337 C 1.01072 0.35179 0.36536 0.0
C338 C 1.00895 0.43068 0.65622 0.0
C339 C 1.01922 0.45476 0.63753 0.0
C340 C 1.01095 0.41098 0.58857 0.0
C341 C 0.02346 0.41437 0.49901 0.0
C342 C 0.03368 0.43858 0.47934 0.0
C343 C 0.03143 0.4586 0.54749 0.0
H344 H 0.83243 0.02222 0.11825 0.0
H345 H 0.88369 1.01477 0.36177 0.0
H346 H 0.86809 1.01924 1.00513 0.0
H347 H 0.91933 1.01165 0.24938 0.0
H348 H 0.98001 0.03438 0.02118 0.0
H349 H 0.9446 0.03615 0.1363 0.0
H350 H 0.89967 0.99067 0.94035 0.0
H351 H 0.93486 0.98908 0.82596 0.0
C352 C 0.85123 1.01947 0.14774 0.0
C353 C 0.85501 1.01801 0.24944 0.0
C354 C 0.8718 1.01779 0.08276 0.0
C355 C 0.89685 1.0151 0.11742 0.0
C356 C 0.90052 1.01389 0.21926 0.0
C357 C 0.87998 1.01538 0.28394 0.0
C358 C 0.96264 0.0246 1.00317 0.0
C359 C 0.9604 1.0116 0.91402 0.0
C360 C 0.94226 0.02556 0.06932 0.0
C361 C 0.91896 1.01368 0.04802 0.0
C362 C 0.91699 1.00043 0.95923 0.0
C363 C 0.93734 0.99934 0.89367 0.0
H364 H 0.51917 0.83237 0.11588 0.0
H365 H 0.52939 0.88392 0.35599 0.0
H366 H 0.52151 0.86782 1.00083 0.0
H367 H 0.53176 0.91936 0.24165 0.0
H368 H 0.5084 0.97992 0.01238 0.0
H369 H 0.50662 0.94473 0.12931 0.0
H370 H 0.5505 0.89877 0.9325 0.0
H371 H 0.55214 0.93373 0.81648 0.0
C372 C 0.52236 0.85119 0.14414 0.0
C373 C 0.52486 0.85512 0.24539 0.0
C374 C 0.52367 0.87163 0.07807 0.0
C375 C 0.52698 0.89668 0.11126 0.0
C376 C 0.52906 0.90053 0.21272 0.0
C377 C 0.52799 0.88012 0.27845 0.0
C378 C 0.5178 0.96235 0.99454 0.0
C379 C 0.53039 0.95975 0.90475 0.0
C380 C 0.51684 0.94211 0.0617 0.0
C381 C 0.52828 0.91861 0.04068 0.0
C382 C 0.54108 0.91626 0.95116 0.0
C383 C 0.5422 0.93649 0.88466 0.0
H384 H 0.70803 0.49644 0.14564 0.0
H385 H 0.67065 0.55604 0.30277 0.0
H386 H 0.67332 0.49548 0.02766 0.0
H387 H 0.63598 0.55555 0.18395 0.0
H388 H 0.56561 0.53013 1.00077 0.0
H389 H 0.59973 0.53212 0.12352 0.0
H390 H 0.65462 0.518 0.89733 0.0
H391 H 0.62095 0.51558 0.77743 0.0
C392 C 0.69264 0.50972 0.15386 0.0
C393 C 0.69255 0.52668 0.23272 0.0
C394 C 0.67258 0.5092 0.08611 0.0
C395 C 0.65158 0.52554 0.0951 0.0
C396 C 0.65152 0.54249 0.17436 0.0
C397 C 0.67164 0.54301 0.24202 0.0
C398 C 0.58498 0.52757 0.9777 0.0
C399 C 0.59043 0.52267 0.87903 0.0
C400 C 0.60465 0.52877 0.04796 0.0
C401 C 0.63022 0.525 0.02128 0.0
C402 C 0.63537 0.52046 0.92211 0.0
C403 C 0.61591 0.51928 0.85269 0.0
H404 H 0.97508 0.67223 0.2731 0.0
H405 H 0.0475 0.70214 0.18813 0.0
H406 H 0.98165 0.63563 0.16754 0.0
H407 H 0.05422 0.66556 0.08284 0.0
H408 H 0.04225 0.61663 0.80984 0.0
H409 H 0.03868 0.64962 0.9315 0.0
H410 H 1.00442 0.5966 0.13121 0.0
H411 H 1.00792 0.56317 0.00681 0.0
C412 C 0.99267 0.67078 0.23323 0.0
C413 C 1.01077 0.69025 0.2403 0.0
C414 C 0.99647 0.64966 0.17258 0.0
C415 C 1.01844 0.64737 0.11542 0.0
C416 C 0.03685 0.66662 0.12417 0.0
C417 C 0.03306 0.68771 0.18527 0.0
C418 C 0.03405 0.6118 0.87985 0.0
C419 C 0.02531 0.58708 0.89787 0.0
C420 C 0.03219 0.63085 0.95047 0.0
C421 C 1.02137 0.62609 0.04244 0.0
C422 C 1.01272 0.60122 0.06124 0.0
C423 C 1.01479 0.58193 0.99007 0.0
H424 H 0.93022 0.25211 0.26337 0.0
H425 H 0.99335 0.24658 0.46138 0.0
H426 H 0.90525 0.22495 0.37033 0.0
H427 H 0.9698 0.21807 0.56416 0.0
H428 H 0.90876 0.13768 0.40518 0.0
H429 H 0.90786 0.1824 0.37392 0.0
H430 H 0.94196 0.19621 0.65667 0.0
H431 H 0.94534 0.15108 0.6828 0.0
C432 C 0.93835 0.24572 0.33182 0.0
C433 C 0.96366 0.2509 0.35413 0.0
C434 C 0.92425 0.22988 0.39264 0.0
C435 C 0.93576 0.21804 0.47372 0.0
C436 C 0.96 0.22637 0.50251 0.0
C437 C 0.97377 0.24274 0.44322 0.0
C438 C 0.91577 0.15028 0.46134 0.0
C439 C 0.92853 0.14072 0.54346 0.0
C440 C 0.91487 0.17623 0.44431 0.0
C441 C 0.92628 0.19319 0.51035 0.0
C442 C 0.93432 0.18372 0.6015 0.0
C443 C 0.93591 0.15767 0.61724 0.0
H444 H 0.29669 0.92695 0.17105 0.0
H445 H 0.29112 0.97318 0.42896 0.0
H446 H 0.32869 0.90094 0.25129 0.0
H447 H 0.32333 0.94785 0.50829 0.0
H448 H 0.39401 0.91944 0.61128 0.0
H449 H 0.34978 0.9131 0.56622 0.0
H450 H 0.36962 0.92115 0.2618 0.0
H451 H 0.41303 0.92806 0.3061 0.0
C452 C 0.30132 0.93066 0.24682 0.0
C453 C 0.29212 0.95247 0.29298 0.0
C454 C 0.31975 0.91588 0.29263 0.0
C455 C 0.32938 0.92303 0.38436 0.0
C456 C 0.31664 0.94192 0.43712 0.0
C457 C 0.29806 0.95655 0.39158 0.0
C458 C 0.38897 0.91926 0.53457 0.0
C459 C 0.40701 0.92516 0.46259 0.0
C460 C 0.36365 0.9154 0.50885 0.0
C461 C 0.35601 0.91712 0.41066 0.0
C462 C 0.37468 0.91952 0.33826 0.0
C463 C 0.39984 0.9236 0.3639 0.0
H464 H 0.61691 0.29588 0.15818 0.0
H465 H 0.56971 0.29306 0.41389 0.0
H466 H 0.64028 0.33122 0.22794 0.0
H467 H 0.59219 0.32858 0.48239 0.0
H468 H 0.6077 0.41456 0.24156 0.0
H469 H 0.6181 0.37048 0.21812 0.0
H470 H 0.62203 0.35982 0.53109 0.0
H471 H 0.61048 0.40395 0.55421 0.0
C472 C 0.61258 0.30182 0.23194 0.0
C473 C 0.59099 0.29249 0.27933 0.0
C474 C 0.62574 0.32227 0.27151 0.0
C475 C 0.61716 0.33367 0.35803 0.0
C476 C 0.5991 0.32072 0.4146 0.0
C477 C 0.58613 0.30013 0.37541 0.0
C478 C 0.6114 0.40296 0.30531 0.0
C479 C 0.60748 0.41251 0.39949 0.0
C480 C 0.61781 0.37765 0.2921 0.0
C481 C 0.62043 0.36132 0.37298 0.0
C482 C 0.61971 0.37174 0.46731 0.0
C483 C 0.61319 0.3971 0.48049 0.0
H484 H 0.24791 0.61487 0.14352 0.0
H485 H 0.25463 0.5734 0.41353 0.0
H486 H 0.21293 0.63908 0.21115 0.0
H487 H 0.21963 0.59717 0.48098 0.0
H488 H 0.1451 0.62113 0.56105 0.0
H489 H 0.18889 0.6314 0.52162 0.0
H490 H 0.1746 0.61226 0.21993 0.0
H491 H 0.13168 0.60115 0.25923 0.0
C492 C 0.24301 0.61215 0.21961 0.0
C493 C 0.2533 0.59182 0.27256 0.0
C494 C 0.22284 0.62586 0.25813 0.0
C495 C 0.21281 0.61921 0.34958 0.0
C496 C 0.22664 0.60256 0.40968 0.0
C497 C 0.24687 0.5889 0.37117 0.0
C498 C 0.1512 0.61963 0.48586 0.0
C499 C 0.13505 0.60942 0.414 0.0
C500 C 0.17622 0.6258 0.46328 0.0
C501 C 0.18536 0.62232 0.36811 0.0
C502 C 0.16822 0.61541 0.29402 0.0
C503 C 0.1434 0.60891 0.31675 0.0
H504 H 0.08562 0.77315 0.10918 0.0
H505 H 1.01694 0.81393 0.04686 0.0
H506 H 0.10765 0.79745 0.98319 0.0
H507 H 0.03851 0.83812 0.92182 0.0
H508 H 0.07429 0.89374 0.77147 0.0
H509 H 0.06488 0.84887 0.78111 0.0
H510 H 0.11718 0.84159 0.02262 0.0
H511 H 0.12699 0.88622 0.01114 0.0
C512 C 0.07498 0.78641 0.06489 0.0
C513 C 0.04984 0.79219 0.08814 0.0
C514 C 0.08755 0.80032 0.993 0.0
C515 C 0.07504 0.82013 0.94416 0.0
C516 C 0.04883 0.82304 0.95772 0.0
C517 C 0.03639 0.80933 0.02996 0.0
C518 C 0.08483 0.88231 0.82308 0.0
C519 C 0.10061 0.8936 0.89342 0.0
C520 C 0.07937 0.85654 0.82865 0.0
C521 C 0.08948 0.8419 0.90505 0.0
C522 C 0.10876 0.85233 0.9635 0.0
C523 C 0.11422 0.87805 0.95785 0.0
H524 H 0.75421 0.1143 0.26863 0.0
H525 H 0.75228 0.05378 0.05895 0.0
H526 H 0.72612 0.1393 0.16514 0.0
H527 H 0.72288 0.07727 0.95952 0.0
H528 H 0.63915 0.13181 0.13021 0.0
H529 H 0.6838 0.13412 0.16197 0.0
H530 H 0.69897 0.10478 0.87303 0.0
H531 H 0.65397 0.09994 0.84588 0.0
C532 C 0.74846 0.1068 0.19842 0.0
C533 C 0.7548 0.08202 0.17223 0.0
C534 C 0.73206 0.12091 0.13957 0.0
C535 C 0.72083 0.10987 0.05645 0.0
C536 C 0.73056 0.08661 0.0232 0.0
C537 C 0.74752 0.07288 0.08055 0.0
C538 C 0.65202 0.1261 0.07295 0.0
C539 C 0.64295 0.1143 0.98809 0.0
C540 C 0.67791 0.12787 0.0903 0.0
C541 C 0.69536 0.11831 0.02203 0.0
C542 C 0.68618 0.11104 0.92959 0.0
C543 C 0.66021 0.1086 0.91334 0.0
H544 H 0.47656 0.75265 0.09431 0.0
H545 H 0.42883 0.75106 0.34868 0.0
H546 H 0.45381 0.71716 0.02661 0.0
H547 H 0.40522 0.71576 0.27974 0.0
H548 H 0.43854 0.63246 0.27158 0.0
H549 H 0.4278 0.67656 0.29254 0.0
H550 H 0.42346 0.68593 0.97903 0.0
H551 H 0.43516 0.64172 0.95844 0.0
C552 C 0.45998 0.74586 0.13253 0.0
C553 C 0.45499 0.75383 0.22808 0.0
C554 C 0.44684 0.72532 0.0938 0.0
C555 C 0.42854 0.71274 0.15043 0.0
C556 C 0.4199 0.72447 0.23616 0.0
C557 C 0.43323 0.74487 0.27529 0.0
C558 C 0.4346 0.64377 0.20725 0.0
C559 C 0.43844 0.63387 0.1136 0.0
C560 C 0.42802 0.66908 0.21901 0.0
C561 C 0.42523 0.68505 0.13716 0.0
C562 C 0.42587 0.67426 0.04347 0.0
C563 C 0.4325 0.64888 0.03175 0.0
H564 H 0.79413 0.42906 0.3628 0.0
H565 H 0.79205 0.47454 0.10144 0.0
H566 H 0.82865 0.40423 0.29497 0.0
H567 H 0.82686 0.45073 0.03502 0.0
H568 H 0.91263 0.43438 0.27784 0.0
H569 H 0.86849 0.42454 0.30197 0.0
H570 H 0.85751 0.42059 0.98914 0.0
H571 H 0.90169 0.43176 0.96536 0.0
C572 C 0.80008 0.43276 0.28847 0.0
C573 C 0.79119 0.45421 0.23856 0.0
C574 C 0.82006 0.41874 0.24993 0.0
C575 C 0.83154 0.42644 0.1622 0.0
C576 C 0.81897 0.44447 0.10379 0.0
C577 C 0.79879 0.45823 0.14182 0.0
C578 C 0.90093 0.43081 0.21427 0.0
C579 C 0.91041 0.43475 0.11993 0.0
C580 C 0.87556 0.4247 0.22787 0.0
C581 C 0.85911 0.42239 0.14722 0.0
C582 C 0.86949 0.42282 0.0528 0.0
C583 C 0.89491 0.4291 0.03921 0.0
H584 H 0.97926 0.22504 0.99536 0.0
H585 H 0.05065 0.21544 0.14203 0.0
H586 H 0.98423 0.18401 0.91663 0.0
H587 H 0.05603 0.17427 0.06245 0.0
H588 H 0.04034 0.08898 0.01141 0.0
H589 H 0.03929 0.13225 0.07256 0.0
H590 H 1.00476 0.15696 0.80272 0.0
H591 H 1.00552 0.11354 0.74224 0.0
C592 C 0.99654 0.21454 0.00787 0.0
C593 C 1.01482 0.22396 0.07342 0.0
C594 C 0.99938 0.19078 0.96301 0.0
C595 C 1.02048 0.1753 0.98303 0.0
C596 C 0.03931 0.18525 0.04567 0.0
C597 C 0.03652 0.20917 0.0901 0.0
C598 C 0.03256 0.10361 0.96476 0.0
C599 C 0.02301 0.09746 0.87153 0.0
C600 C 0.03215 0.12865 0.99971 0.0
C601 C 0.02203 0.14858 0.94308 0.0
C602 C 1.01254 0.14238 0.84953 0.0
C603 C 1.01309 0.11733 0.81434 0.0
H604 H 0.31542 0.98494 0.9509 0.0
H605 H 0.32996 0.04711 0.14534 0.0
H606 H 0.35651 0.99113 0.87428 0.0
H607 H 0.37119 0.05375 0.06787 0.0
H608 H 0.45499 0.03337 0.0069 0.0
H609 H 0.41162 0.03311 0.06625 0.0
H610 H 0.38495 1.01537 0.7761 0.0
H611 H 0.42848 1.01548 0.7169 0.0
C612 C 0.32705 1.00061 0.97478 0.0
C613 C 0.31911 1.01577 0.0534 0.0
C614 C 0.3508 1.00412 0.93104 0.0
C615 C 0.36764 0.02279 0.96501 0.0
C616 C 0.35908 0.03889 0.04029 0.0
C617 C 0.33517 0.03544 0.08371 0.0
C618 C 0.43993 0.02949 0.95534 0.0
C619 C 0.44554 0.02419 0.85689 0.0
C620 C 0.41486 0.02955 0.98946 0.0
C621 C 0.3944 0.02426 0.92649 0.0
C622 C 0.40002 1.01924 0.82762 0.0
C623 C 0.42513 1.01929 0.79338 0.0
H624 H 0.49725 0.33088 0.14411 0.0
H625 H 0.55596 0.31491 0.93627 0.0
H626 H 0.49114 0.3727 0.07009 0.0
H627 H 0.55042 0.35658 0.86328 0.0
H628 H 0.52798 0.43006 0.71485 0.0
H629 H 0.52681 0.38641 0.7721 0.0
H630 H 0.51258 0.41243 0.0655 0.0
H631 H 0.51319 0.45603 0.00779 0.0
C632 C 0.50819 0.33592 0.08021 0.0
C633 C 0.52673 0.31925 0.04497 0.0
C634 C 0.5051 0.36018 0.03881 0.0
C635 C 0.52049 0.3685 0.96087 0.0
C636 C 0.53796 0.3511 0.92217 0.0
C637 C 0.54107 0.32699 0.96373 0.0
C638 C 0.5245 0.42656 0.7916 0.0
C639 C 0.52075 0.44689 0.85632 0.0
C640 C 0.52392 0.40135 0.82477 0.0
C641 C 0.51957 0.39549 0.92395 0.0
C642 C 0.51556 0.41586 0.9884 0.0
C643 C 0.51613 0.44107 0.95523 0.0
H644 H 0.23153 0.55001 0.93757 0.0
H645 H 0.2138 0.49697 0.16589 0.0
H646 H 0.18975 0.54399 0.86616 0.0
H647 H 0.17191 0.49022 0.09349 0.0
H648 H 0.08911 0.51206 0.02108 0.0
H649 H 0.13266 0.51152 0.07974 0.0
H650 H 0.15918 0.52007 0.78352 0.0
H651 H 0.11565 0.5213 0.72544 0.0
C652 C 0.21906 0.5361 0.96989 0.0
C653 C 0.22637 0.52348 0.05606 0.0
C654 C 0.19485 0.53274 0.92932 0.0
C655 C 0.17692 0.51675 0.97392 0.0
C656 C 0.18481 0.50303 0.05736 0.0
C657 C 0.20912 0.50642 0.09793 0.0
C658 C 0.10419 0.51375 0.96818 0.0
C659 C 0.09853 0.51689 0.86819 0.0
C660 C 0.12937 0.51322 1.00194 0.0
C661 C 0.1499 0.51573 0.93695 0.0
C662 C 0.14417 0.51846 0.8367 0.0
C663 C 0.119 0.51907 0.80303 0.0
H664 H 0.9947 0.81254 0.49425 0.0
H665 H 0.06598 0.83547 0.37048 0.0
H666 H 0.99283 0.85287 0.58495 0.0
H667 H 0.06349 0.87556 0.45654 0.0
H668 H 0.026 0.95561 0.4934 0.0
H669 H 0.02795 0.91267 0.42872 0.0
H670 H 0.02311 0.88249 0.72057 0.0
H671 H 0.022 0.92582 0.78647 0.0
C672 C 1.01017 0.82581 0.48762 0.0
C673 C 0.03028 0.82065 0.42321 0.0
C674 C 1.00903 0.84904 0.5392 0.0
C675 C 0.02782 0.86775 0.52678 0.0
C676 C 0.04849 0.86189 0.46689 0.0
C677 C 0.04985 0.83876 0.4173 0.0
C678 C 0.02529 0.93994 0.5443 0.0
C679 C 0.02379 0.94445 0.64551 0.0
C680 C 0.02643 0.91521 0.50698 0.0
C681 C 0.02552 0.89398 0.5691 0.0
C682 C 0.02359 0.89833 0.67039 0.0
C683 C 0.02309 0.92322 0.70816 0.0
H684 H 0.71866 0.99399 0.38683 0.0
H685 H 0.72668 0.06672 0.52369 0.0
H686 H 0.67731 0.98866 0.46512 0.0
H687 H 0.68551 0.06171 0.60116 0.0
H688 H 0.61509 0.04014 0.77556 0.0
H689 H 0.65876 0.04081 0.71765 0.0
H690 H 0.6351 1.00579 0.44801 0.0
H691 H 0.59157 1.00492 0.50635 0.0
C692 C 0.71199 1.00848 0.43618 0.0
C693 C 0.72627 0.03061 0.44994 0.0
C694 C 0.688 1.00567 0.47988 0.0
C695 C 0.67761 0.02486 0.53923 0.0
C696 C 0.69266 0.04635 0.55705 0.0
C697 C 0.71644 0.04922 0.51276 0.0
C698 C 0.61917 0.03245 0.70408 0.0
C699 C 0.59955 0.02248 0.64592 0.0
C700 C 0.64434 0.03293 0.67044 0.0
C701 C 0.65084 0.02328 0.57774 0.0
C702 C 0.63119 1.01305 0.52026 0.0
C703 C 0.60602 1.01275 0.55356 0.0
H704 H 0.54868 0.71642 0.3683 0.0
H705 H 0.48924 0.73204 0.57338 0.0
H706 H 0.55499 0.67474 0.44321 0.0
H707 H 0.49502 0.6905 0.64738 0.0
H708 H 0.51807 0.61739 0.79813 0.0
H709 H 0.51887 0.661 0.74014 0.0
H710 H 0.53378 0.6348 0.44753 0.0
H711 H 0.53351 0.59125 0.50592 0.0
C712 C 0.53763 0.71135 0.43185 0.0
C713 C 0.51884 0.72789 0.46609 0.0
C714 C 0.54083 0.68716 0.47374 0.0
C715 C 0.52533 0.67877 0.55122 0.0
C716 C 0.50758 0.69604 0.5889 0.0
C717 C 0.50434 0.72008 0.5468 0.0
C718 C 0.52163 0.62084 0.72141 0.0
C719 C 0.52566 0.60047 0.65711 0.0
C720 C 0.52199 0.64603 0.68782 0.0
C721 C 0.52642 0.65183 0.58863 0.0
C722 C 0.53073 0.63142 0.52461 0.0
C723 C 0.53034 0.60624 0.55818 0.0
H724 H 0.81349 0.49089 0.57755 0.0
H725 H 0.83038 0.54859 0.36564 0.0
H726 H 0.855 0.49642 0.65173 0.0
H727 H 0.87204 0.55477 0.44102 0.0
H728 H 0.95525 0.53333 0.51093 0.0
H729 H 0.91186 0.53396 0.45049 0.0
H730 H 0.88473 0.51963 0.7425 0.0
H731 H 0.92814 0.51835 0.8023 0.0
C732 C 0.82574 0.50558 0.54934 0.0
C733 C 0.81826 0.51963 0.46665 0.0
C734 C 0.84979 0.50869 0.59165 0.0
C735 C 0.86742 0.5259 0.55247 0.0
C736 C 0.85937 0.541 0.47285 0.0
C737 C 0.83518 0.53789 0.43062 0.0
C738 C 0.94008 0.53039 0.5626 0.0
C739 C 0.94555 0.52567 0.66188 0.0
C740 C 0.91498 0.53097 0.52783 0.0
C741 C 0.89433 0.52688 0.591 0.0
C742 C 0.89985 0.52253 0.69062 0.0
C743 C 0.92494 0.52191 0.72532 0.0
loop_
_geom_bond_atom_site_label_1
_geom_bond_atom_site_label_2
_geom_bond_distance
_geom_bond_site_symmetry_2
_ccdc_geom_bond_type
H0 C7 0.929 . S
H1 C10 0.930 . S
H2 C12 0.929 . S
H3 C4 0.969 . S
C4 H3 0.969 . S
C4 O5 1.550 . S
C4 H6 0.973 . S
O5 C4 1.550 . S
O5 C11 1.412 . S
H6 C4 0.973 . S
C7 H0 0.929 . S
C7 C8 1.400 . S
C7 C9 1.364 . S
C8 C7 1.400 . S
C8 C12 1.377 . S
C9 C7 1.364 . S
C9 C10 1.374 . S
C10 H1 0.930 . S
C10 C9 1.374 . S
C10 C11 1.383 . S
C11 O5 1.412 . S
C11 C10 1.383 . S
C11 C12 1.394 . S
C12 H2 0.929 . S
C12 C8 1.377 . S
C12 C11 1.394 . S
H13 C20 0.928 1_655 S
H14 C23 0.930 . S
H15 C25 0.928 1_655 S
H16 C17 0.969 . S
C17 H16 0.969 . S
C17 O18 1.550 1_455 S
C17 H19 0.973 1_455 S
O18 C17 1.550 1_655 S
O18 C24 1.405 1_655 S
H19 C17 0.973 1_655 S
C20 H13 0.928 1_455 S
C20 C21 1.400 . S
C20 C22 1.364 . S
C21 C20 1.400 . S
C21 C25 1.377 . S
C22 C20 1.364 . S
C22 C23 1.374 1_455 S
C23 H14 0.930 . S
C23 C22 1.374 1_655 S
C23 C24 1.382 1_655 S
C24 O18 1.405 1_455 S
C24 C23 1.382 1_455 S
C24 C25 1.394 . S
C25 H15 0.928 1_455 S
C25 C21 1.377 . S
C25 C24 1.394 . S
H26 C33 0.928 1_565 S
H27 C36 0.930 . S
H28 C38 0.928 1_565 S
H29 C30 0.969 . S
C30 H29 0.969 . S
C30 O31 1.550 1_545 S
C30 H32 0.973 1_545 S
O31 C30 1.550 1_565 S
O31 C37 1.405 1_565 S
H32 C30 0.973 1_565 S
C33 H26 0.928 1_545 S
C33 C34 1.399 . S
C33 C35 1.364 . S
C34 C33 1.399 . S
C34 C38 1.377 . S
C35 C33 1.364 . S
C35 C36 1.374 1_545 S
C36 H27 0.930 . S
C36 C35 1.374 1_565 S
C36 C37 1.382 1_565 S
C37 O31 1.405 1_545 S
C37 C36 1.382 1_545 S
C37 C38 1.394 . S
C38 H28 0.928 1_545 S
C38 C34 1.377 . S
C38 C37 1.394 . S
H39 C46 0.929 . S
H40 C49 0.930 . S
H41 C51 0.929 . S
H42 C43 0.969 . S
C43 H42 0.969 . S
C43 O44 1.550 . S
C43 H45 0.973 . S
O44 C43 1.550 . S
O44 C50 1.412 . S
H45 C43 0.973 . S
C46 H39 0.929 . S
C46 C47 1.400 . S
C46 C48 1.364 . S
C47 C46 1.400 . S
C47 C51 1.377 . S
C48 C46 1.364 . S
C48 C49 1.374 . S
C49 H40 0.930 . S
C49 C48 1.374 . S
C49 C50 1.383 . S
C50 O44 1.412 . S
C50 C49 1.383 . S
C50 C51 1.394 . S
C51 H41 0.929 . S
C51 C47 1.377 . S
C51 C50 1.394 . S
H52 C59 0.929 . S
H53 C62 0.930 . S
H54 C64 0.929 . S
H55 C56 0.969 . S
C56 H55 0.969 . S
C56 O57 1.550 . S
C56 H58 0.973 . S
O57 C56 1.550 . S
O57 C63 1.412 . S
H58 C56 0.973 . S
C59 H52 0.929 . S
C59 C60 1.400 1_554 S
C59 C61 1.364 . S
C60 C59 1.400 1_556 S
C60 C64 1.377 . S
C61 C59 1.364 . S
C61 C62 1.374 . S
C62 H53 0.930 . S
C62 C61 1.374 . S
C62 C63 1.383 . S
C63 O57 1.412 . S
C63 C62 1.383 . S
C63 C64 1.394 1_554 S
C64 H54 0.929 . S
C64 C60 1.377 . S
C64 C63 1.394 1_556 S
H65 C72 0.928 1_655 S
H66 C75 0.930 . S
H67 C77 0.928 1_655 S
H68 C69 0.969 . S
C69 H68 0.969 . S
C69 O70 1.550 1_455 S
C69 H71 0.973 1_455 S
O70 C69 1.550 1_655 S
O70 C76 1.402 1_655 S
H71 C69 0.973 1_655 S
C72 H65 0.928 1_455 S
C72 C73 1.400 1_554 S
C72 C74 1.364 . S
C73 C72 1.400 1_556 S
C73 C77 1.377 . S
C74 C72 1.364 . S
C74 C75 1.374 1_455 S
C75 H66 0.930 . S
C75 C74 1.374 1_655 S
C75 C76 1.382 1_655 S
C76 O70 1.402 1_455 S
C76 C75 1.382 1_455 S
C76 C77 1.394 1_554 S
C77 H67 0.928 1_455 S
C77 C73 1.377 . S
C77 C76 1.394 1_556 S
H78 C85 0.928 1_565 S
H79 C88 0.930 . S
H80 C90 0.928 1_565 S
H81 C82 0.969 . S
C82 H81 0.969 . S
C82 O83 1.550 1_545 S
C82 H84 0.973 1_545 S
O83 C82 1.550 1_565 S
O83 C89 1.402 1_565 S
H84 C82 0.973 1_565 S
C85 H78 0.928 1_545 S
C85 C86 1.400 1_554 S
C85 C87 1.364 . S
C86 C85 1.400 1_556 S
C86 C90 1.377 . S
C87 C85 1.364 . S
C87 C88 1.374 1_545 S
C88 H79 0.930 . S
C88 C87 1.374 1_565 S
C88 C89 1.382 1_565 S
C89 O83 1.402 1_545 S
C89 C88 1.382 1_545 S
C89 C90 1.394 1_554 S
C90 H80 0.928 1_545 S
C90 C86 1.377 . S
C90 C89 1.394 1_556 S
H91 C98 0.929 . S
H92 C101 0.930 . S
H93 C103 0.929 . S
H94 C95 0.969 . S
C95 H94 0.969 . S
C95 O96 1.550 . S
C95 H97 0.973 . S
O96 C95 1.550 . S
O96 C102 1.412 . S
H97 C95 0.973 . S
C98 H91 0.929 . S
C98 C99 1.400 1_554 S
C98 C100 1.364 . S
C99 C98 1.400 1_556 S
C99 C103 1.377 . S
C100 C98 1.364 . S
C100 C101 1.374 . S
C101 H92 0.930 . S
C101 C100 1.374 . S
C101 C102 1.383 . S
C102 O96 1.412 . S
C102 C101 1.383 . S
C102 C103 1.394 1_554 S
C103 H93 0.929 . S
C103 C99 1.377 . S
C103 C102 1.394 1_556 S
La104 C106 2.928 . S
La104 O124 2.521 . S
La104 O125 2.628 . S
La104 O126 2.554 . S
La104 O127 2.757 1_565 S
La104 O128 2.470 . S
La104 O133 2.482 1_455 S
La104 O135 2.503 1_565 S
La105 C115 2.928 . S
La105 O127 2.482 1_655 S
La105 O129 2.503 1_545 S
La105 O130 2.521 . S
La105 O131 2.628 . S
La105 O132 2.554 . S
La105 O133 2.757 1_545 S
La105 O134 2.470 . S
C106 La104 2.928 . S
C106 C107 1.503 1_556 S
C106 O124 1.261 . S
C106 O125 1.243 . S
C107 C106 1.503 1_554 S
C107 C108 1.394 . S
C107 C112 1.373 . S
C108 C107 1.394 . S
C108 C109 1.380 . S
C108 H136 0.930 . S
C109 C108 1.380 . S
C109 C110 1.376 . S
C109 H137 0.930 . S
C110 C109 1.376 . S
C110 C111 1.370 . S
C111 C110 1.370 . S
C111 C112 1.396 . S
C111 H138 0.929 1_455 S
C112 C107 1.373 . S
C112 C111 1.396 . S
C112 H139 0.929 1_455 S
C113 O126 1.240 . S
C113 O127 1.289 1_565 S
C114 O128 1.258 1_655 S
C114 O129 1.256 . S
C115 La105 2.928 . S
C115 C116 1.503 . S
C115 O130 1.261 . S
C115 O131 1.243 . S
C116 C115 1.503 . S
C116 C117 1.394 . S
C116 C121 1.373 . S
C117 C116 1.394 . S
C117 C118 1.380 . S
C117 H140 0.930 . S
C118 C117 1.380 . S
C118 C119 1.376 . S
C118 H141 0.930 . S
C119 C118 1.376 . S
C119 C120 1.370 . S
C120 C119 1.370 . S
C120 C121 1.396 . S
C120 H142 0.929 1_655 S
C121 C116 1.373 . S
C121 C120 1.396 . S
C121 H143 0.929 1_655 S
C122 O132 1.240 . S
C122 O133 1.289 1_545 S
C123 O134 1.258 1_455 S
C123 O135 1.256 . S
O124 La104 2.521 . S
O124 C106 1.261 . S
O125 La104 2.628 . S
O125 C106 1.243 . S
O126 La104 2.554 . S
O126 C113 1.240 . S
O127 La104 2.757 1_545 S
O127 La105 2.482 1_455 S
O127 C113 1.289 1_545 S
O128 La104 2.470 . S
O128 C114 1.258 1_455 S
O129 La105 2.503 1_565 S
O129 C114 1.256 . S
O130 La105 2.521 . S
O130 C115 1.261 . S
O131 La105 2.628 . S
O131 C115 1.243 . S
O132 La105 2.554 . S
O132 C122 1.240 . S
O133 La104 2.482 1_655 S
O133 La105 2.757 1_565 S
O133 C122 1.289 1_565 S
O134 La105 2.470 . S
O134 C123 1.258 1_655 S
O135 La104 2.503 1_545 S
O135 C123 1.256 . S
H136 C108 0.930 . S
H137 C109 0.930 . S
H138 C111 0.929 1_655 S
H139 C112 0.929 1_655 S
H140 C117 0.930 . S
H141 C118 0.930 . S
H142 C120 0.929 1_455 S
H143 C121 0.929 1_455 S
La144 C146 2.928 . S
La144 O164 2.521 . S
La144 O165 2.628 . S
La144 O166 2.554 . S
La144 O167 2.757 . S
La144 O168 2.470 . S
La144 O173 2.482 1_545 S
La144 O175 2.503 . S
La145 C155 2.928 . S
La145 O167 2.482 1_565 S
La145 O169 2.503 . S
La145 O170 2.521 . S
La145 O171 2.628 . S
La145 O172 2.554 . S
La145 O173 2.757 . S
La145 O174 2.470 . S
C146 La144 2.928 . S
C146 C147 1.503 1_556 S
C146 O164 1.261 . S
C146 O165 1.243 . S
C147 C146 1.503 1_554 S
C147 C148 1.394 . S
C147 C152 1.373 . S
C148 C147 1.394 . S
C148 C149 1.380 . S
C148 H176 0.930 . S
C149 C148 1.380 . S
C149 C150 1.376 . S
C149 H177 0.930 . S
C150 C149 1.376 . S
C150 C151 1.370 . S
C151 C150 1.370 . S
C151 C152 1.396 . S
C151 H178 0.929 1_545 S
C152 C147 1.373 . S
C152 C151 1.396 . S
C152 H179 0.929 1_545 S
C153 O166 1.240 . S
C153 O167 1.289 . S
C154 O168 1.258 1_565 S
C154 O169 1.256 . S
C155 La145 2.928 . S
C155 C156 1.503 . S
C155 O170 1.261 . S
C155 O171 1.243 . S
C156 C155 1.503 . S
C156 C157 1.394 . S
C156 C161 1.373 . S
C157 C156 1.394 . S
C157 C158 1.380 . S
C157 H180 0.930 . S
C158 C157 1.380 . S
C158 C159 1.376 . S
C158 H181 0.930 . S
C159 C158 1.376 . S
C159 C160 1.370 . S
C160 C159 1.370 . S
C160 C161 1.396 . S
C160 H182 0.929 1_565 S
C161 C156 1.373 . S
C161 C160 1.396 . S
C161 H183 0.929 1_565 S
C162 O172 1.240 . S
C162 O173 1.289 . S
C163 O174 1.258 1_545 S
C163 O175 1.256 . S
O164 La144 2.521 . S
O164 C146 1.261 . S
O165 La144 2.628 . S
O165 C146 1.243 . S
O166 La144 2.554 . S
O166 C153 1.240 . S
O167 La144 2.757 . S
O167 La145 2.482 1_545 S
O167 C153 1.289 . S
O168 La144 2.470 . S
O168 C154 1.258 1_545 S
O169 La145 2.503 . S
O169 C154 1.256 . S
O170 La145 2.521 . S
O170 C155 1.261 . S
O171 La145 2.628 . S
O171 C155 1.243 . S
O172 La145 2.554 . S
O172 C162 1.240 . S
O173 La144 2.482 1_565 S
O173 La145 2.757 . S
O173 C162 1.289 . S
O174 La145 2.470 . S
O174 C163 1.258 1_565 S
O175 La144 2.503 . S
O175 C163 1.256 . S
H176 C148 0.930 . S
H177 C149 0.930 . S
H178 C151 0.929 1_565 S
H179 C152 0.929 1_565 S
H180 C157 0.930 . S
H181 C158 0.930 . S
H182 C160 0.929 1_545 S
H183 C161 0.929 1_545 S
La184 C186 2.928 . S
La184 O204 2.521 . S
La184 O205 2.628 . S
La184 O206 2.554 . S
La184 O207 2.757 . S
La184 O208 2.470 . S
La184 O213 2.482 . S
La184 O215 2.503 . S
La185 C195 2.928 . S
La185 O207 2.482 . S
La185 O209 2.503 . S
La185 O210 2.521 . S
La185 O211 2.628 . S
La185 O212 2.554 . S
La185 O213 2.757 . S
La185 O214 2.470 . S
C186 La184 2.928 . S
C186 C187 1.503 1_556 S
C186 O204 1.261 . S
C186 O205 1.243 . S
C187 C186 1.503 1_554 S
C187 C188 1.394 . S
C187 C192 1.373 . S
C188 C187 1.394 . S
C188 C189 1.380 . S
C188 H216 0.930 . S
C189 C188 1.380 . S
C189 C190 1.376 . S
C189 H217 0.930 . S
C190 C189 1.376 . S
C190 C191 1.370 . S
C191 C190 1.370 . S
C191 C192 1.396 . S
C191 H218 0.929 . S
C192 C187 1.373 . S
C192 C191 1.396 . S
C192 H219 0.929 . S
C193 O206 1.240 . S
C193 O207 1.289 . S
C194 O208 1.258 . S
C194 O209 1.256 . S
C195 La185 2.928 . S
C195 C196 1.503 . S
C195 O210 1.261 . S
C195 O211 1.243 . S
C196 C195 1.503 . S
C196 C197 1.394 . S
C196 C201 1.373 . S
C197 C196 1.394 . S
C197 C198 1.380 . S
C197 H220 0.930 . S
C198 C197 1.380 . S
C198 C199 1.376 . S
C198 H221 0.930 . S
C199 C198 1.376 . S
C199 C200 1.370 . S
C200 C199 1.370 . S
C200 C201 1.396 . S
C200 H222 0.929 . S
C201 C196 1.373 . S
C201 C200 1.396 . S
C201 H223 0.929 . S
C202 O212 1.240 . S
C202 O213 1.289 . S
C203 O214 1.258 . S
C203 O215 1.256 . S
O204 La184 2.521 . S
O204 C186 1.261 . S
O205 La184 2.628 . S
O205 C186 1.243 . S
O206 La184 2.554 . S
O206 C193 1.240 . S
O207 La184 2.757 . S
O207 La185 2.482 . S
O207 C193 1.289 . S
O208 La184 2.470 . S
O208 C194 1.258 . S
O209 La185 2.503 . S
O209 C194 1.256 . S
O210 La185 2.521 . S
O210 C195 1.261 . S
O211 La185 2.628 . S
O211 C195 1.243 . S
O212 La185 2.554 . S
O212 C202 1.240 . S
O213 La184 2.482 . S
O213 La185 2.757 . S
O213 C202 1.289 . S
O214 La185 2.470 . S
O214 C203 1.258 . S
O215 La184 2.503 . S
O215 C203 1.256 . S
H216 C188 0.930 . S
H217 C189 0.930 . S
H218 C191 0.929 . S
H219 C192 0.929 . S
H220 C197 0.930 . S
H221 C198 0.930 . S
H222 C200 0.929 . S
H223 C201 0.929 . S
La224 C226 2.928 . S
La224 O244 2.521 . S
La224 O245 2.628 . S
La224 O246 2.554 . S
La224 O247 2.757 1_655 S
La224 O248 2.470 . S
La224 O253 2.482 . S
La224 O255 2.503 1_655 S
La225 C235 2.928 . S
La225 O247 2.482 . S
La225 O249 2.503 1_455 S
La225 O250 2.521 . S
La225 O251 2.628 . S
La225 O252 2.554 . S
La225 O253 2.757 1_455 S
La225 O254 2.470 . S
C226 La224 2.928 . S
C226 C227 1.503 1_556 S
C226 O244 1.261 . S
C226 O245 1.243 . S
C227 C226 1.503 1_554 S
C227 C228 1.394 . S
C227 C232 1.373 . S
C228 C227 1.394 . S
C228 C229 1.380 . S
C228 H256 0.930 . S
C229 C228 1.380 . S
C229 C230 1.376 . S
C229 H257 0.930 . S
C230 C229 1.376 . S
C230 C231 1.370 . S
C231 C230 1.370 . S
C231 C232 1.396 . S
C231 H258 0.929 . S
C232 C227 1.373 . S
C232 C231 1.396 . S
C232 H259 0.929 . S
C233 O246 1.258 . S
C233 O247 1.279 1_655 S
C234 O248 1.258 . S
C234 O249 1.256 . S
C235 La225 2.928 . S
C235 C236 1.503 . S
C235 O250 1.261 . S
C235 O251 1.243 . S
C236 C235 1.503 . S
C236 C237 1.394 . S
C236 C241 1.373 . S
C237 C236 1.394 . S
C237 C238 1.380 . S
C237 H260 0.930 . S
C238 C237 1.380 . S
C238 C239 1.376 . S
C238 H261 0.930 . S
C239 C238 1.376 . S
C239 C240 1.370 . S
C240 C239 1.370 . S
C240 C241 1.396 . S
C240 H262 0.929 . S
C241 C236 1.373 . S
C241 C240 1.396 . S
C241 H263 0.929 . S
C242 O252 1.263 . S
C242 O253 1.275 1_455 S
C243 O254 1.258 . S
C243 O255 1.256 . S
O244 La224 2.521 . S
O244 C226 1.261 . S
O245 La224 2.628 . S
O245 C226 1.243 . S
O246 La224 2.554 . S
O246 C233 1.258 . S
O247 La224 2.757 1_455 S
O247 La225 2.482 . S
O247 C233 1.279 1_455 S
O248 La224 2.470 . S
O248 C234 1.258 . S
O249 La225 2.503 1_655 S
O249 C234 1.256 . S
O250 La225 2.521 . S
O250 C235 1.261 . S
O251 La225 2.628 . S
O251 C235 1.243 . S
O252 La225 2.554 . S
O252 C242 1.263 . S
O253 La224 2.482 . S
O253 La225 2.757 1_655 S
O253 C242 1.275 1_655 S
O254 La225 2.470 . S
O254 C243 1.258 . S
O255 La224 2.503 1_455 S
O255 C243 1.256 . S
H256 C228 0.930 . S
H257 C229 0.930 . S
H258 C231 0.929 . S
H259 C232 0.929 . S
H260 C237 0.930 . S
H261 C238 0.930 . S
H262 C240 0.929 . S
H263 C241 0.929 . S
H264 C272 0.950 . S
H265 C277 0.950 . S
H266 C274 0.950 . S
H267 C276 0.950 . S
H268 C278 0.950 . S
H269 C280 0.950 . S
H270 C282 0.950 . S
H271 C283 0.950 . S
C272 H264 0.950 . S
C272 C273 1.388 1_565 S
C272 C274 1.391 . S
C273 C272 1.388 1_545 S
C273 C277 1.390 . S
C274 H266 0.950 . S
C274 C272 1.391 . S
C274 C275 1.383 1_565 S
C275 C274 1.383 1_545 S
C275 C276 1.415 . S
C275 C281 1.490 . S
C276 H267 0.950 . S
C276 C275 1.415 . S
C276 C277 1.391 . S
C277 H265 0.950 . S
C277 C273 1.390 . S
C277 C276 1.391 . S
C278 H268 0.950 . S
C278 C279 1.386 . S
C278 C280 1.391 . S
C279 C278 1.386 . S
C279 C283 1.393 1_545 S
C280 H269 0.950 . S
C280 C278 1.391 . S
C280 C281 1.438 . S
C281 C275 1.490 . S
C281 C280 1.438 . S
C281 C282 1.363 1_545 S
C282 H270 0.950 . S
C282 C281 1.363 1_565 S
C282 C283 1.391 . S
C283 H271 0.950 . S
C283 C279 1.393 1_565 S
C283 C282 1.391 . S
H284 C292 0.950 . S
H285 C297 0.950 . S
H286 C294 0.950 . S
H287 C296 0.950 . S
H288 C298 0.950 . S
H289 C300 0.950 . S
H290 C302 0.950 . S
H291 C303 0.950 . S
C292 H284 0.950 . S
C292 C293 1.386 . S
C292 C294 1.391 . S
C293 C292 1.386 . S
C293 C297 1.393 . S
C294 H286 0.950 . S
C294 C292 1.391 . S
C294 C295 1.400 . S
C295 C294 1.400 . S
C295 C296 1.398 . S
C295 C301 1.491 . S
C296 H287 0.950 . S
C296 C295 1.398 . S
C296 C297 1.391 . S
C297 H285 0.950 . S
C297 C293 1.393 . S
C297 C296 1.391 . S
C298 H288 0.950 . S
C298 C299 1.386 . S
C298 C300 1.391 . S
C299 C298 1.386 . S
C299 C303 1.393 . S
C300 H289 0.950 . S
C300 C298 1.391 . S
C300 C301 1.400 . S
C301 C295 1.491 . S
C301 C300 1.400 . S
C301 C302 1.398 . S
C302 H290 0.950 . S
C302 C301 1.398 . S
C302 C303 1.391 . S
C303 H291 0.950 . S
C303 C299 1.393 . S
C303 C302 1.391 . S
H304 C312 0.950 . S
H305 C317 0.950 . S
H306 C314 0.950 . S
H307 C316 0.950 . S
H308 C318 0.950 . S
H309 C320 0.950 . S
H310 C322 0.950 . S
H311 C323 0.950 . S
C312 H304 0.950 . S
C312 C313 1.386 . S
C312 C314 1.391 . S
C313 C312 1.386 . S
C313 C317 1.393 . S
C314 H306 0.950 . S
C314 C312 1.391 . S
C314 C315 1.400 . S
C315 C314 1.400 . S
C315 C316 1.398 . S
C315 C321 1.491 . S
C316 H307 0.950 . S
C316 C315 1.398 . S
C316 C317 1.391 . S
C317 H305 0.950 . S
C317 C313 1.393 . S
C317 C316 1.391 . S
C318 H308 0.950 . S
C318 C319 1.386 . S
C318 C320 1.391 . S
C319 C318 1.386 . S
C319 C323 1.393 . S
C320 H309 0.950 . S
C320 C318 1.391 . S
C320 C321 1.400 . S
C321 C315 1.491 . S
C321 C320 1.400 . S
C321 C322 1.398 . S
C322 H310 0.950 . S
C322 C321 1.398 . S
C322 C323 1.391 . S
C323 H311 0.950 . S
C323 C319 1.393 . S
C323 C322 1.391 . S
H324 C332 0.950 . S
H325 C337 0.950 . S
H326 C334 0.950 . S
H327 C336 0.950 . S
H328 C338 0.950 . S
H329 C340 0.950 . S
H330 C342 0.950 . S
H331 C343 0.950 . S
C332 H324 0.950 . S
C332 C333 1.387 . S
C332 C334 1.391 . S
C333 C332 1.387 . S
C333 C337 1.392 1_455 S
C334 H326 0.950 . S
C334 C332 1.391 . S
C334 C335 1.430 . S
C335 C334 1.430 . S
C335 C336 1.368 1_455 S
C335 C341 1.492 . S
C336 H327 0.950 . S
C336 C335 1.368 1_655 S
C336 C337 1.391 . S
C337 H325 0.950 . S
C337 C333 1.392 1_655 S
C337 C336 1.391 . S
C338 H328 0.950 . S
C338 C339 1.386 1_655 S
C338 C340 1.391 . S
C339 C338 1.386 1_455 S
C339 C343 1.393 . S
C340 H329 0.950 . S
C340 C338 1.391 . S
C340 C341 1.400 1_655 S
C341 C335 1.492 . S
C341 C340 1.400 1_455 S
C341 C342 1.398 . S
C342 H330 0.950 . S
C342 C341 1.398 . S
C342 C343 1.391 . S
C343 H331 0.950 . S
C343 C339 1.393 . S
C343 C342 1.391 . S
H344 C352 0.950 . S
H345 C357 0.950 . S
H346 C354 0.950 . S
H347 C356 0.950 . S
H348 C358 0.950 . S
H349 C360 0.950 . S
H350 C362 0.950 . S
H351 C363 0.950 . S
C352 H344 0.950 . S
C352 C353 1.399 . S
C352 C354 1.391 . S
C353 C352 1.399 . S
C353 C357 1.379 1_545 S
C354 H346 0.950 . S
C354 C352 1.391 . S
C354 C355 1.400 1_545 S
C355 C354 1.400 1_565 S
C355 C356 1.398 . S
C355 C361 1.490 . S
C356 H347 0.950 . S
C356 C355 1.398 . S
C356 C357 1.391 . S
C357 H345 0.950 . S
C357 C353 1.379 1_565 S
C357 C356 1.391 . S
C358 H348 0.950 . S
C358 C359 1.386 1_554 S
C358 C360 1.391 . S
C359 C358 1.386 1_556 S
C359 C363 1.393 1_565 S
C360 H349 0.950 . S
C360 C358 1.391 . S
C360 C361 1.427 . S
C361 C355 1.490 . S
C361 C360 1.427 . S
C361 C362 1.374 1_564 S
C362 H350 0.950 . S
C362 C361 1.374 1_546 S
C362 C363 1.391 . S
C363 H351 0.950 . S
C363 C359 1.393 1_545 S
C363 C362 1.391 . S
H364 C372 0.950 . S
H365 C377 0.950 . S
H366 C374 0.950 . S
H367 C376 0.950 . S
H368 C378 0.950 . S
H369 C380 0.950 . S
H370 C382 0.950 . S
H371 C383 0.950 . S
C372 H364 0.950 . S
C372 C373 1.386 . S
C372 C374 1.391 . S
C373 C372 1.386 . S
C373 C377 1.393 . S
C374 H366 0.950 . S
C374 C372 1.391 . S
C374 C375 1.400 . S
C375 C374 1.400 . S
C375 C376 1.398 . S
C375 C381 1.491 . S
C376 H367 0.950 . S
C376 C375 1.398 . S
C376 C377 1.391 . S
C377 H365 0.950 . S
C377 C373 1.393 . S
C377 C376 1.391 . S
C378 H368 0.950 . S
C378 C379 1.386 . S
C378 C380 1.391 1_556 S
C379 C378 1.386 . S
C379 C383 1.393 . S
C380 H369 0.950 . S
C380 C378 1.391 1_554 S
C380 C381 1.400 . S
C381 C375 1.491 . S
C381 C380 1.400 . S
C381 C382 1.398 . S
C382 H370 0.950 . S
C382 C381 1.398 . S
C382 C383 1.391 1_554 S
C383 H371 0.950 . S
C383 C379 1.393 . S
C383 C382 1.391 1_556 S
H384 C392 0.950 . S
H385 C397 0.950 . S
H386 C394 0.950 . S
H387 C396 0.950 . S
H388 C398 0.950 . S
H389 C400 0.950 . S
H390 C402 0.950 . S
H391 C403 0.950 . S
C392 H384 0.950 . S
C392 C393 1.386 . S
C392 C394 1.391 . S
C393 C392 1.386 . S
C393 C397 1.393 . S
C394 H386 0.950 . S
C394 C392 1.391 . S
C394 C395 1.400 . S
C395 C394 1.400 . S
C395 C396 1.398 . S
C395 C401 1.491 . S
C396 H387 0.950 . S
C396 C395 1.398 . S
C396 C397 1.391 . S
C397 H385 0.950 . S
C397 C393 1.393 . S
C397 C396 1.391 . S
C398 H388 0.950 . S
C398 C399 1.386 1_554 S
C398 C400 1.391 . S
C399 C398 1.386 1_556 S
C399 C403 1.393 . S
C400 H389 0.950 . S
C400 C398 1.391 . S
C400 C401 1.400 . S
C401 C395 1.491 . S
C401 C400 1.400 . S
C401 C402 1.398 . S
C402 H390 0.950 . S
C402 C401 1.398 . S
C402 C403 1.391 1_554 S
C403 H391 0.950 . S
C403 C399 1.393 . S
C403 C402 1.391 1_556 S
H404 C412 0.950 . S
H405 C417 0.950 . S
H406 C414 0.950 . S
H407 C416 0.950 . S
H408 C418 0.950 . S
H409 C420 0.950 . S
H410 C422 0.950 . S
H411 C423 0.950 . S
C412 H404 0.950 . S
C412 C413 1.386 . S
C412 C414 1.391 . S
C413 C412 1.386 . S
C413 C417 1.393 1_655 S
C414 H406 0.950 . S
C414 C412 1.391 . S
C414 C415 1.400 . S
C415 C414 1.400 . S
C415 C416 1.398 1_655 S
C415 C421 1.492 . S
C416 H407 0.950 . S
C416 C415 1.398 1_455 S
C416 C417 1.391 . S
C417 H405 0.950 . S
C417 C413 1.393 1_455 S
C417 C416 1.391 . S
C418 H408 0.950 . S
C418 C419 1.381 1_455 S
C418 C420 1.391 . S
C419 C418 1.381 1_655 S
C419 C423 1.397 1_556 S
C420 H409 0.950 . S
C420 C418 1.391 . S
C420 C421 1.397 1_456 S
C421 C415 1.492 . S
C421 C420 1.397 1_654 S
C421 C422 1.401 . S
C422 H410 0.950 . S
C422 C421 1.401 . S
C422 C423 1.391 . S
C423 H411 0.950 . S
C423 C419 1.397 1_554 S
C423 C422 1.391 . S
H424 C432 0.950 . S
H425 C437 0.950 . S
H426 C434 0.950 . S
H427 C436 0.950 . S
H428 C438 0.950 . S
H429 C440 0.950 1_455 S
H430 C442 0.950 . S
H431 C443 0.950 . S
C432 H424 0.950 . S
C432 C433 1.386 1_655 S
C432 C434 1.391 . S
C433 C432 1.386 1_455 S
C433 C437 1.393 . S
C434 H426 0.950 . S
C434 C432 1.391 . S
C434 C435 1.400 . S
C435 C434 1.400 . S
C435 C436 1.398 1_655 S
C435 C441 1.491 . S
C436 H427 0.950 . S
C436 C435 1.398 1_455 S
C436 C437 1.391 . S
C437 H425 0.950 . S
C437 C433 1.393 . S
C437 C436 1.391 . S
C438 H428 0.950 . S
C438 C439 1.386 . S
C438 C440 1.391 . S
C439 C438 1.386 . S
C439 C443 1.393 . S
C440 H429 0.950 1_655 S
C440 C438 1.391 . S
C440 C441 1.400 . S
C441 C435 1.491 . S
C441 C440 1.400 . S
C441 C442 1.398 . S
C442 H430 0.950 . S
C442 C441 1.398 . S
C442 C443 1.391 . S
C443 H431 0.950 . S
C443 C439 1.393 . S
C443 C442 1.391 . S
H444 C452 0.950 . S
H445 C457 0.950 . S
H446 C454 0.950 . S
H447 C456 0.950 . S
H448 C458 0.950 . S
H449 C460 0.950 1_545 S
H450 C462 0.950 . S
H451 C463 0.950 . S
C452 H444 0.950 . S
C452 C453 1.386 1_565 S
C452 C454 1.391 . S
C453 C452 1.386 1_545 S
C453 C457 1.393 . S
C454 H446 0.950 . S
C454 C452 1.391 . S
C454 C455 1.400 . S
C455 C454 1.400 . S
C455 C456 1.398 1_565 S
C455 C461 1.491 . S
C456 H447 0.950 . S
C456 C455 1.398 1_545 S
C456 C457 1.391 . S
C457 H445 0.950 . S
C457 C453 1.393 . S
C457 C456 1.391 . S
C458 H448 0.950 . S
C458 C459 1.386 . S
C458 C460 1.391 . S
C459 C458 1.386 . S
C459 C463 1.393 . S
C460 H449 0.950 1_565 S
C460 C458 1.391 . S
C460 C461 1.400 . S
C461 C455 1.491 . S
C461 C460 1.400 . S
C461 C462 1.398 . S
C462 H450 0.950 . S
C462 C461 1.398 . S
C462 C463 1.391 . S
C463 H451 0.950 . S
C463 C459 1.393 . S
C463 C462 1.391 . S
H464 C472 0.950 . S
H465 C477 0.950 . S
H466 C474 0.950 . S
H467 C476 0.950 . S
H468 C478 0.950 . S
H469 C480 0.950 . S
H470 C482 0.950 . S
H471 C483 0.950 . S
C472 H464 0.950 . S
C472 C473 1.386 . S
C472 C474 1.391 . S
C473 C472 1.386 . S
C473 C477 1.393 . S
C474 H466 0.950 . S
C474 C472 1.391 . S
C474 C475 1.400 . S
C475 C474 1.400 . S
C475 C476 1.398 . S
C475 C481 1.491 . S
C476 H467 0.950 . S
C476 C475 1.398 . S
C476 C477 1.391 . S
C477 H465 0.950 . S
C477 C473 1.393 . S
C477 C476 1.391 . S
C478 H468 0.950 . S
C478 C479 1.386 . S
C478 C480 1.391 . S
C479 C478 1.386 . S
C479 C483 1.393 . S
C480 H469 0.950 . S
C480 C478 1.391 . S
C480 C481 1.400 . S
C481 C475 1.491 . S
C481 C480 1.400 . S
C481 C482 1.398 . S
C482 H470 0.950 . S
C482 C481 1.398 . S
C482 C483 1.391 . S
C483 H471 0.950 . S
C483 C479 1.393 . S
C483 C482 1.391 . S
H484 C492 0.950 . S
H485 C497 0.950 . S
H486 C494 0.950 . S
H487 C496 0.950 . S
H488 C498 0.950 . S
H489 C500 0.950 . S
H490 C502 0.950 . S
H491 C503 0.950 . S
C492 H484 0.950 . S
C492 C493 1.386 . S
C492 C494 1.391 . S
C493 C492 1.386 . S
C493 C497 1.393 . S
C494 H486 0.950 . S
C494 C492 1.391 . S
C494 C495 1.400 . S
C495 C494 1.400 . S
C495 C496 1.398 . S
C495 C501 1.491 . S
C496 H487 0.950 . S
C496 C495 1.398 . S
C496 C497 1.391 . S
C497 H485 0.950 . S
C497 C493 1.393 . S
C497 C496 1.391 . S
C498 H488 0.950 . S
C498 C499 1.386 . S
C498 C500 1.391 . S
C499 C498 1.386 . S
C499 C503 1.393 . S
C500 H489 0.950 . S
C500 C498 1.391 . S
C500 C501 1.400 . S
C501 C495 1.491 . S
C501 C500 1.400 . S
C501 C502 1.398 . S
C502 H490 0.950 . S
C502 C501 1.398 . S
C502 C503 1.391 . S
C503 H491 0.950 . S
C503 C499 1.393 . S
C503 C502 1.391 . S
H504 C512 0.950 . S
H505 C517 0.950 . S
H506 C514 0.950 . S
H507 C516 0.950 . S
H508 C518 0.950 . S
H509 C520 0.950 1_655 S
H510 C522 0.950 . S
H511 C523 0.950 . S
C512 H504 0.950 . S
C512 C513 1.386 1_455 S
C512 C514 1.391 . S
C513 C512 1.386 1_655 S
C513 C517 1.393 . S
C514 H506 0.950 . S
C514 C512 1.391 . S
C514 C515 1.400 . S
C515 C514 1.400 . S
C515 C516 1.398 1_455 S
C515 C521 1.491 . S
C516 H507 0.950 . S
C516 C515 1.398 1_655 S
C516 C517 1.391 . S
C517 H505 0.950 . S
C517 C513 1.393 . S
C517 C516 1.391 . S
C518 H508 0.950 . S
C518 C519 1.386 . S
C518 C520 1.391 . S
C519 C518 1.386 . S
C519 C523 1.393 . S
C520 H509 0.950 1_455 S
C520 C518 1.391 . S
C520 C521 1.400 . S
C521 C515 1.491 . S
C521 C520 1.400 . S
C521 C522 1.398 . S
C522 H510 0.950 . S
C522 C521 1.398 . S
C522 C523 1.391 . S
C523 H511 0.950 . S
C523 C519 1.393 . S
C523 C522 1.391 . S
H524 C532 0.950 . S
H525 C537 0.950 . S
H526 C534 0.950 . S
H527 C536 0.950 . S
H528 C538 0.950 . S
H529 C540 0.950 . S
H530 C542 0.950 . S
H531 C543 0.950 . S
C532 H524 0.950 . S
C532 C533 1.386 1_545 S
C532 C534 1.391 . S
C533 C532 1.386 1_565 S
C533 C537 1.393 . S
C534 H526 0.950 . S
C534 C532 1.391 . S
C534 C535 1.400 . S
C535 C534 1.400 . S
C535 C536 1.398 . S
C535 C541 1.491 . S
C536 H527 0.950 . S
C536 C535 1.398 . S
C536 C537 1.391 1_545 S
C537 H525 0.950 . S
C537 C533 1.393 . S
C537 C536 1.391 1_565 S
C538 H528 0.950 . S
C538 C539 1.386 . S
C538 C540 1.391 . S
C539 C538 1.386 . S
C539 C543 1.393 . S
C540 H529 0.950 . S
C540 C538 1.391 . S
C540 C541 1.400 . S
C541 C535 1.491 . S
C541 C540 1.400 . S
C541 C542 1.398 . S
C542 H530 0.950 . S
C542 C541 1.398 . S
C542 C543 1.391 . S
C543 H531 0.950 . S
C543 C539 1.393 . S
C543 C542 1.391 . S
H544 C552 0.950 . S
H545 C557 0.950 . S
H546 C554 0.950 . S
H547 C556 0.950 . S
H548 C558 0.950 . S
H549 C560 0.950 . S
H550 C562 0.950 . S
H551 C563 0.950 . S
C552 H544 0.950 . S
C552 C553 1.386 . S
C552 C554 1.391 . S
C553 C552 1.386 . S
C553 C557 1.393 . S
C554 H546 0.950 . S
C554 C552 1.391 . S
C554 C555 1.400 . S
C555 C554 1.400 . S
C555 C556 1.398 . S
C555 C561 1.491 . S
C556 H547 0.950 . S
C556 C555 1.398 . S
C556 C557 1.391 . S
C557 H545 0.950 . S
C557 C553 1.393 . S
C557 C556 1.391 . S
C558 H548 0.950 . S
C558 C559 1.386 . S
C558 C560 1.391 . S
C559 C558 1.386 . S
C559 C563 1.393 . S
C560 H549 0.950 . S
C560 C558 1.391 . S
C560 C561 1.400 . S
C561 C555 1.491 . S
C561 C560 1.400 . S
C561 C562 1.398 . S
C562 H550 0.950 . S
C562 C561 1.398 . S
C562 C563 1.391 . S
C563 H551 0.950 . S
C563 C559 1.393 . S
C563 C562 1.391 . S
H564 C572 0.950 . S
H565 C577 0.950 . S
H566 C574 0.950 . S
H567 C576 0.950 . S
H568 C578 0.950 . S
H569 C580 0.950 . S
H570 C582 0.950 . S
H571 C583 0.950 . S
C572 H564 0.950 . S
C572 C573 1.386 . S
C572 C574 1.391 . S
C573 C572 1.386 . S
C573 C577 1.393 . S
C574 H566 0.950 . S
C574 C572 1.391 . S
C574 C575 1.400 . S
C575 C574 1.400 . S
C575 C576 1.398 . S
C575 C581 1.491 . S
C576 H567 0.950 . S
C576 C575 1.398 . S
C576 C577 1.391 . S
C577 H565 0.950 . S
C577 C573 1.393 . S
C577 C576 1.391 . S
C578 H568 0.950 . S
C578 C579 1.386 . S
C578 C580 1.391 . S
C579 C578 1.386 . S
C579 C583 1.393 . S
C580 H569 0.950 . S
C580 C578 1.391 . S
C580 C581 1.400 . S
C581 C575 1.491 . S
C581 C580 1.400 . S
C581 C582 1.398 . S
C582 H570 0.950 . S
C582 C581 1.398 . S
C582 C583 1.391 . S
C583 H571 0.950 . S
C583 C579 1.393 . S
C583 C582 1.391 . S
H584 C592 0.950 . S
H585 C597 0.950 . S
H586 C594 0.950 . S
H587 C596 0.950 . S
H588 C598 0.950 . S
H589 C600 0.950 . S
H590 C602 0.950 . S
H591 C603 0.950 . S
C592 H584 0.950 . S
C592 C593 1.386 1_655 S
C592 C594 1.391 . S
C593 C592 1.386 1_455 S
C593 C597 1.393 . S
C594 H586 0.950 . S
C594 C592 1.391 . S
C594 C595 1.400 1_655 S
C595 C594 1.400 1_455 S
C595 C596 1.398 . S
C595 C601 1.491 . S
C596 H587 0.950 . S
C596 C595 1.398 . S
C596 C597 1.391 . S
C597 H585 0.950 . S
C597 C593 1.393 . S
C597 C596 1.391 . S
C598 H588 0.950 . S
C598 C599 1.386 . S
C598 C600 1.391 . S
C599 C598 1.386 . S
C599 C603 1.393 1_455 S
C600 H589 0.950 . S
C600 C598 1.391 . S
C600 C601 1.400 . S
C601 C595 1.491 . S
C601 C600 1.400 . S
C601 C602 1.398 1_455 S
C602 H590 0.950 . S
C602 C601 1.398 1_655 S
C602 C603 1.391 . S
C603 H591 0.950 . S
C603 C599 1.393 1_655 S
C603 C602 1.391 . S
H604 C612 0.950 . S
H605 C617 0.950 . S
H606 C614 0.950 . S
H607 C616 0.950 . S
H608 C618 0.950 . S
H609 C620 0.950 . S
H610 C622 0.950 . S
H611 C623 0.950 . S
C612 H604 0.950 . S
C612 C613 1.386 1_565 S
C612 C614 1.391 . S
C613 C612 1.386 1_545 S
C613 C617 1.393 . S
C614 H606 0.950 . S
C614 C612 1.391 . S
C614 C615 1.400 1_565 S
C615 C614 1.400 1_545 S
C615 C616 1.398 . S
C615 C621 1.491 . S
C616 H607 0.950 . S
C616 C615 1.398 . S
C616 C617 1.391 . S
C617 H605 0.950 . S
C617 C613 1.393 . S
C617 C616 1.391 . S
C618 H608 0.950 . S
C618 C619 1.386 . S
C618 C620 1.391 . S
C619 C618 1.386 . S
C619 C623 1.393 1_545 S
C620 H609 0.950 . S
C620 C618 1.391 . S
C620 C621 1.400 . S
C621 C615 1.491 . S
C621 C620 1.400 . S
C621 C622 1.398 1_545 S
C622 H610 0.950 . S
C622 C621 1.398 1_565 S
C622 C623 1.391 . S
C623 H611 0.950 . S
C623 C619 1.393 1_565 S
C623 C622 1.391 . S
H624 C632 0.950 . S
H625 C637 0.950 . S
H626 C634 0.950 . S
H627 C636 0.950 . S
H628 C638 0.950 . S
H629 C640 0.950 . S
H630 C642 0.950 . S
H631 C643 0.950 . S
C632 H624 0.950 . S
C632 C633 1.386 . S
C632 C634 1.391 . S
C633 C632 1.386 . S
C633 C637 1.393 . S
C634 H626 0.950 . S
C634 C632 1.391 . S
C634 C635 1.400 . S
C635 C634 1.400 . S
C635 C636 1.398 . S
C635 C641 1.491 . S
C636 H627 0.950 . S
C636 C635 1.398 . S
C636 C637 1.391 . S
C637 H625 0.950 . S
C637 C633 1.393 . S
C637 C636 1.391 . S
C638 H628 0.950 . S
C638 C639 1.386 . S
C638 C640 1.391 . S
C639 C638 1.386 . S
C639 C643 1.393 . S
C640 H629 0.950 . S
C640 C638 1.391 . S
C640 C641 1.400 . S
C641 C635 1.491 . S
C641 C640 1.400 . S
C641 C642 1.398 . S
C642 H630 0.950 . S
C642 C641 1.398 . S
C642 C643 1.391 . S
C643 H631 0.950 . S
C643 C639 1.393 . S
C643 C642 1.391 . S
H644 C652 0.950 . S
H645 C657 0.950 1_554 S
H646 C654 0.950 . S
H647 C656 0.950 . S
H648 C658 0.950 . S
H649 C660 0.950 . S
H650 C662 0.950 . S
H651 C663 0.950 . S
C652 H644 0.950 . S
C652 C653 1.386 . S
C652 C654 1.391 . S
C653 C652 1.386 . S
C653 C657 1.393 . S
C654 H646 0.950 . S
C654 C652 1.391 . S
C654 C655 1.400 . S
C655 C654 1.400 . S
C655 C656 1.398 . S
C655 C661 1.491 . S
C656 H647 0.950 . S
C656 C655 1.398 . S
C656 C657 1.391 . S
C657 H645 0.950 1_556 S
C657 C653 1.393 . S
C657 C656 1.391 . S
C658 H648 0.950 . S
C658 C659 1.386 . S
C658 C660 1.391 . S
C659 C658 1.386 . S
C659 C663 1.393 . S
C660 H649 0.950 . S
C660 C658 1.391 . S
C660 C661 1.400 . S
C661 C655 1.491 . S
C661 C660 1.400 . S
C661 C662 1.398 . S
C662 H650 0.950 . S
C662 C661 1.398 . S
C662 C663 1.391 . S
C663 H651 0.950 . S
C663 C659 1.393 . S
C663 C662 1.391 . S
H664 C672 0.950 . S
H665 C677 0.950 . S
H666 C674 0.950 . S
H667 C676 0.950 . S
H668 C678 0.950 . S
H669 C680 0.950 . S
H670 C682 0.950 . S
H671 C683 0.950 . S
C672 H664 0.950 . S
C672 C673 1.386 . S
C672 C674 1.391 . S
C673 C672 1.386 . S
C673 C677 1.393 1_655 S
C674 H666 0.950 . S
C674 C672 1.391 . S
C674 C675 1.400 . S
C675 C674 1.400 . S
C675 C676 1.398 1_655 S
C675 C681 1.491 . S
C676 H667 0.950 . S
C676 C675 1.398 1_455 S
C676 C677 1.391 . S
C677 H665 0.950 . S
C677 C673 1.393 1_455 S
C677 C676 1.391 . S
C678 H668 0.950 . S
C678 C679 1.386 1_455 S
C678 C680 1.391 . S
C679 C678 1.386 1_655 S
C679 C683 1.393 . S
C680 H669 0.950 . S
C680 C678 1.391 . S
C680 C681 1.400 1_455 S
C681 C675 1.491 . S
C681 C680 1.400 1_655 S
C681 C682 1.398 . S
C682 H670 0.950 . S
C682 C681 1.398 . S
C682 C683 1.391 . S
C683 H671 0.950 . S
C683 C679 1.393 . S
C683 C682 1.391 . S
H684 C692 0.950 . S
H685 C697 0.950 . S
H686 C694 0.950 . S
H687 C696 0.950 . S
H688 C698 0.950 . S
H689 C700 0.950 . S
H690 C702 0.950 . S
H691 C703 0.950 . S
C692 H684 0.950 . S
C692 C693 1.386 . S
C692 C694 1.391 . S
C693 C692 1.386 . S
C693 C697 1.393 1_565 S
C694 H686 0.950 . S
C694 C692 1.391 . S
C694 C695 1.400 . S
C695 C694 1.400 . S
C695 C696 1.398 1_565 S
C695 C701 1.491 . S
C696 H687 0.950 . S
C696 C695 1.398 1_545 S
C696 C697 1.391 . S
C697 H685 0.950 . S
C697 C693 1.393 1_545 S
C697 C696 1.391 . S
C698 H688 0.950 . S
C698 C699 1.386 1_545 S
C698 C700 1.391 . S
C699 C698 1.386 1_565 S
C699 C703 1.393 . S
C700 H689 0.950 . S
C700 C698 1.391 . S
C700 C701 1.400 1_545 S
C701 C695 1.491 . S
C701 C700 1.400 1_565 S
C701 C702 1.398 . S
C702 H690 0.950 . S
C702 C701 1.398 . S
C702 C703 1.391 . S
C703 H691 0.950 . S
C703 C699 1.393 . S
C703 C702 1.391 . S
H704 C712 0.950 . S
H705 C717 0.950 . S
H706 C714 0.950 . S
H707 C716 0.950 . S
H708 C718 0.950 . S
H709 C720 0.950 . S
H710 C722 0.950 . S
H711 C723 0.950 . S
C712 H704 0.950 . S
C712 C713 1.386 . S
C712 C714 1.391 . S
C713 C712 1.386 . S
C713 C717 1.393 . S
C714 H706 0.950 . S
C714 C712 1.391 . S
C714 C715 1.400 . S
C715 C714 1.400 . S
C715 C716 1.398 . S
C715 C721 1.491 . S
C716 H707 0.950 . S
C716 C715 1.398 . S
C716 C717 1.391 . S
C717 H705 0.950 . S
C717 C713 1.393 . S
C717 C716 1.391 . S
C718 H708 0.950 . S
C718 C719 1.386 . S
C718 C720 1.391 . S
C719 C718 1.386 . S
C719 C723 1.393 . S
C720 H709 0.950 . S
C720 C718 1.391 . S
C720 C721 1.400 . S
C721 C715 1.491 . S
C721 C720 1.400 . S
C721 C722 1.398 . S
C722 H710 0.950 . S
C722 C721 1.398 . S
C722 C723 1.391 . S
C723 H711 0.950 . S
C723 C719 1.393 . S
C723 C722 1.391 . S
H724 C732 0.950 . S
H725 C737 0.950 . S
H726 C734 0.950 . S
H727 C736 0.950 . S
H728 C738 0.950 . S
H729 C740 0.950 . S
H730 C742 0.950 . S
H731 C743 0.950 . S
C732 H724 0.950 . S
C732 C733 1.386 . S
C732 C734 1.391 . S
C733 C732 1.386 . S
C733 C737 1.393 . S
C734 H726 0.950 . S
C734 C732 1.391 . S
C734 C735 1.400 . S
C735 C734 1.400 . S
C735 C736 1.398 . S
C735 C741 1.491 . S
C736 H727 0.950 . S
C736 C735 1.398 . S
C736 C737 1.391 . S
C737 H725 0.950 . S
C737 C733 1.393 . S
C737 C736 1.391 . S
C738 H728 0.950 . S
C738 C739 1.386 . S
C738 C740 1.391 . S
C739 C738 1.386 . S
C739 C743 1.393 . S
C740 H729 0.950 . S
C740 C738 1.391 . S
C740 C741 1.400 . S
C741 C735 1.491 . S
C741 C740 1.400 . S
C741 C742 1.398 . S
C742 H730 0.950 . S
C742 C741 1.398 . S
C742 C743 1.391 . S
C743 H731 0.950 . S
C743 C739 1.393 . S
C743 C742 1.391 . S
C273 C82 1.658 . S
C279 C113 1.950 1_545 S
C299 C153 1.953 . S
C293 C95 1.679 . S
C319 C193 1.959 . S
C313 C56 1.676 . S
C339 C233 1.951 1_455 S
C333 C69 1.700 . S
C359 C122 1.951 1_565 S
C353 C30 1.695 . S
C373 C43 1.668 . S
C379 C162 1.962 . S
C393 C4 1.705 . S
C399 C202 1.961 . S
C413 C17 1.685 1_655 S
C419 C242 1.951 1_655 S
C439 C119 0.481 . S
C433 C74 0.473 . S
C459 C159 0.525 . S
C453 C87 0.507 . S
C479 C199 0.488 . S
C473 C100 0.483 . S
C493 C61 0.489 . S
C499 C239 0.508 . S
C513 C22 0.543 1_655 S
C519 C110 0.502 . S
C539 C150 0.538 . S
C533 C35 0.541 1_565 S
C559 C190 0.502 . S
C553 C48 0.489 . S
C573 C9 0.533 . S
C579 C230 0.539 . S
C593 C73 2.059 . S
C599 C123 2.257 . S
C613 C86 2.035 . S
C619 C163 2.238 . S
C639 C203 2.240 . S
C633 C99 2.003 . S
C659 C243 2.247 . S
C653 C60 2.030 . S
C673 C21 2.055 1_655 S
C679 C114 2.276 . S
C699 C154 2.241 . S
C693 C34 2.040 1_565 S
C719 C194 2.237 . S
C713 C47 2.031 . S
C733 C8 2.024 . S
C739 C234 2.265 . S
