# Generated by pormake.
# Topology pth, (4,4)-cn, num edge types: 1
# Building blocks:
#     Node 0, Type 0, BuildingBlock: QUQFOY_clean_sbu_1, # of connection points: 4
#     Node 1, Type 0, BuildingBlock: QUQFOY_clean_sbu_1, # of connection points: 4
#     Node 2, Type 0, BuildingBlock: QUQFOY_clean_sbu_1, # of connection points: 4
#     Node 3, Type 1, BuildingBlock: NAHDIM_clean_linker_0, # of connection points: 4
#     Node 4, Type 1, BuildingBlock: NAHDIM_clean_linker_0, # of connection points: 4
#     Node 5, Type 1, BuildingBlock: NAHDIM_clean_linker_0, # of connection points: 4
#     Edge 6, Type (0, 1), BuildingBlock: UVAHIK_clean_linker_0, # of connection points: 2
#     Edge 7, Type (0, 1), BuildingBlock: UVAHIK_clean_linker_0, # of connection points: 2
#     Edge 8, Type (0, 1), BuildingBlock: UVAHIK_clean_linker_0, # of connection points: 2
#     Edge 9, Type (0, 1), BuildingBlock: UVAHIK_clean_linker_0, # of connection points: 2
#     Edge 10, Type (0, 1), BuildingBlock: UVAHIK_clean_linker_0, # of connection points: 2
#     Edge 11, Type (0, 1), BuildingBlock: UVAHIK_clean_linker_0, # of connection points: 2
#     Edge 12, Type (0, 1), BuildingBlock: UVAHIK_clean_linker_0, # of connection points: 2
#     Edge 13, Type (0, 1), BuildingBlock: UVAHIK_clean_linker_0, # of connection points: 2
#     Edge 14, Type (0, 1), BuildingBlock: UVAHIK_clean_linker_0, # of connection points: 2
#     Edge 15, Type (0, 1), BuildingBlock: UVAHIK_clean_linker_0, # of connection points: 2
#     Edge 16, Type (0, 1), BuildingBlock: UVAHIK_clean_linker_0, # of connection points: 2
#     Edge 17, Type (0, 1), BuildingBlock: UVAHIK_clean_linker_0, # of connection points: 2
# Relax obj value: 0.026
# Max RMSD: 0.121
# Mean RMSD: 0.079
data_MOF--net-pth--node1-QUQFOY_clean_sbu_1--node2-NAHDIM_clean_linker_0--edge1-UVAHIK_clean_linker_0
_symmetry_space_group_name_H-M    P1
_symmetry_Int_Tables_number       1
_symmetry_cell_setting            triclinic
loop_
_symmetry_equiv_pos_as_xyz
'x, y, z'
_cell_length_a     37.112576
_cell_length_b     40.132079
_cell_length_c     100.64048
_cell_angle_alpha  89.719829
_cell_angle_beta   90.637432
_cell_angle_gamma 120.08538
loop_
_atom_site_label
_atom_site_type_symbol
_atom_site_fract_x
_atom_site_fract_y
_atom_site_fract_z
_atom_type_partial_charge
O0 O 0.03822 0.07226 0.06375 0.0
Cd1 Cd 0.99149 0.03812 0.07667 0.0
Cd2 Cd 0.03497 0.00182 0.07778 0.0
O3 O 0.08004 0.04908 0.0676 0.0
O4 O 0.96901 0.07119 0.08265 0.0
O5 O 5e-05 0.0495 0.09622 0.0
C6 C 0.98289 0.07036 0.09439 0.0
C7 C 0.05135 0.97521 0.09584 0.0
C8 C 0.0726 0.07335 0.0619 0.0
C9 C 0.94882 0.96054 0.06507 0.0
O10 O 0.9834 0.96195 0.06715 0.0
O11 O 0.94348 0.98784 0.06894 0.0
O12 O 0.06082 0.97134 0.08388 0.0
O13 O 0.0346 0.99632 0.09766 0.0
O14 O 0.98813 0.05802 0.41596 0.0
Cd15 Cd 0.03685 0.06328 0.40482 0.0
Cd16 Cd 0.99163 0.98604 0.40527 0.0
O17 O 0.94842 0.99482 0.41508 0.0
O18 O 0.06385 0.11659 0.39762 0.0
O19 O 0.03145 0.06449 0.385 0.0
C20 C 0.05063 0.10158 0.38602 0.0
C21 C 0.97293 0.94448 0.38717 0.0
C22 C 0.95447 0.02747 0.41879 0.0
C23 C 0.07638 0.02348 0.41844 0.0
O24 O 0.04235 0.99261 0.41602 0.0
O25 O 0.08177 0.05575 0.41443 0.0
O26 O 0.96197 0.93159 0.39908 0.0
O27 O 0.99319 0.98134 0.38544 0.0
O28 O 0.95383 0.99373 0.72369 0.0
Cd29 Cd 0.98999 0.97809 0.73478 0.0
Cd30 Cd 0.04053 0.05454 0.73764 0.0
O31 O 0.99294 0.05605 0.72736 0.0
O32 O 0.95288 0.92315 0.73953 0.0
O33 O 0.98056 0.96985 0.75448 0.0
C34 C 0.95679 0.93372 0.75179 0.0
C35 C 0.06637 0.09208 0.75677 0.0
C36 C 0.96072 0.02787 0.72219 0.0
C37 C 0.07524 0.01168 0.72324 0.0
O38 O 0.08133 0.04425 0.72707 0.0
O39 O 0.04102 0.98121 0.72568 0.0
O40 O 0.0747 0.10728 0.7451 0.0
O41 O 0.04299 0.05513 0.75764 0.0
C42 C 0.06155 0.68382 0.31907 0.0
C43 C 0.03846 0.69128 0.30773 0.0
C44 C 0.01113 0.63183 0.29447 0.0
C45 C 0.04972 0.6394 0.28941 0.0
C46 C 0.05261 0.61239 0.28136 0.0
C47 C 0.01621 0.57729 0.27817 0.0
C48 C 0.97728 0.56974 0.28308 0.0
C49 C 0.9753 0.59716 0.29118 0.0
C50 C 0.09465 0.62129 0.27629 0.0
C51 C 0.93784 0.53273 0.27975 0.0
C52 C 0.01504 0.30744 0.3028 0.0
C53 C 0.00542 0.33191 0.29397 0.0
C54 C 0.03367 0.39942 0.28781 0.0
C55 C 0.99629 0.39402 0.28214 0.0
C56 C 0.99433 0.42473 0.27618 0.0
C57 C 0.03064 0.46148 0.27563 0.0
C58 C 0.0682 0.46717 0.28144 0.0
C59 C 0.06912 0.43603 0.28752 0.0
C60 C 0.95348 0.41775 0.27031 0.0
C61 C 0.10746 0.50596 0.28099 0.0
C62 C 0.05025 0.42044 0.19057 0.0
C63 C 0.01093 0.40891 0.19582 0.0
C64 C 0.00319 0.43544 0.20237 0.0
C65 C 0.03585 0.47403 0.20394 0.0
C66 C 0.07513 0.48594 0.1982 0.0
C67 C 0.0816 0.45898 0.19139 0.0
C68 C 0.96039 0.42204 0.20786 0.0
C69 C 0.11057 0.52683 0.1996 0.0
C70 C 0.93806 0.68337 0.20106 0.0
C71 C 0.97863 0.69029 0.19477 0.0
C72 C 0.98312 0.63188 0.19448 0.0
C73 C 0.95358 0.59281 0.19542 0.0
C74 C 0.96362 0.56685 0.20141 0.0
C75 C 0.00469 0.58032 0.20617 0.0
C76 C 0.03538 0.61954 0.20452 0.0
C77 C 0.02411 0.64505 0.1988 0.0
C78 C 0.93013 0.52522 0.20292 0.0
C79 C 0.07986 0.63458 0.20895 0.0
C80 C 0.01913 0.54861 0.26968 0.0
C81 C 0.02409 0.51994 0.27593 0.0
C82 C 0.02937 0.49336 0.26851 0.0
C83 C 0.03101 0.49604 0.25449 0.0
C84 C 0.03881 0.47126 0.24678 0.0
C85 C 0.03922 0.47338 0.23299 0.0
C86 C 0.03108 0.49989 0.22635 0.0
C87 C 0.02973 0.50117 0.21231 0.0
C88 C 0.02177 0.52802 0.20603 0.0
C89 C 0.01487 0.55371 0.21342 0.0
C90 C 0.01606 0.55281 0.22748 0.0
C91 C 0.00905 0.57807 0.23524 0.0
C92 C 0.01053 0.57709 0.24905 0.0
C93 C 0.01806 0.55019 0.25565 0.0
C94 C 0.02448 0.52405 0.24804 0.0
C95 C 0.02403 0.52569 0.23394 0.0
C96 C 0.09594 0.37213 0.19728 0.0
C97 C 0.05442 0.3621 0.1906 0.0
O98 O 0.00697 0.65673 0.3026 0.0
O99 O 0.9715 0.65607 0.18908 0.0
O100 O 0.05841 0.39489 0.18454 0.0
O101 O 0.03674 0.37022 0.2936 0.0
H102 H 0.06086 0.70802 0.29974 0.0
H103 H 0.07668 0.66784 0.31542 0.0
H104 H 0.0396 0.66655 0.32707 0.0
H105 H 0.08622 0.71156 0.32333 0.0
H106 H 0.07784 0.66611 0.29171 0.0
H107 H 0.94565 0.59155 0.29507 0.0
H108 H 0.10125 0.5983 0.27943 0.0
H109 H 0.12024 0.64942 0.27996 0.0
H110 H 0.09441 0.6218 0.26526 0.0
H111 H 0.90983 0.53158 0.28409 0.0
H112 H 0.94027 0.50788 0.28354 0.0
H113 H 0.93371 0.52953 0.2688 0.0
H114 H 0.99328 0.31975 0.28389 0.0
H115 H 0.97057 0.29051 0.31781 0.0
H116 H 0.04959 0.32419 0.30486 0.0
H117 H 0.01677 0.28621 0.29594 0.0
H118 H 0.96847 0.36592 0.2823 0.0
H119 H 0.09776 0.44001 0.29196 0.0
H120 H 0.95575 0.41971 0.25932 0.0
H121 H 0.94655 0.44016 0.27378 0.0
H122 H 0.92709 0.38897 0.27299 0.0
H123 H 0.13458 0.5053 0.28548 0.0
H124 H 0.10264 0.52741 0.28643 0.0
H125 H 0.11476 0.51587 0.27054 0.0
H126 H 0.03008 0.35159 0.1984 0.0
H127 H 0.98636 0.37919 0.19475 0.0
H128 H 0.11165 0.46756 0.18708 0.0
H129 H 0.96142 0.42007 0.21885 0.0
H130 H 0.93692 0.39333 0.20392 0.0
H131 H 0.95015 0.44306 0.20542 0.0
H132 H 0.13971 0.53106 0.19505 0.0
H133 H 0.11667 0.53479 0.21028 0.0
H134 H 0.10187 0.54675 0.19476 0.0
H135 H 0.00272 0.69975 0.20278 0.0
H136 H 0.94278 0.70958 0.2063 0.0
H137 H 0.92731 0.6597 0.20845 0.0
H138 H 0.91337 0.67512 0.19334 0.0
H139 H 0.9222 0.58296 0.19181 0.0
H140 H 0.04729 0.67516 0.19758 0.0
H141 H 0.92792 0.51633 0.21348 0.0
H142 H 0.93838 0.50671 0.19704 0.0
H143 H 0.89912 0.51995 0.1995 0.0
H144 H 0.10102 0.66417 0.20522 0.0
H145 H 0.09111 0.61523 0.20542 0.0
H146 H 0.08155 0.63513 0.21996 0.0
H147 H 0.02362 0.51816 0.28669 0.0
H148 H 0.04484 0.45 0.25132 0.0
H149 H 0.0456 0.45365 0.22761 0.0
H150 H 0.02047 0.52865 0.19526 0.0
H151 H 0.00249 0.59903 0.23074 0.0
H152 H 0.00514 0.59737 0.25449 0.0
H153 H 0.09347 0.34674 0.20259 0.0
H154 H 0.10471 0.39551 0.20466 0.0
H155 H 0.12099 0.38206 0.18977 0.0
C156 C 0.38091 0.92754 0.66397 0.0
C157 C 0.38 0.95798 0.65499 0.0
C158 C 0.39503 0.96193 0.63152 0.0
C159 C 0.41194 0.00153 0.62942 0.0
C160 C 0.44104 0.02048 0.61934 0.0
C161 C 0.45403 0.99941 0.61143 0.0
C162 C 0.43511 0.95898 0.61307 0.0
C163 C 0.40508 0.94065 0.62296 0.0
C164 C 0.45926 0.06329 0.61758 0.0
C165 C 0.44835 0.93542 0.60499 0.0
C166 C 0.71618 0.17567 0.65725 0.0
C167 C 0.70007 0.13688 0.65031 0.0
C168 C 0.67387 0.12157 0.62775 0.0
C169 C 0.65363 0.08129 0.62785 0.0
C170 C 0.62051 0.05954 0.61902 0.0
C171 C 0.60657 0.0786 0.61027 0.0
C172 C 0.62775 0.11945 0.61001 0.0
C173 C 0.66196 0.14036 0.61853 0.0
C174 C 0.59982 0.01619 0.61935 0.0
C175 C 0.61337 0.1412 0.6012 0.0
C176 C 0.67981 0.08975 0.52745 0.0
C177 C 0.6537 0.04999 0.52939 0.0
C178 C 0.6141 0.03555 0.53495 0.0
C179 C 0.60021 0.06135 0.5384 0.0
C180 C 0.62513 0.101 0.53547 0.0
C181 C 0.66468 0.11467 0.52999 0.0
C182 C 0.5877 0.99293 0.53758 0.0
C183 C 0.61076 0.12913 0.5387 0.0
C184 C 0.26296 0.94516 0.5337 0.0
C185 C 0.30041 0.97461 0.52573 0.0
C186 C 0.36674 0.97557 0.52804 0.0
C187 C 0.38167 0.95058 0.53097 0.0
C188 C 0.42147 0.96435 0.53655 0.0
C189 C 0.44687 0.00417 0.53918 0.0
C190 C 0.43298 0.02993 0.53544 0.0
C191 C 0.39313 0.01539 0.52979 0.0
C192 C 0.43581 0.93625 0.54009 0.0
C193 C 0.45985 0.0727 0.53774 0.0
C194 C 0.49152 0.02013 0.60301 0.0
C195 C 0.53007 0.03899 0.60954 0.0
C196 C 0.56732 0.0561 0.60251 0.0
C197 C 0.56626 0.0531 0.58852 0.0
C198 C 0.60295 0.06677 0.58117 0.0
C199 C 0.60158 0.06455 0.56737 0.0
C200 C 0.56346 0.04903 0.56038 0.0
C201 C 0.56184 0.0475 0.54633 0.0
C202 C 0.52355 0.03256 0.53968 0.0
C203 C 0.48647 0.01856 0.54674 0.0
C204 C 0.48735 0.01896 0.5608 0.0
C205 C 0.45053 0.00432 0.56823 0.0
C206 C 0.45174 0.00449 0.58206 0.0
C207 C 0.48983 0.01995 0.58898 0.0
C208 C 0.52737 0.03586 0.58171 0.0
C209 C 0.52605 0.03458 0.56762 0.0
C210 C 0.78473 0.12102 0.53318 0.0
C211 C 0.74614 0.09073 0.52566 0.0
O212 O 0.37052 0.944 0.64209 0.0
O213 O 0.3269 0.9602 0.52354 0.0
O214 O 0.71966 0.10515 0.52323 0.0
O215 O 0.70422 0.14288 0.63671 0.0
H216 H 0.41189 0.98375 0.65554 0.0
H217 H 0.40548 0.92153 0.66059 0.0
H218 H 0.35055 0.9002 0.66366 0.0
H219 H 0.38808 0.93806 0.6744 0.0
H220 H 0.40305 0.01771 0.63587 0.0
H221 H 0.3913 0.90996 0.62461 0.0
H222 H 0.49051 0.07864 0.62238 0.0
H223 H 0.43951 0.07357 0.62218 0.0
H224 H 0.46307 0.07102 0.60687 0.0
H225 H 0.43312 0.90494 0.60831 0.0
H226 H 0.48264 0.94799 0.60568 0.0
H227 H 0.44019 0.93586 0.59438 0.0
H228 H 0.6665 0.11874 0.65289 0.0
H229 H 0.71234 0.17166 0.66818 0.0
H230 H 0.69823 0.18941 0.65372 0.0
H231 H 0.74964 0.19526 0.65503 0.0
H232 H 0.66364 0.06693 0.63487 0.0
H233 H 0.67818 0.17157 0.61855 0.0
H234 H 0.59167 0.00404 0.60915 0.0
H235 H 0.57058 0.00431 0.6251 0.0
H236 H 0.62008 0.0065 0.62416 0.0
H237 H 0.62825 0.17209 0.604 0.0
H238 H 0.57904 0.12833 0.60169 0.0
H239 H 0.6215 0.13959 0.59074 0.0
H240 H 0.73145 0.06507 0.53226 0.0
H241 H 0.66422 0.03019 0.52672 0.0
H242 H 0.68468 0.14519 0.52814 0.0
H243 H 0.58266 0.98791 0.54843 0.0
H244 H 0.60224 0.97646 0.53385 0.0
H245 H 0.55667 0.98162 0.53276 0.0
H246 H 0.63159 0.15814 0.53447 0.0
H247 H 0.60998 0.13186 0.54965 0.0
H248 H 0.57865 0.11831 0.53482 0.0
H249 H 0.31569 0.00117 0.5319 0.0
H250 H 0.24101 0.95589 0.53543 0.0
H251 H 0.2737 0.94041 0.54351 0.0
H252 H 0.24624 0.91711 0.5284 0.0
H253 H 0.36143 0.92 0.52928 0.0
H254 H 0.38276 0.0352 0.52682 0.0
H255 H 0.43836 0.93494 0.55106 0.0
H256 H 0.46721 0.94621 0.53594 0.0
H257 H 0.41406 0.90679 0.53632 0.0
H258 H 0.44491 0.08903 0.53402 0.0
H259 H 0.49017 0.08358 0.53268 0.0
H260 H 0.46645 0.07847 0.54853 0.0
H261 H 0.53109 0.04033 0.62032 0.0
H262 H 0.63312 0.07919 0.58604 0.0
H263 H 0.6309 0.07553 0.56227 0.0
H264 H 0.52261 0.0319 0.5289 0.0
H265 H 0.42029 0.99228 0.56344 0.0
H266 H 0.42251 0.99271 0.58728 0.0
H267 H 0.80666 0.11025 0.5351 0.0
H268 H 0.77539 0.12725 0.54288 0.0
H269 H 0.80099 0.14829 0.52744 0.0
C270 C 0.63803 0.60819 0.82625 0.0
C271 C 0.64829 0.64283 0.83512 0.0
C272 C 0.62744 0.61518 0.85699 0.0
C273 C 0.59757 0.62512 0.86047 0.0
C274 C 0.56535 0.60206 0.86923 0.0
C275 C 0.56294 0.56827 0.87453 0.0
C276 C 0.59389 0.55889 0.87135 0.0
C277 C 0.62617 0.58287 0.86273 0.0
C278 C 0.53359 0.61353 0.87268 0.0
C279 C 0.59235 0.52316 0.87685 0.0
C280 C 0.23832 0.35431 0.87492 0.0
C281 C 0.27083 0.35206 0.86637 0.0
C282 C 0.33693 0.41276 0.86638 0.0
C283 C 0.36496 0.40012 0.86967 0.0
C284 C 0.40436 0.42573 0.87508 0.0
C285 C 0.41569 0.46461 0.87729 0.0
C286 C 0.38809 0.47769 0.87344 0.0
C287 C 0.3492 0.45159 0.86786 0.0
C288 C 0.43356 0.41113 0.8787 0.0
C289 C 0.39927 0.519 0.87553 0.0
C290 C 0.35747 0.41588 0.96202 0.0
C291 C 0.38533 0.40448 0.95755 0.0
C292 C 0.42213 0.43074 0.9511 0.0
C293 C 0.43093 0.46901 0.94902 0.0
C294 C 0.4039 0.48101 0.95415 0.0
C295 C 0.36767 0.45427 0.96075 0.0
C296 C 0.45102 0.41736 0.94617 0.0
C297 C 0.4126 0.52169 0.95226 0.0
C298 C 0.7417 0.71188 0.95013 0.0
C299 C 0.70787 0.70165 0.96049 0.0
C300 C 0.65089 0.63504 0.95801 0.0
C301 C 0.64574 0.59886 0.95516 0.0
C302 C 0.60868 0.56982 0.9494 0.0
C303 C 0.57597 0.57725 0.94654 0.0
C304 C 0.58017 0.61315 0.95003 0.0
C305 C 0.61749 0.64159 0.95585 0.0
C306 C 0.60479 0.53154 0.94606 0.0
C307 C 0.54539 0.62157 0.94745 0.0
C308 C 0.52749 0.54233 0.88313 0.0
C309 C 0.48999 0.51584 0.87694 0.0
C310 C 0.45512 0.49099 0.8844 0.0
C311 C 0.45767 0.49207 0.89844 0.0
C312 C 0.42317 0.46748 0.90624 0.0
C313 C 0.42599 0.46854 0.92003 0.0
C314 C 0.46335 0.49439 0.92658 0.0
C315 C 0.46655 0.49554 0.94061 0.0
C316 C 0.50373 0.52236 0.94683 0.0
C317 C 0.53809 0.54825 0.93937 0.0
C318 C 0.5358 0.54703 0.92532 0.0
C319 C 0.56995 0.57241 0.91752 0.0
C320 C 0.56736 0.57095 0.90371 0.0
C321 C 0.53047 0.54413 0.89716 0.0
C322 C 0.49551 0.51863 0.90483 0.0
C323 C 0.49827 0.51995 0.91892 0.0
C324 C 0.25387 0.35154 0.95778 0.0
C325 C 0.29373 0.35355 0.96304 0.0
O326 O 0.65719 0.63596 0.84792 0.0
O327 O 0.6881 0.66244 0.96307 0.0
O328 O 0.32059 0.39058 0.9676 0.0
O329 O 0.29825 0.38847 0.86148 0.0
H330 H 0.62051 0.64655 0.83511 0.0
H331 H 0.61009 0.58211 0.83005 0.0
H332 H 0.66446 0.60257 0.82614 0.0
H333 H 0.63123 0.61347 0.81592 0.0
H334 H 0.59945 0.65089 0.85632 0.0
H335 H 0.64971 0.57574 0.86005 0.0
H336 H 0.50298 0.59241 0.86829 0.0
H337 H 0.54233 0.64265 0.8689 0.0
H338 H 0.52982 0.61307 0.88362 0.0
H339 H 0.61767 0.51897 0.87292 0.0
H340 H 0.56189 0.49743 0.87435 0.0
H341 H 0.59515 0.52513 0.88784 0.0
H342 H 0.28733 0.34126 0.87282 0.0
H343 H 0.21614 0.3255 0.87904 0.0
H344 H 0.2207 0.36493 0.86898 0.0
H345 H 0.25398 0.37441 0.88335 0.0
H346 H 0.35624 0.37039 0.86794 0.0
H347 H 0.32757 0.46114 0.86502 0.0
H348 H 0.4373 0.41156 0.88967 0.0
H349 H 0.4648 0.43032 0.87444 0.0
H350 H 0.42197 0.38129 0.87511 0.0
H351 H 0.37379 0.52431 0.87239 0.0
H352 H 0.42756 0.53828 0.86978 0.0
H353 H 0.40658 0.52679 0.88619 0.0
H354 H 0.30753 0.34612 0.95458 0.0
H355 H 0.37826 0.37508 0.95907 0.0
H356 H 0.34625 0.46286 0.9645 0.0
H357 H 0.44981 0.41621 0.93514 0.0
H358 H 0.44253 0.38835 0.95 0.0
H359 H 0.48362 0.43811 0.94918 0.0
H360 H 0.38782 0.52613 0.95651 0.0
H361 H 0.41541 0.52881 0.94151 0.0
H362 H 0.44272 0.54207 0.95711 0.0
H363 H 0.68599 0.71022 0.95622 0.0
H364 H 0.75832 0.74332 0.94807 0.0
H365 H 0.72728 0.69636 0.94071 0.0
H366 H 0.76457 0.7035 0.95361 0.0
H367 H 0.67135 0.59379 0.95716 0.0
H368 H 0.62014 0.66863 0.95878 0.0
H369 H 0.60191 0.52728 0.93512 0.0
H370 H 0.57611 0.50783 0.95055 0.0
H371 H 0.63204 0.52947 0.94964 0.0
H372 H 0.55356 0.65097 0.95071 0.0
H373 H 0.51701 0.60027 0.95277 0.0
H374 H 0.53767 0.61863 0.93667 0.0
H375 H 0.48779 0.51481 0.86617 0.0
H376 H 0.39354 0.447 0.9018 0.0
H377 H 0.39837 0.44884 0.92548 0.0
H378 H 0.50582 0.52338 0.9576 0.0
H379 H 0.59916 0.59367 0.922 0.0
H380 H 0.59465 0.59116 0.89823 0.0
H381 H 0.23838 0.35869 0.96576 0.0
H382 H 0.23191 0.32222 0.95392 0.0
H383 H 0.26148 0.37243 0.94953 0.0
C384 C 0.97609 0.12618 0.10177 0.0
C385 C 0.98232 0.09532 0.10504 0.0
C386 C 0.98046 0.15281 0.11143 0.0
C387 C 0.97582 0.17036 0.1462 0.0
H388 H 0.06273 0.2751 0.13892 0.0
C389 C 0.02799 0.29224 0.1851 0.0
C390 C 0.04201 0.32993 0.18058 0.0
C391 C 0.01886 0.26246 0.17614 0.0
C392 C 0.03776 0.24625 0.14105 0.0
H393 H 0.99597 0.0671 0.12114 0.0
H394 H 0.00234 0.11338 0.13819 0.0
H395 H 0.04795 0.22437 0.12297 0.0
H396 H 0.05706 0.36568 0.16293 0.0
H397 H 0.03885 0.31366 0.14734 0.0
H398 H 0.96428 0.19216 0.16402 0.0
C399 C 0.99461 0.11695 0.12807 0.0
C400 C 0.02962 0.21716 0.13193 0.0
C401 C 0.99106 0.09062 0.11833 0.0
C402 C 0.04609 0.33703 0.16682 0.0
C403 C 0.03614 0.30712 0.15785 0.0
C404 C 0.98334 0.19964 0.15523 0.0
C405 C 0.99031 0.14872 0.1246 0.0
C406 C 0.99865 0.17903 0.13443 0.0
C407 C 0.02295 0.26949 0.16237 0.0
C408 C 0.01447 0.23806 0.15278 0.0
H409 H 0.96945 0.13069 0.09162 0.0
H410 H 0.97684 0.17704 0.10856 0.0
H411 H 0.95162 0.1411 0.14828 0.0
H412 H 0.0249 0.28601 0.19565 0.0
H413 H 0.00953 0.23416 0.18008 0.0
C414 C 0.92382 0.06526 0.42801 0.0
C415 C 0.92363 0.03027 0.42716 0.0
C416 C 0.89824 0.06967 0.43703 0.0
C417 C 0.80995 0.01681 0.46045 0.0
H418 H 0.86396 0.11502 0.47883 0.0
C419 C 0.75733 0.04531 0.51119 0.0
C420 C 0.75845 0.08062 0.51268 0.0
C421 C 0.77219 0.03739 0.49962 0.0
C422 C 0.84819 0.08763 0.47367 0.0
H423 H 0.89526 0.97189 0.43467 0.0
H424 H 0.85155 0.97992 0.45079 0.0
H425 H 0.89929 0.1043 0.46063 0.0
H426 H 0.77498 0.13489 0.50315 0.0
H427 H 0.8012 0.12119 0.48295 0.0
H428 H 0.75945 0.99992 0.474 0.0
C429 C 0.8708 0.00378 0.4443 0.0
C430 C 0.86837 0.08147 0.46318 0.0
C431 C 0.89599 0.99919 0.4351 0.0
C432 C 0.77376 0.10746 0.50225 0.0
C433 C 0.78888 0.09968 0.49074 0.0
C434 C 0.78988 0.02289 0.47107 0.0
C435 C 0.87239 0.03941 0.44561 0.0
C436 C 0.8496 0.046 0.45642 0.0
C437 C 0.78887 0.06483 0.48939 0.0
C438 C 0.80888 0.05838 0.47779 0.0
H439 H 0.94436 0.08956 0.42187 0.0
H440 H 0.89942 0.09715 0.43748 0.0
H441 H 0.79436 0.98929 0.45538 0.0
H442 H 0.74586 0.02422 0.51911 0.0
H443 H 0.77216 0.01046 0.4989 0.0
C444 C 0.90847 0.86608 0.75889 0.0
C445 C 0.93263 0.90526 0.76221 0.0
C446 C 0.88181 0.83942 0.76816 0.0
C447 C 0.85516 0.82119 0.80363 0.0
H448 H 0.7443 0.75327 0.78949 0.0
C449 C 0.67736 0.70372 0.82155 0.0
C450 C 0.68478 0.67884 0.82948 0.0
C451 C 0.70989 0.73419 0.81479 0.0
C452 C 0.77498 0.77221 0.79364 0.0
H453 H 0.94943 0.94689 0.77813 0.0
H454 H 0.9024 0.90002 0.79439 0.0
H455 H 0.7978 0.80012 0.77499 0.0
H456 H 0.73223 0.6667 0.83669 0.0
H457 H 0.78941 0.72024 0.82482 0.0
H458 H 0.83182 0.79291 0.82236 0.0
C459 C 0.90431 0.89008 0.78458 0.0
C460 C 0.8058 0.79875 0.78529 0.0
C461 C 0.93109 0.9169 0.77526 0.0
C462 C 0.72576 0.68578 0.8308 0.0
C463 C 0.75843 0.71642 0.82403 0.0
C464 C 0.82422 0.79425 0.81202 0.0
C465 C 0.87857 0.85124 0.78099 0.0
C466 C 0.84627 0.82343 0.79015 0.0
C467 C 0.7506 0.74035 0.81569 0.0
C468 C 0.78376 0.76956 0.80709 0.0
H469 H 0.90925 0.85602 0.74899 0.0
H470 H 0.86299 0.80955 0.76519 0.0
H471 H 0.88613 0.83981 0.80764 0.0
H472 H 0.64608 0.69889 0.82026 0.0
H473 H 0.70297 0.75242 0.80857 0.0
C474 C 0.0631 0.9225 0.10389 0.0
C475 C 0.05549 0.95264 0.10681 0.0
C476 C 0.06052 0.897 0.1138 0.0
C477 C 0.06474 0.88067 0.149 0.0
H478 H 0.97945 0.77539 0.14131 0.0
C479 C 0.00774 0.76022 0.18866 0.0
C480 C 0.99342 0.7222 0.18449 0.0
C481 C 0.01873 0.78975 0.17939 0.0
C482 C 0.00403 0.80439 0.14357 0.0
H483 H 0.04183 0.98113 0.12259 0.0
H484 H 0.03845 0.9368 0.14007 0.0
H485 H 0.99505 0.82549 0.12498 0.0
H486 H 0.98094 0.6858 0.16714 0.0
H487 H 0.00234 0.73732 0.15111 0.0
H488 H 0.07486 0.85963 0.16741 0.0
C489 C 0.04592 0.93291 0.13003 0.0
C490 C 0.01267 0.83313 0.13422 0.0
C491 C 0.04778 0.95815 0.12004 0.0
C492 C 0.99167 0.71463 0.17079 0.0
C493 C 0.00353 0.74428 0.16154 0.0
C494 C 0.05673 0.85173 0.15829 0.0
C495 C 0.05104 0.9015 0.12688 0.0
C496 C 0.04296 0.87148 0.13686 0.0
C497 C 0.01646 0.78215 0.16568 0.0
C498 C 0.0261 0.81314 0.15572 0.0
H499 H 0.06911 0.91742 0.09381 0.0
H500 H 0.06482 0.87307 0.11117 0.0
H501 H 0.08837 0.91012 0.1512 0.0
H502 H 0.00946 0.76693 0.19914 0.0
H503 H 0.02792 0.81829 0.18302 0.0
C504 C 0.10834 0.98671 0.42803 0.0
C505 C 0.10847 0.02161 0.42672 0.0
C506 C 0.13525 0.98337 0.43702 0.0
C507 C 0.22707 0.03913 0.45947 0.0
H508 H 0.17602 0.94338 0.47928 0.0
C509 C 0.28695 0.01777 0.51053 0.0
C510 C 0.28622 0.98278 0.51259 0.0
C511 C 0.27041 0.02398 0.49885 0.0
C512 C 0.19097 0.97008 0.47372 0.0
H513 H 0.13806 0.08089 0.4334 0.0
H514 H 0.18413 0.07478 0.44946 0.0
H515 H 0.13801 0.95164 0.46101 0.0
H516 H 0.26863 0.92727 0.50395 0.0
H517 H 0.23945 0.93798 0.48356 0.0
H518 H 0.27949 0.05786 0.4727 0.0
C519 C 0.16388 0.05013 0.44334 0.0
C520 C 0.16924 0.97482 0.46319 0.0
C521 C 0.13734 0.05363 0.43417 0.0
C522 C 0.26957 0.95449 0.5026 0.0
C523 C 0.25276 0.96057 0.49098 0.0
C524 C 0.2487 0.03448 0.47014 0.0
C525 C 0.16244 0.01466 0.44511 0.0
C526 C 0.1869 0.00942 0.45592 0.0
C527 C 0.25242 0.99512 0.48908 0.0
C528 C 0.23077 0.9999 0.47738 0.0
H529 H 0.08684 0.96167 0.42227 0.0
H530 H 0.13407 0.95592 0.43781 0.0
H531 H 0.24186 0.06598 0.45401 0.0
H532 H 0.29942 0.03997 0.51809 0.0
H533 H 0.27021 0.05073 0.4977 0.0
C534 C 0.10131 0.1567 0.76765 0.0
C535 C 0.08369 0.11659 0.76871 0.0
C536 C 0.1189 0.18035 0.77874 0.0
C537 C 0.16871 0.18591 0.81068 0.0
H538 H 0.14514 0.26786 0.81797 0.0
C539 C 0.23702 0.28494 0.85669 0.0
C540 C 0.24962 0.32405 0.85502 0.0
C541 C 0.21527 0.25836 0.84658 0.0
C542 C 0.15253 0.24546 0.81599 0.0
H543 H 0.07053 0.06976 0.78227 0.0
H544 H 0.10202 0.11139 0.80171 0.0
H545 H 0.10935 0.22349 0.79965 0.0
H546 H 0.24801 0.36575 0.84162 0.0
H547 H 0.21159 0.31982 0.82378 0.0
H548 H 0.21279 0.20844 0.82673 0.0
C549 C 0.10199 0.12435 0.79225 0.0
C550 C 0.13181 0.21993 0.80554 0.0
C551 C 0.08382 0.10057 0.78115 0.0
C552 C 0.23948 0.33594 0.8431 0.0
C553 C 0.21807 0.30945 0.83294 0.0
C554 C 0.18978 0.21171 0.82107 0.0
C555 C 0.11972 0.16448 0.79113 0.0
C556 C 0.13991 0.19008 0.80272 0.0
C557 C 0.20551 0.27027 0.83457 0.0
C558 C 0.1822 0.24202 0.82379 0.0
H559 H 0.10163 0.16993 0.75821 0.0
H560 H 0.13269 0.2112 0.77756 0.0
H561 H 0.17588 0.16341 0.80863 0.0
H562 H 0.24359 0.27488 0.86591 0.0
H563 H 0.20543 0.22834 0.84829 0.0
C564 C 0.93665 0.07214 0.7136 0.0
C565 C 0.93183 0.03513 0.71408 0.0
C566 C 0.9105 0.07953 0.70561 0.0
C567 C 0.80901 0.03232 0.68792 0.0
H568 H 0.85703 0.13099 0.67 0.0
C569 C 0.7099 0.09416 0.6666 0.0
C570 C 0.7238 0.11765 0.65527 0.0
C571 C 0.73388 0.0799 0.67234 0.0
C572 C 0.84311 0.10302 0.67474 0.0
H573 H 0.8954 0.9767 0.70659 0.0
H574 H 0.85011 0.98981 0.69245 0.0
H575 H 0.90179 0.11438 0.6827 0.0
H576 H 0.77359 0.14438 0.64096 0.0
H577 H 0.81493 0.11846 0.65068 0.0
H578 H 0.75035 0.02078 0.67974 0.0
C579 C 0.87381 0.013 0.69841 0.0
C580 C 0.86874 0.09375 0.68221 0.0
C581 C 0.89988 0.00553 0.70648 0.0
C582 C 0.76182 0.12594 0.6496 0.0
C583 C 0.78568 0.1114 0.65526 0.0
C584 C 0.78334 0.04152 0.68036 0.0
C585 C 0.87903 0.05018 0.6978 0.0
C586 C 0.85193 0.05862 0.68911 0.0
C587 C 0.77243 0.08888 0.66687 0.0
C588 C 0.79999 0.07727 0.67385 0.0
H589 H 0.96071 0.09553 0.71941 0.0
H590 H 0.91481 0.10829 0.70563 0.0
H591 H 0.79498 0.00506 0.69313 0.0
H592 H 0.68103 0.08789 0.67129 0.0
H593 H 0.72298 0.06323 0.68139 0.0
C594 C 0.91891 0.89507 0.05503 0.0
C595 C 0.91618 0.92829 0.0572 0.0
C596 C 0.89151 0.86664 0.04623 0.0
C597 C 0.79361 0.83202 0.0266 0.0
H598 H 0.84722 0.79433 0.003 0.0
C599 C 0.72195 0.75533 0.97655 0.0
C600 C 0.72671 0.72381 0.97321 0.0
C601 C 0.74141 0.77724 0.98789 0.0
C602 C 0.83159 0.80411 0.00962 0.0
H603 H 0.88128 0.95687 0.05234 0.0
H604 H 0.83395 0.90757 0.03673 0.0
H605 H 0.88699 0.83753 0.02106 0.0
H606 H 0.75526 0.6903 0.97914 0.0
H607 H 0.78925 0.72851 -0.00101 0.0
H608 H 0.73841 0.79917 0.01479 0.0
C609 C 0.85691 0.90323 0.04197 0.0
C610 C 0.85437 0.82884 0.02001 0.0
C611 C 0.88413 0.93157 0.05089 0.0
C612 C 0.75097 0.71437 0.98151 0.0
C613 C 0.77055 0.73635 0.99282 0.0
C614 C 0.77082 0.80735 0.01612 0.0
C615 C 0.86101 0.87091 0.03928 0.0
C616 C 0.83574 0.8432 0.02862 0.0
C617 C 0.76634 0.76826 0.99605 0.0
C618 C 0.78965 0.79324 0.0075 0.0
H619 H 0.94291 0.89143 0.05988 0.0
H620 H 0.89487 0.84166 0.04466 0.0
H621 H 0.7782 0.84224 0.03312 0.0
H622 H 0.7037 0.76341 0.97026 0.0
H623 H 0.73802 0.80194 0.99004 0.0
C624 C 0.99037 0.93046 0.36468 0.0
C625 C 0.96587 0.91759 0.37615 0.0
C626 C 0.98898 0.90399 0.35539 0.0
C627 C 0.96423 0.80284 0.35435 0.0
H628 H 0.98775 0.82368 0.31683 0.0
C629 C 0.98434 0.69779 0.32088 0.0
C630 C 0.02014 0.71487 0.31295 0.0
C631 C 0.97042 0.72043 0.32699 0.0
C632 C 0.98115 0.8175 0.3273 0.0
H633 H 0.9181 0.86731 0.38633 0.0
H634 H 0.91454 0.8213 0.36994 0.0
H635 H 0.97493 0.8672 0.33027 0.0
H636 H 0.06915 0.76893 0.30514 0.0
H637 H 0.04486 0.80851 0.31579 0.0
H638 H 0.97114 0.75363 0.35146 0.0
C639 C 0.93597 0.85166 0.36831 0.0
C640 C 0.97389 0.84245 0.33501 0.0
C641 C 0.93777 0.87804 0.37767 0.0
C642 C 0.04112 0.75494 0.31102 0.0
C643 C 0.02711 0.77757 0.31709 0.0
C644 C 0.9712 0.77785 0.34664 0.0
C645 C 0.9627 0.86415 0.35732 0.0
C646 C 0.96602 0.83577 0.34869 0.0
C647 C 0.99208 0.76065 0.32535 0.0
C648 C 0.98043 0.78521 0.33308 0.0
H649 H 0.01241 0.96078 0.36326 0.0
H650 H 0.01023 0.91473 0.34712 0.0
H651 H 0.95918 0.7971 0.36489 0.0
H652 H 0.96784 0.66703 0.32266 0.0
H653 H 0.94315 0.70654 0.33322 0.0
C654 C 0.14743 0.04175 0.71402 0.0
C655 C 0.10759 0.00928 0.71552 0.0
C656 C 0.17759 0.03954 0.70648 0.0
C657 C 0.18998 0.98358 0.67992 0.0
H658 H 0.30081 0.02273 0.69477 0.0
C659 C 0.30566 0.94122 0.65928 0.0
C660 C 0.34842 0.96829 0.65983 0.0
C661 C 0.27682 0.94954 0.6649 0.0
C662 C 0.27029 0.01229 0.69034 0.0
H663 H 0.06819 0.94908 0.71022 0.0
H664 H 0.12079 0.94534 0.69708 0.0
H665 H 0.24964 0.03127 0.70694 0.0
H666 H 0.39446 0.0258 0.66619 0.0
H667 H 0.34407 0.04085 0.67569 0.0
H668 H 0.21048 0.96457 0.66332 0.0
C669 C 0.12858 0.97252 0.70168 0.0
C670 C 0.24094 0.01709 0.69735 0.0
C671 C 0.09857 0.97462 0.7093 0.0
C672 C 0.36167 0.00435 0.66568 0.0
C673 C 0.33282 0.01282 0.67121 0.0
C674 C 0.21942 0.97905 0.67285 0.0
C675 C 0.16837 0.00493 0.70019 0.0
C676 C 0.20031 0.00224 0.69231 0.0
C677 C 0.29011 0.98525 0.67112 0.0
C678 C 0.25976 0.99281 0.67807 0.0
H679 H 0.15537 0.06891 0.71866 0.0
H680 H 0.20796 0.06502 0.70544 0.0
H681 H 0.15905 0.97239 0.67571 0.0
H682 H 0.29468 0.91319 0.65483 0.0
H683 H 0.24427 0.92742 0.66478 0.0
C684 C 0.14415 0.10998 0.05195 0.0
C685 C 0.10258 0.10168 0.0524 0.0
C686 C 0.17153 0.13601 0.04255 0.0
C687 C 0.1721 0.17445 0.0097 0.0
H688 H 0.27456 0.26644 0.02003 0.0
C689 C 0.27449 0.28702 0.97105 0.0
C690 C 0.28347 0.32457 0.97409 0.0
C691 C 0.25965 0.2585 0.98082 0.0
C692 C 0.24621 0.24068 0.01701 0.0
H693 H 0.05721 0.11415 0.04337 0.0
H694 H 0.10461 0.15869 0.02693 0.0
H695 H 0.23363 0.21783 0.03684 0.0
H696 H 0.2841 0.36172 0.98977 0.0
H697 H 0.25861 0.31197 0.0069 0.0
H698 H 0.18368 0.19744 0.99001 0.0
C699 C 0.11605 0.14526 0.03385 0.0
C700 C 0.22303 0.21287 0.02658 0.0
C701 C 0.08903 0.11994 0.04333 0.0
C702 C 0.27827 0.33325 0.9872 0.0
C703 C 0.26377 0.3048 0.997 0.0
C704 C 0.19547 0.20189 0.00013 0.0
C705 C 0.15742 0.1534 0.03332 0.0
C706 C 0.18521 0.18007 0.02305 0.0
C707 C 0.25345 0.26695 0.99384 0.0
C708 C 0.23221 0.23574 0.00373 0.0
H709 H 0.15548 0.0964 0.05883 0.0
H710 H 0.20339 0.14196 0.04231 0.0
H711 H 0.14311 0.14924 0.00674 0.0
H712 H 0.27769 0.27946 0.96098 0.0
H713 H 0.25199 0.22956 0.97813 0.0
C714 C 0.0343 0.10955 0.36237 0.0
C715 C 0.05345 0.1261 0.37459 0.0
C716 C 0.03081 0.13215 0.35238 0.0
C717 C 0.06618 0.23349 0.34222 0.0
H718 H 0.95472 0.18837 0.32732 0.0
C719 C 0.00859 0.34555 0.31873 0.0
C720 C 0.97532 0.32444 0.30364 0.0
C721 C 0.02466 0.3148 0.32672 0.0
C722 C 0.98626 0.20128 0.33113 0.0
H723 H 0.08636 0.17976 0.38558 0.0
H724 H 0.07981 0.21891 0.3683 0.0
H725 H 0.97343 0.14915 0.34091 0.0
H726 H 0.92134 0.25988 0.29253 0.0
H727 H 0.94751 0.21315 0.30688 0.0
H728 H 0.0784 0.28598 0.33274 0.0
C729 C 0.06776 0.18861 0.36633 0.0
C730 C 0.99705 0.1787 0.33895 0.0
C731 C 0.07132 0.16607 0.37629 0.0
C732 C 0.94314 0.27168 0.30077 0.0
C733 C 0.96126 0.24332 0.30933 0.0
C734 C 0.0553 0.25611 0.33442 0.0
C735 C 0.04635 0.17174 0.35441 0.0
C736 C 0.03691 0.19467 0.34479 0.0
C737 C 0.0023 0.26493 0.32175 0.0
C738 C 0.01503 0.24036 0.32899 0.0
H739 H 0.02043 0.07887 0.36072 0.0
H740 H 0.0148 0.11839 0.34321 0.0
H741 H 0.09735 0.24656 0.3464 0.0
H742 H 0.02373 0.376 0.32095 0.0
H743 H 0.04742 0.3263 0.33469 0.0
loop_
_geom_bond_atom_site_label_1
_geom_bond_atom_site_label_2
_geom_bond_distance
_geom_bond_site_symmetry_2
_ccdc_geom_bond_type
O0 Cd1 2.223 1_455 S
O0 C8 1.315 . S
Cd1 O0 2.223 1_655 S
Cd1 O4 2.297 . S
Cd1 O5 2.439 1_655 S
Cd1 O11 2.240 1_545 S
Cd2 O3 2.240 1_565 S
Cd2 O10 2.223 . S
Cd2 O12 2.297 . S
Cd2 O13 2.439 . S
O3 Cd2 2.240 1_545 S
O3 C8 1.279 . S
O4 Cd1 2.297 . S
O4 C6 1.247 1_655 S
O5 Cd1 2.439 1_455 S
O5 C6 1.208 . S
C6 O4 1.247 1_455 S
C6 O5 1.208 . S
C7 O12 1.247 . S
C7 O13 1.208 . S
C8 O0 1.315 . S
C8 O3 1.279 . S
C9 O10 1.315 1_655 S
C9 O11 1.279 . S
O10 Cd2 2.223 . S
O10 C9 1.315 1_455 S
O11 Cd1 2.240 1_565 S
O11 C9 1.279 . S
O12 Cd2 2.297 . S
O12 C7 1.247 . S
O13 Cd2 2.439 . S
O13 C7 1.208 . S
O14 Cd15 2.223 . S
O14 C22 1.315 1_455 S
Cd15 O14 2.223 . S
Cd15 O18 2.297 . S
Cd15 O19 2.439 . S
Cd15 O25 2.240 . S
Cd16 O17 2.240 1_565 S
Cd16 O24 2.223 1_655 S
Cd16 O26 2.297 1_655 S
Cd16 O27 2.439 1_655 S
O17 Cd16 2.240 1_545 S
O17 C22 1.279 . S
O18 Cd15 2.297 . S
O18 C20 1.247 . S
O19 Cd15 2.439 . S
O19 C20 1.208 . S
C20 O18 1.247 . S
C20 O19 1.208 . S
C21 O26 1.247 . S
C21 O27 1.208 . S
C22 O14 1.315 1_655 S
C22 O17 1.279 . S
C23 O24 1.315 1_545 S
C23 O25 1.279 . S
O24 Cd16 2.223 1_455 S
O24 C23 1.315 1_565 S
O25 Cd15 2.240 . S
O25 C23 1.279 . S
O26 Cd16 2.297 1_455 S
O26 C21 1.247 . S
O27 Cd16 2.439 1_455 S
O27 C21 1.208 . S
O28 Cd29 2.223 . S
O28 C36 1.315 1_565 S
Cd29 O28 2.223 . S
Cd29 O32 2.297 . S
Cd29 O33 2.439 . S
Cd29 O39 2.240 1_665 S
Cd30 O31 2.240 1_455 S
Cd30 O38 2.223 . S
Cd30 O40 2.297 . S
Cd30 O41 2.439 . S
O31 Cd30 2.240 1_655 S
O31 C36 1.279 . S
O32 Cd29 2.297 . S
O32 C34 1.247 . S
O33 Cd29 2.439 . S
O33 C34 1.208 . S
C34 O32 1.247 . S
C34 O33 1.208 . S
C35 O40 1.247 . S
C35 O41 1.208 . S
C36 O28 1.315 1_545 S
C36 O31 1.279 . S
C37 O38 1.315 . S
C37 O39 1.279 . S
O38 Cd30 2.223 . S
O38 C37 1.315 . S
O39 Cd29 2.240 1_445 S
O39 C37 1.279 . S
O40 Cd30 2.297 . S
O40 C35 1.247 . S
O41 Cd30 2.439 . S
O41 C35 1.208 . S
C42 C43 1.560 . S
C42 H103 0.959 . S
C42 H104 0.959 . S
C42 H105 0.960 . S
C43 C42 1.560 . S
C43 O98 1.426 . S
C43 H102 0.980 1_655 S
C44 C45 1.407 1_655 S
C44 C49 1.418 . S
C44 O98 1.334 . S
C45 C44 1.407 1_455 S
C45 C46 1.360 . S
C45 H106 0.929 . S
C46 C45 1.360 . S
C46 C47 1.401 . S
C46 C50 1.527 . S
C47 C46 1.401 . S
C47 C48 1.405 1_455 S
C47 C80 1.587 . S
C48 C47 1.405 1_655 S
C48 C49 1.332 . S
C48 C51 1.496 . S
C49 C44 1.418 . S
C49 C48 1.332 . S
C49 H107 0.929 . S
C50 C46 1.527 . S
C50 H108 0.959 . S
C50 H109 0.961 . S
C50 H110 0.961 . S
C51 C48 1.496 . S
C51 H111 0.960 . S
C51 H112 0.960 . S
C51 H113 0.961 . S
C52 C53 1.517 . S
C52 H115 0.961 . S
C52 H116 0.960 . S
C52 H117 0.959 . S
C53 C52 1.517 . S
C53 O101 1.468 . S
C53 H114 0.980 . S
C54 C55 1.349 . S
C54 C59 1.367 . S
C54 O101 1.408 . S
C55 C54 1.349 . S
C55 C56 1.407 . S
C55 H118 0.930 . S
C56 C55 1.407 . S
C56 C57 1.449 . S
C56 C60 1.535 1_455 S
C57 C56 1.449 . S
C57 C58 1.384 . S
C57 C82 1.553 . S
C58 C57 1.384 . S
C58 C59 1.364 . S
C58 C61 1.450 . S
C59 C54 1.367 . S
C59 C58 1.364 . S
C59 H119 0.931 . S
C60 C56 1.535 1_655 S
C60 H120 0.959 . S
C60 H121 0.961 . S
C60 H122 0.959 . S
C61 C58 1.450 . S
C61 H123 0.960 . S
C61 H124 0.960 . S
C61 H125 0.960 . S
C62 C63 1.309 . S
C62 C67 1.304 . S
C62 O100 1.435 . S
C63 C62 1.309 . S
C63 C64 1.476 . S
C63 H127 0.930 1_455 S
C64 C63 1.476 . S
C64 C65 1.400 . S
C64 C68 1.567 1_455 S
C65 C64 1.400 . S
C65 C66 1.373 . S
C65 C87 1.432 . S
C66 C65 1.373 . S
C66 C67 1.339 . S
C66 C69 1.530 . S
C67 C62 1.304 . S
C67 C66 1.339 . S
C67 H128 0.930 . S
C68 C64 1.567 1_655 S
C68 H129 0.961 . S
C68 H130 0.960 . S
C68 H131 0.958 . S
C69 C66 1.530 . S
C69 H132 0.961 . S
C69 H133 0.960 . S
C69 H134 0.960 . S
C70 C71 1.512 1_655 S
C70 H136 0.961 . S
C70 H137 0.961 . S
C70 H138 0.959 . S
C71 C70 1.512 1_455 S
C71 O99 1.408 1_455 S
C71 H135 0.986 . S
C72 C73 1.288 . S
C72 C77 1.377 1_655 S
C72 O99 1.393 . S
C73 C72 1.288 . S
C73 C74 1.369 . S
C73 H139 0.932 . S
C74 C73 1.369 . S
C74 C75 1.398 1_655 S
C74 C78 1.527 . S
C75 C74 1.398 1_455 S
C75 C76 1.380 . S
C75 C89 1.497 . S
C76 C75 1.380 . S
C76 C77 1.383 . S
C76 C79 1.603 . S
C77 C72 1.377 1_455 S
C77 C76 1.383 . S
C77 H140 0.929 . S
C78 C74 1.527 . S
C78 H141 0.961 . S
C78 H142 0.959 . S
C78 H143 0.959 . S
C79 C76 1.603 . S
C79 H144 0.960 . S
C79 H145 0.962 . S
C79 H146 0.961 . S
C80 C47 1.587 . S
C80 C81 1.360 . S
C80 C93 1.412 . S
C81 C80 1.360 . S
C81 C82 1.365 . S
C81 H147 0.929 . S
C82 C57 1.553 . S
C82 C81 1.365 . S
C82 C83 1.404 . S
C83 C82 1.404 . S
C83 C84 1.395 . S
C83 C94 1.451 . S
C84 C83 1.395 . S
C84 C85 1.322 . S
C84 H148 0.930 . S
C85 C84 1.322 . S
C85 C86 1.459 . S
C85 H149 0.929 . S
C86 C85 1.459 . S
C86 C87 1.445 . S
C86 C95 1.395 . S
C87 C65 1.432 . S
C87 C86 1.445 . S
C87 C88 1.370 . S
C88 C87 1.370 . S
C88 C89 1.438 . S
C88 H150 0.930 . S
C89 C75 1.497 . S
C89 C88 1.438 . S
C89 C90 1.360 . S
C90 C89 1.360 . S
C90 C91 1.401 . S
C90 C95 1.446 . S
C91 C90 1.401 . S
C91 C92 1.347 . S
C91 H151 0.929 . S
C92 C91 1.347 . S
C92 C93 1.455 . S
C92 H152 0.930 . S
C93 C80 1.412 . S
C93 C92 1.455 . S
C93 C94 1.331 . S
C94 C83 1.451 . S
C94 C93 1.331 . S
C94 C95 1.497 . S
C95 C86 1.395 . S
C95 C90 1.446 . S
C95 C94 1.497 . S
C96 C97 1.582 . S
C96 H153 0.962 . S
C96 H154 0.959 . S
C96 H155 0.958 . S
C97 C96 1.582 . S
C97 O100 1.458 . S
C97 H126 0.980 . S
O98 C43 1.426 . S
O98 C44 1.334 . S
O99 C71 1.408 1_655 S
O99 C72 1.393 . S
O100 C62 1.435 . S
O100 C97 1.458 . S
O101 C53 1.468 . S
O101 C54 1.408 . S
H102 C43 0.980 1_455 S
H103 C42 0.959 . S
H104 C42 0.959 . S
H105 C42 0.960 . S
H106 C45 0.929 . S
H107 C49 0.929 . S
H108 C50 0.959 . S
H109 C50 0.961 . S
H110 C50 0.961 . S
H111 C51 0.960 . S
H112 C51 0.960 . S
H113 C51 0.961 . S
H114 C53 0.980 . S
H115 C52 0.961 . S
H116 C52 0.960 . S
H117 C52 0.959 . S
H118 C55 0.930 . S
H119 C59 0.931 . S
H120 C60 0.959 . S
H121 C60 0.961 . S
H122 C60 0.959 . S
H123 C61 0.960 . S
H124 C61 0.960 . S
H125 C61 0.960 . S
H126 C97 0.980 . S
H127 C63 0.930 1_655 S
H128 C67 0.930 . S
H129 C68 0.961 . S
H130 C68 0.960 . S
H131 C68 0.958 . S
H132 C69 0.961 . S
H133 C69 0.960 . S
H134 C69 0.960 . S
H135 C71 0.986 . S
H136 C70 0.961 . S
H137 C70 0.961 . S
H138 C70 0.959 . S
H139 C73 0.932 . S
H140 C77 0.929 . S
H141 C78 0.961 . S
H142 C78 0.959 . S
H143 C78 0.959 . S
H144 C79 0.960 . S
H145 C79 0.962 . S
H146 C79 0.961 . S
H147 C81 0.929 . S
H148 C84 0.930 . S
H149 C85 0.929 . S
H150 C88 0.930 . S
H151 C91 0.929 . S
H152 C92 0.930 . S
H153 C96 0.962 . S
H154 C96 0.959 . S
H155 C96 0.958 . S
C156 C157 1.560 1_565 S
C156 H217 0.959 . S
C156 H218 0.959 . S
C156 H219 0.960 . S
C157 C156 1.560 1_545 S
C157 O212 1.426 1_545 S
C157 H216 0.980 . S
C158 C159 1.407 . S
C158 C163 1.418 1_545 S
C158 O212 1.334 1_545 S
C159 C158 1.407 . S
C159 C160 1.360 . S
C159 H220 0.929 . S
C160 C159 1.360 . S
C160 C161 1.401 . S
C160 C164 1.527 . S
C161 C160 1.401 . S
C161 C162 1.405 1_545 S
C161 C194 1.587 . S
C162 C161 1.405 1_565 S
C162 C163 1.332 . S
C162 C165 1.496 . S
C163 C158 1.418 1_565 S
C163 C162 1.332 . S
C163 H221 0.929 . S
C164 C160 1.527 . S
C164 H222 0.959 . S
C164 H223 0.961 . S
C164 H224 0.961 . S
C165 C162 1.496 . S
C165 H225 0.960 . S
C165 H226 0.960 . S
C165 H227 0.961 . S
C166 C167 1.517 . S
C166 H229 0.961 . S
C166 H230 0.960 . S
C166 H231 0.959 . S
C167 C166 1.517 . S
C167 O215 1.468 . S
C167 H228 0.980 . S
C168 C169 1.349 . S
C168 C173 1.367 . S
C168 O215 1.408 . S
C169 C168 1.349 . S
C169 C170 1.407 . S
C169 H232 0.930 . S
C170 C169 1.407 . S
C170 C171 1.449 . S
C170 C174 1.535 1_545 S
C171 C170 1.449 . S
C171 C172 1.384 . S
C171 C196 1.553 . S
C172 C171 1.384 . S
C172 C173 1.364 . S
C172 C175 1.450 . S
C173 C168 1.367 . S
C173 C172 1.364 . S
C173 H233 0.931 . S
C174 C170 1.535 1_565 S
C174 H234 0.959 . S
C174 H235 0.961 . S
C174 H236 0.959 . S
C175 C172 1.450 . S
C175 H237 0.960 . S
C175 H238 0.960 . S
C175 H239 0.960 . S
C176 C177 1.309 . S
C176 C181 1.304 . S
C176 O214 1.435 . S
C177 C176 1.309 . S
C177 C178 1.476 . S
C177 H241 0.930 . S
C178 C177 1.476 . S
C178 C179 1.400 . S
C178 C182 1.567 1_545 S
C179 C178 1.400 . S
C179 C180 1.373 . S
C179 C201 1.432 . S
C180 C179 1.373 . S
C180 C181 1.339 . S
C180 C183 1.530 . S
C181 C176 1.304 . S
C181 C180 1.339 . S
C181 H242 0.930 . S
C182 C178 1.567 1_565 S
C182 H243 0.961 . S
C182 H244 0.960 . S
C182 H245 0.958 . S
C183 C180 1.530 . S
C183 H246 0.961 . S
C183 H247 0.960 . S
C183 H248 0.960 . S
C184 C185 1.530 1_565 S
C184 H250 0.961 1_565 S
C184 H251 0.961 . S
C184 H252 0.959 . S
C185 C184 1.530 1_545 S
C185 O213 1.412 1_545 S
C185 H249 0.980 . S
C186 C187 1.288 1_545 S
C186 C191 1.377 . S
C186 O213 1.393 1_545 S
C187 C186 1.288 1_565 S
C187 C188 1.369 . S
C187 H253 0.932 . S
C188 C187 1.369 . S
C188 C189 1.398 1_565 S
C188 C192 1.527 . S
C189 C188 1.398 1_545 S
C189 C190 1.380 . S
C189 C203 1.497 . S
C190 C189 1.380 . S
C190 C191 1.383 . S
C190 C193 1.603 . S
C191 C186 1.377 . S
C191 C190 1.383 . S
C191 H254 0.929 . S
C192 C188 1.527 . S
C192 H255 0.961 . S
C192 H256 0.959 . S
C192 H257 0.959 . S
C193 C190 1.603 . S
C193 H258 0.960 . S
C193 H259 0.962 . S
C193 H260 0.961 . S
C194 C161 1.587 . S
C194 C195 1.360 . S
C194 C207 1.412 . S
C195 C194 1.360 . S
C195 C196 1.365 . S
C195 H261 0.929 . S
C196 C171 1.553 . S
C196 C195 1.365 . S
C196 C197 1.404 . S
C197 C196 1.404 . S
C197 C198 1.395 . S
C197 C208 1.451 . S
C198 C197 1.395 . S
C198 C199 1.322 . S
C198 H262 0.930 . S
C199 C198 1.322 . S
C199 C200 1.459 . S
C199 H263 0.929 . S
C200 C199 1.459 . S
C200 C201 1.445 . S
C200 C209 1.395 . S
C201 C179 1.432 . S
C201 C200 1.445 . S
C201 C202 1.370 . S
C202 C201 1.370 . S
C202 C203 1.438 . S
C202 H264 0.930 . S
C203 C189 1.497 . S
C203 C202 1.438 . S
C203 C204 1.360 . S
C204 C203 1.360 . S
C204 C205 1.401 . S
C204 C209 1.446 . S
C205 C204 1.401 . S
C205 C206 1.347 . S
C205 H265 0.929 . S
C206 C205 1.347 . S
C206 C207 1.455 . S
C206 H266 0.930 . S
C207 C194 1.412 . S
C207 C206 1.455 . S
C207 C208 1.331 . S
C208 C197 1.451 . S
C208 C207 1.331 . S
C208 C209 1.497 . S
C209 C200 1.395 . S
C209 C204 1.446 . S
C209 C208 1.497 . S
C210 C211 1.582 . S
C210 H267 0.962 . S
C210 H268 0.959 . S
C210 H269 0.958 . S
C211 C210 1.582 . S
C211 O214 1.458 . S
C211 H240 0.980 . S
O212 C157 1.426 1_565 S
O212 C158 1.334 1_565 S
O213 C185 1.412 1_565 S
O213 C186 1.393 1_565 S
O214 C176 1.435 . S
O214 C211 1.458 . S
O215 C167 1.468 . S
O215 C168 1.408 . S
H216 C157 0.980 . S
H217 C156 0.959 . S
H218 C156 0.959 . S
H219 C156 0.960 . S
H220 C159 0.929 . S
H221 C163 0.929 . S
H222 C164 0.959 . S
H223 C164 0.961 . S
H224 C164 0.961 . S
H225 C165 0.960 . S
H226 C165 0.960 . S
H227 C165 0.961 . S
H228 C167 0.980 . S
H229 C166 0.961 . S
H230 C166 0.960 . S
H231 C166 0.959 . S
H232 C169 0.930 . S
H233 C173 0.931 . S
H234 C174 0.959 . S
H235 C174 0.961 . S
H236 C174 0.959 . S
H237 C175 0.960 . S
H238 C175 0.960 . S
H239 C175 0.960 . S
H240 C211 0.980 . S
H241 C177 0.930 . S
H242 C181 0.930 . S
H243 C182 0.961 . S
H244 C182 0.960 . S
H245 C182 0.958 . S
H246 C183 0.961 . S
H247 C183 0.960 . S
H248 C183 0.960 . S
H249 C185 0.980 . S
H250 C184 0.961 1_545 S
H251 C184 0.961 . S
H252 C184 0.959 . S
H253 C187 0.932 . S
H254 C191 0.929 . S
H255 C192 0.961 . S
H256 C192 0.959 . S
H257 C192 0.959 . S
H258 C193 0.960 . S
H259 C193 0.962 . S
H260 C193 0.961 . S
H261 C195 0.929 . S
H262 C198 0.930 . S
H263 C199 0.929 . S
H264 C202 0.930 . S
H265 C205 0.929 . S
H266 C206 0.930 . S
H267 C210 0.962 . S
H268 C210 0.959 . S
H269 C210 0.958 . S
C270 C271 1.560 . S
C270 H331 0.959 . S
C270 H332 0.959 . S
C270 H333 0.960 . S
C271 C270 1.560 . S
C271 O326 1.426 . S
C271 H330 0.980 . S
C272 C273 1.407 . S
C272 C277 1.418 . S
C272 O326 1.334 . S
C273 C272 1.407 . S
C273 C274 1.360 . S
C273 H334 0.929 . S
C274 C273 1.360 . S
C274 C275 1.401 . S
C274 C278 1.527 . S
C275 C274 1.401 . S
C275 C276 1.405 . S
C275 C308 1.587 . S
C276 C275 1.405 . S
C276 C277 1.332 . S
C276 C279 1.496 . S
C277 C272 1.418 . S
C277 C276 1.332 . S
C277 H335 0.929 . S
C278 C274 1.527 . S
C278 H336 0.959 . S
C278 H337 0.961 . S
C278 H338 0.961 . S
C279 C276 1.496 . S
C279 H339 0.960 . S
C279 H340 0.960 . S
C279 H341 0.961 . S
C280 C281 1.517 . S
C280 H343 0.961 . S
C280 H344 0.960 . S
C280 H345 0.959 . S
C281 C280 1.517 . S
C281 O329 1.468 . S
C281 H342 0.980 . S
C282 C283 1.349 . S
C282 C287 1.367 . S
C282 O329 1.408 . S
C283 C282 1.349 . S
C283 C284 1.407 . S
C283 H346 0.930 . S
C284 C283 1.407 . S
C284 C285 1.449 . S
C284 C288 1.535 . S
C285 C284 1.449 . S
C285 C286 1.384 . S
C285 C310 1.553 . S
C286 C285 1.384 . S
C286 C287 1.364 . S
C286 C289 1.450 . S
C287 C282 1.367 . S
C287 C286 1.364 . S
C287 H347 0.931 . S
C288 C284 1.535 . S
C288 H348 0.959 . S
C288 H349 0.961 . S
C288 H350 0.959 . S
C289 C286 1.450 . S
C289 H351 0.960 . S
C289 H352 0.960 . S
C289 H353 0.960 . S
C290 C291 1.309 . S
C290 C295 1.304 . S
C290 O328 1.435 . S
C291 C290 1.309 . S
C291 C292 1.476 . S
C291 H355 0.930 . S
C292 C291 1.476 . S
C292 C293 1.400 . S
C292 C296 1.567 . S
C293 C292 1.400 . S
C293 C294 1.373 . S
C293 C315 1.432 . S
C294 C293 1.373 . S
C294 C295 1.339 . S
C294 C297 1.530 . S
C295 C290 1.304 . S
C295 C294 1.339 . S
C295 H356 0.930 . S
C296 C292 1.567 . S
C296 H357 0.961 . S
C296 H358 0.960 . S
C296 H359 0.958 . S
C297 C294 1.530 . S
C297 H360 0.961 . S
C297 H361 0.960 . S
C297 H362 0.960 . S
C298 C299 1.530 . S
C298 H364 0.961 . S
C298 H365 0.961 . S
C298 H366 0.959 . S
C299 C298 1.530 . S
C299 O327 1.412 . S
C299 H363 0.980 . S
C300 C301 1.288 . S
C300 C305 1.377 . S
C300 O327 1.393 . S
C301 C300 1.288 . S
C301 C302 1.369 . S
C301 H367 0.932 . S
C302 C301 1.369 . S
C302 C303 1.398 . S
C302 C306 1.527 . S
C303 C302 1.398 . S
C303 C304 1.380 . S
C303 C317 1.497 . S
C304 C303 1.380 . S
C304 C305 1.383 . S
C304 C307 1.603 . S
C305 C300 1.377 . S
C305 C304 1.383 . S
C305 H368 0.929 . S
C306 C302 1.527 . S
C306 H369 0.961 . S
C306 H370 0.959 . S
C306 H371 0.959 . S
C307 C304 1.603 . S
C307 H372 0.960 . S
C307 H373 0.962 . S
C307 H374 0.961 . S
C308 C275 1.587 . S
C308 C309 1.360 . S
C308 C321 1.412 . S
C309 C308 1.360 . S
C309 C310 1.365 . S
C309 H375 0.929 . S
C310 C285 1.553 . S
C310 C309 1.365 . S
C310 C311 1.404 . S
C311 C310 1.404 . S
C311 C312 1.395 . S
C311 C322 1.451 . S
C312 C311 1.395 . S
C312 C313 1.322 . S
C312 H376 0.930 . S
C313 C312 1.322 . S
C313 C314 1.459 . S
C313 H377 0.929 . S
C314 C313 1.459 . S
C314 C315 1.445 . S
C314 C323 1.395 . S
C315 C293 1.432 . S
C315 C314 1.445 . S
C315 C316 1.370 . S
C316 C315 1.370 . S
C316 C317 1.438 . S
C316 H378 0.930 . S
C317 C303 1.497 . S
C317 C316 1.438 . S
C317 C318 1.360 . S
C318 C317 1.360 . S
C318 C319 1.401 . S
C318 C323 1.446 . S
C319 C318 1.401 . S
C319 C320 1.347 . S
C319 H379 0.929 . S
C320 C319 1.347 . S
C320 C321 1.455 . S
C320 H380 0.930 . S
C321 C308 1.412 . S
C321 C320 1.455 . S
C321 C322 1.331 . S
C322 C311 1.451 . S
C322 C321 1.331 . S
C322 C323 1.497 . S
C323 C314 1.395 . S
C323 C318 1.446 . S
C323 C322 1.497 . S
C324 C325 1.582 . S
C324 H381 0.962 . S
C324 H382 0.959 . S
C324 H383 0.958 . S
C325 C324 1.582 . S
C325 O328 1.458 . S
C325 H354 0.980 . S
O326 C271 1.426 . S
O326 C272 1.334 . S
O327 C299 1.412 . S
O327 C300 1.393 . S
O328 C290 1.435 . S
O328 C325 1.458 . S
O329 C281 1.468 . S
O329 C282 1.408 . S
H330 C271 0.980 . S
H331 C270 0.959 . S
H332 C270 0.959 . S
H333 C270 0.960 . S
H334 C273 0.929 . S
H335 C277 0.929 . S
H336 C278 0.959 . S
H337 C278 0.961 . S
H338 C278 0.961 . S
H339 C279 0.960 . S
H340 C279 0.960 . S
H341 C279 0.961 . S
H342 C281 0.980 . S
H343 C280 0.961 . S
H344 C280 0.960 . S
H345 C280 0.959 . S
H346 C283 0.930 . S
H347 C287 0.931 . S
H348 C288 0.959 . S
H349 C288 0.961 . S
H350 C288 0.959 . S
H351 C289 0.960 . S
H352 C289 0.960 . S
H353 C289 0.960 . S
H354 C325 0.980 . S
H355 C291 0.930 . S
H356 C295 0.930 . S
H357 C296 0.961 . S
H358 C296 0.960 . S
H359 C296 0.958 . S
H360 C297 0.961 . S
H361 C297 0.960 . S
H362 C297 0.960 . S
H363 C299 0.980 . S
H364 C298 0.961 . S
H365 C298 0.961 . S
H366 C298 0.959 . S
H367 C301 0.932 . S
H368 C305 0.929 . S
H369 C306 0.961 . S
H370 C306 0.959 . S
H371 C306 0.959 . S
H372 C307 0.960 . S
H373 C307 0.962 . S
H374 C307 0.961 . S
H375 C309 0.929 . S
H376 C312 0.930 . S
H377 C313 0.929 . S
H378 C316 0.930 . S
H379 C319 0.929 . S
H380 C320 0.930 . S
H381 C324 0.962 . S
H382 C324 0.959 . S
H383 C324 0.958 . S
C384 C385 1.349 . S
C384 C386 1.327 . S
C384 H409 0.950 . S
C385 C384 1.349 . S
C385 C401 1.349 1_455 S
C386 C384 1.327 . S
C386 C405 1.429 . S
C386 H410 0.950 . S
C387 C404 1.574 . S
C387 C406 1.368 1_655 S
C387 H411 0.949 . S
H388 C392 0.949 . S
C389 C390 1.349 1_655 S
C389 C391 1.327 . S
C389 H412 0.950 . S
C390 C389 1.349 1_455 S
C390 C402 1.349 . S
C391 C389 1.327 . S
C391 C407 1.429 1_655 S
C391 H413 0.950 . S
C392 H388 0.949 . S
C392 C400 1.574 . S
C392 C408 1.368 . S
H393 C401 0.950 . S
H394 C399 0.950 . S
H395 C400 0.949 . S
H396 C402 0.950 . S
H397 C403 0.950 . S
H398 C404 0.949 . S
C399 H394 0.950 . S
C399 C401 1.327 . S
C399 C405 1.429 1_655 S
C400 C392 1.574 . S
C400 H395 0.949 . S
C400 C406 1.368 . S
C401 C385 1.349 1_655 S
C401 H393 0.950 . S
C401 C399 1.327 . S
C402 C390 1.349 . S
C402 H396 0.950 . S
C402 C403 1.327 . S
C403 H397 0.950 . S
C403 C402 1.327 . S
C403 C407 1.429 . S
C404 C387 1.574 . S
C404 H398 0.949 . S
C404 C408 1.368 1_655 S
C405 C386 1.429 . S
C405 C399 1.429 1_455 S
C405 C406 1.523 . S
C406 C387 1.368 1_455 S
C406 C400 1.368 . S
C406 C405 1.523 . S
C407 C391 1.429 1_455 S
C407 C403 1.429 . S
C407 C408 1.523 . S
C408 C392 1.368 . S
C408 C404 1.368 1_455 S
C408 C407 1.523 . S
H409 C384 0.950 . S
H410 C386 0.950 . S
H411 C387 0.949 . S
H412 C389 0.950 . S
H413 C391 0.950 . S
C414 C415 1.349 . S
C414 C416 1.327 . S
C414 H439 0.950 . S
C415 C414 1.349 . S
C415 C431 1.330 1_545 S
C416 C414 1.327 . S
C416 C435 1.429 . S
C416 H440 0.950 . S
C417 C434 1.574 . S
C417 C436 1.368 1_565 S
C417 H441 0.949 . S
H418 C422 0.949 . S
C419 C420 1.349 1_565 S
C419 C421 1.327 . S
C419 H442 0.950 . S
C420 C419 1.349 1_545 S
C420 C432 1.349 . S
C421 C419 1.327 . S
C421 C437 1.429 1_565 S
C421 H443 0.950 . S
C422 H418 0.949 . S
C422 C430 1.574 . S
C422 C438 1.368 . S
H423 C431 0.979 . S
H424 C429 0.950 . S
H425 C430 0.949 . S
H426 C432 0.950 . S
H427 C433 0.950 . S
H428 C434 0.949 . S
C429 H424 0.950 . S
C429 C431 1.317 . S
C429 C435 1.429 1_565 S
C430 C422 1.574 . S
C430 H425 0.949 . S
C430 C436 1.368 . S
C431 C415 1.330 1_565 S
C431 H423 0.979 . S
C431 C429 1.317 . S
C432 C420 1.349 . S
C432 H426 0.950 . S
C432 C433 1.327 . S
C433 H427 0.950 . S
C433 C432 1.327 . S
C433 C437 1.429 . S
C434 C417 1.574 . S
C434 H428 0.949 . S
C434 C438 1.368 1_565 S
C435 C416 1.429 . S
C435 C429 1.429 1_545 S
C435 C436 1.523 . S
C436 C417 1.368 1_545 S
C436 C430 1.368 . S
C436 C435 1.523 . S
C437 C421 1.429 1_545 S
C437 C433 1.429 . S
C437 C438 1.523 . S
C438 C422 1.368 . S
C438 C434 1.368 1_545 S
C438 C437 1.523 . S
H439 C414 0.950 . S
H440 C416 0.950 . S
H441 C417 0.949 . S
H442 C419 0.950 . S
H443 C421 0.950 . S
C444 C445 1.349 . S
C444 C446 1.327 . S
C444 H469 0.950 . S
C445 C444 1.349 . S
C445 C461 1.349 . S
C446 C444 1.327 . S
C446 C465 1.429 . S
C446 H470 0.950 . S
C447 C464 1.574 . S
C447 C466 1.368 . S
C447 H471 0.949 . S
H448 C452 0.949 . S
C449 C450 1.349 . S
C449 C451 1.327 . S
C449 H472 0.950 . S
C450 C449 1.349 . S
C450 C462 1.349 . S
C451 C449 1.327 . S
C451 C467 1.429 . S
C451 H473 0.950 . S
C452 H448 0.949 . S
C452 C460 1.574 . S
C452 C468 1.368 . S
H453 C461 0.950 . S
H454 C459 0.950 . S
H455 C460 0.949 . S
H456 C462 0.950 . S
H457 C463 0.950 . S
H458 C464 0.949 . S
C459 H454 0.950 . S
C459 C461 1.327 . S
C459 C465 1.429 . S
C460 C452 1.574 . S
C460 H455 0.949 . S
C460 C466 1.368 . S
C461 C445 1.349 . S
C461 H453 0.950 . S
C461 C459 1.327 . S
C462 C450 1.349 . S
C462 H456 0.950 . S
C462 C463 1.327 . S
C463 H457 0.950 . S
C463 C462 1.327 . S
C463 C467 1.429 . S
C464 C447 1.574 . S
C464 H458 0.949 . S
C464 C468 1.368 . S
C465 C446 1.429 . S
C465 C459 1.429 . S
C465 C466 1.523 . S
C466 C447 1.368 . S
C466 C460 1.368 . S
C466 C465 1.523 . S
C467 C451 1.429 . S
C467 C463 1.429 . S
C467 C468 1.523 . S
C468 C452 1.368 . S
C468 C464 1.368 . S
C468 C467 1.523 . S
H469 C444 0.950 . S
H470 C446 0.950 . S
H471 C447 0.949 . S
H472 C449 0.950 . S
H473 C451 0.950 . S
C474 C475 1.349 1_655 S
C474 C476 1.327 . S
C474 H499 0.950 . S
C475 C474 1.349 1_455 S
C475 C491 1.349 . S
C476 C474 1.327 . S
C476 C495 1.429 1_655 S
C476 H500 0.950 . S
C477 C494 1.574 . S
C477 C496 1.368 . S
C477 H501 0.949 . S
H478 C482 0.949 . S
C479 C480 1.349 . S
C479 C481 1.327 . S
C479 H502 0.950 . S
C480 C479 1.349 . S
C480 C492 1.349 1_455 S
C481 C479 1.327 . S
C481 C497 1.429 . S
C481 H503 0.950 . S
C482 H478 0.949 . S
C482 C490 1.574 . S
C482 C498 1.368 1_655 S
H483 C491 0.950 . S
H484 C489 0.950 . S
H485 C490 0.949 . S
H486 C492 0.950 . S
H487 C493 0.950 . S
H488 C494 0.949 . S
C489 H484 0.950 . S
C489 C491 1.327 . S
C489 C495 1.429 . S
C490 C482 1.574 . S
C490 H485 0.949 . S
C490 C496 1.368 1_655 S
C491 C475 1.349 . S
C491 H483 0.950 . S
C491 C489 1.327 . S
C492 C480 1.349 1_655 S
C492 H486 0.950 . S
C492 C493 1.327 . S
C493 H487 0.950 . S
C493 C492 1.327 . S
C493 C497 1.429 1_655 S
C494 C477 1.574 . S
C494 H488 0.949 . S
C494 C498 1.368 . S
C495 C476 1.429 1_455 S
C495 C489 1.429 . S
C495 C496 1.523 . S
C496 C477 1.368 . S
C496 C490 1.368 1_455 S
C496 C495 1.523 . S
C497 C481 1.429 . S
C497 C493 1.429 1_455 S
C497 C498 1.523 . S
C498 C482 1.368 1_455 S
C498 C494 1.368 . S
C498 C497 1.523 . S
H499 C474 0.950 . S
H500 C476 0.950 . S
H501 C477 0.949 . S
H502 C479 0.950 . S
H503 C481 0.950 . S
C504 C505 1.349 1_565 S
C504 C506 1.327 . S
C504 H529 0.950 . S
C505 C504 1.349 1_545 S
C505 C521 1.349 . S
C506 C504 1.327 . S
C506 C525 1.429 1_565 S
C506 H530 0.950 . S
C507 C524 1.574 . S
C507 C526 1.368 . S
C507 H531 0.949 . S
H508 C512 0.949 . S
C509 C510 1.349 . S
C509 C511 1.327 . S
C509 H532 0.950 . S
C510 C509 1.349 . S
C510 C522 1.357 . S
C511 C509 1.327 . S
C511 C527 1.429 . S
C511 H533 0.950 . S
C512 H508 0.949 . S
C512 C520 1.574 . S
C512 C528 1.368 1_565 S
H513 C521 0.950 . S
H514 C519 0.950 . S
H515 C520 0.949 . S
H516 C522 0.938 1_565 S
H517 C523 0.950 . S
H518 C524 0.949 . S
C519 H514 0.950 . S
C519 C521 1.327 . S
C519 C525 1.429 . S
C520 C512 1.574 . S
C520 H515 0.949 . S
C520 C526 1.368 1_565 S
C521 C505 1.349 . S
C521 H513 0.950 . S
C521 C519 1.327 . S
C522 C510 1.357 . S
C522 H516 0.938 1_545 S
C522 C523 1.331 1_545 S
C523 H517 0.950 . S
C523 C522 1.331 1_565 S
C523 C527 1.429 1_565 S
C524 C507 1.574 . S
C524 H518 0.949 . S
C524 C528 1.368 . S
C525 C506 1.429 1_545 S
C525 C519 1.429 . S
C525 C526 1.523 . S
C526 C507 1.368 . S
C526 C520 1.368 1_545 S
C526 C525 1.523 . S
C527 C511 1.429 . S
C527 C523 1.429 1_545 S
C527 C528 1.523 . S
C528 C512 1.368 1_545 S
C528 C524 1.368 . S
C528 C527 1.523 . S
H529 C504 0.950 . S
H530 C506 0.950 . S
H531 C507 0.949 . S
H532 C509 0.950 . S
H533 C511 0.950 . S
C534 C535 1.349 . S
C534 C536 1.327 . S
C534 H559 0.950 . S
C535 C534 1.349 . S
C535 C551 1.349 . S
C536 C534 1.327 . S
C536 C555 1.429 . S
C536 H560 0.950 . S
C537 C554 1.574 . S
C537 C556 1.368 . S
C537 H561 0.949 . S
H538 C542 0.949 . S
C539 C540 1.349 . S
C539 C541 1.327 . S
C539 H562 0.950 . S
C540 C539 1.349 . S
C540 C552 1.349 . S
C541 C539 1.327 . S
C541 C557 1.429 . S
C541 H563 0.950 . S
C542 H538 0.949 . S
C542 C550 1.574 . S
C542 C558 1.368 . S
H543 C551 0.950 . S
H544 C549 0.950 . S
H545 C550 0.949 . S
H546 C552 0.950 . S
H547 C553 0.950 . S
H548 C554 0.949 . S
C549 H544 0.950 . S
C549 C551 1.327 . S
C549 C555 1.429 . S
C550 C542 1.574 . S
C550 H545 0.949 . S
C550 C556 1.368 . S
C551 C535 1.349 . S
C551 H543 0.950 . S
C551 C549 1.327 . S
C552 C540 1.349 . S
C552 H546 0.950 . S
C552 C553 1.327 . S
C553 H547 0.950 . S
C553 C552 1.327 . S
C553 C557 1.429 . S
C554 C537 1.574 . S
C554 H548 0.949 . S
C554 C558 1.368 . S
C555 C536 1.429 . S
C555 C549 1.429 . S
C555 C556 1.523 . S
C556 C537 1.368 . S
C556 C550 1.368 . S
C556 C555 1.523 . S
C557 C541 1.429 . S
C557 C553 1.429 . S
C557 C558 1.523 . S
C558 C542 1.368 . S
C558 C554 1.368 . S
C558 C557 1.523 . S
H559 C534 0.950 . S
H560 C536 0.950 . S
H561 C537 0.949 . S
H562 C539 0.950 . S
H563 C541 0.950 . S
C564 C565 1.349 . S
C564 C566 1.327 . S
C564 H589 0.950 . S
C565 C564 1.349 . S
C565 C581 1.349 1_545 S
C566 C564 1.327 . S
C566 C585 1.429 . S
C566 H590 0.950 . S
C567 C584 1.574 . S
C567 C586 1.368 1_565 S
C567 H591 0.949 . S
H568 C572 0.949 . S
C569 C570 1.349 . S
C569 C571 1.327 1_545 S
C569 H592 0.950 1_545 S
C570 C569 1.349 . S
C570 C582 1.349 . S
C571 C569 1.327 1_565 S
C571 C587 1.429 1_565 S
C571 H593 0.950 . S
C572 H568 0.949 . S
C572 C580 1.574 . S
C572 C588 1.368 . S
H573 C581 0.950 . S
H574 C579 0.950 . S
H575 C580 0.949 . S
H576 C582 0.950 . S
H577 C583 0.950 . S
H578 C584 0.949 . S
C579 H574 0.950 . S
C579 C581 1.327 . S
C579 C585 1.429 1_565 S
C580 C572 1.574 . S
C580 H575 0.949 . S
C580 C586 1.368 . S
C581 C565 1.349 1_565 S
C581 H573 0.950 . S
C581 C579 1.327 . S
C582 C570 1.349 . S
C582 H576 0.950 . S
C582 C583 1.327 . S
C583 H577 0.950 . S
C583 C582 1.327 . S
C583 C587 1.429 . S
C584 C567 1.574 . S
C584 H578 0.949 . S
C584 C588 1.368 1_565 S
C585 C566 1.429 . S
C585 C579 1.429 1_545 S
C585 C586 1.523 . S
C586 C567 1.368 1_545 S
C586 C580 1.368 . S
C586 C585 1.523 . S
C587 C571 1.429 1_545 S
C587 C583 1.429 . S
C587 C588 1.523 . S
C588 C572 1.368 . S
C588 C584 1.368 1_545 S
C588 C587 1.523 . S
H589 C564 0.950 . S
H590 C566 0.950 . S
H591 C567 0.949 . S
H592 C569 0.950 1_565 S
H593 C571 0.950 . S
C594 C595 1.349 . S
C594 C596 1.327 . S
C594 H619 0.950 . S
C595 C594 1.349 . S
C595 C611 1.349 . S
C596 C594 1.327 . S
C596 C615 1.429 . S
C596 H620 0.950 . S
C597 C614 1.574 . S
C597 C616 1.368 . S
C597 H621 0.949 . S
H598 C602 0.949 1_556 S
C599 C600 1.349 . S
C599 C601 1.331 1_556 S
C599 H622 0.950 . S
C600 C599 1.349 . S
C600 C612 1.349 . S
C601 C599 1.331 1_554 S
C601 C617 1.429 1_554 S
C601 H623 0.944 . S
C602 H598 0.949 1_554 S
C602 C610 1.574 . S
C602 C618 1.368 . S
H603 C611 0.950 . S
H604 C609 0.950 . S
H605 C610 0.949 . S
H606 C612 0.950 . S
H607 C613 0.950 . S
H608 C614 0.949 . S
C609 H604 0.950 . S
C609 C611 1.327 . S
C609 C615 1.429 . S
C610 C602 1.574 . S
C610 H605 0.949 . S
C610 C616 1.368 . S
C611 C595 1.349 . S
C611 H603 0.950 . S
C611 C609 1.327 . S
C612 C600 1.349 . S
C612 H606 0.950 . S
C612 C613 1.327 . S
C613 H607 0.950 . S
C613 C612 1.327 . S
C613 C617 1.429 . S
C614 C597 1.574 . S
C614 H608 0.949 . S
C614 C618 1.368 . S
C615 C596 1.429 . S
C615 C609 1.429 . S
C615 C616 1.523 . S
C616 C597 1.368 . S
C616 C610 1.368 . S
C616 C615 1.523 . S
C617 C601 1.429 1_556 S
C617 C613 1.429 . S
C617 C618 1.523 1_556 S
C618 C602 1.368 . S
C618 C614 1.368 . S
C618 C617 1.523 1_554 S
H619 C594 0.950 . S
H620 C596 0.950 . S
H621 C597 0.949 . S
H622 C599 0.950 . S
H623 C601 0.944 . S
C624 C625 1.349 . S
C624 C626 1.327 . S
C624 H649 0.950 . S
C625 C624 1.349 . S
C625 C641 1.349 1_455 S
C626 C624 1.327 . S
C626 C645 1.429 . S
C626 H650 0.950 . S
C627 C644 1.574 . S
C627 C646 1.368 1_655 S
C627 H651 0.949 . S
H628 C632 0.949 . S
C629 C630 1.349 1_655 S
C629 C631 1.327 . S
C629 H652 0.950 . S
C630 C629 1.349 1_455 S
C630 C642 1.349 . S
C631 C629 1.327 . S
C631 C647 1.429 1_655 S
C631 H653 0.950 . S
C632 H628 0.949 . S
C632 C640 1.574 . S
C632 C648 1.368 . S
H633 C641 0.950 . S
H634 C639 0.950 . S
H635 C640 0.949 . S
H636 C642 0.950 . S
H637 C643 0.950 . S
H638 C644 0.949 . S
C639 H634 0.950 . S
C639 C641 1.327 . S
C639 C645 1.429 1_655 S
C640 C632 1.574 . S
C640 H635 0.949 . S
C640 C646 1.368 . S
C641 C625 1.349 1_655 S
C641 H633 0.950 . S
C641 C639 1.327 . S
C642 C630 1.349 . S
C642 H636 0.950 . S
C642 C643 1.327 . S
C643 H637 0.950 . S
C643 C642 1.327 . S
C643 C647 1.429 . S
C644 C627 1.574 . S
C644 H638 0.949 . S
C644 C648 1.368 1_655 S
C645 C626 1.429 . S
C645 C639 1.429 1_455 S
C645 C646 1.523 . S
C646 C627 1.368 1_455 S
C646 C640 1.368 . S
C646 C645 1.523 . S
C647 C631 1.429 1_455 S
C647 C643 1.429 . S
C647 C648 1.523 . S
C648 C632 1.368 . S
C648 C644 1.368 1_455 S
C648 C647 1.523 . S
H649 C624 0.950 . S
H650 C626 0.950 . S
H651 C627 0.949 . S
H652 C629 0.950 . S
H653 C631 0.950 . S
C654 C655 1.349 . S
C654 C656 1.327 . S
C654 H679 0.950 . S
C655 C654 1.349 . S
C655 C671 1.349 1_545 S
C656 C654 1.327 . S
C656 C675 1.429 . S
C656 H680 0.950 . S
C657 C674 1.574 . S
C657 C676 1.368 1_565 S
C657 H681 0.949 . S
H658 C662 0.949 . S
C659 C660 1.349 1_565 S
C659 C661 1.327 . S
C659 H682 0.950 . S
C660 C659 1.349 1_545 S
C660 C672 1.349 . S
C661 C659 1.327 . S
C661 C677 1.429 1_565 S
C661 H683 0.950 . S
C662 H658 0.949 . S
C662 C670 1.574 . S
C662 C678 1.368 . S
H663 C671 0.950 . S
H664 C669 0.950 . S
H665 C670 0.949 . S
H666 C672 0.950 . S
H667 C673 0.950 . S
H668 C674 0.949 . S
C669 H664 0.950 . S
C669 C671 1.327 . S
C669 C675 1.429 1_565 S
C670 C662 1.574 . S
C670 H665 0.949 . S
C670 C676 1.368 . S
C671 C655 1.349 1_565 S
C671 H663 0.950 . S
C671 C669 1.327 . S
C672 C660 1.349 . S
C672 H666 0.950 . S
C672 C673 1.327 . S
C673 H667 0.950 . S
C673 C672 1.327 . S
C673 C677 1.429 . S
C674 C657 1.574 . S
C674 H668 0.949 . S
C674 C678 1.368 1_565 S
C675 C656 1.429 . S
C675 C669 1.429 1_545 S
C675 C676 1.523 . S
C676 C657 1.368 1_545 S
C676 C670 1.368 . S
C676 C675 1.523 . S
C677 C661 1.429 1_545 S
C677 C673 1.429 . S
C677 C678 1.523 . S
C678 C662 1.368 . S
C678 C674 1.368 1_545 S
C678 C677 1.523 . S
H679 C654 0.950 . S
H680 C656 0.950 . S
H681 C657 0.949 . S
H682 C659 0.950 . S
H683 C661 0.950 . S
C684 C685 1.349 . S
C684 C686 1.327 . S
C684 H709 0.950 . S
C685 C684 1.349 . S
C685 C701 1.349 . S
C686 C684 1.327 . S
C686 C705 1.429 . S
C686 H710 0.950 . S
C687 C704 1.520 1_554 S
C687 C706 1.368 . S
C687 H711 0.949 . S
H688 C692 0.949 . S
C689 C690 1.349 . S
C689 C691 1.327 . S
C689 H712 0.950 . S
C690 C689 1.349 . S
C690 C702 1.349 . S
C691 C689 1.327 . S
C691 C707 1.429 . S
C691 H713 0.950 . S
C692 H688 0.949 . S
C692 C700 1.574 . S
C692 C708 1.368 . S
H693 C701 0.950 . S
H694 C699 0.950 . S
H695 C700 0.949 . S
H696 C702 0.950 . S
H697 C703 0.950 1_554 S
H698 C704 1.031 . S
C699 H694 0.950 . S
C699 C701 1.327 . S
C699 C705 1.429 . S
C700 C692 1.574 . S
C700 H695 0.949 . S
C700 C706 1.368 . S
C701 C685 1.349 . S
C701 H693 0.950 . S
C701 C699 1.327 . S
C702 C690 1.349 . S
C702 H696 0.950 . S
C702 C703 1.327 . S
C703 H697 0.950 1_556 S
C703 C702 1.327 . S
C703 C707 1.429 . S
C704 C687 1.520 1_556 S
C704 H698 1.031 . S
C704 C708 1.335 1_556 S
C705 C686 1.429 . S
C705 C699 1.429 . S
C705 C706 1.523 . S
C706 C687 1.368 . S
C706 C700 1.368 . S
C706 C705 1.523 . S
C707 C691 1.429 . S
C707 C703 1.429 . S
C707 C708 1.523 1_556 S
C708 C692 1.368 . S
C708 C704 1.335 1_554 S
C708 C707 1.523 1_554 S
H709 C684 0.950 . S
H710 C686 0.950 . S
H711 C687 0.949 . S
H712 C689 0.950 . S
H713 C691 0.950 . S
C714 C715 1.349 1_655 S
C714 C716 1.327 . S
C714 H739 0.950 . S
C715 C714 1.349 1_455 S
C715 C731 1.349 . S
C716 C714 1.327 . S
C716 C735 1.429 1_655 S
C716 H740 0.950 . S
C717 C734 1.574 . S
C717 C736 1.368 . S
C717 H741 0.949 . S
H718 C722 0.949 . S
C719 C720 1.349 . S
C719 C721 1.327 . S
C719 H742 0.950 . S
C720 C719 1.349 . S
C720 C732 1.349 1_455 S
C721 C719 1.327 . S
C721 C737 1.429 . S
C721 H743 0.950 . S
C722 H718 0.949 . S
C722 C730 1.574 . S
C722 C738 1.368 1_655 S
H723 C731 0.950 . S
H724 C729 0.950 . S
H725 C730 0.949 . S
H726 C732 0.950 . S
H727 C733 0.950 . S
H728 C734 0.949 . S
C729 H724 0.950 . S
C729 C731 1.327 . S
C729 C735 1.429 . S
C730 C722 1.574 . S
C730 H725 0.949 . S
C730 C736 1.368 1_655 S
C731 C715 1.349 . S
C731 H723 0.950 . S
C731 C729 1.327 . S
C732 C720 1.349 1_655 S
C732 H726 0.950 . S
C732 C733 1.327 . S
C733 H727 0.950 . S
C733 C732 1.327 . S
C733 C737 1.429 1_655 S
C734 C717 1.574 . S
C734 H728 0.949 . S
C734 C738 1.368 . S
C735 C716 1.429 1_455 S
C735 C729 1.429 . S
C735 C736 1.523 . S
C736 C717 1.368 . S
C736 C730 1.368 1_455 S
C736 C735 1.523 . S
C737 C721 1.429 . S
C737 C733 1.429 1_455 S
C737 C738 1.523 . S
C738 C722 1.368 1_455 S
C738 C734 1.368 . S
C738 C737 1.523 . S
H739 C714 0.950 . S
H740 C716 0.950 . S
H741 C717 0.949 . S
H742 C719 0.950 . S
H743 C721 0.950 . S
C390 C97 1.155 . S
C385 C6 1.567 . S
C415 C22 1.678 . S
C420 C211 1.264 . S
C445 C34 1.046 . S
C450 C271 0.875 . S
C475 C7 1.393 . S
C480 C71 1.132 . S
C510 C185 1.225 . S
C505 C23 1.507 . S
C535 C35 1.222 . S
C540 C281 0.788 . S
C570 C167 0.999 . S
C565 C36 1.614 . S
C595 C9 1.774 . S
C600 C299 1.449 . S
C630 C43 1.056 1_455 S
C625 C21 1.297 . S
C660 C157 1.120 . S
C655 C37 1.420 . S
C690 C325 1.478 . S
C685 C8 1.943 . S
C715 C20 1.470 . S
C720 C53 0.926 . S
