# Generated by pormake.
# Topology pth, (4,4)-cn, num edge types: 1
# Building blocks:
#     Node 0, Type 0, BuildingBlock: QUQFOY_clean_sbu_3, # of connection points: 4
#     Node 1, Type 0, BuildingBlock: QUQFOY_clean_sbu_3, # of connection points: 4
#     Node 2, Type 0, BuildingBlock: QUQFOY_clean_sbu_3, # of connection points: 4
#     Node 3, Type 1, BuildingBlock: NAHDIM_clean_linker_0, # of connection points: 4
#     Node 4, Type 1, BuildingBlock: NAHDIM_clean_linker_0, # of connection points: 4
#     Node 5, Type 1, BuildingBlock: NAHDIM_clean_linker_0, # of connection points: 4
#     Edge 6, Type (0, 1), BuildingBlock: CIFDUS_clean_linker_0, # of connection points: 2
#     Edge 7, Type (0, 1), BuildingBlock: CIFDUS_clean_linker_0, # of connection points: 2
#     Edge 8, Type (0, 1), BuildingBlock: CIFDUS_clean_linker_0, # of connection points: 2
#     Edge 9, Type (0, 1), BuildingBlock: CIFDUS_clean_linker_0, # of connection points: 2
#     Edge 10, Type (0, 1), BuildingBlock: CIFDUS_clean_linker_0, # of connection points: 2
#     Edge 11, Type (0, 1), BuildingBlock: CIFDUS_clean_linker_0, # of connection points: 2
#     Edge 12, Type (0, 1), BuildingBlock: CIFDUS_clean_linker_0, # of connection points: 2
#     Edge 13, Type (0, 1), BuildingBlock: CIFDUS_clean_linker_0, # of connection points: 2
#     Edge 14, Type (0, 1), BuildingBlock: CIFDUS_clean_linker_0, # of connection points: 2
#     Edge 15, Type (0, 1), BuildingBlock: CIFDUS_clean_linker_0, # of connection points: 2
#     Edge 16, Type (0, 1), BuildingBlock: CIFDUS_clean_linker_0, # of connection points: 2
#     Edge 17, Type (0, 1), BuildingBlock: CIFDUS_clean_linker_0, # of connection points: 2
# Relax obj value: 0.008
# Max RMSD: 0.056
# Mean RMSD: 0.048
data_MOF--net-pth--node1-QUQFOY_clean_sbu_3--node2-NAHDIM_clean_linker_0--edge1-CIFDUS_clean_linker_0
_symmetry_space_group_name_H-M    P1
_symmetry_Int_Tables_number       1
_symmetry_cell_setting            triclinic
loop_
_symmetry_equiv_pos_as_xyz
'x, y, z'
_cell_length_a     29.157193
_cell_length_b     28.885196
_cell_length_c     75.697923
_cell_angle_alpha  89.694164
_cell_angle_beta   91.426537
_cell_angle_gamma 120.66115
loop_
_atom_site_label
_atom_site_type_symbol
_atom_site_fract_x
_atom_site_fract_y
_atom_site_fract_z
_atom_type_partial_charge
C0 C 0.97935 0.14897 0.07991 0.0
O1 O 0.9576 0.14532 0.06483 0.0
Cd2 Cd 0.96408 0.09772 0.04005 0.0
O3 O 0.00412 0.12393 0.08314 0.0
Cd4 Cd 0.02382 0.05972 0.06808 0.0
C5 C 0.10029 0.15384 0.0379 0.0
O6 O 0.94137 0.01053 0.05037 0.0
O7 O 0.00275 0.99256 0.04481 0.0
O8 O 0.0016 0.00491 0.09473 0.0
C9 C 0.95614 0.98367 0.04142 0.0
O10 O 0.05699 0.14781 0.03124 0.0
C11 C 0.04675 0.00857 0.09657 0.0
O12 O 0.10008 0.12848 0.05176 0.0
O13 O 0.08145 0.03647 0.08523 0.0
C14 C 0.13018 0.07255 0.42456 0.0
O15 O 0.1647 0.09215 0.41262 0.0
Cd16 Cd 0.14086 0.10162 0.38277 0.0
O17 O 0.08191 0.05902 0.42122 0.0
Cd18 Cd 0.02414 0.05753 0.39643 0.0
C19 C 0.04769 0.96775 0.37608 0.0
O20 O 0.08597 0.14186 0.38196 0.0
O21 O 0.01465 0.0863 0.36701 0.0
O22 O 0.9878 0.09442 0.41673 0.0
C23 C 0.05634 0.13251 0.36826 0.0
O24 O 0.09359 0.00803 0.37306 0.0
C25 C 0.93928 0.05799 0.41446 0.0
O26 O 0.01392 0.97321 0.38485 0.0
O27 O 0.92959 0.01992 0.40383 0.0
C28 C 0.99207 0.15234 0.70353 0.0
O29 O 0.99228 0.17639 0.71756 0.0
Cd30 Cd 0.02954 0.17331 0.74566 0.0
O31 O 0.01496 0.12465 0.70329 0.0
Cd32 Cd 0.06895 0.10318 0.72445 0.0
C33 C 0.96532 0.03591 0.75206 0.0
O34 O 0.11599 0.1892 0.74004 0.0
O35 O 0.12235 0.12531 0.75222 0.0
O36 O 0.13557 0.1204 0.70246 0.0
C37 C 0.1354 0.17441 0.75245 0.0
O38 O 0.97386 0.0821 0.75663 0.0
C39 C 0.13119 0.07443 0.70342 0.0
O40 O 0.99182 0.03111 0.73977 0.0
O41 O 0.09616 0.04072 0.71371 0.0
C42 C 0.90276 0.61748 0.36709 0.0
C43 C 0.94315 0.65786 0.35417 0.0
C44 C 0.95047 0.63024 0.32442 0.0
C45 C 0.0063 0.65912 0.32326 0.0
C46 C 0.03176 0.64499 0.31067 0.0
C47 C 0.00072 0.60107 0.29905 0.0
C48 C 0.94433 0.57323 0.2998 0.0
C49 C 0.92 0.58883 0.31232 0.0
C50 C 0.0918 0.67651 0.30994 0.0
C51 C 0.9097 0.52597 0.28773 0.0
C52 C 0.2223 0.38452 0.29234 0.0
C53 C 0.1715 0.37779 0.30024 0.0
C54 C 0.15129 0.45003 0.30176 0.0
C55 C 0.09578 0.41909 0.29887 0.0
C56 C 0.0667 0.44354 0.29345 0.0
C57 C 0.09388 0.49981 0.29074 0.0
C58 C 0.14933 0.53123 0.29457 0.0
C59 C 0.17716 0.50586 0.30023 0.0
C60 C 0.00733 0.4092 0.2901 0.0
C61 C 0.17953 0.59146 0.29212 0.0
C62 C 0.03275 0.41234 0.1761 0.0
C63 C 0.98766 0.40873 0.18384 0.0
C64 C 0.99191 0.45123 0.194 0.0
C65 C 0.0422 0.49861 0.19648 0.0
C66 C 0.08739 0.50332 0.18827 0.0
C67 C 0.08204 0.45999 0.17819 0.0
C68 C 0.94264 0.44497 0.20243 0.0
C69 C 0.14142 0.55349 0.19056 0.0
C70 C 0.07002 0.87444 0.19654 0.0
C71 C 0.06398 0.8433 0.17947 0.0
C72 C 0.02733 0.74936 0.189 0.0
C73 C 0.98173 0.69803 0.18893 0.0
C74 C 0.98238 0.65422 0.19682 0.0
C75 C 0.03012 0.66202 0.20488 0.0
C76 C 0.07648 0.71383 0.20502 0.0
C77 C 0.07454 0.75699 0.19723 0.0
C78 C 0.93212 0.59966 0.19656 0.0
C79 C 0.12836 0.72362 0.21333 0.0
C80 C 0.02675 0.58199 0.28679 0.0
C81 C 0.04671 0.5505 0.29374 0.0
C82 C 0.06582 0.52584 0.28267 0.0
C83 C 0.0617 0.5296 0.26413 0.0
C84 C 0.07445 0.50016 0.25253 0.0
C85 C 0.06857 0.50296 0.23433 0.0
C86 C 0.05326 0.53807 0.22703 0.0
C87 C 0.04707 0.54127 0.20858 0.0
C88 C 0.03875 0.5815 0.2017 0.0
C89 C 0.03245 0.6162 0.21289 0.0
C90 C 0.03105 0.6084 0.23139 0.0
C91 C 0.01779 0.6375 0.24297 0.0
C92 C 0.01556 0.62845 0.26113 0.0
C93 C 0.02887 0.59178 0.26841 0.0
C94 C 0.0446 0.56392 0.25702 0.0
C95 C 0.04317 0.5703 0.23847 0.0
C96 C 0.97593 0.28587 0.18092 0.0
C97 C 0.98667 0.31981 0.16417 0.0
O98 O 0.92468 0.64101 0.337 0.0
O99 O 0.0238 0.78993 0.18105 0.0
O100 O 0.03072 0.37096 0.1668 0.0
O101 O 0.18122 0.42758 0.30595 0.0
H102 H 0.98055 0.65729 0.35698 0.0
H103 H 0.90065 0.57816 0.3657 0.0
H104 H 0.86222 0.61079 0.36437 0.0
H105 H 0.91523 0.63195 0.38093 0.0
H106 H 0.03009 0.69274 0.33212 0.0
H107 H 0.87693 0.56738 0.31315 0.0
H108 H 0.10782 0.65143 0.31516 0.0
H109 H 0.1096 0.71426 0.31788 0.0
H110 H 0.10454 0.68669 0.29605 0.0
H111 H 0.86692 0.50553 0.29114 0.0
H112 H 0.92301 0.49616 0.28839 0.0
H113 H 0.91358 0.54 0.27387 0.0
H114 H 0.14063 0.36166 0.28939 0.0
H115 H 0.25581 0.4019 0.30223 0.0
H116 H 0.23382 0.412 0.28085 0.0
H117 H 0.21553 0.34502 0.28769 0.0
H118 H 0.07519 0.37595 0.30077 0.0
H119 H 0.21982 0.52939 0.30284 0.0
H120 H 0.98645 0.42678 0.29698 0.0
H121 H 0.99126 0.36715 0.2946 0.0
H122 H -0.00169 0.40848 0.27574 0.0
H123 H 0.22248 0.61016 0.29585 0.0
H124 H 0.16183 0.60992 0.30028 0.0
H125 H 0.17604 0.60098 0.27809 0.0
H126 H 0.95089 0.32284 0.16094 0.0
H127 H 0.94895 0.37272 0.18232 0.0
H128 H 0.11663 0.4628 0.17211 0.0
H129 H 0.94749 0.44557 0.21704 0.0
H130 H 0.90594 0.40686 0.19844 0.0
H131 H 0.9373 0.47923 0.19875 0.0
H132 H 0.17226 0.55192 0.18269 0.0
H133 H 0.15404 0.55891 0.20472 0.0
H134 H 0.13903 0.58925 0.18653 0.0
H135 H 0.10239 0.84552 0.17682 0.0
H136 H 0.10188 0.91728 0.19522 0.0
H137 H 0.08116 0.85717 0.20783 0.0
H138 H 0.032 0.87251 0.19959 0.0
H139 H 0.94541 0.69239 0.18263 0.0
H140 H 0.11022 0.79633 0.19765 0.0
H141 H 0.92379 0.58267 0.21008 0.0
H142 H 0.93766 0.57176 0.18807 0.0
H143 H 0.89699 0.60136 0.19141 0.0
H144 H 0.16202 0.76493 0.21088 0.0
H145 H 0.13852 0.69419 0.2081 0.0
H146 H 0.12394 0.71772 0.22783 0.0
H147 H 0.04746 0.54517 0.30792 0.0
H148 H 0.08762 0.47343 0.25738 0.0
H149 H 0.07746 0.47827 0.22603 0.0
H150 H 0.03645 0.58537 0.18748 0.0
H151 H 0.00775 0.66659 0.23805 0.0
H152 H 0.00419 0.65117 0.26944 0.0
H153 H 0.01174 0.28406 0.18514 0.0
H154 H 0.9421 0.24428 0.17848 0.0
H155 H 0.96526 0.30337 0.19198 0.0
C156 C 0.40111 0.05579 0.67849 0.0
C157 C 0.37839 0.06923 0.6621 0.0
C158 C 0.39147 0.02668 0.63651 0.0
C159 C 0.42356 0.07195 0.6262 0.0
C160 C 0.45534 0.06969 0.613 0.0
C161 C 0.45447 0.02098 0.60989 0.0
C162 C 0.42093 0.97485 0.61989 0.0
C163 C 0.38944 0.97822 0.63299 0.0
C164 C 0.48977 0.11931 0.6023 0.0
C165 C 0.41855 0.92214 0.61675 0.0
C166 C 0.85918 0.14508 0.59725 0.0
C167 C 0.82751 0.13011 0.61427 0.0
C168 C 0.73233 0.07073 0.60626 0.0
C169 C 0.68927 0.01811 0.60738 0.0
C170 C 0.6378 0.00474 0.60162 0.0
C171 C 0.62922 0.04526 0.5946 0.0
C172 C 0.67256 0.09865 0.59334 0.0
C173 C 0.72379 0.11077 0.59899 0.0
C174 C 0.59256 0.94729 0.603 0.0
C175 C 0.66473 0.14287 0.58597 0.0
C176 C 0.6116 -0.00086 0.47528 0.0
C177 C 0.58077 0.95041 0.48399 0.0
C178 C 0.54637 0.94559 0.49747 0.0
C179 C 0.5429 0.99086 0.50237 0.0
C180 C 0.5738 0.04033 0.49361 0.0
C181 C 0.60774 0.04401 0.48015 0.0
C182 C 0.51376 0.8922 0.5065 0.0
C183 C 0.57091 0.08936 0.49851 0.0
C184 C 0.11961 0.88783 0.51127 0.0
C185 C 0.17772 0.9285 0.50708 0.0
C186 C 0.25673 0.919 0.50972 0.0
C187 C 0.27245 0.88113 0.51222 0.0
C188 C 0.32537 0.89705 0.51681 0.0
C189 C 0.3637 0.95248 0.51858 0.0
C190 C 0.34855 0.99124 0.51537 0.0
C191 C 0.29504 0.97411 0.51108 0.0
C192 C 0.34015 0.85462 0.52003 0.0
C193 C 0.38879 0.05069 0.51668 0.0
C194 C 0.48841 0.01839 0.59606 0.0
C195 C 0.54012 0.03104 0.60094 0.0
C196 C 0.57496 0.03164 0.58844 0.0
C197 C 0.55815 0.01986 0.57051 0.0
C198 C 0.59243 0.021 0.55753 0.0
C199 C 0.57583 0.01035 0.53987 0.0
C200 C 0.52404 -0.00266 0.53453 0.0
C201 C 0.50682 0.98664 0.5166 0.0
C202 C 0.45471 0.97279 0.5118 0.0
C203 C 0.41909 0.96956 0.52445 0.0
C204 C 0.43586 0.98111 0.54239 0.0
C205 C 0.40124 0.97893 0.55542 0.0
C206 C 0.41838 0.99127 0.57299 0.0
C207 C 0.47051 0.00538 0.57826 0.0
C208 C 0.50572 0.00667 0.56542 0.0
C209 C 0.48852 0.99501 0.54743 0.0
C210 C 0.64767 0.05289 0.43703 0.0
C211 C 0.67837 0.04481 0.45231 0.0
O212 O 0.36137 0.02819 0.64968 0.0
O213 O 0.2045 0.90053 0.50575 0.0
O214 O 0.64396 0.00074 0.4623 0.0
O215 O 0.78097 0.08061 0.61224 0.0
H216 H 0.41128 0.10777 0.65697 0.0
H217 H 0.43659 0.05347 0.67489 0.0
H218 H 0.37118 0.01644 0.68408 0.0
H219 H 0.41365 0.08764 0.68876 0.0
H220 H 0.42331 0.10888 0.62822 0.0
H221 H 0.36384 0.94326 0.64081 0.0
H222 H 0.53218 0.13042 0.60375 0.0
H223 H 0.48626 0.15423 0.6064 0.0
H224 H 0.47824 0.11072 0.58808 0.0
H225 H 0.39035 0.8899 0.62562 0.0
H226 H 0.45886 0.92762 0.61887 0.0
H227 H 0.40602 0.90895 0.60282 0.0
H228 H 0.81794 0.16189 0.6172 0.0
H229 H 0.89702 0.18421 0.59899 0.0
H230 H 0.83563 0.14906 0.58623 0.0
H231 H 0.86852 0.11367 0.59356 0.0
H232 H 0.69617 0.98738 0.61287 0.0
H233 H 0.75666 0.1515 0.59756 0.0
H234 H 0.57277 0.93247 0.58983 0.0
H235 H 0.56225 0.94544 0.61203 0.0
H236 H 0.60623 0.92001 0.60802 0.0
H237 H 0.70169 0.18301 0.58699 0.0
H238 H 0.63265 0.1443 0.5931 0.0
H239 H 0.65194 0.13426 0.57184 0.0
H240 H 0.69763 0.08169 0.46075 0.0
H241 H 0.58376 0.91596 0.48017 0.0
H242 H 0.63073 0.08206 0.47354 0.0
H243 H 0.52361 0.89696 0.52088 0.0
H244 H 0.52088 0.86073 0.50113 0.0
H245 H 0.47069 0.87834 0.50488 0.0
H246 H 0.59777 0.12509 0.49055 0.0
H247 H 0.58191 0.09926 0.51271 0.0
H248 H 0.52937 0.08067 0.49655 0.0
H249 H 0.19463 0.95755 0.51835 0.0
H250 H 0.09692 0.90844 0.51366 0.0
H251 H 0.11806 0.86533 0.52341 0.0
H252 H 0.09999 0.85855 0.50019 0.0
H253 H 0.24267 0.83876 0.5109 0.0
H254 H 0.28353 0.00383 0.50869 0.0
H255 H 0.35859 0.86 0.53344 0.0
H256 H 0.37015 0.8592 0.51035 0.0
H257 H 0.30514 0.81315 0.51883 0.0
H258 H 0.3719 0.07566 0.51209 0.0
H259 H 0.42405 0.06055 0.50869 0.0
H260 H 0.40289 0.06163 0.53062 0.0
H261 H 0.55357 0.0409 0.61463 0.0
H262 H 0.63266 0.03055 0.56087 0.0
H263 H 0.60409 0.01227 0.53045 0.0
H264 H 0.44165 0.9643 0.49804 0.0
H265 H 0.36058 0.96808 0.55218 0.0
H266 H 0.39012 0.9894 0.58239 0.0
H267 H 0.62683 0.01628 0.42853 0.0
H268 H 0.67547 0.08758 0.42885 0.0
H269 H 0.61737 0.06137 0.44218 0.0
C270 C 0.81338 0.75452 0.81478 0.0
C271 C 0.77672 0.75504 0.79995 0.0
C272 C 0.69437 0.72396 0.81662 0.0
C273 C 0.66391 0.74164 0.82506 0.0
C274 C 0.62191 0.7073 0.83597 0.0
C275 C 0.61016 0.65383 0.83847 0.0
C276 C 0.63966 0.63503 0.82953 0.0
C277 C 0.68131 0.67018 0.81861 0.0
C278 C 0.59073 0.72841 0.8451 0.0
C279 C 0.62765 0.57799 0.83177 0.0
C280 C 0.17257 0.3613 0.84344 0.0
C281 C 0.22531 0.37366 0.83549 0.0
C282 C 0.31115 0.45799 0.83749 0.0
C283 C 0.34395 0.43552 0.83672 0.0
C284 C 0.39824 0.46602 0.84164 0.0
C285 C 0.41987 0.51981 0.84749 0.0
C286 C 0.3875 0.54327 0.84737 0.0
C287 C 0.33358 0.51206 0.8422 0.0
C288 C 0.43213 0.44037 0.84114 0.0
C289 C 0.40946 0.60076 0.85328 0.0
C290 C 0.3938 0.4224 0.96 0.0
C291 C 0.43482 0.41417 0.95446 0.0
C292 C 0.47642 0.45279 0.94425 0.0
C293 C 0.47795 0.50128 0.93994 0.0
C294 C 0.43873 0.51121 0.94651 0.0
C295 C 0.39685 0.47132 0.95631 0.0
C296 C 0.51807 0.44121 0.93769 0.0
C297 C 0.44022 0.56334 0.9428 0.0
C298 C 0.88484 0.83815 0.93725 0.0
C299 C 0.84139 0.81676 0.95109 0.0
C300 C 0.76591 0.72519 0.946 0.0
C301 C 0.75542 0.67561 0.93935 0.0
C302 C 0.70466 0.63774 0.93254 0.0
C303 C 0.66346 0.64998 0.93246 0.0
C304 C 0.67307 0.69899 0.93996 0.0
C305 C 0.72406 0.73586 0.94686 0.0
C306 C 0.69527 0.58515 0.92512 0.0
C307 C 0.62958 0.71265 0.94048 0.0
C308 C 0.56812 0.618 0.85085 0.0
C309 C 0.51617 0.58528 0.8441 0.0
C310 C 0.47497 0.55034 0.85506 0.0
C311 C 0.48586 0.54681 0.87318 0.0
C312 C 0.44573 0.51061 0.88442 0.0
C313 C 0.45671 0.50764 0.90223 0.0
C314 C 0.50786 0.54188 0.90965 0.0
C315 C 0.51904 0.54027 0.92787 0.0
C316 C 0.57006 0.57562 0.93486 0.0
C317 C 0.61074 0.61235 0.92408 0.0
C318 C 0.60068 0.61377 0.90576 0.0
C319 C 0.64097 0.64952 0.89447 0.0
C320 C 0.63064 0.65053 0.87646 0.0
C321 C 0.57934 0.61662 0.86909 0.0
C322 C 0.53807 0.58058 0.88025 0.0
C323 C 0.54891 0.57869 0.89856 0.0
C324 C 0.31848 0.29814 0.95459 0.0
C325 C 0.33589 0.33135 0.97184 0.0
O326 O 0.73604 0.76032 0.80693 0.0
O327 O 0.81651 0.7611 0.95163 0.0
O328 O 0.35031 0.38435 0.96861 0.0
O329 O 0.25783 0.42891 0.83397 0.0
H330 H 0.75926 0.71705 0.79211 0.0
H331 H 0.79132 0.71931 0.82349 0.0
H332 H 0.8301 0.79167 0.82301 0.0
H333 H 0.84678 0.75193 0.80909 0.0
H334 H 0.67387 0.78299 0.8233 0.0
H335 H 0.70364 0.65542 0.81185 0.0
H336 H 0.54756 0.7023 0.84182 0.0
H337 H 0.60354 0.7704 0.84127 0.0
H338 H 0.59593 0.72714 0.85964 0.0
H339 H 0.65385 0.56927 0.82378 0.0
H340 H 0.58545 0.54937 0.82784 0.0
H341 H 0.63286 0.57074 0.84591 0.0
H342 H 0.24365 0.35759 0.84492 0.0
H343 H 0.1458 0.31715 0.84489 0.0
H344 H 0.15216 0.37724 0.83495 0.0
H345 H 0.18019 0.38034 0.85673 0.0
H346 H 0.3273 0.39419 0.83242 0.0
H347 H 0.30809 0.52923 0.84244 0.0
H348 H 0.46928 0.46661 0.83393 0.0
H349 H 0.41081 0.40002 0.83471 0.0
H350 H 0.44391 0.43603 0.85483 0.0
H351 H 0.37919 0.61321 0.85222 0.0
H352 H 0.44398 0.62812 0.84514 0.0
H353 H 0.42403 0.60574 0.86723 0.0
H354 H 0.37034 0.33022 0.97801 0.0
H355 H 0.43426 0.37742 0.95773 0.0
H356 H 0.36562 0.4778 0.96089 0.0
H357 H 0.52015 0.44475 0.92308 0.0
H358 H 0.50971 0.4004 0.94139 0.0
H359 H 0.55781 0.4714 0.9433 0.0
H360 H 0.41173 0.56808 0.95097 0.0
H361 H 0.4298 0.56439 0.92866 0.0
H362 H 0.48103 0.59811 0.94536 0.0
H363 H 0.81339 0.83012 0.94666 0.0
H364 H 0.90666 0.88286 0.93709 0.0
H365 H 0.8663 0.82307 0.92394 0.0
H366 H 0.91368 0.82449 0.93994 0.0
H367 H 0.78762 0.66718 0.93913 0.0
H368 H 0.73073 0.77262 0.95298 0.0
H369 H 0.68667 0.58334 0.91069 0.0
H370 H 0.65993 0.55098 0.93125 0.0
H371 H 0.73023 0.58003 0.92735 0.0
H372 H 0.64373 0.75296 0.94642 0.0
H373 H 0.59593 0.68198 0.94828 0.0
H374 H 0.61396 0.71175 0.92688 0.0
H375 H 0.50757 0.58747 0.83019 0.0
H376 H 0.40537 0.4838 0.87956 0.0
H377 H 0.42429 0.47853 0.91014 0.0
H378 H 0.5782 0.5746 0.94888 0.0
H379 H 0.68108 0.67698 0.8994 0.0
H380 H 0.66331 0.67867 0.86843 0.0
H381 H 0.30449 0.25524 0.95746 0.0
H382 H 0.35199 0.31267 0.9454 0.0
H383 H 0.28567 0.3007 0.94777 0.0
H384 H 0.04536 0.19528 0.10862 0.0
H385 H 0.90378 0.17716 0.08249 0.0
H386 H 0.89461 0.22952 0.10587 0.0
H387 H 0.92504 0.27794 0.13418 0.0
H388 H 0.06901 0.30051 0.1597 0.0
H389 H 0.07923 0.24913 0.13607 0.0
C390 C 0.01252 0.20281 0.10807 0.0
C391 C 0.97505 0.18198 0.09392 0.0
C392 C 0.00796 0.23375 0.12142 0.0
C393 C 0.93315 0.19273 0.09323 0.0
C394 C 0.92782 0.2226 0.10661 0.0
C395 C 0.9589 0.27201 0.13449 0.0
C396 C -0.0041 0.29251 0.14876 0.0
C397 C 0.96479 0.24303 0.12081 0.0
C398 C 0.03978 0.28474 0.14892 0.0
C399 C 0.04558 0.25535 0.13544 0.0
H400 H 0.8326 0.98348 0.41435 0.0
H401 H 0.95001 0.14051 0.43472 0.0
H402 H 0.88028 0.14936 0.44851 0.0
H403 H 0.78586 0.11431 0.45399 0.0
H404 H 0.66771 0.95703 0.4343 0.0
H405 H 0.73771 0.94643 0.42106 0.0
C406 C 0.84289 0.01949 0.42187 0.0
C407 C 0.89646 0.06133 0.42341 0.0
C408 C 0.80246 0.02436 0.42987 0.0
C409 C 0.90914 0.10766 0.43329 0.0
C410 C 0.86927 0.11286 0.44118 0.0
C411 C 0.77549 0.0775 0.44694 0.0
C412 C 0.72174 0.03647 0.44516 0.0
C413 C 0.81581 0.0717 0.43944 0.0
C414 C 0.70888 0.9891 0.43589 0.0
C415 C 0.74884 0.9831 0.4283 0.0
H416 H 0.93245 0.93008 0.74568 0.0
H417 H 0.90886 0.03374 0.78053 0.0
H418 H 0.84756 0.95644 0.79784 0.0
H419 H 0.80366 0.86017 0.80404 0.0
H420 H 0.82568 0.75542 0.76942 0.0
H421 H 0.88473 0.83238 0.75115 0.0
C422 C 0.91367 0.93574 0.75699 0.0
C423 C 0.92561 0.98785 0.76179 0.0
C424 C 0.87819 0.89092 0.76698 0.0
C425 C 0.90065 0.99426 0.77648 0.0
C426 C 0.86554 0.95003 0.78646 0.0
C427 C 0.82058 0.85403 0.79231 0.0
C428 C 0.80941 0.80199 0.78787 0.0
C429 C 0.8544 0.89831 0.78193 0.0
C430 C 0.83293 0.79497 0.77291 0.0
C431 C 0.86683 0.83895 0.76252 0.0
H432 H 0.97788 0.94042 0.12087 0.0
H433 H 0.14158 0.01538 0.10497 0.0
H434 H 0.16085 0.9704 0.12893 0.0
H435 H 0.13151 0.91042 0.15456 0.0
H436 H 0.96798 0.83505 0.17045 0.0
H437 H 0.94828 0.87957 0.14633 0.0
C438 C 0.01779 0.94695 0.12265 0.0
C439 C 0.05824 0.98131 0.11116 0.0
C440 C 0.02856 0.92074 0.13641 0.0
C441 C 0.10969 0.98917 0.11362 0.0
C442 C 0.12077 0.96345 0.12732 0.0
C443 C 0.09145 0.90338 0.15262 0.0
C444 C 0.05103 0.86878 0.16407 0.0
C445 C 0.08053 0.92917 0.13878 0.0
C446 C -0.00048 0.86083 0.16162 0.0
C447 C 0.98834 0.88642 0.14789 0.0
H448 H 0.18604 0.02294 0.4304 0.0
H449 H 0.10228 0.08818 0.45704 0.0
H450 H 0.11529 0.05416 0.48532 0.0
H451 H 0.14435 -0.00023 0.50191 0.0
H452 H 0.21651 0.92377 0.47413 0.0
H453 H 0.21495 0.9685 0.44699 0.0
C454 C 0.17166 0.03056 0.44249 0.0
C455 C 0.14396 0.05854 0.44181 0.0
C456 C 0.17684 0.00849 0.45846 0.0
C457 C 0.1241 0.06703 0.45739 0.0
C458 C 0.13134 0.04742 0.47349 0.0
C459 C 0.15987 0.99318 0.48991 0.0
C460 C 0.18046 0.95845 0.49018 0.0
C461 C 0.15661 0.01707 0.4741 0.0
C462 C 0.20054 0.95033 0.47449 0.0
C463 C 0.19955 0.97583 0.45888 0.0
H464 H 0.15476 0.27559 0.75827 0.0
H465 H 0.17318 0.14992 0.78226 0.0
H466 H 0.20618 0.20233 0.80965 0.0
H467 H 0.22319 0.28073 0.82751 0.0
H468 H 0.20256 0.40507 0.80373 0.0
H469 H 0.17713 0.35641 0.7755 0.0
C470 C 0.16657 0.25991 0.76942 0.0
C471 C 0.16112 0.20874 0.76827 0.0
C472 C 0.18484 0.28992 0.78519 0.0
C473 C 0.17674 0.18909 0.78282 0.0
C474 C 0.19549 0.21896 0.79851 0.0
C475 C 0.21388 0.29743 0.81605 0.0
C476 C 0.21517 0.34654 0.81761 0.0
C477 C 0.19871 0.26893 0.79995 0.0
C478 C 0.20237 0.36757 0.80276 0.0
C479 C 0.18764 0.33968 0.78666 0.0
H480 H 0.95863 0.08778 0.6741 0.0
H481 H 0.96268 0.22642 0.69704 0.0
H482 H 0.91385 0.23242 0.67143 0.0
H483 H 0.86811 0.19743 0.64287 0.0
H484 H 0.86024 0.05696 0.62012 0.0
H485 H 0.91259 0.05266 0.64523 0.0
C486 C 0.94911 0.11948 0.67342 0.0
C487 C 0.96429 0.15653 0.68749 0.0
C488 C 0.92018 0.1223 0.65871 0.0
C489 C 0.95128 0.19716 0.68646 0.0
C490 C 0.92336 0.20071 0.6718 0.0
C491 C 0.87786 0.16588 0.64341 0.0
C492 C 0.86028 0.12754 0.62968 0.0
C493 C 0.90726 0.16329 0.65793 0.0
C494 C 0.87337 0.08694 0.63054 0.0
C495 C 0.90322 0.08446 0.64489 0.0
H496 H 0.97101 0.91198 0.02322 0.0
H497 H 0.87109 0.98198 0.02482 0.0
H498 H 0.82544 0.93493 -0.0026 0.0
H499 H 0.81789 0.87843 0.97199 0.0
H500 H 0.91567 0.80604 0.97096 0.0
H501 H 0.95818 0.84943 -0.00084 0.0
C502 C 0.93896 0.9166 0.01763 0.0
C503 C 0.92479 0.95078 0.02594 0.0
C504 C 0.91285 0.88939 0.0019 0.0
C505 C 0.88279 0.95591 0.01867 0.0
C506 C 0.85682 0.92921 0.00295 0.0
C507 C 0.84835 0.87202 0.97799 0.0
C508 C 0.86459 0.8402 0.9692 0.0
C509 C 0.87216 0.8966 0.99429 0.0
C510 C 0.90335 0.83132 0.9773 0.0
C511 C 0.92752 0.85597 0.99343 0.0
H512 H 0.95024 0.87763 0.36988 0.0
H513 H 0.11929 0.93648 0.37005 0.0
H514 H 0.1018 0.84661 0.36309 0.0
H515 H 0.03881 0.75059 0.35823 0.0
H516 H 0.86995 0.69192 0.35566 0.0
H517 H 0.88698 0.78217 0.36226 0.0
C518 C 0.98315 0.87071 0.36831 0.0
C519 C 0.03592 0.91361 0.37061 0.0
C520 C 0.97288 0.81887 0.36402 0.0
C521 C 0.07825 0.90423 0.36831 0.0
C522 C 0.06834 0.85277 0.36439 0.0
C523 C 0.00573 0.75757 0.35907 0.0
C524 C 0.95317 0.7142 0.3571 0.0
C525 C 0.01586 0.80972 0.36241 0.0
C526 C 0.91077 0.72421 0.35773 0.0
C527 C 0.92048 0.7759 0.3614 0.0
H528 H 0.21912 0.14429 0.68548 0.0
H529 H 0.12671 0.97773 0.70077 0.0
H530 H 0.19284 0.96033 0.68805 0.0
H531 H 0.2802 0.99409 0.6744 0.0
H532 H 0.37421 0.16182 0.66072 0.0
H533 H 0.30401 0.17698 0.67081 0.0
C534 C 0.21306 0.104 0.68585 0.0
C535 C 0.16809 0.06242 0.69412 0.0
C536 C 0.25176 0.09458 0.67887 0.0
C537 C 0.16103 0.01051 0.69453 0.0
C538 C 0.1989 0.00055 0.68729 0.0
C539 C 0.28502 0.03382 0.67354 0.0
C540 C 0.33248 0.07682 0.66693 0.0
C541 C 0.24492 0.04252 0.67973 0.0
C542 C 0.33817 0.12809 0.6658 0.0
C543 C 0.29809 0.13681 0.6716 0.0
H544 H 0.11802 0.22626 0.01208 0.0
H545 H 0.19631 0.15943 0.04313 0.0
H546 H 0.27706 0.21072 0.0261 0.0
H547 H 0.32333 0.26999 0.00105 0.0
H548 H 0.24464 0.33668 0.97026 0.0
H549 H 0.16609 0.28996 0.98854 0.0
C550 C 0.15283 0.22311 0.01522 0.0
C551 C 0.15088 0.18864 0.02876 0.0
C552 C 0.19901 0.25257 0.00538 0.0
C553 C 0.19662 0.18559 0.03276 0.0
C554 C 0.24279 0.21477 0.02299 0.0
C555 C 0.28925 0.27486 -0.00146 0.0
C556 C 0.28989 0.30699 0.9844 0.0
C557 C 0.24414 0.24774 0.00908 0.0
C558 C 0.24522 0.31252 0.98116 0.0
C559 C 0.20027 0.28568 0.99156 0.0
H560 H 0.13618 0.23742 0.36885 0.0
H561 H 0.0077 0.11772 0.33588 0.0
H562 H 0.03091 0.18326 0.31228 0.0
H563 H 0.08887 0.27405 0.3007 0.0
H564 H 0.21667 0.39419 0.33363 0.0
H565 H 0.19249 0.32915 0.35759 0.0
C566 C 0.11328 0.22571 0.3565 0.0
C567 C 0.07046 0.17271 0.35411 0.0
C568 C 0.12661 0.26372 0.343 0.0
C569 C 0.04092 0.15824 0.33807 0.0
C570 C 0.05414 0.19569 0.32455 0.0
C571 C 0.11104 0.28603 0.3132 0.0
C572 C 0.15417 0.33883 0.31548 0.0
C573 C 0.09698 0.24846 0.32685 0.0
C574 C 0.18299 0.35381 0.33166 0.0
C575 C 0.16931 0.31663 0.3453 0.0
loop_
_geom_bond_atom_site_label_1
_geom_bond_atom_site_label_2
_geom_bond_distance
_geom_bond_site_symmetry_2
_ccdc_geom_bond_type
C0 O1 1.306 1_455 S
C0 O3 1.160 . S
O1 C0 1.306 1_655 S
O1 Cd2 2.228 . S
Cd2 O1 2.228 . S
Cd2 O6 2.273 . S
Cd2 O10 2.277 1_655 S
O3 C0 1.160 . S
O3 Cd4 2.203 . S
Cd4 O3 2.203 . S
Cd4 O6 2.411 1_455 S
Cd4 O7 2.333 1_545 S
Cd4 O8 2.352 1_545 S
Cd4 O12 2.277 . S
Cd4 O13 2.356 1_545 S
C5 O10 1.209 . S
C5 O12 1.226 . S
O6 Cd2 2.273 . S
O6 Cd4 2.411 1_655 S
O6 C9 1.320 1_545 S
O7 Cd4 2.333 1_565 S
O7 C9 1.214 1_455 S
O8 Cd4 2.352 1_565 S
O8 C11 1.258 . S
C9 O6 1.320 1_565 S
C9 O7 1.214 1_655 S
O10 Cd2 2.277 1_455 S
O10 C5 1.209 . S
C11 O8 1.258 . S
C11 O13 1.282 . S
O12 Cd4 2.277 . S
O12 C5 1.226 . S
O13 Cd4 2.356 1_565 S
O13 C11 1.282 . S
C14 O15 1.306 . S
C14 O17 1.160 . S
O15 C14 1.306 . S
O15 Cd16 2.228 . S
Cd16 O15 2.228 . S
Cd16 O20 2.273 . S
Cd16 O24 2.277 . S
O17 C14 1.160 . S
O17 Cd18 2.203 . S
Cd18 O17 2.203 . S
Cd18 O20 2.411 . S
Cd18 O21 2.333 1_455 S
Cd18 O22 2.352 1_455 S
Cd18 O26 2.277 1_445 S
Cd18 O27 2.356 1_455 S
C19 O24 1.209 1_565 S
C19 O26 1.226 1_455 S
O20 Cd16 2.273 . S
O20 Cd18 2.411 . S
O20 C23 1.320 . S
O21 Cd18 2.333 1_655 S
O21 C23 1.214 1_655 S
O22 Cd18 2.352 1_655 S
O22 C25 1.258 . S
C23 O20 1.320 . S
C23 O21 1.214 1_455 S
O24 Cd16 2.277 . S
O24 C19 1.209 1_545 S
C25 O22 1.258 . S
C25 O27 1.282 . S
O26 Cd18 2.277 1_665 S
O26 C19 1.226 1_655 S
O27 Cd18 2.356 1_655 S
O27 C25 1.282 . S
C28 O29 1.306 . S
C28 O31 1.160 . S
O29 C28 1.306 . S
O29 Cd30 2.228 . S
Cd30 O29 2.228 . S
Cd30 O34 2.273 1_655 S
Cd30 O38 2.277 . S
O31 C28 1.160 . S
O31 Cd32 2.203 1_655 S
Cd32 O31 2.203 1_455 S
Cd32 O34 2.411 . S
Cd32 O35 2.333 . S
Cd32 O36 2.352 . S
Cd32 O40 2.277 1_445 S
Cd32 O41 2.356 . S
C33 O38 1.209 1_565 S
C33 O40 1.226 . S
O34 Cd30 2.273 1_455 S
O34 Cd32 2.411 . S
O34 C37 1.320 . S
O35 Cd32 2.333 . S
O35 C37 1.214 . S
O36 Cd32 2.352 . S
O36 C39 1.258 . S
C37 O34 1.320 . S
C37 O35 1.214 . S
O38 Cd30 2.277 . S
O38 C33 1.209 1_545 S
C39 O36 1.258 . S
C39 O41 1.282 . S
O40 Cd32 2.277 1_665 S
O40 C33 1.226 . S
O41 Cd32 2.356 . S
O41 C39 1.282 . S
C42 C43 1.560 1_655 S
C42 H103 0.959 . S
C42 H104 0.959 . S
C42 H105 0.960 . S
C43 C42 1.560 1_455 S
C43 O98 1.426 1_455 S
C43 H102 0.980 . S
C44 C45 1.407 . S
C44 C49 1.418 1_455 S
C44 O98 1.334 1_455 S
C45 C44 1.407 . S
C45 C46 1.360 . S
C45 H106 0.929 . S
C46 C45 1.360 . S
C46 C47 1.401 . S
C46 C50 1.527 . S
C47 C46 1.401 . S
C47 C48 1.405 1_455 S
C47 C80 1.587 . S
C48 C47 1.405 1_655 S
C48 C49 1.332 . S
C48 C51 1.496 . S
C49 C44 1.418 1_655 S
C49 C48 1.332 . S
C49 H107 0.929 . S
C50 C46 1.527 . S
C50 H108 0.959 . S
C50 H109 0.961 . S
C50 H110 0.961 . S
C51 C48 1.496 . S
C51 H111 0.960 . S
C51 H112 0.960 . S
C51 H113 0.961 . S
C52 C53 1.517 . S
C52 H115 0.961 . S
C52 H116 0.960 . S
C52 H117 0.959 . S
C53 C52 1.517 . S
C53 O101 1.468 . S
C53 H114 0.980 . S
C54 C55 1.349 . S
C54 C59 1.367 . S
C54 O101 1.408 . S
C55 C54 1.349 . S
C55 C56 1.407 . S
C55 H118 0.930 . S
C56 C55 1.407 . S
C56 C57 1.449 . S
C56 C60 1.535 1_455 S
C57 C56 1.449 . S
C57 C58 1.384 . S
C57 C82 1.553 . S
C58 C57 1.384 . S
C58 C59 1.364 . S
C58 C61 1.450 . S
C59 C54 1.367 . S
C59 C58 1.364 . S
C59 H119 0.931 . S
C60 C56 1.535 1_655 S
C60 H120 0.959 . S
C60 H121 0.961 . S
C60 H122 0.959 . S
C61 C58 1.450 . S
C61 H123 0.960 . S
C61 H124 0.960 . S
C61 H125 0.960 . S
C62 C63 1.309 . S
C62 C67 1.304 . S
C62 O100 1.435 . S
C63 C62 1.309 . S
C63 C64 1.476 . S
C63 H127 0.930 . S
C64 C63 1.476 . S
C64 C65 1.400 . S
C64 C68 1.567 1_455 S
C65 C64 1.400 . S
C65 C66 1.373 . S
C65 C87 1.432 . S
C66 C65 1.373 . S
C66 C67 1.339 . S
C66 C69 1.530 . S
C67 C62 1.304 . S
C67 C66 1.339 . S
C67 H128 0.930 . S
C68 C64 1.567 1_655 S
C68 H129 0.961 . S
C68 H130 0.960 . S
C68 H131 0.958 . S
C69 C66 1.530 . S
C69 H132 0.961 . S
C69 H133 0.960 . S
C69 H134 0.960 . S
C70 C71 1.535 . S
C70 H136 0.961 . S
C70 H137 0.957 1_455 S
C70 H138 0.957 1_455 S
C71 C70 1.535 . S
C71 O99 1.416 . S
C71 H135 0.980 . S
C72 C73 1.288 1_455 S
C72 C77 1.377 . S
C72 O99 1.406 . S
C73 C72 1.288 1_655 S
C73 C74 1.369 . S
C73 H139 0.932 . S
C74 C73 1.369 . S
C74 C75 1.398 1_655 S
C74 C78 1.527 . S
C75 C74 1.398 1_455 S
C75 C76 1.380 . S
C75 C89 1.497 . S
C76 C75 1.380 . S
C76 C77 1.383 . S
C76 C79 1.603 . S
C77 C72 1.377 . S
C77 C76 1.383 . S
C77 H140 0.929 . S
C78 C74 1.527 . S
C78 H141 0.961 . S
C78 H142 0.959 . S
C78 H143 0.959 . S
C79 C76 1.603 . S
C79 H144 0.960 . S
C79 H145 0.962 . S
C79 H146 0.961 . S
C80 C47 1.587 . S
C80 C81 1.360 . S
C80 C93 1.412 . S
C81 C80 1.360 . S
C81 C82 1.365 . S
C81 H147 0.929 . S
C82 C57 1.553 . S
C82 C81 1.365 . S
C82 C83 1.404 . S
C83 C82 1.404 . S
C83 C84 1.395 . S
C83 C94 1.451 . S
C84 C83 1.395 . S
C84 C85 1.322 . S
C84 H148 0.930 . S
C85 C84 1.322 . S
C85 C86 1.459 . S
C85 H149 0.929 . S
C86 C85 1.459 . S
C86 C87 1.445 . S
C86 C95 1.395 . S
C87 C65 1.432 . S
C87 C86 1.445 . S
C87 C88 1.370 . S
C88 C87 1.370 . S
C88 C89 1.438 . S
C88 H150 0.930 . S
C89 C75 1.497 . S
C89 C88 1.438 . S
C89 C90 1.360 . S
C90 C89 1.360 . S
C90 C91 1.401 . S
C90 C95 1.446 . S
C91 C90 1.401 . S
C91 C92 1.347 . S
C91 H151 0.929 . S
C92 C91 1.347 . S
C92 C93 1.455 . S
C92 H152 0.930 . S
C93 C80 1.412 . S
C93 C92 1.455 . S
C93 C94 1.331 . S
C94 C83 1.451 . S
C94 C93 1.331 . S
C94 C95 1.497 . S
C95 C86 1.395 . S
C95 C90 1.446 . S
C95 C94 1.497 . S
C96 C97 1.582 . S
C96 H153 0.962 . S
C96 H154 0.959 . S
C96 H155 0.958 . S
C97 C96 1.582 . S
C97 O100 1.458 . S
C97 H126 0.980 . S
O98 C43 1.426 1_655 S
O98 C44 1.334 1_655 S
O99 C71 1.416 . S
O99 C72 1.406 . S
O100 C62 1.435 . S
O100 C97 1.458 . S
O101 C53 1.468 . S
O101 C54 1.408 . S
H102 C43 0.980 . S
H103 C42 0.959 . S
H104 C42 0.959 . S
H105 C42 0.960 . S
H106 C45 0.929 . S
H107 C49 0.929 . S
H108 C50 0.959 . S
H109 C50 0.961 . S
H110 C50 0.961 . S
H111 C51 0.960 . S
H112 C51 0.960 . S
H113 C51 0.961 . S
H114 C53 0.980 . S
H115 C52 0.961 . S
H116 C52 0.960 . S
H117 C52 0.959 . S
H118 C55 0.930 . S
H119 C59 0.931 . S
H120 C60 0.959 . S
H121 C60 0.961 . S
H122 C60 0.959 . S
H123 C61 0.960 . S
H124 C61 0.960 . S
H125 C61 0.960 . S
H126 C97 0.980 . S
H127 C63 0.930 . S
H128 C67 0.930 . S
H129 C68 0.961 . S
H130 C68 0.960 . S
H131 C68 0.958 . S
H132 C69 0.961 . S
H133 C69 0.960 . S
H134 C69 0.960 . S
H135 C71 0.980 . S
H136 C70 0.961 . S
H137 C70 0.957 1_655 S
H138 C70 0.957 1_655 S
H139 C73 0.932 . S
H140 C77 0.929 . S
H141 C78 0.961 . S
H142 C78 0.959 . S
H143 C78 0.959 . S
H144 C79 0.960 . S
H145 C79 0.962 . S
H146 C79 0.961 . S
H147 C81 0.929 . S
H148 C84 0.930 . S
H149 C85 0.929 . S
H150 C88 0.930 . S
H151 C91 0.929 . S
H152 C92 0.930 . S
H153 C96 0.962 . S
H154 C96 0.959 . S
H155 C96 0.958 . S
C156 C157 1.560 1_565 S
C156 H217 0.959 . S
C156 H218 0.959 . S
C156 H219 0.960 1_565 S
C157 C156 1.560 1_545 S
C157 O212 1.426 . S
C157 H216 0.980 . S
C158 C159 1.407 . S
C158 C163 1.418 1_545 S
C158 O212 1.334 . S
C159 C158 1.407 . S
C159 C160 1.360 . S
C159 H220 0.929 . S
C160 C159 1.360 . S
C160 C161 1.401 . S
C160 C164 1.527 . S
C161 C160 1.401 . S
C161 C162 1.405 . S
C161 C194 1.587 . S
C162 C161 1.405 . S
C162 C163 1.332 1_545 S
C162 C165 1.496 1_545 S
C163 C158 1.418 1_565 S
C163 C162 1.332 1_565 S
C163 H221 0.929 . S
C164 C160 1.527 . S
C164 H222 0.959 . S
C164 H223 0.961 . S
C164 H224 0.961 . S
C165 C162 1.496 1_565 S
C165 H225 0.960 . S
C165 H226 0.960 . S
C165 H227 0.961 . S
C166 C167 1.517 . S
C166 H229 0.961 . S
C166 H230 0.960 . S
C166 H231 0.959 . S
C167 C166 1.517 . S
C167 O215 1.468 . S
C167 H228 0.980 . S
C168 C169 1.349 . S
C168 C173 1.367 . S
C168 O215 1.408 . S
C169 C168 1.349 . S
C169 C170 1.407 . S
C169 H232 0.930 . S
C170 C169 1.407 . S
C170 C171 1.449 . S
C170 C174 1.535 . S
C171 C170 1.449 . S
C171 C172 1.384 . S
C171 C196 1.553 . S
C172 C171 1.384 . S
C172 C173 1.364 . S
C172 C175 1.450 . S
C173 C168 1.367 . S
C173 C172 1.364 . S
C173 H233 0.931 . S
C174 C170 1.535 . S
C174 H234 0.959 . S
C174 H235 0.961 1_545 S
C174 H236 0.959 1_545 S
C175 C172 1.450 . S
C175 H237 0.960 . S
C175 H238 0.960 . S
C175 H239 0.960 . S
C176 C177 1.309 . S
C176 C181 1.304 . S
C176 O214 1.435 . S
C177 C176 1.309 . S
C177 C178 1.476 . S
C177 H241 0.930 . S
C178 C177 1.476 . S
C178 C179 1.400 . S
C178 C182 1.567 1_545 S
C179 C178 1.400 . S
C179 C180 1.373 . S
C179 C201 1.432 . S
C180 C179 1.373 . S
C180 C181 1.339 . S
C180 C183 1.530 . S
C181 C176 1.304 . S
C181 C180 1.339 . S
C181 H242 0.930 . S
C182 C178 1.567 1_565 S
C182 H243 0.961 . S
C182 H244 0.960 . S
C182 H245 0.958 . S
C183 C180 1.530 . S
C183 H246 0.961 . S
C183 H247 0.960 . S
C183 H248 0.960 . S
C184 C185 1.530 . S
C184 H250 0.961 . S
C184 H251 0.961 1_545 S
C184 H252 0.959 1_545 S
C185 C184 1.530 . S
C185 O213 1.412 . S
C185 H249 0.980 . S
C186 C187 1.288 1_545 S
C186 C191 1.377 . S
C186 O213 1.393 . S
C187 C186 1.288 1_565 S
C187 C188 1.369 1_565 S
C187 H253 0.932 . S
C188 C187 1.369 1_545 S
C188 C189 1.398 . S
C188 C192 1.527 1_545 S
C189 C188 1.398 . S
C189 C190 1.380 . S
C189 C203 1.497 . S
C190 C189 1.380 . S
C190 C191 1.383 . S
C190 C193 1.603 . S
C191 C186 1.377 . S
C191 C190 1.383 . S
C191 H254 0.929 . S
C192 C188 1.527 1_565 S
C192 H255 0.961 . S
C192 H256 0.959 . S
C192 H257 0.959 . S
C193 C190 1.603 . S
C193 H258 0.960 . S
C193 H259 0.962 . S
C193 H260 0.961 . S
C194 C161 1.587 . S
C194 C195 1.360 . S
C194 C207 1.412 . S
C195 C194 1.360 . S
C195 C196 1.365 . S
C195 H261 0.929 . S
C196 C171 1.553 . S
C196 C195 1.365 . S
C196 C197 1.404 . S
C197 C196 1.404 . S
C197 C198 1.395 . S
C197 C208 1.451 . S
C198 C197 1.395 . S
C198 C199 1.322 . S
C198 H262 0.930 . S
C199 C198 1.322 . S
C199 C200 1.459 . S
C199 H263 0.929 . S
C200 C199 1.459 . S
C200 C201 1.445 . S
C200 C209 1.395 . S
C201 C179 1.432 . S
C201 C200 1.445 . S
C201 C202 1.370 . S
C202 C201 1.370 . S
C202 C203 1.438 . S
C202 H264 0.930 . S
C203 C189 1.497 . S
C203 C202 1.438 . S
C203 C204 1.360 . S
C204 C203 1.360 . S
C204 C205 1.401 . S
C204 C209 1.446 . S
C205 C204 1.401 . S
C205 C206 1.347 . S
C205 H265 0.929 . S
C206 C205 1.347 . S
C206 C207 1.455 . S
C206 H266 0.930 . S
C207 C194 1.412 . S
C207 C206 1.455 . S
C207 C208 1.331 . S
C208 C197 1.451 . S
C208 C207 1.331 . S
C208 C209 1.497 . S
C209 C200 1.395 . S
C209 C204 1.446 . S
C209 C208 1.497 . S
C210 C211 1.582 . S
C210 H267 0.962 . S
C210 H268 0.959 . S
C210 H269 0.958 . S
C211 C210 1.582 . S
C211 O214 1.458 . S
C211 H240 0.980 . S
O212 C157 1.426 . S
O212 C158 1.334 . S
O213 C185 1.412 . S
O213 C186 1.393 . S
O214 C176 1.435 . S
O214 C211 1.458 . S
O215 C167 1.468 . S
O215 C168 1.408 . S
H216 C157 0.980 . S
H217 C156 0.959 . S
H218 C156 0.959 . S
H219 C156 0.960 1_545 S
H220 C159 0.929 . S
H221 C163 0.929 . S
H222 C164 0.959 . S
H223 C164 0.961 . S
H224 C164 0.961 . S
H225 C165 0.960 . S
H226 C165 0.960 . S
H227 C165 0.961 . S
H228 C167 0.980 . S
H229 C166 0.961 . S
H230 C166 0.960 . S
H231 C166 0.959 . S
H232 C169 0.930 . S
H233 C173 0.931 . S
H234 C174 0.959 . S
H235 C174 0.961 1_565 S
H236 C174 0.959 1_565 S
H237 C175 0.960 . S
H238 C175 0.960 . S
H239 C175 0.960 . S
H240 C211 0.980 . S
H241 C177 0.930 . S
H242 C181 0.930 . S
H243 C182 0.961 . S
H244 C182 0.960 . S
H245 C182 0.958 . S
H246 C183 0.961 . S
H247 C183 0.960 . S
H248 C183 0.960 . S
H249 C185 0.980 . S
H250 C184 0.961 . S
H251 C184 0.961 1_565 S
H252 C184 0.959 1_565 S
H253 C187 0.932 . S
H254 C191 0.929 . S
H255 C192 0.961 . S
H256 C192 0.959 . S
H257 C192 0.959 . S
H258 C193 0.960 . S
H259 C193 0.962 . S
H260 C193 0.961 . S
H261 C195 0.929 . S
H262 C198 0.930 . S
H263 C199 0.929 . S
H264 C202 0.930 . S
H265 C205 0.929 . S
H266 C206 0.930 . S
H267 C210 0.962 . S
H268 C210 0.959 . S
H269 C210 0.958 . S
C270 C271 1.560 . S
C270 H331 0.959 . S
C270 H332 0.959 . S
C270 H333 0.960 . S
C271 C270 1.560 . S
C271 O326 1.426 . S
C271 H330 0.980 . S
C272 C273 1.407 . S
C272 C277 1.418 . S
C272 O326 1.334 . S
C273 C272 1.407 . S
C273 C274 1.360 . S
C273 H334 0.929 . S
C274 C273 1.360 . S
C274 C275 1.401 . S
C274 C278 1.527 . S
C275 C274 1.401 . S
C275 C276 1.405 . S
C275 C308 1.587 . S
C276 C275 1.405 . S
C276 C277 1.332 . S
C276 C279 1.496 . S
C277 C272 1.418 . S
C277 C276 1.332 . S
C277 H335 0.929 . S
C278 C274 1.527 . S
C278 H336 0.959 . S
C278 H337 0.961 . S
C278 H338 0.961 . S
C279 C276 1.496 . S
C279 H339 0.960 . S
C279 H340 0.960 . S
C279 H341 0.961 . S
C280 C281 1.517 . S
C280 H343 0.961 . S
C280 H344 0.960 . S
C280 H345 0.959 . S
C281 C280 1.517 . S
C281 O329 1.468 . S
C281 H342 0.980 . S
C282 C283 1.349 . S
C282 C287 1.367 . S
C282 O329 1.408 . S
C283 C282 1.349 . S
C283 C284 1.407 . S
C283 H346 0.930 . S
C284 C283 1.407 . S
C284 C285 1.449 . S
C284 C288 1.535 . S
C285 C284 1.449 . S
C285 C286 1.384 . S
C285 C310 1.553 . S
C286 C285 1.384 . S
C286 C287 1.364 . S
C286 C289 1.450 . S
C287 C282 1.367 . S
C287 C286 1.364 . S
C287 H347 0.931 . S
C288 C284 1.535 . S
C288 H348 0.959 . S
C288 H349 0.961 . S
C288 H350 0.959 . S
C289 C286 1.450 . S
C289 H351 0.960 . S
C289 H352 0.960 . S
C289 H353 0.960 . S
C290 C291 1.309 . S
C290 C295 1.304 . S
C290 O328 1.435 . S
C291 C290 1.309 . S
C291 C292 1.476 . S
C291 H355 0.930 . S
C292 C291 1.476 . S
C292 C293 1.400 . S
C292 C296 1.567 . S
C293 C292 1.400 . S
C293 C294 1.373 . S
C293 C315 1.432 . S
C294 C293 1.373 . S
C294 C295 1.339 . S
C294 C297 1.530 . S
C295 C290 1.304 . S
C295 C294 1.339 . S
C295 H356 0.930 . S
C296 C292 1.567 . S
C296 H357 0.961 . S
C296 H358 0.960 . S
C296 H359 0.958 . S
C297 C294 1.530 . S
C297 H360 0.961 . S
C297 H361 0.960 . S
C297 H362 0.960 . S
C298 C299 1.530 . S
C298 H364 0.961 . S
C298 H365 0.961 . S
C298 H366 0.959 . S
C299 C298 1.530 . S
C299 O327 1.412 . S
C299 H363 0.980 . S
C300 C301 1.288 . S
C300 C305 1.377 . S
C300 O327 1.393 . S
C301 C300 1.288 . S
C301 C302 1.369 . S
C301 H367 0.932 . S
C302 C301 1.369 . S
C302 C303 1.398 . S
C302 C306 1.527 . S
C303 C302 1.398 . S
C303 C304 1.380 . S
C303 C317 1.497 . S
C304 C303 1.380 . S
C304 C305 1.383 . S
C304 C307 1.603 . S
C305 C300 1.377 . S
C305 C304 1.383 . S
C305 H368 0.929 . S
C306 C302 1.527 . S
C306 H369 0.961 . S
C306 H370 0.959 . S
C306 H371 0.959 . S
C307 C304 1.603 . S
C307 H372 0.960 . S
C307 H373 0.962 . S
C307 H374 0.961 . S
C308 C275 1.587 . S
C308 C309 1.360 . S
C308 C321 1.412 . S
C309 C308 1.360 . S
C309 C310 1.365 . S
C309 H375 0.929 . S
C310 C285 1.553 . S
C310 C309 1.365 . S
C310 C311 1.404 . S
C311 C310 1.404 . S
C311 C312 1.395 . S
C311 C322 1.451 . S
C312 C311 1.395 . S
C312 C313 1.322 . S
C312 H376 0.930 . S
C313 C312 1.322 . S
C313 C314 1.459 . S
C313 H377 0.929 . S
C314 C313 1.459 . S
C314 C315 1.445 . S
C314 C323 1.395 . S
C315 C293 1.432 . S
C315 C314 1.445 . S
C315 C316 1.370 . S
C316 C315 1.370 . S
C316 C317 1.438 . S
C316 H378 0.930 . S
C317 C303 1.497 . S
C317 C316 1.438 . S
C317 C318 1.360 . S
C318 C317 1.360 . S
C318 C319 1.401 . S
C318 C323 1.446 . S
C319 C318 1.401 . S
C319 C320 1.347 . S
C319 H379 0.929 . S
C320 C319 1.347 . S
C320 C321 1.455 . S
C320 H380 0.930 . S
C321 C308 1.412 . S
C321 C320 1.455 . S
C321 C322 1.331 . S
C322 C311 1.451 . S
C322 C321 1.331 . S
C322 C323 1.497 . S
C323 C314 1.395 . S
C323 C318 1.446 . S
C323 C322 1.497 . S
C324 C325 1.582 . S
C324 H381 0.962 . S
C324 H382 0.959 . S
C324 H383 0.958 . S
C325 C324 1.582 . S
C325 O328 1.458 . S
C325 H354 0.980 . S
O326 C271 1.426 . S
O326 C272 1.334 . S
O327 C299 1.412 . S
O327 C300 1.393 . S
O328 C290 1.435 . S
O328 C325 1.458 . S
O329 C281 1.468 . S
O329 C282 1.408 . S
H330 C271 0.980 . S
H331 C270 0.959 . S
H332 C270 0.959 . S
H333 C270 0.960 . S
H334 C273 0.929 . S
H335 C277 0.929 . S
H336 C278 0.959 . S
H337 C278 0.961 . S
H338 C278 0.961 . S
H339 C279 0.960 . S
H340 C279 0.960 . S
H341 C279 0.961 . S
H342 C281 0.980 . S
H343 C280 0.961 . S
H344 C280 0.960 . S
H345 C280 0.959 . S
H346 C283 0.930 . S
H347 C287 0.931 . S
H348 C288 0.959 . S
H349 C288 0.961 . S
H350 C288 0.959 . S
H351 C289 0.960 . S
H352 C289 0.960 . S
H353 C289 0.960 . S
H354 C325 0.980 . S
H355 C291 0.930 . S
H356 C295 0.930 . S
H357 C296 0.961 . S
H358 C296 0.960 . S
H359 C296 0.958 . S
H360 C297 0.961 . S
H361 C297 0.960 . S
H362 C297 0.960 . S
H363 C299 0.980 . S
H364 C298 0.961 . S
H365 C298 0.961 . S
H366 C298 0.959 . S
H367 C301 0.932 . S
H368 C305 0.929 . S
H369 C306 0.961 . S
H370 C306 0.959 . S
H371 C306 0.959 . S
H372 C307 0.960 . S
H373 C307 0.962 . S
H374 C307 0.961 . S
H375 C309 0.929 . S
H376 C312 0.930 . S
H377 C313 0.929 . S
H378 C316 0.930 . S
H379 C319 0.929 . S
H380 C320 0.930 . S
H381 C324 0.962 . S
H382 C324 0.959 . S
H383 C324 0.958 . S
H384 C390 0.930 . S
H385 C393 0.930 . S
H386 C394 0.930 . S
H387 C395 0.930 . S
H388 C398 0.930 . S
H389 C399 0.930 . S
C390 H384 0.930 . S
C390 C391 1.355 . S
C390 C392 1.415 . S
C391 C390 1.355 . S
C391 C393 1.419 . S
C392 C390 1.415 . S
C392 C397 1.425 . S
C392 C399 1.409 . S
C393 H385 0.930 . S
C393 C391 1.419 . S
C393 C394 1.362 . S
C394 H386 0.930 . S
C394 C393 1.362 . S
C394 C397 1.409 . S
C395 H387 0.930 . S
C395 C396 1.355 . S
C395 C397 1.415 . S
C396 C395 1.355 . S
C396 C398 1.419 . S
C397 C392 1.425 . S
C397 C394 1.409 . S
C397 C395 1.415 . S
C398 H388 0.930 . S
C398 C396 1.419 . S
C398 C399 1.362 . S
C399 H389 0.930 . S
C399 C392 1.409 . S
C399 C398 1.362 . S
H400 C406 0.930 . S
H401 C409 0.930 . S
H402 C410 0.930 . S
H403 C411 0.930 . S
H404 C414 0.930 . S
H405 C415 0.930 . S
C406 H400 0.930 . S
C406 C407 1.355 . S
C406 C408 1.415 . S
C407 C406 1.355 . S
C407 C409 1.419 . S
C408 C406 1.415 . S
C408 C413 1.425 . S
C408 C415 1.409 . S
C409 H401 0.930 . S
C409 C407 1.419 . S
C409 C410 1.362 . S
C410 H402 0.930 . S
C410 C409 1.362 . S
C410 C413 1.409 . S
C411 H403 0.930 . S
C411 C412 1.355 . S
C411 C413 1.415 . S
C412 C411 1.355 . S
C412 C414 1.419 . S
C413 C408 1.425 . S
C413 C410 1.409 . S
C413 C411 1.415 . S
C414 H404 0.930 . S
C414 C412 1.419 . S
C414 C415 1.362 . S
C415 H405 0.930 . S
C415 C408 1.409 . S
C415 C414 1.362 . S
H416 C422 0.930 . S
H417 C425 0.930 . S
H418 C426 0.930 . S
H419 C427 0.930 . S
H420 C430 0.930 . S
H421 C431 0.930 . S
C422 H416 0.930 . S
C422 C423 1.355 . S
C422 C424 1.415 . S
C423 C422 1.355 . S
C423 C425 1.419 . S
C424 C422 1.415 . S
C424 C429 1.425 . S
C424 C431 1.409 . S
C425 H417 0.930 . S
C425 C423 1.419 . S
C425 C426 1.362 . S
C426 H418 0.930 . S
C426 C425 1.362 . S
C426 C429 1.409 . S
C427 H419 0.930 . S
C427 C428 1.355 . S
C427 C429 1.415 . S
C428 C427 1.355 . S
C428 C430 1.419 . S
C429 C424 1.425 . S
C429 C426 1.409 . S
C429 C427 1.415 . S
C430 H420 0.930 . S
C430 C428 1.419 . S
C430 C431 1.362 . S
C431 H421 0.930 . S
C431 C424 1.409 . S
C431 C430 1.362 . S
H432 C438 0.930 1_655 S
H433 C441 0.930 . S
H434 C442 0.930 . S
H435 C443 0.930 . S
H436 C446 0.938 . S
H437 C447 0.930 . S
C438 H432 0.930 1_455 S
C438 C439 1.355 . S
C438 C440 1.415 . S
C439 C438 1.355 . S
C439 C441 1.419 . S
C440 C438 1.415 . S
C440 C445 1.425 . S
C440 C447 1.409 1_455 S
C441 H433 0.930 . S
C441 C439 1.419 . S
C441 C442 1.362 . S
C442 H434 0.930 . S
C442 C441 1.362 . S
C442 C445 1.409 . S
C443 H435 0.930 . S
C443 C444 1.355 . S
C443 C445 1.415 . S
C444 C443 1.355 . S
C444 C446 1.400 1_455 S
C445 C440 1.425 . S
C445 C442 1.409 . S
C445 C443 1.415 . S
C446 H436 0.938 . S
C446 C444 1.400 1_655 S
C446 C447 1.374 . S
C447 H437 0.930 . S
C447 C440 1.409 1_655 S
C447 C446 1.374 . S
H448 C454 0.930 . S
H449 C457 0.930 . S
H450 C458 0.930 . S
H451 C459 0.930 . S
H452 C462 0.930 . S
H453 C463 0.930 . S
C454 H448 0.930 . S
C454 C455 1.355 . S
C454 C456 1.415 . S
C455 C454 1.355 . S
C455 C457 1.419 . S
C456 C454 1.415 . S
C456 C461 1.425 . S
C456 C463 1.409 . S
C457 H449 0.930 . S
C457 C455 1.419 . S
C457 C458 1.362 . S
C458 H450 0.930 . S
C458 C457 1.362 . S
C458 C461 1.409 . S
C459 H451 0.930 . S
C459 C460 1.355 . S
C459 C461 1.415 . S
C460 C459 1.355 . S
C460 C462 1.419 . S
C461 C456 1.425 . S
C461 C458 1.409 . S
C461 C459 1.415 . S
C462 H452 0.930 . S
C462 C460 1.419 . S
C462 C463 1.362 . S
C463 H453 0.930 . S
C463 C456 1.409 . S
C463 C462 1.362 . S
H464 C470 0.930 . S
H465 C473 0.930 . S
H466 C474 0.930 . S
H467 C475 0.930 . S
H468 C478 0.930 . S
H469 C479 0.930 . S
C470 H464 0.930 . S
C470 C471 1.355 . S
C470 C472 1.415 . S
C471 C470 1.355 . S
C471 C473 1.419 . S
C472 C470 1.415 . S
C472 C477 1.425 . S
C472 C479 1.409 . S
C473 H465 0.930 . S
C473 C471 1.419 . S
C473 C474 1.362 . S
C474 H466 0.930 . S
C474 C473 1.362 . S
C474 C477 1.409 . S
C475 H467 0.930 . S
C475 C476 1.355 . S
C475 C477 1.415 . S
C476 C475 1.355 . S
C476 C478 1.419 . S
C477 C472 1.425 . S
C477 C474 1.409 . S
C477 C475 1.415 . S
C478 H468 0.930 . S
C478 C476 1.419 . S
C478 C479 1.362 . S
C479 H469 0.930 . S
C479 C472 1.409 . S
C479 C478 1.362 . S
H480 C486 0.930 . S
H481 C489 0.930 . S
H482 C490 0.930 . S
H483 C491 0.930 . S
H484 C494 0.930 . S
H485 C495 0.930 . S
C486 H480 0.930 . S
C486 C487 1.355 . S
C486 C488 1.415 . S
C487 C486 1.355 . S
C487 C489 1.419 . S
C488 C486 1.415 . S
C488 C493 1.425 . S
C488 C495 1.409 . S
C489 H481 0.930 . S
C489 C487 1.419 . S
C489 C490 1.362 . S
C490 H482 0.930 . S
C490 C489 1.362 . S
C490 C493 1.409 . S
C491 H483 0.930 . S
C491 C492 1.355 . S
C491 C493 1.415 . S
C492 C491 1.355 . S
C492 C494 1.419 . S
C493 C488 1.425 . S
C493 C490 1.409 . S
C493 C491 1.415 . S
C494 H484 0.930 . S
C494 C492 1.419 . S
C494 C495 1.362 . S
C495 H485 0.930 . S
C495 C488 1.409 . S
C495 C494 1.362 . S
H496 C502 0.930 . S
H497 C505 0.930 . S
H498 C506 0.930 1_556 S
H499 C507 0.930 . S
H500 C510 0.930 . S
H501 C511 0.930 . S
C502 H496 0.930 . S
C502 C503 1.355 . S
C502 C504 1.415 . S
C503 C502 1.355 . S
C503 C505 1.419 . S
C504 C502 1.415 . S
C504 C509 1.425 . S
C504 C511 1.409 . S
C505 H497 0.930 . S
C505 C503 1.419 . S
C505 C506 1.362 . S
C506 H498 0.930 1_554 S
C506 C505 1.362 . S
C506 C509 1.409 . S
C507 H499 0.930 . S
C507 C508 1.355 . S
C507 C509 1.415 1_556 S
C508 C507 1.355 . S
C508 C510 1.419 1_556 S
C509 C504 1.425 . S
C509 C506 1.409 . S
C509 C507 1.415 1_554 S
C510 H500 0.930 . S
C510 C508 1.419 1_554 S
C510 C511 1.362 . S
C511 H501 0.930 . S
C511 C504 1.409 . S
C511 C510 1.362 . S
H512 C518 0.930 . S
H513 C521 0.930 . S
H514 C522 0.930 . S
H515 C523 0.930 . S
H516 C526 0.930 . S
H517 C527 0.930 . S
C518 H512 0.930 . S
C518 C519 1.355 1_655 S
C518 C520 1.415 1_655 S
C519 C518 1.355 1_455 S
C519 C521 1.419 . S
C520 C518 1.415 1_455 S
C520 C525 1.425 . S
C520 C527 1.409 1_455 S
C521 H513 0.930 . S
C521 C519 1.419 . S
C521 C522 1.362 . S
C522 H514 0.930 . S
C522 C521 1.362 . S
C522 C525 1.409 . S
C523 H515 0.930 . S
C523 C524 1.355 . S
C523 C525 1.415 . S
C524 C523 1.355 . S
C524 C526 1.419 1_455 S
C525 C520 1.425 . S
C525 C522 1.409 . S
C525 C523 1.415 . S
C526 H516 0.930 . S
C526 C524 1.419 1_655 S
C526 C527 1.362 . S
C527 H517 0.930 . S
C527 C520 1.409 1_655 S
C527 C526 1.362 . S
H528 C534 0.930 . S
H529 C537 0.930 . S
H530 C538 0.930 . S
H531 C539 0.930 1_565 S
H532 C542 0.930 . S
H533 C543 0.930 . S
C534 H528 0.930 . S
C534 C535 1.355 . S
C534 C536 1.415 . S
C535 C534 1.355 . S
C535 C537 1.419 1_545 S
C536 C534 1.415 . S
C536 C541 1.425 . S
C536 C543 1.409 . S
C537 H529 0.930 . S
C537 C535 1.419 1_565 S
C537 C538 1.362 . S
C538 H530 0.930 . S
C538 C537 1.362 . S
C538 C541 1.409 1_565 S
C539 H531 0.930 1_545 S
C539 C540 1.355 . S
C539 C541 1.415 . S
C540 C539 1.355 . S
C540 C542 1.419 . S
C541 C536 1.425 . S
C541 C538 1.409 1_545 S
C541 C539 1.415 . S
C542 H532 0.930 . S
C542 C540 1.419 . S
C542 C543 1.362 . S
C543 H533 0.930 . S
C543 C536 1.409 . S
C543 C542 1.362 . S
H544 C550 0.930 . S
H545 C553 0.930 . S
H546 C554 0.930 . S
H547 C555 0.930 . S
H548 C558 0.930 . S
H549 C559 0.930 . S
C550 H544 0.930 . S
C550 C551 1.355 . S
C550 C552 1.415 . S
C551 C550 1.355 . S
C551 C553 1.419 . S
C552 C550 1.415 . S
C552 C557 1.425 . S
C552 C559 1.409 . S
C553 H545 0.930 . S
C553 C551 1.419 . S
C553 C554 1.362 . S
C554 H546 0.930 . S
C554 C553 1.362 . S
C554 C557 1.409 . S
C555 H547 0.930 . S
C555 C556 1.355 . S
C555 C557 1.415 1_556 S
C556 C555 1.355 . S
C556 C558 1.419 . S
C557 C552 1.425 . S
C557 C554 1.409 . S
C557 C555 1.415 1_554 S
C558 H548 0.930 . S
C558 C556 1.419 . S
C558 C559 1.362 1_556 S
C559 H549 0.930 . S
C559 C552 1.409 . S
C559 C558 1.362 1_554 S
H560 C566 0.930 . S
H561 C569 0.930 . S
H562 C570 0.930 . S
H563 C571 0.930 . S
H564 C574 0.930 . S
H565 C575 0.930 . S
C566 H560 0.930 . S
C566 C567 1.355 . S
C566 C568 1.415 . S
C567 C566 1.355 . S
C567 C569 1.419 . S
C568 C566 1.415 . S
C568 C573 1.425 . S
C568 C575 1.409 . S
C569 H561 0.930 . S
C569 C567 1.419 . S
C569 C570 1.362 . S
C570 H562 0.930 . S
C570 C569 1.362 . S
C570 C573 1.409 . S
C571 H563 0.930 . S
C571 C572 1.355 . S
C571 C573 1.415 . S
C572 C571 1.355 . S
C572 C574 1.419 . S
C573 C568 1.425 . S
C573 C570 1.409 . S
C573 C571 1.415 . S
C574 H564 0.930 . S
C574 C572 1.419 . S
C574 C575 1.362 . S
C575 H565 0.930 . S
C575 C568 1.409 . S
C575 C574 1.362 . S
C396 C97 1.078 . S
C391 C0 1.523 . S
C407 C25 1.564 . S
C412 C211 1.244 . S
C423 C33 1.360 . S
C428 C271 0.967 . S
C439 C11 1.367 . S
C444 C71 1.021 . S
C460 C185 1.207 . S
C455 C14 1.440 . S
C471 C37 1.518 . S
C476 C281 0.850 . S
C492 C167 0.997 . S
C487 C28 1.485 . S
C503 C9 1.456 . S
C508 C299 1.211 . S
C524 C43 1.074 . S
C519 C19 1.376 . S
C540 C157 1.040 . S
C535 C39 1.346 . S
C556 C325 1.175 . S
C551 C5 1.581 . S
C567 C23 1.542 . S
C572 C53 0.843 . S
