# Generated by pormake.
# Topology ctn, (3,4)-cn, num edge types: 1
# Building blocks:
#     Node 0, Type 0, BuildingBlock: BELTOD_clean_linker_0, # of connection points: 3
#     Node 1, Type 0, BuildingBlock: BELTOD_clean_linker_0, # of connection points: 3
#     Node 2, Type 0, BuildingBlock: BELTOD_clean_linker_0, # of connection points: 3
#     Node 3, Type 0, BuildingBlock: BELTOD_clean_linker_0, # of connection points: 3
#     Node 4, Type 0, BuildingBlock: BELTOD_clean_linker_0, # of connection points: 3
#     Node 5, Type 0, BuildingBlock: BELTOD_clean_linker_0, # of connection points: 3
#     Node 6, Type 0, BuildingBlock: BELTOD_clean_linker_0, # of connection points: 3
#     Node 7, Type 0, BuildingBlock: BELTOD_clean_linker_0, # of connection points: 3
#     Node 8, Type 0, BuildingBlock: BELTOD_clean_linker_0, # of connection points: 3
#     Node 9, Type 0, BuildingBlock: BELTOD_clean_linker_0, # of connection points: 3
#     Node 10, Type 0, BuildingBlock: BELTOD_clean_linker_0, # of connection points: 3
#     Node 11, Type 0, BuildingBlock: BELTOD_clean_linker_0, # of connection points: 3
#     Node 12, Type 0, BuildingBlock: BELTOD_clean_linker_0, # of connection points: 3
#     Node 13, Type 0, BuildingBlock: BELTOD_clean_linker_0, # of connection points: 3
#     Node 14, Type 0, BuildingBlock: BELTOD_clean_linker_0, # of connection points: 3
#     Node 15, Type 0, BuildingBlock: BELTOD_clean_linker_0, # of connection points: 3
#     Node 16, Type 1, BuildingBlock: UXUYUI_clean_sbu_0, # of connection points: 4
#     Node 17, Type 1, BuildingBlock: UXUYUI_clean_sbu_0, # of connection points: 4
#     Node 18, Type 1, BuildingBlock: UXUYUI_clean_sbu_0, # of connection points: 4
#     Node 19, Type 1, BuildingBlock: UXUYUI_clean_sbu_0, # of connection points: 4
#     Node 20, Type 1, BuildingBlock: UXUYUI_clean_sbu_0, # of connection points: 4
#     Node 21, Type 1, BuildingBlock: UXUYUI_clean_sbu_0, # of connection points: 4
#     Node 22, Type 1, BuildingBlock: UXUYUI_clean_sbu_0, # of connection points: 4
#     Node 23, Type 1, BuildingBlock: UXUYUI_clean_sbu_0, # of connection points: 4
#     Node 24, Type 1, BuildingBlock: UXUYUI_clean_sbu_0, # of connection points: 4
#     Node 25, Type 1, BuildingBlock: UXUYUI_clean_sbu_0, # of connection points: 4
#     Node 26, Type 1, BuildingBlock: UXUYUI_clean_sbu_0, # of connection points: 4
#     Node 27, Type 1, BuildingBlock: UXUYUI_clean_sbu_0, # of connection points: 4
#     Edge 28, Type (0, 1), BuildingBlock: KIFKEQ_clean_linker_1, # of connection points: 2
#     Edge 29, Type (0, 1), BuildingBlock: KIFKEQ_clean_linker_1, # of connection points: 2
#     Edge 30, Type (0, 1), BuildingBlock: KIFKEQ_clean_linker_1, # of connection points: 2
#     Edge 31, Type (0, 1), BuildingBlock: KIFKEQ_clean_linker_1, # of connection points: 2
#     Edge 32, Type (0, 1), BuildingBlock: KIFKEQ_clean_linker_1, # of connection points: 2
#     Edge 33, Type (0, 1), BuildingBlock: KIFKEQ_clean_linker_1, # of connection points: 2
#     Edge 34, Type (0, 1), BuildingBlock: KIFKEQ_clean_linker_1, # of connection points: 2
#     Edge 35, Type (0, 1), BuildingBlock: KIFKEQ_clean_linker_1, # of connection points: 2
#     Edge 36, Type (0, 1), BuildingBlock: KIFKEQ_clean_linker_1, # of connection points: 2
#     Edge 37, Type (0, 1), BuildingBlock: KIFKEQ_clean_linker_1, # of connection points: 2
#     Edge 38, Type (0, 1), BuildingBlock: KIFKEQ_clean_linker_1, # of connection points: 2
#     Edge 39, Type (0, 1), BuildingBlock: KIFKEQ_clean_linker_1, # of connection points: 2
#     Edge 40, Type (0, 1), BuildingBlock: KIFKEQ_clean_linker_1, # of connection points: 2
#     Edge 41, Type (0, 1), BuildingBlock: KIFKEQ_clean_linker_1, # of connection points: 2
#     Edge 42, Type (0, 1), BuildingBlock: KIFKEQ_clean_linker_1, # of connection points: 2
#     Edge 43, Type (0, 1), BuildingBlock: KIFKEQ_clean_linker_1, # of connection points: 2
#     Edge 44, Type (0, 1), BuildingBlock: KIFKEQ_clean_linker_1, # of connection points: 2
#     Edge 45, Type (0, 1), BuildingBlock: KIFKEQ_clean_linker_1, # of connection points: 2
#     Edge 46, Type (0, 1), BuildingBlock: KIFKEQ_clean_linker_1, # of connection points: 2
#     Edge 47, Type (0, 1), BuildingBlock: KIFKEQ_clean_linker_1, # of connection points: 2
#     Edge 48, Type (0, 1), BuildingBlock: KIFKEQ_clean_linker_1, # of connection points: 2
#     Edge 49, Type (0, 1), BuildingBlock: KIFKEQ_clean_linker_1, # of connection points: 2
#     Edge 50, Type (0, 1), BuildingBlock: KIFKEQ_clean_linker_1, # of connection points: 2
#     Edge 51, Type (0, 1), BuildingBlock: KIFKEQ_clean_linker_1, # of connection points: 2
#     Edge 52, Type (0, 1), BuildingBlock: KIFKEQ_clean_linker_1, # of connection points: 2
#     Edge 53, Type (0, 1), BuildingBlock: KIFKEQ_clean_linker_1, # of connection points: 2
#     Edge 54, Type (0, 1), BuildingBlock: KIFKEQ_clean_linker_1, # of connection points: 2
#     Edge 55, Type (0, 1), BuildingBlock: KIFKEQ_clean_linker_1, # of connection points: 2
#     Edge 56, Type (0, 1), BuildingBlock: KIFKEQ_clean_linker_1, # of connection points: 2
#     Edge 57, Type (0, 1), BuildingBlock: KIFKEQ_clean_linker_1, # of connection points: 2
#     Edge 58, Type (0, 1), BuildingBlock: KIFKEQ_clean_linker_1, # of connection points: 2
#     Edge 59, Type (0, 1), BuildingBlock: KIFKEQ_clean_linker_1, # of connection points: 2
#     Edge 60, Type (0, 1), BuildingBlock: KIFKEQ_clean_linker_1, # of connection points: 2
#     Edge 61, Type (0, 1), BuildingBlock: KIFKEQ_clean_linker_1, # of connection points: 2
#     Edge 62, Type (0, 1), BuildingBlock: KIFKEQ_clean_linker_1, # of connection points: 2
#     Edge 63, Type (0, 1), BuildingBlock: KIFKEQ_clean_linker_1, # of connection points: 2
#     Edge 64, Type (0, 1), BuildingBlock: KIFKEQ_clean_linker_1, # of connection points: 2
#     Edge 65, Type (0, 1), BuildingBlock: KIFKEQ_clean_linker_1, # of connection points: 2
#     Edge 66, Type (0, 1), BuildingBlock: KIFKEQ_clean_linker_1, # of connection points: 2
#     Edge 67, Type (0, 1), BuildingBlock: KIFKEQ_clean_linker_1, # of connection points: 2
#     Edge 68, Type (0, 1), BuildingBlock: KIFKEQ_clean_linker_1, # of connection points: 2
#     Edge 69, Type (0, 1), BuildingBlock: KIFKEQ_clean_linker_1, # of connection points: 2
#     Edge 70, Type (0, 1), BuildingBlock: KIFKEQ_clean_linker_1, # of connection points: 2
#     Edge 71, Type (0, 1), BuildingBlock: KIFKEQ_clean_linker_1, # of connection points: 2
#     Edge 72, Type (0, 1), BuildingBlock: KIFKEQ_clean_linker_1, # of connection points: 2
#     Edge 73, Type (0, 1), BuildingBlock: KIFKEQ_clean_linker_1, # of connection points: 2
#     Edge 74, Type (0, 1), BuildingBlock: KIFKEQ_clean_linker_1, # of connection points: 2
#     Edge 75, Type (0, 1), BuildingBlock: KIFKEQ_clean_linker_1, # of connection points: 2
# Relax obj value: 0.001
# Max RMSD: 0.018
# Mean RMSD: 0.012
data_MOF--net-ctn--node1-UXUYUI_clean_sbu_0--node2-BELTOD_clean_linker_0--edge1-KIFKEQ_clean_linker_1
_symmetry_space_group_name_H-M    P1
_symmetry_Int_Tables_number       1
_symmetry_cell_setting            triclinic
loop_
_symmetry_equiv_pos_as_xyz
'x, y, z'
_cell_length_a     76.592057
_cell_length_b     77.101557
_cell_length_c     76.455108
_cell_angle_alpha  89.368972
_cell_angle_beta   90.092792
_cell_angle_gamma 90.722247
loop_
_atom_site_label
_atom_site_type_symbol
_atom_site_fract_x
_atom_site_fract_y
_atom_site_fract_z
_atom_type_partial_charge
P0 P 0.0602 0.05956 0.06349 0.0
H1 H 0.06007 0.04725 0.09943 0.0
H2 H 0.03703 0.03652 0.11892 0.0
H3 H 0.99965 0.04069 0.07673 0.0
H4 H 0.02289 0.05139 0.05724 0.0
H5 H 0.09507 0.04973 0.07496 0.0
H6 H 0.11441 0.02627 0.06696 0.0
H7 H 0.07586 0.00731 0.03033 0.0
H8 H 0.05632 0.03094 0.03858 0.0
H9 H 0.0344 0.08675 0.06179 0.0
H10 H 0.06854 0.06125 0.0257 0.0
O11 O 0.07165 0.07341 0.07576 0.0
H12 H 0.02531 0.10666 0.03863 0.0
H13 H 0.05893 0.08055 0.00224 0.0
C14 C 0.0431 0.05052 0.07705 0.0
C15 C 0.04693 0.04579 0.09436 0.0
C16 C 0.03376 0.03955 0.10545 0.0
C17 C 0.01647 0.03787 0.0994 0.0
C18 C 0.01279 0.0421 0.08184 0.0
C19 C 0.02605 0.04822 0.07069 0.0
C20 C 0.07441 0.0423 0.05708 0.0
C21 C 0.09075 0.04062 0.06515 0.0
C22 C 0.10177 0.0271 0.06066 0.0
C23 C 0.09667 0.01497 0.048 0.0
C24 C 0.0802 0.01658 0.04 0.0
C25 C 0.06905 0.03004 0.04469 0.0
C26 C 0.0518 0.0722 0.04542 0.0
C27 C 0.03957 0.08512 0.04874 0.0
C28 C 0.03434 0.09648 0.03543 0.0
C29 C 0.04131 0.09522 0.01847 0.0
C30 C 0.0534 0.08204 0.01515 0.0
C31 C 0.05873 0.07077 0.02854 0.0
P32 P 0.3093 0.69793 0.19827 0.0
H33 H 0.32594 0.71487 0.16847 0.0
H34 H 0.3178 0.73921 0.1496 0.0
H35 H 0.27096 0.74609 0.17996 0.0
H36 H 0.27945 0.72184 0.1992 0.0
H37 H 0.3462 0.70685 0.19908 0.0
H38 H 0.36584 0.71678 0.22221 0.0
H39 H 0.32264 0.71709 0.25844 0.0
H40 H 0.30291 0.70742 0.23504 0.0
H41 H 0.27358 0.69183 0.18521 0.0
H42 H 0.30597 0.67348 0.22755 0.0
O43 O 0.32117 0.68483 0.18592 0.0
H44 H 0.25052 0.67142 0.19404 0.0
H45 H 0.28296 0.65303 0.23643 0.0
C46 C 0.30299 0.71616 0.18484 0.0
C47 C 0.3139 0.72157 0.17108 0.0
C48 C 0.3093 0.73557 0.16038 0.0
C49 C 0.29367 0.74443 0.16323 0.0
C50 C 0.28296 0.7393 0.17734 0.0
C51 C 0.28776 0.72544 0.18827 0.0
C52 C 0.32323 0.70588 0.21549 0.0
C53 C 0.34094 0.70906 0.21199 0.0
C54 C 0.35213 0.71485 0.22519 0.0
C55 C 0.3458 0.71757 0.24217 0.0
C56 C 0.32791 0.71485 0.24553 0.0
C57 C 0.31665 0.7093 0.2322 0.0
C58 C 0.29123 0.68483 0.20623 0.0
C59 C 0.27554 0.68387 0.19677 0.0
C60 C 0.26236 0.67209 0.20177 0.0
C61 C 0.26485 0.66069 0.21601 0.0
C62 C 0.28063 0.66164 0.2254 0.0
C63 C 0.29372 0.6735 0.22047 0.0
P64 P 0.98401 0.48466 0.02075 0.0
H65 H 0.98073 0.47425 0.98458 0.0
H66 H 0.97912 0.44614 0.9704 0.0
H67 H 0.97872 0.42069 0.0211 0.0
H68 H 0.98087 0.44903 0.03517 0.0
H69 H 0.97466 0.52059 0.01382 0.0
H70 H 0.94691 0.53579 0.01369 0.0
H71 H 0.92035 0.4887 0.03026 0.0
H72 H 0.94833 0.47338 0.03016 0.0
H73 H 0.02045 0.48636 0.03134 0.0
H74 H 0.97054 0.47935 0.0566 0.0
O75 O 0.99726 0.49625 0.00767 0.0
H76 H 0.03499 0.48575 0.05964 0.0
H77 H 0.98508 0.47808 0.08513 0.0
C78 C 0.98127 0.4637 0.01088 0.0
C79 C 0.98026 0.46262 0.99264 0.0
C80 C 0.97918 0.44649 0.98456 0.0
C81 C 0.97886 0.43107 0.99458 0.0
C82 C 0.97925 0.43227 0.01296 0.0
C83 C 0.9804 0.44847 0.02104 0.0
C84 C 0.9635 0.49579 0.02172 0.0
C85 C 0.96289 0.51348 0.01738 0.0
C86 C 0.94702 0.52216 0.01727 0.0
C87 C 0.93145 0.51338 0.02178 0.0
C88 C 0.93216 0.49578 0.02673 0.0
C89 C 0.94809 0.48702 0.02662 0.0
C90 C 0.99439 0.48327 0.04188 0.0
C91 C 0.01261 0.48461 0.04301 0.0
C92 C 0.02094 0.48407 0.05925 0.0
C93 C 0.01124 0.48189 0.07476 0.0
C94 C 0.99295 0.48008 0.07351 0.0
C95 C 0.98461 0.48073 0.0572 0.0
P96 P 0.69326 0.80853 0.19807 0.0
H97 H 0.70678 0.83982 0.181 0.0
H98 H 0.73022 0.86015 0.18821 0.0
H99 H 0.74378 0.82838 0.23306 0.0
H100 H 0.71978 0.80831 0.22596 0.0
H101 H 0.67398 0.78804 0.17278 0.0
H102 H 0.68242 0.7656 0.15232 0.0
H103 H 0.73545 0.76858 0.17157 0.0
H104 H 0.72675 0.79085 0.19234 0.0
H105 H 0.68115 0.82603 0.22909 0.0
H106 H 0.68141 0.77369 0.2098 0.0
O107 O 0.67843 0.82025 0.18734 0.0
H108 H 0.66304 0.81662 0.25375 0.0
H109 H 0.66356 0.76409 0.2346 0.0
C110 C 0.71134 0.82277 0.20314 0.0
C111 C 0.71477 0.83724 0.19241 0.0
C112 C 0.72833 0.84878 0.19647 0.0
C113 C 0.73892 0.84597 0.21127 0.0
C114 C 0.73572 0.83112 0.22175 0.0
C115 C 0.72206 0.8196 0.21768 0.0
C116 C 0.6998 0.79135 0.1838 0.0
C117 C 0.68743 0.78387 0.1726 0.0
C118 C 0.6923 0.77108 0.16085 0.0
C119 C 0.70969 0.76547 0.16009 0.0
C120 C 0.72196 0.77258 0.17182 0.0
C121 C 0.71703 0.7854 0.18363 0.0
C122 C 0.68273 0.80058 0.21768 0.0
C123 C 0.67764 0.81243 0.2304 0.0
C124 C 0.66731 0.807 0.24453 0.0
C125 C 0.66177 0.78958 0.24615 0.0
C126 C 0.6674 0.77763 0.23363 0.0
C127 C 0.67774 0.78309 0.21949 0.0
P128 P 0.05651 0.94802 0.45036 0.0
H129 H 0.09332 0.94851 0.45964 0.0
H130 H 0.1131 0.97127 0.46999 0.0
H131 H 0.07004 0.00686 0.47201 0.0
H132 H 0.05026 0.98391 0.46164 0.0
H133 H 0.04521 0.91195 0.44934 0.0
H134 H 0.03572 0.89119 0.47184 0.0
H135 H 0.04143 0.93081 0.51104 0.0
H136 H 0.05089 0.95161 0.48835 0.0
H137 H 0.05472 0.97714 0.42579 0.0
H138 H 0.01953 0.93777 0.44611 0.0
O139 O 0.06856 0.93671 0.43648 0.0
H140 H 0.032 0.98728 0.40594 0.0
H141 H 0.99709 0.94715 0.42569 0.0
C142 C 0.07045 0.96468 0.4594 0.0
C143 C 0.08812 0.9612 0.46237 0.0
C144 C 0.09939 0.97419 0.46841 0.0
C145 C 0.09317 0.99093 0.47167 0.0
C146 C 0.07527 0.99418 0.46933 0.0
C147 C 0.06396 0.98109 0.4634 0.0
C148 C 0.04897 0.93323 0.4672 0.0
C149 C 0.04439 0.91619 0.46277 0.0
C150 C 0.03885 0.90437 0.47563 0.0
C151 C 0.03786 0.90936 0.49322 0.0
C152 C 0.04224 0.92655 0.49761 0.0
C153 C 0.04762 0.93845 0.48466 0.0
C154 C 0.03877 0.95693 0.43772 0.0
C155 C 0.04201 0.97083 0.42618 0.0
C156 C 0.02905 0.97646 0.41463 0.0
C157 C 0.01266 0.96799 0.41406 0.0
C158 C 0.0094 0.95421 0.4259 0.0
C159 C 0.02232 0.94874 0.43759 0.0
P160 P 0.22985 0.73023 0.77493 0.0
H161 H 0.23019 0.76688 0.78364 0.0
H162 H 0.23051 0.78237 0.81134 0.0
H163 H 0.22932 0.73346 0.83946 0.0
H164 H 0.22896 0.71801 0.81161 0.0
H165 H 0.26639 0.72126 0.77074 0.0
H166 H 0.28197 0.69387 0.77214 0.0
H167 H 0.23393 0.66706 0.78577 0.0
H168 H 0.21837 0.69466 0.78428 0.0
H169 H 0.19784 0.75023 0.77927 0.0
H170 H 0.21423 0.70564 0.75028 0.0
O171 O 0.24084 0.74262 0.76058 0.0
H172 H 0.16986 0.74961 0.76424 0.0
H173 H 0.18584 0.70424 0.73592 0.0
C174 C 0.22984 0.74131 0.79557 0.0
C175 C 0.23003 0.75948 0.79576 0.0
C176 C 0.23008 0.76832 0.81161 0.0
C177 C 0.22999 0.75914 0.82759 0.0
C178 C 0.2296 0.74089 0.82735 0.0
C179 C 0.22938 0.73204 0.81145 0.0
C180 C 0.24115 0.70991 0.77692 0.0
C181 C 0.25919 0.7095 0.77402 0.0
C182 C 0.26812 0.69383 0.77497 0.0
C183 C 0.25917 0.67825 0.77894 0.0
C184 C 0.24113 0.67879 0.78239 0.0
C185 C 0.23223 0.69454 0.78155 0.0
C186 C 0.20804 0.7277 0.76629 0.0
C187 C 0.19525 0.73995 0.77007 0.0
C188 C 0.17913 0.73953 0.76146 0.0
C189 C 0.17545 0.72685 0.74882 0.0
C190 C 0.18822 0.71435 0.74537 0.0
C191 C 0.20442 0.71495 0.75382 0.0
P192 P 0.98052 0.52169 0.48387 0.0
H193 H 0.01737 0.52146 0.47496 0.0
H194 H 0.03301 0.52174 0.44715 0.0
H195 H 0.98408 0.52658 0.41946 0.0
H196 H 0.96845 0.52636 0.44749 0.0
H197 H 0.97842 0.53075 0.52052 0.0
H198 H 0.9773 0.55829 0.53575 0.0
H199 H 0.97692 0.58559 0.48604 0.0
H200 H 0.97856 0.5578 0.47088 0.0
H201 H 0.9701 0.48572 0.47933 0.0
H202 H 0.94461 0.5351 0.48261 0.0
O203 O 0.99234 0.50877 0.4968 0.0
H204 H 0.94177 0.47097 0.47817 0.0
H205 H 0.91609 0.52048 0.48103 0.0
C206 C 0.99175 0.5235 0.46324 0.0
C207 C 0.00999 0.52261 0.46292 0.0
C208 C 0.01892 0.52271 0.44701 0.0
C209 C 0.00976 0.5239 0.4311 0.0
C210 C 0.99149 0.52562 0.4315 0.0
C211 C 0.98254 0.52541 0.44748 0.0
C212 C 0.97895 0.54227 0.49461 0.0
C213 C 0.97815 0.54267 0.51289 0.0
C214 C 0.97733 0.55846 0.52159 0.0
C215 C 0.97705 0.57423 0.51215 0.0
C216 C 0.9774 0.57373 0.49374 0.0
C217 C 0.97828 0.55786 0.48504 0.0
C218 C 0.95944 0.51143 0.4814 0.0
C219 C 0.95836 0.49339 0.47965 0.0
C220 C 0.94213 0.48499 0.47885 0.0
C221 C 0.9266 0.49452 0.47962 0.0
C222 C 0.92777 0.51272 0.48073 0.0
C223 C 0.94407 0.52111 0.48156 0.0
P224 P 0.8049 0.80849 0.8077 0.0
H225 H 0.83026 0.82733 0.78638 0.0
H226 H 0.84969 0.81875 0.76284 0.0
H227 H 0.82794 0.76676 0.76518 0.0
H228 H 0.80868 0.77546 0.78902 0.0
H229 H 0.77689 0.82448 0.82701 0.0
H230 H 0.75303 0.84345 0.81826 0.0
H231 H 0.76697 0.83687 0.764 0.0
H232 H 0.79097 0.81815 0.77289 0.0
H233 H 0.82468 0.79074 0.83471 0.0
H234 H 0.77369 0.78587 0.8112 0.0
O235 O 0.81669 0.82242 0.81956 0.0
H236 H 0.81768 0.76698 0.85491 0.0
H237 H 0.76662 0.76174 0.83122 0.0
C238 C 0.81829 0.80196 0.78965 0.0
C239 C 0.82967 0.81409 0.78181 0.0
C240 C 0.84067 0.80918 0.76824 0.0
C241 C 0.84044 0.79203 0.76214 0.0
C242 C 0.82864 0.78 0.76975 0.0
C243 C 0.81758 0.78496 0.78334 0.0
C244 C 0.78571 0.81992 0.80064 0.0
C245 C 0.77462 0.82691 0.81322 0.0
C246 C 0.76093 0.8377 0.80818 0.0
C247 C 0.75812 0.84178 0.79042 0.0
C248 C 0.76892 0.83421 0.7778 0.0
C249 C 0.78261 0.82339 0.78287 0.0
C250 C 0.79959 0.79028 0.82174 0.0
C251 C 0.81198 0.78447 0.83387 0.0
C252 C 0.80799 0.77077 0.84532 0.0
C253 C 0.79154 0.76246 0.84476 0.0
C254 C 0.77929 0.76803 0.8322 0.0
C255 C 0.78333 0.78179 0.82072 0.0
P256 P 0.30349 0.30926 0.30811 0.0
H257 H 0.32699 0.3286 0.28521 0.0
H258 H 0.34578 0.32018 0.26108 0.0
H259 H 0.32503 0.26785 0.26454 0.0
H260 H 0.30648 0.27637 0.28895 0.0
H261 H 0.2846 0.33504 0.3276 0.0
H262 H 0.26067 0.3543 0.32013 0.0
H263 H 0.25719 0.33123 0.26892 0.0
H264 H 0.28157 0.31223 0.27646 0.0
H265 H 0.32382 0.28542 0.32915 0.0
H266 H 0.26958 0.29214 0.31589 0.0
O267 O 0.31691 0.32136 0.32029 0.0
H268 H 0.31597 0.26143 0.3488 0.0
H269 H 0.26158 0.26788 0.33532 0.0
C270 C 0.31561 0.30306 0.28905 0.0
C271 C 0.32641 0.31535 0.28068 0.0
C272 C 0.33706 0.31052 0.26679 0.0
C273 C 0.33703 0.29328 0.26092 0.0
C274 C 0.32562 0.28114 0.26893 0.0
C275 C 0.31494 0.28602 0.28285 0.0
C276 C 0.28506 0.32248 0.30248 0.0
C277 C 0.27869 0.33413 0.31477 0.0
C278 C 0.26486 0.34504 0.31051 0.0
C279 C 0.25699 0.34439 0.29388 0.0
C280 C 0.26313 0.33228 0.28174 0.0
C281 C 0.27702 0.32136 0.28604 0.0
C282 C 0.29729 0.29068 0.32127 0.0
C283 C 0.31022 0.2816 0.33037 0.0
C284 C 0.3057 0.26779 0.34151 0.0
C285 C 0.28812 0.26273 0.34371 0.0
C286 C 0.27521 0.2716 0.33414 0.0
C287 C 0.27977 0.28544 0.32296 0.0
P288 P 0.48192 0.98328 0.52229 0.0
H289 H 0.47852 0.97322 0.48593 0.0
H290 H 0.47799 0.94519 0.47141 0.0
H291 H 0.4802 0.91924 0.52177 0.0
H292 H 0.48109 0.94745 0.53618 0.0
H293 H 0.47244 0.01879 0.5293 0.0
H294 H 0.44454 0.03372 0.53042 0.0
H295 H 0.41744 0.98515 0.52115 0.0
H296 H 0.44551 0.97037 0.51978 0.0
H297 H 0.51826 0.97812 0.53151 0.0
H298 H 0.46966 0.98488 0.55883 0.0
O299 O 0.49424 0.99596 0.50934 0.0
H300 H 0.53399 0.97804 0.55935 0.0
H301 H 0.48533 0.98519 0.58675 0.0
C302 C 0.48021 0.96239 0.51207 0.0
C303 C 0.47887 0.96148 0.49384 0.0
C304 C 0.47842 0.94542 0.48557 0.0
C305 C 0.47916 0.92992 0.4954 0.0
C306 C 0.47992 0.93091 0.51378 0.0
C307 C 0.48037 0.94703 0.52205 0.0
C308 C 0.46104 0.99356 0.52421 0.0
C309 C 0.46048 0.01136 0.52756 0.0
C310 C 0.4445 0.01985 0.52833 0.0
C311 C 0.42873 0.01065 0.52581 0.0
C312 C 0.42935 0.99267 0.52288 0.0
C313 C 0.44539 0.98418 0.52215 0.0
C314 C 0.49288 0.98185 0.5431 0.0
C315 C 0.51099 0.97959 0.54353 0.0
C316 C 0.51996 0.97964 0.55945 0.0
C317 C 0.51096 0.98187 0.57528 0.0
C318 C 0.49266 0.9834 0.57482 0.0
C319 C 0.48369 0.98335 0.55885 0.0
P320 P 0.19863 0.30569 0.70008 0.0
H321 H 0.21686 0.3335 0.68135 0.0
H322 H 0.24029 0.35356 0.68954 0.0
H323 H 0.2445 0.32772 0.73981 0.0
H324 H 0.22073 0.30786 0.73156 0.0
H325 H 0.17889 0.28033 0.68019 0.0
H326 H 0.18736 0.25675 0.66099 0.0
H327 H 0.24167 0.26732 0.67257 0.0
H328 H 0.23308 0.29095 0.69175 0.0
H329 H 0.18076 0.32582 0.72618 0.0
H330 H 0.18914 0.27165 0.716 0.0
O331 O 0.18534 0.31741 0.68747 0.0
H332 H 0.16145 0.31795 0.7505 0.0
H333 H 0.16985 0.26368 0.74032 0.0
C334 C 0.21682 0.31947 0.70599 0.0
C335 C 0.22284 0.33214 0.69413 0.0
C336 C 0.23636 0.34352 0.69879 0.0
C337 C 0.24423 0.34234 0.71539 0.0
C338 C 0.23852 0.32919 0.72704 0.0
C339 C 0.22498 0.31779 0.72233 0.0
C340 C 0.20532 0.28743 0.68732 0.0
C341 C 0.19261 0.27746 0.67871 0.0
C342 C 0.19748 0.26393 0.66781 0.0
C343 C 0.2152 0.26018 0.66522 0.0
C344 C 0.22792 0.27001 0.67415 0.0
C345 C 0.22301 0.28349 0.68518 0.0
C346 C 0.18625 0.29936 0.71919 0.0
C347 C 0.17859 0.31223 0.72932 0.0
C348 C 0.16762 0.3077 0.74327 0.0
C349 C 0.16403 0.29018 0.74729 0.0
C350 C 0.17216 0.27729 0.7374 0.0
C351 C 0.18324 0.28185 0.7235 0.0
P352 P 0.80756 0.1993 0.70034 0.0
H353 H 0.82568 0.22968 0.68612 0.0
H354 H 0.81665 0.2529 0.66614 0.0
H355 H 0.76377 0.23276 0.66734 0.0
H356 H 0.77287 0.2096 0.68722 0.0
H357 H 0.83386 0.18065 0.72006 0.0
H358 H 0.85298 0.18863 0.74431 0.0
H359 H 0.82847 0.23874 0.74664 0.0
H360 H 0.80947 0.23067 0.72214 0.0
H361 H 0.78828 0.17309 0.68104 0.0
H362 H 0.78763 0.19415 0.73304 0.0
O363 O 0.82052 0.18848 0.68688 0.0
H364 H 0.76467 0.15296 0.68894 0.0
H365 H 0.7638 0.17407 0.74106 0.0
C366 C 0.79998 0.21795 0.68824 0.0
C367 C 0.81207 0.23048 0.68235 0.0
C368 C 0.80688 0.24377 0.67095 0.0
C369 C 0.7895 0.24462 0.66507 0.0
C370 C 0.77729 0.23233 0.67146 0.0
C371 C 0.78249 0.21911 0.68294 0.0
C372 C 0.82055 0.2052 0.71907 0.0
C373 C 0.83258 0.19334 0.72583 0.0
C374 C 0.84341 0.19788 0.7398 0.0
C375 C 0.84235 0.21438 0.74738 0.0
C376 C 0.82982 0.22605 0.74091 0.0
C377 C 0.81893 0.22144 0.72693 0.0
C378 C 0.7899 0.18487 0.70653 0.0
C379 C 0.78304 0.17336 0.69418 0.0
C380 C 0.76943 0.16196 0.69868 0.0
C381 C 0.76236 0.16188 0.71565 0.0
C382 C 0.76911 0.17366 0.72795 0.0
C383 C 0.7827 0.18516 0.72338 0.0
P384 P 0.56013 0.55678 0.56372 0.0
H385 H 0.55933 0.53833 0.597 0.0
H386 H 0.53557 0.52869 0.61619 0.0
H387 H 0.49799 0.54573 0.57765 0.0
H388 H 0.52187 0.55544 0.55855 0.0
H389 H 0.59378 0.55886 0.54654 0.0
H390 H 0.61418 0.53699 0.53658 0.0
H391 H 0.57746 0.49655 0.55175 0.0
H392 H 0.55693 0.51857 0.56125 0.0
H393 H 0.54459 0.59073 0.56598 0.0
H394 H 0.55837 0.55538 0.5251 0.0
O395 O 0.57253 0.56834 0.57738 0.0
H396 H 0.53534 0.61199 0.54408 0.0
H397 H 0.54963 0.57681 0.50301 0.0
C398 C 0.54237 0.5478 0.57649 0.0
C399 C 0.54597 0.53982 0.59262 0.0
C400 C 0.53236 0.53423 0.60353 0.0
C401 C 0.51486 0.53655 0.5985 0.0
C402 C 0.51132 0.544 0.58201 0.0
C403 C 0.52498 0.54951 0.57105 0.0
C404 C 0.57395 0.54035 0.55479 0.0
C405 C 0.59007 0.54528 0.54756 0.0
C406 C 0.60176 0.53275 0.54199 0.0
C407 C 0.59758 0.51498 0.54359 0.0
C408 C 0.58108 0.5101 0.55026 0.0
C409 C 0.56935 0.5227 0.55581 0.0
C410 C 0.55243 0.57163 0.54716 0.0
C411 C 0.54566 0.58758 0.55225 0.0
C412 C 0.54048 0.59976 0.5397 0.0
C413 C 0.54198 0.59624 0.52175 0.0
C414 C 0.54824 0.57994 0.51671 0.0
C415 C 0.55337 0.56771 0.52933 0.0
P416 P 0.55974 0.4448 0.95029 0.0
H417 H 0.5961 0.44529 0.96106 0.0
H418 H 0.61596 0.46834 0.97039 0.0
H419 H 0.57382 0.50504 0.9672 0.0
H420 H 0.55408 0.48182 0.95741 0.0
H421 H 0.5384 0.41354 0.95002 0.0
H422 H 0.52805 0.39384 0.97307 0.0
H423 H 0.54998 0.428 0.01206 0.0
H424 H 0.5606 0.44747 0.98885 0.0
H425 H 0.5609 0.4554 0.91378 0.0
H426 H 0.52247 0.45292 0.9549 0.0
O427 O 0.57211 0.43151 0.93865 0.0
H428 H 0.53853 0.46464 0.893 0.0
H429 H 0.49986 0.46195 0.93407 0.0
C430 C 0.57375 0.46193 0.9582 0.0
C431 C 0.59114 0.4583 0.96236 0.0
C432 C 0.60245 0.4715 0.96786 0.0
C433 C 0.59653 0.48861 0.9695 0.0
C434 C 0.57888 0.49208 0.9658 0.0
C435 C 0.56756 0.47882 0.96027 0.0
C436 C 0.55031 0.4319 0.96771 0.0
C437 C 0.54079 0.41688 0.96355 0.0
C438 C 0.53481 0.40567 0.97677 0.0
C439 C 0.53823 0.40928 0.99445 0.0
C440 C 0.54734 0.42469 0.99858 0.0
C441 C 0.55333 0.43591 0.98531 0.0
C442 C 0.54325 0.45309 0.93574 0.0
C443 C 0.54762 0.45685 0.91832 0.0
C444 C 0.5348 0.46206 0.90645 0.0
C445 C 0.51735 0.46374 0.91182 0.0
C446 C 0.51317 0.46076 0.92953 0.0
C447 C 0.52606 0.4555 0.94142 0.0
P448 P 0.73032 0.2304 0.27308 0.0
H449 H 0.75767 0.24985 0.29092 0.0
H450 H 0.75903 0.2643 0.31913 0.0
H451 H 0.70684 0.24568 0.33094 0.0
H452 H 0.70551 0.23151 0.30244 0.0
H453 H 0.74628 0.21074 0.24528 0.0
H454 H 0.76107 0.1829 0.24466 0.0
H455 H 0.75085 0.1757 0.29986 0.0
H456 H 0.73625 0.20378 0.3004 0.0
H457 H 0.70459 0.25721 0.2677 0.0
H458 H 0.70751 0.20194 0.26042 0.0
O459 O 0.74157 0.24336 0.25945 0.0
H460 H 0.67565 0.2573 0.2542 0.0
H461 H 0.67847 0.20187 0.24713 0.0
C462 C 0.73137 0.23995 0.29445 0.0
C463 C 0.74653 0.24888 0.29959 0.0
C464 C 0.74733 0.25702 0.31581 0.0
C465 C 0.733 0.25626 0.3273 0.0
C466 C 0.71799 0.2468 0.32229 0.0
C467 C 0.71722 0.23864 0.30603 0.0
C468 C 0.74048 0.20946 0.27293 0.0
C469 C 0.74724 0.20317 0.25725 0.0
C470 C 0.75557 0.18717 0.25689 0.0
C471 C 0.75722 0.17707 0.27223 0.0
C472 C 0.75004 0.18327 0.28788 0.0
C473 C 0.74165 0.1993 0.2882 0.0
C474 C 0.70821 0.22961 0.26505 0.0
C475 C 0.69887 0.24506 0.26341 0.0
C476 C 0.68229 0.24506 0.25576 0.0
C477 C 0.67475 0.22959 0.24951 0.0
C478 C 0.684 0.21404 0.25158 0.0
C479 C 0.70059 0.21405 0.25928 0.0
P480 P 0.48122 0.02279 0.98441 0.0
H481 H 0.51782 0.02592 0.97492 0.0
H482 H 0.53301 0.02717 0.94692 0.0
H483 H 0.48334 0.02718 0.91995 0.0
H484 H 0.46824 0.0255 0.94815 0.0
H485 H 0.48016 0.03122 0.02131 0.0
H486 H 0.47913 0.05852 0.03704 0.0
H487 H 0.47709 0.08656 0.98781 0.0
H488 H 0.47858 0.05905 0.97215 0.0
H489 H 0.47092 0.98717 0.97752 0.0
H490 H 0.44514 0.03572 0.98611 0.0
O491 O 0.49346 0.00966 0.99669 0.0
H492 H 0.44266 0.9722 0.97651 0.0
H493 H 0.41674 0.02091 0.98478 0.0
C494 C 0.49195 0.02527 0.96358 0.0
C495 C 0.5102 0.02624 0.96297 0.0
C496 C 0.51887 0.0271 0.94692 0.0
C497 C 0.50941 0.02718 0.93112 0.0
C498 C 0.49103 0.02683 0.93184 0.0
C499 C 0.48237 0.02594 0.94795 0.0
C500 C 0.47982 0.04315 0.9956 0.0
C501 C 0.47954 0.04325 0.0139 0.0
C502 C 0.47878 0.05889 0.02288 0.0
C503 C 0.47807 0.0748 0.01371 0.0
C504 C 0.47792 0.07459 0.99529 0.0
C505 C 0.47871 0.05888 0.98631 0.0
C506 C 0.46013 0.01247 0.9822 0.0
C507 C 0.45913 0.99463 0.97904 0.0
C508 C 0.44294 0.98611 0.97834 0.0
C509 C 0.42739 0.99533 0.98068 0.0
C510 C 0.42846 0.01337 0.98324 0.0
C511 C 0.4447 0.02188 0.98394 0.0
Li512 Li 0.2664 0.88832 0.99946 0.0
Li513 Li 0.2531 0.86643 0.01893 0.0
Li514 Li 0.24711 0.86666 0.98626 0.0
Li515 Li 0.234 0.88853 0.00548 0.0
C516 C 0.28649 0.86079 0.9944 0.0
N517 N 0.32112 0.85763 0.98501 0.0
C518 C 0.29882 0.85545 0.00677 0.0
C519 C 0.29172 0.86426 0.97721 0.0
C520 C 0.31628 0.854 0.00178 0.0
C521 C 0.3093 0.86266 0.97273 0.0
C522 C 0.25371 0.89561 0.03934 0.0
C523 C 0.23803 0.89804 0.06652 0.0
N524 N 0.25313 0.90275 0.07468 0.0
C525 C 0.26903 0.90068 0.04794 0.0
C526 C 0.23805 0.89444 0.04866 0.0
C527 C 0.26848 0.90415 0.06583 0.0
C528 C 0.28708 0.91476 0.98319 0.0
N529 N 0.28675 0.90257 0.99617 0.0
C530 C 0.31558 0.91076 0.00517 0.0
C531 C 0.30056 0.90046 0.00713 0.0
C532 C 0.31636 0.92347 0.99186 0.0
C533 C 0.30184 0.92537 0.98076 0.0
H534 H 0.27582 0.91638 0.97482 0.0
H535 H 0.29992 0.89077 0.01744 0.0
C536 C 0.24618 0.83867 0.04292 0.0
N537 N 0.25717 0.85218 0.03913 0.0
C538 C 0.24928 0.82799 0.05746 0.0
C539 C 0.2752 0.84503 0.06367 0.0
C540 C 0.27149 0.8555 0.04914 0.0
C541 C 0.26403 0.83106 0.06798 0.0
H542 H 0.23515 0.83599 0.03451 0.0
H543 H 0.2802 0.86611 0.04568 0.0
C544 C 0.24158 0.89582 0.96619 0.0
N545 N 0.23114 0.90251 0.93219 0.0
C546 C 0.22441 0.90073 0.96266 0.0
C547 C 0.25349 0.89454 0.95245 0.0
C548 C 0.21938 0.90401 0.94538 0.0
C549 C 0.24794 0.89789 0.93535 0.0
C550 C 0.2138 0.85794 0.00981 0.0
C551 C 0.20284 0.85195 0.99647 0.0
C552 C 0.20747 0.85876 0.02691 0.0
C553 C 0.18564 0.84715 1.00043 0.0
C554 C 0.19018 0.85386 0.03034 0.0
N555 N 0.17971 0.84822 0.01714 0.0
C556 C 0.25465 0.83859 0.96429 0.0
C557 C 0.23057 0.8551 0.95462 0.0
C558 C 0.253 0.82766 0.9499 0.0
N559 N 0.24364 0.85211 0.96629 0.0
C560 C 0.22851 0.84457 0.93999 0.0
C561 C 0.23985 0.83064 0.93741 0.0
H562 H 0.26471 0.83622 0.97392 0.0
H563 H 0.22167 0.86562 0.95666 0.0
C564 C 0.21902 0.91962 0.01574 0.0
N565 N 0.21474 0.90367 0.00953 0.0
C566 C 0.20604 0.93158 0.01946 0.0
C567 C 0.18437 0.91063 0.01008 0.0
C568 C 0.19781 0.89912 0.00641 0.0
C569 C 0.18837 0.92711 0.01682 0.0
H570 H 0.2326 0.92304 0.01784 0.0
H571 H 0.19464 0.88662 1.00101 0.0
O572 O 0.26939 0.8626 0.9991 0.0
O573 O 0.25403 0.89204 0.02185 0.0
O574 O 0.24673 0.89255 0.98304 0.0
O575 O 0.23068 0.86271 0.00613 0.0
H576 H 0.29499 0.85255 0.02009 0.0
H577 H 0.28231 0.86816 0.96744 0.0
H578 H 0.32598 0.84999 0.01124 0.0
H579 H 0.31354 0.86541 0.95948 0.0
H580 H 0.226 0.89713 0.07389 0.0
H581 H 0.28123 0.90182 0.04092 0.0
H582 H 0.22602 0.89091 0.04215 0.0
H583 H 0.28026 0.90797 0.07268 0.0
H584 H 0.32651 0.90866 0.0139 0.0
H585 H 0.30173 0.93517 0.9705 0.0
H586 H 0.24051 0.81717 0.06017 0.0
H587 H 0.2867 0.84785 0.07146 0.0
H588 H 0.21504 0.90188 0.97311 0.0
H589 H 0.26688 0.891 0.95495 0.0
H590 H 0.20611 0.90773 0.94245 0.0
H591 H 0.25701 0.89686 0.92458 0.0
H592 H 0.20754 0.85108 0.9832 0.0
H593 H 0.21583 0.86302 0.03746 0.0
H594 H 0.177 0.84258 0.99022 0.0
H595 H 0.18511 0.85448 0.04351 0.0
H596 H 0.26183 0.81688 0.94871 0.0
H597 H 0.21825 0.84749 0.93069 0.0
H598 H 0.20985 0.94424 0.02424 0.0
H599 H 0.17099 0.90651 0.00789 0.0
Li600 Li 0.11415 0.50723 0.26923 0.0
Li601 Li 0.13551 0.48773 0.25617 0.0
Li602 Li 0.13657 0.51919 0.25042 0.0
Li603 Li 0.11341 0.50077 0.23789 0.0
C604 C 0.15418 0.51453 0.27963 0.0
N605 N 0.18414 0.53106 0.29135 0.0
C606 C 0.17017 0.50599 0.27935 0.0
C607 C 0.15342 0.53146 0.28594 0.0
C608 C 0.18516 0.51457 0.28534 0.0
C609 C 0.16872 0.5396 0.29177 0.0
C610 C 0.10831 0.46778 0.26298 0.0
C611 C 0.1103 0.43724 0.2569 0.0
N612 N 0.10704 0.43355 0.27403 0.0
C613 C 0.10495 0.46369 0.28052 0.0
C614 C 0.11095 0.45446 0.25105 0.0
C615 C 0.10437 0.4463 0.28585 0.0
C616 C 0.083 0.50569 0.28928 0.0
N617 N 0.09999 0.51101 0.2894 0.0
C618 C 0.09717 0.52122 0.31866 0.0
C619 C 0.10717 0.51867 0.30367 0.0
C620 C 0.07962 0.51562 0.31909 0.0
C621 C 0.07253 0.50787 0.30405 0.0
H622 H 0.07766 0.49952 0.27778 0.0
H623 H 0.12071 0.5227 0.30349 0.0
C624 C 0.15925 0.46119 0.24711 0.0
N625 N 0.14947 0.46769 0.26027 0.0
C626 C 0.16995 0.44691 0.25015 0.0
C627 C 0.16025 0.44623 0.28021 0.0
C628 C 0.14985 0.46059 0.27662 0.0
C629 C 0.17062 0.43924 0.26691 0.0
H630 H 0.15899 0.46727 0.23432 0.0
H631 H 0.14216 0.46619 0.28692 0.0
C632 C 0.09746 0.53283 0.255 0.0
N633 N 0.06902 0.55002 0.26821 0.0
C634 C 0.0806 0.52841 0.24947 0.0
C635 C 0.09988 0.54603 0.26719 0.0
C636 C 0.06639 0.53726 0.25631 0.0
C637 C 0.08532 0.55454 0.27374 0.0
C638 C 0.13993 0.49883 0.21599 0.0
C639 C 0.14415 0.51353 0.20593 0.0
C640 C 0.13598 0.48318 0.20772 0.0
C641 C 0.1442 0.51235 0.1877 0.0
C642 C 0.13614 0.48254 0.18947 0.0
N643 N 0.1402 0.49702 0.17992 0.0
C644 C 0.16929 0.53493 0.24368 0.0
C645 C 0.14603 0.55483 0.24519 0.0
C646 C 0.1813 0.54846 0.24102 0.0
N647 N 0.15208 0.53834 0.24596 0.0
C648 C 0.15757 0.56877 0.24235 0.0
C649 C 0.1755 0.56566 0.24038 0.0
H650 H 0.17369 0.52165 0.24408 0.0
H651 H 0.13225 0.55717 0.24684 0.0
C652 C 0.08827 0.48349 0.21643 0.0
N653 N 0.09871 0.4978 0.21789 0.0
C654 C 0.07797 0.48113 0.20151 0.0
C655 C 0.08919 0.50837 0.19 0.0
C656 C 0.09909 0.51031 0.20522 0.0
C657 C 0.07852 0.49357 0.18796 0.0
H658 H 0.088 0.47387 0.22681 0.0
H659 H 0.10724 0.52172 0.20688 0.0
O660 O 0.1394 0.50645 0.27354 0.0
O661 O 0.10924 0.48473 0.25756 0.0
O662 O 0.1115 0.524 0.24884 0.0
O663 O 0.13948 0.49979 0.23384 0.0
H664 H 0.17105 0.49294 0.27443 0.0
H665 H 0.14123 0.53838 0.28597 0.0
H666 H 0.19763 0.50814 0.28514 0.0
H667 H 0.16834 0.55275 0.29653 0.0
H668 H 0.11242 0.42681 0.24783 0.0
H669 H 0.10303 0.47383 0.28997 0.0
H670 H 0.11369 0.4574 0.23745 0.0
H671 H 0.10186 0.44295 0.2994 0.0
H672 H 0.10316 0.5275 0.32978 0.0
H673 H 0.05917 0.50312 0.3038 0.0
H674 H 0.17793 0.44223 0.23957 0.0
H675 H 0.16015 0.44068 0.29328 0.0
H676 H 0.07849 0.51815 0.24014 0.0
H677 H 0.11283 0.54947 0.27176 0.0
H678 H 0.05325 0.53394 0.2522 0.0
H679 H 0.08698 0.56469 0.28328 0.0
H680 H 0.14716 0.52577 0.21209 0.0
H681 H 0.13261 0.4717 0.21531 0.0
H682 H 0.14735 0.52365 0.17975 0.0
H683 H 0.13297 0.47056 0.18289 0.0
H684 H 0.19497 0.54547 0.23928 0.0
H685 H 0.15258 0.58185 0.24199 0.0
H686 H 0.06995 0.46952 0.20043 0.0
H687 H 0.08978 0.5184 0.17998 0.0
Li688 Li 0.73796 0.61673 0.00381 0.0
Li689 Li 0.75022 0.63872 0.02189 0.0
Li690 Li 0.75565 0.63936 0.99066 0.0
Li691 Li 0.77048 0.61747 0.01028 0.0
C692 C 0.71553 0.64098 1.00014 0.0
N693 N 0.6799 0.63783 0.99499 0.0
C694 C 0.70406 0.64242 0.01426 0.0
C695 C 0.70885 0.63796 0.98341 0.0
C696 C 0.6861 0.64081 0.01137 0.0
C697 C 0.69081 0.63638 0.98108 0.0
C698 C 0.74962 0.61131 0.04417 0.0
C699 C 0.76301 0.60366 0.07172 0.0
N700 N 0.74788 0.6074 0.08009 0.0
C701 C 0.73418 0.615 0.05303 0.0
C702 C 0.76415 0.60554 0.05356 0.0
C703 C 0.73358 0.61298 0.0712 0.0
C704 C 0.71815 0.59158 0.98516 0.0
N705 N 0.71871 0.60094 1.00011 0.0
C706 C 0.69176 0.58803 0.00971 0.0
C707 C 0.70596 0.59923 0.01239 0.0
C708 C 0.69074 0.57824 0.99433 0.0
C709 C 0.70425 0.58012 0.98198 0.0
H710 H 0.72856 0.5929 0.97572 0.0
H711 H 0.70669 0.6067 0.02422 0.0
C712 C 0.73573 0.66769 0.03809 0.0
N713 N 0.74647 0.65411 0.04128 0.0
C714 C 0.73217 0.67959 0.05119 0.0
C715 C 0.75144 0.66388 0.07053 0.0
C716 C 0.75463 0.65226 0.05702 0.0
C717 C 0.7399 0.67767 0.06776 0.0
H718 H 0.72998 0.66937 0.02528 0.0
H719 H 0.76371 0.64185 0.0591 0.0
C720 C 0.76382 0.61291 0.97068 0.0
N721 N 0.77603 0.61222 0.9367 0.0
C722 C 0.78139 0.60947 0.96739 0.0
C723 C 0.75245 0.61588 0.95667 0.0
C724 C 0.78731 0.6092 0.95012 0.0
C725 C 0.75888 0.61553 0.9396 0.0
C726 C 0.77871 0.65769 0.01761 0.0
C727 C 0.7732 0.67386 0.01145 0.0
C728 C 0.78946 0.65672 0.03237 0.0
C729 C 0.77853 0.68883 0.02021 0.0
C730 C 0.7945 0.672 0.04076 0.0
N731 N 0.78898 0.6876 0.03456 0.0
C732 C 0.74654 0.66411 0.96434 0.0
C733 C 0.77582 0.65464 0.96349 0.0
C734 C 0.74946 0.67511 0.94997 0.0
N735 N 0.7596 0.65405 0.97069 0.0
C736 C 0.7793 0.66538 0.94905 0.0
C737 C 0.76604 0.67587 0.94209 0.0
H738 H 0.73391 0.66382 0.97061 0.0
H739 H 0.78608 0.64678 0.96902 0.0
C740 C 0.78932 0.58636 0.01261 0.0
N741 N 0.79083 0.6039 0.01361 0.0
C742 C 0.8041 0.57599 0.01414 0.0
C743 C 0.82164 0.60194 0.01802 0.0
C744 C 0.80655 0.6118 0.01623 0.0
C745 C 0.82061 0.58375 0.01682 0.0
H746 H 0.77665 0.58046 0.01031 0.0
H747 H 0.80742 0.62579 0.01671 0.0
O748 O 0.73319 0.64222 0.00274 0.0
O749 O 0.75048 0.61306 0.02637 0.0
O750 O 0.75784 0.61352 0.98752 0.0
O751 O 0.77321 0.64288 0.0095 0.0
H752 H 0.70895 0.64445 0.02736 0.0
H753 H 0.7175 0.63663 0.97237 0.0
H754 H 0.67709 0.64181 0.02219 0.0
H755 H 0.68548 0.63395 0.96821 0.0
H756 H 0.77416 0.59925 0.07916 0.0
H757 H 0.72291 0.61973 0.04603 0.0
H758 H 0.77619 0.60259 0.04692 0.0
H759 H 0.72176 0.61593 0.07825 0.0
H760 H 0.6816 0.58721 0.01953 0.0
H761 H 0.70425 0.57262 0.97009 0.0
H762 H 0.7236 0.6903 0.04828 0.0
H763 H 0.75777 0.66194 0.08306 0.0
H764 H 0.7904 0.6072 0.97804 0.0
H765 H 0.73884 0.61862 0.95896 0.0
H766 H 0.80088 0.60663 0.94739 0.0
H767 H 0.75025 0.61792 0.92865 0.0
H768 H 0.76473 0.67483 1.00016 0.0
H769 H 0.79357 0.6443 0.03751 0.0
H770 H 0.77431 0.70143 0.01564 0.0
H771 H 0.80272 0.67144 0.05227 0.0
H772 H 0.73894 0.68323 0.94534 0.0
H773 H 0.79224 0.66538 0.94336 0.0
H774 H 0.80263 0.56209 0.01281 0.0
H775 H 0.83397 0.60855 0.02032 0.0
Li776 Li 0.86498 0.01977 0.25752 0.0
Li777 Li 0.88537 1.00084 0.27159 0.0
Li778 Li 0.88813 0.00615 0.24054 0.0
Li779 Li 0.86343 0.98775 0.25289 0.0
C780 C 0.89421 0.03627 0.271 0.0
N781 N 0.90116 0.06267 0.29425 0.0
C782 C 0.88567 0.03662 0.28712 0.0
C783 C 0.90629 0.04936 0.26669 0.0
C784 C 0.88936 0.05007 0.2987 0.0
C785 C 0.90962 0.0626 0.27862 0.0
C786 C 0.85245 0.99447 0.28949 0.0
C787 C 0.84385 0.97016 0.3078 0.0
N788 N 0.8377 0.98133 0.31991 0.0
C789 C 0.84589 0.0057 0.30205 0.0
C790 C 0.8513 0.97654 0.29232 0.0
C791 C 0.83855 0.9988 0.31737 0.0
C792 C 0.83426 0.0377 0.26559 0.0
N793 N 0.85085 0.03984 0.25959 0.0
C794 C 0.84701 0.07049 0.25701 0.0
C795 C 0.85733 0.05581 0.25522 0.0
C796 C 0.82983 0.06874 0.26331 0.0
C797 C 0.82348 0.05203 0.26758 0.0
H798 H 0.82944 0.02484 0.26892 0.0
H799 H 0.87051 0.05715 0.25032 0.0
C800 C 0.91707 0.00194 0.28945 0.0
N801 N 0.89997 0.99767 0.29196 0.0
C802 C 0.92926 0.99945 0.3028 0.0
C803 C 0.90596 0.98891 0.32148 0.0
C804 C 0.89424 0.99139 0.30767 0.0
C805 C 0.92376 0.99277 0.31905 0.0
H806 H 0.9213 0.00706 0.2769 0.0
H807 H 0.88068 0.98809 0.30955 0.0
C808 C 0.85806 0.01837 0.22199 0.0
N809 N 0.84869 0.04146 0.19585 0.0
C810 C 0.84293 0.01541 0.21217 0.0
C811 C 0.86841 0.03307 0.21855 0.0
C812 C 0.83842 0.02724 0.19899 0.0
C813 C 0.86345 0.04459 0.20528 0.0
C814 C 0.90214 0.97372 0.25969 0.0
C815 C 0.91929 0.97642 0.25394 0.0
C816 C 0.89869 0.96145 0.27287 0.0
C817 C 0.93275 0.96697 0.26168 0.0
C818 C 0.91252 0.95229 0.2803 0.0
N819 N 0.92912 0.95522 0.27461 0.0
C820 C 0.91864 0.01826 0.22382 0.0
C821 C 0.89981 0.00181 0.2056 0.0
C822 C 0.93053 0.02061 0.21015 0.0
N823 N 0.90367 0.00898 0.22132 0.0
C824 C 0.91133 0.00384 0.19153 0.0
C825 C 0.92699 0.01331 0.19372 0.0
H826 H 0.92138 0.02376 0.23649 0.0
H827 H 0.88779 0.99446 0.20402 0.0
C828 C 0.831 0.9722 0.24507 0.0
N829 N 0.84808 0.96879 0.24827 0.0
C830 C 0.81928 0.95869 0.24136 0.0
C831 C 0.84292 0.9384 0.24458 0.0
C832 C 0.85421 0.95233 0.24806 0.0
C833 C 0.82521 0.94152 0.24108 0.0
H834 H 0.82652 0.98545 0.24534 0.0
H835 H 0.86789 0.95001 0.25053 0.0
O836 O 0.89075 0.0233 0.25937 0.0
O837 O 0.85948 1.00102 0.27433 0.0
O838 O 0.86255 0.007 0.23503 0.0
O839 O 0.88886 0.98319 0.25258 0.0
H840 H 0.87632 0.02662 0.29068 0.0
H841 H 0.91295 0.04935 0.25422 0.0
H842 H 0.88284 0.05047 0.31123 0.0
H843 H 0.91892 0.07283 0.27544 0.0
H844 H 0.84297 0.95632 0.31019 0.0
H845 H 0.84645 0.01961 0.29999 0.0
H846 H 0.8562 0.96765 0.28275 0.0
H847 H 0.83349 0.00735 0.32722 0.0
H848 H 0.85237 0.08306 0.25328 0.0
H849 H 0.8104 0.05006 0.27264 0.0
H850 H 0.94284 0.00279 0.30045 0.0
H851 H 0.90121 0.98363 0.3338 0.0
H852 H 0.83477 0.00411 0.21473 0.0
H853 H 0.88008 0.03563 0.22613 0.0
H854 H 0.82675 0.02512 0.19128 0.0
H855 H 0.87132 0.05603 0.20249 0.0
H856 H 0.9222 0.98584 0.24374 0.0
H857 H 0.88553 0.9592 0.2775 0.0
H858 H 0.94609 0.96901 0.25744 0.0
H859 H 0.91006 0.94288 0.29063 0.0
H860 H 0.94228 0.02822 0.21239 0.0
H861 H 0.90815 0.99783 0.17918 0.0
H862 H 0.80571 0.96164 0.23889 0.0
H863 H 0.84805 0.92538 0.2443 0.0
Li864 Li 0.2502 0.13807 0.52197 0.0
Li865 Li 0.237 0.11623 0.50273 0.0
Li866 Li 0.26956 0.1166 0.50821 0.0
Li867 Li 0.25547 0.13842 0.48922 0.0
C868 C 0.25054 0.10763 0.5423 0.0
N869 N 0.25168 0.09817 0.57727 0.0
C870 C 0.23567 0.10078 0.55055 0.0
C871 C 0.26607 0.10936 0.55177 0.0
C872 C 0.23648 0.09616 0.56825 0.0
C873 C 0.26637 0.10458 0.56945 0.0
C874 C 0.21577 0.14327 0.49999 0.0
C875 C 0.1904 0.14211 0.48129 0.0
N876 N 0.18009 0.14554 0.49527 0.0
C877 C 0.20494 0.14696 0.51413 0.0
C878 C 0.20847 0.14098 0.4834 0.0
C879 C 0.18693 0.148 0.51149 0.0
C880 C 0.25576 0.16757 0.54301 0.0
N881 N 0.24675 0.1523 0.54202 0.0
C882 C 0.23219 0.15809 0.56896 0.0
C883 C 0.23507 0.14747 0.55458 0.0
C884 C 0.2414 0.1739 0.5704 0.0
C885 C 0.25337 0.17855 0.55721 0.0
H886 H 0.26466 0.17134 0.53265 0.0
H887 H 0.2277 0.13552 0.5533 0.0
C888 C 0.21675 0.09046 0.48576 0.0
N889 N 0.21696 0.10152 0.49948 0.0
C890 C 0.2024 0.07948 0.48298 0.0
C891 C 0.18877 0.09126 0.50866 0.0
C892 C 0.20337 0.10207 0.51089 0.0
C893 C 0.18815 0.07976 0.49454 0.0
H894 H 0.22781 0.09002 0.47704 0.0
H895 H 0.20387 0.11091 0.52176 0.0
C896 C 0.28863 0.14779 0.51349 0.0
N897 N 0.32172 0.15881 0.52313 0.0
C898 C 0.30021 0.15441 0.50091 0.0
C899 C 0.29378 0.1471 0.53103 0.0
C900 C 0.31692 0.15982 0.50602 0.0
C901 C 0.31058 0.15265 0.53563 0.0
C902 C 0.2603 0.1106 0.46869 0.0
C903 C 0.27678 0.10489 0.46368 0.0
C904 C 0.24772 0.11406 0.4559 0.0
C905 C 0.2805 0.10301 0.44592 0.0
C906 C 0.25194 0.11205 0.43827 0.0
N907 N 0.26811 0.10663 0.43369 0.0
C908 C 0.28823 0.08726 0.52025 0.0
C909 C 0.30542 0.10784 0.50452 0.0
C910 C 0.30273 0.07669 0.52278 0.0
N911 N 0.28985 0.10261 0.51142 0.0
C912 C 0.32025 0.0977 0.50674 0.0
C913 C 0.31906 0.0819 0.51603 0.0
H914 H 0.27564 0.08322 0.52534 0.0
H915 H 0.30629 0.11972 0.49697 0.0
C916 C 0.2471 0.16587 0.46582 0.0
N917 N 0.25886 0.15318 0.46916 0.0
C918 C 0.24938 0.17708 0.45148 0.0
C919 C 0.27579 0.16195 0.44426 0.0
C920 C 0.27305 0.15111 0.45878 0.0
C921 C 0.26392 0.17524 0.44047 0.0
H922 H 0.23607 0.16744 0.47442 0.0
H923 H 0.28236 0.14111 0.46182 0.0
O924 O 0.24994 0.1123 0.52499 0.0
O925 O 0.23341 0.14196 0.50237 0.0
O926 O 0.27223 0.14238 0.50868 0.0
O927 O 0.25648 0.11265 0.48602 0.0
H928 H 0.22359 0.09912 0.5434 0.0
H929 H 0.27783 0.11411 0.54551 0.0
H930 H 0.22502 0.09098 0.57482 0.0
H931 H 0.2783 0.1059 0.57693 0.0
H932 H 0.18457 0.14027 0.46854 0.0
H933 H 0.21037 0.14889 0.52703 0.0
H934 H 0.21666 0.13837 0.47227 0.0
H935 H 0.17839 0.15074 0.52235 0.0
H936 H 0.22287 0.15397 0.57884 0.0
H937 H 0.26051 0.19076 0.55762 0.0
H938 H 0.20261 0.07061 0.4721 0.0
H939 H 0.17803 0.09199 0.51781 0.0
H940 H 0.29641 0.15526 0.48732 0.0
H941 H 0.28484 0.14257 0.54103 0.0
H942 H 0.32605 0.16484 0.49639 0.0
H943 H 0.31473 0.15214 0.54916 0.0
H944 H 0.28662 0.10197 0.47338 0.0
H945 H 0.23485 0.1183 0.45953 0.0
H946 H 0.29323 0.09869 0.44186 0.0
H947 H 0.24235 0.11479 0.42824 0.0
H948 H 0.3012 0.06466 0.53009 0.0
H949 H 0.33246 0.10204 0.50094 0.0
H950 H 0.24004 0.1873 0.44929 0.0
H951 H 0.28708 0.15988 0.43608 0.0
Li952 Li 0.38714 0.50051 0.77334 0.0
Li953 Li 0.36533 0.52031 0.76065 0.0
Li954 Li 0.36471 0.48828 0.7547 0.0
Li955 Li 0.38697 0.50703 0.7408 0.0
C956 C 0.35983 0.49872 0.79496 0.0
N957 N 0.35727 0.49528 0.83088 0.0
C958 C 0.35507 0.51288 0.80508 0.0
C959 C 0.36311 0.48276 0.80309 0.0
C960 C 0.35388 0.51089 0.82322 0.0
C961 C 0.36182 0.4813 0.82127 0.0
C962 C 0.39781 0.53941 0.76144 0.0
C963 C 0.40521 0.56664 0.74729 0.0
N964 N 0.41143 0.57274 0.76274 0.0
C965 C 0.4045 0.54588 0.77712 0.0
C966 C 0.39835 0.5498 0.74635 0.0
C967 C 0.41123 0.56279 0.77754 0.0
C968 C 0.41485 0.4841 0.79061 0.0
N969 N 0.40248 0.49638 0.79272 0.0
C970 C 0.41333 0.50269 0.82137 0.0
C971 C 0.40154 0.50569 0.80771 0.0
C972 C 0.42635 0.49018 0.81947 0.0
C973 C 0.42695 0.48077 0.80386 0.0
H974 H 0.41548 0.47701 0.77852 0.0
H975 H 0.39182 0.51561 0.80898 0.0
C976 C 0.335 0.54037 0.75711 0.0
N977 N 0.35118 0.54025 0.76446 0.0
C978 C 0.32412 0.55461 0.75923 0.0
C979 C 0.34656 0.56821 0.77678 0.0
C980 C 0.35699 0.5537 0.77433 0.0
C981 C 0.32988 0.56885 0.76911 0.0
H982 H 0.33056 0.52938 0.74956 0.0
H983 H 0.36967 0.55316 0.78044 0.0
C984 C 0.3913 0.46751 0.749 0.0
N985 N 0.39238 0.43293 0.74003 0.0
C986 C 0.39504 0.46283 0.73182 0.0
C987 C 0.38834 0.45461 0.76168 0.0
C988 C 0.39548 0.44527 0.72753 0.0
C989 C 0.38887 0.4372 0.75686 0.0
C990 C 0.35613 0.51571 0.72272 0.0
C991 C 0.34831 0.50585 0.70955 0.0
C992 C 0.35855 0.53356 0.72018 0.0
C993 C 0.34336 0.51396 0.69392 0.0
C994 C 0.3534 0.54119 0.70438 0.0
N995 N 0.346 0.53132 0.69167 0.0
C996 C 0.33932 0.46255 0.76382 0.0
C997 C 0.35011 0.46085 0.73487 0.0
C998 C 0.32847 0.4481 0.76115 0.0
N999 N 0.34988 0.46858 0.75077 0.0
C1000 C 0.33956 0.44633 0.73165 0.0
C1001 C 0.32851 0.43977 0.74488 0.0
H1002 H 0.33927 0.46899 0.7763 0.0
H1003 H 0.35852 0.46598 0.72467 0.0
C1004 C 0.4181 0.51688 0.72407 0.0
N1005 N 0.40176 0.51057 0.72094 0.0
C1006 C 0.42991 0.51932 0.71034 0.0
C1007 C 0.40798 0.50846 0.69038 0.0
C1008 C 0.39657 0.50627 0.70452 0.0
C1009 C 0.42495 0.51502 0.6932 0.0
H1010 H 0.422 0.51995 0.73729 0.0
H1011 H 0.38372 0.50076 0.70241 0.0
O1012 O 0.36116 0.50045 0.77719 0.0
O1013 O 0.39124 0.52283 0.76081 0.0
O1014 O 0.39052 0.48463 0.75339 0.0
O1015 O 0.3611 0.50794 0.73809 0.0
H1016 H 0.35238 0.52529 0.799 0.0
H1017 H 0.36673 0.47165 0.79545 0.0
H1018 H 0.35028 0.52176 0.83122 0.0
H1019 H 0.36443 0.46906 0.82774 0.0
H1020 H 0.40567 0.57482 0.73571 0.0
H1021 H 0.40436 0.53799 0.78889 0.0
H1022 H 0.39376 0.54488 0.73397 0.0
H1023 H 0.41632 0.568 0.78963 0.0
H1024 H 0.41254 0.51039 0.8331 0.0
H1025 H 0.43665 0.47089 0.8019 0.0
H1026 H 0.31125 0.55435 0.75333 0.0
H1027 H 0.35164 0.5789 0.7844 0.0
H1028 H 0.39742 0.47264 0.72186 0.0
H1029 H 0.38555 0.45801 0.77505 0.0
H1030 H 0.39824 0.44146 0.71425 0.0
H1031 H 0.38647 0.42708 0.76651 0.0
H1032 H 0.34615 0.49206 0.71135 0.0
H1033 H 0.36414 0.54147 0.73037 0.0
H1034 H 0.3374 0.50646 0.68358 0.0
H1035 H 0.35523 0.55499 0.70225 0.0
H1036 H 0.32027 0.44341 0.77175 0.0
H1037 H 0.33983 0.4405 0.71884 0.0
H1038 H 0.44277 0.52459 0.71314 0.0
H1039 H 0.40368 0.50467 0.67746 0.0
Li1040 Li 0.76538 0.38772 0.49767 0.0
Li1041 Li 0.75224 0.36486 0.51792 0.0
Li1042 Li 0.74684 0.36573 0.48511 0.0
Li1043 Li 0.73437 0.38687 0.50358 0.0
C1044 C 0.78695 0.36113 0.49778 0.0
N1045 N 0.82302 0.3602 0.49751 0.0
C1046 C 0.7961 0.35639 0.51289 0.0
C1047 C 0.79617 0.36523 0.48248 0.0
C1048 C 0.81433 0.35603 0.5125 0.0
C1049 C 0.81439 0.36474 0.48262 0.0
C1050 C 0.74878 0.40401 0.53006 0.0
C1051 C 0.73492 0.41614 0.55535 0.0
N1052 N 0.73711 0.4323 0.54831 0.0
C1053 C 0.751 0.42073 0.52311 0.0
C1054 C 0.74075 0.40166 0.54633 0.0
C1055 C 0.74496 0.43487 0.53253 0.0
C1056 C 0.7866 0.41336 0.48071 0.0
N1057 N 0.78539 0.40256 0.49484 0.0
C1058 C 0.81295 0.41281 0.50557 0.0
C1059 C 0.79804 0.40231 0.50733 0.0
C1060 C 0.81474 0.42391 0.49094 0.0
C1061 C 0.80123 0.42415 0.47846 0.0
H1062 H 0.77613 0.41371 0.47123 0.0
H1063 H 0.79659 0.39384 0.51861 0.0
C1064 C 0.75125 0.33341 0.5368 0.0
N1065 N 0.75598 0.3504 0.53784 0.0
C1066 C 0.75418 0.32214 0.55089 0.0
C1067 C 0.76696 0.34605 0.56683 0.0
C1068 C 0.76366 0.35689 0.55245 0.0
C1069 C 0.76227 0.32836 0.56617 0.0
H1070 H 0.74519 0.32862 0.52498 0.0
H1071 H 0.7675 0.37043 0.55281 0.0
C1072 C 0.74252 0.39091 0.46342 0.0
N1073 N 0.7352 0.38908 0.42806 0.0
C1074 C 0.72535 0.39258 0.45742 0.0
C1075 C 0.75595 0.38836 0.4514 0.0
C1076 C 0.72193 0.39163 0.4395 0.0
C1077 C 0.75199 0.38744 0.43359 0.0
C1078 C 0.71288 0.3598 0.50916 0.0
C1079 C 0.6999 0.36467 0.49727 0.0
C1080 C 0.70814 0.35342 0.52569 0.0
C1081 C 0.68238 0.36318 0.50217 0.0
C1082 C 0.69047 0.35208 0.53008 0.0
N1083 N 0.67806 0.35697 0.51833 0.0
C1084 C 0.75808 0.34188 0.45977 0.0
C1085 C 0.72823 0.34904 0.45714 0.0
C1086 C 0.75688 0.3311 0.44525 0.0
N1087 N 0.74393 0.35073 0.46533 0.0
C1088 C 0.72644 0.33844 0.44251 0.0
C1089 C 0.74092 0.32933 0.43631 0.0
H1090 H 0.77034 0.34313 0.46664 0.0
H1091 H 0.71711 0.35608 0.4618 0.0
C1092 C 0.71308 0.41595 0.49706 0.0
N1093 N 0.71506 0.40207 0.50797 0.0
C1094 C 0.69991 0.42794 0.49999 0.0
C1095 C 0.69124 0.41143 0.52562 0.0
C1096 C 0.70459 0.39977 0.52219 0.0
C1097 C 0.68876 0.42579 0.51445 0.0
H1098 H 0.72194 0.41791 0.48621 0.0
H1099 H 0.70685 0.38911 0.53115 0.0
O1100 O 0.7691 0.36183 0.49799 0.0
O1101 O 0.75414 0.38999 0.52081 0.0
O1102 O 0.74611 0.39149 0.48096 0.0
O1103 O 0.73012 0.36115 0.50463 0.0
H1104 H 0.78923 0.35311 0.52483 0.0
H1105 H 0.78934 0.36893 0.47066 0.0
H1106 H 0.82156 0.35246 0.52413 0.0
H1107 H 0.82168 0.36802 0.47091 0.0
H1108 H 0.72858 0.41452 0.5679 0.0
H1109 H 0.75711 0.42273 0.51048 0.0
H1110 H 0.73883 0.38877 0.55181 0.0
H1111 H 0.74647 0.44788 0.52726 0.0
H1112 H 0.82305 0.41204 0.51546 0.0
H1113 H 0.80183 0.43276 0.46719 0.0
H1114 H 0.75006 0.30871 0.54984 0.0
H1115 H 0.77347 0.3514 0.57818 0.0
H1116 H 0.71473 0.39435 0.46649 0.0
H1117 H 0.76928 0.38693 0.45577 0.0
H1118 H 0.7087 0.39282 0.4347 0.0
H1119 H 0.76226 0.38536 0.42417 0.0
H1120 H 0.70331 0.36988 0.48455 0.0
H1121 H 0.71798 0.34967 0.5351 0.0
H1122 H 0.67221 0.36704 0.49315 0.0
H1123 H 0.68662 0.34722 0.54284 0.0
H1124 H 0.76831 0.32408 0.4412 0.0
H1125 H 0.71391 0.33764 0.43597 0.0
H1126 H 0.69851 0.4388 0.49101 0.0
H1127 H 0.68325 0.40947 0.53717 0.0
Li1128 Li 0.63635 0.98618 0.75732 0.0
Li1129 Li 0.6147 0.00526 0.77086 0.0
Li1130 Li 0.61447 1.0002 0.7381 0.0
Li1131 Li 0.63679 0.01868 0.75207 0.0
C1132 C 0.60524 0.96636 0.7589 0.0
N1133 N 0.59484 0.93195 0.76127 0.0
C1134 C 0.5992 0.95945 0.77479 0.0
C1135 C 0.60566 0.95584 0.74415 0.0
C1136 C 0.5941 0.94201 0.77575 0.0
C1137 C 0.60043 0.93846 0.74562 0.0
C1138 C 0.64346 0.00714 0.79168 0.0
C1139 C 0.64379 0.02464 0.81764 0.0
N1140 N 0.64884 0.01061 0.82723 0.0
C1141 C 0.64883 0.99294 0.80176 0.0
C1142 C 0.64109 0.02316 0.79964 0.0
C1143 C 0.65143 0.99494 0.81972 0.0
C1144 C 0.66609 0.96589 0.75158 0.0
N1145 N 0.65077 0.96623 0.76052 0.0
C1146 C 0.6571 0.93896 0.77424 0.0
C1147 C 0.64618 0.95318 0.77178 0.0
C1148 C 0.67298 0.9382 0.76511 0.0
C1149 C 0.67738 0.95192 0.75361 0.0
H1150 H 0.66962 0.97655 0.74294 0.0
H1151 H 0.63427 0.95398 0.77922 0.0
C1152 C 0.58775 0.02072 0.79046 0.0
N1153 N 0.60038 0.00849 0.79106 0.0
C1154 C 0.5773 0.02365 0.80509 0.0
C1155 C 0.59291 1.00122 0.82064 0.0
C1156 C 0.60296 0.99864 0.80569 0.0
C1157 C 0.5799 0.01391 0.82049 0.0
H1158 H 0.5858 0.02824 0.77863 0.0
H1159 H 0.6128 0.98874 0.80576 0.0
C1160 C 0.64489 0.99398 0.71896 0.0
N1161 N 0.6541 0.98262 0.68611 0.0
C1162 C 0.65191 0.00562 0.70664 0.0
C1163 C 0.64287 0.9765 0.71467 0.0
C1164 C 0.65639 0.99966 0.69007 0.0
C1165 C 0.64752 0.97102 0.69798 0.0
C1166 C 0.6092 0.03949 0.74832 0.0
C1167 C 0.6043 0.04567 0.73179 0.0
C1168 C 0.61228 0.05122 0.76181 0.0
C1169 C 0.60289 0.06353 0.72896 0.0
C1170 C 0.61074 0.06899 0.75846 0.0
N1171 N 0.60614 0.07472 0.74223 0.0
C1172 C 0.58531 0.98786 0.71849 0.0
C1173 C 0.60529 0.00559 0.70257 0.0
C1174 C 0.57486 0.98582 0.70361 0.0
N1175 N 0.60029 0.99749 0.71766 0.0
C1176 C 0.59525 0.00393 0.68742 0.0
C1177 C 0.57979 0.99392 0.68778 0.0
H1178 H 0.5814 0.98185 0.73073 0.0
H1179 H 0.61699 0.01355 0.70234 0.0
C1180 C 0.66386 0.0427 0.76056 0.0
N1181 N 0.65159 0.03854 0.74838 0.0
C1182 C 0.67511 0.0569 0.75784 0.0
C1183 C 0.66091 0.06225 0.7301 0.0
C1184 C 0.64995 0.04797 0.73335 0.0
C1185 C 0.67379 0.06684 0.74238 0.0
H1186 H 0.66512 0.03484 0.77226 0.0
H1187 H 0.64022 0.0443 0.72379 0.0
O1188 O 0.61033 0.98342 0.75776 0.0
O1189 O 0.64072 0.00537 0.77409 0.0
O1190 O 0.64032 0.99964 0.73521 0.0
O1191 O 0.61087 0.02206 0.75128 0.0
H1192 H 0.59857 0.96743 0.78629 0.0
H1193 H 0.60976 0.96106 0.73163 0.0
H1194 H 0.58953 0.93647 0.78799 0.0
H1195 H 0.60075 0.93017 0.73431 0.0
H1196 H 0.64189 0.03694 0.82398 0.0
H1197 H 0.65089 0.98048 0.79581 0.0
H1198 H 0.63719 0.03434 0.79202 0.0
H1199 H 0.65548 0.98403 0.82769 0.0
H1200 H 0.65333 0.9289 0.78353 0.0
H1201 H 0.68942 0.95185 0.74619 0.0
H1202 H 0.56747 0.03361 0.80443 0.0
H1203 H 0.59516 0.99321 0.83212 0.0
H1204 H 0.65378 0.01915 0.70978 0.0
H1205 H 0.63797 0.96721 0.72418 0.0
H1206 H 0.66171 0.00856 0.68037 0.0
H1207 H 0.64597 0.95753 0.69448 0.0
H1208 H 0.6017 0.03679 0.72124 0.0
H1209 H 0.6158 0.04666 0.77473 0.0
H1210 H 0.59922 0.06849 0.7162 0.0
H1211 H 0.61319 0.07821 0.76877 0.0
H1212 H 0.5629 0.97822 0.70458 0.0
H1213 H 0.59965 0.01032 0.67551 0.0
H1214 H 0.68502 0.05977 0.76754 0.0
H1215 H 0.65928 0.06963 0.71809 0.0
Li1216 Li 0.01873 0.25743 0.87107 0.0
Li1217 Li 0.99939 0.27055 0.8928 0.0
Li1218 Li 0.00492 0.23827 0.89359 0.0
Li1219 Li 0.98618 0.25179 0.87118 0.0
C1220 C 0.03848 0.25801 0.9027 0.0
N1221 N 0.07259 0.25792 0.91458 0.0
C1222 C 0.04635 0.27333 0.90859 0.0
C1223 C 0.04787 0.24258 0.9032 0.0
C1224 C 0.06364 0.27304 0.91444 0.0
C1225 C 0.06512 0.24282 0.90916 0.0
C1226 C 0.99718 0.29129 0.86463 0.0
C1227 C 0.97942 0.31682 0.86645 0.0
N1228 N 0.99317 0.32669 0.86079 0.0
C1229 C 0.01109 0.30167 0.85869 0.0
C1230 C 0.98117 0.29889 0.8684 0.0
C1231 C 0.00882 0.31955 0.85688 0.0
C1232 C 0.03955 0.25241 0.8411 0.0
N1233 N 0.03881 0.26101 0.85652 0.0
C1234 C 0.06621 0.27507 0.85051 0.0
C1235 C 0.0517 0.2723 0.86128 0.0
C1236 C 0.06745 0.26618 0.83462 0.0
C1237 C 0.05386 0.25471 0.82998 0.0
H1238 H 0.02893 0.24385 0.83737 0.0
H1239 H 0.0506 0.27939 0.87331 0.0
C1240 C 0.98314 0.29062 0.91895 0.0
N1241 N 0.9962 0.29062 0.90693 0.0
C1242 C 0.98035 0.30526 0.92918 0.0
C1243 C 0.00453 0.31958 0.91448 0.0
C1244 C 0.00697 0.30462 0.9047 0.0
C1245 C 0.99105 0.32005 0.92689 0.0
H1246 H 0.97484 0.27928 0.92058 0.0
H1247 H 0.0174 0.30423 0.89522 0.0
C1248 C 0.01209 0.21975 0.86234 0.0
N1249 N 0.0253 0.18849 0.8514 0.0
C1250 C 1.00111 0.20746 0.85448 0.0
C1251 C 0.02983 0.21622 0.86438 0.0
C1252 C 0.00803 0.19171 0.84912 0.0
C1253 C 0.03625 0.20033 0.85883 0.0
C1254 C 0.96556 0.24611 0.89862 0.0
C1255 C 0.9611 0.22896 0.90294 0.0
C1256 C 0.95239 0.25821 0.89574 0.0
C1257 C 0.94349 0.22413 0.90406 0.0
C1258 C 0.93494 0.25286 0.89695 0.0
N1259 N 0.93088 0.23608 0.90104 0.0
C1260 C 0.01395 0.22193 0.92527 0.0
C1261 C 0.00515 0.20217 0.90334 0.0
C1262 C 0.01692 0.20828 0.93702 0.0
N1263 N 0.00833 0.21867 0.90873 0.0
C1264 C 0.00809 0.18812 0.91461 0.0
C1265 C 0.0141 0.19109 0.9317 0.0
H1266 H 0.01623 0.23518 0.92927 0.0
H1267 H 1.00018 0.19987 0.89036 0.0
C1268 C 0.9614 0.2607 0.84511 0.0
N1269 N 0.96622 0.24798 0.85653 0.0
C1270 C 0.94709 0.25822 0.83403 0.0
C1271 C 0.94292 0.22959 0.84661 0.0
C1272 C 0.95735 0.23261 0.85742 0.0
C1273 C 0.93765 0.24247 0.83463 0.0
H1274 H 0.96876 0.27273 0.84449 0.0
H1275 H 0.96157 0.22261 0.86644 0.0
O1276 O 0.02153 0.25807 0.89699 0.0
O1277 O 0.99924 0.27379 0.86669 0.0
O1278 O 0.00548 0.2352 0.86774 0.0
O1279 O 0.98272 0.25102 0.89724 0.0
H1280 H 0.03924 0.28535 0.90854 0.0
H1281 H 0.04187 0.2305 0.89924 0.0
H1282 H 0.06992 0.28484 0.9189 0.0
H1283 H 0.07253 0.23097 0.90955 0.0
H1284 H 0.96714 0.32288 0.86945 0.0
H1285 H 0.02353 0.296 0.8556 0.0
H1286 H 0.97026 0.29104 0.87293 0.0
H1287 H 0.0195 0.32775 0.85239 0.0
H1288 H 0.07638 0.28403 0.85461 0.0
H1289 H 0.0541 0.24785 0.8177 0.0
H1290 H 0.96975 0.30512 0.93854 0.0
H1291 H 0.01323 0.33061 0.91248 0.0
H1292 H 0.98739 0.21002 0.85261 0.0
H1293 H 0.03861 0.22574 0.86995 0.0
H1294 H 0.99966 0.18205 0.84312 0.0
H1295 H 0.04996 0.19744 0.86036 0.0
H1296 H 0.97112 0.21945 0.90526 0.0
H1297 H 0.95562 0.27155 0.89251 0.0
H1298 H 0.93984 0.21088 0.90729 0.0
H1299 H 0.92461 0.26206 0.89464 0.0
H1300 H 0.02165 0.21114 0.95005 0.0
H1301 H 0.00546 0.17508 0.91009 0.0
H1302 H 0.94342 0.26857 0.82512 0.0
H1303 H 0.93623 0.21715 0.84735 0.0
Li1304 Li 0.51853 0.75584 0.37174 0.0
Li1305 Li 0.49901 0.76922 0.39314 0.0
Li1306 Li 0.50438 0.7371 0.39435 0.0
Li1307 Li 0.4858 0.75031 0.37158 0.0
C1308 C 0.53818 0.75541 0.40291 0.0
N1309 N 0.5725 0.7525 0.41365 0.0
C1310 C 0.5468 0.7695 0.41058 0.0
C1311 C 0.54695 0.73978 0.40093 0.0
C1312 C 0.56417 0.76779 0.41586 0.0
C1313 C 0.56431 0.73857 0.40638 0.0
C1314 C 0.49716 0.78973 0.36515 0.0
C1315 C 0.4791 0.81511 0.36561 0.0
N1316 N 0.49331 0.82519 0.36178 0.0
C1317 C 0.51157 0.80031 0.36106 0.0
C1318 C 0.48076 0.79715 0.3673 0.0
C1319 C 0.50936 0.81822 0.35946 0.0
C1320 C 0.53875 0.75111 0.34149 0.0
N1321 N 0.53863 0.75911 0.35724 0.0
C1322 C 0.56656 0.77214 0.35142 0.0
C1323 C 0.5521 0.76957 0.3623 0.0
C1324 C 0.56712 0.76397 0.33507 0.0
C1325 C 0.55294 0.75331 0.33019 0.0
H1326 H 0.52772 0.74313 0.33763 0.0
H1327 H 0.55152 0.77616 0.37467 0.0
C1328 C 0.48177 0.79054 0.41759 0.0
N1329 N 0.4959 0.78947 0.40695 0.0
C1330 C 0.47928 0.80526 0.42775 0.0
C1331 C 0.50601 0.81747 0.41592 0.0
C1332 C 0.50801 0.8025 0.40604 0.0
C1333 C 0.49149 0.81902 0.427 0.0
H1334 H 0.47247 0.7799 0.4183 0.0
H1335 H 0.5192 0.80128 0.39757 0.0
C1336 C 0.50958 0.71744 0.36341 0.0
N1337 N 0.51833 0.68455 0.35268 0.0
C1338 C 0.49657 0.70574 0.35812 0.0
C1339 C 0.52707 0.7125 0.36293 0.0
C1340 C 0.50125 0.68914 0.35284 0.0
C1341 C 0.53122 0.6958 0.35755 0.0
C1342 C 0.46494 0.74542 0.39958 0.0
C1343 C 0.46025 0.72887 0.40571 0.0
C1344 C 0.45195 0.75743 0.39563 0.0
C1345 C 0.44258 0.72452 0.40757 0.0
C1346 C 0.43443 0.75257 0.39763 0.0
N1347 N 0.43015 0.73636 0.4035 0.0
C1348 C 0.51515 0.72127 0.42566 0.0
C1349 C 0.50289 0.70132 0.40562 0.0
C1350 C 0.51828 0.70793 0.43771 0.0
N1351 N 0.50778 0.71776 0.40988 0.0
C1352 C 0.50576 0.68755 0.41729 0.0
C1353 C 0.5136 0.69076 0.4336 0.0
H1354 H 0.51868 0.73448 0.42887 0.0
H1355 H 0.49655 0.69886 0.39328 0.0
C1356 C 0.46439 0.75811 0.34269 0.0
N1357 N 0.46619 0.74682 0.35634 0.0
C1358 C 0.45072 0.75608 0.33075 0.0
C1359 C 0.4408 0.73089 0.34719 0.0
C1360 C 0.45479 0.73331 0.3587 0.0
C1361 C 0.43871 0.7423 0.33291 0.0
H1362 H 0.47372 0.76863 0.34095 0.0
H1363 H 0.45667 0.72425 0.36939 0.0
O1364 O 0.52119 0.75691 0.39759 0.0
O1365 O 0.49911 0.77221 0.36705 0.0
O1366 O 0.50521 0.73377 0.36853 0.0
O1367 O 0.48217 0.74988 0.39762 0.0
H1368 H 0.54017 0.78165 0.41238 0.0
H1369 H 0.54037 0.72863 0.39543 0.0
H1370 H 0.57102 0.77862 0.42172 0.0
H1371 H 0.57125 0.72655 0.4049 0.0
H1372 H 0.4665 0.82104 0.36736 0.0
H1373 H 0.52433 0.79477 0.35929 0.0
H1374 H 0.46946 0.78912 0.37031 0.0
H1375 H 0.52042 0.82657 0.35641 0.0
H1376 H 0.5772 0.7804 0.35579 0.0
H1377 H 0.55262 0.74703 0.31759 0.0
H1378 H 0.46805 0.80572 0.43631 0.0
H1379 H 0.51566 0.8278 0.41473 0.0
H1380 H 0.48299 0.70937 0.35823 0.0
H1381 H 0.53736 0.72151 0.36646 0.0
H1382 H 0.49129 0.67992 0.34885 0.0
H1383 H 0.5447 0.69181 0.35717 0.0
H1384 H 0.47012 0.71946 0.40894 0.0
H1385 H 0.45536 0.77031 0.39096 0.0
H1386 H 0.43875 0.71174 0.41223 0.0
H1387 H 0.42424 0.76169 0.39452 0.0
H1388 H 0.5245 0.71102 0.45003 0.0
H1389 H 0.50162 0.67459 0.4137 0.0
H1390 H 0.44952 0.76522 0.31997 0.0
H1391 H 0.43199 0.71996 0.34917 0.0
Li1392 Li 0.00258 0.76472 0.6177 0.0
Li1393 Li 0.98362 0.75145 0.64009 0.0
Li1394 Li 0.01604 0.74561 0.6403 0.0
Li1395 Li 0.99613 0.73245 0.61857 0.0
C1396 C 0.01041 0.78356 0.64847 0.0
N1397 N 0.0243 0.81514 0.6587 0.0
C1398 C 0.99948 0.79654 0.65461 0.0
C1399 C 0.02843 0.78655 0.64787 0.0
C1400 C 0.00674 0.81245 0.65961 0.0
C1401 C 0.0352 0.80261 0.65301 0.0
C1402 C 0.96276 0.75586 0.61247 0.0
C1403 C 0.9324 0.74746 0.61467 0.0
N1404 N 0.92777 0.76374 0.60965 0.0
C1405 C 0.95772 0.77247 0.60718 0.0
C1406 C 0.95002 0.7432 0.61611 0.0
C1407 C 0.93996 0.77621 0.60588 0.0
C1408 C 0.0143 0.78177 0.58701 0.0
N1409 N 0.0063 0.78438 0.6026 0.0
C1410 C 0.00332 0.8146 0.59594 0.0
C1411 C 1.00066 0.80036 0.60714 0.0
C1412 C 0.01181 0.81236 0.57983 0.0
C1413 C 0.01733 0.79563 0.57546 0.0
H1414 H 0.01833 0.76888 0.58351 0.0
H1415 H 0.99379 0.80202 0.61931 0.0
C1416 C 0.95872 0.74358 0.66667 0.0
N1417 N 0.96382 0.75567 0.65459 0.0
C1418 C 0.94452 0.74668 0.67763 0.0
C1419 C 0.94103 0.77457 0.66343 0.0
C1420 C 0.95532 0.77096 0.65282 0.0
C1421 C 0.9355 0.76241 0.67616 0.0
H1422 H 0.96583 0.73161 0.66798 0.0
H1423 H 0.95968 0.78041 0.64319 0.0
C1424 C 0.0353 0.74508 0.60799 0.0
N1425 N 0.06896 0.74546 0.595 0.0
C1426 C 0.04204 0.7303 0.60017 0.0
C1427 C 0.0456 0.76013 0.60895 0.0
C1428 C 0.05911 0.73072 0.59376 0.0
C1429 C 0.0626 0.76005 0.60237 0.0
C1430 C 0.99422 0.71183 0.64707 0.0
C1431 C 0.00856 0.70198 0.65226 0.0
C1432 C 0.97806 0.70368 0.64437 0.0
C1433 C 0.00653 0.68405 0.65439 0.0
C1434 C 0.97657 0.68572 0.64661 0.0
N1435 N 0.99072 0.67635 0.65152 0.0
C1436 C 0.03615 0.74861 0.67119 0.0
C1437 C 0.05002 0.73307 0.64866 0.0
C1438 C 0.05069 0.7466 0.68209 0.0
N1439 N 0.03616 0.74204 0.65474 0.0
C1440 C 0.06489 0.73095 0.65902 0.0
C1441 C 0.06538 0.73783 0.67593 0.0
H1442 H 0.02489 0.75555 0.67577 0.0
H1443 H 0.04955 0.72743 0.63583 0.0
C1444 C 0.97954 0.71231 0.5923 0.0
N1445 N 0.99252 0.71238 0.60446 0.0
C1446 C 0.97679 0.69781 0.58176 0.0
C1447 C 1.0008 0.68374 0.59645 0.0
C1448 C 0.0032 0.69855 0.60656 0.0
C1449 C 0.98745 0.68323 0.58384 0.0
H1450 H 0.97136 0.72354 0.59072 0.0
H1451 H 0.01367 0.69906 0.61603 0.0
O1452 O 0.00349 0.76789 0.64356 0.0
O1453 O 0.98008 0.75202 0.61405 0.0
O1454 O 0.01861 0.74483 0.61441 0.0
O1455 O 0.996 0.72938 0.64474 0.0
H1456 H 0.98553 0.79442 0.6554 0.0
H1457 H 0.03716 0.77652 0.64369 0.0
H1458 H 0.99841 0.82265 0.66425 0.0
H1459 H 0.04912 0.80509 0.65256 0.0
H1460 H 0.9224 0.73782 0.61756 0.0
H1461 H 0.9674 0.78239 0.60422 0.0
H1462 H 0.95371 0.73025 0.62007 0.0
H1463 H 0.93586 0.78904 0.6019 0.0
H1464 H 0.99848 0.82714 0.59972 0.0
H1465 H 0.02406 0.79326 0.56329 0.0
H1466 H 0.94093 0.73703 0.68742 0.0
H1467 H 0.93436 0.78676 0.66163 0.0
H1468 H 0.03422 0.71859 0.59913 0.0
H1469 H 0.04046 0.77184 0.61446 0.0
H1470 H 0.06453 0.71934 0.58778 0.0
H1471 H 0.0707 0.77161 0.60305 0.0
H1472 H 0.02114 0.70808 0.65449 0.0
H1473 H 0.9668 0.71113 0.6405 0.0
H1474 H 0.01754 0.67624 0.6583 0.0
H1475 H 0.96416 0.67922 0.64445 0.0
H1476 H 0.05058 0.75214 0.69504 0.0
H1477 H 0.07583 0.72382 0.65391 0.0
H1478 H 0.9663 0.69792 0.57224 0.0
H1479 H 0.0095 0.6729 0.59828 0.0
Li1480 Li 0.50153 0.2655 0.11929 0.0
Li1481 Li 0.48214 0.25228 0.14147 0.0
Li1482 Li 0.51459 0.24663 0.14229 0.0
Li1483 Li 0.49528 0.23318 0.1204 0.0
C1484 C 0.5085 0.28458 0.15024 0.0
N1485 N 0.52184 0.3163 0.16069 0.0
C1486 C 0.49747 0.297 0.1573 0.0
C1487 C 0.52636 0.28821 0.14878 0.0
C1488 C 0.50445 0.31299 0.16242 0.0
C1489 C 0.53285 0.30433 0.15407 0.0
C1490 C 0.46201 0.25687 0.11322 0.0
C1491 C 0.43142 0.24915 0.11425 0.0
N1492 N 0.42734 0.26559 0.10921 0.0
C1493 C 0.45754 0.27364 0.1079 0.0
C1494 C 0.44887 0.24447 0.11627 0.0
C1495 C 0.43993 0.2778 0.10599 0.0
C1496 C 0.51247 0.28215 0.08816 0.0
N1497 N 0.50539 0.28507 0.10413 0.0
C1498 C 0.50369 0.31546 0.0978 0.0
C1499 C 0.5008 0.30129 0.10903 0.0
C1500 C 0.51117 0.31288 0.08128 0.0
C1501 C 0.51554 0.29593 0.07649 0.0
H1502 H 0.51578 0.26909 0.08448 0.0
H1503 H 0.49465 0.30324 0.12152 0.0
C1504 C 0.45664 0.24458 0.16754 0.0
N1505 N 0.46202 0.25658 0.15549 0.0
C1506 C 0.44218 0.24777 0.17813 0.0
C1507 C 0.43902 0.27556 0.16364 0.0
C1508 C 0.45357 0.27187 0.15341 0.0
C1509 C 0.43318 0.26348 0.17632 0.0
H1510 H 0.46372 0.23263 0.16913 0.0
H1511 H 0.45819 0.28127 0.14386 0.0
C1512 C 0.53477 0.24575 0.11098 0.0
N1513 N 0.56905 0.24578 0.0997 0.0
C1514 C 0.54224 0.23047 0.10499 0.0
C1515 C 0.54466 0.26111 0.11091 0.0
C1516 C 0.55961 0.23073 0.09944 0.0
C1517 C 0.56198 0.26085 0.10524 0.0
C1518 C 0.49217 0.21285 0.14892 0.0
C1519 C 0.50594 0.20259 0.15482 0.0
C1520 C 0.4759 0.20517 0.14552 0.0
C1521 C 0.50327 0.18472 0.15693 0.0
C1522 C 0.47377 0.18727 0.14777 0.0
N1523 N 0.48739 0.1775 0.15336 0.0
C1524 C 0.53546 0.25207 0.1724 0.0
C1525 C 0.54724 0.23217 0.15235 0.0
C1526 C 0.54995 0.25023 0.18337 0.0
N1527 N 0.5345 0.2433 0.15708 0.0
C1528 C 0.56193 0.22989 0.16294 0.0
C1529 C 0.5635 0.23908 0.17865 0.0
H1530 H 0.52497 0.26053 0.17608 0.0
H1531 H 0.54596 0.22493 0.14041 0.0
C1532 C 0.47931 0.21285 0.09393 0.0
N1533 N 0.49198 0.21297 0.10641 0.0
C1534 C 0.47676 0.19828 0.08345 0.0
C1535 C 0.50034 0.18422 0.09886 0.0
C1536 C 0.50251 0.1991 0.10893 0.0
C1537 C 0.48733 0.18367 0.0859 0.0
H1538 H 0.47122 0.2241 0.09205 0.0
H1539 H 0.51269 0.1996 0.11872 0.0
O1540 O 0.50184 0.26888 0.1451 0.0
O1541 O 0.47917 0.25261 0.11537 0.0
O1542 O 0.51775 0.2457 0.11643 0.0
O1543 O 0.49459 0.23033 0.14657 0.0
H1544 H 0.48365 0.29437 0.15873 0.0
H1545 H 0.53518 0.2786 0.14388 0.0
H1546 H 0.49603 0.32275 0.16779 0.0
H1547 H 0.54665 0.3073 0.15298 0.0
H1548 H 0.42111 0.23971 0.11667 0.0
H1549 H 0.46754 0.28336 0.10539 0.0
H1550 H 0.45211 0.2314 0.12022 0.0
H1551 H 0.43628 0.29076 0.10199 0.0
H1552 H 0.49981 0.32825 0.10189 0.0
H1553 H 0.52144 0.29335 0.06394 0.0
H1554 H 0.43836 0.23819 0.1879 0.0
H1555 H 0.43241 0.28774 0.16159 0.0
H1556 H 0.53475 0.21851 0.10472 0.0
H1557 H 0.53898 0.27317 0.11493 0.0
H1558 H 0.56559 0.21896 0.09491 0.0
H1559 H 0.56977 0.27265 0.10516 0.0
H1560 H 0.51856 0.20832 0.15764 0.0
H1561 H 0.46508 0.21294 0.14111 0.0
H1562 H 0.51384 0.17661 0.16139 0.0
H1563 H 0.46129 0.18114 0.14506 0.0
H1564 H 0.55043 0.25732 0.19551 0.0
H1565 H 0.57206 0.22121 0.15872 0.0
H1566 H 0.46651 0.19837 0.07368 0.0
H1567 H 0.50895 0.17337 0.10101 0.0
H1568 H 0.25026 0.75237 0.8563 0.0
H1569 H 0.21113 0.78749 0.83676 0.0
H1570 H 0.25219 0.76888 0.88338 0.0
H1571 H 0.21326 0.80414 0.86368 0.0
H1572 H 0.20969 0.81929 0.92148 0.0
H1573 H 0.20682 0.80142 0.89548 0.0
H1574 H 0.26294 0.7982 0.89208 0.0
H1575 H 0.26589 0.81635 0.91784 0.0
C1576 C 0.24197 0.76352 0.85786 0.0
C1577 C 0.23057 0.76865 0.84439 0.0
C1578 C 0.2432 0.77307 0.87328 0.0
C1579 C 0.23292 0.78785 0.87564 0.0
C1580 C 0.22126 0.79275 0.86232 0.0
C1581 C 0.22015 0.7833 0.84684 0.0
C1582 C 0.22144 0.81493 0.91512 0.0
C1583 C 0.23804 0.81934 0.92178 0.0
C1584 C 0.21978 0.80463 0.90024 0.0
C1585 C 0.23465 0.79839 0.89174 0.0
C1586 C 0.25122 0.8026 0.89849 0.0
C1587 C 0.2529 0.813 0.91329 0.0
H1588 H 0.00594 0.54399 0.40148 0.0
H1589 H 0.03501 0.50095 0.4226 0.0
H1590 H 0.02253 0.54239 0.37424 0.0
H1591 H 0.05128 0.49907 0.39542 0.0
H1592 H 0.09036 0.51152 0.35305 0.0
H1593 H 0.0733 0.51425 0.37956 0.0
H1594 H 0.02742 0.52529 0.34862 0.0
H1595 H 0.0448 0.52356 0.322 0.0
C1596 C 0.01576 0.53409 0.40023 0.0
C1597 C 0.0193 0.52272 0.41425 0.0
C1598 C 0.02524 0.53314 0.38461 0.0
C1599 C 0.03838 0.5207 0.38265 0.0
C1600 C 0.04159 0.5091 0.39658 0.0
C1601 C 0.03223 0.51014 0.41217 0.0
C1602 C 0.07671 0.51481 0.35184 0.0
C1603 C 0.06902 0.51736 0.33531 0.0
C1604 C 0.06683 0.51612 0.36709 0.0
C1605 C 0.04891 0.51985 0.36629 0.0
C1606 C 0.04121 0.52253 0.34977 0.0
C1607 C 0.05114 0.52131 0.33448 0.0
H1608 H 0.81249 0.73625 0.8566 0.0
H1609 H 0.76064 0.7569 0.86216 0.0
H1610 H 0.80611 0.71474 0.87938 0.0
H1611 H 0.75422 0.73524 0.88483 0.0
H1612 H 0.74448 0.68367 0.91441 0.0
H1613 H 0.75018 0.70371 0.89008 0.0
H1614 H 0.80134 0.71503 0.91119 0.0
H1615 H 0.7956 0.69526 0.9356 0.0
C1616 C 0.79973 0.73622 0.86268 0.0
C1617 C 0.78713 0.74842 0.85762 0.0
C1618 C 0.79608 0.72388 0.87574 0.0
C1619 C 0.7797 0.72336 0.88402 0.0
C1620 C 0.7669 0.73519 0.8786 0.0
C1621 C 0.77058 0.74759 0.86557 0.0
C1622 C 0.7569 0.69053 0.91395 0.0
C1623 C 0.76958 0.6878 0.927 0.0
C1624 C 0.76017 0.70199 0.89997 0.0
C1625 C 0.77624 0.71092 0.89866 0.0
C1626 C 0.78894 0.70813 0.91164 0.0
C1627 C 0.78565 0.69676 0.92564 0.0
H1628 H 0.97688 0.96862 0.4173 0.0
H1629 H 0.01839 0.97816 0.38005 0.0
H1630 H 0.95539 0.97446 0.39456 0.0
H1631 H 0.997 0.98517 0.35774 0.0
H1632 H 0.9552 0.97685 0.31651 0.0
H1633 H 0.97634 0.97133 0.33965 0.0
H1634 H 0.94262 0.9963 0.37678 0.0
H1635 H 0.92123 1.0013 0.3536 0.0
C1636 C 0.98146 0.97206 0.40431 0.0
C1637 C 0.99944 0.97283 0.40057 0.0
C1638 C 0.9691 0.97565 0.3913 0.0
C1639 C 0.9744 0.98023 0.37423 0.0
C1640 C 0.99238 0.98139 0.37062 0.0
C1641 C 0.00471 0.97765 0.38356 0.0
C1642 C 0.95237 0.98123 0.32961 0.0
C1643 C 0.9366 0.98955 0.33324 0.0
C1644 C 0.96452 0.97814 0.34289 0.0
C1645 C 0.9613 0.98346 0.36014 0.0
C1646 C 0.94547 0.99179 0.36374 0.0
C1647 C 0.93322 0.99472 0.35046 0.0
H1648 H 0.24108 0.26177 0.64062 0.0
H1649 H 0.20071 0.22781 0.66133 0.0
H1650 H 0.24793 0.24035 0.61853 0.0
H1651 H 0.2077 0.20624 0.63941 0.0
H1652 H 0.21002 0.18229 0.58483 0.0
H1653 H 0.20452 0.20232 0.60853 0.0
H1654 H 0.25996 0.21223 0.61345 0.0
H1655 H 0.26542 0.19231 0.58954 0.0
C1656 C 0.23387 0.24959 0.64065 0.0
C1657 C 0.22029 0.24653 0.65268 0.0
C1658 C 0.23781 0.23728 0.62798 0.0
C1659 C 0.2283 0.22158 0.62709 0.0
C1660 C 0.21505 0.21833 0.63947 0.0
C1661 C 0.21107 0.23067 0.65207 0.0
C1662 C 0.22105 0.18859 0.5911 0.0
C1663 C 0.23816 0.1857 0.58528 0.0
C1664 C 0.21791 0.20007 0.60473 0.0
C1665 C 0.23179 0.20891 0.61296 0.0
C1666 C 0.24893 0.20586 0.60725 0.0
C1667 C 0.25207 0.19443 0.59356 0.0
H1668 H 0.51154 0.50766 0.61949 0.0
H1669 H 0.48575 0.55538 0.60565 0.0
H1670 H 0.48918 0.50149 0.64146 0.0
H1671 H 0.46348 0.54931 0.62768 0.0
H1672 H 0.41847 0.52677 0.65982 0.0
H1673 H 0.43922 0.53055 0.63585 0.0
H1674 H 0.48073 0.51253 0.66951 0.0
H1675 H 0.45991 0.50805 0.69317 0.0
C1676 C 0.50109 0.51683 0.62113 0.0
C1677 C 0.50047 0.53204 0.61086 0.0
C1678 C 0.48829 0.51332 0.63375 0.0
C1679 C 0.47458 0.52496 0.63644 0.0
C1680 C 0.47371 0.53994 0.62582 0.0
C1681 C 0.48649 0.54342 0.61317 0.0
C1682 C 0.43198 0.5234 0.66203 0.0
C1683 C 0.43751 0.51716 0.67846 0.0
C1684 C 0.44392 0.52574 0.64834 0.0
C1685 C 0.46167 0.52187 0.65074 0.0
C1686 C 0.46714 0.51545 0.66711 0.0
C1687 C 0.45522 0.51311 0.68078 0.0
H1688 H 0.76932 0.23912 0.63616 0.0
H1689 H 0.79843 0.27917 0.66296 0.0
H1690 H 0.76222 0.25968 0.61284 0.0
H1691 H 0.79158 0.29971 0.63937 0.0
H1692 H 0.76015 0.33496 0.60139 0.0
H1693 H 0.76628 0.31521 0.62577 0.0
H1694 H 0.77874 0.27489 0.58927 0.0
H1695 H 0.77301 0.29462 0.56494 0.0
C1696 C 0.77405 0.25237 0.63717 0.0
C1697 C 0.78442 0.25752 0.65143 0.0
C1698 C 0.77014 0.2641 0.62371 0.0
C1699 C 0.77643 0.28129 0.62421 0.0
C1700 C 0.78647 0.28658 0.63866 0.0
C1701 C 0.7905 0.27479 0.65209 0.0
C1702 C 0.76438 0.32195 0.59854 0.0
C1703 C 0.76599 0.3164 0.58114 0.0
C1704 C 0.76784 0.31062 0.61253 0.0
C1705 C 0.77288 0.29346 0.60944 0.0
C1706 C 0.77457 0.28794 0.59208 0.0
C1707 C 0.77123 0.29927 0.57812 0.0
H1708 H 0.50249 0.96762 0.60731 0.0
H1709 H 0.54152 0.99945 0.58125 0.0
H1710 H 0.51841 0.97065 0.63488 0.0
H1711 H 0.55767 0.00198 0.60854 0.0
H1712 H 0.5719 0.01899 0.66351 0.0
H1713 H 0.55492 0.0159 0.63675 0.0
H1714 H 0.54581 0.96171 0.64896 0.0
H1715 H 0.56288 0.96478 0.67578 0.0
C1716 C 0.51445 0.97525 0.60746 0.0
C1717 C 0.52074 0.98326 0.59206 0.0
C1718 C 0.52366 0.97684 0.62321 0.0
C1719 C 0.5393 0.98659 0.62393 0.0
C1720 C 0.54557 0.99456 0.60851 0.0
C1721 C 0.53641 0.99292 0.5928 0.0
C1722 C 0.56639 0.00637 0.66045 0.0
C1723 C 0.56887 0.99211 0.67175 0.0
C1724 C 0.55664 0.00461 0.6451 0.0
C1725 C 0.5491 0.98853 0.64064 0.0
C1726 C 0.55129 0.97432 0.65209 0.0
C1727 C 0.56108 0.97608 0.66747 0.0
H1728 H 0.85349 0.19479 0.77528 0.0
H1729 H 0.85944 0.24551 0.7513 0.0
H1730 H 0.87582 0.20226 0.79676 0.0
H1731 H 0.8813 0.25323 0.7732 0.0
H1732 H 0.93519 0.25141 0.79998 0.0
H1733 H 0.91119 0.24553 0.7799 0.0
H1734 H 0.88225 0.22043 0.82173 0.0
H1735 H 0.90633 0.2263 0.84185 0.0
C1736 C 0.85947 0.20759 0.77467 0.0
C1737 C 0.85475 0.21951 0.76148 0.0
C1738 C 0.87215 0.21194 0.78711 0.0
C1739 C 0.88043 0.22832 0.78667 0.0
C1740 C 0.87535 0.24041 0.77378 0.0
C1741 C 0.86266 0.23606 0.76135 0.0
C1742 C 0.92362 0.24484 0.80497 0.0
C1743 C 0.92271 0.23932 0.82254 0.0
C1744 C 0.90983 0.24148 0.79345 0.0
C1745 C 0.89476 0.23251 0.79919 0.0
C1746 C 0.89376 0.22715 0.81681 0.0
C1747 C 0.90757 0.23051 0.82834 0.0
H1748 H 0.4991 0.90177 0.50387 0.0
H1749 H 0.46071 0.9195 0.4665 0.0
H1750 H 0.50127 0.87448 0.4883 0.0
H1751 H 0.46348 0.89255 0.45047 0.0
H1752 H 0.4611 0.83604 0.43407 0.0
H1753 H 0.45732 0.86189 0.45167 0.0
H1754 H 0.51292 0.86412 0.4612 0.0
H1755 H 0.51659 0.83784 0.44431 0.0
C1756 C 0.49102 0.89981 0.49241 0.0
C1757 C 0.47976 0.91288 0.48643 0.0
C1758 C 0.49243 0.88424 0.48334 0.0
C1759 C 0.48265 0.88134 0.46803 0.0
C1760 C 0.47111 0.89426 0.46227 0.0
C1761 C 0.46968 0.90981 0.47136 0.0
C1762 C 0.47249 0.84191 0.44011 0.0
C1763 C 0.48916 0.83483 0.43774 0.0
C1764 C 0.47035 0.85686 0.45005 0.0
C1765 C 0.48481 0.86513 0.45785 0.0
C1766 C 0.50145 0.85799 0.45557 0.0
C1767 C 0.50359 0.84304 0.44566 0.0
H1768 H 0.13815 0.26549 0.74603 0.0
H1769 H 0.16066 0.30436 0.7798 0.0
H1770 H 0.11565 0.25922 0.76776 0.0
H1771 H 0.13828 0.29795 0.80169 0.0
H1772 H 0.08341 0.29704 0.82599 0.0
H1773 H 0.10754 0.30206 0.80576 0.0
H1774 H 0.10999 0.247 0.79623 0.0
H1775 H 0.08568 0.24203 0.81633 0.0
C1776 C 0.13848 0.27248 0.75824 0.0
C1777 C 0.15117 0.28546 0.76116 0.0
C1778 C 0.12557 0.26888 0.77072 0.0
C1779 C 0.12507 0.27813 0.78648 0.0
C1780 C 0.13805 0.29081 0.78957 0.0
C1781 C 0.15092 0.29445 0.77705 0.0
C1782 C 0.08923 0.28598 0.81973 0.0
C1783 C 0.08259 0.26914 0.82275 0.0
C1784 C 0.1031 0.28885 0.80814 0.0
C1785 C 0.11074 0.27494 0.79933 0.0
C1786 C 0.10425 0.25806 0.80256 0.0
C1787 C 0.09032 0.2552 0.81409 0.0
H1788 H 0.54907 0.63103 0.52298 0.0
H1789 H 0.52496 0.59206 0.49034 0.0
H1790 H 0.5416 0.65332 0.5016 0.0
H1791 H 0.51757 0.61448 0.46881 0.0
H1792 H 0.5252 0.65798 0.42679 0.0
H1793 H 0.53156 0.6348 0.44779 0.0
H1794 H 0.5158 0.66782 0.49007 0.0
H1795 H 0.50937 0.6909 0.46914 0.0
C1796 C 0.542 0.62722 0.51132 0.0
C1797 C 0.5375 0.60974 0.50847 0.0
C1798 C 0.53773 0.64003 0.49905 0.0
C1799 C 0.52889 0.63571 0.48354 0.0
C1800 C 0.52453 0.61822 0.48055 0.0
C1801 C 0.52878 0.60537 0.49288 0.0
C1802 C 0.52289 0.66022 0.44055 0.0
C1803 C 0.51688 0.67636 0.44628 0.0
C1804 C 0.52654 0.64693 0.45259 0.0
C1805 C 0.5243 0.6495 0.47062 0.0
C1806 C 0.518 0.66553 0.4763 0.0
C1807 C 0.51432 0.67878 0.46429 0.0
H1808 H 0.85011 0.81013 0.7326 0.0
H1809 H 0.85905 0.76195 0.76038 0.0
H1810 H 0.87226 0.80255 0.71125 0.0
H1811 H 0.88117 0.75433 0.73894 0.0
H1812 H 0.90963 0.74029 0.68814 0.0
H1813 H 0.88575 0.7468 0.70805 0.0
H1814 H 0.90406 0.79988 0.71108 0.0
H1815 H 0.92796 0.7934 0.69139 0.0
C1816 C 0.85681 0.79792 0.73417 0.0
C1817 C 0.85289 0.78672 0.7483 0.0
C1818 C 0.86951 0.79358 0.72192 0.0
C1819 C 0.8786 0.7779 0.72346 0.0
C1820 C 0.8743 0.76643 0.73727 0.0
C1821 C 0.8616 0.7708 0.74955 0.0
C1822 C 0.90863 0.75332 0.69314 0.0
C1823 C 0.92073 0.76632 0.68809 0.0
C1824 C 0.89492 0.75705 0.70454 0.0
C1825 C 0.89294 0.77388 0.7111 0.0
C1826 C 0.905 0.78687 0.70602 0.0
C1827 C 0.91872 0.78314 0.69469 0.0
H1828 H 0.01085 0.88591 0.49221 0.0
H1829 H 0.05326 0.90356 0.52502 0.0
H1830 H 0.00359 0.86332 0.51364 0.0
H1831 H 0.04628 0.88074 0.54634 0.0
H1832 H 0.02079 0.84598 0.58778 0.0
H1833 H 0.02563 0.87029 0.56762 0.0
H1834 H 0.01516 0.83659 0.52395 0.0
H1835 H 0.00939 0.81261 0.54407 0.0
C1836 C 0.01864 0.88492 0.50401 0.0
C1837 C 0.03268 0.89645 0.50689 0.0
C1838 C 0.01453 0.87194 0.51628 0.0
C1839 C 0.02444 0.87006 0.53167 0.0
C1840 C 0.03822 0.8819 0.53475 0.0
C1841 C 0.04225 0.89498 0.52252 0.0
C1842 C 0.01927 0.84382 0.57388 0.0
C1843 C 0.01472 0.82728 0.56758 0.0
C1844 C 0.02226 0.85772 0.5623 0.0
C1845 C 0.02081 0.85544 0.54412 0.0
C1846 C 0.01617 0.83893 0.53785 0.0
C1847 C 0.01311 0.82507 0.54941 0.0
H1848 H 0.17043 0.71901 0.71422 0.0
H1849 H 0.14267 0.73589 0.76006 0.0
H1850 H 0.14372 0.72059 0.69726 0.0
H1851 H 0.11621 0.73877 0.74271 0.0
H1852 H 0.06733 0.72758 0.71025 0.0
H1853 H 0.09353 0.72392 0.72808 0.0
H1854 H 0.12532 0.74104 0.68433 0.0
H1855 H 0.09918 0.744 0.66647 0.0
C1856 C 0.15863 0.72297 0.72076 0.0
C1857 C 0.15882 0.72729 0.73859 0.0
C1858 C 0.14331 0.72419 0.7109 0.0
C1859 C 0.12775 0.73 0.7185 0.0
C1860 C 0.12785 0.7341 0.73639 0.0
C1861 C 0.14315 0.73268 0.74632 0.0
C1862 C 0.07995 0.73057 0.70452 0.0
C1863 C 0.08123 0.73599 0.68696 0.0
C1864 C 0.09498 0.72854 0.71474 0.0
C1865 C 0.11164 0.73209 0.70769 0.0
C1866 C 0.11281 0.73776 0.69015 0.0
C1867 C 0.09781 0.73956 0.6799 0.0
H1868 H 0.95902 0.58213 0.54193 0.0
H1869 H 0.99474 0.60443 0.50392 0.0
H1870 H 0.9607 0.60873 0.55882 0.0
H1871 H 0.99611 0.63116 0.52071 0.0
H1872 H 0.98169 0.68187 0.54851 0.0
H1873 H 0.97788 0.65604 0.53051 0.0
H1874 H 0.98368 0.62354 0.57646 0.0
H1875 H 0.98724 0.64931 0.59445 0.0
C1876 C 0.96724 0.59269 0.53716 0.0
C1877 C 0.97688 0.59103 0.52162 0.0
C1878 C 0.96817 0.60794 0.54684 0.0
C1879 C 0.97863 0.62199 0.54117 0.0
C1880 C 0.98781 0.62061 0.52534 0.0
C1881 C 0.98698 0.60529 0.5157 0.0
C1882 C 0.98199 0.6692 0.55477 0.0
C1883 C 0.98478 0.66761 0.5729 0.0
C1884 C 0.97995 0.65443 0.54445 0.0
C1885 C 0.98046 0.63776 0.55207 0.0
C1886 C 0.98305 0.6362 0.57022 0.0
C1887 C 0.98526 0.65095 0.5805 0.0
H1888 H 0.74845 0.85726 0.24391 0.0
H1889 H 0.76102 0.86381 0.18912 0.0
H1890 H 0.76996 0.87967 0.25122 0.0
H1891 H 0.7822 0.88644 0.19646 0.0
H1892 H 0.80077 0.94028 0.21507 0.0
H1893 H 0.78069 0.91649 0.20813 0.0
H1894 H 0.80223 0.88597 0.25046 0.0
H1895 H 0.8222 0.90992 0.25758 0.0
C1896 C 0.75594 0.86328 0.23344 0.0
C1897 C 0.75287 0.85878 0.2159 0.0
C1898 C 0.76824 0.87617 0.23764 0.0
C1899 C 0.77766 0.88492 0.2244 0.0
C1900 C 0.77491 0.88014 0.20692 0.0
C1901 C 0.76273 0.86719 0.20273 0.0
C1902 C 0.80115 0.92853 0.22296 0.0
C1903 C 0.81304 0.92698 0.23689 0.0
C1904 C 0.78978 0.91485 0.21888 0.0
C1905 C 0.78993 0.89934 0.22871 0.0
C1906 C 0.80175 0.8978 0.24271 0.0
C1907 C 0.81326 0.91145 0.24669 0.0
H1908 H 0.7558 0.15193 0.2472 0.0
H1909 H 0.78042 0.16449 0.29641 0.0
H1910 H 0.77302 0.12564 0.24558 0.0
H1911 H 0.79718 0.13784 0.29511 0.0
H1912 H 0.83928 0.10074 0.27565 0.0
H1913 H 0.82119 0.12634 0.27828 0.0
H1914 H 0.77673 0.09726 0.25898 0.0
H1915 H 0.795 0.07183 0.2557 0.0
C1916 C 0.76483 0.14904 0.25772 0.0
C1917 C 0.76679 0.16039 0.27189 0.0
C1918 C 0.77457 0.13386 0.25688 0.0
C1919 C 0.78653 0.12963 0.27019 0.0
C1920 C 0.78824 0.1408 0.28453 0.0
C1921 C 0.77848 0.15599 0.28538 0.0
C1922 C 0.82568 0.09983 0.27183 0.0
C1923 C 0.81863 0.08423 0.26539 0.0
C1924 C 0.81524 0.11446 0.27355 0.0
C1925 C 0.79748 0.11387 0.26886 0.0
C1926 C 0.79039 0.09823 0.26255 0.0
C1927 C 0.80083 0.08358 0.26085 0.0
H1928 H 0.39985 1.00072 0.00269 0.0
H1929 H 0.41616 0.96862 0.95988 0.0
H1930 H 0.37248 0.98439 0.00462 0.0
H1931 H 0.3891 0.9518 0.96232 0.0
H1932 H 0.33198 0.93444 0.96134 0.0
H1933 H 0.35787 0.95292 0.95791 0.0
H1934 H 0.36277 0.95594 0.0141 0.0
H1935 H 0.33651 0.93813 0.01751 0.0
C1936 C 0.39755 0.99028 0.99358 0.0
C1937 C 0.41025 0.98598 0.98115 0.0
C1938 C 0.38193 0.98075 0.99484 0.0
C1939 C 0.37862 0.96667 0.98372 0.0
C1940 C 0.39115 0.96263 0.97102 0.0
C1941 C 0.40676 0.97216 0.96974 0.0
C1942 C 0.33846 0.93923 0.97296 0.0
C1943 C 0.33215 0.93476 0.9897 0.0
C1944 C 0.35342 0.94967 0.97099 0.0
C1945 C 0.36243 0.95592 0.98572 0.0
C1946 C 0.35605 0.95154 0.00246 0.0
C1947 C 0.34111 0.94112 0.00442 0.0
H1948 H 0.23003 0.35524 0.31444 0.0
H1949 H 0.25195 0.36161 0.26269 0.0
H1950 H 0.20851 0.37735 0.30768 0.0
H1951 H 0.23021 0.38355 0.25587 0.0
H1952 H 0.17831 0.41178 0.2457 0.0
H1953 H 0.19824 0.38795 0.25169 0.0
H1954 H 0.20943 0.40913 0.30259 0.0
H1955 H 0.18987 0.43308 0.29655 0.0
C1956 C 0.23028 0.36134 0.30162 0.0
C1957 C 0.24286 0.35672 0.28918 0.0
C1958 C 0.21792 0.374 0.29774 0.0
C1959 C 0.21774 0.3823 0.28129 0.0
C1960 C 0.2299 0.37729 0.26862 0.0
C1961 C 0.24235 0.36467 0.27253 0.0
C1962 C 0.18512 0.41145 0.25812 0.0
C1963 C 0.18241 0.42439 0.27065 0.0
C1964 C 0.19651 0.39775 0.26156 0.0
C1965 C 0.20536 0.39661 0.27764 0.0
C1966 C 0.20258 0.40947 0.29019 0.0
C1967 C 0.19131 0.4232 0.28672 0.0
H1968 H 0.11989 0.98945 0.49545 0.0
H1969 H 0.09456 0.02425 0.45907 0.0
H1970 H 0.14186 0.01177 0.50162 0.0
H1971 H 0.1163 0.04673 0.46554 0.0
H1972 H 0.17158 0.07177 0.46389 0.0
H1973 H 0.14763 0.05113 0.45946 0.0
H1974 H 0.14606 0.04048 0.51502 0.0
H1975 H 0.17035 0.06082 0.51941 0.0
C1976 C 0.11894 0.00192 0.48888 0.0
C1977 C 0.10554 0.00505 0.47671 0.0
C1978 C 0.13143 0.01477 0.49253 0.0
C1979 C 0.13087 0.03101 0.48401 0.0
C1980 C 0.1172 0.03429 0.47218 0.0
C1981 C 0.10464 0.02147 0.46861 0.0
C1982 C 0.16615 0.06499 0.47516 0.0
C1983 C 0.17293 0.06788 0.49199 0.0
C1984 C 0.15229 0.05331 0.47264 0.0
C1985 C 0.14493 0.04416 0.48689 0.0
C1986 C 0.15154 0.04722 0.50376 0.0
C1987 C 0.16534 0.05899 0.50629 0.0
H1988 H 0.73366 0.1527 0.69636 0.0
H1989 H 0.75918 0.14247 0.74575 0.0
H1990 H 0.71165 0.13057 0.70323 0.0
H1991 H 0.7372 0.12023 0.7526 0.0
H1992 H 0.68595 0.09135 0.76532 0.0
H1993 H 0.70651 0.11518 0.75946 0.0
H1994 H 0.71011 0.0993 0.70558 0.0
H1995 H 0.68963 0.07559 0.71142 0.0
C1996 C 0.73459 0.14569 0.70868 0.0
C1997 C 0.74825 0.14927 0.72045 0.0
C1998 C 0.72198 0.13299 0.71261 0.0
C1999 C 0.72273 0.1235 0.7284 0.0
C2000 C 0.73612 0.12741 0.7404 0.0
C2001 C 0.74873 0.14016 0.73647 0.0
C2002 C 0.6912 0.09291 0.75225 0.0
C2003 C 0.68609 0.08157 0.73884 0.0
C2004 C 0.70299 0.10657 0.74889 0.0
C2005 C 0.70993 0.10921 0.73203 0.0
C2006 C 0.70478 0.09788 0.71863 0.0
C2007 C 0.69301 0.08425 0.72199 0.0
H2008 H 0.40096 0.00601 0.50364 0.0
H2009 H 0.41825 0.0365 0.54761 0.0
H2010 H 0.37411 0.02263 0.50215 0.0
H2011 H 0.39142 0.05314 0.54609 0.0
H2012 H 0.35245 0.09238 0.52367 0.0
H2013 H 0.37833 0.07454 0.52667 0.0
H2014 H 0.34697 0.02856 0.51753 0.0
H2015 H 0.32115 0.04649 0.5139 0.0
C2016 C 0.39892 0.01607 0.51316 0.0
C2017 C 0.41182 0.01997 0.52569 0.0
C2018 C 0.38352 0.02562 0.5123 0.0
C2019 C 0.38065 0.0393 0.52393 0.0
C2020 C 0.39335 0.04291 0.53673 0.0
C2021 C 0.40874 0.03336 0.5376 0.0
C2022 C 0.35108 0.07848 0.52218 0.0
C2023 C 0.33472 0.07089 0.51848 0.0
C2024 C 0.36589 0.06822 0.52412 0.0
C2025 C 0.36473 0.0501 0.52238 0.0
C2026 C 0.34835 0.04248 0.5188 0.0
C2027 C 0.33352 0.05275 0.51691 0.0
H2028 H 0.63261 0.5156 0.55037 0.0
H2029 H 0.59221 0.48414 0.52655 0.0
H2030 H 0.6542 0.49403 0.54298 0.0
H2031 H 0.61392 0.46245 0.51914 0.0
H2032 H 0.65529 0.41973 0.52591 0.0
H2033 H 0.63311 0.44107 0.53283 0.0
H2034 H 0.66881 0.48238 0.51773 0.0
H2035 H 0.69114 0.46114 0.51147 0.0
C2036 C 0.62835 0.50417 0.54336 0.0
C2037 C 0.61067 0.50168 0.53895 0.0
C2038 C 0.64076 0.49178 0.53913 0.0
C2039 C 0.63583 0.47654 0.53038 0.0
C2040 C 0.61813 0.47396 0.52605 0.0
C2041 C 0.60569 0.48639 0.53029 0.0
C2042 C 0.65843 0.43338 0.52419 0.0
C2043 C 0.67501 0.43871 0.51816 0.0
C2044 C 0.64565 0.4456 0.52796 0.0
C2045 C 0.64918 0.46345 0.52586 0.0
C2046 C 0.66571 0.46875 0.51969 0.0
C2047 C 0.67846 0.45655 0.5159 0.0
H2048 H 0.70701 0.27494 0.34256 0.0
H2049 H 0.76043 0.25917 0.3502 0.0
H2050 H 0.70864 0.29198 0.36923 0.0
H2051 H 0.76208 0.2763 0.37677 0.0
H2052 H 0.76476 0.32552 0.41002 0.0
H2053 H 0.76254 0.30708 0.38444 0.0
H2054 H 0.71147 0.28942 0.40123 0.0
H2055 H 0.71373 0.30776 0.42697 0.0
C2056 C 0.71902 0.2749 0.35005 0.0
C2057 C 0.73362 0.26574 0.34416 0.0
C2058 C 0.71996 0.2847 0.36533 0.0
C2059 C 0.73553 0.28561 0.37506 0.0
C2060 C 0.75 0.27614 0.36939 0.0
C2061 C 0.74904 0.26632 0.35416 0.0
C2062 C 0.75313 0.31756 0.4084 0.0
C2063 C 0.73945 0.31812 0.42062 0.0
C2064 C 0.75186 0.30699 0.39371 0.0
C2065 C 0.73685 0.29672 0.39082 0.0
C2066 C 0.72312 0.29731 0.40297 0.0
C2067 C 0.72441 0.30786 0.41771 0.0
H2068 H 0.53933 0.04491 0.92181 0.0
H2069 H 0.50085 0.00874 0.90178 0.0
H2070 H 0.55596 0.04258 0.89478 0.0
H2071 H 0.5174 0.00663 0.87468 0.0
H2072 H 0.5446 0.01888 0.82237 0.0
H2073 H 0.52699 0.02348 0.84852 0.0
H2074 H 0.57334 0.01999 0.88055 0.0
H2075 H 0.59095 0.01577 0.85442 0.0
C2076 C 0.5344 0.03646 0.91166 0.0
C2077 C 0.51879 0.02692 0.91406 0.0
C2078 C 0.54394 0.03514 0.89616 0.0
C2079 C 0.53806 0.02433 0.88263 0.0
C2080 C 0.52219 0.01521 0.88478 0.0
C2081 C 0.51268 0.01646 0.90032 0.0
C2082 C 0.55103 0.01927 0.83498 0.0
C2083 C 0.56917 0.01693 0.83633 0.0
C2084 C 0.54093 0.02175 0.84997 0.0
C2085 C 0.54876 0.02211 0.86661 0.0
C2086 C 0.56692 0.01996 0.86791 0.0
C2087 C 0.57699 0.01736 0.85296 0.0
H2088 H 0.26056 0.26171 0.36656 0.0
H2089 H 0.30495 0.2321 0.34991 0.0
H2090 H 0.25412 0.23988 0.38905 0.0
H2091 H 0.29859 0.21038 0.37251 0.0
H2092 H 0.29503 0.18906 0.42896 0.0
H2093 H 0.30003 0.20912 0.40464 0.0
H2094 H 0.24471 0.20936 0.39367 0.0
H2095 H 0.23967 0.18904 0.41791 0.0
C2096 C 0.26878 0.25042 0.36749 0.0
C2097 C 0.28335 0.24873 0.35648 0.0
C2098 C 0.2651 0.23791 0.38042 0.0
C2099 C 0.27593 0.22346 0.38266 0.0
C2100 C 0.29019 0.22152 0.37133 0.0
C2101 C 0.29383 0.23398 0.35838 0.0
C2102 C 0.28393 0.19315 0.42123 0.0
C2103 C 0.26693 0.18736 0.42542 0.0
C2104 C 0.28681 0.20468 0.40728 0.0
C2105 C 0.27278 0.21081 0.39718 0.0
C2106 C 0.25578 0.20503 0.40132 0.0
C2107 C 0.2529 0.19341 0.41524 0.0
H2108 H 0.49011 0.48638 0.91492 0.0
H2109 H 0.51331 0.45029 0.87924 0.0
H2110 H 0.46794 0.4934 0.89296 0.0
H2111 H 0.49119 0.45708 0.85749 0.0
H2112 H 0.46145 0.48608 0.81563 0.0
H2113 H 0.48308 0.48028 0.83822 0.0
H2114 H 0.44274 0.48159 0.87762 0.0
H2115 H 0.42107 0.48764 0.85491 0.0
C2116 C 0.4904 0.47986 0.90245 0.0
C2117 C 0.50358 0.46791 0.89876 0.0
C2118 C 0.47769 0.48385 0.88988 0.0
C2119 C 0.47786 0.47593 0.87338 0.0
C2120 C 0.49088 0.46376 0.86987 0.0
C2121 C 0.50358 0.45984 0.88237 0.0
C2122 C 0.45717 0.48503 0.8291 0.0
C2123 C 0.43952 0.48716 0.83345 0.0
C2124 C 0.46957 0.48169 0.84207 0.0
C2125 C 0.46465 0.48029 0.85975 0.0
C2126 C 0.44702 0.48275 0.86416 0.0
C2127 C 0.4346 0.48618 0.85115 0.0
H2128 H 0.69961 0.76405 0.12587 0.0
H2129 H 0.73178 0.73785 0.16409 0.0
H2130 H 0.70728 0.74265 0.10415 0.0
H2131 H 0.73952 0.71634 0.14222 0.0
H2132 H 0.76235 0.69199 0.09187 0.0
H2133 H 0.75559 0.713 0.11452 0.0
H2134 H 0.7015 0.71216 0.09846 0.0
H2135 H 0.70821 0.69122 0.07594 0.0
C2136 C 0.70821 0.75362 0.1297 0.0
C2137 C 0.71493 0.75258 0.1468 0.0
C2138 C 0.71262 0.74135 0.11722 0.0
C2139 C 0.72389 0.72768 0.12148 0.0
C2140 C 0.73091 0.72679 0.13848 0.0
C2141 C 0.72648 0.7391 0.15101 0.0
C2142 C 0.74899 0.69616 0.0933 0.0
C2143 C 0.73585 0.69002 0.08198 0.0
C2144 C 0.74512 0.7082 0.10628 0.0
C2145 C 0.72803 0.71438 0.1082 0.0
C2146 C 0.71487 0.70797 0.0971 0.0
C2147 C 0.71872 0.69596 0.08417 0.0
H2148 H 0.01701 0.01163 0.12378 0.0
H2149 H 0.98406 0.05192 0.10289 0.0
H2150 H 0.99487 0.00438 0.14564 0.0
H2151 H 0.96199 0.04485 0.12489 0.0
H2152 H 0.91999 0.01945 0.15897 0.0
H2153 H 0.94085 0.0236 0.13514 0.0
H2154 H 0.98345 0.0171 0.17165 0.0
H2155 H 0.96266 0.01219 0.19524 0.0
C2156 C 0.00502 0.01893 0.12386 0.0
C2157 C 0.00234 0.03242 0.11167 0.0
C2158 C 0.99234 0.01481 0.13642 0.0
C2159 C 0.97669 0.02414 0.13716 0.0
C2160 C 0.97378 0.03726 0.1246 0.0
C2161 C 0.98645 0.04133 0.11198 0.0
C2162 C 0.93381 0.01866 0.16186 0.0
C2163 C 0.93963 0.01554 0.17905 0.0
C2164 C 0.94577 0.02123 0.14822 0.0
C2165 C 0.96385 0.02072 0.15145 0.0
C2166 C 0.96964 0.01738 0.16861 0.0
C2167 C 0.9577 0.0148 0.18221 0.0
H2168 H 0.26232 0.74866 0.14682 0.0
H2169 H 0.31347 0.77206 0.15218 0.0
H2170 H 0.25486 0.77023 0.12453 0.0
H2171 H 0.30591 0.7941 0.13045 0.0
H2172 H 0.29535 0.81668 0.07625 0.0
H2173 H 0.30195 0.79671 0.10015 0.0
H2174 H 0.24845 0.79938 0.11783 0.0
H2175 H 0.2418 0.81894 0.09344 0.0
C2176 C 0.27182 0.75866 0.14346 0.0
C2177 C 0.2885 0.75864 0.15112 0.0
C2178 C 0.26756 0.77108 0.13071 0.0
C2179 C 0.27982 0.78389 0.12549 0.0
C2180 C 0.29627 0.78421 0.13375 0.0
C2181 C 0.30059 0.77166 0.1463 0.0
C2182 C 0.28505 0.8131 0.08534 0.0
C2183 C 0.26806 0.81937 0.08299 0.0
C2184 C 0.28883 0.80169 0.09912 0.0
C2185 C 0.27577 0.79642 0.11106 0.0
C2186 C 0.25879 0.8029 0.10878 0.0
C2187 C 0.25497 0.81416 0.09484 0.0
H2188 H 1.00021 0.4964 0.10544 0.0
H2189 H 0.04278 0.46759 0.08339 0.0
H2190 H 0.01599 0.49822 0.13315 0.0
H2191 H 0.05865 0.46986 0.11093 0.0
H2192 H 0.08956 0.49816 0.15432 0.0
H2193 H 0.07273 0.49434 0.12745 0.0
H2194 H 0.02745 0.47935 0.15789 0.0
H2195 H 0.0443 0.48332 0.18485 0.0
C2196 C 0.0128 0.49025 0.10653 0.0
C2197 C 0.02025 0.48197 0.09207 0.0
C2198 C 0.02186 0.49135 0.12241 0.0
C2199 C 0.03862 0.48432 0.12415 0.0
C2200 C 0.04588 0.47567 0.10988 0.0
C2201 C 0.03678 0.47442 0.09408 0.0
C2202 C 0.076 0.49412 0.15527 0.0
C2203 C 0.06824 0.49108 0.17168 0.0
C2204 C 0.06641 0.49178 0.1399 0.0
C2205 C 0.04878 0.4865 0.14057 0.0
C2206 C 0.04098 0.48352 0.15698 0.0
C2207 C 0.05065 0.48566 0.17238 0.0
H2208 H 0.3708 0.7431 0.2412 0.0
H2209 H 0.34852 0.70349 0.27498 0.0
H2210 H 0.39236 0.75014 0.26359 0.0
H2211 H 0.37042 0.71006 0.29724 0.0
H2212 H 0.40427 0.73479 0.33942 0.0
H2213 H 0.3809 0.73013 0.31816 0.0
H2214 H 0.41781 0.73839 0.27606 0.0
H2215 H 0.44092 0.74351 0.29732 0.0
C2216 C 0.37056 0.73589 0.25344 0.0
C2217 C 0.35803 0.72271 0.25633 0.0
C2218 C 0.38297 0.73984 0.26626 0.0
C2219 C 0.38332 0.73056 0.28221 0.0
C2220 C 0.37047 0.71765 0.28524 0.0
C2221 C 0.35792 0.71384 0.27247 0.0
C2222 C 0.40733 0.73559 0.32561 0.0
C2223 C 0.42441 0.73957 0.32004 0.0
C2224 C 0.39396 0.73288 0.3134 0.0
C2225 C 0.39739 0.73392 0.29533 0.0
C2226 C 0.41453 0.73786 0.28983 0.0
C2227 C 0.42783 0.74074 0.30202 0.0
H2228 H 0.99661 0.40172 0.00413 0.0
H2229 H 0.9611 0.4215 0.96493 0.0
H2230 H 0.99836 0.37447 0.98835 0.0
H2231 H 0.9632 0.39439 0.94902 0.0
H2232 H 0.99074 0.35362 0.91519 0.0
H2233 H 0.98665 0.37982 0.93224 0.0
H2234 H 0.98046 0.34862 0.97912 0.0
H2235 H 0.9848 0.32235 0.96205 0.0
C2236 C 0.98896 0.40019 0.99231 0.0
C2237 C 0.97881 0.41391 0.98576 0.0
C2238 C 0.99002 0.38457 0.98324 0.0
C2239 C 0.98104 0.38234 0.96736 0.0
C2240 C 0.97051 0.39584 0.96106 0.0
C2241 C 0.96935 0.41139 0.97018 0.0
C2242 C 0.98857 0.35236 0.92914 0.0
C2243 C 0.98814 0.33593 0.93729 0.0
C2244 C 0.98605 0.36735 0.93888 0.0
C2245 C 0.98319 0.36629 0.95702 0.0
C2246 C 0.98274 0.34985 0.96519 0.0
C2247 C 0.98508 0.33482 0.9554 0.0
H2248 H 0.63354 0.76765 0.24351 0.0
H2249 H 0.66151 0.79963 0.28049 0.0
H2250 H 0.61174 0.76066 0.26571 0.0
H2251 H 0.6396 0.79269 0.30272 0.0
H2252 H 0.58506 0.79433 0.32855 0.0
H2253 H 0.60893 0.79939 0.30805 0.0
H2254 H 0.60701 0.74542 0.29354 0.0
H2255 H 0.58316 0.7403 0.31415 0.0
C2256 C 0.63523 0.77295 0.25647 0.0
C2257 C 0.64929 0.78424 0.26018 0.0
C2258 C 0.62269 0.76895 0.26921 0.0
C2259 C 0.62387 0.77618 0.28598 0.0
C2260 C 0.63815 0.78713 0.28984 0.0
C2261 C 0.65071 0.7911 0.2771 0.0
C2262 C 0.58989 0.78346 0.3212 0.0
C2263 C 0.58214 0.7669 0.323 0.0
C2264 C 0.60359 0.78638 0.30943 0.0
C2265 C 0.60988 0.77282 0.29913 0.0
C2266 C 0.60231 0.75621 0.30109 0.0
C2267 C 0.58862 0.75328 0.31289 0.0
H2268 H 0.0626 0.10986 0.99334 0.0
H2269 H 0.00944 0.11013 0.01226 0.0
H2270 H 0.05538 0.13215 0.9718 0.0
H2271 H 0.00242 0.1328 0.99097 0.0
H2272 H 0.00475 0.18805 0.96611 0.0
H2273 H 0.01082 0.16413 0.98635 0.0
H2274 H 0.03685 0.13684 0.94506 0.0
H2275 H 0.03096 0.16087 0.92484 0.0
C2276 C 0.04931 0.11445 0.99278 0.0
C2277 C 0.03662 0.10815 0.00463 0.0
C2278 C 0.0452 0.1273 0.98045 0.0
C2279 C 0.02836 0.13428 0.97975 0.0
C2280 C 0.01559 0.12784 0.99137 0.0
C2281 C 0.01964 0.11487 0.0036 0.0
C2282 C 0.01181 0.17696 0.96138 0.0
C2283 C 0.01742 0.17636 0.9439 0.0
C2284 C 0.01514 0.1632 0.97292 0.0
C2285 C 0.02429 0.1486 0.96729 0.0
C2286 C 0.02986 0.14797 0.9498 0.0
C2287 C 0.02637 0.16166 0.9382 0.0
H2288 H 0.35592 0.26337 0.25948 0.0
H2289 H 0.34652 0.31114 0.23112 0.0
H2290 H 0.37815 0.25574 0.2382 0.0
H2291 H 0.36887 0.30355 0.20994 0.0
H2292 H 0.42513 0.29462 0.191 0.0
H2293 H 0.40082 0.30116 0.21017 0.0
H2294 H 0.38288 0.24795 0.20735 0.0
H2295 H 0.40714 0.24138 0.18793 0.0
C2296 C 0.35837 0.27212 0.24855 0.0
C2297 C 0.34948 0.28793 0.24709 0.0
C2298 C 0.37114 0.26775 0.23636 0.0
C2299 C 0.37538 0.2791 0.22245 0.0
C2300 C 0.36614 0.29467 0.22069 0.0
C2301 C 0.35333 0.29901 0.23284 0.0
C2302 C 0.41588 0.28434 0.19422 0.0
C2303 C 0.41811 0.26747 0.18785 0.0
C2304 C 0.40193 0.28811 0.20524 0.0
C2305 C 0.38987 0.27509 0.21026 0.0
C2306 C 0.39205 0.25822 0.20388 0.0
C2307 C 0.40598 0.25446 0.19278 0.0
H2308 H 0.55704 0.39947 0.02335 0.0
H2309 H 0.50794 0.39005 0.99698 0.0
H2310 H 0.54972 0.37698 0.04485 0.0
H2311 H 0.5007 0.36744 0.01843 0.0
H2312 H 0.50529 0.3142 0.04599 0.0
H2313 H 0.51114 0.33828 0.02581 0.0
H2314 H 0.52953 0.36948 0.06882 0.0
H2315 H 0.52413 0.34519 0.08896 0.0
C2316 C 0.54455 0.39282 0.02229 0.0
C2317 C 0.53311 0.39654 0.00837 0.0
C2318 C 0.54037 0.37989 0.03461 0.0
C2319 C 0.52468 0.37033 0.03329 0.0
C2320 C 0.51304 0.37435 0.01964 0.0
C2321 C 0.51719 0.38732 0.00735 0.0
C2322 C 0.51068 0.32616 0.05113 0.0
C2323 C 0.51431 0.32774 0.06907 0.0
C2324 C 0.51384 0.34003 0.0396 0.0
C2325 C 0.52077 0.35582 0.04571 0.0
C2326 C 0.52431 0.35745 0.06368 0.0
C2327 C 0.52107 0.34359 0.07523 0.0
H2328 H 0.64547 0.24784 0.25789 0.0
H2329 H 0.66544 0.21214 0.21988 0.0
H2330 H 0.61814 0.24961 0.24156 0.0
H2331 H 0.63817 0.21392 0.20356 0.0
H2332 H 0.58113 0.20932 0.18676 0.0
H2333 H 0.60733 0.20632 0.20466 0.0
H2334 H 0.60768 0.26149 0.21397 0.0
H2335 H 0.5815 0.26448 0.1961 0.0
C2336 C 0.64404 0.24039 0.24604 0.0
C2337 C 0.65767 0.22987 0.24019 0.0
C2338 C 0.62838 0.24142 0.23666 0.0
C2339 C 0.62597 0.23196 0.2212 0.0
C2340 C 0.63947 0.22119 0.21554 0.0
C2341 C 0.65512 0.22016 0.22492 0.0
C2342 C 0.58685 0.22082 0.19255 0.0
C2343 C 0.57922 0.23715 0.18995 0.0
C2344 C 0.60187 0.2191 0.20282 0.0
C2345 C 0.60964 0.23366 0.21075 0.0
C2346 C 0.6019 0.24995 0.20829 0.0
C2347 C 0.58688 0.25167 0.19803 0.0
H2348 H 0.46051 0.08209 0.04393 0.0
H2349 H 0.49533 0.10524 0.0056 0.0
H2350 H 0.46195 0.10859 0.06099 0.0
H2351 H 0.49655 0.13184 0.02259 0.0
H2352 H 0.4819 0.18218 0.05052 0.0
H2353 H 0.47843 0.15632 0.03254 0.0
H2354 H 0.48425 0.12392 0.07857 0.0
H2355 H 0.48735 0.14972 0.09655 0.0
C2356 C 0.4685 0.09281 0.03914 0.0
C2357 C 0.47791 0.09145 0.02343 0.0
C2358 C 0.4693 0.10801 0.04892 0.0
C2359 C 0.47945 0.12228 0.0432 0.0
C2360 C 0.48847 0.12113 0.02726 0.0
C2361 C 0.48774 0.10589 0.0175 0.0
C2362 C 0.48226 0.16953 0.0568 0.0
C2363 C 0.48491 0.16799 0.07496 0.0
C2364 C 0.48043 0.15473 0.04649 0.0
C2365 C 0.48106 0.13807 0.05412 0.0
C2366 C 0.48353 0.13656 0.0723 0.0
C2367 C 0.48548 0.15134 0.08259 0.0
H2368 H 0.24817 0.35818 0.74709 0.0
H2369 H 0.27108 0.3558 0.69559 0.0
H2370 H 0.26938 0.38056 0.75515 0.0
H2371 H 0.29177 0.37869 0.70338 0.0
H2372 H 0.33623 0.40995 0.7275 0.0
H2373 H 0.31684 0.38543 0.72129 0.0
H2374 H 0.275 0.41077 0.74846 0.0
H2375 H 0.29442 0.43518 0.75476 0.0
C2376 C 0.25783 0.36231 0.73753 0.0
C2377 C 0.25786 0.35522 0.72066 0.0
C2378 C 0.26985 0.37531 0.74208 0.0
C2379 C 0.28222 0.38154 0.72989 0.0
C2380 C 0.28253 0.37413 0.71316 0.0
C2381 C 0.27052 0.36113 0.70862 0.0
C2382 C 0.32288 0.4103 0.7321 0.0
C2383 C 0.31687 0.42455 0.74159 0.0
C2384 C 0.31175 0.39624 0.72854 0.0
C2385 C 0.29433 0.39611 0.73435 0.0
C2386 C 0.28841 0.41028 0.74403 0.0
C2387 C 0.29954 0.42431 0.74762 0.0
H2388 H 0.29131 0.67131 0.79288 0.0
H2389 H 0.24847 0.64737 0.76491 0.0
H2390 H 0.30773 0.64449 0.791 0.0
H2391 H 0.26473 0.62038 0.76342 0.0
H2392 H 0.30866 0.58429 0.74474 0.0
H2393 H 0.2908 0.60997 0.74813 0.0
H2394 H 0.30789 0.61433 0.80177 0.0
H2395 H 0.32562 0.58852 0.79848 0.0
C2396 C 0.28536 0.66028 0.78641 0.0
C2397 C 0.26861 0.6615 0.77898 0.0
C2398 C 0.29471 0.64486 0.78548 0.0
C2399 C 0.28757 0.6303 0.77701 0.0
C2400 C 0.27068 0.63141 0.76987 0.0
C2401 C 0.26129 0.64682 0.77089 0.0
C2402 C 0.30843 0.59056 0.75734 0.0
C2403 C 0.31864 0.58432 0.77132 0.0
C2404 C 0.29819 0.6053 0.75928 0.0
C2405 C 0.29793 0.61422 0.77522 0.0
C2406 C 0.30799 0.60791 0.78924 0.0
C2407 C 0.31819 0.59312 0.78733 0.0
H2408 H 0.8979 0.50208 0.49938 0.0
H2409 H 0.91623 0.46608 0.4608 0.0
H2410 H 0.87031 0.48611 0.50124 0.0
H2411 H 0.88901 0.44962 0.46331 0.0
H2412 H 0.83243 0.43178 0.46064 0.0
H2413 H 0.85839 0.45003 0.45703 0.0
H2414 H 0.85945 0.45902 0.51271 0.0
H2415 H 0.833 0.44152 0.51619 0.0
C2416 C 0.89601 0.49085 0.49118 0.0
C2417 C 0.90935 0.48536 0.47997 0.0
C2418 C 0.88026 0.48153 0.49243 0.0
C2419 C 0.87745 0.46647 0.48254 0.0
C2420 C 0.89063 0.46122 0.47103 0.0
C2421 C 0.90635 0.47056 0.46974 0.0
C2422 C 0.83804 0.43785 0.47209 0.0
C2423 C 0.83058 0.43514 0.48872 0.0
C2424 C 0.85307 0.44816 0.47004 0.0
C2425 C 0.86108 0.45599 0.48458 0.0
C2426 C 0.85354 0.45338 0.50119 0.0
C2427 C 0.83849 0.44312 0.50322 0.0
H2428 H 0.76102 0.86761 0.76574 0.0
H2429 H 0.72503 0.84547 0.80355 0.0
H2430 H 0.74 0.89005 0.75857 0.0
H2431 H 0.70425 0.86834 0.79683 0.0
H2432 H 0.66482 0.90359 0.76905 0.0
H2433 H 0.68478 0.8796 0.77414 0.0
H2434 H 0.7285 0.91552 0.77273 0.0
H2435 H 0.70863 0.93944 0.76772 0.0
C2436 C 0.74854 0.8674 0.77239 0.0
C2437 C 0.74474 0.85472 0.78524 0.0
C2438 C 0.73658 0.88042 0.76844 0.0
C2439 C 0.72049 0.8811 0.77723 0.0
C2440 C 0.71647 0.86815 0.78973 0.0
C2441 C 0.72846 0.85513 0.79371 0.0
C2442 C 0.67869 0.90638 0.76992 0.0
C2443 C 0.68511 0.92347 0.76793 0.0
C2444 C 0.69013 0.89262 0.77283 0.0
C2445 C 0.70825 0.89561 0.77378 0.0
C2446 C 0.71465 0.91269 0.77174 0.0
C2447 C 0.70324 0.92643 0.76886 0.0
H2448 H 0.62276 0.48741 0.9939 0.0
H2449 H 0.59855 0.52182 0.95633 0.0
H2450 H 0.64476 0.50952 1.0001 0.0
H2451 H 0.62005 0.54432 0.96322 0.0
H2452 H 0.67377 0.57141 0.96348 0.0
H2453 H 0.65038 0.55041 0.95831 0.0
H2454 H 0.6499 0.53696 0.01333 0.0
H2455 H 0.67395 0.55724 0.01832 0.0
C2456 C 0.62205 0.49974 0.98704 0.0
C2457 C 0.60895 0.50275 0.97449 0.0
C2458 C 0.63456 0.51253 0.99077 0.0
C2459 C 0.63426 0.52873 0.98212 0.0
C2460 C 0.62085 0.53192 0.96994 0.0
C2461 C 0.60836 0.51908 0.96616 0.0
C2462 C 0.6688 0.56386 0.97446 0.0
C2463 C 0.67587 0.56598 0.9913 0.0
C2464 C 0.65518 0.55198 0.97154 0.0
C2465 C 0.64821 0.54196 0.9854 0.0
C2466 C 0.65508 0.54429 0.00229 0.0
C2467 C 0.66875 0.55611 0.0052 0.0
H2468 H 0.22939 0.66441 0.21831 0.0
H2469 H 0.2701 0.62647 0.22348 0.0
H2470 H 0.20748 0.64203 0.22503 0.0
H2471 H 0.24831 0.60405 0.22979 0.0
H2472 H 0.20712 0.57052 0.25622 0.0
H2473 H 0.22826 0.59393 0.25126 0.0
H2474 H 0.19368 0.61694 0.21301 0.0
H2475 H 0.17238 0.59368 0.21836 0.0
C2476 C 0.23363 0.65126 0.22081 0.0
C2477 C 0.25147 0.64723 0.22046 0.0
C2478 C 0.22109 0.63841 0.2246 0.0
C2479 C 0.22608 0.62118 0.22799 0.0
C2480 C 0.24396 0.61721 0.22762 0.0
C2481 C 0.25648 0.63007 0.22397 0.0
C2482 C 0.20407 0.58057 0.24674 0.0
C2483 C 0.18813 0.58022 0.23763 0.0
C2484 C 0.2162 0.59399 0.24384 0.0
C2485 C 0.21277 0.60732 0.23164 0.0
C2486 C 0.19669 0.60706 0.22269 0.0
C2487 C 0.18449 0.5937 0.2257 0.0
H2488 H 0.9055 0.51393 0.04639 0.0
H2489 H 0.91937 0.5337 0.9952 0.0
H2490 H 0.8786 0.53066 0.0455 0.0
H2491 H 0.89235 0.54993 0.99394 0.0
H2492 H 0.85326 0.59173 0.00415 0.0
H2493 H 0.8795 0.57456 0.00596 0.0
H2494 H 0.85059 0.5336 0.03248 0.0
H2495 H 0.82453 0.55136 0.03177 0.0
C2496 C 0.90265 0.52168 0.03486 0.0
C2497 C 0.91458 0.52265 0.02094 0.0
C2498 C 0.88722 0.53124 0.0343 0.0
C2499 C 0.8833 0.54183 0.01971 0.0
C2500 C 0.89508 0.54232 0.0056 0.0
C2501 C 0.91055 0.53295 0.00625 0.0
C2502 C 0.8525 0.5792 0.01065 0.0
C2503 C 0.83669 0.57303 0.01787 0.0
C2504 C 0.86755 0.56918 0.01143 0.0
C2505 C 0.86722 0.55257 0.01925 0.0
C2506 C 0.85143 0.54638 0.0265 0.0
C2507 C 0.83638 0.5565 0.02587 0.0
H2508 H 0.1057 0.00434 0.01524 0.0
H2509 H 0.11479 0.99373 0.07001 0.0
H2510 H 0.12737 0.98274 0.00752 0.0
H2511 H 0.13602 0.97182 0.06242 0.0
H2512 H 0.18722 0.94956 0.04432 0.0
H2513 H 0.16467 0.97018 0.05128 0.0
H2514 H 0.13432 0.9527 0.007 0.0
H2515 H 0.15747 0.93279 0.99936 0.0
C2516 C 0.11214 0.99717 0.02561 0.0
C2517 C 0.10867 1.00081 0.04322 0.0
C2518 C 0.12454 0.98475 0.02121 0.0
C2519 C 0.13362 0.97561 0.03434 0.0
C2520 C 0.12964 0.97889 0.05195 0.0
C2521 C 0.1174 0.99139 0.05633 0.0
C2522 C 0.17588 0.95025 0.03589 0.0
C2523 C 0.17428 0.9395 0.02122 0.0
C2524 C 0.16276 0.96192 0.04006 0.0
C2525 C 0.14755 0.96308 0.02979 0.0
C2526 C 0.1459 0.9523 0.01513 0.0
C2527 C 0.1591 0.94069 0.01088 0.0
loop_
_geom_bond_atom_site_label_1
_geom_bond_atom_site_label_2
_geom_bond_distance
_geom_bond_site_symmetry_2
_ccdc_geom_bond_type
P0 O11 1.490 . S
P0 C14 1.812 . S
P0 C20 1.803 . S
P0 C26 1.819 . S
H1 C15 0.941 . S
H2 C16 0.939 . S
H3 C18 0.940 1_655 S
H4 C19 0.940 . S
H5 C21 0.939 . S
H6 C22 0.942 . S
H7 C24 0.985 . S
H8 C25 0.939 . S
H9 C27 0.941 . S
H10 C31 0.939 . S
O11 P0 1.490 . S
H12 C28 0.939 . S
H13 C30 0.940 1_556 S
C14 P0 1.812 . S
C14 C15 1.389 . S
C14 C19 1.391 . S
C15 H1 0.941 . S
C15 C14 1.389 . S
C15 C16 1.397 . S
C16 H2 0.939 . S
C16 C15 1.397 . S
C16 C17 1.378 . S
C17 C16 1.378 . S
C17 C18 1.378 . S
C18 H3 0.940 1_455 S
C18 C17 1.378 . S
C18 C19 1.396 . S
C19 H4 0.940 . S
C19 C14 1.391 . S
C19 C18 1.396 . S
C20 P0 1.803 . S
C20 C21 1.378 . S
C20 C25 1.400 . S
C21 H5 0.939 . S
C21 C20 1.378 . S
C21 C22 1.361 . S
C22 H6 0.942 . S
C22 C21 1.361 . S
C22 C23 1.400 . S
C23 C22 1.400 . S
C23 C24 1.401 1_545 S
C24 H7 0.985 . S
C24 C23 1.401 1_565 S
C24 C25 1.348 1_565 S
C25 H8 0.939 . S
C25 C20 1.400 . S
C25 C24 1.348 1_545 S
C26 P0 1.819 . S
C26 C27 1.391 . S
C26 C31 1.391 . S
C27 H9 0.941 . S
C27 C26 1.391 . S
C27 C28 1.396 . S
C28 H12 0.939 . S
C28 C27 1.396 . S
C28 C29 1.397 . S
C29 C28 1.397 . S
C29 C30 1.385 . S
C30 H13 0.940 1_554 S
C30 C29 1.385 . S
C30 C31 1.388 . S
C31 H10 0.939 . S
C31 C26 1.391 . S
C31 C30 1.388 . S
P32 O43 1.490 . S
P32 C46 1.812 . S
P32 C52 1.803 . S
P32 C58 1.819 . S
H33 C47 0.941 . S
H34 C48 0.939 . S
H35 C50 0.940 . S
H36 C51 0.940 . S
H37 C53 0.939 . S
H38 C54 0.942 . S
H39 C56 0.940 . S
H40 C57 0.939 . S
H41 C59 0.941 . S
H42 C63 0.939 . S
O43 P32 1.490 . S
H44 C60 0.939 . S
H45 C62 0.940 . S
C46 P32 1.812 . S
C46 C47 1.389 . S
C46 C51 1.391 . S
C47 H33 0.941 . S
C47 C46 1.389 . S
C47 C48 1.397 . S
C48 H34 0.939 . S
C48 C47 1.397 . S
C48 C49 1.378 . S
C49 C48 1.378 . S
C49 C50 1.378 . S
C50 H35 0.940 . S
C50 C49 1.378 . S
C50 C51 1.396 . S
C51 H36 0.940 . S
C51 C46 1.391 . S
C51 C50 1.396 . S
C52 P32 1.803 . S
C52 C53 1.378 . S
C52 C57 1.400 . S
C53 H37 0.939 . S
C53 C52 1.378 . S
C53 C54 1.361 . S
C54 H38 0.942 . S
C54 C53 1.361 . S
C54 C55 1.369 . S
C55 C54 1.369 . S
C55 C56 1.404 . S
C56 H39 0.940 . S
C56 C55 1.404 . S
C56 C57 1.389 . S
C57 H40 0.939 . S
C57 C52 1.400 . S
C57 C56 1.389 . S
C58 P32 1.819 . S
C58 C59 1.391 . S
C58 C63 1.391 . S
C59 H41 0.941 . S
C59 C58 1.391 . S
C59 C60 1.396 . S
C60 H44 0.939 . S
C60 C59 1.396 . S
C60 C61 1.397 . S
C61 C60 1.397 . S
C61 C62 1.385 . S
C62 H45 0.940 . S
C62 C61 1.385 . S
C62 C63 1.388 . S
C63 H42 0.939 . S
C63 C58 1.391 . S
C63 C62 1.388 . S
P64 O75 1.490 . S
P64 C78 1.812 . S
P64 C84 1.803 . S
P64 C90 1.819 . S
H65 C79 0.941 . S
H66 C80 0.939 . S
H67 C82 0.940 . S
H68 C83 0.940 . S
H69 C85 0.939 . S
H70 C86 0.942 . S
H71 C88 0.940 . S
H72 C89 0.939 . S
H73 C91 0.941 . S
H74 C95 0.939 . S
O75 P64 1.490 . S
H76 C92 0.939 . S
H77 C94 0.940 . S
C78 P64 1.812 . S
C78 C79 1.389 1_554 S
C78 C83 1.391 . S
C79 H65 0.941 . S
C79 C78 1.389 1_556 S
C79 C80 1.397 . S
C80 H66 0.939 . S
C80 C79 1.397 . S
C80 C81 1.378 . S
C81 C80 1.378 . S
C81 C82 1.378 1_556 S
C82 H67 0.940 . S
C82 C81 1.378 1_554 S
C82 C83 1.396 . S
C83 H68 0.940 . S
C83 C78 1.391 . S
C83 C82 1.396 . S
C84 P64 1.803 . S
C84 C85 1.378 . S
C84 C89 1.400 . S
C85 H69 0.939 . S
C85 C84 1.378 . S
C85 C86 1.361 . S
C86 H70 0.942 . S
C86 C85 1.361 . S
C86 C87 1.369 . S
C87 C86 1.369 . S
C87 C88 1.404 . S
C88 H71 0.940 . S
C88 C87 1.404 . S
C88 C89 1.389 . S
C89 H72 0.939 . S
C89 C84 1.400 . S
C89 C88 1.389 . S
C90 P64 1.819 . S
C90 C91 1.391 1_655 S
C90 C95 1.391 . S
C91 H73 0.941 . S
C91 C90 1.391 1_455 S
C91 C92 1.396 . S
C92 H76 0.939 . S
C92 C91 1.396 . S
C92 C93 1.397 . S
C93 C92 1.397 . S
C93 C94 1.385 1_455 S
C94 H77 0.940 . S
C94 C93 1.385 1_655 S
C94 C95 1.388 . S
C95 H74 0.939 . S
C95 C90 1.391 . S
C95 C94 1.388 . S
P96 O107 1.490 . S
P96 C110 1.812 . S
P96 C116 1.803 . S
P96 C122 1.819 . S
H97 C111 0.941 . S
H98 C112 0.939 . S
H99 C114 0.940 . S
H100 C115 0.940 . S
H101 C117 0.939 . S
H102 C118 0.942 . S
H103 C120 0.940 . S
H104 C121 0.939 . S
H105 C123 0.941 . S
H106 C127 0.939 . S
O107 P96 1.490 . S
H108 C124 0.939 . S
H109 C126 0.940 . S
C110 P96 1.812 . S
C110 C111 1.389 . S
C110 C115 1.391 . S
C111 H97 0.941 . S
C111 C110 1.389 . S
C111 C112 1.397 . S
C112 H98 0.939 . S
C112 C111 1.397 . S
C112 C113 1.378 . S
C113 C112 1.378 . S
C113 C114 1.378 . S
C114 H99 0.940 . S
C114 C113 1.378 . S
C114 C115 1.396 . S
C115 H100 0.940 . S
C115 C110 1.391 . S
C115 C114 1.396 . S
C116 P96 1.803 . S
C116 C117 1.378 . S
C116 C121 1.400 . S
C117 H101 0.939 . S
C117 C116 1.378 . S
C117 C118 1.361 . S
C118 H102 0.942 . S
C118 C117 1.361 . S
C118 C119 1.369 . S
C119 C118 1.369 . S
C119 C120 1.404 . S
C120 H103 0.940 . S
C120 C119 1.404 . S
C120 C121 1.389 . S
C121 H104 0.939 . S
C121 C116 1.400 . S
C121 C120 1.389 . S
C122 P96 1.819 . S
C122 C123 1.391 . S
C122 C127 1.391 . S
C123 H105 0.941 . S
C123 C122 1.391 . S
C123 C124 1.396 . S
C124 H108 0.939 . S
C124 C123 1.396 . S
C124 C125 1.397 . S
C125 C124 1.397 . S
C125 C126 1.385 . S
C126 H109 0.940 . S
C126 C125 1.385 . S
C126 C127 1.388 . S
C127 H106 0.939 . S
C127 C122 1.391 . S
C127 C126 1.388 . S
P128 O139 1.490 . S
P128 C142 1.812 . S
P128 C148 1.803 . S
P128 C154 1.819 . S
H129 C143 0.941 . S
H130 C144 0.939 . S
H131 C146 0.940 . S
H132 C147 0.940 . S
H133 C149 0.939 . S
H134 C150 0.942 . S
H135 C152 0.940 . S
H136 C153 0.939 . S
H137 C155 0.941 . S
H138 C159 0.939 . S
O139 P128 1.490 . S
H140 C156 0.939 . S
H141 C158 0.940 . S
C142 P128 1.812 . S
C142 C143 1.389 . S
C142 C147 1.391 . S
C143 H129 0.941 . S
C143 C142 1.389 . S
C143 C144 1.397 . S
C144 H130 0.939 . S
C144 C143 1.397 . S
C144 C145 1.378 1_565 S
C145 C144 1.378 1_545 S
C145 C146 1.378 . S
C146 H131 0.940 . S
C146 C145 1.378 . S
C146 C147 1.396 1_545 S
C147 H132 0.940 . S
C147 C142 1.391 . S
C147 C146 1.396 1_565 S
C148 P128 1.803 . S
C148 C149 1.378 . S
C148 C153 1.400 . S
C149 H133 0.939 . S
C149 C148 1.378 . S
C149 C150 1.361 . S
C150 H134 0.942 . S
C150 C149 1.361 . S
C150 C151 1.369 . S
C151 C150 1.369 . S
C151 C152 1.404 . S
C152 H135 0.940 . S
C152 C151 1.404 . S
C152 C153 1.389 . S
C153 H136 0.939 . S
C153 C148 1.400 . S
C153 C152 1.389 . S
C154 P128 1.819 . S
C154 C155 1.391 . S
C154 C159 1.391 . S
C155 H137 0.941 . S
C155 C154 1.391 . S
C155 C156 1.396 . S
C156 H140 0.939 . S
C156 C155 1.396 . S
C156 C157 1.397 . S
C157 C156 1.397 . S
C157 C158 1.385 1_455 S
C158 H141 0.940 . S
C158 C157 1.385 1_655 S
C158 C159 1.388 1_655 S
C159 H138 0.939 . S
C159 C154 1.391 . S
C159 C158 1.388 1_455 S
P160 O171 1.490 . S
P160 C174 1.812 . S
P160 C180 1.803 . S
P160 C186 1.819 . S
H161 C175 0.941 . S
H162 C176 0.939 . S
H163 C178 0.940 . S
H164 C179 0.940 . S
H165 C181 0.939 . S
H166 C182 0.942 . S
H167 C184 0.940 . S
H168 C185 0.939 . S
H169 C187 0.941 . S
H170 C191 0.939 . S
O171 P160 1.490 . S
H172 C188 0.939 . S
H173 C190 0.940 . S
C174 P160 1.812 . S
C174 C175 1.389 . S
C174 C179 1.391 . S
C175 H161 0.941 . S
C175 C174 1.389 . S
C175 C176 1.397 . S
C176 H162 0.939 . S
C176 C175 1.397 . S
C176 C177 1.378 . S
C177 C176 1.378 . S
C177 C178 1.378 . S
C178 H163 0.940 . S
C178 C177 1.378 . S
C178 C179 1.396 . S
C179 H164 0.940 . S
C179 C174 1.391 . S
C179 C178 1.396 . S
C180 P160 1.803 . S
C180 C181 1.378 . S
C180 C185 1.400 . S
C181 H165 0.939 . S
C181 C180 1.378 . S
C181 C182 1.361 . S
C182 H166 0.942 . S
C182 C181 1.361 . S
C182 C183 1.369 . S
C183 C182 1.369 . S
C183 C184 1.404 . S
C184 H167 0.940 . S
C184 C183 1.404 . S
C184 C185 1.389 . S
C185 H168 0.939 . S
C185 C180 1.400 . S
C185 C184 1.389 . S
C186 P160 1.819 . S
C186 C187 1.391 . S
C186 C191 1.391 . S
C187 H169 0.941 . S
C187 C186 1.391 . S
C187 C188 1.396 . S
C188 H172 0.939 . S
C188 C187 1.396 . S
C188 C189 1.397 . S
C189 C188 1.397 . S
C189 C190 1.385 . S
C190 H173 0.940 . S
C190 C189 1.385 . S
C190 C191 1.388 . S
C191 H170 0.939 . S
C191 C186 1.391 . S
C191 C190 1.388 . S
P192 O203 1.490 . S
P192 C206 1.812 . S
P192 C212 1.803 . S
P192 C218 1.819 . S
H193 C207 0.941 . S
H194 C208 0.939 . S
H195 C210 0.940 . S
H196 C211 0.940 . S
H197 C213 0.939 . S
H198 C214 0.942 . S
H199 C216 0.940 . S
H200 C217 0.939 . S
H201 C219 0.941 . S
H202 C223 0.939 . S
O203 P192 1.490 . S
H204 C220 0.939 . S
H205 C222 0.940 . S
C206 P192 1.812 . S
C206 C207 1.389 1_655 S
C206 C211 1.391 . S
C207 H193 0.941 . S
C207 C206 1.389 1_455 S
C207 C208 1.397 . S
C208 H194 0.939 . S
C208 C207 1.397 . S
C208 C209 1.378 . S
C209 C208 1.378 . S
C209 C210 1.378 1_455 S
C210 H195 0.940 . S
C210 C209 1.378 1_655 S
C210 C211 1.396 . S
C211 H196 0.940 . S
C211 C206 1.391 . S
C211 C210 1.396 . S
C212 P192 1.803 . S
C212 C213 1.378 . S
C212 C217 1.400 . S
C213 H197 0.939 . S
C213 C212 1.378 . S
C213 C214 1.361 . S
C214 H198 0.942 . S
C214 C213 1.361 . S
C214 C215 1.369 . S
C215 C214 1.369 . S
C215 C216 1.404 . S
C216 H199 0.940 . S
C216 C215 1.404 . S
C216 C217 1.389 . S
C217 H200 0.939 . S
C217 C212 1.400 . S
C217 C216 1.389 . S
C218 P192 1.819 . S
C218 C219 1.391 . S
C218 C223 1.391 . S
C219 H201 0.941 . S
C219 C218 1.391 . S
C219 C220 1.396 . S
C220 H204 0.939 . S
C220 C219 1.396 . S
C220 C221 1.397 . S
C221 C220 1.397 . S
C221 C222 1.385 . S
C222 H205 0.940 . S
C222 C221 1.385 . S
C222 C223 1.388 . S
C223 H202 0.939 . S
C223 C218 1.391 . S
C223 C222 1.388 . S
P224 O235 1.490 . S
P224 C238 1.812 . S
P224 C244 1.803 . S
P224 C250 1.819 . S
H225 C239 0.941 . S
H226 C240 0.939 . S
H227 C242 0.940 . S
H228 C243 0.940 . S
H229 C245 0.939 . S
H230 C246 0.942 . S
H231 C248 0.940 . S
H232 C249 0.939 . S
H233 C251 0.941 . S
H234 C255 0.939 . S
O235 P224 1.490 . S
H236 C252 0.939 . S
H237 C254 0.940 . S
C238 P224 1.812 . S
C238 C239 1.389 . S
C238 C243 1.391 . S
C239 H225 0.941 . S
C239 C238 1.389 . S
C239 C240 1.397 . S
C240 H226 0.939 . S
C240 C239 1.397 . S
C240 C241 1.378 . S
C241 C240 1.378 . S
C241 C242 1.378 . S
C242 H227 0.940 . S
C242 C241 1.378 . S
C242 C243 1.396 . S
C243 H228 0.940 . S
C243 C238 1.391 . S
C243 C242 1.396 . S
C244 P224 1.803 . S
C244 C245 1.378 . S
C244 C249 1.400 . S
C245 H229 0.939 . S
C245 C244 1.378 . S
C245 C246 1.361 . S
C246 H230 0.942 . S
C246 C245 1.361 . S
C246 C247 1.369 . S
C247 C246 1.369 . S
C247 C248 1.404 . S
C248 H231 0.940 . S
C248 C247 1.404 . S
C248 C249 1.389 . S
C249 H232 0.939 . S
C249 C244 1.400 . S
C249 C248 1.389 . S
C250 P224 1.819 . S
C250 C251 1.391 . S
C250 C255 1.391 . S
C251 H233 0.941 . S
C251 C250 1.391 . S
C251 C252 1.396 . S
C252 H236 0.939 . S
C252 C251 1.396 . S
C252 C253 1.397 . S
C253 C252 1.397 . S
C253 C254 1.385 . S
C254 H237 0.940 . S
C254 C253 1.385 . S
C254 C255 1.388 . S
C255 H234 0.939 . S
C255 C250 1.391 . S
C255 C254 1.388 . S
P256 O267 1.490 . S
P256 C270 1.812 . S
P256 C276 1.803 . S
P256 C282 1.819 . S
H257 C271 0.941 . S
H258 C272 0.939 . S
H259 C274 0.940 . S
H260 C275 0.940 . S
H261 C277 0.939 . S
H262 C278 0.942 . S
H263 C280 0.940 . S
H264 C281 0.939 . S
H265 C283 0.941 . S
H266 C287 0.939 . S
O267 P256 1.490 . S
H268 C284 0.939 . S
H269 C286 0.940 . S
C270 P256 1.812 . S
C270 C271 1.389 . S
C270 C275 1.391 . S
C271 H257 0.941 . S
C271 C270 1.389 . S
C271 C272 1.397 . S
C272 H258 0.939 . S
C272 C271 1.397 . S
C272 C273 1.378 . S
C273 C272 1.378 . S
C273 C274 1.378 . S
C274 H259 0.940 . S
C274 C273 1.378 . S
C274 C275 1.396 . S
C275 H260 0.940 . S
C275 C270 1.391 . S
C275 C274 1.396 . S
C276 P256 1.803 . S
C276 C277 1.378 . S
C276 C281 1.400 . S
C277 H261 0.939 . S
C277 C276 1.378 . S
C277 C278 1.361 . S
C278 H262 0.942 . S
C278 C277 1.361 . S
C278 C279 1.369 . S
C279 C278 1.369 . S
C279 C280 1.404 . S
C280 H263 0.940 . S
C280 C279 1.404 . S
C280 C281 1.389 . S
C281 H264 0.939 . S
C281 C276 1.400 . S
C281 C280 1.389 . S
C282 P256 1.819 . S
C282 C283 1.391 . S
C282 C287 1.391 . S
C283 H265 0.941 . S
C283 C282 1.391 . S
C283 C284 1.396 . S
C284 H268 0.939 . S
C284 C283 1.396 . S
C284 C285 1.397 . S
C285 C284 1.397 . S
C285 C286 1.385 . S
C286 H269 0.940 . S
C286 C285 1.385 . S
C286 C287 1.388 . S
C287 H266 0.939 . S
C287 C282 1.391 . S
C287 C286 1.388 . S
P288 O299 1.490 . S
P288 C302 1.812 . S
P288 C308 1.803 . S
P288 C314 1.819 . S
H289 C303 0.941 . S
H290 C304 0.939 . S
H291 C306 0.940 . S
H292 C307 0.940 . S
H293 C309 0.939 . S
H294 C310 0.942 . S
H295 C312 0.940 . S
H296 C313 0.939 . S
H297 C315 0.941 . S
H298 C319 0.939 . S
O299 P288 1.490 . S
H300 C316 0.939 . S
H301 C318 0.940 . S
C302 P288 1.812 . S
C302 C303 1.389 . S
C302 C307 1.391 . S
C303 H289 0.941 . S
C303 C302 1.389 . S
C303 C304 1.397 . S
C304 H290 0.939 . S
C304 C303 1.397 . S
C304 C305 1.378 . S
C305 C304 1.378 . S
C305 C306 1.378 . S
C306 H291 0.940 . S
C306 C305 1.378 . S
C306 C307 1.396 . S
C307 H292 0.940 . S
C307 C302 1.391 . S
C307 C306 1.396 . S
C308 P288 1.803 . S
C308 C309 1.378 1_565 S
C308 C313 1.400 . S
C309 H293 0.939 . S
C309 C308 1.378 1_545 S
C309 C310 1.361 . S
C310 H294 0.942 . S
C310 C309 1.361 . S
C310 C311 1.369 . S
C311 C310 1.369 . S
C311 C312 1.404 1_545 S
C312 H295 0.940 . S
C312 C311 1.404 1_565 S
C312 C313 1.389 . S
C313 H296 0.939 . S
C313 C308 1.400 . S
C313 C312 1.389 . S
C314 P288 1.819 . S
C314 C315 1.391 . S
C314 C319 1.391 . S
C315 H297 0.941 . S
C315 C314 1.391 . S
C315 C316 1.396 . S
C316 H300 0.939 . S
C316 C315 1.396 . S
C316 C317 1.397 . S
C317 C316 1.397 . S
C317 C318 1.385 . S
C318 H301 0.940 . S
C318 C317 1.385 . S
C318 C319 1.388 . S
C319 H298 0.939 . S
C319 C314 1.391 . S
C319 C318 1.388 . S
P320 O331 1.490 . S
P320 C334 1.812 . S
P320 C340 1.803 . S
P320 C346 1.819 . S
H321 C335 0.941 . S
H322 C336 0.939 . S
H323 C338 0.940 . S
H324 C339 0.940 . S
H325 C341 0.939 . S
H326 C342 0.942 . S
H327 C344 0.940 . S
H328 C345 0.939 . S
H329 C347 0.941 . S
H330 C351 0.939 . S
O331 P320 1.490 . S
H332 C348 0.939 . S
H333 C350 0.940 . S
C334 P320 1.812 . S
C334 C335 1.389 . S
C334 C339 1.391 . S
C335 H321 0.941 . S
C335 C334 1.389 . S
C335 C336 1.397 . S
C336 H322 0.939 . S
C336 C335 1.397 . S
C336 C337 1.378 . S
C337 C336 1.378 . S
C337 C338 1.378 . S
C338 H323 0.940 . S
C338 C337 1.378 . S
C338 C339 1.396 . S
C339 H324 0.940 . S
C339 C334 1.391 . S
C339 C338 1.396 . S
C340 P320 1.803 . S
C340 C341 1.378 . S
C340 C345 1.400 . S
C341 H325 0.939 . S
C341 C340 1.378 . S
C341 C342 1.361 . S
C342 H326 0.942 . S
C342 C341 1.361 . S
C342 C343 1.369 . S
C343 C342 1.369 . S
C343 C344 1.404 . S
C344 H327 0.940 . S
C344 C343 1.404 . S
C344 C345 1.389 . S
C345 H328 0.939 . S
C345 C340 1.400 . S
C345 C344 1.389 . S
C346 P320 1.819 . S
C346 C347 1.391 . S
C346 C351 1.391 . S
C347 H329 0.941 . S
C347 C346 1.391 . S
C347 C348 1.396 . S
C348 H332 0.939 . S
C348 C347 1.396 . S
C348 C349 1.397 . S
C349 C348 1.397 . S
C349 C350 1.385 . S
C350 H333 0.940 . S
C350 C349 1.385 . S
C350 C351 1.388 . S
C351 H330 0.939 . S
C351 C346 1.391 . S
C351 C350 1.388 . S
P352 O363 1.490 . S
P352 C366 1.812 . S
P352 C372 1.803 . S
P352 C378 1.819 . S
H353 C367 0.941 . S
H354 C368 0.939 . S
H355 C370 0.940 . S
H356 C371 0.940 . S
H357 C373 0.939 . S
H358 C374 0.942 . S
H359 C376 0.940 . S
H360 C377 0.939 . S
H361 C379 0.941 . S
H362 C383 0.939 . S
O363 P352 1.490 . S
H364 C380 0.939 . S
H365 C382 0.940 . S
C366 P352 1.812 . S
C366 C367 1.389 . S
C366 C371 1.391 . S
C367 H353 0.941 . S
C367 C366 1.389 . S
C367 C368 1.397 . S
C368 H354 0.939 . S
C368 C367 1.397 . S
C368 C369 1.378 . S
C369 C368 1.378 . S
C369 C370 1.378 . S
C370 H355 0.940 . S
C370 C369 1.378 . S
C370 C371 1.396 . S
C371 H356 0.940 . S
C371 C366 1.391 . S
C371 C370 1.396 . S
C372 P352 1.803 . S
C372 C373 1.378 . S
C372 C377 1.400 . S
C373 H357 0.939 . S
C373 C372 1.378 . S
C373 C374 1.361 . S
C374 H358 0.942 . S
C374 C373 1.361 . S
C374 C375 1.369 . S
C375 C374 1.369 . S
C375 C376 1.404 . S
C376 H359 0.940 . S
C376 C375 1.404 . S
C376 C377 1.389 . S
C377 H360 0.939 . S
C377 C372 1.400 . S
C377 C376 1.389 . S
C378 P352 1.819 . S
C378 C379 1.391 . S
C378 C383 1.391 . S
C379 H361 0.941 . S
C379 C378 1.391 . S
C379 C380 1.396 . S
C380 H364 0.939 . S
C380 C379 1.396 . S
C380 C381 1.397 . S
C381 C380 1.397 . S
C381 C382 1.385 . S
C382 H365 0.940 . S
C382 C381 1.385 . S
C382 C383 1.388 . S
C383 H362 0.939 . S
C383 C378 1.391 . S
C383 C382 1.388 . S
P384 O395 1.490 . S
P384 C398 1.812 . S
P384 C404 1.803 . S
P384 C410 1.819 . S
H385 C399 0.941 . S
H386 C400 0.939 . S
H387 C402 0.940 . S
H388 C403 0.940 . S
H389 C405 0.939 . S
H390 C406 0.942 . S
H391 C408 0.940 . S
H392 C409 0.939 . S
H393 C411 0.941 . S
H394 C415 0.939 . S
O395 P384 1.490 . S
H396 C412 0.939 . S
H397 C414 0.940 . S
C398 P384 1.812 . S
C398 C399 1.389 . S
C398 C403 1.391 . S
C399 H385 0.941 . S
C399 C398 1.389 . S
C399 C400 1.397 . S
C400 H386 0.939 . S
C400 C399 1.397 . S
C400 C401 1.378 . S
C401 C400 1.378 . S
C401 C402 1.378 . S
C402 H387 0.940 . S
C402 C401 1.378 . S
C402 C403 1.396 . S
C403 H388 0.940 . S
C403 C398 1.391 . S
C403 C402 1.396 . S
C404 P384 1.803 . S
C404 C405 1.378 . S
C404 C409 1.400 . S
C405 H389 0.939 . S
C405 C404 1.378 . S
C405 C406 1.361 . S
C406 H390 0.942 . S
C406 C405 1.361 . S
C406 C407 1.369 . S
C407 C406 1.369 . S
C407 C408 1.404 . S
C408 H391 0.940 . S
C408 C407 1.404 . S
C408 C409 1.389 . S
C409 H392 0.939 . S
C409 C404 1.400 . S
C409 C408 1.389 . S
C410 P384 1.819 . S
C410 C411 1.391 . S
C410 C415 1.391 . S
C411 H393 0.941 . S
C411 C410 1.391 . S
C411 C412 1.396 . S
C412 H396 0.939 . S
C412 C411 1.396 . S
C412 C413 1.397 . S
C413 C412 1.397 . S
C413 C414 1.385 . S
C414 H397 0.940 . S
C414 C413 1.385 . S
C414 C415 1.388 . S
C415 H394 0.939 . S
C415 C410 1.391 . S
C415 C414 1.388 . S
P416 O427 1.490 . S
P416 C430 1.812 . S
P416 C436 1.803 . S
P416 C442 1.819 . S
H417 C431 0.941 . S
H418 C432 0.939 . S
H419 C434 0.940 . S
H420 C435 0.940 . S
H421 C437 0.939 . S
H422 C438 0.942 . S
H423 C440 0.940 . S
H424 C441 0.939 . S
H425 C443 0.941 . S
H426 C447 0.939 . S
O427 P416 1.490 . S
H428 C444 0.939 . S
H429 C446 0.940 . S
C430 P416 1.812 . S
C430 C431 1.389 . S
C430 C435 1.391 . S
C431 H417 0.941 . S
C431 C430 1.389 . S
C431 C432 1.397 . S
C432 H418 0.939 . S
C432 C431 1.397 . S
C432 C433 1.378 . S
C433 C432 1.378 . S
C433 C434 1.378 . S
C434 H419 0.940 . S
C434 C433 1.378 . S
C434 C435 1.396 . S
C435 H420 0.940 . S
C435 C430 1.391 . S
C435 C434 1.396 . S
C436 P416 1.803 . S
C436 C437 1.378 . S
C436 C441 1.400 . S
C437 H421 0.939 . S
C437 C436 1.378 . S
C437 C438 1.361 . S
C438 H422 0.942 . S
C438 C437 1.361 . S
C438 C439 1.369 1_556 S
C439 C438 1.369 1_554 S
C439 C440 1.404 . S
C440 H423 0.940 . S
C440 C439 1.404 . S
C440 C441 1.389 1_554 S
C441 H424 0.939 . S
C441 C436 1.400 . S
C441 C440 1.389 1_556 S
C442 P416 1.819 . S
C442 C443 1.391 . S
C442 C447 1.391 . S
C443 H425 0.941 . S
C443 C442 1.391 . S
C443 C444 1.396 . S
C444 H428 0.939 . S
C444 C443 1.396 . S
C444 C445 1.397 . S
C445 C444 1.397 . S
C445 C446 1.385 . S
C446 H429 0.940 . S
C446 C445 1.385 . S
C446 C447 1.388 . S
C447 H426 0.939 . S
C447 C442 1.391 . S
C447 C446 1.388 . S
P448 O459 1.490 . S
P448 C462 1.812 . S
P448 C468 1.803 . S
P448 C474 1.819 . S
H449 C463 0.941 . S
H450 C464 0.939 . S
H451 C466 0.940 . S
H452 C467 0.940 . S
H453 C469 0.939 . S
H454 C470 0.942 . S
H455 C472 0.940 . S
H456 C473 0.939 . S
H457 C475 0.941 . S
H458 C479 0.939 . S
O459 P448 1.490 . S
H460 C476 0.939 . S
H461 C478 0.940 . S
C462 P448 1.812 . S
C462 C463 1.389 . S
C462 C467 1.391 . S
C463 H449 0.941 . S
C463 C462 1.389 . S
C463 C464 1.397 . S
C464 H450 0.939 . S
C464 C463 1.397 . S
C464 C465 1.378 . S
C465 C464 1.378 . S
C465 C466 1.378 . S
C466 H451 0.940 . S
C466 C465 1.378 . S
C466 C467 1.396 . S
C467 H452 0.940 . S
C467 C462 1.391 . S
C467 C466 1.396 . S
C468 P448 1.803 . S
C468 C469 1.378 . S
C468 C473 1.400 . S
C469 H453 0.939 . S
C469 C468 1.378 . S
C469 C470 1.361 . S
C470 H454 0.942 . S
C470 C469 1.361 . S
C470 C471 1.369 . S
C471 C470 1.369 . S
C471 C472 1.404 . S
C472 H455 0.940 . S
C472 C471 1.404 . S
C472 C473 1.389 . S
C473 H456 0.939 . S
C473 C468 1.400 . S
C473 C472 1.389 . S
C474 P448 1.819 . S
C474 C475 1.391 . S
C474 C479 1.391 . S
C475 H457 0.941 . S
C475 C474 1.391 . S
C475 C476 1.396 . S
C476 H460 0.939 . S
C476 C475 1.396 . S
C476 C477 1.397 . S
C477 C476 1.397 . S
C477 C478 1.385 . S
C478 H461 0.940 . S
C478 C477 1.385 . S
C478 C479 1.388 . S
C479 H458 0.939 . S
C479 C474 1.391 . S
C479 C478 1.388 . S
P480 O491 1.490 . S
P480 C494 1.812 . S
P480 C500 1.803 . S
P480 C506 1.819 . S
H481 C495 0.941 . S
H482 C496 0.939 . S
H483 C498 0.940 . S
H484 C499 0.940 . S
H485 C501 0.939 . S
H486 C502 0.942 . S
H487 C504 0.940 . S
H488 C505 0.939 . S
H489 C507 0.941 . S
H490 C511 0.939 . S
O491 P480 1.490 . S
H492 C508 0.939 . S
H493 C510 0.940 . S
C494 P480 1.812 . S
C494 C495 1.389 . S
C494 C499 1.391 . S
C495 H481 0.941 . S
C495 C494 1.389 . S
C495 C496 1.397 . S
C496 H482 0.939 . S
C496 C495 1.397 . S
C496 C497 1.378 . S
C497 C496 1.378 . S
C497 C498 1.378 . S
C498 H483 0.940 . S
C498 C497 1.378 . S
C498 C499 1.396 . S
C499 H484 0.940 . S
C499 C494 1.391 . S
C499 C498 1.396 . S
C500 P480 1.803 . S
C500 C501 1.378 1_556 S
C500 C505 1.400 . S
C501 H485 0.939 . S
C501 C500 1.378 1_554 S
C501 C502 1.361 . S
C502 H486 0.942 . S
C502 C501 1.361 . S
C502 C503 1.369 . S
C503 C502 1.369 . S
C503 C504 1.404 1_554 S
C504 H487 0.940 . S
C504 C503 1.404 1_556 S
C504 C505 1.389 . S
C505 H488 0.939 . S
C505 C500 1.400 . S
C505 C504 1.389 . S
C506 P480 1.819 . S
C506 C507 1.391 1_545 S
C506 C511 1.391 . S
C507 H489 0.941 . S
C507 C506 1.391 1_565 S
C507 C508 1.396 . S
C508 H492 0.939 . S
C508 C507 1.396 . S
C508 C509 1.397 . S
C509 C508 1.397 . S
C509 C510 1.385 1_565 S
C510 H493 0.940 . S
C510 C509 1.385 1_545 S
C510 C511 1.388 . S
C511 H490 0.939 . S
C511 C506 1.391 . S
C511 C510 1.388 . S
Li512 N529 1.990 . S
Li512 O572 1.956 . S
Li512 O573 1.970 1_556 S
Li512 O574 1.961 . S
Li513 N537 1.990 . S
Li513 O572 1.970 1_554 S
Li513 O573 1.956 . S
Li513 O575 1.961 . S
Li514 N559 1.990 . S
Li514 O572 1.961 . S
Li514 O574 1.956 . S
Li514 O575 1.970 1_556 S
Li515 N565 1.990 . S
Li515 O573 1.961 . S
Li515 O574 1.970 1_554 S
Li515 O575 1.956 . S
C516 C518 1.348 1_556 S
C516 C519 1.356 . S
C516 O572 1.325 . S
N517 C520 1.314 1_556 S
N517 C521 1.279 . S
C518 C516 1.348 1_554 S
C518 C520 1.353 . S
C518 H576 0.929 . S
C519 C516 1.356 . S
C519 C521 1.358 . S
C519 H577 0.930 . S
C520 N517 1.314 1_554 S
C520 C518 1.353 . S
C520 H578 0.930 . S
C521 N517 1.279 . S
C521 C519 1.358 . S
C521 H579 0.930 . S
C522 C525 1.348 . S
C522 C526 1.356 . S
C522 O573 1.325 . S
C523 N524 1.279 . S
C523 C526 1.358 . S
C523 H580 0.930 . S
N524 C523 1.279 . S
N524 C527 1.314 . S
C525 C522 1.348 . S
C525 C527 1.353 . S
C525 H581 0.929 . S
C526 C522 1.356 . S
C526 C523 1.358 . S
C526 H582 0.930 . S
C527 N524 1.314 . S
C527 C525 1.353 . S
C527 H583 0.930 . S
C528 N529 1.314 . S
C528 C533 1.353 . S
C528 H534 0.930 . S
N529 Li512 1.990 . S
N529 C528 1.314 . S
N529 C531 1.279 . S
C530 C531 1.358 . S
C530 C532 1.356 . S
C530 H584 0.930 . S
C531 N529 1.279 . S
C531 C530 1.358 . S
C531 H535 0.930 . S
C532 C530 1.356 . S
C532 C533 1.348 . S
C533 C528 1.353 . S
C533 C532 1.348 . S
C533 H585 0.929 . S
H534 C528 0.930 . S
H535 C531 0.930 . S
C536 N537 1.314 . S
C536 C538 1.353 . S
C536 H542 0.930 . S
N537 Li513 1.990 . S
N537 C536 1.314 . S
N537 C540 1.279 . S
C538 C536 1.353 . S
C538 C541 1.348 . S
C538 H586 0.929 . S
C539 C540 1.358 . S
C539 C541 1.356 . S
C539 H587 0.930 . S
C540 N537 1.279 . S
C540 C539 1.358 . S
C540 H543 0.930 . S
C541 C538 1.348 . S
C541 C539 1.356 . S
H542 C536 0.930 . S
H543 C540 0.930 . S
C544 C546 1.348 . S
C544 C547 1.356 . S
C544 O574 1.325 . S
N545 C548 1.314 . S
N545 C549 1.279 . S
C546 C544 1.348 . S
C546 C548 1.353 . S
C546 H588 0.929 . S
C547 C544 1.356 . S
C547 C549 1.358 . S
C547 H589 0.930 . S
C548 N545 1.314 . S
C548 C546 1.353 . S
C548 H590 0.930 . S
C549 N545 1.279 . S
C549 C547 1.358 . S
C549 H591 0.930 . S
C550 C551 1.348 1_554 S
C550 C552 1.356 . S
C550 O575 1.325 . S
C551 C550 1.348 1_556 S
C551 C553 1.353 . S
C551 H592 0.929 . S
C552 C550 1.356 . S
C552 C554 1.358 . S
C552 H593 0.930 . S
C553 C551 1.353 . S
C553 N555 1.314 1_556 S
C553 H594 0.930 . S
C554 C552 1.358 . S
C554 N555 1.279 . S
C554 H595 0.930 . S
N555 C553 1.314 1_554 S
N555 C554 1.279 . S
C556 C558 1.353 . S
C556 N559 1.314 . S
C556 H562 0.930 . S
C557 N559 1.279 . S
C557 C560 1.358 . S
C557 H563 0.930 . S
C558 C556 1.353 . S
C558 C561 1.348 . S
C558 H596 0.929 . S
N559 Li514 1.990 . S
N559 C556 1.314 . S
N559 C557 1.279 . S
C560 C557 1.358 . S
C560 C561 1.356 . S
C560 H597 0.930 . S
C561 C558 1.348 . S
C561 C560 1.356 . S
H562 C556 0.930 . S
H563 C557 0.930 . S
C564 N565 1.314 . S
C564 C566 1.353 . S
C564 H570 0.930 . S
N565 Li515 1.990 . S
N565 C564 1.314 . S
N565 C568 1.279 . S
C566 C564 1.353 . S
C566 C569 1.348 . S
C566 H598 0.929 . S
C567 C568 1.358 . S
C567 C569 1.356 . S
C567 H599 0.930 . S
C568 N565 1.279 . S
C568 C567 1.358 . S
C568 H571 0.930 . S
C569 C566 1.348 . S
C569 C567 1.356 . S
H570 C564 0.930 . S
H571 C568 0.930 . S
O572 Li512 1.956 . S
O572 Li513 1.970 1_556 S
O572 Li514 1.961 . S
O572 C516 1.325 . S
O573 Li512 1.970 1_554 S
O573 Li513 1.956 . S
O573 Li515 1.961 . S
O573 C522 1.325 . S
O574 Li512 1.961 . S
O574 Li514 1.956 . S
O574 Li515 1.970 1_556 S
O574 C544 1.325 . S
O575 Li513 1.961 . S
O575 Li514 1.970 1_554 S
O575 Li515 1.956 . S
O575 C550 1.325 . S
H576 C518 0.929 . S
H577 C519 0.930 . S
H578 C520 0.930 . S
H579 C521 0.930 . S
H580 C523 0.930 . S
H581 C525 0.929 . S
H582 C526 0.930 . S
H583 C527 0.930 . S
H584 C530 0.930 . S
H585 C533 0.929 . S
H586 C538 0.929 . S
H587 C539 0.930 . S
H588 C546 0.929 . S
H589 C547 0.930 . S
H590 C548 0.930 . S
H591 C549 0.930 . S
H592 C551 0.929 . S
H593 C552 0.930 . S
H594 C553 0.930 . S
H595 C554 0.930 . S
H596 C558 0.929 . S
H597 C560 0.930 . S
H598 C566 0.929 . S
H599 C567 0.930 . S
Li600 N617 1.990 . S
Li600 O660 1.956 . S
Li600 O661 1.970 . S
Li600 O662 1.961 . S
Li601 N625 1.990 . S
Li601 O660 1.970 . S
Li601 O661 1.956 . S
Li601 O663 1.961 . S
Li602 N647 1.990 . S
Li602 O660 1.961 . S
Li602 O662 1.956 . S
Li602 O663 1.970 . S
Li603 N653 1.990 . S
Li603 O661 1.961 . S
Li603 O662 1.970 . S
Li603 O663 1.956 . S
C604 C606 1.348 . S
C604 C607 1.356 . S
C604 O660 1.325 . S
N605 C608 1.314 . S
N605 C609 1.279 . S
C606 C604 1.348 . S
C606 C608 1.353 . S
C606 H664 0.929 . S
C607 C604 1.356 . S
C607 C609 1.358 . S
C607 H665 0.930 . S
C608 N605 1.314 . S
C608 C606 1.353 . S
C608 H666 0.930 . S
C609 N605 1.279 . S
C609 C607 1.358 . S
C609 H667 0.930 . S
C610 C613 1.348 . S
C610 C614 1.356 . S
C610 O661 1.325 . S
C611 N612 1.279 . S
C611 C614 1.358 . S
C611 H668 0.930 . S
N612 C611 1.279 . S
N612 C615 1.314 . S
C613 C610 1.348 . S
C613 C615 1.353 . S
C613 H669 0.929 . S
C614 C610 1.356 . S
C614 C611 1.358 . S
C614 H670 0.930 . S
C615 N612 1.314 . S
C615 C613 1.353 . S
C615 H671 0.930 . S
C616 N617 1.314 . S
C616 C621 1.353 . S
C616 H622 0.930 . S
N617 Li600 1.990 . S
N617 C616 1.314 . S
N617 C619 1.279 . S
C618 C619 1.358 . S
C618 C620 1.356 . S
C618 H672 0.930 . S
C619 N617 1.279 . S
C619 C618 1.358 . S
C619 H623 0.930 . S
C620 C618 1.356 . S
C620 C621 1.348 . S
C621 C616 1.353 . S
C621 C620 1.348 . S
C621 H673 0.929 . S
H622 C616 0.930 . S
H623 C619 0.930 . S
C624 N625 1.314 . S
C624 C626 1.353 . S
C624 H630 0.930 . S
N625 Li601 1.990 . S
N625 C624 1.314 . S
N625 C628 1.279 . S
C626 C624 1.353 . S
C626 C629 1.348 . S
C626 H674 0.929 . S
C627 C628 1.358 . S
C627 C629 1.356 . S
C627 H675 0.930 . S
C628 N625 1.279 . S
C628 C627 1.358 . S
C628 H631 0.930 . S
C629 C626 1.348 . S
C629 C627 1.356 . S
H630 C624 0.930 . S
H631 C628 0.930 . S
C632 C634 1.348 . S
C632 C635 1.356 . S
C632 O662 1.325 . S
N633 C636 1.314 . S
N633 C637 1.279 . S
C634 C632 1.348 . S
C634 C636 1.353 . S
C634 H676 0.929 . S
C635 C632 1.356 . S
C635 C637 1.358 . S
C635 H677 0.930 . S
C636 N633 1.314 . S
C636 C634 1.353 . S
C636 H678 0.930 . S
C637 N633 1.279 . S
C637 C635 1.358 . S
C637 H679 0.930 . S
C638 C639 1.348 . S
C638 C640 1.356 . S
C638 O663 1.325 . S
C639 C638 1.348 . S
C639 C641 1.353 . S
C639 H680 0.929 . S
C640 C638 1.356 . S
C640 C642 1.358 . S
C640 H681 0.930 . S
C641 C639 1.353 . S
C641 N643 1.314 . S
C641 H682 0.930 . S
C642 C640 1.358 . S
C642 N643 1.279 . S
C642 H683 0.930 . S
N643 C641 1.314 . S
N643 C642 1.279 . S
C644 C646 1.353 . S
C644 N647 1.314 . S
C644 H650 0.930 . S
C645 N647 1.279 . S
C645 C648 1.358 . S
C645 H651 0.930 . S
C646 C644 1.353 . S
C646 C649 1.348 . S
C646 H684 0.929 . S
N647 Li602 1.990 . S
N647 C644 1.314 . S
N647 C645 1.279 . S
C648 C645 1.358 . S
C648 C649 1.356 . S
C648 H685 0.930 . S
C649 C646 1.348 . S
C649 C648 1.356 . S
H650 C644 0.930 . S
H651 C645 0.930 . S
C652 N653 1.314 . S
C652 C654 1.353 . S
C652 H658 0.930 . S
N653 Li603 1.990 . S
N653 C652 1.314 . S
N653 C656 1.279 . S
C654 C652 1.353 . S
C654 C657 1.348 . S
C654 H686 0.929 . S
C655 C656 1.358 . S
C655 C657 1.356 . S
C655 H687 0.930 . S
C656 N653 1.279 . S
C656 C655 1.358 . S
C656 H659 0.930 . S
C657 C654 1.348 . S
C657 C655 1.356 . S
H658 C652 0.930 . S
H659 C656 0.930 . S
O660 Li600 1.956 . S
O660 Li601 1.970 . S
O660 Li602 1.961 . S
O660 C604 1.325 . S
O661 Li600 1.970 . S
O661 Li601 1.956 . S
O661 Li603 1.961 . S
O661 C610 1.325 . S
O662 Li600 1.961 . S
O662 Li602 1.956 . S
O662 Li603 1.970 . S
O662 C632 1.325 . S
O663 Li601 1.961 . S
O663 Li602 1.970 . S
O663 Li603 1.956 . S
O663 C638 1.325 . S
H664 C606 0.929 . S
H665 C607 0.930 . S
H666 C608 0.930 . S
H667 C609 0.930 . S
H668 C611 0.930 . S
H669 C613 0.929 . S
H670 C614 0.930 . S
H671 C615 0.930 . S
H672 C618 0.930 . S
H673 C621 0.929 . S
H674 C626 0.929 . S
H675 C627 0.930 . S
H676 C634 0.929 . S
H677 C635 0.930 . S
H678 C636 0.930 . S
H679 C637 0.930 . S
H680 C639 0.929 . S
H681 C640 0.930 . S
H682 C641 0.930 . S
H683 C642 0.930 . S
H684 C646 0.929 . S
H685 C648 0.930 . S
H686 C654 0.929 . S
H687 C655 0.930 . S
Li688 N705 1.990 . S
Li688 O748 1.956 . S
Li688 O749 1.970 1_556 S
Li688 O750 1.961 . S
Li689 N713 1.990 . S
Li689 O748 1.970 1_554 S
Li689 O749 1.956 . S
Li689 O751 1.961 . S
Li690 N735 1.990 . S
Li690 O748 1.961 . S
Li690 O750 1.956 . S
Li690 O751 1.970 1_556 S
Li691 N741 1.990 . S
Li691 O749 1.961 . S
Li691 O750 1.970 1_554 S
Li691 O751 1.956 . S
C692 C694 1.348 1_556 S
C692 C695 1.356 . S
C692 O748 1.325 . S
N693 C696 1.314 1_556 S
N693 C697 1.279 . S
C694 C692 1.348 1_554 S
C694 C696 1.353 . S
C694 H752 0.929 . S
C695 C692 1.356 . S
C695 C697 1.358 . S
C695 H753 0.930 . S
C696 N693 1.314 1_554 S
C696 C694 1.353 . S
C696 H754 0.930 . S
C697 N693 1.279 . S
C697 C695 1.358 . S
C697 H755 0.930 . S
C698 C701 1.348 . S
C698 C702 1.356 . S
C698 O749 1.325 . S
C699 N700 1.279 . S
C699 C702 1.358 . S
C699 H756 0.930 . S
N700 C699 1.279 . S
N700 C703 1.314 . S
C701 C698 1.348 . S
C701 C703 1.353 . S
C701 H757 0.929 . S
C702 C698 1.356 . S
C702 C699 1.358 . S
C702 H758 0.930 . S
C703 N700 1.314 . S
C703 C701 1.353 . S
C703 H759 0.930 . S
C704 N705 1.314 . S
C704 C709 1.353 . S
C704 H710 0.930 . S
N705 Li688 1.990 . S
N705 C704 1.314 . S
N705 C707 1.279 . S
C706 C707 1.358 . S
C706 C708 1.356 . S
C706 H760 0.930 . S
C707 N705 1.279 . S
C707 C706 1.358 . S
C707 H711 0.930 . S
C708 C706 1.356 . S
C708 C709 1.348 . S
C709 C704 1.353 . S
C709 C708 1.348 . S
C709 H761 0.929 . S
H710 C704 0.930 . S
H711 C707 0.930 . S
C712 N713 1.314 . S
C712 C714 1.353 . S
C712 H718 0.930 . S
N713 Li689 1.990 . S
N713 C712 1.314 . S
N713 C716 1.279 . S
C714 C712 1.353 . S
C714 C717 1.348 . S
C714 H762 0.929 . S
C715 C716 1.358 . S
C715 C717 1.356 . S
C715 H763 0.930 . S
C716 N713 1.279 . S
C716 C715 1.358 . S
C716 H719 0.930 . S
C717 C714 1.348 . S
C717 C715 1.356 . S
H718 C712 0.930 . S
H719 C716 0.930 . S
C720 C722 1.348 . S
C720 C723 1.356 . S
C720 O750 1.325 . S
N721 C724 1.314 . S
N721 C725 1.279 . S
C722 C720 1.348 . S
C722 C724 1.353 . S
C722 H764 0.929 . S
C723 C720 1.356 . S
C723 C725 1.358 . S
C723 H765 0.930 . S
C724 N721 1.314 . S
C724 C722 1.353 . S
C724 H766 0.930 . S
C725 N721 1.279 . S
C725 C723 1.358 . S
C725 H767 0.930 . S
C726 C727 1.348 1_554 S
C726 C728 1.356 . S
C726 O751 1.325 . S
C727 C726 1.348 1_556 S
C727 C729 1.353 . S
C727 H768 0.929 . S
C728 C726 1.356 . S
C728 C730 1.358 . S
C728 H769 0.930 . S
C729 C727 1.353 . S
C729 N731 1.314 1_556 S
C729 H770 0.930 . S
C730 C728 1.358 . S
C730 N731 1.279 . S
C730 H771 0.930 . S
N731 C729 1.314 1_554 S
N731 C730 1.279 . S
C732 C734 1.353 . S
C732 N735 1.314 . S
C732 H738 0.930 . S
C733 N735 1.279 . S
C733 C736 1.358 . S
C733 H739 0.930 . S
C734 C732 1.353 . S
C734 C737 1.348 . S
C734 H772 0.929 . S
N735 Li690 1.990 . S
N735 C732 1.314 . S
N735 C733 1.279 . S
C736 C733 1.358 . S
C736 C737 1.356 . S
C736 H773 0.930 . S
C737 C734 1.348 . S
C737 C736 1.356 . S
H738 C732 0.930 . S
H739 C733 0.930 . S
C740 N741 1.314 . S
C740 C742 1.353 . S
C740 H746 0.930 . S
N741 Li691 1.990 . S
N741 C740 1.314 . S
N741 C744 1.279 . S
C742 C740 1.353 . S
C742 C745 1.348 . S
C742 H774 0.929 . S
C743 C744 1.358 . S
C743 C745 1.356 . S
C743 H775 0.930 . S
C744 N741 1.279 . S
C744 C743 1.358 . S
C744 H747 0.930 . S
C745 C742 1.348 . S
C745 C743 1.356 . S
H746 C740 0.930 . S
H747 C744 0.930 . S
O748 Li688 1.956 . S
O748 Li689 1.970 1_556 S
O748 Li690 1.961 . S
O748 C692 1.325 . S
O749 Li688 1.970 1_554 S
O749 Li689 1.956 . S
O749 Li691 1.961 . S
O749 C698 1.325 . S
O750 Li688 1.961 . S
O750 Li690 1.956 . S
O750 Li691 1.970 1_556 S
O750 C720 1.325 . S
O751 Li689 1.961 . S
O751 Li690 1.970 1_554 S
O751 Li691 1.956 . S
O751 C726 1.325 . S
H752 C694 0.929 . S
H753 C695 0.930 . S
H754 C696 0.930 . S
H755 C697 0.930 . S
H756 C699 0.930 . S
H757 C701 0.929 . S
H758 C702 0.930 . S
H759 C703 0.930 . S
H760 C706 0.930 . S
H761 C709 0.929 . S
H762 C714 0.929 . S
H763 C715 0.930 . S
H764 C722 0.929 . S
H765 C723 0.930 . S
H766 C724 0.930 . S
H767 C725 0.930 . S
H768 C727 0.929 . S
H769 C728 0.930 . S
H770 C729 0.930 . S
H771 C730 0.930 . S
H772 C734 0.929 . S
H773 C736 0.930 . S
H774 C742 0.929 . S
H775 C743 0.930 . S
Li776 N793 1.990 . S
Li776 O836 1.956 . S
Li776 O837 1.971 . S
Li776 O838 1.961 . S
Li777 N801 1.989 . S
Li777 O836 1.974 1_565 S
Li777 O837 1.956 1_565 S
Li777 O839 1.958 . S
Li778 N823 1.990 . S
Li778 O836 1.961 . S
Li778 O838 1.956 . S
Li778 O839 1.970 1_545 S
Li779 N829 1.990 . S
Li779 O837 1.960 1_565 S
Li779 O838 1.970 1_565 S
Li779 O839 1.956 . S
C780 C782 1.348 . S
C780 C783 1.356 . S
C780 O836 1.325 . S
N781 C784 1.314 . S
N781 C785 1.279 . S
C782 C780 1.348 . S
C782 C784 1.353 . S
C782 H840 0.929 . S
C783 C780 1.356 . S
C783 C785 1.358 . S
C783 H841 0.930 . S
C784 N781 1.314 . S
C784 C782 1.353 . S
C784 H842 0.930 . S
C785 N781 1.279 . S
C785 C783 1.358 . S
C785 H843 0.930 . S
C786 C789 1.348 1_565 S
C786 C790 1.356 . S
C786 O837 1.325 1_565 S
C787 N788 1.279 . S
C787 C790 1.358 . S
C787 H844 0.930 . S
N788 C787 1.279 . S
N788 C791 1.314 1_565 S
C789 C786 1.348 1_545 S
C789 C791 1.353 . S
C789 H845 0.929 . S
C790 C786 1.356 . S
C790 C787 1.358 . S
C790 H846 0.930 . S
C791 N788 1.314 1_545 S
C791 C789 1.353 . S
C791 H847 0.930 . S
C792 N793 1.314 . S
C792 C797 1.353 . S
C792 H798 0.930 . S
N793 Li776 1.990 . S
N793 C792 1.314 . S
N793 C795 1.279 . S
C794 C795 1.358 . S
C794 C796 1.356 . S
C794 H848 0.930 . S
C795 N793 1.279 . S
C795 C794 1.358 . S
C795 H799 0.930 . S
C796 C794 1.356 . S
C796 C797 1.348 . S
C797 C792 1.353 . S
C797 C796 1.348 . S
C797 H849 0.929 . S
H798 C792 0.930 . S
H799 C795 0.930 . S
C800 N801 1.314 . S
C800 C802 1.353 . S
C800 H806 0.930 . S
N801 Li777 1.989 . S
N801 C800 1.314 . S
N801 C804 1.279 . S
C802 C800 1.353 . S
C802 C805 1.348 . S
C802 H850 0.929 . S
C803 C804 1.358 . S
C803 C805 1.356 . S
C803 H851 0.930 . S
C804 N801 1.279 . S
C804 C803 1.358 . S
C804 H807 0.932 . S
C805 C802 1.348 . S
C805 C803 1.356 . S
H806 C800 0.930 . S
H807 C804 0.932 . S
C808 C810 1.348 1_545 S
C808 C811 1.356 . S
C808 O838 1.325 . S
N809 C812 1.314 1_545 S
N809 C813 1.279 . S
C810 C808 1.348 1_565 S
C810 C812 1.353 . S
C810 H852 0.929 . S
C811 C808 1.356 . S
C811 C813 1.358 . S
C811 H853 0.930 . S
C812 N809 1.314 1_565 S
C812 C810 1.353 . S
C812 H854 0.930 . S
C813 N809 1.279 . S
C813 C811 1.358 . S
C813 H855 0.930 . S
C814 C815 1.348 . S
C814 C816 1.356 . S
C814 O839 1.325 . S
C815 C814 1.348 . S
C815 C817 1.353 . S
C815 H856 0.929 . S
C816 C814 1.356 . S
C816 C818 1.358 . S
C816 H857 0.930 . S
C817 C815 1.353 . S
C817 N819 1.314 . S
C817 H858 0.930 . S
C818 C816 1.358 . S
C818 N819 1.279 . S
C818 H859 0.930 . S
N819 C817 1.314 . S
N819 C818 1.279 . S
C820 C822 1.353 . S
C820 N823 1.314 . S
C820 H826 0.930 . S
C821 N823 1.279 . S
C821 C824 1.358 . S
C821 H827 0.930 . S
C822 C820 1.353 . S
C822 C825 1.348 . S
C822 H860 0.929 . S
N823 Li778 1.990 . S
N823 C820 1.314 . S
N823 C821 1.279 . S
C824 C821 1.358 . S
C824 C825 1.356 . S
C824 H861 0.930 . S
C825 C822 1.348 . S
C825 C824 1.356 . S
H826 C820 0.930 . S
H827 C821 0.930 . S
C828 N829 1.314 . S
C828 C830 1.353 . S
C828 H834 0.930 . S
N829 Li779 1.990 . S
N829 C828 1.314 . S
N829 C832 1.279 . S
C830 C828 1.353 . S
C830 C833 1.348 . S
C830 H862 0.929 . S
C831 C832 1.358 . S
C831 C833 1.356 . S
C831 H863 0.930 . S
C832 N829 1.279 . S
C832 C831 1.358 . S
C832 H835 0.930 . S
C833 C830 1.348 . S
C833 C831 1.356 . S
H834 C828 0.930 . S
H835 C832 0.930 . S
O836 Li776 1.956 . S
O836 Li777 1.974 1_545 S
O836 Li778 1.961 . S
O836 C780 1.325 . S
O837 Li776 1.971 . S
O837 Li777 1.956 1_545 S
O837 Li779 1.960 1_545 S
O837 C786 1.325 1_545 S
O838 Li776 1.961 . S
O838 Li778 1.956 . S
O838 Li779 1.970 1_545 S
O838 C808 1.325 . S
O839 Li777 1.958 . S
O839 Li778 1.970 1_565 S
O839 Li779 1.956 . S
O839 C814 1.325 . S
H840 C782 0.929 . S
H841 C783 0.930 . S
H842 C784 0.930 . S
H843 C785 0.930 . S
H844 C787 0.930 . S
H845 C789 0.929 . S
H846 C790 0.930 . S
H847 C791 0.930 . S
H848 C794 0.930 . S
H849 C797 0.929 . S
H850 C802 0.929 . S
H851 C803 0.930 . S
H852 C810 0.929 . S
H853 C811 0.930 . S
H854 C812 0.930 . S
H855 C813 0.930 . S
H856 C815 0.929 . S
H857 C816 0.930 . S
H858 C817 0.930 . S
H859 C818 0.930 . S
H860 C822 0.929 . S
H861 C824 0.930 . S
H862 C830 0.929 . S
H863 C831 0.930 . S
Li864 N881 1.990 . S
Li864 O924 1.956 . S
Li864 O925 1.970 . S
Li864 O926 1.961 . S
Li865 N889 1.990 . S
Li865 O924 1.970 . S
Li865 O925 1.956 . S
Li865 O927 1.961 . S
Li866 N911 1.990 . S
Li866 O924 1.961 . S
Li866 O926 1.956 . S
Li866 O927 1.970 . S
Li867 N917 1.990 . S
Li867 O925 1.961 . S
Li867 O926 1.970 . S
Li867 O927 1.956 . S
C868 C870 1.348 . S
C868 C871 1.356 . S
C868 O924 1.325 . S
N869 C872 1.314 . S
N869 C873 1.279 . S
C870 C868 1.348 . S
C870 C872 1.353 . S
C870 H928 0.929 . S
C871 C868 1.356 . S
C871 C873 1.358 . S
C871 H929 0.930 . S
C872 N869 1.314 . S
C872 C870 1.353 . S
C872 H930 0.930 . S
C873 N869 1.279 . S
C873 C871 1.358 . S
C873 H931 0.930 . S
C874 C877 1.348 . S
C874 C878 1.356 . S
C874 O925 1.325 . S
C875 N876 1.279 . S
C875 C878 1.358 . S
C875 H932 0.930 . S
N876 C875 1.279 . S
N876 C879 1.314 . S
C877 C874 1.348 . S
C877 C879 1.353 . S
C877 H933 0.929 . S
C878 C874 1.356 . S
C878 C875 1.358 . S
C878 H934 0.930 . S
C879 N876 1.314 . S
C879 C877 1.353 . S
C879 H935 0.930 . S
C880 N881 1.314 . S
C880 C885 1.353 . S
C880 H886 0.930 . S
N881 Li864 1.990 . S
N881 C880 1.314 . S
N881 C883 1.279 . S
C882 C883 1.358 . S
C882 C884 1.356 . S
C882 H936 0.930 . S
C883 N881 1.279 . S
C883 C882 1.358 . S
C883 H887 0.930 . S
C884 C882 1.356 . S
C884 C885 1.348 . S
C885 C880 1.353 . S
C885 C884 1.348 . S
C885 H937 0.929 . S
H886 C880 0.930 . S
H887 C883 0.930 . S
C888 N889 1.314 . S
C888 C890 1.353 . S
C888 H894 0.930 . S
N889 Li865 1.990 . S
N889 C888 1.314 . S
N889 C892 1.279 . S
C890 C888 1.353 . S
C890 C893 1.348 . S
C890 H938 0.929 . S
C891 C892 1.358 . S
C891 C893 1.356 . S
C891 H939 0.930 . S
C892 N889 1.279 . S
C892 C891 1.358 . S
C892 H895 0.930 . S
C893 C890 1.348 . S
C893 C891 1.356 . S
H894 C888 0.930 . S
H895 C892 0.930 . S
C896 C898 1.348 . S
C896 C899 1.356 . S
C896 O926 1.325 . S
N897 C900 1.314 . S
N897 C901 1.279 . S
C898 C896 1.348 . S
C898 C900 1.353 . S
C898 H940 0.929 . S
C899 C896 1.356 . S
C899 C901 1.358 . S
C899 H941 0.930 . S
C900 N897 1.314 . S
C900 C898 1.353 . S
C900 H942 0.930 . S
C901 N897 1.279 . S
C901 C899 1.358 . S
C901 H943 0.930 . S
C902 C903 1.348 . S
C902 C904 1.356 . S
C902 O927 1.325 . S
C903 C902 1.348 . S
C903 C905 1.353 . S
C903 H944 0.929 . S
C904 C902 1.356 . S
C904 C906 1.358 . S
C904 H945 0.930 . S
C905 C903 1.353 . S
C905 N907 1.314 . S
C905 H946 0.930 . S
C906 C904 1.358 . S
C906 N907 1.279 . S
C906 H947 0.930 . S
N907 C905 1.314 . S
N907 C906 1.279 . S
C908 C910 1.353 . S
C908 N911 1.314 . S
C908 H914 0.930 . S
C909 N911 1.279 . S
C909 C912 1.358 . S
C909 H915 0.930 . S
C910 C908 1.353 . S
C910 C913 1.348 . S
C910 H948 0.929 . S
N911 Li866 1.990 . S
N911 C908 1.314 . S
N911 C909 1.279 . S
C912 C909 1.358 . S
C912 C913 1.356 . S
C912 H949 0.930 . S
C913 C910 1.348 . S
C913 C912 1.356 . S
H914 C908 0.930 . S
H915 C909 0.930 . S
C916 N917 1.314 . S
C916 C918 1.353 . S
C916 H922 0.930 . S
N917 Li867 1.990 . S
N917 C916 1.314 . S
N917 C920 1.279 . S
C918 C916 1.353 . S
C918 C921 1.348 . S
C918 H950 0.929 . S
C919 C920 1.358 . S
C919 C921 1.356 . S
C919 H951 0.930 . S
C920 N917 1.279 . S
C920 C919 1.358 . S
C920 H923 0.930 . S
C921 C918 1.348 . S
C921 C919 1.356 . S
H922 C916 0.930 . S
H923 C920 0.930 . S
O924 Li864 1.956 . S
O924 Li865 1.970 . S
O924 Li866 1.961 . S
O924 C868 1.325 . S
O925 Li864 1.970 . S
O925 Li865 1.956 . S
O925 Li867 1.961 . S
O925 C874 1.325 . S
O926 Li864 1.961 . S
O926 Li866 1.956 . S
O926 Li867 1.970 . S
O926 C896 1.325 . S
O927 Li865 1.961 . S
O927 Li866 1.970 . S
O927 Li867 1.956 . S
O927 C902 1.325 . S
H928 C870 0.929 . S
H929 C871 0.930 . S
H930 C872 0.930 . S
H931 C873 0.930 . S
H932 C875 0.930 . S
H933 C877 0.929 . S
H934 C878 0.930 . S
H935 C879 0.930 . S
H936 C882 0.930 . S
H937 C885 0.929 . S
H938 C890 0.929 . S
H939 C891 0.930 . S
H940 C898 0.929 . S
H941 C899 0.930 . S
H942 C900 0.930 . S
H943 C901 0.930 . S
H944 C903 0.929 . S
H945 C904 0.930 . S
H946 C905 0.930 . S
H947 C906 0.930 . S
H948 C910 0.929 . S
H949 C912 0.930 . S
H950 C918 0.929 . S
H951 C919 0.930 . S
Li952 N969 1.990 . S
Li952 O1012 1.956 . S
Li952 O1013 1.970 . S
Li952 O1014 1.961 . S
Li953 N977 1.990 . S
Li953 O1012 1.970 . S
Li953 O1013 1.956 . S
Li953 O1015 1.961 . S
Li954 N999 1.990 . S
Li954 O1012 1.961 . S
Li954 O1014 1.956 . S
Li954 O1015 1.970 . S
Li955 N1005 1.990 . S
Li955 O1013 1.961 . S
Li955 O1014 1.970 . S
Li955 O1015 1.956 . S
C956 C958 1.348 . S
C956 C959 1.356 . S
C956 O1012 1.325 . S
N957 C960 1.314 . S
N957 C961 1.279 . S
C958 C956 1.348 . S
C958 C960 1.353 . S
C958 H1016 0.929 . S
C959 C956 1.356 . S
C959 C961 1.358 . S
C959 H1017 0.930 . S
C960 N957 1.314 . S
C960 C958 1.353 . S
C960 H1018 0.930 . S
C961 N957 1.279 . S
C961 C959 1.358 . S
C961 H1019 0.930 . S
C962 C965 1.348 . S
C962 C966 1.356 . S
C962 O1013 1.325 . S
C963 N964 1.279 . S
C963 C966 1.358 . S
C963 H1020 0.930 . S
N964 C963 1.279 . S
N964 C967 1.314 . S
C965 C962 1.348 . S
C965 C967 1.353 . S
C965 H1021 0.929 . S
C966 C962 1.356 . S
C966 C963 1.358 . S
C966 H1022 0.930 . S
C967 N964 1.314 . S
C967 C965 1.353 . S
C967 H1023 0.930 . S
C968 N969 1.314 . S
C968 C973 1.353 . S
C968 H974 0.930 . S
N969 Li952 1.990 . S
N969 C968 1.314 . S
N969 C971 1.279 . S
C970 C971 1.358 . S
C970 C972 1.356 . S
C970 H1024 0.930 . S
C971 N969 1.279 . S
C971 C970 1.358 . S
C971 H975 0.930 . S
C972 C970 1.356 . S
C972 C973 1.348 . S
C973 C968 1.353 . S
C973 C972 1.348 . S
C973 H1025 0.929 . S
H974 C968 0.930 . S
H975 C971 0.930 . S
C976 N977 1.314 . S
C976 C978 1.353 . S
C976 H982 0.930 . S
N977 Li953 1.990 . S
N977 C976 1.314 . S
N977 C980 1.279 . S
C978 C976 1.353 . S
C978 C981 1.348 . S
C978 H1026 0.929 . S
C979 C980 1.358 . S
C979 C981 1.356 . S
C979 H1027 0.930 . S
C980 N977 1.279 . S
C980 C979 1.358 . S
C980 H983 0.930 . S
C981 C978 1.348 . S
C981 C979 1.356 . S
H982 C976 0.930 . S
H983 C980 0.930 . S
C984 C986 1.348 . S
C984 C987 1.356 . S
C984 O1014 1.325 . S
N985 C988 1.314 . S
N985 C989 1.279 . S
C986 C984 1.348 . S
C986 C988 1.353 . S
C986 H1028 0.929 . S
C987 C984 1.356 . S
C987 C989 1.358 . S
C987 H1029 0.930 . S
C988 N985 1.314 . S
C988 C986 1.353 . S
C988 H1030 0.930 . S
C989 N985 1.279 . S
C989 C987 1.358 . S
C989 H1031 0.930 . S
C990 C991 1.348 . S
C990 C992 1.356 . S
C990 O1015 1.325 . S
C991 C990 1.348 . S
C991 C993 1.353 . S
C991 H1032 0.929 . S
C992 C990 1.356 . S
C992 C994 1.358 . S
C992 H1033 0.930 . S
C993 C991 1.353 . S
C993 N995 1.314 . S
C993 H1034 0.930 . S
C994 C992 1.358 . S
C994 N995 1.279 . S
C994 H1035 0.930 . S
N995 C993 1.314 . S
N995 C994 1.279 . S
C996 C998 1.353 . S
C996 N999 1.314 . S
C996 H1002 0.930 . S
C997 N999 1.279 . S
C997 C1000 1.358 . S
C997 H1003 0.930 . S
C998 C996 1.353 . S
C998 C1001 1.348 . S
C998 H1036 0.929 . S
N999 Li954 1.990 . S
N999 C996 1.314 . S
N999 C997 1.279 . S
C1000 C997 1.358 . S
C1000 C1001 1.356 . S
C1000 H1037 0.930 . S
C1001 C998 1.348 . S
C1001 C1000 1.356 . S
H1002 C996 0.930 . S
H1003 C997 0.930 . S
C1004 N1005 1.314 . S
C1004 C1006 1.353 . S
C1004 H1010 0.930 . S
N1005 Li955 1.990 . S
N1005 C1004 1.314 . S
N1005 C1008 1.279 . S
C1006 C1004 1.353 . S
C1006 C1009 1.348 . S
C1006 H1038 0.929 . S
C1007 C1008 1.358 . S
C1007 C1009 1.356 . S
C1007 H1039 0.930 . S
C1008 N1005 1.279 . S
C1008 C1007 1.358 . S
C1008 H1011 0.930 . S
C1009 C1006 1.348 . S
C1009 C1007 1.356 . S
H1010 C1004 0.930 . S
H1011 C1008 0.930 . S
O1012 Li952 1.956 . S
O1012 Li953 1.970 . S
O1012 Li954 1.961 . S
O1012 C956 1.325 . S
O1013 Li952 1.970 . S
O1013 Li953 1.956 . S
O1013 Li955 1.961 . S
O1013 C962 1.325 . S
O1014 Li952 1.961 . S
O1014 Li954 1.956 . S
O1014 Li955 1.970 . S
O1014 C984 1.325 . S
O1015 Li953 1.961 . S
O1015 Li954 1.970 . S
O1015 Li955 1.956 . S
O1015 C990 1.325 . S
H1016 C958 0.929 . S
H1017 C959 0.930 . S
H1018 C960 0.930 . S
H1019 C961 0.930 . S
H1020 C963 0.930 . S
H1021 C965 0.929 . S
H1022 C966 0.930 . S
H1023 C967 0.930 . S
H1024 C970 0.930 . S
H1025 C973 0.929 . S
H1026 C978 0.929 . S
H1027 C979 0.930 . S
H1028 C986 0.929 . S
H1029 C987 0.930 . S
H1030 C988 0.930 . S
H1031 C989 0.930 . S
H1032 C991 0.929 . S
H1033 C992 0.930 . S
H1034 C993 0.930 . S
H1035 C994 0.930 . S
H1036 C998 0.929 . S
H1037 C1000 0.930 . S
H1038 C1006 0.929 . S
H1039 C1007 0.930 . S
Li1040 N1057 1.990 . S
Li1040 O1100 1.956 . S
Li1040 O1101 1.970 . S
Li1040 O1102 1.961 . S
Li1041 N1065 1.990 . S
Li1041 O1100 1.970 . S
Li1041 O1101 1.956 . S
Li1041 O1103 1.961 . S
Li1042 N1087 1.990 . S
Li1042 O1100 1.961 . S
Li1042 O1102 1.956 . S
Li1042 O1103 1.970 . S
Li1043 N1093 1.990 . S
Li1043 O1101 1.961 . S
Li1043 O1102 1.970 . S
Li1043 O1103 1.956 . S
C1044 C1046 1.348 . S
C1044 C1047 1.356 . S
C1044 O1100 1.325 . S
N1045 C1048 1.314 . S
N1045 C1049 1.279 . S
C1046 C1044 1.348 . S
C1046 C1048 1.353 . S
C1046 H1104 0.929 . S
C1047 C1044 1.356 . S
C1047 C1049 1.358 . S
C1047 H1105 0.930 . S
C1048 N1045 1.314 . S
C1048 C1046 1.353 . S
C1048 H1106 0.930 . S
C1049 N1045 1.279 . S
C1049 C1047 1.358 . S
C1049 H1107 0.930 . S
C1050 C1053 1.348 . S
C1050 C1054 1.356 . S
C1050 O1101 1.325 . S
C1051 N1052 1.279 . S
C1051 C1054 1.358 . S
C1051 H1108 0.930 . S
N1052 C1051 1.279 . S
N1052 C1055 1.314 . S
C1053 C1050 1.348 . S
C1053 C1055 1.353 . S
C1053 H1109 0.929 . S
C1054 C1050 1.356 . S
C1054 C1051 1.358 . S
C1054 H1110 0.930 . S
C1055 N1052 1.314 . S
C1055 C1053 1.353 . S
C1055 H1111 0.930 . S
C1056 N1057 1.314 . S
C1056 C1061 1.353 . S
C1056 H1062 0.930 . S
N1057 Li1040 1.990 . S
N1057 C1056 1.314 . S
N1057 C1059 1.279 . S
C1058 C1059 1.358 . S
C1058 C1060 1.356 . S
C1058 H1112 0.930 . S
C1059 N1057 1.279 . S
C1059 C1058 1.358 . S
C1059 H1063 0.930 . S
C1060 C1058 1.356 . S
C1060 C1061 1.348 . S
C1061 C1056 1.353 . S
C1061 C1060 1.348 . S
C1061 H1113 0.929 . S
H1062 C1056 0.930 . S
H1063 C1059 0.930 . S
C1064 N1065 1.314 . S
C1064 C1066 1.353 . S
C1064 H1070 0.930 . S
N1065 Li1041 1.990 . S
N1065 C1064 1.314 . S
N1065 C1068 1.279 . S
C1066 C1064 1.353 . S
C1066 C1069 1.348 . S
C1066 H1114 0.929 . S
C1067 C1068 1.358 . S
C1067 C1069 1.356 . S
C1067 H1115 0.930 . S
C1068 N1065 1.279 . S
C1068 C1067 1.358 . S
C1068 H1071 0.930 . S
C1069 C1066 1.348 . S
C1069 C1067 1.356 . S
H1070 C1064 0.930 . S
H1071 C1068 0.930 . S
C1072 C1074 1.348 . S
C1072 C1075 1.356 . S
C1072 O1102 1.325 . S
N1073 C1076 1.314 . S
N1073 C1077 1.279 . S
C1074 C1072 1.348 . S
C1074 C1076 1.353 . S
C1074 H1116 0.929 . S
C1075 C1072 1.356 . S
C1075 C1077 1.358 . S
C1075 H1117 0.930 . S
C1076 N1073 1.314 . S
C1076 C1074 1.353 . S
C1076 H1118 0.930 . S
C1077 N1073 1.279 . S
C1077 C1075 1.358 . S
C1077 H1119 0.930 . S
C1078 C1079 1.348 . S
C1078 C1080 1.356 . S
C1078 O1103 1.325 . S
C1079 C1078 1.348 . S
C1079 C1081 1.353 . S
C1079 H1120 0.929 . S
C1080 C1078 1.356 . S
C1080 C1082 1.358 . S
C1080 H1121 0.930 . S
C1081 C1079 1.353 . S
C1081 N1083 1.314 . S
C1081 H1122 0.930 . S
C1082 C1080 1.358 . S
C1082 N1083 1.279 . S
C1082 H1123 0.930 . S
N1083 C1081 1.314 . S
N1083 C1082 1.279 . S
C1084 C1086 1.353 . S
C1084 N1087 1.314 . S
C1084 H1090 0.930 . S
C1085 N1087 1.279 . S
C1085 C1088 1.358 . S
C1085 H1091 0.930 . S
C1086 C1084 1.353 . S
C1086 C1089 1.348 . S
C1086 H1124 0.929 . S
N1087 Li1042 1.990 . S
N1087 C1084 1.314 . S
N1087 C1085 1.279 . S
C1088 C1085 1.358 . S
C1088 C1089 1.356 . S
C1088 H1125 0.930 . S
C1089 C1086 1.348 . S
C1089 C1088 1.356 . S
H1090 C1084 0.930 . S
H1091 C1085 0.930 . S
C1092 N1093 1.314 . S
C1092 C1094 1.353 . S
C1092 H1098 0.930 . S
N1093 Li1043 1.990 . S
N1093 C1092 1.314 . S
N1093 C1096 1.279 . S
C1094 C1092 1.353 . S
C1094 C1097 1.348 . S
C1094 H1126 0.929 . S
C1095 C1096 1.358 . S
C1095 C1097 1.356 . S
C1095 H1127 0.930 . S
C1096 N1093 1.279 . S
C1096 C1095 1.358 . S
C1096 H1099 0.930 . S
C1097 C1094 1.348 . S
C1097 C1095 1.356 . S
H1098 C1092 0.930 . S
H1099 C1096 0.930 . S
O1100 Li1040 1.956 . S
O1100 Li1041 1.970 . S
O1100 Li1042 1.961 . S
O1100 C1044 1.325 . S
O1101 Li1040 1.970 . S
O1101 Li1041 1.956 . S
O1101 Li1043 1.961 . S
O1101 C1050 1.325 . S
O1102 Li1040 1.961 . S
O1102 Li1042 1.956 . S
O1102 Li1043 1.970 . S
O1102 C1072 1.325 . S
O1103 Li1041 1.961 . S
O1103 Li1042 1.970 . S
O1103 Li1043 1.956 . S
O1103 C1078 1.325 . S
H1104 C1046 0.929 . S
H1105 C1047 0.930 . S
H1106 C1048 0.930 . S
H1107 C1049 0.930 . S
H1108 C1051 0.930 . S
H1109 C1053 0.929 . S
H1110 C1054 0.930 . S
H1111 C1055 0.930 . S
H1112 C1058 0.930 . S
H1113 C1061 0.929 . S
H1114 C1066 0.929 . S
H1115 C1067 0.930 . S
H1116 C1074 0.929 . S
H1117 C1075 0.930 . S
H1118 C1076 0.930 . S
H1119 C1077 0.930 . S
H1120 C1079 0.929 . S
H1121 C1080 0.930 . S
H1122 C1081 0.930 . S
H1123 C1082 0.930 . S
H1124 C1086 0.929 . S
H1125 C1088 0.930 . S
H1126 C1094 0.929 . S
H1127 C1095 0.930 . S
Li1128 N1145 1.990 . S
Li1128 O1188 1.956 . S
Li1128 O1189 1.970 1_565 S
Li1128 O1190 1.960 . S
Li1129 N1153 1.990 . S
Li1129 O1188 1.970 1_545 S
Li1129 O1189 1.956 . S
Li1129 O1191 1.961 . S
Li1130 N1175 1.995 . S
Li1130 O1188 1.977 . S
Li1130 O1190 1.956 . S
Li1130 O1191 1.948 1_565 S
Li1131 N1181 1.990 . S
Li1131 O1189 1.961 . S
Li1131 O1190 1.972 1_545 S
Li1131 O1191 1.956 . S
C1132 C1134 1.348 . S
C1132 C1135 1.356 . S
C1132 O1188 1.325 . S
N1133 C1136 1.314 . S
N1133 C1137 1.279 . S
C1134 C1132 1.348 . S
C1134 C1136 1.353 . S
C1134 H1192 0.929 . S
C1135 C1132 1.356 . S
C1135 C1137 1.358 . S
C1135 H1193 0.930 . S
C1136 N1133 1.314 . S
C1136 C1134 1.353 . S
C1136 H1194 0.930 . S
C1137 N1133 1.279 . S
C1137 C1135 1.358 . S
C1137 H1195 0.930 . S
C1138 C1141 1.348 1_545 S
C1138 C1142 1.356 . S
C1138 O1189 1.325 . S
C1139 N1140 1.279 . S
C1139 C1142 1.358 . S
C1139 H1196 0.930 . S
N1140 C1139 1.279 . S
N1140 C1143 1.314 1_545 S
C1141 C1138 1.348 1_565 S
C1141 C1143 1.353 . S
C1141 H1197 0.929 . S
C1142 C1138 1.356 . S
C1142 C1139 1.358 . S
C1142 H1198 0.930 . S
C1143 N1140 1.314 1_565 S
C1143 C1141 1.353 . S
C1143 H1199 0.930 . S
C1144 N1145 1.314 . S
C1144 C1149 1.353 . S
C1144 H1150 0.930 . S
N1145 Li1128 1.990 . S
N1145 C1144 1.314 . S
N1145 C1147 1.279 . S
C1146 C1147 1.358 . S
C1146 C1148 1.356 . S
C1146 H1200 0.930 . S
C1147 N1145 1.279 . S
C1147 C1146 1.358 . S
C1147 H1151 0.930 . S
C1148 C1146 1.356 . S
C1148 C1149 1.348 . S
C1149 C1144 1.353 . S
C1149 C1148 1.348 . S
C1149 H1201 0.929 . S
H1150 C1144 0.930 . S
H1151 C1147 0.930 . S
C1152 N1153 1.314 . S
C1152 C1154 1.353 . S
C1152 H1158 0.930 . S
N1153 Li1129 1.990 . S
N1153 C1152 1.314 . S
N1153 C1156 1.279 . S
C1154 C1152 1.353 . S
C1154 C1157 1.348 . S
C1154 H1202 0.929 . S
C1155 C1156 1.358 . S
C1155 C1157 1.356 . S
C1155 H1203 0.930 . S
C1156 N1153 1.279 . S
C1156 C1155 1.358 . S
C1156 H1159 0.930 . S
C1157 C1154 1.348 . S
C1157 C1155 1.356 . S
H1158 C1152 0.930 . S
H1159 C1156 0.930 . S
C1160 C1162 1.348 1_565 S
C1160 C1163 1.356 . S
C1160 O1190 1.325 . S
N1161 C1164 1.314 1_565 S
N1161 C1165 1.279 . S
C1162 C1160 1.348 1_545 S
C1162 C1164 1.353 . S
C1162 H1204 0.929 . S
C1163 C1160 1.356 . S
C1163 C1165 1.358 . S
C1163 H1205 0.930 . S
C1164 N1161 1.314 1_545 S
C1164 C1162 1.353 . S
C1164 H1206 0.930 . S
C1165 N1161 1.279 . S
C1165 C1163 1.358 . S
C1165 H1207 0.930 . S
C1166 C1167 1.348 . S
C1166 C1168 1.356 . S
C1166 O1191 1.325 . S
C1167 C1166 1.348 . S
C1167 C1169 1.353 . S
C1167 H1208 0.929 . S
C1168 C1166 1.356 . S
C1168 C1170 1.358 . S
C1168 H1209 0.930 . S
C1169 C1167 1.353 . S
C1169 N1171 1.314 . S
C1169 H1210 0.930 . S
C1170 C1168 1.358 . S
C1170 N1171 1.279 . S
C1170 H1211 0.930 . S
N1171 C1169 1.314 . S
N1171 C1170 1.279 . S
C1172 C1174 1.353 . S
C1172 N1175 1.314 . S
C1172 H1178 0.930 . S
C1173 N1175 1.279 . S
C1173 C1176 1.358 . S
C1173 H1179 0.931 1_565 S
C1174 C1172 1.353 . S
C1174 C1177 1.348 . S
C1174 H1212 0.929 . S
N1175 Li1130 1.995 . S
N1175 C1172 1.314 . S
N1175 C1173 1.279 . S
C1176 C1173 1.358 . S
C1176 C1177 1.356 . S
C1176 H1213 0.930 . S
C1177 C1174 1.348 . S
C1177 C1176 1.356 . S
H1178 C1172 0.930 . S
H1179 C1173 0.931 1_545 S
C1180 N1181 1.314 . S
C1180 C1182 1.353 . S
C1180 H1186 0.930 . S
N1181 Li1131 1.990 . S
N1181 C1180 1.314 . S
N1181 C1184 1.279 . S
C1182 C1180 1.353 . S
C1182 C1185 1.348 . S
C1182 H1214 0.929 . S
C1183 C1184 1.358 . S
C1183 C1185 1.356 . S
C1183 H1215 0.930 . S
C1184 N1181 1.279 . S
C1184 C1183 1.358 . S
C1184 H1187 0.930 . S
C1185 C1182 1.348 . S
C1185 C1183 1.356 . S
H1186 C1180 0.930 . S
H1187 C1184 0.930 . S
O1188 Li1128 1.956 . S
O1188 Li1129 1.970 1_565 S
O1188 Li1130 1.977 . S
O1188 C1132 1.325 . S
O1189 Li1128 1.970 1_545 S
O1189 Li1129 1.956 . S
O1189 Li1131 1.961 . S
O1189 C1138 1.325 . S
O1190 Li1128 1.960 . S
O1190 Li1130 1.956 . S
O1190 Li1131 1.972 1_565 S
O1190 C1160 1.325 . S
O1191 Li1129 1.961 . S
O1191 Li1130 1.948 1_545 S
O1191 Li1131 1.956 . S
O1191 C1166 1.325 . S
H1192 C1134 0.929 . S
H1193 C1135 0.930 . S
H1194 C1136 0.930 . S
H1195 C1137 0.930 . S
H1196 C1139 0.930 . S
H1197 C1141 0.929 . S
H1198 C1142 0.930 . S
H1199 C1143 0.930 . S
H1200 C1146 0.930 . S
H1201 C1149 0.929 . S
H1202 C1154 0.929 . S
H1203 C1155 0.930 . S
H1204 C1162 0.929 . S
H1205 C1163 0.930 . S
H1206 C1164 0.930 . S
H1207 C1165 0.930 . S
H1208 C1167 0.929 . S
H1209 C1168 0.930 . S
H1210 C1169 0.930 . S
H1211 C1170 0.930 . S
H1212 C1174 0.929 . S
H1213 C1176 0.930 . S
H1214 C1182 0.929 . S
H1215 C1183 0.930 . S
Li1216 N1233 1.990 . S
Li1216 O1276 1.956 . S
Li1216 O1277 1.970 . S
Li1216 O1278 1.961 . S
Li1217 N1241 1.990 1_455 S
Li1217 O1276 1.970 . S
Li1217 O1277 1.956 . S
Li1217 O1279 1.961 1_455 S
Li1218 N1263 1.990 . S
Li1218 O1276 1.961 . S
Li1218 O1278 1.956 . S
Li1218 O1279 1.970 1_455 S
Li1219 N1269 1.990 . S
Li1219 O1277 1.961 1_655 S
Li1219 O1278 1.970 1_655 S
Li1219 O1279 1.956 . S
C1220 C1222 1.348 . S
C1220 C1223 1.356 . S
C1220 O1276 1.325 . S
N1221 C1224 1.314 . S
N1221 C1225 1.279 . S
C1222 C1220 1.348 . S
C1222 C1224 1.353 . S
C1222 H1280 0.929 . S
C1223 C1220 1.356 . S
C1223 C1225 1.358 . S
C1223 H1281 0.930 . S
C1224 N1221 1.314 . S
C1224 C1222 1.353 . S
C1224 H1282 0.930 . S
C1225 N1221 1.279 . S
C1225 C1223 1.358 . S
C1225 H1283 0.930 . S
C1226 C1229 1.364 . S
C1226 C1230 1.337 1_455 S
C1226 O1277 1.328 . S
C1227 N1228 1.279 . S
C1227 C1230 1.358 . S
C1227 H1284 0.930 . S
N1228 C1227 1.279 . S
N1228 C1231 1.314 1_655 S
C1229 C1226 1.364 . S
C1229 C1231 1.353 . S
C1229 H1285 0.929 . S
C1230 C1226 1.337 1_655 S
C1230 C1227 1.358 . S
C1230 H1286 0.930 . S
C1231 N1228 1.314 1_455 S
C1231 C1229 1.353 . S
C1231 H1287 0.930 . S
C1232 N1233 1.314 . S
C1232 C1237 1.353 . S
C1232 H1238 0.930 . S
N1233 Li1216 1.990 . S
N1233 C1232 1.314 . S
N1233 C1235 1.279 . S
C1234 C1235 1.358 . S
C1234 C1236 1.356 . S
C1234 H1288 0.930 . S
C1235 N1233 1.279 . S
C1235 C1234 1.358 . S
C1235 H1239 0.930 . S
C1236 C1234 1.356 . S
C1236 C1237 1.348 . S
C1237 C1232 1.353 . S
C1237 C1236 1.348 . S
C1237 H1289 0.929 . S
H1238 C1232 0.930 . S
H1239 C1235 0.930 . S
C1240 N1241 1.314 . S
C1240 C1242 1.353 . S
C1240 H1246 0.930 . S
N1241 Li1217 1.990 1_655 S
N1241 C1240 1.314 . S
N1241 C1244 1.280 . S
C1242 C1240 1.353 . S
C1242 C1245 1.348 . S
C1242 H1290 0.929 . S
C1243 C1244 1.359 . S
C1243 C1245 1.356 . S
C1243 H1291 0.935 . S
C1244 N1241 1.280 . S
C1244 C1243 1.359 . S
C1244 H1247 0.929 1_655 S
C1245 C1242 1.348 . S
C1245 C1243 1.356 . S
H1246 C1240 0.930 . S
H1247 C1244 0.929 1_455 S
C1248 C1250 1.348 1_455 S
C1248 C1251 1.356 . S
C1248 O1278 1.325 . S
N1249 C1252 1.307 1_455 S
N1249 C1253 1.279 . S
C1250 C1248 1.348 1_655 S
C1250 C1252 1.355 . S
C1250 H1292 0.929 . S
C1251 C1248 1.356 . S
C1251 C1253 1.358 . S
C1251 H1293 0.930 . S
C1252 N1249 1.307 1_655 S
C1252 C1250 1.355 . S
C1252 H1294 0.936 . S
C1253 N1249 1.279 . S
C1253 C1251 1.358 . S
C1253 H1295 0.930 . S
C1254 C1255 1.348 . S
C1254 C1256 1.356 . S
C1254 O1279 1.325 . S
C1255 C1254 1.348 . S
C1255 C1257 1.353 . S
C1255 H1296 0.929 . S
C1256 C1254 1.356 . S
C1256 C1258 1.358 . S
C1256 H1297 0.930 . S
C1257 C1255 1.353 . S
C1257 N1259 1.314 . S
C1257 H1298 0.930 . S
C1258 C1256 1.358 . S
C1258 N1259 1.279 . S
C1258 H1299 0.930 . S
N1259 C1257 1.314 . S
N1259 C1258 1.279 . S
C1260 C1262 1.353 . S
C1260 N1263 1.314 . S
C1260 H1266 0.930 . S
C1261 N1263 1.279 . S
C1261 C1264 1.358 . S
C1261 H1267 0.930 . S
C1262 C1260 1.353 . S
C1262 C1265 1.348 . S
C1262 H1300 0.929 . S
N1263 Li1218 1.990 . S
N1263 C1260 1.314 . S
N1263 C1261 1.279 . S
C1264 C1261 1.358 . S
C1264 C1265 1.356 . S
C1264 H1301 0.930 . S
C1265 C1262 1.348 . S
C1265 C1264 1.356 . S
H1266 C1260 0.930 . S
H1267 C1261 0.930 . S
C1268 N1269 1.314 . S
C1268 C1270 1.353 . S
C1268 H1274 0.930 . S
N1269 Li1219 1.990 . S
N1269 C1268 1.314 . S
N1269 C1272 1.279 . S
C1270 C1268 1.353 . S
C1270 C1273 1.348 . S
C1270 H1302 0.929 . S
C1271 C1272 1.358 . S
C1271 C1273 1.356 . S
C1271 H1303 0.930 . S
C1272 N1269 1.279 . S
C1272 C1271 1.358 . S
C1272 H1275 0.930 . S
C1273 C1270 1.348 . S
C1273 C1271 1.356 . S
H1274 C1268 0.930 . S
H1275 C1272 0.930 . S
O1276 Li1216 1.956 . S
O1276 Li1217 1.970 . S
O1276 Li1218 1.961 . S
O1276 C1220 1.325 . S
O1277 Li1216 1.970 . S
O1277 Li1217 1.956 . S
O1277 Li1219 1.961 1_455 S
O1277 C1226 1.328 . S
O1278 Li1216 1.961 . S
O1278 Li1218 1.956 . S
O1278 Li1219 1.970 1_455 S
O1278 C1248 1.325 . S
O1279 Li1217 1.961 1_655 S
O1279 Li1218 1.970 1_655 S
O1279 Li1219 1.956 . S
O1279 C1254 1.325 . S
H1280 C1222 0.929 . S
H1281 C1223 0.930 . S
H1282 C1224 0.930 . S
H1283 C1225 0.930 . S
H1284 C1227 0.930 . S
H1285 C1229 0.929 . S
H1286 C1230 0.930 . S
H1287 C1231 0.930 . S
H1288 C1234 0.930 . S
H1289 C1237 0.929 . S
H1290 C1242 0.929 . S
H1291 C1243 0.935 . S
H1292 C1250 0.929 . S
H1293 C1251 0.930 . S
H1294 C1252 0.936 . S
H1295 C1253 0.930 . S
H1296 C1255 0.929 . S
H1297 C1256 0.930 . S
H1298 C1257 0.930 . S
H1299 C1258 0.930 . S
H1300 C1262 0.929 . S
H1301 C1264 0.930 . S
H1302 C1270 0.929 . S
H1303 C1271 0.930 . S
Li1304 N1321 1.990 . S
Li1304 O1364 1.956 . S
Li1304 O1365 1.970 . S
Li1304 O1366 1.961 . S
Li1305 N1329 1.990 . S
Li1305 O1364 1.970 . S
Li1305 O1365 1.956 . S
Li1305 O1367 1.961 . S
Li1306 N1351 1.990 . S
Li1306 O1364 1.961 . S
Li1306 O1366 1.956 . S
Li1306 O1367 1.970 . S
Li1307 N1357 1.990 . S
Li1307 O1365 1.961 . S
Li1307 O1366 1.970 . S
Li1307 O1367 1.956 . S
C1308 C1310 1.348 . S
C1308 C1311 1.356 . S
C1308 O1364 1.325 . S
N1309 C1312 1.314 . S
N1309 C1313 1.279 . S
C1310 C1308 1.348 . S
C1310 C1312 1.353 . S
C1310 H1368 0.929 . S
C1311 C1308 1.356 . S
C1311 C1313 1.358 . S
C1311 H1369 0.930 . S
C1312 N1309 1.314 . S
C1312 C1310 1.353 . S
C1312 H1370 0.930 . S
C1313 N1309 1.279 . S
C1313 C1311 1.358 . S
C1313 H1371 0.930 . S
C1314 C1317 1.348 . S
C1314 C1318 1.356 . S
C1314 O1365 1.325 . S
C1315 N1316 1.279 . S
C1315 C1318 1.358 . S
C1315 H1372 0.930 . S
N1316 C1315 1.279 . S
N1316 C1319 1.314 . S
C1317 C1314 1.348 . S
C1317 C1319 1.353 . S
C1317 H1373 0.929 . S
C1318 C1314 1.356 . S
C1318 C1315 1.358 . S
C1318 H1374 0.930 . S
C1319 N1316 1.314 . S
C1319 C1317 1.353 . S
C1319 H1375 0.930 . S
C1320 N1321 1.314 . S
C1320 C1325 1.353 . S
C1320 H1326 0.930 . S
N1321 Li1304 1.990 . S
N1321 C1320 1.314 . S
N1321 C1323 1.279 . S
C1322 C1323 1.358 . S
C1322 C1324 1.356 . S
C1322 H1376 0.930 . S
C1323 N1321 1.279 . S
C1323 C1322 1.358 . S
C1323 H1327 0.930 . S
C1324 C1322 1.356 . S
C1324 C1325 1.348 . S
C1325 C1320 1.353 . S
C1325 C1324 1.348 . S
C1325 H1377 0.929 . S
H1326 C1320 0.930 . S
H1327 C1323 0.930 . S
C1328 N1329 1.314 . S
C1328 C1330 1.353 . S
C1328 H1334 0.930 . S
N1329 Li1305 1.990 . S
N1329 C1328 1.314 . S
N1329 C1332 1.279 . S
C1330 C1328 1.353 . S
C1330 C1333 1.348 . S
C1330 H1378 0.929 . S
C1331 C1332 1.358 . S
C1331 C1333 1.356 . S
C1331 H1379 0.930 . S
C1332 N1329 1.279 . S
C1332 C1331 1.358 . S
C1332 H1335 0.930 . S
C1333 C1330 1.348 . S
C1333 C1331 1.356 . S
H1334 C1328 0.930 . S
H1335 C1332 0.930 . S
C1336 C1338 1.348 . S
C1336 C1339 1.356 . S
C1336 O1366 1.325 . S
N1337 C1340 1.314 . S
N1337 C1341 1.279 . S
C1338 C1336 1.348 . S
C1338 C1340 1.353 . S
C1338 H1380 0.929 . S
C1339 C1336 1.356 . S
C1339 C1341 1.358 . S
C1339 H1381 0.930 . S
C1340 N1337 1.314 . S
C1340 C1338 1.353 . S
C1340 H1382 0.930 . S
C1341 N1337 1.279 . S
C1341 C1339 1.358 . S
C1341 H1383 0.930 . S
C1342 C1343 1.348 . S
C1342 C1344 1.356 . S
C1342 O1367 1.325 . S
C1343 C1342 1.348 . S
C1343 C1345 1.353 . S
C1343 H1384 0.929 . S
C1344 C1342 1.356 . S
C1344 C1346 1.358 . S
C1344 H1385 0.930 . S
C1345 C1343 1.353 . S
C1345 N1347 1.314 . S
C1345 H1386 0.930 . S
C1346 C1344 1.358 . S
C1346 N1347 1.279 . S
C1346 H1387 0.930 . S
N1347 C1345 1.314 . S
N1347 C1346 1.279 . S
C1348 C1350 1.353 . S
C1348 N1351 1.314 . S
C1348 H1354 0.930 . S
C1349 N1351 1.279 . S
C1349 C1352 1.358 . S
C1349 H1355 0.930 . S
C1350 C1348 1.353 . S
C1350 C1353 1.348 . S
C1350 H1388 0.929 . S
N1351 Li1306 1.990 . S
N1351 C1348 1.314 . S
N1351 C1349 1.279 . S
C1352 C1349 1.358 . S
C1352 C1353 1.356 . S
C1352 H1389 0.930 . S
C1353 C1350 1.348 . S
C1353 C1352 1.356 . S
H1354 C1348 0.930 . S
H1355 C1349 0.930 . S
C1356 N1357 1.314 . S
C1356 C1358 1.353 . S
C1356 H1362 0.930 . S
N1357 Li1307 1.990 . S
N1357 C1356 1.314 . S
N1357 C1360 1.279 . S
C1358 C1356 1.353 . S
C1358 C1361 1.348 . S
C1358 H1390 0.929 . S
C1359 C1360 1.358 . S
C1359 C1361 1.356 . S
C1359 H1391 0.930 . S
C1360 N1357 1.279 . S
C1360 C1359 1.358 . S
C1360 H1363 0.930 . S
C1361 C1358 1.348 . S
C1361 C1359 1.356 . S
H1362 C1356 0.930 . S
H1363 C1360 0.930 . S
O1364 Li1304 1.956 . S
O1364 Li1305 1.970 . S
O1364 Li1306 1.961 . S
O1364 C1308 1.325 . S
O1365 Li1304 1.970 . S
O1365 Li1305 1.956 . S
O1365 Li1307 1.961 . S
O1365 C1314 1.325 . S
O1366 Li1304 1.961 . S
O1366 Li1306 1.956 . S
O1366 Li1307 1.970 . S
O1366 C1336 1.325 . S
O1367 Li1305 1.961 . S
O1367 Li1306 1.970 . S
O1367 Li1307 1.956 . S
O1367 C1342 1.325 . S
H1368 C1310 0.929 . S
H1369 C1311 0.930 . S
H1370 C1312 0.930 . S
H1371 C1313 0.930 . S
H1372 C1315 0.930 . S
H1373 C1317 0.929 . S
H1374 C1318 0.930 . S
H1375 C1319 0.930 . S
H1376 C1322 0.930 . S
H1377 C1325 0.929 . S
H1378 C1330 0.929 . S
H1379 C1331 0.930 . S
H1380 C1338 0.929 . S
H1381 C1339 0.930 . S
H1382 C1340 0.930 . S
H1383 C1341 0.930 . S
H1384 C1343 0.929 . S
H1385 C1344 0.930 . S
H1386 C1345 0.930 . S
H1387 C1346 0.930 . S
H1388 C1350 0.929 . S
H1389 C1352 0.930 . S
H1390 C1358 0.929 . S
H1391 C1359 0.930 . S
Li1392 N1409 1.990 . S
Li1392 O1452 1.956 . S
Li1392 O1453 1.970 1_455 S
Li1392 O1454 1.961 . S
Li1393 N1417 1.990 . S
Li1393 O1452 1.970 1_655 S
Li1393 O1453 1.956 . S
Li1393 O1455 1.961 . S
Li1394 N1439 1.990 . S
Li1394 O1452 1.961 . S
Li1394 O1454 1.956 . S
Li1394 O1455 1.970 1_455 S
Li1395 N1445 1.990 . S
Li1395 O1453 1.961 . S
Li1395 O1454 1.970 1_655 S
Li1395 O1455 1.956 . S
C1396 C1398 1.348 1_455 S
C1396 C1399 1.356 . S
C1396 O1452 1.325 . S
N1397 C1400 1.314 1_455 S
N1397 C1401 1.279 . S
C1398 C1396 1.348 1_655 S
C1398 C1400 1.353 . S
C1398 H1456 0.929 . S
C1399 C1396 1.356 . S
C1399 C1401 1.358 . S
C1399 H1457 0.930 . S
C1400 N1397 1.314 1_655 S
C1400 C1398 1.353 . S
C1400 H1458 0.930 . S
C1401 N1397 1.279 . S
C1401 C1399 1.358 . S
C1401 H1459 0.930 . S
C1402 C1405 1.348 . S
C1402 C1406 1.356 . S
C1402 O1453 1.325 . S
C1403 N1404 1.279 . S
C1403 C1406 1.358 . S
C1403 H1460 0.930 . S
N1404 C1403 1.279 . S
N1404 C1407 1.314 . S
C1405 C1402 1.348 . S
C1405 C1407 1.353 . S
C1405 H1461 0.929 . S
C1406 C1402 1.356 . S
C1406 C1403 1.358 . S
C1406 H1462 0.930 . S
C1407 N1404 1.314 . S
C1407 C1405 1.353 . S
C1407 H1463 0.930 . S
C1408 N1409 1.314 . S
C1408 C1413 1.353 . S
C1408 H1414 0.930 . S
N1409 Li1392 1.990 . S
N1409 C1408 1.314 . S
N1409 C1411 1.279 . S
C1410 C1411 1.358 . S
C1410 C1412 1.356 . S
C1410 H1464 0.930 . S
C1411 N1409 1.279 . S
C1411 C1410 1.358 . S
C1411 H1415 0.930 . S
C1412 C1410 1.356 . S
C1412 C1413 1.348 . S
C1413 C1408 1.353 . S
C1413 C1412 1.348 . S
C1413 H1465 0.929 . S
H1414 C1408 0.930 . S
H1415 C1411 0.930 . S
C1416 N1417 1.314 . S
C1416 C1418 1.353 . S
C1416 H1422 0.930 . S
N1417 Li1393 1.990 . S
N1417 C1416 1.314 . S
N1417 C1420 1.279 . S
C1418 C1416 1.353 . S
C1418 C1421 1.348 . S
C1418 H1466 0.929 . S
C1419 C1420 1.358 . S
C1419 C1421 1.356 . S
C1419 H1467 0.930 . S
C1420 N1417 1.279 . S
C1420 C1419 1.358 . S
C1420 H1423 0.930 . S
C1421 C1418 1.348 . S
C1421 C1419 1.356 . S
H1422 C1416 0.930 . S
H1423 C1420 0.930 . S
C1424 C1426 1.348 . S
C1424 C1427 1.356 . S
C1424 O1454 1.325 . S
N1425 C1428 1.314 . S
N1425 C1429 1.279 . S
C1426 C1424 1.348 . S
C1426 C1428 1.353 . S
C1426 H1468 0.929 . S
C1427 C1424 1.356 . S
C1427 C1429 1.358 . S
C1427 H1469 0.930 . S
C1428 N1425 1.314 . S
C1428 C1426 1.353 . S
C1428 H1470 0.930 . S
C1429 N1425 1.279 . S
C1429 C1427 1.358 . S
C1429 H1471 0.930 . S
C1430 C1431 1.348 1_655 S
C1430 C1432 1.356 . S
C1430 O1455 1.325 . S
C1431 C1430 1.348 1_455 S
C1431 C1433 1.353 . S
C1431 H1472 0.929 . S
C1432 C1430 1.356 . S
C1432 C1434 1.358 . S
C1432 H1473 0.930 . S
C1433 C1431 1.353 . S
C1433 N1435 1.314 1_455 S
C1433 H1474 0.930 . S
C1434 C1432 1.358 . S
C1434 N1435 1.279 . S
C1434 H1475 0.930 . S
N1435 C1433 1.314 1_655 S
N1435 C1434 1.279 . S
C1436 C1438 1.353 . S
C1436 N1439 1.314 . S
C1436 H1442 0.930 . S
C1437 N1439 1.279 . S
C1437 C1440 1.358 . S
C1437 H1443 0.930 . S
C1438 C1436 1.353 . S
C1438 C1441 1.348 . S
C1438 H1476 0.929 . S
N1439 Li1394 1.990 . S
N1439 C1436 1.314 . S
N1439 C1437 1.279 . S
C1440 C1437 1.358 . S
C1440 C1441 1.356 . S
C1440 H1477 0.930 . S
C1441 C1438 1.348 . S
C1441 C1440 1.356 . S
H1442 C1436 0.930 . S
H1443 C1437 0.930 . S
C1444 N1445 1.314 . S
C1444 C1446 1.353 . S
C1444 H1450 0.930 . S
N1445 Li1395 1.990 . S
N1445 C1444 1.314 . S
N1445 C1448 1.279 . S
C1446 C1444 1.353 . S
C1446 C1449 1.348 . S
C1446 H1478 0.929 . S
C1447 C1448 1.358 . S
C1447 C1449 1.356 . S
C1447 H1479 0.930 . S
C1448 N1445 1.279 . S
C1448 C1447 1.358 . S
C1448 H1451 0.930 . S
C1449 C1446 1.348 . S
C1449 C1447 1.356 . S
H1450 C1444 0.930 . S
H1451 C1448 0.930 . S
O1452 Li1392 1.956 . S
O1452 Li1393 1.970 1_455 S
O1452 Li1394 1.961 . S
O1452 C1396 1.325 . S
O1453 Li1392 1.970 1_655 S
O1453 Li1393 1.956 . S
O1453 Li1395 1.961 . S
O1453 C1402 1.325 . S
O1454 Li1392 1.961 . S
O1454 Li1394 1.956 . S
O1454 Li1395 1.970 1_455 S
O1454 C1424 1.325 . S
O1455 Li1393 1.961 . S
O1455 Li1394 1.970 1_655 S
O1455 Li1395 1.956 . S
O1455 C1430 1.325 . S
H1456 C1398 0.929 . S
H1457 C1399 0.930 . S
H1458 C1400 0.930 . S
H1459 C1401 0.930 . S
H1460 C1403 0.930 . S
H1461 C1405 0.929 . S
H1462 C1406 0.930 . S
H1463 C1407 0.930 . S
H1464 C1410 0.930 . S
H1465 C1413 0.929 . S
H1466 C1418 0.929 . S
H1467 C1419 0.930 . S
H1468 C1426 0.929 . S
H1469 C1427 0.930 . S
H1470 C1428 0.930 . S
H1471 C1429 0.930 . S
H1472 C1431 0.929 . S
H1473 C1432 0.930 . S
H1474 C1433 0.930 . S
H1475 C1434 0.930 . S
H1476 C1438 0.929 . S
H1477 C1440 0.930 . S
H1478 C1446 0.929 . S
H1479 C1447 0.930 . S
Li1480 N1497 1.990 . S
Li1480 O1540 1.956 . S
Li1480 O1541 1.970 . S
Li1480 O1542 1.961 . S
Li1481 N1505 1.990 . S
Li1481 O1540 1.970 . S
Li1481 O1541 1.956 . S
Li1481 O1543 1.961 . S
Li1482 N1527 1.990 . S
Li1482 O1540 1.961 . S
Li1482 O1542 1.956 . S
Li1482 O1543 1.970 . S
Li1483 N1533 1.990 . S
Li1483 O1541 1.961 . S
Li1483 O1542 1.970 . S
Li1483 O1543 1.956 . S
C1484 C1486 1.348 . S
C1484 C1487 1.356 . S
C1484 O1540 1.325 . S
N1485 C1488 1.314 . S
N1485 C1489 1.279 . S
C1486 C1484 1.348 . S
C1486 C1488 1.353 . S
C1486 H1544 0.929 . S
C1487 C1484 1.356 . S
C1487 C1489 1.358 . S
C1487 H1545 0.930 . S
C1488 N1485 1.314 . S
C1488 C1486 1.353 . S
C1488 H1546 0.930 . S
C1489 N1485 1.279 . S
C1489 C1487 1.358 . S
C1489 H1547 0.930 . S
C1490 C1493 1.348 . S
C1490 C1494 1.356 . S
C1490 O1541 1.325 . S
C1491 N1492 1.279 . S
C1491 C1494 1.358 . S
C1491 H1548 0.930 . S
N1492 C1491 1.279 . S
N1492 C1495 1.314 . S
C1493 C1490 1.348 . S
C1493 C1495 1.353 . S
C1493 H1549 0.929 . S
C1494 C1490 1.356 . S
C1494 C1491 1.358 . S
C1494 H1550 0.930 . S
C1495 N1492 1.314 . S
C1495 C1493 1.353 . S
C1495 H1551 0.930 . S
C1496 N1497 1.314 . S
C1496 C1501 1.353 . S
C1496 H1502 0.930 . S
N1497 Li1480 1.990 . S
N1497 C1496 1.314 . S
N1497 C1499 1.279 . S
C1498 C1499 1.358 . S
C1498 C1500 1.356 . S
C1498 H1552 0.930 . S
C1499 N1497 1.279 . S
C1499 C1498 1.358 . S
C1499 H1503 0.930 . S
C1500 C1498 1.356 . S
C1500 C1501 1.348 . S
C1501 C1496 1.353 . S
C1501 C1500 1.348 . S
C1501 H1553 0.929 . S
H1502 C1496 0.930 . S
H1503 C1499 0.930 . S
C1504 N1505 1.314 . S
C1504 C1506 1.353 . S
C1504 H1510 0.930 . S
N1505 Li1481 1.990 . S
N1505 C1504 1.314 . S
N1505 C1508 1.279 . S
C1506 C1504 1.353 . S
C1506 C1509 1.348 . S
C1506 H1554 0.929 . S
C1507 C1508 1.358 . S
C1507 C1509 1.356 . S
C1507 H1555 0.930 . S
C1508 N1505 1.279 . S
C1508 C1507 1.358 . S
C1508 H1511 0.930 . S
C1509 C1506 1.348 . S
C1509 C1507 1.356 . S
H1510 C1504 0.930 . S
H1511 C1508 0.930 . S
C1512 C1514 1.348 . S
C1512 C1515 1.356 . S
C1512 O1542 1.325 . S
N1513 C1516 1.314 . S
N1513 C1517 1.279 . S
C1514 C1512 1.348 . S
C1514 C1516 1.353 . S
C1514 H1556 0.929 . S
C1515 C1512 1.356 . S
C1515 C1517 1.358 . S
C1515 H1557 0.930 . S
C1516 N1513 1.314 . S
C1516 C1514 1.353 . S
C1516 H1558 0.930 . S
C1517 N1513 1.279 . S
C1517 C1515 1.358 . S
C1517 H1559 0.930 . S
C1518 C1519 1.348 . S
C1518 C1520 1.356 . S
C1518 O1543 1.325 . S
C1519 C1518 1.348 . S
C1519 C1521 1.353 . S
C1519 H1560 0.929 . S
C1520 C1518 1.356 . S
C1520 C1522 1.358 . S
C1520 H1561 0.930 . S
C1521 C1519 1.353 . S
C1521 N1523 1.314 . S
C1521 H1562 0.930 . S
C1522 C1520 1.358 . S
C1522 N1523 1.279 . S
C1522 H1563 0.930 . S
N1523 C1521 1.314 . S
N1523 C1522 1.279 . S
C1524 C1526 1.353 . S
C1524 N1527 1.314 . S
C1524 H1530 0.930 . S
C1525 N1527 1.279 . S
C1525 C1528 1.358 . S
C1525 H1531 0.930 . S
C1526 C1524 1.353 . S
C1526 C1529 1.348 . S
C1526 H1564 0.929 . S
N1527 Li1482 1.990 . S
N1527 C1524 1.314 . S
N1527 C1525 1.279 . S
C1528 C1525 1.358 . S
C1528 C1529 1.356 . S
C1528 H1565 0.930 . S
C1529 C1526 1.348 . S
C1529 C1528 1.356 . S
H1530 C1524 0.930 . S
H1531 C1525 0.930 . S
C1532 N1533 1.314 . S
C1532 C1534 1.353 . S
C1532 H1538 0.930 . S
N1533 Li1483 1.990 . S
N1533 C1532 1.314 . S
N1533 C1536 1.279 . S
C1534 C1532 1.353 . S
C1534 C1537 1.348 . S
C1534 H1566 0.929 . S
C1535 C1536 1.358 . S
C1535 C1537 1.356 . S
C1535 H1567 0.930 . S
C1536 N1533 1.279 . S
C1536 C1535 1.358 . S
C1536 H1539 0.930 . S
C1537 C1534 1.348 . S
C1537 C1535 1.356 . S
H1538 C1532 0.930 . S
H1539 C1536 0.930 . S
O1540 Li1480 1.956 . S
O1540 Li1481 1.970 . S
O1540 Li1482 1.961 . S
O1540 C1484 1.325 . S
O1541 Li1480 1.970 . S
O1541 Li1481 1.956 . S
O1541 Li1483 1.961 . S
O1541 C1490 1.325 . S
O1542 Li1480 1.961 . S
O1542 Li1482 1.956 . S
O1542 Li1483 1.970 . S
O1542 C1512 1.325 . S
O1543 Li1481 1.961 . S
O1543 Li1482 1.970 . S
O1543 Li1483 1.956 . S
O1543 C1518 1.325 . S
H1544 C1486 0.929 . S
H1545 C1487 0.930 . S
H1546 C1488 0.930 . S
H1547 C1489 0.930 . S
H1548 C1491 0.930 . S
H1549 C1493 0.929 . S
H1550 C1494 0.930 . S
H1551 C1495 0.930 . S
H1552 C1498 0.930 . S
H1553 C1501 0.929 . S
H1554 C1506 0.929 . S
H1555 C1507 0.930 . S
H1556 C1514 0.929 . S
H1557 C1515 0.930 . S
H1558 C1516 0.930 . S
H1559 C1517 0.930 . S
H1560 C1519 0.929 . S
H1561 C1520 0.930 . S
H1562 C1521 0.930 . S
H1563 C1522 0.930 . S
H1564 C1526 0.929 . S
H1565 C1528 0.930 . S
H1566 C1534 0.929 . S
H1567 C1535 0.930 . S
H1568 C1576 0.950 . S
H1569 C1581 0.950 . S
H1570 C1578 0.950 . S
H1571 C1580 0.950 . S
H1572 C1582 0.950 . S
H1573 C1584 0.950 . S
H1574 C1586 0.950 . S
H1575 C1587 0.950 . S
C1576 H1568 0.950 . S
C1576 C1577 1.386 . S
C1576 C1578 1.391 . S
C1577 C1576 1.386 . S
C1577 C1581 1.393 . S
C1578 H1570 0.950 . S
C1578 C1576 1.391 . S
C1578 C1579 1.400 . S
C1579 C1578 1.400 . S
C1579 C1580 1.398 . S
C1579 C1585 1.491 . S
C1580 H1571 0.950 . S
C1580 C1579 1.398 . S
C1580 C1581 1.391 . S
C1581 H1569 0.950 . S
C1581 C1577 1.393 . S
C1581 C1580 1.391 . S
C1582 H1572 0.950 . S
C1582 C1583 1.386 . S
C1582 C1584 1.391 . S
C1583 C1582 1.386 . S
C1583 C1587 1.393 . S
C1584 H1573 0.950 . S
C1584 C1582 1.391 . S
C1584 C1585 1.400 . S
C1585 C1579 1.491 . S
C1585 C1584 1.400 . S
C1585 C1586 1.398 . S
C1586 H1574 0.950 . S
C1586 C1585 1.398 . S
C1586 C1587 1.391 . S
C1587 H1575 0.950 . S
C1587 C1583 1.393 . S
C1587 C1586 1.391 . S
H1588 C1596 0.950 1_655 S
H1589 C1601 0.950 . S
H1590 C1598 0.950 . S
H1591 C1600 0.950 . S
H1592 C1602 0.950 . S
H1593 C1604 0.950 . S
H1594 C1606 0.950 . S
H1595 C1607 0.950 . S
C1596 H1588 0.950 1_455 S
C1596 C1597 1.386 . S
C1596 C1598 1.391 . S
C1597 C1596 1.386 . S
C1597 C1601 1.393 . S
C1598 H1590 0.950 . S
C1598 C1596 1.391 . S
C1598 C1599 1.400 . S
C1599 C1598 1.400 . S
C1599 C1600 1.398 . S
C1599 C1605 1.491 . S
C1600 H1591 0.950 . S
C1600 C1599 1.398 . S
C1600 C1601 1.391 . S
C1601 H1589 0.950 . S
C1601 C1597 1.393 . S
C1601 C1600 1.391 . S
C1602 H1592 0.950 . S
C1602 C1603 1.386 . S
C1602 C1604 1.391 . S
C1603 C1602 1.386 . S
C1603 C1607 1.393 . S
C1604 H1593 0.950 . S
C1604 C1602 1.391 . S
C1604 C1605 1.400 . S
C1605 C1599 1.491 . S
C1605 C1604 1.400 . S
C1605 C1606 1.398 . S
C1606 H1594 0.950 . S
C1606 C1605 1.398 . S
C1606 C1607 1.391 . S
C1607 H1595 0.950 . S
C1607 C1603 1.393 . S
C1607 C1606 1.391 . S
H1608 C1616 0.950 . S
H1609 C1621 0.950 . S
H1610 C1618 0.950 . S
H1611 C1620 0.950 . S
H1612 C1622 0.950 . S
H1613 C1624 0.950 . S
H1614 C1626 0.950 . S
H1615 C1627 0.950 . S
C1616 H1608 0.950 . S
C1616 C1617 1.386 . S
C1616 C1618 1.391 . S
C1617 C1616 1.386 . S
C1617 C1621 1.393 . S
C1618 H1610 0.950 . S
C1618 C1616 1.391 . S
C1618 C1619 1.400 . S
C1619 C1618 1.400 . S
C1619 C1620 1.398 . S
C1619 C1625 1.491 . S
C1620 H1611 0.950 . S
C1620 C1619 1.398 . S
C1620 C1621 1.391 . S
C1621 H1609 0.950 . S
C1621 C1617 1.393 . S
C1621 C1620 1.391 . S
C1622 H1612 0.950 . S
C1622 C1623 1.386 . S
C1622 C1624 1.391 . S
C1623 C1622 1.386 . S
C1623 C1627 1.393 . S
C1624 H1613 0.950 . S
C1624 C1622 1.391 . S
C1624 C1625 1.400 . S
C1625 C1619 1.491 . S
C1625 C1624 1.400 . S
C1625 C1626 1.398 . S
C1626 H1614 0.950 . S
C1626 C1625 1.398 . S
C1626 C1627 1.391 . S
C1627 H1615 0.950 . S
C1627 C1623 1.393 . S
C1627 C1626 1.391 . S
H1628 C1636 0.950 . S
H1629 C1641 0.950 1_455 S
H1630 C1638 0.950 . S
H1631 C1640 0.950 . S
H1632 C1642 0.950 . S
H1633 C1644 0.950 . S
H1634 C1646 0.950 . S
H1635 C1647 0.950 1_545 S
C1636 H1628 0.950 . S
C1636 C1637 1.386 . S
C1636 C1638 1.391 . S
C1637 C1636 1.386 . S
C1637 C1641 1.393 . S
C1638 H1630 0.950 . S
C1638 C1636 1.391 . S
C1638 C1639 1.400 . S
C1639 C1638 1.400 . S
C1639 C1640 1.398 . S
C1639 C1645 1.491 . S
C1640 H1631 0.950 . S
C1640 C1639 1.398 . S
C1640 C1641 1.391 . S
C1641 H1629 0.950 1_655 S
C1641 C1637 1.393 . S
C1641 C1640 1.391 . S
C1642 H1632 0.950 . S
C1642 C1643 1.386 . S
C1642 C1644 1.391 . S
C1643 C1642 1.386 . S
C1643 C1647 1.393 . S
C1644 H1633 0.950 . S
C1644 C1642 1.391 . S
C1644 C1645 1.400 . S
C1645 C1639 1.491 . S
C1645 C1644 1.400 . S
C1645 C1646 1.398 . S
C1646 H1634 0.950 . S
C1646 C1645 1.398 . S
C1646 C1647 1.391 . S
C1647 H1635 0.950 1_565 S
C1647 C1643 1.393 . S
C1647 C1646 1.391 . S
H1648 C1656 0.950 . S
H1649 C1661 0.950 . S
H1650 C1658 0.950 . S
H1651 C1660 0.950 . S
H1652 C1662 0.950 . S
H1653 C1664 0.950 . S
H1654 C1666 0.950 . S
H1655 C1667 0.950 . S
C1656 H1648 0.950 . S
C1656 C1657 1.386 . S
C1656 C1658 1.391 . S
C1657 C1656 1.386 . S
C1657 C1661 1.393 . S
C1658 H1650 0.950 . S
C1658 C1656 1.391 . S
C1658 C1659 1.400 . S
C1659 C1658 1.400 . S
C1659 C1660 1.398 . S
C1659 C1665 1.491 . S
C1660 H1651 0.950 . S
C1660 C1659 1.398 . S
C1660 C1661 1.391 . S
C1661 H1649 0.950 . S
C1661 C1657 1.393 . S
C1661 C1660 1.391 . S
C1662 H1652 0.950 . S
C1662 C1663 1.386 . S
C1662 C1664 1.391 . S
C1663 C1662 1.386 . S
C1663 C1667 1.393 . S
C1664 H1653 0.950 . S
C1664 C1662 1.391 . S
C1664 C1665 1.400 . S
C1665 C1659 1.491 . S
C1665 C1664 1.400 . S
C1665 C1666 1.398 . S
C1666 H1654 0.950 . S
C1666 C1665 1.398 . S
C1666 C1667 1.391 . S
C1667 H1655 0.950 . S
C1667 C1663 1.393 . S
C1667 C1666 1.391 . S
H1668 C1676 0.950 . S
H1669 C1681 0.950 . S
H1670 C1678 0.950 . S
H1671 C1680 0.950 . S
H1672 C1682 0.950 . S
H1673 C1684 0.950 . S
H1674 C1686 0.950 . S
H1675 C1687 0.950 . S
C1676 H1668 0.950 . S
C1676 C1677 1.386 . S
C1676 C1678 1.391 . S
C1677 C1676 1.386 . S
C1677 C1681 1.393 . S
C1678 H1670 0.950 . S
C1678 C1676 1.391 . S
C1678 C1679 1.400 . S
C1679 C1678 1.400 . S
C1679 C1680 1.398 . S
C1679 C1685 1.491 . S
C1680 H1671 0.950 . S
C1680 C1679 1.398 . S
C1680 C1681 1.391 . S
C1681 H1669 0.950 . S
C1681 C1677 1.393 . S
C1681 C1680 1.391 . S
C1682 H1672 0.950 . S
C1682 C1683 1.386 . S
C1682 C1684 1.391 . S
C1683 C1682 1.386 . S
C1683 C1687 1.393 . S
C1684 H1673 0.950 . S
C1684 C1682 1.391 . S
C1684 C1685 1.400 . S
C1685 C1679 1.491 . S
C1685 C1684 1.400 . S
C1685 C1686 1.398 . S
C1686 H1674 0.950 . S
C1686 C1685 1.398 . S
C1686 C1687 1.391 . S
C1687 H1675 0.950 . S
C1687 C1683 1.393 . S
C1687 C1686 1.391 . S
H1688 C1696 0.950 . S
H1689 C1701 0.950 . S
H1690 C1698 0.950 . S
H1691 C1700 0.950 . S
H1692 C1702 0.950 . S
H1693 C1704 0.950 . S
H1694 C1706 0.950 . S
H1695 C1707 0.950 . S
C1696 H1688 0.950 . S
C1696 C1697 1.386 . S
C1696 C1698 1.391 . S
C1697 C1696 1.386 . S
C1697 C1701 1.393 . S
C1698 H1690 0.950 . S
C1698 C1696 1.391 . S
C1698 C1699 1.400 . S
C1699 C1698 1.400 . S
C1699 C1700 1.398 . S
C1699 C1705 1.491 . S
C1700 H1691 0.950 . S
C1700 C1699 1.398 . S
C1700 C1701 1.391 . S
C1701 H1689 0.950 . S
C1701 C1697 1.393 . S
C1701 C1700 1.391 . S
C1702 H1692 0.950 . S
C1702 C1703 1.386 . S
C1702 C1704 1.391 . S
C1703 C1702 1.386 . S
C1703 C1707 1.393 . S
C1704 H1693 0.950 . S
C1704 C1702 1.391 . S
C1704 C1705 1.400 . S
C1705 C1699 1.491 . S
C1705 C1704 1.400 . S
C1705 C1706 1.398 . S
C1706 H1694 0.950 . S
C1706 C1705 1.398 . S
C1706 C1707 1.391 . S
C1707 H1695 0.950 . S
C1707 C1703 1.393 . S
C1707 C1706 1.391 . S
H1708 C1716 0.950 . S
H1709 C1721 0.950 . S
H1710 C1718 0.950 . S
H1711 C1720 0.950 . S
H1712 C1722 0.918 1_545 S
H1713 C1724 0.950 1_545 S
H1714 C1726 0.950 . S
H1715 C1727 0.950 . S
C1716 H1708 0.950 . S
C1716 C1717 1.386 . S
C1716 C1718 1.391 . S
C1717 C1716 1.386 . S
C1717 C1721 1.393 . S
C1718 H1710 0.950 . S
C1718 C1716 1.391 . S
C1718 C1719 1.400 . S
C1719 C1718 1.400 . S
C1719 C1720 1.398 . S
C1719 C1725 1.491 . S
C1720 H1711 0.950 . S
C1720 C1719 1.398 . S
C1720 C1721 1.391 . S
C1721 H1709 0.950 . S
C1721 C1717 1.393 . S
C1721 C1720 1.391 . S
C1722 H1712 0.918 1_565 S
C1722 C1723 1.413 . S
C1722 C1724 1.400 . S
C1723 C1722 1.413 . S
C1723 C1727 1.393 . S
C1724 H1713 0.950 1_565 S
C1724 C1722 1.400 . S
C1724 C1725 1.400 . S
C1725 C1719 1.491 . S
C1725 C1724 1.400 . S
C1725 C1726 1.398 . S
C1726 H1714 0.950 . S
C1726 C1725 1.398 . S
C1726 C1727 1.391 . S
C1727 H1715 0.950 . S
C1727 C1723 1.393 . S
C1727 C1726 1.391 . S
H1728 C1736 0.950 . S
H1729 C1741 0.950 . S
H1730 C1738 0.950 . S
H1731 C1740 0.950 . S
H1732 C1742 0.950 . S
H1733 C1744 0.950 . S
H1734 C1746 0.950 . S
H1735 C1747 0.950 . S
C1736 H1728 0.950 . S
C1736 C1737 1.386 . S
C1736 C1738 1.391 . S
C1737 C1736 1.386 . S
C1737 C1741 1.393 . S
C1738 H1730 0.950 . S
C1738 C1736 1.391 . S
C1738 C1739 1.400 . S
C1739 C1738 1.400 . S
C1739 C1740 1.398 . S
C1739 C1745 1.491 . S
C1740 H1731 0.950 . S
C1740 C1739 1.398 . S
C1740 C1741 1.391 . S
C1741 H1729 0.950 . S
C1741 C1737 1.393 . S
C1741 C1740 1.391 . S
C1742 H1732 0.950 . S
C1742 C1743 1.386 . S
C1742 C1744 1.391 . S
C1743 C1742 1.386 . S
C1743 C1747 1.393 . S
C1744 H1733 0.950 . S
C1744 C1742 1.391 . S
C1744 C1745 1.400 . S
C1745 C1739 1.491 . S
C1745 C1744 1.400 . S
C1745 C1746 1.398 . S
C1746 H1734 0.950 . S
C1746 C1745 1.398 . S
C1746 C1747 1.391 . S
C1747 H1735 0.950 . S
C1747 C1743 1.393 . S
C1747 C1746 1.391 . S
H1748 C1756 0.950 . S
H1749 C1761 0.950 . S
H1750 C1758 0.950 . S
H1751 C1760 0.950 . S
H1752 C1762 0.950 . S
H1753 C1764 0.950 . S
H1754 C1766 0.950 . S
H1755 C1767 0.950 . S
C1756 H1748 0.950 . S
C1756 C1757 1.386 . S
C1756 C1758 1.391 . S
C1757 C1756 1.386 . S
C1757 C1761 1.393 . S
C1758 H1750 0.950 . S
C1758 C1756 1.391 . S
C1758 C1759 1.400 . S
C1759 C1758 1.400 . S
C1759 C1760 1.398 . S
C1759 C1765 1.491 . S
C1760 H1751 0.950 . S
C1760 C1759 1.398 . S
C1760 C1761 1.391 . S
C1761 H1749 0.950 . S
C1761 C1757 1.393 . S
C1761 C1760 1.391 . S
C1762 H1752 0.950 . S
C1762 C1763 1.386 . S
C1762 C1764 1.391 . S
C1763 C1762 1.386 . S
C1763 C1767 1.393 . S
C1764 H1753 0.950 . S
C1764 C1762 1.391 . S
C1764 C1765 1.400 . S
C1765 C1759 1.491 . S
C1765 C1764 1.400 . S
C1765 C1766 1.398 . S
C1766 H1754 0.950 . S
C1766 C1765 1.398 . S
C1766 C1767 1.391 . S
C1767 H1755 0.950 . S
C1767 C1763 1.393 . S
C1767 C1766 1.391 . S
H1768 C1776 0.950 . S
H1769 C1781 0.950 . S
H1770 C1778 0.950 . S
H1771 C1780 0.950 . S
H1772 C1782 0.950 . S
H1773 C1784 0.950 . S
H1774 C1786 0.950 . S
H1775 C1787 0.950 . S
C1776 H1768 0.950 . S
C1776 C1777 1.386 . S
C1776 C1778 1.391 . S
C1777 C1776 1.386 . S
C1777 C1781 1.393 . S
C1778 H1770 0.950 . S
C1778 C1776 1.391 . S
C1778 C1779 1.400 . S
C1779 C1778 1.400 . S
C1779 C1780 1.398 . S
C1779 C1785 1.491 . S
C1780 H1771 0.950 . S
C1780 C1779 1.398 . S
C1780 C1781 1.391 . S
C1781 H1769 0.950 . S
C1781 C1777 1.393 . S
C1781 C1780 1.391 . S
C1782 H1772 0.950 . S
C1782 C1783 1.386 . S
C1782 C1784 1.391 . S
C1783 C1782 1.386 . S
C1783 C1787 1.393 . S
C1784 H1773 0.950 . S
C1784 C1782 1.391 . S
C1784 C1785 1.400 . S
C1785 C1779 1.491 . S
C1785 C1784 1.400 . S
C1785 C1786 1.398 . S
C1786 H1774 0.950 . S
C1786 C1785 1.398 . S
C1786 C1787 1.391 . S
C1787 H1775 0.950 . S
C1787 C1783 1.393 . S
C1787 C1786 1.391 . S
H1788 C1796 0.950 . S
H1789 C1801 0.950 . S
H1790 C1798 0.950 . S
H1791 C1800 0.950 . S
H1792 C1802 0.950 . S
H1793 C1804 0.950 . S
H1794 C1806 0.950 . S
H1795 C1807 0.950 . S
C1796 H1788 0.950 . S
C1796 C1797 1.386 . S
C1796 C1798 1.391 . S
C1797 C1796 1.386 . S
C1797 C1801 1.393 . S
C1798 H1790 0.950 . S
C1798 C1796 1.391 . S
C1798 C1799 1.400 . S
C1799 C1798 1.400 . S
C1799 C1800 1.398 . S
C1799 C1805 1.491 . S
C1800 H1791 0.950 . S
C1800 C1799 1.398 . S
C1800 C1801 1.391 . S
C1801 H1789 0.950 . S
C1801 C1797 1.393 . S
C1801 C1800 1.391 . S
C1802 H1792 0.950 . S
C1802 C1803 1.386 . S
C1802 C1804 1.391 . S
C1803 C1802 1.386 . S
C1803 C1807 1.393 . S
C1804 H1793 0.950 . S
C1804 C1802 1.391 . S
C1804 C1805 1.400 . S
C1805 C1799 1.491 . S
C1805 C1804 1.400 . S
C1805 C1806 1.398 . S
C1806 H1794 0.950 . S
C1806 C1805 1.398 . S
C1806 C1807 1.391 . S
C1807 H1795 0.950 . S
C1807 C1803 1.393 . S
C1807 C1806 1.391 . S
H1808 C1816 0.950 . S
H1809 C1821 0.950 . S
H1810 C1818 0.950 . S
H1811 C1820 0.950 . S
H1812 C1822 0.950 . S
H1813 C1824 0.950 . S
H1814 C1826 0.950 . S
H1815 C1827 0.950 . S
C1816 H1808 0.950 . S
C1816 C1817 1.386 . S
C1816 C1818 1.391 . S
C1817 C1816 1.386 . S
C1817 C1821 1.393 . S
C1818 H1810 0.950 . S
C1818 C1816 1.391 . S
C1818 C1819 1.400 . S
C1819 C1818 1.400 . S
C1819 C1820 1.398 . S
C1819 C1825 1.491 . S
C1820 H1811 0.950 . S
C1820 C1819 1.398 . S
C1820 C1821 1.391 . S
C1821 H1809 0.950 . S
C1821 C1817 1.393 . S
C1821 C1820 1.391 . S
C1822 H1812 0.950 . S
C1822 C1823 1.386 . S
C1822 C1824 1.391 . S
C1823 C1822 1.386 . S
C1823 C1827 1.393 . S
C1824 H1813 0.950 . S
C1824 C1822 1.391 . S
C1824 C1825 1.400 . S
C1825 C1819 1.491 . S
C1825 C1824 1.400 . S
C1825 C1826 1.398 . S
C1826 H1814 0.950 . S
C1826 C1825 1.398 . S
C1826 C1827 1.391 . S
C1827 H1815 0.950 . S
C1827 C1823 1.393 . S
C1827 C1826 1.391 . S
H1828 C1836 0.950 . S
H1829 C1841 0.950 . S
H1830 C1838 0.950 . S
H1831 C1840 0.950 . S
H1832 C1842 0.950 . S
H1833 C1844 0.950 . S
H1834 C1846 0.950 . S
H1835 C1847 0.950 . S
C1836 H1828 0.950 . S
C1836 C1837 1.386 . S
C1836 C1838 1.391 . S
C1837 C1836 1.386 . S
C1837 C1841 1.393 . S
C1838 H1830 0.950 . S
C1838 C1836 1.391 . S
C1838 C1839 1.400 . S
C1839 C1838 1.400 . S
C1839 C1840 1.398 . S
C1839 C1845 1.491 . S
C1840 H1831 0.950 . S
C1840 C1839 1.398 . S
C1840 C1841 1.391 . S
C1841 H1829 0.950 . S
C1841 C1837 1.393 . S
C1841 C1840 1.391 . S
C1842 H1832 0.950 . S
C1842 C1843 1.386 . S
C1842 C1844 1.391 . S
C1843 C1842 1.386 . S
C1843 C1847 1.393 . S
C1844 H1833 0.950 . S
C1844 C1842 1.391 . S
C1844 C1845 1.400 . S
C1845 C1839 1.491 . S
C1845 C1844 1.400 . S
C1845 C1846 1.398 . S
C1846 H1834 0.950 . S
C1846 C1845 1.398 . S
C1846 C1847 1.391 . S
C1847 H1835 0.950 . S
C1847 C1843 1.393 . S
C1847 C1846 1.391 . S
H1848 C1856 0.950 . S
H1849 C1861 0.950 . S
H1850 C1858 0.950 . S
H1851 C1860 0.950 . S
H1852 C1862 0.950 . S
H1853 C1864 0.950 . S
H1854 C1866 0.950 . S
H1855 C1867 0.950 . S
C1856 H1848 0.950 . S
C1856 C1857 1.386 . S
C1856 C1858 1.391 . S
C1857 C1856 1.386 . S
C1857 C1861 1.393 . S
C1858 H1850 0.950 . S
C1858 C1856 1.391 . S
C1858 C1859 1.400 . S
C1859 C1858 1.400 . S
C1859 C1860 1.398 . S
C1859 C1865 1.491 . S
C1860 H1851 0.950 . S
C1860 C1859 1.398 . S
C1860 C1861 1.391 . S
C1861 H1849 0.950 . S
C1861 C1857 1.393 . S
C1861 C1860 1.391 . S
C1862 H1852 0.950 . S
C1862 C1863 1.386 . S
C1862 C1864 1.391 . S
C1863 C1862 1.386 . S
C1863 C1867 1.393 . S
C1864 H1853 0.950 . S
C1864 C1862 1.391 . S
C1864 C1865 1.400 . S
C1865 C1859 1.491 . S
C1865 C1864 1.400 . S
C1865 C1866 1.398 . S
C1866 H1854 0.950 . S
C1866 C1865 1.398 . S
C1866 C1867 1.391 . S
C1867 H1855 0.950 . S
C1867 C1863 1.393 . S
C1867 C1866 1.391 . S
H1868 C1876 0.950 . S
H1869 C1881 0.950 1_455 S
H1870 C1878 0.950 . S
H1871 C1880 0.950 1_455 S
H1872 C1882 0.950 . S
H1873 C1884 0.946 . S
H1874 C1886 0.950 . S
H1875 C1887 0.950 . S
C1876 H1868 0.950 . S
C1876 C1877 1.386 . S
C1876 C1878 1.391 . S
C1877 C1876 1.386 . S
C1877 C1881 1.393 . S
C1878 H1870 0.950 . S
C1878 C1876 1.391 . S
C1878 C1879 1.400 . S
C1879 C1878 1.400 . S
C1879 C1880 1.398 . S
C1879 C1885 1.491 . S
C1880 H1871 0.950 1_655 S
C1880 C1879 1.398 . S
C1880 C1881 1.391 . S
C1881 H1869 0.950 1_655 S
C1881 C1877 1.393 . S
C1881 C1880 1.391 . S
C1882 H1872 0.950 . S
C1882 C1883 1.386 1_455 S
C1882 C1884 1.391 . S
C1883 C1882 1.386 1_655 S
C1883 C1887 1.393 . S
C1884 H1873 0.946 . S
C1884 C1882 1.391 . S
C1884 C1885 1.404 1_455 S
C1885 C1879 1.491 . S
C1885 C1884 1.404 1_655 S
C1885 C1886 1.398 . S
C1886 H1874 0.950 . S
C1886 C1885 1.398 . S
C1886 C1887 1.391 . S
C1887 H1875 0.950 . S
C1887 C1883 1.393 . S
C1887 C1886 1.391 . S
H1888 C1896 0.950 . S
H1889 C1901 0.950 . S
H1890 C1898 0.950 . S
H1891 C1900 0.950 . S
H1892 C1902 0.950 . S
H1893 C1904 0.950 . S
H1894 C1906 0.950 . S
H1895 C1907 0.950 . S
C1896 H1888 0.950 . S
C1896 C1897 1.386 . S
C1896 C1898 1.391 . S
C1897 C1896 1.386 . S
C1897 C1901 1.393 . S
C1898 H1890 0.950 . S
C1898 C1896 1.391 . S
C1898 C1899 1.400 . S
C1899 C1898 1.400 . S
C1899 C1900 1.398 . S
C1899 C1905 1.491 . S
C1900 H1891 0.950 . S
C1900 C1899 1.398 . S
C1900 C1901 1.391 . S
C1901 H1889 0.950 . S
C1901 C1897 1.393 . S
C1901 C1900 1.391 . S
C1902 H1892 0.950 . S
C1902 C1903 1.386 . S
C1902 C1904 1.391 . S
C1903 C1902 1.386 . S
C1903 C1907 1.393 . S
C1904 H1893 0.950 . S
C1904 C1902 1.391 . S
C1904 C1905 1.400 . S
C1905 C1899 1.491 . S
C1905 C1904 1.400 . S
C1905 C1906 1.398 . S
C1906 H1894 0.950 . S
C1906 C1905 1.398 . S
C1906 C1907 1.391 . S
C1907 H1895 0.950 . S
C1907 C1903 1.393 . S
C1907 C1906 1.391 . S
H1908 C1916 0.950 . S
H1909 C1921 0.950 . S
H1910 C1918 0.950 . S
H1911 C1920 0.950 . S
H1912 C1922 0.950 . S
H1913 C1924 0.950 . S
H1914 C1926 0.950 . S
H1915 C1927 0.950 . S
C1916 H1908 0.950 . S
C1916 C1917 1.386 . S
C1916 C1918 1.391 . S
C1917 C1916 1.386 . S
C1917 C1921 1.393 . S
C1918 H1910 0.950 . S
C1918 C1916 1.391 . S
C1918 C1919 1.400 . S
C1919 C1918 1.400 . S
C1919 C1920 1.398 . S
C1919 C1925 1.491 . S
C1920 H1911 0.950 . S
C1920 C1919 1.398 . S
C1920 C1921 1.391 . S
C1921 H1909 0.950 . S
C1921 C1917 1.393 . S
C1921 C1920 1.391 . S
C1922 H1912 0.950 . S
C1922 C1923 1.386 . S
C1922 C1924 1.391 . S
C1923 C1922 1.386 . S
C1923 C1927 1.393 . S
C1924 H1913 0.950 . S
C1924 C1922 1.391 . S
C1924 C1925 1.400 . S
C1925 C1919 1.491 . S
C1925 C1924 1.400 . S
C1925 C1926 1.398 . S
C1926 H1914 0.950 . S
C1926 C1925 1.398 . S
C1926 C1927 1.391 . S
C1927 H1915 0.950 . S
C1927 C1923 1.393 . S
C1927 C1926 1.391 . S
H1928 C1936 0.950 1_554 S
H1929 C1941 0.950 . S
H1930 C1938 0.950 1_554 S
H1931 C1940 0.950 . S
H1932 C1942 0.950 . S
H1933 C1944 0.950 . S
H1934 C1946 0.950 . S
H1935 C1947 0.950 . S
C1936 H1928 0.950 1_556 S
C1936 C1937 1.386 . S
C1936 C1938 1.391 . S
C1937 C1936 1.386 . S
C1937 C1941 1.393 . S
C1938 H1930 0.950 1_556 S
C1938 C1936 1.391 . S
C1938 C1939 1.400 . S
C1939 C1938 1.400 . S
C1939 C1940 1.398 . S
C1939 C1945 1.491 . S
C1940 H1931 0.950 . S
C1940 C1939 1.398 . S
C1940 C1941 1.391 . S
C1941 H1929 0.950 . S
C1941 C1937 1.393 . S
C1941 C1940 1.391 . S
C1942 H1932 0.950 . S
C1942 C1943 1.386 . S
C1942 C1944 1.391 . S
C1943 C1942 1.386 . S
C1943 C1947 1.393 1_556 S
C1944 H1933 0.950 . S
C1944 C1942 1.391 . S
C1944 C1945 1.400 . S
C1945 C1939 1.491 . S
C1945 C1944 1.400 . S
C1945 C1946 1.398 1_556 S
C1946 H1934 0.950 . S
C1946 C1945 1.398 1_554 S
C1946 C1947 1.391 . S
C1947 H1935 0.950 . S
C1947 C1943 1.393 1_554 S
C1947 C1946 1.391 . S
H1948 C1956 0.950 . S
H1949 C1961 0.950 . S
H1950 C1958 0.950 . S
H1951 C1960 0.950 . S
H1952 C1962 0.950 . S
H1953 C1964 0.950 . S
H1954 C1966 0.950 . S
H1955 C1967 0.950 . S
C1956 H1948 0.950 . S
C1956 C1957 1.386 . S
C1956 C1958 1.391 . S
C1957 C1956 1.386 . S
C1957 C1961 1.393 . S
C1958 H1950 0.950 . S
C1958 C1956 1.391 . S
C1958 C1959 1.400 . S
C1959 C1958 1.400 . S
C1959 C1960 1.398 . S
C1959 C1965 1.491 . S
C1960 H1951 0.950 . S
C1960 C1959 1.398 . S
C1960 C1961 1.391 . S
C1961 H1949 0.950 . S
C1961 C1957 1.393 . S
C1961 C1960 1.391 . S
C1962 H1952 0.950 . S
C1962 C1963 1.386 . S
C1962 C1964 1.391 . S
C1963 C1962 1.386 . S
C1963 C1967 1.393 . S
C1964 H1953 0.950 . S
C1964 C1962 1.391 . S
C1964 C1965 1.400 . S
C1965 C1959 1.491 . S
C1965 C1964 1.400 . S
C1965 C1966 1.398 . S
C1966 H1954 0.950 . S
C1966 C1965 1.398 . S
C1966 C1967 1.391 . S
C1967 H1955 0.950 . S
C1967 C1963 1.393 . S
C1967 C1966 1.391 . S
H1968 C1976 0.950 . S
H1969 C1981 0.950 . S
H1970 C1978 0.950 . S
H1971 C1980 0.950 . S
H1972 C1982 0.950 . S
H1973 C1984 0.950 . S
H1974 C1986 0.950 . S
H1975 C1987 0.950 . S
C1976 H1968 0.950 . S
C1976 C1977 1.386 . S
C1976 C1978 1.391 . S
C1977 C1976 1.386 . S
C1977 C1981 1.393 . S
C1978 H1970 0.950 . S
C1978 C1976 1.391 . S
C1978 C1979 1.400 . S
C1979 C1978 1.400 . S
C1979 C1980 1.398 . S
C1979 C1985 1.491 . S
C1980 H1971 0.950 . S
C1980 C1979 1.398 . S
C1980 C1981 1.391 . S
C1981 H1969 0.950 . S
C1981 C1977 1.393 . S
C1981 C1980 1.391 . S
C1982 H1972 0.950 . S
C1982 C1983 1.386 . S
C1982 C1984 1.391 . S
C1983 C1982 1.386 . S
C1983 C1987 1.393 . S
C1984 H1973 0.950 . S
C1984 C1982 1.391 . S
C1984 C1985 1.400 . S
C1985 C1979 1.491 . S
C1985 C1984 1.400 . S
C1985 C1986 1.398 . S
C1986 H1974 0.950 . S
C1986 C1985 1.398 . S
C1986 C1987 1.391 . S
C1987 H1975 0.950 . S
C1987 C1983 1.393 . S
C1987 C1986 1.391 . S
H1988 C1996 0.950 . S
H1989 C2001 0.950 . S
H1990 C1998 0.950 . S
H1991 C2000 0.950 . S
H1992 C2002 0.950 . S
H1993 C2004 0.950 . S
H1994 C2006 0.950 . S
H1995 C2007 0.950 . S
C1996 H1988 0.950 . S
C1996 C1997 1.386 . S
C1996 C1998 1.391 . S
C1997 C1996 1.386 . S
C1997 C2001 1.393 . S
C1998 H1990 0.950 . S
C1998 C1996 1.391 . S
C1998 C1999 1.400 . S
C1999 C1998 1.400 . S
C1999 C2000 1.398 . S
C1999 C2005 1.491 . S
C2000 H1991 0.950 . S
C2000 C1999 1.398 . S
C2000 C2001 1.391 . S
C2001 H1989 0.950 . S
C2001 C1997 1.393 . S
C2001 C2000 1.391 . S
C2002 H1992 0.950 . S
C2002 C2003 1.386 . S
C2002 C2004 1.391 . S
C2003 C2002 1.386 . S
C2003 C2007 1.393 . S
C2004 H1993 0.950 . S
C2004 C2002 1.391 . S
C2004 C2005 1.400 . S
C2005 C1999 1.491 . S
C2005 C2004 1.400 . S
C2005 C2006 1.398 . S
C2006 H1994 0.950 . S
C2006 C2005 1.398 . S
C2006 C2007 1.391 . S
C2007 H1995 0.950 . S
C2007 C2003 1.393 . S
C2007 C2006 1.391 . S
H2008 C2016 0.922 1_565 S
H2009 C2021 0.950 . S
H2010 C2018 0.950 . S
H2011 C2020 0.950 . S
H2012 C2022 0.950 . S
H2013 C2024 0.950 . S
H2014 C2026 0.950 . S
H2015 C2027 0.950 . S
C2016 H2008 0.922 1_545 S
C2016 C2017 1.386 . S
C2016 C2018 1.391 . S
C2017 C2016 1.386 . S
C2017 C2021 1.393 . S
C2018 H2010 0.950 . S
C2018 C2016 1.391 . S
C2018 C2019 1.400 . S
C2019 C2018 1.400 . S
C2019 C2020 1.398 . S
C2019 C2025 1.491 . S
C2020 H2011 0.950 . S
C2020 C2019 1.398 . S
C2020 C2021 1.391 . S
C2021 H2009 0.950 . S
C2021 C2017 1.393 . S
C2021 C2020 1.391 . S
C2022 H2012 0.950 . S
C2022 C2023 1.386 . S
C2022 C2024 1.391 . S
C2023 C2022 1.386 . S
C2023 C2027 1.393 . S
C2024 H2013 0.950 . S
C2024 C2022 1.391 . S
C2024 C2025 1.400 . S
C2025 C2019 1.491 . S
C2025 C2024 1.400 . S
C2025 C2026 1.398 . S
C2026 H2014 0.950 . S
C2026 C2025 1.398 . S
C2026 C2027 1.391 . S
C2027 H2015 0.950 . S
C2027 C2023 1.393 . S
C2027 C2026 1.391 . S
H2028 C2036 0.950 . S
H2029 C2041 0.950 . S
H2030 C2038 0.950 . S
H2031 C2040 0.950 . S
H2032 C2042 0.950 . S
H2033 C2044 0.950 . S
H2034 C2046 0.950 . S
H2035 C2047 0.950 . S
C2036 H2028 0.950 . S
C2036 C2037 1.386 . S
C2036 C2038 1.391 . S
C2037 C2036 1.386 . S
C2037 C2041 1.393 . S
C2038 H2030 0.950 . S
C2038 C2036 1.391 . S
C2038 C2039 1.400 . S
C2039 C2038 1.400 . S
C2039 C2040 1.398 . S
C2039 C2045 1.491 . S
C2040 H2031 0.950 . S
C2040 C2039 1.398 . S
C2040 C2041 1.391 . S
C2041 H2029 0.950 . S
C2041 C2037 1.393 . S
C2041 C2040 1.391 . S
C2042 H2032 0.950 . S
C2042 C2043 1.386 . S
C2042 C2044 1.391 . S
C2043 C2042 1.386 . S
C2043 C2047 1.393 . S
C2044 H2033 0.950 . S
C2044 C2042 1.391 . S
C2044 C2045 1.400 . S
C2045 C2039 1.491 . S
C2045 C2044 1.400 . S
C2045 C2046 1.398 . S
C2046 H2034 0.950 . S
C2046 C2045 1.398 . S
C2046 C2047 1.391 . S
C2047 H2035 0.950 . S
C2047 C2043 1.393 . S
C2047 C2046 1.391 . S
H2048 C2056 0.950 . S
H2049 C2061 0.950 . S
H2050 C2058 0.950 . S
H2051 C2060 0.950 . S
H2052 C2062 0.950 . S
H2053 C2064 0.950 . S
H2054 C2066 0.950 . S
H2055 C2067 0.950 . S
C2056 H2048 0.950 . S
C2056 C2057 1.386 . S
C2056 C2058 1.391 . S
C2057 C2056 1.386 . S
C2057 C2061 1.393 . S
C2058 H2050 0.950 . S
C2058 C2056 1.391 . S
C2058 C2059 1.400 . S
C2059 C2058 1.400 . S
C2059 C2060 1.398 . S
C2059 C2065 1.491 . S
C2060 H2051 0.950 . S
C2060 C2059 1.398 . S
C2060 C2061 1.391 . S
C2061 H2049 0.950 . S
C2061 C2057 1.393 . S
C2061 C2060 1.391 . S
C2062 H2052 0.950 . S
C2062 C2063 1.386 . S
C2062 C2064 1.391 . S
C2063 C2062 1.386 . S
C2063 C2067 1.393 . S
C2064 H2053 0.950 . S
C2064 C2062 1.391 . S
C2064 C2065 1.400 . S
C2065 C2059 1.491 . S
C2065 C2064 1.400 . S
C2065 C2066 1.398 . S
C2066 H2054 0.950 . S
C2066 C2065 1.398 . S
C2066 C2067 1.391 . S
C2067 H2055 0.950 . S
C2067 C2063 1.393 . S
C2067 C2066 1.391 . S
H2068 C2076 0.950 . S
H2069 C2081 0.950 . S
H2070 C2078 0.950 . S
H2071 C2080 0.950 . S
H2072 C2082 0.950 . S
H2073 C2084 0.950 . S
H2074 C2086 0.950 . S
H2075 C2087 0.950 . S
C2076 H2068 0.950 . S
C2076 C2077 1.386 . S
C2076 C2078 1.391 . S
C2077 C2076 1.386 . S
C2077 C2081 1.393 . S
C2078 H2070 0.950 . S
C2078 C2076 1.391 . S
C2078 C2079 1.400 . S
C2079 C2078 1.400 . S
C2079 C2080 1.398 . S
C2079 C2085 1.491 . S
C2080 H2071 0.950 . S
C2080 C2079 1.398 . S
C2080 C2081 1.391 . S
C2081 H2069 0.950 . S
C2081 C2077 1.393 . S
C2081 C2080 1.391 . S
C2082 H2072 0.950 . S
C2082 C2083 1.386 . S
C2082 C2084 1.391 . S
C2083 C2082 1.386 . S
C2083 C2087 1.393 . S
C2084 H2073 0.950 . S
C2084 C2082 1.391 . S
C2084 C2085 1.400 . S
C2085 C2079 1.491 . S
C2085 C2084 1.400 . S
C2085 C2086 1.398 . S
C2086 H2074 0.950 . S
C2086 C2085 1.398 . S
C2086 C2087 1.391 . S
C2087 H2075 0.950 . S
C2087 C2083 1.393 . S
C2087 C2086 1.391 . S
H2088 C2096 0.950 . S
H2089 C2101 0.950 . S
H2090 C2098 0.950 . S
H2091 C2100 0.950 . S
H2092 C2102 0.950 . S
H2093 C2104 0.950 . S
H2094 C2106 0.950 . S
H2095 C2107 0.950 . S
C2096 H2088 0.950 . S
C2096 C2097 1.386 . S
C2096 C2098 1.391 . S
C2097 C2096 1.386 . S
C2097 C2101 1.393 . S
C2098 H2090 0.950 . S
C2098 C2096 1.391 . S
C2098 C2099 1.400 . S
C2099 C2098 1.400 . S
C2099 C2100 1.398 . S
C2099 C2105 1.491 . S
C2100 H2091 0.950 . S
C2100 C2099 1.398 . S
C2100 C2101 1.391 . S
C2101 H2089 0.950 . S
C2101 C2097 1.393 . S
C2101 C2100 1.391 . S
C2102 H2092 0.950 . S
C2102 C2103 1.386 . S
C2102 C2104 1.391 . S
C2103 C2102 1.386 . S
C2103 C2107 1.393 . S
C2104 H2093 0.950 . S
C2104 C2102 1.391 . S
C2104 C2105 1.400 . S
C2105 C2099 1.491 . S
C2105 C2104 1.400 . S
C2105 C2106 1.398 . S
C2106 H2094 0.950 . S
C2106 C2105 1.398 . S
C2106 C2107 1.391 . S
C2107 H2095 0.950 . S
C2107 C2103 1.393 . S
C2107 C2106 1.391 . S
H2108 C2116 0.950 . S
H2109 C2121 0.950 . S
H2110 C2118 0.950 . S
H2111 C2120 0.950 . S
H2112 C2122 0.950 . S
H2113 C2124 0.950 . S
H2114 C2126 0.950 . S
H2115 C2127 0.950 . S
C2116 H2108 0.950 . S
C2116 C2117 1.386 . S
C2116 C2118 1.391 . S
C2117 C2116 1.386 . S
C2117 C2121 1.393 . S
C2118 H2110 0.950 . S
C2118 C2116 1.391 . S
C2118 C2119 1.400 . S
C2119 C2118 1.400 . S
C2119 C2120 1.398 . S
C2119 C2125 1.491 . S
C2120 H2111 0.950 . S
C2120 C2119 1.398 . S
C2120 C2121 1.391 . S
C2121 H2109 0.950 . S
C2121 C2117 1.393 . S
C2121 C2120 1.391 . S
C2122 H2112 0.950 . S
C2122 C2123 1.386 . S
C2122 C2124 1.391 . S
C2123 C2122 1.386 . S
C2123 C2127 1.393 . S
C2124 H2113 0.950 . S
C2124 C2122 1.391 . S
C2124 C2125 1.400 . S
C2125 C2119 1.491 . S
C2125 C2124 1.400 . S
C2125 C2126 1.398 . S
C2126 H2114 0.950 . S
C2126 C2125 1.398 . S
C2126 C2127 1.391 . S
C2127 H2115 0.950 . S
C2127 C2123 1.393 . S
C2127 C2126 1.391 . S
H2128 C2136 0.950 . S
H2129 C2141 0.950 . S
H2130 C2138 0.950 . S
H2131 C2140 0.950 . S
H2132 C2142 0.950 . S
H2133 C2144 0.950 . S
H2134 C2146 0.950 . S
H2135 C2147 0.950 . S
C2136 H2128 0.950 . S
C2136 C2137 1.386 . S
C2136 C2138 1.391 . S
C2137 C2136 1.386 . S
C2137 C2141 1.393 . S
C2138 H2130 0.950 . S
C2138 C2136 1.391 . S
C2138 C2139 1.400 . S
C2139 C2138 1.400 . S
C2139 C2140 1.398 . S
C2139 C2145 1.491 . S
C2140 H2131 0.950 . S
C2140 C2139 1.398 . S
C2140 C2141 1.391 . S
C2141 H2129 0.950 . S
C2141 C2137 1.393 . S
C2141 C2140 1.391 . S
C2142 H2132 0.950 . S
C2142 C2143 1.386 . S
C2142 C2144 1.391 . S
C2143 C2142 1.386 . S
C2143 C2147 1.393 . S
C2144 H2133 0.950 . S
C2144 C2142 1.391 . S
C2144 C2145 1.400 . S
C2145 C2139 1.491 . S
C2145 C2144 1.400 . S
C2145 C2146 1.398 . S
C2146 H2134 0.950 . S
C2146 C2145 1.398 . S
C2146 C2147 1.391 . S
C2147 H2135 0.950 . S
C2147 C2143 1.393 . S
C2147 C2146 1.391 . S
H2148 C2156 0.950 1_455 S
H2149 C2161 0.950 . S
H2150 C2158 0.950 . S
H2151 C2160 0.950 . S
H2152 C2162 0.950 . S
H2153 C2164 0.950 . S
H2154 C2166 0.950 . S
H2155 C2167 0.967 . S
C2156 H2148 0.950 1_655 S
C2156 C2157 1.386 . S
C2156 C2158 1.391 . S
C2157 C2156 1.386 . S
C2157 C2161 1.393 . S
C2158 H2150 0.950 . S
C2158 C2156 1.391 . S
C2158 C2159 1.400 . S
C2159 C2158 1.400 . S
C2159 C2160 1.398 . S
C2159 C2165 1.491 . S
C2160 H2151 0.950 . S
C2160 C2159 1.398 . S
C2160 C2161 1.391 . S
C2161 H2149 0.950 . S
C2161 C2157 1.393 . S
C2161 C2160 1.391 . S
C2162 H2152 0.950 . S
C2162 C2163 1.386 . S
C2162 C2164 1.391 . S
C2163 C2162 1.386 . S
C2163 C2167 1.393 . S
C2164 H2153 0.950 . S
C2164 C2162 1.391 . S
C2164 C2165 1.400 . S
C2165 C2159 1.491 . S
C2165 C2164 1.400 . S
C2165 C2166 1.398 . S
C2166 H2154 0.950 . S
C2166 C2165 1.398 . S
C2166 C2167 1.391 . S
C2167 H2155 0.967 . S
C2167 C2163 1.393 . S
C2167 C2166 1.391 . S
H2168 C2176 0.950 . S
H2169 C2181 0.950 . S
H2170 C2178 0.950 . S
H2171 C2180 0.950 . S
H2172 C2182 0.950 . S
H2173 C2184 0.950 . S
H2174 C2186 0.950 . S
H2175 C2187 0.950 . S
C2176 H2168 0.950 . S
C2176 C2177 1.386 . S
C2176 C2178 1.391 . S
C2177 C2176 1.386 . S
C2177 C2181 1.393 . S
C2178 H2170 0.950 . S
C2178 C2176 1.391 . S
C2178 C2179 1.400 . S
C2179 C2178 1.400 . S
C2179 C2180 1.398 . S
C2179 C2185 1.491 . S
C2180 H2171 0.950 . S
C2180 C2179 1.398 . S
C2180 C2181 1.391 . S
C2181 H2169 0.950 . S
C2181 C2177 1.393 . S
C2181 C2180 1.391 . S
C2182 H2172 0.950 . S
C2182 C2183 1.386 . S
C2182 C2184 1.391 . S
C2183 C2182 1.386 . S
C2183 C2187 1.393 . S
C2184 H2173 0.950 . S
C2184 C2182 1.391 . S
C2184 C2185 1.400 . S
C2185 C2179 1.491 . S
C2185 C2184 1.400 . S
C2185 C2186 1.398 . S
C2186 H2174 0.950 . S
C2186 C2185 1.398 . S
C2186 C2187 1.391 . S
C2187 H2175 0.950 . S
C2187 C2183 1.393 . S
C2187 C2186 1.391 . S
H2188 C2196 0.950 1_655 S
H2189 C2201 0.950 . S
H2190 C2198 0.950 . S
H2191 C2200 0.950 . S
H2192 C2202 0.950 . S
H2193 C2204 0.950 . S
H2194 C2206 0.950 . S
H2195 C2207 0.950 . S
C2196 H2188 0.950 1_455 S
C2196 C2197 1.386 . S
C2196 C2198 1.391 . S
C2197 C2196 1.386 . S
C2197 C2201 1.393 . S
C2198 H2190 0.950 . S
C2198 C2196 1.391 . S
C2198 C2199 1.400 . S
C2199 C2198 1.400 . S
C2199 C2200 1.398 . S
C2199 C2205 1.491 . S
C2200 H2191 0.950 . S
C2200 C2199 1.398 . S
C2200 C2201 1.391 . S
C2201 H2189 0.950 . S
C2201 C2197 1.393 . S
C2201 C2200 1.391 . S
C2202 H2192 0.950 . S
C2202 C2203 1.386 . S
C2202 C2204 1.391 . S
C2203 C2202 1.386 . S
C2203 C2207 1.393 . S
C2204 H2193 0.950 . S
C2204 C2202 1.391 . S
C2204 C2205 1.400 . S
C2205 C2199 1.491 . S
C2205 C2204 1.400 . S
C2205 C2206 1.398 . S
C2206 H2194 0.950 . S
C2206 C2205 1.398 . S
C2206 C2207 1.391 . S
C2207 H2195 0.950 . S
C2207 C2203 1.393 . S
C2207 C2206 1.391 . S
H2208 C2216 0.950 . S
H2209 C2221 0.950 . S
H2210 C2218 0.950 . S
H2211 C2220 0.950 . S
H2212 C2222 0.950 . S
H2213 C2224 0.950 . S
H2214 C2226 0.950 . S
H2215 C2227 0.950 . S
C2216 H2208 0.950 . S
C2216 C2217 1.386 . S
C2216 C2218 1.391 . S
C2217 C2216 1.386 . S
C2217 C2221 1.393 . S
C2218 H2210 0.950 . S
C2218 C2216 1.391 . S
C2218 C2219 1.400 . S
C2219 C2218 1.400 . S
C2219 C2220 1.398 . S
C2219 C2225 1.491 . S
C2220 H2211 0.950 . S
C2220 C2219 1.398 . S
C2220 C2221 1.391 . S
C2221 H2209 0.950 . S
C2221 C2217 1.393 . S
C2221 C2220 1.391 . S
C2222 H2212 0.950 . S
C2222 C2223 1.386 . S
C2222 C2224 1.391 . S
C2223 C2222 1.386 . S
C2223 C2227 1.393 . S
C2224 H2213 0.950 . S
C2224 C2222 1.391 . S
C2224 C2225 1.400 . S
C2225 C2219 1.491 . S
C2225 C2224 1.400 . S
C2225 C2226 1.398 . S
C2226 H2214 0.950 . S
C2226 C2225 1.398 . S
C2226 C2227 1.391 . S
C2227 H2215 0.950 . S
C2227 C2223 1.393 . S
C2227 C2226 1.391 . S
H2228 C2236 0.950 1_554 S
H2229 C2241 0.950 . S
H2230 C2238 0.950 . S
H2231 C2240 0.950 . S
H2232 C2242 0.950 . S
H2233 C2244 0.950 . S
H2234 C2246 0.950 1_455 S
H2235 C2247 0.928 1_455 S
C2236 H2228 0.950 1_556 S
C2236 C2237 1.386 . S
C2236 C2238 1.391 . S
C2237 C2236 1.386 . S
C2237 C2241 1.393 . S
C2238 H2230 0.950 . S
C2238 C2236 1.391 . S
C2238 C2239 1.400 . S
C2239 C2238 1.400 . S
C2239 C2240 1.398 . S
C2239 C2245 1.491 . S
C2240 H2231 0.950 . S
C2240 C2239 1.398 . S
C2240 C2241 1.391 . S
C2241 H2229 0.950 . S
C2241 C2237 1.393 . S
C2241 C2240 1.391 . S
C2242 H2232 0.950 . S
C2242 C2243 1.386 . S
C2242 C2244 1.391 . S
C2243 C2242 1.386 . S
C2243 C2247 1.410 . S
C2244 H2233 0.950 . S
C2244 C2242 1.391 . S
C2244 C2245 1.400 . S
C2245 C2239 1.491 . S
C2245 C2244 1.400 . S
C2245 C2246 1.398 . S
C2246 H2234 0.950 1_655 S
C2246 C2245 1.398 . S
C2246 C2247 1.398 . S
C2247 H2235 0.928 1_655 S
C2247 C2243 1.410 . S
C2247 C2246 1.398 . S
H2248 C2256 0.950 . S
H2249 C2261 0.950 . S
H2250 C2258 0.950 . S
H2251 C2260 0.950 . S
H2252 C2262 0.950 . S
H2253 C2264 0.950 . S
H2254 C2266 0.950 . S
H2255 C2267 0.950 . S
C2256 H2248 0.950 . S
C2256 C2257 1.386 . S
C2256 C2258 1.391 . S
C2257 C2256 1.386 . S
C2257 C2261 1.393 . S
C2258 H2250 0.950 . S
C2258 C2256 1.391 . S
C2258 C2259 1.400 . S
C2259 C2258 1.400 . S
C2259 C2260 1.398 . S
C2259 C2265 1.491 . S
C2260 H2251 0.950 . S
C2260 C2259 1.398 . S
C2260 C2261 1.391 . S
C2261 H2249 0.950 . S
C2261 C2257 1.393 . S
C2261 C2260 1.391 . S
C2262 H2252 0.950 . S
C2262 C2263 1.386 . S
C2262 C2264 1.391 . S
C2263 C2262 1.386 . S
C2263 C2267 1.393 . S
C2264 H2253 0.950 . S
C2264 C2262 1.391 . S
C2264 C2265 1.400 . S
C2265 C2259 1.491 . S
C2265 C2264 1.400 . S
C2265 C2266 1.398 . S
C2266 H2254 0.950 . S
C2266 C2265 1.398 . S
C2266 C2267 1.391 . S
C2267 H2255 0.950 . S
C2267 C2263 1.393 . S
C2267 C2266 1.391 . S
H2268 C2276 0.950 . S
H2269 C2281 0.978 . S
H2270 C2278 0.950 . S
H2271 C2280 0.950 . S
H2272 C2282 0.950 . S
H2273 C2284 0.950 . S
H2274 C2286 0.950 . S
H2275 C2287 0.950 . S
C2276 H2268 0.950 . S
C2276 C2277 1.386 . S
C2276 C2278 1.391 . S
C2277 C2276 1.386 . S
C2277 C2281 1.380 1_556 S
C2278 H2270 0.950 . S
C2278 C2276 1.391 . S
C2278 C2279 1.400 . S
C2279 C2278 1.400 . S
C2279 C2280 1.398 . S
C2279 C2285 1.491 . S
C2280 H2271 0.950 . S
C2280 C2279 1.398 . S
C2280 C2281 1.375 1_556 S
C2281 H2269 0.978 . S
C2281 C2277 1.380 1_554 S
C2281 C2280 1.375 1_554 S
C2282 H2272 0.950 . S
C2282 C2283 1.386 . S
C2282 C2284 1.391 . S
C2283 C2282 1.386 . S
C2283 C2287 1.393 . S
C2284 H2273 0.950 . S
C2284 C2282 1.391 . S
C2284 C2285 1.400 . S
C2285 C2279 1.491 . S
C2285 C2284 1.400 . S
C2285 C2286 1.398 . S
C2286 H2274 0.950 . S
C2286 C2285 1.398 . S
C2286 C2287 1.391 . S
C2287 H2275 0.950 . S
C2287 C2283 1.393 . S
C2287 C2286 1.391 . S
H2288 C2296 0.950 . S
H2289 C2301 0.950 . S
H2290 C2298 0.950 . S
H2291 C2300 0.950 . S
H2292 C2302 0.950 . S
H2293 C2304 0.950 . S
H2294 C2306 0.950 . S
H2295 C2307 0.950 . S
C2296 H2288 0.950 . S
C2296 C2297 1.386 . S
C2296 C2298 1.391 . S
C2297 C2296 1.386 . S
C2297 C2301 1.393 . S
C2298 H2290 0.950 . S
C2298 C2296 1.391 . S
C2298 C2299 1.400 . S
C2299 C2298 1.400 . S
C2299 C2300 1.398 . S
C2299 C2305 1.491 . S
C2300 H2291 0.950 . S
C2300 C2299 1.398 . S
C2300 C2301 1.391 . S
C2301 H2289 0.950 . S
C2301 C2297 1.393 . S
C2301 C2300 1.391 . S
C2302 H2292 0.950 . S
C2302 C2303 1.386 . S
C2302 C2304 1.391 . S
C2303 C2302 1.386 . S
C2303 C2307 1.393 . S
C2304 H2293 0.950 . S
C2304 C2302 1.391 . S
C2304 C2305 1.400 . S
C2305 C2299 1.491 . S
C2305 C2304 1.400 . S
C2305 C2306 1.398 . S
C2306 H2294 0.950 . S
C2306 C2305 1.398 . S
C2306 C2307 1.391 . S
C2307 H2295 0.950 . S
C2307 C2303 1.393 . S
C2307 C2306 1.391 . S
H2308 C2316 0.950 . S
H2309 C2321 0.950 . S
H2310 C2318 0.950 . S
H2311 C2320 0.950 . S
H2312 C2322 0.950 . S
H2313 C2324 0.950 . S
H2314 C2326 0.950 . S
H2315 C2327 0.950 . S
C2316 H2308 0.950 . S
C2316 C2317 1.386 . S
C2316 C2318 1.391 . S
C2317 C2316 1.386 . S
C2317 C2321 1.393 . S
C2318 H2310 0.950 . S
C2318 C2316 1.391 . S
C2318 C2319 1.400 . S
C2319 C2318 1.400 . S
C2319 C2320 1.398 . S
C2319 C2325 1.491 . S
C2320 H2311 0.950 . S
C2320 C2319 1.398 . S
C2320 C2321 1.391 . S
C2321 H2309 0.950 . S
C2321 C2317 1.393 . S
C2321 C2320 1.391 . S
C2322 H2312 0.950 . S
C2322 C2323 1.386 . S
C2322 C2324 1.391 . S
C2323 C2322 1.386 . S
C2323 C2327 1.393 . S
C2324 H2313 0.950 . S
C2324 C2322 1.391 . S
C2324 C2325 1.400 . S
C2325 C2319 1.491 . S
C2325 C2324 1.400 . S
C2325 C2326 1.398 . S
C2326 H2314 0.950 . S
C2326 C2325 1.398 . S
C2326 C2327 1.391 . S
C2327 H2315 0.950 . S
C2327 C2323 1.393 . S
C2327 C2326 1.391 . S
H2328 C2336 0.950 . S
H2329 C2341 0.950 . S
H2330 C2338 0.950 . S
H2331 C2340 0.950 . S
H2332 C2342 0.950 . S
H2333 C2344 0.950 . S
H2334 C2346 0.950 . S
H2335 C2347 0.950 . S
C2336 H2328 0.950 . S
C2336 C2337 1.386 . S
C2336 C2338 1.391 . S
C2337 C2336 1.386 . S
C2337 C2341 1.393 . S
C2338 H2330 0.950 . S
C2338 C2336 1.391 . S
C2338 C2339 1.400 . S
C2339 C2338 1.400 . S
C2339 C2340 1.398 . S
C2339 C2345 1.491 . S
C2340 H2331 0.950 . S
C2340 C2339 1.398 . S
C2340 C2341 1.391 . S
C2341 H2329 0.950 . S
C2341 C2337 1.393 . S
C2341 C2340 1.391 . S
C2342 H2332 0.950 . S
C2342 C2343 1.386 . S
C2342 C2344 1.391 . S
C2343 C2342 1.386 . S
C2343 C2347 1.393 . S
C2344 H2333 0.950 . S
C2344 C2342 1.391 . S
C2344 C2345 1.400 . S
C2345 C2339 1.491 . S
C2345 C2344 1.400 . S
C2345 C2346 1.398 . S
C2346 H2334 0.950 . S
C2346 C2345 1.398 . S
C2346 C2347 1.391 . S
C2347 H2335 0.950 . S
C2347 C2343 1.393 . S
C2347 C2346 1.391 . S
H2348 C2356 0.950 . S
H2349 C2361 0.950 . S
H2350 C2358 0.950 . S
H2351 C2360 0.950 . S
H2352 C2362 0.950 . S
H2353 C2364 0.950 . S
H2354 C2366 0.950 . S
H2355 C2367 0.950 . S
C2356 H2348 0.950 . S
C2356 C2357 1.386 . S
C2356 C2358 1.391 . S
C2357 C2356 1.386 . S
C2357 C2361 1.393 . S
C2358 H2350 0.950 . S
C2358 C2356 1.391 . S
C2358 C2359 1.400 . S
C2359 C2358 1.400 . S
C2359 C2360 1.398 . S
C2359 C2365 1.491 . S
C2360 H2351 0.950 . S
C2360 C2359 1.398 . S
C2360 C2361 1.391 . S
C2361 H2349 0.950 . S
C2361 C2357 1.393 . S
C2361 C2360 1.391 . S
C2362 H2352 0.950 . S
C2362 C2363 1.386 . S
C2362 C2364 1.391 . S
C2363 C2362 1.386 . S
C2363 C2367 1.393 . S
C2364 H2353 0.950 . S
C2364 C2362 1.391 . S
C2364 C2365 1.400 . S
C2365 C2359 1.491 . S
C2365 C2364 1.400 . S
C2365 C2366 1.398 . S
C2366 H2354 0.950 . S
C2366 C2365 1.398 . S
C2366 C2367 1.391 . S
C2367 H2355 0.950 . S
C2367 C2363 1.393 . S
C2367 C2366 1.391 . S
H2368 C2376 0.950 . S
H2369 C2381 0.950 . S
H2370 C2378 0.950 . S
H2371 C2380 0.950 . S
H2372 C2382 0.950 . S
H2373 C2384 0.950 . S
H2374 C2386 0.950 . S
H2375 C2387 0.950 . S
C2376 H2368 0.950 . S
C2376 C2377 1.386 . S
C2376 C2378 1.391 . S
C2377 C2376 1.386 . S
C2377 C2381 1.393 . S
C2378 H2370 0.950 . S
C2378 C2376 1.391 . S
C2378 C2379 1.400 . S
C2379 C2378 1.400 . S
C2379 C2380 1.398 . S
C2379 C2385 1.491 . S
C2380 H2371 0.950 . S
C2380 C2379 1.398 . S
C2380 C2381 1.391 . S
C2381 H2369 0.950 . S
C2381 C2377 1.393 . S
C2381 C2380 1.391 . S
C2382 H2372 0.950 . S
C2382 C2383 1.386 . S
C2382 C2384 1.391 . S
C2383 C2382 1.386 . S
C2383 C2387 1.393 . S
C2384 H2373 0.950 . S
C2384 C2382 1.391 . S
C2384 C2385 1.400 . S
C2385 C2379 1.491 . S
C2385 C2384 1.400 . S
C2385 C2386 1.398 . S
C2386 H2374 0.950 . S
C2386 C2385 1.398 . S
C2386 C2387 1.391 . S
C2387 H2375 0.950 . S
C2387 C2383 1.393 . S
C2387 C2386 1.391 . S
H2388 C2396 0.950 . S
H2389 C2401 0.950 . S
H2390 C2398 0.950 . S
H2391 C2400 0.950 . S
H2392 C2402 0.950 . S
H2393 C2404 0.950 . S
H2394 C2406 0.950 . S
H2395 C2407 0.950 . S
C2396 H2388 0.950 . S
C2396 C2397 1.386 . S
C2396 C2398 1.391 . S
C2397 C2396 1.386 . S
C2397 C2401 1.393 . S
C2398 H2390 0.950 . S
C2398 C2396 1.391 . S
C2398 C2399 1.400 . S
C2399 C2398 1.400 . S
C2399 C2400 1.398 . S
C2399 C2405 1.491 . S
C2400 H2391 0.950 . S
C2400 C2399 1.398 . S
C2400 C2401 1.391 . S
C2401 H2389 0.950 . S
C2401 C2397 1.393 . S
C2401 C2400 1.391 . S
C2402 H2392 0.950 . S
C2402 C2403 1.386 . S
C2402 C2404 1.391 . S
C2403 C2402 1.386 . S
C2403 C2407 1.393 . S
C2404 H2393 0.950 . S
C2404 C2402 1.391 . S
C2404 C2405 1.400 . S
C2405 C2399 1.491 . S
C2405 C2404 1.400 . S
C2405 C2406 1.398 . S
C2406 H2394 0.950 . S
C2406 C2405 1.398 . S
C2406 C2407 1.391 . S
C2407 H2395 0.950 . S
C2407 C2403 1.393 . S
C2407 C2406 1.391 . S
H2408 C2416 0.950 . S
H2409 C2421 0.950 . S
H2410 C2418 0.950 . S
H2411 C2420 0.950 . S
H2412 C2422 0.950 . S
H2413 C2424 0.950 . S
H2414 C2426 0.950 . S
H2415 C2427 0.950 . S
C2416 H2408 0.950 . S
C2416 C2417 1.386 . S
C2416 C2418 1.391 . S
C2417 C2416 1.386 . S
C2417 C2421 1.393 . S
C2418 H2410 0.950 . S
C2418 C2416 1.391 . S
C2418 C2419 1.400 . S
C2419 C2418 1.400 . S
C2419 C2420 1.398 . S
C2419 C2425 1.491 . S
C2420 H2411 0.950 . S
C2420 C2419 1.398 . S
C2420 C2421 1.391 . S
C2421 H2409 0.950 . S
C2421 C2417 1.393 . S
C2421 C2420 1.391 . S
C2422 H2412 0.950 . S
C2422 C2423 1.386 . S
C2422 C2424 1.391 . S
C2423 C2422 1.386 . S
C2423 C2427 1.393 . S
C2424 H2413 0.950 . S
C2424 C2422 1.391 . S
C2424 C2425 1.400 . S
C2425 C2419 1.491 . S
C2425 C2424 1.400 . S
C2425 C2426 1.398 . S
C2426 H2414 0.950 . S
C2426 C2425 1.398 . S
C2426 C2427 1.391 . S
C2427 H2415 0.950 . S
C2427 C2423 1.393 . S
C2427 C2426 1.391 . S
H2428 C2436 0.950 . S
H2429 C2441 0.950 . S
H2430 C2438 0.950 . S
H2431 C2440 0.950 . S
H2432 C2442 0.950 . S
H2433 C2444 0.950 . S
H2434 C2446 0.950 . S
H2435 C2447 0.950 . S
C2436 H2428 0.950 . S
C2436 C2437 1.386 . S
C2436 C2438 1.391 . S
C2437 C2436 1.386 . S
C2437 C2441 1.393 . S
C2438 H2430 0.950 . S
C2438 C2436 1.391 . S
C2438 C2439 1.400 . S
C2439 C2438 1.400 . S
C2439 C2440 1.398 . S
C2439 C2445 1.491 . S
C2440 H2431 0.950 . S
C2440 C2439 1.398 . S
C2440 C2441 1.391 . S
C2441 H2429 0.950 . S
C2441 C2437 1.393 . S
C2441 C2440 1.391 . S
C2442 H2432 0.950 . S
C2442 C2443 1.386 . S
C2442 C2444 1.391 . S
C2443 C2442 1.386 . S
C2443 C2447 1.393 . S
C2444 H2433 0.950 . S
C2444 C2442 1.391 . S
C2444 C2445 1.400 . S
C2445 C2439 1.491 . S
C2445 C2444 1.400 . S
C2445 C2446 1.398 . S
C2446 H2434 0.950 . S
C2446 C2445 1.398 . S
C2446 C2447 1.391 . S
C2447 H2435 0.950 . S
C2447 C2443 1.393 . S
C2447 C2446 1.391 . S
H2448 C2456 0.950 1_554 S
H2449 C2461 0.950 . S
H2450 C2458 0.943 . S
H2451 C2460 0.950 . S
H2452 C2462 0.950 . S
H2453 C2464 0.950 . S
H2454 C2466 0.950 . S
H2455 C2467 0.950 . S
C2456 H2448 0.950 1_556 S
C2456 C2457 1.386 . S
C2456 C2458 1.392 1_556 S
C2457 C2456 1.386 . S
C2457 C2461 1.393 . S
C2458 H2450 0.943 . S
C2458 C2456 1.392 1_554 S
C2458 C2459 1.406 1_554 S
C2459 C2458 1.406 1_556 S
C2459 C2460 1.398 . S
C2459 C2465 1.491 . S
C2460 H2451 0.950 . S
C2460 C2459 1.398 . S
C2460 C2461 1.391 . S
C2461 H2449 0.950 . S
C2461 C2457 1.393 . S
C2461 C2460 1.391 . S
C2462 H2452 0.950 . S
C2462 C2463 1.386 . S
C2462 C2464 1.391 . S
C2463 C2462 1.386 . S
C2463 C2467 1.393 1_556 S
C2464 H2453 0.950 . S
C2464 C2462 1.391 . S
C2464 C2465 1.400 . S
C2465 C2459 1.491 . S
C2465 C2464 1.400 . S
C2465 C2466 1.398 1_556 S
C2466 H2454 0.950 . S
C2466 C2465 1.398 1_554 S
C2466 C2467 1.391 . S
C2467 H2455 0.950 . S
C2467 C2463 1.393 1_554 S
C2467 C2466 1.391 . S
H2468 C2476 0.950 . S
H2469 C2481 0.950 . S
H2470 C2478 0.950 . S
H2471 C2480 0.950 . S
H2472 C2482 0.950 . S
H2473 C2484 0.950 . S
H2474 C2486 0.950 . S
H2475 C2487 0.950 . S
C2476 H2468 0.950 . S
C2476 C2477 1.386 . S
C2476 C2478 1.391 . S
C2477 C2476 1.386 . S
C2477 C2481 1.393 . S
C2478 H2470 0.950 . S
C2478 C2476 1.391 . S
C2478 C2479 1.400 . S
C2479 C2478 1.400 . S
C2479 C2480 1.398 . S
C2479 C2485 1.491 . S
C2480 H2471 0.950 . S
C2480 C2479 1.398 . S
C2480 C2481 1.391 . S
C2481 H2469 0.950 . S
C2481 C2477 1.393 . S
C2481 C2480 1.391 . S
C2482 H2472 0.950 . S
C2482 C2483 1.386 . S
C2482 C2484 1.391 . S
C2483 C2482 1.386 . S
C2483 C2487 1.393 . S
C2484 H2473 0.950 . S
C2484 C2482 1.391 . S
C2484 C2485 1.400 . S
C2485 C2479 1.491 . S
C2485 C2484 1.400 . S
C2485 C2486 1.398 . S
C2486 H2474 0.950 . S
C2486 C2485 1.398 . S
C2486 C2487 1.391 . S
C2487 H2475 0.950 . S
C2487 C2483 1.393 . S
C2487 C2486 1.391 . S
H2488 C2496 0.950 . S
H2489 C2501 0.950 1_556 S
H2490 C2498 0.950 . S
H2491 C2500 0.950 1_556 S
H2492 C2502 0.950 . S
H2493 C2504 0.978 . S
H2494 C2506 0.950 . S
H2495 C2507 0.950 . S
C2496 H2488 0.950 . S
C2496 C2497 1.386 . S
C2496 C2498 1.391 . S
C2497 C2496 1.386 . S
C2497 C2501 1.393 . S
C2498 H2490 0.950 . S
C2498 C2496 1.391 . S
C2498 C2499 1.400 . S
C2499 C2498 1.400 . S
C2499 C2500 1.398 . S
C2499 C2505 1.491 . S
C2500 H2491 0.950 1_554 S
C2500 C2499 1.398 . S
C2500 C2501 1.391 . S
C2501 H2489 0.950 1_554 S
C2501 C2497 1.393 . S
C2501 C2500 1.391 . S
C2502 H2492 0.950 . S
C2502 C2503 1.386 1_556 S
C2502 C2504 1.394 . S
C2503 C2502 1.386 1_554 S
C2503 C2507 1.393 . S
C2504 H2493 0.978 . S
C2504 C2502 1.394 . S
C2504 C2505 1.370 1_556 S
C2505 C2499 1.491 . S
C2505 C2504 1.370 1_554 S
C2505 C2506 1.398 . S
C2506 H2494 0.950 . S
C2506 C2505 1.398 . S
C2506 C2507 1.391 . S
C2507 H2495 0.950 . S
C2507 C2503 1.393 . S
C2507 C2506 1.391 . S
H2508 C2516 0.950 . S
H2509 C2521 0.949 . S
H2510 C2518 0.973 . S
H2511 C2520 0.950 . S
H2512 C2522 0.950 . S
H2513 C2524 0.950 . S
H2514 C2526 0.950 1_556 S
H2515 C2527 0.950 1_556 S
C2516 H2508 0.950 . S
C2516 C2517 1.386 . S
C2516 C2518 1.391 . S
C2517 C2516 1.386 . S
C2517 C2521 1.393 . S
C2518 H2510 0.973 . S
C2518 C2516 1.391 . S
C2518 C2519 1.400 . S
C2519 C2518 1.400 . S
C2519 C2520 1.398 . S
C2519 C2525 1.491 . S
C2520 H2511 0.950 . S
C2520 C2519 1.398 . S
C2520 C2521 1.391 . S
C2521 H2509 0.949 . S
C2521 C2517 1.393 . S
C2521 C2520 1.391 . S
C2522 H2512 0.950 . S
C2522 C2523 1.386 . S
C2522 C2524 1.391 . S
C2523 C2522 1.386 . S
C2523 C2527 1.393 . S
C2524 H2513 0.950 . S
C2524 C2522 1.391 . S
C2524 C2525 1.400 . S
C2525 C2519 1.491 . S
C2525 C2524 1.400 . S
C2525 C2526 1.398 . S
C2526 H2514 0.950 1_554 S
C2526 C2525 1.398 . S
C2526 C2527 1.391 . S
C2527 H2515 0.950 1_554 S
C2527 C2523 1.393 . S
C2527 C2526 1.391 . S
C1583 C561 1.469 . S
C1577 C177 1.446 . S
C1603 C620 1.537 . S
C1597 C209 1.520 . S
C1617 C253 1.405 . S
C1623 C737 1.464 . S
C1643 C805 1.533 . S
C1637 C157 1.487 1_655 S
C1663 C884 1.527 . S
C1657 C343 1.494 . S
C1683 C1009 1.506 . S
C1677 C401 1.462 . S
C1697 C369 1.499 . S
C1703 C1069 1.527 . S
C1723 C1177 1.516 . S
C1717 C317 1.499 . S
C1737 C375 1.472 . S
C1743 C1273 1.518 . S
C1763 C1333 1.559 . S
C1757 C305 1.556 . S
C1777 C349 1.507 . S
C1783 C1236 1.545 . S
C1803 C1353 1.520 . S
C1797 C413 1.464 . S
C1817 C241 1.433 . S
C1823 C1421 1.481 . S
C1837 C151 1.438 . S
C1843 C1412 1.490 . S
C1857 C189 1.499 . S
C1863 C1441 1.509 . S
C1877 C215 1.492 . S
C1883 C1449 1.515 . S
C1897 C113 1.457 . S
C1903 C833 1.495 . S
C1917 C471 1.464 . S
C1923 C796 1.488 . S
C1943 C532 1.524 . S
C1937 C509 1.513 . S
C1963 C629 1.506 . S
C1957 C279 1.455 . S
C1977 C145 1.427 . S
C1983 C893 1.474 . S
C2003 C1185 1.555 . S
C1997 C381 1.498 . S
C2023 C913 1.537 . S
C2017 C311 1.530 . S
C2043 C1097 1.499 . S
C2037 C407 1.457 . S
C2063 C1089 1.467 . S
C2057 C465 1.457 . S
C2077 C497 1.519 . S
C2083 C1157 1.536 . S
C2097 C285 1.430 . S
C2103 C921 1.467 . S
C2123 C972 1.534 . S
C2117 C445 1.491 . S
C2137 C119 1.483 . S
C2143 C717 1.526 . S
C2163 C825 1.506 . S
C2157 C17 1.459 1_655 S
C2183 C541 1.527 . S
C2177 C49 1.500 . S
C2203 C657 1.515 . S
C2197 C93 1.504 . S
C2217 C55 1.485 . S
C2223 C1361 1.520 . S
C2237 C81 1.554 . S
C2243 C1245 1.561 . S
C2257 C125 1.507 . S
C2263 C1324 1.546 . S
C2277 C29 1.480 1_556 S
C2283 C1265 1.520 . S
C2303 C1509 1.484 . S
C2297 C273 1.452 . S
C2323 C1500 1.491 . S
C2317 C439 1.457 . S
C2343 C1529 1.513 . S
C2337 C477 1.486 . S
C2357 C503 1.492 . S
C2363 C1537 1.515 . S
C2377 C337 1.465 . S
C2383 C1001 1.496 . S
C2403 C981 1.485 . S
C2397 C183 1.477 . S
C2423 C1060 1.524 . S
C2417 C221 1.510 . S
C2443 C1148 1.509 . S
C2437 C247 1.474 . S
C2457 C433 1.424 . S
C2463 C708 1.474 . S
C2483 C649 1.555 . S
C2477 C61 1.498 . S
C2497 C87 1.520 . S
C2503 C745 1.539 . S
C2523 C569 1.497 . S
C2517 C23 1.435 1_565 S
