# Generated by pormake.
# Topology ctn, (3,4)-cn, num edge types: 1
# Building blocks:
#     Node 0, Type 0, BuildingBlock: KAKCAD_clean_linker_0, # of connection points: 3
#     Node 1, Type 0, BuildingBlock: KAKCAD_clean_linker_0, # of connection points: 3
#     Node 2, Type 0, BuildingBlock: KAKCAD_clean_linker_0, # of connection points: 3
#     Node 3, Type 0, BuildingBlock: KAKCAD_clean_linker_0, # of connection points: 3
#     Node 4, Type 0, BuildingBlock: KAKCAD_clean_linker_0, # of connection points: 3
#     Node 5, Type 0, BuildingBlock: KAKCAD_clean_linker_0, # of connection points: 3
#     Node 6, Type 0, BuildingBlock: KAKCAD_clean_linker_0, # of connection points: 3
#     Node 7, Type 0, BuildingBlock: KAKCAD_clean_linker_0, # of connection points: 3
#     Node 8, Type 0, BuildingBlock: KAKCAD_clean_linker_0, # of connection points: 3
#     Node 9, Type 0, BuildingBlock: KAKCAD_clean_linker_0, # of connection points: 3
#     Node 10, Type 0, BuildingBlock: KAKCAD_clean_linker_0, # of connection points: 3
#     Node 11, Type 0, BuildingBlock: KAKCAD_clean_linker_0, # of connection points: 3
#     Node 12, Type 0, BuildingBlock: KAKCAD_clean_linker_0, # of connection points: 3
#     Node 13, Type 0, BuildingBlock: KAKCAD_clean_linker_0, # of connection points: 3
#     Node 14, Type 0, BuildingBlock: KAKCAD_clean_linker_0, # of connection points: 3
#     Node 15, Type 0, BuildingBlock: KAKCAD_clean_linker_0, # of connection points: 3
#     Node 16, Type 1, BuildingBlock: UXUYUI_clean_sbu_0, # of connection points: 4
#     Node 17, Type 1, BuildingBlock: UXUYUI_clean_sbu_0, # of connection points: 4
#     Node 18, Type 1, BuildingBlock: UXUYUI_clean_sbu_0, # of connection points: 4
#     Node 19, Type 1, BuildingBlock: UXUYUI_clean_sbu_0, # of connection points: 4
#     Node 20, Type 1, BuildingBlock: UXUYUI_clean_sbu_0, # of connection points: 4
#     Node 21, Type 1, BuildingBlock: UXUYUI_clean_sbu_0, # of connection points: 4
#     Node 22, Type 1, BuildingBlock: UXUYUI_clean_sbu_0, # of connection points: 4
#     Node 23, Type 1, BuildingBlock: UXUYUI_clean_sbu_0, # of connection points: 4
#     Node 24, Type 1, BuildingBlock: UXUYUI_clean_sbu_0, # of connection points: 4
#     Node 25, Type 1, BuildingBlock: UXUYUI_clean_sbu_0, # of connection points: 4
#     Node 26, Type 1, BuildingBlock: UXUYUI_clean_sbu_0, # of connection points: 4
#     Node 27, Type 1, BuildingBlock: UXUYUI_clean_sbu_0, # of connection points: 4
#     Edge 28, Type (0, 1), BuildingBlock: KIFKEQ_clean_linker_1, # of connection points: 2
#     Edge 29, Type (0, 1), BuildingBlock: KIFKEQ_clean_linker_1, # of connection points: 2
#     Edge 30, Type (0, 1), BuildingBlock: KIFKEQ_clean_linker_1, # of connection points: 2
#     Edge 31, Type (0, 1), BuildingBlock: KIFKEQ_clean_linker_1, # of connection points: 2
#     Edge 32, Type (0, 1), BuildingBlock: KIFKEQ_clean_linker_1, # of connection points: 2
#     Edge 33, Type (0, 1), BuildingBlock: KIFKEQ_clean_linker_1, # of connection points: 2
#     Edge 34, Type (0, 1), BuildingBlock: KIFKEQ_clean_linker_1, # of connection points: 2
#     Edge 35, Type (0, 1), BuildingBlock: KIFKEQ_clean_linker_1, # of connection points: 2
#     Edge 36, Type (0, 1), BuildingBlock: KIFKEQ_clean_linker_1, # of connection points: 2
#     Edge 37, Type (0, 1), BuildingBlock: KIFKEQ_clean_linker_1, # of connection points: 2
#     Edge 38, Type (0, 1), BuildingBlock: KIFKEQ_clean_linker_1, # of connection points: 2
#     Edge 39, Type (0, 1), BuildingBlock: KIFKEQ_clean_linker_1, # of connection points: 2
#     Edge 40, Type (0, 1), BuildingBlock: KIFKEQ_clean_linker_1, # of connection points: 2
#     Edge 41, Type (0, 1), BuildingBlock: KIFKEQ_clean_linker_1, # of connection points: 2
#     Edge 42, Type (0, 1), BuildingBlock: KIFKEQ_clean_linker_1, # of connection points: 2
#     Edge 43, Type (0, 1), BuildingBlock: KIFKEQ_clean_linker_1, # of connection points: 2
#     Edge 44, Type (0, 1), BuildingBlock: KIFKEQ_clean_linker_1, # of connection points: 2
#     Edge 45, Type (0, 1), BuildingBlock: KIFKEQ_clean_linker_1, # of connection points: 2
#     Edge 46, Type (0, 1), BuildingBlock: KIFKEQ_clean_linker_1, # of connection points: 2
#     Edge 47, Type (0, 1), BuildingBlock: KIFKEQ_clean_linker_1, # of connection points: 2
#     Edge 48, Type (0, 1), BuildingBlock: KIFKEQ_clean_linker_1, # of connection points: 2
#     Edge 49, Type (0, 1), BuildingBlock: KIFKEQ_clean_linker_1, # of connection points: 2
#     Edge 50, Type (0, 1), BuildingBlock: KIFKEQ_clean_linker_1, # of connection points: 2
#     Edge 51, Type (0, 1), BuildingBlock: KIFKEQ_clean_linker_1, # of connection points: 2
#     Edge 52, Type (0, 1), BuildingBlock: KIFKEQ_clean_linker_1, # of connection points: 2
#     Edge 53, Type (0, 1), BuildingBlock: KIFKEQ_clean_linker_1, # of connection points: 2
#     Edge 54, Type (0, 1), BuildingBlock: KIFKEQ_clean_linker_1, # of connection points: 2
#     Edge 55, Type (0, 1), BuildingBlock: KIFKEQ_clean_linker_1, # of connection points: 2
#     Edge 56, Type (0, 1), BuildingBlock: KIFKEQ_clean_linker_1, # of connection points: 2
#     Edge 57, Type (0, 1), BuildingBlock: KIFKEQ_clean_linker_1, # of connection points: 2
#     Edge 58, Type (0, 1), BuildingBlock: KIFKEQ_clean_linker_1, # of connection points: 2
#     Edge 59, Type (0, 1), BuildingBlock: KIFKEQ_clean_linker_1, # of connection points: 2
#     Edge 60, Type (0, 1), BuildingBlock: KIFKEQ_clean_linker_1, # of connection points: 2
#     Edge 61, Type (0, 1), BuildingBlock: KIFKEQ_clean_linker_1, # of connection points: 2
#     Edge 62, Type (0, 1), BuildingBlock: KIFKEQ_clean_linker_1, # of connection points: 2
#     Edge 63, Type (0, 1), BuildingBlock: KIFKEQ_clean_linker_1, # of connection points: 2
#     Edge 64, Type (0, 1), BuildingBlock: KIFKEQ_clean_linker_1, # of connection points: 2
#     Edge 65, Type (0, 1), BuildingBlock: KIFKEQ_clean_linker_1, # of connection points: 2
#     Edge 66, Type (0, 1), BuildingBlock: KIFKEQ_clean_linker_1, # of connection points: 2
#     Edge 67, Type (0, 1), BuildingBlock: KIFKEQ_clean_linker_1, # of connection points: 2
#     Edge 68, Type (0, 1), BuildingBlock: KIFKEQ_clean_linker_1, # of connection points: 2
#     Edge 69, Type (0, 1), BuildingBlock: KIFKEQ_clean_linker_1, # of connection points: 2
#     Edge 70, Type (0, 1), BuildingBlock: KIFKEQ_clean_linker_1, # of connection points: 2
#     Edge 71, Type (0, 1), BuildingBlock: KIFKEQ_clean_linker_1, # of connection points: 2
#     Edge 72, Type (0, 1), BuildingBlock: KIFKEQ_clean_linker_1, # of connection points: 2
#     Edge 73, Type (0, 1), BuildingBlock: KIFKEQ_clean_linker_1, # of connection points: 2
#     Edge 74, Type (0, 1), BuildingBlock: KIFKEQ_clean_linker_1, # of connection points: 2
#     Edge 75, Type (0, 1), BuildingBlock: KIFKEQ_clean_linker_1, # of connection points: 2
# Relax obj value: 0.000
# Max RMSD: 0.005
# Mean RMSD: 0.004
data_MOF--net-ctn--node1-UXUYUI_clean_sbu_0--node2-KAKCAD_clean_linker_0--edge1-KIFKEQ_clean_linker_1
_symmetry_space_group_name_H-M    P1
_symmetry_Int_Tables_number       1
_symmetry_cell_setting            triclinic
loop_
_symmetry_equiv_pos_as_xyz
'x, y, z'
_cell_length_a     81.796495
_cell_length_b     81.719192
_cell_length_c     81.612785
_cell_angle_alpha  90.089023
_cell_angle_beta   90.308465
_cell_angle_gamma 90.232046
loop_
_atom_site_label
_atom_site_type_symbol
_atom_site_fract_x
_atom_site_fract_y
_atom_site_fract_z
_atom_type_partial_charge
C0 C 0.03824 0.0829 0.99467 0.0
C1 C 0.03246 0.09788 1.00076 0.0
C2 C 0.04069 0.06962 0.00518 0.0
C3 C 0.03754 0.07104 0.02205 0.0
C4 C 0.03186 0.08609 0.02813 0.0
C5 C 0.0293 0.09933 0.0176 0.0
C6 C 0.04006 0.05685 0.03325 0.0
C7 C 0.05346 0.04634 0.03116 0.0
C8 C 0.05583 0.03277 0.04149 0.0
C9 C 0.04467 0.02998 0.05426 0.0
C10 C 0.03134 0.04049 0.05675 0.0
C11 C 0.02906 0.05378 0.04607 0.0
C12 C 0.01988 0.03775 0.07062 0.0
C13 C 0.01472 0.02187 0.07484 0.0
C14 C 0.01412 0.05105 0.07987 0.0
C15 C 0.0035 0.04855 0.093 0.0
C16 C 0.9984 0.03267 0.09728 0.0
C17 C 0.06999 0.02159 0.03895 0.0
C18 C 0.07529 0.01768 0.02305 0.0
C19 C 0.07833 0.0147 0.05238 0.0
C20 C 0.09152 0.00414 0.04997 0.0
C21 C 0.09688 1.00031 0.03406 0.0
C22 C 0.08859 0.00728 0.02064 0.0
C23 C 0.00412 0.01936 0.08801 0.0
H24 H 0.0406 0.08134 0.98171 0.0
H25 H 0.04481 0.05815 1.00001 0.0
H26 H 0.02958 0.08774 0.04109 0.0
H27 H 0.02506 0.11079 0.0227 0.0
H28 H 0.06231 0.04898 0.02168 0.0
H29 H 0.01848 0.06155 0.04755 0.0
H30 H 0.04637 0.01962 0.06234 0.0
H31 H 0.01878 0.01136 0.06788 0.0
H32 H 0.01797 0.06343 0.07709 0.0
H33 H 0.99919 0.0591 0.09972 0.0
H34 H 0.06907 0.02255 0.01239 0.0
H35 H 0.07479 0.01757 0.06482 0.0
H36 H 1.00059 0.00695 0.09105 0.0
H37 H 0.09247 0.00486 0.00821 0.0
H38 H 0.0974 0.99886 0.06062 0.0
C39 C 0.33622 0.73871 0.25521 0.0
C40 C 0.34623 0.72559 0.25998 0.0
C41 C 0.32305 0.73617 0.24448 0.0
C42 C 0.31953 0.72044 0.2384 0.0
C43 C 0.32949 0.70731 0.24324 0.0
C44 C 0.34272 0.70986 0.25387 0.0
C45 C 0.30557 0.7177 0.22696 0.0
C46 C 0.30283 0.72843 0.2138 0.0
C47 C 0.28989 0.72571 0.20271 0.0
C48 C 0.27956 0.71212 0.20499 0.0
C49 C 0.28196 0.70134 0.2182 0.0
C50 C 0.29504 0.70425 0.2291 0.0
C51 C 0.27079 0.6871 0.22066 0.0
C52 C 0.25388 0.68858 0.21784 0.0
C53 C 0.27694 0.67192 0.22591 0.0
C54 C 0.26645 0.6586 0.22833 0.0
C55 C 0.24953 0.66007 0.22549 0.0
C56 C 0.28723 0.737 0.18867 0.0
C57 C 0.28824 0.75404 0.19087 0.0
C58 C 0.28361 0.73082 0.17298 0.0
C59 C 0.28105 0.74143 0.15979 0.0
C60 C 0.282 0.75849 0.16199 0.0
C61 C 0.28563 0.76465 0.1777 0.0
C62 C 0.2434 0.67523 0.22017 0.0
H63 H 0.33869 0.75099 0.25961 0.0
H64 H 0.31553 0.74651 0.24106 0.0
H65 H 0.32717 0.69507 0.23866 0.0
H66 H 0.35012 0.69948 0.25742 0.0
H67 H 0.31109 0.73864 0.21189 0.0
H68 H 0.29682 0.69625 0.23953 0.0
H69 H 0.26961 0.70995 0.19643 0.0
H70 H 0.24867 0.70012 0.21399 0.0
H71 H 0.2899 0.67026 0.22802 0.0
H72 H 0.2716 0.6472 0.23263 0.0
H73 H 0.2908 0.75918 0.20286 0.0
H74 H 0.28299 0.71775 0.17082 0.0
H75 H 0.23049 0.67678 0.21766 0.0
H76 H 0.28621 0.77772 0.1799 0.0
H77 H 0.27856 0.73624 0.14782 0.0
C78 C 0.99047 0.4796 0.09983 0.0
C79 C 0.00728 0.47632 0.09841 0.0
C80 C 0.97989 0.4772 0.08652 0.0
C81 C 0.98584 0.47157 0.0714 0.0
C82 C 1.00265 0.46834 0.06996 0.0
C83 C 0.01321 0.47063 0.0833 0.0
C84 C 0.97457 0.46911 0.05717 0.0
C85 C 0.96172 0.48011 0.0542 0.0
C86 C 0.95102 0.47789 0.04085 0.0
C87 C 0.95344 0.46459 0.03021 0.0
C88 C 0.96621 0.45342 0.03292 0.0
C89 C 0.97662 0.45575 0.04651 0.0
C90 C 0.96865 0.43929 0.02163 0.0
C91 C 0.9552 0.43064 0.01513 0.0
C92 C 0.98449 0.43434 0.01726 0.0
C93 C 0.98682 0.42106 0.00672 0.0
C94 C 0.97337 0.41243 1.00018 0.0
C95 C 0.93723 0.48941 0.03811 0.0
C96 C 0.92776 0.49484 0.05136 0.0
C97 C 0.93334 0.49496 0.02226 0.0
C98 C 0.92026 0.50565 0.01973 0.0
C99 C 0.91073 0.51101 0.03298 0.0
C100 C 0.91466 0.5055 0.04882 0.0
C101 C 0.95753 0.41741 0.00451 0.0
H102 H 0.98547 0.48419 0.11119 0.0
H103 H 0.96699 0.47963 0.08816 0.0
H104 H 0.00772 0.46418 0.05846 0.0
H105 H 0.02603 0.46776 0.08178 0.0
H106 H 0.96024 0.49067 0.06209 0.0
H107 H 0.98613 0.44689 0.04901 0.0
H108 H 0.9453 0.4629 0.01982 0.0
H109 H 0.94283 0.43396 0.01837 0.0
H110 H 0.99514 0.44082 0.02187 0.0
H111 H 0.99921 0.41746 0.00385 0.0
H112 H 0.93033 0.49068 0.0637 0.0
H113 H 0.94049 0.49113 0.01181 0.0
H114 H 0.94687 0.4112 0.99956 0.0
H115 H 0.90769 0.50952 0.05932 0.0
H116 H 0.91748 0.50955 0.00735 0.0
C117 C 0.70949 0.75456 0.16627 0.0
C118 C 0.72539 0.74961 0.16216 0.0
C119 C 0.70686 0.76513 0.17948 0.0
C120 C 0.72008 0.771 0.18891 0.0
C121 C 0.73599 0.76603 0.18482 0.0
C122 C 0.73861 0.75547 0.17159 0.0
C123 C 0.71727 0.78233 0.20291 0.0
C124 C 0.70403 0.77982 0.21355 0.0
C125 C 0.70111 0.79057 0.22667 0.0
C126 C 0.71171 0.80396 0.22912 0.0
C127 C 0.7251 0.80662 0.2187 0.0
C128 C 0.72776 0.79575 0.20563 0.0
C129 C 0.73626 0.82079 0.2214 0.0
C130 C 0.72999 0.83633 0.22516 0.0
C131 C 0.75329 0.81887 0.22021 0.0
C132 C 0.7638 0.83218 0.22275 0.0
C133 C 0.75753 0.84774 0.22646 0.0
C134 C 0.68703 0.78777 0.23784 0.0
C135 C 0.67181 0.78257 0.23158 0.0
C136 C 0.68868 0.79022 0.25483 0.0
C137 C 0.67546 0.78755 0.26529 0.0
C138 C 0.66027 0.7823 0.25903 0.0
C139 C 0.6586 0.77984 0.24205 0.0
C140 C 0.7405 0.84966 0.22762 0.0
H141 H 0.69905 0.75048 0.1591 0.0
H142 H 0.69448 0.76892 0.18212 0.0
H143 H 0.74642 0.77013 0.19198 0.0
H144 H 0.75099 0.75172 0.16891 0.0
H145 H 0.69619 0.76923 0.21182 0.0
H146 H 0.73777 0.798 0.19728 0.0
H147 H 0.70956 0.81234 0.23917 0.0
H148 H 0.71693 0.83825 0.22602 0.0
H149 H 0.75851 0.80703 0.21747 0.0
H150 H 0.77685 0.83033 0.22161 0.0
H151 H 0.67001 0.78082 0.21853 0.0
H152 H 0.70029 0.79395 0.26011 0.0
H153 H 0.73528 0.86145 0.23061 0.0
H154 H 0.647 0.77604 0.23681 0.0
H155 H 0.6772 0.78934 0.27834 0.0
C156 C 0.99408 0.97188 0.42713 0.0
C157 C 1.00012 0.97641 0.41168 0.0
C158 C 0.00475 0.96944 0.44035 0.0
C159 C 0.02171 0.97149 0.43844 0.0
C160 C 0.02775 0.97601 0.42299 0.0
C161 C 0.01709 0.97844 0.40977 0.0
C162 C 0.03308 0.96891 0.45249 0.0
C163 C 0.03082 0.95566 0.46321 0.0
C164 C 0.04157 0.95304 0.47644 0.0
C165 C 0.05479 0.96386 0.47881 0.0
C166 C 0.05729 0.97722 0.46824 0.0
C167 C 0.0463 0.97965 0.45516 0.0
C168 C 0.07135 0.98862 0.47083 0.0
C169 C 0.07619 0.99333 0.48672 0.0
C170 C 0.08007 0.99487 0.4574 0.0
C171 C 0.09325 0.00558 0.45979 0.0
C172 C 0.09815 0.01023 0.47569 0.0
C173 C 0.03902 0.93896 0.48773 0.0
C174 C 0.02321 0.93466 0.49291 0.0
C175 C 0.05236 0.92973 0.49343 0.0
C176 C 0.04995 0.91656 0.50407 0.0
C177 C 0.03414 0.91225 0.50926 0.0
C178 C 0.0208 0.92147 0.50353 0.0
C179 C 0.08944 0.00395 0.48912 0.0
H180 H 0.98107 0.97045 0.42909 0.0
H181 H 0.99968 0.96619 0.45214 0.0
H182 H 0.04076 0.97744 0.42103 0.0
H183 H 0.02218 0.98166 0.39798 0.0
H184 H 0.02089 0.9471 0.46099 0.0
H185 H 0.04782 0.99016 0.44722 0.0
H186 H 0.06317 0.96187 0.48892 0.0
H187 H 0.06965 0.98893 0.49735 0.0
H188 H 0.07684 0.99137 0.44499 0.0
H189 H 0.0995 0.01031 0.44913 0.0
H190 H 0.01268 0.9416 0.4889 0.0
H191 H 0.06468 0.93258 0.48954 0.0
H192 H 0.09296 0.00709 0.50155 0.0
H193 H 0.00844 0.91839 0.50712 0.0
H194 H 0.06053 0.90985 0.50837 0.0
C195 C 0.16657 0.71104 0.75525 0.0
C196 C 0.16268 0.72689 0.74982 0.0
C197 C 0.17974 0.70849 0.76593 0.0
C198 C 0.18932 0.72173 0.77147 0.0
C199 C 0.18544 0.73757 0.76606 0.0
C200 C 0.1723 0.74012 0.75535 0.0
C201 C 0.20327 0.71901 0.7829 0.0
C202 C 0.21401 0.70586 0.78045 0.0
C203 C 0.2272 0.70312 0.79122 0.0
C204 C 0.22957 0.71381 0.80456 0.0
C205 C 0.21898 0.72706 0.80722 0.0
C206 C 0.20586 0.72953 0.7963 0.0
C207 C 0.22151 0.73825 0.82144 0.0
C208 C 0.22604 0.73205 0.83687 0.0
C209 C 0.21935 0.75522 0.81972 0.0
C210 C 0.22161 0.76573 0.83309 0.0
C211 C 0.22613 0.75953 0.84852 0.0
C212 C 0.23848 0.68913 0.78848 0.0
C213 C 0.23238 0.6738 0.78343 0.0
C214 C 0.25544 0.69097 0.79087 0.0
C215 C 0.26601 0.67782 0.78828 0.0
C216 C 0.25989 0.66252 0.78318 0.0
C217 C 0.24295 0.66067 0.78079 0.0
C218 C 0.22834 0.74256 0.85024 0.0
H219 H 0.15928 0.7006 0.75147 0.0
H220 H 0.18227 0.69616 0.77005 0.0
H221 H 0.19272 0.748 0.76993 0.0
H222 H 0.16983 0.75246 0.75121 0.0
H223 H 0.21232 0.69797 0.76989 0.0
H224 H 0.19737 0.73943 0.79849 0.0
H225 H 0.2397 0.7118 0.81292 0.0
H226 H 0.22764 0.71903 0.8387 0.0
H227 H 0.21603 0.76044 0.80798 0.0
H228 H 0.21963 0.77871 0.83135 0.0
H229 H 0.21937 0.67187 0.78174 0.0
H230 H 0.2606 0.70266 0.79449 0.0
H231 H 0.232 0.73737 0.86189 0.0
H232 H 0.23782 0.64898 0.77711 0.0
H233 H 0.27902 0.67971 0.79001 0.0
C234 C 0.97667 0.60051 0.49154 0.0
C235 C 0.97445 0.59872 0.50852 0.0
C236 C 0.97419 0.58727 0.48094 0.0
C237 C 0.96939 0.57191 0.48704 0.0
C238 C 0.96715 0.57012 0.50402 0.0
C239 C 0.96966 0.58335 0.51463 0.0
C240 C 0.96676 0.55782 0.47575 0.0
C241 C 0.97759 0.55497 0.46276 0.0
C242 C 0.9752 0.54174 0.45195 0.0
C243 C 0.9618 0.53119 0.45442 0.0
C244 C 0.95085 0.53376 0.46739 0.0
C245 C 0.95341 0.54718 0.47793 0.0
C246 C 0.93672 0.52247 0.46995 0.0
C247 C 0.92789 0.51609 0.45654 0.0
C248 C 0.93197 0.51797 0.48586 0.0
C249 C 0.91872 0.50741 0.4883 0.0
C250 C 0.90992 0.50097 0.4749 0.0
C251 C 0.98667 0.53899 0.4381 0.0
C252 C 0.99294 0.5523 0.42916 0.0
C253 C 0.99144 0.52308 0.43367 0.0
C254 C 1.00212 0.52053 0.4206 0.0
C255 C 0.0084 0.53384 0.41167 0.0
C256 C 0.00369 0.54976 0.41616 0.0
C257 C 0.9147 0.50543 0.45898 0.0
H258 H 0.98052 0.61212 0.48644 0.0
H259 H 0.97587 0.58911 0.46791 0.0
H260 H 0.96362 0.55842 0.50914 0.0
H261 H 0.96767 0.58159 0.52762 0.0
H262 H 0.98816 0.56286 0.4613 0.0
H263 H 0.94476 0.54959 0.48764 0.0
H264 H 0.9599 0.52093 0.4462 0.0
H265 H 0.93105 0.51943 0.44411 0.0
H266 H 0.9386 0.52247 0.49648 0.0
H267 H 0.91529 0.50445 0.50075 0.0
H268 H 0.9894 0.56471 0.43209 0.0
H269 H 0.98703 0.51255 0.4404 0.0
H270 H 0.90836 0.50058 0.44834 0.0
H271 H 0.00843 0.56032 0.40972 0.0
H272 H 0.00531 0.50809 0.4174 0.0
C273 C 0.79847 0.75584 0.84203 0.0
C274 C 0.78258 0.75068 0.84607 0.0
C275 C 0.8011 0.76641 0.82884 0.0
C276 C 0.78789 0.77206 0.81933 0.0
C277 C 0.77199 0.76689 0.82337 0.0
C278 C 0.76937 0.75634 0.83658 0.0
C279 C 0.7907 0.78331 0.80528 0.0
C280 C 0.80404 0.78091 0.79475 0.0
C281 C 0.80685 0.7915 0.78149 0.0
C282 C 0.79613 0.80464 0.77883 0.0
C283 C 0.78273 0.80725 0.78921 0.0
C284 C 0.7801 0.79651 0.80237 0.0
C285 C 0.77156 0.82128 0.78637 0.0
C286 C 0.77785 0.83686 0.78262 0.0
C287 C 0.75453 0.81921 0.78739 0.0
C288 C 0.74402 0.8324 0.78467 0.0
C289 C 0.75029 0.848 0.78094 0.0
C290 C 0.82096 0.78882 0.77041 0.0
C291 C 0.83643 0.78489 0.77684 0.0
C292 C 0.81908 0.79019 0.75334 0.0
C293 C 0.83236 0.78768 0.74293 0.0
C294 C 0.84785 0.78382 0.74935 0.0
C295 C 0.84973 0.78246 0.76643 0.0
C296 C 0.76735 0.85006 0.77998 0.0
H297 H 0.8089 0.75191 0.84924 0.0
H298 H 0.81347 0.77035 0.82625 0.0
H299 H 0.76157 0.77081 0.81616 0.0
H300 H 0.757 0.75242 0.83921 0.0
H301 H 0.81204 0.77054 0.79662 0.0
H302 H 0.77003 0.79871 0.81065 0.0
H303 H 0.79824 0.81288 0.76866 0.0
H304 H 0.79092 0.83891 0.78199 0.0
H305 H 0.74931 0.80731 0.79005 0.0
H306 H 0.73096 0.83029 0.78525 0.0
H307 H 0.83831 0.78387 0.78995 0.0
H308 H 0.80728 0.79305 0.748 0.0
H309 H 0.77263 0.86196 0.77743 0.0
H310 H 0.86147 0.77935 0.77176 0.0
H311 H 0.83054 0.78895 0.72984 0.0
C312 C 0.29883 0.25676 0.34278 0.0
C313 C 0.28303 0.25111 0.34659 0.0
C314 C 0.30134 0.26722 0.32948 0.0
C315 C 0.28813 0.27232 0.31968 0.0
C316 C 0.27233 0.26672 0.32351 0.0
C317 C 0.26982 0.25623 0.33679 0.0
C318 C 0.29084 0.28345 0.30554 0.0
C319 C 0.30422 0.2811 0.29507 0.0
C320 C 0.30695 0.29159 0.28172 0.0
C321 C 0.29614 0.30464 0.27896 0.0
C322 C 0.28271 0.30722 0.2893 0.0
C323 C 0.28012 0.29652 0.30252 0.0
C324 C 0.27149 0.3212 0.28641 0.0
C325 C 0.27774 0.33679 0.28268 0.0
C326 C 0.25447 0.31907 0.28742 0.0
C327 C 0.24393 0.33223 0.28469 0.0
C328 C 0.25016 0.34786 0.28099 0.0
C329 C 0.32108 0.28891 0.27065 0.0
C330 C 0.33657 0.2851 0.27709 0.0
C331 C 0.31917 0.29015 0.25357 0.0
C332 C 0.33244 0.28761 0.24316 0.0
C333 C 0.34795 0.28385 0.24959 0.0
C334 C 0.34987 0.28264 0.26668 0.0
C335 C 0.26721 0.34997 0.28004 0.0
H336 H 0.30925 0.2533 0.35023 0.0
H337 H 0.31363 0.27152 0.32703 0.0
H338 H 0.26193 0.27024 0.31607 0.0
H339 H 0.25753 0.25192 0.33923 0.0
H340 H 0.31232 0.27082 0.29706 0.0
H341 H 0.27 0.29867 0.31076 0.0
H342 H 0.2982 0.31283 0.26874 0.0
H343 H 0.29081 0.33887 0.28206 0.0
H344 H 0.24928 0.30716 0.29007 0.0
H345 H 0.23087 0.33009 0.28527 0.0
H346 H 0.33847 0.28419 0.2902 0.0
H347 H 0.30735 0.29292 0.24822 0.0
H348 H 0.27247 0.36188 0.27751 0.0
H349 H 0.36162 0.27961 0.27202 0.0
H350 H 0.33059 0.28877 0.23006 0.0
C351 C 0.49078 0.97916 0.59977 0.0
C352 C 0.50748 0.97554 0.59831 0.0
C353 C 0.48008 0.97652 0.58661 0.0
C354 C 0.48586 0.97039 0.57159 0.0
C355 C 0.50263 0.96691 0.57015 0.0
C356 C 0.51329 0.96935 0.58339 0.0
C357 C 0.47446 0.96764 0.5575 0.0
C358 C 0.46142 0.97843 0.55455 0.0
C359 C 0.45055 0.97588 0.54137 0.0
C360 C 0.45304 0.9625 0.53085 0.0
C361 C 0.46604 0.95159 0.53349 0.0
C362 C 0.47656 0.95419 0.54694 0.0
C363 C 0.46866 0.93746 0.52226 0.0
C364 C 0.45535 0.92836 0.51609 0.0
C365 C 0.48457 0.93294 0.51765 0.0
C366 C 0.4871 0.91961 0.50722 0.0
C367 C 0.4738 0.91052 0.50107 0.0
C368 C 0.43654 0.98716 0.53873 0.0
C369 C 0.42724 0.99264 0.55208 0.0
C370 C 0.4323 0.99246 0.52289 0.0
C371 C 0.41906 1.00299 0.52047 0.0
C372 C 0.40973 0.00843 0.53382 0.0
C373 C 0.41399 1.00313 0.54966 0.0
C374 C 0.45788 0.91507 0.50558 0.0
H375 H 0.48594 0.98376 0.61121 0.0
H376 H 0.46722 0.97906 0.58831 0.0
H377 H 0.50762 0.96248 0.55871 0.0
H378 H 0.52615 0.96664 0.58187 0.0
H379 H 0.45989 0.98908 0.5623 0.0
H380 H 0.4862 0.94548 0.54941 0.0
H381 H 0.4448 0.96056 0.52058 0.0
H382 H 0.44295 0.93132 0.51958 0.0
H383 H 0.49509 0.93983 0.52193 0.0
H384 H 0.4995 0.91658 0.50377 0.0
H385 H 0.43007 0.98866 0.56442 0.0
H386 H 0.4393 0.98859 0.51236 0.0
H387 H 0.44739 0.90818 0.50122 0.0
H388 H 0.40718 0.00722 0.56023 0.0
H389 H 0.41602 0.00671 0.50809 0.0
C390 C 0.20758 0.25433 0.66606 0.0
C391 C 0.2235 0.25039 0.66109 0.0
C392 C 0.20504 0.26482 0.67935 0.0
C393 C 0.21837 0.27148 0.68811 0.0
C394 C 0.23431 0.2674 0.68317 0.0
C395 C 0.23684 0.25705 0.66976 0.0
C396 C 0.21567 0.28265 0.70231 0.0
C397 C 0.20262 0.27995 0.71314 0.0
C398 C 0.1999 0.29048 0.72647 0.0
C399 C 0.21053 0.3038 0.72904 0.0
C400 C 0.22369 0.30671 0.71842 0.0
C401 C 0.22612 0.29612 0.70507 0.0
C402 C 0.23488 0.32085 0.72119 0.0
C403 C 0.22865 0.33632 0.72532 0.0
C404 C 0.25188 0.31899 0.71965 0.0
C405 C 0.26242 0.33228 0.7222 0.0
C406 C 0.25619 0.34777 0.72626 0.0
C407 C 0.18589 0.28758 0.73766 0.0
C408 C 0.17039 0.2835 0.73132 0.0
C409 C 0.18789 0.28892 0.75474 0.0
C410 C 0.17468 0.28622 0.76522 0.0
C411 C 0.15916 0.28222 0.75887 0.0
C412 C 0.15717 0.2809 0.74179 0.0
C413 C 0.23918 0.34964 0.72779 0.0
H414 H 0.19707 0.24952 0.65948 0.0
H415 H 0.19261 0.2679 0.68258 0.0
H416 H 0.24488 0.27202 0.68977 0.0
H417 H 0.24925 0.25406 0.66633 0.0
H418 H 0.19474 0.26939 0.71144 0.0
H419 H 0.23593 0.29864 0.69657 0.0
H420 H 0.20853 0.31196 0.73932 0.0
H421 H 0.21561 0.33819 0.72646 0.0
H422 H 0.25707 0.3072 0.71661 0.0
H423 H 0.27544 0.33047 0.72078 0.0
H424 H 0.16842 0.28252 0.71822 0.0
H425 H 0.19971 0.29191 0.76001 0.0
H426 H 0.23401 0.36137 0.73105 0.0
H427 H 0.1454 0.27768 0.73652 0.0
H428 H 0.17658 0.28747 0.77831 0.0
C429 C 0.83642 0.2387 0.75502 0.0
C430 C 0.84641 0.22559 0.75994 0.0
C431 C 0.82323 0.23612 0.74433 0.0
C432 C 0.81965 0.22035 0.73837 0.0
C433 C 0.82957 0.20724 0.74333 0.0
C434 C 0.84281 0.20983 0.75394 0.0
C435 C 0.80569 0.21759 0.72694 0.0
C436 C 0.80293 0.22831 0.71377 0.0
C437 C 0.78997 0.2256 0.70271 0.0
C438 C 0.77963 0.21202 0.70501 0.0
C439 C 0.78205 0.20124 0.71822 0.0
C440 C 0.79515 0.20414 0.72909 0.0
C441 C 0.77086 0.18702 0.7207 0.0
C442 C 0.75395 0.18853 0.71794 0.0
C443 C 0.777 0.17182 0.7259 0.0
C444 C 0.76649 0.15851 0.72832 0.0
C445 C 0.74958 0.16001 0.72551 0.0
C446 C 0.78727 0.23691 0.68869 0.0
C447 C 0.78828 0.25394 0.69091 0.0
C448 C 0.78362 0.23075 0.673 0.0
C449 C 0.78103 0.24137 0.65983 0.0
C450 C 0.78197 0.25843 0.66204 0.0
C451 C 0.78563 0.26458 0.67776 0.0
C452 C 0.74345 0.17519 0.72026 0.0
H453 H 0.83864 0.25096 0.7596 0.0
H454 H 0.81569 0.24644 0.7409 0.0
H455 H 0.82727 0.19499 0.73876 0.0
H456 H 0.85038 0.19949 0.75721 0.0
H457 H 0.81119 0.23852 0.71184 0.0
H458 H 0.79695 0.19614 0.73952 0.0
H459 H 0.76966 0.20986 0.69648 0.0
H460 H 0.74875 0.20009 0.71413 0.0
H461 H 0.78997 0.17014 0.72798 0.0
H462 H 0.77164 0.14708 0.73256 0.0
H463 H 0.79086 0.25908 0.7029 0.0
H464 H 0.783 0.21768 0.67083 0.0
H465 H 0.73054 0.17677 0.71778 0.0
H466 H 0.7862 0.27763 0.67998 0.0
H467 H 0.77852 0.23619 0.64785 0.0
C468 C 0.53783 0.58273 0.49371 0.0
C469 C 0.53159 0.59759 0.49962 0.0
C470 C 0.54029 0.56952 0.50429 0.0
C471 C 0.53672 0.57089 0.52109 0.0
C472 C 0.53058 0.58584 0.52699 0.0
C473 C 0.52797 0.59899 0.51637 0.0
C474 C 0.53932 0.55678 0.53238 0.0
C475 C 0.55287 0.54643 0.53046 0.0
C476 C 0.55529 0.53289 0.54083 0.0
C477 C 0.54405 0.53002 0.55352 0.0
C478 C 0.5306 0.54041 0.55588 0.0
C479 C 0.52825 0.55362 0.54512 0.0
C480 C 0.5191 0.53763 0.56971 0.0
C481 C 0.51409 0.52173 0.57401 0.0
C482 C 0.51319 0.55092 0.57887 0.0
C483 C 0.5026 0.54839 0.59202 0.0
C484 C 0.49767 0.53249 0.5964 0.0
C485 C 0.56955 0.52181 0.5384 0.0
C486 C 0.57501 0.51798 0.52253 0.0
C487 C 0.57782 0.51493 0.55188 0.0
C488 C 0.59107 0.50443 0.54955 0.0
C489 C 0.59658 0.50066 0.53368 0.0
C490 C 0.58838 0.50764 0.52021 0.0
C491 C 0.50351 0.51919 0.58719 0.0
H492 H 0.54054 0.58123 0.48082 0.0
H493 H 0.54476 0.55814 0.49923 0.0
H494 H 0.52797 0.58748 0.53989 0.0
H495 H 0.52335 0.61037 0.52132 0.0
H496 H 0.56178 0.54914 0.52107 0.0
H497 H 0.51755 0.56126 0.54648 0.0
H498 H 0.5458 0.51971 0.56165 0.0
H499 H 0.51826 0.51122 0.56712 0.0
H500 H 0.51693 0.56332 0.57603 0.0
H501 H 0.49819 0.55894 0.59869 0.0
H502 H 0.56885 0.52283 0.51183 0.0
H503 H 0.57416 0.51775 0.56429 0.0
H504 H 0.5001 0.50676 0.59031 0.0
H505 H 0.59237 0.50527 0.50781 0.0
H506 H 0.59687 0.49915 0.56024 0.0
C507 C 0.49327 0.47052 0.92634 0.0
C508 C 0.49933 0.47492 0.91085 0.0
C509 C 0.50392 0.46822 0.93959 0.0
C510 C 0.52088 0.47028 0.9377 0.0
C511 C 0.52694 0.47466 0.92221 0.0
C512 C 0.51629 0.47695 0.90895 0.0
C513 C 0.53221 0.46793 0.95183 0.0
C514 C 0.52989 0.45488 0.96279 0.0
C515 C 0.54051 0.45258 0.97619 0.0
C516 C 0.5536 0.46356 0.97853 0.0
C517 C 0.55618 0.47664 0.96768 0.0
C518 C 0.5454 0.47874 0.95438 0.0
C519 C 0.57014 0.48812 0.97019 0.0
C520 C 0.57416 0.49389 0.98595 0.0
C521 C 0.5796 0.49335 0.95683 0.0
C522 C 0.59278 0.50406 0.95918 0.0
C523 C 0.59681 0.50984 0.97494 0.0
C524 C 0.538 0.43863 0.98764 0.0
C525 C 0.52219 0.43418 0.99271 0.0
C526 C 0.55139 0.42963 0.99358 0.0
C527 C 0.54904 0.41652 0.00431 0.0
C528 C 0.53323 0.41204 0.00936 0.0
C529 C 0.51983 0.42105 1.00342 0.0
C530 C 0.58732 0.50464 0.98829 0.0
H531 H 0.48029 0.4687 0.92819 0.0
H532 H 0.49883 0.465 0.95139 0.0
H533 H 0.53994 0.47619 0.92028 0.0
H534 H 0.52136 0.4805 0.89725 0.0
H535 H 0.52003 0.44623 0.96062 0.0
H536 H 0.54705 0.48905 0.94623 0.0
H537 H 0.56185 0.46189 0.98882 0.0
H538 H 0.56703 0.49023 0.99648 0.0
H539 H 0.57692 0.48902 0.94456 0.0
H540 H 0.59972 0.50795 0.9486 0.0
H541 H 0.51161 0.44094 0.9885 0.0
H542 H 0.56372 0.43259 0.9898 0.0
H543 H 0.59019 0.50872 1.00061 0.0
H544 H 0.50747 0.41784 0.00689 0.0
H545 H 0.55965 0.40998 0.00878 0.0
C546 C 0.66642 0.21094 0.25574 0.0
C547 C 0.66243 0.22679 0.25037 0.0
C548 C 0.67962 0.20843 0.26638 0.0
C549 C 0.68913 0.22169 0.27197 0.0
C550 C 0.68514 0.23754 0.26664 0.0
C551 C 0.67197 0.24006 0.25596 0.0
C552 C 0.70317 0.21901 0.2833 0.0
C553 C 0.71398 0.20596 0.28071 0.0
C554 C 0.72726 0.20326 0.29136 0.0
C555 C 0.7297 0.21393 0.3047 0.0
C556 C 0.71901 0.22708 0.30754 0.0
C557 C 0.70576 0.22947 0.29676 0.0
C558 C 0.72156 0.23822 0.32183 0.0
C559 C 0.72681 0.23205 0.33705 0.0
C560 C 0.71869 0.25512 0.3204 0.0
C561 C 0.72092 0.26555 0.33384 0.0
C562 C 0.7262 0.25939 0.34905 0.0
C563 C 0.73853 0.18925 0.28858 0.0
C564 C 0.73237 0.17393 0.28358 0.0
C565 C 0.75549 0.19104 0.29093 0.0
C566 C 0.76601 0.17784 0.28839 0.0
C567 C 0.75985 0.16251 0.28341 0.0
C568 C 0.7429 0.16075 0.281 0.0
C569 C 0.72916 0.24249 0.35045 0.0
H570 H 0.65918 0.20047 0.25192 0.0
H571 H 0.68223 0.19609 0.27045 0.0
H572 H 0.69237 0.24799 0.27054 0.0
H573 H 0.66942 0.2524 0.25188 0.0
H574 H 0.71226 0.19809 0.27013 0.0
H575 H 0.69716 0.23924 0.29907 0.0
H576 H 0.73993 0.21196 0.31293 0.0
H577 H 0.72895 0.21909 0.3387 0.0
H578 H 0.71483 0.26036 0.30884 0.0
H579 H 0.71831 0.27844 0.33232 0.0
H580 H 0.71937 0.17205 0.28182 0.0
H581 H 0.76068 0.2027 0.29459 0.0
H582 H 0.73344 0.23731 0.36189 0.0
H583 H 0.73772 0.1492 0.27697 0.0
H584 H 0.77898 0.17961 0.29054 0.0
C585 C 0.47686 0.10052 0.99131 0.0
C586 C 0.47469 0.09872 0.0083 0.0
C587 C 0.47438 0.08727 0.98072 0.0
C588 C 0.46966 0.0719 0.98684 0.0
C589 C 0.46748 0.0701 0.00382 0.0
C590 C 0.46998 0.08335 0.01443 0.0
C591 C 0.46702 0.0578 0.97556 0.0
C592 C 0.47783 0.05496 0.96255 0.0
C593 C 0.47541 0.04174 0.95174 0.0
C594 C 0.46203 0.03118 0.95423 0.0
C595 C 0.45108 0.03376 0.96721 0.0
C596 C 0.45367 0.04717 0.97775 0.0
C597 C 0.43694 0.02249 0.96977 0.0
C598 C 0.4281 0.01611 0.95636 0.0
C599 C 0.43217 0.01801 0.98568 0.0
C600 C 0.41888 0.0075 0.98812 0.0
C601 C 0.41007 1.00107 0.97471 0.0
C602 C 0.48686 0.039 0.93786 0.0
C603 C 0.49306 0.05232 0.9289 0.0
C604 C 0.49163 0.02309 0.93342 0.0
C605 C 0.50226 0.02057 0.9203 0.0
C606 C 0.50848 0.03388 0.91134 0.0
C607 C 0.50376 0.04979 0.91584 0.0
C608 C 0.41488 0.0055 0.9588 0.0
H609 H 0.48065 0.11215 0.9862 0.0
H610 H 0.47602 0.08912 0.96769 0.0
H611 H 0.46399 0.05839 0.00896 0.0
H612 H 0.46804 0.08157 0.02742 0.0
H613 H 0.48838 0.06286 0.96106 0.0
H614 H 0.44503 0.04959 0.98747 0.0
H615 H 0.46012 0.02093 0.94601 0.0
H616 H 0.43127 0.01944 0.94393 0.0
H617 H 0.43879 0.02251 0.9963 0.0
H618 H 0.41542 0.00456 1.00057 0.0
H619 H 0.48951 0.06473 0.93184 0.0
H620 H 0.48727 0.01256 0.94016 0.0
H621 H 0.40854 1.00065 0.94816 0.0
H622 H 0.50845 0.06037 0.90938 0.0
H623 H 0.50546 0.00813 0.91708 0.0
Li624 Li 0.2691 0.8901 1.00336 0.0
Li625 Li 0.25705 0.87 0.02084 0.0
Li626 Li 0.25221 0.86898 0.99153 0.0
Li627 Li 0.23856 0.89029 0.00905 0.0
C628 C 0.28969 0.8664 1.00107 0.0
N629 N 0.32315 0.86796 0.99665 0.0
C630 C 0.3003 0.864 0.01434 0.0
C631 C 0.29612 0.86959 0.98555 0.0
C632 C 0.31717 0.86482 0.01184 0.0
C633 C 0.31306 0.87035 0.98358 0.0
C634 C 0.25898 0.89683 0.04058 0.0
C635 C 0.24818 0.90647 0.06626 0.0
N636 N 0.26238 0.90222 0.07385 0.0
C637 C 0.2735 0.89262 0.04862 0.0
C638 C 0.24622 0.90385 0.04944 0.0
C639 C 0.27496 0.89541 0.06545 0.0
C640 C 0.28734 0.91408 0.98607 0.0
N641 N 0.28728 0.90457 0.99973 0.0
C642 C 0.31316 0.91557 0.00811 0.0
C643 C 0.29977 0.90529 0.01078 0.0
C644 C 0.31363 0.92549 0.99406 0.0
C645 C 0.30042 0.92466 0.98298 0.0
H646 H 0.27715 0.91353 0.9776 0.0
H647 H 0.29946 0.89776 0.0216 0.0
C648 C 0.26917 0.84252 0.03789 0.0
N649 N 0.25985 0.85613 0.03975 0.0
C650 C 0.27146 0.83173 0.05095 0.0
C651 C 0.25408 0.84883 0.06752 0.0
C652 C 0.25206 0.85923 0.05411 0.0
C653 C 0.26396 0.83489 0.06607 0.0
H654 H 0.27476 0.83997 0.02619 0.0
H655 H 0.24405 0.86965 0.05511 0.0
C656 C 0.24503 0.89371 0.972 0.0
N657 N 0.23367 0.89394 0.94005 0.0
C658 C 0.22851 0.89662 0.96871 0.0
C659 C 0.25579 0.89102 0.95903 0.0
C660 C 0.223 0.89668 0.95247 0.0
C661 C 0.24981 0.89114 0.94297 0.0
C662 C 0.23048 0.85225 0.01652 0.0
C663 C 0.23585 0.83707 0.0108 0.0
C664 C 0.22037 0.85296 0.03026 0.0
C665 C 0.231 0.82284 0.01893 0.0
C666 C 0.21579 0.83845 0.03805 0.0
N667 N 0.22116 0.82382 0.03227 0.0
C668 C 0.26115 0.8458 0.96722 0.0
C669 C 0.23352 0.85428 0.96604 0.0
C670 C 0.2588 0.8356 0.95366 0.0
N671 N 0.24865 0.85503 0.97298 0.0
C672 C 0.23062 0.84429 0.95241 0.0
C673 C 0.24338 0.83479 0.94599 0.0
H674 H 0.27292 0.84619 0.97325 0.0
H675 H 0.2237 0.86151 0.97107 0.0
C676 C 0.22189 0.92023 0.00945 0.0
N677 N 0.21999 0.9039 0.01196 0.0
C678 C 0.2087 0.93083 0.01152 0.0
C679 C 0.19187 0.90761 0.01881 0.0
C680 C 0.20535 0.89744 0.01641 0.0
C681 C 0.19341 0.9246 0.01638 0.0
H682 H 0.23367 0.92499 0.00578 0.0
H683 H 0.20412 0.8844 0.01813 0.0
O684 O 0.27311 0.86587 1.00328 0.0
O685 O 0.25727 0.89424 0.0241 0.0
O686 O 0.25059 0.89332 0.98783 0.0
O687 O 0.23552 0.86633 0.00902 0.0
H688 H 0.2956 0.86181 0.02649 0.0
H689 H 0.28813 0.87166 0.97518 0.0
H690 H 0.3255 0.86306 0.02202 0.0
H691 H 0.31819 0.87289 0.97165 0.0
H692 H 0.23839 0.91187 0.07328 0.0
H693 H 0.28337 0.88691 0.04202 0.0
H694 H 0.23491 0.90721 0.04341 0.0
H695 H 0.28607 0.89208 0.07186 0.0
H696 H 0.32312 0.91558 0.01691 0.0
H697 H 0.30006 0.93228 0.97215 0.0
H698 H 0.27917 0.82112 0.04927 0.0
H699 H 0.24773 0.85151 0.07881 0.0
H700 H 0.21998 0.89865 0.97857 0.0
H701 H 0.26861 0.88872 0.96134 0.0
H702 H 0.21024 0.89884 0.94975 0.0
H703 H 0.25798 0.88898 0.93282 0.0
H704 H 0.24386 0.83628 1.00033 0.0
H705 H 0.21639 0.8646 0.03509 0.0
H706 H 0.23512 0.81102 0.01467 0.0
H707 H 0.20807 0.83883 0.04876 0.0
H708 H 0.26889 0.82822 0.9494 0.0
H709 H 0.21857 0.84416 0.94687 0.0
H710 H 0.21046 0.94375 0.00916 0.0
H711 H 0.18045 0.9022 0.02275 0.0
Li712 Li 0.11944 0.50605 0.27129 0.0
Li713 Li 0.13921 0.48915 0.25826 0.0
Li714 Li 0.13978 0.51841 0.25394 0.0
Li715 Li 0.11807 0.50062 0.24057 0.0
C716 C 0.14416 0.50918 0.29111 0.0
N717 N 0.14451 0.5146 0.32456 0.0
C718 C 0.14697 0.49623 0.30192 0.0
C719 C 0.1416 0.52491 0.29733 0.0
C720 C 0.1471 0.49922 0.31878 0.0
C721 C 0.14179 0.52739 0.31427 0.0
C722 C 0.11343 0.4688 0.26151 0.0
C723 C 0.10489 0.4422 0.25178 0.0
N724 N 0.11013 0.43545 0.26609 0.0
C725 C 0.11868 0.4616 0.27613 0.0
C726 C 0.10645 0.45903 0.24923 0.0
C727 C 0.11694 0.44472 0.2782 0.0
C728 C 0.09555 0.52272 0.28982 0.0
N729 N 0.10562 0.50952 0.28993 0.0
C730 C 0.09557 0.50147 0.3162 0.0
C731 C 0.10568 0.49888 0.30272 0.0
C732 C 0.08504 0.51501 0.31646 0.0
C733 C 0.08513 0.52571 0.30299 0.0
H734 H 0.09546 0.53086 0.2794 0.0
H735 H 0.11363 0.4884 0.30256 0.0
C736 C 0.16697 0.47208 0.26981 0.0
N737 N 0.15341 0.47048 0.26021 0.0
C738 C 0.17775 0.45901 0.27173 0.0
C739 C 0.16078 0.443 0.2534 0.0
C740 C 0.15039 0.45642 0.25175 0.0
C741 C 0.17462 0.44415 0.2636 0.0
H742 H 0.16946 0.48356 0.27593 0.0
H743 H 0.13998 0.45563 0.24359 0.0
C744 C 0.11413 0.5376 0.24799 0.0
N745 N 0.11211 0.56972 0.23762 0.0
C746 C 0.10973 0.54114 0.23182 0.0
C747 C 0.11732 0.55041 0.25894 0.0
C748 C 0.10881 0.55745 0.2268 0.0
C749 C 0.1163 0.56656 0.25345 0.0
C750 C 0.15457 0.49309 0.23013 0.0
C751 C 0.17057 0.49705 0.23479 0.0
C752 C 0.15175 0.48051 0.21885 0.0
C753 C 0.18353 0.48821 0.22815 0.0
C754 C 0.16505 0.47197 0.21247 0.0
N755 N 0.18052 0.47595 0.21723 0.0
C756 C 0.16461 0.54142 0.26191 0.0
C757 C 0.15273 0.54493 0.23562 0.0
C758 C 0.17503 0.55474 0.25937 0.0
N759 N 0.15362 0.53691 0.25018 0.0
C760 C 0.16281 0.55843 0.23261 0.0
C761 C 0.17416 0.56349 0.24459 0.0
H762 H 0.1654 0.53459 0.2732 0.0
H763 H 0.14424 0.54078 0.22629 0.0
C764 C 0.08831 0.49341 0.22464 0.0
N765 N 0.10419 0.49761 0.2221 0.0
C766 C 0.07774 0.49098 0.21135 0.0
C767 C 0.09997 0.49765 0.1931 0.0
C768 C 0.11016 0.49979 0.20674 0.0
C769 C 0.08354 0.49311 0.19532 0.0
H770 H 0.0839 0.49188 0.23702 0.0
H771 H 0.12282 0.50325 0.20511 0.0
O772 O 0.14378 0.50649 0.27455 0.0
O773 O 0.11504 0.48531 0.25921 0.0
O774 O 0.11532 0.5217 0.25307 0.0
O775 O 0.14171 0.50128 0.23686 0.0
H776 H 0.14879 0.48393 0.2974 0.0
H777 H 0.13941 0.53508 0.28918 0.0
H778 H 0.14917 0.48928 0.32728 0.0
H779 H 0.13975 0.53949 0.31924 0.0
H780 H 0.09955 0.43449 0.24237 0.0
H781 H 0.12441 0.46889 0.28561 0.0
H782 H 0.10241 0.46435 0.23779 0.0
H783 H 0.12108 0.43898 0.28941 0.0
H784 H 0.09612 0.49298 0.32637 0.0
H785 H 0.07702 0.53614 0.30245 0.0
H786 H 0.1883 0.46045 0.27969 0.0
H787 H 0.15812 0.43191 0.24658 0.0
H788 H 0.10715 0.53142 0.22318 0.0
H789 H 0.12064 0.54792 0.27153 0.0
H790 H 0.1055 0.56036 0.21429 0.0
H791 H 0.11885 0.57658 0.26177 0.0
H792 H 0.17292 0.50672 0.24359 0.0
H793 H 0.13941 0.47723 0.21523 0.0
H794 H 0.19598 0.49106 0.23171 0.0
H795 H 0.16306 0.46212 0.20381 0.0
H796 H 0.18359 0.55825 0.26894 0.0
H797 H 0.16195 0.56464 0.22093 0.0
H798 H 0.06512 0.48768 0.21361 0.0
H799 H 0.10495 0.4993 0.18094 0.0
Li800 Li 0.73864 0.62057 1.00074 0.0
Li801 Li 0.75126 0.64115 0.01894 0.0
Li802 Li 0.75658 0.64123 0.98834 0.0
Li803 Li 0.76916 0.62067 0.00641 0.0
C804 C 0.71972 0.64797 0.9968 0.0
N805 N 0.68727 0.65411 0.98957 0.0
C806 C 0.70911 0.65321 0.00909 0.0
C807 C 0.71388 0.64614 0.98078 0.0
C808 C 0.69273 0.65617 0.00521 0.0
C809 C 0.69742 0.64922 0.97738 0.0
C810 C 0.74835 0.61367 0.03799 0.0
C811 C 0.75866 0.61245 0.06571 0.0
N812 N 0.7437 0.60739 0.07092 0.0
C813 C 0.73314 0.60826 0.04359 0.0
C814 C 0.76127 0.6156 0.04911 0.0
C815 C 0.73101 0.60523 0.06029 0.0
C816 C 0.72115 0.59406 0.98676 0.0
N817 N 0.71986 0.60692 0.99725 0.0
C818 C 0.69209 0.59979 1.00304 0.0
C819 C 0.70574 0.60987 0.00543 0.0
C820 C 0.69301 0.58648 0.99216 0.0
C821 C 0.7078 0.58368 0.98396 0.0
H822 H 0.73261 0.59172 0.98068 0.0
H823 H 0.70509 0.61993 0.01399 0.0
C824 C 0.75826 0.66747 0.04045 0.0
N825 N 0.74795 0.65464 0.03782 0.0
C826 C 0.75622 0.67766 0.05404 0.0
C827 C 0.73278 0.66143 0.06185 0.0
C828 C 0.7353 0.65155 0.04813 0.0
C829 C 0.74332 0.67471 0.06498 0.0
H830 H 0.76801 0.66991 0.0319 0.0
H831 H 0.72704 0.64151 0.04561 0.0
C832 C 0.75937 0.6138 0.9691 0.0
N833 N 0.76386 0.60758 0.93613 0.0
C834 C 0.77456 0.60856 0.96341 0.0
C835 C 0.74638 0.61558 0.95806 0.0
C836 C 0.77661 0.60555 0.94669 0.0
C837 C 0.74891 0.61246 0.94144 0.0
C838 C 0.78815 0.64811 0.01047 0.0
C839 C 0.79875 0.6534 0.99817 0.0
C840 C 0.79404 0.64626 0.02647 0.0
C841 C 0.81516 0.65638 1.00201 0.0
C842 C 0.81052 0.64936 0.02982 0.0
N843 N 0.82067 0.65429 0.01762 0.0
C844 C 0.74963 0.66766 0.9671 0.0
C845 C 0.77248 0.65185 0.95918 0.0
C846 C 0.75169 0.67795 0.9536 0.0
N847 N 0.75988 0.65483 0.96956 0.0
C848 C 0.77502 0.66185 0.94556 0.0
C849 C 0.76453 0.67512 0.9426 0.0
H850 H 0.73993 0.67001 0.97571 0.0
H851 H 0.7807 0.64182 0.96157 0.0
C852 C 0.78661 0.59433 0.02037 0.0
N853 N 0.78791 0.60714 0.00984 0.0
C854 C 0.79994 0.58406 0.02319 0.0
C855 C 0.81567 0.60015 0.00405 0.0
C856 C 0.80203 0.61012 1.00163 0.0
C857 C 0.81474 0.58691 0.01498 0.0
H858 H 0.77515 0.59196 0.02647 0.0
H859 H 0.80269 0.62014 0.99305 0.0
O860 O 0.73578 0.64488 1.00041 0.0
O861 O 0.75062 0.61683 0.02169 0.0
O862 O 0.75718 0.61693 0.98543 0.0
O863 O 0.77206 0.645 0.0069 0.0
H864 H 0.71343 0.65489 0.02151 0.0
H865 H 0.72198 0.64251 0.97104 0.0
H866 H 0.68436 0.66012 0.01463 0.0
H867 H 0.69274 0.64779 0.96504 0.0
H868 H 0.76854 0.61397 0.07445 0.0
H869 H 0.72306 0.6065 0.03516 0.0
H870 H 0.77321 0.61937 0.04496 0.0
H871 H 0.71927 0.60115 0.06479 0.0
H872 H 0.68092 0.60247 0.00956 0.0
H873 H 0.70916 0.5734 0.97571 0.0
H874 H 0.76446 0.68793 0.05579 0.0
H875 H 0.72274 0.65863 0.06999 0.0
H876 H 0.78469 0.60691 0.97178 0.0
H877 H 0.73445 0.61921 0.96229 0.0
H878 H 0.78834 0.60161 0.94211 0.0
H879 H 0.73898 0.61387 0.93276 0.0
H880 H 0.7944 0.6551 0.98578 0.0
H881 H 0.78595 0.64259 0.03621 0.0
H882 H 0.82352 0.66036 0.99258 0.0
H883 H 0.81524 0.6479 0.04214 0.0
H884 H 0.74349 0.6882 0.95199 0.0
H885 H 0.78502 0.65914 0.93737 0.0
H886 H 0.79857 0.57382 0.03148 0.0
H887 H 0.82684 0.60286 0.99752 0.0
Li888 Li 0.86868 0.02039 0.25703 0.0
Li889 Li 0.88918 1.00244 0.26992 0.0
Li890 Li 0.88892 0.00782 0.2394 0.0
Li891 Li 0.86823 0.98985 0.25179 0.0
C892 C 0.89517 0.03945 0.26172 0.0
N893 N 0.89926 0.0721 0.26964 0.0
C894 C 0.9001 0.04398 0.27752 0.0
C895 C 0.89256 0.05152 0.24989 0.0
C896 C 0.90205 0.06055 0.2813 0.0
C897 C 0.89461 0.06796 0.25415 0.0
C898 C 0.86041 0.99726 0.28801 0.0
C899 C 0.85681 0.97612 0.30829 0.0
N900 N 0.85118 0.98748 0.31904 0.0
C901 C 0.85438 0.00869 0.29919 0.0
C902 C 0.86146 0.98081 0.29253 0.0
C903 C 0.84986 0.00352 0.31484 0.0
C904 C 0.84352 0.04265 0.24898 0.0
N905 N 0.85521 0.03919 0.26035 0.0
C906 C 0.84724 0.06227 0.27647 0.0
C907 C 0.85715 0.04862 0.27397 0.0
C908 C 0.83505 0.06615 0.26493 0.0
C909 C 0.83327 0.05612 0.25103 0.0
H910 H 0.84206 0.03486 0.23835 0.0
H911 H 0.8663 0.04546 0.28301 0.0
C912 C 0.91735 0.99112 0.28631 0.0
N913 N 0.90296 0.99904 0.28863 0.0
C914 C 0.92795 0.98837 0.29949 0.0
C915 C 0.90891 1.00224 0.31719 0.0
C916 C 0.89868 0.00474 0.30367 0.0
C917 C 0.92378 0.99394 0.31521 0.0
H918 H 0.92061 0.98695 0.27419 0.0
H919 H 0.88748 0.0115 0.30515 0.0
C920 C 0.86276 0.01062 0.21972 0.0
N921 N 0.85935 0.01528 0.18635 0.0
C922 C 0.85776 0.99768 0.20964 0.0
C923 C 0.86579 0.02599 0.21287 0.0
C924 C 0.85616 1.00026 0.19279 0.0
C925 C 0.86407 0.02808 0.19596 0.0
C926 C 0.8966 0.97073 0.25105 0.0
C927 C 0.90209 0.96354 0.23654 0.0
C928 C 0.89575 0.96134 0.26532 0.0
C929 C 0.90625 0.94698 0.23646 0.0
C930 C 0.90004 0.94482 0.26475 0.0
N931 N 0.90512 0.93803 0.25045 0.0
C932 C 0.91406 0.02291 0.22109 0.0
C933 C 0.9007 1.0011 0.20727 0.0
C934 C 0.92429 0.0255 0.20769 0.0
N935 N 0.9025 0.01091 0.22063 0.0
C936 C 0.91063 1.00329 0.19356 0.0
C937 C 0.92266 0.01563 0.19364 0.0
H938 H 0.91545 0.03037 0.23195 0.0
H939 H 0.89155 0.99153 0.20724 0.0
C940 C 0.84041 0.97009 0.2574 0.0
N941 N 0.85438 0.97117 0.24852 0.0
C942 C 0.82986 0.95674 0.25539 0.0
C943 C 0.84804 0.94603 0.2348 0.0
C944 C 0.85826 0.95956 0.23726 0.0
C945 C 0.83361 0.94445 0.24396 0.0
H946 H 0.8374 0.97964 0.26604 0.0
H947 H 0.86913 0.96094 0.22994 0.0
O948 O 0.89305 0.02328 0.25784 0.0
O949 O 0.86495 1.00214 0.27265 0.0
O950 O 0.86459 0.00827 0.23623 0.0
O951 O 0.89243 0.98693 0.25132 0.0
H952 H 0.90231 0.03481 0.28679 0.0
H953 H 0.88896 0.04823 0.23756 0.0
H954 H 0.90576 0.06423 0.29351 0.0
H955 H 0.89253 0.07743 0.24514 0.0
H956 H 0.85761 0.96343 0.31195 0.0
H957 H 0.85328 0.02143 0.29587 0.0
H958 H 0.86561 0.97172 0.28391 0.0
H959 H 0.84528 0.01227 0.32365 0.0
H960 H 0.84887 0.0695 0.28749 0.0
H961 H 0.82412 0.05873 0.24176 0.0
H962 H 0.93923 0.98181 0.29739 0.0
H963 H 0.90535 0.00707 0.32901 0.0
H964 H 0.85523 0.98575 0.21474 0.0
H965 H 0.86946 0.03618 0.22051 0.0
H966 H 0.8524 0.99033 0.18482 0.0
H967 H 0.86648 0.03989 0.19048 0.0
H968 H 0.90302 0.97064 0.22542 0.0
H969 H 0.89203 0.96678 0.27676 0.0
H970 H 0.91039 0.94124 0.22528 0.0
H971 H 0.89939 0.93742 0.27571 0.0
H972 H 0.93357 0.03496 0.20845 0.0
H973 H 0.9088 0.99548 0.18298 0.0
H974 H 0.81896 0.95602 0.26282 0.0
H975 H 0.85126 0.93708 0.22558 0.0
Li976 Li 0.25195 0.1415 0.51894 0.0
Li977 Li 0.24062 0.12041 0.50034 0.0
Li978 Li 0.26994 0.12039 0.5071 0.0
Li979 Li 0.25853 0.14068 0.48861 0.0
C980 C 0.25639 0.11237 0.53726 0.0
N981 N 0.26752 0.10181 0.56744 0.0
C982 C 0.25042 0.09781 0.54394 0.0
C983 C 0.26803 0.12156 0.5459 0.0
C984 C 0.25619 0.09268 0.55922 0.0
C985 C 0.2735 0.11601 0.56114 0.0
C986 C 0.22068 0.14562 0.49753 0.0
C987 C 0.19676 0.14391 0.48019 0.0
N988 N 0.18716 0.14699 0.49339 0.0
C989 C 0.21059 0.14892 0.51089 0.0
C990 C 0.21373 0.14324 0.48202 0.0
C991 C 0.19367 0.14951 0.50856 0.0
C992 C 0.25431 0.17062 0.53739 0.0
N993 N 0.24772 0.15533 0.53725 0.0
C994 C 0.23527 0.15995 0.56329 0.0
C995 C 0.23827 0.14988 0.54979 0.0
C996 C 0.24218 0.17571 0.56391 0.0
C997 C 0.2518 0.18102 0.55072 0.0
H998 H 0.26154 0.17472 0.52711 0.0
H999 H 0.23305 0.13771 0.54929 0.0
C1000 C 0.22126 0.09661 0.48374 0.0
N1001 N 0.22194 0.10668 0.497 0.0
C1002 C 0.20775 0.08638 0.48123 0.0
C1003 C 0.19594 0.09694 0.50616 0.0
C1004 C 0.20975 0.10686 0.50825 0.0
C1005 C 0.19479 0.08648 0.49249 0.0
H1006 H 0.23129 0.09634 0.47521 0.0
H1007 H 0.21076 0.11474 0.51886 0.0
C1008 C 0.28972 0.14779 0.5089 0.0
N1009 N 0.32291 0.15385 0.51143 0.0
C1010 C 0.30037 0.14196 0.49693 0.0
C1011 C 0.29597 0.15661 0.52224 0.0
C1012 C 0.3171 0.14516 0.4984 0.0
C1013 C 0.31278 0.15958 0.52327 0.0
C1014 C 0.26332 0.11502 0.46935 0.0
C1015 C 0.2791 0.11038 0.46482 0.0
C1016 C 0.25167 0.11827 0.4572 0.0
C1017 C 0.28299 0.10921 0.44822 0.0
C1018 C 0.25604 0.117 0.44073 0.0
N1019 N 0.27149 0.11254 0.43661 0.0
C1020 C 0.28806 0.09144 0.50422 0.0
C1021 C 0.30016 0.1105 0.52254 0.0
C1022 C 0.30093 0.08052 0.50669 0.0
N1023 N 0.28803 0.10623 0.51186 0.0
C1024 C 0.31329 0.09998 0.52535 0.0
C1025 C 0.31387 0.0848 0.51728 0.0
H1026 H 0.27811 0.08818 0.49604 0.0
H1027 H 0.29971 0.12208 0.5289 0.0
C1028 C 0.25073 0.1663 0.46682 0.0
N1029 N 0.26217 0.15468 0.47002 0.0
C1030 C 0.25256 0.17689 0.45352 0.0
C1031 C 0.27798 0.1635 0.44706 0.0
C1032 C 0.27568 0.15321 0.4605 0.0
C1033 C 0.26635 0.17557 0.4434 0.0
H1034 H 0.24021 0.16744 0.47468 0.0
H1035 H 0.28468 0.144 0.46318 0.0
O1036 O 0.25092 0.11747 0.52226 0.0
O1037 O 0.23726 0.1447 0.49964 0.0
O1038 O 0.27331 0.1446 0.50777 0.0
O1039 O 0.25928 0.11633 0.48556 0.0
H1040 H 0.24141 0.09056 0.53736 0.0
H1041 H 0.27284 0.13281 0.54087 0.0
H1042 H 0.25168 0.08144 0.56456 0.0
H1043 H 0.28253 0.12299 0.56796 0.0
H1044 H 0.19122 0.14199 0.46827 0.0
H1045 H 0.21574 0.15086 0.52296 0.0
H1046 H 0.22136 0.14087 0.47152 0.0
H1047 H 0.18571 0.15195 0.51881 0.0
H1048 H 0.22786 0.15537 0.57325 0.0
H1049 H 0.25714 0.19317 0.55063 0.0
H1050 H 0.20763 0.07828 0.47073 0.0
H1051 H 0.18624 0.09756 0.51511 0.0
H1052 H 0.29582 0.13465 0.48686 0.0
H1053 H 0.28798 0.161 0.53177 0.0
H1054 H 0.32547 0.14063 0.48926 0.0
H1055 H 0.31778 0.16639 0.53353 0.0
H1056 H 0.28833 0.10788 0.474 0.0
H1057 H 0.2394 0.12182 0.46045 0.0
H1058 H 0.29518 0.10572 0.44455 0.0
H1059 H 0.24716 0.11957 0.43122 0.0
H1060 H 0.30088 0.06898 0.50014 0.0
H1061 H 0.3228 0.10364 0.5339 0.0
H1062 H 0.2434 0.18618 0.45135 0.0
H1063 H 0.2887 0.16186 0.4395 0.0
Li1064 Li 0.38857 0.50193 0.76914 0.0
Li1065 Li 0.36818 0.52006 0.75633 0.0
Li1066 Li 0.36753 0.48953 0.75098 0.0
Li1067 Li 0.38833 0.50742 0.73863 0.0
C1068 C 0.35983 0.49683 0.78724 0.0
N1069 N 0.35067 0.48693 0.81825 0.0
C1070 C 0.35377 0.50821 0.79847 0.0
C1071 C 0.36094 0.48037 0.79171 0.0
C1072 C 0.34929 0.50298 0.81411 0.0
C1073 C 0.35633 0.47561 0.80745 0.0
C1074 C 0.39483 0.53893 0.76099 0.0
C1075 C 0.39449 0.56744 0.75339 0.0
N1076 N 0.39922 0.57156 0.76887 0.0
C1077 C 0.39984 0.54344 0.77677 0.0
C1078 C 0.39229 0.55101 0.74915 0.0
C1079 C 0.40194 0.56 0.78053 0.0
C1080 C 0.41659 0.49028 0.78561 0.0
N1081 N 0.4023 0.49841 0.78786 0.0
C1082 C 0.40825 0.50169 0.81642 0.0
C1083 C 0.39808 0.50425 0.80286 0.0
C1084 C 0.42299 0.49314 0.81452 0.0
C1085 C 0.42711 0.48742 0.79883 0.0
H1086 H 0.41985 0.48607 0.7735 0.0
H1087 H 0.38693 0.5111 0.8043 0.0
C1088 C 0.34324 0.54267 0.74846 0.0
N1089 N 0.35487 0.53895 0.75979 0.0
C1090 C 0.33315 0.55625 0.75064 0.0
C1091 C 0.34714 0.56192 0.77618 0.0
C1092 C 0.35691 0.5482 0.77352 0.0
C1093 C 0.33501 0.56611 0.76467 0.0
H1094 H 0.34165 0.53497 0.73778 0.0
H1095 H 0.36608 0.54488 0.78248 0.0
C1096 C 0.39576 0.47024 0.75001 0.0
N1097 N 0.40406 0.43749 0.74899 0.0
C1098 C 0.40107 0.46317 0.73538 0.0
C1099 C 0.39498 0.46071 0.76419 0.0
C1100 C 0.40512 0.44658 0.73509 0.0
C1101 C 0.39914 0.44417 0.76342 0.0
C1102 C 0.36215 0.51045 0.71899 0.0
C1103 C 0.35708 0.49757 0.70887 0.0
C1104 C 0.36523 0.52583 0.71218 0.0
C1105 C 0.35547 0.50022 0.69203 0.0
C1106 C 0.3635 0.52799 0.69528 0.0
N1107 N 0.35871 0.51524 0.68563 0.0
C1108 C 0.33965 0.46988 0.75671 0.0
C1109 C 0.35728 0.45936 0.73637 0.0
C1110 C 0.32905 0.45657 0.75475 0.0
N1111 N 0.35356 0.47094 0.74771 0.0
C1112 C 0.34699 0.44587 0.73395 0.0
C1113 C 0.33264 0.4443 0.74324 0.0
H1114 H 0.33676 0.47941 0.76541 0.0
H1115 H 0.36809 0.46072 0.72896 0.0
C1116 C 0.41372 0.52232 0.72056 0.0
N1117 N 0.40196 0.51053 0.71989 0.0
C1118 C 0.42407 0.52489 0.70724 0.0
C1119 C 0.41009 0.50311 0.69276 0.0
C1120 C 0.40005 0.50091 0.70639 0.0
C1121 C 0.42234 0.51521 0.69309 0.0
H1122 H 0.41513 0.52968 0.73148 0.0
H1123 H 0.39081 0.49144 0.70623 0.0
O1124 O 0.36435 0.50178 0.77189 0.0
O1125 O 0.39256 0.52278 0.75713 0.0
O1126 O 0.39172 0.48647 0.75049 0.0
O1127 O 0.36399 0.50804 0.73548 0.0
H1128 H 0.35263 0.52096 0.79518 0.0
H1129 H 0.36511 0.47132 0.78305 0.0
H1130 H 0.3447 0.51168 0.82295 0.0
H1131 H 0.35717 0.46291 0.81107 0.0
H1132 H 0.39247 0.57692 0.74437 0.0
H1133 H 0.402 0.53427 0.78604 0.0
H1134 H 0.38863 0.54774 0.73684 0.0
H1135 H 0.40571 0.56367 0.79272 0.0
H1136 H 0.40452 0.50627 0.82828 0.0
H1137 H 0.43849 0.48105 0.79671 0.0
H1138 H 0.32379 0.5588 0.74158 0.0
H1139 H 0.34915 0.56922 0.7871 0.0
H1140 H 0.40196 0.47038 0.72433 0.0
H1141 H 0.3914 0.46606 0.77573 0.0
H1142 H 0.40912 0.44093 0.72381 0.0
H1143 H 0.39854 0.43666 0.7743 0.0
H1144 H 0.3545 0.48563 0.71393 0.0
H1145 H 0.36894 0.53598 0.71985 0.0
H1146 H 0.35165 0.49032 0.68404 0.0
H1147 H 0.36595 0.5398 0.68984 0.0
H1148 H 0.31822 0.45586 0.76229 0.0
H1149 H 0.35009 0.43695 0.72466 0.0
H1150 H 0.43325 0.53446 0.70799 0.0
H1151 H 0.40847 0.4952 0.68221 0.0
Li1152 Li 0.76888 0.39009 0.5036 0.0
Li1153 Li 0.75667 0.37012 0.52108 0.0
Li1154 Li 0.75179 0.36904 0.49175 0.0
Li1155 Li 0.73832 0.39052 0.5093 0.0
C1156 C 0.78919 0.36608 0.50102 0.0
N1157 N 0.82257 0.36701 0.49599 0.0
C1158 C 0.79998 0.36384 0.51416 0.0
C1159 C 0.79539 0.36874 0.48531 0.0
C1160 C 0.81681 0.36435 0.51136 0.0
C1161 C 0.8123 0.3692 0.48303 0.0
C1162 C 0.75877 0.39687 0.54083 0.0
C1163 C 0.74792 0.40637 0.56655 0.0
N1164 N 0.76212 0.40209 0.57414 0.0
C1165 C 0.77328 0.39264 0.54887 0.0
C1166 C 0.74599 0.40384 0.54971 0.0
C1167 C 0.77472 0.39534 0.56572 0.0
C1168 C 0.78727 0.41392 0.48627 0.0
N1169 N 0.78721 0.40437 0.4999 0.0
C1170 C 0.81318 0.41518 0.50822 0.0
C1171 C 0.79974 0.40496 0.51089 0.0
C1172 C 0.81366 0.42516 0.49421 0.0
C1173 C 0.8004 0.42444 0.48318 0.0
H1174 H 0.77704 0.41349 0.47786 0.0
H1175 H 0.79941 0.39741 0.5217 0.0
C1176 C 0.76886 0.34267 0.53811 0.0
N1177 N 0.75948 0.35623 0.53998 0.0
C1178 C 0.77119 0.33187 0.55116 0.0
C1179 C 0.75376 0.34888 0.56775 0.0
C1180 C 0.7517 0.3593 0.55436 0.0
C1181 C 0.76368 0.33497 0.56628 0.0
H1182 H 0.77445 0.34015 0.52641 0.0
H1183 H 0.74367 0.3697 0.55539 0.0
C1184 C 0.74497 0.39421 0.47221 0.0
N1185 N 0.73393 0.39545 0.44018 0.0
C1186 C 0.72861 0.39785 0.46883 0.0
C1187 C 0.75574 0.39133 0.45929 0.0
C1188 C 0.72327 0.3984 0.45255 0.0
C1189 C 0.74991 0.39196 0.44318 0.0
C1190 C 0.72992 0.35262 0.51693 0.0
C1191 C 0.7351 0.33733 0.51134 0.0
C1192 C 0.71985 0.3536 0.53068 0.0
C1193 C 0.73011 0.32324 0.51963 0.0
C1194 C 0.71513 0.33922 0.53863 0.0
N1195 N 0.72032 0.32447 0.53299 0.0
C1196 C 0.76035 0.34468 0.46857 0.0
C1197 C 0.73358 0.35521 0.46533 0.0
C1198 C 0.75807 0.33424 0.45518 0.0
N1199 N 0.74825 0.35502 0.47325 0.0
C1200 C 0.73084 0.34512 0.45175 0.0
C1201 C 0.74319 0.33444 0.44652 0.0
H1202 H 0.77174 0.34442 0.47532 0.0
H1203 H 0.72399 0.36319 0.46959 0.0
C1204 C 0.72182 0.42059 0.50997 0.0
N1205 N 0.71982 0.40423 0.51219 0.0
C1206 C 0.70864 0.43121 0.51201 0.0
C1207 C 0.69162 0.40795 0.51871 0.0
C1208 C 0.70509 0.39777 0.51634 0.0
C1209 C 0.69325 0.42497 0.51655 0.0
H1210 H 0.73367 0.42535 0.50654 0.0
H1211 H 0.70378 0.3847 0.51782 0.0
O1212 O 0.77265 0.36585 0.50353 0.0
O1213 O 0.75708 0.39437 0.52434 0.0
O1214 O 0.75039 0.39341 0.48808 0.0
O1215 O 0.73511 0.36657 0.50926 0.0
H1216 H 0.79546 0.36202 0.52645 0.0
H1217 H 0.78724 0.37058 0.47502 0.0
H1218 H 0.8253 0.36273 0.52143 0.0
H1219 H 0.81725 0.37134 0.47095 0.0
H1220 H 0.73812 0.41172 0.57359 0.0
H1221 H 0.78317 0.38697 0.54225 0.0
H1222 H 0.73469 0.40722 0.54368 0.0
H1223 H 0.78582 0.39199 0.57212 0.0
H1224 H 0.82317 0.4151 0.51698 0.0
H1225 H 0.80003 0.43211 0.47238 0.0
H1226 H 0.77893 0.32129 0.54946 0.0
H1227 H 0.74741 0.35153 0.57906 0.0
H1228 H 0.72009 0.40007 0.47866 0.0
H1229 H 0.76843 0.38852 0.46166 0.0
H1230 H 0.71063 0.40113 0.44977 0.0
H1231 H 0.75809 0.38966 0.43307 0.0
H1232 H 0.74306 0.33635 0.50085 0.0
H1233 H 0.71602 0.36533 0.5354 0.0
H1234 H 0.73408 0.31133 0.51548 0.0
H1235 H 0.70744 0.3398 0.54935 0.0
H1236 H 0.76792 0.32622 0.45154 0.0
H1237 H 0.71909 0.34544 0.44558 0.0
H1238 H 0.71049 0.44415 0.50986 0.0
H1239 H 0.68013 0.40253 0.5224 0.0
Li1240 Li 0.63915 0.98908 0.75772 0.0
Li1241 Li 0.61932 0.0059 0.77083 0.0
Li1242 Li 0.61795 1.0005 0.74007 0.0
Li1243 Li 0.63965 0.01835 0.75346 0.0
C1244 C 0.61352 0.96868 0.76137 0.0
N1245 N 0.61054 0.9354 0.76669 0.0
C1246 C 0.61885 0.96185 0.77614 0.0
C1247 C 0.60663 0.95858 0.74931 0.0
C1248 C 0.61727 0.945 0.77858 0.0
C1249 C 0.60522 0.94179 0.75224 0.0
C1250 C 0.64423 0.00911 0.7906 0.0
C1251 C 0.6421 0.02733 0.81378 0.0
N1252 N 0.64499 0.01456 0.82404 0.0
C1253 C 0.64723 0.99617 0.80139 0.0
C1254 C 0.64171 0.02483 0.79685 0.0
C1255 C 0.64756 0.99918 0.81825 0.0
C1256 C 0.66703 0.97214 0.76917 0.0
N1257 N 0.65343 0.97046 0.75966 0.0
C1258 C 0.66082 0.94295 0.75296 0.0
C1259 C 0.65039 0.95635 0.75128 0.0
C1260 C 0.6747 0.94419 0.76309 0.0
C1261 C 0.67785 0.9591 0.77112 0.0
H1262 H 0.66953 0.98366 0.77522 0.0
H1263 H 0.63995 0.95549 0.74318 0.0
C1264 C 0.59508 0.02235 0.789 0.0
N1265 N 0.60548 0.00942 0.78946 0.0
C1266 C 0.58461 0.02545 0.80211 0.0
C1267 C 0.59569 1.00185 0.81598 0.0
C1268 C 0.60583 0.99913 0.80255 0.0
C1269 C 0.58486 0.01513 0.81586 0.0
H1270 H 0.59482 0.03024 0.77841 0.0
H1271 H 0.61395 0.98878 0.80261 0.0
C1272 C 0.65409 0.99278 0.72933 0.0
N1273 N 0.67936 0.97508 0.71584 0.0
C1274 C 0.67027 0.99638 0.73364 0.0
C1275 C 0.65074 0.9803 0.71808 0.0
C1276 C 0.68288 0.98725 0.72671 0.0
C1277 C 0.6637 0.97147 0.7114 0.0
C1278 C 0.61389 0.03752 0.74776 0.0
C1279 C 0.60941 0.04126 0.73164 0.0
C1280 C 0.61702 0.05019 0.75888 0.0
C1281 C 0.60838 0.05764 0.72686 0.0
C1282 C 0.61589 0.06641 0.75362 0.0
N1283 N 0.61164 0.06977 0.73785 0.0
C1284 C 0.58851 0.99217 0.72402 0.0
C1285 C 0.60976 1.00073 0.7063 0.0
C1286 C 0.578 0.98966 0.7107 0.0
N1287 N 0.60407 0.99747 0.72158 0.0
C1288 C 0.59959 0.99862 0.69264 0.0
C1289 C 0.58351 0.99292 0.69476 0.0
H1290 H 0.5843 0.98982 0.73634 0.0
H1291 H 0.62218 0.00502 0.70476 0.0
C1292 C 0.66458 0.04122 0.76141 0.0
N1293 N 0.65347 0.03687 0.74973 0.0
C1294 C 0.67501 0.05455 0.75892 0.0
C1295 C 0.66254 0.05857 0.73232 0.0
C1296 C 0.65245 0.04506 0.73527 0.0
C1297 C 0.67403 0.06346 0.74424 0.0
H1298 H 0.66546 0.03426 0.77261 0.0
H1299 H 0.64386 0.04104 0.72598 0.0
O1300 O 0.61499 0.98515 0.75871 0.0
O1301 O 0.64366 0.0064 0.77405 0.0
O1302 O 0.64158 1.00126 0.73634 0.0
O1303 O 0.61518 0.02155 0.75261 0.0
H1304 H 0.62451 0.96939 0.78545 0.0
H1305 H 0.60256 0.96359 0.73775 0.0
H1306 H 0.62148 0.93954 0.78991 0.0
H1307 H 0.59996 0.93383 0.74299 0.0
H1308 H 0.64009 0.03943 0.81876 0.0
H1309 H 0.64905 0.98388 0.79685 0.0
H1310 H 0.63941 0.03499 0.78871 0.0
H1311 H 0.64978 0.98926 0.82673 0.0
H1312 H 0.65815 0.93182 0.74623 0.0
H1313 H 0.68843 0.96061 0.77902 0.0
H1314 H 0.57651 0.03588 0.80155 0.0
H1315 H 0.59611 0.99345 0.82623 0.0
H1316 H 0.67302 0.00598 0.7424 0.0
H1317 H 0.63826 0.97732 0.71471 0.0
H1318 H 0.69546 0.9898 0.73001 0.0
H1319 H 0.6613 0.96169 0.70276 0.0
H1320 H 0.60685 0.03165 0.72289 0.0
H1321 H 0.62036 0.04754 0.77142 0.0
H1322 H 0.60501 0.06071 0.71441 0.0
H1323 H 0.61839 0.07633 0.76208 0.0
H1324 H 0.56563 0.98542 0.71285 0.0
H1325 H 0.6043 1.00118 0.68053 0.0
H1326 H 0.68367 0.05792 0.76844 0.0
H1327 H 0.66159 0.06491 0.72072 0.0
Li1328 Li 0.01833 0.25791 0.87018 0.0
Li1329 Li 1.0014 0.27068 0.89016 0.0
Li1330 Li 0.00694 0.24003 0.89117 0.0
Li1331 Li 0.98908 0.25333 0.86955 0.0
C1332 C 0.03867 0.26112 0.89612 0.0
N1333 N 0.07199 0.26581 0.89966 0.0
C1334 C 0.0459 0.27581 0.89114 0.0
C1335 C 0.04839 0.24883 0.90294 0.0
C1336 C 0.06277 0.27793 0.893 0.0
C1337 C 0.06521 0.25143 0.90463 0.0
C1338 C 0.99833 0.29058 0.86564 0.0
C1339 C 0.98029 0.3137 0.86835 0.0
N1340 N 0.99314 0.32399 0.86578 0.0
C1341 C 0.01135 0.30138 0.86299 0.0
C1342 C 0.98266 0.29679 0.86828 0.0
C1343 C 0.00847 0.31823 0.86311 0.0
C1344 C 0.0351 0.26971 0.8424 0.0
N1345 N 0.03693 0.26018 0.85592 0.0
C1346 C 0.06446 0.25399 0.84836 0.0
C1347 C 0.05113 0.25205 0.85882 0.0
C1348 C 0.06309 0.26418 0.83456 0.0
C1349 C 0.04807 0.27195 0.83156 0.0
H1350 H 0.02349 0.2755 0.83995 0.0
H1351 H 0.05215 0.24399 0.86924 0.0
C1352 C 0.98448 0.2891 0.91404 0.0
N1353 N 0.99782 0.28924 0.90416 0.0
C1354 C 0.98131 0.30231 0.92443 0.0
C1355 C 0.00567 0.31561 0.91436 0.0
C1356 C 0.00845 0.30208 0.9043 0.0
C1357 C 0.99195 0.31584 0.92462 0.0
H1358 H 0.9763 0.27869 0.91392 0.0
H1359 H 0.01909 0.3019 0.89657 0.0
C1360 C 0.01468 0.22976 0.85466 0.0
N1361 N 0.03227 0.217 0.82888 0.0
C1362 C 0.01078 0.23414 0.83857 0.0
C1363 C 0.02742 0.21882 0.85766 0.0
C1364 C 0.01986 0.22757 0.82569 0.0
C1365 C 0.03619 0.21251 0.84445 0.0
C1366 C 0.96996 0.2471 0.89516 0.0
C1367 C 0.96647 0.23091 0.89945 0.0
C1368 C 0.95714 0.25792 0.89197 0.0
C1369 C 0.95019 0.22576 0.90028 0.0
C1370 C 0.94102 0.25229 0.8929 0.0
N1371 N 0.93791 0.23645 0.89699 0.0
C1372 C 0.01412 0.22404 0.92087 0.0
C1373 C 0.0079 0.20621 0.89875 0.0
C1374 C 0.01651 0.21075 0.93134 0.0
N1375 N 0.01 0.22154 0.90491 0.0
C1376 C 0.01005 0.19256 0.90882 0.0
C1377 C 0.01447 0.1947 0.92538 0.0
H1378 H 0.01567 0.2364 0.92541 0.0
H1379 H 0.00443 0.20461 0.88604 0.0
C1380 C 0.96587 0.26139 0.84497 0.0
N1381 N 0.97054 0.24954 0.85566 0.0
C1382 C 0.95238 0.25896 0.83469 0.0
C1383 C 0.9489 0.23202 0.84634 0.0
C1384 C 0.96255 0.23494 0.85633 0.0
C1385 C 0.94359 0.24415 0.83534 0.0
H1386 H 0.97273 0.27269 0.84429 0.0
H1387 H 0.96674 0.22556 0.86466 0.0
O1388 O 0.02218 0.25879 0.89442 0.0
O1389 O 1.00092 0.27403 0.8658 0.0
O1390 O 0.00626 0.23642 0.86742 0.0
O1391 O 0.98584 0.25232 0.89406 0.0
H1392 H 0.03865 0.28531 0.88553 0.0
H1393 H 0.04305 0.23734 0.90677 0.0
H1394 H 0.06853 0.28919 0.88907 0.0
H1395 H 0.07288 0.24201 0.90985 0.0
H1396 H 0.96824 0.31866 0.87046 0.0
H1397 H 0.0236 0.29687 0.86112 0.0
H1398 H 0.97246 0.28864 0.87037 0.0
H1399 H 0.01845 0.32672 0.86117 0.0
H1400 H 0.07576 0.24774 0.8512 0.0
H1401 H 0.04626 0.27954 0.82085 0.0
H1402 H 0.97054 0.30201 0.93209 0.0
H1403 H 0.01433 0.32568 0.9143 0.0
H1404 H 1.00099 0.24266 0.83608 0.0
H1405 H 0.03065 0.21542 0.87008 0.0
H1406 H 0.01706 0.23093 0.81318 0.0
H1407 H 0.04617 0.20411 0.84659 0.0
H1408 H 0.97621 0.22238 0.90202 0.0
H1409 H 0.95959 0.2705 0.88872 0.0
H1410 H 0.94732 0.21324 0.90351 0.0
H1411 H 0.93099 0.2605 0.89036 0.0
H1412 H 0.02014 0.21305 0.94391 0.0
H1413 H 0.00805 0.18047 0.90372 0.0
H1414 H 0.94903 0.26851 0.82613 0.0
H1415 H 0.9425 0.22045 0.84738 0.0
Li1416 Li 0.51905 0.75707 0.36931 0.0
Li1417 Li 0.50212 0.76989 0.38995 0.0
Li1418 Li 0.50617 0.73973 0.39047 0.0
Li1419 Li 0.48906 0.75285 0.36959 0.0
C1420 C 0.53547 0.76754 0.39824 0.0
N1421 N 0.56089 0.78783 0.40783 0.0
C1422 C 0.5393 0.78143 0.38907 0.0
C1423 C 0.54466 0.76389 0.41224 0.0
C1424 C 0.55216 0.79157 0.39413 0.0
C1425 C 0.55745 0.77432 0.41691 0.0
C1426 C 0.498 0.78944 0.36326 0.0
C1427 C 0.47953 0.81228 0.36541 0.0
N1428 N 0.49104 0.82219 0.35864 0.0
C1429 C 0.5096 0.79984 0.35618 0.0
C1430 C 0.48279 0.79569 0.36779 0.0
C1431 C 0.50586 0.81636 0.354 0.0
C1432 C 0.53501 0.7649 0.33989 0.0
N1433 N 0.53758 0.75925 0.35533 0.0
C1434 C 0.5663 0.75726 0.35046 0.0
C1435 C 0.55282 0.7553 0.36071 0.0
C1436 C 0.56409 0.76334 0.33449 0.0
C1437 C 0.54814 0.76712 0.32924 0.0
H1438 H 0.52274 0.76786 0.33591 0.0
H1439 H 0.55453 0.75068 0.37301 0.0
C1440 C 0.48986 0.78627 0.41752 0.0
N1441 N 0.49931 0.78853 0.40406 0.0
C1442 C 0.48693 0.79921 0.42831 0.0
C1443 C 0.50367 0.81661 0.4113 0.0
C1444 C 0.50634 0.8033 0.4009 0.0
C1445 C 0.49381 0.81467 0.42521 0.0
H1446 H 0.48451 0.77438 0.41988 0.0
H1447 H 0.51398 0.80487 0.39028 0.0
C1448 C 0.51689 0.72386 0.36203 0.0
N1449 N 0.5381 0.6992 0.35317 0.0
C1450 C 0.51338 0.71399 0.34846 0.0
C1451 C 0.53117 0.7212 0.37111 0.0
C1452 C 0.52426 0.70158 0.34417 0.0
C1453 C 0.54174 0.70867 0.36642 0.0
C1454 C 0.46971 0.7487 0.3958 0.0
C1455 C 0.46472 0.73247 0.39796 0.0
C1456 C 0.45807 0.76117 0.39579 0.0
C1457 C 0.44809 0.72895 0.3997 0.0
C1458 C 0.44156 0.75716 0.39758 0.0
N1459 N 0.43695 0.74126 0.39945 0.0
C1460 C 0.5156 0.72319 0.4192 0.0
C1461 C 0.50401 0.70593 0.39883 0.0
C1462 C 0.51816 0.70983 0.42953 0.0
N1463 N 0.50877 0.721 0.40414 0.0
C1464 C 0.50619 0.69223 0.40884 0.0
C1465 C 0.51345 0.69408 0.42438 0.0
H1466 H 0.51903 0.73535 0.42319 0.0
H1467 H 0.49854 0.70454 0.38681 0.0
C1468 C 0.46521 0.76145 0.3456 0.0
N1469 N 0.47022 0.74945 0.35597 0.0
C1470 C 0.4516 0.75904 0.33547 0.0
C1471 C 0.44865 0.73184 0.34664 0.0
C1472 C 0.46241 0.73475 0.35647 0.0
C1473 C 0.44304 0.74409 0.33593 0.0
H1474 H 0.47192 0.77283 0.34498 0.0
H1475 H 0.46691 0.72522 0.36446 0.0
O1476 O 0.52302 0.75734 0.39341 0.0
O1477 O 0.50148 0.77324 0.36563 0.0
O1478 O 0.50635 0.73607 0.36632 0.0
O1479 O 0.48593 0.75236 0.39391 0.0
H1480 H 0.53245 0.78432 0.37812 0.0
H1481 H 0.54202 0.75309 0.41941 0.0
H1482 H 0.55521 0.80238 0.38713 0.0
H1483 H 0.56466 0.77165 0.42772 0.0
H1484 H 0.46784 0.81727 0.36895 0.0
H1485 H 0.5214 0.79524 0.35248 0.0
H1486 H 0.47363 0.7878 0.37309 0.0
H1487 H 0.51476 0.82455 0.34862 0.0
H1488 H 0.5783 0.75392 0.35496 0.0
H1489 H 0.54584 0.77201 0.31713 0.0
H1490 H 0.47916 0.79719 0.43882 0.0
H1491 H 0.50942 0.82824 0.40857 0.0
H1492 H 0.50236 0.71591 0.34133 0.0
H1493 H 0.53408 0.72869 0.38166 0.0
H1494 H 0.5217 0.69384 0.3337 0.0
H1495 H 0.55284 0.70647 0.37333 0.0
H1496 H 0.47355 0.72268 0.39809 0.0
H1497 H 0.46174 0.77382 0.39453 0.0
H1498 H 0.44404 0.71643 0.40124 0.0
H1499 H 0.43242 0.76668 0.39751 0.0
H1500 H 0.52358 0.71182 0.44151 0.0
H1501 H 0.50247 0.68029 0.40436 0.0
H1502 H 0.44803 0.7687 0.32713 0.0
H1503 H 0.44245 0.72015 0.34751 0.0
Li1504 Li 0.00791 0.77061 0.61948 0.0
Li1505 Li 0.9898 0.75834 0.64008 0.0
Li1506 Li 0.02024 0.75294 0.63996 0.0
Li1507 Li 1.00219 0.74016 0.61929 0.0
C1508 C 0.01086 0.79026 0.64568 0.0
N1509 N 0.01581 0.82356 0.64909 0.0
C1510 C 0.99803 0.80036 0.65059 0.0
C1511 C 0.02627 0.79707 0.64274 0.0
C1512 C 1.00076 0.81717 0.65219 0.0
C1513 C 0.02851 0.81394 0.64446 0.0
C1514 C 0.97074 0.75928 0.61141 0.0
C1515 C 0.94466 0.74586 0.60762 0.0
N1516 N 0.93812 0.76025 0.60246 0.0
C1517 C 0.96381 0.77387 0.60584 0.0
C1518 C 0.96114 0.74511 0.61212 0.0
C1519 C 0.94728 0.77413 0.60146 0.0
C1520 C 0.02317 0.78869 0.59429 0.0
N1521 N 0.01126 0.78931 0.60581 0.0
C1522 C 0.00409 0.81642 0.5975 0.0
C1523 C 1.0017 0.80278 0.60751 0.0
C1524 C 0.01636 0.81618 0.58551 0.0
C1525 C 0.02596 0.80203 0.58398 0.0
H1526 H 0.03043 0.77775 0.59298 0.0
H1527 H 0.99218 0.80293 0.61663 0.0
C1528 C 0.96997 0.7528 0.66776 0.0
N1529 N 0.97116 0.76169 0.65374 0.0
C1530 C 0.95663 0.75484 0.67816 0.0
C1531 C 0.94617 0.77549 0.65978 0.0
C1532 C 0.95968 0.77299 0.6497 0.0
C1533 C 0.94446 0.76631 0.67424 0.0
H1534 H 0.97942 0.74413 0.6709 0.0
H1535 H 0.96116 0.78032 0.63882 0.0
C1536 C 0.03926 0.74818 0.61362 0.0
N1537 N 0.07182 0.74017 0.60987 0.0
C1538 C 0.04365 0.73239 0.60879 0.0
C1539 C 0.05142 0.75997 0.6163 0.0
C1540 C 0.06018 0.72857 0.60702 0.0
C1541 C 0.06781 0.75566 0.61442 0.0
C1542 C 0.99672 0.72215 0.64814 0.0
C1543 C 0.00792 0.71091 0.65446 0.0
C1544 C 0.98023 0.71777 0.64681 0.0
C1545 C 1.0025 0.69533 0.659 0.0
C1546 C 0.97528 0.70209 0.65149 0.0
N1547 N 0.98643 0.69128 0.65741 0.0
C1548 C 0.04276 0.76091 0.66519 0.0
C1549 C 0.04814 0.73576 0.65183 0.0
C1550 C 0.0563 0.75879 0.67547 0.0
N1551 N 0.039 0.74951 0.65361 0.0
C1552 C 0.06182 0.73317 0.6618 0.0
C1553 C 0.06606 0.74476 0.67386 0.0
H1554 H 0.03515 0.77159 0.66657 0.0
H1555 H 0.04479 0.72676 0.6427 0.0
C1556 C 0.9907 0.72378 0.59106 0.0
N1557 N 0.99862 0.72148 0.60556 0.0
C1558 C 0.9878 0.7106 0.5805 0.0
C1559 C 1.00159 0.69294 0.5998 0.0
C1560 C 0.0042 0.70646 0.60998 0.0
C1561 C 0.99325 0.69489 0.58483 0.0
H1562 H 0.9867 0.73591 0.58764 0.0
H1563 H 0.01089 0.70499 0.62131 0.0
O1564 O 0.00837 0.77379 0.64386 0.0
O1565 O 0.98692 0.75882 0.61579 0.0
O1566 O 0.02314 0.75211 0.61557 0.0
O1567 O 1.00185 0.73744 0.64358 0.0
H1568 H 0.98608 0.79529 0.65306 0.0
H1569 H 0.03638 0.78942 0.63914 0.0
H1570 H 0.99092 0.82514 0.65588 0.0
H1571 H 0.04034 0.81938 0.64212 0.0
H1572 H 0.93709 0.73499 0.60816 0.0
H1573 H 0.97108 0.7849 0.60501 0.0
H1574 H 0.96638 0.73361 0.61591 0.0
H1575 H 0.94174 0.78537 0.59726 0.0
H1576 H 0.99649 0.8271 0.59925 0.0
H1577 H 0.03536 0.80115 0.57473 0.0
H1578 H 0.95581 0.74739 0.68909 0.0
H1579 H 0.93732 0.78474 0.65644 0.0
H1580 H 0.03442 0.72316 0.60653 0.0
H1581 H 0.04824 0.77229 0.61982 0.0
H1582 H 0.06375 0.71636 0.60339 0.0
H1583 H 0.07734 0.76463 0.61656 0.0
H1584 H 0.02069 0.71412 0.65578 0.0
H1585 H 0.9713 0.72645 0.64243 0.0
H1586 H 0.01107 0.68648 0.6638 0.0
H1587 H 0.96255 0.69855 0.65048 0.0
H1588 H 0.05889 0.76791 0.68477 0.0
H1589 H 0.06904 0.72226 0.65998 0.0
H1590 H 0.9816 0.71275 0.56895 0.0
H1591 H 0.00596 0.68106 0.60368 0.0
Li1592 Li 0.50788 0.27037 0.1197 0.0
Li1593 Li 0.48978 0.25804 0.14027 0.0
Li1594 Li 0.52023 0.25269 0.14014 0.0
Li1595 Li 0.50221 0.23993 0.11944 0.0
C1596 C 0.51081 0.28998 0.14586 0.0
N1597 N 0.51572 0.32331 0.14917 0.0
C1598 C 0.49796 0.30008 0.15072 0.0
C1599 C 0.52621 0.2968 0.14292 0.0
C1600 C 0.50067 0.31691 0.15227 0.0
C1601 C 0.52843 0.31368 0.14459 0.0
C1602 C 0.47073 0.25885 0.11158 0.0
C1603 C 0.4448 0.24516 0.10777 0.0
N1604 N 0.43811 0.25946 0.10255 0.0
C1605 C 0.46366 0.27335 0.10595 0.0
C1606 C 0.46128 0.24459 0.1123 0.0
C1607 C 0.44713 0.27343 0.10154 0.0
C1608 C 0.52317 0.28863 0.09465 0.0
N1609 N 0.51116 0.28911 0.10608 0.0
C1610 C 0.50372 0.31613 0.09772 0.0
C1611 C 0.50143 0.30246 0.10771 0.0
C1612 C 0.51608 0.31604 0.08581 0.0
C1613 C 0.52588 0.30201 0.08437 0.0
H1614 H 0.53057 0.27778 0.0934 0.0
H1615 H 0.49184 0.30249 0.11677 0.0
C1616 C 0.46999 0.25253 0.16797 0.0
N1617 N 0.47115 0.26137 0.15392 0.0
C1618 C 0.45665 0.25459 0.17839 0.0
C1619 C 0.44613 0.27515 0.15994 0.0
C1620 C 0.45964 0.27263 0.14985 0.0
C1621 C 0.44446 0.26603 0.17443 0.0
H1622 H 0.47946 0.24389 0.17113 0.0
H1623 H 0.4611 0.27993 0.13894 0.0
C1624 C 0.53925 0.24793 0.11381 0.0
N1625 N 0.57178 0.23982 0.11009 0.0
C1626 C 0.54359 0.23214 0.10896 0.0
C1627 C 0.55145 0.25967 0.11654 0.0
C1628 C 0.56011 0.22826 0.10719 0.0
C1629 C 0.56783 0.2553 0.11467 0.0
C1630 C 0.49674 0.22185 0.14828 0.0
C1631 C 0.50798 0.21059 0.15452 0.0
C1632 C 0.48024 0.21749 0.14705 0.0
C1633 C 0.50258 0.19501 0.15906 0.0
C1634 C 0.47531 0.2018 0.15173 0.0
N1635 N 0.4865 0.19097 0.15756 0.0
C1636 C 0.54267 0.26064 0.16543 0.0
C1637 C 0.54816 0.23554 0.15204 0.0
C1638 C 0.55618 0.25853 0.17576 0.0
N1639 N 0.53898 0.24926 0.15381 0.0
C1640 C 0.56181 0.23297 0.16205 0.0
C1641 C 0.56599 0.24454 0.17415 0.0
H1642 H 0.53502 0.2713 0.16681 0.0
H1643 H 0.54487 0.22655 0.14287 0.0
C1644 C 0.49092 0.22375 0.09103 0.0
N1645 N 0.49865 0.22131 0.10561 0.0
C1646 C 0.48805 0.21064 0.08038 0.0
C1647 C 0.50145 0.19277 0.09975 0.0
C1648 C 0.50406 0.20622 0.11002 0.0
C1649 C 0.49331 0.19487 0.08469 0.0
H1650 H 0.48697 0.23591 0.08768 0.0
H1651 H 0.51069 0.20465 0.12137 0.0
O1652 O 0.50833 0.2735 0.14409 0.0
O1653 O 0.4869 0.25858 0.11599 0.0
O1654 O 0.52314 0.25191 0.11575 0.0
O1655 O 0.50185 0.23715 0.14372 0.0
H1656 H 0.48601 0.29501 0.15319 0.0
H1657 H 0.53633 0.28915 0.13936 0.0
H1658 H 0.49081 0.32488 0.15593 0.0
H1659 H 0.54026 0.31913 0.14225 0.0
H1660 H 0.43734 0.23421 0.10832 0.0
H1661 H 0.47081 0.28446 0.10511 0.0
H1662 H 0.46663 0.23315 0.11612 0.0
H1663 H 0.44148 0.28461 0.0973 0.0
H1664 H 0.49598 0.32671 0.09941 0.0
H1665 H 0.53535 0.30124 0.07519 0.0
H1666 H 0.45586 0.24719 0.18935 0.0
H1667 H 0.43727 0.28437 0.15656 0.0
H1668 H 0.53433 0.22294 0.10666 0.0
H1669 H 0.54831 0.27199 0.1201 0.0
H1670 H 0.56364 0.21605 0.10354 0.0
H1671 H 0.57739 0.26424 0.11684 0.0
H1672 H 0.52076 0.2138 0.15575 0.0
H1673 H 0.47129 0.22617 0.14275 0.0
H1674 H 0.51117 0.18615 0.16378 0.0
H1675 H 0.46258 0.19826 0.1508 0.0
H1676 H 0.55872 0.26764 0.18509 0.0
H1677 H 0.56908 0.22207 0.16022 0.0
H1678 H 0.48164 0.21283 0.06895 0.0
H1679 H 0.50604 0.18091 0.10342 0.0
H1680 H 0.24061 0.78986 0.84891 0.0
H1681 H 0.21706 0.75459 0.88044 0.0
H1682 H 0.24423 0.80829 0.87215 0.0
H1683 H 0.22137 0.77269 0.90382 0.0
H1684 H 0.21649 0.81587 0.93885 0.0
H1685 H 0.21205 0.7982 0.91515 0.0
H1686 H 0.25995 0.81097 0.897 0.0
H1687 H 0.26407 0.82922 0.92029 0.0
C1688 C 0.23618 0.78603 0.86079 0.0
C1689 C 0.22852 0.77073 0.86277 0.0
C1690 C 0.23844 0.79653 0.87417 0.0
C1691 C 0.23312 0.79198 0.88989 0.0
C1692 C 0.22545 0.77668 0.89187 0.0
C1693 C 0.22317 0.7662 0.87848 0.0
C1694 C 0.22599 0.81508 0.9297 0.0
C1695 C 0.24064 0.82399 0.9315 0.0
C1696 C 0.22353 0.80477 0.91621 0.0
C1697 C 0.23565 0.8031 0.90417 0.0
C1698 C 0.25027 0.81208 0.90593 0.0
C1699 C 0.25272 0.8224 0.91941 0.0
H1700 H 0.03308 0.5113 0.40933 0.0
H1701 H 0.00957 0.55024 0.38237 0.0
H1702 H 0.05152 0.50675 0.38641 0.0
H1703 H 0.02827 0.54587 0.35964 0.0
H1704 H 0.07648 0.54429 0.33051 0.0
H1705 H 0.05799 0.54886 0.3534 0.0
H1706 H 0.0501 0.49677 0.35753 0.0
H1707 H 0.06828 0.49215 0.33444 0.0
C1708 C 0.03175 0.51882 0.39849 0.0
C1709 C 0.01979 0.53113 0.39774 0.0
C1710 C 0.04236 0.51623 0.38538 0.0
C1711 C 0.04136 0.52596 0.37123 0.0
C1712 C 0.02949 0.53832 0.37047 0.0
C1713 C 0.01879 0.54084 0.38353 0.0
C1714 C 0.07068 0.5338 0.33616 0.0
C1715 C 0.07391 0.51784 0.33058 0.0
C1716 C 0.06011 0.53644 0.3493 0.0
C1717 C 0.05261 0.52317 0.35727 0.0
C1718 C 0.05588 0.50722 0.35178 0.0
C1719 C 0.06634 0.50459 0.33856 0.0
H1720 H 0.75847 0.75219 0.86918 0.0
H1721 H 0.80041 0.72374 0.85476 0.0
H1722 H 0.75407 0.73391 0.89234 0.0
H1723 H 0.79598 0.70541 0.87787 0.0
H1724 H 0.79352 0.68693 0.93077 0.0
H1725 H 0.79778 0.70503 0.90746 0.0
H1726 H 0.74565 0.7062 0.89872 0.0
H1727 H 0.7414 0.68814 0.92208 0.0
C1728 C 0.76666 0.74194 0.87086 0.0
C1729 C 0.77981 0.73944 0.86012 0.0
C1730 C 0.76413 0.73145 0.88414 0.0
C1731 C 0.77467 0.71818 0.88699 0.0
C1732 C 0.78778 0.71566 0.8762 0.0
C1733 C 0.79032 0.72616 0.86294 0.0
C1734 C 0.78298 0.69092 0.92378 0.0
C1735 C 0.76712 0.68606 0.92829 0.0
C1736 C 0.78542 0.7013 0.91041 0.0
C1737 C 0.77206 0.70708 0.90119 0.0
C1738 C 0.7562 0.70219 0.90569 0.0
C1739 C 0.75376 0.69183 0.91908 0.0
H1740 H 0.97317 0.95825 0.40305 0.0
H1741 H 1.0014 1.0005 0.38841 0.0
H1742 H 0.95472 0.96244 0.37987 0.0
H1743 H 0.98299 0.00468 0.36523 0.0
H1744 H 0.95717 0.99659 0.31601 0.0
H1745 H 0.97548 0.99208 0.33921 0.0
H1746 H 0.93397 0.98137 0.36994 0.0
H1747 H 0.91568 0.9853 0.34658 0.0
C1748 C 0.97536 0.96852 0.39497 0.0
C1749 C 0.98879 0.97902 0.39759 0.0
C1750 C 0.96478 0.97092 0.38168 0.0
C1751 C 0.96738 0.98389 0.37067 0.0
C1752 C 0.98078 0.99441 0.37331 0.0
C1753 C 0.99135 0.99202 0.38661 0.0
C1754 C 0.95195 0.99311 0.32767 0.0
C1755 C 0.93495 0.99128 0.32941 0.0
C1756 C 0.96244 0.99071 0.34102 0.0
C1757 C 0.9562 0.9864 0.35645 0.0
C1758 C 0.9392 0.98453 0.35819 0.0
C1759 C 0.9287 0.98696 0.34484 0.0
H1760 H 0.24457 0.25482 0.63563 0.0
H1761 H 0.2085 0.22117 0.65445 0.0
H1762 H 0.24888 0.23694 0.61213 0.0
H1763 H 0.21312 0.20296 0.63124 0.0
H1764 H 0.21335 0.18191 0.57948 0.0
H1765 H 0.20873 0.20003 0.60275 0.0
H1766 H 0.26033 0.2117 0.60426 0.0
H1767 H 0.26476 0.19397 0.58067 0.0
C1768 C 0.23769 0.24349 0.63481 0.0
C1769 C 0.2262 0.23939 0.64686 0.0
C1770 C 0.24019 0.23319 0.62136 0.0
C1771 C 0.23138 0.21843 0.61974 0.0
C1772 C 0.21992 0.21433 0.63189 0.0
C1773 C 0.2173 0.22473 0.64524 0.0
C1774 C 0.22369 0.18832 0.58485 0.0
C1775 C 0.23941 0.18656 0.57824 0.0
C1776 C 0.22107 0.19867 0.59824 0.0
C1777 C 0.23415 0.20739 0.60545 0.0
C1778 C 0.2499 0.20547 0.59887 0.0
C1779 C 0.25247 0.19526 0.58537 0.0
H1780 H 0.49802 0.54822 0.62607 0.0
H1781 H 0.4722 0.51069 0.59889 0.0
H1782 H 0.47965 0.54424 0.6491 0.0
H1783 H 0.45428 0.50617 0.62224 0.0
H1784 H 0.41431 0.51505 0.66045 0.0
H1785 H 0.4324 0.51912 0.63713 0.0
H1786 H 0.47348 0.52469 0.67022 0.0
H1787 H 0.45537 0.52074 0.69349 0.0
C1788 C 0.48841 0.53913 0.62498 0.0
C1789 C 0.48658 0.52982 0.61058 0.0
C1790 C 0.47799 0.53669 0.63829 0.0
C1791 C 0.46548 0.52485 0.63756 0.0
C1792 C 0.46366 0.51551 0.62317 0.0
C1793 C 0.47407 0.51797 0.60984 0.0
C1794 C 0.42722 0.51703 0.66273 0.0
C1795 C 0.43338 0.51761 0.67884 0.0
C1796 C 0.43761 0.51934 0.64936 0.0
C1797 C 0.45441 0.52226 0.65177 0.0
C1798 C 0.46056 0.52276 0.6679 0.0
C1799 C 0.45018 0.52049 0.68126 0.0
H1800 H 0.79839 0.28683 0.65484 0.0
H1801 H 0.75914 0.25569 0.63745 0.0
H1802 H 0.79376 0.30532 0.63187 0.0
H1803 H 0.75464 0.27411 0.61441 0.0
H1804 H 0.7638 0.30147 0.56609 0.0
H1805 H 0.76832 0.28307 0.58918 0.0
H1806 H 0.77318 0.32468 0.62157 0.0
H1807 H 0.76911 0.34309 0.59839 0.0
C1808 C 0.78868 0.28399 0.64621 0.0
C1809 C 0.77915 0.26974 0.64802 0.0
C1810 C 0.78604 0.29459 0.63303 0.0
C1811 C 0.77384 0.29119 0.6213 0.0
C1812 C 0.7643 0.27696 0.62309 0.0
C1813 C 0.7669 0.26639 0.6363 0.0
C1814 C 0.76596 0.30669 0.57812 0.0
C1815 C 0.76613 0.32375 0.58039 0.0
C1816 C 0.76838 0.29614 0.59138 0.0
C1817 C 0.77111 0.30241 0.60722 0.0
C1818 C 0.77127 0.31947 0.6095 0.0
C1819 C 0.76876 0.33001 0.59625 0.0
H1820 H 0.53027 0.95438 0.61041 0.0
H1821 H 0.5102 1.00259 0.61785 0.0
H1822 H 0.54886 0.95862 0.63365 0.0
H1823 H 0.52879 0.00683 0.6411 0.0
H1824 H 0.57796 0.01375 0.66919 0.0
H1825 H 0.55966 0.00959 0.6457 0.0
H1826 H 0.546 0.96218 0.66461 0.0
H1827 H 0.56429 0.96633 0.68808 0.0
C1828 C 0.5299 0.9659 0.61698 0.0
C1829 C 0.5188 0.97816 0.61235 0.0
C1830 C 0.54044 0.96828 0.63033 0.0
C1831 C 0.54025 0.98305 0.63917 0.0
C1832 C 0.52926 0.99537 0.63443 0.0
C1833 C 0.51856 0.9929 0.62123 0.0
C1834 C 0.5711 1.00242 0.66827 0.0
C1835 C 0.57253 0.99037 0.68045 0.0
C1836 C 0.56055 1.00009 0.65491 0.0
C1837 C 0.55142 0.98556 0.65335 0.0
C1838 C 0.55297 0.97345 0.66545 0.0
C1839 C 0.56333 0.97587 0.67892 0.0
H1840 H 0.86785 0.25151 0.76045 0.0
H1841 H 0.85711 0.20593 0.78501 0.0
H1842 H 0.89101 0.25598 0.77886 0.0
H1843 H 0.88047 0.21031 0.80321 0.0
H1844 H 0.93437 0.21577 0.81968 0.0
H1845 H 0.91079 0.2113 0.80181 0.0
H1846 H 0.89656 0.26171 0.80825 0.0
H1847 H 0.91995 0.26616 0.82637 0.0
C1848 C 0.87032 0.24251 0.76985 0.0
C1849 C 0.86056 0.22835 0.77122 0.0
C1850 C 0.88363 0.24506 0.78039 0.0
C1851 C 0.88758 0.23349 0.79249 0.0
C1852 C 0.87787 0.21934 0.79386 0.0
C1853 C 0.8645 0.21683 0.78339 0.0
C1854 C 0.92612 0.22587 0.81748 0.0
C1855 C 0.92912 0.24134 0.82449 0.0
C1856 C 0.91261 0.2233 0.8072 0.0
C1857 C 0.90182 0.23616 0.80359 0.0
C1858 C 0.90478 0.25162 0.8106 0.0
C1859 C 0.91822 0.25416 0.82097 0.0
H1860 H 0.45696 0.90244 0.4731 0.0
H1861 H 0.49683 0.88651 0.50403 0.0
H1862 H 0.46152 0.87914 0.45493 0.0
H1863 H 0.50164 0.86345 0.48566 0.0
H1864 H 0.49363 0.81468 0.45875 0.0
H1865 H 0.48841 0.83767 0.4771 0.0
H1866 H 0.48217 0.86945 0.43531 0.0
H1867 H 0.48698 0.84637 0.41696 0.0
C1868 C 0.46666 0.89394 0.47604 0.0
C1869 C 0.47653 0.89633 0.49 0.0
C1870 C 0.46938 0.88068 0.46555 0.0
C1871 C 0.48195 0.86946 0.46884 0.0
C1872 C 0.49176 0.8718 0.48286 0.0
C1873 C 0.48911 0.8851 0.49329 0.0
C1874 C 0.49101 0.82654 0.45348 0.0
C1875 C 0.49072 0.82869 0.43639 0.0
C1876 C 0.48818 0.83975 0.46399 0.0
C1877 C 0.48489 0.85539 0.45766 0.0
C1878 C 0.48452 0.85753 0.44057 0.0
C1879 C 0.48745 0.84434 0.43006 0.0
H1880 H 0.15861 0.26497 0.7876 0.0
H1881 H 0.12784 0.29331 0.75528 0.0
H1882 H 0.13548 0.26068 0.80594 0.0
H1883 H 0.10464 0.2887 0.7734 0.0
H1884 H 0.07254 0.29254 0.81936 0.0
H1885 H 0.09561 0.29676 0.80106 0.0
H1886 H 0.10896 0.24597 0.80632 0.0
H1887 H 0.08572 0.24163 0.82444 0.0
C1888 C 0.14692 0.27031 0.78443 0.0
C1889 C 0.14506 0.27949 0.76999 0.0
C1890 C 0.13363 0.26772 0.79485 0.0
C1891 C 0.11822 0.27434 0.79111 0.0
C1892 C 0.11638 0.28355 0.77669 0.0
C1893 C 0.12963 0.28606 0.76623 0.0
C1894 C 0.08026 0.2822 0.81647 0.0
C1895 C 0.07722 0.26673 0.82338 0.0
C1896 C 0.09351 0.28465 0.806 0.0
C1897 C 0.10412 0.2717 0.80224 0.0
C1898 C 0.10114 0.25624 0.80916 0.0
C1899 C 0.08782 0.25377 0.81957 0.0
H1900 H 0.55223 0.60941 0.47617 0.0
H1901 H 0.50479 0.61739 0.49765 0.0
H1902 H 0.54778 0.63251 0.4577 0.0
H1903 H 0.50041 0.64059 0.47928 0.0
H1904 H 0.49204 0.66922 0.43114 0.0
H1905 H 0.49642 0.64568 0.4491 0.0
H1906 H 0.54519 0.66307 0.46005 0.0
H1907 H 0.54088 0.6865 0.44199 0.0
C1908 C 0.54083 0.61606 0.47689 0.0
C1909 C 0.52886 0.6116 0.48836 0.0
C1910 C 0.53834 0.62936 0.46642 0.0
C1911 C 0.52375 0.63836 0.46705 0.0
C1912 C 0.51172 0.63381 0.47842 0.0
C1913 C 0.51429 0.62062 0.48902 0.0
C1914 C 0.50373 0.66794 0.43731 0.0
C1915 C 0.51611 0.67971 0.43517 0.0
C1916 C 0.50618 0.65455 0.44768 0.0
C1917 C 0.52114 0.65254 0.45599 0.0
C1918 C 0.53358 0.66423 0.45372 0.0
C1919 C 0.53106 0.67771 0.4435 0.0
H1920 H 0.87917 0.79511 0.75319 0.0
H1921 H 0.84852 0.76673 0.7205 0.0
H1922 H 0.90237 0.79099 0.73505 0.0
H1923 H 0.87176 0.76241 0.70242 0.0
H1924 H 0.91252 0.77196 0.66562 0.0
H1925 H 0.88935 0.77657 0.68364 0.0
H1926 H 0.9208 0.7702 0.72584 0.0
H1927 H 0.94411 0.76643 0.70785 0.0
C1928 C 0.87743 0.78785 0.7422 0.0
C1929 C 0.862 0.78124 0.73829 0.0
C1930 C 0.89074 0.78546 0.7318 0.0
C1931 C 0.88897 0.77634 0.71726 0.0
C1932 C 0.87352 0.76972 0.71337 0.0
C1933 C 0.8602 0.77217 0.72374 0.0
C1934 C 0.91454 0.77173 0.67875 0.0
C1935 C 0.93022 0.76884 0.68525 0.0
C1936 C 0.90119 0.77417 0.68909 0.0
C1937 C 0.90317 0.77373 0.70622 0.0
C1938 C 0.91884 0.77081 0.71272 0.0
C1939 C 0.9322 0.76842 0.70238 0.0
H1940 H 0.01294 0.91017 0.5351 0.0
H1941 H 0.04952 0.88249 0.50911 0.0
H1942 H 0.00866 0.88713 0.55356 0.0
H1943 H 0.04532 0.85953 0.52767 0.0
H1944 H 0.04548 0.82887 0.57479 0.0
H1945 H 0.04978 0.85203 0.55649 0.0
H1946 H 0.99758 0.85914 0.55314 0.0
H1947 H 0.99324 0.8359 0.57131 0.0
C1948 C 0.01998 0.89914 0.53323 0.0
C1949 C 0.03157 0.89821 0.52059 0.0
C1950 C 0.01753 0.88593 0.54383 0.0
C1951 C 0.02665 0.87149 0.5421 0.0
C1952 C 0.03827 0.87057 0.5295 0.0
C1953 C 0.04068 0.88375 0.51886 0.0
C1954 C 0.0349 0.83527 0.57004 0.0
C1955 C 0.01901 0.83048 0.57453 0.0
C1956 C 0.03738 0.84856 0.55956 0.0
C1957 C 0.02402 0.85743 0.55334 0.0
C1958 C 0.00814 0.85271 0.5579 0.0
C1959 C 0.00566 0.83939 0.56834 0.0
H1960 H 0.14039 0.75187 0.75033 0.0
H1961 H 0.15309 0.70807 0.7236 0.0
H1962 H 0.11733 0.75624 0.73182 0.0
H1963 H 0.12992 0.71238 0.70522 0.0
H1964 H 0.07642 0.71606 0.68777 0.0
H1965 H 0.09984 0.71183 0.70583 0.0
H1966 H 0.11162 0.76331 0.70304 0.0
H1967 H 0.08829 0.76755 0.68482 0.0
C1968 C 0.13837 0.74325 0.74042 0.0
C1969 C 0.14862 0.72961 0.73848 0.0
C1970 C 0.12513 0.74575 0.72982 0.0
C1971 C 0.12178 0.73465 0.71705 0.0
C1972 C 0.13202 0.72103 0.71508 0.0
C1973 C 0.1453 0.71855 0.72564 0.0
C1974 C 0.0841 0.72646 0.69083 0.0
C1975 C 0.08044 0.74216 0.68481 0.0
C1976 C 0.09752 0.72403 0.70121 0.0
C1977 C 0.10759 0.73723 0.70588 0.0
C1978 C 0.10396 0.75292 0.69986 0.0
C1979 C 0.09057 0.75535 0.68943 0.0
H1980 H 0.98954 0.59869 0.53857 0.0
H1981 H 0.96542 0.63064 0.50403 0.0
H1982 H 0.99373 0.62174 0.55716 0.0
H1983 H 0.97015 0.6538 0.52235 0.0
H1984 H 0.96572 0.68761 0.56696 0.0
H1985 H 0.96112 0.66442 0.54865 0.0
H1986 H 0.00976 0.64681 0.55924 0.0
H1987 H 0.01437 0.67001 0.57753 0.0
C1988 C 0.9851 0.61063 0.53495 0.0
C1989 C 0.97712 0.61281 0.51981 0.0
C1990 C 0.98767 0.62388 0.54553 0.0
C1991 C 0.9823 0.63963 0.54124 0.0
C1992 C 0.97429 0.64181 0.52611 0.0
C1993 C 0.97175 0.62856 0.51552 0.0
C1994 C 0.97548 0.67887 0.56528 0.0
C1995 C 0.99041 0.68068 0.57373 0.0
C1996 C 0.97284 0.66557 0.55478 0.0
C1997 C 0.98507 0.65375 0.55247 0.0
C1998 C 0.99999 0.65555 0.56094 0.0
C1999 C 1.00263 0.66885 0.57143 0.0
H2000 H 0.78627 0.84855 0.24378 0.0
H2001 H 0.75408 0.879 0.215 0.0
H2002 H 0.80457 0.8718 0.24811 0.0
H2003 H 0.77244 0.90223 0.21916 0.0
H2004 H 0.80008 0.94419 0.24372 0.0
H2005 H 0.78183 0.92087 0.23997 0.0
H2006 H 0.82355 0.8892 0.2339 0.0
H2007 H 0.84181 0.91239 0.23848 0.0
C2008 C 0.78318 0.86018 0.23825 0.0
C2009 C 0.76871 0.86192 0.22906 0.0
C2010 C 0.79369 0.87351 0.24071 0.0
C2011 C 0.79001 0.88892 0.23398 0.0
C2012 C 0.77554 0.89063 0.22475 0.0
C2013 C 0.76501 0.87731 0.22235 0.0
C2014 C 0.80538 0.93222 0.2418 0.0
C2015 C 0.82245 0.9302 0.24145 0.0
C2016 C 0.7949 0.91887 0.23942 0.0
C2017 C 0.80119 0.90313 0.23658 0.0
C2018 C 0.81826 0.9011 0.23623 0.0
C2019 C 0.82875 0.91445 0.23865 0.0
H2020 H 0.75483 0.13033 0.29148 0.0
H2021 H 0.79025 0.16272 0.26932 0.0
H2022 H 0.77298 0.10722 0.28688 0.0
H2023 H 0.80847 0.13959 0.26491 0.0
H2024 H 0.84333 0.09678 0.27595 0.0
H2025 H 0.82525 0.12002 0.28061 0.0
H2026 H 0.78403 0.09111 0.26402 0.0
H2027 H 0.80202 0.06776 0.25978 0.0
C2028 C 0.76643 0.13252 0.28551 0.0
C2029 C 0.77104 0.14841 0.28074 0.0
C2030 C 0.77684 0.11926 0.28289 0.0
C2031 C 0.79217 0.12156 0.27551 0.0
C2032 C 0.79684 0.13744 0.27083 0.0
C2033 C 0.78639 0.1507 0.27338 0.0
C2034 C 0.83039 0.09536 0.27341 0.0
C2035 C 0.82412 0.08041 0.2675 0.0
C2036 C 0.82006 0.10872 0.27592 0.0
C2037 C 0.8032 0.10742 0.27269 0.0
C2038 C 0.79694 0.09247 0.26678 0.0
C2039 C 0.80727 0.07915 0.26418 0.0
H2040 H 0.40691 0.97693 0.99785 0.0
H2041 H 0.38112 0.99964 0.95755 0.0
H2042 H 0.38359 0.95889 1.00246 0.0
H2043 H 0.35799 0.98127 0.96196 0.0
H2044 H 0.32814 0.933 0.96472 0.0
H2045 H 0.35127 0.95129 0.95991 0.0
H2046 H 0.35455 0.9613 0.01177 0.0
H2047 H 0.3312 0.94339 0.01661 0.0
C2048 C 0.39625 0.97818 0.99003 0.0
C2049 C 0.39593 0.98982 0.97734 0.0
C2050 C 0.38291 0.96778 0.99266 0.0
C2051 C 0.36896 0.96867 0.98258 0.0
C2052 C 0.36865 0.98017 0.9698 0.0
C2053 C 0.38194 0.99067 0.96726 0.0
C2054 C 0.33363 0.93925 0.97509 0.0
C2055 C 0.32776 0.93666 0.99106 0.0
C2056 C 0.34692 0.94969 0.97232 0.0
C2057 C 0.35475 0.95769 0.98547 0.0
C2058 C 0.34892 0.95512 1.00142 0.0
C2059 C 0.33555 0.9448 0.00418 0.0
H2060 H 0.25296 0.37239 0.25825 0.0
H2061 H 0.22194 0.35524 0.29739 0.0
H2062 H 0.23478 0.39557 0.2539 0.0
H2063 H 0.20367 0.37831 0.29285 0.0
H2064 H 0.16618 0.41208 0.26815 0.0
H2065 H 0.18434 0.38874 0.27196 0.0
H2066 H 0.22624 0.42083 0.26819 0.0
H2067 H 0.20808 0.44411 0.264 0.0
C2068 C 0.24234 0.3736 0.26601 0.0
C2069 C 0.23895 0.36192 0.27819 0.0
C2070 C 0.23191 0.38689 0.26349 0.0
C2071 C 0.21778 0.38877 0.27303 0.0
C2072 C 0.21433 0.37707 0.28514 0.0
C2073 C 0.22481 0.36383 0.28772 0.0
C2074 C 0.17927 0.41412 0.26799 0.0
C2075 C 0.1857 0.42994 0.26577 0.0
C2076 C 0.18967 0.40078 0.27034 0.0
C2077 C 0.20673 0.40294 0.27041 0.0
C2078 C 0.21316 0.41874 0.26806 0.0
C2079 C 0.20276 0.4321 0.26582 0.0
H2080 H 0.10143 0.03479 0.49851 0.0
H2081 H 0.12696 0.0114 0.45864 0.0
H2082 H 0.12462 0.0532 0.50269 0.0
H2083 H 0.14994 0.03008 0.46262 0.0
H2084 H 0.17939 0.07828 0.46364 0.0
H2085 H 0.15615 0.05991 0.45966 0.0
H2086 H 0.15384 0.05181 0.51185 0.0
H2087 H 0.17732 0.06988 0.51588 0.0
C2088 C 0.11201 0.03347 0.4907 0.0
C2089 C 0.11227 0.02157 0.47822 0.0
C2090 C 0.12528 0.04407 0.49308 0.0
C2091 C 0.13909 0.04311 0.48296 0.0
C2092 C 0.13937 0.03127 0.47047 0.0
C2093 C 0.12616 0.02059 0.46817 0.0
C2094 C 0.17407 0.07246 0.47428 0.0
C2095 C 0.18031 0.07557 0.49009 0.0
C2096 C 0.16072 0.06196 0.47198 0.0
C2097 C 0.15318 0.0544 0.48544 0.0
C2098 C 0.15927 0.05761 0.50126 0.0
C2099 C 0.17271 0.06802 0.50355 0.0
H2100 H 0.75502 0.12767 0.7183 0.0
H2101 H 0.7187 0.16011 0.73855 0.0
H2102 H 0.73682 0.10444 0.72279 0.0
H2103 H 0.70041 0.13687 0.74272 0.0
H2104 H 0.66622 0.09327 0.73121 0.0
H2105 H 0.68442 0.11655 0.72639 0.0
H2106 H 0.72494 0.08901 0.74611 0.0
H2107 H 0.70682 0.06566 0.75064 0.0
C2108 C 0.74322 0.12986 0.72381 0.0
C2109 C 0.73838 0.14581 0.72808 0.0
C2110 C 0.73277 0.11653 0.72635 0.0
C2111 C 0.71718 0.11881 0.7331 0.0
C2112 C 0.71227 0.13474 0.73728 0.0
C2113 C 0.72276 0.14806 0.73485 0.0
C2114 C 0.67903 0.09216 0.7344 0.0
C2115 C 0.68508 0.07763 0.74131 0.0
C2116 C 0.68942 0.10554 0.73178 0.0
C2117 C 0.70611 0.10462 0.73588 0.0
C2118 C 0.71217 0.09005 0.7427 0.0
C2119 C 0.70176 0.07673 0.74544 0.0
H2120 H 0.37976 0.0072 0.54858 0.0
H2121 H 0.40769 0.03487 0.51332 0.0
H2122 H 0.35677 0.02574 0.54482 0.0
H2123 H 0.38448 0.05307 0.50912 0.0
H2124 H 0.34638 0.09266 0.51941 0.0
H2125 H 0.36941 0.07426 0.5236 0.0
H2126 H 0.33625 0.03299 0.52439 0.0
H2127 H 0.31316 0.05145 0.5208 0.0
C2128 C 0.381 0.01725 0.54003 0.0
C2129 C 0.39559 0.01957 0.53128 0.0
C2130 C 0.36775 0.02777 0.53774 0.0
C2131 C 0.36877 0.04089 0.52666 0.0
C2132 C 0.38334 0.04319 0.51788 0.0
C2133 C 0.39659 0.03264 0.52015 0.0
C2134 C 0.34398 0.07968 0.52066 0.0
C2135 C 0.32791 0.07354 0.5198 0.0
C2136 C 0.35721 0.06911 0.52286 0.0
C2137 C 0.35469 0.05214 0.5243 0.0
C2138 C 0.33861 0.046 0.52349 0.0
C2139 C 0.32539 0.05658 0.52125 0.0
H2140 H 0.62437 0.49783 0.55257 0.0
H2141 H 0.6011 0.4781 0.50911 0.0
H2142 H 0.64716 0.47929 0.54882 0.0
H2143 H 0.62449 0.46049 0.50464 0.0
H2144 H 0.66083 0.41915 0.50944 0.0
H2145 H 0.63766 0.43697 0.51416 0.0
H2146 H 0.67029 0.47444 0.5328 0.0
H2147 H 0.69331 0.45614 0.52929 0.0
C2148 C 0.62407 0.48956 0.5422 0.0
C2149 C 0.61077 0.48951 0.53118 0.0
C2150 C 0.63733 0.47907 0.53988 0.0
C2151 C 0.63779 0.46836 0.52638 0.0
C2152 C 0.62453 0.46837 0.51532 0.0
C2153 C 0.61118 0.47871 0.51774 0.0
C2154 C 0.66308 0.43108 0.51481 0.0
C2155 C 0.67904 0.43611 0.51902 0.0
C2156 C 0.64976 0.44145 0.51727 0.0
C2157 C 0.65201 0.45724 0.52383 0.0
C2158 C 0.66798 0.46231 0.52794 0.0
C2159 C 0.68128 0.45186 0.52566 0.0
H2160 H 0.71923 0.25333 0.38136 0.0
H2161 H 0.73852 0.29071 0.34932 0.0
H2162 H 0.72338 0.2714 0.40482 0.0
H2163 H 0.74225 0.30888 0.37279 0.0
H2164 H 0.72952 0.34205 0.41685 0.0
H2165 H 0.72521 0.32395 0.39331 0.0
H2166 H 0.74673 0.28399 0.42032 0.0
H2167 H 0.75084 0.30202 0.44391 0.0
C2168 C 0.72446 0.26533 0.3793 0.0
C2169 C 0.72856 0.2705 0.36339 0.0
C2170 C 0.72678 0.27571 0.39276 0.0
C2171 C 0.73313 0.29156 0.39064 0.0
C2172 C 0.73714 0.29681 0.37477 0.0
C2173 C 0.73495 0.28638 0.36132 0.0
C2174 C 0.73323 0.32938 0.41778 0.0
C2175 C 0.74052 0.32346 0.43222 0.0
C2176 C 0.7309 0.31906 0.40426 0.0
C2177 C 0.73564 0.30256 0.40497 0.0
C2178 C 0.74283 0.29662 0.41945 0.0
C2179 C 0.74532 0.30697 0.4329 0.0
H2180 H 0.5332 0.01142 0.90884 0.0
H2181 H 0.5094 0.05026 0.88204 0.0
H2182 H 0.55131 0.00673 0.88576 0.0
H2183 H 0.52813 0.04621 0.85935 0.0
H2184 H 0.55243 0.02303 0.81484 0.0
H2185 H 0.53406 0.02746 0.83782 0.0
H2186 H 0.57391 0.01856 0.8716 0.0
H2187 H 0.59217 0.01383 0.84857 0.0
C2188 C 0.53181 0.01897 0.89803 0.0
C2189 C 0.51978 0.0312 0.89733 0.0
C2190 C 0.54237 0.01643 0.88486 0.0
C2191 C 0.54124 0.02611 0.87066 0.0
C2192 C 0.52924 0.03838 0.86999 0.0
C2193 C 0.51863 0.04086 0.88312 0.0
C2194 C 0.55728 0.02214 0.82718 0.0
C2195 C 0.57375 0.01808 0.82989 0.0
C2196 C 0.54675 0.0247 0.84037 0.0
C2197 C 0.55247 0.02338 0.85661 0.0
C2198 C 0.56899 0.0194 0.85929 0.0
C2199 C 0.57949 0.01673 0.84609 0.0
H2200 H 0.25807 0.25158 0.36889 0.0
H2201 H 0.30199 0.22529 0.35632 0.0
H2202 H 0.2539 0.23337 0.39216 0.0
H2203 H 0.29786 0.20717 0.37963 0.0
H2204 H 0.29475 0.18994 0.43296 0.0
H2205 H 0.29861 0.20804 0.40959 0.0
H2206 H 0.24704 0.20479 0.39836 0.0
H2207 H 0.24317 0.18658 0.4217 0.0
C2208 C 0.26676 0.24183 0.371 0.0
C2209 C 0.28039 0.23993 0.36073 0.0
C2210 C 0.26437 0.2314 0.38435 0.0
C2211 C 0.27556 0.21884 0.38778 0.0
C2212 C 0.28915 0.21689 0.37749 0.0
C2213 C 0.29152 0.2273 0.36413 0.0
C2214 C 0.28425 0.19294 0.42543 0.0
C2215 C 0.26865 0.18676 0.42921 0.0
C2216 C 0.28647 0.20334 0.41203 0.0
C2217 C 0.27314 0.20784 0.40209 0.0
C2218 C 0.25753 0.20173 0.4059 0.0
C2219 C 0.25531 0.1913 0.41929 0.0
H2220 H 0.50337 0.46525 0.87898 0.0
H2221 H 0.46964 0.49032 0.9108 0.0
H2222 H 0.48504 0.46981 0.85579 0.0
H2223 H 0.45102 0.49434 0.88773 0.0
H2224 H 0.43085 0.51452 0.83926 0.0
H2225 H 0.44911 0.51002 0.86249 0.0
H2226 H 0.45857 0.46097 0.84525 0.0
H2227 H 0.44028 0.46547 0.82201 0.0
C2228 C 0.49205 0.47175 0.88103 0.0
C2229 C 0.488 0.47745 0.89675 0.0
C2230 C 0.48145 0.4742 0.86777 0.0
C2231 C 0.46654 0.48242 0.86989 0.0
C2232 C 0.46248 0.4881 0.88562 0.0
C2233 C 0.47307 0.48563 0.89889 0.0
C2234 C 0.43669 0.50272 0.8405 0.0
C2235 C 0.43408 0.49036 0.82876 0.0
C2236 C 0.44717 0.50014 0.85383 0.0
C2237 C 0.45531 0.48513 0.85575 0.0
C2238 C 0.45269 0.47276 0.84402 0.0
C2239 C 0.4422 0.47534 0.83069 0.0
H2240 H 0.70762 0.72249 0.15335 0.0
H2241 H 0.74945 0.75144 0.139 0.0
H2242 H 0.71203 0.7043 0.13009 0.0
H2243 H 0.75383 0.73329 0.11571 0.0
H2244 H 0.76648 0.68772 0.08564 0.0
H2245 H 0.76227 0.70561 0.10917 0.0
H2246 H 0.71014 0.70416 0.10044 0.0
H2247 H 0.71436 0.68626 0.07694 0.0
C2248 C 0.71768 0.72505 0.14516 0.0
C2249 C 0.72817 0.73844 0.14804 0.0
C2250 C 0.72021 0.71463 0.13182 0.0
C2251 C 0.73328 0.71733 0.12101 0.0
C2252 C 0.7438 0.73069 0.12393 0.0
C2253 C 0.74128 0.74111 0.13728 0.0
C2254 C 0.75413 0.69132 0.08867 0.0
C2255 C 0.74076 0.68554 0.0794 0.0
C2256 C 0.75171 0.70158 0.10216 0.0
C2257 C 0.73586 0.70633 0.10671 0.0
C2258 C 0.72249 0.70053 0.09745 0.0
C2259 C 0.72491 0.69026 0.08397 0.0
H2260 H 0.99877 0.04824 0.12705 0.0
H2261 H 0.9727 0.01111 0.09953 0.0
H2262 H 0.98034 0.04415 0.15005 0.0
H2263 H 0.95437 0.00692 0.12263 0.0
H2264 H 0.93661 0.99222 0.17412 0.0
H2265 H 0.95469 0.99627 0.15081 0.0
H2266 H 0.95163 0.04861 0.15738 0.0
H2267 H 0.93343 0.0446 0.1806 0.0
C2268 C 0.98903 0.0393 0.12584 0.0
C2269 C 0.98722 0.03003 0.11139 0.0
C2270 C 0.97847 0.03694 0.13905 0.0
C2271 C 0.96586 0.02523 0.13818 0.0
C2272 C 0.96409 0.0159 0.12378 0.0
C2273 C 0.97462 0.01829 0.11054 0.0
C2274 C 0.93963 0.00461 0.17049 0.0
C2275 C 0.93355 0.01808 0.17928 0.0
C2276 C 0.95001 0.00692 0.15713 0.0
C2277 C 0.95463 0.02276 0.15225 0.0
C2278 C 0.94852 0.03624 0.16098 0.0
C2279 C 0.93809 0.03393 0.17431 0.0
H2280 H 0.29848 0.78684 0.15475 0.0
H2281 H 0.25918 0.75574 0.13738 0.0
H2282 H 0.29391 0.8053 0.13175 0.0
H2283 H 0.25475 0.77413 0.11429 0.0
H2284 H 0.26399 0.80138 0.06594 0.0
H2285 H 0.26846 0.78301 0.08907 0.0
H2286 H 0.2734 0.82468 0.12138 0.0
H2287 H 0.2694 0.84305 0.09817 0.0
C2288 C 0.28877 0.784 0.14612 0.0
C2289 C 0.27921 0.76978 0.14794 0.0
C2290 C 0.28617 0.79458 0.13292 0.0
C2291 C 0.27397 0.79118 0.12118 0.0
C2292 C 0.26441 0.77698 0.12299 0.0
C2293 C 0.26697 0.76643 0.13622 0.0
C2294 C 0.26616 0.80662 0.07796 0.0
C2295 C 0.26638 0.82368 0.0802 0.0
C2296 C 0.26854 0.79609 0.09124 0.0
C2297 C 0.27128 0.80238 0.10707 0.0
C2298 C 0.27148 0.81944 0.10932 0.0
C2299 C 0.26902 0.82997 0.09605 0.0
H2300 H 0.03871 0.48824 0.09822 0.0
H2301 H 1.00144 0.47002 0.13089 0.0
H2302 H 0.05727 0.49177 0.12136 0.0
H2303 H 0.01964 0.47452 0.15413 0.0
H2304 H 0.06173 0.46818 0.19024 0.0
H2305 H 0.04357 0.464 0.16682 0.0
H2306 H 0.062 0.50845 0.14482 0.0
H2307 H 0.08042 0.51236 0.16811 0.0
C2308 C 0.03445 0.48497 0.11032 0.0
C2309 C 0.01855 0.47879 0.11263 0.0
C2310 C 0.04504 0.48723 0.12365 0.0
C2311 C 0.03998 0.48347 0.13967 0.0
C2312 C 0.02406 0.47736 0.14197 0.0
C2313 C 0.01351 0.475 0.12863 0.0
C2314 C 0.06183 0.47709 0.18042 0.0
C2315 C 0.0725 0.4906 0.18102 0.0
C2316 C 0.05139 0.47473 0.167 0.0
C2317 C 0.05125 0.4859 0.15389 0.0
C2318 C 0.06194 0.49943 0.15453 0.0
C2319 C 0.07248 0.50171 0.1679 0.0
H2320 H 0.37718 0.7134 0.25733 0.0
H2321 H 0.34714 0.74387 0.28809 0.0
H2322 H 0.40036 0.71786 0.27571 0.0
H2323 H 0.3702 0.7481 0.3067 0.0
H2324 H 0.41907 0.76591 0.3273 0.0
H2325 H 0.39601 0.76155 0.30884 0.0
H2326 H 0.41054 0.7112 0.30224 0.0
H2327 H 0.43415 0.71582 0.31993 0.0
C2328 C 0.37549 0.72092 0.26812 0.0
C2329 C 0.36033 0.72828 0.27125 0.0
C2330 C 0.38877 0.72345 0.2787 0.0
C2331 C 0.38719 0.73332 0.29275 0.0
C2332 C 0.37197 0.74065 0.29588 0.0
C2333 C 0.35873 0.7382 0.28523 0.0
C2334 C 0.41748 0.75395 0.32177 0.0
C2335 C 0.42856 0.74124 0.3251 0.0
C2336 C 0.40409 0.75138 0.31134 0.0
C2337 C 0.40136 0.73601 0.30402 0.0
C2338 C 0.41235 0.72326 0.30747 0.0
C2339 C 0.42579 0.72585 0.31783 0.0
H2340 H 0.99636 0.40914 0.97604 0.0
H2341 H 0.95606 0.38361 0.99875 0.0
H2342 H 1.00088 0.38579 0.95813 0.0
H2343 H 0.95997 0.36066 0.98018 0.0
H2344 H 0.9827 0.31535 0.95676 0.0
H2345 H 0.97818 0.33861 0.97489 0.0
H2346 H 0.98945 0.37168 0.9352 0.0
H2347 H 0.99429 0.34837 0.91721 0.0
C2348 C 0.98845 0.39855 0.97723 0.0
C2349 C 0.97587 0.39828 0.98892 0.0
C2350 C 0.9909 0.38523 0.96678 0.0
C2351 C 0.98077 0.37131 0.96765 0.0
C2352 C 0.96814 0.37107 0.97927 0.0
C2353 C 0.96575 0.38436 0.98979 0.0
C2354 C 0.9841 0.3276 0.9519 0.0
C2355 C 0.98888 0.33003 0.93557 0.0
C2356 C 0.98147 0.34095 0.96228 0.0
C2357 C 0.98345 0.35707 0.95655 0.0
C2358 C 0.9881 0.35947 0.94014 0.0
C2359 C 0.99084 0.34611 0.9298 0.0
H2360 H 0.63844 0.75684 0.25843 0.0
H2361 H 0.65032 0.80122 0.28479 0.0
H2362 H 0.61542 0.75205 0.27669 0.0
H2363 H 0.62718 0.79657 0.30293 0.0
H2364 H 0.59463 0.77487 0.34251 0.0
H2365 H 0.61792 0.77893 0.32449 0.0
H2366 H 0.58885 0.76245 0.28326 0.0
H2367 H 0.56581 0.7576 0.30141 0.0
C2368 C 0.63604 0.76565 0.26804 0.0
C2369 C 0.64622 0.77941 0.27016 0.0
C2370 C 0.62283 0.76292 0.2785 0.0
C2371 C 0.61941 0.77392 0.2913 0.0
C2372 C 0.6296 0.78769 0.29339 0.0
C2373 C 0.64285 0.79038 0.28297 0.0
C2374 C 0.59326 0.7719 0.32964 0.0
C2375 C 0.57832 0.76587 0.32344 0.0
C2376 C 0.60657 0.77444 0.31925 0.0
C2377 C 0.60528 0.77107 0.30239 0.0
C2378 C 0.59035 0.76501 0.2962 0.0
C2379 C 0.57706 0.76243 0.30659 0.0
H2380 H 0.00626 0.11852 0.99984 0.0
H2381 H 0.05246 0.10903 0.97641 0.0
H2382 H 1.00168 0.14158 0.9815 0.0
H2383 H 0.04811 0.13231 0.95827 0.0
H2384 H 0.02827 0.16506 0.91788 0.0
H2385 H 0.03204 0.14155 0.93574 0.0
H2386 H 0.01095 0.16859 0.97591 0.0
H2387 H 0.00626 0.19172 0.95781 0.0
C2388 C 0.01551 0.12147 0.99086 0.0
C2389 C 0.02972 0.11196 0.98957 0.0
C2390 C 0.01292 0.13473 0.98036 0.0
C2391 C 0.02453 0.13888 0.96838 0.0
C2392 C 0.03876 0.12933 0.96713 0.0
C2393 C 0.04129 0.116 0.97756 0.0
C2394 C 0.02421 0.16593 0.93045 0.0
C2395 C 0.01693 0.18034 0.93635 0.0
C2396 C 0.02659 0.1525 0.94078 0.0
C2397 C 0.02186 0.15314 0.95732 0.0
C2398 C 0.01458 0.16755 0.96321 0.0
C2399 C 0.0121 0.18094 0.95286 0.0
H2400 H 0.34862 0.26654 0.22087 0.0
H2401 H 0.37926 0.29524 0.2533 0.0
H2402 H 0.37183 0.26215 0.20278 0.0
H2403 H 0.40244 0.29102 0.23514 0.0
H2404 H 0.44417 0.26633 0.20804 0.0
H2405 H 0.42089 0.27017 0.22605 0.0
H2406 H 0.38935 0.27625 0.18387 0.0
H2407 H 0.4125 0.27157 0.16584 0.0
C2408 C 0.36028 0.27204 0.22405 0.0
C2409 C 0.36209 0.28123 0.23853 0.0
C2410 C 0.37359 0.26954 0.21367 0.0
C2411 C 0.38903 0.27622 0.21748 0.0
C2412 C 0.39081 0.28546 0.23195 0.0
C2413 C 0.37752 0.2879 0.24236 0.0
C2414 C 0.43224 0.26827 0.20258 0.0
C2415 C 0.43024 0.26859 0.18546 0.0
C2416 C 0.41891 0.2707 0.21293 0.0
C2417 C 0.40322 0.27357 0.20644 0.0
C2418 C 0.40121 0.27389 0.18931 0.0
C2419 C 0.41454 0.27142 0.17896 0.0
H2420 H 0.51179 0.4098 0.03499 0.0
H2421 H 0.54898 0.3825 0.00949 0.0
H2422 H 0.50765 0.38679 0.05353 0.0
H2423 H 0.54492 0.35957 0.02812 0.0
H2424 H 0.54511 0.32911 0.07531 0.0
H2425 H 0.54924 0.35227 0.05698 0.0
H2426 H 0.49697 0.35865 0.05319 0.0
H2427 H 0.49281 0.33541 0.07141 0.0
C2428 C 0.51899 0.39885 0.03325 0.0
C2429 C 0.53072 0.39802 0.02073 0.0
C2430 C 0.51663 0.38567 0.04389 0.0
C2431 C 0.52596 0.37135 0.04232 0.0
C2432 C 0.5377 0.37052 0.02983 0.0
C2433 C 0.54003 0.38368 0.01915 0.0
C2434 C 0.53448 0.33535 0.07046 0.0
C2435 C 0.51862 0.33036 0.07484 0.0
C2436 C 0.53686 0.34864 0.05996 0.0
C2437 C 0.52344 0.35731 0.05361 0.0
C2438 C 0.50758 0.35239 0.05806 0.0
C2439 C 0.5052 0.33907 0.06852 0.0
H2440 H 0.65297 0.208 0.22409 0.0
H2441 H 0.64001 0.25165 0.25092 0.0
H2442 H 0.62983 0.21227 0.20565 0.0
H2443 H 0.61698 0.25599 0.23236 0.0
H2444 H 0.58811 0.26736 0.18527 0.0
H2445 H 0.61137 0.26314 0.20357 0.0
H2446 H 0.59975 0.21161 0.20615 0.0
H2447 H 0.57638 0.21583 0.18801 0.0
C2448 C 0.64513 0.21844 0.22614 0.0
C2449 C 0.64837 0.22947 0.23902 0.0
C2450 C 0.63187 0.2209 0.21555 0.0
C2451 C 0.62156 0.23447 0.21753 0.0
C2452 C 0.62483 0.24554 0.23036 0.0
C2453 C 0.63805 0.24305 0.24099 0.0
C2454 C 0.59041 0.25515 0.18985 0.0
C2455 C 0.58034 0.24194 0.18515 0.0
C2456 C 0.60376 0.25273 0.20033 0.0
C2457 C 0.60741 0.23704 0.20632 0.0
C2458 C 0.59741 0.22382 0.20156 0.0
C2459 C 0.58402 0.22624 0.19113 0.0
H2460 H 0.48995 0.0988 0.03826 0.0
H2461 H 0.46542 0.13058 0.00386 0.0
H2462 H 0.49438 0.12193 0.05668 0.0
H2463 H 0.46983 0.15371 0.02229 0.0
H2464 H 0.49628 0.19406 0.05128 0.0
H2465 H 0.49174 0.1709 0.03294 0.0
H2466 H 0.47945 0.1405 0.07439 0.0
H2467 H 0.48401 0.16367 0.09274 0.0
C2468 C 0.48537 0.11069 0.03469 0.0
C2469 C 0.47734 0.11283 0.01957 0.0
C2470 C 0.4879 0.12396 0.04526 0.0
C2471 C 0.48246 0.13969 0.04097 0.0
C2472 C 0.47441 0.14182 0.02586 0.0
C2473 C 0.47188 0.12855 0.01529 0.0
C2474 C 0.49246 0.18248 0.05648 0.0
C2475 C 0.49049 0.18073 0.07349 0.0
C2476 C 0.48985 0.16919 0.04595 0.0
C2477 C 0.48522 0.15383 0.05218 0.0
C2478 C 0.48325 0.15209 0.0692 0.0
C2479 C 0.48586 0.16538 0.07973 0.0
H2480 H 0.25251 0.37914 0.71521 0.0
H2481 H 0.28522 0.34842 0.74309 0.0
H2482 H 0.27095 0.40233 0.71923 0.0
H2483 H 0.3036 0.37164 0.74731 0.0
H2484 H 0.34069 0.41226 0.73746 0.0
H2485 H 0.32232 0.38913 0.73302 0.0
H2486 H 0.28076 0.42083 0.73989 0.0
H2487 H 0.2991 0.4441 0.74347 0.0
C2488 C 0.26357 0.37739 0.72234 0.0
C2489 C 0.2674 0.36194 0.72883 0.0
C2490 C 0.27415 0.39069 0.72467 0.0
C2491 C 0.28878 0.38889 0.73361 0.0
C2492 C 0.29258 0.37342 0.74013 0.0
C2493 C 0.28203 0.36011 0.73774 0.0
C2494 C 0.32764 0.41434 0.73783 0.0
C2495 C 0.32141 0.43009 0.74081 0.0
C2496 C 0.31709 0.40102 0.73549 0.0
C2497 C 0.30004 0.40307 0.73612 0.0
C2498 C 0.29381 0.41881 0.73913 0.0
C2499 C 0.30436 0.43214 0.74141 0.0
H2500 H 0.28595 0.65303 0.80205 0.0
H2501 H 0.25925 0.64037 0.75799 0.0
H2502 H 0.3044 0.63009 0.79743 0.0
H2503 H 0.27741 0.61717 0.75362 0.0
H2504 H 0.32396 0.58823 0.74196 0.0
H2505 H 0.30599 0.61154 0.74636 0.0
H2506 H 0.30375 0.60001 0.79793 0.0
H2507 H 0.32158 0.57661 0.79353 0.0
C2508 C 0.28405 0.64538 0.79135 0.0
C2509 C 0.27113 0.64853 0.78039 0.0
C2510 C 0.29452 0.63214 0.7888 0.0
C2511 C 0.29237 0.62179 0.77517 0.0
C2512 C 0.2795 0.62499 0.76415 0.0
C2513 C 0.26898 0.63818 0.76676 0.0
C2514 C 0.31953 0.59056 0.75422 0.0
C2515 C 0.32424 0.5805 0.76738 0.0
C2516 C 0.30924 0.60394 0.75674 0.0
C2517 C 0.30344 0.60764 0.7725 0.0
C2518 C 0.3082 0.59765 0.78568 0.0
C2519 C 0.31845 0.58423 0.78315 0.0
H2520 H 0.90689 0.47676 0.49798 0.0
H2521 H 0.88094 0.49949 0.45778 0.0
H2522 H 0.88365 0.45862 0.50258 0.0
H2523 H 0.85789 0.48102 0.46219 0.0
H2524 H 0.82811 0.43276 0.46486 0.0
H2525 H 0.85121 0.45108 0.46006 0.0
H2526 H 0.85465 0.46086 0.51196 0.0
H2527 H 0.83133 0.4429 0.51679 0.0
C2528 C 0.89621 0.47799 0.49018 0.0
C2529 C 0.89582 0.48966 0.47752 0.0
C2530 C 0.88291 0.46754 0.4928 0.0
C2531 C 0.86894 0.4684 0.48275 0.0
C2532 C 0.86857 0.47994 0.47001 0.0
C2533 C 0.88182 0.49049 0.46747 0.0
C2534 C 0.83363 0.43896 0.47525 0.0
C2535 C 0.82781 0.4363 0.49122 0.0
C2536 C 0.84691 0.44942 0.47248 0.0
C2537 C 0.85477 0.45737 0.48564 0.0
C2538 C 0.84899 0.45472 0.5016 0.0
C2539 C 0.83564 0.44437 0.50436 0.0
H2540 H 0.7221 0.85549 0.79734 0.0
H2541 H 0.75313 0.87245 0.75812 0.0
H2542 H 0.70383 0.87854 0.79269 0.0
H2543 H 0.73495 0.89561 0.75366 0.0
H2544 H 0.70817 0.94418 0.76342 0.0
H2545 H 0.72636 0.92094 0.76774 0.0
H2546 H 0.6845 0.88884 0.77179 0.0
H2547 H 0.66631 0.91214 0.76785 0.0
C2548 C 0.72497 0.86404 0.78763 0.0
C2549 C 0.73911 0.86208 0.77811 0.0
C2550 C 0.71449 0.87727 0.78499 0.0
C2551 C 0.71794 0.88891 0.77282 0.0
C2552 C 0.73207 0.88698 0.7633 0.0
C2553 C 0.74251 0.87371 0.76588 0.0
C2554 C 0.70286 0.93217 0.76533 0.0
C2555 C 0.6858 0.93 0.76532 0.0
C2556 C 0.71328 0.91884 0.76765 0.0
C2557 C 0.70687 0.90305 0.77011 0.0
C2558 C 0.68981 0.90087 0.77007 0.0
C2559 C 0.6794 0.91419 0.76765 0.0
H2560 H 0.62702 0.50853 0.96073 0.0
H2561 H 0.59842 0.53686 0.9948 0.0
H2562 H 0.65008 0.5271 0.96484 0.0
H2563 H 0.62146 0.55548 0.99887 0.0
H2564 H 0.67178 0.57466 0.01518 0.0
H2565 H 0.64857 0.5563 0.011 0.0
H2566 H 0.65866 0.55493 0.9591 0.0
H2567 H 0.68191 0.57325 0.9633 0.0
C2568 C 0.6256 0.51881 0.96898 0.0
C2569 C 0.61086 0.5212 0.97743 0.0
C2570 C 0.63882 0.52947 0.97133 0.0
C2571 C 0.63764 0.5428 0.98218 0.0
C2572 C 0.62289 0.5452 0.99062 0.0
C2573 C 0.60967 0.53452 0.98828 0.0
C2574 C 0.66896 0.57057 1.00285 0.0
C2575 C 0.67872 0.57543 0.98958 0.0
C2576 C 0.65564 0.56004 1.00045 0.0
C2577 C 0.65174 0.55412 0.98471 0.0
C2578 C 0.66147 0.55904 0.97143 0.0
C2579 C 0.6748 0.56955 0.97383 0.0
H2580 H 0.25506 0.6277 0.21846 0.0
H2581 H 0.21862 0.66018 0.23842 0.0
H2582 H 0.2369 0.60446 0.22306 0.0
H2583 H 0.20037 0.63693 0.24267 0.0
H2584 H 0.16633 0.59315 0.23125 0.0
H2585 H 0.18449 0.61644 0.22634 0.0
H2586 H 0.22498 0.58921 0.24655 0.0
H2587 H 0.2069 0.56584 0.25118 0.0
C2588 C 0.24324 0.6299 0.22393 0.0
C2589 C 0.23835 0.64586 0.22809 0.0
C2590 C 0.23281 0.61656 0.22652 0.0
C2591 C 0.2172 0.61886 0.23322 0.0
C2592 C 0.21224 0.6348 0.23728 0.0
C2593 C 0.22271 0.64813 0.23481 0.0
C2594 C 0.17913 0.59211 0.23453 0.0
C2595 C 0.18518 0.57766 0.24161 0.0
C2596 C 0.1895 0.60549 0.23186 0.0
C2597 C 0.20616 0.60466 0.23606 0.0
C2598 C 0.21223 0.59018 0.24305 0.0
C2599 C 0.20184 0.57685 0.24585 0.0
H2600 H 0.90925 0.53776 0.01282 0.0
H2601 H 0.88046 0.50969 0.04705 0.0
H2602 H 0.88627 0.55621 0.00852 0.0
H2603 H 0.85747 0.52809 0.04272 0.0
H2604 H 0.82581 0.57405 0.04393 0.0
H2605 H 0.84902 0.55591 0.04826 0.0
H2606 H 0.85916 0.55686 0.99637 0.0
H2607 H 0.83599 0.57504 0.99206 0.0
C2608 C 0.89797 0.53544 0.01932 0.0
C2609 C 0.89671 0.52226 0.0303 0.0
C2610 C 0.88479 0.54602 0.01686 0.0
C2611 C 0.87001 0.54366 0.02529 0.0
C2612 C 0.86875 0.53044 0.03623 0.0
C2613 C 0.88193 0.51988 0.03871 0.0
C2614 C 0.83293 0.5703 0.03343 0.0
C2615 C 0.82903 0.576 0.01764 0.0
C2616 C 0.84623 0.55989 0.03591 0.0
C2617 C 0.85596 0.5549 0.02266 0.0
C2618 C 0.85209 0.56065 0.00688 0.0
C2619 C 0.8388 0.57108 0.00441 0.0
H2620 H 0.10112 0.9776 0.00958 0.0
H2621 H 0.12485 0.99759 0.05267 0.0
H2622 H 0.12446 0.95995 0.00497 0.0
H2623 H 0.14762 0.97904 0.04878 0.0
H2624 H 0.19357 0.95589 0.02879 0.0
H2625 H 0.17055 0.97418 0.03242 0.0
H2626 H 0.13776 0.93647 0.0146 0.0
H2627 H 0.16092 0.91863 0.00976 0.0
C2628 C 0.11129 0.97826 0.0181 0.0
C2629 C 0.11104 0.98914 0.03148 0.0
C2630 C 0.12462 0.9679 0.0156 0.0
C2631 C 0.138 0.96796 0.02651 0.0
C2632 C 0.13769 0.97876 0.03996 0.0
C2633 C 0.12445 0.98926 0.04235 0.0
C2634 C 0.1815 0.95156 0.02537 0.0
C2635 C 0.1792 0.93573 0.01892 0.0
C2636 C 0.16821 0.962 0.02772 0.0
C2637 C 0.1522 0.95685 0.02388 0.0
C2638 C 0.14989 0.94099 0.0175 0.0
C2639 C 0.1632 0.93062 0.01497 0.0
loop_
_geom_bond_atom_site_label_1
_geom_bond_atom_site_label_2
_geom_bond_distance
_geom_bond_site_symmetry_2
_ccdc_geom_bond_type
C0 C1 1.386 . S
C0 C2 1.397 . S
C0 H24 0.931 . S
C1 C0 1.386 . S
C1 C5 1.397 1_556 S
C2 C0 1.397 . S
C2 C3 1.384 1_556 S
C2 H25 0.930 . S
C3 C2 1.384 1_554 S
C3 C4 1.377 . S
C3 C6 1.481 . S
C4 C3 1.377 . S
C4 C5 1.389 . S
C4 H26 0.929 . S
C5 C1 1.397 1_554 S
C5 C4 1.389 . S
C5 H27 0.931 . S
C6 C3 1.481 . S
C6 C7 1.387 . S
C6 C11 1.390 . S
C7 C6 1.387 . S
C7 C8 1.401 . S
C7 H28 0.930 . S
C8 C7 1.401 . S
C8 C9 1.376 . S
C8 C17 1.511 . S
C9 C8 1.376 . S
C9 C10 1.392 . S
C9 H30 0.931 . S
C10 C9 1.392 . S
C10 C11 1.361 . S
C10 C12 1.500 . S
C11 C6 1.390 . S
C11 C10 1.361 . S
C11 H29 0.931 . S
C12 C10 1.500 . S
C12 C13 1.371 . S
C12 C14 1.365 . S
C13 C12 1.371 . S
C13 C23 1.386 1_455 S
C13 H31 0.931 . S
C14 C12 1.365 . S
C14 C15 1.409 1_455 S
C14 H32 0.929 . S
C15 C14 1.409 1_655 S
C15 C16 1.380 . S
C15 H33 0.930 . S
C16 C15 1.380 . S
C16 C23 1.357 . S
C17 C8 1.511 . S
C17 C18 1.341 . S
C17 C19 1.366 1_545 S
C18 C17 1.341 . S
C18 C22 1.394 1_545 S
C18 H34 0.930 . S
C19 C17 1.366 1_565 S
C19 C20 1.398 . S
C19 H35 0.931 . S
C20 C19 1.398 . S
C20 C21 1.331 . S
C20 H38 0.932 . S
C21 C20 1.331 . S
C21 C22 1.336 . S
C22 C18 1.394 1_565 S
C22 C21 1.336 . S
C22 H37 0.903 1_554 S
C23 C13 1.386 1_655 S
C23 C16 1.357 . S
C23 H36 0.864 1_545 S
H24 C0 0.931 . S
H25 C2 0.930 . S
H26 C4 0.929 . S
H27 C5 0.931 . S
H28 C7 0.930 . S
H29 C11 0.931 . S
H30 C9 0.931 . S
H31 C13 0.931 . S
H32 C14 0.929 . S
H33 C15 0.930 . S
H34 C18 0.930 . S
H35 C19 0.931 . S
H36 C23 0.864 1_565 S
H37 C22 0.903 1_556 S
H38 C20 0.932 . S
C39 C40 1.386 . S
C39 C41 1.397 . S
C39 H63 0.931 . S
C40 C39 1.386 . S
C40 C44 1.397 . S
C41 C39 1.397 . S
C41 C42 1.384 . S
C41 H64 0.930 . S
C42 C41 1.384 . S
C42 C43 1.377 . S
C42 C45 1.481 . S
C43 C42 1.377 . S
C43 C44 1.389 . S
C43 H65 0.929 . S
C44 C40 1.397 . S
C44 C43 1.389 . S
C44 H66 0.931 . S
C45 C42 1.481 . S
C45 C46 1.387 . S
C45 C50 1.390 . S
C46 C45 1.387 . S
C46 C47 1.401 . S
C46 H67 0.930 . S
C47 C46 1.401 . S
C47 C48 1.376 . S
C47 C56 1.511 . S
C48 C47 1.376 . S
C48 C49 1.392 . S
C48 H69 0.931 . S
C49 C48 1.392 . S
C49 C50 1.361 . S
C49 C51 1.500 . S
C50 C45 1.390 . S
C50 C49 1.361 . S
C50 H68 0.931 . S
C51 C49 1.500 . S
C51 C52 1.371 . S
C51 C53 1.365 . S
C52 C51 1.371 . S
C52 C62 1.386 . S
C52 H70 0.931 . S
C53 C51 1.365 . S
C53 C54 1.409 . S
C53 H71 0.929 . S
C54 C53 1.409 . S
C54 C55 1.380 . S
C54 H72 0.930 . S
C55 C54 1.380 . S
C55 C62 1.357 . S
C56 C47 1.511 . S
C56 C57 1.341 . S
C56 C58 1.371 . S
C57 C56 1.341 . S
C57 C61 1.394 . S
C57 H73 0.930 . S
C58 C56 1.371 . S
C58 C59 1.392 . S
C58 H74 0.931 . S
C59 C58 1.392 . S
C59 C60 1.331 . S
C59 H77 0.932 . S
C60 C59 1.331 . S
C60 C61 1.336 . S
C61 C57 1.394 . S
C61 C60 1.336 . S
C61 H76 0.929 . S
C62 C52 1.386 . S
C62 C55 1.357 . S
C62 H75 0.928 . S
H63 C39 0.931 . S
H64 C41 0.930 . S
H65 C43 0.929 . S
H66 C44 0.931 . S
H67 C46 0.930 . S
H68 C50 0.931 . S
H69 C48 0.931 . S
H70 C52 0.931 . S
H71 C53 0.929 . S
H72 C54 0.930 . S
H73 C57 0.930 . S
H74 C58 0.931 . S
H75 C62 0.928 . S
H76 C61 0.929 . S
H77 C59 0.932 . S
C78 C79 1.386 1_655 S
C78 C80 1.397 . S
C78 H102 0.931 . S
C79 C78 1.386 1_455 S
C79 C83 1.397 . S
C80 C78 1.397 . S
C80 C81 1.384 . S
C80 H103 0.930 . S
C81 C80 1.384 . S
C81 C82 1.377 1_655 S
C81 C84 1.481 . S
C82 C81 1.377 1_455 S
C82 C83 1.389 . S
C82 H104 0.929 . S
C83 C79 1.397 . S
C83 C82 1.389 . S
C83 H105 0.931 . S
C84 C81 1.481 . S
C84 C85 1.387 . S
C84 C89 1.390 . S
C85 C84 1.387 . S
C85 C86 1.401 . S
C85 H106 0.930 . S
C86 C85 1.401 . S
C86 C87 1.376 . S
C86 C95 1.511 . S
C87 C86 1.376 . S
C87 C88 1.392 . S
C87 H108 0.931 . S
C88 C87 1.392 . S
C88 C89 1.361 . S
C88 C90 1.500 . S
C89 C84 1.390 . S
C89 C88 1.361 . S
C89 H107 0.931 . S
C90 C88 1.500 . S
C90 C91 1.371 . S
C90 C92 1.365 . S
C91 C90 1.371 . S
C91 C101 1.386 1_554 S
C91 H109 0.931 . S
C92 C90 1.365 . S
C92 C93 1.409 1_554 S
C92 H110 0.929 . S
C93 C92 1.409 1_556 S
C93 C94 1.380 . S
C93 H111 0.930 1_655 S
C94 C93 1.380 . S
C94 C101 1.357 . S
C95 C86 1.511 . S
C95 C96 1.341 . S
C95 C97 1.371 . S
C96 C95 1.341 . S
C96 C100 1.394 . S
C96 H112 0.930 . S
C97 C95 1.371 . S
C97 C98 1.392 . S
C97 H113 0.931 . S
C98 C97 1.392 . S
C98 C99 1.331 . S
C98 H116 0.941 . S
C99 C98 1.331 . S
C99 C100 1.336 . S
C100 C96 1.394 . S
C100 C99 1.336 . S
C100 H115 0.929 . S
C101 C91 1.386 1_556 S
C101 C94 1.357 . S
C101 H114 0.928 . S
H102 C78 0.931 . S
H103 C80 0.930 . S
H104 C82 0.929 . S
H105 C83 0.931 . S
H106 C85 0.930 . S
H107 C89 0.931 . S
H108 C87 0.931 . S
H109 C91 0.931 . S
H110 C92 0.929 . S
H111 C93 0.930 1_455 S
H112 C96 0.930 . S
H113 C97 0.931 . S
H114 C101 0.928 . S
H115 C100 0.929 . S
H116 C98 0.941 . S
C117 C118 1.386 . S
C117 C119 1.397 . S
C117 H141 0.931 . S
C118 C117 1.386 . S
C118 C122 1.397 . S
C119 C117 1.397 . S
C119 C120 1.384 . S
C119 H142 0.930 . S
C120 C119 1.384 . S
C120 C121 1.377 . S
C120 C123 1.481 . S
C121 C120 1.377 . S
C121 C122 1.389 . S
C121 H143 0.929 . S
C122 C118 1.397 . S
C122 C121 1.389 . S
C122 H144 0.931 . S
C123 C120 1.481 . S
C123 C124 1.387 . S
C123 C128 1.390 . S
C124 C123 1.387 . S
C124 C125 1.401 . S
C124 H145 0.930 . S
C125 C124 1.401 . S
C125 C126 1.376 . S
C125 C134 1.511 . S
C126 C125 1.376 . S
C126 C127 1.392 . S
C126 H147 0.931 . S
C127 C126 1.392 . S
C127 C128 1.361 . S
C127 C129 1.500 . S
C128 C123 1.390 . S
C128 C127 1.361 . S
C128 H146 0.931 . S
C129 C127 1.500 . S
C129 C130 1.371 . S
C129 C131 1.365 . S
C130 C129 1.371 . S
C130 C140 1.386 . S
C130 H148 0.931 . S
C131 C129 1.365 . S
C131 C132 1.409 . S
C131 H149 0.929 . S
C132 C131 1.409 . S
C132 C133 1.380 . S
C132 H150 0.930 . S
C133 C132 1.380 . S
C133 C140 1.357 . S
C134 C125 1.511 . S
C134 C135 1.341 . S
C134 C136 1.371 . S
C135 C134 1.341 . S
C135 C139 1.394 . S
C135 H151 0.930 . S
C136 C134 1.371 . S
C136 C137 1.392 . S
C136 H152 0.931 . S
C137 C136 1.392 . S
C137 C138 1.331 . S
C137 H155 0.932 . S
C138 C137 1.331 . S
C138 C139 1.336 . S
C139 C135 1.394 . S
C139 C138 1.336 . S
C139 H154 0.929 . S
C140 C130 1.386 . S
C140 C133 1.357 . S
C140 H153 0.928 . S
H141 C117 0.931 . S
H142 C119 0.930 . S
H143 C121 0.929 . S
H144 C122 0.931 . S
H145 C124 0.930 . S
H146 C128 0.931 . S
H147 C126 0.931 . S
H148 C130 0.931 . S
H149 C131 0.929 . S
H150 C132 0.930 . S
H151 C135 0.930 . S
H152 C136 0.931 . S
H153 C140 0.928 . S
H154 C139 0.929 . S
H155 C137 0.932 . S
C156 C157 1.386 . S
C156 C158 1.397 . S
C156 H180 0.931 . S
C157 C156 1.386 . S
C157 C161 1.397 1_655 S
C158 C156 1.397 . S
C158 C159 1.384 1_655 S
C158 H181 0.930 . S
C159 C158 1.384 1_455 S
C159 C160 1.377 . S
C159 C162 1.481 . S
C160 C159 1.377 . S
C160 C161 1.389 . S
C160 H182 0.929 . S
C161 C157 1.397 1_455 S
C161 C160 1.389 . S
C161 H183 0.931 . S
C162 C159 1.481 . S
C162 C163 1.387 . S
C162 C167 1.390 . S
C163 C162 1.387 . S
C163 C164 1.401 . S
C163 H184 0.930 . S
C164 C163 1.401 . S
C164 C165 1.376 . S
C164 C173 1.511 . S
C165 C164 1.376 . S
C165 C166 1.392 . S
C165 H186 0.931 . S
C166 C165 1.392 . S
C166 C167 1.361 . S
C166 C168 1.500 . S
C167 C162 1.390 . S
C167 C166 1.361 . S
C167 H185 0.931 . S
C168 C166 1.500 . S
C168 C169 1.371 . S
C168 C170 1.365 . S
C169 C168 1.371 . S
C169 C179 1.386 1_565 S
C169 H187 0.931 . S
C170 C168 1.365 . S
C170 C171 1.409 1_565 S
C170 H188 0.929 . S
C171 C170 1.409 1_545 S
C171 C172 1.380 . S
C171 H189 0.930 . S
C172 C171 1.380 . S
C172 C179 1.357 . S
C173 C164 1.511 . S
C173 C174 1.341 . S
C173 C175 1.371 . S
C174 C173 1.341 . S
C174 C178 1.394 . S
C174 H190 0.930 . S
C175 C173 1.371 . S
C175 C176 1.392 . S
C175 H191 0.931 . S
C176 C175 1.392 . S
C176 C177 1.331 . S
C176 H194 0.932 . S
C177 C176 1.331 . S
C177 C178 1.336 . S
C178 C174 1.394 . S
C178 C177 1.336 . S
C178 H193 0.902 1_455 S
C179 C169 1.386 1_545 S
C179 C172 1.357 . S
C179 H192 0.928 . S
H180 C156 0.931 . S
H181 C158 0.930 . S
H182 C160 0.929 . S
H183 C161 0.931 . S
H184 C163 0.930 . S
H185 C167 0.931 . S
H186 C165 0.931 . S
H187 C169 0.931 . S
H188 C170 0.929 . S
H189 C171 0.930 . S
H190 C174 0.930 . S
H191 C175 0.931 . S
H192 C179 0.928 . S
H193 C178 0.902 1_655 S
H194 C176 0.932 . S
C195 C196 1.386 . S
C195 C197 1.397 . S
C195 H219 0.931 . S
C196 C195 1.386 . S
C196 C200 1.397 . S
C197 C195 1.397 . S
C197 C198 1.384 . S
C197 H220 0.930 . S
C198 C197 1.384 . S
C198 C199 1.377 . S
C198 C201 1.481 . S
C199 C198 1.377 . S
C199 C200 1.389 . S
C199 H221 0.929 . S
C200 C196 1.397 . S
C200 C199 1.389 . S
C200 H222 0.931 . S
C201 C198 1.481 . S
C201 C202 1.387 . S
C201 C206 1.390 . S
C202 C201 1.387 . S
C202 C203 1.401 . S
C202 H223 0.930 . S
C203 C202 1.401 . S
C203 C204 1.376 . S
C203 C212 1.511 . S
C204 C203 1.376 . S
C204 C205 1.392 . S
C204 H225 0.931 . S
C205 C204 1.392 . S
C205 C206 1.361 . S
C205 C207 1.500 . S
C206 C201 1.390 . S
C206 C205 1.361 . S
C206 H224 0.931 . S
C207 C205 1.500 . S
C207 C208 1.371 . S
C207 C209 1.365 . S
C208 C207 1.371 . S
C208 C218 1.386 . S
C208 H226 0.931 . S
C209 C207 1.365 . S
C209 C210 1.409 . S
C209 H227 0.929 . S
C210 C209 1.409 . S
C210 C211 1.380 . S
C210 H228 0.930 . S
C211 C210 1.380 . S
C211 C218 1.357 . S
C212 C203 1.511 . S
C212 C213 1.341 . S
C212 C214 1.371 . S
C213 C212 1.341 . S
C213 C217 1.394 . S
C213 H229 0.930 . S
C214 C212 1.371 . S
C214 C215 1.392 . S
C214 H230 0.931 . S
C215 C214 1.392 . S
C215 C216 1.331 . S
C215 H233 0.932 . S
C216 C215 1.331 . S
C216 C217 1.336 . S
C217 C213 1.394 . S
C217 C216 1.336 . S
C217 H232 0.929 . S
C218 C208 1.386 . S
C218 C211 1.357 . S
C218 H231 0.928 . S
H219 C195 0.931 . S
H220 C197 0.930 . S
H221 C199 0.929 . S
H222 C200 0.931 . S
H223 C202 0.930 . S
H224 C206 0.931 . S
H225 C204 0.931 . S
H226 C208 0.931 . S
H227 C209 0.929 . S
H228 C210 0.930 . S
H229 C213 0.930 . S
H230 C214 0.931 . S
H231 C218 0.928 . S
H232 C217 0.929 . S
H233 C215 0.932 . S
C234 C235 1.386 . S
C234 C236 1.397 . S
C234 H258 0.931 . S
C235 C234 1.386 . S
C235 C239 1.397 . S
C236 C234 1.397 . S
C236 C237 1.384 . S
C236 H259 0.930 . S
C237 C236 1.384 . S
C237 C238 1.377 . S
C237 C240 1.481 . S
C238 C237 1.377 . S
C238 C239 1.389 . S
C238 H260 0.929 . S
C239 C235 1.397 . S
C239 C238 1.389 . S
C239 H261 0.931 . S
C240 C237 1.481 . S
C240 C241 1.387 . S
C240 C245 1.390 . S
C241 C240 1.387 . S
C241 C242 1.401 . S
C241 H262 0.930 . S
C242 C241 1.401 . S
C242 C243 1.376 . S
C242 C251 1.511 . S
C243 C242 1.376 . S
C243 C244 1.392 . S
C243 H264 0.931 . S
C244 C243 1.392 . S
C244 C245 1.361 . S
C244 C246 1.500 . S
C245 C240 1.390 . S
C245 C244 1.361 . S
C245 H263 0.931 . S
C246 C244 1.500 . S
C246 C247 1.371 . S
C246 C248 1.365 . S
C247 C246 1.371 . S
C247 C257 1.386 . S
C247 H265 0.931 . S
C248 C246 1.365 . S
C248 C249 1.409 . S
C248 H266 0.929 . S
C249 C248 1.409 . S
C249 C250 1.380 . S
C249 H267 0.930 . S
C250 C249 1.380 . S
C250 C257 1.357 . S
C251 C242 1.511 . S
C251 C252 1.303 1_655 S
C251 C253 1.371 . S
C252 C251 1.303 1_455 S
C252 C256 1.436 . S
C252 H268 0.929 . S
C253 C251 1.371 . S
C253 C254 1.392 1_655 S
C253 H269 0.931 . S
C254 C253 1.392 1_455 S
C254 C255 1.331 . S
C254 H272 0.932 . S
C255 C254 1.331 . S
C255 C256 1.336 . S
C256 C252 1.436 . S
C256 C255 1.336 . S
C256 H271 0.929 . S
C257 C247 1.386 . S
C257 C250 1.357 . S
C257 H270 0.928 . S
H258 C234 0.931 . S
H259 C236 0.930 . S
H260 C238 0.929 . S
H261 C239 0.931 . S
H262 C241 0.930 . S
H263 C245 0.931 . S
H264 C243 0.931 . S
H265 C247 0.931 . S
H266 C248 0.929 . S
H267 C249 0.930 . S
H268 C252 0.929 . S
H269 C253 0.931 . S
H270 C257 0.928 . S
H271 C256 0.929 . S
H272 C254 0.932 . S
C273 C274 1.386 . S
C273 C275 1.397 . S
C273 H297 0.931 . S
C274 C273 1.386 . S
C274 C278 1.397 . S
C275 C273 1.397 . S
C275 C276 1.384 . S
C275 H298 0.930 . S
C276 C275 1.384 . S
C276 C277 1.377 . S
C276 C279 1.481 . S
C277 C276 1.377 . S
C277 C278 1.389 . S
C277 H299 0.929 . S
C278 C274 1.397 . S
C278 C277 1.389 . S
C278 H300 0.931 . S
C279 C276 1.481 . S
C279 C280 1.387 . S
C279 C284 1.390 . S
C280 C279 1.387 . S
C280 C281 1.401 . S
C280 H301 0.930 . S
C281 C280 1.401 . S
C281 C282 1.376 . S
C281 C290 1.511 . S
C282 C281 1.376 . S
C282 C283 1.392 . S
C282 H303 0.931 . S
C283 C282 1.392 . S
C283 C284 1.361 . S
C283 C285 1.500 . S
C284 C279 1.390 . S
C284 C283 1.361 . S
C284 H302 0.931 . S
C285 C283 1.500 . S
C285 C286 1.371 . S
C285 C287 1.365 . S
C286 C285 1.371 . S
C286 C296 1.386 . S
C286 H304 0.931 . S
C287 C285 1.365 . S
C287 C288 1.409 . S
C287 H305 0.929 . S
C288 C287 1.409 . S
C288 C289 1.380 . S
C288 H306 0.930 . S
C289 C288 1.380 . S
C289 C296 1.357 . S
C290 C281 1.511 . S
C290 C291 1.341 . S
C290 C292 1.371 . S
C291 C290 1.341 . S
C291 C295 1.394 . S
C291 H307 0.930 . S
C292 C290 1.371 . S
C292 C293 1.392 . S
C292 H308 0.931 . S
C293 C292 1.392 . S
C293 C294 1.331 . S
C293 H311 0.932 . S
C294 C293 1.331 . S
C294 C295 1.336 . S
C295 C291 1.394 . S
C295 C294 1.336 . S
C295 H310 0.929 . S
C296 C286 1.386 . S
C296 C289 1.357 . S
C296 H309 0.928 . S
H297 C273 0.931 . S
H298 C275 0.930 . S
H299 C277 0.929 . S
H300 C278 0.931 . S
H301 C280 0.930 . S
H302 C284 0.931 . S
H303 C282 0.931 . S
H304 C286 0.931 . S
H305 C287 0.929 . S
H306 C288 0.930 . S
H307 C291 0.930 . S
H308 C292 0.931 . S
H309 C296 0.928 . S
H310 C295 0.929 . S
H311 C293 0.932 . S
C312 C313 1.386 . S
C312 C314 1.397 . S
C312 H336 0.931 . S
C313 C312 1.386 . S
C313 C317 1.397 . S
C314 C312 1.397 . S
C314 C315 1.384 . S
C314 H337 0.930 . S
C315 C314 1.384 . S
C315 C316 1.377 . S
C315 C318 1.481 . S
C316 C315 1.377 . S
C316 C317 1.389 . S
C316 H338 0.929 . S
C317 C313 1.397 . S
C317 C316 1.389 . S
C317 H339 0.931 . S
C318 C315 1.481 . S
C318 C319 1.387 . S
C318 C323 1.390 . S
C319 C318 1.387 . S
C319 C320 1.401 . S
C319 H340 0.930 . S
C320 C319 1.401 . S
C320 C321 1.376 . S
C320 C329 1.511 . S
C321 C320 1.376 . S
C321 C322 1.392 . S
C321 H342 0.931 . S
C322 C321 1.392 . S
C322 C323 1.361 . S
C322 C324 1.500 . S
C323 C318 1.390 . S
C323 C322 1.361 . S
C323 H341 0.931 . S
C324 C322 1.500 . S
C324 C325 1.371 . S
C324 C326 1.365 . S
C325 C324 1.371 . S
C325 C335 1.386 . S
C325 H343 0.931 . S
C326 C324 1.365 . S
C326 C327 1.409 . S
C326 H344 0.929 . S
C327 C326 1.409 . S
C327 C328 1.380 . S
C327 H345 0.930 . S
C328 C327 1.380 . S
C328 C335 1.357 . S
C329 C320 1.511 . S
C329 C330 1.341 . S
C329 C331 1.371 . S
C330 C329 1.341 . S
C330 C334 1.394 . S
C330 H346 0.930 . S
C331 C329 1.371 . S
C331 C332 1.392 . S
C331 H347 0.931 . S
C332 C331 1.392 . S
C332 C333 1.331 . S
C332 H350 0.932 . S
C333 C332 1.331 . S
C333 C334 1.336 . S
C334 C330 1.394 . S
C334 C333 1.336 . S
C334 H349 0.929 . S
C335 C325 1.386 . S
C335 C328 1.357 . S
C335 H348 0.928 . S
H336 C312 0.931 . S
H337 C314 0.930 . S
H338 C316 0.929 . S
H339 C317 0.931 . S
H340 C319 0.930 . S
H341 C323 0.931 . S
H342 C321 0.931 . S
H343 C325 0.931 . S
H344 C326 0.929 . S
H345 C327 0.930 . S
H346 C330 0.930 . S
H347 C331 0.931 . S
H348 C335 0.928 . S
H349 C334 0.929 . S
H350 C332 0.932 . S
C351 C352 1.386 . S
C351 C353 1.397 . S
C351 H375 0.931 . S
C352 C351 1.386 . S
C352 C356 1.397 . S
C353 C351 1.397 . S
C353 C354 1.384 . S
C353 H376 0.930 . S
C354 C353 1.384 . S
C354 C355 1.377 . S
C354 C357 1.481 . S
C355 C354 1.377 . S
C355 C356 1.389 . S
C355 H377 0.929 . S
C356 C352 1.397 . S
C356 C355 1.389 . S
C356 H378 0.931 . S
C357 C354 1.481 . S
C357 C358 1.387 . S
C357 C362 1.390 . S
C358 C357 1.387 . S
C358 C359 1.401 . S
C358 H379 0.930 . S
C359 C358 1.401 . S
C359 C360 1.376 . S
C359 C368 1.511 . S
C360 C359 1.376 . S
C360 C361 1.392 . S
C360 H381 0.931 . S
C361 C360 1.392 . S
C361 C362 1.361 . S
C361 C363 1.500 . S
C362 C357 1.390 . S
C362 C361 1.361 . S
C362 H380 0.931 . S
C363 C361 1.500 . S
C363 C364 1.371 . S
C363 C365 1.365 . S
C364 C363 1.371 . S
C364 C374 1.386 . S
C364 H382 0.931 . S
C365 C363 1.365 . S
C365 C366 1.409 . S
C365 H383 0.929 . S
C366 C365 1.409 . S
C366 C367 1.380 . S
C366 H384 0.930 . S
C367 C366 1.380 . S
C367 C374 1.357 . S
C368 C359 1.511 . S
C368 C369 1.313 1_565 S
C368 C370 1.371 . S
C369 C368 1.313 1_545 S
C369 C373 1.424 . S
C369 H385 0.929 . S
C370 C368 1.371 . S
C370 C371 1.392 1_565 S
C370 H386 0.931 . S
C371 C370 1.392 1_545 S
C371 C372 1.331 . S
C371 H389 0.932 . S
C372 C371 1.331 . S
C372 C373 1.336 . S
C373 C369 1.424 . S
C373 C372 1.336 . S
C373 H388 0.929 . S
C374 C364 1.386 . S
C374 C367 1.357 . S
C374 H387 0.928 . S
H375 C351 0.931 . S
H376 C353 0.930 . S
H377 C355 0.929 . S
H378 C356 0.931 . S
H379 C358 0.930 . S
H380 C362 0.931 . S
H381 C360 0.931 . S
H382 C364 0.931 . S
H383 C365 0.929 . S
H384 C366 0.930 . S
H385 C369 0.929 . S
H386 C370 0.931 . S
H387 C374 0.928 . S
H388 C373 0.929 . S
H389 C371 0.932 . S
C390 C391 1.386 . S
C390 C392 1.397 . S
C390 H414 0.931 . S
C391 C390 1.386 . S
C391 C395 1.397 . S
C392 C390 1.397 . S
C392 C393 1.384 . S
C392 H415 0.930 . S
C393 C392 1.384 . S
C393 C394 1.377 . S
C393 C396 1.481 . S
C394 C393 1.377 . S
C394 C395 1.389 . S
C394 H416 0.929 . S
C395 C391 1.397 . S
C395 C394 1.389 . S
C395 H417 0.931 . S
C396 C393 1.481 . S
C396 C397 1.387 . S
C396 C401 1.390 . S
C397 C396 1.387 . S
C397 C398 1.401 . S
C397 H418 0.930 . S
C398 C397 1.401 . S
C398 C399 1.376 . S
C398 C407 1.511 . S
C399 C398 1.376 . S
C399 C400 1.392 . S
C399 H420 0.931 . S
C400 C399 1.392 . S
C400 C401 1.361 . S
C400 C402 1.500 . S
C401 C396 1.390 . S
C401 C400 1.361 . S
C401 H419 0.931 . S
C402 C400 1.500 . S
C402 C403 1.371 . S
C402 C404 1.365 . S
C403 C402 1.371 . S
C403 C413 1.386 . S
C403 H421 0.931 . S
C404 C402 1.365 . S
C404 C405 1.409 . S
C404 H422 0.929 . S
C405 C404 1.409 . S
C405 C406 1.380 . S
C405 H423 0.930 . S
C406 C405 1.380 . S
C406 C413 1.357 . S
C407 C398 1.511 . S
C407 C408 1.341 . S
C407 C409 1.371 . S
C408 C407 1.341 . S
C408 C412 1.394 . S
C408 H424 0.930 . S
C409 C407 1.371 . S
C409 C410 1.392 . S
C409 H425 0.931 . S
C410 C409 1.392 . S
C410 C411 1.331 . S
C410 H428 0.932 . S
C411 C410 1.331 . S
C411 C412 1.336 . S
C412 C408 1.394 . S
C412 C411 1.336 . S
C412 H427 0.929 . S
C413 C403 1.386 . S
C413 C406 1.357 . S
C413 H426 0.928 . S
H414 C390 0.931 . S
H415 C392 0.930 . S
H416 C394 0.929 . S
H417 C395 0.931 . S
H418 C397 0.930 . S
H419 C401 0.931 . S
H420 C399 0.931 . S
H421 C403 0.931 . S
H422 C404 0.929 . S
H423 C405 0.930 . S
H424 C408 0.930 . S
H425 C409 0.931 . S
H426 C413 0.928 . S
H427 C412 0.929 . S
H428 C410 0.932 . S
C429 C430 1.386 . S
C429 C431 1.397 . S
C429 H453 0.931 . S
C430 C429 1.386 . S
C430 C434 1.397 . S
C431 C429 1.397 . S
C431 C432 1.384 . S
C431 H454 0.930 . S
C432 C431 1.384 . S
C432 C433 1.377 . S
C432 C435 1.481 . S
C433 C432 1.377 . S
C433 C434 1.389 . S
C433 H455 0.929 . S
C434 C430 1.397 . S
C434 C433 1.389 . S
C434 H456 0.931 . S
C435 C432 1.481 . S
C435 C436 1.387 . S
C435 C440 1.390 . S
C436 C435 1.387 . S
C436 C437 1.401 . S
C436 H457 0.930 . S
C437 C436 1.401 . S
C437 C438 1.376 . S
C437 C446 1.511 . S
C438 C437 1.376 . S
C438 C439 1.392 . S
C438 H459 0.931 . S
C439 C438 1.392 . S
C439 C440 1.361 . S
C439 C441 1.500 . S
C440 C435 1.390 . S
C440 C439 1.361 . S
C440 H458 0.931 . S
C441 C439 1.500 . S
C441 C442 1.371 . S
C441 C443 1.365 . S
C442 C441 1.371 . S
C442 C452 1.386 . S
C442 H460 0.931 . S
C443 C441 1.365 . S
C443 C444 1.409 . S
C443 H461 0.929 . S
C444 C443 1.409 . S
C444 C445 1.380 . S
C444 H462 0.930 . S
C445 C444 1.380 . S
C445 C452 1.357 . S
C446 C437 1.511 . S
C446 C447 1.341 . S
C446 C448 1.371 . S
C447 C446 1.341 . S
C447 C451 1.394 . S
C447 H463 0.930 . S
C448 C446 1.371 . S
C448 C449 1.392 . S
C448 H464 0.931 . S
C449 C448 1.392 . S
C449 C450 1.331 . S
C449 H467 0.932 . S
C450 C449 1.331 . S
C450 C451 1.336 . S
C451 C447 1.394 . S
C451 C450 1.336 . S
C451 H466 0.929 . S
C452 C442 1.386 . S
C452 C445 1.357 . S
C452 H465 0.928 . S
H453 C429 0.931 . S
H454 C431 0.930 . S
H455 C433 0.929 . S
H456 C434 0.931 . S
H457 C436 0.930 . S
H458 C440 0.931 . S
H459 C438 0.931 . S
H460 C442 0.931 . S
H461 C443 0.929 . S
H462 C444 0.930 . S
H463 C447 0.930 . S
H464 C448 0.931 . S
H465 C452 0.928 . S
H466 C451 0.929 . S
H467 C449 0.932 . S
C468 C469 1.386 . S
C468 C470 1.397 . S
C468 H492 0.931 . S
C469 C468 1.386 . S
C469 C473 1.397 . S
C470 C468 1.397 . S
C470 C471 1.384 . S
C470 H493 0.930 . S
C471 C470 1.384 . S
C471 C472 1.377 . S
C471 C474 1.481 . S
C472 C471 1.377 . S
C472 C473 1.389 . S
C472 H494 0.929 . S
C473 C469 1.397 . S
C473 C472 1.389 . S
C473 H495 0.931 . S
C474 C471 1.481 . S
C474 C475 1.387 . S
C474 C479 1.390 . S
C475 C474 1.387 . S
C475 C476 1.401 . S
C475 H496 0.930 . S
C476 C475 1.401 . S
C476 C477 1.376 . S
C476 C485 1.511 . S
C477 C476 1.376 . S
C477 C478 1.392 . S
C477 H498 0.931 . S
C478 C477 1.392 . S
C478 C479 1.361 . S
C478 C480 1.500 . S
C479 C474 1.390 . S
C479 C478 1.361 . S
C479 H497 0.931 . S
C480 C478 1.500 . S
C480 C481 1.371 . S
C480 C482 1.365 . S
C481 C480 1.371 . S
C481 C491 1.386 . S
C481 H499 0.931 . S
C482 C480 1.365 . S
C482 C483 1.409 . S
C482 H500 0.929 . S
C483 C482 1.409 . S
C483 C484 1.380 . S
C483 H501 0.930 . S
C484 C483 1.380 . S
C484 C491 1.357 . S
C485 C476 1.511 . S
C485 C486 1.341 . S
C485 C487 1.371 . S
C486 C485 1.341 . S
C486 C490 1.394 . S
C486 H502 0.930 . S
C487 C485 1.371 . S
C487 C488 1.392 . S
C487 H503 0.931 . S
C488 C487 1.392 . S
C488 C489 1.331 . S
C488 H506 0.932 . S
C489 C488 1.331 . S
C489 C490 1.336 . S
C490 C486 1.394 . S
C490 C489 1.336 . S
C490 H505 0.929 . S
C491 C481 1.386 . S
C491 C484 1.357 . S
C491 H504 0.928 . S
H492 C468 0.931 . S
H493 C470 0.930 . S
H494 C472 0.929 . S
H495 C473 0.931 . S
H496 C475 0.930 . S
H497 C479 0.931 . S
H498 C477 0.931 . S
H499 C481 0.931 . S
H500 C482 0.929 . S
H501 C483 0.930 . S
H502 C486 0.930 . S
H503 C487 0.931 . S
H504 C491 0.928 . S
H505 C490 0.929 . S
H506 C488 0.932 . S
C507 C508 1.386 . S
C507 C509 1.397 . S
C507 H531 0.931 . S
C508 C507 1.386 . S
C508 C512 1.397 . S
C509 C507 1.397 . S
C509 C510 1.384 . S
C509 H532 0.930 . S
C510 C509 1.384 . S
C510 C511 1.377 . S
C510 C513 1.481 . S
C511 C510 1.377 . S
C511 C512 1.389 . S
C511 H533 0.929 . S
C512 C508 1.397 . S
C512 C511 1.389 . S
C512 H534 0.931 . S
C513 C510 1.481 . S
C513 C514 1.387 . S
C513 C518 1.390 . S
C514 C513 1.387 . S
C514 C515 1.401 . S
C514 H535 0.930 . S
C515 C514 1.401 . S
C515 C516 1.376 . S
C515 C524 1.511 . S
C516 C515 1.376 . S
C516 C517 1.392 . S
C516 H537 0.931 . S
C517 C516 1.392 . S
C517 C518 1.361 . S
C517 C519 1.500 . S
C518 C513 1.390 . S
C518 C517 1.361 . S
C518 H536 0.931 . S
C519 C517 1.500 . S
C519 C520 1.371 . S
C519 C521 1.365 . S
C520 C519 1.371 . S
C520 C530 1.386 . S
C520 H538 0.990 . S
C521 C519 1.365 . S
C521 C522 1.409 . S
C521 H539 0.929 . S
C522 C521 1.409 . S
C522 C523 1.380 . S
C522 H540 0.930 . S
C523 C522 1.380 . S
C523 C530 1.357 . S
C524 C515 1.511 . S
C524 C525 1.341 . S
C524 C526 1.371 1_556 S
C525 C524 1.341 . S
C525 C529 1.394 1_556 S
C525 H541 0.930 . S
C526 C524 1.371 1_554 S
C526 C527 1.392 . S
C526 H542 0.931 . S
C527 C526 1.392 . S
C527 C528 1.331 . S
C527 H545 0.932 . S
C528 C527 1.331 . S
C528 C529 1.336 . S
C529 C525 1.394 1_554 S
C529 C528 1.336 . S
C529 H544 0.929 . S
C530 C520 1.386 . S
C530 C523 1.357 . S
C530 H543 0.928 1_556 S
H531 C507 0.931 . S
H532 C509 0.930 . S
H533 C511 0.929 . S
H534 C512 0.931 . S
H535 C514 0.930 . S
H536 C518 0.931 . S
H537 C516 0.931 . S
H538 C520 0.990 . S
H539 C521 0.929 . S
H540 C522 0.930 . S
H541 C525 0.930 . S
H542 C526 0.931 . S
H543 C530 0.928 1_554 S
H544 C529 0.929 . S
H545 C527 0.932 . S
C546 C547 1.386 . S
C546 C548 1.397 . S
C546 H570 0.931 . S
C547 C546 1.386 . S
C547 C551 1.397 . S
C548 C546 1.397 . S
C548 C549 1.384 . S
C548 H571 0.930 . S
C549 C548 1.384 . S
C549 C550 1.377 . S
C549 C552 1.481 . S
C550 C549 1.377 . S
C550 C551 1.389 . S
C550 H572 0.929 . S
C551 C547 1.397 . S
C551 C550 1.389 . S
C551 H573 0.931 . S
C552 C549 1.481 . S
C552 C553 1.387 . S
C552 C557 1.390 . S
C553 C552 1.387 . S
C553 C554 1.401 . S
C553 H574 0.930 . S
C554 C553 1.401 . S
C554 C555 1.376 . S
C554 C563 1.511 . S
C555 C554 1.376 . S
C555 C556 1.392 . S
C555 H576 0.931 . S
C556 C555 1.392 . S
C556 C557 1.361 . S
C556 C558 1.500 . S
C557 C552 1.390 . S
C557 C556 1.361 . S
C557 H575 0.931 . S
C558 C556 1.500 . S
C558 C559 1.371 . S
C558 C560 1.365 . S
C559 C558 1.371 . S
C559 C569 1.386 . S
C559 H577 0.931 . S
C560 C558 1.365 . S
C560 C561 1.409 . S
C560 H578 0.929 . S
C561 C560 1.409 . S
C561 C562 1.380 . S
C561 H579 0.930 . S
C562 C561 1.380 . S
C562 C569 1.357 . S
C563 C554 1.511 . S
C563 C564 1.341 . S
C563 C565 1.371 . S
C564 C563 1.341 . S
C564 C568 1.394 . S
C564 H580 0.930 . S
C565 C563 1.371 . S
C565 C566 1.392 . S
C565 H581 0.931 . S
C566 C565 1.392 . S
C566 C567 1.331 . S
C566 H584 0.932 . S
C567 C566 1.331 . S
C567 C568 1.336 . S
C568 C564 1.394 . S
C568 C567 1.336 . S
C568 H583 0.929 . S
C569 C559 1.386 . S
C569 C562 1.357 . S
C569 H582 0.928 . S
H570 C546 0.931 . S
H571 C548 0.930 . S
H572 C550 0.929 . S
H573 C551 0.931 . S
H574 C553 0.930 . S
H575 C557 0.931 . S
H576 C555 0.931 . S
H577 C559 0.931 . S
H578 C560 0.929 . S
H579 C561 0.930 . S
H580 C564 0.930 . S
H581 C565 0.931 . S
H582 C569 0.928 . S
H583 C568 0.929 . S
H584 C566 0.932 . S
C585 C586 1.386 1_556 S
C585 C587 1.397 . S
C585 H609 0.931 . S
C586 C585 1.386 1_554 S
C586 C590 1.397 . S
C587 C585 1.397 . S
C587 C588 1.384 . S
C587 H610 0.930 . S
C588 C587 1.384 . S
C588 C589 1.377 1_556 S
C588 C591 1.481 . S
C589 C588 1.377 1_554 S
C589 C590 1.389 . S
C589 H611 0.929 . S
C590 C586 1.397 . S
C590 C589 1.389 . S
C590 H612 0.931 . S
C591 C588 1.481 . S
C591 C592 1.387 . S
C591 C596 1.390 . S
C592 C591 1.387 . S
C592 C593 1.401 . S
C592 H613 0.930 . S
C593 C592 1.401 . S
C593 C594 1.376 . S
C593 C602 1.511 . S
C594 C593 1.376 . S
C594 C595 1.392 . S
C594 H615 0.931 . S
C595 C594 1.392 . S
C595 C596 1.361 . S
C595 C597 1.500 . S
C596 C591 1.390 . S
C596 C595 1.361 . S
C596 H614 0.931 . S
C597 C595 1.500 . S
C597 C598 1.371 . S
C597 C599 1.365 . S
C598 C597 1.371 . S
C598 C608 1.386 1_545 S
C598 H616 0.931 . S
C599 C597 1.365 . S
C599 C600 1.409 1_545 S
C599 H617 0.958 . S
C600 C599 1.409 1_565 S
C600 C601 1.380 . S
C600 H618 0.930 1_556 S
C601 C600 1.380 . S
C601 C608 1.357 . S
C602 C593 1.511 . S
C602 C603 1.341 . S
C602 C604 1.371 . S
C603 C602 1.341 . S
C603 C607 1.394 . S
C603 H619 0.930 . S
C604 C602 1.371 . S
C604 C605 1.392 . S
C604 H620 0.931 . S
C605 C604 1.392 . S
C605 C606 1.331 . S
C605 H623 0.881 1_545 S
C606 C605 1.331 . S
C606 C607 1.336 . S
C607 C603 1.394 . S
C607 C606 1.336 . S
C607 H622 0.929 . S
C608 C598 1.386 1_565 S
C608 C601 1.357 . S
C608 H621 0.928 . S
H609 C585 0.931 . S
H610 C587 0.930 . S
H611 C589 0.929 . S
H612 C590 0.931 . S
H613 C592 0.930 . S
H614 C596 0.931 . S
H615 C594 0.931 . S
H616 C598 0.931 . S
H617 C599 0.958 . S
H618 C600 0.930 1_554 S
H619 C603 0.930 . S
H620 C604 0.931 . S
H621 C608 0.928 . S
H622 C607 0.929 . S
H623 C605 0.881 1_565 S
Li624 N641 1.990 . S
Li624 O684 1.956 . S
Li624 O685 1.970 1_556 S
Li624 O686 1.961 . S
Li625 N649 1.990 . S
Li625 O684 1.970 1_554 S
Li625 O685 1.956 . S
Li625 O687 1.961 . S
Li626 N671 1.990 . S
Li626 O684 1.961 . S
Li626 O686 1.956 . S
Li626 O687 1.970 1_556 S
Li627 N677 1.990 . S
Li627 O685 1.961 . S
Li627 O686 1.970 1_554 S
Li627 O687 1.956 . S
C628 C630 1.348 1_556 S
C628 C631 1.356 . S
C628 O684 1.325 . S
N629 C632 1.314 1_556 S
N629 C633 1.279 . S
C630 C628 1.348 1_554 S
C630 C632 1.353 . S
C630 H688 0.929 . S
C631 C628 1.356 . S
C631 C633 1.358 . S
C631 H689 0.930 . S
C632 N629 1.314 1_554 S
C632 C630 1.353 . S
C632 H690 0.930 . S
C633 N629 1.279 . S
C633 C631 1.358 . S
C633 H691 0.930 . S
C634 C637 1.348 . S
C634 C638 1.356 . S
C634 O685 1.325 . S
C635 N636 1.279 . S
C635 C638 1.358 . S
C635 H692 0.930 . S
N636 C635 1.279 . S
N636 C639 1.314 . S
C637 C634 1.348 . S
C637 C639 1.353 . S
C637 H693 0.929 . S
C638 C634 1.356 . S
C638 C635 1.358 . S
C638 H694 0.930 . S
C639 N636 1.314 . S
C639 C637 1.353 . S
C639 H695 0.930 . S
C640 N641 1.314 . S
C640 C645 1.353 . S
C640 H646 0.930 . S
N641 Li624 1.990 . S
N641 C640 1.314 . S
N641 C643 1.279 . S
C642 C643 1.358 . S
C642 C644 1.356 . S
C642 H696 0.930 . S
C643 N641 1.279 . S
C643 C642 1.358 . S
C643 H647 0.930 . S
C644 C642 1.356 . S
C644 C645 1.348 . S
C645 C640 1.353 . S
C645 C644 1.348 . S
C645 H697 0.929 . S
H646 C640 0.930 . S
H647 C643 0.930 . S
C648 N649 1.314 . S
C648 C650 1.353 . S
C648 H654 0.930 . S
N649 Li625 1.990 . S
N649 C648 1.314 . S
N649 C652 1.279 . S
C650 C648 1.353 . S
C650 C653 1.348 . S
C650 H698 0.929 . S
C651 C652 1.358 . S
C651 C653 1.356 . S
C651 H699 0.930 . S
C652 N649 1.279 . S
C652 C651 1.358 . S
C652 H655 0.930 . S
C653 C650 1.348 . S
C653 C651 1.356 . S
H654 C648 0.930 . S
H655 C652 0.930 . S
C656 C658 1.348 . S
C656 C659 1.356 . S
C656 O686 1.325 . S
N657 C660 1.314 . S
N657 C661 1.279 . S
C658 C656 1.348 . S
C658 C660 1.353 . S
C658 H700 0.929 . S
C659 C656 1.356 . S
C659 C661 1.358 . S
C659 H701 0.930 . S
C660 N657 1.314 . S
C660 C658 1.353 . S
C660 H702 0.930 . S
C661 N657 1.279 . S
C661 C659 1.358 . S
C661 H703 0.930 . S
C662 C663 1.348 1_554 S
C662 C664 1.356 . S
C662 O687 1.325 . S
C663 C662 1.348 1_556 S
C663 C665 1.353 . S
C663 H704 0.929 . S
C664 C662 1.356 . S
C664 C666 1.358 . S
C664 H705 0.930 . S
C665 C663 1.353 . S
C665 N667 1.314 1_556 S
C665 H706 0.930 . S
C666 C664 1.358 . S
C666 N667 1.279 . S
C666 H707 0.930 . S
N667 C665 1.314 1_554 S
N667 C666 1.279 . S
C668 C670 1.353 . S
C668 N671 1.314 . S
C668 H674 0.930 . S
C669 N671 1.279 . S
C669 C672 1.358 . S
C669 H675 0.930 . S
C670 C668 1.353 . S
C670 C673 1.348 . S
C670 H708 0.929 . S
N671 Li626 1.990 . S
N671 C668 1.314 . S
N671 C669 1.279 . S
C672 C669 1.358 . S
C672 C673 1.356 . S
C672 H709 0.930 . S
C673 C670 1.348 . S
C673 C672 1.356 . S
H674 C668 0.930 . S
H675 C669 0.930 . S
C676 N677 1.314 . S
C676 C678 1.353 . S
C676 H682 0.930 . S
N677 Li627 1.990 . S
N677 C676 1.314 . S
N677 C680 1.279 . S
C678 C676 1.353 . S
C678 C681 1.348 . S
C678 H710 0.929 . S
C679 C680 1.358 . S
C679 C681 1.356 . S
C679 H711 0.930 . S
C680 N677 1.279 . S
C680 C679 1.358 . S
C680 H683 0.930 . S
C681 C678 1.348 . S
C681 C679 1.356 . S
H682 C676 0.930 . S
H683 C680 0.930 . S
O684 Li624 1.956 . S
O684 Li625 1.970 1_556 S
O684 Li626 1.961 . S
O684 C628 1.325 . S
O685 Li624 1.970 1_554 S
O685 Li625 1.956 . S
O685 Li627 1.961 . S
O685 C634 1.325 . S
O686 Li624 1.961 . S
O686 Li626 1.956 . S
O686 Li627 1.970 1_556 S
O686 C656 1.325 . S
O687 Li625 1.961 . S
O687 Li626 1.970 1_554 S
O687 Li627 1.956 . S
O687 C662 1.325 . S
H688 C630 0.929 . S
H689 C631 0.930 . S
H690 C632 0.930 . S
H691 C633 0.930 . S
H692 C635 0.930 . S
H693 C637 0.929 . S
H694 C638 0.930 . S
H695 C639 0.930 . S
H696 C642 0.930 . S
H697 C645 0.929 . S
H698 C650 0.929 . S
H699 C651 0.930 . S
H700 C658 0.929 . S
H701 C659 0.930 . S
H702 C660 0.930 . S
H703 C661 0.930 . S
H704 C663 0.929 . S
H705 C664 0.930 . S
H706 C665 0.930 . S
H707 C666 0.930 . S
H708 C670 0.929 . S
H709 C672 0.930 . S
H710 C678 0.929 . S
H711 C679 0.930 . S
Li712 N729 1.990 . S
Li712 O772 1.956 . S
Li712 O773 1.970 . S
Li712 O774 1.961 . S
Li713 N737 1.990 . S
Li713 O772 1.970 . S
Li713 O773 1.956 . S
Li713 O775 1.961 . S
Li714 N759 1.990 . S
Li714 O772 1.961 . S
Li714 O774 1.956 . S
Li714 O775 1.970 . S
Li715 N765 1.990 . S
Li715 O773 1.961 . S
Li715 O774 1.970 . S
Li715 O775 1.956 . S
C716 C718 1.348 . S
C716 C719 1.356 . S
C716 O772 1.325 . S
N717 C720 1.314 . S
N717 C721 1.279 . S
C718 C716 1.348 . S
C718 C720 1.353 . S
C718 H776 0.929 . S
C719 C716 1.356 . S
C719 C721 1.358 . S
C719 H777 0.930 . S
C720 N717 1.314 . S
C720 C718 1.353 . S
C720 H778 0.930 . S
C721 N717 1.279 . S
C721 C719 1.358 . S
C721 H779 0.930 . S
C722 C725 1.348 . S
C722 C726 1.356 . S
C722 O773 1.325 . S
C723 N724 1.279 . S
C723 C726 1.358 . S
C723 H780 0.930 . S
N724 C723 1.279 . S
N724 C727 1.314 . S
C725 C722 1.348 . S
C725 C727 1.353 . S
C725 H781 0.929 . S
C726 C722 1.356 . S
C726 C723 1.358 . S
C726 H782 0.930 . S
C727 N724 1.314 . S
C727 C725 1.353 . S
C727 H783 0.930 . S
C728 N729 1.314 . S
C728 C733 1.353 . S
C728 H734 0.930 . S
N729 Li712 1.990 . S
N729 C728 1.314 . S
N729 C731 1.279 . S
C730 C731 1.358 . S
C730 C732 1.356 . S
C730 H784 0.930 . S
C731 N729 1.279 . S
C731 C730 1.358 . S
C731 H735 0.930 . S
C732 C730 1.356 . S
C732 C733 1.348 . S
C733 C728 1.353 . S
C733 C732 1.348 . S
C733 H785 0.929 . S
H734 C728 0.930 . S
H735 C731 0.930 . S
C736 N737 1.314 . S
C736 C738 1.353 . S
C736 H742 0.930 . S
N737 Li713 1.990 . S
N737 C736 1.314 . S
N737 C740 1.279 . S
C738 C736 1.353 . S
C738 C741 1.348 . S
C738 H786 0.929 . S
C739 C740 1.358 . S
C739 C741 1.356 . S
C739 H787 0.930 . S
C740 N737 1.279 . S
C740 C739 1.358 . S
C740 H743 0.930 . S
C741 C738 1.348 . S
C741 C739 1.356 . S
H742 C736 0.930 . S
H743 C740 0.930 . S
C744 C746 1.348 . S
C744 C747 1.356 . S
C744 O774 1.325 . S
N745 C748 1.314 . S
N745 C749 1.279 . S
C746 C744 1.348 . S
C746 C748 1.353 . S
C746 H788 0.929 . S
C747 C744 1.356 . S
C747 C749 1.358 . S
C747 H789 0.930 . S
C748 N745 1.314 . S
C748 C746 1.353 . S
C748 H790 0.930 . S
C749 N745 1.279 . S
C749 C747 1.358 . S
C749 H791 0.930 . S
C750 C751 1.348 . S
C750 C752 1.356 . S
C750 O775 1.325 . S
C751 C750 1.348 . S
C751 C753 1.353 . S
C751 H792 0.929 . S
C752 C750 1.356 . S
C752 C754 1.358 . S
C752 H793 0.930 . S
C753 C751 1.353 . S
C753 N755 1.314 . S
C753 H794 0.930 . S
C754 C752 1.358 . S
C754 N755 1.279 . S
C754 H795 0.930 . S
N755 C753 1.314 . S
N755 C754 1.279 . S
C756 C758 1.353 . S
C756 N759 1.314 . S
C756 H762 0.930 . S
C757 N759 1.279 . S
C757 C760 1.358 . S
C757 H763 0.930 . S
C758 C756 1.353 . S
C758 C761 1.348 . S
C758 H796 0.929 . S
N759 Li714 1.990 . S
N759 C756 1.314 . S
N759 C757 1.279 . S
C760 C757 1.358 . S
C760 C761 1.356 . S
C760 H797 0.930 . S
C761 C758 1.348 . S
C761 C760 1.356 . S
H762 C756 0.930 . S
H763 C757 0.930 . S
C764 N765 1.314 . S
C764 C766 1.353 . S
C764 H770 0.930 . S
N765 Li715 1.990 . S
N765 C764 1.314 . S
N765 C768 1.279 . S
C766 C764 1.353 . S
C766 C769 1.348 . S
C766 H798 0.929 . S
C767 C768 1.358 . S
C767 C769 1.356 . S
C767 H799 0.930 . S
C768 N765 1.279 . S
C768 C767 1.358 . S
C768 H771 0.930 . S
C769 C766 1.348 . S
C769 C767 1.356 . S
H770 C764 0.930 . S
H771 C768 0.930 . S
O772 Li712 1.956 . S
O772 Li713 1.970 . S
O772 Li714 1.961 . S
O772 C716 1.325 . S
O773 Li712 1.970 . S
O773 Li713 1.956 . S
O773 Li715 1.961 . S
O773 C722 1.325 . S
O774 Li712 1.961 . S
O774 Li714 1.956 . S
O774 Li715 1.970 . S
O774 C744 1.325 . S
O775 Li713 1.961 . S
O775 Li714 1.970 . S
O775 Li715 1.956 . S
O775 C750 1.325 . S
H776 C718 0.929 . S
H777 C719 0.930 . S
H778 C720 0.930 . S
H779 C721 0.930 . S
H780 C723 0.930 . S
H781 C725 0.929 . S
H782 C726 0.930 . S
H783 C727 0.930 . S
H784 C730 0.930 . S
H785 C733 0.929 . S
H786 C738 0.929 . S
H787 C739 0.930 . S
H788 C746 0.929 . S
H789 C747 0.930 . S
H790 C748 0.930 . S
H791 C749 0.930 . S
H792 C751 0.929 . S
H793 C752 0.930 . S
H794 C753 0.930 . S
H795 C754 0.930 . S
H796 C758 0.929 . S
H797 C760 0.930 . S
H798 C766 0.929 . S
H799 C767 0.930 . S
Li800 N817 1.990 . S
Li800 O860 1.956 . S
Li800 O861 1.970 1_556 S
Li800 O862 1.961 . S
Li801 N825 1.990 . S
Li801 O860 1.970 1_554 S
Li801 O861 1.956 . S
Li801 O863 1.961 . S
Li802 N847 1.990 . S
Li802 O860 1.961 . S
Li802 O862 1.956 . S
Li802 O863 1.970 1_556 S
Li803 N853 1.990 . S
Li803 O861 1.961 . S
Li803 O862 1.970 1_554 S
Li803 O863 1.956 . S
C804 C806 1.348 1_556 S
C804 C807 1.356 . S
C804 O860 1.325 . S
N805 C808 1.314 1_556 S
N805 C809 1.279 . S
C806 C804 1.348 1_554 S
C806 C808 1.353 . S
C806 H864 0.929 . S
C807 C804 1.356 . S
C807 C809 1.358 . S
C807 H865 0.930 . S
C808 N805 1.314 1_554 S
C808 C806 1.353 . S
C808 H866 0.930 . S
C809 N805 1.279 . S
C809 C807 1.358 . S
C809 H867 0.930 . S
C810 C813 1.348 . S
C810 C814 1.356 . S
C810 O861 1.325 . S
C811 N812 1.279 . S
C811 C814 1.358 . S
C811 H868 0.930 . S
N812 C811 1.279 . S
N812 C815 1.314 . S
C813 C810 1.348 . S
C813 C815 1.353 . S
C813 H869 0.929 . S
C814 C810 1.356 . S
C814 C811 1.358 . S
C814 H870 0.930 . S
C815 N812 1.314 . S
C815 C813 1.353 . S
C815 H871 0.930 . S
C816 N817 1.314 . S
C816 C821 1.353 . S
C816 H822 0.930 . S
N817 Li800 1.990 . S
N817 C816 1.314 . S
N817 C819 1.279 . S
C818 C819 1.358 . S
C818 C820 1.356 . S
C818 H872 0.930 . S
C819 N817 1.279 . S
C819 C818 1.358 . S
C819 H823 0.930 . S
C820 C818 1.356 . S
C820 C821 1.348 . S
C821 C816 1.353 . S
C821 C820 1.348 . S
C821 H873 0.929 . S
H822 C816 0.930 . S
H823 C819 0.930 . S
C824 N825 1.314 . S
C824 C826 1.353 . S
C824 H830 0.930 . S
N825 Li801 1.990 . S
N825 C824 1.314 . S
N825 C828 1.279 . S
C826 C824 1.353 . S
C826 C829 1.348 . S
C826 H874 0.929 . S
C827 C828 1.358 . S
C827 C829 1.356 . S
C827 H875 0.930 . S
C828 N825 1.279 . S
C828 C827 1.358 . S
C828 H831 0.930 . S
C829 C826 1.348 . S
C829 C827 1.356 . S
H830 C824 0.930 . S
H831 C828 0.930 . S
C832 C834 1.348 . S
C832 C835 1.356 . S
C832 O862 1.325 . S
N833 C836 1.314 . S
N833 C837 1.279 . S
C834 C832 1.348 . S
C834 C836 1.353 . S
C834 H876 0.929 . S
C835 C832 1.356 . S
C835 C837 1.358 . S
C835 H877 0.930 . S
C836 N833 1.314 . S
C836 C834 1.353 . S
C836 H878 0.930 . S
C837 N833 1.279 . S
C837 C835 1.358 . S
C837 H879 0.930 . S
C838 C839 1.348 1_554 S
C838 C840 1.356 . S
C838 O863 1.325 . S
C839 C838 1.348 1_556 S
C839 C841 1.353 . S
C839 H880 0.929 . S
C840 C838 1.356 . S
C840 C842 1.358 . S
C840 H881 0.930 . S
C841 C839 1.353 . S
C841 N843 1.314 1_556 S
C841 H882 0.930 . S
C842 C840 1.358 . S
C842 N843 1.279 . S
C842 H883 0.930 . S
N843 C841 1.314 1_554 S
N843 C842 1.279 . S
C844 C846 1.353 . S
C844 N847 1.314 . S
C844 H850 0.930 . S
C845 N847 1.279 . S
C845 C848 1.358 . S
C845 H851 0.930 . S
C846 C844 1.353 . S
C846 C849 1.348 . S
C846 H884 0.929 . S
N847 Li802 1.990 . S
N847 C844 1.314 . S
N847 C845 1.279 . S
C848 C845 1.358 . S
C848 C849 1.356 . S
C848 H885 0.930 . S
C849 C846 1.348 . S
C849 C848 1.356 . S
H850 C844 0.930 . S
H851 C845 0.930 . S
C852 N853 1.314 . S
C852 C854 1.353 . S
C852 H858 0.930 . S
N853 Li803 1.990 . S
N853 C852 1.314 . S
N853 C856 1.279 . S
C854 C852 1.353 . S
C854 C857 1.348 . S
C854 H886 0.929 . S
C855 C856 1.358 . S
C855 C857 1.356 . S
C855 H887 0.930 . S
C856 N853 1.279 . S
C856 C855 1.358 . S
C856 H859 0.930 . S
C857 C854 1.348 . S
C857 C855 1.356 . S
H858 C852 0.930 . S
H859 C856 0.930 . S
O860 Li800 1.956 . S
O860 Li801 1.970 1_556 S
O860 Li802 1.961 . S
O860 C804 1.325 . S
O861 Li800 1.970 1_554 S
O861 Li801 1.956 . S
O861 Li803 1.961 . S
O861 C810 1.325 . S
O862 Li800 1.961 . S
O862 Li802 1.956 . S
O862 Li803 1.970 1_556 S
O862 C832 1.325 . S
O863 Li801 1.961 . S
O863 Li802 1.970 1_554 S
O863 Li803 1.956 . S
O863 C838 1.325 . S
H864 C806 0.929 . S
H865 C807 0.930 . S
H866 C808 0.930 . S
H867 C809 0.930 . S
H868 C811 0.930 . S
H869 C813 0.929 . S
H870 C814 0.930 . S
H871 C815 0.930 . S
H872 C818 0.930 . S
H873 C821 0.929 . S
H874 C826 0.929 . S
H875 C827 0.930 . S
H876 C834 0.929 . S
H877 C835 0.930 . S
H878 C836 0.930 . S
H879 C837 0.930 . S
H880 C839 0.929 . S
H881 C840 0.930 . S
H882 C841 0.930 . S
H883 C842 0.930 . S
H884 C846 0.929 . S
H885 C848 0.930 . S
H886 C854 0.929 . S
H887 C855 0.930 . S
Li888 N905 1.990 . S
Li888 O948 1.956 . S
Li888 O949 1.924 1_545 S
Li888 O950 1.961 . S
Li889 N913 1.990 . S
Li889 O948 1.970 1_565 S
Li889 O949 1.958 . S
Li889 O951 1.961 . S
Li890 N935 1.990 . S
Li890 O948 1.961 . S
Li890 O950 1.956 . S
Li890 O951 1.970 1_545 S
Li891 N941 1.990 . S
Li891 O949 1.997 . S
Li891 O950 1.970 1_565 S
Li891 O951 1.956 . S
C892 C894 1.348 . S
C892 C895 1.356 . S
C892 O948 1.325 . S
N893 C896 1.314 . S
N893 C897 1.279 . S
C894 C892 1.348 . S
C894 C896 1.353 . S
C894 H952 0.929 . S
C895 C892 1.356 . S
C895 C897 1.358 . S
C895 H953 0.930 . S
C896 N893 1.314 . S
C896 C894 1.353 . S
C896 H954 0.930 . S
C897 N893 1.279 . S
C897 C895 1.358 . S
C897 H955 0.930 . S
C898 C901 1.348 1_565 S
C898 C902 1.356 . S
C898 O949 1.334 . S
C899 N900 1.279 . S
C899 C902 1.358 . S
C899 H956 0.930 . S
N900 C899 1.279 . S
N900 C903 1.314 1_565 S
C901 C898 1.348 1_545 S
C901 C903 1.353 . S
C901 H957 0.929 . S
C902 C898 1.356 . S
C902 C899 1.358 . S
C902 H958 0.930 . S
C903 N900 1.314 1_545 S
C903 C901 1.353 . S
C903 H959 0.930 . S
C904 N905 1.314 . S
C904 C909 1.353 . S
C904 H910 0.930 . S
N905 Li888 1.990 . S
N905 C904 1.314 . S
N905 C907 1.279 . S
C906 C907 1.358 . S
C906 C908 1.356 . S
C906 H960 0.930 . S
C907 N905 1.279 . S
C907 C906 1.358 . S
C907 H911 0.930 . S
C908 C906 1.356 . S
C908 C909 1.348 . S
C909 C904 1.353 . S
C909 C908 1.348 . S
C909 H961 0.929 . S
H910 C904 0.930 . S
H911 C907 0.930 . S
C912 N913 1.314 . S
C912 C914 1.353 . S
C912 H918 0.930 . S
N913 Li889 1.990 . S
N913 C912 1.314 . S
N913 C916 1.279 . S
C914 C912 1.353 . S
C914 C917 1.348 . S
C914 H962 0.929 . S
C915 C916 1.358 . S
C915 C917 1.356 . S
C915 H963 0.930 . S
C916 N913 1.279 . S
C916 C915 1.358 . S
C916 H919 0.930 . S
C917 C914 1.348 . S
C917 C915 1.356 . S
H918 C912 0.930 . S
H919 C916 0.930 . S
C920 C922 1.348 1_545 S
C920 C923 1.356 . S
C920 O950 1.325 . S
N921 C924 1.314 1_545 S
N921 C925 1.279 . S
C922 C920 1.348 1_565 S
C922 C924 1.353 . S
C922 H964 0.929 . S
C923 C920 1.356 . S
C923 C925 1.358 . S
C923 H965 0.930 . S
C924 N921 1.314 1_565 S
C924 C922 1.353 . S
C924 H966 0.930 . S
C925 N921 1.279 . S
C925 C923 1.358 . S
C925 H967 0.930 . S
C926 C927 1.348 . S
C926 C928 1.356 . S
C926 O951 1.325 . S
C927 C926 1.348 . S
C927 C929 1.353 . S
C927 H968 0.929 . S
C928 C926 1.356 . S
C928 C930 1.358 . S
C928 H969 0.930 . S
C929 C927 1.353 . S
C929 N931 1.314 . S
C929 H970 0.930 . S
C930 C928 1.358 . S
C930 N931 1.279 . S
C930 H971 0.930 . S
N931 C929 1.314 . S
N931 C930 1.279 . S
C932 C934 1.353 . S
C932 N935 1.314 . S
C932 H938 0.930 . S
C933 N935 1.279 . S
C933 C936 1.358 . S
C933 H939 0.930 . S
C934 C932 1.353 . S
C934 C937 1.348 . S
C934 H972 0.929 . S
N935 Li890 1.990 . S
N935 C932 1.314 . S
N935 C933 1.279 . S
C936 C933 1.358 . S
C936 C937 1.356 . S
C936 H973 0.930 . S
C937 C934 1.348 . S
C937 C936 1.356 . S
H938 C932 0.930 . S
H939 C933 0.930 . S
C940 N941 1.314 . S
C940 C942 1.353 . S
C940 H946 0.930 . S
N941 Li891 1.990 . S
N941 C940 1.314 . S
N941 C944 1.279 . S
C942 C940 1.353 . S
C942 C945 1.348 . S
C942 H974 0.929 . S
C943 C944 1.358 . S
C943 C945 1.356 . S
C943 H975 0.930 . S
C944 N941 1.279 . S
C944 C943 1.358 . S
C944 H947 0.930 . S
C945 C942 1.348 . S
C945 C943 1.356 . S
H946 C940 0.930 . S
H947 C944 0.930 . S
O948 Li888 1.956 . S
O948 Li889 1.970 1_545 S
O948 Li890 1.961 . S
O948 C892 1.325 . S
O949 Li888 1.924 1_565 S
O949 Li889 1.958 . S
O949 Li891 1.997 . S
O949 C898 1.334 . S
O950 Li888 1.961 . S
O950 Li890 1.956 . S
O950 Li891 1.970 1_545 S
O950 C920 1.325 . S
O951 Li889 1.961 . S
O951 Li890 1.970 1_565 S
O951 Li891 1.956 . S
O951 C926 1.325 . S
H952 C894 0.929 . S
H953 C895 0.930 . S
H954 C896 0.930 . S
H955 C897 0.930 . S
H956 C899 0.930 . S
H957 C901 0.929 . S
H958 C902 0.930 . S
H959 C903 0.930 . S
H960 C906 0.930 . S
H961 C909 0.929 . S
H962 C914 0.929 . S
H963 C915 0.930 . S
H964 C922 0.929 . S
H965 C923 0.930 . S
H966 C924 0.930 . S
H967 C925 0.930 . S
H968 C927 0.929 . S
H969 C928 0.930 . S
H970 C929 0.930 . S
H971 C930 0.930 . S
H972 C934 0.929 . S
H973 C936 0.930 . S
H974 C942 0.929 . S
H975 C943 0.930 . S
Li976 N993 1.990 . S
Li976 O1036 1.956 . S
Li976 O1037 1.970 . S
Li976 O1038 1.961 . S
Li977 N1001 1.990 . S
Li977 O1036 1.970 . S
Li977 O1037 1.956 . S
Li977 O1039 1.961 . S
Li978 N1023 1.990 . S
Li978 O1036 1.961 . S
Li978 O1038 1.956 . S
Li978 O1039 1.970 . S
Li979 N1029 1.990 . S
Li979 O1037 1.961 . S
Li979 O1038 1.970 . S
Li979 O1039 1.956 . S
C980 C982 1.348 . S
C980 C983 1.356 . S
C980 O1036 1.325 . S
N981 C984 1.314 . S
N981 C985 1.279 . S
C982 C980 1.348 . S
C982 C984 1.353 . S
C982 H1040 0.929 . S
C983 C980 1.356 . S
C983 C985 1.358 . S
C983 H1041 0.930 . S
C984 N981 1.314 . S
C984 C982 1.353 . S
C984 H1042 0.930 . S
C985 N981 1.279 . S
C985 C983 1.358 . S
C985 H1043 0.930 . S
C986 C989 1.348 . S
C986 C990 1.356 . S
C986 O1037 1.325 . S
C987 N988 1.279 . S
C987 C990 1.358 . S
C987 H1044 0.930 . S
N988 C987 1.279 . S
N988 C991 1.314 . S
C989 C986 1.348 . S
C989 C991 1.353 . S
C989 H1045 0.929 . S
C990 C986 1.356 . S
C990 C987 1.358 . S
C990 H1046 0.930 . S
C991 N988 1.314 . S
C991 C989 1.353 . S
C991 H1047 0.930 . S
C992 N993 1.314 . S
C992 C997 1.353 . S
C992 H998 0.930 . S
N993 Li976 1.990 . S
N993 C992 1.314 . S
N993 C995 1.279 . S
C994 C995 1.358 . S
C994 C996 1.356 . S
C994 H1048 0.930 . S
C995 N993 1.279 . S
C995 C994 1.358 . S
C995 H999 0.930 . S
C996 C994 1.356 . S
C996 C997 1.348 . S
C997 C992 1.353 . S
C997 C996 1.348 . S
C997 H1049 0.929 . S
H998 C992 0.930 . S
H999 C995 0.930 . S
C1000 N1001 1.314 . S
C1000 C1002 1.353 . S
C1000 H1006 0.930 . S
N1001 Li977 1.990 . S
N1001 C1000 1.314 . S
N1001 C1004 1.279 . S
C1002 C1000 1.353 . S
C1002 C1005 1.348 . S
C1002 H1050 0.929 . S
C1003 C1004 1.358 . S
C1003 C1005 1.356 . S
C1003 H1051 0.930 . S
C1004 N1001 1.279 . S
C1004 C1003 1.358 . S
C1004 H1007 0.930 . S
C1005 C1002 1.348 . S
C1005 C1003 1.356 . S
H1006 C1000 0.930 . S
H1007 C1004 0.930 . S
C1008 C1010 1.348 . S
C1008 C1011 1.356 . S
C1008 O1038 1.325 . S
N1009 C1012 1.314 . S
N1009 C1013 1.279 . S
C1010 C1008 1.348 . S
C1010 C1012 1.353 . S
C1010 H1052 0.929 . S
C1011 C1008 1.356 . S
C1011 C1013 1.358 . S
C1011 H1053 0.930 . S
C1012 N1009 1.314 . S
C1012 C1010 1.353 . S
C1012 H1054 0.930 . S
C1013 N1009 1.279 . S
C1013 C1011 1.358 . S
C1013 H1055 0.930 . S
C1014 C1015 1.348 . S
C1014 C1016 1.356 . S
C1014 O1039 1.325 . S
C1015 C1014 1.348 . S
C1015 C1017 1.353 . S
C1015 H1056 0.929 . S
C1016 C1014 1.356 . S
C1016 C1018 1.358 . S
C1016 H1057 0.930 . S
C1017 C1015 1.353 . S
C1017 N1019 1.314 . S
C1017 H1058 0.930 . S
C1018 C1016 1.358 . S
C1018 N1019 1.279 . S
C1018 H1059 0.930 . S
N1019 C1017 1.314 . S
N1019 C1018 1.279 . S
C1020 C1022 1.353 . S
C1020 N1023 1.314 . S
C1020 H1026 0.930 . S
C1021 N1023 1.279 . S
C1021 C1024 1.358 . S
C1021 H1027 0.930 . S
C1022 C1020 1.353 . S
C1022 C1025 1.348 . S
C1022 H1060 0.929 . S
N1023 Li978 1.990 . S
N1023 C1020 1.314 . S
N1023 C1021 1.279 . S
C1024 C1021 1.358 . S
C1024 C1025 1.356 . S
C1024 H1061 0.930 . S
C1025 C1022 1.348 . S
C1025 C1024 1.356 . S
H1026 C1020 0.930 . S
H1027 C1021 0.930 . S
C1028 N1029 1.314 . S
C1028 C1030 1.353 . S
C1028 H1034 0.930 . S
N1029 Li979 1.990 . S
N1029 C1028 1.314 . S
N1029 C1032 1.279 . S
C1030 C1028 1.353 . S
C1030 C1033 1.348 . S
C1030 H1062 0.929 . S
C1031 C1032 1.358 . S
C1031 C1033 1.356 . S
C1031 H1063 0.930 . S
C1032 N1029 1.279 . S
C1032 C1031 1.358 . S
C1032 H1035 0.930 . S
C1033 C1030 1.348 . S
C1033 C1031 1.356 . S
H1034 C1028 0.930 . S
H1035 C1032 0.930 . S
O1036 Li976 1.956 . S
O1036 Li977 1.970 . S
O1036 Li978 1.961 . S
O1036 C980 1.325 . S
O1037 Li976 1.970 . S
O1037 Li977 1.956 . S
O1037 Li979 1.961 . S
O1037 C986 1.325 . S
O1038 Li976 1.961 . S
O1038 Li978 1.956 . S
O1038 Li979 1.970 . S
O1038 C1008 1.325 . S
O1039 Li977 1.961 . S
O1039 Li978 1.970 . S
O1039 Li979 1.956 . S
O1039 C1014 1.325 . S
H1040 C982 0.929 . S
H1041 C983 0.930 . S
H1042 C984 0.930 . S
H1043 C985 0.930 . S
H1044 C987 0.930 . S
H1045 C989 0.929 . S
H1046 C990 0.930 . S
H1047 C991 0.930 . S
H1048 C994 0.930 . S
H1049 C997 0.929 . S
H1050 C1002 0.929 . S
H1051 C1003 0.930 . S
H1052 C1010 0.929 . S
H1053 C1011 0.930 . S
H1054 C1012 0.930 . S
H1055 C1013 0.930 . S
H1056 C1015 0.929 . S
H1057 C1016 0.930 . S
H1058 C1017 0.930 . S
H1059 C1018 0.930 . S
H1060 C1022 0.929 . S
H1061 C1024 0.930 . S
H1062 C1030 0.929 . S
H1063 C1031 0.930 . S
Li1064 N1081 1.990 . S
Li1064 O1124 1.956 . S
Li1064 O1125 1.970 . S
Li1064 O1126 1.961 . S
Li1065 N1089 1.990 . S
Li1065 O1124 1.970 . S
Li1065 O1125 1.956 . S
Li1065 O1127 1.961 . S
Li1066 N1111 1.990 . S
Li1066 O1124 1.961 . S
Li1066 O1126 1.956 . S
Li1066 O1127 1.970 . S
Li1067 N1117 1.990 . S
Li1067 O1125 1.961 . S
Li1067 O1126 1.970 . S
Li1067 O1127 1.956 . S
C1068 C1070 1.348 . S
C1068 C1071 1.356 . S
C1068 O1124 1.325 . S
N1069 C1072 1.314 . S
N1069 C1073 1.279 . S
C1070 C1068 1.348 . S
C1070 C1072 1.353 . S
C1070 H1128 0.929 . S
C1071 C1068 1.356 . S
C1071 C1073 1.358 . S
C1071 H1129 0.930 . S
C1072 N1069 1.314 . S
C1072 C1070 1.353 . S
C1072 H1130 0.930 . S
C1073 N1069 1.279 . S
C1073 C1071 1.358 . S
C1073 H1131 0.930 . S
C1074 C1077 1.348 . S
C1074 C1078 1.356 . S
C1074 O1125 1.325 . S
C1075 N1076 1.279 . S
C1075 C1078 1.358 . S
C1075 H1132 0.930 . S
N1076 C1075 1.279 . S
N1076 C1079 1.314 . S
C1077 C1074 1.348 . S
C1077 C1079 1.353 . S
C1077 H1133 0.929 . S
C1078 C1074 1.356 . S
C1078 C1075 1.358 . S
C1078 H1134 0.930 . S
C1079 N1076 1.314 . S
C1079 C1077 1.353 . S
C1079 H1135 0.930 . S
C1080 N1081 1.314 . S
C1080 C1085 1.353 . S
C1080 H1086 0.930 . S
N1081 Li1064 1.990 . S
N1081 C1080 1.314 . S
N1081 C1083 1.279 . S
C1082 C1083 1.358 . S
C1082 C1084 1.356 . S
C1082 H1136 0.930 . S
C1083 N1081 1.279 . S
C1083 C1082 1.358 . S
C1083 H1087 0.930 . S
C1084 C1082 1.356 . S
C1084 C1085 1.348 . S
C1085 C1080 1.353 . S
C1085 C1084 1.348 . S
C1085 H1137 0.929 . S
H1086 C1080 0.930 . S
H1087 C1083 0.930 . S
C1088 N1089 1.314 . S
C1088 C1090 1.353 . S
C1088 H1094 0.930 . S
N1089 Li1065 1.990 . S
N1089 C1088 1.314 . S
N1089 C1092 1.279 . S
C1090 C1088 1.353 . S
C1090 C1093 1.348 . S
C1090 H1138 0.929 . S
C1091 C1092 1.358 . S
C1091 C1093 1.356 . S
C1091 H1139 0.930 . S
C1092 N1089 1.279 . S
C1092 C1091 1.358 . S
C1092 H1095 0.930 . S
C1093 C1090 1.348 . S
C1093 C1091 1.356 . S
H1094 C1088 0.930 . S
H1095 C1092 0.930 . S
C1096 C1098 1.348 . S
C1096 C1099 1.356 . S
C1096 O1126 1.325 . S
N1097 C1100 1.314 . S
N1097 C1101 1.279 . S
C1098 C1096 1.348 . S
C1098 C1100 1.353 . S
C1098 H1140 0.929 . S
C1099 C1096 1.356 . S
C1099 C1101 1.358 . S
C1099 H1141 0.930 . S
C1100 N1097 1.314 . S
C1100 C1098 1.353 . S
C1100 H1142 0.930 . S
C1101 N1097 1.279 . S
C1101 C1099 1.358 . S
C1101 H1143 0.930 . S
C1102 C1103 1.348 . S
C1102 C1104 1.356 . S
C1102 O1127 1.325 . S
C1103 C1102 1.348 . S
C1103 C1105 1.353 . S
C1103 H1144 0.929 . S
C1104 C1102 1.356 . S
C1104 C1106 1.358 . S
C1104 H1145 0.930 . S
C1105 C1103 1.353 . S
C1105 N1107 1.314 . S
C1105 H1146 0.930 . S
C1106 C1104 1.358 . S
C1106 N1107 1.279 . S
C1106 H1147 0.930 . S
N1107 C1105 1.314 . S
N1107 C1106 1.279 . S
C1108 C1110 1.353 . S
C1108 N1111 1.314 . S
C1108 H1114 0.930 . S
C1109 N1111 1.279 . S
C1109 C1112 1.358 . S
C1109 H1115 0.930 . S
C1110 C1108 1.353 . S
C1110 C1113 1.348 . S
C1110 H1148 0.929 . S
N1111 Li1066 1.990 . S
N1111 C1108 1.314 . S
N1111 C1109 1.279 . S
C1112 C1109 1.358 . S
C1112 C1113 1.356 . S
C1112 H1149 0.930 . S
C1113 C1110 1.348 . S
C1113 C1112 1.356 . S
H1114 C1108 0.930 . S
H1115 C1109 0.930 . S
C1116 N1117 1.314 . S
C1116 C1118 1.353 . S
C1116 H1122 0.930 . S
N1117 Li1067 1.990 . S
N1117 C1116 1.314 . S
N1117 C1120 1.279 . S
C1118 C1116 1.353 . S
C1118 C1121 1.348 . S
C1118 H1150 0.929 . S
C1119 C1120 1.358 . S
C1119 C1121 1.356 . S
C1119 H1151 0.930 . S
C1120 N1117 1.279 . S
C1120 C1119 1.358 . S
C1120 H1123 0.930 . S
C1121 C1118 1.348 . S
C1121 C1119 1.356 . S
H1122 C1116 0.930 . S
H1123 C1120 0.930 . S
O1124 Li1064 1.956 . S
O1124 Li1065 1.970 . S
O1124 Li1066 1.961 . S
O1124 C1068 1.325 . S
O1125 Li1064 1.970 . S
O1125 Li1065 1.956 . S
O1125 Li1067 1.961 . S
O1125 C1074 1.325 . S
O1126 Li1064 1.961 . S
O1126 Li1066 1.956 . S
O1126 Li1067 1.970 . S
O1126 C1096 1.325 . S
O1127 Li1065 1.961 . S
O1127 Li1066 1.970 . S
O1127 Li1067 1.956 . S
O1127 C1102 1.325 . S
H1128 C1070 0.929 . S
H1129 C1071 0.930 . S
H1130 C1072 0.930 . S
H1131 C1073 0.930 . S
H1132 C1075 0.930 . S
H1133 C1077 0.929 . S
H1134 C1078 0.930 . S
H1135 C1079 0.930 . S
H1136 C1082 0.930 . S
H1137 C1085 0.929 . S
H1138 C1090 0.929 . S
H1139 C1091 0.930 . S
H1140 C1098 0.929 . S
H1141 C1099 0.930 . S
H1142 C1100 0.930 . S
H1143 C1101 0.930 . S
H1144 C1103 0.929 . S
H1145 C1104 0.930 . S
H1146 C1105 0.930 . S
H1147 C1106 0.930 . S
H1148 C1110 0.929 . S
H1149 C1112 0.930 . S
H1150 C1118 0.929 . S
H1151 C1119 0.930 . S
Li1152 N1169 1.990 . S
Li1152 O1212 1.956 . S
Li1152 O1213 1.970 . S
Li1152 O1214 1.961 . S
Li1153 N1177 1.990 . S
Li1153 O1212 1.970 . S
Li1153 O1213 1.956 . S
Li1153 O1215 1.961 . S
Li1154 N1199 1.990 . S
Li1154 O1212 1.961 . S
Li1154 O1214 1.956 . S
Li1154 O1215 1.970 . S
Li1155 N1205 1.990 . S
Li1155 O1213 1.961 . S
Li1155 O1214 1.970 . S
Li1155 O1215 1.956 . S
C1156 C1158 1.348 . S
C1156 C1159 1.356 . S
C1156 O1212 1.325 . S
N1157 C1160 1.314 . S
N1157 C1161 1.279 . S
C1158 C1156 1.348 . S
C1158 C1160 1.353 . S
C1158 H1216 0.929 . S
C1159 C1156 1.356 . S
C1159 C1161 1.358 . S
C1159 H1217 0.930 . S
C1160 N1157 1.314 . S
C1160 C1158 1.353 . S
C1160 H1218 0.930 . S
C1161 N1157 1.279 . S
C1161 C1159 1.358 . S
C1161 H1219 0.930 . S
C1162 C1165 1.348 . S
C1162 C1166 1.356 . S
C1162 O1213 1.325 . S
C1163 N1164 1.279 . S
C1163 C1166 1.358 . S
C1163 H1220 0.930 . S
N1164 C1163 1.279 . S
N1164 C1167 1.314 . S
C1165 C1162 1.348 . S
C1165 C1167 1.353 . S
C1165 H1221 0.929 . S
C1166 C1162 1.356 . S
C1166 C1163 1.358 . S
C1166 H1222 0.930 . S
C1167 N1164 1.314 . S
C1167 C1165 1.353 . S
C1167 H1223 0.930 . S
C1168 N1169 1.314 . S
C1168 C1173 1.353 . S
C1168 H1174 0.930 . S
N1169 Li1152 1.990 . S
N1169 C1168 1.314 . S
N1169 C1171 1.279 . S
C1170 C1171 1.358 . S
C1170 C1172 1.356 . S
C1170 H1224 0.930 . S
C1171 N1169 1.279 . S
C1171 C1170 1.358 . S
C1171 H1175 0.930 . S
C1172 C1170 1.356 . S
C1172 C1173 1.348 . S
C1173 C1168 1.353 . S
C1173 C1172 1.348 . S
C1173 H1225 0.929 . S
H1174 C1168 0.930 . S
H1175 C1171 0.930 . S
C1176 N1177 1.314 . S
C1176 C1178 1.353 . S
C1176 H1182 0.930 . S
N1177 Li1153 1.990 . S
N1177 C1176 1.314 . S
N1177 C1180 1.279 . S
C1178 C1176 1.353 . S
C1178 C1181 1.348 . S
C1178 H1226 0.929 . S
C1179 C1180 1.358 . S
C1179 C1181 1.356 . S
C1179 H1227 0.930 . S
C1180 N1177 1.279 . S
C1180 C1179 1.358 . S
C1180 H1183 0.930 . S
C1181 C1178 1.348 . S
C1181 C1179 1.356 . S
H1182 C1176 0.930 . S
H1183 C1180 0.930 . S
C1184 C1186 1.348 . S
C1184 C1187 1.356 . S
C1184 O1214 1.325 . S
N1185 C1188 1.314 . S
N1185 C1189 1.279 . S
C1186 C1184 1.348 . S
C1186 C1188 1.353 . S
C1186 H1228 0.929 . S
C1187 C1184 1.356 . S
C1187 C1189 1.358 . S
C1187 H1229 0.930 . S
C1188 N1185 1.314 . S
C1188 C1186 1.353 . S
C1188 H1230 0.930 . S
C1189 N1185 1.279 . S
C1189 C1187 1.358 . S
C1189 H1231 0.930 . S
C1190 C1191 1.348 . S
C1190 C1192 1.356 . S
C1190 O1215 1.325 . S
C1191 C1190 1.348 . S
C1191 C1193 1.353 . S
C1191 H1232 0.929 . S
C1192 C1190 1.356 . S
C1192 C1194 1.358 . S
C1192 H1233 0.930 . S
C1193 C1191 1.353 . S
C1193 N1195 1.314 . S
C1193 H1234 0.930 . S
C1194 C1192 1.358 . S
C1194 N1195 1.279 . S
C1194 H1235 0.930 . S
N1195 C1193 1.314 . S
N1195 C1194 1.279 . S
C1196 C1198 1.353 . S
C1196 N1199 1.314 . S
C1196 H1202 0.930 . S
C1197 N1199 1.279 . S
C1197 C1200 1.358 . S
C1197 H1203 0.930 . S
C1198 C1196 1.353 . S
C1198 C1201 1.348 . S
C1198 H1236 0.929 . S
N1199 Li1154 1.990 . S
N1199 C1196 1.314 . S
N1199 C1197 1.279 . S
C1200 C1197 1.358 . S
C1200 C1201 1.356 . S
C1200 H1237 0.930 . S
C1201 C1198 1.348 . S
C1201 C1200 1.356 . S
H1202 C1196 0.930 . S
H1203 C1197 0.930 . S
C1204 N1205 1.314 . S
C1204 C1206 1.353 . S
C1204 H1210 0.930 . S
N1205 Li1155 1.990 . S
N1205 C1204 1.314 . S
N1205 C1208 1.279 . S
C1206 C1204 1.353 . S
C1206 C1209 1.348 . S
C1206 H1238 0.929 . S
C1207 C1208 1.358 . S
C1207 C1209 1.356 . S
C1207 H1239 0.930 . S
C1208 N1205 1.279 . S
C1208 C1207 1.358 . S
C1208 H1211 0.930 . S
C1209 C1206 1.348 . S
C1209 C1207 1.356 . S
H1210 C1204 0.930 . S
H1211 C1208 0.930 . S
O1212 Li1152 1.956 . S
O1212 Li1153 1.970 . S
O1212 Li1154 1.961 . S
O1212 C1156 1.325 . S
O1213 Li1152 1.970 . S
O1213 Li1153 1.956 . S
O1213 Li1155 1.961 . S
O1213 C1162 1.325 . S
O1214 Li1152 1.961 . S
O1214 Li1154 1.956 . S
O1214 Li1155 1.970 . S
O1214 C1184 1.325 . S
O1215 Li1153 1.961 . S
O1215 Li1154 1.970 . S
O1215 Li1155 1.956 . S
O1215 C1190 1.325 . S
H1216 C1158 0.929 . S
H1217 C1159 0.930 . S
H1218 C1160 0.930 . S
H1219 C1161 0.930 . S
H1220 C1163 0.930 . S
H1221 C1165 0.929 . S
H1222 C1166 0.930 . S
H1223 C1167 0.930 . S
H1224 C1170 0.930 . S
H1225 C1173 0.929 . S
H1226 C1178 0.929 . S
H1227 C1179 0.930 . S
H1228 C1186 0.929 . S
H1229 C1187 0.930 . S
H1230 C1188 0.930 . S
H1231 C1189 0.930 . S
H1232 C1191 0.929 . S
H1233 C1192 0.930 . S
H1234 C1193 0.930 . S
H1235 C1194 0.930 . S
H1236 C1198 0.929 . S
H1237 C1200 0.930 . S
H1238 C1206 0.929 . S
H1239 C1207 0.930 . S
Li1240 N1257 1.990 . S
Li1240 O1300 1.956 . S
Li1240 O1301 1.970 1_565 S
Li1240 O1302 1.961 . S
Li1241 N1265 1.990 . S
Li1241 O1300 1.970 1_545 S
Li1241 O1301 1.956 . S
Li1241 O1303 1.961 . S
Li1242 N1287 1.990 . S
Li1242 O1300 1.961 . S
Li1242 O1302 1.956 . S
Li1242 O1303 1.970 1_565 S
Li1243 N1293 1.990 . S
Li1243 O1301 1.961 . S
Li1243 O1302 1.970 1_545 S
Li1243 O1303 1.956 . S
C1244 C1246 1.348 . S
C1244 C1247 1.356 . S
C1244 O1300 1.325 . S
N1245 C1248 1.314 . S
N1245 C1249 1.279 . S
C1246 C1244 1.348 . S
C1246 C1248 1.353 . S
C1246 H1304 0.929 . S
C1247 C1244 1.356 . S
C1247 C1249 1.358 . S
C1247 H1305 0.930 . S
C1248 N1245 1.314 . S
C1248 C1246 1.353 . S
C1248 H1306 0.930 . S
C1249 N1245 1.279 . S
C1249 C1247 1.358 . S
C1249 H1307 0.930 . S
C1250 C1253 1.348 1_545 S
C1250 C1254 1.356 . S
C1250 O1301 1.325 . S
C1251 N1252 1.279 . S
C1251 C1254 1.358 . S
C1251 H1308 0.930 . S
N1252 C1251 1.279 . S
N1252 C1255 1.314 1_545 S
C1253 C1250 1.348 1_565 S
C1253 C1255 1.353 . S
C1253 H1309 0.929 . S
C1254 C1250 1.356 . S
C1254 C1251 1.358 . S
C1254 H1310 0.930 . S
C1255 N1252 1.314 1_565 S
C1255 C1253 1.353 . S
C1255 H1311 0.930 . S
C1256 N1257 1.314 . S
C1256 C1261 1.353 . S
C1256 H1262 0.930 . S
N1257 Li1240 1.990 . S
N1257 C1256 1.314 . S
N1257 C1259 1.279 . S
C1258 C1259 1.358 . S
C1258 C1260 1.356 . S
C1258 H1312 0.930 . S
C1259 N1257 1.279 . S
C1259 C1258 1.358 . S
C1259 H1263 0.930 . S
C1260 C1258 1.356 . S
C1260 C1261 1.348 . S
C1261 C1256 1.353 . S
C1261 C1260 1.348 . S
C1261 H1313 0.929 . S
H1262 C1256 0.930 . S
H1263 C1259 0.930 . S
C1264 N1265 1.314 . S
C1264 C1266 1.353 . S
C1264 H1270 0.930 . S
N1265 Li1241 1.990 . S
N1265 C1264 1.314 . S
N1265 C1268 1.279 . S
C1266 C1264 1.353 . S
C1266 C1269 1.348 . S
C1266 H1314 0.929 . S
C1267 C1268 1.358 . S
C1267 C1269 1.356 . S
C1267 H1315 0.930 . S
C1268 N1265 1.279 . S
C1268 C1267 1.358 . S
C1268 H1271 0.930 . S
C1269 C1266 1.348 . S
C1269 C1267 1.356 . S
H1270 C1264 0.930 . S
H1271 C1268 0.930 . S
C1272 C1274 1.348 1_565 S
C1272 C1275 1.356 . S
C1272 O1302 1.325 . S
N1273 C1276 1.314 1_565 S
N1273 C1277 1.279 . S
C1274 C1272 1.348 1_545 S
C1274 C1276 1.353 . S
C1274 H1316 0.929 . S
C1275 C1272 1.356 . S
C1275 C1277 1.358 . S
C1275 H1317 0.930 . S
C1276 N1273 1.314 1_545 S
C1276 C1274 1.353 . S
C1276 H1318 0.930 . S
C1277 N1273 1.279 . S
C1277 C1275 1.358 . S
C1277 H1319 0.930 . S
C1278 C1279 1.348 . S
C1278 C1280 1.356 . S
C1278 O1303 1.325 . S
C1279 C1278 1.348 . S
C1279 C1281 1.353 . S
C1279 H1320 0.929 . S
C1280 C1278 1.356 . S
C1280 C1282 1.358 . S
C1280 H1321 0.930 . S
C1281 C1279 1.353 . S
C1281 N1283 1.314 . S
C1281 H1322 0.930 . S
C1282 C1280 1.358 . S
C1282 N1283 1.279 . S
C1282 H1323 0.930 . S
N1283 C1281 1.314 . S
N1283 C1282 1.279 . S
C1284 C1286 1.353 . S
C1284 N1287 1.314 . S
C1284 H1290 0.930 . S
C1285 N1287 1.279 . S
C1285 C1288 1.358 . S
C1285 H1291 0.930 . S
C1286 C1284 1.353 . S
C1286 C1289 1.348 . S
C1286 H1324 0.929 . S
N1287 Li1242 1.990 . S
N1287 C1284 1.314 . S
N1287 C1285 1.279 . S
C1288 C1285 1.358 . S
C1288 C1289 1.356 . S
C1288 H1325 0.930 . S
C1289 C1286 1.348 . S
C1289 C1288 1.356 . S
H1290 C1284 0.930 . S
H1291 C1285 0.930 . S
C1292 N1293 1.314 . S
C1292 C1294 1.353 . S
C1292 H1298 0.930 . S
N1293 Li1243 1.990 . S
N1293 C1292 1.314 . S
N1293 C1296 1.279 . S
C1294 C1292 1.353 . S
C1294 C1297 1.348 . S
C1294 H1326 0.929 . S
C1295 C1296 1.358 . S
C1295 C1297 1.356 . S
C1295 H1327 0.930 . S
C1296 N1293 1.279 . S
C1296 C1295 1.358 . S
C1296 H1299 0.930 . S
C1297 C1294 1.348 . S
C1297 C1295 1.356 . S
H1298 C1292 0.930 . S
H1299 C1296 0.930 . S
O1300 Li1240 1.956 . S
O1300 Li1241 1.970 1_565 S
O1300 Li1242 1.961 . S
O1300 C1244 1.325 . S
O1301 Li1240 1.970 1_545 S
O1301 Li1241 1.956 . S
O1301 Li1243 1.961 . S
O1301 C1250 1.325 . S
O1302 Li1240 1.961 . S
O1302 Li1242 1.956 . S
O1302 Li1243 1.970 1_565 S
O1302 C1272 1.325 . S
O1303 Li1241 1.961 . S
O1303 Li1242 1.970 1_545 S
O1303 Li1243 1.956 . S
O1303 C1278 1.325 . S
H1304 C1246 0.929 . S
H1305 C1247 0.930 . S
H1306 C1248 0.930 . S
H1307 C1249 0.930 . S
H1308 C1251 0.930 . S
H1309 C1253 0.929 . S
H1310 C1254 0.930 . S
H1311 C1255 0.930 . S
H1312 C1258 0.930 . S
H1313 C1261 0.929 . S
H1314 C1266 0.929 . S
H1315 C1267 0.930 . S
H1316 C1274 0.929 . S
H1317 C1275 0.930 . S
H1318 C1276 0.930 . S
H1319 C1277 0.930 . S
H1320 C1279 0.929 . S
H1321 C1280 0.930 . S
H1322 C1281 0.930 . S
H1323 C1282 0.930 . S
H1324 C1286 0.929 . S
H1325 C1288 0.930 . S
H1326 C1294 0.929 . S
H1327 C1295 0.930 . S
Li1328 N1345 1.990 . S
Li1328 O1388 1.956 . S
Li1328 O1389 1.970 1_455 S
Li1328 O1390 1.961 . S
Li1329 N1353 1.990 . S
Li1329 O1388 1.970 1_655 S
Li1329 O1389 1.956 . S
Li1329 O1391 1.961 . S
Li1330 N1375 1.990 . S
Li1330 O1388 1.961 . S
Li1330 O1390 1.956 . S
Li1330 O1391 1.970 1_455 S
Li1331 N1381 1.990 . S
Li1331 O1389 1.961 . S
Li1331 O1390 1.970 1_655 S
Li1331 O1391 1.956 . S
C1332 C1334 1.348 . S
C1332 C1335 1.356 . S
C1332 O1388 1.325 . S
N1333 C1336 1.314 . S
N1333 C1337 1.279 . S
C1334 C1332 1.348 . S
C1334 C1336 1.353 . S
C1334 H1392 0.929 . S
C1335 C1332 1.356 . S
C1335 C1337 1.358 . S
C1335 H1393 0.930 . S
C1336 N1333 1.314 . S
C1336 C1334 1.353 . S
C1336 H1394 0.930 . S
C1337 N1333 1.279 . S
C1337 C1335 1.358 . S
C1337 H1395 0.930 . S
C1338 C1341 1.348 1_655 S
C1338 C1342 1.356 . S
C1338 O1389 1.325 . S
C1339 N1340 1.279 . S
C1339 C1342 1.358 . S
C1339 H1396 0.930 . S
N1340 C1339 1.279 . S
N1340 C1343 1.314 1_655 S
C1341 C1338 1.348 1_455 S
C1341 C1343 1.353 . S
C1341 H1397 0.929 . S
C1342 C1338 1.356 . S
C1342 C1339 1.358 . S
C1342 H1398 0.930 . S
C1343 N1340 1.314 1_455 S
C1343 C1341 1.353 . S
C1343 H1399 0.930 . S
C1344 N1345 1.314 . S
C1344 C1349 1.353 . S
C1344 H1350 0.930 . S
N1345 Li1328 1.990 . S
N1345 C1344 1.314 . S
N1345 C1347 1.279 . S
C1346 C1347 1.358 . S
C1346 C1348 1.356 . S
C1346 H1400 0.930 . S
C1347 N1345 1.279 . S
C1347 C1346 1.358 . S
C1347 H1351 0.930 . S
C1348 C1346 1.356 . S
C1348 C1349 1.348 . S
C1349 C1344 1.353 . S
C1349 C1348 1.348 . S
C1349 H1401 0.929 . S
H1350 C1344 0.930 . S
H1351 C1347 0.930 . S
C1352 N1353 1.314 . S
C1352 C1354 1.353 . S
C1352 H1358 0.930 . S
N1353 Li1329 1.990 . S
N1353 C1352 1.314 . S
N1353 C1356 1.279 . S
C1354 C1352 1.353 . S
C1354 C1357 1.348 . S
C1354 H1402 0.929 . S
C1355 C1356 1.358 . S
C1355 C1357 1.356 . S
C1355 H1403 0.930 . S
C1356 N1353 1.279 . S
C1356 C1355 1.358 . S
C1356 H1359 0.930 . S
C1357 C1354 1.348 . S
C1357 C1355 1.356 . S
H1358 C1352 0.930 . S
H1359 C1356 0.930 . S
C1360 C1362 1.348 1_455 S
C1360 C1363 1.356 . S
C1360 O1390 1.325 . S
N1361 C1364 1.314 1_455 S
N1361 C1365 1.279 . S
C1362 C1360 1.348 1_655 S
C1362 C1364 1.353 . S
C1362 H1404 0.929 . S
C1363 C1360 1.356 . S
C1363 C1365 1.358 . S
C1363 H1405 0.930 . S
C1364 N1361 1.314 1_655 S
C1364 C1362 1.353 . S
C1364 H1406 0.930 . S
C1365 N1361 1.279 . S
C1365 C1363 1.358 . S
C1365 H1407 0.930 . S
C1366 C1367 1.348 . S
C1366 C1368 1.356 . S
C1366 O1391 1.325 . S
C1367 C1366 1.348 . S
C1367 C1369 1.353 . S
C1367 H1408 0.929 . S
C1368 C1366 1.356 . S
C1368 C1370 1.358 . S
C1368 H1409 0.930 . S
C1369 C1367 1.353 . S
C1369 N1371 1.314 . S
C1369 H1410 0.930 . S
C1370 C1368 1.358 . S
C1370 N1371 1.279 . S
C1370 H1411 0.930 . S
N1371 C1369 1.314 . S
N1371 C1370 1.279 . S
C1372 C1374 1.353 . S
C1372 N1375 1.314 . S
C1372 H1378 0.930 . S
C1373 N1375 1.279 . S
C1373 C1376 1.358 . S
C1373 H1379 0.930 . S
C1374 C1372 1.353 . S
C1374 C1377 1.348 . S
C1374 H1412 0.929 . S
N1375 Li1330 1.990 . S
N1375 C1372 1.314 . S
N1375 C1373 1.279 . S
C1376 C1373 1.358 . S
C1376 C1377 1.356 . S
C1376 H1413 0.930 . S
C1377 C1374 1.348 . S
C1377 C1376 1.356 . S
H1378 C1372 0.930 . S
H1379 C1373 0.930 . S
C1380 N1381 1.314 . S
C1380 C1382 1.353 . S
C1380 H1386 0.930 . S
N1381 Li1331 1.990 . S
N1381 C1380 1.314 . S
N1381 C1384 1.279 . S
C1382 C1380 1.353 . S
C1382 C1385 1.348 . S
C1382 H1414 0.929 . S
C1383 C1384 1.358 . S
C1383 C1385 1.356 . S
C1383 H1415 0.930 . S
C1384 N1381 1.279 . S
C1384 C1383 1.358 . S
C1384 H1387 0.930 . S
C1385 C1382 1.348 . S
C1385 C1383 1.356 . S
H1386 C1380 0.930 . S
H1387 C1384 0.930 . S
O1388 Li1328 1.956 . S
O1388 Li1329 1.970 1_455 S
O1388 Li1330 1.961 . S
O1388 C1332 1.325 . S
O1389 Li1328 1.970 1_655 S
O1389 Li1329 1.956 . S
O1389 Li1331 1.961 . S
O1389 C1338 1.325 . S
O1390 Li1328 1.961 . S
O1390 Li1330 1.956 . S
O1390 Li1331 1.970 1_455 S
O1390 C1360 1.325 . S
O1391 Li1329 1.961 . S
O1391 Li1330 1.970 1_655 S
O1391 Li1331 1.956 . S
O1391 C1366 1.325 . S
H1392 C1334 0.929 . S
H1393 C1335 0.930 . S
H1394 C1336 0.930 . S
H1395 C1337 0.930 . S
H1396 C1339 0.930 . S
H1397 C1341 0.929 . S
H1398 C1342 0.930 . S
H1399 C1343 0.930 . S
H1400 C1346 0.930 . S
H1401 C1349 0.929 . S
H1402 C1354 0.929 . S
H1403 C1355 0.930 . S
H1404 C1362 0.929 . S
H1405 C1363 0.930 . S
H1406 C1364 0.930 . S
H1407 C1365 0.930 . S
H1408 C1367 0.929 . S
H1409 C1368 0.930 . S
H1410 C1369 0.930 . S
H1411 C1370 0.930 . S
H1412 C1374 0.929 . S
H1413 C1376 0.930 . S
H1414 C1382 0.929 . S
H1415 C1383 0.930 . S
Li1416 N1433 1.990 . S
Li1416 O1476 1.956 . S
Li1416 O1477 1.970 . S
Li1416 O1478 1.961 . S
Li1417 N1441 1.990 . S
Li1417 O1476 1.970 . S
Li1417 O1477 1.956 . S
Li1417 O1479 1.961 . S
Li1418 N1463 1.990 . S
Li1418 O1476 1.961 . S
Li1418 O1478 1.956 . S
Li1418 O1479 1.970 . S
Li1419 N1469 1.990 . S
Li1419 O1477 1.961 . S
Li1419 O1478 1.970 . S
Li1419 O1479 1.956 . S
C1420 C1422 1.348 . S
C1420 C1423 1.356 . S
C1420 O1476 1.325 . S
N1421 C1424 1.314 . S
N1421 C1425 1.279 . S
C1422 C1420 1.348 . S
C1422 C1424 1.353 . S
C1422 H1480 0.929 . S
C1423 C1420 1.356 . S
C1423 C1425 1.358 . S
C1423 H1481 0.930 . S
C1424 N1421 1.314 . S
C1424 C1422 1.353 . S
C1424 H1482 0.930 . S
C1425 N1421 1.279 . S
C1425 C1423 1.358 . S
C1425 H1483 0.930 . S
C1426 C1429 1.348 . S
C1426 C1430 1.356 . S
C1426 O1477 1.325 . S
C1427 N1428 1.279 . S
C1427 C1430 1.358 . S
C1427 H1484 0.930 . S
N1428 C1427 1.279 . S
N1428 C1431 1.314 . S
C1429 C1426 1.348 . S
C1429 C1431 1.353 . S
C1429 H1485 0.929 . S
C1430 C1426 1.356 . S
C1430 C1427 1.358 . S
C1430 H1486 0.930 . S
C1431 N1428 1.314 . S
C1431 C1429 1.353 . S
C1431 H1487 0.930 . S
C1432 N1433 1.314 . S
C1432 C1437 1.353 . S
C1432 H1438 0.930 . S
N1433 Li1416 1.990 . S
N1433 C1432 1.314 . S
N1433 C1435 1.279 . S
C1434 C1435 1.358 . S
C1434 C1436 1.356 . S
C1434 H1488 0.930 . S
C1435 N1433 1.279 . S
C1435 C1434 1.358 . S
C1435 H1439 0.930 . S
C1436 C1434 1.356 . S
C1436 C1437 1.348 . S
C1437 C1432 1.353 . S
C1437 C1436 1.348 . S
C1437 H1489 0.929 . S
H1438 C1432 0.930 . S
H1439 C1435 0.930 . S
C1440 N1441 1.314 . S
C1440 C1442 1.353 . S
C1440 H1446 0.930 . S
N1441 Li1417 1.990 . S
N1441 C1440 1.314 . S
N1441 C1444 1.279 . S
C1442 C1440 1.353 . S
C1442 C1445 1.348 . S
C1442 H1490 0.929 . S
C1443 C1444 1.358 . S
C1443 C1445 1.356 . S
C1443 H1491 0.930 . S
C1444 N1441 1.279 . S
C1444 C1443 1.358 . S
C1444 H1447 0.930 . S
C1445 C1442 1.348 . S
C1445 C1443 1.356 . S
H1446 C1440 0.930 . S
H1447 C1444 0.930 . S
C1448 C1450 1.348 . S
C1448 C1451 1.356 . S
C1448 O1478 1.325 . S
N1449 C1452 1.314 . S
N1449 C1453 1.279 . S
C1450 C1448 1.348 . S
C1450 C1452 1.353 . S
C1450 H1492 0.929 . S
C1451 C1448 1.356 . S
C1451 C1453 1.358 . S
C1451 H1493 0.930 . S
C1452 N1449 1.314 . S
C1452 C1450 1.353 . S
C1452 H1494 0.930 . S
C1453 N1449 1.279 . S
C1453 C1451 1.358 . S
C1453 H1495 0.930 . S
C1454 C1455 1.348 . S
C1454 C1456 1.356 . S
C1454 O1479 1.325 . S
C1455 C1454 1.348 . S
C1455 C1457 1.353 . S
C1455 H1496 0.929 . S
C1456 C1454 1.356 . S
C1456 C1458 1.358 . S
C1456 H1497 0.930 . S
C1457 C1455 1.353 . S
C1457 N1459 1.314 . S
C1457 H1498 0.930 . S
C1458 C1456 1.358 . S
C1458 N1459 1.279 . S
C1458 H1499 0.930 . S
N1459 C1457 1.314 . S
N1459 C1458 1.279 . S
C1460 C1462 1.353 . S
C1460 N1463 1.314 . S
C1460 H1466 0.930 . S
C1461 N1463 1.279 . S
C1461 C1464 1.358 . S
C1461 H1467 0.930 . S
C1462 C1460 1.353 . S
C1462 C1465 1.348 . S
C1462 H1500 0.929 . S
N1463 Li1418 1.990 . S
N1463 C1460 1.314 . S
N1463 C1461 1.279 . S
C1464 C1461 1.358 . S
C1464 C1465 1.356 . S
C1464 H1501 0.930 . S
C1465 C1462 1.348 . S
C1465 C1464 1.356 . S
H1466 C1460 0.930 . S
H1467 C1461 0.930 . S
C1468 N1469 1.314 . S
C1468 C1470 1.353 . S
C1468 H1474 0.930 . S
N1469 Li1419 1.990 . S
N1469 C1468 1.314 . S
N1469 C1472 1.279 . S
C1470 C1468 1.353 . S
C1470 C1473 1.348 . S
C1470 H1502 0.929 . S
C1471 C1472 1.358 . S
C1471 C1473 1.356 . S
C1471 H1503 0.930 . S
C1472 N1469 1.279 . S
C1472 C1471 1.358 . S
C1472 H1475 0.930 . S
C1473 C1470 1.348 . S
C1473 C1471 1.356 . S
H1474 C1468 0.930 . S
H1475 C1472 0.930 . S
O1476 Li1416 1.956 . S
O1476 Li1417 1.970 . S
O1476 Li1418 1.961 . S
O1476 C1420 1.325 . S
O1477 Li1416 1.970 . S
O1477 Li1417 1.956 . S
O1477 Li1419 1.961 . S
O1477 C1426 1.325 . S
O1478 Li1416 1.961 . S
O1478 Li1418 1.956 . S
O1478 Li1419 1.970 . S
O1478 C1448 1.325 . S
O1479 Li1417 1.961 . S
O1479 Li1418 1.970 . S
O1479 Li1419 1.956 . S
O1479 C1454 1.325 . S
H1480 C1422 0.929 . S
H1481 C1423 0.930 . S
H1482 C1424 0.930 . S
H1483 C1425 0.930 . S
H1484 C1427 0.930 . S
H1485 C1429 0.929 . S
H1486 C1430 0.930 . S
H1487 C1431 0.930 . S
H1488 C1434 0.930 . S
H1489 C1437 0.929 . S
H1490 C1442 0.929 . S
H1491 C1443 0.930 . S
H1492 C1450 0.929 . S
H1493 C1451 0.930 . S
H1494 C1452 0.930 . S
H1495 C1453 0.930 . S
H1496 C1455 0.929 . S
H1497 C1456 0.930 . S
H1498 C1457 0.930 . S
H1499 C1458 0.930 . S
H1500 C1462 0.929 . S
H1501 C1464 0.930 . S
H1502 C1470 0.929 . S
H1503 C1471 0.930 . S
Li1504 N1521 1.990 . S
Li1504 O1564 1.956 . S
Li1504 O1565 1.970 1_455 S
Li1504 O1566 1.961 . S
Li1505 N1529 1.990 . S
Li1505 O1564 1.970 1_655 S
Li1505 O1565 1.956 . S
Li1505 O1567 1.961 . S
Li1506 N1551 1.990 . S
Li1506 O1564 1.961 . S
Li1506 O1566 1.956 . S
Li1506 O1567 1.970 1_455 S
Li1507 N1557 1.990 . S
Li1507 O1565 1.961 . S
Li1507 O1566 1.970 1_655 S
Li1507 O1567 1.956 . S
C1508 C1510 1.348 1_455 S
C1508 C1511 1.356 . S
C1508 O1564 1.325 . S
N1509 C1512 1.314 1_455 S
N1509 C1513 1.279 . S
C1510 C1508 1.348 1_655 S
C1510 C1512 1.353 . S
C1510 H1568 0.929 . S
C1511 C1508 1.356 . S
C1511 C1513 1.358 . S
C1511 H1569 0.930 . S
C1512 N1509 1.314 1_655 S
C1512 C1510 1.353 . S
C1512 H1570 0.930 . S
C1513 N1509 1.279 . S
C1513 C1511 1.358 . S
C1513 H1571 0.930 . S
C1514 C1517 1.348 . S
C1514 C1518 1.356 . S
C1514 O1565 1.325 . S
C1515 N1516 1.279 . S
C1515 C1518 1.358 . S
C1515 H1572 0.930 . S
N1516 C1515 1.279 . S
N1516 C1519 1.314 . S
C1517 C1514 1.348 . S
C1517 C1519 1.353 . S
C1517 H1573 0.929 . S
C1518 C1514 1.356 . S
C1518 C1515 1.358 . S
C1518 H1574 0.930 . S
C1519 N1516 1.314 . S
C1519 C1517 1.353 . S
C1519 H1575 0.930 . S
C1520 N1521 1.314 . S
C1520 C1525 1.353 . S
C1520 H1526 0.930 . S
N1521 Li1504 1.990 . S
N1521 C1520 1.314 . S
N1521 C1523 1.279 . S
C1522 C1523 1.358 . S
C1522 C1524 1.356 . S
C1522 H1576 0.930 . S
C1523 N1521 1.279 . S
C1523 C1522 1.358 . S
C1523 H1527 0.930 . S
C1524 C1522 1.356 . S
C1524 C1525 1.348 . S
C1525 C1520 1.353 . S
C1525 C1524 1.348 . S
C1525 H1577 0.929 . S
H1526 C1520 0.930 . S
H1527 C1523 0.930 . S
C1528 N1529 1.314 . S
C1528 C1530 1.353 . S
C1528 H1534 0.930 . S
N1529 Li1505 1.990 . S
N1529 C1528 1.314 . S
N1529 C1532 1.279 . S
C1530 C1528 1.353 . S
C1530 C1533 1.348 . S
C1530 H1578 0.929 . S
C1531 C1532 1.358 . S
C1531 C1533 1.356 . S
C1531 H1579 0.930 . S
C1532 N1529 1.279 . S
C1532 C1531 1.358 . S
C1532 H1535 0.930 . S
C1533 C1530 1.348 . S
C1533 C1531 1.356 . S
H1534 C1528 0.930 . S
H1535 C1532 0.930 . S
C1536 C1538 1.348 . S
C1536 C1539 1.356 . S
C1536 O1566 1.325 . S
N1537 C1540 1.314 . S
N1537 C1541 1.279 . S
C1538 C1536 1.348 . S
C1538 C1540 1.353 . S
C1538 H1580 0.929 . S
C1539 C1536 1.356 . S
C1539 C1541 1.358 . S
C1539 H1581 0.930 . S
C1540 N1537 1.314 . S
C1540 C1538 1.353 . S
C1540 H1582 0.930 . S
C1541 N1537 1.279 . S
C1541 C1539 1.358 . S
C1541 H1583 0.930 . S
C1542 C1543 1.348 1_655 S
C1542 C1544 1.356 . S
C1542 O1567 1.325 . S
C1543 C1542 1.348 1_455 S
C1543 C1545 1.353 . S
C1543 H1584 0.929 . S
C1544 C1542 1.356 . S
C1544 C1546 1.358 . S
C1544 H1585 0.930 . S
C1545 C1543 1.353 . S
C1545 N1547 1.314 1_455 S
C1545 H1586 0.930 . S
C1546 C1544 1.358 . S
C1546 N1547 1.279 . S
C1546 H1587 0.930 . S
N1547 C1545 1.314 1_655 S
N1547 C1546 1.279 . S
C1548 C1550 1.353 . S
C1548 N1551 1.314 . S
C1548 H1554 0.930 . S
C1549 N1551 1.279 . S
C1549 C1552 1.358 . S
C1549 H1555 0.930 . S
C1550 C1548 1.353 . S
C1550 C1553 1.348 . S
C1550 H1588 0.929 . S
N1551 Li1506 1.990 . S
N1551 C1548 1.314 . S
N1551 C1549 1.279 . S
C1552 C1549 1.358 . S
C1552 C1553 1.356 . S
C1552 H1589 0.930 . S
C1553 C1550 1.348 . S
C1553 C1552 1.356 . S
H1554 C1548 0.930 . S
H1555 C1549 0.930 . S
C1556 N1557 1.314 . S
C1556 C1558 1.353 . S
C1556 H1562 0.930 . S
N1557 Li1507 1.990 . S
N1557 C1556 1.314 . S
N1557 C1560 1.279 . S
C1558 C1556 1.353 . S
C1558 C1561 1.348 . S
C1558 H1590 0.929 . S
C1559 C1560 1.358 . S
C1559 C1561 1.356 . S
C1559 H1591 0.930 . S
C1560 N1557 1.279 . S
C1560 C1559 1.358 . S
C1560 H1563 0.930 . S
C1561 C1558 1.348 . S
C1561 C1559 1.356 . S
H1562 C1556 0.930 . S
H1563 C1560 0.930 . S
O1564 Li1504 1.956 . S
O1564 Li1505 1.970 1_455 S
O1564 Li1506 1.961 . S
O1564 C1508 1.325 . S
O1565 Li1504 1.970 1_655 S
O1565 Li1505 1.956 . S
O1565 Li1507 1.961 . S
O1565 C1514 1.325 . S
O1566 Li1504 1.961 . S
O1566 Li1506 1.956 . S
O1566 Li1507 1.970 1_455 S
O1566 C1536 1.325 . S
O1567 Li1505 1.961 . S
O1567 Li1506 1.970 1_655 S
O1567 Li1507 1.956 . S
O1567 C1542 1.325 . S
H1568 C1510 0.929 . S
H1569 C1511 0.930 . S
H1570 C1512 0.930 . S
H1571 C1513 0.930 . S
H1572 C1515 0.930 . S
H1573 C1517 0.929 . S
H1574 C1518 0.930 . S
H1575 C1519 0.930 . S
H1576 C1522 0.930 . S
H1577 C1525 0.929 . S
H1578 C1530 0.929 . S
H1579 C1531 0.930 . S
H1580 C1538 0.929 . S
H1581 C1539 0.930 . S
H1582 C1540 0.930 . S
H1583 C1541 0.930 . S
H1584 C1543 0.929 . S
H1585 C1544 0.930 . S
H1586 C1545 0.930 . S
H1587 C1546 0.930 . S
H1588 C1550 0.929 . S
H1589 C1552 0.930 . S
H1590 C1558 0.929 . S
H1591 C1559 0.930 . S
Li1592 N1609 1.990 . S
Li1592 O1652 1.956 . S
Li1592 O1653 1.970 . S
Li1592 O1654 1.961 . S
Li1593 N1617 1.990 . S
Li1593 O1652 1.970 . S
Li1593 O1653 1.956 . S
Li1593 O1655 1.961 . S
Li1594 N1639 1.990 . S
Li1594 O1652 1.961 . S
Li1594 O1654 1.956 . S
Li1594 O1655 1.970 . S
Li1595 N1645 1.990 . S
Li1595 O1653 1.961 . S
Li1595 O1654 1.970 . S
Li1595 O1655 1.956 . S
C1596 C1598 1.348 . S
C1596 C1599 1.356 . S
C1596 O1652 1.325 . S
N1597 C1600 1.314 . S
N1597 C1601 1.279 . S
C1598 C1596 1.348 . S
C1598 C1600 1.353 . S
C1598 H1656 0.929 . S
C1599 C1596 1.356 . S
C1599 C1601 1.358 . S
C1599 H1657 0.930 . S
C1600 N1597 1.314 . S
C1600 C1598 1.353 . S
C1600 H1658 0.930 . S
C1601 N1597 1.279 . S
C1601 C1599 1.358 . S
C1601 H1659 0.930 . S
C1602 C1605 1.348 . S
C1602 C1606 1.356 . S
C1602 O1653 1.325 . S
C1603 N1604 1.279 . S
C1603 C1606 1.358 . S
C1603 H1660 0.930 . S
N1604 C1603 1.279 . S
N1604 C1607 1.314 . S
C1605 C1602 1.348 . S
C1605 C1607 1.353 . S
C1605 H1661 0.929 . S
C1606 C1602 1.356 . S
C1606 C1603 1.358 . S
C1606 H1662 0.930 . S
C1607 N1604 1.314 . S
C1607 C1605 1.353 . S
C1607 H1663 0.930 . S
C1608 N1609 1.314 . S
C1608 C1613 1.353 . S
C1608 H1614 0.930 . S
N1609 Li1592 1.990 . S
N1609 C1608 1.314 . S
N1609 C1611 1.279 . S
C1610 C1611 1.358 . S
C1610 C1612 1.356 . S
C1610 H1664 0.930 . S
C1611 N1609 1.279 . S
C1611 C1610 1.358 . S
C1611 H1615 0.930 . S
C1612 C1610 1.356 . S
C1612 C1613 1.348 . S
C1613 C1608 1.353 . S
C1613 C1612 1.348 . S
C1613 H1665 0.929 . S
H1614 C1608 0.930 . S
H1615 C1611 0.930 . S
C1616 N1617 1.314 . S
C1616 C1618 1.353 . S
C1616 H1622 0.930 . S
N1617 Li1593 1.990 . S
N1617 C1616 1.314 . S
N1617 C1620 1.279 . S
C1618 C1616 1.353 . S
C1618 C1621 1.348 . S
C1618 H1666 0.929 . S
C1619 C1620 1.358 . S
C1619 C1621 1.356 . S
C1619 H1667 0.930 . S
C1620 N1617 1.279 . S
C1620 C1619 1.358 . S
C1620 H1623 0.930 . S
C1621 C1618 1.348 . S
C1621 C1619 1.356 . S
H1622 C1616 0.930 . S
H1623 C1620 0.930 . S
C1624 C1626 1.348 . S
C1624 C1627 1.356 . S
C1624 O1654 1.325 . S
N1625 C1628 1.314 . S
N1625 C1629 1.279 . S
C1626 C1624 1.348 . S
C1626 C1628 1.353 . S
C1626 H1668 0.929 . S
C1627 C1624 1.356 . S
C1627 C1629 1.358 . S
C1627 H1669 0.930 . S
C1628 N1625 1.314 . S
C1628 C1626 1.353 . S
C1628 H1670 0.930 . S
C1629 N1625 1.279 . S
C1629 C1627 1.358 . S
C1629 H1671 0.930 . S
C1630 C1631 1.348 . S
C1630 C1632 1.356 . S
C1630 O1655 1.325 . S
C1631 C1630 1.348 . S
C1631 C1633 1.353 . S
C1631 H1672 0.929 . S
C1632 C1630 1.356 . S
C1632 C1634 1.358 . S
C1632 H1673 0.930 . S
C1633 C1631 1.353 . S
C1633 N1635 1.314 . S
C1633 H1674 0.930 . S
C1634 C1632 1.358 . S
C1634 N1635 1.279 . S
C1634 H1675 0.930 . S
N1635 C1633 1.314 . S
N1635 C1634 1.279 . S
C1636 C1638 1.353 . S
C1636 N1639 1.314 . S
C1636 H1642 0.930 . S
C1637 N1639 1.279 . S
C1637 C1640 1.358 . S
C1637 H1643 0.930 . S
C1638 C1636 1.353 . S
C1638 C1641 1.348 . S
C1638 H1676 0.929 . S
N1639 Li1594 1.990 . S
N1639 C1636 1.314 . S
N1639 C1637 1.279 . S
C1640 C1637 1.358 . S
C1640 C1641 1.356 . S
C1640 H1677 0.930 . S
C1641 C1638 1.348 . S
C1641 C1640 1.356 . S
H1642 C1636 0.930 . S
H1643 C1637 0.930 . S
C1644 N1645 1.314 . S
C1644 C1646 1.353 . S
C1644 H1650 0.930 . S
N1645 Li1595 1.990 . S
N1645 C1644 1.314 . S
N1645 C1648 1.279 . S
C1646 C1644 1.353 . S
C1646 C1649 1.348 . S
C1646 H1678 0.929 . S
C1647 C1648 1.358 . S
C1647 C1649 1.356 . S
C1647 H1679 0.930 . S
C1648 N1645 1.279 . S
C1648 C1647 1.358 . S
C1648 H1651 0.930 . S
C1649 C1646 1.348 . S
C1649 C1647 1.356 . S
H1650 C1644 0.930 . S
H1651 C1648 0.930 . S
O1652 Li1592 1.956 . S
O1652 Li1593 1.970 . S
O1652 Li1594 1.961 . S
O1652 C1596 1.325 . S
O1653 Li1592 1.970 . S
O1653 Li1593 1.956 . S
O1653 Li1595 1.961 . S
O1653 C1602 1.325 . S
O1654 Li1592 1.961 . S
O1654 Li1594 1.956 . S
O1654 Li1595 1.970 . S
O1654 C1624 1.325 . S
O1655 Li1593 1.961 . S
O1655 Li1594 1.970 . S
O1655 Li1595 1.956 . S
O1655 C1630 1.325 . S
H1656 C1598 0.929 . S
H1657 C1599 0.930 . S
H1658 C1600 0.930 . S
H1659 C1601 0.930 . S
H1660 C1603 0.930 . S
H1661 C1605 0.929 . S
H1662 C1606 0.930 . S
H1663 C1607 0.930 . S
H1664 C1610 0.930 . S
H1665 C1613 0.929 . S
H1666 C1618 0.929 . S
H1667 C1619 0.930 . S
H1668 C1626 0.929 . S
H1669 C1627 0.930 . S
H1670 C1628 0.930 . S
H1671 C1629 0.930 . S
H1672 C1631 0.929 . S
H1673 C1632 0.930 . S
H1674 C1633 0.930 . S
H1675 C1634 0.930 . S
H1676 C1638 0.929 . S
H1677 C1640 0.930 . S
H1678 C1646 0.929 . S
H1679 C1647 0.930 . S
H1680 C1688 0.950 . S
H1681 C1693 0.950 . S
H1682 C1690 0.950 . S
H1683 C1692 0.950 . S
H1684 C1694 0.950 . S
H1685 C1696 0.950 . S
H1686 C1698 0.950 . S
H1687 C1699 0.950 . S
C1688 H1680 0.950 . S
C1688 C1689 1.386 . S
C1688 C1690 1.391 . S
C1689 C1688 1.386 . S
C1689 C1693 1.393 . S
C1690 H1682 0.950 . S
C1690 C1688 1.391 . S
C1690 C1691 1.400 . S
C1691 C1690 1.400 . S
C1691 C1692 1.398 . S
C1691 C1697 1.491 . S
C1692 H1683 0.950 . S
C1692 C1691 1.398 . S
C1692 C1693 1.391 . S
C1693 H1681 0.950 . S
C1693 C1689 1.393 . S
C1693 C1692 1.391 . S
C1694 H1684 0.950 . S
C1694 C1695 1.386 . S
C1694 C1696 1.391 . S
C1695 C1694 1.386 . S
C1695 C1699 1.393 . S
C1696 H1685 0.950 . S
C1696 C1694 1.391 . S
C1696 C1697 1.400 . S
C1697 C1691 1.491 . S
C1697 C1696 1.400 . S
C1697 C1698 1.398 . S
C1698 H1686 0.950 . S
C1698 C1697 1.398 . S
C1698 C1699 1.391 . S
C1699 H1687 0.950 . S
C1699 C1695 1.393 . S
C1699 C1698 1.391 . S
H1700 C1708 0.950 . S
H1701 C1713 0.950 . S
H1702 C1710 0.950 . S
H1703 C1712 0.950 . S
H1704 C1714 0.950 . S
H1705 C1716 0.950 . S
H1706 C1718 0.950 . S
H1707 C1719 0.950 . S
C1708 H1700 0.950 . S
C1708 C1709 1.386 . S
C1708 C1710 1.391 . S
C1709 C1708 1.386 . S
C1709 C1713 1.393 . S
C1710 H1702 0.950 . S
C1710 C1708 1.391 . S
C1710 C1711 1.400 . S
C1711 C1710 1.400 . S
C1711 C1712 1.398 . S
C1711 C1717 1.491 . S
C1712 H1703 0.950 . S
C1712 C1711 1.398 . S
C1712 C1713 1.391 . S
C1713 H1701 0.950 . S
C1713 C1709 1.393 . S
C1713 C1712 1.391 . S
C1714 H1704 0.950 . S
C1714 C1715 1.386 . S
C1714 C1716 1.391 . S
C1715 C1714 1.386 . S
C1715 C1719 1.393 . S
C1716 H1705 0.950 . S
C1716 C1714 1.391 . S
C1716 C1717 1.400 . S
C1717 C1711 1.491 . S
C1717 C1716 1.400 . S
C1717 C1718 1.398 . S
C1718 H1706 0.950 . S
C1718 C1717 1.398 . S
C1718 C1719 1.391 . S
C1719 H1707 0.950 . S
C1719 C1715 1.393 . S
C1719 C1718 1.391 . S
H1720 C1728 0.950 . S
H1721 C1733 0.950 . S
H1722 C1730 0.950 . S
H1723 C1732 0.950 . S
H1724 C1734 0.950 . S
H1725 C1736 0.950 . S
H1726 C1738 0.950 . S
H1727 C1739 0.950 . S
C1728 H1720 0.950 . S
C1728 C1729 1.386 . S
C1728 C1730 1.391 . S
C1729 C1728 1.386 . S
C1729 C1733 1.393 . S
C1730 H1722 0.950 . S
C1730 C1728 1.391 . S
C1730 C1731 1.400 . S
C1731 C1730 1.400 . S
C1731 C1732 1.398 . S
C1731 C1737 1.491 . S
C1732 H1723 0.950 . S
C1732 C1731 1.398 . S
C1732 C1733 1.391 . S
C1733 H1721 0.950 . S
C1733 C1729 1.393 . S
C1733 C1732 1.391 . S
C1734 H1724 0.950 . S
C1734 C1735 1.386 . S
C1734 C1736 1.391 . S
C1735 C1734 1.386 . S
C1735 C1739 1.393 . S
C1736 H1725 0.950 . S
C1736 C1734 1.391 . S
C1736 C1737 1.400 . S
C1737 C1731 1.491 . S
C1737 C1736 1.400 . S
C1737 C1738 1.398 . S
C1738 H1726 0.950 . S
C1738 C1737 1.398 . S
C1738 C1739 1.391 . S
C1739 H1727 0.950 . S
C1739 C1735 1.393 . S
C1739 C1738 1.391 . S
H1740 C1748 0.950 . S
H1741 C1753 0.950 . S
H1742 C1750 0.950 . S
H1743 C1752 0.950 . S
H1744 C1754 0.950 . S
H1745 C1756 0.950 . S
H1746 C1758 0.950 . S
H1747 C1759 0.950 . S
C1748 H1740 0.950 . S
C1748 C1749 1.386 . S
C1748 C1750 1.391 . S
C1749 C1748 1.386 . S
C1749 C1753 1.393 . S
C1750 H1742 0.950 . S
C1750 C1748 1.391 . S
C1750 C1751 1.400 . S
C1751 C1750 1.400 . S
C1751 C1752 1.398 . S
C1751 C1757 1.491 . S
C1752 H1743 0.950 . S
C1752 C1751 1.398 . S
C1752 C1753 1.391 . S
C1753 H1741 0.950 . S
C1753 C1749 1.393 . S
C1753 C1752 1.391 . S
C1754 H1744 0.950 . S
C1754 C1755 1.386 . S
C1754 C1756 1.391 . S
C1755 C1754 1.386 . S
C1755 C1759 1.393 . S
C1756 H1745 0.950 . S
C1756 C1754 1.391 . S
C1756 C1757 1.400 . S
C1757 C1751 1.491 . S
C1757 C1756 1.400 . S
C1757 C1758 1.398 . S
C1758 H1746 0.950 . S
C1758 C1757 1.398 . S
C1758 C1759 1.391 . S
C1759 H1747 0.950 . S
C1759 C1755 1.393 . S
C1759 C1758 1.391 . S
H1760 C1768 0.950 . S
H1761 C1773 0.950 . S
H1762 C1770 0.950 . S
H1763 C1772 0.950 . S
H1764 C1774 0.950 . S
H1765 C1776 0.950 . S
H1766 C1778 0.950 . S
H1767 C1779 0.950 . S
C1768 H1760 0.950 . S
C1768 C1769 1.386 . S
C1768 C1770 1.391 . S
C1769 C1768 1.386 . S
C1769 C1773 1.393 . S
C1770 H1762 0.950 . S
C1770 C1768 1.391 . S
C1770 C1771 1.400 . S
C1771 C1770 1.400 . S
C1771 C1772 1.398 . S
C1771 C1777 1.491 . S
C1772 H1763 0.950 . S
C1772 C1771 1.398 . S
C1772 C1773 1.391 . S
C1773 H1761 0.950 . S
C1773 C1769 1.393 . S
C1773 C1772 1.391 . S
C1774 H1764 0.950 . S
C1774 C1775 1.386 . S
C1774 C1776 1.391 . S
C1775 C1774 1.386 . S
C1775 C1779 1.393 . S
C1776 H1765 0.950 . S
C1776 C1774 1.391 . S
C1776 C1777 1.400 . S
C1777 C1771 1.491 . S
C1777 C1776 1.400 . S
C1777 C1778 1.398 . S
C1778 H1766 0.950 . S
C1778 C1777 1.398 . S
C1778 C1779 1.391 . S
C1779 H1767 0.950 . S
C1779 C1775 1.393 . S
C1779 C1778 1.391 . S
H1780 C1788 0.950 . S
H1781 C1793 0.950 . S
H1782 C1790 0.950 . S
H1783 C1792 0.950 . S
H1784 C1794 0.950 . S
H1785 C1796 0.950 . S
H1786 C1798 0.950 . S
H1787 C1799 0.950 . S
C1788 H1780 0.950 . S
C1788 C1789 1.386 . S
C1788 C1790 1.391 . S
C1789 C1788 1.386 . S
C1789 C1793 1.393 . S
C1790 H1782 0.950 . S
C1790 C1788 1.391 . S
C1790 C1791 1.400 . S
C1791 C1790 1.400 . S
C1791 C1792 1.398 . S
C1791 C1797 1.491 . S
C1792 H1783 0.950 . S
C1792 C1791 1.398 . S
C1792 C1793 1.391 . S
C1793 H1781 0.950 . S
C1793 C1789 1.393 . S
C1793 C1792 1.391 . S
C1794 H1784 0.950 . S
C1794 C1795 1.386 . S
C1794 C1796 1.391 . S
C1795 C1794 1.386 . S
C1795 C1799 1.393 . S
C1796 H1785 0.950 . S
C1796 C1794 1.391 . S
C1796 C1797 1.400 . S
C1797 C1791 1.491 . S
C1797 C1796 1.400 . S
C1797 C1798 1.398 . S
C1798 H1786 0.950 . S
C1798 C1797 1.398 . S
C1798 C1799 1.391 . S
C1799 H1787 0.950 . S
C1799 C1795 1.393 . S
C1799 C1798 1.391 . S
H1800 C1808 0.950 . S
H1801 C1813 0.950 . S
H1802 C1810 0.950 . S
H1803 C1812 0.950 . S
H1804 C1814 0.950 . S
H1805 C1816 0.950 . S
H1806 C1818 0.950 . S
H1807 C1819 0.950 . S
C1808 H1800 0.950 . S
C1808 C1809 1.386 . S
C1808 C1810 1.391 . S
C1809 C1808 1.386 . S
C1809 C1813 1.393 . S
C1810 H1802 0.950 . S
C1810 C1808 1.391 . S
C1810 C1811 1.400 . S
C1811 C1810 1.400 . S
C1811 C1812 1.398 . S
C1811 C1817 1.491 . S
C1812 H1803 0.950 . S
C1812 C1811 1.398 . S
C1812 C1813 1.391 . S
C1813 H1801 0.950 . S
C1813 C1809 1.393 . S
C1813 C1812 1.391 . S
C1814 H1804 0.950 . S
C1814 C1815 1.386 . S
C1814 C1816 1.391 . S
C1815 C1814 1.386 . S
C1815 C1819 1.393 . S
C1816 H1805 0.950 . S
C1816 C1814 1.391 . S
C1816 C1817 1.400 . S
C1817 C1811 1.491 . S
C1817 C1816 1.400 . S
C1817 C1818 1.398 . S
C1818 H1806 0.950 . S
C1818 C1817 1.398 . S
C1818 C1819 1.391 . S
C1819 H1807 0.950 . S
C1819 C1815 1.393 . S
C1819 C1818 1.391 . S
H1820 C1828 0.950 . S
H1821 C1833 0.950 1_545 S
H1822 C1830 0.950 . S
H1823 C1832 0.950 1_545 S
H1824 C1834 0.950 . S
H1825 C1836 0.950 . S
H1826 C1838 0.950 . S
H1827 C1839 0.950 . S
C1828 H1820 0.950 . S
C1828 C1829 1.386 . S
C1828 C1830 1.391 . S
C1829 C1828 1.386 . S
C1829 C1833 1.393 . S
C1830 H1822 0.950 . S
C1830 C1828 1.391 . S
C1830 C1831 1.400 . S
C1831 C1830 1.400 . S
C1831 C1832 1.398 . S
C1831 C1837 1.491 . S
C1832 H1823 0.950 1_565 S
C1832 C1831 1.398 . S
C1832 C1833 1.391 . S
C1833 H1821 0.950 1_565 S
C1833 C1829 1.393 . S
C1833 C1832 1.391 . S
C1834 H1824 0.950 . S
C1834 C1835 1.386 1_545 S
C1834 C1836 1.391 . S
C1835 C1834 1.386 1_565 S
C1835 C1839 1.393 . S
C1836 H1825 0.950 . S
C1836 C1834 1.391 . S
C1836 C1837 1.400 1_545 S
C1837 C1831 1.491 . S
C1837 C1836 1.400 1_565 S
C1837 C1838 1.398 . S
C1838 H1826 0.950 . S
C1838 C1837 1.398 . S
C1838 C1839 1.391 . S
C1839 H1827 0.950 . S
C1839 C1835 1.393 . S
C1839 C1838 1.391 . S
H1840 C1848 0.950 . S
H1841 C1853 0.950 . S
H1842 C1850 0.950 . S
H1843 C1852 0.950 . S
H1844 C1854 0.950 . S
H1845 C1856 0.950 . S
H1846 C1858 0.950 . S
H1847 C1859 0.950 . S
C1848 H1840 0.950 . S
C1848 C1849 1.386 . S
C1848 C1850 1.391 . S
C1849 C1848 1.386 . S
C1849 C1853 1.393 . S
C1850 H1842 0.950 . S
C1850 C1848 1.391 . S
C1850 C1851 1.400 . S
C1851 C1850 1.400 . S
C1851 C1852 1.398 . S
C1851 C1857 1.491 . S
C1852 H1843 0.950 . S
C1852 C1851 1.398 . S
C1852 C1853 1.391 . S
C1853 H1841 0.950 . S
C1853 C1849 1.393 . S
C1853 C1852 1.391 . S
C1854 H1844 0.950 . S
C1854 C1855 1.386 . S
C1854 C1856 1.391 . S
C1855 C1854 1.386 . S
C1855 C1859 1.393 . S
C1856 H1845 0.950 . S
C1856 C1854 1.391 . S
C1856 C1857 1.400 . S
C1857 C1851 1.491 . S
C1857 C1856 1.400 . S
C1857 C1858 1.398 . S
C1858 H1846 0.950 . S
C1858 C1857 1.398 . S
C1858 C1859 1.391 . S
C1859 H1847 0.950 . S
C1859 C1855 1.393 . S
C1859 C1858 1.391 . S
H1860 C1868 0.950 . S
H1861 C1873 0.950 . S
H1862 C1870 0.950 . S
H1863 C1872 0.950 . S
H1864 C1874 0.950 . S
H1865 C1876 0.950 . S
H1866 C1878 0.950 . S
H1867 C1879 0.950 . S
C1868 H1860 0.950 . S
C1868 C1869 1.386 . S
C1868 C1870 1.391 . S
C1869 C1868 1.386 . S
C1869 C1873 1.393 . S
C1870 H1862 0.950 . S
C1870 C1868 1.391 . S
C1870 C1871 1.400 . S
C1871 C1870 1.400 . S
C1871 C1872 1.398 . S
C1871 C1877 1.491 . S
C1872 H1863 0.950 . S
C1872 C1871 1.398 . S
C1872 C1873 1.391 . S
C1873 H1861 0.950 . S
C1873 C1869 1.393 . S
C1873 C1872 1.391 . S
C1874 H1864 0.950 . S
C1874 C1875 1.386 . S
C1874 C1876 1.391 . S
C1875 C1874 1.386 . S
C1875 C1879 1.393 . S
C1876 H1865 0.950 . S
C1876 C1874 1.391 . S
C1876 C1877 1.400 . S
C1877 C1871 1.491 . S
C1877 C1876 1.400 . S
C1877 C1878 1.398 . S
C1878 H1866 0.950 . S
C1878 C1877 1.398 . S
C1878 C1879 1.391 . S
C1879 H1867 0.950 . S
C1879 C1875 1.393 . S
C1879 C1878 1.391 . S
H1880 C1888 0.950 . S
H1881 C1893 0.950 . S
H1882 C1890 0.950 . S
H1883 C1892 0.950 . S
H1884 C1894 0.950 . S
H1885 C1896 0.950 . S
H1886 C1898 0.950 . S
H1887 C1899 0.950 . S
C1888 H1880 0.950 . S
C1888 C1889 1.386 . S
C1888 C1890 1.391 . S
C1889 C1888 1.386 . S
C1889 C1893 1.393 . S
C1890 H1882 0.950 . S
C1890 C1888 1.391 . S
C1890 C1891 1.400 . S
C1891 C1890 1.400 . S
C1891 C1892 1.398 . S
C1891 C1897 1.491 . S
C1892 H1883 0.950 . S
C1892 C1891 1.398 . S
C1892 C1893 1.391 . S
C1893 H1881 0.950 . S
C1893 C1889 1.393 . S
C1893 C1892 1.391 . S
C1894 H1884 0.950 . S
C1894 C1895 1.386 . S
C1894 C1896 1.391 . S
C1895 C1894 1.386 . S
C1895 C1899 1.393 . S
C1896 H1885 0.950 . S
C1896 C1894 1.391 . S
C1896 C1897 1.400 . S
C1897 C1891 1.491 . S
C1897 C1896 1.400 . S
C1897 C1898 1.398 . S
C1898 H1886 0.950 . S
C1898 C1897 1.398 . S
C1898 C1899 1.391 . S
C1899 H1887 0.950 . S
C1899 C1895 1.393 . S
C1899 C1898 1.391 . S
H1900 C1908 0.950 . S
H1901 C1913 0.950 . S
H1902 C1910 0.950 . S
H1903 C1912 0.950 . S
H1904 C1914 0.950 . S
H1905 C1916 0.950 . S
H1906 C1918 0.950 . S
H1907 C1919 0.950 . S
C1908 H1900 0.950 . S
C1908 C1909 1.386 . S
C1908 C1910 1.391 . S
C1909 C1908 1.386 . S
C1909 C1913 1.393 . S
C1910 H1902 0.950 . S
C1910 C1908 1.391 . S
C1910 C1911 1.400 . S
C1911 C1910 1.400 . S
C1911 C1912 1.398 . S
C1911 C1917 1.491 . S
C1912 H1903 0.950 . S
C1912 C1911 1.398 . S
C1912 C1913 1.391 . S
C1913 H1901 0.950 . S
C1913 C1909 1.393 . S
C1913 C1912 1.391 . S
C1914 H1904 0.950 . S
C1914 C1915 1.386 . S
C1914 C1916 1.391 . S
C1915 C1914 1.386 . S
C1915 C1919 1.393 . S
C1916 H1905 0.950 . S
C1916 C1914 1.391 . S
C1916 C1917 1.400 . S
C1917 C1911 1.491 . S
C1917 C1916 1.400 . S
C1917 C1918 1.398 . S
C1918 H1906 0.950 . S
C1918 C1917 1.398 . S
C1918 C1919 1.391 . S
C1919 H1907 0.950 . S
C1919 C1915 1.393 . S
C1919 C1918 1.391 . S
H1920 C1928 0.950 . S
H1921 C1933 0.950 . S
H1922 C1930 0.950 . S
H1923 C1932 0.950 . S
H1924 C1934 0.950 . S
H1925 C1936 0.950 . S
H1926 C1938 0.950 . S
H1927 C1939 0.950 . S
C1928 H1920 0.950 . S
C1928 C1929 1.386 . S
C1928 C1930 1.391 . S
C1929 C1928 1.386 . S
C1929 C1933 1.393 . S
C1930 H1922 0.950 . S
C1930 C1928 1.391 . S
C1930 C1931 1.400 . S
C1931 C1930 1.400 . S
C1931 C1932 1.398 . S
C1931 C1937 1.491 . S
C1932 H1923 0.950 . S
C1932 C1931 1.398 . S
C1932 C1933 1.391 . S
C1933 H1921 0.950 . S
C1933 C1929 1.393 . S
C1933 C1932 1.391 . S
C1934 H1924 0.950 . S
C1934 C1935 1.386 . S
C1934 C1936 1.391 . S
C1935 C1934 1.386 . S
C1935 C1939 1.393 . S
C1936 H1925 0.950 . S
C1936 C1934 1.391 . S
C1936 C1937 1.400 . S
C1937 C1931 1.491 . S
C1937 C1936 1.400 . S
C1937 C1938 1.398 . S
C1938 H1926 0.950 . S
C1938 C1937 1.398 . S
C1938 C1939 1.391 . S
C1939 H1927 0.950 . S
C1939 C1935 1.393 . S
C1939 C1938 1.391 . S
H1940 C1948 0.950 . S
H1941 C1953 0.950 . S
H1942 C1950 0.950 . S
H1943 C1952 0.950 . S
H1944 C1954 0.950 . S
H1945 C1956 0.950 . S
H1946 C1958 0.950 . S
H1947 C1959 0.950 1_655 S
C1948 H1940 0.950 . S
C1948 C1949 1.386 . S
C1948 C1950 1.391 . S
C1949 C1948 1.386 . S
C1949 C1953 1.393 . S
C1950 H1942 0.950 . S
C1950 C1948 1.391 . S
C1950 C1951 1.400 . S
C1951 C1950 1.400 . S
C1951 C1952 1.398 . S
C1951 C1957 1.491 . S
C1952 H1943 0.950 . S
C1952 C1951 1.398 . S
C1952 C1953 1.391 . S
C1953 H1941 0.950 . S
C1953 C1949 1.393 . S
C1953 C1952 1.391 . S
C1954 H1944 0.950 . S
C1954 C1955 1.386 . S
C1954 C1956 1.391 . S
C1955 C1954 1.386 . S
C1955 C1959 1.393 . S
C1956 H1945 0.950 . S
C1956 C1954 1.391 . S
C1956 C1957 1.400 . S
C1957 C1951 1.491 . S
C1957 C1956 1.400 . S
C1957 C1958 1.398 . S
C1958 H1946 0.950 . S
C1958 C1957 1.398 . S
C1958 C1959 1.391 . S
C1959 H1947 0.950 1_455 S
C1959 C1955 1.393 . S
C1959 C1958 1.391 . S
H1960 C1968 0.950 . S
H1961 C1973 0.950 . S
H1962 C1970 0.950 . S
H1963 C1972 0.950 . S
H1964 C1974 0.950 . S
H1965 C1976 0.950 . S
H1966 C1978 0.950 . S
H1967 C1979 0.950 . S
C1968 H1960 0.950 . S
C1968 C1969 1.386 . S
C1968 C1970 1.391 . S
C1969 C1968 1.386 . S
C1969 C1973 1.393 . S
C1970 H1962 0.950 . S
C1970 C1968 1.391 . S
C1970 C1971 1.400 . S
C1971 C1970 1.400 . S
C1971 C1972 1.398 . S
C1971 C1977 1.491 . S
C1972 H1963 0.950 . S
C1972 C1971 1.398 . S
C1972 C1973 1.391 . S
C1973 H1961 0.950 . S
C1973 C1969 1.393 . S
C1973 C1972 1.391 . S
C1974 H1964 0.950 . S
C1974 C1975 1.386 . S
C1974 C1976 1.391 . S
C1975 C1974 1.386 . S
C1975 C1979 1.393 . S
C1976 H1965 0.950 . S
C1976 C1974 1.391 . S
C1976 C1977 1.400 . S
C1977 C1971 1.491 . S
C1977 C1976 1.400 . S
C1977 C1978 1.398 . S
C1978 H1966 0.950 . S
C1978 C1977 1.398 . S
C1978 C1979 1.391 . S
C1979 H1967 0.950 . S
C1979 C1975 1.393 . S
C1979 C1978 1.391 . S
H1980 C1988 0.950 . S
H1981 C1993 0.950 . S
H1982 C1990 0.950 . S
H1983 C1992 0.950 . S
H1984 C1994 0.950 . S
H1985 C1996 0.950 . S
H1986 C1998 0.950 . S
H1987 C1999 0.950 . S
C1988 H1980 0.950 . S
C1988 C1989 1.386 . S
C1988 C1990 1.391 . S
C1989 C1988 1.386 . S
C1989 C1993 1.393 . S
C1990 H1982 0.950 . S
C1990 C1988 1.391 . S
C1990 C1991 1.400 . S
C1991 C1990 1.400 . S
C1991 C1992 1.398 . S
C1991 C1997 1.491 . S
C1992 H1983 0.950 . S
C1992 C1991 1.398 . S
C1992 C1993 1.391 . S
C1993 H1981 0.950 . S
C1993 C1989 1.393 . S
C1993 C1992 1.391 . S
C1994 H1984 0.950 . S
C1994 C1995 1.386 . S
C1994 C1996 1.391 . S
C1995 C1994 1.386 . S
C1995 C1999 1.393 . S
C1996 H1985 0.950 . S
C1996 C1994 1.391 . S
C1996 C1997 1.400 . S
C1997 C1991 1.491 . S
C1997 C1996 1.400 . S
C1997 C1998 1.398 . S
C1998 H1986 0.950 . S
C1998 C1997 1.398 . S
C1998 C1999 1.391 . S
C1999 H1987 0.950 . S
C1999 C1995 1.393 . S
C1999 C1998 1.391 . S
H2000 C2008 0.950 . S
H2001 C2013 0.950 . S
H2002 C2010 0.950 . S
H2003 C2012 0.950 . S
H2004 C2014 0.950 . S
H2005 C2016 0.950 . S
H2006 C2018 0.950 . S
H2007 C2019 0.950 . S
C2008 H2000 0.950 . S
C2008 C2009 1.386 . S
C2008 C2010 1.391 . S
C2009 C2008 1.386 . S
C2009 C2013 1.393 . S
C2010 H2002 0.950 . S
C2010 C2008 1.391 . S
C2010 C2011 1.400 . S
C2011 C2010 1.400 . S
C2011 C2012 1.398 . S
C2011 C2017 1.491 . S
C2012 H2003 0.950 . S
C2012 C2011 1.398 . S
C2012 C2013 1.391 . S
C2013 H2001 0.950 . S
C2013 C2009 1.393 . S
C2013 C2012 1.391 . S
C2014 H2004 0.950 . S
C2014 C2015 1.386 . S
C2014 C2016 1.391 . S
C2015 C2014 1.386 . S
C2015 C2019 1.393 . S
C2016 H2005 0.950 . S
C2016 C2014 1.391 . S
C2016 C2017 1.400 . S
C2017 C2011 1.491 . S
C2017 C2016 1.400 . S
C2017 C2018 1.398 . S
C2018 H2006 0.950 . S
C2018 C2017 1.398 . S
C2018 C2019 1.391 . S
C2019 H2007 0.950 . S
C2019 C2015 1.393 . S
C2019 C2018 1.391 . S
H2020 C2028 0.950 . S
H2021 C2033 0.950 . S
H2022 C2030 0.950 . S
H2023 C2032 0.950 . S
H2024 C2034 0.950 . S
H2025 C2036 0.950 . S
H2026 C2038 0.950 . S
H2027 C2039 0.950 . S
C2028 H2020 0.950 . S
C2028 C2029 1.386 . S
C2028 C2030 1.391 . S
C2029 C2028 1.386 . S
C2029 C2033 1.393 . S
C2030 H2022 0.950 . S
C2030 C2028 1.391 . S
C2030 C2031 1.400 . S
C2031 C2030 1.400 . S
C2031 C2032 1.398 . S
C2031 C2037 1.491 . S
C2032 H2023 0.950 . S
C2032 C2031 1.398 . S
C2032 C2033 1.391 . S
C2033 H2021 0.950 . S
C2033 C2029 1.393 . S
C2033 C2032 1.391 . S
C2034 H2024 0.950 . S
C2034 C2035 1.386 . S
C2034 C2036 1.391 . S
C2035 C2034 1.386 . S
C2035 C2039 1.393 . S
C2036 H2025 0.950 . S
C2036 C2034 1.391 . S
C2036 C2037 1.400 . S
C2037 C2031 1.491 . S
C2037 C2036 1.400 . S
C2037 C2038 1.398 . S
C2038 H2026 0.950 . S
C2038 C2037 1.398 . S
C2038 C2039 1.391 . S
C2039 H2027 0.950 . S
C2039 C2035 1.393 . S
C2039 C2038 1.391 . S
H2040 C2048 0.950 1_554 S
H2041 C2053 0.950 . S
H2042 C2050 0.950 1_554 S
H2043 C2052 0.950 . S
H2044 C2054 0.950 . S
H2045 C2056 0.950 . S
H2046 C2058 0.945 1_554 S
H2047 C2059 0.950 . S
C2048 H2040 0.950 1_556 S
C2048 C2049 1.386 . S
C2048 C2050 1.391 . S
C2049 C2048 1.386 . S
C2049 C2053 1.393 . S
C2050 H2042 0.950 1_556 S
C2050 C2048 1.391 . S
C2050 C2051 1.400 . S
C2051 C2050 1.400 . S
C2051 C2052 1.398 . S
C2051 C2057 1.491 . S
C2052 H2043 0.950 . S
C2052 C2051 1.398 . S
C2052 C2053 1.391 . S
C2053 H2041 0.950 . S
C2053 C2049 1.393 . S
C2053 C2052 1.391 . S
C2054 H2044 0.950 . S
C2054 C2055 1.386 . S
C2054 C2056 1.391 . S
C2055 C2054 1.386 . S
C2055 C2059 1.393 1_556 S
C2056 H2045 0.950 . S
C2056 C2054 1.391 . S
C2056 C2057 1.400 . S
C2057 C2051 1.491 . S
C2057 C2056 1.400 . S
C2057 C2058 1.404 . S
C2058 H2046 0.945 1_556 S
C2058 C2057 1.404 . S
C2058 C2059 1.390 1_556 S
C2059 H2047 0.950 . S
C2059 C2055 1.393 1_554 S
C2059 C2058 1.390 1_554 S
H2060 C2068 0.950 . S
H2061 C2073 0.950 . S
H2062 C2070 0.950 . S
H2063 C2072 0.950 . S
H2064 C2074 0.950 . S
H2065 C2076 0.950 . S
H2066 C2078 0.950 . S
H2067 C2079 0.950 . S
C2068 H2060 0.950 . S
C2068 C2069 1.386 . S
C2068 C2070 1.391 . S
C2069 C2068 1.386 . S
C2069 C2073 1.393 . S
C2070 H2062 0.950 . S
C2070 C2068 1.391 . S
C2070 C2071 1.400 . S
C2071 C2070 1.400 . S
C2071 C2072 1.398 . S
C2071 C2077 1.491 . S
C2072 H2063 0.950 . S
C2072 C2071 1.398 . S
C2072 C2073 1.391 . S
C2073 H2061 0.950 . S
C2073 C2069 1.393 . S
C2073 C2072 1.391 . S
C2074 H2064 0.950 . S
C2074 C2075 1.386 . S
C2074 C2076 1.391 . S
C2075 C2074 1.386 . S
C2075 C2079 1.393 . S
C2076 H2065 0.950 . S
C2076 C2074 1.391 . S
C2076 C2077 1.400 . S
C2077 C2071 1.491 . S
C2077 C2076 1.400 . S
C2077 C2078 1.398 . S
C2078 H2066 0.950 . S
C2078 C2077 1.398 . S
C2078 C2079 1.391 . S
C2079 H2067 0.950 . S
C2079 C2075 1.393 . S
C2079 C2078 1.391 . S
H2080 C2088 0.950 . S
H2081 C2093 0.950 . S
H2082 C2090 0.950 . S
H2083 C2092 0.950 . S
H2084 C2094 0.950 . S
H2085 C2096 0.950 . S
H2086 C2098 0.950 . S
H2087 C2099 0.950 . S
C2088 H2080 0.950 . S
C2088 C2089 1.386 . S
C2088 C2090 1.391 . S
C2089 C2088 1.386 . S
C2089 C2093 1.393 . S
C2090 H2082 0.950 . S
C2090 C2088 1.391 . S
C2090 C2091 1.400 . S
C2091 C2090 1.400 . S
C2091 C2092 1.398 . S
C2091 C2097 1.491 . S
C2092 H2083 0.950 . S
C2092 C2091 1.398 . S
C2092 C2093 1.391 . S
C2093 H2081 0.950 . S
C2093 C2089 1.393 . S
C2093 C2092 1.391 . S
C2094 H2084 0.950 . S
C2094 C2095 1.386 . S
C2094 C2096 1.391 . S
C2095 C2094 1.386 . S
C2095 C2099 1.393 . S
C2096 H2085 0.950 . S
C2096 C2094 1.391 . S
C2096 C2097 1.400 . S
C2097 C2091 1.491 . S
C2097 C2096 1.400 . S
C2097 C2098 1.398 . S
C2098 H2086 0.950 . S
C2098 C2097 1.398 . S
C2098 C2099 1.391 . S
C2099 H2087 0.950 . S
C2099 C2095 1.393 . S
C2099 C2098 1.391 . S
H2100 C2108 0.950 . S
H2101 C2113 0.950 . S
H2102 C2110 0.950 . S
H2103 C2112 0.950 . S
H2104 C2114 0.950 . S
H2105 C2116 0.950 . S
H2106 C2118 0.950 . S
H2107 C2119 0.950 . S
C2108 H2100 0.950 . S
C2108 C2109 1.386 . S
C2108 C2110 1.391 . S
C2109 C2108 1.386 . S
C2109 C2113 1.393 . S
C2110 H2102 0.950 . S
C2110 C2108 1.391 . S
C2110 C2111 1.400 . S
C2111 C2110 1.400 . S
C2111 C2112 1.398 . S
C2111 C2117 1.491 . S
C2112 H2103 0.950 . S
C2112 C2111 1.398 . S
C2112 C2113 1.391 . S
C2113 H2101 0.950 . S
C2113 C2109 1.393 . S
C2113 C2112 1.391 . S
C2114 H2104 0.950 . S
C2114 C2115 1.386 . S
C2114 C2116 1.391 . S
C2115 C2114 1.386 . S
C2115 C2119 1.393 . S
C2116 H2105 0.950 . S
C2116 C2114 1.391 . S
C2116 C2117 1.400 . S
C2117 C2111 1.491 . S
C2117 C2116 1.400 . S
C2117 C2118 1.398 . S
C2118 H2106 0.950 . S
C2118 C2117 1.398 . S
C2118 C2119 1.391 . S
C2119 H2107 0.950 . S
C2119 C2115 1.393 . S
C2119 C2118 1.391 . S
H2120 C2128 0.950 . S
H2121 C2133 0.950 . S
H2122 C2130 0.950 . S
H2123 C2132 0.950 . S
H2124 C2134 0.950 . S
H2125 C2136 0.950 . S
H2126 C2138 0.950 . S
H2127 C2139 0.950 . S
C2128 H2120 0.950 . S
C2128 C2129 1.386 . S
C2128 C2130 1.391 . S
C2129 C2128 1.386 . S
C2129 C2133 1.393 . S
C2130 H2122 0.950 . S
C2130 C2128 1.391 . S
C2130 C2131 1.400 . S
C2131 C2130 1.400 . S
C2131 C2132 1.398 . S
C2131 C2137 1.491 . S
C2132 H2123 0.950 . S
C2132 C2131 1.398 . S
C2132 C2133 1.391 . S
C2133 H2121 0.950 . S
C2133 C2129 1.393 . S
C2133 C2132 1.391 . S
C2134 H2124 0.950 . S
C2134 C2135 1.386 . S
C2134 C2136 1.391 . S
C2135 C2134 1.386 . S
C2135 C2139 1.393 . S
C2136 H2125 0.950 . S
C2136 C2134 1.391 . S
C2136 C2137 1.400 . S
C2137 C2131 1.491 . S
C2137 C2136 1.400 . S
C2137 C2138 1.398 . S
C2138 H2126 0.950 . S
C2138 C2137 1.398 . S
C2138 C2139 1.391 . S
C2139 H2127 0.950 . S
C2139 C2135 1.393 . S
C2139 C2138 1.391 . S
H2140 C2148 0.950 . S
H2141 C2153 0.950 . S
H2142 C2150 0.950 . S
H2143 C2152 0.950 . S
H2144 C2154 0.950 . S
H2145 C2156 0.950 . S
H2146 C2158 0.950 . S
H2147 C2159 0.950 . S
C2148 H2140 0.950 . S
C2148 C2149 1.386 . S
C2148 C2150 1.391 . S
C2149 C2148 1.386 . S
C2149 C2153 1.393 . S
C2150 H2142 0.950 . S
C2150 C2148 1.391 . S
C2150 C2151 1.400 . S
C2151 C2150 1.400 . S
C2151 C2152 1.398 . S
C2151 C2157 1.491 . S
C2152 H2143 0.950 . S
C2152 C2151 1.398 . S
C2152 C2153 1.391 . S
C2153 H2141 0.950 . S
C2153 C2149 1.393 . S
C2153 C2152 1.391 . S
C2154 H2144 0.950 . S
C2154 C2155 1.386 . S
C2154 C2156 1.391 . S
C2155 C2154 1.386 . S
C2155 C2159 1.393 . S
C2156 H2145 0.950 . S
C2156 C2154 1.391 . S
C2156 C2157 1.400 . S
C2157 C2151 1.491 . S
C2157 C2156 1.400 . S
C2157 C2158 1.398 . S
C2158 H2146 0.950 . S
C2158 C2157 1.398 . S
C2158 C2159 1.391 . S
C2159 H2147 0.950 . S
C2159 C2155 1.393 . S
C2159 C2158 1.391 . S
H2160 C2168 0.950 . S
H2161 C2173 0.950 . S
H2162 C2170 0.950 . S
H2163 C2172 0.950 . S
H2164 C2174 0.950 . S
H2165 C2176 0.950 . S
H2166 C2178 0.950 . S
H2167 C2179 0.950 . S
C2168 H2160 0.950 . S
C2168 C2169 1.386 . S
C2168 C2170 1.391 . S
C2169 C2168 1.386 . S
C2169 C2173 1.393 . S
C2170 H2162 0.950 . S
C2170 C2168 1.391 . S
C2170 C2171 1.400 . S
C2171 C2170 1.400 . S
C2171 C2172 1.398 . S
C2171 C2177 1.491 . S
C2172 H2163 0.950 . S
C2172 C2171 1.398 . S
C2172 C2173 1.391 . S
C2173 H2161 0.950 . S
C2173 C2169 1.393 . S
C2173 C2172 1.391 . S
C2174 H2164 0.950 . S
C2174 C2175 1.386 . S
C2174 C2176 1.391 . S
C2175 C2174 1.386 . S
C2175 C2179 1.393 . S
C2176 H2165 0.950 . S
C2176 C2174 1.391 . S
C2176 C2177 1.400 . S
C2177 C2171 1.491 . S
C2177 C2176 1.400 . S
C2177 C2178 1.398 . S
C2178 H2166 0.950 . S
C2178 C2177 1.398 . S
C2178 C2179 1.391 . S
C2179 H2167 0.950 . S
C2179 C2175 1.393 . S
C2179 C2178 1.391 . S
H2180 C2188 0.950 . S
H2181 C2193 0.950 . S
H2182 C2190 0.950 . S
H2183 C2192 0.950 . S
H2184 C2194 0.950 . S
H2185 C2196 0.950 . S
H2186 C2198 0.950 . S
H2187 C2199 0.950 . S
C2188 H2180 0.950 . S
C2188 C2189 1.386 . S
C2188 C2190 1.391 . S
C2189 C2188 1.386 . S
C2189 C2193 1.393 . S
C2190 H2182 0.950 . S
C2190 C2188 1.391 . S
C2190 C2191 1.400 . S
C2191 C2190 1.400 . S
C2191 C2192 1.398 . S
C2191 C2197 1.491 . S
C2192 H2183 0.950 . S
C2192 C2191 1.398 . S
C2192 C2193 1.391 . S
C2193 H2181 0.950 . S
C2193 C2189 1.393 . S
C2193 C2192 1.391 . S
C2194 H2184 0.950 . S
C2194 C2195 1.386 . S
C2194 C2196 1.391 . S
C2195 C2194 1.386 . S
C2195 C2199 1.393 . S
C2196 H2185 0.950 . S
C2196 C2194 1.391 . S
C2196 C2197 1.400 . S
C2197 C2191 1.491 . S
C2197 C2196 1.400 . S
C2197 C2198 1.398 . S
C2198 H2186 0.950 . S
C2198 C2197 1.398 . S
C2198 C2199 1.391 . S
C2199 H2187 0.950 . S
C2199 C2195 1.393 . S
C2199 C2198 1.391 . S
H2200 C2208 0.950 . S
H2201 C2213 0.950 . S
H2202 C2210 0.950 . S
H2203 C2212 0.950 . S
H2204 C2214 0.950 . S
H2205 C2216 0.950 . S
H2206 C2218 0.950 . S
H2207 C2219 0.950 . S
C2208 H2200 0.950 . S
C2208 C2209 1.386 . S
C2208 C2210 1.391 . S
C2209 C2208 1.386 . S
C2209 C2213 1.393 . S
C2210 H2202 0.950 . S
C2210 C2208 1.391 . S
C2210 C2211 1.400 . S
C2211 C2210 1.400 . S
C2211 C2212 1.398 . S
C2211 C2217 1.491 . S
C2212 H2203 0.950 . S
C2212 C2211 1.398 . S
C2212 C2213 1.391 . S
C2213 H2201 0.950 . S
C2213 C2209 1.393 . S
C2213 C2212 1.391 . S
C2214 H2204 0.950 . S
C2214 C2215 1.386 . S
C2214 C2216 1.391 . S
C2215 C2214 1.386 . S
C2215 C2219 1.393 . S
C2216 H2205 0.950 . S
C2216 C2214 1.391 . S
C2216 C2217 1.400 . S
C2217 C2211 1.491 . S
C2217 C2216 1.400 . S
C2217 C2218 1.398 . S
C2218 H2206 0.950 . S
C2218 C2217 1.398 . S
C2218 C2219 1.391 . S
C2219 H2207 0.950 . S
C2219 C2215 1.393 . S
C2219 C2218 1.391 . S
H2220 C2228 0.950 . S
H2221 C2233 0.950 . S
H2222 C2230 0.950 . S
H2223 C2232 0.950 . S
H2224 C2234 0.950 . S
H2225 C2236 0.950 . S
H2226 C2238 0.950 . S
H2227 C2239 0.950 . S
C2228 H2220 0.950 . S
C2228 C2229 1.386 . S
C2228 C2230 1.391 . S
C2229 C2228 1.386 . S
C2229 C2233 1.393 . S
C2230 H2222 0.950 . S
C2230 C2228 1.391 . S
C2230 C2231 1.400 . S
C2231 C2230 1.400 . S
C2231 C2232 1.398 . S
C2231 C2237 1.491 . S
C2232 H2223 0.950 . S
C2232 C2231 1.398 . S
C2232 C2233 1.391 . S
C2233 H2221 0.950 . S
C2233 C2229 1.393 . S
C2233 C2232 1.391 . S
C2234 H2224 0.950 . S
C2234 C2235 1.386 . S
C2234 C2236 1.391 . S
C2235 C2234 1.386 . S
C2235 C2239 1.393 . S
C2236 H2225 0.950 . S
C2236 C2234 1.391 . S
C2236 C2237 1.400 . S
C2237 C2231 1.491 . S
C2237 C2236 1.400 . S
C2237 C2238 1.398 . S
C2238 H2226 0.950 . S
C2238 C2237 1.398 . S
C2238 C2239 1.391 . S
C2239 H2227 0.950 . S
C2239 C2235 1.393 . S
C2239 C2238 1.391 . S
H2240 C2248 0.950 . S
H2241 C2253 0.950 . S
H2242 C2250 0.950 . S
H2243 C2252 0.950 . S
H2244 C2254 0.950 . S
H2245 C2256 0.950 . S
H2246 C2258 0.950 . S
H2247 C2259 0.950 . S
C2248 H2240 0.950 . S
C2248 C2249 1.386 . S
C2248 C2250 1.391 . S
C2249 C2248 1.386 . S
C2249 C2253 1.393 . S
C2250 H2242 0.950 . S
C2250 C2248 1.391 . S
C2250 C2251 1.400 . S
C2251 C2250 1.400 . S
C2251 C2252 1.398 . S
C2251 C2257 1.491 . S
C2252 H2243 0.950 . S
C2252 C2251 1.398 . S
C2252 C2253 1.391 . S
C2253 H2241 0.950 . S
C2253 C2249 1.393 . S
C2253 C2252 1.391 . S
C2254 H2244 0.950 . S
C2254 C2255 1.386 . S
C2254 C2256 1.391 . S
C2255 C2254 1.386 . S
C2255 C2259 1.393 . S
C2256 H2245 0.950 . S
C2256 C2254 1.391 . S
C2256 C2257 1.400 . S
C2257 C2251 1.491 . S
C2257 C2256 1.400 . S
C2257 C2258 1.398 . S
C2258 H2246 0.950 . S
C2258 C2257 1.398 . S
C2258 C2259 1.391 . S
C2259 H2247 0.950 . S
C2259 C2255 1.393 . S
C2259 C2258 1.391 . S
H2260 C2268 0.950 . S
H2261 C2273 0.950 1_565 S
H2262 C2270 0.950 . S
H2263 C2272 0.950 1_565 S
H2264 C2274 0.950 . S
H2265 C2276 0.938 1_565 S
H2266 C2278 0.950 . S
H2267 C2279 0.950 . S
C2268 H2260 0.950 . S
C2268 C2269 1.386 . S
C2268 C2270 1.391 . S
C2269 C2268 1.386 . S
C2269 C2273 1.393 . S
C2270 H2262 0.950 . S
C2270 C2268 1.391 . S
C2270 C2271 1.400 . S
C2271 C2270 1.400 . S
C2271 C2272 1.398 . S
C2271 C2277 1.491 . S
C2272 H2263 0.950 1_545 S
C2272 C2271 1.398 . S
C2272 C2273 1.391 . S
C2273 H2261 0.950 1_545 S
C2273 C2269 1.393 . S
C2273 C2272 1.391 . S
C2274 H2264 0.950 . S
C2274 C2275 1.386 1_565 S
C2274 C2276 1.390 1_565 S
C2275 C2274 1.386 1_545 S
C2275 C2279 1.393 . S
C2276 H2265 0.938 1_545 S
C2276 C2274 1.390 1_545 S
C2276 C2277 1.413 . S
C2277 C2271 1.491 . S
C2277 C2276 1.413 . S
C2277 C2278 1.398 . S
C2278 H2266 0.950 . S
C2278 C2277 1.398 . S
C2278 C2279 1.391 . S
C2279 H2267 0.950 . S
C2279 C2275 1.393 . S
C2279 C2278 1.391 . S
H2280 C2288 0.950 . S
H2281 C2293 0.950 . S
H2282 C2290 0.950 . S
H2283 C2292 0.950 . S
H2284 C2294 0.950 . S
H2285 C2296 0.950 . S
H2286 C2298 0.950 . S
H2287 C2299 0.950 . S
C2288 H2280 0.950 . S
C2288 C2289 1.386 . S
C2288 C2290 1.391 . S
C2289 C2288 1.386 . S
C2289 C2293 1.393 . S
C2290 H2282 0.950 . S
C2290 C2288 1.391 . S
C2290 C2291 1.400 . S
C2291 C2290 1.400 . S
C2291 C2292 1.398 . S
C2291 C2297 1.491 . S
C2292 H2283 0.950 . S
C2292 C2291 1.398 . S
C2292 C2293 1.391 . S
C2293 H2281 0.950 . S
C2293 C2289 1.393 . S
C2293 C2292 1.391 . S
C2294 H2284 0.950 . S
C2294 C2295 1.386 . S
C2294 C2296 1.391 . S
C2295 C2294 1.386 . S
C2295 C2299 1.393 . S
C2296 H2285 0.950 . S
C2296 C2294 1.391 . S
C2296 C2297 1.400 . S
C2297 C2291 1.491 . S
C2297 C2296 1.400 . S
C2297 C2298 1.398 . S
C2298 H2286 0.950 . S
C2298 C2297 1.398 . S
C2298 C2299 1.391 . S
C2299 H2287 0.950 . S
C2299 C2295 1.393 . S
C2299 C2298 1.391 . S
H2300 C2308 0.950 . S
H2301 C2313 0.950 . S
H2302 C2310 0.950 . S
H2303 C2312 0.950 . S
H2304 C2314 0.950 . S
H2305 C2316 0.950 . S
H2306 C2318 0.950 . S
H2307 C2319 0.950 . S
C2308 H2300 0.950 . S
C2308 C2309 1.386 . S
C2308 C2310 1.391 . S
C2309 C2308 1.386 . S
C2309 C2313 1.393 . S
C2310 H2302 0.950 . S
C2310 C2308 1.391 . S
C2310 C2311 1.400 . S
C2311 C2310 1.400 . S
C2311 C2312 1.398 . S
C2311 C2317 1.491 . S
C2312 H2303 0.950 . S
C2312 C2311 1.398 . S
C2312 C2313 1.391 . S
C2313 H2301 0.950 . S
C2313 C2309 1.393 . S
C2313 C2312 1.391 . S
C2314 H2304 0.950 . S
C2314 C2315 1.386 . S
C2314 C2316 1.391 . S
C2315 C2314 1.386 . S
C2315 C2319 1.393 . S
C2316 H2305 0.950 . S
C2316 C2314 1.391 . S
C2316 C2317 1.400 . S
C2317 C2311 1.491 . S
C2317 C2316 1.400 . S
C2317 C2318 1.398 . S
C2318 H2306 0.950 . S
C2318 C2317 1.398 . S
C2318 C2319 1.391 . S
C2319 H2307 0.950 . S
C2319 C2315 1.393 . S
C2319 C2318 1.391 . S
H2320 C2328 0.950 . S
H2321 C2333 0.950 . S
H2322 C2330 0.950 . S
H2323 C2332 0.950 . S
H2324 C2334 0.950 . S
H2325 C2336 0.950 . S
H2326 C2338 0.950 . S
H2327 C2339 0.950 . S
C2328 H2320 0.950 . S
C2328 C2329 1.386 . S
C2328 C2330 1.391 . S
C2329 C2328 1.386 . S
C2329 C2333 1.393 . S
C2330 H2322 0.950 . S
C2330 C2328 1.391 . S
C2330 C2331 1.400 . S
C2331 C2330 1.400 . S
C2331 C2332 1.398 . S
C2331 C2337 1.491 . S
C2332 H2323 0.950 . S
C2332 C2331 1.398 . S
C2332 C2333 1.391 . S
C2333 H2321 0.950 . S
C2333 C2329 1.393 . S
C2333 C2332 1.391 . S
C2334 H2324 0.950 . S
C2334 C2335 1.386 . S
C2334 C2336 1.391 . S
C2335 C2334 1.386 . S
C2335 C2339 1.393 . S
C2336 H2325 0.950 . S
C2336 C2334 1.391 . S
C2336 C2337 1.400 . S
C2337 C2331 1.491 . S
C2337 C2336 1.400 . S
C2337 C2338 1.398 . S
C2338 H2326 0.950 . S
C2338 C2337 1.398 . S
C2338 C2339 1.391 . S
C2339 H2327 0.950 . S
C2339 C2335 1.393 . S
C2339 C2338 1.391 . S
H2340 C2348 0.950 . S
H2341 C2353 0.992 . S
H2342 C2350 0.950 . S
H2343 C2352 0.950 . S
H2344 C2354 0.950 . S
H2345 C2356 0.950 . S
H2346 C2358 0.950 . S
H2347 C2359 0.950 . S
C2348 H2340 0.950 . S
C2348 C2349 1.386 . S
C2348 C2350 1.391 . S
C2349 C2348 1.386 . S
C2349 C2353 1.393 . S
C2350 H2342 0.950 . S
C2350 C2348 1.391 . S
C2350 C2351 1.400 . S
C2351 C2350 1.400 . S
C2351 C2352 1.398 . S
C2351 C2357 1.491 . S
C2352 H2343 0.950 . S
C2352 C2351 1.398 . S
C2352 C2353 1.391 . S
C2353 H2341 0.992 . S
C2353 C2349 1.393 . S
C2353 C2352 1.391 . S
C2354 H2344 0.950 . S
C2354 C2355 1.386 . S
C2354 C2356 1.391 . S
C2355 C2354 1.386 . S
C2355 C2359 1.393 . S
C2356 H2345 0.950 . S
C2356 C2354 1.391 . S
C2356 C2357 1.400 . S
C2357 C2351 1.491 . S
C2357 C2356 1.400 . S
C2357 C2358 1.398 . S
C2358 H2346 0.950 . S
C2358 C2357 1.398 . S
C2358 C2359 1.391 . S
C2359 H2347 0.950 . S
C2359 C2355 1.393 . S
C2359 C2358 1.391 . S
H2360 C2368 0.950 . S
H2361 C2373 0.950 . S
H2362 C2370 0.950 . S
H2363 C2372 0.950 . S
H2364 C2374 0.950 . S
H2365 C2376 0.950 . S
H2366 C2378 0.950 . S
H2367 C2379 0.950 . S
C2368 H2360 0.950 . S
C2368 C2369 1.386 . S
C2368 C2370 1.391 . S
C2369 C2368 1.386 . S
C2369 C2373 1.393 . S
C2370 H2362 0.950 . S
C2370 C2368 1.391 . S
C2370 C2371 1.400 . S
C2371 C2370 1.400 . S
C2371 C2372 1.398 . S
C2371 C2377 1.491 . S
C2372 H2363 0.950 . S
C2372 C2371 1.398 . S
C2372 C2373 1.391 . S
C2373 H2361 0.950 . S
C2373 C2369 1.393 . S
C2373 C2372 1.391 . S
C2374 H2364 0.950 . S
C2374 C2375 1.386 . S
C2374 C2376 1.391 . S
C2375 C2374 1.386 . S
C2375 C2379 1.393 . S
C2376 H2365 0.950 . S
C2376 C2374 1.391 . S
C2376 C2377 1.400 . S
C2377 C2371 1.491 . S
C2377 C2376 1.400 . S
C2377 C2378 1.398 . S
C2378 H2366 0.950 . S
C2378 C2377 1.398 . S
C2378 C2379 1.391 . S
C2379 H2367 0.950 . S
C2379 C2375 1.393 . S
C2379 C2378 1.391 . S
H2380 C2388 0.950 . S
H2381 C2393 0.950 . S
H2382 C2390 0.950 . S
H2383 C2392 0.950 . S
H2384 C2394 0.950 . S
H2385 C2396 0.950 . S
H2386 C2398 0.950 . S
H2387 C2399 0.950 . S
C2388 H2380 0.950 . S
C2388 C2389 1.386 . S
C2388 C2390 1.391 . S
C2389 C2388 1.386 . S
C2389 C2393 1.393 . S
C2390 H2382 0.950 . S
C2390 C2388 1.391 . S
C2390 C2391 1.400 . S
C2391 C2390 1.400 . S
C2391 C2392 1.398 . S
C2391 C2397 1.491 . S
C2392 H2383 0.950 . S
C2392 C2391 1.398 . S
C2392 C2393 1.391 . S
C2393 H2381 0.950 . S
C2393 C2389 1.393 . S
C2393 C2392 1.391 . S
C2394 H2384 0.950 . S
C2394 C2395 1.386 . S
C2394 C2396 1.391 . S
C2395 C2394 1.386 . S
C2395 C2399 1.393 . S
C2396 H2385 0.950 . S
C2396 C2394 1.391 . S
C2396 C2397 1.400 . S
C2397 C2391 1.491 . S
C2397 C2396 1.400 . S
C2397 C2398 1.398 . S
C2398 H2386 0.950 . S
C2398 C2397 1.398 . S
C2398 C2399 1.391 . S
C2399 H2387 0.950 . S
C2399 C2395 1.393 . S
C2399 C2398 1.391 . S
H2400 C2408 0.950 . S
H2401 C2413 0.950 . S
H2402 C2410 0.950 . S
H2403 C2412 0.950 . S
H2404 C2414 0.950 . S
H2405 C2416 0.950 . S
H2406 C2418 0.950 . S
H2407 C2419 0.950 . S
C2408 H2400 0.950 . S
C2408 C2409 1.386 . S
C2408 C2410 1.391 . S
C2409 C2408 1.386 . S
C2409 C2413 1.393 . S
C2410 H2402 0.950 . S
C2410 C2408 1.391 . S
C2410 C2411 1.400 . S
C2411 C2410 1.400 . S
C2411 C2412 1.398 . S
C2411 C2417 1.491 . S
C2412 H2403 0.950 . S
C2412 C2411 1.398 . S
C2412 C2413 1.391 . S
C2413 H2401 0.950 . S
C2413 C2409 1.393 . S
C2413 C2412 1.391 . S
C2414 H2404 0.950 . S
C2414 C2415 1.386 . S
C2414 C2416 1.391 . S
C2415 C2414 1.386 . S
C2415 C2419 1.393 . S
C2416 H2405 0.950 . S
C2416 C2414 1.391 . S
C2416 C2417 1.400 . S
C2417 C2411 1.491 . S
C2417 C2416 1.400 . S
C2417 C2418 1.398 . S
C2418 H2406 0.950 . S
C2418 C2417 1.398 . S
C2418 C2419 1.391 . S
C2419 H2407 0.950 . S
C2419 C2415 1.393 . S
C2419 C2418 1.391 . S
H2420 C2428 0.950 . S
H2421 C2433 0.950 . S
H2422 C2430 0.950 . S
H2423 C2432 0.950 . S
H2424 C2434 0.950 . S
H2425 C2436 0.950 . S
H2426 C2438 0.950 . S
H2427 C2439 0.950 . S
C2428 H2420 0.950 . S
C2428 C2429 1.386 . S
C2428 C2430 1.391 . S
C2429 C2428 1.386 . S
C2429 C2433 1.393 . S
C2430 H2422 0.950 . S
C2430 C2428 1.391 . S
C2430 C2431 1.400 . S
C2431 C2430 1.400 . S
C2431 C2432 1.398 . S
C2431 C2437 1.491 . S
C2432 H2423 0.950 . S
C2432 C2431 1.398 . S
C2432 C2433 1.391 . S
C2433 H2421 0.950 . S
C2433 C2429 1.393 . S
C2433 C2432 1.391 . S
C2434 H2424 0.950 . S
C2434 C2435 1.386 . S
C2434 C2436 1.391 . S
C2435 C2434 1.386 . S
C2435 C2439 1.393 . S
C2436 H2425 0.950 . S
C2436 C2434 1.391 . S
C2436 C2437 1.400 . S
C2437 C2431 1.491 . S
C2437 C2436 1.400 . S
C2437 C2438 1.398 . S
C2438 H2426 0.950 . S
C2438 C2437 1.398 . S
C2438 C2439 1.391 . S
C2439 H2427 0.950 . S
C2439 C2435 1.393 . S
C2439 C2438 1.391 . S
H2440 C2448 0.950 . S
H2441 C2453 0.950 . S
H2442 C2450 0.950 . S
H2443 C2452 0.950 . S
H2444 C2454 0.950 . S
H2445 C2456 0.950 . S
H2446 C2458 0.950 . S
H2447 C2459 0.950 . S
C2448 H2440 0.950 . S
C2448 C2449 1.386 . S
C2448 C2450 1.391 . S
C2449 C2448 1.386 . S
C2449 C2453 1.393 . S
C2450 H2442 0.950 . S
C2450 C2448 1.391 . S
C2450 C2451 1.400 . S
C2451 C2450 1.400 . S
C2451 C2452 1.398 . S
C2451 C2457 1.491 . S
C2452 H2443 0.950 . S
C2452 C2451 1.398 . S
C2452 C2453 1.391 . S
C2453 H2441 0.950 . S
C2453 C2449 1.393 . S
C2453 C2452 1.391 . S
C2454 H2444 0.950 . S
C2454 C2455 1.386 . S
C2454 C2456 1.391 . S
C2455 C2454 1.386 . S
C2455 C2459 1.393 . S
C2456 H2445 0.950 . S
C2456 C2454 1.391 . S
C2456 C2457 1.400 . S
C2457 C2451 1.491 . S
C2457 C2456 1.400 . S
C2457 C2458 1.398 . S
C2458 H2446 0.950 . S
C2458 C2457 1.398 . S
C2458 C2459 1.391 . S
C2459 H2447 0.950 . S
C2459 C2455 1.393 . S
C2459 C2458 1.391 . S
H2460 C2468 0.950 . S
H2461 C2473 0.950 . S
H2462 C2470 0.950 . S
H2463 C2472 0.950 . S
H2464 C2474 0.950 . S
H2465 C2476 0.950 . S
H2466 C2478 0.950 . S
H2467 C2479 0.950 . S
C2468 H2460 0.950 . S
C2468 C2469 1.386 . S
C2468 C2470 1.391 . S
C2469 C2468 1.386 . S
C2469 C2473 1.393 . S
C2470 H2462 0.950 . S
C2470 C2468 1.391 . S
C2470 C2471 1.400 . S
C2471 C2470 1.400 . S
C2471 C2472 1.398 . S
C2471 C2477 1.491 . S
C2472 H2463 0.950 . S
C2472 C2471 1.398 . S
C2472 C2473 1.391 . S
C2473 H2461 0.950 . S
C2473 C2469 1.393 . S
C2473 C2472 1.391 . S
C2474 H2464 0.950 . S
C2474 C2475 1.386 . S
C2474 C2476 1.391 . S
C2475 C2474 1.386 . S
C2475 C2479 1.393 . S
C2476 H2465 0.950 . S
C2476 C2474 1.391 . S
C2476 C2477 1.400 . S
C2477 C2471 1.491 . S
C2477 C2476 1.400 . S
C2477 C2478 1.398 . S
C2478 H2466 0.950 . S
C2478 C2477 1.398 . S
C2478 C2479 1.391 . S
C2479 H2467 0.950 . S
C2479 C2475 1.393 . S
C2479 C2478 1.391 . S
H2480 C2488 0.950 . S
H2481 C2493 0.950 . S
H2482 C2490 0.950 . S
H2483 C2492 0.950 . S
H2484 C2494 0.950 . S
H2485 C2496 0.950 . S
H2486 C2498 0.950 . S
H2487 C2499 0.950 . S
C2488 H2480 0.950 . S
C2488 C2489 1.386 . S
C2488 C2490 1.391 . S
C2489 C2488 1.386 . S
C2489 C2493 1.393 . S
C2490 H2482 0.950 . S
C2490 C2488 1.391 . S
C2490 C2491 1.400 . S
C2491 C2490 1.400 . S
C2491 C2492 1.398 . S
C2491 C2497 1.491 . S
C2492 H2483 0.950 . S
C2492 C2491 1.398 . S
C2492 C2493 1.391 . S
C2493 H2481 0.950 . S
C2493 C2489 1.393 . S
C2493 C2492 1.391 . S
C2494 H2484 0.950 . S
C2494 C2495 1.386 . S
C2494 C2496 1.391 . S
C2495 C2494 1.386 . S
C2495 C2499 1.393 . S
C2496 H2485 0.950 . S
C2496 C2494 1.391 . S
C2496 C2497 1.400 . S
C2497 C2491 1.491 . S
C2497 C2496 1.400 . S
C2497 C2498 1.398 . S
C2498 H2486 0.950 . S
C2498 C2497 1.398 . S
C2498 C2499 1.391 . S
C2499 H2487 0.950 . S
C2499 C2495 1.393 . S
C2499 C2498 1.391 . S
H2500 C2508 0.950 . S
H2501 C2513 0.950 . S
H2502 C2510 0.950 . S
H2503 C2512 0.950 . S
H2504 C2514 0.950 . S
H2505 C2516 0.950 . S
H2506 C2518 0.950 . S
H2507 C2519 0.950 . S
C2508 H2500 0.950 . S
C2508 C2509 1.386 . S
C2508 C2510 1.391 . S
C2509 C2508 1.386 . S
C2509 C2513 1.393 . S
C2510 H2502 0.950 . S
C2510 C2508 1.391 . S
C2510 C2511 1.400 . S
C2511 C2510 1.400 . S
C2511 C2512 1.398 . S
C2511 C2517 1.491 . S
C2512 H2503 0.950 . S
C2512 C2511 1.398 . S
C2512 C2513 1.391 . S
C2513 H2501 0.950 . S
C2513 C2509 1.393 . S
C2513 C2512 1.391 . S
C2514 H2504 0.950 . S
C2514 C2515 1.386 . S
C2514 C2516 1.391 . S
C2515 C2514 1.386 . S
C2515 C2519 1.393 . S
C2516 H2505 0.950 . S
C2516 C2514 1.391 . S
C2516 C2517 1.400 . S
C2517 C2511 1.491 . S
C2517 C2516 1.400 . S
C2517 C2518 1.398 . S
C2518 H2506 0.950 . S
C2518 C2517 1.398 . S
C2518 C2519 1.391 . S
C2519 H2507 0.950 . S
C2519 C2515 1.393 . S
C2519 C2518 1.391 . S
H2520 C2528 0.950 . S
H2521 C2533 0.950 . S
H2522 C2530 0.950 . S
H2523 C2532 0.950 . S
H2524 C2534 0.950 . S
H2525 C2536 0.950 . S
H2526 C2538 0.950 . S
H2527 C2539 0.950 . S
C2528 H2520 0.950 . S
C2528 C2529 1.386 . S
C2528 C2530 1.391 . S
C2529 C2528 1.386 . S
C2529 C2533 1.393 . S
C2530 H2522 0.950 . S
C2530 C2528 1.391 . S
C2530 C2531 1.400 . S
C2531 C2530 1.400 . S
C2531 C2532 1.398 . S
C2531 C2537 1.491 . S
C2532 H2523 0.950 . S
C2532 C2531 1.398 . S
C2532 C2533 1.391 . S
C2533 H2521 0.950 . S
C2533 C2529 1.393 . S
C2533 C2532 1.391 . S
C2534 H2524 0.950 . S
C2534 C2535 1.386 . S
C2534 C2536 1.391 . S
C2535 C2534 1.386 . S
C2535 C2539 1.393 . S
C2536 H2525 0.950 . S
C2536 C2534 1.391 . S
C2536 C2537 1.400 . S
C2537 C2531 1.491 . S
C2537 C2536 1.400 . S
C2537 C2538 1.398 . S
C2538 H2526 0.950 . S
C2538 C2537 1.398 . S
C2538 C2539 1.391 . S
C2539 H2527 0.950 . S
C2539 C2535 1.393 . S
C2539 C2538 1.391 . S
H2540 C2548 0.950 . S
H2541 C2553 0.950 . S
H2542 C2550 0.950 . S
H2543 C2552 0.950 . S
H2544 C2554 0.950 . S
H2545 C2556 0.950 . S
H2546 C2558 0.950 . S
H2547 C2559 0.950 . S
C2548 H2540 0.950 . S
C2548 C2549 1.386 . S
C2548 C2550 1.391 . S
C2549 C2548 1.386 . S
C2549 C2553 1.393 . S
C2550 H2542 0.950 . S
C2550 C2548 1.391 . S
C2550 C2551 1.400 . S
C2551 C2550 1.400 . S
C2551 C2552 1.398 . S
C2551 C2557 1.491 . S
C2552 H2543 0.950 . S
C2552 C2551 1.398 . S
C2552 C2553 1.391 . S
C2553 H2541 0.950 . S
C2553 C2549 1.393 . S
C2553 C2552 1.391 . S
C2554 H2544 0.950 . S
C2554 C2555 1.386 . S
C2554 C2556 1.391 . S
C2555 C2554 1.386 . S
C2555 C2559 1.393 . S
C2556 H2545 0.950 . S
C2556 C2554 1.391 . S
C2556 C2557 1.400 . S
C2557 C2551 1.491 . S
C2557 C2556 1.400 . S
C2557 C2558 1.398 . S
C2558 H2546 0.950 . S
C2558 C2557 1.398 . S
C2558 C2559 1.391 . S
C2559 H2547 0.950 . S
C2559 C2555 1.393 . S
C2559 C2558 1.391 . S
H2560 C2568 0.950 . S
H2561 C2573 0.950 1_554 S
H2562 C2570 0.950 . S
H2563 C2572 0.950 1_554 S
H2564 C2574 0.950 . S
H2565 C2576 0.950 . S
H2566 C2578 0.950 . S
H2567 C2579 0.950 . S
C2568 H2560 0.950 . S
C2568 C2569 1.386 . S
C2568 C2570 1.391 . S
C2569 C2568 1.386 . S
C2569 C2573 1.393 . S
C2570 H2562 0.950 . S
C2570 C2568 1.391 . S
C2570 C2571 1.400 . S
C2571 C2570 1.400 . S
C2571 C2572 1.398 . S
C2571 C2577 1.491 . S
C2572 H2563 0.950 1_556 S
C2572 C2571 1.398 . S
C2572 C2573 1.391 . S
C2573 H2561 0.950 1_556 S
C2573 C2569 1.393 . S
C2573 C2572 1.391 . S
C2574 H2564 0.950 . S
C2574 C2575 1.386 1_554 S
C2574 C2576 1.391 . S
C2575 C2574 1.386 1_556 S
C2575 C2579 1.393 . S
C2576 H2565 0.950 . S
C2576 C2574 1.391 . S
C2576 C2577 1.400 1_554 S
C2577 C2571 1.491 . S
C2577 C2576 1.400 1_556 S
C2577 C2578 1.398 . S
C2578 H2566 0.950 . S
C2578 C2577 1.398 . S
C2578 C2579 1.391 . S
C2579 H2567 0.950 . S
C2579 C2575 1.393 . S
C2579 C2578 1.391 . S
H2580 C2588 0.950 . S
H2581 C2593 0.950 . S
H2582 C2590 0.950 . S
H2583 C2592 0.950 . S
H2584 C2594 0.950 . S
H2585 C2596 0.950 . S
H2586 C2598 0.950 . S
H2587 C2599 0.950 . S
C2588 H2580 0.950 . S
C2588 C2589 1.386 . S
C2588 C2590 1.391 . S
C2589 C2588 1.386 . S
C2589 C2593 1.393 . S
C2590 H2582 0.950 . S
C2590 C2588 1.391 . S
C2590 C2591 1.400 . S
C2591 C2590 1.400 . S
C2591 C2592 1.398 . S
C2591 C2597 1.491 . S
C2592 H2583 0.950 . S
C2592 C2591 1.398 . S
C2592 C2593 1.391 . S
C2593 H2581 0.950 . S
C2593 C2589 1.393 . S
C2593 C2592 1.391 . S
C2594 H2584 0.950 . S
C2594 C2595 1.386 . S
C2594 C2596 1.391 . S
C2595 C2594 1.386 . S
C2595 C2599 1.393 . S
C2596 H2585 0.950 . S
C2596 C2594 1.391 . S
C2596 C2597 1.400 . S
C2597 C2591 1.491 . S
C2597 C2596 1.400 . S
C2597 C2598 1.398 . S
C2598 H2586 0.950 . S
C2598 C2597 1.398 . S
C2598 C2599 1.391 . S
C2599 H2587 0.950 . S
C2599 C2595 1.393 . S
C2599 C2598 1.391 . S
H2600 C2608 0.950 1_556 S
H2601 C2613 0.950 . S
H2602 C2610 0.950 1_556 S
H2603 C2612 0.950 . S
H2604 C2614 0.950 . S
H2605 C2616 0.950 . S
H2606 C2618 0.920 1_556 S
H2607 C2619 0.950 . S
C2608 H2600 0.950 1_554 S
C2608 C2609 1.386 . S
C2608 C2610 1.391 . S
C2609 C2608 1.386 . S
C2609 C2613 1.393 . S
C2610 H2602 0.950 1_554 S
C2610 C2608 1.391 . S
C2610 C2611 1.400 . S
C2611 C2610 1.400 . S
C2611 C2612 1.398 . S
C2611 C2617 1.491 . S
C2612 H2603 0.950 . S
C2612 C2611 1.398 . S
C2612 C2613 1.391 . S
C2613 H2601 0.950 . S
C2613 C2609 1.393 . S
C2613 C2612 1.391 . S
C2614 H2604 0.950 . S
C2614 C2615 1.386 . S
C2614 C2616 1.391 . S
C2615 C2614 1.386 . S
C2615 C2619 1.393 1_554 S
C2616 H2605 0.950 . S
C2616 C2614 1.391 . S
C2616 C2617 1.400 . S
C2617 C2611 1.491 . S
C2617 C2616 1.400 . S
C2617 C2618 1.431 . S
C2618 H2606 0.920 1_554 S
C2618 C2617 1.431 . S
C2618 C2619 1.388 1_554 S
C2619 H2607 0.950 . S
C2619 C2615 1.393 1_556 S
C2619 C2618 1.388 1_556 S
H2620 C2628 0.950 . S
H2621 C2633 0.950 . S
H2622 C2630 0.939 1_556 S
H2623 C2632 0.950 . S
H2624 C2634 0.950 . S
H2625 C2636 0.950 . S
H2626 C2638 0.950 1_556 S
H2627 C2639 0.950 1_556 S
C2628 H2620 0.950 . S
C2628 C2629 1.386 . S
C2628 C2630 1.391 . S
C2629 C2628 1.386 . S
C2629 C2633 1.393 . S
C2630 H2622 0.939 1_554 S
C2630 C2628 1.391 . S
C2630 C2631 1.400 . S
C2631 C2630 1.400 . S
C2631 C2632 1.398 . S
C2631 C2637 1.491 . S
C2632 H2623 0.950 . S
C2632 C2631 1.398 . S
C2632 C2633 1.391 . S
C2633 H2621 0.950 . S
C2633 C2629 1.393 . S
C2633 C2632 1.391 . S
C2634 H2624 0.950 . S
C2634 C2635 1.386 . S
C2634 C2636 1.391 . S
C2635 C2634 1.386 . S
C2635 C2639 1.393 . S
C2636 H2625 0.950 . S
C2636 C2634 1.391 . S
C2636 C2637 1.400 . S
C2637 C2631 1.491 . S
C2637 C2636 1.400 . S
C2637 C2638 1.398 . S
C2638 H2626 0.950 1_554 S
C2638 C2637 1.398 . S
C2638 C2639 1.391 . S
C2639 H2627 0.950 1_554 S
C2639 C2635 1.393 . S
C2639 C2638 1.391 . S
C1695 C673 1.504 . S
C1689 C211 1.504 . S
C1715 C732 1.514 . S
C1709 C255 1.510 . S
C1729 C274 1.510 . S
C1735 C849 1.511 . S
C1755 C917 1.523 . S
C1749 C157 1.524 . S
C1775 C996 1.519 . S
C1769 C391 1.518 . S
C1795 C1121 1.521 . S
C1789 C484 1.517 . S
C1809 C450 1.503 . S
C1815 C1181 1.503 . S
C1835 C1289 1.525 . S
C1829 C352 1.524 . S
C1849 C430 1.507 . S
C1855 C1385 1.507 . S
C1875 C1445 1.532 . S
C1869 C367 1.532 . S
C1889 C411 1.523 . S
C1895 C1348 1.527 . S
C1915 C1465 1.520 . S
C1909 C469 1.519 . S
C1929 C294 1.506 . S
C1935 C1533 1.507 . S
C1949 C177 1.524 . S
C1955 C1524 1.522 . S
C1969 C196 1.509 . S
C1975 C1553 1.511 . S
C1989 C235 1.514 . S
C1995 C1561 1.516 . S
C2009 C133 1.508 . S
C2015 C945 1.508 . S
C2029 C567 1.505 . S
C2035 C908 1.506 . S
C2055 C644 1.515 . S
C2049 C601 1.515 . S
C2075 C741 1.513 . S
C2069 C328 1.512 . S
C2089 C172 1.516 . S
C2095 C1005 1.518 . S
C2115 C1297 1.509 . S
C2109 C445 1.508 . S
C2135 C1025 1.539 . S
C2129 C372 1.537 . S
C2155 C1209 1.511 . S
C2149 C489 1.509 . S
C2175 C1201 1.504 . S
C2169 C562 1.504 . S
C2189 C606 1.512 . S
C2195 C1269 1.515 . S
C2209 C313 1.511 . S
C2215 C1033 1.512 . S
C2235 C1084 1.524 . S
C2229 C508 1.522 . S
C2249 C118 1.513 . S
C2255 C829 1.515 . S
C2275 C937 1.522 . S
C2269 C16 1.521 . S
C2295 C653 1.503 . S
C2289 C60 1.503 . S
C2315 C769 1.523 . S
C2309 C79 1.520 . S
C2329 C40 1.503 . S
C2335 C1473 1.504 . S
C2349 C94 1.531 . S
C2355 C1357 1.531 . S
C2369 C138 1.529 . S
C2375 C1436 1.530 . S
C2389 C1 1.515 . S
C2395 C1377 1.517 . S
C2415 C1621 1.505 . S
C2409 C333 1.502 . S
C2435 C1612 1.522 . S
C2429 C528 1.524 . S
C2455 C1641 1.507 . S
C2449 C547 1.504 . S
C2469 C586 1.515 . S
C2475 C1649 1.517 . S
C2489 C406 1.511 . S
C2495 C1113 1.511 . S
C2515 C1093 1.504 . S
C2509 C216 1.501 . S
C2535 C1172 1.516 . S
C2529 C250 1.516 . S
C2555 C1260 1.509 . S
C2549 C289 1.508 . S
C2569 C523 1.519 . S
C2575 C820 1.520 . S
C2595 C761 1.510 . S
C2589 C55 1.509 . S
C2609 C99 1.531 . S
C2615 C857 1.537 . S
C2635 C681 1.507 . S
C2629 C21 1.509 . S
