# Generated by pormake.
# Topology nom, (4,4)-cn, num edge types: 1
# Building blocks:
#     Node 0, Type 0, BuildingBlock: MUDLON_clean_linker_0, # of connection points: 4
#     Node 1, Type 0, BuildingBlock: MUDLON_clean_linker_0, # of connection points: 4
#     Node 2, Type 0, BuildingBlock: MUDLON_clean_linker_0, # of connection points: 4
#     Node 3, Type 0, BuildingBlock: MUDLON_clean_linker_0, # of connection points: 4
#     Node 4, Type 0, BuildingBlock: MUDLON_clean_linker_0, # of connection points: 4
#     Node 5, Type 0, BuildingBlock: MUDLON_clean_linker_0, # of connection points: 4
#     Node 6, Type 1, BuildingBlock: TATPOV_clean_sbu_0, # of connection points: 4
#     Node 7, Type 1, BuildingBlock: TATPOV_clean_sbu_0, # of connection points: 4
#     Node 8, Type 1, BuildingBlock: TATPOV_clean_sbu_0, # of connection points: 4
#     Node 9, Type 1, BuildingBlock: TATPOV_clean_sbu_0, # of connection points: 4
#     Node 10, Type 1, BuildingBlock: TATPOV_clean_sbu_0, # of connection points: 4
#     Node 11, Type 1, BuildingBlock: TATPOV_clean_sbu_0, # of connection points: 4
#     Edge 12, Type (0, 1), BuildingBlock: TEMPAE_clean_linker_10, # of connection points: 2
#     Edge 13, Type (0, 1), BuildingBlock: TEMPAE_clean_linker_10, # of connection points: 2
#     Edge 14, Type (0, 1), BuildingBlock: TEMPAE_clean_linker_10, # of connection points: 2
#     Edge 15, Type (0, 1), BuildingBlock: TEMPAE_clean_linker_10, # of connection points: 2
#     Edge 16, Type (0, 1), BuildingBlock: TEMPAE_clean_linker_10, # of connection points: 2
#     Edge 17, Type (0, 1), BuildingBlock: TEMPAE_clean_linker_10, # of connection points: 2
#     Edge 18, Type (0, 1), BuildingBlock: TEMPAE_clean_linker_10, # of connection points: 2
#     Edge 19, Type (0, 1), BuildingBlock: TEMPAE_clean_linker_10, # of connection points: 2
#     Edge 20, Type (0, 1), BuildingBlock: TEMPAE_clean_linker_10, # of connection points: 2
#     Edge 21, Type (0, 1), BuildingBlock: TEMPAE_clean_linker_10, # of connection points: 2
#     Edge 22, Type (0, 1), BuildingBlock: TEMPAE_clean_linker_10, # of connection points: 2
#     Edge 23, Type (0, 1), BuildingBlock: TEMPAE_clean_linker_10, # of connection points: 2
#     Edge 24, Type (0, 1), BuildingBlock: TEMPAE_clean_linker_10, # of connection points: 2
#     Edge 25, Type (0, 1), BuildingBlock: TEMPAE_clean_linker_10, # of connection points: 2
#     Edge 26, Type (0, 1), BuildingBlock: TEMPAE_clean_linker_10, # of connection points: 2
#     Edge 27, Type (0, 1), BuildingBlock: TEMPAE_clean_linker_10, # of connection points: 2
#     Edge 28, Type (0, 1), BuildingBlock: TEMPAE_clean_linker_10, # of connection points: 2
#     Edge 29, Type (0, 1), BuildingBlock: TEMPAE_clean_linker_10, # of connection points: 2
#     Edge 30, Type (0, 1), BuildingBlock: TEMPAE_clean_linker_10, # of connection points: 2
#     Edge 31, Type (0, 1), BuildingBlock: TEMPAE_clean_linker_10, # of connection points: 2
#     Edge 32, Type (0, 1), BuildingBlock: TEMPAE_clean_linker_10, # of connection points: 2
#     Edge 33, Type (0, 1), BuildingBlock: TEMPAE_clean_linker_10, # of connection points: 2
#     Edge 34, Type (0, 1), BuildingBlock: TEMPAE_clean_linker_10, # of connection points: 2
#     Edge 35, Type (0, 1), BuildingBlock: TEMPAE_clean_linker_10, # of connection points: 2
# Relax obj value: 0.022
# Max RMSD: 0.119
# Mean RMSD: 0.104
data_MOF--net-nom--node1-TATPOV_clean_sbu_0--node2-MUDLON_clean_linker_0--edge1-TEMPAE_clean_linker_10
_symmetry_space_group_name_H-M    P1
_symmetry_Int_Tables_number       1
_symmetry_cell_setting            triclinic
loop_
_symmetry_equiv_pos_as_xyz
'x, y, z'
_cell_length_a     60.270945
_cell_length_b     61.769365
_cell_length_c     60.504834
_cell_angle_alpha  90.974013
_cell_angle_beta   90.485011
_cell_angle_gamma 120.38489
loop_
_atom_site_label
_atom_site_type_symbol
_atom_site_fract_x
_atom_site_fract_y
_atom_site_fract_z
_atom_type_partial_charge
H0 H 0.1508 0.52376 0.2994 0.0
N1 N 0.11035 0.52105 0.31935 0.0
H2 H 0.18022 0.55641 0.27439 0.0
H3 H 0.10199 0.55616 0.29952 0.0
H4 H 0.13142 0.58881 0.27501 0.0
H5 H 0.13308 0.57035 0.33466 0.0
H6 H 0.15139 0.58631 0.3708 0.0
H7 H 0.10959 0.49498 0.3543 0.0
H8 H 0.12584 0.51075 0.3918 0.0
H9 H 0.0808 0.47674 0.29939 0.0
H10 H 0.07763 0.53668 0.33395 0.0
H11 H 0.03389 0.45363 0.29505 0.0
H12 H 0.03081 0.51398 0.32936 0.0
H13 H 0.88654 0.38302 0.27849 0.0
H14 H 0.86513 0.3795 0.24269 0.0
H15 H 0.90372 0.46027 0.24018 0.0
H16 H 0.92578 0.46374 0.27529 0.0
H17 H 0.91828 0.46871 0.31154 0.0
H18 H 0.88661 0.47269 0.33346 0.0
H19 H 0.8511 0.39464 0.35026 0.0
H20 H 0.88243 0.39048 0.32758 0.0
H21 H 0.95346 0.43115 0.27141 0.0
H22 H 0.99989 0.45549 0.27541 0.0
H23 H 0.99287 0.47597 0.34243 0.0
N24 N 0.91776 0.42488 0.30172 0.0
H25 H 0.94645 0.45208 0.33854 0.0
C26 C 0.12428 0.53746 0.30149 0.0
C27 C 0.14607 0.53745 0.29356 0.0
C28 C 0.16278 0.55603 0.2793 0.0
C29 C 0.15806 0.57511 0.27297 0.0
C30 C 0.13543 0.57427 0.27975 0.0
C31 C 0.11853 0.55549 0.2937 0.0
C32 C 0.12028 0.53124 0.34134 0.0
C33 C 0.13159 0.55701 0.34671 0.0
C34 C 0.14181 0.56622 0.36781 0.0
C35 C 0.14014 0.54993 0.38454 0.0
C36 C 0.12809 0.52406 0.37935 0.0
C37 C 0.11852 0.51491 0.35796 0.0
C38 C 0.0827 0.50829 0.31699 0.0
C39 C 0.06993 0.48492 0.30593 0.0
C40 C 0.04318 0.47186 0.30337 0.0
C41 C 0.0286 0.482 0.31182 0.0
C42 C 0.04144 0.50552 0.32289 0.0
C43 C 0.06823 0.51858 0.32544 0.0
C44 C 0.90746 0.42353 0.27972 0.0
C45 C 0.89063 0.39992 0.27 0.0
C46 C 0.87846 0.39794 0.24966 0.0
C47 C 0.88265 0.41963 0.23893 0.0
C48 C 0.89997 0.4433 0.24835 0.0
C49 C 0.91247 0.44527 0.26844 0.0
C50 C 0.90247 0.42908 0.31764 0.0
C51 C 0.90379 0.45245 0.31994 0.0
C52 C 0.88578 0.45476 0.33256 0.0
C53 C 0.86638 0.43392 0.34337 0.0
C54 C 0.86599 0.411 0.34217 0.0
C55 C 0.8838 0.4086 0.32927 0.0
C56 C 0.94565 0.44083 0.30402 0.0
C57 C 0.96163 0.44142 0.28683 0.0
C58 C 0.98838 0.45509 0.28922 0.0
C59 C 1.00012 0.46801 0.30913 0.0
C60 C 0.98443 0.46685 0.32664 0.0
C61 C 0.95763 0.45316 0.32427 0.0
H62 H 0.47336 0.91503 0.47419 0.0
N63 N 0.4546 0.94362 0.45704 0.0
H64 H 0.45017 0.8795 0.49841 0.0
H65 H 0.41282 0.93248 0.4797 0.0
H66 H 0.38971 0.89716 0.50443 0.0
H67 H 0.41919 0.93251 0.42575 0.0
H68 H 0.41455 0.91094 0.39007 0.0
H69 H 0.48862 0.93108 0.43996 0.0
H70 H 0.4833 0.9083 0.4048 0.0
H71 H 0.50257 0.95948 0.4747 0.0
H72 H 0.45288 0.98456 0.44863 0.0
H73 H 0.53711 0.00325 0.48025 0.0
H74 H 0.48725 0.0283 0.45398 0.0
H75 H 0.63056 0.14753 0.51069 0.0
H76 H 0.63205 0.16479 0.548 0.0
H77 H 0.55034 0.13644 0.54343 0.0
H78 H 0.5488 0.11869 0.5067 0.0
H79 H 0.54849 0.1283 0.46986 0.0
H80 H 0.55039 0.16335 0.45038 0.0
H81 H 0.63286 0.19719 0.44562 0.0
H82 H 0.63057 0.16146 0.46444 0.0
H83 H 0.57767 0.08505 0.51031 0.0
H84 H 0.54605 0.04093 0.50384 0.0
H85 H 0.53096 0.05723 0.43824 0.0
N86 N 0.58986 0.12403 0.48326 0.0
H87 H 0.56267 0.10124 0.44434 0.0
C88 C 0.4446 0.92628 0.47489 0.0
C89 C 0.45541 0.91167 0.48098 0.0
C90 C 0.44213 0.8913 0.49485 0.0
C91 C 0.41807 0.88548 0.50313 0.0
C92 C 0.4083 0.90131 0.49841 0.0
C93 C 0.42143 0.92145 0.48431 0.0
C94 C 0.4539 0.93297 0.43557 0.0
C95 C 0.43346 0.92764 0.42107 0.0
C96 C 0.43087 0.91541 0.4008 0.0
C97 C 0.44853 0.90796 0.39491 0.0
C98 C 0.46942 0.91381 0.40916 0.0
C99 C 0.47234 0.92663 0.42925 0.0
C100 C 0.47507 0.96889 0.46148 0.0
C101 C 0.49903 0.97438 0.47033 0.0
C102 C 0.51875 0.99939 0.47346 0.0
C103 C 0.51489 0.01918 0.46745 0.0
C104 C 0.4909 0.01348 0.45851 0.0
C105 C 0.47122 0.98859 0.45563 0.0
C106 C 0.58972 0.13209 0.50582 0.0
C107 C 0.61297 0.14481 0.51792 0.0
C108 C 0.61379 0.15461 0.53912 0.0
C109 C 0.59135 0.15212 0.54837 0.0
C110 C 0.56796 0.1389 0.53648 0.0
C111 C 0.56708 0.12882 0.51548 0.0
C112 C 0.5895 0.14211 0.46853 0.0
C113 C 0.56693 0.14299 0.46427 0.0
C114 C 0.56807 0.1632 0.45323 0.0
C115 C 0.59181 0.1833 0.44659 0.0
C116 C 0.61417 0.18193 0.45016 0.0
C117 C 0.61296 0.16153 0.46096 0.0
C118 C 0.57129 0.09751 0.4787 0.0
C119 C 0.56728 0.07946 0.49462 0.0
C120 C 0.54942 0.05403 0.49083 0.0
C121 C 0.53548 0.04577 0.47079 0.0
C122 C 0.54077 0.06325 0.45418 0.0
C123 C 0.55883 0.08867 0.45787 0.0
H124 H 0.4806 0.63697 0.65068 0.0
N125 N 0.47627 0.59453 0.66418 0.0
H126 H 0.45004 0.64211 0.62793 0.0
H127 H 0.43499 0.55671 0.64102 0.0
H128 H 0.40457 0.56163 0.61772 0.0
H129 H 0.42933 0.56233 0.68163 0.0
H130 H 0.41545 0.56438 0.7189 0.0
H131 H 0.50441 0.62586 0.69706 0.0
H132 H 0.49046 0.62829 0.73456 0.0
H133 H 0.52148 0.6089 0.64638 0.0
H134 H 0.45444 0.54389 0.67109 0.0
H135 H 0.5424 0.58408 0.641 0.0
H136 H 0.47518 0.51898 0.6658 0.0
H137 H 0.61847 0.51998 0.63412 0.0
H138 H 0.63079 0.50748 0.59986 0.0
H139 H 0.55059 0.45612 0.5838 0.0
H140 H 0.53849 0.46918 0.61787 0.0
H141 H 0.52722 0.45648 0.65552 0.0
H142 H 0.52426 0.42068 0.67517 0.0
H143 H 0.60358 0.46628 0.69644 0.0
H144 H 0.60633 0.50221 0.67726 0.0
H145 H 0.56573 0.52918 0.61802 0.0
H146 H 0.53983 0.54896 0.61921 0.0
H147 H 0.51273 0.51855 0.68354 0.0
N148 N 0.57147 0.50169 0.64988 0.0
H149 H 0.53842 0.49847 0.68254 0.0
C150 C 0.4602 0.59659 0.64755 0.0
C151 C 0.46434 0.62051 0.6431 0.0
C152 C 0.44684 0.62338 0.63003 0.0
C153 C 0.42473 0.60227 0.62104 0.0
C154 C 0.42121 0.57827 0.62464 0.0
C155 C 0.43875 0.57543 0.63781 0.0
C156 C 0.468 0.59407 0.68654 0.0
C157 C 0.44292 0.57665 0.69306 0.0
C158 C 0.43492 0.57795 0.71437 0.0
C159 C 0.45179 0.59665 0.72959 0.0
C160 C 0.47708 0.61359 0.72324 0.0
C161 C 0.48506 0.61229 0.70187 0.0
C162 C 0.48657 0.57844 0.65922 0.0
C163 C 0.51116 0.58918 0.65033 0.0
C164 C 0.52301 0.57494 0.64723 0.0
C165 C 0.51046 0.54956 0.65306 0.0
C166 C 0.48544 0.53856 0.66139 0.0
C167 C 0.47352 0.5528 0.66434 0.0
C168 C 0.5777 0.49559 0.62852 0.0
C169 C 0.60361 0.50627 0.62304 0.0
C170 C 0.61057 0.4989 0.60362 0.0
C171 C 0.59166 0.48061 0.58926 0.0
C172 C 0.56558 0.47032 0.59448 0.0
C173 C 0.55864 0.47768 0.61398 0.0
C174 C 0.56705 0.48214 0.66507 0.0
C175 C 0.5437 0.45902 0.66501 0.0
C176 C 0.54201 0.43862 0.67622 0.0
C177 C 0.56372 0.4409 0.68721 0.0
C178 C 0.58659 0.46422 0.68814 0.0
C179 C 0.58813 0.4847 0.67732 0.0
C180 C 0.55325 0.51067 0.64956 0.0
C181 C 0.55359 0.52578 0.63215 0.0
C182 C 0.53898 0.53753 0.63292 0.0
C183 C 0.524 0.53511 0.65135 0.0
C184 C 0.52356 0.52023 0.66883 0.0
C185 C 0.53829 0.50854 0.66814 0.0
H186 H 0.0992 0.5961 0.83837 0.0
N187 N 0.08092 0.56765 0.80165 0.0
H188 H 0.13677 0.60382 0.86083 0.0
H189 H 0.10708 0.54215 0.79818 0.0
H190 H 0.14379 0.54918 0.82065 0.0
H191 H 0.10458 0.61438 0.78752 0.0
H192 H 0.12712 0.62965 0.75272 0.0
H193 H 0.07974 0.5383 0.76667 0.0
H194 H 0.10288 0.55338 0.73215 0.0
H195 H 0.03806 0.56831 0.79299 0.0
H196 H 0.06483 0.51829 0.81216 0.0
H197 H 0.99367 0.53357 0.79393 0.0
H198 H 0.02097 0.48421 0.81437 0.0
H199 H 0.87393 0.44668 0.82945 0.0
H200 H 0.85444 0.44475 0.86485 0.0
H201 H 0.88376 0.3987 0.8898 0.0
H202 H 0.90405 0.40139 0.85417 0.0
H203 H 0.87157 0.37555 0.80652 0.0
H204 H 0.83307 0.35668 0.78278 0.0
H205 H 0.8484 0.43069 0.76602 0.0
H206 H 0.88674 0.44937 0.79011 0.0
H207 H 0.91807 0.47407 0.82333 0.0
H208 H 0.96157 0.50839 0.8184 0.0
H209 H 0.98373 0.45571 0.79463 0.0
N210 N 0.90098 0.42356 0.81786 0.0
H211 H 0.94018 0.42112 0.80104 0.0
C212 C 0.10018 0.56855 0.81665 0.0
C213 C 0.1086 0.58549 0.83475 0.0
C214 C 0.13005 0.58988 0.84752 0.0
C215 C 0.14347 0.57738 0.8423 0.0
C216 C 0.13423 0.55953 0.82481 0.0
C217 C 0.11299 0.55529 0.81204 0.0
C218 C 0.09055 0.57533 0.77971 0.0
C219 C 0.10373 0.60099 0.77526 0.0
C220 C 0.11683 0.60965 0.75551 0.0
C221 C 0.11713 0.59276 0.7398 0.0
C222 C 0.10294 0.56688 0.74384 0.0
C223 C 0.08973 0.55822 0.7636 0.0
C224 C 0.05503 0.54634 0.80266 0.0
C225 C 0.0344 0.54993 0.79757 0.0
C226 C 0.009 0.53004 0.79827 0.0
C227 C 0.00355 0.50597 0.80436 0.0
C228 C 0.02429 0.50231 0.80925 0.0
C229 C 0.04969 0.52212 0.80822 0.0
C230 C 0.89066 0.42422 0.83915 0.0
C231 C 0.87651 0.4364 0.84252 0.0
C232 C 0.86508 0.43506 0.86278 0.0
C233 C 0.86729 0.42135 0.88011 0.0
C234 C 0.88185 0.40957 0.87686 0.0
C235 C 0.89341 0.41104 0.85655 0.0
C236 C 0.88196 0.41375 0.80018 0.0
C237 C 0.86699 0.38766 0.79721 0.0
C238 C 0.84502 0.37694 0.78359 0.0
C239 C 0.83752 0.39218 0.77262 0.0
C240 C 0.85347 0.41844 0.77449 0.0
C241 C 0.87553 0.42915 0.78813 0.0
C242 C 0.92587 0.44476 0.81297 0.0
C243 C 0.93215 0.46973 0.81714 0.0
C244 C 0.95719 0.48955 0.81404 0.0
C245 C 0.97644 0.48496 0.80629 0.0
C246 C 0.9697 0.46002 0.80116 0.0
C247 C 0.94475 0.4402 0.80458 0.0
H248 H 0.54216 0.1229 0.00944 0.0
N249 N 0.54743 0.10092 0.97329 0.0
H250 H 0.57551 0.16097 0.02865 0.0
H251 H 0.59937 0.12358 0.96676 0.0
H252 H 0.63275 0.16126 0.98595 0.0
H253 H 0.57201 0.09882 0.93621 0.0
H254 H 0.57367 0.11825 0.90092 0.0
H255 H 0.5209 0.12262 0.9614 0.0
H256 H 0.52162 0.14135 0.92589 0.0
H257 H 0.50476 0.05956 0.9596 0.0
H258 H 0.57954 0.08414 0.98919 0.0
H259 H 0.49513 0.01621 0.96017 0.0
H260 H 0.56952 0.04112 0.99079 0.0
H261 H 0.45835 0.89011 0.99295 0.0
H262 H 0.43637 0.87061 0.02635 0.0
H263 H 0.50623 0.91785 0.06449 0.0
H264 H 0.52892 0.93556 0.03023 0.0
H265 H 0.52841 0.89369 0.98312 0.0
H266 H 0.51057 0.85632 0.95902 0.0
H267 H 0.45746 0.8761 0.93043 0.0
H268 H 0.47521 0.91327 0.95485 0.0
H269 H 0.47519 0.94039 0.98898 0.0
H270 H 0.48477 0.98332 0.98419 0.0
H271 H 0.56382 0.00603 0.9703 0.0
N272 N 0.51006 0.92426 0.98897 0.0
H273 H 0.55422 0.96313 0.97647 0.0
C274 C 0.56813 0.12036 0.98669 0.0
C275 C 0.562 0.13088 0.00462 0.0
C276 C 0.58109 0.15262 0.01556 0.0
C277 C 0.60675 0.1643 0.00866 0.0
C278 C 0.61309 0.15297 0.99141 0.0
C279 C 0.59401 0.13132 0.98047 0.0
C280 C 0.54638 0.10944 0.95146 0.0
C281 C 0.56086 0.10794 0.93401 0.0
C282 C 0.56165 0.11894 0.9138 0.0
C283 C 0.54794 0.13155 0.91064 0.0
C284 C 0.53278 0.1322 0.9279 0.0
C285 C 0.53211 0.12132 0.9481 0.0
C286 C 0.54293 0.07553 0.97402 0.0
C287 C 0.51912 0.05569 0.96622 0.0
C288 C 0.51355 0.03083 0.96674 0.0
C289 C 0.53153 0.025 0.97551 0.0
C290 C 0.55537 0.04482 0.98344 0.0
C291 C 0.56109 0.06975 0.98263 0.0
C292 C 0.49572 0.91392 0.00891 0.0
C293 C 0.4692 0.89613 0.00835 0.0
C294 C 0.45639 0.8852 0.02775 0.0
C295 C 0.46939 0.89241 0.04838 0.0
C296 C 0.49562 0.91117 0.04896 0.0
C297 C 0.50863 0.92158 0.02942 0.0
C298 C 0.5032 0.90623 0.97093 0.0
C299 C 0.5135 0.89037 0.97114 0.0
C300 C 0.50326 0.86903 0.95732 0.0
C301 C 0.48238 0.86308 0.94295 0.0
C302 C 0.47331 0.88001 0.94153 0.0
C303 C 0.48365 0.90145 0.95535 0.0
C304 C 0.51419 0.94865 0.98342 0.0
C305 C 0.49456 0.95458 0.98485 0.0
C306 C 0.50007 0.97921 0.9819 0.0
C307 C 0.5252 0.99838 0.97708 0.0
C308 C 0.54442 0.992 0.97456 0.0
C309 C 0.53895 0.96744 0.97781 0.0
H310 H 0.52428 0.41114 0.14639 0.0
N311 N 0.52923 0.44953 0.17069 0.0
H312 H 0.55616 0.4109 0.12158 0.0
H313 H 0.57229 0.49133 0.15558 0.0
H314 H 0.60438 0.49102 0.13146 0.0
H315 H 0.57537 0.47972 0.19243 0.0
H316 H 0.58919 0.47148 0.22752 0.0
H317 H 0.50146 0.41226 0.19789 0.0
H318 H 0.51536 0.40392 0.2335 0.0
H319 H 0.48313 0.43649 0.15447 0.0
H320 H 0.55084 0.49893 0.1847 0.0
H321 H 0.46249 0.46191 0.1532 0.0
H322 H 0.5304 0.5244 0.18345 0.0
H323 H 0.40891 0.51908 0.1287 0.0
H324 H 0.40354 0.53098 0.09134 0.0
H325 H 0.46522 0.6067 0.10497 0.0
H326 H 0.47137 0.59457 0.14183 0.0
H327 H 0.39963 0.5485 0.17585 0.0
H328 H 0.3983 0.58142 0.1975 0.0
H329 H 0.48121 0.62112 0.20452 0.0
H330 H 0.48229 0.58833 0.18221 0.0
H331 H 0.4232 0.50386 0.17723 0.0
H332 H 0.44581 0.48041 0.18053 0.0
H333 H 0.51456 0.54377 0.15559 0.0
N334 N 0.44078 0.54889 0.16066 0.0
H335 H 0.49173 0.56708 0.1524 0.0
C336 C 0.5459 0.45108 0.15306 0.0
C337 C 0.54137 0.42873 0.14263 0.0
C338 C 0.55953 0.42863 0.1285 0.0
C339 C 0.58275 0.45092 0.12483 0.0
C340 C 0.58666 0.47357 0.13419 0.0
C341 C 0.56827 0.47373 0.14801 0.0
C342 C 0.53729 0.44643 0.19235 0.0
C343 C 0.56197 0.46319 0.20116 0.0
C344 C 0.56997 0.45839 0.22125 0.0
C345 C 0.55346 0.43689 0.23306 0.0
C346 C 0.52846 0.42063 0.2247 0.0
C347 C 0.52053 0.42535 0.20445 0.0
C348 C 0.51845 0.46567 0.16957 0.0
C349 C 0.49355 0.4557 0.16073 0.0
C350 C 0.48178 0.47019 0.16017 0.0
C351 C 0.49479 0.49511 0.16837 0.0
C352 C 0.51998 0.50531 0.17689 0.0
C353 C 0.53168 0.4907 0.17761 0.0
C354 C 0.44013 0.55593 0.13817 0.0
C355 C 0.42157 0.5381 0.12344 0.0
C356 C 0.41857 0.54488 0.10221 0.0
C357 C 0.43389 0.56975 0.09553 0.0
C358 C 0.45314 0.58745 0.10992 0.0
C359 C 0.45656 0.58051 0.13098 0.0
C360 C 0.44091 0.56588 0.17736 0.0
C361 C 0.41743 0.56397 0.18261 0.0
C362 C 0.41676 0.58283 0.19506 0.0
C363 C 0.43969 0.60408 0.20269 0.0
C364 C 0.46322 0.60519 0.19864 0.0
C365 C 0.46386 0.58629 0.18605 0.0
C366 C 0.45575 0.53711 0.16469 0.0
C367 C 0.44325 0.51276 0.17281 0.0
C368 C 0.45612 0.49937 0.17449 0.0
C369 C 0.48188 0.51017 0.1681 0.0
C370 C 0.49476 0.53501 0.16074 0.0
C371 C 0.48176 0.54837 0.15893 0.0
Zn372 Zn 0.68101 0.45941 0.40656 0.0
Zn373 Zn 0.65468 0.40893 0.41086 0.0
O374 O 0.69197 0.41857 0.40458 0.0
O375 O 0.71447 0.4597 0.40257 0.0
O376 O 0.63902 0.37187 0.41621 0.0
O377 O 0.67006 0.46361 0.43689 0.0
O378 O 0.64803 0.42254 0.43993 0.0
C379 C 0.71336 0.43868 0.40192 0.0
C380 C 0.63943 0.43175 0.37386 0.0
O381 O 0.6358 0.4123 0.38394 0.0
O382 O 0.65724 0.45336 0.38026 0.0
C383 C 0.62461 0.35377 0.40301 0.0
O384 O 0.61742 0.35848 0.384 0.0
C385 C 0.65533 0.44445 0.44786 0.0
Zn386 Zn 0.22584 0.67925 0.55745 0.0
Zn387 Zn 0.25893 0.66324 0.56703 0.0
O388 O 0.28282 0.70081 0.56111 0.0
O389 O 0.25619 0.71336 0.5505 0.0
O390 O 0.28406 0.65189 0.57536 0.0
O391 O 0.21195 0.67142 0.58821 0.0
O392 O 0.23632 0.65502 0.59467 0.0
C393 C 0.27894 0.71798 0.55408 0.0
C394 C 0.21984 0.63913 0.52861 0.0
O395 O 0.23957 0.6421 0.53921 0.0
O396 O 0.20953 0.65195 0.53373 0.0
C397 C 0.29128 0.64037 0.5623 0.0
O398 O 0.28198 0.63498 0.54196 0.0
C399 C 0.21906 0.65985 0.60085 0.0
Zn400 Zn 0.54591 0.23044 0.72709 0.0
Zn401 Zn 0.59748 0.25973 0.73427 0.0
O402 O 0.5857 0.28546 0.73139 0.0
O403 O 0.54429 0.26228 0.72337 0.0
O404 O 0.63566 0.28098 0.74009 0.0
O405 O 0.54276 0.21542 0.75726 0.0
O406 O 0.58486 0.23773 0.7616 0.0
C407 C 0.5642 0.28366 0.72655 0.0
C408 C 0.57629 0.22306 0.69443 0.0
O409 O 0.59502 0.24067 0.70544 0.0
O410 O 0.55339 0.21477 0.70057 0.0
C411 C 0.6509 0.29574 0.72579 0.0
O412 O 0.64147 0.2974 0.70664 0.0
C413 C 0.5629 0.2214 0.76863 0.0
Zn414 Zn 0.33947 0.57656 0.91138 0.0
Zn415 Zn 0.36518 0.62722 0.91367 0.0
O416 O 0.32729 0.61789 0.90946 0.0
O417 O 0.30629 0.5766 0.90722 0.0
O418 O 0.38439 0.66498 0.91684 0.0
O419 O 0.35197 0.57545 0.94207 0.0
O420 O 0.37487 0.61678 0.94273 0.0
C421 C 0.30622 0.59706 0.90701 0.0
C422 C 0.37669 0.60001 0.87683 0.0
O423 O 0.38026 0.62024 0.88609 0.0
O424 O 0.36069 0.57896 0.88468 0.0
C425 C 0.38703 0.67943 0.90109 0.0
O426 O 0.3768 0.66959 0.88159 0.0
C427 C 0.3679 0.59588 0.95182 0.0
Zn428 Zn 0.78047 0.44546 0.0641 0.0
Zn429 Zn 0.7492 0.39468 0.06318 0.0
O430 O 0.7247 0.40826 0.06759 0.0
O431 O 0.74918 0.44943 0.06739 0.0
O432 O 0.72481 0.35734 0.06033 0.0
O433 O 0.79314 0.44367 0.03374 0.0
O434 O 0.76863 0.40253 0.03388 0.0
C435 C 0.72715 0.42998 0.06881 0.0
C436 C 0.79059 0.41944 0.09923 0.0
O437 O 0.77168 0.39975 0.09049 0.0
O438 O 0.79799 0.44076 0.09106 0.0
C439 C 0.73231 0.34146 0.06073 0.0
O440 O 0.7569 0.34948 0.06384 0.0
C441 C 0.78515 0.42243 0.02441 0.0
Zn442 Zn 0.34171 0.78586 0.22109 0.0
Zn443 Zn 0.3708 0.76391 0.22101 0.0
O444 O 0.33348 0.73539 0.22367 0.0
O445 O 0.30889 0.75182 0.21883 0.0
O446 O 0.38919 0.74427 0.21936 0.0
O447 O 0.36034 0.80475 0.19382 0.0
O448 O 0.38037 0.78321 0.19209 0.0
C449 C 0.31121 0.73282 0.22184 0.0
C450 C 0.37674 0.79938 0.25895 0.0
O451 O 0.38507 0.78686 0.24861 0.0
O452 O 0.35772 0.80054 0.25131 0.0
C453 C 0.40145 0.74117 0.23501 0.0
O454 O 0.4041 0.75251 0.25424 0.0
C455 C 0.37555 0.79939 0.18414 0.0
C456 C 0.18791 0.62116 0.27215 0.0
C457 C 0.17825 0.59751 0.26191 0.0
C458 C 0.20885 0.64251 0.26342 0.0
C459 C 0.22003 0.6402 0.24368 0.0
C460 C 0.20965 0.61648 0.23277 0.0
C461 C 0.18907 0.59526 0.24223 0.0
C462 C 0.21969 0.66732 0.27587 0.0
C463 C 0.22063 0.61343 0.2114 0.0
C464 C 0.26388 0.70268 0.21721 0.0
C465 C 0.28812 0.70794 0.22505 0.0
C466 C 0.2416 0.67994 0.22201 0.0
C467 C 0.24358 0.66243 0.23546 0.0
C468 C 0.26809 0.66733 0.24282 0.0
C469 C 0.29009 0.68989 0.23728 0.0
C470 C 0.21586 0.67504 0.21335 0.0
C471 C 0.27101 0.64941 0.25759 0.0
H472 H 0.17972 0.62278 0.28755 0.0
H473 H 0.1815 0.57691 0.23434 0.0
H474 H 0.23986 0.67401 0.28115 0.0
H475 H 0.21997 0.68171 0.26497 0.0
H476 H 0.20843 0.66599 0.29075 0.0
H477 H 0.20874 0.59434 0.20385 0.0
H478 H 0.22213 0.62745 0.19936 0.0
H479 H 0.24035 0.61689 0.21446 0.0
H480 H 0.2623 0.71648 0.20756 0.0
H481 H 0.30876 0.69389 0.24346 0.0
H482 H 0.20447 0.67605 0.22722 0.0
H483 H 0.20475 0.65589 0.2058 0.0
H484 H 0.2179 0.68888 0.20085 0.0
H485 H 0.26169 0.64826 0.27361 0.0
H486 H 0.2915 0.65535 0.26091 0.0
H487 H 0.26123 0.63027 0.24999 0.0
C488 C 0.61121 0.21989 0.42104 0.0
C489 C 0.59356 0.20642 0.43753 0.0
C490 C 0.61487 0.24303 0.41407 0.0
C491 C 0.60032 0.25285 0.42363 0.0
C492 C 0.58166 0.23884 0.43954 0.0
C493 C 0.57864 0.21593 0.44641 0.0
C494 C 0.63503 0.25745 0.39711 0.0
C495 C 0.56561 0.24855 0.45002 0.0
C496 C 0.62991 0.32363 0.42636 0.0
C497 C 0.61762 0.32779 0.40852 0.0
C498 C 0.62449 0.29936 0.43135 0.0
C499 C 0.60606 0.27862 0.41836 0.0
C500 C 0.59328 0.2826 0.40051 0.0
C501 C 0.59933 0.30717 0.39571 0.0
C502 C 0.63871 0.29595 0.45041 0.0
C503 C 0.57327 0.2609 0.3865 0.0
H504 H 0.62252 0.21253 0.41379 0.0
H505 H 0.56522 0.20595 0.45939 0.0
H506 H 0.6266 0.2627 0.3833 0.0
H507 H 0.65068 0.27513 0.40479 0.0
H508 H 0.64355 0.24655 0.39025 0.0
H509 H 0.55019 0.23431 0.4604 0.0
H510 H 0.57811 0.26537 0.46056 0.0
H511 H 0.55665 0.25437 0.4371 0.0
H512 H 0.64417 0.33943 0.43629 0.0
H513 H 0.5897 0.31021 0.38193 0.0
H514 H 0.64932 0.28673 0.4444 0.0
H515 H 0.62484 0.28352 0.46279 0.0
H516 H 0.65263 0.31405 0.45877 0.0
H517 H 0.58197 0.25076 0.37847 0.0
H518 H 0.56475 0.2671 0.37347 0.0
H519 H 0.55761 0.24732 0.39707 0.0
C520 C 0.37848 0.58916 0.61374 0.0
C521 C 0.40462 0.60538 0.60948 0.0
C522 C 0.35945 0.59345 0.6049 0.0
C523 C 0.36672 0.61458 0.59163 0.0
C524 C 0.39295 0.63051 0.58662 0.0
C525 C 0.41155 0.62566 0.59551 0.0
C526 C 0.33166 0.5759 0.6105 0.0
C527 C 0.40149 0.65323 0.57251 0.0
C528 C 0.31609 0.61823 0.55649 0.0
C529 C 0.31032 0.63346 0.56986 0.0
C530 C 0.33425 0.61174 0.56341 0.0
C531 C 0.34711 0.62088 0.5841 0.0
C532 C 0.34137 0.63625 0.59766 0.0
C533 C 0.32299 0.64226 0.59043 0.0
C534 C 0.33968 0.59511 0.54859 0.0
C535 C 0.35479 0.64652 0.61978 0.0
H536 H 0.37291 0.57363 0.62473 0.0
H537 H 0.43165 0.63805 0.59183 0.0
H538 H 0.32466 0.58599 0.62104 0.0
H539 H 0.3195 0.56947 0.59522 0.0
H540 H 0.32896 0.55918 0.61942 0.0
H541 H 0.42241 0.66296 0.56916 0.0
H542 H 0.39071 0.64769 0.5565 0.0
H543 H 0.39718 0.66673 0.58097 0.0
H544 H 0.30634 0.61126 0.54061 0.0
H545 H 0.31873 0.6541 0.60085 0.0
H546 H 0.33587 0.57804 0.55748 0.0
H547 H 0.36028 0.60511 0.54414 0.0
H548 H 0.3278 0.58928 0.53313 0.0
H549 H 0.35131 0.63085 0.63064 0.0
H550 H 0.34818 0.65825 0.62833 0.0
H551 H 0.37588 0.65806 0.61753 0.0
C552 C 0.79583 0.39063 0.76496 0.0
C553 C 0.81186 0.38059 0.76137 0.0
C554 C 0.7702 0.378 0.75724 0.0
C555 C 0.7603 0.35471 0.7457 0.0
C556 C 0.77672 0.34509 0.74103 0.0
C557 C 0.80231 0.35816 0.74891 0.0
C558 C 0.75335 0.38893 0.76249 0.0
C559 C 0.76693 0.32039 0.72867 0.0
C560 C 0.6889 0.30832 0.75091 0.0
C561 C 0.67893 0.31077 0.73068 0.0
C562 C 0.71534 0.32239 0.75588 0.0
C563 C 0.7323 0.33941 0.74027 0.0
C564 C 0.72243 0.34196 0.71978 0.0
C565 C 0.69585 0.32758 0.71522 0.0
C566 C 0.72512 0.31911 0.77791 0.0
C567 C 0.73992 0.35995 0.70276 0.0
H568 H 0.80291 0.40777 0.77481 0.0
H569 H 0.81468 0.35047 0.74581 0.0
H570 H 0.74297 0.38924 0.74738 0.0
H571 H 0.73865 0.37696 0.77456 0.0
H572 H 0.76455 0.40831 0.76961 0.0
H573 H 0.78266 0.31667 0.72459 0.0
H574 H 0.75274 0.30488 0.73888 0.0
H575 H 0.75689 0.32009 0.71311 0.0
H576 H 0.67602 0.29536 0.76295 0.0
H577 H 0.68834 0.3296 0.69954 0.0
H578 H 0.73485 0.33724 0.78732 0.0
H579 H 0.73956 0.31326 0.77531 0.0
H580 H 0.70944 0.30489 0.78812 0.0
H581 H 0.75002 0.37937 0.7098 0.0
H582 H 0.72928 0.35947 0.68751 0.0
H583 H 0.75488 0.35534 0.69822 0.0
C584 C 0.44141 0.82372 0.93238 0.0
C585 C 0.46836 0.83795 0.9317 0.0
C586 C 0.42795 0.79852 0.92508 0.0
C587 C 0.44176 0.78723 0.91693 0.0
C588 C 0.46882 0.80187 0.91504 0.0
C589 C 0.4818 0.82705 0.92247 0.0
C590 C 0.3991 0.78358 0.92737 0.0
C591 C 0.48421 0.79059 0.90625 0.0
C592 C 0.41208 0.71733 0.92579 0.0
C593 C 0.40135 0.70706 0.90486 0.0
C594 C 0.42542 0.74337 0.92981 0.0
C595 C 0.42818 0.75963 0.91249 0.0
C596 C 0.41759 0.74945 0.89126 0.0
C597 C 0.40428 0.72327 0.8877 0.0
C598 C 0.43642 0.75347 0.9527 0.0
C599 C 0.42015 0.7662 0.8724 0.0
H600 H 0.43087 0.83186 0.93975 0.0
H601 H 0.50259 0.83803 0.92166 0.0
H602 H 0.38976 0.77312 0.91174 0.0
H603 H 0.39407 0.76955 0.94045 0.0
H604 H 0.39099 0.79569 0.93178 0.0
H605 H 0.50464 0.80504 0.90363 0.0
H606 H 0.48365 0.77684 0.91814 0.0
H607 H 0.47571 0.78028 0.89038 0.0
H608 H 0.40996 0.70501 0.93916 0.0
H609 H 0.3961 0.71552 0.87146 0.0
H610 H 0.42776 0.76423 0.95956 0.0
H611 H 0.45747 0.76658 0.95189 0.0
H612 H 0.43288 0.73833 0.96428 0.0
H613 H 0.41074 0.77716 0.87662 0.0
H614 H 0.41137 0.75539 0.85676 0.0
H615 H 0.44075 0.77987 0.86962 0.0
C616 C 0.62767 0.45932 0.12467 0.0
C617 C 0.60396 0.44998 0.11358 0.0
C618 C 0.64728 0.45631 0.11557 0.0
C619 C 0.64326 0.44414 0.09465 0.0
C620 C 0.61968 0.43554 0.08297 0.0
C621 C 0.60011 0.43824 0.09275 0.0
C622 C 0.67191 0.46529 0.12878 0.0
C623 C 0.61495 0.42306 0.06038 0.0
C624 C 0.70457 0.45461 0.06789 0.0
C625 C 0.70451 0.43259 0.0733 0.0
C626 C 0.68404 0.45807 0.07368 0.0
C627 C 0.66334 0.43937 0.08568 0.0
C628 C 0.66289 0.41683 0.09067 0.0
C629 C 0.68333 0.41358 0.08417 0.0
C630 C 0.68488 0.48206 0.06755 0.0
C631 C 0.64143 0.39664 0.10383 0.0
H632 H 0.63047 0.46807 0.14093 0.0
H633 H 0.58175 0.43107 0.0842 0.0
H634 H 0.67444 0.44911 0.13247 0.0
H635 H 0.68866 0.4786 0.11904 0.0
H636 H 0.67213 0.47473 0.14464 0.0
H637 H 0.59658 0.41952 0.05268 0.0
H638 H 0.63096 0.43493 0.04928 0.0
H639 H 0.61434 0.40488 0.0617 0.0
H640 H 0.7208 0.46925 0.05929 0.0
H641 H 0.68325 0.39658 0.08848 0.0
H642 H 0.68761 0.49359 0.08269 0.0
H643 H 0.66638 0.4778 0.05964 0.0
H644 H 0.70075 0.49339 0.05611 0.0
H645 H 0.64142 0.40414 0.12063 0.0
H646 H 0.64334 0.37977 0.10548 0.0
H647 H 0.62252 0.39085 0.09591 0.0
C648 C 0.39714 0.83888 0.50417 0.0
C649 C 0.40171 0.86141 0.51427 0.0
C650 C 0.3788 0.81561 0.51246 0.0
C651 C 0.36497 0.81485 0.53153 0.0
C652 C 0.37062 0.83754 0.54255 0.0
C653 C 0.38873 0.8606 0.53362 0.0
C654 C 0.37308 0.79189 0.49999 0.0
C655 C 0.3567 0.8375 0.56318 0.0
C656 C 0.2973 0.75907 0.53534 0.0
C657 C 0.30094 0.74314 0.54925 0.0
C658 C 0.31796 0.7825 0.52966 0.0
C659 C 0.34285 0.79051 0.53844 0.0
C660 C 0.34658 0.77483 0.55297 0.0
C661 C 0.32561 0.75119 0.55802 0.0
C662 C 0.31322 0.79845 0.5138 0.0
C663 C 0.37274 0.78296 0.56299 0.0
H664 H 0.40691 0.83946 0.48904 0.0
H665 H 0.39237 0.87802 0.54151 0.0
H666 H 0.37366 0.7783 0.51138 0.0
H667 H 0.35338 0.78286 0.49263 0.0
H668 H 0.38689 0.7956 0.48652 0.0
H669 H 0.36562 0.85638 0.57133 0.0
H670 H 0.33638 0.83131 0.55891 0.0
H671 H 0.35657 0.82403 0.57516 0.0
H672 H 0.27834 0.75295 0.52839 0.0
H673 H 0.32851 0.73904 0.56891 0.0
H674 H 0.32501 0.80182 0.49887 0.0
H675 H 0.31918 0.81702 0.5216 0.0
H676 H 0.2927 0.78954 0.50853 0.0
H677 H 0.38628 0.78506 0.54977 0.0
H678 H 0.37211 0.76931 0.57506 0.0
H679 H 0.38062 0.80155 0.57147 0.0
C680 C 0.54794 0.40458 0.71253 0.0
C681 C 0.5636 0.41839 0.69515 0.0
C682 C 0.54764 0.38289 0.71967 0.0
C683 C 0.56277 0.37458 0.70867 0.0
C684 C 0.57849 0.38853 0.691 0.0
C685 C 0.57894 0.41044 0.68464 0.0
C686 C 0.53113 0.36883 0.7389 0.0
C687 C 0.59442 0.38001 0.67847 0.0
C688 C 0.58084 0.32944 0.73367 0.0
C689 C 0.5627 0.3066 0.72346 0.0
C690 C 0.58031 0.35155 0.72986 0.0
C691 C 0.56168 0.35089 0.71501 0.0
C692 C 0.54309 0.32779 0.70493 0.0
C693 C 0.54363 0.30587 0.70951 0.0
C694 C 0.60005 0.37571 0.74133 0.0
C695 C 0.52331 0.32639 0.68857 0.0
H696 H 0.53614 0.41089 0.7206 0.0
H697 H 0.59084 0.42113 0.67105 0.0
H698 H 0.51602 0.34972 0.73334 0.0
H699 H 0.543 0.36661 0.75178 0.0
H700 H 0.52167 0.37854 0.74646 0.0
H701 H 0.60541 0.3929 0.66501 0.0
H702 H 0.6082 0.37878 0.68991 0.0
H703 H 0.58174 0.36096 0.67115 0.0
H704 H 0.59549 0.33004 0.74461 0.0
H705 H 0.52966 0.28828 0.70147 0.0
H706 H 0.59048 0.38502 0.74939 0.0
H707 H 0.6134 0.38882 0.72901 0.0
H708 H 0.61152 0.37261 0.75402 0.0
H709 H 0.51224 0.33443 0.69606 0.0
H710 H 0.50961 0.30683 0.68281 0.0
H711 H 0.53314 0.33774 0.67397 0.0
C712 C 0.17009 0.58677 0.87725 0.0
C713 C 0.16777 0.58364 0.85416 0.0
C714 C 0.19266 0.59133 0.88844 0.0
C715 C 0.21325 0.59269 0.87622 0.0
C716 C 0.21133 0.59047 0.85287 0.0
C717 C 0.1887 0.58609 0.84216 0.0
C718 C 0.19412 0.59381 0.91334 0.0
C719 C 0.23285 0.59185 0.83919 0.0
C720 C 0.28137 0.61868 0.89858 0.0
C721 C 0.28174 0.59649 0.90226 0.0
C722 C 0.25872 0.61787 0.89135 0.0
C723 C 0.23603 0.59434 0.88763 0.0
C724 C 0.23596 0.57199 0.89252 0.0
C725 C 0.25876 0.57334 0.89981 0.0
C726 C 0.25945 0.64211 0.88656 0.0
C727 C 0.21218 0.5465 0.88879 0.0
H728 H 0.15399 0.5849 0.88662 0.0
H729 H 0.1873 0.58436 0.82427 0.0
H730 H 0.19394 0.57729 0.92044 0.0
H731 H 0.21239 0.6107 0.91882 0.0
H732 H 0.17777 0.5951 0.92019 0.0
H733 H 0.22881 0.59099 0.82115 0.0
H734 H 0.25111 0.60949 0.84316 0.0
H735 H 0.23582 0.57602 0.84323 0.0
H736 H 0.29897 0.63666 0.90057 0.0
H737 H 0.25873 0.55608 0.90282 0.0
H738 H 0.24257 0.64213 0.89373 0.0
H739 H 0.25848 0.64397 0.86842 0.0
H740 H 0.27728 0.65875 0.8932 0.0
H741 H 0.19539 0.54585 0.89682 0.0
H742 H 0.21464 0.53111 0.89529 0.0
H743 H 0.20767 0.54298 0.87081 0.0
C744 C 0.62768 0.1945 0.04092 0.0
C745 C 0.62638 0.18921 0.01814 0.0
C746 C 0.6452 0.21853 0.04969 0.0
C747 C 0.66166 0.23771 0.03531 0.0
C748 C 0.66072 0.23235 0.01237 0.0
C749 C 0.64312 0.20821 0.00409 0.0
C750 C 0.64578 0.22351 0.07426 0.0
C751 C 0.67783 0.25231 0.99646 0.0
C752 C 0.68799 0.30639 0.0507 0.0
C753 C 0.71377 0.31447 0.05609 0.0
C754 C 0.67064 0.28127 0.04461 0.0
C755 C 0.67919 0.26374 0.04396 0.0
C756 C 0.70492 0.27155 0.05013 0.0
C757 C 0.72193 0.29684 0.05608 0.0
C758 C 0.64336 0.27371 0.0381 0.0
C759 C 0.71471 0.25337 0.04977 0.0
H760 H 0.61495 0.17985 0.05189 0.0
H761 H 0.64193 0.20442 0.98643 0.0
H762 H 0.6656 0.23128 0.08105 0.0
H763 H 0.64008 0.23776 0.07746 0.0
H764 H 0.63265 0.20628 0.08332 0.0
H765 H 0.67539 0.24485 0.97922 0.0
H766 H 0.67341 0.26771 0.99671 0.0
H767 H 0.6983 0.26061 0.0016 0.0
H768 H 0.68146 0.31982 0.05073 0.0
H769 H 0.74176 0.30286 0.06033 0.0
H770 H 0.62953 0.25739 0.04775 0.0
H771 H 0.63982 0.26784 0.02038 0.0
H772 H 0.63933 0.28922 0.04074 0.0
H773 H 0.70188 0.2365 0.05932 0.0
H774 H 0.73458 0.2619 0.05671 0.0
H775 H 0.71459 0.24695 0.03251 0.0
C776 C 0.4567 0.65042 0.20611 0.0
C777 C 0.43892 0.62595 0.21253 0.0
C778 C 0.45359 0.67078 0.21207 0.0
C779 C 0.43201 0.66654 0.22449 0.0
C780 C 0.41496 0.64221 0.23224 0.0
C781 C 0.41873 0.62226 0.22631 0.0
C782 C 0.47243 0.69652 0.20376 0.0
C783 C 0.3917 0.63688 0.24552 0.0
C784 C 0.42612 0.72089 0.2482 0.0
C785 C 0.41068 0.72317 0.23198 0.0
C786 C 0.43375 0.70291 0.24584 0.0
C787 C 0.42545 0.68666 0.22697 0.0
C788 C 0.41016 0.68912 0.21043 0.0
C789 C 0.40312 0.70742 0.21308 0.0
C790 C 0.45039 0.70107 0.26362 0.0
C791 C 0.40074 0.67205 0.19012 0.0
H792 H 0.47225 0.65353 0.19532 0.0
H793 H 0.40522 0.60353 0.23174 0.0
H794 H 0.46325 0.70127 0.1902 0.0
H795 H 0.47796 0.71098 0.21711 0.0
H796 H 0.49013 0.69748 0.19736 0.0
H797 H 0.3819 0.61767 0.25225 0.0
H798 H 0.39724 0.65067 0.25944 0.0
H799 H 0.37775 0.63878 0.23483 0.0
H800 H 0.43214 0.73306 0.26281 0.0
H801 H 0.39114 0.70897 0.20048 0.0
H802 H 0.46789 0.70253 0.25627 0.0
H803 H 0.43979 0.6825 0.27145 0.0
H804 H 0.45635 0.71595 0.27668 0.0
H805 H 0.41732 0.67357 0.18096 0.0
H806 H 0.38915 0.67655 0.17873 0.0
H807 H 0.38877 0.65224 0.19508 0.0
C808 C 0.83145 0.44418 0.34222 0.0
C809 C 0.84531 0.43551 0.35416 0.0
C810 C 0.81042 0.44454 0.35149 0.0
C811 C 0.80338 0.43647 0.37341 0.0
C812 C 0.81767 0.4282 0.38574 0.0
C813 C 0.83833 0.42752 0.37584 0.0
C814 C 0.79537 0.45302 0.33763 0.0
C815 C 0.81106 0.41998 0.4093 0.0
C816 C 0.76117 0.45863 0.39974 0.0
C817 C 0.73662 0.4374 0.39673 0.0
C818 C 0.78325 0.45819 0.39326 0.0
C819 C 0.78062 0.43619 0.38305 0.0
C820 C 0.75594 0.4145 0.38051 0.0
C821 C 0.73425 0.41529 0.3876 0.0
C822 C 0.80931 0.4815 0.3967 0.0
C823 C 0.75229 0.39084 0.36934 0.0
H824 H 0.83667 0.45003 0.32534 0.0
H825 H 0.84914 0.42089 0.38506 0.0
H826 H 0.77502 0.43768 0.33596 0.0
H827 H 0.79543 0.46923 0.34588 0.0
H828 H 0.80331 0.45859 0.32083 0.0
H829 H 0.82485 0.41527 0.41697 0.0
H830 H 0.81091 0.43506 0.41941 0.0
H831 H 0.79147 0.40325 0.40983 0.0
H832 H 0.76312 0.47569 0.40699 0.0
H833 H 0.71531 0.39886 0.38515 0.0
H834 H 0.81743 0.48956 0.38047 0.0
H835 H 0.82283 0.47676 0.40483 0.0
H836 H 0.80831 0.49608 0.40693 0.0
H837 H 0.75812 0.3946 0.35183 0.0
H838 H 0.73201 0.37519 0.36973 0.0
H839 H 0.76473 0.38472 0.3774 0.0
C840 C 0.16206 0.54903 0.42002 0.0
C841 C 0.15115 0.56013 0.40712 0.0
C842 C 0.17319 0.55912 0.44094 0.0
C843 C 0.17432 0.58136 0.44882 0.0
C844 C 0.16335 0.59263 0.43597 0.0
C845 C 0.15142 0.58159 0.4156 0.0
C846 C 0.18387 0.54608 0.45455 0.0
C847 C 0.16453 0.61663 0.44358 0.0
C848 C 0.18317 0.60325 0.50874 0.0
C849 C 0.2093 0.62157 0.50958 0.0
C850 C 0.17193 0.58854 0.48951 0.0
C851 C 0.187 0.59316 0.47043 0.0
C852 C 0.21366 0.61113 0.4715 0.0
C853 C 0.22462 0.62486 0.49127 0.0
C854 C 0.14369 0.56889 0.48932 0.0
C855 C 0.23022 0.61719 0.45135 0.0
H856 H 0.16234 0.53267 0.4137 0.0
H857 H 0.14236 0.58996 0.4063 0.0
H858 H 0.20501 0.55829 0.45659 0.0
H859 H 0.17563 0.54257 0.47134 0.0
H860 H 0.1797 0.52791 0.44686 0.0
H861 H 0.15638 0.62377 0.43105 0.0
H862 H 0.15371 0.61349 0.45907 0.0
H863 H 0.18477 0.63139 0.44723 0.0
H864 H 0.17145 0.60076 0.52304 0.0
H865 H 0.24479 0.63928 0.49199 0.0
H866 H 0.14047 0.55115 0.48144 0.0
H867 H 0.13272 0.57545 0.47946 0.0
H868 H 0.13581 0.56491 0.50625 0.0
H869 H 0.22799 0.59981 0.44358 0.0
H870 H 0.25091 0.63019 0.45536 0.0
H871 H 0.22389 0.62607 0.43893 0.0
C872 C 0.60301 0.15914 0.5887 0.0
C873 C 0.59223 0.16386 0.57011 0.0
C874 C 0.60244 0.16904 0.60962 0.0
C875 C 0.59122 0.18431 0.6118 0.0
C876 C 0.58116 0.18982 0.59288 0.0
C877 C 0.5816 0.17935 0.57229 0.0
C878 C 0.61303 0.16248 0.62947 0.0
C879 C 0.56942 0.20636 0.59445 0.0
C880 C 0.56205 0.18901 0.6656 0.0
C881 C 0.58106 0.21249 0.67412 0.0
C882 C 0.56561 0.17919 0.64577 0.0
C883 C 0.58855 0.19341 0.63396 0.0
C884 C 0.60807 0.2169 0.64269 0.0
C885 C 0.60418 0.22608 0.6628 0.0
C886 C 0.54452 0.15387 0.63718 0.0
C887 C 0.63263 0.23273 0.63039 0.0
H888 H 0.61114 0.14706 0.58697 0.0
H889 H 0.57357 0.18323 0.55782 0.0
H890 H 0.62728 0.1798 0.63862 0.0
H891 H 0.59722 0.15128 0.64097 0.0
H892 H 0.62235 0.15153 0.62481 0.0
H893 H 0.56409 0.2102 0.57796 0.0
H894 H 0.55189 0.1972 0.60458 0.0
H895 H 0.5831 0.22452 0.60281 0.0
H896 H 0.54426 0.17829 0.6744 0.0
H897 H 0.61891 0.24427 0.66929 0.0
H898 H 0.55246 0.1415 0.63341 0.0
H899 H 0.53624 0.15615 0.62154 0.0
H900 H 0.52876 0.14438 0.64916 0.0
H901 H 0.64195 0.22165 0.62634 0.0
H902 H 0.64653 0.24984 0.64004 0.0
H903 H 0.62814 0.23856 0.61452 0.0
C904 C 0.41851 0.59671 0.75391 0.0
C905 C 0.44267 0.59882 0.75177 0.0
C906 C 0.40922 0.59814 0.77471 0.0
C907 C 0.42447 0.60177 0.79387 0.0
C908 C 0.44908 0.60436 0.79183 0.0
C909 C 0.45792 0.60289 0.77076 0.0
C910 C 0.38292 0.59542 0.7762 0.0
C911 C 0.46582 0.60817 0.81191 0.0
C912 C 0.40598 0.62369 0.84591 0.0
C913 C 0.3905 0.60088 0.85641 0.0
C914 C 0.41778 0.62439 0.82581 0.0
C915 C 0.41405 0.60177 0.81604 0.0
C916 C 0.3991 0.57882 0.82688 0.0
C917 C 0.38749 0.57864 0.8469 0.0
C918 C 0.43361 0.64922 0.81471 0.0
C919 C 0.39475 0.5543 0.81702 0.0
H920 H 0.40686 0.59404 0.73924 0.0
H921 H 0.47654 0.60438 0.76919 0.0
H922 H 0.37008 0.57862 0.78583 0.0
H923 H 0.38433 0.61195 0.78506 0.0
H924 H 0.37387 0.59352 0.75967 0.0
H925 H 0.48494 0.61101 0.80743 0.0
H926 H 0.46873 0.62468 0.82186 0.0
H927 H 0.45613 0.59159 0.82258 0.0
H928 H 0.40845 0.64097 0.85314 0.0
H929 H 0.3757 0.56094 0.85494 0.0
H930 H 0.42423 0.64903 0.79879 0.0
H931 H 0.45295 0.65228 0.81087 0.0
H932 H 0.43596 0.66528 0.8251 0.0
H933 H 0.38389 0.55017 0.80112 0.0
H934 H 0.38384 0.53831 0.82813 0.0
H935 H 0.41344 0.55571 0.8134 0.0
C936 C 0.8666 0.42117 0.9216 0.0
C937 C 0.85416 0.4192 0.90133 0.0
C938 C 0.85472 0.42023 0.94171 0.0
C939 C 0.82988 0.41737 0.94153 0.0
C940 C 0.81699 0.41481 0.92115 0.0
C941 C 0.82924 0.41566 0.90131 0.0
C942 C 0.86902 0.42293 0.96314 0.0
C943 C 0.79049 0.41175 0.92028 0.0
C944 C 0.79083 0.39763 0.994 0.0
C945 C 0.79577 0.42084 0.00284 0.0
C946 C 0.80181 0.39617 0.97405 0.0
C947 C 0.81792 0.41842 0.96261 0.0
C948 C 0.82268 0.44184 0.97128 0.0
C949 C 0.81162 0.44277 0.9913 0.0
C950 C 0.79642 0.37088 0.96534 0.0
C951 C 0.83956 0.46596 0.95945 0.0
H952 H 0.88591 0.42411 0.92175 0.0
H953 H 0.81929 0.4136 0.88573 0.0
H954 H 0.87318 0.44052 0.97198 0.0
H955 H 0.85695 0.40714 0.97408 0.0
H956 H 0.88747 0.42341 0.96047 0.0
H957 H 0.78269 0.409 0.90311 0.0
H958 H 0.77698 0.39544 0.93011 0.0
H959 H 0.79121 0.42863 0.92773 0.0
H960 H 0.77869 0.3806 0.00285 0.0
H961 H 0.81548 0.46079 0.99794 0.0
H962 H 0.81471 0.37077 0.96396 0.0
H963 H 0.78763 0.3672 0.9485 0.0
H964 H 0.78331 0.35534 0.97612 0.0
H965 H 0.85918 0.46883 0.95777 0.0
H966 H 0.84107 0.48259 0.96827 0.0
H967 H 0.83178 0.46482 0.94252 0.0
C968 C 0.42928 0.87088 0.07103 0.0
C969 C 0.45575 0.87987 0.06897 0.0
C970 C 0.41584 0.85744 0.08954 0.0
C971 C 0.4293 0.85377 0.10695 0.0
C972 C 0.45611 0.86353 0.10546 0.0
C973 C 0.4689 0.87602 0.08635 0.0
C974 C 0.38712 0.84684 0.09031 0.0
C975 C 0.47129 0.86065 0.12401 0.0
C976 C 0.39756 0.8387 0.16291 0.0
C977 C 0.3888 0.813 0.16421 0.0
C978 C 0.41121 0.85231 0.14454 0.0
C979 C 0.4153 0.83967 0.12672 0.0
C980 C 0.40599 0.81356 0.12778 0.0
C981 C 0.39327 0.80061 0.14676 0.0
C982 C 0.42165 0.88028 0.14438 0.0
C983 C 0.40922 0.79928 0.10878 0.0
H984 H 0.4189 0.87423 0.05812 0.0
H985 H 0.48917 0.88235 0.08496 0.0
H986 H 0.37717 0.82628 0.09272 0.0
H987 H 0.38239 0.85522 0.10455 0.0
H988 H 0.37933 0.85041 0.07497 0.0
H989 H 0.49228 0.87085 0.12095 0.0
H990 H 0.4679 0.86778 0.13982 0.0
H991 H 0.46476 0.8405 0.12609 0.0
H992 H 0.39436 0.84831 0.17658 0.0
H993 H 0.38636 0.78069 0.14778 0.0
H994 H 0.41314 0.88502 0.13028 0.0
H995 H 0.44278 0.89033 0.14213 0.0
H996 H 0.41755 0.88738 0.1599 0.0
H997 H 0.40079 0.80192 0.0934 0.0
H998 H 0.39989 0.77885 0.11185 0.0
H999 H 0.42994 0.80668 0.10588 0.0
C1000 C 0.58693 0.4334 0.25461 0.0
C1001 C 0.56275 0.43147 0.25383 0.0
C1002 C 0.59714 0.43046 0.27446 0.0
C1003 C 0.58288 0.42564 0.29406 0.0
C1004 C 0.55795 0.42258 0.2932 0.0
C1005 C 0.54811 0.42544 0.27302 0.0
C1006 C 0.62368 0.43361 0.27462 0.0
C1007 C 0.54222 0.41752 0.31376 0.0
C1008 C 0.60746 0.4062 0.34363 0.0
C1009 C 0.62327 0.42948 0.35437 0.0
C1010 C 0.59349 0.40444 0.32428 0.0
C1011 C 0.59527 0.42642 0.31564 0.0
C1012 C 0.61045 0.44977 0.32689 0.0
C1013 C 0.62432 0.45102 0.34603 0.0
C1014 C 0.57755 0.37924 0.31266 0.0
C1015 C 0.6127 0.47364 0.31834 0.0
H1016 H 0.59807 0.43761 0.23968 0.0
H1017 H 0.52942 0.42398 0.27244 0.0
H1018 H 0.63719 0.45089 0.28421 0.0
H1019 H 0.62343 0.41757 0.28284 0.0
H1020 H 0.63122 0.43502 0.25769 0.0
H1021 H 0.52222 0.41292 0.30993 0.0
H1022 H 0.54155 0.4018 0.3229 0.0
H1023 H 0.55141 0.43435 0.32492 0.0
H1024 H 0.60653 0.38947 0.34998 0.0
H1025 H 0.63625 0.46905 0.35435 0.0
H1026 H 0.58606 0.37938 0.29644 0.0
H1027 H 0.55775 0.37542 0.30937 0.0
H1028 H 0.57647 0.36367 0.32243 0.0
H1029 H 0.62226 0.47798 0.3021 0.0
H1030 H 0.62395 0.48996 0.3298 0.0
H1031 H 0.59331 0.4712 0.31575 0.0
C1032 C 0.44236 0.90209 0.35407 0.0
C1033 C 0.44394 0.89272 0.37454 0.0
C1034 C 0.43446 0.88662 0.33499 0.0
C1035 C 0.42729 0.86105 0.33664 0.0
C1036 C 0.42991 0.85182 0.35718 0.0
C1037 C 0.43848 0.8679 0.3759 0.0
C1038 C 0.43248 0.89732 0.3133 0.0
C1039 C 0.422 0.82459 0.35972 0.0
C1040 C 0.37544 0.81814 0.29526 0.0
C1041 C 0.38953 0.81333 0.27963 0.0
C1042 C 0.38741 0.83282 0.31431 0.0
C1043 C 0.41427 0.8435 0.31754 0.0
C1044 C 0.42856 0.83832 0.30204 0.0
C1045 C 0.41592 0.82299 0.28335 0.0
C1046 C 0.37136 0.83738 0.33072 0.0
C1047 C 0.45729 0.84976 0.30475 0.0
H1048 H 0.44669 0.92135 0.35314 0.0
H1049 H 0.43952 0.8607 0.39187 0.0
H1050 H 0.44144 0.89198 0.29994 0.0
H1051 H 0.41193 0.88946 0.30862 0.0
H1052 H 0.4419 0.91811 0.31421 0.0
H1053 H 0.42791 0.82106 0.37608 0.0
H1054 H 0.40077 0.81279 0.35793 0.0
H1055 H 0.43046 0.81843 0.34657 0.0
H1056 H 0.35497 0.81047 0.29252 0.0
H1057 H 0.42686 0.81939 0.2712 0.0
H1058 H 0.37721 0.85755 0.33108 0.0
H1059 H 0.37461 0.83266 0.3476 0.0
H1060 H 0.35046 0.82615 0.32661 0.0
H1061 H 0.46682 0.87046 0.3035 0.0
H1062 H 0.46531 0.8426 0.29202 0.0
H1063 H 0.46217 0.84583 0.32135 0.0
C1064 C 0.58645 0.46931 0.54879 0.0
C1065 C 0.59928 0.47224 0.56903 0.0
C1066 C 0.59446 0.46276 0.52935 0.0
C1067 C 0.6158 0.45905 0.53022 0.0
C1068 C 0.62827 0.46115 0.55073 0.0
C1069 C 0.61986 0.46772 0.56988 0.0
C1070 C 0.58069 0.46072 0.50777 0.0
C1071 C 0.65101 0.45723 0.55233 0.0
C1072 C 0.62741 0.42707 0.48104 0.0
C1073 C 0.64589 0.4478 0.46947 0.0
C1074 C 0.6175 0.43037 0.50095 0.0
C1075 C 0.62632 0.45495 0.50945 0.0
C1076 C 0.64522 0.47589 0.49803 0.0
C1077 C 0.65475 0.47206 0.47822 0.0
C1078 C 0.59738 0.40762 0.51272 0.0
C1079 C 0.6552 0.50241 0.50661 0.0
H1080 H 0.57063 0.47292 0.54801 0.0
H1081 H 0.62953 0.46948 0.58557 0.0
H1082 H 0.59388 0.47584 0.49671 0.0
H1083 H 0.57489 0.44255 0.49922 0.0
H1084 H 0.56329 0.46228 0.51016 0.0
H1085 H 0.6574 0.45781 0.56972 0.0
H1086 H 0.64612 0.43889 0.5446 0.0
H1087 H 0.66735 0.47203 0.54314 0.0
H1088 H 0.62041 0.40826 0.47439 0.0
H1089 H 0.66906 0.48822 0.46947 0.0
H1090 H 0.57935 0.40826 0.51377 0.0
H1091 H 0.60396 0.40763 0.52991 0.0
H1092 H 0.59301 0.38976 0.50423 0.0
H1093 H 0.63912 0.50622 0.50775 0.0
H1094 H 0.67015 0.51664 0.49588 0.0
H1095 H 0.66353 0.50476 0.52351 0.0
C1096 C 0.15782 0.62352 0.72131 0.0
C1097 C 0.13305 0.60226 0.71975 0.0
C1098 C 0.17305 0.63299 0.70257 0.0
C1099 C 0.16336 0.62086 0.68176 0.0
C1100 C 0.13859 0.59913 0.68011 0.0
C1101 C 0.12371 0.59012 0.69912 0.0
C1102 C 0.19936 0.65621 0.705 0.0
C1103 C 0.12761 0.58568 0.65818 0.0
C1104 C 0.18924 0.65864 0.62989 0.0
C1105 C 0.20617 0.65094 0.6223 0.0
C1106 C 0.17549 0.64924 0.64936 0.0
C1107 C 0.17863 0.63158 0.66154 0.0
C1108 C 0.19601 0.62403 0.65424 0.0
C1109 C 0.20966 0.63387 0.63472 0.0
C1110 C 0.15732 0.65794 0.65671 0.0
C1111 C 0.1998 0.6052 0.66681 0.0
H1112 H 0.1654 0.63271 0.73727 0.0
H1113 H 0.10454 0.57381 0.69776 0.0
H1114 H 0.21421 0.65234 0.69854 0.0
H1115 H 0.2001 0.67149 0.69507 0.0
H1116 H 0.20438 0.66297 0.72246 0.0
H1117 H 0.10859 0.56836 0.65987 0.0
H1118 H 0.12538 0.59832 0.64674 0.0
H1119 H 0.14101 0.58055 0.65045 0.0
H1120 H 0.18649 0.67191 0.62048 0.0
H1121 H 0.22264 0.62776 0.62895 0.0
H1122 H 0.16249 0.66604 0.67376 0.0
H1123 H 0.13739 0.64171 0.65704 0.0
H1124 H 0.15759 0.67226 0.64568 0.0
H1125 H 0.2057 0.61185 0.68418 0.0
H1126 H 0.21456 0.60182 0.65929 0.0
H1127 H 0.18137 0.58709 0.66726 0.0
C1128 C 0.55229 0.16848 0.89029 0.0
C1129 C 0.55009 0.14474 0.88973 0.0
C1130 C 0.5545 0.18131 0.87078 0.0
C1131 C 0.55471 0.17023 0.85018 0.0
C1132 C 0.55266 0.14636 0.84946 0.0
C1133 C 0.55031 0.13387 0.86924 0.0
C1134 C 0.55662 0.20673 0.87222 0.0
C1135 C 0.55286 0.13398 0.82779 0.0
C1136 C 0.53667 0.19223 0.79842 0.0
C1137 C 0.56088 0.2088 0.78978 0.0
C1138 C 0.53441 0.17963 0.8181 0.0
C1139 C 0.55687 0.18357 0.82937 0.0
C1140 C 0.58137 0.20032 0.82081 0.0
C1141 C 0.58309 0.2128 0.80115 0.0
C1142 C 0.50795 0.16205 0.82681 0.0
C1143 C 0.60575 0.20492 0.83233 0.0
H1144 H 0.55263 0.17724 0.90606 0.0
H1145 H 0.54835 0.11543 0.86864 0.0
H1146 H 0.57491 0.22107 0.86488 0.0
H1147 H 0.54071 0.20637 0.86255 0.0
H1148 H 0.55596 0.21265 0.88952 0.0
H1149 H 0.55153 0.11556 0.83009 0.0
H1150 H 0.53649 0.13107 0.81709 0.0
H1151 H 0.57077 0.14637 0.81885 0.0
H1152 H 0.51941 0.18905 0.7898 0.0
H1153 H 0.60187 0.22549 0.79458 0.0
H1154 H 0.50624 0.16821 0.84373 0.0
H1155 H 0.50496 0.14285 0.82799 0.0
H1156 H 0.4924 0.16117 0.81616 0.0
H1157 H 0.60679 0.21224 0.84941 0.0
H1158 H 0.6233 0.2185 0.82351 0.0
H1159 H 0.60568 0.18699 0.83364 0.0
C1160 C 0.42991 0.56645 0.05441 0.0
C1161 C 0.42831 0.57747 0.07426 0.0
C1162 C 0.42228 0.57193 0.0343 0.0
C1163 C 0.4121 0.58818 0.03426 0.0
C1164 C 0.41104 0.59981 0.05429 0.0
C1165 C 0.41946 0.5945 0.07406 0.0
C1166 C 0.4243 0.55966 0.01322 0.0
C1167 C 0.39974 0.61674 0.05502 0.0
C1168 C 0.40416 0.61321 0.97957 0.0
C1169 C 0.37882 0.59514 0.97351 0.0
C1170 C 0.41534 0.61129 -0.00064 0.0
C1171 C 0.40052 0.59124 0.01362 0.0
C1172 C 0.37462 0.57352 0.00792 0.0
C1173 C 0.36421 0.57548 0.98777 0.0
C1174 C 0.44319 0.63019 0.00466 0.0
C1175 C 0.35796 0.55226 0.02296 0.0
H1176 H 0.43683 0.55331 0.0547 0.0
H1177 H 0.41805 0.60278 0.08955 0.0
H1178 H 0.40475 0.54581 0.00683 0.0
H1179 H 0.43385 0.5739 0.00033 0.0
H1180 H 0.43523 0.54982 0.01573 0.0
H1181 H 0.40196 0.62565 0.07162 0.0
H1182 H 0.409 0.63172 0.04272 0.0
H1183 H 0.37894 0.60567 0.0506 0.0
H1184 H 0.41553 0.62831 0.96844 0.0
H1185 H 0.34454 0.56161 0.98317 0.0
H1186 H 0.45443 0.62048 0.00543 0.0
H1187 H 0.44504 0.63918 0.02113 0.0
H1188 H 0.45183 0.64507 0.99217 0.0
H1189 H 0.36581 0.53952 0.02449 0.0
H1190 H 0.33774 0.5411 0.01677 0.0
H1191 H 0.35804 0.55975 0.03978 0.0
C1192 C 0.86927 0.40426 0.19987 0.0
C1193 C 0.86832 0.41771 0.21835 0.0
C1194 C 0.85645 0.4032 0.18002 0.0
C1195 C 0.84194 0.41542 0.17892 0.0
C1196 C 0.84039 0.42843 0.19779 0.0
C1197 C 0.85385 0.42964 0.21722 0.0
C1198 C 0.85897 0.38959 0.16011 0.0
C1199 C 0.82471 0.44127 0.19741 0.0
C1200 C 0.82929 0.43663 0.12418 0.0
C1201 C 0.80399 0.41763 0.11908 0.0
C1202 C 0.84213 0.43567 0.14324 0.0
C1203 C 0.82916 0.41552 0.15782 0.0
C1204 C 0.80369 0.39616 0.15268 0.0
C1205 C 0.79149 0.3973 0.13321 0.0
C1206 C 0.86948 0.45642 0.14791 0.0
C1207 C 0.78907 0.37464 0.16806 0.0
H1208 H 0.88059 0.39513 0.2008 0.0
H1209 H 0.85294 0.4398 0.23165 0.0
H1210 H 0.83967 0.37493 0.1539 0.0
H1211 H 0.86828 0.40298 0.14657 0.0
H1212 H 0.8705 0.38061 0.16385 0.0
H1213 H 0.82428 0.44929 0.21387 0.0
H1214 H 0.83285 0.45665 0.18539 0.0
H1215 H 0.80466 0.42777 0.1919 0.0
H1216 H 0.83913 0.45225 0.11318 0.0
H1217 H 0.7719 0.38263 0.12937 0.0
H1218 H 0.88204 0.44836 0.15071 0.0
H1219 H 0.87031 0.46697 0.16322 0.0
H1220 H 0.87738 0.46983 0.13418 0.0
H1221 H 0.79998 0.36491 0.17116 0.0
H1222 H 0.76967 0.36072 0.16135 0.0
H1223 H 0.78684 0.38197 0.18425 0.0
loop_
_geom_bond_atom_site_label_1
_geom_bond_atom_site_label_2
_geom_bond_distance
_geom_bond_site_symmetry_2
_ccdc_geom_bond_type
H0 C27 0.929 . S
N1 C26 1.433 . S
N1 C32 1.435 . S
N1 C38 1.423 . S
H2 C28 0.930 . S
H3 C31 0.931 . S
H4 C30 0.929 . S
H5 C33 0.930 . S
H6 C34 0.932 . S
H7 C37 0.929 . S
H8 C36 0.931 . S
H9 C39 0.929 . S
H10 C43 0.932 . S
H11 C40 0.931 . S
H12 C42 0.929 . S
H13 C45 0.929 . S
H14 C46 0.930 . S
H15 C48 0.929 . S
H16 C49 0.931 . S
H17 C51 0.930 . S
H18 C52 0.932 . S
H19 C54 0.931 . S
H20 C55 0.929 . S
H21 C57 0.929 . S
H22 C58 0.931 . S
H23 C60 0.929 . S
N24 C44 1.433 . S
N24 C50 1.435 . S
N24 C56 1.423 . S
H25 C61 0.932 . S
C26 N1 1.433 . S
C26 C27 1.363 . S
C26 C31 1.370 . S
C27 H0 0.929 . S
C27 C26 1.363 . S
C27 C28 1.385 . S
C28 H2 0.930 . S
C28 C27 1.385 . S
C28 C29 1.357 . S
C29 C28 1.357 . S
C29 C30 1.406 . S
C30 H4 0.929 . S
C30 C29 1.406 . S
C30 C31 1.391 . S
C31 H3 0.931 . S
C31 C26 1.370 . S
C31 C30 1.391 . S
C32 N1 1.435 . S
C32 C33 1.358 . S
C32 C37 1.371 . S
C33 H5 0.930 . S
C33 C32 1.358 . S
C33 C34 1.405 . S
C34 H6 0.932 . S
C34 C33 1.405 . S
C34 C35 1.383 . S
C35 C34 1.383 . S
C35 C36 1.393 . S
C36 H8 0.931 . S
C36 C35 1.393 . S
C36 C37 1.382 . S
C37 H7 0.929 . S
C37 C32 1.371 . S
C37 C36 1.382 . S
C38 N1 1.423 . S
C38 C39 1.362 . S
C38 C43 1.388 . S
C39 H9 0.929 . S
C39 C38 1.362 . S
C39 C40 1.376 . S
C40 H11 0.931 . S
C40 C39 1.376 . S
C40 C41 1.396 . S
C41 C40 1.396 . S
C41 C42 1.348 . S
C41 C59 1.472 1_455 S
C42 H12 0.929 . S
C42 C41 1.348 . S
C42 C43 1.443 . S
C43 H10 0.932 . S
C43 C38 1.388 . S
C43 C42 1.443 . S
C44 N24 1.433 . S
C44 C45 1.363 . S
C44 C49 1.370 . S
C45 H13 0.929 . S
C45 C44 1.363 . S
C45 C46 1.385 . S
C46 H14 0.930 . S
C46 C45 1.385 . S
C46 C47 1.357 . S
C47 C46 1.357 . S
C47 C48 1.406 . S
C48 H15 0.929 . S
C48 C47 1.406 . S
C48 C49 1.391 . S
C49 H16 0.931 . S
C49 C44 1.370 . S
C49 C48 1.391 . S
C50 N24 1.435 . S
C50 C51 1.358 . S
C50 C55 1.371 . S
C51 H17 0.930 . S
C51 C50 1.358 . S
C51 C52 1.405 . S
C52 H18 0.932 . S
C52 C51 1.405 . S
C52 C53 1.383 . S
C53 C52 1.383 . S
C53 C54 1.393 . S
C54 H19 0.931 . S
C54 C53 1.393 . S
C54 C55 1.382 . S
C55 H20 0.929 . S
C55 C50 1.371 . S
C55 C54 1.382 . S
C56 N24 1.423 . S
C56 C57 1.362 . S
C56 C61 1.388 . S
C57 H21 0.929 . S
C57 C56 1.362 . S
C57 C58 1.376 . S
C58 H22 0.931 . S
C58 C57 1.376 . S
C58 C59 1.396 . S
C59 C41 1.472 1_655 S
C59 C58 1.396 . S
C59 C60 1.348 . S
C60 H23 0.929 . S
C60 C59 1.348 . S
C60 C61 1.443 . S
C61 H25 0.932 . S
C61 C56 1.388 . S
C61 C60 1.443 . S
H62 C89 0.929 . S
N63 C88 1.433 . S
N63 C94 1.435 . S
N63 C100 1.423 . S
H64 C90 0.930 . S
H65 C93 0.931 . S
H66 C92 0.929 . S
H67 C95 0.930 . S
H68 C96 0.932 . S
H69 C99 0.929 . S
H70 C98 0.931 . S
H71 C101 0.929 . S
H72 C105 0.932 . S
H73 C102 0.931 . S
H74 C104 0.929 1_545 S
H75 C107 0.929 . S
H76 C108 0.930 . S
H77 C110 0.929 . S
H78 C111 0.931 . S
H79 C113 0.930 . S
H80 C114 0.932 . S
H81 C116 0.931 . S
H82 C117 0.929 . S
H83 C119 0.929 . S
H84 C120 0.931 . S
H85 C122 0.929 . S
N86 C106 1.433 . S
N86 C112 1.435 . S
N86 C118 1.423 . S
H87 C123 0.932 . S
C88 N63 1.433 . S
C88 C89 1.363 . S
C88 C93 1.370 . S
C89 H62 0.929 . S
C89 C88 1.363 . S
C89 C90 1.385 . S
C90 H64 0.930 . S
C90 C89 1.385 . S
C90 C91 1.357 . S
C91 C90 1.357 . S
C91 C92 1.406 . S
C92 H66 0.929 . S
C92 C91 1.406 . S
C92 C93 1.391 . S
C93 H65 0.931 . S
C93 C88 1.370 . S
C93 C92 1.391 . S
C94 N63 1.435 . S
C94 C95 1.358 . S
C94 C99 1.371 . S
C95 H67 0.930 . S
C95 C94 1.358 . S
C95 C96 1.405 . S
C96 H68 0.932 . S
C96 C95 1.405 . S
C96 C97 1.383 . S
C97 C96 1.383 . S
C97 C98 1.393 . S
C98 H70 0.931 . S
C98 C97 1.393 . S
C98 C99 1.382 . S
C99 H69 0.929 . S
C99 C94 1.371 . S
C99 C98 1.382 . S
C100 N63 1.423 . S
C100 C101 1.362 . S
C100 C105 1.388 . S
C101 H71 0.929 . S
C101 C100 1.362 . S
C101 C102 1.376 . S
C102 H73 0.931 . S
C102 C101 1.376 . S
C102 C103 1.396 1_565 S
C103 C102 1.396 1_545 S
C103 C104 1.348 1_545 S
C103 C121 1.472 . S
C104 H74 0.929 1_565 S
C104 C103 1.348 1_565 S
C104 C105 1.443 . S
C105 H72 0.932 . S
C105 C100 1.388 . S
C105 C104 1.443 . S
C106 N86 1.433 . S
C106 C107 1.363 . S
C106 C111 1.370 . S
C107 H75 0.929 . S
C107 C106 1.363 . S
C107 C108 1.385 . S
C108 H76 0.930 . S
C108 C107 1.385 . S
C108 C109 1.357 . S
C109 C108 1.357 . S
C109 C110 1.406 . S
C110 H77 0.929 . S
C110 C109 1.406 . S
C110 C111 1.391 . S
C111 H78 0.931 . S
C111 C106 1.370 . S
C111 C110 1.391 . S
C112 N86 1.435 . S
C112 C113 1.358 . S
C112 C117 1.371 . S
C113 H79 0.930 . S
C113 C112 1.358 . S
C113 C114 1.405 . S
C114 H80 0.932 . S
C114 C113 1.405 . S
C114 C115 1.383 . S
C115 C114 1.383 . S
C115 C116 1.393 . S
C116 H81 0.931 . S
C116 C115 1.393 . S
C116 C117 1.382 . S
C117 H82 0.929 . S
C117 C112 1.371 . S
C117 C116 1.382 . S
C118 N86 1.423 . S
C118 C119 1.362 . S
C118 C123 1.388 . S
C119 H83 0.929 . S
C119 C118 1.362 . S
C119 C120 1.376 . S
C120 H84 0.931 . S
C120 C119 1.376 . S
C120 C121 1.396 . S
C121 C103 1.472 . S
C121 C120 1.396 . S
C121 C122 1.348 . S
C122 H85 0.929 . S
C122 C121 1.348 . S
C122 C123 1.443 . S
C123 H87 0.932 . S
C123 C118 1.388 . S
C123 C122 1.443 . S
H124 C151 0.929 . S
N125 C150 1.433 . S
N125 C156 1.435 . S
N125 C162 1.423 . S
H126 C152 0.930 . S
H127 C155 0.931 . S
H128 C154 0.929 . S
H129 C157 0.930 . S
H130 C158 0.932 . S
H131 C161 0.929 . S
H132 C160 0.931 . S
H133 C163 0.929 . S
H134 C167 0.932 . S
H135 C164 0.931 . S
H136 C166 0.929 . S
H137 C169 0.929 . S
H138 C170 0.930 . S
H139 C172 0.929 . S
H140 C173 0.931 . S
H141 C175 0.930 . S
H142 C176 0.932 . S
H143 C178 0.931 . S
H144 C179 0.929 . S
H145 C181 0.929 . S
H146 C182 0.931 . S
H147 C184 0.929 . S
N148 C168 1.433 . S
N148 C174 1.435 . S
N148 C180 1.423 . S
H149 C185 0.932 . S
C150 N125 1.433 . S
C150 C151 1.363 . S
C150 C155 1.370 . S
C151 H124 0.929 . S
C151 C150 1.363 . S
C151 C152 1.385 . S
C152 H126 0.930 . S
C152 C151 1.385 . S
C152 C153 1.357 . S
C153 C152 1.357 . S
C153 C154 1.406 . S
C154 H128 0.929 . S
C154 C153 1.406 . S
C154 C155 1.391 . S
C155 H127 0.931 . S
C155 C150 1.370 . S
C155 C154 1.391 . S
C156 N125 1.435 . S
C156 C157 1.358 . S
C156 C161 1.371 . S
C157 H129 0.930 . S
C157 C156 1.358 . S
C157 C158 1.405 . S
C158 H130 0.932 . S
C158 C157 1.405 . S
C158 C159 1.383 . S
C159 C158 1.383 . S
C159 C160 1.393 . S
C160 H132 0.931 . S
C160 C159 1.393 . S
C160 C161 1.382 . S
C161 H131 0.929 . S
C161 C156 1.371 . S
C161 C160 1.382 . S
C162 N125 1.423 . S
C162 C163 1.362 . S
C162 C167 1.388 . S
C163 H133 0.929 . S
C163 C162 1.362 . S
C163 C164 1.376 . S
C164 H135 0.931 . S
C164 C163 1.376 . S
C164 C165 1.396 . S
C165 C164 1.396 . S
C165 C166 1.348 . S
C165 C183 1.472 . S
C166 H136 0.929 . S
C166 C165 1.348 . S
C166 C167 1.443 . S
C167 H134 0.932 . S
C167 C162 1.388 . S
C167 C166 1.443 . S
C168 N148 1.433 . S
C168 C169 1.363 . S
C168 C173 1.370 . S
C169 H137 0.929 . S
C169 C168 1.363 . S
C169 C170 1.385 . S
C170 H138 0.930 . S
C170 C169 1.385 . S
C170 C171 1.357 . S
C171 C170 1.357 . S
C171 C172 1.406 . S
C172 H139 0.929 . S
C172 C171 1.406 . S
C172 C173 1.391 . S
C173 H140 0.931 . S
C173 C168 1.370 . S
C173 C172 1.391 . S
C174 N148 1.435 . S
C174 C175 1.358 . S
C174 C179 1.371 . S
C175 H141 0.930 . S
C175 C174 1.358 . S
C175 C176 1.405 . S
C176 H142 0.932 . S
C176 C175 1.405 . S
C176 C177 1.383 . S
C177 C176 1.383 . S
C177 C178 1.393 . S
C178 H143 0.931 . S
C178 C177 1.393 . S
C178 C179 1.382 . S
C179 H144 0.929 . S
C179 C174 1.371 . S
C179 C178 1.382 . S
C180 N148 1.423 . S
C180 C181 1.362 . S
C180 C185 1.388 . S
C181 H145 0.929 . S
C181 C180 1.362 . S
C181 C182 1.376 . S
C182 H146 0.931 . S
C182 C181 1.376 . S
C182 C183 1.396 . S
C183 C165 1.472 . S
C183 C182 1.396 . S
C183 C184 1.348 . S
C184 H147 0.929 . S
C184 C183 1.348 . S
C184 C185 1.443 . S
C185 H149 0.932 . S
C185 C180 1.388 . S
C185 C184 1.443 . S
H186 C213 0.929 . S
N187 C212 1.433 . S
N187 C218 1.435 . S
N187 C224 1.423 . S
H188 C214 0.930 . S
H189 C217 0.931 . S
H190 C216 0.929 . S
H191 C219 0.930 . S
H192 C220 0.932 . S
H193 C223 0.929 . S
H194 C222 0.931 . S
H195 C225 0.929 . S
H196 C229 0.932 . S
H197 C226 0.931 . S
H198 C228 0.929 . S
H199 C231 0.929 . S
H200 C232 0.930 . S
H201 C234 0.929 . S
H202 C235 0.931 . S
H203 C237 0.930 . S
H204 C238 0.932 . S
H205 C240 0.931 . S
H206 C241 0.929 . S
H207 C243 0.929 . S
H208 C244 0.931 . S
H209 C246 0.929 . S
N210 C230 1.433 . S
N210 C236 1.435 . S
N210 C242 1.423 . S
H211 C247 0.932 . S
C212 N187 1.433 . S
C212 C213 1.363 . S
C212 C217 1.370 . S
C213 H186 0.929 . S
C213 C212 1.363 . S
C213 C214 1.385 . S
C214 H188 0.930 . S
C214 C213 1.385 . S
C214 C215 1.357 . S
C215 C214 1.357 . S
C215 C216 1.406 . S
C216 H190 0.929 . S
C216 C215 1.406 . S
C216 C217 1.391 . S
C217 H189 0.931 . S
C217 C212 1.370 . S
C217 C216 1.391 . S
C218 N187 1.435 . S
C218 C219 1.358 . S
C218 C223 1.371 . S
C219 H191 0.930 . S
C219 C218 1.358 . S
C219 C220 1.405 . S
C220 H192 0.932 . S
C220 C219 1.405 . S
C220 C221 1.383 . S
C221 C220 1.383 . S
C221 C222 1.393 . S
C222 H194 0.931 . S
C222 C221 1.393 . S
C222 C223 1.382 . S
C223 H193 0.929 . S
C223 C218 1.371 . S
C223 C222 1.382 . S
C224 N187 1.423 . S
C224 C225 1.362 . S
C224 C229 1.388 . S
C225 H195 0.929 . S
C225 C224 1.362 . S
C225 C226 1.376 . S
C226 H197 0.931 . S
C226 C225 1.376 . S
C226 C227 1.396 . S
C227 C226 1.396 . S
C227 C228 1.348 . S
C227 C245 1.472 1_455 S
C228 H198 0.929 . S
C228 C227 1.348 . S
C228 C229 1.443 . S
C229 H196 0.932 . S
C229 C224 1.388 . S
C229 C228 1.443 . S
C230 N210 1.433 . S
C230 C231 1.363 . S
C230 C235 1.370 . S
C231 H199 0.929 . S
C231 C230 1.363 . S
C231 C232 1.385 . S
C232 H200 0.930 . S
C232 C231 1.385 . S
C232 C233 1.357 . S
C233 C232 1.357 . S
C233 C234 1.406 . S
C234 H201 0.929 . S
C234 C233 1.406 . S
C234 C235 1.391 . S
C235 H202 0.931 . S
C235 C230 1.370 . S
C235 C234 1.391 . S
C236 N210 1.435 . S
C236 C237 1.358 . S
C236 C241 1.371 . S
C237 H203 0.930 . S
C237 C236 1.358 . S
C237 C238 1.405 . S
C238 H204 0.932 . S
C238 C237 1.405 . S
C238 C239 1.383 . S
C239 C238 1.383 . S
C239 C240 1.393 . S
C240 H205 0.931 . S
C240 C239 1.393 . S
C240 C241 1.382 . S
C241 H206 0.929 . S
C241 C236 1.371 . S
C241 C240 1.382 . S
C242 N210 1.423 . S
C242 C243 1.362 . S
C242 C247 1.388 . S
C243 H207 0.929 . S
C243 C242 1.362 . S
C243 C244 1.376 . S
C244 H208 0.931 . S
C244 C243 1.376 . S
C244 C245 1.396 . S
C245 C227 1.472 1_655 S
C245 C244 1.396 . S
C245 C246 1.348 . S
C246 H209 0.929 . S
C246 C245 1.348 . S
C246 C247 1.443 . S
C247 H211 0.932 . S
C247 C242 1.388 . S
C247 C246 1.443 . S
H248 C275 0.929 . S
N249 C274 1.433 . S
N249 C280 1.435 . S
N249 C286 1.423 . S
H250 C276 0.930 . S
H251 C279 0.931 . S
H252 C278 0.929 . S
H253 C281 0.930 . S
H254 C282 0.932 . S
H255 C285 0.929 . S
H256 C284 0.931 . S
H257 C287 0.929 . S
H258 C291 0.932 . S
H259 C288 0.931 . S
H260 C290 0.929 . S
H261 C293 0.929 . S
H262 C294 0.930 . S
H263 C296 0.929 . S
H264 C297 0.931 . S
H265 C299 0.930 1_554 S
H266 C300 0.932 . S
H267 C302 0.931 . S
H268 C303 0.929 . S
H269 C305 0.929 . S
H270 C306 0.956 1_554 S
H271 C308 0.929 . S
N272 C292 1.433 . S
N272 C298 1.435 1_554 S
N272 C304 1.423 1_554 S
H273 C309 0.932 . S
C274 N249 1.433 . S
C274 C275 1.363 . S
C274 C279 1.370 . S
C275 H248 0.929 . S
C275 C274 1.363 . S
C275 C276 1.385 . S
C276 H250 0.930 . S
C276 C275 1.385 . S
C276 C277 1.357 1_556 S
C277 C276 1.357 1_554 S
C277 C278 1.406 . S
C278 H252 0.929 . S
C278 C277 1.406 . S
C278 C279 1.391 1_554 S
C279 H251 0.931 . S
C279 C274 1.370 . S
C279 C278 1.391 1_556 S
C280 N249 1.435 . S
C280 C281 1.358 . S
C280 C285 1.371 . S
C281 H253 0.930 . S
C281 C280 1.358 . S
C281 C282 1.405 . S
C282 H254 0.932 . S
C282 C281 1.405 . S
C282 C283 1.383 . S
C283 C282 1.383 . S
C283 C284 1.393 . S
C284 H256 0.931 . S
C284 C283 1.393 . S
C284 C285 1.382 . S
C285 H255 0.929 . S
C285 C280 1.371 . S
C285 C284 1.382 . S
C286 N249 1.423 . S
C286 C287 1.362 . S
C286 C291 1.388 . S
C287 H257 0.929 . S
C287 C286 1.362 . S
C287 C288 1.376 . S
C288 H259 0.931 . S
C288 C287 1.376 . S
C288 C289 1.396 . S
C289 C288 1.396 . S
C289 C290 1.348 . S
C289 C307 1.472 1_545 S
C290 H260 0.929 . S
C290 C289 1.348 . S
C290 C291 1.443 . S
C291 H258 0.932 . S
C291 C286 1.388 . S
C291 C290 1.443 . S
C292 N272 1.433 . S
C292 C293 1.363 . S
C292 C297 1.370 . S
C293 H261 0.929 . S
C293 C292 1.363 . S
C293 C294 1.385 . S
C294 H262 0.930 . S
C294 C293 1.385 . S
C294 C295 1.357 . S
C295 C294 1.357 . S
C295 C296 1.406 . S
C296 H263 0.929 . S
C296 C295 1.406 . S
C296 C297 1.391 . S
C297 H264 0.931 . S
C297 C292 1.370 . S
C297 C296 1.391 . S
C298 N272 1.435 1_556 S
C298 C299 1.358 . S
C298 C303 1.371 . S
C299 H265 0.930 1_556 S
C299 C298 1.358 . S
C299 C300 1.405 . S
C300 H266 0.932 . S
C300 C299 1.405 . S
C300 C301 1.383 . S
C301 C300 1.383 . S
C301 C302 1.393 . S
C302 H267 0.931 . S
C302 C301 1.393 . S
C302 C303 1.382 . S
C303 H268 0.929 . S
C303 C298 1.371 . S
C303 C302 1.382 . S
C304 N272 1.423 1_556 S
C304 C305 1.362 1_556 S
C304 C309 1.388 . S
C305 H269 0.929 . S
C305 C304 1.362 1_554 S
C305 C306 1.376 1_554 S
C306 H270 0.956 1_556 S
C306 C305 1.376 1_556 S
C306 C307 1.396 . S
C307 C289 1.472 1_565 S
C307 C306 1.396 . S
C307 C308 1.348 . S
C308 H271 0.929 . S
C308 C307 1.348 . S
C308 C309 1.443 . S
C309 H273 0.932 . S
C309 C304 1.388 . S
C309 C308 1.443 . S
H310 C337 0.929 . S
N311 C336 1.433 . S
N311 C342 1.435 . S
N311 C348 1.423 . S
H312 C338 0.930 . S
H313 C341 0.931 . S
H314 C340 0.929 . S
H315 C343 0.930 . S
H316 C344 0.932 . S
H317 C347 0.929 . S
H318 C346 0.931 . S
H319 C349 0.929 . S
H320 C353 0.932 . S
H321 C350 0.931 . S
H322 C352 0.929 . S
H323 C355 0.929 . S
H324 C356 0.930 . S
H325 C358 0.929 . S
H326 C359 0.931 . S
H327 C361 0.930 . S
H328 C362 0.932 . S
H329 C364 0.931 . S
H330 C365 0.929 . S
H331 C367 0.929 . S
H332 C368 0.931 . S
H333 C370 0.929 . S
N334 C354 1.433 . S
N334 C360 1.435 . S
N334 C366 1.423 . S
H335 C371 0.932 . S
C336 N311 1.433 . S
C336 C337 1.363 . S
C336 C341 1.370 . S
C337 H310 0.929 . S
C337 C336 1.363 . S
C337 C338 1.385 . S
C338 H312 0.930 . S
C338 C337 1.385 . S
C338 C339 1.357 . S
C339 C338 1.357 . S
C339 C340 1.406 . S
C340 H314 0.929 . S
C340 C339 1.406 . S
C340 C341 1.391 . S
C341 H313 0.931 . S
C341 C336 1.370 . S
C341 C340 1.391 . S
C342 N311 1.435 . S
C342 C343 1.358 . S
C342 C347 1.371 . S
C343 H315 0.930 . S
C343 C342 1.358 . S
C343 C344 1.405 . S
C344 H316 0.932 . S
C344 C343 1.405 . S
C344 C345 1.383 . S
C345 C344 1.383 . S
C345 C346 1.393 . S
C346 H318 0.931 . S
C346 C345 1.393 . S
C346 C347 1.382 . S
C347 H317 0.929 . S
C347 C342 1.371 . S
C347 C346 1.382 . S
C348 N311 1.423 . S
C348 C349 1.362 . S
C348 C353 1.388 . S
C349 H319 0.929 . S
C349 C348 1.362 . S
C349 C350 1.376 . S
C350 H321 0.931 . S
C350 C349 1.376 . S
C350 C351 1.396 . S
C351 C350 1.396 . S
C351 C352 1.348 . S
C351 C369 1.472 . S
C352 H322 0.929 . S
C352 C351 1.348 . S
C352 C353 1.443 . S
C353 H320 0.932 . S
C353 C348 1.388 . S
C353 C352 1.443 . S
C354 N334 1.433 . S
C354 C355 1.363 . S
C354 C359 1.370 . S
C355 H323 0.929 . S
C355 C354 1.363 . S
C355 C356 1.385 . S
C356 H324 0.930 . S
C356 C355 1.385 . S
C356 C357 1.357 . S
C357 C356 1.357 . S
C357 C358 1.406 . S
C358 H325 0.929 . S
C358 C357 1.406 . S
C358 C359 1.391 . S
C359 H326 0.931 . S
C359 C354 1.370 . S
C359 C358 1.391 . S
C360 N334 1.435 . S
C360 C361 1.358 . S
C360 C365 1.371 . S
C361 H327 0.930 . S
C361 C360 1.358 . S
C361 C362 1.405 . S
C362 H328 0.932 . S
C362 C361 1.405 . S
C362 C363 1.383 . S
C363 C362 1.383 . S
C363 C364 1.393 . S
C364 H329 0.931 . S
C364 C363 1.393 . S
C364 C365 1.382 . S
C365 H330 0.929 . S
C365 C360 1.371 . S
C365 C364 1.382 . S
C366 N334 1.423 . S
C366 C367 1.362 . S
C366 C371 1.388 . S
C367 H331 0.929 . S
C367 C366 1.362 . S
C367 C368 1.376 . S
C368 H332 0.931 . S
C368 C367 1.376 . S
C368 C369 1.396 . S
C369 C351 1.472 . S
C369 C368 1.396 . S
C369 C370 1.348 . S
C370 H333 0.929 . S
C370 C369 1.348 . S
C370 C371 1.443 . S
C371 H335 0.932 . S
C371 C366 1.388 . S
C371 C370 1.443 . S
Zn372 O375 2.031 . S
Zn372 O377 2.049 . S
Zn372 O382 2.067 . S
Zn373 O374 1.962 . S
Zn373 O376 1.986 . S
Zn373 O378 1.996 . S
Zn373 O381 1.943 . S
O374 Zn373 1.962 . S
O374 C379 1.254 . S
O375 Zn372 2.031 . S
O375 C379 1.269 . S
O376 Zn373 1.986 . S
O376 C383 1.262 . S
O377 Zn372 2.049 . S
O377 C385 1.260 . S
O378 Zn373 1.996 . S
O378 C385 1.257 . S
C379 O374 1.254 . S
C379 O375 1.269 . S
C380 O381 1.249 . S
C380 O382 1.270 . S
O381 Zn373 1.943 . S
O381 C380 1.249 . S
O382 Zn372 2.067 . S
O382 C380 1.270 . S
C383 O376 1.262 . S
C383 O384 1.232 . S
O384 C383 1.232 . S
C385 O377 1.260 . S
C385 O378 1.257 . S
Zn386 O389 2.031 . S
Zn386 O391 2.049 . S
Zn386 O396 2.067 . S
Zn387 O388 1.962 . S
Zn387 O390 1.986 . S
Zn387 O392 1.996 . S
Zn387 O395 1.943 . S
O388 Zn387 1.962 . S
O388 C393 1.254 . S
O389 Zn386 2.031 . S
O389 C393 1.269 . S
O390 Zn387 1.986 . S
O390 C397 1.262 . S
O391 Zn386 2.049 . S
O391 C399 1.260 . S
O392 Zn387 1.996 . S
O392 C399 1.257 . S
C393 O388 1.254 . S
C393 O389 1.269 . S
C394 O395 1.249 . S
C394 O396 1.270 . S
O395 Zn387 1.943 . S
O395 C394 1.249 . S
O396 Zn386 2.067 . S
O396 C394 1.270 . S
C397 O390 1.262 . S
C397 O398 1.232 . S
O398 C397 1.232 . S
C399 O391 1.260 . S
C399 O392 1.257 . S
Zn400 O403 2.031 . S
Zn400 O405 2.049 . S
Zn400 O410 2.067 . S
Zn401 O402 1.962 . S
Zn401 O404 1.986 . S
Zn401 O406 1.996 . S
Zn401 O409 1.943 . S
O402 Zn401 1.962 . S
O402 C407 1.254 . S
O403 Zn400 2.031 . S
O403 C407 1.269 . S
O404 Zn401 1.986 . S
O404 C411 1.262 . S
O405 Zn400 2.049 . S
O405 C413 1.260 . S
O406 Zn401 1.996 . S
O406 C413 1.257 . S
C407 O402 1.254 . S
C407 O403 1.269 . S
C408 O409 1.249 . S
C408 O410 1.270 . S
O409 Zn401 1.943 . S
O409 C408 1.249 . S
O410 Zn400 2.067 . S
O410 C408 1.270 . S
C411 O404 1.262 . S
C411 O412 1.232 . S
O412 C411 1.232 . S
C413 O405 1.260 . S
C413 O406 1.257 . S
Zn414 O417 2.031 . S
Zn414 O419 2.049 . S
Zn414 O424 2.067 . S
Zn415 O416 1.962 . S
Zn415 O418 1.986 . S
Zn415 O420 1.996 . S
Zn415 O423 1.943 . S
O416 Zn415 1.962 . S
O416 C421 1.254 . S
O417 Zn414 2.031 . S
O417 C421 1.269 . S
O418 Zn415 1.986 . S
O418 C425 1.262 . S
O419 Zn414 2.049 . S
O419 C427 1.260 . S
O420 Zn415 1.996 . S
O420 C427 1.257 . S
C421 O416 1.254 . S
C421 O417 1.269 . S
C422 O423 1.249 . S
C422 O424 1.270 . S
O423 Zn415 1.943 . S
O423 C422 1.249 . S
O424 Zn414 2.067 . S
O424 C422 1.270 . S
C425 O418 1.262 . S
C425 O426 1.232 . S
O426 C425 1.232 . S
C427 O419 1.260 . S
C427 O420 1.257 . S
Zn428 O431 2.031 . S
Zn428 O433 2.049 . S
Zn428 O438 2.067 . S
Zn429 O430 1.962 . S
Zn429 O432 1.986 . S
Zn429 O434 1.996 . S
Zn429 O437 1.943 . S
O430 Zn429 1.962 . S
O430 C435 1.254 . S
O431 Zn428 2.031 . S
O431 C435 1.269 . S
O432 Zn429 1.986 . S
O432 C439 1.262 . S
O433 Zn428 2.049 . S
O433 C441 1.260 . S
O434 Zn429 1.996 . S
O434 C441 1.257 . S
C435 O430 1.254 . S
C435 O431 1.269 . S
C436 O437 1.249 . S
C436 O438 1.270 . S
O437 Zn429 1.943 . S
O437 C436 1.249 . S
O438 Zn428 2.067 . S
O438 C436 1.270 . S
C439 O432 1.262 . S
C439 O440 1.232 . S
O440 C439 1.232 . S
C441 O433 1.260 . S
C441 O434 1.257 . S
Zn442 O445 2.031 . S
Zn442 O447 2.049 . S
Zn442 O452 2.067 . S
Zn443 O444 1.962 . S
Zn443 O446 1.986 . S
Zn443 O448 1.996 . S
Zn443 O451 1.943 . S
O444 Zn443 1.962 . S
O444 C449 1.254 . S
O445 Zn442 2.031 . S
O445 C449 1.269 . S
O446 Zn443 1.986 . S
O446 C453 1.262 . S
O447 Zn442 2.049 . S
O447 C455 1.260 . S
O448 Zn443 1.996 . S
O448 C455 1.257 . S
C449 O444 1.254 . S
C449 O445 1.269 . S
C450 O451 1.249 . S
C450 O452 1.270 . S
O451 Zn443 1.943 . S
O451 C450 1.249 . S
O452 Zn442 2.067 . S
O452 C450 1.270 . S
C453 O446 1.262 . S
C453 O454 1.232 . S
O454 C453 1.232 . S
C455 O447 1.260 . S
C455 O448 1.257 . S
C456 C457 1.391 . S
C456 C458 1.394 . S
C456 H472 0.931 . S
C457 C456 1.391 . S
C457 C461 1.376 . S
C458 C456 1.394 . S
C458 C459 1.369 . S
C458 C462 1.531 . S
C459 C458 1.369 . S
C459 C460 1.410 . S
C459 C467 1.503 . S
C460 C459 1.410 . S
C460 C461 1.392 . S
C460 C463 1.511 . S
C461 C457 1.376 . S
C461 C460 1.392 . S
C461 H473 0.929 . S
C462 C458 1.531 . S
C462 H474 0.960 . S
C462 H475 0.962 . S
C462 H476 0.960 . S
C463 C460 1.511 . S
C463 H477 0.961 . S
C463 H478 0.961 . S
C463 H479 0.961 . S
C464 C465 1.370 . S
C464 C466 1.363 . S
C464 H480 0.931 . S
C465 C464 1.370 . S
C465 C469 1.408 . S
C466 C464 1.363 . S
C466 C467 1.370 . S
C466 C470 1.524 . S
C467 C459 1.503 . S
C467 C466 1.370 . S
C467 C468 1.403 . S
C468 C467 1.403 . S
C468 C469 1.404 . S
C468 C471 1.539 . S
C469 C465 1.408 . S
C469 C468 1.404 . S
C469 H481 0.930 . S
C470 C466 1.524 . S
C470 H482 0.956 . S
C470 H483 0.961 . S
C470 H484 0.961 . S
C471 C468 1.539 . S
C471 H485 0.958 . S
C471 H486 0.961 . S
C471 H487 0.960 . S
H472 C456 0.931 . S
H473 C461 0.929 . S
H474 C462 0.960 . S
H475 C462 0.962 . S
H476 C462 0.960 . S
H477 C463 0.961 . S
H478 C463 0.961 . S
H479 C463 0.961 . S
H480 C464 0.931 . S
H481 C469 0.930 . S
H482 C470 0.956 . S
H483 C470 0.961 . S
H484 C470 0.961 . S
H485 C471 0.958 . S
H486 C471 0.961 . S
H487 C471 0.960 . S
C488 C489 1.391 . S
C488 C490 1.394 . S
C488 H504 0.931 . S
C489 C488 1.391 . S
C489 C493 1.376 . S
C490 C488 1.394 . S
C490 C491 1.369 . S
C490 C494 1.531 . S
C491 C490 1.369 . S
C491 C492 1.410 . S
C491 C499 1.503 . S
C492 C491 1.410 . S
C492 C493 1.392 . S
C492 C495 1.511 . S
C493 C489 1.376 . S
C493 C492 1.392 . S
C493 H505 0.929 . S
C494 C490 1.531 . S
C494 H506 0.960 . S
C494 H507 0.962 . S
C494 H508 0.960 . S
C495 C492 1.511 . S
C495 H509 0.961 . S
C495 H510 0.961 . S
C495 H511 0.961 . S
C496 C497 1.370 . S
C496 C498 1.363 . S
C496 H512 0.931 . S
C497 C496 1.370 . S
C497 C501 1.408 . S
C498 C496 1.363 . S
C498 C499 1.370 . S
C498 C502 1.524 . S
C499 C491 1.503 . S
C499 C498 1.370 . S
C499 C500 1.403 . S
C500 C499 1.403 . S
C500 C501 1.404 . S
C500 C503 1.539 . S
C501 C497 1.408 . S
C501 C500 1.404 . S
C501 H513 0.930 . S
C502 C498 1.524 . S
C502 H514 0.956 . S
C502 H515 0.961 . S
C502 H516 0.961 . S
C503 C500 1.539 . S
C503 H517 0.958 . S
C503 H518 0.961 . S
C503 H519 0.960 . S
H504 C488 0.931 . S
H505 C493 0.929 . S
H506 C494 0.960 . S
H507 C494 0.962 . S
H508 C494 0.960 . S
H509 C495 0.961 . S
H510 C495 0.961 . S
H511 C495 0.961 . S
H512 C496 0.931 . S
H513 C501 0.930 . S
H514 C502 0.956 . S
H515 C502 0.961 . S
H516 C502 0.961 . S
H517 C503 0.958 . S
H518 C503 0.961 . S
H519 C503 0.960 . S
C520 C521 1.391 . S
C520 C522 1.394 . S
C520 H536 0.931 . S
C521 C520 1.391 . S
C521 C525 1.376 . S
C522 C520 1.394 . S
C522 C523 1.369 . S
C522 C526 1.531 . S
C523 C522 1.369 . S
C523 C524 1.410 . S
C523 C531 1.503 . S
C524 C523 1.410 . S
C524 C525 1.392 . S
C524 C527 1.511 . S
C525 C521 1.376 . S
C525 C524 1.392 . S
C525 H537 0.929 . S
C526 C522 1.531 . S
C526 H538 0.960 . S
C526 H539 0.962 . S
C526 H540 0.960 . S
C527 C524 1.511 . S
C527 H541 0.961 . S
C527 H542 0.961 . S
C527 H543 0.961 . S
C528 C529 1.370 . S
C528 C530 1.363 . S
C528 H544 0.931 . S
C529 C528 1.370 . S
C529 C533 1.408 . S
C530 C528 1.363 . S
C530 C531 1.370 . S
C530 C534 1.524 . S
C531 C523 1.503 . S
C531 C530 1.370 . S
C531 C532 1.403 . S
C532 C531 1.403 . S
C532 C533 1.404 . S
C532 C535 1.539 . S
C533 C529 1.408 . S
C533 C532 1.404 . S
C533 H545 0.930 . S
C534 C530 1.524 . S
C534 H546 0.956 . S
C534 H547 0.961 . S
C534 H548 0.961 . S
C535 C532 1.539 . S
C535 H549 0.958 . S
C535 H550 0.961 . S
C535 H551 0.960 . S
H536 C520 0.931 . S
H537 C525 0.929 . S
H538 C526 0.960 . S
H539 C526 0.962 . S
H540 C526 0.960 . S
H541 C527 0.961 . S
H542 C527 0.961 . S
H543 C527 0.961 . S
H544 C528 0.931 . S
H545 C533 0.930 . S
H546 C534 0.956 . S
H547 C534 0.961 . S
H548 C534 0.961 . S
H549 C535 0.958 . S
H550 C535 0.961 . S
H551 C535 0.960 . S
C552 C553 1.391 . S
C552 C554 1.394 . S
C552 H568 0.931 . S
C553 C552 1.391 . S
C553 C557 1.376 . S
C554 C552 1.394 . S
C554 C555 1.369 . S
C554 C558 1.531 . S
C555 C554 1.369 . S
C555 C556 1.410 . S
C555 C563 1.503 . S
C556 C555 1.410 . S
C556 C557 1.392 . S
C556 C559 1.511 . S
C557 C553 1.376 . S
C557 C556 1.392 . S
C557 H569 0.929 . S
C558 C554 1.531 . S
C558 H570 0.960 . S
C558 H571 0.962 . S
C558 H572 0.960 . S
C559 C556 1.511 . S
C559 H573 0.961 . S
C559 H574 0.961 . S
C559 H575 0.961 . S
C560 C561 1.370 . S
C560 C562 1.363 . S
C560 H576 0.931 . S
C561 C560 1.370 . S
C561 C565 1.408 . S
C562 C560 1.363 . S
C562 C563 1.370 . S
C562 C566 1.524 . S
C563 C555 1.503 . S
C563 C562 1.370 . S
C563 C564 1.403 . S
C564 C563 1.403 . S
C564 C565 1.404 . S
C564 C567 1.539 . S
C565 C561 1.408 . S
C565 C564 1.404 . S
C565 H577 0.930 . S
C566 C562 1.524 . S
C566 H578 0.956 . S
C566 H579 0.961 . S
C566 H580 0.961 . S
C567 C564 1.539 . S
C567 H581 0.958 . S
C567 H582 0.961 . S
C567 H583 0.960 . S
H568 C552 0.931 . S
H569 C557 0.929 . S
H570 C558 0.960 . S
H571 C558 0.962 . S
H572 C558 0.960 . S
H573 C559 0.961 . S
H574 C559 0.961 . S
H575 C559 0.961 . S
H576 C560 0.931 . S
H577 C565 0.930 . S
H578 C566 0.956 . S
H579 C566 0.961 . S
H580 C566 0.961 . S
H581 C567 0.958 . S
H582 C567 0.961 . S
H583 C567 0.960 . S
C584 C585 1.391 . S
C584 C586 1.394 . S
C584 H600 0.931 . S
C585 C584 1.391 . S
C585 C589 1.376 . S
C586 C584 1.394 . S
C586 C587 1.369 . S
C586 C590 1.531 . S
C587 C586 1.369 . S
C587 C588 1.410 . S
C587 C595 1.503 . S
C588 C587 1.410 . S
C588 C589 1.392 . S
C588 C591 1.511 . S
C589 C585 1.376 . S
C589 C588 1.392 . S
C589 H601 0.929 . S
C590 C586 1.531 . S
C590 H602 0.960 . S
C590 H603 0.962 . S
C590 H604 0.960 . S
C591 C588 1.511 . S
C591 H605 0.961 . S
C591 H606 0.961 . S
C591 H607 0.961 . S
C592 C593 1.370 . S
C592 C594 1.363 . S
C592 H608 0.931 . S
C593 C592 1.370 . S
C593 C597 1.408 . S
C594 C592 1.363 . S
C594 C595 1.370 . S
C594 C598 1.524 . S
C595 C587 1.503 . S
C595 C594 1.370 . S
C595 C596 1.403 . S
C596 C595 1.403 . S
C596 C597 1.404 . S
C596 C599 1.539 . S
C597 C593 1.408 . S
C597 C596 1.404 . S
C597 H609 0.930 . S
C598 C594 1.524 . S
C598 H610 0.956 . S
C598 H611 0.961 . S
C598 H612 0.961 . S
C599 C596 1.539 . S
C599 H613 0.958 . S
C599 H614 0.961 . S
C599 H615 0.960 . S
H600 C584 0.931 . S
H601 C589 0.929 . S
H602 C590 0.960 . S
H603 C590 0.962 . S
H604 C590 0.960 . S
H605 C591 0.961 . S
H606 C591 0.961 . S
H607 C591 0.961 . S
H608 C592 0.931 . S
H609 C597 0.930 . S
H610 C598 0.956 . S
H611 C598 0.961 . S
H612 C598 0.961 . S
H613 C599 0.958 . S
H614 C599 0.961 . S
H615 C599 0.960 . S
C616 C617 1.391 . S
C616 C618 1.394 . S
C616 H632 0.931 . S
C617 C616 1.391 . S
C617 C621 1.376 . S
C618 C616 1.394 . S
C618 C619 1.369 . S
C618 C622 1.531 . S
C619 C618 1.369 . S
C619 C620 1.410 . S
C619 C627 1.503 . S
C620 C619 1.410 . S
C620 C621 1.392 . S
C620 C623 1.511 . S
C621 C617 1.376 . S
C621 C620 1.392 . S
C621 H633 0.929 . S
C622 C618 1.531 . S
C622 H634 0.960 . S
C622 H635 0.962 . S
C622 H636 0.960 . S
C623 C620 1.511 . S
C623 H637 0.961 . S
C623 H638 0.961 . S
C623 H639 0.961 . S
C624 C625 1.370 . S
C624 C626 1.363 . S
C624 H640 0.931 . S
C625 C624 1.370 . S
C625 C629 1.408 . S
C626 C624 1.363 . S
C626 C627 1.370 . S
C626 C630 1.524 . S
C627 C619 1.503 . S
C627 C626 1.370 . S
C627 C628 1.403 . S
C628 C627 1.403 . S
C628 C629 1.404 . S
C628 C631 1.539 . S
C629 C625 1.408 . S
C629 C628 1.404 . S
C629 H641 0.930 . S
C630 C626 1.524 . S
C630 H642 0.956 . S
C630 H643 0.961 . S
C630 H644 0.961 . S
C631 C628 1.539 . S
C631 H645 0.958 . S
C631 H646 0.961 . S
C631 H647 0.960 . S
H632 C616 0.931 . S
H633 C621 0.929 . S
H634 C622 0.960 . S
H635 C622 0.962 . S
H636 C622 0.960 . S
H637 C623 0.961 . S
H638 C623 0.961 . S
H639 C623 0.961 . S
H640 C624 0.931 . S
H641 C629 0.930 . S
H642 C630 0.956 . S
H643 C630 0.961 . S
H644 C630 0.961 . S
H645 C631 0.958 . S
H646 C631 0.961 . S
H647 C631 0.960 . S
C648 C649 1.391 . S
C648 C650 1.394 . S
C648 H664 0.931 . S
C649 C648 1.391 . S
C649 C653 1.376 . S
C650 C648 1.394 . S
C650 C651 1.369 . S
C650 C654 1.531 . S
C651 C650 1.369 . S
C651 C652 1.410 . S
C651 C659 1.503 . S
C652 C651 1.410 . S
C652 C653 1.392 . S
C652 C655 1.511 . S
C653 C649 1.376 . S
C653 C652 1.392 . S
C653 H665 0.929 . S
C654 C650 1.531 . S
C654 H666 0.960 . S
C654 H667 0.962 . S
C654 H668 0.960 . S
C655 C652 1.511 . S
C655 H669 0.961 . S
C655 H670 0.961 . S
C655 H671 0.961 . S
C656 C657 1.370 . S
C656 C658 1.363 . S
C656 H672 0.931 . S
C657 C656 1.370 . S
C657 C661 1.408 . S
C658 C656 1.363 . S
C658 C659 1.370 . S
C658 C662 1.524 . S
C659 C651 1.503 . S
C659 C658 1.370 . S
C659 C660 1.403 . S
C660 C659 1.403 . S
C660 C661 1.404 . S
C660 C663 1.539 . S
C661 C657 1.408 . S
C661 C660 1.404 . S
C661 H673 0.930 . S
C662 C658 1.524 . S
C662 H674 0.956 . S
C662 H675 0.961 . S
C662 H676 0.961 . S
C663 C660 1.539 . S
C663 H677 0.958 . S
C663 H678 0.961 . S
C663 H679 0.960 . S
H664 C648 0.931 . S
H665 C653 0.929 . S
H666 C654 0.960 . S
H667 C654 0.962 . S
H668 C654 0.960 . S
H669 C655 0.961 . S
H670 C655 0.961 . S
H671 C655 0.961 . S
H672 C656 0.931 . S
H673 C661 0.930 . S
H674 C662 0.956 . S
H675 C662 0.961 . S
H676 C662 0.961 . S
H677 C663 0.958 . S
H678 C663 0.961 . S
H679 C663 0.960 . S
C680 C681 1.391 . S
C680 C682 1.394 . S
C680 H696 0.931 . S
C681 C680 1.391 . S
C681 C685 1.376 . S
C682 C680 1.394 . S
C682 C683 1.369 . S
C682 C686 1.531 . S
C683 C682 1.369 . S
C683 C684 1.410 . S
C683 C691 1.503 . S
C684 C683 1.410 . S
C684 C685 1.392 . S
C684 C687 1.511 . S
C685 C681 1.376 . S
C685 C684 1.392 . S
C685 H697 0.929 . S
C686 C682 1.531 . S
C686 H698 0.960 . S
C686 H699 0.962 . S
C686 H700 0.960 . S
C687 C684 1.511 . S
C687 H701 0.961 . S
C687 H702 0.961 . S
C687 H703 0.961 . S
C688 C689 1.370 . S
C688 C690 1.363 . S
C688 H704 0.931 . S
C689 C688 1.370 . S
C689 C693 1.408 . S
C690 C688 1.363 . S
C690 C691 1.370 . S
C690 C694 1.524 . S
C691 C683 1.503 . S
C691 C690 1.370 . S
C691 C692 1.403 . S
C692 C691 1.403 . S
C692 C693 1.404 . S
C692 C695 1.539 . S
C693 C689 1.408 . S
C693 C692 1.404 . S
C693 H705 0.930 . S
C694 C690 1.524 . S
C694 H706 0.956 . S
C694 H707 0.961 . S
C694 H708 0.961 . S
C695 C692 1.539 . S
C695 H709 0.958 . S
C695 H710 0.961 . S
C695 H711 0.960 . S
H696 C680 0.931 . S
H697 C685 0.929 . S
H698 C686 0.960 . S
H699 C686 0.962 . S
H700 C686 0.960 . S
H701 C687 0.961 . S
H702 C687 0.961 . S
H703 C687 0.961 . S
H704 C688 0.931 . S
H705 C693 0.930 . S
H706 C694 0.956 . S
H707 C694 0.961 . S
H708 C694 0.961 . S
H709 C695 0.958 . S
H710 C695 0.961 . S
H711 C695 0.960 . S
C712 C713 1.391 . S
C712 C714 1.394 . S
C712 H728 0.931 . S
C713 C712 1.391 . S
C713 C717 1.376 . S
C714 C712 1.394 . S
C714 C715 1.369 . S
C714 C718 1.531 . S
C715 C714 1.369 . S
C715 C716 1.410 . S
C715 C723 1.503 . S
C716 C715 1.410 . S
C716 C717 1.392 . S
C716 C719 1.511 . S
C717 C713 1.376 . S
C717 C716 1.392 . S
C717 H729 0.929 . S
C718 C714 1.531 . S
C718 H730 0.960 . S
C718 H731 0.962 . S
C718 H732 0.960 . S
C719 C716 1.511 . S
C719 H733 0.961 . S
C719 H734 0.961 . S
C719 H735 0.961 . S
C720 C721 1.370 . S
C720 C722 1.363 . S
C720 H736 0.931 . S
C721 C720 1.370 . S
C721 C725 1.408 . S
C722 C720 1.363 . S
C722 C723 1.370 . S
C722 C726 1.524 . S
C723 C715 1.503 . S
C723 C722 1.370 . S
C723 C724 1.403 . S
C724 C723 1.403 . S
C724 C725 1.404 . S
C724 C727 1.539 . S
C725 C721 1.408 . S
C725 C724 1.404 . S
C725 H737 0.930 . S
C726 C722 1.524 . S
C726 H738 0.956 . S
C726 H739 0.961 . S
C726 H740 0.961 . S
C727 C724 1.539 . S
C727 H741 0.958 . S
C727 H742 0.961 . S
C727 H743 0.960 . S
H728 C712 0.931 . S
H729 C717 0.929 . S
H730 C718 0.960 . S
H731 C718 0.962 . S
H732 C718 0.960 . S
H733 C719 0.961 . S
H734 C719 0.961 . S
H735 C719 0.961 . S
H736 C720 0.931 . S
H737 C725 0.930 . S
H738 C726 0.956 . S
H739 C726 0.961 . S
H740 C726 0.961 . S
H741 C727 0.958 . S
H742 C727 0.961 . S
H743 C727 0.960 . S
C744 C745 1.391 . S
C744 C746 1.394 . S
C744 H760 0.931 . S
C745 C744 1.391 . S
C745 C749 1.376 . S
C746 C744 1.394 . S
C746 C747 1.369 . S
C746 C750 1.531 . S
C747 C746 1.369 . S
C747 C748 1.410 . S
C747 C755 1.503 . S
C748 C747 1.410 . S
C748 C749 1.392 . S
C748 C751 1.511 . S
C749 C745 1.376 . S
C749 C748 1.392 . S
C749 H761 0.929 . S
C750 C746 1.531 . S
C750 H762 0.960 . S
C750 H763 0.962 . S
C750 H764 0.960 . S
C751 C748 1.511 . S
C751 H765 0.961 1_554 S
C751 H766 0.961 . S
C751 H767 0.961 . S
C752 C753 1.370 . S
C752 C754 1.363 . S
C752 H768 0.931 . S
C753 C752 1.370 . S
C753 C757 1.408 . S
C754 C752 1.363 . S
C754 C755 1.370 . S
C754 C758 1.524 . S
C755 C747 1.503 . S
C755 C754 1.370 . S
C755 C756 1.403 . S
C756 C755 1.403 . S
C756 C757 1.404 . S
C756 C759 1.539 . S
C757 C753 1.408 . S
C757 C756 1.404 . S
C757 H769 0.930 . S
C758 C754 1.524 . S
C758 H770 0.956 . S
C758 H771 0.961 . S
C758 H772 0.961 . S
C759 C756 1.539 . S
C759 H773 0.958 . S
C759 H774 0.961 . S
C759 H775 0.960 . S
H760 C744 0.931 . S
H761 C749 0.929 . S
H762 C750 0.960 . S
H763 C750 0.962 . S
H764 C750 0.960 . S
H765 C751 0.961 1_556 S
H766 C751 0.961 . S
H767 C751 0.961 . S
H768 C752 0.931 . S
H769 C757 0.930 . S
H770 C758 0.956 . S
H771 C758 0.961 . S
H772 C758 0.961 . S
H773 C759 0.958 . S
H774 C759 0.961 . S
H775 C759 0.960 . S
C776 C777 1.391 . S
C776 C778 1.394 . S
C776 H792 0.931 . S
C777 C776 1.391 . S
C777 C781 1.376 . S
C778 C776 1.394 . S
C778 C779 1.369 . S
C778 C782 1.531 . S
C779 C778 1.369 . S
C779 C780 1.410 . S
C779 C787 1.503 . S
C780 C779 1.410 . S
C780 C781 1.392 . S
C780 C783 1.511 . S
C781 C777 1.376 . S
C781 C780 1.392 . S
C781 H793 0.929 . S
C782 C778 1.531 . S
C782 H794 0.960 . S
C782 H795 0.962 . S
C782 H796 0.960 . S
C783 C780 1.511 . S
C783 H797 0.961 . S
C783 H798 0.961 . S
C783 H799 0.961 . S
C784 C785 1.370 . S
C784 C786 1.363 . S
C784 H800 0.931 . S
C785 C784 1.370 . S
C785 C789 1.408 . S
C786 C784 1.363 . S
C786 C787 1.370 . S
C786 C790 1.524 . S
C787 C779 1.503 . S
C787 C786 1.370 . S
C787 C788 1.403 . S
C788 C787 1.403 . S
C788 C789 1.404 . S
C788 C791 1.539 . S
C789 C785 1.408 . S
C789 C788 1.404 . S
C789 H801 0.930 . S
C790 C786 1.524 . S
C790 H802 0.956 . S
C790 H803 0.961 . S
C790 H804 0.961 . S
C791 C788 1.539 . S
C791 H805 0.958 . S
C791 H806 0.961 . S
C791 H807 0.960 . S
H792 C776 0.931 . S
H793 C781 0.929 . S
H794 C782 0.960 . S
H795 C782 0.962 . S
H796 C782 0.960 . S
H797 C783 0.961 . S
H798 C783 0.961 . S
H799 C783 0.961 . S
H800 C784 0.931 . S
H801 C789 0.930 . S
H802 C790 0.956 . S
H803 C790 0.961 . S
H804 C790 0.961 . S
H805 C791 0.958 . S
H806 C791 0.961 . S
H807 C791 0.960 . S
C808 C809 1.391 . S
C808 C810 1.394 . S
C808 H824 0.931 . S
C809 C808 1.391 . S
C809 C813 1.376 . S
C810 C808 1.394 . S
C810 C811 1.369 . S
C810 C814 1.531 . S
C811 C810 1.369 . S
C811 C812 1.410 . S
C811 C819 1.503 . S
C812 C811 1.410 . S
C812 C813 1.392 . S
C812 C815 1.511 . S
C813 C809 1.376 . S
C813 C812 1.392 . S
C813 H825 0.929 . S
C814 C810 1.531 . S
C814 H826 0.960 . S
C814 H827 0.962 . S
C814 H828 0.960 . S
C815 C812 1.511 . S
C815 H829 0.961 . S
C815 H830 0.961 . S
C815 H831 0.961 . S
C816 C817 1.370 . S
C816 C818 1.363 . S
C816 H832 0.931 . S
C817 C816 1.370 . S
C817 C821 1.408 . S
C818 C816 1.363 . S
C818 C819 1.370 . S
C818 C822 1.524 . S
C819 C811 1.503 . S
C819 C818 1.370 . S
C819 C820 1.403 . S
C820 C819 1.403 . S
C820 C821 1.404 . S
C820 C823 1.539 . S
C821 C817 1.408 . S
C821 C820 1.404 . S
C821 H833 0.930 . S
C822 C818 1.524 . S
C822 H834 0.956 . S
C822 H835 0.961 . S
C822 H836 0.961 . S
C823 C820 1.539 . S
C823 H837 0.958 . S
C823 H838 0.961 . S
C823 H839 0.960 . S
H824 C808 0.931 . S
H825 C813 0.929 . S
H826 C814 0.960 . S
H827 C814 0.962 . S
H828 C814 0.960 . S
H829 C815 0.961 . S
H830 C815 0.961 . S
H831 C815 0.961 . S
H832 C816 0.931 . S
H833 C821 0.930 . S
H834 C822 0.956 . S
H835 C822 0.961 . S
H836 C822 0.961 . S
H837 C823 0.958 . S
H838 C823 0.961 . S
H839 C823 0.960 . S
C840 C841 1.391 . S
C840 C842 1.394 . S
C840 H856 0.931 . S
C841 C840 1.391 . S
C841 C845 1.376 . S
C842 C840 1.394 . S
C842 C843 1.369 . S
C842 C846 1.531 . S
C843 C842 1.369 . S
C843 C844 1.410 . S
C843 C851 1.503 . S
C844 C843 1.410 . S
C844 C845 1.392 . S
C844 C847 1.511 . S
C845 C841 1.376 . S
C845 C844 1.392 . S
C845 H857 0.929 . S
C846 C842 1.531 . S
C846 H858 0.960 . S
C846 H859 0.962 . S
C846 H860 0.960 . S
C847 C844 1.511 . S
C847 H861 0.961 . S
C847 H862 0.961 . S
C847 H863 0.961 . S
C848 C849 1.370 . S
C848 C850 1.363 . S
C848 H864 0.931 . S
C849 C848 1.370 . S
C849 C853 1.408 . S
C850 C848 1.363 . S
C850 C851 1.370 . S
C850 C854 1.524 . S
C851 C843 1.503 . S
C851 C850 1.370 . S
C851 C852 1.403 . S
C852 C851 1.403 . S
C852 C853 1.404 . S
C852 C855 1.539 . S
C853 C849 1.408 . S
C853 C852 1.404 . S
C853 H865 0.930 . S
C854 C850 1.524 . S
C854 H866 0.956 . S
C854 H867 0.961 . S
C854 H868 0.961 . S
C855 C852 1.539 . S
C855 H869 0.958 . S
C855 H870 0.961 . S
C855 H871 0.960 . S
H856 C840 0.931 . S
H857 C845 0.929 . S
H858 C846 0.960 . S
H859 C846 0.962 . S
H860 C846 0.960 . S
H861 C847 0.961 . S
H862 C847 0.961 . S
H863 C847 0.961 . S
H864 C848 0.931 . S
H865 C853 0.930 . S
H866 C854 0.956 . S
H867 C854 0.961 . S
H868 C854 0.961 . S
H869 C855 0.958 . S
H870 C855 0.961 . S
H871 C855 0.960 . S
C872 C873 1.391 . S
C872 C874 1.394 . S
C872 H888 0.931 . S
C873 C872 1.391 . S
C873 C877 1.376 . S
C874 C872 1.394 . S
C874 C875 1.369 . S
C874 C878 1.531 . S
C875 C874 1.369 . S
C875 C876 1.410 . S
C875 C883 1.503 . S
C876 C875 1.410 . S
C876 C877 1.392 . S
C876 C879 1.511 . S
C877 C873 1.376 . S
C877 C876 1.392 . S
C877 H889 0.929 . S
C878 C874 1.531 . S
C878 H890 0.960 . S
C878 H891 0.962 . S
C878 H892 0.960 . S
C879 C876 1.511 . S
C879 H893 0.961 . S
C879 H894 0.961 . S
C879 H895 0.961 . S
C880 C881 1.370 . S
C880 C882 1.363 . S
C880 H896 0.931 . S
C881 C880 1.370 . S
C881 C885 1.408 . S
C882 C880 1.363 . S
C882 C883 1.370 . S
C882 C886 1.524 . S
C883 C875 1.503 . S
C883 C882 1.370 . S
C883 C884 1.403 . S
C884 C883 1.403 . S
C884 C885 1.404 . S
C884 C887 1.539 . S
C885 C881 1.408 . S
C885 C884 1.404 . S
C885 H897 0.930 . S
C886 C882 1.524 . S
C886 H898 0.956 . S
C886 H899 0.961 . S
C886 H900 0.961 . S
C887 C884 1.539 . S
C887 H901 0.958 . S
C887 H902 0.961 . S
C887 H903 0.960 . S
H888 C872 0.931 . S
H889 C877 0.929 . S
H890 C878 0.960 . S
H891 C878 0.962 . S
H892 C878 0.960 . S
H893 C879 0.961 . S
H894 C879 0.961 . S
H895 C879 0.961 . S
H896 C880 0.931 . S
H897 C885 0.930 . S
H898 C886 0.956 . S
H899 C886 0.961 . S
H900 C886 0.961 . S
H901 C887 0.958 . S
H902 C887 0.961 . S
H903 C887 0.960 . S
C904 C905 1.391 . S
C904 C906 1.394 . S
C904 H920 0.931 . S
C905 C904 1.391 . S
C905 C909 1.376 . S
C906 C904 1.394 . S
C906 C907 1.369 . S
C906 C910 1.531 . S
C907 C906 1.369 . S
C907 C908 1.410 . S
C907 C915 1.503 . S
C908 C907 1.410 . S
C908 C909 1.392 . S
C908 C911 1.511 . S
C909 C905 1.376 . S
C909 C908 1.392 . S
C909 H921 0.929 . S
C910 C906 1.531 . S
C910 H922 0.960 . S
C910 H923 0.962 . S
C910 H924 0.960 . S
C911 C908 1.511 . S
C911 H925 0.961 . S
C911 H926 0.961 . S
C911 H927 0.961 . S
C912 C913 1.370 . S
C912 C914 1.363 . S
C912 H928 0.931 . S
C913 C912 1.370 . S
C913 C917 1.408 . S
C914 C912 1.363 . S
C914 C915 1.370 . S
C914 C918 1.524 . S
C915 C907 1.503 . S
C915 C914 1.370 . S
C915 C916 1.403 . S
C916 C915 1.403 . S
C916 C917 1.404 . S
C916 C919 1.539 . S
C917 C913 1.408 . S
C917 C916 1.404 . S
C917 H929 0.930 . S
C918 C914 1.524 . S
C918 H930 0.956 . S
C918 H931 0.961 . S
C918 H932 0.961 . S
C919 C916 1.539 . S
C919 H933 0.958 . S
C919 H934 0.961 . S
C919 H935 0.960 . S
H920 C904 0.931 . S
H921 C909 0.929 . S
H922 C910 0.960 . S
H923 C910 0.962 . S
H924 C910 0.960 . S
H925 C911 0.961 . S
H926 C911 0.961 . S
H927 C911 0.961 . S
H928 C912 0.931 . S
H929 C917 0.930 . S
H930 C918 0.956 . S
H931 C918 0.961 . S
H932 C918 0.961 . S
H933 C919 0.958 . S
H934 C919 0.961 . S
H935 C919 0.960 . S
C936 C937 1.391 . S
C936 C938 1.394 . S
C936 H952 0.931 . S
C937 C936 1.391 . S
C937 C941 1.376 . S
C938 C936 1.394 . S
C938 C939 1.369 . S
C938 C942 1.531 . S
C939 C938 1.369 . S
C939 C940 1.410 . S
C939 C947 1.503 . S
C940 C939 1.410 . S
C940 C941 1.392 . S
C940 C943 1.511 . S
C941 C937 1.376 . S
C941 C940 1.392 . S
C941 H953 0.929 . S
C942 C938 1.531 . S
C942 H954 0.960 . S
C942 H955 0.962 . S
C942 H956 0.960 . S
C943 C940 1.511 . S
C943 H957 0.961 . S
C943 H958 0.961 . S
C943 H959 0.961 . S
C944 C945 1.370 . S
C944 C946 1.363 1_554 S
C944 H960 0.931 . S
C945 C944 1.370 . S
C945 C949 1.394 1_554 S
C946 C944 1.363 1_556 S
C946 C947 1.370 . S
C946 C950 1.524 . S
C947 C939 1.503 . S
C947 C946 1.370 . S
C947 C948 1.403 . S
C948 C947 1.403 . S
C948 C949 1.428 . S
C948 C951 1.539 . S
C949 C945 1.394 1_556 S
C949 C948 1.428 . S
C949 H961 0.921 1_556 S
C950 C946 1.524 . S
C950 H962 0.956 . S
C950 H963 0.961 . S
C950 H964 0.961 . S
C951 C948 1.539 . S
C951 H965 0.958 . S
C951 H966 0.961 . S
C951 H967 0.960 . S
H952 C936 0.931 . S
H953 C941 0.929 . S
H954 C942 0.960 . S
H955 C942 0.962 . S
H956 C942 0.960 . S
H957 C943 0.961 . S
H958 C943 0.961 . S
H959 C943 0.961 . S
H960 C944 0.931 . S
H961 C949 0.921 1_554 S
H962 C950 0.956 . S
H963 C950 0.961 . S
H964 C950 0.961 . S
H965 C951 0.958 . S
H966 C951 0.961 . S
H967 C951 0.960 . S
C968 C969 1.391 . S
C968 C970 1.394 . S
C968 H984 0.931 . S
C969 C968 1.391 . S
C969 C973 1.376 . S
C970 C968 1.394 . S
C970 C971 1.369 . S
C970 C974 1.531 . S
C971 C970 1.369 . S
C971 C972 1.410 . S
C971 C979 1.503 . S
C972 C971 1.410 . S
C972 C973 1.392 . S
C972 C975 1.511 . S
C973 C969 1.376 . S
C973 C972 1.392 . S
C973 H985 0.929 . S
C974 C970 1.531 . S
C974 H986 0.960 . S
C974 H987 0.962 . S
C974 H988 0.960 . S
C975 C972 1.511 . S
C975 H989 0.961 . S
C975 H990 0.961 . S
C975 H991 0.961 . S
C976 C977 1.370 . S
C976 C978 1.363 . S
C976 H992 0.931 . S
C977 C976 1.370 . S
C977 C981 1.408 . S
C978 C976 1.363 . S
C978 C979 1.370 . S
C978 C982 1.524 . S
C979 C971 1.503 . S
C979 C978 1.370 . S
C979 C980 1.403 . S
C980 C979 1.403 . S
C980 C981 1.404 . S
C980 C983 1.539 . S
C981 C977 1.408 . S
C981 C980 1.404 . S
C981 H993 0.930 . S
C982 C978 1.524 . S
C982 H994 0.956 . S
C982 H995 0.961 . S
C982 H996 0.961 . S
C983 C980 1.539 . S
C983 H997 0.958 . S
C983 H998 0.961 . S
C983 H999 0.960 . S
H984 C968 0.931 . S
H985 C973 0.929 . S
H986 C974 0.960 . S
H987 C974 0.962 . S
H988 C974 0.960 . S
H989 C975 0.961 . S
H990 C975 0.961 . S
H991 C975 0.961 . S
H992 C976 0.931 . S
H993 C981 0.930 . S
H994 C982 0.956 . S
H995 C982 0.961 . S
H996 C982 0.961 . S
H997 C983 0.958 . S
H998 C983 0.961 . S
H999 C983 0.960 . S
C1000 C1001 1.391 . S
C1000 C1002 1.394 . S
C1000 H1016 0.931 . S
C1001 C1000 1.391 . S
C1001 C1005 1.376 . S
C1002 C1000 1.394 . S
C1002 C1003 1.369 . S
C1002 C1006 1.531 . S
C1003 C1002 1.369 . S
C1003 C1004 1.410 . S
C1003 C1011 1.503 . S
C1004 C1003 1.410 . S
C1004 C1005 1.392 . S
C1004 C1007 1.511 . S
C1005 C1001 1.376 . S
C1005 C1004 1.392 . S
C1005 H1017 0.929 . S
C1006 C1002 1.531 . S
C1006 H1018 0.960 . S
C1006 H1019 0.962 . S
C1006 H1020 0.960 . S
C1007 C1004 1.511 . S
C1007 H1021 0.961 . S
C1007 H1022 0.961 . S
C1007 H1023 0.961 . S
C1008 C1009 1.370 . S
C1008 C1010 1.363 . S
C1008 H1024 0.931 . S
C1009 C1008 1.370 . S
C1009 C1013 1.408 . S
C1010 C1008 1.363 . S
C1010 C1011 1.370 . S
C1010 C1014 1.524 . S
C1011 C1003 1.503 . S
C1011 C1010 1.370 . S
C1011 C1012 1.403 . S
C1012 C1011 1.403 . S
C1012 C1013 1.404 . S
C1012 C1015 1.539 . S
C1013 C1009 1.408 . S
C1013 C1012 1.404 . S
C1013 H1025 0.930 . S
C1014 C1010 1.524 . S
C1014 H1026 0.956 . S
C1014 H1027 0.961 . S
C1014 H1028 0.961 . S
C1015 C1012 1.539 . S
C1015 H1029 0.958 . S
C1015 H1030 0.961 . S
C1015 H1031 0.960 . S
H1016 C1000 0.931 . S
H1017 C1005 0.929 . S
H1018 C1006 0.960 . S
H1019 C1006 0.962 . S
H1020 C1006 0.960 . S
H1021 C1007 0.961 . S
H1022 C1007 0.961 . S
H1023 C1007 0.961 . S
H1024 C1008 0.931 . S
H1025 C1013 0.930 . S
H1026 C1014 0.956 . S
H1027 C1014 0.961 . S
H1028 C1014 0.961 . S
H1029 C1015 0.958 . S
H1030 C1015 0.961 . S
H1031 C1015 0.960 . S
C1032 C1033 1.391 . S
C1032 C1034 1.394 . S
C1032 H1048 0.931 . S
C1033 C1032 1.391 . S
C1033 C1037 1.376 . S
C1034 C1032 1.394 . S
C1034 C1035 1.369 . S
C1034 C1038 1.531 . S
C1035 C1034 1.369 . S
C1035 C1036 1.410 . S
C1035 C1043 1.503 . S
C1036 C1035 1.410 . S
C1036 C1037 1.392 . S
C1036 C1039 1.511 . S
C1037 C1033 1.376 . S
C1037 C1036 1.392 . S
C1037 H1049 0.929 . S
C1038 C1034 1.531 . S
C1038 H1050 0.960 . S
C1038 H1051 0.962 . S
C1038 H1052 0.960 . S
C1039 C1036 1.511 . S
C1039 H1053 0.961 . S
C1039 H1054 0.961 . S
C1039 H1055 0.961 . S
C1040 C1041 1.370 . S
C1040 C1042 1.363 . S
C1040 H1056 0.931 . S
C1041 C1040 1.370 . S
C1041 C1045 1.408 . S
C1042 C1040 1.363 . S
C1042 C1043 1.370 . S
C1042 C1046 1.524 . S
C1043 C1035 1.503 . S
C1043 C1042 1.370 . S
C1043 C1044 1.403 . S
C1044 C1043 1.403 . S
C1044 C1045 1.404 . S
C1044 C1047 1.539 . S
C1045 C1041 1.408 . S
C1045 C1044 1.404 . S
C1045 H1057 0.930 . S
C1046 C1042 1.524 . S
C1046 H1058 0.956 . S
C1046 H1059 0.961 . S
C1046 H1060 0.961 . S
C1047 C1044 1.539 . S
C1047 H1061 0.958 . S
C1047 H1062 0.961 . S
C1047 H1063 0.960 . S
H1048 C1032 0.931 . S
H1049 C1037 0.929 . S
H1050 C1038 0.960 . S
H1051 C1038 0.962 . S
H1052 C1038 0.960 . S
H1053 C1039 0.961 . S
H1054 C1039 0.961 . S
H1055 C1039 0.961 . S
H1056 C1040 0.931 . S
H1057 C1045 0.930 . S
H1058 C1046 0.956 . S
H1059 C1046 0.961 . S
H1060 C1046 0.961 . S
H1061 C1047 0.958 . S
H1062 C1047 0.961 . S
H1063 C1047 0.960 . S
C1064 C1065 1.391 . S
C1064 C1066 1.394 . S
C1064 H1080 0.931 . S
C1065 C1064 1.391 . S
C1065 C1069 1.376 . S
C1066 C1064 1.394 . S
C1066 C1067 1.369 . S
C1066 C1070 1.531 . S
C1067 C1066 1.369 . S
C1067 C1068 1.410 . S
C1067 C1075 1.503 . S
C1068 C1067 1.410 . S
C1068 C1069 1.392 . S
C1068 C1071 1.511 . S
C1069 C1065 1.376 . S
C1069 C1068 1.392 . S
C1069 H1081 0.929 . S
C1070 C1066 1.531 . S
C1070 H1082 0.960 . S
C1070 H1083 0.962 . S
C1070 H1084 0.960 . S
C1071 C1068 1.511 . S
C1071 H1085 0.961 . S
C1071 H1086 0.961 . S
C1071 H1087 0.961 . S
C1072 C1073 1.370 . S
C1072 C1074 1.363 . S
C1072 H1088 0.931 . S
C1073 C1072 1.370 . S
C1073 C1077 1.408 . S
C1074 C1072 1.363 . S
C1074 C1075 1.370 . S
C1074 C1078 1.524 . S
C1075 C1067 1.503 . S
C1075 C1074 1.370 . S
C1075 C1076 1.403 . S
C1076 C1075 1.403 . S
C1076 C1077 1.404 . S
C1076 C1079 1.539 . S
C1077 C1073 1.408 . S
C1077 C1076 1.404 . S
C1077 H1089 0.930 . S
C1078 C1074 1.524 . S
C1078 H1090 0.956 . S
C1078 H1091 0.961 . S
C1078 H1092 0.961 . S
C1079 C1076 1.539 . S
C1079 H1093 0.958 . S
C1079 H1094 0.961 . S
C1079 H1095 0.960 . S
H1080 C1064 0.931 . S
H1081 C1069 0.929 . S
H1082 C1070 0.960 . S
H1083 C1070 0.962 . S
H1084 C1070 0.960 . S
H1085 C1071 0.961 . S
H1086 C1071 0.961 . S
H1087 C1071 0.961 . S
H1088 C1072 0.931 . S
H1089 C1077 0.930 . S
H1090 C1078 0.956 . S
H1091 C1078 0.961 . S
H1092 C1078 0.961 . S
H1093 C1079 0.958 . S
H1094 C1079 0.961 . S
H1095 C1079 0.960 . S
C1096 C1097 1.391 . S
C1096 C1098 1.394 . S
C1096 H1112 0.931 . S
C1097 C1096 1.391 . S
C1097 C1101 1.376 . S
C1098 C1096 1.394 . S
C1098 C1099 1.369 . S
C1098 C1102 1.531 . S
C1099 C1098 1.369 . S
C1099 C1100 1.410 . S
C1099 C1107 1.503 . S
C1100 C1099 1.410 . S
C1100 C1101 1.392 . S
C1100 C1103 1.511 . S
C1101 C1097 1.376 . S
C1101 C1100 1.392 . S
C1101 H1113 0.929 . S
C1102 C1098 1.531 . S
C1102 H1114 0.960 . S
C1102 H1115 0.962 . S
C1102 H1116 0.960 . S
C1103 C1100 1.511 . S
C1103 H1117 0.961 . S
C1103 H1118 0.961 . S
C1103 H1119 0.961 . S
C1104 C1105 1.370 . S
C1104 C1106 1.363 . S
C1104 H1120 0.931 . S
C1105 C1104 1.370 . S
C1105 C1109 1.408 . S
C1106 C1104 1.363 . S
C1106 C1107 1.370 . S
C1106 C1110 1.524 . S
C1107 C1099 1.503 . S
C1107 C1106 1.370 . S
C1107 C1108 1.403 . S
C1108 C1107 1.403 . S
C1108 C1109 1.404 . S
C1108 C1111 1.539 . S
C1109 C1105 1.408 . S
C1109 C1108 1.404 . S
C1109 H1121 0.930 . S
C1110 C1106 1.524 . S
C1110 H1122 0.956 . S
C1110 H1123 0.961 . S
C1110 H1124 0.961 . S
C1111 C1108 1.539 . S
C1111 H1125 0.958 . S
C1111 H1126 0.961 . S
C1111 H1127 0.960 . S
H1112 C1096 0.931 . S
H1113 C1101 0.929 . S
H1114 C1102 0.960 . S
H1115 C1102 0.962 . S
H1116 C1102 0.960 . S
H1117 C1103 0.961 . S
H1118 C1103 0.961 . S
H1119 C1103 0.961 . S
H1120 C1104 0.931 . S
H1121 C1109 0.930 . S
H1122 C1110 0.956 . S
H1123 C1110 0.961 . S
H1124 C1110 0.961 . S
H1125 C1111 0.958 . S
H1126 C1111 0.961 . S
H1127 C1111 0.960 . S
C1128 C1129 1.391 . S
C1128 C1130 1.394 . S
C1128 H1144 0.931 . S
C1129 C1128 1.391 . S
C1129 C1133 1.376 . S
C1130 C1128 1.394 . S
C1130 C1131 1.369 . S
C1130 C1134 1.531 . S
C1131 C1130 1.369 . S
C1131 C1132 1.410 . S
C1131 C1139 1.503 . S
C1132 C1131 1.410 . S
C1132 C1133 1.392 . S
C1132 C1135 1.511 . S
C1133 C1129 1.376 . S
C1133 C1132 1.392 . S
C1133 H1145 0.929 . S
C1134 C1130 1.531 . S
C1134 H1146 0.960 . S
C1134 H1147 0.962 . S
C1134 H1148 0.960 . S
C1135 C1132 1.511 . S
C1135 H1149 0.961 . S
C1135 H1150 0.961 . S
C1135 H1151 0.961 . S
C1136 C1137 1.370 . S
C1136 C1138 1.363 . S
C1136 H1152 0.931 . S
C1137 C1136 1.370 . S
C1137 C1141 1.408 . S
C1138 C1136 1.363 . S
C1138 C1139 1.370 . S
C1138 C1142 1.524 . S
C1139 C1131 1.503 . S
C1139 C1138 1.370 . S
C1139 C1140 1.403 . S
C1140 C1139 1.403 . S
C1140 C1141 1.404 . S
C1140 C1143 1.539 . S
C1141 C1137 1.408 . S
C1141 C1140 1.404 . S
C1141 H1153 0.930 . S
C1142 C1138 1.524 . S
C1142 H1154 0.956 . S
C1142 H1155 0.961 . S
C1142 H1156 0.961 . S
C1143 C1140 1.539 . S
C1143 H1157 0.958 . S
C1143 H1158 0.961 . S
C1143 H1159 0.960 . S
H1144 C1128 0.931 . S
H1145 C1133 0.929 . S
H1146 C1134 0.960 . S
H1147 C1134 0.962 . S
H1148 C1134 0.960 . S
H1149 C1135 0.961 . S
H1150 C1135 0.961 . S
H1151 C1135 0.961 . S
H1152 C1136 0.931 . S
H1153 C1141 0.930 . S
H1154 C1142 0.956 . S
H1155 C1142 0.961 . S
H1156 C1142 0.961 . S
H1157 C1143 0.958 . S
H1158 C1143 0.961 . S
H1159 C1143 0.960 . S
C1160 C1161 1.391 . S
C1160 C1162 1.394 . S
C1160 H1176 0.931 . S
C1161 C1160 1.391 . S
C1161 C1165 1.376 . S
C1162 C1160 1.394 . S
C1162 C1163 1.369 . S
C1162 C1166 1.531 1_554 S
C1163 C1162 1.369 . S
C1163 C1164 1.410 . S
C1163 C1171 1.503 1_554 S
C1164 C1163 1.410 . S
C1164 C1165 1.392 . S
C1164 C1167 1.511 . S
C1165 C1161 1.376 . S
C1165 C1164 1.392 . S
C1165 H1177 0.929 . S
C1166 C1162 1.531 1_556 S
C1166 H1178 0.960 . S
C1166 H1179 0.962 . S
C1166 H1180 0.960 . S
C1167 C1164 1.511 . S
C1167 H1181 0.961 . S
C1167 H1182 0.961 . S
C1167 H1183 0.961 . S
C1168 C1169 1.370 . S
C1168 C1170 1.363 . S
C1168 H1184 0.931 . S
C1169 C1168 1.370 . S
C1169 C1173 1.408 . S
C1170 C1168 1.363 . S
C1170 C1171 1.370 . S
C1170 C1174 1.524 . S
C1171 C1163 1.503 1_556 S
C1171 C1170 1.370 . S
C1171 C1172 1.403 . S
C1172 C1171 1.403 . S
C1172 C1173 1.404 . S
C1172 C1175 1.539 1_556 S
C1173 C1169 1.408 . S
C1173 C1172 1.404 . S
C1173 H1185 0.930 . S
C1174 C1170 1.524 . S
C1174 H1186 0.956 . S
C1174 H1187 0.961 1_556 S
C1174 H1188 0.961 . S
C1175 C1172 1.539 1_554 S
C1175 H1189 0.958 1_554 S
C1175 H1190 0.961 . S
C1175 H1191 0.960 . S
H1176 C1160 0.931 . S
H1177 C1165 0.929 . S
H1178 C1166 0.960 . S
H1179 C1166 0.962 . S
H1180 C1166 0.960 . S
H1181 C1167 0.961 . S
H1182 C1167 0.961 . S
H1183 C1167 0.961 . S
H1184 C1168 0.931 . S
H1185 C1173 0.930 . S
H1186 C1174 0.956 . S
H1187 C1174 0.961 1_554 S
H1188 C1174 0.961 . S
H1189 C1175 0.958 1_556 S
H1190 C1175 0.961 . S
H1191 C1175 0.960 . S
C1192 C1193 1.391 . S
C1192 C1194 1.394 . S
C1192 H1208 0.931 . S
C1193 C1192 1.391 . S
C1193 C1197 1.376 . S
C1194 C1192 1.394 . S
C1194 C1195 1.369 . S
C1194 C1198 1.531 . S
C1195 C1194 1.369 . S
C1195 C1196 1.410 . S
C1195 C1203 1.503 . S
C1196 C1195 1.410 . S
C1196 C1197 1.392 . S
C1196 C1199 1.511 . S
C1197 C1193 1.376 . S
C1197 C1196 1.392 . S
C1197 H1209 0.929 . S
C1198 C1194 1.531 . S
C1198 H1210 0.960 . S
C1198 H1211 0.962 . S
C1198 H1212 0.960 . S
C1199 C1196 1.511 . S
C1199 H1213 0.961 . S
C1199 H1214 0.961 . S
C1199 H1215 0.961 . S
C1200 C1201 1.370 . S
C1200 C1202 1.363 . S
C1200 H1216 0.931 . S
C1201 C1200 1.370 . S
C1201 C1205 1.408 . S
C1202 C1200 1.363 . S
C1202 C1203 1.370 . S
C1202 C1206 1.524 . S
C1203 C1195 1.503 . S
C1203 C1202 1.370 . S
C1203 C1204 1.403 . S
C1204 C1203 1.403 . S
C1204 C1205 1.404 . S
C1204 C1207 1.539 . S
C1205 C1201 1.408 . S
C1205 C1204 1.404 . S
C1205 H1217 0.930 . S
C1206 C1202 1.524 . S
C1206 H1218 0.956 . S
C1206 H1219 0.961 . S
C1206 H1220 0.961 . S
C1207 C1204 1.539 . S
C1207 H1221 0.958 . S
C1207 H1222 0.961 . S
C1207 H1223 0.960 . S
H1208 C1192 0.931 . S
H1209 C1197 0.929 . S
H1210 C1198 0.960 . S
H1211 C1198 0.962 . S
H1212 C1198 0.960 . S
H1213 C1199 0.961 . S
H1214 C1199 0.961 . S
H1215 C1199 0.961 . S
H1216 C1200 0.931 . S
H1217 C1205 0.930 . S
H1218 C1206 0.956 . S
H1219 C1206 0.961 . S
H1220 C1206 0.961 . S
H1221 C1207 0.958 . S
H1222 C1207 0.961 . S
H1223 C1207 0.960 . S
C465 C449 1.629 . S
C457 C29 1.509 . S
C489 C115 1.401 . S
C497 C383 1.410 . S
C521 C153 1.338 . S
C529 C397 1.433 . S
C553 C239 1.431 . S
C561 C411 1.408 . S
C593 C425 1.513 . S
C585 C301 1.541 . S
C617 C339 1.708 . S
C625 C435 1.842 . S
C649 C91 1.531 . S
C657 C393 1.631 . S
C681 C177 1.573 . S
C689 C407 1.623 . S
C713 C215 1.564 . S
C721 C421 1.646 . S
C753 C439 1.815 . S
C745 C277 1.748 . S
C785 C453 1.493 . S
C777 C363 1.481 . S
C817 C379 1.512 . S
C809 C53 1.502 . S
C841 C35 1.543 . S
C849 C394 1.546 . S
C873 C109 1.428 . S
C881 C408 1.540 . S
C913 C422 1.495 . S
C905 C159 1.536 . S
C937 C233 1.563 . S
C945 C441 1.631 . S
C977 C455 1.442 . S
C969 C295 1.333 . S
C1009 C380 1.325 . S
C1001 C345 1.376 . S
C1041 C450 1.387 . S
C1033 C97 1.412 . S
C1065 C171 1.210 . S
C1073 C385 1.322 . S
C1105 C399 1.404 . S
C1097 C221 1.450 . S
C1129 C283 1.311 . S
C1137 C413 1.305 . S
C1161 C357 1.356 . S
C1169 C427 1.455 . S
C1193 C47 1.585 . S
C1201 C436 1.679 . S
