# Generated by pormake.
# Topology ant, (3,6)-cn, num edge types: 1
# Building blocks:
#     Node 0, Type 0, BuildingBlock: BETDIP_clean_linker_0, # of connection points: 3
#     Node 1, Type 0, BuildingBlock: BETDIP_clean_linker_0, # of connection points: 3
#     Node 2, Type 0, BuildingBlock: BETDIP_clean_linker_0, # of connection points: 3
#     Node 3, Type 0, BuildingBlock: BETDIP_clean_linker_0, # of connection points: 3
#     Node 4, Type 0, BuildingBlock: BETDIP_clean_linker_0, # of connection points: 3
#     Node 5, Type 0, BuildingBlock: BETDIP_clean_linker_0, # of connection points: 3
#     Node 6, Type 0, BuildingBlock: BETDIP_clean_linker_0, # of connection points: 3
#     Node 7, Type 0, BuildingBlock: BETDIP_clean_linker_0, # of connection points: 3
#     Node 8, Type 1, BuildingBlock: MIDCAF_clean_sbu_0, # of connection points: 6
#     Node 9, Type 1, BuildingBlock: MIDCAF_clean_sbu_0, # of connection points: 6
#     Node 10, Type 1, BuildingBlock: MIDCAF_clean_sbu_0, # of connection points: 6
#     Node 11, Type 1, BuildingBlock: MIDCAF_clean_sbu_0, # of connection points: 6
#     Edge 12, Type (0, 1), BuildingBlock: OJICUG_clean_linker_0, # of connection points: 2
#     Edge 13, Type (0, 1), BuildingBlock: OJICUG_clean_linker_0, # of connection points: 2
#     Edge 14, Type (0, 1), BuildingBlock: OJICUG_clean_linker_0, # of connection points: 2
#     Edge 15, Type (0, 1), BuildingBlock: OJICUG_clean_linker_0, # of connection points: 2
#     Edge 16, Type (0, 1), BuildingBlock: OJICUG_clean_linker_0, # of connection points: 2
#     Edge 17, Type (0, 1), BuildingBlock: OJICUG_clean_linker_0, # of connection points: 2
#     Edge 18, Type (0, 1), BuildingBlock: OJICUG_clean_linker_0, # of connection points: 2
#     Edge 19, Type (0, 1), BuildingBlock: OJICUG_clean_linker_0, # of connection points: 2
#     Edge 20, Type (0, 1), BuildingBlock: OJICUG_clean_linker_0, # of connection points: 2
#     Edge 21, Type (0, 1), BuildingBlock: OJICUG_clean_linker_0, # of connection points: 2
#     Edge 22, Type (0, 1), BuildingBlock: OJICUG_clean_linker_0, # of connection points: 2
#     Edge 23, Type (0, 1), BuildingBlock: OJICUG_clean_linker_0, # of connection points: 2
#     Edge 24, Type (0, 1), BuildingBlock: OJICUG_clean_linker_0, # of connection points: 2
#     Edge 25, Type (0, 1), BuildingBlock: OJICUG_clean_linker_0, # of connection points: 2
#     Edge 26, Type (0, 1), BuildingBlock: OJICUG_clean_linker_0, # of connection points: 2
#     Edge 27, Type (0, 1), BuildingBlock: OJICUG_clean_linker_0, # of connection points: 2
#     Edge 28, Type (0, 1), BuildingBlock: OJICUG_clean_linker_0, # of connection points: 2
#     Edge 29, Type (0, 1), BuildingBlock: OJICUG_clean_linker_0, # of connection points: 2
#     Edge 30, Type (0, 1), BuildingBlock: OJICUG_clean_linker_0, # of connection points: 2
#     Edge 31, Type (0, 1), BuildingBlock: OJICUG_clean_linker_0, # of connection points: 2
#     Edge 32, Type (0, 1), BuildingBlock: OJICUG_clean_linker_0, # of connection points: 2
#     Edge 33, Type (0, 1), BuildingBlock: OJICUG_clean_linker_0, # of connection points: 2
#     Edge 34, Type (0, 1), BuildingBlock: OJICUG_clean_linker_0, # of connection points: 2
#     Edge 35, Type (0, 1), BuildingBlock: OJICUG_clean_linker_0, # of connection points: 2
# Relax obj value: 0.093
# Max RMSD: 0.189
# Mean RMSD: 0.125
data_MOF--net-ant--node1-MIDCAF_clean_sbu_0--node2-BETDIP_clean_linker_0--edge1-OJICUG_clean_linker_0
_symmetry_space_group_name_H-M    P1
_symmetry_Int_Tables_number       1
_symmetry_cell_setting            triclinic
loop_
_symmetry_equiv_pos_as_xyz
'x, y, z'
_cell_length_a     20.830788
_cell_length_b     20.564158
_cell_length_c     51.740709
_cell_angle_alpha  95.068852
_cell_angle_beta   94.025147
_cell_angle_gamma 90.268072
loop_
_atom_site_label
_atom_site_type_symbol
_atom_site_fract_x
_atom_site_fract_y
_atom_site_fract_z
_atom_type_partial_charge
H0 H 0.28363 0.31356 0.0859 0.0
H1 H 0.23566 0.16955 0.02256 0.0
H2 H 0.16779 0.36561 0.01842 0.0
H3 H 0.27599 0.20271 0.10676 0.0
C4 C 0.29482 0.16873 0.09193 0.0
C5 C 0.25912 0.30099 0.06696 0.0
C6 C 0.2243 0.34863 0.05376 0.0
C7 C 0.26379 0.23692 0.05533 0.0
C8 C 0.23219 0.21942 0.03103 0.0
C9 C 0.19547 0.26476 0.01794 0.0
C10 C 0.19264 0.32948 0.02927 0.0
N11 N 0.3023 0.1891 0.06682 0.0
H12 H 0.01387 0.79754 0.33843 0.0
H13 H 0.1178 0.82212 0.27155 0.0
H14 H 0.9162 0.77317 0.26154 0.0
H15 H 0.11737 0.75425 0.35046 0.0
C16 C 0.15162 0.78622 0.34278 0.0
C17 C 0.01413 0.79785 0.31753 0.0
C18 C 0.95665 0.78556 0.30153 0.0
C19 C 0.07195 0.81164 0.30659 0.0
C20 C 0.07252 0.81278 0.27978 0.0
C21 C 0.01716 0.79703 0.2634 0.0
C22 C 0.9592 0.78352 0.27429 0.0
N23 N 0.13116 0.82262 0.32172 0.0
H24 H 0.79058 0.80756 0.58429 0.0
H25 H 0.73906 0.66154 0.52212 0.0
H26 H 0.66811 0.85654 0.51809 0.0
H27 H 0.78407 0.69423 0.60549 0.0
C28 C 0.80235 0.66111 0.59024 0.0
C29 C 0.76458 0.79431 0.56571 0.0
C30 C 0.72796 0.84117 0.55279 0.0
C31 C 0.76912 0.73008 0.55427 0.0
C32 C 0.73556 0.71153 0.53045 0.0
C33 C 0.69708 0.75608 0.51766 0.0
C34 C 0.69438 0.82102 0.52878 0.0
N35 N 0.80967 0.68338 0.56543 0.0
H36 H 0.51957 0.30612 0.83658 0.0
H37 H 0.62356 0.32533 0.76929 0.0
H38 H 0.42212 0.27554 0.75977 0.0
H39 H 0.62319 0.26497 0.8495 0.0
C40 C 0.65735 0.29607 0.84131 0.0
C41 C 0.51987 0.30473 0.81563 0.0
C42 C 0.46243 0.29113 0.79973 0.0
C43 C 0.57768 0.31766 0.80452 0.0
C44 C 0.5783 0.31661 0.77763 0.0
C45 C 0.52302 0.29952 0.76139 0.0
C46 C 0.46507 0.28689 0.77245 0.0
N47 N 0.63684 0.33008 0.81956 0.0
H48 H 0.99006 0.68631 0.88133 0.0
H49 H 0.09216 0.75517 0.95365 0.0
H50 H 0.03512 0.55411 0.94027 0.0
H51 H 0.05981 0.85475 0.94302 0.0
C52 C 0.06135 0.85093 0.92202 0.0
C53 C 0.01 0.67704 0.90054 0.0
C54 C 1.00769 0.61349 0.90873 0.0
C55 C 0.03951 0.72874 0.91669 0.0
C56 C 0.06765 0.7164 0.9412 0.0
C57 C 0.06532 0.65356 0.94977 0.0
C58 C 0.03451 0.60276 0.93373 0.0
N59 N 0.04402 0.79114 0.90695 0.0
H60 H 0.61693 0.90286 0.1392 0.0
H61 H 0.73468 0.82563 0.20113 0.0
H62 H 0.52962 0.81964 0.20185 0.0
H63 H 0.80695 0.9047 0.18902 0.0
C64 C 0.80082 0.88906 0.16836 0.0
C65 C 0.62119 0.88121 0.15759 0.0
C66 C 0.56557 0.86535 0.16969 0.0
C67 C 0.68256 0.86891 0.16918 0.0
C68 C 0.68802 0.8385 0.19259 0.0
C69 C 0.63281 0.82031 0.20413 0.0
C70 C 0.57217 0.83478 0.19289 0.0
N71 N 0.73787 0.88215 0.15589 0.0
H72 H 0.4819 0.1764 0.3815 0.0
H73 H 0.58845 0.24465 0.45291 0.0
H74 H 0.53045 0.04382 0.43996 0.0
H75 H 0.55452 0.34433 0.44284 0.0
C76 C 0.55538 0.34068 0.42181 0.0
C77 C 0.50291 0.16705 0.40055 0.0
C78 C 0.50107 0.10347 0.40873 0.0
C79 C 0.53338 0.21861 0.41647 0.0
C80 C 0.56308 0.20603 0.44068 0.0
C81 C 0.56131 0.14314 0.44922 0.0
C82 C 0.52942 0.09253 0.43348 0.0
N83 N 0.53737 0.28108 0.40675 0.0
H84 H 0.12195 0.39719 0.63579 0.0
H85 H 0.24024 0.32579 0.69889 0.0
H86 H 0.03523 0.31902 0.69967 0.0
H87 H 0.31203 0.40363 0.68577 0.0
C88 C 0.30599 0.38662 0.66524 0.0
C89 C 0.12637 0.37718 0.65451 0.0
C90 C 0.07084 0.36208 0.66684 0.0
C91 C 0.18784 0.36616 0.6663 0.0
C92 C 0.1935 0.33776 0.69016 0.0
C93 C 0.13842 0.32035 0.70196 0.0
C94 C 0.07767 0.3336 0.69051 0.0
N95 N 0.24306 0.37854 0.65282 0.0
Zn96 Zn 0.22923 0.70211 0.14606 0.0
Zn97 Zn 0.11053 0.83208 0.07573 0.0
Zn98 Zn 0.17125 0.76716 0.11013 0.0
C99 C 0.1383 0.71234 0.05082 0.0
C100 C 0.21775 0.9068 0.09269 0.0
O101 O 0.11155 0.7703 0.144 0.0
O102 O 0.16089 0.70546 0.17083 0.0
C103 C 0.21642 0.61408 0.1023 0.0
O104 O 0.15768 0.70001 0.07405 0.0
O105 O 0.11861 0.76825 0.04623 0.0
O106 O 0.16652 0.90992 0.0784 0.0
O107 O 0.22958 0.85617 0.1052 0.0
O108 O 0.24255 0.61916 0.12514 0.0
O109 O 0.18643 0.66327 0.09335 0.0
O110 O 0.26558 0.81603 0.12092 0.0
O111 O 0.30446 0.76199 0.15363 0.0
C112 C 0.31001 0.80687 0.13878 0.0
O113 O 0.07705 0.80118 0.12404 0.0
O114 O 0.02539 0.84037 0.09 0.0
C115 C 0.11461 0.74231 0.16537 0.0
C116 C 0.02624 0.82598 0.11319 0.0
Zn117 Zn 0.51452 0.63385 0.32675 0.0
Zn118 Zn 0.62106 0.80495 0.37575 0.0
Zn119 Zn 0.56858 0.71984 0.35554 0.0
C120 C 0.52461 0.86443 0.35646 0.0
C121 C 0.7143 0.76343 0.34936 0.0
O122 O 0.57534 0.63066 0.37712 0.0
O123 O 0.55592 0.55987 0.34295 0.0
C124 C 0.41768 0.71383 0.34535 0.0
O125 O 0.50491 0.80701 0.36071 0.0
O126 O 0.58379 0.87284 0.35419 0.0
O127 O 0.713 0.78721 0.37262 0.0
O128 O 0.66122 0.74145 0.33715 0.0
O129 O 0.42496 0.65558 0.33618 0.0
O130 O 0.46731 0.75092 0.35137 0.0
O131 O 0.61492 0.71871 0.31862 0.0
O132 O 0.54342 0.65938 0.29321 0.0
C133 C 0.59234 0.6965 0.2957 0.0
O134 O 0.59788 0.68965 0.39413 0.0
O135 O 0.58491 0.79128 0.40959 0.0
C136 C 0.57233 0.57119 0.36689 0.0
C137 C 0.59201 0.73202 0.41363 0.0
Zn138 Zn 0.61649 0.32479 0.5731 0.0
Zn139 Zn 0.73436 0.19602 0.64429 0.0
Zn140 Zn 0.67614 0.26064 0.60802 0.0
C141 C 0.81548 0.30008 0.63621 0.0
C142 C 0.72041 0.10714 0.60078 0.0
O143 O 0.58234 0.29576 0.62183 0.0
O144 O 0.53154 0.33465 0.58753 0.0
C145 C 0.72407 0.39895 0.58956 0.0
O146 O 0.77075 0.30909 0.61845 0.0
O147 O 0.81006 0.25562 0.65127 0.0
O148 O 0.74675 0.11245 0.62359 0.0
O149 O 0.69067 0.15631 0.59172 0.0
O150 O 0.67325 0.40181 0.575 0.0
O151 O 0.73496 0.34902 0.60259 0.0
O152 O 0.66146 0.19229 0.57231 0.0
O153 O 0.62358 0.25974 0.54395 0.0
C154 C 0.64232 0.2038 0.54896 0.0
O155 O 0.6168 0.26545 0.64198 0.0
O156 O 0.66595 0.20122 0.66911 0.0
C157 C 0.53193 0.32082 0.61079 0.0
C158 C 0.61989 0.23824 0.66353 0.0
Zn159 Zn 0.01966 0.14302 0.82657 0.0
Zn160 Zn 0.12779 0.31454 0.87459 0.0
Zn161 Zn 0.07441 0.22933 0.8548 0.0
C162 C 0.09786 0.24254 0.91283 0.0
C163 C 0.03134 0.37441 0.85562 0.0
O164 O 0.12049 0.22648 0.81778 0.0
O165 O 0.04838 0.16684 0.7928 0.0
C166 C 0.07754 0.08086 0.86674 0.0
O167 O 0.1031 0.19957 0.89349 0.0
O168 O 0.09221 0.30184 0.90861 0.0
O169 O 0.09044 0.38236 0.85302 0.0
O170 O 0.01146 0.31712 0.85997 0.0
O171 O 0.06058 0.06905 0.84287 0.0
O172 O 0.08098 0.14053 0.87675 0.0
O173 O 0.97333 0.26119 0.85058 0.0
O174 O 0.93038 0.16565 0.83603 0.0
C175 C 0.92347 0.22425 0.84485 0.0
O176 O 0.16703 0.2499 0.83612 0.0
O177 O 0.21954 0.29649 0.87126 0.0
C178 C 0.09764 0.20346 0.795 0.0
C179 C 0.22035 0.27206 0.84808 0.0
C180 C 0.16863 0.45819 0.06029 0.0
C181 C 0.22287 0.41857 0.06485 0.0
H182 H 0.12442 0.55169 0.068 0.0
C183 C 0.27637 0.44678 0.07991 0.0
H184 H 0.12603 0.43848 0.04908 0.0
C185 C 0.27475 0.51118 0.09098 0.0
C186 C 0.22016 0.54997 0.08696 0.0
H187 H 0.31981 0.41918 0.08329 0.0
H188 H 0.31623 0.5305 0.10309 0.0
C189 C 0.16755 0.52334 0.07104 0.0
C190 C 0.84542 0.73451 0.30191 0.0
C191 C 0.89409 0.77792 0.31343 0.0
H192 H 0.75015 0.69533 0.30417 0.0
C193 C 0.88215 0.81597 0.33645 0.0
H194 H 0.853 0.70401 0.28426 0.0
C195 C 0.82409 0.81033 0.34787 0.0
C196 C 0.77548 0.76711 0.33651 0.0
H197 H 0.91732 0.85131 0.34556 0.0
H198 H 0.81705 0.84097 0.36556 0.0
C199 C 0.78654 0.72931 0.31331 0.0
C200 C 0.80905 0.54527 0.57096 0.0
C201 C 0.80011 0.58975 0.59266 0.0
H202 H 0.79241 0.44795 0.55326 0.0
C203 C 0.78044 0.5658 0.61549 0.0
H204 H 0.8249 0.56175 0.55313 0.0
C205 C 0.76368 0.49973 0.61571 0.0
C206 C 0.76584 0.4572 0.59303 0.0
H207 H 0.77347 0.59894 0.63251 0.0
H208 H 0.74299 0.4835 0.63271 0.0
C209 C 0.79126 0.47977 0.57107 0.0
C210 C 0.74633 0.22433 0.85549 0.0
C211 C 0.72686 0.28375 0.84631 0.0
H212 H 0.82421 0.15881 0.86188 0.0
C213 C 0.77387 0.32733 0.83949 0.0
H214 H 0.71108 0.18996 0.86086 0.0
C215 C 0.83906 0.31017 0.84068 0.0
C216 C 0.85765 0.2485 0.848 0.0
H217 H 0.76004 0.37369 0.83246 0.0
H218 H 0.8742 0.34333 0.83442 0.0
C219 C 0.81095 0.20648 0.85597 0.0
C220 C 0.95894 0.50078 0.89899 0.0
C221 C 0.98735 0.55632 0.89017 0.0
H222 H 0.94804 0.39666 0.89369 0.0
C223 C 0.00856 0.55168 0.86488 0.0
H224 H 0.94019 0.50319 0.91805 0.0
C225 C 0.01167 0.49091 0.85074 0.0
C226 C 0.99432 0.43392 0.86177 0.0
H227 H 0.03022 0.59326 0.85723 0.0
H228 H 0.03605 0.48763 0.83284 0.0
C229 C 0.96226 0.43979 0.88481 0.0
C230 C 0.91977 0.88717 0.16602 0.0
C231 C 0.85821 0.87301 0.15397 0.0
H232 H 0.02135 0.88631 0.16168 0.0
C233 C 0.85235 0.84238 0.12854 0.0
H234 H 0.92548 0.91137 0.18553 0.0
C235 C 0.90727 0.82595 0.11547 0.0
C236 C 0.96879 0.8397 0.12763 0.0
H237 H 0.80551 0.8307 0.11876 0.0
H238 H 0.9017 0.80246 0.09585 0.0
C239 C 0.97458 0.87142 0.15277 0.0
C240 C 0.5671 0.46263 0.42247 0.0
C241 C 0.56775 0.40038 0.40876 0.0
H242 H 0.56858 0.5666 0.42006 0.0
C243 C 0.57864 0.39554 0.38226 0.0
H244 H 0.55949 0.46752 0.44305 0.0
C245 C 0.58492 0.4516 0.36934 0.0
C246 C 0.57981 0.51414 0.38247 0.0
H247 H 0.58087 0.34839 0.37125 0.0
H248 H 0.59111 0.44571 0.34865 0.0
C249 C 0.57285 0.51925 0.4094 0.0
C250 C 0.98837 0.33723 0.62963 0.0
C251 C 1.00494 0.36835 0.65451 0.0
H252 H 0.91247 0.29213 0.60383 0.0
C253 C 0.95556 0.39191 0.66991 0.0
H254 H 0.02542 0.31827 0.61744 0.0
C255 C 0.89138 0.37629 0.66227 0.0
C256 C 0.87555 0.33831 0.63886 0.0
H257 H 0.96705 0.41665 0.68906 0.0
H258 H 0.85483 0.38864 0.67573 0.0
C259 C 0.92379 0.32231 0.62183 0.0
C260 C 0.42499 0.3845 0.66307 0.0
C261 C 0.36351 0.36989 0.65102 0.0
H262 H 0.52663 0.38327 0.6589 0.0
C263 C 0.35786 0.33817 0.62577 0.0
H264 H 0.43053 0.40954 0.68244 0.0
C265 C 0.41291 0.32113 0.61288 0.0
C266 C 0.47434 0.33531 0.62506 0.0
H267 H 0.31109 0.32613 0.61599 0.0
H268 H 0.40752 0.29681 0.59339 0.0
C269 C 0.47992 0.36809 0.65001 0.0
C270 C 0.4828 0.8442 0.13234 0.0
C271 C 0.49973 0.87318 0.15754 0.0
H272 H 0.40645 0.80154 0.10612 0.0
C273 C 0.45063 0.89589 0.17325 0.0
H274 H 0.51963 0.82597 0.11989 0.0
C275 C 0.38632 0.88123 0.16551 0.0
C276 C 0.37008 0.84512 0.1417 0.0
H277 H 0.46241 0.91902 0.19265 0.0
H278 H 0.34997 0.89265 0.17915 0.0
C279 C 0.41808 0.83029 0.12444 0.0
C280 C 0.35117 0.24039 0.80064 0.0
C281 C 0.39983 0.28441 0.81172 0.0
H282 H 0.25596 0.20148 0.80337 0.0
C283 C 0.38784 0.32395 0.83437 0.0
H284 H 0.35875 0.20877 0.78328 0.0
C285 C 0.32983 0.31906 0.84591 0.0
C286 C 0.28129 0.27514 0.83502 0.0
H287 H 0.42293 0.35982 0.84311 0.0
H288 H 0.32279 0.35077 0.86332 0.0
C289 C 0.29231 0.23597 0.81214 0.0
C290 C 0.24031 0.7127 0.35567 0.0
C291 C 0.22107 0.77322 0.34748 0.0
H292 H 0.31798 0.64637 0.36107 0.0
C293 C 0.26821 0.81752 0.34133 0.0
H294 H 0.20495 0.67775 0.36051 0.0
C295 C 0.33333 0.80014 0.34223 0.0
C296 C 0.35173 0.73762 0.3486 0.0
H297 H 0.25455 0.86471 0.33506 0.0
H298 H 0.36857 0.83401 0.33652 0.0
C299 C 0.30488 0.69471 0.35588 0.0
C300 C 0.67167 0.95034 0.55961 0.0
C301 C 0.72656 0.91129 0.56367 0.0
H302 H 0.62703 0.04351 0.56758 0.0
C303 C 0.78068 0.94023 0.5781 0.0
H304 H 0.62858 0.93011 0.54891 0.0
C305 C 0.77905 1.00471 0.58908 0.0
C306 C 0.72387 0.04289 0.58554 0.0
H307 H 0.82461 0.91314 0.58106 0.0
H308 H 0.82102 0.02458 0.60073 0.0
C309 C 0.67059 0.0156 0.57023 0.0
C310 C 0.30465 0.05196 0.07414 0.0
C311 C 0.29293 0.09771 0.09512 0.0
H312 H 0.2905 0.95354 0.05725 0.0
C313 C 0.27073 0.0752 0.11779 0.0
H314 H 0.3225 0.06735 0.05647 0.0
C315 C 0.25415 1.00921 0.11841 0.0
C316 C 0.25923 0.96525 0.09631 0.0
H317 H 0.26156 0.10933 0.13426 0.0
H318 H 0.23142 0.99404 0.13513 0.0
C319 C 0.28716 0.98646 0.07464 0.0
C320 C 0.50056 0.04139 0.36494 0.0
C321 C 0.47987 0.04639 0.39031 0.0
H322 H 0.52794 0.97683 0.33304 0.0
C323 C 0.45174 0.99103 0.39938 0.0
H324 H 0.52195 0.08287 0.35712 0.0
C325 C 0.45508 0.92983 0.38537 0.0
C326 C 0.48693 0.92363 0.36228 0.0
H327 H 0.43347 0.99374 0.41853 0.0
H328 H 0.44126 0.88686 0.39444 0.0
C329 C 0.50373 0.9804 0.35098 0.0
C330 C 0.08526 0.9056 0.8825 0.0
C331 C 0.0737 0.9106 0.90894 0.0
H332 H 0.09801 0.95552 0.84884 0.0
C333 C 0.07224 0.97296 0.92252 0.0
H334 H 0.08813 0.85839 0.87159 0.0
C335 C 0.07782 0.02948 0.90936 0.0
C336 C 0.08536 0.02415 0.88248 0.0
H337 H 0.0641 0.97799 0.94305 0.0
H338 H 0.07287 0.07689 0.9199 0.0
C339 C 0.09133 0.96156 0.86949 0.0
C340 C 0.10259 0.2722 0.98483 0.0
C341 C 0.16263 0.24567 -0.00812 0.0
H342 H 0.03352 0.28985 0.95373 0.0
C343 C 0.19291 0.20465 0.9732 0.0
H344 H 0.07698 0.30227 -0.00112 0.0
C345 C 0.16671 0.19577 0.94746 0.0
C346 C 0.11045 0.22847 0.94002 0.0
H347 H 0.23923 0.18336 0.97792 0.0
H348 H 0.19383 0.16899 0.93297 0.0
C349 C 0.077 0.26404 0.95911 0.0
C350 C 0.05578 0.83815 0.22336 0.0
C351 C 0.02343 0.7896 0.23502 0.0
H352 H 0.11063 0.86022 0.19174 0.0
C353 C 0.01053 0.72881 0.22094 0.0
H354 H 0.06659 0.88523 0.23393 0.0
C355 C 0.0354 0.71474 0.19665 0.0
C356 C 0.07215 0.76175 0.18604 0.0
H357 H 0.98658 0.69031 0.22972 0.0
H358 H 0.02985 0.66585 0.18704 0.0
C359 C 0.08058 0.82403 0.1992 0.0
C360 C 0.6917 0.69522 0.47302 0.0
C361 C 0.66239 0.73605 0.49203 0.0
H362 H 0.69006 0.65934 0.43274 0.0
C363 C 0.60152 0.7617 0.48567 0.0
H364 H 0.7386 0.67457 0.4772 0.0
C365 C 0.57408 0.753 0.46023 0.0
C366 C 0.60654 0.71782 0.44072 0.0
H367 H 0.57666 0.7916 0.50002 0.0
H368 H 0.52992 0.77826 0.45534 0.0
C369 C 0.66368 0.68583 0.44755 0.0
C370 C 0.51672 0.22831 0.71965 0.0
C371 C 0.52935 0.28999 0.73304 0.0
H372 H 0.53605 0.16317 0.68636 0.0
C373 C 0.56139 0.33763 0.72077 0.0
H374 H 0.49303 0.1905 0.72892 0.0
C375 C 0.58605 0.32189 0.69668 0.0
C376 C 0.5778 0.25885 0.6842 0.0
H377 H 0.57203 0.38536 0.7308 0.0
H378 H 0.61583 0.35753 0.68875 0.0
C379 C 0.54145 0.21261 0.69543 0.0
C380 C 0.05635 0.62137 -0.00523 0.0
C381 C 0.09473 0.64232 0.9758 0.0
H382 H 0.04334 0.62454 0.03556 0.0
C383 C 0.15796 0.66389 0.98311 0.0
H384 H 1.00755 0.60414 -0.01049 0.0
C385 C 0.17894 0.67382 0.00937 0.0
C386 C 0.13644 0.66351 0.0285 0.0
H387 H 0.18874 0.67928 0.96869 0.0
H388 H 0.22453 0.69883 0.01464 0.0
C389 C 0.07724 0.63199 0.02111 0.0
C390 C 0.66277 0.80989 0.25123 0.0
C391 C 0.63666 0.78226 0.227 0.0
H392 H 0.6692 0.80407 0.29243 0.0
C393 C 0.60584 0.72113 0.22524 0.0
H394 H 0.68661 0.85716 0.25291 0.0
C395 C 0.59646 0.69042 0.24762 0.0
C396 C 0.61722 0.72062 0.27222 0.0
H397 H 0.58584 0.69885 0.20663 0.0
H398 H 0.56937 0.64494 0.24573 0.0
C399 C 0.65292 0.77932 0.27378 0.0
C400 C 0.55582 0.11168 0.49449 0.0
C401 C 0.59273 0.13163 0.47488 0.0
H402 H 0.54616 0.1162 0.53555 0.0
C403 C 0.6566 0.15235 0.48125 0.0
H404 H 0.50655 0.09507 0.48994 0.0
C405 C 0.67973 0.16271 0.50725 0.0
C406 C 0.63873 0.15377 0.52704 0.0
H407 H 0.68624 0.16696 0.46632 0.0
H408 H 0.72583 0.18726 0.51181 0.0
C409 C 0.57889 0.12269 0.52057 0.0
C410 C 0.11209 0.22283 0.72419 0.0
C411 C 0.14248 0.28406 0.72531 0.0
H412 H 0.07576 0.14823 0.74552 0.0
C413 C 0.16817 0.3135 0.74931 0.0
H414 H 0.09244 0.19916 0.70576 0.0
C415 C 0.15824 0.28461 0.77224 0.0
C416 C 0.12282 0.22585 0.77128 0.0
H417 H 0.19168 0.36088 0.7505 0.0
H418 H 0.17416 0.31067 0.79069 0.0
C419 C 0.10257 0.19383 0.74694 0.0
loop_
_geom_bond_atom_site_label_1
_geom_bond_atom_site_label_2
_geom_bond_distance
_geom_bond_site_symmetry_2
_ccdc_geom_bond_type
H0 C5 0.930 . S
H1 C8 0.930 . S
H2 C10 0.930 . S
H3 C4 1.016 . S
C4 H3 1.016 . S
C4 N11 1.286 . S
C5 H0 0.930 . S
C5 C6 1.397 . S
C5 C7 1.361 . S
C6 C5 1.397 . S
C6 C10 1.390 . S
C7 C5 1.361 . S
C7 C8 1.393 . S
C7 N11 1.413 . S
C8 H1 0.930 . S
C8 C7 1.393 . S
C8 C9 1.399 . S
C9 C8 1.399 . S
C9 C10 1.381 . S
C10 H2 0.930 . S
C10 C6 1.390 . S
C10 C9 1.381 . S
N11 C4 1.286 . S
N11 C7 1.413 . S
H12 C17 0.930 . S
H13 C20 0.930 . S
H14 C22 0.930 1_655 S
H15 C16 1.016 . S
C16 H15 1.016 . S
C16 N23 1.286 . S
C17 H12 0.930 . S
C17 C18 1.397 . S
C17 C19 1.361 . S
C18 C17 1.397 . S
C18 C22 1.390 . S
C19 C17 1.361 . S
C19 C20 1.393 . S
C19 N23 1.413 . S
C20 H13 0.930 . S
C20 C19 1.393 . S
C20 C21 1.399 . S
C21 C20 1.399 . S
C21 C22 1.381 . S
C22 H14 0.930 1_455 S
C22 C18 1.390 . S
C22 C21 1.381 . S
N23 C16 1.286 . S
N23 C19 1.413 . S
H24 C29 0.930 . S
H25 C32 0.930 . S
H26 C34 0.930 . S
H27 C28 1.016 . S
C28 H27 1.016 . S
C28 N35 1.286 . S
C29 H24 0.930 . S
C29 C30 1.397 . S
C29 C31 1.361 . S
C30 C29 1.397 . S
C30 C34 1.390 . S
C31 C29 1.361 . S
C31 C32 1.393 . S
C31 N35 1.413 . S
C32 H25 0.930 . S
C32 C31 1.393 . S
C32 C33 1.399 . S
C33 C32 1.399 . S
C33 C34 1.381 . S
C34 H26 0.930 . S
C34 C30 1.390 . S
C34 C33 1.381 . S
N35 C28 1.286 . S
N35 C31 1.413 . S
H36 C41 0.930 . S
H37 C44 0.930 . S
H38 C46 0.930 . S
H39 C40 1.016 . S
C40 H39 1.016 . S
C40 N47 1.286 . S
C41 H36 0.930 . S
C41 C42 1.397 . S
C41 C43 1.361 . S
C42 C41 1.397 . S
C42 C46 1.390 . S
C43 C41 1.361 . S
C43 C44 1.393 . S
C43 N47 1.413 . S
C44 H37 0.930 . S
C44 C43 1.393 . S
C44 C45 1.399 . S
C45 C44 1.399 . S
C45 C46 1.381 . S
C46 H38 0.930 . S
C46 C42 1.390 . S
C46 C45 1.381 . S
N47 C40 1.286 . S
N47 C43 1.413 . S
H48 C53 0.930 . S
H49 C56 0.930 . S
H50 C58 0.930 . S
H51 C52 1.016 . S
C52 H51 1.016 . S
C52 N59 1.286 . S
C53 H48 0.930 . S
C53 C54 1.397 . S
C53 C55 1.361 . S
C54 C53 1.397 . S
C54 C58 1.390 . S
C55 C53 1.361 . S
C55 C56 1.393 . S
C55 N59 1.413 . S
C56 H49 0.930 . S
C56 C55 1.393 . S
C56 C57 1.399 . S
C57 C56 1.399 . S
C57 C58 1.381 . S
C58 H50 0.930 . S
C58 C54 1.390 . S
C58 C57 1.381 . S
N59 C52 1.286 . S
N59 C55 1.413 . S
H60 C65 0.930 . S
H61 C68 0.930 . S
H62 C70 0.930 . S
H63 C64 1.016 . S
C64 H63 1.016 . S
C64 N71 1.286 . S
C65 H60 0.930 . S
C65 C66 1.397 . S
C65 C67 1.361 . S
C66 C65 1.397 . S
C66 C70 1.390 . S
C67 C65 1.361 . S
C67 C68 1.393 . S
C67 N71 1.413 . S
C68 H61 0.930 . S
C68 C67 1.393 . S
C68 C69 1.399 . S
C69 C68 1.399 . S
C69 C70 1.381 . S
C70 H62 0.930 . S
C70 C66 1.390 . S
C70 C69 1.381 . S
N71 C64 1.286 . S
N71 C67 1.413 . S
H72 C77 0.930 . S
H73 C80 0.930 . S
H74 C82 0.930 . S
H75 C76 1.016 . S
C76 H75 1.016 . S
C76 N83 1.286 . S
C77 H72 0.930 . S
C77 C78 1.397 . S
C77 C79 1.361 . S
C78 C77 1.397 . S
C78 C82 1.390 . S
C79 C77 1.361 . S
C79 C80 1.393 . S
C79 N83 1.413 . S
C80 H73 0.930 . S
C80 C79 1.393 . S
C80 C81 1.399 . S
C81 C80 1.399 . S
C81 C82 1.381 . S
C82 H74 0.930 . S
C82 C78 1.390 . S
C82 C81 1.381 . S
N83 C76 1.286 . S
N83 C79 1.413 . S
H84 C89 0.930 . S
H85 C92 0.930 . S
H86 C94 0.930 . S
H87 C88 1.016 . S
C88 H87 1.016 . S
C88 N95 1.286 . S
C89 H84 0.930 . S
C89 C90 1.397 . S
C89 C91 1.361 . S
C90 C89 1.397 . S
C90 C94 1.390 . S
C91 C89 1.361 . S
C91 C92 1.393 . S
C91 N95 1.413 . S
C92 H85 0.930 . S
C92 C91 1.393 . S
C92 C93 1.399 . S
C93 C92 1.399 . S
C93 C94 1.381 . S
C94 H86 0.930 . S
C94 C90 1.390 . S
C94 C93 1.381 . S
N95 C88 1.286 . S
N95 C91 1.413 . S
Zn96 O102 1.920 . S
Zn96 O108 1.898 . S
Zn96 O111 1.905 . S
Zn97 O105 1.905 . S
Zn97 O106 1.898 . S
Zn97 O114 1.920 1_455 S
Zn98 O101 2.080 . S
Zn98 O104 2.114 . S
Zn98 O107 2.120 . S
Zn98 O109 2.120 . S
Zn98 O110 2.114 . S
Zn98 O113 2.080 . S
C99 O104 1.166 . S
C99 O105 1.182 . S
C100 O106 1.167 . S
C100 O107 1.299 . S
O101 Zn98 2.080 . S
O101 C115 1.305 . S
O102 Zn96 1.920 . S
O102 C115 1.234 . S
C103 O108 1.167 . S
C103 O109 1.299 . S
O104 Zn98 2.114 . S
O104 C99 1.166 . S
O105 Zn97 1.905 . S
O105 C99 1.182 . S
O106 Zn97 1.898 . S
O106 C100 1.167 . S
O107 Zn98 2.120 . S
O107 C100 1.299 . S
O108 Zn96 1.898 . S
O108 C103 1.167 . S
O109 Zn98 2.120 . S
O109 C103 1.299 . S
O110 Zn98 2.114 . S
O110 C112 1.166 . S
O111 Zn96 1.905 . S
O111 C112 1.182 . S
C112 O110 1.166 . S
C112 O111 1.182 . S
O113 Zn98 2.080 . S
O113 C116 1.305 1_455 S
O114 Zn97 1.920 1_655 S
O114 C116 1.234 . S
C115 O101 1.305 . S
C115 O102 1.234 . S
C116 O113 1.305 1_655 S
C116 O114 1.234 . S
Zn117 O123 1.920 . S
Zn117 O129 1.898 . S
Zn117 O132 1.905 . S
Zn118 O126 1.905 . S
Zn118 O127 1.898 . S
Zn118 O135 1.920 . S
Zn119 O122 2.080 . S
Zn119 O125 2.114 . S
Zn119 O128 2.120 . S
Zn119 O130 2.120 . S
Zn119 O131 2.114 . S
Zn119 O134 2.080 . S
C120 O125 1.166 . S
C120 O126 1.182 . S
C121 O127 1.167 . S
C121 O128 1.299 . S
O122 Zn119 2.080 . S
O122 C136 1.305 . S
O123 Zn117 1.920 . S
O123 C136 1.234 . S
C124 O129 1.167 . S
C124 O130 1.299 . S
O125 Zn119 2.114 . S
O125 C120 1.166 . S
O126 Zn118 1.905 . S
O126 C120 1.182 . S
O127 Zn118 1.898 . S
O127 C121 1.167 . S
O128 Zn119 2.120 . S
O128 C121 1.299 . S
O129 Zn117 1.898 . S
O129 C124 1.167 . S
O130 Zn119 2.120 . S
O130 C124 1.299 . S
O131 Zn119 2.114 . S
O131 C133 1.166 . S
O132 Zn117 1.905 . S
O132 C133 1.182 . S
C133 O131 1.166 . S
C133 O132 1.182 . S
O134 Zn119 2.080 . S
O134 C137 1.305 . S
O135 Zn118 1.920 . S
O135 C137 1.234 . S
C136 O122 1.305 . S
C136 O123 1.234 . S
C137 O134 1.305 . S
C137 O135 1.234 . S
Zn138 O144 1.920 . S
Zn138 O150 1.898 . S
Zn138 O153 1.905 . S
Zn139 O147 1.905 . S
Zn139 O148 1.898 . S
Zn139 O156 1.920 . S
Zn140 O143 2.080 . S
Zn140 O146 2.114 . S
Zn140 O149 2.120 . S
Zn140 O151 2.120 . S
Zn140 O152 2.114 . S
Zn140 O155 2.080 . S
C141 O146 1.166 . S
C141 O147 1.182 . S
C142 O148 1.167 . S
C142 O149 1.299 . S
O143 Zn140 2.080 . S
O143 C157 1.305 . S
O144 Zn138 1.920 . S
O144 C157 1.234 . S
C145 O150 1.167 . S
C145 O151 1.299 . S
O146 Zn140 2.114 . S
O146 C141 1.166 . S
O147 Zn139 1.905 . S
O147 C141 1.182 . S
O148 Zn139 1.898 . S
O148 C142 1.167 . S
O149 Zn140 2.120 . S
O149 C142 1.299 . S
O150 Zn138 1.898 . S
O150 C145 1.167 . S
O151 Zn140 2.120 . S
O151 C145 1.299 . S
O152 Zn140 2.114 . S
O152 C154 1.166 . S
O153 Zn138 1.905 . S
O153 C154 1.182 . S
C154 O152 1.166 . S
C154 O153 1.182 . S
O155 Zn140 2.080 . S
O155 C158 1.305 . S
O156 Zn139 1.920 . S
O156 C158 1.234 . S
C157 O143 1.305 . S
C157 O144 1.234 . S
C158 O155 1.305 . S
C158 O156 1.234 . S
Zn159 O165 1.920 . S
Zn159 O171 1.898 . S
Zn159 O174 1.905 1_455 S
Zn160 O168 1.905 . S
Zn160 O169 1.898 . S
Zn160 O177 1.920 . S
Zn161 O164 2.080 . S
Zn161 O167 2.114 . S
Zn161 O170 2.120 . S
Zn161 O172 2.120 . S
Zn161 O173 2.114 . S
Zn161 O176 2.080 . S
C162 O167 1.166 . S
C162 O168 1.182 . S
C163 O169 1.167 . S
C163 O170 1.299 . S
O164 Zn161 2.080 . S
O164 C178 1.305 . S
O165 Zn159 1.920 . S
O165 C178 1.234 . S
C166 O171 1.167 . S
C166 O172 1.299 . S
O167 Zn161 2.114 . S
O167 C162 1.166 . S
O168 Zn160 1.905 . S
O168 C162 1.182 . S
O169 Zn160 1.898 . S
O169 C163 1.167 . S
O170 Zn161 2.120 . S
O170 C163 1.299 . S
O171 Zn159 1.898 . S
O171 C166 1.167 . S
O172 Zn161 2.120 . S
O172 C166 1.299 . S
O173 Zn161 2.114 . S
O173 C175 1.166 1_455 S
O174 Zn159 1.905 1_655 S
O174 C175 1.182 . S
C175 O173 1.166 1_655 S
C175 O174 1.182 . S
O176 Zn161 2.080 . S
O176 C179 1.305 . S
O177 Zn160 1.920 . S
O177 C179 1.234 . S
C178 O164 1.305 . S
C178 O165 1.234 . S
C179 O176 1.305 . S
C179 O177 1.234 . S
C180 C181 1.387 . S
C180 H184 0.950 . S
C180 C189 1.390 . S
C181 C180 1.387 . S
C181 C183 1.387 . S
H182 C189 0.950 . S
C183 C181 1.387 . S
C183 C185 1.390 . S
C183 H187 0.950 . S
H184 C180 0.950 . S
C185 C183 1.390 . S
C185 C186 1.387 . S
C185 H188 0.950 . S
C186 C185 1.387 . S
C186 C189 1.387 . S
H187 C183 0.950 . S
H188 C185 0.950 . S
C189 C180 1.390 . S
C189 H182 0.950 . S
C189 C186 1.387 . S
C190 C191 1.387 . S
C190 H194 0.950 . S
C190 C199 1.390 . S
C191 C190 1.387 . S
C191 C193 1.387 . S
H192 C199 0.950 . S
C193 C191 1.387 . S
C193 C195 1.390 . S
C193 H197 0.950 . S
H194 C190 0.950 . S
C195 C193 1.390 . S
C195 C196 1.387 . S
C195 H198 0.950 . S
C196 C195 1.387 . S
C196 C199 1.387 . S
H197 C193 0.950 . S
H198 C195 0.950 . S
C199 C190 1.390 . S
C199 H192 0.950 . S
C199 C196 1.387 . S
C200 C201 1.387 . S
C200 H204 0.950 . S
C200 C209 1.390 . S
C201 C200 1.387 . S
C201 C203 1.387 . S
H202 C209 0.950 . S
C203 C201 1.387 . S
C203 C205 1.390 . S
C203 H207 0.950 . S
H204 C200 0.950 . S
C205 C203 1.390 . S
C205 C206 1.387 . S
C205 H208 0.950 . S
C206 C205 1.387 . S
C206 C209 1.387 . S
H207 C203 0.950 . S
H208 C205 0.950 . S
C209 C200 1.390 . S
C209 H202 0.950 . S
C209 C206 1.387 . S
C210 C211 1.387 . S
C210 H214 0.950 . S
C210 C219 1.390 . S
C211 C210 1.387 . S
C211 C213 1.387 . S
H212 C219 0.950 . S
C213 C211 1.387 . S
C213 C215 1.390 . S
C213 H217 0.950 . S
H214 C210 0.950 . S
C215 C213 1.390 . S
C215 C216 1.387 . S
C215 H218 0.950 . S
C216 C215 1.387 . S
C216 C219 1.387 . S
H217 C213 0.950 . S
H218 C215 0.950 . S
C219 C210 1.390 . S
C219 H212 0.950 . S
C219 C216 1.387 . S
C220 C221 1.387 . S
C220 H224 0.950 . S
C220 C229 1.390 . S
C221 C220 1.387 . S
C221 C223 1.387 . S
H222 C229 0.950 . S
C223 C221 1.387 . S
C223 C225 1.390 . S
C223 H227 0.950 . S
H224 C220 0.950 . S
C225 C223 1.390 . S
C225 C226 1.387 . S
C225 H228 0.950 . S
C226 C225 1.387 . S
C226 C229 1.387 . S
H227 C223 0.950 . S
H228 C225 0.950 . S
C229 C220 1.390 . S
C229 H222 0.950 . S
C229 C226 1.387 . S
C230 C231 1.387 . S
C230 H234 0.950 . S
C230 C239 1.390 . S
C231 C230 1.387 . S
C231 C233 1.387 . S
H232 C239 0.950 . S
C233 C231 1.387 . S
C233 C235 1.390 . S
C233 H237 0.950 . S
H234 C230 0.950 . S
C235 C233 1.390 . S
C235 C236 1.387 . S
C235 H238 0.950 . S
C236 C235 1.387 . S
C236 C239 1.387 . S
H237 C233 0.950 . S
H238 C235 0.950 . S
C239 C230 1.390 . S
C239 H232 0.950 . S
C239 C236 1.387 . S
C240 C241 1.387 . S
C240 H244 0.950 . S
C240 C249 1.390 . S
C241 C240 1.387 . S
C241 C243 1.387 . S
H242 C249 0.950 . S
C243 C241 1.387 . S
C243 C245 1.390 . S
C243 H247 0.950 . S
H244 C240 0.950 . S
C245 C243 1.390 . S
C245 C246 1.387 . S
C245 H248 0.950 . S
C246 C245 1.387 . S
C246 C249 1.387 . S
H247 C243 0.950 . S
H248 C245 0.950 . S
C249 C240 1.390 . S
C249 H242 0.950 . S
C249 C246 1.387 . S
C250 C251 1.387 . S
C250 H254 0.950 . S
C250 C259 1.390 . S
C251 C250 1.387 . S
C251 C253 1.387 . S
H252 C259 0.950 . S
C253 C251 1.387 . S
C253 C255 1.390 . S
C253 H257 0.950 . S
H254 C250 0.950 . S
C255 C253 1.390 . S
C255 C256 1.387 . S
C255 H258 0.950 . S
C256 C255 1.387 . S
C256 C259 1.387 . S
H257 C253 0.950 . S
H258 C255 0.950 . S
C259 C250 1.390 . S
C259 H252 0.950 . S
C259 C256 1.387 . S
C260 C261 1.387 . S
C260 H264 0.950 . S
C260 C269 1.390 . S
C261 C260 1.387 . S
C261 C263 1.387 . S
H262 C269 0.950 . S
C263 C261 1.387 . S
C263 C265 1.390 . S
C263 H267 0.950 . S
H264 C260 0.950 . S
C265 C263 1.390 . S
C265 C266 1.387 . S
C265 H268 0.950 . S
C266 C265 1.387 . S
C266 C269 1.387 . S
H267 C263 0.950 . S
H268 C265 0.950 . S
C269 C260 1.390 . S
C269 H262 0.950 . S
C269 C266 1.387 . S
C270 C271 1.387 . S
C270 H274 0.950 . S
C270 C279 1.390 . S
C271 C270 1.387 . S
C271 C273 1.387 . S
H272 C279 0.950 . S
C273 C271 1.387 . S
C273 C275 1.390 . S
C273 H277 0.950 . S
H274 C270 0.950 . S
C275 C273 1.390 . S
C275 C276 1.387 . S
C275 H278 0.950 . S
C276 C275 1.387 . S
C276 C279 1.387 . S
H277 C273 0.950 . S
H278 C275 0.950 . S
C279 C270 1.390 . S
C279 H272 0.950 . S
C279 C276 1.387 . S
C280 C281 1.387 . S
C280 H284 0.950 . S
C280 C289 1.390 . S
C281 C280 1.387 . S
C281 C283 1.387 . S
H282 C289 0.950 . S
C283 C281 1.387 . S
C283 C285 1.390 . S
C283 H287 0.950 . S
H284 C280 0.950 . S
C285 C283 1.390 . S
C285 C286 1.387 . S
C285 H288 0.950 . S
C286 C285 1.387 . S
C286 C289 1.387 . S
H287 C283 0.950 . S
H288 C285 0.950 . S
C289 C280 1.390 . S
C289 H282 0.950 . S
C289 C286 1.387 . S
C290 C291 1.387 . S
C290 H294 0.950 . S
C290 C299 1.390 . S
C291 C290 1.387 . S
C291 C293 1.387 . S
H292 C299 0.950 . S
C293 C291 1.387 . S
C293 C295 1.390 . S
C293 H297 0.950 . S
H294 C290 0.950 . S
C295 C293 1.390 . S
C295 C296 1.387 . S
C295 H298 0.950 . S
C296 C295 1.387 . S
C296 C299 1.387 . S
H297 C293 0.950 . S
H298 C295 0.950 . S
C299 C290 1.390 . S
C299 H292 0.950 . S
C299 C296 1.387 . S
C300 C301 1.387 . S
C300 H304 0.950 . S
C300 C309 1.390 . S
C301 C300 1.387 . S
C301 C303 1.387 . S
H302 C309 0.950 1_545 S
C303 C301 1.387 . S
C303 C305 1.390 . S
C303 H307 0.950 . S
H304 C300 0.950 . S
C305 C303 1.390 . S
C305 C306 1.387 1_565 S
C305 H308 0.950 . S
C306 C305 1.387 1_545 S
C306 C309 1.387 1_545 S
H307 C303 0.950 . S
H308 C305 0.950 . S
C309 C300 1.390 . S
C309 H302 0.950 1_565 S
C309 C306 1.387 1_565 S
C310 C311 1.387 1_565 S
C310 H314 0.946 1_565 S
C310 C319 1.390 . S
C311 C310 1.387 1_545 S
C311 C313 1.387 . S
H312 C319 0.950 . S
C313 C311 1.387 . S
C313 C315 1.390 1_545 S
C313 H317 0.950 . S
H314 C310 0.946 1_545 S
C315 C313 1.390 1_565 S
C315 C316 1.387 . S
C315 H318 0.950 . S
C316 C315 1.387 . S
C316 C319 1.387 . S
H317 C313 0.950 . S
H318 C315 0.950 . S
C319 C310 1.390 . S
C319 H312 0.950 . S
C319 C316 1.387 . S
C320 C321 1.387 . S
C320 H324 0.950 . S
C320 C329 1.390 . S
C321 C320 1.387 . S
C321 C323 1.387 . S
H322 C329 0.950 1_565 S
C323 C321 1.387 . S
C323 C325 1.390 1_545 S
C323 H327 0.950 . S
H324 C320 0.950 . S
C325 C323 1.390 1_565 S
C325 C326 1.387 . S
C325 H328 0.950 . S
C326 C325 1.387 . S
C326 C329 1.387 1_565 S
H327 C323 0.950 . S
H328 C325 0.950 . S
C329 C320 1.390 . S
C329 H322 0.950 1_545 S
C329 C326 1.387 1_545 S
C330 C331 1.387 . S
C330 H334 0.950 . S
C330 C339 1.390 1_565 S
C331 C330 1.387 . S
C331 C333 1.387 . S
H332 C339 0.950 . S
C333 C331 1.387 . S
C333 C335 1.390 1_565 S
C333 H337 0.950 . S
H334 C330 0.950 . S
C335 C333 1.390 1_545 S
C335 C336 1.387 . S
C335 H338 0.950 . S
C336 C335 1.387 . S
C336 C339 1.387 . S
H337 C333 0.950 . S
H338 C335 0.950 . S
C339 C330 1.390 1_545 S
C339 H332 0.950 . S
C339 C336 1.387 . S
C340 C341 1.387 . S
C340 H344 0.950 . S
C340 C349 1.390 1_554 S
C341 C340 1.387 . S
C341 C343 1.387 1_554 S
H342 C349 0.950 . S
C343 C341 1.387 1_556 S
C343 C345 1.390 . S
C343 H347 0.950 1_556 S
H344 C340 0.950 . S
C345 C343 1.390 . S
C345 C346 1.387 . S
C345 H348 0.950 . S
C346 C345 1.387 . S
C346 C349 1.387 . S
H347 C343 0.950 1_554 S
H348 C345 0.950 . S
C349 C340 1.390 1_556 S
C349 H342 0.950 . S
C349 C346 1.387 . S
C350 C351 1.387 . S
C350 H354 0.950 . S
C350 C359 1.390 . S
C351 C350 1.387 . S
C351 C353 1.387 . S
H352 C359 0.950 . S
C353 C351 1.387 . S
C353 C355 1.390 . S
C353 H357 0.950 . S
H354 C350 0.950 . S
C355 C353 1.390 . S
C355 C356 1.387 . S
C355 H358 0.950 . S
C356 C355 1.387 . S
C356 C359 1.387 . S
H357 C353 0.950 . S
H358 C355 0.950 . S
C359 C350 1.390 . S
C359 H352 0.950 . S
C359 C356 1.387 . S
C360 C361 1.387 . S
C360 H364 0.950 . S
C360 C369 1.390 . S
C361 C360 1.387 . S
C361 C363 1.387 . S
H362 C369 0.950 . S
C363 C361 1.387 . S
C363 C365 1.390 . S
C363 H367 0.950 . S
H364 C360 0.950 . S
C365 C363 1.390 . S
C365 C366 1.387 . S
C365 H368 0.950 . S
C366 C365 1.387 . S
C366 C369 1.387 . S
H367 C363 0.950 . S
H368 C365 0.950 . S
C369 C360 1.390 . S
C369 H362 0.950 . S
C369 C366 1.387 . S
C370 C371 1.387 . S
C370 H374 0.950 . S
C370 C379 1.390 . S
C371 C370 1.387 . S
C371 C373 1.387 . S
H372 C379 0.950 . S
C373 C371 1.387 . S
C373 C375 1.390 . S
C373 H377 0.950 . S
H374 C370 0.950 . S
C375 C373 1.390 . S
C375 C376 1.387 . S
C375 H378 0.950 . S
C376 C375 1.387 . S
C376 C379 1.387 . S
H377 C373 0.950 . S
H378 C375 0.950 . S
C379 C370 1.390 . S
C379 H372 0.950 . S
C379 C376 1.387 . S
C380 C381 1.387 1_554 S
C380 H384 0.950 . S
C380 C389 1.390 . S
C381 C380 1.387 1_556 S
C381 C383 1.387 . S
H382 C389 0.950 . S
C383 C381 1.387 . S
C383 C385 1.390 1_556 S
C383 H387 0.950 . S
H384 C380 0.950 . S
C385 C383 1.390 1_554 S
C385 C386 1.387 . S
C385 H388 0.950 . S
C386 C385 1.387 . S
C386 C389 1.387 . S
H387 C383 0.950 . S
H388 C385 0.950 . S
C389 C380 1.390 . S
C389 H382 0.950 . S
C389 C386 1.387 . S
C390 C391 1.387 . S
C390 H394 0.950 . S
C390 C399 1.390 . S
C391 C390 1.387 . S
C391 C393 1.387 . S
H392 C399 0.950 . S
C393 C391 1.387 . S
C393 C395 1.390 . S
C393 H397 0.950 . S
H394 C390 0.950 . S
C395 C393 1.390 . S
C395 C396 1.387 . S
C395 H398 0.950 . S
C396 C395 1.387 . S
C396 C399 1.387 . S
H397 C393 0.950 . S
H398 C395 0.950 . S
C399 C390 1.390 . S
C399 H392 0.950 . S
C399 C396 1.387 . S
C400 C401 1.387 . S
C400 H404 0.950 . S
C400 C409 1.390 . S
C401 C400 1.387 . S
C401 C403 1.387 . S
H402 C409 0.950 . S
C403 C401 1.387 . S
C403 C405 1.390 . S
C403 H407 0.950 . S
H404 C400 0.950 . S
C405 C403 1.390 . S
C405 C406 1.387 . S
C405 H408 0.950 . S
C406 C405 1.387 . S
C406 C409 1.387 . S
H407 C403 0.950 . S
H408 C405 0.950 . S
C409 C400 1.390 . S
C409 H402 0.950 . S
C409 C406 1.387 . S
C410 C411 1.387 . S
C410 H414 0.950 . S
C410 C419 1.390 . S
C411 C410 1.387 . S
C411 C413 1.387 . S
H412 C419 0.950 . S
C413 C411 1.387 . S
C413 C415 1.390 . S
C413 H417 0.950 . S
H414 C410 0.950 . S
C415 C413 1.390 . S
C415 C416 1.387 . S
C415 H418 0.950 . S
C416 C415 1.387 . S
C416 C419 1.387 . S
H417 C413 0.950 . S
H418 C415 0.950 . S
C419 C410 1.390 . S
C419 H412 0.950 . S
C419 C416 1.387 . S
C186 C103 1.410 . S
C181 C6 1.560 . S
C196 C121 1.558 . S
C191 C18 1.653 1_655 S
C201 C28 1.429 . S
C206 C145 1.356 . S
C216 C175 1.211 . S
C211 C40 1.288 . S
C226 C163 1.312 . S
C221 C54 1.386 . S
C231 C64 1.272 . S
C236 C116 1.212 . S
C241 C76 1.581 . S
C246 C136 1.479 . S
C251 C90 1.670 1_655 S
C256 C141 1.481 . S
C261 C88 1.267 . S
C266 C157 1.205 . S
C271 C66 1.678 . S
C276 C112 1.481 . S
C286 C179 1.577 . S
C281 C42 1.663 . S
C296 C124 1.200 . S
C291 C16 1.281 . S
C301 C30 1.556 . S
C306 C142 1.406 . S
C311 C4 1.436 . S
C316 C100 1.362 . S
C326 C120 1.311 . S
C321 C78 1.387 . S
C336 C166 1.465 . S
C331 C52 1.578 . S
C346 C162 1.359 . S
C341 C9 1.505 . S
C356 C115 1.535 . S
C351 C21 1.603 . S
C361 C33 1.489 . S
C366 C137 1.341 . S
C371 C45 1.617 . S
C376 C158 1.550 . S
C386 C99 1.320 . S
C381 C57 1.561 . S
C391 C69 1.547 . S
C396 C133 1.404 . S
C406 C154 1.332 . S
C401 C81 1.576 . S
C416 C178 1.387 . S
C411 C93 1.528 . S
