# Generated by pormake.
# Topology bwt, (3,3)-cn, num edge types: 1
# Building blocks:
#     Node 0, Type 0, BuildingBlock: OLANEW_clean_sbu_2, # of connection points: 3
#     Node 1, Type 0, BuildingBlock: OLANEW_clean_sbu_2, # of connection points: 3
#     Node 2, Type 0, BuildingBlock: OLANEW_clean_sbu_2, # of connection points: 3
#     Node 3, Type 0, BuildingBlock: OLANEW_clean_sbu_2, # of connection points: 3
#     Node 4, Type 0, BuildingBlock: OLANEW_clean_sbu_2, # of connection points: 3
#     Node 5, Type 0, BuildingBlock: OLANEW_clean_sbu_2, # of connection points: 3
#     Node 6, Type 0, BuildingBlock: OLANEW_clean_sbu_2, # of connection points: 3
#     Node 7, Type 0, BuildingBlock: OLANEW_clean_sbu_2, # of connection points: 3
#     Node 8, Type 0, BuildingBlock: OLANEW_clean_sbu_2, # of connection points: 3
#     Node 9, Type 0, BuildingBlock: OLANEW_clean_sbu_2, # of connection points: 3
#     Node 10, Type 0, BuildingBlock: OLANEW_clean_sbu_2, # of connection points: 3
#     Node 11, Type 0, BuildingBlock: OLANEW_clean_sbu_2, # of connection points: 3
#     Node 12, Type 0, BuildingBlock: OLANEW_clean_sbu_2, # of connection points: 3
#     Node 13, Type 0, BuildingBlock: OLANEW_clean_sbu_2, # of connection points: 3
#     Node 14, Type 0, BuildingBlock: OLANEW_clean_sbu_2, # of connection points: 3
#     Node 15, Type 0, BuildingBlock: OLANEW_clean_sbu_2, # of connection points: 3
#     Node 16, Type 0, BuildingBlock: OLANEW_clean_sbu_2, # of connection points: 3
#     Node 17, Type 0, BuildingBlock: OLANEW_clean_sbu_2, # of connection points: 3
#     Node 18, Type 0, BuildingBlock: OLANEW_clean_sbu_2, # of connection points: 3
#     Node 19, Type 0, BuildingBlock: OLANEW_clean_sbu_2, # of connection points: 3
#     Node 20, Type 0, BuildingBlock: OLANEW_clean_sbu_2, # of connection points: 3
#     Node 21, Type 0, BuildingBlock: OLANEW_clean_sbu_2, # of connection points: 3
#     Node 22, Type 0, BuildingBlock: OLANEW_clean_sbu_2, # of connection points: 3
#     Node 23, Type 0, BuildingBlock: OLANEW_clean_sbu_2, # of connection points: 3
#     Node 24, Type 1, BuildingBlock: BETDAH_clean_linker_0, # of connection points: 3
#     Node 25, Type 1, BuildingBlock: BETDAH_clean_linker_0, # of connection points: 3
#     Node 26, Type 1, BuildingBlock: BETDAH_clean_linker_0, # of connection points: 3
#     Node 27, Type 1, BuildingBlock: BETDAH_clean_linker_0, # of connection points: 3
#     Node 28, Type 1, BuildingBlock: BETDAH_clean_linker_0, # of connection points: 3
#     Node 29, Type 1, BuildingBlock: BETDAH_clean_linker_0, # of connection points: 3
#     Node 30, Type 1, BuildingBlock: BETDAH_clean_linker_0, # of connection points: 3
#     Node 31, Type 1, BuildingBlock: BETDAH_clean_linker_0, # of connection points: 3
#     Node 32, Type 1, BuildingBlock: BETDAH_clean_linker_0, # of connection points: 3
#     Node 33, Type 1, BuildingBlock: BETDAH_clean_linker_0, # of connection points: 3
#     Node 34, Type 1, BuildingBlock: BETDAH_clean_linker_0, # of connection points: 3
#     Node 35, Type 1, BuildingBlock: BETDAH_clean_linker_0, # of connection points: 3
#     Node 36, Type 1, BuildingBlock: BETDAH_clean_linker_0, # of connection points: 3
#     Node 37, Type 1, BuildingBlock: BETDAH_clean_linker_0, # of connection points: 3
#     Node 38, Type 1, BuildingBlock: BETDAH_clean_linker_0, # of connection points: 3
#     Node 39, Type 1, BuildingBlock: BETDAH_clean_linker_0, # of connection points: 3
#     Node 40, Type 1, BuildingBlock: BETDAH_clean_linker_0, # of connection points: 3
#     Node 41, Type 1, BuildingBlock: BETDAH_clean_linker_0, # of connection points: 3
#     Node 42, Type 1, BuildingBlock: BETDAH_clean_linker_0, # of connection points: 3
#     Node 43, Type 1, BuildingBlock: BETDAH_clean_linker_0, # of connection points: 3
#     Node 44, Type 1, BuildingBlock: BETDAH_clean_linker_0, # of connection points: 3
#     Node 45, Type 1, BuildingBlock: BETDAH_clean_linker_0, # of connection points: 3
#     Node 46, Type 1, BuildingBlock: BETDAH_clean_linker_0, # of connection points: 3
#     Node 47, Type 1, BuildingBlock: BETDAH_clean_linker_0, # of connection points: 3
#     Edge 48, Type (0, 1), BuildingBlock: XIVTED_clean_linker_0, # of connection points: 2
#     Edge 49, Type (0, 1), BuildingBlock: XIVTED_clean_linker_0, # of connection points: 2
#     Edge 50, Type (0, 1), BuildingBlock: XIVTED_clean_linker_0, # of connection points: 2
#     Edge 51, Type (0, 1), BuildingBlock: XIVTED_clean_linker_0, # of connection points: 2
#     Edge 52, Type (0, 1), BuildingBlock: XIVTED_clean_linker_0, # of connection points: 2
#     Edge 53, Type (0, 1), BuildingBlock: XIVTED_clean_linker_0, # of connection points: 2
#     Edge 54, Type (0, 1), BuildingBlock: XIVTED_clean_linker_0, # of connection points: 2
#     Edge 55, Type (0, 1), BuildingBlock: XIVTED_clean_linker_0, # of connection points: 2
#     Edge 56, Type (0, 1), BuildingBlock: XIVTED_clean_linker_0, # of connection points: 2
#     Edge 57, Type (0, 1), BuildingBlock: XIVTED_clean_linker_0, # of connection points: 2
#     Edge 58, Type (0, 1), BuildingBlock: XIVTED_clean_linker_0, # of connection points: 2
#     Edge 59, Type (0, 1), BuildingBlock: XIVTED_clean_linker_0, # of connection points: 2
#     Edge 60, Type (0, 1), BuildingBlock: XIVTED_clean_linker_0, # of connection points: 2
#     Edge 61, Type (0, 1), BuildingBlock: XIVTED_clean_linker_0, # of connection points: 2
#     Edge 62, Type (0, 1), BuildingBlock: XIVTED_clean_linker_0, # of connection points: 2
#     Edge 63, Type (0, 1), BuildingBlock: XIVTED_clean_linker_0, # of connection points: 2
#     Edge 64, Type (0, 1), BuildingBlock: XIVTED_clean_linker_0, # of connection points: 2
#     Edge 65, Type (0, 1), BuildingBlock: XIVTED_clean_linker_0, # of connection points: 2
#     Edge 66, Type (0, 1), BuildingBlock: XIVTED_clean_linker_0, # of connection points: 2
#     Edge 67, Type (0, 1), BuildingBlock: XIVTED_clean_linker_0, # of connection points: 2
#     Edge 68, Type (0, 1), BuildingBlock: XIVTED_clean_linker_0, # of connection points: 2
#     Edge 69, Type (0, 1), BuildingBlock: XIVTED_clean_linker_0, # of connection points: 2
#     Edge 70, Type (0, 1), BuildingBlock: XIVTED_clean_linker_0, # of connection points: 2
#     Edge 71, Type (0, 1), BuildingBlock: XIVTED_clean_linker_0, # of connection points: 2
#     Edge 72, Type (0, 1), BuildingBlock: XIVTED_clean_linker_0, # of connection points: 2
#     Edge 73, Type (0, 1), BuildingBlock: XIVTED_clean_linker_0, # of connection points: 2
#     Edge 74, Type (0, 1), BuildingBlock: XIVTED_clean_linker_0, # of connection points: 2
#     Edge 75, Type (0, 1), BuildingBlock: XIVTED_clean_linker_0, # of connection points: 2
#     Edge 76, Type (0, 1), BuildingBlock: XIVTED_clean_linker_0, # of connection points: 2
#     Edge 77, Type (0, 1), BuildingBlock: XIVTED_clean_linker_0, # of connection points: 2
#     Edge 78, Type (0, 1), BuildingBlock: XIVTED_clean_linker_0, # of connection points: 2
#     Edge 79, Type (0, 1), BuildingBlock: XIVTED_clean_linker_0, # of connection points: 2
#     Edge 80, Type (0, 1), BuildingBlock: XIVTED_clean_linker_0, # of connection points: 2
#     Edge 81, Type (0, 1), BuildingBlock: XIVTED_clean_linker_0, # of connection points: 2
#     Edge 82, Type (0, 1), BuildingBlock: XIVTED_clean_linker_0, # of connection points: 2
#     Edge 83, Type (0, 1), BuildingBlock: XIVTED_clean_linker_0, # of connection points: 2
#     Edge 84, Type (0, 1), BuildingBlock: XIVTED_clean_linker_0, # of connection points: 2
#     Edge 85, Type (0, 1), BuildingBlock: XIVTED_clean_linker_0, # of connection points: 2
#     Edge 86, Type (0, 1), BuildingBlock: XIVTED_clean_linker_0, # of connection points: 2
#     Edge 87, Type (0, 1), BuildingBlock: XIVTED_clean_linker_0, # of connection points: 2
#     Edge 88, Type (0, 1), BuildingBlock: XIVTED_clean_linker_0, # of connection points: 2
#     Edge 89, Type (0, 1), BuildingBlock: XIVTED_clean_linker_0, # of connection points: 2
#     Edge 90, Type (0, 1), BuildingBlock: XIVTED_clean_linker_0, # of connection points: 2
#     Edge 91, Type (0, 1), BuildingBlock: XIVTED_clean_linker_0, # of connection points: 2
#     Edge 92, Type (0, 1), BuildingBlock: XIVTED_clean_linker_0, # of connection points: 2
#     Edge 93, Type (0, 1), BuildingBlock: XIVTED_clean_linker_0, # of connection points: 2
#     Edge 94, Type (0, 1), BuildingBlock: XIVTED_clean_linker_0, # of connection points: 2
#     Edge 95, Type (0, 1), BuildingBlock: XIVTED_clean_linker_0, # of connection points: 2
#     Edge 96, Type (0, 1), BuildingBlock: XIVTED_clean_linker_0, # of connection points: 2
#     Edge 97, Type (0, 1), BuildingBlock: XIVTED_clean_linker_0, # of connection points: 2
#     Edge 98, Type (0, 1), BuildingBlock: XIVTED_clean_linker_0, # of connection points: 2
#     Edge 99, Type (0, 1), BuildingBlock: XIVTED_clean_linker_0, # of connection points: 2
#     Edge 100, Type (0, 1), BuildingBlock: XIVTED_clean_linker_0, # of connection points: 2
#     Edge 101, Type (0, 1), BuildingBlock: XIVTED_clean_linker_0, # of connection points: 2
#     Edge 102, Type (0, 1), BuildingBlock: XIVTED_clean_linker_0, # of connection points: 2
#     Edge 103, Type (0, 1), BuildingBlock: XIVTED_clean_linker_0, # of connection points: 2
#     Edge 104, Type (0, 1), BuildingBlock: XIVTED_clean_linker_0, # of connection points: 2
#     Edge 105, Type (0, 1), BuildingBlock: XIVTED_clean_linker_0, # of connection points: 2
#     Edge 106, Type (0, 1), BuildingBlock: XIVTED_clean_linker_0, # of connection points: 2
#     Edge 107, Type (0, 1), BuildingBlock: XIVTED_clean_linker_0, # of connection points: 2
#     Edge 108, Type (0, 1), BuildingBlock: XIVTED_clean_linker_0, # of connection points: 2
#     Edge 109, Type (0, 1), BuildingBlock: XIVTED_clean_linker_0, # of connection points: 2
#     Edge 110, Type (0, 1), BuildingBlock: XIVTED_clean_linker_0, # of connection points: 2
#     Edge 111, Type (0, 1), BuildingBlock: XIVTED_clean_linker_0, # of connection points: 2
#     Edge 112, Type (0, 1), BuildingBlock: XIVTED_clean_linker_0, # of connection points: 2
#     Edge 113, Type (0, 1), BuildingBlock: XIVTED_clean_linker_0, # of connection points: 2
#     Edge 114, Type (0, 1), BuildingBlock: XIVTED_clean_linker_0, # of connection points: 2
#     Edge 115, Type (0, 1), BuildingBlock: XIVTED_clean_linker_0, # of connection points: 2
#     Edge 116, Type (0, 1), BuildingBlock: XIVTED_clean_linker_0, # of connection points: 2
#     Edge 117, Type (0, 1), BuildingBlock: XIVTED_clean_linker_0, # of connection points: 2
#     Edge 118, Type (0, 1), BuildingBlock: XIVTED_clean_linker_0, # of connection points: 2
#     Edge 119, Type (0, 1), BuildingBlock: XIVTED_clean_linker_0, # of connection points: 2
# Relax obj value: 0.063
# Max RMSD: 0.122
# Mean RMSD: 0.061
data_MOF--net-bwt--node1-OLANEW_clean_sbu_2--node2-BETDAH_clean_linker_0--edge1-XIVTED_clean_linker_0
_symmetry_space_group_name_H-M    P1
_symmetry_Int_Tables_number       1
_symmetry_cell_setting            triclinic
loop_
_symmetry_equiv_pos_as_xyz
'x, y, z'
_cell_length_a     60.156937
_cell_length_b     60.143219
_cell_length_c     60.108698
_cell_angle_alpha  94.845159
_cell_angle_beta   94.816855
_cell_angle_gamma 94.827854
loop_
_atom_site_label
_atom_site_type_symbol
_atom_site_fract_x
_atom_site_fract_y
_atom_site_fract_z
_atom_type_partial_charge
O0 O 0.27669 0.51454 0.38656 0.0
Cd1 Cd 0.26324 0.49867 0.34872 0.0
O2 O 0.30706 0.52805 0.37305 0.0
Cd3 Cd 0.34112 0.54364 0.37332 0.0
O4 O 0.37408 0.55824 0.36711 0.0
C5 C 0.39119 0.55668 0.38057 0.0
O6 O 0.38882 0.54627 0.39871 0.0
C7 C 0.2958 0.52558 0.38979 0.0
C8 C 0.22126 0.51187 0.33565 0.0
O9 O 0.22333 0.49468 0.34663 0.0
O10 O 0.23912 0.52288 0.3308 0.0
O11 O 0.22041 0.34878 0.75914 0.0
Cd12 Cd 0.20883 0.33176 0.72116 0.0
O13 O 0.21251 0.31898 0.77683 0.0
Cd14 Cd 0.19349 0.30311 0.74641 0.0
O15 O 0.16198 0.30549 0.72648 0.0
C16 C 0.15413 0.32435 0.72964 0.0
O17 O 0.16576 0.34014 0.74332 0.0
C18 C 0.22075 0.33919 0.7772 0.0
C19 C 0.23898 0.35041 0.69372 0.0
O20 O 0.22071 0.35919 0.69704 0.0
O21 O 0.24254 0.33229 0.70268 0.0
O22 O 0.71799 0.09398 0.54986 0.0
Cd23 Cd 0.71551 0.12475 0.57846 0.0
O24 O 0.73807 0.07718 0.57433 0.0
Cd25 Cd 0.75951 0.05171 0.58508 0.0
O26 O 0.78753 0.03527 0.59985 0.0
C27 C 0.79764 0.04429 0.61824 0.0
O28 O 0.79046 0.06252 0.62768 0.0
C29 C 0.72855 0.07733 0.55465 0.0
C30 C 0.68282 0.11393 0.60703 0.0
O31 O 0.67785 0.12258 0.58869 0.0
O32 O 0.70331 0.11042 0.61191 0.0
O33 O 0.76208 0.98539 0.24611 0.0
Cd34 Cd 0.7758 0.98526 0.28551 0.0
O35 O 0.72887 0.98948 0.25734 0.0
Cd36 Cd 0.69251 0.99001 0.2524 0.0
O37 O 0.65614 0.98501 0.24603 0.0
C38 C 0.64656 0.98914 0.22737 0.0
O39 O 0.6588 0.99702 0.2122 0.0
C40 C 0.74141 0.98739 0.24142 0.0
C41 C 0.82076 0.97716 0.29048 0.0
O42 O 0.80524 0.96097 0.2871 0.0
O43 O 0.81502 0.99724 0.29155 0.0
O44 O 0.39122 0.30047 0.54506 0.0
Cd45 Cd 0.35358 0.31317 0.54084 0.0
O46 O 0.39283 0.30268 0.58189 0.0
Cd47 Cd 0.36276 0.32044 0.58224 0.0
O48 O 0.35206 0.35386 0.57934 0.0
C49 C 0.36433 0.36559 0.56771 0.0
O50 O 0.38056 0.3563 0.55815 0.0
C51 C 0.4015 0.29751 0.56379 0.0
C52 C 0.32222 0.27596 0.53647 0.0
O53 O 0.33073 0.28332 0.51937 0.0
O54 O 0.32813 0.28657 0.55574 0.0
O55 O 0.28393 0.77609 0.00858 0.0
Cd56 Cd 0.3227 0.79127 0.00743 0.0
O57 O 0.2946 0.74721 0.0253 0.0
Cd58 Cd 0.28826 0.7139 0.03674 0.0
O59 O 0.2837 0.6774 0.03525 0.0
C60 C 0.30043 0.66635 0.03204 0.0
O61 O 0.32013 0.6773 0.03111 0.0
C62 C 0.27899 0.75784 0.01698 0.0
C63 C 0.32385 0.83544 0.99659 0.0
O64 O 0.3213 0.81901 0.9813 0.0
O65 O 0.32618 0.83103 0.0171 0.0
O66 O 0.74706 0.20406 0.36345 0.0
Cd67 Cd 0.71358 0.18319 0.34373 0.0
O68 O 0.77295 0.18922 0.34483 0.0
Cd69 Cd 0.74864 0.16364 0.32696 0.0
O70 O 0.73396 0.12904 0.32277 0.0
C71 C 0.72173 0.12252 0.33763 0.0
O72 O 0.71719 0.13722 0.35367 0.0
C73 C 0.76751 0.20333 0.35988 0.0
C74 C 0.68021 0.21133 0.35173 0.0
O75 O 0.68504 0.19667 0.36521 0.0
O76 O 0.69013 0.21163 0.33369 0.0
O77 O 0.64136 0.65878 0.94904 0.0
Cd78 Cd 0.67869 0.65593 0.93642 0.0
O79 O 0.64803 0.69431 0.96126 0.0
Cd80 Cd 0.64243 0.72749 0.97682 0.0
O81 O 0.64866 0.76306 0.98911 0.0
C82 C 0.6345 0.77425 0.99859 0.0
O83 O 0.61481 0.76427 0.00147 0.0
C84 C 0.63459 0.6766 0.95802 0.0
C85 C 0.7061 0.63527 0.96651 0.0
O86 O 0.7063 0.65666 0.96747 0.0
O87 O 0.69294 0.62356 0.95122 0.0
O88 O 0.60997 0.43608 0.34612 0.0
Cd89 Cd 0.61504 0.3964 0.34891 0.0
O90 O 0.5817 0.43576 0.36707 0.0
Cd91 Cd 0.58306 0.40101 0.37427 0.0
O92 O 0.58433 0.37475 0.39698 0.0
C93 C 0.58289 0.3538 0.39135 0.0
O94 O 0.58059 0.34644 0.37 0.0
C95 C 0.59503 0.44627 0.35545 0.0
C96 C 0.60572 0.37109 0.30769 0.0
O97 O 0.59061 0.37309 0.32136 0.0
O98 O 0.62528 0.38104 0.31355 0.0
O99 O 0.97279 0.2163 0.73072 0.0
Cd100 Cd 0.96978 0.25672 0.73491 0.0
O101 O -0.00054 0.21936 0.70796 0.0
Cd102 Cd 0.9953 0.25415 0.7023 0.0
O103 O 0.98593 0.27766 0.67821 0.0
C104 C 0.96605 0.28335 0.6763 0.0
O105 O 0.95185 0.27631 0.69022 0.0
C106 C 0.98713 0.20736 0.71934 0.0
C107 C 0.96231 0.27087 0.77888 0.0
O108 O 0.94594 0.26544 0.76381 0.0
O109 O 0.98225 0.26978 0.77312 0.0
O110 O 0.33652 0.72778 0.17639 0.0
Cd111 Cd 0.3281 0.68717 0.17062 0.0
O112 O 0.32161 0.73534 0.14353 0.0
Cd113 Cd 0.31585 0.69997 0.13158 0.0
O114 O 0.32858 0.67397 0.11003 0.0
C115 C 0.3498 0.67433 0.11124 0.0
O116 O 0.36178 0.68876 0.12612 0.0
C117 C 0.33148 0.742 0.16275 0.0
C118 C 0.34191 0.6692 0.21018 0.0
O119 O 0.3552 0.67153 0.19479 0.0
O120 O 0.32193 0.67482 0.20658 0.0
O121 O 0.00708 0.57881 0.74491 0.0
Cd122 Cd 0.01024 0.61651 0.76423 0.0
O123 O 0.03352 0.56594 0.76648 0.0
Cd124 Cd 0.0398 0.59754 0.78773 0.0
O125 O 0.04357 0.62498 0.81441 0.0
C126 C 0.06205 0.62933 0.8265 0.0
O127 O 0.07892 0.61763 0.82216 0.0
C128 C 0.01867 0.56289 0.74989 0.0
C129 C 0.0184 0.64845 0.73423 0.0
O130 O 0.03454 0.64145 0.74623 0.0
O131 O 0.99838 0.64052 0.73659 0.0
O132 O 0.70218 0.38979 0.60529 0.0
Cd133 Cd 0.71415 0.38037 0.64288 0.0
O134 O 0.67225 0.40289 0.61784 0.0
Cd135 Cd 0.64099 0.41885 0.61488 0.0
O136 O 0.60851 0.43217 0.61628 0.0
C137 C 0.59728 0.43684 0.5987 0.0
O138 O 0.60563 0.43391 0.57926 0.0
C139 C 0.68382 0.39842 0.60157 0.0
C140 C 0.76059 0.38129 0.64976 0.0
O141 O 0.74873 0.36359 0.6408 0.0
O142 O 0.75046 0.3985 0.6555 0.0
O143 O 0.78524 0.72807 0.25665 0.0
Cd144 Cd 0.7841 0.75497 0.28918 0.0
O145 O 0.81523 0.71684 0.27392 0.0
Cd146 Cd 0.84366 0.69654 0.27638 0.0
O147 O 0.87036 0.67438 0.27383 0.0
C148 C 0.87451 0.66612 0.25461 0.0
O149 O 0.86255 0.67116 0.23673 0.0
C150 C 0.80032 0.71451 0.25736 0.0
C151 C 0.75055 0.73741 0.31354 0.0
O152 O 0.74665 0.75247 0.30022 0.0
O153 O 0.77047 0.73139 0.31598 0.0
O154 O 0.33328 0.06673 0.37626 0.0
Cd155 Cd 0.35225 0.07806 0.34414 0.0
O156 O 0.30617 0.05085 0.35199 0.0
Cd157 Cd 0.27325 0.03281 0.34219 0.0
O158 O 0.23876 0.01884 0.33277 0.0
C159 C 0.22676 0.01142 0.34742 0.0
O160 O 0.23554 0.01187 0.36824 0.0
C161 C 0.31392 0.05625 0.37225 0.0
C162 C 0.37226 0.04362 0.32215 0.0
O163 O 0.3841 0.05851 0.33567 0.0
O164 O 0.35109 0.04494 0.31923 0.0
O165 O 0.24306 0.97314 0.75988 0.0
Cd166 Cd 0.22415 0.95879 0.72327 0.0
O167 O 0.256 0.00427 0.74689 0.0
Cd168 Cd 0.28016 0.0338 0.75017 0.0
O169 O 0.31346 0.05113 0.75013 0.0
C170 C 0.32916 0.04523 0.76321 0.0
O171 O 0.32437 0.03008 0.77703 0.0
C172 C 0.25462 0.99201 0.76301 0.0
C173 C 0.17982 0.96897 0.71781 0.0
O174 O 0.18485 0.95106 0.72644 0.0
O175 O 0.19578 0.98205 0.71192 0.0
O176 O 0.59428 0.70772 0.46032 0.0
Cd177 Cd 0.63367 0.71556 0.47458 0.0
O178 O 0.60485 0.67462 0.45111 0.0
Cd179 Cd 0.60143 0.64003 0.43629 0.0
O180 O 0.60411 0.60465 0.42725 0.0
C181 C 0.61999 0.59883 0.41605 0.0
O182 O 0.63398 0.6144 0.40949 0.0
C183 C 0.58936 0.68774 0.45167 0.0
C184 C 0.65195 0.7568 0.46382 0.0
O185 O 0.65044 0.73944 0.44968 0.0
O186 O 0.64481 0.75467 0.4831 0.0
O187 O 0.74046 0.23754 0.9926 0.0
Cd188 Cd 0.70223 0.22337 0.99839 0.0
O189 O 0.73908 0.26681 0.01669 0.0
Cd190 Cd 0.75175 0.29995 0.03297 0.0
O191 O 0.761 0.33409 0.04842 0.0
C192 C 0.75212 0.35043 0.04026 0.0
O193 O 0.73765 0.34644 0.02244 0.0
C194 C 0.74975 0.25574 0.00284 0.0
C195 C 0.69893 0.17933 0.01006 0.0
O196 O 0.69803 0.1835 0.98946 0.0
O197 O 0.70156 0.19597 0.02513 0.0
O198 O 0.26227 0.79149 0.6326 0.0
Cd199 Cd 0.30196 0.79904 0.64579 0.0
O200 O 0.26205 0.82445 0.61978 0.0
Cd201 Cd 0.249 0.85188 0.60256 0.0
O202 O 0.24223 0.88414 0.59073 0.0
C203 C 0.2289 0.89616 0.60051 0.0
O204 O 0.21872 0.88846 0.61718 0.0
C205 C 0.25165 0.80578 0.62272 0.0
C206 C 0.32364 0.76089 0.63545 0.0
O207 O 0.31509 0.76394 0.65417 0.0
O208 O 0.32237 0.77615 0.62186 0.0
O209 O 0.36974 0.31508 0.11925 0.0
Cd210 Cd 0.33356 0.32961 0.12393 0.0
O211 O 0.35995 0.29732 0.08593 0.0
Cd212 Cd 0.36474 0.27293 0.05793 0.0
O213 O 0.36429 0.24237 0.03531 0.0
C214 C 0.34606 0.23433 0.02418 0.0
O215 O 0.3281 0.24516 0.02586 0.0
C216 C 0.3746 0.30273 0.10244 0.0
C217 C 0.31954 0.35509 0.08977 0.0
O218 O 0.33218 0.36416 0.10693 0.0
O219 O 0.31376 0.33399 0.08875 0.0
O220 O 0.37127 0.65121 0.6974 0.0
Cd221 Cd 0.37383 0.68974 0.71441 0.0
O222 O 0.39544 0.66104 0.67388 0.0
Cd223 Cd 0.41282 0.65396 0.64406 0.0
O224 O 0.4167 0.64703 0.60861 0.0
C225 C 0.41806 0.62731 0.59974 0.0
O226 O 0.41852 0.61067 0.61254 0.0
C227 C 0.383 0.64588 0.68151 0.0
C228 C 0.38951 0.68973 0.7593 0.0
O229 O 0.36845 0.68782 0.7532 0.0
O230 O 0.40313 0.69228 0.74422 0.0
O231 O 0.01981 0.75057 0.26128 0.0
Cd232 Cd 0.01848 0.71097 0.2478 0.0
O233 O 0.02456 0.7434 0.29645 0.0
Cd234 Cd 0.03132 0.75232 0.33259 0.0
O235 O 0.0368 0.75795 0.36908 0.0
C236 C 0.02891 0.77425 0.37968 0.0
O237 O 0.01757 0.78802 0.36837 0.0
C238 C 0.0226 0.75752 0.28197 0.0
C239 C 0.03158 0.70767 0.20437 0.0
O240 O 0.01081 0.70743 0.20775 0.0
O241 O 0.046 0.70895 0.22148 0.0
O242 O 0.62482 0.25223 0.80309 0.0
Cd243 Cd 0.65569 0.27996 0.79861 0.0
O244 O 0.62456 0.25476 0.83978 0.0
Cd245 Cd 0.61079 0.24624 0.87081 0.0
O246 O 0.59956 0.24836 0.90451 0.0
C247 C 0.6016 0.23279 0.91736 0.0
O248 O 0.61022 0.21449 0.91003 0.0
C249 C 0.61661 0.24588 0.82054 0.0
C250 C 0.655 0.28189 0.75243 0.0
O251 O 0.66633 0.26784 0.76227 0.0
O252 O 0.645 0.29572 0.76459 0.0
O253 O 0.0259 0.36296 0.29601 0.0
Cd254 Cd 0.04315 0.33154 0.31144 0.0
O255 O 0.016 0.3464 0.26222 0.0
Cd256 Cd 0.00125 0.34428 0.2274 0.0
O257 O 0.98996 0.34043 0.1916 0.0
C258 C 0.98574 0.35732 0.18114 0.0
O259 O 0.98791 0.3773 0.19219 0.0
C260 C 0.01705 0.36369 0.27615 0.0
C261 C 0.02802 0.32485 0.35314 0.0
O262 O 0.04408 0.3398 0.35134 0.0
O263 O 0.01941 0.31291 0.33534 0.0
H264 H 0.34429 0.6137 0.54798 0.0
H265 H 0.36094 0.54655 0.55536 0.0
H266 H 0.37329 0.59612 0.61153 0.0
C267 C 0.35138 0.60159 0.55819 0.0
C268 C 0.3591 0.60795 0.58083 0.0
C269 C 0.35172 0.57938 0.54895 0.0
C270 C 0.36012 0.56356 0.56253 0.0
C271 C 0.36757 0.56955 0.58517 0.0
C272 C 0.36719 0.59169 0.59411 0.0
N273 N 0.37525 0.55357 0.59936 0.0
C274 C 0.37231 0.53068 0.59314 0.0
H275 H 0.27034 0.40987 0.94059 0.0
H276 H 0.25516 0.46707 0.90577 0.0
H277 H 0.27325 0.47499 0.97689 0.0
C278 C 0.26822 0.42761 0.94082 0.0
C279 C 0.27205 0.4412 0.96121 0.0
C280 C 0.26214 0.43666 0.9207 0.0
C281 C 0.26021 0.45977 0.92107 0.0
C282 C 0.26443 0.47371 0.94109 0.0
C283 C 0.27042 0.4644 0.96124 0.0
N284 N 0.26203 0.49689 0.94022 0.0
C285 C 0.2678 0.51322 0.95798 0.0
H286 H 0.70794 0.92307 0.45699 0.0
H287 H 0.71371 0.97101 0.40817 0.0
H288 H 0.70201 0.90098 0.38656 0.0
C289 C 0.70806 0.92681 0.43972 0.0
C290 C 0.70401 0.9092 0.4225 0.0
C291 C 0.71188 0.94923 0.43484 0.0
C292 C 0.71149 0.95383 0.41223 0.0
C293 C 0.70786 0.93637 0.39484 0.0
C294 C 0.70452 0.91425 0.40013 0.0
N295 N 0.70703 0.94047 0.37186 0.0
C296 C 0.70685 0.96177 0.36462 0.0
H297 H 0.69436 0.0304 0.08596 0.0
H298 H 0.67824 0.95962 0.06946 0.0
H299 H 0.67087 0.00493 0.01826 0.0
C300 C 0.68821 0.01652 0.07371 0.0
C301 C 0.68275 0.02055 0.05132 0.0
C302 C 0.68651 0.99467 0.08042 0.0
C303 C 0.67959 0.97649 0.06435 0.0
C304 C 0.67399 0.98028 0.04184 0.0
C305 C 0.67556 0.00223 0.03556 0.0
N306 N 0.66651 0.96262 0.02499 0.0
C307 C 0.6643 0.93996 0.02828 0.0
H308 H 0.56479 0.26633 0.60447 0.0
H309 H 0.56295 0.25131 0.533 0.0
H310 H 0.62376 0.24742 0.57491 0.0
C311 C 0.573 0.26158 0.58965 0.0
C312 C 0.59574 0.25781 0.59214 0.0
C313 C 0.56086 0.25929 0.56845 0.0
C314 C 0.57184 0.25267 0.54956 0.0
C315 C 0.59446 0.24808 0.55192 0.0
C316 C 0.60618 0.25028 0.57326 0.0
N317 N 0.60604 0.24241 0.53294 0.0
C318 C 0.60205 0.25233 0.51313 0.0
H319 H 0.1181 0.71528 0.06172 0.0
H320 H 0.10516 0.73006 0.9932 0.0
H321 H 0.05116 0.72404 0.03503 0.0
C322 C 0.10665 0.71908 0.04798 0.0
C323 C 0.08382 0.71966 0.05119 0.0
C324 C 0.11485 0.72342 0.02737 0.0
C325 C 0.09938 0.72645 0.0092 0.0
C326 C 0.07635 0.72603 0.01189 0.0
C327 C 0.06881 0.72331 0.03297 0.0
N328 N 0.06045 0.72892 0.99381 0.0
C329 C 0.06308 0.72148 0.97176 0.0
H330 H 0.90982 0.29085 0.43974 0.0
H331 H 0.86388 0.31314 0.4861 0.0
H332 H 0.93392 0.336 0.49764 0.0
C333 C 0.9067 0.30009 0.45527 0.0
C334 C 0.92454 0.31302 0.46807 0.0
C335 C 0.88477 0.29976 0.46158 0.0
C336 C 0.88068 0.31312 0.48085 0.0
C337 C 0.89835 0.32584 0.49406 0.0
C338 C 0.92032 0.32583 0.48765 0.0
N339 N 0.89362 0.33873 0.51361 0.0
C340 C 0.90558 0.33753 0.53417 0.0
H341 H 0.47376 0.67278 0.9167 0.0
H342 H 0.4608 0.6324 0.97097 0.0
H343 H 0.41159 0.63147 0.91497 0.0
C344 C 0.46273 0.66127 0.92456 0.0
C345 C 0.44153 0.65372 0.91364 0.0
C346 C 0.47009 0.65348 0.94512 0.0
C347 C 0.45552 0.63854 0.95511 0.0
C348 C 0.43442 0.63072 0.94417 0.0
C349 C 0.4277 0.63807 0.92344 0.0
N350 N 0.42004 0.61467 0.95322 0.0
C351 C 0.4152 0.61699 0.9754 0.0
H352 H 0.63052 0.61914 0.35909 0.0
H353 H 0.55923 0.61365 0.36099 0.0
H354 H 0.59427 0.678 0.35711 0.0
C355 C 0.61495 0.62697 0.35878 0.0
C356 C 0.61515 0.65028 0.35751 0.0
C357 C 0.59483 0.61358 0.35976 0.0
C358 C 0.57482 0.62391 0.36064 0.0
C359 C 0.57476 0.64726 0.36029 0.0
C360 C 0.59482 0.66021 0.35842 0.0
N361 N 0.55469 0.65808 0.36126 0.0
C362 C 0.53413 0.64645 0.36332 0.0
H363 H 0.03352 0.0449 0.70896 0.0
H364 H 0.96219 0.03188 0.69557 0.0
H365 H 0.00377 0.97705 0.69478 0.0
C366 C 0.01883 0.03311 0.7047 0.0
C367 C 0.02135 0.01009 0.70184 0.0
C368 C 0.9976 0.04112 0.70246 0.0
C369 C 0.97857 0.02573 0.69758 0.0
C370 C 0.98077 0.00253 0.69489 0.0
C371 C 0.00215 0.99487 0.69727 0.0
N372 N 0.96192 0.98656 0.6893 0.0
C373 C 0.94073 0.99236 0.6823 0.0
H374 H 0.39691 0.90706 0.22048 0.0
H375 H 0.43687 0.88353 0.16908 0.0
H376 H 0.45956 0.94384 0.21107 0.0
C377 C 0.41206 0.90893 0.21201 0.0
C378 C 0.42785 0.92753 0.21815 0.0
C379 C 0.41526 0.89285 0.19458 0.0
C380 C 0.43411 0.89585 0.18256 0.0
C381 C 0.45011 0.91409 0.18842 0.0
C382 C 0.44706 0.92984 0.20636 0.0
N383 N 0.4691 0.91597 0.17598 0.0
C384 C 0.48864 0.92946 0.18329 0.0
H385 H 0.93179 0.42244 0.6791 0.0
H386 H 0.99342 0.39113 0.68259 0.0
H387 H 0.93075 0.35092 0.66647 0.0
C388 C 0.94058 0.40747 0.6776 0.0
C389 C 0.92832 0.38653 0.67207 0.0
C390 C 0.96404 0.40928 0.68163 0.0
C391 C 0.97534 0.38978 0.67976 0.0
C392 C 0.96328 0.36869 0.674 0.0
C393 C 0.93991 0.36725 0.67023 0.0
N394 N 0.97399 0.34856 0.67209 0.0
C395 C 0.9967 0.3473 0.67762 0.0
H396 H 0.63666 0.35458 0.44212 0.0
H397 H 0.64666 0.42344 0.42885 0.0
H398 H 0.64565 0.37183 0.37499 0.0
C399 C 0.63909 0.36689 0.43021 0.0
C400 C 0.6406 0.35993 0.40746 0.0
C401 C 0.64178 0.38969 0.43809 0.0
C402 C 0.64456 0.40585 0.42278 0.0
C403 C 0.64537 0.39926 0.39988 0.0
C404 C 0.6438 0.37646 0.39249 0.0
N405 N 0.64867 0.41507 0.38395 0.0
C406 C 0.64651 0.43777 0.38831 0.0
H407 H 0.78269 0.60713 0.10963 0.0
H408 H 0.78798 0.56092 0.16027 0.0
H409 H 0.77426 0.53624 0.09077 0.0
C410 C 0.78247 0.59012 0.11435 0.0
C411 C 0.77812 0.57218 0.09761 0.0
C412 C 0.78582 0.58641 0.13707 0.0
C413 C 0.78565 0.56424 0.14284 0.0
C414 C 0.78179 0.54609 0.12634 0.0
C415 C 0.77772 0.55009 0.10366 0.0
N416 N 0.78175 0.52413 0.13336 0.0
C417 C 0.77884 0.50454 0.119 0.0
H418 H 0.24863 0.11485 0.49294 0.0
H419 H 0.23229 0.05653 0.52659 0.0
H420 H 0.23969 0.12163 0.5635 0.0
C421 C 0.24459 0.10758 0.50817 0.0
C422 C 0.24515 0.12134 0.52832 0.0
C423 C 0.24044 0.08427 0.50759 0.0
C424 C 0.2353 0.07457 0.52713 0.0
C425 C 0.23424 0.08823 0.5472 0.0
C426 C 0.23932 0.11149 0.54768 0.0
N427 N 0.22903 0.0791 0.56738 0.0
C428 C 0.22694 0.05626 0.56974 0.0
H429 H 0.3172 0.98047 0.91616 0.0
H430 H 0.32029 0.05199 0.93089 0.0
H431 H 0.3237 0.00911 0.98457 0.0
C432 C 0.3188 0.99504 0.92828 0.0
C433 C 0.32063 0.99204 0.95122 0.0
C434 C 0.31855 0.01651 0.9207 0.0
C435 C 0.32051 0.03537 0.93653 0.0
C436 C 0.32268 0.03259 0.95964 0.0
C437 C 0.32258 0.01101 0.96675 0.0
N438 N 0.32461 0.0509 0.97641 0.0
C439 C 0.32718 0.0734 0.97265 0.0
H440 H 0.43272 0.6493 0.3607 0.0
H441 H 0.42193 0.6232 0.42372 0.0
H442 H 0.37019 0.61208 0.36938 0.0
C443 C 0.42205 0.64027 0.37119 0.0
C444 C 0.40032 0.63161 0.36244 0.0
C445 C 0.43016 0.63715 0.39326 0.0
C446 C 0.41603 0.62538 0.40661 0.0
C447 C 0.39439 0.61633 0.39798 0.0
C448 C 0.38676 0.6194 0.37596 0.0
N449 N 0.38002 0.60393 0.41101 0.0
C450 C 0.38436 0.60379 0.43404 0.0
H451 H 0.89744 0.29394 0.93294 0.0
H452 H 0.91645 0.32585 0.99943 0.0
H453 H 0.96247 0.32984 0.94879 0.0
C454 C 0.90944 0.30415 0.94482 0.0
C455 C 0.93035 0.31156 0.93796 0.0
C456 C 0.90403 0.30937 0.96688 0.0
C457 C 0.92039 0.32144 0.98247 0.0
C458 C 0.94161 0.32848 0.97598 0.0
C459 C 0.9463 0.32379 0.95374 0.0
N460 N 0.95854 0.34062 0.99125 0.0
C461 C 0.95786 0.34267 0.01438 0.0
H462 H 0.09231 0.74866 0.6253 0.0
H463 H 0.07587 0.78359 0.56753 0.0
H464 H 0.02329 0.75518 0.60353 0.0
C465 C 0.07979 0.75464 0.6138 0.0
C466 C 0.05695 0.75024 0.61667 0.0
C467 C 0.08676 0.7669 0.59635 0.0
C468 C 0.07059 0.77425 0.58112 0.0
C469 C 0.04764 0.76969 0.58357 0.0
C470 C 0.041 0.75814 0.60154 0.0
N471 N 0.03084 0.77657 0.56832 0.0
C472 C 0.03406 0.77957 0.54612 0.0
H473 H 0.53125 0.29428 0.15831 0.0
H474 H 0.54518 0.26606 0.09343 0.0
H475 H 0.59922 0.28597 0.14464 0.0
C476 C 0.54319 0.28853 0.14709 0.0
C477 C 0.56612 0.29111 0.15434 0.0
C478 C 0.53546 0.27933 0.12527 0.0
C479 C 0.55106 0.27313 0.11028 0.0
C480 C 0.57415 0.27558 0.11735 0.0
C481 C 0.58146 0.28441 0.13932 0.0
N482 N 0.59056 0.26918 0.10302 0.0
C483 C 0.58626 0.26271 0.08023 0.0
H484 H 0.35345 0.47281 0.6545 0.0
H485 H 0.41286 0.48271 0.61967 0.0
H486 H 0.3788 0.41712 0.61852 0.0
C487 C 0.36568 0.46639 0.64402 0.0
C488 C 0.36377 0.4434 0.63698 0.0
C489 C 0.38322 0.48098 0.63788 0.0
C490 C 0.39958 0.47186 0.62525 0.0
C491 C 0.39802 0.44875 0.61855 0.0
C492 C 0.38012 0.43478 0.62434 0.0
N493 N 0.41337 0.43912 0.60482 0.0
C494 C 0.43537 0.44782 0.6042 0.0
H495 H 0.97614 0.91284 0.30759 0.0
H496 H 0.04591 0.93616 0.31014 0.0
H497 H 0.99605 0.98309 0.30588 0.0
C498 C 0.98912 0.92652 0.30788 0.0
C499 C 0.98316 0.94852 0.30676 0.0
C500 C 0.01167 0.92189 0.30886 0.0
C501 C 0.0285 0.93965 0.30931 0.0
C502 C 0.02278 0.96181 0.30857 0.0
C503 C 0.00021 0.96603 0.30709 0.0
N504 N 0.03917 0.98028 0.30891 0.0
C505 C 0.0621 0.97898 0.31268 0.0
H506 H 0.58191 0.11676 0.73477 0.0
H507 H 0.51503 0.09737 0.75032 0.0
H508 H 0.54028 0.06637 0.69153 0.0
C509 C 0.56642 0.10599 0.73107 0.0
C510 C 0.56333 0.09125 0.71147 0.0
C511 C 0.54906 0.10826 0.74509 0.0
C512 C 0.52848 0.09535 0.73963 0.0
C513 C 0.52545 0.07994 0.72039 0.0
C514 C 0.54288 0.07801 0.70649 0.0
N515 N 0.50504 0.06641 0.71416 0.0
C516 C 0.48556 0.06838 0.72475 0.0
H517 H 0.05869 0.50571 0.27755 0.0
H518 H 0.00795 0.53951 0.2432 0.0
H519 H 0.07269 0.57451 0.26447 0.0
C520 C 0.05334 0.52089 0.27107 0.0
C521 C 0.06832 0.54024 0.27277 0.0
C522 C 0.03172 0.52052 0.26038 0.0
C523 C 0.02467 0.53985 0.25153 0.0
C524 C 0.03956 0.55941 0.25309 0.0
C525 C 0.06139 0.55937 0.26331 0.0
N526 N 0.03318 0.57934 0.24438 0.0
C527 C 0.01141 0.58544 0.24381 0.0
H528 H 0.1809 0.49593 0.34847 0.0
H529 H 0.10837 0.55794 0.25984 0.0
H530 H 0.2106 0.54284 0.30647 0.0
H531 H 0.08032 0.52186 0.31158 0.0
H532 H 0.146 0.55367 0.27698 0.0
H533 H 0.14388 0.5057 0.33518 0.0
C534 C 0.17964 0.50835 0.33649 0.0
C535 C 0.19886 0.51848 0.32846 0.0
C536 C 0.13158 0.54686 0.28467 0.0
C537 C 0.15646 0.52972 0.31307 0.0
C538 C 0.11011 0.54939 0.27496 0.0
C539 C 0.09117 0.53997 0.28411 0.0
C540 C 0.13409 0.53474 0.30357 0.0
C541 C 0.09444 0.52893 0.30364 0.0
C542 C 0.15848 0.51399 0.32896 0.0
C543 C 0.19621 0.53458 0.31306 0.0
N544 N 0.11545 0.52645 0.31258 0.0
N545 N 0.17537 0.53957 0.30571 0.0
H546 H 0.28031 0.33729 0.68571 0.0
H547 H 0.31964 0.45165 0.63537 0.0
H548 H 0.23703 0.38963 0.6739 0.0
H549 H 0.36391 0.40108 0.6508 0.0
H550 H 0.28829 0.42754 0.64601 0.0
H551 H 0.31007 0.35856 0.66911 0.0
C552 C 0.27697 0.35314 0.6794 0.0
C553 C 0.25619 0.36178 0.68136 0.0
C554 C 0.30484 0.42167 0.647 0.0
C555 C 0.29026 0.3863 0.66251 0.0
C556 C 0.32277 0.43549 0.64108 0.0
C557 C 0.34448 0.4285 0.64251 0.0
C558 C 0.30861 0.40067 0.65443 0.0
C559 C 0.34745 0.40714 0.64943 0.0
C560 C 0.294 0.36531 0.66998 0.0
C561 C 0.25282 0.38238 0.67285 0.0
N562 N 0.32975 0.39405 0.65528 0.0
N563 N 0.26973 0.39401 0.66395 0.0
H564 H 0.68853 0.10045 0.64942 0.0
H565 H 0.55747 0.09156 0.6659 0.0
H566 H 0.63746 0.1147 0.59913 0.0
H567 H 0.60887 0.09129 0.72043 0.0
H568 H 0.58647 0.09489 0.63996 0.0
H569 H 0.65944 0.0924 0.6745 0.0
C570 C 0.6712 0.1018 0.64361 0.0
C571 C 0.66542 0.10838 0.62218 0.0
C572 C 0.59142 0.09397 0.65758 0.0
C573 C 0.63209 0.09909 0.65074 0.0
C574 C 0.57486 0.09186 0.67237 0.0
C575 C 0.58076 0.09117 0.69538 0.0
C576 C 0.61409 0.09532 0.6658 0.0
C577 C 0.6036 0.092 0.70285 0.0
C578 C 0.65462 0.09724 0.65795 0.0
C579 C 0.6427 0.10983 0.61555 0.0
N580 N 0.61944 0.09407 0.68811 0.0
N581 N 0.62688 0.10523 0.62977 0.0
H582 H 0.83864 0.93739 0.28165 0.0
H583 H 0.96387 0.98442 0.32603 0.0
H584 H 0.85715 0.00686 0.30502 0.0
H585 H 0.94758 0.92316 0.28269 0.0
H586 H 0.92443 0.99168 0.32199 0.0
H587 H 0.87817 0.93044 0.28574 0.0
C588 C 0.85101 0.95118 0.28768 0.0
C589 C 0.8446 0.97275 0.29298 0.0
C590 C 0.92955 0.97667 0.31337 0.0
C591 C 0.88983 0.96488 0.2978 0.0
C592 C 0.95208 0.97254 0.31558 0.0
C593 C 0.95916 0.95311 0.30471 0.0
C594 C 0.9139 0.96117 0.3004 0.0
C595 C 0.94294 0.93814 0.29174 0.0
C596 C 0.87357 0.94721 0.28993 0.0
C597 C 0.86137 0.98999 0.30067 0.0
N598 N 0.9211 0.94245 0.29001 0.0
N599 N 0.88322 0.98566 0.30295 0.0
H600 H 0.31317 0.24594 0.49959 0.0
H601 H 0.23277 0.15792 0.5542 0.0
H602 H 0.29732 0.25802 0.56806 0.0
H603 H 0.27832 0.13983 0.50517 0.0
H604 H 0.24903 0.19698 0.55586 0.0
H605 H 0.29181 0.20936 0.49706 0.0
C606 C 0.30498 0.24103 0.51402 0.0
C607 C 0.30724 0.25495 0.53415 0.0
C608 C 0.25519 0.18434 0.54464 0.0
C609 C 0.28273 0.21311 0.5313 0.0
C610 C 0.24603 0.16205 0.54374 0.0
C611 C 0.2539 0.1454 0.5293 0.0
C612 C 0.27202 0.19002 0.53077 0.0
C613 C 0.27105 0.15195 0.51602 0.0
C614 C 0.29287 0.22011 0.51258 0.0
C615 C 0.29617 0.24769 0.55229 0.0
N616 N 0.27939 0.17367 0.517 0.0
N617 N 0.28441 0.22717 0.55048 0.0
H618 H 0.33715 0.87422 0.02345 0.0
H619 H 0.29501 0.95402 0.93259 0.0
H620 H 0.30984 0.84977 0.9563 0.0
H621 H 0.34501 0.97752 0.98721 0.0
H622 H 0.29595 0.91612 0.94386 0.0
H623 H 0.336 0.91274 0.01315 0.0
C624 C 0.33092 0.87695 0.00656 0.0
C625 C 0.32363 0.85878 0.99068 0.0
C626 C 0.30673 0.92958 0.95336 0.0
C627 C 0.32202 0.90265 0.97894 0.0
C628 C 0.30631 0.95125 0.94687 0.0
C629 C 0.3202 0.96906 0.95876 0.0
C630 C 0.32088 0.92562 0.97208 0.0
C631 C 0.3339 0.96441 0.97761 0.0
C632 C 0.33032 0.8989 0.0007 0.0
C633 C 0.31572 0.86327 0.96904 0.0
N634 N 0.3339 0.94313 0.98369 0.0
N635 N 0.31501 0.88475 0.96384 0.0
H636 H 0.66375 0.24276 0.32592 0.0
H637 H 0.65487 0.32554 0.43123 0.0
H638 H 0.66531 0.22139 0.39276 0.0
H639 H 0.62602 0.33822 0.36561 0.0
H640 H 0.65698 0.28688 0.41747 0.0
H641 H 0.64801 0.27703 0.33947 0.0
C642 C 0.66034 0.24504 0.34333 0.0
C643 C 0.66616 0.22935 0.35831 0.0
C644 C 0.64992 0.29808 0.40616 0.0
C645 C 0.6486 0.26865 0.37397 0.0
C646 C 0.64855 0.32032 0.41405 0.0
C647 C 0.6404 0.33564 0.39962 0.0
C648 C 0.64368 0.29103 0.3835 0.0
C649 C 0.63311 0.32746 0.37732 0.0
C650 C 0.65135 0.26461 0.35106 0.0
C651 C 0.66126 0.23312 0.38066 0.0
N652 N 0.63526 0.30584 0.36987 0.0
N653 N 0.65319 0.2526 0.38792 0.0
H654 H 0.74015 0.65518 0.99629 0.0
H655 H 0.80106 0.60127 0.07341 0.0
H656 H 0.70406 0.59091 0.97446 0.0
H657 H 0.74199 0.55467 0.06885 0.0
H658 H 0.78734 0.61525 0.03831 0.0
H659 H 0.7616 0.63785 0.02513 0.0
C660 C 0.73696 0.63732 0.99737 0.0
C661 C 0.72027 0.62448 0.98297 0.0
C662 C 0.7773 0.60202 0.04497 0.0
C663 C 0.74517 0.60429 0.01578 0.0
C664 C 0.78527 0.59386 0.06484 0.0
C665 C 0.77241 0.57712 0.07421 0.0
C666 C 0.75615 0.59359 0.03455 0.0
C667 C 0.75233 0.56771 0.06223 0.0
C668 C 0.74945 0.62733 0.0137 0.0
C669 C 0.71682 0.60142 0.9852 0.0
N670 N 0.74463 0.5763 0.04312 0.0
N671 N 0.72896 0.5921 0.00153 0.0
H672 H 0.56793 0.34364 0.29266 0.0
H673 H 0.60287 0.32097 0.16812 0.0
H674 H 0.63189 0.36857 0.27253 0.0
H675 H 0.54688 0.28443 0.19334 0.0
H676 H 0.61363 0.33917 0.20587 0.0
H677 H 0.55941 0.32278 0.25585 0.0
C678 C 0.58021 0.3447 0.28051 0.0
C679 C 0.60063 0.35792 0.28566 0.0
C680 C 0.59906 0.32707 0.20314 0.0
C681 C 0.59094 0.33412 0.24342 0.0
C682 C 0.59297 0.31657 0.1816 0.0
C683 C 0.57382 0.30124 0.17745 0.0
C684 C 0.58584 0.32233 0.22064 0.0
C685 C 0.5615 0.29646 0.1956 0.0
C686 C 0.57536 0.33273 0.25951 0.0
C687 C 0.61594 0.35859 0.26927 0.0
N688 N 0.56763 0.30707 0.21632 0.0
N689 N 0.61073 0.34697 0.24884 0.0
H690 H 0.993 0.27896 0.81568 0.0
H691 H 0.90223 0.31215 0.89969 0.0
H692 H 0.9224 0.27871 0.79545 0.0
H693 H 0.9698 0.29982 0.92211 0.0
H694 H 0.91017 0.30289 0.86105 0.0
H695 H 0.98569 0.28971 0.85438 0.0
C696 C 0.97597 0.28123 0.81935 0.0
C697 C 0.95827 0.27788 0.80229 0.0
C698 C 0.92327 0.3022 0.87441 0.0
C699 C 0.94981 0.29022 0.84654 0.0
C700 C 0.91872 0.30738 0.89653 0.0
C701 C 0.93531 0.30661 0.91428 0.0
C702 C 0.94463 0.29631 0.86987 0.0
C703 C 0.95654 0.30084 0.90901 0.0
C704 C 0.97181 0.28731 0.84146 0.0
C705 C 0.93655 0.28104 0.80806 0.0
N706 N 0.96057 0.29588 0.8873 0.0
N707 N 0.93295 0.28705 0.82967 0.0
H708 H 0.31806 0.66346 0.2464 0.0
H709 H 0.42272 0.63073 0.32431 0.0
H710 H 0.38353 0.657 0.22348 0.0
H711 H 0.35819 0.64133 0.34775 0.0
H712 H 0.4082 0.63809 0.28672 0.0
H713 H 0.33187 0.65273 0.28295 0.0
C714 C 0.33531 0.65965 0.249 0.0
C715 C 0.34968 0.66122 0.23187 0.0
C716 C 0.3972 0.63871 0.30008 0.0
C717 C 0.36567 0.64902 0.27377 0.0
C718 C 0.40551 0.63461 0.32159 0.0
C719 C 0.39168 0.6354 0.33929 0.0
C720 C 0.37488 0.64369 0.29618 0.0
C721 C 0.36941 0.64023 0.33462 0.0
C722 C 0.34321 0.65356 0.26991 0.0
C723 C 0.37187 0.65605 0.23622 0.0
N724 N 0.36175 0.64425 0.31357 0.0
N725 N 0.37921 0.65027 0.25677 0.0
H726 H 0.98967 0.65947 0.69995 0.0
H727 H 0.07687 0.75186 0.65972 0.0
H728 H 0.05717 0.67474 0.73105 0.0
H729 H 0.02098 0.71865 0.61613 0.0
H730 H 0.0668 0.72813 0.68898 0.0
H731 H 0.99789 0.68567 0.67202 0.0
C732 C 0.00617 0.66843 0.70099 0.0
C733 C 0.0228 0.66486 0.71779 0.0
C734 C 0.05673 0.72611 0.67302 0.0
C735 C 0.03221 0.6949 0.68605 0.0
C736 C 0.06251 0.73956 0.65623 0.0
C737 C 0.04994 0.73711 0.63523 0.0
C738 C 0.03807 0.71022 0.66897 0.0
C739 C 0.0311 0.72131 0.63205 0.0
C740 C 0.01085 0.6833 0.68501 0.0
C741 C 0.0439 0.67689 0.71831 0.0
N742 N 0.02576 0.70843 0.64871 0.0
N743 N 0.04799 0.69141 0.70269 0.0
H744 H 0.78966 0.41352 0.67405 0.0
H745 H 0.90019 0.35898 0.64094 0.0
H746 H 0.78768 0.35043 0.63362 0.0
H747 H 0.89957 0.4101 0.69581 0.0
H748 H 0.85926 0.357 0.63578 0.0
H749 H 0.83041 0.41431 0.67968 0.0
C750 C 0.7978 0.39983 0.66634 0.0
C751 C 0.78525 0.38187 0.65336 0.0
C752 C 0.86813 0.36862 0.64895 0.0
C753 C 0.83191 0.38273 0.65965 0.0
C754 C 0.89149 0.36969 0.65199 0.0
C755 C 0.90343 0.38483 0.66877 0.0
C756 C 0.85663 0.3829 0.66266 0.0
C757 C 0.8912 0.39852 0.68235 0.0
C758 C 0.82106 0.40026 0.66962 0.0
C759 C 0.7967 0.36457 0.64381 0.0
N760 N 0.86852 0.39729 0.67893 0.0
N761 N 0.81941 0.36547 0.64706 0.0
H762 H 0.74908 0.69591 0.32857 0.0
H763 H 0.62832 0.69474 0.37219 0.0
H764 H 0.71018 0.75255 0.3224 0.0
H765 H 0.65057 0.63734 0.33485 0.0
H766 H 0.66206 0.71709 0.36397 0.0
H767 H 0.71686 0.67512 0.342 0.0
C768 C 0.7339 0.70411 0.33042 0.0
C769 C 0.7322 0.72592 0.32425 0.0
C770 C 0.65946 0.69953 0.35782 0.0
C771 C 0.69556 0.70235 0.33977 0.0
C772 C 0.64015 0.68673 0.36231 0.0
C773 C 0.63631 0.66396 0.35417 0.0
C774 C 0.67534 0.68938 0.34563 0.0
C775 C 0.65278 0.65458 0.34198 0.0
C776 C 0.71554 0.6922 0.33794 0.0
C777 C 0.71208 0.7357 0.32684 0.0
N778 N 0.67156 0.66729 0.33819 0.0
N779 N 0.69447 0.72383 0.33446 0.0
H780 H 0.3538 0.00139 0.30818 0.0
H781 H 0.43851 0.97331 0.22133 0.0
H782 H 0.41418 0.04538 0.30766 0.0
H783 H 0.40766 0.92104 0.25683 0.0
H784 H 0.42786 0.0012 0.24954 0.0
H785 H 0.37044 0.9725 0.28547 0.0
C786 C 0.3706 0.00489 0.30335 0.0
C787 C 0.38268 0.02571 0.30973 0.0
C788 C 0.42368 0.98357 0.25116 0.0
C789 C 0.40152 0.99309 0.28351 0.0
C790 C 0.42983 0.96758 0.23514 0.0
C791 C 0.42369 0.94466 0.23638 0.0
C792 C 0.41091 0.97663 0.2682 0.0
C793 C 0.41213 0.93847 0.25464 0.0
C794 C 0.3801 0.98842 0.29053 0.0
C795 C 0.40441 0.02945 0.30312 0.0
N796 N 0.40576 0.95436 0.26958 0.0
N797 N 0.41305 0.01338 0.29 0.0
H798 H 0.16374 0.00418 0.69768 0.0
H799 H 0.03639 0.97412 0.72219 0.0
H800 H 0.14231 0.94611 0.7307 0.0
H801 H 0.05831 0.02828 0.68411 0.0
H802 H 0.07476 0.96306 0.7253 0.0
H803 H 0.12496 0.01309 0.69277 0.0
C804 C 0.15087 0.99328 0.70391 0.0
C805 C 0.1563 0.97439 0.71466 0.0
C806 C 0.07113 0.97733 0.71622 0.0
C807 C 0.11173 0.98452 0.70909 0.0
C808 C 0.04922 0.98357 0.71435 0.0
C809 C 0.04417 0.00229 0.70307 0.0
C810 C 0.08807 0.98989 0.70673 0.0
C811 C 0.0615 0.01402 0.69337 0.0
C812 C 0.12869 0.99836 0.70105 0.0
C813 C 0.13888 0.96086 0.72232 0.0
N814 N 0.08263 0.00769 0.6955 0.0
N815 N 0.11737 0.96622 0.71944 0.0
H816 H 0.66913 0.79328 0.4922 0.0
H817 H 0.6744 0.87689 0.39839 0.0
H818 H 0.65602 0.77021 0.42198 0.0
H819 H 0.71969 0.88785 0.45886 0.0
H820 H 0.66366 0.8392 0.40796 0.0
H821 H 0.6837 0.82992 0.48179 0.0
C822 C 0.66934 0.79593 0.47462 0.0
C823 C 0.66134 0.77875 0.4579 0.0
C824 C 0.67606 0.84986 0.41902 0.0
C825 C 0.67765 0.8205 0.44599 0.0
C826 C 0.68237 0.87138 0.41352 0.0
C827 C 0.69809 0.88577 0.42778 0.0
C828 C 0.68509 0.84273 0.43917 0.0
C829 C 0.70721 0.87765 0.44752 0.0
C830 C 0.67775 0.81675 0.46872 0.0
C831 C 0.66208 0.783 0.43538 0.0
N832 N 0.70041 0.85675 0.45274 0.0
N833 N 0.66986 0.80356 0.43006 0.0
H834 H 0.69355 0.16506 0.05148 0.0
H835 H 0.69713 0.03524 0.01232 0.0
H836 H 0.69917 0.14045 0.9828 0.0
H837 H 0.67289 0.05919 0.07478 0.0
H838 H 0.70082 0.07372 0.00197 0.0
H839 H 0.68932 0.12641 0.0613 0.0
C840 C 0.69395 0.15153 0.03847 0.0
C841 C 0.6967 0.156 0.01627 0.0
C842 C 0.69465 0.07051 0.01791 0.0
C843 C 0.69192 0.1117 0.02743 0.0
C844 C 0.69241 0.04851 0.0238 0.0
C845 C 0.68471 0.04385 0.04451 0.0
C846 C 0.68935 0.08807 0.03289 0.0
C847 C 0.67927 0.06191 0.05883 0.0
C848 C 0.69145 0.12946 0.04407 0.0
C849 C 0.69704 0.13778 0.00011 0.0
N850 N 0.68178 0.08318 0.05279 0.0
N851 N 0.69475 0.11643 0.00602 0.0
H852 H 0.34302 0.74935 0.59702 0.0
H853 H 0.34916 0.62204 0.62332 0.0
H854 H 0.32654 0.72429 0.6594 0.0
H855 H 0.36636 0.64726 0.56117 0.0
H856 H 0.34514 0.66017 0.63848 0.0
H857 H 0.35562 0.713 0.58525 0.0
C858 C 0.34224 0.73627 0.60834 0.0
C859 C 0.33349 0.7398 0.62913 0.0
C860 C 0.34992 0.65739 0.62156 0.0
C861 C 0.34776 0.69807 0.61569 0.0
C862 C 0.35238 0.63557 0.6129 0.0
C863 C 0.35791 0.63128 0.59077 0.0
C864 C 0.35279 0.6751 0.60798 0.0
C865 C 0.36157 0.64961 0.5781 0.0
C866 C 0.34943 0.7155 0.6016 0.0
C867 C 0.33301 0.72227 0.64315 0.0
N868 N 0.35876 0.67067 0.58682 0.0
N869 N 0.33985 0.7021 0.63609 0.0
H870 H 0.28876 0.34176 0.05417 0.0
H871 H 0.30404 0.456 0.99598 0.0
H872 H 0.33224 0.39908 0.08432 0.0
H873 H 0.25247 0.40246 0.97426 0.0
H874 H 0.31481 0.43606 0.02863 0.0
H875 H 0.27591 0.36399 0.0244 0.0
C876 C 0.29562 0.35904 0.05453 0.0
C877 C 0.31164 0.36856 0.07173 0.0
C878 C 0.30105 0.42878 0.01676 0.0
C879 C 0.29698 0.39418 0.03761 0.0
C880 C 0.29483 0.44021 0.99822 0.0
C881 C 0.27754 0.43072 0.98222 0.0
C882 C 0.28992 0.40775 0.01923 0.0
C883 C 0.26624 0.41015 0.98589 0.0
C884 C 0.2882 0.37178 0.03755 0.0
C885 C 0.31986 0.39108 0.07136 0.0
N886 N 0.27273 0.39931 0.00387 0.0
N887 N 0.31251 0.40312 0.05449 0.0
H888 H 0.43299 0.68956 0.77685 0.0
H889 H 0.39987 0.66506 0.89929 0.0
H890 H 0.36504 0.6852 0.79533 0.0
H891 H 0.46616 0.66019 0.87787 0.0
H892 H 0.38747 0.67628 0.86248 0.0
H893 H 0.44614 0.68309 0.81513 0.0
C894 C 0.42084 0.68743 0.789 0.0
C895 C 0.39786 0.68778 0.78284 0.0
C896 C 0.40475 0.67285 0.86587 0.0
C897 C 0.4128 0.68027 0.82667 0.0
C898 C 0.41182 0.66633 0.88684 0.0
C899 C 0.43407 0.66155 0.89167 0.0
C900 C 0.42003 0.67465 0.84955 0.0
C901 C 0.44891 0.66392 0.87501 0.0
C902 C 0.42836 0.68367 0.81084 0.0
C903 C 0.3829 0.68495 0.79931 0.0
N904 N 0.44161 0.67021 0.85468 0.0
N905 N 0.39063 0.68122 0.82044 0.0
H906 H 0.00561 0.69957 0.16424 0.0
H907 H 0.10529 0.73591 0.09208 0.0
H908 H 0.07407 0.71566 0.19234 0.0
H909 H 0.04434 0.69813 0.06202 0.0
H910 H 0.09271 0.73145 0.129 0.0
H911 H 0.01808 0.70157 0.12659 0.0
C912 C 0.02325 0.70342 0.16249 0.0
C913 C 0.03883 0.70749 0.18146 0.0
C914 C 0.08212 0.72404 0.11433 0.0
C915 C 0.0531 0.71004 0.13857 0.0
C916 C 0.08935 0.72646 0.09319 0.0
C917 C 0.07599 0.71718 0.07379 0.0
C918 C 0.06121 0.71252 0.11624 0.0
C919 C 0.05514 0.70574 0.07643 0.0
C920 C 0.03035 0.70451 0.14102 0.0
C921 C 0.06148 0.71237 0.17822 0.0
N922 N 0.04836 0.70378 0.09727 0.0
N923 N 0.0679 0.71367 0.15721 0.0
H924 H 0.66784 0.25021 0.72167 0.0
H925 H 0.59561 0.29558 0.62027 0.0
H926 H 0.63422 0.31084 0.72681 0.0
H927 H 0.62522 0.23273 0.61434 0.0
H928 H 0.61411 0.3036 0.65805 0.0
H929 H 0.6571 0.24587 0.68122 0.0
C930 C 0.65851 0.26281 0.71426 0.0
C931 C 0.65171 0.28081 0.72768 0.0
C932 C 0.61671 0.28808 0.64853 0.0
C933 C 0.63927 0.27583 0.6815 0.0
C934 C 0.60606 0.28345 0.62698 0.0
C935 C 0.60857 0.26327 0.61435 0.0
C936 C 0.62995 0.27238 0.65768 0.0
C937 C 0.62276 0.24842 0.62362 0.0
C938 C 0.65232 0.26025 0.69118 0.0
C939 C 0.63966 0.29659 0.71717 0.0
N940 N 0.63274 0.25315 0.64487 0.0
N941 N 0.63368 0.29363 0.69476 0.0
H942 H 0.03109 0.35536 0.39005 0.0
H943 H 0.94705 0.27806 0.45308 0.0
H944 H 0.00391 0.28824 0.36556 0.0
H945 H 0.95243 0.35025 0.46263 0.0
H946 H 0.97802 0.28006 0.42928 0.0
H947 H 0.01161 0.35192 0.42408 0.0
C948 C 0.02136 0.33978 0.39201 0.0
C949 C 0.01883 0.32214 0.37487 0.0
C950 C 0.97273 0.29545 0.43695 0.0
C951 C 0.99689 0.31806 0.41369 0.0
C952 C 0.95515 0.29433 0.45059 0.0
C953 C 0.94691 0.31404 0.45942 0.0
C954 C 0.98217 0.31643 0.43212 0.0
C955 C 0.95822 0.33467 0.45601 0.0
C956 C 0.01024 0.33787 0.41138 0.0
C957 C 0.00604 0.30234 0.37823 0.0
N958 N 0.97507 0.33537 0.44225 0.0
N959 N 0.99547 0.30087 0.39721 0.0
H960 H 0.32513 0.56297 0.40363 0.0
H961 H 0.32616 0.54071 0.533 0.0
H962 H 0.28599 0.50856 0.42853 0.0
H963 H 0.35625 0.60193 0.51126 0.0
H964 H 0.31317 0.52802 0.49428 0.0
H965 H 0.33892 0.57667 0.44234 0.0
C966 C 0.31974 0.55369 0.41717 0.0
C967 C 0.30473 0.53432 0.41283 0.0
C968 C 0.32264 0.54424 0.49789 0.0
C969 C 0.31992 0.55022 0.45706 0.0
C970 C 0.33021 0.55145 0.52004 0.0
C971 C 0.34273 0.57226 0.52539 0.0
C972 C 0.32756 0.55787 0.48079 0.0
C973 C 0.34681 0.5857 0.50789 0.0
C974 C 0.32737 0.5617 0.43927 0.0
C975 C 0.29759 0.52351 0.43109 0.0
N976 N 0.33939 0.57821 0.48631 0.0
N977 N 0.30531 0.53154 0.45235 0.0
H978 H 0.21861 0.32661 0.81986 0.0
H979 H 0.27393 0.44504 0.87884 0.0
H980 H 0.24247 0.38135 0.78341 0.0
H981 H 0.23996 0.39456 0.91407 0.0
H982 H 0.26577 0.42055 0.84404 0.0
H983 H 0.2302 0.34971 0.85503 0.0
C984 C 0.22646 0.3434 0.81924 0.0
C985 C 0.22943 0.3521 0.79865 0.0
C986 C 0.26015 0.41483 0.85941 0.0
C987 C 0.24263 0.37864 0.83881 0.0
C988 C 0.26468 0.42886 0.87926 0.0
C989 C 0.25758 0.4219 0.89943 0.0
C990 C 0.24847 0.39364 0.8597 0.0
C991 C 0.24602 0.40054 0.899 0.0
C992 C 0.23298 0.35661 0.83932 0.0
C993 C 0.2397 0.37398 0.79888 0.0
N994 N 0.2418 0.3872 0.87946 0.0
N995 N 0.24585 0.38652 0.81864 0.0
H996 H 0.73261 0.07935 0.51008 0.0
H997 H 0.69375 0.95232 0.4756 0.0
H998 H 0.72522 0.03261 0.56013 0.0
H999 H 0.73882 0.98895 0.43639 0.0
H1000 H 0.70059 0.9828 0.50544 0.0
H1001 H 0.73042 0.0477 0.48112 0.0
C1002 C 0.73075 0.0624 0.51495 0.0
C1003 C 0.72931 0.05849 0.53748 0.0
C1004 C 0.70904 0.98401 0.49031 0.0
C1005 C 0.72619 0.02246 0.50456 0.0
C1006 C 0.70528 0.96655 0.47324 0.0
C1007 C 0.71579 0.96782 0.45327 0.0
C1008 C 0.72295 0.00319 0.48728 0.0
C1009 C 0.72997 0.98724 0.45118 0.0
C1010 C 0.72955 0.04442 0.49849 0.0
C1011 C 0.72677 0.03627 0.54298 0.0
N1012 N 0.73296 0.00423 0.46786 0.0
N1013 N 0.72497 0.01904 0.52656 0.0
H1014 H 0.75452 0.96326 0.20507 0.0
H1015 H 0.67265 0.01733 0.1172 0.0
H1016 H 0.7081 0.01081 0.2239 0.0
H1017 H 0.71334 0.96448 0.09797 0.0
H1018 H 0.68479 0.01427 0.15651 0.0
H1019 H 0.73956 0.96296 0.16582 0.0
C1020 C 0.74105 0.97351 0.20094 0.0
C1021 C 0.7322 0.98673 0.21779 0.0
C1022 C 0.691 0.00322 0.14375 0.0
C1023 C 0.71513 0.98663 0.173 0.0
C1024 C 0.6841 0.005 0.12131 0.0
C1025 C 0.69215 0.99126 0.10432 0.0
C1026 C 0.70626 0.9877 0.14934 0.0
C1027 C 0.7067 0.97535 0.11057 0.0
C1028 C 0.73247 0.97327 0.17857 0.0
C1029 C 0.7149 -0.00019 0.21155 0.0
N1030 N 0.71347 0.97414 0.13259 0.0
N1031 N 0.70699 0.99948 0.18967 0.0
H1032 H 0.43287 0.30108 0.59974 0.0
H1033 H 0.52571 0.23857 0.53937 0.0
H1034 H 0.42193 0.27644 0.52976 0.0
H1035 H 0.54136 0.29203 0.59251 0.0
H1036 H 0.48633 0.2467 0.53771 0.0
H1037 H 0.47142 0.29111 0.60021 0.0
C1038 C 0.43849 0.29334 0.58452 0.0
C1039 C 0.42419 0.28968 0.56464 0.0
C1040 C 0.4985 0.25656 0.5497 0.0
C1041 C 0.46829 0.27822 0.56513 0.0
C1042 C 0.52099 0.25206 0.55059 0.0
C1043 C 0.53698 0.26442 0.56631 0.0
C1044 C 0.49193 0.27328 0.56485 0.0
C1045 C 0.52969 0.28155 0.58057 0.0
C1046 C 0.46053 0.28781 0.58478 0.0
C1047 C 0.43246 0.27967 0.5454 0.0
N1048 N 0.50773 0.28531 0.57962 0.0
N1049 N 0.454 0.27422 0.54612 0.0
H1050 H 0.24544 0.7582 0.98362 0.0
H1051 H 0.14848 0.73954 0.0601 0.0
H1052 H 0.25872 0.73899 0.05061 0.0
H1053 H 0.13809 0.71396 0.99018 0.0
H1054 H 0.18851 0.74427 0.05687 0.0
H1055 H 0.2054 0.74693 0.98524 0.0
C1056 C 0.23991 0.75138 0.99855 0.0
C1057 C 0.25531 0.74931 0.01696 0.0
C1058 C 0.17741 0.73744 0.04232 0.0
C1059 C 0.20981 0.73705 0.0191 0.0
C1060 C 0.15446 0.73451 0.04412 0.0
C1061 C 0.13955 0.726 0.02545 0.0
C1062 C 0.18568 0.73252 0.02157 0.0
C1063 C 0.14868 0.72084 0.00501 0.0
C1064 C 0.21717 0.74491 0.99942 0.0
C1065 C 0.24738 0.74052 0.03597 0.0
N1066 N 0.17114 0.72442 0.00355 0.0
N1067 N 0.22509 0.73502 0.0367 0.0
H1068 H 0.81286 0.20072 0.36358 0.0
H1069 H 0.8415 0.30944 0.45031 0.0
H1070 H 0.76173 0.23983 0.38856 0.0
H1071 H 0.88624 0.25757 0.44109 0.0
H1072 H 0.81261 0.28634 0.42535 0.0
H1073 H 0.84102 0.22425 0.38879 0.0
C1074 C 0.80757 0.21434 0.37425 0.0
C1075 C 0.7849 0.21826 0.37401 0.0
C1076 C 0.82876 0.28006 0.42888 0.0
C1077 C 0.81703 0.24522 0.40292 0.0
C1078 C 0.84521 0.29316 0.44323 0.0
C1079 C 0.86643 0.28556 0.44768 0.0
C1080 C 0.83366 0.25933 0.41878 0.0
C1081 C 0.87033 0.26439 0.43778 0.0
C1082 C 0.82363 0.22768 0.38873 0.0
C1083 C 0.77901 0.23614 0.38827 0.0
N1084 N 0.85418 0.25211 0.42371 0.0
N1085 N 0.79499 0.24899 0.40213 0.0
H1086 H 0.6068 0.71073 0.95764 0.0
H1087 H 0.49878 0.62588 0.96404 0.0
H1088 H 0.60862 0.64126 0.96997 0.0
H1089 H 0.49549 0.6941 0.94764 0.0
H1090 H 0.53896 0.63372 0.97372 0.0
H1091 H 0.56639 0.70734 0.96105 0.0
C1092 C 0.59885 0.69496 0.9617 0.0
C1093 C 0.61109 0.67625 0.96354 0.0
C1094 C 0.52944 0.64709 0.96827 0.0
C1095 C 0.56483 0.67209 0.96694 0.0
C1096 C 0.50639 0.64267 0.96292 0.0
C1097 C 0.49371 0.65926 0.95469 0.0
C1098 C 0.54001 0.66821 0.96525 0.0
C1099 C 0.50467 0.68064 0.9534 0.0
C1100 C 0.57572 0.69296 0.96342 0.0
C1101 C 0.59977 0.65606 0.96823 0.0
N1102 N 0.52723 0.68442 0.95832 0.0
N1103 N 0.5773 0.65447 0.96958 0.0
H1104 H 0.62075 0.4746 0.33233 0.0
H1105 H 0.56913 0.58456 0.38233 0.0
H1106 H 0.56745 0.47365 0.37619 0.0
H1107 H 0.6197 0.58577 0.33539 0.0
H1108 H 0.56801 0.54383 0.37979 0.0
H1109 H 0.62041 0.51527 0.3328 0.0
C1110 C 0.60881 0.48289 0.34186 0.0
C1111 C 0.59405 0.47065 0.35417 0.0
C1112 C 0.57931 0.553 0.36999 0.0
C1113 C 0.59367 0.51721 0.35489 0.0
C1114 C 0.57989 0.5763 0.37135 0.0
C1115 C 0.59452 0.58874 0.35904 0.0
C1116 C 0.59355 0.54194 0.35633 0.0
C1117 C 0.60843 0.577 0.34551 0.0
C1118 C 0.60866 0.50612 0.34216 0.0
C1119 C 0.57908 0.48234 0.36636 0.0
N1120 N 0.60762 0.55429 0.34455 0.0
N1121 N 0.57934 0.50494 0.36648 0.0
H1122 H 0.96148 0.17554 0.73863 0.0
H1123 H 0.02335 0.07381 0.68516 0.0
H1124 H 0.01664 0.18332 0.69751 0.0
H1125 H 0.96733 0.06423 0.72481 0.0
H1126 H 0.02117 0.11414 0.69018 0.0
H1127 H 0.9636 0.13493 0.73472 0.0
C1128 C 0.9741 0.16875 0.72889 0.0
C1129 C 0.98888 0.18289 0.71834 0.0
C1130 C 0.00932 0.10328 0.69781 0.0
C1131 C 0.99129 0.13647 0.71373 0.0
C1132 C 0.01062 0.08022 0.69502 0.0
C1133 C 0.99561 0.06563 0.70473 0.0
C1134 C 0.99287 0.11194 0.71041 0.0
C1135 C 0.97916 0.07488 0.71694 0.0
C1136 C 0.97525 0.14556 0.72662 0.0
C1137 C 0.00486 0.17313 0.70591 0.0
N1138 N 0.97827 0.09748 0.71951 0.0
N1139 N 0.0056 0.15057 0.70393 0.0
H1140 H 0.34746 0.76299 0.20382 0.0
H1141 H 0.39716 0.87282 0.15358 0.0
H1142 H 0.33347 0.77549 0.13458 0.0
H1143 H 0.39766 0.86625 0.22454 0.0
H1144 H 0.37316 0.83755 0.14616 0.0
H1145 H 0.36484 0.80129 0.21189 0.0
C1146 C 0.3478 0.77387 0.19036 0.0
C1147 C 0.33915 0.76596 0.16845 0.0
C1148 C 0.37834 0.84395 0.16336 0.0
C1149 C 0.35932 0.80976 0.17751 0.0
C1150 C 0.39213 0.86399 0.16758 0.0
C1151 C 0.39947 0.8724 0.18969 0.0
C1152 C 0.37209 0.83212 0.18138 0.0
C1153 C 0.39226 0.86044 0.20724 0.0
C1154 C 0.35773 0.79576 0.19498 0.0
C1155 C 0.33997 0.78086 0.1517 0.0
N1156 N 0.37915 0.84081 0.2027 0.0
N1157 N 0.35016 0.80196 0.15652 0.0
H1158 H 0.99105 0.5516 0.71136 0.0
H1159 H 0.99826 0.42002 0.71497 0.0
H1160 H 0.0356 0.52335 0.75922 0.0
H1161 H 0.9577 0.44933 0.66458 0.0
H1162 H 0.01487 0.45756 0.72937 0.0
H1163 H 0.98108 0.51429 0.69222 0.0
C1164 C 0.99886 0.53757 0.71778 0.0
C1165 C 0.01403 0.54061 0.73707 0.0
C1166 C 0.00249 0.45576 0.71502 0.0
C1167 C 0.00257 0.49769 0.71524 0.0
C1168 C 0.99311 0.43431 0.70671 0.0
C1169 C 0.97634 0.43155 0.68873 0.0
C1170 C 0.99502 0.47457 0.70531 0.0
C1171 C 0.97021 0.4507 0.67878 0.0
C1172 C 0.99318 0.51623 0.7068 0.0
C1173 C 0.02374 0.52179 0.74447 0.0
N1174 N 0.97938 0.47137 0.68733 0.0
N1175 N 0.01768 0.5011 0.73367 0.0
H1176 H 0.70906 0.41252 0.56912 0.0
H1177 H 0.61517 0.37566 0.47008 0.0
H1178 H 0.64102 0.3922 0.58125 0.0
H1179 H 0.67484 0.41798 0.46176 0.0
H1180 H 0.62362 0.38193 0.51085 0.0
H1181 H 0.69664 0.41494 0.52966 0.0
C1182 C 0.69144 0.4089 0.5635 0.0
C1183 C 0.676 0.40238 0.57845 0.0
C1184 C 0.63464 0.39016 0.5001 0.0
C1185 C 0.66171 0.40465 0.53331 0.0
C1186 C 0.62985 0.38654 0.47687 0.0
C1187 C 0.64438 0.39623 0.46257 0.0
C1188 C 0.65433 0.40323 0.50904 0.0
C1189 C 0.66313 0.41029 0.4722 0.0
C1190 C 0.68434 0.41034 0.54102 0.0
C1191 C 0.65337 0.39774 0.57035 0.0
N1192 N 0.66776 0.41308 0.49482 0.0
N1193 N 0.64694 0.39867 0.54822 0.0
H1194 H 0.81305 0.67219 0.2611 0.0
H1195 H 0.76451 0.62504 0.13775 0.0
H1196 H 0.7849 0.71405 0.21326 0.0
H1197 H 0.81321 0.59184 0.17666 0.0
H1198 H 0.76945 0.65669 0.16633 0.0
H1199 H 0.81125 0.64157 0.23151 0.0
C1200 C 0.80718 0.67521 0.24422 0.0
C1201 C 0.79998 0.69603 0.23945 0.0
C1202 C 0.77914 0.64253 0.16855 0.0
C1203 C 0.79657 0.66055 0.20576 0.0
C1204 C 0.77644 0.62444 0.15217 0.0
C1205 C 0.78861 0.60571 0.15462 0.0
C1206 C 0.79387 0.64184 0.18778 0.0
C1207 C 0.80328 0.60575 0.1741 0.0
C1208 C 0.80579 0.65756 0.2274 0.0
C1209 C 0.79092 0.69837 0.21759 0.0
N1210 N 0.80545 0.62351 0.18996 0.0
N1211 N 0.78943 0.68082 0.20155 0.0
H1212 H 0.32781 0.04518 0.41391 0.0
H1213 H 0.22051 0.08485 0.46523 0.0
H1214 H 0.26902 0.05938 0.37338 0.0
H1215 H 0.27112 0.05381 0.50353 0.0
H1216 H 0.23537 0.07069 0.43067 0.0
H1217 H 0.30574 0.04397 0.4463 0.0
C1218 C 0.31013 0.04755 0.41175 0.0
C1219 C 0.30015 0.05214 0.39092 0.0
C1220 C 0.24291 0.06644 0.44657 0.0
C1221 C 0.2749 0.05121 0.42787 0.0
C1222 C 0.23434 0.07443 0.46625 0.0
C1223 C 0.24471 0.07052 0.48713 0.0
C1224 C 0.26234 0.05499 0.44786 0.0
C1225 C 0.26266 0.05709 0.48768 0.0
C1226 C 0.29751 0.04678 0.43019 0.0
C1227 C 0.27724 0.05523 0.38899 0.0
N1228 N 0.27126 0.05022 0.46833 0.0
N1229 N 0.26547 0.05504 0.4073 0.0
H1230 H 0.25954 0.03341 0.78649 0.0
H1231 H 0.33767 0.99402 0.88685 0.0
H1232 H 0.27834 0.96601 0.78918 0.0
H1233 H 0.29066 0.04317 0.89866 0.0
H1234 H 0.32502 0.99077 0.84692 0.0
H1235 H 0.27926 0.04354 0.82405 0.0
C1236 C 0.2681 0.02088 0.79487 0.0
C1237 C 0.26737 0.99885 0.78487 0.0
C1238 C 0.31773 0.0025 0.85824 0.0
C1239 C 0.29001 0.01033 0.82729 0.0
C1240 C 0.32491 0.00438 0.881 0.0
C1241 C 0.3148 0.01847 0.89621 0.0
C1242 C 0.30054 0.01502 0.8505 0.0
C1243 C 0.29882 0.032 0.88756 0.0
C1244 C 0.27922 0.02663 0.81623 0.0
C1245 C 0.27844 0.98313 0.79643 0.0
N1246 N 0.29195 0.02974 0.86525 0.0
N1247 N 0.28939 0.98919 0.81701 0.0
H1248 H 0.56711 0.64627 0.45232 0.0
H1249 H 0.45481 0.67599 0.38511 0.0
H1250 H 0.5586 0.71202 0.43118 0.0
H1251 H 0.45916 0.61751 0.4218 0.0
H1252 H 0.49374 0.6882 0.39856 0.0
H1253 H 0.52856 0.63407 0.43754 0.0
C1254 C 0.55725 0.65802 0.44419 0.0
C1255 C 0.56617 0.68006 0.44257 0.0
C1256 C 0.48607 0.67277 0.40373 0.0
C1257 C 0.5218 0.66643 0.42623 0.0
C1258 C 0.46387 0.66565 0.39591 0.0
C1259 C 0.45354 0.64555 0.40216 0.0
C1260 C 0.49811 0.6597 0.41786 0.0
C1261 C 0.46613 0.63324 0.41669 0.0
C1262 C 0.53513 0.65115 0.43605 0.0
C1263 C 0.55232 0.69486 0.43271 0.0
N1264 N 0.48772 0.64045 0.42393 0.0
N1265 N 0.53083 0.68776 0.42481 0.0
H1266 H 0.76658 0.25403 0.96225 0.0
H1267 H 0.89185 0.29599 0.00742 0.0
H1268 H 0.7843 0.27611 0.03209 0.0
H1269 H 0.86381 0.30699 0.94108 0.0
H1270 H 0.85415 0.28396 0.01684 0.0
H1271 H 0.80418 0.2679 0.95394 0.0
C1272 C 0.77841 0.26184 0.97581 0.0
C1273 C 0.77232 0.26424 0.99782 0.0
C1274 C 0.85638 0.28907 0.00026 0.0
C1275 C 0.81532 0.27975 0.98854 0.0
C1276 C 0.87787 0.29606 0.99486 0.0
C1277 C 0.88122 0.3024 0.9733 0.0
C1278 C 0.83817 0.28803 0.9839 0.0
C1279 C 0.86232 0.30171 0.9577 0.0
C1280 C 0.79978 0.26982 0.97106 0.0
C1281 C 0.78826 0.27439 0.01483 0.0
N1282 N 0.8417 0.29447 0.96324 0.0
N1283 N 0.80916 0.28165 0.00988 0.0
H1284 H 0.23026 0.76442 0.61039 0.0
H1285 H 0.10844 0.80789 0.59172 0.0
H1286 H 0.21827 0.83425 0.61811 0.0
H1287 H 0.1202 0.73888 0.59811 0.0
H1288 H 0.14907 0.81772 0.5946 0.0
H1289 H 0.19034 0.75473 0.59977 0.0
C1290 C 0.21926 0.77776 0.6096 0.0
C1291 C 0.22771 0.80022 0.61482 0.0
C1292 C 0.14274 0.8004 0.59515 0.0
C1293 C 0.1819 0.78924 0.60275 0.0
C1294 C 0.11959 0.79477 0.59333 0.0
C1295 C 0.11102 0.77258 0.59488 0.0
C1296 C 0.15734 0.78368 0.59838 0.0
C1297 C 0.12616 0.75623 0.59714 0.0
C1298 C 0.19647 0.77221 0.6035 0.0
C1299 C 0.21268 0.8168 0.61352 0.0
N1300 N 0.14857 0.76213 0.59895 0.0
N1301 N 0.19047 0.81097 0.60771 0.0
H1302 H 0.40134 0.29717 0.06784 0.0
H1303 H 0.50239 0.26223 0.14891 0.0
H1304 H 0.39883 0.28986 0.13836 0.0
H1305 H 0.51286 0.2905 0.08659 0.0
H1306 H 0.46212 0.26351 0.14102 0.0
H1307 H 0.44006 0.28661 0.07064 0.0
C1308 C 0.40877 0.29288 0.08376 0.0
C1309 C 0.39693 0.2943 0.1029 0.0
C1310 C 0.47318 0.26926 0.12894 0.0
C1311 C 0.44092 0.28237 0.10621 0.0
C1312 C 0.49616 0.26854 0.13344 0.0
C1313 C 0.511 0.2767 0.1186 0.0
C1314 C 0.46486 0.27819 0.10943 0.0
C1315 C 0.50198 0.28416 0.09853 0.0
C1316 C 0.43087 0.28705 0.08538 0.0
C1317 C 0.40744 0.28906 0.12324 0.0
N1318 N 0.47944 0.28501 0.09463 0.0
N1319 N 0.42881 0.28335 0.12436 0.0
H1320 H 0.34708 0.61453 0.67584 0.0
H1321 H 0.4199 0.5125 0.64678 0.0
H1322 H 0.41774 0.62328 0.66784 0.0
H1323 H 0.34749 0.50638 0.64224 0.0
H1324 H 0.41972 0.5529 0.65521 0.0
H1325 H 0.34705 0.57454 0.66418 0.0
C1326 C 0.36253 0.60803 0.67138 0.0
C1327 C 0.38236 0.62223 0.67249 0.0
C1328 C 0.4039 0.54264 0.65237 0.0
C1329 C 0.38264 0.57649 0.65961 0.0
C1330 C 0.40395 0.51951 0.64743 0.0
C1331 C 0.38368 0.50569 0.64377 0.0
C1332 C 0.38346 0.5521 0.6539 0.0
C1333 C 0.36363 0.51598 0.6454 0.0
C1334 C 0.36253 0.58523 0.66473 0.0
C1335 C 0.40197 0.613 0.66665 0.0
N1336 N 0.36405 0.53846 0.65036 0.0
N1337 N 0.40166 0.59067 0.66062 0.0
H1338 H 0.00668 0.77887 0.31871 0.0
H1339 H 0.0406 0.90155 0.28276 0.0
H1340 H 0.0405 0.79135 0.2599 0.0
H1341 H 0.99516 0.88849 0.33294 0.0
H1342 H 0.04614 0.86163 0.27843 0.0
H1343 H 0.00746 0.81936 0.32815 0.0
C1344 C 0.01472 0.79013 0.30807 0.0
C1345 C 0.02385 0.78179 0.28869 0.0
C1346 C 0.0351 0.86752 0.29052 0.0
C1347 C 0.02433 0.82805 0.29905 0.0
C1348 C 0.03208 0.89033 0.29313 0.0
C1349 C 0.01727 0.89829 0.30811 0.0
C1350 C 0.0233 0.8526 0.30306 0.0
C1351 C 0.00648 0.88297 0.32097 0.0
C1352 C 0.01493 0.81323 0.31332 0.0
C1353 C 0.03328 0.79713 0.27501 0.0
N1354 N 0.00962 0.86084 0.31807 0.0
N1355 N 0.03328 0.81951 0.28045 0.0
H1356 H 0.57951 0.24072 0.7911 0.0
H1357 H 0.58129 0.11303 0.78027 0.0
H1358 H 0.61466 0.20806 0.84267 0.0
H1359 H 0.52457 0.14386 0.75213 0.0
H1360 H 0.59156 0.14674 0.80611 0.0
H1361 H 0.55641 0.20566 0.7793 0.0
C1362 C 0.58185 0.22626 0.80035 0.0
C1363 C 0.59897 0.22713 0.81778 0.0
C1364 C 0.5765 0.14592 0.79475 0.0
C1365 C 0.5733 0.18682 0.80389 0.0
C1366 C 0.57069 0.12673 0.78001 0.0
C1367 C 0.55219 0.12586 0.76405 0.0
C1368 C 0.56409 0.16455 0.793 0.0
C1369 C 0.53897 0.14396 0.76425 0.0
C1370 C 0.5687 0.20626 0.79363 0.0
C1371 C 0.60152 0.208 0.82919 0.0
N1372 N 0.54548 0.16284 0.77813 0.0
N1373 N 0.58922 0.18837 0.82164 0.0
H1374 H 0.01927 0.38138 0.23564 0.0
H1375 H 0.00731 0.50282 0.29161 0.0
H1376 H 0.9989 0.3953 0.30211 0.0
H1377 H 0.02599 0.48935 0.22456 0.0
H1378 H 0.99483 0.46309 0.29212 0.0
H1379 H 0.01291 0.4196 0.22773 0.0
C1380 C 0.01266 0.39219 0.24829 0.0
C1381 C 0.00947 0.38511 0.26953 0.0
C1382 C 0.00104 0.46884 0.27701 0.0
C1383 C 0.00302 0.42921 0.26093 0.0
C1384 C 0.00793 0.49154 0.27668 0.0
C1385 C 0.0175 0.49917 0.25798 0.0
C1386 C 0.00434 0.45368 0.2587 0.0
C1387 C 0.01847 0.48398 0.23919 0.0
C1388 C 0.00929 0.41416 0.24387 0.0
C1389 C 0.00172 0.40017 0.28557 0.0
N1390 N 0.01239 0.46182 0.24016 0.0
N1391 N 0.99904 0.42157 0.28105 0.0
H1392 H 0.40232 0.57678 0.34335 0.0
H1393 H 0.52901 0.61461 0.3917 0.0
H1394 H 0.43029 0.56113 0.40809 0.0
H1395 H 0.4941 0.64627 0.33925 0.0
H1396 H 0.49494 0.58981 0.39437 0.0
H1397 H 0.43818 0.59676 0.33777 0.0
C1398 C 0.41604 0.5774 0.35634 0.0
C1399 C 0.41324 0.56743 0.37633 0.0
C1400 C 0.49474 0.60213 0.38224 0.0
C1401 C 0.45422 0.59043 0.37004 0.0
C1402 C 0.51406 0.61628 0.3808 0.0
C1403 C 0.51401 0.63243 0.3654 0.0
C1404 C 0.47538 0.60424 0.36808 0.0
C1405 C 0.49453 0.63402 0.35146 0.0
C1406 C 0.43646 0.58889 0.35315 0.0
C1407 C 0.43166 0.56867 0.39248 0.0
N1408 N 0.47588 0.62008 0.35314 0.0
N1409 N 0.45135 0.58007 0.38903 0.0
H1410 H 0.12444 0.29496 0.70204 0.0
H1411 H 0.0267 0.37765 0.70208 0.0
H1412 H 0.13245 0.36233 0.73454 0.0
H1413 H 0.01921 0.31158 0.66707 0.0
H1414 H 0.06601 0.37277 0.71316 0.0
H1415 H 0.08634 0.30108 0.68783 0.0
C1416 C 0.11825 0.31107 0.70607 0.0
C1417 C 0.13162 0.32811 0.7196 0.0
C1418 C 0.05584 0.35935 0.70295 0.0
C1419 C 0.08803 0.33519 0.7035 0.0
C1420 C 0.03346 0.36217 0.69663 0.0
C1421 C 0.01998 0.34498 0.68364 0.0
C1422 C 0.06461 0.33912 0.69627 0.0
C1423 C 0.02926 0.32518 0.67708 0.0
C1424 C 0.09649 0.31455 0.69798 0.0
C1425 C 0.12273 0.34867 0.72425 0.0
N1426 N 0.05105 0.32273 0.68352 0.0
N1427 N 0.10148 0.35159 0.71632 0.0
H1428 H 0.81814 0.00777 0.60252 0.0
H1429 H 0.91865 0.0255 0.70067 0.0
H1430 H 0.82318 0.05996 0.65711 0.0
H1431 H 0.9144 0.97406 0.64571 0.0
H1432 H 0.8827 0.03738 0.68584 0.0
H1433 H 0.85239 0.99406 0.61891 0.0
C1434 C 0.82638 0.0163 0.618 0.0
C1435 C 0.8178 0.03511 0.6284 0.0
C1436 C 0.88954 0.02343 0.67704 0.0
C1437 C 0.85706 0.01951 0.64724 0.0
C1438 C 0.90998 0.01668 0.68552 0.0
C1439 C 0.91921 0.99885 0.6743 0.0
C1440 C 0.8784 0.01223 0.65719 0.0
C1441 C 0.90761 0.9879 0.65476 0.0
C1442 C 0.84596 0.00846 0.62734 0.0
C1443 C 0.8292 0.04545 0.64845 0.0
N1444 N 0.88777 0.9948 0.64675 0.0
N1445 N 0.84825 0.03756 0.65716 0.0
H1446 H 0.61634 0.97262 0.25488 0.0
H1447 H 0.51503 0.95332 0.15808 0.0
H1448 H 0.62109 0.99299 0.18814 0.0
H1449 H 0.51041 0.93296 0.22465 0.0
H1450 H 0.55293 0.97107 0.16973 0.0
H1451 H 0.5766 0.96104 0.24515 0.0
C1452 C 0.60901 0.9748 0.23822 0.0
C1453 C 0.62213 0.98362 0.22224 0.0
C1454 C 0.54359 0.96292 0.18188 0.0
C1455 C 0.57661 0.9703 0.21095 0.0
C1456 C 0.52201 0.95289 0.17524 0.0
C1457 C 0.50989 0.94181 0.19052 0.0
C1458 C 0.55301 0.96165 0.20391 0.0
C1459 C 0.51944 0.94145 0.21248 0.0
C1460 C 0.58629 0.96817 0.23267 0.0
C1461 C 0.61167 0.98615 0.20095 0.0
N1462 N 0.54056 0.95113 0.21853 0.0
N1463 N 0.58956 0.97938 0.19589 0.0
H1464 H 0.39089 0.39554 0.54779 0.0
H1465 H 0.33641 0.50278 0.59961 0.0
H1466 H 0.33333 0.39099 0.58609 0.0
H1467 H 0.39972 0.50548 0.57095 0.0
H1468 H 0.33141 0.4621 0.58963 0.0
H1469 H 0.39034 0.43608 0.55033 0.0
C1470 C 0.37793 0.40303 0.55651 0.0
C1471 C 0.36229 0.38984 0.56698 0.0
C1472 C 0.34627 0.47161 0.58528 0.0
C1473 C 0.36159 0.43639 0.56994 0.0
C1474 C 0.34915 0.49471 0.59106 0.0
C1475 C 0.36861 0.5071 0.58628 0.0
C1476 C 0.3629 0.46109 0.57441 0.0
C1477 C 0.38457 0.49625 0.57501 0.0
C1478 C 0.37764 0.42622 0.55795 0.0
C1479 C 0.34582 0.40052 0.57792 0.0
N1480 N 0.38141 0.47377 0.5695 0.0
N1481 N 0.346 0.42323 0.57925 0.0
H1482 H 0.33125 0.6385 0.01816 0.0
H1483 H 0.23965 0.53479 0.98294 0.0
H1484 H 0.26217 0.63827 0.03269 0.0
H1485 H 0.30864 0.53529 0.96866 0.0
H1486 H 0.24862 0.57072 0.0058 0.0
H1487 H 0.32442 0.59893 0.00447 0.0
C1488 C 0.31473 0.63005 0.01883 0.0
C1489 C 0.29721 0.64179 0.02643 0.0
C1490 C 0.2619 0.56285 0.99797 0.0
C1491 C 0.28924 0.59646 0.01062 0.0
C1492 C 0.25678 0.54236 0.98505 0.0
C1493 C 0.2735 0.53233 0.97412 0.0
C1494 C 0.28386 0.57334 0.99968 0.0
C1495 C 0.29537 0.54266 0.977 0.0
C1496 C 0.31083 0.60744 0.01096 0.0
C1497 C 0.27613 0.62994 0.02681 0.0
N1498 N 0.29992 0.56276 0.98937 0.0
N1499 N 0.27268 0.60799 0.01881 0.0
H1500 H 0.69586 0.10297 0.36721 0.0
H1501 H 0.72573 0.97897 0.32982 0.0
H1502 H 0.73351 0.08702 0.31082 0.0
H1503 H 0.68708 0.99526 0.38513 0.0
H1504 H 0.72629 0.018 0.32054 0.0
H1505 H 0.68956 0.0631 0.37182 0.0
C1506 C 0.70261 0.09108 0.35564 0.0
C1507 C 0.71542 0.09838 0.33874 0.0
C1508 C 0.71755 0.01304 0.33461 0.0
C1509 C 0.70845 0.05265 0.34406 0.0
C1510 C 0.71727 0.99084 0.33988 0.0
C1511 C 0.70643 0.98424 0.35825 0.0
C1512 C 0.70699 0.02858 0.34797 0.0
C1513 C 0.69566 -5e-05 0.37086 0.0
C1514 C 0.69904 0.06828 0.35831 0.0
C1515 C 0.72364 0.08216 0.32416 0.0
N1516 N 0.6963 0.02149 0.36556 0.0
N1517 N 0.7202 0.06007 0.3273 0.0
H1518 H 0.67406 0.79966 0.99615 0.0
H1519 H 0.62741 0.91535 0.03827 0.0
H1520 H 0.60759 0.80407 0.01723 0.0
H1521 H 0.69377 0.91034 0.01762 0.0
H1522 H 0.62069 0.87429 0.03357 0.0
H1523 H 0.68241 0.83979 0.00647 0.0
C1524 C 0.66122 0.80904 0.00302 0.0
C1525 C 0.64002 0.79845 0.00568 0.0
C1526 C 0.63682 0.88211 0.0303 0.0
C1527 C 0.64951 0.84457 0.01755 0.0
C1528 C 0.64065 0.90548 0.03308 0.0
C1529 C 0.66116 0.91595 0.0284 0.0
C1530 C 0.65362 0.86929 0.02261 0.0
C1531 C 0.67777 0.90269 0.02149 0.0
C1532 C 0.66602 0.83199 0.00895 0.0
C1533 C 0.62413 0.81151 0.01479 0.0
N1534 N 0.67361 0.88001 0.01867 0.0
N1535 N 0.62915 0.8339 0.02028 0.0
H1536 H 0.58383 0.36379 0.43648 0.0
H1537 H 0.60455 0.24038 0.46879 0.0
H1538 H 0.58554 0.30817 0.38649 0.0
H1539 H 0.59089 0.29443 0.51592 0.0
H1540 H 0.59905 0.2647 0.43814 0.0
H1541 H 0.58786 0.33846 0.46568 0.0
C1542 C 0.58496 0.34619 0.43161 0.0
C1543 C 0.58439 0.33811 0.40897 0.0
C1544 C 0.59714 0.27118 0.45517 0.0
C1545 C 0.5891 0.30889 0.4425 0.0
C1546 C 0.60027 0.25735 0.47256 0.0
C1547 C 0.5981 0.26563 0.49466 0.0
C1548 C 0.59195 0.29332 0.46017 0.0
C1549 C 0.59266 0.28759 0.49897 0.0
C1550 C 0.58727 0.33171 0.44834 0.0
C1551 C 0.58589 0.31511 0.40373 0.0
N1552 N 0.58983 0.30073 0.48187 0.0
N1553 N 0.58832 0.30129 0.4204 0.0
H1554 H 0.92532 0.29967 0.66795 0.0
H1555 H 0.94836 0.32856 0.54403 0.0
H1556 H 0.98887 0.29406 0.64051 0.0
H1557 H 0.88643 0.33828 0.57304 0.0
H1558 H 0.96467 0.31876 0.58036 0.0
H1559 H 0.91167 0.31642 0.63438 0.0
C1560 C 0.93649 0.30214 0.65497 0.0
C1561 C 0.95827 0.2954 0.65706 0.0
C1562 C 0.9476 0.32329 0.57889 0.0
C1563 C 0.94275 0.31458 0.61854 0.0
C1564 C 0.93838 0.3289 0.55822 0.0
C1565 C 0.91617 0.33418 0.55583 0.0
C1566 C 0.93433 0.32277 0.59708 0.0
C1567 C 0.90369 0.3343 0.57444 0.0
C1568 C 0.92869 0.31174 0.6358 0.0
C1569 C 0.97201 0.29911 0.63972 0.0
N1570 N 0.9129 0.3285 0.59431 0.0
N1571 N 0.96398 0.30832 0.62115 0.0
H1572 H 0.39461 0.67524 0.10629 0.0
H1573 H 0.37687 0.59916 0.98935 0.0
H1574 H 0.33038 0.64372 0.0772 0.0
H1575 H 0.43631 0.64334 0.01081 0.0
H1576 H 0.36206 0.60893 0.02538 0.0
H1577 H 0.41229 0.65736 0.07523 0.0
C1578 C 0.38424 0.66433 0.09354 0.0
C1579 C 0.36092 0.66119 0.09422 0.0
C1580 C 0.37839 0.61637 0.02228 0.0
C1581 C 0.38111 0.64071 0.05862 0.0
C1582 C 0.38687 0.6107 0.00186 0.0
C1583 C 0.40772 0.62054 0.9974 0.0
C1584 C 0.39085 0.63211 0.03812 0.0
C1585 C 0.42012 0.63545 0.01386 0.0
C1586 C 0.39437 0.65418 0.07578 0.0
C1587 C 0.34839 0.64676 0.07728 0.0
N1588 N 0.41141 0.64094 0.03353 0.0
N1589 N 0.35863 0.63718 0.06009 0.0
H1590 H 0.09816 0.64066 0.85748 0.0
H1591 H 0.03158 0.71995 0.93695 0.0
H1592 H 0.03028 0.65601 0.84073 0.0
H1593 H 0.0974 0.70071 0.95592 0.0
H1594 H 0.03248 0.70009 0.89971 0.0
H1595 H 0.09989 0.666 0.89169 0.0
C1596 C 0.08366 0.64947 0.86089 0.0
C1597 C 0.06397 0.64603 0.84629 0.0
C1598 C 0.04684 0.70037 0.9119 0.0
C1599 C 0.06583 0.67504 0.8855 0.0
C1600 C 0.04633 0.71173 0.93306 0.0
C1601 C 0.06446 0.71185 0.94923 0.0
C1602 C 0.0656 0.68899 0.90706 0.0
C1603 C 0.08315 0.70095 0.94369 0.0
C1604 C 0.08466 0.66393 0.88046 0.0
C1605 C 0.04576 0.65801 0.85156 0.0
N1606 N 0.08321 0.68981 0.92305 0.0
N1607 N 0.04709 0.67187 0.87079 0.0
H1608 H 0.57566 0.44574 0.63629 0.0
H1609 H 0.45738 0.45229 0.56736 0.0
H1610 H 0.56667 0.44383 0.56411 0.0
H1611 H 0.46675 0.45413 0.63932 0.0
H1612 H 0.49816 0.4545 0.56601 0.0
H1613 H 0.53676 0.45383 0.63798 0.0
C1614 C 0.56556 0.44718 0.62078 0.0
C1615 C 0.57438 0.44381 0.6 0.0
C1616 C 0.49137 0.4548 0.58214 0.0
C1617 C 0.52971 0.45301 0.60182 0.0
C1618 C 0.46816 0.45367 0.58288 0.0
C1619 C 0.45902 0.45312 0.60347 0.0
C1620 C 0.50533 0.45512 0.60216 0.0
C1621 C 0.47339 0.45463 0.62315 0.0
C1622 C 0.54332 0.45184 0.62177 0.0
C1623 C 0.56053 0.44611 0.58049 0.0
N1624 N 0.4959 0.45535 0.62202 0.0
N1625 N 0.53882 0.45034 0.58187 0.0
H1626 H 0.89018 0.64854 0.21601 0.0
H1627 H 0.98987 0.59241 0.28077 0.0
H1628 H 0.90118 0.6508 0.28811 0.0
H1629 H 0.98438 0.59756 0.20953 0.0
H1630 H 0.95469 0.60991 0.28331 0.0
H1631 H 0.92208 0.62619 0.21282 0.0
C1632 C 0.89923 0.64426 0.23118 0.0
C1633 C 0.8931 0.65171 0.25237 0.0
C1634 C 0.96103 0.60708 0.26707 0.0
C1635 C 0.92959 0.62609 0.24882 0.0
C1636 C 0.98101 0.59705 0.26565 0.0
C1637 C 0.98974 0.59366 0.24494 0.0
C1638 C 0.94987 0.61379 0.2476 0.0
C1639 C 0.97795 0.59995 0.22578 0.0
C1640 C 0.91745 0.63151 0.22933 0.0
C1641 C 0.90539 0.64556 0.27143 0.0
N1642 N 0.95858 0.60984 0.22756 0.0
N1643 N 0.92308 0.63318 0.26919 0.0
H1644 H 0.20328 0.0087 0.30607 0.0
H1645 H 0.08537 0.97267 0.35162 0.0
H1646 H 0.19577 0.99617 0.37484 0.0
H1647 H 0.09283 0.98756 0.28368 0.0
H1648 H 0.12627 0.97777 0.35973 0.0
H1649 H 0.16337 0.99772 0.29679 0.0
C1650 C 0.19327 0.00353 0.31921 0.0
C1651 C 0.20288 0.00352 0.34132 0.0
C1652 C 0.11902 0.97974 0.34299 0.0
C1653 C 0.15708 0.99096 0.33079 0.0
C1654 C 0.09575 0.97676 0.33839 0.0
C1655 C 0.08604 0.97972 0.31702 0.0
C1656 C 0.13249 0.98582 0.32605 0.0
C1657 C 0.09992 0.98513 0.30037 0.0
C1658 C 0.17045 0.99726 0.31389 0.0
C1659 C 0.18907 0.99655 0.35761 0.0
N1660 N 0.1225 0.98813 0.30525 0.0
N1661 N 0.16686 0.99068 0.35204 0.0
H1662 H 0.34521 0.07491 0.73489 0.0
H1663 H 0.47249 0.04863 0.76079 0.0
H1664 H 0.36696 0.03331 0.78614 0.0
H1665 H 0.45044 0.08922 0.709 0.0
H1666 H 0.43466 0.04647 0.77343 0.0
H1667 H 0.38428 0.08413 0.7283 0.0
C1668 C 0.35821 0.06789 0.74493 0.0
C1669 C 0.35277 0.0531 0.76092 0.0
C1670 C 0.43812 0.05607 0.75946 0.0
C1671 C 0.39757 0.06347 0.75335 0.0
C1672 C 0.45966 0.05732 0.75233 0.0
C1673 C 0.46428 0.06908 0.73392 0.0
C1674 C 0.42119 0.06656 0.74791 0.0
C1675 C 0.44732 0.08001 0.72332 0.0
C1676 C 0.38053 0.07314 0.74114 0.0
C1677 C 0.37034 0.04463 0.77351 0.0
N1678 N 0.42641 0.07836 0.73037 0.0
N1679 N 0.39193 0.04977 0.76931 0.0
H1680 H 0.59687 0.56274 0.43099 0.0
H1681 H 0.66774 0.47231 0.3704 0.0
H1682 H 0.65045 0.5803 0.39041 0.0
H1683 H 0.61755 0.45573 0.41484 0.0
H1684 H 0.66102 0.51197 0.37658 0.0
H1685 H 0.60324 0.52333 0.42403 0.0
C1686 C 0.61001 0.55832 0.42064 0.0
C1687 C 0.62328 0.57487 0.41141 0.0
C1688 C 0.65156 0.49971 0.3851 0.0
C1689 C 0.63074 0.52974 0.40348 0.0
C1690 C 0.65542 0.47717 0.38159 0.0
C1691 C 0.64327 0.4611 0.39233 0.0
C1692 C 0.63535 0.506 0.39937 0.0
C1693 C 0.62732 0.46788 0.40645 0.0
C1694 C 0.61367 0.5358 0.41671 0.0
C1695 C 0.63996 0.56812 0.39802 0.0
N1696 N 0.62378 0.48989 0.40958 0.0
N1697 N 0.64324 0.54607 0.39447 0.0
H1698 H 0.7814 0.36466 0.07711 0.0
H1699 H 0.75229 0.4926 0.08045 0.0
H1700 H 0.73498 0.38892 0.02808 0.0
H1701 H 0.79907 0.46794 0.12858 0.0
H1702 H 0.74664 0.45507 0.06002 0.0
H1703 H 0.78904 0.4027 0.09533 0.0
C1704 C 0.77285 0.37799 0.07013 0.0
C1705 C 0.75745 0.37354 0.05107 0.0
C1706 C 0.75823 0.45787 0.07498 0.0
C1707 C 0.76612 0.41723 0.07192 0.0
C1708 C 0.76145 0.47923 0.08655 0.0
C1709 C 0.77614 0.48308 0.10605 0.0
C1710 C 0.76978 0.44038 0.08313 0.0
C1711 C 0.78761 0.46544 0.1135 0.0
C1712 C 0.77723 0.39974 0.08055 0.0
C1713 C 0.74693 0.39153 0.04277 0.0
N1714 N 0.78415 0.44479 0.10206 0.0
N1715 N 0.7514 0.41256 0.05328 0.0
H1716 H 0.20293 0.92691 0.61887 0.0
H1717 H 0.24878 0.02511 0.54784 0.0
H1718 H 0.24896 0.91789 0.56815 0.0
H1719 H 0.20231 0.03421 0.59788 0.0
H1720 H 0.24757 0.98519 0.55371 0.0
H1721 H 0.20082 0.96565 0.61007 0.0
C1722 C 0.21249 0.93302 0.60579 0.0
C1723 C 0.22625 0.91915 0.59433 0.0
C1724 C 0.23753 0.99584 0.56335 0.0
C1725 C 0.22398 0.96353 0.58422 0.0
C1726 C 0.23822 0.01856 0.55997 0.0
C1727 C 0.22561 0.03266 0.57243 0.0
C1728 C 0.22419 0.98734 0.57938 0.0
C1729 C 0.21224 0.02365 0.588 0.0
C1730 C 0.21129 0.95516 0.60078 0.0
C1731 C 0.2382 0.92798 0.57749 0.0
N1732 N 0.21192 0.00151 0.59112 0.0
N1733 N 0.23687 0.94963 0.57304 0.0
H1734 H 0.37971 0.20711 0.01751 0.0
H1735 H 0.29536 0.10199 0.96655 0.0
H1736 H 0.30881 0.21057 0.00174 0.0
H1737 H 0.3663 0.09904 0.9812 0.0
H1738 H 0.30064 0.14291 0.97453 0.0
H1739 H 0.37593 0.16876 0.99975 0.0
C1740 C 0.36338 0.19989 0.01013 0.0
C1741 C 0.3445 0.21201 0.01138 0.0
C1742 C 0.31513 0.1334 0.97564 0.0
C1743 C 0.34002 0.168 0.99109 0.0
C1744 C 0.31211 0.11012 0.97097 0.0
C1745 C 0.33047 0.09744 0.97318 0.0
C1746 C 0.33665 0.14386 0.98282 0.0
C1747 C 0.3518 0.10846 0.97923 0.0
C1748 C 0.36122 0.17797 -2e-05 0.0
C1749 C 0.3238 0.20182 0.00136 0.0
N1750 N 0.3543 0.13107 0.98406 0.0
N1751 N 0.32207 0.18034 0.99185 0.0
H1752 H 0.4145 0.58677 0.57428 0.0
H1753 H 0.39163 0.64279 0.45931 0.0
H1754 H 0.41724 0.65807 0.56891 0.0
H1755 H 0.39065 0.57143 0.46228 0.0
H1756 H 0.40225 0.64839 0.49968 0.0
H1757 H 0.40729 0.58035 0.53342 0.0
C1758 C 0.41388 0.60108 0.56451 0.0
C1759 C 0.41632 0.623 0.57505 0.0
C1760 C 0.39979 0.63146 0.4916 0.0
C1761 C 0.40818 0.61577 0.52839 0.0
C1762 C 0.39364 0.62832 0.46864 0.0
C1763 C 0.39017 0.60668 0.45783 0.0
C1764 C 0.40251 0.61277 0.50378 0.0
C1765 C 0.39313 0.58837 0.4703 0.0
C1766 C 0.40973 0.59738 0.5412 0.0
C1767 C 0.41537 0.64088 0.56156 0.0
N1768 N 0.39913 0.59181 0.49276 0.0
N1769 N 0.41126 0.63685 0.53899 0.0
H1770 H 0.01213 0.80567 0.4078 0.0
H1771 H 0.05819 0.75445 0.5198 0.0
H1772 H 0.05189 0.74917 0.40817 0.0
H1773 H 0.01419 0.80734 0.51927 0.0
H1774 H 0.05895 0.75457 0.47904 0.0
H1775 H 0.0154 0.80881 0.44877 0.0
C1776 C 0.02164 0.79399 0.41648 0.0
C1777 C 0.03164 0.77705 0.4045 0.0
C1778 C 0.04925 0.76628 0.48781 0.0
C1779 C 0.03544 0.78054 0.45144 0.0
C1780 C 0.04889 0.76623 0.511 0.0
C1781 C 0.03615 0.78092 0.52259 0.0
C1782 C 0.03668 0.78111 0.47626 0.0
C1783 C 0.02426 0.79582 0.51071 0.0
C1784 C 0.02348 0.79578 0.43989 0.0
C1785 C 0.04381 0.76242 0.41668 0.0
N1786 N 0.02473 0.7955 0.48811 0.0
N1787 N 0.04529 0.76447 0.43946 0.0
H1788 H 0.58406 0.26886 0.93799 0.0
H1789 H 0.59445 0.22318 0.05943 0.0
H1790 H 0.60591 0.20406 0.95024 0.0
H1791 H 0.5744 0.2885 0.04738 0.0
H1792 H 0.59523 0.21434 0.0189 0.0
H1793 H 0.57703 0.27493 0.97735 0.0
C1794 C 0.58726 0.25583 0.94891 0.0
C1795 C 0.59577 0.23598 0.9408 0.0
C1796 C 0.59043 0.23053 0.02505 0.0
C1797 C 0.58778 0.24287 0.98599 0.0
C1798 C 0.58992 0.2355 0.04811 0.0
C1799 C 0.58431 0.25651 0.05644 0.0
C1800 C 0.58543 0.24681 0.01037 0.0
C1801 C 0.57874 0.27207 0.04138 0.0
C1802 C 0.58323 0.25932 0.97142 0.0
C1803 C 0.59947 0.21967 0.95575 0.0
N1804 N 0.57955 0.26696 0.01901 0.0
N1805 N 0.59559 0.22354 0.97764 0.0
H1806 H 0.97988 0.31846 0.15312 0.0
H1807 H 0.95796 0.38072 0.04162 0.0
H1808 H 0.97701 0.38996 0.15327 0.0
H1809 H 0.96062 0.3094 0.04158 0.0
H1810 H 0.96275 0.38429 0.08277 0.0
H1811 H 0.97081 0.31456 0.11253 0.0
C1812 C 0.97726 0.33335 0.14465 0.0
C1813 C 0.97933 0.3546 0.15665 0.0
C1814 C 0.96214 0.36782 0.07382 0.0
C1815 C 0.96896 0.35024 0.11008 0.0
C1816 C 0.95936 0.36582 0.0504 0.0
C1817 C 0.95891 0.34477 0.0385 0.0
C1818 C 0.96459 0.34859 0.08527 0.0
C1819 C 0.96088 0.32591 0.05037 0.0
C1820 C 0.97208 0.3311 0.12144 0.0
C1821 C 0.97567 0.37326 0.14473 0.0
N1822 N 0.96373 0.32826 0.07316 0.0
N1823 N 0.97076 0.37065 0.12211 0.0
loop_
_geom_bond_atom_site_label_1
_geom_bond_atom_site_label_2
_geom_bond_distance
_geom_bond_site_symmetry_2
_ccdc_geom_bond_type
O0 Cd1 2.300 . S
O0 C7 1.275 . S
Cd1 O0 2.300 . S
Cd1 O9 2.381 . S
Cd1 O10 2.378 . S
O2 Cd3 2.385 . S
O2 C7 1.255 . S
Cd3 O2 2.385 . S
Cd3 O4 2.317 . S
O4 Cd3 2.317 . S
O4 C5 1.232 . S
C5 O4 1.232 . S
C5 O6 1.218 . S
O6 C5 1.218 . S
C7 O0 1.275 . S
C7 O2 1.255 . S
C8 O9 1.258 . S
C8 O10 1.256 . S
O9 Cd1 2.381 . S
O9 C8 1.258 . S
O10 Cd1 2.378 . S
O10 C8 1.256 . S
O11 Cd12 2.300 . S
O11 C18 1.275 . S
Cd12 O11 2.300 . S
Cd12 O20 2.381 . S
Cd12 O21 2.378 . S
O13 Cd14 2.385 . S
O13 C18 1.255 . S
Cd14 O13 2.385 . S
Cd14 O15 2.317 . S
O15 Cd14 2.317 . S
O15 C16 1.232 . S
C16 O15 1.232 . S
C16 O17 1.218 . S
O17 C16 1.218 . S
C18 O11 1.275 . S
C18 O13 1.255 . S
C19 O20 1.258 . S
C19 O21 1.256 . S
O20 Cd12 2.381 . S
O20 C19 1.258 . S
O21 Cd12 2.378 . S
O21 C19 1.256 . S
O22 Cd23 2.302 . S
O22 C29 1.278 . S
Cd23 O22 2.302 . S
Cd23 O31 2.381 1_565 S
Cd23 O32 2.378 . S
O24 Cd25 2.385 . S
O24 C29 1.255 . S
Cd25 O24 2.385 . S
Cd25 O26 2.317 . S
O26 Cd25 2.317 . S
O26 C27 1.232 . S
C27 O26 1.232 . S
C27 O28 1.218 . S
O28 C27 1.218 . S
C29 O22 1.278 . S
C29 O24 1.255 . S
C30 O31 1.258 . S
C30 O32 1.256 1_545 S
O31 Cd23 2.381 1_545 S
O31 C30 1.258 . S
O32 Cd23 2.378 . S
O32 C30 1.256 1_565 S
O33 Cd34 2.300 1_565 S
O33 C40 1.275 1_565 S
Cd34 O33 2.300 1_545 S
Cd34 O42 2.381 1_545 S
Cd34 O43 2.378 . S
O35 Cd36 2.385 . S
O35 C40 1.255 . S
Cd36 O35 2.385 . S
Cd36 O37 2.317 . S
O37 Cd36 2.317 . S
O37 C38 1.232 . S
C38 O37 1.232 . S
C38 O39 1.218 . S
O39 C38 1.218 . S
C40 O33 1.275 1_545 S
C40 O35 1.255 . S
C41 O42 1.258 1_545 S
C41 O43 1.256 . S
O42 Cd34 2.381 1_565 S
O42 C41 1.258 1_565 S
O43 Cd34 2.378 . S
O43 C41 1.256 . S
O44 Cd45 2.300 . S
O44 C51 1.275 . S
Cd45 O44 2.300 . S
Cd45 O53 2.381 . S
Cd45 O54 2.378 . S
O46 Cd47 2.385 . S
O46 C51 1.255 . S
Cd47 O46 2.385 . S
Cd47 O48 2.317 . S
O48 Cd47 2.317 . S
O48 C49 1.232 . S
C49 O48 1.232 . S
C49 O50 1.218 . S
O50 C49 1.218 . S
C51 O44 1.275 . S
C51 O46 1.255 . S
C52 O53 1.258 . S
C52 O54 1.256 . S
O53 Cd45 2.381 . S
O53 C52 1.258 . S
O54 Cd45 2.378 . S
O54 C52 1.256 . S
O55 Cd56 2.300 1_556 S
O55 C62 1.275 1_556 S
Cd56 O55 2.300 1_554 S
Cd56 O64 2.381 1_554 S
Cd56 O65 2.378 . S
O57 Cd58 2.385 . S
O57 C62 1.255 . S
Cd58 O57 2.385 . S
Cd58 O59 2.317 . S
O59 Cd58 2.317 . S
O59 C60 1.232 . S
C60 O59 1.232 . S
C60 O61 1.218 . S
O61 C60 1.218 . S
C62 O55 1.275 1_554 S
C62 O57 1.255 . S
C63 O64 1.258 1_554 S
C63 O65 1.256 . S
O64 Cd56 2.381 1_556 S
O64 C63 1.258 1_556 S
O65 Cd56 2.378 . S
O65 C63 1.256 . S
O66 Cd67 2.300 . S
O66 C73 1.275 . S
Cd67 O66 2.300 . S
Cd67 O75 2.381 . S
Cd67 O76 2.378 . S
O68 Cd69 2.385 . S
O68 C73 1.255 . S
Cd69 O68 2.385 . S
Cd69 O70 2.317 . S
O70 Cd69 2.317 . S
O70 C71 1.232 . S
C71 O70 1.232 . S
C71 O72 1.218 . S
O72 C71 1.218 . S
C73 O66 1.275 . S
C73 O68 1.255 . S
C74 O75 1.258 . S
C74 O76 1.256 . S
O75 Cd67 2.381 . S
O75 C74 1.258 . S
O76 Cd67 2.378 . S
O76 C74 1.256 . S
O77 Cd78 2.302 . S
O77 C84 1.278 . S
Cd78 O77 2.302 . S
Cd78 O86 2.381 1_556 S
Cd78 O87 2.378 . S
O79 Cd80 2.385 . S
O79 C84 1.255 . S
Cd80 O79 2.385 . S
Cd80 O81 2.317 . S
O81 Cd80 2.317 . S
O81 C82 1.232 . S
C82 O81 1.232 . S
C82 O83 1.218 . S
O83 C82 1.218 . S
C84 O77 1.278 . S
C84 O79 1.255 . S
C85 O86 1.258 . S
C85 O87 1.256 1_554 S
O86 Cd78 2.381 1_554 S
O86 C85 1.258 . S
O87 Cd78 2.378 . S
O87 C85 1.256 1_556 S
O88 Cd89 2.300 . S
O88 C95 1.275 . S
Cd89 O88 2.300 . S
Cd89 O97 2.381 . S
Cd89 O98 2.378 . S
O90 Cd91 2.385 . S
O90 C95 1.255 . S
Cd91 O90 2.385 . S
Cd91 O92 2.317 . S
O92 Cd91 2.317 . S
O92 C93 1.232 . S
C93 O92 1.232 . S
C93 O94 1.218 . S
O94 C93 1.218 . S
C95 O88 1.275 . S
C95 O90 1.255 . S
C96 O97 1.258 . S
C96 O98 1.256 . S
O97 Cd89 2.381 . S
O97 C96 1.258 . S
O98 Cd89 2.378 . S
O98 C96 1.256 . S
O99 Cd100 2.300 1_655 S
O99 C106 1.275 1_655 S
Cd100 O99 2.300 1_455 S
Cd100 O108 2.381 1_455 S
Cd100 O109 2.378 . S
O101 Cd102 2.385 . S
O101 C106 1.255 . S
Cd102 O101 2.385 . S
Cd102 O103 2.317 . S
O103 Cd102 2.317 . S
O103 C104 1.232 . S
C104 O103 1.232 . S
C104 O105 1.218 . S
O105 C104 1.218 . S
C106 O99 1.275 1_455 S
C106 O101 1.255 . S
C107 O108 1.258 1_455 S
C107 O109 1.256 . S
O108 Cd100 2.381 1_655 S
O108 C107 1.258 1_655 S
O109 Cd100 2.378 . S
O109 C107 1.256 . S
O110 Cd111 2.300 . S
O110 C117 1.275 . S
Cd111 O110 2.300 . S
Cd111 O119 2.381 . S
Cd111 O120 2.378 . S
O112 Cd113 2.385 . S
O112 C117 1.255 . S
Cd113 O112 2.385 . S
Cd113 O114 2.317 . S
O114 Cd113 2.317 . S
O114 C115 1.232 . S
C115 O114 1.232 . S
C115 O116 1.218 . S
O116 C115 1.218 . S
C117 O110 1.275 . S
C117 O112 1.255 . S
C118 O119 1.258 . S
C118 O120 1.256 . S
O119 Cd111 2.381 . S
O119 C118 1.258 . S
O120 Cd111 2.378 . S
O120 C118 1.256 . S
O121 Cd122 2.302 . S
O121 C128 1.278 . S
Cd122 O121 2.302 . S
Cd122 O130 2.381 1_655 S
Cd122 O131 2.378 . S
O123 Cd124 2.385 . S
O123 C128 1.255 . S
Cd124 O123 2.385 . S
Cd124 O125 2.317 . S
O125 Cd124 2.317 . S
O125 C126 1.232 . S
C126 O125 1.232 . S
C126 O127 1.218 . S
O127 C126 1.218 . S
C128 O121 1.278 . S
C128 O123 1.255 . S
C129 O130 1.258 . S
C129 O131 1.256 1_455 S
O130 Cd122 2.381 1_455 S
O130 C129 1.258 . S
O131 Cd122 2.378 . S
O131 C129 1.256 1_655 S
O132 Cd133 2.300 . S
O132 C139 1.275 . S
Cd133 O132 2.300 . S
Cd133 O141 2.381 . S
Cd133 O142 2.378 . S
O134 Cd135 2.385 . S
O134 C139 1.255 . S
Cd135 O134 2.385 . S
Cd135 O136 2.317 . S
O136 Cd135 2.317 . S
O136 C137 1.232 . S
C137 O136 1.232 . S
C137 O138 1.218 . S
O138 C137 1.218 . S
C139 O132 1.275 . S
C139 O134 1.255 . S
C140 O141 1.258 . S
C140 O142 1.256 . S
O141 Cd133 2.381 . S
O141 C140 1.258 . S
O142 Cd133 2.378 . S
O142 C140 1.256 . S
O143 Cd144 2.300 . S
O143 C150 1.275 . S
Cd144 O143 2.300 . S
Cd144 O152 2.381 . S
Cd144 O153 2.378 . S
O145 Cd146 2.385 . S
O145 C150 1.255 . S
Cd146 O145 2.385 . S
Cd146 O147 2.317 . S
O147 Cd146 2.317 . S
O147 C148 1.232 . S
C148 O147 1.232 . S
C148 O149 1.218 . S
O149 C148 1.218 . S
C150 O143 1.275 . S
C150 O145 1.255 . S
C151 O152 1.258 . S
C151 O153 1.256 . S
O152 Cd144 2.381 . S
O152 C151 1.258 . S
O153 Cd144 2.378 . S
O153 C151 1.256 . S
O154 Cd155 2.300 1_545 S
O154 C161 1.275 . S
Cd155 O154 2.300 1_565 S
Cd155 O163 2.381 1_565 S
Cd155 O164 2.378 . S
O156 Cd157 2.385 . S
O156 C161 1.255 1_565 S
Cd157 O156 2.385 . S
Cd157 O158 2.317 . S
O158 Cd157 2.317 . S
O158 C159 1.232 . S
C159 O158 1.232 . S
C159 O160 1.218 . S
O160 C159 1.218 . S
C161 O154 1.275 . S
C161 O156 1.255 1_545 S
C162 O163 1.258 1_565 S
C162 O164 1.256 . S
O163 Cd155 2.381 1_545 S
O163 C162 1.258 1_545 S
O164 Cd155 2.378 . S
O164 C162 1.256 . S
O165 Cd166 2.300 1_565 S
O165 C172 1.275 1_565 S
Cd166 O165 2.300 1_545 S
Cd166 O174 2.381 1_545 S
Cd166 O175 2.378 . S
O167 Cd168 2.385 . S
O167 C172 1.255 . S
Cd168 O167 2.385 . S
Cd168 O169 2.317 . S
O169 Cd168 2.317 . S
O169 C170 1.232 . S
C170 O169 1.232 . S
C170 O171 1.218 . S
O171 C170 1.218 . S
C172 O165 1.275 1_545 S
C172 O167 1.255 . S
C173 O174 1.258 1_545 S
C173 O175 1.256 . S
O174 Cd166 2.381 1_565 S
O174 C173 1.258 1_565 S
O175 Cd166 2.378 . S
O175 C173 1.256 . S
O176 Cd177 2.300 . S
O176 C183 1.275 . S
Cd177 O176 2.300 . S
Cd177 O185 2.381 . S
Cd177 O186 2.378 . S
O178 Cd179 2.385 . S
O178 C183 1.255 . S
Cd179 O178 2.385 . S
Cd179 O180 2.317 . S
O180 Cd179 2.317 . S
O180 C181 1.232 . S
C181 O180 1.232 . S
C181 O182 1.218 . S
O182 C181 1.218 . S
C183 O176 1.275 . S
C183 O178 1.255 . S
C184 O185 1.258 . S
C184 O186 1.256 . S
O185 Cd177 2.381 . S
O185 C184 1.258 . S
O186 Cd177 2.378 . S
O186 C184 1.256 . S
O187 Cd188 2.300 1_556 S
O187 C194 1.275 1_556 S
Cd188 O187 2.300 1_554 S
Cd188 O196 2.381 1_554 S
Cd188 O197 2.378 . S
O189 Cd190 2.385 . S
O189 C194 1.255 . S
Cd190 O189 2.385 . S
Cd190 O191 2.317 . S
O191 Cd190 2.317 . S
O191 C192 1.232 . S
C192 O191 1.232 . S
C192 O193 1.218 . S
O193 C192 1.218 . S
C194 O187 1.275 1_554 S
C194 O189 1.255 . S
C195 O196 1.258 1_554 S
C195 O197 1.256 . S
O196 Cd188 2.381 1_556 S
O196 C195 1.258 1_556 S
O197 Cd188 2.378 . S
O197 C195 1.256 . S
O198 Cd199 2.300 . S
O198 C205 1.275 . S
Cd199 O198 2.300 . S
Cd199 O207 2.381 . S
Cd199 O208 2.378 . S
O200 Cd201 2.385 . S
O200 C205 1.255 . S
Cd201 O200 2.385 . S
Cd201 O202 2.317 . S
O202 Cd201 2.317 . S
O202 C203 1.232 . S
C203 O202 1.232 . S
C203 O204 1.218 . S
O204 C203 1.218 . S
C205 O198 1.275 . S
C205 O200 1.255 . S
C206 O207 1.258 . S
C206 O208 1.256 . S
O207 Cd199 2.381 . S
O207 C206 1.258 . S
O208 Cd199 2.378 . S
O208 C206 1.256 . S
O209 Cd210 2.300 1_554 S
O209 C216 1.275 . S
Cd210 O209 2.300 1_556 S
Cd210 O218 2.381 1_556 S
Cd210 O219 2.378 . S
O211 Cd212 2.385 . S
O211 C216 1.255 1_556 S
Cd212 O211 2.385 . S
Cd212 O213 2.317 . S
O213 Cd212 2.317 . S
O213 C214 1.232 . S
C214 O213 1.232 . S
C214 O215 1.218 . S
O215 C214 1.218 . S
C216 O209 1.275 . S
C216 O211 1.255 1_554 S
C217 O218 1.258 1_556 S
C217 O219 1.256 . S
O218 Cd210 2.381 1_554 S
O218 C217 1.258 1_554 S
O219 Cd210 2.378 . S
O219 C217 1.256 . S
O220 Cd221 2.300 . S
O220 C227 1.275 . S
Cd221 O220 2.300 . S
Cd221 O229 2.381 . S
Cd221 O230 2.378 . S
O222 Cd223 2.385 . S
O222 C227 1.255 . S
Cd223 O222 2.385 . S
Cd223 O224 2.317 . S
O224 Cd223 2.317 . S
O224 C225 1.232 . S
C225 O224 1.232 . S
C225 O226 1.218 . S
O226 C225 1.218 . S
C227 O220 1.275 . S
C227 O222 1.255 . S
C228 O229 1.258 . S
C228 O230 1.256 . S
O229 Cd221 2.381 . S
O229 C228 1.258 . S
O230 Cd221 2.378 . S
O230 C228 1.256 . S
O231 Cd232 2.300 1_655 S
O231 C238 1.275 1_655 S
Cd232 O231 2.300 1_455 S
Cd232 O240 2.381 1_455 S
Cd232 O241 2.378 . S
O233 Cd234 2.385 . S
O233 C238 1.255 . S
Cd234 O233 2.385 . S
Cd234 O235 2.317 . S
O235 Cd234 2.317 . S
O235 C236 1.232 . S
C236 O235 1.232 . S
C236 O237 1.218 . S
O237 C236 1.218 . S
C238 O231 1.275 1_455 S
C238 O233 1.255 . S
C239 O240 1.258 1_455 S
C239 O241 1.256 . S
O240 Cd232 2.381 1_655 S
O240 C239 1.258 1_655 S
O241 Cd232 2.378 . S
O241 C239 1.256 . S
O242 Cd243 2.300 . S
O242 C249 1.275 . S
Cd243 O242 2.300 . S
Cd243 O251 2.381 . S
Cd243 O252 2.378 . S
O244 Cd245 2.385 . S
O244 C249 1.255 . S
Cd245 O244 2.385 . S
Cd245 O246 2.317 . S
O246 Cd245 2.317 . S
O246 C247 1.232 . S
C247 O246 1.232 . S
C247 O248 1.218 . S
O248 C247 1.218 . S
C249 O242 1.275 . S
C249 O244 1.255 . S
C250 O251 1.258 . S
C250 O252 1.256 . S
O251 Cd243 2.381 . S
O251 C250 1.258 . S
O252 Cd243 2.378 . S
O252 C250 1.256 . S
O253 Cd254 2.300 1_455 S
O253 C260 1.275 . S
Cd254 O253 2.300 1_655 S
Cd254 O262 2.381 1_655 S
Cd254 O263 2.378 . S
O255 Cd256 2.385 . S
O255 C260 1.255 1_655 S
Cd256 O255 2.385 . S
Cd256 O257 2.317 . S
O257 Cd256 2.317 . S
O257 C258 1.232 . S
C258 O257 1.232 . S
C258 O259 1.218 . S
O259 C258 1.218 . S
C260 O253 1.275 . S
C260 O255 1.255 1_455 S
C261 O262 1.258 1_655 S
C261 O263 1.256 . S
O262 Cd254 2.381 1_455 S
O262 C261 1.258 1_455 S
O263 Cd254 2.378 . S
O263 C261 1.256 . S
H264 C267 0.929 . S
H265 C270 0.929 . S
H266 C272 0.930 . S
C267 H264 0.929 . S
C267 C268 1.398 . S
C267 C269 1.396 . S
C268 C267 1.398 . S
C268 C272 1.407 . S
C269 C267 1.396 . S
C269 C270 1.394 . S
C270 H265 0.929 . S
C270 C269 1.394 . S
C270 C271 1.382 . S
C271 C270 1.382 . S
C271 C272 1.392 . S
C271 N273 1.420 . S
C272 H266 0.930 . S
C272 C268 1.407 . S
C272 C271 1.392 . S
N273 C271 1.420 . S
N273 C274 1.244 . S
C274 N273 1.244 . S
H275 C278 0.929 . S
H276 C281 0.929 . S
H277 C283 0.930 . S
C278 H275 0.929 . S
C278 C279 1.398 . S
C278 C280 1.396 . S
C279 C278 1.398 . S
C279 C283 1.407 . S
C280 C278 1.396 . S
C280 C281 1.394 . S
C281 H276 0.929 . S
C281 C280 1.394 . S
C281 C282 1.382 . S
C282 C281 1.382 . S
C282 C283 1.392 . S
C282 N284 1.420 . S
C283 H277 0.930 . S
C283 C279 1.407 . S
C283 C282 1.392 . S
N284 C282 1.420 . S
N284 C285 1.244 . S
C285 N284 1.244 . S
H286 C289 0.929 . S
H287 C292 0.929 . S
H288 C294 0.930 . S
C289 H286 0.929 . S
C289 C290 1.398 . S
C289 C291 1.396 . S
C290 C289 1.398 . S
C290 C294 1.407 . S
C291 C289 1.396 . S
C291 C292 1.394 1_565 S
C292 H287 0.929 . S
C292 C291 1.394 1_545 S
C292 C293 1.382 . S
C293 C292 1.382 . S
C293 C294 1.392 1_545 S
C293 N295 1.420 . S
C294 H288 0.930 . S
C294 C290 1.407 . S
C294 C293 1.392 1_565 S
N295 C293 1.420 . S
N295 C296 1.244 . S
C296 N295 1.244 . S
H297 C300 0.929 1_545 S
H298 C303 0.929 . S
H299 C305 0.930 . S
C300 H297 0.929 1_565 S
C300 C301 1.398 . S
C300 C302 1.396 . S
C301 C300 1.398 . S
C301 C305 1.407 . S
C302 C300 1.396 . S
C302 C303 1.394 . S
C303 H298 0.929 . S
C303 C302 1.394 . S
C303 C304 1.382 . S
C304 C303 1.382 . S
C304 C305 1.392 . S
C304 N306 1.420 . S
C305 H299 0.930 . S
C305 C301 1.407 . S
C305 C304 1.392 . S
N306 C304 1.420 . S
N306 C307 1.244 . S
C307 N306 1.244 . S
H308 C311 0.929 . S
H309 C314 0.929 . S
H310 C316 0.930 . S
C311 H308 0.929 . S
C311 C312 1.398 . S
C311 C313 1.396 . S
C312 C311 1.398 . S
C312 C316 1.407 . S
C313 C311 1.396 . S
C313 C314 1.394 . S
C314 H309 0.929 . S
C314 C313 1.394 . S
C314 C315 1.382 . S
C315 C314 1.382 . S
C315 C316 1.392 . S
C315 N317 1.420 . S
C316 H310 0.930 . S
C316 C312 1.407 . S
C316 C315 1.392 . S
N317 C315 1.420 . S
N317 C318 1.244 . S
C318 N317 1.244 . S
H319 C322 0.929 1_554 S
H320 C325 0.929 . S
H321 C327 0.930 . S
C322 H319 0.929 1_556 S
C322 C323 1.398 . S
C322 C324 1.396 . S
C323 C322 1.398 . S
C323 C327 1.407 . S
C324 C322 1.396 . S
C324 C325 1.394 . S
C325 H320 0.929 . S
C325 C324 1.394 . S
C325 C326 1.382 . S
C326 C325 1.382 . S
C326 C327 1.392 . S
C326 N328 1.420 . S
C327 H321 0.930 . S
C327 C323 1.407 . S
C327 C326 1.392 . S
N328 C326 1.420 . S
N328 C329 1.244 . S
C329 N328 1.244 . S
H330 C333 0.929 . S
H331 C336 0.929 . S
H332 C338 0.930 . S
C333 H330 0.929 . S
C333 C334 1.398 . S
C333 C335 1.396 . S
C334 C333 1.398 . S
C334 C338 1.407 . S
C335 C333 1.396 . S
C335 C336 1.394 . S
C336 H331 0.929 . S
C336 C335 1.394 . S
C336 C337 1.382 . S
C337 C336 1.382 . S
C337 C338 1.392 . S
C337 N339 1.420 . S
C338 H332 0.930 . S
C338 C334 1.407 . S
C338 C337 1.392 . S
N339 C337 1.420 . S
N339 C340 1.244 . S
C340 N339 1.244 . S
H341 C344 0.929 . S
H342 C347 0.929 . S
H343 C349 0.930 . S
C344 H341 0.929 . S
C344 C345 1.398 . S
C344 C346 1.396 . S
C345 C344 1.398 . S
C345 C349 1.407 . S
C346 C344 1.396 . S
C346 C347 1.394 1_556 S
C347 H342 0.929 . S
C347 C346 1.394 1_554 S
C347 C348 1.382 . S
C348 C347 1.382 . S
C348 C349 1.392 1_554 S
C348 N350 1.420 . S
C349 H343 0.930 . S
C349 C345 1.407 . S
C349 C348 1.392 1_556 S
N350 C348 1.420 . S
N350 C351 1.244 . S
C351 N350 1.244 . S
H352 C355 0.929 . S
H353 C358 0.929 . S
H354 C360 0.930 . S
C355 H352 0.929 . S
C355 C356 1.398 . S
C355 C357 1.396 . S
C356 C355 1.398 . S
C356 C360 1.407 . S
C357 C355 1.396 . S
C357 C358 1.394 . S
C358 H353 0.929 . S
C358 C357 1.394 . S
C358 C359 1.382 . S
C359 C358 1.382 . S
C359 C360 1.392 . S
C359 N361 1.420 . S
C360 H354 0.930 . S
C360 C356 1.407 . S
C360 C359 1.392 . S
N361 C359 1.420 . S
N361 C362 1.244 . S
C362 N361 1.244 . S
H363 C366 0.929 1_455 S
H364 C369 0.929 . S
H365 C371 0.930 . S
C366 H363 0.929 1_655 S
C366 C367 1.398 . S
C366 C368 1.396 . S
C367 C366 1.398 . S
C367 C371 1.407 . S
C368 C366 1.396 . S
C368 C369 1.394 . S
C369 H364 0.929 . S
C369 C368 1.394 . S
C369 C370 1.382 . S
C370 C369 1.382 . S
C370 C371 1.392 . S
C370 N372 1.420 . S
C371 H365 0.930 . S
C371 C367 1.407 . S
C371 C370 1.392 . S
N372 C370 1.420 . S
N372 C373 1.244 . S
C373 N372 1.244 . S
H374 C377 0.929 . S
H375 C380 0.929 . S
H376 C382 0.930 . S
C377 H374 0.929 . S
C377 C378 1.398 . S
C377 C379 1.396 . S
C378 C377 1.398 . S
C378 C382 1.407 . S
C379 C377 1.396 . S
C379 C380 1.394 . S
C380 H375 0.929 . S
C380 C379 1.394 . S
C380 C381 1.382 . S
C381 C380 1.382 . S
C381 C382 1.392 . S
C381 N383 1.420 . S
C382 H376 0.930 . S
C382 C378 1.407 . S
C382 C381 1.392 . S
N383 C381 1.420 . S
N383 C384 1.244 . S
C384 N383 1.244 . S
H385 C388 0.929 . S
H386 C391 0.929 . S
H387 C393 0.930 . S
C388 H385 0.929 . S
C388 C389 1.398 . S
C388 C390 1.396 . S
C389 C388 1.398 . S
C389 C393 1.407 . S
C390 C388 1.396 . S
C390 C391 1.394 1_655 S
C391 H386 0.929 . S
C391 C390 1.394 1_455 S
C391 C392 1.382 . S
C392 C391 1.382 . S
C392 C393 1.392 1_455 S
C392 N394 1.420 . S
C393 H387 0.930 . S
C393 C389 1.407 . S
C393 C392 1.392 1_655 S
N394 C392 1.420 . S
N394 C395 1.244 . S
C395 N394 1.244 . S
H396 C399 0.929 . S
H397 C402 0.929 . S
H398 C404 0.930 . S
C399 H396 0.929 . S
C399 C400 1.398 . S
C399 C401 1.396 . S
C400 C399 1.398 . S
C400 C404 1.407 . S
C401 C399 1.396 . S
C401 C402 1.394 . S
C402 H397 0.929 . S
C402 C401 1.394 . S
C402 C403 1.382 . S
C403 C402 1.382 . S
C403 C404 1.392 . S
C403 N405 1.420 . S
C404 H398 0.930 . S
C404 C400 1.407 . S
C404 C403 1.392 . S
N405 C403 1.420 . S
N405 C406 1.244 . S
C406 N405 1.244 . S
H407 C410 0.929 . S
H408 C413 0.929 . S
H409 C415 0.930 . S
C410 H407 0.929 . S
C410 C411 1.398 . S
C410 C412 1.396 . S
C411 C410 1.398 . S
C411 C415 1.407 . S
C412 C410 1.396 . S
C412 C413 1.394 . S
C413 H408 0.929 . S
C413 C412 1.394 . S
C413 C414 1.382 . S
C414 C413 1.382 . S
C414 C415 1.392 . S
C414 N416 1.420 . S
C415 H409 0.930 . S
C415 C411 1.407 . S
C415 C414 1.392 . S
N416 C414 1.420 . S
N416 C417 1.244 . S
C417 N416 1.244 . S
H418 C421 0.929 . S
H419 C424 0.929 . S
H420 C426 0.930 . S
C421 H418 0.929 . S
C421 C422 1.398 . S
C421 C423 1.396 . S
C422 C421 1.398 . S
C422 C426 1.407 . S
C423 C421 1.396 . S
C423 C424 1.394 1_545 S
C424 H419 0.929 . S
C424 C423 1.394 1_565 S
C424 C425 1.382 . S
C425 C424 1.382 . S
C425 C426 1.392 1_565 S
C425 N427 1.420 . S
C426 H420 0.930 . S
C426 C422 1.407 . S
C426 C425 1.392 1_545 S
N427 C425 1.420 . S
N427 C428 1.244 . S
C428 N427 1.244 . S
H429 C432 0.929 1_565 S
H430 C435 0.929 . S
H431 C437 0.930 . S
C432 H429 0.929 1_545 S
C432 C433 1.398 . S
C432 C434 1.396 . S
C433 C432 1.398 . S
C433 C437 1.407 . S
C434 C432 1.396 . S
C434 C435 1.394 . S
C435 H430 0.929 . S
C435 C434 1.394 . S
C435 C436 1.382 . S
C436 C435 1.382 . S
C436 C437 1.392 . S
C436 N438 1.420 . S
C437 H431 0.930 . S
C437 C433 1.407 . S
C437 C436 1.392 . S
N438 C436 1.420 . S
N438 C439 1.244 . S
C439 N438 1.244 . S
H440 C443 0.929 . S
H441 C446 0.929 . S
H442 C448 0.930 . S
C443 H440 0.929 . S
C443 C444 1.398 . S
C443 C445 1.396 . S
C444 C443 1.398 . S
C444 C448 1.407 . S
C445 C443 1.396 . S
C445 C446 1.394 . S
C446 H441 0.929 . S
C446 C445 1.394 . S
C446 C447 1.382 . S
C447 C446 1.382 . S
C447 C448 1.392 . S
C447 N449 1.420 . S
C448 H442 0.930 . S
C448 C444 1.407 . S
C448 C447 1.392 . S
N449 C447 1.420 . S
N449 C450 1.244 . S
C450 N449 1.244 . S
H451 C454 0.929 1_556 S
H452 C457 0.929 . S
H453 C459 0.930 . S
C454 H451 0.929 1_554 S
C454 C455 1.398 . S
C454 C456 1.396 . S
C455 C454 1.398 . S
C455 C459 1.407 . S
C456 C454 1.396 . S
C456 C457 1.394 . S
C457 H452 0.929 . S
C457 C456 1.394 . S
C457 C458 1.382 . S
C458 C457 1.382 . S
C458 C459 1.392 . S
C458 N460 1.420 . S
C459 H453 0.930 . S
C459 C455 1.407 . S
C459 C458 1.392 . S
N460 C458 1.420 . S
N460 C461 1.244 . S
C461 N460 1.244 . S
H462 C465 0.929 . S
H463 C468 0.929 . S
H464 C470 0.930 . S
C465 H462 0.929 . S
C465 C466 1.398 . S
C465 C467 1.396 . S
C466 C465 1.398 . S
C466 C470 1.407 . S
C467 C465 1.396 . S
C467 C468 1.394 . S
C468 H463 0.929 . S
C468 C467 1.394 . S
C468 C469 1.382 . S
C469 C468 1.382 . S
C469 C470 1.392 . S
C469 N471 1.420 . S
C470 H464 0.930 . S
C470 C466 1.407 . S
C470 C469 1.392 . S
N471 C469 1.420 . S
N471 C472 1.244 . S
C472 N471 1.244 . S
H473 C476 0.929 . S
H474 C479 0.929 . S
H475 C481 0.930 . S
C476 H473 0.929 . S
C476 C477 1.398 . S
C476 C478 1.396 . S
C477 C476 1.398 . S
C477 C481 1.407 . S
C478 C476 1.396 . S
C478 C479 1.394 1_554 S
C479 H474 0.929 . S
C479 C478 1.394 1_556 S
C479 C480 1.382 . S
C480 C479 1.382 . S
C480 C481 1.392 1_556 S
C480 N482 1.420 . S
C481 H475 0.930 . S
C481 C477 1.407 . S
C481 C480 1.392 1_554 S
N482 C480 1.420 . S
N482 C483 1.244 . S
C483 N482 1.244 . S
H484 C487 0.929 . S
H485 C490 0.929 . S
H486 C492 0.930 . S
C487 H484 0.929 . S
C487 C488 1.398 . S
C487 C489 1.396 . S
C488 C487 1.398 . S
C488 C492 1.407 . S
C489 C487 1.396 . S
C489 C490 1.394 . S
C490 H485 0.929 . S
C490 C489 1.394 . S
C490 C491 1.382 . S
C491 C490 1.382 . S
C491 C492 1.392 . S
C491 N493 1.420 . S
C492 H486 0.930 . S
C492 C488 1.407 . S
C492 C491 1.392 . S
N493 C491 1.420 . S
N493 C494 1.244 . S
C494 N493 1.244 . S
H495 C498 0.929 1_655 S
H496 C501 0.929 . S
H497 C503 0.930 . S
C498 H495 0.929 1_455 S
C498 C499 1.398 . S
C498 C500 1.396 . S
C499 C498 1.398 . S
C499 C503 1.407 . S
C500 C498 1.396 . S
C500 C501 1.394 . S
C501 H496 0.929 . S
C501 C500 1.394 . S
C501 C502 1.382 . S
C502 C501 1.382 . S
C502 C503 1.392 . S
C502 N504 1.420 . S
C503 H497 0.930 . S
C503 C499 1.407 . S
C503 C502 1.392 . S
N504 C502 1.420 . S
N504 C505 1.244 . S
C505 N504 1.244 . S
H506 C509 0.929 . S
H507 C512 0.929 . S
H508 C514 0.930 . S
C509 H506 0.929 . S
C509 C510 1.398 . S
C509 C511 1.396 . S
C510 C509 1.398 . S
C510 C514 1.407 . S
C511 C509 1.396 . S
C511 C512 1.394 . S
C512 H507 0.929 . S
C512 C511 1.394 . S
C512 C513 1.382 . S
C513 C512 1.382 . S
C513 C514 1.392 . S
C513 N515 1.420 . S
C514 H508 0.930 . S
C514 C510 1.407 . S
C514 C513 1.392 . S
N515 C513 1.420 . S
N515 C516 1.244 . S
C516 N515 1.244 . S
H517 C520 0.929 . S
H518 C523 0.929 . S
H519 C525 0.930 . S
C520 H517 0.929 . S
C520 C521 1.398 . S
C520 C522 1.396 . S
C521 C520 1.398 . S
C521 C525 1.407 . S
C522 C520 1.396 . S
C522 C523 1.394 1_455 S
C523 H518 0.929 . S
C523 C522 1.394 1_655 S
C523 C524 1.382 . S
C524 C523 1.382 . S
C524 C525 1.392 1_655 S
C524 N526 1.420 . S
C525 H519 0.930 . S
C525 C521 1.407 . S
C525 C524 1.392 1_455 S
N526 C524 1.420 . S
N526 C527 1.244 . S
C527 N526 1.244 . S
H528 C534 0.930 . S
H529 C538 0.930 . S
H530 C543 0.929 . S
H531 C541 0.929 . S
H532 C536 0.929 . S
H533 C542 0.929 . S
C534 H528 0.930 . S
C534 C535 1.367 . S
C534 C542 1.378 . S
C535 C534 1.367 . S
C535 C543 1.433 . S
C536 H532 0.929 . S
C536 C538 1.378 . S
C536 C540 1.350 . S
C537 C540 1.463 . S
C537 C542 1.350 . S
C537 N545 1.427 . S
C538 H529 0.930 . S
C538 C536 1.378 . S
C538 C539 1.367 . S
C539 C538 1.367 . S
C539 C541 1.433 . S
C540 C536 1.350 . S
C540 C537 1.463 . S
C540 N544 1.427 . S
C541 H531 0.929 . S
C541 C539 1.433 . S
C541 N544 1.384 . S
C542 H533 0.929 . S
C542 C534 1.378 . S
C542 C537 1.350 . S
C543 H530 0.929 . S
C543 C535 1.433 . S
C543 N545 1.384 . S
N544 C540 1.427 . S
N544 C541 1.384 . S
N545 C537 1.427 . S
N545 C543 1.384 . S
H546 C552 0.930 . S
H547 C556 0.930 . S
H548 C561 0.929 . S
H549 C559 0.929 . S
H550 C554 0.929 . S
H551 C560 0.929 . S
C552 H546 0.930 . S
C552 C553 1.367 . S
C552 C560 1.378 . S
C553 C552 1.367 . S
C553 C561 1.433 . S
C554 H550 0.929 . S
C554 C556 1.378 . S
C554 C558 1.350 . S
C555 C558 1.463 . S
C555 C560 1.350 . S
C555 N563 1.427 . S
C556 H547 0.930 . S
C556 C554 1.378 . S
C556 C557 1.367 . S
C557 C556 1.367 . S
C557 C559 1.433 . S
C558 C554 1.350 . S
C558 C555 1.463 . S
C558 N562 1.427 . S
C559 H549 0.929 . S
C559 C557 1.433 . S
C559 N562 1.384 . S
C560 H551 0.929 . S
C560 C552 1.378 . S
C560 C555 1.350 . S
C561 H548 0.929 . S
C561 C553 1.433 . S
C561 N563 1.384 . S
N562 C558 1.427 . S
N562 C559 1.384 . S
N563 C555 1.427 . S
N563 C561 1.384 . S
H564 C570 0.930 1_565 S
H565 C574 0.930 . S
H566 C579 0.929 . S
H567 C577 0.929 . S
H568 C572 0.929 . S
H569 C578 0.929 . S
C570 H564 0.930 1_545 S
C570 C571 1.367 . S
C570 C578 1.378 . S
C571 C570 1.367 . S
C571 C579 1.433 . S
C572 H568 0.929 . S
C572 C574 1.378 . S
C572 C576 1.350 . S
C573 C576 1.463 . S
C573 C578 1.350 . S
C573 N581 1.427 . S
C574 H565 0.930 . S
C574 C572 1.378 . S
C574 C575 1.367 . S
C575 C574 1.367 . S
C575 C577 1.433 . S
C576 C572 1.350 . S
C576 C573 1.463 . S
C576 N580 1.427 . S
C577 H567 0.929 . S
C577 C575 1.433 . S
C577 N580 1.384 . S
C578 H569 0.929 . S
C578 C570 1.378 . S
C578 C573 1.350 . S
C579 H566 0.929 . S
C579 C571 1.433 . S
C579 N581 1.384 . S
N580 C576 1.427 . S
N580 C577 1.384 . S
N581 C573 1.427 . S
N581 C579 1.384 . S
H582 C588 0.930 . S
H583 C592 0.930 1_545 S
H584 C597 0.929 . S
H585 C595 0.929 . S
H586 C590 0.945 . S
H587 C596 0.929 . S
C588 H582 0.930 . S
C588 C589 1.367 . S
C588 C596 1.378 . S
C589 C588 1.367 . S
C589 C597 1.433 1_565 S
C590 H586 0.945 . S
C590 C592 1.373 1_545 S
C590 C594 1.338 1_545 S
C591 C594 1.463 . S
C591 C596 1.350 . S
C591 N599 1.427 1_565 S
C592 H583 0.930 1_565 S
C592 C590 1.373 1_565 S
C592 C593 1.367 . S
C593 C592 1.367 . S
C593 C595 1.433 . S
C594 C590 1.338 1_565 S
C594 C591 1.463 . S
C594 N598 1.427 . S
C595 H585 0.929 . S
C595 C593 1.433 . S
C595 N598 1.384 . S
C596 H587 0.929 . S
C596 C588 1.378 . S
C596 C591 1.350 . S
C597 H584 0.929 . S
C597 C589 1.433 1_545 S
C597 N599 1.384 . S
N598 C594 1.427 . S
N598 C595 1.384 . S
N599 C591 1.427 1_545 S
N599 C597 1.384 . S
H600 C606 0.930 . S
H601 C610 0.930 . S
H602 C615 0.929 . S
H603 C613 0.929 . S
H604 C608 0.929 . S
H605 C614 0.929 . S
C606 H600 0.930 . S
C606 C607 1.367 . S
C606 C614 1.378 . S
C607 C606 1.367 . S
C607 C615 1.433 . S
C608 H604 0.929 . S
C608 C610 1.378 . S
C608 C612 1.350 . S
C609 C612 1.463 . S
C609 C614 1.350 . S
C609 N617 1.427 . S
C610 H601 0.930 . S
C610 C608 1.378 . S
C610 C611 1.367 . S
C611 C610 1.367 . S
C611 C613 1.433 . S
C612 C608 1.350 . S
C612 C609 1.463 . S
C612 N616 1.427 . S
C613 H603 0.929 . S
C613 C611 1.433 . S
C613 N616 1.384 . S
C614 H605 0.929 . S
C614 C606 1.378 . S
C614 C609 1.350 . S
C615 H602 0.929 . S
C615 C607 1.433 . S
C615 N617 1.384 . S
N616 C612 1.427 . S
N616 C613 1.384 . S
N617 C609 1.427 . S
N617 C615 1.384 . S
H618 C624 0.930 . S
H619 C628 0.930 . S
H620 C633 0.929 . S
H621 C631 0.929 . S
H622 C626 0.929 . S
H623 C632 0.929 . S
C624 H618 0.930 . S
C624 C625 1.367 1_554 S
C624 C632 1.378 . S
C625 C624 1.367 1_556 S
C625 C633 1.433 . S
C626 H622 0.929 . S
C626 C628 1.378 . S
C626 C630 1.350 . S
C627 C630 1.463 . S
C627 C632 1.350 1_556 S
C627 N635 1.427 . S
C628 H619 0.930 . S
C628 C626 1.378 . S
C628 C629 1.367 . S
C629 C628 1.367 . S
C629 C631 1.433 . S
C630 C626 1.350 . S
C630 C627 1.463 . S
C630 N634 1.427 . S
C631 H621 0.929 . S
C631 C629 1.433 . S
C631 N634 1.384 . S
C632 H623 0.929 . S
C632 C624 1.378 . S
C632 C627 1.350 1_554 S
C633 H620 0.929 . S
C633 C625 1.433 . S
C633 N635 1.384 . S
N634 C630 1.427 . S
N634 C631 1.384 . S
N635 C627 1.427 . S
N635 C633 1.384 . S
H636 C642 0.930 . S
H637 C646 0.930 . S
H638 C651 0.929 . S
H639 C649 0.929 . S
H640 C644 0.929 . S
H641 C650 0.929 . S
C642 H636 0.930 . S
C642 C643 1.367 . S
C642 C650 1.378 . S
C643 C642 1.367 . S
C643 C651 1.433 . S
C644 H640 0.929 . S
C644 C646 1.378 . S
C644 C648 1.350 . S
C645 C648 1.463 . S
C645 C650 1.350 . S
C645 N653 1.427 . S
C646 H637 0.930 . S
C646 C644 1.378 . S
C646 C647 1.367 . S
C647 C646 1.367 . S
C647 C649 1.433 . S
C648 C644 1.350 . S
C648 C645 1.463 . S
C648 N652 1.427 . S
C649 H639 0.929 . S
C649 C647 1.433 . S
C649 N652 1.384 . S
C650 H641 0.929 . S
C650 C642 1.378 . S
C650 C645 1.350 . S
C651 H638 0.929 . S
C651 C643 1.433 . S
C651 N653 1.384 . S
N652 C648 1.427 . S
N652 C649 1.384 . S
N653 C645 1.427 . S
N653 C651 1.384 . S
H654 C660 0.930 . S
H655 C664 0.930 1_556 S
H656 C669 0.929 . S
H657 C667 0.929 . S
H658 C662 0.929 1_556 S
H659 C668 0.929 . S
C660 H654 0.930 . S
C660 C661 1.367 . S
C660 C668 1.378 . S
C661 C660 1.367 . S
C661 C669 1.433 1_554 S
C662 H658 0.929 1_554 S
C662 C664 1.378 . S
C662 C666 1.350 . S
C663 C666 1.463 . S
C663 C668 1.350 . S
C663 N671 1.427 1_554 S
C664 H655 0.930 1_554 S
C664 C662 1.378 . S
C664 C665 1.367 . S
C665 C664 1.367 . S
C665 C667 1.433 . S
C666 C662 1.350 . S
C666 C663 1.463 . S
C666 N670 1.427 . S
C667 H657 0.929 . S
C667 C665 1.433 . S
C667 N670 1.384 . S
C668 H659 0.929 . S
C668 C660 1.378 . S
C668 C663 1.350 . S
C669 H656 0.929 . S
C669 C661 1.433 1_556 S
C669 N671 1.384 . S
N670 C666 1.427 . S
N670 C667 1.384 . S
N671 C663 1.427 1_556 S
N671 C669 1.384 . S
H672 C678 0.930 . S
H673 C682 0.930 . S
H674 C687 0.929 . S
H675 C685 0.929 . S
H676 C680 0.929 . S
H677 C686 0.929 . S
C678 H672 0.930 . S
C678 C679 1.367 . S
C678 C686 1.378 . S
C679 C678 1.367 . S
C679 C687 1.433 . S
C680 H676 0.929 . S
C680 C682 1.378 . S
C680 C684 1.350 . S
C681 C684 1.463 . S
C681 C686 1.350 . S
C681 N689 1.427 . S
C682 H673 0.930 . S
C682 C680 1.378 . S
C682 C683 1.367 . S
C683 C682 1.367 . S
C683 C685 1.433 . S
C684 C680 1.350 . S
C684 C681 1.463 . S
C684 N688 1.427 . S
C685 H675 0.929 . S
C685 C683 1.433 . S
C685 N688 1.384 . S
C686 H677 0.929 . S
C686 C678 1.378 . S
C686 C681 1.350 . S
C687 H674 0.929 . S
C687 C679 1.433 . S
C687 N689 1.384 . S
N688 C684 1.427 . S
N688 C685 1.384 . S
N689 C681 1.427 . S
N689 C687 1.384 . S
H690 C696 0.930 . S
H691 C700 0.930 . S
H692 C705 0.929 . S
H693 C703 0.929 . S
H694 C698 0.929 . S
H695 C704 0.929 1_455 S
C696 H690 0.930 . S
C696 C697 1.367 1_455 S
C696 C704 1.378 1_455 S
C697 C696 1.367 1_655 S
C697 C705 1.433 . S
C698 H694 0.929 . S
C698 C700 1.378 . S
C698 C702 1.350 . S
C699 C702 1.463 . S
C699 C704 1.350 . S
C699 N707 1.427 . S
C700 H691 0.930 . S
C700 C698 1.378 . S
C700 C701 1.367 . S
C701 C700 1.367 . S
C701 C703 1.433 . S
C702 C698 1.350 . S
C702 C699 1.463 . S
C702 N706 1.427 . S
C703 H693 0.929 . S
C703 C701 1.433 . S
C703 N706 1.384 . S
C704 H695 0.929 1_655 S
C704 C696 1.378 1_655 S
C704 C699 1.350 . S
C705 H692 0.929 . S
C705 C697 1.433 . S
C705 N707 1.384 . S
N706 C702 1.427 . S
N706 C703 1.384 . S
N707 C699 1.427 . S
N707 C705 1.384 . S
H708 C714 0.930 . S
H709 C718 0.930 . S
H710 C723 0.929 . S
H711 C721 0.929 . S
H712 C716 0.929 . S
H713 C722 0.929 . S
C714 H708 0.930 . S
C714 C715 1.367 . S
C714 C722 1.378 . S
C715 C714 1.367 . S
C715 C723 1.433 . S
C716 H712 0.929 . S
C716 C718 1.378 . S
C716 C720 1.350 . S
C717 C720 1.463 . S
C717 C722 1.350 . S
C717 N725 1.427 . S
C718 H709 0.930 . S
C718 C716 1.378 . S
C718 C719 1.367 . S
C719 C718 1.367 . S
C719 C721 1.433 . S
C720 C716 1.350 . S
C720 C717 1.463 . S
C720 N724 1.427 . S
C721 H711 0.929 . S
C721 C719 1.433 . S
C721 N724 1.384 . S
C722 H713 0.929 . S
C722 C714 1.378 . S
C722 C717 1.350 . S
C723 H710 0.929 . S
C723 C715 1.433 . S
C723 N725 1.384 . S
N724 C720 1.427 . S
N724 C721 1.384 . S
N725 C717 1.427 . S
N725 C723 1.384 . S
H726 C732 0.930 . S
H727 C736 0.930 . S
H728 C741 0.929 . S
H729 C739 0.929 . S
H730 C734 0.929 . S
H731 C740 0.949 . S
C732 H726 0.930 . S
C732 C733 1.367 1_655 S
C732 C740 1.390 . S
C733 C732 1.367 1_455 S
C733 C741 1.433 . S
C734 H730 0.929 . S
C734 C736 1.378 . S
C734 C738 1.350 . S
C735 C738 1.463 . S
C735 C740 1.319 1_455 S
C735 N743 1.427 . S
C736 H727 0.930 . S
C736 C734 1.378 . S
C736 C737 1.367 . S
C737 C736 1.367 . S
C737 C739 1.433 . S
C738 C734 1.350 . S
C738 C735 1.463 . S
C738 N742 1.427 . S
C739 H729 0.929 . S
C739 C737 1.433 . S
C739 N742 1.384 . S
C740 H731 0.949 . S
C740 C732 1.390 . S
C740 C735 1.319 1_655 S
C741 H728 0.929 . S
C741 C733 1.433 . S
C741 N743 1.384 . S
N742 C738 1.427 . S
N742 C739 1.384 . S
N743 C735 1.427 . S
N743 C741 1.384 . S
H744 C750 0.930 . S
H745 C754 0.930 . S
H746 C759 0.929 . S
H747 C757 0.929 . S
H748 C752 0.929 . S
H749 C758 0.929 . S
C750 H744 0.930 . S
C750 C751 1.367 . S
C750 C758 1.378 . S
C751 C750 1.367 . S
C751 C759 1.433 . S
C752 H748 0.929 . S
C752 C754 1.378 . S
C752 C756 1.350 . S
C753 C756 1.463 . S
C753 C758 1.350 . S
C753 N761 1.427 . S
C754 H745 0.930 . S
C754 C752 1.378 . S
C754 C755 1.367 . S
C755 C754 1.367 . S
C755 C757 1.433 . S
C756 C752 1.350 . S
C756 C753 1.463 . S
C756 N760 1.427 . S
C757 H747 0.929 . S
C757 C755 1.433 . S
C757 N760 1.384 . S
C758 H749 0.929 . S
C758 C750 1.378 . S
C758 C753 1.350 . S
C759 H746 0.929 . S
C759 C751 1.433 . S
C759 N761 1.384 . S
N760 C756 1.427 . S
N760 C757 1.384 . S
N761 C753 1.427 . S
N761 C759 1.384 . S
H762 C768 0.930 . S
H763 C772 0.930 . S
H764 C777 0.929 . S
H765 C775 0.929 . S
H766 C770 0.929 . S
H767 C776 0.929 . S
C768 H762 0.930 . S
C768 C769 1.367 . S
C768 C776 1.378 . S
C769 C768 1.367 . S
C769 C777 1.433 . S
C770 H766 0.929 . S
C770 C772 1.378 . S
C770 C774 1.350 . S
C771 C774 1.463 . S
C771 C776 1.350 . S
C771 N779 1.427 . S
C772 H763 0.930 . S
C772 C770 1.378 . S
C772 C773 1.367 . S
C773 C772 1.367 . S
C773 C775 1.433 . S
C774 C770 1.350 . S
C774 C771 1.463 . S
C774 N778 1.427 . S
C775 H765 0.929 . S
C775 C773 1.433 . S
C775 N778 1.384 . S
C776 H767 0.929 . S
C776 C768 1.378 . S
C776 C771 1.350 . S
C777 H764 0.929 . S
C777 C769 1.433 . S
C777 N779 1.384 . S
N778 C774 1.427 . S
N778 C775 1.384 . S
N779 C771 1.427 . S
N779 C777 1.384 . S
H780 C786 0.930 . S
H781 C790 0.930 . S
H782 C795 0.929 . S
H783 C793 0.929 . S
H784 C788 0.889 1_545 S
H785 C794 0.929 . S
C786 H780 0.930 . S
C786 C787 1.367 . S
C786 C794 1.378 . S
C787 C786 1.367 . S
C787 C795 1.433 1_565 S
C788 H784 0.889 1_565 S
C788 C790 1.378 . S
C788 C792 1.350 . S
C789 C792 1.463 . S
C789 C794 1.350 . S
C789 N797 1.438 . S
C790 H781 0.930 . S
C790 C788 1.378 . S
C790 C791 1.367 . S
C791 C790 1.367 . S
C791 C793 1.433 . S
C792 C788 1.350 . S
C792 C789 1.463 . S
C792 N796 1.427 . S
C793 H783 0.929 . S
C793 C791 1.433 . S
C793 N796 1.384 . S
C794 H785 0.929 . S
C794 C786 1.378 . S
C794 C789 1.350 . S
C795 H782 0.929 . S
C795 C787 1.433 1_545 S
C795 N797 1.380 1_545 S
N796 C792 1.427 . S
N796 C793 1.384 . S
N797 C789 1.438 . S
N797 C795 1.380 1_565 S
H798 C804 0.930 . S
H799 C808 0.930 . S
H800 C813 0.929 . S
H801 C811 0.929 . S
H802 C806 0.960 . S
H803 C812 0.929 . S
C804 H798 0.930 . S
C804 C805 1.367 . S
C804 C812 1.378 . S
C805 C804 1.367 . S
C805 C813 1.433 1_545 S
C806 H802 0.960 . S
C806 C808 1.378 . S
C806 C810 1.350 . S
C807 C810 1.463 . S
C807 C812 1.350 . S
C807 N815 1.416 1_545 S
C808 H799 0.930 . S
C808 C806 1.378 . S
C808 C809 1.367 . S
C809 C808 1.367 . S
C809 C811 1.433 . S
C810 C806 1.350 . S
C810 C807 1.463 . S
C810 N814 1.427 . S
C811 H801 0.929 . S
C811 C809 1.433 . S
C811 N814 1.384 . S
C812 H803 0.929 . S
C812 C804 1.378 . S
C812 C807 1.350 . S
C813 H800 0.929 . S
C813 C805 1.433 1_565 S
C813 N815 1.389 . S
N814 C810 1.427 . S
N814 C811 1.384 . S
N815 C807 1.416 1_565 S
N815 C813 1.389 . S
H816 C822 0.930 . S
H817 C826 0.930 . S
H818 C831 0.929 . S
H819 C829 0.929 . S
H820 C824 0.929 . S
H821 C830 0.929 . S
C822 H816 0.930 . S
C822 C823 1.367 . S
C822 C830 1.378 . S
C823 C822 1.367 . S
C823 C831 1.433 . S
C824 H820 0.929 . S
C824 C826 1.378 . S
C824 C828 1.350 . S
C825 C828 1.463 . S
C825 C830 1.350 . S
C825 N833 1.427 . S
C826 H817 0.930 . S
C826 C824 1.378 . S
C826 C827 1.367 . S
C827 C826 1.367 . S
C827 C829 1.433 . S
C828 C824 1.350 . S
C828 C825 1.463 . S
C828 N832 1.427 . S
C829 H819 0.929 . S
C829 C827 1.433 . S
C829 N832 1.384 . S
C830 H821 0.929 . S
C830 C822 1.378 . S
C830 C825 1.350 . S
C831 H818 0.929 . S
C831 C823 1.433 . S
C831 N833 1.384 . S
N832 C828 1.427 . S
N832 C829 1.384 . S
N833 C825 1.427 . S
N833 C831 1.384 . S
H834 C840 0.930 . S
H835 C844 0.930 . S
H836 C849 0.929 . S
H837 C847 0.929 . S
H838 C842 0.929 1_556 S
H839 C848 0.929 . S
C840 H834 0.930 . S
C840 C841 1.367 . S
C840 C848 1.378 . S
C841 C840 1.367 . S
C841 C849 1.433 1_554 S
C842 H838 0.929 1_554 S
C842 C844 1.378 . S
C842 C846 1.350 . S
C843 C846 1.463 . S
C843 C848 1.350 . S
C843 N851 1.427 1_554 S
C844 H835 0.930 . S
C844 C842 1.378 . S
C844 C845 1.367 . S
C845 C844 1.367 . S
C845 C847 1.433 . S
C846 C842 1.350 . S
C846 C843 1.463 . S
C846 N850 1.427 . S
C847 H837 0.929 . S
C847 C845 1.433 . S
C847 N850 1.384 . S
C848 H839 0.929 . S
C848 C840 1.378 . S
C848 C843 1.350 . S
C849 H836 0.929 . S
C849 C841 1.433 1_556 S
C849 N851 1.384 . S
N850 C846 1.427 . S
N850 C847 1.384 . S
N851 C843 1.427 1_556 S
N851 C849 1.384 . S
H852 C858 0.930 . S
H853 C862 0.930 . S
H854 C867 0.929 . S
H855 C865 0.929 . S
H856 C860 0.929 . S
H857 C866 0.929 . S
C858 H852 0.930 . S
C858 C859 1.367 . S
C858 C866 1.378 . S
C859 C858 1.367 . S
C859 C867 1.433 . S
C860 H856 0.929 . S
C860 C862 1.378 . S
C860 C864 1.350 . S
C861 C864 1.463 . S
C861 C866 1.350 . S
C861 N869 1.427 . S
C862 H853 0.930 . S
C862 C860 1.378 . S
C862 C863 1.367 . S
C863 C862 1.367 . S
C863 C865 1.433 . S
C864 C860 1.350 . S
C864 C861 1.463 . S
C864 N868 1.427 . S
C865 H855 0.929 . S
C865 C863 1.433 . S
C865 N868 1.384 . S
C866 H857 0.929 . S
C866 C858 1.378 . S
C866 C861 1.350 . S
C867 H854 0.929 . S
C867 C859 1.433 . S
C867 N869 1.384 . S
N868 C864 1.427 . S
N868 C865 1.384 . S
N869 C861 1.427 . S
N869 C867 1.384 . S
H870 C876 0.930 . S
H871 C880 0.930 1_554 S
H872 C885 0.929 . S
H873 C883 0.929 . S
H874 C878 0.929 1_554 S
H875 C884 0.929 . S
C876 H870 0.930 . S
C876 C877 1.367 . S
C876 C884 1.378 . S
C877 C876 1.367 . S
C877 C885 1.433 1_556 S
C878 H874 0.929 1_556 S
C878 C880 1.378 . S
C878 C882 1.350 . S
C879 C882 1.463 . S
C879 C884 1.350 . S
C879 N887 1.427 1_556 S
C880 H871 0.930 1_556 S
C880 C878 1.378 . S
C880 C881 1.367 . S
C881 C880 1.367 . S
C881 C883 1.433 . S
C882 C878 1.350 . S
C882 C879 1.463 . S
C882 N886 1.427 . S
C883 H873 0.929 . S
C883 C881 1.433 . S
C883 N886 1.384 . S
C884 H875 0.929 . S
C884 C876 1.378 . S
C884 C879 1.350 . S
C885 H872 0.929 . S
C885 C877 1.433 1_554 S
C885 N887 1.384 . S
N886 C882 1.427 . S
N886 C883 1.384 . S
N887 C879 1.427 1_554 S
N887 C885 1.384 . S
H888 C894 0.930 . S
H889 C898 0.930 . S
H890 C903 0.929 . S
H891 C901 0.929 . S
H892 C896 0.929 . S
H893 C902 0.929 . S
C894 H888 0.930 . S
C894 C895 1.367 . S
C894 C902 1.378 . S
C895 C894 1.367 . S
C895 C903 1.433 . S
C896 H892 0.929 . S
C896 C898 1.378 . S
C896 C900 1.350 . S
C897 C900 1.463 . S
C897 C902 1.350 . S
C897 N905 1.427 . S
C898 H889 0.930 . S
C898 C896 1.378 . S
C898 C899 1.367 . S
C899 C898 1.367 . S
C899 C901 1.433 . S
C900 C896 1.350 . S
C900 C897 1.463 . S
C900 N904 1.427 . S
C901 H891 0.929 . S
C901 C899 1.433 . S
C901 N904 1.384 . S
C902 H893 0.929 . S
C902 C894 1.378 . S
C902 C897 1.350 . S
C903 H890 0.929 . S
C903 C895 1.433 . S
C903 N905 1.384 . S
N904 C900 1.427 . S
N904 C901 1.384 . S
N905 C897 1.427 . S
N905 C903 1.384 . S
H906 C912 0.930 . S
H907 C916 0.930 . S
H908 C921 0.929 . S
H909 C919 0.929 1_655 S
H910 C914 0.929 . S
H911 C920 0.929 . S
C912 H906 0.930 . S
C912 C913 1.367 1_655 S
C912 C920 1.378 . S
C913 C912 1.367 1_455 S
C913 C921 1.433 . S
C914 H910 0.929 . S
C914 C916 1.378 . S
C914 C918 1.350 . S
C915 C918 1.463 . S
C915 C920 1.350 1_455 S
C915 N923 1.427 . S
C916 H907 0.930 . S
C916 C914 1.378 . S
C916 C917 1.367 . S
C917 C916 1.367 . S
C917 C919 1.433 . S
C918 C914 1.350 . S
C918 C915 1.463 . S
C918 N922 1.427 . S
C919 H909 0.929 1_455 S
C919 C917 1.433 . S
C919 N922 1.384 . S
C920 H911 0.929 . S
C920 C912 1.378 . S
C920 C915 1.350 1_655 S
C921 H908 0.929 . S
C921 C913 1.433 . S
C921 N923 1.384 . S
N922 C918 1.427 . S
N922 C919 1.384 . S
N923 C915 1.427 . S
N923 C921 1.384 . S
H924 C930 0.930 . S
H925 C934 0.930 . S
H926 C939 0.929 . S
H927 C937 0.929 . S
H928 C932 0.929 . S
H929 C938 0.929 . S
C930 H924 0.930 . S
C930 C931 1.367 . S
C930 C938 1.378 . S
C931 C930 1.367 . S
C931 C939 1.433 . S
C932 H928 0.929 . S
C932 C934 1.378 . S
C932 C936 1.350 . S
C933 C936 1.463 . S
C933 C938 1.350 . S
C933 N941 1.427 . S
C934 H925 0.930 . S
C934 C932 1.378 . S
C934 C935 1.367 . S
C935 C934 1.367 . S
C935 C937 1.433 . S
C936 C932 1.350 . S
C936 C933 1.463 . S
C936 N940 1.427 . S
C937 H927 0.929 . S
C937 C935 1.433 . S
C937 N940 1.384 . S
C938 H929 0.929 . S
C938 C930 1.378 . S
C938 C933 1.350 . S
C939 H926 0.929 . S
C939 C931 1.433 . S
C939 N941 1.384 . S
N940 C936 1.427 . S
N940 C937 1.384 . S
N941 C933 1.427 . S
N941 C939 1.384 . S
H942 C948 0.930 1_455 S
H943 C952 0.930 . S
H944 C957 0.929 . S
H945 C955 0.929 . S
H946 C950 0.929 . S
H947 C956 0.929 . S
C948 H942 0.930 1_655 S
C948 C949 1.367 . S
C948 C956 1.378 . S
C949 C948 1.367 . S
C949 C957 1.433 . S
C950 H946 0.929 . S
C950 C952 1.378 . S
C950 C954 1.350 . S
C951 C954 1.463 . S
C951 C956 1.350 . S
C951 N959 1.427 . S
C952 H943 0.930 . S
C952 C950 1.378 . S
C952 C953 1.367 . S
C953 C952 1.367 . S
C953 C955 1.433 . S
C954 C950 1.350 . S
C954 C951 1.463 . S
C954 N958 1.427 . S
C955 H945 0.929 . S
C955 C953 1.433 . S
C955 N958 1.384 . S
C956 H947 0.929 . S
C956 C948 1.378 . S
C956 C951 1.350 . S
C957 H944 0.929 . S
C957 C949 1.433 . S
C957 N959 1.384 . S
N958 C954 1.427 . S
N958 C955 1.384 . S
N959 C951 1.427 . S
N959 C957 1.384 . S
H960 C966 0.930 . S
H961 C970 0.930 . S
H962 C975 0.929 . S
H963 C973 0.929 . S
H964 C968 0.929 . S
H965 C974 0.929 . S
C966 H960 0.930 . S
C966 C967 1.367 . S
C966 C974 1.378 . S
C967 C966 1.367 . S
C967 C975 1.433 . S
C968 H964 0.929 . S
C968 C970 1.378 . S
C968 C972 1.350 . S
C969 C972 1.463 . S
C969 C974 1.350 . S
C969 N977 1.427 . S
C970 H961 0.930 . S
C970 C968 1.378 . S
C970 C971 1.367 . S
C971 C970 1.367 . S
C971 C973 1.433 . S
C972 C968 1.350 . S
C972 C969 1.463 . S
C972 N976 1.427 . S
C973 H963 0.929 . S
C973 C971 1.433 . S
C973 N976 1.384 . S
C974 H965 0.929 . S
C974 C966 1.378 . S
C974 C969 1.350 . S
C975 H962 0.929 . S
C975 C967 1.433 . S
C975 N977 1.384 . S
N976 C972 1.427 . S
N976 C973 1.384 . S
N977 C969 1.427 . S
N977 C975 1.384 . S
H978 C984 0.930 . S
H979 C988 0.930 . S
H980 C993 0.929 . S
H981 C991 0.929 . S
H982 C986 0.929 . S
H983 C992 0.929 . S
C984 H978 0.930 . S
C984 C985 1.367 . S
C984 C992 1.378 . S
C985 C984 1.367 . S
C985 C993 1.433 . S
C986 H982 0.929 . S
C986 C988 1.378 . S
C986 C990 1.350 . S
C987 C990 1.463 . S
C987 C992 1.350 . S
C987 N995 1.427 . S
C988 H979 0.930 . S
C988 C986 1.378 . S
C988 C989 1.367 . S
C989 C988 1.367 . S
C989 C991 1.433 . S
C990 C986 1.350 . S
C990 C987 1.463 . S
C990 N994 1.427 . S
C991 H981 0.929 . S
C991 C989 1.433 . S
C991 N994 1.384 . S
C992 H983 0.929 . S
C992 C984 1.378 . S
C992 C987 1.350 . S
C993 H980 0.929 . S
C993 C985 1.433 . S
C993 N995 1.384 . S
N994 C990 1.427 . S
N994 C991 1.384 . S
N995 C987 1.427 . S
N995 C993 1.384 . S
H996 C1002 0.930 . S
H997 C1006 0.930 . S
H998 C1011 0.929 . S
H999 C1009 0.929 . S
H1000 C1004 0.929 . S
H1001 C1010 0.929 . S
C1002 H996 0.930 . S
C1002 C1003 1.367 1_545 S
C1002 C1010 1.378 . S
C1003 C1002 1.367 1_565 S
C1003 C1011 1.433 . S
C1004 H1000 0.929 . S
C1004 C1006 1.378 . S
C1004 C1008 1.350 . S
C1005 C1008 1.463 . S
C1005 C1010 1.350 1_565 S
C1005 N1013 1.427 . S
C1006 H997 0.930 . S
C1006 C1004 1.378 . S
C1006 C1007 1.367 . S
C1007 C1006 1.367 . S
C1007 C1009 1.433 1_565 S
C1008 C1004 1.350 . S
C1008 C1005 1.463 . S
C1008 N1012 1.427 1_565 S
C1009 H999 0.929 . S
C1009 C1007 1.433 1_545 S
C1009 N1012 1.384 . S
C1010 H1001 0.929 . S
C1010 C1002 1.378 . S
C1010 C1005 1.350 1_545 S
C1011 H998 0.929 . S
C1011 C1003 1.433 . S
C1011 N1013 1.384 . S
N1012 C1008 1.427 1_545 S
N1012 C1009 1.384 . S
N1013 C1005 1.427 . S
N1013 C1011 1.384 . S
H1014 C1020 0.930 . S
H1015 C1024 0.930 1_545 S
H1016 C1029 0.929 . S
H1017 C1027 0.929 . S
H1018 C1022 0.929 . S
H1019 C1028 0.929 . S
C1020 H1014 0.930 . S
C1020 C1021 1.371 1_565 S
C1020 C1028 1.378 . S
C1021 C1020 1.371 1_545 S
C1021 C1029 1.430 . S
C1022 H1018 0.929 . S
C1022 C1024 1.378 1_545 S
C1022 C1026 1.350 1_545 S
C1023 C1026 1.463 . S
C1023 C1028 1.350 . S
C1023 N1031 1.427 1_565 S
C1024 H1015 0.930 1_565 S
C1024 C1022 1.378 1_565 S
C1024 C1025 1.367 . S
C1025 C1024 1.367 . S
C1025 C1027 1.433 . S
C1026 C1022 1.350 1_565 S
C1026 C1023 1.463 . S
C1026 N1030 1.427 . S
C1027 H1017 0.929 . S
C1027 C1025 1.433 . S
C1027 N1030 1.384 . S
C1028 H1019 0.929 . S
C1028 C1020 1.378 . S
C1028 C1023 1.350 . S
C1029 H1016 0.929 . S
C1029 C1021 1.430 . S
C1029 N1031 1.384 . S
N1030 C1026 1.427 . S
N1030 C1027 1.384 . S
N1031 C1023 1.427 1_545 S
N1031 C1029 1.384 . S
H1032 C1038 0.930 . S
H1033 C1042 0.930 . S
H1034 C1047 0.929 . S
H1035 C1045 0.929 . S
H1036 C1040 0.929 . S
H1037 C1046 0.929 . S
C1038 H1032 0.930 . S
C1038 C1039 1.367 . S
C1038 C1046 1.378 . S
C1039 C1038 1.367 . S
C1039 C1047 1.433 . S
C1040 H1036 0.929 . S
C1040 C1042 1.378 . S
C1040 C1044 1.350 . S
C1041 C1044 1.463 . S
C1041 C1046 1.350 . S
C1041 N1049 1.427 . S
C1042 H1033 0.930 . S
C1042 C1040 1.378 . S
C1042 C1043 1.367 . S
C1043 C1042 1.367 . S
C1043 C1045 1.433 . S
C1044 C1040 1.350 . S
C1044 C1041 1.463 . S
C1044 N1048 1.427 . S
C1045 H1035 0.929 . S
C1045 C1043 1.433 . S
C1045 N1048 1.384 . S
C1046 H1037 0.929 . S
C1046 C1038 1.378 . S
C1046 C1041 1.350 . S
C1047 H1034 0.929 . S
C1047 C1039 1.433 . S
C1047 N1049 1.384 . S
N1048 C1044 1.427 . S
N1048 C1045 1.384 . S
N1049 C1041 1.427 . S
N1049 C1047 1.384 . S
H1050 C1056 0.930 . S
H1051 C1060 0.930 1_554 S
H1052 C1065 0.929 . S
H1053 C1063 0.929 . S
H1054 C1058 0.929 . S
H1055 C1064 0.929 . S
C1056 H1050 0.930 . S
C1056 C1057 1.369 1_556 S
C1056 C1064 1.378 . S
C1057 C1056 1.369 1_554 S
C1057 C1065 1.431 . S
C1058 H1054 0.929 . S
C1058 C1060 1.378 1_554 S
C1058 C1062 1.350 1_554 S
C1059 C1062 1.463 . S
C1059 C1064 1.350 . S
C1059 N1067 1.427 1_556 S
C1060 H1051 0.930 1_556 S
C1060 C1058 1.378 1_556 S
C1060 C1061 1.367 . S
C1061 C1060 1.367 . S
C1061 C1063 1.433 . S
C1062 C1058 1.350 1_556 S
C1062 C1059 1.463 . S
C1062 N1066 1.427 . S
C1063 H1053 0.929 . S
C1063 C1061 1.433 . S
C1063 N1066 1.384 . S
C1064 H1055 0.929 . S
C1064 C1056 1.378 . S
C1064 C1059 1.350 . S
C1065 H1052 0.929 . S
C1065 C1057 1.431 . S
C1065 N1067 1.384 . S
N1066 C1062 1.427 . S
N1066 C1063 1.384 . S
N1067 C1059 1.427 1_554 S
N1067 C1065 1.384 . S
H1068 C1074 0.930 . S
H1069 C1078 0.930 . S
H1070 C1083 0.929 . S
H1071 C1081 0.929 . S
H1072 C1076 0.929 . S
H1073 C1082 0.929 . S
C1074 H1068 0.930 . S
C1074 C1075 1.367 . S
C1074 C1082 1.378 . S
C1075 C1074 1.367 . S
C1075 C1083 1.433 . S
C1076 H1072 0.929 . S
C1076 C1078 1.378 . S
C1076 C1080 1.350 . S
C1077 C1080 1.463 . S
C1077 C1082 1.350 . S
C1077 N1085 1.427 . S
C1078 H1069 0.930 . S
C1078 C1076 1.378 . S
C1078 C1079 1.367 . S
C1079 C1078 1.367 . S
C1079 C1081 1.433 . S
C1080 C1076 1.350 . S
C1080 C1077 1.463 . S
C1080 N1084 1.427 . S
C1081 H1071 0.929 . S
C1081 C1079 1.433 . S
C1081 N1084 1.384 . S
C1082 H1073 0.929 . S
C1082 C1074 1.378 . S
C1082 C1077 1.350 . S
C1083 H1070 0.929 . S
C1083 C1075 1.433 . S
C1083 N1085 1.384 . S
N1084 C1080 1.427 . S
N1084 C1081 1.384 . S
N1085 C1077 1.427 . S
N1085 C1083 1.384 . S
H1086 C1092 0.930 . S
H1087 C1096 0.930 . S
H1088 C1101 0.923 1_554 S
H1089 C1099 0.929 . S
H1090 C1094 0.929 . S
H1091 C1100 0.929 . S
C1092 H1086 0.930 . S
C1092 C1093 1.367 . S
C1092 C1100 1.378 . S
C1093 C1092 1.367 . S
C1093 C1101 1.442 . S
C1094 H1090 0.929 . S
C1094 C1096 1.378 . S
C1094 C1098 1.350 1_554 S
C1095 C1098 1.463 . S
C1095 C1100 1.350 . S
C1095 N1103 1.426 1_556 S
C1096 H1087 0.930 . S
C1096 C1094 1.378 . S
C1096 C1097 1.367 1_554 S
C1097 C1096 1.367 1_556 S
C1097 C1099 1.433 . S
C1098 C1094 1.350 1_556 S
C1098 C1095 1.463 . S
C1098 N1102 1.427 . S
C1099 H1089 0.929 . S
C1099 C1097 1.433 . S
C1099 N1102 1.384 . S
C1100 H1091 0.929 . S
C1100 C1092 1.378 . S
C1100 C1095 1.350 . S
C1101 H1088 0.923 1_556 S
C1101 C1093 1.442 . S
C1101 N1103 1.381 1_556 S
N1102 C1098 1.427 . S
N1102 C1099 1.384 . S
N1103 C1095 1.426 1_554 S
N1103 C1101 1.381 1_554 S
H1104 C1110 0.930 . S
H1105 C1114 0.930 . S
H1106 C1119 0.929 . S
H1107 C1117 0.929 . S
H1108 C1112 0.929 . S
H1109 C1118 0.929 . S
C1110 H1104 0.930 . S
C1110 C1111 1.367 . S
C1110 C1118 1.378 . S
C1111 C1110 1.367 . S
C1111 C1119 1.433 . S
C1112 H1108 0.929 . S
C1112 C1114 1.378 . S
C1112 C1116 1.350 . S
C1113 C1116 1.463 . S
C1113 C1118 1.350 . S
C1113 N1121 1.427 . S
C1114 H1105 0.930 . S
C1114 C1112 1.378 . S
C1114 C1115 1.367 . S
C1115 C1114 1.367 . S
C1115 C1117 1.433 . S
C1116 C1112 1.350 . S
C1116 C1113 1.463 . S
C1116 N1120 1.427 . S
C1117 H1107 0.929 . S
C1117 C1115 1.433 . S
C1117 N1120 1.384 . S
C1118 H1109 0.929 . S
C1118 C1110 1.378 . S
C1118 C1113 1.350 . S
C1119 H1106 0.929 . S
C1119 C1111 1.433 . S
C1119 N1121 1.384 . S
N1120 C1116 1.427 . S
N1120 C1117 1.384 . S
N1121 C1113 1.427 . S
N1121 C1119 1.384 . S
H1122 C1128 0.930 . S
H1123 C1132 0.930 . S
H1124 C1137 0.929 . S
H1125 C1135 0.929 . S
H1126 C1130 0.910 1_455 S
H1127 C1136 0.929 . S
C1128 H1122 0.930 . S
C1128 C1129 1.361 1_655 S
C1128 C1136 1.378 . S
C1129 C1128 1.361 1_455 S
C1129 C1137 1.438 . S
C1130 H1126 0.910 1_655 S
C1130 C1132 1.378 . S
C1130 C1134 1.350 . S
C1131 C1134 1.463 . S
C1131 C1136 1.350 . S
C1131 N1139 1.427 1_655 S
C1132 H1123 0.930 . S
C1132 C1130 1.378 . S
C1132 C1133 1.367 . S
C1133 C1132 1.367 . S
C1133 C1135 1.433 . S
C1134 C1130 1.350 . S
C1134 C1131 1.463 . S
C1134 N1138 1.427 . S
C1135 H1125 0.929 . S
C1135 C1133 1.433 . S
C1135 N1138 1.384 . S
C1136 H1127 0.929 . S
C1136 C1128 1.378 . S
C1136 C1131 1.350 . S
C1137 H1124 0.929 . S
C1137 C1129 1.438 . S
C1137 N1139 1.384 . S
N1138 C1134 1.427 . S
N1138 C1135 1.384 . S
N1139 C1131 1.427 1_455 S
N1139 C1137 1.384 . S
H1140 C1146 0.930 . S
H1141 C1150 0.930 . S
H1142 C1155 0.929 . S
H1143 C1153 0.929 . S
H1144 C1148 0.929 . S
H1145 C1154 0.929 . S
C1146 H1140 0.930 . S
C1146 C1147 1.367 . S
C1146 C1154 1.378 . S
C1147 C1146 1.367 . S
C1147 C1155 1.433 . S
C1148 H1144 0.929 . S
C1148 C1150 1.378 . S
C1148 C1152 1.350 . S
C1149 C1152 1.463 . S
C1149 C1154 1.350 . S
C1149 N1157 1.427 . S
C1150 H1141 0.930 . S
C1150 C1148 1.378 . S
C1150 C1151 1.367 . S
C1151 C1150 1.367 . S
C1151 C1153 1.433 . S
C1152 C1148 1.350 . S
C1152 C1149 1.463 . S
C1152 N1156 1.427 . S
C1153 H1143 0.929 . S
C1153 C1151 1.433 . S
C1153 N1156 1.384 . S
C1154 H1145 0.929 . S
C1154 C1146 1.378 . S
C1154 C1149 1.350 . S
C1155 H1142 0.929 . S
C1155 C1147 1.433 . S
C1155 N1157 1.384 . S
N1156 C1152 1.427 . S
N1156 C1153 1.384 . S
N1157 C1149 1.427 . S
N1157 C1155 1.384 . S
H1158 C1164 0.931 1_455 S
H1159 C1168 0.930 . S
H1160 C1173 0.929 . S
H1161 C1171 0.931 . S
H1162 C1166 0.929 . S
H1163 C1172 0.929 1_455 S
C1164 H1158 0.931 1_655 S
C1164 C1165 1.367 . S
C1164 C1172 1.378 . S
C1165 C1164 1.367 . S
C1165 C1173 1.433 . S
C1166 H1162 0.929 . S
C1166 C1168 1.378 . S
C1166 C1170 1.350 . S
C1167 C1170 1.463 . S
C1167 C1172 1.350 . S
C1167 N1175 1.427 . S
C1168 H1159 0.930 . S
C1168 C1166 1.378 . S
C1168 C1169 1.367 . S
C1169 C1168 1.367 . S
C1169 C1171 1.432 1_655 S
C1170 C1166 1.350 . S
C1170 C1167 1.463 . S
C1170 N1174 1.437 . S
C1171 H1161 0.931 . S
C1171 C1169 1.432 1_455 S
C1171 N1174 1.380 1_455 S
C1172 H1163 0.929 1_655 S
C1172 C1164 1.378 . S
C1172 C1167 1.350 . S
C1173 H1160 0.929 . S
C1173 C1165 1.433 . S
C1173 N1175 1.384 . S
N1174 C1170 1.437 . S
N1174 C1171 1.380 1_655 S
N1175 C1167 1.427 . S
N1175 C1173 1.384 . S
H1176 C1182 0.930 . S
H1177 C1186 0.930 . S
H1178 C1191 0.929 . S
H1179 C1189 0.929 . S
H1180 C1184 0.929 . S
H1181 C1190 0.929 . S
C1182 H1176 0.930 . S
C1182 C1183 1.367 . S
C1182 C1190 1.378 . S
C1183 C1182 1.367 . S
C1183 C1191 1.433 . S
C1184 H1180 0.929 . S
C1184 C1186 1.378 . S
C1184 C1188 1.350 . S
C1185 C1188 1.463 . S
C1185 C1190 1.350 . S
C1185 N1193 1.427 . S
C1186 H1177 0.930 . S
C1186 C1184 1.378 . S
C1186 C1187 1.367 . S
C1187 C1186 1.367 . S
C1187 C1189 1.433 . S
C1188 C1184 1.350 . S
C1188 C1185 1.463 . S
C1188 N1192 1.427 . S
C1189 H1179 0.929 . S
C1189 C1187 1.433 . S
C1189 N1192 1.384 . S
C1190 H1181 0.929 . S
C1190 C1182 1.378 . S
C1190 C1185 1.350 . S
C1191 H1178 0.929 . S
C1191 C1183 1.433 . S
C1191 N1193 1.384 . S
N1192 C1188 1.427 . S
N1192 C1189 1.384 . S
N1193 C1185 1.427 . S
N1193 C1191 1.384 . S
H1194 C1200 0.930 . S
H1195 C1204 0.930 . S
H1196 C1209 0.929 . S
H1197 C1207 0.929 . S
H1198 C1202 0.929 . S
H1199 C1208 0.929 . S
C1200 H1194 0.930 . S
C1200 C1201 1.367 . S
C1200 C1208 1.378 . S
C1201 C1200 1.367 . S
C1201 C1209 1.433 . S
C1202 H1198 0.929 . S
C1202 C1204 1.378 . S
C1202 C1206 1.350 . S
C1203 C1206 1.463 . S
C1203 C1208 1.350 . S
C1203 N1211 1.427 . S
C1204 H1195 0.930 . S
C1204 C1202 1.378 . S
C1204 C1205 1.367 . S
C1205 C1204 1.367 . S
C1205 C1207 1.433 . S
C1206 C1202 1.350 . S
C1206 C1203 1.463 . S
C1206 N1210 1.427 . S
C1207 H1197 0.929 . S
C1207 C1205 1.433 . S
C1207 N1210 1.384 . S
C1208 H1199 0.929 . S
C1208 C1200 1.378 . S
C1208 C1203 1.350 . S
C1209 H1196 0.929 . S
C1209 C1201 1.433 . S
C1209 N1211 1.384 . S
N1210 C1206 1.427 . S
N1210 C1207 1.384 . S
N1211 C1203 1.427 . S
N1211 C1209 1.384 . S
H1212 C1218 0.930 . S
H1213 C1222 0.930 . S
H1214 C1227 0.929 . S
H1215 C1225 0.918 1_565 S
H1216 C1220 0.929 . S
H1217 C1226 0.933 . S
C1218 H1212 0.930 . S
C1218 C1219 1.367 . S
C1218 C1226 1.378 . S
C1219 C1218 1.367 . S
C1219 C1227 1.433 . S
C1220 H1216 0.929 . S
C1220 C1222 1.378 . S
C1220 C1224 1.350 . S
C1221 C1224 1.463 . S
C1221 C1226 1.350 . S
C1221 N1229 1.427 . S
C1222 H1213 0.930 . S
C1222 C1220 1.378 . S
C1222 C1223 1.367 . S
C1223 C1222 1.367 . S
C1223 C1225 1.442 . S
C1224 C1220 1.350 . S
C1224 C1221 1.463 . S
C1224 N1228 1.427 . S
C1225 H1215 0.918 1_545 S
C1225 C1223 1.442 . S
C1225 N1228 1.389 . S
C1226 H1217 0.933 . S
C1226 C1218 1.378 . S
C1226 C1221 1.350 . S
C1227 H1214 0.929 . S
C1227 C1219 1.433 . S
C1227 N1229 1.384 . S
N1228 C1224 1.427 . S
N1228 C1225 1.389 . S
N1229 C1221 1.427 . S
N1229 C1227 1.384 . S
H1230 C1236 0.930 . S
H1231 C1240 0.930 . S
H1232 C1245 0.929 . S
H1233 C1243 0.929 . S
H1234 C1238 0.929 . S
H1235 C1244 0.929 . S
C1236 H1230 0.930 . S
C1236 C1237 1.361 1_545 S
C1236 C1244 1.378 . S
C1237 C1236 1.361 1_565 S
C1237 C1245 1.438 . S
C1238 H1234 0.929 . S
C1238 C1240 1.378 . S
C1238 C1242 1.350 . S
C1239 C1242 1.463 . S
C1239 C1244 1.350 . S
C1239 N1247 1.419 1_545 S
C1240 H1231 0.930 . S
C1240 C1238 1.378 . S
C1240 C1241 1.367 . S
C1241 C1240 1.367 . S
C1241 C1243 1.433 . S
C1242 C1238 1.350 . S
C1242 C1239 1.463 . S
C1242 N1246 1.427 . S
C1243 H1233 0.929 . S
C1243 C1241 1.433 . S
C1243 N1246 1.384 . S
C1244 H1235 0.929 . S
C1244 C1236 1.378 . S
C1244 C1239 1.350 . S
C1245 H1232 0.929 . S
C1245 C1237 1.438 . S
C1245 N1247 1.386 . S
N1246 C1242 1.427 . S
N1246 C1243 1.384 . S
N1247 C1239 1.419 1_565 S
N1247 C1245 1.386 . S
H1248 C1254 0.930 . S
H1249 C1258 0.930 . S
H1250 C1263 0.929 . S
H1251 C1261 0.929 . S
H1252 C1256 0.929 . S
H1253 C1262 0.929 . S
C1254 H1248 0.930 . S
C1254 C1255 1.367 . S
C1254 C1262 1.378 . S
C1255 C1254 1.367 . S
C1255 C1263 1.433 . S
C1256 H1252 0.929 . S
C1256 C1258 1.378 . S
C1256 C1260 1.350 . S
C1257 C1260 1.463 . S
C1257 C1262 1.350 . S
C1257 N1265 1.427 . S
C1258 H1249 0.930 . S
C1258 C1256 1.378 . S
C1258 C1259 1.367 . S
C1259 C1258 1.367 . S
C1259 C1261 1.433 . S
C1260 C1256 1.350 . S
C1260 C1257 1.463 . S
C1260 N1264 1.427 . S
C1261 H1251 0.929 . S
C1261 C1259 1.433 . S
C1261 N1264 1.384 . S
C1262 H1253 0.929 . S
C1262 C1254 1.378 . S
C1262 C1257 1.350 . S
C1263 H1250 0.929 . S
C1263 C1255 1.433 . S
C1263 N1265 1.384 . S
N1264 C1260 1.427 . S
N1264 C1261 1.384 . S
N1265 C1257 1.427 . S
N1265 C1263 1.384 . S
H1266 C1272 0.930 . S
H1267 C1276 0.930 . S
H1268 C1281 0.929 . S
H1269 C1279 0.929 1_556 S
H1270 C1274 0.929 . S
H1271 C1280 0.929 . S
C1272 H1266 0.930 . S
C1272 C1273 1.367 . S
C1272 C1280 1.378 . S
C1273 C1272 1.367 . S
C1273 C1281 1.433 1_556 S
C1274 H1270 0.929 . S
C1274 C1276 1.378 . S
C1274 C1278 1.350 . S
C1275 C1278 1.463 . S
C1275 C1280 1.350 1_554 S
C1275 N1283 1.427 . S
C1276 H1267 0.930 . S
C1276 C1274 1.378 . S
C1276 C1277 1.367 . S
C1277 C1276 1.367 . S
C1277 C1279 1.433 . S
C1278 C1274 1.350 . S
C1278 C1275 1.463 . S
C1278 N1282 1.427 1_554 S
C1279 H1269 0.929 1_554 S
C1279 C1277 1.433 . S
C1279 N1282 1.384 1_554 S
C1280 H1271 0.929 . S
C1280 C1272 1.378 . S
C1280 C1275 1.350 1_556 S
C1281 H1268 0.929 . S
C1281 C1273 1.433 1_554 S
C1281 N1283 1.384 . S
N1282 C1278 1.427 1_556 S
N1282 C1279 1.384 1_556 S
N1283 C1275 1.427 . S
N1283 C1281 1.384 . S
H1284 C1290 0.930 . S
H1285 C1294 0.930 . S
H1286 C1299 0.929 . S
H1287 C1297 0.929 . S
H1288 C1292 0.929 . S
H1289 C1298 0.929 . S
C1290 H1284 0.930 . S
C1290 C1291 1.367 . S
C1290 C1298 1.378 . S
C1291 C1290 1.367 . S
C1291 C1299 1.433 . S
C1292 H1288 0.929 . S
C1292 C1294 1.378 . S
C1292 C1296 1.350 . S
C1293 C1296 1.463 . S
C1293 C1298 1.350 . S
C1293 N1301 1.427 . S
C1294 H1285 0.930 . S
C1294 C1292 1.378 . S
C1294 C1295 1.367 . S
C1295 C1294 1.367 . S
C1295 C1297 1.433 . S
C1296 C1292 1.350 . S
C1296 C1293 1.463 . S
C1296 N1300 1.427 . S
C1297 H1287 0.929 . S
C1297 C1295 1.433 . S
C1297 N1300 1.384 . S
C1298 H1289 0.929 . S
C1298 C1290 1.378 . S
C1298 C1293 1.350 . S
C1299 H1286 0.929 . S
C1299 C1291 1.433 . S
C1299 N1301 1.384 . S
N1300 C1296 1.427 . S
N1300 C1297 1.384 . S
N1301 C1293 1.427 . S
N1301 C1299 1.384 . S
H1302 C1308 0.930 . S
H1303 C1312 0.930 . S
H1304 C1317 0.929 . S
H1305 C1315 0.929 . S
H1306 C1310 0.929 . S
H1307 C1316 0.929 . S
C1308 H1302 0.930 . S
C1308 C1309 1.367 1_556 S
C1308 C1316 1.378 . S
C1309 C1308 1.367 1_554 S
C1309 C1317 1.433 . S
C1310 H1306 0.929 . S
C1310 C1312 1.378 . S
C1310 C1314 1.350 . S
C1311 C1314 1.463 . S
C1311 C1316 1.350 1_554 S
C1311 N1319 1.427 . S
C1312 H1303 0.930 . S
C1312 C1310 1.378 . S
C1312 C1313 1.367 . S
C1313 C1312 1.367 . S
C1313 C1315 1.433 1_554 S
C1314 C1310 1.350 . S
C1314 C1311 1.463 . S
C1314 N1318 1.427 1_554 S
C1315 H1305 0.929 . S
C1315 C1313 1.433 1_556 S
C1315 N1318 1.384 . S
C1316 H1307 0.929 . S
C1316 C1308 1.378 . S
C1316 C1311 1.350 1_556 S
C1317 H1304 0.929 . S
C1317 C1309 1.433 . S
C1317 N1319 1.384 . S
N1318 C1314 1.427 1_556 S
N1318 C1315 1.384 . S
N1319 C1311 1.427 . S
N1319 C1317 1.384 . S
H1320 C1326 0.930 . S
H1321 C1330 0.930 . S
H1322 C1335 0.929 . S
H1323 C1333 0.929 . S
H1324 C1328 0.929 . S
H1325 C1334 0.929 . S
C1326 H1320 0.930 . S
C1326 C1327 1.367 . S
C1326 C1334 1.378 . S
C1327 C1326 1.367 . S
C1327 C1335 1.433 . S
C1328 H1324 0.929 . S
C1328 C1330 1.378 . S
C1328 C1332 1.350 . S
C1329 C1332 1.463 . S
C1329 C1334 1.350 . S
C1329 N1337 1.427 . S
C1330 H1321 0.930 . S
C1330 C1328 1.378 . S
C1330 C1331 1.367 . S
C1331 C1330 1.367 . S
C1331 C1333 1.433 . S
C1332 C1328 1.350 . S
C1332 C1329 1.463 . S
C1332 N1336 1.427 . S
C1333 H1323 0.929 . S
C1333 C1331 1.433 . S
C1333 N1336 1.384 . S
C1334 H1325 0.929 . S
C1334 C1326 1.378 . S
C1334 C1329 1.350 . S
C1335 H1322 0.929 . S
C1335 C1327 1.433 . S
C1335 N1337 1.384 . S
N1336 C1332 1.427 . S
N1336 C1333 1.384 . S
N1337 C1329 1.427 . S
N1337 C1335 1.384 . S
H1338 C1344 0.930 . S
H1339 C1348 0.930 . S
H1340 C1353 0.929 . S
H1341 C1351 0.929 . S
H1342 C1346 0.929 1_655 S
H1343 C1352 0.929 . S
C1344 H1338 0.930 . S
C1344 C1345 1.364 1_455 S
C1344 C1352 1.378 . S
C1345 C1344 1.364 1_655 S
C1345 C1353 1.436 . S
C1346 H1342 0.929 1_455 S
C1346 C1348 1.378 . S
C1346 C1350 1.350 . S
C1347 C1350 1.463 . S
C1347 C1352 1.350 . S
C1347 N1355 1.427 1_455 S
C1348 H1339 0.930 . S
C1348 C1346 1.378 . S
C1348 C1349 1.367 . S
C1349 C1348 1.367 . S
C1349 C1351 1.433 . S
C1350 C1346 1.350 . S
C1350 C1347 1.463 . S
C1350 N1354 1.427 . S
C1351 H1341 0.929 . S
C1351 C1349 1.433 . S
C1351 N1354 1.384 . S
C1352 H1343 0.929 . S
C1352 C1344 1.378 . S
C1352 C1347 1.350 . S
C1353 H1340 0.929 . S
C1353 C1345 1.436 . S
C1353 N1355 1.384 . S
N1354 C1350 1.427 . S
N1354 C1351 1.384 . S
N1355 C1347 1.427 1_655 S
N1355 C1353 1.384 . S
H1356 C1362 0.930 . S
H1357 C1366 0.930 . S
H1358 C1371 0.929 . S
H1359 C1369 0.929 . S
H1360 C1364 0.929 . S
H1361 C1370 0.929 . S
C1362 H1356 0.930 . S
C1362 C1363 1.367 . S
C1362 C1370 1.378 . S
C1363 C1362 1.367 . S
C1363 C1371 1.433 . S
C1364 H1360 0.929 . S
C1364 C1366 1.378 . S
C1364 C1368 1.350 . S
C1365 C1368 1.463 . S
C1365 C1370 1.350 . S
C1365 N1373 1.427 . S
C1366 H1357 0.930 . S
C1366 C1364 1.378 . S
C1366 C1367 1.367 . S
C1367 C1366 1.367 . S
C1367 C1369 1.433 . S
C1368 C1364 1.350 . S
C1368 C1365 1.463 . S
C1368 N1372 1.427 . S
C1369 H1359 0.929 . S
C1369 C1367 1.433 . S
C1369 N1372 1.384 . S
C1370 H1361 0.929 . S
C1370 C1362 1.378 . S
C1370 C1365 1.350 . S
C1371 H1358 0.929 . S
C1371 C1363 1.433 . S
C1371 N1373 1.384 . S
N1372 C1368 1.427 . S
N1372 C1369 1.384 . S
N1373 C1365 1.427 . S
N1373 C1371 1.384 . S
H1374 C1380 0.930 . S
H1375 C1384 0.930 . S
H1376 C1389 0.929 . S
H1377 C1387 0.929 . S
H1378 C1382 0.929 . S
H1379 C1388 0.929 . S
C1380 H1374 0.930 . S
C1380 C1381 1.367 1_655 S
C1380 C1388 1.378 . S
C1381 C1380 1.367 1_455 S
C1381 C1389 1.433 . S
C1382 H1378 0.929 . S
C1382 C1384 1.378 . S
C1382 C1386 1.350 . S
C1383 C1386 1.463 . S
C1383 C1388 1.350 1_455 S
C1383 N1391 1.427 . S
C1384 H1375 0.930 . S
C1384 C1382 1.378 . S
C1384 C1385 1.367 . S
C1385 C1384 1.367 . S
C1385 C1387 1.433 1_455 S
C1386 C1382 1.350 . S
C1386 C1383 1.463 . S
C1386 N1390 1.427 1_455 S
C1387 H1377 0.929 . S
C1387 C1385 1.433 1_655 S
C1387 N1390 1.384 . S
C1388 H1379 0.929 . S
C1388 C1380 1.378 . S
C1388 C1383 1.350 1_655 S
C1389 H1376 0.929 . S
C1389 C1381 1.433 . S
C1389 N1391 1.384 . S
N1390 C1386 1.427 1_655 S
N1390 C1387 1.384 . S
N1391 C1383 1.427 . S
N1391 C1389 1.384 . S
H1392 C1398 0.930 . S
H1393 C1402 0.930 . S
H1394 C1407 0.929 . S
H1395 C1405 0.929 . S
H1396 C1400 0.929 . S
H1397 C1406 0.929 . S
C1398 H1392 0.930 . S
C1398 C1399 1.367 . S
C1398 C1406 1.378 . S
C1399 C1398 1.367 . S
C1399 C1407 1.433 . S
C1400 H1396 0.929 . S
C1400 C1402 1.378 . S
C1400 C1404 1.350 . S
C1401 C1404 1.463 . S
C1401 C1406 1.350 . S
C1401 N1409 1.427 . S
C1402 H1393 0.930 . S
C1402 C1400 1.378 . S
C1402 C1403 1.367 . S
C1403 C1402 1.367 . S
C1403 C1405 1.433 . S
C1404 C1400 1.350 . S
C1404 C1401 1.463 . S
C1404 N1408 1.427 . S
C1405 H1395 0.929 . S
C1405 C1403 1.433 . S
C1405 N1408 1.384 . S
C1406 H1397 0.929 . S
C1406 C1398 1.378 . S
C1406 C1401 1.350 . S
C1407 H1394 0.929 . S
C1407 C1399 1.433 . S
C1407 N1409 1.384 . S
N1408 C1404 1.427 . S
N1408 C1405 1.384 . S
N1409 C1401 1.427 . S
N1409 C1407 1.384 . S
H1410 C1416 0.930 . S
H1411 C1420 0.930 . S
H1412 C1425 0.929 . S
H1413 C1423 0.929 . S
H1414 C1418 0.929 . S
H1415 C1424 0.929 . S
C1416 H1410 0.930 . S
C1416 C1417 1.367 . S
C1416 C1424 1.378 . S
C1417 C1416 1.367 . S
C1417 C1425 1.433 . S
C1418 H1414 0.929 . S
C1418 C1420 1.378 . S
C1418 C1422 1.350 . S
C1419 C1422 1.463 . S
C1419 C1424 1.350 . S
C1419 N1427 1.427 . S
C1420 H1411 0.930 . S
C1420 C1418 1.378 . S
C1420 C1421 1.367 . S
C1421 C1420 1.367 . S
C1421 C1423 1.433 . S
C1422 C1418 1.350 . S
C1422 C1419 1.463 . S
C1422 N1426 1.427 . S
C1423 H1413 0.929 . S
C1423 C1421 1.433 . S
C1423 N1426 1.384 . S
C1424 H1415 0.929 . S
C1424 C1416 1.378 . S
C1424 C1419 1.350 . S
C1425 H1412 0.929 . S
C1425 C1417 1.433 . S
C1425 N1427 1.384 . S
N1426 C1422 1.427 . S
N1426 C1423 1.384 . S
N1427 C1419 1.427 . S
N1427 C1425 1.384 . S
H1428 C1434 0.930 . S
H1429 C1438 0.930 . S
H1430 C1443 0.929 . S
H1431 C1441 0.929 . S
H1432 C1436 0.929 . S
H1433 C1442 0.929 . S
C1434 H1428 0.930 . S
C1434 C1435 1.367 1_565 S
C1434 C1442 1.378 . S
C1435 C1434 1.367 1_545 S
C1435 C1443 1.433 . S
C1436 H1432 0.929 . S
C1436 C1438 1.378 . S
C1436 C1440 1.350 . S
C1437 C1440 1.463 . S
C1437 C1442 1.350 1_545 S
C1437 N1445 1.427 . S
C1438 H1429 0.930 . S
C1438 C1436 1.378 . S
C1438 C1439 1.367 . S
C1439 C1438 1.367 . S
C1439 C1441 1.433 1_545 S
C1440 C1436 1.350 . S
C1440 C1437 1.463 . S
C1440 N1444 1.427 1_545 S
C1441 H1431 0.929 . S
C1441 C1439 1.433 1_565 S
C1441 N1444 1.384 . S
C1442 H1433 0.929 . S
C1442 C1434 1.378 . S
C1442 C1437 1.350 1_565 S
C1443 H1430 0.929 . S
C1443 C1435 1.433 . S
C1443 N1445 1.384 . S
N1444 C1440 1.427 1_565 S
N1444 C1441 1.384 . S
N1445 C1437 1.427 . S
N1445 C1443 1.384 . S
H1446 C1452 0.930 1_545 S
H1447 C1456 0.930 . S
H1448 C1461 0.929 . S
H1449 C1459 0.929 . S
H1450 C1454 0.929 . S
H1451 C1460 0.929 . S
C1452 H1446 0.930 1_565 S
C1452 C1453 1.367 . S
C1452 C1460 1.378 . S
C1453 C1452 1.367 . S
C1453 C1461 1.433 . S
C1454 H1450 0.929 . S
C1454 C1456 1.378 . S
C1454 C1458 1.350 . S
C1455 C1458 1.463 . S
C1455 C1460 1.350 . S
C1455 N1463 1.427 . S
C1456 H1447 0.930 . S
C1456 C1454 1.378 . S
C1456 C1457 1.367 . S
C1457 C1456 1.367 . S
C1457 C1459 1.433 . S
C1458 C1454 1.350 . S
C1458 C1455 1.463 . S
C1458 N1462 1.427 . S
C1459 H1449 0.929 . S
C1459 C1457 1.433 . S
C1459 N1462 1.384 . S
C1460 H1451 0.929 . S
C1460 C1452 1.378 . S
C1460 C1455 1.350 . S
C1461 H1448 0.929 . S
C1461 C1453 1.433 . S
C1461 N1463 1.384 . S
N1462 C1458 1.427 . S
N1462 C1459 1.384 . S
N1463 C1455 1.427 . S
N1463 C1461 1.384 . S
H1464 C1470 0.930 . S
H1465 C1474 0.930 . S
H1466 C1479 0.929 . S
H1467 C1477 0.929 . S
H1468 C1472 0.929 . S
H1469 C1478 0.929 . S
C1470 H1464 0.930 . S
C1470 C1471 1.367 . S
C1470 C1478 1.378 . S
C1471 C1470 1.367 . S
C1471 C1479 1.433 . S
C1472 H1468 0.929 . S
C1472 C1474 1.378 . S
C1472 C1476 1.350 . S
C1473 C1476 1.463 . S
C1473 C1478 1.350 . S
C1473 N1481 1.427 . S
C1474 H1465 0.930 . S
C1474 C1472 1.378 . S
C1474 C1475 1.367 . S
C1475 C1474 1.367 . S
C1475 C1477 1.433 . S
C1476 C1472 1.350 . S
C1476 C1473 1.463 . S
C1476 N1480 1.427 . S
C1477 H1467 0.929 . S
C1477 C1475 1.433 . S
C1477 N1480 1.384 . S
C1478 H1469 0.929 . S
C1478 C1470 1.378 . S
C1478 C1473 1.350 . S
C1479 H1466 0.929 . S
C1479 C1471 1.433 . S
C1479 N1481 1.384 . S
N1480 C1476 1.427 . S
N1480 C1477 1.384 . S
N1481 C1473 1.427 . S
N1481 C1479 1.384 . S
H1482 C1488 0.930 . S
H1483 C1492 0.930 . S
H1484 C1497 0.929 . S
H1485 C1495 0.929 . S
H1486 C1490 0.929 1_554 S
H1487 C1496 0.929 . S
C1488 H1482 0.930 . S
C1488 C1489 1.367 . S
C1488 C1496 1.378 . S
C1489 C1488 1.367 . S
C1489 C1497 1.433 1_556 S
C1490 H1486 0.929 1_556 S
C1490 C1492 1.378 . S
C1490 C1494 1.350 . S
C1491 C1494 1.463 . S
C1491 C1496 1.350 . S
C1491 N1499 1.427 1_556 S
C1492 H1483 0.930 . S
C1492 C1490 1.378 . S
C1492 C1493 1.367 . S
C1493 C1492 1.367 . S
C1493 C1495 1.433 . S
C1494 C1490 1.350 . S
C1494 C1491 1.463 . S
C1494 N1498 1.427 . S
C1495 H1485 0.929 . S
C1495 C1493 1.433 . S
C1495 N1498 1.384 . S
C1496 H1487 0.929 . S
C1496 C1488 1.378 . S
C1496 C1491 1.350 . S
C1497 H1484 0.929 . S
C1497 C1489 1.433 1_554 S
C1497 N1499 1.384 . S
N1498 C1494 1.427 . S
N1498 C1495 1.384 . S
N1499 C1491 1.427 1_554 S
N1499 C1497 1.384 . S
H1500 C1506 0.930 . S
H1501 C1510 0.930 . S
H1502 C1515 0.929 . S
H1503 C1513 0.929 . S
H1504 C1508 0.929 . S
H1505 C1514 0.929 . S
C1506 H1500 0.930 . S
C1506 C1507 1.367 . S
C1506 C1514 1.378 . S
C1507 C1506 1.367 . S
C1507 C1515 1.433 . S
C1508 H1504 0.929 . S
C1508 C1510 1.378 . S
C1508 C1512 1.350 . S
C1509 C1512 1.463 . S
C1509 C1514 1.350 . S
C1509 N1517 1.427 . S
C1510 H1501 0.930 . S
C1510 C1508 1.378 . S
C1510 C1511 1.367 . S
C1511 C1510 1.367 . S
C1511 C1513 1.433 . S
C1512 C1508 1.350 . S
C1512 C1509 1.463 . S
C1512 N1516 1.427 . S
C1513 H1503 0.929 . S
C1513 C1511 1.433 . S
C1513 N1516 1.384 . S
C1514 H1505 0.929 . S
C1514 C1506 1.378 . S
C1514 C1509 1.350 . S
C1515 H1502 0.929 . S
C1515 C1507 1.433 . S
C1515 N1517 1.384 . S
N1516 C1512 1.427 . S
N1516 C1513 1.384 . S
N1517 C1509 1.427 . S
N1517 C1515 1.384 . S
H1518 C1524 0.930 . S
H1519 C1528 0.930 . S
H1520 C1533 0.929 . S
H1521 C1531 0.929 . S
H1522 C1526 0.929 . S
H1523 C1532 0.929 . S
C1524 H1518 0.930 . S
C1524 C1525 1.367 1_556 S
C1524 C1532 1.378 . S
C1525 C1524 1.367 1_554 S
C1525 C1533 1.433 . S
C1526 H1522 0.929 . S
C1526 C1528 1.378 . S
C1526 C1530 1.350 . S
C1527 C1530 1.463 . S
C1527 C1532 1.350 1_554 S
C1527 N1535 1.427 . S
C1528 H1519 0.930 . S
C1528 C1526 1.378 . S
C1528 C1529 1.367 . S
C1529 C1528 1.367 . S
C1529 C1531 1.433 1_554 S
C1530 C1526 1.350 . S
C1530 C1527 1.463 . S
C1530 N1534 1.427 1_554 S
C1531 H1521 0.929 . S
C1531 C1529 1.433 1_556 S
C1531 N1534 1.384 . S
C1532 H1523 0.929 . S
C1532 C1524 1.378 . S
C1532 C1527 1.350 1_556 S
C1533 H1520 0.929 . S
C1533 C1525 1.433 . S
C1533 N1535 1.384 . S
N1534 C1530 1.427 1_556 S
N1534 C1531 1.384 . S
N1535 C1527 1.427 . S
N1535 C1533 1.384 . S
H1536 C1542 0.930 . S
H1537 C1546 0.930 . S
H1538 C1551 0.929 . S
H1539 C1549 0.929 . S
H1540 C1544 0.929 . S
H1541 C1550 0.929 . S
C1542 H1536 0.930 . S
C1542 C1543 1.367 . S
C1542 C1550 1.378 . S
C1543 C1542 1.367 . S
C1543 C1551 1.433 . S
C1544 H1540 0.929 . S
C1544 C1546 1.378 . S
C1544 C1548 1.350 . S
C1545 C1548 1.463 . S
C1545 C1550 1.350 . S
C1545 N1553 1.427 . S
C1546 H1537 0.930 . S
C1546 C1544 1.378 . S
C1546 C1547 1.367 . S
C1547 C1546 1.367 . S
C1547 C1549 1.433 . S
C1548 C1544 1.350 . S
C1548 C1545 1.463 . S
C1548 N1552 1.427 . S
C1549 H1539 0.929 . S
C1549 C1547 1.433 . S
C1549 N1552 1.384 . S
C1550 H1541 0.929 . S
C1550 C1542 1.378 . S
C1550 C1545 1.350 . S
C1551 H1538 0.929 . S
C1551 C1543 1.433 . S
C1551 N1553 1.384 . S
N1552 C1548 1.427 . S
N1552 C1549 1.384 . S
N1553 C1545 1.427 . S
N1553 C1551 1.384 . S
H1554 C1560 0.930 . S
H1555 C1564 0.930 . S
H1556 C1569 0.929 . S
H1557 C1567 0.929 . S
H1558 C1562 0.929 1_455 S
H1559 C1568 0.929 . S
C1560 H1554 0.930 . S
C1560 C1561 1.367 . S
C1560 C1568 1.378 . S
C1561 C1560 1.367 . S
C1561 C1569 1.433 1_655 S
C1562 H1558 0.929 1_655 S
C1562 C1564 1.378 . S
C1562 C1566 1.350 . S
C1563 C1566 1.463 . S
C1563 C1568 1.350 . S
C1563 N1571 1.394 1_655 S
C1564 H1555 0.930 . S
C1564 C1562 1.378 . S
C1564 C1565 1.367 . S
C1565 C1564 1.367 . S
C1565 C1567 1.433 . S
C1566 C1562 1.350 . S
C1566 C1563 1.463 . S
C1566 N1570 1.427 . S
C1567 H1557 0.929 . S
C1567 C1565 1.433 . S
C1567 N1570 1.384 . S
C1568 H1559 0.929 . S
C1568 C1560 1.378 . S
C1568 C1563 1.350 . S
C1569 H1556 0.929 . S
C1569 C1561 1.433 1_455 S
C1569 N1571 1.391 . S
N1570 C1566 1.427 . S
N1570 C1567 1.384 . S
N1571 C1563 1.394 1_455 S
N1571 C1569 1.391 . S
H1572 C1578 0.930 . S
H1573 C1582 0.930 . S
H1574 C1587 0.929 . S
H1575 C1585 0.929 . S
H1576 C1580 0.929 . S
H1577 C1586 0.929 . S
C1578 H1572 0.930 . S
C1578 C1579 1.367 . S
C1578 C1586 1.378 . S
C1579 C1578 1.367 . S
C1579 C1587 1.433 . S
C1580 H1576 0.929 . S
C1580 C1582 1.378 . S
C1580 C1584 1.350 . S
C1581 C1584 1.463 . S
C1581 C1586 1.350 . S
C1581 N1589 1.427 . S
C1582 H1573 0.930 . S
C1582 C1580 1.378 . S
C1582 C1583 1.367 . S
C1583 C1582 1.367 . S
C1583 C1585 1.433 . S
C1584 C1580 1.350 . S
C1584 C1581 1.463 . S
C1584 N1588 1.427 . S
C1585 H1575 0.929 . S
C1585 C1583 1.433 . S
C1585 N1588 1.384 . S
C1586 H1577 0.929 . S
C1586 C1578 1.378 . S
C1586 C1581 1.350 . S
C1587 H1574 0.929 . S
C1587 C1579 1.433 . S
C1587 N1589 1.384 . S
N1588 C1584 1.427 . S
N1588 C1585 1.384 . S
N1589 C1581 1.427 . S
N1589 C1587 1.384 . S
H1590 C1596 0.930 . S
H1591 C1600 0.930 1_655 S
H1592 C1605 0.929 . S
H1593 C1603 0.929 . S
H1594 C1598 0.929 1_655 S
H1595 C1604 0.929 . S
C1596 H1590 0.930 . S
C1596 C1597 1.367 . S
C1596 C1604 1.378 . S
C1597 C1596 1.367 . S
C1597 C1605 1.433 1_455 S
C1598 H1594 0.929 1_455 S
C1598 C1600 1.378 . S
C1598 C1602 1.350 . S
C1599 C1602 1.463 . S
C1599 C1604 1.350 . S
C1599 N1607 1.427 1_455 S
C1600 H1591 0.930 1_455 S
C1600 C1598 1.378 . S
C1600 C1601 1.367 . S
C1601 C1600 1.367 . S
C1601 C1603 1.433 . S
C1602 C1598 1.350 . S
C1602 C1599 1.463 . S
C1602 N1606 1.427 . S
C1603 H1593 0.929 . S
C1603 C1601 1.433 . S
C1603 N1606 1.384 . S
C1604 H1595 0.929 . S
C1604 C1596 1.378 . S
C1604 C1599 1.350 . S
C1605 H1592 0.929 . S
C1605 C1597 1.433 1_655 S
C1605 N1607 1.384 . S
N1606 C1602 1.427 . S
N1606 C1603 1.384 . S
N1607 C1599 1.427 1_655 S
N1607 C1605 1.384 . S
H1608 C1614 0.930 . S
H1609 C1618 0.930 . S
H1610 C1623 0.929 . S
H1611 C1621 0.929 . S
H1612 C1616 0.929 . S
H1613 C1622 0.929 . S
C1614 H1608 0.930 . S
C1614 C1615 1.367 . S
C1614 C1622 1.378 . S
C1615 C1614 1.367 . S
C1615 C1623 1.433 . S
C1616 H1612 0.929 . S
C1616 C1618 1.378 . S
C1616 C1620 1.350 . S
C1617 C1620 1.463 . S
C1617 C1622 1.350 . S
C1617 N1625 1.427 . S
C1618 H1609 0.930 . S
C1618 C1616 1.378 . S
C1618 C1619 1.367 . S
C1619 C1618 1.367 . S
C1619 C1621 1.433 . S
C1620 C1616 1.350 . S
C1620 C1617 1.463 . S
C1620 N1624 1.427 . S
C1621 H1611 0.929 . S
C1621 C1619 1.433 . S
C1621 N1624 1.384 . S
C1622 H1613 0.929 . S
C1622 C1614 1.378 . S
C1622 C1617 1.350 . S
C1623 H1610 0.929 . S
C1623 C1615 1.433 . S
C1623 N1625 1.384 . S
N1624 C1620 1.427 . S
N1624 C1621 1.384 . S
N1625 C1617 1.427 . S
N1625 C1623 1.384 . S
H1626 C1632 0.930 . S
H1627 C1636 0.930 . S
H1628 C1641 0.929 . S
H1629 C1639 0.929 . S
H1630 C1634 0.929 . S
H1631 C1640 0.929 . S
C1632 H1626 0.930 . S
C1632 C1633 1.367 . S
C1632 C1640 1.378 . S
C1633 C1632 1.367 . S
C1633 C1641 1.433 . S
C1634 H1630 0.929 . S
C1634 C1636 1.378 . S
C1634 C1638 1.350 . S
C1635 C1638 1.463 . S
C1635 C1640 1.350 . S
C1635 N1643 1.427 . S
C1636 H1627 0.930 . S
C1636 C1634 1.378 . S
C1636 C1637 1.367 . S
C1637 C1636 1.367 . S
C1637 C1639 1.433 . S
C1638 C1634 1.350 . S
C1638 C1635 1.463 . S
C1638 N1642 1.427 . S
C1639 H1629 0.929 . S
C1639 C1637 1.433 . S
C1639 N1642 1.384 . S
C1640 H1631 0.929 . S
C1640 C1632 1.378 . S
C1640 C1635 1.350 . S
C1641 H1628 0.929 . S
C1641 C1633 1.433 . S
C1641 N1643 1.384 . S
N1642 C1638 1.427 . S
N1642 C1639 1.384 . S
N1643 C1635 1.427 . S
N1643 C1641 1.384 . S
H1644 C1650 0.930 . S
H1645 C1654 0.930 . S
H1646 C1659 0.929 . S
H1647 C1657 0.929 . S
H1648 C1652 0.929 . S
H1649 C1658 0.929 . S
C1650 H1644 0.930 . S
C1650 C1651 1.367 . S
C1650 C1658 1.378 . S
C1651 C1650 1.367 . S
C1651 C1659 1.433 1_565 S
C1652 H1648 0.929 . S
C1652 C1654 1.378 . S
C1652 C1656 1.350 1_545 S
C1653 C1656 1.463 . S
C1653 C1658 1.350 . S
C1653 N1661 1.427 1_565 S
C1654 H1645 0.930 . S
C1654 C1652 1.378 . S
C1654 C1655 1.367 1_545 S
C1655 C1654 1.367 1_565 S
C1655 C1657 1.433 . S
C1656 C1652 1.350 1_565 S
C1656 C1653 1.463 . S
C1656 N1660 1.427 . S
C1657 H1647 0.929 . S
C1657 C1655 1.433 . S
C1657 N1660 1.384 . S
C1658 H1649 0.929 . S
C1658 C1650 1.378 . S
C1658 C1653 1.350 . S
C1659 H1646 0.929 . S
C1659 C1651 1.433 1_545 S
C1659 N1661 1.384 . S
N1660 C1656 1.427 . S
N1660 C1657 1.384 . S
N1661 C1653 1.427 1_545 S
N1661 C1659 1.384 . S
H1662 C1668 0.930 . S
H1663 C1672 0.930 1_565 S
H1664 C1677 0.929 . S
H1665 C1675 0.929 . S
H1666 C1670 0.929 1_565 S
H1667 C1676 0.929 . S
C1668 H1662 0.930 . S
C1668 C1669 1.367 . S
C1668 C1676 1.378 . S
C1669 C1668 1.367 . S
C1669 C1677 1.433 1_545 S
C1670 H1666 0.929 1_545 S
C1670 C1672 1.378 . S
C1670 C1674 1.350 . S
C1671 C1674 1.463 . S
C1671 C1676 1.350 . S
C1671 N1679 1.427 1_545 S
C1672 H1663 0.930 1_545 S
C1672 C1670 1.378 . S
C1672 C1673 1.367 . S
C1673 C1672 1.367 . S
C1673 C1675 1.433 . S
C1674 C1670 1.350 . S
C1674 C1671 1.463 . S
C1674 N1678 1.427 . S
C1675 H1665 0.929 . S
C1675 C1673 1.433 . S
C1675 N1678 1.384 . S
C1676 H1667 0.929 . S
C1676 C1668 1.378 . S
C1676 C1671 1.350 . S
C1677 H1664 0.929 . S
C1677 C1669 1.433 1_565 S
C1677 N1679 1.384 . S
N1678 C1674 1.427 . S
N1678 C1675 1.384 . S
N1679 C1671 1.427 1_565 S
N1679 C1677 1.384 . S
H1680 C1686 0.930 . S
H1681 C1690 0.930 . S
H1682 C1695 0.929 . S
H1683 C1693 0.929 . S
H1684 C1688 0.929 . S
H1685 C1694 0.929 . S
C1686 H1680 0.930 . S
C1686 C1687 1.367 . S
C1686 C1694 1.378 . S
C1687 C1686 1.367 . S
C1687 C1695 1.433 . S
C1688 H1684 0.929 . S
C1688 C1690 1.378 . S
C1688 C1692 1.350 . S
C1689 C1692 1.463 . S
C1689 C1694 1.350 . S
C1689 N1697 1.427 . S
C1690 H1681 0.930 . S
C1690 C1688 1.378 . S
C1690 C1691 1.367 . S
C1691 C1690 1.367 . S
C1691 C1693 1.433 . S
C1692 C1688 1.350 . S
C1692 C1689 1.463 . S
C1692 N1696 1.427 . S
C1693 H1683 0.929 . S
C1693 C1691 1.433 . S
C1693 N1696 1.384 . S
C1694 H1685 0.929 . S
C1694 C1686 1.378 . S
C1694 C1689 1.350 . S
C1695 H1682 0.929 . S
C1695 C1687 1.433 . S
C1695 N1697 1.384 . S
N1696 C1692 1.427 . S
N1696 C1693 1.384 . S
N1697 C1689 1.427 . S
N1697 C1695 1.384 . S
H1698 C1704 0.930 . S
H1699 C1708 0.930 . S
H1700 C1713 0.929 . S
H1701 C1711 0.929 . S
H1702 C1706 0.929 1_556 S
H1703 C1712 0.929 . S
C1704 H1698 0.930 . S
C1704 C1705 1.367 . S
C1704 C1712 1.378 . S
C1705 C1704 1.367 . S
C1705 C1713 1.433 1_554 S
C1706 H1702 0.929 1_554 S
C1706 C1708 1.378 . S
C1706 C1710 1.350 . S
C1707 C1710 1.463 . S
C1707 C1712 1.350 . S
C1707 N1715 1.427 1_554 S
C1708 H1699 0.930 . S
C1708 C1706 1.378 . S
C1708 C1709 1.367 . S
C1709 C1708 1.367 . S
C1709 C1711 1.433 . S
C1710 C1706 1.350 . S
C1710 C1707 1.463 . S
C1710 N1714 1.427 . S
C1711 H1701 0.929 . S
C1711 C1709 1.433 . S
C1711 N1714 1.384 . S
C1712 H1703 0.929 . S
C1712 C1704 1.378 . S
C1712 C1707 1.350 . S
C1713 H1700 0.929 . S
C1713 C1705 1.433 1_556 S
C1713 N1715 1.384 . S
N1714 C1710 1.427 . S
N1714 C1711 1.384 . S
N1715 C1707 1.427 1_556 S
N1715 C1713 1.384 . S
H1716 C1722 0.930 . S
H1717 C1726 0.930 . S
H1718 C1731 0.929 . S
H1719 C1729 0.929 . S
H1720 C1724 0.929 . S
H1721 C1730 0.929 . S
C1722 H1716 0.930 . S
C1722 C1723 1.367 . S
C1722 C1730 1.378 . S
C1723 C1722 1.367 . S
C1723 C1731 1.433 . S
C1724 H1720 0.929 . S
C1724 C1726 1.378 . S
C1724 C1728 1.350 . S
C1725 C1728 1.463 . S
C1725 C1730 1.350 . S
C1725 N1733 1.427 . S
C1726 H1717 0.930 . S
C1726 C1724 1.378 . S
C1726 C1727 1.367 . S
C1727 C1726 1.367 . S
C1727 C1729 1.433 . S
C1728 C1724 1.350 . S
C1728 C1725 1.463 . S
C1728 N1732 1.427 . S
C1729 H1719 0.929 . S
C1729 C1727 1.433 . S
C1729 N1732 1.384 . S
C1730 H1721 0.929 . S
C1730 C1722 1.378 . S
C1730 C1725 1.350 . S
C1731 H1718 0.929 . S
C1731 C1723 1.433 . S
C1731 N1733 1.384 . S
N1732 C1728 1.427 . S
N1732 C1729 1.384 . S
N1733 C1725 1.427 . S
N1733 C1731 1.384 . S
H1734 C1740 0.930 . S
H1735 C1744 0.930 1_554 S
H1736 C1749 0.929 . S
H1737 C1747 0.929 . S
H1738 C1742 0.929 . S
H1739 C1748 0.929 . S
C1740 H1734 0.930 . S
C1740 C1741 1.367 . S
C1740 C1748 1.378 . S
C1741 C1740 1.367 . S
C1741 C1749 1.433 1_556 S
C1742 H1738 0.929 . S
C1742 C1744 1.378 1_554 S
C1742 C1746 1.350 1_554 S
C1743 C1746 1.463 . S
C1743 C1748 1.350 . S
C1743 N1751 1.427 1_556 S
C1744 H1735 0.930 1_556 S
C1744 C1742 1.378 1_556 S
C1744 C1745 1.367 . S
C1745 C1744 1.367 . S
C1745 C1747 1.433 . S
C1746 C1742 1.350 1_556 S
C1746 C1743 1.463 . S
C1746 N1750 1.427 . S
C1747 H1737 0.929 . S
C1747 C1745 1.433 . S
C1747 N1750 1.384 . S
C1748 H1739 0.929 . S
C1748 C1740 1.378 . S
C1748 C1743 1.350 . S
C1749 H1736 0.929 . S
C1749 C1741 1.433 1_554 S
C1749 N1751 1.384 . S
N1750 C1746 1.427 . S
N1750 C1747 1.384 . S
N1751 C1743 1.427 1_554 S
N1751 C1749 1.384 . S
H1752 C1758 0.930 . S
H1753 C1762 0.930 . S
H1754 C1767 0.929 . S
H1755 C1765 0.929 . S
H1756 C1760 0.929 . S
H1757 C1766 0.929 . S
C1758 H1752 0.930 . S
C1758 C1759 1.367 . S
C1758 C1766 1.378 . S
C1759 C1758 1.367 . S
C1759 C1767 1.433 . S
C1760 H1756 0.929 . S
C1760 C1762 1.378 . S
C1760 C1764 1.350 . S
C1761 C1764 1.463 . S
C1761 C1766 1.350 . S
C1761 N1769 1.427 . S
C1762 H1753 0.930 . S
C1762 C1760 1.378 . S
C1762 C1763 1.367 . S
C1763 C1762 1.367 . S
C1763 C1765 1.433 . S
C1764 C1760 1.350 . S
C1764 C1761 1.463 . S
C1764 N1768 1.427 . S
C1765 H1755 0.929 . S
C1765 C1763 1.433 . S
C1765 N1768 1.384 . S
C1766 H1757 0.929 . S
C1766 C1758 1.378 . S
C1766 C1761 1.350 . S
C1767 H1754 0.929 . S
C1767 C1759 1.433 . S
C1767 N1769 1.384 . S
N1768 C1764 1.427 . S
N1768 C1765 1.384 . S
N1769 C1761 1.427 . S
N1769 C1767 1.384 . S
H1770 C1776 0.930 . S
H1771 C1780 0.930 . S
H1772 C1785 0.929 1_655 S
H1773 C1783 0.929 . S
H1774 C1778 0.929 . S
H1775 C1784 0.929 . S
C1776 H1770 0.930 . S
C1776 C1777 1.367 . S
C1776 C1784 1.378 . S
C1777 C1776 1.367 . S
C1777 C1785 1.433 . S
C1778 H1774 0.929 . S
C1778 C1780 1.378 . S
C1778 C1782 1.350 . S
C1779 C1782 1.463 . S
C1779 C1784 1.350 . S
C1779 N1787 1.427 . S
C1780 H1771 0.930 . S
C1780 C1778 1.378 . S
C1780 C1781 1.367 . S
C1781 C1780 1.367 . S
C1781 C1783 1.433 . S
C1782 C1778 1.350 . S
C1782 C1779 1.463 . S
C1782 N1786 1.427 . S
C1783 H1773 0.929 . S
C1783 C1781 1.433 . S
C1783 N1786 1.384 . S
C1784 H1775 0.929 . S
C1784 C1776 1.378 . S
C1784 C1779 1.350 . S
C1785 H1772 0.929 1_455 S
C1785 C1777 1.433 . S
C1785 N1787 1.384 . S
N1786 C1782 1.427 . S
N1786 C1783 1.384 . S
N1787 C1779 1.427 . S
N1787 C1785 1.384 . S
H1788 C1794 0.930 . S
H1789 C1798 0.930 . S
H1790 C1803 0.929 . S
H1791 C1801 0.929 . S
H1792 C1796 0.929 . S
H1793 C1802 0.929 . S
C1794 H1788 0.930 . S
C1794 C1795 1.367 . S
C1794 C1802 1.378 . S
C1795 C1794 1.367 . S
C1795 C1803 1.433 . S
C1796 H1792 0.929 . S
C1796 C1798 1.378 . S
C1796 C1800 1.350 . S
C1797 C1800 1.463 . S
C1797 C1802 1.350 . S
C1797 N1805 1.427 . S
C1798 H1789 0.930 . S
C1798 C1796 1.378 . S
C1798 C1799 1.367 . S
C1799 C1798 1.367 . S
C1799 C1801 1.433 . S
C1800 C1796 1.350 . S
C1800 C1797 1.463 . S
C1800 N1804 1.427 . S
C1801 H1791 0.929 . S
C1801 C1799 1.433 . S
C1801 N1804 1.384 . S
C1802 H1793 0.929 . S
C1802 C1794 1.378 . S
C1802 C1797 1.350 . S
C1803 H1790 0.929 . S
C1803 C1795 1.433 . S
C1803 N1805 1.384 . S
N1804 C1800 1.427 . S
N1804 C1801 1.384 . S
N1805 C1797 1.427 . S
N1805 C1803 1.384 . S
H1806 C1812 0.930 . S
H1807 C1816 0.930 1_455 S
H1808 C1821 0.929 . S
H1809 C1819 0.929 . S
H1810 C1814 0.929 . S
H1811 C1820 0.929 . S
C1812 H1806 0.930 . S
C1812 C1813 1.367 . S
C1812 C1820 1.378 . S
C1813 C1812 1.367 . S
C1813 C1821 1.433 1_655 S
C1814 H1810 0.929 . S
C1814 C1816 1.378 1_455 S
C1814 C1818 1.350 1_455 S
C1815 C1818 1.463 . S
C1815 C1820 1.350 . S
C1815 N1823 1.427 1_655 S
C1816 H1807 0.930 1_655 S
C1816 C1814 1.378 1_655 S
C1816 C1817 1.367 . S
C1817 C1816 1.367 . S
C1817 C1819 1.433 . S
C1818 C1814 1.350 1_655 S
C1818 C1815 1.463 . S
C1818 N1822 1.427 . S
C1819 H1809 0.929 . S
C1819 C1817 1.433 . S
C1819 N1822 1.384 . S
C1820 H1811 0.929 . S
C1820 C1812 1.378 . S
C1820 C1815 1.350 . S
C1821 H1808 0.929 . S
C1821 C1813 1.433 1_455 S
C1821 N1823 1.384 . S
N1822 C1818 1.427 . S
N1822 C1819 1.384 . S
N1823 C1815 1.427 1_455 S
N1823 C1821 1.384 . S
C539 C521 1.579 . S
C535 C8 1.586 . S
C557 C488 1.480 . S
C553 C19 1.465 . S
C575 C510 1.231 . S
C571 C30 1.256 . S
C593 C499 1.599 1_655 S
C589 C41 1.578 1_565 S
C611 C422 1.579 . S
C607 C52 1.586 . S
C625 C63 1.584 1_556 S
C629 C433 1.591 1_565 S
C647 C400 1.472 . S
C643 C74 1.475 . S
C661 C85 1.257 . S
C665 C411 1.237 . S
C683 C477 1.577 . S
C679 C96 1.590 . S
C697 C107 1.576 1_655 S
C701 C455 1.592 1_556 S
C715 C118 1.465 . S
C719 C444 1.480 . S
C737 C466 1.228 . S
C733 C129 1.250 . S
C755 C389 1.577 . S
C751 C140 1.562 . S
C769 C151 1.405 . S
C773 C356 1.481 . S
C791 C378 1.238 . S
C787 C162 1.229 . S
C805 C173 1.543 . S
C809 C367 1.592 1_455 S
C827 C290 1.579 . S
C823 C184 1.559 . S
C845 C301 1.595 1_545 S
C841 C195 1.541 . S
C859 C206 1.410 . S
C863 C268 1.480 . S
C877 C217 1.232 . S
C881 C279 1.239 . S
C895 C228 1.555 . S
C899 C345 1.580 . S
C913 C239 1.549 . S
C917 C323 1.587 1_554 S
C935 C312 1.475 . S
C931 C250 1.413 . S
C949 C261 1.234 . S
C953 C334 1.228 . S
C971 C269 1.425 . S
C967 C7 1.442 . S
C989 C280 1.374 . S
C985 C18 1.410 . S
C1003 C29 1.302 . S
C1007 C291 1.300 . S
C1021 C40 1.160 . S
C1025 C302 1.160 . S
C1043 C313 1.427 . S
C1039 C51 1.440 . S
C1057 C62 1.162 . S
C1061 C324 1.160 . S
C1079 C335 1.372 . S
C1075 C73 1.414 . S
C1097 C346 1.304 . S
C1093 C84 1.301 . S
C1115 C357 1.424 . S
C1111 C95 1.438 . S
C1129 C106 1.158 . S
C1133 C368 1.162 . S
C1147 C117 1.405 . S
C1151 C379 1.367 . S
C1165 C128 1.295 . S
C1169 C390 1.305 . S
C1183 C139 1.393 . S
C1187 C401 1.426 . S
C1201 C150 1.289 . S
C1205 C412 1.355 . S
C1219 C161 1.251 . S
C1223 C423 1.304 . S
C1237 C172 1.103 1_565 S
C1241 C434 1.163 . S
C1255 C183 1.379 . S
C1259 C445 1.413 . S
C1277 C456 1.166 . S
C1273 C194 1.128 1_556 S
C1295 C467 1.373 . S
C1291 C205 1.305 . S
C1313 C478 1.299 . S
C1309 C216 1.249 . S
C1331 C489 1.422 . S
C1327 C227 1.395 . S
C1345 C238 1.111 1_655 S
C1349 C500 1.159 . S
C1363 C249 1.302 . S
C1367 C511 1.372 . S
C1381 C260 1.253 . S
C1385 C522 1.298 . S
C1399 C5 1.338 . S
C1403 C362 1.508 . S
C1421 C395 1.541 . S
C1417 C16 1.426 . S
C1435 C27 1.244 1_545 S
C1439 C373 1.379 . S
C1457 C384 1.600 . S
C1453 C38 1.404 1_565 S
C1471 C49 1.340 . S
C1475 C274 1.512 . S
C1489 C60 1.417 1_556 S
C1493 C285 1.600 . S
C1507 C71 1.434 . S
C1511 C296 1.548 . S
C1525 C82 1.240 1_554 S
C1529 C307 1.377 . S
C1547 C318 1.508 . S
C1543 C93 1.332 . S
C1565 C340 1.602 . S
C1561 C104 1.414 1_655 S
C1579 C115 1.433 . S
C1583 C351 1.548 . S
C1597 C126 1.256 1_455 S
C1601 C329 1.384 . S
C1619 C494 1.517 . S
C1615 C137 1.252 . S
C1637 C527 1.541 . S
C1633 C148 1.226 . S
C1651 C159 1.177 . S
C1655 C505 1.391 . S
C1673 C516 1.607 . S
C1669 C170 1.219 . S
C1687 C181 1.235 . S
C1691 C406 1.519 . S
C1705 C192 1.215 . S
C1709 C417 1.604 . S
C1723 C203 1.227 . S
C1727 C428 1.541 . S
C1745 C439 1.390 . S
C1741 C214 1.170 . S
C1763 C450 1.511 . S
C1759 C225 1.262 . S
C1781 C472 1.604 . S
C1777 C236 1.222 . S
C1795 C247 1.199 . S
C1799 C483 1.552 . S
C1817 C461 1.392 . S
C1813 C258 1.184 . S
