# Generated by pormake.
# Topology ctn, (3,4)-cn, num edge types: 1
# Building blocks:
#     Node 0, Type 0, BuildingBlock: CUQRIR_clean_linker_1, # of connection points: 3
#     Node 1, Type 0, BuildingBlock: CUQRIR_clean_linker_1, # of connection points: 3
#     Node 2, Type 0, BuildingBlock: CUQRIR_clean_linker_1, # of connection points: 3
#     Node 3, Type 0, BuildingBlock: CUQRIR_clean_linker_1, # of connection points: 3
#     Node 4, Type 0, BuildingBlock: CUQRIR_clean_linker_1, # of connection points: 3
#     Node 5, Type 0, BuildingBlock: CUQRIR_clean_linker_1, # of connection points: 3
#     Node 6, Type 0, BuildingBlock: CUQRIR_clean_linker_1, # of connection points: 3
#     Node 7, Type 0, BuildingBlock: CUQRIR_clean_linker_1, # of connection points: 3
#     Node 8, Type 0, BuildingBlock: CUQRIR_clean_linker_1, # of connection points: 3
#     Node 9, Type 0, BuildingBlock: CUQRIR_clean_linker_1, # of connection points: 3
#     Node 10, Type 0, BuildingBlock: CUQRIR_clean_linker_1, # of connection points: 3
#     Node 11, Type 0, BuildingBlock: CUQRIR_clean_linker_1, # of connection points: 3
#     Node 12, Type 0, BuildingBlock: CUQRIR_clean_linker_1, # of connection points: 3
#     Node 13, Type 0, BuildingBlock: CUQRIR_clean_linker_1, # of connection points: 3
#     Node 14, Type 0, BuildingBlock: CUQRIR_clean_linker_1, # of connection points: 3
#     Node 15, Type 0, BuildingBlock: CUQRIR_clean_linker_1, # of connection points: 3
#     Node 16, Type 1, BuildingBlock: NAHDIM_clean_sbu_0, # of connection points: 4
#     Node 17, Type 1, BuildingBlock: NAHDIM_clean_sbu_0, # of connection points: 4
#     Node 18, Type 1, BuildingBlock: NAHDIM_clean_sbu_0, # of connection points: 4
#     Node 19, Type 1, BuildingBlock: NAHDIM_clean_sbu_0, # of connection points: 4
#     Node 20, Type 1, BuildingBlock: NAHDIM_clean_sbu_0, # of connection points: 4
#     Node 21, Type 1, BuildingBlock: NAHDIM_clean_sbu_0, # of connection points: 4
#     Node 22, Type 1, BuildingBlock: NAHDIM_clean_sbu_0, # of connection points: 4
#     Node 23, Type 1, BuildingBlock: NAHDIM_clean_sbu_0, # of connection points: 4
#     Node 24, Type 1, BuildingBlock: NAHDIM_clean_sbu_0, # of connection points: 4
#     Node 25, Type 1, BuildingBlock: NAHDIM_clean_sbu_0, # of connection points: 4
#     Node 26, Type 1, BuildingBlock: NAHDIM_clean_sbu_0, # of connection points: 4
#     Node 27, Type 1, BuildingBlock: NAHDIM_clean_sbu_0, # of connection points: 4
#     Edge 28, Type (0, 1), BuildingBlock: XIVTED_clean_linker_0, # of connection points: 2
#     Edge 29, Type (0, 1), BuildingBlock: XIVTED_clean_linker_0, # of connection points: 2
#     Edge 30, Type (0, 1), BuildingBlock: XIVTED_clean_linker_0, # of connection points: 2
#     Edge 31, Type (0, 1), BuildingBlock: XIVTED_clean_linker_0, # of connection points: 2
#     Edge 32, Type (0, 1), BuildingBlock: XIVTED_clean_linker_0, # of connection points: 2
#     Edge 33, Type (0, 1), BuildingBlock: XIVTED_clean_linker_0, # of connection points: 2
#     Edge 34, Type (0, 1), BuildingBlock: XIVTED_clean_linker_0, # of connection points: 2
#     Edge 35, Type (0, 1), BuildingBlock: XIVTED_clean_linker_0, # of connection points: 2
#     Edge 36, Type (0, 1), BuildingBlock: XIVTED_clean_linker_0, # of connection points: 2
#     Edge 37, Type (0, 1), BuildingBlock: XIVTED_clean_linker_0, # of connection points: 2
#     Edge 38, Type (0, 1), BuildingBlock: XIVTED_clean_linker_0, # of connection points: 2
#     Edge 39, Type (0, 1), BuildingBlock: XIVTED_clean_linker_0, # of connection points: 2
#     Edge 40, Type (0, 1), BuildingBlock: XIVTED_clean_linker_0, # of connection points: 2
#     Edge 41, Type (0, 1), BuildingBlock: XIVTED_clean_linker_0, # of connection points: 2
#     Edge 42, Type (0, 1), BuildingBlock: XIVTED_clean_linker_0, # of connection points: 2
#     Edge 43, Type (0, 1), BuildingBlock: XIVTED_clean_linker_0, # of connection points: 2
#     Edge 44, Type (0, 1), BuildingBlock: XIVTED_clean_linker_0, # of connection points: 2
#     Edge 45, Type (0, 1), BuildingBlock: XIVTED_clean_linker_0, # of connection points: 2
#     Edge 46, Type (0, 1), BuildingBlock: XIVTED_clean_linker_0, # of connection points: 2
#     Edge 47, Type (0, 1), BuildingBlock: XIVTED_clean_linker_0, # of connection points: 2
#     Edge 48, Type (0, 1), BuildingBlock: XIVTED_clean_linker_0, # of connection points: 2
#     Edge 49, Type (0, 1), BuildingBlock: XIVTED_clean_linker_0, # of connection points: 2
#     Edge 50, Type (0, 1), BuildingBlock: XIVTED_clean_linker_0, # of connection points: 2
#     Edge 51, Type (0, 1), BuildingBlock: XIVTED_clean_linker_0, # of connection points: 2
#     Edge 52, Type (0, 1), BuildingBlock: XIVTED_clean_linker_0, # of connection points: 2
#     Edge 53, Type (0, 1), BuildingBlock: XIVTED_clean_linker_0, # of connection points: 2
#     Edge 54, Type (0, 1), BuildingBlock: XIVTED_clean_linker_0, # of connection points: 2
#     Edge 55, Type (0, 1), BuildingBlock: XIVTED_clean_linker_0, # of connection points: 2
#     Edge 56, Type (0, 1), BuildingBlock: XIVTED_clean_linker_0, # of connection points: 2
#     Edge 57, Type (0, 1), BuildingBlock: XIVTED_clean_linker_0, # of connection points: 2
#     Edge 58, Type (0, 1), BuildingBlock: XIVTED_clean_linker_0, # of connection points: 2
#     Edge 59, Type (0, 1), BuildingBlock: XIVTED_clean_linker_0, # of connection points: 2
#     Edge 60, Type (0, 1), BuildingBlock: XIVTED_clean_linker_0, # of connection points: 2
#     Edge 61, Type (0, 1), BuildingBlock: XIVTED_clean_linker_0, # of connection points: 2
#     Edge 62, Type (0, 1), BuildingBlock: XIVTED_clean_linker_0, # of connection points: 2
#     Edge 63, Type (0, 1), BuildingBlock: XIVTED_clean_linker_0, # of connection points: 2
#     Edge 64, Type (0, 1), BuildingBlock: XIVTED_clean_linker_0, # of connection points: 2
#     Edge 65, Type (0, 1), BuildingBlock: XIVTED_clean_linker_0, # of connection points: 2
#     Edge 66, Type (0, 1), BuildingBlock: XIVTED_clean_linker_0, # of connection points: 2
#     Edge 67, Type (0, 1), BuildingBlock: XIVTED_clean_linker_0, # of connection points: 2
#     Edge 68, Type (0, 1), BuildingBlock: XIVTED_clean_linker_0, # of connection points: 2
#     Edge 69, Type (0, 1), BuildingBlock: XIVTED_clean_linker_0, # of connection points: 2
#     Edge 70, Type (0, 1), BuildingBlock: XIVTED_clean_linker_0, # of connection points: 2
#     Edge 71, Type (0, 1), BuildingBlock: XIVTED_clean_linker_0, # of connection points: 2
#     Edge 72, Type (0, 1), BuildingBlock: XIVTED_clean_linker_0, # of connection points: 2
#     Edge 73, Type (0, 1), BuildingBlock: XIVTED_clean_linker_0, # of connection points: 2
#     Edge 74, Type (0, 1), BuildingBlock: XIVTED_clean_linker_0, # of connection points: 2
#     Edge 75, Type (0, 1), BuildingBlock: XIVTED_clean_linker_0, # of connection points: 2
# Relax obj value: 0.079
# Max RMSD: 0.205
# Mean RMSD: 0.128
data_MOF--net-ctn--node1-NAHDIM_clean_sbu_0--node2-CUQRIR_clean_linker_1--edge1-XIVTED_clean_linker_0
_symmetry_space_group_name_H-M    P1
_symmetry_Int_Tables_number       1
_symmetry_cell_setting            triclinic
loop_
_symmetry_equiv_pos_as_xyz
'x, y, z'
_cell_length_a     52.253873
_cell_length_b     48.909213
_cell_length_c     49.613635
_cell_angle_alpha  98.114313
_cell_angle_beta   88.836748
_cell_angle_gamma 95.058869
loop_
_atom_site_label
_atom_site_type_symbol
_atom_site_fract_x
_atom_site_fract_y
_atom_site_fract_z
_atom_type_partial_charge
C0 C 0.03084 0.00216 0.07639 0.0
N1 N 0.04421 0.01219 0.05569 0.0
N2 N 0.01024 0.01669 0.0833 0.0
C3 C 0.03913 0.97977 0.0914 0.0
C4 C 0.01163 0.03603 0.06621 0.0
N5 N 0.03238 0.03343 0.04959 0.0
C6 C 0.99248 0.05713 0.06536 0.0
H7 H 0.03102 0.95933 0.08107 0.0
H8 H 0.0321 0.98242 0.11278 0.0
H9 H 0.06037 0.97984 0.09135 0.0
H10 H 0.99937 0.07654 0.07852 0.0
H11 H 0.97337 0.04963 0.07292 0.0
H12 H 0.99049 0.06205 0.04439 0.0
C13 C 0.27414 0.7305 0.23291 0.0
N14 N 0.28263 0.71669 0.25232 0.0
N15 N 0.29298 0.74867 0.22527 0.0
C16 C 0.24829 0.72428 0.21942 0.0
C17 C 0.31343 0.74508 0.24033 0.0
N18 N 0.3072 0.72546 0.2567 0.0
C19 C 0.33894 0.76188 0.2401 0.0
H20 H 0.24894 0.72978 0.19846 0.0
H21 H 0.23412 0.7366 0.23153 0.0
H22 H 0.24159 0.70199 0.21841 0.0
H23 H 0.33696 0.78196 0.23271 0.0
H24 H 0.35229 0.7501 0.22625 0.0
H25 H 0.34739 0.76581 0.26077 0.0
C26 C 0.96772 0.48984 0.06504 0.0
N27 N 0.98203 0.46826 0.06661 0.0
N28 N 0.94906 0.48262 0.04624 0.0
C29 C 0.97151 0.51783 0.08221 0.0
C30 C 0.9522 0.45587 0.03661 0.0
N31 N 0.97198 0.44697 0.04926 0.0
C32 C 0.93617 0.43849 0.01461 0.0
H33 H 0.9536 0.52852 0.08395 0.0
H34 H 0.98638 0.53094 0.07251 0.0
H35 H 0.97805 0.5158 0.10291 0.0
H36 H 0.94861 0.42607 1.00018 0.0
H37 H 0.92499 0.45132 0.00328 0.0
H38 H 0.92251 0.42387 0.02404 0.0
C39 C 0.67644 0.76406 0.22052 0.0
N40 N 0.6966 0.77837 0.20976 0.0
N41 N 0.66523 0.78045 0.24086 0.0
C42 C 0.66648 0.7348 0.2099 0.0
C43 C 0.67918 0.80523 0.24202 0.0
N44 N 0.69804 0.80405 0.22293 0.0
C45 C 0.67557 0.82998 0.26307 0.0
H46 H 0.6694 0.73039 0.18755 0.0
H47 H 0.64575 0.73101 0.21469 0.0
H48 H 0.6772 0.72028 0.21967 0.0
H49 H 0.66639 0.8236 0.28182 0.0
H50 H 0.663 0.84374 0.25457 0.0
H51 H 0.69422 0.84199 0.26843 0.0
C52 C 0.02256 0.98311 0.49074 0.0
N53 N 0.04587 0.9845 0.50255 0.0
N54 N 0.02386 0.99726 0.46915 0.0
C55 C 0.999 0.96613 0.49899 0.0
C56 C 0.04885 0.00711 0.46805 0.0
N57 N 0.06239 0.99902 0.48817 0.0
C58 C 0.0594 0.02654 0.44876 0.0
H59 H 0.98589 0.95952 0.48153 0.0
H60 H 0.9886 0.97891 0.51517 0.0
H61 H 0.00428 0.94747 0.50723 0.0
H62 H 0.04397 0.03784 0.44151 0.0
H63 H 0.06807 0.01438 0.43085 0.0
H64 H 0.07447 0.04183 0.45872 0.0
C65 C 0.17716 0.71897 0.80929 0.0
N66 N 0.19718 0.70934 0.82081 0.0
N67 N 0.17345 0.70588 0.78363 0.0
C68 C 0.16242 0.74258 0.82225 0.0
C69 C 0.19205 0.68813 0.77977 0.0
N70 N 0.20666 0.69039 0.80236 0.0
C71 C 0.19479 0.6674 0.75467 0.0
H72 H 0.15347 0.75277 0.80666 0.0
H73 H 0.17518 0.75827 0.83515 0.0
H74 H 0.14698 0.7344 0.83538 0.0
H75 H 0.20994 0.67582 0.74135 0.0
H76 H 0.17658 0.66328 0.74311 0.0
H77 H 0.20065 0.64763 0.76013 0.0
C78 C 0.95962 0.52291 0.45932 0.0
N79 N 0.9761 0.54585 0.45871 0.0
N80 N 0.94021 0.52836 0.47717 0.0
C81 C 0.96119 0.49586 0.44091 0.0
C82 C 0.94525 0.5554 0.48728 0.0
N83 N 0.96688 0.56617 0.47579 0.0
C84 C 0.93033 0.57054 0.51012 0.0
H85 H 0.9419 0.48454 0.43767 0.0
H86 H 0.97357 0.48271 0.45049 0.0
H87 H 0.96969 0.49935 0.42088 0.0
H88 H 0.92011 0.55592 0.52269 0.0
H89 H 0.91591 0.58203 0.50132 0.0
H90 H 0.94322 0.58569 0.52344 0.0
C91 C 0.79015 0.80425 0.82029 0.0
N92 N 0.80958 0.78776 0.81412 0.0
N93 N 0.78779 0.82058 0.80077 0.0
C94 C 0.77231 0.80301 0.84437 0.0
C95 C 0.80638 0.81336 0.78241 0.0
N96 N 0.81946 0.79322 0.79037 0.0
C97 C 0.81238 0.82671 0.75721 0.0
H98 H 0.76923 0.78156 0.84939 0.0
H99 H 0.75345 0.8104 0.84043 0.0
H100 H 0.7811 0.81647 0.86228 0.0
H101 H 0.83308 0.82667 0.75182 0.0
H102 H 0.80692 0.84835 0.76 0.0
H103 H 0.80125 0.81473 0.73999 0.0
C104 C 0.28445 0.29713 0.31669 0.0
N105 N 0.30604 0.28362 0.31283 0.0
N106 N 0.28299 0.31469 0.29816 0.0
C107 C 0.26528 0.29404 0.33932 0.0
C108 C 0.30459 0.31161 0.28294 0.0
N109 N 0.31877 0.29286 0.29198 0.0
C110 C 0.31263 0.32818 0.26036 0.0
H111 H 0.24617 0.29977 0.33385 0.0
H112 H 0.27207 0.30799 0.35787 0.0
H113 H 0.2635 0.27245 0.34409 0.0
H114 H 0.3247 0.34706 0.269 0.0
H115 H 0.2958 0.33477 0.25055 0.0
H116 H 0.3241 0.31599 0.24471 0.0
C117 C 0.46679 0.98767 0.57435 0.0
N118 N 0.48102 0.96575 0.57386 0.0
N119 N 0.45405 0.98626 0.55061 0.0
C120 C 0.4665 0.01122 0.59737 0.0
C121 C 0.46109 0.9627 0.53567 0.0
N122 N 0.47768 0.95041 0.5497 0.0
C123 C 0.45067 0.9509 0.508 0.0
H124 H 0.45164 0.00577 0.61246 0.0
H125 H 0.46186 0.03055 0.58994 0.0
H126 H 0.48535 0.01492 0.60776 0.0
H127 H 0.46299 0.9596 0.49226 0.0
H128 H 0.43079 0.95655 0.50576 0.0
H129 H 0.45077 0.92801 0.50434 0.0
C130 C 0.1775 0.25933 0.72245 0.0
N131 N 0.19987 0.27193 0.71411 0.0
N132 N 0.16651 0.27603 0.7427 0.0
C133 C 0.16524 0.23172 0.70955 0.0
C134 C 0.18283 0.29926 0.74634 0.0
N135 N 0.20293 0.29691 0.72879 0.0
C136 C 0.18025 0.32326 0.76857 0.0
H137 H 0.14405 0.23064 0.71217 0.0
H138 H 0.17255 0.21508 0.71954 0.0
H139 H 0.16997 0.22796 0.68751 0.0
H140 H 0.16933 0.31654 0.78624 0.0
H141 H 0.16978 0.33908 0.76049 0.0
H142 H 0.19937 0.33302 0.7756 0.0
C143 C 0.78251 0.21338 0.71629 0.0
N144 N 0.79128 0.20394 0.73839 0.0
N145 N 0.79337 0.23918 0.71438 0.0
C146 C 0.7623 0.19798 0.69734 0.0
C147 C 0.80895 0.24522 0.73631 0.0
N148 N 0.80751 0.22381 0.75113 0.0
C149 C 0.8271 0.27095 0.74184 0.0
H150 H 0.77172 0.1839 0.68142 0.0
H151 H 0.75184 0.21248 0.68728 0.0
H152 H 0.7483 0.18521 0.70849 0.0
H153 H 0.81798 0.28638 0.75669 0.0
H154 H 0.83154 0.28025 0.72297 0.0
H155 H 0.84527 0.26628 0.75072 0.0
C156 C 0.5278 0.49495 0.56704 0.0
N157 N 0.54134 0.50551 0.54671 0.0
N158 N 0.50804 0.51036 0.57523 0.0
C159 C 0.5354 0.47134 0.58078 0.0
C160 C 0.51016 0.5308 0.55939 0.0
N161 N 0.53057 0.52807 0.54231 0.0
C162 C 0.49155 0.55264 0.55964 0.0
H163 H 0.52693 0.45152 0.56948 0.0
H164 H 0.52831 0.47301 0.60212 0.0
H165 H 0.55658 0.47082 0.58074 0.0
H166 H 0.49914 0.57163 0.573 0.0
H167 H 0.47245 0.54554 0.56751 0.0
H168 H 0.48932 0.55806 0.53888 0.0
C169 C 0.52136 0.48326 0.99066 0.0
N170 N 0.54475 0.48527 0.0024 0.0
N171 N 0.5223 0.49704 0.96882 0.0
C172 C 0.49808 0.46611 0.99928 0.0
C173 C 0.54713 0.50733 0.96752 0.0
N174 N 0.56096 0.49984 0.98773 0.0
C175 C 0.55722 0.52664 0.94791 0.0
H176 H 0.4848 0.45923 0.98201 0.0
H177 H 0.48773 0.47886 0.01553 0.0
H178 H 0.50369 0.44761 0.00758 0.0
H179 H 0.54151 0.53743 0.94049 0.0
H180 H 0.56608 0.51446 0.93013 0.0
H181 H 0.57205 0.54236 0.95766 0.0
C182 C 0.69248 0.23219 0.29696 0.0
N183 N 0.70973 0.21902 0.30908 0.0
N184 N 0.68006 0.21468 0.27696 0.0
C185 C 0.68664 0.26174 0.30576 0.0
C186 C 0.69029 0.19026 0.27741 0.0
N187 N 0.70816 0.19284 0.29726 0.0
C188 C 0.68227 0.16381 0.25912 0.0
H189 H 0.6734 0.26242 0.32357 0.0
H190 H 0.67743 0.27029 0.2892 0.0
H191 H 0.70442 0.27499 0.31204 0.0
H192 H 0.67381 0.16796 0.23996 0.0
H193 H 0.66754 0.15148 0.26983 0.0
H194 H 0.69891 0.15132 0.25424 0.0
C195 C 0.45328 0.02826 0.95267 0.0
N196 N 0.4696 0.05138 0.95266 0.0
N197 N 0.43327 0.0334 0.96979 0.0
C198 C 0.45592 1.00114 0.93474 0.0
C199 C 0.43786 0.06045 0.98014 0.0
N200 N 0.45978 0.07154 0.96943 0.0
C201 C 0.42233 0.07517 0.00272 0.0
H202 H 0.43695 0.98925 0.93102 0.0
H203 H 0.46838 0.98858 0.94497 0.0
H204 H 0.46492 0.00462 0.91492 0.0
H205 H 0.41158 0.06029 0.01463 0.0
H206 H 0.40832 0.087 0.99371 0.0
H207 H 0.43488 0.08997 0.01674 0.0
C208 C 0.20811 0.92484 0.03527 0.0
O209 O 0.23034 0.93974 0.03651 0.0
O210 O 0.23431 0.84565 1.0016 0.0
Zn211 Zn 0.23989 0.87812 0.03152 0.0
O212 O 0.26994 0.90388 0.02162 0.0
C213 C 0.25959 0.84258 0.06589 0.0
O214 O 0.26793 0.83113 0.04216 0.0
O215 O 0.20764 0.89861 0.03399 0.0
C216 C 0.29279 0.90319 0.02966 0.0
O217 O 0.29772 0.88503 0.04553 0.0
C218 C 0.25126 0.83847 0.98386 0.0
O219 O 0.27382 0.85269 0.98453 0.0
O220 O 0.24659 0.86354 0.06688 0.0
C221 C 0.16806 0.46585 0.29043 0.0
O222 O 0.16988 0.48761 0.30934 0.0
O223 O 0.11179 0.50679 0.2995 0.0
Zn224 Zn 0.13521 0.49956 0.26654 0.0
O225 O 0.16255 0.53182 0.26633 0.0
C226 C 0.09621 0.50487 0.22617 0.0
O227 O 0.08989 0.5259 0.24377 0.0
O228 O 0.15379 0.46594 0.27002 0.0
C229 C 0.15945 0.5541 0.25683 0.0
O230 O 0.13765 0.55678 0.2452 0.0
C231 C 0.10535 0.53077 0.30909 0.0
O232 O 0.11373 0.55217 0.29716 0.0
O233 O 0.11458 0.49115 0.23152 0.0
C234 C 0.82253 0.6053 0.9905 0.0
O235 O 0.82422 0.61339 0.96634 0.0
O236 O 0.78856 0.6603 0.96859 0.0
Zn237 Zn 0.77734 0.63762 0.99888 0.0
O238 O 0.74422 0.61302 0.99074 0.0
C239 C 0.76377 0.68746 0.03441 0.0
O240 O 0.75932 0.69672 0.0115 0.0
O241 O 0.80467 0.61322 0.00674 0.0
C242 C 0.73318 0.60328 0.0109 0.0
O243 O 0.74361 0.60979 0.03509 0.0
C244 C 0.78614 0.65212 0.94318 0.0
O245 O 0.77546 0.62707 0.93496 0.0
O246 O 0.77172 0.66353 0.0336 0.0
C247 C 0.81684 0.0377 0.30593 0.0
O248 O 0.80644 0.01345 0.31091 0.0
O249 O 0.88475 0.00286 0.3163 0.0
Zn250 Zn 0.86028 0.00662 0.28648 0.0
O251 O 0.83717 0.97145 0.27706 0.0
C252 C 0.89041 0.9921 0.23872 0.0
O253 O 0.88501 0.96712 0.24528 0.0
O254 O 0.83953 0.03958 0.29623 0.0
C255 C 0.82177 0.96971 0.25726 0.0
O256 O 0.82071 0.99121 0.24428 0.0
C257 C 0.8818 0.01182 0.34139 0.0
O258 O 0.86101 0.02402 0.34948 0.0
O259 O 0.88171 0.01268 0.25347 0.0
C260 C 0.32586 0.10711 0.4944 0.0
O261 O 0.3268 0.11503 0.47015 0.0
O262 O 0.28868 0.15576 0.46854 0.0
Zn263 Zn 0.27865 0.13556 0.50122 0.0
O264 O 0.24695 0.10865 0.49318 0.0
C265 C 0.28382 0.18237 0.54731 0.0
O266 O 0.30608 0.19038 0.53691 0.0
O267 O 0.30745 0.11366 0.5105 0.0
C268 C 0.23584 0.09888 0.5133 0.0
O269 O 0.24559 0.10626 0.53771 0.0
C270 C 0.28652 0.18146 0.46841 0.0
O271 O 0.27654 0.19589 0.48975 0.0
O272 O 0.27031 0.16144 0.5353 0.0
C273 C 0.32261 0.54111 0.80489 0.0
O274 O 0.31306 0.51867 0.81456 0.0
O275 O 0.38574 0.50075 0.81227 0.0
Zn276 Zn 0.36187 0.50574 0.78223 0.0
O277 O 0.33595 0.47271 0.77349 0.0
C278 C 0.38973 0.48894 0.73257 0.0
O279 O 0.38148 0.46395 0.73739 0.0
O280 O 0.34342 0.54045 0.79117 0.0
C281 C 0.33966 0.44833 0.77774 0.0
O282 O 0.361 0.4441 0.78949 0.0
C283 C 0.38316 0.51023 0.83729 0.0
O284 O 0.36318 0.5239 0.84525 0.0
O285 O 0.38365 0.50985 0.7489 0.0
C286 C 0.70765 0.42334 0.52903 0.0
O287 O 0.72983 0.43825 0.5293 0.0
O288 O 0.73749 0.34773 0.49402 0.0
Zn289 Zn 0.73999 0.37741 0.52703 0.0
O290 O 0.7704 0.40477 0.52237 0.0
C291 C 0.75583 0.33676 0.5578 0.0
O292 O 0.76287 0.3262 0.53324 0.0
O293 O 0.7073 0.39725 0.52895 0.0
C294 C 0.79315 0.40151 0.52912 0.0
O295 O 0.7975 0.37958 0.54027 0.0
C296 C 0.75473 0.34553 0.47554 0.0
O297 O 0.77497 0.36358 0.47718 0.0
O298 O 0.74486 0.35924 0.56082 0.0
C299 C 0.66951 0.96915 0.7939 0.0
O300 O 0.6704 0.99098 0.81273 0.0
O301 O 0.61304 0.0095 0.80249 0.0
Zn302 Zn 0.63599 0.00167 0.76961 0.0
O303 O 0.66174 0.03483 0.76865 0.0
C304 C 0.59321 0.97959 0.73523 0.0
O305 O 0.58516 0.97035 0.75781 0.0
O306 O 0.65537 0.96857 0.77324 0.0
C307 C 0.6835 0.0323 0.75706 0.0
O308 O 0.68875 0.00791 0.74454 0.0
C309 C 0.60116 0.03134 0.80623 0.0
O310 O 0.60368 0.04861 0.78814 0.0
O311 O 0.61475 0.9939 0.73516 0.0
C312 C 0.01982 0.18302 0.93986 0.0
O313 O 0.0362 0.20512 0.94109 0.0
O314 O 0.95796 0.20999 0.88968 0.0
Zn315 Zn 0.99143 0.2167 0.91085 0.0
O316 O 0.99043 0.25018 0.94016 0.0
C317 C 0.01939 0.24152 0.86834 0.0
O318 O 0.99979 0.25676 0.86979 0.0
O319 O 0.99849 0.18293 0.92791 0.0
C320 C 0.00951 0.26806 0.9456 0.0
O321 O 0.03117 0.26482 0.93211 0.0
C322 C 0.94187 0.22824 0.8912 0.0
O323 O 0.94648 0.2515 0.90779 0.0
O324 O 0.02002 0.22328 0.88413 0.0
C325 C 0.50822 0.66391 0.41937 0.0
O326 O 0.50808 0.65888 0.39265 0.0
O327 O 0.461 0.70771 0.38787 0.0
Zn328 Zn 0.49318 0.71787 0.4106 0.0
O329 O 0.4898 0.75285 0.43736 0.0
C330 C 0.52026 0.74217 0.36809 0.0
O331 O 0.49947 0.75555 0.36888 0.0
O332 O 0.50179 0.68715 0.43116 0.0
C333 C 0.50951 0.76932 0.44439 0.0
O334 O 0.53204 0.76337 0.4341 0.0
C335 C 0.4388 0.71489 0.39514 0.0
O336 O 0.43559 0.72847 0.4196 0.0
O337 O 0.52218 0.72473 0.38449 0.0
C338 C 0.02294 0.84469 0.62651 0.0
O339 O 0.01492 0.84965 0.65185 0.0
O340 O 0.98107 0.78983 0.65808 0.0
Zn341 Zn 0.01162 0.7853 0.63193 0.0
O342 O 0.00377 0.75401 0.60127 0.0
C343 C 0.03707 0.75492 0.66635 0.0
O344 O 0.01413 0.74151 0.66589 0.0
O345 O 0.02271 0.81978 0.6149 0.0
C346 C 0.02202 0.74147 0.58923 0.0
O347 O 0.04577 0.74923 0.59693 0.0
C348 C 0.96281 0.77076 0.65812 0.0
O349 O 0.96285 0.74865 0.63969 0.0
O350 O 0.04103 0.77533 0.65311 0.0
C351 C 0.52122 0.34607 0.12643 0.0
O352 O 0.51334 0.35104 0.15183 0.0
O353 O 0.478 0.2918 0.15732 0.0
Zn354 Zn 0.50843 0.28673 0.13133 0.0
O355 O 0.49936 0.25602 0.10048 0.0
C356 C 0.53918 0.2809 0.17766 0.0
O357 O 0.52191 0.29544 0.19121 0.0
O358 O 0.52038 0.32119 0.11462 0.0
C359 C 0.51726 0.24335 0.08787 0.0
O360 O 0.54118 0.25059 0.09528 0.0
C361 C 0.46686 0.27046 0.16602 0.0
O362 O 0.47451 0.24598 0.15677 0.0
O363 O 0.53758 0.27531 0.15193 0.0
H364 H 0.24576 0.7315 0.83014 0.0
H365 H 0.2079 0.80251 0.97861 0.0
H366 H 0.17363 0.71307 0.86985 0.0
H367 H 0.28116 0.82018 0.9401 0.0
H368 H 0.19727 0.76533 0.94136 0.0
H369 H 0.26177 0.75889 0.87271 0.0
C370 C 0.2336 0.73275 0.84813 0.0
C371 C 0.20837 0.72044 0.8467 0.0
C372 C 0.21577 0.77717 0.94113 0.0
C373 C 0.22605 0.75197 0.89503 0.0
C374 C 0.22182 0.79849 0.96238 0.0
C375 C 0.24533 0.81473 0.96231 0.0
C376 C 0.23326 0.77213 0.91949 0.0
C377 C 0.26272 0.80835 0.94087 0.0
C378 C 0.24258 0.74851 0.8723 0.0
C379 C 0.19312 0.72266 0.87029 0.0
N380 N 0.25623 0.78772 0.92018 0.0
N381 N 0.20206 0.73847 0.89344 0.0
H382 H 0.98673 0.58329 0.42396 0.0
H383 H 0.09182 0.49384 0.34467 0.0
H384 H 0.01552 0.5134 0.45357 0.0
H385 H 0.08037 0.57644 0.32886 0.0
H386 H 0.06317 0.50037 0.38417 0.0
H387 H 0.02091 0.58195 0.38913 0.0
C388 C 1.00063 0.56805 0.42339 0.0
C389 C 0.99832 0.54824 0.4413 0.0
C390 C 0.06706 0.51715 0.37217 0.0
C391 C 0.03684 0.54602 0.40139 0.0
C392 C 0.0833 0.51336 0.34951 0.0
C393 C 0.08841 0.53458 0.33336 0.0
C394 C 0.05554 0.54219 0.37855 0.0
C395 C 0.07695 0.55952 0.34074 0.0
C396 C 0.01997 0.56712 0.40346 0.0
C397 C 0.01653 0.52869 0.43973 0.0
N398 N 0.06088 0.56255 0.36266 0.0
N399 N 0.03483 0.52781 0.41987 0.0
H400 H 0.80381 0.73254 0.79837 0.0
H401 H 0.80989 0.70478 0.95317 0.0
H402 H 0.828 0.79486 0.86504 0.0
H403 H 0.78269 0.64228 0.88736 0.0
H404 H 0.82239 0.73615 0.92013 0.0
H405 H 0.80279 0.6971 0.82908 0.0
C406 C 0.80981 0.73849 0.81929 0.0
C407 C 0.81612 0.76643 0.82932 0.0
C408 C 0.81385 0.71551 0.91285 0.0
C409 C 0.81423 0.72654 0.86473 0.0
C410 C 0.80663 0.69756 0.93176 0.0
C411 C 0.79496 0.67088 0.92311 0.0
C412 C 0.80932 0.70685 0.88499 0.0
C413 C 0.79144 0.66271 0.89502 0.0
C414 C 0.8089 0.71842 0.83691 0.0
C415 C 0.82319 0.7734 0.85667 0.0
N416 N 0.7984 0.68068 0.87701 0.0
N417 N 0.82175 0.75368 0.87352 0.0
H418 H 0.02438 0.98369 0.41463 0.0
H419 H 0.88224 0.02808 0.3967 0.0
H420 H 0.97753 0.01636 0.48183 0.0
H421 H 0.92806 0.99023 0.33066 0.0
H422 H 0.91693 0.02485 0.42822 0.0
H423 H 0.98951 0.9872 0.38332 0.0
C424 C 0.0067 0.99176 0.42265 0.0
C425 C 0.00365 0.99981 0.45065 0.0
C426 C 0.91935 0.01722 0.40683 0.0
C427 C 0.96364 0.00371 0.41528 0.0
C428 C 0.89954 0.01904 0.38882 0.0
C429 C 0.90222 0.00942 0.36097 0.0
C430 C 0.94202 0.00577 0.39691 0.0
C431 C 0.9251 0.99791 0.35194 0.0
C432 C 0.98678 0.99364 0.4049 0.0
C433 C 0.98039 0.00985 0.4603 0.0
N434 N 0.9441 0.99647 0.36983 0.0
N435 N 0.96122 0.01154 0.44263 0.0
H436 H 0.21882 0.22181 0.70782 0.0
H437 H 0.2939 0.23715 0.56865 0.0
H438 H 0.21925 0.29692 0.67173 0.0
H439 H 0.25248 0.16085 0.58489 0.0
H440 H 0.27659 0.26086 0.61142 0.0
H441 H 0.24203 0.20058 0.66791 0.0
C442 C 0.224 0.23384 0.69152 0.0
C443 C 0.21672 0.26088 0.6927 0.0
C444 C 0.27148 0.23891 0.60555 0.0
C445 C 0.24373 0.23713 0.64748 0.0
C446 C 0.28135 0.22539 0.5813 0.0
C447 C 0.27446 0.19706 0.57322 0.0
C448 C 0.25524 0.22375 0.62205 0.0
C449 C 0.25809 0.18276 0.59026 0.0
C450 C 0.23724 0.2218 0.66886 0.0
C451 C 0.22454 0.276 0.67149 0.0
N452 N 0.24918 0.19621 0.61394 0.0
N453 N 0.23757 0.26387 0.64958 0.0
H454 H 0.4777 0.46437 0.58245 0.0
H455 H 0.4139 0.5372 0.71912 0.0
H456 H 0.4981 0.54885 0.61772 0.0
H457 H 0.40346 0.44917 0.69168 0.0
H458 H 0.44213 0.54265 0.68007 0.0
H459 H 0.44782 0.45895 0.62055 0.0
C460 C 0.47577 0.48172 0.59831 0.0
C461 C 0.49016 0.50706 0.59714 0.0
C462 C 0.43366 0.52215 0.68259 0.0
C463 C 0.45617 0.50129 0.64044 0.0
C464 C 0.41749 0.51902 0.70485 0.0
C465 C 0.40637 0.49267 0.70872 0.0
C466 C 0.43865 0.49878 0.66397 0.0
C467 C 0.4117 0.46986 0.68956 0.0
C468 C 0.45878 0.4787 0.61996 0.0
C469 C 0.48704 0.52911 0.6179 0.0
N470 N 0.42746 0.47345 0.668 0.0
N471 N 0.47035 0.52573 0.63874 0.0
H472 H 0.77736 0.29075 0.71882 0.0
H473 H 0.77799 0.28829 0.5569 0.0
H474 H 0.80184 0.22383 0.66103 0.0
H475 H 0.74767 0.35396 0.61246 0.0
H476 H 0.78872 0.26592 0.59539 0.0
H477 H 0.76871 0.31611 0.68088 0.0
C478 C 0.78112 0.28165 0.69809 0.0
C479 C 0.79017 0.25529 0.69278 0.0
C480 C 0.77972 0.28521 0.59928 0.0
C481 C 0.78026 0.28368 0.64956 0.0
C482 C 0.77353 0.29804 0.57724 0.0
C483 C 0.76183 0.32305 0.58141 0.0
C484 C 0.77423 0.2974 0.62587 0.0
C485 C 0.7566 0.33464 0.60829 0.0
C486 C 0.77607 0.29594 0.67651 0.0
C487 C 0.79466 0.24407 0.66575 0.0
N488 N 0.76284 0.32171 0.62954 0.0
N489 N 0.7896 0.25827 0.64515 0.0
H490 H 0.53253 0.96529 0.57137 0.0
H491 H 0.54357 0.95658 0.73084 0.0
H492 H 0.46723 0.95652 0.62456 0.0
H493 H 0.60607 0.98908 0.68312 0.0
H494 H 0.51672 0.94833 0.69028 0.0
H495 H 0.56121 0.96526 0.61018 0.0
C496 C 0.52436 0.96269 0.59117 0.0
C497 C 0.49769 0.96083 0.59503 0.0
C498 C 0.53634 0.95717 0.68865 0.0
C499 C 0.52996 0.96114 0.63932 0.0
C500 C 0.55172 0.96188 0.71181 0.0
C501 C 0.57709 0.97375 0.71047 0.0
C502 C 0.54641 0.96414 0.66382 0.0
C503 C 0.58657 0.9801 0.68517 0.0
C504 C 0.54061 0.96296 0.6133 0.0
C505 C 0.48778 0.95794 0.621 0.0
N506 N 0.57122 0.97524 0.66285 0.0
N507 N 0.5039 0.9583 0.64222 0.0
H508 H 0.81205 0.25921 0.79804 0.0
H509 H 0.92855 0.18506 0.85078 0.0
H510 H 0.83835 0.18341 0.75648 0.0
H511 H 0.90368 0.26289 0.88991 0.0
H512 H 0.89293 0.18135 0.8188 0.0
H513 H 0.84257 0.25819 0.83472 0.0
C514 C 0.82415 0.24222 0.7969 0.0
C515 C 0.82292 0.22147 0.77431 0.0
C516 C 0.89516 0.19914 0.83451 0.0
C517 C 0.85793 0.22005 0.81592 0.0
C518 C 0.9155 0.20126 0.85282 0.0
C519 C 0.91927 0.22443 0.87299 0.0
C520 C 0.87845 0.22034 0.83635 0.0
C521 C 0.90168 0.24474 0.87462 0.0
C522 C 0.84155 0.24159 0.81775 0.0
C523 C 0.83872 0.19968 0.77372 0.0
N524 N 0.88217 0.24229 0.85648 0.0
N525 N 0.85577 0.19965 0.7941 0.0
H526 H 0.45622 0.90162 0.56151 0.0
H527 H 0.54527 0.81372 0.45504 0.0
H528 H 0.51834 0.93892 0.51732 0.0
H529 H 0.4685 0.78405 0.47705 0.0
H530 H 0.54055 0.85716 0.48514 0.0
H531 H 0.46586 0.85558 0.53868 0.0
C532 C 0.47241 0.89984 0.54758 0.0
C533 C 0.4868 0.92367 0.54137 0.0
C534 C 0.52481 0.84107 0.48348 0.0
C535 C 0.49763 0.8717 0.51489 0.0
C536 C 0.52747 0.81624 0.46633 0.0
C537 C 0.50716 0.79526 0.46335 0.0
C538 C 0.5018 0.84485 0.49806 0.0
C539 C 0.48457 0.79973 0.47854 0.0
C540 C 0.47771 0.87377 0.53435 0.0
C541 C 0.50716 0.92076 0.52275 0.0
N542 N 0.4825 0.82404 0.49524 0.0
N543 N 0.51196 0.8952 0.51003 0.0
H544 H 0.12527 0.30573 0.75104 0.0
H545 H 0.06129 0.21165 0.85824 0.0
H546 H 0.1568 0.23254 0.77031 0.0
H547 H 0.02575 0.28048 0.83355 0.0
H548 H 0.09626 0.21884 0.82595 0.0
H549 H 0.08825 0.29668 0.78077 0.0
C550 C 0.12417 0.28766 0.76149 0.0
C551 C 0.14387 0.26981 0.7584 0.0
C552 C 0.08078 0.23233 0.82752 0.0
C553 C 0.10198 0.2593 0.79238 0.0
C554 C 0.06082 0.22828 0.84601 0.0
C555 C 0.04057 0.24554 0.84866 0.0
C556 C 0.08062 0.25389 0.81161 0.0
C557 C 0.04097 0.2667 0.83222 0.0
C558 C 0.10315 0.28246 0.77839 0.0
C559 C 0.14178 0.24658 0.77213 0.0
N560 N 0.06072 0.27033 0.81446 0.0
N561 N 0.12126 0.24206 0.78867 0.0
H562 H 0.5489 0.58134 0.55235 0.0
H563 H 0.51562 0.6092 0.40237 0.0
H564 H 0.52721 0.51572 0.48772 0.0
H565 H 0.52003 0.67142 0.47346 0.0
H566 H 0.52839 0.57519 0.43034 0.0
H567 H 0.54874 0.61506 0.52024 0.0
C568 C 0.54499 0.57408 0.53107 0.0
C569 C 0.53814 0.54596 0.52244 0.0
C570 C 0.52671 0.59634 0.43971 0.0
C571 C 0.53695 0.58416 0.48582 0.0
C572 C 0.51939 0.61575 0.4238 0.0
C573 C 0.51647 0.64314 0.43566 0.0
C574 C 0.53143 0.60448 0.46758 0.0
C575 C 0.52173 0.65049 0.46349 0.0
C576 C 0.54455 0.59325 0.51283 0.0
C577 C 0.53281 0.53732 0.49487 0.0
N578 N 0.52888 0.63128 0.47847 0.0
N579 N 0.53192 0.55643 0.47751 0.0
H580 H 0.82015 0.75274 0.74784 0.0
H581 H 0.96078 0.80852 0.70462 0.0
H582 H 0.86868 0.81184 0.80046 0.0
H583 H 0.91897 0.73622 0.66103 0.0
H584 H 0.92759 0.80973 0.74024 0.0
H585 H 0.85672 0.74458 0.71673 0.0
C586 C 0.83887 0.76316 0.75322 0.0
C587 C 0.84177 0.78248 0.77682 0.0
C588 C 0.92575 0.79352 0.72294 0.0
C589 C 0.8833 0.77454 0.74096 0.0
C590 C 0.94461 0.79295 0.70248 0.0
C591 C 0.94262 0.77234 0.67966 0.0
C592 C 0.90457 0.77351 0.7205 0.0
C593 C 0.9213 0.75256 0.67816 0.0
C594 C 0.85964 0.75885 0.73539 0.0
C595 C 0.86605 0.79633 0.78267 0.0
N596 N 0.90308 0.75374 0.69817 0.0
N597 N 0.88584 0.79242 0.76466 0.0
H598 H 0.07417 0.94074 0.49894 0.0
H599 H 0.01883 0.9004 0.64135 0.0
H600 H 0.02929 0.99322 0.55442 0.0
H601 H 0.04702 0.84176 0.57674 0.0
H602 H 0.03098 0.93775 0.61427 0.0
H603 H 0.07376 0.90785 0.53222 0.0
C604 C 0.06504 0.94569 0.5186 0.0
C605 C 0.05185 0.96955 0.52422 0.0
C606 C 0.03468 0.91673 0.60614 0.0
C607 C 0.05061 0.93209 0.56194 0.0
C608 C 0.02775 0.89538 0.62159 0.0
C609 C 0.03161 0.86783 0.61118 0.0
C610 C 0.04575 0.91053 0.58018 0.0
C611 C 0.04338 0.86263 0.58547 0.0
C612 C 0.06448 0.92686 0.53741 0.0
C613 C 0.03977 0.97501 0.54963 0.0
N614 N 0.04991 0.88373 0.57082 0.0
N615 N 0.03919 0.95628 0.56749 0.0
H616 H 0.12251 0.69723 0.79086 0.0
H617 H 0.08862 0.77093 0.66452 0.0
H618 H 0.18023 0.7242 0.73503 0.0
H619 H 0.03276 0.71939 0.70429 0.0
H620 H 0.12245 0.7568 0.69172 0.0
H621 H 0.08898 0.70767 0.76084 0.0
C622 C 0.12794 0.70516 0.77206 0.0
C623 C 0.15386 0.70989 0.76513 0.0
C624 C 0.10279 0.7485 0.69435 0.0
C625 C 0.11607 0.72223 0.73103 0.0
C626 C 0.08347 0.75665 0.67896 0.0
C627 C 0.05783 0.74639 0.68223 0.0
C628 C 0.09634 0.73027 0.71338 0.0
C629 C 0.05227 0.72782 0.7011 0.0
C630 C 0.10895 0.71109 0.75497 0.0
C631 C 0.1603 0.72023 0.74075 0.0
N632 N 0.07134 0.72051 0.71611 0.0
N633 N 0.14148 0.72633 0.7246 0.0
H634 H 0.94615 0.61404 0.47304 0.0
H635 H 0.05474 0.70346 0.56697 0.0
H636 H 0.01434 0.58044 0.49654 0.0
H637 H 0.97692 0.72543 0.56203 0.0
H638 H 0.04449 0.6627 0.53301 0.0
H639 H 0.96209 0.65977 0.49633 0.0
C640 C 0.96482 0.61662 0.4826 0.0
C641 C 0.97893 0.59369 0.48324 0.0
C642 C 0.02976 0.6766 0.53922 0.0
C643 C 0.99714 0.64548 0.51014 0.0
C644 C 0.03557 0.69987 0.55857 0.0
C645 C 0.01657 0.71773 0.56754 0.0
C646 C 0.00487 0.67135 0.52854 0.0
C647 C 0.99209 0.71207 0.55592 0.0
C648 C 0.97382 0.64254 0.49602 0.0
C649 C 0.00303 0.5978 0.49569 0.0
N650 N 0.98693 0.68934 0.53709 0.0
N651 N 0.01129 0.62319 0.50903 0.0
H652 H 0.6927 0.85345 0.20693 0.0
H653 H 0.82529 0.91852 0.2726 0.0
H654 H 0.74808 0.80369 0.23433 0.0
H655 H 0.78104 0.96188 0.22241 0.0
H656 H 0.7973 0.87624 0.25897 0.0
H657 H 0.72501 0.89341 0.21148 0.0
C658 C 0.71197 0.85096 0.21327 0.0
C659 C 0.71804 0.82555 0.22015 0.0
C660 C 0.79385 0.89496 0.25077 0.0
C661 C 0.7547 0.87092 0.22629 0.0
C662 C 0.80971 0.91915 0.25869 0.0
C663 C 0.80537 0.94382 0.24879 0.0
C664 C 0.77329 0.89553 0.23312 0.0
C665 C 0.78504 0.94335 0.23062 0.0
C666 C 0.73033 0.87365 0.21601 0.0
C667 C 0.74299 0.82307 0.22865 0.0
N668 N 0.7696 0.91967 0.22358 0.0
N669 N 0.76038 0.84564 0.2319 0.0
H670 H 0.69174 0.14252 0.31081 0.0
H671 H 0.83317 0.09136 0.30024 0.0
H672 H 0.75976 0.19571 0.29844 0.0
H673 H 0.76585 0.03976 0.31949 0.0
H674 H 0.80703 0.1306 0.30245 0.0
H675 H 0.71875 0.10534 0.31704 0.0
C676 C 0.71243 0.14627 0.30955 0.0
C677 C 0.7237 0.17186 0.30376 0.0
C678 C 0.79799 0.11076 0.30641 0.0
C679 C 0.75469 0.12979 0.31089 0.0
C680 C 0.81292 0.08831 0.30512 0.0
C681 C 0.80166 0.06214 0.30947 0.0
C682 C 0.77153 0.10703 0.3119 0.0
C683 C 0.77534 0.0595 0.31588 0.0
C684 C 0.72784 0.12519 0.31319 0.0
C685 C 0.75052 0.17613 0.30284 0.0
N686 N 0.76113 0.0816 0.31666 0.0
N687 N 0.76514 0.1552 0.30607 0.0
H688 H 0.38249 0.03783 0.96618 0.0
H689 H 0.3444 0.90309 0.03776 0.0
H690 H 0.43779 0.98572 0.98988 0.0
H691 H 0.28895 0.94647 1.00084 0.0
H692 H 0.3788 0.9344 0.02225 0.0
H693 H 0.34766 0.00572 0.98042 0.0
C694 C 0.38713 0.01947 0.97432 0.0
C695 C 0.41277 0.01415 0.9769 0.0
C696 C 0.35911 0.93704 0.0175 0.0
C697 C 0.37347 0.97757 0.9933 0.0
C698 C 0.33944 0.91922 0.02642 0.0
C699 C 0.31375 0.92217 0.02059 0.0
C700 C 0.35306 0.95809 0.00279 0.0
C701 C 0.30849 0.94341 0.00576 0.0
C702 C 0.36739 1.00118 0.98239 0.0
C703 C 0.41813 0.99023 0.98746 0.0
N704 N 0.32798 0.96062 0.99744 0.0
N705 N 0.39862 0.97282 0.99542 0.0
H706 H 0.27719 0.35789 0.33705 0.0
H707 H 0.17027 0.41843 0.25396 0.0
H708 H 0.24876 0.31841 0.25915 0.0
H709 H 0.2009 0.45921 0.33089 0.0
H710 H 0.19718 0.38048 0.25645 0.0
H711 H 0.24768 0.39414 0.33628 0.0
C712 C 0.26455 0.35697 0.31986 0.0
C713 C 0.2653 0.33552 0.29806 0.0
C714 C 0.19796 0.39768 0.27283 0.0
C715 C 0.23167 0.37659 0.29681 0.0
C716 C 0.18257 0.41937 0.27144 0.0
C717 C 0.18339 0.44212 0.29221 0.0
C718 C 0.2143 0.39872 0.29514 0.0
C719 C 0.19968 0.44216 0.31437 0.0
C720 C 0.2478 0.37757 0.31933 0.0
C721 C 0.24873 0.33492 0.27615 0.0
N722 N 0.21453 0.42084 0.31521 0.0
N723 N 0.23259 0.35524 0.27601 0.0
H724 H 0.08271 0.02342 0.53621 0.0
H725 H 0.21351 0.0729 0.46569 0.0
H726 H 0.10266 0.99307 0.45348 0.0
H727 H 0.20314 0.08269 0.55295 0.0
H728 H 0.17278 0.04384 0.46074 0.0
H729 H 0.12691 0.04454 0.54342 0.0
C730 C 0.09663 0.02072 0.51979 0.0
C731 C 0.08913 0.00682 0.49417 0.0
C732 C 0.17953 0.05217 0.48098 0.0
C733 C 0.13931 0.03144 0.50185 0.0
C734 C 0.20273 0.06888 0.4838 0.0
C735 C 0.21172 0.08037 0.50976 0.0
C736 C 0.16502 0.04722 0.50426 0.0
C737 C 0.19697 0.07431 0.53252 0.0
C738 C 0.12175 0.03293 0.52378 0.0
C739 C 0.10771 0.00408 0.47339 0.0
N740 N 0.17426 0.05839 0.52924 0.0
N741 N 0.13184 0.01664 0.47753 0.0
H742 H 0.76253 0.19697 0.78288 0.0
H743 H 0.72965 0.03541 0.73007 0.0
H744 H 0.79879 0.15286 0.71342 0.0
H745 H 0.68142 0.08423 0.78592 0.0
H746 H 0.76054 0.07599 0.73029 0.0
H747 H 0.73869 0.1533 0.79151 0.0
C748 C 0.76598 0.17781 0.77005 0.0
C749 C 0.7825 0.17814 0.74754 0.0
C750 C 0.74326 0.07777 0.74262 0.0
C751 C 0.75522 0.12861 0.75666 0.0
C752 C 0.72559 0.05462 0.74248 0.0
C753 C 0.70275 0.05649 0.75775 0.0
C754 C 0.73817 0.10297 0.75826 0.0
C755 C 0.69863 0.0819 0.77359 0.0
C756 C 0.75225 0.15305 0.7747 0.0
C757 C 0.7862 0.15312 0.73103 0.0
N758 N 0.71612 0.10418 0.77335 0.0
N759 N 0.77248 0.12934 0.73575 0.0
H760 H 0.41227 0.00264 0.57918 0.0
H761 H 0.36843 0.09011 0.46574 0.0
H762 H 0.45521 0.01156 0.50552 0.0
H763 H 0.32847 0.08552 0.54221 0.0
H764 H 0.4004 0.06144 0.47978 0.0
H765 H 0.38139 0.03325 0.56607 0.0
C766 C 0.4152 0.01129 0.56032 0.0
C767 C 0.43618 0.00473 0.54337 0.0
C768 C 0.38467 0.06676 0.49351 0.0
C769 C 0.40096 0.03937 0.52797 0.0
C770 C 0.36638 0.08313 0.4855 0.0
C771 C 0.34568 0.09022 0.50279 0.0
C772 C 0.38223 0.05732 0.51899 0.0
C773 C 0.34408 0.08057 0.52818 0.0
C774 C 0.39758 0.02862 0.55275 0.0
C775 C 0.43908 0.01604 0.51895 0.0
N776 N 0.36205 0.06459 0.53547 0.0
N777 N 0.42164 0.03279 0.51193 0.0
H778 H 0.54829 0.45505 0.51979 0.0
H779 H 0.70125 0.47887 0.53409 0.0
H780 H 0.58801 0.53413 0.54897 0.0
H781 H 0.6588 0.39838 0.52084 0.0
H782 H 0.66099 0.50054 0.53219 0.0
H783 H 0.5897 0.43535 0.51112 0.0
C784 C 0.56589 0.46837 0.52361 0.0
C785 C 0.56497 0.49611 0.53509 0.0
C786 C 0.66052 0.47814 0.52959 0.0
C787 C 0.61228 0.47383 0.52596 0.0
C788 C 0.68349 0.46573 0.53073 0.0
C789 C 0.6834 0.43672 0.52786 0.0
C790 C 0.63729 0.46146 0.52534 0.0
C791 C 0.6598 0.4208 0.52341 0.0
C792 C 0.58947 0.45714 0.51896 0.0
C793 C 0.58811 0.51268 0.53991 0.0
N794 N 0.63772 0.43337 0.52234 0.0
N795 N 0.61091 0.5012 0.53566 0.0
H796 H 0.69517 0.20829 0.35886 0.0
H797 H 0.7853 0.33793 0.43012 0.0
H798 H 0.75173 0.25516 0.31588 0.0
H799 H 0.71813 0.30149 0.4682 0.0
H800 H 0.77917 0.30177 0.39089 0.0
H801 H 0.70995 0.23551 0.40205 0.0
C802 C 0.71128 0.22381 0.35881 0.0
C803 C 0.7224 0.22971 0.3342 0.0
C804 C 0.76589 0.30159 0.40793 0.0
C805 C 0.73896 0.26125 0.38286 0.0
C806 C 0.76934 0.32225 0.43032 0.0
C807 C 0.75199 0.32296 0.45232 0.0
C808 C 0.745 0.28142 0.40757 0.0
C809 C 0.73179 0.30195 0.45154 0.0
C810 C 0.71953 0.23951 0.38326 0.0
C811 C 0.74291 0.25016 0.3347 0.0
N812 N 0.72877 0.28213 0.42944 0.0
N813 N 0.75039 0.26549 0.35868 0.0
H814 H 0.48021 0.08747 0.91669 0.0
H815 H 0.59466 0.00229 0.84953 0.0
H816 H 0.51017 0.02076 0.95068 0.0
H817 H 0.56957 0.07341 0.81826 0.0
H818 H 0.56583 0.01099 0.8885 0.0
H819 H 0.51527 0.08582 0.88283 0.0
C820 C 0.49456 0.0729 0.91727 0.0
C821 C 0.49235 0.05402 0.9361 0.0
C822 C 0.56671 0.02482 0.87322 0.0
C823 C 0.532 0.0515 0.89745 0.0
C824 C 0.58313 0.0198 0.85089 0.0
C825 C 0.58441 0.03701 0.83046 0.0
C826 C 0.55125 0.04713 0.87514 0.0
C827 C 0.56913 0.05951 0.83345 0.0
C828 C 0.51441 0.07176 0.8979 0.0
C829 C 0.51118 0.03535 0.93612 0.0
N830 N 0.55305 0.0638 0.85526 0.0
N831 N 0.53005 0.03432 0.91688 0.0
H832 H 0.30067 0.22785 0.3074 0.0
H833 H 0.29779 0.23676 0.46725 0.0
H834 H 0.32856 0.3007 0.36097 0.0
H835 H 0.29548 0.15784 0.41563 0.0
H836 H 0.31039 0.25992 0.42803 0.0
H837 H 0.30136 0.20056 0.34541 0.0
C838 C 0.30806 0.23773 0.32694 0.0
C839 C 0.31496 0.26633 0.33117 0.0
C840 C 0.3074 0.23751 0.42524 0.0
C841 C 0.3146 0.2359 0.37489 0.0
C842 C 0.3 0.22426 0.44764 0.0
C843 C 0.29534 0.19531 0.4447 0.0
C844 C 0.30974 0.22183 0.39945 0.0
C845 C 0.2988 0.18021 0.41879 0.0
C846 C 0.30813 0.22233 0.34869 0.0
C847 C 0.32354 0.27856 0.35698 0.0
N848 N 0.30543 0.19367 0.39707 0.0
N849 N 0.32267 0.26343 0.378 0.0
H850 H 0.47597 0.51598 0.98155 0.0
H851 H 0.42816 0.48587 0.82689 0.0
H852 H 0.52241 0.4824 0.9144 0.0
H853 H 0.38412 0.52741 0.8924 0.0
H854 H 0.46191 0.48233 0.85913 0.0
H855 H 0.4411 0.51851 0.94973 0.0
C856 C 0.47868 0.50915 0.96004 0.0
C857 C 0.5019 0.49904 0.95039 0.0
C858 C 0.44486 0.4922 0.86649 0.0
C859 C 0.46246 0.50179 0.91397 0.0
C860 C 0.42552 0.49418 0.84808 0.0
C861 C 0.40326 0.50703 0.85693 0.0
C862 C 0.44197 0.50307 0.89402 0.0
C863 C 0.40096 0.51738 0.88466 0.0
C864 C 0.45891 0.51062 0.94191 0.0
C865 C 0.50477 0.49052 0.92243 0.0
N866 N 0.42009 0.5152 0.90222 0.0
N867 N 0.48526 0.49204 0.90517 0.0
H868 H 0.72399 0.73365 0.20334 0.0
H869 H 0.74577 0.73904 0.04403 0.0
H870 H 0.70309 0.80076 0.16318 0.0
H871 H 0.76859 0.67323 0.08541 0.0
H872 H 0.73362 0.76412 0.08795 0.0
H873 H 0.74437 0.71347 0.16109 0.0
C874 C 0.72405 0.74423 0.18558 0.0
C875 C 0.71181 0.76866 0.18644 0.0
C876 C 0.74147 0.74429 0.08744 0.0
C877 C 0.73472 0.74583 0.13807 0.0
C878 C 0.7484 0.72993 0.06235 0.0
C879 C 0.75802 0.70385 0.06097 0.0
C880 C 0.7441 0.73247 0.11135 0.0
C881 C 0.76111 0.69318 0.08542 0.0
C882 C 0.73561 0.73278 0.1615 0.0
C883 C 0.71247 0.78189 0.16315 0.0
N884 N 0.75401 0.70742 0.10954 0.0
N885 N 0.72347 0.77015 0.13976 0.0
H886 H 0.98204 0.96953 0.09104 0.0
H887 H 0.91019 0.04119 0.223 0.0
H888 H 0.99682 0.05561 0.12401 0.0
H889 H 0.90826 0.95252 0.20011 0.0
H890 H 0.93851 0.04748 0.18416 0.0
H891 H 0.95157 0.96334 0.12845 0.0
C892 C 0.97875 0.98707 0.10624 0.0
C893 C 0.99178 0.01307 0.10464 0.0
C894 C 0.93186 0.02665 0.18764 0.0
C895 C 0.95705 0.0064 0.14715 0.0
C896 C 0.91565 0.02304 0.20977 0.0
C897 C 0.90693 0.99627 0.21487 0.0
C898 C 0.93928 0.00335 0.17038 0.0
C899 C 0.91462 0.97352 0.19702 0.0
C900 C 0.96142 0.98361 0.12749 0.0
C901 C 0.98685 0.03534 0.12452 0.0
N902 N 0.93036 0.97758 0.17556 0.0
N903 N 0.96985 0.03151 0.145 0.0
H904 H 0.32258 0.74863 0.18015 0.0
H905 H 0.24108 0.85613 0.11791 0.0
H906 H 0.25989 0.7875 0.22282 0.0
H907 H 0.29314 0.80394 0.07093 0.0
H908 H 0.25167 0.83625 0.15856 0.0
H909 H 0.31652 0.77436 0.14201 0.0
C910 C 0.30784 0.76301 0.18154 0.0
C911 C 0.29167 0.76609 0.20439 0.0
C912 C 0.26081 0.82925 0.13935 0.0
C913 C 0.28428 0.7952 0.16104 0.0
C914 C 0.25479 0.84059 0.11616 0.0
C915 C 0.26608 0.83154 0.09094 0.0
C916 C 0.27841 0.8089 0.13731 0.0
C917 C 0.28378 0.8114 0.08988 0.0
C918 C 0.30421 0.77749 0.1598 0.0
C919 C 0.27261 0.78464 0.20535 0.0
N920 N 0.28936 0.80076 0.11269 0.0
N921 N 0.26932 0.79844 0.1839 0.0
H922 H 0.98764 0.43214 0.10236 0.0
H923 H 0.07551 0.53997 0.19651 0.0
H924 H 0.0242 0.5045 0.07258 0.0
H925 H 0.08502 0.45334 0.19703 0.0
H926 H 0.0514 0.52784 0.15404 0.0
H927 H 0.01917 0.43852 0.13955 0.0
C928 C 0.00267 0.44894 0.10333 0.0
C929 C 0.00317 0.46814 0.0848 0.0
C930 C 0.05892 0.51152 0.16338 0.0
C931 C 0.03839 0.47605 0.12737 0.0
C932 C 0.0725 0.51839 0.18765 0.0
C933 C 0.08224 0.49762 0.2002 0.0
C934 C 0.05437 0.4836 0.15202 0.0
C935 C 0.0779 0.46996 0.18783 0.0
C936 C 0.02048 0.45268 0.12455 0.0
C937 C 0.02286 0.48972 0.08695 0.0
N938 N 0.06388 0.46365 0.16457 0.0
N939 N 0.03933 0.49351 0.10823 0.0
H940 H 0.29767 0.72782 0.31058 0.0
H941 H 0.44027 0.69248 0.34131 0.0
H942 H 0.35361 0.70531 0.24845 0.0
H943 H 0.38885 0.72774 0.4033 0.0
H944 H 0.40627 0.68984 0.30774 0.0
H945 H 0.32816 0.72038 0.34544 0.0
C946 C 0.31626 0.72082 0.30437 0.0
C947 C 0.32339 0.71737 0.27683 0.0
C948 C 0.40235 0.69796 0.32872 0.0
C949 C 0.35836 0.7091 0.31623 0.0
C950 C 0.42175 0.69943 0.34795 0.0
C951 C 0.41753 0.7106 0.37518 0.0
C952 C 0.37844 0.70768 0.33669 0.0
C953 C 0.39307 0.71917 0.38253 0.0
C954 C 0.3337 0.71677 0.32417 0.0
C955 C 0.34766 0.70847 0.2696 0.0
N956 N 0.37452 0.71769 0.36338 0.0
N957 N 0.36437 0.70482 0.28918 0.0
H958 H 0.94685 0.39808 0.05605 0.0
H959 H 0.04462 0.31295 0.95824 0.0
H960 H 0.01791 0.43505 0.02693 0.0
H961 H 0.96849 0.28027 0.97915 0.0
H962 H 0.03871 0.35541 0.98941 0.0
H963 H 0.95843 0.35233 0.03511 0.0
C964 C 0.96521 0.39629 0.04573 0.0
C965 C 0.98147 0.42007 0.043 0.0
C966 C 0.0234 0.33885 0.98734 0.0
C967 C 0.9947 0.36819 0.01849 0.0
C968 C 0.02673 0.31458 0.96953 0.0
C969 C 0.00691 0.29307 0.96584 0.0
C970 C 1.0001 0.34165 0.00165 0.0
C971 C 0.98422 0.29636 0.98114 0.0
C972 C 0.97177 0.37031 0.03363 0.0
C973 C 0.00503 0.41701 0.02948 0.0
N974 N 0.9814 0.32022 0.99822 0.0
N975 N 0.01084 0.39152 0.01736 0.0
H976 H 0.66034 0.73873 0.2713 0.0
H977 H 0.52322 0.77956 0.33174 0.0
H978 H 0.62158 0.80612 0.24881 0.0
H979 H 0.56486 0.7165 0.35947 0.0
H980 H 0.55799 0.78792 0.2995 0.0
H981 H 0.6243 0.72821 0.30179 0.0
C982 C 0.64405 0.7511 0.27272 0.0
C983 C 0.64372 0.77327 0.25775 0.0
C984 C 0.55952 0.77224 0.31262 0.0
C985 C 0.60271 0.76174 0.29248 0.0
C986 C 0.53966 0.76744 0.33105 0.0
C987 C 0.54114 0.74734 0.34839 0.0
C988 C 0.58103 0.75678 0.31145 0.0
C989 C 0.56292 0.73226 0.34654 0.0
C990 C 0.62359 0.74526 0.29015 0.0
C991 C 0.62244 0.78898 0.26028 0.0
N992 N 0.582 0.73729 0.32841 0.0
N993 N 0.60276 0.78295 0.27737 0.0
H994 H 0.01648 0.02394 0.9978 0.0
H995 H 0.05918 0.18022 0.97462 0.0
H996 H 0.06148 0.08187 0.05509 0.0
H997 H 0.99486 0.13075 0.93425 0.0
H998 H 0.06809 0.14088 0.99735 0.0
H999 H 0.01718 0.05908 0.9668 0.0
C1000 C 0.02739 0.04377 0.00321 0.0
C1001 C 0.0393 0.05013 0.0286 0.0
C1002 C 0.05215 0.1386 0.98336 0.0
C1003 C 0.03959 0.0905 0.99405 0.0
C1004 C 0.04702 0.16103 0.97037 0.0
C1005 C 0.02605 0.15889 0.95272 0.0
C1006 C 0.03637 0.11369 0.97846 0.0
C1007 C 0.01105 0.13344 0.94793 0.0
C1008 C 0.02748 0.0639 0.98583 0.0
C1009 C 0.05253 0.07626 0.03537 0.0
N1010 N 0.01646 0.11186 0.96079 0.0
N1011 N 0.05217 0.09564 0.01829 0.0
H1012 H 0.33114 0.24374 0.2654 0.0
H1013 H 0.45293 0.31768 0.1975 0.0
H1014 H 0.36206 0.32705 0.29342 0.0
H1015 H 0.43467 0.22907 0.18346 0.0
H1016 H 0.41974 0.32119 0.233 0.0
H1017 H 0.36969 0.23668 0.23679 0.0
C1018 C 0.34653 0.26016 0.26616 0.0
C1019 C 0.34366 0.28593 0.28168 0.0
C1020 C 0.42307 0.30094 0.22226 0.0
C1021 C 0.38712 0.27863 0.24846 0.0
C1022 C 0.44191 0.29896 0.20182 0.0
C1023 C 0.44651 0.27307 0.18733 0.0
C1024 C 0.40846 0.2769 0.22811 0.0
C1025 C 0.43175 0.24948 0.19404 0.0
C1026 C 0.36834 0.25633 0.24964 0.0
C1027 C 0.36376 0.30689 0.28167 0.0
N1028 N 0.41327 0.25198 0.21377 0.0
N1029 N 0.38445 0.30296 0.26497 0.0
H1030 H 0.57318 0.44164 0.99888 0.0
H1031 H 0.51796 0.4019 0.14153 0.0
H1032 H 0.52879 0.49457 0.05446 0.0
H1033 H 0.54535 0.34295 0.07669 0.0
H1034 H 0.53056 0.43922 0.11453 0.0
H1035 H 0.57286 0.40893 0.03231 0.0
C1036 C 0.56422 0.44675 0.01861 0.0
C1037 C 0.55112 0.47067 0.0242 0.0
C1038 C 0.53401 0.41813 0.10634 0.0
C1039 C 0.54995 0.43339 0.06208 0.0
C1040 C 0.52681 0.39681 0.12173 0.0
C1041 C 0.53029 0.36918 0.11123 0.0
C1042 C 0.54495 0.41184 0.08033 0.0
C1043 C 0.54199 0.36388 0.08549 0.0
C1044 C 0.5637 0.42801 0.0375 0.0
C1045 C 0.53923 0.47632 0.04969 0.0
N1046 N 0.54877 0.38497 0.07089 0.0
N1047 N 0.53866 0.45766 0.06762 0.0
H1048 H 0.67853 0.21513 0.22274 0.0
H1049 H 0.54428 0.28271 0.23262 0.0
H1050 H 0.63384 0.22806 0.29649 0.0
H1051 H 0.58052 0.25436 0.15599 0.0
H1052 H 0.57778 0.2641 0.2564 0.0
H1053 H 0.64332 0.22989 0.19752 0.0
C1054 C 0.66103 0.22068 0.2334 0.0
C1055 C 0.65873 0.22031 0.26149 0.0
C1056 C 0.57838 0.26188 0.23438 0.0
C1057 C 0.61891 0.23775 0.23334 0.0
C1058 C 0.55932 0.27263 0.22078 0.0
C1059 C 0.55963 0.27015 0.19227 0.0
C1060 C 0.59805 0.24873 0.21939 0.0
C1061 C 0.57954 0.25675 0.178 0.0
C1062 C 0.64107 0.22923 0.21917 0.0
C1063 C 0.63607 0.2281 0.27476 0.0
N1064 N 0.59802 0.24663 0.19172 0.0
N1065 N 0.61706 0.23669 0.26061 0.0
H1066 H 0.43955 0.12012 0.96857 0.0
H1067 H 0.54927 0.2053 0.06413 0.0
H1068 H 0.50714 0.08453 0.99081 0.0
H1069 H 0.4717 0.2286 0.06112 0.0
H1070 H 0.53829 0.16555 0.02926 0.0
H1071 H 0.45587 0.16501 0.99345 0.0
C1072 C 0.45816 0.12209 0.97821 0.0
C1073 C 0.47199 0.09881 0.978 0.0
C1074 C 0.52377 0.17951 0.0361 0.0
C1075 C 0.49066 0.14964 0.00661 0.0
C1076 C 0.52999 0.20221 0.05599 0.0
C1077 C 0.51128 0.22015 0.06575 0.0
C1078 C 0.49875 0.17492 0.02569 0.0
C1079 C 0.48665 0.21515 0.0544 0.0
C1080 C 0.46738 0.14753 0.99252 0.0
C1081 C 0.49604 0.10215 0.99056 0.0
N1082 N 0.48109 0.19297 0.03503 0.0
N1083 N 0.50453 0.12708 0.00471 0.0
H1084 H 0.20315 0.3487 0.71686 0.0
H1085 H 0.34251 0.39301 0.78049 0.0
H1086 H 0.25174 0.29033 0.7415 0.0
H1087 H 0.29412 0.44996 0.75203 0.0
H1088 H 0.31116 0.35458 0.76356 0.0
H1089 H 0.23823 0.3854 0.72555 0.0
C1090 C 0.22155 0.34367 0.72354 0.0
C1091 C 0.22484 0.31675 0.72848 0.0
C1092 C 0.30748 0.37547 0.76093 0.0
C1093 C 0.26477 0.3584 0.73922 0.0
C1094 C 0.32531 0.39745 0.7707 0.0
C1095 C 0.32087 0.4248 0.76786 0.0
C1096 C 0.28501 0.38088 0.74828 0.0
C1097 C 0.29832 0.42926 0.75483 0.0
C1098 C 0.24149 0.36452 0.7287 0.0
C1099 C 0.24877 0.31095 0.73734 0.0
N1100 N 0.28123 0.40757 0.74564 0.0
N1101 N 0.26782 0.33173 0.74279 0.0
H1102 H 0.20752 0.65823 0.84204 0.0
H1103 H 0.33313 0.5882 0.78118 0.0
H1104 H 0.25015 0.68275 0.77301 0.0
H1105 H 0.2797 0.5514 0.83608 0.0
H1106 H 0.30741 0.62789 0.784 0.0
H1107 H 0.23851 0.62412 0.84637 0.0
C1108 C 0.22372 0.65663 0.82812 0.0
C1109 C 0.22639 0.67294 0.80705 0.0
C1110 C 0.30142 0.61121 0.79557 0.0
C1111 C 0.2616 0.63416 0.81157 0.0
C1112 C 0.31612 0.58855 0.79402 0.0
C1113 C 0.30842 0.56628 0.80821 0.0
C1114 C 0.27894 0.61173 0.81154 0.0
C1115 C 0.28624 0.56797 0.8246 0.0
C1116 C 0.24125 0.63713 0.83042 0.0
C1117 C 0.24747 0.6702 0.78931 0.0
N1118 N 0.27221 0.59024 0.82573 0.0
N1119 N 0.26424 0.65103 0.79186 0.0
H1120 H 0.94344 0.47949 0.4955 0.0
H1121 H 0.79075 0.44968 0.50753 0.0
H1122 H 0.8897 0.53506 0.47523 0.0
H1123 H 0.84465 0.39789 0.5353 0.0
H1124 H 0.82669 0.4807 0.49472 0.0
H1125 H 0.90744 0.44834 0.50886 0.0
C1126 C 0.92395 0.48491 0.49377 0.0
C1127 C 0.91928 0.50963 0.48432 0.0
C1128 C 0.83067 0.4626 0.50369 0.0
C1129 C 0.87819 0.47459 0.49963 0.0
C1130 C 0.81015 0.44487 0.51103 0.0
C1131 C 0.8147 0.42112 0.52248 0.0
C1132 C 0.85595 0.4565 0.50772 0.0
C1133 C 0.84024 0.41597 0.52656 0.0
C1134 C 0.90347 0.46733 0.5015 0.0
C1135 C 0.89387 0.51614 0.4826 0.0
N1136 N 0.85991 0.43347 0.51909 0.0
N1137 N 0.87422 0.4987 0.49017 0.0
H1138 H 0.75489 0.82376 0.76031 0.0
H1139 H 0.70165 0.96381 0.83538 0.0
H1140 H 0.78011 0.86388 0.83927 0.0
H1141 H 0.67477 0.92253 0.7571 0.0
H1142 H 0.72984 0.92696 0.83759 0.0
H1143 H 0.72492 0.85944 0.75888 0.0
C1144 C 0.75405 0.84021 0.77729 0.0
C1145 C 0.76987 0.84112 0.79989 0.0
C1146 C 0.71772 0.9259 0.81996 0.0
C1147 C 0.73574 0.88179 0.79864 0.0
C1148 C 0.70159 0.94695 0.81869 0.0
C1149 C 0.68584 0.94631 0.79599 0.0
C1150 C 0.7182 0.90404 0.79835 0.0
C1151 C 0.68659 0.9239 0.77499 0.0
C1152 C 0.73694 0.86047 0.77657 0.0
C1153 C 0.76803 0.86254 0.82159 0.0
N1154 N 0.70256 0.90372 0.77664 0.0
N1155 N 0.7513 0.8821 0.82043 0.0
H1156 H 0.581 0.52553 0.03545 0.0
H1157 H 0.71022 0.57753 0.96354 0.0
H1158 H 0.60125 0.49431 0.95303 0.0
H1159 H 0.70078 0.58742 0.05091 0.0
H1160 H 0.66979 0.54788 0.95912 0.0
H1161 H 0.62475 0.54815 0.04215 0.0
C1162 C 0.59491 0.52294 0.01901 0.0
C1163 C 0.58761 0.50836 0.99361 0.0
C1164 C 0.67667 0.55641 0.97926 0.0
C1165 C 0.63722 0.53469 1.00067 0.0
C1166 C 0.69967 0.57347 0.98178 0.0
C1167 C 0.70888 0.58507 0.00762 0.0
C1168 C 0.66256 0.55121 0.00272 0.0
C1169 C 0.69444 0.57895 0.03057 0.0
C1170 C 0.61975 0.53602 0.02269 0.0
C1171 C 0.60615 0.50581 0.97277 0.0
N1172 N 0.67193 0.56265 0.02758 0.0
N1173 N 0.62998 0.51921 0.9766 0.0
H1174 H 0.23743 0.71791 0.279 0.0
H1175 H 0.21115 0.55301 0.26516 0.0
H1176 H 0.29524 0.66385 0.2485 0.0
H1177 H 0.15299 0.60884 0.25772 0.0
H1178 H 0.24369 0.59294 0.27093 0.0
H1179 H 0.20801 0.67731 0.28517 0.0
C1180 C 0.24407 0.69739 0.2744 0.0
C1181 C 0.26851 0.69397 0.26302 0.0
C1182 C 0.22375 0.59632 0.2682 0.0
C1183 C 0.23516 0.64763 0.26961 0.0
C1184 C 0.20523 0.57365 0.26488 0.0
C1185 C 0.1794 0.57765 0.26066 0.0
C1186 C 0.21621 0.62312 0.26794 0.0
C1187 C 0.17272 0.60477 0.26056 0.0
C1188 C 0.2273 0.67431 0.27764 0.0
C1189 C 0.27647 0.66712 0.25735 0.0
N1190 N 0.19098 0.62646 0.26422 0.0
N1191 N 0.25967 0.64481 0.26036 0.0
H1192 H 0.95 0.50447 0.99944 0.0
H1193 H 0.8234 0.58345 0.03829 0.0
H1194 H 0.90708 0.49958 0.0737 0.0
H1195 H 0.86398 0.58528 0.96179 0.0
H1196 H 0.85409 0.55319 0.05175 0.0
H1197 H 0.91892 0.53447 0.98519 0.0
C1198 C 0.93389 0.50982 0.01262 0.0
C1199 C 0.93084 0.49984 0.03765 0.0
C1200 C 0.8563 0.56018 0.03201 0.0
C1201 C 0.89543 0.53391 0.02187 0.0
C1202 C 0.83878 0.57751 0.0243 0.0
C1203 C 0.84111 0.58696 0.99885 0.0
C1204 C 0.87639 0.55222 0.0142 0.0
C1205 C 0.86142 0.57851 0.98159 0.0
C1206 C 0.91622 0.52686 0.0046 0.0
C1207 C 0.90987 0.5071 0.05427 0.0
N1208 N 0.87829 0.56164 0.9896 0.0
N1209 N 0.89293 0.52377 0.04611 0.0
H1210 H 0.09092 0.04068 0.05717 0.0
H1211 H 0.1594 0.90005 0.02601 0.0
H1212 H 0.05092 0.9613 0.02975 0.0
H1213 H 0.20162 0.98048 0.04217 0.0
H1214 H 0.11974 0.92268 0.02481 0.0
H1215 H 0.13206 0.0202 0.04794 0.0
C1216 C 0.09093 0.01915 0.04831 0.0
C1217 C 0.06775 0.00256 0.04404 0.0
C1218 C 0.13768 0.93543 0.02847 0.0
C1219 C 0.11432 0.97873 0.0344 0.0
C1220 C 0.16035 0.92249 0.02932 0.0
C1221 C 0.18389 0.93836 0.03441 0.0
C1222 C 0.13842 0.96451 0.03298 0.0
C1223 C 0.18391 0.96739 0.03831 0.0
C1224 C 0.11431 0.00735 0.04337 0.0
C1225 C 0.06854 0.97462 0.03319 0.0
N1226 N 0.16151 0.97953 0.03771 0.0
N1227 N 0.09144 0.96347 0.02908 0.0
loop_
_geom_bond_atom_site_label_1
_geom_bond_atom_site_label_2
_geom_bond_distance
_geom_bond_site_symmetry_2
_ccdc_geom_bond_type
C0 N1 1.317 . S
C0 N2 1.315 1_455 S
C0 C3 1.485 1_545 S
N1 C0 1.317 . S
N1 N5 1.370 . S
N2 C0 1.315 1_655 S
N2 C4 1.351 . S
C3 C0 1.485 1_565 S
C3 H7 0.960 . S
C3 H8 0.961 . S
C3 H9 0.960 . S
C4 N2 1.351 . S
C4 N5 1.307 1_655 S
C4 C6 1.486 . S
N5 N1 1.370 . S
N5 C4 1.307 1_455 S
C6 C4 1.486 . S
C6 H10 0.960 . S
C6 H11 0.960 . S
C6 H12 0.959 . S
H7 C3 0.960 . S
H8 C3 0.961 . S
H9 C3 0.960 . S
H10 C6 0.960 . S
H11 C6 0.960 . S
H12 C6 0.959 . S
C13 N14 1.317 . S
C13 N15 1.348 . S
C13 C16 1.485 . S
N14 C13 1.317 . S
N14 N18 1.370 . S
N15 C13 1.348 . S
N15 C17 1.346 . S
C16 C13 1.485 . S
C16 H20 0.960 . S
C16 H21 0.961 . S
C16 H22 0.960 . S
C17 N15 1.346 . S
C17 N18 1.307 . S
C17 C19 1.486 . S
N18 N14 1.370 . S
N18 C17 1.307 . S
C19 C17 1.486 . S
C19 H23 0.960 . S
C19 H24 0.960 . S
C19 H25 0.959 . S
H20 C16 0.960 . S
H21 C16 0.961 . S
H22 C16 0.960 . S
H23 C19 0.960 . S
H24 C19 0.960 . S
H25 C19 0.959 . S
C26 N27 1.317 . S
C26 N28 1.348 . S
C26 C29 1.485 . S
N27 C26 1.317 . S
N27 N31 1.370 . S
N28 C26 1.348 . S
N28 C30 1.346 . S
C29 C26 1.485 . S
C29 H33 0.960 . S
C29 H34 0.961 . S
C29 H35 0.960 . S
C30 N28 1.346 . S
C30 N31 1.307 . S
C30 C32 1.486 . S
N31 N27 1.370 . S
N31 C30 1.307 . S
C32 C30 1.486 . S
C32 H36 0.960 1_554 S
C32 H37 0.960 . S
C32 H38 0.959 . S
H33 C29 0.960 . S
H34 C29 0.961 . S
H35 C29 0.960 . S
H36 C32 0.960 1_556 S
H37 C32 0.960 . S
H38 C32 0.959 . S
C39 N40 1.317 . S
C39 N41 1.348 . S
C39 C42 1.485 . S
N40 C39 1.317 . S
N40 N44 1.370 . S
N41 C39 1.348 . S
N41 C43 1.346 . S
C42 C39 1.485 . S
C42 H46 0.960 . S
C42 H47 0.961 . S
C42 H48 0.960 . S
C43 N41 1.346 . S
C43 N44 1.307 . S
C43 C45 1.486 . S
N44 N40 1.370 . S
N44 C43 1.307 . S
C45 C43 1.486 . S
C45 H49 0.960 . S
C45 H50 0.960 . S
C45 H51 0.959 . S
H46 C42 0.960 . S
H47 C42 0.961 . S
H48 C42 0.960 . S
H49 C45 0.960 . S
H50 C45 0.960 . S
H51 C45 0.959 . S
C52 N53 1.317 . S
C52 N54 1.348 . S
C52 C55 1.479 1_455 S
N53 C52 1.317 . S
N53 N57 1.370 . S
N54 C52 1.348 . S
N54 C56 1.346 . S
C55 C52 1.479 1_655 S
C55 H59 0.956 1_655 S
C55 H60 0.968 . S
C55 H61 0.958 1_655 S
C56 N54 1.346 . S
C56 N57 1.307 . S
C56 C58 1.486 1_565 S
N57 N53 1.370 . S
N57 C56 1.307 . S
C58 C56 1.486 1_545 S
C58 H62 0.960 . S
C58 H63 0.960 . S
C58 H64 0.959 . S
H59 C55 0.956 1_455 S
H60 C55 0.968 . S
H61 C55 0.958 1_455 S
H62 C58 0.960 . S
H63 C58 0.960 . S
H64 C58 0.959 . S
C65 N66 1.317 . S
C65 N67 1.348 . S
C65 C68 1.485 . S
N66 C65 1.317 . S
N66 N70 1.370 . S
N67 C65 1.348 . S
N67 C69 1.346 . S
C68 C65 1.485 . S
C68 H72 0.960 . S
C68 H73 0.961 . S
C68 H74 0.960 . S
C69 N67 1.346 . S
C69 N70 1.307 . S
C69 C71 1.486 . S
N70 N66 1.370 . S
N70 C69 1.307 . S
C71 C69 1.486 . S
C71 H75 0.960 . S
C71 H76 0.960 . S
C71 H77 0.959 . S
H72 C68 0.960 . S
H73 C68 0.961 . S
H74 C68 0.960 . S
H75 C71 0.960 . S
H76 C71 0.960 . S
H77 C71 0.959 . S
C78 N79 1.317 . S
C78 N80 1.348 . S
C78 C81 1.485 . S
N79 C78 1.317 . S
N79 N83 1.370 . S
N80 C78 1.348 . S
N80 C82 1.346 . S
C81 C78 1.485 . S
C81 H85 0.960 . S
C81 H86 0.961 . S
C81 H87 0.960 . S
C82 N80 1.346 . S
C82 N83 1.307 . S
C82 C84 1.486 . S
N83 N79 1.370 . S
N83 C82 1.307 . S
C84 C82 1.486 . S
C84 H88 0.960 . S
C84 H89 0.960 . S
C84 H90 0.959 . S
H85 C81 0.960 . S
H86 C81 0.961 . S
H87 C81 0.960 . S
H88 C84 0.960 . S
H89 C84 0.960 . S
H90 C84 0.959 . S
C91 N92 1.317 . S
C91 N93 1.348 . S
C91 C94 1.485 . S
N92 C91 1.317 . S
N92 N96 1.370 . S
N93 C91 1.348 . S
N93 C95 1.346 . S
C94 C91 1.485 . S
C94 H98 0.960 . S
C94 H99 0.961 . S
C94 H100 0.960 . S
C95 N93 1.346 . S
C95 N96 1.307 . S
C95 C97 1.486 . S
N96 N92 1.370 . S
N96 C95 1.307 . S
C97 C95 1.486 . S
C97 H101 0.960 . S
C97 H102 0.960 . S
C97 H103 0.959 . S
H98 C94 0.960 . S
H99 C94 0.961 . S
H100 C94 0.960 . S
H101 C97 0.960 . S
H102 C97 0.960 . S
H103 C97 0.959 . S
C104 N105 1.317 . S
C104 N106 1.348 . S
C104 C107 1.485 . S
N105 C104 1.317 . S
N105 N109 1.370 . S
N106 C104 1.348 . S
N106 C108 1.346 . S
C107 C104 1.485 . S
C107 H111 0.960 . S
C107 H112 0.961 . S
C107 H113 0.960 . S
C108 N106 1.346 . S
C108 N109 1.307 . S
C108 C110 1.486 . S
N109 N105 1.370 . S
N109 C108 1.307 . S
C110 C108 1.486 . S
C110 H114 0.960 . S
C110 H115 0.960 . S
C110 H116 0.959 . S
H111 C107 0.960 . S
H112 C107 0.961 . S
H113 C107 0.960 . S
H114 C110 0.960 . S
H115 C110 0.960 . S
H116 C110 0.959 . S
C117 N118 1.317 . S
C117 N119 1.348 . S
C117 C120 1.485 1_565 S
N118 C117 1.317 . S
N118 N122 1.370 . S
N119 C117 1.348 . S
N119 C121 1.346 . S
C120 C117 1.485 1_545 S
C120 H124 0.960 . S
C120 H125 0.961 . S
C120 H126 0.960 . S
C121 N119 1.346 . S
C121 N122 1.307 . S
C121 C123 1.486 . S
N122 N118 1.370 . S
N122 C121 1.307 . S
C123 C121 1.486 . S
C123 H127 0.960 . S
C123 H128 0.960 . S
C123 H129 0.959 . S
H124 C120 0.960 . S
H125 C120 0.961 . S
H126 C120 0.960 . S
H127 C123 0.960 . S
H128 C123 0.960 . S
H129 C123 0.959 . S
C130 N131 1.317 . S
C130 N132 1.348 . S
C130 C133 1.485 . S
N131 C130 1.317 . S
N131 N135 1.370 . S
N132 C130 1.348 . S
N132 C134 1.346 . S
C133 C130 1.485 . S
C133 H137 0.960 . S
C133 H138 0.961 . S
C133 H139 0.960 . S
C134 N132 1.346 . S
C134 N135 1.307 . S
C134 C136 1.486 . S
N135 N131 1.370 . S
N135 C134 1.307 . S
C136 C134 1.486 . S
C136 H140 0.960 . S
C136 H141 0.960 . S
C136 H142 0.959 . S
H137 C133 0.960 . S
H138 C133 0.961 . S
H139 C133 0.960 . S
H140 C136 0.960 . S
H141 C136 0.960 . S
H142 C136 0.959 . S
C143 N144 1.317 . S
C143 N145 1.348 . S
C143 C146 1.485 . S
N144 C143 1.317 . S
N144 N148 1.370 . S
N145 C143 1.348 . S
N145 C147 1.346 . S
C146 C143 1.485 . S
C146 H150 0.960 . S
C146 H151 0.961 . S
C146 H152 0.960 . S
C147 N145 1.346 . S
C147 N148 1.307 . S
C147 C149 1.486 . S
N148 N144 1.370 . S
N148 C147 1.307 . S
C149 C147 1.486 . S
C149 H153 0.960 . S
C149 H154 0.960 . S
C149 H155 0.959 . S
H150 C146 0.960 . S
H151 C146 0.961 . S
H152 C146 0.960 . S
H153 C149 0.960 . S
H154 C149 0.960 . S
H155 C149 0.959 . S
C156 N157 1.317 . S
C156 N158 1.348 . S
C156 C159 1.485 . S
N157 C156 1.317 . S
N157 N161 1.370 . S
N158 C156 1.348 . S
N158 C160 1.346 . S
C159 C156 1.485 . S
C159 H163 0.960 . S
C159 H164 0.961 . S
C159 H165 0.960 . S
C160 N158 1.346 . S
C160 N161 1.307 . S
C160 C162 1.486 . S
N161 N157 1.370 . S
N161 C160 1.307 . S
C162 C160 1.486 . S
C162 H166 0.960 . S
C162 H167 0.960 . S
C162 H168 0.959 . S
H163 C159 0.960 . S
H164 C159 0.961 . S
H165 C159 0.960 . S
H166 C162 0.960 . S
H167 C162 0.960 . S
H168 C162 0.959 . S
C169 N170 1.317 . S
C169 N171 1.348 . S
C169 C172 1.485 . S
N170 C169 1.317 . S
N170 N174 1.370 . S
N171 C169 1.348 . S
N171 C173 1.346 . S
C172 C169 1.485 . S
C172 H176 0.960 . S
C172 H177 0.961 . S
C172 H178 0.960 . S
C173 N171 1.346 . S
C173 N174 1.307 . S
C173 C175 1.486 . S
N174 N170 1.370 . S
N174 C173 1.307 . S
C175 C173 1.486 . S
C175 H179 0.960 . S
C175 H180 0.960 . S
C175 H181 0.959 . S
H176 C172 0.960 . S
H177 C172 0.961 . S
H178 C172 0.960 . S
H179 C175 0.960 . S
H180 C175 0.960 . S
H181 C175 0.959 . S
C182 N183 1.317 . S
C182 N184 1.348 . S
C182 C185 1.485 . S
N183 C182 1.317 . S
N183 N187 1.370 . S
N184 C182 1.348 . S
N184 C186 1.346 . S
C185 C182 1.485 . S
C185 H189 0.960 . S
C185 H190 0.961 . S
C185 H191 0.960 . S
C186 N184 1.346 . S
C186 N187 1.307 . S
C186 C188 1.486 . S
N187 N183 1.370 . S
N187 C186 1.307 . S
C188 C186 1.486 . S
C188 H192 0.960 . S
C188 H193 0.960 . S
C188 H194 0.959 . S
H189 C185 0.960 . S
H190 C185 0.961 . S
H191 C185 0.960 . S
H192 C188 0.960 . S
H193 C188 0.960 . S
H194 C188 0.959 . S
C195 N196 1.317 . S
C195 N197 1.348 . S
C195 C198 1.485 1_545 S
N196 C195 1.317 . S
N196 N200 1.370 . S
N197 C195 1.348 . S
N197 C199 1.346 . S
C198 C195 1.485 1_565 S
C198 H202 0.969 . S
C198 H203 0.961 . S
C198 H204 0.960 . S
C199 N197 1.346 . S
C199 N200 1.307 . S
C199 C201 1.486 1_556 S
N200 N196 1.370 . S
N200 C199 1.307 . S
C201 C199 1.486 1_554 S
C201 H205 0.960 . S
C201 H206 0.960 . S
C201 H207 0.959 . S
H202 C198 0.969 . S
H203 C198 0.961 . S
H204 C198 0.960 . S
H205 C201 0.960 . S
H206 C201 0.960 . S
H207 C201 0.959 . S
C208 O209 1.160 . S
C208 O215 1.185 . S
O209 C208 1.160 . S
O210 Zn211 1.899 1_556 S
O210 C218 1.284 . S
Zn211 O210 1.899 1_554 S
Zn211 O212 2.032 . S
Zn211 O215 2.086 . S
Zn211 O220 1.977 . S
O212 Zn211 2.032 . S
O212 C216 1.278 . S
C213 O214 1.203 . S
C213 O220 1.267 . S
O214 C213 1.203 . S
O215 C208 1.185 . S
O215 Zn211 2.086 . S
C216 O212 1.278 . S
C216 O217 1.211 . S
O217 C216 1.211 . S
C218 O210 1.284 . S
C218 O219 1.273 . S
O219 C218 1.273 . S
O220 Zn211 1.977 . S
O220 C213 1.267 . S
C221 O222 1.160 . S
C221 O228 1.185 . S
O222 C221 1.160 . S
O223 Zn224 1.899 . S
O223 C231 1.284 . S
Zn224 O223 1.899 . S
Zn224 O225 2.032 . S
Zn224 O228 2.086 . S
Zn224 O233 1.977 . S
O225 Zn224 2.032 . S
O225 C229 1.278 . S
C226 O227 1.203 . S
C226 O233 1.267 . S
O227 C226 1.203 . S
O228 C221 1.185 . S
O228 Zn224 2.086 . S
C229 O225 1.278 . S
C229 O230 1.211 . S
O230 C229 1.211 . S
C231 O223 1.284 . S
C231 O232 1.273 . S
O232 C231 1.273 . S
O233 Zn224 1.977 . S
O233 C226 1.267 . S
C234 O235 1.160 1_554 S
C234 O241 1.185 . S
O235 C234 1.160 1_556 S
O236 Zn237 1.899 1_556 S
O236 C244 1.284 . S
Zn237 O236 1.899 1_554 S
Zn237 O238 2.032 1_554 S
Zn237 O241 2.086 . S
Zn237 O246 1.977 . S
O238 Zn237 2.032 1_556 S
O238 C242 1.278 . S
C239 O240 1.203 . S
C239 O246 1.267 . S
O240 C239 1.203 . S
O241 C234 1.185 . S
O241 Zn237 2.086 . S
C242 O238 1.278 . S
C242 O243 1.211 1_556 S
O243 C242 1.211 1_554 S
C244 O236 1.284 . S
C244 O245 1.273 . S
O245 C244 1.273 . S
O246 Zn237 1.977 . S
O246 C239 1.267 . S
C247 O248 1.160 . S
C247 O254 1.185 . S
O248 C247 1.160 . S
O249 Zn250 1.899 . S
O249 C257 1.284 . S
Zn250 O249 1.899 . S
Zn250 O251 2.032 1_545 S
Zn250 O254 2.086 . S
Zn250 O259 1.977 . S
O251 Zn250 2.032 1_565 S
O251 C255 1.278 . S
C252 O253 1.203 1_545 S
C252 O259 1.267 . S
O253 C252 1.203 1_565 S
O254 C247 1.185 . S
O254 Zn250 2.086 . S
C255 O251 1.278 . S
C255 O256 1.211 . S
O256 C255 1.211 . S
C257 O249 1.284 . S
C257 O258 1.273 1_545 S
O258 C257 1.273 1_565 S
O259 Zn250 1.977 . S
O259 C252 1.267 . S
C260 O261 1.160 . S
C260 O267 1.185 . S
O261 C260 1.160 . S
O262 Zn263 1.899 . S
O262 C270 1.284 . S
Zn263 O262 1.899 . S
Zn263 O264 2.032 . S
Zn263 O267 2.086 . S
Zn263 O272 1.977 . S
O264 Zn263 2.032 . S
O264 C268 1.278 . S
C265 O266 1.203 . S
C265 O272 1.267 . S
O266 C265 1.203 . S
O267 C260 1.185 . S
O267 Zn263 2.086 . S
C268 O264 1.278 . S
C268 O269 1.211 . S
O269 C268 1.211 . S
C270 O262 1.284 . S
C270 O271 1.273 . S
O271 C270 1.273 . S
O272 Zn263 1.977 . S
O272 C265 1.267 . S
C273 O274 1.160 . S
C273 O280 1.185 . S
O274 C273 1.160 . S
O275 Zn276 1.899 . S
O275 C283 1.284 . S
Zn276 O275 1.899 . S
Zn276 O277 2.032 . S
Zn276 O280 2.086 . S
Zn276 O285 1.977 . S
O277 Zn276 2.032 . S
O277 C281 1.278 . S
C278 O279 1.203 . S
C278 O285 1.267 . S
O279 C278 1.203 . S
O280 C273 1.185 . S
O280 Zn276 2.086 . S
C281 O277 1.278 . S
C281 O282 1.211 . S
O282 C281 1.211 . S
C283 O275 1.284 . S
C283 O284 1.273 . S
O284 C283 1.273 . S
O285 Zn276 1.977 . S
O285 C278 1.267 . S
C286 O287 1.160 . S
C286 O293 1.185 . S
O287 C286 1.160 . S
O288 Zn289 1.899 . S
O288 C296 1.284 . S
Zn289 O288 1.899 . S
Zn289 O290 2.032 . S
Zn289 O293 2.086 . S
Zn289 O298 1.977 . S
O290 Zn289 2.032 . S
O290 C294 1.278 . S
C291 O292 1.203 . S
C291 O298 1.267 . S
O292 C291 1.203 . S
O293 C286 1.185 . S
O293 Zn289 2.086 . S
C294 O290 1.278 . S
C294 O295 1.211 . S
O295 C294 1.211 . S
C296 O288 1.284 . S
C296 O297 1.273 . S
O297 C296 1.273 . S
O298 Zn289 1.977 . S
O298 C291 1.267 . S
C299 O300 1.160 . S
C299 O306 1.185 . S
O300 C299 1.160 . S
O301 Zn302 1.899 . S
O301 C309 1.284 1_565 S
Zn302 O301 1.899 . S
Zn302 O303 2.032 1_565 S
Zn302 O306 2.086 . S
Zn302 O311 1.977 . S
O303 Zn302 2.032 1_545 S
O303 C307 1.278 . S
C304 O305 1.203 1_565 S
C304 O311 1.267 . S
O305 C304 1.203 1_545 S
O306 C299 1.185 . S
O306 Zn302 2.086 . S
C307 O303 1.278 . S
C307 O308 1.211 . S
O308 C307 1.211 . S
C309 O301 1.284 1_545 S
C309 O310 1.273 . S
O310 C309 1.273 . S
O311 Zn302 1.977 . S
O311 C304 1.267 . S
C312 O313 1.160 . S
C312 O319 1.185 1_655 S
O313 C312 1.160 . S
O314 Zn315 1.899 1_655 S
O314 C322 1.284 . S
Zn315 O314 1.899 1_455 S
Zn315 O316 2.032 1_455 S
Zn315 O319 2.086 . S
Zn315 O324 1.977 . S
O316 Zn315 2.032 1_655 S
O316 C320 1.278 1_655 S
C317 O318 1.203 . S
C317 O324 1.267 . S
O318 C317 1.203 . S
O319 C312 1.185 1_455 S
O319 Zn315 2.086 . S
C320 O316 1.278 1_455 S
C320 O321 1.211 . S
O321 C320 1.211 . S
C322 O314 1.284 . S
C322 O323 1.273 . S
O323 C322 1.273 . S
O324 Zn315 1.977 . S
O324 C317 1.267 . S
C325 O326 1.160 . S
C325 O332 1.185 . S
O326 C325 1.160 . S
O327 Zn328 1.899 . S
O327 C335 1.284 . S
Zn328 O327 1.899 . S
Zn328 O329 2.032 . S
Zn328 O332 2.086 . S
Zn328 O337 1.977 . S
O329 Zn328 2.032 . S
O329 C333 1.278 . S
C330 O331 1.203 . S
C330 O337 1.267 . S
O331 C330 1.203 . S
O332 C325 1.185 . S
O332 Zn328 2.086 . S
C333 O329 1.278 . S
C333 O334 1.211 . S
O334 C333 1.211 . S
C335 O327 1.284 . S
C335 O336 1.273 . S
O336 C335 1.273 . S
O337 Zn328 1.977 . S
O337 C330 1.267 . S
C338 O339 1.160 . S
C338 O345 1.185 . S
O339 C338 1.160 . S
O340 Zn341 1.917 . S
O340 C348 1.265 1_455 S
Zn341 O340 1.917 . S
Zn341 O342 2.032 . S
Zn341 O345 2.086 . S
Zn341 O350 1.977 . S
O342 Zn341 2.032 . S
O342 C346 1.278 . S
C343 O344 1.203 . S
C343 O350 1.267 . S
O344 C343 1.203 . S
O345 C338 1.185 . S
O345 Zn341 2.086 . S
C346 O342 1.278 . S
C346 O347 1.211 . S
O347 C346 1.211 . S
C348 O340 1.265 1_655 S
C348 O349 1.273 . S
O349 C348 1.273 . S
O350 Zn341 1.977 . S
O350 C343 1.267 . S
C351 O352 1.160 . S
C351 O358 1.185 . S
O352 C351 1.160 . S
O353 Zn354 1.899 . S
O353 C361 1.284 . S
Zn354 O353 1.899 . S
Zn354 O355 2.032 . S
Zn354 O358 2.086 . S
Zn354 O363 1.977 . S
O355 Zn354 2.032 . S
O355 C359 1.278 . S
C356 O357 1.203 . S
C356 O363 1.267 . S
O357 C356 1.203 . S
O358 C351 1.185 . S
O358 Zn354 2.086 . S
C359 O355 1.278 . S
C359 O360 1.211 . S
O360 C359 1.211 . S
C361 O353 1.284 . S
C361 O362 1.273 . S
O362 C361 1.273 . S
O363 Zn354 1.977 . S
O363 C356 1.267 . S
H364 C370 0.930 . S
H365 C374 0.930 . S
H366 C379 0.929 . S
H367 C377 0.929 . S
H368 C372 0.929 . S
H369 C378 0.929 . S
C370 H364 0.930 . S
C370 C371 1.367 . S
C370 C378 1.378 . S
C371 C370 1.367 . S
C371 C379 1.433 . S
C372 H368 0.929 . S
C372 C374 1.378 . S
C372 C376 1.350 . S
C373 C376 1.463 . S
C373 C378 1.350 . S
C373 N381 1.427 . S
C374 H365 0.930 . S
C374 C372 1.378 . S
C374 C375 1.367 . S
C375 C374 1.367 . S
C375 C377 1.433 . S
C376 C372 1.350 . S
C376 C373 1.463 . S
C376 N380 1.427 . S
C377 H367 0.929 . S
C377 C375 1.433 . S
C377 N380 1.384 . S
C378 H369 0.929 . S
C378 C370 1.378 . S
C378 C373 1.350 . S
C379 H366 0.929 . S
C379 C371 1.433 . S
C379 N381 1.384 . S
N380 C376 1.427 . S
N380 C377 1.384 . S
N381 C373 1.427 . S
N381 C379 1.384 . S
H382 C388 0.930 . S
H383 C392 0.930 . S
H384 C397 0.928 1_655 S
H385 C395 0.929 . S
H386 C390 0.929 . S
H387 C396 0.929 . S
C388 H382 0.930 . S
C388 C389 1.367 . S
C388 C396 1.378 1_655 S
C389 C388 1.367 . S
C389 C397 1.433 1_655 S
C390 H386 0.929 . S
C390 C392 1.378 . S
C390 C394 1.350 . S
C391 C394 1.463 . S
C391 C396 1.350 . S
C391 N399 1.427 . S
C392 H383 0.930 . S
C392 C390 1.378 . S
C392 C393 1.367 . S
C393 C392 1.367 . S
C393 C395 1.433 . S
C394 C390 1.350 . S
C394 C391 1.463 . S
C394 N398 1.427 . S
C395 H385 0.929 . S
C395 C393 1.433 . S
C395 N398 1.384 . S
C396 H387 0.929 . S
C396 C388 1.378 1_455 S
C396 C391 1.350 . S
C397 H384 0.928 1_455 S
C397 C389 1.433 1_455 S
C397 N399 1.384 . S
N398 C394 1.427 . S
N398 C395 1.384 . S
N399 C391 1.427 . S
N399 C397 1.384 . S
H400 C406 0.930 . S
H401 C410 0.930 . S
H402 C415 0.929 . S
H403 C413 0.929 . S
H404 C408 0.929 . S
H405 C414 0.929 . S
C406 H400 0.930 . S
C406 C407 1.367 . S
C406 C414 1.378 . S
C407 C406 1.367 . S
C407 C415 1.433 . S
C408 H404 0.929 . S
C408 C410 1.378 . S
C408 C412 1.350 . S
C409 C412 1.463 . S
C409 C414 1.350 . S
C409 N417 1.427 . S
C410 H401 0.930 . S
C410 C408 1.378 . S
C410 C411 1.367 . S
C411 C410 1.367 . S
C411 C413 1.433 . S
C412 C408 1.350 . S
C412 C409 1.463 . S
C412 N416 1.427 . S
C413 H403 0.929 . S
C413 C411 1.433 . S
C413 N416 1.384 . S
C414 H405 0.929 . S
C414 C406 1.378 . S
C414 C409 1.350 . S
C415 H402 0.929 . S
C415 C407 1.433 . S
C415 N417 1.384 . S
N416 C412 1.427 . S
N416 C413 1.384 . S
N417 C409 1.427 . S
N417 C415 1.384 . S
H418 C424 0.927 1_545 S
H419 C428 0.930 . S
H420 C433 0.929 . S
H421 C431 0.929 . S
H422 C426 0.929 . S
H423 C432 0.933 . S
C424 H418 0.927 1_565 S
C424 C425 1.367 . S
C424 C432 1.375 1_465 S
C425 C424 1.367 . S
C425 C433 1.433 1_455 S
C426 H422 0.929 . S
C426 C428 1.378 . S
C426 C430 1.350 . S
C427 C430 1.463 . S
C427 C432 1.348 1_565 S
C427 N435 1.427 . S
C428 H419 0.930 . S
C428 C426 1.378 . S
C428 C429 1.367 1_565 S
C429 C428 1.367 1_545 S
C429 C431 1.433 . S
C430 C426 1.350 . S
C430 C427 1.463 . S
C430 N434 1.427 1_565 S
C431 H421 0.929 . S
C431 C429 1.433 . S
C431 N434 1.384 . S
C432 H423 0.933 . S
C432 C424 1.375 1_645 S
C432 C427 1.348 1_545 S
C433 H420 0.929 . S
C433 C425 1.433 1_655 S
C433 N435 1.384 . S
N434 C430 1.427 1_545 S
N434 C431 1.384 . S
N435 C427 1.427 . S
N435 C433 1.384 . S
H436 C442 0.930 . S
H437 C446 0.930 . S
H438 C451 0.929 . S
H439 C449 0.929 . S
H440 C444 0.929 . S
H441 C450 0.929 . S
C442 H436 0.930 . S
C442 C443 1.367 . S
C442 C450 1.378 . S
C443 C442 1.367 . S
C443 C451 1.433 . S
C444 H440 0.929 . S
C444 C446 1.378 . S
C444 C448 1.350 . S
C445 C448 1.463 . S
C445 C450 1.350 . S
C445 N453 1.427 . S
C446 H437 0.930 . S
C446 C444 1.378 . S
C446 C447 1.367 . S
C447 C446 1.367 . S
C447 C449 1.433 . S
C448 C444 1.350 . S
C448 C445 1.463 . S
C448 N452 1.427 . S
C449 H439 0.929 . S
C449 C447 1.433 . S
C449 N452 1.384 . S
C450 H441 0.929 . S
C450 C442 1.378 . S
C450 C445 1.350 . S
C451 H438 0.929 . S
C451 C443 1.433 . S
C451 N453 1.384 . S
N452 C448 1.427 . S
N452 C449 1.384 . S
N453 C445 1.427 . S
N453 C451 1.384 . S
H454 C460 0.930 . S
H455 C464 0.930 . S
H456 C469 0.929 . S
H457 C467 0.929 . S
H458 C462 0.929 . S
H459 C468 0.929 . S
C460 H454 0.930 . S
C460 C461 1.367 . S
C460 C468 1.378 . S
C461 C460 1.367 . S
C461 C469 1.433 . S
C462 H458 0.929 . S
C462 C464 1.378 . S
C462 C466 1.350 . S
C463 C466 1.463 . S
C463 C468 1.350 . S
C463 N471 1.427 . S
C464 H455 0.930 . S
C464 C462 1.378 . S
C464 C465 1.367 . S
C465 C464 1.367 . S
C465 C467 1.433 . S
C466 C462 1.350 . S
C466 C463 1.463 . S
C466 N470 1.427 . S
C467 H457 0.929 . S
C467 C465 1.433 . S
C467 N470 1.384 . S
C468 H459 0.929 . S
C468 C460 1.378 . S
C468 C463 1.350 . S
C469 H456 0.929 . S
C469 C461 1.433 . S
C469 N471 1.384 . S
N470 C466 1.427 . S
N470 C467 1.384 . S
N471 C463 1.427 . S
N471 C469 1.384 . S
H472 C478 0.930 . S
H473 C482 0.930 . S
H474 C487 0.929 . S
H475 C485 0.929 . S
H476 C480 0.929 . S
H477 C486 0.929 . S
C478 H472 0.930 . S
C478 C479 1.367 . S
C478 C486 1.378 . S
C479 C478 1.367 . S
C479 C487 1.433 . S
C480 H476 0.929 . S
C480 C482 1.378 . S
C480 C484 1.350 . S
C481 C484 1.463 . S
C481 C486 1.350 . S
C481 N489 1.427 . S
C482 H473 0.930 . S
C482 C480 1.378 . S
C482 C483 1.367 . S
C483 C482 1.367 . S
C483 C485 1.433 . S
C484 C480 1.350 . S
C484 C481 1.463 . S
C484 N488 1.427 . S
C485 H475 0.929 . S
C485 C483 1.433 . S
C485 N488 1.384 . S
C486 H477 0.929 . S
C486 C478 1.378 . S
C486 C481 1.350 . S
C487 H474 0.929 . S
C487 C479 1.433 . S
C487 N489 1.384 . S
N488 C484 1.427 . S
N488 C485 1.384 . S
N489 C481 1.427 . S
N489 C487 1.384 . S
H490 C496 0.930 . S
H491 C500 0.951 . S
H492 C505 0.929 . S
H493 C503 0.929 . S
H494 C498 0.929 1_545 S
H495 C504 0.929 . S
C496 H490 0.930 . S
C496 C497 1.367 . S
C496 C504 1.378 . S
C497 C496 1.367 . S
C497 C505 1.433 . S
C498 H494 0.929 1_565 S
C498 C500 1.378 1_565 S
C498 C502 1.350 . S
C499 C502 1.463 . S
C499 C504 1.350 . S
C499 N507 1.427 . S
C500 H491 0.951 . S
C500 C498 1.378 1_545 S
C500 C501 1.347 1_545 S
C501 C500 1.347 1_565 S
C501 C503 1.433 . S
C502 C498 1.350 . S
C502 C499 1.463 . S
C502 N506 1.427 . S
C503 H493 0.929 . S
C503 C501 1.433 . S
C503 N506 1.384 . S
C504 H495 0.929 . S
C504 C496 1.378 . S
C504 C499 1.350 . S
C505 H492 0.929 . S
C505 C497 1.433 . S
C505 N507 1.384 . S
N506 C502 1.427 . S
N506 C503 1.384 . S
N507 C499 1.427 . S
N507 C505 1.384 . S
H508 C514 0.930 . S
H509 C518 0.930 . S
H510 C523 0.929 . S
H511 C521 0.929 . S
H512 C516 0.929 . S
H513 C522 0.929 . S
C514 H508 0.930 . S
C514 C515 1.367 . S
C514 C522 1.378 . S
C515 C514 1.367 . S
C515 C523 1.433 . S
C516 H512 0.929 . S
C516 C518 1.378 . S
C516 C520 1.350 . S
C517 C520 1.463 . S
C517 C522 1.350 . S
C517 N525 1.427 . S
C518 H509 0.930 . S
C518 C516 1.378 . S
C518 C519 1.367 . S
C519 C518 1.367 . S
C519 C521 1.433 . S
C520 C516 1.350 . S
C520 C517 1.463 . S
C520 N524 1.427 . S
C521 H511 0.929 . S
C521 C519 1.433 . S
C521 N524 1.384 . S
C522 H513 0.929 . S
C522 C514 1.378 . S
C522 C517 1.350 . S
C523 H510 0.929 . S
C523 C515 1.433 . S
C523 N525 1.384 . S
N524 C520 1.427 . S
N524 C521 1.384 . S
N525 C517 1.427 . S
N525 C523 1.384 . S
H526 C532 0.930 . S
H527 C536 0.930 . S
H528 C541 0.929 . S
H529 C539 0.929 . S
H530 C534 0.929 . S
H531 C540 0.929 . S
C532 H526 0.930 . S
C532 C533 1.367 . S
C532 C540 1.378 . S
C533 C532 1.367 . S
C533 C541 1.433 . S
C534 H530 0.929 . S
C534 C536 1.378 . S
C534 C538 1.350 . S
C535 C538 1.463 . S
C535 C540 1.350 . S
C535 N543 1.427 . S
C536 H527 0.930 . S
C536 C534 1.378 . S
C536 C537 1.367 . S
C537 C536 1.367 . S
C537 C539 1.433 . S
C538 C534 1.350 . S
C538 C535 1.463 . S
C538 N542 1.427 . S
C539 H529 0.929 . S
C539 C537 1.433 . S
C539 N542 1.384 . S
C540 H531 0.929 . S
C540 C532 1.378 . S
C540 C535 1.350 . S
C541 H528 0.929 . S
C541 C533 1.433 . S
C541 N543 1.384 . S
N542 C538 1.427 . S
N542 C539 1.384 . S
N543 C535 1.427 . S
N543 C541 1.384 . S
H544 C550 0.930 . S
H545 C554 0.930 . S
H546 C559 0.929 . S
H547 C557 0.929 . S
H548 C552 0.929 . S
H549 C558 0.929 . S
C550 H544 0.930 . S
C550 C551 1.367 . S
C550 C558 1.378 . S
C551 C550 1.367 . S
C551 C559 1.433 . S
C552 H548 0.929 . S
C552 C554 1.378 . S
C552 C556 1.350 . S
C553 C556 1.463 . S
C553 C558 1.350 . S
C553 N561 1.427 . S
C554 H545 0.930 . S
C554 C552 1.378 . S
C554 C555 1.367 . S
C555 C554 1.367 . S
C555 C557 1.433 . S
C556 C552 1.350 . S
C556 C553 1.463 . S
C556 N560 1.427 . S
C557 H547 0.929 . S
C557 C555 1.433 . S
C557 N560 1.384 . S
C558 H549 0.929 . S
C558 C550 1.378 . S
C558 C553 1.350 . S
C559 H546 0.929 . S
C559 C551 1.433 . S
C559 N561 1.384 . S
N560 C556 1.427 . S
N560 C557 1.384 . S
N561 C553 1.427 . S
N561 C559 1.384 . S
H562 C568 0.930 . S
H563 C572 0.930 . S
H564 C577 0.929 . S
H565 C575 0.929 . S
H566 C570 0.929 . S
H567 C576 0.929 . S
C568 H562 0.930 . S
C568 C569 1.367 . S
C568 C576 1.378 . S
C569 C568 1.367 . S
C569 C577 1.433 . S
C570 H566 0.929 . S
C570 C572 1.378 . S
C570 C574 1.350 . S
C571 C574 1.463 . S
C571 C576 1.350 . S
C571 N579 1.427 . S
C572 H563 0.930 . S
C572 C570 1.378 . S
C572 C573 1.367 . S
C573 C572 1.367 . S
C573 C575 1.433 . S
C574 C570 1.350 . S
C574 C571 1.463 . S
C574 N578 1.427 . S
C575 H565 0.929 . S
C575 C573 1.433 . S
C575 N578 1.384 . S
C576 H567 0.929 . S
C576 C568 1.378 . S
C576 C571 1.350 . S
C577 H564 0.929 . S
C577 C569 1.433 . S
C577 N579 1.384 . S
N578 C574 1.427 . S
N578 C575 1.384 . S
N579 C571 1.427 . S
N579 C577 1.384 . S
H580 C586 0.930 . S
H581 C590 0.930 . S
H582 C595 0.929 . S
H583 C593 0.929 . S
H584 C588 0.929 . S
H585 C594 0.929 . S
C586 H580 0.930 . S
C586 C587 1.367 . S
C586 C594 1.378 . S
C587 C586 1.367 . S
C587 C595 1.433 . S
C588 H584 0.929 . S
C588 C590 1.378 . S
C588 C592 1.350 . S
C589 C592 1.463 . S
C589 C594 1.350 . S
C589 N597 1.427 . S
C590 H581 0.930 . S
C590 C588 1.378 . S
C590 C591 1.367 . S
C591 C590 1.367 . S
C591 C593 1.433 . S
C592 C588 1.350 . S
C592 C589 1.463 . S
C592 N596 1.427 . S
C593 H583 0.929 . S
C593 C591 1.433 . S
C593 N596 1.384 . S
C594 H585 0.929 . S
C594 C586 1.378 . S
C594 C589 1.350 . S
C595 H582 0.929 . S
C595 C587 1.433 . S
C595 N597 1.384 . S
N596 C592 1.427 . S
N596 C593 1.384 . S
N597 C589 1.427 . S
N597 C595 1.384 . S
H598 C604 0.930 . S
H599 C608 0.930 1_655 S
H600 C613 0.929 . S
H601 C611 0.929 . S
H602 C606 0.929 1_655 S
H603 C612 0.929 . S
C604 H598 0.930 . S
C604 C605 1.367 . S
C604 C612 1.378 . S
C605 C604 1.367 . S
C605 C613 1.433 . S
C606 H602 0.929 1_455 S
C606 C608 1.378 . S
C606 C610 1.350 . S
C607 C610 1.463 . S
C607 C612 1.350 . S
C607 N615 1.427 . S
C608 H599 0.930 1_455 S
C608 C606 1.378 . S
C608 C609 1.367 . S
C609 C608 1.367 . S
C609 C611 1.433 . S
C610 C606 1.350 . S
C610 C607 1.463 . S
C610 N614 1.427 . S
C611 H601 0.929 . S
C611 C609 1.433 . S
C611 N614 1.384 . S
C612 H603 0.929 . S
C612 C604 1.378 . S
C612 C607 1.350 . S
C613 H600 0.929 . S
C613 C605 1.433 . S
C613 N615 1.384 . S
N614 C610 1.427 . S
N614 C611 1.384 . S
N615 C607 1.427 . S
N615 C613 1.384 . S
H616 C622 0.930 . S
H617 C626 0.930 . S
H618 C631 0.929 . S
H619 C629 0.929 . S
H620 C624 0.929 . S
H621 C630 0.929 . S
C622 H616 0.930 . S
C622 C623 1.367 . S
C622 C630 1.378 . S
C623 C622 1.367 . S
C623 C631 1.433 . S
C624 H620 0.929 . S
C624 C626 1.378 . S
C624 C628 1.350 . S
C625 C628 1.463 . S
C625 C630 1.350 . S
C625 N633 1.427 . S
C626 H617 0.930 . S
C626 C624 1.378 . S
C626 C627 1.367 . S
C627 C626 1.367 . S
C627 C629 1.433 . S
C628 C624 1.350 . S
C628 C625 1.463 . S
C628 N632 1.427 . S
C629 H619 0.929 . S
C629 C627 1.433 . S
C629 N632 1.384 . S
C630 H621 0.929 . S
C630 C622 1.378 . S
C630 C625 1.350 . S
C631 H618 0.929 . S
C631 C623 1.433 . S
C631 N633 1.384 . S
N632 C628 1.427 . S
N632 C629 1.384 . S
N633 C625 1.427 . S
N633 C631 1.384 . S
H634 C640 0.930 . S
H635 C644 0.930 . S
H636 C649 0.929 . S
H637 C647 0.929 . S
H638 C642 0.929 . S
H639 C648 0.929 . S
C640 H634 0.930 . S
C640 C641 1.367 . S
C640 C648 1.378 . S
C641 C640 1.367 . S
C641 C649 1.433 . S
C642 H638 0.929 . S
C642 C644 1.378 1_655 S
C642 C646 1.350 . S
C643 C646 1.463 . S
C643 C648 1.350 . S
C643 N651 1.427 . S
C644 H635 0.930 . S
C644 C642 1.378 1_455 S
C644 C645 1.367 . S
C645 C644 1.367 . S
C645 C647 1.433 1_455 S
C646 C642 1.350 . S
C646 C643 1.463 . S
C646 N650 1.427 . S
C647 H637 0.929 . S
C647 C645 1.433 1_655 S
C647 N650 1.384 . S
C648 H639 0.929 . S
C648 C640 1.378 . S
C648 C643 1.350 . S
C649 H636 0.929 . S
C649 C641 1.433 . S
C649 N651 1.384 . S
N650 C646 1.427 . S
N650 C647 1.384 . S
N651 C643 1.427 . S
N651 C649 1.384 . S
H652 C658 0.930 . S
H653 C662 0.930 . S
H654 C667 0.929 . S
H655 C665 0.929 . S
H656 C660 0.929 . S
H657 C666 0.929 . S
C658 H652 0.930 . S
C658 C659 1.367 . S
C658 C666 1.378 . S
C659 C658 1.367 . S
C659 C667 1.433 . S
C660 H656 0.929 . S
C660 C662 1.378 . S
C660 C664 1.350 . S
C661 C664 1.463 . S
C661 C666 1.350 . S
C661 N669 1.427 . S
C662 H653 0.930 . S
C662 C660 1.378 . S
C662 C663 1.367 . S
C663 C662 1.367 . S
C663 C665 1.433 . S
C664 C660 1.350 . S
C664 C661 1.463 . S
C664 N668 1.427 . S
C665 H655 0.929 . S
C665 C663 1.433 . S
C665 N668 1.384 . S
C666 H657 0.929 . S
C666 C658 1.378 . S
C666 C661 1.350 . S
C667 H654 0.929 . S
C667 C659 1.433 . S
C667 N669 1.384 . S
N668 C664 1.427 . S
N668 C665 1.384 . S
N669 C661 1.427 . S
N669 C667 1.384 . S
H670 C676 0.930 . S
H671 C680 0.930 . S
H672 C685 0.929 . S
H673 C683 0.929 . S
H674 C678 0.929 . S
H675 C684 0.929 . S
C676 H670 0.930 . S
C676 C677 1.367 . S
C676 C684 1.378 . S
C677 C676 1.367 . S
C677 C685 1.433 . S
C678 H674 0.929 . S
C678 C680 1.378 . S
C678 C682 1.350 . S
C679 C682 1.463 . S
C679 C684 1.350 . S
C679 N687 1.427 . S
C680 H671 0.930 . S
C680 C678 1.378 . S
C680 C681 1.367 . S
C681 C680 1.367 . S
C681 C683 1.433 . S
C682 C678 1.350 . S
C682 C679 1.463 . S
C682 N686 1.427 . S
C683 H673 0.929 . S
C683 C681 1.433 . S
C683 N686 1.384 . S
C684 H675 0.929 . S
C684 C676 1.378 . S
C684 C679 1.350 . S
C685 H672 0.929 . S
C685 C677 1.433 . S
C685 N687 1.384 . S
N686 C682 1.427 . S
N686 C683 1.384 . S
N687 C679 1.427 . S
N687 C685 1.384 . S
H688 C694 0.930 . S
H689 C698 0.930 . S
H690 C703 0.929 1_554 S
H691 C701 0.929 . S
H692 C696 0.929 . S
H693 C702 0.929 1_545 S
C694 H688 0.930 . S
C694 C695 1.367 . S
C694 C702 1.378 1_545 S
C695 C694 1.367 . S
C695 C703 1.433 1_545 S
C696 H692 0.929 . S
C696 C698 1.378 . S
C696 C700 1.350 1_554 S
C697 C700 1.463 . S
C697 C702 1.350 . S
C697 N705 1.427 1_556 S
C698 H689 0.930 . S
C698 C696 1.378 . S
C698 C699 1.367 . S
C699 C698 1.367 . S
C699 C701 1.433 1_554 S
C700 C696 1.350 1_556 S
C700 C697 1.463 . S
C700 N704 1.427 . S
C701 H691 0.929 . S
C701 C699 1.433 1_556 S
C701 N704 1.384 . S
C702 H693 0.929 1_565 S
C702 C694 1.378 1_565 S
C702 C697 1.350 . S
C703 H690 0.929 1_556 S
C703 C695 1.433 1_565 S
C703 N705 1.384 1_556 S
N704 C700 1.427 . S
N704 C701 1.384 . S
N705 C697 1.427 1_554 S
N705 C703 1.384 1_554 S
H706 C712 0.930 . S
H707 C716 0.930 . S
H708 C721 0.929 . S
H709 C719 0.929 . S
H710 C714 0.929 . S
H711 C720 0.929 . S
C712 H706 0.930 . S
C712 C713 1.367 . S
C712 C720 1.378 . S
C713 C712 1.367 . S
C713 C721 1.433 . S
C714 H710 0.929 . S
C714 C716 1.378 . S
C714 C718 1.350 . S
C715 C718 1.463 . S
C715 C720 1.350 . S
C715 N723 1.427 . S
C716 H707 0.930 . S
C716 C714 1.378 . S
C716 C717 1.367 . S
C717 C716 1.367 . S
C717 C719 1.433 . S
C718 C714 1.350 . S
C718 C715 1.463 . S
C718 N722 1.427 . S
C719 H709 0.929 . S
C719 C717 1.433 . S
C719 N722 1.384 . S
C720 H711 0.929 . S
C720 C712 1.378 . S
C720 C715 1.350 . S
C721 H708 0.929 . S
C721 C713 1.433 . S
C721 N723 1.384 . S
N722 C718 1.427 . S
N722 C719 1.384 . S
N723 C715 1.427 . S
N723 C721 1.384 . S
H724 C730 0.930 . S
H725 C734 0.930 . S
H726 C739 0.929 . S
H727 C737 0.929 . S
H728 C732 0.929 . S
H729 C738 0.929 . S
C730 H724 0.930 . S
C730 C731 1.367 . S
C730 C738 1.378 . S
C731 C730 1.367 . S
C731 C739 1.433 . S
C732 H728 0.929 . S
C732 C734 1.378 . S
C732 C736 1.350 . S
C733 C736 1.463 . S
C733 C738 1.350 . S
C733 N741 1.427 . S
C734 H725 0.930 . S
C734 C732 1.378 . S
C734 C735 1.367 . S
C735 C734 1.367 . S
C735 C737 1.433 . S
C736 C732 1.350 . S
C736 C733 1.463 . S
C736 N740 1.427 . S
C737 H727 0.929 . S
C737 C735 1.433 . S
C737 N740 1.384 . S
C738 H729 0.929 . S
C738 C730 1.378 . S
C738 C733 1.350 . S
C739 H726 0.929 . S
C739 C731 1.433 . S
C739 N741 1.384 . S
N740 C736 1.427 . S
N740 C737 1.384 . S
N741 C733 1.427 . S
N741 C739 1.384 . S
H742 C748 0.930 . S
H743 C752 0.930 . S
H744 C757 0.929 . S
H745 C755 0.929 . S
H746 C750 0.929 . S
H747 C756 0.929 . S
C748 H742 0.930 . S
C748 C749 1.367 . S
C748 C756 1.378 . S
C749 C748 1.367 . S
C749 C757 1.433 . S
C750 H746 0.929 . S
C750 C752 1.378 . S
C750 C754 1.350 . S
C751 C754 1.463 . S
C751 C756 1.350 . S
C751 N759 1.427 . S
C752 H743 0.930 . S
C752 C750 1.378 . S
C752 C753 1.367 . S
C753 C752 1.367 . S
C753 C755 1.433 . S
C754 C750 1.350 . S
C754 C751 1.463 . S
C754 N758 1.427 . S
C755 H745 0.929 . S
C755 C753 1.433 . S
C755 N758 1.384 . S
C756 H747 0.929 . S
C756 C748 1.378 . S
C756 C751 1.350 . S
C757 H744 0.929 . S
C757 C749 1.433 . S
C757 N759 1.384 . S
N758 C754 1.427 . S
N758 C755 1.384 . S
N759 C751 1.427 . S
N759 C757 1.384 . S
H760 C766 0.930 . S
H761 C770 0.930 . S
H762 C775 0.929 . S
H763 C773 0.929 . S
H764 C768 0.929 . S
H765 C774 0.929 . S
C766 H760 0.930 . S
C766 C767 1.367 1_545 S
C766 C774 1.378 . S
C767 C766 1.367 1_565 S
C767 C775 1.433 . S
C768 H764 0.929 . S
C768 C770 1.378 . S
C768 C772 1.350 . S
C769 C772 1.463 . S
C769 C774 1.350 . S
C769 N777 1.427 . S
C770 H761 0.930 . S
C770 C768 1.378 . S
C770 C771 1.367 . S
C771 C770 1.367 . S
C771 C773 1.433 . S
C772 C768 1.350 . S
C772 C769 1.463 . S
C772 N776 1.427 . S
C773 H763 0.929 . S
C773 C771 1.433 . S
C773 N776 1.384 . S
C774 H765 0.929 . S
C774 C766 1.378 . S
C774 C769 1.350 . S
C775 H762 0.929 . S
C775 C767 1.433 . S
C775 N777 1.384 1_565 S
N776 C772 1.427 . S
N776 C773 1.384 . S
N777 C769 1.427 . S
N777 C775 1.384 1_545 S
H778 C784 0.930 . S
H779 C788 0.930 . S
H780 C793 0.929 . S
H781 C791 0.929 . S
H782 C786 0.929 . S
H783 C792 0.929 . S
C784 H778 0.930 . S
C784 C785 1.367 . S
C784 C792 1.378 . S
C785 C784 1.367 . S
C785 C793 1.433 . S
C786 H782 0.929 . S
C786 C788 1.378 . S
C786 C790 1.350 . S
C787 C790 1.463 . S
C787 C792 1.350 . S
C787 N795 1.427 . S
C788 H779 0.930 . S
C788 C786 1.378 . S
C788 C789 1.367 . S
C789 C788 1.367 . S
C789 C791 1.433 . S
C790 C786 1.350 . S
C790 C787 1.463 . S
C790 N794 1.427 . S
C791 H781 0.929 . S
C791 C789 1.433 . S
C791 N794 1.384 . S
C792 H783 0.929 . S
C792 C784 1.378 . S
C792 C787 1.350 . S
C793 H780 0.929 . S
C793 C785 1.433 . S
C793 N795 1.384 . S
N794 C790 1.427 . S
N794 C791 1.384 . S
N795 C787 1.427 . S
N795 C793 1.384 . S
H796 C802 0.930 . S
H797 C806 0.930 . S
H798 C811 0.929 . S
H799 C809 0.929 . S
H800 C804 0.929 . S
H801 C810 0.929 . S
C802 H796 0.930 . S
C802 C803 1.367 . S
C802 C810 1.378 . S
C803 C802 1.367 . S
C803 C811 1.433 . S
C804 H800 0.929 . S
C804 C806 1.378 . S
C804 C808 1.350 . S
C805 C808 1.463 . S
C805 C810 1.350 . S
C805 N813 1.427 . S
C806 H797 0.930 . S
C806 C804 1.378 . S
C806 C807 1.367 . S
C807 C806 1.367 . S
C807 C809 1.433 . S
C808 C804 1.350 . S
C808 C805 1.463 . S
C808 N812 1.427 . S
C809 H799 0.929 . S
C809 C807 1.433 . S
C809 N812 1.384 . S
C810 H801 0.929 . S
C810 C802 1.378 . S
C810 C805 1.350 . S
C811 H798 0.929 . S
C811 C803 1.433 . S
C811 N813 1.384 . S
N812 C808 1.427 . S
N812 C809 1.384 . S
N813 C805 1.427 . S
N813 C811 1.384 . S
H814 C820 0.930 . S
H815 C824 0.930 1_565 S
H816 C829 0.929 . S
H817 C827 0.929 . S
H818 C822 0.929 1_565 S
H819 C828 0.929 . S
C820 H814 0.930 . S
C820 C821 1.367 . S
C820 C828 1.378 . S
C821 C820 1.367 . S
C821 C829 1.433 . S
C822 H818 0.929 1_545 S
C822 C824 1.378 . S
C822 C826 1.350 . S
C823 C826 1.463 . S
C823 C828 1.350 . S
C823 N831 1.427 . S
C824 H815 0.930 1_545 S
C824 C822 1.378 . S
C824 C825 1.367 . S
C825 C824 1.367 . S
C825 C827 1.433 . S
C826 C822 1.350 . S
C826 C823 1.463 . S
C826 N830 1.427 . S
C827 H817 0.929 . S
C827 C825 1.433 . S
C827 N830 1.384 . S
C828 H819 0.929 . S
C828 C820 1.378 . S
C828 C823 1.350 . S
C829 H816 0.929 . S
C829 C821 1.433 . S
C829 N831 1.384 . S
N830 C826 1.427 . S
N830 C827 1.384 . S
N831 C823 1.427 . S
N831 C829 1.384 . S
H832 C838 0.930 . S
H833 C842 0.930 . S
H834 C847 0.929 . S
H835 C845 0.929 . S
H836 C840 0.929 . S
H837 C846 0.929 . S
C838 H832 0.930 . S
C838 C839 1.367 . S
C838 C846 1.378 . S
C839 C838 1.367 . S
C839 C847 1.433 . S
C840 H836 0.929 . S
C840 C842 1.378 . S
C840 C844 1.350 . S
C841 C844 1.463 . S
C841 C846 1.350 . S
C841 N849 1.427 . S
C842 H833 0.930 . S
C842 C840 1.378 . S
C842 C843 1.367 . S
C843 C842 1.367 . S
C843 C845 1.433 . S
C844 C840 1.350 . S
C844 C841 1.463 . S
C844 N848 1.427 . S
C845 H835 0.929 . S
C845 C843 1.433 . S
C845 N848 1.384 . S
C846 H837 0.929 . S
C846 C838 1.378 . S
C846 C841 1.350 . S
C847 H834 0.929 . S
C847 C839 1.433 . S
C847 N849 1.384 . S
N848 C844 1.427 . S
N848 C845 1.384 . S
N849 C841 1.427 . S
N849 C847 1.384 . S
H850 C856 0.930 . S
H851 C860 0.930 . S
H852 C865 0.929 . S
H853 C863 0.929 . S
H854 C858 0.929 . S
H855 C864 0.929 . S
C856 H850 0.930 . S
C856 C857 1.367 . S
C856 C864 1.378 . S
C857 C856 1.367 . S
C857 C865 1.433 . S
C858 H854 0.929 . S
C858 C860 1.378 . S
C858 C862 1.350 . S
C859 C862 1.463 . S
C859 C864 1.350 . S
C859 N867 1.427 . S
C860 H851 0.930 . S
C860 C858 1.378 . S
C860 C861 1.367 . S
C861 C860 1.367 . S
C861 C863 1.433 . S
C862 C858 1.350 . S
C862 C859 1.463 . S
C862 N866 1.427 . S
C863 H853 0.929 . S
C863 C861 1.433 . S
C863 N866 1.384 . S
C864 H855 0.929 . S
C864 C856 1.378 . S
C864 C859 1.350 . S
C865 H852 0.929 . S
C865 C857 1.433 . S
C865 N867 1.384 . S
N866 C862 1.427 . S
N866 C863 1.384 . S
N867 C859 1.427 . S
N867 C865 1.384 . S
H868 C874 0.930 . S
H869 C878 0.930 . S
H870 C883 0.929 . S
H871 C881 0.929 . S
H872 C876 0.929 . S
H873 C882 0.929 . S
C874 H868 0.930 . S
C874 C875 1.367 . S
C874 C882 1.378 . S
C875 C874 1.367 . S
C875 C883 1.433 . S
C876 H872 0.929 . S
C876 C878 1.378 . S
C876 C880 1.350 . S
C877 C880 1.463 . S
C877 C882 1.350 . S
C877 N885 1.427 . S
C878 H869 0.930 . S
C878 C876 1.378 . S
C878 C879 1.367 . S
C879 C878 1.367 . S
C879 C881 1.433 . S
C880 C876 1.350 . S
C880 C877 1.463 . S
C880 N884 1.427 . S
C881 H871 0.929 . S
C881 C879 1.433 . S
C881 N884 1.384 . S
C882 H873 0.929 . S
C882 C874 1.378 . S
C882 C877 1.350 . S
C883 H870 0.929 . S
C883 C875 1.433 . S
C883 N885 1.384 . S
N884 C880 1.427 . S
N884 C881 1.384 . S
N885 C877 1.427 . S
N885 C883 1.384 . S
H886 C892 0.930 . S
H887 C896 0.930 . S
H888 C901 0.929 . S
H889 C899 0.929 . S
H890 C894 0.929 . S
H891 C900 0.929 . S
C892 H886 0.930 . S
C892 C893 1.367 1_565 S
C892 C900 1.378 . S
C893 C892 1.367 1_545 S
C893 C901 1.433 . S
C894 H890 0.929 . S
C894 C896 1.378 . S
C894 C898 1.350 . S
C895 C898 1.463 . S
C895 C900 1.350 1_545 S
C895 N903 1.427 . S
C896 H887 0.930 . S
C896 C894 1.378 . S
C896 C897 1.367 . S
C897 C896 1.367 . S
C897 C899 1.433 1_545 S
C898 C894 1.350 . S
C898 C895 1.463 . S
C898 N902 1.427 1_545 S
C899 H889 0.929 . S
C899 C897 1.433 1_565 S
C899 N902 1.384 . S
C900 H891 0.929 . S
C900 C892 1.378 . S
C900 C895 1.350 1_565 S
C901 H888 0.929 . S
C901 C893 1.433 . S
C901 N903 1.384 . S
N902 C898 1.427 1_565 S
N902 C899 1.384 . S
N903 C895 1.427 . S
N903 C901 1.384 . S
H904 C910 0.930 . S
H905 C914 0.930 . S
H906 C919 0.929 . S
H907 C917 0.929 . S
H908 C912 0.929 . S
H909 C918 0.929 . S
C910 H904 0.930 . S
C910 C911 1.367 . S
C910 C918 1.378 . S
C911 C910 1.367 . S
C911 C919 1.433 . S
C912 H908 0.929 . S
C912 C914 1.378 . S
C912 C916 1.350 . S
C913 C916 1.463 . S
C913 C918 1.350 . S
C913 N921 1.427 . S
C914 H905 0.930 . S
C914 C912 1.378 . S
C914 C915 1.367 . S
C915 C914 1.367 . S
C915 C917 1.433 . S
C916 C912 1.350 . S
C916 C913 1.463 . S
C916 N920 1.427 . S
C917 H907 0.929 . S
C917 C915 1.433 . S
C917 N920 1.384 . S
C918 H909 0.929 . S
C918 C910 1.378 . S
C918 C913 1.350 . S
C919 H906 0.929 . S
C919 C911 1.433 . S
C919 N921 1.384 . S
N920 C916 1.427 . S
N920 C917 1.384 . S
N921 C913 1.427 . S
N921 C919 1.384 . S
H922 C928 0.930 . S
H923 C932 0.930 . S
H924 C937 0.929 . S
H925 C935 0.929 . S
H926 C930 0.929 . S
H927 C936 0.929 . S
C928 H922 0.930 . S
C928 C929 1.367 . S
C928 C936 1.378 . S
C929 C928 1.367 . S
C929 C937 1.433 . S
C930 H926 0.929 . S
C930 C932 1.378 . S
C930 C934 1.350 . S
C931 C934 1.463 . S
C931 C936 1.350 . S
C931 N939 1.427 . S
C932 H923 0.930 . S
C932 C930 1.378 . S
C932 C933 1.367 . S
C933 C932 1.367 . S
C933 C935 1.433 . S
C934 C930 1.350 . S
C934 C931 1.463 . S
C934 N938 1.427 . S
C935 H925 0.929 . S
C935 C933 1.433 . S
C935 N938 1.384 . S
C936 H927 0.929 . S
C936 C928 1.378 . S
C936 C931 1.350 . S
C937 H924 0.929 . S
C937 C929 1.433 . S
C937 N939 1.384 . S
N938 C934 1.427 . S
N938 C935 1.384 . S
N939 C931 1.427 . S
N939 C937 1.384 . S
H940 C946 0.930 . S
H941 C950 0.930 . S
H942 C955 0.929 . S
H943 C953 0.929 . S
H944 C948 0.929 . S
H945 C954 0.929 . S
C946 H940 0.930 . S
C946 C947 1.367 . S
C946 C954 1.378 . S
C947 C946 1.367 . S
C947 C955 1.433 . S
C948 H944 0.929 . S
C948 C950 1.378 . S
C948 C952 1.350 . S
C949 C952 1.463 . S
C949 C954 1.350 . S
C949 N957 1.427 . S
C950 H941 0.930 . S
C950 C948 1.378 . S
C950 C951 1.367 . S
C951 C950 1.367 . S
C951 C953 1.433 . S
C952 C948 1.350 . S
C952 C949 1.463 . S
C952 N956 1.427 . S
C953 H943 0.929 . S
C953 C951 1.433 . S
C953 N956 1.384 . S
C954 H945 0.929 . S
C954 C946 1.378 . S
C954 C949 1.350 . S
C955 H942 0.929 . S
C955 C947 1.433 . S
C955 N957 1.384 . S
N956 C952 1.427 . S
N956 C953 1.384 . S
N957 C949 1.427 . S
N957 C955 1.384 . S
H958 C964 0.930 . S
H959 C968 0.930 . S
H960 C973 0.929 1_455 S
H961 C971 0.929 . S
H962 C966 0.929 . S
H963 C972 0.929 . S
C964 H958 0.930 . S
C964 C965 1.367 . S
C964 C972 1.378 . S
C965 C964 1.367 . S
C965 C973 1.433 . S
C966 H962 0.929 . S
C966 C968 1.378 . S
C966 C970 1.350 1_455 S
C967 C970 1.460 1_554 S
C967 C972 1.355 . S
C967 N975 1.419 1_654 S
C968 H959 0.930 . S
C968 C966 1.378 . S
C968 C969 1.367 1_455 S
C969 C968 1.367 1_655 S
C969 C971 1.433 . S
C970 C966 1.350 1_655 S
C970 C967 1.460 1_556 S
C970 N974 1.427 . S
C971 H961 0.929 . S
C971 C969 1.433 . S
C971 N974 1.384 . S
C972 H963 0.929 . S
C972 C964 1.378 . S
C972 C967 1.355 . S
C973 H960 0.929 1_655 S
C973 C965 1.433 . S
C973 N975 1.382 1_654 S
N974 C970 1.427 . S
N974 C971 1.384 . S
N975 C967 1.419 1_456 S
N975 C973 1.382 1_456 S
H976 C982 0.930 . S
H977 C986 0.930 . S
H978 C991 0.929 . S
H979 C989 0.929 . S
H980 C984 0.929 . S
H981 C990 0.929 . S
C982 H976 0.930 . S
C982 C983 1.367 . S
C982 C990 1.378 . S
C983 C982 1.367 . S
C983 C991 1.433 . S
C984 H980 0.929 . S
C984 C986 1.378 . S
C984 C988 1.350 . S
C985 C988 1.463 . S
C985 C990 1.350 . S
C985 N993 1.427 . S
C986 H977 0.930 . S
C986 C984 1.378 . S
C986 C987 1.367 . S
C987 C986 1.367 . S
C987 C989 1.433 . S
C988 C984 1.350 . S
C988 C985 1.463 . S
C988 N992 1.427 . S
C989 H979 0.929 . S
C989 C987 1.433 . S
C989 N992 1.384 . S
C990 H981 0.929 . S
C990 C982 1.378 . S
C990 C985 1.350 . S
C991 H978 0.929 . S
C991 C983 1.433 . S
C991 N993 1.384 . S
N992 C988 1.427 . S
N992 C989 1.384 . S
N993 C985 1.427 . S
N993 C991 1.384 . S
H994 C1000 0.930 1_556 S
H995 C1004 0.922 1_655 S
H996 C1009 0.929 . S
H997 C1007 0.929 . S
H998 C1002 0.929 1_554 S
H999 C1008 0.929 . S
C1000 H994 0.930 1_554 S
C1000 C1001 1.367 . S
C1000 C1008 1.378 1_554 S
C1001 C1000 1.367 . S
C1001 C1009 1.433 . S
C1002 H998 0.929 1_556 S
C1002 C1004 1.378 . S
C1002 C1006 1.350 . S
C1003 C1006 1.468 . S
C1003 C1008 1.353 . S
C1003 N1011 1.418 1_556 S
C1004 H995 0.922 1_455 S
C1004 C1002 1.378 . S
C1004 C1005 1.367 . S
C1005 C1004 1.367 . S
C1005 C1007 1.433 . S
C1006 C1002 1.350 . S
C1006 C1003 1.468 . S
C1006 N1010 1.427 . S
C1007 H997 0.929 . S
C1007 C1005 1.433 . S
C1007 N1010 1.384 . S
C1008 H999 0.929 . S
C1008 C1000 1.378 1_556 S
C1008 C1003 1.353 . S
C1009 H996 0.929 . S
C1009 C1001 1.433 . S
C1009 N1011 1.384 . S
N1010 C1006 1.427 . S
N1010 C1007 1.384 . S
N1011 C1003 1.418 1_554 S
N1011 C1009 1.384 . S
H1012 C1018 0.930 . S
H1013 C1022 0.930 . S
H1014 C1027 0.929 . S
H1015 C1025 0.929 . S
H1016 C1020 0.929 . S
H1017 C1026 0.929 . S
C1018 H1012 0.930 . S
C1018 C1019 1.367 . S
C1018 C1026 1.378 . S
C1019 C1018 1.367 . S
C1019 C1027 1.433 . S
C1020 H1016 0.929 . S
C1020 C1022 1.378 . S
C1020 C1024 1.350 . S
C1021 C1024 1.463 . S
C1021 C1026 1.350 . S
C1021 N1029 1.427 . S
C1022 H1013 0.930 . S
C1022 C1020 1.378 . S
C1022 C1023 1.367 . S
C1023 C1022 1.367 . S
C1023 C1025 1.433 . S
C1024 C1020 1.350 . S
C1024 C1021 1.463 . S
C1024 N1028 1.427 . S
C1025 H1015 0.929 . S
C1025 C1023 1.433 . S
C1025 N1028 1.384 . S
C1026 H1017 0.929 . S
C1026 C1018 1.378 . S
C1026 C1021 1.350 . S
C1027 H1014 0.929 . S
C1027 C1019 1.433 . S
C1027 N1029 1.384 . S
N1028 C1024 1.427 . S
N1028 C1025 1.384 . S
N1029 C1021 1.427 . S
N1029 C1027 1.384 . S
H1030 C1036 0.930 . S
H1031 C1040 0.930 . S
H1032 C1045 0.929 . S
H1033 C1043 0.929 . S
H1034 C1038 0.929 . S
H1035 C1044 0.929 . S
C1036 H1030 0.930 . S
C1036 C1037 1.367 . S
C1036 C1044 1.378 1_556 S
C1037 C1036 1.367 . S
C1037 C1045 1.433 1_556 S
C1038 H1034 0.929 . S
C1038 C1040 1.378 . S
C1038 C1042 1.350 . S
C1039 C1042 1.463 . S
C1039 C1044 1.350 . S
C1039 N1047 1.427 . S
C1040 H1031 0.930 . S
C1040 C1038 1.378 . S
C1040 C1041 1.367 . S
C1041 C1040 1.367 . S
C1041 C1043 1.433 . S
C1042 C1038 1.350 . S
C1042 C1039 1.463 . S
C1042 N1046 1.427 . S
C1043 H1033 0.929 . S
C1043 C1041 1.433 . S
C1043 N1046 1.384 . S
C1044 H1035 0.929 . S
C1044 C1036 1.378 1_554 S
C1044 C1039 1.350 . S
C1045 H1032 0.929 . S
C1045 C1037 1.433 1_554 S
C1045 N1047 1.384 . S
N1046 C1042 1.427 . S
N1046 C1043 1.384 . S
N1047 C1039 1.427 . S
N1047 C1045 1.384 . S
H1048 C1054 0.930 . S
H1049 C1058 0.930 . S
H1050 C1063 0.929 . S
H1051 C1061 0.929 . S
H1052 C1056 0.929 . S
H1053 C1062 0.929 . S
C1054 H1048 0.930 . S
C1054 C1055 1.367 . S
C1054 C1062 1.378 . S
C1055 C1054 1.367 . S
C1055 C1063 1.433 . S
C1056 H1052 0.929 . S
C1056 C1058 1.378 . S
C1056 C1060 1.350 . S
C1057 C1060 1.463 . S
C1057 C1062 1.350 . S
C1057 N1065 1.427 . S
C1058 H1049 0.930 . S
C1058 C1056 1.378 . S
C1058 C1059 1.367 . S
C1059 C1058 1.367 . S
C1059 C1061 1.433 . S
C1060 C1056 1.350 . S
C1060 C1057 1.463 . S
C1060 N1064 1.427 . S
C1061 H1051 0.929 . S
C1061 C1059 1.433 . S
C1061 N1064 1.384 . S
C1062 H1053 0.929 . S
C1062 C1054 1.378 . S
C1062 C1057 1.350 . S
C1063 H1050 0.929 . S
C1063 C1055 1.433 . S
C1063 N1065 1.384 . S
N1064 C1060 1.427 . S
N1064 C1061 1.384 . S
N1065 C1057 1.427 . S
N1065 C1063 1.384 . S
H1066 C1072 0.930 1_556 S
H1067 C1076 0.930 . S
H1068 C1081 0.929 . S
H1069 C1079 0.929 . S
H1070 C1074 0.929 . S
H1071 C1080 0.929 . S
C1072 H1066 0.930 1_554 S
C1072 C1073 1.367 1_554 S
C1072 C1080 1.378 . S
C1073 C1072 1.367 1_556 S
C1073 C1081 1.433 1_556 S
C1074 H1070 0.929 . S
C1074 C1076 1.378 . S
C1074 C1078 1.350 . S
C1075 C1078 1.463 . S
C1075 C1080 1.350 . S
C1075 N1083 1.427 . S
C1076 H1067 0.930 . S
C1076 C1074 1.378 . S
C1076 C1077 1.367 . S
C1077 C1076 1.367 . S
C1077 C1079 1.433 . S
C1078 C1074 1.350 . S
C1078 C1075 1.463 . S
C1078 N1082 1.427 . S
C1079 H1069 0.929 . S
C1079 C1077 1.433 . S
C1079 N1082 1.384 . S
C1080 H1071 0.929 . S
C1080 C1072 1.378 . S
C1080 C1075 1.350 . S
C1081 H1068 0.929 . S
C1081 C1073 1.433 1_554 S
C1081 N1083 1.384 . S
N1082 C1078 1.427 . S
N1082 C1079 1.384 . S
N1083 C1075 1.427 . S
N1083 C1081 1.384 . S
H1084 C1090 0.930 . S
H1085 C1094 0.930 . S
H1086 C1099 0.929 . S
H1087 C1097 0.929 . S
H1088 C1092 0.929 . S
H1089 C1098 0.929 . S
C1090 H1084 0.930 . S
C1090 C1091 1.367 . S
C1090 C1098 1.378 . S
C1091 C1090 1.367 . S
C1091 C1099 1.433 . S
C1092 H1088 0.929 . S
C1092 C1094 1.378 . S
C1092 C1096 1.350 . S
C1093 C1096 1.463 . S
C1093 C1098 1.350 . S
C1093 N1101 1.427 . S
C1094 H1085 0.930 . S
C1094 C1092 1.378 . S
C1094 C1095 1.367 . S
C1095 C1094 1.367 . S
C1095 C1097 1.433 . S
C1096 C1092 1.350 . S
C1096 C1093 1.463 . S
C1096 N1100 1.427 . S
C1097 H1087 0.929 . S
C1097 C1095 1.433 . S
C1097 N1100 1.384 . S
C1098 H1089 0.929 . S
C1098 C1090 1.378 . S
C1098 C1093 1.350 . S
C1099 H1086 0.929 . S
C1099 C1091 1.433 . S
C1099 N1101 1.384 . S
N1100 C1096 1.427 . S
N1100 C1097 1.384 . S
N1101 C1093 1.427 . S
N1101 C1099 1.384 . S
H1102 C1108 0.930 . S
H1103 C1112 0.930 . S
H1104 C1117 0.929 . S
H1105 C1115 0.929 . S
H1106 C1110 0.929 . S
H1107 C1116 0.929 . S
C1108 H1102 0.930 . S
C1108 C1109 1.367 . S
C1108 C1116 1.378 . S
C1109 C1108 1.367 . S
C1109 C1117 1.433 . S
C1110 H1106 0.929 . S
C1110 C1112 1.378 . S
C1110 C1114 1.350 . S
C1111 C1114 1.463 . S
C1111 C1116 1.350 . S
C1111 N1119 1.427 . S
C1112 H1103 0.930 . S
C1112 C1110 1.378 . S
C1112 C1113 1.367 . S
C1113 C1112 1.367 . S
C1113 C1115 1.433 . S
C1114 C1110 1.350 . S
C1114 C1111 1.463 . S
C1114 N1118 1.427 . S
C1115 H1105 0.929 . S
C1115 C1113 1.433 . S
C1115 N1118 1.384 . S
C1116 H1107 0.929 . S
C1116 C1108 1.378 . S
C1116 C1111 1.350 . S
C1117 H1104 0.929 . S
C1117 C1109 1.433 . S
C1117 N1119 1.384 . S
N1118 C1114 1.427 . S
N1118 C1115 1.384 . S
N1119 C1111 1.427 . S
N1119 C1117 1.384 . S
H1120 C1126 0.930 . S
H1121 C1130 0.930 . S
H1122 C1135 0.929 . S
H1123 C1133 0.929 . S
H1124 C1128 0.929 . S
H1125 C1134 0.929 . S
C1126 H1120 0.930 . S
C1126 C1127 1.367 . S
C1126 C1134 1.378 . S
C1127 C1126 1.367 . S
C1127 C1135 1.433 . S
C1128 H1124 0.929 . S
C1128 C1130 1.378 . S
C1128 C1132 1.350 . S
C1129 C1132 1.463 . S
C1129 C1134 1.350 . S
C1129 N1137 1.427 . S
C1130 H1121 0.930 . S
C1130 C1128 1.378 . S
C1130 C1131 1.367 . S
C1131 C1130 1.367 . S
C1131 C1133 1.433 . S
C1132 C1128 1.350 . S
C1132 C1129 1.463 . S
C1132 N1136 1.427 . S
C1133 H1123 0.929 . S
C1133 C1131 1.433 . S
C1133 N1136 1.384 . S
C1134 H1125 0.929 . S
C1134 C1126 1.378 . S
C1134 C1129 1.350 . S
C1135 H1122 0.929 . S
C1135 C1127 1.433 . S
C1135 N1137 1.384 . S
N1136 C1132 1.427 . S
N1136 C1133 1.384 . S
N1137 C1129 1.427 . S
N1137 C1135 1.384 . S
H1138 C1144 0.930 . S
H1139 C1148 0.930 . S
H1140 C1153 0.929 . S
H1141 C1151 0.929 . S
H1142 C1146 0.929 . S
H1143 C1152 0.929 . S
C1144 H1138 0.930 . S
C1144 C1145 1.367 . S
C1144 C1152 1.378 . S
C1145 C1144 1.367 . S
C1145 C1153 1.433 . S
C1146 H1142 0.929 . S
C1146 C1148 1.378 . S
C1146 C1150 1.350 . S
C1147 C1150 1.463 . S
C1147 C1152 1.350 . S
C1147 N1155 1.427 . S
C1148 H1139 0.930 . S
C1148 C1146 1.378 . S
C1148 C1149 1.367 . S
C1149 C1148 1.367 . S
C1149 C1151 1.433 . S
C1150 C1146 1.350 . S
C1150 C1147 1.463 . S
C1150 N1154 1.427 . S
C1151 H1141 0.929 . S
C1151 C1149 1.433 . S
C1151 N1154 1.384 . S
C1152 H1143 0.929 . S
C1152 C1144 1.378 . S
C1152 C1147 1.350 . S
C1153 H1140 0.929 . S
C1153 C1145 1.433 . S
C1153 N1155 1.384 . S
N1154 C1150 1.427 . S
N1154 C1151 1.384 . S
N1155 C1147 1.427 . S
N1155 C1153 1.384 . S
H1156 C1162 0.930 . S
H1157 C1166 0.930 . S
H1158 C1171 0.929 . S
H1159 C1169 0.929 . S
H1160 C1164 0.929 . S
H1161 C1170 0.929 . S
C1162 H1156 0.930 . S
C1162 C1163 1.367 1_554 S
C1162 C1170 1.378 . S
C1163 C1162 1.367 1_556 S
C1163 C1171 1.433 . S
C1164 H1160 0.929 . S
C1164 C1166 1.378 . S
C1164 C1168 1.350 . S
C1165 C1168 1.463 . S
C1165 C1170 1.350 1_556 S
C1165 N1173 1.427 . S
C1166 H1157 0.930 . S
C1166 C1164 1.378 . S
C1166 C1167 1.367 . S
C1167 C1166 1.367 . S
C1167 C1169 1.433 1_556 S
C1168 C1164 1.350 . S
C1168 C1165 1.463 . S
C1168 N1172 1.427 1_556 S
C1169 H1159 0.929 . S
C1169 C1167 1.433 1_554 S
C1169 N1172 1.384 . S
C1170 H1161 0.929 . S
C1170 C1162 1.378 . S
C1170 C1165 1.350 1_554 S
C1171 H1158 0.929 . S
C1171 C1163 1.433 . S
C1171 N1173 1.384 . S
N1172 C1168 1.427 1_554 S
N1172 C1169 1.384 . S
N1173 C1165 1.427 . S
N1173 C1171 1.384 . S
H1174 C1180 0.930 . S
H1175 C1184 0.930 . S
H1176 C1189 0.929 . S
H1177 C1187 0.929 . S
H1178 C1182 0.929 . S
H1179 C1188 0.929 . S
C1180 H1174 0.930 . S
C1180 C1181 1.367 . S
C1180 C1188 1.378 . S
C1181 C1180 1.367 . S
C1181 C1189 1.433 . S
C1182 H1178 0.929 . S
C1182 C1184 1.378 . S
C1182 C1186 1.350 . S
C1183 C1186 1.463 . S
C1183 C1188 1.350 . S
C1183 N1191 1.427 . S
C1184 H1175 0.930 . S
C1184 C1182 1.378 . S
C1184 C1185 1.367 . S
C1185 C1184 1.367 . S
C1185 C1187 1.433 . S
C1186 C1182 1.350 . S
C1186 C1183 1.463 . S
C1186 N1190 1.427 . S
C1187 H1177 0.929 . S
C1187 C1185 1.433 . S
C1187 N1190 1.384 . S
C1188 H1179 0.929 . S
C1188 C1180 1.378 . S
C1188 C1183 1.350 . S
C1189 H1176 0.929 . S
C1189 C1181 1.433 . S
C1189 N1191 1.384 . S
N1190 C1186 1.427 . S
N1190 C1187 1.384 . S
N1191 C1183 1.427 . S
N1191 C1189 1.384 . S
H1192 C1198 0.930 . S
H1193 C1202 0.930 . S
H1194 C1207 0.929 . S
H1195 C1205 0.929 . S
H1196 C1200 0.929 . S
H1197 C1206 0.951 . S
C1198 H1192 0.930 . S
C1198 C1199 1.367 . S
C1198 C1206 1.378 . S
C1199 C1198 1.367 . S
C1199 C1207 1.433 . S
C1200 H1196 0.929 . S
C1200 C1202 1.378 . S
C1200 C1204 1.350 . S
C1201 C1204 1.463 . S
C1201 C1206 1.350 . S
C1201 N1209 1.427 . S
C1202 H1193 0.930 . S
C1202 C1200 1.378 . S
C1202 C1203 1.367 . S
C1203 C1202 1.367 . S
C1203 C1205 1.433 1_554 S
C1204 C1200 1.350 . S
C1204 C1201 1.463 . S
C1204 N1208 1.427 . S
C1205 H1195 0.929 . S
C1205 C1203 1.433 1_556 S
C1205 N1208 1.384 1_556 S
C1206 H1197 0.951 . S
C1206 C1198 1.378 . S
C1206 C1201 1.350 . S
C1207 H1194 0.929 . S
C1207 C1199 1.433 . S
C1207 N1209 1.384 . S
N1208 C1204 1.427 . S
N1208 C1205 1.384 1_554 S
N1209 C1201 1.427 . S
N1209 C1207 1.384 . S
H1210 C1216 0.934 . S
H1211 C1220 0.930 . S
H1212 C1225 0.929 . S
H1213 C1223 0.929 . S
H1214 C1218 0.929 . S
H1215 C1224 0.929 . S
C1216 H1210 0.934 . S
C1216 C1217 1.366 1_545 S
C1216 C1224 1.375 1_545 S
C1217 C1216 1.366 1_565 S
C1217 C1225 1.433 . S
C1218 H1214 0.929 . S
C1218 C1220 1.378 . S
C1218 C1222 1.350 . S
C1219 C1222 1.463 . S
C1219 C1224 1.350 . S
C1219 N1227 1.427 . S
C1220 H1211 0.930 . S
C1220 C1218 1.378 . S
C1220 C1221 1.367 . S
C1221 C1220 1.367 . S
C1221 C1223 1.433 . S
C1222 C1218 1.350 . S
C1222 C1219 1.463 . S
C1222 N1226 1.427 . S
C1223 H1213 0.929 . S
C1223 C1221 1.433 . S
C1223 N1226 1.384 . S
C1224 H1215 0.929 . S
C1224 C1216 1.375 1_565 S
C1224 C1219 1.350 . S
C1225 H1212 0.929 . S
C1225 C1217 1.433 . S
C1225 N1227 1.384 . S
N1226 C1222 1.427 . S
N1226 C1223 1.384 . S
N1227 C1219 1.427 . S
N1227 C1225 1.384 . S
C375 C218 1.210 . S
C371 N66 1.186 . S
C393 C231 1.643 . S
C389 N79 1.633 . S
C407 N92 1.748 . S
C411 C244 1.765 . S
C429 C257 1.368 . S
C425 N54 1.389 . S
C447 C265 1.485 . S
C443 N131 1.487 . S
C465 C278 1.130 . S
C461 N158 1.138 . S
C479 N145 1.563 . S
C483 C291 1.543 . S
C501 C304 1.717 . S
C497 N118 1.731 . S
C515 N148 1.858 . S
C519 C322 1.832 . S
C537 C333 1.583 . S
C533 N122 1.612 . S
C551 N132 1.212 . S
C555 C317 1.189 . S
C573 C325 1.452 . S
C569 N161 1.437 . S
C587 N96 1.879 . S
C591 C348 1.894 . S
C605 N53 1.698 . S
C609 C338 1.676 . S
C623 N67 1.101 . S
C627 C343 1.083 . S
C641 N83 1.407 . S
C645 C346 1.397 . S
C659 N44 1.381 . S
C663 C255 1.371 . S
C677 N187 1.428 . S
C681 C247 1.430 . S
C699 C216 1.236 . S
C695 N197 1.269 . S
C717 C221 1.320 . S
C713 N106 1.334 . S
C731 N57 1.823 1_545 S
C735 C268 1.781 . S
C753 C307 1.447 . S
C749 N144 1.459 . S
C771 C260 1.395 . S
C767 N119 1.407 . S
C789 C286 1.704 . S
C785 N157 1.720 . S
C807 C296 1.206 . S
C803 N183 1.187 . S
C821 N196 1.632 . S
C825 C309 1.643 . S
C839 N105 1.757 . S
C843 C270 1.762 . S
C861 C283 1.371 . S
C857 N171 1.386 . S
C875 N40 1.487 . S
C879 C239 1.487 . S
C897 C252 1.129 . S
C893 N2 1.164 . S
C915 C213 1.546 . S
C911 N15 1.567 . S
C933 C226 1.719 . S
C929 N27 1.731 1_455 S
C947 N18 1.859 . S
C951 C335 1.832 . S
C965 N31 1.612 . S
C969 C320 1.583 1_655 S
C983 N41 1.209 . S
C987 C330 1.179 . S
C1001 N5 1.443 . S
C1005 C312 1.459 1_455 S
C1023 C361 1.896 . S
C1019 N109 1.875 . S
C1041 C351 1.675 . S
C1037 N170 1.697 . S
C1059 C356 1.068 . S
C1055 N184 1.099 . S
C1073 N200 1.402 . S
C1077 C359 1.397 . S
C1091 N135 1.380 . S
C1095 C281 1.369 . S
C1113 C273 1.433 . S
C1109 N70 1.431 . S
C1131 C294 1.246 . S
C1127 N80 1.268 . S
C1149 C299 1.313 . S
C1145 N93 1.334 . S
C1163 N174 1.823 . S
C1167 C242 1.780 . S
C1185 C229 1.449 . S
C1181 N14 1.457 . S
C1199 N28 1.406 . S
C1203 C234 1.398 . S
C1221 C208 1.701 . S
C1217 N1 1.724 1_565 S
