# Generated by pormake.
# Topology eea, (3,6)-cn, num edge types: 1
# Building blocks:
#     Node 0, Type 0, BuildingBlock: QEWDON_clean_linker_0, # of connection points: 3
#     Node 1, Type 0, BuildingBlock: QEWDON_clean_linker_0, # of connection points: 3
#     Node 2, Type 0, BuildingBlock: QEWDON_clean_linker_0, # of connection points: 3
#     Node 3, Type 0, BuildingBlock: QEWDON_clean_linker_0, # of connection points: 3
#     Node 4, Type 0, BuildingBlock: QEWDON_clean_linker_0, # of connection points: 3
#     Node 5, Type 0, BuildingBlock: QEWDON_clean_linker_0, # of connection points: 3
#     Node 6, Type 0, BuildingBlock: QEWDON_clean_linker_0, # of connection points: 3
#     Node 7, Type 0, BuildingBlock: QEWDON_clean_linker_0, # of connection points: 3
#     Node 8, Type 0, BuildingBlock: QEWDON_clean_linker_0, # of connection points: 3
#     Node 9, Type 0, BuildingBlock: QEWDON_clean_linker_0, # of connection points: 3
#     Node 10, Type 0, BuildingBlock: QEWDON_clean_linker_0, # of connection points: 3
#     Node 11, Type 0, BuildingBlock: QEWDON_clean_linker_0, # of connection points: 3
#     Node 12, Type 0, BuildingBlock: QEWDON_clean_linker_0, # of connection points: 3
#     Node 13, Type 0, BuildingBlock: QEWDON_clean_linker_0, # of connection points: 3
#     Node 14, Type 0, BuildingBlock: QEWDON_clean_linker_0, # of connection points: 3
#     Node 15, Type 0, BuildingBlock: QEWDON_clean_linker_0, # of connection points: 3
#     Node 16, Type 0, BuildingBlock: QEWDON_clean_linker_0, # of connection points: 3
#     Node 17, Type 0, BuildingBlock: QEWDON_clean_linker_0, # of connection points: 3
#     Node 18, Type 1, BuildingBlock: CUKXOW_clean_sbu_0, # of connection points: 6
#     Node 19, Type 1, BuildingBlock: CUKXOW_clean_sbu_0, # of connection points: 6
#     Node 20, Type 1, BuildingBlock: CUKXOW_clean_sbu_0, # of connection points: 6
#     Node 21, Type 1, BuildingBlock: CUKXOW_clean_sbu_0, # of connection points: 6
#     Node 22, Type 1, BuildingBlock: CUKXOW_clean_sbu_0, # of connection points: 6
#     Node 23, Type 1, BuildingBlock: CUKXOW_clean_sbu_0, # of connection points: 6
#     Node 24, Type 1, BuildingBlock: CUKXOW_clean_sbu_0, # of connection points: 6
#     Node 25, Type 1, BuildingBlock: CUKXOW_clean_sbu_0, # of connection points: 6
#     Node 26, Type 1, BuildingBlock: CUKXOW_clean_sbu_0, # of connection points: 6
#     Edge 27, Type (0, 1), BuildingBlock: XIVTED_clean_linker_0, # of connection points: 2
#     Edge 28, Type (0, 1), BuildingBlock: XIVTED_clean_linker_0, # of connection points: 2
#     Edge 29, Type (0, 1), BuildingBlock: XIVTED_clean_linker_0, # of connection points: 2
#     Edge 30, Type (0, 1), BuildingBlock: XIVTED_clean_linker_0, # of connection points: 2
#     Edge 31, Type (0, 1), BuildingBlock: XIVTED_clean_linker_0, # of connection points: 2
#     Edge 32, Type (0, 1), BuildingBlock: XIVTED_clean_linker_0, # of connection points: 2
#     Edge 33, Type (0, 1), BuildingBlock: XIVTED_clean_linker_0, # of connection points: 2
#     Edge 34, Type (0, 1), BuildingBlock: XIVTED_clean_linker_0, # of connection points: 2
#     Edge 35, Type (0, 1), BuildingBlock: XIVTED_clean_linker_0, # of connection points: 2
#     Edge 36, Type (0, 1), BuildingBlock: XIVTED_clean_linker_0, # of connection points: 2
#     Edge 37, Type (0, 1), BuildingBlock: XIVTED_clean_linker_0, # of connection points: 2
#     Edge 38, Type (0, 1), BuildingBlock: XIVTED_clean_linker_0, # of connection points: 2
#     Edge 39, Type (0, 1), BuildingBlock: XIVTED_clean_linker_0, # of connection points: 2
#     Edge 40, Type (0, 1), BuildingBlock: XIVTED_clean_linker_0, # of connection points: 2
#     Edge 41, Type (0, 1), BuildingBlock: XIVTED_clean_linker_0, # of connection points: 2
#     Edge 42, Type (0, 1), BuildingBlock: XIVTED_clean_linker_0, # of connection points: 2
#     Edge 43, Type (0, 1), BuildingBlock: XIVTED_clean_linker_0, # of connection points: 2
#     Edge 44, Type (0, 1), BuildingBlock: XIVTED_clean_linker_0, # of connection points: 2
#     Edge 45, Type (0, 1), BuildingBlock: XIVTED_clean_linker_0, # of connection points: 2
#     Edge 46, Type (0, 1), BuildingBlock: XIVTED_clean_linker_0, # of connection points: 2
#     Edge 47, Type (0, 1), BuildingBlock: XIVTED_clean_linker_0, # of connection points: 2
#     Edge 48, Type (0, 1), BuildingBlock: XIVTED_clean_linker_0, # of connection points: 2
#     Edge 49, Type (0, 1), BuildingBlock: XIVTED_clean_linker_0, # of connection points: 2
#     Edge 50, Type (0, 1), BuildingBlock: XIVTED_clean_linker_0, # of connection points: 2
#     Edge 51, Type (0, 1), BuildingBlock: XIVTED_clean_linker_0, # of connection points: 2
#     Edge 52, Type (0, 1), BuildingBlock: XIVTED_clean_linker_0, # of connection points: 2
#     Edge 53, Type (0, 1), BuildingBlock: XIVTED_clean_linker_0, # of connection points: 2
#     Edge 54, Type (0, 1), BuildingBlock: XIVTED_clean_linker_0, # of connection points: 2
#     Edge 55, Type (0, 1), BuildingBlock: XIVTED_clean_linker_0, # of connection points: 2
#     Edge 56, Type (0, 1), BuildingBlock: XIVTED_clean_linker_0, # of connection points: 2
#     Edge 57, Type (0, 1), BuildingBlock: XIVTED_clean_linker_0, # of connection points: 2
#     Edge 58, Type (0, 1), BuildingBlock: XIVTED_clean_linker_0, # of connection points: 2
#     Edge 59, Type (0, 1), BuildingBlock: XIVTED_clean_linker_0, # of connection points: 2
#     Edge 60, Type (0, 1), BuildingBlock: XIVTED_clean_linker_0, # of connection points: 2
#     Edge 61, Type (0, 1), BuildingBlock: XIVTED_clean_linker_0, # of connection points: 2
#     Edge 62, Type (0, 1), BuildingBlock: XIVTED_clean_linker_0, # of connection points: 2
#     Edge 63, Type (0, 1), BuildingBlock: XIVTED_clean_linker_0, # of connection points: 2
#     Edge 64, Type (0, 1), BuildingBlock: XIVTED_clean_linker_0, # of connection points: 2
#     Edge 65, Type (0, 1), BuildingBlock: XIVTED_clean_linker_0, # of connection points: 2
#     Edge 66, Type (0, 1), BuildingBlock: XIVTED_clean_linker_0, # of connection points: 2
#     Edge 67, Type (0, 1), BuildingBlock: XIVTED_clean_linker_0, # of connection points: 2
#     Edge 68, Type (0, 1), BuildingBlock: XIVTED_clean_linker_0, # of connection points: 2
#     Edge 69, Type (0, 1), BuildingBlock: XIVTED_clean_linker_0, # of connection points: 2
#     Edge 70, Type (0, 1), BuildingBlock: XIVTED_clean_linker_0, # of connection points: 2
#     Edge 71, Type (0, 1), BuildingBlock: XIVTED_clean_linker_0, # of connection points: 2
#     Edge 72, Type (0, 1), BuildingBlock: XIVTED_clean_linker_0, # of connection points: 2
#     Edge 73, Type (0, 1), BuildingBlock: XIVTED_clean_linker_0, # of connection points: 2
#     Edge 74, Type (0, 1), BuildingBlock: XIVTED_clean_linker_0, # of connection points: 2
#     Edge 75, Type (0, 1), BuildingBlock: XIVTED_clean_linker_0, # of connection points: 2
#     Edge 76, Type (0, 1), BuildingBlock: XIVTED_clean_linker_0, # of connection points: 2
#     Edge 77, Type (0, 1), BuildingBlock: XIVTED_clean_linker_0, # of connection points: 2
#     Edge 78, Type (0, 1), BuildingBlock: XIVTED_clean_linker_0, # of connection points: 2
#     Edge 79, Type (0, 1), BuildingBlock: XIVTED_clean_linker_0, # of connection points: 2
#     Edge 80, Type (0, 1), BuildingBlock: XIVTED_clean_linker_0, # of connection points: 2
# Relax obj value: 0.053
# Max RMSD: 0.210
# Mean RMSD: 0.124
data_MOF--net-eea--node1-CUKXOW_clean_sbu_0--node2-QEWDON_clean_linker_0--edge1-XIVTED_clean_linker_0
_symmetry_space_group_name_H-M    P1
_symmetry_Int_Tables_number       1
_symmetry_cell_setting            triclinic
loop_
_symmetry_equiv_pos_as_xyz
'x, y, z'
_cell_length_a     64.333625
_cell_length_b     60.619367
_cell_length_c     47.172696
_cell_angle_alpha  93.326796
_cell_angle_beta   93.471702
_cell_angle_gamma 119.96892
loop_
_atom_site_label
_atom_site_type_symbol
_atom_site_fract_x
_atom_site_fract_y
_atom_site_fract_z
_atom_type_partial_charge
H0 H 0.23375 0.13659 0.43972 0.0
C1 C 0.23099 0.11856 0.43004 0.0
C2 C 0.2437 0.10754 0.44248 0.0
C3 C 0.21419 0.10591 0.40568 0.0
H4 H 0.24731 0.07385 0.44093 0.0
C5 C 0.23883 0.08335 0.43074 0.0
C6 C 0.22263 0.07082 0.4063 0.0
C7 C 0.211 0.08249 0.39338 0.0
C8 C 0.19822 0.11549 0.39449 0.0
H9 H 0.19854 0.07259 0.3744 0.0
C10 C 0.20638 0.14193 0.39432 0.0
C11 C 0.19039 0.15003 0.38448 0.0
C12 C 0.17391 0.09769 0.38471 0.0
H13 H 0.16663 0.07733 0.3854 0.0
C14 C 0.15833 0.1058 0.37455 0.0
H15 H 0.22486 0.1561 0.40196 0.0
C16 C 0.16647 0.13178 0.37446 0.0
H17 H 0.15394 0.13772 0.36696 0.0
H18 H 0.13974 0.09187 0.36714 0.0
H19 H 0.87701 0.09768 0.44034 0.0
C20 C 0.8927 0.11351 0.4331 0.0
C21 C 0.90496 0.13722 0.45015 0.0
C22 C 0.90064 0.11008 0.40692 0.0
H23 H 0.93642 0.17514 0.45481 0.0
C24 C 0.92599 0.15741 0.44106 0.0
C25 C 0.93413 0.15451 0.41486 0.0
C26 C 0.92071 0.13116 0.3976 0.0
C27 C 0.88888 0.08449 0.38962 0.0
H28 H 0.92607 0.12942 0.37666 0.0
C29 C 0.86409 0.06637 0.38974 0.0
C30 C 0.85362 0.04257 0.37314 0.0
C31 C 0.90283 0.0778 0.37302 0.0
H32 H 0.92208 0.09041 0.37321 0.0
C33 C 0.8923 0.05442 0.35621 0.0
H34 H 0.85276 0.07066 0.40227 0.0
C35 C 0.86782 0.03695 0.35611 0.0
H36 H 0.86008 0.01865 0.34335 0.0
H37 H 0.90326 0.04969 0.34352 0.0
H38 H 0.91472 0.78046 0.46627 0.0
C39 C 0.89916 0.78107 0.45714 0.0
C40 C 0.87613 0.76442 0.46524 0.0
C41 C 0.90231 0.79922 0.43814 0.0
H42 H 0.8388 0.75432 0.46155 0.0
C43 C 0.85625 0.76611 0.45401 0.0
C44 C 0.85905 0.78404 0.43475 0.0
C45 C 0.88216 0.80009 0.42655 0.0
C46 C 0.92671 0.81878 0.43188 0.0
H47 H 0.8847 0.81368 0.41126 0.0
C48 C 0.94323 0.8119 0.4224 0.0
C49 C 0.96563 0.83075 0.41468 0.0
C50 C 0.93323 0.84474 0.43462 0.0
H51 H 0.92094 0.85054 0.44222 0.0
C52 C 0.95562 0.86346 0.42762 0.0
H53 H 0.93828 0.79192 0.41991 0.0
C54 C 0.97168 0.85655 0.4175 0.0
H55 H 0.98892 0.87139 0.41196 0.0
H56 H 0.96046 0.88338 0.42981 0.0
H57 H 0.12809 0.22807 0.56782 0.0
C58 C 0.11462 0.22996 0.57872 0.0
C59 C 0.1091 0.24885 0.5719 0.0
C60 C 0.10192 0.21264 0.59833 0.0
H61 H 0.08635 0.26478 0.5796 0.0
C62 C 0.09107 0.25066 0.58535 0.0
C63 C 0.07804 0.23332 0.60477 0.0
C64 C 0.08383 0.21463 0.61145 0.0
C65 C 0.10599 0.19106 0.60314 0.0
H66 H 0.07354 0.20086 0.62598 0.0
C67 C 0.12951 0.19507 0.60754 0.0
C68 C 0.13322 0.17436 0.61108 0.0
C69 C 0.0862 0.16608 0.60249 0.0
H70 H 0.0679 0.16236 0.59871 0.0
C71 C 0.08982 0.14553 0.60606 0.0
H72 H 0.14489 0.21424 0.60805 0.0
C73 C 0.11315 0.14957 0.61026 0.0
H74 H 0.11551 0.13334 0.61321 0.0
H75 H 0.07447 0.12637 0.60546 0.0
H76 H 0.79148 0.90597 0.58673 0.0
C77 C 0.79147 0.88955 0.59461 0.0
C78 C 0.77439 0.86461 0.58241 0.0
C79 C 0.80938 0.89362 0.61616 0.0
H80 H 0.76162 0.82442 0.58448 0.0
C81 C 0.77469 0.84365 0.59353 0.0
C82 C 0.79218 0.84731 0.61566 0.0
C83 C 0.80956 0.87248 0.62653 0.0
C84 C 0.82929 0.91994 0.62613 0.0
H85 H 0.82381 0.87585 0.64268 0.0
C86 C 0.82469 0.93972 0.63431 0.0
C87 C 0.84391 0.96457 0.64379 0.0
C88 C 0.85327 0.92533 0.62711 0.0
H89 H 0.85733 0.91059 0.62051 0.0
C90 C 0.87231 0.94989 0.63606 0.0
H91 H 0.80622 0.93558 0.63396 0.0
C92 C 0.86774 0.96937 0.64428 0.0
H93 H 0.88298 0.98835 0.65068 0.0
H94 H 0.89072 0.95388 0.63647 0.0
H95 H 0.09819 0.87946 0.5741 0.0
C96 C 0.11543 0.89421 0.58482 0.0
C97 C 0.13637 0.90263 0.57066 0.0
C98 C 0.11656 0.90662 0.61164 0.0
H99 H 0.17436 0.93025 0.57228 0.0
C100 C 0.15837 0.92313 0.58359 0.0
C101 C 0.15985 0.9354 0.61027 0.0
C102 C 0.13915 0.92647 0.62463 0.0
C103 C 0.0942 0.90217 0.62423 0.0
H104 H 0.14032 0.93638 0.64508 0.0
C105 C 0.07399 0.87741 0.62482 0.0
C106 C 0.0532 0.87431 0.63695 0.0
C107 C 0.09305 0.92355 0.63542 0.0
H108 H 0.10778 0.94285 0.63444 0.0
C109 C 0.07286 0.92051 0.64779 0.0
H110 H 0.07442 0.86079 0.61588 0.0
C111 C 0.05321 0.89619 0.64881 0.0
H112 H 0.03798 0.89456 0.65912 0.0
H113 H 0.07241 0.93714 0.65664 0.0
H114 H 0.88837 0.4587 0.78137 0.0
C115 C 0.88846 0.44308 0.76909 0.0
C116 C 0.90123 0.43187 0.78073 0.0
C117 C 0.87406 0.43265 0.74276 0.0
H118 H 0.90951 0.40163 0.7742 0.0
C119 C 0.90008 0.41065 0.76521 0.0
C120 C 0.88571 0.39996 0.73907 0.0
C121 C 0.87323 0.41143 0.72776 0.0
C122 C 0.85726 0.4413 0.73252 0.0
H123 H 0.86214 0.40326 0.70752 0.0
C124 C 0.86462 0.46749 0.73244 0.0
C125 C 0.84786 0.47475 0.72318 0.0
C126 C 0.83311 0.42276 0.72321 0.0
H127 H 0.82677 0.40254 0.72356 0.0
C128 C 0.81668 0.43001 0.71384 0.0
H129 H 0.88307 0.48204 0.73968 0.0
C130 C 0.82395 0.45581 0.71386 0.0
H131 H 0.81084 0.46105 0.70663 0.0
H132 H 0.79817 0.41557 0.70677 0.0
H133 H 0.54388 0.43396 0.77647 0.0
C134 C 0.55783 0.4498 0.76678 0.0
C135 C 0.56529 0.47509 0.77736 0.0
C136 C 0.56926 0.44484 0.74496 0.0
H137 H 0.58986 0.515 0.77372 0.0
C138 C 0.58392 0.49553 0.76527 0.0
C139 C 0.59578 0.49095 0.74353 0.0
C140 C 0.58809 0.46548 0.7334 0.0
C141 C 0.56372 0.41832 0.7367 0.0
H142 H 0.59749 0.46157 0.71732 0.0
C143 C 0.53982 0.39812 0.72915 0.0
C144 C 0.53505 0.373 0.72158 0.0
C145 C 0.58271 0.41314 0.73701 0.0
H146 H 0.60118 0.42823 0.74314 0.0
C147 C 0.57808 0.38836 0.73009 0.0
H148 H 0.52517 0.40211 0.72853 0.0
C149 C 0.55451 0.36844 0.72254 0.0
H150 H 0.55156 0.34934 0.71779 0.0
H151 H 0.59282 0.38453 0.73075 0.0
H152 H 0.58422 0.11164 0.80022 0.0
C153 C 0.56862 0.11157 0.79002 0.0
C154 C 0.54539 0.09429 0.7971 0.0
C155 C 0.57185 0.12953 0.77073 0.0
H156 H 0.50777 0.08288 0.79134 0.0
C157 C 0.52543 0.09514 0.78456 0.0
C158 C 0.52835 0.1129 0.76506 0.0
C159 C 0.55166 0.12963 0.75788 0.0
C160 C 0.59629 0.1498 0.76556 0.0
H161 H 0.55432 0.14318 0.74251 0.0
C162 C 0.61348 0.14379 0.7565 0.0
C163 C 0.6359 0.16331 0.74961 0.0
C164 C 0.6021 0.17552 0.76874 0.0
H165 H 0.58924 0.18062 0.77598 0.0
C166 C 0.62451 0.19491 0.76261 0.0
H167 H 0.60905 0.12398 0.75365 0.0
C168 C 0.64127 0.18887 0.75289 0.0
H169 H 0.6585 0.20422 0.74798 0.0
H170 H 0.62882 0.21465 0.76514 0.0
H171 H 0.78622 0.5604 0.89972 0.0
C172 C 0.77361 0.5631 0.91158 0.0
C173 C 0.7665 0.58049 0.90334 0.0
C174 C 0.76379 0.54851 0.93433 0.0
H175 H 0.74231 0.59471 0.90974 0.0
C176 C 0.74894 0.5827 0.91759 0.0
C177 C 0.73881 0.56812 0.94039 0.0
C178 C 0.74742 0.55217 0.9494 0.0
C179 C 0.76837 0.52749 0.94079 0.0
H180 H 0.74077 0.54173 0.96776 0.0
C181 C 0.79162 0.53057 0.94136 0.0
C182 C 0.79539 0.51029 0.94779 0.0
C183 C 0.74891 0.50376 0.94614 0.0
H184 H 0.73072 0.50053 0.94513 0.0
C185 C 0.75255 0.48379 0.95266 0.0
H186 H 0.80667 0.54866 0.93695 0.0
C187 C 0.77557 0.48703 0.95371 0.0
H188 H 0.77783 0.47129 0.95958 0.0
H189 H 0.73747 0.46574 0.95703 0.0
H190 H 0.45208 0.23557 0.91647 0.0
C191 C 0.45251 0.22022 0.92667 0.0
C192 C 0.43637 0.1945 0.91604 0.0
C193 C 0.47052 0.22637 0.94899 0.0
H194 H 0.42632 0.15513 0.92029 0.0
C195 C 0.43832 0.17494 0.92856 0.0
C196 C 0.45635 0.18088 0.95096 0.0
C197 C 0.472 0.20664 0.96129 0.0
C198 C 0.48968 0.2533 0.95741 0.0
H199 H 0.48586 0.21152 0.97868 0.0
C200 C 0.48417 0.27244 0.96536 0.0
C201 C 0.50287 0.2977 0.97425 0.0
C202 C 0.51394 0.25979 0.95767 0.0
H203 H 0.51862 0.24548 0.95131 0.0
C204 C 0.53242 0.2848 0.96579 0.0
H205 H 0.4655 0.26748 0.9655 0.0
C206 C 0.52699 0.30362 0.97405 0.0
H207 H 0.54177 0.32295 0.98007 0.0
H208 H 0.55105 0.28963 0.96571 0.0
H209 H 0.76814 0.21417 0.8955 0.0
C210 C 0.78307 0.22914 0.90971 0.0
C211 C 0.80686 0.2391 0.90264 0.0
C212 C 0.77839 0.24019 0.93369 0.0
H213 H 0.84422 0.26737 0.91496 0.0
C214 C 0.82591 0.25939 0.92061 0.0
C215 C 0.82149 0.27075 0.94447 0.0
C216 C 0.79761 0.26085 0.95096 0.0
C217 C 0.75346 0.23343 0.93825 0.0
H218 H 0.79381 0.26979 0.96893 0.0
C219 C 0.73731 0.21014 0.94852 0.0
C220 C 0.71449 0.20551 0.9552 0.0
C221 C 0.74636 0.25152 0.93375 0.0
H222 H 0.75859 0.26954 0.92586 0.0
C223 C 0.72357 0.24665 0.93962 0.0
H224 H 0.74282 0.19626 0.95242 0.0
C225 C 0.70778 0.22391 0.95048 0.0
H226 H 0.69025 0.22065 0.95524 0.0
H227 H 0.71824 0.26071 0.9361 0.0
H228 H 0.55958 0.79665 0.10927 0.0
C229 C 0.56055 0.78101 0.09836 0.0
C230 C 0.57145 0.76925 0.11321 0.0
C231 C 0.54909 0.77109 0.07036 0.0
H232 H 0.57871 0.73799 0.11099 0.0
C233 C 0.57099 0.7477 0.09965 0.0
C234 C 0.55998 0.7379 0.07184 0.0
C235 C 0.54992 0.75018 0.05696 0.0
C236 C 0.53325 0.77969 0.05644 0.0
H237 H 0.54118 0.74218 0.03553 0.0
C238 C 0.53938 0.80565 0.05858 0.0
C239 C 0.52328 0.81259 0.04604 0.0
C240 C 0.51089 0.76114 0.04163 0.0
H241 H 0.50509 0.74095 0.04035 0.0
C242 C 0.4953 0.76816 0.02885 0.0
H243 H 0.55627 0.82026 0.07014 0.0
C244 C 0.50139 0.79368 0.03106 0.0
H245 H 0.48883 0.79871 0.02131 0.0
H246 H 0.47823 0.75368 0.01757 0.0
H247 H 0.21226 0.76882 0.11442 0.0
C248 C 0.22626 0.78427 0.10434 0.0
C249 C 0.23611 0.80959 0.11657 0.0
C250 C 0.23499 0.77883 0.07992 0.0
H251 H 0.26378 0.84884 0.11554 0.0
C252 C 0.25543 0.82962 0.10487 0.0
C253 C 0.26476 0.82457 0.08064 0.0
C254 C 0.25352 0.79924 0.06768 0.0
C255 C 0.22675 0.75189 0.06877 0.0
H256 H 0.25963 0.79518 0.04821 0.0
C257 C 0.20244 0.73217 0.06812 0.0
C258 C 0.19563 0.70666 0.05917 0.0
C259 C 0.24384 0.74559 0.05987 0.0
H260 H 0.26275 0.76001 0.06075 0.0
C261 C 0.23697 0.72046 0.05048 0.0
H262 H 0.18898 0.73649 0.07498 0.0
C263 C 0.21308 0.70109 0.05024 0.0
H264 H 0.20819 0.68162 0.04314 0.0
H265 H 0.25031 0.71591 0.04376 0.0
H266 H 0.24466 0.43999 0.12775 0.0
C267 C 0.22933 0.44083 0.11824 0.0
C268 C 0.2063 0.42512 0.12684 0.0
C269 C 0.23287 0.45853 0.09849 0.0
H270 H 0.16929 0.41601 0.12305 0.0
C271 C 0.18673 0.4271 0.11519 0.0
C272 C 0.1899 0.44463 0.09525 0.0
C273 C 0.21306 0.45996 0.08672 0.0
C274 C 0.25756 0.47739 0.09234 0.0
H275 H 0.21592 0.47342 0.07117 0.0
C276 C 0.27384 0.46959 0.08444 0.0
C277 C 0.29753 0.48794 0.08003 0.0
C278 C 0.26517 0.50363 0.09542 0.0
H279 H 0.25303 0.51011 0.10173 0.0
C280 C 0.28871 0.52181 0.09112 0.0
H281 H 0.26817 0.44942 0.08186 0.0
C282 C 0.30489 0.51405 0.08362 0.0
H283 H 0.3231 0.52842 0.08031 0.0
H284 H 0.29447 0.54198 0.09375 0.0
H285 H 0.45352 0.88983 0.2327 0.0
C286 C 0.44037 0.89242 0.2435 0.0
C287 C 0.43593 0.91212 0.23688 0.0
C288 C 0.42707 0.87529 0.26293 0.0
H289 H 0.41476 0.92988 0.24507 0.0
C290 C 0.41849 0.91498 0.25051 0.0
C291 C 0.40489 0.89786 0.26984 0.0
C292 C 0.40948 0.87822 0.27608 0.0
C293 C 0.43022 0.85321 0.2681 0.0
H294 H 0.39875 0.86455 0.29048 0.0
C295 C 0.45331 0.85664 0.27494 0.0
C296 C 0.45598 0.83572 0.2812 0.0
C297 C 0.4099 0.82852 0.26671 0.0
H298 H 0.39196 0.82533 0.26109 0.0
C299 C 0.41253 0.80768 0.27235 0.0
H300 H 0.46905 0.87567 0.27648 0.0
C301 C 0.43539 0.81122 0.27972 0.0
H302 H 0.437 0.79477 0.28416 0.0
H303 H 0.39679 0.78873 0.27117 0.0
H304 H 0.12012 0.5706 0.25083 0.0
C305 C 0.11957 0.55481 0.26113 0.0
C306 C 0.1015 0.5295 0.25171 0.0
C307 C 0.13813 0.55986 0.28223 0.0
H308 H 0.08725 0.48984 0.25825 0.0
C309 C 0.10167 0.50924 0.26473 0.0
C310 C 0.12033 0.51381 0.28567 0.0
C311 C 0.13848 0.53933 0.29418 0.0
C312 C 0.1585 0.5864 0.28981 0.0
H313 H 0.15346 0.5434 0.30956 0.0
C314 C 0.1545 0.60673 0.29749 0.0
C315 C 0.17416 0.63182 0.30481 0.0
C316 C 0.18227 0.59145 0.28905 0.0
H317 H 0.18581 0.57624 0.28286 0.0
C318 C 0.20169 0.61621 0.29571 0.0
H319 H 0.13621 0.60285 0.2985 0.0
C320 C 0.19774 0.63624 0.30347 0.0
H321 H 0.21325 0.65532 0.30814 0.0
H322 H 0.21992 0.61993 0.29475 0.0
H323 H 0.43195 0.5454 0.23603 0.0
C324 C 0.44822 0.56079 0.24797 0.0
C325 C 0.47093 0.56529 0.24121 0.0
C326 C 0.44647 0.57681 0.26922 0.0
H327 H 0.50936 0.58897 0.25136 0.0
C328 C 0.49191 0.58555 0.25663 0.0
C329 C 0.49058 0.60214 0.27763 0.0
C330 C 0.46767 0.59738 0.28379 0.0
C331 C 0.4227 0.57346 0.27515 0.0
H332 H 0.46616 0.61016 0.29943 0.0
C333 C 0.40332 0.54938 0.2799 0.0
C334 C 0.38141 0.54691 0.28761 0.0
C335 C 0.41969 0.5949 0.2771 0.0
H336 H 0.43411 0.61354 0.27305 0.0
C337 C 0.39814 0.59262 0.28449 0.0
H338 H 0.40554 0.5328 0.27802 0.0
C339 C 0.37929 0.56899 0.29005 0.0
H340 H 0.36321 0.56827 0.29683 0.0
H341 H 0.39616 0.60934 0.28632 0.0
Tb342 Tb 0.52503 0.02489 0.02423 0.0
C343 C 0.50819 0.96554 0.0214 0.0
Tb344 Tb 0.4704 0.98442 0.01188 0.0
O345 O 0.52116 0.03171 0.06958 0.0
O346 O 0.49772 0.99732 0.04589 0.0
O347 O 0.52638 0.98916 0.01961 0.0
C348 C 0.42397 0.95423 0.01958 0.0
O349 O 0.48553 0.96032 0.02226 0.0
C350 C 0.49429 0.99909 0.96682 0.0
C351 C 0.48716 0.04378 0.01532 0.0
O352 O 0.43503 0.95019 0.99951 0.0
O353 O 0.43901 0.97543 0.03509 0.0
O354 O 0.47416 0.97747 0.96656 0.0
O355 O 0.4977 0.01196 0.99015 0.0
O356 O 0.46907 0.02 0.01641 0.0
O357 O 0.50995 0.04931 0.01476 0.0
C358 C 0.57145 0.05599 0.01727 0.0
O359 O 0.56041 0.05846 0.03833 0.0
O360 O 0.55644 0.03569 1.00041 0.0
C361 C 0.5011 0.01004 0.0693 0.0
Tb362 Tb 0.98364 0.50371 0.017 0.0
C363 C 0.03842 0.54278 0.02966 0.0
Tb364 Tb 0.01811 0.48261 0.02188 0.0
O365 O 0.99285 0.51951 0.06193 0.0
O366 O 0.9951 0.48744 0.04852 0.0
O367 O 0.01773 0.53954 0.01766 0.0
C368 C 0.05282 0.47221 0.03628 0.0
O369 O 0.04108 0.52328 0.03635 0.0
C370 C 0.0009 0.48132 0.96955 0.0
C371 C 0.96323 0.44338 0.01152 0.0
O372 O 0.0539 0.48775 0.0179 0.0
O373 O 0.03212 0.4624 0.04661 0.0
O374 O 0.00825 0.46602 0.9775 0.0
O375 O 0.00606 0.49821 0.98993 0.0
O376 O 0.98427 0.44699 0.02268 0.0
O377 O 0.96027 0.4626 0.00435 0.0
C378 C 0.94821 0.51245 1.00069 0.0
O379 O 0.94751 0.49766 0.0198 0.0
O380 O 0.96912 0.52279 0.9908 0.0
C381 C 0.99982 0.50373 0.06937 0.0
Tb382 Tb 0.48295 0.49917 0.00487 0.0
C383 C 0.5025 0.46036 0.01112 0.0
Tb384 Tb 0.53754 0.52019 0.01435 0.0
O385 O 0.48473 0.50503 0.95933 0.0
O386 O 0.5095 0.49816 0.98159 0.0
O387 O 0.48359 0.46377 0.01125 0.0
C388 C 0.58397 0.54022 0.00623 0.0
O389 O 0.52469 0.47934 0.00877 0.0
C390 C 0.51581 0.51516 0.06097 0.0
C391 C 0.51836 0.55921 0.00864 0.0
O392 O 0.57401 0.52845 0.02802 0.0
O393 O 0.56779 0.54081 0.98898 0.0
O394 O 0.53595 0.51514 0.06014 0.0
O395 O 0.51101 0.52118 0.0375 0.0
O396 O 0.53692 0.55536 0.00707 0.0
O397 O 0.49617 0.54024 0.01122 0.0
C398 C 0.43744 0.47996 0.01682 0.0
O399 O 0.44538 0.4886 0.99281 0.0
O400 O 0.45498 0.48167 0.03365 0.0
C401 C 0.50466 0.5045 0.9583 0.0
Tb402 Tb 0.1923 0.36188 0.35716 0.0
C403 C 0.17884 0.30354 0.35544 0.0
Tb404 Tb 0.13849 0.31888 0.34594 0.0
O405 O 0.18896 0.36849 0.40281 0.0
O406 O 0.16629 0.33379 0.37956 0.0
O407 O 0.19602 0.32752 0.35282 0.0
C408 C 0.09281 0.28704 0.35508 0.0
O409 O 0.15585 0.29696 0.35686 0.0
C410 C 0.16151 0.33357 0.30032 0.0
C411 C 0.15187 0.37721 0.348 0.0
O412 O 0.10379 0.28355 0.33455 0.0
O413 O 0.10747 0.30859 0.37022 0.0
O414 O 0.14221 0.31132 0.30088 0.0
O415 O 0.16456 0.3469 0.32322 0.0
O416 O 0.13468 0.35298 0.34895 0.0
O417 O 0.17503 0.38426 0.34755 0.0
C418 C 0.23786 0.39608 0.34997 0.0
O419 O 0.22527 0.39868 0.36896 0.0
O420 O 0.22496 0.37384 0.33532 0.0
C421 C 0.16943 0.34642 0.40292 0.0
Tb422 Tb 0.64759 0.83412 0.35283 0.0
C423 C 0.70177 0.87602 0.35999 0.0
Tb424 Tb 0.68489 0.81661 0.35598 0.0
O425 O 0.66015 0.85254 0.39656 0.0
O426 O 0.66191 0.81996 0.38384 0.0
O427 O 0.67993 0.87061 0.34946 0.0
C428 C 0.72045 0.80792 0.37168 0.0
O429 O 0.70666 0.85811 0.36729 0.0
C430 C 0.66528 0.8135 0.3045 0.0
C431 C 0.63051 0.77442 0.34798 0.0
O432 O 0.72031 0.82099 0.35091 0.0
O433 O 0.7006 0.79975 0.38367 0.0
O434 O 0.67405 0.79923 0.31181 0.0
O435 O 0.67029 0.83037 0.32482 0.0
O436 O 0.65268 0.7795 0.35618 0.0
O437 O 0.62504 0.79246 0.34346 0.0
C438 C 0.61083 0.84162 0.33964 0.0
O439 O 0.61514 0.83431 0.36347 0.0
O440 O 0.62736 0.84491 0.32308 0.0
C441 C 0.66749 0.83708 0.40404 0.0
Tb442 Tb 0.14923 0.83063 0.34227 0.0
C443 C 0.17033 0.79391 0.34163 0.0
Tb444 Tb 0.20482 0.85497 0.34649 0.0
O445 O 0.14484 0.81468 0.29785 0.0
O446 O 0.17684 0.84733 0.31502 0.0
O447 O 0.15102 0.7959 0.34571 0.0
C448 C 0.24989 0.87054 0.33516 0.0
O449 O 0.19196 0.81396 0.33918 0.0
C450 C 0.18698 0.85569 0.39471 0.0
C451 C 0.18391 0.89157 0.34861 0.0
O452 O 0.24052 0.85981 0.35775 0.0
O453 O 0.23392 0.87251 0.3191 0.0
O454 O 0.20882 0.87226 0.38984 0.0
O455 O 0.17733 0.83844 0.37402 0.0
O456 O 0.20248 0.88916 0.34199 0.0
O457 O 0.16261 0.87166 0.35244 0.0
C458 C 0.10451 0.81802 0.35252 0.0
O459 O 0.11483 0.82836 0.33023 0.0
O460 O 0.11928 0.81446 0.36896 0.0
C461 C 0.16709 0.83062 0.29389 0.0
Tb462 Tb 0.85664 0.68899 0.6881 0.0
C463 C 0.84008 0.62957 0.68575 0.0
Tb464 Tb 0.80214 0.64803 0.67486 0.0
O465 O 0.85229 0.69555 0.73337 0.0
O466 O 0.82914 0.66133 0.70931 0.0
O467 O 0.85836 0.65335 0.6847 0.0
C468 C 0.75593 0.61877 0.68384 0.0
O469 O 0.81721 0.62395 0.68505 0.0
C470 C 0.82668 0.66271 0.63032 0.0
C471 C 0.81831 0.70717 0.67792 0.0
O472 O 0.7656 0.61575 0.66158 0.0
O473 O 0.7722 0.63834 0.70067 0.0
O474 O 0.80674 0.64084 0.63002 0.0
O475 O 0.8297 0.67574 0.65346 0.0
O476 O 0.8003 0.68323 0.678 0.0
O477 O 0.8413 0.71322 0.67846 0.0
C478 C 0.90305 0.72124 0.682 0.0
O479 O 0.89084 0.72426 0.70125 0.0
O480 O 0.88923 0.69965 0.66644 0.0
C481 C 0.83217 0.67389 0.73272 0.0
Tb482 Tb 0.32311 0.16996 0.6782 0.0
C483 C 0.37811 0.20819 0.6864 0.0
Tb484 Tb 0.3568 0.14827 0.68296 0.0
O485 O 0.33172 0.185 0.72332 0.0
O486 O 0.33378 0.15292 0.70968 0.0
O487 O 0.35732 0.20446 0.67409 0.0
C488 C 0.39149 0.13789 0.69768 0.0
O489 O 0.38043 0.18921 0.69571 0.0
C490 C 0.34037 0.14807 0.63074 0.0
C491 C 0.30142 0.10917 0.67535 0.0
O492 O 0.39207 0.15228 0.67813 0.0
O493 O 0.37131 0.12919 0.709 0.0
O494 O 0.34666 0.1319 0.6386 0.0
O495 O 0.3459 0.16507 0.65117 0.0
O496 O 0.32302 0.11235 0.68309 0.0
O497 O 0.29782 0.12862 0.67161 0.0
C498 C 0.28867 0.17937 0.65879 0.0
O499 O 0.29488 0.16457 0.64563 0.0
O500 O 0.30195 0.18909 0.683 0.0
C501 C 0.33855 0.16912 0.73063 0.0
Tb502 Tb 0.82036 0.16393 0.67638 0.0
C503 C 0.8403 0.1263 0.67696 0.0
Tb504 Tb 0.87517 0.18678 0.6771 0.0
O505 O 0.81466 0.14451 0.63357 0.0
O506 O 0.84629 0.17914 0.64684 0.0
O507 O 0.82159 0.12916 0.68182 0.0
C508 C 0.91915 0.2 0.66336 0.0
O509 O 0.86173 0.14561 0.67245 0.0
C510 C 0.86025 0.19062 0.72642 0.0
C511 C 0.85582 0.22467 0.67847 0.0
O512 O 0.91162 0.19366 0.68816 0.0
O513 O 0.90192 0.19877 0.64636 0.0
O514 O 0.88165 0.20646 0.71962 0.0
O515 O 0.84935 0.17228 0.70699 0.0
O516 O 0.8738 0.22127 0.6716 0.0
O517 O 0.83452 0.20541 0.68358 0.0
C518 C 0.77623 0.15273 0.68786 0.0
O519 O 0.7857 0.16119 0.66449 0.0
O520 O 0.79154 0.15033 0.70471 0.0
C521 C 0.83593 0.1611 0.62712 0.0
H522 H 0.28151 0.87667 0.08079 0.0
H523 H 0.39487 0.90482 0.9968 0.0
H524 H 0.3003 0.81936 0.05698 0.0
H525 H 0.39679 0.96258 0.05653 0.0
H526 H 0.35508 0.87394 0.01016 0.0
H527 H 0.31946 0.90926 0.0646 0.0
C528 C 0.29342 0.87081 0.07217 0.0
C529 C 0.28729 0.84495 0.07008 0.0
C530 C 0.36415 0.89342 0.0202 0.0
C531 C 0.33042 0.88216 0.05087 0.0
C532 C 0.38678 0.91106 0.01249 0.0
C533 C 0.39912 0.9362 0.0257 0.0
C534 C 0.35363 0.90108 0.04095 0.0
C535 C 0.38785 0.9433 0.04596 0.0
C536 C 0.31502 0.88945 0.06282 0.0
C537 C 0.30356 0.83873 0.05833 0.0
N538 N 0.36567 0.92581 0.05299 0.0
N539 N 0.32418 0.8571 0.04907 0.0
H540 H 0.1916 0.48939 0.08341 0.0
H541 H 0.0504 0.4337 0.066 0.0
H542 H 0.14144 0.4085 0.08436 0.0
H543 H 0.09956 0.49927 0.02506 0.0
H544 H 0.08365 0.42605 0.07934 0.0
H545 H 0.1581 0.4953 0.06788 0.0
C546 C 0.17365 0.47275 0.08002 0.0
C547 C 0.16953 0.44831 0.08504 0.0
C548 C 0.08706 0.44203 0.06735 0.0
C549 C 0.13089 0.45531 0.06822 0.0
C550 C 0.06819 0.44645 0.05986 0.0
C551 C 0.07235 0.46711 0.04442 0.0
C552 C 0.11024 0.45874 0.05981 0.0
C553 C 0.09565 0.48309 0.03691 0.0
C554 C 0.15449 0.47625 0.07136 0.0
C555 C 0.14558 0.42776 0.08116 0.0
N556 N 0.11379 0.4787 0.04489 0.0
N557 N 0.12714 0.43175 0.07317 0.0
H558 H 0.57497 0.72475 0.02351 0.0
H559 H 0.48984 0.57557 0.03134 0.0
H560 H 0.53327 0.6932 0.0939 0.0
H561 H 0.55824 0.60359 0.99665 0.0
H562 H 0.50022 0.61962 0.04461 0.0
H563 H 0.56447 0.6811 0.0047 0.0
C564 C 0.56371 0.70863 0.03496 0.0
C565 C 0.55513 0.71238 0.06038 0.0
C566 C 0.51284 0.61609 0.03385 0.0
C567 C 0.54256 0.66296 0.03876 0.0
C568 C 0.50688 0.59096 0.02604 0.0
C569 C 0.52327 0.58584 0.01299 0.0
C570 C 0.53518 0.63636 0.0282 0.0
C571 C 0.54516 0.60669 0.00686 0.0
C572 C 0.55776 0.68389 0.02429 0.0
C573 C 0.54044 0.69102 0.07442 0.0
N574 N 0.55052 0.63113 0.01454 0.0
N575 N 0.53444 0.6672 0.06331 0.0
H576 H 0.82079 0.3142 0.96181 0.0
H577 H 0.96243 0.39756 0.01234 0.0
H578 H 0.86788 0.28264 0.96187 0.0
H579 H 0.91609 0.42915 0.99757 0.0
H580 H 0.9274 0.35447 1.00019 0.0
H581 H 0.85479 0.35537 0.98202 0.0
C582 C 0.83819 0.31577 0.96658 0.0
C583 C 0.84145 0.29488 0.96007 0.0
C584 C 0.92494 0.37087 0.99978 0.0
C585 C 0.88073 0.34232 0.9827 0.0
C586 C 0.94491 0.39546 0.00677 0.0
C587 C 0.94225 0.41705 0.00582 0.0
C588 C 0.90216 0.36787 0.99201 0.0
C589 C 0.9191 0.41314 0.99839 0.0
C590 C 0.85769 0.33941 0.97786 0.0
C591 C 0.8646 0.2983 0.96625 0.0
N592 N 0.90002 0.3891 0.99175 0.0
N593 N 0.88338 0.3216 0.97708 0.0
H594 H 0.72718 0.60648 0.94691 0.0
H595 H 0.61458 0.52729 0.03222 0.0
H596 H 0.70128 0.52757 0.96196 0.0
H597 H 0.60974 0.57185 0.96681 0.0
H598 H 0.65431 0.53723 0.01876 0.0
H599 H 0.69074 0.60287 0.96505 0.0
C600 C 0.71411 0.5885 0.95407 0.0
C601 C 0.71772 0.56739 0.95299 0.0
C602 C 0.64464 0.54508 0.00766 0.0
C603 C 0.67663 0.5637 0.97469 0.0
C604 C 0.62208 0.53951 0.01534 0.0
C605 C 0.6089 0.54861 1.00038 0.0
C606 C 0.65423 0.56027 0.98529 0.0
C607 C 0.61937 0.56435 0.97865 0.0
C608 C 0.69343 0.58659 0.96456 0.0
C609 C 0.70007 0.54475 0.9631 0.0
N610 N 0.64154 0.56972 0.97167 0.0
N611 N 0.68048 0.5436 0.97366 0.0
H612 H 0.49937 0.18319 0.96412 0.0
H613 H 0.44261 0.03979 0.00613 0.0
H614 H 0.4226 0.13234 0.96296 0.0
H615 H 0.51895 0.0945 0.01203 0.0
H616 H 0.43435 0.07319 0.9921 0.0
H617 H 0.50628 0.15069 0.98288 0.0
C618 C 0.48391 0.16525 0.96811 0.0
C619 C 0.46034 0.16068 0.96221 0.0
C620 C 0.45288 0.07788 0.99668 0.0
C621 C 0.46819 0.12286 0.98334 0.0
C622 C 0.45764 0.05884 0.00481 0.0
C623 C 0.48154 0.06424 0.01011 0.0
C624 C 0.47217 0.10245 0.99381 0.0
C625 C 0.50023 0.0893 0.008 0.0
C626 C 0.48788 0.14657 0.97871 0.0
C627 C 0.44106 0.13668 0.96706 0.0
N628 N 0.49514 0.10735 0.99987 0.0
N629 N 0.44541 0.11865 0.97734 0.0
H630 H 0.69419 0.20288 0.00459 0.0
H631 H 0.59512 0.05531 0.97123 0.0
H632 H 0.69613 0.15525 0.93456 0.0
H633 H 0.60285 0.10102 0.04895 0.0
H634 H 0.63333 0.09037 0.95857 0.0
H635 H 0.66225 0.16486 0.02254 0.0
C636 C 0.688 0.18428 0.9932 0.0
C637 C 0.69762 0.18213 0.968 0.0
C638 C 0.62684 0.09259 0.97858 0.0
C639 C 0.66076 0.13846 0.98813 0.0
C640 C 0.60507 0.07259 0.98582 0.0
C641 C 0.59582 0.07539 0.0111 0.0
C642 C 0.63927 0.11559 0.99666 0.0
C643 C 0.60932 0.09814 0.02921 0.0
C644 C 0.66978 0.16256 0.00344 0.0
C645 C 0.68914 0.15763 0.9541 0.0
N646 N 0.63022 0.11744 0.0215 0.0
N647 N 0.6709 0.13672 0.96413 0.0
H648 H 0.80728 0.4744 0.93072 0.0
H649 H 0.94779 0.55222 0.9759 0.0
H650 H 0.83942 0.55263 0.96815 0.0
H651 H 0.9013 0.47684 1.00081 0.0
H652 H 0.9116 0.55405 0.95875 0.0
H653 H 0.84594 0.47661 0.94084 0.0
C654 C 0.82245 0.49211 0.94092 0.0
C655 C 0.81982 0.51313 0.94935 0.0
C656 C 0.90953 0.53718 0.96793 0.0
C657 C 0.8643 0.51591 0.95994 0.0
C658 C 0.93001 0.5361 0.9776 0.0
C659 C 0.92734 0.51442 0.9899 0.0
C660 C 0.88655 0.51607 0.96976 0.0
C661 C 0.90405 0.49398 0.99168 0.0
C662 C 0.8445 0.49335 0.94647 0.0
C663 C 0.84051 0.53591 0.96139 0.0
N664 N 0.88454 0.49519 0.98146 0.0
N665 N 0.86193 0.53666 0.96657 0.0
H666 H 0.46888 0.30828 0.95068 0.0
H667 H 0.53405 0.44708 0.03318 0.0
H668 H 0.52534 0.33384 0.01994 0.0
H669 H 0.46316 0.41467 0.98794 0.0
H670 H 0.53058 0.40512 0.02814 0.0
H671 H 0.46518 0.34595 0.96369 0.0
C672 C 0.48021 0.32155 0.96887 0.0
C673 C 0.49779 0.31818 0.98388 0.0
C674 C 0.5156 0.407 0.01958 0.0
C675 C 0.49386 0.36129 0.99858 0.0
C676 C 0.51762 0.431 0.02239 0.0
C677 C 0.49891 0.43432 0.01086 0.0
C678 C 0.4949 0.38616 0.00455 0.0
C679 C 0.47796 0.41283 0.99721 0.0
C680 C 0.47813 0.34306 0.97622 0.0
C681 C 0.51201 0.33602 0.00724 0.0
N682 N 0.47665 0.38965 0.994 0.0
N683 N 0.50994 0.3569 0.0136 0.0
H684 H 0.18159 0.66457 0.08725 0.0
H685 H 0.04646 0.58846 0.01055 0.0
H686 H 0.15334 0.69994 0.03238 0.0
H687 H 0.07851 0.55666 0.0657 0.0
H688 H 0.0833 0.63064 0.02132 0.0
H689 H 0.14178 0.62633 0.08331 0.0
C690 C 0.16681 0.66429 0.07459 0.0
C691 C 0.17069 0.68526 0.05996 0.0
C692 C 0.0821 0.6144 0.03116 0.0
C693 C 0.12498 0.64129 0.05481 0.0
C694 C 0.0611 0.59035 0.02504 0.0
C695 C 0.05949 0.56889 0.03691 0.0
C696 C 0.10147 0.61691 0.04937 0.0
C697 C 0.07899 0.57248 0.05563 0.0
C698 C 0.14407 0.64244 0.07226 0.0
C699 C 0.15097 0.68408 0.04399 0.0
N700 N 0.09908 0.59589 0.06112 0.0
N701 N 0.12893 0.66226 0.04151 0.0
H702 H 0.296 0.46225 0.02984 0.0
H703 H 0.42388 0.47402 0.07055 0.0
H704 H 0.33854 0.49701 0.11081 0.0
H705 H 0.39777 0.47328 0.98388 0.0
H706 H 0.38707 0.47066 0.0867 0.0
H707 H 0.32797 0.45481 0.01395 0.0
C708 C 0.31189 0.46783 0.04438 0.0
C709 C 0.31485 0.48024 0.07157 0.0
C710 C 0.38926 0.47088 0.06411 0.0
C711 C 0.35109 0.47178 0.05382 0.0
C712 C 0.41017 0.47265 0.05485 0.0
C713 C 0.41384 0.47407 0.02587 0.0
C714 C 0.37182 0.47025 0.04419 0.0
C715 C 0.39559 0.47235 0.00644 0.0
C716 C 0.3301 0.46374 0.03532 0.0
C717 C 0.33575 0.4874 0.08966 0.0
N718 N 0.37534 0.47064 0.01597 0.0
N719 N 0.35312 0.48308 0.08046 0.0
H720 H 0.55625 0.85436 0.02135 0.0
H721 H 0.47966 0.92218 0.04557 0.0
H722 H 0.49936 0.82999 0.07651 0.0
H723 H 0.54842 0.96188 0.01136 0.0
H724 H 0.48745 0.88824 0.05616 0.0
H725 H 0.55568 0.89452 0.01784 0.0
C726 C 0.54422 0.85789 0.03341 0.0
C727 C 0.52786 0.83906 0.04931 0.0
C728 C 0.50097 0.90435 0.04644 0.0
C729 C 0.52659 0.88415 0.0448 0.0
C730 C 0.49642 0.92373 0.04008 0.0
C731 C 0.51331 0.94487 0.02725 0.0
C732 C 0.52248 0.9057 0.03963 0.0
C733 C 0.53487 0.94586 0.02116 0.0
C734 C 0.54374 0.88062 0.03123 0.0
C735 C 0.51227 0.84414 0.06411 0.0
N736 N 0.53877 0.92637 0.02715 0.0
N737 N 0.51182 0.86603 0.06123 0.0
H738 H 0.95369 0.20708 0.42299 0.0
H739 H 0.06388 0.23788 0.33128 0.0
H740 H 0.96759 0.14934 0.38622 0.0
H741 H 0.06643 0.29376 0.39446 0.0
H742 H 0.02463 0.20617 0.34514 0.0
H743 H 0.99174 0.24016 0.40762 0.0
C744 C 0.96465 0.20128 0.41179 0.0
C745 C 0.95715 0.17522 0.40577 0.0
C746 C 0.03373 0.2254 0.3559 0.0
C747 C 1.00043 0.21302 0.3876 0.0
C748 C 0.05605 0.24351 0.3479 0.0
C749 C 0.06838 0.26839 0.36183 0.0
C750 C 0.02354 0.2323 0.37777 0.0
C751 C 0.05747 0.27471 0.38327 0.0
C752 C 0.98631 0.2202 0.4029 0.0
C753 C 0.97213 0.16902 0.3908 0.0
N754 N 0.03562 0.25677 0.3906 0.0
N755 N 0.99289 0.18772 0.38216 0.0
H756 H 0.85973 0.82841 0.42325 0.0
H757 H 0.71894 0.77177 0.40481 0.0
H758 H 0.81075 0.74714 0.42357 0.0
H759 H 0.7668 0.83385 0.35854 0.0
H760 H 0.75249 0.76494 0.41939 0.0
H761 H 0.82588 0.83333 0.4066 0.0
C762 C 0.84199 0.81148 0.41952 0.0
C763 C 0.83833 0.78719 0.42457 0.0
C764 C 0.75554 0.77997 0.40596 0.0
C765 C 0.79927 0.79312 0.40657 0.0
C766 C 0.73652 0.78394 0.39777 0.0
C767 C 0.74023 0.80338 0.38047 0.0
C768 C 0.77845 0.79598 0.39733 0.0
C769 C 0.76325 0.81862 0.37183 0.0
C770 C 0.82263 0.81442 0.41022 0.0
C771 C 0.81456 0.76628 0.42034 0.0
N772 N 0.7816 0.81477 0.3806 0.0
N773 N 0.7959 0.76975 0.41177 0.0
H774 H 0.2286 0.05351 0.35414 0.0
H775 H 0.15976 0.90664 0.3831 0.0
H776 H 0.20213 0.02852 0.43484 0.0
H777 H 0.21701 0.93594 0.32804 0.0
H778 H 0.16843 0.95034 0.3959 0.0
H779 H 0.21817 0.0094 0.33806 0.0
C780 C 0.22052 0.03868 0.36835 0.0
C781 C 0.21631 0.0445 0.39586 0.0
C782 C 0.17896 0.94714 0.38087 0.0
C783 C 0.20398 0.99435 0.37759 0.0
C784 C 0.17393 0.92222 0.37338 0.0
C785 C 0.1877 0.91765 0.35447 0.0
C786 C 0.19758 0.96763 0.36894 0.0
C787 C 0.20603 0.93864 0.34279 0.0
C788 C 0.21466 0.01365 0.35926 0.0
C789 C 0.20579 0.02473 0.41356 0.0
N790 N 0.21039 0.96275 0.35011 0.0
N791 N 0.19983 1.00049 0.40407 0.0
H792 H 0.49894 0.62646 0.3321 0.0
H793 H 0.63407 0.73501 0.32286 0.0
H794 H 0.53349 0.63196 0.25482 0.0
H795 H 0.58322 0.75295 0.35781 0.0
H796 H 0.6009 0.69117 0.30792 0.0
H797 H 0.53367 0.66757 0.3517 0.0
C798 C 0.5137 0.63609 0.31918 0.0
C799 C 0.51286 0.62557 0.29143 0.0
C800 C 0.59716 0.70469 0.31919 0.0
C801 C 0.55311 0.67211 0.31454 0.0
C802 C 0.616 0.72954 0.32786 0.0
C803 C 0.61126 0.74747 0.34157 0.0
C804 C 0.57364 0.69764 0.32505 0.0
C805 C 0.58752 0.73962 0.3472 0.0
C806 C 0.53357 0.65946 0.33057 0.0
C807 C 0.53317 0.63881 0.27638 0.0
N808 N 0.56955 0.71518 0.33905 0.0
N809 N 0.55244 0.66133 0.28814 0.0
H810 H 0.37168 0.90669 0.24165 0.0
H811 H 0.28535 0.86778 0.36688 0.0
H812 H 0.39072 0.89034 0.32397 0.0
H813 H 0.26965 0.88999 0.28676 0.0
H814 H 0.32506 0.87818 0.35282 0.0
H815 H 0.33558 0.90356 0.2592 0.0
C816 C 0.36852 0.90289 0.2636 0.0
C817 C 0.38428 0.89871 0.28133 0.0
C818 C 0.313 0.88096 0.3384 0.0
C819 C 0.34251 0.89446 0.30139 0.0
C820 C 0.29037 0.87501 0.34641 0.0
C821 C 0.27429 0.87798 0.32787 0.0
C822 C 0.31944 0.88979 0.31161 0.0
C823 C 0.28157 0.88741 0.30164 0.0
C824 C 0.34774 0.90088 0.27355 0.0
C825 C 0.3789 0.89333 0.30942 0.0
N826 N 0.30357 0.89285 0.29421 0.0
N827 N 0.35837 0.89117 0.31851 0.0
H828 H 0.10524 0.46576 0.25856 0.0
H829 H 0.17765 0.42847 0.36506 0.0
H830 H 0.13917 0.5118 0.33923 0.0
H831 H 0.11046 0.37007 0.31908 0.0
H832 H 0.16753 0.46097 0.35247 0.0
H833 H 0.11003 0.43162 0.27686 0.0
C834 C 0.11336 0.46873 0.28024 0.0
C835 C 0.12182 0.49205 0.29723 0.0
C836 C 0.15491 0.441 0.34547 0.0
C837 C 0.12819 0.45304 0.31779 0.0
C838 C 0.16067 0.42249 0.35256 0.0
C839 C 0.14482 0.39657 0.34316 0.0
C840 C 0.1335 0.43359 0.32813 0.0
C841 C 0.12308 0.38984 0.32695 0.0
C842 C 0.11622 0.44917 0.29055 0.0
C843 C 0.13284 0.49461 0.32492 0.0
N844 N 0.11823 0.40829 0.31952 0.0
N845 N 0.13601 0.47553 0.33415 0.0
H846 H 0.38316 0.50721 0.31202 0.0
H847 H 0.25716 0.44684 0.36487 0.0
H848 H 0.33269 0.52898 0.27833 0.0
H849 H 0.27068 0.39288 0.31784 0.0
H850 H 0.29302 0.48203 0.34803 0.0
H851 H 0.34915 0.46843 0.32677 0.0
C852 C 0.36507 0.50386 0.30735 0.0
C853 C 0.36102 0.52188 0.29425 0.0
C854 C 0.28823 0.46244 0.34177 0.0
C855 C 0.32245 0.4781 0.31207 0.0
C856 C 0.26793 0.44241 0.35143 0.0
C857 C 0.26101 0.41699 0.34265 0.0
C858 C 0.30202 0.45701 0.32385 0.0
C859 C 0.27549 0.41229 0.32501 0.0
C860 C 0.34576 0.48179 0.31597 0.0
C861 C 0.33702 0.51635 0.28923 0.0
N862 N 0.29552 0.43221 0.3162 0.0
N863 N 0.31875 0.49526 0.29864 0.0
H864 H 0.49813 0.86212 0.25642 0.0
H865 H 0.57418 0.83152 0.37188 0.0
H866 H 0.46841 0.81761 0.32677 0.0
H867 H 0.59884 0.85649 0.29038 0.0
H868 H 0.53743 0.83246 0.35851 0.0
H869 H 0.53727 0.86613 0.2713 0.0
C870 C 0.49992 0.85336 0.27508 0.0
C871 C 0.48003 0.83934 0.29028 0.0
C872 C 0.55088 0.83782 0.34354 0.0
C873 C 0.5245 0.84392 0.30741 0.0
C874 C 0.57189 0.83736 0.3512 0.0
C875 C 0.58944 0.84382 0.33212 0.0
C876 C 0.5474 0.8449 0.31662 0.0
C877 C 0.58563 0.85131 0.30563 0.0
C878 C 0.52216 0.85554 0.28346 0.0
C879 C 0.48322 0.82827 0.31423 0.0
N880 N 0.56493 0.8516 0.29859 0.0
N881 N 0.50501 0.83082 0.32205 0.0
H882 H 0.20086 0.67105 0.34681 0.0
H883 H 0.13032 0.74703 0.32311 0.0
H884 H 0.13914 0.64224 0.284 0.0
H885 H 0.20554 0.78272 0.35474 0.0
H886 H 0.12875 0.70556 0.31646 0.0
H887 H 0.19793 0.70903 0.35814 0.0
C888 C 0.18667 0.67267 0.33533 0.0
C889 C 0.17056 0.65357 0.31391 0.0
C890 C 0.1455 0.72251 0.32502 0.0
C891 C 0.16684 0.69706 0.32733 0.0
C892 C 0.14638 0.74609 0.32896 0.0
C893 C 0.16813 0.76835 0.33938 0.0
C894 C 0.16637 0.72122 0.33213 0.0
C895 C 0.18845 0.76611 0.34644 0.0
C896 C 0.18496 0.69436 0.34194 0.0
C897 C 0.15201 0.65646 0.30059 0.0
N898 N 0.18705 0.74302 0.34276 0.0
N899 N 0.15074 0.67791 0.30738 0.0
H900 H 0.8336 0.01736 0.41881 0.0
H901 H 0.70747 0.91603 0.33046 0.0
H902 H 0.81687 0.02158 0.33018 0.0
H903 H 0.74102 0.89723 0.39955 0.0
H904 H 0.74231 0.95985 0.33615 0.0
H905 H 0.79399 0.97838 0.41813 0.0
C906 C 0.82125 0.01042 0.39947 0.0
C907 C 0.82829 0.02255 0.37453 0.0
C908 C 0.74186 0.94612 0.35017 0.0
C909 C 0.78333 0.97822 0.37351 0.0
C910 C 0.72202 0.92121 0.347 0.0
C911 C 0.72156 0.90296 0.36431 0.0
C912 C 0.76103 0.95287 0.3712 0.0
C913 C 0.74085 0.91063 0.38545 0.0
C914 C 0.79883 0.98814 0.399 0.0
C915 C 0.81193 0.01268 0.34981 0.0
N916 N 0.7598 0.93501 0.38831 0.0
N917 N 0.79019 0.99099 0.34987 0.0
H918 H 0.98674 0.84443 0.36559 0.0
H919 H 0.08221 0.8003 0.40063 0.0
H920 H 0.98333 0.80184 0.43697 0.0
H921 H 0.07384 0.82774 0.32083 0.0
H922 H 0.04534 0.79899 0.41403 0.0
H923 H 0.01794 0.83701 0.34835 0.0
C924 C 0.99252 0.83334 0.37751 0.0
C925 C 0.98267 0.8239 0.40282 0.0
C926 C 0.05141 0.80497 0.39344 0.0
C927 C 0.01854 0.81546 0.38341 0.0
C928 C 0.0724 0.8057 0.3858 0.0
C929 C 0.08105 0.81426 0.35967 0.0
C930 C 0.03922 0.81308 0.37488 0.0
C931 C 0.06781 0.82112 0.34123 0.0
C932 C 0.01027 0.82903 0.36764 0.0
C933 C 0.99054 0.80941 0.41733 0.0
N934 N 0.04769 0.82061 0.3493 0.0
N935 N 0.00829 0.8059 0.40762 0.0
H936 H 0.17905 0.17554 0.42345 0.0
H937 H 0.21594 0.29763 0.33679 0.0
H938 H 0.21562 0.1853 0.34767 0.0
H939 H 0.15705 0.2655 0.38934 0.0
H940 H 0.22462 0.26339 0.34741 0.0
H941 H 0.18086 0.21647 0.41926 0.0
C942 C 0.18812 0.18679 0.40641 0.0
C943 C 0.19735 0.17729 0.38599 0.0
C944 C 0.20992 0.26407 0.35666 0.0
C945 C 0.19885 0.22369 0.38045 0.0
C946 C 0.20499 0.28353 0.35065 0.0
C947 C 0.18554 0.28415 0.36185 0.0
C948 C 0.19566 0.24568 0.37457 0.0
C949 C 0.17195 0.26552 0.37979 0.0
C950 C 0.18894 0.20997 0.40382 0.0
C951 C 0.20856 0.19226 0.36397 0.0
N952 N 0.1773 0.24717 0.38559 0.0
N953 N 0.20879 0.2147 0.36154 0.0
H954 H 0.63222 0.53414 0.77504 0.0
H955 H 0.71934 0.57722 0.65057 0.0
H956 H 0.60988 0.49651 0.6891 0.0
H957 H 0.73603 0.62128 0.73231 0.0
H958 H 0.67889 0.54772 0.66369 0.0
H959 H 0.66979 0.56682 0.7592 0.0
C960 C 0.63496 0.53292 0.75271 0.0
C961 C 0.61772 0.51238 0.73343 0.0
C962 C 0.69134 0.56396 0.67866 0.0
C963 C 0.66127 0.54962 0.71525 0.0
C964 C 0.7144 0.58076 0.67118 0.0
C965 C 0.731 0.60164 0.69042 0.0
C966 C 0.68496 0.568 0.70567 0.0
C967 C 0.72375 0.60539 0.71685 0.0
C968 C 0.6566 0.55154 0.74372 0.0
C969 C 0.62274 0.51171 0.70487 0.0
N970 N 0.70135 0.58865 0.72376 0.0
N971 N 0.64409 0.52991 0.69672 0.0
H972 H 0.48065 0.07487 0.75181 0.0
H973 H 0.43795 0.16472 0.68563 0.0
H974 H 0.52803 0.15661 0.75301 0.0
H975 H 0.38976 0.10066 0.72928 0.0
H976 H 0.47109 0.15781 0.70116 0.0
H977 H 0.44669 0.08009 0.7352 0.0
C978 C 0.48402 0.09388 0.74866 0.0
C979 C 0.50746 0.1153 0.75379 0.0
C980 C 0.45324 0.14524 0.70726 0.0
C981 C 0.46871 0.12112 0.73402 0.0
C982 C 0.43436 0.1491 0.69835 0.0
C983 C 0.41122 0.13326 0.70632 0.0
C984 C 0.44881 0.12509 0.72375 0.0
C985 C 0.40745 0.11333 0.72285 0.0
C986 C 0.46461 0.09676 0.73906 0.0
C987 C 0.51057 0.13937 0.74873 0.0
N988 N 0.42608 0.10967 0.73094 0.0
N989 N 0.49148 0.14158 0.73897 0.0
H990 H 0.8427 0.35819 0.71743 0.0
H991 H 0.89891 0.26965 0.68011 0.0
H992 H 0.9189 0.38488 0.73031 0.0
H993 H 0.8231 0.24024 0.68707 0.0
H994 H 0.90645 0.31305 0.69136 0.0
H995 H 0.83532 0.31616 0.69893 0.0
C996 C 0.85794 0.35534 0.71594 0.0
C997 C 0.88148 0.37513 0.72541 0.0
C998 C 0.88815 0.2971 0.69024 0.0
C999 C 0.87307 0.32684 0.70458 0.0
C1000 C 0.88378 0.27228 0.68369 0.0
C1001 C 0.86031 0.25117 0.68272 0.0
C1002 C 0.86891 0.30092 0.69569 0.0
C1003 C 0.84149 0.25587 0.68769 0.0
C1004 C 0.85368 0.33125 0.7056 0.0
C1005 C 0.90046 0.37012 0.72345 0.0
N1006 N 0.84621 0.28021 0.694 0.0
N1007 N 0.89584 0.34646 0.7133 0.0
H1008 H 0.1822 0.97708 0.58135 0.0
H1009 H 0.29484 0.06405 0.69424 0.0
H1010 H 0.1869 0.95008 0.66274 0.0
H1011 H 0.26058 0.09455 0.64052 0.0
H1012 H 0.26041 0.02063 0.67967 0.0
H1013 H 0.21682 0.01897 0.59873 0.0
C1014 C 0.19077 0.97993 0.6028 0.0
C1015 C 0.18182 0.96012 0.62062 0.0
C1016 C 0.2605 0.03696 0.67136 0.0
C1017 C 0.2214 0.008 0.64063 0.0
C1018 C 0.28008 0.06164 0.67955 0.0
C1019 C 0.28052 0.08294 0.66866 0.0
C1020 C 0.24171 0.03367 0.65158 0.0
C1021 C 0.26095 0.07876 0.64967 0.0
C1022 C 0.21036 0.00385 0.61276 0.0
C1023 C 0.19334 0.96493 0.6484 0.0
N1024 N 0.24253 0.05464 0.6415 0.0
N1025 N 0.21273 0.98843 0.65757 0.0
H1026 H 0.06393 0.22657 0.65891 0.0
H1027 H 0.93636 0.21369 0.61216 0.0
H1028 H 0.0429 0.23785 0.5748 0.0
H1029 H 0.95682 0.20303 0.69681 0.0
H1030 H 0.97642 0.22511 0.59903 0.0
H1031 H 0.02597 0.22063 0.67435 0.0
C1032 C 0.05141 0.228 0.64378 0.0
C1033 C 0.05657 0.23267 0.61552 0.0
C1034 C 0.97224 0.22039 0.62053 0.0
C1035 C 0.01315 0.22585 0.63296 0.0
C1036 C 0.94937 0.21384 0.62799 0.0
C1037 C 0.94337 0.20736 0.65554 0.0
C1038 C 0.98917 0.22035 0.64075 0.0
C1039 C 0.96081 0.20786 0.6753 0.0
C1040 C 0.02979 0.22465 0.65259 0.0
C1041 C 0.03983 0.2346 0.59687 0.0
N1042 N 0.98294 0.21416 0.66748 0.0
N1043 N 0.01882 0.23099 0.60587 0.0
H1044 H 0.7801 0.80102 0.58602 0.0
H1045 H 0.84476 0.75822 0.69629 0.0
H1046 H 0.807 0.84257 0.67007 0.0
H1047 H 0.77876 0.70175 0.64645 0.0
H1048 H 0.83618 0.79174 0.68313 0.0
H1049 H 0.78382 0.76604 0.6038 0.0
C1050 C 0.78647 0.80283 0.60826 0.0
C1051 C 0.79326 0.82511 0.62645 0.0
C1052 C 0.8235 0.77195 0.67539 0.0
C1053 C 0.79847 0.78529 0.64645 0.0
C1054 C 0.82839 0.75289 0.6828 0.0
C1055 C 0.81238 0.72723 0.67253 0.0
C1056 C 0.8029 0.76533 0.65686 0.0
C1057 C 0.79145 0.7213 0.65503 0.0
C1058 C 0.78874 0.78283 0.61828 0.0
C1059 C 0.80208 0.82623 0.65491 0.0
N1060 N 0.78749 0.74027 0.64734 0.0
N1061 N 0.80475 0.8068 0.6639 0.0
H1062 H 0.00606 0.86169 0.62778 0.0
H1063 H 0.93463 0.7167 0.64858 0.0
H1064 H 0.05012 0.82843 0.64841 0.0
H1065 H 0.92543 0.77179 0.70004 0.0
H1066 H 0.97264 0.75215 0.63481 0.0
H1067 H 0.97064 0.82268 0.63858 0.0
C1068 C 0.00832 0.84614 0.63438 0.0
C1069 C 0.03131 0.84873 0.63803 0.0
C1070 C 0.9623 0.75623 0.64934 0.0
C1071 C 0.9905 0.80366 0.64943 0.0
C1072 C 0.94073 0.73616 0.65716 0.0
C1073 C 0.92699 0.74141 0.67552 0.0
C1074 C 0.96951 0.78154 0.65928 0.0
C1075 C 0.93553 0.76691 0.68597 0.0
C1076 C 0.98806 0.82389 0.64041 0.0
C1077 C 0.03282 0.82738 0.64553 0.0
N1078 N 0.95601 0.78605 0.67732 0.0
N1079 N 0.01263 0.80568 0.65122 0.0
H1080 H 0.17123 0.21083 0.64782 0.0
H1081 H 0.25835 0.15686 0.6101 0.0
H1082 H 0.15129 0.14708 0.58503 0.0
H1083 H 0.27215 0.20812 0.68528 0.0
H1084 H 0.22193 0.15836 0.59605 0.0
H1085 H 0.21111 0.21522 0.65732 0.0
C1086 C 0.17536 0.19795 0.63584 0.0
C1087 C 0.15792 0.17843 0.61578 0.0
C1088 C 0.23297 0.16941 0.61554 0.0
C1089 C 0.20331 0.1833 0.62652 0.0
C1090 C 0.25378 0.16862 0.62351 0.0
C1091 C 0.26808 0.18223 0.64898 0.0
C1092 C 0.22645 0.18399 0.63313 0.0
C1093 C 0.26147 0.19725 0.66554 0.0
C1094 C 0.19803 0.20037 0.64137 0.0
C1095 C 0.16411 0.16214 0.60097 0.0
N1096 N 0.24101 0.19764 0.6574 0.0
N1097 N 0.18626 0.16491 0.60668 0.0
H1098 H 0.86782 0.0019 0.68838 0.0
H1099 H 0.80012 0.07979 0.65835 0.0
H1100 H 0.8101 0.97561 0.62047 0.0
H1101 H 0.87449 0.11455 0.69316 0.0
H1102 H 0.79791 0.03793 0.65315 0.0
H1103 H 0.86441 0.03965 0.69956 0.0
C1104 C 0.85438 0.00401 0.67581 0.0
C1105 C 0.83962 0.98577 0.65297 0.0
C1106 C 0.81458 0.05475 0.66216 0.0
C1107 C 0.83532 0.02886 0.66616 0.0
C1108 C 0.81582 0.07852 0.66528 0.0
C1109 C 0.83755 0.10059 0.6761 0.0
C1110 C 0.83507 0.05313 0.67053 0.0
C1111 C 0.85745 0.09803 0.68453 0.0
C1112 C 0.85239 0.02553 0.68232 0.0
C1113 C 0.82193 0.98917 0.63818 0.0
N1114 N 0.85571 0.07475 0.68163 0.0
N1115 N 0.82039 0.01045 0.64488 0.0
H1116 H 0.49226 0.36315 0.74265 0.0
H1117 H 0.42369 0.21862 0.68149 0.0
H1118 H 0.52062 0.33315 0.6802 0.0
H1119 H 0.38245 0.25568 0.69674 0.0
H1120 H 0.46054 0.26035 0.68706 0.0
H1121 H 0.45245 0.32434 0.73114 0.0
C1122 C 0.49013 0.34867 0.7263 0.0
C1123 C 0.51007 0.35127 0.71284 0.0
C1124 C 0.44344 0.25942 0.68901 0.0
C1125 C 0.46481 0.30682 0.70015 0.0
C1126 C 0.42242 0.23561 0.68599 0.0
C1127 C 0.40004 0.23375 0.68865 0.0
C1128 C 0.44226 0.28162 0.69547 0.0
C1129 C 0.39941 0.2564 0.69438 0.0
C1130 C 0.46743 0.32653 0.71985 0.0
C1131 C 0.50611 0.33173 0.6919 0.0
N1132 N 0.42033 0.27951 0.69801 0.0
N1133 N 0.48411 0.31024 0.68657 0.0
H1134 H 0.65802 0.17862 0.70139 0.0
H1135 H 0.75476 0.13639 0.73673 0.0
H1136 H 0.6541 0.13478 0.77171 0.0
H1137 H 0.74515 0.16182 0.65602 0.0
H1138 H 0.71789 0.135 0.75022 0.0
H1139 H 0.68994 0.17224 0.68451 0.0
C1140 C 0.66386 0.16751 0.71317 0.0
C1141 C 0.65362 0.15736 0.73806 0.0
C1142 C 0.72371 0.14058 0.72943 0.0
C1143 C 0.69027 0.15011 0.71904 0.0
C1144 C 0.74471 0.14139 0.72175 0.0
C1145 C 0.75297 0.14934 0.69529 0.0
C1146 C 0.71113 0.14807 0.71061 0.0
C1147 C 0.7394 0.15566 0.67666 0.0
C1148 C 0.682 0.16378 0.70349 0.0
C1149 C 0.66158 0.14288 0.75239 0.0
N1150 N 0.71928 0.15513 0.68478 0.0
N1151 N 0.6797 0.13993 0.74287 0.0
H1152 H 0.87938 0.51177 0.69168 0.0
H1153 H 0.81297 0.59019 0.71578 0.0
H1154 H 0.82975 0.49846 0.75475 0.0
H1155 H 0.87853 0.62277 0.67434 0.0
H1156 H 0.81977 0.55627 0.72914 0.0
H1157 H 0.8815 0.55291 0.68501 0.0
C1158 C 0.86955 0.51792 0.70469 0.0
C1159 C 0.85429 0.50183 0.72369 0.0
C1160 C 0.83283 0.5708 0.71723 0.0
C1161 C 0.85616 0.54811 0.71583 0.0
C1162 C 0.82882 0.59014 0.70928 0.0
C1163 C 0.84504 0.60921 0.69352 0.0
C1164 C 0.85307 0.57002 0.70909 0.0
C1165 C 0.86551 0.60832 0.68634 0.0
C1166 C 0.87063 0.54124 0.70078 0.0
C1167 C 0.84163 0.51034 0.73981 0.0
N1168 N 0.86883 0.58877 0.69387 0.0
N1169 N 0.84262 0.5327 0.73526 0.0
H1170 H 0.43954 0.8952 0.1838 0.0
H1171 H 0.51173 0.03141 0.12511 0.0
H1172 H 0.45741 0.9643 0.23617 0.0
H1173 H 0.46607 0.96081 0.07153 0.0
H1174 H 0.49637 0.00845 0.16738 0.0
H1175 H 0.45501 0.92026 0.14358 0.0
C1176 C 0.44706 0.91574 0.18692 0.0
C1177 C 0.4473 0.92774 0.21334 0.0
C1178 C 0.48964 0.99815 0.14628 0.0
C1179 C 0.46473 0.95651 0.16729 0.0
C1180 C 0.49832 0.01121 0.12225 0.0
C1181 C 0.49026 0.99793 0.09486 0.0
C1182 C 0.47316 0.97168 0.14269 0.0
C1183 C 0.4729 0.97178 0.09223 0.0
C1184 C 0.45562 0.92999 0.16389 0.0
C1185 C 0.45686 0.95436 0.21606 0.0
N1186 N 0.46515 0.95948 0.11583 0.0
N1187 N 0.4653 0.96795 0.19328 0.0
H1188 H 0.07838 0.55597 0.23794 0.0
H1189 H 0.01209 0.46994 0.08957 0.0
H1190 H 0.08459 0.49107 0.20782 0.0
H1191 H 0.01657 0.54215 0.11263 0.0
H1192 H 0.0353 0.475 0.13503 0.0
H1193 H 0.05222 0.54881 0.19443 0.0
C1194 C 0.07421 0.54017 0.22227 0.0
C1195 C 0.08381 0.52415 0.22664 0.0
C1196 C 0.0312 0.48975 0.13017 0.0
C1197 C 0.05367 0.51574 0.1768 0.0
C1198 C 0.01808 0.48691 0.10417 0.0
C1199 C 0.01275 0.50582 0.09722 0.0
C1200 C 0.03887 0.51158 0.14946 0.0
C1201 C 0.0204 0.52716 0.11717 0.0
C1202 C 0.05921 0.53606 0.19745 0.0
C1203 C 0.0774 0.50373 0.20569 0.0
N1204 N 0.03312 0.5295 0.14236 0.0
N1205 N 0.06283 0.50018 0.1817 0.0
H1206 H 0.50092 0.54544 0.23679 0.0
H1207 H 0.47976 0.52589 0.06689 0.0
H1208 H 0.44647 0.55327 0.18797 0.0
H1209 H 0.52838 0.50907 0.11515 0.0
H1210 H 0.46487 0.53229 0.11116 0.0
H1211 H 0.50882 0.52842 0.19302 0.0
C1212 C 0.49042 0.54327 0.21691 0.0
C1213 C 0.47313 0.55098 0.21601 0.0
C1214 C 0.4786 0.52691 0.11213 0.0
C1215 C 0.48219 0.5317 0.16579 0.0
C1216 C 0.48704 0.52315 0.0868 0.0
C1217 C 0.5053 0.51689 0.08738 0.0
C1218 C 0.48874 0.5248 0.13833 0.0
C1219 C 0.51432 0.51395 0.11382 0.0
C1220 C 0.4949 0.53352 0.19194 0.0
C1221 C 0.45985 0.54745 0.18973 0.0
N1222 N 0.50612 0.51818 0.1383 0.0
N1223 N 0.46487 0.53839 0.16564 0.0
H1224 H 0.89959 0.40169 0.82214 0.0
H1225 H 0.98915 0.51358 0.94256 0.0
H1226 H 0.93085 0.48109 0.80699 0.0
H1227 H 0.9763 0.43641 0.93651 0.0
H1228 H 0.96297 0.50267 0.8973 0.0
H1229 H 0.92223 0.41476 0.86903 0.0
C1230 C 0.91137 0.42194 0.8286 0.0
C1231 C 0.91381 0.4403 0.81021 0.0
C1232 C 0.96594 0.48822 0.90605 0.0
C1233 C 0.93964 0.45549 0.86448 0.0
C1234 C 0.98073 0.49439 0.93181 0.0
C1235 C 0.98494 0.47589 0.9431 0.0
C1236 C 0.95509 0.46331 0.89204 0.0
C1237 C 0.97373 0.45133 0.92843 0.0
C1238 C 0.92422 0.4294 0.85551 0.0
C1239 C 0.92862 0.46631 0.82038 0.0
N1240 N 0.95932 0.44578 0.9038 0.0
N1241 N 0.94118 0.47318 0.84682 0.0
H1242 H 0.5476 0.50766 0.78596 0.0
H1243 H 0.53804 0.49009 0.95177 0.0
H1244 H 0.56179 0.45443 0.82774 0.0
H1245 H 0.4951 0.5149 0.90474 0.0
H1246 H 0.55293 0.48379 0.90741 0.0
H1247 H 0.53346 0.51664 0.83019 0.0
C1248 C 0.54765 0.49785 0.80441 0.0
C1249 C 0.55565 0.48012 0.80319 0.0
C1250 C 0.54029 0.49067 0.90677 0.0
C1251 C 0.54007 0.49062 0.85368 0.0
C1252 C 0.53187 0.49439 0.9321 0.0
C1253 C 0.51516 0.50283 0.93184 0.0
C1254 C 0.53221 0.49572 0.88098 0.0
C1255 C 0.50787 0.50822 0.90576 0.0
C1256 C 0.53957 0.50293 0.82953 0.0
C1257 C 0.55545 0.46795 0.82766 0.0
N1258 N 0.51646 0.50458 0.88127 0.0
N1259 N 0.54795 0.47355 0.85192 0.0
H1260 H 0.51105 0.04367 0.79683 0.0
H1261 H 0.53196 0.04711 0.96442 0.0
H1262 H 0.57136 0.10619 0.84935 0.0
H1263 H 0.48226 0.97771 0.91113 0.0
H1264 H 0.54832 0.06787 0.92204 0.0
H1265 H 0.5017 0.01798 0.83739 0.0
C1266 C 0.52251 0.05184 0.81681 0.0
C1267 C 0.54189 0.07716 0.81982 0.0
C1268 C 0.5341 0.04798 0.91951 0.0
C1269 C 0.53121 0.04801 0.86631 0.0
C1270 C 0.52482 0.03604 0.94378 0.0
C1271 C 0.50582 0.01059 0.94129 0.0
C1272 C 0.52396 0.03457 0.8924 0.0
C1273 C 0.49692 0.99738 0.91394 0.0
C1274 C 0.51722 0.03716 0.83991 0.0
C1275 C 0.55632 0.08673 0.84604 0.0
N1276 N 0.50586 0.00964 0.89047 0.0
N1277 N 0.55047 0.07228 0.86838 0.0
H1278 H 0.11332 0.23224 0.51898 0.0
H1279 H 0.1798 0.36819 0.45854 0.0
H1280 H 0.12849 0.30073 0.57061 0.0
H1281 H 0.13627 0.29658 0.40585 0.0
H1282 H 0.16568 0.34534 0.50118 0.0
H1283 H 0.12767 0.25717 0.47844 0.0
C1284 C 0.12003 0.25264 0.52187 0.0
C1285 C 0.11984 0.2645 0.54817 0.0
C1286 C 0.15915 0.33479 0.48019 0.0
C1287 C 0.13596 0.2931 0.50175 0.0
C1288 C 0.16712 0.34778 0.45595 0.0
C1289 C 0.15929 0.3342 0.4287 0.0
C1290 C 0.14361 0.30812 0.47694 0.0
C1291 C 0.14289 0.3078 0.42643 0.0
C1292 C 0.12795 0.2668 0.49866 0.0
C1293 C 0.12831 0.29092 0.5506 0.0
N1294 N 0.13581 0.2956 0.45021 0.0
N1295 N 0.13613 0.30443 0.52764 0.0
H1296 H 0.72787 0.82422 0.56689 0.0
H1297 H 0.69779 0.88227 0.43573 0.0
H1298 H 0.78196 0.89547 0.53886 0.0
H1299 H 0.67224 0.80138 0.43208 0.0
H1300 H 0.7236 0.88912 0.4797 0.0
H1301 H 0.70193 0.81693 0.52314 0.0
C1302 C 0.73444 0.83835 0.55171 0.0
C1303 C 0.7574 0.86053 0.55688 0.0
C1304 C 0.71229 0.86989 0.46927 0.0
C1305 C 0.72721 0.85253 0.50723 0.0
C1306 C 0.69753 0.86596 0.44435 0.0
C1307 C 0.68293 0.84123 0.43046 0.0
C1308 C 0.71188 0.84885 0.48073 0.0
C1309 C 0.68335 0.82073 0.44224 0.0
C1310 C 0.71949 0.83415 0.52681 0.0
C1311 C 0.76434 0.87836 0.53646 0.0
N1312 N 0.69744 0.82495 0.46696 0.0
N1313 N 0.74927 0.87404 0.5127 0.0
H1314 H 0.14896 0.92949 0.52475 0.0
H1315 H 0.14801 0.82026 0.42001 0.0
H1316 H 0.12292 0.85344 0.54951 0.0
H1317 H 0.1977 0.90125 0.42142 0.0
H1318 H 0.12961 0.82925 0.46032 0.0
H1319 H 0.1565 0.91602 0.47863 0.0
C1320 C 0.1444 0.90977 0.52017 0.0
C1321 C 0.13562 0.89261 0.54099 0.0
C1322 C 0.14442 0.84496 0.45155 0.0
C1323 C 0.14452 0.87712 0.48839 0.0
C1324 C 0.15483 0.83988 0.42861 0.0
C1325 C 0.17447 0.86006 0.41765 0.0
C1326 C 0.15349 0.87041 0.46296 0.0
C1327 C 0.18277 0.88513 0.42948 0.0
C1328 C 0.14882 0.90212 0.49394 0.0
C1329 C 0.12979 0.86721 0.53395 0.0
N1330 N 0.17222 0.88957 0.4514 0.0
N1331 N 0.13467 0.86024 0.50827 0.0
H1332 H 0.60183 0.81835 0.139 0.0
H1333 H 0.63841 0.76778 0.27328 0.0
H1334 H 0.56443 0.73937 0.15675 0.0
H1335 H 0.65546 0.84633 0.27618 0.0
H1336 H 0.61286 0.75802 0.22876 0.0
H1337 H 0.62264 0.83042 0.1878 0.0
C1338 C 0.59776 0.80363 0.15324 0.0
C1339 C 0.5818 0.77775 0.14357 0.0
C1340 C 0.62201 0.77739 0.23912 0.0
C1341 C 0.60561 0.79132 0.19896 0.0
C1342 C 0.63672 0.78299 0.26447 0.0
C1343 C 0.64909 0.8079 0.27826 0.0
C1344 C 0.61996 0.79694 0.22702 0.0
C1345 C 0.64611 0.82686 0.2661 0.0
C1346 C 0.60966 0.81052 0.181 0.0
C1347 C 0.57713 0.75947 0.16294 0.0
N1348 N 0.63203 0.82108 0.24087 0.0
N1349 N 0.58918 0.76655 0.18946 0.0
H1350 H 0.21071 0.83428 0.12267 0.0
H1351 H 0.20837 0.82866 0.2909 0.0
H1352 H 0.24108 0.7964 0.16964 0.0
H1353 H 0.15128 0.82888 0.23854 0.0
H1354 H 0.22645 0.82538 0.24781 0.0
H1355 H 0.19432 0.84081 0.16622 0.0
C1356 C 0.21403 0.82755 0.14226 0.0
C1357 C 0.22714 0.81478 0.14278 0.0
C1358 C 0.21007 0.82635 0.24577 0.0
C1359 C 0.20889 0.82237 0.19236 0.0
C1360 C 0.19994 0.82856 0.27036 0.0
C1361 C 0.17862 0.82956 0.26821 0.0
C1362 C 0.19891 0.82543 0.21886 0.0
C1363 C 0.16785 0.82832 0.24098 0.0
C1364 C 0.20464 0.83115 0.16695 0.0
C1365 C 0.23098 0.80628 0.16852 0.0
N1366 N 0.17822 0.82652 0.21729 0.0
N1367 N 0.22201 0.81035 0.19237 0.0
H1368 H 0.17055 0.37548 0.12928 0.0
H1369 H 0.19869 0.38151 0.29611 0.0
H1370 H 0.23409 0.43755 0.17781 0.0
H1371 H 0.14762 0.31125 0.2451 0.0
H1372 H 0.21293 0.40163 0.25262 0.0
H1373 H 0.1625 0.35079 0.17067 0.0
C1374 C 0.18294 0.38376 0.14856 0.0
C1375 C 0.20294 0.40863 0.15019 0.0
C1376 C 0.19886 0.38169 0.25085 0.0
C1377 C 0.19377 0.38066 0.1976 0.0
C1378 C 0.19078 0.37016 0.27572 0.0
C1379 C 0.172 0.34467 0.27417 0.0
C1380 C 0.18774 0.36779 0.22417 0.0
C1381 C 0.16215 0.33097 0.24718 0.0
C1382 C 0.1784 0.36965 0.1721 0.0
C1383 C 0.21855 0.4184 0.17556 0.0
N1384 N 0.16991 0.34282 0.22317 0.0
N1385 N 0.21346 0.40453 0.19837 0.0
H1386 H 0.76904 0.56159 0.85062 0.0
H1387 H 0.83955 0.69616 0.78761 0.0
H1388 H 0.78488 0.63172 0.89908 0.0
H1389 H 0.79899 0.62389 0.73542 0.0
H1390 H 0.8228 0.67398 0.82985 0.0
H1391 H 0.78388 0.58513 0.80913 0.0
C1392 C 0.77582 0.58201 0.85253 0.0
C1393 C 0.77587 0.59478 0.87828 0.0
C1394 C 0.81746 0.66311 0.80906 0.0
C1395 C 0.79277 0.62186 0.8309 0.0
C1396 C 0.82697 0.67573 0.78502 0.0
C1397 C 0.82069 0.66182 0.75805 0.0
C1398 C 0.80192 0.63642 0.80596 0.0
C1399 C 0.80436 0.63538 0.75579 0.0
C1400 C 0.78409 0.5954 0.82881 0.0
C1401 C 0.78451 0.6212 0.87952 0.0
N1402 N 0.79574 0.62353 0.77944 0.0
N1403 N 0.7928 0.63396 0.85617 0.0
H1404 H 0.4099 0.21742 0.90267 0.0
H1405 H 0.35036 0.13493 0.75108 0.0
H1406 H 0.42326 0.15796 0.87055 0.0
H1407 H 0.35359 0.2064 0.77474 0.0
H1408 H 0.37249 0.1394 0.79729 0.0
H1409 H 0.38439 0.20986 0.85851 0.0
C1410 C 0.40745 0.20273 0.88641 0.0
C1411 C 0.41895 0.18844 0.8904 0.0
C1412 C 0.36835 0.1541 0.79235 0.0
C1413 C 0.38945 0.17948 0.83978 0.0
C1414 C 0.35588 0.15162 0.76593 0.0
C1415 C 0.3506 0.17056 0.7589 0.0
C1416 C 0.37527 0.17553 0.812 0.0
C1417 C 0.35745 0.19143 0.77926 0.0
C1418 C 0.39281 0.19837 0.86121 0.0
C1419 C 0.41462 0.16928 0.86869 0.0
N1420 N 0.36946 0.19338 0.80485 0.0
N1421 N 0.40031 0.16544 0.84431 0.0
H1422 H 0.83541 0.26965 0.86479 0.0
H1423 H 0.82062 0.15721 0.75245 0.0
H1424 H 0.78944 0.19006 0.87684 0.0
H1425 H 0.87628 0.2365 0.75608 0.0
H1426 H 0.80483 0.168 0.79419 0.0
H1427 H 0.84618 0.25701 0.82083 0.0
C1428 C 0.82769 0.24943 0.85824 0.0
C1429 C 0.81196 0.23088 0.87489 0.0
C1430 C 0.82045 0.18297 0.78572 0.0
C1431 C 0.82406 0.21614 0.82404 0.0
C1432 C 0.82934 0.17686 0.76189 0.0
C1433 C 0.84973 0.19602 0.75091 0.0
C1434 C 0.83202 0.20842 0.79829 0.0
C1435 C 0.86062 0.22111 0.76401 0.0
C1436 C 0.83377 0.2422 0.83301 0.0
C1437 C 0.80182 0.20496 0.86473 0.0
N1438 N 0.85163 0.22655 0.78691 0.0
N1439 N 0.8082 0.19829 0.83999 0.0
H1440 H 0.24077 0.13441 0.49017 0.0
H1441 H 0.3297 0.11227 0.58685 0.0
H1442 H 0.28663 0.10929 0.4545 0.0
H1443 H 0.32537 0.17984 0.60874 0.0
H1444 H 0.309 0.10715 0.53986 0.0
H1445 H 0.26718 0.14887 0.53536 0.0
C1446 C 0.25656 0.13234 0.49158 0.0
C1447 C 0.26116 0.1201 0.46858 0.0
C1448 C 0.31258 0.12313 0.55493 0.0
C1449 C 0.29091 0.13602 0.52024 0.0
C1450 C 0.32434 0.12605 0.58179 0.0
C1451 C 0.32883 0.14623 0.60195 0.0
C1452 C 0.30475 0.1402 0.5482 0.0
C1453 C 0.3216 0.16359 0.59409 0.0
C1454 C 0.27153 0.14052 0.51739 0.0
C1455 C 0.28187 0.11785 0.47184 0.0
N1456 N 0.3095 0.15996 0.56788 0.0
N1457 N 0.29566 0.12525 0.49728 0.0
H1458 H 0.88323 0.10241 0.48932 0.0
H1459 H 0.87218 0.19874 0.6014 0.0
H1460 H 0.90597 0.18045 0.47375 0.0
H1461 H 0.82444 0.11701 0.59498 0.0
H1462 H 0.89017 0.19332 0.55898 0.0
H1463 H 0.86671 0.10834 0.53244 0.0
C1464 C 0.88468 0.12076 0.49475 0.0
C1465 C 0.89589 0.14087 0.47746 0.0
C1466 C 0.87575 0.17659 0.56687 0.0
C1467 C 0.87751 0.14791 0.5275 0.0
C1468 C 0.8656 0.17966 0.59109 0.0
C1469 C 0.84687 0.15827 0.6016 0.0
C1470 C 0.8673 0.15192 0.55336 0.0
C1471 C 0.83878 0.13398 0.58739 0.0
C1472 C 0.87535 0.12414 0.51954 0.0
C1473 C 0.8978 0.16443 0.4864 0.0
N1474 N 0.84914 0.13143 0.56408 0.0
N1475 N 0.88875 0.16731 0.51079 0.0
H1476 H 0.904 0.77482 0.51586 0.0
H1477 H 0.81322 0.64197 0.57444 0.0
H1478 H 0.84068 0.71425 0.46536 0.0
H1479 H 0.86489 0.71039 0.62786 0.0
H1480 H 0.82852 0.66455 0.53213 0.0
H1481 H 0.89547 0.74751 0.55473 0.0
C1482 C 0.88855 0.75559 0.51274 0.0
C1483 C 0.87291 0.74687 0.48742 0.0
C1484 C 0.83673 0.67444 0.55315 0.0
C1485 C 0.86287 0.71561 0.53198 0.0
C1486 C 0.82808 0.66155 0.57725 0.0
C1487 C 0.83779 0.67437 0.60465 0.0
C1488 C 0.8553 0.70021 0.5566 0.0
C1489 C 0.85696 0.69975 0.60714 0.0
C1490 C 0.88359 0.74008 0.53502 0.0
C1491 C 0.853 0.72185 0.48471 0.0
N1492 N 0.86498 0.71188 0.58345 0.0
N1493 N 0.84844 0.70715 0.5068 0.0
loop_
_geom_bond_atom_site_label_1
_geom_bond_atom_site_label_2
_geom_bond_distance
_geom_bond_site_symmetry_2
_ccdc_geom_bond_type
H0 C1 0.949 . S
C1 H0 0.949 . S
C1 C2 1.395 . S
C1 C3 1.391 . S
C2 C1 1.395 . S
C2 C5 1.390 . S
C3 C1 1.391 . S
C3 C7 1.387 . S
C3 C8 1.491 . S
H4 C5 0.950 . S
C5 C2 1.390 . S
C5 H4 0.950 . S
C5 C6 1.378 . S
C6 C5 1.378 . S
C6 C7 1.409 . S
C7 C3 1.387 . S
C7 C6 1.409 . S
C7 H9 0.951 . S
C8 C3 1.491 . S
C8 C10 1.382 . S
C8 C12 1.404 . S
H9 C7 0.951 . S
C10 C8 1.382 . S
C10 C11 1.390 . S
C10 H15 0.949 . S
C11 C10 1.390 . S
C11 C16 1.399 . S
C12 C8 1.404 . S
C12 H13 0.950 . S
C12 C14 1.375 . S
H13 C12 0.950 . S
C14 C12 1.375 . S
C14 C16 1.382 . S
C14 H18 0.950 . S
H15 C10 0.949 . S
C16 C11 1.399 . S
C16 C14 1.382 . S
C16 H17 0.952 . S
H17 C16 0.952 . S
H18 C14 0.950 . S
H19 C20 0.949 . S
C20 H19 0.949 . S
C20 C21 1.395 . S
C20 C22 1.391 . S
C21 C20 1.395 . S
C21 C24 1.390 . S
C22 C20 1.391 . S
C22 C26 1.387 . S
C22 C27 1.491 . S
H23 C24 0.950 . S
C24 C21 1.390 . S
C24 H23 0.950 . S
C24 C25 1.378 . S
C25 C24 1.378 . S
C25 C26 1.409 . S
C26 C22 1.387 . S
C26 C25 1.409 . S
C26 H28 0.951 . S
C27 C22 1.491 . S
C27 C29 1.382 . S
C27 C31 1.404 . S
H28 C26 0.951 . S
C29 C27 1.382 . S
C29 C30 1.390 . S
C29 H34 0.949 . S
C30 C29 1.390 . S
C30 C35 1.399 . S
C31 C27 1.404 . S
C31 H32 0.950 . S
C31 C33 1.375 . S
H32 C31 0.950 . S
C33 C31 1.375 . S
C33 C35 1.382 . S
C33 H37 0.950 . S
H34 C29 0.949 . S
C35 C30 1.399 . S
C35 C33 1.382 . S
C35 H36 0.952 . S
H36 C35 0.952 . S
H37 C33 0.950 . S
H38 C39 0.949 . S
C39 H38 0.949 . S
C39 C40 1.395 . S
C39 C41 1.391 . S
C40 C39 1.395 . S
C40 C43 1.390 . S
C41 C39 1.391 . S
C41 C45 1.387 . S
C41 C46 1.491 . S
H42 C43 0.950 . S
C43 C40 1.390 . S
C43 H42 0.950 . S
C43 C44 1.378 . S
C44 C43 1.378 . S
C44 C45 1.409 . S
C45 C41 1.387 . S
C45 C44 1.409 . S
C45 H47 0.951 . S
C46 C41 1.491 . S
C46 C48 1.382 . S
C46 C50 1.404 . S
H47 C45 0.951 . S
C48 C46 1.382 . S
C48 C49 1.390 . S
C48 H53 0.949 . S
C49 C48 1.390 . S
C49 C54 1.399 . S
C50 C46 1.404 . S
C50 H51 0.950 . S
C50 C52 1.375 . S
H51 C50 0.950 . S
C52 C50 1.375 . S
C52 C54 1.382 . S
C52 H56 0.950 . S
H53 C48 0.949 . S
C54 C49 1.399 . S
C54 C52 1.382 . S
C54 H55 0.952 . S
H55 C54 0.952 . S
H56 C52 0.950 . S
H57 C58 0.949 . S
C58 H57 0.949 . S
C58 C59 1.395 . S
C58 C60 1.391 . S
C59 C58 1.395 . S
C59 C62 1.390 . S
C60 C58 1.391 . S
C60 C64 1.387 . S
C60 C65 1.491 . S
H61 C62 0.950 . S
C62 C59 1.390 . S
C62 H61 0.950 . S
C62 C63 1.378 . S
C63 C62 1.378 . S
C63 C64 1.409 . S
C64 C60 1.387 . S
C64 C63 1.409 . S
C64 H66 0.951 . S
C65 C60 1.491 . S
C65 C67 1.382 . S
C65 C69 1.404 . S
H66 C64 0.951 . S
C67 C65 1.382 . S
C67 C68 1.390 . S
C67 H72 0.949 . S
C68 C67 1.390 . S
C68 C73 1.399 . S
C69 C65 1.404 . S
C69 H70 0.950 . S
C69 C71 1.375 . S
H70 C69 0.950 . S
C71 C69 1.375 . S
C71 C73 1.382 . S
C71 H75 0.950 . S
H72 C67 0.949 . S
C73 C68 1.399 . S
C73 C71 1.382 . S
C73 H74 0.952 . S
H74 C73 0.952 . S
H75 C71 0.950 . S
H76 C77 0.949 . S
C77 H76 0.949 . S
C77 C78 1.395 . S
C77 C79 1.391 . S
C78 C77 1.395 . S
C78 C81 1.390 . S
C79 C77 1.391 . S
C79 C83 1.387 . S
C79 C84 1.491 . S
H80 C81 0.950 . S
C81 C78 1.390 . S
C81 H80 0.950 . S
C81 C82 1.378 . S
C82 C81 1.378 . S
C82 C83 1.409 . S
C83 C79 1.387 . S
C83 C82 1.409 . S
C83 H85 0.951 . S
C84 C79 1.491 . S
C84 C86 1.382 . S
C84 C88 1.404 . S
H85 C83 0.951 . S
C86 C84 1.382 . S
C86 C87 1.390 . S
C86 H91 0.949 . S
C87 C86 1.390 . S
C87 C92 1.399 . S
C88 C84 1.404 . S
C88 H89 0.950 . S
C88 C90 1.375 . S
H89 C88 0.950 . S
C90 C88 1.375 . S
C90 C92 1.382 . S
C90 H94 0.950 . S
H91 C86 0.949 . S
C92 C87 1.399 . S
C92 C90 1.382 . S
C92 H93 0.952 . S
H93 C92 0.952 . S
H94 C90 0.950 . S
H95 C96 0.949 . S
C96 H95 0.949 . S
C96 C97 1.395 . S
C96 C98 1.391 . S
C97 C96 1.395 . S
C97 C100 1.390 . S
C98 C96 1.391 . S
C98 C102 1.387 . S
C98 C103 1.491 . S
H99 C100 0.950 . S
C100 C97 1.390 . S
C100 H99 0.950 . S
C100 C101 1.378 . S
C101 C100 1.378 . S
C101 C102 1.409 . S
C102 C98 1.387 . S
C102 C101 1.409 . S
C102 H104 0.951 . S
C103 C98 1.491 . S
C103 C105 1.382 . S
C103 C107 1.404 . S
H104 C102 0.951 . S
C105 C103 1.382 . S
C105 C106 1.390 . S
C105 H110 0.949 . S
C106 C105 1.390 . S
C106 C111 1.399 . S
C107 C103 1.404 . S
C107 H108 0.950 . S
C107 C109 1.375 . S
H108 C107 0.950 . S
C109 C107 1.375 . S
C109 C111 1.382 . S
C109 H113 0.950 . S
H110 C105 0.949 . S
C111 C106 1.399 . S
C111 C109 1.382 . S
C111 H112 0.952 . S
H112 C111 0.952 . S
H113 C109 0.950 . S
H114 C115 0.949 . S
C115 H114 0.949 . S
C115 C116 1.395 . S
C115 C117 1.391 . S
C116 C115 1.395 . S
C116 C119 1.390 . S
C117 C115 1.391 . S
C117 C121 1.387 . S
C117 C122 1.491 . S
H118 C119 0.950 . S
C119 C116 1.390 . S
C119 H118 0.950 . S
C119 C120 1.378 . S
C120 C119 1.378 . S
C120 C121 1.409 . S
C121 C117 1.387 . S
C121 C120 1.409 . S
C121 H123 0.951 . S
C122 C117 1.491 . S
C122 C124 1.382 . S
C122 C126 1.404 . S
H123 C121 0.951 . S
C124 C122 1.382 . S
C124 C125 1.390 . S
C124 H129 0.949 . S
C125 C124 1.390 . S
C125 C130 1.399 . S
C126 C122 1.404 . S
C126 H127 0.950 . S
C126 C128 1.375 . S
H127 C126 0.950 . S
C128 C126 1.375 . S
C128 C130 1.382 . S
C128 H132 0.950 . S
H129 C124 0.949 . S
C130 C125 1.399 . S
C130 C128 1.382 . S
C130 H131 0.952 . S
H131 C130 0.952 . S
H132 C128 0.950 . S
H133 C134 0.949 . S
C134 H133 0.949 . S
C134 C135 1.395 . S
C134 C136 1.391 . S
C135 C134 1.395 . S
C135 C138 1.390 . S
C136 C134 1.391 . S
C136 C140 1.387 . S
C136 C141 1.491 . S
H137 C138 0.950 . S
C138 C135 1.390 . S
C138 H137 0.950 . S
C138 C139 1.378 . S
C139 C138 1.378 . S
C139 C140 1.409 . S
C140 C136 1.387 . S
C140 C139 1.409 . S
C140 H142 0.951 . S
C141 C136 1.491 . S
C141 C143 1.382 . S
C141 C145 1.404 . S
H142 C140 0.951 . S
C143 C141 1.382 . S
C143 C144 1.390 . S
C143 H148 0.949 . S
C144 C143 1.390 . S
C144 C149 1.399 . S
C145 C141 1.404 . S
C145 H146 0.950 . S
C145 C147 1.375 . S
H146 C145 0.950 . S
C147 C145 1.375 . S
C147 C149 1.382 . S
C147 H151 0.950 . S
H148 C143 0.949 . S
C149 C144 1.399 . S
C149 C147 1.382 . S
C149 H150 0.952 . S
H150 C149 0.952 . S
H151 C147 0.950 . S
H152 C153 0.949 . S
C153 H152 0.949 . S
C153 C154 1.395 . S
C153 C155 1.391 . S
C154 C153 1.395 . S
C154 C157 1.390 . S
C155 C153 1.391 . S
C155 C159 1.387 . S
C155 C160 1.491 . S
H156 C157 0.950 . S
C157 C154 1.390 . S
C157 H156 0.950 . S
C157 C158 1.378 . S
C158 C157 1.378 . S
C158 C159 1.409 . S
C159 C155 1.387 . S
C159 C158 1.409 . S
C159 H161 0.951 . S
C160 C155 1.491 . S
C160 C162 1.382 . S
C160 C164 1.404 . S
H161 C159 0.951 . S
C162 C160 1.382 . S
C162 C163 1.390 . S
C162 H167 0.949 . S
C163 C162 1.390 . S
C163 C168 1.399 . S
C164 C160 1.404 . S
C164 H165 0.950 . S
C164 C166 1.375 . S
H165 C164 0.950 . S
C166 C164 1.375 . S
C166 C168 1.382 . S
C166 H170 0.950 . S
H167 C162 0.949 . S
C168 C163 1.399 . S
C168 C166 1.382 . S
C168 H169 0.952 . S
H169 C168 0.952 . S
H170 C166 0.950 . S
H171 C172 0.949 . S
C172 H171 0.949 . S
C172 C173 1.395 . S
C172 C174 1.391 . S
C173 C172 1.395 . S
C173 C176 1.390 . S
C174 C172 1.391 . S
C174 C178 1.387 . S
C174 C179 1.491 . S
H175 C176 0.950 . S
C176 C173 1.390 . S
C176 H175 0.950 . S
C176 C177 1.378 . S
C177 C176 1.378 . S
C177 C178 1.409 . S
C178 C174 1.387 . S
C178 C177 1.409 . S
C178 H180 0.951 . S
C179 C174 1.491 . S
C179 C181 1.382 . S
C179 C183 1.404 . S
H180 C178 0.951 . S
C181 C179 1.382 . S
C181 C182 1.390 . S
C181 H186 0.949 . S
C182 C181 1.390 . S
C182 C187 1.399 . S
C183 C179 1.404 . S
C183 H184 0.950 . S
C183 C185 1.375 . S
H184 C183 0.950 . S
C185 C183 1.375 . S
C185 C187 1.382 . S
C185 H189 0.950 . S
H186 C181 0.949 . S
C187 C182 1.399 . S
C187 C185 1.382 . S
C187 H188 0.952 . S
H188 C187 0.952 . S
H189 C185 0.950 . S
H190 C191 0.949 . S
C191 H190 0.949 . S
C191 C192 1.395 . S
C191 C193 1.391 . S
C192 C191 1.395 . S
C192 C195 1.390 . S
C193 C191 1.391 . S
C193 C197 1.387 . S
C193 C198 1.491 . S
H194 C195 0.950 . S
C195 C192 1.390 . S
C195 H194 0.950 . S
C195 C196 1.378 . S
C196 C195 1.378 . S
C196 C197 1.409 . S
C197 C193 1.387 . S
C197 C196 1.409 . S
C197 H199 0.951 1_556 S
C198 C193 1.491 . S
C198 C200 1.382 . S
C198 C202 1.404 1_556 S
H199 C197 0.951 1_554 S
C200 C198 1.382 . S
C200 C201 1.390 1_556 S
C200 H205 0.949 . S
C201 C200 1.390 1_554 S
C201 C206 1.399 . S
C202 C198 1.404 1_554 S
C202 H203 0.950 . S
C202 C204 1.375 . S
H203 C202 0.950 . S
C204 C202 1.375 . S
C204 C206 1.382 . S
C204 H208 0.950 . S
H205 C200 0.949 . S
C206 C201 1.399 . S
C206 C204 1.382 . S
C206 H207 0.952 . S
H207 C206 0.952 . S
H208 C204 0.950 . S
H209 C210 0.949 . S
C210 H209 0.949 . S
C210 C211 1.395 . S
C210 C212 1.391 . S
C211 C210 1.395 . S
C211 C214 1.390 . S
C212 C210 1.391 . S
C212 C216 1.387 . S
C212 C217 1.491 . S
H213 C214 0.950 . S
C214 C211 1.390 . S
C214 H213 0.950 . S
C214 C215 1.378 . S
C215 C214 1.378 . S
C215 C216 1.409 . S
C216 C212 1.387 . S
C216 C215 1.409 . S
C216 H218 0.951 . S
C217 C212 1.491 . S
C217 C219 1.382 . S
C217 C221 1.404 . S
H218 C216 0.951 . S
C219 C217 1.382 . S
C219 C220 1.390 . S
C219 H224 0.949 . S
C220 C219 1.390 . S
C220 C225 1.399 . S
C221 C217 1.404 . S
C221 H222 0.950 . S
C221 C223 1.375 . S
H222 C221 0.950 . S
C223 C221 1.375 . S
C223 C225 1.382 . S
C223 H227 0.950 . S
H224 C219 0.949 . S
C225 C220 1.399 . S
C225 C223 1.382 . S
C225 H226 0.952 . S
H226 C225 0.952 . S
H227 C223 0.950 . S
H228 C229 0.949 . S
C229 H228 0.949 . S
C229 C230 1.395 . S
C229 C231 1.391 . S
C230 C229 1.395 . S
C230 C233 1.390 . S
C231 C229 1.391 . S
C231 C235 1.387 . S
C231 C236 1.491 . S
H232 C233 0.950 . S
C233 C230 1.390 . S
C233 H232 0.950 . S
C233 C234 1.378 . S
C234 C233 1.378 . S
C234 C235 1.409 . S
C235 C231 1.387 . S
C235 C234 1.409 . S
C235 H237 0.951 . S
C236 C231 1.491 . S
C236 C238 1.382 . S
C236 C240 1.404 . S
H237 C235 0.951 . S
C238 C236 1.382 . S
C238 C239 1.390 . S
C238 H243 0.949 . S
C239 C238 1.390 . S
C239 C244 1.399 . S
C240 C236 1.404 . S
C240 H241 0.950 . S
C240 C242 1.375 . S
H241 C240 0.950 . S
C242 C240 1.375 . S
C242 C244 1.382 . S
C242 H246 0.950 . S
H243 C238 0.949 . S
C244 C239 1.399 . S
C244 C242 1.382 . S
C244 H245 0.952 . S
H245 C244 0.952 . S
H246 C242 0.950 . S
H247 C248 0.949 . S
C248 H247 0.949 . S
C248 C249 1.395 . S
C248 C250 1.391 . S
C249 C248 1.395 . S
C249 C252 1.390 . S
C250 C248 1.391 . S
C250 C254 1.387 . S
C250 C255 1.491 . S
H251 C252 0.950 . S
C252 C249 1.390 . S
C252 H251 0.950 . S
C252 C253 1.378 . S
C253 C252 1.378 . S
C253 C254 1.409 . S
C254 C250 1.387 . S
C254 C253 1.409 . S
C254 H256 0.951 . S
C255 C250 1.491 . S
C255 C257 1.382 . S
C255 C259 1.404 . S
H256 C254 0.951 . S
C257 C255 1.382 . S
C257 C258 1.390 . S
C257 H262 0.949 . S
C258 C257 1.390 . S
C258 C263 1.399 . S
C259 C255 1.404 . S
C259 H260 0.950 . S
C259 C261 1.375 . S
H260 C259 0.950 . S
C261 C259 1.375 . S
C261 C263 1.382 . S
C261 H265 0.950 . S
H262 C257 0.949 . S
C263 C258 1.399 . S
C263 C261 1.382 . S
C263 H264 0.952 . S
H264 C263 0.952 . S
H265 C261 0.950 . S
H266 C267 0.949 . S
C267 H266 0.949 . S
C267 C268 1.395 . S
C267 C269 1.391 . S
C268 C267 1.395 . S
C268 C271 1.390 . S
C269 C267 1.391 . S
C269 C273 1.387 . S
C269 C274 1.491 . S
H270 C271 0.950 . S
C271 C268 1.390 . S
C271 H270 0.950 . S
C271 C272 1.378 . S
C272 C271 1.378 . S
C272 C273 1.409 . S
C273 C269 1.387 . S
C273 C272 1.409 . S
C273 H275 0.951 . S
C274 C269 1.491 . S
C274 C276 1.382 . S
C274 C278 1.404 . S
H275 C273 0.951 . S
C276 C274 1.382 . S
C276 C277 1.390 . S
C276 H281 0.949 . S
C277 C276 1.390 . S
C277 C282 1.399 . S
C278 C274 1.404 . S
C278 H279 0.950 . S
C278 C280 1.375 . S
H279 C278 0.950 . S
C280 C278 1.375 . S
C280 C282 1.382 . S
C280 H284 0.950 . S
H281 C276 0.949 . S
C282 C277 1.399 . S
C282 C280 1.382 . S
C282 H283 0.952 . S
H283 C282 0.952 . S
H284 C280 0.950 . S
H285 C286 0.949 . S
C286 H285 0.949 . S
C286 C287 1.395 . S
C286 C288 1.391 . S
C287 C286 1.395 . S
C287 C290 1.390 . S
C288 C286 1.391 . S
C288 C292 1.387 . S
C288 C293 1.491 . S
H289 C290 0.950 . S
C290 C287 1.390 . S
C290 H289 0.950 . S
C290 C291 1.378 . S
C291 C290 1.378 . S
C291 C292 1.409 . S
C292 C288 1.387 . S
C292 C291 1.409 . S
C292 H294 0.951 . S
C293 C288 1.491 . S
C293 C295 1.382 . S
C293 C297 1.404 . S
H294 C292 0.951 . S
C295 C293 1.382 . S
C295 C296 1.390 . S
C295 H300 0.949 . S
C296 C295 1.390 . S
C296 C301 1.399 . S
C297 C293 1.404 . S
C297 H298 0.950 . S
C297 C299 1.375 . S
H298 C297 0.950 . S
C299 C297 1.375 . S
C299 C301 1.382 . S
C299 H303 0.950 . S
H300 C295 0.949 . S
C301 C296 1.399 . S
C301 C299 1.382 . S
C301 H302 0.952 . S
H302 C301 0.952 . S
H303 C299 0.950 . S
H304 C305 0.949 . S
C305 H304 0.949 . S
C305 C306 1.395 . S
C305 C307 1.391 . S
C306 C305 1.395 . S
C306 C309 1.390 . S
C307 C305 1.391 . S
C307 C311 1.387 . S
C307 C312 1.491 . S
H308 C309 0.950 . S
C309 C306 1.390 . S
C309 H308 0.950 . S
C309 C310 1.378 . S
C310 C309 1.378 . S
C310 C311 1.409 . S
C311 C307 1.387 . S
C311 C310 1.409 . S
C311 H313 0.951 . S
C312 C307 1.491 . S
C312 C314 1.382 . S
C312 C316 1.404 . S
H313 C311 0.951 . S
C314 C312 1.382 . S
C314 C315 1.390 . S
C314 H319 0.949 . S
C315 C314 1.390 . S
C315 C320 1.399 . S
C316 C312 1.404 . S
C316 H317 0.950 . S
C316 C318 1.375 . S
H317 C316 0.950 . S
C318 C316 1.375 . S
C318 C320 1.382 . S
C318 H322 0.950 . S
H319 C314 0.949 . S
C320 C315 1.399 . S
C320 C318 1.382 . S
C320 H321 0.952 . S
H321 C320 0.952 . S
H322 C318 0.950 . S
H323 C324 0.949 . S
C324 H323 0.949 . S
C324 C325 1.395 . S
C324 C326 1.391 . S
C325 C324 1.395 . S
C325 C328 1.390 . S
C326 C324 1.391 . S
C326 C330 1.387 . S
C326 C331 1.491 . S
H327 C328 0.950 . S
C328 C325 1.390 . S
C328 H327 0.950 . S
C328 C329 1.378 . S
C329 C328 1.378 . S
C329 C330 1.409 . S
C330 C326 1.387 . S
C330 C329 1.409 . S
C330 H332 0.951 . S
C331 C326 1.491 . S
C331 C333 1.382 . S
C331 C335 1.404 . S
H332 C330 0.951 . S
C333 C331 1.382 . S
C333 C334 1.390 . S
C333 H338 0.949 . S
C334 C333 1.390 . S
C334 C339 1.399 . S
C335 C331 1.404 . S
C335 H336 0.950 . S
C335 C337 1.375 . S
H336 C335 0.950 . S
C337 C335 1.375 . S
C337 C339 1.382 . S
C337 H341 0.950 . S
H338 C333 0.949 . S
C339 C334 1.399 . S
C339 C337 1.382 . S
C339 H340 0.952 . S
H340 C339 0.952 . S
H341 C337 0.950 . S
Tb342 O345 2.453 . S
Tb342 O346 2.596 1_545 S
Tb342 O347 2.374 1_545 S
Tb342 O355 2.343 1_554 S
Tb342 O357 2.353 . S
Tb342 O359 2.427 . S
Tb342 O360 2.513 . S
C343 O347 1.251 . S
C343 O349 1.263 1_554 S
Tb344 O346 2.343 1_556 S
Tb344 O349 2.353 . S
Tb344 O352 2.427 1_556 S
Tb344 O353 2.513 1_556 S
Tb344 O354 2.453 . S
Tb344 O355 2.596 1_565 S
Tb344 O356 2.374 1_566 S
O345 Tb342 2.453 . S
O345 C361 1.245 1_545 S
O346 Tb342 2.596 1_565 S
O346 Tb344 2.343 1_554 S
O346 C361 1.259 . S
O347 Tb342 2.374 1_565 S
O347 C343 1.251 . S
C348 O352 1.275 . S
C348 O353 1.246 . S
O349 C343 1.263 1_556 S
O349 Tb344 2.353 . S
C350 O354 1.245 1_545 S
C350 O355 1.259 . S
C351 O356 1.250 . S
C351 O357 1.263 . S
O352 Tb344 2.427 1_554 S
O352 C348 1.275 . S
O353 Tb344 2.513 1_554 S
O353 C348 1.246 . S
O354 Tb344 2.453 . S
O354 C350 1.245 1_565 S
O355 Tb342 2.343 1_556 S
O355 Tb344 2.596 1_545 S
O355 C350 1.259 . S
O356 Tb344 2.374 1_544 S
O356 C351 1.250 . S
O357 Tb342 2.353 . S
O357 C351 1.263 . S
C358 O359 1.275 . S
C358 O360 1.246 . S
O359 Tb342 2.427 . S
O359 C358 1.275 . S
O360 Tb342 2.513 . S
O360 C358 1.246 . S
C361 O345 1.245 1_565 S
C361 O346 1.259 . S
Tb362 O365 2.453 . S
Tb362 O366 2.596 1_655 S
Tb362 O367 2.374 1_655 S
Tb362 O375 2.343 1_554 S
Tb362 O377 2.353 . S
Tb362 O379 2.427 . S
Tb362 O380 2.513 1_554 S
C363 O367 1.251 . S
C363 O369 1.255 1_554 S
Tb364 O366 2.343 1_556 S
Tb364 O369 2.354 . S
Tb364 O372 2.427 1_556 S
Tb364 O373 2.513 1_556 S
Tb364 O374 2.453 . S
Tb364 O375 2.596 1_455 S
Tb364 O376 2.381 1_455 S
O365 Tb362 2.453 . S
O365 C381 1.245 1_655 S
O366 Tb362 2.596 1_455 S
O366 Tb364 2.343 1_554 S
O366 C381 1.259 . S
O367 Tb362 2.374 1_455 S
O367 C363 1.251 . S
C368 O372 1.275 . S
C368 O373 1.246 . S
O369 C363 1.255 1_556 S
O369 Tb364 2.354 . S
C370 O374 1.245 1_655 S
C370 O375 1.259 . S
C371 O376 1.242 1_554 S
C371 O377 1.263 . S
O372 Tb364 2.427 1_554 S
O372 C368 1.275 . S
O373 Tb364 2.513 1_554 S
O373 C368 1.246 . S
O374 Tb364 2.453 . S
O374 C370 1.245 1_455 S
O375 Tb362 2.343 1_556 S
O375 Tb364 2.596 1_655 S
O375 C370 1.259 . S
O376 Tb364 2.381 1_655 S
O376 C371 1.242 1_556 S
O377 Tb362 2.353 . S
O377 C371 1.263 . S
C378 O379 1.275 1_556 S
C378 O380 1.246 . S
O379 Tb362 2.427 . S
O379 C378 1.275 1_554 S
O380 Tb362 2.513 1_556 S
O380 C378 1.246 . S
C381 O365 1.245 1_455 S
C381 O366 1.259 . S
Tb382 O385 2.491 . S
Tb382 O386 2.606 . S
Tb382 O387 2.365 1_556 S
Tb382 O395 2.307 1_556 S
Tb382 O397 2.354 1_556 S
Tb382 O399 2.407 1_556 S
Tb382 O400 2.484 1_556 S
C383 O387 1.251 . S
C383 O389 1.263 . S
Tb384 O386 2.343 1_554 S
Tb384 O389 2.353 . S
Tb384 O392 2.427 . S
Tb384 O393 2.513 . S
Tb384 O394 2.453 . S
Tb384 O395 2.596 . S
Tb384 O396 2.374 . S
O385 Tb382 2.491 . S
O385 C401 1.245 . S
O386 Tb382 2.606 . S
O386 Tb384 2.343 1_556 S
O386 C401 1.259 . S
O387 Tb382 2.365 1_554 S
O387 C383 1.251 . S
C388 O392 1.288 . S
C388 O393 1.249 . S
O389 C383 1.263 . S
O389 Tb384 2.353 . S
C390 O394 1.245 . S
C390 O395 1.259 . S
C391 O396 1.250 . S
C391 O397 1.263 . S
O392 Tb384 2.427 . S
O392 C388 1.288 . S
O393 Tb384 2.513 . S
O393 C388 1.249 . S
O394 Tb384 2.453 . S
O394 C390 1.245 . S
O395 Tb382 2.307 1_554 S
O395 Tb384 2.596 . S
O395 C390 1.259 . S
O396 Tb384 2.374 . S
O396 C391 1.250 . S
O397 Tb382 2.354 1_554 S
O397 C391 1.263 . S
C398 O399 1.275 . S
C398 O400 1.246 . S
O399 Tb382 2.407 1_554 S
O399 C398 1.275 . S
O400 Tb382 2.484 1_554 S
O400 C398 1.246 . S
C401 O385 1.245 . S
C401 O386 1.259 . S
Tb402 O405 2.453 . S
Tb402 O406 2.596 . S
Tb402 O407 2.374 . S
Tb402 O415 2.343 . S
Tb402 O417 2.353 . S
Tb402 O419 2.427 . S
Tb402 O420 2.513 . S
C403 O407 1.251 . S
C403 O409 1.263 . S
Tb404 O406 2.343 . S
Tb404 O409 2.353 . S
Tb404 O412 2.427 . S
Tb404 O413 2.513 . S
Tb404 O414 2.453 . S
Tb404 O415 2.596 . S
Tb404 O416 2.374 . S
O405 Tb402 2.453 . S
O405 C421 1.245 . S
O406 Tb402 2.596 . S
O406 Tb404 2.343 . S
O406 C421 1.259 . S
O407 Tb402 2.374 . S
O407 C403 1.251 . S
C408 O412 1.275 . S
C408 O413 1.246 . S
O409 C403 1.263 . S
O409 Tb404 2.353 . S
C410 O414 1.245 . S
C410 O415 1.259 . S
C411 O416 1.250 . S
C411 O417 1.263 . S
O412 Tb404 2.427 . S
O412 C408 1.275 . S
O413 Tb404 2.513 . S
O413 C408 1.246 . S
O414 Tb404 2.453 . S
O414 C410 1.245 . S
O415 Tb402 2.343 . S
O415 Tb404 2.596 . S
O415 C410 1.259 . S
O416 Tb404 2.374 . S
O416 C411 1.250 . S
O417 Tb402 2.353 . S
O417 C411 1.263 . S
C418 O419 1.275 . S
C418 O420 1.246 . S
O419 Tb402 2.427 . S
O419 C418 1.275 . S
O420 Tb402 2.513 . S
O420 C418 1.246 . S
C421 O405 1.245 . S
C421 O406 1.259 . S
Tb422 O425 2.453 . S
Tb422 O426 2.596 . S
Tb422 O427 2.374 . S
Tb422 O435 2.343 . S
Tb422 O437 2.353 . S
Tb422 O439 2.427 . S
Tb422 O440 2.513 . S
C423 O427 1.251 . S
C423 O429 1.263 . S
Tb424 O426 2.343 . S
Tb424 O429 2.353 . S
Tb424 O432 2.427 . S
Tb424 O433 2.513 . S
Tb424 O434 2.453 . S
Tb424 O435 2.596 . S
Tb424 O436 2.374 . S
O425 Tb422 2.453 . S
O425 C441 1.245 . S
O426 Tb422 2.596 . S
O426 Tb424 2.343 . S
O426 C441 1.259 . S
O427 Tb422 2.374 . S
O427 C423 1.251 . S
C428 O432 1.275 . S
C428 O433 1.246 . S
O429 C423 1.263 . S
O429 Tb424 2.353 . S
C430 O434 1.245 . S
C430 O435 1.259 . S
C431 O436 1.250 . S
C431 O437 1.263 . S
O432 Tb424 2.427 . S
O432 C428 1.275 . S
O433 Tb424 2.513 . S
O433 C428 1.246 . S
O434 Tb424 2.453 . S
O434 C430 1.245 . S
O435 Tb422 2.343 . S
O435 Tb424 2.596 . S
O435 C430 1.259 . S
O436 Tb424 2.374 . S
O436 C431 1.250 . S
O437 Tb422 2.353 . S
O437 C431 1.263 . S
C438 O439 1.275 . S
C438 O440 1.246 . S
O439 Tb422 2.427 . S
O439 C438 1.275 . S
O440 Tb422 2.513 . S
O440 C438 1.246 . S
C441 O425 1.245 . S
C441 O426 1.259 . S
Tb442 O445 2.453 . S
Tb442 O446 2.596 . S
Tb442 O447 2.374 . S
Tb442 O455 2.343 . S
Tb442 O457 2.353 . S
Tb442 O459 2.427 . S
Tb442 O460 2.513 . S
C443 O447 1.251 . S
C443 O449 1.263 . S
Tb444 O446 2.343 . S
Tb444 O449 2.353 . S
Tb444 O452 2.427 . S
Tb444 O453 2.513 . S
Tb444 O454 2.453 . S
Tb444 O455 2.596 . S
Tb444 O456 2.374 . S
O445 Tb442 2.453 . S
O445 C461 1.245 . S
O446 Tb442 2.596 . S
O446 Tb444 2.343 . S
O446 C461 1.259 . S
O447 Tb442 2.374 . S
O447 C443 1.251 . S
C448 O452 1.275 . S
C448 O453 1.246 . S
O449 C443 1.263 . S
O449 Tb444 2.353 . S
C450 O454 1.245 . S
C450 O455 1.259 . S
C451 O456 1.250 . S
C451 O457 1.263 . S
O452 Tb444 2.427 . S
O452 C448 1.275 . S
O453 Tb444 2.513 . S
O453 C448 1.246 . S
O454 Tb444 2.453 . S
O454 C450 1.245 . S
O455 Tb442 2.343 . S
O455 Tb444 2.596 . S
O455 C450 1.259 . S
O456 Tb444 2.374 . S
O456 C451 1.250 . S
O457 Tb442 2.353 . S
O457 C451 1.263 . S
C458 O459 1.275 . S
C458 O460 1.246 . S
O459 Tb442 2.427 . S
O459 C458 1.275 . S
O460 Tb442 2.513 . S
O460 C458 1.246 . S
C461 O445 1.245 . S
C461 O446 1.259 . S
Tb462 O465 2.453 . S
Tb462 O466 2.596 . S
Tb462 O467 2.374 . S
Tb462 O475 2.343 . S
Tb462 O477 2.353 . S
Tb462 O479 2.427 . S
Tb462 O480 2.513 . S
C463 O467 1.251 . S
C463 O469 1.263 . S
Tb464 O466 2.343 . S
Tb464 O469 2.353 . S
Tb464 O472 2.427 . S
Tb464 O473 2.513 . S
Tb464 O474 2.453 . S
Tb464 O475 2.596 . S
Tb464 O476 2.374 . S
O465 Tb462 2.453 . S
O465 C481 1.245 . S
O466 Tb462 2.596 . S
O466 Tb464 2.343 . S
O466 C481 1.259 . S
O467 Tb462 2.374 . S
O467 C463 1.251 . S
C468 O472 1.275 . S
C468 O473 1.246 . S
O469 C463 1.263 . S
O469 Tb464 2.353 . S
C470 O474 1.245 . S
C470 O475 1.259 . S
C471 O476 1.250 . S
C471 O477 1.263 . S
O472 Tb464 2.427 . S
O472 C468 1.275 . S
O473 Tb464 2.513 . S
O473 C468 1.246 . S
O474 Tb464 2.453 . S
O474 C470 1.245 . S
O475 Tb462 2.343 . S
O475 Tb464 2.596 . S
O475 C470 1.259 . S
O476 Tb464 2.374 . S
O476 C471 1.250 . S
O477 Tb462 2.353 . S
O477 C471 1.263 . S
C478 O479 1.275 . S
C478 O480 1.246 . S
O479 Tb462 2.427 . S
O479 C478 1.275 . S
O480 Tb462 2.513 . S
O480 C478 1.246 . S
C481 O465 1.245 . S
C481 O466 1.259 . S
Tb482 O485 2.453 . S
Tb482 O486 2.596 . S
Tb482 O487 2.374 . S
Tb482 O495 2.343 . S
Tb482 O497 2.353 . S
Tb482 O499 2.427 . S
Tb482 O500 2.513 . S
C483 O487 1.251 . S
C483 O489 1.263 . S
Tb484 O486 2.343 . S
Tb484 O489 2.353 . S
Tb484 O492 2.427 . S
Tb484 O493 2.513 . S
Tb484 O494 2.453 . S
Tb484 O495 2.596 . S
Tb484 O496 2.374 . S
O485 Tb482 2.453 . S
O485 C501 1.245 . S
O486 Tb482 2.596 . S
O486 Tb484 2.343 . S
O486 C501 1.259 . S
O487 Tb482 2.374 . S
O487 C483 1.251 . S
C488 O492 1.275 . S
C488 O493 1.246 . S
O489 C483 1.263 . S
O489 Tb484 2.353 . S
C490 O494 1.245 . S
C490 O495 1.259 . S
C491 O496 1.250 . S
C491 O497 1.263 . S
O492 Tb484 2.427 . S
O492 C488 1.275 . S
O493 Tb484 2.513 . S
O493 C488 1.246 . S
O494 Tb484 2.453 . S
O494 C490 1.245 . S
O495 Tb482 2.343 . S
O495 Tb484 2.596 . S
O495 C490 1.259 . S
O496 Tb484 2.374 . S
O496 C491 1.250 . S
O497 Tb482 2.353 . S
O497 C491 1.263 . S
C498 O499 1.275 . S
C498 O500 1.246 . S
O499 Tb482 2.427 . S
O499 C498 1.275 . S
O500 Tb482 2.513 . S
O500 C498 1.246 . S
C501 O485 1.245 . S
C501 O486 1.259 . S
Tb502 O505 2.453 . S
Tb502 O506 2.596 . S
Tb502 O507 2.374 . S
Tb502 O515 2.343 . S
Tb502 O517 2.353 . S
Tb502 O519 2.427 . S
Tb502 O520 2.513 . S
C503 O507 1.251 . S
C503 O509 1.263 . S
Tb504 O506 2.343 . S
Tb504 O509 2.353 . S
Tb504 O512 2.427 . S
Tb504 O513 2.513 . S
Tb504 O514 2.453 . S
Tb504 O515 2.596 . S
Tb504 O516 2.374 . S
O505 Tb502 2.453 . S
O505 C521 1.245 . S
O506 Tb502 2.596 . S
O506 Tb504 2.343 . S
O506 C521 1.259 . S
O507 Tb502 2.374 . S
O507 C503 1.251 . S
C508 O512 1.275 . S
C508 O513 1.246 . S
O509 C503 1.263 . S
O509 Tb504 2.353 . S
C510 O514 1.245 . S
C510 O515 1.259 . S
C511 O516 1.250 . S
C511 O517 1.263 . S
O512 Tb504 2.427 . S
O512 C508 1.275 . S
O513 Tb504 2.513 . S
O513 C508 1.246 . S
O514 Tb504 2.453 . S
O514 C510 1.245 . S
O515 Tb502 2.343 . S
O515 Tb504 2.596 . S
O515 C510 1.259 . S
O516 Tb504 2.374 . S
O516 C511 1.250 . S
O517 Tb502 2.353 . S
O517 C511 1.263 . S
C518 O519 1.275 . S
C518 O520 1.246 . S
O519 Tb502 2.427 . S
O519 C518 1.275 . S
O520 Tb502 2.513 . S
O520 C518 1.246 . S
C521 O505 1.245 . S
C521 O506 1.259 . S
H522 C528 0.930 . S
H523 C532 0.930 . S
H524 C537 0.929 . S
H525 C535 0.929 . S
H526 C530 0.929 . S
H527 C536 0.929 . S
C528 H522 0.930 . S
C528 C529 1.367 . S
C528 C536 1.378 . S
C529 C528 1.367 . S
C529 C537 1.433 . S
C530 H526 0.929 . S
C530 C532 1.378 . S
C530 C534 1.350 . S
C531 C534 1.463 . S
C531 C536 1.350 . S
C531 N539 1.427 . S
C532 H523 0.930 . S
C532 C530 1.378 . S
C532 C533 1.367 . S
C533 C532 1.367 . S
C533 C535 1.433 . S
C534 C530 1.350 . S
C534 C531 1.463 . S
C534 N538 1.427 . S
C535 H525 0.929 . S
C535 C533 1.433 . S
C535 N538 1.384 . S
C536 H527 0.929 . S
C536 C528 1.378 . S
C536 C531 1.350 . S
C537 H524 0.929 . S
C537 C529 1.433 . S
C537 N539 1.384 . S
N538 C534 1.427 . S
N538 C535 1.384 . S
N539 C531 1.427 . S
N539 C537 1.384 . S
H540 C546 0.930 . S
H541 C550 0.930 . S
H542 C555 0.929 . S
H543 C553 0.929 . S
H544 C548 0.929 . S
H545 C554 0.929 . S
C546 H540 0.930 . S
C546 C547 1.367 . S
C546 C554 1.378 . S
C547 C546 1.367 . S
C547 C555 1.433 . S
C548 H544 0.929 . S
C548 C550 1.378 . S
C548 C552 1.350 . S
C549 C552 1.463 . S
C549 C554 1.350 . S
C549 N557 1.427 . S
C550 H541 0.930 . S
C550 C548 1.378 . S
C550 C551 1.367 . S
C551 C550 1.367 . S
C551 C553 1.433 . S
C552 C548 1.350 . S
C552 C549 1.463 . S
C552 N556 1.427 . S
C553 H543 0.929 . S
C553 C551 1.433 . S
C553 N556 1.384 . S
C554 H545 0.929 . S
C554 C546 1.378 . S
C554 C549 1.350 . S
C555 H542 0.929 . S
C555 C547 1.433 . S
C555 N557 1.384 . S
N556 C552 1.427 . S
N556 C553 1.384 . S
N557 C549 1.427 . S
N557 C555 1.384 . S
H558 C564 0.930 . S
H559 C568 0.930 . S
H560 C573 0.929 . S
H561 C571 0.929 1_556 S
H562 C566 0.929 . S
H563 C572 0.929 1_556 S
C564 H558 0.930 . S
C564 C565 1.367 . S
C564 C572 1.378 . S
C565 C564 1.367 . S
C565 C573 1.433 . S
C566 H562 0.929 . S
C566 C568 1.378 . S
C566 C570 1.350 . S
C567 C570 1.463 . S
C567 C572 1.350 . S
C567 N575 1.427 . S
C568 H559 0.930 . S
C568 C566 1.378 . S
C568 C569 1.367 . S
C569 C568 1.367 . S
C569 C571 1.433 . S
C570 C566 1.350 . S
C570 C567 1.463 . S
C570 N574 1.427 . S
C571 H561 0.929 1_554 S
C571 C569 1.433 . S
C571 N574 1.384 . S
C572 H563 0.929 1_554 S
C572 C564 1.378 . S
C572 C567 1.350 . S
C573 H560 0.929 . S
C573 C565 1.433 . S
C573 N575 1.384 . S
N574 C570 1.427 . S
N574 C571 1.384 . S
N575 C567 1.427 . S
N575 C573 1.384 . S
H576 C582 0.930 . S
H577 C586 0.930 . S
H578 C591 0.929 . S
H579 C589 0.929 . S
H580 C584 0.929 . S
H581 C590 0.929 . S
C582 H576 0.930 . S
C582 C583 1.367 . S
C582 C590 1.378 . S
C583 C582 1.367 . S
C583 C591 1.433 . S
C584 H580 0.929 . S
C584 C586 1.378 . S
C584 C588 1.350 . S
C585 C588 1.463 . S
C585 C590 1.350 . S
C585 N593 1.427 . S
C586 H577 0.930 . S
C586 C584 1.378 . S
C586 C587 1.367 . S
C587 C586 1.367 . S
C587 C589 1.433 . S
C588 C584 1.350 . S
C588 C585 1.463 . S
C588 N592 1.427 . S
C589 H579 0.929 . S
C589 C587 1.433 . S
C589 N592 1.384 . S
C590 H581 0.929 . S
C590 C582 1.378 . S
C590 C585 1.350 . S
C591 H578 0.929 . S
C591 C583 1.433 . S
C591 N593 1.384 . S
N592 C588 1.427 . S
N592 C589 1.384 . S
N593 C585 1.427 . S
N593 C591 1.384 . S
H594 C600 0.930 . S
H595 C604 0.930 . S
H596 C609 0.929 . S
H597 C607 0.929 . S
H598 C602 0.929 . S
H599 C608 0.929 . S
C600 H594 0.930 . S
C600 C601 1.367 . S
C600 C608 1.378 . S
C601 C600 1.367 . S
C601 C609 1.433 . S
C602 H598 0.929 . S
C602 C604 1.378 . S
C602 C606 1.350 . S
C603 C606 1.463 . S
C603 C608 1.350 . S
C603 N611 1.427 . S
C604 H595 0.930 . S
C604 C602 1.378 . S
C604 C605 1.367 . S
C605 C604 1.367 . S
C605 C607 1.433 . S
C606 C602 1.350 . S
C606 C603 1.463 . S
C606 N610 1.427 . S
C607 H597 0.929 . S
C607 C605 1.433 . S
C607 N610 1.384 . S
C608 H599 0.929 . S
C608 C600 1.378 . S
C608 C603 1.350 . S
C609 H596 0.929 . S
C609 C601 1.433 . S
C609 N611 1.384 . S
N610 C606 1.427 . S
N610 C607 1.384 . S
N611 C603 1.427 . S
N611 C609 1.384 . S
H612 C618 0.930 . S
H613 C622 0.930 . S
H614 C627 0.941 . S
H615 C625 0.929 . S
H616 C620 0.929 . S
H617 C626 0.929 . S
C618 H612 0.930 . S
C618 C619 1.367 . S
C618 C626 1.378 . S
C619 C618 1.367 . S
C619 C627 1.433 . S
C620 H616 0.929 . S
C620 C622 1.378 . S
C620 C624 1.350 1_554 S
C621 C624 1.463 . S
C621 C626 1.350 . S
C621 N629 1.427 . S
C622 H613 0.930 . S
C622 C620 1.378 . S
C622 C623 1.367 . S
C623 C622 1.367 . S
C623 C625 1.433 1_554 S
C624 C620 1.350 1_556 S
C624 C621 1.463 . S
C624 N628 1.427 . S
C625 H615 0.929 . S
C625 C623 1.433 1_556 S
C625 N628 1.384 . S
C626 H617 0.929 . S
C626 C618 1.378 . S
C626 C621 1.350 . S
C627 H614 0.941 . S
C627 C619 1.433 . S
C627 N629 1.384 . S
N628 C624 1.427 . S
N628 C625 1.384 . S
N629 C621 1.427 . S
N629 C627 1.384 . S
H630 C636 0.932 . S
H631 C640 0.930 . S
H632 C645 0.929 . S
H633 C643 0.929 . S
H634 C638 0.929 . S
H635 C644 0.929 1_554 S
C636 H630 0.932 . S
C636 C637 1.367 . S
C636 C644 1.378 . S
C637 C636 1.367 . S
C637 C645 1.433 . S
C638 H634 0.929 . S
C638 C640 1.378 . S
C638 C642 1.350 . S
C639 C642 1.463 . S
C639 C644 1.350 . S
C639 N647 1.427 . S
C640 H631 0.930 . S
C640 C638 1.378 . S
C640 C641 1.367 . S
C641 C640 1.367 . S
C641 C643 1.433 1_556 S
C642 C638 1.350 . S
C642 C639 1.463 . S
C642 N646 1.415 1_556 S
C643 H633 0.929 . S
C643 C641 1.433 1_554 S
C643 N646 1.389 . S
C644 H635 0.929 1_556 S
C644 C636 1.378 . S
C644 C639 1.350 . S
C645 H632 0.929 . S
C645 C637 1.433 . S
C645 N647 1.384 . S
N646 C642 1.415 1_554 S
N646 C643 1.389 . S
N647 C639 1.427 . S
N647 C645 1.384 . S
H648 C654 0.930 . S
H649 C658 0.930 . S
H650 C663 0.929 . S
H651 C661 0.929 . S
H652 C656 0.929 . S
H653 C662 0.929 . S
C654 H648 0.930 . S
C654 C655 1.367 . S
C654 C662 1.378 . S
C655 C654 1.367 . S
C655 C663 1.433 . S
C656 H652 0.929 . S
C656 C658 1.378 . S
C656 C660 1.350 . S
C657 C660 1.463 . S
C657 C662 1.350 . S
C657 N665 1.427 . S
C658 H649 0.930 . S
C658 C656 1.378 . S
C658 C659 1.367 . S
C659 C658 1.367 . S
C659 C661 1.433 . S
C660 C656 1.350 . S
C660 C657 1.463 . S
C660 N664 1.427 . S
C661 H651 0.929 . S
C661 C659 1.433 . S
C661 N664 1.384 . S
C662 H653 0.929 . S
C662 C654 1.378 . S
C662 C657 1.350 . S
C663 H650 0.929 . S
C663 C655 1.433 . S
C663 N665 1.384 . S
N664 C660 1.427 . S
N664 C661 1.384 . S
N665 C657 1.427 . S
N665 C663 1.384 . S
H666 C672 0.930 . S
H667 C676 0.930 . S
H668 C681 0.929 . S
H669 C679 0.929 . S
H670 C674 0.929 . S
H671 C680 0.929 . S
C672 H666 0.930 . S
C672 C673 1.367 1_556 S
C672 C680 1.378 . S
C673 C672 1.367 1_554 S
C673 C681 1.433 . S
C674 H670 0.929 . S
C674 C676 1.378 . S
C674 C678 1.350 . S
C675 C678 1.463 . S
C675 C680 1.350 1_554 S
C675 N683 1.427 . S
C676 H667 0.930 . S
C676 C674 1.378 . S
C676 C677 1.367 . S
C677 C676 1.367 . S
C677 C679 1.433 1_554 S
C678 C674 1.350 . S
C678 C675 1.463 . S
C678 N682 1.427 1_554 S
C679 H669 0.929 . S
C679 C677 1.433 1_556 S
C679 N682 1.384 . S
C680 H671 0.929 . S
C680 C672 1.378 . S
C680 C675 1.350 1_556 S
C681 H668 0.929 . S
C681 C673 1.433 . S
C681 N683 1.384 . S
N682 C678 1.427 1_556 S
N682 C679 1.384 . S
N683 C675 1.427 . S
N683 C681 1.384 . S
H684 C690 0.930 . S
H685 C694 0.930 . S
H686 C699 0.929 . S
H687 C697 0.929 . S
H688 C692 0.929 . S
H689 C698 0.929 . S
C690 H684 0.930 . S
C690 C691 1.367 . S
C690 C698 1.378 . S
C691 C690 1.367 . S
C691 C699 1.433 . S
C692 H688 0.929 . S
C692 C694 1.378 . S
C692 C696 1.350 . S
C693 C696 1.463 . S
C693 C698 1.350 . S
C693 N701 1.427 . S
C694 H685 0.930 . S
C694 C692 1.378 . S
C694 C695 1.367 . S
C695 C694 1.367 . S
C695 C697 1.433 . S
C696 C692 1.350 . S
C696 C693 1.463 . S
C696 N700 1.427 . S
C697 H687 0.929 . S
C697 C695 1.433 . S
C697 N700 1.384 . S
C698 H689 0.929 . S
C698 C690 1.378 . S
C698 C693 1.350 . S
C699 H686 0.929 . S
C699 C691 1.433 . S
C699 N701 1.384 . S
N700 C696 1.427 . S
N700 C697 1.384 . S
N701 C693 1.427 . S
N701 C699 1.384 . S
H702 C708 0.930 . S
H703 C712 0.930 . S
H704 C717 0.929 . S
H705 C715 0.929 . S
H706 C710 0.929 . S
H707 C716 0.929 . S
C708 H702 0.930 . S
C708 C709 1.367 . S
C708 C716 1.378 . S
C709 C708 1.367 . S
C709 C717 1.433 . S
C710 H706 0.929 . S
C710 C712 1.378 . S
C710 C714 1.350 . S
C711 C714 1.463 . S
C711 C716 1.350 . S
C711 N719 1.427 . S
C712 H703 0.930 . S
C712 C710 1.378 . S
C712 C713 1.367 . S
C713 C712 1.367 . S
C713 C715 1.433 . S
C714 C710 1.350 . S
C714 C711 1.463 . S
C714 N718 1.427 . S
C715 H705 0.929 . S
C715 C713 1.433 . S
C715 N718 1.384 . S
C716 H707 0.929 . S
C716 C708 1.378 . S
C716 C711 1.350 . S
C717 H704 0.929 . S
C717 C709 1.433 . S
C717 N719 1.384 . S
N718 C714 1.427 . S
N718 C715 1.384 . S
N719 C711 1.427 . S
N719 C717 1.384 . S
H720 C726 0.950 . S
H721 C730 0.930 . S
H722 C735 0.929 . S
H723 C733 0.929 1_556 S
H724 C728 0.929 . S
H725 C734 0.929 1_556 S
C726 H720 0.950 . S
C726 C727 1.367 . S
C726 C734 1.378 . S
C727 C726 1.367 . S
C727 C735 1.433 . S
C728 H724 0.929 . S
C728 C730 1.378 . S
C728 C732 1.350 . S
C729 C732 1.463 . S
C729 C734 1.350 . S
C729 N737 1.427 . S
C730 H721 0.930 . S
C730 C728 1.378 . S
C730 C731 1.367 . S
C731 C730 1.367 . S
C731 C733 1.433 . S
C732 C728 1.350 . S
C732 C729 1.463 . S
C732 N736 1.427 . S
C733 H723 0.929 1_554 S
C733 C731 1.433 . S
C733 N736 1.384 . S
C734 H725 0.929 1_554 S
C734 C726 1.378 . S
C734 C729 1.350 . S
C735 H722 0.929 . S
C735 C727 1.433 . S
C735 N737 1.384 . S
N736 C732 1.427 . S
N736 C733 1.384 . S
N737 C729 1.427 . S
N737 C735 1.384 . S
H738 C744 0.930 . S
H739 C748 0.930 . S
H740 C753 0.929 . S
H741 C751 0.929 . S
H742 C746 0.929 . S
H743 C752 0.929 . S
C744 H738 0.930 . S
C744 C745 1.367 . S
C744 C752 1.378 . S
C745 C744 1.367 . S
C745 C753 1.433 . S
C746 H742 0.929 . S
C746 C748 1.378 . S
C746 C750 1.350 . S
C747 C750 1.463 1_655 S
C747 C752 1.350 . S
C747 N755 1.427 . S
C748 H739 0.930 . S
C748 C746 1.378 . S
C748 C749 1.367 . S
C749 C748 1.367 . S
C749 C751 1.433 . S
C750 C746 1.350 . S
C750 C747 1.463 1_455 S
C750 N754 1.427 . S
C751 H741 0.929 . S
C751 C749 1.433 . S
C751 N754 1.384 . S
C752 H743 0.929 . S
C752 C744 1.378 . S
C752 C747 1.350 . S
C753 H740 0.929 . S
C753 C745 1.433 . S
C753 N755 1.384 . S
N754 C750 1.427 . S
N754 C751 1.384 . S
N755 C747 1.427 . S
N755 C753 1.384 . S
H756 C762 0.930 . S
H757 C766 0.930 . S
H758 C771 0.929 . S
H759 C769 0.929 . S
H760 C764 0.929 . S
H761 C770 0.929 . S
C762 H756 0.930 . S
C762 C763 1.367 . S
C762 C770 1.378 . S
C763 C762 1.367 . S
C763 C771 1.433 . S
C764 H760 0.929 . S
C764 C766 1.378 . S
C764 C768 1.350 . S
C765 C768 1.463 . S
C765 C770 1.350 . S
C765 N773 1.427 . S
C766 H757 0.930 . S
C766 C764 1.378 . S
C766 C767 1.367 . S
C767 C766 1.367 . S
C767 C769 1.433 . S
C768 C764 1.350 . S
C768 C765 1.463 . S
C768 N772 1.427 . S
C769 H759 0.929 . S
C769 C767 1.433 . S
C769 N772 1.384 . S
C770 H761 0.929 . S
C770 C762 1.378 . S
C770 C765 1.350 . S
C771 H758 0.929 . S
C771 C763 1.433 . S
C771 N773 1.384 . S
N772 C768 1.427 . S
N772 C769 1.384 . S
N773 C765 1.427 . S
N773 C771 1.384 . S
H774 C780 0.930 . S
H775 C784 0.930 . S
H776 C789 0.929 . S
H777 C787 0.929 . S
H778 C782 0.929 . S
H779 C788 0.929 . S
C780 H774 0.930 . S
C780 C781 1.367 . S
C780 C788 1.378 . S
C781 C780 1.367 . S
C781 C789 1.433 . S
C782 H778 0.929 . S
C782 C784 1.378 . S
C782 C786 1.350 . S
C783 C786 1.463 1_545 S
C783 C788 1.350 . S
C783 N791 1.427 . S
C784 H775 0.930 . S
C784 C782 1.378 . S
C784 C785 1.367 . S
C785 C784 1.367 . S
C785 C787 1.433 . S
C786 C782 1.350 . S
C786 C783 1.463 1_565 S
C786 N790 1.427 . S
C787 H777 0.929 . S
C787 C785 1.433 . S
C787 N790 1.384 . S
C788 H779 0.929 . S
C788 C780 1.378 . S
C788 C783 1.350 . S
C789 H776 0.929 . S
C789 C781 1.433 . S
C789 N791 1.384 . S
N790 C786 1.427 . S
N790 C787 1.384 . S
N791 C783 1.427 . S
N791 C789 1.384 . S
H792 C798 0.930 . S
H793 C802 0.930 . S
H794 C807 0.929 . S
H795 C805 0.929 . S
H796 C800 0.929 . S
H797 C806 0.929 . S
C798 H792 0.930 . S
C798 C799 1.367 . S
C798 C806 1.378 . S
C799 C798 1.367 . S
C799 C807 1.433 . S
C800 H796 0.929 . S
C800 C802 1.378 . S
C800 C804 1.350 . S
C801 C804 1.463 . S
C801 C806 1.350 . S
C801 N809 1.427 . S
C802 H793 0.930 . S
C802 C800 1.378 . S
C802 C803 1.367 . S
C803 C802 1.367 . S
C803 C805 1.433 . S
C804 C800 1.350 . S
C804 C801 1.463 . S
C804 N808 1.427 . S
C805 H795 0.929 . S
C805 C803 1.433 . S
C805 N808 1.384 . S
C806 H797 0.929 . S
C806 C798 1.378 . S
C806 C801 1.350 . S
C807 H794 0.929 . S
C807 C799 1.433 . S
C807 N809 1.384 . S
N808 C804 1.427 . S
N808 C805 1.384 . S
N809 C801 1.427 . S
N809 C807 1.384 . S
H810 C816 0.930 . S
H811 C820 0.930 . S
H812 C825 0.929 . S
H813 C823 0.929 . S
H814 C818 0.929 . S
H815 C824 0.929 . S
C816 H810 0.930 . S
C816 C817 1.367 . S
C816 C824 1.378 . S
C817 C816 1.367 . S
C817 C825 1.433 . S
C818 H814 0.929 . S
C818 C820 1.378 . S
C818 C822 1.350 . S
C819 C822 1.463 . S
C819 C824 1.350 . S
C819 N827 1.427 . S
C820 H811 0.930 . S
C820 C818 1.378 . S
C820 C821 1.367 . S
C821 C820 1.367 . S
C821 C823 1.433 . S
C822 C818 1.350 . S
C822 C819 1.463 . S
C822 N826 1.427 . S
C823 H813 0.929 . S
C823 C821 1.433 . S
C823 N826 1.384 . S
C824 H815 0.929 . S
C824 C816 1.378 . S
C824 C819 1.350 . S
C825 H812 0.929 . S
C825 C817 1.433 . S
C825 N827 1.384 . S
N826 C822 1.427 . S
N826 C823 1.384 . S
N827 C819 1.427 . S
N827 C825 1.384 . S
H828 C834 0.930 . S
H829 C838 0.930 . S
H830 C843 0.929 . S
H831 C841 0.929 . S
H832 C836 0.929 . S
H833 C842 0.929 . S
C834 H828 0.930 . S
C834 C835 1.367 . S
C834 C842 1.378 . S
C835 C834 1.367 . S
C835 C843 1.433 . S
C836 H832 0.929 . S
C836 C838 1.378 . S
C836 C840 1.350 . S
C837 C840 1.463 . S
C837 C842 1.350 . S
C837 N845 1.427 . S
C838 H829 0.930 . S
C838 C836 1.378 . S
C838 C839 1.367 . S
C839 C838 1.367 . S
C839 C841 1.433 . S
C840 C836 1.350 . S
C840 C837 1.463 . S
C840 N844 1.427 . S
C841 H831 0.929 . S
C841 C839 1.433 . S
C841 N844 1.384 . S
C842 H833 0.929 . S
C842 C834 1.378 . S
C842 C837 1.350 . S
C843 H830 0.929 . S
C843 C835 1.433 . S
C843 N845 1.384 . S
N844 C840 1.427 . S
N844 C841 1.384 . S
N845 C837 1.427 . S
N845 C843 1.384 . S
H846 C852 0.930 . S
H847 C856 0.930 . S
H848 C861 0.929 . S
H849 C859 0.929 . S
H850 C854 0.929 . S
H851 C860 0.929 . S
C852 H846 0.930 . S
C852 C853 1.367 . S
C852 C860 1.378 . S
C853 C852 1.367 . S
C853 C861 1.433 . S
C854 H850 0.929 . S
C854 C856 1.378 . S
C854 C858 1.350 . S
C855 C858 1.463 . S
C855 C860 1.350 . S
C855 N863 1.427 . S
C856 H847 0.930 . S
C856 C854 1.378 . S
C856 C857 1.367 . S
C857 C856 1.367 . S
C857 C859 1.433 . S
C858 C854 1.350 . S
C858 C855 1.463 . S
C858 N862 1.427 . S
C859 H849 0.929 . S
C859 C857 1.433 . S
C859 N862 1.384 . S
C860 H851 0.929 . S
C860 C852 1.378 . S
C860 C855 1.350 . S
C861 H848 0.929 . S
C861 C853 1.433 . S
C861 N863 1.384 . S
N862 C858 1.427 . S
N862 C859 1.384 . S
N863 C855 1.427 . S
N863 C861 1.384 . S
H864 C870 0.930 . S
H865 C874 0.930 . S
H866 C879 0.929 . S
H867 C877 0.929 . S
H868 C872 0.929 . S
H869 C878 0.929 . S
C870 H864 0.930 . S
C870 C871 1.367 . S
C870 C878 1.378 . S
C871 C870 1.367 . S
C871 C879 1.433 . S
C872 H868 0.929 . S
C872 C874 1.378 . S
C872 C876 1.350 . S
C873 C876 1.463 . S
C873 C878 1.350 . S
C873 N881 1.427 . S
C874 H865 0.930 . S
C874 C872 1.378 . S
C874 C875 1.367 . S
C875 C874 1.367 . S
C875 C877 1.433 . S
C876 C872 1.350 . S
C876 C873 1.463 . S
C876 N880 1.427 . S
C877 H867 0.929 . S
C877 C875 1.433 . S
C877 N880 1.384 . S
C878 H869 0.929 . S
C878 C870 1.378 . S
C878 C873 1.350 . S
C879 H866 0.929 . S
C879 C871 1.433 . S
C879 N881 1.384 . S
N880 C876 1.427 . S
N880 C877 1.384 . S
N881 C873 1.427 . S
N881 C879 1.384 . S
H882 C888 0.930 . S
H883 C892 0.930 . S
H884 C897 0.929 . S
H885 C895 0.929 . S
H886 C890 0.929 . S
H887 C896 0.929 . S
C888 H882 0.930 . S
C888 C889 1.367 . S
C888 C896 1.378 . S
C889 C888 1.367 . S
C889 C897 1.433 . S
C890 H886 0.929 . S
C890 C892 1.378 . S
C890 C894 1.350 . S
C891 C894 1.463 . S
C891 C896 1.350 . S
C891 N899 1.427 . S
C892 H883 0.930 . S
C892 C890 1.378 . S
C892 C893 1.367 . S
C893 C892 1.367 . S
C893 C895 1.433 . S
C894 C890 1.350 . S
C894 C891 1.463 . S
C894 N898 1.427 . S
C895 H885 0.929 . S
C895 C893 1.433 . S
C895 N898 1.384 . S
C896 H887 0.929 . S
C896 C888 1.378 . S
C896 C891 1.350 . S
C897 H884 0.929 . S
C897 C889 1.433 . S
C897 N899 1.384 . S
N898 C894 1.427 . S
N898 C895 1.384 . S
N899 C891 1.427 . S
N899 C897 1.384 . S
H900 C906 0.930 . S
H901 C910 0.930 . S
H902 C915 0.969 . S
H903 C913 0.929 . S
H904 C908 0.929 . S
H905 C914 0.929 . S
C906 H900 0.930 . S
C906 C907 1.367 1_565 S
C906 C914 1.378 . S
C907 C906 1.367 1_545 S
C907 C915 1.424 . S
C908 H904 0.929 . S
C908 C910 1.378 . S
C908 C912 1.350 . S
C909 C912 1.463 . S
C909 C914 1.350 . S
C909 N917 1.427 . S
C910 H901 0.930 . S
C910 C908 1.378 . S
C910 C911 1.367 . S
C911 C910 1.367 . S
C911 C913 1.433 . S
C912 C908 1.350 . S
C912 C909 1.463 . S
C912 N916 1.427 . S
C913 H903 0.929 . S
C913 C911 1.433 . S
C913 N916 1.384 . S
C914 H905 0.929 . S
C914 C906 1.378 . S
C914 C909 1.350 . S
C915 H902 0.969 . S
C915 C907 1.424 . S
C915 N917 1.353 1_545 S
N916 C912 1.427 . S
N916 C913 1.384 . S
N917 C909 1.427 . S
N917 C915 1.353 1_565 S
H918 C924 0.930 1_655 S
H919 C928 0.930 . S
H920 C933 0.929 1_655 S
H921 C931 0.929 . S
H922 C926 0.929 . S
H923 C932 0.929 . S
C924 H918 0.930 1_455 S
C924 C925 1.367 1_455 S
C924 C932 1.378 . S
C925 C924 1.367 1_655 S
C925 C933 1.433 1_655 S
C926 H922 0.929 . S
C926 C928 1.378 . S
C926 C930 1.350 . S
C927 C930 1.463 . S
C927 C932 1.350 . S
C927 N935 1.427 . S
C928 H919 0.930 . S
C928 C926 1.378 . S
C928 C929 1.367 . S
C929 C928 1.367 . S
C929 C931 1.433 . S
C930 C926 1.350 . S
C930 C927 1.463 . S
C930 N934 1.427 . S
C931 H921 0.929 . S
C931 C929 1.433 . S
C931 N934 1.384 . S
C932 H923 0.929 . S
C932 C924 1.378 . S
C932 C927 1.350 . S
C933 H920 0.929 1_455 S
C933 C925 1.433 1_455 S
C933 N935 1.384 . S
N934 C930 1.427 . S
N934 C931 1.384 . S
N935 C927 1.427 . S
N935 C933 1.384 . S
H936 C942 0.930 . S
H937 C946 0.930 . S
H938 C951 0.929 . S
H939 C949 0.929 . S
H940 C944 0.929 . S
H941 C950 0.929 . S
C942 H936 0.930 . S
C942 C943 1.367 . S
C942 C950 1.378 . S
C943 C942 1.367 . S
C943 C951 1.433 . S
C944 H940 0.929 . S
C944 C946 1.378 . S
C944 C948 1.350 . S
C945 C948 1.463 . S
C945 C950 1.350 . S
C945 N953 1.427 . S
C946 H937 0.930 . S
C946 C944 1.378 . S
C946 C947 1.367 . S
C947 C946 1.367 . S
C947 C949 1.433 . S
C948 C944 1.350 . S
C948 C945 1.463 . S
C948 N952 1.427 . S
C949 H939 0.929 . S
C949 C947 1.433 . S
C949 N952 1.384 . S
C950 H941 0.929 . S
C950 C942 1.378 . S
C950 C945 1.350 . S
C951 H938 0.929 . S
C951 C943 1.433 . S
C951 N953 1.384 . S
N952 C948 1.427 . S
N952 C949 1.384 . S
N953 C945 1.427 . S
N953 C951 1.384 . S
H954 C960 0.930 . S
H955 C964 0.930 . S
H956 C969 0.929 . S
H957 C967 0.929 . S
H958 C962 0.929 . S
H959 C968 0.929 . S
C960 H954 0.930 . S
C960 C961 1.367 . S
C960 C968 1.378 . S
C961 C960 1.367 . S
C961 C969 1.433 . S
C962 H958 0.929 . S
C962 C964 1.378 . S
C962 C966 1.350 . S
C963 C966 1.463 . S
C963 C968 1.350 . S
C963 N971 1.427 . S
C964 H955 0.930 . S
C964 C962 1.378 . S
C964 C965 1.367 . S
C965 C964 1.367 . S
C965 C967 1.433 . S
C966 C962 1.350 . S
C966 C963 1.463 . S
C966 N970 1.427 . S
C967 H957 0.929 . S
C967 C965 1.433 . S
C967 N970 1.384 . S
C968 H959 0.929 . S
C968 C960 1.378 . S
C968 C963 1.350 . S
C969 H956 0.929 . S
C969 C961 1.433 . S
C969 N971 1.384 . S
N970 C966 1.427 . S
N970 C967 1.384 . S
N971 C963 1.427 . S
N971 C969 1.384 . S
H972 C978 0.930 . S
H973 C982 0.930 . S
H974 C987 0.929 . S
H975 C985 0.929 . S
H976 C980 0.929 . S
H977 C986 0.929 . S
C978 H972 0.930 . S
C978 C979 1.367 . S
C978 C986 1.378 . S
C979 C978 1.367 . S
C979 C987 1.433 . S
C980 H976 0.929 . S
C980 C982 1.378 . S
C980 C984 1.350 . S
C981 C984 1.463 . S
C981 C986 1.350 . S
C981 N989 1.427 . S
C982 H973 0.930 . S
C982 C980 1.378 . S
C982 C983 1.367 . S
C983 C982 1.367 . S
C983 C985 1.433 . S
C984 C980 1.350 . S
C984 C981 1.463 . S
C984 N988 1.427 . S
C985 H975 0.929 . S
C985 C983 1.433 . S
C985 N988 1.384 . S
C986 H977 0.929 . S
C986 C978 1.378 . S
C986 C981 1.350 . S
C987 H974 0.929 . S
C987 C979 1.433 . S
C987 N989 1.384 . S
N988 C984 1.427 . S
N988 C985 1.384 . S
N989 C981 1.427 . S
N989 C987 1.384 . S
H990 C996 0.930 . S
H991 C1000 0.930 . S
H992 C1005 0.929 . S
H993 C1003 0.929 . S
H994 C998 0.929 . S
H995 C1004 0.929 . S
C996 H990 0.930 . S
C996 C997 1.367 . S
C996 C1004 1.378 . S
C997 C996 1.367 . S
C997 C1005 1.433 . S
C998 H994 0.929 . S
C998 C1000 1.378 . S
C998 C1002 1.350 . S
C999 C1002 1.463 . S
C999 C1004 1.350 . S
C999 N1007 1.427 . S
C1000 H991 0.930 . S
C1000 C998 1.378 . S
C1000 C1001 1.367 . S
C1001 C1000 1.367 . S
C1001 C1003 1.433 . S
C1002 C998 1.350 . S
C1002 C999 1.463 . S
C1002 N1006 1.427 . S
C1003 H993 0.929 . S
C1003 C1001 1.433 . S
C1003 N1006 1.384 . S
C1004 H995 0.929 . S
C1004 C996 1.378 . S
C1004 C999 1.350 . S
C1005 H992 0.929 . S
C1005 C997 1.433 . S
C1005 N1007 1.384 . S
N1006 C1002 1.427 . S
N1006 C1003 1.384 . S
N1007 C999 1.427 . S
N1007 C1005 1.384 . S
H1008 C1014 0.930 . S
H1009 C1018 0.930 . S
H1010 C1023 0.929 . S
H1011 C1021 0.929 . S
H1012 C1016 0.929 . S
H1013 C1022 0.929 . S
C1014 H1008 0.930 . S
C1014 C1015 1.367 . S
C1014 C1022 1.378 . S
C1015 C1014 1.367 . S
C1015 C1023 1.433 . S
C1016 H1012 0.929 . S
C1016 C1018 1.378 . S
C1016 C1020 1.350 . S
C1017 C1020 1.463 1_565 S
C1017 C1022 1.350 . S
C1017 N1025 1.427 . S
C1018 H1009 0.930 . S
C1018 C1016 1.378 . S
C1018 C1019 1.367 . S
C1019 C1018 1.367 . S
C1019 C1021 1.433 . S
C1020 C1016 1.350 . S
C1020 C1017 1.463 1_545 S
C1020 N1024 1.427 . S
C1021 H1011 0.929 . S
C1021 C1019 1.433 . S
C1021 N1024 1.384 . S
C1022 H1013 0.929 . S
C1022 C1014 1.378 . S
C1022 C1017 1.350 . S
C1023 H1010 0.929 . S
C1023 C1015 1.433 . S
C1023 N1025 1.384 . S
N1024 C1020 1.427 . S
N1024 C1021 1.384 . S
N1025 C1017 1.427 . S
N1025 C1023 1.384 . S
H1026 C1032 0.930 . S
H1027 C1036 0.930 . S
H1028 C1041 0.929 . S
H1029 C1039 0.929 . S
H1030 C1034 0.929 . S
H1031 C1040 0.929 . S
C1032 H1026 0.930 . S
C1032 C1033 1.367 . S
C1032 C1040 1.378 . S
C1033 C1032 1.367 . S
C1033 C1041 1.433 . S
C1034 H1030 0.929 . S
C1034 C1036 1.378 . S
C1034 C1038 1.350 . S
C1035 C1038 1.463 1_455 S
C1035 C1040 1.350 . S
C1035 N1043 1.427 . S
C1036 H1027 0.930 . S
C1036 C1034 1.378 . S
C1036 C1037 1.367 . S
C1037 C1036 1.367 . S
C1037 C1039 1.433 . S
C1038 C1034 1.350 . S
C1038 C1035 1.463 1_655 S
C1038 N1042 1.421 . S
C1039 H1029 0.929 . S
C1039 C1037 1.433 . S
C1039 N1042 1.402 . S
C1040 H1031 0.929 . S
C1040 C1032 1.378 . S
C1040 C1035 1.350 . S
C1041 H1028 0.929 . S
C1041 C1033 1.433 . S
C1041 N1043 1.384 . S
N1042 C1038 1.421 . S
N1042 C1039 1.402 . S
N1043 C1035 1.427 . S
N1043 C1041 1.384 . S
H1044 C1050 0.930 . S
H1045 C1054 0.930 . S
H1046 C1059 0.929 . S
H1047 C1057 0.929 . S
H1048 C1052 0.929 . S
H1049 C1058 0.929 . S
C1050 H1044 0.930 . S
C1050 C1051 1.367 . S
C1050 C1058 1.378 . S
C1051 C1050 1.367 . S
C1051 C1059 1.433 . S
C1052 H1048 0.929 . S
C1052 C1054 1.378 . S
C1052 C1056 1.350 . S
C1053 C1056 1.463 . S
C1053 C1058 1.350 . S
C1053 N1061 1.427 . S
C1054 H1045 0.930 . S
C1054 C1052 1.378 . S
C1054 C1055 1.367 . S
C1055 C1054 1.367 . S
C1055 C1057 1.433 . S
C1056 C1052 1.350 . S
C1056 C1053 1.463 . S
C1056 N1060 1.427 . S
C1057 H1047 0.929 . S
C1057 C1055 1.433 . S
C1057 N1060 1.384 . S
C1058 H1049 0.929 . S
C1058 C1050 1.378 . S
C1058 C1053 1.350 . S
C1059 H1046 0.929 . S
C1059 C1051 1.433 . S
C1059 N1061 1.384 . S
N1060 C1056 1.427 . S
N1060 C1057 1.384 . S
N1061 C1053 1.427 . S
N1061 C1059 1.384 . S
H1062 C1068 0.930 . S
H1063 C1072 0.930 . S
H1064 C1077 0.929 . S
H1065 C1075 0.929 . S
H1066 C1070 0.929 . S
H1067 C1076 0.929 . S
C1068 H1062 0.930 . S
C1068 C1069 1.367 . S
C1068 C1076 1.378 1_455 S
C1069 C1068 1.367 . S
C1069 C1077 1.433 . S
C1070 H1066 0.929 . S
C1070 C1072 1.378 . S
C1070 C1074 1.350 . S
C1071 C1074 1.463 . S
C1071 C1076 1.350 . S
C1071 N1079 1.427 . S
C1072 H1063 0.930 . S
C1072 C1070 1.378 . S
C1072 C1073 1.367 . S
C1073 C1072 1.367 . S
C1073 C1075 1.433 . S
C1074 C1070 1.350 . S
C1074 C1071 1.463 . S
C1074 N1078 1.427 . S
C1075 H1065 0.929 . S
C1075 C1073 1.433 . S
C1075 N1078 1.384 . S
C1076 H1067 0.929 . S
C1076 C1068 1.378 1_655 S
C1076 C1071 1.350 . S
C1077 H1064 0.929 . S
C1077 C1069 1.433 . S
C1077 N1079 1.384 1_455 S
N1078 C1074 1.427 . S
N1078 C1075 1.384 . S
N1079 C1071 1.427 . S
N1079 C1077 1.384 1_655 S
H1080 C1086 0.930 . S
H1081 C1090 0.930 . S
H1082 C1095 0.929 . S
H1083 C1093 0.929 . S
H1084 C1088 0.929 . S
H1085 C1094 0.929 . S
C1086 H1080 0.930 . S
C1086 C1087 1.367 . S
C1086 C1094 1.378 . S
C1087 C1086 1.367 . S
C1087 C1095 1.433 . S
C1088 H1084 0.929 . S
C1088 C1090 1.378 . S
C1088 C1092 1.350 . S
C1089 C1092 1.463 . S
C1089 C1094 1.350 . S
C1089 N1097 1.427 . S
C1090 H1081 0.930 . S
C1090 C1088 1.378 . S
C1090 C1091 1.367 . S
C1091 C1090 1.367 . S
C1091 C1093 1.433 . S
C1092 C1088 1.350 . S
C1092 C1089 1.463 . S
C1092 N1096 1.427 . S
C1093 H1083 0.929 . S
C1093 C1091 1.433 . S
C1093 N1096 1.384 . S
C1094 H1085 0.929 . S
C1094 C1086 1.378 . S
C1094 C1089 1.350 . S
C1095 H1082 0.929 . S
C1095 C1087 1.433 . S
C1095 N1097 1.384 . S
N1096 C1092 1.427 . S
N1096 C1093 1.384 . S
N1097 C1089 1.427 . S
N1097 C1095 1.384 . S
H1098 C1104 0.931 . S
H1099 C1108 0.930 . S
H1100 C1113 0.929 1_565 S
H1101 C1111 0.929 . S
H1102 C1106 0.929 . S
H1103 C1112 0.929 . S
C1104 H1098 0.931 . S
C1104 C1105 1.367 1_545 S
C1104 C1112 1.378 . S
C1105 C1104 1.367 1_565 S
C1105 C1113 1.433 1_565 S
C1106 H1102 0.929 . S
C1106 C1108 1.378 . S
C1106 C1110 1.350 . S
C1107 C1110 1.463 . S
C1107 C1112 1.350 . S
C1107 N1115 1.427 . S
C1108 H1099 0.930 . S
C1108 C1106 1.378 . S
C1108 C1109 1.367 . S
C1109 C1108 1.367 . S
C1109 C1111 1.433 . S
C1110 C1106 1.350 . S
C1110 C1107 1.463 . S
C1110 N1114 1.427 . S
C1111 H1101 0.929 . S
C1111 C1109 1.433 . S
C1111 N1114 1.384 . S
C1112 H1103 0.929 . S
C1112 C1104 1.378 . S
C1112 C1107 1.350 . S
C1113 H1100 0.929 1_545 S
C1113 C1105 1.433 1_545 S
C1113 N1115 1.384 . S
N1114 C1110 1.427 . S
N1114 C1111 1.384 . S
N1115 C1107 1.427 . S
N1115 C1113 1.384 . S
H1116 C1122 0.930 . S
H1117 C1126 0.930 . S
H1118 C1131 0.929 . S
H1119 C1129 0.929 . S
H1120 C1124 0.929 . S
H1121 C1130 0.929 . S
C1122 H1116 0.930 . S
C1122 C1123 1.367 . S
C1122 C1130 1.378 . S
C1123 C1122 1.367 . S
C1123 C1131 1.433 . S
C1124 H1120 0.929 . S
C1124 C1126 1.378 . S
C1124 C1128 1.350 . S
C1125 C1128 1.463 . S
C1125 C1130 1.350 . S
C1125 N1133 1.427 . S
C1126 H1117 0.930 . S
C1126 C1124 1.378 . S
C1126 C1127 1.367 . S
C1127 C1126 1.367 . S
C1127 C1129 1.433 . S
C1128 C1124 1.350 . S
C1128 C1125 1.463 . S
C1128 N1132 1.427 . S
C1129 H1119 0.929 . S
C1129 C1127 1.433 . S
C1129 N1132 1.384 . S
C1130 H1121 0.929 . S
C1130 C1122 1.378 . S
C1130 C1125 1.350 . S
C1131 H1118 0.929 . S
C1131 C1123 1.433 . S
C1131 N1133 1.384 . S
N1132 C1128 1.427 . S
N1132 C1129 1.384 . S
N1133 C1125 1.427 . S
N1133 C1131 1.384 . S
H1134 C1140 0.930 . S
H1135 C1144 0.930 . S
H1136 C1149 0.929 . S
H1137 C1147 0.929 . S
H1138 C1142 0.929 . S
H1139 C1148 0.929 . S
C1140 H1134 0.930 . S
C1140 C1141 1.367 . S
C1140 C1148 1.378 . S
C1141 C1140 1.367 . S
C1141 C1149 1.433 . S
C1142 H1138 0.929 . S
C1142 C1144 1.378 . S
C1142 C1146 1.350 . S
C1143 C1146 1.463 . S
C1143 C1148 1.350 . S
C1143 N1151 1.427 . S
C1144 H1135 0.930 . S
C1144 C1142 1.378 . S
C1144 C1145 1.367 . S
C1145 C1144 1.367 . S
C1145 C1147 1.433 . S
C1146 C1142 1.350 . S
C1146 C1143 1.463 . S
C1146 N1150 1.427 . S
C1147 H1137 0.929 . S
C1147 C1145 1.433 . S
C1147 N1150 1.384 . S
C1148 H1139 0.929 . S
C1148 C1140 1.378 . S
C1148 C1143 1.350 . S
C1149 H1136 0.929 . S
C1149 C1141 1.433 . S
C1149 N1151 1.384 . S
N1150 C1146 1.427 . S
N1150 C1147 1.384 . S
N1151 C1143 1.427 . S
N1151 C1149 1.384 . S
H1152 C1158 0.930 . S
H1153 C1162 0.930 . S
H1154 C1167 0.929 . S
H1155 C1165 0.929 . S
H1156 C1160 0.929 . S
H1157 C1166 0.929 . S
C1158 H1152 0.930 . S
C1158 C1159 1.367 . S
C1158 C1166 1.378 . S
C1159 C1158 1.367 . S
C1159 C1167 1.433 . S
C1160 H1156 0.929 . S
C1160 C1162 1.378 . S
C1160 C1164 1.350 . S
C1161 C1164 1.463 . S
C1161 C1166 1.350 . S
C1161 N1169 1.427 . S
C1162 H1153 0.930 . S
C1162 C1160 1.378 . S
C1162 C1163 1.367 . S
C1163 C1162 1.367 . S
C1163 C1165 1.433 . S
C1164 C1160 1.350 . S
C1164 C1161 1.463 . S
C1164 N1168 1.427 . S
C1165 H1155 0.929 . S
C1165 C1163 1.433 . S
C1165 N1168 1.384 . S
C1166 H1157 0.929 . S
C1166 C1158 1.378 . S
C1166 C1161 1.350 . S
C1167 H1154 0.929 . S
C1167 C1159 1.433 . S
C1167 N1169 1.384 . S
N1168 C1164 1.427 . S
N1168 C1165 1.384 . S
N1169 C1161 1.427 . S
N1169 C1167 1.384 . S
H1170 C1176 0.930 . S
H1171 C1180 0.930 1_545 S
H1172 C1185 0.929 . S
H1173 C1183 0.929 . S
H1174 C1178 0.929 . S
H1175 C1184 0.929 . S
C1176 H1170 0.930 . S
C1176 C1177 1.367 . S
C1176 C1184 1.378 . S
C1177 C1176 1.367 . S
C1177 C1185 1.433 . S
C1178 H1174 0.929 . S
C1178 C1180 1.378 . S
C1178 C1182 1.350 . S
C1179 C1182 1.463 . S
C1179 C1184 1.350 . S
C1179 N1187 1.427 . S
C1180 H1171 0.930 1_565 S
C1180 C1178 1.378 . S
C1180 C1181 1.367 . S
C1181 C1180 1.367 . S
C1181 C1183 1.433 . S
C1182 C1178 1.350 . S
C1182 C1179 1.463 . S
C1182 N1186 1.427 . S
C1183 H1173 0.929 . S
C1183 C1181 1.433 . S
C1183 N1186 1.384 . S
C1184 H1175 0.929 . S
C1184 C1176 1.378 . S
C1184 C1179 1.350 . S
C1185 H1172 0.929 . S
C1185 C1177 1.433 . S
C1185 N1187 1.384 . S
N1186 C1182 1.427 . S
N1186 C1183 1.384 . S
N1187 C1179 1.427 . S
N1187 C1185 1.384 . S
H1188 C1194 0.930 . S
H1189 C1198 0.930 . S
H1190 C1203 0.929 . S
H1191 C1201 0.929 . S
H1192 C1196 0.929 . S
H1193 C1202 0.929 . S
C1194 H1188 0.930 . S
C1194 C1195 1.367 . S
C1194 C1202 1.378 . S
C1195 C1194 1.367 . S
C1195 C1203 1.433 . S
C1196 H1192 0.929 . S
C1196 C1198 1.378 . S
C1196 C1200 1.350 . S
C1197 C1200 1.463 . S
C1197 C1202 1.350 . S
C1197 N1205 1.427 . S
C1198 H1189 0.930 . S
C1198 C1196 1.378 . S
C1198 C1199 1.367 . S
C1199 C1198 1.367 . S
C1199 C1201 1.433 . S
C1200 C1196 1.350 . S
C1200 C1197 1.463 . S
C1200 N1204 1.427 . S
C1201 H1191 0.929 . S
C1201 C1199 1.433 . S
C1201 N1204 1.384 . S
C1202 H1193 0.929 . S
C1202 C1194 1.378 . S
C1202 C1197 1.350 . S
C1203 H1190 0.929 . S
C1203 C1195 1.433 . S
C1203 N1205 1.384 . S
N1204 C1200 1.427 . S
N1204 C1201 1.384 . S
N1205 C1197 1.427 . S
N1205 C1203 1.384 . S
H1206 C1212 0.930 . S
H1207 C1216 0.930 . S
H1208 C1221 0.929 . S
H1209 C1219 0.929 . S
H1210 C1214 0.929 . S
H1211 C1220 0.929 . S
C1212 H1206 0.930 . S
C1212 C1213 1.367 . S
C1212 C1220 1.378 . S
C1213 C1212 1.367 . S
C1213 C1221 1.433 . S
C1214 H1210 0.929 . S
C1214 C1216 1.378 . S
C1214 C1218 1.350 . S
C1215 C1218 1.463 . S
C1215 C1220 1.350 . S
C1215 N1223 1.427 . S
C1216 H1207 0.930 . S
C1216 C1214 1.378 . S
C1216 C1217 1.367 . S
C1217 C1216 1.367 . S
C1217 C1219 1.433 . S
C1218 C1214 1.350 . S
C1218 C1215 1.463 . S
C1218 N1222 1.427 . S
C1219 H1209 0.929 . S
C1219 C1217 1.433 . S
C1219 N1222 1.384 . S
C1220 H1211 0.929 . S
C1220 C1212 1.378 . S
C1220 C1215 1.350 . S
C1221 H1208 0.929 . S
C1221 C1213 1.433 . S
C1221 N1223 1.384 . S
N1222 C1218 1.427 . S
N1222 C1219 1.384 . S
N1223 C1215 1.427 . S
N1223 C1221 1.384 . S
H1224 C1230 0.930 . S
H1225 C1234 0.930 . S
H1226 C1239 0.929 . S
H1227 C1237 0.929 . S
H1228 C1232 0.929 . S
H1229 C1238 0.929 . S
C1230 H1224 0.930 . S
C1230 C1231 1.367 . S
C1230 C1238 1.378 . S
C1231 C1230 1.367 . S
C1231 C1239 1.433 . S
C1232 H1228 0.929 . S
C1232 C1234 1.378 . S
C1232 C1236 1.350 . S
C1233 C1236 1.463 . S
C1233 C1238 1.350 . S
C1233 N1241 1.427 . S
C1234 H1225 0.930 . S
C1234 C1232 1.378 . S
C1234 C1235 1.367 . S
C1235 C1234 1.367 . S
C1235 C1237 1.433 . S
C1236 C1232 1.350 . S
C1236 C1233 1.463 . S
C1236 N1240 1.427 . S
C1237 H1227 0.929 . S
C1237 C1235 1.433 . S
C1237 N1240 1.384 . S
C1238 H1229 0.929 . S
C1238 C1230 1.378 . S
C1238 C1233 1.350 . S
C1239 H1226 0.929 . S
C1239 C1231 1.433 . S
C1239 N1241 1.384 . S
N1240 C1236 1.427 . S
N1240 C1237 1.384 . S
N1241 C1233 1.427 . S
N1241 C1239 1.384 . S
H1242 C1248 0.930 . S
H1243 C1252 0.930 . S
H1244 C1257 0.929 . S
H1245 C1255 0.929 . S
H1246 C1250 0.929 . S
H1247 C1256 0.929 . S
C1248 H1242 0.930 . S
C1248 C1249 1.367 . S
C1248 C1256 1.378 . S
C1249 C1248 1.367 . S
C1249 C1257 1.433 . S
C1250 H1246 0.929 . S
C1250 C1252 1.378 . S
C1250 C1254 1.350 . S
C1251 C1254 1.463 . S
C1251 C1256 1.350 . S
C1251 N1259 1.427 . S
C1252 H1243 0.930 . S
C1252 C1250 1.378 . S
C1252 C1253 1.367 . S
C1253 C1252 1.367 . S
C1253 C1255 1.433 . S
C1254 C1250 1.350 . S
C1254 C1251 1.463 . S
C1254 N1258 1.427 . S
C1255 H1245 0.929 . S
C1255 C1253 1.433 . S
C1255 N1258 1.384 . S
C1256 H1247 0.929 . S
C1256 C1248 1.378 . S
C1256 C1251 1.350 . S
C1257 H1244 0.929 . S
C1257 C1249 1.433 . S
C1257 N1259 1.384 . S
N1258 C1254 1.427 . S
N1258 C1255 1.384 . S
N1259 C1251 1.427 . S
N1259 C1257 1.384 . S
H1260 C1266 0.930 . S
H1261 C1270 0.930 . S
H1262 C1275 0.929 . S
H1263 C1273 0.929 1_565 S
H1264 C1268 0.929 . S
H1265 C1274 0.929 . S
C1266 H1260 0.930 . S
C1266 C1267 1.367 . S
C1266 C1274 1.378 . S
C1267 C1266 1.367 . S
C1267 C1275 1.433 . S
C1268 H1264 0.929 . S
C1268 C1270 1.378 . S
C1268 C1272 1.350 . S
C1269 C1272 1.463 . S
C1269 C1274 1.350 . S
C1269 N1277 1.427 . S
C1270 H1261 0.930 . S
C1270 C1268 1.378 . S
C1270 C1271 1.367 . S
C1271 C1270 1.367 . S
C1271 C1273 1.433 . S
C1272 C1268 1.350 . S
C1272 C1269 1.463 . S
C1272 N1276 1.427 . S
C1273 H1263 0.929 1_545 S
C1273 C1271 1.433 . S
C1273 N1276 1.384 . S
C1274 H1265 0.929 . S
C1274 C1266 1.378 . S
C1274 C1269 1.350 . S
C1275 H1262 0.929 . S
C1275 C1267 1.433 . S
C1275 N1277 1.384 . S
N1276 C1272 1.427 . S
N1276 C1273 1.384 . S
N1277 C1269 1.427 . S
N1277 C1275 1.384 . S
H1278 C1284 0.930 . S
H1279 C1288 0.930 . S
H1280 C1293 0.929 . S
H1281 C1291 0.929 . S
H1282 C1286 0.929 . S
H1283 C1292 0.929 . S
C1284 H1278 0.930 . S
C1284 C1285 1.367 . S
C1284 C1292 1.378 . S
C1285 C1284 1.367 . S
C1285 C1293 1.433 . S
C1286 H1282 0.929 . S
C1286 C1288 1.378 . S
C1286 C1290 1.350 . S
C1287 C1290 1.463 . S
C1287 C1292 1.350 . S
C1287 N1295 1.427 . S
C1288 H1279 0.930 . S
C1288 C1286 1.378 . S
C1288 C1289 1.367 . S
C1289 C1288 1.367 . S
C1289 C1291 1.433 . S
C1290 C1286 1.350 . S
C1290 C1287 1.463 . S
C1290 N1294 1.427 . S
C1291 H1281 0.929 . S
C1291 C1289 1.433 . S
C1291 N1294 1.384 . S
C1292 H1283 0.929 . S
C1292 C1284 1.378 . S
C1292 C1287 1.350 . S
C1293 H1280 0.929 . S
C1293 C1285 1.433 . S
C1293 N1295 1.384 . S
N1294 C1290 1.427 . S
N1294 C1291 1.384 . S
N1295 C1287 1.427 . S
N1295 C1293 1.384 . S
H1296 C1302 0.930 . S
H1297 C1306 0.930 . S
H1298 C1311 0.929 . S
H1299 C1309 0.929 . S
H1300 C1304 0.929 . S
H1301 C1310 0.929 . S
C1302 H1296 0.930 . S
C1302 C1303 1.367 . S
C1302 C1310 1.378 . S
C1303 C1302 1.367 . S
C1303 C1311 1.433 . S
C1304 H1300 0.929 . S
C1304 C1306 1.378 . S
C1304 C1308 1.350 . S
C1305 C1308 1.463 . S
C1305 C1310 1.350 . S
C1305 N1313 1.427 . S
C1306 H1297 0.930 . S
C1306 C1304 1.378 . S
C1306 C1307 1.367 . S
C1307 C1306 1.367 . S
C1307 C1309 1.433 . S
C1308 C1304 1.350 . S
C1308 C1305 1.463 . S
C1308 N1312 1.427 . S
C1309 H1299 0.929 . S
C1309 C1307 1.433 . S
C1309 N1312 1.384 . S
C1310 H1301 0.929 . S
C1310 C1302 1.378 . S
C1310 C1305 1.350 . S
C1311 H1298 0.929 . S
C1311 C1303 1.433 . S
C1311 N1313 1.384 . S
N1312 C1308 1.427 . S
N1312 C1309 1.384 . S
N1313 C1305 1.427 . S
N1313 C1311 1.384 . S
H1314 C1320 0.930 . S
H1315 C1324 0.930 . S
H1316 C1329 0.929 . S
H1317 C1327 0.929 . S
H1318 C1322 0.929 . S
H1319 C1328 0.929 . S
C1320 H1314 0.930 . S
C1320 C1321 1.367 . S
C1320 C1328 1.378 . S
C1321 C1320 1.367 . S
C1321 C1329 1.433 . S
C1322 H1318 0.929 . S
C1322 C1324 1.378 . S
C1322 C1326 1.350 . S
C1323 C1326 1.463 . S
C1323 C1328 1.350 . S
C1323 N1331 1.427 . S
C1324 H1315 0.930 . S
C1324 C1322 1.378 . S
C1324 C1325 1.367 . S
C1325 C1324 1.367 . S
C1325 C1327 1.433 . S
C1326 C1322 1.350 . S
C1326 C1323 1.463 . S
C1326 N1330 1.427 . S
C1327 H1317 0.929 . S
C1327 C1325 1.433 . S
C1327 N1330 1.384 . S
C1328 H1319 0.929 . S
C1328 C1320 1.378 . S
C1328 C1323 1.350 . S
C1329 H1316 0.929 . S
C1329 C1321 1.433 . S
C1329 N1331 1.384 . S
N1330 C1326 1.427 . S
N1330 C1327 1.384 . S
N1331 C1323 1.427 . S
N1331 C1329 1.384 . S
H1332 C1338 0.930 . S
H1333 C1342 0.930 . S
H1334 C1347 0.929 . S
H1335 C1345 0.929 . S
H1336 C1340 0.929 . S
H1337 C1346 0.929 . S
C1338 H1332 0.930 . S
C1338 C1339 1.367 . S
C1338 C1346 1.378 . S
C1339 C1338 1.367 . S
C1339 C1347 1.433 . S
C1340 H1336 0.929 . S
C1340 C1342 1.378 . S
C1340 C1344 1.350 . S
C1341 C1344 1.463 . S
C1341 C1346 1.350 . S
C1341 N1349 1.427 . S
C1342 H1333 0.930 . S
C1342 C1340 1.378 . S
C1342 C1343 1.367 . S
C1343 C1342 1.367 . S
C1343 C1345 1.433 . S
C1344 C1340 1.350 . S
C1344 C1341 1.463 . S
C1344 N1348 1.427 . S
C1345 H1335 0.929 . S
C1345 C1343 1.433 . S
C1345 N1348 1.384 . S
C1346 H1337 0.929 . S
C1346 C1338 1.378 . S
C1346 C1341 1.350 . S
C1347 H1334 0.929 . S
C1347 C1339 1.433 . S
C1347 N1349 1.384 . S
N1348 C1344 1.427 . S
N1348 C1345 1.384 . S
N1349 C1341 1.427 . S
N1349 C1347 1.384 . S
H1350 C1356 0.930 . S
H1351 C1360 0.930 . S
H1352 C1365 0.929 . S
H1353 C1363 0.929 . S
H1354 C1358 0.929 . S
H1355 C1364 0.929 . S
C1356 H1350 0.930 . S
C1356 C1357 1.367 . S
C1356 C1364 1.378 . S
C1357 C1356 1.367 . S
C1357 C1365 1.433 . S
C1358 H1354 0.929 . S
C1358 C1360 1.378 . S
C1358 C1362 1.350 . S
C1359 C1362 1.463 . S
C1359 C1364 1.350 . S
C1359 N1367 1.427 . S
C1360 H1351 0.930 . S
C1360 C1358 1.378 . S
C1360 C1361 1.367 . S
C1361 C1360 1.367 . S
C1361 C1363 1.433 . S
C1362 C1358 1.350 . S
C1362 C1359 1.463 . S
C1362 N1366 1.427 . S
C1363 H1353 0.929 . S
C1363 C1361 1.433 . S
C1363 N1366 1.384 . S
C1364 H1355 0.929 . S
C1364 C1356 1.378 . S
C1364 C1359 1.350 . S
C1365 H1352 0.929 . S
C1365 C1357 1.433 . S
C1365 N1367 1.384 . S
N1366 C1362 1.427 . S
N1366 C1363 1.384 . S
N1367 C1359 1.427 . S
N1367 C1365 1.384 . S
H1368 C1374 0.930 . S
H1369 C1378 0.930 . S
H1370 C1383 0.929 . S
H1371 C1381 0.929 . S
H1372 C1376 0.929 . S
H1373 C1382 0.929 . S
C1374 H1368 0.930 . S
C1374 C1375 1.367 . S
C1374 C1382 1.378 . S
C1375 C1374 1.367 . S
C1375 C1383 1.433 . S
C1376 H1372 0.929 . S
C1376 C1378 1.378 . S
C1376 C1380 1.350 . S
C1377 C1380 1.463 . S
C1377 C1382 1.350 . S
C1377 N1385 1.427 . S
C1378 H1369 0.930 . S
C1378 C1376 1.378 . S
C1378 C1379 1.367 . S
C1379 C1378 1.367 . S
C1379 C1381 1.433 . S
C1380 C1376 1.350 . S
C1380 C1377 1.463 . S
C1380 N1384 1.427 . S
C1381 H1371 0.929 . S
C1381 C1379 1.433 . S
C1381 N1384 1.384 . S
C1382 H1373 0.929 . S
C1382 C1374 1.378 . S
C1382 C1377 1.350 . S
C1383 H1370 0.929 . S
C1383 C1375 1.433 . S
C1383 N1385 1.384 . S
N1384 C1380 1.427 . S
N1384 C1381 1.384 . S
N1385 C1377 1.427 . S
N1385 C1383 1.384 . S
H1386 C1392 0.930 . S
H1387 C1396 0.930 . S
H1388 C1401 0.929 . S
H1389 C1399 0.929 . S
H1390 C1394 0.929 . S
H1391 C1400 0.929 . S
C1392 H1386 0.930 . S
C1392 C1393 1.367 . S
C1392 C1400 1.378 . S
C1393 C1392 1.367 . S
C1393 C1401 1.433 . S
C1394 H1390 0.929 . S
C1394 C1396 1.378 . S
C1394 C1398 1.350 . S
C1395 C1398 1.463 . S
C1395 C1400 1.350 . S
C1395 N1403 1.427 . S
C1396 H1387 0.930 . S
C1396 C1394 1.378 . S
C1396 C1397 1.367 . S
C1397 C1396 1.367 . S
C1397 C1399 1.433 . S
C1398 C1394 1.350 . S
C1398 C1395 1.463 . S
C1398 N1402 1.427 . S
C1399 H1389 0.929 . S
C1399 C1397 1.433 . S
C1399 N1402 1.384 . S
C1400 H1391 0.929 . S
C1400 C1392 1.378 . S
C1400 C1395 1.350 . S
C1401 H1388 0.929 . S
C1401 C1393 1.433 . S
C1401 N1403 1.384 . S
N1402 C1398 1.427 . S
N1402 C1399 1.384 . S
N1403 C1395 1.427 . S
N1403 C1401 1.384 . S
H1404 C1410 0.930 . S
H1405 C1414 0.930 . S
H1406 C1419 0.929 . S
H1407 C1417 0.929 . S
H1408 C1412 0.929 . S
H1409 C1418 0.929 . S
C1410 H1404 0.930 . S
C1410 C1411 1.367 . S
C1410 C1418 1.378 . S
C1411 C1410 1.367 . S
C1411 C1419 1.433 . S
C1412 H1408 0.929 . S
C1412 C1414 1.378 . S
C1412 C1416 1.350 . S
C1413 C1416 1.463 . S
C1413 C1418 1.350 . S
C1413 N1421 1.427 . S
C1414 H1405 0.930 . S
C1414 C1412 1.378 . S
C1414 C1415 1.367 . S
C1415 C1414 1.367 . S
C1415 C1417 1.433 . S
C1416 C1412 1.350 . S
C1416 C1413 1.463 . S
C1416 N1420 1.427 . S
C1417 H1407 0.929 . S
C1417 C1415 1.433 . S
C1417 N1420 1.384 . S
C1418 H1409 0.929 . S
C1418 C1410 1.378 . S
C1418 C1413 1.350 . S
C1419 H1406 0.929 . S
C1419 C1411 1.433 . S
C1419 N1421 1.384 . S
N1420 C1416 1.427 . S
N1420 C1417 1.384 . S
N1421 C1413 1.427 . S
N1421 C1419 1.384 . S
H1422 C1428 0.930 . S
H1423 C1432 0.930 . S
H1424 C1437 0.929 . S
H1425 C1435 0.929 . S
H1426 C1430 0.929 . S
H1427 C1436 0.929 . S
C1428 H1422 0.930 . S
C1428 C1429 1.367 . S
C1428 C1436 1.378 . S
C1429 C1428 1.367 . S
C1429 C1437 1.433 . S
C1430 H1426 0.929 . S
C1430 C1432 1.378 . S
C1430 C1434 1.350 . S
C1431 C1434 1.463 . S
C1431 C1436 1.350 . S
C1431 N1439 1.427 . S
C1432 H1423 0.930 . S
C1432 C1430 1.378 . S
C1432 C1433 1.367 . S
C1433 C1432 1.367 . S
C1433 C1435 1.433 . S
C1434 C1430 1.350 . S
C1434 C1431 1.463 . S
C1434 N1438 1.427 . S
C1435 H1425 0.929 . S
C1435 C1433 1.433 . S
C1435 N1438 1.384 . S
C1436 H1427 0.929 . S
C1436 C1428 1.378 . S
C1436 C1431 1.350 . S
C1437 H1424 0.929 . S
C1437 C1429 1.433 . S
C1437 N1439 1.384 . S
N1438 C1434 1.427 . S
N1438 C1435 1.384 . S
N1439 C1431 1.427 . S
N1439 C1437 1.384 . S
H1440 C1446 0.930 . S
H1441 C1450 0.930 . S
H1442 C1455 0.929 . S
H1443 C1453 0.929 . S
H1444 C1448 0.929 . S
H1445 C1454 0.929 . S
C1446 H1440 0.930 . S
C1446 C1447 1.367 . S
C1446 C1454 1.378 . S
C1447 C1446 1.367 . S
C1447 C1455 1.433 . S
C1448 H1444 0.929 . S
C1448 C1450 1.378 . S
C1448 C1452 1.350 . S
C1449 C1452 1.463 . S
C1449 C1454 1.350 . S
C1449 N1457 1.427 . S
C1450 H1441 0.930 . S
C1450 C1448 1.378 . S
C1450 C1451 1.367 . S
C1451 C1450 1.367 . S
C1451 C1453 1.433 . S
C1452 C1448 1.350 . S
C1452 C1449 1.463 . S
C1452 N1456 1.427 . S
C1453 H1443 0.929 . S
C1453 C1451 1.433 . S
C1453 N1456 1.384 . S
C1454 H1445 0.929 . S
C1454 C1446 1.378 . S
C1454 C1449 1.350 . S
C1455 H1442 0.929 . S
C1455 C1447 1.433 . S
C1455 N1457 1.384 . S
N1456 C1452 1.427 . S
N1456 C1453 1.384 . S
N1457 C1449 1.427 . S
N1457 C1455 1.384 . S
H1458 C1464 0.930 . S
H1459 C1468 0.930 . S
H1460 C1473 0.929 . S
H1461 C1471 0.929 . S
H1462 C1466 0.929 . S
H1463 C1472 0.929 . S
C1464 H1458 0.930 . S
C1464 C1465 1.367 . S
C1464 C1472 1.378 . S
C1465 C1464 1.367 . S
C1465 C1473 1.433 . S
C1466 H1462 0.929 . S
C1466 C1468 1.378 . S
C1466 C1470 1.350 . S
C1467 C1470 1.463 . S
C1467 C1472 1.350 . S
C1467 N1475 1.427 . S
C1468 H1459 0.930 . S
C1468 C1466 1.378 . S
C1468 C1469 1.367 . S
C1469 C1468 1.367 . S
C1469 C1471 1.433 . S
C1470 C1466 1.350 . S
C1470 C1467 1.463 . S
C1470 N1474 1.427 . S
C1471 H1461 0.929 . S
C1471 C1469 1.433 . S
C1471 N1474 1.384 . S
C1472 H1463 0.929 . S
C1472 C1464 1.378 . S
C1472 C1467 1.350 . S
C1473 H1460 0.929 . S
C1473 C1465 1.433 . S
C1473 N1475 1.384 . S
N1474 C1470 1.427 . S
N1474 C1471 1.384 . S
N1475 C1467 1.427 . S
N1475 C1473 1.384 . S
H1476 C1482 0.930 . S
H1477 C1486 0.930 . S
H1478 C1491 0.929 . S
H1479 C1489 0.929 . S
H1480 C1484 0.929 . S
H1481 C1490 0.929 . S
C1482 H1476 0.930 . S
C1482 C1483 1.367 . S
C1482 C1490 1.378 . S
C1483 C1482 1.367 . S
C1483 C1491 1.433 . S
C1484 H1480 0.929 . S
C1484 C1486 1.378 . S
C1484 C1488 1.350 . S
C1485 C1488 1.463 . S
C1485 C1490 1.350 . S
C1485 N1493 1.427 . S
C1486 H1477 0.930 . S
C1486 C1484 1.378 . S
C1486 C1487 1.367 . S
C1487 C1486 1.367 . S
C1487 C1489 1.433 . S
C1488 C1484 1.350 . S
C1488 C1485 1.463 . S
C1488 N1492 1.427 . S
C1489 H1479 0.929 . S
C1489 C1487 1.433 . S
C1489 N1492 1.384 . S
C1490 H1481 0.929 . S
C1490 C1482 1.378 . S
C1490 C1485 1.350 . S
C1491 H1478 0.929 . S
C1491 C1483 1.433 . S
C1491 N1493 1.384 . S
N1492 C1488 1.427 . S
N1492 C1489 1.384 . S
N1493 C1485 1.427 . S
N1493 C1491 1.384 . S
C529 C253 1.589 . S
C533 C348 1.575 . S
C547 C272 1.542 . S
C551 C368 1.521 . S
C565 C234 1.528 . S
C569 C391 1.540 . S
C583 C215 1.420 . S
C587 C371 1.428 1_556 S
C605 C388 1.442 1_556 S
C601 C177 1.469 . S
C619 C196 1.483 . S
C623 C351 1.492 . S
C641 C358 1.574 1_556 S
C637 C220 1.472 . S
C659 C378 1.435 . S
C655 C182 1.377 . S
C673 C201 1.537 . S
C677 C383 1.619 . S
C691 C258 1.405 . S
C695 C363 1.496 . S
C709 C277 1.352 . S
C713 C398 1.435 . S
C731 C343 1.604 . S
C727 C239 1.503 . S
C749 C408 1.571 . S
C745 C25 1.587 . S
C763 C44 1.543 . S
C767 C428 1.523 . S
C781 C6 1.528 . S
C785 C451 1.540 . S
C799 C329 1.424 . S
C803 C431 1.430 . S
C817 C291 1.468 . S
C821 C448 1.449 . S
C835 C310 1.482 . S
C839 C411 1.492 . S
C853 C334 1.492 . S
C857 C418 1.579 . S
C871 C296 1.386 . S
C875 C438 1.429 . S
C893 C443 1.622 . S
C889 C315 1.527 . S
C907 C30 1.405 . S
C911 C423 1.497 . S
C929 C458 1.428 . S
C925 C49 1.338 . S
C943 C11 1.486 . S
C947 C403 1.598 . S
C965 C468 1.569 . S
C961 C139 1.586 . S
C979 C158 1.541 . S
C983 C488 1.521 . S
C1001 C511 1.535 . S
C997 C120 1.519 . S
C1019 C491 1.425 . S
C1015 C101 1.416 . S
C1037 C508 1.456 . S
C1033 C63 1.470 . S
C1051 C82 1.481 . S
C1055 C471 1.492 . S
C1069 C106 1.471 . S
C1073 C478 1.572 . S
C1087 C68 1.392 . S
C1091 C498 1.443 . S
C1109 C503 1.624 . S
C1105 C87 1.531 . S
C1123 C144 1.422 . S
C1127 C483 1.499 . S
C1141 C163 1.343 . S
C1145 C518 1.432 . S
C1159 C125 1.502 . S
C1163 C463 1.604 . S
C1177 C287 1.395 . S
C1181 C361 1.332 . S
C1199 C381 1.714 . S
C1195 C306 1.803 . S
C1213 C325 1.552 . S
C1217 C390 1.538 . S
C1231 C116 1.726 . S
C1235 C370 1.694 . S
C1249 C135 1.671 . S
C1253 C401 1.600 . S
C1271 C350 1.341 . S
C1267 C154 1.351 . S
C1285 C59 1.396 . S
C1289 C421 1.333 . S
C1303 C78 1.801 . S
C1307 C441 1.714 . S
C1321 C97 1.548 . S
C1325 C450 1.532 . S
C1339 C230 1.735 . S
C1343 C430 1.695 . S
C1361 C461 1.600 . S
C1357 C249 1.671 . S
C1375 C268 1.352 . S
C1379 C410 1.340 . S
C1393 C173 1.395 . S
C1397 C481 1.332 . S
C1411 C192 1.802 . S
C1415 C501 1.716 . S
C1433 C510 1.532 . S
C1429 C211 1.548 . S
C1447 C2 1.734 . S
C1451 C490 1.690 . S
C1465 C21 1.667 . S
C1469 C521 1.587 . S
C1483 C40 1.344 . S
C1487 C470 1.330 . S
