# Generated by pormake.
# Topology pth, (4,4)-cn, num edge types: 1
# Building blocks:
#     Node 0, Type 0, BuildingBlock: QUQFOY_clean_sbu_3, # of connection points: 4
#     Node 1, Type 0, BuildingBlock: QUQFOY_clean_sbu_3, # of connection points: 4
#     Node 2, Type 0, BuildingBlock: QUQFOY_clean_sbu_3, # of connection points: 4
#     Node 3, Type 1, BuildingBlock: NAHDIM_clean_linker_0, # of connection points: 4
#     Node 4, Type 1, BuildingBlock: NAHDIM_clean_linker_0, # of connection points: 4
#     Node 5, Type 1, BuildingBlock: NAHDIM_clean_linker_0, # of connection points: 4
#     Edge 6, Type (0, 1), BuildingBlock: FUNLAD_clean_linker_0, # of connection points: 2
#     Edge 7, Type (0, 1), BuildingBlock: FUNLAD_clean_linker_0, # of connection points: 2
#     Edge 8, Type (0, 1), BuildingBlock: FUNLAD_clean_linker_0, # of connection points: 2
#     Edge 9, Type (0, 1), BuildingBlock: FUNLAD_clean_linker_0, # of connection points: 2
#     Edge 10, Type (0, 1), BuildingBlock: FUNLAD_clean_linker_0, # of connection points: 2
#     Edge 11, Type (0, 1), BuildingBlock: FUNLAD_clean_linker_0, # of connection points: 2
#     Edge 12, Type (0, 1), BuildingBlock: FUNLAD_clean_linker_0, # of connection points: 2
#     Edge 13, Type (0, 1), BuildingBlock: FUNLAD_clean_linker_0, # of connection points: 2
#     Edge 14, Type (0, 1), BuildingBlock: FUNLAD_clean_linker_0, # of connection points: 2
#     Edge 15, Type (0, 1), BuildingBlock: FUNLAD_clean_linker_0, # of connection points: 2
#     Edge 16, Type (0, 1), BuildingBlock: FUNLAD_clean_linker_0, # of connection points: 2
#     Edge 17, Type (0, 1), BuildingBlock: FUNLAD_clean_linker_0, # of connection points: 2
# Relax obj value: 0.007
# Max RMSD: 0.056
# Mean RMSD: 0.049
data_MOF--net-pth--node1-QUQFOY_clean_sbu_3--node2-NAHDIM_clean_linker_0--edge1-FUNLAD_clean_linker_0
_symmetry_space_group_name_H-M    P1
_symmetry_Int_Tables_number       1
_symmetry_cell_setting            triclinic
loop_
_symmetry_equiv_pos_as_xyz
'x, y, z'
_cell_length_a     36.007288
_cell_length_b     35.96094
_cell_length_c     94.327894
_cell_angle_alpha  89.888634
_cell_angle_beta   91.159219
_cell_angle_gamma 120.77935
loop_
_atom_site_label
_atom_site_type_symbol
_atom_site_fract_x
_atom_site_fract_y
_atom_site_fract_z
_atom_type_partial_charge
C0 C 0.01162 0.11742 0.07004 0.0
O1 O 0.98281 0.1111 0.0608 0.0
Cd2 Cd 0.97163 0.066 0.04031 0.0
O3 O 0.03164 0.09688 0.06923 0.0
Cd4 Cd 0.03352 0.04018 0.05526 0.0
C5 C 0.07712 0.11187 0.02918 0.0
O6 O 0.95779 -0.00434 0.04688 0.0
O7 O 0.00595 0.98854 0.03589 0.0
O8 O 0.02823 0.00746 0.07808 0.0
C9 C 0.96638 0.97594 0.03752 0.0
O10 O 0.03856 0.10368 0.02707 0.0
C11 C 0.05833 -0.00048 0.0763 0.0
O12 O 0.08661 0.09567 0.03968 0.0
O13 O 0.07793 0.01103 0.0646 0.0
C14 C 0.15171 0.09575 0.40069 0.0
O15 O 0.17213 0.11628 0.38981 0.0
Cd16 Cd 0.13385 0.11497 0.36839 0.0
O17 O 0.11057 0.0755 0.40063 0.0
Cd18 Cd 0.04727 0.06032 0.38565 0.0
C19 C 0.07198 0.00445 0.36276 0.0
O20 O 0.07841 0.13082 0.3739 0.0
O21 O 0.01734 0.07889 0.3656 0.0
O22 O 0.02315 0.07408 0.40779 0.0
C23 C 0.04686 0.11839 0.36516 0.0
O24 O 0.10308 0.04142 0.35921 0.0
C25 C 0.98466 0.04234 0.40683 0.0
O26 O 0.04699 0.00091 0.37273 0.0
O27 O 0.97472 0.01807 0.39593 0.0
C28 C 0.95801 0.06721 0.70696 0.0
O29 O 0.96104 0.08506 0.71887 0.0
Cd30 Cd 0.01158 0.09618 0.73742 0.0
O31 O 0.98324 0.0533 0.70401 0.0
Cd32 Cd 0.04323 0.04955 0.71648 0.0
C33 C 0.97682 -0.01053 0.74305 0.0
O34 O 0.0789 0.12268 0.72597 0.0
O35 O 0.10295 0.08343 0.73452 0.0
O36 O 0.07681 0.0618 0.69343 0.0
C37 C 0.10671 0.1204 0.73371 0.0
O38 O 0.98199 0.02487 0.74789 0.0
C39 C 0.08643 0.03251 0.69452 0.0
O40 O -0.00669 0.98851 0.73132 0.0
O41 O 0.07467 0.00993 0.7057 0.0
C42 C 0.96082 0.63022 0.30485 0.0
C43 C -0.00157 0.67123 0.29858 0.0
C44 C 0.00438 0.65426 0.27432 0.0
C45 C 0.04801 0.66675 0.27334 0.0
C46 C 0.06072 0.6447 0.26423 0.0
C47 C 0.02899 0.60927 0.25604 0.0
C48 C 0.98519 0.59821 0.25645 0.0
C49 C 0.97354 0.62139 0.26548 0.0
C50 C 0.10779 0.65799 0.26381 0.0
C51 C 0.95043 0.56044 0.24796 0.0
C52 C 0.00215 0.31672 0.29881 0.0
C53 C -0.00346 0.34592 0.28899 0.0
C54 C 0.03741 0.41717 0.27827 0.0
C55 C 0.0037 0.41066 0.26887 0.0
C56 C 0.00839 0.4436 0.2598 0.0
C57 C 0.04776 0.48377 0.25997 0.0
C58 C 0.08207 0.49026 0.26919 0.0
C59 C 0.07638 0.45678 0.27826 0.0
C60 C 0.97095 0.43564 0.25016 0.0
C61 C 0.12452 0.53265 0.26954 0.0
C62 C 0.11054 0.43214 0.17518 0.0
C63 C 0.06736 0.42172 0.17608 0.0
C64 C 0.05741 0.45231 0.18105 0.0
C65 C 0.09133 0.49415 0.18508 0.0
C66 C 0.1348 0.50546 0.18338 0.0
C67 C 0.14381 0.47428 0.17834 0.0
C68 C 0.01068 0.43961 0.18237 0.0
C69 C 0.17169 0.55001 0.18735 0.0
C70 C 0.00172 0.72697 0.16722 0.0
C71 C 0.04315 0.73444 0.16038 0.0
C72 C 0.04539 0.66861 0.16311 0.0
C73 C 0.01303 0.62529 0.1644 0.0
C74 C 0.01969 0.59705 0.17288 0.0
C75 C 0.06019 0.6125 0.17988 0.0
C76 C 0.09385 0.65581 0.17796 0.0
C77 C 0.08598 0.68354 0.16963 0.0
C78 C 0.98321 0.55095 0.17457 0.0
C79 C 0.13786 0.67286 0.18486 0.0
C80 C 0.04067 0.58033 0.24869 0.0
C81 C 0.04248 0.54891 0.2569 0.0
C82 C 0.05195 0.51938 0.2509 0.0
C83 C 0.06103 0.52168 0.23632 0.0
C84 C 0.07186 0.49318 0.23005 0.0
C85 C 0.07914 0.49458 0.21559 0.0
C86 C 0.07549 0.52431 0.20682 0.0
C87 C 0.08138 0.52495 0.19203 0.0
C88 C 0.07695 0.55448 0.18358 0.0
C89 C 0.06676 0.58366 0.18954 0.0
C90 C 0.06126 0.58391 0.20435 0.0
C91 C 0.0513 0.61304 0.21072 0.0
C92 C 0.0454 0.61258 0.22529 0.0
C93 C 0.04827 0.58234 0.23398 0.0
C94 C 0.05853 0.55286 0.22779 0.0
C95 C 0.06537 0.55388 0.21299 0.0
C96 C 0.12588 0.34404 0.18114 0.0
C97 C 0.09725 0.35831 0.17362 0.0
O98 O -0.00873 0.67235 0.28413 0.0
O99 O 0.0368 0.6953 0.15542 0.0
O100 O 0.12139 0.40257 0.17138 0.0
O101 O 0.03341 0.38626 0.2875 0.0
H102 H 0.02834 0.66992 0.3006 0.0
H103 H 0.95878 0.60115 0.29995 0.0
H104 H 0.92965 0.62889 0.30281 0.0
H105 H 0.96589 0.62925 0.31648 0.0
H106 H 0.07191 0.69313 0.27995 0.0
H107 H 0.93997 0.61242 0.26625 0.0
H108 H 0.11247 0.63325 0.26927 0.0
H109 H 0.12906 0.6898 0.26911 0.0
H110 H 0.11791 0.65977 0.25267 0.0
H111 H 0.91795 0.55624 0.24939 0.0
H112 H 0.94934 0.53021 0.25121 0.0
H113 H 0.95805 0.56516 0.23652 0.0
H114 H 0.96697 0.34778 0.29076 0.0
H115 H 0.98 0.3113 0.30784 0.0
H116 H 0.03273 0.33772 0.30521 0.0
H117 H -0.00585 0.26633 0.28553 0.0
H118 H 0.97343 0.38007 0.26862 0.0
H119 H 0.10229 0.4615 0.28547 0.0
H120 H 0.98033 0.43749 0.23893 0.0
H121 H 0.96268 0.46106 0.25191 0.0
H122 H 0.94166 0.40348 0.25188 0.0
H123 H 0.14914 0.53147 0.2765 0.0
H124 H 0.11932 0.5587 0.27345 0.0
H125 H 0.13727 0.54135 0.25865 0.0
H126 H 0.07015 0.35004 0.18089 0.0
H127 H 0.04138 0.38973 0.17298 0.0
H128 H 0.17701 0.48223 0.17733 0.0
H129 H 0.00333 0.44 0.19372 0.0
H130 H -0.01188 0.40685 0.1779 0.0
H131 H 0.00482 0.46345 0.17683 0.0
H132 H 0.20368 0.55423 0.18491 0.0
H133 H 0.17094 0.55579 0.19888 0.0
H134 H 0.16798 0.5749 0.18159 0.0
H135 H 0.06945 0.74859 0.16862 0.0
H136 H 0.00616 0.75802 0.17127 0.0
H137 H -0.00637 0.70455 0.17629 0.0
H138 H 0.97421 0.71248 0.15943 0.0
H139 H 0.98205 0.61406 0.1591 0.0
H140 H 0.11153 0.71677 0.16815 0.0
H141 H 0.97665 0.54349 0.186 0.0
H142 H -0.00723 0.5285 0.17019 0.0
H143 H 0.95295 0.54469 0.16907 0.0
H144 H 0.16172 0.70591 0.18121 0.0
H145 H 0.15013 0.65084 0.18252 0.0
H146 H 0.13527 0.67387 0.19654 0.0
H147 H 0.03525 0.54666 0.2681 0.0
H148 H 0.07474 0.46938 0.23627 0.0
H149 H 0.08723 0.4717 0.21136 0.0
H150 H 0.08098 0.5544 0.17222 0.0
H151 H 0.04795 0.63656 0.20453 0.0
H152 H 0.03792 0.63578 0.22963 0.0
H153 H 0.10732 0.30858 0.183 0.0
H154 H 0.13728 0.36087 0.19157 0.0
H155 H 0.15461 0.3521 0.17475 0.0
C156 C 0.40362 0.02237 0.63976 0.0
C157 C 0.37968 0.03428 0.62874 0.0
C158 C 0.40257 0.01906 0.60649 0.0
C159 C 0.42963 0.0611 0.60143 0.0
C160 C 0.4622 0.06969 0.59179 0.0
C161 C 0.46774 0.03552 0.58711 0.0
C162 C 0.43942 -0.00718 0.59178 0.0
C163 C 0.40675 0.98508 0.60129 0.0
C164 C 0.49113 0.11539 0.58674 0.0
C165 C 0.44443 0.95562 0.58702 0.0
C166 C 0.73529 0.16369 0.63457 0.0
C167 C 0.7241 0.12207 0.62661 0.0
C168 C 0.69598 0.11461 0.60272 0.0
C169 C 0.66615 0.07013 0.60166 0.0
C170 C 0.62949 0.05432 0.59271 0.0
C171 C 0.62239 0.08383 0.58487 0.0
C172 C 0.65335 0.1287 0.5856 0.0
C173 C 0.6903 0.14344 0.59436 0.0
C174 C 0.59774 0.00623 0.59196 0.0
C175 C 0.64656 0.16121 0.57759 0.0
C176 C 0.67178 0.06071 0.493 0.0
C177 C 0.64501 0.0214 0.4998 0.0
C178 C 0.6094 0.01531 0.50751 0.0
C179 C 0.60066 0.04937 0.50848 0.0
C180 C 0.62689 0.08857 0.50126 0.0
C181 C 0.66189 0.0935 0.49344 0.0
C182 C 0.58126 0.97256 0.51469 0.0
C183 C 0.61835 0.12544 0.50201 0.0
C184 C 0.25103 0.94342 0.50124 0.0
C185 C 0.29626 0.98 0.4975 0.0
C186 C 0.36349 0.97884 0.49934 0.0
C187 C 0.3782 0.95012 0.5016 0.0
C188 C 0.41965 0.96451 0.50735 0.0
C189 C 0.44728 0.00898 0.51057 0.0
C190 C 0.43362 0.0387 0.5074 0.0
C191 C 0.3917 0.02328 0.50187 0.0
C192 C 0.43334 0.932 0.51044 0.0
C193 C 0.46287 0.08654 0.51023 0.0
C194 C 0.50465 0.04487 0.57799 0.0
C195 C 0.54476 0.05924 0.58466 0.0
C196 C 0.581 0.06811 0.57689 0.0
C197 C 0.57728 0.06222 0.56201 0.0
C198 C 0.61277 0.06974 0.55391 0.0
C199 C 0.6088 0.06412 0.53925 0.0
C200 C 0.56909 0.05051 0.53214 0.0
C201 C 0.56455 0.04416 0.51726 0.0
C202 C 0.52478 0.03129 0.51051 0.0
C203 C 0.48896 0.02381 0.51827 0.0
C204 C 0.49262 0.02915 0.53318 0.0
C205 C 0.45692 0.0209 0.54135 0.0
C206 C 0.4608 0.02618 0.55601 0.0
C207 C 0.50045 0.03972 0.56309 0.0
C208 C 0.53689 0.0483 0.55508 0.0
C209 C 0.5329 0.04277 0.54012 0.0
C210 C 0.7733 0.09992 0.49889 0.0
C211 C 0.7385 0.05973 0.49088 0.0
O212 O 0.37235 0.01032 0.6164 0.0
O213 O 0.3219 0.96243 0.49484 0.0
O214 O 0.70678 0.06752 0.4857 0.0
O215 O 0.72941 0.13039 0.61222 0.0
H216 H 0.40032 0.06944 0.62661 0.0
H217 H 0.43573 0.03068 0.63574 0.0
H218 H 0.38498 0.98713 0.642 0.0
H219 H 0.40881 0.04073 0.64979 0.0
H220 H 0.42528 0.08726 0.6049 0.0
H221 H 0.38528 0.95265 0.6051 0.0
H222 H 0.52458 0.12783 0.59087 0.0
H223 H 0.48017 0.13758 0.59032 0.0
H224 H 0.49219 0.11585 0.57498 0.0
H225 H 0.42045 0.92452 0.59189 0.0
H226 H 0.47746 0.96246 0.58982 0.0
H227 H 0.44048 0.95202 0.57531 0.0
H228 H 0.68962 0.0981 0.62889 0.0
H229 H 0.7314 0.15773 0.64616 0.0
H230 H 0.7132 0.17501 0.63096 0.0
H231 H 0.76908 0.18969 0.63255 0.0
H232 H 0.67134 0.04796 0.60801 0.0
H233 H 0.71382 0.17775 0.59527 0.0
H234 H 0.56789 -0.00118 0.59754 0.0
H235 H 0.61104 0.98734 0.59695 0.0
H236 H 0.58853 -0.00452 0.58075 0.0
H237 H 0.67224 0.1951 0.58007 0.0
H238 H 0.61473 0.15709 0.5802 0.0
H239 H 0.64628 0.15558 0.56602 0.0
H240 H 0.72463 0.0323 0.49843 0.0
H241 H 0.65154 -0.00473 0.49895 0.0
H242 H 0.68243 0.12347 0.48795 0.0
H243 H 0.58452 0.97743 0.52636 0.0
H244 H 0.59005 0.94808 0.51188 0.0
H245 H 0.54677 0.95966 0.5117 0.0
H246 H 0.64275 0.15444 0.49624 0.0
H247 H 0.61846 0.13456 0.51326 0.0
H248 H 0.58582 0.11495 0.49738 0.0
H249 H 0.3091 0.00202 0.50692 0.0
H250 H 0.22988 0.95662 0.50366 0.0
H251 H 0.253 0.92621 0.51076 0.0
H252 H 0.23622 0.91975 0.49233 0.0
H253 H 0.35639 0.916 0.49937 0.0
H254 H 0.38101 0.04592 0.49961 0.0
H255 H 0.44176 0.93324 0.52189 0.0
H256 H 0.46271 0.94033 0.5044 0.0
H257 H 0.40766 0.89841 0.50759 0.0
H258 H 0.44975 0.10589 0.5055 0.0
H259 H 0.49542 0.09792 0.50593 0.0
H260 H 0.46686 0.09261 0.52185 0.0
H261 H 0.54783 0.06357 0.5961 0.0
H262 H 0.64405 0.08006 0.55882 0.0
H263 H 0.63728 0.07059 0.53356 0.0
H264 H 0.52152 0.02647 0.4991 0.0
H265 H 0.42548 0.01019 0.53651 0.0
H266 H 0.43228 0.01947 0.56173 0.0
H267 H 0.78818 0.12837 0.49177 0.0
H268 H 0.79895 0.09427 0.50319 0.0
H269 H 0.75872 0.10732 0.50792 0.0
C270 C 0.70424 0.63268 0.8046 0.0
C271 C 0.69923 0.67132 0.80829 0.0
C272 C 0.66138 0.65287 0.8303 0.0
C273 C 0.63298 0.66835 0.83134 0.0
C274 C 0.59518 0.64591 0.83924 0.0
C275 C 0.58564 0.60694 0.84605 0.0
C276 C 0.61436 0.59116 0.84488 0.0
C277 C 0.65236 0.61484 0.83719 0.0
C278 C 0.56557 0.66388 0.84036 0.0
C279 C 0.6049 0.54928 0.85169 0.0
C280 C 0.2328 0.37348 0.83542 0.0
C281 C 0.27679 0.38025 0.83145 0.0
C282 C 0.34537 0.44906 0.83345 0.0
C283 C 0.37202 0.43238 0.83708 0.0
C284 C 0.4132 0.45918 0.84325 0.0
C285 C 0.42783 0.50339 0.84582 0.0
C286 C 0.40201 0.5207 0.84142 0.0
C287 C 0.36117 0.49327 0.83515 0.0
C288 C 0.4405 0.44001 0.84746 0.0
C289 C 0.41686 0.5678 0.84384 0.0
C290 C 0.35764 0.43878 0.93633 0.0
C291 C 0.38494 0.42586 0.9306 0.0
C292 C 0.42278 0.45571 0.92372 0.0
C293 C 0.4332 0.49925 0.92246 0.0
C294 C 0.4065 0.51265 0.92871 0.0
C295 C 0.36922 0.4822 0.93575 0.0
C296 C 0.45135 0.44062 0.91764 0.0
C297 C 0.41684 0.55884 0.92767 0.0
C298 C 0.767 0.72238 0.93238 0.0
C299 C 0.73613 0.73199 0.9403 0.0
C300 C 0.66459 0.66809 0.93833 0.0
C301 C 0.65038 0.62427 0.93653 0.0
C302 C 0.61229 0.59693 0.92876 0.0
C303 C 0.58739 0.61386 0.92304 0.0
C304 C 0.60067 0.65786 0.92543 0.0
C305 C 0.63939 0.68463 0.93299 0.0
C306 C 0.59898 0.55015 0.92649 0.0
C307 C 0.57404 0.67656 0.91995 0.0
C308 C 0.54567 0.58254 0.85437 0.0
C309 C 0.50671 0.55593 0.84699 0.0
C310 C 0.46828 0.53059 0.8542 0.0
C311 C 0.46854 0.53115 0.8692 0.0
C312 C 0.43056 0.50535 0.87678 0.0
C313 C 0.43133 0.50517 0.89151 0.0
C314 C 0.47 0.53113 0.89927 0.0
C315 C 0.47133 0.53027 0.91425 0.0
C316 C 0.50985 0.5578 0.92166 0.0
C317 C 0.54765 0.58565 0.91448 0.0
C318 C 0.54741 0.58574 0.89948 0.0
C319 C 0.58523 0.61214 0.89191 0.0
C320 C 0.58469 0.61152 0.87715 0.0
C321 C 0.54636 0.58434 0.86938 0.0
C322 C 0.50773 0.55808 0.8768 0.0
C323 C 0.50835 0.55846 0.89186 0.0
C324 C 0.25232 0.37485 0.93035 0.0
C325 C 0.28927 0.37055 0.93678 0.0
O326 O 0.69806 0.67499 0.82287 0.0
O327 O 0.70239 0.69364 0.94546 0.0
O328 O 0.32024 0.41011 0.94261 0.0
O329 O 0.30426 0.42359 0.8284 0.0
H330 H 0.66838 0.66585 0.80336 0.0
H331 H 0.67583 0.60221 0.80828 0.0
H332 H 0.73392 0.63626 0.80977 0.0
H333 H 0.70618 0.63003 0.79294 0.0
H334 H 0.64068 0.69813 0.82603 0.0
H335 H 0.67491 0.60349 0.83636 0.0
H336 H 0.53437 0.64176 0.83481 0.0
H337 H 0.57963 0.69654 0.83562 0.0
H338 H 0.55854 0.66584 0.85166 0.0
H339 H 0.62753 0.53881 0.84827 0.0
H340 H 0.57129 0.52321 0.84904 0.0
H341 H 0.60775 0.55343 0.86339 0.0
H342 H 0.28902 0.37069 0.84088 0.0
H343 H 0.21018 0.339 0.83805 0.0
H344 H 0.2186 0.3829 0.82655 0.0
H345 H 0.23659 0.39363 0.84486 0.0
H346 H 0.36065 0.39847 0.83522 0.0
H347 H 0.34062 0.50591 0.83205 0.0
H348 H 0.47362 0.46011 0.84331 0.0
H349 H 0.42647 0.40628 0.84349 0.0
H350 H 0.44343 0.44001 0.8592 0.0
H351 H 0.39346 0.5765 0.83946 0.0
H352 H 0.44862 0.58847 0.83884 0.0
H353 H 0.42136 0.57514 0.85539 0.0
H354 H 0.30295 0.3607 0.92807 0.0
H355 H 0.37679 0.39251 0.93159 0.0
H356 H 0.34818 0.49187 0.94044 0.0
H357 H 0.44977 0.44134 0.90588 0.0
H358 H 0.44149 0.40719 0.92093 0.0
H359 H 0.48552 0.46276 0.92104 0.0
H360 H 0.3918 0.56366 0.93258 0.0
H361 H 0.41971 0.56844 0.91636 0.0
H362 H 0.44847 0.58069 0.93303 0.0
H363 H 0.7238 0.7471 0.93269 0.0
H364 H 0.79411 0.75262 0.92799 0.0
H365 H 0.74945 0.69964 0.92342 0.0
H366 H 0.78038 0.7074 0.93959 0.0
H367 H 0.66991 0.61183 0.94092 0.0
H368 H 0.64977 0.71832 0.93487 0.0
H369 H 0.59342 0.5419 0.91501 0.0
H370 H 0.56808 0.52899 0.9319 0.0
H371 H 0.62366 0.54291 0.93067 0.0
H372 H 0.58644 0.71002 0.92395 0.0
H373 H 0.53987 0.65584 0.92312 0.0
H374 H 0.57441 0.67717 0.90819 0.0
H375 H 0.50633 0.55471 0.83549 0.0
H376 H 0.3998 0.48463 0.87141 0.0
H377 H 0.40116 0.4844 0.89676 0.0
H378 H 0.51054 0.55717 0.93316 0.0
H379 H 0.61577 0.63341 0.89731 0.0
H380 H 0.61478 0.63254 0.8719 0.0
H381 H 0.23721 0.38452 0.93861 0.0
H382 H 0.22726 0.34366 0.92545 0.0
H383 H 0.26493 0.39989 0.92198 0.0
C384 C -0.00101 0.1695 0.08395 0.0
C385 C 0.02317 0.14942 0.08166 0.0
C386 C 0.01086 0.20022 0.09485 0.0
C387 C 0.0473 0.21149 0.10362 0.0
C388 C 0.07154 0.19169 0.10121 0.0
C389 C 0.05951 0.16084 0.09046 0.0
C390 C 0.06192 0.24437 0.11516 0.0
C391 C 0.03537 0.25351 0.12221 0.0
C392 C 0.05066 0.28324 0.13469 0.0
C393 C 0.02246 0.27489 0.1459 0.0
C394 C 0.03713 0.29995 0.15832 0.0
C395 C 0.0801 0.33436 0.15965 0.0
H396 H 0.11542 0.32704 0.12717 0.0
C397 C 0.10776 0.34399 0.14816 0.0
C398 C 0.09319 0.31882 0.13579 0.0
H399 H 0.14101 0.37042 0.14891 0.0
H400 H 0.97098 0.16162 0.0773 0.0
H401 H -0.00802 0.21557 0.09617 0.0
H402 H 0.09987 0.19993 0.10775 0.0
H403 H 0.07909 0.14627 0.08896 0.0
H404 H 0.09547 0.25912 0.1187 0.0
H405 H 0.00093 0.23577 0.11972 0.0
H406 H -0.01054 0.24791 0.14526 0.0
H407 H 0.01518 0.2918 0.16702 0.0
C408 C 0.90842 0.01224 0.41471 0.0
C409 C 0.95305 0.03515 0.41782 0.0
C410 C 0.87908 0.00876 0.42492 0.0
C411 C 0.89398 0.02757 0.43846 0.0
C412 C 0.9384 0.04875 0.44171 0.0
C413 C 0.96769 0.05301 0.43145 0.0
C414 C 0.86436 0.02613 0.44943 0.0
C415 C 0.82932 0.02911 0.44632 0.0
C416 C 0.80363 0.03409 0.45748 0.0
C417 C 0.78561 0.06006 0.45482 0.0
C418 C 0.76385 0.06787 0.46546 0.0
C419 C 0.7586 0.04875 0.47885 0.0
H420 H 0.81051 -0.00655 0.47311 0.0
C421 C 0.77568 0.02183 0.48138 0.0
C422 C 0.79783 0.01442 0.4708 0.0
H423 H 0.77248 0.00706 0.49165 0.0
H424 H 0.89628 -0.00195 0.4043 0.0
H425 H 0.84489 -0.00865 0.42221 0.0
H426 H 0.95062 0.06318 0.4521 0.0
H427 H 0.0019 0.07054 0.43418 0.0
H428 H 0.87442 0.0274 0.46044 0.0
H429 H 0.82189 0.03253 0.43534 0.0
H430 H 0.78963 0.07557 0.44465 0.0
H431 H 0.75178 0.08942 0.46326 0.0
C432 C 0.9329 0.95023 0.76411 0.0
C433 C 0.94852 0.94879 0.7507 0.0
C434 C 0.90275 0.9122 0.77079 0.0
C435 C 0.88754 0.87169 0.76422 0.0
C436 C 0.90382 0.87017 0.75096 0.0
C437 C 0.93422 0.90826 0.7443 0.0
C438 C 0.85241 0.83096 0.77036 0.0
C439 C 0.84396 0.82577 0.78431 0.0
C440 C 0.80691 0.78603 0.7902 0.0
C441 C 0.80999 0.77393 0.80413 0.0
C442 C 0.77536 0.73713 0.81007 0.0
C443 C 0.73639 0.71238 0.80231 0.0
H444 H 0.76404 0.77009 0.77177 0.0
C445 C 0.73326 0.72463 0.78839 0.0
C446 C 0.76803 0.76112 0.7824 0.0
H447 H 0.70381 0.70582 0.78213 0.0
H448 H 0.94308 0.98088 0.76933 0.0
H449 H 0.89025 0.91496 0.78082 0.0
H450 H 0.89246 0.83944 0.74562 0.0
H451 H 0.94541 0.90597 0.73395 0.0
H452 H 0.83327 0.80409 0.76309 0.0
H453 H 0.86557 0.8508 0.79181 0.0
H454 H 0.83949 0.79268 0.81039 0.0
H455 H 0.77912 0.72802 0.82071 0.0
C456 C 0.08888 0.95336 0.08374 0.0
C457 C 0.0684 0.97639 0.08723 0.0
C458 C 0.09417 0.92795 0.09392 0.0
C459 C 0.07954 0.92571 0.1078 0.0
C460 C 0.06112 0.95049 0.11142 0.0
C461 C 0.05513 0.97516 0.10121 0.0
C462 C 0.08195 0.89729 0.11872 0.0
C463 C 0.07653 0.85824 0.11563 0.0
C464 C 0.07137 0.82695 0.12681 0.0
C465 C 0.0439 0.78251 0.12413 0.0
C466 C 0.0354 0.75239 0.13483 0.0
C467 C 0.05513 0.76611 0.14833 0.0
H468 H 0.11412 0.87453 0.14254 0.0
C469 C 0.08367 0.81049 0.15087 0.0
C470 C 0.09192 0.84061 0.14021 0.0
H471 H 0.09902 0.82194 0.16121 0.0
H472 H 0.09953 0.95387 0.07305 0.0
H473 H 0.10946 0.90999 0.09091 0.0
H474 H 0.04995 0.9496 0.12206 0.0
H475 H 0.03957 -0.00712 0.10424 0.0
H476 H 0.08305 0.90664 0.12973 0.0
H477 H 0.07083 0.84696 0.10468 0.0
H478 H 0.02772 0.77117 0.11389 0.0
H479 H 0.01274 0.71846 0.13263 0.0
C480 C 0.21837 0.10366 0.41264 0.0
C481 C 0.17532 0.09383 0.41342 0.0
C482 C 0.23916 0.0982 0.42446 0.0
C483 C 0.21732 0.08316 0.43731 0.0
C484 C 0.1751 0.07537 0.43824 0.0
C485 C 0.15415 0.08021 0.42641 0.0
C486 C 0.23689 0.07415 0.44986 0.0
C487 C 0.2644 0.05941 0.44881 0.0
C488 C 0.27723 0.04275 0.46123 0.0
C489 C 0.2839 0.00793 0.45927 0.0
C490 C 0.29149 0.98842 0.4709 0.0
C491 C 0.29363 0.00409 0.48471 0.0
H492 H 0.27708 0.08696 0.47686 0.0
C493 C 0.28884 0.04012 0.48662 0.0
C494 C 0.28091 0.05943 0.475 0.0
H495 H 0.29012 0.05266 0.49717 0.0
H496 H 0.23562 0.11446 0.4028 0.0
H497 H 0.27217 0.10561 0.4235 0.0
H498 H 0.15771 0.06414 0.44805 0.0
H499 H 0.12113 0.07281 0.4274 0.0
H500 H 0.22419 0.07478 0.46015 0.0
H501 H 0.27363 0.05449 0.4384 0.0
H502 H 0.28137 -0.00542 0.44876 0.0
H503 H 0.29448 0.96033 0.46912 0.0
C504 C 0.16177 0.1519 0.75363 0.0
C505 C 0.13676 0.15697 0.74305 0.0
C506 C 0.18701 0.18558 0.76326 0.0
C507 C 0.1878 0.22516 0.76243 0.0
C508 C 0.16405 0.23052 0.75145 0.0
C509 C 0.13887 0.19693 0.74189 0.0
C510 C 0.21009 0.26073 0.77314 0.0
C511 C 0.2345 0.26094 0.78421 0.0
C512 C 0.25027 0.29408 0.79575 0.0
C513 C 0.25646 0.28254 0.80945 0.0
C514 C 0.26672 0.31109 0.82088 0.0
C515 C 0.27167 0.35206 0.81881 0.0
H516 H 0.25448 0.34679 0.78312 0.0
C517 C 0.26744 0.36443 0.80501 0.0
C518 C 0.25731 0.33596 0.79358 0.0
H519 H 0.27092 0.39577 0.80312 0.0
H520 H 0.16089 0.12148 0.75475 0.0
H521 H 0.20458 0.17959 0.77146 0.0
H522 H 0.16404 0.26054 0.75045 0.0
H523 H 0.12023 0.20202 0.73378 0.0
H524 H 0.20353 0.28694 0.77225 0.0
H525 H 0.2403 0.23443 0.78566 0.0
H526 H 0.2516 0.25067 0.81142 0.0
H527 H 0.26951 0.30066 0.83142 0.0
C528 C 0.92694 0.05496 0.68211 0.0
C529 C 0.92456 0.06265 0.69658 0.0
C530 C 0.89602 0.05291 0.67236 0.0
C531 C 0.862 0.0581 0.677 0.0
C532 C 0.85891 0.06416 0.69151 0.0
C533 C 0.88997 0.0668 0.70117 0.0
C534 C 0.8293 0.05809 0.66718 0.0
C535 C 0.83739 0.07189 0.65369 0.0
C536 C 0.80702 0.08002 0.64524 0.0
C537 C 0.82375 0.11431 0.63558 0.0
C538 C 0.79672 0.12681 0.62902 0.0
C539 C 0.75235 0.10491 0.6319 0.0
H540 H 0.74782 0.02865 0.65432 0.0
C541 C 0.73518 0.06887 0.64085 0.0
C542 C 0.76213 0.0563 0.64736 0.0
H543 H 0.70104 0.05116 0.64315 0.0
H544 H 0.95309 0.05133 0.67828 0.0
H545 H 0.89875 0.04713 0.66128 0.0
H546 H 0.83286 0.06792 0.69538 0.0
H547 H 0.88685 0.07223 0.71226 0.0
H548 H 0.79916 0.05135 0.67185 0.0
H549 H 0.86908 0.08279 0.6494 0.0
H550 H 0.85813 0.13283 0.63365 0.0
H551 H 0.81072 0.15465 0.62212 0.0
C552 C 0.94518 0.93072 0.01553 0.0
C553 C 0.93283 0.94328 0.02782 0.0
C554 C 0.91409 0.90115 0.00597 0.0
C555 C 0.86986 0.88319 0.00852 0.0
C556 C 0.85735 0.89462 0.02101 0.0
C557 C 0.8886 0.92485 0.03052 0.0
C558 C 0.83666 0.85178 -0.00162 0.0
C559 C 0.84232 0.85605 0.98428 0.0
C560 C 0.81169 0.82399 0.97373 0.0
C561 C 0.80953 0.83802 0.96002 0.0
C562 C 0.78384 0.8083 0.94944 0.0
C563 C 0.76014 0.76379 0.9523 0.0
H564 H 0.78972 0.76748 -0.01297 0.0
C565 C 0.76248 0.74965 0.96604 0.0
C566 C 0.78769 0.7795 0.97669 0.0
H567 H 0.74557 0.71549 0.96849 0.0
H568 H 0.97899 0.94411 0.01318 0.0
H569 H 0.92477 0.89203 -0.00335 0.0
H570 H 0.82342 0.88075 0.02327 0.0
H571 H 0.87817 0.93372 0.03996 0.0
H572 H 0.80672 0.82566 0.00257 0.0
H573 H 0.8704 0.88478 0.98021 0.0
H574 H 0.82821 0.87208 0.95743 0.0
H575 H 0.78329 0.81996 0.93889 0.0
C576 C 0.02738 0.92517 0.35652 0.0
C577 C 0.06563 0.96548 0.35519 0.0
C578 C 0.02182 0.88878 0.34918 0.0
C579 C 0.0546 0.89205 0.34044 0.0
C580 C 0.09292 0.93216 0.33929 0.0
C581 C 0.09826 0.96851 0.34647 0.0
C582 C 0.05095 0.85419 0.33284 0.0
C583 C 0.01311 0.8201 0.32829 0.0
C584 C 0.01051 0.7829 0.32052 0.0
C585 C 0.97628 0.7593 0.31077 0.0
C586 C 0.97282 0.72387 0.30342 0.0
C587 C 0.00334 0.71109 0.3058 0.0
H588 H 0.06681 0.78624 0.33076 0.0
C589 C 0.03721 0.7343 0.3157 0.0
C590 C 0.04082 0.76981 0.32298 0.0
H591 H 0.06068 0.72463 0.31796 0.0
H592 H 0.00171 0.92174 0.3632 0.0
H593 H -0.00772 0.85808 0.3506 0.0
H594 H 0.11881 0.93548 0.33274 0.0
H595 H 0.12828 -0.00104 0.34526 0.0
H596 H 0.08098 0.85579 0.33022 0.0
H597 H 0.98334 0.82035 0.32961 0.0
H598 H 0.95225 0.76841 0.30879 0.0
H599 H 0.94604 0.70612 0.29599 0.0
C600 C 0.12846 -0.00097 0.68604 0.0
C601 C 0.113 0.02743 0.68378 0.0
C602 C 0.1579 -0.00171 0.67675 0.0
C603 C 0.17225 0.0258 0.66492 0.0
C604 C 0.15537 0.05286 0.66241 0.0
C605 C 0.12604 0.05364 0.67169 0.0
C606 C 0.20772 0.03062 0.65582 0.0
C607 C 0.22125 0.00197 0.65519 0.0
C608 C 0.26058 0.01083 0.64748 0.0
C609 C 0.2644 0.97605 0.64264 0.0
C610 C 0.30225 0.98347 0.63619 0.0
C611 C 0.33721 0.0259 0.63455 0.0
H612 H 0.29471 0.08092 0.64987 0.0
C613 C 0.33342 0.06066 0.63943 0.0
C614 C 0.29561 0.05328 0.64581 0.0
H615 H 0.36015 0.09363 0.63859 0.0
H616 H 0.11916 0.97856 0.6953 0.0
H617 H 0.17065 0.97756 0.6793 0.0
H618 H 0.16586 0.07449 0.65343 0.0
H619 H 0.11468 0.07584 0.66962 0.0
H620 H 0.22374 0.05966 0.64944 0.0
H621 H 0.20317 0.97095 0.6604 0.0
H622 H 0.2382 0.94302 0.64398 0.0
H623 H 0.30459 0.95606 0.63272 0.0
C624 C 0.09887 0.14795 0.00572 0.0
C625 C 0.11089 0.14116 0.01931 0.0
C626 C 0.1299 0.1773 -0.00346 0.0
C627 C 0.17377 0.20081 0.00074 0.0
C628 C 0.18594 0.19393 0.01429 0.0
C629 C 0.15483 0.16391 0.02344 0.0
C630 C 0.20639 0.23504 -0.00844 0.0
C631 C 0.20312 0.23212 0.97732 0.0
C632 C 0.23038 0.26851 0.96778 0.0
C633 C 0.23529 0.25922 0.95374 0.0
C634 C 0.25606 0.29247 0.94395 0.0
C635 C 0.2721 0.33576 0.94797 0.0
H636 H 0.24277 0.32023 0.98251 0.0
C637 C 0.26756 0.34516 0.96207 0.0
C638 C 0.2472 0.31192 0.97191 0.0
H639 H 0.27855 0.37808 0.96539 0.0
H640 H 0.06528 0.13091 0.00222 0.0
H641 H 0.11914 0.18263 0.98634 0.0
H642 H 0.21949 0.21202 0.01782 0.0
H643 H 0.165 0.15952 0.03388 0.0
H644 H 0.23322 0.26336 -0.00332 0.0
H645 H 0.17873 0.2019 0.97233 0.0
H646 H 0.22206 0.22603 0.95024 0.0
H647 H 0.25837 0.28425 0.93309 0.0
C648 C 0.01025 0.13143 0.3447 0.0
C649 C 0.04533 0.14746 0.35438 0.0
C650 C 0.00858 0.15805 0.33426 0.0
C651 C 0.04181 0.20163 0.33334 0.0
C652 C 0.07717 0.21759 0.34291 0.0
C653 C 0.07886 0.19082 0.35339 0.0
C654 C 0.04102 0.23047 0.32218 0.0
C655 C 0.00394 0.22428 0.31628 0.0
C656 C 0.00196 0.25062 0.30467 0.0
C657 C 0.9488 0.23986 0.29945 0.0
C658 C 0.94186 0.26919 0.28521 0.0
C659 C -0.00712 0.31589 0.27876 0.0
H660 H 0.08106 0.29286 0.29807 0.0
C661 C 0.04634 0.31968 0.2808 0.0
C662 C 0.04991 0.28864 0.29523 0.0
H663 H 0.07499 0.34473 0.27575 0.0
H664 H 0.98411 0.09803 0.34506 0.0
H665 H 0.98158 0.14393 0.32678 0.0
H666 H 0.10343 0.25088 0.34233 0.0
H667 H 0.10646 0.20401 0.36065 0.0
H668 H 0.07171 0.25787 0.31906 0.0
H669 H 0.9731 0.19897 0.32016 0.0
H670 H 0.92075 0.21558 0.30496 0.0
H671 H 0.91066 0.26565 0.28287 0.0
loop_
_geom_bond_atom_site_label_1
_geom_bond_atom_site_label_2
_geom_bond_distance
_geom_bond_site_symmetry_2
_ccdc_geom_bond_type
C0 O1 1.306 . S
C0 O3 1.160 . S
O1 C0 1.306 . S
O1 Cd2 2.229 . S
Cd2 O1 2.229 . S
Cd2 O6 2.276 1_455 S
Cd2 O10 2.287 . S
O3 C0 1.160 . S
O3 Cd4 2.203 . S
Cd4 O3 2.203 . S
Cd4 O6 2.411 1_455 S
Cd4 O7 2.333 1_545 S
Cd4 O8 2.352 1_545 S
Cd4 O12 2.277 . S
Cd4 O13 2.330 1_545 S
C5 O10 1.209 . S
C5 O12 1.226 . S
O6 Cd2 2.276 1_655 S
O6 Cd4 2.411 1_655 S
O6 C9 1.320 1_545 S
O7 Cd4 2.333 1_565 S
O7 C9 1.214 1_455 S
O8 Cd4 2.352 1_565 S
O8 C11 1.258 . S
C9 O6 1.320 1_565 S
C9 O7 1.214 1_655 S
O10 Cd2 2.287 . S
O10 C5 1.209 . S
C11 O8 1.258 . S
C11 O13 1.284 . S
O12 Cd4 2.277 . S
O12 C5 1.226 . S
O13 Cd4 2.330 1_565 S
O13 C11 1.284 . S
C14 O15 1.306 . S
C14 O17 1.160 . S
O15 C14 1.306 . S
O15 Cd16 2.228 . S
Cd16 O15 2.228 . S
Cd16 O20 2.273 . S
Cd16 O24 2.277 . S
O17 C14 1.160 . S
O17 Cd18 2.203 . S
Cd18 O17 2.203 . S
Cd18 O20 2.411 . S
Cd18 O21 2.333 . S
Cd18 O22 2.352 . S
Cd18 O26 2.277 1_545 S
Cd18 O27 2.356 1_455 S
C19 O24 1.209 1_565 S
C19 O26 1.226 . S
O20 Cd16 2.273 . S
O20 Cd18 2.411 . S
O20 C23 1.320 . S
O21 Cd18 2.333 . S
O21 C23 1.214 . S
O22 Cd18 2.352 . S
O22 C25 1.258 1_455 S
C23 O20 1.320 . S
C23 O21 1.214 . S
O24 Cd16 2.277 . S
O24 C19 1.209 1_545 S
C25 O22 1.258 1_655 S
C25 O27 1.282 . S
O26 Cd18 2.277 1_565 S
O26 C19 1.226 . S
O27 Cd18 2.356 1_655 S
O27 C25 1.282 . S
C28 O29 1.306 . S
C28 O31 1.160 . S
O29 C28 1.306 . S
O29 Cd30 2.228 1_655 S
Cd30 O29 2.228 1_455 S
Cd30 O34 2.273 . S
Cd30 O38 2.277 1_455 S
O31 C28 1.160 . S
O31 Cd32 2.203 1_655 S
Cd32 O31 2.203 1_455 S
Cd32 O34 2.411 . S
Cd32 O35 2.333 . S
Cd32 O36 2.352 . S
Cd32 O40 2.277 1_545 S
Cd32 O41 2.356 . S
C33 O38 1.209 1_565 S
C33 O40 1.226 1_655 S
O34 Cd30 2.273 . S
O34 Cd32 2.411 . S
O34 C37 1.320 . S
O35 Cd32 2.333 . S
O35 C37 1.214 . S
O36 Cd32 2.352 . S
O36 C39 1.258 . S
C37 O34 1.320 . S
C37 O35 1.214 . S
O38 Cd30 2.277 1_655 S
O38 C33 1.209 1_545 S
C39 O36 1.258 . S
C39 O41 1.282 . S
O40 Cd32 2.277 1_565 S
O40 C33 1.226 1_455 S
O41 Cd32 2.356 . S
O41 C39 1.282 . S
C42 C43 1.560 1_655 S
C42 H103 0.959 . S
C42 H104 0.959 . S
C42 H105 0.960 1_655 S
C43 C42 1.560 1_455 S
C43 O98 1.426 . S
C43 H102 0.980 . S
C44 C45 1.407 . S
C44 C49 1.417 1_455 S
C44 O98 1.334 . S
C45 C44 1.407 . S
C45 C46 1.360 . S
C45 H106 0.929 . S
C46 C45 1.360 . S
C46 C47 1.401 . S
C46 C50 1.527 . S
C47 C46 1.401 . S
C47 C48 1.405 . S
C47 C80 1.587 . S
C48 C47 1.405 . S
C48 C49 1.330 1_455 S
C48 C51 1.496 1_455 S
C49 C44 1.417 1_655 S
C49 C48 1.330 1_655 S
C49 H107 0.931 . S
C50 C46 1.527 . S
C50 H108 0.959 . S
C50 H109 0.961 . S
C50 H110 0.961 . S
C51 C48 1.496 1_655 S
C51 H111 0.960 . S
C51 H112 0.960 . S
C51 H113 0.961 . S
C52 C53 1.517 . S
C52 H115 0.961 . S
C52 H116 0.960 . S
C52 H117 0.959 . S
C53 C52 1.517 . S
C53 O101 1.468 . S
C53 H114 0.980 . S
C54 C55 1.349 . S
C54 C59 1.367 . S
C54 O101 1.408 . S
C55 C54 1.349 . S
C55 C56 1.407 . S
C55 H118 0.930 . S
C56 C55 1.407 . S
C56 C57 1.449 . S
C56 C60 1.535 . S
C57 C56 1.449 . S
C57 C58 1.384 . S
C57 C82 1.553 . S
C58 C57 1.384 . S
C58 C59 1.364 . S
C58 C61 1.450 . S
C59 C54 1.367 . S
C59 C58 1.364 . S
C59 H119 0.931 . S
C60 C56 1.535 . S
C60 H120 0.959 . S
C60 H121 0.949 1_455 S
C60 H122 0.959 1_455 S
C61 C58 1.450 . S
C61 H123 0.960 . S
C61 H124 0.960 . S
C61 H125 0.960 . S
C62 C63 1.309 . S
C62 C67 1.304 . S
C62 O100 1.435 . S
C63 C62 1.309 . S
C63 C64 1.476 . S
C63 H127 0.930 . S
C64 C63 1.476 . S
C64 C65 1.400 . S
C64 C68 1.567 . S
C65 C64 1.400 . S
C65 C66 1.373 . S
C65 C87 1.432 . S
C66 C65 1.373 . S
C66 C67 1.339 . S
C66 C69 1.530 . S
C67 C62 1.304 . S
C67 C66 1.339 . S
C67 H128 0.930 . S
C68 C64 1.567 . S
C68 H129 0.961 . S
C68 H130 0.960 1_455 S
C68 H131 0.958 1_455 S
C69 C66 1.530 . S
C69 H132 0.961 . S
C69 H133 0.960 . S
C69 H134 0.960 . S
C70 C71 1.530 . S
C70 H136 0.961 . S
C70 H137 0.979 . S
C70 H138 0.959 . S
C71 C70 1.530 . S
C71 O99 1.412 . S
C71 H135 0.980 . S
C72 C73 1.288 . S
C72 C77 1.377 . S
C72 O99 1.393 . S
C73 C72 1.288 . S
C73 C74 1.369 . S
C73 H139 0.932 1_455 S
C74 C73 1.369 . S
C74 C75 1.398 . S
C74 C78 1.527 1_455 S
C75 C74 1.398 . S
C75 C76 1.380 . S
C75 C89 1.497 . S
C76 C75 1.380 . S
C76 C77 1.383 . S
C76 C79 1.603 . S
C77 C72 1.377 . S
C77 C76 1.383 . S
C77 H140 0.929 . S
C78 C74 1.527 1_655 S
C78 H141 0.961 . S
C78 H142 0.959 . S
C78 H143 0.959 . S
C79 C76 1.603 . S
C79 H144 0.960 . S
C79 H145 0.962 . S
C79 H146 0.961 . S
C80 C47 1.587 . S
C80 C81 1.360 . S
C80 C93 1.412 . S
C81 C80 1.360 . S
C81 C82 1.365 . S
C81 H147 0.929 . S
C82 C57 1.553 . S
C82 C81 1.365 . S
C82 C83 1.404 . S
C83 C82 1.404 . S
C83 C84 1.395 . S
C83 C94 1.451 . S
C84 C83 1.395 . S
C84 C85 1.322 . S
C84 H148 0.930 . S
C85 C84 1.322 . S
C85 C86 1.459 . S
C85 H149 0.929 . S
C86 C85 1.459 . S
C86 C87 1.445 . S
C86 C95 1.395 . S
C87 C65 1.432 . S
C87 C86 1.445 . S
C87 C88 1.370 . S
C88 C87 1.370 . S
C88 C89 1.438 . S
C88 H150 0.930 . S
C89 C75 1.497 . S
C89 C88 1.438 . S
C89 C90 1.360 . S
C90 C89 1.360 . S
C90 C91 1.401 . S
C90 C95 1.446 . S
C91 C90 1.401 . S
C91 C92 1.347 . S
C91 H151 0.929 . S
C92 C91 1.347 . S
C92 C93 1.455 . S
C92 H152 0.930 . S
C93 C80 1.412 . S
C93 C92 1.455 . S
C93 C94 1.331 . S
C94 C83 1.451 . S
C94 C93 1.331 . S
C94 C95 1.497 . S
C95 C86 1.395 . S
C95 C90 1.446 . S
C95 C94 1.497 . S
C96 C97 1.582 . S
C96 H153 0.962 . S
C96 H154 0.959 . S
C96 H155 0.958 . S
C97 C96 1.582 . S
C97 O100 1.458 . S
C97 H126 0.980 . S
O98 C43 1.426 . S
O98 C44 1.334 . S
O99 C71 1.412 . S
O99 C72 1.393 . S
O100 C62 1.435 . S
O100 C97 1.458 . S
O101 C53 1.468 . S
O101 C54 1.408 . S
H102 C43 0.980 . S
H103 C42 0.959 . S
H104 C42 0.959 . S
H105 C42 0.960 1_455 S
H106 C45 0.929 . S
H107 C49 0.931 . S
H108 C50 0.959 . S
H109 C50 0.961 . S
H110 C50 0.961 . S
H111 C51 0.960 . S
H112 C51 0.960 . S
H113 C51 0.961 . S
H114 C53 0.980 . S
H115 C52 0.961 . S
H116 C52 0.960 . S
H117 C52 0.959 . S
H118 C55 0.930 . S
H119 C59 0.931 . S
H120 C60 0.959 . S
H121 C60 0.949 1_655 S
H122 C60 0.959 1_655 S
H123 C61 0.960 . S
H124 C61 0.960 . S
H125 C61 0.960 . S
H126 C97 0.980 . S
H127 C63 0.930 . S
H128 C67 0.930 . S
H129 C68 0.961 . S
H130 C68 0.960 1_655 S
H131 C68 0.958 1_655 S
H132 C69 0.961 . S
H133 C69 0.960 . S
H134 C69 0.960 . S
H135 C71 0.980 . S
H136 C70 0.961 . S
H137 C70 0.979 . S
H138 C70 0.959 . S
H139 C73 0.932 1_655 S
H140 C77 0.929 . S
H141 C78 0.961 . S
H142 C78 0.959 . S
H143 C78 0.959 . S
H144 C79 0.960 . S
H145 C79 0.962 . S
H146 C79 0.961 . S
H147 C81 0.929 . S
H148 C84 0.930 . S
H149 C85 0.929 . S
H150 C88 0.930 . S
H151 C91 0.929 . S
H152 C92 0.930 . S
H153 C96 0.962 . S
H154 C96 0.959 . S
H155 C96 0.958 . S
C156 C157 1.560 1_565 S
C156 H217 0.959 . S
C156 H218 0.959 . S
C156 H219 0.960 1_565 S
C157 C156 1.560 1_545 S
C157 O212 1.426 . S
C157 H216 0.980 . S
C158 C159 1.407 . S
C158 C163 1.398 1_545 S
C158 O212 1.334 . S
C159 C158 1.407 . S
C159 C160 1.360 . S
C159 H220 0.929 . S
C160 C159 1.360 . S
C160 C161 1.401 . S
C160 C164 1.527 . S
C161 C160 1.401 . S
C161 C162 1.405 . S
C161 C194 1.587 . S
C162 C161 1.405 . S
C162 C163 1.336 1_545 S
C162 C165 1.496 1_545 S
C163 C158 1.398 1_565 S
C163 C162 1.336 1_565 S
C163 H221 0.946 . S
C164 C160 1.527 . S
C164 H222 0.959 . S
C164 H223 0.961 . S
C164 H224 0.961 . S
C165 C162 1.496 1_565 S
C165 H225 0.960 . S
C165 H226 0.960 . S
C165 H227 0.961 . S
C166 C167 1.517 . S
C166 H229 0.961 . S
C166 H230 0.960 . S
C166 H231 0.959 . S
C167 C166 1.517 . S
C167 O215 1.468 . S
C167 H228 0.980 . S
C168 C169 1.349 . S
C168 C173 1.367 . S
C168 O215 1.408 . S
C169 C168 1.349 . S
C169 C170 1.407 . S
C169 H232 0.930 . S
C170 C169 1.407 . S
C170 C171 1.449 . S
C170 C174 1.535 . S
C171 C170 1.449 . S
C171 C172 1.384 . S
C171 C196 1.553 . S
C172 C171 1.384 . S
C172 C173 1.364 . S
C172 C175 1.450 . S
C173 C168 1.367 . S
C173 C172 1.364 . S
C173 H233 0.931 . S
C174 C170 1.535 . S
C174 H234 0.959 . S
C174 H235 0.961 1_545 S
C174 H236 0.959 1_545 S
C175 C172 1.450 . S
C175 H237 0.960 . S
C175 H238 0.960 . S
C175 H239 0.960 . S
C176 C177 1.309 . S
C176 C181 1.304 . S
C176 O214 1.435 . S
C177 C176 1.309 . S
C177 C178 1.476 . S
C177 H241 0.930 . S
C178 C177 1.476 . S
C178 C179 1.400 . S
C178 C182 1.567 . S
C179 C178 1.400 . S
C179 C180 1.373 . S
C179 C201 1.432 . S
C180 C179 1.373 . S
C180 C181 1.339 . S
C180 C183 1.530 . S
C181 C176 1.304 . S
C181 C180 1.339 . S
C181 H242 0.930 . S
C182 C178 1.567 . S
C182 H243 0.961 . S
C182 H244 0.960 1_545 S
C182 H245 0.958 1_545 S
C183 C180 1.530 . S
C183 H246 0.961 . S
C183 H247 0.960 . S
C183 H248 0.960 . S
C184 C185 1.530 . S
C184 H250 0.961 . S
C184 H251 0.961 1_545 S
C184 H252 0.959 1_545 S
C185 C184 1.530 . S
C185 O213 1.412 . S
C185 H249 0.980 . S
C186 C187 1.288 1_545 S
C186 C191 1.377 . S
C186 O213 1.393 . S
C187 C186 1.288 1_565 S
C187 C188 1.369 1_565 S
C187 H253 0.932 . S
C188 C187 1.369 1_545 S
C188 C189 1.398 . S
C188 C192 1.527 1_545 S
C189 C188 1.398 . S
C189 C190 1.380 . S
C189 C203 1.497 . S
C190 C189 1.380 . S
C190 C191 1.383 . S
C190 C193 1.603 . S
C191 C186 1.377 . S
C191 C190 1.383 . S
C191 H254 0.929 . S
C192 C188 1.527 1_565 S
C192 H255 0.961 . S
C192 H256 0.959 . S
C192 H257 0.959 . S
C193 C190 1.603 . S
C193 H258 0.960 . S
C193 H259 0.962 . S
C193 H260 0.961 . S
C194 C161 1.587 . S
C194 C195 1.360 . S
C194 C207 1.412 . S
C195 C194 1.360 . S
C195 C196 1.365 . S
C195 H261 0.929 . S
C196 C171 1.553 . S
C196 C195 1.365 . S
C196 C197 1.404 . S
C197 C196 1.404 . S
C197 C198 1.395 . S
C197 C208 1.451 . S
C198 C197 1.395 . S
C198 C199 1.322 . S
C198 H262 0.930 . S
C199 C198 1.322 . S
C199 C200 1.459 . S
C199 H263 0.929 . S
C200 C199 1.459 . S
C200 C201 1.445 . S
C200 C209 1.395 . S
C201 C179 1.432 . S
C201 C200 1.445 . S
C201 C202 1.370 . S
C202 C201 1.370 . S
C202 C203 1.438 . S
C202 H264 0.930 . S
C203 C189 1.497 . S
C203 C202 1.438 . S
C203 C204 1.360 . S
C204 C203 1.360 . S
C204 C205 1.401 . S
C204 C209 1.446 . S
C205 C204 1.401 . S
C205 C206 1.347 . S
C205 H265 0.929 . S
C206 C205 1.347 . S
C206 C207 1.455 . S
C206 H266 0.930 . S
C207 C194 1.412 . S
C207 C206 1.455 . S
C207 C208 1.331 . S
C208 C197 1.451 . S
C208 C207 1.331 . S
C208 C209 1.497 . S
C209 C200 1.395 . S
C209 C204 1.446 . S
C209 C208 1.497 . S
C210 C211 1.582 . S
C210 H267 0.962 . S
C210 H268 0.959 . S
C210 H269 0.958 . S
C211 C210 1.582 . S
C211 O214 1.458 . S
C211 H240 0.980 . S
O212 C157 1.426 . S
O212 C158 1.334 . S
O213 C185 1.412 . S
O213 C186 1.393 . S
O214 C176 1.435 . S
O214 C211 1.458 . S
O215 C167 1.468 . S
O215 C168 1.408 . S
H216 C157 0.980 . S
H217 C156 0.959 . S
H218 C156 0.959 . S
H219 C156 0.960 1_545 S
H220 C159 0.929 . S
H221 C163 0.946 . S
H222 C164 0.959 . S
H223 C164 0.961 . S
H224 C164 0.961 . S
H225 C165 0.960 . S
H226 C165 0.960 . S
H227 C165 0.961 . S
H228 C167 0.980 . S
H229 C166 0.961 . S
H230 C166 0.960 . S
H231 C166 0.959 . S
H232 C169 0.930 . S
H233 C173 0.931 . S
H234 C174 0.959 . S
H235 C174 0.961 1_565 S
H236 C174 0.959 1_565 S
H237 C175 0.960 . S
H238 C175 0.960 . S
H239 C175 0.960 . S
H240 C211 0.980 . S
H241 C177 0.930 . S
H242 C181 0.930 . S
H243 C182 0.961 . S
H244 C182 0.960 1_565 S
H245 C182 0.958 1_565 S
H246 C183 0.961 . S
H247 C183 0.960 . S
H248 C183 0.960 . S
H249 C185 0.980 . S
H250 C184 0.961 . S
H251 C184 0.961 1_565 S
H252 C184 0.959 1_565 S
H253 C187 0.932 . S
H254 C191 0.929 . S
H255 C192 0.961 . S
H256 C192 0.959 . S
H257 C192 0.959 . S
H258 C193 0.960 . S
H259 C193 0.962 . S
H260 C193 0.961 . S
H261 C195 0.929 . S
H262 C198 0.930 . S
H263 C199 0.929 . S
H264 C202 0.930 . S
H265 C205 0.929 . S
H266 C206 0.930 . S
H267 C210 0.962 . S
H268 C210 0.959 . S
H269 C210 0.958 . S
C270 C271 1.560 . S
C270 H331 0.959 . S
C270 H332 0.959 . S
C270 H333 0.960 . S
C271 C270 1.560 . S
C271 O326 1.426 . S
C271 H330 0.980 . S
C272 C273 1.407 . S
C272 C277 1.418 . S
C272 O326 1.334 . S
C273 C272 1.407 . S
C273 C274 1.360 . S
C273 H334 0.929 . S
C274 C273 1.360 . S
C274 C275 1.401 . S
C274 C278 1.527 . S
C275 C274 1.401 . S
C275 C276 1.405 . S
C275 C308 1.587 . S
C276 C275 1.405 . S
C276 C277 1.332 . S
C276 C279 1.496 . S
C277 C272 1.418 . S
C277 C276 1.332 . S
C277 H335 0.929 . S
C278 C274 1.527 . S
C278 H336 0.959 . S
C278 H337 0.961 . S
C278 H338 0.961 . S
C279 C276 1.496 . S
C279 H339 0.960 . S
C279 H340 0.960 . S
C279 H341 0.961 . S
C280 C281 1.517 . S
C280 H343 0.961 . S
C280 H344 0.960 . S
C280 H345 0.959 . S
C281 C280 1.517 . S
C281 O329 1.468 . S
C281 H342 0.980 . S
C282 C283 1.349 . S
C282 C287 1.367 . S
C282 O329 1.408 . S
C283 C282 1.349 . S
C283 C284 1.407 . S
C283 H346 0.930 . S
C284 C283 1.407 . S
C284 C285 1.449 . S
C284 C288 1.535 . S
C285 C284 1.449 . S
C285 C286 1.384 . S
C285 C310 1.553 . S
C286 C285 1.384 . S
C286 C287 1.364 . S
C286 C289 1.450 . S
C287 C282 1.367 . S
C287 C286 1.364 . S
C287 H347 0.931 . S
C288 C284 1.535 . S
C288 H348 0.959 . S
C288 H349 0.961 . S
C288 H350 0.959 . S
C289 C286 1.450 . S
C289 H351 0.960 . S
C289 H352 0.960 . S
C289 H353 0.960 . S
C290 C291 1.309 . S
C290 C295 1.304 . S
C290 O328 1.435 . S
C291 C290 1.309 . S
C291 C292 1.476 . S
C291 H355 0.930 . S
C292 C291 1.476 . S
C292 C293 1.400 . S
C292 C296 1.567 . S
C293 C292 1.400 . S
C293 C294 1.373 . S
C293 C315 1.432 . S
C294 C293 1.373 . S
C294 C295 1.339 . S
C294 C297 1.530 . S
C295 C290 1.304 . S
C295 C294 1.339 . S
C295 H356 0.930 . S
C296 C292 1.567 . S
C296 H357 0.961 . S
C296 H358 0.960 . S
C296 H359 0.958 . S
C297 C294 1.530 . S
C297 H360 0.961 . S
C297 H361 0.960 . S
C297 H362 0.960 . S
C298 C299 1.530 . S
C298 H364 0.961 . S
C298 H365 0.961 . S
C298 H366 0.959 . S
C299 C298 1.530 . S
C299 O327 1.412 . S
C299 H363 0.980 . S
C300 C301 1.288 . S
C300 C305 1.377 . S
C300 O327 1.393 . S
C301 C300 1.288 . S
C301 C302 1.369 . S
C301 H367 0.932 . S
C302 C301 1.369 . S
C302 C303 1.398 . S
C302 C306 1.527 . S
C303 C302 1.398 . S
C303 C304 1.380 . S
C303 C317 1.497 . S
C304 C303 1.380 . S
C304 C305 1.383 . S
C304 C307 1.603 . S
C305 C300 1.377 . S
C305 C304 1.383 . S
C305 H368 0.929 . S
C306 C302 1.527 . S
C306 H369 0.961 . S
C306 H370 0.959 . S
C306 H371 0.959 . S
C307 C304 1.603 . S
C307 H372 0.960 . S
C307 H373 0.962 . S
C307 H374 0.961 . S
C308 C275 1.587 . S
C308 C309 1.360 . S
C308 C321 1.412 . S
C309 C308 1.360 . S
C309 C310 1.365 . S
C309 H375 0.929 . S
C310 C285 1.553 . S
C310 C309 1.365 . S
C310 C311 1.404 . S
C311 C310 1.404 . S
C311 C312 1.395 . S
C311 C322 1.451 . S
C312 C311 1.395 . S
C312 C313 1.322 . S
C312 H376 0.930 . S
C313 C312 1.322 . S
C313 C314 1.459 . S
C313 H377 0.929 . S
C314 C313 1.459 . S
C314 C315 1.445 . S
C314 C323 1.395 . S
C315 C293 1.432 . S
C315 C314 1.445 . S
C315 C316 1.370 . S
C316 C315 1.370 . S
C316 C317 1.438 . S
C316 H378 0.930 . S
C317 C303 1.497 . S
C317 C316 1.438 . S
C317 C318 1.360 . S
C318 C317 1.360 . S
C318 C319 1.401 . S
C318 C323 1.446 . S
C319 C318 1.401 . S
C319 C320 1.347 . S
C319 H379 0.929 . S
C320 C319 1.347 . S
C320 C321 1.455 . S
C320 H380 0.930 . S
C321 C308 1.412 . S
C321 C320 1.455 . S
C321 C322 1.331 . S
C322 C311 1.451 . S
C322 C321 1.331 . S
C322 C323 1.497 . S
C323 C314 1.395 . S
C323 C318 1.446 . S
C323 C322 1.497 . S
C324 C325 1.582 . S
C324 H381 0.962 . S
C324 H382 0.959 . S
C324 H383 0.958 . S
C325 C324 1.582 . S
C325 O328 1.458 . S
C325 H354 0.980 . S
O326 C271 1.426 . S
O326 C272 1.334 . S
O327 C299 1.412 . S
O327 C300 1.393 . S
O328 C290 1.435 . S
O328 C325 1.458 . S
O329 C281 1.468 . S
O329 C282 1.408 . S
H330 C271 0.980 . S
H331 C270 0.959 . S
H332 C270 0.959 . S
H333 C270 0.960 . S
H334 C273 0.929 . S
H335 C277 0.929 . S
H336 C278 0.959 . S
H337 C278 0.961 . S
H338 C278 0.961 . S
H339 C279 0.960 . S
H340 C279 0.960 . S
H341 C279 0.961 . S
H342 C281 0.980 . S
H343 C280 0.961 . S
H344 C280 0.960 . S
H345 C280 0.959 . S
H346 C283 0.930 . S
H347 C287 0.931 . S
H348 C288 0.959 . S
H349 C288 0.961 . S
H350 C288 0.959 . S
H351 C289 0.960 . S
H352 C289 0.960 . S
H353 C289 0.960 . S
H354 C325 0.980 . S
H355 C291 0.930 . S
H356 C295 0.930 . S
H357 C296 0.961 . S
H358 C296 0.960 . S
H359 C296 0.958 . S
H360 C297 0.961 . S
H361 C297 0.960 . S
H362 C297 0.960 . S
H363 C299 0.980 . S
H364 C298 0.961 . S
H365 C298 0.961 . S
H366 C298 0.959 . S
H367 C301 0.932 . S
H368 C305 0.929 . S
H369 C306 0.961 . S
H370 C306 0.959 . S
H371 C306 0.959 . S
H372 C307 0.960 . S
H373 C307 0.962 . S
H374 C307 0.961 . S
H375 C309 0.929 . S
H376 C312 0.930 . S
H377 C313 0.929 . S
H378 C316 0.930 . S
H379 C319 0.929 . S
H380 C320 0.930 . S
H381 C324 0.962 . S
H382 C324 0.959 . S
H383 C324 0.958 . S
C384 C385 1.386 . S
C384 C386 1.383 . S
C384 H400 0.951 1_455 S
C385 C384 1.386 . S
C385 C389 1.383 . S
C386 C384 1.383 . S
C386 C387 1.402 . S
C386 H401 0.951 . S
C387 C386 1.402 . S
C387 C388 1.375 . S
C387 C390 1.481 . S
C388 C387 1.375 . S
C388 C389 1.367 . S
C388 H402 0.951 . S
C389 C385 1.383 . S
C389 C388 1.367 . S
C389 H403 0.950 . S
C390 C387 1.481 . S
C390 C391 1.297 . S
C390 H404 0.950 . S
C391 C390 1.297 . S
C391 C392 1.479 . S
C391 H405 0.950 . S
C392 C391 1.479 . S
C392 C393 1.375 . S
C392 C398 1.404 . S
C393 C392 1.375 . S
C393 C394 1.369 . S
C393 H406 0.948 1_455 S
C394 C393 1.369 . S
C394 C395 1.392 . S
C394 H407 0.951 1_455 S
C395 C394 1.392 . S
C395 C397 1.384 . S
H396 C398 0.949 . S
C397 C395 1.384 . S
C397 C398 1.385 . S
C397 H399 0.950 . S
C398 C392 1.404 . S
C398 H396 0.949 . S
C398 C397 1.385 . S
H399 C397 0.950 . S
H400 C384 0.951 1_655 S
H401 C386 0.951 . S
H402 C388 0.951 . S
H403 C389 0.950 . S
H404 C390 0.950 . S
H405 C391 0.950 . S
H406 C393 0.948 1_655 S
H407 C394 0.951 1_655 S
C408 C409 1.386 . S
C408 C410 1.383 . S
C408 H424 0.951 1_545 S
C409 C408 1.386 . S
C409 C413 1.383 . S
C410 C408 1.383 . S
C410 C411 1.402 . S
C410 H425 0.951 . S
C411 C410 1.402 . S
C411 C412 1.375 . S
C411 C414 1.481 . S
C412 C411 1.375 . S
C412 C413 1.367 . S
C412 H426 0.951 . S
C413 C409 1.383 . S
C413 C412 1.367 . S
C413 H427 0.950 . S
C414 C411 1.481 . S
C414 C415 1.297 . S
C414 H428 0.950 . S
C415 C414 1.297 . S
C415 C416 1.479 . S
C415 H429 0.950 1_545 S
C416 C415 1.479 . S
C416 C417 1.375 . S
C416 C422 1.404 . S
C417 C416 1.375 . S
C417 C418 1.369 . S
C417 H430 0.950 1_545 S
C418 C417 1.369 . S
C418 C419 1.392 . S
C418 H431 0.952 1_545 S
C419 C418 1.392 . S
C419 C421 1.384 . S
H420 C422 0.949 . S
C421 C419 1.384 . S
C421 C422 1.385 . S
C421 H423 0.950 . S
C422 C416 1.404 . S
C422 H420 0.949 . S
C422 C421 1.385 . S
H423 C421 0.950 . S
H424 C408 0.951 1_565 S
H425 C410 0.951 . S
H426 C412 0.951 . S
H427 C413 0.950 . S
H428 C414 0.950 . S
H429 C415 0.950 1_565 S
H430 C417 0.950 1_565 S
H431 C418 0.952 1_565 S
C432 C433 1.386 . S
C432 C434 1.383 . S
C432 H448 0.951 . S
C433 C432 1.386 . S
C433 C437 1.383 . S
C434 C432 1.383 . S
C434 C435 1.402 . S
C434 H449 0.951 . S
C435 C434 1.402 . S
C435 C436 1.375 . S
C435 C438 1.481 . S
C436 C435 1.375 . S
C436 C437 1.367 . S
C436 H450 0.951 . S
C437 C433 1.383 . S
C437 C436 1.367 . S
C437 H451 0.950 . S
C438 C435 1.481 . S
C438 C439 1.297 . S
C438 H452 0.950 . S
C439 C438 1.297 . S
C439 C440 1.479 . S
C439 H453 0.950 . S
C440 C439 1.479 . S
C440 C441 1.375 . S
C440 C446 1.404 . S
C441 C440 1.375 . S
C441 C442 1.369 . S
C441 H454 0.950 . S
C442 C441 1.369 . S
C442 C443 1.392 . S
C442 H455 0.951 . S
C443 C442 1.392 . S
C443 C445 1.384 . S
H444 C446 0.949 . S
C445 C443 1.384 . S
C445 C446 1.385 . S
C445 H447 0.950 . S
C446 C440 1.404 . S
C446 H444 0.949 . S
C446 C445 1.385 . S
H447 C445 0.950 . S
H448 C432 0.951 . S
H449 C434 0.951 . S
H450 C436 0.951 . S
H451 C437 0.950 . S
H452 C438 0.950 . S
H453 C439 0.950 . S
H454 C441 0.950 . S
H455 C442 0.951 . S
C456 C457 1.386 . S
C456 C458 1.383 . S
C456 H472 0.951 . S
C457 C456 1.386 . S
C457 C461 1.383 . S
C458 C456 1.383 . S
C458 C459 1.402 . S
C458 H473 0.951 . S
C459 C458 1.402 . S
C459 C460 1.375 . S
C459 C462 1.481 . S
C460 C459 1.375 . S
C460 C461 1.367 . S
C460 H474 0.951 1_455 S
C461 C457 1.383 . S
C461 C460 1.367 . S
C461 H475 0.950 1_455 S
C462 C459 1.481 . S
C462 C463 1.297 . S
C462 H476 0.950 . S
C463 C462 1.297 . S
C463 C464 1.479 . S
C463 H477 0.950 . S
C464 C463 1.479 . S
C464 C465 1.375 . S
C464 C470 1.404 . S
C465 C464 1.375 . S
C465 C466 1.369 . S
C465 H478 0.950 . S
C466 C465 1.369 . S
C466 C467 1.392 . S
C466 H479 0.951 . S
C467 C466 1.392 . S
C467 C469 1.384 . S
H468 C470 0.949 . S
C469 C467 1.384 . S
C469 C470 1.385 . S
C469 H471 0.950 . S
C470 C464 1.404 . S
C470 H468 0.949 . S
C470 C469 1.385 . S
H471 C469 0.950 . S
H472 C456 0.951 . S
H473 C458 0.951 . S
H474 C460 0.951 1_655 S
H475 C461 0.950 1_655 S
H476 C462 0.950 . S
H477 C463 0.950 . S
H478 C465 0.950 . S
H479 C466 0.951 . S
C480 C481 1.386 . S
C480 C482 1.383 . S
C480 H496 0.951 . S
C481 C480 1.386 . S
C481 C485 1.383 . S
C482 C480 1.383 . S
C482 C483 1.402 . S
C482 H497 0.951 . S
C483 C482 1.402 . S
C483 C484 1.375 . S
C483 C486 1.481 . S
C484 C483 1.375 . S
C484 C485 1.367 . S
C484 H498 0.951 . S
C485 C481 1.383 . S
C485 C484 1.367 . S
C485 H499 0.950 . S
C486 C483 1.481 . S
C486 C487 1.297 . S
C486 H500 0.950 . S
C487 C486 1.297 . S
C487 C488 1.479 . S
C487 H501 0.950 . S
C488 C487 1.479 . S
C488 C489 1.375 . S
C488 C494 1.404 . S
C489 C488 1.375 . S
C489 C490 1.369 . S
C489 H502 0.950 . S
C490 C489 1.369 . S
C490 C491 1.392 . S
C490 H503 0.951 . S
C491 C490 1.392 . S
C491 C493 1.384 . S
H492 C494 0.949 . S
C493 C491 1.384 . S
C493 C494 1.385 . S
C493 H495 0.950 . S
C494 C488 1.404 . S
C494 H492 0.949 . S
C494 C493 1.385 . S
H495 C493 0.950 . S
H496 C480 0.951 . S
H497 C482 0.951 . S
H498 C484 0.951 . S
H499 C485 0.950 . S
H500 C486 0.950 . S
H501 C487 0.950 . S
H502 C489 0.950 . S
H503 C490 0.951 . S
C504 C505 1.386 . S
C504 C506 1.383 . S
C504 H520 0.951 . S
C505 C504 1.386 . S
C505 C509 1.383 . S
C506 C504 1.383 . S
C506 C507 1.402 . S
C506 H521 0.951 . S
C507 C506 1.402 . S
C507 C508 1.375 . S
C507 C510 1.481 . S
C508 C507 1.375 . S
C508 C509 1.367 . S
C508 H522 0.951 . S
C509 C505 1.383 . S
C509 C508 1.367 . S
C509 H523 0.950 . S
C510 C507 1.481 . S
C510 C511 1.297 . S
C510 H524 0.950 . S
C511 C510 1.297 . S
C511 C512 1.479 . S
C511 H525 0.950 . S
C512 C511 1.479 . S
C512 C513 1.375 . S
C512 C518 1.404 . S
C513 C512 1.375 . S
C513 C514 1.369 . S
C513 H526 0.950 . S
C514 C513 1.369 . S
C514 C515 1.392 . S
C514 H527 0.951 . S
C515 C514 1.392 . S
C515 C517 1.384 . S
H516 C518 0.949 . S
C517 C515 1.384 . S
C517 C518 1.385 . S
C517 H519 0.950 . S
C518 C512 1.404 . S
C518 H516 0.949 . S
C518 C517 1.385 . S
H519 C517 0.950 . S
H520 C504 0.951 . S
H521 C506 0.951 . S
H522 C508 0.951 . S
H523 C509 0.950 . S
H524 C510 0.950 . S
H525 C511 0.950 . S
H526 C513 0.950 . S
H527 C514 0.951 . S
C528 C529 1.386 . S
C528 C530 1.383 . S
C528 H544 0.951 . S
C529 C528 1.386 . S
C529 C533 1.383 . S
C530 C528 1.383 . S
C530 C531 1.402 . S
C530 H545 0.951 . S
C531 C530 1.402 . S
C531 C532 1.375 . S
C531 C534 1.481 . S
C532 C531 1.375 . S
C532 C533 1.367 . S
C532 H546 0.951 . S
C533 C529 1.383 . S
C533 C532 1.367 . S
C533 H547 0.950 . S
C534 C531 1.481 . S
C534 C535 1.297 . S
C534 H548 0.950 . S
C535 C534 1.297 . S
C535 C536 1.479 . S
C535 H549 0.950 . S
C536 C535 1.479 . S
C536 C537 1.375 . S
C536 C542 1.404 . S
C537 C536 1.375 . S
C537 C538 1.369 . S
C537 H550 0.950 . S
C538 C537 1.369 . S
C538 C539 1.392 . S
C538 H551 0.951 . S
C539 C538 1.392 . S
C539 C541 1.384 . S
H540 C542 0.949 . S
C541 C539 1.384 . S
C541 C542 1.385 . S
C541 H543 0.950 . S
C542 C536 1.404 . S
C542 H540 0.949 . S
C542 C541 1.385 . S
H543 C541 0.950 . S
H544 C528 0.951 . S
H545 C530 0.951 . S
H546 C532 0.951 . S
H547 C533 0.950 . S
H548 C534 0.950 . S
H549 C535 0.950 . S
H550 C537 0.950 . S
H551 C538 0.951 . S
C552 C553 1.386 . S
C552 C554 1.383 . S
C552 H568 0.951 . S
C553 C552 1.386 . S
C553 C557 1.383 . S
C554 C552 1.383 . S
C554 C555 1.402 . S
C554 H569 0.951 . S
C555 C554 1.402 . S
C555 C556 1.375 . S
C555 C558 1.481 . S
C556 C555 1.375 . S
C556 C557 1.367 . S
C556 H570 0.951 . S
C557 C553 1.383 . S
C557 C556 1.367 . S
C557 H571 0.950 . S
C558 C555 1.481 . S
C558 C559 1.297 . S
C558 H572 0.950 . S
C559 C558 1.297 . S
C559 C560 1.479 1_554 S
C559 H573 0.950 1_554 S
C560 C559 1.479 1_556 S
C560 C561 1.375 . S
C560 C566 1.404 . S
C561 C560 1.375 . S
C561 C562 1.369 . S
C561 H574 0.950 . S
C562 C561 1.369 . S
C562 C563 1.392 . S
C562 H575 0.951 . S
C563 C562 1.392 . S
C563 C565 1.384 . S
H564 C566 0.949 1_554 S
C565 C563 1.384 . S
C565 C566 1.385 . S
C565 H567 0.950 . S
C566 C560 1.404 . S
C566 H564 0.949 1_556 S
C566 C565 1.385 . S
H567 C565 0.950 . S
H568 C552 0.951 . S
H569 C554 0.951 . S
H570 C556 0.951 . S
H571 C557 0.950 . S
H572 C558 0.950 . S
H573 C559 0.950 1_556 S
H574 C561 0.950 . S
H575 C562 0.951 . S
C576 C577 1.386 . S
C576 C578 1.383 . S
C576 H592 0.951 1_455 S
C577 C576 1.386 . S
C577 C581 1.383 . S
C578 C576 1.383 . S
C578 C579 1.402 . S
C578 H593 0.951 1_455 S
C579 C578 1.402 . S
C579 C580 1.375 . S
C579 C582 1.481 . S
C580 C579 1.375 . S
C580 C581 1.367 . S
C580 H594 0.951 . S
C581 C577 1.383 . S
C581 C580 1.367 . S
C581 H595 0.950 . S
C582 C579 1.481 . S
C582 C583 1.297 . S
C582 H596 0.950 . S
C583 C582 1.297 . S
C583 C584 1.479 . S
C583 H597 0.950 . S
C584 C583 1.479 . S
C584 C585 1.375 . S
C584 C590 1.404 . S
C585 C584 1.375 . S
C585 C586 1.369 . S
C585 H598 0.950 1_455 S
C586 C585 1.369 . S
C586 C587 1.392 . S
C586 H599 0.951 1_455 S
C587 C586 1.392 . S
C587 C589 1.384 . S
H588 C590 0.949 . S
C589 C587 1.384 . S
C589 C590 1.385 . S
C589 H591 0.950 . S
C590 C584 1.404 . S
C590 H588 0.949 . S
C590 C589 1.385 . S
H591 C589 0.950 . S
H592 C576 0.951 1_655 S
H593 C578 0.951 1_655 S
H594 C580 0.951 . S
H595 C581 0.950 . S
H596 C582 0.950 . S
H597 C583 0.950 . S
H598 C585 0.950 1_655 S
H599 C586 0.951 1_655 S
C600 C601 1.386 . S
C600 C602 1.383 . S
C600 H616 0.951 1_545 S
C601 C600 1.386 . S
C601 C605 1.383 . S
C602 C600 1.383 . S
C602 C603 1.402 . S
C602 H617 0.951 1_545 S
C603 C602 1.402 . S
C603 C604 1.375 . S
C603 C606 1.481 . S
C604 C603 1.375 . S
C604 C605 1.367 . S
C604 H618 0.951 . S
C605 C601 1.383 . S
C605 C604 1.367 . S
C605 H619 0.950 . S
C606 C603 1.481 . S
C606 C607 1.297 . S
C606 H620 0.950 . S
C607 C606 1.297 . S
C607 C608 1.479 . S
C607 H621 0.952 1_545 S
C608 C607 1.479 . S
C608 C609 1.375 . S
C608 C614 1.404 . S
C609 C608 1.375 . S
C609 C610 1.369 . S
C609 H622 0.950 1_545 S
C610 C609 1.369 . S
C610 C611 1.392 . S
C610 H623 0.951 1_545 S
C611 C610 1.392 . S
C611 C613 1.384 . S
H612 C614 0.949 . S
C613 C611 1.384 . S
C613 C614 1.385 . S
C613 H615 0.950 . S
C614 C608 1.404 . S
C614 H612 0.949 . S
C614 C613 1.385 . S
H615 C613 0.950 . S
H616 C600 0.951 1_565 S
H617 C602 0.951 1_565 S
H618 C604 0.951 . S
H619 C605 0.950 . S
H620 C606 0.950 . S
H621 C607 0.952 1_565 S
H622 C609 0.950 1_565 S
H623 C610 0.951 1_565 S
C624 C625 1.386 . S
C624 C626 1.383 . S
C624 H640 0.951 . S
C625 C624 1.386 . S
C625 C629 1.383 . S
C626 C624 1.383 . S
C626 C627 1.402 . S
C626 H641 0.951 . S
C627 C626 1.402 . S
C627 C628 1.375 . S
C627 C630 1.481 . S
C628 C627 1.375 . S
C628 C629 1.367 . S
C628 H642 0.951 . S
C629 C625 1.383 . S
C629 C628 1.367 . S
C629 H643 0.950 . S
C630 C627 1.481 . S
C630 C631 1.297 1_554 S
C630 H644 0.950 . S
C631 C630 1.297 1_556 S
C631 C632 1.479 . S
C631 H645 0.950 . S
C632 C631 1.479 . S
C632 C633 1.375 . S
C632 C638 1.404 . S
C633 C632 1.375 . S
C633 C634 1.369 . S
C633 H646 0.950 . S
C634 C633 1.369 . S
C634 C635 1.392 . S
C634 H647 0.951 . S
C635 C634 1.392 . S
C635 C637 1.384 . S
H636 C638 0.949 1_554 S
C637 C635 1.384 . S
C637 C638 1.385 . S
C637 H639 0.950 . S
C638 C632 1.404 . S
C638 H636 0.949 1_556 S
C638 C637 1.385 . S
H639 C637 0.950 . S
H640 C624 0.951 . S
H641 C626 0.951 . S
H642 C628 0.951 . S
H643 C629 0.950 . S
H644 C630 0.950 . S
H645 C631 0.950 . S
H646 C633 0.950 . S
H647 C634 0.951 . S
C648 C649 1.386 . S
C648 C650 1.383 . S
C648 H664 0.951 1_455 S
C649 C648 1.386 . S
C649 C653 1.383 . S
C650 C648 1.383 . S
C650 C651 1.402 . S
C650 H665 0.956 . S
C651 C650 1.402 . S
C651 C652 1.375 . S
C651 C654 1.481 . S
C652 C651 1.375 . S
C652 C653 1.367 . S
C652 H666 0.951 . S
C653 C649 1.383 . S
C653 C652 1.367 . S
C653 H667 0.950 . S
C654 C651 1.481 . S
C654 C655 1.297 . S
C654 H668 0.950 . S
C655 C654 1.297 . S
C655 C656 1.479 . S
C655 H669 0.950 . S
C656 C655 1.479 . S
C656 C657 1.375 . S
C656 C662 1.404 . S
C657 C656 1.375 . S
C657 C658 1.369 . S
C657 H670 0.950 1_455 S
C658 C657 1.369 . S
C658 C659 1.392 . S
C658 H671 0.951 1_455 S
C659 C658 1.392 . S
C659 C661 1.384 . S
H660 C662 0.949 . S
C661 C659 1.384 . S
C661 C662 1.385 . S
C661 H663 0.950 . S
C662 C656 1.404 . S
C662 H660 0.949 . S
C662 C661 1.385 . S
H663 C661 0.950 . S
H664 C648 0.951 1_655 S
H665 C650 0.956 . S
H666 C652 0.951 . S
H667 C653 0.950 . S
H668 C654 0.950 . S
H669 C655 0.950 . S
H670 C657 0.950 1_655 S
H671 C658 0.951 1_655 S
C395 C97 1.024 . S
C385 C0 1.530 . S
C409 C25 1.570 . S
C419 C211 1.198 . S
C433 C33 1.338 . S
C443 C271 1.087 . S
C457 C11 1.349 . S
C467 C71 1.039 . S
C491 C185 1.240 . S
C481 C14 1.406 . S
C505 C37 1.519 . S
C515 C281 0.956 . S
C539 C167 1.030 . S
C529 C28 1.483 . S
C553 C9 1.428 . S
C563 C299 1.082 . S
C587 C43 1.186 . S
C577 C19 1.359 . S
C611 C157 1.067 . S
C601 C39 1.321 . S
C635 C325 1.114 . S
C625 C5 1.583 . S
C649 C23 1.561 . S
C659 C53 0.845 . S
