# Generated by pormake.
# Topology zzz, (3,6)-cn, num edge types: 1
# Building blocks:
#     Node 0, Type 0, BuildingBlock: KAKCAD_clean_linker_0, # of connection points: 3
#     Node 1, Type 0, BuildingBlock: KAKCAD_clean_linker_0, # of connection points: 3
#     Node 2, Type 0, BuildingBlock: KAKCAD_clean_linker_0, # of connection points: 3
#     Node 3, Type 0, BuildingBlock: KAKCAD_clean_linker_0, # of connection points: 3
#     Node 4, Type 0, BuildingBlock: KAKCAD_clean_linker_0, # of connection points: 3
#     Node 5, Type 0, BuildingBlock: KAKCAD_clean_linker_0, # of connection points: 3
#     Node 6, Type 0, BuildingBlock: KAKCAD_clean_linker_0, # of connection points: 3
#     Node 7, Type 0, BuildingBlock: KAKCAD_clean_linker_0, # of connection points: 3
#     Node 8, Type 1, BuildingBlock: BETDEL_clean_sbu_0, # of connection points: 6
#     Node 9, Type 1, BuildingBlock: BETDEL_clean_sbu_0, # of connection points: 6
#     Node 10, Type 1, BuildingBlock: BETDEL_clean_sbu_0, # of connection points: 6
#     Node 11, Type 1, BuildingBlock: BETDEL_clean_sbu_0, # of connection points: 6
#     Edge 12, Type (0, 1), BuildingBlock: XIVTED_clean_linker_0, # of connection points: 2
#     Edge 13, Type (0, 1), BuildingBlock: XIVTED_clean_linker_0, # of connection points: 2
#     Edge 14, Type (0, 1), BuildingBlock: XIVTED_clean_linker_0, # of connection points: 2
#     Edge 15, Type (0, 1), BuildingBlock: XIVTED_clean_linker_0, # of connection points: 2
#     Edge 16, Type (0, 1), BuildingBlock: XIVTED_clean_linker_0, # of connection points: 2
#     Edge 17, Type (0, 1), BuildingBlock: XIVTED_clean_linker_0, # of connection points: 2
#     Edge 18, Type (0, 1), BuildingBlock: XIVTED_clean_linker_0, # of connection points: 2
#     Edge 19, Type (0, 1), BuildingBlock: XIVTED_clean_linker_0, # of connection points: 2
#     Edge 20, Type (0, 1), BuildingBlock: XIVTED_clean_linker_0, # of connection points: 2
#     Edge 21, Type (0, 1), BuildingBlock: XIVTED_clean_linker_0, # of connection points: 2
#     Edge 22, Type (0, 1), BuildingBlock: XIVTED_clean_linker_0, # of connection points: 2
#     Edge 23, Type (0, 1), BuildingBlock: XIVTED_clean_linker_0, # of connection points: 2
#     Edge 24, Type (0, 1), BuildingBlock: XIVTED_clean_linker_0, # of connection points: 2
#     Edge 25, Type (0, 1), BuildingBlock: XIVTED_clean_linker_0, # of connection points: 2
#     Edge 26, Type (0, 1), BuildingBlock: XIVTED_clean_linker_0, # of connection points: 2
#     Edge 27, Type (0, 1), BuildingBlock: XIVTED_clean_linker_0, # of connection points: 2
#     Edge 28, Type (0, 1), BuildingBlock: XIVTED_clean_linker_0, # of connection points: 2
#     Edge 29, Type (0, 1), BuildingBlock: XIVTED_clean_linker_0, # of connection points: 2
#     Edge 30, Type (0, 1), BuildingBlock: XIVTED_clean_linker_0, # of connection points: 2
#     Edge 31, Type (0, 1), BuildingBlock: XIVTED_clean_linker_0, # of connection points: 2
#     Edge 32, Type (0, 1), BuildingBlock: XIVTED_clean_linker_0, # of connection points: 2
#     Edge 33, Type (0, 1), BuildingBlock: XIVTED_clean_linker_0, # of connection points: 2
#     Edge 34, Type (0, 1), BuildingBlock: XIVTED_clean_linker_0, # of connection points: 2
#     Edge 35, Type (0, 1), BuildingBlock: XIVTED_clean_linker_0, # of connection points: 2
# Relax obj value: 0.332
# Max RMSD: 0.227
# Mean RMSD: 0.209
data_MOF--net-zzz--node1-BETDEL_clean_sbu_0--node2-KAKCAD_clean_linker_0--edge1-XIVTED_clean_linker_0
_symmetry_space_group_name_H-M    P1
_symmetry_Int_Tables_number       1
_symmetry_cell_setting            triclinic
loop_
_symmetry_equiv_pos_as_xyz
'x, y, z'
_cell_length_a     57.200557
_cell_length_b     56.813749
_cell_length_c     20.054831
_cell_angle_alpha  91.004045
_cell_angle_beta   89.357675
_cell_angle_gamma 95.92581
loop_
_atom_site_label
_atom_site_type_symbol
_atom_site_fract_x
_atom_site_fract_y
_atom_site_fract_z
_atom_type_partial_charge
C0 C 0.81447 0.42533 0.87393 0.0
C1 C 0.82806 0.41098 0.91061 0.0
C2 C 0.79578 0.43549 0.90423 0.0
C3 C 0.79019 0.43136 0.97174 0.0
C4 C 0.8021 0.41485 0.00601 0.0
C5 C 0.82099 0.40489 0.97588 0.0
C6 C 0.77523 0.44724 0.00857 0.0
C7 C 0.75582 0.45568 0.9784 0.0
C8 C 0.74453 0.47422 0.00791 0.0
C9 C 0.75257 0.4839 0.06989 0.0
C10 C 0.77159 0.47499 0.10158 0.0
C11 C 0.78262 0.45673 0.07064 0.0
C12 C 0.78249 0.48586 0.16298 0.0
C13 C 0.79349 0.5091 0.16207 0.0
C14 C 0.78696 0.47124 0.21612 0.0
C15 C 0.80377 0.47886 0.26391 0.0
C16 C 0.81656 0.50132 0.25958 0.0
C17 C 0.72509 0.48373 0.97148 0.0
C18 C 0.72703 0.48708 0.90224 0.0
C19 C 0.704 0.48796 0.00397 0.0
C20 C 0.68489 0.49422 0.96734 0.0
C21 C 0.6865 0.49648 0.89749 0.0
C22 C 0.70801 0.49328 0.86577 0.0
C23 C 0.8104 0.51677 0.20997 0.0
H24 H 0.81958 0.43052 0.82368 0.0
H25 H 0.78715 0.4482 0.87631 0.0
H26 H 0.79783 0.41084 0.0576 0.0
H27 H 0.83096 0.39358 0.00494 0.0
H28 H 0.74976 0.44809 0.93093 0.0
H29 H 0.79823 0.45112 0.09314 0.0
H30 H 0.74452 0.49858 0.09247 0.0
H31 H 0.79053 0.52063 0.12122 0.0
H32 H 0.77882 0.45316 0.21755 0.0
H33 H 0.80803 0.46637 0.3009 0.0
H34 H 0.74317 0.48437 0.87579 0.0
H35 H 0.70198 0.48555 0.05725 0.0
H36 H 0.81956 0.53435 0.20589 0.0
H37 H 0.70997 0.4946 0.81216 0.0
H38 H 0.66872 0.49691 0.99364 0.0
C39 C 0.97378 0.80806 0.98237 0.0
C40 C 0.99749 0.81352 0.96415 0.0
C41 C 0.96647 0.78697 0.01433 0.0
C42 C 0.98264 0.77079 0.02791 0.0
C43 C 0.00595 0.77529 0.00541 0.0
C44 C 0.01336 0.79657 0.97384 0.0
C45 C 0.97606 0.75154 0.07486 0.0
C46 C 0.97824 0.72787 0.05823 0.0
C47 C 0.97214 0.70997 0.10482 0.0
C48 C 0.96459 0.7161 0.1696 0.0
C49 C 0.96296 0.74004 0.18651 0.0
C50 C 0.96834 0.7574 0.1386 0.0
C51 C 0.95762 0.74866 0.25429 0.0
C52 C 0.93679 0.75937 0.26431 0.0
C53 C 0.97647 0.75456 0.29774 0.0
C54 C 0.97563 0.77306 0.34451 0.0
C55 C 0.9559 0.78594 0.34846 0.0
C56 C 0.9733 0.68509 0.0831 0.0
C57 C 0.95258 0.66979 0.07546 0.0
C58 C 0.99457 0.67798 0.05842 0.0
C59 C 0.99497 0.65655 0.02334 0.0
C60 C 0.97401 0.64196 0.01127 0.0
C61 C 0.9529 0.64845 0.03947 0.0
C62 C 0.9359 0.77781 0.31114 0.0
H63 H 0.96098 0.82044 0.97388 0.0
H64 H 0.94837 0.78373 0.03114 0.0
H65 H 0.01873 0.7631 0.01612 0.0
H66 H 0.03175 0.80026 0.96045 0.0
H67 H 0.98416 0.72334 0.00851 0.0
H68 H 0.96737 0.77588 0.15201 0.0
H69 H 0.96036 0.70252 0.20633 0.0
H70 H 0.92216 0.75538 0.23068 0.0
H71 H 0.9929 0.74692 0.28997 0.0
H72 H 0.99137 0.77881 0.37232 0.0
H73 H 0.93593 0.67507 0.09338 0.0
H74 H 0.01072 0.68963 0.06319 0.0
H75 H 0.92023 0.78699 0.31403 0.0
H76 H 0.93651 0.63749 0.03135 0.0
H77 H 0.01147 0.65221 0.0018 0.0
C78 C 0.71855 0.06132 0.86916 0.0
C79 C 0.70573 0.07933 0.89484 0.0
C80 C 0.73392 0.05064 0.90964 0.0
C81 C 0.73686 0.05773 0.97673 0.0
C82 C 0.72553 0.07704 0.00089 0.0
C83 C 0.71009 0.08772 0.96034 0.0
C84 C 0.74911 0.04304 0.02282 0.0
C85 C 0.76936 0.03295 0.00237 0.0
C86 C 0.77892 0.01613 0.04156 0.0
C87 C 0.76828 0.00977 0.10344 0.0
C88 C 0.74808 0.02019 0.12525 0.0
C89 C 0.73881 0.03674 0.08443 0.0
C90 C 0.73469 0.0129 0.18694 0.0
C91 C 0.72704 0.98901 0.19845 0.0
C92 C 0.72573 0.03028 0.22775 0.0
C93 C 0.7079 0.02421 0.27431 0.0
C94 C 0.69872 1.00045 0.28252 0.0
C95 C 0.79926 0.00482 0.01381 0.0
C96 C 0.79761 0.9946 0.94956 0.0
C97 C 0.82117 0.00742 0.04542 0.0
C98 C 0.84135 1.00131 0.01138 0.0
C99 C 0.83992 0.9924 0.94526 0.0
C100 C 0.81762 0.9885 0.91574 0.0
C101 C 0.7093 0.98284 0.24593 0.0
H102 H 0.71542 0.05417 0.81928 0.0
H103 H 0.74215 0.03567 0.88957 0.0
H104 H 0.7278 0.08317 0.05208 0.0
H105 H 0.70075 0.10181 0.98121 0.0
H106 H 0.77749 0.03783 0.95479 0.0
H107 H 0.72249 0.04365 0.09891 0.0
H108 H 0.77531 0.99652 0.13345 0.0
H109 H 0.73357 0.97521 0.16772 0.0
H110 H 0.7314 0.04886 0.22038 0.0
H111 H 0.70035 0.03847 0.30044 0.0
H112 H 0.78091 0.99248 0.924 0.0
H113 H 0.8229 0.01542 0.09478 0.0
H114 H 0.70327 0.9643 0.25188 0.0
H115 H 0.81567 0.98202 0.86482 0.0
H116 H 0.85815 0.00424 0.03611 0.0
C117 C 0.5279 0.72182 0.33922 0.0
C118 C 0.54828 0.71207 0.35918 0.0
C119 C 0.52948 0.74051 0.29407 0.0
C120 C 0.55144 0.74981 0.26865 0.0
C121 C 0.57186 0.74226 0.29595 0.0
C122 C 0.57031 0.72346 0.34048 0.0
C123 C 0.5527 0.75765 0.19869 0.0
C124 C 0.55153 0.78113 0.17838 0.0
C125 C 0.55268 0.78641 0.10956 0.0
C126 C 0.55414 0.76797 0.06225 0.0
C127 C 0.55501 0.74468 0.08273 0.0
C128 C 0.5545 0.73983 0.15065 0.0
C129 C 0.55429 0.72457 0.03497 0.0
C130 C 0.53577 0.72062 0.98958 0.0
C131 C 0.56933 0.70688 0.04388 0.0
C132 C 0.5646 0.68479 0.01299 0.0
C133 C 0.54482 0.68002 0.97211 0.0
C134 C 0.55181 0.81074 0.08467 0.0
C135 C 0.53196 0.8229 0.09633 0.0
C136 C 0.56931 0.8203 0.04027 0.0
C137 C 0.5665 0.84091 0.00549 0.0
C138 C 0.54597 0.85233 0.01367 0.0
C139 C 0.529 0.84344 0.06086 0.0
C140 C 0.53106 0.69848 0.95832 0.0
H141 H 0.51067 0.71343 0.35271 0.0
H142 H 0.51346 0.74559 0.2727 0.0
H143 H 0.58899 0.74879 0.27624 0.0
H144 H 0.58633 0.71655 0.35581 0.0
H145 H 0.55001 0.79506 0.21529 0.0
H146 H 0.55462 0.72167 0.1666 0.0
H147 H 0.55428 0.77169 0.00938 0.0
H148 H 0.52389 0.73399 0.98213 0.0
H149 H 0.58379 0.70961 0.07855 0.0
H150 H 0.57555 0.67103 0.02495 0.0
H151 H 0.51813 0.81575 0.12982 0.0
H152 H 0.58472 0.81117 0.0302 0.0
H153 H 0.51603 0.69551 0.92575 0.0
H154 H 0.51309 0.85196 0.06882 0.0
H155 H 0.57982 0.84709 0.96926 0.0
C156 C 0.2046 0.60267 0.13449 0.0
C157 C 0.19808 0.59457 0.19854 0.0
C158 C 0.22396 0.5946 0.10153 0.0
C159 C 0.23719 0.57835 0.1321 0.0
C160 C 0.23207 0.57208 0.19845 0.0
C161 C 0.21269 0.58008 0.23134 0.0
C162 C 0.25353 0.56507 0.09204 0.0
C163 C 0.27514 0.56007 0.11749 0.0
C164 C 0.28928 0.54493 0.08266 0.0
C165 C 0.28092 0.5341 0.02222 0.0
C166 C 0.2593 0.5393 0.9962 0.0
C167 C 0.24603 0.55494 0.03095 0.0
C168 C 0.24865 0.52753 0.93585 0.0
C169 C 0.24316 0.54151 0.88233 0.0
C170 C 0.23819 0.50413 0.93933 0.0
C171 C 0.22091 0.49558 0.8934 0.0
C172 C 0.21385 0.51031 0.8432 0.0
C173 C 0.31221 0.54025 0.11188 0.0
C174 C 0.32615 0.55863 0.14476 0.0
C175 C 0.31955 0.51737 0.11196 0.0
C176 C 0.33972 0.51286 0.14685 0.0
C177 C 0.35295 0.53109 0.18281 0.0
C178 C 0.34601 0.55411 0.18017 0.0
C179 C 0.22602 0.53298 0.83633 0.0
H180 H 0.194 0.61422 0.10842 0.0
H181 H 0.22779 0.60001 0.0507 0.0
H182 H 0.24183 0.55944 0.22312 0.0
H183 H 0.20811 0.57329 0.28041 0.0
H184 H 0.28065 0.56758 0.16553 0.0
H185 H 0.22893 0.55806 0.01207 0.0
H186 H 0.29117 0.52198 0.99528 0.0
H187 H 0.2507 0.55976 0.87943 0.0
H188 H 0.24185 0.49317 0.98085 0.0
H189 H 0.21216 0.47791 0.89949 0.0
H190 H 0.32136 0.57659 0.1447 0.0
H191 H 0.30924 0.50276 0.08727 0.0
H192 H 0.221 0.54493 0.79883 0.0
H193 H 0.35532 0.56867 0.2076 0.0
H194 H 0.34467 0.49498 0.14644 0.0
C195 C 0.01824 0.20826 0.17927 0.0
C196 C 0.03221 0.18927 0.17483 0.0
C197 C 0.02389 0.22859 0.1415 0.0
C198 C 0.04359 0.23022 0.0988 0.0
C199 C 0.05835 0.21195 0.09783 0.0
C200 C 0.05266 0.19167 0.13494 0.0
C201 C 0.04737 0.24925 0.04925 0.0
C202 C 0.046 0.27305 0.0665 0.0
C203 C 0.04968 0.2907 0.01801 0.0
C204 C 0.05436 0.28433 0.95115 0.0
C205 C 0.05525 0.26034 0.93374 0.0
C206 C 0.05184 0.24316 0.98291 0.0
C207 C 0.05851 0.25151 0.86498 0.0
C208 C 0.03838 0.24445 0.82735 0.0
C209 C 0.07946 0.24166 0.84937 0.0
C210 C 0.07951 0.22295 0.80312 0.0
C211 C 0.05857 0.21376 0.77176 0.0
C212 C 0.0489 0.3156 0.03966 0.0
C213 C 0.02791 0.32287 0.06585 0.0
C214 C 0.06977 0.33075 0.04572 0.0
C215 C 0.06988 0.35222 0.08129 0.0
C216 C 0.04907 0.35896 0.11071 0.0
C217 C 0.02794 0.34443 0.10052 0.0
C218 C 0.0384 0.22574 0.78097 0.0
H219 H 0.00262 0.20718 0.2105 0.0
H220 H 0.01222 0.24244 0.14309 0.0
H221 H 0.07382 0.2129 0.06593 0.0
H222 H 0.06375 0.17742 0.12953 0.0
H223 H 0.04258 0.27793 0.11794 0.0
H224 H 0.05209 0.22465 0.96873 0.0
H225 H 0.05698 0.29777 0.91335 0.0
H226 H 0.02188 0.2514 0.8396 0.0
H227 H 0.0951 0.24652 0.8786 0.0
H228 H 0.09546 0.21442 0.79612 0.0
H229 H 0.01168 0.31126 0.06248 0.0
H230 H 0.08621 0.3253 0.0267 0.0
H231 H 0.02196 0.21912 0.75777 0.0
H232 H 0.01167 0.34894 0.12313 0.0
H233 H 0.0864 0.36312 0.08801 0.0
C234 C 0.2951 0.92638 0.19792 0.0
C235 C 0.31932 0.9336 0.19505 0.0
C236 C 0.27962 0.93656 0.15594 0.0
C237 C 0.2881 0.95447 0.11146 0.0
C238 C 0.3124 0.96157 0.10933 0.0
C239 C 0.32777 0.95111 0.14995 0.0
C240 C 0.27198 0.96671 0.06923 0.0
C241 C 0.24988 0.97188 0.09307 0.0
C242 C 0.23612 0.98618 0.05651 0.0
C243 C 0.24494 0.99594 0.99586 0.0
C244 C 0.26671 0.99014 0.97067 0.0
C245 C 0.27963 0.97513 0.00662 0.0
C246 C 0.27794 1.00051 0.90974 0.0
C247 C 0.27956 0.98603 0.85283 0.0
C248 C 0.29323 0.02139 0.91574 0.0
C249 C 0.3113 0.02652 0.86888 0.0
C250 C 0.31443 0.0108 0.81521 0.0
C251 C 0.213 0.99117 0.08459 0.0
C252 C 0.19661 0.97227 0.1034 0.0
C253 C 0.20832 0.01441 0.10037 0.0
C254 C 0.18817 0.01856 0.13755 0.0
C255 C 0.17221 0.99954 0.15866 0.0
C256 C 0.17639 0.9764 0.13959 0.0
C257 C 0.29751 0.99122 0.80574 0.0
H258 H 0.28819 0.913 0.23276 0.0
H259 H 0.26107 0.93049 0.15866 0.0
H260 H 0.31965 0.97584 0.0778 0.0
H261 H 0.34629 0.95751 0.14807 0.0
H262 H 0.24371 0.96571 0.14162 0.0
H263 H 0.29632 0.97073 0.98628 0.0
H264 H 0.23491 0.00765 0.96839 0.0
H265 H 0.26824 0.9696 0.84785 0.0
H266 H 0.29268 0.03248 0.96012 0.0
H267 H 0.32399 0.04168 0.87821 0.0
H268 H 0.19989 0.95418 0.092 0.0
H269 H 0.2208 0.02926 0.08692 0.0
H270 H 0.29905 0.979 0.76425 0.0
H271 H 0.16463 0.96134 0.15555 0.0
H272 H 0.18535 0.03659 0.15109 0.0
C273 C 0.43543 0.27192 0.75984 0.0
C274 C 0.45841 0.28258 0.74883 0.0
C275 C 0.43127 0.25313 0.80405 0.0
C276 C 0.44997 0.24499 0.83888 0.0
C277 C 0.47308 0.25315 0.81997 0.0
C278 C 0.47729 0.27186 0.77534 0.0
C279 C 0.44582 0.23813 0.90923 0.0
C280 C 0.45161 0.21674 0.93602 0.0
C281 C 0.45072 0.21368 0.00588 0.0
C282 C 0.44662 0.23297 0.048 0.0
C283 C 0.44207 0.25467 0.02129 0.0
C284 C 0.43967 0.25615 0.95228 0.0
C285 C 0.44333 0.27679 0.06266 0.0
C286 C 0.43602 0.27689 0.12995 0.0
C287 C 0.45359 0.29811 0.03502 0.0
C288 C 0.45626 0.31885 0.07283 0.0
C289 C 0.4495 0.31883 0.13999 0.0
C290 C 0.4551 0.19106 0.03707 0.0
C291 C 0.43893 0.18085 0.08418 0.0
C292 C 0.47631 0.18107 0.0264 0.0
C293 C 0.48169 0.1619 0.06461 0.0
C294 C 0.46578 0.15218 0.11342 0.0
C295 C 0.44413 0.16158 0.12159 0.0
C296 C 0.43935 0.29775 0.16861 0.0
H297 H 0.42055 0.27947 0.73899 0.0
H298 H 0.41327 0.24732 0.81811 0.0
H299 H 0.48781 0.24745 0.84668 0.0
H300 H 0.49521 0.27957 0.76763 0.0
H301 H 0.45655 0.20271 0.90315 0.0
H302 H 0.43517 0.27252 0.93113 0.0
H303 H 0.44829 0.23133 0.10144 0.0
H304 H 0.42804 0.26088 0.15292 0.0
H305 H 0.4605 0.2988 0.98456 0.0
H306 H 0.46474 0.33475 0.05026 0.0
H307 H 0.42248 0.18829 0.0935 0.0
H308 H 0.48916 0.18877 0.99081 0.0
H309 H 0.43424 0.29741 0.22079 0.0
H310 H 0.43158 0.15473 0.1591 0.0
H311 H 0.49845 0.15494 0.05679 0.0
Dy312 Dy 0.02086 0.98999 0.62158 0.0
C313 C 0.99242 0.0341 0.38946 0.0
C314 C 0.0298 0.96472 0.73098 0.0
Dy315 Dy 0.9977 0.00865 0.50123 0.0
O316 O 0.04287 0.96668 0.6777 0.0
O317 O 0.01216 0.9772 0.72524 0.0
O318 O 0.05625 0.00395 0.58151 0.0
O319 O 0.02933 0.99127 0.51538 0.0
C320 C 0.05005 1.00125 0.51942 0.0
C321 C 0.96838 0.99744 0.60306 0.0
O322 O 0.9924 0.97058 0.47121 0.0
O323 O 1.0013 0.95714 0.57563 0.0
O324 O 0.9774 0.03182 0.43859 0.0
O325 O 0.00967 0.02158 0.40048 0.0
O326 O 0.9621 0.99519 0.54083 0.0
O327 O 0.98916 0.0073 0.60736 0.0
O328 O 0.02572 0.02808 0.65253 0.0
O329 O 0.01615 0.04165 0.54888 0.0
C330 C 0.99332 0.95322 0.51405 0.0
C331 C 0.02424 0.04553 0.61029 0.0
Dy332 Dy 0.49278 0.98239 0.52617 0.0
C333 C 0.56056 0.05049 0.65118 0.0
C334 C 0.455 0.95516 0.47458 0.0
Dy335 Dy 0.52406 0.0222 0.59649 0.0
O336 O 0.47658 0.95457 0.45424 0.0
O337 O 0.45414 0.97065 0.52253 0.0
O338 O 0.52454 0.96403 0.49798 0.0
O339 O 0.52728 1.00115 0.50579 0.0
C340 C 0.53871 0.98348 0.49676 0.0
C341 C 0.47803 0.02096 0.62386 0.0
O342 O 0.51692 0.04135 0.50364 0.0
O343 O 0.48668 0.01419 0.46495 0.0
O344 O 0.53964 0.04694 0.67726 0.0
O345 O 0.56149 0.03854 0.59577 0.0
O346 O 0.49195 0.04056 0.6217 0.0
O347 O 0.48972 0.00345 0.61651 0.0
O348 O 0.49926 0.96386 0.62018 0.0
O349 O 0.5309 0.9899 0.6553 0.0
C350 C 0.49955 0.03502 0.46165 0.0
C351 C 0.51722 0.96958 0.66052 0.0
Dy352 Dy 0.5024 0.50802 0.63373 0.0
C353 C 0.51578 0.46403 0.37945 0.0
C354 C 0.50547 0.52504 0.76088 0.0
Dy355 Dy 0.51712 0.48907 0.49614 0.0
O356 O 0.48573 0.51875 0.73037 0.0
O357 O 0.52311 0.52126 0.72235 0.0
O358 O 0.47449 0.52689 0.58539 0.0
O359 O 0.48399 0.49501 0.54392 0.0
C360 C 0.47183 0.51196 0.53555 0.0
C361 C 0.55223 0.5002 0.582 0.0
O362 O 0.51846 0.52772 0.4745 0.0
O363 O 0.52112 0.54016 0.58527 0.0
O364 O 0.53068 0.46219 0.42703 0.0
O365 O 0.50248 0.48062 0.39428 0.0
O366 O 0.5549 0.50242 0.51773 0.0
O367 O 0.53187 0.49074 0.59515 0.0
O368 O 0.4924 0.46938 0.6523 0.0
O369 O 0.50357 0.45546 0.54763 0.0
C370 C 0.52231 0.54467 0.52057 0.0
C371 C 0.49495 0.45183 0.60883 0.0
Dy372 Dy 0.00294 0.48216 0.6021 0.0
C373 C 0.05131 0.55029 0.43274 0.0
C374 C 0.97548 0.45242 0.68311 0.0
Dy375 Dy 0.02412 0.52142 0.51653 0.0
O376 O 0.97937 0.44874 0.62022 0.0
O377 O 0.98678 0.47237 0.70221 0.0
O378 O 0.02513 0.45706 0.55061 0.0
O379 O 0.01253 0.48427 0.49607 0.0
C380 C 0.0253 0.46742 0.49339 0.0
C381 C 1.0017 0.53613 0.62529 0.0
O382 O 0.98906 0.51665 0.46843 0.0
O383 O 0.97105 0.49558 0.55594 0.0
O384 O 0.04836 0.55426 0.49598 0.0
O385 O 0.03925 0.5306 0.41505 0.0
O386 O 1.00206 0.54665 0.56826 0.0
O387 O 0.01451 0.51932 0.62249 0.0
O388 O 0.03805 0.48717 0.65052 0.0
O389 O 0.05595 0.508 0.56242 0.0
C390 C 0.96992 0.50705 0.49916 0.0
C391 C 0.05717 0.49674 0.61948 0.0
H392 H 0.12664 0.97884 0.15404 0.0
H393 H 0.09446 0.02387 0.51971 0.0
H394 H 0.17259 0.02849 0.2695 0.0
H395 H 0.04365 0.98564 0.39006 0.0
H396 H 0.123 0.02649 0.42762 0.0
H397 H 0.09567 0.9818 0.23816 0.0
C398 C 0.13014 0.99052 0.19683 0.0
C399 C 0.1523 0.00337 0.2048 0.0
C400 C 0.10556 0.01769 0.41903 0.0
C401 C 0.11695 0.00671 0.3017 0.0
C402 C 0.08928 0.01615 0.47165 0.0
C403 C 0.06673 0.0044 0.46256 0.0
C404 C 0.09935 0.00716 0.35691 0.0
C405 C 0.06089 0.99483 0.3992 0.0
C406 C 0.11243 0.99225 0.24476 0.0
C407 C 0.15575 0.0184 0.26096 0.0
N408 N 0.07716 0.99621 0.34896 0.0
N409 N 0.13839 0.01945 0.30753 0.0
H410 H 0.50758 0.14928 0.17711 0.0
H411 H 0.46234 0.03157 0.37535 0.0
H412 H 0.43824 0.11246 0.15439 0.0
H413 H 0.52579 0.07606 0.42472 0.0
H414 H 0.45486 0.05887 0.28697 0.0
H415 H 0.51639 0.12016 0.25934 0.0
C416 C 0.49431 0.13489 0.1887 0.0
C417 C 0.47211 0.13336 0.1588 0.0
C418 C 0.47043 0.06265 0.31714 0.0
C419 C 0.482 0.10007 0.25364 0.0
C420 C 0.47474 0.04705 0.36766 0.0
C421 C 0.49471 0.0515 0.40789 0.0
C422 C 0.48627 0.08284 0.30617 0.0
C423 C 0.5101 0.07191 0.39534 0.0
C424 C 0.49928 0.11839 0.23614 0.0
C425 C 0.4555 0.11449 0.17664 0.0
N426 N 0.50558 0.08676 0.34562 0.0
N427 N 0.46076 0.09863 0.22283 0.0
H428 H 0.35861 0.4908 0.25395 0.0
H429 H 0.45633 0.55224 0.4896 0.0
H430 H 0.39341 0.56021 0.21173 0.0
H431 H 0.45201 0.47698 0.45193 0.0
H432 H 0.4295 0.55591 0.39669 0.0
H433 H 0.38951 0.48516 0.33365 0.0
C434 C 0.37281 0.50476 0.26037 0.0
C435 C 0.37302 0.5262 0.22612 0.0
C436 C 0.43453 0.53862 0.40856 0.0
C437 C 0.40804 0.52 0.31936 0.0
C438 C 0.44969 0.5365 0.4617 0.0
C439 C 0.45624 0.51428 0.47841 0.0
C440 C 0.42539 0.51828 0.37299 0.0
C441 C 0.44732 0.49443 0.44046 0.0
C442 C 0.39038 0.50152 0.30635 0.0
C443 C 0.3919 0.54367 0.23807 0.0
N444 N 0.43205 0.49683 0.38997 0.0
N445 N 0.40838 0.54033 0.28432 0.0
H446 H 0.08047 0.37066 0.21059 0.0
H447 H 0.01126 0.47472 0.36562 0.0
H448 H 0.01858 0.39334 0.12061 0.0
H449 H 0.05573 0.43391 0.4795 0.0
H450 H 0.02007 0.45161 0.26532 0.0
H451 H 0.07799 0.40067 0.29856 0.0
C452 C 0.06664 0.38229 0.20851 0.0
C453 C 0.04964 0.37941 0.15826 0.0
C454 C 0.02807 0.44793 0.31217 0.0
C455 C 0.04658 0.41366 0.25936 0.0
C456 C 0.02315 0.46115 0.36925 0.0
C457 C 0.03262 0.456 0.43092 0.0
C458 C 0.04284 0.42973 0.31682 0.0
C459 C 0.04791 0.43826 0.43297 0.0
C460 C 0.06512 0.39928 0.25911 0.0
C461 C 0.03191 0.39479 0.15879 0.0
N462 N 0.05248 0.42572 0.37684 0.0
N463 N 0.03077 0.41119 0.20873 0.0
H464 H 0.84628 0.95794 0.85025 0.0
H465 H 0.97381 0.01428 0.73167 0.0
H466 H 0.88279 0.01955 0.94604 0.0
H467 H 0.92518 0.97233 0.60357 0.0
H468 H 0.94443 0.01033 0.8223 0.0
H469 H 0.87909 0.95687 0.77171 0.0
C470 C 0.86121 0.97118 0.85521 0.0
C471 C 0.86144 0.98912 0.90449 0.0
C472 C 0.94029 0.00187 0.77446 0.0
C473 C 0.89938 0.9877 0.81486 0.0
C474 C 0.95704 0.00406 0.72287 0.0
C475 C 0.95178 0.99379 0.65993 0.0
C476 C 0.91832 0.98901 0.76324 0.0
C477 C 0.92984 0.9807 0.65118 0.0
C478 C 0.87999 0.97049 0.81033 0.0
C479 C 0.88173 0.00532 0.90928 0.0
N480 N 0.91392 0.9787 0.70217 0.0
N481 N 0.89978 0.00433 0.86475 0.0
H482 H 0.57671 0.89002 0.97281 0.0
H483 H 0.48886 0.93041 0.69965 0.0
H484 H 0.50511 0.85899 0.95 0.0
H485 H 0.5549 0.97096 0.74586 0.0
H486 H 0.49539 0.9035 0.78921 0.0
H487 H 0.56979 0.91944 0.88915 0.0
C488 C 0.55949 0.88948 0.95058 0.0
C489 C 0.54147 0.87196 0.96859 0.0
C490 C 0.50846 0.9183 0.77999 0.0
C491 C 0.53349 0.90549 0.87232 0.0
C492 C 0.5048 0.93368 0.72848 0.0
C493 C 0.52139 0.95304 0.71481 0.0
C494 C 0.52896 0.92206 0.81822 0.0
C495 C 0.54162 0.95631 0.75446 0.0
C496 C 0.55555 0.90632 0.90291 0.0
C497 C 0.51946 0.87228 0.93842 0.0
N498 N 0.54489 0.94092 0.80413 0.0
N499 N 0.51618 0.8886 0.89152 0.0
H500 H 0.64044 0.47859 0.91667 0.0
H501 H 0.59717 0.5212 0.56479 0.0
H502 H 0.68476 0.52335 0.78474 0.0
H503 H 0.55123 0.48476 0.71005 0.0
H504 H 0.62935 0.52318 0.64535 0.0
H505 H 0.60726 0.48215 0.84355 0.0
C506 C 0.64318 0.48948 0.87294 0.0
C507 C 0.6656 0.50055 0.85691 0.0
C508 C 0.61217 0.51494 0.65979 0.0
C509 C 0.62757 0.50425 0.77169 0.0
C510 C 0.59384 0.51378 0.61379 0.0
C511 C 0.57154 0.50284 0.63084 0.0
C512 C 0.60818 0.50489 0.72305 0.0
C513 C 0.56813 0.49349 0.69496 0.0
C514 C 0.6242 0.49134 0.83079 0.0
C515 C 0.66797 0.51409 0.79865 0.0
N516 N 0.58626 0.49461 0.73852 0.0
N517 N 0.64928 0.51539 0.75799 0.0
H518 H 0.94351 0.6306 0.90901 0.0
H519 H 0.01494 0.52826 0.75349 0.0
H520 H 0.00484 0.60787 0.00192 0.0
H521 H 0.97102 0.56941 0.63886 0.0
H522 H 0.00518 0.55065 0.85427 0.0
H523 H 0.94701 0.60123 0.81983 0.0
C524 C 0.95742 0.61908 0.91146 0.0
C525 C 0.97397 0.62178 0.96292 0.0
C526 C 0.99751 0.55458 0.80712 0.0
C527 C 0.97822 0.58828 0.86041 0.0
C528 C 0.00299 0.54177 0.74976 0.0
C529 C 0.99394 0.54722 0.6878 0.0
C530 C 0.98261 0.57265 0.80243 0.0
C531 C 0.97853 0.56484 0.68563 0.0
C532 C 0.95953 0.60247 0.86017 0.0
C533 C 0.99184 0.60655 0.96283 0.0
N534 N 0.97341 0.57698 0.74203 0.0
N535 N 0.99357 0.59053 0.91219 0.0
H536 H 0.06025 0.15907 0.23237 0.0
H537 H 0.96078 0.06628 0.36961 0.0
H538 H 0.98748 0.16696 0.19131 0.0
H539 H 0.02866 0.04721 0.30531 0.0
H540 H 0.96911 0.1043 0.31303 0.0
H541 H 0.04846 0.11947 0.27317 0.0
C542 C 0.04179 0.15252 0.23176 0.0
C543 C 0.0249 0.16636 0.20745 0.0
C544 C 0.98192 0.09154 0.31036 0.0
C545 C 0.01128 0.12108 0.25534 0.0
C546 C 0.97714 0.06985 0.34215 0.0
C547 C 0.99415 0.05375 0.34239 0.0
C548 C 0.00399 0.09713 0.28013 0.0
C549 C 0.01512 0.05921 0.30653 0.0
C550 C 0.0351 0.12989 0.25503 0.0
C551 C 1.00113 0.15707 0.21006 0.0
N552 N 0.01965 0.08065 0.2779 0.0
N553 N 0.99499 0.13498 0.23373 0.0
H554 H 0.31542 0.93211 0.33071 0.0
H555 H 0.45337 0.92721 0.36216 0.0
H556 H 0.36128 0.91655 0.1673 0.0
H557 H 0.40938 0.9547 0.51473 0.0
H558 H 0.41806 0.91207 0.30066 0.0
H559 H 0.34757 0.92859 0.40837 0.0
C560 C 0.33204 0.92719 0.31147 0.0
C561 C 0.33592 0.92501 0.24262 0.0
C562 C 0.41612 0.92106 0.34816 0.0
C563 C 0.37277 0.92143 0.33054 0.0
C564 C 0.43625 0.92967 0.3832 0.0
C565 C 0.43418 0.94257 0.44275 0.0
C566 C 0.39387 0.92547 0.37296 0.0
C567 C 0.41166 0.94514 0.46832 0.0
C568 C 0.35044 0.92539 0.35567 0.0
C569 C 0.35778 0.91876 0.2201 0.0
N570 N 0.39236 0.93695 0.4328 0.0
N571 N 0.37553 0.91758 0.26385 0.0
H572 H 0.43749 0.36312 0.11737 0.0
H573 H 0.53531 0.42265 0.36416 0.0
H574 H 0.47674 0.32359 0.25034 0.0
H575 H 0.48022 0.46115 0.2891 0.0
H576 H 0.51767 0.38702 0.30688 0.0
H577 H 0.45502 0.40002 0.16972 0.0
C578 C 0.44944 0.36229 0.15862 0.0
C579 C 0.45564 0.34045 0.18015 0.0
C580 C 0.50959 0.40333 0.30238 0.0
C581 C 0.47628 0.38227 0.23818 0.0
C582 C 0.51983 0.42374 0.3342 0.0
C583 C 0.5091 0.44478 0.33145 0.0
C584 C 0.48861 0.40408 0.26723 0.0
C585 C 0.489 0.44522 0.29232 0.0
C586 C 0.45954 0.38326 0.18799 0.0
C587 C 0.47134 0.34013 0.23308 0.0
N588 N 0.47925 0.42505 0.26198 0.0
N589 N 0.48137 0.3608 0.25986 0.0
H590 H 0.1564 0.59288 0.132 0.0
H591 H 0.05884 0.54438 0.29951 0.0
H592 H 0.18566 0.60302 0.32922 0.0
H593 H 0.08373 0.5865 0.47023 0.0
H594 H 0.09204 0.56223 0.23441 0.0
H595 H 0.11712 0.58929 0.18088 0.0
C596 C 0.15461 0.59482 0.18557 0.0
C597 C 0.17447 0.59776 0.22669 0.0
C598 C 0.08992 0.56827 0.28535 0.0
C599 C 0.12942 0.59236 0.28321 0.0
C600 C 0.07103 0.55788 0.32269 0.0
C601 C 0.06872 0.56389 0.39025 0.0
C602 C 0.10672 0.58468 0.31614 0.0
C603 C 0.08499 0.58136 0.41818 0.0
C604 C 0.1321 0.59229 0.21355 0.0
C605 C 0.17089 0.6001 0.29576 0.0
N606 N 0.1036 0.59082 0.38132 0.0
N607 N 0.1488 0.597 0.32194 0.0
H608 H 0.98434 0.85609 0.00787 0.0
H609 H 0.05998 0.93068 0.73227 0.0
H610 H 0.0298 0.82546 0.86451 0.0
H611 H 1.00167 0.95604 0.84024 0.0
H612 H 0.05568 0.8948 0.79886 0.0
H613 H 0.99645 0.89511 0.9631 0.0
C614 C 0.9968 0.85754 0.96673 0.0
C615 C 0.00571 0.83738 0.93896 0.0
C616 C 0.04409 0.90839 0.8087 0.0
C617 C 0.02005 0.88215 0.8886 0.0
C618 C 0.04664 0.92893 0.77114 0.0
C619 C 0.03097 0.94614 0.78049 0.0
C620 C 0.02579 0.90518 0.85592 0.0
C621 C 0.014 0.94307 0.83132 0.0
C622 C 0.00386 0.87987 0.94166 0.0
C623 C 0.02244 0.84049 0.88732 0.0
N624 N 0.01167 0.9228 0.86673 0.0
N625 N 0.02895 0.86246 0.86342 0.0
H626 H 0.70302 0.08749 0.76049 0.0
H627 H 0.5631 0.0709 0.77564 0.0
H628 H 0.662 0.0864 0.94261 0.0
H629 H 0.60452 0.05989 0.59893 0.0
H630 H 0.59888 0.08736 0.83297 0.0
H631 H 0.66695 0.0886 0.6969 0.0
C632 C 0.6865 0.08796 0.78716 0.0
C633 C 0.68549 0.08633 0.85691 0.0
C634 C 0.60007 0.0817 0.78131 0.0
C635 C 0.64419 0.08749 0.78457 0.0
C636 C 0.57968 0.07233 0.74865 0.0
C637 C 0.58104 0.0637 0.68302 0.0
C638 C 0.62187 0.08236 0.74792 0.0
C639 C 0.60284 0.06608 0.64997 0.0
C640 C 0.66592 0.0886 0.75085 0.0
C641 C 0.66367 0.08756 0.88893 0.0
N642 N 0.62248 0.07492 0.68305 0.0
N643 N 0.64383 0.08763 0.85245 0.0
H644 H 0.50016 0.65734 0.96522 0.0
H645 H 0.54486 0.53648 0.8327 0.0
H646 H 0.57284 0.64629 0.92898 0.0
H647 H 0.47297 0.55199 0.81545 0.0
H648 H 0.55362 0.57297 0.8976 0.0
H649 H 0.4887 0.61613 0.93273 0.0
C650 C 0.51371 0.64636 0.94986 0.0
C651 C 0.53753 0.65541 0.94922 0.0
C652 C 0.53581 0.56818 0.88082 0.0
C653 C 0.52451 0.60806 0.91439 0.0
C654 C 0.53074 0.54723 0.8445 0.0
C655 C 0.50827 0.54153 0.81798 0.0
C656 C 0.5183 0.58353 0.89018 0.0
C657 C 0.49055 0.55592 0.83482 0.0
C658 C 0.50714 0.62276 0.93225 0.0
C659 C 0.55431 0.6401 0.93075 0.0
N660 N 0.49606 0.57662 0.86885 0.0
N661 N 0.54747 0.61721 0.91399 0.0
H662 H 0.86955 0.41681 0.97723 0.0
H663 H 0.94478 0.41553 0.64072 0.0
H664 H 0.84027 0.39585 0.78524 0.0
H665 H 0.96556 0.45733 0.81585 0.0
H666 H 0.91086 0.39689 0.70259 0.0
H667 H 0.90888 0.41949 0.92766 0.0
C668 C 0.87142 0.412 0.92509 0.0
C669 C 0.85159 0.40638 0.88501 0.0
C670 C 0.92309 0.40982 0.72778 0.0
C671 C 0.89651 0.40987 0.82795 0.0
C672 C 0.94245 0.42042 0.69264 0.0
C673 C 0.9577 0.43823 0.72314 0.0
C674 C 0.91912 0.41701 0.79386 0.0
C675 C 0.95401 0.44385 0.79044 0.0
C676 C 0.89388 0.41378 0.89674 0.0
C677 C 0.8551 0.4006 0.81759 0.0
N678 N 0.9349 0.43345 0.82346 0.0
N679 N 0.87714 0.40282 0.79089 0.0
H680 H 0.0352 0.19832 0.65689 0.0
H681 H 0.0467 0.06169 0.72539 0.0
H682 H 0.07673 0.17422 0.81543 0.0
H683 H 0.01782 0.08616 0.54424 0.0
H684 H 0.05727 0.1029 0.76007 0.0
H685 H 0.02829 0.15743 0.61473 0.0
C686 C 0.04308 0.1845 0.68235 0.0
C687 C 0.05667 0.1898 0.73959 0.0
C688 C 0.04872 0.09923 0.71257 0.0
C689 C 0.04857 0.14291 0.69226 0.0
C690 C 0.0426 0.07568 0.69285 0.0
C691 C 0.03129 0.07037 0.63187 0.0
C692 C 0.04329 0.11767 0.67139 0.0
C693 C 0.02652 0.08933 0.59169 0.0
C694 C 0.03915 0.16117 0.65829 0.0
C695 C 0.06647 0.17112 0.77053 0.0
N696 N 0.03241 0.11208 0.61232 0.0
N697 N 0.06206 0.14855 0.74688 0.0
H698 H 0.34052 0.05119 0.76973 0.0
H699 H 0.44907 0.98116 0.65344 0.0
H700 H 0.34006 0.97517 0.77241 0.0
H701 H 0.45015 0.05699 0.6424 0.0
H702 H 0.40815 0.97874 0.691 0.0
H703 H 0.37961 0.05388 0.7173 0.0
C704 C 0.34849 0.03506 0.75884 0.0
C705 C 0.33682 0.01292 0.77563 0.0
C706 C 0.41723 0.99593 0.68002 0.0
C707 C 0.38167 0.01589 0.71569 0.0
C708 C 0.4406 0.9973 0.65828 0.0
C709 C 0.45298 0.0193 0.64445 0.0
C710 C 0.40612 0.01675 0.68866 0.0
C711 C 0.44122 0.03967 0.6526 0.0
C712 C 0.37081 0.03661 0.72876 0.0
C713 C 0.34804 0.99263 0.7596 0.0
N714 N 0.41848 0.03793 0.67445 0.0
N715 N 0.3698 0.99463 0.73109 0.0
H716 H 0.4918 0.29991 0.65685 0.0
H717 H 0.46812 0.43498 0.7163 0.0
H718 H 0.43475 0.32071 0.77944 0.0
H719 H 0.50727 0.41162 0.54662 0.0
H720 H 0.45821 0.39348 0.74686 0.0
H721 H 0.50015 0.34112 0.62133 0.0
C722 C 0.4809 0.31308 0.67571 0.0
C723 C 0.46239 0.30677 0.72056 0.0
C724 C 0.4689 0.39749 0.70281 0.0
C725 C 0.47212 0.35401 0.68139 0.0
C726 C 0.47465 0.42119 0.68551 0.0
C727 C 0.48851 0.42688 0.62872 0.0
C728 C 0.47739 0.37935 0.66369 0.0
C729 C 0.49642 0.40816 0.59065 0.0
C730 C 0.48565 0.33658 0.65549 0.0
C731 C 0.4489 0.32464 0.74379 0.0
N732 N 0.49088 0.38532 0.60902 0.0
N733 N 0.45415 0.34742 0.72443 0.0
H734 H 0.20559 0.51858 0.71089 0.0
H735 H 0.06749 0.47749 0.7392 0.0
H736 H 0.17207 0.4873 0.88669 0.0
H737 H 0.10046 0.51278 0.56827 0.0
H738 H 0.1062 0.47726 0.78965 0.0
H739 H 0.1679 0.5127 0.65338 0.0
C740 C 0.19038 0.51027 0.73725 0.0
C741 C 0.19209 0.50355 0.80399 0.0
C742 C 0.10497 0.48494 0.74093 0.0
C743 C 0.14874 0.4968 0.73831 0.0
C744 C 0.08284 0.48508 0.71203 0.0
C745 C 0.08061 0.49531 0.64947 0.0
C746 C 0.1251 0.4951 0.70712 0.0
C747 C 0.10122 0.50481 0.61672 0.0
C748 C 0.16884 0.5069 0.70434 0.0
C749 C 0.17177 0.49255 0.83513 0.0
N750 N 0.12252 0.50456 0.64601 0.0
N751 N 0.15096 0.48972 0.80229 0.0
H752 H 0.97662 0.80017 0.46842 0.0
H753 H 0.97112 0.93773 0.39828 0.0
H754 H 0.94031 0.82645 0.30216 0.0
H755 H 0.99778 0.91222 0.58115 0.0
H756 H 0.95947 0.89686 0.36314 0.0
H757 H 0.98403 0.84081 0.51219 0.0
C758 C 0.96996 0.8144 0.44154 0.0
C759 C 0.95773 0.80977 0.38158 0.0
C760 C 0.96776 0.90019 0.41113 0.0
C761 C 0.9664 0.85638 0.43097 0.0
C762 C 0.9745 0.92357 0.43116 0.0
C763 C 0.98554 0.9285 0.49271 0.0
C764 C 0.97225 0.88149 0.45259 0.0
C765 C 0.98934 0.90932 0.53324 0.0
C766 C 0.97419 0.83761 0.46656 0.0
C767 C 0.94947 0.82898 0.34908 0.0
N768 N 0.98284 0.8867 0.51231 0.0
N769 N 0.95412 0.85137 0.37382 0.0
H770 H 0.66301 0.96427 0.26361 0.0
H771 H 0.56945 0.02315 0.47935 0.0
H772 H 0.68385 0.02346 0.39589 0.0
H773 H 0.56373 0.94724 0.45477 0.0
H774 H 0.60988 0.02531 0.43687 0.0
H775 H 0.6253 0.95853 0.32247 0.0
C776 C 0.66001 0.97586 0.30555 0.0
C777 C 0.67689 0.99464 0.32379 0.0
C778 C 0.59985 0.00816 0.44155 0.0
C779 C 0.63308 0.98854 0.38968 0.0
C780 C 0.57682 0.0069 0.4662 0.0
C781 C 0.56335 0.98495 0.47209 0.0
C782 C 0.60927 0.98739 0.42045 0.0
C783 C 0.57357 0.96452 0.45158 0.0
C784 C 0.63829 0.97261 0.33877 0.0
C785 C 0.67136 0.0092 0.37814 0.0
N786 N 0.59583 0.96624 0.42591 0.0
N787 N 0.64985 0.0061 0.40825 0.0
H788 H 0.57117 0.67453 0.31863 0.0
H789 H 0.51642 0.58478 0.59378 0.0
H790 H 0.52073 0.69462 0.46485 0.0
H791 H 0.53931 0.5616 0.39997 0.0
H792 H 0.52361 0.62594 0.55796 0.0
H793 H 0.56573 0.634 0.35941 0.0
C794 C 0.55925 0.67051 0.36019 0.0
C795 C 0.54654 0.68808 0.38881 0.0
C796 C 0.52708 0.61183 0.52341 0.0
C797 C 0.54009 0.64155 0.43532 0.0
C798 C 0.52313 0.58833 0.54384 0.0
C799 C 0.5273 0.56966 0.49979 0.0
C800 C 0.53573 0.61679 0.45888 0.0
C801 C 0.53578 0.57538 0.43551 0.0
C802 C 0.55597 0.6473 0.38289 0.0
C803 C 0.53091 0.68165 0.44149 0.0
N804 N 0.53986 0.59842 0.41715 0.0
N805 N 0.5282 0.65892 0.46331 0.0
H806 H 0.85891 0.52451 0.22126 0.0
H807 H 0.92626 0.49062 0.54779 0.0
H808 H 0.82374 0.49061 0.39115 0.0
H809 H 0.96029 0.52783 0.3814 0.0
H810 H 0.88827 0.49255 0.49459 0.0
H811 H 0.89554 0.52873 0.28318 0.0
C812 C 0.8587 0.51838 0.27209 0.0
C813 C 0.83806 0.50709 0.30073 0.0
C814 C 0.90403 0.50041 0.4699 0.0
C815 C 0.8804 0.51131 0.37162 0.0
C816 C 0.92578 0.49929 0.50023 0.0
C817 C 0.94661 0.50896 0.46894 0.0
C818 C 0.90303 0.51122 0.40763 0.0
C819 C 0.94477 0.52004 0.4074 0.0
C820 C 0.87977 0.52057 0.30726 0.0
C821 C 0.83922 0.49909 0.36648 0.0
N822 N 0.92343 0.52074 0.3787 0.0
N823 N 0.86003 0.50118 0.39941 0.0
loop_
_geom_bond_atom_site_label_1
_geom_bond_atom_site_label_2
_geom_bond_distance
_geom_bond_site_symmetry_2
_ccdc_geom_bond_type
C0 C1 1.386 . S
C0 C2 1.397 . S
C0 H24 0.931 . S
C1 C0 1.386 . S
C1 C5 1.397 . S
C2 C0 1.397 . S
C2 C3 1.384 . S
C2 H25 0.930 . S
C3 C2 1.384 . S
C3 C4 1.377 . S
C3 C6 1.481 . S
C4 C3 1.377 . S
C4 C5 1.389 . S
C4 H26 0.929 . S
C5 C1 1.397 . S
C5 C4 1.389 . S
C5 H27 0.931 . S
C6 C3 1.481 . S
C6 C7 1.387 . S
C6 C11 1.390 1_556 S
C7 C6 1.387 . S
C7 C8 1.401 1_556 S
C7 H28 0.930 . S
C8 C7 1.401 1_554 S
C8 C9 1.376 . S
C8 C17 1.511 1_554 S
C9 C8 1.376 . S
C9 C10 1.392 . S
C9 H30 0.931 . S
C10 C9 1.392 . S
C10 C11 1.361 . S
C10 C12 1.500 . S
C11 C6 1.390 1_554 S
C11 C10 1.361 . S
C11 H29 0.931 . S
C12 C10 1.500 . S
C12 C13 1.371 . S
C12 C14 1.365 . S
C13 C12 1.371 . S
C13 C23 1.386 . S
C13 H31 0.931 . S
C14 C12 1.365 . S
C14 C15 1.409 . S
C14 H32 0.929 . S
C15 C14 1.409 . S
C15 C16 1.380 . S
C15 H33 0.930 . S
C16 C15 1.380 . S
C16 C23 1.357 . S
C17 C8 1.511 1_556 S
C17 C18 1.341 . S
C17 C19 1.371 1_556 S
C18 C17 1.341 . S
C18 C22 1.394 . S
C18 H34 0.930 . S
C19 C17 1.371 1_554 S
C19 C20 1.392 . S
C19 H35 0.931 . S
C20 C19 1.392 . S
C20 C21 1.331 1_554 S
C20 H38 0.932 . S
C21 C20 1.331 1_556 S
C21 C22 1.336 . S
C22 C18 1.394 . S
C22 C21 1.336 . S
C22 H37 0.929 . S
C23 C13 1.386 . S
C23 C16 1.357 . S
C23 H36 0.928 . S
H24 C0 0.931 . S
H25 C2 0.930 . S
H26 C4 0.929 . S
H27 C5 0.931 . S
H28 C7 0.930 . S
H29 C11 0.931 . S
H30 C9 0.931 . S
H31 C13 0.931 . S
H32 C14 0.929 . S
H33 C15 0.930 . S
H34 C18 0.930 . S
H35 C19 0.931 . S
H36 C23 0.928 . S
H37 C22 0.929 . S
H38 C20 0.932 . S
C39 C40 1.386 . S
C39 C41 1.397 . S
C39 H63 0.931 . S
C40 C39 1.386 . S
C40 C44 1.397 . S
C41 C39 1.397 . S
C41 C42 1.384 . S
C41 H64 0.930 . S
C42 C41 1.384 . S
C42 C43 1.377 . S
C42 C45 1.481 . S
C43 C42 1.377 . S
C43 C44 1.389 . S
C43 H65 0.929 . S
C44 C40 1.397 . S
C44 C43 1.389 . S
C44 H66 0.931 . S
C45 C42 1.481 . S
C45 C46 1.387 . S
C45 C50 1.390 1_556 S
C46 C45 1.387 . S
C46 C47 1.401 . S
C46 H67 0.930 . S
C47 C46 1.401 . S
C47 C48 1.376 1_556 S
C47 C56 1.511 . S
C48 C47 1.376 1_554 S
C48 C49 1.392 . S
C48 H69 0.931 . S
C49 C48 1.392 . S
C49 C50 1.361 . S
C49 C51 1.500 . S
C50 C45 1.390 1_554 S
C50 C49 1.361 . S
C50 H68 0.931 . S
C51 C49 1.500 . S
C51 C52 1.371 . S
C51 C53 1.365 . S
C52 C51 1.371 . S
C52 C62 1.386 . S
C52 H70 0.931 . S
C53 C51 1.365 . S
C53 C54 1.409 . S
C53 H71 0.929 . S
C54 C53 1.409 . S
C54 C55 1.380 . S
C54 H72 0.930 . S
C55 C54 1.380 . S
C55 C62 1.357 . S
C56 C47 1.511 . S
C56 C57 1.341 . S
C56 C58 1.371 1_556 S
C57 C56 1.341 . S
C57 C61 1.394 . S
C57 H73 0.930 . S
C58 C56 1.371 1_554 S
C58 C59 1.392 . S
C58 H74 0.931 . S
C59 C58 1.392 . S
C59 C60 1.331 1_554 S
C59 H77 0.932 . S
C60 C59 1.331 1_556 S
C60 C61 1.336 . S
C61 C57 1.394 . S
C61 C60 1.336 . S
C61 H76 0.929 . S
C62 C52 1.386 . S
C62 C55 1.357 . S
C62 H75 0.928 . S
H63 C39 0.931 . S
H64 C41 0.930 . S
H65 C43 0.929 . S
H66 C44 0.931 . S
H67 C46 0.930 . S
H68 C50 0.931 . S
H69 C48 0.931 . S
H70 C52 0.931 . S
H71 C53 0.929 . S
H72 C54 0.930 . S
H73 C57 0.930 . S
H74 C58 0.931 . S
H75 C62 0.928 . S
H76 C61 0.929 . S
H77 C59 0.932 . S
C78 C79 1.395 . S
C78 C80 1.397 . S
C78 H102 0.931 . S
C79 C78 1.395 . S
C79 C83 1.389 1_565 S
C80 C78 1.397 . S
C80 C81 1.389 . S
C80 H103 0.930 . S
C81 C80 1.389 . S
C81 C82 1.372 1_565 S
C81 C84 1.478 . S
C82 C81 1.372 1_545 S
C82 C83 1.389 . S
C82 H104 0.929 . S
C83 C79 1.389 1_545 S
C83 C82 1.389 . S
C83 H105 0.931 . S
C84 C81 1.478 . S
C84 C85 1.392 . S
C84 C89 1.390 1_556 S
C85 C84 1.392 . S
C85 C86 1.399 1_556 S
C85 H106 0.930 . S
C86 C85 1.399 1_554 S
C86 C87 1.376 . S
C86 C95 1.516 . S
C87 C86 1.376 . S
C87 C88 1.387 . S
C87 H108 0.938 . S
C88 C87 1.387 . S
C88 C89 1.362 . S
C88 C90 1.499 1_565 S
C89 C84 1.390 1_554 S
C89 C88 1.362 . S
C89 H107 0.930 . S
C90 C88 1.499 1_545 S
C90 C91 1.360 1_545 S
C90 C92 1.377 . S
C91 C90 1.360 1_565 S
C91 C101 1.386 . S
C91 H109 0.931 . S
C92 C90 1.377 . S
C92 C93 1.409 . S
C92 H110 0.929 . S
C93 C92 1.409 . S
C93 C94 1.379 . S
C93 H111 0.930 . S
C94 C93 1.379 . S
C94 C101 1.358 1_545 S
C95 C86 1.516 . S
C95 C96 1.341 1_554 S
C95 C97 1.371 1_565 S
C96 C95 1.341 1_556 S
C96 C100 1.394 . S
C96 H112 0.930 . S
C97 C95 1.371 1_545 S
C97 C98 1.392 . S
C97 H113 0.931 . S
C98 C97 1.392 . S
C98 C99 1.322 1_544 S
C98 H116 0.932 . S
C99 C98 1.322 1_566 S
C99 C100 1.343 . S
C100 C96 1.394 . S
C100 C99 1.343 . S
C100 H115 0.929 . S
C101 C91 1.386 . S
C101 C94 1.358 1_565 S
C101 H114 0.928 . S
H102 C78 0.931 . S
H103 C80 0.930 . S
H104 C82 0.929 . S
H105 C83 0.931 . S
H106 C85 0.930 . S
H107 C89 0.930 . S
H108 C87 0.938 . S
H109 C91 0.931 . S
H110 C92 0.929 . S
H111 C93 0.930 . S
H112 C96 0.930 . S
H113 C97 0.931 . S
H114 C101 0.928 . S
H115 C100 0.929 . S
H116 C98 0.932 . S
C117 C118 1.386 . S
C117 C119 1.397 . S
C117 H141 0.931 . S
C118 C117 1.386 . S
C118 C122 1.397 . S
C119 C117 1.397 . S
C119 C120 1.384 . S
C119 H142 0.930 . S
C120 C119 1.384 . S
C120 C121 1.377 . S
C120 C123 1.481 . S
C121 C120 1.377 . S
C121 C122 1.389 . S
C121 H143 0.929 . S
C122 C118 1.397 . S
C122 C121 1.389 . S
C122 H144 0.931 . S
C123 C120 1.481 . S
C123 C124 1.387 . S
C123 C128 1.390 . S
C124 C123 1.387 . S
C124 C125 1.401 . S
C124 H145 0.930 . S
C125 C124 1.401 . S
C125 C126 1.376 1_554 S
C125 C134 1.511 . S
C126 C125 1.376 1_556 S
C126 C127 1.392 1_556 S
C126 H147 0.931 . S
C127 C126 1.392 1_554 S
C127 C128 1.361 . S
C127 C129 1.500 1_554 S
C128 C123 1.390 . S
C128 C127 1.361 . S
C128 H146 0.931 . S
C129 C127 1.500 1_556 S
C129 C130 1.371 . S
C129 C131 1.365 . S
C130 C129 1.371 . S
C130 C140 1.386 . S
C130 H148 0.931 . S
C131 C129 1.365 . S
C131 C132 1.409 . S
C131 H149 0.929 1_556 S
C132 C131 1.409 . S
C132 C133 1.380 . S
C132 H150 0.930 . S
C133 C132 1.380 . S
C133 C140 1.357 . S
C134 C125 1.511 . S
C134 C135 1.341 . S
C134 C136 1.371 1_554 S
C135 C134 1.341 . S
C135 C139 1.394 . S
C135 H151 0.930 . S
C136 C134 1.371 1_556 S
C136 C137 1.392 . S
C136 H152 0.931 . S
C137 C136 1.392 . S
C137 C138 1.322 1_556 S
C137 H155 0.932 . S
C138 C137 1.322 1_554 S
C138 C139 1.348 . S
C139 C135 1.394 . S
C139 C138 1.348 . S
C139 H154 0.929 . S
C140 C130 1.386 . S
C140 C133 1.357 . S
C140 H153 0.928 . S
H141 C117 0.931 . S
H142 C119 0.930 . S
H143 C121 0.929 . S
H144 C122 0.931 . S
H145 C124 0.930 . S
H146 C128 0.931 . S
H147 C126 0.931 . S
H148 C130 0.931 . S
H149 C131 0.929 1_554 S
H150 C132 0.930 . S
H151 C135 0.930 . S
H152 C136 0.931 . S
H153 C140 0.928 . S
H154 C139 0.929 . S
H155 C137 0.932 . S
C156 C157 1.386 . S
C156 C158 1.397 . S
C156 H180 0.931 . S
C157 C156 1.386 . S
C157 C161 1.397 . S
C158 C156 1.397 . S
C158 C159 1.384 . S
C158 H181 0.930 . S
C159 C158 1.384 . S
C159 C160 1.377 . S
C159 C162 1.481 . S
C160 C159 1.377 . S
C160 C161 1.389 . S
C160 H182 0.929 . S
C161 C157 1.397 . S
C161 C160 1.389 . S
C161 H183 0.931 . S
C162 C159 1.481 . S
C162 C163 1.387 . S
C162 C167 1.390 . S
C163 C162 1.387 . S
C163 C164 1.401 . S
C163 H184 0.930 . S
C164 C163 1.401 . S
C164 C165 1.376 . S
C164 C173 1.511 . S
C165 C164 1.376 . S
C165 C166 1.392 . S
C165 H186 0.931 . S
C166 C165 1.392 . S
C166 C167 1.361 . S
C166 C168 1.500 1_554 S
C167 C162 1.390 . S
C167 C166 1.361 . S
C167 H185 0.931 . S
C168 C166 1.500 1_556 S
C168 C169 1.371 . S
C168 C170 1.365 . S
C169 C168 1.371 . S
C169 C179 1.386 . S
C169 H187 0.931 . S
C170 C168 1.365 . S
C170 C171 1.409 . S
C170 H188 0.929 . S
C171 C170 1.409 . S
C171 C172 1.380 . S
C171 H189 0.930 . S
C172 C171 1.380 . S
C172 C179 1.357 . S
C173 C164 1.511 . S
C173 C174 1.341 . S
C173 C175 1.371 . S
C174 C173 1.341 . S
C174 C178 1.394 . S
C174 H190 0.930 . S
C175 C173 1.371 . S
C175 C176 1.392 . S
C175 H191 0.931 . S
C176 C175 1.392 . S
C176 C177 1.331 . S
C176 H194 0.932 . S
C177 C176 1.331 . S
C177 C178 1.336 . S
C178 C174 1.394 . S
C178 C177 1.336 . S
C178 H193 0.929 . S
C179 C169 1.386 . S
C179 C172 1.357 . S
C179 H192 0.928 . S
H180 C156 0.931 . S
H181 C158 0.930 . S
H182 C160 0.929 . S
H183 C161 0.931 . S
H184 C163 0.930 . S
H185 C167 0.931 . S
H186 C165 0.931 . S
H187 C169 0.931 . S
H188 C170 0.929 . S
H189 C171 0.930 . S
H190 C174 0.930 . S
H191 C175 0.931 . S
H192 C179 0.928 . S
H193 C178 0.929 . S
H194 C176 0.932 . S
C195 C196 1.386 . S
C195 C197 1.397 . S
C195 H219 0.931 . S
C196 C195 1.386 . S
C196 C200 1.397 . S
C197 C195 1.397 . S
C197 C198 1.384 . S
C197 H220 0.930 . S
C198 C197 1.384 . S
C198 C199 1.377 . S
C198 C201 1.481 . S
C199 C198 1.377 . S
C199 C200 1.389 . S
C199 H221 0.929 . S
C200 C196 1.397 . S
C200 C199 1.389 . S
C200 H222 0.931 . S
C201 C198 1.481 . S
C201 C202 1.387 . S
C201 C206 1.390 . S
C202 C201 1.387 . S
C202 C203 1.401 . S
C202 H223 0.930 . S
C203 C202 1.401 . S
C203 C204 1.376 . S
C203 C212 1.511 . S
C204 C203 1.376 . S
C204 C205 1.392 . S
C204 H225 0.931 . S
C205 C204 1.392 . S
C205 C206 1.361 . S
C205 C207 1.500 1_554 S
C206 C201 1.390 . S
C206 C205 1.361 . S
C206 H224 0.931 . S
C207 C205 1.500 1_556 S
C207 C208 1.371 . S
C207 C209 1.365 . S
C208 C207 1.371 . S
C208 C218 1.386 . S
C208 H226 0.931 . S
C209 C207 1.365 . S
C209 C210 1.409 . S
C209 H227 0.929 . S
C210 C209 1.409 . S
C210 C211 1.380 . S
C210 H228 0.930 . S
C211 C210 1.380 . S
C211 C218 1.357 . S
C212 C203 1.511 . S
C212 C213 1.341 . S
C212 C214 1.371 . S
C213 C212 1.341 . S
C213 C217 1.394 . S
C213 H229 0.930 . S
C214 C212 1.371 . S
C214 C215 1.392 . S
C214 H230 0.931 . S
C215 C214 1.392 . S
C215 C216 1.331 . S
C215 H233 0.932 . S
C216 C215 1.331 . S
C216 C217 1.336 . S
C217 C213 1.394 . S
C217 C216 1.336 . S
C217 H232 0.929 . S
C218 C208 1.386 . S
C218 C211 1.357 . S
C218 H231 0.928 . S
H219 C195 0.931 . S
H220 C197 0.930 . S
H221 C199 0.929 . S
H222 C200 0.931 . S
H223 C202 0.930 . S
H224 C206 0.931 . S
H225 C204 0.931 . S
H226 C208 0.931 . S
H227 C209 0.929 . S
H228 C210 0.930 . S
H229 C213 0.930 . S
H230 C214 0.931 . S
H231 C218 0.928 . S
H232 C217 0.929 . S
H233 C215 0.932 . S
C234 C235 1.387 . S
C234 C236 1.397 . S
C234 H258 0.931 . S
C235 C234 1.387 . S
C235 C239 1.396 1_565 S
C236 C234 1.397 . S
C236 C237 1.382 . S
C236 H259 0.930 . S
C237 C236 1.382 . S
C237 C238 1.379 1_565 S
C237 C240 1.483 . S
C238 C237 1.379 1_545 S
C238 C239 1.389 . S
C238 H260 0.929 . S
C239 C235 1.396 1_545 S
C239 C238 1.389 . S
C239 H261 0.931 . S
C240 C237 1.483 . S
C240 C241 1.386 . S
C240 C245 1.390 . S
C241 C240 1.386 . S
C241 C242 1.404 . S
C241 H262 0.930 . S
C242 C241 1.404 . S
C242 C243 1.376 . S
C242 C251 1.510 . S
C243 C242 1.376 . S
C243 C244 1.395 1_565 S
C243 H264 0.930 1_554 S
C244 C243 1.395 1_545 S
C244 C245 1.361 1_545 S
C244 C246 1.500 1_554 S
C245 C240 1.390 . S
C245 C244 1.361 1_565 S
C245 H263 0.932 . S
C246 C244 1.500 1_556 S
C246 C247 1.359 1_545 S
C246 C248 1.378 . S
C247 C246 1.359 1_565 S
C247 C257 1.386 . S
C247 H265 0.931 . S
C248 C246 1.378 . S
C248 C249 1.409 . S
C248 H266 0.929 . S
C249 C248 1.409 . S
C249 C250 1.384 . S
C249 H267 0.930 . S
C250 C249 1.384 . S
C250 C257 1.354 1_545 S
C251 C242 1.510 . S
C251 C252 1.341 . S
C251 C253 1.371 1_565 S
C252 C251 1.341 . S
C252 C256 1.394 . S
C252 H268 0.930 . S
C253 C251 1.371 1_545 S
C253 C254 1.392 . S
C253 H269 0.931 . S
C254 C253 1.392 . S
C254 C255 1.326 1_545 S
C254 H272 0.932 . S
C255 C254 1.326 1_565 S
C255 C256 1.343 . S
C256 C252 1.394 . S
C256 C255 1.343 . S
C256 H271 0.929 . S
C257 C247 1.386 . S
C257 C250 1.354 1_565 S
C257 H270 0.928 . S
H258 C234 0.931 . S
H259 C236 0.930 . S
H260 C238 0.929 . S
H261 C239 0.931 . S
H262 C241 0.930 . S
H263 C245 0.932 . S
H264 C243 0.930 1_556 S
H265 C247 0.931 . S
H266 C248 0.929 . S
H267 C249 0.930 . S
H268 C252 0.930 . S
H269 C253 0.931 . S
H270 C257 0.928 . S
H271 C256 0.929 . S
H272 C254 0.932 . S
C273 C274 1.386 . S
C273 C275 1.397 . S
C273 H297 0.931 . S
C274 C273 1.386 . S
C274 C278 1.397 . S
C275 C273 1.397 . S
C275 C276 1.384 . S
C275 H298 0.930 . S
C276 C275 1.384 . S
C276 C277 1.377 . S
C276 C279 1.481 . S
C277 C276 1.377 . S
C277 C278 1.389 . S
C277 H299 0.929 . S
C278 C274 1.397 . S
C278 C277 1.389 . S
C278 H300 0.931 . S
C279 C276 1.481 . S
C279 C280 1.387 1_556 S
C279 C284 1.390 1_556 S
C280 C279 1.387 1_554 S
C280 C281 1.401 . S
C280 H301 0.930 1_554 S
C281 C280 1.401 . S
C281 C282 1.376 . S
C281 C290 1.511 . S
C282 C281 1.376 . S
C282 C283 1.392 . S
C282 H303 0.931 . S
C283 C282 1.392 . S
C283 C284 1.361 . S
C283 C285 1.500 . S
C284 C279 1.390 1_554 S
C284 C283 1.361 . S
C284 H302 0.931 . S
C285 C283 1.500 . S
C285 C286 1.371 . S
C285 C287 1.365 . S
C286 C285 1.371 . S
C286 C296 1.386 . S
C286 H304 0.931 . S
C287 C285 1.365 . S
C287 C288 1.409 . S
C287 H305 0.929 . S
C288 C287 1.409 . S
C288 C289 1.380 . S
C288 H306 0.930 . S
C289 C288 1.380 . S
C289 C296 1.357 . S
C290 C281 1.511 . S
C290 C291 1.341 . S
C290 C292 1.371 . S
C291 C290 1.341 . S
C291 C295 1.394 . S
C291 H307 0.919 1_554 S
C292 C290 1.371 . S
C292 C293 1.392 . S
C292 H308 0.931 . S
C293 C292 1.392 . S
C293 C294 1.331 . S
C293 H311 0.932 . S
C294 C293 1.331 . S
C294 C295 1.336 . S
C295 C291 1.394 . S
C295 C294 1.336 . S
C295 H310 0.929 . S
C296 C286 1.386 . S
C296 C289 1.357 . S
C296 H309 0.928 . S
H297 C273 0.931 . S
H298 C275 0.930 . S
H299 C277 0.929 . S
H300 C278 0.931 . S
H301 C280 0.930 1_556 S
H302 C284 0.931 . S
H303 C282 0.931 . S
H304 C286 0.931 . S
H305 C287 0.929 . S
H306 C288 0.930 . S
H307 C291 0.919 1_556 S
H308 C292 0.931 . S
H309 C296 0.928 . S
H310 C295 0.929 . S
H311 C293 0.932 . S
Dy312 O316 2.398 . S
Dy312 O317 2.491 1_455 S
Dy312 O318 2.403 . S
Dy312 O319 2.664 1_565 S
Dy312 O323 2.326 . S
Dy312 O327 2.310 1_455 S
Dy312 O328 2.351 1_565 S
C313 O324 1.185 1_455 S
C313 O325 1.355 . S
C314 O316 1.185 . S
C314 O317 1.355 1_455 S
Dy315 O319 2.310 1_655 S
Dy315 O322 2.351 1_545 S
Dy315 O324 2.398 . S
Dy315 O325 2.491 1_655 S
Dy315 O326 2.403 . S
Dy315 O327 2.664 1_545 S
Dy315 O329 2.326 1_655 S
O316 Dy312 2.398 . S
O316 C314 1.185 . S
O317 Dy312 2.491 1_655 S
O317 C314 1.355 1_655 S
O318 Dy312 2.403 . S
O318 C320 1.254 . S
O319 Dy312 2.664 1_545 S
O319 Dy315 2.310 1_455 S
O319 C320 1.268 1_545 S
C320 O318 1.254 . S
C320 O319 1.268 1_565 S
C321 O326 1.254 . S
C321 O327 1.268 1_545 S
O322 Dy315 2.351 1_565 S
O322 C330 1.249 . S
O323 Dy312 2.326 . S
O323 C330 1.267 1_455 S
O324 C313 1.185 1_655 S
O324 Dy315 2.398 . S
O325 C313 1.355 . S
O325 Dy315 2.491 1_455 S
O326 Dy315 2.403 . S
O326 C321 1.254 . S
O327 Dy312 2.310 1_655 S
O327 Dy315 2.664 1_565 S
O327 C321 1.268 1_565 S
O328 Dy312 2.351 1_545 S
O328 C331 1.249 . S
O329 Dy315 2.326 1_455 S
O329 C331 1.267 . S
C330 O322 1.249 . S
C330 O323 1.267 1_655 S
C331 O328 1.249 . S
C331 O329 1.267 . S
Dy332 O336 2.398 . S
Dy332 O337 2.491 . S
Dy332 O338 2.403 . S
Dy332 O339 2.664 . S
Dy332 O343 2.326 1_565 S
Dy332 O347 2.310 1_565 S
Dy332 O348 2.351 . S
C333 O344 1.185 . S
C333 O345 1.355 . S
C334 O336 1.185 . S
C334 O337 1.355 . S
Dy335 O339 2.310 1_545 S
Dy335 O342 2.351 . S
Dy335 O344 2.398 . S
Dy335 O345 2.491 . S
Dy335 O346 2.403 . S
Dy335 O347 2.664 . S
Dy335 O349 2.326 1_545 S
O336 Dy332 2.398 . S
O336 C334 1.185 . S
O337 Dy332 2.491 . S
O337 C334 1.355 . S
O338 Dy332 2.403 . S
O338 C340 1.254 . S
O339 Dy332 2.664 . S
O339 Dy335 2.310 1_565 S
O339 C340 1.268 . S
C340 O338 1.254 . S
C340 O339 1.268 . S
C341 O346 1.254 . S
C341 O347 1.268 . S
O342 Dy335 2.351 . S
O342 C350 1.249 . S
O343 Dy332 2.326 1_545 S
O343 C350 1.267 . S
O344 C333 1.185 . S
O344 Dy335 2.398 . S
O345 C333 1.355 . S
O345 Dy335 2.491 . S
O346 Dy335 2.403 . S
O346 C341 1.254 . S
O347 Dy332 2.310 1_545 S
O347 Dy335 2.664 . S
O347 C341 1.268 . S
O348 Dy332 2.351 . S
O348 C351 1.249 . S
O349 Dy335 2.326 1_565 S
O349 C351 1.267 . S
C350 O342 1.249 . S
C350 O343 1.267 . S
C351 O348 1.249 . S
C351 O349 1.267 . S
Dy352 O356 2.398 . S
Dy352 O357 2.491 . S
Dy352 O358 2.403 . S
Dy352 O359 2.664 . S
Dy352 O363 2.326 . S
Dy352 O367 2.310 . S
Dy352 O368 2.351 . S
C353 O364 1.185 . S
C353 O365 1.355 . S
C354 O356 1.185 . S
C354 O357 1.355 . S
Dy355 O359 2.310 . S
Dy355 O362 2.351 . S
Dy355 O364 2.398 . S
Dy355 O365 2.491 . S
Dy355 O366 2.403 . S
Dy355 O367 2.664 . S
Dy355 O369 2.326 . S
O356 Dy352 2.398 . S
O356 C354 1.185 . S
O357 Dy352 2.491 . S
O357 C354 1.355 . S
O358 Dy352 2.403 . S
O358 C360 1.254 . S
O359 Dy352 2.664 . S
O359 Dy355 2.310 . S
O359 C360 1.268 . S
C360 O358 1.254 . S
C360 O359 1.268 . S
C361 O366 1.254 . S
C361 O367 1.268 . S
O362 Dy355 2.351 . S
O362 C370 1.249 . S
O363 Dy352 2.326 . S
O363 C370 1.267 . S
O364 C353 1.185 . S
O364 Dy355 2.398 . S
O365 C353 1.355 . S
O365 Dy355 2.491 . S
O366 Dy355 2.403 . S
O366 C361 1.254 . S
O367 Dy352 2.310 . S
O367 Dy355 2.664 . S
O367 C361 1.268 . S
O368 Dy352 2.351 . S
O368 C371 1.249 . S
O369 Dy355 2.326 . S
O369 C371 1.267 . S
C370 O362 1.249 . S
C370 O363 1.267 . S
C371 O368 1.249 . S
C371 O369 1.267 . S
Dy372 O376 2.398 . S
Dy372 O377 2.491 . S
Dy372 O378 2.403 1_655 S
Dy372 O379 2.664 1_655 S
Dy372 O383 2.326 . S
Dy372 O387 2.310 . S
Dy372 O388 2.351 1_655 S
C373 O384 1.185 . S
C373 O385 1.355 . S
C374 O376 1.185 . S
C374 O377 1.355 . S
Dy375 O379 2.310 . S
Dy375 O382 2.351 1_455 S
Dy375 O384 2.398 . S
Dy375 O385 2.491 . S
Dy375 O386 2.403 . S
Dy375 O387 2.664 1_455 S
Dy375 O389 2.326 . S
O376 Dy372 2.398 . S
O376 C374 1.185 . S
O377 Dy372 2.491 . S
O377 C374 1.355 . S
O378 Dy372 2.403 1_455 S
O378 C380 1.254 . S
O379 Dy372 2.664 1_455 S
O379 Dy375 2.310 . S
O379 C380 1.268 . S
C380 O378 1.254 . S
C380 O379 1.268 . S
C381 O386 1.254 1_655 S
C381 O387 1.268 . S
O382 Dy375 2.351 1_655 S
O382 C390 1.249 . S
O383 Dy372 2.326 . S
O383 C390 1.267 . S
O384 C373 1.185 . S
O384 Dy375 2.398 . S
O385 C373 1.355 . S
O385 Dy375 2.491 . S
O386 Dy375 2.403 . S
O386 C381 1.254 1_455 S
O387 Dy372 2.310 . S
O387 Dy375 2.664 1_655 S
O387 C381 1.268 . S
O388 Dy372 2.351 1_455 S
O388 C391 1.249 . S
O389 Dy375 2.326 . S
O389 C391 1.267 . S
C390 O382 1.249 . S
C390 O383 1.267 . S
C391 O388 1.249 . S
C391 O389 1.267 . S
H392 C398 0.930 . S
H393 C402 0.930 . S
H394 C407 0.929 . S
H395 C405 0.929 . S
H396 C400 0.929 . S
H397 C406 0.929 . S
C398 H392 0.930 . S
C398 C399 1.401 . S
C398 C406 1.378 . S
C399 C398 1.401 . S
C399 C407 1.397 1_565 S
C400 H396 0.929 . S
C400 C402 1.378 . S
C400 C404 1.350 1_545 S
C401 C404 1.463 . S
C401 C406 1.350 . S
C401 N409 1.427 1_565 S
C402 H393 0.930 . S
C402 C400 1.378 . S
C402 C403 1.367 1_545 S
C403 C402 1.367 1_565 S
C403 C405 1.433 . S
C404 C400 1.350 1_565 S
C404 C401 1.463 . S
C404 N408 1.427 . S
C405 H395 0.929 . S
C405 C403 1.433 . S
C405 N408 1.384 . S
C406 H397 0.929 . S
C406 C398 1.378 . S
C406 C401 1.350 . S
C407 H394 0.929 . S
C407 C399 1.397 1_545 S
C407 N409 1.384 . S
N408 C404 1.427 . S
N408 C405 1.384 . S
N409 C401 1.427 1_545 S
N409 C407 1.384 . S
H410 C416 0.930 . S
H411 C420 0.930 . S
H412 C425 0.929 . S
H413 C423 0.929 . S
H414 C418 0.929 . S
H415 C424 0.929 . S
C416 H410 0.930 . S
C416 C417 1.367 . S
C416 C424 1.378 . S
C417 C416 1.367 . S
C417 C425 1.433 . S
C418 H414 0.929 . S
C418 C420 1.378 . S
C418 C422 1.350 . S
C419 C422 1.463 . S
C419 C424 1.350 . S
C419 N427 1.427 . S
C420 H411 0.930 . S
C420 C418 1.378 . S
C420 C421 1.367 . S
C421 C420 1.367 . S
C421 C423 1.433 . S
C422 C418 1.350 . S
C422 C419 1.463 . S
C422 N426 1.427 . S
C423 H413 0.929 . S
C423 C421 1.433 . S
C423 N426 1.384 . S
C424 H415 0.929 . S
C424 C416 1.378 . S
C424 C419 1.350 . S
C425 H412 0.929 . S
C425 C417 1.433 . S
C425 N427 1.384 . S
N426 C422 1.427 . S
N426 C423 1.384 . S
N427 C419 1.427 . S
N427 C425 1.384 . S
H428 C434 0.930 . S
H429 C438 0.930 . S
H430 C443 0.929 . S
H431 C441 0.929 . S
H432 C436 0.929 . S
H433 C442 0.929 . S
C434 H428 0.930 . S
C434 C435 1.367 . S
C434 C442 1.378 . S
C435 C434 1.367 . S
C435 C443 1.433 . S
C436 H432 0.929 . S
C436 C438 1.378 . S
C436 C440 1.350 . S
C437 C440 1.463 . S
C437 C442 1.350 . S
C437 N445 1.427 . S
C438 H429 0.930 . S
C438 C436 1.378 . S
C438 C439 1.367 . S
C439 C438 1.367 . S
C439 C441 1.433 . S
C440 C436 1.350 . S
C440 C437 1.463 . S
C440 N444 1.427 . S
C441 H431 0.929 . S
C441 C439 1.433 . S
C441 N444 1.384 . S
C442 H433 0.929 . S
C442 C434 1.378 . S
C442 C437 1.350 . S
C443 H430 0.929 . S
C443 C435 1.433 . S
C443 N445 1.384 . S
N444 C440 1.427 . S
N444 C441 1.384 . S
N445 C437 1.427 . S
N445 C443 1.384 . S
H446 C452 0.930 . S
H447 C456 0.930 . S
H448 C461 0.929 . S
H449 C459 0.929 . S
H450 C454 0.929 . S
H451 C460 0.929 . S
C452 H446 0.930 . S
C452 C453 1.367 . S
C452 C460 1.378 . S
C453 C452 1.367 . S
C453 C461 1.433 . S
C454 H450 0.929 . S
C454 C456 1.378 . S
C454 C458 1.350 . S
C455 C458 1.463 . S
C455 C460 1.350 . S
C455 N463 1.427 . S
C456 H447 0.930 . S
C456 C454 1.378 . S
C456 C457 1.367 . S
C457 C456 1.367 . S
C457 C459 1.433 . S
C458 C454 1.350 . S
C458 C455 1.463 . S
C458 N462 1.427 . S
C459 H449 0.929 . S
C459 C457 1.433 . S
C459 N462 1.384 . S
C460 H451 0.929 . S
C460 C452 1.378 . S
C460 C455 1.350 . S
C461 H448 0.929 . S
C461 C453 1.433 . S
C461 N463 1.384 . S
N462 C458 1.427 . S
N462 C459 1.384 . S
N463 C455 1.427 . S
N463 C461 1.384 . S
H464 C470 0.930 . S
H465 C474 0.930 . S
H466 C479 0.929 . S
H467 C477 0.929 . S
H468 C472 0.929 . S
H469 C478 0.929 . S
C470 H464 0.930 . S
C470 C471 1.364 1_565 S
C470 C478 1.378 . S
C471 C470 1.364 1_545 S
C471 C479 1.436 . S
C472 H468 0.929 . S
C472 C474 1.378 . S
C472 C476 1.350 . S
C473 C476 1.463 . S
C473 C478 1.350 1_545 S
C473 N481 1.427 . S
C474 H465 0.930 . S
C474 C472 1.378 . S
C474 C475 1.367 . S
C475 C474 1.367 . S
C475 C477 1.433 1_545 S
C476 C472 1.350 . S
C476 C473 1.463 . S
C476 N480 1.427 1_545 S
C477 H467 0.929 . S
C477 C475 1.433 1_565 S
C477 N480 1.384 . S
C478 H469 0.929 . S
C478 C470 1.378 . S
C478 C473 1.350 1_565 S
C479 H466 0.929 . S
C479 C471 1.436 . S
C479 N481 1.384 . S
N480 C476 1.427 1_565 S
N480 C477 1.384 . S
N481 C473 1.427 . S
N481 C479 1.384 . S
H482 C488 0.930 . S
H483 C492 0.930 . S
H484 C497 0.929 . S
H485 C495 0.929 . S
H486 C490 0.929 . S
H487 C496 0.929 . S
C488 H482 0.930 . S
C488 C489 1.367 . S
C488 C496 1.378 . S
C489 C488 1.367 . S
C489 C497 1.433 . S
C490 H486 0.929 . S
C490 C492 1.378 . S
C490 C494 1.350 . S
C491 C494 1.463 . S
C491 C496 1.350 . S
C491 N499 1.427 . S
C492 H483 0.930 . S
C492 C490 1.378 . S
C492 C493 1.367 . S
C493 C492 1.367 . S
C493 C495 1.433 . S
C494 C490 1.350 . S
C494 C491 1.463 . S
C494 N498 1.427 . S
C495 H485 0.929 . S
C495 C493 1.433 . S
C495 N498 1.384 . S
C496 H487 0.929 . S
C496 C488 1.378 . S
C496 C491 1.350 . S
C497 H484 0.929 . S
C497 C489 1.433 . S
C497 N499 1.384 . S
N498 C494 1.427 . S
N498 C495 1.384 . S
N499 C491 1.427 . S
N499 C497 1.384 . S
H500 C506 0.930 . S
H501 C510 0.930 . S
H502 C515 0.929 . S
H503 C513 0.929 . S
H504 C508 0.929 . S
H505 C514 0.929 . S
C506 H500 0.930 . S
C506 C507 1.367 . S
C506 C514 1.378 . S
C507 C506 1.367 . S
C507 C515 1.433 . S
C508 H504 0.929 . S
C508 C510 1.378 . S
C508 C512 1.350 . S
C509 C512 1.463 . S
C509 C514 1.350 . S
C509 N517 1.427 . S
C510 H501 0.930 . S
C510 C508 1.378 . S
C510 C511 1.367 . S
C511 C510 1.367 . S
C511 C513 1.433 . S
C512 C508 1.350 . S
C512 C509 1.463 . S
C512 N516 1.427 . S
C513 H503 0.929 . S
C513 C511 1.433 . S
C513 N516 1.384 . S
C514 H505 0.929 . S
C514 C506 1.378 . S
C514 C509 1.350 . S
C515 H502 0.929 . S
C515 C507 1.433 . S
C515 N517 1.384 . S
N516 C512 1.427 . S
N516 C513 1.384 . S
N517 C509 1.427 . S
N517 C515 1.384 . S
H518 C524 0.930 . S
H519 C528 0.930 . S
H520 C533 0.929 . S
H521 C531 0.929 . S
H522 C526 0.929 . S
H523 C532 0.929 . S
C524 H518 0.930 . S
C524 C525 1.367 . S
C524 C532 1.378 . S
C525 C524 1.367 . S
C525 C533 1.433 . S
C526 H522 0.929 . S
C526 C528 1.378 . S
C526 C530 1.350 . S
C527 C530 1.463 . S
C527 C532 1.350 . S
C527 N535 1.427 . S
C528 H519 0.930 . S
C528 C526 1.378 . S
C528 C529 1.367 . S
C529 C528 1.367 . S
C529 C531 1.433 . S
C530 C526 1.350 . S
C530 C527 1.463 . S
C530 N534 1.427 . S
C531 H521 0.929 . S
C531 C529 1.433 . S
C531 N534 1.384 . S
C532 H523 0.929 . S
C532 C524 1.378 . S
C532 C527 1.350 . S
C533 H520 0.929 . S
C533 C525 1.433 . S
C533 N535 1.384 . S
N534 C530 1.427 . S
N534 C531 1.384 . S
N535 C527 1.427 . S
N535 C533 1.384 . S
H536 C542 0.930 . S
H537 C546 0.923 1_655 S
H538 C551 0.929 . S
H539 C549 0.929 . S
H540 C544 0.929 . S
H541 C550 0.929 . S
C542 H536 0.930 . S
C542 C543 1.367 . S
C542 C550 1.378 . S
C543 C542 1.367 . S
C543 C551 1.433 . S
C544 H540 0.929 . S
C544 C546 1.378 . S
C544 C548 1.350 . S
C545 C548 1.463 . S
C545 C550 1.350 . S
C545 N553 1.427 . S
C546 H537 0.923 1_455 S
C546 C544 1.378 . S
C546 C547 1.367 . S
C547 C546 1.367 . S
C547 C549 1.433 . S
C548 C544 1.350 . S
C548 C545 1.463 . S
C548 N552 1.427 . S
C549 H539 0.929 . S
C549 C547 1.433 . S
C549 N552 1.384 . S
C550 H541 0.929 . S
C550 C542 1.378 . S
C550 C545 1.350 . S
C551 H538 0.929 . S
C551 C543 1.433 . S
C551 N553 1.384 . S
N552 C548 1.427 . S
N552 C549 1.384 . S
N553 C545 1.427 . S
N553 C551 1.384 . S
H554 C560 0.930 . S
H555 C564 0.930 . S
H556 C569 0.929 . S
H557 C567 0.929 . S
H558 C562 0.929 . S
H559 C568 0.929 . S
C560 H554 0.930 . S
C560 C561 1.367 . S
C560 C568 1.370 1_545 S
C561 C560 1.367 . S
C561 C569 1.433 1_545 S
C562 H558 0.929 . S
C562 C564 1.378 . S
C562 C566 1.350 . S
C563 C566 1.463 . S
C563 C568 1.357 . S
C563 N571 1.427 . S
C564 H555 0.930 . S
C564 C562 1.378 . S
C564 C565 1.367 . S
C565 C564 1.367 . S
C565 C567 1.433 . S
C566 C562 1.350 . S
C566 C563 1.463 . S
C566 N570 1.427 . S
C567 H557 0.929 . S
C567 C565 1.433 . S
C567 N570 1.384 . S
C568 H559 0.929 . S
C568 C560 1.370 1_565 S
C568 C563 1.357 . S
C569 H556 0.929 . S
C569 C561 1.433 1_565 S
C569 N571 1.384 . S
N570 C566 1.427 . S
N570 C567 1.384 . S
N571 C563 1.427 . S
N571 C569 1.384 . S
H572 C578 0.930 . S
H573 C582 0.930 . S
H574 C587 0.929 . S
H575 C585 0.929 . S
H576 C580 0.929 . S
H577 C586 0.929 . S
C578 H572 0.930 . S
C578 C579 1.367 . S
C578 C586 1.378 . S
C579 C578 1.367 . S
C579 C587 1.433 . S
C580 H576 0.929 . S
C580 C582 1.378 . S
C580 C584 1.350 . S
C581 C584 1.463 . S
C581 C586 1.350 . S
C581 N589 1.427 . S
C582 H573 0.930 . S
C582 C580 1.378 . S
C582 C583 1.367 . S
C583 C582 1.367 . S
C583 C585 1.433 . S
C584 C580 1.350 . S
C584 C581 1.463 . S
C584 N588 1.427 . S
C585 H575 0.929 . S
C585 C583 1.433 . S
C585 N588 1.384 . S
C586 H577 0.929 . S
C586 C578 1.378 . S
C586 C581 1.350 . S
C587 H574 0.929 . S
C587 C579 1.433 . S
C587 N589 1.384 . S
N588 C584 1.427 . S
N588 C585 1.384 . S
N589 C581 1.427 . S
N589 C587 1.384 . S
H590 C596 0.930 . S
H591 C600 0.930 . S
H592 C605 0.929 . S
H593 C603 0.929 . S
H594 C598 0.929 . S
H595 C604 0.929 . S
C596 H590 0.930 . S
C596 C597 1.367 . S
C596 C604 1.378 . S
C597 C596 1.367 . S
C597 C605 1.433 . S
C598 H594 0.929 . S
C598 C600 1.378 . S
C598 C602 1.350 . S
C599 C602 1.463 . S
C599 C604 1.350 . S
C599 N607 1.427 . S
C600 H591 0.930 . S
C600 C598 1.378 . S
C600 C601 1.367 . S
C601 C600 1.367 . S
C601 C603 1.433 . S
C602 C598 1.350 . S
C602 C599 1.463 . S
C602 N606 1.427 . S
C603 H593 0.929 . S
C603 C601 1.433 . S
C603 N606 1.384 . S
C604 H595 0.929 . S
C604 C596 1.378 . S
C604 C599 1.350 . S
C605 H592 0.929 . S
C605 C597 1.433 . S
C605 N607 1.384 . S
N606 C602 1.427 . S
N606 C603 1.384 . S
N607 C599 1.427 . S
N607 C605 1.384 . S
H608 C614 0.930 . S
H609 C618 0.930 . S
H610 C623 0.929 . S
H611 C621 0.927 1_455 S
H612 C616 0.929 . S
H613 C622 0.929 . S
C614 H608 0.930 . S
C614 C615 1.367 . S
C614 C622 1.378 . S
C615 C614 1.367 . S
C615 C623 1.433 . S
C616 H612 0.929 . S
C616 C618 1.378 . S
C616 C620 1.350 . S
C617 C620 1.463 . S
C617 C622 1.350 . S
C617 N625 1.427 . S
C618 H609 0.930 . S
C618 C616 1.378 . S
C618 C619 1.371 . S
C619 C618 1.371 . S
C619 C621 1.436 . S
C620 C616 1.350 . S
C620 C617 1.463 . S
C620 N624 1.427 . S
C621 H611 0.927 1_655 S
C621 C619 1.436 . S
C621 N624 1.384 . S
C622 H613 0.929 . S
C622 C614 1.378 . S
C622 C617 1.350 . S
C623 H610 0.929 . S
C623 C615 1.433 . S
C623 N625 1.384 . S
N624 C620 1.427 . S
N624 C621 1.384 . S
N625 C617 1.427 . S
N625 C623 1.384 . S
H626 C632 0.930 . S
H627 C636 0.930 . S
H628 C641 0.929 . S
H629 C639 0.929 . S
H630 C634 0.929 . S
H631 C640 0.929 . S
C632 H626 0.930 . S
C632 C633 1.342 1_545 S
C632 C640 1.378 . S
C633 C632 1.342 1_565 S
C633 C641 1.453 . S
C634 H630 0.929 . S
C634 C636 1.378 . S
C634 C638 1.350 1_565 S
C635 C638 1.463 . S
C635 C640 1.350 . S
C635 N643 1.427 1_545 S
C636 H627 0.930 . S
C636 C634 1.378 . S
C636 C637 1.367 1_565 S
C637 C636 1.367 1_545 S
C637 C639 1.433 . S
C638 C634 1.350 1_545 S
C638 C635 1.463 . S
C638 N642 1.427 . S
C639 H629 0.929 . S
C639 C637 1.433 . S
C639 N642 1.384 . S
C640 H631 0.929 . S
C640 C632 1.378 . S
C640 C635 1.350 . S
C641 H628 0.929 . S
C641 C633 1.453 . S
C641 N643 1.384 . S
N642 C638 1.427 . S
N642 C639 1.384 . S
N643 C635 1.427 1_565 S
N643 C641 1.384 . S
H644 C650 0.930 . S
H645 C654 0.930 . S
H646 C659 0.929 . S
H647 C657 0.929 . S
H648 C652 0.929 . S
H649 C658 0.929 . S
C650 H644 0.930 . S
C650 C651 1.367 . S
C650 C658 1.378 . S
C651 C650 1.367 . S
C651 C659 1.433 . S
C652 H648 0.929 . S
C652 C654 1.378 . S
C652 C656 1.350 . S
C653 C656 1.463 . S
C653 C658 1.350 . S
C653 N661 1.427 . S
C654 H645 0.930 . S
C654 C652 1.378 . S
C654 C655 1.367 . S
C655 C654 1.367 . S
C655 C657 1.433 . S
C656 C652 1.350 . S
C656 C653 1.463 . S
C656 N660 1.427 . S
C657 H647 0.929 . S
C657 C655 1.433 . S
C657 N660 1.384 . S
C658 H649 0.929 . S
C658 C650 1.378 . S
C658 C653 1.350 . S
C659 H646 0.929 . S
C659 C651 1.433 . S
C659 N661 1.384 . S
N660 C656 1.427 . S
N660 C657 1.384 . S
N661 C653 1.427 . S
N661 C659 1.384 . S
H662 C668 0.930 . S
H663 C672 0.930 . S
H664 C677 0.929 . S
H665 C675 0.929 . S
H666 C670 0.929 . S
H667 C676 0.929 . S
C668 H662 0.930 . S
C668 C669 1.367 . S
C668 C676 1.378 . S
C669 C668 1.367 . S
C669 C677 1.433 . S
C670 H666 0.929 . S
C670 C672 1.378 . S
C670 C674 1.350 . S
C671 C674 1.463 . S
C671 C676 1.350 . S
C671 N679 1.427 . S
C672 H663 0.930 . S
C672 C670 1.378 . S
C672 C673 1.367 . S
C673 C672 1.367 . S
C673 C675 1.433 . S
C674 C670 1.350 . S
C674 C671 1.463 . S
C674 N678 1.427 . S
C675 H665 0.929 . S
C675 C673 1.433 . S
C675 N678 1.384 . S
C676 H667 0.929 . S
C676 C668 1.378 . S
C676 C671 1.350 . S
C677 H664 0.929 . S
C677 C669 1.433 . S
C677 N679 1.384 . S
N678 C674 1.427 . S
N678 C675 1.384 . S
N679 C671 1.427 . S
N679 C677 1.384 . S
H680 C686 0.930 . S
H681 C690 0.930 . S
H682 C695 0.929 . S
H683 C693 0.929 . S
H684 C688 0.929 . S
H685 C694 0.929 . S
C686 H680 0.930 . S
C686 C687 1.367 . S
C686 C694 1.378 . S
C687 C686 1.367 . S
C687 C695 1.433 . S
C688 H684 0.929 . S
C688 C690 1.378 . S
C688 C692 1.350 . S
C689 C692 1.463 . S
C689 C694 1.350 . S
C689 N697 1.427 . S
C690 H681 0.930 . S
C690 C688 1.378 . S
C690 C691 1.367 . S
C691 C690 1.367 . S
C691 C693 1.433 . S
C692 C688 1.350 . S
C692 C689 1.463 . S
C692 N696 1.427 . S
C693 H683 0.929 . S
C693 C691 1.433 . S
C693 N696 1.384 . S
C694 H685 0.929 . S
C694 C686 1.378 . S
C694 C689 1.350 . S
C695 H682 0.929 . S
C695 C687 1.433 . S
C695 N697 1.384 . S
N696 C692 1.427 . S
N696 C693 1.384 . S
N697 C689 1.427 . S
N697 C695 1.384 . S
H698 C704 0.930 . S
H699 C708 0.930 . S
H700 C713 0.929 . S
H701 C711 0.929 . S
H702 C706 0.929 . S
H703 C712 0.929 . S
C704 H698 0.930 . S
C704 C705 1.367 . S
C704 C712 1.378 . S
C705 C704 1.367 . S
C705 C713 1.433 1_545 S
C706 H702 0.929 . S
C706 C708 1.378 . S
C706 C710 1.350 1_565 S
C707 C710 1.463 . S
C707 C712 1.350 . S
C707 N715 1.427 1_545 S
C708 H699 0.930 . S
C708 C706 1.378 . S
C708 C709 1.367 1_565 S
C709 C708 1.367 1_545 S
C709 C711 1.433 . S
C710 C706 1.350 1_545 S
C710 C707 1.463 . S
C710 N714 1.427 . S
C711 H701 0.929 . S
C711 C709 1.433 . S
C711 N714 1.384 . S
C712 H703 0.929 . S
C712 C704 1.378 . S
C712 C707 1.350 . S
C713 H700 0.929 . S
C713 C705 1.433 1_565 S
C713 N715 1.384 . S
N714 C710 1.427 . S
N714 C711 1.384 . S
N715 C707 1.427 1_565 S
N715 C713 1.384 . S
H716 C722 0.930 . S
H717 C726 0.930 . S
H718 C731 0.929 . S
H719 C729 0.929 . S
H720 C724 0.929 . S
H721 C730 0.929 . S
C722 H716 0.930 . S
C722 C723 1.367 . S
C722 C730 1.378 . S
C723 C722 1.367 . S
C723 C731 1.433 . S
C724 H720 0.929 . S
C724 C726 1.378 . S
C724 C728 1.350 . S
C725 C728 1.463 . S
C725 C730 1.350 . S
C725 N733 1.427 . S
C726 H717 0.930 . S
C726 C724 1.378 . S
C726 C727 1.367 . S
C727 C726 1.367 . S
C727 C729 1.433 . S
C728 C724 1.350 . S
C728 C725 1.463 . S
C728 N732 1.427 . S
C729 H719 0.929 . S
C729 C727 1.433 . S
C729 N732 1.384 . S
C730 H721 0.929 . S
C730 C722 1.378 . S
C730 C725 1.350 . S
C731 H718 0.929 . S
C731 C723 1.433 . S
C731 N733 1.384 . S
N732 C728 1.427 . S
N732 C729 1.384 . S
N733 C725 1.427 . S
N733 C731 1.384 . S
H734 C740 0.930 . S
H735 C744 0.930 . S
H736 C749 0.929 . S
H737 C747 0.929 . S
H738 C742 0.929 . S
H739 C748 0.929 . S
C740 H734 0.930 . S
C740 C741 1.367 . S
C740 C748 1.378 . S
C741 C740 1.367 . S
C741 C749 1.433 . S
C742 H738 0.929 . S
C742 C744 1.378 . S
C742 C746 1.350 . S
C743 C746 1.463 . S
C743 C748 1.350 . S
C743 N751 1.427 . S
C744 H735 0.930 . S
C744 C742 1.378 . S
C744 C745 1.367 . S
C745 C744 1.367 . S
C745 C747 1.433 . S
C746 C742 1.350 . S
C746 C743 1.463 . S
C746 N750 1.427 . S
C747 H737 0.929 . S
C747 C745 1.433 . S
C747 N750 1.384 . S
C748 H739 0.929 . S
C748 C740 1.378 . S
C748 C743 1.350 . S
C749 H736 0.929 . S
C749 C741 1.433 . S
C749 N751 1.384 . S
N750 C746 1.427 . S
N750 C747 1.384 . S
N751 C743 1.427 . S
N751 C749 1.384 . S
H752 C758 0.930 . S
H753 C762 0.930 . S
H754 C767 0.929 . S
H755 C765 0.929 1_455 S
H756 C760 0.929 . S
H757 C766 0.929 . S
C758 H752 0.930 . S
C758 C759 1.367 . S
C758 C766 1.378 . S
C759 C758 1.367 . S
C759 C767 1.433 . S
C760 H756 0.929 . S
C760 C762 1.378 . S
C760 C764 1.350 . S
C761 C764 1.463 . S
C761 C766 1.350 . S
C761 N769 1.427 . S
C762 H753 0.930 . S
C762 C760 1.378 . S
C762 C763 1.367 . S
C763 C762 1.367 . S
C763 C765 1.433 . S
C764 C760 1.350 . S
C764 C761 1.463 . S
C764 N768 1.427 . S
C765 H755 0.929 1_655 S
C765 C763 1.433 . S
C765 N768 1.384 . S
C766 H757 0.929 . S
C766 C758 1.378 . S
C766 C761 1.350 . S
C767 H754 0.929 . S
C767 C759 1.433 . S
C767 N769 1.384 . S
N768 C764 1.427 . S
N768 C765 1.384 . S
N769 C761 1.427 . S
N769 C767 1.384 . S
H770 C776 0.930 . S
H771 C780 0.930 . S
H772 C785 0.929 . S
H773 C783 0.929 . S
H774 C778 0.929 . S
H775 C784 0.929 . S
C776 H770 0.930 . S
C776 C777 1.367 . S
C776 C784 1.378 . S
C777 C776 1.367 . S
C777 C785 1.433 1_565 S
C778 H774 0.929 . S
C778 C780 1.378 . S
C778 C782 1.350 1_545 S
C779 C782 1.463 . S
C779 C784 1.350 . S
C779 N787 1.427 1_565 S
C780 H771 0.930 . S
C780 C778 1.378 . S
C780 C781 1.367 1_545 S
C781 C780 1.367 1_565 S
C781 C783 1.433 . S
C782 C778 1.350 1_565 S
C782 C779 1.463 . S
C782 N786 1.427 . S
C783 H773 0.929 . S
C783 C781 1.433 . S
C783 N786 1.384 . S
C784 H775 0.929 . S
C784 C776 1.378 . S
C784 C779 1.350 . S
C785 H772 0.929 . S
C785 C777 1.433 1_545 S
C785 N787 1.384 . S
N786 C782 1.427 . S
N786 C783 1.384 . S
N787 C779 1.427 1_545 S
N787 C785 1.384 . S
H788 C794 0.930 . S
H789 C798 0.930 . S
H790 C803 0.929 . S
H791 C801 0.929 . S
H792 C796 0.929 . S
H793 C802 0.929 . S
C794 H788 0.930 . S
C794 C795 1.367 . S
C794 C802 1.378 . S
C795 C794 1.367 . S
C795 C803 1.433 . S
C796 H792 0.929 . S
C796 C798 1.378 . S
C796 C800 1.350 . S
C797 C800 1.463 . S
C797 C802 1.350 . S
C797 N805 1.427 . S
C798 H789 0.930 . S
C798 C796 1.378 . S
C798 C799 1.367 . S
C799 C798 1.367 . S
C799 C801 1.433 . S
C800 C796 1.350 . S
C800 C797 1.463 . S
C800 N804 1.427 . S
C801 H791 0.929 . S
C801 C799 1.433 . S
C801 N804 1.384 . S
C802 H793 0.929 . S
C802 C794 1.378 . S
C802 C797 1.350 . S
C803 H790 0.929 . S
C803 C795 1.433 . S
C803 N805 1.384 . S
N804 C800 1.427 . S
N804 C801 1.384 . S
N805 C797 1.427 . S
N805 C803 1.384 . S
H806 C812 0.930 . S
H807 C816 0.930 . S
H808 C821 0.929 . S
H809 C819 0.929 . S
H810 C814 0.929 . S
H811 C820 0.929 . S
C812 H806 0.930 . S
C812 C813 1.367 . S
C812 C820 1.378 . S
C813 C812 1.367 . S
C813 C821 1.433 . S
C814 H810 0.929 . S
C814 C816 1.378 . S
C814 C818 1.350 . S
C815 C818 1.463 . S
C815 C820 1.350 . S
C815 N823 1.427 . S
C816 H807 0.930 . S
C816 C814 1.378 . S
C816 C817 1.367 . S
C817 C816 1.367 . S
C817 C819 1.433 . S
C818 C814 1.350 . S
C818 C815 1.463 . S
C818 N822 1.427 . S
C819 H809 0.929 . S
C819 C817 1.433 . S
C819 N822 1.384 . S
C820 H811 0.929 . S
C820 C812 1.378 . S
C820 C815 1.350 . S
C821 H808 0.929 . S
C821 C813 1.433 . S
C821 N823 1.384 . S
N822 C818 1.427 . S
N822 C819 1.384 . S
N823 C815 1.427 . S
N823 C821 1.384 . S
C399 C255 1.717 . S
C403 C320 1.796 . S
C421 C350 2.412 . S
C417 C294 2.290 . S
C439 C360 1.876 . S
C435 C177 1.802 . S
C457 C380 1.781 . S
C453 C216 1.647 . S
C475 C321 1.792 . S
C471 C99 1.717 1_545 S
C489 C138 2.275 1_556 S
C493 C351 2.420 . S
C507 C21 1.801 . S
C511 C361 1.884 . S
C525 C60 1.661 . S
C529 C381 1.781 . S
C547 C313 0.806 . S
C543 C196 0.808 . S
C565 C334 0.340 . S
C561 C235 0.413 1_545 S
C583 C353 1.099 . S
C579 C289 1.038 . S
C597 C157 0.579 . S
C601 C373 0.552 . S
C615 C40 0.786 . S
C619 C314 0.813 1_655 S
C637 C333 0.331 . S
C633 C79 0.389 . S
C655 C354 1.087 . S
C651 C133 1.037 . S
C669 C1 0.561 . S
C673 C374 0.554 . S
C687 C211 2.276 . S
C691 C331 2.484 . S
C705 C250 1.785 . S
C709 C341 2.018 . S
C727 C371 2.697 . S
C723 C274 2.444 . S
C745 C391 2.554 . S
C741 C172 2.346 . S
C759 C55 2.268 . S
C763 C330 2.495 . S
C781 C340 2.019 . S
C777 C94 1.789 1_565 S
C799 C370 2.691 . S
C795 C118 2.429 . S
C813 C16 2.340 . S
C817 C390 2.556 . S
