# Generated by pormake.
# Topology anh, (6,3)-cn, num edge types: 1
# Building blocks:
#     Node 0, Type 0, BuildingBlock: BETGAK_clean_sbu_0, # of connection points: 6
#     Node 1, Type 0, BuildingBlock: BETGAK_clean_sbu_0, # of connection points: 6
#     Node 2, Type 0, BuildingBlock: BETGAK_clean_sbu_0, # of connection points: 6
#     Node 3, Type 1, BuildingBlock: QEWDON_clean_linker_0, # of connection points: 3
#     Node 4, Type 1, BuildingBlock: QEWDON_clean_linker_0, # of connection points: 3
#     Node 5, Type 1, BuildingBlock: QEWDON_clean_linker_0, # of connection points: 3
#     Node 6, Type 1, BuildingBlock: QEWDON_clean_linker_0, # of connection points: 3
#     Node 7, Type 1, BuildingBlock: QEWDON_clean_linker_0, # of connection points: 3
#     Node 8, Type 1, BuildingBlock: QEWDON_clean_linker_0, # of connection points: 3
#     Edge 9, Type (0, 1), BuildingBlock: AJUNOK_clean_linker_0, # of connection points: 2
#     Edge 10, Type (0, 1), BuildingBlock: AJUNOK_clean_linker_0, # of connection points: 2
#     Edge 11, Type (0, 1), BuildingBlock: AJUNOK_clean_linker_0, # of connection points: 2
#     Edge 12, Type (0, 1), BuildingBlock: AJUNOK_clean_linker_0, # of connection points: 2
#     Edge 13, Type (0, 1), BuildingBlock: AJUNOK_clean_linker_0, # of connection points: 2
#     Edge 14, Type (0, 1), BuildingBlock: AJUNOK_clean_linker_0, # of connection points: 2
#     Edge 15, Type (0, 1), BuildingBlock: AJUNOK_clean_linker_0, # of connection points: 2
#     Edge 16, Type (0, 1), BuildingBlock: AJUNOK_clean_linker_0, # of connection points: 2
#     Edge 17, Type (0, 1), BuildingBlock: AJUNOK_clean_linker_0, # of connection points: 2
#     Edge 18, Type (0, 1), BuildingBlock: AJUNOK_clean_linker_0, # of connection points: 2
#     Edge 19, Type (0, 1), BuildingBlock: AJUNOK_clean_linker_0, # of connection points: 2
#     Edge 20, Type (0, 1), BuildingBlock: AJUNOK_clean_linker_0, # of connection points: 2
#     Edge 21, Type (0, 1), BuildingBlock: AJUNOK_clean_linker_0, # of connection points: 2
#     Edge 22, Type (0, 1), BuildingBlock: AJUNOK_clean_linker_0, # of connection points: 2
#     Edge 23, Type (0, 1), BuildingBlock: AJUNOK_clean_linker_0, # of connection points: 2
#     Edge 24, Type (0, 1), BuildingBlock: AJUNOK_clean_linker_0, # of connection points: 2
#     Edge 25, Type (0, 1), BuildingBlock: AJUNOK_clean_linker_0, # of connection points: 2
#     Edge 26, Type (0, 1), BuildingBlock: AJUNOK_clean_linker_0, # of connection points: 2
# Relax obj value: 0.191
# Max RMSD: 0.198
# Mean RMSD: 0.129
data_MOF--net-anh--node1-BETGAK_clean_sbu_0--node2-QEWDON_clean_linker_0--edge1-AJUNOK_clean_linker_0
_symmetry_space_group_name_H-M    P1
_symmetry_Int_Tables_number       1
_symmetry_cell_setting            triclinic
loop_
_symmetry_equiv_pos_as_xyz
'x, y, z'
_cell_length_a     23.262329
_cell_length_b     31.065273
_cell_length_c     35.468597
_cell_angle_alpha  96.118976
_cell_angle_beta   88.289873
_cell_angle_gamma 133.21727
loop_
_atom_site_label
_atom_site_type_symbol
_atom_site_fract_x
_atom_site_fract_y
_atom_site_fract_z
_atom_type_partial_charge
La0 La 0.27351 0.58512 0.15075 0.0
La1 La 1.15727 0.59402 0.1754 0.0
C2 C 0.38572 0.60015 0.12231 0.0
C3 C 0.46918 0.64318 0.13544 0.0
C4 C 0.49227 0.67297 0.17246 0.0
C5 C 0.57093 0.71149 0.1861 0.0
C6 C 0.6276 0.72042 0.16304 0.0
C7 C 0.60453 0.69217 0.1254 0.0
C8 C 0.52584 0.65388 0.1117 0.0
C9 C 0.24913 0.58253 0.22439 0.0
C10 C 0.33507 0.7144 0.1723 0.0
C11 C 1.06742 0.59571 0.21468 0.0
C12 C 0.98135 0.54916 0.21709 0.0
C13 C 0.94166 0.48863 0.21085 0.0
C14 C 0.85974 0.44485 0.20388 0.0
C15 C 0.81674 0.46121 0.20252 0.0
C16 C 0.85566 0.52103 0.21406 0.0
C17 C 0.93748 0.56473 0.22089 0.0
C18 C 1.1496 0.56654 0.1009 0.0
C19 C 1.10073 0.46887 0.15478 0.0
O20 O 0.33763 0.56022 0.14512 0.0
O21 O 0.35984 0.62288 0.11039 0.0
O22 O 0.26424 0.55341 0.2058 0.0
O23 O 0.25307 0.61286 0.20216 0.0
O24 O 0.35285 0.68186 0.16531 0.0
O25 O 0.26105 0.6896 0.17583 0.0
O26 O 1.09166 0.61787 0.18207 0.0
O27 O 1.10656 0.58343 0.22737 0.0
O28 O 1.08955 0.54828 0.12023 0.0
O29 O 0.21038 0.60123 0.12315 0.0
O30 O 1.09644 0.50157 0.17927 0.0
O31 O 1.16203 0.49432 0.13349 0.0
H32 H 0.44894 0.66513 0.19116 0.0
H33 H 0.58687 0.73276 0.21505 0.0
H34 H 0.64655 0.6973 0.10708 0.0
H35 H 0.50889 0.63132 0.08303 0.0
H36 H 0.9742 0.47532 0.20857 0.0
H37 H 0.8314 0.39919 0.19568 0.0
H38 H 0.82452 0.53543 0.21363 0.0
H39 H 0.96687 0.61103 0.22618 0.0
La40 La 0.79804 0.10309 0.48582 0.0
La41 La 0.68096 0.11121 0.47186 0.0
C42 C 0.86709 0.07458 0.51091 0.0
C43 C 0.84342 1.01698 0.51105 0.0
C44 C 0.7839 0.96835 0.48499 0.0
C45 C 0.75835 0.91281 0.48631 0.0
C46 C 0.79204 0.90484 0.51361 0.0
C47 C 0.85238 0.95381 0.53943 0.0
C48 C 0.87766 1.00949 0.53822 0.0
C49 C 0.78277 0.11444 0.4149 0.0
C50 C 0.6157 0.98458 0.46613 0.0
C51 C 0.60624 0.13776 0.45219 0.0
C52 C 0.61756 0.19065 0.46133 0.0
C53 C 0.5555 0.18358 0.47643 0.0
C54 C 0.5667 0.23317 0.48882 0.0
C55 C 0.64002 0.29092 0.48589 0.0
C56 C 0.70196 0.29801 0.47028 0.0
C57 C 0.69088 0.24831 0.45808 0.0
C58 C 0.69523 0.09892 0.54227 0.0
C59 C 0.86498 0.23007 0.48828 0.0
O60 O 0.87775 0.09263 0.47754 0.0
O61 O 0.82608 0.08157 0.53174 0.0
O62 O 0.84789 0.1349 0.43091 0.0
O63 O 0.72823 0.08354 0.43697 0.0
O64 O 0.68351 1.00994 0.48384 0.0
O65 O 0.60639 1.01744 0.45227 0.0
O66 O 0.58839 0.10785 0.4807 0.0
O67 O 0.65846 0.14373 0.4316 0.0
O68 O 0.62929 0.07432 0.52496 0.0
O69 O 0.75091 0.1315 0.52095 0.0
O70 O 0.79456 0.20441 0.47379 0.0
O71 O 0.87808 0.19852 0.50034 0.0
H72 H 0.7566 0.97314 0.46378 0.0
H73 H 0.71131 0.87579 0.46626 0.0
H74 H 0.88025 0.94914 0.56036 0.0
H75 H 0.92361 0.04659 0.55858 0.0
H76 H 0.49883 0.1396 0.47963 0.0
H77 H 0.51849 0.22629 0.50167 0.0
H78 H 0.75908 0.342 0.46772 0.0
H79 H 0.74002 0.25513 0.44677 0.0
La80 La 0.78457 0.63738 0.83501 0.0
La81 La 0.66614 0.50777 0.84276 0.0
C82 C 0.85368 0.73549 0.81127 0.0
C83 C 0.82941 0.76706 0.80299 0.0
C84 C 0.84112 0.80836 0.83104 0.0
C85 C 0.81397 0.83553 0.82444 0.0
C86 C 0.77499 0.82242 0.78956 0.0
C87 C 0.76612 0.78304 0.76088 0.0
C88 C 0.79298 0.75556 0.76753 0.0
C89 C 0.77254 0.6117 0.90419 0.0
C90 C 0.6009 0.56855 0.84635 0.0
C91 C 0.59509 0.40577 0.8602 0.0
C92 C 0.60756 0.36507 0.8521 0.0
C93 C 0.54658 0.30806 0.83306 0.0
C94 C 0.55882 0.27049 0.82185 0.0
C95 C 0.63206 0.28877 0.82997 0.0
C96 C 0.6928 0.34554 0.84963 0.0
C97 C 0.6808 0.38343 0.86055 0.0
C98 C 0.68009 0.535 0.77339 0.0
C99 C 0.85229 0.57899 0.83969 0.0
O100 O 0.85579 0.72935 0.84701 0.0
O101 O 0.82258 0.68685 0.78884 0.0
O102 O 0.83801 0.65727 0.89114 0.0
O103 O 0.71606 0.58536 0.87988 0.0
O104 O 0.67042 0.61462 0.83406 0.0
O105 O 0.58896 0.52331 0.8568 0.0
O106 O 0.57429 0.41515 0.8306 0.0
O107 O 0.64788 0.45487 0.88296 0.0
O108 O 0.61423 0.49061 0.78659 0.0
O109 O 0.73585 0.55975 0.7978 0.0
O110 O 0.77874 0.52929 0.84465 0.0
O111 O 0.86918 0.62743 0.83224 0.0
H112 H 0.86983 0.81881 0.85848 0.0
H113 H 0.82138 0.86551 0.84714 0.0
H114 H 0.73786 0.77313 0.73342 0.0
H115 H 0.78416 0.7247 0.74507 0.0
H116 H 0.48996 0.29317 0.82587 0.0
H117 H 0.51151 0.22773 0.80584 0.0
H118 H 0.74981 0.36079 0.8563 0.0
H119 H 0.72928 0.42734 0.87496 0.0
H120 H 0.75888 0.1429 0.23724 0.0
C121 C 0.7117 0.09582 0.2283 0.0
C122 C 0.68224 0.05561 0.2552 0.0
C123 C 0.68054 0.07553 0.19022 0.0
H124 H 0.59559 0.96328 0.26462 0.0
C125 C 0.62022 0.99448 0.24387 0.0
C126 C 0.58916 0.97278 0.20618 0.0
C127 C 0.61946 1.01333 0.17953 0.0
C128 C 0.71041 0.11885 0.16189 0.0
H129 H 0.5964 0.99585 0.15031 0.0
C130 C 0.78861 0.1759 0.16511 0.0
C131 C 0.81466 0.21633 0.13871 0.0
C132 C 0.65944 0.10382 0.1316 0.0
H133 H 0.59837 0.06196 0.12854 0.0
C134 C 0.68558 0.14328 0.10512 0.0
H135 H 0.82989 0.18919 0.18777 0.0
C136 C 0.7624 0.19908 0.10861 0.0
H137 H 0.78025 0.22957 0.08836 0.0
H138 H 0.64542 0.13094 0.08215 0.0
H139 H 0.67222 0.6027 0.60496 0.0
C140 C 0.67729 0.57301 0.5904 0.0
C141 C 0.69221 0.54541 0.61155 0.0
C142 C 0.66423 0.55953 0.55072 0.0
H143 H 0.70222 0.4811 0.60908 0.0
C144 C 0.69483 0.5047 0.59265 0.0
C145 C 0.68126 0.49055 0.55306 0.0
C146 C 0.66871 0.51969 0.53229 0.0
C147 C 0.63771 0.58166 0.52854 0.0
H148 H 0.65978 0.50988 0.50163 0.0
C149 C 0.67748 0.64219 0.53275 0.0
C150 C 0.65271 0.66235 0.51036 0.0
C151 C 0.57183 0.54144 0.50247 0.0
H152 H 0.53935 0.49444 0.49912 0.0
C153 C 0.54674 0.56126 0.48063 0.0
H154 H 0.72887 0.67369 0.55241 0.0
C155 C 0.58707 0.62136 0.48436 0.0
H156 H 0.56671 0.63588 0.46705 0.0
H157 H 0.49597 0.52994 0.46068 0.0
H158 H 0.22252 0.55371 0.92421 0.0
C159 C 0.18837 0.56131 0.91205 0.0
C160 C 1.14421 0.56703 0.93624 0.0
C161 C 0.18562 0.5624 0.8725 0.0
H162 H 1.06142 0.57736 0.93932 0.0
C163 C 1.09596 0.57357 0.92071 0.0
C164 C 1.09095 0.57469 0.88153 0.0
C165 C 1.13664 0.56978 0.85772 0.0
C166 C 0.22882 0.55146 0.84658 0.0
H167 H 1.13397 0.57224 0.82772 0.0
C168 C 0.2985 0.56493 0.85866 0.0
C169 C 0.33337 0.55005 0.83381 0.0
C170 C 0.19698 0.52373 0.80921 0.0
H171 H 1.14288 0.51021 0.79875 0.0
C172 C 0.23243 0.51067 0.78469 0.0
H173 H 0.32512 0.58607 0.88708 0.0
C174 C 0.29952 0.52342 0.79682 0.0
H175 H 0.32481 0.51175 0.77722 0.0
H176 H 0.20666 0.48934 0.75615 0.0
H177 H 0.1881 0.5587 0.40598 0.0
C178 C 0.24102 0.60432 0.4155 0.0
C179 C 0.29006 0.64226 0.38808 0.0
C180 C 0.25745 0.62632 0.45455 0.0
H181 H 0.39398 0.73189 0.37857 0.0
C182 C 0.35626 0.70229 0.39966 0.0
C183 C 0.37187 0.72575 0.43776 0.0
C184 C 0.32457 0.6875 0.46526 0.0
C185 C 0.20173 0.58698 0.48365 0.0
H186 H 0.33904 0.70635 0.49474 0.0
C187 C 1.15455 0.52473 0.47832 0.0
C188 C 1.10153 0.48848 0.50561 0.0
C189 C 0.19333 0.61137 0.5168 0.0
H190 H 0.225 0.65809 0.52161 0.0
C191 C 1.14198 0.57553 0.54412 0.0
H192 H 1.15908 0.50412 0.45334 0.0
C193 C 1.09645 0.51451 0.53867 0.0
H194 H 1.05562 0.4873 0.55985 0.0
H195 H 1.13645 0.59508 0.56937 0.0
H196 H 0.67255 1.01761 0.70693 0.0
C197 C 0.67749 0.05168 0.72325 0.0
C198 C 0.69665 0.09776 0.70503 0.0
C199 C 0.66011 0.04748 0.76171 0.0
H200 H 0.70763 0.17289 0.71072 0.0
C201 C 0.6977 0.13961 0.72544 0.0
C202 C 0.67924 0.13554 0.76376 0.0
C203 C 0.66346 0.09065 0.78196 0.0
C204 C 0.63027 0.99478 0.77968 0.0
H205 H 0.65137 0.08821 0.81178 0.0
C206 C 0.66522 0.97158 0.77382 0.0
C207 C 0.63401 0.9201 0.78972 0.0
C208 C 0.56408 0.96597 0.80186 0.0
H209 H 0.53494 0.98203 0.80633 0.0
C210 C 0.53355 0.91527 0.8179 0.0
H211 H 0.71642 0.99336 0.75693 0.0
C212 C 0.56819 0.8924 0.81192 0.0
H213 H 0.54413 0.8534 0.82505 0.0
H214 H 0.48269 0.89353 0.83495 0.0
H215 H 0.84476 0.66264 0.07562 0.0
C216 C 0.81083 0.61945 0.08543 0.0
C217 C 0.76066 0.56751 0.05965 0.0
C218 C 0.81822 0.61625 0.12372 0.0
H219 H 0.67876 0.47148 0.05269 0.0
C220 C 0.71566 0.5116 0.07265 0.0
C221 C 0.72197 0.50791 0.11118 0.0
C222 C 0.77363 0.56067 0.1364 0.0
C223 C 0.86711 0.6706 0.15118 0.0
H224 H 0.78041 0.55878 0.16609 0.0
C225 C 0.84939 0.70553 0.15476 0.0
C226 C 0.88452 0.75177 0.18448 0.0
C227 C 0.92438 0.68428 0.17644 0.0
H228 H 0.93849 0.65736 0.17432 0.0
C229 C 0.96253 0.73228 0.20513 0.0
H230 H 0.80239 0.69308 0.13639 0.0
C231 C 0.94162 0.76537 0.20969 0.0
H232 H 0.9677 0.7999 0.23341 0.0
H233 H 1.00609 0.74234 0.22477 0.0
C234 C 0.77311 0.7883 0.1567 0.0
C235 C 0.70772 0.7518 0.17897 0.0
C236 C 0.84153 0.79943 0.1633 0.0
C237 C 0.84621 0.77435 0.19236 0.0
H238 H 0.76809 0.8028 0.13158 0.0
H239 H 0.88586 0.82033 0.1424 0.0
S240 S 0.70112 0.69018 0.26488 0.0
N241 N 0.65919 0.7015 0.23607 0.0
N242 N 0.78876 0.72374 0.24861 0.0
C243 C 0.78755 0.74718 0.21873 0.0
C244 C 0.71743 0.73512 0.21185 0.0
C245 C 0.92943 0.32779 0.4664 0.0
C246 C 0.92947 0.29585 0.49176 0.0
C247 C 0.98783 0.3902 0.46988 0.0
C248 C 1.04762 0.42289 0.49919 0.0
H249 H 0.88372 0.30444 0.44373 0.0
H250 H 0.9846 0.41311 0.45033 0.0
S251 S 1.07595 0.36127 0.57238 0.0
N252 N 0.99656 0.30208 0.54644 0.0
N253 N 1.10494 0.41934 0.55341 0.0
C254 C 1.04931 0.39171 0.5243 0.0
C255 C 0.99068 0.32819 0.52044 0.0
C256 C 0.78563 0.90881 0.79551 0.0
C257 C 0.74069 0.84794 0.78432 0.0
C258 C 0.75164 0.93252 0.79541 0.0
C259 C 0.6713 0.89604 0.78456 0.0
H260 H 0.84711 0.93807 0.80527 0.0
H261 H 0.7876 0.97917 0.80545 0.0
S262 S 0.52929 0.73489 0.75021 0.0
N263 N 0.61268 0.75251 0.75991 0.0
N264 N 0.54894 0.79717 0.75994 0.0
C265 C 0.62654 0.83572 0.77182 0.0
C266 C 0.66125 0.81168 0.77155 0.0
C267 C 0.68691 0.42753 0.18827 0.0
C268 C 0.74259 0.42393 0.17816 0.0
C269 C 0.65987 0.44137 0.16163 0.0
C270 C 0.68881 0.45178 0.12498 0.0
H271 H 0.67788 0.43244 0.21798 0.0
H272 H 0.63092 0.4562 0.17194 0.0
S273 S 0.79094 0.40852 0.08017 0.0
N274 N 0.79132 0.4014 0.12561 0.0
N275 N 0.74214 0.42888 0.07587 0.0
C276 C 0.72191 0.42889 0.11222 0.0
C277 C 0.74858 0.41418 0.13915 0.0
C278 C 0.55814 0.883 0.47715 0.0
C279 C 0.5512 0.91848 0.46013 0.0
C280 C 0.49903 0.82048 0.47094 0.0
C281 C 0.4312 0.79134 0.44735 0.0
H282 H 0.60985 0.90352 0.49521 0.0
H283 H 0.50732 0.79488 0.48388 0.0
S284 S 0.38103 0.86218 0.39784 0.0
N285 N 0.46815 0.9185 0.41982 0.0
N286 N 0.35792 0.80168 0.40853 0.0
C287 C 0.42243 0.82595 0.43101 0.0
C288 C 0.48213 0.8893 0.43729 0.0
C289 C 0.71373 0.27282 0.79643 0.0
C290 C 0.64601 0.24977 0.81618 0.0
C291 C 0.72508 0.23601 0.78036 0.0
C292 C 0.66918 0.17463 0.7835 0.0
H293 H 0.75714 0.31935 0.79227 0.0
H294 H 0.7776 0.25564 0.76495 0.0
S295 S 0.4829 0.09249 0.83358 0.0
N296 N 0.52414 0.1622 0.8396 0.0
N297 N 0.54351 0.0925 0.80817 0.0
C298 C 0.60185 0.15119 0.80384 0.0
C299 C 0.59068 0.1888 0.8204 0.0
C300 C 0.75382 0.81261 0.4805 0.0
C301 C 0.76363 0.84523 0.51458 0.0
C302 C 0.72026 0.75417 0.47971 0.0
C303 C 0.69553 0.72614 0.513 0.0
H304 H 0.77115 0.83214 0.45405 0.0
H305 H 0.71245 0.73033 0.4527 0.0
S306 S 0.70851 0.79192 0.60962 0.0
N307 N 0.74643 0.84526 0.58259 0.0
N308 N 0.684 0.73526 0.58106 0.0
C309 C 0.70711 0.75865 0.54749 0.0
C310 C 0.74103 0.81825 0.5483 0.0
C311 C 0.98373 0.62712 0.87062 0.0
C312 C 0.9177 0.58098 0.84576 0.0
C313 C 1.04066 0.62578 0.88102 0.0
C314 C 1.03545 0.57908 0.86625 0.0
H315 H 0.98953 0.66322 0.88357 0.0
H316 H 1.08847 0.6611 0.90145 0.0
S317 S 0.87774 0.45006 0.79766 0.0
N318 N 0.85244 0.48848 0.80545 0.0
N319 N 0.96045 0.48712 0.82375 0.0
C320 C 0.97159 0.5341 0.84006 0.0
C321 C 0.91255 0.53469 0.83023 0.0
C322 C 0.39074 0.81817 0.1713 0.0
C323 C 0.40098 0.78032 0.17962 0.0
C324 C 0.45259 0.88056 0.17857 0.0
C325 C 0.52637 0.90725 0.19507 0.0
H326 H 0.33462 0.79948 0.15901 0.0
H327 H 0.44196 0.90803 0.1722 0.0
S328 S 0.58356 0.82873 0.22287 0.0
N329 N 0.49123 0.77491 0.20564 0.0
N330 N 0.60642 0.89134 0.21905 0.0
C331 C 0.53739 0.87 0.20326 0.0
C332 C 0.47506 0.80683 0.19562 0.0
C333 C 0.71845 0.38997 0.52521 0.0
C334 C 0.65241 0.3435 0.50055 0.0
C335 C 0.72813 0.43786 0.54169 0.0
C336 C 0.6724 0.4412 0.5339 0.0
H337 H 0.76189 0.38852 0.53265 0.0
H338 H 0.77932 0.47233 0.56086 0.0
S339 S 0.49033 0.33168 0.47032 0.0
N340 N 0.53225 0.30509 0.46791 0.0
N341 N 0.54872 0.39369 0.49984 0.0
C342 C 0.60673 0.39541 0.50882 0.0
C343 C 0.59715 0.34693 0.49195 0.0
C344 C 0.45562 0.51217 0.84865 0.0
C345 C 0.53452 0.56693 0.84806 0.0
C346 C 0.39141 0.508 0.84679 0.0
C347 C 0.40261 0.55845 0.84508 0.0
H348 H 0.44285 0.4715 0.84893 0.0
H349 H 0.33199 0.46434 0.84515 0.0
S350 S 0.59665 0.71337 0.84666 0.0
N351 N 0.61973 0.67372 0.84819 0.0
N352 N 0.49912 0.66554 0.8451 0.0
C353 C 0.48101 0.61386 0.84629 0.0
C354 C 0.54671 0.61816 0.84768 0.0
C355 C 0.98332 0.37632 0.18132 0.0
C356 C 1.03378 0.40303 0.15116 0.0
C357 C 0.91504 0.31525 0.17779 0.0
C358 C 0.89378 0.2784 0.1438 0.0
H359 H 0.99575 0.40302 0.20777 0.0
H360 H 0.87673 0.29729 0.20129 0.0
S361 S 1.0076 0.32483 0.05712 0.0
N362 N 1.05945 0.38672 0.0868 0.0
N363 N 0.93079 0.2721 0.0801 0.0
C364 C 0.94499 0.30393 0.11388 0.0
C365 C 1.01508 0.36609 0.1176 0.0
C366 C 1.07841 0.52618 0.03653 0.0
C367 C 1.15014 0.56497 0.05879 0.0
C368 C 1.07696 0.5265 -0.00307 0.0
C369 C 1.14723 0.56533 0.97798 0.0
H370 H 1.0228 0.49576 0.04984 0.0
H371 H 1.02032 0.49619 0.98101 0.0
S372 S 0.35039 0.67716 0.02308 0.0
N373 N 0.29319 0.64448 0.05875 0.0
N374 N 0.2903 0.64417 0.98456 0.0
C375 C 0.21929 0.60384 -0.0002 0.0
C376 C 0.22079 0.6039 0.04011 0.0
C377 C 0.75519 0.05967 0.35136 0.0
C378 C 0.76781 0.1059 0.37357 0.0
C379 C 0.7303 0.04532 0.31283 0.0
C380 C 0.71611 0.07619 0.29522 0.0
H381 H 0.76247 1.03336 0.36411 0.0
H382 H 0.72064 1.0089 0.29686 0.0
S383 S 0.74506 0.20336 0.34155 0.0
N384 N 0.76995 0.18519 0.3754 0.0
N385 N 0.71919 0.15663 0.30345 0.0
C386 C 0.73101 0.12386 0.31716 0.0
C387 C 0.75754 0.13892 0.35629 0.0
C388 C 0.7554 0.56633 0.7145 0.0
C389 C 0.68832 0.54653 0.73344 0.0
C390 C 0.75795 0.56838 0.67505 0.0
C391 C 0.69443 0.55221 0.65362 0.0
H392 H 0.80428 0.57726 0.72986 0.0
H393 H 0.80884 0.581 0.66102 0.0
S394 S 0.50917 0.50335 0.69085 0.0
N395 N 0.55967 0.51459 0.72859 0.0
N396 N 0.56503 0.51949 0.65472 0.0
C397 C 0.62921 0.53575 0.67273 0.0
C398 C 0.62604 0.53265 0.71263 0.0
C399 C 0.6379 0.04812 0.60017 0.0
C400 C 0.70287 0.09763 0.58314 0.0
C401 C 0.6383 0.04753 0.63955 0.0
C402 C 0.70316 0.0969 0.66337 0.0
H403 H 0.58548 1.00996 0.58298 0.0
H404 H 0.58603 1.00916 0.6516 0.0
S405 S 0.88951 0.23634 0.63278 0.0
N406 N 0.8356 0.19604 0.59277 0.0
N407 N 0.83544 0.19558 0.6672 0.0
C408 C 0.76953 0.14606 0.64667 0.0
C409 C 0.76973 0.1462 0.60639 0.0
C410 C 0.83539 0.62347 0.96435 0.0
C411 C 0.76595 0.59566 0.94264 0.0
C412 C 0.83254 0.61237 0.00177 0.0
C413 C 0.76015 0.57316 0.01889 0.0
H414 H 0.89264 0.65467 0.95253 0.0
H415 H 0.88764 0.63535 0.01767 0.0
S416 S 0.56118 0.48754 0.9738 0.0
N417 N 0.62239 0.5257 0.94034 0.0
N418 N 0.6172 0.50516 0.0112 0.0
C419 C 0.68998 0.54357 -0.0028 0.0
C420 C 0.69285 0.55483 0.95891 0.0
C421 C 0.25203 0.56059 0.2902 0.0
C422 C 0.25243 0.59409 0.26622 0.0
C423 C 0.26047 0.5743 0.32997 0.0
C424 C 0.2696 0.62194 0.34682 0.0
H425 H 0.24692 0.52447 0.27818 0.0
H426 H 0.26282 0.54902 0.34754 0.0
S427 S 0.26934 0.72083 0.29688 0.0
N428 N 0.26074 0.67612 0.26263 0.0
N429 N 0.27227 0.69942 0.33679 0.0
C430 C 0.26649 0.65387 0.32317 0.0
C431 C 0.25916 0.64066 0.283 0.0
loop_
_geom_bond_atom_site_label_1
_geom_bond_atom_site_label_2
_geom_bond_distance
_geom_bond_site_symmetry_2
_ccdc_geom_bond_type
La0 C2 2.928 . S
La0 O20 2.521 . S
La0 O21 2.628 . S
La0 O22 2.554 . S
La0 O23 2.757 . S
La0 O24 2.470 . S
La0 O29 2.482 . S
La0 O31 2.503 1_455 S
La1 C11 2.928 1_455 S
La1 O23 2.482 . S
La1 O25 2.503 . S
La1 O26 2.521 1_455 S
La1 O27 2.628 1_455 S
La1 O28 2.554 . S
La1 O29 2.757 . S
La1 O30 2.470 1_455 S
C2 La0 2.928 . S
C2 C3 1.503 . S
C2 O20 1.261 . S
C2 O21 1.243 . S
C3 C2 1.503 . S
C3 C4 1.394 . S
C3 C8 1.373 . S
C4 C3 1.394 . S
C4 C5 1.380 . S
C4 H32 0.930 . S
C5 C4 1.380 . S
C5 C6 1.376 . S
C5 H33 0.930 . S
C6 C5 1.376 . S
C6 C7 1.370 . S
C7 C6 1.370 . S
C7 C8 1.396 . S
C7 H34 0.929 . S
C8 C3 1.373 . S
C8 C7 1.396 . S
C8 H35 0.929 . S
C9 O22 1.240 . S
C9 O23 1.289 . S
C10 O24 1.258 . S
C10 O25 1.256 . S
C11 La1 2.928 1_655 S
C11 C12 1.503 . S
C11 O26 1.261 . S
C11 O27 1.243 . S
C12 C11 1.503 . S
C12 C13 1.394 . S
C12 C17 1.373 . S
C13 C12 1.394 . S
C13 C14 1.380 . S
C13 H36 0.930 . S
C14 C13 1.380 . S
C14 C15 1.376 . S
C14 H37 0.930 . S
C15 C14 1.376 . S
C15 C16 1.370 . S
C16 C15 1.370 . S
C16 C17 1.396 . S
C16 H38 0.929 . S
C17 C12 1.373 . S
C17 C16 1.396 . S
C17 H39 0.929 . S
C18 O28 1.240 . S
C18 O29 1.289 . S
C19 O30 1.258 . S
C19 O31 1.256 . S
O20 La0 2.521 . S
O20 C2 1.261 . S
O21 La0 2.628 . S
O21 C2 1.243 . S
O22 La0 2.554 . S
O22 C9 1.240 . S
O23 La0 2.757 . S
O23 La1 2.482 . S
O23 C9 1.289 . S
O24 La0 2.470 . S
O24 C10 1.258 . S
O25 La1 2.503 . S
O25 C10 1.256 . S
O26 La1 2.521 1_655 S
O26 C11 1.261 . S
O27 La1 2.628 1_655 S
O27 C11 1.243 . S
O28 La1 2.554 . S
O28 C18 1.240 . S
O29 La0 2.482 . S
O29 La1 2.757 . S
O29 C18 1.289 . S
O30 La1 2.470 1_655 S
O30 C19 1.258 . S
O31 La0 2.503 1_655 S
O31 C19 1.256 . S
H32 C4 0.930 . S
H33 C5 0.930 . S
H34 C7 0.929 . S
H35 C8 0.929 . S
H36 C13 0.930 . S
H37 C14 0.930 . S
H38 C16 0.929 . S
H39 C17 0.929 . S
La40 C42 2.928 1_545 S
La40 O60 2.521 1_545 S
La40 O61 2.628 1_545 S
La40 O62 2.554 . S
La40 O63 2.757 . S
La40 O64 2.470 1_545 S
La40 O69 2.482 . S
La40 O71 2.503 . S
La41 C51 2.928 . S
La41 O63 2.482 . S
La41 O65 2.503 1_545 S
La41 O66 2.521 . S
La41 O67 2.628 . S
La41 O68 2.554 . S
La41 O69 2.757 . S
La41 O70 2.470 . S
C42 La40 2.928 1_565 S
C42 C43 1.503 . S
C42 O60 1.261 . S
C42 O61 1.243 . S
C43 C42 1.503 . S
C43 C44 1.394 . S
C43 C48 1.373 . S
C44 C43 1.394 . S
C44 C45 1.380 . S
C44 H72 0.930 . S
C45 C44 1.380 . S
C45 C46 1.376 . S
C45 H73 0.930 . S
C46 C45 1.376 . S
C46 C47 1.370 . S
C47 C46 1.370 . S
C47 C48 1.396 . S
C47 H74 0.929 . S
C48 C43 1.373 . S
C48 C47 1.396 . S
C48 H75 0.929 . S
C49 O62 1.240 . S
C49 O63 1.289 . S
C50 O64 1.258 . S
C50 O65 1.256 . S
C51 La41 2.928 . S
C51 C52 1.503 . S
C51 O66 1.261 . S
C51 O67 1.243 . S
C52 C51 1.503 . S
C52 C53 1.394 . S
C52 C57 1.373 . S
C53 C52 1.394 . S
C53 C54 1.380 . S
C53 H76 0.930 . S
C54 C53 1.380 . S
C54 C55 1.376 . S
C54 H77 0.930 . S
C55 C54 1.376 . S
C55 C56 1.370 . S
C56 C55 1.370 . S
C56 C57 1.396 . S
C56 H78 0.929 . S
C57 C52 1.373 . S
C57 C56 1.396 . S
C57 H79 0.929 . S
C58 O68 1.240 . S
C58 O69 1.289 . S
C59 O70 1.258 . S
C59 O71 1.256 . S
O60 La40 2.521 1_565 S
O60 C42 1.261 . S
O61 La40 2.628 1_565 S
O61 C42 1.243 . S
O62 La40 2.554 . S
O62 C49 1.240 . S
O63 La40 2.757 . S
O63 La41 2.482 . S
O63 C49 1.289 . S
O64 La40 2.470 1_565 S
O64 C50 1.258 . S
O65 La41 2.503 1_565 S
O65 C50 1.256 . S
O66 La41 2.521 . S
O66 C51 1.261 . S
O67 La41 2.628 . S
O67 C51 1.243 . S
O68 La41 2.554 . S
O68 C58 1.240 . S
O69 La40 2.482 . S
O69 La41 2.757 . S
O69 C58 1.289 . S
O70 La41 2.470 . S
O70 C59 1.258 . S
O71 La40 2.503 . S
O71 C59 1.256 . S
H72 C44 0.930 . S
H73 C45 0.930 . S
H74 C47 0.929 . S
H75 C48 0.929 . S
H76 C53 0.930 . S
H77 C54 0.930 . S
H78 C56 0.929 . S
H79 C57 0.929 . S
La80 C82 2.928 . S
La80 O100 2.521 . S
La80 O101 2.628 . S
La80 O102 2.554 . S
La80 O103 2.757 . S
La80 O104 2.470 . S
La80 O109 2.482 . S
La80 O111 2.503 . S
La81 C91 2.928 . S
La81 O103 2.482 . S
La81 O105 2.503 . S
La81 O106 2.521 . S
La81 O107 2.628 . S
La81 O108 2.554 . S
La81 O109 2.757 . S
La81 O110 2.470 . S
C82 La80 2.928 . S
C82 C83 1.503 . S
C82 O100 1.261 . S
C82 O101 1.243 . S
C83 C82 1.503 . S
C83 C84 1.394 . S
C83 C88 1.373 . S
C84 C83 1.394 . S
C84 C85 1.380 . S
C84 H112 0.930 . S
C85 C84 1.380 . S
C85 C86 1.376 . S
C85 H113 0.930 . S
C86 C85 1.376 . S
C86 C87 1.370 . S
C87 C86 1.370 . S
C87 C88 1.396 . S
C87 H114 0.929 . S
C88 C83 1.373 . S
C88 C87 1.396 . S
C88 H115 0.929 . S
C89 O102 1.240 . S
C89 O103 1.289 . S
C90 O104 1.258 . S
C90 O105 1.256 . S
C91 La81 2.928 . S
C91 C92 1.503 . S
C91 O106 1.261 . S
C91 O107 1.243 . S
C92 C91 1.503 . S
C92 C93 1.394 . S
C92 C97 1.373 . S
C93 C92 1.394 . S
C93 C94 1.380 . S
C93 H116 0.930 . S
C94 C93 1.380 . S
C94 C95 1.376 . S
C94 H117 0.930 . S
C95 C94 1.376 . S
C95 C96 1.370 . S
C96 C95 1.370 . S
C96 C97 1.396 . S
C96 H118 0.929 . S
C97 C92 1.373 . S
C97 C96 1.396 . S
C97 H119 0.929 . S
C98 O108 1.240 . S
C98 O109 1.289 . S
C99 O110 1.258 . S
C99 O111 1.256 . S
O100 La80 2.521 . S
O100 C82 1.261 . S
O101 La80 2.628 . S
O101 C82 1.243 . S
O102 La80 2.554 . S
O102 C89 1.240 . S
O103 La80 2.757 . S
O103 La81 2.482 . S
O103 C89 1.289 . S
O104 La80 2.470 . S
O104 C90 1.258 . S
O105 La81 2.503 . S
O105 C90 1.256 . S
O106 La81 2.521 . S
O106 C91 1.261 . S
O107 La81 2.628 . S
O107 C91 1.243 . S
O108 La81 2.554 . S
O108 C98 1.240 . S
O109 La80 2.482 . S
O109 La81 2.757 . S
O109 C98 1.289 . S
O110 La81 2.470 . S
O110 C99 1.258 . S
O111 La80 2.503 . S
O111 C99 1.256 . S
H112 C84 0.930 . S
H113 C85 0.930 . S
H114 C87 0.929 . S
H115 C88 0.929 . S
H116 C93 0.930 . S
H117 C94 0.930 . S
H118 C96 0.929 . S
H119 C97 0.929 . S
H120 C121 0.949 . S
C121 H120 0.949 . S
C121 C122 1.395 . S
C121 C123 1.391 . S
C122 C121 1.395 . S
C122 C125 1.390 1_545 S
C123 C121 1.391 . S
C123 C127 1.387 . S
C123 C128 1.491 . S
H124 C125 0.950 . S
C125 C122 1.390 1_565 S
C125 H124 0.950 . S
C125 C126 1.378 . S
C126 C125 1.378 . S
C126 C127 1.409 1_565 S
C127 C123 1.387 . S
C127 C126 1.409 1_545 S
C127 H129 0.951 1_545 S
C128 C123 1.491 . S
C128 C130 1.382 . S
C128 C132 1.404 . S
H129 C127 0.951 1_565 S
C130 C128 1.382 . S
C130 C131 1.390 . S
C130 H135 0.949 . S
C131 C130 1.390 . S
C131 C136 1.399 . S
C132 C128 1.404 . S
C132 H133 0.950 . S
C132 C134 1.375 . S
H133 C132 0.950 . S
C134 C132 1.375 . S
C134 C136 1.382 . S
C134 H138 0.950 . S
H135 C130 0.949 . S
C136 C131 1.399 . S
C136 C134 1.382 . S
C136 H137 0.952 . S
H137 C136 0.952 . S
H138 C134 0.950 . S
H139 C140 0.949 . S
C140 H139 0.949 . S
C140 C141 1.395 . S
C140 C142 1.391 . S
C141 C140 1.395 . S
C141 C144 1.390 . S
C142 C140 1.391 . S
C142 C146 1.387 . S
C142 C147 1.491 . S
H143 C144 0.950 . S
C144 C141 1.390 . S
C144 H143 0.950 . S
C144 C145 1.378 . S
C145 C144 1.378 . S
C145 C146 1.409 . S
C146 C142 1.387 . S
C146 C145 1.409 . S
C146 H148 0.951 . S
C147 C142 1.491 . S
C147 C149 1.382 . S
C147 C151 1.404 . S
H148 C146 0.951 . S
C149 C147 1.382 . S
C149 C150 1.390 . S
C149 H154 0.949 . S
C150 C149 1.390 . S
C150 C155 1.399 . S
C151 C147 1.404 . S
C151 H152 0.950 . S
C151 C153 1.375 . S
H152 C151 0.950 . S
C153 C151 1.375 . S
C153 C155 1.382 . S
C153 H157 0.950 . S
H154 C149 0.949 . S
C155 C150 1.399 . S
C155 C153 1.382 . S
C155 H156 0.952 . S
H156 C155 0.952 . S
H157 C153 0.950 . S
H158 C159 0.949 . S
C159 H158 0.949 . S
C159 C160 1.395 . S
C159 C161 1.391 . S
C160 C159 1.395 . S
C160 C163 1.368 1_455 S
C161 C159 1.391 . S
C161 C165 1.387 . S
C161 C166 1.491 . S
H162 C163 0.971 . S
C163 C160 1.368 1_655 S
C163 H162 0.971 . S
C163 C164 1.380 . S
C164 C163 1.380 . S
C164 C165 1.409 1_655 S
C165 C161 1.387 . S
C165 C164 1.409 1_455 S
C165 H167 0.951 . S
C166 C161 1.491 . S
C166 C168 1.382 . S
C166 C170 1.404 . S
H167 C165 0.951 . S
C168 C166 1.382 . S
C168 C169 1.390 . S
C168 H173 0.949 . S
C169 C168 1.390 . S
C169 C174 1.399 . S
C170 C166 1.404 . S
C170 H171 0.950 . S
C170 C172 1.375 . S
H171 C170 0.950 . S
C172 C170 1.375 . S
C172 C174 1.382 . S
C172 H176 0.950 . S
H173 C168 0.949 . S
C174 C169 1.399 . S
C174 C172 1.382 . S
C174 H175 0.952 . S
H175 C174 0.952 . S
H176 C172 0.950 . S
H177 C178 0.949 1_655 S
C178 H177 0.949 1_455 S
C178 C179 1.395 . S
C178 C180 1.391 . S
C179 C178 1.395 . S
C179 C182 1.390 . S
C180 C178 1.391 . S
C180 C184 1.387 . S
C180 C185 1.491 1_455 S
H181 C182 0.950 . S
C182 C179 1.390 . S
C182 H181 0.950 . S
C182 C183 1.378 . S
C183 C182 1.378 . S
C183 C184 1.409 . S
C184 C180 1.387 . S
C184 C183 1.409 . S
C184 H186 0.951 . S
C185 C180 1.491 1_655 S
C185 C187 1.382 . S
C185 C189 1.404 . S
H186 C184 0.951 . S
C187 C185 1.382 . S
C187 C188 1.390 . S
C187 H192 0.949 . S
C188 C187 1.390 . S
C188 C193 1.399 . S
C189 C185 1.404 . S
C189 H190 0.950 . S
C189 C191 1.375 . S
H190 C189 0.950 . S
C191 C189 1.375 . S
C191 C193 1.382 . S
C191 H195 0.950 . S
H192 C187 0.949 . S
C193 C188 1.399 . S
C193 C191 1.382 . S
C193 H194 0.952 . S
H194 C193 0.952 . S
H195 C191 0.950 . S
H196 C197 0.969 . S
C197 H196 0.969 . S
C197 C198 1.395 . S
C197 C199 1.391 . S
C198 C197 1.395 . S
C198 C201 1.390 . S
C199 C197 1.391 . S
C199 C203 1.387 . S
C199 C204 1.493 . S
H200 C201 0.950 . S
C201 C198 1.390 . S
C201 H200 0.950 . S
C201 C202 1.378 . S
C202 C201 1.378 . S
C202 C203 1.409 . S
C203 C199 1.387 . S
C203 C202 1.409 . S
C203 H205 0.951 . S
C204 C199 1.493 . S
C204 C206 1.380 1_545 S
C204 C208 1.404 1_545 S
H205 C203 0.951 . S
C206 C204 1.380 1_565 S
C206 C207 1.390 . S
C206 H211 0.949 . S
C207 C206 1.390 . S
C207 C212 1.399 . S
C208 C204 1.404 1_565 S
C208 H209 0.950 . S
C208 C210 1.375 . S
H209 C208 0.950 . S
C210 C208 1.375 . S
C210 C212 1.382 . S
C210 H214 0.950 . S
H211 C206 0.949 . S
C212 C207 1.399 . S
C212 C210 1.382 . S
C212 H213 0.952 . S
H213 C212 0.952 . S
H214 C210 0.950 . S
H215 C216 0.949 . S
C216 H215 0.949 . S
C216 C217 1.395 . S
C216 C218 1.391 . S
C217 C216 1.395 . S
C217 C220 1.390 . S
C218 C216 1.391 . S
C218 C222 1.387 . S
C218 C223 1.491 . S
H219 C220 0.950 . S
C220 C217 1.390 . S
C220 H219 0.950 . S
C220 C221 1.378 . S
C221 C220 1.378 . S
C221 C222 1.409 . S
C222 C218 1.387 . S
C222 C221 1.409 . S
C222 H224 0.951 . S
C223 C218 1.491 . S
C223 C225 1.382 . S
C223 C227 1.404 . S
H224 C222 0.951 . S
C225 C223 1.382 . S
C225 C226 1.390 . S
C225 H230 0.949 . S
C226 C225 1.390 . S
C226 C231 1.399 . S
C227 C223 1.404 . S
C227 H228 0.950 . S
C227 C229 1.375 . S
H228 C227 0.950 . S
C229 C227 1.375 . S
C229 C231 1.382 . S
C229 H233 0.950 . S
H230 C225 0.949 . S
C231 C226 1.399 . S
C231 C229 1.382 . S
C231 H232 0.952 . S
H232 C231 0.952 . S
H233 C229 0.950 . S
C234 C235 1.369 . S
C234 C236 1.419 . S
C234 H238 0.930 . S
C235 C234 1.369 . S
C235 C244 1.429 . S
C236 C234 1.419 . S
C236 C237 1.363 . S
C236 H239 0.929 . S
C237 C236 1.363 . S
C237 C243 1.428 . S
H238 C234 0.930 . S
H239 C236 0.929 . S
S240 N241 1.613 . S
S240 N242 1.610 . S
N241 S240 1.613 . S
N241 C244 1.350 . S
N242 S240 1.610 . S
N242 C243 1.351 . S
C243 C237 1.428 . S
C243 N242 1.351 . S
C243 C244 1.434 . S
C244 C235 1.429 . S
C244 N241 1.350 . S
C244 C243 1.434 . S
C245 C246 1.369 . S
C245 C247 1.419 . S
C245 H249 0.930 . S
C246 C245 1.369 . S
C246 C255 1.429 . S
C247 C245 1.419 . S
C247 C248 1.363 . S
C247 H250 0.929 . S
C248 C247 1.363 . S
C248 C254 1.428 . S
H249 C245 0.930 . S
H250 C247 0.929 . S
S251 N252 1.613 . S
S251 N253 1.610 . S
N252 S251 1.613 . S
N252 C255 1.350 . S
N253 S251 1.610 . S
N253 C254 1.351 . S
C254 C248 1.428 . S
C254 N253 1.351 . S
C254 C255 1.434 . S
C255 C246 1.429 . S
C255 N252 1.350 . S
C255 C254 1.434 . S
C256 C257 1.369 . S
C256 C258 1.419 . S
C256 H260 0.930 . S
C257 C256 1.369 . S
C257 C266 1.429 . S
C258 C256 1.419 . S
C258 C259 1.363 . S
C258 H261 0.929 . S
C259 C258 1.363 . S
C259 C265 1.428 . S
H260 C256 0.930 . S
H261 C258 0.929 . S
S262 N263 1.613 . S
S262 N264 1.610 . S
N263 S262 1.613 . S
N263 C266 1.350 . S
N264 S262 1.610 . S
N264 C265 1.351 . S
C265 C259 1.428 . S
C265 N264 1.351 . S
C265 C266 1.434 . S
C266 C257 1.429 . S
C266 N263 1.350 . S
C266 C265 1.434 . S
C267 C268 1.369 . S
C267 C269 1.419 . S
C267 H271 0.930 . S
C268 C267 1.369 . S
C268 C277 1.429 . S
C269 C267 1.419 . S
C269 C270 1.363 . S
C269 H272 0.929 . S
C270 C269 1.363 . S
C270 C276 1.428 . S
H271 C267 0.930 . S
H272 C269 0.929 . S
S273 N274 1.613 . S
S273 N275 1.610 . S
N274 S273 1.613 . S
N274 C277 1.350 . S
N275 S273 1.610 . S
N275 C276 1.351 . S
C276 C270 1.428 . S
C276 N275 1.351 . S
C276 C277 1.434 . S
C277 C268 1.429 . S
C277 N274 1.350 . S
C277 C276 1.434 . S
C278 C279 1.369 . S
C278 C280 1.419 . S
C278 H282 0.930 . S
C279 C278 1.369 . S
C279 C288 1.429 . S
C280 C278 1.419 . S
C280 C281 1.363 . S
C280 H283 0.929 . S
C281 C280 1.363 . S
C281 C287 1.428 . S
H282 C278 0.930 . S
H283 C280 0.929 . S
S284 N285 1.613 . S
S284 N286 1.610 . S
N285 S284 1.613 . S
N285 C288 1.350 . S
N286 S284 1.610 . S
N286 C287 1.351 . S
C287 C281 1.428 . S
C287 N286 1.351 . S
C287 C288 1.434 . S
C288 C279 1.429 . S
C288 N285 1.350 . S
C288 C287 1.434 . S
C289 C290 1.369 . S
C289 C291 1.419 . S
C289 H293 0.930 . S
C290 C289 1.369 . S
C290 C299 1.429 . S
C291 C289 1.419 . S
C291 C292 1.363 . S
C291 H294 0.929 . S
C292 C291 1.363 . S
C292 C298 1.428 . S
H293 C289 0.930 . S
H294 C291 0.929 . S
S295 N296 1.613 . S
S295 N297 1.610 . S
N296 S295 1.613 . S
N296 C299 1.350 . S
N297 S295 1.610 . S
N297 C298 1.351 . S
C298 C292 1.428 . S
C298 N297 1.351 . S
C298 C299 1.434 . S
C299 C290 1.429 . S
C299 N296 1.350 . S
C299 C298 1.434 . S
C300 C301 1.369 . S
C300 C302 1.419 . S
C300 H304 0.930 . S
C301 C300 1.369 . S
C301 C310 1.429 . S
C302 C300 1.419 . S
C302 C303 1.363 . S
C302 H305 0.929 . S
C303 C302 1.363 . S
C303 C309 1.428 . S
H304 C300 0.930 . S
H305 C302 0.929 . S
S306 N307 1.613 . S
S306 N308 1.610 . S
N307 S306 1.613 . S
N307 C310 1.350 . S
N308 S306 1.610 . S
N308 C309 1.351 . S
C309 C303 1.428 . S
C309 N308 1.351 . S
C309 C310 1.434 . S
C310 C301 1.429 . S
C310 N307 1.350 . S
C310 C309 1.434 . S
C311 C312 1.369 . S
C311 C313 1.419 . S
C311 H315 0.930 . S
C312 C311 1.369 . S
C312 C321 1.429 . S
C313 C311 1.419 . S
C313 C314 1.363 . S
C313 H316 0.929 . S
C314 C313 1.363 . S
C314 C320 1.428 . S
H315 C311 0.930 . S
H316 C313 0.929 . S
S317 N318 1.613 . S
S317 N319 1.610 . S
N318 S317 1.613 . S
N318 C321 1.350 . S
N319 S317 1.610 . S
N319 C320 1.351 . S
C320 C314 1.428 . S
C320 N319 1.351 . S
C320 C321 1.434 . S
C321 C312 1.429 . S
C321 N318 1.350 . S
C321 C320 1.434 . S
C322 C323 1.369 . S
C322 C324 1.419 . S
C322 H326 0.930 . S
C323 C322 1.369 . S
C323 C332 1.429 . S
C324 C322 1.419 . S
C324 C325 1.363 . S
C324 H327 0.929 . S
C325 C324 1.363 . S
C325 C331 1.428 . S
H326 C322 0.930 . S
H327 C324 0.929 . S
S328 N329 1.613 . S
S328 N330 1.610 . S
N329 S328 1.613 . S
N329 C332 1.350 . S
N330 S328 1.610 . S
N330 C331 1.351 . S
C331 C325 1.428 . S
C331 N330 1.351 . S
C331 C332 1.434 . S
C332 C323 1.429 . S
C332 N329 1.350 . S
C332 C331 1.434 . S
C333 C334 1.369 . S
C333 C335 1.419 . S
C333 H337 0.930 . S
C334 C333 1.369 . S
C334 C343 1.429 . S
C335 C333 1.419 . S
C335 C336 1.363 . S
C335 H338 0.929 . S
C336 C335 1.363 . S
C336 C342 1.428 . S
H337 C333 0.930 . S
H338 C335 0.929 . S
S339 N340 1.613 . S
S339 N341 1.610 . S
N340 S339 1.613 . S
N340 C343 1.350 . S
N341 S339 1.610 . S
N341 C342 1.351 . S
C342 C336 1.428 . S
C342 N341 1.351 . S
C342 C343 1.434 . S
C343 C334 1.429 . S
C343 N340 1.350 . S
C343 C342 1.434 . S
C344 C345 1.369 . S
C344 C346 1.419 . S
C344 H348 0.930 . S
C345 C344 1.369 . S
C345 C354 1.429 . S
C346 C344 1.419 . S
C346 C347 1.363 . S
C346 H349 0.929 . S
C347 C346 1.363 . S
C347 C353 1.428 . S
H348 C344 0.930 . S
H349 C346 0.929 . S
S350 N351 1.613 . S
S350 N352 1.610 . S
N351 S350 1.613 . S
N351 C354 1.350 . S
N352 S350 1.610 . S
N352 C353 1.351 . S
C353 C347 1.428 . S
C353 N352 1.351 . S
C353 C354 1.434 . S
C354 C345 1.429 . S
C354 N351 1.350 . S
C354 C353 1.434 . S
C355 C356 1.369 . S
C355 C357 1.419 . S
C355 H359 0.930 . S
C356 C355 1.369 . S
C356 C365 1.429 . S
C357 C355 1.419 . S
C357 C358 1.363 . S
C357 H360 0.929 . S
C358 C357 1.363 . S
C358 C364 1.428 . S
H359 C355 0.930 . S
H360 C357 0.929 . S
S361 N362 1.613 . S
S361 N363 1.610 . S
N362 S361 1.613 . S
N362 C365 1.350 . S
N363 S361 1.610 . S
N363 C364 1.351 . S
C364 C358 1.428 . S
C364 N363 1.351 . S
C364 C365 1.434 . S
C365 C356 1.429 . S
C365 N362 1.350 . S
C365 C364 1.434 . S
C366 C367 1.360 1_655 S
C366 C368 1.416 1_654 S
C366 H370 0.942 . S
C367 C366 1.360 1_455 S
C367 C376 1.429 . S
C368 C366 1.416 1_456 S
C368 C369 1.363 . S
C368 H371 0.929 1_455 S
C369 C368 1.363 . S
C369 C375 1.428 1_556 S
H370 C366 0.942 . S
H371 C368 0.929 1_655 S
S372 N373 1.613 . S
S372 N374 1.610 1_554 S
N373 S372 1.613 . S
N373 C376 1.350 . S
N374 S372 1.610 1_556 S
N374 C375 1.351 1_556 S
C375 C369 1.428 1_554 S
C375 N374 1.351 1_554 S
C375 C376 1.434 . S
C376 C367 1.429 . S
C376 N373 1.350 . S
C376 C375 1.434 . S
C377 C378 1.369 1_565 S
C377 C379 1.419 . S
C377 H381 0.930 . S
C378 C377 1.369 1_545 S
C378 C387 1.429 . S
C379 C377 1.419 . S
C379 C380 1.363 1_565 S
C379 H382 0.929 . S
C380 C379 1.363 1_545 S
C380 C386 1.428 . S
H381 C377 0.930 . S
H382 C379 0.929 . S
S383 N384 1.613 . S
S383 N385 1.610 . S
N384 S383 1.613 . S
N384 C387 1.350 . S
N385 S383 1.610 . S
N385 C386 1.351 . S
C386 C380 1.428 . S
C386 N385 1.351 . S
C386 C387 1.434 . S
C387 C378 1.429 . S
C387 N384 1.350 . S
C387 C386 1.434 . S
C388 C389 1.369 . S
C388 C390 1.419 . S
C388 H392 0.930 . S
C389 C388 1.369 . S
C389 C398 1.429 . S
C390 C388 1.419 . S
C390 C391 1.363 . S
C390 H393 0.929 . S
C391 C390 1.363 . S
C391 C397 1.428 . S
H392 C388 0.930 . S
H393 C390 0.929 . S
S394 N395 1.613 . S
S394 N396 1.610 . S
N395 S394 1.613 . S
N395 C398 1.350 . S
N396 S394 1.610 . S
N396 C397 1.351 . S
C397 C391 1.428 . S
C397 N396 1.351 . S
C397 C398 1.434 . S
C398 C389 1.429 . S
C398 N395 1.350 . S
C398 C397 1.434 . S
C399 C400 1.369 . S
C399 C401 1.419 . S
C399 H403 0.930 . S
C400 C399 1.369 . S
C400 C409 1.429 . S
C401 C399 1.419 . S
C401 C402 1.363 . S
C401 H404 0.929 . S
C402 C401 1.363 . S
C402 C408 1.428 . S
H403 C399 0.930 . S
H404 C401 0.929 . S
S405 N406 1.613 . S
S405 N407 1.610 . S
N406 S405 1.613 . S
N406 C409 1.350 1_565 S
N407 S405 1.610 . S
N407 C408 1.351 1_565 S
C408 C402 1.428 . S
C408 N407 1.351 1_545 S
C408 C409 1.434 . S
C409 C400 1.429 . S
C409 N406 1.350 1_545 S
C409 C408 1.434 . S
C410 C411 1.369 . S
C410 C412 1.419 1_556 S
C410 H414 0.930 . S
C411 C410 1.369 . S
C411 C420 1.429 . S
C412 C410 1.419 1_554 S
C412 C413 1.363 . S
C412 H415 0.929 . S
C413 C412 1.363 . S
C413 C419 1.428 1_554 S
H414 C410 0.930 . S
H415 C412 0.929 . S
S416 N417 1.613 . S
S416 N418 1.610 . S
N417 S416 1.613 . S
N417 C420 1.350 . S
N418 S416 1.610 . S
N418 C419 1.351 . S
C419 C413 1.428 1_556 S
C419 N418 1.351 . S
C419 C420 1.434 . S
C420 C411 1.429 . S
C420 N417 1.350 . S
C420 C419 1.434 . S
C421 C422 1.369 . S
C421 C423 1.419 . S
C421 H425 0.930 . S
C422 C421 1.369 . S
C422 C431 1.429 . S
C423 C421 1.419 . S
C423 C424 1.363 . S
C423 H426 0.929 . S
C424 C423 1.363 . S
C424 C430 1.428 . S
H425 C421 0.930 . S
H426 C423 0.929 . S
S427 N428 1.613 . S
S427 N429 1.610 . S
N428 S427 1.613 . S
N428 C431 1.350 . S
N429 S427 1.610 . S
N429 C430 1.351 . S
C430 C424 1.428 . S
C430 N429 1.351 . S
C430 C431 1.434 . S
C431 C422 1.429 . S
C431 N428 1.350 . S
C431 C430 1.434 . S
C235 C6 1.089 . S
C237 C226 0.966 . S
C246 C59 1.998 . S
C248 C188 1.956 . S
C257 C86 1.354 . S
C259 C207 1.310 . S
C268 C15 0.559 . S
C270 C221 0.402 . S
C281 C183 1.888 . S
C279 C50 1.928 . S
C292 C202 1.189 . S
C290 C95 1.197 . S
C301 C46 1.368 . S
C303 C150 1.265 . S
C312 C99 3.119 . S
C314 C164 3.093 . S
C323 C10 1.948 . S
C325 C126 1.937 . S
C336 C145 1.160 . S
C334 C55 1.158 . S
C347 C169 3.105 . S
C345 C90 3.146 . S
C356 C19 2.012 . S
C358 C131 1.978 . S
C369 C160 1.750 . S
C367 C18 1.723 . S
C378 C49 1.434 . S
C380 C122 1.516 . S
C389 C98 1.534 . S
C391 C141 1.556 . S
C402 C198 1.541 . S
C400 C58 1.550 . S
C413 C217 1.297 . S
C411 C89 1.293 . S
C422 C9 1.412 . S
C424 C179 1.461 . S
