# Generated by pormake.
# Topology tsx, (6,3)-cn, num edge types: 1
# Building blocks:
#     Node 0, Type 0, BuildingBlock: MIDCAF_clean_sbu_0, # of connection points: 6
#     Node 1, Type 0, BuildingBlock: MIDCAF_clean_sbu_0, # of connection points: 6
#     Node 2, Type 1, BuildingBlock: CUQRIR_clean_linker_1, # of connection points: 3
#     Node 3, Type 1, BuildingBlock: CUQRIR_clean_linker_1, # of connection points: 3
#     Node 4, Type 1, BuildingBlock: CUQRIR_clean_linker_1, # of connection points: 3
#     Node 5, Type 1, BuildingBlock: CUQRIR_clean_linker_1, # of connection points: 3
#     Edge 6, Type (0, 1), BuildingBlock: CIFDUS_clean_linker_0, # of connection points: 2
#     Edge 7, Type (0, 1), BuildingBlock: CIFDUS_clean_linker_0, # of connection points: 2
#     Edge 8, Type (0, 1), BuildingBlock: CIFDUS_clean_linker_0, # of connection points: 2
#     Edge 9, Type (0, 1), BuildingBlock: CIFDUS_clean_linker_0, # of connection points: 2
#     Edge 10, Type (0, 1), BuildingBlock: CIFDUS_clean_linker_0, # of connection points: 2
#     Edge 11, Type (0, 1), BuildingBlock: CIFDUS_clean_linker_0, # of connection points: 2
#     Edge 12, Type (0, 1), BuildingBlock: CIFDUS_clean_linker_0, # of connection points: 2
#     Edge 13, Type (0, 1), BuildingBlock: CIFDUS_clean_linker_0, # of connection points: 2
#     Edge 14, Type (0, 1), BuildingBlock: CIFDUS_clean_linker_0, # of connection points: 2
#     Edge 15, Type (0, 1), BuildingBlock: CIFDUS_clean_linker_0, # of connection points: 2
#     Edge 16, Type (0, 1), BuildingBlock: CIFDUS_clean_linker_0, # of connection points: 2
#     Edge 17, Type (0, 1), BuildingBlock: CIFDUS_clean_linker_0, # of connection points: 2
# Relax obj value: 0.118
# Max RMSD: 0.171
# Mean RMSD: 0.150
data_MOF--net-tsx--node1-MIDCAF_clean_sbu_0--node2-CUQRIR_clean_linker_1--edge1-CIFDUS_clean_linker_0
_symmetry_space_group_name_H-M    P1
_symmetry_Int_Tables_number       1
_symmetry_cell_setting            triclinic
loop_
_symmetry_equiv_pos_as_xyz
'x, y, z'
_cell_length_a     15.480013
_cell_length_b     16.615241
_cell_length_c     29.186479
_cell_angle_alpha  79.353949
_cell_angle_beta   96.650003
_cell_angle_gamma 91.714798
loop_
_atom_site_label
_atom_site_type_symbol
_atom_site_fract_x
_atom_site_fract_y
_atom_site_fract_z
_atom_type_partial_charge
Zn0 Zn 0.96404 0.94879 0.96554 0.0
Zn1 Zn 0.23784 0.0188 0.04066 0.0
Zn2 Zn 0.08584 0.99837 0.0111 0.0
C3 C 0.17381 0.173 0.00841 0.0
C4 C 0.26359 0.9125 0.9894 0.0
O5 O 1.00323 0.91057 0.05702 0.0
O6 O 0.93987 0.84223 0.00415 0.0
C7 C 0.93264 0.11123 0.97744 0.0
O8 O 0.10246 0.13153 0.01207 0.0
O9 O 0.24468 0.13585 0.01112 0.0
O10 O 0.31114 0.9406 0.02087 0.0
O11 O 0.18312 0.93425 0.97956 0.0
O12 O 0.89396 0.04522 0.97132 0.0
O13 O 1.01498 0.11103 0.98946 0.0
O14 O 0.12176 0.97342 0.94322 0.0
O15 O 0.99686 0.954 0.9021 0.0
C16 C 0.07766 0.96628 0.90391 0.0
O17 O 0.08255 0.93887 0.08337 0.0
O18 O 0.20902 0.99145 0.1063 0.0
C19 C 0.95428 0.85082 0.04639 0.0
C20 C 0.13999 0.95302 0.1164 0.0
Zn21 Zn 0.72342 0.53934 0.54651 0.0
Zn22 Zn 0.45277 0.47764 0.46483 0.0
Zn23 Zn 0.57885 0.51321 0.50614 0.0
C24 C 0.5592 0.40876 0.42186 0.0
C25 C 0.44195 0.64061 0.44489 0.0
O26 O 0.57816 0.44786 0.58004 0.0
O27 O 0.71465 0.46753 0.60687 0.0
C28 C 0.77074 0.46771 0.47925 0.0
O29 O 0.60637 0.4566 0.44494 0.0
O30 O 0.48287 0.39178 0.43163 0.0
O31 O 0.42187 0.58185 0.42386 0.0
O32 O 0.50254 0.62987 0.47971 0.0
O33 O 0.80834 0.50611 0.50936 0.0
O34 O 0.68676 0.46432 0.47335 0.0
O35 O 0.58826 0.64975 0.5012 0.0
O36 O 0.71392 0.65681 0.5447 0.0
C37 C 0.64855 0.69203 0.52038 0.0
O38 O 0.49851 0.42745 0.55487 0.0
O39 O 0.3719 0.44414 0.51178 0.0
C40 C 0.64079 0.43678 0.61371 0.0
C41 C 0.41559 0.41398 0.54981 0.0
C42 C 0.09669 0.07498 0.43365 0.0
N43 N 0.13744 0.02975 0.40844 0.0
N44 N 0.03367 0.12121 0.40557 0.0
C45 C 0.11114 0.06863 0.48596 0.0
C46 C 0.03728 0.10305 0.36271 0.0
N47 N 0.0995 0.04701 0.36446 0.0
C48 C 0.98269 0.14334 0.31885 0.0
H49 H 0.04967 0.04828 0.50077 0.0
H50 H 0.12779 0.13 0.4945 0.0
H51 H 0.16302 0.02481 0.50266 0.0
H52 H 0.96213 0.20527 0.32207 0.0
H53 H 0.92339 0.10559 0.3133 0.0
H54 H 1.01888 0.14846 0.28776 0.0
C55 C 0.97679 0.08973 0.58014 0.0
N56 N 0.05052 0.0951 0.60977 0.0
N57 N 0.9373 0.01613 0.59135 0.0
C58 C 0.94104 0.15669 0.54139 0.0
C59 C 0.98973 0.97659 0.62858 0.0
N60 N 0.05859 0.02446 0.64005 0.0
C61 C 0.97025 0.89284 0.65581 0.0
H62 H 0.90027 0.19758 0.55582 0.0
H63 H 0.89926 0.13071 0.51429 0.0
H64 H 0.99439 0.19334 0.52528 0.0
H65 H 0.02501 0.85123 0.65622 0.0
H66 H 0.91115 0.86427 0.64029 0.0
H67 H 0.96263 0.89727 0.69261 0.0
C68 C 0.58584 0.53018 0.92205 0.0
N69 N 0.59415 0.47119 0.89662 0.0
N70 N 0.52949 0.58786 0.89815 0.0
C71 C 0.63137 0.53013 0.97057 0.0
C72 C 0.50475 0.56247 0.85709 0.0
N73 N 0.54296 0.4904 0.85631 0.0
C74 C 0.45253 0.61405 0.81582 0.0
H75 H 0.63848 0.46676 0.9908 0.0
H76 H 0.59611 0.56693 0.99017 0.0
H77 H 0.69732 0.55718 0.9676 0.0
H78 H 0.45455 0.67958 0.81909 0.0
H79 H 0.38374 0.59304 0.81428 0.0
H80 H 0.47779 0.60868 0.78248 0.0
C81 C 0.5122 0.56077 0.09242 0.0
N82 N 0.57891 0.55293 0.12751 0.0
N83 N 0.46492 0.4909 0.09421 0.0
C84 C 0.49591 0.63608 0.05521 0.0
C85 C 0.50651 0.43915 0.13069 0.0
N86 N 0.57287 0.47782 0.15306 0.0
C87 C 0.49755 0.34735 0.1354 0.0
H88 H 0.44258 0.62651 0.02789 0.0
H89 H 0.47843 0.6872 0.07195 0.0
H90 H 0.5561 0.65493 0.03874 0.0
H91 H 0.4923 0.32989 0.10025 0.0
H92 H 0.43672 0.3265 0.15086 0.0
H93 H 0.55445 0.31544 0.15707 0.0
H94 H 0.26951 0.28916 0.95958 0.0
H95 H 0.09935 0.24915 0.0685 0.0
H96 H 0.16839 0.36324 0.10159 0.0
H97 H 0.30298 0.44595 0.11125 0.0
H98 H 0.47609 0.48008 0.00444 0.0
H99 H 0.38041 0.39841 0.95801 0.0
C100 C 0.24466 0.30836 0.9891 0.0
C101 C 0.18063 0.26029 0.01212 0.0
C102 C 0.2872 0.37166 0.00894 0.0
C103 C 0.1485 0.28539 0.05021 0.0
C104 C 0.18917 0.34972 0.06964 0.0
C105 C 0.31717 0.43819 0.07681 0.0
C106 C 0.39643 0.4683 0.06108 0.0
C107 C 0.26251 0.38913 0.05119 0.0
C108 C 0.41531 0.45789 0.01675 0.0
C109 C 0.36085 0.41039 0.99059 0.0
H110 H 0.4334 0.88878 0.98231 0.0
H111 H 0.17448 0.80245 0.94295 0.0
H112 H 0.23509 0.69383 0.91061 0.0
H113 H 0.3619 0.61835 0.89833 0.0
H114 H 0.62016 0.70771 0.93383 0.0
H115 H 0.55993 0.82 0.96398 0.0
C116 C 0.39027 0.84658 0.96629 0.0
C117 C 0.29971 0.8532 0.96517 0.0
C118 C 0.42549 0.78458 0.94775 0.0
C119 C 0.24444 0.79875 0.94398 0.0
C120 C 0.279 0.73636 0.9258 0.0
C121 C 0.40452 0.66335 0.91209 0.0
C122 C 0.49487 0.65526 0.91437 0.0
C123 C 0.36933 0.72803 0.9282 0.0
C124 C 0.55032 0.71286 0.93248 0.0
C125 C 0.5159 0.77698 0.94933 0.0
H126 H 0.9318 0.68756 0.05945 0.0
H127 H 0.84902 0.90407 0.10288 0.0
H128 H 0.72502 0.82855 0.13552 0.0
H129 H 0.62822 0.70515 0.1409 0.0
H130 H 0.71209 0.49058 0.09605 0.0
H131 H 0.84674 0.5605 0.0742 0.0
C132 C 0.8884 0.71716 0.07774 0.0
C133 C 0.90047 0.80065 0.07968 0.0
C134 C 0.81594 0.67404 0.09491 0.0
C135 C 0.84279 0.8391 0.10241 0.0
C136 C 0.77077 0.79631 0.12016 0.0
C137 C 0.67708 0.67393 0.1271 0.0
C138 C 0.66112 0.59318 0.11993 0.0
C139 C 0.75481 0.71459 0.11496 0.0
C140 C 0.72407 0.5526 0.10196 0.0
C141 C 0.8007 0.59256 0.08948 0.0
H142 H 0.75898 0.12454 0.95507 0.0
H143 H 0.9914 0.2693 0.97692 0.0
H144 H 0.90574 0.39471 0.95421 0.0
H145 H 0.7651 0.46279 0.92444 0.0
H146 H 0.53494 0.31702 0.90212 0.0
H147 H 0.61992 0.19126 0.9278 0.0
C148 C 0.79126 0.18338 0.95516 0.0
C149 C 0.88168 0.1875 0.96763 0.0
C150 C 0.74207 0.25468 0.94141 0.0
C151 C 0.92198 0.26436 0.96766 0.0
C152 C 0.87309 0.33604 0.95443 0.0
C153 C 0.73402 0.40319 0.92585 0.0
C154 C 0.64446 0.39803 0.91177 0.0
C155 C 0.7833 0.33183 0.94075 0.0
C156 C 0.60408 0.32135 0.91269 0.0
C157 C 0.65247 0.25001 0.92749 0.0
H158 H 0.61448 0.79725 0.57605 0.0
H159 H 0.70601 0.78468 0.44399 0.0
H160 H 0.80242 0.90197 0.45086 0.0
H161 H 0.88933 0.97863 0.50605 0.0
H162 H 0.79625 0.99199 0.63762 0.0
H163 H 0.67113 0.9051 0.6195 0.0
C164 C 0.65123 0.82373 0.54736 0.0
C165 C 0.6539 0.78198 0.50984 0.0
C166 C 0.70895 0.88936 0.55255 0.0
C167 C 0.70241 0.81621 0.47307 0.0
C168 C 0.75926 0.88218 0.47757 0.0
C169 C 0.83945 0.96521 0.52963 0.0
C170 C 0.85254 0.98931 0.57362 0.0
C171 C 0.76775 0.91493 0.51889 0.0
C172 C 0.78748 0.97264 0.60391 0.0
C173 C 0.71637 0.92269 0.59363 0.0
H174 H 0.72836 0.32464 0.44836 0.0
H175 H 0.93805 0.49851 0.46225 0.0
H176 H 0.03944 0.40481 0.44198 0.0
H177 H 0.07095 0.2692 0.42543 0.0
H178 H 0.86233 0.09702 0.40869 0.0
H179 H 0.75733 0.19415 0.42422 0.0
C180 C 0.79542 0.34324 0.44527 0.0
C181 C 0.82532 0.41873 0.45648 0.0
C182 C 0.85381 0.28859 0.43396 0.0
C183 C 0.9133 0.44076 0.4537 0.0
C184 C 0.97155 0.38703 0.44242 0.0
C185 C 1.00252 0.25338 0.42571 0.0
C186 C 0.97388 0.1761 0.41755 0.0
C187 C 0.94304 0.30999 0.43373 0.0
C188 C 0.88506 0.15605 0.4161 0.0
C189 C 0.82537 0.21165 0.42456 0.0
H190 H 0.25642 0.42584 0.57604 0.0
H191 H 0.47201 0.26131 0.5922 0.0
H192 H 0.37613 0.1445 0.61597 0.0
H193 H 0.22533 0.08858 0.61762 0.0
H194 H 1.01196 0.25508 0.60363 0.0
H195 H 0.11175 0.3718 0.59246 0.0
C196 C 0.28302 0.36466 0.58662 0.0
C197 C 0.3709 0.35199 0.5822 0.0
C198 C 0.22702 0.29803 0.59868 0.0
C199 C 0.40479 0.27264 0.59583 0.0
C200 C 0.34952 0.20572 0.60853 0.0
C201 C 0.20125 0.15049 0.61291 0.0
C202 C 0.11094 0.16345 0.6091 0.0
C203 C 0.25968 0.21745 0.60771 0.0
C204 C 0.08048 0.24373 0.60404 0.0
C205 C 0.13775 0.31043 0.59843 0.0
H206 H 0.45955 0.79405 0.47187 0.0
H207 H 0.28415 0.64507 0.39514 0.0
H208 H 0.17301 0.74682 0.38365 0.0
H209 H 0.12187 0.87688 0.39458 0.0
H210 H 0.29621 0.04085 0.45841 0.0
H211 H 0.40928 0.93448 0.47743 0.0
C212 C 0.39743 0.78454 0.45224 0.0
C213 C 0.38138 0.7113 0.43454 0.0
C214 C 0.33235 0.84543 0.44425 0.0
C215 C 0.29992 0.70043 0.4091 0.0
C216 C 0.23516 0.75848 0.40267 0.0
C217 C 0.18481 0.88925 0.41257 0.0
C218 C 0.20078 0.96585 0.42524 0.0
C219 C 0.25034 0.8307 0.42018 0.0
C220 C 0.28217 0.98141 0.44898 0.0
C221 C 0.34701 0.92104 0.45922 0.0
H222 H 0.25477 0.96658 0.19143 0.0
H223 H 0.9858 0.90876 0.15286 0.0
H224 H 0.95116 0.92297 0.23064 0.0
H225 H 0.9941 0.97388 0.30463 0.0
H226 H 0.25956 0.04745 0.33766 0.0
H227 H 0.29973 0.00486 0.26709 0.0
C228 C 0.18866 0.95563 0.20016 0.0
C229 C 0.12239 0.9383 0.16599 0.0
C230 C 0.16876 0.96832 0.24375 0.0
C231 C 0.03772 0.92263 0.17833 0.0
C232 C 1.01784 0.93167 0.22266 0.0
C233 C 0.06056 0.98022 0.2961 0.0
C234 C 0.12381 0.01488 0.32535 0.0
C235 C 0.08211 0.95836 0.25471 0.0
C236 C 0.21026 0.02119 0.3152 0.0
C237 C 0.23293 0.99707 0.27496 0.0
H238 H 0.15182 0.87899 0.84789 0.0
H239 H 0.07739 0.12112 0.86042 0.0
H240 H 0.08133 0.16854 0.77651 0.0
H241 H 0.06902 0.13024 0.69921 0.0
H242 H 0.1584 0.89461 0.68453 0.0
H243 H 0.18652 0.85485 0.77007 0.0
C244 C 0.14059 0.94285 0.8324 0.0
C245 C 0.11344 0.99659 0.85964 0.0
C246 C 0.14324 0.96992 0.78394 0.0
C247 C 0.09847 0.07913 0.83965 0.0
C248 C 0.09995 0.10607 0.7917 0.0
C249 C 0.09908 0.07188 0.71442 0.0
C250 C 0.10738 0.01377 0.68598 0.0
C251 C 0.11704 0.05064 0.76322 0.0
C252 C 0.14702 0.93857 0.70623 0.0
C253 C 0.16342 0.91603 0.75503 0.0
H254 H 0.48777 0.42188 0.65396 0.0
H255 H 0.7635 0.37673 0.68452 0.0
H256 H 0.75597 0.3794 0.76684 0.0
H257 H 0.67887 0.43112 0.82362 0.0
H258 H 0.40055 0.4572 0.79898 0.0
H259 H 0.40138 0.42689 0.72001 0.0
C260 C 0.54534 0.4088 0.67889 0.0
C261 C 0.62667 0.40272 0.6628 0.0
C262 C 0.54082 0.41036 0.72663 0.0
C263 C 0.70044 0.3843 0.69581 0.0
C264 C 0.69649 0.38636 0.74294 0.0
C265 C 0.61769 0.42607 0.80223 0.0
C266 C 0.54024 0.44982 0.81639 0.0
C267 C 0.61821 0.40508 0.75795 0.0
C268 C 0.46166 0.44308 0.78778 0.0
C269 C 0.462 0.42507 0.74283 0.0
H270 H 0.68136 0.48261 0.36622 0.0
H271 H 0.49052 0.28714 0.37857 0.0
H272 H 0.48458 0.28587 0.29526 0.0
H273 H 0.50518 0.36288 0.21954 0.0
H274 H 0.71096 0.54501 0.20448 0.0
H275 H 0.73538 0.53131 0.2886 0.0
C276 C 0.6412 0.4375 0.35104 0.0
C277 C 0.58407 0.38706 0.37825 0.0
C278 C 0.63745 0.43719 0.30255 0.0
C279 C 0.5335 0.3281 0.35819 0.0
C280 C 0.52947 0.32773 0.31039 0.0
C281 C 0.55966 0.39654 0.23307 0.0
C282 C 0.60441 0.45594 0.20307 0.0
C283 C 0.57714 0.3855 0.28193 0.0
C284 C 0.67158 0.50072 0.22456 0.0
C285 C 0.68698 0.49228 0.27355 0.0
loop_
_geom_bond_atom_site_label_1
_geom_bond_atom_site_label_2
_geom_bond_distance
_geom_bond_site_symmetry_2
_ccdc_geom_bond_type
Zn0 O6 1.920 1_545 S
Zn0 O12 1.898 . S
Zn0 O15 1.905 1_545 S
Zn1 O9 1.914 . S
Zn1 O10 1.892 1_545 S
Zn1 O18 1.917 1_545 S
Zn2 O5 2.080 1_445 S
Zn2 O8 2.114 . S
Zn2 O11 2.120 1_545 S
Zn2 O13 2.120 1_455 S
Zn2 O14 2.114 1_554 S
Zn2 O17 2.080 . S
C3 O8 1.166 . S
C3 O9 1.182 . S
C4 O10 1.167 . S
C4 O11 1.299 . S
O5 Zn2 2.080 1_665 S
O5 C19 1.305 . S
O6 Zn0 1.920 1_565 S
O6 C19 1.234 1_556 S
C7 O12 1.167 . S
C7 O13 1.299 1_556 S
O8 Zn2 2.114 . S
O8 C3 1.166 . S
O9 Zn1 1.914 . S
O9 C3 1.182 . S
O10 Zn1 1.892 1_565 S
O10 C4 1.167 . S
O11 Zn2 2.120 1_565 S
O11 C4 1.299 . S
O12 Zn0 1.898 . S
O12 C7 1.167 . S
O13 Zn2 2.120 1_655 S
O13 C7 1.299 1_554 S
O14 Zn2 2.114 1_556 S
O14 C16 1.166 1_545 S
O15 Zn0 1.905 1_565 S
O15 C16 1.182 1_655 S
C16 O14 1.166 1_565 S
C16 O15 1.182 1_455 S
O17 Zn2 2.080 . S
O17 C20 1.305 1_545 S
O18 Zn1 1.917 1_565 S
O18 C20 1.234 . S
C19 O5 1.305 . S
C19 O6 1.234 1_554 S
C20 O17 1.305 1_565 S
C20 O18 1.234 . S
Zn21 O27 1.920 . S
Zn21 O33 1.898 . S
Zn21 O36 1.905 . S
Zn22 O30 1.905 . S
Zn22 O31 1.898 . S
Zn22 O39 1.920 . S
Zn23 O26 2.080 . S
Zn23 O29 2.114 . S
Zn23 O32 2.120 . S
Zn23 O34 2.120 . S
Zn23 O35 2.114 . S
Zn23 O38 2.080 . S
C24 O29 1.166 . S
C24 O30 1.182 . S
C25 O31 1.167 . S
C25 O32 1.299 . S
O26 Zn23 2.080 . S
O26 C40 1.305 . S
O27 Zn21 1.920 . S
O27 C40 1.234 . S
C28 O33 1.167 . S
C28 O34 1.299 . S
O29 Zn23 2.114 . S
O29 C24 1.166 . S
O30 Zn22 1.905 . S
O30 C24 1.182 . S
O31 Zn22 1.898 . S
O31 C25 1.167 . S
O32 Zn23 2.120 . S
O32 C25 1.299 . S
O33 Zn21 1.898 . S
O33 C28 1.167 . S
O34 Zn23 2.120 . S
O34 C28 1.299 . S
O35 Zn23 2.114 . S
O35 C37 1.166 . S
O36 Zn21 1.905 . S
O36 C37 1.182 . S
C37 O35 1.166 . S
C37 O36 1.182 . S
O38 Zn23 2.080 . S
O38 C41 1.305 . S
O39 Zn22 1.920 . S
O39 C41 1.234 . S
C40 O26 1.305 . S
C40 O27 1.234 . S
C41 O38 1.305 . S
C41 O39 1.234 . S
C42 N43 1.317 1_545 S
C42 N44 1.348 . S
C42 C45 1.485 . S
N43 C42 1.317 1_565 S
N43 N47 1.370 1_565 S
N44 C42 1.348 . S
N44 C46 1.346 . S
C45 C42 1.485 . S
C45 H49 0.960 1_545 S
C45 H50 0.961 . S
C45 H51 0.960 1_545 S
C46 N44 1.346 . S
C46 N47 1.307 . S
C46 C48 1.486 1_455 S
N47 N43 1.370 1_545 S
N47 C46 1.307 . S
C48 C46 1.486 1_655 S
C48 H52 0.960 . S
C48 H53 0.960 . S
C48 H54 0.959 . S
H49 C45 0.960 1_565 S
H50 C45 0.961 . S
H51 C45 0.960 1_565 S
H52 C48 0.960 . S
H53 C48 0.960 . S
H54 C48 0.959 . S
C55 N56 1.317 . S
C55 N57 1.348 1_445 S
C55 C58 1.485 . S
N56 C55 1.317 . S
N56 N60 1.370 . S
N57 C55 1.348 1_665 S
N57 C59 1.346 . S
C58 C55 1.485 . S
C58 H62 0.960 1_455 S
C58 H63 0.961 1_545 S
C58 H64 0.960 . S
C59 N57 1.346 . S
C59 N60 1.307 1_665 S
C59 C61 1.486 . S
N60 N56 1.370 . S
N60 C59 1.307 1_445 S
C61 C59 1.486 . S
C61 H65 0.960 . S
C61 H66 0.960 . S
C61 H67 0.959 . S
H62 C58 0.960 1_655 S
H63 C58 0.961 1_565 S
H64 C58 0.960 . S
H65 C61 0.960 . S
H66 C61 0.960 . S
H67 C61 0.959 . S
C68 N69 1.317 . S
C68 N70 1.348 . S
C68 C71 1.485 1_556 S
N69 C68 1.317 . S
N69 N73 1.370 . S
N70 C68 1.348 . S
N70 C72 1.346 . S
C71 C68 1.485 1_554 S
C71 H75 0.960 . S
C71 H76 0.961 . S
C71 H77 0.960 . S
C72 N70 1.346 . S
C72 N73 1.307 . S
C72 C74 1.486 . S
N73 N69 1.370 . S
N73 C72 1.307 . S
C74 C72 1.486 . S
C74 H78 0.960 . S
C74 H79 0.960 . S
C74 H80 0.959 . S
H75 C71 0.960 . S
H76 C71 0.961 . S
H77 C71 0.960 . S
H78 C74 0.960 . S
H79 C74 0.960 . S
H80 C74 0.959 . S
C81 N82 1.317 . S
C81 N83 1.348 . S
C81 C84 1.485 . S
N82 C81 1.317 . S
N82 N86 1.370 . S
N83 C81 1.348 . S
N83 C85 1.346 . S
C84 C81 1.485 . S
C84 H88 0.960 1_554 S
C84 H89 0.961 1_554 S
C84 H90 0.960 . S
C85 N83 1.346 . S
C85 N86 1.307 . S
C85 C87 1.486 . S
N86 N82 1.370 . S
N86 C85 1.307 . S
C87 C85 1.486 . S
C87 H91 0.960 . S
C87 H92 0.960 . S
C87 H93 0.959 . S
H88 C84 0.960 1_556 S
H89 C84 0.961 1_556 S
H90 C84 0.960 . S
H91 C87 0.960 . S
H92 C87 0.960 . S
H93 C87 0.959 . S
H94 C100 0.930 1_556 S
H95 C103 0.930 . S
H96 C104 0.930 . S
H97 C105 0.930 . S
H98 C108 0.930 . S
H99 C109 0.930 1_556 S
C100 H94 0.930 1_554 S
C100 C101 1.355 . S
C100 C102 1.415 . S
C101 C100 1.355 . S
C101 C103 1.419 . S
C102 C100 1.415 . S
C102 C107 1.425 . S
C102 C109 1.409 . S
C103 H95 0.930 . S
C103 C101 1.419 . S
C103 C104 1.362 . S
C104 H96 0.930 . S
C104 C103 1.362 . S
C104 C107 1.409 . S
C105 H97 0.930 . S
C105 C106 1.355 . S
C105 C107 1.415 . S
C106 C105 1.355 . S
C106 C108 1.419 . S
C107 C102 1.425 . S
C107 C104 1.409 . S
C107 C105 1.415 . S
C108 H98 0.930 . S
C108 C106 1.419 . S
C108 C109 1.362 . S
C109 H99 0.930 1_554 S
C109 C102 1.409 . S
C109 C108 1.362 . S
H110 C116 0.930 . S
H111 C119 0.930 . S
H112 C120 0.930 . S
H113 C121 0.930 . S
H114 C124 0.930 . S
H115 C125 0.930 . S
C116 H110 0.930 . S
C116 C117 1.355 1_554 S
C116 C118 1.415 1_554 S
C117 C116 1.355 1_556 S
C117 C119 1.419 . S
C118 C116 1.415 1_556 S
C118 C123 1.425 . S
C118 C125 1.409 1_556 S
C119 H111 0.930 . S
C119 C117 1.419 . S
C119 C120 1.362 . S
C120 H112 0.930 . S
C120 C119 1.362 . S
C120 C123 1.409 . S
C121 H113 0.930 . S
C121 C122 1.355 . S
C121 C123 1.415 . S
C122 C121 1.355 . S
C122 C124 1.419 1_556 S
C123 C118 1.425 . S
C123 C120 1.409 . S
C123 C121 1.415 . S
C124 H114 0.930 . S
C124 C122 1.419 1_554 S
C124 C125 1.362 . S
C125 H115 0.930 . S
C125 C118 1.409 1_554 S
C125 C124 1.362 . S
H126 C132 0.930 . S
H127 C135 0.930 . S
H128 C136 0.930 . S
H129 C137 0.930 . S
H130 C140 0.930 . S
H131 C141 0.930 . S
C132 H126 0.930 . S
C132 C133 1.355 . S
C132 C134 1.415 . S
C133 C132 1.355 . S
C133 C135 1.419 . S
C134 C132 1.415 . S
C134 C139 1.425 . S
C134 C141 1.409 . S
C135 H127 0.930 . S
C135 C133 1.419 . S
C135 C136 1.362 . S
C136 H128 0.930 . S
C136 C135 1.362 . S
C136 C139 1.409 . S
C137 H129 0.930 . S
C137 C138 1.355 . S
C137 C139 1.415 . S
C138 C137 1.355 . S
C138 C140 1.419 . S
C139 C134 1.425 . S
C139 C136 1.409 . S
C139 C137 1.415 . S
C140 H130 0.930 . S
C140 C138 1.419 . S
C140 C141 1.362 . S
C141 H131 0.930 . S
C141 C134 1.409 . S
C141 C140 1.362 . S
H142 C148 0.930 . S
H143 C151 0.930 . S
H144 C152 0.930 1_554 S
H145 C153 0.930 . S
H146 C156 0.930 . S
H147 C157 0.930 . S
C148 H142 0.930 . S
C148 C149 1.355 . S
C148 C150 1.415 . S
C149 C148 1.355 . S
C149 C151 1.419 1_556 S
C150 C148 1.415 . S
C150 C155 1.425 . S
C150 C157 1.409 . S
C151 H143 0.930 . S
C151 C149 1.419 1_554 S
C151 C152 1.362 1_554 S
C152 H144 0.930 1_556 S
C152 C151 1.362 1_556 S
C152 C155 1.409 . S
C153 H145 0.930 . S
C153 C154 1.355 . S
C153 C155 1.415 . S
C154 C153 1.355 . S
C154 C156 1.419 . S
C155 C150 1.425 . S
C155 C152 1.409 . S
C155 C153 1.415 . S
C156 H146 0.930 . S
C156 C154 1.419 . S
C156 C157 1.362 . S
C157 H147 0.930 . S
C157 C150 1.409 . S
C157 C156 1.362 . S
H158 C164 0.930 . S
H159 C167 0.930 . S
H160 C168 0.930 . S
H161 C169 0.930 . S
H162 C172 0.930 1_545 S
H163 C173 0.930 . S
C164 H158 0.930 . S
C164 C165 1.355 . S
C164 C166 1.415 . S
C165 C164 1.355 . S
C165 C167 1.419 . S
C166 C164 1.415 . S
C166 C171 1.425 . S
C166 C173 1.409 . S
C167 H159 0.930 . S
C167 C165 1.419 . S
C167 C168 1.362 . S
C168 H160 0.930 . S
C168 C167 1.362 . S
C168 C171 1.409 . S
C169 H161 0.930 . S
C169 C170 1.355 . S
C169 C171 1.415 . S
C170 C169 1.355 . S
C170 C172 1.419 . S
C171 C166 1.425 . S
C171 C168 1.409 . S
C171 C169 1.415 . S
C172 H162 0.930 1_565 S
C172 C170 1.419 . S
C172 C173 1.362 . S
C173 H163 0.930 . S
C173 C166 1.409 . S
C173 C172 1.362 . S
H174 C180 0.930 . S
H175 C183 0.930 . S
H176 C184 0.930 . S
H177 C185 0.930 1_455 S
H178 C188 0.930 . S
H179 C189 0.930 . S
C180 H174 0.930 . S
C180 C181 1.355 . S
C180 C182 1.415 . S
C181 C180 1.355 . S
C181 C183 1.419 . S
C182 C180 1.415 . S
C182 C187 1.425 . S
C182 C189 1.409 . S
C183 H175 0.930 . S
C183 C181 1.419 . S
C183 C184 1.362 . S
C184 H176 0.930 . S
C184 C183 1.362 . S
C184 C187 1.409 . S
C185 H177 0.930 1_655 S
C185 C186 1.355 . S
C185 C187 1.415 . S
C186 C185 1.355 . S
C186 C188 1.419 . S
C187 C182 1.425 . S
C187 C184 1.409 . S
C187 C185 1.415 . S
C188 H178 0.930 . S
C188 C186 1.419 . S
C188 C189 1.362 . S
C189 H179 0.930 . S
C189 C182 1.409 . S
C189 C188 1.362 . S
H190 C196 0.930 . S
H191 C199 0.930 . S
H192 C200 0.930 . S
H193 C201 0.930 . S
H194 C204 0.930 . S
H195 C205 0.930 . S
C196 H190 0.930 . S
C196 C197 1.355 . S
C196 C198 1.415 . S
C197 C196 1.355 . S
C197 C199 1.419 . S
C198 C196 1.415 . S
C198 C203 1.425 . S
C198 C205 1.409 . S
C199 H191 0.930 . S
C199 C197 1.419 . S
C199 C200 1.362 . S
C200 H192 0.930 . S
C200 C199 1.362 . S
C200 C203 1.409 . S
C201 H193 0.930 . S
C201 C202 1.355 . S
C201 C203 1.415 . S
C202 C201 1.355 . S
C202 C204 1.419 . S
C203 C198 1.425 . S
C203 C200 1.409 . S
C203 C201 1.415 . S
C204 H194 0.930 . S
C204 C202 1.419 . S
C204 C205 1.362 . S
C205 H195 0.930 . S
C205 C198 1.409 . S
C205 C204 1.362 . S
H206 C212 0.930 . S
H207 C215 0.930 . S
H208 C216 0.930 . S
H209 C217 0.930 . S
H210 C220 0.930 . S
H211 C221 0.930 . S
C212 H206 0.930 . S
C212 C213 1.355 . S
C212 C214 1.415 . S
C213 C212 1.355 . S
C213 C215 1.419 . S
C214 C212 1.415 . S
C214 C219 1.425 . S
C214 C221 1.409 . S
C215 H207 0.930 . S
C215 C213 1.419 . S
C215 C216 1.362 . S
C216 H208 0.930 . S
C216 C215 1.362 . S
C216 C219 1.409 . S
C217 H209 0.930 . S
C217 C218 1.355 . S
C217 C219 1.415 . S
C218 C217 1.355 . S
C218 C220 1.419 . S
C219 C214 1.425 . S
C219 C216 1.409 . S
C219 C217 1.415 . S
C220 H210 0.930 . S
C220 C218 1.419 . S
C220 C221 1.362 . S
C221 H211 0.930 . S
C221 C214 1.409 . S
C221 C220 1.362 . S
H222 C228 0.930 . S
H223 C231 0.930 1_545 S
H224 C232 0.930 . S
H225 C233 0.930 1_655 S
H226 C236 0.930 . S
H227 C237 0.930 . S
C228 H222 0.930 . S
C228 C229 1.355 . S
C228 C230 1.415 . S
C229 C228 1.355 . S
C229 C231 1.419 1_455 S
C230 C228 1.415 . S
C230 C235 1.426 1_565 S
C230 C237 1.409 . S
C231 H223 0.930 1_565 S
C231 C229 1.419 1_655 S
C231 C232 1.362 1_565 S
C232 H224 0.930 . S
C232 C231 1.362 1_545 S
C232 C235 1.409 1_655 S
C233 H225 0.930 1_455 S
C233 C234 1.355 . S
C233 C235 1.414 . S
C234 C233 1.355 . S
C234 C236 1.419 1_545 S
C235 C230 1.426 1_545 S
C235 C232 1.409 1_455 S
C235 C233 1.414 . S
C236 H226 0.930 . S
C236 C234 1.419 1_565 S
C236 C237 1.362 . S
C237 H227 0.930 . S
C237 C230 1.409 . S
C237 C236 1.362 . S
H238 C244 0.930 . S
H239 C247 0.930 . S
H240 C248 0.930 . S
H241 C249 0.930 . S
H242 C252 0.930 . S
H243 C253 0.930 . S
C244 H238 0.930 . S
C244 C245 1.355 . S
C244 C246 1.415 . S
C245 C244 1.355 . S
C245 C247 1.419 1_465 S
C246 C244 1.415 . S
C246 C251 1.425 1_465 S
C246 C253 1.409 . S
C247 H239 0.930 . S
C247 C245 1.419 1_645 S
C247 C248 1.362 . S
C248 H240 0.930 . S
C248 C247 1.362 . S
C248 C251 1.409 . S
C249 H241 0.930 . S
C249 C250 1.355 1_655 S
C249 C251 1.415 . S
C250 C249 1.355 1_455 S
C250 C252 1.419 1_545 S
C251 C246 1.425 1_645 S
C251 C248 1.409 . S
C251 C249 1.415 . S
C252 H242 0.930 . S
C252 C250 1.419 1_565 S
C252 C253 1.362 . S
C253 H243 0.930 . S
C253 C246 1.409 . S
C253 C252 1.362 . S
H254 C260 0.930 . S
H255 C263 0.930 . S
H256 C264 0.930 . S
H257 C265 0.930 . S
H258 C268 0.930 . S
H259 C269 0.930 . S
C260 H254 0.930 . S
C260 C261 1.355 . S
C260 C262 1.415 . S
C261 C260 1.355 . S
C261 C263 1.419 . S
C262 C260 1.415 . S
C262 C267 1.425 . S
C262 C269 1.409 . S
C263 H255 0.930 . S
C263 C261 1.419 . S
C263 C264 1.362 . S
C264 H256 0.930 . S
C264 C263 1.362 . S
C264 C267 1.409 . S
C265 H257 0.930 . S
C265 C266 1.355 . S
C265 C267 1.415 . S
C266 C265 1.355 . S
C266 C268 1.419 . S
C267 C262 1.425 . S
C267 C264 1.409 . S
C267 C265 1.415 . S
C268 H258 0.930 . S
C268 C266 1.419 . S
C268 C269 1.362 . S
C269 H259 0.930 . S
C269 C262 1.409 . S
C269 C268 1.362 . S
H270 C276 0.930 . S
H271 C279 0.930 . S
H272 C280 0.930 . S
H273 C281 0.930 . S
H274 C284 0.930 . S
H275 C285 0.930 . S
C276 H270 0.930 . S
C276 C277 1.355 . S
C276 C278 1.415 . S
C277 C276 1.355 . S
C277 C279 1.419 . S
C278 C276 1.415 . S
C278 C283 1.425 . S
C278 C285 1.409 . S
C279 H271 0.930 . S
C279 C277 1.419 . S
C279 C280 1.362 . S
C280 H272 0.930 . S
C280 C279 1.362 . S
C280 C283 1.409 . S
C281 H273 0.930 . S
C281 C282 1.355 . S
C281 C283 1.415 . S
C282 C281 1.355 . S
C282 C284 1.419 . S
C283 C278 1.425 . S
C283 C280 1.409 . S
C283 C281 1.415 . S
C284 H274 0.930 . S
C284 C282 1.419 . S
C284 C285 1.362 . S
C285 H275 0.930 . S
C285 C278 1.409 . S
C285 C284 1.362 . S
C106 N83 1.294 . S
C101 C3 1.147 . S
C117 C4 1.468 1_556 S
C122 N70 1.529 . S
C133 C19 1.490 . S
C138 N82 1.624 . S
C149 C7 1.276 . S
C154 N69 1.385 . S
C165 C37 1.111 . S
C170 N57 1.284 . S
C181 C28 1.399 . S
C186 N44 1.509 1_655 S
C202 N56 1.639 . S
C197 C41 1.556 . S
C218 N43 1.368 . S
C213 C25 1.140 . S
C229 C20 1.414 . S
C234 N47 1.552 . S
C245 C16 1.318 . S
C250 N60 1.479 . S
C266 N73 1.531 . S
C261 C40 1.308 . S
C277 C24 1.316 . S
C282 N86 1.497 . S
