# Generated by pormake.
# Topology pth, (4,4)-cn, num edge types: 1
# Building blocks:
#     Node 0, Type 0, BuildingBlock: KUFVIS_clean_sbu_0, # of connection points: 4
#     Node 1, Type 0, BuildingBlock: KUFVIS_clean_sbu_0, # of connection points: 4
#     Node 2, Type 0, BuildingBlock: KUFVIS_clean_sbu_0, # of connection points: 4
#     Node 3, Type 1, BuildingBlock: MUDLON_clean_linker_0, # of connection points: 4
#     Node 4, Type 1, BuildingBlock: MUDLON_clean_linker_0, # of connection points: 4
#     Node 5, Type 1, BuildingBlock: MUDLON_clean_linker_0, # of connection points: 4
#     Edge 6, Type (0, 1), BuildingBlock: XIVTED_clean_linker_0, # of connection points: 2
#     Edge 7, Type (0, 1), BuildingBlock: XIVTED_clean_linker_0, # of connection points: 2
#     Edge 8, Type (0, 1), BuildingBlock: XIVTED_clean_linker_0, # of connection points: 2
#     Edge 9, Type (0, 1), BuildingBlock: XIVTED_clean_linker_0, # of connection points: 2
#     Edge 10, Type (0, 1), BuildingBlock: XIVTED_clean_linker_0, # of connection points: 2
#     Edge 11, Type (0, 1), BuildingBlock: XIVTED_clean_linker_0, # of connection points: 2
#     Edge 12, Type (0, 1), BuildingBlock: XIVTED_clean_linker_0, # of connection points: 2
#     Edge 13, Type (0, 1), BuildingBlock: XIVTED_clean_linker_0, # of connection points: 2
#     Edge 14, Type (0, 1), BuildingBlock: XIVTED_clean_linker_0, # of connection points: 2
#     Edge 15, Type (0, 1), BuildingBlock: XIVTED_clean_linker_0, # of connection points: 2
#     Edge 16, Type (0, 1), BuildingBlock: XIVTED_clean_linker_0, # of connection points: 2
#     Edge 17, Type (0, 1), BuildingBlock: XIVTED_clean_linker_0, # of connection points: 2
# Relax obj value: 0.038
# Max RMSD: 0.104
# Mean RMSD: 0.093
data_MOF--net-pth--node1-KUFVIS_clean_sbu_0--node2-MUDLON_clean_linker_0--edge1-XIVTED_clean_linker_0
_symmetry_space_group_name_H-M    P1
_symmetry_Int_Tables_number       1
_symmetry_cell_setting            triclinic
loop_
_symmetry_equiv_pos_as_xyz
'x, y, z'
_cell_length_a     33.465986
_cell_length_b     33.532928
_cell_length_c     69.278992
_cell_angle_alpha  90.439774
_cell_angle_beta   91.782476
_cell_angle_gamma 120.2346
loop_
_atom_site_label
_atom_site_type_symbol
_atom_site_fract_x
_atom_site_fract_y
_atom_site_fract_z
_atom_type_partial_charge
Mn0 Mn 0.01598 0.01741 0.02533 0.0
Mn1 Mn 0.94725 0.05118 0.00318 0.0
C2 C 0.97435 0.97942 0.99747 0.0
C3 C 0.02409 0.97176 0.04846 0.0
C4 C 0.052 0.10284 0.00069 0.0
O5 O 0.01114 0.05877 0.04554 0.0
O6 O 0.95949 0.07382 0.03061 0.0
C7 C 0.86225 0.99442 0.02453 0.0
N8 N 0.88409 0.00677 0.0075 0.0
C9 C 0.81448 0.95256 0.9896 0.0
C10 C 0.79113 0.93951 0.00694 0.0
C11 C 0.81515 0.9605 0.02448 0.0
C12 C 0.86135 0.98674 0.99055 0.0
H13 H 0.88069 0.01023 0.03805 0.0
C14 C 0.98574 0.07713 0.04514 0.0
O15 O 0.06015 0.00866 0.04251 0.0
O16 O 0.98395 0.96282 0.04156 0.0
N17 N 0.93242 0.03159 0.97661 0.0
C18 C 0.96032 0.0472 0.96124 0.0
C19 C 0.94176 0.02924 0.94263 0.0
C20 C 0.89472 0.99565 0.94 0.0
C21 C 0.86655 0.98062 0.956 0.0
C22 C 0.88685 1.00018 0.97416 0.0
H23 H 0.99652 0.07294 0.96318 0.0
O24 O 0.00985 0.97616 0.00316 0.0
O25 O 0.9639 0.00413 0.0085 0.0
O26 O 0.05944 0.0746 0.01026 0.0
O27 O 0.01177 0.09786 -0.0023 0.0
C28 C 0.81929 0.94653 0.95467 0.0
C29 C 0.7933 0.93244 0.97146 0.0
H30 H 0.75487 0.91317 0.00697 0.0
H31 H 0.79744 0.95042 0.03793 0.0
H32 H 0.96372 0.04107 0.93035 0.0
H33 H 0.88065 0.98149 0.92565 0.0
H34 H 0.80271 0.93057 0.94083 0.0
H35 H 0.75711 0.90586 0.97028 0.0
Mn36 Mn 0.00602 0.01277 0.35833 0.0
Mn37 Mn 0.08001 0.10885 0.38435 0.0
C38 C 0.05253 0.00885 0.3827 0.0
C39 C 0.9922 0.96557 0.33116 0.0
C40 C 0.97583 0.05554 0.38934 0.0
O41 O 0.00906 0.06476 0.34223 0.0
O42 O 0.0657 0.12662 0.35888 0.0
C43 C 0.16291 0.14419 0.36082 0.0
N44 N 0.14261 0.12989 0.37809 0.0
C45 C 0.21471 0.14619 0.3937 0.0
C46 C 0.23649 0.16142 0.37611 0.0
C47 C 0.21043 0.16026 0.35959 0.0
C48 C 0.16731 0.1307 0.39406 0.0
H49 H 0.14296 0.14329 0.3481 0.0
C50 C 0.03702 0.10816 0.34439 0.0
O51 O 0.95813 0.96432 0.3402 0.0
O52 O 0.03373 0.995 0.33757 0.0
N53 N 0.09703 0.09655 0.40928 0.0
C54 C 0.07008 0.07731 0.42471 0.0
C55 C 0.09044 0.07385 0.44217 0.0
C56 C 0.13829 0.09061 0.44366 0.0
C57 C 0.16537 0.11061 0.42763 0.0
C58 C 0.14317 0.11315 0.4106 0.0
H59 H 0.03332 0.06452 0.42367 0.0
O60 O 0.01539 0.97176 0.37643 0.0
O61 O 0.06144 0.04694 0.3744 0.0
O62 O 0.9659 0.02185 0.37768 0.0
O63 O 0.01683 0.08978 0.3922 0.0
C64 C 0.21334 0.12726 0.42775 0.0
C65 C 0.23797 0.1449 0.41079 0.0
H66 H 0.27308 0.17365 0.37508 0.0
H67 H 0.22694 0.17172 0.34594 0.0
H68 H 0.0693 0.05829 0.45447 0.0
H69 H 0.15382 0.0876 0.45711 0.0
H70 H 0.23148 0.12591 0.44073 0.0
H71 H 0.27466 0.15676 0.41097 0.0
Mn72 Mn 0.02949 0.03743 0.69752 0.0
Mn73 Mn 0.98944 0.09446 0.72354 0.0
C74 C 0.07011 0.0792 0.72504 0.0
C75 C 0.0736 0.0367 0.67231 0.0
C76 C 0.94881 0.99051 0.7244 0.0
O77 O 0.98176 0.03899 0.67908 0.0
O78 O 0.96222 0.08288 0.69675 0.0
C79 C 0.03367 0.1829 0.70312 0.0
N80 N 0.02678 0.15932 0.71976 0.0
C81 C 0.07644 0.22945 0.73809 0.0
C82 C 0.08382 0.25453 0.72116 0.0
C83 C 0.0624 0.23113 0.7036 0.0
C84 C 0.04726 0.18147 0.73673 0.0
H85 H 0.01744 0.16501 0.68958 0.0
C86 C 0.95967 0.0605 0.68123 0.0
O87 O 0.04046 0.99847 0.67889 0.0
O88 O 0.0799 0.07491 0.67997 0.0
N89 N 0.01331 0.10826 0.74971 0.0
C90 C 0.00417 0.0788 0.76455 0.0
C91 C 0.0237 0.09663 0.78307 0.0
C92 C 0.05215 0.14452 0.78616 0.0
C93 C 0.06063 0.17418 0.77072 0.0
C94 C 0.03984 0.15446 0.75263 0.0
H95 H 0.98232 0.04196 0.76227 0.0
O96 O 0.07668 0.0469 0.71823 0.0
O97 O 0.04034 0.08621 0.71544 0.0
O98 O 0.97747 0.98835 0.71331 0.0
O99 O 0.94975 0.02815 0.72867 0.0
C100 C 0.08957 0.22248 0.77248 0.0
C101 C 0.09756 0.25008 0.75617 0.0
H102 H 0.10617 0.2917 0.72146 0.0
H103 H 0.06812 0.25022 0.69047 0.0
H104 H 0.01699 0.0735 0.79491 0.0
H105 H 0.06756 0.1581 0.80041 0.0
H106 H 0.10638 0.23868 0.78626 0.0
H107 H 0.12039 0.2871 0.75765 0.0
H108 H 0.89434 0.65563 0.19748 0.0
N109 N 0.96528 0.64616 0.188 0.0
H110 H 0.89281 0.70508 0.22327 0.0
H111 H 0.03084 0.68807 0.2177 0.0
H112 H 0.02913 0.73619 0.24362 0.0
H113 H 0.05033 0.72419 0.18497 0.0
H114 H 0.07411 0.77875 0.15886 0.0
H115 H 0.91828 0.63828 0.15536 0.0
H116 H 0.94057 0.69386 0.12961 0.0
H117 H 0.90885 0.55548 0.18601 0.0
H118 H 0.05317 0.65932 0.19277 0.0
H119 H 0.92935 0.49506 0.18678 0.0
H120 H 0.07377 0.59983 0.19495 0.0
H121 H 0.98387 0.32127 0.20255 0.0
H122 H 0.97779 0.27419 0.23002 0.0
H123 H 0.10636 0.3864 0.2547 0.0
H124 H 0.11362 0.43195 0.22627 0.0
H125 H 0.11772 0.38109 0.18194 0.0
H126 H 0.10497 0.32612 0.15599 0.0
H127 H 0.97153 0.31239 0.14207 0.0
H128 H 0.98356 0.36506 0.16899 0.0
H129 H 0.97745 0.39642 0.20697 0.0
H130 H 0.95535 0.45536 0.20604 0.0
H131 H 0.08065 0.54566 0.17668 0.0
N132 N 0.05872 0.40513 0.19454 0.0
H133 H 0.1038 0.48748 0.17895 0.0
C134 C 0.96249 0.66794 0.20553 0.0
C135 C 0.92337 0.67231 0.20782 0.0
C136 C 0.92258 0.70056 0.22256 0.0
C137 C 0.96113 0.7251 0.23535 0.0
C138 C 0.99923 0.71851 0.23376 0.0
C139 C 1.00005 0.69043 0.21896 0.0
C140 C 0.98252 0.67664 0.17196 0.0
C141 C 0.0267 0.71653 0.17267 0.0
C142 C 0.04004 0.74821 0.15781 0.0
C143 C 0.00931 0.74101 0.14208 0.0
C144 C 0.96564 0.70034 0.14124 0.0
C145 C 0.9526 0.66853 0.15598 0.0
C146 C 0.97911 0.61189 0.18955 0.0
C147 C 0.94488 0.56518 0.188 0.0
C148 C 0.95674 0.53071 0.18857 0.0
C149 C 0.00334 0.5423 0.19096 0.0
C150 C 0.03759 0.58934 0.19274 0.0
C151 C 0.02572 0.62372 0.19181 0.0
C152 C 0.04994 0.37985 0.21217 0.0
C153 C 0.01065 0.33583 0.21391 0.0
C154 C 0.00701 0.30901 0.22981 0.0
C155 C 0.04202 0.32598 0.24454 0.0
C156 C 0.07944 0.37148 0.2434 0.0
C157 C 0.08345 0.39789 0.22729 0.0
C158 C 0.05205 0.37764 0.17731 0.0
C159 C 0.08604 0.36663 0.17307 0.0
C160 C 0.07865 0.33526 0.15813 0.0
C161 C 0.03714 0.31457 0.14677 0.0
C162 C 0.00359 0.32687 0.15065 0.0
C163 C 0.01071 0.35768 0.16589 0.0
C164 C 0.04297 0.438 0.19336 0.0
C165 C 0.00041 0.42905 0.20052 0.0
C166 C 0.98753 0.46278 0.19976 0.0
C167 C 0.01635 0.50575 0.19145 0.0
C168 C 0.05808 0.5137 0.1837 0.0
C169 C 0.07126 0.48033 0.18479 0.0
H170 H 0.75711 0.14301 0.54154 0.0
N171 N 0.68099 0.07504 0.52442 0.0
H172 H 0.80125 0.13812 0.56936 0.0
H173 H 0.65787 0.998 0.54491 0.0
H174 H 0.70211 0.99242 0.57277 0.0
H175 H 0.6753 0.99559 0.51103 0.0
H176 H 0.71421 0.98854 0.48304 0.0
H177 H 0.7177 0.13573 0.49663 0.0
H178 H 0.75479 0.1285 0.468 0.0
H179 H 0.65996 0.12999 0.54371 0.0
H180 H 0.59879 0.00274 0.51017 0.0
H181 H 0.58402 0.12209 0.54678 0.0
H182 H 0.52261 0.99592 0.51195 0.0
H183 H 0.356 0.122 0.53828 0.0
H184 H 0.30949 0.11925 0.56529 0.0
H185 H 0.29726 0.9899 0.58233 0.0
H186 H 0.34299 0.99265 0.55493 0.0
H187 H 0.28505 0.98526 0.52402 0.0
H188 H 0.2329 0.96557 0.49614 0.0
H189 H 0.34705 0.06171 0.46227 0.0
H190 H 0.39795 0.08502 0.49106 0.0
H191 H 0.45878 0.13045 0.52706 0.0
H192 H 0.53223 0.13181 0.52719 0.0
H193 H 0.45898 0.98287 0.53068 0.0
N194 N 0.37467 0.05757 0.52709 0.0
H195 H 0.38521 0.98222 0.52936 0.0
C196 C 0.70461 0.07097 0.54126 0.0
C197 C 0.74487 0.11019 0.54843 0.0
C198 C 0.76983 0.1073 0.5643 0.0
C199 C 0.75507 0.06487 0.57323 0.0
C200 C 0.71445 0.02544 0.56605 0.0
C201 C 0.68916 0.02854 0.55024 0.0
C202 C 0.69458 0.06662 0.50604 0.0
C203 C 0.69201 0.02445 0.50154 0.0
C204 C 0.714 0.02039 0.48541 0.0
C205 C 0.73849 0.0583 0.47346 0.0
C206 C 0.73733 0.09903 0.47717 0.0
C207 C 0.71582 0.10317 0.49338 0.0
C208 C 0.6351 0.06751 0.52649 0.0
C209 C 0.62995 0.1004 0.53693 0.0
C210 C 0.5865 0.09597 0.53849 0.0
C211 C 0.54708 0.05887 0.52925 0.0
C212 C 0.55206 0.02486 0.51932 0.0
C213 C 0.5957 0.02892 0.5181 0.0
C214 C 0.35313 0.05785 0.5447 0.0
C215 C 0.34399 0.0936 0.54811 0.0
C216 C 0.31748 0.09193 0.56356 0.0
C217 C 0.29951 0.05425 0.57596 0.0
C218 C 0.31013 0.01912 0.57292 0.0
C219 C 0.33677 0.0209 0.55742 0.0
C220 C 0.34545 0.03784 0.50985 0.0
C221 C 0.29908 0.0022 0.51064 0.0
C222 C 0.2691 0.99041 0.49442 0.0
C223 C 0.28508 0.01275 0.47681 0.0
C224 C 0.33266 0.04502 0.47566 0.0
C225 C 0.3622 0.05795 0.49207 0.0
C226 C 0.417 0.05649 0.52847 0.0
C227 C 0.45881 0.09824 0.528 0.0
C228 C 0.50072 0.09881 0.52822 0.0
C229 C 0.50182 0.05744 0.52922 0.0
C230 C 0.45955 0.01536 0.52979 0.0
C231 C 0.41739 0.01488 0.5293 0.0
H232 H 0.703 0.73047 0.8569 0.0
N233 N 0.69011 0.643 0.85283 0.0
H234 H 0.74849 0.78722 0.88241 0.0
H235 H 0.72998 0.63086 0.8844 0.0
H236 H 0.77464 0.68773 0.91052 0.0
H237 H 0.76451 0.6571 0.8346 0.0
H238 H 0.79739 0.70448 0.80644 0.0
H239 H 0.64583 0.67492 0.82895 0.0
H240 H 0.67762 0.72104 0.80043 0.0
H241 H 0.62663 0.66 0.87011 0.0
H242 H 0.64231 0.55585 0.84006 0.0
H243 H 0.54614 0.60451 0.87496 0.0
H244 H 0.56022 0.50066 0.84338 0.0
H245 H 0.27825 0.40927 0.88408 0.0
H246 H 0.23788 0.36593 0.9121 0.0
H247 H 0.34912 0.33879 0.925 0.0
H248 H 0.38798 0.38029 0.89657 0.0
H249 H 0.34967 0.33347 0.86422 0.0
H250 H 0.30811 0.27686 0.83808 0.0
H251 H 0.26422 0.36729 0.81334 0.0
H252 H 0.30738 0.42443 0.83928 0.0
H253 H 0.39183 0.50681 0.86633 0.0
H254 H 0.47286 0.56307 0.86125 0.0
H255 H 0.50591 0.45394 0.86466 0.0
N256 N 0.35339 0.41631 0.8694 0.0
H257 H 0.42465 0.39803 0.86796 0.0
C258 C 0.71387 0.67639 0.86849 0.0
C259 C 0.71869 0.72066 0.86838 0.0
C260 C 0.74458 0.75316 0.88301 0.0
C261 C 0.76528 0.74186 0.89827 0.0
C262 C 0.7589 0.69716 0.89887 0.0
C263 C 0.7336 0.66481 0.88401 0.0
C264 C 0.70298 0.66253 0.83396 0.0
C265 C 0.74487 0.66997 0.82686 0.0
C266 C 0.76349 0.69697 0.81072 0.0
C267 C 0.74038 0.71704 0.80129 0.0
C268 C 0.69669 0.70676 0.80757 0.0
C269 C 0.67818 0.67991 0.82378 0.0
C270 C 0.64117 0.61184 0.85504 0.0
C271 C 0.61285 0.62524 0.86441 0.0
C272 C 0.56621 0.59334 0.86697 0.0
C273 C 0.54623 0.54765 0.85971 0.0
C274 C 0.57435 0.53497 0.84971 0.0
C275 C 0.62126 0.56661 0.84758 0.0
C276 C 0.33608 0.39827 0.88808 0.0
C277 C 0.29434 0.39481 0.89323 0.0
C278 C 0.27142 0.37009 0.90933 0.0
C279 C 0.29001 0.34843 0.92082 0.0
C280 C 0.33329 0.35422 0.91629 0.0
C281 C 0.35596 0.37856 0.90002 0.0
C282 C 0.33179 0.38339 0.85357 0.0
C283 C 0.33183 0.34149 0.853 0.0
C284 C 0.30756 0.30887 0.83814 0.0
C285 C 0.28266 0.31742 0.82364 0.0
C286 C 0.28353 0.35981 0.8241 0.0
C287 C 0.30795 0.39242 0.83892 0.0
C288 C 0.40215 0.44846 0.86795 0.0
C289 C 0.41681 0.49531 0.86607 0.0
C290 C 0.46329 0.52742 0.86327 0.0
C291 C 0.49648 0.5134 0.86263 0.0
C292 C 0.48158 0.46624 0.86473 0.0
C293 C 0.4349 0.43405 0.86704 0.0
H294 H 0.92134 0.0986 0.05713 0.0
H295 H 0.10011 0.31037 0.12338 0.0
H296 H 0.05977 0.12538 0.0703 0.0
H297 H 0.95436 0.23745 0.13511 0.0
H298 H 0.08603 0.24943 0.10007 0.0
H299 H 0.9325 0.15551 0.08237 0.0
C300 C 0.95388 0.11614 0.06544 0.0
C301 C 0.98968 0.10724 0.06165 0.0
C302 C 0.05723 0.24689 0.10781 0.0
C303 C 0.0029 0.17286 0.09004 0.0
C304 C 0.06518 0.28158 0.12121 0.0
C305 C 0.02849 0.27916 0.13151 0.0
C306 C 0.01215 0.20985 0.10429 0.0
C307 C 0.98375 0.24143 0.12743 0.0
C308 C 0.96016 0.14848 0.0798 0.0
C309 C 0.03115 0.13093 0.07283 0.0
N310 N 0.9768 0.20837 0.11408 0.0
N311 N 0.03686 0.16312 0.08635 0.0
H312 H 0.98227 0.12571 0.41188 0.0
H313 H 0.72384 0.98674 0.44861 0.0
H314 H 0.88447 0.9864 0.39192 0.0
H315 H 0.82482 0.1276 0.46517 0.0
H316 H 0.77965 0.98541 0.42681 0.0
H317 H 0.92261 0.12646 0.43047 0.0
C318 C 0.94818 0.09513 0.41137 0.0
C319 C 0.93861 0.0558 0.40032 0.0
C320 C 0.78926 0.01667 0.4351 0.0
C321 C 0.86947 0.0565 0.42184 0.0
C322 C 0.75751 0.01743 0.44759 0.0
C323 C 0.76948 0.05741 0.45873 0.0
C324 C 0.83331 0.05607 0.43387 0.0
C325 C 0.8135 0.09625 0.45667 0.0
C326 C 0.91393 0.09565 0.42202 0.0
C327 C 0.89348 0.01746 0.40024 0.0
N328 N 0.8437 0.09448 0.44461 0.0
N329 N 0.86057 0.01867 0.41093 0.0
H330 H 0.87806 0.97963 0.74668 0.0
H331 H 0.79576 0.71804 0.7724 0.0
H332 H 0.93804 0.90348 0.72247 0.0
H333 H 0.7406 0.79814 0.797 0.0
H334 H 0.8428 0.78237 0.75151 0.0
H335 H 0.82232 0.9104 0.76269 0.0
C336 C 0.87948 0.94832 0.74464 0.0
C337 C 0.9132 0.94765 0.73329 0.0
C338 C 0.81998 0.78559 0.76134 0.0
C339 C 0.84912 0.86783 0.75176 0.0
C340 C 0.79319 0.74893 0.7733 0.0
C341 C 0.76426 0.75266 0.78658 0.0
C342 C 0.81795 0.82634 0.7627 0.0
C343 C 0.76188 0.7933 0.78688 0.0
C344 C 0.84748 0.90866 0.75381 0.0
C345 C 0.91288 0.90577 0.73114 0.0
N346 N 0.78862 0.82858 0.77527 0.0
N347 N 0.88155 0.86761 0.74041 0.0
H348 H 0.96396 0.88016 0.04989 0.0
H349 H 0.05903 0.83578 0.14708 0.0
H350 H 0.09202 0.98837 0.07623 0.0
H351 H 0.98631 0.72849 0.10317 0.0
H352 H 0.06967 0.8934 0.12323 0.0
H353 H 0.9675 0.82487 0.07144 0.0
C354 C 0.99287 0.89229 0.06027 0.0
C355 C 0.02764 0.93891 0.0614 0.0
C356 C 0.05196 0.85724 0.11883 0.0
C357 C 0.03168 0.87573 0.08621 0.0
C358 C 0.04599 0.82422 0.1324 0.0
C359 C 0.0211 0.77688 0.12727 0.0
C360 C 0.0322 0.84279 0.10014 0.0
C361 C 0.00453 0.76431 0.10802 0.0
C362 C 0.99503 0.86062 0.07245 0.0
C363 C 0.06455 0.95265 0.07496 0.0
N364 N 0.00975 0.79697 0.09526 0.0
N365 N 0.06532 0.92121 0.0871 0.0
H366 H 0.14318 0.04305 0.37603 0.0
H367 H 0.20039 0.93502 0.46679 0.0
H368 H 0.0383 0.96197 0.41615 0.0
H369 H 0.29264 0.07492 0.44927 0.0
H370 H 0.14271 0.92944 0.44269 0.0
H371 H 0.20105 0.03867 0.39715 0.0
C372 C 0.13259 0.02474 0.38942 0.0
C373 C 0.08679 0.00502 0.39503 0.0
C374 C 0.17596 0.96099 0.44411 0.0
C375 C 0.15163 0.99765 0.4185 0.0
C376 C 0.20893 0.96451 0.45795 0.0
C377 C 0.2518 0.00579 0.46045 0.0
C378 C 0.18638 0.99839 0.43228 0.0
C379 C 0.26085 0.04202 0.4479 0.0
C380 C 0.16533 0.02181 0.40128 0.0
C381 C 0.07383 0.97901 0.41179 0.0
N382 N 0.22849 0.03738 0.43438 0.0
N383 N 0.10631 0.9764 0.42313 0.0
H384 H 0.09295 0.06221 0.76094 0.0
H385 H 0.27149 0.32995 0.78517 0.0
H386 H 0.12446 0.17118 0.72108 0.0
H387 H 0.22949 0.22359 0.82746 0.0
H388 H 0.22202 0.27128 0.76083 0.0
H389 H 0.1482 0.11974 0.78482 0.0
C390 C 0.11157 0.09834 0.75732 0.0
C391 C 0.10316 0.11259 0.73949 0.0
C392 C 0.22382 0.26072 0.77541 0.0
C393 C 0.16678 0.17806 0.76622 0.0
C394 C 0.25188 0.29427 0.78936 0.0
C395 C 0.25462 0.28178 0.80843 0.0
C396 C 0.19836 0.21422 0.78052 0.0
C397 C 0.22897 0.23481 0.8129 0.0
C398 C 0.14302 0.13109 0.77085 0.0
C399 C 0.12895 0.15934 0.73505 0.0
N400 N 0.20182 0.20277 0.79906 0.0
N401 N 0.15939 0.19053 0.74839 0.0
H402 H 0.93102 0.00629 0.64794 0.0
H403 H 0.79166 0.1235 0.60464 0.0
H404 H 0.91851 0.11294 0.67771 0.0
H405 H 0.78134 0.00046 0.57943 0.0
H406 H 0.84099 0.12169 0.63089 0.0
H407 H 0.87935 0.0054 0.62189 0.0
C408 C 0.91755 0.02957 0.64901 0.0
C409 C 0.92916 0.0597 0.66509 0.0
C410 C 0.82783 0.09492 0.61969 0.0
C411 C 0.87007 0.0588 0.63535 0.0
C412 C 0.7998 0.09605 0.60466 0.0
C413 C 0.78255 0.06217 0.58982 0.0
C414 C 0.8391 0.05984 0.61983 0.0
C415 C 0.79369 0.02705 0.59068 0.0
C416 C 0.8879 0.02888 0.63417 0.0
C417 C 0.91047 0.08895 0.66568 0.0
N418 N 0.82155 0.02695 0.60538 0.0
N419 N 0.88203 0.08783 0.65103 0.0
H420 H 0.9937 0.97186 0.9603 0.0
H421 H 0.76022 0.73558 0.93755 0.0
H422 H 0.8849 0.91275 0.0009 0.0
H423 H 0.83725 0.82839 0.8926 0.0
H424 H 0.81032 0.79523 0.96183 0.0
H425 H 0.94143 0.91431 0.93574 0.0
C426 C 0.95857 0.94696 0.96389 0.0
C427 C 0.94272 0.94767 0.98226 0.0
C428 C 0.81605 0.8025 0.94664 0.0
C429 C 0.88379 0.88111 0.95481 0.0
C430 C 0.78775 0.7685 0.93285 0.0
C431 C 0.79476 0.7773 0.91313 0.0
C432 C 0.85211 0.84504 0.94061 0.0
C433 C 0.83065 0.82051 0.9077 0.0
C434 C 0.92888 0.91426 0.94997 0.0
C435 C 0.89762 0.91397 0.9866 0.0
N436 N 0.8583 0.85271 0.92138 0.0
N437 N 0.86961 0.88184 0.97296 0.0
H438 H 0.05647 0.97004 0.3069 0.0
H439 H 0.89204 0.72029 0.25769 0.0
H440 H 0.91194 0.88648 0.31926 0.0
H441 H 0.0349 0.81069 0.24426 0.0
H442 H 0.89693 0.78045 0.27965 0.0
H443 H 0.04736 0.91233 0.28299 0.0
C444 C 0.02262 0.93963 0.30446 0.0
C445 C 0.98494 0.93295 0.31515 0.0
C446 C 0.92715 0.78701 0.27188 0.0
C447 C 0.9743 0.86612 0.28783 0.0
C448 C 0.92439 0.75273 0.25934 0.0
C449 C 0.96327 0.76021 0.24924 0.0
C450 C 0.96905 0.82908 0.2743 0.0
C451 C 0.00432 0.80285 0.25203 0.0
C452 C 0.01744 0.90656 0.2908 0.0
C453 C 0.94188 0.89297 0.3113 0.0
N454 N 0.0061 0.83551 0.26427 0.0
N455 N 0.93778 0.86078 0.29803 0.0
H456 H 0.07081 0.96313 0.65313 0.0
H457 H 0.30663 0.12332 0.59983 0.0
H458 H 0.14842 0.11194 0.65824 0.0
H459 H 0.22 0.97737 0.58695 0.0
H460 H 0.25109 0.11828 0.62305 0.0
H461 H 0.12661 0.96617 0.63018 0.0
C462 C 0.09939 0.99639 0.64935 0.0
C463 C 0.10494 0.03733 0.65759 0.0
C464 C 0.24422 0.08728 0.61518 0.0
C465 C 0.16901 0.04104 0.63159 0.0
C466 C 0.27592 0.09018 0.60188 0.0
C467 C 0.26791 0.05078 0.59131 0.0
C468 C 0.20409 0.04466 0.61803 0.0
C469 C 0.22787 0.00857 0.59489 0.0
C470 C 0.13126 0.9981 0.6363 0.0
C471 C 0.14268 0.07948 0.65224 0.0
N472 N 0.19736 0.00664 0.6079 0.0
N473 N 0.17328 0.08021 0.63965 0.0
H474 H 0.05737 0.18314 0.98931 0.0
H475 H 0.28401 0.26656 0.93102 0.0
H476 H 0.13664 0.11393 0.99232 0.0
H477 H 0.23185 0.35701 0.94565 0.0
H478 H 0.23123 0.21045 0.95342 0.0
H479 H 0.12054 0.24675 0.97293 0.0
C480 C 0.08818 0.18141 0.98661 0.0
C481 C 0.09158 0.14297 0.99208 0.0
C482 C 0.23178 0.24284 0.9519 0.0
C483 C 0.16396 0.21566 0.97319 0.0
C484 C 0.26219 0.27518 0.93918 0.0
C485 C 0.26229 0.31667 0.93623 0.0
C486 C 0.20067 0.25162 0.96156 0.0
C487 C 0.23236 0.32515 0.94705 0.0
C488 C 0.12435 0.21789 0.97735 0.0
C489 C 0.13254 0.14287 0.98835 0.0
N490 N 0.20238 0.29268 0.95903 0.0
N491 N 0.16693 0.17841 0.97891 0.0
H492 H 0.96677 0.0926 0.31832 0.0
H493 H 0.11578 0.32445 0.26232 0.0
H494 H 0.10646 0.19492 0.33662 0.0
H495 H 0.96648 0.25653 0.26239 0.0
H496 H 0.11395 0.27201 0.28679 0.0
H497 H 0.96705 0.14644 0.29443 0.0
C498 C 0.99752 0.12622 0.31725 0.0
C499 C 0.03664 0.13931 0.32949 0.0
C500 C 0.08164 0.2688 0.2815 0.0
C501 C 0.0372 0.20064 0.30223 0.0
C502 C 0.08258 0.29906 0.26761 0.0
C503 C 0.0412 0.29538 0.26022 0.0
C504 C 0.03904 0.23391 0.28788 0.0
C505 C 0.99927 0.26046 0.26736 0.0
C506 C 0.99752 0.15696 0.30373 0.0
C507 C 0.07545 0.18343 0.32756 0.0
N508 N 0.99924 0.23088 0.28069 0.0
N509 N 0.07485 0.21237 0.31412 0.0
loop_
_geom_bond_atom_site_label_1
_geom_bond_atom_site_label_2
_geom_bond_distance
_geom_bond_site_symmetry_2
_ccdc_geom_bond_type
Mn0 O5 2.095 . S
Mn0 O15 2.162 1_545 S
Mn0 O16 2.297 1_545 S
Mn0 O24 2.385 1_545 S
Mn0 O25 2.209 1_455 S
Mn0 O26 2.094 . S
Mn1 O6 2.121 . S
Mn1 N8 2.257 . S
Mn1 N17 2.282 1_554 S
Mn1 O25 2.215 . S
Mn1 O27 2.117 1_654 S
C2 O24 1.234 1_655 S
C2 O25 1.283 1_565 S
C3 O15 1.281 . S
C3 O16 1.236 . S
C4 O26 1.266 . S
C4 O27 1.259 1_554 S
O5 Mn0 2.095 . S
O5 C14 1.250 . S
O6 Mn1 2.121 . S
O6 C14 1.258 1_655 S
C7 N8 1.326 . S
C7 C11 1.460 . S
C7 H13 0.929 . S
N8 Mn1 2.257 . S
N8 C7 1.326 . S
N8 C12 1.362 1_554 S
C9 C10 1.258 . S
C9 C12 1.431 . S
C9 C29 1.449 . S
C10 C9 1.258 . S
C10 C11 1.477 1_556 S
C10 H30 0.931 . S
C11 C7 1.460 . S
C11 C10 1.477 1_554 S
C11 H31 0.930 . S
C12 N8 1.362 1_556 S
C12 C9 1.431 . S
C12 C22 1.476 . S
H13 C7 0.929 . S
C14 O5 1.250 . S
C14 O6 1.258 1_455 S
O15 Mn0 2.162 1_565 S
O15 C3 1.281 . S
O16 Mn0 2.297 1_565 S
O16 C3 1.236 . S
N17 Mn1 2.282 1_556 S
N17 C18 1.328 . S
N17 C22 1.318 . S
C18 N17 1.328 . S
C18 C19 1.457 . S
C18 H23 0.929 1_655 S
C19 C18 1.457 . S
C19 C20 1.291 . S
C19 H32 0.931 . S
C20 C19 1.291 . S
C20 C21 1.373 . S
C20 H33 0.929 1_545 S
C21 C20 1.373 . S
C21 C22 1.396 . S
C21 C28 1.403 . S
C22 C12 1.476 . S
C22 N17 1.318 . S
C22 C21 1.396 . S
H23 C18 0.929 1_455 S
O24 Mn0 2.385 1_565 S
O24 C2 1.234 1_455 S
O25 Mn0 2.209 1_655 S
O25 Mn1 2.215 . S
O25 C2 1.283 1_545 S
O26 Mn0 2.094 . S
O26 C4 1.266 . S
O27 Mn1 2.117 1_456 S
O27 C4 1.259 1_556 S
C28 C21 1.403 . S
C28 C29 1.399 . S
C28 H34 0.929 1_545 S
C29 C9 1.449 . S
C29 C28 1.399 . S
C29 H35 0.922 . S
H30 C10 0.931 . S
H31 C11 0.930 . S
H32 C19 0.931 . S
H33 C20 0.929 1_565 S
H34 C28 0.929 1_565 S
H35 C29 0.922 . S
Mn36 O41 2.095 . S
Mn36 O51 2.162 1_545 S
Mn36 O52 2.297 1_645 S
Mn36 O60 2.385 1_645 S
Mn36 O61 2.209 1_655 S
Mn36 O62 2.094 1_545 S
Mn37 O42 2.121 . S
Mn37 N44 2.257 . S
Mn37 N53 2.282 . S
Mn37 O61 2.215 . S
Mn37 O63 2.117 1_455 S
C38 O60 1.234 1_545 S
C38 O61 1.283 . S
C39 O51 1.280 1_455 S
C39 O52 1.236 . S
C40 O62 1.240 1_545 S
C40 O63 1.264 . S
O41 Mn36 2.095 . S
O41 C50 1.250 1_655 S
O42 Mn37 2.121 . S
O42 C50 1.258 . S
C43 N44 1.326 . S
C43 C47 1.460 . S
C43 H49 0.929 . S
N44 Mn37 2.257 . S
N44 C43 1.326 . S
N44 C48 1.362 . S
C45 C46 1.258 . S
C45 C48 1.431 . S
C45 C65 1.449 . S
C46 C45 1.258 . S
C46 C47 1.477 . S
C46 H66 0.931 . S
C47 C43 1.460 . S
C47 C46 1.477 . S
C47 H67 0.930 . S
C48 N44 1.362 . S
C48 C45 1.431 . S
C48 C58 1.476 . S
H49 C43 0.929 . S
C50 O41 1.250 1_455 S
C50 O42 1.258 . S
O51 Mn36 2.162 1_565 S
O51 C39 1.280 1_655 S
O52 Mn36 2.297 1_465 S
O52 C39 1.236 . S
N53 Mn37 2.282 . S
N53 C54 1.328 . S
N53 C58 1.318 . S
C54 N53 1.328 . S
C54 C55 1.457 . S
C54 H59 0.929 . S
C55 C54 1.457 . S
C55 C56 1.291 . S
C55 H68 0.931 . S
C56 C55 1.291 . S
C56 C57 1.373 . S
C56 H69 0.929 . S
C57 C56 1.373 . S
C57 C58 1.396 . S
C57 C64 1.403 . S
C58 C48 1.476 . S
C58 N53 1.318 . S
C58 C57 1.396 . S
H59 C54 0.929 . S
O60 Mn36 2.385 1_465 S
O60 C38 1.234 1_565 S
O61 Mn36 2.209 1_455 S
O61 Mn37 2.215 . S
O61 C38 1.283 . S
O62 Mn36 2.094 1_565 S
O62 C40 1.240 1_565 S
O63 Mn37 2.117 1_655 S
O63 C40 1.264 . S
C64 C57 1.403 . S
C64 C65 1.399 . S
C64 H70 0.929 . S
C65 C45 1.449 . S
C65 C64 1.399 . S
C65 H71 0.930 . S
H66 C46 0.931 . S
H67 C47 0.930 . S
H68 C55 0.931 . S
H69 C56 0.929 . S
H70 C64 0.929 . S
H71 C65 0.930 . S
Mn72 O77 2.095 1_455 S
Mn72 O87 2.162 1_545 S
Mn72 O88 2.297 . S
Mn72 O96 2.385 . S
Mn72 O97 2.209 . S
Mn72 O98 2.094 1_445 S
Mn73 O78 2.121 . S
Mn73 N80 2.257 . S
Mn73 N89 2.282 . S
Mn73 O97 2.215 1_655 S
Mn73 O99 2.117 1_545 S
C74 O96 1.234 . S
C74 O97 1.283 . S
C75 O87 1.281 1_545 S
C75 O88 1.236 . S
C76 O98 1.240 . S
C76 O99 1.264 . S
O77 Mn72 2.095 1_655 S
O77 C86 1.250 . S
O78 Mn73 2.121 . S
O78 C86 1.258 . S
C79 N80 1.326 . S
C79 C83 1.460 . S
C79 H85 0.929 . S
N80 Mn73 2.257 . S
N80 C79 1.326 . S
N80 C84 1.362 1_655 S
C81 C82 1.258 . S
C81 C84 1.431 . S
C81 C101 1.449 . S
C82 C81 1.258 . S
C82 C83 1.477 1_455 S
C82 H102 0.931 . S
C83 C79 1.460 . S
C83 C82 1.477 1_655 S
C83 H103 0.930 . S
C84 N80 1.362 1_455 S
C84 C81 1.431 . S
C84 C94 1.476 . S
H85 C79 0.929 . S
C86 O77 1.250 . S
C86 O78 1.258 . S
O87 Mn72 2.162 1_565 S
O87 C75 1.281 1_565 S
O88 Mn72 2.297 . S
O88 C75 1.236 . S
N89 Mn73 2.282 . S
N89 C90 1.328 1_655 S
N89 C94 1.318 1_655 S
C90 N89 1.328 1_455 S
C90 C91 1.457 . S
C90 H95 0.929 1_455 S
C91 C90 1.457 . S
C91 C92 1.291 . S
C91 H104 0.931 . S
C92 C91 1.291 . S
C92 C93 1.373 . S
C92 H105 0.929 . S
C93 C92 1.373 . S
C93 C94 1.396 . S
C93 C100 1.403 . S
C94 C84 1.476 . S
C94 N89 1.318 1_455 S
C94 C93 1.396 . S
H95 C90 0.929 1_655 S
O96 Mn72 2.385 . S
O96 C74 1.234 . S
O97 Mn72 2.209 . S
O97 Mn73 2.215 1_455 S
O97 C74 1.283 . S
O98 Mn72 2.094 1_665 S
O98 C76 1.240 . S
O99 Mn73 2.117 1_565 S
O99 C76 1.264 . S
C100 C93 1.403 . S
C100 C101 1.399 . S
C100 H106 0.929 . S
C101 C81 1.449 . S
C101 C100 1.399 . S
C101 H107 0.930 . S
H102 C82 0.931 . S
H103 C83 0.930 . S
H104 C91 0.931 . S
H105 C92 0.929 . S
H106 C100 0.929 . S
H107 C101 0.930 . S
H108 C135 0.929 . S
N109 C134 1.433 1_655 S
N109 C140 1.435 1_655 S
N109 C146 1.423 . S
H110 C136 0.930 . S
H111 C139 0.931 . S
H112 C138 0.929 . S
H113 C141 0.930 . S
H114 C142 0.932 . S
H115 C145 0.929 . S
H116 C144 0.931 . S
H117 C147 0.929 . S
H118 C151 0.932 . S
H119 C148 0.931 . S
H120 C150 0.929 . S
H121 C153 0.929 . S
H122 C154 0.930 . S
H123 C156 0.929 . S
H124 C157 0.931 . S
H125 C159 0.930 . S
H126 C160 0.932 . S
H127 C162 0.931 . S
H128 C163 0.929 . S
H129 C165 0.929 . S
H130 C166 0.931 . S
H131 C168 0.929 . S
N132 C152 1.433 1_655 S
N132 C158 1.435 1_655 S
N132 C164 1.423 . S
H133 C169 0.932 . S
C134 N109 1.433 1_455 S
C134 C135 1.363 1_455 S
C134 C139 1.370 . S
C135 H108 0.929 . S
C135 C134 1.363 1_655 S
C135 C136 1.385 . S
C136 H110 0.930 . S
C136 C135 1.385 . S
C136 C137 1.357 1_655 S
C137 C136 1.357 1_455 S
C137 C138 1.406 . S
C138 H112 0.929 . S
C138 C137 1.406 . S
C138 C139 1.391 . S
C139 H111 0.931 . S
C139 C134 1.370 . S
C139 C138 1.391 . S
C140 N109 1.435 1_455 S
C140 C141 1.358 . S
C140 C145 1.371 1_455 S
C141 H113 0.930 . S
C141 C140 1.358 . S
C141 C142 1.405 . S
C142 H114 0.932 . S
C142 C141 1.405 . S
C142 C143 1.383 . S
C143 C142 1.383 . S
C143 C144 1.393 1_455 S
C144 H116 0.931 . S
C144 C143 1.393 1_655 S
C144 C145 1.382 . S
C145 H115 0.929 . S
C145 C140 1.371 1_655 S
C145 C144 1.382 . S
C146 N109 1.423 . S
C146 C147 1.362 . S
C146 C151 1.388 1_655 S
C147 H117 0.929 . S
C147 C146 1.362 . S
C147 C148 1.376 . S
C148 H119 0.931 . S
C148 C147 1.376 . S
C148 C149 1.396 . S
C149 C148 1.396 . S
C149 C150 1.348 1_655 S
C149 C167 1.472 . S
C150 H120 0.929 . S
C150 C149 1.348 1_455 S
C150 C151 1.443 . S
C151 H118 0.932 . S
C151 C146 1.388 1_455 S
C151 C150 1.443 . S
C152 N132 1.433 1_455 S
C152 C153 1.363 1_455 S
C152 C157 1.370 . S
C153 H121 0.929 . S
C153 C152 1.363 1_655 S
C153 C154 1.385 . S
C154 H122 0.930 . S
C154 C153 1.385 . S
C154 C155 1.357 1_655 S
C155 C154 1.357 1_455 S
C155 C156 1.406 . S
C156 H123 0.929 . S
C156 C155 1.406 . S
C156 C157 1.391 . S
C157 H124 0.931 . S
C157 C152 1.370 . S
C157 C156 1.391 . S
C158 N132 1.435 1_455 S
C158 C159 1.358 . S
C158 C163 1.371 1_455 S
C159 H125 0.930 . S
C159 C158 1.358 . S
C159 C160 1.405 . S
C160 H126 0.932 . S
C160 C159 1.405 . S
C160 C161 1.383 . S
C161 C160 1.383 . S
C161 C162 1.393 1_455 S
C162 H127 0.931 . S
C162 C161 1.393 1_655 S
C162 C163 1.382 . S
C163 H128 0.929 . S
C163 C158 1.371 1_655 S
C163 C162 1.382 . S
C164 N132 1.423 . S
C164 C165 1.362 . S
C164 C169 1.388 1_655 S
C165 H129 0.929 . S
C165 C164 1.362 . S
C165 C166 1.376 . S
C166 H130 0.931 . S
C166 C165 1.376 . S
C166 C167 1.396 . S
C167 C149 1.472 . S
C167 C166 1.396 . S
C167 C168 1.348 1_655 S
C168 H131 0.929 . S
C168 C167 1.348 1_455 S
C168 C169 1.443 . S
C169 H133 0.932 . S
C169 C164 1.388 1_455 S
C169 C168 1.443 . S
H170 C197 0.929 . S
N171 C196 1.433 . S
N171 C202 1.435 . S
N171 C208 1.423 . S
H172 C198 0.930 . S
H173 C201 0.931 . S
H174 C200 0.929 . S
H175 C203 0.930 . S
H176 C204 0.932 . S
H177 C207 0.929 . S
H178 C206 0.931 . S
H179 C209 0.929 . S
H180 C213 0.932 . S
H181 C210 0.931 . S
H182 C212 0.929 . S
H183 C215 0.929 . S
H184 C216 0.930 . S
H185 C218 0.929 . S
H186 C219 0.931 . S
H187 C221 0.930 . S
H188 C222 0.932 . S
H189 C224 0.931 . S
H190 C225 0.929 . S
H191 C227 0.929 . S
H192 C228 0.931 . S
H193 C230 0.929 . S
N194 C214 1.433 . S
N194 C220 1.435 . S
N194 C226 1.423 . S
H195 C231 0.932 . S
C196 N171 1.433 . S
C196 C197 1.363 . S
C196 C201 1.370 . S
C197 H170 0.929 . S
C197 C196 1.363 . S
C197 C198 1.385 . S
C198 H172 0.930 . S
C198 C197 1.385 . S
C198 C199 1.357 . S
C199 C198 1.357 . S
C199 C200 1.406 . S
C200 H174 0.929 . S
C200 C199 1.406 . S
C200 C201 1.391 . S
C201 H173 0.931 . S
C201 C196 1.370 . S
C201 C200 1.391 . S
C202 N171 1.435 . S
C202 C203 1.358 . S
C202 C207 1.371 . S
C203 H175 0.930 . S
C203 C202 1.358 . S
C203 C204 1.405 . S
C204 H176 0.932 . S
C204 C203 1.405 . S
C204 C205 1.383 . S
C205 C204 1.383 . S
C205 C206 1.393 . S
C206 H178 0.931 . S
C206 C205 1.393 . S
C206 C207 1.382 . S
C207 H177 0.929 . S
C207 C202 1.371 . S
C207 C206 1.382 . S
C208 N171 1.423 . S
C208 C209 1.362 . S
C208 C213 1.388 . S
C209 H179 0.929 . S
C209 C208 1.362 . S
C209 C210 1.376 . S
C210 H181 0.931 . S
C210 C209 1.376 . S
C210 C211 1.396 . S
C211 C210 1.396 . S
C211 C212 1.348 . S
C211 C229 1.472 . S
C212 H182 0.929 . S
C212 C211 1.348 . S
C212 C213 1.443 . S
C213 H180 0.932 . S
C213 C208 1.388 . S
C213 C212 1.443 . S
C214 N194 1.433 . S
C214 C215 1.363 . S
C214 C219 1.370 . S
C215 H183 0.929 . S
C215 C214 1.363 . S
C215 C216 1.385 . S
C216 H184 0.930 . S
C216 C215 1.385 . S
C216 C217 1.357 . S
C217 C216 1.357 . S
C217 C218 1.406 . S
C218 H185 0.929 . S
C218 C217 1.406 . S
C218 C219 1.391 . S
C219 H186 0.931 . S
C219 C214 1.370 . S
C219 C218 1.391 . S
C220 N194 1.435 . S
C220 C221 1.358 . S
C220 C225 1.371 . S
C221 H187 0.930 . S
C221 C220 1.358 . S
C221 C222 1.405 . S
C222 H188 0.932 . S
C222 C221 1.405 . S
C222 C223 1.383 . S
C223 C222 1.383 . S
C223 C224 1.393 . S
C224 H189 0.931 . S
C224 C223 1.393 . S
C224 C225 1.382 . S
C225 H190 0.929 . S
C225 C220 1.371 . S
C225 C224 1.382 . S
C226 N194 1.423 . S
C226 C227 1.362 . S
C226 C231 1.388 . S
C227 H191 0.929 . S
C227 C226 1.362 . S
C227 C228 1.376 . S
C228 H192 0.931 . S
C228 C227 1.376 . S
C228 C229 1.396 . S
C229 C211 1.472 . S
C229 C228 1.396 . S
C229 C230 1.348 . S
C230 H193 0.929 . S
C230 C229 1.348 . S
C230 C231 1.443 . S
C231 H195 0.932 . S
C231 C226 1.388 . S
C231 C230 1.443 . S
H232 C259 0.929 . S
N233 C258 1.433 . S
N233 C264 1.435 . S
N233 C270 1.423 . S
H234 C260 0.930 . S
H235 C263 0.931 . S
H236 C262 0.929 . S
H237 C265 0.930 . S
H238 C266 0.932 . S
H239 C269 0.929 . S
H240 C268 0.931 . S
H241 C271 0.929 . S
H242 C275 0.932 . S
H243 C272 0.931 . S
H244 C274 0.929 . S
H245 C277 0.929 . S
H246 C278 0.930 . S
H247 C280 0.929 . S
H248 C281 0.931 . S
H249 C283 0.930 . S
H250 C284 0.932 . S
H251 C286 0.931 . S
H252 C287 0.929 . S
H253 C289 0.929 . S
H254 C290 0.931 . S
H255 C292 0.929 . S
N256 C276 1.433 . S
N256 C282 1.435 . S
N256 C288 1.423 . S
H257 C293 0.932 . S
C258 N233 1.433 . S
C258 C259 1.363 . S
C258 C263 1.370 . S
C259 H232 0.929 . S
C259 C258 1.363 . S
C259 C260 1.385 . S
C260 H234 0.930 . S
C260 C259 1.385 . S
C260 C261 1.357 . S
C261 C260 1.357 . S
C261 C262 1.406 . S
C262 H236 0.929 . S
C262 C261 1.406 . S
C262 C263 1.391 . S
C263 H235 0.931 . S
C263 C258 1.370 . S
C263 C262 1.391 . S
C264 N233 1.435 . S
C264 C265 1.358 . S
C264 C269 1.371 . S
C265 H237 0.930 . S
C265 C264 1.358 . S
C265 C266 1.405 . S
C266 H238 0.932 . S
C266 C265 1.405 . S
C266 C267 1.383 . S
C267 C266 1.383 . S
C267 C268 1.393 . S
C268 H240 0.931 . S
C268 C267 1.393 . S
C268 C269 1.382 . S
C269 H239 0.929 . S
C269 C264 1.371 . S
C269 C268 1.382 . S
C270 N233 1.423 . S
C270 C271 1.362 . S
C270 C275 1.388 . S
C271 H241 0.929 . S
C271 C270 1.362 . S
C271 C272 1.376 . S
C272 H243 0.931 . S
C272 C271 1.376 . S
C272 C273 1.396 . S
C273 C272 1.396 . S
C273 C274 1.348 . S
C273 C291 1.472 . S
C274 H244 0.929 . S
C274 C273 1.348 . S
C274 C275 1.443 . S
C275 H242 0.932 . S
C275 C270 1.388 . S
C275 C274 1.443 . S
C276 N256 1.433 . S
C276 C277 1.363 . S
C276 C281 1.370 . S
C277 H245 0.929 . S
C277 C276 1.363 . S
C277 C278 1.385 . S
C278 H246 0.930 . S
C278 C277 1.385 . S
C278 C279 1.357 . S
C279 C278 1.357 . S
C279 C280 1.406 . S
C280 H247 0.929 . S
C280 C279 1.406 . S
C280 C281 1.391 . S
C281 H248 0.931 . S
C281 C276 1.370 . S
C281 C280 1.391 . S
C282 N256 1.435 . S
C282 C283 1.358 . S
C282 C287 1.371 . S
C283 H249 0.930 . S
C283 C282 1.358 . S
C283 C284 1.405 . S
C284 H250 0.932 . S
C284 C283 1.405 . S
C284 C285 1.383 . S
C285 C284 1.383 . S
C285 C286 1.393 . S
C286 H251 0.931 . S
C286 C285 1.393 . S
C286 C287 1.382 . S
C287 H252 0.929 . S
C287 C282 1.371 . S
C287 C286 1.382 . S
C288 N256 1.423 . S
C288 C289 1.362 . S
C288 C293 1.388 . S
C289 H253 0.929 . S
C289 C288 1.362 . S
C289 C290 1.376 . S
C290 H254 0.931 . S
C290 C289 1.376 . S
C290 C291 1.396 . S
C291 C273 1.472 . S
C291 C290 1.396 . S
C291 C292 1.348 . S
C292 H255 0.929 . S
C292 C291 1.348 . S
C292 C293 1.443 . S
C293 H257 0.932 . S
C293 C288 1.388 . S
C293 C292 1.443 . S
H294 C300 0.930 . S
H295 C304 0.930 . S
H296 C309 0.929 . S
H297 C307 0.929 . S
H298 C302 0.929 . S
H299 C308 0.929 . S
C300 H294 0.930 . S
C300 C301 1.367 1_655 S
C300 C308 1.378 . S
C301 C300 1.367 1_455 S
C301 C309 1.433 . S
C302 H298 0.929 . S
C302 C304 1.378 . S
C302 C306 1.350 . S
C303 C306 1.463 . S
C303 C308 1.350 1_455 S
C303 N311 1.427 . S
C304 H295 0.930 . S
C304 C302 1.378 . S
C304 C305 1.367 . S
C305 C304 1.367 . S
C305 C307 1.433 1_455 S
C306 C302 1.350 . S
C306 C303 1.463 . S
C306 N310 1.427 1_455 S
C307 H297 0.929 . S
C307 C305 1.433 1_655 S
C307 N310 1.384 . S
C308 H299 0.929 . S
C308 C300 1.378 . S
C308 C303 1.350 1_655 S
C309 H296 0.929 . S
C309 C301 1.433 . S
C309 N311 1.384 . S
N310 C306 1.427 1_655 S
N310 C307 1.384 . S
N311 C303 1.427 . S
N311 C309 1.384 . S
H312 C318 0.930 . S
H313 C322 0.930 1_565 S
H314 C327 0.929 . S
H315 C325 0.929 . S
H316 C320 0.929 . S
H317 C326 0.929 . S
C318 H312 0.930 . S
C318 C319 1.367 . S
C318 C326 1.378 . S
C319 C318 1.367 . S
C319 C327 1.433 1_545 S
C320 H316 0.929 . S
C320 C322 1.378 1_565 S
C320 C324 1.350 1_565 S
C321 C324 1.463 . S
C321 C326 1.350 . S
C321 N329 1.427 1_545 S
C322 H313 0.930 1_545 S
C322 C320 1.378 1_545 S
C322 C323 1.367 . S
C323 C322 1.367 . S
C323 C325 1.433 . S
C324 C320 1.350 1_545 S
C324 C321 1.463 . S
C324 N328 1.427 . S
C325 H315 0.929 . S
C325 C323 1.433 . S
C325 N328 1.384 . S
C326 H317 0.929 . S
C326 C318 1.378 . S
C326 C321 1.350 . S
C327 H314 0.929 . S
C327 C319 1.433 1_565 S
C327 N329 1.384 . S
N328 C324 1.427 . S
N328 C325 1.384 . S
N329 C321 1.427 1_565 S
N329 C327 1.384 . S
H330 C336 0.930 . S
H331 C340 0.930 . S
H332 C345 0.929 . S
H333 C343 0.929 . S
H334 C338 0.929 . S
H335 C344 0.929 . S
C336 H330 0.930 . S
C336 C337 1.367 . S
C336 C344 1.378 . S
C337 C336 1.367 . S
C337 C345 1.433 . S
C338 H334 0.929 . S
C338 C340 1.378 . S
C338 C342 1.350 . S
C339 C342 1.463 . S
C339 C344 1.350 . S
C339 N347 1.427 . S
C340 H331 0.930 . S
C340 C338 1.378 . S
C340 C341 1.367 . S
C341 C340 1.367 . S
C341 C343 1.433 . S
C342 C338 1.350 . S
C342 C339 1.463 . S
C342 N346 1.427 . S
C343 H333 0.929 . S
C343 C341 1.433 . S
C343 N346 1.384 . S
C344 H335 0.929 . S
C344 C336 1.378 . S
C344 C339 1.350 . S
C345 H332 0.929 . S
C345 C337 1.433 . S
C345 N347 1.384 . S
N346 C342 1.427 . S
N346 C343 1.384 . S
N347 C339 1.427 . S
N347 C345 1.384 . S
H348 C354 0.930 . S
H349 C358 0.930 . S
H350 C363 0.929 . S
H351 C361 0.929 . S
H352 C356 0.929 . S
H353 C362 0.929 . S
C354 H348 0.930 . S
C354 C355 1.367 . S
C354 C362 1.378 . S
C355 C354 1.367 . S
C355 C363 1.433 . S
C356 H352 0.929 . S
C356 C358 1.378 . S
C356 C360 1.350 . S
C357 C360 1.463 . S
C357 C362 1.350 . S
C357 N365 1.427 . S
C358 H349 0.930 . S
C358 C356 1.378 . S
C358 C359 1.367 . S
C359 C358 1.367 . S
C359 C361 1.433 . S
C360 C356 1.350 . S
C360 C357 1.463 . S
C360 N364 1.427 . S
C361 H351 0.929 . S
C361 C359 1.433 . S
C361 N364 1.384 . S
C362 H353 0.929 . S
C362 C354 1.378 . S
C362 C357 1.350 . S
C363 H350 0.929 . S
C363 C355 1.433 . S
C363 N365 1.384 . S
N364 C360 1.427 . S
N364 C361 1.384 . S
N365 C357 1.427 . S
N365 C363 1.384 . S
H366 C372 0.930 . S
H367 C376 0.930 1_565 S
H368 C381 0.929 . S
H369 C379 0.929 . S
H370 C374 0.929 1_565 S
H371 C380 0.929 . S
C372 H366 0.930 . S
C372 C373 1.367 . S
C372 C380 1.378 . S
C373 C372 1.367 . S
C373 C381 1.433 1_545 S
C374 H370 0.929 1_545 S
C374 C376 1.378 . S
C374 C378 1.350 . S
C375 C378 1.463 . S
C375 C380 1.350 . S
C375 N383 1.427 1_545 S
C376 H367 0.930 1_545 S
C376 C374 1.378 . S
C376 C377 1.367 . S
C377 C376 1.367 . S
C377 C379 1.433 . S
C378 C374 1.350 . S
C378 C375 1.463 . S
C378 N382 1.427 . S
C379 H369 0.929 . S
C379 C377 1.433 . S
C379 N382 1.384 . S
C380 H371 0.929 . S
C380 C372 1.378 . S
C380 C375 1.350 . S
C381 H368 0.929 . S
C381 C373 1.433 1_565 S
C381 N383 1.384 . S
N382 C378 1.427 . S
N382 C379 1.384 . S
N383 C375 1.427 1_565 S
N383 C381 1.384 . S
H384 C390 0.930 . S
H385 C394 0.930 . S
H386 C399 0.929 . S
H387 C397 0.929 . S
H388 C392 0.929 . S
H389 C398 0.929 . S
C390 H384 0.930 . S
C390 C391 1.367 . S
C390 C398 1.378 . S
C391 C390 1.367 . S
C391 C399 1.433 . S
C392 H388 0.929 . S
C392 C394 1.378 . S
C392 C396 1.350 . S
C393 C396 1.463 . S
C393 C398 1.350 . S
C393 N401 1.427 . S
C394 H385 0.930 . S
C394 C392 1.378 . S
C394 C395 1.367 . S
C395 C394 1.367 . S
C395 C397 1.433 . S
C396 C392 1.350 . S
C396 C393 1.463 . S
C396 N400 1.427 . S
C397 H387 0.929 . S
C397 C395 1.433 . S
C397 N400 1.384 . S
C398 H389 0.929 . S
C398 C390 1.378 . S
C398 C393 1.350 . S
C399 H386 0.929 . S
C399 C391 1.433 . S
C399 N401 1.384 . S
N400 C396 1.427 . S
N400 C397 1.384 . S
N401 C393 1.427 . S
N401 C399 1.384 . S
H402 C408 0.930 . S
H403 C412 0.930 . S
H404 C417 0.929 . S
H405 C415 0.929 1_565 S
H406 C410 0.929 . S
H407 C416 0.929 1_565 S
C408 H402 0.930 . S
C408 C409 1.367 1_565 S
C408 C416 1.378 1_565 S
C409 C408 1.367 1_545 S
C409 C417 1.433 . S
C410 H406 0.929 . S
C410 C412 1.378 . S
C410 C414 1.350 . S
C411 C414 1.463 . S
C411 C416 1.350 . S
C411 N419 1.427 . S
C412 H403 0.930 . S
C412 C410 1.378 . S
C412 C413 1.367 . S
C413 C412 1.367 . S
C413 C415 1.433 . S
C414 C410 1.350 . S
C414 C411 1.463 . S
C414 N418 1.427 . S
C415 H405 0.929 1_545 S
C415 C413 1.433 . S
C415 N418 1.384 . S
C416 H407 0.929 1_545 S
C416 C408 1.378 1_545 S
C416 C411 1.350 . S
C417 H404 0.929 . S
C417 C409 1.433 . S
C417 N419 1.384 . S
N418 C414 1.427 . S
N418 C415 1.384 . S
N419 C411 1.427 . S
N419 C417 1.384 . S
H420 C426 0.930 . S
H421 C430 0.930 . S
H422 C435 0.923 . S
H423 C433 0.929 . S
H424 C428 0.929 . S
H425 C434 0.929 . S
C426 H420 0.930 . S
C426 C427 1.367 . S
C426 C434 1.378 . S
C427 C426 1.367 . S
C427 C435 1.436 1_556 S
C428 H424 0.929 . S
C428 C430 1.378 . S
C428 C432 1.350 . S
C429 C432 1.463 . S
C429 C434 1.350 . S
C429 N437 1.427 . S
C430 H421 0.930 . S
C430 C428 1.378 . S
C430 C431 1.367 . S
C431 C430 1.367 . S
C431 C433 1.433 . S
C432 C428 1.350 . S
C432 C429 1.463 . S
C432 N436 1.427 . S
C433 H423 0.929 . S
C433 C431 1.433 . S
C433 N436 1.384 . S
C434 H425 0.929 . S
C434 C426 1.378 . S
C434 C429 1.350 . S
C435 H422 0.923 . S
C435 C427 1.436 1_554 S
C435 N437 1.387 1_554 S
N436 C432 1.427 . S
N436 C433 1.384 . S
N437 C429 1.427 . S
N437 C435 1.387 1_556 S
H438 C444 0.930 . S
H439 C448 0.930 . S
H440 C453 0.929 . S
H441 C451 0.929 . S
H442 C446 0.929 . S
H443 C452 0.929 . S
C444 H438 0.930 . S
C444 C445 1.367 . S
C444 C452 1.378 . S
C445 C444 1.367 . S
C445 C453 1.433 1_455 S
C446 H442 0.929 . S
C446 C448 1.378 . S
C446 C450 1.350 1_655 S
C447 C450 1.463 . S
C447 C452 1.350 . S
C447 N455 1.427 1_455 S
C448 H439 0.930 . S
C448 C446 1.378 . S
C448 C449 1.367 1_655 S
C449 C448 1.367 1_455 S
C449 C451 1.433 . S
C450 C446 1.350 1_455 S
C450 C447 1.463 . S
C450 N454 1.427 . S
C451 H441 0.929 . S
C451 C449 1.433 . S
C451 N454 1.384 . S
C452 H443 0.929 . S
C452 C444 1.378 . S
C452 C447 1.350 . S
C453 H440 0.929 . S
C453 C445 1.433 1_655 S
C453 N455 1.384 . S
N454 C450 1.427 . S
N454 C451 1.384 . S
N455 C447 1.427 1_655 S
N455 C453 1.384 . S
H456 C462 0.930 . S
H457 C466 0.930 . S
H458 C471 0.929 . S
H459 C469 0.929 1_565 S
H460 C464 0.929 . S
H461 C470 0.929 . S
C462 H456 0.930 . S
C462 C463 1.367 1_565 S
C462 C470 1.378 . S
C463 C462 1.367 1_545 S
C463 C471 1.433 . S
C464 H460 0.929 . S
C464 C466 1.378 . S
C464 C468 1.350 . S
C465 C468 1.463 . S
C465 C470 1.350 1_545 S
C465 N473 1.427 . S
C466 H457 0.930 . S
C466 C464 1.378 . S
C466 C467 1.367 . S
C467 C466 1.367 . S
C467 C469 1.433 . S
C468 C464 1.350 . S
C468 C465 1.463 . S
C468 N472 1.427 1_545 S
C469 H459 0.929 1_545 S
C469 C467 1.433 . S
C469 N472 1.384 1_545 S
C470 H461 0.929 . S
C470 C462 1.378 . S
C470 C465 1.350 1_565 S
C471 H458 0.929 . S
C471 C463 1.433 . S
C471 N473 1.384 . S
N472 C468 1.427 1_565 S
N472 C469 1.384 1_565 S
N473 C465 1.427 . S
N473 C471 1.384 . S
H474 C480 0.930 . S
H475 C484 0.930 . S
H476 C489 0.951 . S
H477 C487 0.929 . S
H478 C482 0.929 . S
H479 C488 0.929 . S
C480 H474 0.930 . S
C480 C481 1.367 . S
C480 C488 1.378 . S
C481 C480 1.367 . S
C481 C489 1.433 . S
C482 H478 0.929 . S
C482 C484 1.378 . S
C482 C486 1.350 . S
C483 C486 1.463 . S
C483 C488 1.350 . S
C483 N491 1.427 . S
C484 H475 0.930 . S
C484 C482 1.378 . S
C484 C485 1.367 . S
C485 C484 1.367 . S
C485 C487 1.433 . S
C486 C482 1.350 . S
C486 C483 1.463 . S
C486 N490 1.427 . S
C487 H477 0.929 . S
C487 C485 1.433 . S
C487 N490 1.384 . S
C488 H479 0.929 . S
C488 C480 1.378 . S
C488 C483 1.350 . S
C489 H476 0.951 . S
C489 C481 1.433 . S
C489 N491 1.384 . S
N490 C486 1.427 . S
N490 C487 1.384 . S
N491 C483 1.427 . S
N491 C489 1.384 . S
H492 C498 0.930 . S
H493 C502 0.930 . S
H494 C507 0.929 . S
H495 C505 0.929 . S
H496 C500 0.929 . S
H497 C506 0.929 . S
C498 H492 0.930 . S
C498 C499 1.367 1_655 S
C498 C506 1.378 . S
C499 C498 1.367 1_455 S
C499 C507 1.433 . S
C500 H496 0.929 . S
C500 C502 1.378 . S
C500 C504 1.350 . S
C501 C504 1.463 . S
C501 C506 1.350 1_455 S
C501 N509 1.427 . S
C502 H493 0.930 . S
C502 C500 1.378 . S
C502 C503 1.367 . S
C503 C502 1.367 . S
C503 C505 1.433 1_455 S
C504 C500 1.350 . S
C504 C501 1.463 . S
C504 N508 1.427 1_455 S
C505 H495 0.929 . S
C505 C503 1.433 1_655 S
C505 N508 1.384 . S
C506 H497 0.929 . S
C506 C498 1.378 . S
C506 C501 1.350 1_655 S
C507 H494 0.929 . S
C507 C499 1.433 . S
C507 N509 1.384 . S
N508 C504 1.427 1_655 S
N508 C505 1.384 . S
N509 C501 1.427 . S
N509 C507 1.384 . S
C305 C161 1.378 . S
C301 C14 1.354 . S
C319 C40 1.396 . S
C323 C205 1.414 . S
C337 C76 1.381 . S
C341 C267 1.398 . S
C355 C3 1.376 . S
C359 C143 1.364 . S
C377 C223 1.406 . S
C373 C38 1.403 . S
C391 C74 1.367 . S
C395 C285 1.381 . S
C413 C199 1.580 . S
C409 C86 1.608 . S
C427 C2 1.685 1_556 S
C431 C261 1.606 . S
C449 C137 1.592 . S
C445 C39 1.697 . S
C467 C217 1.593 . S
C463 C75 1.690 . S
C485 C279 1.616 . S
C481 C4 1.670 1_556 S
C499 C50 1.622 . S
C503 C155 1.599 . S
