# Generated by pormake.
# Topology zzz, (3,6)-cn, num edge types: 1
# Building blocks:
#     Node 0, Type 0, BuildingBlock: PAMTOO_clean_linker_0, # of connection points: 3
#     Node 1, Type 0, BuildingBlock: PAMTOO_clean_linker_0, # of connection points: 3
#     Node 2, Type 0, BuildingBlock: PAMTOO_clean_linker_0, # of connection points: 3
#     Node 3, Type 0, BuildingBlock: PAMTOO_clean_linker_0, # of connection points: 3
#     Node 4, Type 0, BuildingBlock: PAMTOO_clean_linker_0, # of connection points: 3
#     Node 5, Type 0, BuildingBlock: PAMTOO_clean_linker_0, # of connection points: 3
#     Node 6, Type 0, BuildingBlock: PAMTOO_clean_linker_0, # of connection points: 3
#     Node 7, Type 0, BuildingBlock: PAMTOO_clean_linker_0, # of connection points: 3
#     Node 8, Type 1, BuildingBlock: NUHQIS_clean_sbu_0, # of connection points: 6
#     Node 9, Type 1, BuildingBlock: NUHQIS_clean_sbu_0, # of connection points: 6
#     Node 10, Type 1, BuildingBlock: NUHQIS_clean_sbu_0, # of connection points: 6
#     Node 11, Type 1, BuildingBlock: NUHQIS_clean_sbu_0, # of connection points: 6
#     Edge 12, Type (0, 1), BuildingBlock: XUDNAN_clean_linker_2, # of connection points: 2
#     Edge 13, Type (0, 1), BuildingBlock: XUDNAN_clean_linker_2, # of connection points: 2
#     Edge 14, Type (0, 1), BuildingBlock: XUDNAN_clean_linker_2, # of connection points: 2
#     Edge 15, Type (0, 1), BuildingBlock: XUDNAN_clean_linker_2, # of connection points: 2
#     Edge 16, Type (0, 1), BuildingBlock: XUDNAN_clean_linker_2, # of connection points: 2
#     Edge 17, Type (0, 1), BuildingBlock: XUDNAN_clean_linker_2, # of connection points: 2
#     Edge 18, Type (0, 1), BuildingBlock: XUDNAN_clean_linker_2, # of connection points: 2
#     Edge 19, Type (0, 1), BuildingBlock: XUDNAN_clean_linker_2, # of connection points: 2
#     Edge 20, Type (0, 1), BuildingBlock: XUDNAN_clean_linker_2, # of connection points: 2
#     Edge 21, Type (0, 1), BuildingBlock: XUDNAN_clean_linker_2, # of connection points: 2
#     Edge 22, Type (0, 1), BuildingBlock: XUDNAN_clean_linker_2, # of connection points: 2
#     Edge 23, Type (0, 1), BuildingBlock: XUDNAN_clean_linker_2, # of connection points: 2
#     Edge 24, Type (0, 1), BuildingBlock: XUDNAN_clean_linker_2, # of connection points: 2
#     Edge 25, Type (0, 1), BuildingBlock: XUDNAN_clean_linker_2, # of connection points: 2
#     Edge 26, Type (0, 1), BuildingBlock: XUDNAN_clean_linker_2, # of connection points: 2
#     Edge 27, Type (0, 1), BuildingBlock: XUDNAN_clean_linker_2, # of connection points: 2
#     Edge 28, Type (0, 1), BuildingBlock: XUDNAN_clean_linker_2, # of connection points: 2
#     Edge 29, Type (0, 1), BuildingBlock: XUDNAN_clean_linker_2, # of connection points: 2
#     Edge 30, Type (0, 1), BuildingBlock: XUDNAN_clean_linker_2, # of connection points: 2
#     Edge 31, Type (0, 1), BuildingBlock: XUDNAN_clean_linker_2, # of connection points: 2
#     Edge 32, Type (0, 1), BuildingBlock: XUDNAN_clean_linker_2, # of connection points: 2
#     Edge 33, Type (0, 1), BuildingBlock: XUDNAN_clean_linker_2, # of connection points: 2
#     Edge 34, Type (0, 1), BuildingBlock: XUDNAN_clean_linker_2, # of connection points: 2
#     Edge 35, Type (0, 1), BuildingBlock: XUDNAN_clean_linker_2, # of connection points: 2
# Relax obj value: 0.251
# Max RMSD: 0.157
# Mean RMSD: 0.137
data_MOF--net-zzz--node1-NUHQIS_clean_sbu_0--node2-PAMTOO_clean_linker_0--edge1-XUDNAN_clean_linker_2
_symmetry_space_group_name_H-M    P1
_symmetry_Int_Tables_number       1
_symmetry_cell_setting            triclinic
loop_
_symmetry_equiv_pos_as_xyz
'x, y, z'
_cell_length_a     52.036581
_cell_length_b     52.235452
_cell_length_c     14.169632
_cell_angle_alpha  89.741353
_cell_angle_beta   90.00545
_cell_angle_gamma 89.973952
loop_
_atom_site_label
_atom_site_type_symbol
_atom_site_fract_x
_atom_site_fract_y
_atom_site_fract_z
_atom_type_partial_charge
H0 H 0.82148 0.47088 0.34459 0.0
H1 H 0.74829 0.47293 0.2042 0.0
H2 H 0.76855 0.53202 0.40154 0.0
H3 H 0.70507 0.51649 0.37597 0.0
C4 C 0.70902 0.50804 0.30559 0.0
O5 O 0.73328 0.51589 0.27592 0.0
H6 H 0.70857 0.48687 0.31506 0.0
C7 C 0.80253 0.47918 0.33669 0.0
C8 C 0.797 0.50176 0.38585 0.0
C9 C 0.78516 0.46821 0.27242 0.0
C10 C 0.76176 0.48072 0.25477 0.0
C11 C 0.75549 0.50359 0.3009 0.0
C12 C 0.77316 0.51415 0.36695 0.0
H13 H 0.9728 0.82954 0.27463 0.0
H14 H 0.97648 0.75299 0.16906 0.0
H15 H 1.01591 0.77213 0.42661 0.0
H16 H 0.04178 0.72138 0.28607 0.0
C17 C 0.02419 0.72466 0.24336 0.0
O18 O 1.00513 0.73461 0.3021 0.0
H19 H 0.02926 0.73876 0.18715 0.0
C20 C 0.9784 0.80977 0.28572 0.0
C21 C 0.99392 0.80341 0.36359 0.0
C22 C 0.97215 0.79187 0.21579 0.0
C23 C 0.98084 0.76669 0.22402 0.0
C24 C 0.9968 0.75941 0.29878 0.0
C25 C 1.00356 0.77783 0.36873 0.0
H26 H 0.71829 0.05097 0.31882 0.0
H27 H 0.79349 0.04991 0.19612 0.0
H28 H 0.77635 1.00082 0.43365 0.0
H29 H 0.80903 0.99414 0.19216 0.0
C30 C 0.8234 0.99884 0.24762 0.0
O31 O 0.81324 0.0164 0.31162 0.0
H32 H 0.82766 0.98083 0.28659 0.0
C33 C 0.73771 0.0434 0.31825 0.0
C34 C 0.7446 0.02455 0.38433 0.0
C35 C 0.75522 0.05271 0.25124 0.0
C36 C 0.78016 0.04284 0.24859 0.0
C37 C 0.7881 0.0241 0.31334 0.0
C38 C 0.77027 1.01501 0.38238 0.0
H39 H 0.54029 0.70852 0.27419 0.0
H40 H 0.54678 0.78708 0.19303 0.0
H41 H 0.53321 0.76763 0.48489 0.0
H42 H 0.51447 0.83348 0.40819 0.0
C43 C 0.51818 0.82258 0.34245 0.0
O44 O 0.53911 0.8064 0.35855 0.0
H45 H 0.50044 0.81122 0.32924 0.0
C46 C 0.5411 0.72845 0.29519 0.0
C47 C 0.53783 0.73503 0.3905 0.0
C48 C 0.54375 0.74713 0.22469 0.0
C49 C 0.54388 0.77294 0.24793 0.0
C50 C 0.53934 0.7807 0.34051 0.0
C51 C 0.53624 0.76169 0.41267 0.0
H52 H 0.20989 0.46111 0.19167 0.0
H53 H 0.28458 0.4636 0.31909 0.0
H54 H 0.26438 0.51816 0.10156 0.0
H55 H 0.2973 0.51478 0.3511 0.0
C56 C 0.31048 0.51666 0.28949 0.0
O57 O 0.30226 0.50096 0.2161 0.0
H58 H 0.3095 0.5369 0.26547 0.0
C59 C 0.2289 0.46955 0.19508 0.0
C60 C 0.23428 0.49097 0.13878 0.0
C61 C 0.24654 0.45986 0.26107 0.0
C62 C 0.27107 0.47063 0.26682 0.0
C63 C 0.27788 0.49141 0.20899 0.0
C64 C 0.25937 0.50178 0.14486 0.0
H65 H 0.97803 0.2182 0.16852 0.0
H66 H 0.97969 0.2939 0.28491 0.0
H67 H 0.03374 0.27292 0.06795 0.0
H68 H 0.0529 0.32589 0.20617 0.0
C69 C 0.03594 0.31915 0.24683 0.0
O70 O 1.01746 0.31074 0.18293 0.0
H71 H 0.04291 0.30297 0.29153 0.0
C72 C 0.98652 0.23715 0.17034 0.0
C73 C 1.00721 0.24276 0.11032 0.0
C74 C 0.97647 0.25538 0.23283 0.0
C75 C 0.98745 0.27977 0.237 0.0
C76 C 1.00822 0.28628 0.17898 0.0
C77 C 0.01798 0.26782 0.11421 0.0
H78 H 0.32876 0.04539 0.22309 0.0
H79 H 0.25095 0.05037 0.3162 0.0
H80 H 0.26733 0.02848 0.02904 0.0
H81 H 0.22554 1.00421 0.23286 0.0
C82 C 0.21413 0.01814 0.19037 0.0
O83 O 0.22978 0.03792 0.15709 0.0
H84 H 0.2066 1.0076 0.12833 0.0
C85 C 0.30848 0.04472 0.20591 0.0
C86 C 0.30095 0.03742 0.11484 0.0
C87 C 0.29062 0.04979 0.27763 0.0
C88 C 0.26449 0.04698 0.25985 0.0
C89 C 0.25575 0.03919 0.17121 0.0
C90 C 0.27404 0.03421 0.09809 0.0
H91 H 0.5669 0.31813 0.18611 0.0
H92 H 0.56479 0.24478 0.3232 0.0
H93 H 0.50513 0.26563 0.12556 0.0
H94 H 0.48888 0.22635 0.31376 0.0
C95 C 0.50962 0.22232 0.32505 0.0
O96 O 0.52299 0.22862 0.24286 0.0
H97 H 0.51601 0.23469 0.38443 0.0
C98 C 0.55753 0.29975 0.19601 0.0
C99 C 0.53468 0.29453 0.14739 0.0
C100 C 0.56838 0.282 0.25871 0.0
C101 C 0.55653 0.25833 0.27359 0.0
C102 C 0.53365 0.25218 0.22675 0.0
C103 C 0.5227 0.27031 0.1626 0.0
Tb104 Tb 0.03536 0.01794 0.80391 0.0
Eu105 Eu 0.99984 0.03285 0.62933 0.0
C106 C 0.06078 0.03117 0.60943 0.0
C107 C 0.0211 0.0768 0.77477 0.0
C108 C 0.05516 0.97227 0.9674 0.0
C109 C 0.02271 0.94559 0.04156 0.0
C110 C 0.03781 0.96766 0.04146 0.0
C111 C 0.0602 0.95239 0.9031 0.0
C112 C 0.045 0.93044 0.90277 0.0
C113 C 0.02495 0.92764 0.96824 0.0
C114 C 0.06005 0.99901 0.93797 0.0
O115 O 0.99566 1.00734 0.84329 0.0
O116 O 0.97669 0.03939 0.76166 0.0
O117 O 0.99727 0.98933 0.63515 0.0
O118 O 0.03414 0.98283 0.71865 0.0
C119 C 0.97621 0.02312 0.83206 0.0
O120 O 0.96318 0.02853 0.55703 0.0
O121 O 0.99248 0.05341 0.49774 0.0
O122 O 0.0393 0.02393 0.56883 0.0
O123 O 0.06101 0.03629 0.70043 0.0
O124 O 0.02835 0.05856 0.83364 0.0
O125 O 1.01291 0.07134 0.68887 0.0
C126 C 1.01554 0.97395 0.66509 0.0
O127 O 0.06996 1.002 0.85405 0.0
O128 O 0.04066 1.01447 0.95054 0.0
C129 C 0.94983 0.06759 0.48953 0.0
C130 C 0.92279 0.11427 0.4854 0.0
C131 C 0.92388 0.09966 0.56884 0.0
C132 C 0.93746 0.0766 0.57109 0.0
C133 C 0.94708 0.08101 0.40458 0.0
C134 C 0.93373 0.10416 0.40242 0.0
C135 C 0.96837 0.04646 0.49549 0.0
H136 H 1.0083 0.94332 0.0961 0.0
H137 H 0.03381 0.98239 0.09307 0.0
H138 H 0.07382 0.95497 0.84606 0.0
H139 H 0.04772 0.9167 0.84669 0.0
H140 H 0.9155 0.10675 0.63363 0.0
H141 H 0.93944 0.06657 0.63777 0.0
H142 H 0.95664 0.07442 0.34122 0.0
H143 H 0.93381 0.115 0.3371 0.0
Tb144 Tb 0.53171 0.02892 0.85575 0.0
Eu145 Eu 0.51877 0.9922 0.68018 0.0
C146 C 0.51913 0.05319 0.65547 0.0
C147 C 0.47281 1.01356 0.81775 0.0
C148 C 0.56531 0.07801 0.9884 0.0
C149 C 0.59774 0.1027 0.90466 0.0
C150 C 0.57443 0.08947 0.90492 0.0
C151 C 0.57877 0.0815 0.07268 0.0
C152 C 0.60215 0.09454 0.07241 0.0
C153 C 0.61245 0.10437 0.98756 0.0
C154 C 0.54435 0.05926 0.9851 0.0
O155 O 0.52398 0.99087 0.91965 0.0
O156 O 0.5356 0.96674 0.79301 0.0
O157 O 0.56017 1.00278 0.6538 0.0
O158 O 0.57015 0.01863 0.80004 0.0
C159 C 0.53029 0.9685 0.88331 0.0
O160 O 0.49965 0.95805 0.62621 0.0
O161 O 0.5223 0.98147 0.5317 0.0
O162 O 0.50671 0.03206 0.63486 0.0
O163 O 0.53415 0.05389 0.73013 0.0
O164 O 0.48931 0.02932 0.85772 0.0
O165 O 0.48048 0.99658 0.75546 0.0
C166 C 0.57716 1.01111 0.71479 0.0
O167 O 0.5261 0.06398 0.92452 0.0
O168 O 0.55182 0.03545 0.98182 0.0
C169 C 0.4793 0.97306 0.4904 0.0
C170 C 0.43147 0.9982 0.50062 0.0
C171 C 0.43304 0.97132 0.51065 0.0
C172 C 0.45682 0.95891 0.50669 0.0
C173 C 0.47697 0.99875 0.46219 0.0
C174 C 0.45363 1.0114 0.47082 0.0
C175 C 0.50315 0.96541 0.53896 0.0
H176 H 0.60499 0.11023 0.83848 0.0
H177 H 0.56435 0.08693 0.83876 0.0
H178 H 0.57212 0.07262 0.13748 0.0
H179 H 0.61306 0.09497 0.13746 0.0
H180 H 0.41629 0.9599 0.52703 0.0
H181 H 0.45796 0.93891 0.5269 0.0
H182 H 0.49381 1.01013 0.44612 0.0
H183 H 0.45392 0.03189 0.46086 0.0
Tb184 Tb 0.49961 0.51765 0.82494 0.0
Eu185 Eu 0.54005 0.50338 0.66193 0.0
C186 C 0.47937 0.50572 0.62067 0.0
C187 C 0.5172 0.45946 0.80383 0.0
C188 C 0.46853 0.56104 0.97788 0.0
C189 C 0.46087 0.6044 0.92083 0.0
C190 C 0.45334 0.57877 0.92736 0.0
C191 C 0.48856 0.57028 0.03486 0.0
C192 C 0.49619 0.59572 0.02753 0.0
C193 C 0.48355 0.6124 0.96501 0.0
C194 C 0.4691 0.53401 0.94756 0.0
O195 O 0.53757 0.53055 0.87478 0.0
O196 O 0.56129 0.50021 0.80097 0.0
O197 O 0.53976 0.54701 0.65784 0.0
O198 O 0.50402 0.55421 0.74861 0.0
C199 C 0.55879 0.51688 0.86911 0.0
O200 O 0.5784 0.50765 0.60213 0.0
O201 O 0.5506 0.48299 0.53378 0.0
O202 O 0.50226 0.51147 0.5875 0.0
O203 O 0.47636 0.50098 0.71129 0.0
O204 O 0.50889 0.47769 0.86015 0.0
O205 O 0.52609 0.46487 0.71881 0.0
C206 C 0.5222 0.56266 0.69153 0.0
O207 O 0.46254 0.53036 0.85992 0.0
O208 O 0.48993 0.52123 0.96845 0.0
C209 C 0.59344 0.46947 0.53493 0.0
C210 C 0.622 0.42389 0.52373 0.0
C211 C 0.61357 0.43299 0.61169 0.0
C212 C 0.59926 0.45555 0.61717 0.0
C213 C 0.60353 0.46163 0.44828 0.0
C214 C 0.61775 0.43902 0.44261 0.0
C215 C 0.57458 0.49026 0.53785 0.0
H216 H 0.45046 0.61722 0.87422 0.0
H217 H 0.43745 0.57232 0.88418 0.0
H218 H 0.50024 0.55736 0.07676 0.0
H219 H 0.51313 0.60191 0.06563 0.0
H220 H 0.61666 0.42185 0.67536 0.0
H221 H 0.59158 0.46139 0.68484 0.0
H222 H 0.59914 0.47216 0.3842 0.0
H223 H 0.6236 0.43242 0.37351 0.0
Tb224 Tb 1.00503 0.50118 0.85109 0.0
Eu225 Eu 0.02473 0.53485 0.67359 0.0
C226 C 1.01648 0.47299 0.65597 0.0
C227 C 0.06451 0.51153 0.82481 0.0
C228 C 0.9661 0.45411 0.97722 0.0
C229 C 0.9449 0.41649 0.04175 0.0
C230 C 0.96612 0.43301 0.03861 0.0
C231 C 0.94555 0.45744 0.91446 0.0
C232 C 0.92427 0.44139 0.91866 0.0
C233 C 0.92312 0.42117 0.98478 0.0
C234 C 0.98682 0.47324 0.9802 0.0
O235 O 1.00145 0.54047 0.90323 0.0
O236 O 0.02326 0.56423 0.79206 0.0
O237 O 0.9821 0.54241 0.68257 0.0
O238 O 0.97205 0.50437 0.75275 0.0
C239 C 1.0116 0.56228 0.87442 0.0
O240 O 0.05332 0.56023 0.61039 0.0
O241 O 0.02113 0.54729 0.52665 0.0
O242 O 0.01768 0.49514 0.61168 0.0
O243 O 1.01533 0.47181 0.74851 0.0
O244 O 0.04546 0.50996 0.88588 0.0
O245 O 0.05951 0.51466 0.73467 0.0
C246 C 0.96513 0.52463 0.70287 0.0
O247 O 1.00764 0.4676 0.93374 0.0
O248 O 0.97961 0.49678 0.96451 0.0
C249 C 0.0629 0.54264 0.46339 0.0
C250 C 0.10237 0.50769 0.42032 0.0
C251 C 0.10808 0.53366 0.43706 0.0
C252 C 0.08849 0.55095 0.4591 0.0
C253 C 0.05696 0.51776 0.43258 0.0
C254 C 0.07651 0.50045 0.41186 0.0
C255 C 0.04462 0.55612 0.52536 0.0
H256 H 0.94515 0.40079 0.09184 0.0
H257 H 0.98211 0.4298 0.08623 0.0
H258 H 0.94525 0.47335 0.86523 0.0
H259 H 0.90806 0.44621 0.87421 0.0
H260 H 0.12776 0.54033 0.43921 0.0
H261 H 0.09358 0.57009 0.48166 0.0
H262 H 0.03739 0.51073 0.43372 0.0
H263 H 0.07121 0.48089 0.39722 0.0
H264 H 0.16701 0.99483 0.21681 0.0
H265 H 0.20986 0.06171 0.30512 0.0
H266 H 0.17599 0.0718 0.42077 0.0
H267 H 0.10327 0.02566 0.23403 0.0
H268 H 0.08771 0.99677 0.27403 0.0
H269 H 0.11538 0.99488 0.19796 0.0
H270 H 0.13817 0.96577 0.32038 0.0
H271 H 0.11067 0.96776 0.39715 0.0
H272 H 0.14198 0.97678 0.43997 0.0
H273 H 0.13861 0.07244 0.53842 0.0
H274 H 0.0989 0.06672 0.63245 0.0
H275 H 0.07745 1.00235 0.45736 0.0
C276 C 0.16907 1.01189 0.25927 0.0
C277 C 0.19152 0.02729 0.2515 0.0
C278 C 0.19339 0.04923 0.30975 0.0
C279 C 0.17402 0.05524 0.37573 0.0
C280 C 0.15243 0.03943 0.3824 0.0
C281 C 0.14958 0.0185 0.32413 0.0
C282 C 0.12428 1.00483 0.34441 0.0
C283 C 0.10662 1.00559 0.25744 0.0
C284 C 0.12907 0.97714 0.37743 0.0
C285 C 0.1135 0.02109 0.42411 0.0
C286 C 0.13022 0.04078 0.44575 0.0
C287 C 0.12524 0.05735 0.52074 0.0
C288 C 0.10263 0.05389 0.57418 0.0
C289 C 0.08478 0.03434 0.55187 0.0
C290 C 0.0904 0.01781 0.47527 0.0
H291 H 0.53113 0.20136 0.48879 0.0
H292 H 0.4937 0.17957 0.22815 0.0
H293 H 0.49299 0.13435 0.28218 0.0
H294 H 0.57093 0.14304 0.51467 0.0
H295 H 0.56747 0.14212 0.64122 0.0
H296 H 0.56651 0.17235 0.57944 0.0
H297 H 0.52227 0.18211 0.65453 0.0
H298 H 0.523 0.15184 0.71581 0.0
H299 H 0.49628 0.15965 0.64001 0.0
H300 H 0.49331 0.09179 0.37062 0.0
H301 H 0.49726 0.05513 0.4795 0.0
H302 H 0.53555 0.10359 0.68366 0.0
C303 C 0.52328 0.18697 0.4422 0.0
C304 C 0.51271 0.19409 0.3532 0.0
C305 C 0.5022 0.17464 0.29559 0.0
C306 C 0.5016 0.14889 0.32615 0.0
C307 C 0.51169 0.14263 0.41482 0.0
C308 C 0.52262 0.16108 0.47164 0.0
C309 C 0.53159 0.14931 0.56482 0.0
C310 C 0.56087 0.15186 0.57565 0.0
C311 C 0.51743 0.16146 0.64874 0.0
C312 C 0.52375 0.12143 0.55215 0.0
C313 C 0.51222 0.11806 0.46513 0.0
C314 C 0.50255 0.09427 0.43839 0.0
C315 C 0.50483 0.07344 0.50131 0.0
C316 C 0.51683 0.07609 0.59072 0.0
C317 C 0.52644 0.10062 0.61589 0.0
H318 H 0.32953 0.50981 0.47131 0.0
H319 H 0.35416 0.51246 0.17945 0.0
H320 H 0.39953 0.50834 0.23122 0.0
H321 H 0.38055 0.54714 0.56412 0.0
H322 H 0.38359 0.52917 0.67244 0.0
H323 H 0.35312 0.53055 0.61236 0.0
H324 H 0.35159 0.48106 0.60652 0.0
H325 H 0.38201 0.47952 0.66712 0.0
H326 H 0.37807 0.46374 0.55518 0.0
H327 H 0.44286 0.50658 0.31694 0.0
H328 H 0.47974 0.50614 0.42665 0.0
H329 H 0.4272 0.50411 0.66427 0.0
C330 C 0.34443 0.50895 0.41811 0.0
C331 C 0.3381 0.51086 0.3207 0.0
C332 C 0.35837 0.51044 0.25396 0.0
C333 C 0.38424 0.50824 0.28298 0.0
C334 C 0.38979 0.50654 0.37943 0.0
C335 C 0.37039 0.50672 0.446 0.0
C336 C 0.38153 0.5055 0.54544 0.0
C337 C 0.37426 0.52952 0.6019 0.0
C338 C 0.37278 0.48099 0.59658 0.0
C339 C 0.41024 0.5048 0.52476 0.0
C340 C 0.41459 0.50545 0.42849 0.0
C341 C 0.43955 0.50585 0.39231 0.0
C342 C 0.46049 0.50563 0.45554 0.0
C343 C 0.45666 0.50489 0.55473 0.0
C344 C 0.431 0.50435 0.58916 0.0
H345 H 0.04552 0.37178 0.23657 0.0
H346 H 1.00594 0.31494 0.40605 0.0
H347 H 0.99521 0.34819 0.52352 0.0
H348 H 0.07367 0.404 0.42784 0.0
H349 H 0.07087 0.43587 0.38069 0.0
H350 H 0.07336 0.40908 0.30185 0.0
H351 H 0.03101 0.42143 0.21887 0.0
H352 H 0.02867 0.44916 0.29366 0.0
H353 H 1.00246 0.42664 0.28819 0.0
H354 H 0.99244 0.38679 0.63079 0.0
H355 H 0.99492 0.42803 0.71407 0.0
H356 H 0.0352 0.46135 0.47556 0.0
C357 C 0.034 0.3665 0.29722 0.0
C358 C 0.02623 0.34064 0.3111 0.0
C359 C 1.0117 0.33454 0.39268 0.0
C360 C 1.00568 0.35334 0.46025 0.0
C361 C 1.01417 0.37844 0.44571 0.0
C362 C 0.02776 0.38515 0.36558 0.0
C363 C 0.03571 0.41325 0.36965 0.0
C364 C 0.06515 0.41567 0.36993 0.0
C365 C 0.02374 0.42852 0.28772 0.0
C366 C 0.02441 0.42136 0.46428 0.0
C367 C 1.01228 0.40083 0.50717 0.0
C368 C 1.00162 0.40301 0.5971 0.0
C369 C 1.00325 0.42662 0.64423 0.0
C370 C 1.01521 0.44824 0.60187 0.0
C371 C 0.02575 0.44543 0.5099 0.0
H372 H 0.86482 0.97046 0.18224 0.0
H373 H 0.83705 0.04861 0.19567 0.0
H374 H 0.87326 0.06269 0.09618 0.0
H375 H 0.93426 0.98741 0.19062 0.0
H376 H 0.9434 0.96218 0.111 0.0
H377 H 0.91586 0.9582 0.18678 0.0
H378 H 0.88753 0.94871 0.04102 0.0
H379 H 0.91499 0.95276 0.96508 0.0
H380 H 0.88639 0.97152 0.94523 0.0
H381 H 0.91034 0.06793 0.98339 0.0
H382 H 0.94748 0.06475 0.87625 0.0
H383 H 0.95451 0.98383 0.94175 0.0
C384 C 0.86668 0.99064 0.16592 0.0
C385 C 0.84788 1.00841 0.1981 0.0
C386 C 0.85087 0.03453 0.17285 0.0
C387 C 0.87155 0.04274 0.11617 0.0
C388 C 0.88948 0.02473 0.08511 0.0
C389 C 0.88755 0.99925 0.11027 0.0
C390 C 0.90944 0.98384 0.06632 0.0
C391 C 0.92677 0.97222 0.14327 0.0
C392 C 0.89895 0.96298 1.0005 0.0
C393 C 0.92361 1.00455 0.01075 0.0
C394 C 0.9116 0.02796 0.0226 0.0
C395 C 0.92005 0.04976 0.97479 0.0
C396 C 0.9412 0.04771 0.91353 0.0
C397 C 0.9542 0.02411 0.90051 0.0
C398 C 0.94531 1.00225 0.9509 0.0
H399 H 0.52897 0.87525 0.34584 0.0
H400 H 0.5137 0.81312 0.15223 0.0
H401 H 0.51773 0.84297 0.0178 0.0
H402 H 0.48996 0.9209 0.21919 0.0
H403 H 0.51025 0.94806 0.24312 0.0
H404 H 0.50929 0.92154 0.32474 0.0
H405 H 0.55859 0.91649 0.31155 0.0
H406 H 0.55973 0.94308 0.23014 0.0
H407 H 0.5731 0.91258 0.19698 0.0
H408 H 0.5229 0.87936 0.90345 0.0
H409 H 0.52549 0.92003 0.81639 0.0
H410 H 0.53278 0.96118 0.08064 0.0
C411 C 0.52705 0.86786 0.27494 0.0
C412 C 0.52238 0.8413 0.25984 0.0
C413 C 0.51884 0.83281 0.16595 0.0
C414 C 0.52067 0.84982 0.08894 0.0
C415 C 0.52533 0.87571 0.10611 0.0
C416 C 0.52812 0.88486 0.19681 0.0
C417 C 0.53101 0.91401 0.1952 0.0
C418 C 0.50881 0.92688 0.24874 0.0
C419 C 0.55717 0.92201 0.23589 0.0
C420 C 0.52951 0.91974 0.08947 0.0
C421 C 0.52653 0.89719 0.03987 0.0
C422 C 0.52514 0.8971 0.94171 0.0
C423 C 0.52673 0.92048 0.89267 0.0
C424 C 0.52937 0.94413 0.94077 0.0
C425 C 0.53068 0.94361 0.0412 0.0
H426 H 0.68809 0.48028 0.15632 0.0
H427 H 0.68117 0.55289 0.30052 0.0
H428 H 0.64279 0.5634 0.20427 0.0
H429 H 0.66723 0.50353 0.92198 0.0
H430 H 0.65006 0.47449 0.89525 0.0
H431 H 0.67773 0.47346 0.97167 0.0
H432 H 0.65032 0.45155 0.1013 0.0
H433 H 0.6225 0.45277 0.02578 0.0
H434 H 0.62129 0.46685 0.14159 0.0
H435 H 0.6025 0.56434 0.10051 0.0
H436 H 0.56659 0.55746 0.98895 0.0
H437 H 0.60018 0.48489 0.9067 0.0
C438 C 0.67876 0.4986 0.16628 0.0
C439 C 0.68773 0.51579 0.23636 0.0
C440 C 0.67479 0.53946 0.24742 0.0
C441 C 0.65285 0.54553 0.19322 0.0
C442 C 0.64403 0.52786 0.12688 0.0
C443 C 0.65682 0.50501 0.11222 0.0
C444 C 0.6431 0.48919 0.03747 0.0
C445 C 0.66057 0.48492 0.95149 0.0
C446 C 0.63375 0.46357 0.07904 0.0
C447 C 0.62054 0.50657 0.01277 0.0
C448 C 0.62132 0.52872 0.06567 0.0
C449 C 0.60195 0.54717 0.05807 0.0
C450 C 0.5815 0.54306 0.99453 0.0
C451 C 0.58045 0.52075 0.93794 0.0
C452 C 0.60041 0.50232 0.94777 0.0
H453 H 0.0384 0.70576 0.06831 0.0
H454 H 0.99454 0.68508 0.31712 0.0
H455 H 0.9858 0.64247 0.24807 0.0
H456 H 0.99843 0.67193 0.89552 0.0
H457 H 0.02546 0.662 0.82506 0.0
H458 H 0.02711 0.69126 0.89174 0.0
H459 H 0.0684 0.67504 0.97436 0.0
H460 H 0.06682 0.6457 0.90831 0.0
H461 H 0.06795 0.64468 0.03542 0.0
H462 H 0.98303 0.60128 0.15357 0.0
H463 H 0.98624 0.56511 0.04368 0.0
H464 H 0.03238 0.61161 0.85373 0.0
C465 C 0.02651 0.69243 0.10745 0.0
C466 C 1.01648 0.69923 0.19738 0.0
C467 C 1.00182 0.68078 0.24739 0.0
C468 C 0.99688 0.65641 0.2087 0.0
C469 C 1.00693 0.65043 0.1199 0.0
C470 C 0.02143 0.66794 0.06977 0.0
C471 C 0.0307 0.65636 0.97706 0.0
C472 C 0.01977 0.67128 0.89232 0.0
C473 C 0.06022 0.65539 0.97363 0.0
C474 C 0.01928 0.62953 0.9829 0.0
C475 C 1.00561 0.6266 0.06596 0.0
C476 C 0.99362 0.6035 0.08832 0.0
C477 C 0.99561 0.58292 0.02489 0.0
C478 C 1.00953 0.58516 0.93891 0.0
C479 C 0.02147 0.60904 0.9181 0.0
H480 H 0.93241 0.23071 0.18795 0.0
H481 H 0.975 0.26115 0.42399 0.0
H482 H 0.94928 0.23492 0.53317 0.0
H483 H 0.86879 0.21218 0.33334 0.0
H484 H 0.86626 0.18368 0.26274 0.0
H485 H 0.87752 0.21315 0.21028 0.0
H486 H 0.9185 0.18981 0.15314 0.0
H487 H 0.90768 0.16067 0.20559 0.0
H488 H 0.93857 0.17354 0.23825 0.0
H489 H 0.93421 0.19557 0.60337 0.0
H490 H 0.93224 0.14918 0.62467 0.0
H491 H 0.8974 0.14142 0.34868 0.0
C492 C 0.93516 0.23274 0.26327 0.0
C493 C 0.95563 0.24765 0.29792 0.0
C494 C 0.95918 0.24999 0.39625 0.0
C495 C 0.94457 0.23511 0.45879 0.0
C496 C 0.92634 0.21825 0.42179 0.0
C497 C 0.92107 0.2175 0.32591 0.0
C498 C 0.90568 0.19388 0.30059 0.0
C499 C 0.87791 0.20117 0.27529 0.0
C500 C 0.91841 0.1786 0.21988 0.0
C501 C 0.90661 0.17961 0.39371 0.0
C502 C 0.91726 0.19458 0.46411 0.0
C503 C 0.92493 0.184 0.55017 0.0
C504 C 0.92367 0.15741 0.56185 0.0
C505 C 0.91488 0.14162 0.48757 0.0
C506 C 0.90429 0.15313 0.40617 0.0
H507 H 0.32595 0.08474 0.32621 0.0
H508 H 0.27783 0.02516 0.44128 0.0
H509 H 0.3085 0.01831 0.57007 0.0
H510 H 0.37228 0.05322 0.3026 0.0
H511 H 0.39849 0.07421 0.33319 0.0
H512 H 0.36859 0.08761 0.29812 0.0
H513 H 0.3663 0.11292 0.45474 0.0
H514 H 0.3967 0.09924 0.48979 0.0
H515 H 0.36914 0.09633 0.56605 0.0
H516 H 0.34913 1.00349 0.63197 0.0
H517 H 0.39143 0.98349 0.61884 0.0
H518 H 0.41606 0.04576 0.43592 0.0
C519 C 0.32144 0.07151 0.38285 0.0
C520 C 0.30022 0.0551 0.3736 0.0
C521 C 0.29414 0.03793 0.44734 0.0
C522 C 0.31165 0.03391 0.52092 0.0
C523 C 0.33511 0.04694 0.51836 0.0
C524 C 0.33979 0.06612 0.45204 0.0
C525 C 0.36832 0.07125 0.44202 0.0
C526 C 0.37737 0.07149 0.33796 0.0
C527 C 0.37553 0.09642 0.49114 0.0
C528 C 0.37878 0.04862 0.49655 0.0
C529 C 0.35969 0.03642 0.54748 0.0
C530 C 0.36423 1.01318 0.59331 0.0
C531 C 0.38828 1.00152 0.58291 0.0
C532 C 0.40728 1.01241 0.52323 0.0
C533 C 0.40254 0.03681 0.48326 0.0
H534 H 0.56761 0.29295 0.44311 0.0
H535 H 0.61686 0.29239 0.19816 0.0
H536 H 0.64718 0.3213 0.27805 0.0
H537 H 0.56536 0.3521 0.46663 0.0
H538 H 0.56545 0.35523 0.59338 0.0
H539 H 0.55494 0.32603 0.54137 0.0
H540 H 0.58874 0.30072 0.63802 0.0
H541 H 0.59935 0.33018 0.69135 0.0
H542 H 0.62214 0.30975 0.6324 0.0
H543 H 0.66238 0.36018 0.35238 0.0
H544 H 0.66013 0.40453 0.40987 0.0
H545 H 0.60054 0.38237 0.60709 0.0
C546 C 0.58577 0.29758 0.40989 0.0
C547 C 0.59041 0.2902 0.31613 0.0
C548 C 0.61349 0.29746 0.27116 0.0
C549 C 0.63078 0.31388 0.31631 0.0
C550 C 0.62462 0.3229 0.40615 0.0
C551 C 0.60279 0.31457 0.45352 0.0
C552 C 0.59691 0.33152 0.5373 0.0
C553 C 0.56907 0.34184 0.53421 0.0
C554 C 0.60211 0.31719 0.63027 0.0
C555 C 0.61655 0.35251 0.5219 0.0
C556 C 0.63328 0.34651 0.4493 0.0
C557 C 0.65 0.36474 0.41131 0.0
C558 C 0.6485 0.38999 0.4439 0.0
C559 C 0.63014 0.39684 0.51291 0.0
C560 C 0.61525 0.37751 0.55625 0.0
H561 H 0.24303 0.47188 0.44386 0.0
H562 H 0.22418 0.41245 0.2462 0.0
H563 H 0.1808 0.40957 0.31175 0.0
H564 H 0.18587 0.45222 0.6359 0.0
H565 H 0.18235 0.486 0.65766 0.0
H566 H 0.21391 0.4724 0.64182 0.0
H567 H 0.22234 0.50589 0.51122 0.0
H568 H 0.19071 0.5187 0.52176 0.0
H569 H 0.20156 0.50697 0.40907 0.0
H570 H 0.13939 0.43068 0.32061 0.0
H571 H 0.10498 0.46273 0.3187 0.0
H572 H 0.14691 0.50785 0.52363 0.0
C573 C 0.23041 0.45663 0.42127 0.0
C574 C 0.23599 0.4435 0.33713 0.0
C575 C 0.21981 0.42317 0.30948 0.0
C576 C 0.19482 0.42175 0.34563 0.0
C577 C 0.18742 0.43962 0.41344 0.0
C578 C 0.20525 0.45558 0.45651 0.0
C579 C 0.19183 0.47666 0.51131 0.0
C580 C 0.19358 0.4715 0.61799 0.0
C581 C 0.20222 0.50359 0.48659 0.0
C582 C 0.16459 0.47308 0.47682 0.0
C583 C 0.16219 0.45114 0.42329 0.0
C584 C 0.14051 0.44696 0.36736 0.0
C585 C 0.12099 0.46545 0.36626 0.0
C586 C 0.12299 0.48789 0.42151 0.0
C587 C 0.14479 0.49112 0.4796 0.0
H588 H 0.99602 0.78937 0.04983 0.0
H589 H 0.92784 0.8187 0.18394 0.0
H590 H 0.92628 0.85411 0.07008 0.0
H591 H 0.02791 0.8345 0.05899 0.0
H592 H 0.0447 0.83664 0.94778 0.0
H593 H 0.03219 0.80661 0.98561 0.0
H594 H 1.00577 0.8024 0.8323 0.0
H595 H 0.01885 0.83252 0.79199 0.0
H596 H 0.98457 0.82788 0.79593 0.0
H597 H 0.94309 0.89368 0.01078 0.0
H598 H 0.97302 0.92986 1.00015 0.0
H599 H 0.03377 0.87829 0.91407 0.0
C600 C 0.97967 0.80218 0.04918 0.0
C601 C 0.96226 0.80173 0.1251 0.0
C602 C 0.94127 0.81881 0.12551 0.0
C603 C 0.94038 0.8391 0.0609 0.0
C604 C 0.9606 0.84187 0.99673 0.0
C605 C 0.97944 0.82315 0.98732 0.0
C606 C 1.00263 0.83353 0.93449 0.0
C607 C 0.0283 0.82751 0.98499 0.0
C608 C 1.00296 0.82349 0.83265 0.0
C609 C 0.99634 0.86178 0.93531 0.0
C610 C 0.97127 0.86599 0.96414 0.0
C611 C 0.96244 0.89053 0.98538 0.0
C612 C 0.97978 0.91095 0.98128 0.0
C613 C 1.0059 0.90671 0.95833 0.0
C614 C 1.01384 0.88206 0.93066 0.0
H615 H 0.72945 0.09669 0.28605 0.0
H616 H 0.7597 0.05043 0.05958 0.0
H617 H 0.73305 0.07415 0.9454 0.0
H618 H 0.6715 0.09048 0.23733 0.0
H619 H 0.65924 0.12194 0.26376 0.0
H620 H 0.68826 0.11124 0.31806 0.0
H621 H 0.71248 0.15076 0.25239 0.0
H622 H 0.68316 0.16184 0.1978 0.0
H623 H 0.71175 0.15771 0.1277 0.0
H624 H 0.69373 0.08888 0.87226 0.0
H625 H 0.64723 0.09196 0.85046 0.0
H626 H 0.64023 0.13082 0.11858 0.0
C627 C 0.73132 0.09264 0.21149 0.0
C628 C 0.74639 0.07183 0.18117 0.0
C629 C 0.74844 0.06655 0.08386 0.0
C630 C 0.73336 0.08004 0.01851 0.0
C631 C 0.71663 0.09891 0.05165 0.0
C632 C 0.71601 0.1057 0.14609 0.0
C633 C 0.69262 0.12188 0.16822 0.0
C634 C 0.67701 0.11067 0.25154 0.0
C635 C 0.70048 0.1497 0.18763 0.0
C636 C 0.67832 0.11991 0.07555 0.0
C637 C 0.69309 0.10783 0.00758 0.0
C638 C 0.68233 0.09924 0.92332 0.0
C639 C 0.65571 0.10116 0.9113 0.0
C640 C 0.64006 0.11148 0.98354 0.0
C641 C 0.65184 0.12283 0.0626 0.0
H642 H 0.50102 0.74705 0.12264 0.0
H643 H 0.58128 0.72679 0.11419 0.0
H644 H 0.57312 0.69808 0.9804 0.0
H645 H 0.47972 0.69399 0.13461 0.0
H646 H 0.45133 0.6949 0.06145 0.0
H647 H 0.46374 0.72391 0.1088 0.0
H648 H 0.46749 0.7435 0.9416 0.0
H649 H 0.45442 0.71439 0.8931 0.0
H650 H 0.48469 0.72662 0.85068 0.0
H651 H 0.55589 0.66099 0.90669 0.0
H652 H 0.53261 0.62015 0.90785 0.0
H653 H 0.4617 0.65969 0.97048 0.0
C654 C 0.51692 0.73784 0.087 0.0
C655 C 0.54171 0.7392 0.12595 0.0
C656 C 0.56229 0.72627 0.08292 0.0
C657 C 0.5577 0.70998 0.00672 0.0
C658 C 0.53238 0.70654 0.97612 0.0
C659 C 0.51222 0.72063 0.01375 0.0
C660 C 0.48648 0.70853 0.99074 0.0
C661 C 0.4694 0.70509 0.0792 0.0
C662 C 0.47245 0.72419 0.91447 0.0
C663 C 0.49547 0.68322 0.9512 0.0
C664 C 0.52182 0.68335 0.93603 0.0
C665 C 0.53525 0.66094 0.91577 0.0
C666 C 0.52196 0.63776 0.91798 0.0
C667 C 0.49555 0.63711 0.94099 0.0
C668 C 0.48185 0.66009 0.95175 0.0
H669 H 0.81503 0.42826 0.33195 0.0
H670 H 0.77511 0.45728 0.0854 0.0
H671 H 0.80051 0.42886 0.98505 0.0
H672 H 0.86932 0.44216 0.25002 0.0
H673 H 0.88824 0.41625 0.29822 0.0
H674 H 0.85898 0.42518 0.35445 0.0
H675 H 0.84226 0.37868 0.33862 0.0
H676 H 0.87182 0.36966 0.28113 0.0
H677 H 0.84143 0.3636 0.22449 0.0
H678 H 0.83775 0.40991 0.90697 0.0
H679 H 0.88315 0.41102 0.86108 0.0
H680 H 0.90506 0.40378 0.15528 0.0
C681 C 0.81111 0.42801 0.25697 0.0
C682 C 0.79343 0.44545 0.2168 0.0
C683 C 0.78833 0.44406 0.11885 0.0
C684 C 0.80281 0.42782 0.06087 0.0
C685 C 0.82263 0.41342 0.10133 0.0
C686 C 0.8268 0.41343 0.19795 0.0
C687 C 0.85353 0.40384 0.22198 0.0
C688 C 0.86836 0.42302 0.28456 0.0
C689 C 0.85217 0.37737 0.26932 0.0
C690 C 0.86486 0.40184 0.12384 0.0
C691 C 0.84615 0.40517 0.05542 0.0
C692 C 0.85245 0.40713 0.96006 0.0
C693 C 0.87844 0.40813 0.93477 0.0
C694 C 0.89783 0.40873 0.00504 0.0
C695 C 0.8909 0.40336 0.09957 0.0
H696 H 1.01714 0.19199 0.15129 0.0
H697 H 1.01505 0.24564 0.91736 0.0
H698 H 0.02005 0.20947 0.80559 0.0
H699 H 0.06378 0.14666 0.04782 0.0
H700 H 0.0476 0.1192 0.09731 0.0
H701 H 0.04642 0.14952 0.15737 0.0
H702 H 0.99671 0.14764 0.15633 0.0
H703 H 0.99771 0.1175 0.09534 0.0
H704 H 0.98 0.144 0.04577 0.0
H705 H 0.02024 0.16586 0.71822 0.0
H706 H 0.01995 0.12071 0.66578 0.0
H707 H 0.0229 0.09562 0.95769 0.0
C708 C 0.01832 0.19627 0.07656 0.0
C709 C 1.01585 0.22194 0.04356 0.0
C710 C 1.01733 0.22641 0.94498 0.0
C711 C 0.0199 0.20584 0.88083 0.0
C712 C 0.02127 0.18074 0.91588 0.0
C713 C 0.02096 0.176 0.01186 0.0
C714 C 0.02187 0.14735 0.0321 0.0
C715 C 0.04638 0.14027 0.08689 0.0
C716 C 0.99763 0.13862 0.08553 0.0
C717 C 0.02245 0.1365 0.93262 0.0
C718 C 0.02196 0.15604 0.86637 0.0
C719 C 0.02102 0.15057 0.7699 0.0
C720 C 0.02078 0.12473 0.74062 0.0
C721 C 0.02171 0.1043 0.80702 0.0
C722 C 0.02262 0.11057 0.9045 0.0
H723 H 0.34667 0.06403 0.09093 0.0
H724 H 0.30455 0.99945 0.97759 0.0
H725 H 0.3428 0.98778 0.88203 0.0
H726 H 0.38515 0.07905 0.88001 0.0
H727 H 0.41315 0.08695 0.9489 0.0
H728 H 0.3815 0.09186 0.99718 0.0
H729 H 0.39379 0.06422 0.14101 0.0
H730 H 0.42525 0.05835 0.09333 0.0
H731 H 0.40473 0.0318 0.12424 0.0
H732 H 0.38812 0.98142 0.80725 0.0
H733 H 0.43393 0.98112 0.76144 0.0
H734 H 0.44709 0.04831 0.93368 0.0
C735 C 0.34519 0.04746 0.04566 0.0
C736 C 0.32217 0.03261 0.0431 0.0
C737 C 0.32151 1.01141 0.9809 0.0
C738 C 0.34336 1.00451 0.92677 0.0
C739 C 0.36599 0.01894 0.93489 0.0
C740 C 0.36688 0.04012 0.99261 0.0
C741 C 0.39374 0.05175 0.99372 0.0
C742 C 0.39335 0.07902 0.95248 0.0
C743 C 0.40504 0.05148 0.09404 0.0
C744 C 0.40821 0.03354 0.92924 0.0
C745 C 0.39181 1.01494 0.89477 0.0
C746 C 0.40093 0.99598 0.83409 0.0
C747 C 0.42719 0.99597 0.80848 0.0
C748 C 0.44461 1.01457 0.84401 0.0
C749 C 0.43463 0.03368 0.90509 0.0
H750 H 0.5247 0.34511 0.18715 0.0
H751 H 0.5248 0.29103 0.95649 0.0
H752 H 0.51882 0.32694 0.84297 0.0
H753 H 0.47652 0.38996 0.08502 0.0
H754 H 0.49281 0.41764 0.13137 0.0
H755 H 0.49461 0.38746 0.1932 0.0
H756 H 0.54427 0.38974 0.18772 0.0
H757 H 0.54265 0.41971 0.1248 0.0
H758 H 0.56023 0.39322 0.07548 0.0
H759 H 0.51839 0.37031 0.75299 0.0
H760 H 0.51824 0.41535 0.69767 0.0
H761 H 0.51644 0.4411 0.98802 0.0
C762 C 0.52266 0.34072 0.11289 0.0
C763 C 0.52486 0.31501 0.08112 0.0
C764 C 0.52261 0.31031 0.98307 0.0
C765 C 0.5195 0.33073 0.91796 0.0
C766 C 0.51831 0.35589 0.95161 0.0
C767 C 0.51929 0.36083 0.04725 0.0
C768 C 0.51832 0.38953 0.06571 0.0
C769 C 0.49412 0.39656 0.12216 0.0
C770 C 0.54282 0.39857 0.11642 0.0
C771 C 0.51701 0.40015 0.96562 0.0
C772 C 0.51722 0.38047 0.9006 0.0
C773 C 0.51773 0.38572 0.80373 0.0
C774 C 0.51774 0.41148 0.77279 0.0
C775 C 0.51696 0.43205 0.83794 0.0
C776 C 0.51653 0.42602 0.93585 0.0
H777 H 0.18339 0.49757 0.18781 0.0
H778 H 0.23524 0.50584 0.95012 0.0
H779 H 0.19771 0.51353 0.84515 0.0
H780 H 0.13637 0.46132 0.06206 0.0
H781 H 0.11003 0.47463 0.12841 0.0
H782 H 0.14158 0.47253 0.18034 0.0
H783 H 0.13911 0.5214 0.21422 0.0
H784 H 0.10816 0.52327 0.15774 0.0
H785 H 0.13413 0.54336 0.11727 0.0
H786 H 0.15329 0.51635 0.76367 0.0
H787 H 0.10781 0.51653 0.71513 0.0
H788 H 0.0847 0.50457 0.00636 0.0
C789 C 0.18703 0.50139 0.11381 0.0
C790 C 0.21261 0.50106 0.07765 0.0
C791 C 0.21613 0.50631 0.98031 0.0
C792 C 0.19479 0.51044 0.91997 0.0
C793 C 0.16987 0.50936 0.95763 0.0
C794 C 0.16601 0.50515 0.05275 0.0
C795 C 0.13744 0.50313 0.07546 0.0
C796 C 0.13095 0.47631 0.11384 0.0
C797 C 0.12923 0.52405 0.14527 0.0
C798 C 0.12557 0.50731 0.97848 0.0
C799 C 0.14462 0.5107 0.9113 0.0
C800 C 0.13838 0.51391 0.81618 0.0
C801 C 0.11228 0.51389 0.78919 0.0
C802 C 0.09224 0.51066 0.8565 0.0
C803 C 0.09927 0.50725 0.95269 0.0
H804 H 0.96381 0.84435 0.42266 0.0
H805 H 0.04003 0.81199 0.45843 0.0
H806 H 0.05294 0.85058 0.54795 0.0
H807 H 0.98435 0.90705 0.37329 0.0
H808 H 0.95802 0.92252 0.43293 0.0
H809 H 0.9538 0.89104 0.38415 0.0
H810 H 0.93939 0.87386 0.54757 0.0
H811 H 0.9434 0.90537 0.59681 0.0
H812 H 0.95991 0.87842 0.64865 0.0
H813 H 0.0584 0.89534 0.62409 0.0
H814 H 0.05599 0.94021 0.67738 0.0
H815 H 0.97695 0.94454 0.58167 0.0
C816 C 0.98328 0.84511 0.44937 0.0
C817 C 1.00089 0.82471 0.43195 0.0
C818 C 0.02593 0.82684 0.47087 0.0
C819 C 0.03352 0.84893 0.52142 0.0
C820 C 1.01594 0.86902 0.5331 0.0
C821 C 0.99125 0.86715 0.49834 0.0
C822 C 0.97636 0.89187 0.51486 0.0
C823 C 0.96762 0.90382 0.42072 0.0
C824 C 0.9534 0.88709 0.5809 0.0
C825 C 0.99662 0.90834 0.56262 0.0
C826 C 0.01922 0.89468 0.57388 0.0
C827 C 0.04069 0.90598 0.61564 0.0
C828 C 0.0391 0.93165 0.64599 0.0
C829 C 1.01627 0.94627 0.63438 0.0
C830 C 0.99475 0.93416 0.59193 0.0
H831 H 0.69515 1.00904 0.3476 0.0
H832 H 0.74706 0.02419 0.57951 0.0
H833 H 0.71042 0.02106 0.6916 0.0
H834 H 0.64411 0.04635 0.4287 0.0
H835 H 0.61904 0.02524 0.3885 0.0
H836 H 0.6496 0.02573 0.32905 0.0
H837 H 0.65471 0.97694 0.35619 0.0
H838 H 0.62395 0.9762 0.41452 0.0
H839 H 0.65208 0.96407 0.47405 0.0
H840 H 0.66585 0.02109 0.77663 0.0
H841 H 0.62013 0.02004 0.82564 0.0
H842 H 0.59789 1.00433 0.53666 0.0
C843 C 0.69899 1.01097 0.42235 0.0
C844 C 0.72425 0.01656 0.45452 0.0
C845 C 0.72817 0.01937 0.55293 0.0
C846 C 0.70731 0.0179 0.61705 0.0
C847 C 0.68251 1.01337 0.58222 0.0
C848 C 0.67845 1.00951 0.48696 0.0
C849 C 0.65 1.00595 0.46599 0.0
C850 C 0.64012 0.02707 0.39912 0.0
C851 C 0.64489 0.9792 0.4253 0.0
C852 C 0.63846 1.00865 0.56399 0.0
C853 C 0.65742 1.01303 0.63036 0.0
C854 C 0.65104 0.01727 0.72498 0.0
C855 C 0.62487 0.01671 0.75231 0.0
C856 C 0.60509 1.01183 0.68575 0.0
C857 C 0.61231 1.00779 0.59021 0.0
H858 H 0.56408 0.68885 0.39725 0.0
H859 H 0.50431 0.73091 0.54302 0.0
H860 H 0.49515 0.69237 0.64058 0.0
H861 H 0.53056 0.63047 0.38004 0.0
H862 H 0.55839 0.61043 0.39714 0.0
H863 H 0.56196 0.64192 0.34665 0.0
H864 H 0.59475 0.65375 0.47669 0.0
H865 H 0.59146 0.6222 0.52722 0.0
H866 H 0.58596 0.65006 0.59906 0.0
H867 H 0.48973 0.64675 0.71173 0.0
H868 H 0.49047 0.60095 0.7554 0.0
H869 H 0.55387 0.5885 0.56275 0.0
C870 C 0.54916 0.6902 0.45025 0.0
C871 C 0.53487 0.71331 0.46146 0.0
C872 C 0.51579 0.71386 0.53295 0.0
C873 C 0.51031 0.69184 0.5883 0.0
C874 C 0.52411 0.6692 0.57236 0.0
C875 C 0.5434 0.66842 0.50558 0.0
C876 C 0.55493 0.64163 0.49926 0.0
C877 C 0.55123 0.63046 0.39988 0.0
C878 C 0.58347 0.64194 0.52724 0.0
C879 C 0.53893 0.62715 0.57188 0.0
C880 C 0.52126 0.6434 0.61345 0.0
C881 C 0.50373 0.63412 0.67995 0.0
C882 C 0.50432 0.60789 0.7046 0.0
C883 C 0.52237 0.59074 0.66399 0.0
C884 C 0.53993 0.60083 0.59648 0.0
H885 H 0.82807 0.47521 0.51098 0.0
H886 H 0.81465 0.55163 0.4008 0.0
H887 H 0.85462 0.56641 0.47881 0.0
H888 H 0.8581 0.4938 0.73788 0.0
H889 H 0.88083 0.46778 0.73372 0.0
H890 H 0.84962 0.46431 0.68008 0.0
H891 H 0.8713 0.45262 0.52162 0.0
H892 H 0.90254 0.45633 0.57436 0.0
H893 H 0.89427 0.47435 0.4699 0.0
H894 H 0.89927 0.57149 0.55428 0.0
H895 H 0.94222 0.56732 0.62675 0.0
H896 H 0.92708 0.48723 0.68688 0.0
C897 C 0.83317 0.49524 0.5047 0.0
C898 C 0.81785 0.51226 0.44939 0.0
C899 C 0.82554 0.53824 0.44353 0.0
C900 C 0.84846 0.54674 0.48708 0.0
C901 C 0.86359 0.52914 0.53725 0.0
C902 C 0.85601 0.50396 0.54724 0.0
C903 C 0.87633 0.48842 0.59988 0.0
C904 C 0.86557 0.47797 0.69345 0.0
C905 C 0.88672 0.46665 0.53773 0.0
C906 C 0.89681 0.50866 0.61715 0.0
C907 C 0.88906 0.53204 0.58058 0.0
C908 C 0.90525 0.55332 0.584 0.0
C909 C 0.92977 0.55072 0.62534 0.0
C910 C 0.93828 0.527 0.66366 0.0
C911 C 0.92125 0.50576 0.65976 0.0
loop_
_geom_bond_atom_site_label_1
_geom_bond_atom_site_label_2
_geom_bond_distance
_geom_bond_site_symmetry_2
_ccdc_geom_bond_type
H0 C7 0.929 . S
H1 C10 0.930 . S
H2 C12 0.929 . S
H3 C4 0.969 . S
C4 H3 0.969 . S
C4 O5 1.550 . S
C4 H6 0.973 . S
O5 C4 1.550 . S
O5 C11 1.412 . S
H6 C4 0.973 . S
C7 H0 0.929 . S
C7 C8 1.400 . S
C7 C9 1.364 . S
C8 C7 1.400 . S
C8 C12 1.377 . S
C9 C7 1.364 . S
C9 C10 1.374 . S
C10 H1 0.930 . S
C10 C9 1.374 . S
C10 C11 1.383 . S
C11 O5 1.412 . S
C11 C10 1.383 . S
C11 C12 1.394 . S
C12 H2 0.929 . S
C12 C8 1.377 . S
C12 C11 1.394 . S
H13 C20 0.928 1_655 S
H14 C23 0.930 . S
H15 C25 0.928 1_655 S
H16 C17 0.969 . S
C17 H16 0.969 . S
C17 O18 1.550 1_455 S
C17 H19 0.973 1_455 S
O18 C17 1.550 1_655 S
O18 C24 1.405 1_655 S
H19 C17 0.973 1_655 S
C20 H13 0.928 1_455 S
C20 C21 1.399 . S
C20 C22 1.364 . S
C21 C20 1.399 . S
C21 C25 1.377 . S
C22 C20 1.364 . S
C22 C23 1.374 1_455 S
C23 H14 0.930 . S
C23 C22 1.374 1_655 S
C23 C24 1.382 1_655 S
C24 O18 1.405 1_455 S
C24 C23 1.382 1_455 S
C24 C25 1.394 . S
C25 H15 0.928 1_455 S
C25 C21 1.377 . S
C25 C24 1.394 . S
H26 C33 0.928 1_565 S
H27 C36 0.929 . S
H28 C38 0.928 1_565 S
H29 C30 0.969 . S
C30 H29 0.969 . S
C30 O31 1.550 1_545 S
C30 H32 0.973 1_545 S
O31 C30 1.550 1_565 S
O31 C37 1.405 1_565 S
H32 C30 0.973 1_565 S
C33 H26 0.928 1_545 S
C33 C34 1.399 . S
C33 C35 1.364 . S
C34 C33 1.399 . S
C34 C38 1.377 . S
C35 C33 1.364 . S
C35 C36 1.374 1_545 S
C36 H27 0.929 . S
C36 C35 1.374 1_565 S
C36 C37 1.382 1_565 S
C37 O31 1.405 1_545 S
C37 C36 1.382 1_545 S
C37 C38 1.394 . S
C38 H28 0.928 1_545 S
C38 C34 1.377 . S
C38 C37 1.394 . S
H39 C46 0.929 . S
H40 C49 0.930 . S
H41 C51 0.929 . S
H42 C43 0.969 . S
C43 H42 0.969 . S
C43 O44 1.550 . S
C43 H45 0.973 . S
O44 C43 1.550 . S
O44 C50 1.412 . S
H45 C43 0.973 . S
C46 H39 0.929 . S
C46 C47 1.400 . S
C46 C48 1.364 . S
C47 C46 1.400 . S
C47 C51 1.377 . S
C48 C46 1.364 . S
C48 C49 1.374 . S
C49 H40 0.930 . S
C49 C48 1.374 . S
C49 C50 1.383 . S
C50 O44 1.412 . S
C50 C49 1.383 . S
C50 C51 1.394 . S
C51 H41 0.929 . S
C51 C47 1.377 . S
C51 C50 1.394 . S
H52 C59 0.929 . S
H53 C62 0.930 . S
H54 C64 0.929 . S
H55 C56 0.969 . S
C56 H55 0.969 . S
C56 O57 1.550 . S
C56 H58 0.973 . S
O57 C56 1.550 . S
O57 C63 1.412 . S
H58 C56 0.973 . S
C59 H52 0.929 . S
C59 C60 1.400 1_554 S
C59 C61 1.364 . S
C60 C59 1.400 1_556 S
C60 C64 1.377 . S
C61 C59 1.364 . S
C61 C62 1.374 . S
C62 H53 0.930 . S
C62 C61 1.374 . S
C62 C63 1.383 . S
C63 O57 1.412 . S
C63 C62 1.383 . S
C63 C64 1.394 1_554 S
C64 H54 0.929 . S
C64 C60 1.377 . S
C64 C63 1.394 1_556 S
H65 C72 0.928 1_655 S
H66 C75 0.930 . S
H67 C77 0.928 1_655 S
H68 C69 0.969 . S
C69 H68 0.969 . S
C69 O70 1.550 1_455 S
C69 H71 0.973 1_455 S
O70 C69 1.550 1_655 S
O70 C76 1.402 1_655 S
H71 C69 0.973 1_655 S
C72 H65 0.928 1_455 S
C72 C73 1.400 1_554 S
C72 C74 1.364 . S
C73 C72 1.400 1_556 S
C73 C77 1.377 . S
C74 C72 1.364 . S
C74 C75 1.374 1_455 S
C75 H66 0.930 . S
C75 C74 1.374 1_655 S
C75 C76 1.382 1_655 S
C76 O70 1.402 1_455 S
C76 C75 1.382 1_455 S
C76 C77 1.394 1_554 S
C77 H67 0.928 1_455 S
C77 C73 1.377 . S
C77 C76 1.394 1_556 S
H78 C85 0.928 1_565 S
H79 C88 0.930 . S
H80 C90 0.928 1_565 S
H81 C82 0.969 . S
C82 H81 0.969 . S
C82 O83 1.550 1_545 S
C82 H84 0.973 1_545 S
O83 C82 1.550 1_565 S
O83 C89 1.402 1_565 S
H84 C82 0.973 1_565 S
C85 H78 0.928 1_545 S
C85 C86 1.400 1_554 S
C85 C87 1.364 . S
C86 C85 1.400 1_556 S
C86 C90 1.377 . S
C87 C85 1.364 . S
C87 C88 1.374 1_545 S
C88 H79 0.930 . S
C88 C87 1.374 1_565 S
C88 C89 1.382 1_565 S
C89 O83 1.402 1_545 S
C89 C88 1.382 1_545 S
C89 C90 1.394 1_554 S
C90 H80 0.928 1_545 S
C90 C86 1.377 . S
C90 C89 1.394 1_556 S
H91 C98 0.929 . S
H92 C101 0.930 . S
H93 C103 0.929 . S
H94 C95 0.969 . S
C95 H94 0.969 . S
C95 O96 1.550 . S
C95 H97 0.973 . S
O96 C95 1.550 . S
O96 C102 1.412 . S
H97 C95 0.973 . S
C98 H91 0.929 . S
C98 C99 1.400 1_554 S
C98 C100 1.364 . S
C99 C98 1.400 1_556 S
C99 C103 1.377 . S
C100 C98 1.364 . S
C100 C101 1.374 . S
C101 H92 0.930 . S
C101 C100 1.374 . S
C101 C102 1.383 . S
C102 O96 1.412 . S
C102 C101 1.383 . S
C102 C103 1.394 1_554 S
C103 H93 0.929 . S
C103 C99 1.377 . S
C103 C102 1.394 1_556 S
Tb104 C114 2.825 . S
Tb104 O115 2.347 1_455 S
Tb104 O118 2.366 . S
Tb104 O123 2.418 . S
Tb104 O124 2.384 1_565 S
Tb104 O127 2.479 . S
Tb104 O128 2.471 . S
Eu105 O116 2.418 . S
Eu105 O117 2.384 1_545 S
Eu105 O120 2.479 . S
Eu105 O121 2.471 . S
Eu105 O122 2.347 1_655 S
Eu105 O125 2.366 . S
Eu105 C135 2.825 . S
C106 O122 1.259 1_565 S
C106 O123 1.265 . S
C107 O124 1.255 . S
C107 O125 1.265 1_455 S
C108 C110 1.380 . S
C108 C111 1.374 . S
C108 C114 1.507 1_554 S
C109 C110 1.384 . S
C109 C113 1.387 . S
C109 H136 0.930 . S
C110 C108 1.380 . S
C110 C109 1.384 . S
C110 H137 0.931 . S
C111 C108 1.374 . S
C111 C112 1.390 . S
C111 H138 0.930 1_455 S
C112 C111 1.390 . S
C112 C113 1.391 . S
C112 H139 0.930 1_455 S
C113 C109 1.387 . S
C113 C112 1.391 . S
C114 Tb104 2.825 . S
C114 C108 1.507 1_556 S
C114 O127 1.238 . S
C114 O128 1.247 . S
O115 Tb104 2.347 1_655 S
O115 C119 1.259 1_565 S
O116 Eu105 2.418 . S
O116 C119 1.265 . S
O117 Eu105 2.384 1_565 S
O117 C126 1.255 . S
O118 Tb104 2.366 . S
O118 C126 1.265 1_455 S
C119 O115 1.259 1_545 S
C119 O116 1.265 . S
O120 Eu105 2.479 . S
O120 C135 1.238 . S
O121 Eu105 2.471 . S
O121 C135 1.247 . S
O122 Eu105 2.347 1_455 S
O122 C106 1.259 1_545 S
O123 Tb104 2.418 . S
O123 C106 1.265 . S
O124 Tb104 2.384 1_545 S
O124 C107 1.255 . S
O125 Eu105 2.366 . S
O125 C107 1.265 1_655 S
C126 O117 1.255 . S
C126 O118 1.265 1_655 S
O127 Tb104 2.479 . S
O127 C114 1.238 . S
O128 Tb104 2.471 . S
O128 C114 1.247 . S
C129 C132 1.380 . S
C129 C133 1.374 . S
C129 C135 1.507 . S
C130 C131 1.387 . S
C130 C134 1.391 . S
C131 C130 1.387 . S
C131 C132 1.384 . S
C131 H140 0.930 . S
C132 C129 1.380 . S
C132 C131 1.384 . S
C132 H141 0.931 . S
C133 C129 1.374 . S
C133 C134 1.390 . S
C133 H142 0.930 1_655 S
C134 C130 1.391 . S
C134 C133 1.390 . S
C134 H143 0.930 1_655 S
C135 Eu105 2.825 . S
C135 O120 1.238 . S
C135 O121 1.247 . S
C135 C129 1.507 . S
H136 C109 0.930 . S
H137 C110 0.931 . S
H138 C111 0.930 1_655 S
H139 C112 0.930 1_655 S
H140 C131 0.930 . S
H141 C132 0.931 . S
H142 C133 0.930 1_455 S
H143 C134 0.930 1_455 S
Tb144 C154 2.825 . S
Tb144 O155 2.347 1_545 S
Tb144 O158 2.366 . S
Tb144 O163 2.418 . S
Tb144 O164 2.384 . S
Tb144 O167 2.479 . S
Tb144 O168 2.471 . S
Eu145 O156 2.418 . S
Eu145 O157 2.384 . S
Eu145 O160 2.479 . S
Eu145 O161 2.471 . S
Eu145 O162 2.347 1_565 S
Eu145 O165 2.366 . S
Eu145 C175 2.825 . S
C146 O162 1.259 . S
C146 O163 1.265 . S
C147 O164 1.255 . S
C147 O165 1.265 1_545 S
C148 C150 1.380 . S
C148 C151 1.374 . S
C148 C154 1.507 1_554 S
C149 C150 1.384 . S
C149 C153 1.387 . S
C149 H176 0.930 . S
C150 C148 1.380 . S
C150 C149 1.384 . S
C150 H177 0.931 . S
C151 C148 1.374 . S
C151 C152 1.390 . S
C151 H178 0.930 1_545 S
C152 C151 1.390 . S
C152 C153 1.391 . S
C152 H179 0.930 1_545 S
C153 C149 1.387 . S
C153 C152 1.391 . S
C154 Tb144 2.825 . S
C154 C148 1.507 1_556 S
C154 O167 1.238 . S
C154 O168 1.247 . S
O155 Tb144 2.347 1_565 S
O155 C159 1.259 . S
O156 Eu145 2.418 . S
O156 C159 1.265 . S
O157 Eu145 2.384 . S
O157 C166 1.255 . S
O158 Tb144 2.366 . S
O158 C166 1.265 1_545 S
C159 O155 1.259 . S
C159 O156 1.265 . S
O160 Eu145 2.479 . S
O160 C175 1.238 . S
O161 Eu145 2.471 . S
O161 C175 1.247 . S
O162 Eu145 2.347 1_545 S
O162 C146 1.259 . S
O163 Tb144 2.418 . S
O163 C146 1.265 . S
O164 Tb144 2.384 . S
O164 C147 1.255 . S
O165 Eu145 2.366 . S
O165 C147 1.265 1_565 S
C166 O157 1.255 . S
C166 O158 1.265 1_565 S
O167 Tb144 2.479 . S
O167 C154 1.238 . S
O168 Tb144 2.471 . S
O168 C154 1.247 . S
C169 C172 1.380 . S
C169 C173 1.374 . S
C169 C175 1.507 . S
C170 C171 1.387 . S
C170 C174 1.391 . S
C171 C170 1.387 . S
C171 C172 1.384 . S
C171 H180 0.930 . S
C172 C169 1.380 . S
C172 C171 1.384 . S
C172 H181 0.931 . S
C173 C169 1.374 . S
C173 C174 1.390 . S
C173 H182 0.930 1_565 S
C174 C170 1.391 . S
C174 C173 1.390 . S
C174 H183 0.930 1_565 S
C175 Eu145 2.825 . S
C175 O160 1.238 . S
C175 O161 1.247 . S
C175 C169 1.507 . S
H176 C149 0.930 . S
H177 C150 0.931 . S
H178 C151 0.930 1_565 S
H179 C152 0.930 1_565 S
H180 C171 0.930 . S
H181 C172 0.931 . S
H182 C173 0.930 1_545 S
H183 C174 0.930 1_545 S
Tb184 C194 2.825 . S
Tb184 O195 2.347 . S
Tb184 O198 2.366 . S
Tb184 O203 2.418 . S
Tb184 O204 2.384 . S
Tb184 O207 2.479 . S
Tb184 O208 2.471 . S
Eu185 O196 2.418 . S
Eu185 O197 2.384 . S
Eu185 O200 2.479 . S
Eu185 O201 2.471 . S
Eu185 O202 2.347 . S
Eu185 O205 2.366 . S
Eu185 C215 2.825 . S
C186 O202 1.259 . S
C186 O203 1.265 . S
C187 O204 1.255 . S
C187 O205 1.265 . S
C188 C190 1.380 . S
C188 C191 1.374 . S
C188 C194 1.507 1_554 S
C189 C190 1.384 . S
C189 C193 1.387 . S
C189 H216 0.930 . S
C190 C188 1.380 . S
C190 C189 1.384 . S
C190 H217 0.931 . S
C191 C188 1.374 . S
C191 C192 1.390 . S
C191 H218 0.930 . S
C192 C191 1.390 . S
C192 C193 1.391 . S
C192 H219 0.930 . S
C193 C189 1.387 . S
C193 C192 1.391 . S
C194 Tb184 2.825 . S
C194 C188 1.507 1_556 S
C194 O207 1.238 . S
C194 O208 1.247 . S
O195 Tb184 2.347 . S
O195 C199 1.259 . S
O196 Eu185 2.418 . S
O196 C199 1.265 . S
O197 Eu185 2.384 . S
O197 C206 1.255 . S
O198 Tb184 2.366 . S
O198 C206 1.265 . S
C199 O195 1.259 . S
C199 O196 1.265 . S
O200 Eu185 2.479 . S
O200 C215 1.238 . S
O201 Eu185 2.471 . S
O201 C215 1.247 . S
O202 Eu185 2.347 . S
O202 C186 1.259 . S
O203 Tb184 2.418 . S
O203 C186 1.265 . S
O204 Tb184 2.384 . S
O204 C187 1.255 . S
O205 Eu185 2.366 . S
O205 C187 1.265 . S
C206 O197 1.255 . S
C206 O198 1.265 . S
O207 Tb184 2.479 . S
O207 C194 1.238 . S
O208 Tb184 2.471 . S
O208 C194 1.247 . S
C209 C212 1.380 . S
C209 C213 1.374 . S
C209 C215 1.507 . S
C210 C211 1.387 . S
C210 C214 1.391 . S
C211 C210 1.387 . S
C211 C212 1.384 . S
C211 H220 0.930 . S
C212 C209 1.380 . S
C212 C211 1.384 . S
C212 H221 0.931 . S
C213 C209 1.374 . S
C213 C214 1.390 . S
C213 H222 0.930 . S
C214 C210 1.391 . S
C214 C213 1.390 . S
C214 H223 0.930 . S
C215 Eu185 2.825 . S
C215 O200 1.238 . S
C215 O201 1.247 . S
C215 C209 1.507 . S
H216 C189 0.930 . S
H217 C190 0.931 . S
H218 C191 0.930 . S
H219 C192 0.930 . S
H220 C211 0.930 . S
H221 C212 0.931 . S
H222 C213 0.930 . S
H223 C214 0.930 . S
Tb224 C234 2.825 . S
Tb224 O235 2.347 . S
Tb224 O238 2.366 . S
Tb224 O243 2.418 . S
Tb224 O244 2.384 1_655 S
Tb224 O247 2.479 . S
Tb224 O248 2.471 . S
Eu225 O236 2.418 . S
Eu225 O237 2.384 1_455 S
Eu225 O240 2.479 . S
Eu225 O241 2.471 . S
Eu225 O242 2.347 . S
Eu225 O245 2.366 . S
Eu225 C255 2.825 . S
C226 O242 1.259 1_655 S
C226 O243 1.265 . S
C227 O244 1.255 . S
C227 O245 1.265 . S
C228 C230 1.380 . S
C228 C231 1.374 . S
C228 C234 1.507 1_554 S
C229 C230 1.384 . S
C229 C233 1.387 . S
C229 H256 0.930 . S
C230 C228 1.380 . S
C230 C229 1.384 . S
C230 H257 0.931 . S
C231 C228 1.374 . S
C231 C232 1.390 . S
C231 H258 0.930 . S
C232 C231 1.390 . S
C232 C233 1.391 . S
C232 H259 0.930 . S
C233 C229 1.387 . S
C233 C232 1.391 . S
C234 Tb224 2.825 . S
C234 C228 1.507 1_556 S
C234 O247 1.238 . S
C234 O248 1.247 . S
O235 Tb224 2.347 . S
O235 C239 1.259 1_655 S
O236 Eu225 2.418 . S
O236 C239 1.265 . S
O237 Eu225 2.384 1_655 S
O237 C246 1.255 . S
O238 Tb224 2.366 . S
O238 C246 1.265 . S
C239 O235 1.259 1_455 S
C239 O236 1.265 . S
O240 Eu225 2.479 . S
O240 C255 1.238 . S
O241 Eu225 2.471 . S
O241 C255 1.247 . S
O242 Eu225 2.347 . S
O242 C226 1.259 1_455 S
O243 Tb224 2.418 . S
O243 C226 1.265 . S
O244 Tb224 2.384 1_455 S
O244 C227 1.255 . S
O245 Eu225 2.366 . S
O245 C227 1.265 . S
C246 O237 1.255 . S
C246 O238 1.265 . S
O247 Tb224 2.479 . S
O247 C234 1.238 . S
O248 Tb224 2.471 . S
O248 C234 1.247 . S
C249 C252 1.380 . S
C249 C253 1.374 . S
C249 C255 1.507 . S
C250 C251 1.387 . S
C250 C254 1.391 . S
C251 C250 1.387 . S
C251 C252 1.384 . S
C251 H260 0.930 . S
C252 C249 1.380 . S
C252 C251 1.384 . S
C252 H261 0.931 . S
C253 C249 1.374 . S
C253 C254 1.390 . S
C253 H262 0.930 . S
C254 C250 1.391 . S
C254 C253 1.390 . S
C254 H263 0.930 . S
C255 Eu225 2.825 . S
C255 O240 1.238 . S
C255 O241 1.247 . S
C255 C249 1.507 . S
H256 C229 0.930 . S
H257 C230 0.931 . S
H258 C231 0.930 . S
H259 C232 0.930 . S
H260 C251 0.930 . S
H261 C252 0.931 . S
H262 C253 0.930 . S
H263 C254 0.930 . S
H264 C276 0.930 . S
H265 C278 0.930 . S
H266 C279 0.930 . S
H267 C283 0.959 . S
H268 C283 0.959 . S
H269 C283 0.961 . S
H270 C284 0.960 . S
H271 C284 0.961 . S
H272 C284 0.959 . S
H273 C287 0.929 . S
H274 C288 0.931 . S
H275 C290 0.930 . S
C276 H264 0.930 . S
C276 C277 1.399 1_565 S
C276 C281 1.399 . S
C277 C276 1.399 1_545 S
C277 C278 1.376 . S
C278 H265 0.930 . S
C278 C277 1.376 . S
C278 C279 1.388 . S
C279 H266 0.930 . S
C279 C278 1.388 . S
C279 C280 1.390 . S
C280 C279 1.390 . S
C280 C281 1.394 1_545 S
C280 C286 1.465 . S
C281 C276 1.399 . S
C281 C280 1.394 1_565 S
C281 C282 1.516 . S
C282 C281 1.516 . S
C282 C283 1.502 . S
C282 C284 1.561 . S
C282 C285 1.526 . S
C283 H267 0.959 . S
C283 H268 0.959 . S
C283 H269 0.961 . S
C283 C282 1.502 . S
C284 H270 0.960 . S
C284 H271 0.961 . S
C284 H272 0.959 . S
C284 C282 1.561 . S
C285 C282 1.526 . S
C285 C286 1.396 1_565 S
C285 C290 1.390 . S
C286 C280 1.465 . S
C286 C285 1.396 1_545 S
C286 C287 1.399 . S
C287 H273 0.929 . S
C287 C286 1.399 . S
C287 C288 1.385 . S
C288 H274 0.931 . S
C288 C287 1.385 . S
C288 C289 1.389 . S
C289 C288 1.389 . S
C289 C290 1.387 1_545 S
C290 H275 0.930 . S
C290 C285 1.390 . S
C290 C289 1.387 1_565 S
H291 C303 0.930 . S
H292 C305 0.930 . S
H293 C306 0.930 . S
H294 C310 0.959 . S
H295 C310 0.959 . S
H296 C310 0.961 . S
H297 C311 0.960 . S
H298 C311 0.961 . S
H299 C311 0.959 . S
H300 C314 0.929 . S
H301 C315 0.931 . S
H302 C317 0.930 . S
C303 H291 0.930 . S
C303 C304 1.399 . S
C303 C308 1.399 . S
C304 C303 1.399 . S
C304 C305 1.376 . S
C305 H292 0.930 . S
C305 C304 1.376 . S
C305 C306 1.388 . S
C306 H293 0.930 . S
C306 C305 1.388 . S
C306 C307 1.390 . S
C307 C306 1.390 . S
C307 C308 1.394 . S
C307 C313 1.465 . S
C308 C303 1.399 . S
C308 C307 1.394 . S
C308 C309 1.516 . S
C309 C308 1.516 . S
C309 C310 1.502 . S
C309 C311 1.561 . S
C309 C312 1.526 . S
C310 H294 0.959 . S
C310 H295 0.959 . S
C310 H296 0.961 . S
C310 C309 1.502 . S
C311 H297 0.960 . S
C311 H298 0.961 . S
C311 H299 0.959 . S
C311 C309 1.561 . S
C312 C309 1.526 . S
C312 C313 1.396 . S
C312 C317 1.390 . S
C313 C307 1.465 . S
C313 C312 1.396 . S
C313 C314 1.399 . S
C314 H300 0.929 . S
C314 C313 1.399 . S
C314 C315 1.385 . S
C315 H301 0.931 . S
C315 C314 1.385 . S
C315 C316 1.389 . S
C316 C315 1.389 . S
C316 C317 1.387 . S
C317 H302 0.930 . S
C317 C312 1.390 . S
C317 C316 1.387 . S
H318 C330 0.930 . S
H319 C332 0.930 . S
H320 C333 0.930 . S
H321 C337 0.959 . S
H322 C337 0.959 . S
H323 C337 0.961 . S
H324 C338 0.960 . S
H325 C338 0.961 . S
H326 C338 0.959 . S
H327 C341 0.929 . S
H328 C342 0.931 . S
H329 C344 0.930 . S
C330 H318 0.930 . S
C330 C331 1.399 . S
C330 C335 1.399 . S
C331 C330 1.399 . S
C331 C332 1.376 . S
C332 H319 0.930 . S
C332 C331 1.376 . S
C332 C333 1.388 . S
C333 H320 0.930 . S
C333 C332 1.388 . S
C333 C334 1.390 . S
C334 C333 1.390 . S
C334 C335 1.394 . S
C334 C340 1.465 . S
C335 C330 1.399 . S
C335 C334 1.394 . S
C335 C336 1.516 . S
C336 C335 1.516 . S
C336 C337 1.502 . S
C336 C338 1.561 . S
C336 C339 1.526 . S
C337 H321 0.959 . S
C337 H322 0.959 . S
C337 H323 0.961 . S
C337 C336 1.502 . S
C338 H324 0.960 . S
C338 H325 0.961 . S
C338 H326 0.959 . S
C338 C336 1.561 . S
C339 C336 1.526 . S
C339 C340 1.396 . S
C339 C344 1.390 . S
C340 C334 1.465 . S
C340 C339 1.396 . S
C340 C341 1.399 . S
C341 H327 0.929 . S
C341 C340 1.399 . S
C341 C342 1.385 . S
C342 H328 0.931 . S
C342 C341 1.385 . S
C342 C343 1.389 . S
C343 C342 1.389 . S
C343 C344 1.387 . S
C344 H329 0.930 . S
C344 C339 1.390 . S
C344 C343 1.387 . S
H345 C357 0.930 . S
H346 C359 0.930 . S
H347 C360 0.930 . S
H348 C364 0.959 . S
H349 C364 0.959 . S
H350 C364 0.961 . S
H351 C365 0.960 . S
H352 C365 0.961 . S
H353 C365 0.959 . S
H354 C368 0.929 . S
H355 C369 0.931 . S
H356 C371 0.930 . S
C357 H345 0.930 . S
C357 C358 1.399 1_455 S
C357 C362 1.399 . S
C358 C357 1.399 1_655 S
C358 C359 1.376 . S
C359 H346 0.930 . S
C359 C358 1.376 . S
C359 C360 1.388 . S
C360 H347 0.930 . S
C360 C359 1.388 . S
C360 C361 1.390 . S
C361 C360 1.390 . S
C361 C362 1.394 1_655 S
C361 C367 1.465 . S
C362 C357 1.399 . S
C362 C361 1.394 1_455 S
C362 C363 1.516 . S
C363 C362 1.516 . S
C363 C364 1.502 . S
C363 C365 1.561 1_455 S
C363 C366 1.526 . S
C364 H348 0.959 . S
C364 H349 0.959 . S
C364 H350 0.961 . S
C364 C363 1.502 . S
C365 H351 0.960 . S
C365 H352 0.961 . S
C365 H353 0.959 . S
C365 C363 1.561 1_655 S
C366 C363 1.526 . S
C366 C367 1.396 1_455 S
C366 C371 1.390 . S
C367 C361 1.465 . S
C367 C366 1.396 1_655 S
C367 C368 1.399 . S
C368 H354 0.929 . S
C368 C367 1.399 . S
C368 C369 1.385 . S
C369 H355 0.931 . S
C369 C368 1.385 . S
C369 C370 1.391 . S
C370 C369 1.391 . S
C370 C371 1.386 1_655 S
C371 H356 0.930 . S
C371 C366 1.390 . S
C371 C370 1.386 1_455 S
H372 C384 0.930 . S
H373 C386 0.930 . S
H374 C387 0.930 . S
H375 C391 0.959 . S
H376 C391 0.959 . S
H377 C391 0.961 . S
H378 C392 0.960 . S
H379 C392 0.961 . S
H380 C392 0.959 . S
H381 C395 0.929 . S
H382 C396 0.931 . S
H383 C398 0.930 . S
C384 H372 0.930 . S
C384 C385 1.399 1_565 S
C384 C389 1.399 . S
C385 C384 1.399 1_545 S
C385 C386 1.376 . S
C386 H373 0.930 . S
C386 C385 1.376 . S
C386 C387 1.388 . S
C387 H374 0.930 . S
C387 C386 1.388 . S
C387 C388 1.390 . S
C388 C387 1.390 . S
C388 C389 1.394 1_545 S
C388 C394 1.465 . S
C389 C384 1.399 . S
C389 C388 1.394 1_565 S
C389 C390 1.516 . S
C390 C389 1.516 . S
C390 C391 1.502 . S
C390 C392 1.561 . S
C390 C393 1.526 . S
C391 H375 0.959 . S
C391 H376 0.959 . S
C391 H377 0.961 . S
C391 C390 1.502 . S
C392 H378 0.960 . S
C392 H379 0.961 . S
C392 H380 0.959 . S
C392 C390 1.561 . S
C393 C390 1.526 . S
C393 C394 1.396 1_565 S
C393 C398 1.390 . S
C394 C388 1.465 . S
C394 C393 1.396 1_545 S
C394 C395 1.399 1_554 S
C395 H381 0.929 . S
C395 C394 1.399 1_556 S
C395 C396 1.385 . S
C396 H382 0.931 . S
C396 C395 1.385 . S
C396 C397 1.389 . S
C397 C396 1.389 . S
C397 C398 1.387 1_546 S
C398 H383 0.930 . S
C398 C393 1.390 . S
C398 C397 1.387 1_564 S
H399 C411 0.930 . S
H400 C413 0.930 . S
H401 C414 0.930 . S
H402 C418 0.959 . S
H403 C418 0.959 . S
H404 C418 0.961 . S
H405 C419 0.960 . S
H406 C419 0.961 . S
H407 C419 0.959 . S
H408 C422 0.929 . S
H409 C423 0.931 . S
H410 C425 0.930 . S
C411 H399 0.930 . S
C411 C412 1.399 . S
C411 C416 1.399 . S
C412 C411 1.399 . S
C412 C413 1.376 . S
C413 H400 0.930 . S
C413 C412 1.376 . S
C413 C414 1.388 . S
C414 H401 0.930 . S
C414 C413 1.388 . S
C414 C415 1.390 . S
C415 C414 1.390 . S
C415 C416 1.394 . S
C415 C421 1.465 . S
C416 C411 1.399 . S
C416 C415 1.394 . S
C416 C417 1.516 . S
C417 C416 1.516 . S
C417 C418 1.502 . S
C417 C419 1.561 . S
C417 C420 1.526 . S
C418 H402 0.959 . S
C418 H403 0.959 . S
C418 H404 0.961 . S
C418 C417 1.502 . S
C419 H405 0.960 . S
C419 H406 0.961 . S
C419 H407 0.959 . S
C419 C417 1.561 . S
C420 C417 1.526 . S
C420 C421 1.396 . S
C420 C425 1.390 . S
C421 C415 1.465 . S
C421 C420 1.396 . S
C421 C422 1.399 1_554 S
C422 H408 0.929 . S
C422 C421 1.399 1_556 S
C422 C423 1.385 . S
C423 H409 0.931 . S
C423 C422 1.385 . S
C423 C424 1.389 . S
C424 C423 1.389 . S
C424 C425 1.387 1_556 S
C425 H410 0.930 . S
C425 C420 1.390 . S
C425 C424 1.387 1_554 S
H426 C438 0.930 . S
H427 C440 0.930 . S
H428 C441 0.930 . S
H429 C445 0.959 . S
H430 C445 0.959 . S
H431 C445 0.961 1_554 S
H432 C446 0.960 . S
H433 C446 0.961 1_556 S
H434 C446 0.959 . S
H435 C449 0.929 . S
H436 C450 0.931 . S
H437 C452 0.930 . S
C438 H426 0.930 . S
C438 C439 1.399 . S
C438 C443 1.399 . S
C439 C438 1.399 . S
C439 C440 1.376 . S
C440 H427 0.930 . S
C440 C439 1.376 . S
C440 C441 1.388 . S
C441 H428 0.930 . S
C441 C440 1.388 . S
C441 C442 1.390 . S
C442 C441 1.390 . S
C442 C443 1.394 . S
C442 C448 1.465 . S
C443 C438 1.399 . S
C443 C442 1.394 . S
C443 C444 1.516 . S
C444 C443 1.516 . S
C444 C445 1.502 1_554 S
C444 C446 1.561 . S
C444 C447 1.526 . S
C445 H429 0.959 . S
C445 H430 0.959 . S
C445 H431 0.961 1_556 S
C445 C444 1.502 1_556 S
C446 H432 0.960 . S
C446 H433 0.961 1_554 S
C446 H434 0.959 . S
C446 C444 1.561 . S
C447 C444 1.526 . S
C447 C448 1.396 . S
C447 C452 1.390 1_554 S
C448 C442 1.465 . S
C448 C447 1.396 . S
C448 C449 1.399 . S
C449 H435 0.929 . S
C449 C448 1.399 . S
C449 C450 1.385 . S
C450 H436 0.931 . S
C450 C449 1.385 . S
C450 C451 1.389 1_554 S
C451 C450 1.389 1_556 S
C451 C452 1.387 . S
C452 H437 0.930 . S
C452 C447 1.390 1_556 S
C452 C451 1.387 . S
H453 C465 0.929 1_655 S
H454 C467 0.930 . S
H455 C468 0.930 . S
H456 C472 0.959 . S
H457 C472 0.959 1_556 S
H458 C472 0.961 . S
H459 C473 0.960 . S
H460 C473 0.961 1_556 S
H461 C473 0.959 . S
H462 C476 0.929 . S
H463 C477 0.930 . S
H464 C479 0.930 . S
C465 H453 0.929 1_455 S
C465 C466 1.399 . S
C465 C470 1.401 . S
C466 C465 1.399 . S
C466 C467 1.379 . S
C467 H454 0.930 . S
C467 C466 1.379 . S
C467 C468 1.388 . S
C468 H455 0.930 . S
C468 C467 1.388 . S
C468 C469 1.390 . S
C469 C468 1.390 . S
C469 C470 1.394 . S
C469 C475 1.465 . S
C470 C465 1.401 . S
C470 C469 1.394 . S
C470 C471 1.516 . S
C471 C470 1.516 . S
C471 C472 1.502 1_455 S
C471 C473 1.561 . S
C471 C474 1.526 . S
C472 H456 0.959 . S
C472 H457 0.959 1_554 S
C472 H458 0.961 . S
C472 C471 1.502 1_655 S
C473 H459 0.960 . S
C473 H460 0.961 1_554 S
C473 H461 0.959 . S
C473 C471 1.561 . S
C474 C471 1.526 . S
C474 C475 1.396 . S
C474 C479 1.390 1_554 S
C475 C469 1.465 . S
C475 C474 1.396 . S
C475 C476 1.399 . S
C476 H462 0.929 . S
C476 C475 1.399 . S
C476 C477 1.385 1_455 S
C477 H463 0.930 . S
C477 C476 1.385 1_655 S
C477 C478 1.389 1_554 S
C478 C477 1.389 1_556 S
C478 C479 1.386 1_655 S
C479 H464 0.930 . S
C479 C474 1.390 1_556 S
C479 C478 1.386 1_455 S
H480 C492 0.930 . S
H481 C494 0.930 . S
H482 C495 0.930 . S
H483 C499 0.959 . S
H484 C499 0.959 . S
H485 C499 0.961 . S
H486 C500 0.960 . S
H487 C500 0.961 . S
H488 C500 0.924 1_455 S
H489 C503 0.929 1_455 S
H490 C504 0.931 . S
H491 C506 0.930 . S
C492 H480 0.930 . S
C492 C493 1.399 1_655 S
C492 C497 1.399 . S
C493 C492 1.399 1_455 S
C493 C494 1.376 . S
C494 H481 0.930 . S
C494 C493 1.376 . S
C494 C495 1.388 . S
C495 H482 0.930 . S
C495 C494 1.388 . S
C495 C496 1.390 1_455 S
C496 C495 1.390 1_655 S
C496 C497 1.394 . S
C496 C502 1.465 . S
C497 C492 1.399 . S
C497 C496 1.394 . S
C497 C498 1.516 . S
C498 C497 1.516 . S
C498 C499 1.502 . S
C498 C500 1.561 . S
C498 C501 1.526 . S
C499 H483 0.959 . S
C499 H484 0.959 . S
C499 H485 0.961 . S
C499 C498 1.502 . S
C500 H486 0.960 . S
C500 H487 0.961 . S
C500 H488 0.924 1_655 S
C500 C498 1.561 . S
C501 C498 1.526 . S
C501 C502 1.396 . S
C501 C506 1.390 . S
C502 C496 1.465 . S
C502 C501 1.396 . S
C502 C503 1.399 . S
C503 H489 0.929 1_655 S
C503 C502 1.399 . S
C503 C504 1.385 . S
C504 H490 0.931 . S
C504 C503 1.385 . S
C504 C505 1.389 . S
C505 C504 1.389 . S
C505 C506 1.387 . S
C506 H491 0.930 . S
C506 C501 1.390 . S
C506 C505 1.387 . S
H507 C519 0.930 . S
H508 C521 0.930 . S
H509 C522 0.930 . S
H510 C526 0.959 . S
H511 C526 0.959 . S
H512 C526 0.961 . S
H513 C527 0.960 . S
H514 C527 0.961 . S
H515 C527 0.959 . S
H516 C530 0.929 . S
H517 C531 0.931 . S
H518 C533 0.930 1_545 S
C519 H507 0.930 . S
C519 C520 1.397 1_545 S
C519 C524 1.399 . S
C520 C519 1.397 1_565 S
C520 C521 1.380 . S
C521 H508 0.930 . S
C521 C520 1.380 . S
C521 C522 1.388 . S
C522 H509 0.930 . S
C522 C521 1.388 . S
C522 C523 1.390 . S
C523 C522 1.390 . S
C523 C524 1.394 1_565 S
C523 C529 1.465 . S
C524 C519 1.399 . S
C524 C523 1.394 1_545 S
C524 C525 1.516 . S
C525 C524 1.516 . S
C525 C526 1.502 . S
C525 C527 1.561 . S
C525 C528 1.526 1_545 S
C526 H510 0.959 . S
C526 H511 0.959 . S
C526 H512 0.961 . S
C526 C525 1.502 . S
C527 H513 0.960 . S
C527 H514 0.961 . S
C527 H515 0.959 . S
C527 C525 1.561 . S
C528 C525 1.526 1_565 S
C528 C529 1.396 . S
C528 C533 1.390 . S
C529 C523 1.465 . S
C529 C528 1.396 . S
C529 C530 1.399 . S
C530 H516 0.929 . S
C530 C529 1.399 . S
C530 C531 1.385 . S
C531 H517 0.931 . S
C531 C530 1.385 . S
C531 C532 1.389 . S
C532 C531 1.389 . S
C532 C533 1.387 . S
C533 H518 0.930 1_565 S
C533 C528 1.390 . S
C533 C532 1.387 . S
H534 C546 0.930 . S
H535 C548 0.930 . S
H536 C549 0.930 . S
H537 C553 0.959 . S
H538 C553 0.959 . S
H539 C553 0.961 . S
H540 C554 0.960 . S
H541 C554 0.961 . S
H542 C554 0.959 . S
H543 C557 0.929 . S
H544 C558 0.931 . S
H545 C560 0.930 . S
C546 H534 0.930 . S
C546 C547 1.399 . S
C546 C551 1.399 . S
C547 C546 1.399 . S
C547 C548 1.376 . S
C548 H535 0.930 . S
C548 C547 1.376 . S
C548 C549 1.388 . S
C549 H536 0.930 . S
C549 C548 1.388 . S
C549 C550 1.390 . S
C550 C549 1.390 . S
C550 C551 1.394 . S
C550 C556 1.465 . S
C551 C546 1.399 . S
C551 C550 1.394 . S
C551 C552 1.516 . S
C552 C551 1.516 . S
C552 C553 1.502 . S
C552 C554 1.561 . S
C552 C555 1.526 . S
C553 H537 0.959 . S
C553 H538 0.959 . S
C553 H539 0.961 . S
C553 C552 1.502 . S
C554 H540 0.960 . S
C554 H541 0.961 . S
C554 H542 0.959 . S
C554 C552 1.561 . S
C555 C552 1.526 . S
C555 C556 1.396 . S
C555 C560 1.390 . S
C556 C550 1.465 . S
C556 C555 1.396 . S
C556 C557 1.399 . S
C557 H543 0.929 . S
C557 C556 1.399 . S
C557 C558 1.385 . S
C558 H544 0.931 . S
C558 C557 1.385 . S
C558 C559 1.389 . S
C559 C558 1.389 . S
C559 C560 1.387 . S
C560 H545 0.930 . S
C560 C555 1.390 . S
C560 C559 1.387 . S
H561 C573 0.930 . S
H562 C575 0.930 . S
H563 C576 0.930 . S
H564 C580 0.959 . S
H565 C580 0.959 . S
H566 C580 0.961 . S
H567 C581 0.960 . S
H568 C581 0.961 . S
H569 C581 0.959 . S
H570 C584 0.929 . S
H571 C585 0.931 . S
H572 C587 0.930 . S
C573 H561 0.930 . S
C573 C574 1.399 . S
C573 C578 1.399 . S
C574 C573 1.399 . S
C574 C575 1.376 . S
C575 H562 0.930 . S
C575 C574 1.376 . S
C575 C576 1.388 . S
C576 H563 0.930 . S
C576 C575 1.388 . S
C576 C577 1.390 . S
C577 C576 1.390 . S
C577 C578 1.394 . S
C577 C583 1.465 . S
C578 C573 1.399 . S
C578 C577 1.394 . S
C578 C579 1.516 . S
C579 C578 1.516 . S
C579 C580 1.502 . S
C579 C581 1.561 . S
C579 C582 1.526 . S
C580 H564 0.959 . S
C580 H565 0.959 . S
C580 H566 0.961 . S
C580 C579 1.502 . S
C581 H567 0.960 . S
C581 H568 0.961 . S
C581 H569 0.959 . S
C581 C579 1.561 . S
C582 C579 1.526 . S
C582 C583 1.396 . S
C582 C587 1.390 . S
C583 C577 1.465 . S
C583 C582 1.396 . S
C583 C584 1.399 . S
C584 H570 0.929 . S
C584 C583 1.399 . S
C584 C585 1.385 . S
C585 H571 0.931 . S
C585 C584 1.385 . S
C585 C586 1.389 . S
C586 C585 1.389 . S
C586 C587 1.387 . S
C587 H572 0.930 . S
C587 C582 1.390 . S
C587 C586 1.387 . S
H588 C600 0.930 . S
H589 C602 0.930 . S
H590 C603 0.930 . S
H591 C607 0.959 . S
H592 C607 0.959 . S
H593 C607 0.961 . S
H594 C608 0.960 . S
H595 C608 0.961 . S
H596 C608 0.959 . S
H597 C611 0.929 . S
H598 C612 0.927 1_655 S
H599 C614 0.930 . S
C600 H588 0.930 . S
C600 C601 1.399 1_455 S
C600 C605 1.399 . S
C601 C600 1.399 1_655 S
C601 C602 1.376 . S
C602 H589 0.930 . S
C602 C601 1.376 . S
C602 C603 1.388 . S
C603 H590 0.930 . S
C603 C602 1.388 . S
C603 C604 1.401 . S
C604 C603 1.401 . S
C604 C605 1.384 1_655 S
C604 C610 1.461 1_655 S
C605 C600 1.399 . S
C605 C604 1.384 1_455 S
C605 C606 1.516 . S
C606 C605 1.516 . S
C606 C607 1.502 . S
C606 C608 1.561 . S
C606 C609 1.526 . S
C607 H591 0.959 . S
C607 H592 0.959 . S
C607 H593 0.961 . S
C607 C606 1.502 . S
C608 H594 0.960 . S
C608 H595 0.961 . S
C608 H596 0.959 . S
C608 C606 1.561 . S
C609 C606 1.526 . S
C609 C610 1.396 . S
C609 C614 1.390 . S
C610 C604 1.461 1_455 S
C610 C609 1.396 . S
C610 C611 1.399 1_455 S
C611 H597 0.929 . S
C611 C610 1.399 1_655 S
C611 C612 1.385 1_655 S
C612 H598 0.927 1_455 S
C612 C611 1.385 1_455 S
C612 C613 1.389 . S
C613 C612 1.389 . S
C613 C614 1.387 . S
C614 H599 0.930 . S
C614 C609 1.390 . S
C614 C613 1.387 . S
H615 C627 0.930 . S
H616 C629 0.930 . S
H617 C630 0.930 . S
H618 C634 0.959 . S
H619 C634 0.959 . S
H620 C634 0.961 . S
H621 C635 0.960 . S
H622 C635 0.961 . S
H623 C635 0.959 . S
H624 C638 0.929 . S
H625 C639 0.931 1_565 S
H626 C641 0.930 . S
C627 H615 0.930 . S
C627 C628 1.399 1_545 S
C627 C632 1.399 . S
C628 C627 1.399 1_565 S
C628 C629 1.376 . S
C629 H616 0.930 . S
C629 C628 1.376 . S
C629 C630 1.388 . S
C630 H617 0.930 . S
C630 C629 1.388 . S
C630 C631 1.378 1_565 S
C631 C630 1.378 1_545 S
C631 C632 1.405 . S
C631 C637 1.469 . S
C632 C627 1.399 . S
C632 C631 1.405 . S
C632 C633 1.516 . S
C633 C632 1.516 . S
C633 C634 1.502 . S
C633 C635 1.561 . S
C633 C636 1.526 . S
C634 H618 0.959 . S
C634 H619 0.959 . S
C634 H620 0.961 . S
C634 C633 1.502 . S
C635 H621 0.960 . S
C635 H622 0.961 . S
C635 H623 0.959 . S
C635 C633 1.561 . S
C636 C633 1.526 . S
C636 C637 1.396 . S
C636 C641 1.390 . S
C637 C631 1.469 . S
C637 C636 1.396 . S
C637 C638 1.399 1_545 S
C638 H624 0.929 . S
C638 C637 1.399 1_565 S
C638 C639 1.385 1_565 S
C639 H625 0.931 1_545 S
C639 C638 1.385 1_545 S
C639 C640 1.389 . S
C640 C639 1.389 . S
C640 C641 1.387 . S
C641 H626 0.930 . S
C641 C636 1.390 . S
C641 C640 1.387 . S
H642 C654 0.930 . S
H643 C656 0.930 . S
H644 C657 0.930 . S
H645 C661 0.959 . S
H646 C661 0.959 . S
H647 C661 0.961 . S
H648 C662 0.960 . S
H649 C662 0.961 . S
H650 C662 0.959 . S
H651 C665 0.929 . S
H652 C666 0.931 . S
H653 C668 0.930 . S
C654 H642 0.930 . S
C654 C655 1.399 . S
C654 C659 1.399 . S
C655 C654 1.399 . S
C655 C656 1.376 . S
C656 H643 0.930 . S
C656 C655 1.376 . S
C656 C657 1.388 . S
C657 H644 0.930 . S
C657 C656 1.388 . S
C657 C658 1.390 . S
C658 C657 1.390 . S
C658 C659 1.394 . S
C658 C664 1.465 . S
C659 C654 1.399 . S
C659 C658 1.394 . S
C659 C660 1.516 . S
C660 C659 1.516 . S
C660 C661 1.502 . S
C660 C662 1.561 . S
C660 C663 1.526 . S
C661 H645 0.959 . S
C661 H646 0.959 . S
C661 H647 0.961 . S
C661 C660 1.502 . S
C662 H648 0.960 . S
C662 H649 0.961 . S
C662 H650 0.959 . S
C662 C660 1.561 . S
C663 C660 1.526 . S
C663 C664 1.396 . S
C663 C668 1.390 . S
C664 C658 1.465 . S
C664 C663 1.396 . S
C664 C665 1.399 . S
C665 H651 0.929 . S
C665 C664 1.399 . S
C665 C666 1.385 . S
C666 H652 0.931 . S
C666 C665 1.385 . S
C666 C667 1.389 . S
C667 C666 1.389 . S
C667 C668 1.387 . S
C668 H653 0.930 . S
C668 C663 1.390 . S
C668 C667 1.387 . S
H669 C681 0.930 . S
H670 C683 0.930 . S
H671 C684 0.930 . S
H672 C688 0.959 . S
H673 C688 0.959 . S
H674 C688 0.961 . S
H675 C689 0.960 . S
H676 C689 0.961 . S
H677 C689 0.959 . S
H678 C692 0.929 . S
H679 C693 0.931 1_556 S
H680 C695 0.930 . S
C681 H669 0.930 . S
C681 C682 1.399 . S
C681 C686 1.399 . S
C682 C681 1.399 . S
C682 C683 1.376 . S
C683 H670 0.930 . S
C683 C682 1.376 . S
C683 C684 1.388 . S
C684 H671 0.930 . S
C684 C683 1.388 . S
C684 C685 1.390 . S
C685 C684 1.390 . S
C685 C686 1.394 . S
C685 C691 1.465 . S
C686 C681 1.399 . S
C686 C685 1.394 . S
C686 C687 1.516 . S
C687 C686 1.516 . S
C687 C688 1.502 . S
C687 C689 1.561 . S
C687 C690 1.526 . S
C688 H672 0.959 . S
C688 H673 0.959 . S
C688 H674 0.961 . S
C688 C687 1.502 . S
C689 H675 0.960 . S
C689 H676 0.961 . S
C689 H677 0.959 . S
C689 C687 1.561 . S
C690 C687 1.526 . S
C690 C691 1.396 . S
C690 C695 1.390 . S
C691 C685 1.465 . S
C691 C690 1.396 . S
C691 C692 1.399 . S
C692 H678 0.929 . S
C692 C691 1.399 . S
C692 C693 1.385 . S
C693 H679 0.931 1_554 S
C693 C692 1.385 . S
C693 C694 1.389 . S
C694 C693 1.389 . S
C694 C695 1.387 . S
C695 H680 0.930 . S
C695 C690 1.390 . S
C695 C694 1.387 . S
H696 C708 0.930 1_554 S
H697 C710 0.930 . S
H698 C711 0.930 . S
H699 C715 0.959 1_556 S
H700 C715 0.959 . S
H701 C715 0.961 . S
H702 C716 0.960 . S
H703 C716 0.955 1_455 S
H704 C716 0.959 . S
H705 C719 0.929 . S
H706 C720 0.931 . S
H707 C722 0.930 . S
C708 H696 0.930 1_556 S
C708 C709 1.393 1_455 S
C708 C713 1.399 . S
C709 C708 1.393 1_655 S
C709 C710 1.384 . S
C710 H697 0.930 . S
C710 C709 1.384 . S
C710 C711 1.388 . S
C711 H698 0.930 . S
C711 C710 1.388 . S
C711 C712 1.390 . S
C712 C711 1.390 . S
C712 C713 1.394 1_655 S
C712 C718 1.465 . S
C713 C708 1.399 . S
C713 C712 1.394 1_455 S
C713 C714 1.516 . S
C714 C713 1.516 . S
C714 C715 1.502 1_556 S
C714 C716 1.561 1_456 S
C714 C717 1.526 . S
C715 H699 0.959 1_554 S
C715 H700 0.959 . S
C715 H701 0.961 . S
C715 C714 1.502 1_554 S
C716 H702 0.960 . S
C716 H703 0.955 1_655 S
C716 H704 0.959 . S
C716 C714 1.561 1_654 S
C717 C714 1.526 . S
C717 C718 1.396 1_455 S
C717 C722 1.390 . S
C718 C712 1.465 . S
C718 C717 1.396 1_655 S
C718 C719 1.399 . S
C719 H705 0.929 . S
C719 C718 1.399 . S
C719 C720 1.385 . S
C720 H706 0.931 . S
C720 C719 1.385 . S
C720 C721 1.389 1_655 S
C721 C720 1.389 1_455 S
C721 C722 1.387 . S
C722 H707 0.930 . S
C722 C717 1.390 . S
C722 C721 1.387 . S
H723 C735 0.930 . S
H724 C737 0.930 . S
H725 C738 0.930 . S
H726 C742 0.959 . S
H727 C742 0.959 . S
H728 C742 0.961 . S
H729 C743 0.960 . S
H730 C743 0.961 . S
H731 C743 0.959 . S
H732 C746 0.929 . S
H733 C747 0.931 . S
H734 C749 0.930 . S
C735 H723 0.930 . S
C735 C736 1.392 1_545 S
C735 C740 1.399 . S
C736 C735 1.392 1_565 S
C736 C737 1.384 . S
C737 H724 0.930 . S
C737 C736 1.384 . S
C737 C738 1.388 . S
C738 H725 0.930 . S
C738 C737 1.388 . S
C738 C739 1.390 . S
C739 C738 1.390 . S
C739 C740 1.394 1_565 S
C739 C745 1.465 . S
C740 C735 1.399 . S
C740 C739 1.394 1_545 S
C740 C741 1.516 . S
C741 C740 1.516 . S
C741 C742 1.502 . S
C741 C743 1.561 . S
C741 C744 1.526 . S
C742 H726 0.959 . S
C742 H727 0.959 . S
C742 H728 0.961 . S
C742 C741 1.502 . S
C743 H729 0.960 . S
C743 H730 0.961 . S
C743 H731 0.959 . S
C743 C741 1.561 . S
C744 C741 1.526 . S
C744 C745 1.396 1_545 S
C744 C749 1.390 . S
C745 C739 1.465 . S
C745 C744 1.396 1_565 S
C745 C746 1.399 . S
C746 H732 0.929 . S
C746 C745 1.399 . S
C746 C747 1.385 . S
C747 H733 0.931 . S
C747 C746 1.385 . S
C747 C748 1.389 1_565 S
C748 C747 1.389 1_545 S
C748 C749 1.387 . S
C749 H734 0.930 . S
C749 C744 1.390 . S
C749 C748 1.387 . S
H750 C762 0.930 1_554 S
H751 C764 0.930 . S
H752 C765 0.930 . S
H753 C769 0.959 1_556 S
H754 C769 0.959 . S
H755 C769 0.961 . S
H756 C770 0.960 . S
H757 C770 0.961 . S
H758 C770 0.959 . S
H759 C773 0.929 . S
H760 C774 0.931 . S
H761 C776 0.930 . S
C762 H750 0.930 1_556 S
C762 C763 1.399 . S
C762 C767 1.399 . S
C763 C762 1.399 . S
C763 C764 1.376 . S
C764 H751 0.930 . S
C764 C763 1.376 . S
C764 C765 1.388 . S
C765 H752 0.930 . S
C765 C764 1.388 . S
C765 C766 1.390 . S
C766 C765 1.390 . S
C766 C767 1.394 . S
C766 C772 1.465 . S
C767 C762 1.399 . S
C767 C766 1.394 . S
C767 C768 1.516 . S
C768 C767 1.516 . S
C768 C769 1.502 1_556 S
C768 C770 1.561 1_556 S
C768 C771 1.526 . S
C769 H753 0.959 1_554 S
C769 H754 0.959 . S
C769 H755 0.961 . S
C769 C768 1.502 1_554 S
C770 H756 0.960 . S
C770 H757 0.961 . S
C770 H758 0.959 . S
C770 C768 1.561 1_554 S
C771 C768 1.526 . S
C771 C772 1.396 . S
C771 C776 1.390 . S
C772 C766 1.465 . S
C772 C771 1.396 . S
C772 C773 1.399 . S
C773 H759 0.929 . S
C773 C772 1.399 . S
C773 C774 1.385 . S
C774 H760 0.931 . S
C774 C773 1.385 . S
C774 C775 1.389 . S
C775 C774 1.389 . S
C775 C776 1.387 . S
C776 H761 0.930 . S
C776 C771 1.390 . S
C776 C775 1.387 . S
H777 C789 0.930 . S
H778 C791 0.930 . S
H779 C792 0.930 . S
H780 C796 0.959 . S
H781 C796 0.959 . S
H782 C796 0.961 . S
H783 C797 0.960 . S
H784 C797 0.961 . S
H785 C797 0.959 . S
H786 C800 0.929 . S
H787 C801 0.931 . S
H788 C803 0.930 . S
C789 H777 0.930 . S
C789 C790 1.399 . S
C789 C794 1.399 . S
C790 C789 1.399 . S
C790 C791 1.376 . S
C791 H778 0.930 . S
C791 C790 1.376 . S
C791 C792 1.388 . S
C792 H779 0.930 . S
C792 C791 1.388 . S
C792 C793 1.390 . S
C793 C792 1.390 . S
C793 C794 1.394 . S
C793 C799 1.465 . S
C794 C789 1.399 . S
C794 C793 1.394 . S
C794 C795 1.516 . S
C795 C794 1.516 . S
C795 C796 1.502 1_556 S
C795 C797 1.561 . S
C795 C798 1.526 . S
C796 H780 0.959 . S
C796 H781 0.959 . S
C796 H782 0.961 . S
C796 C795 1.502 1_554 S
C797 H783 0.960 . S
C797 H784 0.961 . S
C797 H785 0.959 . S
C797 C795 1.561 . S
C798 C795 1.526 . S
C798 C799 1.396 . S
C798 C803 1.390 . S
C799 C793 1.465 . S
C799 C798 1.396 . S
C799 C800 1.399 . S
C800 H786 0.929 . S
C800 C799 1.399 . S
C800 C801 1.385 . S
C801 H787 0.931 . S
C801 C800 1.385 . S
C801 C802 1.389 . S
C802 C801 1.389 . S
C802 C803 1.387 . S
C803 H788 0.930 . S
C803 C798 1.390 . S
C803 C802 1.387 . S
H804 C816 0.930 . S
H805 C818 0.930 . S
H806 C819 0.930 . S
H807 C823 0.959 . S
H808 C823 0.959 . S
H809 C823 0.961 . S
H810 C824 0.960 . S
H811 C824 0.961 . S
H812 C824 0.959 . S
H813 C827 0.929 . S
H814 C828 0.931 . S
H815 C830 0.930 . S
C816 H804 0.930 . S
C816 C817 1.417 . S
C816 C821 1.399 . S
C817 C816 1.417 . S
C817 C818 1.357 1_655 S
C818 H805 0.930 . S
C818 C817 1.357 1_455 S
C818 C819 1.388 . S
C819 H806 0.930 . S
C819 C818 1.388 . S
C819 C820 1.390 . S
C820 C819 1.390 . S
C820 C821 1.394 1_455 S
C820 C826 1.465 . S
C821 C816 1.399 . S
C821 C820 1.394 1_655 S
C821 C822 1.516 . S
C822 C821 1.516 . S
C822 C823 1.502 . S
C822 C824 1.561 . S
C822 C825 1.526 . S
C823 H807 0.959 . S
C823 H808 0.959 . S
C823 H809 0.961 . S
C823 C822 1.502 . S
C824 H810 0.960 . S
C824 H811 0.961 . S
C824 H812 0.959 . S
C824 C822 1.561 . S
C825 C822 1.526 . S
C825 C826 1.396 1_655 S
C825 C830 1.390 . S
C826 C820 1.465 . S
C826 C825 1.396 1_455 S
C826 C827 1.399 . S
C827 H813 0.929 . S
C827 C826 1.399 . S
C827 C828 1.385 . S
C828 H814 0.931 . S
C828 C827 1.385 . S
C828 C829 1.389 1_455 S
C829 C828 1.389 1_655 S
C829 C830 1.387 . S
C830 H815 0.930 . S
C830 C825 1.390 . S
C830 C829 1.387 . S
H831 C843 0.930 . S
H832 C845 0.930 . S
H833 C846 0.930 . S
H834 C850 0.959 . S
H835 C850 0.959 . S
H836 C850 0.961 . S
H837 C851 0.960 . S
H838 C851 0.961 . S
H839 C851 0.959 . S
H840 C854 0.929 . S
H841 C855 0.931 . S
H842 C857 0.930 . S
C843 H831 0.930 . S
C843 C844 1.403 . S
C843 C848 1.399 . S
C844 C843 1.403 . S
C844 C845 1.372 1_565 S
C845 H832 0.930 . S
C845 C844 1.372 1_545 S
C845 C846 1.388 . S
C846 H833 0.930 . S
C846 C845 1.388 . S
C846 C847 1.390 . S
C847 C846 1.390 . S
C847 C848 1.394 1_545 S
C847 C853 1.465 . S
C848 C843 1.399 . S
C848 C847 1.394 1_565 S
C848 C849 1.516 . S
C849 C848 1.516 . S
C849 C850 1.502 . S
C849 C851 1.561 . S
C849 C852 1.526 . S
C850 H834 0.959 . S
C850 H835 0.959 . S
C850 H836 0.961 . S
C850 C849 1.502 . S
C851 H837 0.960 . S
C851 H838 0.961 . S
C851 H839 0.959 . S
C851 C849 1.561 . S
C852 C849 1.526 . S
C852 C853 1.396 1_565 S
C852 C857 1.390 . S
C853 C847 1.465 . S
C853 C852 1.396 1_545 S
C853 C854 1.399 . S
C854 H840 0.929 . S
C854 C853 1.399 . S
C854 C855 1.385 . S
C855 H841 0.931 . S
C855 C854 1.385 . S
C855 C856 1.389 1_545 S
C856 C855 1.389 1_565 S
C856 C857 1.387 . S
C857 H842 0.930 . S
C857 C852 1.390 . S
C857 C856 1.387 . S
H858 C870 0.930 . S
H859 C872 0.930 . S
H860 C873 0.930 . S
H861 C877 0.959 . S
H862 C877 0.959 . S
H863 C877 0.961 . S
H864 C878 0.960 . S
H865 C878 0.961 . S
H866 C878 0.959 . S
H867 C881 0.929 . S
H868 C882 0.931 . S
H869 C884 0.930 . S
C870 H858 0.930 . S
C870 C871 1.399 . S
C870 C875 1.399 . S
C871 C870 1.399 . S
C871 C872 1.376 . S
C872 H859 0.930 . S
C872 C871 1.376 . S
C872 C873 1.388 . S
C873 H860 0.930 . S
C873 C872 1.388 . S
C873 C874 1.390 . S
C874 C873 1.390 . S
C874 C875 1.394 . S
C874 C880 1.465 . S
C875 C870 1.399 . S
C875 C874 1.394 . S
C875 C876 1.516 . S
C876 C875 1.516 . S
C876 C877 1.502 . S
C876 C878 1.561 . S
C876 C879 1.526 . S
C877 H861 0.959 . S
C877 H862 0.959 . S
C877 H863 0.961 . S
C877 C876 1.502 . S
C878 H864 0.960 . S
C878 H865 0.961 . S
C878 H866 0.959 . S
C878 C876 1.561 . S
C879 C876 1.526 . S
C879 C880 1.396 . S
C879 C884 1.390 . S
C880 C874 1.465 . S
C880 C879 1.396 . S
C880 C881 1.399 . S
C881 H867 0.929 . S
C881 C880 1.399 . S
C881 C882 1.385 . S
C882 H868 0.931 . S
C882 C881 1.385 . S
C882 C883 1.389 . S
C883 C882 1.389 . S
C883 C884 1.387 . S
C884 H869 0.930 . S
C884 C879 1.390 . S
C884 C883 1.387 . S
H885 C897 0.930 . S
H886 C899 0.930 . S
H887 C900 0.930 . S
H888 C904 0.959 . S
H889 C904 0.959 . S
H890 C904 0.961 . S
H891 C905 0.960 . S
H892 C905 0.961 . S
H893 C905 0.959 . S
H894 C908 0.929 . S
H895 C909 0.931 . S
H896 C911 0.930 . S
C897 H885 0.930 . S
C897 C898 1.399 . S
C897 C902 1.399 . S
C898 C897 1.399 . S
C898 C899 1.376 . S
C899 H886 0.930 . S
C899 C898 1.376 . S
C899 C900 1.388 . S
C900 H887 0.930 . S
C900 C899 1.388 . S
C900 C901 1.390 . S
C901 C900 1.390 . S
C901 C902 1.394 . S
C901 C907 1.465 . S
C902 C897 1.399 . S
C902 C901 1.394 . S
C902 C903 1.516 . S
C903 C902 1.516 . S
C903 C904 1.502 . S
C903 C905 1.561 . S
C903 C906 1.526 . S
C904 H888 0.959 . S
C904 H889 0.959 . S
C904 H890 0.961 . S
C904 C903 1.502 . S
C905 H891 0.960 . S
C905 H892 0.961 . S
C905 H893 0.959 . S
C905 C903 1.561 . S
C906 C903 1.526 . S
C906 C907 1.396 . S
C906 C911 1.390 . S
C907 C901 1.465 . S
C907 C906 1.396 . S
C907 C908 1.399 . S
C908 H894 0.929 . S
C908 C907 1.399 . S
C908 C909 1.385 . S
C909 H895 0.931 . S
C909 C908 1.385 . S
C909 C910 1.389 . S
C910 C909 1.389 . S
C910 C911 1.387 . S
C911 H896 0.930 . S
C911 C906 1.390 . S
C911 C910 1.387 . S
C277 C82 1.619 . S
C289 C106 1.965 1_545 S
C316 C146 1.970 . S
C304 C95 1.735 . S
C343 C186 1.982 . S
C331 C56 1.730 . S
C370 C226 1.963 . S
C358 C69 1.655 1_655 S
C397 C119 1.954 . S
C385 C30 1.626 . S
C412 C43 1.636 . S
C424 C159 1.970 . S
C439 C4 1.756 . S
C451 C199 1.983 . S
C466 C17 1.734 . S
C478 C239 1.968 1_655 S
C505 C130 0.450 . S
C493 C74 0.590 . S
C532 C170 0.550 . S
C520 C87 0.556 1_565 S
C559 C210 0.529 . S
C547 C100 0.446 . S
C574 C61 0.498 . S
C586 C250 0.415 . S
C601 C22 0.551 1_655 S
C613 C113 0.415 . S
C640 C153 0.442 . S
C628 C35 0.607 1_565 S
C667 C193 0.462 . S
C655 C48 0.494 . S
C682 C9 0.579 . S
C694 C233 0.511 . S
C709 C73 2.074 1_655 S
C721 C107 2.273 . S
C736 C86 1.984 1_565 S
C748 C147 2.256 . S
C775 C187 2.238 . S
C763 C99 2.038 . S
C802 C227 2.273 . S
C790 C60 2.070 . S
C817 C21 2.087 1_655 S
C829 C126 2.284 . S
C856 C166 2.250 . S
C844 C34 2.058 1_565 S
C883 C206 2.248 . S
C871 C47 2.033 . S
C898 C8 1.984 . S
C910 C246 2.291 . S
