# Generated by pormake.
# Topology rtl, (3,6)-cn, num edge types: 1
# Building blocks:
#     Node 0, Type 0, BuildingBlock: VETTIZ_charged_linker_0, # of connection points: 3
#     Node 1, Type 0, BuildingBlock: VETTIZ_charged_linker_0, # of connection points: 3
#     Node 2, Type 0, BuildingBlock: VETTIZ_charged_linker_0, # of connection points: 3
#     Node 3, Type 0, BuildingBlock: VETTIZ_charged_linker_0, # of connection points: 3
#     Node 4, Type 1, BuildingBlock: CIFDUS_clean_sbu_1, # of connection points: 6
#     Node 5, Type 1, BuildingBlock: CIFDUS_clean_sbu_1, # of connection points: 6
#     Edge 6, Type (0, 1), BuildingBlock: XIVTED_clean_linker_0, # of connection points: 2
#     Edge 7, Type (0, 1), BuildingBlock: XIVTED_clean_linker_0, # of connection points: 2
#     Edge 8, Type (0, 1), BuildingBlock: XIVTED_clean_linker_0, # of connection points: 2
#     Edge 9, Type (0, 1), BuildingBlock: XIVTED_clean_linker_0, # of connection points: 2
#     Edge 10, Type (0, 1), BuildingBlock: XIVTED_clean_linker_0, # of connection points: 2
#     Edge 11, Type (0, 1), BuildingBlock: XIVTED_clean_linker_0, # of connection points: 2
#     Edge 12, Type (0, 1), BuildingBlock: XIVTED_clean_linker_0, # of connection points: 2
#     Edge 13, Type (0, 1), BuildingBlock: XIVTED_clean_linker_0, # of connection points: 2
#     Edge 14, Type (0, 1), BuildingBlock: XIVTED_clean_linker_0, # of connection points: 2
#     Edge 15, Type (0, 1), BuildingBlock: XIVTED_clean_linker_0, # of connection points: 2
#     Edge 16, Type (0, 1), BuildingBlock: XIVTED_clean_linker_0, # of connection points: 2
#     Edge 17, Type (0, 1), BuildingBlock: XIVTED_clean_linker_0, # of connection points: 2
# Relax obj value: 0.030
# Max RMSD: 0.064
# Mean RMSD: 0.050
data_MOF--net-rtl--node1-CIFDUS_clean_sbu_1--node2-VETTIZ_charged_linker_0--edge1-XIVTED_clean_linker_0
_symmetry_space_group_name_H-M    P1
_symmetry_Int_Tables_number       1
_symmetry_cell_setting            triclinic
loop_
_symmetry_equiv_pos_as_xyz
'x, y, z'
_cell_length_a     37.05218
_cell_length_b     41.9456
_cell_length_c     29.588279
_cell_angle_alpha  89.923981
_cell_angle_beta   97.974479
_cell_angle_gamma 90.009675
loop_
_atom_site_label
_atom_site_type_symbol
_atom_site_fract_x
_atom_site_fract_y
_atom_site_fract_z
_atom_type_partial_charge
C0 C 0.1867 0.8997 0.9459 0.0
C1 C 0.16702 0.9285 0.93975 0.0
C2 C 0.16109 0.94612 0.97865 0.0
C3 C 0.19562 0.90763 0.02821 0.0
C4 C 0.20092 0.88987 0.99032 0.0
C5 C 0.2236 0.86054 1.0033 0.0
H6 H 0.32426 0.77233 0.16795 0.0
C7 C 0.2153 0.89192 0.06918 0.0
C8 C 0.23204 0.86438 0.05486 0.0
H9 H 0.298 0.75047 0.02448 0.0
H10 H 0.26333 0.79926 0.01233 0.0
H11 H 0.33984 0.84576 0.15753 0.0
H12 H 0.24202 0.79613 0.17937 0.0
H13 H 0.2479 0.82867 0.21708 0.0
H14 H 0.28204 0.79797 0.22115 0.0
H15 H 0.33345 0.83079 0.21269 0.0
H16 H 0.3177 0.86995 0.19353 0.0
C17 C 0.25847 0.86249 0.98007 0.0
C18 C 0.19969 0.83081 0.98984 0.0
C19 C 0.20842 0.9379 0.22702 0.0
C20 C 0.22508 0.92935 0.27117 0.0
C21 C 0.2519 0.90517 0.27534 0.0
C22 C 0.26008 0.88847 0.23705 0.0
C23 C 0.24158 0.89603 0.1937 0.0
C24 C 0.2173 0.92118 0.18898 0.0
C25 C 0.20222 0.92722 0.13977 0.0
C26 C 0.21994 0.9004 0.11615 0.0
C27 C 0.24255 0.88195 0.14805 0.0
C28 C 0.21544 0.96055 0.12621 0.0
C29 C 0.16026 0.9235 0.13437 0.0
C30 C 0.31117 0.77817 0.13391 0.0
C31 C 0.31384 0.75751 0.09716 0.0
C32 C 0.29601 0.76581 0.05346 0.0
C33 C 0.27601 0.79422 0.04642 0.0
C34 C 0.27343 0.81458 0.08352 0.0
C35 C 0.29061 0.80626 0.12644 0.0
C36 C 0.28353 0.83 0.16223 0.0
C37 C 0.25938 0.85396 0.13376 0.0
C38 C 0.2538 0.84499 0.08755 0.0
C39 C 0.32042 0.84487 0.18302 0.0
C40 C 0.26299 0.81249 0.19714 0.0
H41 H 0.16972 0.95047 0.0506 0.0
H42 H 0.19182 0.88563 0.91679 0.0
H43 H 0.17046 0.83574 0.99193 0.0
H44 H 0.2066 0.81045 0.01319 0.0
H45 H 0.20177 0.82324 0.95433 0.0
H46 H 0.26999 0.88702 0.98289 0.0
H47 H 0.25245 0.85652 0.94322 0.0
H48 H 0.28048 0.84675 0.99601 0.0
H49 H 0.18787 0.95638 0.22203 0.0
H50 H 0.26632 0.89871 0.30843 0.0
H51 H 0.28015 0.86995 0.24281 0.0
H52 H 0.24122 0.9676 0.14778 0.0
H53 H 0.19488 0.97925 0.13011 0.0
H54 H 0.2221 0.96117 0.09091 0.0
H55 H 0.15262 0.90239 0.15381 0.0
H56 H 0.1479 0.91939 0.09874 0.0
H57 H 0.14733 0.94481 0.14754 0.0
H58 H 0.14544 0.96801 0.97507 0.0
C59 C 0.17519 0.93588 0.02262 0.0
C60 C 0.71744 0.63853 0.7402 0.0
C61 C 0.69552 0.61113 0.74117 0.0
C62 C 0.67915 0.59814 0.69925 0.0
C63 C 0.70477 0.6404 0.65743 0.0
C64 C 0.72129 0.65286 0.69831 0.0
C65 C 0.74137 0.68334 0.69181 0.0
H66 H 0.79157 0.79755 0.55114 0.0
C67 C 0.71271 0.66193 0.62032 0.0
C68 C 0.73391 0.68727 0.64032 0.0
H69 H 0.81815 0.79067 0.69782 0.0
H70 H 0.78363 0.742 0.69766 0.0
H71 H 0.80435 0.72321 0.5318 0.0
H72 H 0.70583 0.77493 0.54586 0.0
H73 H 0.69691 0.74882 0.49913 0.0
H74 H 0.72994 0.78025 0.49776 0.0
H75 H 0.7843 0.75102 0.4894 0.0
H76 H 0.7697 0.71003 0.48929 0.0
C77 C 0.78238 0.67771 0.70865 0.0
C78 C 0.72376 0.71038 0.71702 0.0
C79 C 0.66591 0.63412 0.45562 0.0
C80 C 0.66869 0.64889 0.41351 0.0
C81 C 0.68648 0.67864 0.41353 0.0
C82 C 0.70203 0.69293 0.45468 0.0
C83 C 0.6997 0.67741 0.49641 0.0
C84 C 0.6815 0.64863 0.49627 0.0
C85 C 0.68101 0.63563 0.54356 0.0
C86 C 0.70267 0.6609 0.57221 0.0
C87 C 0.71361 0.6854 0.54456 0.0
C88 C 0.70085 0.60303 0.54692 0.0
C89 C 0.64084 0.63423 0.55278 0.0
C90 C 0.78946 0.78578 0.58327 0.0
C91 C 0.80757 0.79809 0.62462 0.0
C92 C 0.80474 0.78162 0.66552 0.0
C93 C 0.78457 0.75335 0.66535 0.0
C94 C 0.76701 0.74114 0.62379 0.0
C95 C 0.76957 0.75729 0.58362 0.0
C96 C 0.74991 0.74014 0.54264 0.0
C97 C 0.73493 0.71122 0.56492 0.0
C98 C 0.74504 0.71204 0.6125 0.0
C99 C 0.77827 0.73067 0.51124 0.0
C100 C 0.7191 0.76209 0.51969 0.0
H101 H 0.67017 0.60163 0.62708 0.0
H102 H 0.7309 0.64909 0.77142 0.0
H103 H 0.69386 0.70665 0.71527 0.0
H104 H 0.72642 0.73409 0.70158 0.0
H105 H 0.73548 0.71127 0.75364 0.0
H106 H 0.79049 0.65296 0.70104 0.0
H107 H 0.78866 0.68124 0.74611 0.0
H108 H 0.80039 0.69312 0.69133 0.0
H109 H 0.65178 0.6116 0.45701 0.0
H110 H 0.68914 0.69052 0.38163 0.0
H111 H 0.71554 0.71539 0.45241 0.0
H112 H 0.7253 0.60386 0.52894 0.0
H113 H 0.68272 0.58384 0.53101 0.0
H114 H 0.71126 0.59608 0.58231 0.0
H115 H 0.62422 0.65336 0.53389 0.0
H116 H 0.63799 0.63842 0.58899 0.0
H117 H 0.62806 0.61103 0.54184 0.0
H118 H 0.66159 0.57747 0.69854 0.0
C119 C 0.68377 0.6125 0.65757 0.0
C120 C 0.82903 0.14949 0.14707 0.0
C121 C 0.84549 0.11929 0.15446 0.0
C122 C 0.84943 0.10003 0.11642 0.0
C123 C 0.82045 0.14033 0.06505 0.0
C124 C 0.8165 0.15939 0.10214 0.0
C125 C 0.79712 0.19017 0.08773 0.0
H126 H 0.70941 0.2823 0.91746 0.0
C127 C 0.80464 0.15727 0.02309 0.0
C128 C 0.79079 0.18655 0.036 0.0
H129 H 0.72521 0.30133 0.06236 0.0
H130 H 0.7605 0.25304 0.07621 0.0
H131 H 0.78994 0.2623 0.91303 0.0
H132 H 0.6951 0.20508 0.92337 0.0
H133 H 0.71836 0.18951 0.88006 0.0
H134 H 0.70099 0.22952 0.87501 0.0
H135 H 0.75892 0.25155 0.86341 0.0
H136 H 0.79687 0.22629 0.88538 0.0
C137 C 0.82319 0.21817 0.10297 0.0
C138 C 0.76088 0.19084 0.10823 0.0
C139 C 0.8119 0.10687 0.86837 0.0
C140 C 0.80411 0.11823 0.82315 0.0
C141 C 0.78718 0.14841 0.81602 0.0
C142 C 0.77883 0.16683 0.85273 0.0
C143 C 0.78796 0.15549 0.89752 0.0
C144 C 0.80437 0.12603 0.90471 0.0
C145 C 0.8148 0.11886 0.95466 0.0
C146 C 0.80202 0.14894 0.97621 0.0
C147 C 0.78575 0.17006 0.94261 0.0
C148 C 0.85684 0.11498 0.96408 0.0
C149 C 0.79303 0.08916 0.96641 0.0
C150 C 0.72038 0.27595 0.95215 0.0
C151 C 0.71429 0.29557 0.98885 0.0
C152 C 0.72969 0.28678 0.03344 0.0
C153 C 0.74992 0.25855 0.04148 0.0
C154 C 0.75505 0.23881 0.00456 0.0
C155 C 0.74091 0.24794 0.96071 0.0
C156 C 0.75037 0.2247 0.92547 0.0
C157 C 0.77102 0.19943 0.9555 0.0
C158 C 0.77365 0.20773 1.00189 0.0
C159 C 0.7751 0.24194 0.8949 0.0
C160 C 0.71445 0.21148 0.89923 0.0
H161 H 0.84092 0.0944 0.04477 0.0
H162 H 0.8253 0.16473 0.17558 0.0
H163 H 0.74837 0.16669 0.10731 0.0
H164 H 0.73998 0.20617 0.08892 0.0
H165 H 0.76542 0.19876 0.14438 0.0
H166 H 0.85173 0.21197 0.09877 0.0
H167 H 0.82272 0.22405 0.13948 0.0
H168 H 0.81695 0.23988 0.08221 0.0
H169 H 0.82438 0.08381 0.87585 0.0
H170 H 0.78143 0.15856 0.78216 0.0
H171 H 0.76627 0.18957 0.84485 0.0
H172 H 0.87054 0.1302 0.94073 0.0
H173 H 0.86507 0.08992 0.95902 0.0
H174 H 0.86858 0.12283 0.99864 0.0
H175 H 0.76499 0.08945 0.94722 0.0
H176 H 0.78908 0.08815 1.0027 0.0
H177 H 0.80643 0.06682 0.95737 0.0
H178 H 0.86242 0.07689 0.12102 0.0
C179 C 0.83706 0.11032 0.072 0.0
C180 C 0.30354 0.40407 0.34814 0.0
C181 C 0.31828 0.43516 0.34881 0.0
C182 C 0.32536 0.45099 0.3913 0.0
C183 C 0.30685 0.4043 0.43071 0.0
C184 C 0.29761 0.38943 0.38913 0.0
C185 C 0.28078 0.35714 0.39412 0.0
H186 H 0.22702 0.24213 0.5313 0.0
C187 C 0.29923 0.38195 0.46695 0.0
C188 C 0.28343 0.35444 0.44573 0.0
H189 H 0.20832 0.24709 0.38394 0.0
H190 H 0.24242 0.29622 0.38588 0.0
H191 H 0.3124 0.26637 0.54175 0.0
H192 H 0.21136 0.31589 0.54937 0.0
H193 H 0.24386 0.32782 0.59546 0.0
H194 H 0.22983 0.28678 0.59084 0.0
H195 H 0.28847 0.26255 0.59023 0.0
H196 H 0.32033 0.29461 0.58578 0.0
C197 C 0.30457 0.33177 0.37435 0.0
C198 C 0.24065 0.35826 0.3706 0.0
C199 C 0.33899 0.41067 0.63308 0.0
C200 C 0.3382 0.39442 0.67455 0.0
C201 C 0.32358 0.36333 0.67342 0.0
C202 C 0.30941 0.34898 0.63173 0.0
C203 C 0.31009 0.36578 0.59061 0.0
C204 C 0.32507 0.39599 0.59187 0.0
C205 C 0.32456 0.41014 0.54508 0.0
C206 C 0.3068 0.38347 0.51532 0.0
C207 C 0.29807 0.35759 0.54206 0.0
C208 C 0.36454 0.41586 0.5373 0.0
C209 C 0.30062 0.44062 0.54177 0.0
C210 C 0.23076 0.25357 0.49945 0.0
C211 C 0.21484 0.24072 0.45737 0.0
C212 C 0.21993 0.25665 0.41676 0.0
C213 C 0.23967 0.28523 0.41797 0.0
C214 C 0.25431 0.29833 0.46026 0.0
C215 C 0.25008 0.2824 0.50011 0.0
C216 C 0.26695 0.30035 0.54191 0.0
C217 C 0.28074 0.33018 0.52057 0.0
C218 C 0.27349 0.32867 0.4727 0.0
C219 C 0.29857 0.28001 0.56665 0.0
C220 C 0.23664 0.30808 0.57133 0.0
H221 H 0.3266 0.44895 0.46306 0.0
H222 H 0.29747 0.39084 0.31666 0.0
H223 H 0.22973 0.38301 0.36868 0.0
H224 H 0.22196 0.3449 0.38982 0.0
H225 H 0.23807 0.34893 0.33518 0.0
H226 H 0.334 0.33651 0.38555 0.0
H227 H 0.29995 0.33209 0.33644 0.0
H228 H 0.29963 0.30738 0.38609 0.0
H229 H 0.35059 0.43436 0.63259 0.0
H230 H 0.3225 0.35033 0.70486 0.0
H231 H 0.29829 0.32543 0.63313 0.0
H232 H 0.38196 0.39523 0.55 0.0
H233 H 0.3759 0.43744 0.55584 0.0
H234 H 0.36785 0.41836 0.50103 0.0
H235 H 0.27926 0.43911 0.56467 0.0
H236 H 0.28528 0.44418 0.50731 0.0
H237 H 0.31727 0.46218 0.55165 0.0
H238 H 0.33522 0.47529 0.39342 0.0
C239 C 0.32003 0.43571 0.43202 0.0
O240 O 0.98054 0.0353 0.48073 0.0
Mn241 Mn 0.00964 0.02229 0.54403 0.0
O242 O 0.97186 0.99014 0.43953 0.0
Mn243 Mn 0.9996 0.9634 0.48085 0.0
O244 O 0.03856 0.00968 0.60766 0.0
O245 O 0.02666 0.06753 0.55282 0.0
Mn246 Mn 0.01802 0.08192 0.606 0.0
O247 O 0.96285 0.03089 0.57533 0.0
O248 O 0.04477 0.05524 0.64852 0.0
O249 O 0.0566 0.01343 0.51292 0.0
O250 O 0.04928 0.96486 0.48076 0.0
O251 O 0.04049 0.11482 0.57908 0.0
O252 O 0.96807 0.08043 0.60427 0.0
C253 C 0.97748 0.94984 0.54107 0.0
C254 C 0.96728 0.02007 0.44442 0.0
C255 C 0.05034 0.02535 0.64422 0.0
C256 C 0.04176 0.09455 0.54644 0.0
C257 C 0.94975 0.05517 0.59405 0.0
C258 C 0.0686 0.98932 0.49258 0.0
O259 O 0.99244 0.97703 0.53507 0.0
O260 O 0.97791 0.93009 0.50763 0.0
O261 O 0.53671 0.53793 0.10376 0.0
Mn262 Mn 0.50668 0.52051 0.04344 0.0
O263 O 0.54782 0.49529 0.15011 0.0
Mn264 Mn 0.52145 0.46538 0.11262 0.0
O265 O 0.47646 0.50262 0.98341 0.0
O266 O 0.48612 0.56457 0.03011 0.0
Mn267 Mn 0.48982 0.5746 0.97313 0.0
O268 O 0.55154 0.52955 0.00842 0.0
O269 O 0.4621 0.54479 0.93732 0.0
O270 O 0.46195 0.5118 0.07871 0.0
O271 O 0.47189 0.46463 0.11421 0.0
O272 O 0.46795 0.60906 0.99634 0.0
O273 O 0.53892 0.57502 0.96895 0.0
C274 C 0.54345 0.44954 0.05355 0.0
C275 C 0.55098 0.52499 0.14159 0.0
C276 C 0.46035 0.51508 0.94618 0.0
C277 C 0.47051 0.59193 0.03304 0.0
C278 C 0.56059 0.5526 0.9835 0.0
C279 C 0.45146 0.48826 0.10161 0.0
O280 O 0.52716 0.47651 0.05672 0.0
O281 O 0.54471 0.43162 0.08935 0.0
H282 H 0.14832 0.23165 0.40602 0.0
H283 H 0.10876 0.07174 0.53724 0.0
H284 H 0.22662 0.18482 0.50587 0.0
H285 H 0.02577 0.13696 0.47776 0.0
H286 H 0.15426 0.10222 0.50221 0.0
H287 H 0.10615 0.18723 0.41056 0.0
C288 C 0.15695 0.21172 0.42824 0.0
C289 C 0.19092 0.21213 0.45602 0.0
C290 C 0.12587 0.10918 0.49547 0.0
C291 C 0.1427 0.1612 0.4613 0.0
C292 C 0.09985 0.09147 0.51475 0.0
C293 C 0.06358 0.10187 0.51002 0.0
C294 C 0.11531 0.13734 0.47139 0.0
C295 C 0.05349 0.1281 0.48175 0.0
C296 C 0.1328 0.18644 0.43089 0.0
C297 C 0.20046 0.18574 0.48445 0.0
N298 N 0.07931 0.14527 0.46404 0.0
N299 N 0.17637 0.16146 0.48663 0.0
H300 H 0.29435 0.69765 0.06607 0.0
H301 H 0.49521 0.63639 0.09582 0.0
H302 H 0.38263 0.74935 0.14356 0.0
H303 H 0.40342 0.57586 0.05151 0.0
H304 H 0.45469 0.67376 0.12733 0.0
H305 H 0.33267 0.65 0.0705 0.0
C306 C 0.32176 0.69887 0.08432 0.0
C307 C 0.33552 0.72762 0.10386 0.0
C308 C 0.44345 0.65176 0.11231 0.0
C309 C 0.37971 0.67311 0.10907 0.0
C310 C 0.46675 0.63013 0.09505 0.0
C311 C 0.45258 0.60302 0.07128 0.0
C312 C 0.40562 0.64654 0.10451 0.0
C313 C 0.41538 0.59642 0.07 0.0
C314 C 0.34355 0.67157 0.08722 0.0
C315 C 0.37099 0.7277 0.12786 0.0
N316 N 0.39296 0.61849 0.0851 0.0
N317 N 0.39208 0.70105 0.12907 0.0
H318 H 0.7923 0.85435 0.57827 0.0
H319 H 0.99622 0.90936 0.61154 0.0
H320 H 0.87564 0.80793 0.67184 0.0
H321 H 0.90895 0.96909 0.54873 0.0
H322 H 0.95202 0.87691 0.64516 0.0
H323 H 0.83309 0.89993 0.5746 0.0
C324 C 0.81909 0.85385 0.59827 0.0
C325 C 0.8307 0.82713 0.62499 0.0
C326 C 0.94249 0.89775 0.6254 0.0
C327 C 0.87759 0.87927 0.62108 0.0
C328 C 0.96786 0.91659 0.60686 0.0
C329 C 0.95613 0.94197 0.57772 0.0
C330 C 0.90507 0.90385 0.6134 0.0
C331 C 0.91902 0.94985 0.57151 0.0
C332 C 0.84226 0.88001 0.59653 0.0
C333 C 0.8655 0.82802 0.65082 0.0
N334 N 0.89461 0.93032 0.58811 0.0
N335 N 0.88787 0.85339 0.64767 0.0
H336 H 0.64775 0.30066 0.93596 0.0
H337 H 0.60924 0.47149 0.03759 0.0
H338 H 0.72643 0.35553 0.02485 0.0
H339 H 0.52576 0.40307 0.99118 0.0
H340 H 0.65407 0.43788 0.00652 0.0
H341 H 0.60544 0.34582 0.93204 0.0
C342 C 0.65642 0.32244 0.9539 0.0
C343 C 0.69048 0.32419 0.98132 0.0
C344 C 0.62569 0.4308 1.00158 0.0
C345 C 0.64226 0.37595 0.9768 0.0
C346 C 0.6 0.45028 0.01852 0.0
C347 C 0.56384 0.44 0.01667 0.0
C348 C 0.61492 0.40096 0.98272 0.0
C349 C 0.5534 0.41188 0.99287 0.0
C350 C 0.63222 0.34816 0.95172 0.0
C351 C 0.70017 0.35297 0.00401 0.0
N352 N 0.57893 0.393 0.97752 0.0
N353 N 0.67609 0.3776 1.00156 0.0
H354 H 0.22069 0.90039 0.35352 0.0
H355 H 0.09617 0.03462 0.44015 0.0
H356 H 0.20025 0.99069 0.28418 0.0
H357 H 0.12092 0.9442 0.50641 0.0
H358 H 0.1443 0.02485 0.39234 0.0
H359 H 0.19463 0.92137 0.41789 0.0
C360 C 0.21143 0.92489 0.35193 0.0
C361 C 0.21261 0.94358 0.3127 0.0
C362 C 0.13994 0.0076 0.41829 0.0
C363 C 0.18112 0.96762 0.38674 0.0
C364 C 0.11283 0.01339 0.44596 0.0
C365 C 0.10464 0.99007 0.47701 0.0
C366 C 0.15868 0.9783 0.42192 0.0
C367 C 0.12643 0.96269 0.48271 0.0
C368 C 0.19615 0.93684 0.38888 0.0
C369 C 0.19921 0.975 0.31302 0.0
N370 N 0.15202 0.95735 0.45497 0.0
N371 N 0.18357 0.98586 0.34912 0.0
H372 H 0.68413 0.54821 0.76401 0.0
H373 H 0.611 0.59937 0.99391 0.0
H374 H 0.68752 0.64345 0.81988 0.0
H375 H 0.58797 0.50796 0.93035 0.0
H376 H 0.65544 0.60979 0.94209 0.0
H377 H 0.66278 0.52844 0.83359 0.0
C378 C 0.68073 0.56498 0.79087 0.0
C379 C 0.68727 0.59774 0.78544 0.0
C380 C 0.64145 0.58706 0.94008 0.0
C381 C 0.6636 0.57498 0.8657 0.0
C382 C 0.61647 0.58095 0.97011 0.0
C383 C 0.59593 0.55282 0.96625 0.0
C384 C 0.64529 0.56518 0.90516 0.0
C385 C 0.60354 0.52986 0.93448 0.0
C386 C 0.66882 0.55356 0.83077 0.0
C387 C 0.68325 0.61802 0.82219 0.0
N388 N 0.62707 0.53685 0.9043 0.0
N389 N 0.67141 0.60637 0.86036 0.0
H390 H 0.83456 0.0602 0.18842 0.0
H391 H 0.96426 0.08494 0.42645 0.0
H392 H 0.88548 0.15044 0.22697 0.0
H393 H 0.92116 0.99459 0.37405 0.0
H394 H 0.93091 0.11141 0.35887 0.0
H395 H 0.86078 0.03802 0.26167 0.0
C396 C 0.85127 0.0754 0.21244 0.0
C397 C 0.85828 0.10709 0.20122 0.0
C398 C 0.92869 0.08582 0.36247 0.0
C399 C 0.88864 0.08174 0.28577 0.0
C400 C 0.94761 0.07071 0.40106 0.0
C401 C 0.94581 0.03741 0.40584 0.0
C402 C 0.90761 0.0675 0.32878 0.0
C403 C 0.92383 0.02022 0.37178 0.0
C404 C 0.86623 0.06273 0.25441 0.0
C405 C 0.87945 0.12586 0.23422 0.0
N406 N 0.90579 0.03541 0.3349 0.0
N407 N 0.89422 0.11282 0.27489 0.0
H408 H 0.32655 0.4557 0.69964 0.0
H409 H 0.46252 0.44949 0.93558 0.0
H410 H 0.38181 0.36946 0.74953 0.0
H411 H 0.4096 0.53433 0.87604 0.0
H412 H 0.42984 0.41808 0.87248 0.0
H413 H 0.35322 0.48317 0.76863 0.0
C414 C 0.34438 0.44252 0.72518 0.0
C415 C 0.35231 0.41032 0.71844 0.0
C416 C 0.42531 0.44355 0.87354 0.0
C417 C 0.38312 0.44177 0.79821 0.0
C418 C 0.44384 0.46146 0.90961 0.0
C419 C 0.43911 0.49469 0.91098 0.0
C420 C 0.40176 0.45899 0.83891 0.0
C421 C 0.41458 0.5089 0.8763 0.0
C422 C 0.35955 0.45821 0.76478 0.0
C423 C 0.37495 0.39431 0.75333 0.0
N424 N 0.39706 0.49106 0.84185 0.0
N425 N 0.38985 0.41026 0.79158 0.0
H426 H 0.63017 0.6748 0.33534 0.0
H427 H 0.59809 0.50433 0.21458 0.0
H428 H 0.6737 0.58583 0.39244 0.0
H429 H 0.55126 0.59069 0.15214 0.0
H430 H 0.62874 0.53543 0.27746 0.0
H431 H 0.60397 0.64622 0.26594 0.0
C432 C 0.63445 0.64935 0.33319 0.0
C433 C 0.65386 0.63265 0.37007 0.0
C434 C 0.61191 0.54777 0.25008 0.0
C435 C 0.62391 0.59986 0.29092 0.0
C436 C 0.59426 0.52994 0.21397 0.0
C437 C 0.57171 0.5448 0.17798 0.0
C438 C 0.60703 0.58093 0.25085 0.0
C439 C 0.56835 0.57819 0.17912 0.0
C440 C 0.61936 0.63304 0.29366 0.0
C441 C 0.65836 0.59965 0.3654 0.0
N442 N 0.5856 0.59514 0.21519 0.0
N443 N 0.64347 0.58444 0.32681 0.0
H444 H 0.77372 0.11784 0.73187 0.0
H445 H 0.9308 0.01013 0.65236 0.0
H446 H 0.86235 0.07675 0.82429 0.0
H447 H 0.89241 0.0962 0.5819 0.0
H448 H 0.886 0.018 0.70533 0.0
H449 H 0.79971 0.09445 0.66795 0.0
C450 C 0.79836 0.10383 0.73913 0.0
C451 C 0.81609 0.1001 0.78415 0.0
C452 C 0.88656 0.03446 0.6772 0.0
C453 C 0.84464 0.07181 0.71076 0.0
C454 C 0.91172 0.02979 0.6467 0.0
C455 C 0.91517 0.05262 0.61292 0.0
C456 C 0.86441 0.06177 0.67309 0.0
C457 C 0.89042 0.07809 0.60756 0.0
C458 C 0.81282 0.09015 0.70247 0.0
C459 C 0.84719 0.08038 0.79077 0.0
N460 N 0.86627 0.08221 0.6377 0.0
N461 N 0.86051 0.06719 0.75455 0.0
H462 H 0.28672 0.42611 0.25885 0.0
H463 H 0.43083 0.53582 0.15467 0.0
H464 H 0.3725 0.47915 0.34015 0.0
H465 H 0.39766 0.44393 0.09868 0.0
H466 H 0.38877 0.52922 0.21136 0.0
H467 H 0.30906 0.44574 0.18999 0.0
C468 C 0.30999 0.44194 0.26264 0.0
C469 C 0.328 0.4503 0.30613 0.0
C470 C 0.3898 0.51107 0.18556 0.0
C471 C 0.35228 0.47414 0.22685 0.0
C472 C 0.41337 0.515 0.15292 0.0
C473 C 0.41758 0.49034 0.12215 0.0
C474 C 0.37 0.48258 0.18665 0.0
C475 C 0.39501 0.46346 0.12189 0.0
C476 C 0.32234 0.45343 0.22311 0.0
C477 C 0.35719 0.47204 0.30798 0.0
N478 N 0.37241 0.4601 0.15405 0.0
N479 N 0.36845 0.48302 0.26904 0.0
H480 H 0.17102 0.98961 0.90944 0.0
H481 H 0.05547 0.96052 0.66276 0.0
H482 H 0.1327 0.89633 0.86416 0.0
H483 H 0.09232 0.05218 0.71717 0.0
H484 H 0.08675 0.93513 0.73253 0.0
H485 H 0.14565 0.01148 0.83573 0.0
C486 C 0.15713 0.97369 0.88394 0.0
C487 C 0.15355 0.94115 0.89335 0.0
C488 C 0.08807 0.96077 0.7289 0.0
C489 C 0.12434 0.96615 0.808 0.0
C490 C 0.07034 0.97527 0.68904 0.0
C491 C 0.07097 0.00862 0.68409 0.0
C492 C 0.10669 0.97977 0.7638 0.0
C493 C 0.09061 0.02648 0.71941 0.0
C494 C 0.14273 0.98619 0.84162 0.0
C495 C 0.13605 0.92158 0.85839 0.0
N496 N 0.10746 0.01189 0.75753 0.0
N497 N 0.12181 0.93442 0.81734 0.0
loop_
_geom_bond_atom_site_label_1
_geom_bond_atom_site_label_2
_geom_bond_distance
_geom_bond_site_symmetry_2
_ccdc_geom_bond_type
C0 C1 1.391 . S
C0 C4 1.391 . S
C0 H42 0.948 . S
C1 C0 1.391 . S
C1 C2 1.391 . S
C2 C1 1.391 . S
C2 H58 0.947 . S
C2 C59 1.392 1_556 S
C3 C4 1.391 1_554 S
C3 C7 1.397 . S
C3 C59 1.419 . S
C4 C0 1.391 . S
C4 C3 1.391 1_556 S
C4 C5 1.399 . S
C5 C4 1.399 . S
C5 C8 1.396 1_556 S
C5 C17 1.453 . S
C5 C18 1.684 . S
H6 C30 0.948 . S
C7 C3 1.397 . S
C7 C8 1.394 . S
C7 C26 1.723 . S
C8 C5 1.396 1_554 S
C8 C7 1.394 . S
C8 C38 1.723 . S
H9 C32 0.947 . S
H10 C33 0.948 . S
H11 C39 0.982 . S
H12 C40 0.979 . S
H13 C40 0.980 . S
H14 C40 0.983 . S
H15 C39 0.979 . S
H16 C39 0.977 . S
C17 C5 1.453 . S
C17 H46 0.982 . S
C17 H47 0.979 . S
C17 H48 0.977 . S
C18 C5 1.684 . S
C18 H43 0.979 . S
C18 H44 0.980 . S
C18 H45 0.983 . S
C19 C20 1.391 . S
C19 C24 1.391 . S
C19 H49 0.948 . S
C20 C19 1.391 . S
C20 C21 1.391 . S
C21 C20 1.391 . S
C21 C22 1.392 . S
C21 H50 0.947 . S
C22 C21 1.392 . S
C22 C23 1.419 . S
C22 H51 0.948 . S
C23 C22 1.419 . S
C23 C24 1.391 . S
C23 C27 1.397 . S
C24 C19 1.391 . S
C24 C23 1.391 . S
C24 C25 1.399 . S
C25 C24 1.399 . S
C25 C26 1.396 . S
C25 C28 1.453 . S
C25 C29 1.684 . S
C26 C7 1.723 . S
C26 C25 1.396 . S
C26 C27 1.394 . S
C27 C23 1.397 . S
C27 C26 1.394 . S
C27 C37 1.723 . S
C28 C25 1.453 . S
C28 H52 0.982 . S
C28 H53 0.979 . S
C28 H54 0.977 . S
C29 C25 1.684 . S
C29 H55 0.979 . S
C29 H56 0.980 . S
C29 H57 0.983 . S
C30 H6 0.948 . S
C30 C31 1.391 . S
C30 C35 1.391 . S
C31 C30 1.391 . S
C31 C32 1.391 . S
C32 H9 0.947 . S
C32 C31 1.391 . S
C32 C33 1.392 . S
C33 H10 0.948 . S
C33 C32 1.392 . S
C33 C34 1.419 . S
C34 C33 1.419 . S
C34 C35 1.391 . S
C34 C38 1.397 . S
C35 C30 1.391 . S
C35 C34 1.391 . S
C35 C36 1.399 . S
C36 C35 1.399 . S
C36 C37 1.396 . S
C36 C39 1.453 . S
C36 C40 1.684 . S
C37 C27 1.723 . S
C37 C36 1.396 . S
C37 C38 1.394 . S
C38 C8 1.723 . S
C38 C34 1.397 . S
C38 C37 1.394 . S
C39 H11 0.982 . S
C39 H15 0.979 . S
C39 H16 0.977 . S
C39 C36 1.453 . S
C40 H12 0.979 . S
C40 H13 0.980 . S
C40 H14 0.983 . S
C40 C36 1.684 . S
H41 C59 0.948 . S
H42 C0 0.948 . S
H43 C18 0.979 . S
H44 C18 0.980 . S
H45 C18 0.983 . S
H46 C17 0.982 . S
H47 C17 0.979 . S
H48 C17 0.977 . S
H49 C19 0.948 . S
H50 C21 0.947 . S
H51 C22 0.948 . S
H52 C28 0.982 . S
H53 C28 0.979 . S
H54 C28 0.977 . S
H55 C29 0.979 . S
H56 C29 0.980 . S
H57 C29 0.983 . S
H58 C2 0.947 . S
C59 C2 1.392 1_554 S
C59 C3 1.419 . S
C59 H41 0.948 . S
C60 C61 1.391 . S
C60 C64 1.391 . S
C60 H102 0.948 . S
C61 C60 1.391 . S
C61 C62 1.391 . S
C62 C61 1.391 . S
C62 H118 0.947 . S
C62 C119 1.392 . S
C63 C64 1.391 . S
C63 C67 1.397 . S
C63 C119 1.419 . S
C64 C60 1.391 . S
C64 C63 1.391 . S
C64 C65 1.399 . S
C65 C64 1.399 . S
C65 C68 1.396 . S
C65 C77 1.453 . S
C65 C78 1.684 . S
H66 C90 0.948 . S
C67 C63 1.397 . S
C67 C68 1.394 . S
C67 C86 1.723 . S
C68 C65 1.396 . S
C68 C67 1.394 . S
C68 C98 1.723 . S
H69 C92 0.947 . S
H70 C93 0.948 . S
H71 C99 0.982 . S
H72 C100 0.979 . S
H73 C100 0.980 . S
H74 C100 0.983 . S
H75 C99 0.979 . S
H76 C99 0.977 . S
C77 C65 1.453 . S
C77 H106 0.982 . S
C77 H107 0.979 . S
C77 H108 0.977 . S
C78 C65 1.684 . S
C78 H103 0.979 . S
C78 H104 0.980 . S
C78 H105 0.983 . S
C79 C80 1.391 . S
C79 C84 1.391 . S
C79 H109 0.948 . S
C80 C79 1.391 . S
C80 C81 1.391 . S
C81 C80 1.391 . S
C81 C82 1.392 . S
C81 H110 0.947 . S
C82 C81 1.392 . S
C82 C83 1.419 . S
C82 H111 0.948 . S
C83 C82 1.419 . S
C83 C84 1.391 . S
C83 C87 1.397 . S
C84 C79 1.391 . S
C84 C83 1.391 . S
C84 C85 1.399 . S
C85 C84 1.399 . S
C85 C86 1.396 . S
C85 C88 1.453 . S
C85 C89 1.684 . S
C86 C67 1.723 . S
C86 C85 1.396 . S
C86 C87 1.394 . S
C87 C83 1.397 . S
C87 C86 1.394 . S
C87 C97 1.723 . S
C88 C85 1.453 . S
C88 H112 0.982 . S
C88 H113 0.979 . S
C88 H114 0.977 . S
C89 C85 1.684 . S
C89 H115 0.979 . S
C89 H116 0.980 . S
C89 H117 0.983 . S
C90 H66 0.948 . S
C90 C91 1.391 . S
C90 C95 1.391 . S
C91 C90 1.391 . S
C91 C92 1.391 . S
C92 H69 0.947 . S
C92 C91 1.391 . S
C92 C93 1.392 . S
C93 H70 0.948 . S
C93 C92 1.392 . S
C93 C94 1.419 . S
C94 C93 1.419 . S
C94 C95 1.391 . S
C94 C98 1.397 . S
C95 C90 1.391 . S
C95 C94 1.391 . S
C95 C96 1.399 . S
C96 C95 1.399 . S
C96 C97 1.396 . S
C96 C99 1.453 . S
C96 C100 1.684 . S
C97 C87 1.723 . S
C97 C96 1.396 . S
C97 C98 1.394 . S
C98 C68 1.723 . S
C98 C94 1.397 . S
C98 C97 1.394 . S
C99 H71 0.982 . S
C99 H75 0.979 . S
C99 H76 0.977 . S
C99 C96 1.453 . S
C100 H72 0.979 . S
C100 H73 0.980 . S
C100 H74 0.983 . S
C100 C96 1.684 . S
H101 C119 0.948 . S
H102 C60 0.948 . S
H103 C78 0.979 . S
H104 C78 0.980 . S
H105 C78 0.983 . S
H106 C77 0.982 . S
H107 C77 0.979 . S
H108 C77 0.977 . S
H109 C79 0.948 . S
H110 C81 0.947 . S
H111 C82 0.948 . S
H112 C88 0.982 . S
H113 C88 0.979 . S
H114 C88 0.977 . S
H115 C89 0.979 . S
H116 C89 0.980 . S
H117 C89 0.983 . S
H118 C62 0.947 . S
C119 C62 1.392 . S
C119 C63 1.419 . S
C119 H101 0.948 . S
C120 C121 1.391 . S
C120 C124 1.391 . S
C120 H162 0.948 . S
C121 C120 1.391 . S
C121 C122 1.391 . S
C122 C121 1.391 . S
C122 H178 0.947 . S
C122 C179 1.392 . S
C123 C124 1.391 . S
C123 C127 1.397 . S
C123 C179 1.419 . S
C124 C120 1.391 . S
C124 C123 1.391 . S
C124 C125 1.399 . S
C125 C124 1.399 . S
C125 C128 1.396 . S
C125 C137 1.453 . S
C125 C138 1.684 . S
H126 C150 0.948 . S
C127 C123 1.397 . S
C127 C128 1.394 . S
C127 C146 1.723 1_554 S
C128 C125 1.396 . S
C128 C127 1.394 . S
C128 C158 1.723 . S
H129 C152 0.947 . S
H130 C153 0.948 . S
H131 C159 0.982 . S
H132 C160 0.979 . S
H133 C160 0.980 . S
H134 C160 0.983 . S
H135 C159 0.979 . S
H136 C159 0.977 . S
C137 C125 1.453 . S
C137 H166 0.982 . S
C137 H167 0.979 . S
C137 H168 0.977 . S
C138 C125 1.684 . S
C138 H163 0.979 . S
C138 H164 0.980 . S
C138 H165 0.983 . S
C139 C140 1.391 . S
C139 C144 1.391 . S
C139 H169 0.948 . S
C140 C139 1.391 . S
C140 C141 1.391 . S
C141 C140 1.391 . S
C141 C142 1.392 . S
C141 H170 0.947 . S
C142 C141 1.392 . S
C142 C143 1.419 . S
C142 H171 0.948 . S
C143 C142 1.419 . S
C143 C144 1.391 . S
C143 C147 1.397 . S
C144 C139 1.391 . S
C144 C143 1.391 . S
C144 C145 1.399 . S
C145 C144 1.399 . S
C145 C146 1.396 . S
C145 C148 1.453 . S
C145 C149 1.684 . S
C146 C127 1.723 1_556 S
C146 C145 1.396 . S
C146 C147 1.394 . S
C147 C143 1.397 . S
C147 C146 1.394 . S
C147 C157 1.723 . S
C148 C145 1.453 . S
C148 H172 0.982 . S
C148 H173 0.979 . S
C148 H174 0.977 1_556 S
C149 C145 1.684 . S
C149 H175 0.979 . S
C149 H176 0.980 1_556 S
C149 H177 0.983 . S
C150 H126 0.948 . S
C150 C151 1.396 . S
C150 C155 1.391 . S
C151 C150 1.396 . S
C151 C152 1.386 1_556 S
C152 H129 0.947 . S
C152 C151 1.386 1_554 S
C152 C153 1.392 . S
C153 H130 0.948 . S
C153 C152 1.392 . S
C153 C154 1.419 . S
C154 C153 1.419 . S
C154 C155 1.391 1_554 S
C154 C158 1.397 . S
C155 C150 1.391 . S
C155 C154 1.391 1_556 S
C155 C156 1.399 . S
C156 C155 1.399 . S
C156 C157 1.396 . S
C156 C159 1.453 . S
C156 C160 1.684 . S
C157 C147 1.723 . S
C157 C156 1.396 . S
C157 C158 1.394 1_556 S
C158 C128 1.723 . S
C158 C154 1.397 . S
C158 C157 1.394 1_554 S
C159 H131 0.982 . S
C159 H135 0.979 . S
C159 H136 0.977 . S
C159 C156 1.453 . S
C160 H132 0.979 . S
C160 H133 0.980 . S
C160 H134 0.983 . S
C160 C156 1.684 . S
H161 C179 0.948 . S
H162 C120 0.948 . S
H163 C138 0.979 . S
H164 C138 0.980 . S
H165 C138 0.983 . S
H166 C137 0.982 . S
H167 C137 0.979 . S
H168 C137 0.977 . S
H169 C139 0.948 . S
H170 C141 0.947 . S
H171 C142 0.948 . S
H172 C148 0.982 . S
H173 C148 0.979 . S
H174 C148 0.977 1_554 S
H175 C149 0.979 . S
H176 C149 0.980 1_554 S
H177 C149 0.983 . S
H178 C122 0.947 . S
C179 C122 1.392 . S
C179 C123 1.419 . S
C179 H161 0.948 . S
C180 C181 1.391 . S
C180 C184 1.391 . S
C180 H222 0.948 . S
C181 C180 1.391 . S
C181 C182 1.391 . S
C182 C181 1.391 . S
C182 H238 0.947 . S
C182 C239 1.392 . S
C183 C184 1.391 . S
C183 C187 1.397 . S
C183 C239 1.419 . S
C184 C180 1.391 . S
C184 C183 1.391 . S
C184 C185 1.399 . S
C185 C184 1.399 . S
C185 C188 1.396 . S
C185 C197 1.453 . S
C185 C198 1.684 . S
H186 C210 0.948 . S
C187 C183 1.397 . S
C187 C188 1.394 . S
C187 C206 1.723 . S
C188 C185 1.396 . S
C188 C187 1.394 . S
C188 C218 1.723 . S
H189 C212 0.947 . S
H190 C213 0.948 . S
H191 C219 0.982 . S
H192 C220 0.979 . S
H193 C220 0.980 . S
H194 C220 0.983 . S
H195 C219 0.979 . S
H196 C219 0.977 . S
C197 C185 1.453 . S
C197 H226 0.982 . S
C197 H227 0.979 . S
C197 H228 0.977 . S
C198 C185 1.684 . S
C198 H223 0.979 . S
C198 H224 0.980 . S
C198 H225 0.983 . S
C199 C200 1.391 . S
C199 C204 1.391 . S
C199 H229 0.948 . S
C200 C199 1.391 . S
C200 C201 1.391 . S
C201 C200 1.391 . S
C201 C202 1.392 . S
C201 H230 0.947 . S
C202 C201 1.392 . S
C202 C203 1.419 . S
C202 H231 0.948 . S
C203 C202 1.419 . S
C203 C204 1.391 . S
C203 C207 1.397 . S
C204 C199 1.391 . S
C204 C203 1.391 . S
C204 C205 1.399 . S
C205 C204 1.399 . S
C205 C206 1.396 . S
C205 C208 1.453 . S
C205 C209 1.684 . S
C206 C187 1.723 . S
C206 C205 1.396 . S
C206 C207 1.394 . S
C207 C203 1.397 . S
C207 C206 1.394 . S
C207 C217 1.723 . S
C208 C205 1.453 . S
C208 H232 0.982 . S
C208 H233 0.979 . S
C208 H234 0.977 . S
C209 C205 1.684 . S
C209 H235 0.979 . S
C209 H236 0.980 . S
C209 H237 0.983 . S
C210 H186 0.948 . S
C210 C211 1.391 . S
C210 C215 1.391 . S
C211 C210 1.391 . S
C211 C212 1.391 . S
C212 H189 0.947 . S
C212 C211 1.391 . S
C212 C213 1.392 . S
C213 H190 0.948 . S
C213 C212 1.392 . S
C213 C214 1.419 . S
C214 C213 1.419 . S
C214 C215 1.391 . S
C214 C218 1.397 . S
C215 C210 1.391 . S
C215 C214 1.391 . S
C215 C216 1.399 . S
C216 C215 1.399 . S
C216 C217 1.396 . S
C216 C219 1.453 . S
C216 C220 1.684 . S
C217 C207 1.723 . S
C217 C216 1.396 . S
C217 C218 1.394 . S
C218 C188 1.723 . S
C218 C214 1.397 . S
C218 C217 1.394 . S
C219 H191 0.982 . S
C219 H195 0.979 . S
C219 H196 0.977 . S
C219 C216 1.453 . S
C220 H192 0.979 . S
C220 H193 0.980 . S
C220 H194 0.983 . S
C220 C216 1.684 . S
H221 C239 0.948 . S
H222 C180 0.948 . S
H223 C198 0.979 . S
H224 C198 0.980 . S
H225 C198 0.983 . S
H226 C197 0.982 . S
H227 C197 0.979 . S
H228 C197 0.977 . S
H229 C199 0.948 . S
H230 C201 0.947 . S
H231 C202 0.948 . S
H232 C208 0.982 . S
H233 C208 0.979 . S
H234 C208 0.977 . S
H235 C209 0.979 . S
H236 C209 0.980 . S
H237 C209 0.983 . S
H238 C182 0.947 . S
C239 C182 1.392 . S
C239 C183 1.419 . S
C239 H221 0.948 . S
O240 Mn241 2.163 1_655 S
O240 C254 1.244 . S
Mn241 O240 2.163 1_455 S
Mn241 O244 2.160 1_545 S
Mn241 O245 2.221 . S
Mn241 O247 2.163 1_455 S
Mn241 O249 2.160 1_545 S
Mn241 O259 2.221 1_445 S
O242 Mn243 2.087 1_545 S
O242 C254 1.256 . S
Mn243 O242 2.087 1_565 S
Mn243 O250 2.089 1_655 S
Mn243 O259 2.290 . S
Mn243 O260 2.251 . S
O244 Mn241 2.160 1_565 S
O244 C255 1.239 . S
O245 Mn241 2.221 . S
O245 Mn246 2.290 . S
O245 C256 1.278 . S
Mn246 O245 2.290 . S
Mn246 O248 2.089 . S
Mn246 O251 2.251 . S
Mn246 O252 2.087 1_455 S
O247 Mn241 2.163 1_655 S
O247 C257 1.244 . S
O248 Mn246 2.089 . S
O248 C255 1.256 1_545 S
O249 Mn241 2.160 1_565 S
O249 C258 1.239 . S
O250 Mn243 2.089 1_455 S
O250 C258 1.256 . S
O251 Mn246 2.251 . S
O251 C256 1.241 . S
O252 Mn246 2.087 1_655 S
O252 C257 1.256 . S
C253 O259 1.278 . S
C253 O260 1.241 . S
C254 O240 1.244 . S
C254 O242 1.256 . S
C255 O244 1.239 . S
C255 O248 1.256 1_565 S
C256 O245 1.278 . S
C256 O251 1.241 . S
C257 O247 1.244 . S
C257 O252 1.256 . S
C258 O249 1.239 . S
C258 O250 1.256 . S
O259 Mn241 2.221 1_665 S
O259 Mn243 2.290 . S
O259 C253 1.278 . S
O260 Mn243 2.251 . S
O260 C253 1.241 . S
O261 Mn262 2.163 . S
O261 C275 1.244 . S
Mn262 O261 2.163 . S
Mn262 O265 2.160 1_554 S
Mn262 O266 2.221 . S
Mn262 O268 2.163 1_554 S
Mn262 O270 2.160 . S
Mn262 O280 2.221 . S
O263 Mn264 2.087 . S
O263 C275 1.256 . S
Mn264 O263 2.087 . S
Mn264 O271 2.089 . S
Mn264 O280 2.290 . S
Mn264 O281 2.251 . S
O265 Mn262 2.160 1_556 S
O265 C276 1.239 . S
O266 Mn262 2.221 . S
O266 Mn267 2.290 1_554 S
O266 C277 1.278 . S
Mn267 O266 2.290 1_556 S
Mn267 O269 2.089 . S
Mn267 O272 2.251 1_556 S
Mn267 O273 2.087 . S
O268 Mn262 2.163 1_556 S
O268 C278 1.244 . S
O269 Mn267 2.089 . S
O269 C276 1.256 . S
O270 Mn262 2.160 . S
O270 C279 1.239 . S
O271 Mn264 2.089 . S
O271 C279 1.256 . S
O272 Mn267 2.251 1_554 S
O272 C277 1.241 . S
O273 Mn267 2.087 . S
O273 C278 1.256 . S
C274 O280 1.278 . S
C274 O281 1.241 . S
C275 O261 1.244 . S
C275 O263 1.256 . S
C276 O265 1.239 . S
C276 O269 1.256 . S
C277 O266 1.278 . S
C277 O272 1.241 . S
C278 O268 1.244 . S
C278 O273 1.256 . S
C279 O270 1.239 . S
C279 O271 1.256 . S
O280 Mn262 2.221 . S
O280 Mn264 2.290 . S
O280 C274 1.278 . S
O281 Mn264 2.251 . S
O281 C274 1.241 . S
H282 C288 0.930 . S
H283 C292 0.930 . S
H284 C297 0.929 . S
H285 C295 0.929 . S
H286 C290 0.929 . S
H287 C296 0.929 . S
C288 H282 0.930 . S
C288 C289 1.367 . S
C288 C296 1.378 . S
C289 C288 1.367 . S
C289 C297 1.433 . S
C290 H286 0.929 . S
C290 C292 1.378 . S
C290 C294 1.350 . S
C291 C294 1.463 . S
C291 C296 1.350 . S
C291 N299 1.427 . S
C292 H283 0.930 . S
C292 C290 1.378 . S
C292 C293 1.367 . S
C293 C292 1.367 . S
C293 C295 1.433 . S
C294 C290 1.350 . S
C294 C291 1.463 . S
C294 N298 1.427 . S
C295 H285 0.929 . S
C295 C293 1.433 . S
C295 N298 1.384 . S
C296 H287 0.929 . S
C296 C288 1.378 . S
C296 C291 1.350 . S
C297 H284 0.929 . S
C297 C289 1.433 . S
C297 N299 1.384 . S
N298 C294 1.427 . S
N298 C295 1.384 . S
N299 C291 1.427 . S
N299 C297 1.384 . S
H300 C306 0.930 . S
H301 C310 0.930 . S
H302 C315 0.929 . S
H303 C313 0.929 . S
H304 C308 0.929 . S
H305 C314 0.929 . S
C306 H300 0.930 . S
C306 C307 1.367 . S
C306 C314 1.378 . S
C307 C306 1.367 . S
C307 C315 1.433 . S
C308 H304 0.929 . S
C308 C310 1.378 . S
C308 C312 1.350 . S
C309 C312 1.463 . S
C309 C314 1.350 . S
C309 N317 1.427 . S
C310 H301 0.930 . S
C310 C308 1.378 . S
C310 C311 1.367 . S
C311 C310 1.367 . S
C311 C313 1.433 . S
C312 C308 1.350 . S
C312 C309 1.463 . S
C312 N316 1.427 . S
C313 H303 0.929 . S
C313 C311 1.433 . S
C313 N316 1.384 . S
C314 H305 0.929 . S
C314 C306 1.378 . S
C314 C309 1.350 . S
C315 H302 0.929 . S
C315 C307 1.433 . S
C315 N317 1.384 . S
N316 C312 1.427 . S
N316 C313 1.384 . S
N317 C309 1.427 . S
N317 C315 1.384 . S
H318 C324 0.930 . S
H319 C328 0.950 . S
H320 C333 0.929 . S
H321 C331 0.929 . S
H322 C326 0.929 . S
H323 C332 0.929 . S
C324 H318 0.930 . S
C324 C325 1.367 . S
C324 C332 1.378 . S
C325 C324 1.367 . S
C325 C333 1.433 . S
C326 H322 0.929 . S
C326 C328 1.378 . S
C326 C330 1.350 . S
C327 C330 1.463 . S
C327 C332 1.350 . S
C327 N335 1.427 . S
C328 H319 0.950 . S
C328 C326 1.378 . S
C328 C329 1.367 . S
C329 C328 1.367 . S
C329 C331 1.433 . S
C330 C326 1.350 . S
C330 C327 1.463 . S
C330 N334 1.427 . S
C331 H321 0.929 . S
C331 C329 1.433 . S
C331 N334 1.384 . S
C332 H323 0.929 . S
C332 C324 1.378 . S
C332 C327 1.350 . S
C333 H320 0.929 . S
C333 C325 1.433 . S
C333 N335 1.384 . S
N334 C330 1.427 . S
N334 C331 1.384 . S
N335 C327 1.427 . S
N335 C333 1.384 . S
H336 C342 0.930 . S
H337 C346 0.930 . S
H338 C351 0.929 . S
H339 C349 0.929 . S
H340 C344 0.929 . S
H341 C350 0.929 . S
C342 H336 0.930 . S
C342 C343 1.367 . S
C342 C350 1.378 . S
C343 C342 1.367 . S
C343 C351 1.433 1_556 S
C344 H340 0.929 . S
C344 C346 1.378 . S
C344 C348 1.350 . S
C345 C348 1.463 . S
C345 C350 1.350 1_554 S
C345 N353 1.427 . S
C346 H337 0.930 . S
C346 C344 1.378 . S
C346 C347 1.367 . S
C347 C346 1.367 . S
C347 C349 1.433 1_554 S
C348 C344 1.350 . S
C348 C345 1.463 . S
C348 N352 1.427 1_554 S
C349 H339 0.929 . S
C349 C347 1.433 1_556 S
C349 N352 1.384 . S
C350 H341 0.929 . S
C350 C342 1.378 . S
C350 C345 1.350 1_556 S
C351 H338 0.929 . S
C351 C343 1.433 1_554 S
C351 N353 1.384 . S
N352 C348 1.427 1_556 S
N352 C349 1.384 . S
N353 C345 1.427 . S
N353 C351 1.384 . S
H354 C360 0.930 . S
H355 C364 0.930 . S
H356 C369 0.929 . S
H357 C367 0.929 . S
H358 C362 0.929 1_545 S
H359 C368 0.929 . S
C360 H354 0.930 . S
C360 C361 1.367 . S
C360 C368 1.378 . S
C361 C360 1.367 . S
C361 C369 1.433 . S
C362 H358 0.929 1_565 S
C362 C364 1.378 1_565 S
C362 C366 1.349 . S
C363 C366 1.463 . S
C363 C368 1.350 . S
C363 N371 1.427 . S
C364 H355 0.930 . S
C364 C362 1.378 1_545 S
C364 C365 1.367 1_545 S
C365 C364 1.367 1_565 S
C365 C367 1.433 . S
C366 C362 1.349 . S
C366 C363 1.463 . S
C366 N370 1.427 . S
C367 H357 0.929 . S
C367 C365 1.433 . S
C367 N370 1.384 . S
C368 H359 0.929 . S
C368 C360 1.378 . S
C368 C363 1.350 . S
C369 H356 0.929 . S
C369 C361 1.433 . S
C369 N371 1.384 . S
N370 C366 1.427 . S
N370 C367 1.384 . S
N371 C363 1.427 . S
N371 C369 1.384 . S
H372 C378 0.930 . S
H373 C382 0.930 . S
H374 C387 0.929 . S
H375 C385 0.929 . S
H376 C380 0.929 . S
H377 C386 0.929 . S
C378 H372 0.930 . S
C378 C379 1.367 . S
C378 C386 1.378 . S
C379 C378 1.367 . S
C379 C387 1.433 . S
C380 H376 0.929 . S
C380 C382 1.378 . S
C380 C384 1.350 . S
C381 C384 1.463 . S
C381 C386 1.350 . S
C381 N389 1.427 . S
C382 H373 0.930 . S
C382 C380 1.378 . S
C382 C383 1.367 . S
C383 C382 1.367 . S
C383 C385 1.433 . S
C384 C380 1.350 . S
C384 C381 1.463 . S
C384 N388 1.427 . S
C385 H375 0.929 . S
C385 C383 1.433 . S
C385 N388 1.384 . S
C386 H377 0.929 . S
C386 C378 1.378 . S
C386 C381 1.350 . S
C387 H374 0.929 . S
C387 C379 1.433 . S
C387 N389 1.384 . S
N388 C384 1.427 . S
N388 C385 1.384 . S
N389 C381 1.427 . S
N389 C387 1.384 . S
H390 C396 0.930 . S
H391 C400 0.930 . S
H392 C405 0.929 . S
H393 C403 0.929 . S
H394 C398 0.929 . S
H395 C404 0.929 . S
C396 H390 0.930 . S
C396 C397 1.367 . S
C396 C404 1.378 . S
C397 C396 1.367 . S
C397 C405 1.433 . S
C398 H394 0.929 . S
C398 C400 1.378 . S
C398 C402 1.350 . S
C399 C402 1.463 . S
C399 C404 1.350 . S
C399 N407 1.427 . S
C400 H391 0.930 . S
C400 C398 1.378 . S
C400 C401 1.367 . S
C401 C400 1.367 . S
C401 C403 1.433 . S
C402 C398 1.350 . S
C402 C399 1.463 . S
C402 N406 1.427 . S
C403 H393 0.929 . S
C403 C401 1.433 . S
C403 N406 1.384 . S
C404 H395 0.929 . S
C404 C396 1.378 . S
C404 C399 1.350 . S
C405 H392 0.929 . S
C405 C397 1.433 . S
C405 N407 1.384 . S
N406 C402 1.427 . S
N406 C403 1.384 . S
N407 C399 1.427 . S
N407 C405 1.384 . S
H408 C414 0.930 . S
H409 C418 0.930 . S
H410 C423 0.929 . S
H411 C421 0.929 . S
H412 C416 0.929 . S
H413 C422 0.929 . S
C414 H408 0.930 . S
C414 C415 1.367 . S
C414 C422 1.378 . S
C415 C414 1.367 . S
C415 C423 1.433 . S
C416 H412 0.929 . S
C416 C418 1.378 . S
C416 C420 1.350 . S
C417 C420 1.463 . S
C417 C422 1.350 . S
C417 N425 1.427 . S
C418 H409 0.930 . S
C418 C416 1.378 . S
C418 C419 1.367 . S
C419 C418 1.367 . S
C419 C421 1.433 . S
C420 C416 1.350 . S
C420 C417 1.463 . S
C420 N424 1.427 . S
C421 H411 0.929 . S
C421 C419 1.433 . S
C421 N424 1.384 . S
C422 H413 0.929 . S
C422 C414 1.378 . S
C422 C417 1.350 . S
C423 H410 0.929 . S
C423 C415 1.433 . S
C423 N425 1.384 . S
N424 C420 1.427 . S
N424 C421 1.384 . S
N425 C417 1.427 . S
N425 C423 1.384 . S
H426 C432 0.930 . S
H427 C436 0.930 . S
H428 C441 0.929 . S
H429 C439 0.929 . S
H430 C434 0.929 . S
H431 C440 0.929 . S
C432 H426 0.930 . S
C432 C433 1.367 . S
C432 C440 1.378 . S
C433 C432 1.367 . S
C433 C441 1.433 . S
C434 H430 0.929 . S
C434 C436 1.378 . S
C434 C438 1.350 . S
C435 C438 1.463 . S
C435 C440 1.350 . S
C435 N443 1.427 . S
C436 H427 0.930 . S
C436 C434 1.378 . S
C436 C437 1.367 . S
C437 C436 1.367 . S
C437 C439 1.433 . S
C438 C434 1.350 . S
C438 C435 1.463 . S
C438 N442 1.427 . S
C439 H429 0.929 . S
C439 C437 1.433 . S
C439 N442 1.384 . S
C440 H431 0.929 . S
C440 C432 1.378 . S
C440 C435 1.350 . S
C441 H428 0.929 . S
C441 C433 1.433 . S
C441 N443 1.384 . S
N442 C438 1.427 . S
N442 C439 1.384 . S
N443 C435 1.427 . S
N443 C441 1.384 . S
H444 C450 0.930 . S
H445 C454 0.930 . S
H446 C459 0.929 . S
H447 C457 0.929 . S
H448 C452 0.929 . S
H449 C458 0.929 . S
C450 H444 0.930 . S
C450 C451 1.367 . S
C450 C458 1.378 . S
C451 C450 1.367 . S
C451 C459 1.433 . S
C452 H448 0.929 . S
C452 C454 1.378 . S
C452 C456 1.350 . S
C453 C456 1.463 . S
C453 C458 1.350 . S
C453 N461 1.427 . S
C454 H445 0.930 . S
C454 C452 1.378 . S
C454 C455 1.367 . S
C455 C454 1.367 . S
C455 C457 1.433 . S
C456 C452 1.350 . S
C456 C453 1.463 . S
C456 N460 1.427 . S
C457 H447 0.929 . S
C457 C455 1.433 . S
C457 N460 1.384 . S
C458 H449 0.929 . S
C458 C450 1.378 . S
C458 C453 1.350 . S
C459 H446 0.929 . S
C459 C451 1.433 . S
C459 N461 1.384 . S
N460 C456 1.427 . S
N460 C457 1.384 . S
N461 C453 1.427 . S
N461 C459 1.384 . S
H462 C468 0.930 . S
H463 C472 0.930 . S
H464 C477 0.929 . S
H465 C475 0.929 . S
H466 C470 0.929 . S
H467 C476 0.929 . S
C468 H462 0.930 . S
C468 C469 1.367 . S
C468 C476 1.378 . S
C469 C468 1.367 . S
C469 C477 1.433 . S
C470 H466 0.929 . S
C470 C472 1.378 . S
C470 C474 1.350 . S
C471 C474 1.463 . S
C471 C476 1.350 . S
C471 N479 1.427 . S
C472 H463 0.930 . S
C472 C470 1.378 . S
C472 C473 1.367 . S
C473 C472 1.367 . S
C473 C475 1.433 . S
C474 C470 1.350 . S
C474 C471 1.463 . S
C474 N478 1.427 . S
C475 H465 0.929 . S
C475 C473 1.433 . S
C475 N478 1.384 . S
C476 H467 0.929 . S
C476 C468 1.378 . S
C476 C471 1.350 . S
C477 H464 0.929 . S
C477 C469 1.433 . S
C477 N479 1.384 . S
N478 C474 1.427 . S
N478 C475 1.384 . S
N479 C471 1.427 . S
N479 C477 1.384 . S
H480 C486 0.930 1_545 S
H481 C490 0.930 . S
H482 C495 0.929 . S
H483 C493 0.929 . S
H484 C488 0.929 . S
H485 C494 0.929 1_545 S
C486 H480 0.930 1_565 S
C486 C487 1.367 . S
C486 C494 1.378 . S
C487 C486 1.367 . S
C487 C495 1.433 . S
C488 H484 0.929 . S
C488 C490 1.378 . S
C488 C492 1.350 . S
C489 C492 1.463 . S
C489 C494 1.350 . S
C489 N497 1.427 . S
C490 H481 0.930 . S
C490 C488 1.378 . S
C490 C491 1.367 . S
C491 C490 1.367 . S
C491 C493 1.433 1_565 S
C492 C488 1.350 . S
C492 C489 1.463 . S
C492 N496 1.425 1_565 S
C493 H483 0.929 . S
C493 C491 1.433 1_545 S
C493 N496 1.384 . S
C494 H485 0.929 1_565 S
C494 C486 1.378 . S
C494 C489 1.350 . S
C495 H482 0.929 . S
C495 C487 1.433 . S
C495 N497 1.384 . S
N496 C492 1.425 1_545 S
N496 C493 1.384 . S
N497 C489 1.427 . S
N497 C495 1.384 . S
C293 C256 1.359 . S
C289 C211 1.546 . S
C307 C31 1.452 . S
C311 C277 1.348 . S
C325 C91 1.639 . S
C329 C253 1.483 . S
C343 C151 1.667 . S
C347 C274 1.475 . S
C365 C258 1.649 . S
C361 C20 1.596 . S
C383 C278 1.580 . S
C379 C61 1.532 . S
C397 C121 1.577 . S
C401 C254 1.522 . S
C415 C200 1.631 . S
C419 C276 1.562 . S
C437 C275 1.514 . S
C433 C80 1.533 . S
C455 C257 1.582 . S
C451 C140 1.626 . S
C473 C279 1.643 . S
C469 C181 1.622 . S
C487 C1 1.562 . S
C491 C255 1.567 . S
