# Generated by pormake.
# Topology ptr, (4,4)-cn, num edge types: 1
# Building blocks:
#     Node 0, Type 0, BuildingBlock: KUFVIS_clean_sbu_0, # of connection points: 4
#     Node 1, Type 0, BuildingBlock: KUFVIS_clean_sbu_0, # of connection points: 4
#     Node 2, Type 0, BuildingBlock: KUFVIS_clean_sbu_0, # of connection points: 4
#     Node 3, Type 0, BuildingBlock: KUFVIS_clean_sbu_0, # of connection points: 4
#     Node 4, Type 0, BuildingBlock: KUFVIS_clean_sbu_0, # of connection points: 4
#     Node 5, Type 0, BuildingBlock: KUFVIS_clean_sbu_0, # of connection points: 4
#     Node 6, Type 0, BuildingBlock: KUFVIS_clean_sbu_0, # of connection points: 4
#     Node 7, Type 0, BuildingBlock: KUFVIS_clean_sbu_0, # of connection points: 4
#     Node 8, Type 0, BuildingBlock: KUFVIS_clean_sbu_0, # of connection points: 4
#     Node 9, Type 0, BuildingBlock: KUFVIS_clean_sbu_0, # of connection points: 4
#     Node 10, Type 0, BuildingBlock: KUFVIS_clean_sbu_0, # of connection points: 4
#     Node 11, Type 0, BuildingBlock: KUFVIS_clean_sbu_0, # of connection points: 4
#     Node 12, Type 0, BuildingBlock: KUFVIS_clean_sbu_0, # of connection points: 4
#     Node 13, Type 0, BuildingBlock: KUFVIS_clean_sbu_0, # of connection points: 4
#     Node 14, Type 0, BuildingBlock: KUFVIS_clean_sbu_0, # of connection points: 4
#     Node 15, Type 0, BuildingBlock: KUFVIS_clean_sbu_0, # of connection points: 4
#     Node 16, Type 0, BuildingBlock: KUFVIS_clean_sbu_0, # of connection points: 4
#     Node 17, Type 0, BuildingBlock: KUFVIS_clean_sbu_0, # of connection points: 4
#     Node 18, Type 1, BuildingBlock: AZAVOO_clean_linker_0, # of connection points: 4
#     Node 19, Type 1, BuildingBlock: AZAVOO_clean_linker_0, # of connection points: 4
#     Node 20, Type 1, BuildingBlock: AZAVOO_clean_linker_0, # of connection points: 4
#     Node 21, Type 1, BuildingBlock: AZAVOO_clean_linker_0, # of connection points: 4
#     Node 22, Type 1, BuildingBlock: AZAVOO_clean_linker_0, # of connection points: 4
#     Node 23, Type 1, BuildingBlock: AZAVOO_clean_linker_0, # of connection points: 4
#     Node 24, Type 1, BuildingBlock: AZAVOO_clean_linker_0, # of connection points: 4
#     Node 25, Type 1, BuildingBlock: AZAVOO_clean_linker_0, # of connection points: 4
#     Node 26, Type 1, BuildingBlock: AZAVOO_clean_linker_0, # of connection points: 4
#     Node 27, Type 1, BuildingBlock: AZAVOO_clean_linker_0, # of connection points: 4
#     Node 28, Type 1, BuildingBlock: AZAVOO_clean_linker_0, # of connection points: 4
#     Node 29, Type 1, BuildingBlock: AZAVOO_clean_linker_0, # of connection points: 4
#     Node 30, Type 1, BuildingBlock: AZAVOO_clean_linker_0, # of connection points: 4
#     Node 31, Type 1, BuildingBlock: AZAVOO_clean_linker_0, # of connection points: 4
#     Node 32, Type 1, BuildingBlock: AZAVOO_clean_linker_0, # of connection points: 4
#     Node 33, Type 1, BuildingBlock: AZAVOO_clean_linker_0, # of connection points: 4
#     Node 34, Type 1, BuildingBlock: AZAVOO_clean_linker_0, # of connection points: 4
#     Node 35, Type 1, BuildingBlock: AZAVOO_clean_linker_0, # of connection points: 4
#     Edge 36, Type (0, 1), BuildingBlock: AJUNOK_clean_linker_0, # of connection points: 2
#     Edge 37, Type (0, 1), BuildingBlock: AJUNOK_clean_linker_0, # of connection points: 2
#     Edge 38, Type (0, 1), BuildingBlock: AJUNOK_clean_linker_0, # of connection points: 2
#     Edge 39, Type (0, 1), BuildingBlock: AJUNOK_clean_linker_0, # of connection points: 2
#     Edge 40, Type (0, 1), BuildingBlock: AJUNOK_clean_linker_0, # of connection points: 2
#     Edge 41, Type (0, 1), BuildingBlock: AJUNOK_clean_linker_0, # of connection points: 2
#     Edge 42, Type (0, 1), BuildingBlock: AJUNOK_clean_linker_0, # of connection points: 2
#     Edge 43, Type (0, 1), BuildingBlock: AJUNOK_clean_linker_0, # of connection points: 2
#     Edge 44, Type (0, 1), BuildingBlock: AJUNOK_clean_linker_0, # of connection points: 2
#     Edge 45, Type (0, 1), BuildingBlock: AJUNOK_clean_linker_0, # of connection points: 2
#     Edge 46, Type (0, 1), BuildingBlock: AJUNOK_clean_linker_0, # of connection points: 2
#     Edge 47, Type (0, 1), BuildingBlock: AJUNOK_clean_linker_0, # of connection points: 2
#     Edge 48, Type (0, 1), BuildingBlock: AJUNOK_clean_linker_0, # of connection points: 2
#     Edge 49, Type (0, 1), BuildingBlock: AJUNOK_clean_linker_0, # of connection points: 2
#     Edge 50, Type (0, 1), BuildingBlock: AJUNOK_clean_linker_0, # of connection points: 2
#     Edge 51, Type (0, 1), BuildingBlock: AJUNOK_clean_linker_0, # of connection points: 2
#     Edge 52, Type (0, 1), BuildingBlock: AJUNOK_clean_linker_0, # of connection points: 2
#     Edge 53, Type (0, 1), BuildingBlock: AJUNOK_clean_linker_0, # of connection points: 2
#     Edge 54, Type (0, 1), BuildingBlock: AJUNOK_clean_linker_0, # of connection points: 2
#     Edge 55, Type (0, 1), BuildingBlock: AJUNOK_clean_linker_0, # of connection points: 2
#     Edge 56, Type (0, 1), BuildingBlock: AJUNOK_clean_linker_0, # of connection points: 2
#     Edge 57, Type (0, 1), BuildingBlock: AJUNOK_clean_linker_0, # of connection points: 2
#     Edge 58, Type (0, 1), BuildingBlock: AJUNOK_clean_linker_0, # of connection points: 2
#     Edge 59, Type (0, 1), BuildingBlock: AJUNOK_clean_linker_0, # of connection points: 2
#     Edge 60, Type (0, 1), BuildingBlock: AJUNOK_clean_linker_0, # of connection points: 2
#     Edge 61, Type (0, 1), BuildingBlock: AJUNOK_clean_linker_0, # of connection points: 2
#     Edge 62, Type (0, 1), BuildingBlock: AJUNOK_clean_linker_0, # of connection points: 2
#     Edge 63, Type (0, 1), BuildingBlock: AJUNOK_clean_linker_0, # of connection points: 2
#     Edge 64, Type (0, 1), BuildingBlock: AJUNOK_clean_linker_0, # of connection points: 2
#     Edge 65, Type (0, 1), BuildingBlock: AJUNOK_clean_linker_0, # of connection points: 2
#     Edge 66, Type (0, 1), BuildingBlock: AJUNOK_clean_linker_0, # of connection points: 2
#     Edge 67, Type (0, 1), BuildingBlock: AJUNOK_clean_linker_0, # of connection points: 2
#     Edge 68, Type (0, 1), BuildingBlock: AJUNOK_clean_linker_0, # of connection points: 2
#     Edge 69, Type (0, 1), BuildingBlock: AJUNOK_clean_linker_0, # of connection points: 2
#     Edge 70, Type (0, 1), BuildingBlock: AJUNOK_clean_linker_0, # of connection points: 2
#     Edge 71, Type (0, 1), BuildingBlock: AJUNOK_clean_linker_0, # of connection points: 2
#     Edge 72, Type (0, 1), BuildingBlock: AJUNOK_clean_linker_0, # of connection points: 2
#     Edge 73, Type (0, 1), BuildingBlock: AJUNOK_clean_linker_0, # of connection points: 2
#     Edge 74, Type (0, 1), BuildingBlock: AJUNOK_clean_linker_0, # of connection points: 2
#     Edge 75, Type (0, 1), BuildingBlock: AJUNOK_clean_linker_0, # of connection points: 2
#     Edge 76, Type (0, 1), BuildingBlock: AJUNOK_clean_linker_0, # of connection points: 2
#     Edge 77, Type (0, 1), BuildingBlock: AJUNOK_clean_linker_0, # of connection points: 2
#     Edge 78, Type (0, 1), BuildingBlock: AJUNOK_clean_linker_0, # of connection points: 2
#     Edge 79, Type (0, 1), BuildingBlock: AJUNOK_clean_linker_0, # of connection points: 2
#     Edge 80, Type (0, 1), BuildingBlock: AJUNOK_clean_linker_0, # of connection points: 2
#     Edge 81, Type (0, 1), BuildingBlock: AJUNOK_clean_linker_0, # of connection points: 2
#     Edge 82, Type (0, 1), BuildingBlock: AJUNOK_clean_linker_0, # of connection points: 2
#     Edge 83, Type (0, 1), BuildingBlock: AJUNOK_clean_linker_0, # of connection points: 2
#     Edge 84, Type (0, 1), BuildingBlock: AJUNOK_clean_linker_0, # of connection points: 2
#     Edge 85, Type (0, 1), BuildingBlock: AJUNOK_clean_linker_0, # of connection points: 2
#     Edge 86, Type (0, 1), BuildingBlock: AJUNOK_clean_linker_0, # of connection points: 2
#     Edge 87, Type (0, 1), BuildingBlock: AJUNOK_clean_linker_0, # of connection points: 2
#     Edge 88, Type (0, 1), BuildingBlock: AJUNOK_clean_linker_0, # of connection points: 2
#     Edge 89, Type (0, 1), BuildingBlock: AJUNOK_clean_linker_0, # of connection points: 2
#     Edge 90, Type (0, 1), BuildingBlock: AJUNOK_clean_linker_0, # of connection points: 2
#     Edge 91, Type (0, 1), BuildingBlock: AJUNOK_clean_linker_0, # of connection points: 2
#     Edge 92, Type (0, 1), BuildingBlock: AJUNOK_clean_linker_0, # of connection points: 2
#     Edge 93, Type (0, 1), BuildingBlock: AJUNOK_clean_linker_0, # of connection points: 2
#     Edge 94, Type (0, 1), BuildingBlock: AJUNOK_clean_linker_0, # of connection points: 2
#     Edge 95, Type (0, 1), BuildingBlock: AJUNOK_clean_linker_0, # of connection points: 2
#     Edge 96, Type (0, 1), BuildingBlock: AJUNOK_clean_linker_0, # of connection points: 2
#     Edge 97, Type (0, 1), BuildingBlock: AJUNOK_clean_linker_0, # of connection points: 2
#     Edge 98, Type (0, 1), BuildingBlock: AJUNOK_clean_linker_0, # of connection points: 2
#     Edge 99, Type (0, 1), BuildingBlock: AJUNOK_clean_linker_0, # of connection points: 2
#     Edge 100, Type (0, 1), BuildingBlock: AJUNOK_clean_linker_0, # of connection points: 2
#     Edge 101, Type (0, 1), BuildingBlock: AJUNOK_clean_linker_0, # of connection points: 2
#     Edge 102, Type (0, 1), BuildingBlock: AJUNOK_clean_linker_0, # of connection points: 2
#     Edge 103, Type (0, 1), BuildingBlock: AJUNOK_clean_linker_0, # of connection points: 2
#     Edge 104, Type (0, 1), BuildingBlock: AJUNOK_clean_linker_0, # of connection points: 2
#     Edge 105, Type (0, 1), BuildingBlock: AJUNOK_clean_linker_0, # of connection points: 2
#     Edge 106, Type (0, 1), BuildingBlock: AJUNOK_clean_linker_0, # of connection points: 2
#     Edge 107, Type (0, 1), BuildingBlock: AJUNOK_clean_linker_0, # of connection points: 2
# Relax obj value: 0.061
# Max RMSD: 0.202
# Mean RMSD: 0.130
data_MOF--net-ptr--node1-KUFVIS_clean_sbu_0--node2-AZAVOO_clean_linker_0--edge1-AJUNOK_clean_linker_0
_symmetry_space_group_name_H-M    P1
_symmetry_Int_Tables_number       1
_symmetry_cell_setting            triclinic
loop_
_symmetry_equiv_pos_as_xyz
'x, y, z'
_cell_length_a     63.948551
_cell_length_b     62.478313
_cell_length_c     53.669167
_cell_angle_alpha  92.629126
_cell_angle_beta   93.32945
_cell_angle_gamma 119.46611
loop_
_atom_site_label
_atom_site_type_symbol
_atom_site_fract_x
_atom_site_fract_y
_atom_site_fract_z
_atom_type_partial_charge
Mn0 Mn 0.00666 0.37492 0.01933 0.0
Mn1 Mn 0.05898 0.42884 0.0221 0.0
C2 C 0.01163 0.40314 0.9911 0.0
C3 C 0.98245 0.33375 0.00434 0.0
C4 C 0.02008 0.42017 0.056 0.0
O5 O 0.02903 0.36786 0.04126 0.0
O6 O 0.06228 0.40542 0.04384 0.0
C7 C 0.08637 0.40895 0.99648 0.0
N8 N 0.07798 0.42519 0.99783 0.0
C9 C 0.0966 0.44327 0.96085 0.0
C10 C 0.10555 0.42684 0.95915 0.0
C11 C 0.10036 0.40956 0.97701 0.0
C12 C 0.0827 0.44174 0.98062 0.0
H13 H 0.08239 0.39561 0.01014 0.0
C14 C 0.0506 0.38318 0.04985 0.0
O15 O 0.97834 0.34249 0.02477 0.0
O16 O 0.00127 0.3486 0.99354 0.0
N17 N 0.05894 0.45349 0.0022 0.0
C18 C 0.04913 0.4682 0.00661 0.0
C19 C 0.05251 0.48638 0.99031 0.0
C20 C 0.06617 0.48945 0.96985 0.0
C21 C 0.07663 0.47455 0.96608 0.0
C22 C 0.07277 0.45685 0.98304 0.0
H23 H 0.03844 0.46577 0.02216 0.0
O24 O 0.9902 0.38652 0.99566 0.0
O25 O 0.02973 0.40264 0.00297 0.0
O26 O 0.00611 0.39748 0.04821 0.0
O27 O 0.04003 0.43391 0.04696 0.0
C28 C 0.09067 0.47651 0.94612 0.0
C29 C 0.10063 0.46087 0.94348 0.0
H30 H 0.11631 0.42722 0.94413 0.0
H31 H 0.10711 0.39674 0.97577 0.0
H32 H 0.04445 0.49786 0.99342 0.0
H33 H 0.06854 0.50333 0.95718 0.0
H34 H 0.09387 0.48994 0.93263 0.0
H35 H 0.11125 0.46243 0.92796 0.0
Mn36 Mn 0.62578 0.61676 0.07027 0.0
Mn37 Mn 0.62713 0.5636 0.07124 0.0
C38 C 0.60353 0.58867 0.09781 0.0
C39 C 0.64298 0.65864 0.08263 0.0
C40 C 0.5989 0.57373 0.03059 0.0
O41 O 0.65413 0.62265 0.05066 0.0
O42 O 0.65686 0.58866 0.0569 0.0
C43 C 0.66859 0.57929 0.10907 0.0
N44 N 0.64489 0.56391 0.10125 0.0
C45 C 0.63886 0.54175 0.13809 0.0
C46 C 0.66326 0.55724 0.14647 0.0
C47 C 0.67817 0.57612 0.13192 0.0
C48 C 0.63036 0.54572 0.11512 0.0
H49 H 0.68005 0.59389 0.09797 0.0
C50 C 0.66443 0.60974 0.04807 0.0
O51 O 0.62911 0.64882 0.06194 0.0
O52 O 0.64721 0.64412 0.09597 0.0
N53 N 0.5996 0.53777 0.08447 0.0
C54 C 0.57629 0.52509 0.07419 0.0
C55 C 0.55888 0.50599 0.08673 0.0
C56 C 0.56565 0.49992 0.10955 0.0
C57 C 0.58983 0.51295 0.11954 0.0
C58 C 0.60641 0.53175 0.10614 0.0
H59 H 0.57095 0.52968 0.05667 0.0
O60 O 0.5988 0.60587 0.09202 0.0
O61 O 0.62186 0.58901 0.08794 0.0
O62 O 0.60254 0.59424 0.04077 0.0
O63 O 0.608 0.56132 0.03984 0.0
C64 C 0.59808 0.50834 0.14249 0.0
C65 C 0.62255 0.52276 0.15179 0.0
H66 H 0.6707 0.55493 0.16414 0.0
H67 H 0.69699 0.58823 0.13833 0.0
H68 H 0.54027 0.49613 0.07891 0.0
H69 H 0.55211 0.48534 0.1193 0.0
H70 H 0.58569 0.49392 0.15328 0.0
H71 H 0.62861 0.51924 0.16962 0.0
Mn72 Mn 0.37943 0.99465 0.0357 0.0
Mn73 Mn 0.43076 0.04922 0.04506 0.0
C74 C 0.41087 0.99895 0.06296 0.0
C75 C 0.34087 0.97076 0.04954 0.0
C76 C 0.41733 0.01407 0.99788 0.0
O77 O 0.37004 0.0185 0.02134 0.0
O78 O 0.40396 0.05478 0.03251 0.0
C79 C 0.41849 0.0723 0.08692 0.0
N80 N 0.43309 0.06432 0.07767 0.0
C81 C 0.45843 0.07744 0.11653 0.0
C82 C 0.44385 0.08608 0.12636 0.0
C83 C 0.42375 0.08343 0.11151 0.0
C84 C 0.45243 0.06672 0.09182 0.0
H85 H 0.4029 0.07008 0.07567 0.0
C86 C 0.38201 0.04201 0.02294 0.0
O87 O 0.34552 0.96588 0.02733 0.0
O88 O 0.35831 0.98932 0.06285 0.0
N89 N 0.45784 0.04628 0.0576 0.0
C90 C 0.46933 0.0358 0.04581 0.0
C91 C 0.48948 0.03631 0.05835 0.0
C92 C 0.49754 0.04745 0.08292 0.0
C93 C 0.48537 0.05801 0.09472 0.0
C94 C 0.46558 0.05723 0.08117 0.0
H95 H 0.46299 0.02682 0.02712 0.0
O96 O 0.39412 0.97719 0.05385 0.0
O97 O 0.40846 0.01721 0.05578 0.0
O98 O 0.39772 0.99622 0.00447 0.0
O99 O 0.42996 0.03444 0.01145 0.0
C100 C 0.49185 0.0689 0.11954 0.0
C101 C 0.47839 0.0786 0.13044 0.0
H102 H 0.44772 0.09447 0.14539 0.0
H103 H 0.41226 0.08982 0.11905 0.0
H104 H 0.49864 0.02791 0.04919 0.0
H105 H 0.51291 0.04753 0.09265 0.0
H106 H 0.507 0.06965 0.13052 0.0
H107 H 0.48338 0.08666 0.14964 0.0
Mn108 Mn 0.99392 0.62859 0.03963 0.0
Mn109 Mn 0.04629 0.62772 0.04512 0.0
C110 C 0.99872 0.60053 0.01453 0.0
C111 C 0.97086 0.64451 0.02171 0.0
C112 C 0.0088 0.60741 0.08262 0.0
O113 O 0.01728 0.66145 0.05935 0.0
O114 O 0.05206 0.66069 0.05766 0.0
C115 C 0.0728 0.66318 0.00841 0.0
N116 N 0.06375 0.64024 0.01661 0.0
C117 C 0.07971 0.62717 0.98337 0.0
C118 C 0.08932 0.6507 0.97463 0.0
C119 C 0.08578 0.66875 0.98717 0.0
C120 C 0.06696 0.6227 0.00464 0.0
H121 H 0.07009 0.67708 0.018 0.0
C122 C 0.04017 0.67147 0.06359 0.0
O123 O 0.96624 0.63458 0.0429 0.0
O124 O 0.98923 0.64575 0.01143 0.0
N125 N 0.04312 0.59676 0.03345 0.0
C126 C 0.03152 0.5746 0.04344 0.0
C127 C 0.0326 0.55432 0.03259 0.0
C128 C 0.04575 0.55708 0.01174 0.0
C129 C 0.05776 0.58013 0.00198 0.0
C130 C 0.05611 0.59969 0.01362 0.0
H131 H 0.02142 0.57239 0.05949 0.0
O132 O 0.97727 0.59673 0.01793 0.0
O133 O 0.01655 0.62073 0.02561 0.0
O134 O 0.99257 0.6102 0.07071 0.0
O135 O 0.02954 0.61409 0.07509 0.0
C136 C 0.07106 0.58438 0.98095 0.0
C137 C 0.08193 0.60785 0.97158 0.0
H138 H 0.09927 0.65504 0.9582 0.0
H139 H 0.09305 0.68691 0.98046 0.0
H140 H 0.02327 0.53659 0.04023 0.0
H141 H 0.0464 0.54135 0.00331 0.0
H142 H 0.07273 0.56962 0.97162 0.0
H143 H 0.09174 0.61076 0.95512 0.0
Mn144 Mn 0.37549 0.38671 0.02627 0.0
Mn145 Mn 0.42536 0.38112 0.02727 0.0
C146 C 0.40794 0.4106 0.05525 0.0
C147 C 0.33773 0.37337 0.04181 0.0
C148 C 0.41409 0.40945 0.98911 0.0
O149 O 0.36365 0.35423 0.0056 0.0
O150 O 0.39772 0.35163 0.00833 0.0
C151 C 0.40933 0.33899 0.0586 0.0
N152 N 0.42557 0.36266 0.05461 0.0
C153 C 0.44961 0.36749 0.09288 0.0
C154 C 0.43322 0.34311 0.0973 0.0
C155 C 0.41298 0.32882 0.0801 0.0
C156 C 0.44513 0.37657 0.07102 0.0
H157 H 0.39368 0.32799 0.04551 0.0
C158 C 0.37546 0.34325 1.00087 0.0
O159 O 0.34282 0.38443 0.02121 0.0
O160 O 0.35406 0.36948 0.05233 0.0
N161 N 0.45338 0.40824 0.04524 0.0
C162 C 0.4665 0.43195 0.0392 0.0
C163 C 0.48701 0.44888 0.05488 0.0
C164 C 0.49377 0.44128 0.07665 0.0
C165 C 0.48003 0.41679 0.08248 0.0
C166 C 0.45995 0.40066 0.06598 0.0
H167 H 0.46106 0.43806 0.02284 0.0
O168 O 0.39218 0.41735 0.04959 0.0
O169 O 0.40413 0.39007 0.04382 0.0
O170 O 0.39407 0.40588 0.99686 0.0
O171 O 0.42661 0.40077 0.99923 0.0
C172 C 0.48515 0.40791 0.10434 0.0
C173 C 0.46992 0.3833 0.10956 0.0
H174 H 0.43587 0.33526 0.11396 0.0
H175 H 0.40017 0.31004 0.08345 0.0
H176 H 0.49739 0.46782 0.05038 0.0
H177 H 0.50935 0.45444 0.08895 0.0
H178 H 0.50053 0.41998 0.11747 0.0
H179 H 0.47383 0.3768 0.12663 0.0
Mn180 Mn 0.62575 0.01497 0.04687 0.0
Mn181 Mn 0.57379 0.96086 0.04015 0.0
C182 C 0.59404 0.01016 0.01966 0.0
C183 C 0.66451 0.03828 0.03424 0.0
C184 C 0.59004 0.99745 0.08623 0.0
O185 O 0.63461 0.99092 0.06206 0.0
O186 O 0.60051 0.95479 0.05112 0.0
C187 C 0.58249 0.93539 0.99754 0.0
N188 N 0.56923 0.94469 0.00758 0.0
C189 C 0.54195 0.93133 0.97011 0.0
C190 C 0.55523 0.9215 0.95942 0.0
C191 C 0.57561 0.92357 0.97319 0.0
C192 C 0.54958 0.94277 0.99451 0.0
H193 H 0.5982 0.93702 0.00804 0.0
C194 C 0.62255 0.96737 0.06043 0.0
O195 O 0.65919 0.04327 0.05598 0.0
O196 O 0.6474 0.01986 0.0202 0.0
N197 N 0.5468 0.96461 0.02926 0.0
C198 C 0.53637 0.9757 0.04201 0.0
C199 C 0.51601 0.97568 0.03066 0.0
C200 C 0.50655 0.9642 0.00638 0.0
C201 C 0.51751 0.95279 0.99369 0.0
C202 C 0.53766 0.95325 0.00602 0.0
H203 H 0.54357 0.98456 0.06067 0.0
O204 O 0.61119 0.03211 0.02779 0.0
O205 O 0.59625 0.99208 0.02774 0.0
O206 O 0.60835 0.01517 0.07783 0.0
O207 O 0.57677 0.97637 0.07413 0.0
C208 C 0.50944 0.94127 0.96916 0.0
C209 C 0.52164 0.93053 0.9574 0.0
H210 H 0.55009 0.91253 0.94057 0.0
H211 H 0.58603 0.91615 0.96501 0.0
H212 H 0.50768 0.98457 0.04056 0.0
H213 H 0.49097 0.96441 0.99761 0.0
H214 H 0.494 0.94076 0.95909 0.0
H215 H 0.51536 0.92187 0.93848 0.0
Mn216 Mn 0.66674 0.70863 0.35726 0.0
Mn217 Mn 0.71953 0.76238 0.36048 0.0
C218 C 0.67311 0.73597 0.32742 0.0
C219 C 0.64304 0.66675 0.34458 0.0
C220 C 0.67957 0.7539 0.39291 0.0
O221 O 0.68845 0.70261 0.38162 0.0
O222 O 0.72309 0.73881 0.38159 0.0
C223 C 0.74769 0.74384 0.33433 0.0
N224 N 0.73898 0.75977 0.33616 0.0
C225 C 0.75866 0.7798 0.30039 0.0
C226 C 0.76798 0.7637 0.29819 0.0
C227 C 0.7624 0.74559 0.31519 0.0
C228 C 0.74406 0.77712 0.31979 0.0
H229 H 0.74345 0.72992 0.34739 0.0
C230 C 0.71059 0.71719 0.38892 0.0
O231 O 0.63827 0.67687 0.36345 0.0
O232 O 0.66209 0.68089 0.33358 0.0
N233 N 0.71899 0.78713 0.34117 0.0
C234 C 0.70805 0.80078 0.3455 0.0
C235 C 0.71134 0.81937 0.3298 0.0
C236 C 0.72622 0.82405 0.31014 0.0
C237 C 0.73771 0.81012 0.30641 0.0
C238 C 0.73367 0.79178 0.3226 0.0
H239 H 0.69671 0.79735 0.36067 0.0
O240 O 0.65139 0.71931 0.33114 0.0
O241 O 0.69064 0.73585 0.34092 0.0
O242 O 0.66469 0.73191 0.38391 0.0
O243 O 0.70059 0.76687 0.38575 0.0
C244 C 0.75285 0.81356 0.28714 0.0
C245 C 0.76318 0.7983 0.28402 0.0
H246 H 0.77934 0.765 0.28347 0.0
H247 H 0.76945 0.73304 0.31356 0.0
H248 H 0.70239 0.83001 0.33281 0.0
H249 H 0.72863 0.83833 0.298 0.0
H250 H 0.75655 0.82778 0.27451 0.0
H251 H 0.77453 0.80092 0.26893 0.0
Mn252 Mn 0.29826 0.9548 0.40358 0.0
Mn253 Mn 0.29227 0.89802 0.40235 0.0
C254 C 0.27282 0.92664 0.42941 0.0
C255 C 0.31805 0.99633 0.41818 0.0
C256 C 0.26833 0.91356 0.3622 0.0
O257 O 0.32697 0.95881 0.38569 0.0
O258 O 0.32281 0.92102 0.38787 0.0
C259 C 0.33337 0.90894 0.43904 0.0
N260 N 0.30934 0.89572 0.4316 0.0
C261 C 0.30182 0.87153 0.46704 0.0
C262 C 0.32655 0.88467 0.47492 0.0
C263 C 0.34237 0.90355 0.46092 0.0
C264 C 0.29391 0.87773 0.44509 0.0
H265 H 0.34556 0.92352 0.42838 0.0
C266 C 0.33408 0.94325 0.3816 0.0
O267 O 0.30539 0.98855 0.39662 0.0
O268 O 0.31968 0.98002 0.43104 0.0
N269 N 0.26375 0.87388 0.41576 0.0
C270 C 0.24035 0.86332 0.4059 0.0
C271 C 0.22212 0.84466 0.41815 0.0
C272 C 0.22814 0.83683 0.4402 0.0
C273 C 0.25238 0.84765 0.44972 0.0
C274 C 0.26977 0.86615 0.4367 0.0
H275 H 0.23562 0.8692 0.38891 0.0
O276 O 0.27022 0.94521 0.42374 0.0
O277 O 0.29053 0.92528 0.42006 0.0
O278 O 0.27576 0.93518 0.37241 0.0
O279 O 0.27365 0.89827 0.37172 0.0
C280 C 0.25997 0.84086 0.47167 0.0
C281 C 0.28466 0.85283 0.48036 0.0
H282 H 0.33355 0.88063 0.49183 0.0
H283 H 0.36145 0.91393 0.46699 0.0
H284 H 0.20346 0.83636 0.41063 0.0
H285 H 0.21401 0.82252 0.44965 0.0
H286 H 0.24696 0.82653 0.48207 0.0
H287 H 0.29024 0.84764 0.49741 0.0
Mn288 Mn 0.04495 0.32658 0.36621 0.0
Mn289 Mn 0.0977 0.38 0.37614 0.0
C290 C 0.07555 0.32954 0.39382 0.0
C291 C 0.00565 0.30316 0.37826 0.0
C292 C 0.08402 0.34472 0.32928 0.0
O293 O 0.03681 0.35148 0.35232 0.0
O294 O 0.07211 0.38674 0.36219 0.0
C295 C 0.08523 0.40411 0.41683 0.0
N296 N 0.09971 0.39564 0.40832 0.0
C297 C 0.12418 0.40856 0.44774 0.0
C298 C 0.10964 0.4176 0.45686 0.0
C299 C 0.09006 0.41531 0.44135 0.0
C300 C 0.11859 0.39772 0.42309 0.0
H301 H 0.07007 0.40225 0.40502 0.0
C302 C 0.04989 0.37489 0.35337 0.0
O303 O 0.01107 0.29866 0.35634 0.0
O304 O 0.02289 0.32101 0.39264 0.0
N305 N 0.12385 0.37609 0.38987 0.0
C306 C 0.13497 0.36475 0.37893 0.0
C307 C 0.15459 0.36481 0.39219 0.0
C308 C 0.16244 0.37633 0.41663 0.0
C309 C 0.15067 0.38779 0.42755 0.0
C310 C 0.13146 0.38749 0.41327 0.0
H311 H 0.12865 0.35533 0.36043 0.0
O312 O 0.05846 0.30808 0.38432 0.0
O313 O 0.07403 0.34838 0.38685 0.0
O314 O 0.06359 0.32782 0.33531 0.0
O315 O 0.09733 0.36477 0.34306 0.0
C316 C 0.15692 0.39905 0.45221 0.0
C317 C 0.14367 0.4094 0.46232 0.0
H318 H 0.1132 0.4261 0.47581 0.0
H319 H 0.07866 0.4221 0.4483 0.0
H320 H 0.16343 0.35572 0.38372 0.0
H321 H 0.17731 0.37597 0.42696 0.0
H322 H 0.17164 0.3995 0.46372 0.0
H323 H 0.1484 0.41764 0.48145 0.0
Mn324 Mn 0.66898 0.96273 0.37154 0.0
Mn325 Mn 0.72161 0.96246 0.37839 0.0
C326 C 0.67412 0.93377 0.34837 0.0
C327 C 0.64495 0.97662 0.35181 0.0
C328 C 0.68397 0.94261 0.41585 0.0
O329 O 0.69197 0.99655 0.38968 0.0
O330 O 0.7266 0.99527 0.39061 0.0
C331 C 0.74655 0.99757 0.34079 0.0
N332 N 0.7389 0.97512 0.34978 0.0
C333 C 0.7551 0.96242 0.31647 0.0
C334 C 0.76361 0.98561 0.30718 0.0
C335 C 0.7592 0.00321 0.31932 0.0
C336 C 0.74266 0.95789 0.33798 0.0
H337 H 0.74281 0.01096 0.3498 0.0
C338 C 0.71475 0.00645 0.39488 0.0
O339 O 0.64087 0.96815 0.37373 0.0
O340 O 0.66351 0.97788 0.34195 0.0
N341 N 0.71958 0.93189 0.36718 0.0
C342 C 0.70911 0.90999 0.37778 0.0
C343 C 0.7112 0.89015 0.36741 0.0
C344 C 0.72415 0.89306 0.34638 0.0
C345 C 0.73507 0.91586 0.33603 0.0
C346 C 0.73259 0.93505 0.34732 0.0
H347 H 0.69913 0.90763 0.39393 0.0
O348 O 0.6526 0.92982 0.35157 0.0
O349 O 0.69179 0.95455 0.35856 0.0
O350 O 0.66841 0.94638 0.40389 0.0
O351 O 0.70453 0.94843 0.40818 0.0
C352 C 0.7481 0.92022 0.31478 0.0
C353 C 0.75801 0.94345 0.30494 0.0
H354 H 0.77326 0.98998 0.29053 0.0
H355 H 0.76541 0.02102 0.31206 0.0
H356 H 0.70275 0.87261 0.37553 0.0
H357 H 0.72554 0.87765 0.33828 0.0
H358 H 0.75027 0.90571 0.30562 0.0
H359 H 0.76758 0.94642 0.2883 0.0
Mn360 Mn 0.03411 0.72001 0.3524 0.0
Mn361 Mn 0.08261 0.71205 0.3533 0.0
C362 C 0.06689 0.74318 0.3814 0.0
C363 C 0.99625 0.70752 0.36695 0.0
C364 C 0.07114 0.73933 0.31395 0.0
O365 O 0.02164 0.68736 0.33137 0.0
O366 O 0.05387 0.6817 0.33724 0.0
C367 C 0.0684 0.67286 0.38821 0.0
N368 N 0.08414 0.69602 0.38229 0.0
C369 C 0.10983 0.70389 0.42013 0.0
C370 C 0.09395 0.68006 0.42657 0.0
C371 C 0.07313 0.66451 0.41055 0.0
C372 C 0.10424 0.71114 0.39755 0.0
H373 H 0.05235 0.66089 0.37599 0.0
C374 C 0.03209 0.67457 0.32877 0.0
O375 O 0.00229 0.71917 0.34679 0.0
O376 O 0.0119 0.7029 0.37805 0.0
N377 N 0.11146 0.74014 0.36867 0.0
C378 C 0.12475 0.76269 0.35992 0.0
C379 C 0.14606 0.78055 0.37391 0.0
C380 C 0.15353 0.77501 0.39666 0.0
C381 C 0.1397 0.75159 0.40515 0.0
C382 C 0.11877 0.73445 0.39029 0.0
H383 H 0.11909 0.76707 0.34246 0.0
O384 O 0.05149 0.75048 0.37612 0.0
O385 O 0.0624 0.72253 0.3697 0.0
O386 O 0.05304 0.73898 0.3234 0.0
O387 O 0.08263 0.72918 0.32326 0.0
C388 C 0.14571 0.74466 0.42792 0.0
C389 C 0.13077 0.72084 0.43541 0.0
H390 H 0.09745 0.67361 0.44386 0.0
H391 H 0.06072 0.64614 0.41545 0.0
H392 H 0.15665 0.79858 0.36722 0.0
H393 H 0.16985 0.78889 0.40751 0.0
H394 H 0.16168 0.75759 0.4399 0.0
H395 H 0.13548 0.71581 0.45306 0.0
Mn396 Mn 0.29055 0.34736 0.38018 0.0
Mn397 Mn 0.23774 0.29376 0.37552 0.0
C398 C 0.25833 0.34225 0.35353 0.0
C399 C 0.32898 0.37045 0.36632 0.0
C400 C 0.25481 0.33195 0.42006 0.0
O401 O 0.2996 0.32346 0.3956 0.0
O402 O 0.26411 0.28781 0.3881 0.0
C403 C 0.24688 0.26697 0.33455 0.0
N404 N 0.23329 0.27625 0.34377 0.0
C405 C 0.20641 0.26181 0.30595 0.0
C406 C 0.22002 0.25196 0.29611 0.0
C407 C 0.24036 0.25459 0.31047 0.0
C408 C 0.2137 0.27385 0.33011 0.0
H409 H 0.26261 0.26911 0.34548 0.0
C410 C 0.28651 0.30013 0.39617 0.0
O411 O 0.32417 0.37579 0.38819 0.0
O412 O 0.31164 0.35163 0.35292 0.0
N413 N 0.21084 0.29716 0.36344 0.0
C414 C 0.2002 0.30852 0.37531 0.0
C415 C 0.1798 0.30796 0.36332 0.0
C416 C 0.17058 0.29576 0.33927 0.0
C417 C 0.18169 0.28396 0.32755 0.0
C418 C 0.20174 0.28483 0.34057 0.0
H419 H 0.20726 0.31802 0.39375 0.0
O420 O 0.27575 0.36424 0.36109 0.0
O421 O 0.26048 0.32421 0.36185 0.0
O422 O 0.27388 0.34857 0.41156 0.0
O423 O 0.24068 0.31082 0.40848 0.0
C424 C 0.17383 0.27165 0.30333 0.0
C425 C 0.18619 0.2606 0.29254 0.0
H426 H 0.21515 0.24253 0.27747 0.0
H427 H 0.25104 0.24716 0.30294 0.0
H428 H 0.17133 0.3171 0.37249 0.0
H429 H 0.15505 0.29566 0.32995 0.0
H430 H 0.15847 0.27082 0.29274 0.0
H431 H 0.18015 0.25145 0.27379 0.0
Mn432 Mn 0.33361 0.0373 0.6871 0.0
Mn433 Mn 0.38537 0.092 0.69032 0.0
C434 C 0.33857 0.06522 0.65828 0.0
C435 C 0.30974 0.99561 0.67357 0.0
C436 C 0.34591 0.08185 0.72406 0.0
O437 O 0.35638 0.03116 0.70967 0.0
O438 O 0.3897 0.06866 0.71118 0.0
C439 C 0.4141 0.07444 0.66373 0.0
N440 N 0.40486 0.08991 0.66571 0.0
C441 C 0.42367 0.10996 0.62957 0.0
C442 C 0.4335 0.09434 0.62722 0.0
C443 C 0.42861 0.07644 0.64432 0.0
C444 C 0.40922 0.10701 0.6492 0.0
H445 H 0.41041 0.06068 0.67685 0.0
C446 C 0.37824 0.04648 0.71746 0.0
O447 O 0.30573 0.00519 0.69341 0.0
O448 O 0.32827 0.01014 0.66207 0.0
N449 N 0.38421 0.11661 0.67123 0.0
C450 C 0.3736 0.13044 0.6763 0.0
C451 C 0.37652 0.14904 0.66077 0.0
C452 C 0.39063 0.1535 0.64047 0.0
C453 C 0.40195 0.13951 0.63608 0.0
C454 C 0.39842 0.12125 0.65222 0.0
H455 H 0.36285 0.12719 0.69196 0.0
O456 O 0.31713 0.04834 0.66258 0.0
O457 O 0.35663 0.06521 0.6708 0.0
O458 O 0.33209 0.05953 0.71535 0.0
O459 O 0.36617 0.0959 0.71575 0.0
C460 C 0.41662 0.14298 0.61636 0.0
C461 C 0.42739 0.12815 0.61304 0.0
H462 H 0.44471 0.09582 0.61228 0.0
H463 H 0.43605 0.06424 0.64257 0.0
H464 H 0.36786 0.15987 0.6644 0.0
H465 H 0.39273 0.16777 0.62845 0.0
H466 H 0.41971 0.15697 0.6036 0.0
H467 H 0.43847 0.13086 0.59767 0.0
Mn468 Mn 0.96087 0.28866 0.73619 0.0
Mn469 Mn 0.95285 0.23097 0.73397 0.0
C470 C 0.93539 0.26126 0.76255 0.0
C471 C 0.98205 0.33023 0.75076 0.0
C472 C 0.92837 0.24745 0.69549 0.0
O473 O 0.98862 0.29172 0.71754 0.0
O474 O 0.98284 0.25323 0.71793 0.0
C475 C 0.99521 0.24056 0.76796 0.0
N476 N 0.97096 0.22772 0.76162 0.0
C477 C 0.96481 0.20206 0.79563 0.0
C478 C 0.98975 0.21488 0.80242 0.0
C479 C 0.005 0.23425 0.78856 0.0
C480 C 0.95612 0.20899 0.77475 0.0
H481 H 0.00696 0.25547 0.75735 0.0
C482 C 0.99459 0.27557 0.712 0.0
O483 O 0.96896 0.32274 0.72944 0.0
O484 O 0.98334 0.3136 0.76336 0.0
N485 N 0.92494 0.20732 0.74861 0.0
C486 C 0.9012 0.19889 0.74143 0.0
C487 C 0.88346 0.18056 0.75443 0.0
C488 C 0.89028 0.17089 0.77444 0.0
C489 C 0.91482 0.17978 0.78141 0.0
C490 C 0.93171 0.19807 0.76777 0.0
H491 H 0.89589 0.20641 0.7262 0.0
O492 O 0.9338 0.28041 0.75689 0.0
O493 O 0.95248 0.25877 0.75283 0.0
O494 O 0.93734 0.26952 0.70524 0.0
O495 O 0.93309 0.23171 0.70479 0.0
C496 C 0.9232 0.17201 0.80204 0.0
C497 C 0.94817 0.18313 0.80914 0.0
H498 H 0.99735 0.21021 0.81843 0.0
H499 H 0.02425 0.24432 0.79378 0.0
H500 H 0.86457 0.17405 0.74917 0.0
H501 H 0.87656 0.15703 0.78466 0.0
H502 H 0.91056 0.15792 0.81296 0.0
H503 H 0.95436 0.17735 0.82535 0.0
Mn504 Mn 0.7089 0.661 0.70156 0.0
Mn505 Mn 0.76217 0.71379 0.70533 0.0
C506 C 0.7413 0.66517 0.72729 0.0
C507 C 0.67082 0.63941 0.71647 0.0
C508 C 0.74313 0.67542 0.66052 0.0
O509 O 0.70048 0.68544 0.68642 0.0
O510 O 0.73588 0.72077 0.69511 0.0
C511 C 0.75547 0.74034 0.7485 0.0
N512 N 0.76838 0.73105 0.73765 0.0
C513 C 0.79669 0.74431 0.77431 0.0
C514 C 0.78394 0.75442 0.78569 0.0
C515 C 0.76319 0.75235 0.77276 0.0
C516 C 0.78825 0.73275 0.75002 0.0
H517 H 0.73927 0.73836 0.73883 0.0
C518 C 0.71341 0.70892 0.68724 0.0
O519 O 0.67477 0.63326 0.69449 0.0
O520 O 0.68883 0.65796 0.72945 0.0
N521 N 0.78893 0.70939 0.71538 0.0
C522 C 0.79865 0.69787 0.70213 0.0
C523 C 0.81908 0.69756 0.71269 0.0
C524 C 0.82934 0.70912 0.73678 0.0
C525 C 0.8193 0.72127 0.74989 0.0
C526 C 0.79915 0.7213 0.7382 0.0
H527 H 0.79099 0.68912 0.68358 0.0
O528 O 0.72325 0.64342 0.72018 0.0
O529 O 0.73955 0.68351 0.71921 0.0
O530 O 0.72454 0.65887 0.66976 0.0
O531 O 0.75748 0.69674 0.67168 0.0
C532 C 0.82834 0.73315 0.77417 0.0
C533 C 0.81703 0.74465 0.78638 0.0
H534 H 0.78969 0.76348 0.80449 0.0
H535 H 0.75308 0.75982 0.78154 0.0
H536 H 0.82686 0.68846 0.70221 0.0
H537 H 0.84496 0.70861 0.74498 0.0
H538 H 0.84381 0.73331 0.78374 0.0
H539 H 0.82393 0.7534 0.80519 0.0
Mn540 Mn 0.32853 0.29344 0.70648 0.0
Mn541 Mn 0.38164 0.29422 0.71257 0.0
C542 C 0.33419 0.2657 0.68192 0.0
C543 C 0.30484 0.30832 0.6881 0.0
C544 C 0.34394 0.27316 0.74984 0.0
O545 O 0.3512 0.32656 0.72605 0.0
O546 O 0.38669 0.32725 0.72405 0.0
C547 C 0.40708 0.32878 0.67473 0.0
N548 N 0.39888 0.3063 0.68382 0.0
C549 C 0.41515 0.29299 0.65108 0.0
C550 C 0.42407 0.31613 0.64157 0.0
C551 C 0.41992 0.33406 0.65339 0.0
C552 C 0.40258 0.28883 0.67246 0.0
H553 H 0.40371 0.3425 0.68361 0.0
C554 C 0.37416 0.33736 0.72979 0.0
O555 O 0.30031 0.29855 0.70938 0.0
O556 O 0.32347 0.31004 0.67801 0.0
N557 N 0.37915 0.26333 0.70179 0.0
C558 C 0.36779 0.24136 0.71217 0.0
C559 C 0.36922 0.2211 0.70183 0.0
C560 C 0.38242 0.22367 0.68108 0.0
C561 C 0.39413 0.24651 0.67086 0.0
C562 C 0.39217 0.26608 0.68202 0.0
H563 H 0.35762 0.23924 0.72812 0.0
O564 O 0.31254 0.26143 0.68506 0.0
O565 O 0.35169 0.2862 0.69287 0.0
O566 O 0.32753 0.27542 0.73763 0.0
O567 O 0.36505 0.28086 0.74281 0.0
C568 C 0.40733 0.25051 0.64979 0.0
C569 C 0.41776 0.2737 0.63984 0.0
H570 H 0.43385 0.32022 0.62502 0.0
H571 H 0.42654 0.35187 0.64601 0.0
H572 H 0.36008 0.20352 0.70979 0.0
H573 H 0.38332 0.20796 0.67303 0.0
H574 H 0.40923 0.23574 0.64083 0.0
H575 H 0.42743 0.27638 0.62331 0.0
Mn576 Mn 0.70776 0.05777 0.6909 0.0
Mn577 Mn 0.75899 0.05471 0.69053 0.0
C578 C 0.73979 0.08084 0.7208 0.0
C579 C 0.66961 0.04341 0.70591 0.0
C580 C 0.7471 0.08441 0.65509 0.0
O581 O 0.69673 0.02609 0.66887 0.0
O582 O 0.73225 0.02654 0.66914 0.0
C583 C 0.74277 0.00942 0.71709 0.0
N584 N 0.75876 0.03374 0.71549 0.0
C585 C 0.78194 0.03545 0.75326 0.0
C586 C 0.76581 0.01038 0.7552 0.0
C587 C 0.74612 0.99733 0.73705 0.0
C588 C 0.77779 0.04646 0.73283 0.0
H589 H 0.72754 0.99933 0.70326 0.0
C590 C 0.70973 0.01699 0.66206 0.0
O591 O 0.67503 0.05522 0.6858 0.0
O592 O 0.68585 0.03924 0.71631 0.0
N593 N 0.78617 0.08058 0.71077 0.0
C594 C 0.79907 0.10503 0.70721 0.0
C595 C 0.81901 0.12085 0.72413 0.0
C596 C 0.82545 0.11139 0.74459 0.0
C597 C 0.81193 0.08617 0.7479 0.0
C598 C 0.7924 0.07124 0.73025 0.0
H599 H 0.79385 0.11249 0.69191 0.0
O600 O 0.72388 0.08751 0.71558 0.0
O601 O 0.73659 0.06108 0.70819 0.0
O602 O 0.72623 0.07846 0.6622 0.0
O603 O 0.76084 0.07699 0.66492 0.0
C604 C 0.81671 0.07537 0.76834 0.0
C605 C 0.80171 0.05004 0.77104 0.0
H606 H 0.76823 0.00103 0.77067 0.0
H607 H 0.73351 0.97801 0.7385 0.0
H608 H 0.82918 0.14033 0.72156 0.0
H609 H 0.84061 0.12369 0.75782 0.0
H610 H 0.83168 0.08646 0.78228 0.0
H611 H 0.80537 0.04202 0.78703 0.0
Mn612 Mn 0.95703 0.68236 0.71414 0.0
Mn613 Mn 0.90229 0.63254 0.71777 0.0
C614 C 0.92359 0.67922 0.69143 0.0
C615 C 0.99291 0.70129 0.69453 0.0
C616 C 0.92805 0.67381 0.75936 0.0
O617 O 0.96492 0.65734 0.72831 0.0
O618 O 0.92771 0.62382 0.72635 0.0
C619 C 0.90055 0.59828 0.6767 0.0
N620 N 0.89095 0.6112 0.68757 0.0
C621 C 0.85756 0.59434 0.65569 0.0
C622 C 0.86705 0.58078 0.64419 0.0
C623 C 0.88864 0.58278 0.65473 0.0
C624 C 0.87005 0.60923 0.67773 0.0
H625 H 0.91717 0.59983 0.68472 0.0
C626 C 0.95075 0.6345 0.73062 0.0
O627 O 0.99193 0.70858 0.7173 0.0
O628 O 0.97338 0.68266 0.68373 0.0
N629 N 0.87647 0.63889 0.70961 0.0
C630 C 0.87092 0.65476 0.72185 0.0
C631 C 0.85042 0.65589 0.71312 0.0
C632 C 0.83588 0.64079 0.69184 0.0
C633 C 0.842 0.62463 0.67951 0.0
C634 C 0.86249 0.62407 0.68929 0.0
H635 H 0.88204 0.66647 0.73817 0.0
O636 O 0.94281 0.70053 0.69717 0.0
O637 O 0.92444 0.66036 0.6997 0.0
O638 O 0.9462 0.68821 0.74806 0.0
O639 O 0.91147 0.65274 0.74985 0.0
C640 C 0.82884 0.60935 0.65767 0.0
C641 C 0.83661 0.59422 0.64577 0.0
H642 H 0.85806 0.56901 0.6271 0.0
H643 H 0.89612 0.57247 0.6459 0.0
H644 H 0.84583 0.66833 0.72287 0.0
H645 H 0.82016 0.64185 0.68512 0.0
H646 H 0.81289 0.60932 0.64967 0.0
H647 H 0.82657 0.58289 0.62875 0.0
H648 H 0.16977 0.37836 0.00165 0.0
H649 H 0.30192 0.3099 0.1917 0.0
H650 H 0.16537 0.38287 0.13834 0.0
H651 H 0.13673 0.39257 0.11726 0.0
H652 H 0.08011 0.31699 0.11913 0.0
H653 H 0.10953 0.30713 0.13941 0.0
H654 H 0.20069 0.38041 0.10688 0.0
H655 H 0.19356 0.38651 0.06317 0.0
H656 H 0.1322 0.31262 0.05305 0.0
H657 H 0.13972 0.30667 0.09672 0.0
H658 H 0.24033 0.37778 0.14335 0.0
H659 H 0.27319 0.38567 0.1173 0.0
H660 H 0.22652 0.31811 0.07139 0.0
H661 H 0.1936 0.30983 0.09802 0.0
H662 H 0.23785 0.36779 0.19621 0.0
H663 H 0.27416 0.366 0.20943 0.0
H664 H 0.24524 0.29579 0.16588 0.0
H665 H 0.2088 0.2976 0.15317 0.0
H666 H 0.19798 0.36966 0.21888 0.0
H667 H 0.21262 0.37045 0.26212 0.0
H668 H 0.19252 0.29359 0.24967 0.0
H669 H 0.17887 0.29336 0.20597 0.0
H670 H 0.15466 0.37178 0.19118 0.0
H671 H 0.13261 0.37259 0.22665 0.0
H672 H 0.11 0.29612 0.23533 0.0
H673 H 0.13153 0.29516 0.19918 0.0
O674 O 0.17237 0.3755 0.01882 0.0
O675 O 0.14097 0.33739 0.01462 0.0
O676 O 0.30098 0.34628 0.21035 0.0
O677 O 0.28751 0.31081 0.18717 0.0
C678 C 0.15831 0.33824 0.14871 0.0
C679 C 0.17483 0.33943 0.13156 0.0
C680 C 0.1954 0.33797 0.13991 0.0
C681 C 0.19885 0.33417 0.16524 0.0
C682 C 0.18205 0.33243 0.18226 0.0
C683 C 0.16158 0.33421 0.17399 0.0
C684 C 0.1395 0.34433 0.14039 0.0
C685 C 0.14667 0.36851 0.13468 0.0
C686 C 0.13021 0.37405 0.1228 0.0
C687 C 0.10604 0.35562 0.11683 0.0
C688 C 0.09862 0.33155 0.12353 0.0
C689 C 0.11528 0.32594 0.13528 0.0
C690 C 0.17085 0.34303 0.10488 0.0
C691 C 0.18587 0.36549 0.09512 0.0
C692 C 0.18168 0.36896 0.07017 0.0
C693 C 0.16232 0.35004 0.05459 0.0
C694 C 0.14728 0.32755 0.06451 0.0
C695 C 0.15153 0.3241 0.08943 0.0
C696 C 0.21466 0.34303 0.12287 0.0
C697 C 0.23712 0.36464 0.1277 0.0
C698 C 0.25578 0.36925 0.11272 0.0
C699 C 0.25225 0.35252 0.09238 0.0
C700 C 0.22953 0.33133 0.08688 0.0
C701 C 0.21084 0.32656 0.10211 0.0
C702 C 0.22055 0.33267 0.174 0.0
C703 C 0.23922 0.35186 0.18986 0.0
C704 C 0.26002 0.35086 0.19725 0.0
C705 C 0.26261 0.33073 0.18871 0.0
C706 C 0.24383 0.31154 0.17282 0.0
C707 C 0.22298 0.3125 0.16555 0.0
C708 C 0.18746 0.33148 0.20933 0.0
C709 C 0.19629 0.35286 0.22567 0.0
C710 C 0.20444 0.3532 0.25047 0.0
C711 C 0.20356 0.33201 0.25945 0.0
C712 C 0.19354 0.31024 0.24328 0.0
C713 C 0.18568 0.31002 0.21838 0.0
C714 C 0.1447 0.33341 0.19247 0.0
C715 C 0.14431 0.35496 0.20014 0.0
C716 C 0.13191 0.35545 0.22057 0.0
C717 C 0.1199 0.3345 0.23395 0.0
C718 C 0.11904 0.31249 0.22533 0.0
C719 C 0.13138 0.31197 0.20475 0.0
C720 C 0.15783 0.35383 0.02815 0.0
C721 C 0.28487 0.32982 0.19613 0.0
H722 H 0.64458 0.80575 1.00026 0.0
H723 H 0.71321 0.99655 0.22997 0.0
H724 H 0.64059 0.78954 0.13207 0.0
H725 H 0.63359 0.74981 0.11356 0.0
H726 H 0.70751 0.77066 0.13611 0.0
H727 H 0.71454 0.81075 0.15451 0.0
H728 H 0.63991 0.82804 0.10613 0.0
H729 H 0.63489 0.81727 0.06096 0.0
H730 H 0.70925 0.83424 0.06348 0.0
H731 H 0.71409 0.84525 0.10864 0.0
H732 H 0.63733 0.86101 0.141 0.0
H733 H 0.62544 0.88634 0.11723 0.0
H734 H 0.69784 0.92802 0.09526 0.0
H735 H 0.70972 0.90242 0.1194 0.0
H736 H 0.64948 0.87586 0.19512 0.0
H737 H 0.65196 0.913 0.21548 0.0
H738 H 0.72545 0.95587 0.19658 0.0
H739 H 0.72277 0.91848 0.17651 0.0
H740 H 0.65011 0.8351 0.21943 0.0
H741 H 0.64847 0.85118 0.26113 0.0
H742 H 0.72433 0.90489 0.26373 0.0
H743 H 0.72565 0.88891 0.22172 0.0
H744 H 0.64634 0.79187 0.19216 0.0
H745 H 0.64407 0.7674 0.22744 0.0
H746 H 0.72114 0.81152 0.24447 0.0
H747 H 0.72333 0.83623 0.20939 0.0
O748 O 0.64703 0.81035 0.01809 0.0
O749 O 0.68536 0.81929 0.02041 0.0
O750 O 0.67369 0.95883 0.2307 0.0
O751 O 0.71157 0.98169 0.22157 0.0
C752 C 0.68222 0.82746 0.15446 0.0
C753 C 0.68043 0.84373 0.13807 0.0
C754 C 0.6812 0.86546 0.14796 0.0
C755 C 0.68513 0.87165 0.17401 0.0
C756 C 0.68713 0.85557 0.19032 0.0
C757 C 0.68549 0.83339 0.18061 0.0
C758 C 0.67815 0.80312 0.14427 0.0
C759 C 0.65533 0.78563 0.13286 0.0
C760 C 0.65139 0.76303 0.12225 0.0
C761 C 0.67016 0.75746 0.12303 0.0
C762 C 0.69284 0.77467 0.13515 0.0
C763 C 0.69685 0.79746 0.14563 0.0
C764 C 0.67746 0.83777 0.11056 0.0
C765 C 0.65518 0.82976 0.09683 0.0
C766 C 0.65232 0.82346 0.07105 0.0
C767 C 0.67169 0.82495 0.05859 0.0
C768 C 0.69399 0.83294 0.07248 0.0
C769 C 0.69682 0.83927 0.09825 0.0
C770 C 0.6743 0.87986 0.13172 0.0
C771 C 0.65056 0.87543 0.13081 0.0
C772 C 0.64381 0.88985 0.11724 0.0
C773 C 0.66076 0.90912 0.1045 0.0
C774 C 0.68454 0.91338 0.10513 0.0
C775 C 0.69127 0.89875 0.11868 0.0
C776 C 0.68598 0.89453 0.18445 0.0
C777 C 0.66604 0.89333 0.1953 0.0
C778 C 0.66753 0.91456 0.20694 0.0
C779 C 0.68896 0.9374 0.20777 0.0
C780 C 0.70871 0.93858 0.19635 0.0
C781 C 0.70721 0.9173 0.18477 0.0
C782 C 0.688 0.86088 0.21765 0.0
C783 C 0.66658 0.84967 0.22946 0.0
C784 C 0.6657 0.85885 0.25333 0.0
C785 C 0.6863 0.87928 0.26575 0.0
C786 C 0.70819 0.88915 0.2546 0.0
C787 C 0.70903 0.88001 0.23069 0.0
C788 C 0.685 0.81569 0.19824 0.0
C789 C 0.6628 0.79582 0.20312 0.0
C790 C 0.6615 0.78207 0.22332 0.0
C791 C 0.68243 0.78791 0.23871 0.0
C792 C 0.70484 0.8068 0.23285 0.0
C793 C 0.7061 0.82077 0.21282 0.0
C794 C 0.66854 0.81805 0.03124 0.0
C795 C 0.69083 0.95989 0.22069 0.0
H796 H 0.12995 0.82642 0.99687 0.0
H797 H 0.32943 0.98259 0.19988 0.0
H798 H 0.11571 0.82696 0.12604 0.0
H799 H 0.08406 0.78716 0.10532 0.0
H800 H 0.11942 0.7509 0.13996 0.0
H801 H 0.15115 0.79053 0.15994 0.0
H802 H 0.1591 0.87204 0.09973 0.0
H803 H 0.14599 0.85881 0.05525 0.0
H804 H 0.15625 0.79597 0.06364 0.0
H805 H 0.16964 0.80961 0.108 0.0
H806 H 0.21007 0.9175 0.12799 0.0
H807 H 0.24291 0.94132 0.10202 0.0
H808 H 0.25138 0.87771 0.0869 0.0
H809 H 0.21865 0.854 0.11302 0.0
H810 H 0.20908 0.92152 0.18933 0.0
H811 H 0.24726 0.95917 0.20238 0.0
H812 H 0.28619 0.92355 0.17613 0.0
H813 H 0.24785 0.88587 0.16354 0.0
H814 H 0.173 0.88362 0.22317 0.0
H815 H 0.19005 0.89487 0.26721 0.0
H816 H 0.24032 0.86975 0.25171 0.0
H817 H 0.22323 0.85851 0.20798 0.0
H818 H 0.12101 0.83601 0.18958 0.0
H819 H 0.09551 0.80993 0.22071 0.0
H820 H 0.14961 0.79004 0.24131 0.0
H821 H 0.1745 0.81537 0.20983 0.0
O822 O 0.13536 0.83141 0.01445 0.0
O823 O 0.1408 0.79933 0.01978 0.0
O824 O 0.29319 0.98555 0.20732 0.0
O825 O 0.31412 0.9679 0.19487 0.0
C826 C 0.15756 0.8357 0.15247 0.0
C827 C 0.17263 0.84962 0.13417 0.0
C828 C 0.1951 0.87085 0.14158 0.0
C829 C 0.20237 0.87837 0.16736 0.0
C830 C 0.18756 0.86424 0.18564 0.0
C831 C 0.16499 0.84303 0.17826 0.0
C832 C 0.13573 0.81161 0.14447 0.0
C833 C 0.11621 0.8103 0.12965 0.0
C834 C 0.09817 0.78763 0.11792 0.0
C835 C 0.09947 0.7661 0.121 0.0
C836 C 0.11813 0.7673 0.13721 0.0
C837 C 0.13612 0.78986 0.1488 0.0
C838 C 0.16514 0.84169 0.10709 0.0
C839 C 0.15858 0.85548 0.09188 0.0
C840 C 0.15106 0.84784 0.06651 0.0
C841 C 0.14999 0.82628 0.0559 0.0
C842 C 0.1568 0.81263 0.07121 0.0
C843 C 0.1644 0.82033 0.09656 0.0
C844 C 0.21206 0.88406 0.12257 0.0
C845 C 0.21868 0.90856 0.11868 0.0
C846 C 0.23741 0.92211 0.10388 0.0
C847 C 0.24978 0.91136 0.09266 0.0
C848 C 0.24205 0.88636 0.09521 0.0
C849 C 0.2234 0.87285 0.11014 0.0
C850 C 0.22571 0.90104 0.17538 0.0
C851 C 0.22588 0.92188 0.1865 0.0
C852 C 0.24771 0.94336 0.19387 0.0
C853 C 0.26979 0.94439 0.19024 0.0
C854 C 0.26952 0.92339 0.17918 0.0
C855 C 0.24766 0.90187 0.1719 0.0
C856 C 0.197 0.8704 0.21244 0.0
C857 C 0.18762 0.88049 0.22938 0.0
C858 C 0.1974 0.88697 0.25439 0.0
C859 C 0.21655 0.88326 0.26273 0.0
C860 C 0.22551 0.87268 0.24577 0.0
C861 C 0.21588 0.8664 0.22083 0.0
C862 C 0.14969 0.82771 0.19749 0.0
C863 C 0.12729 0.82596 0.20081 0.0
C864 C 0.1128 0.81116 0.21862 0.0
C865 C 0.12041 0.79769 0.23322 0.0
C866 C 0.143 0.79976 0.22999 0.0
C867 C 0.15739 0.81447 0.21223 0.0
C868 C 0.1418 0.81812 0.02898 0.0
C869 C 0.293 0.96721 0.198 0.0
H870 H 0.30441 0.19466 0.06957 0.0
H871 H 0.33562 0.01953 0.88846 0.0
H872 H 0.28972 0.18881 0.93764 0.0
H873 H 0.29912 0.23001 0.95479 0.0
H874 H 0.3716 0.26004 0.93283 0.0
H875 H 0.36194 0.2191 0.91538 0.0
H876 H 0.28574 0.14321 0.96998 0.0
H877 H 0.2868 0.1592 0.01283 0.0
H878 H 0.36083 0.21609 0.00909 0.0
H879 H 0.35962 0.19968 0.96643 0.0
H880 H 0.29038 0.0944 0.95023 0.0
H881 H 0.30241 0.07018 0.97614 0.0
H882 H 0.37564 0.13109 0.98519 0.0
H883 H 0.36333 0.15526 0.96013 0.0
H884 H 0.28099 0.08717 0.88795 0.0
H885 H 0.27928 0.04752 0.87898 0.0
H886 H 0.35472 0.08084 0.9057 0.0
H887 H 0.35627 0.12042 0.91415 0.0
H888 H 0.28536 0.12615 0.84828 0.0
H889 H 0.28935 0.11188 0.80616 0.0
H890 H 0.36319 0.13259 0.82908 0.0
H891 H 0.35914 0.14681 0.87078 0.0
H892 H 0.28818 0.18129 0.87685 0.0
H893 H 0.29236 0.20859 0.84373 0.0
H894 H 0.36228 0.2171 0.83206 0.0
H895 H 0.35856 0.19114 0.86603 0.0
O896 O 0.30453 0.18834 0.05281 0.0
O897 O 0.3425 0.21733 0.04984 0.0
O898 O 0.29707 0.01874 0.87812 0.0
O899 O 0.33585 0.03503 0.89153 0.0
C900 C 0.32121 0.17591 0.91898 0.0
C901 C 0.32121 0.16151 0.93858 0.0
C902 C 0.32076 0.13901 0.93304 0.0
C903 C 0.31936 0.13039 0.90786 0.0
C904 C 0.31965 0.14487 0.88832 0.0
C905 C 0.32067 0.16772 0.89384 0.0
C906 C 0.32516 0.20105 0.92529 0.0
C907 C 0.30742 0.20444 0.93605 0.0
C908 C 0.31289 0.22787 0.94603 0.0
C909 C 0.33622 0.24812 0.9455 0.0
C910 C 0.35345 0.24481 0.93339 0.0
C911 C 0.34796 0.22147 0.92337 0.0
C912 C 0.32252 0.17041 0.96507 0.0
C913 C 0.30222 0.159 0.97855 0.0
C914 C 0.30286 0.16823 0.00297 0.0
C915 C 0.32386 0.18903 0.01433 0.0
C916 C 0.34434 0.20012 1.00087 0.0
C917 C 0.34369 0.19081 0.9765 0.0
C918 C 0.32601 0.12653 0.95332 0.0
C919 C 0.30882 0.10271 0.95853 0.0
C920 C 0.3158 0.08883 0.973 0.0
C921 C 0.34011 0.09854 0.98215 0.0
C922 C 0.35679 0.1231 0.97845 0.0
C923 C 0.34978 0.13698 0.96421 0.0
C924 C 0.31867 0.10656 0.90192 0.0
C925 C 0.29713 0.08585 0.89176 0.0
C926 C 0.2962 0.06324 0.88671 0.0
C927 C 0.31685 0.06099 0.89173 0.0
C928 C 0.33848 0.08191 0.90167 0.0
C929 C 0.3394 0.10452 0.90659 0.0
C930 C 0.32193 0.13735 0.8625 0.0
C931 C 0.30238 0.1277 0.84405 0.0
C932 C 0.30465 0.1195 0.82017 0.0
C933 C 0.32655 0.12108 0.81453 0.0
C934 C 0.34618 0.13131 0.83293 0.0
C935 C 0.34386 0.13929 0.85672 0.0
C936 C 0.32287 0.18386 0.87351 0.0
C937 C 0.30437 0.1891 0.8671 0.0
C938 C 0.30671 0.20451 0.84808 0.0
C939 C 0.32751 0.21472 0.83503 0.0
C940 C 0.34607 0.2096 0.84178 0.0
C941 C 0.34385 0.1945 0.86096 0.0
C942 C 0.3243 0.19914 0.04005 0.0
C943 C 0.3159 0.03695 0.88667 0.0
H944 H 0.86279 0.22297 0.07698 0.0
H945 H 0.69968 0.99922 0.87226 0.0
H946 H 0.8565 0.21787 0.91904 0.0
H947 H 0.89197 0.25673 0.93637 0.0
H948 H 0.91974 0.21587 0.97554 0.0
H949 H 0.88481 0.177 0.95736 0.0
H950 H 0.83269 0.19899 0.96968 0.0
H951 H 0.84439 0.21498 0.0137 0.0
H952 H 0.85448 0.1532 0.02935 0.0
H953 H 0.84304 0.13757 0.98518 0.0
H954 H 0.7832 0.15198 0.96597 0.0
H955 H 0.75119 0.12905 0.99293 0.0
H956 H 0.76363 0.06729 0.98409 0.0
H957 H 0.79577 0.09041 0.95711 0.0
H958 H 0.75601 0.11754 0.917 0.0
H959 H 0.7185 0.07881 0.9052 0.0
H960 H 0.75977 0.0441 0.8841 0.0
H961 H 0.79717 0.08287 0.89634 0.0
H962 H 0.77785 0.13835 0.87157 0.0
H963 H 0.7629 0.12517 0.82743 0.0
H964 H 0.82019 0.109 0.81682 0.0
H965 H 0.83551 0.12258 0.86129 0.0
H966 H 0.82308 0.17872 0.8629 0.0
H967 H 0.84377 0.19644 0.8275 0.0
H968 H 0.91048 0.20866 0.86699 0.0
H969 H 0.8872 0.18236 0.89795 0.0
O970 O 0.85819 0.21629 0.05966 0.0
O971 O 0.86287 0.18404 0.06677 0.0
O972 O 0.69389 0.03339 0.88857 0.0
O973 O 0.71425 0.01474 0.87718 0.0
C974 C 0.84553 0.17119 0.92881 0.0
C975 C 0.83047 0.15776 0.94736 0.0
C976 C 0.80873 0.13561 0.94044 0.0
C977 C 0.80212 0.12649 0.91501 0.0
C978 C 0.81671 0.14009 0.89633 0.0
C979 C 0.83847 0.16278 0.90302 0.0
C980 C 0.86811 0.19462 0.93689 0.0
C981 C 0.8705 0.21729 0.93086 0.0
C982 C 0.89061 0.23937 0.94082 0.0
C983 C 0.90832 0.23903 0.95726 0.0
C984 C 0.90618 0.21642 0.96293 0.0
C985 C 0.88635 0.19434 0.95256 0.0
C986 C 0.83715 0.16721 0.97423 0.0
C987 C 0.83753 0.189 0.98263 0.0
C988 C 0.84417 0.19805 0.0078 0.0
C989 C 0.85041 0.18539 0.02505 0.0
C990 C 0.8498 0.16342 0.01656 0.0
C991 C 0.84323 0.15442 0.99137 0.0
C992 C 0.7918 0.12286 0.95956 0.0
C993 C 0.77947 0.13376 0.9704 0.0
C994 C 0.76125 0.12068 0.98586 0.0
C995 C 0.75504 0.09645 0.99072 0.0
C996 C 0.76808 0.08594 0.98064 0.0
C997 C 0.78641 0.09909 0.96528 0.0
C998 C 0.7793 0.10294 0.90773 0.0
C999 C 0.7569 0.10149 0.91001 0.0
C1000 C 0.73551 0.07938 0.90316 0.0
C1001 C 0.73613 0.05833 0.89373 0.0
C1002 C 0.75864 0.05993 0.89133 0.0
C1003 C 0.78003 0.08205 0.89828 0.0
C1004 C 0.80771 0.13133 0.86963 0.0
C1005 C 0.78713 0.13183 0.85981 0.0
C1006 C 0.77876 0.12457 0.83467 0.0
C1007 C 0.79062 0.11638 0.81901 0.0
C1008 C 0.81099 0.11546 0.82874 0.0
C1009 C 0.81963 0.12309 0.85397 0.0
C1010 C 0.85305 0.17807 0.88302 0.0
C1011 C 0.84192 0.18396 0.86334 0.0
C1012 C 0.85456 0.19595 0.84336 0.0
C1013 C 0.87982 0.20612 0.84396 0.0
C1014 C 0.89123 0.20133 0.86469 0.0
C1015 C 0.8779 0.18666 0.88323 0.0
C1016 C 0.85753 0.19511 0.05176 0.0
C1017 C 0.71344 0.0348 0.88637 0.0
H1018 H 0.85291 0.66829 0.0863 0.0
H1019 H 0.67446 0.62893 0.85685 0.0
H1020 H 0.87877 0.70328 0.9642 0.0
H1021 H 0.91201 0.70068 0.98647 0.0
H1022 H 0.89169 0.63297 0.94187 0.0
H1023 H 0.85801 0.6351 0.92036 0.0
H1024 H 0.83195 0.69421 0.98823 0.0
H1025 H 0.8406 0.68953 0.03204 0.0
H1026 H 0.83655 0.6201 0.00964 0.0
H1027 H 0.82757 0.62486 0.96596 0.0
H1028 H 0.7884 0.69152 0.96009 0.0
H1029 H 0.75616 0.68053 0.98793 0.0
H1030 H 0.74094 0.60492 0.98153 0.0
H1031 H 0.7738 0.61633 0.95447 0.0
H1032 H 0.78945 0.70086 0.90202 0.0
H1033 H 0.75136 0.69664 0.88413 0.0
H1034 H 0.718 0.6173 0.8838 0.0
H1035 H 0.75624 0.62182 0.90162 0.0
H1036 H 0.82822 0.7095 0.87138 0.0
H1037 H 0.81459 0.71063 0.82794 0.0
H1038 H 0.77926 0.63113 0.81775 0.0
H1039 H 0.79288 0.63016 0.86111 0.0
H1040 H 0.87778 0.71384 0.89445 0.0
H1041 H 0.90548 0.71925 0.86213 0.0
H1042 H 0.86715 0.64051 0.84306 0.0
H1043 H 0.83969 0.63532 0.87507 0.0
O1044 O 0.84907 0.66957 0.06892 0.0
O1045 O 0.84645 0.63383 0.05646 0.0
O1046 O 0.70678 0.67207 0.86753 0.0
O1047 O 0.68955 0.63115 0.86454 0.0
C1048 C 0.84323 0.6683 0.93082 0.0
C1049 C 0.8251 0.66341 0.94729 0.0
C1050 C 0.80291 0.66131 0.9383 0.0
C1051 C 0.7989 0.66424 0.91286 0.0
C1052 C 0.81679 0.66872 0.89633 0.0
C1053 C 0.83896 0.67075 0.90524 0.0
C1054 C 0.86606 0.66949 0.94049 0.0
C1055 C 0.8818 0.68816 0.95889 0.0
C1056 C 0.90062 0.6866 0.97168 0.0
C1057 C 0.90419 0.66655 0.96591 0.0
C1058 C 0.88932 0.64866 0.94651 0.0
C1059 C 0.87025 0.64999 0.93405 0.0
C1060 C 0.82917 0.6599 0.97396 0.0
C1061 C 0.83271 0.6779 0.99288 0.0
C1062 C 0.83776 0.67523 0.01786 0.0
C1063 C 0.83935 0.65448 0.02434 0.0
C1064 C 0.83548 0.63632 0.0053 0.0
C1065 C 0.83036 0.63898 0.98035 0.0
C1066 C 0.78337 0.65471 0.95521 0.0
C1067 C 0.77809 0.67261 0.96475 0.0
C1068 C 0.75955 0.66624 0.98049 0.0
C1069 C 0.74571 0.64174 0.98669 0.0
C1070 C 0.75129 0.62395 0.97724 0.0
C1071 C 0.76996 0.63039 0.9617 0.0
C1072 C 0.77551 0.66165 0.90314 0.0
C1073 C 0.77384 0.68261 0.89817 0.0
C1074 C 0.75208 0.68014 0.88795 0.0
C1075 C 0.73163 0.65661 0.88249 0.0
C1076 C 0.73339 0.63567 0.88774 0.0
C1077 C 0.75516 0.63818 0.89799 0.0
C1078 C 0.81149 0.66975 0.86929 0.0
C1079 C 0.81799 0.69241 0.85955 0.0
C1080 C 0.81021 0.69302 0.83483 0.0
C1081 C 0.79606 0.67098 0.81947 0.0
C1082 C 0.79053 0.6484 0.82901 0.0
C1083 C 0.79814 0.6478 0.85376 0.0
C1084 C 0.85698 0.67414 0.88731 0.0
C1085 C 0.87568 0.69778 0.88351 0.0
C1086 C 0.89138 0.70085 0.86506 0.0
C1087 C 0.88873 0.68026 0.85043 0.0
C1088 C 0.87003 0.65664 0.85449 0.0
C1089 C 0.85428 0.65364 0.87267 0.0
C1090 C 0.84514 0.6519 0.05083 0.0
C1091 C 0.70861 0.65385 0.87113 0.0
H1092 H 0.82622 0.70953 0.33428 0.0
H1093 H 0.98497 0.68187 0.53507 0.0
H1094 H 0.82901 0.72364 0.4741 0.0
H1095 H 0.79794 0.7306 0.45429 0.0
H1096 H 0.74541 0.65359 0.4571 0.0
H1097 H 0.77725 0.64658 0.47631 0.0
H1098 H 0.86346 0.72174 0.43921 0.0
H1099 H 0.85325 0.72375 0.39504 0.0
H1100 H 0.79628 0.64763 0.39099 0.0
H1101 H 0.80687 0.6458 0.43509 0.0
H1102 H 0.90636 0.72495 0.4688 0.0
H1103 H 0.9359 0.72937 0.43923 0.0
H1104 H 0.89001 0.65342 0.41036 0.0
H1105 H 0.86051 0.64912 0.43993 0.0
H1106 H 0.9048 0.72104 0.53132 0.0
H1107 H 0.94439 0.72718 0.54636 0.0
H1108 H 0.92796 0.65906 0.50456 0.0
H1109 H 0.8883 0.65294 0.48997 0.0
H1110 H 0.85115 0.70508 0.56067 0.0
H1111 H 0.85868 0.69998 0.60371 0.0
H1112 H 0.88159 0.64816 0.5791 0.0
H1113 H 0.86593 0.64736 0.53723 0.0
H1114 H 0.81809 0.71111 0.52887 0.0
H1115 H 0.79351 0.707 0.56341 0.0
H1116 H 0.77536 0.63073 0.56558 0.0
H1117 H 0.80139 0.63562 0.53208 0.0
O1118 O 0.83007 0.70828 0.35167 0.0
O1119 O 0.80103 0.6691 0.35059 0.0
O1120 O 0.97735 0.71525 0.54979 0.0
O1121 O 0.96955 0.68006 0.52912 0.0
C1122 C 0.82555 0.68056 0.48478 0.0
C1123 C 0.84189 0.68243 0.4672 0.0
C1124 C 0.86388 0.6837 0.47521 0.0
C1125 C 0.86941 0.68272 0.5009 0.0
C1126 C 0.85218 0.67886 0.51839 0.0
C1127 C 0.83004 0.67764 0.51014 0.0
C1128 C 0.80533 0.68466 0.4767 0.0
C1129 C 0.81069 0.70836 0.47093 0.0
C1130 C 0.79285 0.71233 0.45978 0.0
C1131 C 0.7691 0.69272 0.4545 0.0
C1132 C 0.76354 0.66904 0.46105 0.0
C1133 C 0.78158 0.66504 0.47216 0.0
C1134 C 0.83601 0.68358 0.44026 0.0
C1135 C 0.84893 0.70547 0.42867 0.0
C1136 C 0.84299 0.70659 0.40348 0.0
C1137 C 0.82395 0.68585 0.38947 0.0
C1138 C 0.81105 0.66394 0.40121 0.0
C1139 C 0.81705 0.66283 0.42639 0.0
C1140 C 0.8814 0.68666 0.45666 0.0
C1141 C 0.90265 0.70932 0.456 0.0
C1142 C 0.91939 0.71186 0.43904 0.0
C1143 C 0.91525 0.6917 0.42261 0.0
C1144 C 0.89371 0.66918 0.42295 0.0
C1145 C 0.87688 0.66671 0.43977 0.0
C1146 C 0.89367 0.68658 0.50952 0.0
C1147 C 0.90979 0.70747 0.52544 0.0
C1148 C 0.9324 0.71094 0.53398 0.0
C1149 C 0.93935 0.69359 0.52667 0.0
C1150 C 0.9232 0.67277 0.51055 0.0
C1151 C 0.90057 0.6693 0.50208 0.0
C1152 C 0.8577 0.67648 0.54532 0.0
C1153 C 0.85642 0.69153 0.56472 0.0
C1154 C 0.86219 0.68954 0.58971 0.0
C1155 C 0.87237 0.67469 0.59597 0.0
C1156 C 0.87363 0.6597 0.57619 0.0
C1157 C 0.86532 0.65973 0.5516 0.0
C1158 C 0.81182 0.67377 0.52813 0.0
C1159 C 0.80853 0.69341 0.53656 0.0
C1160 C 0.79443 0.69099 0.55637 0.0
C1161 C 0.78285 0.66869 0.56784 0.0
C1162 C 0.78475 0.64848 0.55799 0.0
C1163 C 0.79933 0.6511 0.53855 0.0
C1164 C 0.81759 0.68714 0.36275 0.0
C1165 C 0.96325 0.69706 0.53592 0.0
H1166 H 0.33084 0.12606 0.33704 0.0
H1167 H 0.35593 0.32181 0.55951 0.0
H1168 H 0.31256 0.11495 0.49224 0.0
H1169 H 0.30971 0.07615 0.47649 0.0
H1170 H 0.37994 0.11654 0.44934 0.0
H1171 H 0.38335 0.15554 0.46634 0.0
H1172 H 0.31355 0.13784 0.44123 0.0
H1173 H 0.31408 0.12683 0.39705 0.0
H1174 H 0.38373 0.19232 0.39597 0.0
H1175 H 0.38315 0.20291 0.44031 0.0
H1176 H 0.30763 0.18214 0.44646 0.0
H1177 H 0.29471 0.20709 0.42351 0.0
H1178 H 0.3622 0.2726 0.44875 0.0
H1179 H 0.37569 0.24723 0.47052 0.0
H1180 H 0.30729 0.20884 0.50104 0.0
H1181 H 0.30305 0.24395 0.51618 0.0
H1182 H 0.37864 0.28349 0.54344 0.0
H1183 H 0.38271 0.24844 0.52775 0.0
H1184 H 0.3081 0.17655 0.54603 0.0
H1185 H 0.30587 0.19191 0.5881 0.0
H1186 H 0.3836 0.23111 0.59996 0.0
H1187 H 0.38571 0.21507 0.55814 0.0
H1188 H 0.30924 0.13486 0.53597 0.0
H1189 H 0.30722 0.10923 0.56985 0.0
H1190 H 0.38395 0.13714 0.57073 0.0
H1191 H 0.38569 0.16244 0.53637 0.0
O1192 O 0.33093 0.13086 0.35446 0.0
O1193 O 0.36638 0.16516 0.35466 0.0
O1194 O 0.3186 0.28708 0.53789 0.0
O1195 O 0.35717 0.30782 0.55298 0.0
C1196 C 0.34914 0.16152 0.48908 0.0
C1197 C 0.34855 0.17724 0.47112 0.0
C1198 C 0.34743 0.19857 0.47894 0.0
C1199 C 0.34765 0.20453 0.50473 0.0
C1200 C 0.34838 0.18895 0.5225 0.0
C1201 C 0.34879 0.16734 0.51476 0.0
C1202 C 0.34833 0.13808 0.48083 0.0
C1203 C 0.32768 0.11547 0.48363 0.0
C1204 C 0.32599 0.09337 0.4745 0.0
C1205 C 0.34466 0.09355 0.46189 0.0
C1206 C 0.3654 0.1161 0.45913 0.0
C1207 C 0.36733 0.13825 0.46878 0.0
C1208 C 0.34842 0.17105 0.44403 0.0
C1209 C 0.32895 0.14973 0.43145 0.0
C1210 C 0.32927 0.14352 0.40619 0.0
C1211 C 0.34899 0.15865 0.39299 0.0
C1212 C 0.36829 0.18023 0.40559 0.0
C1213 C 0.36799 0.18636 0.43089 0.0
C1214 C 0.34253 0.21286 0.46035 0.0
C1215 C 0.32004 0.20172 0.44626 0.0
C1216 C 0.31253 0.21606 0.43351 0.0
C1217 C 0.32714 0.24186 0.4351 0.0
C1218 C 0.3505 0.25278 0.44741 0.0
C1219 C 0.3582 0.23832 0.45984 0.0
C1220 C 0.34531 0.22616 0.51327 0.0
C1221 C 0.32293 0.22519 0.51012 0.0
C1222 C 0.32055 0.24523 0.51886 0.0
C1223 C 0.34051 0.26652 0.53109 0.0
C1224 C 0.36292 0.26739 0.53413 0.0
C1225 C 0.3653 0.24741 0.52522 0.0
C1226 C 0.34706 0.19468 0.54922 0.0
C1227 C 0.32459 0.18776 0.55808 0.0
C1228 C 0.32334 0.19647 0.58204 0.0
C1229 C 0.34458 0.21248 0.59722 0.0
C1230 C 0.36703 0.21856 0.58867 0.0
C1231 C 0.36825 0.20947 0.56488 0.0
C1232 C 0.34758 0.15037 0.53372 0.0
C1233 C 0.32555 0.1352 0.54331 0.0
C1234 C 0.32446 0.1207 0.56271 0.0
C1235 C 0.34543 0.1212 0.57295 0.0
C1236 C 0.36746 0.13612 0.56298 0.0
C1237 C 0.36851 0.1506 0.54345 0.0
C1238 C 0.34937 0.15186 0.36623 0.0
C1239 C 0.33801 0.2877 0.5408 0.0
H1240 H 0.80133 0.15201 0.32855 0.0
H1241 H 0.99075 0.32758 0.53035 0.0
H1242 H 0.78199 0.16121 0.45729 0.0
H1243 H 0.75242 0.12071 0.43599 0.0
H1244 H 0.78975 0.08775 0.47334 0.0
H1245 H 0.81944 0.12803 0.49388 0.0
H1246 H 0.8248 0.20396 0.4285 0.0
H1247 H 0.81361 0.18764 0.3845 0.0
H1248 H 0.82889 0.1293 0.40085 0.0
H1249 H 0.84026 0.14596 0.4447 0.0
H1250 H 0.8748 0.25315 0.45648 0.0
H1251 H 0.90689 0.27551 0.42916 0.0
H1252 H 0.91915 0.21351 0.4223 0.0
H1253 H 0.88712 0.19133 0.44949 0.0
H1254 H 0.87066 0.25967 0.51781 0.0
H1255 H 0.90727 0.29903 0.53035 0.0
H1256 H 0.95064 0.26624 0.5109 0.0
H1257 H 0.91384 0.22685 0.49877 0.0
H1258 H 0.83922 0.22579 0.55353 0.0
H1259 H 0.85476 0.2363 0.59817 0.0
H1260 H 0.90096 0.20532 0.58609 0.0
H1261 H 0.88574 0.19524 0.54177 0.0
H1262 H 0.78968 0.17842 0.52673 0.0
H1263 H 0.76736 0.15619 0.56154 0.0
H1264 H 0.8159 0.12721 0.57249 0.0
H1265 H 0.83841 0.15007 0.5385 0.0
O1266 O 0.80603 0.15828 0.34597 0.0
O1267 O 0.8137 0.1284 0.35549 0.0
O1268 O 0.95289 0.32755 0.53716 0.0
O1269 O 0.97602 0.3121 0.5259 0.0
C1270 C 0.82396 0.17223 0.4849 0.0
C1271 C 0.83934 0.18568 0.46658 0.0
C1272 C 0.86104 0.20792 0.47377 0.0
C1273 C 0.8672 0.21684 0.49935 0.0
C1274 C 0.85229 0.20301 0.51768 0.0
C1275 C 0.83051 0.18084 0.5105 0.0
C1276 C 0.8028 0.14754 0.47725 0.0
C1277 C 0.78327 0.14508 0.46147 0.0
C1278 C 0.76646 0.12204 0.44934 0.0
C1279 C 0.7691 0.10135 0.45291 0.0
C1280 C 0.7875 0.10355 0.47023 0.0
C1281 C 0.80428 0.12648 0.48221 0.0
C1282 C 0.83312 0.17602 0.43979 0.0
C1283 C 0.82577 0.1877 0.4225 0.0
C1284 C 0.81936 0.17831 0.3974 0.0
C1285 C 0.82023 0.15708 0.38918 0.0
C1286 C 0.82789 0.1456 0.40657 0.0
C1287 C 0.83435 0.15504 0.43163 0.0
C1288 C 0.87852 0.22056 0.45495 0.0
C1289 C 0.88413 0.24425 0.44871 0.0
C1290 C 0.90246 0.25698 0.43314 0.0
C1291 C 0.91541 0.24619 0.42336 0.0
C1292 C 0.90916 0.22212 0.42899 0.0
C1293 C 0.89092 0.20946 0.44463 0.0
C1294 C 0.88962 0.2405 0.50721 0.0
C1295 C 0.88809 0.26101 0.51636 0.0
C1296 C 0.90903 0.28347 0.52347 0.0
C1297 C 0.9319 0.28581 0.52152 0.0
C1298 C 0.93333 0.2651 0.51254 0.0
C1299 C 0.91236 0.2426 0.50554 0.0
C1300 C 0.86141 0.20979 0.54453 0.0
C1301 C 0.85272 0.22136 0.56061 0.0
C1302 C 0.86156 0.22733 0.58595 0.0
C1303 C 0.87881 0.22134 0.59545 0.0
C1304 C 0.88743 0.2098 0.57923 0.0
C1305 C 0.87887 0.20417 0.55398 0.0
C1306 C 0.81564 0.16583 0.53008 0.0
C1307 C 0.79527 0.16705 0.53655 0.0
C1308 C 0.78247 0.15422 0.55632 0.0
C1309 C 0.78979 0.13985 0.5698 0.0
C1310 C 0.80989 0.13829 0.56272 0.0
C1311 C 0.82272 0.15122 0.5432 0.0
C1312 C 0.81316 0.14699 0.36257 0.0
C1313 C 0.95417 0.30976 0.52872 0.0
H1314 H 0.96115 0.51511 0.40054 0.0
H1315 H 0.02395 0.3679 0.21338 0.0
H1316 H 0.95322 0.51782 0.27016 0.0
H1317 H 0.95927 0.55796 0.28695 0.0
H1318 H 0.0313 0.59369 0.26324 0.0
H1319 H 0.02531 0.55377 0.24687 0.0
H1320 H 0.95085 0.47022 0.29923 0.0
H1321 H 0.94863 0.48292 0.34237 0.0
H1322 H 0.01965 0.54669 0.34222 0.0
H1323 H 0.02181 0.53355 0.29928 0.0
H1324 H 0.96115 0.42404 0.27288 0.0
H1325 H 0.97459 0.40028 0.29728 0.0
H1326 H 0.03986 0.46761 0.32438 0.0
H1327 H 0.02731 0.49082 0.29809 0.0
H1328 H 0.95584 0.42155 0.2138 0.0
H1329 H 0.96041 0.38579 0.20233 0.0
H1330 H 0.03399 0.42519 0.23622 0.0
H1331 H 0.02927 0.46091 0.24724 0.0
H1332 H 0.95491 0.45855 0.17896 0.0
H1333 H 0.96059 0.44526 0.13714 0.0
H1334 H 0.03614 0.47423 0.16022 0.0
H1335 H 0.03039 0.48736 0.20163 0.0
H1336 H 0.95328 0.5121 0.20656 0.0
H1337 H 0.95692 0.54001 0.17411 0.0
H1338 H 0.02989 0.55553 0.16667 0.0
H1339 H 0.02654 0.52886 0.19974 0.0
O1340 O 0.96255 0.51022 0.38363 0.0
O1341 O 0.99894 0.54293 0.3824 0.0
O1342 O 0.98378 0.36238 0.20036 0.0
O1343 O 0.02165 0.38178 0.21767 0.0
C1344 C 0.98686 0.50862 0.25036 0.0
C1345 C 0.98709 0.49379 0.2695 0.0
C1346 C 0.98873 0.47243 0.26344 0.0
C1347 C 0.98935 0.4655 0.23814 0.0
C1348 C 0.98886 0.48012 0.21908 0.0
C1349 C 0.98777 0.50176 0.22513 0.0
C1350 C 0.9888 0.53289 0.25722 0.0
C1351 C 0.97013 0.53439 0.26824 0.0
C1352 C 0.97364 0.55723 0.27789 0.0
C1353 C 0.9958 0.57884 0.27649 0.0
C1354 C 0.01398 0.57736 0.26435 0.0
C1355 C 0.01055 0.55459 0.25494 0.0
C1356 C 0.98637 0.50107 0.29606 0.0
C1357 C 0.96596 0.48683 0.30862 0.0
C1358 C 0.96472 0.49418 0.33323 0.0
C1359 C 0.98391 0.5159 0.3457 0.0
C1360 C 0.00451 0.52992 0.33314 0.0
C1361 C 0.00577 0.52249 0.30859 0.0
C1362 C 0.99328 0.45917 0.28353 0.0
C1363 C 0.97809 0.43371 0.28454 0.0
C1364 C 0.98575 0.42017 0.2987 0.0
C1365 C 0.00839 0.43203 0.31277 0.0
C1366 C 0.0225 0.45786 0.31346 0.0
C1367 C 0.01515 0.47125 0.29877 0.0
C1368 C 0.99215 0.44372 0.23151 0.0
C1369 C 0.97291 0.4224 0.21871 0.0
C1370 C 0.97558 0.40201 0.21221 0.0
C1371 C 0.99756 0.40262 0.21841 0.0
C1372 C 0.01682 0.42408 0.23119 0.0
C1373 C 0.01415 0.44448 0.23759 0.0
C1374 C 0.99228 0.47401 0.19316 0.0
C1375 C 0.97271 0.4623 0.17476 0.0
C1376 C 0.97593 0.45465 0.15106 0.0
C1377 C 0.99884 0.45899 0.1455 0.0
C1378 C 0.01841 0.47108 0.16391 0.0
C1379 C 0.01515 0.4785 0.18753 0.0
C1380 C 0.98956 0.51826 0.2053 0.0
C1381 C 0.97006 0.52168 0.19797 0.0
C1382 C 0.97214 0.53753 0.17945 0.0
C1383 C 0.9938 0.55023 0.16813 0.0
C1384 C 0.01318 0.54654 0.17548 0.0
C1385 C 0.01117 0.53096 0.19406 0.0
C1386 C 0.98236 0.5239 0.37167 0.0
C1387 C 1.00048 0.38101 0.21156 0.0
H1388 H 0.52437 0.55281 0.41081 0.0
H1389 H 0.3602 0.3416 0.19392 0.0
H1390 H 0.51556 0.5481 0.2688 0.0
H1391 H 0.54903 0.58648 0.28965 0.0
H1392 H 0.59198 0.55099 0.29856 0.0
H1393 H 0.55806 0.51224 0.27807 0.0
H1394 H 0.48771 0.52372 0.30532 0.0
H1395 H 0.49974 0.54007 0.34924 0.0
H1396 H 0.53045 0.49265 0.35986 0.0
H1397 H 0.51834 0.47652 0.31582 0.0
H1398 H 0.44592 0.48401 0.29393 0.0
H1399 H 0.41297 0.46088 0.31987 0.0
H1400 H 0.42766 0.40042 0.31498 0.0
H1401 H 0.46069 0.42376 0.28898 0.0
H1402 H 0.42585 0.45922 0.2403 0.0
H1403 H 0.38682 0.42411 0.22394 0.0
H1404 H 0.42058 0.37926 0.21457 0.0
H1405 H 0.45945 0.41452 0.23113 0.0
H1406 H 0.46229 0.49031 0.19873 0.0
H1407 H 0.44772 0.477 0.15451 0.0
H1408 H 0.47895 0.42943 0.15473 0.0
H1409 H 0.49361 0.44299 0.19914 0.0
H1410 H 0.50772 0.53322 0.21415 0.0
H1411 H 0.53153 0.5546 0.17998 0.0
H1412 H 0.56813 0.51226 0.18464 0.0
H1413 H 0.54405 0.49074 0.21884 0.0
O1414 O 0.51939 0.54575 0.39364 0.0
O1415 O 0.53449 0.52067 0.39829 0.0
O1416 O 0.35899 0.37965 0.20556 0.0
O1417 O 0.37537 0.3557 0.20064 0.0
C1418 C 0.51287 0.50373 0.26324 0.0
C1419 C 0.49627 0.49027 0.28053 0.0
C1420 C 0.47426 0.46889 0.27208 0.0
C1421 C 0.46907 0.46085 0.24631 0.0
C1422 C 0.48577 0.47427 0.22913 0.0
C1423 C 0.50772 0.49569 0.23754 0.0
C1424 C 0.53449 0.52752 0.27204 0.0
C1425 C 0.53232 0.54872 0.27491 0.0
C1426 C 0.55129 0.57047 0.28688 0.0
C1427 C 0.57278 0.57138 0.29584 0.0
C1428 C 0.57546 0.55053 0.2918 0.0
C1429 C 0.55626 0.52857 0.28009 0.0
C1430 C 0.50205 0.49887 0.30752 0.0
C1431 C 0.49684 0.51675 0.31725 0.0
C1432 C 0.5038 0.5261 0.34231 0.0
C1433 C 0.51609 0.51769 0.35806 0.0
C1434 C 0.52101 0.49952 0.34824 0.0
C1435 C 0.51405 0.49021 0.32315 0.0
C1436 C 0.45591 0.45571 0.28984 0.0
C1437 C 0.44243 0.46604 0.29899 0.0
C1438 C 0.42364 0.45282 0.31384 0.0
C1439 C 0.41793 0.42895 0.31972 0.0
C1440 C 0.43172 0.4188 0.31081 0.0
C1441 C 0.45059 0.4321 0.29604 0.0
C1442 C 0.44539 0.43933 0.23693 0.0
C1443 C 0.42471 0.44174 0.23482 0.0
C1444 C 0.40248 0.42168 0.22542 0.0
C1445 C 0.40058 0.39886 0.21791 0.0
C1446 C 0.4214 0.39655 0.22016 0.0
C1447 C 0.44362 0.41663 0.2296 0.0
C1448 C 0.47889 0.46753 0.20197 0.0
C1449 C 0.46633 0.47734 0.18907 0.0
C1450 C 0.45822 0.4699 0.16385 0.0
C1451 C 0.4625 0.45243 0.15123 0.0
C1452 C 0.47559 0.44303 0.16408 0.0
C1453 C 0.48389 0.45067 0.18932 0.0
C1454 C 0.52423 0.51051 0.21899 0.0
C1455 C 0.52107 0.52877 0.208 0.0
C1456 C 0.53451 0.54078 0.18838 0.0
C1457 C 0.5514 0.53479 0.17946 0.0
C1458 C 0.55518 0.51713 0.19113 0.0
C1459 C 0.54154 0.50493 0.21065 0.0
C1460 C 0.52389 0.52804 0.38455 0.0
C1461 C 0.37703 0.37756 0.2077 0.0
H1462 H 0.51591 0.99082 0.42048 0.0
H1463 H 0.35606 0.97313 0.17291 0.0
H1464 H 0.54753 0.02927 0.2972 0.0
H1465 H 0.5819 0.02743 0.31772 0.0
H1466 H 0.55942 0.95828 0.27485 0.0
H1467 H 0.52466 0.95971 0.25507 0.0
H1468 H 0.50455 0.0229 0.32239 0.0
H1469 H 0.51056 0.01624 0.3662 0.0
H1470 H 0.49688 0.94289 0.34315 0.0
H1471 H 0.49067 0.94973 0.29943 0.0
H1472 H 0.46474 0.02155 0.30286 0.0
H1473 H 0.43268 0.01078 0.33103 0.0
H1474 H 0.40265 0.93374 0.30602 0.0
H1475 H 0.43519 0.94464 0.27868 0.0
H1476 H 0.45693 0.02964 0.25036 0.0
H1477 H 0.4218 0.02973 0.22963 0.0
H1478 H 0.39414 0.95426 0.19977 0.0
H1479 H 0.42917 0.95437 0.22083 0.0
H1480 H 0.49293 0.03785 0.20959 0.0
H1481 H 0.47846 0.04085 0.16726 0.0
H1482 H 0.45264 0.9633 0.14933 0.0
H1483 H 0.46709 0.96043 0.19168 0.0
H1484 H 0.54659 0.03764 0.226 0.0
H1485 H 0.57119 0.04018 0.19143 0.0
H1486 H 0.52844 0.96113 0.17522 0.0
H1487 H 0.50478 0.95876 0.21008 0.0
O1488 O 0.51336 0.99302 0.40306 0.0
O1489 O 0.50631 0.95551 0.39022 0.0
O1490 O 0.38193 0.01035 0.20168 0.0
O1491 O 0.36921 0.97306 0.18271 0.0
C1492 C 0.51124 0.99423 0.26469 0.0
C1493 C 0.49359 0.99089 0.28128 0.0
C1494 C 0.47197 0.99008 0.27231 0.0
C1495 C 0.46818 0.99302 0.24689 0.0
C1496 C 0.48567 0.99621 0.2303 0.0
C1497 C 0.50703 0.99645 0.23903 0.0
C1498 C 0.53374 0.99477 0.2744 0.0
C1499 C 0.55022 0.0139 0.29199 0.0
C1500 C 0.56973 0.01281 0.30373 0.0
C1501 C 0.57329 0.99282 0.29768 0.0
C1502 C 0.55722 0.97407 0.27951 0.0
C1503 C 0.53748 0.97495 0.2681 0.0
C1504 C 0.49708 0.98676 0.30783 0.0
C1505 C 0.5027 0.00536 0.32689 0.0
C1506 C 0.50621 0.00153 0.35187 0.0
C1507 C 0.50419 0.97903 0.35818 0.0
C1508 C 0.49856 0.96043 0.33894 0.0
C1509 C 0.49501 0.96427 0.31398 0.0
C1510 C 0.45237 0.98384 0.28897 0.0
C1511 C 0.45131 0.00236 0.30366 0.0
C1512 C 0.43296 0.99618 0.31963 0.0
C1513 C 0.41535 0.97136 0.32109 0.0
C1514 C 0.41631 0.95294 0.30591 0.0
C1515 C 0.43472 0.95913 0.29011 0.0
C1516 C 0.44549 0.99199 0.23711 0.0
C1517 C 0.44302 0.01303 0.23972 0.0
C1518 C 0.42302 0.01305 0.22774 0.0
C1519 C 0.40524 0.99204 0.21289 0.0
C1520 C 0.40753 0.97077 0.21095 0.0
C1521 C 0.42744 0.97073 0.22305 0.0
C1522 C 0.48112 0.99897 0.20358 0.0
C1523 C 0.48471 0.0217 0.19628 0.0
C1524 C 0.47636 0.02334 0.17223 0.0
C1525 C 0.46428 0.00224 0.1552 0.0
C1526 C 0.46204 0.97984 0.16207 0.0
C1527 C 0.4703 0.97819 0.18617 0.0
C1528 C 0.52417 0.99797 0.22075 0.0
C1529 C 0.54307 0.02086 0.21537 0.0
C1530 C 0.55692 0.02229 0.19552 0.0
C1531 C 0.55201 0.00082 0.18078 0.0
C1532 C 0.53325 0.97793 0.18662 0.0
C1533 C 0.51959 0.97653 0.20646 0.0
C1534 C 0.508 0.97505 0.38474 0.0
C1535 C 0.38473 0.99242 0.19891 0.0
H1536 H 0.5088 0.05235 0.67057 0.0
H1537 H 0.62744 0.97185 0.87337 0.0
H1538 H 0.49773 0.05281 0.80308 0.0
H1539 H 0.46753 0.05978 0.78109 0.0
H1540 H 0.41299 0.98456 0.78938 0.0
H1541 H 0.44395 0.97732 0.81017 0.0
H1542 H 0.53713 0.05208 0.7761 0.0
H1543 H 0.53123 0.05904 0.7324 0.0
H1544 H 0.46813 0.98637 0.72095 0.0
H1545 H 0.47446 0.9795 0.76459 0.0
H1546 H 0.57643 0.0469 0.8136 0.0
H1547 H 0.60862 0.05403 0.78684 0.0
H1548 H 0.55897 0.98952 0.73831 0.0
H1549 H 0.52685 0.98175 0.7658 0.0
H1550 H 0.57156 0.03802 0.86592 0.0
H1551 H 0.6053 0.03344 0.88303 0.0
H1552 H 0.57534 0.96284 0.83999 0.0
H1553 H 0.54146 0.96748 0.82331 0.0
H1554 H 0.53021 0.03913 0.88888 0.0
H1555 H 0.54576 0.03886 0.9316 0.0
H1556 H 0.52714 0.96281 0.91577 0.0
H1557 H 0.51213 0.96341 0.87292 0.0
H1558 H 0.48683 0.04213 0.85815 0.0
H1559 H 0.46445 0.04282 0.89334 0.0
H1560 H 0.44431 0.96724 0.90396 0.0
H1561 H 0.46586 0.96629 0.8679 0.0
O1562 O 0.51089 0.04913 0.68774 0.0
O1563 O 0.47845 0.01172 0.68291 0.0
O1564 O 0.62924 0.01082 0.88808 0.0
O1565 O 0.61436 0.97418 0.86675 0.0
C1566 C 0.49263 0.0096 0.81689 0.0
C1567 C 0.50965 0.01113 0.80013 0.0
C1568 C 0.52999 0.00932 0.80882 0.0
C1569 C 0.53284 0.00521 0.83417 0.0
C1570 C 0.51566 0.0033 0.85079 0.0
C1571 C 0.49538 0.00526 0.8422 0.0
C1572 C 0.4731 0.01449 0.8079 0.0
C1573 C 0.47922 0.03788 0.80034 0.0
C1574 C 0.46188 0.04185 0.78786 0.0
C1575 C 0.43789 0.0226 0.78306 0.0
C1576 C 0.43145 0.99955 0.79214 0.0
C1577 C 0.44899 0.99548 0.80435 0.0
C1578 C 0.50632 0.01522 0.77346 0.0
C1579 C 0.52218 0.03761 0.76405 0.0
C1580 C 0.5187 0.04157 0.73911 0.0
C1581 C 0.49921 0.02325 0.72317 0.0
C1582 C 0.48334 0.00085 0.73271 0.0
C1583 C 0.4869 0.99688 0.75762 0.0
C1584 C 0.54928 0.01361 0.79194 0.0
C1585 C 0.57247 0.03412 0.79736 0.0
C1586 C 0.59079 0.0383 0.78197 0.0
C1587 C 0.58619 0.0224 0.76049 0.0
C1588 C 0.56287 0.00217 0.75465 0.0
C1589 C 0.54459 0.99769 0.77037 0.0
C1590 C 0.55399 0.003 0.84351 0.0
C1591 C 0.5723 0.02156 0.86026 0.0
C1592 C 0.59157 0.01892 0.86995 0.0
C1593 C 0.59299 0.99773 0.86292 0.0
C1594 C 0.57478 0.97935 0.84584 0.0
C1595 C 0.55546 0.98198 0.83621 0.0
C1596 C 0.52034 0.00138 0.87778 0.0
C1597 C 0.52897 0.02225 0.89487 0.0
C1598 C 0.53781 0.02206 0.91923 0.0
C1599 C 0.53812 0.00097 0.9268 0.0
C1600 C 0.52762 0.97948 0.91023 0.0
C1601 C 0.51891 0.97972 0.88585 0.0
C1602 C 0.47812 0.00419 0.86039 0.0
C1603 C 0.47696 0.02545 0.86748 0.0
C1604 C 0.46439 0.0259 0.88781 0.0
C1605 C 0.45308 0.00524 0.90178 0.0
C1606 C 0.45287 0.98344 0.89362 0.0
C1607 C 0.46525 0.98292 0.87308 0.0
C1608 C 0.49548 0.02759 0.69673 0.0
C1609 C 0.61332 0.99474 0.87338 0.0
H1610 H 0.98937 0.45381 0.67073 0.0
H1611 H 0.01301 0.65275 0.88868 0.0
H1612 H 0.97784 0.44813 0.82695 0.0
H1613 H 0.97553 0.40959 0.8113 0.0
H1614 H 0.04432 0.4508 0.7814 0.0
H1615 H 0.0472 0.48959 0.79822 0.0
H1616 H 0.97571 0.46912 0.77544 0.0
H1617 H 0.97478 0.45659 0.73137 0.0
H1618 H 0.04346 0.52236 0.72669 0.0
H1619 H 0.04436 0.53447 0.77094 0.0
H1620 H 0.96952 0.51405 0.77845 0.0
H1621 H 0.95712 0.53887 0.75446 0.0
H1622 H 0.02496 0.60419 0.77946 0.0
H1623 H 0.03787 0.57894 0.80199 0.0
H1624 H 0.96839 0.53943 0.83233 0.0
H1625 H 0.96245 0.57368 0.84665 0.0
H1626 H 0.03798 0.61622 0.87375 0.0
H1627 H 0.04373 0.582 0.85893 0.0
H1628 H 0.97154 0.5098 0.87862 0.0
H1629 H 0.96939 0.52577 0.92041 0.0
H1630 H 0.04717 0.5664 0.93141 0.0
H1631 H 0.04919 0.54985 0.88984 0.0
H1632 H 0.97547 0.4688 0.87079 0.0
H1633 H 0.97615 0.44461 0.90506 0.0
H1634 H 0.053 0.47528 0.90258 0.0
H1635 H 0.05203 0.4991 0.86774 0.0
O1636 O 0.99004 0.45922 0.68807 0.0
O1637 O 0.02496 0.49371 0.68639 0.0
O1638 O 0.97642 0.61681 0.86742 0.0
O1639 O 0.01491 0.63907 0.88251 0.0
C1640 C 0.01302 0.49492 0.82183 0.0
C1641 C 0.01119 0.50967 0.80346 0.0
C1642 C 0.00949 0.53074 0.81086 0.0
C1643 C 0.00982 0.53715 0.83654 0.0
C1644 C 0.01169 0.52248 0.85472 0.0
C1645 C 0.01321 0.5014 0.84744 0.0
C1646 C 0.01285 0.47169 0.81408 0.0
C1647 C 0.99282 0.44891 0.81778 0.0
C1648 C 0.99143 0.42694 0.80872 0.0
C1649 C 0.00978 0.42739 0.79528 0.0
C1650 C 0.03001 0.45012 0.79179 0.0
C1651 C 0.03164 0.47216 0.80135 0.0
C1652 C 0.0102 0.50259 0.77643 0.0
C1653 C 0.99058 0.48075 0.76489 0.0
C1654 C 0.99007 0.47366 0.7397 0.0
C1655 C 0.00909 0.48843 0.72552 0.0
C1656 C 0.02855 0.51053 0.73708 0.0
C1657 C 0.02908 0.51753 0.76232 0.0
C1658 C 0.00459 0.5447 0.79196 0.0
C1659 C 0.98213 0.53353 0.77784 0.0
C1660 C 0.97495 0.54779 0.76444 0.0
C1661 C 0.98998 0.57351 0.76523 0.0
C1662 C 0.01312 0.5844 0.77809 0.0
C1663 C 0.02047 0.57003 0.79111 0.0
C1664 C 0.00648 0.55829 0.84455 0.0
C1665 C 0.98365 0.55625 0.84118 0.0
C1666 C 0.98031 0.57579 0.84945 0.0
C1667 C 0.99975 0.59768 0.8614 0.0
C1668 C 0.02263 0.59964 0.86465 0.0
C1669 C 0.02597 0.58013 0.85623 0.0
C1670 C 0.01052 0.52864 0.88138 0.0
C1671 C 0.98808 0.5215 0.89044 0.0
C1672 C 0.98688 0.53056 0.91425 0.0
C1673 C 0.00813 0.54712 0.92914 0.0
C1674 C 0.03058 0.55346 0.92038 0.0
C1675 C 0.03176 0.54405 0.89673 0.0
C1676 C 0.01368 0.48555 0.86683 0.0
C1677 C 0.99239 0.47006 0.87749 0.0
C1678 C 0.99284 0.4564 0.89707 0.0
C1679 C 0.01462 0.45809 0.90639 0.0
C1680 C 0.03592 0.47338 0.89544 0.0
C1681 C 0.03543 0.487 0.87569 0.0
C1682 C 0.00859 0.48072 0.69882 0.0
C1683 C 0.99623 0.61837 0.87056 0.0
H1684 H 0.46277 0.49756 0.66605 0.0
H1685 H 0.65727 0.63102 0.90306 0.0
H1686 H 0.44177 0.48888 0.80644 0.0
H1687 H 0.41103 0.44954 0.78372 0.0
H1688 H 0.46292 0.42419 0.78485 0.0
H1689 H 0.49338 0.46347 0.80636 0.0
H1690 H 0.47491 0.52658 0.77341 0.0
H1691 H 0.46504 0.51698 0.72807 0.0
H1692 H 0.51496 0.48915 0.7259 0.0
H1693 H 0.52449 0.49869 0.77127 0.0
H1694 H 0.53263 0.57682 0.7858 0.0
H1695 H 0.56513 0.60119 0.75941 0.0
H1696 H 0.59833 0.55723 0.77635 0.0
H1697 H 0.56611 0.53325 0.80291 0.0
H1698 H 0.55085 0.59343 0.8387 0.0
H1699 H 0.5902 0.62706 0.8565 0.0
H1700 H 0.60926 0.5736 0.88173 0.0
H1701 H 0.57008 0.54018 0.86338 0.0
H1702 H 0.52585 0.56831 0.88772 0.0
H1703 H 0.54392 0.57738 0.93113 0.0
H1704 H 0.53959 0.50607 0.92859 0.0
H1705 H 0.52345 0.49803 0.88476 0.0
H1706 H 0.46796 0.51877 0.87719 0.0
H1707 H 0.44547 0.49421 0.91078 0.0
H1708 H 0.45968 0.43634 0.8859 0.0
H1709 H 0.48288 0.46118 0.85337 0.0
O1710 O 0.46697 0.50126 0.68395 0.0
O1711 O 0.49289 0.48722 0.68383 0.0
O1712 O 0.63237 0.64479 0.87935 0.0
O1713 O 0.64179 0.61809 0.8954 0.0
C1714 C 0.48942 0.5031 0.8191 0.0
C1715 C 0.50603 0.51898 0.80306 0.0
C1716 C 0.52823 0.53917 0.81316 0.0
C1717 C 0.53351 0.54403 0.83939 0.0
C1718 C 0.51646 0.52876 0.85555 0.0
C1719 C 0.49422 0.50833 0.84538 0.0
C1720 C 0.46966 0.47882 0.80816 0.0
C1721 C 0.44624 0.47461 0.80201 0.0
C1722 C 0.42877 0.45219 0.78914 0.0
C1723 C 0.43462 0.43384 0.78248 0.0
C1724 C 0.45795 0.43807 0.78942 0.0
C1725 C 0.47531 0.46039 0.80189 0.0
C1726 C 0.50057 0.51355 0.7755 0.0
C1727 C 0.48373 0.51849 0.76306 0.0
C1728 C 0.47813 0.51297 0.73719 0.0
C1729 C 0.48926 0.50236 0.72334 0.0
C1730 C 0.50612 0.49739 0.73597 0.0
C1731 C 0.51168 0.5029 0.76185 0.0
C1732 C 0.54714 0.5534 0.79634 0.0
C1733 C 0.54688 0.57244 0.7837 0.0
C1734 C 0.56538 0.58628 0.7687 0.0
C1735 C 0.58417 0.58102 0.76591 0.0
C1736 C 0.58397 0.56151 0.77807 0.0
C1737 C 0.56571 0.54794 0.79331 0.0
C1738 C 0.55757 0.5644 0.84989 0.0
C1739 C 0.56361 0.58904 0.84795 0.0
C1740 C 0.58607 0.6082 0.85818 0.0
C1741 C 0.60284 0.60301 0.87065 0.0
C1742 C 0.59675 0.57825 0.87236 0.0
C1743 C 0.57437 0.55913 0.86194 0.0
C1744 C 0.52336 0.53254 0.88301 0.0
C1745 C 0.52863 0.55459 0.89664 0.0
C1746 C 0.53884 0.55968 0.92144 0.0
C1747 C 0.54365 0.54264 0.93308 0.0
C1748 C 0.53677 0.51987 0.9199 0.0
C1749 C 0.5271 0.51504 0.89499 0.0
C1750 C 0.47689 0.49171 0.86252 0.0
C1751 C 0.4657 0.50053 0.87864 0.0
C1752 C 0.45281 0.4865 0.89773 0.0
C1753 C 0.45101 0.46349 0.901 0.0
C1754 C 0.46091 0.45408 0.88386 0.0
C1755 C 0.47391 0.46814 0.865 0.0
C1756 C 0.48322 0.49646 0.69586 0.0
C1757 C 0.62653 0.62328 0.88198 0.0
H1758 H 0.63575 0.85181 0.73911 0.0
H1759 H 0.6706 0.70035 0.51457 0.0
H1760 H 0.62356 0.86646 0.58507 0.0
H1761 H 0.63536 0.90926 0.5997 0.0
H1762 H 0.70529 0.92141 0.62802 0.0
H1763 H 0.6938 0.87937 0.61291 0.0
H1764 H 0.61637 0.82658 0.6308 0.0
H1765 H 0.61756 0.83584 0.67583 0.0
H1766 H 0.6914 0.85113 0.68524 0.0
H1767 H 0.69007 0.84214 0.64017 0.0
H1768 H 0.62388 0.76984 0.62527 0.0
H1769 H 0.63688 0.74587 0.65089 0.0
H1770 H 0.70884 0.788 0.628 0.0
H1771 H 0.69591 0.81168 0.60287 0.0
H1772 H 0.61421 0.75252 0.57058 0.0
H1773 H 0.61462 0.71533 0.55483 0.0
H1774 H 0.68605 0.76075 0.5316 0.0
H1775 H 0.68553 0.79772 0.54774 0.0
H1776 H 0.61415 0.77826 0.52077 0.0
H1777 H 0.62003 0.76427 0.47987 0.0
H1778 H 0.68995 0.82997 0.48218 0.0
H1779 H 0.68495 0.84245 0.52402 0.0
H1780 H 0.61692 0.83564 0.52519 0.0
H1781 H 0.62405 0.86289 0.4914 0.0
H1782 H 0.6966 0.91133 0.52505 0.0
H1783 H 0.68976 0.88353 0.55798 0.0
O1784 O 0.63567 0.84822 0.72136 0.0
O1785 O 0.67357 0.85578 0.72521 0.0
O1786 O 0.63344 0.69216 0.53375 0.0
O1787 O 0.67002 0.71472 0.52112 0.0
C1788 C 0.6519 0.84468 0.58811 0.0
C1789 C 0.65201 0.82788 0.60487 0.0
C1790 C 0.65176 0.80629 0.59555 0.0
C1791 C 0.64927 0.8003 0.5695 0.0
C1792 C 0.64828 0.81657 0.55261 0.0
C1793 C 0.65008 0.83907 0.56192 0.0
C1794 C 0.65776 0.86977 0.59813 0.0
C1795 C 0.64137 0.87842 0.59453 0.0
C1796 C 0.64809 0.90275 0.60284 0.0
C1797 C 0.67136 0.91868 0.61457 0.0
C1798 C 0.68744 0.9097 0.61855 0.0
C1799 C 0.68077 0.88558 0.61027 0.0
C1800 C 0.65299 0.83332 0.63228 0.0
C1801 C 0.63276 0.83186 0.64264 0.0
C1802 C 0.6335 0.83717 0.66836 0.0
C1803 C 0.65454 0.84412 0.68416 0.0
C1804 C 0.67486 0.84571 0.67363 0.0
C1805 C 0.6741 0.84042 0.64791 0.0
C1806 C 0.65906 0.79258 0.61249 0.0
C1807 C 0.64248 0.77399 0.62615 0.0
C1808 C 0.64986 0.76033 0.64058 0.0
C1809 C 0.67392 0.7654 0.64164 0.0
C1810 C 0.69035 0.78409 0.62795 0.0
C1811 C 0.68299 0.79754 0.61354 0.0
C1812 C 0.64972 0.77778 0.56006 0.0
C1813 C 0.62993 0.75436 0.56212 0.0
C1814 C 0.63021 0.73317 0.55309 0.0
C1815 C 0.65034 0.73508 0.54186 0.0
C1816 C 0.67024 0.75862 0.54005 0.0
C1817 C 0.66996 0.77977 0.54918 0.0
C1818 C 0.64907 0.81142 0.52543 0.0
C1819 C 0.63049 0.78988 0.51216 0.0
C1820 C 0.63381 0.78202 0.48866 0.0
C1821 C 0.65549 0.79601 0.47773 0.0
C1822 C 0.67317 0.81862 0.49022 0.0
C1823 C 0.67016 0.82604 0.51399 0.0
C1824 C 0.65273 0.85768 0.54421 0.0
C1825 C 0.63415 0.85244 0.52555 0.0
C1826 C 0.63821 0.86807 0.50636 0.0
C1827 C 0.66086 0.88928 0.50568 0.0
C1828 C 0.67899 0.89509 0.5251 0.0
C1829 C 0.67501 0.87938 0.5441 0.0
C1830 C 0.65526 0.84974 0.71148 0.0
C1831 C 0.65067 0.71265 0.53205 0.0
H1832 H 0.16627 0.86888 0.73959 0.0
H1833 H 0.02563 0.67017 0.52164 0.0
H1834 H 0.17525 0.87783 0.60834 0.0
H1835 H 0.2098 0.91488 0.62973 0.0
H1836 H 0.25607 0.88454 0.61493 0.0
H1837 H 0.22116 0.84707 0.59379 0.0
H1838 H 0.13299 0.8391 0.63338 0.0
H1839 H 0.14128 0.85291 0.67805 0.0
H1840 H 0.19882 0.83534 0.68312 0.0
H1841 H 0.19013 0.82129 0.6385 0.0
H1842 H 0.09093 0.7976 0.59414 0.0
H1843 H 0.05751 0.77287 0.61891 0.0
H1844 H 0.10143 0.74838 0.65867 0.0
H1845 H 0.13484 0.77277 0.63326 0.0
H1846 H 0.09377 0.79262 0.54042 0.0
H1847 H 0.05722 0.75623 0.52113 0.0
H1848 H 0.08067 0.70927 0.5552 0.0
H1849 H 0.11742 0.74589 0.57402 0.0
H1850 H 0.13503 0.83117 0.51939 0.0
H1851 H 0.11913 0.81636 0.47573 0.0
H1852 H 0.13456 0.75674 0.48222 0.0
H1853 H 0.15011 0.7715 0.52615 0.0
H1854 H 0.17447 0.87125 0.54462 0.0
H1855 H 0.20021 0.89452 0.5123 0.0
H1856 H 0.23084 0.84652 0.51091 0.0
H1857 H 0.20455 0.82285 0.54274 0.0
O1858 O 0.16304 0.86295 0.72205 0.0
O1859 O 0.19247 0.85368 0.72363 0.0
O1860 O 0.02932 0.70988 0.51107 0.0
O1861 O 0.03991 0.68486 0.52913 0.0
C1862 C 0.17411 0.83639 0.58932 0.0
C1863 C 0.15657 0.82176 0.60539 0.0
C1864 C 0.13482 0.80077 0.5953 0.0
C1865 C 0.13102 0.79405 0.56923 0.0
C1866 C 0.14866 0.80857 0.55331 0.0
C1867 C 0.17015 0.82975 0.56329 0.0
C1868 C 0.19569 0.85972 0.59974 0.0
C1869 C 0.19285 0.8792 0.60962 0.0
C1870 C 0.2125 0.90022 0.6219 0.0
C1871 C 0.23539 0.90223 0.6243 0.0
C1872 C 0.23851 0.88324 0.61341 0.0
C1873 C 0.2187 0.86199 0.6013 0.0
C1874 C 0.16085 0.82904 0.63276 0.0
C1875 C 0.14718 0.83797 0.64424 0.0
C1876 C 0.15204 0.84597 0.66973 0.0
C1877 C 0.17074 0.84526 0.68416 0.0
C1878 C 0.1843 0.83614 0.67257 0.0
C1879 C 0.17936 0.82808 0.6471 0.0
C1880 C 0.11523 0.78673 0.61161 0.0
C1881 C 0.09336 0.78683 0.60809 0.0
C1882 C 0.07433 0.77277 0.62226 0.0
C1883 C 0.0769 0.75859 0.64047 0.0
C1884 C 0.09907 0.75917 0.64469 0.0
C1885 C 0.11808 0.77303 0.63023 0.0
C1886 C 0.10834 0.77188 0.55842 0.0
C1887 C 0.09104 0.77446 0.54358 0.0
C1888 C 0.07015 0.75364 0.53265 0.0
C1889 C 0.06606 0.72983 0.53656 0.0
C1890 C 0.08328 0.72733 0.55177 0.0
C1891 C 0.10425 0.7482 0.56259 0.0
C1892 C 0.14361 0.80233 0.52586 0.0
C1893 C 0.13562 0.81534 0.51116 0.0
C1894 C 0.12654 0.80685 0.48627 0.0
C1895 C 0.12529 0.7852 0.47578 0.0
C1896 C 0.13493 0.77323 0.49004 0.0
C1897 C 0.14394 0.78168 0.51499 0.0
C1898 C 0.18777 0.84548 0.54607 0.0
C1899 C 0.18695 0.86596 0.53753 0.0
C1900 C 0.2015 0.87909 0.51904 0.0
C1901 C 0.21742 0.87222 0.50916 0.0
C1902 C 0.21877 0.85219 0.51832 0.0
C1903 C 0.20387 0.83876 0.53649 0.0
C1904 C 0.17613 0.85417 0.71113 0.0
C1905 C 0.04397 0.70766 0.52479 0.0
H1906 H 0.19416 0.33097 0.75177 0.0
H1907 H 0.00664 0.29254 0.52526 0.0
H1908 H 0.21164 0.36446 0.62795 0.0
H1909 H 0.2455 0.36278 0.64996 0.0
H1910 H 0.22302 0.2925 0.60949 0.0
H1911 H 0.1887 0.29377 0.58825 0.0
H1912 H 0.17135 0.35738 0.6548 0.0
H1913 H 0.18182 0.35302 0.69814 0.0
H1914 H 0.16565 0.27849 0.67672 0.0
H1915 H 0.15502 0.28307 0.63348 0.0
H1916 H 0.12998 0.352 0.64017 0.0
H1917 H 0.09736 0.34141 0.66741 0.0
H1918 H 0.06343 0.26532 0.63729 0.0
H1919 H 0.09666 0.27594 0.61086 0.0
H1920 H 0.11671 0.35837 0.5857 0.0
H1921 H 0.07839 0.35525 0.57031 0.0
H1922 H 0.05253 0.28002 0.5407 0.0
H1923 H 0.09084 0.28338 0.55637 0.0
H1924 H 0.1546 0.36826 0.54153 0.0
H1925 H 0.14138 0.3706 0.49841 0.0
H1926 H 0.11284 0.29213 0.4835 0.0
H1927 H 0.1265 0.29011 0.52645 0.0
H1928 H 0.2076 0.37146 0.5586 0.0
H1929 H 0.23242 0.37552 0.52383 0.0
H1930 H 0.19277 0.29637 0.50732 0.0
H1931 H 0.16867 0.29253 0.54229 0.0
O1932 O 0.18946 0.33213 0.73464 0.0
O1933 O 0.18017 0.29366 0.72283 0.0
O1934 O 0.0358 0.33286 0.5478 0.0
O1935 O 0.02188 0.29427 0.53186 0.0
C1936 C 0.17469 0.32776 0.59741 0.0
C1937 C 0.15731 0.32366 0.61462 0.0
C1938 C 0.13484 0.32121 0.60627 0.0
C1939 C 0.12991 0.32332 0.58084 0.0
C1940 C 0.14711 0.3272 0.56366 0.0
C1941 C 0.16941 0.32916 0.57181 0.0
C1942 C 0.19777 0.32928 0.60644 0.0
C1943 C 0.21431 0.34894 0.62349 0.0
C1944 C 0.23349 0.34792 0.6361 0.0
C1945 C 0.23661 0.32743 0.63145 0.0
C1946 C 0.22095 0.30851 0.61325 0.0
C1947 C 0.20151 0.30932 0.60098 0.0
C1948 C 0.1622 0.32046 0.64113 0.0
C1949 C 0.16974 0.34002 0.65961 0.0
C1950 C 0.17586 0.33752 0.6843 0.0
C1951 C 0.17458 0.3154 0.6909 0.0
C1952 C 0.1668 0.29576 0.67229 0.0
C1953 C 0.16066 0.29828 0.64762 0.0
C1954 C 0.11573 0.31472 0.62366 0.0
C1955 C 0.11567 0.33301 0.63973 0.0
C1956 C 0.09688 0.32696 0.65505 0.0
C1957 C 0.07762 0.30256 0.65424 0.0
C1958 C 0.07804 0.28423 0.63842 0.0
C1959 C 0.09692 0.29027 0.62326 0.0
C1960 C 0.10649 0.32114 0.57202 0.0
C1961 C 0.10268 0.34123 0.57595 0.0
C1962 C 0.08082 0.3394 0.56712 0.0
C1963 C 0.06242 0.31739 0.55419 0.0
C1964 C 0.06632 0.29724 0.55051 0.0
C1965 C 0.08817 0.2991 0.55941 0.0
C1966 C 0.1415 0.32904 0.53697 0.0
C1967 C 0.14594 0.35172 0.52874 0.0
C1968 C 0.13838 0.353 0.50419 0.0
C1969 C 0.12629 0.33159 0.48754 0.0
C1970 C 0.12261 0.30903 0.49569 0.0
C1971 C 0.13021 0.30779 0.52023 0.0
C1972 C 0.18651 0.33168 0.55307 0.0
C1973 C 0.20466 0.35502 0.54772 0.0
C1974 C 0.21858 0.35731 0.52769 0.0
C1975 C 0.21441 0.33627 0.51266 0.0
C1976 C 0.1966 0.31292 0.51863 0.0
C1977 C 0.1828 0.31066 0.5386 0.0
C1978 C 0.18152 0.31297 0.71705 0.0
C1979 C 0.03927 0.3154 0.54449 0.0
C1980 C 0.99416 0.41554 0.09108 0.0
C1981 C 0.01336 0.43096 0.0773 0.0
C1982 C 0.98882 0.42492 0.11254 0.0
C1983 C 0.00246 0.45004 0.12102 0.0
H1984 H 0.9836 0.3959 0.08577 0.0
H1985 H 0.97454 0.41226 0.12314 0.0
S1986 S 0.05251 0.49893 0.09041 0.0
N1987 N 0.0447 0.47327 0.07289 0.0
N1988 N 0.03435 0.49061 0.11305 0.0
C1989 C 0.02087 0.46588 0.10689 0.0
C1990 C 0.02639 0.45643 0.08509 0.0
C1991 C 0.60266 0.57234 0.13969 0.0
C1992 C 0.59032 0.57244 0.11717 0.0
C1993 C 0.58999 0.55941 0.15954 0.0
C1994 C 0.5646 0.54669 0.15768 0.0
H1995 H 0.62218 0.5828 0.14218 0.0
H1996 H 0.60011 0.56002 0.17671 0.0
S1997 S 0.52409 0.54093 0.10235 0.0
N1998 N 0.55153 0.55859 0.09402 0.0
N1999 N 0.5277 0.53417 0.13111 0.0
C2000 C 0.55216 0.54649 0.13512 0.0
C2001 C 0.56503 0.55957 0.115 0.0
C2002 C 0.44193 0.99233 0.0862 0.0
C2003 C 0.42569 0.00135 0.08597 0.0
C2004 C 0.45499 0.99331 0.10859 0.0
C2005 C 0.45178 0.00287 0.13141 0.0
H2006 H 0.4446 0.98461 0.06899 0.0
H2007 H 0.46754 0.9864 0.1081 0.0
S2008 S 0.4079 0.02433 0.14111 0.0
N2009 N 0.40495 0.01734 0.1106 0.0
N2010 N 0.4292 0.01895 0.15268 0.0
C2011 C 0.4349 0.01108 0.13143 0.0
C2012 C 0.4218 0.01023 0.1087 0.0
C2013 C 0.41223 0.99181 0.95525 0.0
C2014 C 0.42655 0.01158 0.97345 0.0
C2015 C 0.42075 0.98972 0.93209 0.0
C2016 C 0.44388 0.00737 0.92618 0.0
H2017 H 0.39421 0.97792 0.95878 0.0
H2018 H 0.40905 0.97434 0.9186 0.0
S2019 S 0.48961 0.06134 0.96778 0.0
N2020 N 0.46586 0.04854 0.98393 0.0
N2021 N 0.48162 0.04407 0.94103 0.0
C2022 C 0.45857 0.02681 0.94434 0.0
C2023 C 0.44999 0.02906 0.96775 0.0
C2024 C 0.00264 0.43235 0.96976 0.0
C2025 C 0.01416 0.4182 0.97017 0.0
C2026 C 0.00337 0.44562 0.94924 0.0
C2027 C 0.015 0.44453 0.92813 0.0
H2028 H 0.99329 0.43341 0.98557 0.0
H2029 H 0.99475 0.45682 0.94989 0.0
S2030 S 0.04412 0.40647 0.9185 0.0
N2031 N 0.03519 0.40155 0.94699 0.0
N2032 N 0.03629 0.42622 0.90803 0.0
C2033 C 0.02585 0.42968 0.92801 0.0
C2034 C 0.02531 0.41639 0.94906 0.0
C2035 C 0.56449 0.5682 0.00115 0.0
C2036 C 0.5842 0.56442 0.00622 0.0
C2037 C 0.55111 0.56064 0.97765 0.0
C2038 C 0.55715 0.54928 0.95829 0.0
H2039 H 0.55935 0.57706 0.01546 0.0
H2040 H 0.53599 0.56379 0.97459 0.0
S2041 S 0.60853 0.53714 0.96149 0.0
N2042 N 0.60968 0.54942 0.98979 0.0
N2043 N 0.58512 0.53596 0.94542 0.0
C2044 C 0.57699 0.54561 0.96311 0.0
C2045 C 0.59037 0.55299 0.98712 0.0
C2046 C 0.01567 0.59888 0.97465 0.0
C2047 C 0.00204 0.58636 0.99409 0.0
C2048 C 0.01824 0.58599 0.95416 0.0
C2049 C 0.00682 0.5601 0.95219 0.0
H2050 H 0.02419 0.6188 0.97514 0.0
H2051 H 0.02868 0.59633 0.9394 0.0
S2052 S 0.96873 0.51878 0.998 0.0
N2053 N 0.97667 0.54682 0.0101 0.0
N2054 N 0.98143 0.52237 0.9714 0.0
C2055 C 0.99294 0.54734 0.97142 0.0
C2056 C 0.99041 0.56053 0.99235 0.0
C2057 C 0.40961 0.43085 0.95178 0.0
C2058 C 0.42382 0.42426 0.96721 0.0
C2059 C 0.41844 0.44386 0.93052 0.0
C2060 C 0.44175 0.45067 0.92389 0.0
H2061 H 0.39139 0.42558 0.95588 0.0
H2062 H 0.40682 0.4482 0.91892 0.0
S2063 S 0.48738 0.44062 0.95903 0.0
N2064 N 0.46335 0.42737 0.9747 0.0
N2065 N 0.47959 0.45195 0.93537 0.0
C2066 C 0.45641 0.44504 0.93952 0.0
C2067 C 0.44755 0.43181 0.96097 0.0
C2068 C 0.56223 0.01523 0.99565 0.0
C2069 C 0.57897 0.00685 0.9965 0.0
C2070 C 0.54853 0.01273 0.97315 0.0
C2071 C 0.5516 0.00228 0.95079 0.0
H2072 H 0.55956 0.02348 0.01248 0.0
H2073 H 0.53549 0.01903 0.97324 0.0
S2074 S 0.59656 0.9819 0.9427 0.0
N2075 N 0.59987 0.99033 0.97292 0.0
N2076 N 0.57472 0.9862 0.93059 0.0
C2077 C 0.56908 0.99482 0.95138 0.0
C2078 C 0.58273 0.99711 0.97424 0.0
C2079 C 0.57749 0.0187 0.11778 0.0
C2080 C 0.58386 0.00069 0.11164 0.0
C2081 C 0.56816 0.01937 0.14073 0.0
C2082 C 0.56513 0.00218 0.15832 0.0
H2083 H 0.5786 0.03152 0.10429 0.0
H2084 H 0.56226 0.03269 0.14419 0.0
S2085 S 0.58287 0.95396 0.15234 0.0
N2086 N 0.58876 0.96691 0.12559 0.0
N2087 N 0.57216 0.96866 0.16901 0.0
C2088 C 0.57296 0.98515 0.15288 0.0
C2089 C 0.58207 0.98427 0.12945 0.0
C2090 C 0.98196 0.57254 0.10698 0.0
C2091 C 0.00344 0.59496 0.10597 0.0
C2092 C 0.97844 0.55856 0.12769 0.0
C2093 C 0.99621 0.56672 0.1481 0.0
H2094 H 0.96838 0.56513 0.09114 0.0
H2095 H 0.96222 0.54075 0.12719 0.0
S2096 S 0.05366 0.62637 0.15616 0.0
N2097 N 0.04144 0.62602 0.12808 0.0
N2098 N 0.03454 0.60027 0.16732 0.0
C2099 C 0.01698 0.58997 0.14795 0.0
C2100 C 0.02067 0.60396 0.1268 0.0
C2101 C 0.42247 0.40648 0.09753 0.0
C2102 C 0.42409 0.4216 0.07833 0.0
C2103 C 0.43592 0.41658 0.12071 0.0
C2104 C 0.45105 0.4422 0.12558 0.0
H2105 H 0.41027 0.38674 0.09481 0.0
H2106 H 0.43374 0.40433 0.13522 0.0
S2107 S 0.46155 0.48957 0.08126 0.0
N2108 N 0.44177 0.46322 0.06545 0.0
N2109 N 0.46736 0.48241 0.10909 0.0
C2110 C 0.45292 0.4575 0.10643 0.0
C2111 C 0.43919 0.44716 0.08283 0.0
C2112 C 0.68978 0.7776 0.43435 0.0
C2113 C 0.67282 0.76472 0.41373 0.0
C2114 C 0.68396 0.78772 0.45474 0.0
C2115 C 0.6611 0.78584 0.4551 0.0
H2116 H 0.70754 0.77936 0.43501 0.0
H2117 H 0.6974 0.79667 0.47059 0.0
S2118 S 0.61105 0.75566 0.40441 0.0
N2119 N 0.63263 0.75127 0.39417 0.0
N2120 N 0.62188 0.77126 0.43215 0.0
C2121 C 0.64413 0.77344 0.43424 0.0
C2122 C 0.64995 0.76268 0.41363 0.0
C2123 C 0.23383 0.90001 0.44693 0.0
C2124 C 0.25912 0.91142 0.44914 0.0
C2125 C 0.22045 0.88706 0.46632 0.0
C2126 C 0.23196 0.88548 0.48873 0.0
H2127 H 0.22434 0.90102 0.43003 0.0
H2128 H 0.20095 0.87824 0.46378 0.0
S2129 S 0.2979 0.91582 0.50541 0.0
N2130 N 0.29526 0.92284 0.47652 0.0
N2131 N 0.27011 0.89821 0.51288 0.0
C2132 C 0.25727 0.89741 0.49144 0.0
C2133 C 0.27087 0.91062 0.47172 0.0
C2134 C 0.08849 0.34293 0.43879 0.0
C2135 C 0.09024 0.33125 0.41668 0.0
C2136 C 0.10086 0.34358 0.46141 0.0
C2137 C 0.1152 0.33228 0.46279 0.0
H2138 H 0.07714 0.3513 0.43868 0.0
H2139 H 0.09861 0.3524 0.47808 0.0
S2140 S 0.12573 0.29944 0.4099 0.0
N2141 N 0.10702 0.30792 0.3973 0.0
N2142 N 0.13092 0.30959 0.43983 0.0
C2143 C 0.11713 0.32055 0.44072 0.0
C2144 C 0.10434 0.31977 0.41768 0.0
C2145 C 0.07836 0.32269 0.28642 0.0
C2146 C 0.09337 0.34152 0.30523 0.0
C2147 C 0.08693 0.32023 0.26342 0.0
C2148 C 0.11078 0.33656 0.25835 0.0
H2149 H 0.05977 0.30994 0.2893 0.0
H2150 H 0.07472 0.30572 0.24936 0.0
S2151 S 0.15835 0.38721 0.30183 0.0
N2152 N 0.13407 0.37584 0.31725 0.0
N2153 N 0.14982 0.37065 0.2746 0.0
C2154 C 0.12615 0.35486 0.27717 0.0
C2155 C 0.11755 0.3575 0.30041 0.0
C2156 C 0.69093 0.74992 0.28721 0.0
C2157 C 0.6768 0.75075 0.30593 0.0
C2158 C 0.69306 0.76235 0.26557 0.0
C2159 C 0.68062 0.77542 0.26182 0.0
H2160 H 0.70015 0.73939 0.28919 0.0
H2161 H 0.70411 0.76138 0.2515 0.0
S2162 S 0.64183 0.78354 0.30561 0.0
N2163 N 0.65044 0.76575 0.31955 0.0
N2164 N 0.65445 0.7892 0.27891 0.0
C2165 C 0.66647 0.77635 0.28044 0.0
C2166 C 0.66438 0.76379 0.30242 0.0
C2167 C 0.24336 0.88146 0.32697 0.0
C2168 C 0.25349 0.90595 0.33762 0.0
C2169 C 0.23088 0.87413 0.30305 0.0
C2170 C 0.22782 0.89089 0.28885 0.0
H2171 H 0.2454 0.86783 0.33697 0.0
H2172 H 0.22378 0.85522 0.29546 0.0
S2173 S 0.25032 0.95695 0.30768 0.0
N2174 N 0.2591 0.9469 0.33182 0.0
N2175 N 0.23562 0.93288 0.28689 0.0
C2176 C 0.23724 0.91521 0.29933 0.0
C2177 C 0.25006 0.92279 0.32368 0.0
C2178 C 0.69027 0.93133 0.30832 0.0
C2179 C 0.67766 0.91928 0.32848 0.0
C2180 C 0.69349 0.91825 0.28852 0.0
C2181 C 0.68412 0.89258 0.28813 0.0
H2182 H 0.69751 0.95103 0.30772 0.0
H2183 H 0.70291 0.92828 0.27311 0.0
S2184 S 0.6494 0.85252 0.33662 0.0
N2185 N 0.65511 0.88041 0.34683 0.0
N2186 N 0.66184 0.85566 0.30991 0.0
C2187 C 0.67131 0.88029 0.30821 0.0
C2188 C 0.66778 0.89366 0.32825 0.0
C2189 C 0.08312 0.77625 0.28924 0.0
C2190 C 0.08024 0.7526 0.29135 0.0
C2191 C 0.09539 0.7905 0.26983 0.0
C2192 C 0.10505 0.78149 0.25188 0.0
H2193 H 0.07696 0.78427 0.30334 0.0
H2194 H 0.09821 0.80905 0.26951 0.0
S2195 S 0.09857 0.71905 0.24682 0.0
N2196 N 0.08559 0.71979 0.2723 0.0
N2197 N 0.10809 0.74623 0.23575 0.0
C2198 C 0.10085 0.75726 0.25296 0.0
C2199 C 0.08858 0.74292 0.2727 0.0
C2200 C 0.24449 0.32611 0.30927 0.0
C2201 C 0.24272 0.33863 0.33071 0.0
C2202 C 0.2312 0.3235 0.2866 0.0
C2203 C 0.21566 0.3334 0.28447 0.0
H2204 H 0.25659 0.31861 0.30991 0.0
H2205 H 0.2337 0.31423 0.27045 0.0
S2206 S 0.20446 0.36754 0.33563 0.0
N2207 N 0.22469 0.36132 0.3487 0.0
N2208 N 0.19872 0.35557 0.30627 0.0
C2209 C 0.21361 0.34586 0.30596 0.0
C2210 C 0.2275 0.34881 0.329 0.0
C2211 C 0.24664 0.32094 0.46362 0.0
C2212 C 0.24842 0.33658 0.44489 0.0
C2213 C 0.23676 0.3219 0.486 0.0
C2214 C 0.22788 0.33824 0.49033 0.0
H2215 H 0.25231 0.30735 0.46062 0.0
H2216 H 0.23542 0.3092 0.49973 0.0
S2217 S 0.228 0.38267 0.44659 0.0
N2218 N 0.24085 0.36899 0.43191 0.0
N2219 N 0.22157 0.37045 0.4737 0.0
C2220 C 0.23013 0.35443 0.47189 0.0
C2221 C 0.24052 0.35363 0.4492 0.0
C2222 C 0.69303 0.92196 0.45036 0.0
C2223 C 0.67781 0.92999 0.43939 0.0
C2224 C 0.68749 0.90918 0.47191 0.0
C2225 C 0.66654 0.9039 0.48354 0.0
H2226 H 0.70926 0.92516 0.44207 0.0
H2227 H 0.69951 0.9029 0.47921 0.0
S2228 S 0.62134 0.92202 0.46369 0.0
N2229 N 0.64117 0.93247 0.44267 0.0
N2230 N 0.631 0.90854 0.4834 0.0
C2231 C 0.65132 0.91211 0.47319 0.0
C2232 C 0.65691 0.92515 0.45113 0.0
C2233 C 0.1011 0.77816 0.40777 0.0
C2234 C 0.08292 0.75331 0.40465 0.0
C2235 C 0.11545 0.78822 0.4306 0.0
C2236 C 0.1116 0.77384 0.45111 0.0
H2237 H 0.10429 0.7898 0.39248 0.0
H2238 H 0.12947 0.80741 0.43231 0.0
S2239 S 0.06324 0.70895 0.45338 0.0
N2240 N 0.06008 0.71528 0.42433 0.0
N2241 N 0.08654 0.73421 0.46741 0.0
C2242 C 0.09286 0.74915 0.44831 0.0
C2243 C 0.07853 0.73891 0.42506 0.0
C2244 C 0.35344 0.11683 0.75481 0.0
C2245 C 0.3388 0.09189 0.74562 0.0
C2246 C 0.34874 0.12636 0.77654 0.0
C2247 C 0.32911 0.11144 0.78988 0.0
H2248 H 0.3691 0.12908 0.74556 0.0
H2249 H 0.36089 0.14546 0.78329 0.0
S2250 S 0.28443 0.04541 0.77355 0.0
N2251 N 0.30302 0.05274 0.75132 0.0
N2252 N 0.29442 0.07089 0.79222 0.0
C2253 C 0.31373 0.08682 0.78053 0.0
C2254 C 0.31851 0.07699 0.7584 0.0
C2255 C 0.93087 0.23828 0.80086 0.0
C2256 C 0.92084 0.24646 0.78233 0.0
C2257 C 0.91745 0.22488 0.82005 0.0
C2258 C 0.89401 0.22103 0.82318 0.0
H2259 H 0.94933 0.24228 0.80059 0.0
H2260 H 0.92596 0.21758 0.83225 0.0
S2261 S 0.86309 0.24672 0.78336 0.0
N2262 N 0.88763 0.25305 0.76963 0.0
N2263 N 0.8643 0.23263 0.80816 0.0
C2264 C 0.88504 0.23196 0.80605 0.0
C2265 C 0.89803 0.24373 0.78532 0.0
C2266 C 0.75721 0.68141 0.77126 0.0
C2267 C 0.75754 0.66836 0.74942 0.0
C2268 C 0.77062 0.68303 0.7935 0.0
C2269 C 0.78451 0.67124 0.79483 0.0
H2270 H 0.74606 0.69001 0.77129 0.0
H2271 H 0.76941 0.69284 0.81004 0.0
S2272 S 0.7916 0.63505 0.74259 0.0
N2273 N 0.77286 0.64358 0.7302 0.0
N2274 N 0.79832 0.64664 0.77213 0.0
C2275 C 0.78513 0.65826 0.77301 0.0
C2276 C 0.77145 0.65667 0.75031 0.0
C2277 C 0.74643 0.68065 0.61491 0.0
C2278 C 0.74951 0.66975 0.63608 0.0
C2279 C 0.75622 0.67914 0.59256 0.0
C2280 C 0.77001 0.66722 0.59073 0.0
H2281 H 0.73696 0.691 0.61587 0.0
H2282 H 0.75347 0.68798 0.5768 0.0
S2283 S 0.78346 0.63612 0.64161 0.0
N2284 N 0.76649 0.64613 0.65399 0.0
N2285 N 0.78622 0.64448 0.61271 0.0
C2286 C 0.77277 0.65584 0.61185 0.0
C2287 C 0.76226 0.6569 0.63436 0.0
C2288 C 0.32992 0.09416 0.63561 0.0
C2289 C 0.34143 0.08003 0.63695 0.0
C2290 C 0.33162 0.10768 0.61498 0.0
C2291 C 0.34427 0.10689 0.59465 0.0
H2292 H 0.31993 0.09513 0.65084 0.0
H2293 H 0.32309 0.11897 0.61505 0.0
S2294 S 0.37368 0.0688 0.58737 0.0
N2295 N 0.36349 0.06363 0.61531 0.0
N2296 N 0.36632 0.08863 0.57615 0.0
C2297 C 0.35498 0.09191 0.59537 0.0
C2298 C 0.35348 0.07841 0.61655 0.0
C2299 C 0.91282 0.25817 0.65667 0.0
C2300 C 0.91293 0.24004 0.67133 0.0
C2301 C 0.90072 0.25189 0.63251 0.0
C2302 C 0.88835 0.22729 0.62214 0.0
H2303 H 0.92292 0.2775 0.66346 0.0
H2304 H 0.90196 0.26649 0.62146 0.0
S2305 S 0.87984 0.17239 0.65364 0.0
N2306 N 0.89712 0.19595 0.67431 0.0
N2307 N 0.87462 0.18446 0.62895 0.0
C2308 C 0.88711 0.20886 0.63696 0.0
C2309 C 0.89932 0.21515 0.66154 0.0
C2310 C 0.35149 0.26415 0.64229 0.0
C2311 C 0.33798 0.25162 0.6618 0.0
C2312 C 0.35433 0.2513 0.62197 0.0
C2313 C 0.34328 0.22544 0.62024 0.0
H2314 H 0.35964 0.28402 0.64257 0.0
H2315 H 0.36463 0.26161 0.60712 0.0
S2316 S 0.30564 0.18411 0.66627 0.0
N2317 N 0.31316 0.21211 0.67814 0.0
N2318 N 0.31837 0.18773 0.63969 0.0
C2319 C 0.32955 0.21267 0.63954 0.0
C2320 C 0.32677 0.22582 0.66032 0.0
C2321 C 0.78171 0.11589 0.63425 0.0
C2322 C 0.75659 0.10061 0.63428 0.0
C2323 C 0.79197 0.12912 0.61379 0.0
C2324 C 0.77768 0.12744 0.59207 0.0
H2325 H 0.7938 0.11731 0.64997 0.0
H2326 H 0.81144 0.14044 0.61484 0.0
S2327 S 0.71085 0.0904 0.58246 0.0
N2328 N 0.71748 0.08521 0.61096 0.0
N2329 N 0.73686 0.10965 0.57199 0.0
C2330 C 0.75242 0.11288 0.592 0.0
C2331 C 0.74188 0.09956 0.61318 0.0
C2332 C 0.89926 0.65707 0.6514 0.0
C2333 C 0.9069 0.67667 0.66976 0.0
C2334 C 0.88605 0.65554 0.6291 0.0
C2335 C 0.88255 0.67523 0.62233 0.0
H2336 H 0.90442 0.64317 0.65368 0.0
H2337 H 0.87949 0.6389 0.61685 0.0
S2338 S 0.90239 0.73303 0.66355 0.0
N2339 N 0.91018 0.71631 0.68053 0.0
N2340 N 0.88981 0.71637 0.63664 0.0
C2341 C 0.89102 0.69567 0.64053 0.0
C2342 C 0.9025 0.69592 0.66438 0.0
C2343 C 0.91595 0.69722 0.78837 0.0
C2344 C 0.9251 0.68105 0.78483 0.0
C2345 C 0.90575 0.69831 0.8106 0.0
C2346 C 0.90423 0.68309 0.82981 0.0
H2347 H 0.915 0.70764 0.77318 0.0
H2348 H 0.89745 0.70977 0.81199 0.0
S2349 S 0.9287 0.64021 0.8307 0.0
N2350 N 0.93418 0.65142 0.80306 0.0
N2351 N 0.9154 0.65366 0.8449 0.0
C2352 C 0.91501 0.6683 0.82712 0.0
C2353 C 0.92532 0.6672 0.80458 0.0
C2354 C 0.35622 0.26654 0.79242 0.0
C2355 C 0.33816 0.25966 0.77262 0.0
C2356 C 0.35224 0.25243 0.81297 0.0
C2357 C 0.33016 0.23066 0.81435 0.0
H2358 H 0.37374 0.28279 0.79186 0.0
H2359 H 0.36677 0.25839 0.82769 0.0
S2360 S 0.27713 0.20441 0.76705 0.0
N2361 N 0.29727 0.22989 0.7557 0.0
N2362 N 0.28998 0.20288 0.794 0.0
C2363 C 0.31173 0.22385 0.7949 0.0
C2364 C 0.3157 0.23845 0.77411 0.0
C2365 C 0.75388 0.07396 0.76211 0.0
C2366 C 0.75522 0.09051 0.74454 0.0
C2367 C 0.76666 0.08252 0.78581 0.0
C2368 C 0.78073 0.10789 0.79279 0.0
H2369 H 0.7424 0.05426 0.75771 0.0
H2370 H 0.76478 0.06927 0.79909 0.0
S2371 S 0.79004 0.1587 0.75381 0.0
N2372 N 0.77165 0.13332 0.7357 0.0
N2373 N 0.79557 0.14949 0.78054 0.0
C2374 C 0.7823 0.12463 0.77544 0.0
C2375 C 0.76938 0.11591 0.75127 0.0
C2376 C 0.06226 0.35257 0.06392 0.0
C2377 C 0.06285 0.37522 0.06822 0.0
C2378 C 0.0755 0.34582 0.08034 0.0
C2379 C 0.08942 0.36132 0.10178 0.0
H2380 H 0.0523 0.34049 0.04726 0.0
H2381 H 0.07561 0.32883 0.07563 0.0
S2382 S 0.09336 0.42059 0.12341 0.0
N2383 N 0.07632 0.41193 0.09653 0.0
N2384 N 0.1004 0.39885 0.12792 0.0
C2385 C 0.08883 0.38328 0.10701 0.0
C2386 C 0.07575 0.39033 0.09008 0.0
C2387 C 0.66356 0.69372 0.11597 0.0
C2388 C 0.65223 0.68483 0.09149 0.0
C2389 C 0.6702 0.71763 0.12578 0.0
C2390 C 0.66569 0.73344 0.11148 0.0
H2391 H 0.66665 0.68189 0.12798 0.0
H2392 H 0.67808 0.72344 0.14499 0.0
S2393 S 0.63945 0.7205 0.04546 0.0
N2394 N 0.63887 0.69477 0.05246 0.0
N2395 N 0.65142 0.73964 0.07101 0.0
C2396 C 0.65549 0.72529 0.08665 0.0
C2397 C 0.64876 0.70101 0.07661 0.0
C2398 C 0.29795 0.93525 0.0463 0.0
C2399 C 0.3173 0.95597 0.06011 0.0
C2400 C 0.27597 0.92089 0.05671 0.0
C2401 C 0.27251 0.92694 0.08116 0.0
H2402 H 0.29984 0.92995 0.02743 0.0
H2403 H 0.26159 0.90498 0.04558 0.0
S2404 S 0.31759 0.97831 0.12581 0.0
N2405 N 0.33143 0.98112 0.10014 0.0
N2406 N 0.29041 0.95419 0.11926 0.0
C2407 C 0.29165 0.94745 0.09516 0.0
C2408 C 0.31394 0.96195 0.08475 0.0
C2409 C 0.37594 0.07862 0.02448 0.0
C2410 C 0.36996 0.05534 0.01312 0.0
C2411 C 0.36542 0.092 0.015 0.0
C2412 C 0.34876 0.08277 0.99359 0.0
H2413 H 0.3889 0.08663 0.04081 0.0
H2414 H 0.37065 0.1099 0.0243 0.0
S2415 S 0.32811 0.0233 0.95604 0.0
N2416 N 0.34659 0.02373 0.97911 0.0
N2417 N 0.32748 0.04926 0.96074 0.0
C2418 C 0.34257 0.05945 0.98207 0.0
C2419 C 0.35303 0.04567 0.99196 0.0
C2420 C 0.94815 0.29097 0.00658 0.0
C2421 C 0.96518 0.3088 0.99247 0.0
C2422 C 0.93024 0.268 0.99516 0.0
C2423 C 0.92853 0.26235 0.96923 0.0
H2424 H 0.94845 0.29489 0.02651 0.0
H2425 H 0.91717 0.25487 0.00653 0.0
S2426 S 0.96884 0.30202 0.92393 0.0
N2427 N 0.97953 0.31868 0.95114 0.0
N2428 N 0.94546 0.27569 0.92984 0.0
C2429 C 0.94559 0.27969 0.95498 0.0
C2430 C 0.96407 0.30289 0.96658 0.0
C2431 C 0.7029 0.61151 0.03696 0.0
C2432 C 0.68563 0.61907 0.03306 0.0
C2433 C 0.7224 0.61919 0.02218 0.0
C2434 C 0.72534 0.63457 0.00273 0.0
H2435 H 0.70139 0.59957 0.05159 0.0
H2436 H 0.73531 0.61302 0.02606 0.0
S2437 S 0.68414 0.65805 0.98349 0.0
N2438 N 0.67234 0.64219 0.00762 0.0
N2439 N 0.70855 0.65605 0.9796 0.0
C2440 C 0.7081 0.64212 0.99851 0.0
C2441 C 0.68838 0.63451 0.0137 0.0
C2442 C 0.95638 0.65571 0.98289 0.0
C2443 C 0.95497 0.65233 0.00865 0.0
C2444 C 0.94023 0.66085 0.96928 0.0
C2445 C 0.92236 0.66327 0.98101 0.0
H2446 H 0.96958 0.65361 0.97289 0.0
H2447 H 0.94152 0.66264 0.94937 0.0
S2448 S 0.91143 0.65723 0.04807 0.0
N2449 N 0.93449 0.6525 0.04544 0.0
N2450 N 0.90435 0.6625 0.01981 0.0
C2451 C 0.92114 0.66071 0.00684 0.0
C2452 C 0.93738 0.65515 0.02068 0.0
C2453 C 0.36676 0.31734 0.96109 0.0
C2454 C 0.36285 0.3192 0.98634 0.0
C2455 C 0.35708 0.29424 0.94761 0.0
C2456 C 0.34343 0.27229 0.95908 0.0
H2457 H 0.37781 0.33382 0.9519 0.0
H2458 H 0.3608 0.29352 0.92824 0.0
S2459 S 0.32882 0.26776 0.02526 0.0
N2460 N 0.34451 0.29771 0.02241 0.0
N2461 N 0.32688 0.25412 0.99744 0.0
C2462 C 0.33912 0.27408 0.98432 0.0
C2463 C 0.34877 0.29762 0.9979 0.0
C2464 C 0.69359 0.04442 0.00259 0.0
C2465 C 0.68866 0.0529 0.02507 0.0
C2466 C 0.71543 0.05827 0.9922 0.0
C2467 C 0.73327 0.08126 0.00376 0.0
H2468 H 0.6803 0.02706 0.99259 0.0
H2469 H 0.71803 0.05126 0.97448 0.0
S2470 S 0.73028 0.1112 0.06369 0.0
N2471 N 0.7041 0.08532 0.05924 0.0
N2472 N 0.74527 0.1114 0.03956 0.0
C2473 C 0.72897 0.08973 0.02658 0.0
C2474 C 0.70669 0.07552 0.0373 0.0
C2475 C 0.62295 0.92785 0.06426 0.0
C2476 C 0.63425 0.95356 0.07014 0.0
C2477 C 0.63227 0.91382 0.07465 0.0
C2478 C 0.6533 0.92488 0.09126 0.0
H2479 H 0.60647 0.91829 0.05187 0.0
H2480 H 0.62264 0.89403 0.07004 0.0
S2481 S 0.69037 0.99139 0.11236 0.0
N2482 N 0.66827 0.98957 0.09322 0.0
N2483 N 0.68559 0.96294 0.11281 0.0
C2484 C 0.66532 0.95058 0.09671 0.0
C2485 C 0.65584 0.96498 0.08614 0.0
C2486 C 0.07955 0.70921 0.07709 0.0
C2487 C 0.0542 0.69662 0.07672 0.0
C2488 C 0.09379 0.73182 0.09108 0.0
C2489 C 0.08339 0.74294 0.10527 0.0
H2490 H 0.08865 0.70141 0.06678 0.0
H2491 H 0.11322 0.74062 0.09096 0.0
S2492 S 0.01812 0.71877 0.10993 0.0
N2493 N 0.01927 0.69774 0.09115 0.0
N2494 N 0.04639 0.74054 0.11749 0.0
C2495 C 0.05815 0.73124 0.10446 0.0
C2496 C 0.04348 0.70802 0.09018 0.0
C2497 C 0.29569 0.3676 0.04166 0.0
C2498 C 0.31524 0.36669 0.0541 0.0
C2499 C 0.27487 0.36226 0.05377 0.0
C2500 C 0.27312 0.35621 0.07878 0.0
H2501 H 0.29654 0.37263 0.02255 0.0
H2502 H 0.26033 0.36347 0.04375 0.0
S2503 S 0.31856 0.35062 0.11966 0.0
N2504 N 0.33082 0.35849 0.09297 0.0
N2505 N 0.29201 0.34892 0.11534 0.0
C2506 C 0.29225 0.35489 0.09126 0.0
C2507 C 0.31322 0.36001 0.07903 0.0
C2508 C 0.72341 0.68736 0.40258 0.0
C2509 C 0.72269 0.70925 0.40741 0.0
C2510 C 0.73751 0.68136 0.41869 0.0
C2511 C 0.75102 0.69693 0.44026 0.0
H2512 H 0.714 0.67547 0.38565 0.0
H2513 H 0.73879 0.6651 0.41353 0.0
S2514 S 0.75137 0.75406 0.46322 0.0
N2515 N 0.73427 0.74507 0.43637 0.0
N2516 N 0.75998 0.73339 0.46719 0.0
C2517 C 0.74891 0.71793 0.44611 0.0
C2518 C 0.73495 0.72421 0.42952 0.0
C2519 C 0.33224 0.02772 0.45483 0.0
C2520 C 0.32818 0.02217 0.42868 0.0
C2521 C 0.33851 0.05124 0.46551 0.0
C2522 C 0.34146 0.07011 0.45039 0.0
H2523 H 0.32944 0.01351 0.46721 0.0
H2524 H 0.34043 0.05452 0.48574 0.0
S2525 S 0.33492 0.06587 0.38106 0.0
N2526 N 0.32891 0.03802 0.38794 0.0
N2527 N 0.34115 0.08234 0.40817 0.0
C2528 C 0.33867 0.06525 0.42428 0.0
C2529 C 0.3319 0.04122 0.41337 0.0
C2530 C 0.97634 0.29811 0.40933 0.0
C2531 C 0.98138 0.28879 0.38745 0.0
C2532 C 0.95467 0.28454 0.42017 0.0
C2533 C 0.93704 0.26095 0.40972 0.0
H2534 H 0.98946 0.31596 0.41856 0.0
H2535 H 0.9521 0.29229 0.43743 0.0
S2536 S 0.9403 0.2287 0.3515 0.0
N2537 N 0.96622 0.25493 0.35492 0.0
N2538 N 0.92535 0.22935 0.37535 0.0
C2539 C 0.94141 0.25164 0.3874 0.0
C2540 C 0.96354 0.26559 0.37621 0.0
C2541 C 0.05274 0.41033 0.3313 0.0
C2542 C 0.0389 0.38924 0.34377 0.0
C2543 C 0.04271 0.42404 0.32158 0.0
C2544 C 0.01855 0.41751 0.32439 0.0
H2545 H 0.07133 0.41599 0.32849 0.0
H2546 H 0.05391 0.43962 0.31132 0.0
S2547 S 0.97539 0.36502 0.35775 0.0
N2548 N 1.00018 0.36294 0.35949 0.0
N2549 N 0.98154 0.38929 0.3421 0.0
C2550 C 0.00468 0.39675 0.33742 0.0
C2551 C 0.01481 0.3825 0.34693 0.0
C2552 C 0.63103 0.63142 0.31245 0.0
C2553 C 0.62637 0.64089 0.3345 0.0
C2554 C 0.61406 0.60829 0.30055 0.0
C2555 C 0.59184 0.59396 0.31023 0.0
H2556 H 0.64755 0.64229 0.30379 0.0
H2557 H 0.61788 0.60203 0.28312 0.0
S2558 S 0.57179 0.60849 0.36883 0.0
N2559 N 0.59859 0.63272 0.36669 0.0
N2560 N 0.56675 0.5894 0.34402 0.0
C2561 C 0.58741 0.60249 0.33284 0.0
C2562 C 0.60468 0.62591 0.34508 0.0
C2563 C 0.36342 0.97101 0.35276 0.0
C2564 C 0.35585 0.95094 0.36769 0.0
C2565 C 0.38286 0.97771 0.33812 0.0
C2566 C 0.39565 0.96472 0.33786 0.0
H2567 H 0.35387 0.98128 0.3518 0.0
H2568 H 0.38751 0.9928 0.3264 0.0
S2569 S 0.38505 0.91262 0.3757 0.0
N2570 N 0.36392 0.91924 0.38253 0.0
N2571 N 0.40071 0.93221 0.35545 0.0
C2572 C 0.38887 0.94521 0.35335 0.0
C2573 C 0.36896 0.93824 0.36814 0.0
C2574 C 0.61119 0.98616 0.35053 0.0
C2575 C 0.62821 0.98285 0.3379 0.0
C2576 C 0.59398 0.99023 0.33746 0.0
C2577 C 0.59294 0.99072 0.31126 0.0
H2578 H 0.61094 0.98531 0.37063 0.0
H2579 H 0.5809 0.99222 0.34782 0.0
S2580 S 0.63376 0.98401 0.26935 0.0
N2581 N 0.64337 0.98127 0.29762 0.0
N2582 N 0.61075 0.98853 0.27321 0.0
C2583 C 0.61006 0.98793 0.29844 0.0
C2584 C 0.6278 0.98413 0.31173 0.0
C2585 C 0.02027 0.64763 0.28922 0.0
C2586 C 0.01871 0.65009 0.31506 0.0
C2587 C 0.01156 0.6243 0.2765 0.0
C2588 C 1.00107 0.60274 0.28928 0.0
H2589 H 0.02923 0.66389 0.27902 0.0
H2590 H 0.01383 0.62316 0.25672 0.0
S2591 S 0.99253 0.59972 0.35707 0.0
N2592 N 0.00544 0.62943 0.35293 0.0
N2593 N 0.98927 0.5855 0.3292 0.0
C2594 C 0.99864 0.60503 0.315 0.0
C2595 C 0.0075 0.62878 0.32788 0.0
C2596 C 0.3577 0.37611 0.33425 0.0
C2597 C 0.35273 0.38527 0.35627 0.0
C2598 C 0.3791 0.39009 0.32306 0.0
C2599 C 0.3964 0.41392 0.33329 0.0
H2600 H 0.3448 0.35806 0.32527 0.0
H2601 H 0.38178 0.38243 0.30581 0.0
S2602 S 0.39299 0.44607 0.39146 0.0
N2603 N 0.36753 0.41941 0.38849 0.0
N2604 N 0.40778 0.44569 0.36736 0.0
C2605 C 0.39201 0.42314 0.35561 0.0
C2606 C 0.37022 0.40881 0.36715 0.0
C2607 C 0.32046 0.29099 0.40169 0.0
C2608 C 0.29739 0.28626 0.40716 0.0
C2609 C 0.33016 0.27667 0.41084 0.0
C2610 C 0.31714 0.25733 0.42588 0.0
H2611 H 0.33078 0.30538 0.38973 0.0
H2612 H 0.34772 0.28045 0.40574 0.0
S2613 S 0.25767 0.24031 0.44874 0.0
N2614 N 0.26283 0.26257 0.43038 0.0
N2615 N 0.28125 0.23623 0.44815 0.0
C2616 C 0.29455 0.25328 0.43239 0.0
C2617 C 0.28463 0.2676 0.42287 0.0
C2618 C 0.71659 0.04161 0.42165 0.0
C2619 C 0.72837 0.03182 0.40754 0.0
C2620 C 0.72969 0.06451 0.43587 0.0
C2621 C 0.75493 0.07828 0.43644 0.0
H2622 H 0.69723 0.03116 0.42241 0.0
H2623 H 0.72013 0.07111 0.44709 0.0
S2624 S 0.7941 0.06301 0.40014 0.0
N2625 N 0.76671 0.03928 0.39324 0.0
N2626 N 0.79098 0.0821 0.41981 0.0
C2627 C 0.76676 0.0694 0.42148 0.0
C2628 C 0.75357 0.04623 0.40708 0.0
C2629 C 0.96292 0.71623 0.376 0.0
C2630 C 0.97352 0.70122 0.3783 0.0
C2631 C 0.9437 0.71278 0.38998 0.0
C2632 C 0.93411 0.69387 0.40632 0.0
H2633 H 0.97023 0.73146 0.36424 0.0
H2634 H 0.93654 0.72522 0.38833 0.0
S2635 S 0.95438 0.64857 0.41779 0.0
N2636 N 0.97219 0.66602 0.39732 0.0
N2637 N 0.93605 0.65944 0.42323 0.0
C2638 C 0.94389 0.67813 0.40795 0.0
C2639 C 0.96359 0.68183 0.39403 0.0
C2640 C 0.40618 0.05512 0.75551 0.0
C2641 C 0.39128 0.03871 0.7351 0.0
C2642 C 0.4202 0.04916 0.77163 0.0
C2643 C 0.42026 0.02676 0.7677 0.0
H2644 H 0.40716 0.07283 0.75894 0.0
H2645 H 0.43148 0.06249 0.78703 0.0
S2646 S 0.38446 0.97761 0.71649 0.0
N2647 N 0.37688 0.99897 0.71195 0.0
N2648 N 0.40407 0.9881 0.74157 0.0
C2649 C 0.40502 0.00995 0.74756 0.0
C2650 C 0.39036 0.01587 0.73141 0.0
C2651 C 0.99704 0.36147 0.78759 0.0
C2652 C 0.99282 0.35609 0.76142 0.0
C2653 C 0.00357 0.38499 0.79848 0.0
C2654 C 0.00663 0.40404 0.78355 0.0
H2655 H 0.99408 0.34712 0.79983 0.0
H2656 H 0.00553 0.38812 0.81872 0.0
S2657 S 0.99995 0.40026 0.71422 0.0
N2658 N 0.9937 0.37228 0.72086 0.0
N2659 N 0.00638 0.4166 0.74146 0.0
C2660 C 0.00379 0.39934 0.75741 0.0
C2661 C 0.99677 0.37532 0.74629 0.0
C2662 C 0.63207 0.60015 0.71979 0.0
C2663 C 0.64735 0.62539 0.72716 0.0
C2664 C 0.61128 0.58595 0.732 0.0
C2665 C 0.60479 0.59663 0.75159 0.0
H2666 H 0.6367 0.59107 0.7052 0.0
H2667 H 0.6004 0.56639 0.72635 0.0
S2668 S 0.63781 0.66219 0.77692 0.0
N2669 N 0.6539 0.66064 0.75465 0.0
N2670 N 0.61475 0.63401 0.7772 0.0
C2671 C 0.61938 0.62199 0.75845 0.0
C2672 C 0.64068 0.63636 0.74633 0.0
C2673 C 0.68037 0.71154 0.66228 0.0
C2674 C 0.70215 0.72331 0.67798 0.0
C2675 C 0.67058 0.72511 0.65152 0.0
C2676 C 0.68216 0.7509 0.65615 0.0
H2677 H 0.67125 0.6918 0.65749 0.0
H2678 H 0.65443 0.7155 0.63863 0.0
S2679 S 0.73744 0.79032 0.69858 0.0
N2680 N 0.73357 0.76224 0.69946 0.0
N2681 N 0.71492 0.78744 0.6794 0.0
C2682 C 0.70309 0.76273 0.67286 0.0
C2683 C 0.71315 0.74903 0.68373 0.0
C2684 C 0.29463 0.96195 0.63879 0.0
C2685 C 0.29248 0.97007 0.66296 0.0
C2686 C 0.27658 0.93936 0.62673 0.0
C2687 C 0.25577 0.92421 0.63841 0.0
H2688 H 0.30985 0.97354 0.62864 0.0
H2689 H 0.27841 0.93426 0.60775 0.0
S2690 S 0.24292 0.93496 0.7028 0.0
N2691 N 0.26893 0.95964 0.69907 0.0
N2692 N 0.23512 0.91731 0.67627 0.0
C2693 C 0.25405 0.93133 0.66305 0.0
C2694 C 0.27239 0.95422 0.67538 0.0
C2695 C 0.02773 0.26893 0.697 0.0
C2696 C 0.016 0.283 0.69754 0.0
C2697 C 0.04772 0.27546 0.68318 0.0
C2698 C 0.05678 0.29629 0.66928 0.0
H2699 H 0.02153 0.25278 0.70746 0.0
H2700 H 0.05625 0.26417 0.6835 0.0
S2701 S 0.03168 0.33835 0.66281 0.0
N2702 N 0.01454 0.31832 0.68196 0.0
N2703 N 0.05173 0.33021 0.65584 0.0
C2704 C 0.04511 0.31037 0.66942 0.0
C2705 C 0.02485 0.30383 0.68355 0.0
C2706 C 0.28937 0.31768 0.64874 0.0
C2707 C 0.28853 0.31539 0.67472 0.0
C2708 C 0.2728 0.32208 0.63491 0.0
C2709 C 0.25512 0.32483 0.64663 0.0
H2710 H 0.30244 0.31528 0.63879 0.0
H2711 H 0.27363 0.32304 0.61486 0.0
S2712 S 0.24569 0.32159 0.71414 0.0
N2713 N 0.2688 0.31692 0.71166 0.0
N2714 N 0.2379 0.32559 0.68559 0.0
C2715 C 0.25447 0.32336 0.67263 0.0
C2716 C 0.27111 0.31852 0.6867 0.0
C2717 C 0.67514 0.97426 0.65082 0.0
C2718 C 0.69821 0.99325 0.64648 0.0
C2719 C 0.66581 0.95028 0.63932 0.0
C2720 C 0.67924 0.94466 0.62305 0.0
H2721 H 0.66483 0.97759 0.66426 0.0
H2722 H 0.64861 0.93581 0.64423 0.0
S2723 S 0.73844 0.98891 0.60192 0.0
N2724 N 0.7328 0.00554 0.62237 0.0
N2725 N 0.71511 0.96069 0.60047 0.0
C2726 C 0.70145 0.96393 0.6171 0.0
C2727 C 0.71099 0.98818 0.6289 0.0
C2728 C 0.0369 0.73232 0.69353 0.0
C2729 C 0.01471 0.71448 0.68076 0.0
C2730 C 0.05727 0.74604 0.68053 0.0
C2731 C 0.05602 0.74265 0.65429 0.0
H2732 H 0.03851 0.73594 0.71369 0.0
H2733 H 0.07389 0.75988 0.69098 0.0
S2734 S 0.00284 0.69769 0.61198 0.0
N2735 N 0.99326 0.69364 0.64022 0.0
N2736 N 0.03139 0.71961 0.61607 0.0
C2737 C 0.03421 0.72458 0.64137 0.0
C2738 C 0.0136 0.71044 0.65452 0.0
C2739 C 0.9479 0.59904 0.75259 0.0
C2740 C 0.96131 0.61934 0.73888 0.0
C2741 C 0.9573 0.58429 0.76075 0.0
C2742 C 0.98037 0.58903 0.75524 0.0
H2743 H 0.93012 0.59474 0.75749 0.0
H2744 H 0.94652 0.5693 0.77189 0.0
S2745 S 0.02212 0.63894 0.71834 0.0
N2746 N 0.99853 0.643 0.71934 0.0
N2747 N 0.01599 0.61479 0.73419 0.0
C2748 C 0.99387 0.60905 0.7412 0.0
C2749 C 0.98438 0.6243 0.73311 0.0
C2750 C 0.41071 0.37893 0.7346 0.0
C2751 C 0.38752 0.36296 0.7415 0.0
C2752 C 0.42517 0.4023 0.74713 0.0
C2753 C 0.41723 0.41055 0.76742 0.0
H2754 H 0.41802 0.37317 0.71967 0.0
H2755 H 0.44305 0.41377 0.74132 0.0
S2756 S 0.35753 0.37622 0.79229 0.0
N2757 N 0.35666 0.35743 0.76905 0.0
N2758 N 0.38428 0.40131 0.79325 0.0
C2759 C 0.39369 0.39523 0.77391 0.0
C2760 C 0.37874 0.37142 0.76083 0.0
C2761 C 0.64638 0.031 0.74346 0.0
C2762 C 0.64718 0.03673 0.71829 0.0
C2763 C 0.62648 0.02614 0.7567 0.0
C2764 C 0.60629 0.02635 0.74528 0.0
H2765 H 0.66154 0.03083 0.75337 0.0
H2766 H 0.62695 0.02229 0.77615 0.0
S2767 S 0.59851 0.03927 0.6797 0.0
N2768 N 0.62555 0.04182 0.68234 0.0
N2769 N 0.58782 0.0321 0.70725 0.0
C2770 C 0.60641 0.03139 0.72 0.0
C2771 C 0.62694 0.03676 0.70652 0.0
loop_
_geom_bond_atom_site_label_1
_geom_bond_atom_site_label_2
_geom_bond_distance
_geom_bond_site_symmetry_2
_ccdc_geom_bond_type
Mn0 O5 2.095 1_655 S
Mn0 O15 2.162 . S
Mn0 O16 2.297 1_554 S
Mn0 O24 2.385 1_554 S
Mn0 O25 2.209 1_655 S
Mn0 O26 2.094 . S
Mn1 O6 2.121 . S
Mn1 N8 2.257 . S
Mn1 N17 2.282 . S
Mn1 O25 2.215 . S
Mn1 O27 2.117 . S
C2 O24 1.234 1_455 S
C2 O25 1.283 1_556 S
C3 O15 1.281 . S
C3 O16 1.236 1_554 S
C4 O26 1.228 1_455 S
C4 O27 1.303 . S
O5 Mn0 2.095 1_455 S
O5 C14 1.250 . S
O6 Mn1 2.121 . S
O6 C14 1.258 . S
C7 N8 1.326 . S
C7 C11 1.460 1_554 S
C7 H13 0.929 . S
N8 Mn1 2.257 . S
N8 C7 1.326 . S
N8 C12 1.362 . S
C9 C10 1.258 . S
C9 C12 1.431 1_556 S
C9 C29 1.449 . S
C10 C9 1.258 . S
C10 C11 1.477 . S
C10 H30 0.931 . S
C11 C7 1.460 1_556 S
C11 C10 1.477 . S
C11 H31 0.930 . S
C12 N8 1.362 . S
C12 C9 1.431 1_554 S
C12 C22 1.476 . S
H13 C7 0.929 . S
C14 O5 1.250 . S
C14 O6 1.258 . S
O15 Mn0 2.162 . S
O15 C3 1.281 . S
O16 Mn0 2.297 1_556 S
O16 C3 1.236 1_556 S
N17 Mn1 2.282 . S
N17 C18 1.328 . S
N17 C22 1.318 . S
C18 N17 1.328 . S
C18 C19 1.457 . S
C18 H23 0.929 . S
C19 C18 1.457 . S
C19 C20 1.291 . S
C19 H32 0.931 . S
C20 C19 1.291 . S
C20 C21 1.373 . S
C20 H33 0.929 1_554 S
C21 C20 1.373 . S
C21 C22 1.396 . S
C21 C28 1.403 1_554 S
C22 C12 1.476 . S
C22 N17 1.318 . S
C22 C21 1.396 . S
H23 C18 0.929 . S
O24 Mn0 2.385 1_556 S
O24 C2 1.234 1_655 S
O25 Mn0 2.209 1_455 S
O25 Mn1 2.215 . S
O25 C2 1.283 1_554 S
O26 Mn0 2.094 . S
O26 C4 1.228 1_655 S
O27 Mn1 2.117 . S
O27 C4 1.303 . S
C28 C21 1.403 1_556 S
C28 C29 1.399 . S
C28 H34 0.929 . S
C29 C9 1.449 . S
C29 C28 1.399 . S
C29 H35 0.930 . S
H30 C10 0.931 . S
H31 C11 0.930 . S
H32 C19 0.931 . S
H33 C20 0.929 1_556 S
H34 C28 0.929 . S
H35 C29 0.930 . S
Mn36 O41 2.095 . S
Mn36 O51 2.162 . S
Mn36 O52 2.297 . S
Mn36 O60 2.385 . S
Mn36 O61 2.209 . S
Mn36 O62 2.094 . S
Mn37 O42 2.121 . S
Mn37 N44 2.257 . S
Mn37 N53 2.282 . S
Mn37 O61 2.215 . S
Mn37 O63 2.117 . S
C38 O60 1.234 . S
C38 O61 1.283 . S
C39 O51 1.281 . S
C39 O52 1.236 . S
C40 O62 1.240 . S
C40 O63 1.264 . S
O41 Mn36 2.095 . S
O41 C50 1.250 . S
O42 Mn37 2.121 . S
O42 C50 1.258 . S
C43 N44 1.326 . S
C43 C47 1.460 . S
C43 H49 0.929 . S
N44 Mn37 2.257 . S
N44 C43 1.326 . S
N44 C48 1.362 . S
C45 C46 1.258 . S
C45 C48 1.431 . S
C45 C65 1.449 . S
C46 C45 1.258 . S
C46 C47 1.477 . S
C46 H66 0.931 . S
C47 C43 1.460 . S
C47 C46 1.477 . S
C47 H67 0.930 . S
C48 N44 1.362 . S
C48 C45 1.431 . S
C48 C58 1.476 . S
H49 C43 0.929 . S
C50 O41 1.250 . S
C50 O42 1.258 . S
O51 Mn36 2.162 . S
O51 C39 1.281 . S
O52 Mn36 2.297 . S
O52 C39 1.236 . S
N53 Mn37 2.282 . S
N53 C54 1.328 . S
N53 C58 1.318 . S
C54 N53 1.328 . S
C54 C55 1.457 . S
C54 H59 0.929 . S
C55 C54 1.457 . S
C55 C56 1.291 . S
C55 H68 0.931 . S
C56 C55 1.291 . S
C56 C57 1.373 . S
C56 H69 0.929 . S
C57 C56 1.373 . S
C57 C58 1.396 . S
C57 C64 1.403 . S
C58 C48 1.476 . S
C58 N53 1.318 . S
C58 C57 1.396 . S
H59 C54 0.929 . S
O60 Mn36 2.385 . S
O60 C38 1.234 . S
O61 Mn36 2.209 . S
O61 Mn37 2.215 . S
O61 C38 1.283 . S
O62 Mn36 2.094 . S
O62 C40 1.240 . S
O63 Mn37 2.117 . S
O63 C40 1.264 . S
C64 C57 1.403 . S
C64 C65 1.399 . S
C64 H70 0.929 . S
C65 C45 1.449 . S
C65 C64 1.399 . S
C65 H71 0.930 . S
H66 C46 0.931 . S
H67 C47 0.930 . S
H68 C55 0.931 . S
H69 C56 0.929 . S
H70 C64 0.929 . S
H71 C65 0.930 . S
Mn72 O77 2.095 1_565 S
Mn72 O87 2.162 . S
Mn72 O88 2.297 . S
Mn72 O96 2.385 . S
Mn72 O97 2.209 1_565 S
Mn72 O98 2.094 1_554 S
Mn73 O78 2.121 . S
Mn73 N80 2.257 . S
Mn73 N89 2.282 . S
Mn73 O97 2.215 . S
Mn73 O99 2.117 1_554 S
C74 O96 1.234 1_545 S
C74 O97 1.283 . S
C75 O87 1.281 . S
C75 O88 1.236 . S
C76 O98 1.240 . S
C76 O99 1.264 1_565 S
O77 Mn72 2.095 1_545 S
O77 C86 1.250 . S
O78 Mn73 2.121 . S
O78 C86 1.258 . S
C79 N80 1.326 . S
C79 C83 1.460 . S
C79 H85 0.929 . S
N80 Mn73 2.257 . S
N80 C79 1.326 . S
N80 C84 1.362 . S
C81 C82 1.258 . S
C81 C84 1.431 . S
C81 C101 1.449 . S
C82 C81 1.258 . S
C82 C83 1.477 . S
C82 H102 0.931 . S
C83 C79 1.460 . S
C83 C82 1.477 . S
C83 H103 0.930 . S
C84 N80 1.362 . S
C84 C81 1.431 . S
C84 C94 1.476 . S
H85 C79 0.929 . S
C86 O77 1.250 . S
C86 O78 1.258 . S
O87 Mn72 2.162 . S
O87 C75 1.281 . S
O88 Mn72 2.297 . S
O88 C75 1.236 . S
N89 Mn73 2.282 . S
N89 C90 1.328 . S
N89 C94 1.318 . S
C90 N89 1.328 . S
C90 C91 1.457 . S
C90 H95 0.929 . S
C91 C90 1.457 . S
C91 C92 1.291 . S
C91 H104 0.931 . S
C92 C91 1.291 . S
C92 C93 1.373 . S
C92 H105 0.929 . S
C93 C92 1.373 . S
C93 C94 1.396 . S
C93 C100 1.403 . S
C94 C84 1.476 . S
C94 N89 1.318 . S
C94 C93 1.396 . S
H95 C90 0.929 . S
O96 Mn72 2.385 . S
O96 C74 1.234 1_565 S
O97 Mn72 2.209 1_545 S
O97 Mn73 2.215 . S
O97 C74 1.283 . S
O98 Mn72 2.094 1_556 S
O98 C76 1.240 . S
O99 Mn73 2.117 1_556 S
O99 C76 1.264 1_545 S
C100 C93 1.403 . S
C100 C101 1.399 . S
C100 H106 0.929 . S
C101 C81 1.449 . S
C101 C100 1.399 . S
C101 H107 0.930 . S
H102 C82 0.931 . S
H103 C83 0.930 . S
H104 C91 0.931 . S
H105 C92 0.929 . S
H106 C100 0.929 . S
H107 C101 0.930 . S
Mn108 O113 2.095 1_655 S
Mn108 O123 2.162 . S
Mn108 O124 2.297 . S
Mn108 O132 2.385 . S
Mn108 O133 2.209 1_655 S
Mn108 O134 2.094 . S
Mn109 O114 2.121 . S
Mn109 N116 2.257 . S
Mn109 N125 2.282 . S
Mn109 O133 2.215 . S
Mn109 O135 2.117 . S
C110 O132 1.234 1_455 S
C110 O133 1.283 . S
C111 O123 1.281 . S
C111 O124 1.236 . S
C112 O134 1.240 . S
C112 O135 1.264 1_655 S
O113 Mn108 2.095 1_455 S
O113 C122 1.250 . S
O114 Mn109 2.121 . S
O114 C122 1.258 . S
C115 N116 1.326 . S
C115 C119 1.460 . S
C115 H121 0.929 . S
N116 Mn109 2.257 . S
N116 C115 1.326 . S
N116 C120 1.362 . S
C117 C118 1.258 . S
C117 C120 1.431 . S
C117 C137 1.449 1_554 S
C118 C117 1.258 . S
C118 C119 1.477 . S
C118 H138 0.931 1_554 S
C119 C115 1.460 . S
C119 C118 1.477 . S
C119 H139 0.930 . S
C120 N116 1.362 . S
C120 C117 1.431 . S
C120 C130 1.476 . S
H121 C115 0.929 . S
C122 O113 1.250 . S
C122 O114 1.258 . S
O123 Mn108 2.162 . S
O123 C111 1.281 . S
O124 Mn108 2.297 . S
O124 C111 1.236 . S
N125 Mn109 2.282 . S
N125 C126 1.328 . S
N125 C130 1.318 . S
C126 N125 1.328 . S
C126 C127 1.457 . S
C126 H131 0.929 . S
C127 C126 1.457 . S
C127 C128 1.291 . S
C127 H140 0.931 . S
C128 C127 1.291 . S
C128 C129 1.373 . S
C128 H141 0.929 . S
C129 C128 1.373 . S
C129 C130 1.396 . S
C129 C136 1.403 . S
C130 C120 1.476 . S
C130 N125 1.318 . S
C130 C129 1.396 . S
H131 C126 0.929 . S
O132 Mn108 2.385 . S
O132 C110 1.234 1_655 S
O133 Mn108 2.209 1_455 S
O133 Mn109 2.215 . S
O133 C110 1.283 . S
O134 Mn108 2.094 . S
O134 C112 1.240 . S
O135 Mn109 2.117 . S
O135 C112 1.264 1_455 S
C136 C129 1.403 . S
C136 C137 1.399 1_554 S
C136 H142 0.929 1_554 S
C137 C117 1.449 1_556 S
C137 C136 1.399 1_556 S
C137 H143 0.930 . S
H138 C118 0.931 1_556 S
H139 C119 0.930 . S
H140 C127 0.931 . S
H141 C128 0.929 . S
H142 C136 0.929 1_556 S
H143 C137 0.930 . S
Mn144 O149 2.095 1_554 S
Mn144 O159 2.162 . S
Mn144 O160 2.297 . S
Mn144 O168 2.385 . S
Mn144 O169 2.209 . S
Mn144 O170 2.094 1_554 S
Mn145 O150 2.128 . S
Mn145 N152 2.233 1_556 S
Mn145 N161 2.267 1_556 S
Mn145 O169 2.180 1_556 S
Mn145 O171 2.142 . S
C146 O168 1.234 . S
C146 O169 1.283 . S
C147 O159 1.281 . S
C147 O160 1.236 . S
C148 O170 1.240 . S
C148 O171 1.264 . S
O149 Mn144 2.095 1_556 S
O149 C158 1.250 . S
O150 Mn145 2.128 . S
O150 C158 1.258 . S
C151 N152 1.326 . S
C151 C155 1.460 . S
C151 H157 0.929 . S
N152 Mn145 2.233 1_554 S
N152 C151 1.326 . S
N152 C156 1.362 . S
C153 C154 1.258 . S
C153 C156 1.431 . S
C153 C173 1.449 . S
C154 C153 1.258 . S
C154 C155 1.477 . S
C154 H174 0.931 . S
C155 C151 1.460 . S
C155 C154 1.477 . S
C155 H175 0.930 . S
C156 N152 1.362 . S
C156 C153 1.431 . S
C156 C166 1.476 . S
H157 C151 0.929 . S
C158 O149 1.250 . S
C158 O150 1.258 . S
O159 Mn144 2.162 . S
O159 C147 1.281 . S
O160 Mn144 2.297 . S
O160 C147 1.236 . S
N161 Mn145 2.267 1_554 S
N161 C162 1.328 . S
N161 C166 1.318 . S
C162 N161 1.328 . S
C162 C163 1.457 . S
C162 H167 0.929 . S
C163 C162 1.457 . S
C163 C164 1.291 . S
C163 H176 0.931 . S
C164 C163 1.291 . S
C164 C165 1.373 . S
C164 H177 0.929 . S
C165 C164 1.373 . S
C165 C166 1.396 . S
C165 C172 1.403 . S
C166 C156 1.476 . S
C166 N161 1.318 . S
C166 C165 1.396 . S
H167 C162 0.929 . S
O168 Mn144 2.385 . S
O168 C146 1.234 . S
O169 Mn144 2.209 . S
O169 Mn145 2.180 1_554 S
O169 C146 1.283 . S
O170 Mn144 2.094 1_556 S
O170 C148 1.240 . S
O171 Mn145 2.142 . S
O171 C148 1.264 . S
C172 C165 1.403 . S
C172 C173 1.399 . S
C172 H178 0.929 . S
C173 C153 1.449 . S
C173 C172 1.399 . S
C173 H179 0.930 . S
H174 C154 0.931 . S
H175 C155 0.930 . S
H176 C163 0.931 . S
H177 C164 0.929 . S
H178 C172 0.929 . S
H179 C173 0.930 . S
Mn180 O185 2.095 1_545 S
Mn180 O195 2.162 . S
Mn180 O196 2.297 . S
Mn180 O204 2.385 . S
Mn180 O205 2.209 1_545 S
Mn180 O206 2.094 . S
Mn181 O186 2.121 . S
Mn181 N188 2.257 . S
Mn181 N197 2.282 . S
Mn181 O205 2.215 . S
Mn181 O207 2.117 . S
C182 O204 1.234 . S
C182 O205 1.283 1_545 S
C183 O195 1.281 . S
C183 O196 1.236 . S
C184 O206 1.240 . S
C184 O207 1.264 1_545 S
O185 Mn180 2.095 1_565 S
O185 C194 1.250 . S
O186 Mn181 2.121 . S
O186 C194 1.258 . S
C187 N188 1.326 . S
C187 C191 1.460 . S
C187 H193 0.929 . S
N188 Mn181 2.257 . S
N188 C187 1.326 . S
N188 C192 1.362 . S
C189 C190 1.258 1_554 S
C189 C192 1.431 . S
C189 C209 1.449 1_554 S
C190 C189 1.258 1_556 S
C190 C191 1.477 1_556 S
C190 H210 0.931 . S
C191 C187 1.460 . S
C191 C190 1.477 1_554 S
C191 H211 0.930 . S
C192 N188 1.362 . S
C192 C189 1.431 . S
C192 C202 1.476 . S
H193 C187 0.929 . S
C194 O185 1.250 . S
C194 O186 1.258 . S
O195 Mn180 2.162 . S
O195 C183 1.281 . S
O196 Mn180 2.297 . S
O196 C183 1.236 . S
N197 Mn181 2.282 . S
N197 C198 1.328 . S
N197 C202 1.318 . S
C198 N197 1.328 . S
C198 C199 1.457 . S
C198 H203 0.929 . S
C199 C198 1.457 . S
C199 C200 1.291 . S
C199 H212 0.931 . S
C200 C199 1.291 . S
C200 C201 1.373 . S
C200 H213 0.929 . S
C201 C200 1.373 . S
C201 C202 1.396 . S
C201 C208 1.403 1_554 S
C202 C192 1.476 . S
C202 N197 1.318 . S
C202 C201 1.396 . S
H203 C198 0.929 . S
O204 Mn180 2.385 . S
O204 C182 1.234 . S
O205 Mn180 2.209 1_565 S
O205 Mn181 2.215 . S
O205 C182 1.283 1_565 S
O206 Mn180 2.094 . S
O206 C184 1.240 . S
O207 Mn181 2.117 . S
O207 C184 1.264 1_565 S
C208 C201 1.403 1_556 S
C208 C209 1.399 . S
C208 H214 0.929 . S
C209 C189 1.449 1_556 S
C209 C208 1.399 . S
C209 H215 0.930 . S
H210 C190 0.931 . S
H211 C191 0.930 . S
H212 C199 0.931 . S
H213 C200 0.929 . S
H214 C208 0.929 . S
H215 C209 0.930 . S
Mn216 O221 2.095 . S
Mn216 O231 2.162 . S
Mn216 O232 2.297 . S
Mn216 O240 2.385 . S
Mn216 O241 2.209 . S
Mn216 O242 2.094 . S
Mn217 O222 2.121 . S
Mn217 N224 2.257 . S
Mn217 N233 2.282 . S
Mn217 O241 2.215 . S
Mn217 O243 2.117 . S
C218 O240 1.234 . S
C218 O241 1.283 . S
C219 O231 1.281 . S
C219 O232 1.236 . S
C220 O242 1.240 . S
C220 O243 1.264 . S
O221 Mn216 2.095 . S
O221 C230 1.250 . S
O222 Mn217 2.121 . S
O222 C230 1.258 . S
C223 N224 1.326 . S
C223 C227 1.460 . S
C223 H229 0.929 . S
N224 Mn217 2.257 . S
N224 C223 1.326 . S
N224 C228 1.362 . S
C225 C226 1.258 . S
C225 C228 1.431 . S
C225 C245 1.449 . S
C226 C225 1.258 . S
C226 C227 1.477 . S
C226 H246 0.931 . S
C227 C223 1.460 . S
C227 C226 1.477 . S
C227 H247 0.930 . S
C228 N224 1.362 . S
C228 C225 1.431 . S
C228 C238 1.476 . S
H229 C223 0.929 . S
C230 O221 1.250 . S
C230 O222 1.258 . S
O231 Mn216 2.162 . S
O231 C219 1.281 . S
O232 Mn216 2.297 . S
O232 C219 1.236 . S
N233 Mn217 2.282 . S
N233 C234 1.328 . S
N233 C238 1.318 . S
C234 N233 1.328 . S
C234 C235 1.457 . S
C234 H239 0.929 . S
C235 C234 1.457 . S
C235 C236 1.291 . S
C235 H248 0.931 . S
C236 C235 1.291 . S
C236 C237 1.373 . S
C236 H249 0.929 . S
C237 C236 1.373 . S
C237 C238 1.396 . S
C237 C244 1.403 . S
C238 C228 1.476 . S
C238 N233 1.318 . S
C238 C237 1.396 . S
H239 C234 0.929 . S
O240 Mn216 2.385 . S
O240 C218 1.234 . S
O241 Mn216 2.209 . S
O241 Mn217 2.215 . S
O241 C218 1.283 . S
O242 Mn216 2.094 . S
O242 C220 1.240 . S
O243 Mn217 2.117 . S
O243 C220 1.264 . S
C244 C237 1.403 . S
C244 C245 1.399 . S
C244 H250 0.929 . S
C245 C225 1.449 . S
C245 C244 1.399 . S
C245 H251 0.930 . S
H246 C226 0.931 . S
H247 C227 0.930 . S
H248 C235 0.931 . S
H249 C236 0.929 . S
H250 C244 0.929 . S
H251 C245 0.930 . S
Mn252 O257 2.095 . S
Mn252 O267 2.162 1_565 S
Mn252 O268 2.297 . S
Mn252 O276 2.385 . S
Mn252 O277 2.209 . S
Mn252 O278 2.094 . S
Mn253 O258 2.121 . S
Mn253 N260 2.257 . S
Mn253 N269 2.282 . S
Mn253 O277 2.215 . S
Mn253 O279 2.117 . S
C254 O276 1.234 . S
C254 O277 1.283 . S
C255 O267 1.281 . S
C255 O268 1.236 1_545 S
C256 O278 1.240 . S
C256 O279 1.264 . S
O257 Mn252 2.095 . S
O257 C266 1.250 . S
O258 Mn253 2.121 . S
O258 C266 1.258 . S
C259 N260 1.326 . S
C259 C263 1.460 . S
C259 H265 0.929 . S
N260 Mn253 2.257 . S
N260 C259 1.326 . S
N260 C264 1.362 . S
C261 C262 1.258 . S
C261 C264 1.431 . S
C261 C281 1.449 . S
C262 C261 1.258 . S
C262 C263 1.477 . S
C262 H282 0.931 . S
C263 C259 1.460 . S
C263 C262 1.477 . S
C263 H283 0.930 . S
C264 N260 1.362 . S
C264 C261 1.431 . S
C264 C274 1.476 . S
H265 C259 0.929 . S
C266 O257 1.250 . S
C266 O258 1.258 . S
O267 Mn252 2.162 1_545 S
O267 C255 1.281 . S
O268 Mn252 2.297 . S
O268 C255 1.236 1_565 S
N269 Mn253 2.282 . S
N269 C270 1.328 . S
N269 C274 1.318 . S
C270 N269 1.328 . S
C270 C271 1.457 . S
C270 H275 0.929 . S
C271 C270 1.457 . S
C271 C272 1.291 . S
C271 H284 0.931 . S
C272 C271 1.291 . S
C272 C273 1.373 . S
C272 H285 0.929 . S
C273 C272 1.373 . S
C273 C274 1.396 . S
C273 C280 1.403 . S
C274 C264 1.476 . S
C274 N269 1.318 . S
C274 C273 1.396 . S
H275 C270 0.929 . S
O276 Mn252 2.385 . S
O276 C254 1.234 . S
O277 Mn252 2.209 . S
O277 Mn253 2.215 . S
O277 C254 1.283 . S
O278 Mn252 2.094 . S
O278 C256 1.240 . S
O279 Mn253 2.117 . S
O279 C256 1.264 . S
C280 C273 1.403 . S
C280 C281 1.399 . S
C280 H286 0.929 . S
C281 C261 1.449 . S
C281 C280 1.399 . S
C281 H287 0.930 . S
H282 C262 0.931 . S
H283 C263 0.930 . S
H284 C271 0.931 . S
H285 C272 0.929 . S
H286 C280 0.929 . S
H287 C281 0.930 . S
Mn288 O293 2.095 . S
Mn288 O303 2.162 . S
Mn288 O304 2.297 . S
Mn288 O312 2.385 . S
Mn288 O313 2.209 . S
Mn288 O314 2.094 . S
Mn289 O294 2.121 . S
Mn289 N296 2.257 . S
Mn289 N305 2.282 . S
Mn289 O313 2.215 . S
Mn289 O315 2.117 . S
C290 O312 1.234 . S
C290 O313 1.283 . S
C291 O303 1.304 . S
C291 O304 1.244 . S
C292 O314 1.240 . S
C292 O315 1.264 . S
O293 Mn288 2.095 . S
O293 C302 1.250 . S
O294 Mn289 2.121 . S
O294 C302 1.258 . S
C295 N296 1.326 . S
C295 C299 1.460 . S
C295 H301 0.929 . S
N296 Mn289 2.257 . S
N296 C295 1.326 . S
N296 C300 1.362 . S
C297 C298 1.258 . S
C297 C300 1.431 . S
C297 C317 1.449 . S
C298 C297 1.258 . S
C298 C299 1.477 . S
C298 H318 0.931 . S
C299 C295 1.460 . S
C299 C298 1.477 . S
C299 H319 0.930 . S
C300 N296 1.362 . S
C300 C297 1.431 . S
C300 C310 1.476 . S
H301 C295 0.929 . S
C302 O293 1.250 . S
C302 O294 1.258 . S
O303 Mn288 2.162 . S
O303 C291 1.304 . S
O304 Mn288 2.297 . S
O304 C291 1.244 . S
N305 Mn289 2.282 . S
N305 C306 1.328 . S
N305 C310 1.318 . S
C306 N305 1.328 . S
C306 C307 1.457 . S
C306 H311 0.929 . S
C307 C306 1.457 . S
C307 C308 1.291 . S
C307 H320 0.931 . S
C308 C307 1.291 . S
C308 C309 1.373 . S
C308 H321 0.929 . S
C309 C308 1.373 . S
C309 C310 1.396 . S
C309 C316 1.403 . S
C310 C300 1.476 . S
C310 N305 1.318 . S
C310 C309 1.396 . S
H311 C306 0.929 . S
O312 Mn288 2.385 . S
O312 C290 1.234 . S
O313 Mn288 2.209 . S
O313 Mn289 2.215 . S
O313 C290 1.283 . S
O314 Mn288 2.094 . S
O314 C292 1.240 . S
O315 Mn289 2.117 . S
O315 C292 1.264 . S
C316 C309 1.403 . S
C316 C317 1.399 . S
C316 H322 0.929 . S
C317 C297 1.449 . S
C317 C316 1.399 . S
C317 H323 0.930 . S
H318 C298 0.931 . S
H319 C299 0.930 . S
H320 C307 0.931 . S
H321 C308 0.929 . S
H322 C316 0.929 . S
H323 C317 0.930 . S
Mn324 O329 2.095 . S
Mn324 O339 2.162 . S
Mn324 O340 2.297 . S
Mn324 O348 2.385 . S
Mn324 O349 2.209 . S
Mn324 O350 2.094 . S
Mn325 O330 2.125 1_565 S
Mn325 N332 2.257 . S
Mn325 N341 2.282 . S
Mn325 O349 2.215 . S
Mn325 O351 2.117 . S
C326 O348 1.234 . S
C326 O349 1.283 . S
C327 O339 1.281 . S
C327 O340 1.236 . S
C328 O350 1.240 . S
C328 O351 1.264 . S
O329 Mn324 2.095 . S
O329 C338 1.250 1_565 S
O330 Mn325 2.125 1_545 S
O330 C338 1.256 . S
C331 N332 1.326 1_545 S
C331 C335 1.460 . S
C331 H337 0.929 . S
N332 Mn325 2.257 . S
N332 C331 1.326 1_565 S
N332 C336 1.362 . S
C333 C334 1.258 . S
C333 C336 1.431 . S
C333 C353 1.449 . S
C334 C333 1.258 . S
C334 C335 1.477 1_565 S
C334 H354 0.931 . S
C335 C331 1.460 . S
C335 C334 1.477 1_545 S
C335 H355 0.930 . S
C336 N332 1.362 . S
C336 C333 1.431 . S
C336 C346 1.476 . S
H337 C331 0.929 . S
C338 O329 1.250 1_545 S
C338 O330 1.256 . S
O339 Mn324 2.162 . S
O339 C327 1.281 . S
O340 Mn324 2.297 . S
O340 C327 1.236 . S
N341 Mn325 2.282 . S
N341 C342 1.328 . S
N341 C346 1.318 . S
C342 N341 1.328 . S
C342 C343 1.457 . S
C342 H347 0.929 . S
C343 C342 1.457 . S
C343 C344 1.291 . S
C343 H356 0.931 . S
C344 C343 1.291 . S
C344 C345 1.373 . S
C344 H357 0.929 . S
C345 C344 1.373 . S
C345 C346 1.396 . S
C345 C352 1.403 . S
C346 C336 1.476 . S
C346 N341 1.318 . S
C346 C345 1.396 . S
H347 C342 0.929 . S
O348 Mn324 2.385 . S
O348 C326 1.234 . S
O349 Mn324 2.209 . S
O349 Mn325 2.215 . S
O349 C326 1.283 . S
O350 Mn324 2.094 . S
O350 C328 1.240 . S
O351 Mn325 2.117 . S
O351 C328 1.264 . S
C352 C345 1.403 . S
C352 C353 1.399 . S
C352 H358 0.929 . S
C353 C333 1.449 . S
C353 C352 1.399 . S
C353 H359 0.930 . S
H354 C334 0.931 . S
H355 C335 0.930 . S
H356 C343 0.931 . S
H357 C344 0.929 . S
H358 C352 0.929 . S
H359 C353 0.930 . S
Mn360 O365 2.095 . S
Mn360 O375 2.162 . S
Mn360 O376 2.297 . S
Mn360 O384 2.385 . S
Mn360 O385 2.209 . S
Mn360 O386 2.094 . S
Mn361 O366 2.121 . S
Mn361 N368 2.257 . S
Mn361 N377 2.282 . S
Mn361 O385 2.215 . S
Mn361 O387 2.117 . S
C362 O384 1.234 . S
C362 O385 1.283 . S
C363 O375 1.281 1_655 S
C363 O376 1.236 1_655 S
C364 O386 1.240 . S
C364 O387 1.264 . S
O365 Mn360 2.095 . S
O365 C374 1.250 . S
O366 Mn361 2.121 . S
O366 C374 1.258 . S
C367 N368 1.326 . S
C367 C371 1.460 . S
C367 H373 0.929 . S
N368 Mn361 2.257 . S
N368 C367 1.326 . S
N368 C372 1.362 . S
C369 C370 1.258 . S
C369 C372 1.431 . S
C369 C389 1.449 . S
C370 C369 1.258 . S
C370 C371 1.477 . S
C370 H390 0.931 . S
C371 C367 1.460 . S
C371 C370 1.477 . S
C371 H391 0.930 . S
C372 N368 1.362 . S
C372 C369 1.431 . S
C372 C382 1.476 . S
H373 C367 0.929 . S
C374 O365 1.250 . S
C374 O366 1.258 . S
O375 Mn360 2.162 . S
O375 C363 1.281 1_455 S
O376 Mn360 2.297 . S
O376 C363 1.236 1_455 S
N377 Mn361 2.282 . S
N377 C378 1.328 . S
N377 C382 1.318 . S
C378 N377 1.328 . S
C378 C379 1.457 . S
C378 H383 0.929 . S
C379 C378 1.457 . S
C379 C380 1.291 . S
C379 H392 0.931 . S
C380 C379 1.291 . S
C380 C381 1.373 . S
C380 H393 0.929 . S
C381 C380 1.373 . S
C381 C382 1.396 . S
C381 C388 1.403 . S
C382 C372 1.476 . S
C382 N377 1.318 . S
C382 C381 1.396 . S
H383 C378 0.929 . S
O384 Mn360 2.385 . S
O384 C362 1.234 . S
O385 Mn360 2.209 . S
O385 Mn361 2.215 . S
O385 C362 1.283 . S
O386 Mn360 2.094 . S
O386 C364 1.240 . S
O387 Mn361 2.117 . S
O387 C364 1.264 . S
C388 C381 1.403 . S
C388 C389 1.399 . S
C388 H394 0.929 . S
C389 C369 1.449 . S
C389 C388 1.399 . S
C389 H395 0.930 . S
H390 C370 0.931 . S
H391 C371 0.930 . S
H392 C379 0.931 . S
H393 C380 0.929 . S
H394 C388 0.929 . S
H395 C389 0.930 . S
Mn396 O401 2.095 . S
Mn396 O411 2.162 . S
Mn396 O412 2.297 . S
Mn396 O420 2.385 . S
Mn396 O421 2.209 . S
Mn396 O422 2.094 . S
Mn397 O402 2.121 . S
Mn397 N404 2.257 . S
Mn397 N413 2.282 . S
Mn397 O421 2.215 . S
Mn397 O423 2.117 . S
C398 O420 1.234 . S
C398 O421 1.283 . S
C399 O411 1.281 . S
C399 O412 1.236 . S
C400 O422 1.240 . S
C400 O423 1.264 . S
O401 Mn396 2.095 . S
O401 C410 1.250 . S
O402 Mn397 2.121 . S
O402 C410 1.258 . S
C403 N404 1.326 . S
C403 C407 1.460 . S
C403 H409 0.929 . S
N404 Mn397 2.257 . S
N404 C403 1.326 . S
N404 C408 1.362 . S
C405 C406 1.258 . S
C405 C408 1.431 . S
C405 C425 1.449 . S
C406 C405 1.258 . S
C406 C407 1.477 . S
C406 H426 0.931 . S
C407 C403 1.460 . S
C407 C406 1.477 . S
C407 H427 0.930 . S
C408 N404 1.362 . S
C408 C405 1.431 . S
C408 C418 1.476 . S
H409 C403 0.929 . S
C410 O401 1.250 . S
C410 O402 1.258 . S
O411 Mn396 2.162 . S
O411 C399 1.281 . S
O412 Mn396 2.297 . S
O412 C399 1.236 . S
N413 Mn397 2.282 . S
N413 C414 1.328 . S
N413 C418 1.318 . S
C414 N413 1.328 . S
C414 C415 1.457 . S
C414 H419 0.929 . S
C415 C414 1.457 . S
C415 C416 1.291 . S
C415 H428 0.931 . S
C416 C415 1.291 . S
C416 C417 1.373 . S
C416 H429 0.929 . S
C417 C416 1.373 . S
C417 C418 1.396 . S
C417 C424 1.403 . S
C418 C408 1.476 . S
C418 N413 1.318 . S
C418 C417 1.396 . S
H419 C414 0.929 . S
O420 Mn396 2.385 . S
O420 C398 1.234 . S
O421 Mn396 2.209 . S
O421 Mn397 2.215 . S
O421 C398 1.283 . S
O422 Mn396 2.094 . S
O422 C400 1.240 . S
O423 Mn397 2.117 . S
O423 C400 1.264 . S
C424 C417 1.403 . S
C424 C425 1.399 . S
C424 H430 0.929 . S
C425 C405 1.449 . S
C425 C424 1.399 . S
C425 H431 0.930 . S
H426 C406 0.931 . S
H427 C407 0.930 . S
H428 C415 0.931 . S
H429 C416 0.929 . S
H430 C424 0.929 . S
H431 C425 0.930 . S
Mn432 O437 2.095 . S
Mn432 O447 2.158 1_545 S
Mn432 O448 2.297 . S
Mn432 O456 2.385 . S
Mn432 O457 2.209 . S
Mn432 O458 2.094 . S
Mn433 O438 2.121 . S
Mn433 N440 2.257 . S
Mn433 N449 2.282 . S
Mn433 O457 2.215 . S
Mn433 O459 2.117 . S
C434 O456 1.234 . S
C434 O457 1.283 . S
C435 O447 1.284 . S
C435 O448 1.236 1_565 S
C436 O458 1.240 . S
C436 O459 1.264 . S
O437 Mn432 2.095 . S
O437 C446 1.250 . S
O438 Mn433 2.121 . S
O438 C446 1.258 . S
C439 N440 1.326 . S
C439 C443 1.460 . S
C439 H445 0.929 . S
N440 Mn433 2.257 . S
N440 C439 1.326 . S
N440 C444 1.362 . S
C441 C442 1.258 . S
C441 C444 1.431 . S
C441 C461 1.449 . S
C442 C441 1.258 . S
C442 C443 1.477 . S
C442 H462 0.931 . S
C443 C439 1.460 . S
C443 C442 1.477 . S
C443 H463 0.930 . S
C444 N440 1.362 . S
C444 C441 1.431 . S
C444 C454 1.476 . S
H445 C439 0.929 . S
C446 O437 1.250 . S
C446 O438 1.258 . S
O447 Mn432 2.158 1_565 S
O447 C435 1.284 . S
O448 Mn432 2.297 . S
O448 C435 1.236 1_545 S
N449 Mn433 2.282 . S
N449 C450 1.328 . S
N449 C454 1.318 . S
C450 N449 1.328 . S
C450 C451 1.457 . S
C450 H455 0.929 . S
C451 C450 1.457 . S
C451 C452 1.291 . S
C451 H464 0.931 . S
C452 C451 1.291 . S
C452 C453 1.373 . S
C452 H465 0.929 . S
C453 C452 1.373 . S
C453 C454 1.396 . S
C453 C460 1.403 . S
C454 C444 1.476 . S
C454 N449 1.318 . S
C454 C453 1.396 . S
H455 C450 0.929 . S
O456 Mn432 2.385 . S
O456 C434 1.234 . S
O457 Mn432 2.209 . S
O457 Mn433 2.215 . S
O457 C434 1.283 . S
O458 Mn432 2.094 . S
O458 C436 1.240 . S
O459 Mn433 2.117 . S
O459 C436 1.264 . S
C460 C453 1.403 . S
C460 C461 1.399 . S
C460 H466 0.929 . S
C461 C441 1.449 . S
C461 C460 1.399 . S
C461 H467 0.930 . S
H462 C442 0.931 . S
H463 C443 0.930 . S
H464 C451 0.931 . S
H465 C452 0.929 . S
H466 C460 0.929 . S
H467 C461 0.930 . S
Mn468 O473 2.095 . S
Mn468 O483 2.162 . S
Mn468 O484 2.297 . S
Mn468 O492 2.385 . S
Mn468 O493 2.209 . S
Mn468 O494 2.094 . S
Mn469 O474 2.121 . S
Mn469 N476 2.257 . S
Mn469 N485 2.282 . S
Mn469 O493 2.215 . S
Mn469 O495 2.117 . S
C470 O492 1.234 . S
C470 O493 1.283 . S
C471 O483 1.281 . S
C471 O484 1.236 . S
C472 O494 1.240 . S
C472 O495 1.264 . S
O473 Mn468 2.095 . S
O473 C482 1.250 . S
O474 Mn469 2.121 . S
O474 C482 1.258 . S
C475 N476 1.326 . S
C475 C479 1.460 1_655 S
C475 H481 0.929 1_655 S
N476 Mn469 2.257 . S
N476 C475 1.326 . S
N476 C480 1.362 . S
C477 C478 1.258 . S
C477 C480 1.431 . S
C477 C497 1.449 . S
C478 C477 1.258 . S
C478 C479 1.477 1_655 S
C478 H498 0.931 . S
C479 C475 1.460 1_455 S
C479 C478 1.477 1_455 S
C479 H499 0.930 . S
C480 N476 1.362 . S
C480 C477 1.431 . S
C480 C490 1.476 . S
H481 C475 0.929 1_455 S
C482 O473 1.250 . S
C482 O474 1.258 . S
O483 Mn468 2.162 . S
O483 C471 1.281 . S
O484 Mn468 2.297 . S
O484 C471 1.236 . S
N485 Mn469 2.282 . S
N485 C486 1.328 . S
N485 C490 1.318 . S
C486 N485 1.328 . S
C486 C487 1.457 . S
C486 H491 0.929 . S
C487 C486 1.457 . S
C487 C488 1.291 . S
C487 H500 0.931 . S
C488 C487 1.291 . S
C488 C489 1.373 . S
C488 H501 0.929 . S
C489 C488 1.373 . S
C489 C490 1.396 . S
C489 C496 1.403 . S
C490 C480 1.476 . S
C490 N485 1.318 . S
C490 C489 1.396 . S
H491 C486 0.929 . S
O492 Mn468 2.385 . S
O492 C470 1.234 . S
O493 Mn468 2.209 . S
O493 Mn469 2.215 . S
O493 C470 1.283 . S
O494 Mn468 2.094 . S
O494 C472 1.240 . S
O495 Mn469 2.117 . S
O495 C472 1.264 . S
C496 C489 1.403 . S
C496 C497 1.399 . S
C496 H502 0.929 . S
C497 C477 1.449 . S
C497 C496 1.399 . S
C497 H503 0.930 . S
H498 C478 0.931 . S
H499 C479 0.930 . S
H500 C487 0.931 . S
H501 C488 0.929 . S
H502 C496 0.929 . S
H503 C497 0.930 . S
Mn504 O509 2.095 . S
Mn504 O519 2.162 . S
Mn504 O520 2.297 . S
Mn504 O528 2.385 . S
Mn504 O529 2.209 . S
Mn504 O530 2.094 . S
Mn505 O510 2.121 . S
Mn505 N512 2.257 . S
Mn505 N521 2.282 . S
Mn505 O529 2.215 . S
Mn505 O531 2.117 . S
C506 O528 1.234 . S
C506 O529 1.283 . S
C507 O519 1.281 . S
C507 O520 1.236 . S
C508 O530 1.240 . S
C508 O531 1.264 . S
O509 Mn504 2.095 . S
O509 C518 1.250 . S
O510 Mn505 2.121 . S
O510 C518 1.258 . S
C511 N512 1.326 . S
C511 C515 1.460 . S
C511 H517 0.929 . S
N512 Mn505 2.257 . S
N512 C511 1.326 . S
N512 C516 1.362 . S
C513 C514 1.258 . S
C513 C516 1.431 . S
C513 C533 1.449 . S
C514 C513 1.258 . S
C514 C515 1.477 . S
C514 H534 0.931 . S
C515 C511 1.460 . S
C515 C514 1.477 . S
C515 H535 0.930 . S
C516 N512 1.362 . S
C516 C513 1.431 . S
C516 C526 1.476 . S
H517 C511 0.929 . S
C518 O509 1.250 . S
C518 O510 1.258 . S
O519 Mn504 2.162 . S
O519 C507 1.281 . S
O520 Mn504 2.297 . S
O520 C507 1.236 . S
N521 Mn505 2.282 . S
N521 C522 1.328 . S
N521 C526 1.318 . S
C522 N521 1.328 . S
C522 C523 1.457 . S
C522 H527 0.929 . S
C523 C522 1.457 . S
C523 C524 1.291 . S
C523 H536 0.931 . S
C524 C523 1.291 . S
C524 C525 1.373 . S
C524 H537 0.929 . S
C525 C524 1.373 . S
C525 C526 1.396 . S
C525 C532 1.403 . S
C526 C516 1.476 . S
C526 N521 1.318 . S
C526 C525 1.396 . S
H527 C522 0.929 . S
O528 Mn504 2.385 . S
O528 C506 1.234 . S
O529 Mn504 2.209 . S
O529 Mn505 2.215 . S
O529 C506 1.283 . S
O530 Mn504 2.094 . S
O530 C508 1.240 . S
O531 Mn505 2.117 . S
O531 C508 1.264 . S
C532 C525 1.403 . S
C532 C533 1.399 . S
C532 H538 0.929 . S
C533 C513 1.449 . S
C533 C532 1.399 . S
C533 H539 0.930 . S
H534 C514 0.931 . S
H535 C515 0.930 . S
H536 C523 0.931 . S
H537 C524 0.929 . S
H538 C532 0.929 . S
H539 C533 0.930 . S
Mn540 O545 2.095 . S
Mn540 O555 2.162 . S
Mn540 O556 2.297 . S
Mn540 O564 2.385 . S
Mn540 O565 2.209 . S
Mn540 O566 2.094 . S
Mn541 O546 2.121 . S
Mn541 N548 2.257 . S
Mn541 N557 2.282 . S
Mn541 O565 2.215 . S
Mn541 O567 2.117 . S
C542 O564 1.234 . S
C542 O565 1.283 . S
C543 O555 1.281 . S
C543 O556 1.236 . S
C544 O566 1.240 . S
C544 O567 1.264 . S
O545 Mn540 2.095 . S
O545 C554 1.250 . S
O546 Mn541 2.121 . S
O546 C554 1.258 . S
C547 N548 1.326 . S
C547 C551 1.460 . S
C547 H553 0.929 . S
N548 Mn541 2.257 . S
N548 C547 1.326 . S
N548 C552 1.362 . S
C549 C550 1.258 . S
C549 C552 1.431 . S
C549 C569 1.449 . S
C550 C549 1.258 . S
C550 C551 1.477 . S
C550 H570 0.931 . S
C551 C547 1.460 . S
C551 C550 1.477 . S
C551 H571 0.930 . S
C552 N548 1.362 . S
C552 C549 1.431 . S
C552 C562 1.476 . S
H553 C547 0.929 . S
C554 O545 1.250 . S
C554 O546 1.258 . S
O555 Mn540 2.162 . S
O555 C543 1.281 . S
O556 Mn540 2.297 . S
O556 C543 1.236 . S
N557 Mn541 2.282 . S
N557 C558 1.328 . S
N557 C562 1.318 . S
C558 N557 1.328 . S
C558 C559 1.457 . S
C558 H563 0.929 . S
C559 C558 1.457 . S
C559 C560 1.291 . S
C559 H572 0.931 . S
C560 C559 1.291 . S
C560 C561 1.373 . S
C560 H573 0.929 . S
C561 C560 1.373 . S
C561 C562 1.396 . S
C561 C568 1.403 . S
C562 C552 1.476 . S
C562 N557 1.318 . S
C562 C561 1.396 . S
H563 C558 0.929 . S
O564 Mn540 2.385 . S
O564 C542 1.234 . S
O565 Mn540 2.209 . S
O565 Mn541 2.215 . S
O565 C542 1.283 . S
O566 Mn540 2.094 . S
O566 C544 1.240 . S
O567 Mn541 2.117 . S
O567 C544 1.264 . S
C568 C561 1.403 . S
C568 C569 1.399 . S
C568 H574 0.929 . S
C569 C549 1.449 . S
C569 C568 1.399 . S
C569 H575 0.930 . S
H570 C550 0.931 . S
H571 C551 0.930 . S
H572 C559 0.931 . S
H573 C560 0.929 . S
H574 C568 0.929 . S
H575 C569 0.930 . S
Mn576 O581 2.095 . S
Mn576 O591 2.162 . S
Mn576 O592 2.297 . S
Mn576 O600 2.385 . S
Mn576 O601 2.209 . S
Mn576 O602 2.094 . S
Mn577 O582 2.121 . S
Mn577 N584 2.257 . S
Mn577 N593 2.282 . S
Mn577 O601 2.215 . S
Mn577 O603 2.117 . S
C578 O600 1.234 . S
C578 O601 1.283 . S
C579 O591 1.281 . S
C579 O592 1.236 . S
C580 O602 1.240 . S
C580 O603 1.264 . S
O581 Mn576 2.095 . S
O581 C590 1.250 . S
O582 Mn577 2.121 . S
O582 C590 1.258 . S
C583 N584 1.326 . S
C583 C587 1.460 1_545 S
C583 H589 0.929 1_545 S
N584 Mn577 2.257 . S
N584 C583 1.326 . S
N584 C588 1.362 . S
C585 C586 1.258 . S
C585 C588 1.431 . S
C585 C605 1.449 . S
C586 C585 1.258 . S
C586 C587 1.477 1_545 S
C586 H606 0.931 . S
C587 C583 1.460 1_565 S
C587 C586 1.477 1_565 S
C587 H607 0.930 . S
C588 N584 1.362 . S
C588 C585 1.431 . S
C588 C598 1.476 . S
H589 C583 0.929 1_565 S
C590 O581 1.250 . S
C590 O582 1.258 . S
O591 Mn576 2.162 . S
O591 C579 1.281 . S
O592 Mn576 2.297 . S
O592 C579 1.236 . S
N593 Mn577 2.282 . S
N593 C594 1.328 . S
N593 C598 1.318 . S
C594 N593 1.328 . S
C594 C595 1.457 . S
C594 H599 0.929 . S
C595 C594 1.457 . S
C595 C596 1.291 . S
C595 H608 0.931 . S
C596 C595 1.291 . S
C596 C597 1.373 . S
C596 H609 0.929 . S
C597 C596 1.373 . S
C597 C598 1.396 . S
C597 C604 1.403 . S
C598 C588 1.476 . S
C598 N593 1.318 . S
C598 C597 1.396 . S
H599 C594 0.929 . S
O600 Mn576 2.385 . S
O600 C578 1.234 . S
O601 Mn576 2.209 . S
O601 Mn577 2.215 . S
O601 C578 1.283 . S
O602 Mn576 2.094 . S
O602 C580 1.240 . S
O603 Mn577 2.117 . S
O603 C580 1.264 . S
C604 C597 1.403 . S
C604 C605 1.399 . S
C604 H610 0.929 . S
C605 C585 1.449 . S
C605 C604 1.399 . S
C605 H611 0.930 . S
H606 C586 0.931 . S
H607 C587 0.930 . S
H608 C595 0.931 . S
H609 C596 0.929 . S
H610 C604 0.929 . S
H611 C605 0.930 . S
Mn612 O617 2.095 . S
Mn612 O627 2.162 . S
Mn612 O628 2.297 . S
Mn612 O636 2.385 . S
Mn612 O637 2.209 . S
Mn612 O638 2.094 . S
Mn613 O618 2.121 . S
Mn613 N620 2.257 . S
Mn613 N629 2.282 . S
Mn613 O637 2.215 . S
Mn613 O639 2.117 . S
C614 O636 1.234 . S
C614 O637 1.283 . S
C615 O627 1.281 . S
C615 O628 1.236 . S
C616 O638 1.240 . S
C616 O639 1.264 . S
O617 Mn612 2.095 . S
O617 C626 1.250 . S
O618 Mn613 2.121 . S
O618 C626 1.258 . S
C619 N620 1.326 . S
C619 C623 1.460 . S
C619 H625 0.929 . S
N620 Mn613 2.257 . S
N620 C619 1.326 . S
N620 C624 1.362 . S
C621 C622 1.258 . S
C621 C624 1.431 . S
C621 C641 1.449 . S
C622 C621 1.258 . S
C622 C623 1.477 . S
C622 H642 0.931 . S
C623 C619 1.460 . S
C623 C622 1.477 . S
C623 H643 0.930 . S
C624 N620 1.362 . S
C624 C621 1.431 . S
C624 C634 1.476 . S
H625 C619 0.929 . S
C626 O617 1.250 . S
C626 O618 1.258 . S
O627 Mn612 2.162 . S
O627 C615 1.281 . S
O628 Mn612 2.297 . S
O628 C615 1.236 . S
N629 Mn613 2.282 . S
N629 C630 1.328 . S
N629 C634 1.318 . S
C630 N629 1.328 . S
C630 C631 1.457 . S
C630 H635 0.929 . S
C631 C630 1.457 . S
C631 C632 1.291 . S
C631 H644 0.931 . S
C632 C631 1.291 . S
C632 C633 1.373 . S
C632 H645 0.929 . S
C633 C632 1.373 . S
C633 C634 1.396 . S
C633 C640 1.403 . S
C634 C624 1.476 . S
C634 N629 1.318 . S
C634 C633 1.396 . S
H635 C630 0.929 . S
O636 Mn612 2.385 . S
O636 C614 1.234 . S
O637 Mn612 2.209 . S
O637 Mn613 2.215 . S
O637 C614 1.283 . S
O638 Mn612 2.094 . S
O638 C616 1.240 . S
O639 Mn613 2.117 . S
O639 C616 1.264 . S
C640 C633 1.403 . S
C640 C641 1.399 . S
C640 H646 0.929 . S
C641 C621 1.449 . S
C641 C640 1.399 . S
C641 H647 0.930 . S
H642 C622 0.931 . S
H643 C623 0.930 . S
H644 C631 0.931 . S
H645 C632 0.929 . S
H646 C640 0.929 . S
H647 C641 0.930 . S
H648 O674 0.856 1_556 S
H649 O677 0.854 . S
H650 C685 0.930 . S
H651 C686 0.930 . S
H652 C688 0.930 . S
H653 C689 0.930 . S
H654 C691 0.931 . S
H655 C692 0.930 . S
H656 C694 0.930 . S
H657 C695 0.929 . S
H658 C697 0.930 . S
H659 C698 0.931 . S
H660 C700 0.930 . S
H661 C701 0.929 . S
H662 C703 0.931 . S
H663 C704 0.930 . S
H664 C706 0.930 . S
H665 C707 0.932 . S
H666 C709 0.930 . S
H667 C710 0.929 . S
H668 C712 0.931 . S
H669 C713 0.930 . S
H670 C715 0.929 . S
H671 C716 0.931 . S
H672 C718 0.930 . S
H673 C719 0.929 . S
O674 H648 0.856 1_554 S
O674 C720 1.300 . S
O675 C720 1.209 . S
O676 C721 1.199 . S
O677 H649 0.854 . S
O677 C721 1.297 . S
C678 C679 1.404 . S
C678 C683 1.397 . S
C678 C684 1.492 . S
C679 C678 1.404 . S
C679 C680 1.396 . S
C679 C690 1.492 . S
C680 C679 1.396 . S
C680 C681 1.397 . S
C680 C696 1.509 . S
C681 C680 1.397 . S
C681 C682 1.412 . S
C681 C702 1.485 . S
C682 C681 1.412 . S
C682 C683 1.388 . S
C682 C708 1.490 . S
C683 C678 1.397 . S
C683 C682 1.388 . S
C683 C714 1.519 . S
C684 C678 1.492 . S
C684 C685 1.363 . S
C684 C689 1.390 . S
C685 H650 0.930 . S
C685 C684 1.363 . S
C685 C686 1.372 . S
C686 H651 0.930 . S
C686 C685 1.372 . S
C686 C687 1.383 . S
C687 C686 1.383 . S
C687 C688 1.395 . S
C688 H652 0.930 . S
C688 C687 1.395 . S
C688 C689 1.362 . S
C689 H653 0.930 . S
C689 C684 1.390 . S
C689 C688 1.362 . S
C690 C679 1.492 . S
C690 C691 1.377 . S
C690 C695 1.397 . S
C691 H654 0.931 . S
C691 C690 1.377 . S
C691 C692 1.376 . S
C692 H655 0.930 . S
C692 C691 1.376 . S
C692 C693 1.376 . S
C693 C692 1.376 . S
C693 C694 1.378 . S
C693 C720 1.486 . S
C694 H656 0.930 . S
C694 C693 1.378 . S
C694 C695 1.376 . S
C695 H657 0.929 . S
C695 C690 1.397 . S
C695 C694 1.376 . S
C696 C680 1.509 . S
C696 C697 1.391 . S
C696 C701 1.386 . S
C697 H658 0.930 . S
C697 C696 1.391 . S
C697 C698 1.375 . S
C698 H659 0.931 . S
C698 C697 1.375 . S
C698 C699 1.375 . S
C699 C698 1.375 . S
C699 C700 1.361 . S
C700 H660 0.930 . S
C700 C699 1.361 . S
C700 C701 1.399 . S
C701 H661 0.929 . S
C701 C696 1.386 . S
C701 C700 1.399 . S
C702 C681 1.485 . S
C702 C703 1.394 . S
C702 C707 1.360 . S
C703 H662 0.931 . S
C703 C702 1.394 . S
C703 C704 1.372 . S
C704 H663 0.930 . S
C704 C703 1.372 . S
C704 C705 1.397 . S
C705 C704 1.397 . S
C705 C706 1.390 . S
C705 C721 1.476 . S
C706 H664 0.930 . S
C706 C705 1.390 . S
C706 C707 1.366 . S
C707 H665 0.932 . S
C707 C702 1.360 . S
C707 C706 1.366 . S
C708 C682 1.490 . S
C708 C709 1.380 . S
C708 C713 1.386 . S
C709 H666 0.930 . S
C709 C708 1.380 . S
C709 C710 1.381 . S
C710 H667 0.929 . S
C710 C709 1.381 . S
C710 C711 1.371 . S
C711 C710 1.371 . S
C711 C712 1.380 . S
C712 H668 0.931 . S
C712 C711 1.380 . S
C712 C713 1.387 . S
C713 H669 0.930 . S
C713 C708 1.386 . S
C713 C712 1.387 . S
C714 C683 1.519 . S
C714 C715 1.377 . S
C714 C719 1.361 . S
C715 H670 0.929 . S
C715 C714 1.377 . S
C715 C716 1.386 . S
C716 H671 0.931 . S
C716 C715 1.386 . S
C716 C717 1.363 . S
C717 C716 1.363 . S
C717 C718 1.385 . S
C718 H672 0.930 . S
C718 C717 1.385 . S
C718 C719 1.396 . S
C719 H673 0.929 . S
C719 C714 1.361 . S
C719 C718 1.396 . S
C720 O674 1.300 . S
C720 O675 1.209 . S
C720 C693 1.486 . S
C721 O676 1.199 . S
C721 O677 1.297 . S
C721 C705 1.476 . S
H722 O748 0.856 . S
H723 O751 0.854 . S
H724 C759 0.930 . S
H725 C760 0.930 . S
H726 C762 0.930 . S
H727 C763 0.930 . S
H728 C765 0.931 . S
H729 C766 0.930 . S
H730 C768 0.930 . S
H731 C769 0.929 . S
H732 C771 0.930 . S
H733 C772 0.931 . S
H734 C774 0.930 . S
H735 C775 0.929 . S
H736 C777 0.931 . S
H737 C778 0.930 . S
H738 C780 0.930 . S
H739 C781 0.932 . S
H740 C783 0.930 . S
H741 C784 0.929 . S
H742 C786 0.931 . S
H743 C787 0.930 . S
H744 C789 0.929 . S
H745 C790 0.931 . S
H746 C792 0.930 . S
H747 C793 0.929 . S
O748 H722 0.856 . S
O748 C794 1.300 . S
O749 C794 1.209 . S
O750 C795 1.199 . S
O751 H723 0.854 . S
O751 C795 1.297 1_545 S
C752 C753 1.404 . S
C752 C757 1.397 . S
C752 C758 1.492 . S
C753 C752 1.404 . S
C753 C754 1.396 . S
C753 C764 1.492 . S
C754 C753 1.396 . S
C754 C755 1.397 . S
C754 C770 1.509 . S
C755 C754 1.397 . S
C755 C756 1.412 . S
C755 C776 1.485 . S
C756 C755 1.412 . S
C756 C757 1.388 . S
C756 C782 1.490 . S
C757 C752 1.397 . S
C757 C756 1.388 . S
C757 C788 1.519 . S
C758 C752 1.492 . S
C758 C759 1.363 . S
C758 C763 1.390 . S
C759 H724 0.930 . S
C759 C758 1.363 . S
C759 C760 1.372 . S
C760 H725 0.930 . S
C760 C759 1.372 . S
C760 C761 1.383 . S
C761 C760 1.383 . S
C761 C762 1.395 . S
C762 H726 0.930 . S
C762 C761 1.395 . S
C762 C763 1.362 . S
C763 H727 0.930 . S
C763 C758 1.390 . S
C763 C762 1.362 . S
C764 C753 1.492 . S
C764 C765 1.377 . S
C764 C769 1.397 . S
C765 H728 0.931 . S
C765 C764 1.377 . S
C765 C766 1.376 . S
C766 H729 0.930 . S
C766 C765 1.376 . S
C766 C767 1.376 . S
C767 C766 1.376 . S
C767 C768 1.378 . S
C767 C794 1.486 . S
C768 H730 0.930 . S
C768 C767 1.378 . S
C768 C769 1.376 . S
C769 H731 0.929 . S
C769 C764 1.397 . S
C769 C768 1.376 . S
C770 C754 1.509 . S
C770 C771 1.391 . S
C770 C775 1.386 . S
C771 H732 0.930 . S
C771 C770 1.391 . S
C771 C772 1.375 . S
C772 H733 0.931 . S
C772 C771 1.375 . S
C772 C773 1.375 . S
C773 C772 1.375 . S
C773 C774 1.361 . S
C774 H734 0.930 . S
C774 C773 1.361 . S
C774 C775 1.399 . S
C775 H735 0.929 . S
C775 C770 1.386 . S
C775 C774 1.399 . S
C776 C755 1.485 . S
C776 C777 1.394 . S
C776 C781 1.360 . S
C777 H736 0.931 . S
C777 C776 1.394 . S
C777 C778 1.372 . S
C778 H737 0.930 . S
C778 C777 1.372 . S
C778 C779 1.397 . S
C779 C778 1.397 . S
C779 C780 1.390 . S
C779 C795 1.476 . S
C780 H738 0.930 . S
C780 C779 1.390 . S
C780 C781 1.366 . S
C781 H739 0.932 . S
C781 C776 1.360 . S
C781 C780 1.366 . S
C782 C756 1.490 . S
C782 C783 1.380 . S
C782 C787 1.386 . S
C783 H740 0.930 . S
C783 C782 1.380 . S
C783 C784 1.381 . S
C784 H741 0.929 . S
C784 C783 1.381 . S
C784 C785 1.371 . S
C785 C784 1.371 . S
C785 C786 1.380 . S
C786 H742 0.931 . S
C786 C785 1.380 . S
C786 C787 1.387 . S
C787 H743 0.930 . S
C787 C782 1.386 . S
C787 C786 1.387 . S
C788 C757 1.519 . S
C788 C789 1.377 . S
C788 C793 1.361 . S
C789 H744 0.929 . S
C789 C788 1.377 . S
C789 C790 1.386 . S
C790 H745 0.931 . S
C790 C789 1.386 . S
C790 C791 1.363 . S
C791 C790 1.363 . S
C791 C792 1.385 . S
C792 H746 0.930 . S
C792 C791 1.385 . S
C792 C793 1.396 . S
C793 H747 0.929 . S
C793 C788 1.361 . S
C793 C792 1.396 . S
C794 O748 1.300 . S
C794 O749 1.209 . S
C794 C767 1.486 . S
C795 O750 1.199 . S
C795 O751 1.297 1_565 S
C795 C779 1.476 . S
H796 O822 0.856 . S
H797 O825 0.854 . S
H798 C833 0.930 . S
H799 C834 0.930 . S
H800 C836 0.930 . S
H801 C837 0.930 . S
H802 C839 0.931 . S
H803 C840 0.930 . S
H804 C842 0.930 . S
H805 C843 0.929 . S
H806 C845 0.930 . S
H807 C846 0.931 . S
H808 C848 0.930 . S
H809 C849 0.929 . S
H810 C851 0.931 . S
H811 C852 0.930 . S
H812 C854 0.930 . S
H813 C855 0.932 . S
H814 C857 0.930 . S
H815 C858 0.929 . S
H816 C860 0.931 . S
H817 C861 0.930 . S
H818 C863 0.929 . S
H819 C864 0.931 . S
H820 C866 0.930 . S
H821 C867 0.929 . S
O822 H796 0.856 . S
O822 C868 1.300 . S
O823 C868 1.209 . S
O824 C869 1.171 1_545 S
O825 H797 0.854 . S
O825 C869 1.297 . S
C826 C827 1.404 . S
C826 C831 1.397 . S
C826 C832 1.492 . S
C827 C826 1.404 . S
C827 C828 1.396 . S
C827 C838 1.492 . S
C828 C827 1.396 . S
C828 C829 1.397 . S
C828 C844 1.509 . S
C829 C828 1.397 . S
C829 C830 1.412 . S
C829 C850 1.485 . S
C830 C829 1.412 . S
C830 C831 1.388 . S
C830 C856 1.490 . S
C831 C826 1.397 . S
C831 C830 1.388 . S
C831 C862 1.519 . S
C832 C826 1.492 . S
C832 C833 1.363 . S
C832 C837 1.390 . S
C833 H798 0.930 . S
C833 C832 1.363 . S
C833 C834 1.372 . S
C834 H799 0.930 . S
C834 C833 1.372 . S
C834 C835 1.383 . S
C835 C834 1.383 . S
C835 C836 1.395 . S
C836 H800 0.930 . S
C836 C835 1.395 . S
C836 C837 1.362 . S
C837 H801 0.930 . S
C837 C832 1.390 . S
C837 C836 1.362 . S
C838 C827 1.492 . S
C838 C839 1.377 . S
C838 C843 1.397 . S
C839 H802 0.931 . S
C839 C838 1.377 . S
C839 C840 1.376 . S
C840 H803 0.930 . S
C840 C839 1.376 . S
C840 C841 1.376 . S
C841 C840 1.376 . S
C841 C842 1.378 . S
C841 C868 1.486 . S
C842 H804 0.930 . S
C842 C841 1.378 . S
C842 C843 1.376 . S
C843 H805 0.929 . S
C843 C838 1.397 . S
C843 C842 1.376 . S
C844 C828 1.509 . S
C844 C845 1.391 . S
C844 C849 1.386 . S
C845 H806 0.930 . S
C845 C844 1.391 . S
C845 C846 1.375 . S
C846 H807 0.931 . S
C846 C845 1.375 . S
C846 C847 1.375 . S
C847 C846 1.375 . S
C847 C848 1.361 . S
C848 H808 0.930 . S
C848 C847 1.361 . S
C848 C849 1.399 . S
C849 H809 0.929 . S
C849 C844 1.386 . S
C849 C848 1.399 . S
C850 C829 1.485 . S
C850 C851 1.394 . S
C850 C855 1.360 . S
C851 H810 0.931 . S
C851 C850 1.394 . S
C851 C852 1.372 . S
C852 H811 0.930 . S
C852 C851 1.372 . S
C852 C853 1.397 . S
C853 C852 1.397 . S
C853 C854 1.390 . S
C853 C869 1.476 . S
C854 H812 0.930 . S
C854 C853 1.390 . S
C854 C855 1.366 . S
C855 H813 0.932 . S
C855 C850 1.360 . S
C855 C854 1.366 . S
C856 C830 1.490 . S
C856 C857 1.380 . S
C856 C861 1.386 . S
C857 H814 0.930 . S
C857 C856 1.380 . S
C857 C858 1.381 . S
C858 H815 0.929 . S
C858 C857 1.381 . S
C858 C859 1.371 . S
C859 C858 1.371 . S
C859 C860 1.380 . S
C860 H816 0.931 . S
C860 C859 1.380 . S
C860 C861 1.387 . S
C861 H817 0.930 . S
C861 C856 1.386 . S
C861 C860 1.387 . S
C862 C831 1.519 . S
C862 C863 1.377 . S
C862 C867 1.361 . S
C863 H818 0.929 . S
C863 C862 1.377 . S
C863 C864 1.386 . S
C864 H819 0.931 . S
C864 C863 1.386 . S
C864 C865 1.363 . S
C865 C864 1.363 . S
C865 C866 1.385 . S
C866 H820 0.930 . S
C866 C865 1.385 . S
C866 C867 1.396 . S
C867 H821 0.929 . S
C867 C862 1.361 . S
C867 C866 1.396 . S
C868 O822 1.300 . S
C868 O823 1.209 . S
C868 C841 1.486 . S
C869 O824 1.171 1_565 S
C869 O825 1.297 . S
C869 C853 1.476 . S
H870 O896 0.856 . S
H871 O899 0.854 . S
H872 C907 0.930 . S
H873 C908 0.930 . S
H874 C910 0.930 . S
H875 C911 0.930 . S
H876 C913 0.931 . S
H877 C914 0.930 . S
H878 C916 0.930 . S
H879 C917 0.929 . S
H880 C919 0.930 . S
H881 C920 0.931 . S
H882 C922 0.930 . S
H883 C923 0.929 . S
H884 C925 0.931 . S
H885 C926 0.930 . S
H886 C928 0.930 . S
H887 C929 0.932 . S
H888 C931 0.930 . S
H889 C932 0.929 . S
H890 C934 0.931 . S
H891 C935 0.930 . S
H892 C937 0.929 . S
H893 C938 0.931 . S
H894 C940 0.930 . S
H895 C941 0.929 . S
O896 H870 0.856 . S
O896 C942 1.300 . S
O897 C942 1.209 . S
O898 C943 1.199 . S
O899 H871 0.854 . S
O899 C943 1.297 . S
C900 C901 1.404 . S
C900 C905 1.397 . S
C900 C906 1.492 . S
C901 C900 1.404 . S
C901 C902 1.396 . S
C901 C912 1.492 . S
C902 C901 1.396 . S
C902 C903 1.397 . S
C902 C918 1.509 . S
C903 C902 1.397 . S
C903 C904 1.412 . S
C903 C924 1.485 . S
C904 C903 1.412 . S
C904 C905 1.388 . S
C904 C930 1.490 . S
C905 C900 1.397 . S
C905 C904 1.388 . S
C905 C936 1.519 . S
C906 C900 1.492 . S
C906 C907 1.363 . S
C906 C911 1.390 . S
C907 H872 0.930 . S
C907 C906 1.363 . S
C907 C908 1.372 . S
C908 H873 0.930 . S
C908 C907 1.372 . S
C908 C909 1.383 . S
C909 C908 1.383 . S
C909 C910 1.395 . S
C910 H874 0.930 . S
C910 C909 1.395 . S
C910 C911 1.362 . S
C911 H875 0.930 . S
C911 C906 1.390 . S
C911 C910 1.362 . S
C912 C901 1.492 . S
C912 C913 1.377 . S
C912 C917 1.397 . S
C913 H876 0.931 . S
C913 C912 1.377 . S
C913 C914 1.376 1_556 S
C914 H877 0.930 . S
C914 C913 1.376 1_554 S
C914 C915 1.376 . S
C915 C914 1.376 . S
C915 C916 1.378 1_554 S
C915 C942 1.486 . S
C916 H878 0.930 . S
C916 C915 1.378 1_556 S
C916 C917 1.376 . S
C917 H879 0.929 . S
C917 C912 1.397 . S
C917 C916 1.376 . S
C918 C902 1.509 . S
C918 C919 1.391 . S
C918 C923 1.386 . S
C919 H880 0.930 . S
C919 C918 1.391 . S
C919 C920 1.375 . S
C920 H881 0.931 . S
C920 C919 1.375 . S
C920 C921 1.375 . S
C921 C920 1.375 . S
C921 C922 1.361 . S
C922 H882 0.930 . S
C922 C921 1.361 . S
C922 C923 1.399 . S
C923 H883 0.929 . S
C923 C918 1.386 . S
C923 C922 1.399 . S
C924 C903 1.485 . S
C924 C925 1.394 . S
C924 C929 1.360 . S
C925 H884 0.931 . S
C925 C924 1.394 . S
C925 C926 1.372 . S
C926 H885 0.930 . S
C926 C925 1.372 . S
C926 C927 1.397 . S
C927 C926 1.397 . S
C927 C928 1.390 . S
C927 C943 1.476 . S
C928 H886 0.930 . S
C928 C927 1.390 . S
C928 C929 1.366 . S
C929 H887 0.932 . S
C929 C924 1.360 . S
C929 C928 1.366 . S
C930 C904 1.490 . S
C930 C931 1.380 . S
C930 C935 1.386 . S
C931 H888 0.930 . S
C931 C930 1.380 . S
C931 C932 1.381 . S
C932 H889 0.929 . S
C932 C931 1.381 . S
C932 C933 1.371 . S
C933 C932 1.371 . S
C933 C934 1.380 . S
C934 H890 0.931 . S
C934 C933 1.380 . S
C934 C935 1.387 . S
C935 H891 0.930 . S
C935 C930 1.386 . S
C935 C934 1.387 . S
C936 C905 1.519 . S
C936 C937 1.377 . S
C936 C941 1.361 . S
C937 H892 0.929 . S
C937 C936 1.377 . S
C937 C938 1.386 . S
C938 H893 0.931 . S
C938 C937 1.386 . S
C938 C939 1.363 . S
C939 C938 1.363 . S
C939 C940 1.385 . S
C940 H894 0.930 . S
C940 C939 1.385 . S
C940 C941 1.396 . S
C941 H895 0.929 . S
C941 C936 1.361 . S
C941 C940 1.396 . S
C942 O896 1.300 . S
C942 O897 1.209 . S
C942 C915 1.486 . S
C943 O898 1.199 . S
C943 O899 1.297 . S
C943 C927 1.476 . S
H944 O970 0.856 . S
H945 O973 0.854 . S
H946 C981 0.930 . S
H947 C982 0.930 . S
H948 C984 0.930 . S
H949 C985 0.930 . S
H950 C987 0.931 . S
H951 C988 0.911 1_554 S
H952 C990 0.930 1_554 S
H953 C991 0.929 . S
H954 C993 0.930 . S
H955 C994 0.931 . S
H956 C996 0.930 . S
H957 C997 0.929 . S
H958 C999 0.931 . S
H959 C1000 0.930 . S
H960 C1002 0.930 . S
H961 C1003 0.932 . S
H962 C1005 0.930 . S
H963 C1006 0.929 . S
H964 C1008 0.931 . S
H965 C1009 0.930 . S
H966 C1011 0.929 . S
H967 C1012 0.931 . S
H968 C1014 0.930 . S
H969 C1015 0.929 . S
O970 H944 0.856 . S
O970 C1016 1.300 . S
O971 C1016 1.209 . S
O972 C1017 1.199 . S
O973 H945 0.854 . S
O973 C1017 1.297 1_565 S
C974 C975 1.404 . S
C974 C979 1.397 . S
C974 C980 1.492 . S
C975 C974 1.404 . S
C975 C976 1.396 . S
C975 C986 1.492 . S
C976 C975 1.396 . S
C976 C977 1.397 . S
C976 C992 1.509 . S
C977 C976 1.397 . S
C977 C978 1.412 . S
C977 C998 1.485 . S
C978 C977 1.412 . S
C978 C979 1.388 . S
C978 C1004 1.490 . S
C979 C974 1.397 . S
C979 C978 1.388 . S
C979 C1010 1.519 . S
C980 C974 1.492 . S
C980 C981 1.363 . S
C980 C985 1.390 . S
C981 H946 0.930 . S
C981 C980 1.363 . S
C981 C982 1.372 . S
C982 H947 0.930 . S
C982 C981 1.372 . S
C982 C983 1.383 . S
C983 C982 1.383 . S
C983 C984 1.395 . S
C984 H948 0.930 . S
C984 C983 1.395 . S
C984 C985 1.362 . S
C985 H949 0.930 . S
C985 C980 1.390 . S
C985 C984 1.362 . S
C986 C975 1.492 . S
C986 C987 1.377 . S
C986 C991 1.397 . S
C987 H950 0.931 . S
C987 C986 1.377 . S
C987 C988 1.409 . S
C988 H951 0.911 1_556 S
C988 C987 1.409 . S
C988 C989 1.363 1_556 S
C989 C988 1.363 1_554 S
C989 C990 1.378 1_554 S
C989 C1016 1.486 . S
C990 H952 0.930 1_556 S
C990 C989 1.378 1_556 S
C990 C991 1.376 . S
C991 H953 0.929 . S
C991 C986 1.397 . S
C991 C990 1.376 . S
C992 C976 1.509 . S
C992 C993 1.391 . S
C992 C997 1.386 . S
C993 H954 0.930 . S
C993 C992 1.391 . S
C993 C994 1.375 . S
C994 H955 0.931 . S
C994 C993 1.375 . S
C994 C995 1.375 . S
C995 C994 1.375 . S
C995 C996 1.361 . S
C996 H956 0.930 . S
C996 C995 1.361 . S
C996 C997 1.399 . S
C997 H957 0.929 . S
C997 C992 1.386 . S
C997 C996 1.399 . S
C998 C977 1.485 . S
C998 C999 1.394 . S
C998 C1003 1.360 . S
C999 H958 0.931 . S
C999 C998 1.394 . S
C999 C1000 1.372 . S
C1000 H959 0.930 . S
C1000 C999 1.372 . S
C1000 C1001 1.397 . S
C1001 C1000 1.397 . S
C1001 C1002 1.390 . S
C1001 C1017 1.476 . S
C1002 H960 0.930 . S
C1002 C1001 1.390 . S
C1002 C1003 1.366 . S
C1003 H961 0.932 . S
C1003 C998 1.360 . S
C1003 C1002 1.366 . S
C1004 C978 1.490 . S
C1004 C1005 1.380 . S
C1004 C1009 1.386 . S
C1005 H962 0.930 . S
C1005 C1004 1.380 . S
C1005 C1006 1.381 . S
C1006 H963 0.929 . S
C1006 C1005 1.381 . S
C1006 C1007 1.371 . S
C1007 C1006 1.371 . S
C1007 C1008 1.380 . S
C1008 H964 0.931 . S
C1008 C1007 1.380 . S
C1008 C1009 1.387 . S
C1009 H965 0.930 . S
C1009 C1004 1.386 . S
C1009 C1008 1.387 . S
C1010 C979 1.519 . S
C1010 C1011 1.377 . S
C1010 C1015 1.361 . S
C1011 H966 0.929 . S
C1011 C1010 1.377 . S
C1011 C1012 1.386 . S
C1012 H967 0.931 . S
C1012 C1011 1.386 . S
C1012 C1013 1.363 . S
C1013 C1012 1.363 . S
C1013 C1014 1.385 . S
C1014 H968 0.930 . S
C1014 C1013 1.385 . S
C1014 C1015 1.396 . S
C1015 H969 0.929 . S
C1015 C1010 1.361 . S
C1015 C1014 1.396 . S
C1016 O970 1.300 . S
C1016 O971 1.209 . S
C1016 C989 1.486 . S
C1017 O972 1.199 . S
C1017 O973 1.297 1_545 S
C1017 C1001 1.476 . S
H1018 O1044 0.856 . S
H1019 O1047 0.854 . S
H1020 C1055 0.930 . S
H1021 C1056 0.930 . S
H1022 C1058 0.930 . S
H1023 C1059 0.930 . S
H1024 C1061 0.931 . S
H1025 C1062 0.930 . S
H1026 C1064 0.930 . S
H1027 C1065 0.929 . S
H1028 C1067 0.930 . S
H1029 C1068 0.931 . S
H1030 C1070 0.930 . S
H1031 C1071 0.929 . S
H1032 C1073 0.931 . S
H1033 C1074 0.930 . S
H1034 C1076 0.930 . S
H1035 C1077 0.932 . S
H1036 C1079 0.930 . S
H1037 C1080 0.929 . S
H1038 C1082 0.931 . S
H1039 C1083 0.930 . S
H1040 C1085 0.929 . S
H1041 C1086 0.931 . S
H1042 C1088 0.930 . S
H1043 C1089 0.929 . S
O1044 H1018 0.856 . S
O1044 C1090 1.300 . S
O1045 C1090 1.209 . S
O1046 C1091 1.199 . S
O1047 H1019 0.854 . S
O1047 C1091 1.297 . S
C1048 C1049 1.404 . S
C1048 C1053 1.397 . S
C1048 C1054 1.492 . S
C1049 C1048 1.404 . S
C1049 C1050 1.396 . S
C1049 C1060 1.492 . S
C1050 C1049 1.396 . S
C1050 C1051 1.397 . S
C1050 C1066 1.509 . S
C1051 C1050 1.397 . S
C1051 C1052 1.412 . S
C1051 C1072 1.485 . S
C1052 C1051 1.412 . S
C1052 C1053 1.388 . S
C1052 C1078 1.490 . S
C1053 C1048 1.397 . S
C1053 C1052 1.388 . S
C1053 C1084 1.519 . S
C1054 C1048 1.492 . S
C1054 C1055 1.363 . S
C1054 C1059 1.390 . S
C1055 H1020 0.930 . S
C1055 C1054 1.363 . S
C1055 C1056 1.372 . S
C1056 H1021 0.930 . S
C1056 C1055 1.372 . S
C1056 C1057 1.383 . S
C1057 C1056 1.383 . S
C1057 C1058 1.395 . S
C1058 H1022 0.930 . S
C1058 C1057 1.395 . S
C1058 C1059 1.362 . S
C1059 H1023 0.930 . S
C1059 C1054 1.390 . S
C1059 C1058 1.362 . S
C1060 C1049 1.492 . S
C1060 C1061 1.377 . S
C1060 C1065 1.397 . S
C1061 H1024 0.931 . S
C1061 C1060 1.377 . S
C1061 C1062 1.376 1_556 S
C1062 H1025 0.930 . S
C1062 C1061 1.376 1_554 S
C1062 C1063 1.376 . S
C1063 C1062 1.376 . S
C1063 C1064 1.378 . S
C1063 C1090 1.486 . S
C1064 H1026 0.930 . S
C1064 C1063 1.378 . S
C1064 C1065 1.376 1_554 S
C1065 H1027 0.929 . S
C1065 C1060 1.397 . S
C1065 C1064 1.376 1_556 S
C1066 C1050 1.509 . S
C1066 C1067 1.391 . S
C1066 C1071 1.386 . S
C1067 H1028 0.930 . S
C1067 C1066 1.391 . S
C1067 C1068 1.375 . S
C1068 H1029 0.931 . S
C1068 C1067 1.375 . S
C1068 C1069 1.375 . S
C1069 C1068 1.375 . S
C1069 C1070 1.361 . S
C1070 H1030 0.930 . S
C1070 C1069 1.361 . S
C1070 C1071 1.399 . S
C1071 H1031 0.929 . S
C1071 C1066 1.386 . S
C1071 C1070 1.399 . S
C1072 C1051 1.485 . S
C1072 C1073 1.394 . S
C1072 C1077 1.360 . S
C1073 H1032 0.931 . S
C1073 C1072 1.394 . S
C1073 C1074 1.372 . S
C1074 H1033 0.930 . S
C1074 C1073 1.372 . S
C1074 C1075 1.397 . S
C1075 C1074 1.397 . S
C1075 C1076 1.390 . S
C1075 C1091 1.476 . S
C1076 H1034 0.930 . S
C1076 C1075 1.390 . S
C1076 C1077 1.366 . S
C1077 H1035 0.932 . S
C1077 C1072 1.360 . S
C1077 C1076 1.366 . S
C1078 C1052 1.490 . S
C1078 C1079 1.380 . S
C1078 C1083 1.386 . S
C1079 H1036 0.930 . S
C1079 C1078 1.380 . S
C1079 C1080 1.381 . S
C1080 H1037 0.929 . S
C1080 C1079 1.381 . S
C1080 C1081 1.371 . S
C1081 C1080 1.371 . S
C1081 C1082 1.380 . S
C1082 H1038 0.931 . S
C1082 C1081 1.380 . S
C1082 C1083 1.387 . S
C1083 H1039 0.930 . S
C1083 C1078 1.386 . S
C1083 C1082 1.387 . S
C1084 C1053 1.519 . S
C1084 C1085 1.377 . S
C1084 C1089 1.361 . S
C1085 H1040 0.929 . S
C1085 C1084 1.377 . S
C1085 C1086 1.386 . S
C1086 H1041 0.931 . S
C1086 C1085 1.386 . S
C1086 C1087 1.363 . S
C1087 C1086 1.363 . S
C1087 C1088 1.385 . S
C1088 H1042 0.930 . S
C1088 C1087 1.385 . S
C1088 C1089 1.396 . S
C1089 H1043 0.929 . S
C1089 C1084 1.361 . S
C1089 C1088 1.396 . S
C1090 O1044 1.300 . S
C1090 O1045 1.209 . S
C1090 C1063 1.486 . S
C1091 O1046 1.199 . S
C1091 O1047 1.297 . S
C1091 C1075 1.476 . S
H1092 O1118 0.856 . S
H1093 O1121 0.854 . S
H1094 C1129 0.930 . S
H1095 C1130 0.930 . S
H1096 C1132 0.930 . S
H1097 C1133 0.930 . S
H1098 C1135 0.931 . S
H1099 C1136 0.930 . S
H1100 C1138 0.930 . S
H1101 C1139 0.929 . S
H1102 C1141 0.930 . S
H1103 C1142 0.931 . S
H1104 C1144 0.930 . S
H1105 C1145 0.929 . S
H1106 C1147 0.931 . S
H1107 C1148 0.930 . S
H1108 C1150 0.930 . S
H1109 C1151 0.932 . S
H1110 C1153 0.930 . S
H1111 C1154 0.929 . S
H1112 C1156 0.931 . S
H1113 C1157 0.930 . S
H1114 C1159 0.929 . S
H1115 C1160 0.931 . S
H1116 C1162 0.930 . S
H1117 C1163 0.929 . S
O1118 H1092 0.856 . S
O1118 C1164 1.300 . S
O1119 C1164 1.209 . S
O1120 C1165 1.199 . S
O1121 H1093 0.854 . S
O1121 C1165 1.297 . S
C1122 C1123 1.404 . S
C1122 C1127 1.397 . S
C1122 C1128 1.492 . S
C1123 C1122 1.404 . S
C1123 C1124 1.396 . S
C1123 C1134 1.492 . S
C1124 C1123 1.396 . S
C1124 C1125 1.397 . S
C1124 C1140 1.509 . S
C1125 C1124 1.397 . S
C1125 C1126 1.412 . S
C1125 C1146 1.485 . S
C1126 C1125 1.412 . S
C1126 C1127 1.388 . S
C1126 C1152 1.490 . S
C1127 C1122 1.397 . S
C1127 C1126 1.388 . S
C1127 C1158 1.519 . S
C1128 C1122 1.492 . S
C1128 C1129 1.363 . S
C1128 C1133 1.390 . S
C1129 H1094 0.930 . S
C1129 C1128 1.363 . S
C1129 C1130 1.372 . S
C1130 H1095 0.930 . S
C1130 C1129 1.372 . S
C1130 C1131 1.383 . S
C1131 C1130 1.383 . S
C1131 C1132 1.395 . S
C1132 H1096 0.930 . S
C1132 C1131 1.395 . S
C1132 C1133 1.362 . S
C1133 H1097 0.930 . S
C1133 C1128 1.390 . S
C1133 C1132 1.362 . S
C1134 C1123 1.492 . S
C1134 C1135 1.377 . S
C1134 C1139 1.397 . S
C1135 H1098 0.931 . S
C1135 C1134 1.377 . S
C1135 C1136 1.376 . S
C1136 H1099 0.930 . S
C1136 C1135 1.376 . S
C1136 C1137 1.376 . S
C1137 C1136 1.376 . S
C1137 C1138 1.378 . S
C1137 C1164 1.486 . S
C1138 H1100 0.930 . S
C1138 C1137 1.378 . S
C1138 C1139 1.376 . S
C1139 H1101 0.929 . S
C1139 C1134 1.397 . S
C1139 C1138 1.376 . S
C1140 C1124 1.509 . S
C1140 C1141 1.391 . S
C1140 C1145 1.386 . S
C1141 H1102 0.930 . S
C1141 C1140 1.391 . S
C1141 C1142 1.375 . S
C1142 H1103 0.931 . S
C1142 C1141 1.375 . S
C1142 C1143 1.375 . S
C1143 C1142 1.375 . S
C1143 C1144 1.361 . S
C1144 H1104 0.930 . S
C1144 C1143 1.361 . S
C1144 C1145 1.399 . S
C1145 H1105 0.929 . S
C1145 C1140 1.386 . S
C1145 C1144 1.399 . S
C1146 C1125 1.485 . S
C1146 C1147 1.394 . S
C1146 C1151 1.360 . S
C1147 H1106 0.931 . S
C1147 C1146 1.394 . S
C1147 C1148 1.372 . S
C1148 H1107 0.930 . S
C1148 C1147 1.372 . S
C1148 C1149 1.397 . S
C1149 C1148 1.397 . S
C1149 C1150 1.390 . S
C1149 C1165 1.476 . S
C1150 H1108 0.930 . S
C1150 C1149 1.390 . S
C1150 C1151 1.366 . S
C1151 H1109 0.932 . S
C1151 C1146 1.360 . S
C1151 C1150 1.366 . S
C1152 C1126 1.490 . S
C1152 C1153 1.380 . S
C1152 C1157 1.386 . S
C1153 H1110 0.930 . S
C1153 C1152 1.380 . S
C1153 C1154 1.381 . S
C1154 H1111 0.929 . S
C1154 C1153 1.381 . S
C1154 C1155 1.371 . S
C1155 C1154 1.371 . S
C1155 C1156 1.380 . S
C1156 H1112 0.931 . S
C1156 C1155 1.380 . S
C1156 C1157 1.387 . S
C1157 H1113 0.930 . S
C1157 C1152 1.386 . S
C1157 C1156 1.387 . S
C1158 C1127 1.519 . S
C1158 C1159 1.377 . S
C1158 C1163 1.361 . S
C1159 H1114 0.929 . S
C1159 C1158 1.377 . S
C1159 C1160 1.386 . S
C1160 H1115 0.931 . S
C1160 C1159 1.386 . S
C1160 C1161 1.363 . S
C1161 C1160 1.363 . S
C1161 C1162 1.385 . S
C1162 H1116 0.930 . S
C1162 C1161 1.385 . S
C1162 C1163 1.396 . S
C1163 H1117 0.929 . S
C1163 C1158 1.361 . S
C1163 C1162 1.396 . S
C1164 O1118 1.300 . S
C1164 O1119 1.209 . S
C1164 C1137 1.486 . S
C1165 O1120 1.199 . S
C1165 O1121 1.297 . S
C1165 C1149 1.476 . S
H1166 O1192 0.856 . S
H1167 O1195 0.854 . S
H1168 C1203 0.930 . S
H1169 C1204 0.930 . S
H1170 C1206 0.930 . S
H1171 C1207 0.930 . S
H1172 C1209 0.931 . S
H1173 C1210 0.930 . S
H1174 C1212 0.930 . S
H1175 C1213 0.929 . S
H1176 C1215 0.930 . S
H1177 C1216 0.931 . S
H1178 C1218 0.930 . S
H1179 C1219 0.929 . S
H1180 C1221 0.931 . S
H1181 C1222 0.930 . S
H1182 C1224 0.930 . S
H1183 C1225 0.932 . S
H1184 C1227 0.930 . S
H1185 C1228 0.929 . S
H1186 C1230 0.931 . S
H1187 C1231 0.930 . S
H1188 C1233 0.929 . S
H1189 C1234 0.931 . S
H1190 C1236 0.930 . S
H1191 C1237 0.929 . S
O1192 H1166 0.856 . S
O1192 C1238 1.300 . S
O1193 C1238 1.209 . S
O1194 C1239 1.199 . S
O1195 H1167 0.854 . S
O1195 C1239 1.297 . S
C1196 C1197 1.404 . S
C1196 C1201 1.397 . S
C1196 C1202 1.492 . S
C1197 C1196 1.404 . S
C1197 C1198 1.396 . S
C1197 C1208 1.492 . S
C1198 C1197 1.396 . S
C1198 C1199 1.397 . S
C1198 C1214 1.509 . S
C1199 C1198 1.397 . S
C1199 C1200 1.412 . S
C1199 C1220 1.485 . S
C1200 C1199 1.412 . S
C1200 C1201 1.388 . S
C1200 C1226 1.490 . S
C1201 C1196 1.397 . S
C1201 C1200 1.388 . S
C1201 C1232 1.519 . S
C1202 C1196 1.492 . S
C1202 C1203 1.363 . S
C1202 C1207 1.390 . S
C1203 H1168 0.930 . S
C1203 C1202 1.363 . S
C1203 C1204 1.372 . S
C1204 H1169 0.930 . S
C1204 C1203 1.372 . S
C1204 C1205 1.383 . S
C1205 C1204 1.383 . S
C1205 C1206 1.395 . S
C1206 H1170 0.930 . S
C1206 C1205 1.395 . S
C1206 C1207 1.362 . S
C1207 H1171 0.930 . S
C1207 C1202 1.390 . S
C1207 C1206 1.362 . S
C1208 C1197 1.492 . S
C1208 C1209 1.377 . S
C1208 C1213 1.397 . S
C1209 H1172 0.931 . S
C1209 C1208 1.377 . S
C1209 C1210 1.376 . S
C1210 H1173 0.930 . S
C1210 C1209 1.376 . S
C1210 C1211 1.376 . S
C1211 C1210 1.376 . S
C1211 C1212 1.378 . S
C1211 C1238 1.486 . S
C1212 H1174 0.930 . S
C1212 C1211 1.378 . S
C1212 C1213 1.376 . S
C1213 H1175 0.929 . S
C1213 C1208 1.397 . S
C1213 C1212 1.376 . S
C1214 C1198 1.509 . S
C1214 C1215 1.391 . S
C1214 C1219 1.386 . S
C1215 H1176 0.930 . S
C1215 C1214 1.391 . S
C1215 C1216 1.375 . S
C1216 H1177 0.931 . S
C1216 C1215 1.375 . S
C1216 C1217 1.375 . S
C1217 C1216 1.375 . S
C1217 C1218 1.361 . S
C1218 H1178 0.930 . S
C1218 C1217 1.361 . S
C1218 C1219 1.399 . S
C1219 H1179 0.929 . S
C1219 C1214 1.386 . S
C1219 C1218 1.399 . S
C1220 C1199 1.485 . S
C1220 C1221 1.394 . S
C1220 C1225 1.360 . S
C1221 H1180 0.931 . S
C1221 C1220 1.394 . S
C1221 C1222 1.372 . S
C1222 H1181 0.930 . S
C1222 C1221 1.372 . S
C1222 C1223 1.397 . S
C1223 C1222 1.397 . S
C1223 C1224 1.390 . S
C1223 C1239 1.476 . S
C1224 H1182 0.930 . S
C1224 C1223 1.390 . S
C1224 C1225 1.366 . S
C1225 H1183 0.932 . S
C1225 C1220 1.360 . S
C1225 C1224 1.366 . S
C1226 C1200 1.490 . S
C1226 C1227 1.380 . S
C1226 C1231 1.386 . S
C1227 H1184 0.930 . S
C1227 C1226 1.380 . S
C1227 C1228 1.381 . S
C1228 H1185 0.929 . S
C1228 C1227 1.381 . S
C1228 C1229 1.371 . S
C1229 C1228 1.371 . S
C1229 C1230 1.380 . S
C1230 H1186 0.931 . S
C1230 C1229 1.380 . S
C1230 C1231 1.387 . S
C1231 H1187 0.930 . S
C1231 C1226 1.386 . S
C1231 C1230 1.387 . S
C1232 C1201 1.519 . S
C1232 C1233 1.377 . S
C1232 C1237 1.361 . S
C1233 H1188 0.929 . S
C1233 C1232 1.377 . S
C1233 C1234 1.386 . S
C1234 H1189 0.931 . S
C1234 C1233 1.386 . S
C1234 C1235 1.363 . S
C1235 C1234 1.363 . S
C1235 C1236 1.385 . S
C1236 H1190 0.930 . S
C1236 C1235 1.385 . S
C1236 C1237 1.396 . S
C1237 H1191 0.929 . S
C1237 C1232 1.361 . S
C1237 C1236 1.396 . S
C1238 O1192 1.300 . S
C1238 O1193 1.209 . S
C1238 C1211 1.486 . S
C1239 O1194 1.199 . S
C1239 O1195 1.297 . S
C1239 C1223 1.476 . S
H1240 O1266 0.856 . S
H1241 O1269 0.854 . S
H1242 C1277 0.930 . S
H1243 C1278 0.930 . S
H1244 C1280 0.930 . S
H1245 C1281 0.930 . S
H1246 C1283 0.931 . S
H1247 C1284 0.930 . S
H1248 C1286 0.930 . S
H1249 C1287 0.929 . S
H1250 C1289 0.930 . S
H1251 C1290 0.931 . S
H1252 C1292 0.930 . S
H1253 C1293 0.929 . S
H1254 C1295 0.931 . S
H1255 C1296 0.930 . S
H1256 C1298 0.930 . S
H1257 C1299 0.932 . S
H1258 C1301 0.930 . S
H1259 C1302 0.929 . S
H1260 C1304 0.931 . S
H1261 C1305 0.930 . S
H1262 C1307 0.929 . S
H1263 C1308 0.931 . S
H1264 C1310 0.930 . S
H1265 C1311 0.929 . S
O1266 H1240 0.856 . S
O1266 C1312 1.300 . S
O1267 C1312 1.209 . S
O1268 C1313 1.199 . S
O1269 H1241 0.854 . S
O1269 C1313 1.297 . S
C1270 C1271 1.404 . S
C1270 C1275 1.397 . S
C1270 C1276 1.492 . S
C1271 C1270 1.404 . S
C1271 C1272 1.396 . S
C1271 C1282 1.492 . S
C1272 C1271 1.396 . S
C1272 C1273 1.397 . S
C1272 C1288 1.509 . S
C1273 C1272 1.397 . S
C1273 C1274 1.412 . S
C1273 C1294 1.485 . S
C1274 C1273 1.412 . S
C1274 C1275 1.388 . S
C1274 C1300 1.490 . S
C1275 C1270 1.397 . S
C1275 C1274 1.388 . S
C1275 C1306 1.519 . S
C1276 C1270 1.492 . S
C1276 C1277 1.363 . S
C1276 C1281 1.390 . S
C1277 H1242 0.930 . S
C1277 C1276 1.363 . S
C1277 C1278 1.372 . S
C1278 H1243 0.930 . S
C1278 C1277 1.372 . S
C1278 C1279 1.383 . S
C1279 C1278 1.383 . S
C1279 C1280 1.395 . S
C1280 H1244 0.930 . S
C1280 C1279 1.395 . S
C1280 C1281 1.362 . S
C1281 H1245 0.930 . S
C1281 C1276 1.390 . S
C1281 C1280 1.362 . S
C1282 C1271 1.492 . S
C1282 C1283 1.377 . S
C1282 C1287 1.397 . S
C1283 H1246 0.931 . S
C1283 C1282 1.377 . S
C1283 C1284 1.376 . S
C1284 H1247 0.930 . S
C1284 C1283 1.376 . S
C1284 C1285 1.376 . S
C1285 C1284 1.376 . S
C1285 C1286 1.378 . S
C1285 C1312 1.486 . S
C1286 H1248 0.930 . S
C1286 C1285 1.378 . S
C1286 C1287 1.376 . S
C1287 H1249 0.929 . S
C1287 C1282 1.397 . S
C1287 C1286 1.376 . S
C1288 C1272 1.509 . S
C1288 C1289 1.391 . S
C1288 C1293 1.386 . S
C1289 H1250 0.930 . S
C1289 C1288 1.391 . S
C1289 C1290 1.375 . S
C1290 H1251 0.931 . S
C1290 C1289 1.375 . S
C1290 C1291 1.375 . S
C1291 C1290 1.375 . S
C1291 C1292 1.361 . S
C1292 H1252 0.930 . S
C1292 C1291 1.361 . S
C1292 C1293 1.399 . S
C1293 H1253 0.929 . S
C1293 C1288 1.386 . S
C1293 C1292 1.399 . S
C1294 C1273 1.485 . S
C1294 C1295 1.394 . S
C1294 C1299 1.360 . S
C1295 H1254 0.931 . S
C1295 C1294 1.394 . S
C1295 C1296 1.372 . S
C1296 H1255 0.930 . S
C1296 C1295 1.372 . S
C1296 C1297 1.397 . S
C1297 C1296 1.397 . S
C1297 C1298 1.390 . S
C1297 C1313 1.476 . S
C1298 H1256 0.930 . S
C1298 C1297 1.390 . S
C1298 C1299 1.366 . S
C1299 H1257 0.932 . S
C1299 C1294 1.360 . S
C1299 C1298 1.366 . S
C1300 C1274 1.490 . S
C1300 C1301 1.380 . S
C1300 C1305 1.386 . S
C1301 H1258 0.930 . S
C1301 C1300 1.380 . S
C1301 C1302 1.381 . S
C1302 H1259 0.929 . S
C1302 C1301 1.381 . S
C1302 C1303 1.371 . S
C1303 C1302 1.371 . S
C1303 C1304 1.380 . S
C1304 H1260 0.931 . S
C1304 C1303 1.380 . S
C1304 C1305 1.387 . S
C1305 H1261 0.930 . S
C1305 C1300 1.386 . S
C1305 C1304 1.387 . S
C1306 C1275 1.519 . S
C1306 C1307 1.377 . S
C1306 C1311 1.361 . S
C1307 H1262 0.929 . S
C1307 C1306 1.377 . S
C1307 C1308 1.386 . S
C1308 H1263 0.931 . S
C1308 C1307 1.386 . S
C1308 C1309 1.363 . S
C1309 C1308 1.363 . S
C1309 C1310 1.385 . S
C1310 H1264 0.930 . S
C1310 C1309 1.385 . S
C1310 C1311 1.396 . S
C1311 H1265 0.929 . S
C1311 C1306 1.361 . S
C1311 C1310 1.396 . S
C1312 O1266 1.300 . S
C1312 O1267 1.209 . S
C1312 C1285 1.486 . S
C1313 O1268 1.199 . S
C1313 O1269 1.297 . S
C1313 C1297 1.476 . S
H1314 O1340 0.856 . S
H1315 O1343 0.854 . S
H1316 C1351 0.930 . S
H1317 C1352 0.930 . S
H1318 C1354 0.930 . S
H1319 C1355 0.930 . S
H1320 C1357 0.931 . S
H1321 C1358 0.930 1_655 S
H1322 C1360 0.930 . S
H1323 C1361 0.929 . S
H1324 C1363 0.930 . S
H1325 C1364 0.920 1_655 S
H1326 C1366 0.930 . S
H1327 C1367 0.929 . S
H1328 C1369 0.931 . S
H1329 C1370 0.930 . S
H1330 C1372 0.930 . S
H1331 C1373 0.932 . S
H1332 C1375 0.930 . S
H1333 C1376 0.929 . S
H1334 C1378 0.931 . S
H1335 C1379 0.930 . S
H1336 C1381 0.929 . S
H1337 C1382 0.931 . S
H1338 C1384 0.930 . S
H1339 C1385 0.929 . S
O1340 H1314 0.856 . S
O1340 C1386 1.300 . S
O1341 C1386 1.209 . S
O1342 C1387 1.199 1_655 S
O1343 H1315 0.854 . S
O1343 C1387 1.297 . S
C1344 C1345 1.404 . S
C1344 C1349 1.394 . S
C1344 C1350 1.492 . S
C1345 C1344 1.404 . S
C1345 C1346 1.396 . S
C1345 C1356 1.492 . S
C1346 C1345 1.396 . S
C1346 C1347 1.397 . S
C1346 C1362 1.509 . S
C1347 C1346 1.397 . S
C1347 C1348 1.419 . S
C1347 C1368 1.485 . S
C1348 C1347 1.419 . S
C1348 C1349 1.408 . S
C1348 C1374 1.491 1_455 S
C1349 C1344 1.394 . S
C1349 C1348 1.408 . S
C1349 C1380 1.491 1_455 S
C1350 C1344 1.492 . S
C1350 C1351 1.363 1_455 S
C1350 C1355 1.390 . S
C1351 H1316 0.930 . S
C1351 C1350 1.363 1_655 S
C1351 C1352 1.372 . S
C1352 H1317 0.930 . S
C1352 C1351 1.372 . S
C1352 C1353 1.383 . S
C1353 C1352 1.383 . S
C1353 C1354 1.395 1_655 S
C1354 H1318 0.930 . S
C1354 C1353 1.395 1_455 S
C1354 C1355 1.362 . S
C1355 H1319 0.930 . S
C1355 C1350 1.390 . S
C1355 C1354 1.362 . S
C1356 C1345 1.492 . S
C1356 C1357 1.377 1_455 S
C1356 C1361 1.397 . S
C1357 H1320 0.931 . S
C1357 C1356 1.377 1_655 S
C1357 C1358 1.376 1_655 S
C1358 H1321 0.930 1_455 S
C1358 C1357 1.376 1_455 S
C1358 C1359 1.376 . S
C1359 C1358 1.376 . S
C1359 C1360 1.378 . S
C1359 C1386 1.486 . S
C1360 H1322 0.930 . S
C1360 C1359 1.378 . S
C1360 C1361 1.376 . S
C1361 H1323 0.929 . S
C1361 C1356 1.397 . S
C1361 C1360 1.376 . S
C1362 C1346 1.509 . S
C1362 C1363 1.391 1_455 S
C1362 C1367 1.386 . S
C1363 H1324 0.930 . S
C1363 C1362 1.391 1_655 S
C1363 C1364 1.362 1_655 S
C1364 H1325 0.920 1_455 S
C1364 C1363 1.362 1_455 S
C1364 C1365 1.399 . S
C1365 C1364 1.399 . S
C1365 C1366 1.361 . S
C1366 H1326 0.930 . S
C1366 C1365 1.361 . S
C1366 C1367 1.399 . S
C1367 H1327 0.929 . S
C1367 C1362 1.386 . S
C1367 C1366 1.399 . S
C1368 C1347 1.485 . S
C1368 C1369 1.394 1_455 S
C1368 C1373 1.360 . S
C1369 H1328 0.931 . S
C1369 C1368 1.394 1_655 S
C1369 C1370 1.372 . S
C1370 H1329 0.930 . S
C1370 C1369 1.372 . S
C1370 C1371 1.397 1_655 S
C1371 C1370 1.397 1_455 S
C1371 C1372 1.390 . S
C1371 C1387 1.476 . S
C1372 H1330 0.930 . S
C1372 C1371 1.390 . S
C1372 C1373 1.366 . S
C1373 H1331 0.932 . S
C1373 C1368 1.360 . S
C1373 C1372 1.366 . S
C1374 C1348 1.491 1_655 S
C1374 C1375 1.380 . S
C1374 C1379 1.386 1_655 S
C1375 H1332 0.930 . S
C1375 C1374 1.380 . S
C1375 C1376 1.381 . S
C1376 H1333 0.929 . S
C1376 C1375 1.381 . S
C1376 C1377 1.371 . S
C1377 C1376 1.371 . S
C1377 C1378 1.380 1_655 S
C1378 H1334 0.931 . S
C1378 C1377 1.380 1_455 S
C1378 C1379 1.387 . S
C1379 H1335 0.930 . S
C1379 C1374 1.386 1_455 S
C1379 C1378 1.387 . S
C1380 C1349 1.491 1_655 S
C1380 C1381 1.407 . S
C1380 C1385 1.340 1_655 S
C1381 H1336 0.929 . S
C1381 C1380 1.407 . S
C1381 C1382 1.386 . S
C1382 H1337 0.931 . S
C1382 C1381 1.386 . S
C1382 C1383 1.373 . S
C1383 C1382 1.373 . S
C1383 C1384 1.371 1_655 S
C1384 H1338 0.930 . S
C1384 C1383 1.371 1_455 S
C1384 C1385 1.396 . S
C1385 H1339 0.929 . S
C1385 C1380 1.340 1_455 S
C1385 C1384 1.396 . S
C1386 O1340 1.300 . S
C1386 O1341 1.209 . S
C1386 C1359 1.486 . S
C1387 O1342 1.199 1_455 S
C1387 O1343 1.297 . S
C1387 C1371 1.476 . S
H1388 O1414 0.856 . S
H1389 O1417 0.854 . S
H1390 C1425 0.930 . S
H1391 C1426 0.930 . S
H1392 C1428 0.930 . S
H1393 C1429 0.930 . S
H1394 C1431 0.931 . S
H1395 C1432 0.930 . S
H1396 C1434 0.930 . S
H1397 C1435 0.929 . S
H1398 C1437 0.930 . S
H1399 C1438 0.931 . S
H1400 C1440 0.930 . S
H1401 C1441 0.929 . S
H1402 C1443 0.931 . S
H1403 C1444 0.930 . S
H1404 C1446 0.930 . S
H1405 C1447 0.932 . S
H1406 C1449 0.930 . S
H1407 C1450 0.929 . S
H1408 C1452 0.931 . S
H1409 C1453 0.930 . S
H1410 C1455 0.929 . S
H1411 C1456 0.931 . S
H1412 C1458 0.930 . S
H1413 C1459 0.929 . S
O1414 H1388 0.856 . S
O1414 C1460 1.300 . S
O1415 C1460 1.209 . S
O1416 C1461 1.199 . S
O1417 H1389 0.854 . S
O1417 C1461 1.297 . S
C1418 C1419 1.404 . S
C1418 C1423 1.397 . S
C1418 C1424 1.492 . S
C1419 C1418 1.404 . S
C1419 C1420 1.396 . S
C1419 C1430 1.492 . S
C1420 C1419 1.396 . S
C1420 C1421 1.397 . S
C1420 C1436 1.509 . S
C1421 C1420 1.397 . S
C1421 C1422 1.412 . S
C1421 C1442 1.485 . S
C1422 C1421 1.412 . S
C1422 C1423 1.388 . S
C1422 C1448 1.490 . S
C1423 C1418 1.397 . S
C1423 C1422 1.388 . S
C1423 C1454 1.519 . S
C1424 C1418 1.492 . S
C1424 C1425 1.363 . S
C1424 C1429 1.390 . S
C1425 H1390 0.930 . S
C1425 C1424 1.363 . S
C1425 C1426 1.372 . S
C1426 H1391 0.930 . S
C1426 C1425 1.372 . S
C1426 C1427 1.383 . S
C1427 C1426 1.383 . S
C1427 C1428 1.395 . S
C1428 H1392 0.930 . S
C1428 C1427 1.395 . S
C1428 C1429 1.362 . S
C1429 H1393 0.930 . S
C1429 C1424 1.390 . S
C1429 C1428 1.362 . S
C1430 C1419 1.492 . S
C1430 C1431 1.377 . S
C1430 C1435 1.397 . S
C1431 H1394 0.931 . S
C1431 C1430 1.377 . S
C1431 C1432 1.376 . S
C1432 H1395 0.930 . S
C1432 C1431 1.376 . S
C1432 C1433 1.376 . S
C1433 C1432 1.376 . S
C1433 C1434 1.378 . S
C1433 C1460 1.486 . S
C1434 H1396 0.930 . S
C1434 C1433 1.378 . S
C1434 C1435 1.376 . S
C1435 H1397 0.929 . S
C1435 C1430 1.397 . S
C1435 C1434 1.376 . S
C1436 C1420 1.509 . S
C1436 C1437 1.391 . S
C1436 C1441 1.386 . S
C1437 H1398 0.930 . S
C1437 C1436 1.391 . S
C1437 C1438 1.375 . S
C1438 H1399 0.931 . S
C1438 C1437 1.375 . S
C1438 C1439 1.375 . S
C1439 C1438 1.375 . S
C1439 C1440 1.361 . S
C1440 H1400 0.930 . S
C1440 C1439 1.361 . S
C1440 C1441 1.399 . S
C1441 H1401 0.929 . S
C1441 C1436 1.386 . S
C1441 C1440 1.399 . S
C1442 C1421 1.485 . S
C1442 C1443 1.394 . S
C1442 C1447 1.360 . S
C1443 H1402 0.931 . S
C1443 C1442 1.394 . S
C1443 C1444 1.372 . S
C1444 H1403 0.930 . S
C1444 C1443 1.372 . S
C1444 C1445 1.397 . S
C1445 C1444 1.397 . S
C1445 C1446 1.390 . S
C1445 C1461 1.476 . S
C1446 H1404 0.930 . S
C1446 C1445 1.390 . S
C1446 C1447 1.366 . S
C1447 H1405 0.932 . S
C1447 C1442 1.360 . S
C1447 C1446 1.366 . S
C1448 C1422 1.490 . S
C1448 C1449 1.380 . S
C1448 C1453 1.386 . S
C1449 H1406 0.930 . S
C1449 C1448 1.380 . S
C1449 C1450 1.381 . S
C1450 H1407 0.929 . S
C1450 C1449 1.381 . S
C1450 C1451 1.371 . S
C1451 C1450 1.371 . S
C1451 C1452 1.380 . S
C1452 H1408 0.931 . S
C1452 C1451 1.380 . S
C1452 C1453 1.387 . S
C1453 H1409 0.930 . S
C1453 C1448 1.386 . S
C1453 C1452 1.387 . S
C1454 C1423 1.519 . S
C1454 C1455 1.377 . S
C1454 C1459 1.361 . S
C1455 H1410 0.929 . S
C1455 C1454 1.377 . S
C1455 C1456 1.386 . S
C1456 H1411 0.931 . S
C1456 C1455 1.386 . S
C1456 C1457 1.363 . S
C1457 C1456 1.363 . S
C1457 C1458 1.385 . S
C1458 H1412 0.930 . S
C1458 C1457 1.385 . S
C1458 C1459 1.396 . S
C1459 H1413 0.929 . S
C1459 C1454 1.361 . S
C1459 C1458 1.396 . S
C1460 O1414 1.300 . S
C1460 O1415 1.209 . S
C1460 C1433 1.486 . S
C1461 O1416 1.199 . S
C1461 O1417 1.297 . S
C1461 C1445 1.476 . S
H1462 O1488 0.856 . S
H1463 O1491 0.854 . S
H1464 C1499 0.930 . S
H1465 C1500 0.930 . S
H1466 C1502 0.930 . S
H1467 C1503 0.930 . S
H1468 C1505 0.931 . S
H1469 C1506 0.932 1_545 S
H1470 C1508 0.930 . S
H1471 C1509 0.929 . S
H1472 C1511 0.930 . S
H1473 C1512 0.963 . S
H1474 C1514 0.930 . S
H1475 C1515 0.929 . S
H1476 C1517 0.931 . S
H1477 C1518 0.930 . S
H1478 C1520 0.930 . S
H1479 C1521 0.932 . S
H1480 C1523 0.930 . S
H1481 C1524 0.929 . S
H1482 C1526 0.931 . S
H1483 C1527 0.930 . S
H1484 C1529 0.929 . S
H1485 C1530 0.931 . S
H1486 C1532 0.930 . S
H1487 C1533 0.929 . S
O1488 H1462 0.856 . S
O1488 C1534 1.300 . S
O1489 C1534 1.209 . S
O1490 C1535 1.199 1_545 S
O1491 H1463 0.854 . S
O1491 C1535 1.297 . S
C1492 C1493 1.404 . S
C1492 C1497 1.414 . S
C1492 C1498 1.492 . S
C1493 C1492 1.404 . S
C1493 C1494 1.396 . S
C1493 C1504 1.492 . S
C1494 C1493 1.396 . S
C1494 C1495 1.397 . S
C1494 C1510 1.509 . S
C1495 C1494 1.397 . S
C1495 C1496 1.409 . S
C1495 C1516 1.485 . S
C1496 C1495 1.409 . S
C1496 C1497 1.373 . S
C1496 C1522 1.483 1_565 S
C1497 C1492 1.414 . S
C1497 C1496 1.373 . S
C1497 C1528 1.538 1_565 S
C1498 C1492 1.492 . S
C1498 C1499 1.363 1_565 S
C1498 C1503 1.390 . S
C1499 H1464 0.930 . S
C1499 C1498 1.363 1_545 S
C1499 C1500 1.372 . S
C1500 H1465 0.930 . S
C1500 C1499 1.372 . S
C1500 C1501 1.383 . S
C1501 C1500 1.383 . S
C1501 C1502 1.395 1_545 S
C1502 H1466 0.930 . S
C1502 C1501 1.395 1_565 S
C1502 C1503 1.362 . S
C1503 H1467 0.930 . S
C1503 C1498 1.390 . S
C1503 C1502 1.362 . S
C1504 C1493 1.492 . S
C1504 C1505 1.377 1_565 S
C1504 C1509 1.397 . S
C1505 H1468 0.931 . S
C1505 C1504 1.377 1_545 S
C1505 C1506 1.377 1_545 S
C1506 H1469 0.932 1_565 S
C1506 C1505 1.377 1_565 S
C1506 C1507 1.373 . S
C1507 C1506 1.373 . S
C1507 C1508 1.378 . S
C1507 C1534 1.486 . S
C1508 H1470 0.930 . S
C1508 C1507 1.378 . S
C1508 C1509 1.376 . S
C1509 H1471 0.929 . S
C1509 C1504 1.397 . S
C1509 C1508 1.376 . S
C1510 C1494 1.509 . S
C1510 C1511 1.391 1_565 S
C1510 C1515 1.386 . S
C1511 H1472 0.930 . S
C1511 C1510 1.391 1_545 S
C1511 C1512 1.370 . S
C1512 H1473 0.963 . S
C1512 C1511 1.370 . S
C1512 C1513 1.349 1_545 S
C1513 C1512 1.349 1_565 S
C1513 C1514 1.361 . S
C1514 H1474 0.930 . S
C1514 C1513 1.361 . S
C1514 C1515 1.399 . S
C1515 H1475 0.929 . S
C1515 C1510 1.386 . S
C1515 C1514 1.399 . S
C1516 C1495 1.485 . S
C1516 C1517 1.394 1_565 S
C1516 C1521 1.360 . S
C1517 H1476 0.931 . S
C1517 C1516 1.394 1_545 S
C1517 C1518 1.372 . S
C1518 H1477 0.930 . S
C1518 C1517 1.372 . S
C1518 C1519 1.397 1_545 S
C1519 C1518 1.397 1_565 S
C1519 C1520 1.390 . S
C1519 C1535 1.476 . S
C1520 H1478 0.930 . S
C1520 C1519 1.390 . S
C1520 C1521 1.366 . S
C1521 H1479 0.932 . S
C1521 C1516 1.360 . S
C1521 C1520 1.366 . S
C1522 C1496 1.483 1_545 S
C1522 C1523 1.380 . S
C1522 C1527 1.386 1_545 S
C1523 H1480 0.930 . S
C1523 C1522 1.380 . S
C1523 C1524 1.381 . S
C1524 H1481 0.929 . S
C1524 C1523 1.381 . S
C1524 C1525 1.371 . S
C1525 C1524 1.371 . S
C1525 C1526 1.380 1_545 S
C1526 H1482 0.931 . S
C1526 C1525 1.380 1_565 S
C1526 C1527 1.387 . S
C1527 H1483 0.930 . S
C1527 C1522 1.386 1_565 S
C1527 C1526 1.387 . S
C1528 C1497 1.538 1_545 S
C1528 C1529 1.383 . S
C1528 C1533 1.350 1_545 S
C1529 H1484 0.929 . S
C1529 C1528 1.383 . S
C1529 C1530 1.386 . S
C1530 H1485 0.931 . S
C1530 C1529 1.386 . S
C1530 C1531 1.348 1_545 S
C1531 C1530 1.348 1_565 S
C1531 C1532 1.393 . S
C1532 H1486 0.930 . S
C1532 C1531 1.393 . S
C1532 C1533 1.396 . S
C1533 H1487 0.929 . S
C1533 C1528 1.350 1_565 S
C1533 C1532 1.396 . S
C1534 O1488 1.300 . S
C1534 O1489 1.209 . S
C1534 C1507 1.486 . S
C1535 O1490 1.199 1_565 S
C1535 O1491 1.297 . S
C1535 C1519 1.476 . S
H1536 O1562 0.856 . S
H1537 O1565 0.854 . S
H1538 C1573 0.930 . S
H1539 C1574 0.930 . S
H1540 C1576 0.930 . S
H1541 C1577 0.930 . S
H1542 C1579 0.931 . S
H1543 C1580 0.930 . S
H1544 C1582 0.930 . S
H1545 C1583 0.929 . S
H1546 C1585 0.930 . S
H1547 C1586 0.931 . S
H1548 C1588 0.930 . S
H1549 C1589 0.929 . S
H1550 C1591 0.931 . S
H1551 C1592 0.930 . S
H1552 C1594 0.930 . S
H1553 C1595 0.932 . S
H1554 C1597 0.930 . S
H1555 C1598 0.929 . S
H1556 C1600 0.931 . S
H1557 C1601 0.930 . S
H1558 C1603 0.929 . S
H1559 C1604 0.931 . S
H1560 C1606 0.930 . S
H1561 C1607 0.929 . S
O1562 H1536 0.856 . S
O1562 C1608 1.300 . S
O1563 C1608 1.209 1_565 S
O1564 C1609 1.199 1_545 S
O1565 H1537 0.854 . S
O1565 C1609 1.297 . S
C1566 C1567 1.404 . S
C1566 C1571 1.397 1_545 S
C1566 C1572 1.492 . S
C1567 C1566 1.404 . S
C1567 C1568 1.396 . S
C1567 C1578 1.492 . S
C1568 C1567 1.396 . S
C1568 C1569 1.396 1_545 S
C1568 C1584 1.509 . S
C1569 C1568 1.396 1_565 S
C1569 C1570 1.419 . S
C1569 C1590 1.488 . S
C1570 C1569 1.419 . S
C1570 C1571 1.375 . S
C1570 C1596 1.489 . S
C1571 C1566 1.397 1_565 S
C1571 C1570 1.375 . S
C1571 C1602 1.518 . S
C1572 C1566 1.492 . S
C1572 C1573 1.363 . S
C1572 C1577 1.390 1_545 S
C1573 H1538 0.930 . S
C1573 C1572 1.363 . S
C1573 C1574 1.372 . S
C1574 H1539 0.930 . S
C1574 C1573 1.372 . S
C1574 C1575 1.383 . S
C1575 C1574 1.383 . S
C1575 C1576 1.395 1_545 S
C1576 H1540 0.930 . S
C1576 C1575 1.395 1_565 S
C1576 C1577 1.362 . S
C1577 H1541 0.930 . S
C1577 C1572 1.390 1_565 S
C1577 C1576 1.362 . S
C1578 C1567 1.492 . S
C1578 C1579 1.377 . S
C1578 C1583 1.397 1_545 S
C1579 H1542 0.931 . S
C1579 C1578 1.377 . S
C1579 C1580 1.376 . S
C1580 H1543 0.930 . S
C1580 C1579 1.376 . S
C1580 C1581 1.376 . S
C1581 C1580 1.376 . S
C1581 C1582 1.378 1_545 S
C1581 C1608 1.486 . S
C1582 H1544 0.930 . S
C1582 C1581 1.378 1_565 S
C1582 C1583 1.376 . S
C1583 H1545 0.929 . S
C1583 C1578 1.397 1_565 S
C1583 C1582 1.376 . S
C1584 C1568 1.509 . S
C1584 C1585 1.391 . S
C1584 C1589 1.386 1_545 S
C1585 H1546 0.930 . S
C1585 C1584 1.391 . S
C1585 C1586 1.375 . S
C1586 H1547 0.931 . S
C1586 C1585 1.375 . S
C1586 C1587 1.375 . S
C1587 C1586 1.375 . S
C1587 C1588 1.361 1_545 S
C1588 H1548 0.930 . S
C1588 C1587 1.361 1_565 S
C1588 C1589 1.399 . S
C1589 H1549 0.929 . S
C1589 C1584 1.386 1_565 S
C1589 C1588 1.399 . S
C1590 C1569 1.488 . S
C1590 C1591 1.394 1_565 S
C1590 C1595 1.360 . S
C1591 H1550 0.931 . S
C1591 C1590 1.394 1_545 S
C1591 C1592 1.372 . S
C1592 H1551 0.930 . S
C1592 C1591 1.372 . S
C1592 C1593 1.397 1_545 S
C1593 C1592 1.397 1_565 S
C1593 C1594 1.390 . S
C1593 C1609 1.476 . S
C1594 H1552 0.930 . S
C1594 C1593 1.390 . S
C1594 C1595 1.366 . S
C1595 H1553 0.932 . S
C1595 C1590 1.360 . S
C1595 C1594 1.366 . S
C1596 C1570 1.489 . S
C1596 C1597 1.355 1_565 S
C1596 C1601 1.417 . S
C1597 H1554 0.930 . S
C1597 C1596 1.355 1_545 S
C1597 C1598 1.381 . S
C1598 H1555 0.929 . S
C1598 C1597 1.381 . S
C1598 C1599 1.416 . S
C1599 C1598 1.416 . S
C1599 C1600 1.343 1_545 S
C1600 H1556 0.931 . S
C1600 C1599 1.343 1_565 S
C1600 C1601 1.387 . S
C1601 H1557 0.930 . S
C1601 C1596 1.417 . S
C1601 C1600 1.387 . S
C1602 C1571 1.518 . S
C1602 C1603 1.377 1_565 S
C1602 C1607 1.361 . S
C1603 H1558 0.929 . S
C1603 C1602 1.377 1_545 S
C1603 C1604 1.386 . S
C1604 H1559 0.931 . S
C1604 C1603 1.386 . S
C1604 C1605 1.363 1_545 S
C1605 C1604 1.363 1_565 S
C1605 C1606 1.385 . S
C1606 H1560 0.930 . S
C1606 C1605 1.385 . S
C1606 C1607 1.396 . S
C1607 H1561 0.929 . S
C1607 C1602 1.361 . S
C1607 C1606 1.396 . S
C1608 O1562 1.300 . S
C1608 O1563 1.209 1_545 S
C1608 C1581 1.486 . S
C1609 O1564 1.199 1_565 S
C1609 O1565 1.297 . S
C1609 C1593 1.476 . S
H1610 O1636 0.856 . S
H1611 O1639 0.854 . S
H1612 C1647 0.930 . S
H1613 C1648 0.930 . S
H1614 C1650 0.930 . S
H1615 C1651 0.930 . S
H1616 C1653 0.931 . S
H1617 C1654 0.930 . S
H1618 C1656 0.930 . S
H1619 C1657 0.929 . S
H1620 C1659 0.930 . S
H1621 C1660 0.931 . S
H1622 C1662 0.930 . S
H1623 C1663 0.929 . S
H1624 C1665 0.931 . S
H1625 C1666 0.930 . S
H1626 C1668 0.930 . S
H1627 C1669 0.932 . S
H1628 C1671 0.930 . S
H1629 C1672 0.929 . S
H1630 C1674 0.931 . S
H1631 C1675 0.930 . S
H1632 C1677 0.929 . S
H1633 C1678 0.931 . S
H1634 C1680 0.930 . S
H1635 C1681 0.929 . S
O1636 H1610 0.856 . S
O1636 C1682 1.300 . S
O1637 C1682 1.209 1_455 S
O1638 C1683 1.199 1_655 S
O1639 H1611 0.854 . S
O1639 C1683 1.297 . S
C1640 C1641 1.404 . S
C1640 C1645 1.396 1_655 S
C1640 C1646 1.492 . S
C1641 C1640 1.404 . S
C1641 C1642 1.396 . S
C1641 C1652 1.492 . S
C1642 C1641 1.396 . S
C1642 C1643 1.397 . S
C1642 C1658 1.509 . S
C1643 C1642 1.397 . S
C1643 C1644 1.411 1_655 S
C1643 C1664 1.486 1_655 S
C1644 C1643 1.411 1_455 S
C1644 C1645 1.391 . S
C1644 C1670 1.490 . S
C1645 C1640 1.396 1_455 S
C1645 C1644 1.391 . S
C1645 C1676 1.516 . S
C1646 C1640 1.492 . S
C1646 C1647 1.363 . S
C1646 C1651 1.390 1_655 S
C1647 H1612 0.930 . S
C1647 C1646 1.363 . S
C1647 C1648 1.372 . S
C1648 H1613 0.930 . S
C1648 C1647 1.372 . S
C1648 C1649 1.383 . S
C1649 C1648 1.383 . S
C1649 C1650 1.395 1_655 S
C1650 H1614 0.930 . S
C1650 C1649 1.395 1_455 S
C1650 C1651 1.362 . S
C1651 H1615 0.930 . S
C1651 C1646 1.390 1_455 S
C1651 C1650 1.362 . S
C1652 C1641 1.492 . S
C1652 C1653 1.377 . S
C1652 C1657 1.397 1_655 S
C1653 H1616 0.931 . S
C1653 C1652 1.377 . S
C1653 C1654 1.376 . S
C1654 H1617 0.930 . S
C1654 C1653 1.376 . S
C1654 C1655 1.376 . S
C1655 C1654 1.376 . S
C1655 C1656 1.378 1_655 S
C1655 C1682 1.486 . S
C1656 H1618 0.930 . S
C1656 C1655 1.378 1_455 S
C1656 C1657 1.376 . S
C1657 H1619 0.929 . S
C1657 C1652 1.397 1_455 S
C1657 C1656 1.376 . S
C1658 C1642 1.509 . S
C1658 C1659 1.391 . S
C1658 C1663 1.386 1_655 S
C1659 H1620 0.930 . S
C1659 C1658 1.391 . S
C1659 C1660 1.375 . S
C1660 H1621 0.931 . S
C1660 C1659 1.375 . S
C1660 C1661 1.375 . S
C1661 C1660 1.375 . S
C1661 C1662 1.361 1_655 S
C1662 H1622 0.930 . S
C1662 C1661 1.361 1_455 S
C1662 C1663 1.399 . S
C1663 H1623 0.929 . S
C1663 C1658 1.386 1_455 S
C1663 C1662 1.399 . S
C1664 C1643 1.486 1_455 S
C1664 C1665 1.394 1_455 S
C1664 C1669 1.360 . S
C1665 H1624 0.931 . S
C1665 C1664 1.394 1_655 S
C1665 C1666 1.372 . S
C1666 H1625 0.930 . S
C1666 C1665 1.372 . S
C1666 C1667 1.397 1_655 S
C1667 C1666 1.397 1_455 S
C1667 C1668 1.390 . S
C1667 C1683 1.476 . S
C1668 H1626 0.930 . S
C1668 C1667 1.390 . S
C1668 C1669 1.366 . S
C1669 H1627 0.932 . S
C1669 C1664 1.360 . S
C1669 C1668 1.366 . S
C1670 C1644 1.490 . S
C1670 C1671 1.380 1_455 S
C1670 C1675 1.386 . S
C1671 H1628 0.930 . S
C1671 C1670 1.380 1_655 S
C1671 C1672 1.381 . S
C1672 H1629 0.929 . S
C1672 C1671 1.381 . S
C1672 C1673 1.371 1_655 S
C1673 C1672 1.371 1_455 S
C1673 C1674 1.380 . S
C1674 H1630 0.931 . S
C1674 C1673 1.380 . S
C1674 C1675 1.387 . S
C1675 H1631 0.930 . S
C1675 C1670 1.386 . S
C1675 C1674 1.387 . S
C1676 C1645 1.516 . S
C1676 C1677 1.377 1_455 S
C1676 C1681 1.361 . S
C1677 H1632 0.929 . S
C1677 C1676 1.377 1_655 S
C1677 C1678 1.386 . S
C1678 H1633 0.931 . S
C1678 C1677 1.386 . S
C1678 C1679 1.363 1_655 S
C1679 C1678 1.363 1_455 S
C1679 C1680 1.385 . S
C1680 H1634 0.930 . S
C1680 C1679 1.385 . S
C1680 C1681 1.396 . S
C1681 H1635 0.929 . S
C1681 C1676 1.361 . S
C1681 C1680 1.396 . S
C1682 O1636 1.300 . S
C1682 O1637 1.209 1_655 S
C1682 C1655 1.486 . S
C1683 O1638 1.199 1_455 S
C1683 O1639 1.297 . S
C1683 C1667 1.476 . S
H1684 O1710 0.856 . S
H1685 O1713 0.854 . S
H1686 C1721 0.930 . S
H1687 C1722 0.930 . S
H1688 C1724 0.930 . S
H1689 C1725 0.930 . S
H1690 C1727 0.931 . S
H1691 C1728 0.930 . S
H1692 C1730 0.930 . S
H1693 C1731 0.929 . S
H1694 C1733 0.930 . S
H1695 C1734 0.931 . S
H1696 C1736 0.930 . S
H1697 C1737 0.929 . S
H1698 C1739 0.931 . S
H1699 C1740 0.930 . S
H1700 C1742 0.930 . S
H1701 C1743 0.932 . S
H1702 C1745 0.930 . S
H1703 C1746 0.929 . S
H1704 C1748 0.931 . S
H1705 C1749 0.930 . S
H1706 C1751 0.929 . S
H1707 C1752 0.931 . S
H1708 C1754 0.930 . S
H1709 C1755 0.929 . S
O1710 H1684 0.856 . S
O1710 C1756 1.300 . S
O1711 C1756 1.209 . S
O1712 C1757 1.199 . S
O1713 H1685 0.854 . S
O1713 C1757 1.297 . S
C1714 C1715 1.404 . S
C1714 C1719 1.397 . S
C1714 C1720 1.492 . S
C1715 C1714 1.404 . S
C1715 C1716 1.396 . S
C1715 C1726 1.492 . S
C1716 C1715 1.396 . S
C1716 C1717 1.397 . S
C1716 C1732 1.509 . S
C1717 C1716 1.397 . S
C1717 C1718 1.412 . S
C1717 C1738 1.485 . S
C1718 C1717 1.412 . S
C1718 C1719 1.388 . S
C1718 C1744 1.490 . S
C1719 C1714 1.397 . S
C1719 C1718 1.388 . S
C1719 C1750 1.519 . S
C1720 C1714 1.492 . S
C1720 C1721 1.363 . S
C1720 C1725 1.390 . S
C1721 H1686 0.930 . S
C1721 C1720 1.363 . S
C1721 C1722 1.372 . S
C1722 H1687 0.930 . S
C1722 C1721 1.372 . S
C1722 C1723 1.383 . S
C1723 C1722 1.383 . S
C1723 C1724 1.395 . S
C1724 H1688 0.930 . S
C1724 C1723 1.395 . S
C1724 C1725 1.362 . S
C1725 H1689 0.930 . S
C1725 C1720 1.390 . S
C1725 C1724 1.362 . S
C1726 C1715 1.492 . S
C1726 C1727 1.377 . S
C1726 C1731 1.397 . S
C1727 H1690 0.931 . S
C1727 C1726 1.377 . S
C1727 C1728 1.376 . S
C1728 H1691 0.930 . S
C1728 C1727 1.376 . S
C1728 C1729 1.376 . S
C1729 C1728 1.376 . S
C1729 C1730 1.378 . S
C1729 C1756 1.486 . S
C1730 H1692 0.930 . S
C1730 C1729 1.378 . S
C1730 C1731 1.376 . S
C1731 H1693 0.929 . S
C1731 C1726 1.397 . S
C1731 C1730 1.376 . S
C1732 C1716 1.509 . S
C1732 C1733 1.391 . S
C1732 C1737 1.386 . S
C1733 H1694 0.930 . S
C1733 C1732 1.391 . S
C1733 C1734 1.375 . S
C1734 H1695 0.931 . S
C1734 C1733 1.375 . S
C1734 C1735 1.375 . S
C1735 C1734 1.375 . S
C1735 C1736 1.361 . S
C1736 H1696 0.930 . S
C1736 C1735 1.361 . S
C1736 C1737 1.399 . S
C1737 H1697 0.929 . S
C1737 C1732 1.386 . S
C1737 C1736 1.399 . S
C1738 C1717 1.485 . S
C1738 C1739 1.394 . S
C1738 C1743 1.360 . S
C1739 H1698 0.931 . S
C1739 C1738 1.394 . S
C1739 C1740 1.372 . S
C1740 H1699 0.930 . S
C1740 C1739 1.372 . S
C1740 C1741 1.397 . S
C1741 C1740 1.397 . S
C1741 C1742 1.390 . S
C1741 C1757 1.476 . S
C1742 H1700 0.930 . S
C1742 C1741 1.390 . S
C1742 C1743 1.366 . S
C1743 H1701 0.932 . S
C1743 C1738 1.360 . S
C1743 C1742 1.366 . S
C1744 C1718 1.490 . S
C1744 C1745 1.380 . S
C1744 C1749 1.386 . S
C1745 H1702 0.930 . S
C1745 C1744 1.380 . S
C1745 C1746 1.381 . S
C1746 H1703 0.929 . S
C1746 C1745 1.381 . S
C1746 C1747 1.371 . S
C1747 C1746 1.371 . S
C1747 C1748 1.380 . S
C1748 H1704 0.931 . S
C1748 C1747 1.380 . S
C1748 C1749 1.387 . S
C1749 H1705 0.930 . S
C1749 C1744 1.386 . S
C1749 C1748 1.387 . S
C1750 C1719 1.519 . S
C1750 C1751 1.377 . S
C1750 C1755 1.361 . S
C1751 H1706 0.929 . S
C1751 C1750 1.377 . S
C1751 C1752 1.386 . S
C1752 H1707 0.931 . S
C1752 C1751 1.386 . S
C1752 C1753 1.363 . S
C1753 C1752 1.363 . S
C1753 C1754 1.385 . S
C1754 H1708 0.930 . S
C1754 C1753 1.385 . S
C1754 C1755 1.396 . S
C1755 H1709 0.929 . S
C1755 C1750 1.361 . S
C1755 C1754 1.396 . S
C1756 O1710 1.300 . S
C1756 O1711 1.209 . S
C1756 C1729 1.486 . S
C1757 O1712 1.199 . S
C1757 O1713 1.297 . S
C1757 C1741 1.476 . S
H1758 O1784 0.856 . S
H1759 O1787 0.854 . S
H1760 C1795 0.930 . S
H1761 C1796 0.930 . S
H1762 C1798 0.930 . S
H1763 C1799 0.930 . S
H1764 C1801 0.931 . S
H1765 C1802 0.930 . S
H1766 C1804 0.930 . S
H1767 C1805 0.929 . S
H1768 C1807 0.930 . S
H1769 C1808 0.931 . S
H1770 C1810 0.930 . S
H1771 C1811 0.929 . S
H1772 C1813 0.931 . S
H1773 C1814 0.930 . S
H1774 C1816 0.930 . S
H1775 C1817 0.932 . S
H1776 C1819 0.930 . S
H1777 C1820 0.929 . S
H1778 C1822 0.931 . S
H1779 C1823 0.930 . S
H1780 C1825 0.929 . S
H1781 C1826 0.931 . S
H1782 C1828 0.930 . S
H1783 C1829 0.929 . S
O1784 H1758 0.856 . S
O1784 C1830 1.300 . S
O1785 C1830 1.209 . S
O1786 C1831 1.199 . S
O1787 H1759 0.854 . S
O1787 C1831 1.297 . S
C1788 C1789 1.404 . S
C1788 C1793 1.397 . S
C1788 C1794 1.492 . S
C1789 C1788 1.404 . S
C1789 C1790 1.396 . S
C1789 C1800 1.492 . S
C1790 C1789 1.396 . S
C1790 C1791 1.397 . S
C1790 C1806 1.509 . S
C1791 C1790 1.397 . S
C1791 C1792 1.412 . S
C1791 C1812 1.485 . S
C1792 C1791 1.412 . S
C1792 C1793 1.388 . S
C1792 C1818 1.490 . S
C1793 C1788 1.397 . S
C1793 C1792 1.388 . S
C1793 C1824 1.519 . S
C1794 C1788 1.492 . S
C1794 C1795 1.363 . S
C1794 C1799 1.390 . S
C1795 H1760 0.930 . S
C1795 C1794 1.363 . S
C1795 C1796 1.372 . S
C1796 H1761 0.930 . S
C1796 C1795 1.372 . S
C1796 C1797 1.383 . S
C1797 C1796 1.383 . S
C1797 C1798 1.395 . S
C1798 H1762 0.930 . S
C1798 C1797 1.395 . S
C1798 C1799 1.362 . S
C1799 H1763 0.930 . S
C1799 C1794 1.390 . S
C1799 C1798 1.362 . S
C1800 C1789 1.492 . S
C1800 C1801 1.377 . S
C1800 C1805 1.397 . S
C1801 H1764 0.931 . S
C1801 C1800 1.377 . S
C1801 C1802 1.376 . S
C1802 H1765 0.930 . S
C1802 C1801 1.376 . S
C1802 C1803 1.376 . S
C1803 C1802 1.376 . S
C1803 C1804 1.378 . S
C1803 C1830 1.486 . S
C1804 H1766 0.930 . S
C1804 C1803 1.378 . S
C1804 C1805 1.376 . S
C1805 H1767 0.929 . S
C1805 C1800 1.397 . S
C1805 C1804 1.376 . S
C1806 C1790 1.509 . S
C1806 C1807 1.391 . S
C1806 C1811 1.386 . S
C1807 H1768 0.930 . S
C1807 C1806 1.391 . S
C1807 C1808 1.375 . S
C1808 H1769 0.931 . S
C1808 C1807 1.375 . S
C1808 C1809 1.375 . S
C1809 C1808 1.375 . S
C1809 C1810 1.361 . S
C1810 H1770 0.930 . S
C1810 C1809 1.361 . S
C1810 C1811 1.399 . S
C1811 H1771 0.929 . S
C1811 C1806 1.386 . S
C1811 C1810 1.399 . S
C1812 C1791 1.485 . S
C1812 C1813 1.394 . S
C1812 C1817 1.360 . S
C1813 H1772 0.931 . S
C1813 C1812 1.394 . S
C1813 C1814 1.372 . S
C1814 H1773 0.930 . S
C1814 C1813 1.372 . S
C1814 C1815 1.397 . S
C1815 C1814 1.397 . S
C1815 C1816 1.390 . S
C1815 C1831 1.476 . S
C1816 H1774 0.930 . S
C1816 C1815 1.390 . S
C1816 C1817 1.366 . S
C1817 H1775 0.932 . S
C1817 C1812 1.360 . S
C1817 C1816 1.366 . S
C1818 C1792 1.490 . S
C1818 C1819 1.380 . S
C1818 C1823 1.386 . S
C1819 H1776 0.930 . S
C1819 C1818 1.380 . S
C1819 C1820 1.381 . S
C1820 H1777 0.929 . S
C1820 C1819 1.381 . S
C1820 C1821 1.371 . S
C1821 C1820 1.371 . S
C1821 C1822 1.380 . S
C1822 H1778 0.931 . S
C1822 C1821 1.380 . S
C1822 C1823 1.387 . S
C1823 H1779 0.930 . S
C1823 C1818 1.386 . S
C1823 C1822 1.387 . S
C1824 C1793 1.519 . S
C1824 C1825 1.377 . S
C1824 C1829 1.361 . S
C1825 H1780 0.929 . S
C1825 C1824 1.377 . S
C1825 C1826 1.386 . S
C1826 H1781 0.931 . S
C1826 C1825 1.386 . S
C1826 C1827 1.363 . S
C1827 C1826 1.363 . S
C1827 C1828 1.385 . S
C1828 H1782 0.930 . S
C1828 C1827 1.385 . S
C1828 C1829 1.396 . S
C1829 H1783 0.929 . S
C1829 C1824 1.361 . S
C1829 C1828 1.396 . S
C1830 O1784 1.300 . S
C1830 O1785 1.209 . S
C1830 C1803 1.486 . S
C1831 O1786 1.199 . S
C1831 O1787 1.297 . S
C1831 C1815 1.476 . S
H1832 O1858 0.856 . S
H1833 O1861 0.854 . S
H1834 C1869 0.930 . S
H1835 C1870 0.930 . S
H1836 C1872 0.930 . S
H1837 C1873 0.930 . S
H1838 C1875 0.931 . S
H1839 C1876 0.930 . S
H1840 C1878 0.930 . S
H1841 C1879 0.929 . S
H1842 C1881 0.930 . S
H1843 C1882 0.931 . S
H1844 C1884 0.930 . S
H1845 C1885 0.929 . S
H1846 C1887 0.931 . S
H1847 C1888 0.930 . S
H1848 C1890 0.930 . S
H1849 C1891 0.932 . S
H1850 C1893 0.930 . S
H1851 C1894 0.929 . S
H1852 C1896 0.931 . S
H1853 C1897 0.930 . S
H1854 C1899 0.929 . S
H1855 C1900 0.931 . S
H1856 C1902 0.930 . S
H1857 C1903 0.929 . S
O1858 H1832 0.856 . S
O1858 C1904 1.300 . S
O1859 C1904 1.209 . S
O1860 C1905 1.199 . S
O1861 H1833 0.854 . S
O1861 C1905 1.297 . S
C1862 C1863 1.404 . S
C1862 C1867 1.397 . S
C1862 C1868 1.492 . S
C1863 C1862 1.404 . S
C1863 C1864 1.396 . S
C1863 C1874 1.492 . S
C1864 C1863 1.396 . S
C1864 C1865 1.397 . S
C1864 C1880 1.509 . S
C1865 C1864 1.397 . S
C1865 C1866 1.412 . S
C1865 C1886 1.485 . S
C1866 C1865 1.412 . S
C1866 C1867 1.388 . S
C1866 C1892 1.490 . S
C1867 C1862 1.397 . S
C1867 C1866 1.388 . S
C1867 C1898 1.519 . S
C1868 C1862 1.492 . S
C1868 C1869 1.363 . S
C1868 C1873 1.390 . S
C1869 H1834 0.930 . S
C1869 C1868 1.363 . S
C1869 C1870 1.372 . S
C1870 H1835 0.930 . S
C1870 C1869 1.372 . S
C1870 C1871 1.383 . S
C1871 C1870 1.383 . S
C1871 C1872 1.395 . S
C1872 H1836 0.930 . S
C1872 C1871 1.395 . S
C1872 C1873 1.362 . S
C1873 H1837 0.930 . S
C1873 C1868 1.390 . S
C1873 C1872 1.362 . S
C1874 C1863 1.492 . S
C1874 C1875 1.377 . S
C1874 C1879 1.397 . S
C1875 H1838 0.931 . S
C1875 C1874 1.377 . S
C1875 C1876 1.376 . S
C1876 H1839 0.930 . S
C1876 C1875 1.376 . S
C1876 C1877 1.376 . S
C1877 C1876 1.376 . S
C1877 C1878 1.378 . S
C1877 C1904 1.486 . S
C1878 H1840 0.930 . S
C1878 C1877 1.378 . S
C1878 C1879 1.376 . S
C1879 H1841 0.929 . S
C1879 C1874 1.397 . S
C1879 C1878 1.376 . S
C1880 C1864 1.509 . S
C1880 C1881 1.391 . S
C1880 C1885 1.386 . S
C1881 H1842 0.930 . S
C1881 C1880 1.391 . S
C1881 C1882 1.375 . S
C1882 H1843 0.931 . S
C1882 C1881 1.375 . S
C1882 C1883 1.375 . S
C1883 C1882 1.375 . S
C1883 C1884 1.361 . S
C1884 H1844 0.930 . S
C1884 C1883 1.361 . S
C1884 C1885 1.399 . S
C1885 H1845 0.929 . S
C1885 C1880 1.386 . S
C1885 C1884 1.399 . S
C1886 C1865 1.485 . S
C1886 C1887 1.394 . S
C1886 C1891 1.360 . S
C1887 H1846 0.931 . S
C1887 C1886 1.394 . S
C1887 C1888 1.372 . S
C1888 H1847 0.930 . S
C1888 C1887 1.372 . S
C1888 C1889 1.397 . S
C1889 C1888 1.397 . S
C1889 C1890 1.390 . S
C1889 C1905 1.476 . S
C1890 H1848 0.930 . S
C1890 C1889 1.390 . S
C1890 C1891 1.366 . S
C1891 H1849 0.932 . S
C1891 C1886 1.360 . S
C1891 C1890 1.366 . S
C1892 C1866 1.490 . S
C1892 C1893 1.380 . S
C1892 C1897 1.386 . S
C1893 H1850 0.930 . S
C1893 C1892 1.380 . S
C1893 C1894 1.381 . S
C1894 H1851 0.929 . S
C1894 C1893 1.381 . S
C1894 C1895 1.371 . S
C1895 C1894 1.371 . S
C1895 C1896 1.380 . S
C1896 H1852 0.931 . S
C1896 C1895 1.380 . S
C1896 C1897 1.387 . S
C1897 H1853 0.930 . S
C1897 C1892 1.386 . S
C1897 C1896 1.387 . S
C1898 C1867 1.519 . S
C1898 C1899 1.377 . S
C1898 C1903 1.361 . S
C1899 H1854 0.929 . S
C1899 C1898 1.377 . S
C1899 C1900 1.386 . S
C1900 H1855 0.931 . S
C1900 C1899 1.386 . S
C1900 C1901 1.363 . S
C1901 C1900 1.363 . S
C1901 C1902 1.385 . S
C1902 H1856 0.930 . S
C1902 C1901 1.385 . S
C1902 C1903 1.396 . S
C1903 H1857 0.929 . S
C1903 C1898 1.361 . S
C1903 C1902 1.396 . S
C1904 O1858 1.300 . S
C1904 O1859 1.209 . S
C1904 C1877 1.486 . S
C1905 O1860 1.199 . S
C1905 O1861 1.297 . S
C1905 C1889 1.476 . S
H1906 O1932 0.856 . S
H1907 O1935 0.854 . S
H1908 C1943 0.930 . S
H1909 C1944 0.930 . S
H1910 C1946 0.930 . S
H1911 C1947 0.930 . S
H1912 C1949 0.931 . S
H1913 C1950 0.930 . S
H1914 C1952 0.930 . S
H1915 C1953 0.929 . S
H1916 C1955 0.930 . S
H1917 C1956 0.931 . S
H1918 C1958 0.930 . S
H1919 C1959 0.929 . S
H1920 C1961 0.931 . S
H1921 C1962 0.930 . S
H1922 C1964 0.930 . S
H1923 C1965 0.932 . S
H1924 C1967 0.930 . S
H1925 C1968 0.929 . S
H1926 C1970 0.931 . S
H1927 C1971 0.930 . S
H1928 C1973 0.929 . S
H1929 C1974 0.931 . S
H1930 C1976 0.930 . S
H1931 C1977 0.929 . S
O1932 H1906 0.856 . S
O1932 C1978 1.300 . S
O1933 C1978 1.209 . S
O1934 C1979 1.199 . S
O1935 H1907 0.854 . S
O1935 C1979 1.297 . S
C1936 C1937 1.404 . S
C1936 C1941 1.397 . S
C1936 C1942 1.492 . S
C1937 C1936 1.404 . S
C1937 C1938 1.396 . S
C1937 C1948 1.492 . S
C1938 C1937 1.396 . S
C1938 C1939 1.397 . S
C1938 C1954 1.509 . S
C1939 C1938 1.397 . S
C1939 C1940 1.412 . S
C1939 C1960 1.485 . S
C1940 C1939 1.412 . S
C1940 C1941 1.388 . S
C1940 C1966 1.490 . S
C1941 C1936 1.397 . S
C1941 C1940 1.388 . S
C1941 C1972 1.519 . S
C1942 C1936 1.492 . S
C1942 C1943 1.363 . S
C1942 C1947 1.390 . S
C1943 H1908 0.930 . S
C1943 C1942 1.363 . S
C1943 C1944 1.372 . S
C1944 H1909 0.930 . S
C1944 C1943 1.372 . S
C1944 C1945 1.383 . S
C1945 C1944 1.383 . S
C1945 C1946 1.395 . S
C1946 H1910 0.930 . S
C1946 C1945 1.395 . S
C1946 C1947 1.362 . S
C1947 H1911 0.930 . S
C1947 C1942 1.390 . S
C1947 C1946 1.362 . S
C1948 C1937 1.492 . S
C1948 C1949 1.377 . S
C1948 C1953 1.397 . S
C1949 H1912 0.931 . S
C1949 C1948 1.377 . S
C1949 C1950 1.376 . S
C1950 H1913 0.930 . S
C1950 C1949 1.376 . S
C1950 C1951 1.376 . S
C1951 C1950 1.376 . S
C1951 C1952 1.378 . S
C1951 C1978 1.486 . S
C1952 H1914 0.930 . S
C1952 C1951 1.378 . S
C1952 C1953 1.376 . S
C1953 H1915 0.929 . S
C1953 C1948 1.397 . S
C1953 C1952 1.376 . S
C1954 C1938 1.509 . S
C1954 C1955 1.391 . S
C1954 C1959 1.386 . S
C1955 H1916 0.930 . S
C1955 C1954 1.391 . S
C1955 C1956 1.375 . S
C1956 H1917 0.931 . S
C1956 C1955 1.375 . S
C1956 C1957 1.375 . S
C1957 C1956 1.375 . S
C1957 C1958 1.361 . S
C1958 H1918 0.930 . S
C1958 C1957 1.361 . S
C1958 C1959 1.399 . S
C1959 H1919 0.929 . S
C1959 C1954 1.386 . S
C1959 C1958 1.399 . S
C1960 C1939 1.485 . S
C1960 C1961 1.394 . S
C1960 C1965 1.360 . S
C1961 H1920 0.931 . S
C1961 C1960 1.394 . S
C1961 C1962 1.372 . S
C1962 H1921 0.930 . S
C1962 C1961 1.372 . S
C1962 C1963 1.397 . S
C1963 C1962 1.397 . S
C1963 C1964 1.390 . S
C1963 C1979 1.476 . S
C1964 H1922 0.930 . S
C1964 C1963 1.390 . S
C1964 C1965 1.366 . S
C1965 H1923 0.932 . S
C1965 C1960 1.360 . S
C1965 C1964 1.366 . S
C1966 C1940 1.490 . S
C1966 C1967 1.380 . S
C1966 C1971 1.386 . S
C1967 H1924 0.930 . S
C1967 C1966 1.380 . S
C1967 C1968 1.381 . S
C1968 H1925 0.929 . S
C1968 C1967 1.381 . S
C1968 C1969 1.371 . S
C1969 C1968 1.371 . S
C1969 C1970 1.380 . S
C1970 H1926 0.931 . S
C1970 C1969 1.380 . S
C1970 C1971 1.387 . S
C1971 H1927 0.930 . S
C1971 C1966 1.386 . S
C1971 C1970 1.387 . S
C1972 C1941 1.519 . S
C1972 C1973 1.377 . S
C1972 C1977 1.361 . S
C1973 H1928 0.929 . S
C1973 C1972 1.377 . S
C1973 C1974 1.386 . S
C1974 H1929 0.931 . S
C1974 C1973 1.386 . S
C1974 C1975 1.363 . S
C1975 C1974 1.363 . S
C1975 C1976 1.385 . S
C1976 H1930 0.930 . S
C1976 C1975 1.385 . S
C1976 C1977 1.396 . S
C1977 H1931 0.929 . S
C1977 C1972 1.361 . S
C1977 C1976 1.396 . S
C1978 O1932 1.300 . S
C1978 O1933 1.209 . S
C1978 C1951 1.486 . S
C1979 O1934 1.199 . S
C1979 O1935 1.297 . S
C1979 C1963 1.476 . S
C1980 C1981 1.369 . S
C1980 C1982 1.419 . S
C1980 H1984 0.930 . S
C1981 C1980 1.369 . S
C1981 C1990 1.429 1_655 S
C1982 C1980 1.419 . S
C1982 C1983 1.363 . S
C1982 H1985 0.929 . S
C1983 C1982 1.363 . S
C1983 C1989 1.428 . S
H1984 C1980 0.930 . S
H1985 C1982 0.929 . S
S1986 N1987 1.613 . S
S1986 N1988 1.610 . S
N1987 S1986 1.613 . S
N1987 C1990 1.350 . S
N1988 S1986 1.610 . S
N1988 C1989 1.351 1_455 S
C1989 C1983 1.428 . S
C1989 N1988 1.351 1_655 S
C1989 C1990 1.434 1_655 S
C1990 C1981 1.429 1_455 S
C1990 N1987 1.350 . S
C1990 C1989 1.434 1_455 S
C1991 C1992 1.369 . S
C1991 C1993 1.419 . S
C1991 H1995 0.930 . S
C1992 C1991 1.369 . S
C1992 C2001 1.429 . S
C1993 C1991 1.419 . S
C1993 C1994 1.363 . S
C1993 H1996 0.929 . S
C1994 C1993 1.363 . S
C1994 C2000 1.428 . S
H1995 C1991 0.930 . S
H1996 C1993 0.929 . S
S1997 N1998 1.613 . S
S1997 N1999 1.610 . S
N1998 S1997 1.613 . S
N1998 C2001 1.350 . S
N1999 S1997 1.610 . S
N1999 C2000 1.351 . S
C2000 C1994 1.428 . S
C2000 N1999 1.351 . S
C2000 C2001 1.434 . S
C2001 C1992 1.429 . S
C2001 N1998 1.350 . S
C2001 C2000 1.434 . S
C2002 C2003 1.369 1_565 S
C2002 C2004 1.419 1_565 S
C2002 H2006 0.930 . S
C2003 C2002 1.369 1_545 S
C2003 C2012 1.429 . S
C2004 C2002 1.419 1_545 S
C2004 C2005 1.363 . S
C2004 H2007 0.929 1_545 S
C2005 C2004 1.363 . S
C2005 C2011 1.428 . S
H2006 C2002 0.930 . S
H2007 C2004 0.929 1_565 S
S2008 N2009 1.613 . S
S2008 N2010 1.610 . S
N2009 S2008 1.613 . S
N2009 C2012 1.350 . S
N2010 S2008 1.610 . S
N2010 C2011 1.351 . S
C2011 C2005 1.428 . S
C2011 N2010 1.351 . S
C2011 C2012 1.434 . S
C2012 C2003 1.429 . S
C2012 N2009 1.350 . S
C2012 C2011 1.434 . S
C2013 C2014 1.369 . S
C2013 C2015 1.419 . S
C2013 H2017 0.930 . S
C2014 C2013 1.369 . S
C2014 C2023 1.429 1_565 S
C2015 C2013 1.419 . S
C2015 C2016 1.363 . S
C2015 H2018 0.929 . S
C2016 C2015 1.363 . S
C2016 C2022 1.428 1_565 S
H2017 C2013 0.930 . S
H2018 C2015 0.929 . S
S2019 N2020 1.613 . S
S2019 N2021 1.610 . S
N2020 S2019 1.613 . S
N2020 C2023 1.350 . S
N2021 S2019 1.610 . S
N2021 C2022 1.351 . S
C2022 C2016 1.428 1_545 S
C2022 N2021 1.351 . S
C2022 C2023 1.434 . S
C2023 C2014 1.429 1_545 S
C2023 N2020 1.350 . S
C2023 C2022 1.434 . S
C2024 C2025 1.369 1_655 S
C2024 C2026 1.419 . S
C2024 H2028 0.930 . S
C2025 C2024 1.369 1_455 S
C2025 C2034 1.429 . S
C2026 C2024 1.419 . S
C2026 C2027 1.363 1_655 S
C2026 H2029 0.929 . S
C2027 C2026 1.363 1_455 S
C2027 C2033 1.428 . S
H2028 C2024 0.930 . S
H2029 C2026 0.929 . S
S2030 N2031 1.613 . S
S2030 N2032 1.610 . S
N2031 S2030 1.613 . S
N2031 C2034 1.350 . S
N2032 S2030 1.610 . S
N2032 C2033 1.351 . S
C2033 C2027 1.428 . S
C2033 N2032 1.351 . S
C2033 C2034 1.434 . S
C2034 C2025 1.429 . S
C2034 N2031 1.350 . S
C2034 C2033 1.434 . S
C2035 C2036 1.362 1_554 S
C2035 C2037 1.419 1_554 S
C2035 H2039 0.930 . S
C2036 C2035 1.362 1_556 S
C2036 C2045 1.462 . S
C2037 C2035 1.419 1_556 S
C2037 C2038 1.363 . S
C2037 H2040 0.929 . S
C2038 C2037 1.363 . S
C2038 C2044 1.428 . S
H2039 C2035 0.930 . S
H2040 C2037 0.929 . S
S2041 N2042 1.613 . S
S2041 N2043 1.610 . S
N2042 S2041 1.613 . S
N2042 C2045 1.350 . S
N2043 S2041 1.610 . S
N2043 C2044 1.351 . S
C2044 C2038 1.428 . S
C2044 N2043 1.351 . S
C2044 C2045 1.434 . S
C2045 C2036 1.462 . S
C2045 N2042 1.350 . S
C2045 C2044 1.434 . S
C2046 C2047 1.369 . S
C2046 C2048 1.419 . S
C2046 H2050 0.930 . S
C2047 C2046 1.369 . S
C2047 C2056 1.429 1_456 S
C2048 C2046 1.419 . S
C2048 C2049 1.363 . S
C2048 H2051 0.929 . S
C2049 C2048 1.363 . S
C2049 C2055 1.428 1_455 S
H2050 C2046 0.930 . S
H2051 C2048 0.929 . S
S2052 N2053 1.613 . S
S2052 N2054 1.610 . S
N2053 S2052 1.613 . S
N2053 C2056 1.350 . S
N2054 S2052 1.610 . S
N2054 C2055 1.351 1_554 S
C2055 C2049 1.428 1_655 S
C2055 N2054 1.351 1_556 S
C2055 C2056 1.434 1_556 S
C2056 C2047 1.429 1_654 S
C2056 N2053 1.350 . S
C2056 C2055 1.434 1_554 S
C2057 C2058 1.369 . S
C2057 C2059 1.419 . S
C2057 H2061 0.930 . S
C2058 C2057 1.369 . S
C2058 C2067 1.429 . S
C2059 C2057 1.419 . S
C2059 C2060 1.363 . S
C2059 H2062 0.929 . S
C2060 C2059 1.363 . S
C2060 C2066 1.428 . S
H2061 C2057 0.930 . S
H2062 C2059 0.929 . S
S2063 N2064 1.613 . S
S2063 N2065 1.610 . S
N2064 S2063 1.613 . S
N2064 C2067 1.350 . S
N2065 S2063 1.610 . S
N2065 C2066 1.351 . S
C2066 C2060 1.428 . S
C2066 N2065 1.351 . S
C2066 C2067 1.434 . S
C2067 C2058 1.429 . S
C2067 N2064 1.350 . S
C2067 C2066 1.434 . S
C2068 C2069 1.369 . S
C2068 C2070 1.419 . S
C2068 H2072 0.930 1_556 S
C2069 C2068 1.369 . S
C2069 C2078 1.429 1_565 S
C2070 C2068 1.419 . S
C2070 C2071 1.363 1_565 S
C2070 H2073 0.929 . S
C2071 C2070 1.363 1_545 S
C2071 C2077 1.428 . S
H2072 C2068 0.930 1_554 S
H2073 C2070 0.929 . S
S2074 N2075 1.613 . S
S2074 N2076 1.610 . S
N2075 S2074 1.613 . S
N2075 C2078 1.350 . S
N2076 S2074 1.610 . S
N2076 C2077 1.351 . S
C2077 C2071 1.428 . S
C2077 N2076 1.351 . S
C2077 C2078 1.434 . S
C2078 C2069 1.429 1_545 S
C2078 N2075 1.350 . S
C2078 C2077 1.434 . S
C2079 C2080 1.369 . S
C2079 C2081 1.419 . S
C2079 H2083 0.930 . S
C2080 C2079 1.369 . S
C2080 C2089 1.429 1_545 S
C2081 C2079 1.419 . S
C2081 C2082 1.363 . S
C2081 H2084 0.929 . S
C2082 C2081 1.363 . S
C2082 C2088 1.428 1_545 S
H2083 C2079 0.930 . S
H2084 C2081 0.929 . S
S2085 N2086 1.613 . S
S2085 N2087 1.610 . S
N2086 S2085 1.613 . S
N2086 C2089 1.350 . S
N2087 S2085 1.610 . S
N2087 C2088 1.351 . S
C2088 C2082 1.428 1_565 S
C2088 N2087 1.351 . S
C2088 C2089 1.434 . S
C2089 C2080 1.429 1_565 S
C2089 N2086 1.350 . S
C2089 C2088 1.434 . S
C2090 C2091 1.369 . S
C2090 C2092 1.419 . S
C2090 H2094 0.930 . S
C2091 C2090 1.369 . S
C2091 C2100 1.429 1_655 S
C2092 C2090 1.419 . S
C2092 C2093 1.366 . S
C2092 H2095 0.929 . S
C2093 C2092 1.366 . S
C2093 C2099 1.444 1_655 S
H2094 C2090 0.930 . S
H2095 C2092 0.929 . S
S2096 N2097 1.613 . S
S2096 N2098 1.610 . S
N2097 S2096 1.613 . S
N2097 C2100 1.350 . S
N2098 S2096 1.610 . S
N2098 C2099 1.351 . S
C2099 C2093 1.444 1_455 S
C2099 N2098 1.351 . S
C2099 C2100 1.434 . S
C2100 C2091 1.429 1_455 S
C2100 N2097 1.350 . S
C2100 C2099 1.434 . S
C2101 C2102 1.369 . S
C2101 C2103 1.419 . S
C2101 H2105 0.930 . S
C2102 C2101 1.369 . S
C2102 C2111 1.429 . S
C2103 C2101 1.419 . S
C2103 C2104 1.363 . S
C2103 H2106 0.929 . S
C2104 C2103 1.363 . S
C2104 C2110 1.428 . S
H2105 C2101 0.930 . S
H2106 C2103 0.929 . S
S2107 N2108 1.613 . S
S2107 N2109 1.610 . S
N2108 S2107 1.613 . S
N2108 C2111 1.350 . S
N2109 S2107 1.610 . S
N2109 C2110 1.351 . S
C2110 C2104 1.428 . S
C2110 N2109 1.351 . S
C2110 C2111 1.434 . S
C2111 C2102 1.429 . S
C2111 N2108 1.350 . S
C2111 C2110 1.434 . S
C2112 C2113 1.369 . S
C2112 C2114 1.419 . S
C2112 H2116 0.930 . S
C2113 C2112 1.369 . S
C2113 C2122 1.429 . S
C2114 C2112 1.419 . S
C2114 C2115 1.363 . S
C2114 H2117 0.929 . S
C2115 C2114 1.363 . S
C2115 C2121 1.428 . S
H2116 C2112 0.930 . S
H2117 C2114 0.929 . S
S2118 N2119 1.613 . S
S2118 N2120 1.610 . S
N2119 S2118 1.613 . S
N2119 C2122 1.350 . S
N2120 S2118 1.610 . S
N2120 C2121 1.351 . S
C2121 C2115 1.428 . S
C2121 N2120 1.351 . S
C2121 C2122 1.434 . S
C2122 C2113 1.429 . S
C2122 N2119 1.350 . S
C2122 C2121 1.434 . S
C2123 C2124 1.369 . S
C2123 C2125 1.419 . S
C2123 H2127 0.930 . S
C2124 C2123 1.369 . S
C2124 C2133 1.429 . S
C2125 C2123 1.419 . S
C2125 C2126 1.363 . S
C2125 H2128 0.929 . S
C2126 C2125 1.363 . S
C2126 C2132 1.428 . S
H2127 C2123 0.930 . S
H2128 C2125 0.929 . S
S2129 N2130 1.613 . S
S2129 N2131 1.610 . S
N2130 S2129 1.613 . S
N2130 C2133 1.350 . S
N2131 S2129 1.610 . S
N2131 C2132 1.351 . S
C2132 C2126 1.428 . S
C2132 N2131 1.351 . S
C2132 C2133 1.434 . S
C2133 C2124 1.429 . S
C2133 N2130 1.350 . S
C2133 C2132 1.434 . S
C2134 C2135 1.369 . S
C2134 C2136 1.419 . S
C2134 H2138 0.930 . S
C2135 C2134 1.369 . S
C2135 C2144 1.429 . S
C2136 C2134 1.419 . S
C2136 C2137 1.363 . S
C2136 H2139 0.929 . S
C2137 C2136 1.363 . S
C2137 C2143 1.428 . S
H2138 C2134 0.930 . S
H2139 C2136 0.929 . S
S2140 N2141 1.613 . S
S2140 N2142 1.610 . S
N2141 S2140 1.613 . S
N2141 C2144 1.350 . S
N2142 S2140 1.610 . S
N2142 C2143 1.351 . S
C2143 C2137 1.428 . S
C2143 N2142 1.351 . S
C2143 C2144 1.434 . S
C2144 C2135 1.429 . S
C2144 N2141 1.350 . S
C2144 C2143 1.434 . S
C2145 C2146 1.369 . S
C2145 C2147 1.419 . S
C2145 H2149 0.930 . S
C2146 C2145 1.369 . S
C2146 C2155 1.429 . S
C2147 C2145 1.419 . S
C2147 C2148 1.363 . S
C2147 H2150 0.929 . S
C2148 C2147 1.363 . S
C2148 C2154 1.428 . S
H2149 C2145 0.930 . S
H2150 C2147 0.929 . S
S2151 N2152 1.613 . S
S2151 N2153 1.610 . S
N2152 S2151 1.613 . S
N2152 C2155 1.350 . S
N2153 S2151 1.610 . S
N2153 C2154 1.351 . S
C2154 C2148 1.428 . S
C2154 N2153 1.351 . S
C2154 C2155 1.434 . S
C2155 C2146 1.429 . S
C2155 N2152 1.350 . S
C2155 C2154 1.434 . S
C2156 C2157 1.369 . S
C2156 C2158 1.419 . S
C2156 H2160 0.930 . S
C2157 C2156 1.369 . S
C2157 C2166 1.429 . S
C2158 C2156 1.419 . S
C2158 C2159 1.363 . S
C2158 H2161 0.929 . S
C2159 C2158 1.363 . S
C2159 C2165 1.428 . S
H2160 C2156 0.930 . S
H2161 C2158 0.929 . S
S2162 N2163 1.613 . S
S2162 N2164 1.610 . S
N2163 S2162 1.613 . S
N2163 C2166 1.350 . S
N2164 S2162 1.610 . S
N2164 C2165 1.351 . S
C2165 C2159 1.428 . S
C2165 N2164 1.351 . S
C2165 C2166 1.434 . S
C2166 C2157 1.429 . S
C2166 N2163 1.350 . S
C2166 C2165 1.434 . S
C2167 C2168 1.369 . S
C2167 C2169 1.419 . S
C2167 H2171 0.930 . S
C2168 C2167 1.369 . S
C2168 C2177 1.429 . S
C2169 C2167 1.419 . S
C2169 C2170 1.363 . S
C2169 H2172 0.929 . S
C2170 C2169 1.363 . S
C2170 C2176 1.428 . S
H2171 C2167 0.930 . S
H2172 C2169 0.929 . S
S2173 N2174 1.613 . S
S2173 N2175 1.610 . S
N2174 S2173 1.613 . S
N2174 C2177 1.350 . S
N2175 S2173 1.610 . S
N2175 C2176 1.351 . S
C2176 C2170 1.428 . S
C2176 N2175 1.351 . S
C2176 C2177 1.434 . S
C2177 C2168 1.429 . S
C2177 N2174 1.350 . S
C2177 C2176 1.434 . S
C2178 C2179 1.369 . S
C2178 C2180 1.419 . S
C2178 H2182 0.930 . S
C2179 C2178 1.369 . S
C2179 C2188 1.429 . S
C2180 C2178 1.419 . S
C2180 C2181 1.363 . S
C2180 H2183 0.929 . S
C2181 C2180 1.363 . S
C2181 C2187 1.428 . S
H2182 C2178 0.930 . S
H2183 C2180 0.929 . S
S2184 N2185 1.613 . S
S2184 N2186 1.610 . S
N2185 S2184 1.613 . S
N2185 C2188 1.350 . S
N2186 S2184 1.610 . S
N2186 C2187 1.351 . S
C2187 C2181 1.428 . S
C2187 N2186 1.351 . S
C2187 C2188 1.434 . S
C2188 C2179 1.429 . S
C2188 N2185 1.350 . S
C2188 C2187 1.434 . S
C2189 C2190 1.369 . S
C2189 C2191 1.419 . S
C2189 H2193 0.930 . S
C2190 C2189 1.369 . S
C2190 C2199 1.429 . S
C2191 C2189 1.419 . S
C2191 C2192 1.363 . S
C2191 H2194 0.929 . S
C2192 C2191 1.363 . S
C2192 C2198 1.428 . S
H2193 C2189 0.930 . S
H2194 C2191 0.929 . S
S2195 N2196 1.613 . S
S2195 N2197 1.610 . S
N2196 S2195 1.613 . S
N2196 C2199 1.350 . S
N2197 S2195 1.610 . S
N2197 C2198 1.351 . S
C2198 C2192 1.428 . S
C2198 N2197 1.351 . S
C2198 C2199 1.434 . S
C2199 C2190 1.429 . S
C2199 N2196 1.350 . S
C2199 C2198 1.434 . S
C2200 C2201 1.369 . S
C2200 C2202 1.419 . S
C2200 H2204 0.930 . S
C2201 C2200 1.369 . S
C2201 C2210 1.429 . S
C2202 C2200 1.419 . S
C2202 C2203 1.363 . S
C2202 H2205 0.929 . S
C2203 C2202 1.363 . S
C2203 C2209 1.428 . S
H2204 C2200 0.930 . S
H2205 C2202 0.929 . S
S2206 N2207 1.613 . S
S2206 N2208 1.610 . S
N2207 S2206 1.613 . S
N2207 C2210 1.350 . S
N2208 S2206 1.610 . S
N2208 C2209 1.351 . S
C2209 C2203 1.428 . S
C2209 N2208 1.351 . S
C2209 C2210 1.434 . S
C2210 C2201 1.429 . S
C2210 N2207 1.350 . S
C2210 C2209 1.434 . S
C2211 C2212 1.369 . S
C2211 C2213 1.419 . S
C2211 H2215 0.930 . S
C2212 C2211 1.369 . S
C2212 C2221 1.429 . S
C2213 C2211 1.419 . S
C2213 C2214 1.363 . S
C2213 H2216 0.929 . S
C2214 C2213 1.363 . S
C2214 C2220 1.428 . S
H2215 C2211 0.930 . S
H2216 C2213 0.929 . S
S2217 N2218 1.613 . S
S2217 N2219 1.610 . S
N2218 S2217 1.613 . S
N2218 C2221 1.350 . S
N2219 S2217 1.610 . S
N2219 C2220 1.351 . S
C2220 C2214 1.428 . S
C2220 N2219 1.351 . S
C2220 C2221 1.434 . S
C2221 C2212 1.429 . S
C2221 N2218 1.350 . S
C2221 C2220 1.434 . S
C2222 C2223 1.369 . S
C2222 C2224 1.419 . S
C2222 H2226 0.930 . S
C2223 C2222 1.369 . S
C2223 C2232 1.429 . S
C2224 C2222 1.419 . S
C2224 C2225 1.363 . S
C2224 H2227 0.929 . S
C2225 C2224 1.363 . S
C2225 C2231 1.428 . S
H2226 C2222 0.930 . S
H2227 C2224 0.929 . S
S2228 N2229 1.613 . S
S2228 N2230 1.610 . S
N2229 S2228 1.613 . S
N2229 C2232 1.350 . S
N2230 S2228 1.610 . S
N2230 C2231 1.351 . S
C2231 C2225 1.428 . S
C2231 N2230 1.351 . S
C2231 C2232 1.434 . S
C2232 C2223 1.429 . S
C2232 N2229 1.350 . S
C2232 C2231 1.434 . S
C2233 C2234 1.369 . S
C2233 C2235 1.419 . S
C2233 H2237 0.930 . S
C2234 C2233 1.369 . S
C2234 C2243 1.429 . S
C2235 C2233 1.419 . S
C2235 C2236 1.363 . S
C2235 H2238 0.929 . S
C2236 C2235 1.363 . S
C2236 C2242 1.428 . S
H2237 C2233 0.930 . S
H2238 C2235 0.929 . S
S2239 N2240 1.613 . S
S2239 N2241 1.610 . S
N2240 S2239 1.613 . S
N2240 C2243 1.350 . S
N2241 S2239 1.610 . S
N2241 C2242 1.351 . S
C2242 C2236 1.428 . S
C2242 N2241 1.351 . S
C2242 C2243 1.434 . S
C2243 C2234 1.429 . S
C2243 N2240 1.350 . S
C2243 C2242 1.434 . S
C2244 C2245 1.369 . S
C2244 C2246 1.419 . S
C2244 H2248 0.930 . S
C2245 C2244 1.369 . S
C2245 C2254 1.429 . S
C2246 C2244 1.419 . S
C2246 C2247 1.363 . S
C2246 H2249 0.929 . S
C2247 C2246 1.363 . S
C2247 C2253 1.428 . S
H2248 C2244 0.930 . S
H2249 C2246 0.929 . S
S2250 N2251 1.613 . S
S2250 N2252 1.610 . S
N2251 S2250 1.613 . S
N2251 C2254 1.350 . S
N2252 S2250 1.610 . S
N2252 C2253 1.351 . S
C2253 C2247 1.428 . S
C2253 N2252 1.351 . S
C2253 C2254 1.434 . S
C2254 C2245 1.429 . S
C2254 N2251 1.350 . S
C2254 C2253 1.434 . S
C2255 C2256 1.369 . S
C2255 C2257 1.419 . S
C2255 H2259 0.930 . S
C2256 C2255 1.369 . S
C2256 C2265 1.429 . S
C2257 C2255 1.419 . S
C2257 C2258 1.363 . S
C2257 H2260 0.929 . S
C2258 C2257 1.363 . S
C2258 C2264 1.428 . S
H2259 C2255 0.930 . S
H2260 C2257 0.929 . S
S2261 N2262 1.613 . S
S2261 N2263 1.610 . S
N2262 S2261 1.613 . S
N2262 C2265 1.350 . S
N2263 S2261 1.610 . S
N2263 C2264 1.351 . S
C2264 C2258 1.428 . S
C2264 N2263 1.351 . S
C2264 C2265 1.434 . S
C2265 C2256 1.429 . S
C2265 N2262 1.350 . S
C2265 C2264 1.434 . S
C2266 C2267 1.369 . S
C2266 C2268 1.419 . S
C2266 H2270 0.930 . S
C2267 C2266 1.369 . S
C2267 C2276 1.429 . S
C2268 C2266 1.419 . S
C2268 C2269 1.363 . S
C2268 H2271 0.929 . S
C2269 C2268 1.363 . S
C2269 C2275 1.428 . S
H2270 C2266 0.930 . S
H2271 C2268 0.929 . S
S2272 N2273 1.613 . S
S2272 N2274 1.610 . S
N2273 S2272 1.613 . S
N2273 C2276 1.350 . S
N2274 S2272 1.610 . S
N2274 C2275 1.351 . S
C2275 C2269 1.428 . S
C2275 N2274 1.351 . S
C2275 C2276 1.434 . S
C2276 C2267 1.429 . S
C2276 N2273 1.350 . S
C2276 C2275 1.434 . S
C2277 C2278 1.369 . S
C2277 C2279 1.419 . S
C2277 H2281 0.930 . S
C2278 C2277 1.369 . S
C2278 C2287 1.429 . S
C2279 C2277 1.419 . S
C2279 C2280 1.363 . S
C2279 H2282 0.929 . S
C2280 C2279 1.363 . S
C2280 C2286 1.428 . S
H2281 C2277 0.930 . S
H2282 C2279 0.929 . S
S2283 N2284 1.613 . S
S2283 N2285 1.610 . S
N2284 S2283 1.613 . S
N2284 C2287 1.350 . S
N2285 S2283 1.610 . S
N2285 C2286 1.351 . S
C2286 C2280 1.428 . S
C2286 N2285 1.351 . S
C2286 C2287 1.434 . S
C2287 C2278 1.429 . S
C2287 N2284 1.350 . S
C2287 C2286 1.434 . S
C2288 C2289 1.369 . S
C2288 C2290 1.419 . S
C2288 H2292 0.930 . S
C2289 C2288 1.369 . S
C2289 C2298 1.429 . S
C2290 C2288 1.419 . S
C2290 C2291 1.363 . S
C2290 H2293 0.929 . S
C2291 C2290 1.363 . S
C2291 C2297 1.428 . S
H2292 C2288 0.930 . S
H2293 C2290 0.929 . S
S2294 N2295 1.613 . S
S2294 N2296 1.610 . S
N2295 S2294 1.613 . S
N2295 C2298 1.350 . S
N2296 S2294 1.610 . S
N2296 C2297 1.351 . S
C2297 C2291 1.428 . S
C2297 N2296 1.351 . S
C2297 C2298 1.434 . S
C2298 C2289 1.429 . S
C2298 N2295 1.350 . S
C2298 C2297 1.434 . S
C2299 C2300 1.369 . S
C2299 C2301 1.419 . S
C2299 H2303 0.930 . S
C2300 C2299 1.369 . S
C2300 C2309 1.429 . S
C2301 C2299 1.419 . S
C2301 C2302 1.363 . S
C2301 H2304 0.929 . S
C2302 C2301 1.363 . S
C2302 C2308 1.428 . S
H2303 C2299 0.930 . S
H2304 C2301 0.929 . S
S2305 N2306 1.613 . S
S2305 N2307 1.610 . S
N2306 S2305 1.613 . S
N2306 C2309 1.350 . S
N2307 S2305 1.610 . S
N2307 C2308 1.351 . S
C2308 C2302 1.428 . S
C2308 N2307 1.351 . S
C2308 C2309 1.434 . S
C2309 C2300 1.429 . S
C2309 N2306 1.350 . S
C2309 C2308 1.434 . S
C2310 C2311 1.369 . S
C2310 C2312 1.419 . S
C2310 H2314 0.930 . S
C2311 C2310 1.369 . S
C2311 C2320 1.429 . S
C2312 C2310 1.419 . S
C2312 C2313 1.363 . S
C2312 H2315 0.929 . S
C2313 C2312 1.363 . S
C2313 C2319 1.428 . S
H2314 C2310 0.930 . S
H2315 C2312 0.929 . S
S2316 N2317 1.613 . S
S2316 N2318 1.610 . S
N2317 S2316 1.613 . S
N2317 C2320 1.350 . S
N2318 S2316 1.610 . S
N2318 C2319 1.351 . S
C2319 C2313 1.428 . S
C2319 N2318 1.351 . S
C2319 C2320 1.434 . S
C2320 C2311 1.429 . S
C2320 N2317 1.350 . S
C2320 C2319 1.434 . S
C2321 C2322 1.369 . S
C2321 C2323 1.419 . S
C2321 H2325 0.930 . S
C2322 C2321 1.369 . S
C2322 C2331 1.429 . S
C2323 C2321 1.419 . S
C2323 C2324 1.363 . S
C2323 H2326 0.929 . S
C2324 C2323 1.363 . S
C2324 C2330 1.428 . S
H2325 C2321 0.930 . S
H2326 C2323 0.929 . S
S2327 N2328 1.613 . S
S2327 N2329 1.610 . S
N2328 S2327 1.613 . S
N2328 C2331 1.350 . S
N2329 S2327 1.610 . S
N2329 C2330 1.351 . S
C2330 C2324 1.428 . S
C2330 N2329 1.351 . S
C2330 C2331 1.434 . S
C2331 C2322 1.429 . S
C2331 N2328 1.350 . S
C2331 C2330 1.434 . S
C2332 C2333 1.369 . S
C2332 C2334 1.419 . S
C2332 H2336 0.930 . S
C2333 C2332 1.369 . S
C2333 C2342 1.429 . S
C2334 C2332 1.419 . S
C2334 C2335 1.363 . S
C2334 H2337 0.929 . S
C2335 C2334 1.363 . S
C2335 C2341 1.428 . S
H2336 C2332 0.930 . S
H2337 C2334 0.929 . S
S2338 N2339 1.613 . S
S2338 N2340 1.610 . S
N2339 S2338 1.613 . S
N2339 C2342 1.350 . S
N2340 S2338 1.610 . S
N2340 C2341 1.351 . S
C2341 C2335 1.428 . S
C2341 N2340 1.351 . S
C2341 C2342 1.434 . S
C2342 C2333 1.429 . S
C2342 N2339 1.350 . S
C2342 C2341 1.434 . S
C2343 C2344 1.369 . S
C2343 C2345 1.419 . S
C2343 H2347 0.930 . S
C2344 C2343 1.369 . S
C2344 C2353 1.429 . S
C2345 C2343 1.419 . S
C2345 C2346 1.363 . S
C2345 H2348 0.929 . S
C2346 C2345 1.363 . S
C2346 C2352 1.428 . S
H2347 C2343 0.930 . S
H2348 C2345 0.929 . S
S2349 N2350 1.613 . S
S2349 N2351 1.610 . S
N2350 S2349 1.613 . S
N2350 C2353 1.350 . S
N2351 S2349 1.610 . S
N2351 C2352 1.351 . S
C2352 C2346 1.428 . S
C2352 N2351 1.351 . S
C2352 C2353 1.434 . S
C2353 C2344 1.429 . S
C2353 N2350 1.350 . S
C2353 C2352 1.434 . S
C2354 C2355 1.369 . S
C2354 C2356 1.419 . S
C2354 H2358 0.930 . S
C2355 C2354 1.369 . S
C2355 C2364 1.429 . S
C2356 C2354 1.419 . S
C2356 C2357 1.363 . S
C2356 H2359 0.929 . S
C2357 C2356 1.363 . S
C2357 C2363 1.428 . S
H2358 C2354 0.930 . S
H2359 C2356 0.929 . S
S2360 N2361 1.613 . S
S2360 N2362 1.610 . S
N2361 S2360 1.613 . S
N2361 C2364 1.350 . S
N2362 S2360 1.610 . S
N2362 C2363 1.351 . S
C2363 C2357 1.428 . S
C2363 N2362 1.351 . S
C2363 C2364 1.434 . S
C2364 C2355 1.429 . S
C2364 N2361 1.350 . S
C2364 C2363 1.434 . S
C2365 C2366 1.369 . S
C2365 C2367 1.419 . S
C2365 H2369 0.930 . S
C2366 C2365 1.369 . S
C2366 C2375 1.429 . S
C2367 C2365 1.419 . S
C2367 C2368 1.363 . S
C2367 H2370 0.929 . S
C2368 C2367 1.363 . S
C2368 C2374 1.428 . S
H2369 C2365 0.930 . S
H2370 C2367 0.929 . S
S2371 N2372 1.613 . S
S2371 N2373 1.610 . S
N2372 S2371 1.613 . S
N2372 C2375 1.350 . S
N2373 S2371 1.610 . S
N2373 C2374 1.351 . S
C2374 C2368 1.428 . S
C2374 N2373 1.351 . S
C2374 C2375 1.434 . S
C2375 C2366 1.429 . S
C2375 N2372 1.350 . S
C2375 C2374 1.434 . S
C2376 C2377 1.369 . S
C2376 C2378 1.419 . S
C2376 H2380 0.930 . S
C2377 C2376 1.369 . S
C2377 C2386 1.429 . S
C2378 C2376 1.419 . S
C2378 C2379 1.363 . S
C2378 H2381 0.929 . S
C2379 C2378 1.363 . S
C2379 C2385 1.428 . S
H2380 C2376 0.930 . S
H2381 C2378 0.929 . S
S2382 N2383 1.613 . S
S2382 N2384 1.610 . S
N2383 S2382 1.613 . S
N2383 C2386 1.350 . S
N2384 S2382 1.610 . S
N2384 C2385 1.351 . S
C2385 C2379 1.428 . S
C2385 N2384 1.351 . S
C2385 C2386 1.434 . S
C2386 C2377 1.429 . S
C2386 N2383 1.350 . S
C2386 C2385 1.434 . S
C2387 C2388 1.369 . S
C2387 C2389 1.419 . S
C2387 H2391 0.930 . S
C2388 C2387 1.369 . S
C2388 C2397 1.429 . S
C2389 C2387 1.419 . S
C2389 C2390 1.363 . S
C2389 H2392 0.929 . S
C2390 C2389 1.363 . S
C2390 C2396 1.428 . S
H2391 C2387 0.930 . S
H2392 C2389 0.929 . S
S2393 N2394 1.613 . S
S2393 N2395 1.610 . S
N2394 S2393 1.613 . S
N2394 C2397 1.350 . S
N2395 S2393 1.610 . S
N2395 C2396 1.351 . S
C2396 C2390 1.428 . S
C2396 N2395 1.351 . S
C2396 C2397 1.434 . S
C2397 C2388 1.429 . S
C2397 N2394 1.350 . S
C2397 C2396 1.434 . S
C2398 C2399 1.369 . S
C2398 C2400 1.419 . S
C2398 H2402 0.930 . S
C2399 C2398 1.369 . S
C2399 C2408 1.429 . S
C2400 C2398 1.419 . S
C2400 C2401 1.363 . S
C2400 H2403 0.929 . S
C2401 C2400 1.363 . S
C2401 C2407 1.428 . S
H2402 C2398 0.930 . S
H2403 C2400 0.929 . S
S2404 N2405 1.613 . S
S2404 N2406 1.610 . S
N2405 S2404 1.613 . S
N2405 C2408 1.350 . S
N2406 S2404 1.610 . S
N2406 C2407 1.351 . S
C2407 C2401 1.428 . S
C2407 N2406 1.351 . S
C2407 C2408 1.434 . S
C2408 C2399 1.429 . S
C2408 N2405 1.350 . S
C2408 C2407 1.434 . S
C2409 C2410 1.369 . S
C2409 C2411 1.419 1_554 S
C2409 H2413 0.930 . S
C2410 C2409 1.369 . S
C2410 C2419 1.429 1_554 S
C2411 C2409 1.419 1_556 S
C2411 C2412 1.363 . S
C2411 H2414 0.929 . S
C2412 C2411 1.363 . S
C2412 C2418 1.428 . S
H2413 C2409 0.930 . S
H2414 C2411 0.929 . S
S2415 N2416 1.613 . S
S2415 N2417 1.610 . S
N2416 S2415 1.613 . S
N2416 C2419 1.350 . S
N2417 S2415 1.610 . S
N2417 C2418 1.351 . S
C2418 C2412 1.428 . S
C2418 N2417 1.351 . S
C2418 C2419 1.434 . S
C2419 C2410 1.429 1_556 S
C2419 N2416 1.350 . S
C2419 C2418 1.434 . S
C2420 C2421 1.369 . S
C2420 C2422 1.419 . S
C2420 H2424 0.930 1_556 S
C2421 C2420 1.369 . S
C2421 C2430 1.429 . S
C2422 C2420 1.419 . S
C2422 C2423 1.363 . S
C2422 H2425 0.929 . S
C2423 C2422 1.363 . S
C2423 C2429 1.428 . S
H2424 C2420 0.930 1_554 S
H2425 C2422 0.929 . S
S2426 N2427 1.613 . S
S2426 N2428 1.610 . S
N2427 S2426 1.613 . S
N2427 C2430 1.350 . S
N2428 S2426 1.610 . S
N2428 C2429 1.351 . S
C2429 C2423 1.428 . S
C2429 N2428 1.351 . S
C2429 C2430 1.434 . S
C2430 C2421 1.429 . S
C2430 N2427 1.350 . S
C2430 C2429 1.434 . S
C2431 C2432 1.369 . S
C2431 C2433 1.419 . S
C2431 H2435 0.930 . S
C2432 C2431 1.369 . S
C2432 C2441 1.429 . S
C2433 C2431 1.419 . S
C2433 C2434 1.363 . S
C2433 H2436 0.929 . S
C2434 C2433 1.363 . S
C2434 C2440 1.428 . S
H2435 C2431 0.930 . S
H2436 C2433 0.929 . S
S2437 N2438 1.613 . S
S2437 N2439 1.610 . S
N2438 S2437 1.613 . S
N2438 C2441 1.350 . S
N2439 S2437 1.610 . S
N2439 C2440 1.351 . S
C2440 C2434 1.428 . S
C2440 N2439 1.351 . S
C2440 C2441 1.434 . S
C2441 C2432 1.429 . S
C2441 N2438 1.350 . S
C2441 C2440 1.434 . S
C2442 C2443 1.369 1_556 S
C2442 C2444 1.419 . S
C2442 H2446 0.930 . S
C2443 C2442 1.369 1_554 S
C2443 C2452 1.429 . S
C2444 C2442 1.419 . S
C2444 C2445 1.363 . S
C2444 H2447 0.929 . S
C2445 C2444 1.363 . S
C2445 C2451 1.426 . S
H2446 C2442 0.930 . S
H2447 C2444 0.929 . S
S2448 N2449 1.613 . S
S2448 N2450 1.610 . S
N2449 S2448 1.613 . S
N2449 C2452 1.350 . S
N2450 S2448 1.610 . S
N2450 C2451 1.352 1_554 S
C2451 C2445 1.426 . S
C2451 N2450 1.352 1_556 S
C2451 C2452 1.436 1_556 S
C2452 C2443 1.429 . S
C2452 N2449 1.350 . S
C2452 C2451 1.436 1_554 S
C2453 C2454 1.369 . S
C2453 C2455 1.419 . S
C2453 H2457 0.930 . S
C2454 C2453 1.369 . S
C2454 C2463 1.429 . S
C2455 C2453 1.419 . S
C2455 C2456 1.363 . S
C2455 H2458 0.929 . S
C2456 C2455 1.363 . S
C2456 C2462 1.428 . S
H2457 C2453 0.930 . S
H2458 C2455 0.929 . S
S2459 N2460 1.613 . S
S2459 N2461 1.610 1_554 S
N2460 S2459 1.613 . S
N2460 C2463 1.350 1_554 S
N2461 S2459 1.610 1_556 S
N2461 C2462 1.351 . S
C2462 C2456 1.428 . S
C2462 N2461 1.351 . S
C2462 C2463 1.434 . S
C2463 C2454 1.429 . S
C2463 N2460 1.350 1_556 S
C2463 C2462 1.434 . S
C2464 C2465 1.369 1_556 S
C2464 C2466 1.419 . S
C2464 H2468 0.930 . S
C2465 C2464 1.369 1_554 S
C2465 C2474 1.429 . S
C2466 C2464 1.419 . S
C2466 C2467 1.363 . S
C2466 H2469 0.929 . S
C2467 C2466 1.363 . S
C2467 C2473 1.428 1_556 S
H2468 C2464 0.930 . S
H2469 C2466 0.929 . S
S2470 N2471 1.613 . S
S2470 N2472 1.610 . S
N2471 S2470 1.613 . S
N2471 C2474 1.350 . S
N2472 S2470 1.610 . S
N2472 C2473 1.351 . S
C2473 C2467 1.428 1_554 S
C2473 N2472 1.351 . S
C2473 C2474 1.434 . S
C2474 C2465 1.429 . S
C2474 N2471 1.350 . S
C2474 C2473 1.434 . S
C2475 C2476 1.369 . S
C2475 C2477 1.419 . S
C2475 H2479 0.930 . S
C2476 C2475 1.369 . S
C2476 C2485 1.429 . S
C2477 C2475 1.419 . S
C2477 C2478 1.363 . S
C2477 H2480 0.929 . S
C2478 C2477 1.363 . S
C2478 C2484 1.428 . S
H2479 C2475 0.930 . S
H2480 C2477 0.929 . S
S2481 N2482 1.613 . S
S2481 N2483 1.610 1_545 S
N2482 S2481 1.613 . S
N2482 C2485 1.350 1_545 S
N2483 S2481 1.610 1_565 S
N2483 C2484 1.351 . S
C2484 C2478 1.428 . S
C2484 N2483 1.351 . S
C2484 C2485 1.434 . S
C2485 C2476 1.429 . S
C2485 N2482 1.350 1_565 S
C2485 C2484 1.434 . S
C2486 C2487 1.369 . S
C2486 C2488 1.419 . S
C2486 H2490 0.930 . S
C2487 C2486 1.369 . S
C2487 C2496 1.429 . S
C2488 C2486 1.419 . S
C2488 C2489 1.363 . S
C2488 H2491 0.929 . S
C2489 C2488 1.363 . S
C2489 C2495 1.428 . S
H2490 C2486 0.930 . S
H2491 C2488 0.929 . S
S2492 N2493 1.613 1_655 S
S2492 N2494 1.610 1_655 S
N2493 S2492 1.613 1_455 S
N2493 C2496 1.350 . S
N2494 S2492 1.610 1_455 S
N2494 C2495 1.351 . S
C2495 C2489 1.428 . S
C2495 N2494 1.351 . S
C2495 C2496 1.434 . S
C2496 C2487 1.429 . S
C2496 N2493 1.350 . S
C2496 C2495 1.434 . S
C2497 C2498 1.369 . S
C2497 C2499 1.419 . S
C2497 H2501 0.930 . S
C2498 C2497 1.369 . S
C2498 C2507 1.429 . S
C2499 C2497 1.419 . S
C2499 C2500 1.363 . S
C2499 H2502 0.929 . S
C2500 C2499 1.363 . S
C2500 C2506 1.428 . S
H2501 C2497 0.930 . S
H2502 C2499 0.929 . S
S2503 N2504 1.613 . S
S2503 N2505 1.610 . S
N2504 S2503 1.613 . S
N2504 C2507 1.350 . S
N2505 S2503 1.610 . S
N2505 C2506 1.351 . S
C2506 C2500 1.428 . S
C2506 N2505 1.351 . S
C2506 C2507 1.434 . S
C2507 C2498 1.429 . S
C2507 N2504 1.350 . S
C2507 C2506 1.434 . S
C2508 C2509 1.369 . S
C2508 C2510 1.419 . S
C2508 H2512 0.930 . S
C2509 C2508 1.369 . S
C2509 C2518 1.429 . S
C2510 C2508 1.419 . S
C2510 C2511 1.363 . S
C2510 H2513 0.929 . S
C2511 C2510 1.363 . S
C2511 C2517 1.428 . S
H2512 C2508 0.930 . S
H2513 C2510 0.929 . S
S2514 N2515 1.613 . S
S2514 N2516 1.610 . S
N2515 S2514 1.613 . S
N2515 C2518 1.350 . S
N2516 S2514 1.610 . S
N2516 C2517 1.351 . S
C2517 C2511 1.428 . S
C2517 N2516 1.351 . S
C2517 C2518 1.434 . S
C2518 C2509 1.429 . S
C2518 N2515 1.350 . S
C2518 C2517 1.434 . S
C2519 C2520 1.369 . S
C2519 C2521 1.419 . S
C2519 H2523 0.930 . S
C2520 C2519 1.369 . S
C2520 C2529 1.429 . S
C2521 C2519 1.419 . S
C2521 C2522 1.363 . S
C2521 H2524 0.929 . S
C2522 C2521 1.363 . S
C2522 C2528 1.428 . S
H2523 C2519 0.930 . S
H2524 C2521 0.929 . S
S2525 N2526 1.613 . S
S2525 N2527 1.610 . S
N2526 S2525 1.613 . S
N2526 C2529 1.350 . S
N2527 S2525 1.610 . S
N2527 C2528 1.351 . S
C2528 C2522 1.428 . S
C2528 N2527 1.351 . S
C2528 C2529 1.434 . S
C2529 C2520 1.429 . S
C2529 N2526 1.350 . S
C2529 C2528 1.434 . S
C2530 C2531 1.369 . S
C2530 C2532 1.419 . S
C2530 H2534 0.930 . S
C2531 C2530 1.369 . S
C2531 C2540 1.429 . S
C2532 C2530 1.419 . S
C2532 C2533 1.363 . S
C2532 H2535 0.929 . S
C2533 C2532 1.363 . S
C2533 C2539 1.428 . S
H2534 C2530 0.930 . S
H2535 C2532 0.929 . S
S2536 N2537 1.613 . S
S2536 N2538 1.610 . S
N2537 S2536 1.613 . S
N2537 C2540 1.350 . S
N2538 S2536 1.610 . S
N2538 C2539 1.351 . S
C2539 C2533 1.428 . S
C2539 N2538 1.351 . S
C2539 C2540 1.434 . S
C2540 C2531 1.429 . S
C2540 N2537 1.350 . S
C2540 C2539 1.434 . S
C2541 C2542 1.369 . S
C2541 C2543 1.419 . S
C2541 H2545 0.930 . S
C2542 C2541 1.369 . S
C2542 C2551 1.429 . S
C2543 C2541 1.419 . S
C2543 C2544 1.363 . S
C2543 H2546 0.929 . S
C2544 C2543 1.363 . S
C2544 C2550 1.428 . S
H2545 C2541 0.930 . S
H2546 C2543 0.929 . S
S2547 N2548 1.613 . S
S2547 N2549 1.610 . S
N2548 S2547 1.613 . S
N2548 C2551 1.350 1_655 S
N2549 S2547 1.610 . S
N2549 C2550 1.351 1_655 S
C2550 C2544 1.428 . S
C2550 N2549 1.351 1_455 S
C2550 C2551 1.434 . S
C2551 C2542 1.429 . S
C2551 N2548 1.350 1_455 S
C2551 C2550 1.434 . S
C2552 C2553 1.369 . S
C2552 C2554 1.419 . S
C2552 H2556 0.930 . S
C2553 C2552 1.369 . S
C2553 C2562 1.429 . S
C2554 C2552 1.419 . S
C2554 C2555 1.363 . S
C2554 H2557 0.929 . S
C2555 C2554 1.363 . S
C2555 C2561 1.428 . S
H2556 C2552 0.930 . S
H2557 C2554 0.929 . S
S2558 N2559 1.613 . S
S2558 N2560 1.610 . S
N2559 S2558 1.613 . S
N2559 C2562 1.350 . S
N2560 S2558 1.610 . S
N2560 C2561 1.351 . S
C2561 C2555 1.428 . S
C2561 N2560 1.351 . S
C2561 C2562 1.434 . S
C2562 C2553 1.429 . S
C2562 N2559 1.350 . S
C2562 C2561 1.434 . S
C2563 C2564 1.369 . S
C2563 C2565 1.419 . S
C2563 H2567 0.930 . S
C2564 C2563 1.369 . S
C2564 C2573 1.429 . S
C2565 C2563 1.419 . S
C2565 C2566 1.363 . S
C2565 H2568 0.929 . S
C2566 C2565 1.363 . S
C2566 C2572 1.428 . S
H2567 C2563 0.930 . S
H2568 C2565 0.929 . S
S2569 N2570 1.613 . S
S2569 N2571 1.610 . S
N2570 S2569 1.613 . S
N2570 C2573 1.350 . S
N2571 S2569 1.610 . S
N2571 C2572 1.351 . S
C2572 C2566 1.428 . S
C2572 N2571 1.351 . S
C2572 C2573 1.434 . S
C2573 C2564 1.429 . S
C2573 N2570 1.350 . S
C2573 C2572 1.434 . S
C2574 C2575 1.369 . S
C2574 C2576 1.419 1_565 S
C2574 H2578 0.930 . S
C2575 C2574 1.369 . S
C2575 C2584 1.429 . S
C2576 C2574 1.419 1_545 S
C2576 C2577 1.363 1_545 S
C2576 H2579 0.929 . S
C2577 C2576 1.363 1_565 S
C2577 C2583 1.428 . S
H2578 C2574 0.930 . S
H2579 C2576 0.929 . S
S2580 N2581 1.613 . S
S2580 N2582 1.610 . S
N2581 S2580 1.613 . S
N2581 C2584 1.350 . S
N2582 S2580 1.610 . S
N2582 C2583 1.351 . S
C2583 C2577 1.428 . S
C2583 N2582 1.351 . S
C2583 C2584 1.434 . S
C2584 C2575 1.429 . S
C2584 N2581 1.350 . S
C2584 C2583 1.434 . S
C2585 C2586 1.369 . S
C2585 C2587 1.419 . S
C2585 H2589 0.930 . S
C2586 C2585 1.369 . S
C2586 C2595 1.429 . S
C2587 C2585 1.419 . S
C2587 C2588 1.363 . S
C2587 H2590 0.929 . S
C2588 C2587 1.363 . S
C2588 C2594 1.428 1_455 S
H2589 C2585 0.930 . S
H2590 C2587 0.929 . S
S2591 N2592 1.613 . S
S2591 N2593 1.610 . S
N2592 S2591 1.613 . S
N2592 C2595 1.350 1_655 S
N2593 S2591 1.610 . S
N2593 C2594 1.351 . S
C2594 C2588 1.428 1_655 S
C2594 N2593 1.351 . S
C2594 C2595 1.434 1_655 S
C2595 C2586 1.429 . S
C2595 N2592 1.350 1_455 S
C2595 C2594 1.434 1_455 S
C2596 C2597 1.369 . S
C2596 C2598 1.419 . S
C2596 H2600 0.930 . S
C2597 C2596 1.369 . S
C2597 C2606 1.429 . S
C2598 C2596 1.419 . S
C2598 C2599 1.363 . S
C2598 H2601 0.929 . S
C2599 C2598 1.363 . S
C2599 C2605 1.428 . S
H2600 C2596 0.930 . S
H2601 C2598 0.929 . S
S2602 N2603 1.613 . S
S2602 N2604 1.610 . S
N2603 S2602 1.613 . S
N2603 C2606 1.350 . S
N2604 S2602 1.610 . S
N2604 C2605 1.351 . S
C2605 C2599 1.428 . S
C2605 N2604 1.351 . S
C2605 C2606 1.434 . S
C2606 C2597 1.429 . S
C2606 N2603 1.350 . S
C2606 C2605 1.434 . S
C2607 C2608 1.369 . S
C2607 C2609 1.419 . S
C2607 H2611 0.930 . S
C2608 C2607 1.369 . S
C2608 C2617 1.429 . S
C2609 C2607 1.419 . S
C2609 C2610 1.363 . S
C2609 H2612 0.929 . S
C2610 C2609 1.363 . S
C2610 C2616 1.428 . S
H2611 C2607 0.930 . S
H2612 C2609 0.929 . S
S2613 N2614 1.613 . S
S2613 N2615 1.610 . S
N2614 S2613 1.613 . S
N2614 C2617 1.350 . S
N2615 S2613 1.610 . S
N2615 C2616 1.351 . S
C2616 C2610 1.428 . S
C2616 N2615 1.351 . S
C2616 C2617 1.434 . S
C2617 C2608 1.429 . S
C2617 N2614 1.350 . S
C2617 C2616 1.434 . S
C2618 C2619 1.369 . S
C2618 C2620 1.419 . S
C2618 H2622 0.930 . S
C2619 C2618 1.369 . S
C2619 C2628 1.429 . S
C2620 C2618 1.419 . S
C2620 C2621 1.363 . S
C2620 H2623 0.929 . S
C2621 C2620 1.363 . S
C2621 C2627 1.428 . S
H2622 C2618 0.930 . S
H2623 C2620 0.929 . S
S2624 N2625 1.613 . S
S2624 N2626 1.610 . S
N2625 S2624 1.613 . S
N2625 C2628 1.350 . S
N2626 S2624 1.610 . S
N2626 C2627 1.351 . S
C2627 C2621 1.428 . S
C2627 N2626 1.351 . S
C2627 C2628 1.434 . S
C2628 C2619 1.429 . S
C2628 N2625 1.350 . S
C2628 C2627 1.434 . S
C2629 C2630 1.369 . S
C2629 C2631 1.419 . S
C2629 H2633 0.930 . S
C2630 C2629 1.369 . S
C2630 C2639 1.429 . S
C2631 C2629 1.419 . S
C2631 C2632 1.363 . S
C2631 H2634 0.929 . S
C2632 C2631 1.363 . S
C2632 C2638 1.428 . S
H2633 C2629 0.930 . S
H2634 C2631 0.929 . S
S2635 N2636 1.613 . S
S2635 N2637 1.610 . S
N2636 S2635 1.613 . S
N2636 C2639 1.350 . S
N2637 S2635 1.610 . S
N2637 C2638 1.351 . S
C2638 C2632 1.428 . S
C2638 N2637 1.351 . S
C2638 C2639 1.434 . S
C2639 C2630 1.429 . S
C2639 N2636 1.350 . S
C2639 C2638 1.434 . S
C2640 C2641 1.369 . S
C2640 C2642 1.419 . S
C2640 H2644 0.930 . S
C2641 C2640 1.369 . S
C2641 C2650 1.429 . S
C2642 C2640 1.419 . S
C2642 C2643 1.363 . S
C2642 H2645 0.929 . S
C2643 C2642 1.363 . S
C2643 C2649 1.414 1_545 S
H2644 C2640 0.930 . S
H2645 C2642 0.929 . S
S2646 N2647 1.613 . S
S2646 N2648 1.610 . S
N2647 S2646 1.613 . S
N2647 C2650 1.350 1_565 S
N2648 S2646 1.610 . S
N2648 C2649 1.384 . S
C2649 C2643 1.414 1_565 S
C2649 N2648 1.384 . S
C2649 C2650 1.416 1_565 S
C2650 C2641 1.429 . S
C2650 N2647 1.350 1_545 S
C2650 C2649 1.416 1_545 S
C2651 C2652 1.369 . S
C2651 C2653 1.419 . S
C2651 H2655 0.930 . S
C2652 C2651 1.369 . S
C2652 C2661 1.429 . S
C2653 C2651 1.419 . S
C2653 C2654 1.363 . S
C2653 H2656 0.929 . S
C2654 C2653 1.363 . S
C2654 C2660 1.404 1_655 S
H2655 C2651 0.930 . S
H2656 C2653 0.929 . S
S2657 N2658 1.613 . S
S2657 N2659 1.610 . S
N2658 S2657 1.613 . S
N2658 C2661 1.350 1_455 S
N2659 S2657 1.610 . S
N2659 C2660 1.370 . S
C2660 C2654 1.404 1_455 S
C2660 N2659 1.370 . S
C2660 C2661 1.441 1_455 S
C2661 C2652 1.429 . S
C2661 N2658 1.350 1_655 S
C2661 C2660 1.441 1_655 S
C2662 C2663 1.369 . S
C2662 C2664 1.419 . S
C2662 H2666 0.930 . S
C2663 C2662 1.369 . S
C2663 C2672 1.429 . S
C2664 C2662 1.419 . S
C2664 C2665 1.363 . S
C2664 H2667 0.929 . S
C2665 C2664 1.363 . S
C2665 C2671 1.428 . S
H2666 C2662 0.930 . S
H2667 C2664 0.929 . S
S2668 N2669 1.613 . S
S2668 N2670 1.610 . S
N2669 S2668 1.613 . S
N2669 C2672 1.350 . S
N2670 S2668 1.610 . S
N2670 C2671 1.351 . S
C2671 C2665 1.428 . S
C2671 N2670 1.351 . S
C2671 C2672 1.434 . S
C2672 C2663 1.429 . S
C2672 N2669 1.350 . S
C2672 C2671 1.434 . S
C2673 C2674 1.369 . S
C2673 C2675 1.419 . S
C2673 H2677 0.930 . S
C2674 C2673 1.369 . S
C2674 C2683 1.429 . S
C2675 C2673 1.419 . S
C2675 C2676 1.363 . S
C2675 H2678 0.929 . S
C2676 C2675 1.363 . S
C2676 C2682 1.428 . S
H2677 C2673 0.930 . S
H2678 C2675 0.929 . S
S2679 N2680 1.613 . S
S2679 N2681 1.610 . S
N2680 S2679 1.613 . S
N2680 C2683 1.350 . S
N2681 S2679 1.610 . S
N2681 C2682 1.351 . S
C2682 C2676 1.428 . S
C2682 N2681 1.351 . S
C2682 C2683 1.434 . S
C2683 C2674 1.429 . S
C2683 N2680 1.350 . S
C2683 C2682 1.434 . S
C2684 C2685 1.369 . S
C2684 C2686 1.419 . S
C2684 H2688 0.930 . S
C2685 C2684 1.369 . S
C2685 C2694 1.429 . S
C2686 C2684 1.419 . S
C2686 C2687 1.363 . S
C2686 H2689 0.929 . S
C2687 C2686 1.363 . S
C2687 C2693 1.428 . S
H2688 C2684 0.930 . S
H2689 C2686 0.929 . S
S2690 N2691 1.613 . S
S2690 N2692 1.610 . S
N2691 S2690 1.613 . S
N2691 C2694 1.350 . S
N2692 S2690 1.610 . S
N2692 C2693 1.351 . S
C2693 C2687 1.428 . S
C2693 N2692 1.351 . S
C2693 C2694 1.434 . S
C2694 C2685 1.429 . S
C2694 N2691 1.350 . S
C2694 C2693 1.434 . S
C2695 C2696 1.369 . S
C2695 C2697 1.419 . S
C2695 H2699 0.930 . S
C2696 C2695 1.369 . S
C2696 C2705 1.429 . S
C2697 C2695 1.419 . S
C2697 C2698 1.363 . S
C2697 H2700 0.929 . S
C2698 C2697 1.363 . S
C2698 C2704 1.428 . S
H2699 C2695 0.930 . S
H2700 C2697 0.929 . S
S2701 N2702 1.613 . S
S2701 N2703 1.610 . S
N2702 S2701 1.613 . S
N2702 C2705 1.350 . S
N2703 S2701 1.610 . S
N2703 C2704 1.351 . S
C2704 C2698 1.428 . S
C2704 N2703 1.351 . S
C2704 C2705 1.434 . S
C2705 C2696 1.429 . S
C2705 N2702 1.350 . S
C2705 C2704 1.434 . S
C2706 C2707 1.369 . S
C2706 C2708 1.419 . S
C2706 H2710 0.930 . S
C2707 C2706 1.369 . S
C2707 C2716 1.429 . S
C2708 C2706 1.419 . S
C2708 C2709 1.363 . S
C2708 H2711 0.929 . S
C2709 C2708 1.363 . S
C2709 C2715 1.428 . S
H2710 C2706 0.930 . S
H2711 C2708 0.929 . S
S2712 N2713 1.613 . S
S2712 N2714 1.610 . S
N2713 S2712 1.613 . S
N2713 C2716 1.350 . S
N2714 S2712 1.610 . S
N2714 C2715 1.351 . S
C2715 C2709 1.428 . S
C2715 N2714 1.351 . S
C2715 C2716 1.434 . S
C2716 C2707 1.429 . S
C2716 N2713 1.350 . S
C2716 C2715 1.434 . S
C2717 C2718 1.369 . S
C2717 C2719 1.419 . S
C2717 H2721 0.930 . S
C2718 C2717 1.369 . S
C2718 C2727 1.429 . S
C2719 C2717 1.419 . S
C2719 C2720 1.363 . S
C2719 H2722 0.929 . S
C2720 C2719 1.363 . S
C2720 C2726 1.428 . S
H2721 C2717 0.930 . S
H2722 C2719 0.929 . S
S2723 N2724 1.613 . S
S2723 N2725 1.610 . S
N2724 S2723 1.613 . S
N2724 C2727 1.350 . S
N2725 S2723 1.610 . S
N2725 C2726 1.351 . S
C2726 C2720 1.428 . S
C2726 N2725 1.351 . S
C2726 C2727 1.434 . S
C2727 C2718 1.429 . S
C2727 N2724 1.350 . S
C2727 C2726 1.434 . S
C2728 C2729 1.369 . S
C2728 C2730 1.419 . S
C2728 H2732 0.930 . S
C2729 C2728 1.369 . S
C2729 C2738 1.429 . S
C2730 C2728 1.419 . S
C2730 C2731 1.363 . S
C2730 H2733 0.929 . S
C2731 C2730 1.363 . S
C2731 C2737 1.428 . S
H2732 C2728 0.930 . S
H2733 C2730 0.929 . S
S2734 N2735 1.613 . S
S2734 N2736 1.610 . S
N2735 S2734 1.613 . S
N2735 C2738 1.350 . S
N2736 S2734 1.610 . S
N2736 C2737 1.351 . S
C2737 C2731 1.428 . S
C2737 N2736 1.351 . S
C2737 C2738 1.434 . S
C2738 C2729 1.429 . S
C2738 N2735 1.350 . S
C2738 C2737 1.434 . S
C2739 C2740 1.369 . S
C2739 C2741 1.419 . S
C2739 H2743 0.930 . S
C2740 C2739 1.369 . S
C2740 C2749 1.429 . S
C2741 C2739 1.419 . S
C2741 C2742 1.363 . S
C2741 H2744 0.929 . S
C2742 C2741 1.363 . S
C2742 C2748 1.428 . S
H2743 C2739 0.930 . S
H2744 C2741 0.929 . S
S2745 N2746 1.613 . S
S2745 N2747 1.610 . S
N2746 S2745 1.613 . S
N2746 C2749 1.350 . S
N2747 S2745 1.610 . S
N2747 C2748 1.351 . S
C2748 C2742 1.428 . S
C2748 N2747 1.351 . S
C2748 C2749 1.434 . S
C2749 C2740 1.429 . S
C2749 N2746 1.350 . S
C2749 C2748 1.434 . S
C2750 C2751 1.369 . S
C2750 C2752 1.419 . S
C2750 H2754 0.930 . S
C2751 C2750 1.369 . S
C2751 C2760 1.429 . S
C2752 C2750 1.419 . S
C2752 C2753 1.363 . S
C2752 H2755 0.929 . S
C2753 C2752 1.363 . S
C2753 C2759 1.428 . S
H2754 C2750 0.930 . S
H2755 C2752 0.929 . S
S2756 N2757 1.613 . S
S2756 N2758 1.610 . S
N2757 S2756 1.613 . S
N2757 C2760 1.350 . S
N2758 S2756 1.610 . S
N2758 C2759 1.351 . S
C2759 C2753 1.428 . S
C2759 N2758 1.351 . S
C2759 C2760 1.434 . S
C2760 C2751 1.429 . S
C2760 N2757 1.350 . S
C2760 C2759 1.434 . S
C2761 C2762 1.369 . S
C2761 C2763 1.419 . S
C2761 H2765 0.930 . S
C2762 C2761 1.369 . S
C2762 C2771 1.429 . S
C2763 C2761 1.419 . S
C2763 C2764 1.363 . S
C2763 H2766 0.929 . S
C2764 C2763 1.363 . S
C2764 C2770 1.428 . S
H2765 C2761 0.930 . S
H2766 C2763 0.929 . S
S2767 N2768 1.613 . S
S2767 N2769 1.610 . S
N2768 S2767 1.613 . S
N2768 C2771 1.350 . S
N2769 S2767 1.610 . S
N2769 C2770 1.351 . S
C2770 C2764 1.428 . S
C2770 N2769 1.351 . S
C2770 C2771 1.434 . S
C2771 C2762 1.429 . S
C2771 N2768 1.350 . S
C2771 C2770 1.434 . S
C1981 C4 1.316 1_655 S
C1983 C1377 1.250 . S
C1992 C38 1.804 . S
C1994 C1457 1.710 . S
C2005 C1525 1.348 . S
C2003 C74 1.390 . S
C2014 C76 1.655 . S
C2016 C1605 1.642 . S
C2025 C2 1.573 . S
C2027 C1679 1.581 . S
C2036 C40 1.663 1_556 S
C2038 C1747 1.549 . S
C2047 C110 1.281 1_556 S
C2049 C1673 1.256 . S
C2060 C1753 1.446 . S
C2058 C148 1.451 . S
C2071 C1599 1.377 . S
C2069 C182 1.378 1_566 S
C2080 C184 1.655 . S
C2082 C1531 1.711 1_545 S
C2093 C1383 1.444 . S
C2091 C112 1.431 . S
C2102 C146 1.527 . S
C2104 C1451 1.498 . S
C2113 C220 1.647 . S
C2115 C1821 1.472 . S
C2124 C254 1.867 . S
C2126 C1901 1.754 . S
C2137 C1969 1.600 . S
C2135 C290 1.760 . S
C2146 C292 1.862 . S
C2148 C717 1.766 . S
C2157 C218 1.848 . S
C2159 C791 1.754 . S
C2168 C256 1.720 . S
C2170 C859 1.572 . S
C2179 C326 1.387 . S
C2181 C785 1.324 . S
C2190 C364 1.519 . S
C2192 C865 1.505 . S
C2203 C711 1.503 . S
C2201 C398 1.528 . S
C2214 C1975 1.802 . S
C2212 C400 1.807 . S
C2225 C1827 1.486 . S
C2223 C328 1.500 . S
C2236 C1895 1.538 . S
C2234 C362 1.574 . S
C2245 C436 1.575 . S
C2247 C933 1.396 . S
C2256 C470 1.870 . S
C2258 C1013 1.759 . S
C2267 C506 1.761 . S
C2269 C1081 1.605 . S
C2278 C508 1.937 . S
C2280 C1161 1.838 . S
C2291 C1235 1.746 . S
C2289 C434 1.845 . S
C2302 C1303 1.600 . S
C2300 C472 1.755 . S
C2313 C1229 1.413 . S
C2311 C542 1.489 . S
C2324 C1309 1.495 . S
C2322 C580 1.511 . S
C2333 C614 1.486 . S
C2335 C1155 1.455 . S
C2346 C1087 1.719 . S
C2344 C616 1.721 . S
C2355 C544 1.522 . S
C2357 C939 1.511 . S
C2368 C1007 1.512 . S
C2366 C578 1.538 . S
C2379 C687 1.982 . S
C2377 C14 2.020 . S
C2388 C39 1.533 . S
C2390 C761 1.513 . S
C2401 C847 1.532 . S
C2399 C75 1.553 . S
C2412 C921 1.309 . S
C2410 C86 1.376 . S
C2423 C983 1.620 . S
C2421 C3 1.652 1_556 S
C2434 C1069 1.621 1_554 S
C2432 C50 1.629 . S
C2443 C111 2.136 . S
C2445 C1057 2.006 . S
C2454 C158 1.806 . S
C2456 C909 1.634 . S
C2465 C183 1.933 . S
C2467 C995 1.866 . S
C2476 C194 1.822 . S
C2478 C773 1.646 . S
C2489 C835 1.760 . S
C2487 C122 1.928 . S
C2498 C147 1.802 . S
C2500 C699 1.726 . S
C2511 C1131 1.921 . S
C2509 C230 1.951 . S
C2520 C255 1.636 . S
C2522 C1205 1.613 . S
C2531 C291 1.546 1_655 S
C2533 C1291 1.557 . S
C2544 C1365 1.183 . S
C2542 C302 1.205 . S
C2553 C219 1.575 . S
C2555 C1427 1.550 . S
C2564 C266 1.436 . S
C2566 C1513 1.500 . S
C2575 C327 1.776 . S
C2577 C1501 1.696 1_565 S
C2586 C374 1.465 . S
C2588 C1353 1.407 1_455 S
C2599 C1439 1.786 . S
C2597 C399 1.864 . S
C2608 C410 1.819 . S
C2610 C1217 1.627 . S
C2619 C338 1.906 . S
C2621 C1279 1.760 . S
C2632 C1143 1.789 . S
C2630 C363 1.860 . S
C2643 C1575 1.780 . S
C2641 C446 1.759 . S
C2652 C471 1.353 . S
C2654 C1649 1.339 . S
C2663 C507 1.491 . S
C2665 C1735 1.476 . S
C2676 C1809 1.329 . S
C2674 C518 1.401 . S
C2687 C1871 1.644 . S
C2685 C435 1.667 . S
C2696 C482 1.683 1_455 S
C2698 C1957 1.685 . S
C2707 C543 2.083 . S
C2709 C1945 1.941 . S
C2718 C590 1.880 1_565 S
C2720 C1797 1.729 . S
C2731 C1883 1.849 . S
C2729 C615 1.934 1_455 S
C2742 C1661 1.317 . S
C2740 C626 1.383 . S
C2753 C1723 1.697 . S
C2751 C554 1.836 . S
C2762 C579 1.531 . S
C2764 C1587 1.500 . S
