# Generated by pormake.
# Topology anh, (6,3)-cn, num edge types: 1
# Building blocks:
#     Node 0, Type 0, BuildingBlock: BETFAJ_clean_sbu_0, # of connection points: 6
#     Node 1, Type 0, BuildingBlock: BETFAJ_clean_sbu_0, # of connection points: 6
#     Node 2, Type 0, BuildingBlock: BETFAJ_clean_sbu_0, # of connection points: 6
#     Node 3, Type 1, BuildingBlock: QEWDON_clean_linker_0, # of connection points: 3
#     Node 4, Type 1, BuildingBlock: QEWDON_clean_linker_0, # of connection points: 3
#     Node 5, Type 1, BuildingBlock: QEWDON_clean_linker_0, # of connection points: 3
#     Node 6, Type 1, BuildingBlock: QEWDON_clean_linker_0, # of connection points: 3
#     Node 7, Type 1, BuildingBlock: QEWDON_clean_linker_0, # of connection points: 3
#     Node 8, Type 1, BuildingBlock: QEWDON_clean_linker_0, # of connection points: 3
#     Edge 9, Type (0, 1), BuildingBlock: XIVTED_clean_linker_0, # of connection points: 2
#     Edge 10, Type (0, 1), BuildingBlock: XIVTED_clean_linker_0, # of connection points: 2
#     Edge 11, Type (0, 1), BuildingBlock: XIVTED_clean_linker_0, # of connection points: 2
#     Edge 12, Type (0, 1), BuildingBlock: XIVTED_clean_linker_0, # of connection points: 2
#     Edge 13, Type (0, 1), BuildingBlock: XIVTED_clean_linker_0, # of connection points: 2
#     Edge 14, Type (0, 1), BuildingBlock: XIVTED_clean_linker_0, # of connection points: 2
#     Edge 15, Type (0, 1), BuildingBlock: XIVTED_clean_linker_0, # of connection points: 2
#     Edge 16, Type (0, 1), BuildingBlock: XIVTED_clean_linker_0, # of connection points: 2
#     Edge 17, Type (0, 1), BuildingBlock: XIVTED_clean_linker_0, # of connection points: 2
#     Edge 18, Type (0, 1), BuildingBlock: XIVTED_clean_linker_0, # of connection points: 2
#     Edge 19, Type (0, 1), BuildingBlock: XIVTED_clean_linker_0, # of connection points: 2
#     Edge 20, Type (0, 1), BuildingBlock: XIVTED_clean_linker_0, # of connection points: 2
#     Edge 21, Type (0, 1), BuildingBlock: XIVTED_clean_linker_0, # of connection points: 2
#     Edge 22, Type (0, 1), BuildingBlock: XIVTED_clean_linker_0, # of connection points: 2
#     Edge 23, Type (0, 1), BuildingBlock: XIVTED_clean_linker_0, # of connection points: 2
#     Edge 24, Type (0, 1), BuildingBlock: XIVTED_clean_linker_0, # of connection points: 2
#     Edge 25, Type (0, 1), BuildingBlock: XIVTED_clean_linker_0, # of connection points: 2
#     Edge 26, Type (0, 1), BuildingBlock: XIVTED_clean_linker_0, # of connection points: 2
# Relax obj value: 0.137
# Max RMSD: 0.175
# Mean RMSD: 0.127
data_MOF--net-anh--node1-BETFAJ_clean_sbu_0--node2-QEWDON_clean_linker_0--edge1-XIVTED_clean_linker_0
_symmetry_space_group_name_H-M    P1
_symmetry_Int_Tables_number       1
_symmetry_cell_setting            triclinic
loop_
_symmetry_equiv_pos_as_xyz
'x, y, z'
_cell_length_a     32.658484
_cell_length_b     40.030671
_cell_length_c     48.563538
_cell_angle_alpha  95.887942
_cell_angle_beta   91.186693
_cell_angle_gamma 129.9592
loop_
_atom_site_label
_atom_site_type_symbol
_atom_site_fract_x
_atom_site_fract_y
_atom_site_fract_z
_atom_type_partial_charge
Sm0 Sm 0.14411 0.53547 0.14241 0.0
Sm1 Sm 1.07186 0.55602 0.15757 0.0
C2 C 0.21688 0.53316 0.12201 0.0
C3 C 0.27413 0.56765 0.11926 0.0
C4 C 0.29985 0.55908 0.10091 0.0
C5 C 0.35547 0.59069 0.10045 0.0
C6 C 0.38605 0.63147 0.11824 0.0
C7 C 0.35933 0.64064 0.13544 0.0
C8 C 0.30407 0.60882 0.13616 0.0
C9 C 0.12805 0.53717 0.19766 0.0
C10 C 0.19717 0.64036 0.15398 0.0
C11 C 1.01284 0.57046 0.1826 0.0
C12 C 0.95458 0.5405 0.18425 0.0
C13 C 0.93498 0.53644 0.21021 0.0
C14 C 0.87988 0.50495 0.2123 0.0
C15 C 0.84343 0.47705 0.1884 0.0
C16 C 0.86364 0.48102 0.16249 0.0
C17 C 0.91853 0.51211 0.16048 0.0
C18 C 1.0629 0.52948 0.10144 0.0
C19 C 1.02057 0.45366 0.14668 0.0
O20 O 0.1832 0.53241 0.10631 0.0
O21 O 0.20509 0.52792 0.1476 0.0
O22 O 0.13692 0.56415 0.18229 0.0
O23 O 0.12807 0.50747 0.18411 0.0
O24 O 0.20516 0.61185 0.14938 0.0
O25 O 0.14904 0.62748 0.15717 0.0
O26 O 1.03792 0.56 0.19547 0.0
O27 O 1.02896 0.58212 0.15817 0.0
O28 O 0.10579 0.55535 0.11771 0.0
O29 O 1.02204 0.51753 0.11449 0.0
O30 O 1.02151 0.48294 0.16266 0.0
O31 O 1.06046 0.46636 0.13171 0.0
H32 H 0.27732 0.52739 0.08775 0.0
H33 H 0.37474 0.58214 0.08725 0.0
H34 H 0.38138 0.67178 0.14916 0.0
H35 H 0.28507 0.6157 0.15079 0.0
H36 H 0.96239 0.55731 0.22891 0.0
H37 H 0.86585 0.50266 0.23259 0.0
H38 H 0.83699 0.46106 0.14346 0.0
H39 H 0.93267 0.5138 0.14027 0.0
Sm40 Sm 0.68221 0.07053 0.48134 0.0
Sm41 Sm 0.60993 0.09059 0.46813 0.0
C42 C 0.72723 0.04024 0.50104 0.0
C43 C 0.70923 0.99683 0.50515 0.0
C44 C 0.65928 0.96522 0.51461 0.0
C45 C 0.64179 0.92347 0.51713 0.0
C46 C 0.67372 0.91236 0.51005 0.0
C47 C 0.72398 0.94437 0.50084 0.0
C48 C 0.74153 0.98618 0.49847 0.0
C49 C 0.66839 0.07467 0.42609 0.0
C50 C 0.55089 0.98896 0.46745 0.0
C51 C 0.56398 0.12058 0.4493 0.0
C52 C 0.5739 0.16211 0.45499 0.0
C53 C 0.55201 0.17233 0.43595 0.0
C54 C 0.56027 0.21135 0.44158 0.0
C55 C 0.59043 0.24075 0.46646 0.0
C56 C 0.61309 0.23056 0.48524 0.0
C57 C 0.60507 0.19169 0.47949 0.0
C58 C 0.62182 0.08535 0.52324 0.0
C59 C 0.74242 0.17238 0.47998 0.0
O60 O 0.70938 0.0559 0.51688 0.0
O61 O 0.72731 0.04663 0.47518 0.0
O62 O 0.63198 0.05618 0.44198 0.0
O63 O 0.71425 0.09052 0.43878 0.0
O64 O 0.59586 1.00372 0.48185 0.0
O65 O 0.54884 0.01583 0.45514 0.0
O66 O 0.60035 0.12251 0.43675 0.0
O67 O 0.54765 0.09721 0.46968 0.0
O68 O 0.65938 0.10454 0.50796 0.0
O69 O 0.57683 0.07033 0.51004 0.0
O70 O 0.69548 0.15795 0.46863 0.0
O71 O 0.74735 0.14571 0.49023 0.0
H72 H 0.6335 0.97261 0.51983 0.0
H73 H 0.60322 0.89992 0.52464 0.0
H74 H 0.74926 0.93682 0.49476 0.0
H75 H 0.78003 0.01003 0.49095 0.0
H76 H 0.52827 0.15 0.4168 0.0
H77 H 0.54302 0.21846 0.42642 0.0
H78 H 0.63593 0.25203 0.50474 0.0
H79 H 0.62258 0.1844 0.49437 0.0
Sm80 Sm 0.66013 0.59245 0.82686 0.0
Sm81 Sm 0.58182 0.49596 0.83051 0.0
C82 C 0.71082 0.67172 0.81266 0.0
C83 C 0.70101 0.70265 0.81172 0.0
C84 C 0.73259 0.73801 0.79676 0.0
C85 C 0.7235 0.76758 0.79559 0.0
C86 C 0.68265 0.76227 0.80945 0.0
C87 C 0.65091 0.72652 0.82434 0.0
C88 C 0.65997 0.69694 0.82543 0.0
C89 C 0.65003 0.57252 0.87987 0.0
C90 C 0.5292 0.54307 0.83197 0.0
C91 C 0.5344 0.41633 0.84272 0.0
C92 C 0.54653 0.38676 0.83783 0.0
C93 C 0.52563 0.3527 0.85369 0.0
C94 C 0.53736 0.32468 0.84906 0.0
C95 C 0.57016 0.33022 0.82841 0.0
C96 C 0.59156 0.36494 0.81284 0.0
C97 C 0.58003 0.39301 0.81759 0.0
C98 C 0.59056 0.51523 0.77732 0.0
C99 C 0.71354 0.54607 0.82876 0.0
O100 O 0.6798 0.63524 0.79484 0.0
O101 O 0.71859 0.66536 0.83744 0.0
O102 O 0.61196 0.55492 0.86098 0.0
O103 O 0.69607 0.60331 0.8716 0.0
O104 O 0.57627 0.57668 0.82429 0.0
O105 O 0.5227 0.50884 0.83898 0.0
O106 O 0.56913 0.45239 0.86044 0.0
O107 O 0.51908 0.42323 0.82046 0.0
O108 O 0.62953 0.5333 0.79586 0.0
O109 O 0.54523 0.48452 0.78613 0.0
O110 O 0.6652 0.51177 0.83456 0.0
O111 O 0.72144 0.58098 0.82204 0.0
H112 H 0.7644 0.74282 0.78602 0.0
H113 H 0.74894 0.79496 0.78417 0.0
H114 H 0.6186 0.72108 0.83489 0.0
H115 H 0.63493 0.66961 0.83694 0.0
H116 H 0.50025 0.34776 0.86963 0.0
H117 H 0.52095 0.29883 0.86178 0.0
H118 H 0.61634 0.36996 0.79654 0.0
H119 H 0.59694 0.41944 0.80528 0.0
H120 H 0.62828 0.09077 0.20886 0.0
C121 C 0.59818 0.05575 0.20145 0.0
C122 C 0.57497 0.02634 0.22102 0.0
C123 C 0.58063 0.04019 0.17271 0.0
H124 H 0.5166 0.95836 0.2269 0.0
C125 C 0.53457 0.98106 0.21181 0.0
C126 C 0.5164 0.96464 0.18348 0.0
C127 C 0.53958 0.99421 0.16402 0.0
C128 C 0.60328 0.07174 0.1519 0.0
H129 H 0.52594 0.98102 0.14212 0.0
C130 C 0.65723 0.112 0.15581 0.0
C131 C 0.67759 0.14111 0.13589 0.0
C132 C 0.57026 0.06191 0.12789 0.0
H133 H 0.52828 0.03248 0.12444 0.0
C134 C 0.59043 0.09035 0.1081 0.0
H135 H 0.68379 0.12048 0.17396 0.0
C136 C 0.64361 0.12952 0.11196 0.0
H137 H 0.65781 0.15138 0.09648 0.0
H138 H 0.56444 0.08223 0.08979 0.0
H139 H 0.57763 0.56886 0.56812 0.0
C140 C 0.5861 0.54879 0.55797 0.0
C141 C 0.60481 0.53298 0.57424 0.0
C142 C 0.5761 0.53723 0.52882 0.0
H143 H 0.62564 0.49161 0.57364 0.0
C144 C 0.61389 0.50567 0.56107 0.0
C145 C 0.60343 0.49329 0.53203 0.0
C146 C 0.5855 0.50988 0.51607 0.0
C147 C 0.55227 0.55097 0.51174 0.0
H148 H 0.57813 0.50091 0.4936 0.0
C149 C 0.57041 0.59411 0.51681 0.0
C150 C 0.5474 0.60671 0.50053 0.0
C151 C 0.51045 0.52044 0.4903 0.0
H152 H 0.49485 0.48678 0.48621 0.0
C153 C 0.48768 0.53275 0.4741 0.0
H154 H 0.60238 0.61779 0.53338 0.0
C155 C 0.506 0.57552 0.47906 0.0
H156 H 0.48814 0.5843 0.4658 0.0
H157 H 0.45567 0.50901 0.45758 0.0
H158 H 0.12331 0.52761 0.88655 0.0
C159 C 0.09629 0.53161 0.87775 0.0
C160 C 1.0603 0.52906 0.89487 0.0
C161 C 0.09594 0.53715 0.84951 0.0
H162 H 0.99502 0.52974 0.89702 0.0
C163 C 1.02232 0.5314 0.88368 0.0
C164 C 1.0191 0.53661 0.85584 0.0
C165 C 1.05707 0.54062 0.83898 0.0
C166 C 0.13356 0.53645 0.83114 0.0
H167 H 1.05523 0.54572 0.81774 0.0
C168 C 0.18077 0.54325 0.8417 0.0
C169 C 0.21302 0.54078 0.8233 0.0
C170 C 0.12055 0.52661 0.80197 0.0
H171 H 0.08491 0.51916 0.79236 0.0
C172 C 0.15219 0.52474 0.78418 0.0
H173 H 0.19328 0.55113 0.86382 0.0
C174 C 0.19764 0.53184 0.79459 0.0
H175 H 0.22074 0.52971 0.77994 0.0
H176 H 0.14092 0.51717 0.76188 0.0
H177 H 0.09262 0.54422 0.41818 0.0
C178 C 0.13001 0.5775 0.42451 0.0
C179 C 0.15834 0.60353 0.40376 0.0
C180 C 0.14842 0.59506 0.45305 0.0
H181 H 0.22697 0.66763 0.39548 0.0
C182 C 0.20502 0.64757 0.41151 0.0
C183 C 0.22427 0.66607 0.43954 0.0
C184 C 0.19683 0.63935 0.46017 0.0
C185 C 0.11588 0.56832 0.47528 0.0
H186 H 0.21284 0.65374 0.48176 0.0
C187 C 0.08093 0.52158 0.47092 0.0
C188 C 1.04969 0.49713 0.49183 0.0
C189 C 0.11814 0.58959 0.50104 0.0
H190 H 0.14209 0.62495 0.50513 0.0
C191 C 0.08826 0.56551 0.52191 0.0
H192 H 0.07816 0.50394 0.45154 0.0
C193 C 1.0544 0.5197 0.51743 0.0
H194 H 1.03056 0.50179 0.53376 0.0
H195 H 0.09062 0.58247 0.54153 0.0
H196 H 0.6119 0.01682 0.73128 0.0
C197 C 0.61716 0.0448 0.74174 0.0
C198 C 0.63438 0.07984 0.72728 0.0
C199 C 0.60385 0.04467 0.76909 0.0
H200 H 0.64943 0.141 0.72905 0.0
C201 C 0.63897 0.11516 0.74062 0.0
C202 C 0.62518 0.11526 0.7678 0.0
C203 C 0.60872 0.08033 0.78202 0.0
C204 C 0.57976 1.00563 0.78338 0.0
H205 H 0.59839 0.08036 0.80309 0.0
C206 C 0.60238 0.98526 0.78404 0.0
C207 C 0.57962 0.94906 0.79849 0.0
C208 C 0.5334 0.98863 0.79667 0.0
H209 H 0.51453 1.00305 0.79606 0.0
C210 C 0.51038 0.9525 0.81059 0.0
H211 H 0.6384 0.99836 0.77411 0.0
C212 C 0.53329 0.93289 0.81159 0.0
H213 H 0.51427 0.90462 0.82238 0.0
H214 H 0.47457 0.9396 0.82062 0.0
H215 H 0.65222 0.57808 0.08031 0.0
C216 C 0.63909 0.55018 0.09038 0.0
C217 C 0.61367 0.50933 0.07403 0.0
C218 C 0.65085 0.556 0.11925 0.0
H219 H 0.58063 0.44235 0.07358 0.0
C220 C 0.59887 0.47349 0.08654 0.0
C221 C 0.60981 0.47848 0.11554 0.0
C222 C 0.63556 0.51993 0.1317 0.0
C223 C 0.68081 0.60024 0.13604 0.0
H224 H 0.64594 0.52479 0.15391 0.0
C225 C 0.66719 0.62607 0.13109 0.0
C226 C 0.69442 0.66791 0.14672 0.0
C227 C 0.72287 0.61703 0.15686 0.0
H228 H 0.73486 0.59812 0.16091 0.0
C229 C 0.75028 0.65877 0.17247 0.0
H230 H 0.63357 0.61272 0.11576 0.0
C231 C 0.7359 0.68406 0.16762 0.0
H232 H 0.75684 0.71597 0.18021 0.0
H233 H 0.7825 0.6714 0.18851 0.0
H234 H 0.45458 0.67864 0.16647 0.0
H235 H 0.67431 0.68576 0.0979 0.0
H236 H 0.45395 0.65228 0.0779 0.0
H237 H 0.66704 0.70183 0.18631 0.0
H238 H 0.61336 0.70044 0.09011 0.0
H239 H 0.54889 0.71343 0.17325 0.0
C240 C 0.47451 0.68121 0.14827 0.0
C241 C 0.44569 0.66135 0.12158 0.0
C242 C 0.62626 0.70204 0.11129 0.0
C243 C 0.55376 0.70015 0.12945 0.0
C244 C 0.66115 0.69381 0.11572 0.0
C245 C 0.67435 0.69144 0.14271 0.0
C246 C 0.60393 0.70722 0.134 0.0
C247 C 0.65716 0.7028 0.16515 0.0
C248 C 0.52853 0.70092 0.15224 0.0
C249 C 0.47405 0.66575 0.09895 0.0
N250 N 0.6216 0.70906 0.16025 0.0
N251 N 0.52624 0.68383 0.10346 0.0
H252 H 0.84113 0.21989 0.51056 0.0
H253 H 0.97196 0.44267 0.44766 0.0
H254 H 0.75348 0.23251 0.451 0.0
H255 H 1.03571 0.44022 0.52534 0.0
H256 H 0.89888 0.36258 0.44332 0.0
H257 H 0.91943 0.29797 0.51146 0.0
C258 C 0.83834 0.23897 0.49762 0.0
C259 C 0.79046 0.21958 0.4808 0.0
C260 C 0.92915 0.37955 0.46119 0.0
C261 C 0.88021 0.30884 0.48148 0.0
C262 C 0.9711 0.42513 0.46353 0.0
C263 C 1.00982 0.44809 0.48693 0.0
C264 C 0.92629 0.35667 0.48223 0.0
C265 C 1.00642 0.4238 0.50706 0.0
C266 C 0.88304 0.28356 0.49817 0.0
C267 C 0.78933 0.24606 0.46445 0.0
N268 N 0.96539 0.37948 0.50428 0.0
N269 N 0.83351 0.28921 0.46514 0.0
H270 H 0.66117 0.79752 0.85207 0.0
H271 H 0.61719 0.92645 0.75682 0.0
H272 H 0.68274 0.79922 0.7647 0.0
H273 H 0.59609 0.92288 0.84418 0.0
H274 H 0.648 0.88473 0.75968 0.0
H275 H 0.64242 0.8472 0.84986 0.0
C276 C 0.6618 0.80824 0.83237 0.0
C277 C 0.67313 0.79385 0.80849 0.0
C278 C 0.63691 0.89332 0.77824 0.0
C279 C 0.65211 0.85126 0.80582 0.0
C280 C 0.61966 0.91736 0.77665 0.0
C281 C 0.60343 0.9277 0.80021 0.0
C282 C 0.63807 0.87968 0.8036 0.0
C283 C 0.60716 0.91487 0.82535 0.0
C284 C 0.65142 0.83688 0.83115 0.0
C285 C 0.67451 0.80965 0.78367 0.0
N286 N 0.62375 0.89138 0.82633 0.0
N287 N 0.6638 0.83729 0.78294 0.0
H288 H 0.78803 0.49269 0.22092 0.0
H289 H 0.57769 0.45334 0.16696 0.0
H290 H 0.76309 0.39501 0.15806 0.0
H291 H 0.62927 0.42437 0.09407 0.0
H292 H 0.60631 0.42202 0.19416 0.0
H293 H 0.69596 0.4606 0.20982 0.0
C294 C 0.76267 0.46331 0.20551 0.0
C295 C 0.78435 0.44808 0.18934 0.0
C296 C 0.60998 0.42149 0.17204 0.0
C297 C 0.67835 0.41153 0.17589 0.0
C298 C 0.59362 0.4393 0.15648 0.0
C299 C 0.6042 0.44396 0.1286 0.0
C300 C 0.63758 0.40899 0.15954 0.0
C301 C 0.62211 0.42306 0.11574 0.0
C302 C 0.70943 0.44467 0.19913 0.0
C303 C 0.74886 0.40947 0.16994 0.0
N304 N 0.6398 0.40767 0.13153 0.0
N305 N 0.69816 0.39359 0.16291 0.0
H306 H 0.45319 0.94701 0.43805 0.0
H307 H 0.31432 0.70727 0.47722 0.0
H308 H 0.53713 0.92263 0.49062 0.0
H309 H 0.24187 0.73399 0.41805 0.0
H310 H 0.39396 0.78633 0.48563 0.0
H311 H 0.37349 0.86941 0.43339 0.0
C312 C 0.45497 0.92538 0.44865 0.0
C313 C 0.50222 0.94156 0.46468 0.0
C314 C 0.36051 0.77481 0.47087 0.0
C315 C 0.41035 0.85199 0.45943 0.0
C316 C 0.31499 0.72979 0.4662 0.0
C317 C 0.27162 0.71396 0.4467 0.0
C318 C 0.36233 0.80414 0.45612 0.0
C319 C 0.2747 0.74457 0.43292 0.0
C320 C 0.40926 0.8809 0.44597 0.0
C321 C 0.50172 0.91168 0.47796 0.0
N322 N 0.31913 0.78796 0.43784 0.0
N323 N 0.45654 0.86834 0.47503 0.0
H324 H 0.50076 0.24081 0.82875 0.0
H325 H 0.69699 0.20483 0.76722 0.0
H326 H 0.66339 0.34852 0.81428 0.0
H327 H 0.54523 0.10238 0.79563 0.0
H328 H 0.68627 0.25836 0.78427 0.0
H329 H 0.51724 0.18999 0.81705 0.0
C330 C 0.54019 0.25396 0.82344 0.0
C331 C 0.58067 0.29918 0.82249 0.0
C332 C 0.65559 0.22423 0.787 0.0
C333 C 0.59949 0.24069 0.80843 0.0
C334 C 0.66162 0.19367 0.77719 0.0
C335 C 0.62202 0.14906 0.78004 0.0
C336 C 0.60934 0.20999 0.79947 0.0
C337 C 0.57716 0.13648 0.7933 0.0
C338 C 0.54947 0.22478 0.81657 0.0
C339 C 0.6306 0.3139 0.81486 0.0
N340 N 0.57189 0.16668 0.80232 0.0
N341 N 0.63849 0.28473 0.80799 0.0
H342 H 0.57095 0.83342 0.49664 0.0
H343 H 0.6513 0.68501 0.51325 0.0
H344 H 0.73148 0.88799 0.52621 0.0
H345 H 0.48744 0.63252 0.4989 0.0
H346 H 0.68192 0.75962 0.51827 0.0
H347 H 0.53995 0.75961 0.49732 0.0
C348 C 0.59965 0.83001 0.50359 0.0
C349 C 0.65402 0.8672 0.51136 0.0
C350 C 0.63924 0.73174 0.51417 0.0
C351 C 0.61878 0.78234 0.51166 0.0
C352 C 0.62169 0.6891 0.51146 0.0
C353 C 0.56668 0.65232 0.50542 0.0
C354 C 0.60158 0.7377 0.5107 0.0
C355 C 0.53029 0.65979 0.50297 0.0
C356 C 0.58192 0.78773 0.50381 0.0
C357 C 0.6894 0.86038 0.51961 0.0
N358 N 0.5484 0.70155 0.50545 0.0
N359 N 0.67122 0.81881 0.51941 0.0
H360 H 0.82083 0.61016 0.81942 0.0
H361 H 0.91092 0.4718 0.85768 0.0
H362 H 0.71248 0.47931 0.84122 0.0
H363 H 1.02253 0.60007 0.83289 0.0
H364 H 0.83833 0.47384 0.84971 0.0
H365 H 0.89409 0.60745 0.82272 0.0
C366 C 0.81208 0.58074 0.82484 0.0
C367 C 0.75948 0.54495 0.83006 0.0
C368 C 0.87841 0.50151 0.84566 0.0
C369 C 0.84468 0.54166 0.83394 0.0
C370 C 0.92018 0.50023 0.85004 0.0
C371 C 0.97356 0.53555 0.8457 0.0
C372 C 0.88905 0.53872 0.83704 0.0
C373 C 0.9823 0.57164 0.83614 0.0
C374 C 0.85429 0.57925 0.82671 0.0
C375 C 0.75176 0.50794 0.83701 0.0
N376 N 0.94093 0.5724 0.83236 0.0
N377 N 0.79335 0.5074 0.83876 0.0
H378 H 0.19801 0.70817 0.147 0.0
H379 H 0.51176 0.89752 0.19608 0.0
H380 H 0.30363 0.68195 0.1663 0.0
H381 H 0.4197 0.92246 0.15236 0.0
H382 H 0.43454 0.81845 0.18699 0.0
H383 H 0.27675 0.78698 0.15102 0.0
C384 C 0.23767 0.7189 0.15203 0.0
C385 C 0.24413 0.68822 0.15616 0.0
C386 C 0.43125 0.84107 0.1791 0.0
C387 C 0.33431 0.77834 0.16093 0.0
C388 C 0.47534 0.88618 0.18428 0.0
C389 C 0.47208 0.91648 0.17489 0.0
C390 C 0.38299 0.826 0.16486 0.0
C391 C 0.42393 0.90009 0.15974 0.0
C392 C 0.2826 0.76385 0.15416 0.0
C393 C 0.29658 0.7041 0.16255 0.0
N394 N 0.381 0.85597 0.15546 0.0
N395 N 0.33945 0.74794 0.16492 0.0
H396 H 0.67908 0.32314 0.49253 0.0
H397 H 0.53077 0.42252 0.49206 0.0
H398 H 0.51568 0.25025 0.45622 0.0
H399 H 0.68087 0.48655 0.54227 0.0
H400 H 0.53089 0.36369 0.47333 0.0
H401 H 0.68577 0.38715 0.50616 0.0
C402 C 0.64459 0.3205 0.48741 0.0
C403 C 0.59659 0.28099 0.47331 0.0
C404 C 0.56402 0.39073 0.48831 0.0
C405 C 0.60438 0.35448 0.48852 0.0
C406 C 0.56424 0.42458 0.49883 0.0
C407 C 0.6059 0.45956 0.51879 0.0
C408 C 0.60578 0.39174 0.49773 0.0
C409 C 0.64769 0.45998 0.52714 0.0
C410 C 0.64858 0.35718 0.49508 0.0
C411 C 0.55371 0.28001 0.46673 0.0
N412 N 0.64649 0.4265 0.51663 0.0
N413 N 0.55858 0.3161 0.47447 0.0
H414 H 0.4274 0.48156 0.84838 0.0
H415 H 0.31762 0.60736 0.81449 0.0
H416 H 0.52461 0.60691 0.81863 0.0
H417 H 0.22221 0.48616 0.84884 0.0
H418 H 0.39423 0.60921 0.818 0.0
H419 H 0.35362 0.48335 0.84998 0.0
C420 C 0.43359 0.5096 0.84217 0.0
C421 C 0.48324 0.5441 0.83328 0.0
C422 C 0.35699 0.58249 0.82527 0.0
C423 C 0.39717 0.54633 0.83514 0.0
C424 C 0.31311 0.5817 0.82358 0.0
C425 C 0.2631 0.54721 0.8321 0.0
C426 C 0.35159 0.54805 0.83512 0.0
C427 C 0.25994 0.51416 0.84274 0.0
C428 C 0.39105 0.51059 0.84316 0.0
C429 C 0.48767 0.57936 0.82561 0.0
N430 N 0.303 0.51527 0.84376 0.0
N431 N 0.44567 0.57944 0.82665 0.0
H432 H 0.9907 0.38266 0.10952 0.0
H433 H 0.72946 0.20405 0.18252 0.0
H434 H 0.94377 0.41601 0.18266 0.0
H435 H 0.752 0.17742 0.09844 0.0
H436 H 0.81631 0.27916 0.18653 0.0
H437 H 0.91101 0.30482 0.10848 0.0
C438 C 0.96393 0.37365 0.12545 0.0
C439 C 0.97391 0.40605 0.1461 0.0
C440 C 0.80245 0.25674 0.16728 0.0
C441 C 0.88286 0.317 0.14516 0.0
C442 C 0.75312 0.21376 0.16509 0.0
C443 C 0.73331 0.1845 0.14007 0.0
C444 C 0.83253 0.27048 0.14439 0.0
C445 C 0.76549 0.19906 0.11802 0.0
C446 C 0.91838 0.32922 0.12481 0.0
C447 C 0.93763 0.39233 0.16619 0.0
N448 N 0.81333 0.24097 0.12066 0.0
N449 N 0.89389 0.34898 0.16522 0.0
H450 H 0.97476 0.48006 0.06232 0.0
H451 H 0.14865 0.57078 0.93348 0.0
H452 H 0.14787 0.56591 0.07074 0.0
H453 H 0.97524 0.47563 0.92464 0.0
H454 H 0.14946 0.56653 0.98341 0.0
H455 H 0.97406 0.47545 0.01159 0.0
C456 C 1.01258 0.49767 0.05346 0.0
C457 C 1.06142 0.52356 0.07074 0.0
C458 C 0.11123 0.54638 0.97051 0.0
C459 C 1.0611 0.51872 0.01272 0.0
C460 C 0.11077 0.5486 0.94195 0.0
C461 C 1.06181 0.5239 0.9248 0.0
C462 C 1.06238 0.51931 0.98211 0.0
C463 C 1.01395 0.496 0.93708 0.0
C464 C 1.01222 0.49506 0.0245 0.0
C465 C 0.10928 0.54562 0.05817 0.0
N466 N 1.01545 0.49471 0.96493 0.0
N467 N 0.10795 0.54296 0.02996 0.0
H468 H 0.73999 0.10786 0.38707 0.0
H469 H 0.50989 0.00701 0.26166 0.0
H470 H 0.5738 0.04104 0.3974 0.0
H471 H 0.6766 0.08076 0.24922 0.0
H472 H 0.53477 0.02457 0.31192 0.0
H473 H 0.72004 0.10316 0.33708 0.0
C474 C 0.69942 0.09242 0.37882 0.0
C475 C 0.65834 0.07441 0.39627 0.0
C476 C 0.56616 0.03733 0.29832 0.0
C477 C 0.63527 0.06898 0.33936 0.0
C478 C 0.5519 0.02728 0.26962 0.0
C479 C 0.59122 0.04212 0.25135 0.0
C480 C 0.62018 0.0621 0.30896 0.0
C481 C 0.64514 0.06871 0.26269 0.0
C482 C 0.68808 0.08981 0.35034 0.0
C483 C 0.60657 0.05501 0.38464 0.0
N484 N 0.65804 0.07744 0.29083 0.0
N485 N 0.59649 0.05259 0.35693 0.0
H486 H 0.51071 0.48893 0.7383 0.0
H487 H 0.68675 0.55767 0.61196 0.0
H488 H 0.68173 0.56253 0.7508 0.0
H489 H 0.53176 0.52391 0.60661 0.0
H490 H 0.68684 0.5598 0.66262 0.0
H491 H 0.5179 0.50081 0.68969 0.0
C492 C 0.54984 0.50774 0.73077 0.0
C493 C 0.59563 0.52448 0.74843 0.0
C494 C 0.65321 0.55257 0.65039 0.0
C495 C 0.60419 0.538 0.6928 0.0
C496 C 0.65309 0.55125 0.62152 0.0
C497 C 0.60912 0.54049 0.6051 0.0
C498 C 0.60861 0.5423 0.66281 0.0
C499 C 0.56663 0.53267 0.6185 0.0
C500 C 0.55398 0.5147 0.70307 0.0
C501 C 0.64544 0.54893 0.73774 0.0
N502 N 0.56712 0.53317 0.64652 0.0
N503 N 0.64835 0.55455 0.71046 0.0
H504 H 0.54232 0.0276 0.55313 0.0
H505 H 0.71623 0.1439 0.69988 0.0
H506 H 0.71395 0.13308 0.55983 0.0
H507 H 0.56529 0.01039 0.68604 0.0
H508 H 0.71753 0.14243 0.64924 0.0
H509 H 0.55008 0.02245 0.60233 0.0
C510 C 0.58172 0.04962 0.56502 0.0
C511 C 0.62752 0.08106 0.55256 0.0
C512 C 0.68465 0.11323 0.65733 0.0
C513 C 0.63671 0.07562 0.60896 0.0
C514 C 0.68384 0.11407 0.68616 0.0
C515 C 0.64053 0.07723 0.69713 0.0
C516 C 0.64129 0.07561 0.63941 0.0
C517 C 0.59963 0.03939 0.67849 0.0
C518 C 0.58618 0.0465 0.59305 0.0
C519 C 0.67768 0.10851 0.56879 0.0
N520 N 0.6006 0.03979 0.65056 0.0
N521 N 0.68091 0.1056 0.59634 0.0
H522 H 0.72593 0.59001 0.91838 0.0
H523 H 0.54286 0.50601 0.04064 0.0
H524 H 0.55697 0.5234 0.90382 0.0
H525 H 0.67783 0.51009 0.03933 0.0
H526 H 0.54837 0.5162 -0.00861 0.0
H527 H 0.71195 0.56647 0.96443 0.0
C528 C 0.68599 0.57052 0.92495 0.0
C529 C 0.6426 0.55883 0.90753 0.0
C530 C 0.57608 0.51398 0.00174 0.0
C531 C 0.62639 0.53208 0.95986 0.0
C532 C 0.57274 0.508 0.02966 0.0
C533 C 0.60952 0.5067 0.04359 0.0
C534 C 0.61749 0.51999 0.98815 0.0
C535 C 0.64841 0.51038 0.02894 0.0
C536 C 0.67794 0.55682 0.95104 0.0
C537 C 0.59147 0.53318 0.91679 0.0
N538 N 0.65194 0.51752 0.00203 0.0
N539 N 0.58483 0.52104 0.94251 0.0
H540 H 0.1328 0.60067 0.22788 0.0
H541 H 0.12991 0.52718 0.37528 0.0
H542 H 0.11251 0.48455 0.23568 0.0
H543 H 0.14541 0.64014 0.36394 0.0
H544 H 0.11348 0.50552 0.32441 0.0
H545 H 0.12851 0.61071 0.27765 0.0
C546 C 0.12698 0.57701 0.24009 0.0
C547 C 0.12306 0.54175 0.22767 0.0
C548 C 0.11984 0.53474 0.33311 0.0
C549 C 0.11892 0.55341 0.28502 0.0
C550 C 0.12885 0.54691 0.36208 0.0
C551 C 0.13972 0.58579 0.37372 0.0
C552 C 0.12162 0.56167 0.31581 0.0
C553 C 0.13811 0.61032 0.35577 0.0
C554 C 0.12461 0.58279 0.26859 0.0
C555 C 0.1159 0.51228 0.24454 0.0
N556 N 0.12978 0.59808 0.32778 0.0
N557 N 0.11447 0.51895 0.27247 0.0
loop_
_geom_bond_atom_site_label_1
_geom_bond_atom_site_label_2
_geom_bond_distance
_geom_bond_site_symmetry_2
_ccdc_geom_bond_type
Sm0 C2 2.846 . S
Sm0 O20 2.543 . S
Sm0 O21 2.450 . S
Sm0 O22 2.681 . S
Sm0 O23 2.464 . S
Sm0 O24 2.396 . S
Sm0 O28 2.386 . S
Sm0 O31 2.408 1_455 S
Sm1 C11 2.846 1_455 S
Sm1 O22 2.386 . S
Sm1 O25 2.408 . S
Sm1 O26 2.543 1_455 S
Sm1 O27 2.450 1_455 S
Sm1 O28 2.681 . S
Sm1 O29 2.464 . S
Sm1 O30 2.396 1_455 S
C2 Sm0 2.846 . S
C2 C3 1.506 . S
C2 O20 1.261 . S
C2 O21 1.242 . S
C3 C2 1.506 . S
C3 C4 1.358 . S
C3 C8 1.382 . S
C4 C3 1.358 . S
C4 C5 1.385 . S
C4 H32 0.930 . S
C5 C4 1.385 . S
C5 C6 1.395 . S
C5 H33 0.929 . S
C6 C5 1.395 . S
C6 C7 1.335 . S
C7 C6 1.335 . S
C7 C8 1.398 . S
C7 H34 0.930 . S
C8 C3 1.382 . S
C8 C7 1.398 . S
C8 H35 0.929 . S
C9 O22 1.271 . S
C9 O23 1.251 . S
C10 O24 1.252 . S
C10 O25 1.272 . S
C11 Sm1 2.846 1_655 S
C11 C12 1.506 . S
C11 O26 1.261 . S
C11 O27 1.242 . S
C12 C11 1.506 . S
C12 C13 1.358 . S
C12 C17 1.382 . S
C13 C12 1.358 . S
C13 C14 1.385 . S
C13 H36 0.930 . S
C14 C13 1.385 . S
C14 C15 1.395 . S
C14 H37 0.929 . S
C15 C14 1.395 . S
C15 C16 1.335 . S
C16 C15 1.335 . S
C16 C17 1.398 . S
C16 H38 0.930 . S
C17 C12 1.382 . S
C17 C16 1.398 . S
C17 H39 0.929 . S
C18 O28 1.271 . S
C18 O29 1.251 . S
C19 O30 1.252 . S
C19 O31 1.272 . S
O20 Sm0 2.543 . S
O20 C2 1.261 . S
O21 Sm0 2.450 . S
O21 C2 1.242 . S
O22 Sm0 2.681 . S
O22 Sm1 2.386 . S
O22 C9 1.271 . S
O23 Sm0 2.464 . S
O23 C9 1.251 . S
O24 Sm0 2.396 . S
O24 C10 1.252 . S
O25 Sm1 2.408 . S
O25 C10 1.272 . S
O26 Sm1 2.543 1_655 S
O26 C11 1.261 . S
O27 Sm1 2.450 1_655 S
O27 C11 1.242 . S
O28 Sm0 2.386 . S
O28 Sm1 2.681 . S
O28 C18 1.271 . S
O29 Sm1 2.464 . S
O29 C18 1.251 . S
O30 Sm1 2.396 1_655 S
O30 C19 1.252 . S
O31 Sm0 2.408 1_655 S
O31 C19 1.272 . S
H32 C4 0.930 . S
H33 C5 0.929 . S
H34 C7 0.930 . S
H35 C8 0.929 . S
H36 C13 0.930 . S
H37 C14 0.929 . S
H38 C16 0.930 . S
H39 C17 0.929 . S
Sm40 C42 2.846 1_545 S
Sm40 O60 2.543 1_545 S
Sm40 O61 2.450 1_545 S
Sm40 O62 2.681 . S
Sm40 O63 2.464 . S
Sm40 O64 2.396 1_545 S
Sm40 O68 2.386 . S
Sm40 O71 2.408 . S
Sm41 C51 2.846 . S
Sm41 O62 2.386 . S
Sm41 O65 2.408 1_545 S
Sm41 O66 2.543 . S
Sm41 O67 2.450 . S
Sm41 O68 2.681 . S
Sm41 O69 2.464 . S
Sm41 O70 2.396 . S
C42 Sm40 2.846 1_565 S
C42 C43 1.506 . S
C42 O60 1.261 . S
C42 O61 1.242 . S
C43 C42 1.506 . S
C43 C44 1.358 . S
C43 C48 1.382 . S
C44 C43 1.358 . S
C44 C45 1.385 . S
C44 H72 0.930 . S
C45 C44 1.385 . S
C45 C46 1.395 . S
C45 H73 0.929 . S
C46 C45 1.395 . S
C46 C47 1.335 . S
C47 C46 1.335 . S
C47 C48 1.398 . S
C47 H74 0.930 . S
C48 C43 1.382 . S
C48 C47 1.398 . S
C48 H75 0.929 . S
C49 O62 1.271 . S
C49 O63 1.251 . S
C50 O64 1.252 . S
C50 O65 1.272 . S
C51 Sm41 2.846 . S
C51 C52 1.506 . S
C51 O66 1.261 . S
C51 O67 1.242 . S
C52 C51 1.506 . S
C52 C53 1.358 . S
C52 C57 1.382 . S
C53 C52 1.358 . S
C53 C54 1.385 . S
C53 H76 0.930 . S
C54 C53 1.385 . S
C54 C55 1.395 . S
C54 H77 0.929 . S
C55 C54 1.395 . S
C55 C56 1.335 . S
C56 C55 1.335 . S
C56 C57 1.398 . S
C56 H78 0.930 . S
C57 C52 1.382 . S
C57 C56 1.398 . S
C57 H79 0.929 . S
C58 O68 1.271 . S
C58 O69 1.251 . S
C59 O70 1.252 . S
C59 O71 1.272 . S
O60 Sm40 2.543 1_565 S
O60 C42 1.261 . S
O61 Sm40 2.450 1_565 S
O61 C42 1.242 . S
O62 Sm40 2.681 . S
O62 Sm41 2.386 . S
O62 C49 1.271 . S
O63 Sm40 2.464 . S
O63 C49 1.251 . S
O64 Sm40 2.396 1_565 S
O64 C50 1.252 . S
O65 Sm41 2.408 1_565 S
O65 C50 1.272 . S
O66 Sm41 2.543 . S
O66 C51 1.261 . S
O67 Sm41 2.450 . S
O67 C51 1.242 . S
O68 Sm40 2.386 . S
O68 Sm41 2.681 . S
O68 C58 1.271 . S
O69 Sm41 2.464 . S
O69 C58 1.251 . S
O70 Sm41 2.396 . S
O70 C59 1.252 . S
O71 Sm40 2.408 . S
O71 C59 1.272 . S
H72 C44 0.930 . S
H73 C45 0.929 . S
H74 C47 0.930 . S
H75 C48 0.929 . S
H76 C53 0.930 . S
H77 C54 0.929 . S
H78 C56 0.930 . S
H79 C57 0.929 . S
Sm80 C82 2.846 . S
Sm80 O100 2.543 . S
Sm80 O101 2.450 . S
Sm80 O102 2.681 . S
Sm80 O103 2.464 . S
Sm80 O104 2.396 . S
Sm80 O108 2.386 . S
Sm80 O111 2.408 . S
Sm81 C91 2.846 . S
Sm81 O102 2.386 . S
Sm81 O105 2.408 . S
Sm81 O106 2.543 . S
Sm81 O107 2.450 . S
Sm81 O108 2.681 . S
Sm81 O109 2.464 . S
Sm81 O110 2.396 . S
C82 Sm80 2.846 . S
C82 C83 1.506 . S
C82 O100 1.261 . S
C82 O101 1.242 . S
C83 C82 1.506 . S
C83 C84 1.358 . S
C83 C88 1.382 . S
C84 C83 1.358 . S
C84 C85 1.385 . S
C84 H112 0.930 . S
C85 C84 1.385 . S
C85 C86 1.395 . S
C85 H113 0.929 . S
C86 C85 1.395 . S
C86 C87 1.335 . S
C87 C86 1.335 . S
C87 C88 1.398 . S
C87 H114 0.930 . S
C88 C83 1.382 . S
C88 C87 1.398 . S
C88 H115 0.929 . S
C89 O102 1.271 . S
C89 O103 1.251 . S
C90 O104 1.252 . S
C90 O105 1.272 . S
C91 Sm81 2.846 . S
C91 C92 1.506 . S
C91 O106 1.261 . S
C91 O107 1.242 . S
C92 C91 1.506 . S
C92 C93 1.358 . S
C92 C97 1.382 . S
C93 C92 1.358 . S
C93 C94 1.385 . S
C93 H116 0.930 . S
C94 C93 1.385 . S
C94 C95 1.395 . S
C94 H117 0.929 . S
C95 C94 1.395 . S
C95 C96 1.335 . S
C96 C95 1.335 . S
C96 C97 1.398 . S
C96 H118 0.930 . S
C97 C92 1.382 . S
C97 C96 1.398 . S
C97 H119 0.929 . S
C98 O108 1.271 . S
C98 O109 1.251 . S
C99 O110 1.252 . S
C99 O111 1.272 . S
O100 Sm80 2.543 . S
O100 C82 1.261 . S
O101 Sm80 2.450 . S
O101 C82 1.242 . S
O102 Sm80 2.681 . S
O102 Sm81 2.386 . S
O102 C89 1.271 . S
O103 Sm80 2.464 . S
O103 C89 1.251 . S
O104 Sm80 2.396 . S
O104 C90 1.252 . S
O105 Sm81 2.408 . S
O105 C90 1.272 . S
O106 Sm81 2.543 . S
O106 C91 1.261 . S
O107 Sm81 2.450 . S
O107 C91 1.242 . S
O108 Sm80 2.386 . S
O108 Sm81 2.681 . S
O108 C98 1.271 . S
O109 Sm81 2.464 . S
O109 C98 1.251 . S
O110 Sm81 2.396 . S
O110 C99 1.252 . S
O111 Sm80 2.408 . S
O111 C99 1.272 . S
H112 C84 0.930 . S
H113 C85 0.929 . S
H114 C87 0.930 . S
H115 C88 0.929 . S
H116 C93 0.930 . S
H117 C94 0.929 . S
H118 C96 0.930 . S
H119 C97 0.929 . S
H120 C121 0.949 . S
C121 H120 0.949 . S
C121 C122 1.395 . S
C121 C123 1.391 . S
C122 C121 1.395 . S
C122 C125 1.390 1_545 S
C123 C121 1.391 . S
C123 C127 1.387 . S
C123 C128 1.491 . S
H124 C125 0.950 . S
C125 C122 1.390 1_565 S
C125 H124 0.950 . S
C125 C126 1.378 . S
C126 C125 1.378 . S
C126 C127 1.409 1_565 S
C127 C123 1.387 . S
C127 C126 1.409 1_545 S
C127 H129 0.951 . S
C128 C123 1.491 . S
C128 C130 1.382 . S
C128 C132 1.404 . S
H129 C127 0.951 . S
C130 C128 1.382 . S
C130 C131 1.390 . S
C130 H135 0.949 . S
C131 C130 1.390 . S
C131 C136 1.399 . S
C132 C128 1.404 . S
C132 H133 0.950 . S
C132 C134 1.375 . S
H133 C132 0.950 . S
C134 C132 1.375 . S
C134 C136 1.382 . S
C134 H138 0.950 . S
H135 C130 0.949 . S
C136 C131 1.399 . S
C136 C134 1.382 . S
C136 H137 0.952 . S
H137 C136 0.952 . S
H138 C134 0.950 . S
H139 C140 0.949 . S
C140 H139 0.949 . S
C140 C141 1.395 . S
C140 C142 1.391 . S
C141 C140 1.395 . S
C141 C144 1.390 . S
C142 C140 1.391 . S
C142 C146 1.387 . S
C142 C147 1.491 . S
H143 C144 0.950 . S
C144 C141 1.390 . S
C144 H143 0.950 . S
C144 C145 1.378 . S
C145 C144 1.378 . S
C145 C146 1.409 . S
C146 C142 1.387 . S
C146 C145 1.409 . S
C146 H148 0.951 . S
C147 C142 1.491 . S
C147 C149 1.382 . S
C147 C151 1.404 . S
H148 C146 0.951 . S
C149 C147 1.382 . S
C149 C150 1.390 . S
C149 H154 0.949 . S
C150 C149 1.390 . S
C150 C155 1.399 . S
C151 C147 1.404 . S
C151 H152 0.950 . S
C151 C153 1.375 . S
H152 C151 0.950 . S
C153 C151 1.375 . S
C153 C155 1.382 . S
C153 H157 0.950 . S
H154 C149 0.949 . S
C155 C150 1.399 . S
C155 C153 1.382 . S
C155 H156 0.952 . S
H156 C155 0.952 . S
H157 C153 0.950 . S
H158 C159 0.949 . S
C159 H158 0.949 . S
C159 C160 1.395 . S
C159 C161 1.391 . S
C160 C159 1.395 . S
C160 C163 1.390 . S
C161 C159 1.391 . S
C161 C165 1.387 . S
C161 C166 1.491 . S
H162 C163 0.950 1_655 S
C163 C160 1.390 . S
C163 H162 0.950 1_455 S
C163 C164 1.378 . S
C164 C163 1.378 . S
C164 C165 1.409 . S
C165 C161 1.387 . S
C165 C164 1.409 . S
C165 H167 0.951 . S
C166 C161 1.491 . S
C166 C168 1.382 . S
C166 C170 1.404 . S
H167 C165 0.951 . S
C168 C166 1.382 . S
C168 C169 1.390 . S
C168 H173 0.949 . S
C169 C168 1.390 . S
C169 C174 1.399 . S
C170 C166 1.404 . S
C170 H171 0.950 . S
C170 C172 1.375 . S
H171 C170 0.950 . S
C172 C170 1.375 . S
C172 C174 1.382 . S
C172 H176 0.950 . S
H173 C168 0.949 . S
C174 C169 1.399 . S
C174 C172 1.382 . S
C174 H175 0.952 . S
H175 C174 0.952 . S
H176 C172 0.950 . S
H177 C178 0.949 . S
C178 H177 0.949 . S
C178 C179 1.395 1_655 S
C178 C180 1.391 1_655 S
C179 C178 1.395 1_455 S
C179 C182 1.390 . S
C180 C178 1.391 1_455 S
C180 C184 1.387 . S
C180 C185 1.491 1_455 S
H181 C182 0.950 . S
C182 C179 1.390 . S
C182 H181 0.950 . S
C182 C183 1.378 . S
C183 C182 1.378 . S
C183 C184 1.409 . S
C184 C180 1.387 . S
C184 C183 1.409 . S
C184 H186 0.951 . S
C185 C180 1.491 1_655 S
C185 C187 1.382 . S
C185 C189 1.404 . S
H186 C184 0.951 . S
C187 C185 1.382 . S
C187 C188 1.390 . S
C187 H192 0.949 . S
C188 C187 1.390 . S
C188 C193 1.399 . S
C189 C185 1.404 . S
C189 H190 0.950 . S
C189 C191 1.375 . S
H190 C189 0.950 . S
C191 C189 1.375 . S
C191 C193 1.382 . S
C191 H195 0.950 . S
H192 C187 0.949 . S
C193 C188 1.399 . S
C193 C191 1.382 . S
C193 H194 0.952 . S
H194 C193 0.952 . S
H195 C191 0.950 . S
H196 C197 0.949 . S
C197 H196 0.949 . S
C197 C198 1.395 . S
C197 C199 1.391 . S
C198 C197 1.395 . S
C198 C201 1.390 . S
C199 C197 1.391 . S
C199 C203 1.387 . S
C199 C204 1.491 . S
H200 C201 0.950 . S
C201 C198 1.390 . S
C201 H200 0.950 . S
C201 C202 1.378 . S
C202 C201 1.378 . S
C202 C203 1.409 . S
C203 C199 1.387 . S
C203 C202 1.409 . S
C203 H205 0.951 . S
C204 C199 1.491 . S
C204 C206 1.382 1_545 S
C204 C208 1.404 1_545 S
H205 C203 0.951 . S
C206 C204 1.382 1_565 S
C206 C207 1.390 . S
C206 H211 0.949 . S
C207 C206 1.390 . S
C207 C212 1.399 . S
C208 C204 1.404 1_565 S
C208 H209 0.950 1_565 S
C208 C210 1.375 . S
H209 C208 0.950 1_545 S
C210 C208 1.375 . S
C210 C212 1.382 . S
C210 H214 0.950 . S
H211 C206 0.949 . S
C212 C207 1.399 . S
C212 C210 1.382 . S
C212 H213 0.952 . S
H213 C212 0.952 . S
H214 C210 0.950 . S
H215 C216 0.949 . S
C216 H215 0.949 . S
C216 C217 1.395 . S
C216 C218 1.391 . S
C217 C216 1.395 . S
C217 C220 1.390 . S
C218 C216 1.391 . S
C218 C222 1.387 . S
C218 C223 1.491 . S
H219 C220 0.950 . S
C220 C217 1.390 . S
C220 H219 0.950 . S
C220 C221 1.378 . S
C221 C220 1.378 . S
C221 C222 1.409 . S
C222 C218 1.387 . S
C222 C221 1.409 . S
C222 H224 0.951 . S
C223 C218 1.491 . S
C223 C225 1.382 . S
C223 C227 1.404 . S
H224 C222 0.951 . S
C225 C223 1.382 . S
C225 C226 1.390 . S
C225 H230 0.949 . S
C226 C225 1.390 . S
C226 C231 1.399 . S
C227 C223 1.404 . S
C227 H228 0.950 . S
C227 C229 1.375 . S
H228 C227 0.950 . S
C229 C227 1.375 . S
C229 C231 1.382 . S
C229 H233 0.950 . S
H230 C225 0.949 . S
C231 C226 1.399 . S
C231 C229 1.382 . S
C231 H232 0.952 . S
H232 C231 0.952 . S
H233 C229 0.950 . S
H234 C240 0.930 . S
H235 C244 0.930 . S
H236 C249 0.929 . S
H237 C247 0.929 . S
H238 C242 0.929 . S
H239 C248 0.929 . S
C240 H234 0.930 . S
C240 C241 1.367 . S
C240 C248 1.378 . S
C241 C240 1.367 . S
C241 C249 1.433 . S
C242 H238 0.929 . S
C242 C244 1.378 . S
C242 C246 1.350 . S
C243 C246 1.463 . S
C243 C248 1.350 . S
C243 N251 1.427 . S
C244 H235 0.930 . S
C244 C242 1.378 . S
C244 C245 1.367 . S
C245 C244 1.367 . S
C245 C247 1.433 . S
C246 C242 1.350 . S
C246 C243 1.463 . S
C246 N250 1.427 . S
C247 H237 0.929 . S
C247 C245 1.433 . S
C247 N250 1.384 . S
C248 H239 0.929 . S
C248 C240 1.378 . S
C248 C243 1.350 . S
C249 H236 0.929 . S
C249 C241 1.433 . S
C249 N251 1.384 . S
N250 C246 1.427 . S
N250 C247 1.384 . S
N251 C243 1.427 . S
N251 C249 1.384 . S
H252 C258 0.930 . S
H253 C262 0.930 . S
H254 C267 0.929 . S
H255 C265 0.929 . S
H256 C260 0.929 . S
H257 C266 0.929 . S
C258 H252 0.930 . S
C258 C259 1.367 . S
C258 C266 1.378 . S
C259 C258 1.367 . S
C259 C267 1.433 . S
C260 H256 0.929 . S
C260 C262 1.378 . S
C260 C264 1.350 . S
C261 C264 1.463 . S
C261 C266 1.350 . S
C261 N269 1.427 . S
C262 H253 0.930 . S
C262 C260 1.378 . S
C262 C263 1.367 . S
C263 C262 1.367 . S
C263 C265 1.433 . S
C264 C260 1.350 . S
C264 C261 1.463 . S
C264 N268 1.427 . S
C265 H255 0.929 . S
C265 C263 1.433 . S
C265 N268 1.384 . S
C266 H257 0.929 . S
C266 C258 1.378 . S
C266 C261 1.350 . S
C267 H254 0.929 . S
C267 C259 1.433 . S
C267 N269 1.384 . S
N268 C264 1.427 . S
N268 C265 1.384 . S
N269 C261 1.427 . S
N269 C267 1.384 . S
H270 C276 0.930 . S
H271 C280 0.930 . S
H272 C285 0.929 . S
H273 C283 0.929 . S
H274 C278 0.929 . S
H275 C284 0.929 . S
C276 H270 0.930 . S
C276 C277 1.367 . S
C276 C284 1.378 . S
C277 C276 1.367 . S
C277 C285 1.433 . S
C278 H274 0.929 . S
C278 C280 1.378 . S
C278 C282 1.350 . S
C279 C282 1.463 . S
C279 C284 1.350 . S
C279 N287 1.427 . S
C280 H271 0.930 . S
C280 C278 1.378 . S
C280 C281 1.367 . S
C281 C280 1.367 . S
C281 C283 1.433 . S
C282 C278 1.350 . S
C282 C279 1.463 . S
C282 N286 1.427 . S
C283 H273 0.929 . S
C283 C281 1.433 . S
C283 N286 1.384 . S
C284 H275 0.929 . S
C284 C276 1.378 . S
C284 C279 1.350 . S
C285 H272 0.929 . S
C285 C277 1.433 . S
C285 N287 1.384 . S
N286 C282 1.427 . S
N286 C283 1.384 . S
N287 C279 1.427 . S
N287 C285 1.384 . S
H288 C294 0.930 . S
H289 C298 0.930 . S
H290 C303 0.929 . S
H291 C301 0.929 . S
H292 C296 0.929 . S
H293 C302 0.929 . S
C294 H288 0.930 . S
C294 C295 1.367 . S
C294 C302 1.378 . S
C295 C294 1.367 . S
C295 C303 1.433 . S
C296 H292 0.929 . S
C296 C298 1.378 . S
C296 C300 1.350 . S
C297 C300 1.463 . S
C297 C302 1.350 . S
C297 N305 1.427 . S
C298 H289 0.930 . S
C298 C296 1.378 . S
C298 C299 1.367 . S
C299 C298 1.367 . S
C299 C301 1.433 . S
C300 C296 1.350 . S
C300 C297 1.463 . S
C300 N304 1.427 . S
C301 H291 0.929 . S
C301 C299 1.433 . S
C301 N304 1.384 . S
C302 H293 0.929 . S
C302 C294 1.378 . S
C302 C297 1.350 . S
C303 H290 0.929 . S
C303 C295 1.433 . S
C303 N305 1.384 . S
N304 C300 1.427 . S
N304 C301 1.384 . S
N305 C297 1.427 . S
N305 C303 1.384 . S
H306 C312 0.930 . S
H307 C316 0.930 . S
H308 C321 0.929 . S
H309 C319 0.929 . S
H310 C314 0.929 . S
H311 C320 0.929 . S
C312 H306 0.930 . S
C312 C313 1.367 . S
C312 C320 1.378 . S
C313 C312 1.367 . S
C313 C321 1.433 . S
C314 H310 0.929 . S
C314 C316 1.378 . S
C314 C318 1.350 . S
C315 C318 1.463 . S
C315 C320 1.350 . S
C315 N323 1.427 . S
C316 H307 0.930 . S
C316 C314 1.378 . S
C316 C317 1.367 . S
C317 C316 1.367 . S
C317 C319 1.433 . S
C318 C314 1.350 . S
C318 C315 1.463 . S
C318 N322 1.427 . S
C319 H309 0.929 . S
C319 C317 1.433 . S
C319 N322 1.384 . S
C320 H311 0.929 . S
C320 C312 1.378 . S
C320 C315 1.350 . S
C321 H308 0.929 . S
C321 C313 1.433 . S
C321 N323 1.384 . S
N322 C318 1.427 . S
N322 C319 1.384 . S
N323 C315 1.427 . S
N323 C321 1.384 . S
H324 C330 0.930 . S
H325 C334 0.930 . S
H326 C339 0.929 . S
H327 C337 0.929 . S
H328 C332 0.929 . S
H329 C338 0.929 . S
C330 H324 0.930 . S
C330 C331 1.367 . S
C330 C338 1.378 . S
C331 C330 1.367 . S
C331 C339 1.433 . S
C332 H328 0.929 . S
C332 C334 1.378 . S
C332 C336 1.350 . S
C333 C336 1.463 . S
C333 C338 1.350 . S
C333 N341 1.427 . S
C334 H325 0.930 . S
C334 C332 1.378 . S
C334 C335 1.367 . S
C335 C334 1.367 . S
C335 C337 1.433 . S
C336 C332 1.350 . S
C336 C333 1.463 . S
C336 N340 1.427 . S
C337 H327 0.929 . S
C337 C335 1.433 . S
C337 N340 1.384 . S
C338 H329 0.929 . S
C338 C330 1.378 . S
C338 C333 1.350 . S
C339 H326 0.929 . S
C339 C331 1.433 . S
C339 N341 1.384 . S
N340 C336 1.427 . S
N340 C337 1.384 . S
N341 C333 1.427 . S
N341 C339 1.384 . S
H342 C348 0.930 . S
H343 C352 0.930 . S
H344 C357 0.929 . S
H345 C355 0.929 . S
H346 C350 0.929 . S
H347 C356 0.929 . S
C348 H342 0.930 . S
C348 C349 1.367 . S
C348 C356 1.378 . S
C349 C348 1.367 . S
C349 C357 1.433 . S
C350 H346 0.929 . S
C350 C352 1.378 . S
C350 C354 1.350 . S
C351 C354 1.463 . S
C351 C356 1.350 . S
C351 N359 1.427 . S
C352 H343 0.930 . S
C352 C350 1.378 . S
C352 C353 1.367 . S
C353 C352 1.367 . S
C353 C355 1.433 . S
C354 C350 1.350 . S
C354 C351 1.463 . S
C354 N358 1.427 . S
C355 H345 0.929 . S
C355 C353 1.433 . S
C355 N358 1.384 . S
C356 H347 0.929 . S
C356 C348 1.378 . S
C356 C351 1.350 . S
C357 H344 0.929 . S
C357 C349 1.433 . S
C357 N359 1.384 . S
N358 C354 1.427 . S
N358 C355 1.384 . S
N359 C351 1.427 . S
N359 C357 1.384 . S
H360 C366 0.930 . S
H361 C370 0.930 . S
H362 C375 0.929 . S
H363 C373 0.929 . S
H364 C368 0.929 . S
H365 C374 0.929 . S
C366 H360 0.930 . S
C366 C367 1.367 . S
C366 C374 1.378 . S
C367 C366 1.367 . S
C367 C375 1.433 . S
C368 H364 0.929 . S
C368 C370 1.378 . S
C368 C372 1.350 . S
C369 C372 1.463 . S
C369 C374 1.350 . S
C369 N377 1.427 . S
C370 H361 0.930 . S
C370 C368 1.378 . S
C370 C371 1.367 . S
C371 C370 1.367 . S
C371 C373 1.433 . S
C372 C368 1.350 . S
C372 C369 1.463 . S
C372 N376 1.427 . S
C373 H363 0.929 . S
C373 C371 1.433 . S
C373 N376 1.384 . S
C374 H365 0.929 . S
C374 C366 1.378 . S
C374 C369 1.350 . S
C375 H362 0.929 . S
C375 C367 1.433 . S
C375 N377 1.384 . S
N376 C372 1.427 . S
N376 C373 1.384 . S
N377 C369 1.427 . S
N377 C375 1.384 . S
H378 C384 0.930 . S
H379 C388 0.930 . S
H380 C393 0.929 . S
H381 C391 0.929 . S
H382 C386 0.929 . S
H383 C392 0.929 . S
C384 H378 0.930 . S
C384 C385 1.367 . S
C384 C392 1.378 . S
C385 C384 1.367 . S
C385 C393 1.433 . S
C386 H382 0.929 . S
C386 C388 1.378 . S
C386 C390 1.350 . S
C387 C390 1.463 . S
C387 C392 1.350 . S
C387 N395 1.427 . S
C388 H379 0.930 . S
C388 C386 1.378 . S
C388 C389 1.367 . S
C389 C388 1.367 . S
C389 C391 1.433 . S
C390 C386 1.350 . S
C390 C387 1.463 . S
C390 N394 1.427 . S
C391 H381 0.929 . S
C391 C389 1.433 . S
C391 N394 1.384 . S
C392 H383 0.929 . S
C392 C384 1.378 . S
C392 C387 1.350 . S
C393 H380 0.929 . S
C393 C385 1.433 . S
C393 N395 1.384 . S
N394 C390 1.427 . S
N394 C391 1.384 . S
N395 C387 1.427 . S
N395 C393 1.384 . S
H396 C402 0.930 . S
H397 C406 0.930 . S
H398 C411 0.929 . S
H399 C409 0.929 . S
H400 C404 0.929 . S
H401 C410 0.929 . S
C402 H396 0.930 . S
C402 C403 1.367 . S
C402 C410 1.378 . S
C403 C402 1.367 . S
C403 C411 1.433 . S
C404 H400 0.929 . S
C404 C406 1.378 . S
C404 C408 1.350 . S
C405 C408 1.463 . S
C405 C410 1.350 . S
C405 N413 1.427 . S
C406 H397 0.930 . S
C406 C404 1.378 . S
C406 C407 1.367 . S
C407 C406 1.367 . S
C407 C409 1.433 . S
C408 C404 1.350 . S
C408 C405 1.463 . S
C408 N412 1.427 . S
C409 H399 0.929 . S
C409 C407 1.433 . S
C409 N412 1.384 . S
C410 H401 0.929 . S
C410 C402 1.378 . S
C410 C405 1.350 . S
C411 H398 0.929 . S
C411 C403 1.433 . S
C411 N413 1.384 . S
N412 C408 1.427 . S
N412 C409 1.384 . S
N413 C405 1.427 . S
N413 C411 1.384 . S
H414 C420 0.930 . S
H415 C424 0.930 . S
H416 C429 0.929 . S
H417 C427 0.929 . S
H418 C422 0.929 . S
H419 C428 0.929 . S
C420 H414 0.930 . S
C420 C421 1.367 . S
C420 C428 1.378 . S
C421 C420 1.367 . S
C421 C429 1.433 . S
C422 H418 0.929 . S
C422 C424 1.378 . S
C422 C426 1.350 . S
C423 C426 1.463 . S
C423 C428 1.350 . S
C423 N431 1.427 . S
C424 H415 0.930 . S
C424 C422 1.378 . S
C424 C425 1.367 . S
C425 C424 1.367 . S
C425 C427 1.433 . S
C426 C422 1.350 . S
C426 C423 1.463 . S
C426 N430 1.427 . S
C427 H417 0.929 . S
C427 C425 1.433 . S
C427 N430 1.384 . S
C428 H419 0.929 . S
C428 C420 1.378 . S
C428 C423 1.350 . S
C429 H416 0.929 . S
C429 C421 1.433 . S
C429 N431 1.384 . S
N430 C426 1.427 . S
N430 C427 1.384 . S
N431 C423 1.427 . S
N431 C429 1.384 . S
H432 C438 0.930 . S
H433 C442 0.930 . S
H434 C447 0.929 . S
H435 C445 0.929 . S
H436 C440 0.929 . S
H437 C446 0.929 . S
C438 H432 0.930 . S
C438 C439 1.367 . S
C438 C446 1.378 . S
C439 C438 1.367 . S
C439 C447 1.433 . S
C440 H436 0.929 . S
C440 C442 1.378 . S
C440 C444 1.350 . S
C441 C444 1.463 . S
C441 C446 1.350 . S
C441 N449 1.427 . S
C442 H433 0.930 . S
C442 C440 1.378 . S
C442 C443 1.367 . S
C443 C442 1.367 . S
C443 C445 1.433 . S
C444 C440 1.350 . S
C444 C441 1.463 . S
C444 N448 1.427 . S
C445 H435 0.929 . S
C445 C443 1.433 . S
C445 N448 1.384 . S
C446 H437 0.929 . S
C446 C438 1.378 . S
C446 C441 1.350 . S
C447 H434 0.929 . S
C447 C439 1.433 . S
C447 N449 1.384 . S
N448 C444 1.427 . S
N448 C445 1.384 . S
N449 C441 1.427 . S
N449 C447 1.384 . S
H450 C456 0.930 . S
H451 C460 0.930 . S
H452 C465 0.929 . S
H453 C463 0.929 . S
H454 C458 0.929 . S
H455 C464 0.929 . S
C456 H450 0.930 . S
C456 C457 1.367 . S
C456 C464 1.378 . S
C457 C456 1.367 . S
C457 C465 1.433 . S
C458 H454 0.929 . S
C458 C460 1.378 . S
C458 C462 1.350 . S
C459 C462 1.463 1_554 S
C459 C464 1.350 . S
C459 N467 1.427 . S
C460 H451 0.930 . S
C460 C458 1.378 . S
C460 C461 1.367 . S
C461 C460 1.367 . S
C461 C463 1.433 . S
C462 C458 1.350 . S
C462 C459 1.463 1_556 S
C462 N466 1.427 . S
C463 H453 0.929 . S
C463 C461 1.433 . S
C463 N466 1.384 . S
C464 H455 0.929 . S
C464 C456 1.378 . S
C464 C459 1.350 . S
C465 H452 0.929 . S
C465 C457 1.433 . S
C465 N467 1.384 . S
N466 C462 1.427 . S
N466 C463 1.384 . S
N467 C459 1.427 . S
N467 C465 1.384 . S
H468 C474 0.930 . S
H469 C478 0.930 1_565 S
H470 C483 0.929 1_565 S
H471 C481 0.929 . S
H472 C476 0.929 1_565 S
H473 C482 0.929 . S
C474 H468 0.930 . S
C474 C475 1.367 . S
C474 C482 1.378 . S
C475 C474 1.367 . S
C475 C483 1.433 . S
C476 H472 0.929 1_545 S
C476 C478 1.378 . S
C476 C480 1.350 . S
C477 C480 1.463 . S
C477 C482 1.350 . S
C477 N485 1.427 . S
C478 H469 0.930 1_545 S
C478 C476 1.378 . S
C478 C479 1.367 . S
C479 C478 1.367 . S
C479 C481 1.433 . S
C480 C476 1.350 . S
C480 C477 1.463 . S
C480 N484 1.427 . S
C481 H471 0.929 . S
C481 C479 1.433 . S
C481 N484 1.384 . S
C482 H473 0.929 . S
C482 C474 1.378 . S
C482 C477 1.350 . S
C483 H470 0.929 1_545 S
C483 C475 1.433 . S
C483 N485 1.384 . S
N484 C480 1.427 . S
N484 C481 1.384 . S
N485 C477 1.427 . S
N485 C483 1.384 . S
H486 C492 0.930 . S
H487 C496 0.930 . S
H488 C501 0.929 . S
H489 C499 0.929 . S
H490 C494 0.929 . S
H491 C500 0.929 . S
C492 H486 0.930 . S
C492 C493 1.367 . S
C492 C500 1.378 . S
C493 C492 1.367 . S
C493 C501 1.433 . S
C494 H490 0.929 . S
C494 C496 1.378 . S
C494 C498 1.350 . S
C495 C498 1.463 . S
C495 C500 1.350 . S
C495 N503 1.427 . S
C496 H487 0.930 . S
C496 C494 1.378 . S
C496 C497 1.367 . S
C497 C496 1.367 . S
C497 C499 1.433 . S
C498 C494 1.350 . S
C498 C495 1.463 . S
C498 N502 1.427 . S
C499 H489 0.929 . S
C499 C497 1.433 . S
C499 N502 1.384 . S
C500 H491 0.929 . S
C500 C492 1.378 . S
C500 C495 1.350 . S
C501 H488 0.929 . S
C501 C493 1.433 . S
C501 N503 1.384 . S
N502 C498 1.427 . S
N502 C499 1.384 . S
N503 C495 1.427 . S
N503 C501 1.384 . S
H504 C510 0.930 . S
H505 C514 0.930 1_565 S
H506 C519 0.929 1_565 S
H507 C517 0.929 . S
H508 C512 0.929 1_565 S
H509 C518 0.929 . S
C510 H504 0.930 . S
C510 C511 1.367 . S
C510 C518 1.378 . S
C511 C510 1.367 . S
C511 C519 1.433 . S
C512 H508 0.929 1_545 S
C512 C514 1.378 . S
C512 C516 1.350 . S
C513 C516 1.463 . S
C513 C518 1.350 . S
C513 N521 1.427 . S
C514 H505 0.930 1_545 S
C514 C512 1.378 . S
C514 C515 1.367 . S
C515 C514 1.367 . S
C515 C517 1.433 . S
C516 C512 1.350 . S
C516 C513 1.463 . S
C516 N520 1.427 . S
C517 H507 0.929 . S
C517 C515 1.433 . S
C517 N520 1.384 . S
C518 H509 0.929 . S
C518 C510 1.378 . S
C518 C513 1.350 . S
C519 H506 0.929 1_545 S
C519 C511 1.433 . S
C519 N521 1.384 . S
N520 C516 1.427 . S
N520 C517 1.384 . S
N521 C513 1.427 . S
N521 C519 1.384 . S
H522 C528 0.930 . S
H523 C532 0.930 . S
H524 C537 0.929 . S
H525 C535 0.929 . S
H526 C530 0.929 1_556 S
H527 C536 0.929 . S
C528 H522 0.930 . S
C528 C529 1.367 . S
C528 C536 1.378 . S
C529 C528 1.367 . S
C529 C537 1.433 . S
C530 H526 0.929 1_554 S
C530 C532 1.378 . S
C530 C534 1.350 1_554 S
C531 C534 1.463 . S
C531 C536 1.350 . S
C531 N539 1.427 . S
C532 H523 0.930 . S
C532 C530 1.378 . S
C532 C533 1.367 . S
C533 C532 1.367 . S
C533 C535 1.433 . S
C534 C530 1.350 1_556 S
C534 C531 1.463 . S
C534 N538 1.427 1_556 S
C535 H525 0.929 . S
C535 C533 1.433 . S
C535 N538 1.384 . S
C536 H527 0.929 . S
C536 C528 1.378 . S
C536 C531 1.350 . S
C537 H524 0.929 . S
C537 C529 1.433 . S
C537 N539 1.384 . S
N538 C534 1.427 1_554 S
N538 C535 1.384 . S
N539 C531 1.427 . S
N539 C537 1.384 . S
H540 C546 0.930 . S
H541 C550 0.930 1_655 S
H542 C555 0.929 . S
H543 C553 0.929 . S
H544 C548 0.929 1_655 S
H545 C554 0.929 . S
C546 H540 0.930 . S
C546 C547 1.367 . S
C546 C554 1.378 . S
C547 C546 1.367 . S
C547 C555 1.433 . S
C548 H544 0.929 1_455 S
C548 C550 1.378 . S
C548 C552 1.350 . S
C549 C552 1.463 . S
C549 C554 1.350 . S
C549 N557 1.427 . S
C550 H541 0.930 1_455 S
C550 C548 1.378 . S
C550 C551 1.367 . S
C551 C550 1.367 . S
C551 C553 1.433 . S
C552 C548 1.350 . S
C552 C549 1.463 . S
C552 N556 1.427 . S
C553 H543 0.929 . S
C553 C551 1.433 . S
C553 N556 1.384 . S
C554 H545 0.929 . S
C554 C546 1.378 . S
C554 C549 1.350 . S
C555 H542 0.929 . S
C555 C547 1.433 . S
C555 N557 1.384 . S
N556 C552 1.427 . S
N556 C553 1.384 . S
N557 C549 1.427 . S
N557 C555 1.384 . S
C241 C6 0.754 . S
C245 C226 0.741 . S
C259 C59 1.997 . S
C263 C188 1.937 . S
C277 C86 1.301 . S
C281 C207 1.246 . S
C295 C15 0.246 . S
C299 C221 0.195 . S
C317 C183 1.860 . S
C313 C50 1.896 . S
C335 C202 1.117 . S
C331 C95 1.131 . S
C349 C46 1.352 . S
C353 C150 1.278 . S
C367 C99 3.056 . S
C371 C164 3.024 1_655 S
C385 C10 1.905 . S
C389 C126 1.895 . S
C407 C145 1.107 . S
C403 C55 1.108 . S
C425 C169 3.046 . S
C421 C90 3.105 . S
C439 C19 2.006 . S
C443 C131 1.955 . S
C461 C160 1.718 . S
C457 C18 1.703 . S
C475 C49 1.458 . S
C479 C122 1.525 . S
C493 C98 1.546 . S
C497 C141 1.569 . S
C515 C198 1.562 . S
C511 C58 1.559 . S
C533 C217 1.370 . S
C529 C89 1.349 . S
C547 C9 1.444 . S
C551 C179 1.491 . S
