# Generated by pormake.
# Topology pyr, (3,6)-cn, num edge types: 1
# Building blocks:
#     Node 0, Type 0, BuildingBlock: VETTIZ_charged_linker_0, # of connection points: 3
#     Node 1, Type 0, BuildingBlock: VETTIZ_charged_linker_0, # of connection points: 3
#     Node 2, Type 0, BuildingBlock: VETTIZ_charged_linker_0, # of connection points: 3
#     Node 3, Type 0, BuildingBlock: VETTIZ_charged_linker_0, # of connection points: 3
#     Node 4, Type 0, BuildingBlock: VETTIZ_charged_linker_0, # of connection points: 3
#     Node 5, Type 0, BuildingBlock: VETTIZ_charged_linker_0, # of connection points: 3
#     Node 6, Type 0, BuildingBlock: VETTIZ_charged_linker_0, # of connection points: 3
#     Node 7, Type 0, BuildingBlock: VETTIZ_charged_linker_0, # of connection points: 3
#     Node 8, Type 1, BuildingBlock: BETDIP_clean_sbu_0, # of connection points: 6
#     Node 9, Type 1, BuildingBlock: BETDIP_clean_sbu_0, # of connection points: 6
#     Node 10, Type 1, BuildingBlock: BETDIP_clean_sbu_0, # of connection points: 6
#     Node 11, Type 1, BuildingBlock: BETDIP_clean_sbu_0, # of connection points: 6
#     Edge 12, Type (0, 1), BuildingBlock: KIFKEQ_clean_linker_1, # of connection points: 2
#     Edge 13, Type (0, 1), BuildingBlock: KIFKEQ_clean_linker_1, # of connection points: 2
#     Edge 14, Type (0, 1), BuildingBlock: KIFKEQ_clean_linker_1, # of connection points: 2
#     Edge 15, Type (0, 1), BuildingBlock: KIFKEQ_clean_linker_1, # of connection points: 2
#     Edge 16, Type (0, 1), BuildingBlock: KIFKEQ_clean_linker_1, # of connection points: 2
#     Edge 17, Type (0, 1), BuildingBlock: KIFKEQ_clean_linker_1, # of connection points: 2
#     Edge 18, Type (0, 1), BuildingBlock: KIFKEQ_clean_linker_1, # of connection points: 2
#     Edge 19, Type (0, 1), BuildingBlock: KIFKEQ_clean_linker_1, # of connection points: 2
#     Edge 20, Type (0, 1), BuildingBlock: KIFKEQ_clean_linker_1, # of connection points: 2
#     Edge 21, Type (0, 1), BuildingBlock: KIFKEQ_clean_linker_1, # of connection points: 2
#     Edge 22, Type (0, 1), BuildingBlock: KIFKEQ_clean_linker_1, # of connection points: 2
#     Edge 23, Type (0, 1), BuildingBlock: KIFKEQ_clean_linker_1, # of connection points: 2
#     Edge 24, Type (0, 1), BuildingBlock: KIFKEQ_clean_linker_1, # of connection points: 2
#     Edge 25, Type (0, 1), BuildingBlock: KIFKEQ_clean_linker_1, # of connection points: 2
#     Edge 26, Type (0, 1), BuildingBlock: KIFKEQ_clean_linker_1, # of connection points: 2
#     Edge 27, Type (0, 1), BuildingBlock: KIFKEQ_clean_linker_1, # of connection points: 2
#     Edge 28, Type (0, 1), BuildingBlock: KIFKEQ_clean_linker_1, # of connection points: 2
#     Edge 29, Type (0, 1), BuildingBlock: KIFKEQ_clean_linker_1, # of connection points: 2
#     Edge 30, Type (0, 1), BuildingBlock: KIFKEQ_clean_linker_1, # of connection points: 2
#     Edge 31, Type (0, 1), BuildingBlock: KIFKEQ_clean_linker_1, # of connection points: 2
#     Edge 32, Type (0, 1), BuildingBlock: KIFKEQ_clean_linker_1, # of connection points: 2
#     Edge 33, Type (0, 1), BuildingBlock: KIFKEQ_clean_linker_1, # of connection points: 2
#     Edge 34, Type (0, 1), BuildingBlock: KIFKEQ_clean_linker_1, # of connection points: 2
#     Edge 35, Type (0, 1), BuildingBlock: KIFKEQ_clean_linker_1, # of connection points: 2
# Relax obj value: 0.118
# Max RMSD: 0.192
# Mean RMSD: 0.087
data_MOF--net-pyr--node1-BETDIP_clean_sbu_0--node2-VETTIZ_charged_linker_0--edge1-KIFKEQ_clean_linker_1
_symmetry_space_group_name_H-M    P1
_symmetry_Int_Tables_number       1
_symmetry_cell_setting            triclinic
loop_
_symmetry_equiv_pos_as_xyz
'x, y, z'
_cell_length_a     44.166542
_cell_length_b     47.788412
_cell_length_c     46.499486
_cell_angle_alpha  88.900657
_cell_angle_beta   92.825711
_cell_angle_gamma 102.94819
loop_
_atom_site_label
_atom_site_type_symbol
_atom_site_fract_x
_atom_site_fract_y
_atom_site_fract_z
_atom_type_partial_charge
C0 C 0.31084 0.22237 0.32152 0.0
C1 C 0.28651 0.23017 0.33554 0.0
C2 C 0.27571 0.25439 0.3256 0.0
C3 C 0.31097 0.26069 0.2865 0.0
C4 C 0.3227 0.23789 0.29716 0.0
C5 C 0.34744 0.23153 0.27885 0.0
H6 H 0.41679 0.24711 0.15192 0.0
C7 C 0.32604 0.27031 0.25927 0.0
C8 C 0.34766 0.25354 0.25479 0.0
H9 H 0.43147 0.19267 0.2243 0.0
H10 H 0.39897 0.21421 0.25284 0.0
H11 H 0.42035 0.30579 0.19175 0.0
H12 H 0.3454 0.23947 0.15691 0.0
H13 H 0.33425 0.27237 0.15239 0.0
H14 H 0.36773 0.26677 0.13461 0.0
H15 H 0.41009 0.30283 0.15391 0.0
H16 H 0.39086 0.32211 0.17749 0.0
C17 C 0.37863 0.23715 0.29694 0.0
C18 C 0.33627 0.20035 0.2678 0.0
C19 C 0.28605 0.34351 0.19691 0.0
C20 C 0.2915 0.35361 0.16867 0.0
C21 C 0.31411 0.34441 0.15323 0.0
C22 C 0.33091 0.32523 0.16581 0.0
C23 C 0.32459 0.31477 0.1939 0.0
C24 C 0.30254 0.32408 0.20894 0.0
C25 C 0.29728 0.30954 0.23775 0.0
C26 C 0.32028 0.29031 0.2379 0.0
C27 C 0.33623 0.2934 0.21221 0.0
C28 C 0.30601 0.33276 0.26138 0.0
C29 C 0.26306 0.29212 0.2376 0.0
C30 C 0.41316 0.24002 0.174 0.0
C31 C 0.4265 0.21795 0.18576 0.0
C32 C 0.42167 0.20971 0.21475 0.0
C33 C 0.40246 0.222 0.23122 0.0
C34 C 0.38764 0.24258 0.21857 0.0
C35 C 0.39395 0.25207 0.1908 0.0
C36 C 0.3765 0.27457 0.18125 0.0
C37 C 0.35825 0.27653 0.20771 0.0
C38 C 0.36448 0.2573 0.22924 0.0
C39 C 0.40051 0.30287 0.17555 0.0
C40 C 0.35492 0.263 0.15479 0.0
H41 H 0.27812 0.2875 0.29431 0.0
H42 H 0.31999 0.20416 0.32901 0.0
H43 H 0.31134 0.19616 0.26036 0.0
H44 H 0.34877 0.19572 0.24918 0.0
H45 H 0.33864 0.18458 0.28516 0.0
H46 H 0.37895 0.2527 0.31452 0.0
H47 H 0.38282 0.21704 0.30708 0.0
H48 H 0.39872 0.24711 0.28403 0.0
H49 H 0.26824 0.3496 0.20904 0.0
H50 H 0.31858 0.35192 0.13138 0.0
H51 H 0.34769 0.31883 0.15297 0.0
H52 H 0.32644 0.34973 0.25536 0.0
H53 H 0.28647 0.34334 0.26457 0.0
H54 H 0.31311 0.32417 0.28224 0.0
H55 H 0.25471 0.28413 0.21565 0.0
H56 H 0.25995 0.27253 0.25109 0.0
H57 H 0.24727 0.30552 0.24463 0.0
H58 H 0.25692 0.26079 0.33598 0.0
C59 C 0.28786 0.26972 0.30123 0.0
C60 C 0.1211 0.8228 0.68731 0.0
C61 C 0.10499 0.84007 0.70198 0.0
C62 C 0.10642 0.83965 0.73235 0.0
C63 C 0.1424 0.80806 0.73276 0.0
C64 C 0.13963 0.80709 0.70305 0.0
C65 C 0.15995 0.78928 0.69076 0.0
H66 H 0.27408 0.71621 0.71275 0.0
C67 C 0.16587 0.79178 0.74246 0.0
C68 C 0.17603 0.78045 0.71795 0.0
H69 H 0.22855 0.7324 0.63173 0.0
H70 H 0.19471 0.75624 0.65674 0.0
H71 H 0.28211 0.77504 0.73601 0.0
H72 H 0.21047 0.69987 0.75053 0.0
H73 H 0.22183 0.71648 0.78406 0.0
H74 H 0.25012 0.70432 0.76379 0.0
H75 H 0.28719 0.7489 0.76288 0.0
H76 H 0.27061 0.77897 0.77093 0.0
C77 C 0.18316 0.80887 0.67099 0.0
C78 C 0.13866 0.76314 0.6754 0.0
C79 C 0.2063 0.79747 0.84695 0.0
C80 C 0.23213 0.7894 0.86099 0.0
C81 C 0.2478 0.77181 0.84608 0.0
C82 C 0.23903 0.76376 0.81757 0.0
C83 C 0.21475 0.77383 0.80331 0.0
C84 C 0.19845 0.78996 0.81811 0.0
C85 C 0.17476 0.80042 0.79889 0.0
C86 C 0.1799 0.78819 0.77006 0.0
C87 C 0.20329 0.77259 0.77287 0.0
C88 C 0.18335 0.83373 0.79885 0.0
C89 C 0.14203 0.78698 0.80969 0.0
C90 C 0.25641 0.72436 0.70041 0.0
C91 C 0.25382 0.72226 0.67027 0.0
C92 C 0.23107 0.73389 0.65498 0.0
C93 C 0.21144 0.74766 0.66955 0.0
C94 C 0.21488 0.75019 0.6997 0.0
C95 C 0.23694 0.73839 0.71456 0.0
C96 C 0.23842 0.74402 0.7463 0.0
C97 C 0.21317 0.7607 0.74824 0.0
C98 C 0.19952 0.76441 0.72092 0.0
C99 C 0.27123 0.7625 0.75472 0.0
C100 C 0.23 0.71474 0.76223 0.0
H101 H 0.12557 0.82481 0.77082 0.0
H102 H 0.12006 0.82217 0.66401 0.0
H103 H 0.11709 0.75519 0.68727 0.0
H104 H 0.14957 0.74454 0.67449 0.0
H105 H 0.13161 0.76892 0.6532 0.0
H106 H 0.19113 0.83072 0.68028 0.0
H107 H 0.17219 0.81121 0.64932 0.0
H108 H 0.20463 0.80119 0.66848 0.0
H109 H 0.19317 0.81047 0.85766 0.0
H110 H 0.268 0.76541 0.85579 0.0
H111 H 0.25243 0.75097 0.80737 0.0
H112 H 0.20903 0.84189 0.79958 0.0
H113 H 0.1743 0.84236 0.81786 0.0
H114 H 0.17499 0.84344 0.77919 0.0
H115 H 0.14089 0.76487 0.81822 0.0
H116 H 0.12364 0.78445 0.79233 0.0
H117 H 0.13603 0.79988 0.82729 0.0
H118 H 0.09443 0.85279 0.74427 0.0
C119 C 0.12485 0.82363 0.74777 0.0
C120 C 0.61391 0.27846 0.9125 0.0
C121 C 0.58956 0.25818 0.89894 0.0
C122 C 0.57721 0.26587 0.87197 0.0
C123 C 0.61346 0.31267 0.87292 0.0
C124 C 0.62558 0.30498 0.89913 0.0
C125 C 0.65237 0.32767 0.91065 0.0
H126 H 0.75556 0.4541 0.89549 0.0
C127 C 0.63154 0.34193 0.86505 0.0
C128 C 0.65458 0.3504 0.88718 0.0
H129 H 0.74848 0.39361 0.96643 0.0
H130 H 0.70341 0.36339 0.94308 0.0
H131 H 0.68505 0.45368 0.8914 0.0
H132 H 0.7371 0.4069 0.84265 0.0
H133 H 0.71219 0.42112 0.81858 0.0
H134 H 0.74115 0.44511 0.84044 0.0
H135 H 0.70556 0.46937 0.86064 0.0
H136 H 0.66586 0.44893 0.85735 0.0
C137 C 0.6432 0.33841 0.93957 0.0
C138 C 0.68159 0.31463 0.91288 0.0
C139 C 0.60227 0.39667 0.77526 0.0
C140 C 0.61462 0.42461 0.7645 0.0
C141 C 0.64163 0.44112 0.77847 0.0
C142 C 0.65559 0.43072 0.80288 0.0
C143 C 0.64255 0.40338 0.81396 0.0
C144 C 0.61648 0.38659 0.80014 0.0
C145 C 0.6061 0.35803 0.81554 0.0
C146 C 0.62946 0.36107 0.84129 0.0
C147 C 0.65093 0.38774 0.83994 0.0
C148 C 0.57254 0.35544 0.825 0.0
C149 C 0.60955 0.33393 0.79511 0.0
C150 C 0.7443 0.43421 0.90576 0.0
C151 C 0.75569 0.42608 0.93276 0.0
C152 C 0.74008 0.40036 0.94573 0.0
C153 C 0.71393 0.38276 0.93203 0.0
C154 C 0.70284 0.39093 0.90501 0.0
C155 C 0.71763 0.41649 0.8925 0.0
C156 C 0.70108 0.42242 0.86462 0.0
C157 C 0.67472 0.39568 0.86204 0.0
C158 C 0.67618 0.37726 0.88564 0.0
C159 C 0.68885 0.45008 0.86841 0.0
C160 C 0.72397 0.4242 0.84015 0.0
H161 H 0.57849 0.29734 0.83858 0.0
H162 H 0.62383 0.27406 0.93338 0.0
H163 H 0.68129 0.29945 0.89495 0.0
H164 H 0.70357 0.3308 0.9109 0.0
H165 H 0.68271 0.30255 0.93341 0.0
H166 H 0.61773 0.33715 0.93961 0.0
H167 H 0.64931 0.32529 0.95801 0.0
H168 H 0.65396 0.36129 0.94358 0.0
H169 H 0.58156 0.38338 0.7651 0.0
H170 H 0.65203 0.46238 0.77049 0.0
H171 H 0.67597 0.4446 0.81236 0.0
H172 H 0.57029 0.3757 0.83519 0.0
H173 H 0.55566 0.35126 0.80622 0.0
H174 H 0.56558 0.33832 0.84115 0.0
H175 H 0.6314 0.34037 0.78335 0.0
H176 H 0.61123 0.31393 0.80668 0.0
H177 H 0.58982 0.32919 0.77887 0.0
H178 H 0.55876 0.25087 0.86053 0.0
C179 C 0.58889 0.2929 0.85902 0.0
C180 C 0.92819 0.8003 0.38762 0.0
C181 C 0.91884 0.81274 0.41222 0.0
C182 C 0.89218 0.7978 0.42588 0.0
C183 C 0.88518 0.75856 0.39209 0.0
C184 C 0.91109 0.77298 0.37809 0.0
C185 C 0.91769 0.75535 0.35319 0.0
H186 H 0.87718 0.62992 0.27611 0.0
C187 C 0.8728 0.73053 0.37789 0.0
C188 C 0.89169 0.72813 0.35498 0.0
H189 H 0.95362 0.70211 0.26129 0.0
H190 H 0.93894 0.72723 0.3012 0.0
H191 H 0.88711 0.62972 0.34546 0.0
H192 H 0.82644 0.66773 0.28917 0.0
H193 H 0.8051 0.65022 0.3179 0.0
H194 H 0.82158 0.62957 0.29345 0.0
H195 H 0.85391 0.60837 0.32625 0.0
H196 H 0.85055 0.62391 0.36067 0.0
C197 C 0.95016 0.74885 0.35899 0.0
C198 C 0.91469 0.77228 0.32498 0.0
C199 C 0.77719 0.66487 0.41829 0.0
C200 C 0.76017 0.63685 0.41204 0.0
C201 C 0.76974 0.6223 0.38909 0.0
C202 C 0.79551 0.63532 0.373 0.0
C203 C 0.81231 0.66328 0.37983 0.0
C204 C 0.80298 0.67736 0.40231 0.0
C205 C 0.82378 0.70644 0.40748 0.0
C206 C 0.84705 0.70787 0.3842 0.0
C207 C 0.8403 0.68266 0.36784 0.0
C208 C 0.83929 0.70628 0.4382 0.0
C209 C 0.80383 0.72916 0.40245 0.0
C210 C 0.89107 0.651 0.28147 0.0
C211 C 0.91675 0.66375 0.26508 0.0
C212 C 0.93352 0.69163 0.27297 0.0
C213 C 0.92508 0.70623 0.2964 0.0
C214 C 0.89946 0.69308 0.3125 0.0
C215 C 0.88293 0.66587 0.30478 0.0
C216 C 0.85626 0.65498 0.32405 0.0
C217 C 0.8593 0.67999 0.34453 0.0
C218 C 0.8848 0.70251 0.3379 0.0
C219 C 0.86192 0.62769 0.3399 0.0
C220 C 0.82561 0.65012 0.30532 0.0
H221 H 0.85542 0.76129 0.42767 0.0
H222 H 0.94861 0.81121 0.37661 0.0
H223 H 0.89375 0.7816 0.32485 0.0
H224 H 0.91171 0.75866 0.30571 0.0
H225 H 0.93533 0.79023 0.32263 0.0
H226 H 0.95313 0.74217 0.38182 0.0
H227 H 0.96881 0.76816 0.35487 0.0
H228 H 0.95386 0.73101 0.34591 0.0
H229 H 0.77058 0.67719 0.43526 0.0
H230 H 0.75763 0.60059 0.38378 0.0
H231 H 0.80151 0.62303 0.35594 0.0
H232 H 0.84122 0.68427 0.44502 0.0
H233 H 0.82566 0.71425 0.4544 0.0
H234 H 0.86354 0.719 0.43957 0.0
H235 H 0.78598 0.72261 0.38466 0.0
H236 H 0.8175 0.75031 0.3956 0.0
H237 H 0.79143 0.73191 0.42205 0.0
H238 H 0.88414 0.8069 0.44445 0.0
C239 C 0.8754 0.77113 0.416 0.0
C240 C 0.71098 0.72151 0.92587 0.0
C241 C 0.73171 0.70472 0.91832 0.0
C242 C 0.73695 0.70159 0.88904 0.0
C243 C 0.70365 0.73394 0.87553 0.0
C244 C 0.69688 0.73558 0.90406 0.0
C245 C 0.67405 0.75421 0.90791 0.0
H246 H 0.59778 0.85193 0.85187 0.0
C247 C 0.68738 0.75284 0.85845 0.0
C248 C 0.66928 0.76422 0.87709 0.0
H249 H 0.59737 0.81822 0.9389 0.0
H250 H 0.62767 0.78496 0.92521 0.0
H251 H 0.58801 0.79092 0.81955 0.0
H252 H 0.6698 0.85526 0.84403 0.0
H253 H 0.67405 0.84447 0.80888 0.0
H254 H 0.64235 0.8609 0.81597 0.0
H255 H 0.59874 0.82431 0.80029 0.0
H256 H 0.61383 0.79352 0.79153 0.0
C257 C 0.64385 0.73522 0.91953 0.0
C258 C 0.68997 0.7794 0.92781 0.0
C259 C 0.71988 0.78047 0.75691 0.0
C260 C 0.71222 0.80054 0.73701 0.0
C261 C 0.68728 0.81338 0.74237 0.0
C262 C 0.67169 0.80781 0.76812 0.0
C263 C 0.68131 0.78941 0.78884 0.0
C264 C 0.70424 0.77528 0.78259 0.0
C265 C 0.71129 0.75629 0.80697 0.0
C266 C 0.68972 0.76233 0.82938 0.0
C267 C 0.67253 0.78202 0.81877 0.0
C268 C 0.70233 0.72466 0.79676 0.0
C269 C 0.74604 0.76686 0.81661 0.0
C270 C 0.60414 0.83731 0.86795 0.0
C271 C 0.59524 0.83785 0.89654 0.0
C272 C 0.6036 0.81811 0.91667 0.0
C273 C 0.6215 0.79898 0.90877 0.0
C274 C 0.63143 0.79967 0.88049 0.0
C275 C 0.62216 0.81815 0.86045 0.0
C276 C 0.63514 0.81603 0.83147 0.0
C277 C 0.65361 0.79313 0.83741 0.0
C278 C 0.65171 0.78398 0.8663 0.0
C279 C 0.60766 0.80587 0.80935 0.0
C280 C 0.65633 0.84564 0.8244 0.0
H281 H 0.72845 0.71332 0.84582 0.0
H282 H 0.70616 0.72384 0.94821 0.0
H283 H 0.7142 0.78843 0.92144 0.0
H284 H 0.67835 0.79755 0.9267 0.0
H285 H 0.69107 0.77209 0.95058 0.0
H286 H 0.64087 0.71238 0.91322 0.0
H287 H 0.64405 0.73583 0.94341 0.0
H288 H 0.62266 0.7415 0.91046 0.0
H289 H 0.73858 0.76991 0.75308 0.0
H290 H 0.68094 0.82896 0.72736 0.0
H291 H 0.65358 0.81893 0.7714 0.0
H292 H 0.68517 0.72179 0.77811 0.0
H293 H 0.723 0.71727 0.79 0.0
H294 H 0.69073 0.70989 0.81357 0.0
H295 H 0.75217 0.79066 0.81844 0.0
H296 H 0.75209 0.7586 0.83788 0.0
H297 H 0.76136 0.76069 0.80076 0.0
H298 H 0.75292 0.68884 0.88274 0.0
C299 C 0.72296 0.71602 0.86764 0.0
C300 C 0.88329 0.22991 0.40957 0.0
C301 C 0.89908 0.21224 0.39509 0.0
C302 C 0.89836 0.21289 0.36474 0.0
C303 C 0.86402 0.24595 0.36379 0.0
C304 C 0.86598 0.24657 0.39352 0.0
C305 C 0.84661 0.26558 0.40532 0.0
H306 H 0.73472 0.34069 0.38079 0.0
C307 C 0.84236 0.26383 0.35355 0.0
C308 C 0.8324 0.27584 0.37774 0.0
H309 H 0.77836 0.32418 0.4626 0.0
H310 H 0.81394 0.30173 0.43822 0.0
H311 H 0.73187 0.27921 0.35385 0.0
H312 H 0.7968 0.3606 0.34749 0.0
H313 H 0.79599 0.34414 0.31394 0.0
H314 H 0.76098 0.35277 0.32622 0.0
H315 H 0.72284 0.31009 0.3358 0.0
H316 H 0.74018 0.28537 0.31743 0.0
C317 C 0.82172 0.24671 0.42402 0.0
C318 C 0.8686 0.29061 0.42172 0.0
C319 C 0.80287 0.25812 0.24895 0.0
C320 C 0.77981 0.26951 0.234 0.0
C321 C 0.76788 0.29074 0.24734 0.0
C322 C 0.77683 0.29873 0.27586 0.0
C323 C 0.79768 0.28514 0.29136 0.0
C324 C 0.81142 0.26622 0.27752 0.0
C325 C 0.83348 0.25428 0.29734 0.0
C326 C 0.82961 0.26825 0.32563 0.0
C327 C 0.8082 0.28586 0.32204 0.0
C328 C 0.82178 0.22119 0.29852 0.0
C329 C 0.8668 0.26466 0.28644 0.0
C330 C 0.75195 0.33221 0.39344 0.0
C331 C 0.75347 0.33371 0.42361 0.0
C332 C 0.77671 0.32313 0.43931 0.0
C333 C 0.79716 0.30996 0.42513 0.0
C334 C 0.79429 0.30736 0.39496 0.0
C335 C 0.77248 0.3191 0.37965 0.0
C336 C 0.77269 0.31467 0.3478 0.0
C337 C 0.798 0.29797 0.34641 0.0
C338 C 0.81032 0.29334 0.37411 0.0
C339 C 0.74027 0.29655 0.33792 0.0
C340 C 0.78185 0.34448 0.33288 0.0
H341 H 0.88106 0.22887 0.32605 0.0
H342 H 0.88335 0.22992 0.43286 0.0
H343 H 0.89136 0.29697 0.4114 0.0
H344 H 0.85948 0.31034 0.42146 0.0
H345 H 0.87325 0.28442 0.44438 0.0
H346 H 0.81168 0.22581 0.41337 0.0
H347 H 0.83198 0.24209 0.44539 0.0
H348 H 0.80174 0.25634 0.42737 0.0
H349 H 0.81255 0.24179 0.23935 0.0
H350 H 0.75066 0.30036 0.23606 0.0
H351 H 0.76611 0.31426 0.28511 0.0
H352 H 0.79607 0.21526 0.30009 0.0
H353 H 0.82762 0.21111 0.27881 0.0
H354 H 0.83114 0.21107 0.3174 0.0
H355 H 0.86925 0.28507 0.27394 0.0
H356 H 0.88461 0.26969 0.30432 0.0
H357 H 0.87283 0.24852 0.2722 0.0
H358 H 0.91088 0.20003 0.35306 0.0
C359 C 0.88109 0.22973 0.34907 0.0
C360 C 0.42456 0.67692 0.32032 0.0
C361 C 0.4102 0.65099 0.33417 0.0
C362 C 0.38202 0.63487 0.32177 0.0
C363 C 0.38272 0.66984 0.2831 0.0
C364 C 0.41029 0.68603 0.29496 0.0
C365 C 0.4216 0.71318 0.27746 0.0
H366 H 0.39229 0.79875 0.1643 0.0
C367 C 0.37373 0.68472 0.25682 0.0
C368 C 0.3963 0.71047 0.25336 0.0
H369 H 0.47385 0.81485 0.22235 0.0
H370 H 0.4534 0.77036 0.24775 0.0
H371 H 0.34099 0.77237 0.20904 0.0
H372 H 0.39647 0.73748 0.15237 0.0
H373 H 0.36202 0.71102 0.15418 0.0
H374 H 0.36065 0.74617 0.13987 0.0
H375 H 0.33596 0.77254 0.17049 0.0
H376 H 0.31629 0.74277 0.19184 0.0
C377 C 0.42259 0.73931 0.29676 0.0
C378 C 0.45345 0.71224 0.26573 0.0
C379 C 0.27626 0.63811 0.19597 0.0
C380 C 0.26329 0.64624 0.16968 0.0
C381 C 0.27722 0.67256 0.15681 0.0
C382 C 0.30362 0.69053 0.16966 0.0
C383 C 0.3168 0.68206 0.19561 0.0
C384 C 0.30325 0.6562 0.20833 0.0
C385 C 0.32132 0.65055 0.2354 0.0
C386 C 0.34798 0.67714 0.23658 0.0
C387 C 0.34489 0.69554 0.21335 0.0
C388 C 0.29992 0.64917 0.26108 0.0
C389 C 0.33304 0.62278 0.23088 0.0
C390 C 0.40638 0.79295 0.18212 0.0
C391 C 0.43505 0.81098 0.19083 0.0
C392 C 0.45151 0.80202 0.215 0.0
C393 C 0.43971 0.77592 0.22972 0.0
C394 C 0.4112 0.7581 0.22016 0.0
C395 C 0.39545 0.76684 0.19644 0.0
C396 C 0.36681 0.74493 0.18742 0.0
C397 C 0.36704 0.72184 0.21015 0.0
C398 C 0.39289 0.72943 0.22971 0.0
C399 C 0.33839 0.75872 0.18955 0.0
C400 C 0.37141 0.73437 0.15685 0.0
H401 H 0.34699 0.63056 0.28848 0.0
H402 H 0.44613 0.68997 0.3292 0.0
H403 H 0.45312 0.69049 0.25741 0.0
H404 H 0.45968 0.72715 0.24747 0.0
H405 H 0.47218 0.71729 0.28293 0.0
H406 H 0.40073 0.73642 0.3085 0.0
H407 H 0.44233 0.742 0.31298 0.0
H408 H 0.42462 0.7595 0.28439 0.0
H409 H 0.26608 0.61791 0.20628 0.0
H410 H 0.26742 0.67938 0.13676 0.0
H411 H 0.31271 0.71036 0.15876 0.0
H412 H 0.28386 0.66396 0.25757 0.0
H413 H 0.28546 0.62717 0.264 0.0
H414 H 0.31295 0.65629 0.28152 0.0
H415 H 0.33993 0.62154 0.20832 0.0
H416 H 0.3541 0.62179 0.24428 0.0
H417 H 0.31462 0.60335 0.23514 0.0
H418 H 0.37063 0.61465 0.33136 0.0
C419 C 0.36834 0.64407 0.29657 0.0
C420 C 0.0935 0.27411 0.71503 0.0
C421 C 0.10358 0.26077 0.69136 0.0
C422 C 0.12965 0.27611 0.67701 0.0
C423 C 0.13597 0.31614 0.70972 0.0
C424 C 0.11015 0.30181 0.72388 0.0
C425 C 0.10361 0.31959 0.74865 0.0
H426 H 0.14506 0.44434 0.82646 0.0
C427 C 0.14841 0.34425 0.72375 0.0
C428 C 0.12962 0.34676 0.74669 0.0
H429 H 0.06802 0.37244 0.84046 0.0
H430 H 0.08239 0.3477 0.8002 0.0
H431 H 0.13527 0.44523 0.75678 0.0
H432 H 0.19555 0.40601 0.81242 0.0
H433 H 0.21689 0.42434 0.78403 0.0
H434 H 0.20035 0.44426 0.80912 0.0
H435 H 0.16843 0.46621 0.77636 0.0
H436 H 0.17197 0.45102 0.7418 0.0
C437 C 0.07114 0.32608 0.74277 0.0
C438 C 0.10665 0.3028 0.77698 0.0
C439 C 0.24529 0.40863 0.68421 0.0
C440 C 0.26277 0.43632 0.6908 0.0
C441 C 0.25305 0.45141 0.71317 0.0
C442 C 0.22681 0.43887 0.72893 0.0
C443 C 0.20972 0.41097 0.72213 0.0
C444 C 0.21905 0.39661 0.69983 0.0
C445 C 0.19784 0.36777 0.69449 0.0
C446 C 0.17443 0.3667 0.71757 0.0
C447 C 0.1814 0.3919 0.73396 0.0
C448 C 0.18263 0.3682 0.66367 0.0
C449 C 0.21731 0.34468 0.69966 0.0
C450 C 0.13101 0.42339 0.82085 0.0
C451 C 0.10526 0.41058 0.83717 0.0
C452 C 0.08821 0.38292 0.8289 0.0
C453 C 0.09647 0.36854 0.80525 0.0
C454 C 0.12222 0.38167 0.78931 0.0
C455 C 0.139 0.40871 0.7973 0.0
C456 C 0.16573 0.41955 0.77804 0.0
C457 C 0.16244 0.39469 0.75729 0.0
C458 C 0.13675 0.37231 0.76382 0.0
C459 C 0.1604 0.44708 0.76247 0.0
C460 C 0.19637 0.42402 0.79673 0.0
H461 H 0.16539 0.31329 0.67394 0.0
H462 H 0.07352 0.26313 0.7266 0.0
H463 H 0.12732 0.29312 0.777 0.0
H464 H 0.11016 0.31659 0.79615 0.0
H465 H 0.0858 0.28514 0.77965 0.0
H466 H 0.06807 0.33238 0.71983 0.0
H467 H 0.05248 0.30689 0.74722 0.0
H468 H 0.06757 0.3442 0.75551 0.0
H469 H 0.2516 0.39661 0.66681 0.0
H470 H 0.26607 0.47277 0.71878 0.0
H471 H 0.22084 0.45136 0.74584 0.0
H472 H 0.18114 0.39032 0.65685 0.0
H473 H 0.1962 0.36001 0.64758 0.0
H474 H 0.15825 0.35579 0.66216 0.0
H475 H 0.23499 0.35093 0.71763 0.0
H476 H 0.20328 0.32362 0.7063 0.0
H477 H 0.22986 0.34184 0.68018 0.0
H478 H 0.13762 0.26715 0.65833 0.0
C479 C 0.14575 0.30333 0.686 0.0
Tb480 Tb 0.97145 1.02473 0.56542 0.0
Tb481 Tb 0.03679 0.04286 0.54923 0.0
C482 C 0.91639 1.00207 0.57681 0.0
C483 C 0.89588 0.97563 0.58701 0.0
C484 C 0.90125 0.94829 0.58214 0.0
C485 C 0.88049 0.92373 0.59199 0.0
C486 C 0.85418 0.92629 0.60681 0.0
C487 C 0.84932 0.95386 0.61175 0.0
C488 C 0.86989 0.9782 0.60187 0.0
C489 C 1.00187 0.07514 0.58687 0.0
C490 C 0.02078 0.99509 0.59734 0.0
C491 C 0.09401 0.06377 0.5459 0.0
C492 C 0.11534 0.07928 0.52447 0.0
C493 C 0.12955 0.10831 0.52897 0.0
C494 C 0.14985 0.12354 0.50915 0.0
C495 C 0.15669 0.10999 0.48448 0.0
C496 C 0.1427 0.0808 0.48014 0.0
C497 C 0.12221 0.06559 0.49992 0.0
C498 C 1.00184 1.00302 0.51473 0.0
C499 C 0.98701 0.06908 0.51581 0.0
O500 O 0.92732 1.00183 0.5511 0.0
O501 O 0.93696 1.01604 0.5957 0.0
O502 O 0.01227 0.05282 0.58469 0.0
O503 O 0.97323 0.06939 0.57743 0.0
O504 O 0.9909 0.99391 0.59157 0.0
O505 O 0.04265 1.01421 0.58488 0.0
O506 O 0.07448 0.0778 0.55584 0.0
O507 O 0.08109 0.0367 0.54104 0.0
O508 O 1.00087 1.00469 0.54168 0.0
O509 O 0.02405 1.02374 0.50636 0.0
O510 O 0.016 0.07467 0.52641 0.0
O511 O 0.96654 0.04629 0.52442 0.0
H512 H 0.92133 0.94594 0.57075 0.0
H513 H 0.88488 0.90281 0.58783 0.0
H514 H 0.82985 0.95675 0.62374 0.0
H515 H 0.86552 0.99917 0.60595 0.0
H516 H 0.12482 0.11932 0.54782 0.0
H517 H 0.15981 0.14608 0.51298 0.0
H518 H 0.1478 0.06959 0.46159 0.0
H519 H 0.11185 0.04315 0.49594 0.0
Tb520 Tb 0.54559 0.03898 1.04685 0.0
Tb521 Tb 0.47519 1.01993 1.0289 0.0
C522 C 0.60344 0.05852 0.04903 0.0
C523 C 0.62517 0.08394 0.06151 0.0
C524 C 0.62582 0.1118 0.05079 0.0
C525 C 0.6461 0.13556 0.06342 0.0
C526 C 0.66607 0.13201 0.08705 0.0
C527 C 0.66571 0.10406 0.09734 0.0
C528 C 0.64563 0.08032 0.0846 0.0
C529 C 0.51166 0.99815 0.07869 0.0
C530 C 0.49943 0.07009 0.07399 0.0
C531 C 0.41889 0.99506 1.02943 0.0
C532 C 0.39838 0.96667 1.02508 0.0
C533 C 0.4099 0.94162 1.02467 0.0
C534 C 0.39004 0.91545 1.01672 0.0
C535 C 0.35851 0.9141 1.00876 0.0
C536 C 0.34712 0.93926 1.01035 0.0
C537 C 0.36684 0.96519 1.01852 0.0
C538 C 0.50171 0.06854 1.00162 0.0
C539 C 0.52232 0.99193 0.99733 0.0
O540 O 0.58493 0.06306 1.02745 0.0
O541 O 0.58914 0.03956 0.06737 0.0
O542 O 0.50923 1.00111 0.0517 0.0
O543 O 0.5346 1.01805 0.08867 0.0
O544 O 0.52838 0.07298 0.06612 0.0
O545 O 0.47667 0.04824 0.06556 0.0
O546 O 0.43748 0.99876 0.05266 0.0
O547 O 0.43247 1.00695 1.00637 0.0
O548 O 0.51342 0.05317 1.01909 0.0
O549 O 0.4725 0.05616 0.99886 0.0
O550 O 0.49274 0.99124 1.00169 0.0
O551 O 0.5457 1.00905 1.01183 0.0
H552 H 0.61054 0.11534 1.03281 0.0
H553 H 0.64605 0.15673 0.05469 0.0
H554 H 0.68036 0.10049 0.11579 0.0
H555 H 0.64573 0.05908 0.09315 0.0
H556 H 0.43433 0.94248 1.0296 0.0
H557 H 0.39956 0.89649 1.01607 0.0
H558 H 0.3233 0.93943 1.00381 0.0
H559 H 0.35768 0.98442 1.01849 0.0
Tb560 Tb 0.51016 0.56491 0.55965 0.0
Tb561 Tb 0.5104 0.50708 0.53834 0.0
C562 C 0.50665 0.61621 0.56525 0.0
C563 C 0.48204 0.62858 0.57654 0.0
C564 C 0.47585 0.65388 0.56438 0.0
C565 C 0.45036 0.66411 0.57284 0.0
C566 C 0.43057 0.6491 0.59356 0.0
C567 C 0.43728 0.624 0.60605 0.0
C568 C 0.46267 0.61379 0.59754 0.0
C569 C 0.52842 0.53053 0.59877 0.0
C570 C 0.45234 0.51658 0.57307 0.0
C571 C 0.51317 0.45556 0.53252 0.0
C572 C 0.53843 0.44207 0.52456 0.0
C573 C 0.56954 0.4545 0.53258 0.0
C574 C 0.59346 0.44208 0.52419 0.0
C575 C 0.58682 0.41714 0.50729 0.0
C576 C 0.55556 0.4048 0.4993 0.0
C577 C 0.53161 0.41713 0.50792 0.0
C578 C 0.49183 0.54167 0.49947 0.0
C579 C 0.56838 0.55525 0.52565 0.0
O580 O 0.49876 0.60187 0.54137 0.0
O581 O 0.52164 0.60274 0.58386 0.0
O582 O 0.53537 0.53256 0.57259 0.0
O583 O 0.51254 0.54945 0.60396 0.0
O584 O 0.46312 0.54461 0.57097 0.0
O585 O 0.46758 0.49826 0.56277 0.0
O586 O 0.5172 0.46872 0.5573 0.0
O587 O 0.50247 0.47051 0.5122 0.0
O588 O 0.48508 0.53924 0.52565 0.0
O589 O 0.50785 0.52296 0.49401 0.0
O590 O 0.55808 0.52725 0.52885 0.0
O591 O 0.55241 0.57361 0.53455 0.0
H592 H 0.49027 0.66533 0.54782 0.0
H593 H 0.44567 0.68331 0.56254 0.0
H594 H 0.42284 0.61214 0.62238 0.0
H595 H 0.46683 0.59403 0.60703 0.0
H596 H 0.57543 0.47393 0.54523 0.0
H597 H 0.61715 0.45199 0.53108 0.0
H598 H 0.54956 0.38592 0.48587 0.0
H599 H 0.50777 0.4074 0.50128 0.0
Tb600 Tb 1.00779 0.56037 1.03281 0.0
Tb601 Tb 0.01166 0.51053 0.07053 0.0
C602 C 0.9883 0.59872 1.0048 0.0
C603 C 0.95957 0.60973 1.0052 0.0
C604 C 0.93131 0.59371 0.99315 0.0
C605 C 0.90434 0.60423 0.99328 0.0
C606 C 0.90488 0.63108 1.00537 0.0
C607 C 0.93306 0.64704 1.01766 0.0
C608 C 0.96015 0.63647 1.01753 0.0
C609 C 0.0637 0.56288 0.05731 0.0
C610 C 0.98448 0.55842 0.09726 0.0
C611 C 0.02915 0.47163 0.09959 0.0
C612 C 0.05658 0.4591 0.10062 0.0
C613 C 0.08349 0.4725 0.08654 0.0
C614 C 0.11052 0.46192 0.09013 0.0
C615 C 0.11098 0.43791 0.10797 0.0
C616 C 0.08354 0.42398 0.12108 0.0
C617 C 0.05657 0.43453 0.11745 0.0
C618 C 0.95572 0.50832 1.04592 0.0
C619 C 0.03544 0.5128 1.00612 0.0
O620 O 0.98504 0.57242 0.99574 0.0
O621 O 1.00748 0.6041 1.0274 0.0
O622 O 0.03797 0.55356 0.06849 0.0
O623 O 0.05857 0.5735 1.03215 0.0
O624 O 0.9813 0.56736 0.0703 0.0
O625 O 0.99877 0.53733 0.1032 0.0
O626 O 0.03438 0.49841 0.10758 0.0
O627 O 0.01084 0.46665 0.07642 0.0
O628 O 0.98154 0.51733 1.03485 0.0
O629 O 0.96076 0.49799 0.07122 0.0
O630 O 0.03825 0.50354 1.03304 0.0
O631 O 0.02122 0.53395 1.00017 0.0
H632 H 0.92997 0.57312 0.98324 0.0
H633 H 0.88322 0.59165 0.98305 0.0
H634 H 0.93421 0.66775 1.02724 0.0
H635 H 0.9816 0.6493 1.02693 0.0
H636 H 0.08388 0.49163 0.07354 0.0
H637 H 0.13135 0.4732 0.07992 0.0
H638 H 0.08307 0.40517 0.13458 0.0
H639 H 0.03595 0.42393 0.12839 0.0
H640 H 0.26833 0.17182 0.3371 0.0
H641 H 0.26883 0.24748 0.38665 0.0
H642 H 0.23905 0.14182 0.37395 0.0
H643 H 0.23904 0.21745 0.42332 0.0
H644 H 0.21046 0.15069 0.4951 0.0
H645 H 0.24392 0.1793 0.46007 0.0
H646 H 0.18491 0.13487 0.39077 0.0
H647 H 0.15104 0.10667 0.42565 0.0
C648 C 0.26254 0.18199 0.35606 0.0
C649 C 0.27087 0.21199 0.35904 0.0
C650 C 0.24551 0.16485 0.37698 0.0
C651 C 0.23666 0.17732 0.40141 0.0
C652 C 0.24574 0.20724 0.4048 0.0
C653 C 0.26256 0.22443 0.38374 0.0
C654 C 0.20447 0.14714 0.4724 0.0
C655 C 0.17796 0.12644 0.46321 0.0
C656 C 0.2237 0.16349 0.45237 0.0
C657 C 0.217 0.15931 0.42273 0.0
C658 C 0.19087 0.13828 0.4135 0.0
C659 C 0.17151 0.12208 0.43351 0.0
H660 H 0.23092 0.84239 0.8822 0.0
H661 H 0.2635 0.76538 0.90444 0.0
H662 H 0.25795 0.86548 0.92499 0.0
H663 H 0.29258 0.78985 0.94631 0.0
H664 H 0.37497 0.87547 0.97301 0.0
H665 H 0.3402 0.83901 0.94376 0.0
H666 H 0.26106 0.85776 0.98376 0.0
H667 H 0.29575 0.89319 1.01442 0.0
C668 C 0.24307 0.82997 0.89642 0.0
C669 C 0.24499 0.80188 0.88944 0.0
C670 C 0.25877 0.84341 0.92094 0.0
C671 C 0.27732 0.82941 0.93878 0.0
C672 C 0.27844 0.80105 0.93272 0.0
C673 C 0.26202 0.78724 0.90855 0.0
C674 C 0.35031 0.87109 0.97659 0.0
C675 C 0.33821 0.88778 0.99577 0.0
C676 C 0.3304 0.85021 0.95971 0.0
C677 C 0.29806 0.84591 0.96141 0.0
C678 C 0.28597 0.86093 0.98199 0.0
C679 C 0.30588 0.88137 0.9993 0.0
H680 H 0.59289 0.40108 0.71136 0.0
H681 H 0.6022 0.47793 0.76128 0.0
H682 H 0.57125 0.42462 0.67016 0.0
H683 H 0.58111 0.50131 0.72056 0.0
H684 H 0.51334 0.52618 0.65468 0.0
H685 H 0.53194 0.49861 0.69348 0.0
H686 H 0.58714 0.46554 0.63407 0.0
H687 H 0.56827 0.49349 0.59483 0.0
C688 C 0.59009 0.42285 0.71364 0.0
C689 C 0.59938 0.43759 0.73968 0.0
C690 C 0.57799 0.43646 0.68994 0.0
C691 C 0.57437 0.46495 0.69192 0.0
C692 C 0.5832 0.47933 0.71818 0.0
C693 C 0.59554 0.46594 0.74157 0.0
C694 C 0.52941 0.51302 0.64975 0.0
C695 C 0.53943 0.51224 0.6216 0.0
C696 C 0.54019 0.49721 0.67211 0.0
C697 C 0.56133 0.47995 0.66713 0.0
C698 C 0.57075 0.47845 0.63873 0.0
C699 C 0.56003 0.49453 0.61624 0.0
H700 H 0.94046 0.68587 0.21323 0.0
H701 H 0.91422 0.6057 0.25972 0.0
H702 H 0.95602 0.6606 0.17338 0.0
H703 H 0.9285 0.58032 0.21942 0.0
H704 H 0.98742 0.54649 0.15537 0.0
H705 H 0.97117 0.57156 0.19492 0.0
H706 H 0.93843 0.62878 0.13409 0.0
H707 H 0.95536 0.60399 0.09447 0.0
C708 C 0.93799 0.66286 0.2151 0.0
C709 C 0.92601 0.64807 0.2401 0.0
C710 C 0.94658 0.6482 0.1919 0.0
C711 C 0.94363 0.61818 0.19279 0.0
C712 C 0.93159 0.6034 0.21776 0.0
C713 C 0.92295 0.61804 0.24092 0.0
C714 C 0.97662 0.56432 0.1503 0.0
C715 C 0.97278 0.57302 0.12146 0.0
C716 C 0.96708 0.57873 0.17314 0.0
C717 C 0.95334 0.60243 0.16808 0.0
C718 C 0.94926 0.61098 0.13917 0.0
C719 C 0.95878 0.59652 0.11628 0.0
H720 H 0.47967 0.19856 0.19846 0.0
H721 H 0.40828 0.19879 0.13154 0.0
H722 H 0.49988 0.16412 0.17095 0.0
H723 H 0.42886 0.16505 0.10394 0.0
H724 H 0.44173 0.07446 0.0887 0.0
H725 H 0.42767 0.11316 0.11423 0.0
H726 H 0.52444 0.15652 0.12379 0.0
H727 H 0.53884 0.11752 0.09808 0.0
C728 C 0.46865 0.19163 0.17769 0.0
C729 C 0.44225 0.20121 0.16726 0.0
C730 C 0.48033 0.17209 0.1619 0.0
C731 C 0.46564 0.16166 0.13554 0.0
C732 C 0.44034 0.17245 0.12442 0.0
C733 C 0.42879 0.19204 0.14008 0.0
C734 C 0.46015 0.0921 0.09629 0.0
C735 C 0.49144 0.09289 0.09125 0.0
C736 C 0.45201 0.11442 0.11072 0.0
C737 C 0.47493 0.13801 0.12062 0.0
C738 C 0.50633 0.13857 0.11633 0.0
C739 C 0.51451 0.11626 0.10161 0.0
H740 H 0.12539 0.87271 0.65509 0.0
H741 H 0.04947 0.85415 0.71273 0.0
H742 H 0.10273 0.90926 0.6311 0.0
H743 H 0.02729 0.89175 0.6892 0.0
H744 H 0.98481 0.94457 0.61747 0.0
H745 H 1.00303 0.90562 0.64289 0.0
H746 H 0.09703 0.95683 0.64467 0.0
H747 H 0.07913 0.99531 0.61918 0.0
C748 C 0.10362 0.87613 0.66243 0.0
C749 C 0.08929 0.86047 0.68589 0.0
C750 C 0.09086 0.89742 0.64893 0.0
C751 C 0.06347 0.90373 0.65855 0.0
C752 C 0.04842 0.88741 0.68131 0.0
C753 C 0.06126 0.86604 0.69491 0.0
C754 C 0.00929 0.94762 0.62366 0.0
C755 C 0.03056 0.97294 0.61603 0.0
C756 C 0.01971 0.92531 0.63819 0.0
C757 C 0.05155 0.92795 0.6453 0.0
C758 C 0.07247 0.95382 0.63884 0.0
C759 C 0.06213 0.97599 0.62438 0.0
H760 H 0.76118 0.44666 0.98741 0.0
H761 H 0.81374 0.44483 0.91208 0.0
H762 H 0.8083 0.47084 1.01416 0.0
H763 H 0.86147 0.46767 0.93908 0.0
H764 H 0.94247 0.52232 0.99002 0.0
H765 H 0.89336 0.50737 0.96211 0.0
H766 H 0.8524 0.46016 1.03618 0.0
H767 H 0.9008 0.47665 0.06422 0.0
C768 C 0.78293 0.45156 0.97658 0.0
C769 C 0.78385 0.44379 0.94772 0.0
C770 C 0.81009 0.46519 0.99197 0.0
C771 C 0.8391 0.4709 0.97912 0.0
C772 C 0.83971 0.46401 0.9498 0.0
C773 C 0.81236 0.45081 0.93425 0.0
C774 C 0.92273 0.5092 1.0004 0.0
C775 C 0.92548 0.50078 1.02935 0.0
C776 C 0.89459 0.50029 0.9843 0.0
C777 C 0.8686 0.48235 0.99665 0.0
C778 C 0.87145 0.47437 1.02585 0.0
C779 C 0.89939 0.48364 1.04199 0.0
H780 H 0.75198 0.64357 0.46977 0.0
H781 H 0.70583 0.5987 0.39429 0.0
H782 H 0.70655 0.62383 0.49736 0.0
H783 H 0.66092 0.57798 0.42253 0.0
H784 H 0.59958 0.52524 0.49239 0.0
H785 H 0.64606 0.54387 0.4653 0.0
H786 H 0.65038 0.62882 0.49747 0.0
H787 H 0.6037 0.61036 0.52429 0.0
C788 C 0.73219 0.62967 0.45887 0.0
C789 C 0.73279 0.62317 0.42945 0.0
C790 C 0.70613 0.61819 0.47487 0.0
C791 C 0.68001 0.59941 0.46217 0.0
C792 C 0.68076 0.59221 0.43305 0.0
C793 C 0.70668 0.60405 0.41687 0.0
C794 C 0.61052 0.54788 0.49387 0.0
C795 C 0.59784 0.56628 0.51063 0.0
C796 C 0.63706 0.55857 0.47815 0.0
C797 C 0.65194 0.58785 0.47915 0.0
C798 C 0.63963 0.60613 0.49636 0.0
C799 C 0.61279 0.59554 0.51169 0.0
H800 H 0.27782 0.40128 0.19096 0.0
H801 H 0.25995 0.34665 0.11634 0.0
H802 H 0.23723 0.42544 0.1736 0.0
H803 H 0.21892 0.37058 0.09906 0.0
H804 H 0.15506 0.43129 0.07051 0.0
H805 H 0.20345 0.41553 0.08212 0.0
H806 H 0.18088 0.40722 0.17169 0.0
H807 H 0.13338 0.42351 0.16029 0.0
C808 C 0.26551 0.3948 0.17059 0.0
C809 C 0.27171 0.37191 0.15515 0.0
C810 C 0.24221 0.40851 0.16071 0.0
C811 C 0.22447 0.3995 0.13527 0.0
C812 C 0.23225 0.37804 0.1187 0.0
C813 C 0.25573 0.36437 0.12856 0.0
C814 C 0.16069 0.42631 0.09268 0.0
C815 C 0.14035 0.42843 0.11447 0.0
C816 C 0.18824 0.41716 0.09929 0.0
C817 C 0.19608 0.41035 0.12784 0.0
C818 C 0.17581 0.41277 0.14956 0.0
C819 C 0.14833 0.4217 0.14296 0.0
H820 H 0.62156 0.22605 0.934 0.0
H821 H 0.52978 0.22428 0.89621 0.0
H822 H 0.60137 0.18193 0.95991 0.0
H823 H 0.51017 0.17867 0.92001 0.0
H824 H 0.47369 0.11183 0.9869 0.0
H825 H 0.4951 0.15697 0.96279 0.0
H826 H 0.58363 0.13284 0.95981 0.0
H827 H 0.56209 0.08818 0.98532 0.0
C828 C 0.59702 0.21636 0.93107 0.0
C829 C 0.57737 0.22945 0.91311 0.0
C830 C 0.58546 0.19049 0.94569 0.0
C831 C 0.55389 0.17635 0.94251 0.0
C832 C 0.53445 0.18896 0.92381 0.0
C833 C 0.54591 0.21511 0.90957 0.0
C834 C 0.49784 0.11635 0.98132 0.0
C835 C 0.51631 0.09658 0.98836 0.0
C836 C 0.51014 0.14221 0.9671 0.0
C837 C 0.54122 0.14891 0.95877 0.0
C838 C 0.55979 0.12902 0.96611 0.0
C839 C 0.54752 0.10329 0.98088 0.0
H840 H 0.93549 0.86595 0.38578 0.0
H841 H 0.94019 0.8231 0.46772 0.0
H842 H 0.95516 0.91253 0.40925 0.0
H843 H 0.96045 0.86906 0.49105 0.0
H844 H 0.96132 0.95423 0.53198 0.0
H845 H 0.9432 0.90929 0.50597 0.0
H846 H 0.99681 0.94567 0.4336 0.0
H847 H 0.01408 0.99097 0.45951 0.0
C848 C 0.94145 0.86644 0.40867 0.0
C849 C 0.93614 0.84077 0.42485 0.0
C850 C 0.95264 0.89318 0.42224 0.0
C851 C 0.95893 0.89492 0.45235 0.0
C852 C 0.95507 0.86897 0.46808 0.0
C853 C 0.94377 0.84245 0.45461 0.0
C854 C 0.96903 0.95271 0.51043 0.0
C855 C 0.98922 0.97624 0.49793 0.0
C856 C 0.9589 0.92675 0.49551 0.0
C857 C 0.96879 0.92336 0.46761 0.0
C858 C 0.98844 0.94725 0.45486 0.0
C859 C 0.99848 0.9733 0.4698 0.0
H860 H 0.27217 0.67259 0.68388 0.0
H861 H 0.28611 0.74305 0.62284 0.0
H862 H 0.31344 0.65444 0.66288 0.0
H863 H 0.32706 0.72452 0.60136 0.0
H864 H 0.4256 0.70447 0.6022 0.0
H865 H 0.38043 0.72085 0.61733 0.0
H866 H 0.32749 0.63316 0.61905 0.0
H867 H 0.3725 0.61675 0.60361 0.0
C868 C 0.28384 0.68399 0.66573 0.0
C869 C 0.27604 0.70932 0.6551 0.0
C870 C 0.30731 0.67348 0.65356 0.0
C871 C 0.32364 0.68814 0.63056 0.0
C872 C 0.31513 0.71295 0.61928 0.0
C873 C 0.29147 0.72337 0.63135 0.0
C874 C 0.40421 0.68871 0.6054 0.0
C875 C 0.40278 0.65927 0.60189 0.0
C876 C 0.37831 0.69811 0.61404 0.0
C877 C 0.35041 0.67829 0.61944 0.0
C878 C 0.34879 0.64891 0.61544 0.0
C879 C 0.37464 0.63952 0.6067 0.0
H880 H 0.69512 0.80969 0.68067 0.0
H881 H 0.77528 0.81538 0.73908 0.0
H882 H 0.72892 0.83304 0.64302 0.0
H883 H 0.80882 0.83945 0.70222 0.0
H884 H 0.86789 0.87812 0.63249 0.0
H885 H 0.83275 0.84031 0.65814 0.0
H886 H 0.75626 0.88023 0.63447 0.0
H887 H 0.79085 0.91661 0.6073 0.0
C888 C 0.71999 0.81567 0.68532 0.0
C889 C 0.73255 0.81082 0.7128 0.0
C890 C 0.73938 0.82914 0.66384 0.0
C891 C 0.77166 0.83844 0.66957 0.0
C892 C 0.78423 0.83221 0.6967 0.0
C893 C 0.76494 0.81847 0.71798 0.0
C894 C 0.84339 0.87828 0.63202 0.0
C895 C 0.83231 0.90074 0.61836 0.0
C896 C 0.82327 0.85679 0.64705 0.0
C897 C 0.79171 0.85746 0.64895 0.0
C898 C 0.7803 0.87879 0.63348 0.0
C899 C 0.8003 0.90002 0.61823 0.0
H900 H 0.71819 0.25542 0.21844 0.0
H901 H 0.80842 0.25312 0.18796 0.0
H902 H 0.69325 0.22697 0.1778 0.0
H903 H 0.78327 0.22466 0.14668 0.0
H904 H 0.7255 0.13773 0.11004 0.0
H905 H 0.75476 0.17595 0.14077 0.0
H906 H 0.68192 0.22262 0.12735 0.0
H907 H 0.65177 0.18356 0.09809 0.0
C908 C 0.73276 0.24962 0.20253 0.0
C909 C 0.76532 0.25648 0.20651 0.0
C910 C 0.7184 0.23324 0.17911 0.0
C911 C 0.73622 0.22335 0.15898 0.0
C912 C 0.76886 0.23153 0.16206 0.0
C913 C 0.78326 0.24788 0.18564 0.0
C914 C 0.71572 0.15615 0.11362 0.0
C915 C 0.686 0.15727 0.10201 0.0
C916 C 0.73276 0.17833 0.13089 0.0
C917 C 0.72058 0.20228 0.1368 0.0
C918 C 0.69175 0.20425 0.12366 0.0
C919 C 0.6746 0.18196 0.10658 0.0
H920 H 0.38012 0.62613 0.3817 0.0
H921 H 0.47162 0.6503 0.34782 0.0
H922 H 0.40077 0.60232 0.42239 0.0
H923 H 0.49267 0.62723 0.38925 0.0
H924 H 0.51001 0.5504 0.44444 0.0
H925 H 0.49207 0.5797 0.40673 0.0
H926 H 0.43208 0.60626 0.46627 0.0
H927 H 0.44968 0.57613 0.50394 0.0
C928 C 0.40478 0.62662 0.38303 0.0
C929 C 0.42406 0.63991 0.36108 0.0
C930 C 0.41675 0.61315 0.40668 0.0
C931 C 0.44846 0.61247 0.40926 0.0
C932 C 0.46802 0.62679 0.3879 0.0
C933 C 0.45603 0.64038 0.36422 0.0
C934 C 0.49305 0.56256 0.44956 0.0
C935 C 0.48128 0.56084 0.47726 0.0
C936 C 0.48292 0.57966 0.42791 0.0
C937 C 0.46058 0.59561 0.4332 0.0
C938 C 0.44906 0.59414 0.46114 0.0
C939 C 0.4593 0.57701 0.48288 0.0
H940 H 0.10815 0.46859 0.84359 0.0
H941 H 0.08148 0.38767 0.88869 0.0
H942 H 0.09352 0.49328 0.88426 0.0
H943 H 0.06562 0.41223 0.92889 0.0
H944 H 0.06496 0.46746 1.0086 0.0
H945 H 0.08268 0.44347 0.9688 0.0
H946 H 0.05031 0.50136 0.90849 0.0
H947 H 0.03324 0.52558 0.9482 0.0
C948 C 0.09927 0.45595 0.86216 0.0
C949 C 0.09613 0.42591 0.86246 0.0
C950 C 0.09043 0.47018 0.88553 0.0
C951 C 0.07814 0.45496 0.9102 0.0
C952 C 0.07522 0.42495 0.91061 0.0
C953 C 0.084 0.41071 0.8872 0.0
C954 C 0.06177 0.47522 0.98687 0.0
C955 C 0.04761 0.49864 0.98188 0.0
C956 C 0.07176 0.46124 0.96388 0.0
C957 C 0.06802 0.47023 0.93505 0.0
C958 C 0.05414 0.49387 0.93019 0.0
C959 C 0.04413 0.50778 0.95314 0.0
H960 H 0.60787 0.89459 0.88131 0.0
H961 H 0.5477 0.83211 0.93353 0.0
H962 H 0.5866 0.93263 0.90087 0.0
H963 H 0.52725 0.87041 0.95391 0.0
H964 H 0.48301 0.9446 0.97328 0.0
H965 H 0.49705 0.90766 0.94435 0.0
H966 H 0.5929 0.95456 0.94844 0.0
H967 H 0.57896 0.99152 0.9768 0.0
C968 C 0.58971 0.88888 0.89659 0.0
C969 C 0.57961 0.86032 0.90601 0.0
C970 C 0.57777 0.91075 0.90802 0.0
C971 C 0.55549 0.90457 0.92915 0.0
C972 C 0.54427 0.87585 0.93754 0.0
C973 C 0.55623 0.85395 0.92611 0.0
C974 C 0.50699 0.94723 0.96762 0.0
C975 C 0.52991 0.97094 0.97749 0.0
C976 C 0.51504 0.92598 0.95121 0.0
C977 C 0.54608 0.92817 0.94417 0.0
C978 C 0.56871 0.9524 0.95318 0.0
C979 C 0.56074 0.9735 0.96967 0.0
H980 H 0.89724 0.15648 0.38203 0.0
H981 H 0.93573 0.22175 0.44495 0.0
H982 H 0.92095 0.12222 0.40913 0.0
H983 H 0.95882 0.18707 0.47261 0.0
H984 H 0.01853 0.12314 0.50086 0.0
H985 H 0.99923 0.15822 0.47038 0.0
H986 H 0.91212 0.09681 0.45538 0.0
H987 H 0.93138 0.06175 0.48546 0.0
C988 C 0.91104 0.16361 0.40151 0.0
C989 C 0.91466 0.19189 0.4113 0.0
C990 C 0.92435 0.14387 0.4172 0.0
C991 C 0.94165 0.1519 0.44306 0.0
C992 C 0.94582 0.18031 0.45263 0.0
C993 C 0.93235 0.20008 0.43696 0.0
C994 C 0.99539 0.11703 0.49079 0.0
C995 C 0.97649 0.08964 0.49559 0.0
C996 C 0.98427 0.13721 0.47353 0.0
C997 C 0.95414 0.13031 0.46054 0.0
C998 C 0.93556 0.1027 0.46484 0.0
C999 C 0.94657 0.08263 0.4822 0.0
H1000 H 0.25801 0.62541 0.11531 0.0
H1001 H 0.20565 0.6263 0.19094 0.0
H1002 H 0.21102 0.60067 0.08872 0.0
H1003 H 0.15799 0.60282 0.16409 0.0
H1004 H 0.0775 0.54754 0.11269 0.0
H1005 H 0.12662 0.56264 0.1406 0.0
H1006 H 0.16666 0.61184 0.06727 0.0
H1007 H 0.11823 0.59547 1.03927 0.0
C1008 C 0.23633 0.6201 0.12625 0.0
C1009 C 0.23539 0.62783 0.15511 0.0
C1010 C 0.20927 0.60617 0.11095 0.0
C1011 C 0.18033 0.60011 0.12393 0.0
C1012 C 0.17973 0.60681 0.1533 0.0
C1013 C 0.20701 0.62035 0.16876 0.0
C1014 C 0.09702 0.56118 0.10248 0.0
C1015 C 0.094 0.57028 0.07377 0.0
C1016 C 0.12516 0.57012 0.11857 0.0
C1017 C 0.15088 0.58864 0.1064 0.0
C1018 C 0.1478 0.5972 0.07742 0.0
C1019 C 0.11985 0.58798 0.06131 0.0
H1020 H 0.27954 0.49055 0.66732 0.0
H1021 H 0.30952 0.41083 0.67652 0.0
H1022 H 0.32372 0.51004 0.63775 0.0
H1023 H 0.3543 0.43043 0.64809 0.0
H1024 H 0.41691 0.46144 0.57472 0.0
H1025 H 0.37108 0.44292 0.60226 0.0
H1026 H 0.37707 0.52777 0.63597 0.0
H1027 H 0.42191 0.54639 0.60732 0.0
C1028 C 0.29584 0.47732 0.66336 0.0
C1029 C 0.29085 0.44907 0.67421 0.0
C1030 C 0.32134 0.48851 0.6464 0.0
C1031 C 0.34285 0.47189 0.64011 0.0
C1032 C 0.33805 0.4438 0.6516 0.0
C1033 C 0.31238 0.43254 0.66818 0.0
C1034 C 0.40828 0.4762 0.58781 0.0
C1035 C 0.42322 0.50545 0.58866 0.0
C1036 C 0.38205 0.46551 0.60394 0.0
C1037 C 0.37015 0.48365 0.62182 0.0
C1038 C 0.38497 0.51303 0.62231 0.0
C1039 C 0.41095 0.52377 0.60587 0.0
H1040 H 0.76575 0.73181 0.96428 0.0
H1041 H 0.73967 0.6499 0.92168 0.0
H1042 H 0.80464 0.71419 0.99448 0.0
H1043 H 0.77853 0.63235 0.95151 0.0
H1044 H 0.84455 0.60293 1.01315 0.0
H1045 H 0.79767 0.62032 1.00033 0.0
H1046 H 0.85437 0.70352 0.97948 0.0
H1047 H 0.90111 0.68615 0.99186 0.0
C1048 C 0.76772 0.70978 0.96201 0.0
C1049 C 0.74999 0.69224 0.94054 0.0
C1050 C 0.79009 0.69978 0.9791 0.0
C1051 C 0.7948 0.672 0.97518 0.0
C1052 C 0.77531 0.65378 0.95523 0.0
C1053 C 0.75321 0.66385 0.93799 0.0
C1054 C 0.84697 0.62505 1.00616 0.0
C1055 C 0.87657 0.64302 1.00304 0.0
C1056 C 0.82013 0.635 0.99896 0.0
C1057 C 0.82237 0.66318 0.98866 0.0
C1058 C 0.85187 0.68178 0.98764 0.0
C1059 C 0.8787 0.6718 0.99472 0.0
H1060 H 0.47425 0.86186 0.21014 0.0
H1061 H 0.4245 0.82326 0.13321 0.0
H1062 H 0.49299 0.90583 0.18332 0.0
H1063 H 0.43963 0.86789 0.10771 0.0
H1064 H 0.49022 0.9441 0.05729 0.0
H1065 H 0.47404 0.8995 0.08388 0.0
H1066 H 0.48568 0.94717 0.16347 0.0
H1067 H 0.50447 0.99139 0.13657 0.0
C1068 C 0.46702 0.86257 0.18762 0.0
C1069 C 0.44731 0.83849 0.17435 0.0
C1070 C 0.47735 0.88831 0.17216 0.0
C1071 C 0.46785 0.89122 0.14298 0.0
C1072 C 0.44823 0.86705 0.12981 0.0
C1073 C 0.43871 0.84118 0.14496 0.0
C1074 C 0.48916 0.94497 0.08048 0.0
C1075 C 0.49861 0.97129 0.09481 0.0
C1076 C 0.4796 0.91924 0.09596 0.0
C1077 C 0.47825 0.91902 0.12631 0.0
C1078 C 0.48697 0.94576 0.1404 0.0
C1079 C 0.4974 0.97139 0.12492 0.0
H1080 H 0.13067 0.21851 0.67273 0.0
H1081 H 0.04056 0.23589 0.68549 0.0
H1082 H 0.10636 0.17428 0.64839 0.0
H1083 H 0.01576 0.19027 0.66257 0.0
H1084 H 0.98187 0.1249 0.59033 0.0
H1085 H 1.00532 0.1679 0.61779 0.0
H1086 H 0.0787 0.12734 0.64974 0.0
H1087 H 0.05575 0.0849 0.62107 0.0
C1088 C 0.10551 0.21276 0.67062 0.0
C1089 C 0.08771 0.2313 0.68073 0.0
C1090 C 0.09142 0.18695 0.65687 0.0
C1091 C 0.05886 0.17835 0.65301 0.0
C1092 C 0.0409 0.19622 0.6644 0.0
C1093 C 0.05511 0.2223 0.67804 0.0
C1094 C 1.00311 0.12525 0.60316 0.0
C1095 C 0.01698 0.10146 0.6034 0.0
C1096 C 0.01646 0.14989 0.61925 0.0
C1097 C 0.04404 0.15149 0.63638 0.0
C1098 C 0.05781 0.12746 0.63661 0.0
C1099 C 0.04458 0.10292 0.62022 0.0
H1100 H 0.69086 0.31957 0.41347 0.0
H1101 H 0.76264 0.37325 0.46696 0.0
H1102 H 0.65148 0.33928 0.43585 0.0
H1103 H 0.723 0.39302 0.4896 0.0
H1104 H 0.64446 0.44524 0.49019 0.0
H1105 H 0.68563 0.42433 0.47286 0.0
H1106 H 0.62822 0.33937 0.48418 0.0
H1107 H 0.58728 0.3601 0.50231 0.0
C1108 C 0.69817 0.33559 0.43007 0.0
C1109 C 0.72979 0.34504 0.43838 0.0
C1110 C 0.67561 0.34668 0.44306 0.0
C1111 C 0.68418 0.36766 0.46447 0.0
C1112 C 0.7158 0.37697 0.47301 0.0
C1113 C 0.73841 0.36557 0.46023 0.0
C1114 C 0.64076 0.42208 0.48953 0.0
C1115 C 0.6124 0.40439 0.49758 0.0
C1116 C 0.66438 0.41013 0.47955 0.0
C1117 C 0.66009 0.38025 0.47711 0.0
C1118 C 0.632 0.36252 0.48552 0.0
C1119 C 0.6085 0.37443 0.49577 0.0
loop_
_geom_bond_atom_site_label_1
_geom_bond_atom_site_label_2
_geom_bond_distance
_geom_bond_site_symmetry_2
_ccdc_geom_bond_type
C0 C1 1.391 . S
C0 C4 1.391 . S
C0 H42 0.948 . S
C1 C0 1.391 . S
C1 C2 1.391 . S
C2 C1 1.391 . S
C2 H58 0.947 . S
C2 C59 1.392 . S
C3 C4 1.391 . S
C3 C7 1.397 . S
C3 C59 1.419 . S
C4 C0 1.391 . S
C4 C3 1.391 . S
C4 C5 1.399 . S
C5 C4 1.399 . S
C5 C8 1.396 . S
C5 C17 1.453 . S
C5 C18 1.684 . S
H6 C30 0.948 . S
C7 C3 1.397 . S
C7 C8 1.394 . S
C7 C26 1.723 . S
C8 C5 1.396 . S
C8 C7 1.394 . S
C8 C38 1.723 . S
H9 C32 0.947 . S
H10 C33 0.948 . S
H11 C39 0.982 . S
H12 C40 0.979 . S
H13 C40 0.980 . S
H14 C40 0.983 . S
H15 C39 0.979 . S
H16 C39 0.977 . S
C17 C5 1.453 . S
C17 H46 0.982 . S
C17 H47 0.979 . S
C17 H48 0.977 . S
C18 C5 1.684 . S
C18 H43 0.979 . S
C18 H44 0.980 . S
C18 H45 0.983 . S
C19 C20 1.391 . S
C19 C24 1.391 . S
C19 H49 0.948 . S
C20 C19 1.391 . S
C20 C21 1.391 . S
C21 C20 1.391 . S
C21 C22 1.392 . S
C21 H50 0.947 . S
C22 C21 1.392 . S
C22 C23 1.419 . S
C22 H51 0.948 . S
C23 C22 1.419 . S
C23 C24 1.391 . S
C23 C27 1.397 . S
C24 C19 1.391 . S
C24 C23 1.391 . S
C24 C25 1.399 . S
C25 C24 1.399 . S
C25 C26 1.396 . S
C25 C28 1.453 . S
C25 C29 1.684 . S
C26 C7 1.723 . S
C26 C25 1.396 . S
C26 C27 1.394 . S
C27 C23 1.397 . S
C27 C26 1.394 . S
C27 C37 1.723 . S
C28 C25 1.453 . S
C28 H52 0.982 . S
C28 H53 0.979 . S
C28 H54 0.977 . S
C29 C25 1.684 . S
C29 H55 0.979 . S
C29 H56 0.980 . S
C29 H57 0.983 . S
C30 H6 0.948 . S
C30 C31 1.391 . S
C30 C35 1.391 . S
C31 C30 1.391 . S
C31 C32 1.391 . S
C32 H9 0.947 . S
C32 C31 1.391 . S
C32 C33 1.392 . S
C33 H10 0.948 . S
C33 C32 1.392 . S
C33 C34 1.419 . S
C34 C33 1.419 . S
C34 C35 1.391 . S
C34 C38 1.397 . S
C35 C30 1.391 . S
C35 C34 1.391 . S
C35 C36 1.399 . S
C36 C35 1.399 . S
C36 C37 1.396 . S
C36 C39 1.453 . S
C36 C40 1.684 . S
C37 C27 1.723 . S
C37 C36 1.396 . S
C37 C38 1.394 . S
C38 C8 1.723 . S
C38 C34 1.397 . S
C38 C37 1.394 . S
C39 H11 0.982 . S
C39 H15 0.979 . S
C39 H16 0.977 . S
C39 C36 1.453 . S
C40 H12 0.979 . S
C40 H13 0.980 . S
C40 H14 0.983 . S
C40 C36 1.684 . S
H41 C59 0.948 . S
H42 C0 0.948 . S
H43 C18 0.979 . S
H44 C18 0.980 . S
H45 C18 0.983 . S
H46 C17 0.982 . S
H47 C17 0.979 . S
H48 C17 0.977 . S
H49 C19 0.948 . S
H50 C21 0.947 . S
H51 C22 0.948 . S
H52 C28 0.982 . S
H53 C28 0.979 . S
H54 C28 0.977 . S
H55 C29 0.979 . S
H56 C29 0.980 . S
H57 C29 0.983 . S
H58 C2 0.947 . S
C59 C2 1.392 . S
C59 C3 1.419 . S
C59 H41 0.948 . S
C60 C61 1.391 . S
C60 C64 1.391 . S
C60 H102 0.948 . S
C61 C60 1.391 . S
C61 C62 1.391 . S
C62 C61 1.391 . S
C62 H118 0.947 . S
C62 C119 1.392 . S
C63 C64 1.391 . S
C63 C67 1.397 . S
C63 C119 1.419 . S
C64 C60 1.391 . S
C64 C63 1.391 . S
C64 C65 1.399 . S
C65 C64 1.399 . S
C65 C68 1.396 . S
C65 C77 1.453 . S
C65 C78 1.684 . S
H66 C90 0.948 . S
C67 C63 1.397 . S
C67 C68 1.394 . S
C67 C86 1.723 . S
C68 C65 1.396 . S
C68 C67 1.394 . S
C68 C98 1.723 . S
H69 C92 0.947 . S
H70 C93 0.948 . S
H71 C99 0.982 . S
H72 C100 0.979 . S
H73 C100 0.980 . S
H74 C100 0.983 . S
H75 C99 0.979 . S
H76 C99 0.977 . S
C77 C65 1.453 . S
C77 H106 0.982 . S
C77 H107 0.979 . S
C77 H108 0.977 . S
C78 C65 1.684 . S
C78 H103 0.979 . S
C78 H104 0.980 . S
C78 H105 0.983 . S
C79 C80 1.391 . S
C79 C84 1.391 . S
C79 H109 0.948 . S
C80 C79 1.391 . S
C80 C81 1.391 . S
C81 C80 1.391 . S
C81 C82 1.392 . S
C81 H110 0.947 . S
C82 C81 1.392 . S
C82 C83 1.419 . S
C82 H111 0.948 . S
C83 C82 1.419 . S
C83 C84 1.391 . S
C83 C87 1.397 . S
C84 C79 1.391 . S
C84 C83 1.391 . S
C84 C85 1.399 . S
C85 C84 1.399 . S
C85 C86 1.396 . S
C85 C88 1.453 . S
C85 C89 1.684 . S
C86 C67 1.723 . S
C86 C85 1.396 . S
C86 C87 1.394 . S
C87 C83 1.397 . S
C87 C86 1.394 . S
C87 C97 1.723 . S
C88 C85 1.453 . S
C88 H112 0.982 . S
C88 H113 0.979 . S
C88 H114 0.977 . S
C89 C85 1.684 . S
C89 H115 0.979 . S
C89 H116 0.980 . S
C89 H117 0.983 . S
C90 H66 0.948 . S
C90 C91 1.391 . S
C90 C95 1.391 . S
C91 C90 1.391 . S
C91 C92 1.391 . S
C92 H69 0.947 . S
C92 C91 1.391 . S
C92 C93 1.392 . S
C93 H70 0.948 . S
C93 C92 1.392 . S
C93 C94 1.419 . S
C94 C93 1.419 . S
C94 C95 1.391 . S
C94 C98 1.397 . S
C95 C90 1.391 . S
C95 C94 1.391 . S
C95 C96 1.399 . S
C96 C95 1.399 . S
C96 C97 1.396 . S
C96 C99 1.453 . S
C96 C100 1.684 . S
C97 C87 1.723 . S
C97 C96 1.396 . S
C97 C98 1.394 . S
C98 C68 1.723 . S
C98 C94 1.397 . S
C98 C97 1.394 . S
C99 H71 0.982 . S
C99 H75 0.979 . S
C99 H76 0.977 . S
C99 C96 1.453 . S
C100 H72 0.979 . S
C100 H73 0.980 . S
C100 H74 0.983 . S
C100 C96 1.684 . S
H101 C119 0.948 . S
H102 C60 0.948 . S
H103 C78 0.979 . S
H104 C78 0.980 . S
H105 C78 0.983 . S
H106 C77 0.982 . S
H107 C77 0.979 . S
H108 C77 0.977 . S
H109 C79 0.948 . S
H110 C81 0.947 . S
H111 C82 0.948 . S
H112 C88 0.982 . S
H113 C88 0.979 . S
H114 C88 0.977 . S
H115 C89 0.979 . S
H116 C89 0.980 . S
H117 C89 0.983 . S
H118 C62 0.947 . S
C119 C62 1.392 . S
C119 C63 1.419 . S
C119 H101 0.948 . S
C120 C121 1.391 . S
C120 C124 1.391 . S
C120 H162 0.948 . S
C121 C120 1.391 . S
C121 C122 1.391 . S
C122 C121 1.391 . S
C122 H178 0.947 . S
C122 C179 1.392 . S
C123 C124 1.391 . S
C123 C127 1.397 . S
C123 C179 1.419 . S
C124 C120 1.391 . S
C124 C123 1.391 . S
C124 C125 1.399 . S
C125 C124 1.399 . S
C125 C128 1.396 . S
C125 C137 1.453 . S
C125 C138 1.684 . S
H126 C150 0.948 . S
C127 C123 1.397 . S
C127 C128 1.394 . S
C127 C146 1.723 . S
C128 C125 1.396 . S
C128 C127 1.394 . S
C128 C158 1.723 . S
H129 C152 0.947 . S
H130 C153 0.948 . S
H131 C159 0.982 . S
H132 C160 0.979 . S
H133 C160 0.980 . S
H134 C160 0.983 . S
H135 C159 0.979 . S
H136 C159 0.977 . S
C137 C125 1.453 . S
C137 H166 0.982 . S
C137 H167 0.979 . S
C137 H168 0.977 . S
C138 C125 1.684 . S
C138 H163 0.979 . S
C138 H164 0.980 . S
C138 H165 0.983 . S
C139 C140 1.391 . S
C139 C144 1.391 . S
C139 H169 0.948 . S
C140 C139 1.391 . S
C140 C141 1.391 . S
C141 C140 1.391 . S
C141 C142 1.392 . S
C141 H170 0.947 . S
C142 C141 1.392 . S
C142 C143 1.419 . S
C142 H171 0.948 . S
C143 C142 1.419 . S
C143 C144 1.391 . S
C143 C147 1.397 . S
C144 C139 1.391 . S
C144 C143 1.391 . S
C144 C145 1.399 . S
C145 C144 1.399 . S
C145 C146 1.396 . S
C145 C148 1.453 . S
C145 C149 1.684 . S
C146 C127 1.723 . S
C146 C145 1.396 . S
C146 C147 1.394 . S
C147 C143 1.397 . S
C147 C146 1.394 . S
C147 C157 1.723 . S
C148 C145 1.453 . S
C148 H172 0.982 . S
C148 H173 0.979 . S
C148 H174 0.977 . S
C149 C145 1.684 . S
C149 H175 0.979 . S
C149 H176 0.980 . S
C149 H177 0.983 . S
C150 H126 0.948 . S
C150 C151 1.391 . S
C150 C155 1.391 . S
C151 C150 1.391 . S
C151 C152 1.391 . S
C152 H129 0.947 . S
C152 C151 1.391 . S
C152 C153 1.392 . S
C153 H130 0.948 . S
C153 C152 1.392 . S
C153 C154 1.419 . S
C154 C153 1.419 . S
C154 C155 1.391 . S
C154 C158 1.397 . S
C155 C150 1.391 . S
C155 C154 1.391 . S
C155 C156 1.399 . S
C156 C155 1.399 . S
C156 C157 1.396 . S
C156 C159 1.453 . S
C156 C160 1.684 . S
C157 C147 1.723 . S
C157 C156 1.396 . S
C157 C158 1.394 . S
C158 C128 1.723 . S
C158 C154 1.397 . S
C158 C157 1.394 . S
C159 H131 0.982 . S
C159 H135 0.979 . S
C159 H136 0.977 . S
C159 C156 1.453 . S
C160 H132 0.979 . S
C160 H133 0.980 . S
C160 H134 0.983 . S
C160 C156 1.684 . S
H161 C179 0.948 . S
H162 C120 0.948 . S
H163 C138 0.979 . S
H164 C138 0.980 . S
H165 C138 0.983 . S
H166 C137 0.982 . S
H167 C137 0.979 . S
H168 C137 0.977 . S
H169 C139 0.948 . S
H170 C141 0.947 . S
H171 C142 0.948 . S
H172 C148 0.982 . S
H173 C148 0.979 . S
H174 C148 0.977 . S
H175 C149 0.979 . S
H176 C149 0.980 . S
H177 C149 0.983 . S
H178 C122 0.947 . S
C179 C122 1.392 . S
C179 C123 1.419 . S
C179 H161 0.948 . S
C180 C181 1.391 . S
C180 C184 1.391 . S
C180 H222 0.948 . S
C181 C180 1.391 . S
C181 C182 1.391 . S
C182 C181 1.391 . S
C182 H238 0.947 . S
C182 C239 1.392 . S
C183 C184 1.391 . S
C183 C187 1.397 . S
C183 C239 1.419 . S
C184 C180 1.391 . S
C184 C183 1.391 . S
C184 C185 1.399 . S
C185 C184 1.399 . S
C185 C188 1.396 . S
C185 C197 1.453 . S
C185 C198 1.684 . S
H186 C210 0.948 . S
C187 C183 1.397 . S
C187 C188 1.394 . S
C187 C206 1.723 . S
C188 C185 1.396 . S
C188 C187 1.394 . S
C188 C218 1.723 . S
H189 C212 0.947 . S
H190 C213 0.948 . S
H191 C219 0.982 . S
H192 C220 0.979 . S
H193 C220 0.980 . S
H194 C220 0.983 . S
H195 C219 0.979 . S
H196 C219 0.977 . S
C197 C185 1.453 . S
C197 H226 0.982 . S
C197 H227 0.979 . S
C197 H228 0.977 . S
C198 C185 1.684 . S
C198 H223 0.979 . S
C198 H224 0.980 . S
C198 H225 0.983 . S
C199 C200 1.391 . S
C199 C204 1.391 . S
C199 H229 0.948 . S
C200 C199 1.391 . S
C200 C201 1.391 . S
C201 C200 1.391 . S
C201 C202 1.392 . S
C201 H230 0.947 . S
C202 C201 1.392 . S
C202 C203 1.419 . S
C202 H231 0.948 . S
C203 C202 1.419 . S
C203 C204 1.391 . S
C203 C207 1.397 . S
C204 C199 1.391 . S
C204 C203 1.391 . S
C204 C205 1.399 . S
C205 C204 1.399 . S
C205 C206 1.396 . S
C205 C208 1.453 . S
C205 C209 1.684 . S
C206 C187 1.723 . S
C206 C205 1.396 . S
C206 C207 1.394 . S
C207 C203 1.397 . S
C207 C206 1.394 . S
C207 C217 1.723 . S
C208 C205 1.453 . S
C208 H232 0.982 . S
C208 H233 0.979 . S
C208 H234 0.977 . S
C209 C205 1.684 . S
C209 H235 0.979 . S
C209 H236 0.980 . S
C209 H237 0.983 . S
C210 H186 0.948 . S
C210 C211 1.391 . S
C210 C215 1.391 . S
C211 C210 1.391 . S
C211 C212 1.391 . S
C212 H189 0.947 . S
C212 C211 1.391 . S
C212 C213 1.392 . S
C213 H190 0.948 . S
C213 C212 1.392 . S
C213 C214 1.419 . S
C214 C213 1.419 . S
C214 C215 1.391 . S
C214 C218 1.397 . S
C215 C210 1.391 . S
C215 C214 1.391 . S
C215 C216 1.399 . S
C216 C215 1.399 . S
C216 C217 1.396 . S
C216 C219 1.453 . S
C216 C220 1.684 . S
C217 C207 1.723 . S
C217 C216 1.396 . S
C217 C218 1.394 . S
C218 C188 1.723 . S
C218 C214 1.397 . S
C218 C217 1.394 . S
C219 H191 0.982 . S
C219 H195 0.979 . S
C219 H196 0.977 . S
C219 C216 1.453 . S
C220 H192 0.979 . S
C220 H193 0.980 . S
C220 H194 0.983 . S
C220 C216 1.684 . S
H221 C239 0.948 . S
H222 C180 0.948 . S
H223 C198 0.979 . S
H224 C198 0.980 . S
H225 C198 0.983 . S
H226 C197 0.982 . S
H227 C197 0.979 . S
H228 C197 0.977 . S
H229 C199 0.948 . S
H230 C201 0.947 . S
H231 C202 0.948 . S
H232 C208 0.982 . S
H233 C208 0.979 . S
H234 C208 0.977 . S
H235 C209 0.979 . S
H236 C209 0.980 . S
H237 C209 0.983 . S
H238 C182 0.947 . S
C239 C182 1.392 . S
C239 C183 1.419 . S
C239 H221 0.948 . S
C240 C241 1.391 . S
C240 C244 1.391 . S
C240 H282 0.948 . S
C241 C240 1.391 . S
C241 C242 1.391 . S
C242 C241 1.391 . S
C242 H298 0.947 . S
C242 C299 1.392 . S
C243 C244 1.391 . S
C243 C247 1.397 . S
C243 C299 1.419 . S
C244 C240 1.391 . S
C244 C243 1.391 . S
C244 C245 1.399 . S
C245 C244 1.399 . S
C245 C248 1.396 . S
C245 C257 1.453 . S
C245 C258 1.684 . S
H246 C270 0.948 . S
C247 C243 1.397 . S
C247 C248 1.394 . S
C247 C266 1.723 . S
C248 C245 1.396 . S
C248 C247 1.394 . S
C248 C278 1.723 . S
H249 C272 0.947 . S
H250 C273 0.948 . S
H251 C279 0.982 . S
H252 C280 0.979 . S
H253 C280 0.980 . S
H254 C280 0.983 . S
H255 C279 0.979 . S
H256 C279 0.977 . S
C257 C245 1.453 . S
C257 H286 0.982 . S
C257 H287 0.979 . S
C257 H288 0.977 . S
C258 C245 1.684 . S
C258 H283 0.979 . S
C258 H284 0.980 . S
C258 H285 0.983 . S
C259 C260 1.391 . S
C259 C264 1.391 . S
C259 H289 0.948 . S
C260 C259 1.391 . S
C260 C261 1.391 . S
C261 C260 1.391 . S
C261 C262 1.392 . S
C261 H290 0.947 . S
C262 C261 1.392 . S
C262 C263 1.419 . S
C262 H291 0.948 . S
C263 C262 1.419 . S
C263 C264 1.391 . S
C263 C267 1.397 . S
C264 C259 1.391 . S
C264 C263 1.391 . S
C264 C265 1.399 . S
C265 C264 1.399 . S
C265 C266 1.396 . S
C265 C268 1.453 . S
C265 C269 1.684 . S
C266 C247 1.723 . S
C266 C265 1.396 . S
C266 C267 1.394 . S
C267 C263 1.397 . S
C267 C266 1.394 . S
C267 C277 1.723 . S
C268 C265 1.453 . S
C268 H292 0.982 . S
C268 H293 0.979 . S
C268 H294 0.977 . S
C269 C265 1.684 . S
C269 H295 0.979 . S
C269 H296 0.980 . S
C269 H297 0.983 . S
C270 H246 0.948 . S
C270 C271 1.391 . S
C270 C275 1.391 . S
C271 C270 1.391 . S
C271 C272 1.391 . S
C272 H249 0.947 . S
C272 C271 1.391 . S
C272 C273 1.392 . S
C273 H250 0.948 . S
C273 C272 1.392 . S
C273 C274 1.419 . S
C274 C273 1.419 . S
C274 C275 1.391 . S
C274 C278 1.397 . S
C275 C270 1.391 . S
C275 C274 1.391 . S
C275 C276 1.399 . S
C276 C275 1.399 . S
C276 C277 1.396 . S
C276 C279 1.453 . S
C276 C280 1.684 . S
C277 C267 1.723 . S
C277 C276 1.396 . S
C277 C278 1.394 . S
C278 C248 1.723 . S
C278 C274 1.397 . S
C278 C277 1.394 . S
C279 H251 0.982 . S
C279 H255 0.979 . S
C279 H256 0.977 . S
C279 C276 1.453 . S
C280 H252 0.979 . S
C280 H253 0.980 . S
C280 H254 0.983 . S
C280 C276 1.684 . S
H281 C299 0.948 . S
H282 C240 0.948 . S
H283 C258 0.979 . S
H284 C258 0.980 . S
H285 C258 0.983 . S
H286 C257 0.982 . S
H287 C257 0.979 . S
H288 C257 0.977 . S
H289 C259 0.948 . S
H290 C261 0.947 . S
H291 C262 0.948 . S
H292 C268 0.982 . S
H293 C268 0.979 . S
H294 C268 0.977 . S
H295 C269 0.979 . S
H296 C269 0.980 . S
H297 C269 0.983 . S
H298 C242 0.947 . S
C299 C242 1.392 . S
C299 C243 1.419 . S
C299 H281 0.948 . S
C300 C301 1.391 . S
C300 C304 1.391 . S
C300 H342 0.948 . S
C301 C300 1.391 . S
C301 C302 1.391 . S
C302 C301 1.391 . S
C302 H358 0.947 . S
C302 C359 1.392 . S
C303 C304 1.391 . S
C303 C307 1.397 . S
C303 C359 1.419 . S
C304 C300 1.391 . S
C304 C303 1.391 . S
C304 C305 1.399 . S
C305 C304 1.399 . S
C305 C308 1.396 . S
C305 C317 1.453 . S
C305 C318 1.684 . S
H306 C330 0.948 . S
C307 C303 1.397 . S
C307 C308 1.394 . S
C307 C326 1.723 . S
C308 C305 1.396 . S
C308 C307 1.394 . S
C308 C338 1.723 . S
H309 C332 0.947 . S
H310 C333 0.948 . S
H311 C339 0.982 . S
H312 C340 0.979 . S
H313 C340 0.980 . S
H314 C340 0.983 . S
H315 C339 0.979 . S
H316 C339 0.977 . S
C317 C305 1.453 . S
C317 H346 0.982 . S
C317 H347 0.979 . S
C317 H348 0.977 . S
C318 C305 1.684 . S
C318 H343 0.979 . S
C318 H344 0.980 . S
C318 H345 0.983 . S
C319 C320 1.391 . S
C319 C324 1.391 . S
C319 H349 0.948 . S
C320 C319 1.391 . S
C320 C321 1.391 . S
C321 C320 1.391 . S
C321 C322 1.392 . S
C321 H350 0.947 . S
C322 C321 1.392 . S
C322 C323 1.419 . S
C322 H351 0.948 . S
C323 C322 1.419 . S
C323 C324 1.391 . S
C323 C327 1.397 . S
C324 C319 1.391 . S
C324 C323 1.391 . S
C324 C325 1.399 . S
C325 C324 1.399 . S
C325 C326 1.396 . S
C325 C328 1.453 . S
C325 C329 1.684 . S
C326 C307 1.723 . S
C326 C325 1.396 . S
C326 C327 1.394 . S
C327 C323 1.397 . S
C327 C326 1.394 . S
C327 C337 1.723 . S
C328 C325 1.453 . S
C328 H352 0.982 . S
C328 H353 0.979 . S
C328 H354 0.977 . S
C329 C325 1.684 . S
C329 H355 0.979 . S
C329 H356 0.980 . S
C329 H357 0.983 . S
C330 H306 0.948 . S
C330 C331 1.391 . S
C330 C335 1.391 . S
C331 C330 1.391 . S
C331 C332 1.391 . S
C332 H309 0.947 . S
C332 C331 1.391 . S
C332 C333 1.392 . S
C333 H310 0.948 . S
C333 C332 1.392 . S
C333 C334 1.419 . S
C334 C333 1.419 . S
C334 C335 1.391 . S
C334 C338 1.397 . S
C335 C330 1.391 . S
C335 C334 1.391 . S
C335 C336 1.399 . S
C336 C335 1.399 . S
C336 C337 1.396 . S
C336 C339 1.453 . S
C336 C340 1.684 . S
C337 C327 1.723 . S
C337 C336 1.396 . S
C337 C338 1.394 . S
C338 C308 1.723 . S
C338 C334 1.397 . S
C338 C337 1.394 . S
C339 H311 0.982 . S
C339 H315 0.979 . S
C339 H316 0.977 . S
C339 C336 1.453 . S
C340 H312 0.979 . S
C340 H313 0.980 . S
C340 H314 0.983 . S
C340 C336 1.684 . S
H341 C359 0.948 . S
H342 C300 0.948 . S
H343 C318 0.979 . S
H344 C318 0.980 . S
H345 C318 0.983 . S
H346 C317 0.982 . S
H347 C317 0.979 . S
H348 C317 0.977 . S
H349 C319 0.948 . S
H350 C321 0.947 . S
H351 C322 0.948 . S
H352 C328 0.982 . S
H353 C328 0.979 . S
H354 C328 0.977 . S
H355 C329 0.979 . S
H356 C329 0.980 . S
H357 C329 0.983 . S
H358 C302 0.947 . S
C359 C302 1.392 . S
C359 C303 1.419 . S
C359 H341 0.948 . S
C360 C361 1.391 . S
C360 C364 1.391 . S
C360 H402 0.948 . S
C361 C360 1.391 . S
C361 C362 1.391 . S
C362 C361 1.391 . S
C362 H418 0.947 . S
C362 C419 1.392 . S
C363 C364 1.391 . S
C363 C367 1.397 . S
C363 C419 1.419 . S
C364 C360 1.391 . S
C364 C363 1.391 . S
C364 C365 1.399 . S
C365 C364 1.399 . S
C365 C368 1.396 . S
C365 C377 1.453 . S
C365 C378 1.684 . S
H366 C390 0.948 . S
C367 C363 1.397 . S
C367 C368 1.394 . S
C367 C386 1.723 . S
C368 C365 1.396 . S
C368 C367 1.394 . S
C368 C398 1.723 . S
H369 C392 0.947 . S
H370 C393 0.948 . S
H371 C399 0.982 . S
H372 C400 0.979 . S
H373 C400 0.980 . S
H374 C400 0.983 . S
H375 C399 0.979 . S
H376 C399 0.977 . S
C377 C365 1.453 . S
C377 H406 0.982 . S
C377 H407 0.979 . S
C377 H408 0.977 . S
C378 C365 1.684 . S
C378 H403 0.979 . S
C378 H404 0.980 . S
C378 H405 0.983 . S
C379 C380 1.391 . S
C379 C384 1.391 . S
C379 H409 0.948 . S
C380 C379 1.391 . S
C380 C381 1.391 . S
C381 C380 1.391 . S
C381 C382 1.392 . S
C381 H410 0.947 . S
C382 C381 1.392 . S
C382 C383 1.419 . S
C382 H411 0.948 . S
C383 C382 1.419 . S
C383 C384 1.391 . S
C383 C387 1.397 . S
C384 C379 1.391 . S
C384 C383 1.391 . S
C384 C385 1.399 . S
C385 C384 1.399 . S
C385 C386 1.396 . S
C385 C388 1.453 . S
C385 C389 1.684 . S
C386 C367 1.723 . S
C386 C385 1.396 . S
C386 C387 1.394 . S
C387 C383 1.397 . S
C387 C386 1.394 . S
C387 C397 1.723 . S
C388 C385 1.453 . S
C388 H412 0.982 . S
C388 H413 0.979 . S
C388 H414 0.977 . S
C389 C385 1.684 . S
C389 H415 0.979 . S
C389 H416 0.980 . S
C389 H417 0.983 . S
C390 H366 0.948 . S
C390 C391 1.391 . S
C390 C395 1.391 . S
C391 C390 1.391 . S
C391 C392 1.391 . S
C392 H369 0.947 . S
C392 C391 1.391 . S
C392 C393 1.392 . S
C393 H370 0.948 . S
C393 C392 1.392 . S
C393 C394 1.419 . S
C394 C393 1.419 . S
C394 C395 1.391 . S
C394 C398 1.397 . S
C395 C390 1.391 . S
C395 C394 1.391 . S
C395 C396 1.399 . S
C396 C395 1.399 . S
C396 C397 1.396 . S
C396 C399 1.453 . S
C396 C400 1.684 . S
C397 C387 1.723 . S
C397 C396 1.396 . S
C397 C398 1.394 . S
C398 C368 1.723 . S
C398 C394 1.397 . S
C398 C397 1.394 . S
C399 H371 0.982 . S
C399 H375 0.979 . S
C399 H376 0.977 . S
C399 C396 1.453 . S
C400 H372 0.979 . S
C400 H373 0.980 . S
C400 H374 0.983 . S
C400 C396 1.684 . S
H401 C419 0.948 . S
H402 C360 0.948 . S
H403 C378 0.979 . S
H404 C378 0.980 . S
H405 C378 0.983 . S
H406 C377 0.982 . S
H407 C377 0.979 . S
H408 C377 0.977 . S
H409 C379 0.948 . S
H410 C381 0.947 . S
H411 C382 0.948 . S
H412 C388 0.982 . S
H413 C388 0.979 . S
H414 C388 0.977 . S
H415 C389 0.979 . S
H416 C389 0.980 . S
H417 C389 0.983 . S
H418 C362 0.947 . S
C419 C362 1.392 . S
C419 C363 1.419 . S
C419 H401 0.948 . S
C420 C421 1.391 . S
C420 C424 1.391 . S
C420 H462 0.948 . S
C421 C420 1.391 . S
C421 C422 1.391 . S
C422 C421 1.391 . S
C422 H478 0.947 . S
C422 C479 1.392 . S
C423 C424 1.391 . S
C423 C427 1.397 . S
C423 C479 1.419 . S
C424 C420 1.391 . S
C424 C423 1.391 . S
C424 C425 1.399 . S
C425 C424 1.399 . S
C425 C428 1.396 . S
C425 C437 1.453 . S
C425 C438 1.684 . S
H426 C450 0.948 . S
C427 C423 1.397 . S
C427 C428 1.394 . S
C427 C446 1.723 . S
C428 C425 1.396 . S
C428 C427 1.394 . S
C428 C458 1.723 . S
H429 C452 0.947 . S
H430 C453 0.948 . S
H431 C459 0.982 . S
H432 C460 0.979 . S
H433 C460 0.980 . S
H434 C460 0.983 . S
H435 C459 0.979 . S
H436 C459 0.977 . S
C437 C425 1.453 . S
C437 H466 0.982 . S
C437 H467 0.979 . S
C437 H468 0.977 . S
C438 C425 1.684 . S
C438 H463 0.979 . S
C438 H464 0.980 . S
C438 H465 0.983 . S
C439 C440 1.391 . S
C439 C444 1.391 . S
C439 H469 0.948 . S
C440 C439 1.391 . S
C440 C441 1.391 . S
C441 C440 1.391 . S
C441 C442 1.392 . S
C441 H470 0.947 . S
C442 C441 1.392 . S
C442 C443 1.419 . S
C442 H471 0.948 . S
C443 C442 1.419 . S
C443 C444 1.391 . S
C443 C447 1.397 . S
C444 C439 1.391 . S
C444 C443 1.391 . S
C444 C445 1.399 . S
C445 C444 1.399 . S
C445 C446 1.396 . S
C445 C448 1.453 . S
C445 C449 1.684 . S
C446 C427 1.723 . S
C446 C445 1.396 . S
C446 C447 1.394 . S
C447 C443 1.397 . S
C447 C446 1.394 . S
C447 C457 1.723 . S
C448 C445 1.453 . S
C448 H472 0.982 . S
C448 H473 0.979 . S
C448 H474 0.977 . S
C449 C445 1.684 . S
C449 H475 0.979 . S
C449 H476 0.980 . S
C449 H477 0.983 . S
C450 H426 0.948 . S
C450 C451 1.391 . S
C450 C455 1.391 . S
C451 C450 1.391 . S
C451 C452 1.391 . S
C452 H429 0.947 . S
C452 C451 1.391 . S
C452 C453 1.392 . S
C453 H430 0.948 . S
C453 C452 1.392 . S
C453 C454 1.419 . S
C454 C453 1.419 . S
C454 C455 1.391 . S
C454 C458 1.397 . S
C455 C450 1.391 . S
C455 C454 1.391 . S
C455 C456 1.399 . S
C456 C455 1.399 . S
C456 C457 1.396 . S
C456 C459 1.453 . S
C456 C460 1.684 . S
C457 C447 1.723 . S
C457 C456 1.396 . S
C457 C458 1.394 . S
C458 C428 1.723 . S
C458 C454 1.397 . S
C458 C457 1.394 . S
C459 H431 0.982 . S
C459 H435 0.979 . S
C459 H436 0.977 . S
C459 C456 1.453 . S
C460 H432 0.979 . S
C460 H433 0.980 . S
C460 H434 0.983 . S
C460 C456 1.684 . S
H461 C479 0.948 . S
H462 C420 0.948 . S
H463 C438 0.979 . S
H464 C438 0.980 . S
H465 C438 0.983 . S
H466 C437 0.982 . S
H467 C437 0.979 . S
H468 C437 0.977 . S
H469 C439 0.948 . S
H470 C441 0.947 . S
H471 C442 0.948 . S
H472 C448 0.982 . S
H473 C448 0.979 . S
H474 C448 0.977 . S
H475 C449 0.979 . S
H476 C449 0.980 . S
H477 C449 0.983 . S
H478 C422 0.947 . S
C479 C422 1.392 . S
C479 C423 1.419 . S
C479 H461 0.948 . S
Tb480 C482 2.809 . S
Tb480 O500 2.484 . S
Tb480 O501 2.440 . S
Tb480 O502 2.658 1_665 S
Tb480 O503 2.409 1_565 S
Tb480 O504 2.378 1_655 S
Tb480 O508 2.325 . S
Tb480 O511 2.341 1_565 S
Tb481 C491 2.809 . S
Tb481 O502 2.325 . S
Tb481 O505 2.341 1_545 S
Tb481 O506 2.484 . S
Tb481 O507 2.440 . S
Tb481 O508 2.658 1_445 S
Tb481 O509 2.409 1_545 S
Tb481 O510 2.378 1_455 S
C482 Tb480 2.809 . S
C482 C483 1.514 . S
C482 O500 1.248 . S
C482 O501 1.266 . S
C483 C482 1.514 . S
C483 C484 1.359 . S
C483 C488 1.348 . S
C484 C483 1.359 . S
C484 C485 1.380 . S
C484 H512 0.929 . S
C485 C484 1.380 . S
C485 C486 1.347 . S
C485 H513 0.931 . S
C486 C485 1.347 . S
C486 C487 1.369 . S
C487 C486 1.369 . S
C487 C488 1.408 . S
C487 H514 0.930 . S
C488 C483 1.348 . S
C488 C487 1.408 . S
C488 H515 0.930 . S
C489 O502 1.281 . S
C489 O503 1.254 1_455 S
C490 O504 1.236 . S
C490 O505 1.266 . S
C491 Tb481 2.809 . S
C491 C492 1.514 . S
C491 O506 1.248 . S
C491 O507 1.266 . S
C492 C491 1.514 . S
C492 C493 1.359 . S
C492 C497 1.348 . S
C493 C492 1.359 . S
C493 C494 1.380 . S
C493 H516 0.929 . S
C494 C493 1.380 . S
C494 C495 1.347 . S
C494 H517 0.931 . S
C495 C494 1.347 . S
C495 C496 1.369 . S
C496 C495 1.369 . S
C496 C497 1.408 . S
C496 H518 0.930 . S
C497 C492 1.348 . S
C497 C496 1.408 . S
C497 H519 0.930 . S
C498 O508 1.281 . S
C498 O509 1.254 1_655 S
C499 O510 1.236 . S
C499 O511 1.266 . S
O500 Tb480 2.484 . S
O500 C482 1.248 . S
O501 Tb480 2.440 . S
O501 C482 1.266 . S
O502 Tb480 2.658 1_445 S
O502 Tb481 2.325 . S
O502 C489 1.281 . S
O503 Tb480 2.409 1_545 S
O503 C489 1.254 1_655 S
O504 Tb480 2.378 1_455 S
O504 C490 1.236 . S
O505 Tb481 2.341 1_565 S
O505 C490 1.266 . S
O506 Tb481 2.484 . S
O506 C491 1.248 . S
O507 Tb481 2.440 . S
O507 C491 1.266 . S
O508 Tb480 2.325 . S
O508 Tb481 2.658 1_665 S
O508 C498 1.281 . S
O509 Tb481 2.409 1_565 S
O509 C498 1.254 1_455 S
O510 Tb481 2.378 1_655 S
O510 C499 1.236 . S
O511 Tb480 2.341 1_545 S
O511 C499 1.266 . S
H512 C484 0.929 . S
H513 C485 0.931 . S
H514 C487 0.930 . S
H515 C488 0.930 . S
H516 C493 0.929 . S
H517 C494 0.931 . S
H518 C496 0.930 . S
H519 C497 0.930 . S
Tb520 C522 2.809 . S
Tb520 O540 2.484 . S
Tb520 O541 2.440 . S
Tb520 O542 2.658 1_545 S
Tb520 O543 2.409 1_545 S
Tb520 O544 2.378 . S
Tb520 O548 2.325 1_554 S
Tb520 O551 2.341 1_544 S
Tb521 C531 2.809 . S
Tb521 O542 2.325 1_556 S
Tb521 O545 2.341 1_566 S
Tb521 O546 2.484 . S
Tb521 O547 2.440 . S
Tb521 O548 2.658 1_565 S
Tb521 O549 2.409 1_565 S
Tb521 O550 2.378 . S
C522 Tb520 2.809 . S
C522 C523 1.514 . S
C522 O540 1.248 . S
C522 O541 1.266 . S
C523 C522 1.514 . S
C523 C524 1.359 . S
C523 C528 1.348 . S
C524 C523 1.359 . S
C524 C525 1.380 . S
C524 H552 0.929 . S
C525 C524 1.380 . S
C525 C526 1.347 . S
C525 H553 0.931 . S
C526 C525 1.347 . S
C526 C527 1.369 . S
C527 C526 1.369 . S
C527 C528 1.408 . S
C527 H554 0.930 . S
C528 C523 1.348 . S
C528 C527 1.408 . S
C528 H555 0.930 . S
C529 O542 1.281 . S
C529 O543 1.254 . S
C530 O544 1.236 . S
C530 O545 1.266 . S
C531 Tb521 2.809 . S
C531 C532 1.514 . S
C531 O546 1.248 . S
C531 O547 1.266 . S
C532 C531 1.514 . S
C532 C533 1.359 . S
C532 C537 1.348 . S
C533 C532 1.359 . S
C533 C534 1.380 . S
C533 H556 0.929 . S
C534 C533 1.380 . S
C534 C535 1.347 . S
C534 H557 0.931 . S
C535 C534 1.347 . S
C535 C536 1.369 . S
C536 C535 1.369 . S
C536 C537 1.408 . S
C536 H558 0.930 . S
C537 C532 1.348 . S
C537 C536 1.408 . S
C537 H559 0.930 . S
C538 O548 1.281 . S
C538 O549 1.254 . S
C539 O550 1.236 . S
C539 O551 1.266 . S
O540 Tb520 2.484 . S
O540 C522 1.248 . S
O541 Tb520 2.440 . S
O541 C522 1.266 . S
O542 Tb520 2.658 1_565 S
O542 Tb521 2.325 1_554 S
O542 C529 1.281 . S
O543 Tb520 2.409 1_565 S
O543 C529 1.254 . S
O544 Tb520 2.378 . S
O544 C530 1.236 . S
O545 Tb521 2.341 1_544 S
O545 C530 1.266 . S
O546 Tb521 2.484 . S
O546 C531 1.248 . S
O547 Tb521 2.440 . S
O547 C531 1.266 . S
O548 Tb520 2.325 1_556 S
O548 Tb521 2.658 1_545 S
O548 C538 1.281 . S
O549 Tb521 2.409 1_545 S
O549 C538 1.254 . S
O550 Tb521 2.378 . S
O550 C539 1.236 . S
O551 Tb520 2.341 1_566 S
O551 C539 1.266 . S
H552 C524 0.929 . S
H553 C525 0.931 . S
H554 C527 0.930 . S
H555 C528 0.930 . S
H556 C533 0.929 . S
H557 C534 0.931 . S
H558 C536 0.930 . S
H559 C537 0.930 . S
Tb560 C562 2.809 . S
Tb560 O580 2.484 . S
Tb560 O581 2.440 . S
Tb560 O582 2.658 . S
Tb560 O583 2.409 . S
Tb560 O584 2.378 . S
Tb560 O588 2.325 . S
Tb560 O591 2.341 . S
Tb561 C571 2.809 . S
Tb561 O582 2.325 . S
Tb561 O585 2.341 . S
Tb561 O586 2.484 . S
Tb561 O587 2.440 . S
Tb561 O588 2.658 . S
Tb561 O589 2.409 . S
Tb561 O590 2.378 . S
C562 Tb560 2.809 . S
C562 C563 1.514 . S
C562 O580 1.248 . S
C562 O581 1.266 . S
C563 C562 1.514 . S
C563 C564 1.359 . S
C563 C568 1.348 . S
C564 C563 1.359 . S
C564 C565 1.380 . S
C564 H592 0.929 . S
C565 C564 1.380 . S
C565 C566 1.347 . S
C565 H593 0.931 . S
C566 C565 1.347 . S
C566 C567 1.369 . S
C567 C566 1.369 . S
C567 C568 1.408 . S
C567 H594 0.930 . S
C568 C563 1.348 . S
C568 C567 1.408 . S
C568 H595 0.930 . S
C569 O582 1.281 . S
C569 O583 1.254 . S
C570 O584 1.236 . S
C570 O585 1.266 . S
C571 Tb561 2.809 . S
C571 C572 1.514 . S
C571 O586 1.248 . S
C571 O587 1.266 . S
C572 C571 1.514 . S
C572 C573 1.359 . S
C572 C577 1.348 . S
C573 C572 1.359 . S
C573 C574 1.380 . S
C573 H596 0.929 . S
C574 C573 1.380 . S
C574 C575 1.347 . S
C574 H597 0.931 . S
C575 C574 1.347 . S
C575 C576 1.369 . S
C576 C575 1.369 . S
C576 C577 1.408 . S
C576 H598 0.930 . S
C577 C572 1.348 . S
C577 C576 1.408 . S
C577 H599 0.930 . S
C578 O588 1.281 . S
C578 O589 1.254 . S
C579 O590 1.236 . S
C579 O591 1.266 . S
O580 Tb560 2.484 . S
O580 C562 1.248 . S
O581 Tb560 2.440 . S
O581 C562 1.266 . S
O582 Tb560 2.658 . S
O582 Tb561 2.325 . S
O582 C569 1.281 . S
O583 Tb560 2.409 . S
O583 C569 1.254 . S
O584 Tb560 2.378 . S
O584 C570 1.236 . S
O585 Tb561 2.341 . S
O585 C570 1.266 . S
O586 Tb561 2.484 . S
O586 C571 1.248 . S
O587 Tb561 2.440 . S
O587 C571 1.266 . S
O588 Tb560 2.325 . S
O588 Tb561 2.658 . S
O588 C578 1.281 . S
O589 Tb561 2.409 . S
O589 C578 1.254 . S
O590 Tb561 2.378 . S
O590 C579 1.236 . S
O591 Tb560 2.341 . S
O591 C579 1.266 . S
H592 C564 0.929 . S
H593 C565 0.931 . S
H594 C567 0.930 . S
H595 C568 0.930 . S
H596 C573 0.929 . S
H597 C574 0.931 . S
H598 C576 0.930 . S
H599 C577 0.930 . S
Tb600 C602 2.809 . S
Tb600 O620 2.484 . S
Tb600 O621 2.440 . S
Tb600 O622 2.658 1_656 S
Tb600 O623 2.406 1_656 S
Tb600 O624 2.378 1_556 S
Tb600 O628 2.325 . S
Tb600 O631 2.341 1_655 S
Tb601 C611 2.809 . S
Tb601 O622 2.325 . S
Tb601 O625 2.341 1_455 S
Tb601 O626 2.484 . S
Tb601 O627 2.440 . S
Tb601 O628 2.658 1_454 S
Tb601 O629 2.410 1_455 S
Tb601 O630 2.378 1_554 S
C602 Tb600 2.809 . S
C602 C603 1.514 . S
C602 O620 1.248 . S
C602 O621 1.266 . S
C603 C602 1.514 . S
C603 C604 1.359 . S
C603 C608 1.348 . S
C604 C603 1.359 . S
C604 C605 1.380 . S
C604 H632 0.929 . S
C605 C604 1.380 . S
C605 C606 1.347 . S
C605 H633 0.931 . S
C606 C605 1.347 . S
C606 C607 1.369 . S
C607 C606 1.369 . S
C607 C608 1.408 . S
C607 H634 0.930 . S
C608 C603 1.348 . S
C608 C607 1.408 . S
C608 H635 0.930 . S
C609 O622 1.281 . S
C609 O623 1.256 . S
C610 O624 1.236 . S
C610 O625 1.266 . S
C611 Tb601 2.809 . S
C611 C612 1.514 . S
C611 O626 1.248 . S
C611 O627 1.266 . S
C612 C611 1.514 . S
C612 C613 1.359 . S
C612 C617 1.348 . S
C613 C612 1.359 . S
C613 C614 1.380 . S
C613 H636 0.929 . S
C614 C613 1.380 . S
C614 C615 1.347 . S
C614 H637 0.931 . S
C615 C614 1.347 . S
C615 C616 1.369 . S
C616 C615 1.369 . S
C616 C617 1.408 . S
C616 H638 0.930 . S
C617 C612 1.348 . S
C617 C616 1.408 . S
C617 H639 0.930 . S
C618 O628 1.281 . S
C618 O629 1.253 1_556 S
C619 O630 1.236 . S
C619 O631 1.266 . S
O620 Tb600 2.484 . S
O620 C602 1.248 . S
O621 Tb600 2.440 . S
O621 C602 1.266 . S
O622 Tb600 2.658 1_454 S
O622 Tb601 2.325 . S
O622 C609 1.281 . S
O623 Tb600 2.406 1_454 S
O623 C609 1.256 . S
O624 Tb600 2.378 1_554 S
O624 C610 1.236 . S
O625 Tb601 2.341 1_655 S
O625 C610 1.266 . S
O626 Tb601 2.484 . S
O626 C611 1.248 . S
O627 Tb601 2.440 . S
O627 C611 1.266 . S
O628 Tb600 2.325 . S
O628 Tb601 2.658 1_656 S
O628 C618 1.281 . S
O629 Tb601 2.410 1_655 S
O629 C618 1.253 1_554 S
O630 Tb601 2.378 1_556 S
O630 C619 1.236 . S
O631 Tb600 2.341 1_455 S
O631 C619 1.266 . S
H632 C604 0.929 . S
H633 C605 0.931 . S
H634 C607 0.930 . S
H635 C608 0.930 . S
H636 C613 0.929 . S
H637 C614 0.931 . S
H638 C616 0.930 . S
H639 C617 0.930 . S
H640 C648 0.950 . S
H641 C653 0.950 . S
H642 C650 0.950 . S
H643 C652 0.950 . S
H644 C654 0.950 . S
H645 C656 0.950 . S
H646 C658 0.950 . S
H647 C659 0.950 . S
C648 H640 0.950 . S
C648 C649 1.386 . S
C648 C650 1.391 . S
C649 C648 1.386 . S
C649 C653 1.393 . S
C650 H642 0.950 . S
C650 C648 1.391 . S
C650 C651 1.400 . S
C651 C650 1.400 . S
C651 C652 1.398 . S
C651 C657 1.491 . S
C652 H643 0.950 . S
C652 C651 1.398 . S
C652 C653 1.391 . S
C653 H641 0.950 . S
C653 C649 1.393 . S
C653 C652 1.391 . S
C654 H644 0.950 . S
C654 C655 1.386 . S
C654 C656 1.391 . S
C655 C654 1.386 . S
C655 C659 1.393 . S
C656 H645 0.950 . S
C656 C654 1.391 . S
C656 C657 1.400 . S
C657 C651 1.491 . S
C657 C656 1.400 . S
C657 C658 1.398 . S
C658 H646 0.950 . S
C658 C657 1.398 . S
C658 C659 1.391 . S
C659 H647 0.950 . S
C659 C655 1.393 . S
C659 C658 1.391 . S
H660 C668 0.950 . S
H661 C673 0.950 . S
H662 C670 0.950 . S
H663 C672 0.950 . S
H664 C674 0.950 . S
H665 C676 0.950 . S
H666 C678 0.950 . S
H667 C679 0.950 . S
C668 H660 0.950 . S
C668 C669 1.386 . S
C668 C670 1.391 . S
C669 C668 1.386 . S
C669 C673 1.393 . S
C670 H662 0.950 . S
C670 C668 1.391 . S
C670 C671 1.400 . S
C671 C670 1.400 . S
C671 C672 1.398 . S
C671 C677 1.491 . S
C672 H663 0.950 . S
C672 C671 1.398 . S
C672 C673 1.391 . S
C673 H661 0.950 . S
C673 C669 1.393 . S
C673 C672 1.391 . S
C674 H664 0.950 . S
C674 C675 1.386 . S
C674 C676 1.391 . S
C675 C674 1.386 . S
C675 C679 1.393 . S
C676 H665 0.950 . S
C676 C674 1.391 . S
C676 C677 1.400 . S
C677 C671 1.491 . S
C677 C676 1.400 . S
C677 C678 1.398 . S
C678 H666 0.950 . S
C678 C677 1.398 . S
C678 C679 1.391 . S
C679 H667 0.950 . S
C679 C675 1.393 . S
C679 C678 1.391 . S
H680 C688 0.950 . S
H681 C693 0.950 . S
H682 C690 0.950 . S
H683 C692 0.950 . S
H684 C694 0.950 . S
H685 C696 0.950 . S
H686 C698 0.950 . S
H687 C699 0.950 . S
C688 H680 0.950 . S
C688 C689 1.386 . S
C688 C690 1.391 . S
C689 C688 1.386 . S
C689 C693 1.393 . S
C690 H682 0.950 . S
C690 C688 1.391 . S
C690 C691 1.400 . S
C691 C690 1.400 . S
C691 C692 1.398 . S
C691 C697 1.491 . S
C692 H683 0.950 . S
C692 C691 1.398 . S
C692 C693 1.391 . S
C693 H681 0.950 . S
C693 C689 1.393 . S
C693 C692 1.391 . S
C694 H684 0.950 . S
C694 C695 1.386 . S
C694 C696 1.391 . S
C695 C694 1.386 . S
C695 C699 1.393 . S
C696 H685 0.950 . S
C696 C694 1.391 . S
C696 C697 1.400 . S
C697 C691 1.491 . S
C697 C696 1.400 . S
C697 C698 1.398 . S
C698 H686 0.950 . S
C698 C697 1.398 . S
C698 C699 1.391 . S
C699 H687 0.950 . S
C699 C695 1.393 . S
C699 C698 1.391 . S
H700 C708 0.950 . S
H701 C713 0.950 . S
H702 C710 0.950 . S
H703 C712 0.950 . S
H704 C714 0.950 . S
H705 C716 0.950 . S
H706 C718 0.950 . S
H707 C719 0.950 . S
C708 H700 0.950 . S
C708 C709 1.386 . S
C708 C710 1.391 . S
C709 C708 1.386 . S
C709 C713 1.393 . S
C710 H702 0.950 . S
C710 C708 1.391 . S
C710 C711 1.400 . S
C711 C710 1.400 . S
C711 C712 1.398 . S
C711 C717 1.491 . S
C712 H703 0.950 . S
C712 C711 1.398 . S
C712 C713 1.391 . S
C713 H701 0.950 . S
C713 C709 1.393 . S
C713 C712 1.391 . S
C714 H704 0.950 . S
C714 C715 1.386 . S
C714 C716 1.391 . S
C715 C714 1.386 . S
C715 C719 1.393 . S
C716 H705 0.950 . S
C716 C714 1.391 . S
C716 C717 1.400 . S
C717 C711 1.491 . S
C717 C716 1.400 . S
C717 C718 1.398 . S
C718 H706 0.950 . S
C718 C717 1.398 . S
C718 C719 1.391 . S
C719 H707 0.950 . S
C719 C715 1.393 . S
C719 C718 1.391 . S
H720 C728 0.950 . S
H721 C733 0.950 . S
H722 C730 0.950 . S
H723 C732 0.950 . S
H724 C734 0.950 . S
H725 C736 0.950 . S
H726 C738 0.950 . S
H727 C739 0.950 . S
C728 H720 0.950 . S
C728 C729 1.386 . S
C728 C730 1.391 . S
C729 C728 1.386 . S
C729 C733 1.393 . S
C730 H722 0.950 . S
C730 C728 1.391 . S
C730 C731 1.400 . S
C731 C730 1.400 . S
C731 C732 1.398 . S
C731 C737 1.491 . S
C732 H723 0.950 . S
C732 C731 1.398 . S
C732 C733 1.391 . S
C733 H721 0.950 . S
C733 C729 1.393 . S
C733 C732 1.391 . S
C734 H724 0.950 . S
C734 C735 1.386 . S
C734 C736 1.391 . S
C735 C734 1.386 . S
C735 C739 1.393 . S
C736 H725 0.950 . S
C736 C734 1.391 . S
C736 C737 1.400 . S
C737 C731 1.491 . S
C737 C736 1.400 . S
C737 C738 1.398 . S
C738 H726 0.950 . S
C738 C737 1.398 . S
C738 C739 1.391 . S
C739 H727 0.950 . S
C739 C735 1.393 . S
C739 C738 1.391 . S
H740 C748 0.950 . S
H741 C753 0.950 . S
H742 C750 0.950 . S
H743 C752 0.984 . S
H744 C754 0.950 1_655 S
H745 C756 0.950 1_655 S
H746 C758 0.950 . S
H747 C759 0.950 . S
C748 H740 0.950 . S
C748 C749 1.386 . S
C748 C750 1.391 . S
C749 C748 1.386 . S
C749 C753 1.393 . S
C750 H742 0.950 . S
C750 C748 1.391 . S
C750 C751 1.400 . S
C751 C750 1.400 . S
C751 C752 1.398 . S
C751 C757 1.491 . S
C752 H743 0.984 . S
C752 C751 1.398 . S
C752 C753 1.391 . S
C753 H741 0.950 . S
C753 C749 1.393 . S
C753 C752 1.391 . S
C754 H744 0.950 1_455 S
C754 C755 1.386 . S
C754 C756 1.391 . S
C755 C754 1.386 . S
C755 C759 1.393 . S
C756 H745 0.950 1_455 S
C756 C754 1.391 . S
C756 C757 1.400 . S
C757 C751 1.491 . S
C757 C756 1.400 . S
C757 C758 1.398 . S
C758 H746 0.950 . S
C758 C757 1.398 . S
C758 C759 1.391 . S
C759 H747 0.950 . S
C759 C755 1.393 . S
C759 C758 1.391 . S
H760 C768 0.950 . S
H761 C773 0.950 . S
H762 C770 0.950 . S
H763 C772 0.950 . S
H764 C774 0.950 . S
H765 C776 0.950 . S
H766 C778 0.950 . S
H767 C779 0.950 . S
C768 H760 0.950 . S
C768 C769 1.386 . S
C768 C770 1.391 . S
C769 C768 1.386 . S
C769 C773 1.393 . S
C770 H762 0.950 . S
C770 C768 1.391 . S
C770 C771 1.400 . S
C771 C770 1.400 . S
C771 C772 1.398 . S
C771 C777 1.491 . S
C772 H763 0.950 . S
C772 C771 1.398 . S
C772 C773 1.391 . S
C773 H761 0.950 . S
C773 C769 1.393 . S
C773 C772 1.391 . S
C774 H764 0.950 . S
C774 C775 1.386 . S
C774 C776 1.391 . S
C775 C774 1.386 . S
C775 C779 1.393 . S
C776 H765 0.950 . S
C776 C774 1.391 . S
C776 C777 1.400 . S
C777 C771 1.491 . S
C777 C776 1.400 . S
C777 C778 1.398 . S
C778 H766 0.950 . S
C778 C777 1.398 . S
C778 C779 1.391 . S
C779 H767 0.950 . S
C779 C775 1.393 . S
C779 C778 1.391 . S
H780 C788 0.950 . S
H781 C793 0.950 . S
H782 C790 0.950 . S
H783 C792 0.950 . S
H784 C794 0.950 . S
H785 C796 0.950 . S
H786 C798 0.950 . S
H787 C799 0.950 . S
C788 H780 0.950 . S
C788 C789 1.386 . S
C788 C790 1.391 . S
C789 C788 1.386 . S
C789 C793 1.393 . S
C790 H782 0.950 . S
C790 C788 1.391 . S
C790 C791 1.400 . S
C791 C790 1.400 . S
C791 C792 1.398 . S
C791 C797 1.491 . S
C792 H783 0.950 . S
C792 C791 1.398 . S
C792 C793 1.391 . S
C793 H781 0.950 . S
C793 C789 1.393 . S
C793 C792 1.391 . S
C794 H784 0.950 . S
C794 C795 1.386 . S
C794 C796 1.391 . S
C795 C794 1.386 . S
C795 C799 1.393 . S
C796 H785 0.950 . S
C796 C794 1.391 . S
C796 C797 1.400 . S
C797 C791 1.491 . S
C797 C796 1.400 . S
C797 C798 1.398 . S
C798 H786 0.950 . S
C798 C797 1.398 . S
C798 C799 1.391 . S
C799 H787 0.950 . S
C799 C795 1.393 . S
C799 C798 1.391 . S
H800 C808 0.950 . S
H801 C813 0.950 . S
H802 C810 0.950 . S
H803 C812 0.950 . S
H804 C814 0.950 . S
H805 C816 0.950 . S
H806 C818 0.950 . S
H807 C819 0.950 . S
C808 H800 0.950 . S
C808 C809 1.386 . S
C808 C810 1.391 . S
C809 C808 1.386 . S
C809 C813 1.393 . S
C810 H802 0.950 . S
C810 C808 1.391 . S
C810 C811 1.400 . S
C811 C810 1.400 . S
C811 C812 1.398 . S
C811 C817 1.491 . S
C812 H803 0.950 . S
C812 C811 1.398 . S
C812 C813 1.391 . S
C813 H801 0.950 . S
C813 C809 1.393 . S
C813 C812 1.391 . S
C814 H804 0.950 . S
C814 C815 1.386 . S
C814 C816 1.391 . S
C815 C814 1.386 . S
C815 C819 1.393 . S
C816 H805 0.950 . S
C816 C814 1.391 . S
C816 C817 1.400 . S
C817 C811 1.491 . S
C817 C816 1.400 . S
C817 C818 1.398 . S
C818 H806 0.950 . S
C818 C817 1.398 . S
C818 C819 1.391 . S
C819 H807 0.950 . S
C819 C815 1.393 . S
C819 C818 1.391 . S
H820 C828 0.950 . S
H821 C833 0.950 . S
H822 C830 0.950 . S
H823 C832 0.950 . S
H824 C834 0.950 . S
H825 C836 0.950 . S
H826 C838 0.950 . S
H827 C839 0.950 . S
C828 H820 0.950 . S
C828 C829 1.386 . S
C828 C830 1.391 . S
C829 C828 1.386 . S
C829 C833 1.393 . S
C830 H822 0.950 . S
C830 C828 1.391 . S
C830 C831 1.400 . S
C831 C830 1.400 . S
C831 C832 1.398 . S
C831 C837 1.491 . S
C832 H823 0.950 . S
C832 C831 1.398 . S
C832 C833 1.391 . S
C833 H821 0.950 . S
C833 C829 1.393 . S
C833 C832 1.391 . S
C834 H824 0.950 . S
C834 C835 1.386 . S
C834 C836 1.391 . S
C835 C834 1.386 . S
C835 C839 1.393 . S
C836 H825 0.950 . S
C836 C834 1.391 . S
C836 C837 1.400 . S
C837 C831 1.491 . S
C837 C836 1.400 . S
C837 C838 1.398 . S
C838 H826 0.950 . S
C838 C837 1.398 . S
C838 C839 1.391 . S
C839 H827 0.950 . S
C839 C835 1.393 . S
C839 C838 1.391 . S
H840 C848 0.950 . S
H841 C853 0.950 . S
H842 C850 0.950 . S
H843 C852 0.950 . S
H844 C854 0.950 . S
H845 C856 0.950 . S
H846 C858 0.950 . S
H847 C859 0.950 . S
C848 H840 0.950 . S
C848 C849 1.386 . S
C848 C850 1.391 . S
C849 C848 1.386 . S
C849 C853 1.393 . S
C850 H842 0.950 . S
C850 C848 1.391 . S
C850 C851 1.400 . S
C851 C850 1.400 . S
C851 C852 1.398 . S
C851 C857 1.491 . S
C852 H843 0.950 . S
C852 C851 1.398 . S
C852 C853 1.391 . S
C853 H841 0.950 . S
C853 C849 1.393 . S
C853 C852 1.391 . S
C854 H844 0.950 . S
C854 C855 1.386 . S
C854 C856 1.391 . S
C855 C854 1.386 . S
C855 C859 1.393 . S
C856 H845 0.950 . S
C856 C854 1.391 . S
C856 C857 1.400 . S
C857 C851 1.491 . S
C857 C856 1.400 . S
C857 C858 1.398 . S
C858 H846 0.950 . S
C858 C857 1.398 . S
C858 C859 1.391 . S
C859 H847 0.950 . S
C859 C855 1.393 . S
C859 C858 1.391 . S
H860 C868 0.950 . S
H861 C873 0.950 . S
H862 C870 0.950 . S
H863 C872 0.950 . S
H864 C874 0.950 . S
H865 C876 0.950 . S
H866 C878 0.950 . S
H867 C879 0.950 . S
C868 H860 0.950 . S
C868 C869 1.386 . S
C868 C870 1.391 . S
C869 C868 1.386 . S
C869 C873 1.393 . S
C870 H862 0.950 . S
C870 C868 1.391 . S
C870 C871 1.400 . S
C871 C870 1.400 . S
C871 C872 1.398 . S
C871 C877 1.491 . S
C872 H863 0.950 . S
C872 C871 1.398 . S
C872 C873 1.391 . S
C873 H861 0.950 . S
C873 C869 1.393 . S
C873 C872 1.391 . S
C874 H864 0.950 . S
C874 C875 1.386 . S
C874 C876 1.391 . S
C875 C874 1.386 . S
C875 C879 1.393 . S
C876 H865 0.950 . S
C876 C874 1.391 . S
C876 C877 1.400 . S
C877 C871 1.491 . S
C877 C876 1.400 . S
C877 C878 1.398 . S
C878 H866 0.950 . S
C878 C877 1.398 . S
C878 C879 1.391 . S
C879 H867 0.950 . S
C879 C875 1.393 . S
C879 C878 1.391 . S
H880 C888 0.950 . S
H881 C893 0.950 . S
H882 C890 0.950 . S
H883 C892 0.950 . S
H884 C894 0.950 . S
H885 C896 0.950 . S
H886 C898 0.950 . S
H887 C899 0.950 . S
C888 H880 0.950 . S
C888 C889 1.386 . S
C888 C890 1.391 . S
C889 C888 1.386 . S
C889 C893 1.393 . S
C890 H882 0.950 . S
C890 C888 1.391 . S
C890 C891 1.400 . S
C891 C890 1.400 . S
C891 C892 1.398 . S
C891 C897 1.491 . S
C892 H883 0.950 . S
C892 C891 1.398 . S
C892 C893 1.391 . S
C893 H881 0.950 . S
C893 C889 1.393 . S
C893 C892 1.391 . S
C894 H884 0.950 . S
C894 C895 1.386 . S
C894 C896 1.391 . S
C895 C894 1.386 . S
C895 C899 1.393 . S
C896 H885 0.950 . S
C896 C894 1.391 . S
C896 C897 1.400 . S
C897 C891 1.491 . S
C897 C896 1.400 . S
C897 C898 1.398 . S
C898 H886 0.950 . S
C898 C897 1.398 . S
C898 C899 1.391 . S
C899 H887 0.950 . S
C899 C895 1.393 . S
C899 C898 1.391 . S
H900 C908 0.950 . S
H901 C913 0.950 . S
H902 C910 0.950 . S
H903 C912 0.950 . S
H904 C914 0.950 . S
H905 C916 0.950 . S
H906 C918 0.950 . S
H907 C919 0.950 . S
C908 H900 0.950 . S
C908 C909 1.386 . S
C908 C910 1.391 . S
C909 C908 1.386 . S
C909 C913 1.393 . S
C910 H902 0.950 . S
C910 C908 1.391 . S
C910 C911 1.400 . S
C911 C910 1.400 . S
C911 C912 1.398 . S
C911 C917 1.491 . S
C912 H903 0.950 . S
C912 C911 1.398 . S
C912 C913 1.391 . S
C913 H901 0.950 . S
C913 C909 1.393 . S
C913 C912 1.391 . S
C914 H904 0.950 . S
C914 C915 1.386 . S
C914 C916 1.391 . S
C915 C914 1.386 . S
C915 C919 1.393 . S
C916 H905 0.950 . S
C916 C914 1.391 . S
C916 C917 1.400 . S
C917 C911 1.491 . S
C917 C916 1.400 . S
C917 C918 1.398 . S
C918 H906 0.950 . S
C918 C917 1.398 . S
C918 C919 1.391 . S
C919 H907 0.950 . S
C919 C915 1.393 . S
C919 C918 1.391 . S
H920 C928 0.950 . S
H921 C933 0.950 . S
H922 C930 0.950 . S
H923 C932 0.950 . S
H924 C934 0.950 . S
H925 C936 0.950 . S
H926 C938 0.950 . S
H927 C939 0.950 . S
C928 H920 0.950 . S
C928 C929 1.386 . S
C928 C930 1.391 . S
C929 C928 1.386 . S
C929 C933 1.393 . S
C930 H922 0.950 . S
C930 C928 1.391 . S
C930 C931 1.400 . S
C931 C930 1.400 . S
C931 C932 1.398 . S
C931 C937 1.491 . S
C932 H923 0.950 . S
C932 C931 1.398 . S
C932 C933 1.391 . S
C933 H921 0.950 . S
C933 C929 1.393 . S
C933 C932 1.391 . S
C934 H924 0.950 . S
C934 C935 1.386 . S
C934 C936 1.391 . S
C935 C934 1.386 . S
C935 C939 1.393 . S
C936 H925 0.950 . S
C936 C934 1.391 . S
C936 C937 1.400 . S
C937 C931 1.491 . S
C937 C936 1.400 . S
C937 C938 1.398 . S
C938 H926 0.950 . S
C938 C937 1.398 . S
C938 C939 1.391 . S
C939 H927 0.950 . S
C939 C935 1.393 . S
C939 C938 1.391 . S
H940 C948 0.950 . S
H941 C953 0.950 . S
H942 C950 0.950 . S
H943 C952 0.950 . S
H944 C954 0.950 . S
H945 C956 0.950 . S
H946 C958 0.950 . S
H947 C959 0.950 . S
C948 H940 0.950 . S
C948 C949 1.386 . S
C948 C950 1.391 . S
C949 C948 1.386 . S
C949 C953 1.393 . S
C950 H942 0.950 . S
C950 C948 1.391 . S
C950 C951 1.400 . S
C951 C950 1.400 . S
C951 C952 1.398 . S
C951 C957 1.491 . S
C952 H943 0.950 . S
C952 C951 1.398 . S
C952 C953 1.391 . S
C953 H941 0.950 . S
C953 C949 1.393 . S
C953 C952 1.391 . S
C954 H944 0.950 . S
C954 C955 1.386 . S
C954 C956 1.391 . S
C955 C954 1.386 . S
C955 C959 1.393 . S
C956 H945 0.950 . S
C956 C954 1.391 . S
C956 C957 1.400 . S
C957 C951 1.491 . S
C957 C956 1.400 . S
C957 C958 1.398 . S
C958 H946 0.950 . S
C958 C957 1.398 . S
C958 C959 1.391 . S
C959 H947 0.950 . S
C959 C955 1.393 . S
C959 C958 1.391 . S
H960 C968 0.950 . S
H961 C973 0.950 . S
H962 C970 0.950 . S
H963 C972 0.950 . S
H964 C974 0.950 . S
H965 C976 0.950 . S
H966 C978 0.950 . S
H967 C979 0.950 . S
C968 H960 0.950 . S
C968 C969 1.386 . S
C968 C970 1.391 . S
C969 C968 1.386 . S
C969 C973 1.393 . S
C970 H962 0.950 . S
C970 C968 1.391 . S
C970 C971 1.400 . S
C971 C970 1.400 . S
C971 C972 1.398 . S
C971 C977 1.491 . S
C972 H963 0.950 . S
C972 C971 1.398 . S
C972 C973 1.391 . S
C973 H961 0.950 . S
C973 C969 1.393 . S
C973 C972 1.391 . S
C974 H964 0.950 . S
C974 C975 1.386 . S
C974 C976 1.391 . S
C975 C974 1.386 . S
C975 C979 1.393 . S
C976 H965 0.950 . S
C976 C974 1.391 . S
C976 C977 1.400 . S
C977 C971 1.491 . S
C977 C976 1.400 . S
C977 C978 1.398 . S
C978 H966 0.950 . S
C978 C977 1.398 . S
C978 C979 1.391 . S
C979 H967 0.950 . S
C979 C975 1.393 . S
C979 C978 1.391 . S
H980 C988 0.950 . S
H981 C993 0.950 . S
H982 C990 0.950 . S
H983 C992 0.974 . S
H984 C994 0.950 1_455 S
H985 C996 0.950 1_455 S
H986 C998 0.950 . S
H987 C999 0.950 . S
C988 H980 0.950 . S
C988 C989 1.386 . S
C988 C990 1.391 . S
C989 C988 1.386 . S
C989 C993 1.393 . S
C990 H982 0.950 . S
C990 C988 1.391 . S
C990 C991 1.400 . S
C991 C990 1.400 . S
C991 C992 1.398 . S
C991 C997 1.491 . S
C992 H983 0.974 . S
C992 C991 1.398 . S
C992 C993 1.391 . S
C993 H981 0.950 . S
C993 C989 1.393 . S
C993 C992 1.391 . S
C994 H984 0.950 1_655 S
C994 C995 1.386 . S
C994 C996 1.391 . S
C995 C994 1.386 . S
C995 C999 1.393 . S
C996 H985 0.950 1_655 S
C996 C994 1.391 . S
C996 C997 1.400 . S
C997 C991 1.491 . S
C997 C996 1.400 . S
C997 C998 1.398 . S
C998 H986 0.950 . S
C998 C997 1.398 . S
C998 C999 1.391 . S
C999 H987 0.950 . S
C999 C995 1.393 . S
C999 C998 1.391 . S
H1000 C1008 0.950 . S
H1001 C1013 0.950 . S
H1002 C1010 0.950 . S
H1003 C1012 0.950 . S
H1004 C1014 0.950 . S
H1005 C1016 0.950 . S
H1006 C1018 0.950 . S
H1007 C1019 0.950 . S
C1008 H1000 0.950 . S
C1008 C1009 1.386 . S
C1008 C1010 1.391 . S
C1009 C1008 1.386 . S
C1009 C1013 1.393 . S
C1010 H1002 0.950 . S
C1010 C1008 1.391 . S
C1010 C1011 1.400 . S
C1011 C1010 1.400 . S
C1011 C1012 1.398 . S
C1011 C1017 1.491 . S
C1012 H1003 0.950 . S
C1012 C1011 1.398 . S
C1012 C1013 1.391 . S
C1013 H1001 0.950 . S
C1013 C1009 1.393 . S
C1013 C1012 1.391 . S
C1014 H1004 0.950 . S
C1014 C1015 1.386 . S
C1014 C1016 1.391 . S
C1015 C1014 1.386 . S
C1015 C1019 1.393 . S
C1016 H1005 0.950 . S
C1016 C1014 1.391 . S
C1016 C1017 1.400 . S
C1017 C1011 1.491 . S
C1017 C1016 1.400 . S
C1017 C1018 1.398 . S
C1018 H1006 0.950 . S
C1018 C1017 1.398 . S
C1018 C1019 1.391 . S
C1019 H1007 0.950 . S
C1019 C1015 1.393 . S
C1019 C1018 1.391 . S
H1020 C1028 0.950 . S
H1021 C1033 0.950 . S
H1022 C1030 0.950 . S
H1023 C1032 0.950 . S
H1024 C1034 0.950 . S
H1025 C1036 0.950 . S
H1026 C1038 0.950 . S
H1027 C1039 0.950 . S
C1028 H1020 0.950 . S
C1028 C1029 1.386 . S
C1028 C1030 1.391 . S
C1029 C1028 1.386 . S
C1029 C1033 1.393 . S
C1030 H1022 0.950 . S
C1030 C1028 1.391 . S
C1030 C1031 1.400 . S
C1031 C1030 1.400 . S
C1031 C1032 1.398 . S
C1031 C1037 1.491 . S
C1032 H1023 0.950 . S
C1032 C1031 1.398 . S
C1032 C1033 1.391 . S
C1033 H1021 0.950 . S
C1033 C1029 1.393 . S
C1033 C1032 1.391 . S
C1034 H1024 0.950 . S
C1034 C1035 1.386 . S
C1034 C1036 1.391 . S
C1035 C1034 1.386 . S
C1035 C1039 1.393 . S
C1036 H1025 0.950 . S
C1036 C1034 1.391 . S
C1036 C1037 1.400 . S
C1037 C1031 1.491 . S
C1037 C1036 1.400 . S
C1037 C1038 1.398 . S
C1038 H1026 0.950 . S
C1038 C1037 1.398 . S
C1038 C1039 1.391 . S
C1039 H1027 0.950 . S
C1039 C1035 1.393 . S
C1039 C1038 1.391 . S
H1040 C1048 0.950 . S
H1041 C1053 0.950 . S
H1042 C1050 0.950 . S
H1043 C1052 0.950 . S
H1044 C1054 0.950 . S
H1045 C1056 0.950 . S
H1046 C1058 0.950 . S
H1047 C1059 0.950 . S
C1048 H1040 0.950 . S
C1048 C1049 1.386 . S
C1048 C1050 1.391 . S
C1049 C1048 1.386 . S
C1049 C1053 1.393 . S
C1050 H1042 0.950 . S
C1050 C1048 1.391 . S
C1050 C1051 1.400 . S
C1051 C1050 1.400 . S
C1051 C1052 1.398 . S
C1051 C1057 1.491 . S
C1052 H1043 0.950 . S
C1052 C1051 1.398 . S
C1052 C1053 1.391 . S
C1053 H1041 0.950 . S
C1053 C1049 1.393 . S
C1053 C1052 1.391 . S
C1054 H1044 0.950 . S
C1054 C1055 1.386 . S
C1054 C1056 1.391 . S
C1055 C1054 1.386 . S
C1055 C1059 1.393 . S
C1056 H1045 0.950 . S
C1056 C1054 1.391 . S
C1056 C1057 1.400 . S
C1057 C1051 1.491 . S
C1057 C1056 1.400 . S
C1057 C1058 1.398 . S
C1058 H1046 0.950 . S
C1058 C1057 1.398 . S
C1058 C1059 1.391 . S
C1059 H1047 0.950 . S
C1059 C1055 1.393 . S
C1059 C1058 1.391 . S
H1060 C1068 0.950 . S
H1061 C1073 0.950 . S
H1062 C1070 0.950 . S
H1063 C1072 0.950 . S
H1064 C1074 0.950 . S
H1065 C1076 0.950 . S
H1066 C1078 0.950 . S
H1067 C1079 0.950 . S
C1068 H1060 0.950 . S
C1068 C1069 1.386 . S
C1068 C1070 1.391 . S
C1069 C1068 1.386 . S
C1069 C1073 1.393 . S
C1070 H1062 0.950 . S
C1070 C1068 1.391 . S
C1070 C1071 1.400 . S
C1071 C1070 1.400 . S
C1071 C1072 1.398 . S
C1071 C1077 1.491 . S
C1072 H1063 0.950 . S
C1072 C1071 1.398 . S
C1072 C1073 1.391 . S
C1073 H1061 0.950 . S
C1073 C1069 1.393 . S
C1073 C1072 1.391 . S
C1074 H1064 0.950 . S
C1074 C1075 1.386 . S
C1074 C1076 1.391 . S
C1075 C1074 1.386 . S
C1075 C1079 1.393 . S
C1076 H1065 0.950 . S
C1076 C1074 1.391 . S
C1076 C1077 1.400 . S
C1077 C1071 1.491 . S
C1077 C1076 1.400 . S
C1077 C1078 1.398 . S
C1078 H1066 0.950 . S
C1078 C1077 1.398 . S
C1078 C1079 1.391 . S
C1079 H1067 0.950 . S
C1079 C1075 1.393 . S
C1079 C1078 1.391 . S
H1080 C1088 0.950 . S
H1081 C1093 0.950 . S
H1082 C1090 0.950 . S
H1083 C1092 0.950 . S
H1084 C1094 0.950 . S
H1085 C1096 0.950 . S
H1086 C1098 0.950 . S
H1087 C1099 0.950 . S
C1088 H1080 0.950 . S
C1088 C1089 1.386 . S
C1088 C1090 1.391 . S
C1089 C1088 1.386 . S
C1089 C1093 1.393 . S
C1090 H1082 0.950 . S
C1090 C1088 1.391 . S
C1090 C1091 1.400 . S
C1091 C1090 1.400 . S
C1091 C1092 1.398 . S
C1091 C1097 1.491 . S
C1092 H1083 0.950 . S
C1092 C1091 1.398 . S
C1092 C1093 1.391 . S
C1093 H1081 0.950 . S
C1093 C1089 1.393 . S
C1093 C1092 1.391 . S
C1094 H1084 0.950 . S
C1094 C1095 1.386 . S
C1094 C1096 1.391 . S
C1095 C1094 1.386 . S
C1095 C1099 1.393 . S
C1096 H1085 0.950 . S
C1096 C1094 1.391 . S
C1096 C1097 1.400 . S
C1097 C1091 1.491 . S
C1097 C1096 1.400 . S
C1097 C1098 1.398 . S
C1098 H1086 0.950 . S
C1098 C1097 1.398 . S
C1098 C1099 1.391 . S
C1099 H1087 0.950 . S
C1099 C1095 1.393 . S
C1099 C1098 1.391 . S
H1100 C1108 0.950 . S
H1101 C1113 0.950 . S
H1102 C1110 0.950 . S
H1103 C1112 0.950 . S
H1104 C1114 0.950 . S
H1105 C1116 0.950 . S
H1106 C1118 0.950 . S
H1107 C1119 0.950 . S
C1108 H1100 0.950 . S
C1108 C1109 1.386 . S
C1108 C1110 1.391 . S
C1109 C1108 1.386 . S
C1109 C1113 1.393 . S
C1110 H1102 0.950 . S
C1110 C1108 1.391 . S
C1110 C1111 1.400 . S
C1111 C1110 1.400 . S
C1111 C1112 1.398 . S
C1111 C1117 1.491 . S
C1112 H1103 0.950 . S
C1112 C1111 1.398 . S
C1112 C1113 1.391 . S
C1113 H1101 0.950 . S
C1113 C1109 1.393 . S
C1113 C1112 1.391 . S
C1114 H1104 0.950 . S
C1114 C1115 1.386 . S
C1114 C1116 1.391 . S
C1115 C1114 1.386 . S
C1115 C1119 1.393 . S
C1116 H1105 0.950 . S
C1116 C1114 1.391 . S
C1116 C1117 1.400 . S
C1117 C1111 1.491 . S
C1117 C1116 1.400 . S
C1117 C1118 1.398 . S
C1118 H1106 0.950 . S
C1118 C1117 1.398 . S
C1118 C1119 1.391 . S
C1119 H1107 0.950 . S
C1119 C1115 1.393 . S
C1119 C1118 1.391 . S
C649 C1 1.254 . S
C655 C495 1.337 . S
C669 C80 1.315 . S
C675 C535 1.338 . S
C695 C569 2.261 . S
C689 C140 2.241 . S
C709 C211 2.651 . S
C715 C610 2.612 . S
C735 C530 1.447 . S
C729 C31 1.309 . S
C755 C490 2.190 . S
C749 C61 2.077 . S
C775 C618 1.571 . S
C769 C151 1.536 . S
C795 C579 1.835 . S
C789 C200 1.914 . S
C809 C20 1.331 . S
C815 C615 1.382 . S
C835 C538 1.981 . S
C829 C121 2.053 . S
C849 C181 2.407 . S
C855 C498 2.389 . S
C869 C91 1.630 . S
C875 C566 1.631 . S
C895 C486 1.323 . S
C889 C260 1.289 . S
C909 C320 1.309 . S
C915 C526 1.335 . S
C929 C361 2.199 . S
C935 C578 2.265 . S
C949 C451 2.651 . S
C955 C619 2.609 . S
C969 C271 1.356 . S
C975 C539 1.447 . S
C995 C499 2.189 . S
C989 C301 2.063 . S
C1015 C609 1.559 . S
C1009 C380 1.512 . S
C1035 C570 1.831 . S
C1029 C440 1.911 . S
C1049 C241 1.273 . S
C1055 C606 1.375 . S
C1075 C529 1.999 . S
C1069 C391 2.023 . S
C1095 C489 2.404 . S
C1089 C421 2.421 . S
C1109 C331 1.617 . S
C1115 C575 1.629 . S
