# Generated by pormake.
# Topology ssa, (4,4)-cn, num edge types: 1
# Building blocks:
#     Node 0, Type 0, BuildingBlock: KOZSID_clean_sbu_0, # of connection points: 4
#     Node 1, Type 0, BuildingBlock: KOZSID_clean_sbu_0, # of connection points: 4
#     Node 2, Type 0, BuildingBlock: KOZSID_clean_sbu_0, # of connection points: 4
#     Node 3, Type 0, BuildingBlock: KOZSID_clean_sbu_0, # of connection points: 4
#     Node 4, Type 0, BuildingBlock: KOZSID_clean_sbu_0, # of connection points: 4
#     Node 5, Type 0, BuildingBlock: KOZSID_clean_sbu_0, # of connection points: 4
#     Node 6, Type 1, BuildingBlock: NAHDIM_clean_linker_0, # of connection points: 4
#     Node 7, Type 1, BuildingBlock: NAHDIM_clean_linker_0, # of connection points: 4
#     Node 8, Type 1, BuildingBlock: NAHDIM_clean_linker_0, # of connection points: 4
#     Node 9, Type 1, BuildingBlock: NAHDIM_clean_linker_0, # of connection points: 4
#     Node 10, Type 1, BuildingBlock: NAHDIM_clean_linker_0, # of connection points: 4
#     Node 11, Type 1, BuildingBlock: NAHDIM_clean_linker_0, # of connection points: 4
#     Edge 12, Type (0, 1), BuildingBlock: OJICUG_clean_linker_0, # of connection points: 2
#     Edge 13, Type (0, 1), BuildingBlock: OJICUG_clean_linker_0, # of connection points: 2
#     Edge 14, Type (0, 1), BuildingBlock: OJICUG_clean_linker_0, # of connection points: 2
#     Edge 15, Type (0, 1), BuildingBlock: OJICUG_clean_linker_0, # of connection points: 2
#     Edge 16, Type (0, 1), BuildingBlock: OJICUG_clean_linker_0, # of connection points: 2
#     Edge 17, Type (0, 1), BuildingBlock: OJICUG_clean_linker_0, # of connection points: 2
#     Edge 18, Type (0, 1), BuildingBlock: OJICUG_clean_linker_0, # of connection points: 2
#     Edge 19, Type (0, 1), BuildingBlock: OJICUG_clean_linker_0, # of connection points: 2
#     Edge 20, Type (0, 1), BuildingBlock: OJICUG_clean_linker_0, # of connection points: 2
#     Edge 21, Type (0, 1), BuildingBlock: OJICUG_clean_linker_0, # of connection points: 2
#     Edge 22, Type (0, 1), BuildingBlock: OJICUG_clean_linker_0, # of connection points: 2
#     Edge 23, Type (0, 1), BuildingBlock: OJICUG_clean_linker_0, # of connection points: 2
#     Edge 24, Type (0, 1), BuildingBlock: OJICUG_clean_linker_0, # of connection points: 2
#     Edge 25, Type (0, 1), BuildingBlock: OJICUG_clean_linker_0, # of connection points: 2
#     Edge 26, Type (0, 1), BuildingBlock: OJICUG_clean_linker_0, # of connection points: 2
#     Edge 27, Type (0, 1), BuildingBlock: OJICUG_clean_linker_0, # of connection points: 2
#     Edge 28, Type (0, 1), BuildingBlock: OJICUG_clean_linker_0, # of connection points: 2
#     Edge 29, Type (0, 1), BuildingBlock: OJICUG_clean_linker_0, # of connection points: 2
#     Edge 30, Type (0, 1), BuildingBlock: OJICUG_clean_linker_0, # of connection points: 2
#     Edge 31, Type (0, 1), BuildingBlock: OJICUG_clean_linker_0, # of connection points: 2
#     Edge 32, Type (0, 1), BuildingBlock: OJICUG_clean_linker_0, # of connection points: 2
#     Edge 33, Type (0, 1), BuildingBlock: OJICUG_clean_linker_0, # of connection points: 2
#     Edge 34, Type (0, 1), BuildingBlock: OJICUG_clean_linker_0, # of connection points: 2
#     Edge 35, Type (0, 1), BuildingBlock: OJICUG_clean_linker_0, # of connection points: 2
# Relax obj value: 0.013
# Max RMSD: 0.051
# Mean RMSD: 0.032
data_MOF--net-ssa--node1-KOZSID_clean_sbu_0--node2-NAHDIM_clean_linker_0--edge1-OJICUG_clean_linker_0
_symmetry_space_group_name_H-M    P1
_symmetry_Int_Tables_number       1
_symmetry_cell_setting            triclinic
loop_
_symmetry_equiv_pos_as_xyz
'x, y, z'
_cell_length_a     53.982989
_cell_length_b     55.27516
_cell_length_c     47.296285
_cell_angle_alpha  87.21444
_cell_angle_beta   90.505199
_cell_angle_gamma 122.53945
loop_
_atom_site_label
_atom_site_type_symbol
_atom_site_fract_x
_atom_site_fract_y
_atom_site_fract_z
_atom_type_partial_charge
C0 C 0.98393 0.53068 0.98919 0.0
C1 C 0.95547 0.52391 0.99398 0.0
C2 C 0.94244 0.50077 0.01305 0.0
C3 C 0.96352 0.49465 0.01876 0.0
N4 N 0.98906 0.51259 0.0046 0.0
Co5 Co 0.02462 0.51049 0.00595 0.0
N6 N 0.01096 0.48644 0.04191 0.0
C7 C 0.98331 0.47191 0.05263 0.0
C8 C 0.98023 0.45682 0.07764 0.0
C9 C 0.00756 0.46182 0.08282 0.0
C10 C 0.02588 0.47979 0.06058 0.0
N11 N 0.05989 0.50781 0.00694 0.0
C12 C 0.07045 0.49881 0.02826 0.0
C13 C 0.09578 0.50026 0.01965 0.0
C14 C 0.1008 0.50988 0.99181 0.0
C15 C 0.07849 0.51395 0.98501 0.0
N16 N 0.0384 0.5349 0.97021 0.0
C17 C 0.05959 0.53848 0.95243 0.0
C18 C 0.06499 0.55741 0.92991 0.0
C19 C 0.04583 0.5661 0.93361 0.0
C20 C 0.02958 0.55174 0.95818 0.0
N21 N 0.0449 0.54512 0.02755 0.0
C22 C 0.07211 0.59669 0.05526 0.0
C23 C 0.0874 0.59222 0.03457 0.0
C24 C 0.07335 0.56637 0.02085 0.0
C25 C 0.04329 0.57454 0.06245 0.0
C26 C 0.0302 0.54884 0.04857 0.0
N27 N 0.00413 0.47584 0.98421 0.0
C28 C 0.97432 0.45075 0.9447 0.0
C29 C 0.97252 0.42539 0.95427 0.0
C30 C 0.98752 0.42625 0.97902 0.0
C31 C 0.00354 0.45167 0.99326 0.0
C32 C 0.98972 0.47543 0.96014 0.0
H33 H 0.01506 0.45152 0.0119 0.0
H34 H 0.98971 0.49412 0.95261 0.0
H35 H 0.0853 0.56389 0.00434 0.0
H36 H 0.00795 0.53218 0.0545 0.0
C37 C 0.96186 0.4757 0.04044 0.0
C38 C 0.00452 0.55279 0.96824 0.0
C39 C 0.056 0.48685 0.05607 0.0
C40 C 0.07691 0.52752 0.95997 0.0
H41 H 0.94509 0.53441 0.98452 0.0
H42 H 0.92058 0.49032 0.02235 0.0
H43 H 0.9606 0.44408 0.09079 0.0
H44 H 0.01313 0.45262 0.10056 0.0
H45 H 0.10912 0.49474 0.03211 0.0
H46 H 0.11908 0.51428 0.97842 0.0
H47 H 0.08164 0.56488 0.91337 0.0
H48 H 0.04398 0.58116 0.91972 0.0
H49 H 0.10964 0.6089 0.02817 0.0
H50 H 0.03088 0.57696 0.07869 0.0
H51 H 0.96392 0.45176 0.92541 0.0
H52 H 0.98657 0.40735 0.98788 0.0
C53 C 0.54508 0.00599 0.55685 0.0
C54 C 0.54402 0.98831 0.57936 0.0
C55 C 0.51766 0.96292 0.57815 0.0
C56 C 0.5043 0.96644 0.55499 0.0
N57 N 0.52045 0.99252 0.54129 0.0
Co58 Co 0.51001 0.00574 0.50557 0.0
N59 N 0.46993 0.96956 0.50569 0.0
C60 C 0.45845 0.94762 0.52556 0.0
C61 C 0.42967 0.92673 0.52147 0.0
C62 C 0.42215 0.9359 0.49761 0.0
C63 C 0.44708 0.96181 0.48821 0.0
N64 N 0.50007 0.01826 0.469 0.0
C65 C 0.47502 0.00509 0.4539 0.0
C66 C 0.47793 0.02066 0.42887 0.0
C67 C 0.5057 0.04464 0.42826 0.0
C68 C 0.51821 0.0423 0.45274 0.0
N69 N 0.54946 0.04275 0.5065 0.0
C70 C 0.56039 0.06544 0.48751 0.0
C71 C 0.58745 0.08829 0.49431 0.0
C72 C 0.59411 0.07983 0.51931 0.0
C73 C 0.57071 0.05212 0.5262 0.0
N74 N 0.5268 0.98791 0.48329 0.0
C75 C 0.54954 0.9634 0.44934 0.0
C76 C 0.56224 0.99298 0.44867 0.0
C77 C 0.55059 0.00464 0.46547 0.0
C78 C 0.52543 0.9461 0.46749 0.0
C79 C 0.5147 0.95874 0.48448 0.0
N80 N 0.4934 0.02365 0.52749 0.0
C81 C 0.48543 0.06228 0.53208 0.0
C82 C 0.47027 0.05013 0.55784 0.0
C83 C 0.46672 0.02421 0.5681 0.0
C84 C 0.47844 0.01143 0.5527 0.0
C85 C 0.49674 0.04892 0.51751 0.0
H86 H 0.47519 0.9917 0.56148 0.0
H87 H 0.50802 0.05945 0.49806 0.0
H88 H 0.56118 0.0273 0.46316 0.0
H89 H 0.49653 0.94443 0.49824 0.0
C90 C 0.47559 0.94679 0.54726 0.0
C91 C 0.56971 0.03551 0.55155 0.0
C92 C 0.44799 0.97806 0.46249 0.0
C93 C 0.54554 0.06368 0.46255 0.0
H94 H 0.56045 0.99334 0.59524 0.0
H95 H 0.50898 0.94436 0.59281 0.0
H96 H 0.4158 0.90719 0.53434 0.0
H97 H 0.40064 0.92466 0.48831 0.0
H98 H 0.46155 0.01537 0.41288 0.0
H99 H 0.51534 0.0621 0.41224 0.0
H100 H 0.6009 0.10854 0.48235 0.0
H101 H 0.61402 0.09251 0.53106 0.0
H102 H 0.5806 0.00727 0.43451 0.0
H103 H 0.51508 0.92298 0.46882 0.0
H104 H 0.48821 0.08191 0.52278 0.0
H105 H 0.45521 0.01397 0.588 0.0
C106 C 0.56725 0.54922 0.97469 0.0
C107 C 0.57504 0.56917 0.95207 0.0
C108 C 0.55184 0.57221 0.94785 0.0
C109 C 0.53123 0.55394 0.9679 0.0
N110 N 0.53971 0.53922 0.98464 0.0
Co111 Co 0.51622 0.5103 0.0164 0.0
N112 N 0.48168 0.51406 0.00937 0.0
C113 C 0.47936 0.53028 0.98845 0.0
C114 C 0.45217 0.52647 0.98699 0.0
C115 C 0.43604 0.50662 0.00825 0.0
C116 C 0.45459 0.49981 0.02194 0.0
N117 N 0.49306 0.48202 0.0487 0.0
C118 C 0.46557 0.47215 0.05875 0.0
C119 C 0.45861 0.45373 0.08255 0.0
C120 C 0.48217 0.45138 0.08736 0.0
C121 C 0.50227 0.46866 0.06654 0.0
N122 N 0.55041 0.50584 0.02286 0.0
C123 C 0.55209 0.48824 0.0426 0.0
C124 C 0.57825 0.48976 0.04205 0.0
C125 C 0.59427 0.50939 0.02056 0.0
C126 C 0.5768 0.51866 0.00907 0.0
N127 N 0.53264 0.54197 0.04295 0.0
C128 C 0.55656 0.58691 0.08066 0.0
C129 C 0.55689 0.56213 0.08671 0.0
C130 C 0.54504 0.54022 0.06774 0.0
C131 C 0.54405 0.58888 0.05536 0.0
C132 C 0.53212 0.56624 0.03703 0.0
N133 N 0.49978 0.47859 0.98989 0.0
C134 C 0.48244 0.42934 0.98042 0.0
C135 C 0.47506 0.43307 0.95292 0.0
C136 C 0.48056 0.46001 0.94407 0.0
C137 C 0.49265 0.48223 0.96279 0.0
C138 C 0.49492 0.45226 0.9983 0.0
H139 H 0.49582 0.50207 0.95486 0.0
H140 H 0.50039 0.44807 0.01885 0.0
H141 H 0.54636 0.52216 0.0736 0.0
H142 H 0.52262 0.56884 0.01821 0.0
C143 C 0.503 0.54866 0.97025 0.0
C144 C 0.58654 0.54007 0.98547 0.0
C145 C 0.44536 0.47951 0.0465 0.0
C146 C 0.52944 0.47181 0.06246 0.0
H147 H 0.59524 0.58015 0.93959 0.0
H148 H 0.54997 0.58568 0.9317 0.0
H149 H 0.4448 0.53656 0.97194 0.0
H150 H 0.41305 0.49786 0.01268 0.0
H151 H 0.43861 0.44295 0.09519 0.0
H152 H 0.4843 0.43844 0.10393 0.0
H153 H 0.58507 0.47834 0.05595 0.0
H154 H 0.61646 0.51632 0.01434 0.0
H155 H 0.56677 0.5598 0.10584 0.0
H156 H 0.54314 0.60764 0.04986 0.0
H157 H 0.47887 0.40887 0.98804 0.0
H158 H 0.47497 0.46379 0.92296 0.0
C159 C 0.96361 0.44242 0.53896 0.0
C160 C 0.93451 0.42147 0.53405 0.0
C161 C 0.92604 0.43155 0.51154 0.0
C162 C 0.95031 0.45802 0.50408 0.0
N163 N 0.97387 0.46543 0.52033 0.0
Co164 Co 0.01337 0.50244 0.51733 0.0
N165 N 0.00084 0.51737 0.48428 0.0
C166 C 0.97457 0.50331 0.47138 0.0
C167 C 0.97263 0.51856 0.44871 0.0
C168 C 0.99921 0.54395 0.44701 0.0
C169 C 0.01583 0.54282 0.46902 0.0
N170 N 0.05265 0.53965 0.51479 0.0
C171 C 0.06228 0.56353 0.49757 0.0
C172 C 0.09044 0.58547 0.50445 0.0
C173 C 0.09912 0.57493 0.5263 0.0
C174 C 0.07581 0.54743 0.53181 0.0
N175 N 0.02618 0.48734 0.54996 0.0
C176 C 0.05313 0.50047 0.56154 0.0
C177 C 0.0557 0.48448 0.58301 0.0
C178 C 0.02874 0.45963 0.58544 0.0
C179 C 0.01114 0.46205 0.56537 0.0
N180 N 0.02742 0.48536 0.4907 0.0
C181 C 0.04612 0.45877 0.45471 0.0
C182 C 0.06432 0.47624 0.47579 0.0
C183 C 0.05473 0.48943 0.49322 0.0
C184 C 0.01867 0.45527 0.45155 0.0
C185 C 0.0098 0.46855 0.46967 0.0
N186 N 0.99925 0.51936 0.54398 0.0
C187 C 0.0052 0.54389 0.58688 0.0
C188 C 0.97935 0.54332 0.58203 0.0
C189 C 0.96361 0.53059 0.5578 0.0
C190 C 0.97376 0.51864 0.53931 0.0
C191 C 0.01475 0.53205 0.56769 0.0
H192 H 0.96057 0.50889 0.52143 0.0
H193 H 0.03478 0.53348 0.57249 0.0
H194 H 0.06978 0.50273 0.50862 0.0
H195 H 0.98847 0.46463 0.46637 0.0
C196 C 0.95184 0.47616 0.48161 0.0
C197 C 0.98028 0.43988 0.56201 0.0
C198 C 0.04566 0.56652 0.47458 0.0
C199 C 0.07512 0.52843 0.55275 0.0
H200 H 0.92075 0.40107 0.54562 0.0
H201 H 0.90472 0.42087 0.5018 0.0
H202 H 0.95404 0.51206 0.43514 0.0
H203 H 0.00557 0.56136 0.43138 0.0
H204 H 0.10345 0.60701 0.49487 0.0
H205 H 0.1199 0.58606 0.53703 0.0
H206 H 0.0748 0.49034 0.59561 0.0
H207 H 0.02271 0.44179 0.60042 0.0
H208 H 0.08601 0.47994 0.47868 0.0
H209 H 0.00377 0.4418 0.43555 0.0
H210 H 0.01833 0.55387 0.60522 0.0
H211 H 0.94331 0.52948 0.55331 0.0
C212 C 0.47886 0.0105 0.05728 0.0
C213 C 0.48053 0.02797 0.07833 0.0
C214 C 0.50621 0.05384 0.07369 0.0
C215 C 0.51868 0.05071 0.05019 0.0
N216 N 0.50239 0.02453 0.03927 0.0
Co217 Co 0.5129 0.01051 0.00585 0.0
N218 N 0.55141 0.04813 0.99994 0.0
C219 C 0.5612 0.07208 0.01444 0.0
C220 C 0.58872 0.09437 0.00618 0.0
C221 C 0.59714 0.08411 0.98518 0.0
C222 C 0.57405 0.056 0.98167 0.0
N223 N 0.52395 0.99609 0.97313 0.0
C224 C 0.54939 0.00865 0.95775 0.0
C225 C 0.54824 0.9908 0.93742 0.0
C226 C 0.52133 0.96587 0.94037 0.0
C227 C 0.5076 0.9699 0.96219 0.0
N228 N 0.47396 0.97316 0.01125 0.0
C229 C 0.46271 0.95028 0.99485 0.0
C230 C 0.43554 0.92773 0.00383 0.0
C231 C 0.42902 0.93666 0.02743 0.0
C232 C 0.45271 0.96428 0.03148 0.0
N233 N 0.49409 0.02517 0.97983 0.0
C234 C 0.46519 0.0444 0.94421 0.0
C235 C 0.46392 0.01908 0.93931 0.0
C236 C 0.47835 0.00996 0.95718 0.0
C237 C 0.48151 0.06021 0.96699 0.0
C238 C 0.49582 0.05039 0.98426 0.0
N239 N 0.53145 0.99584 0.03179 0.0
C240 C 0.53527 0.95655 0.05051 0.0
C241 C 0.55591 0.97416 0.07005 0.0
C242 C 0.5646 0.00296 0.06979 0.0
C243 C 0.55204 0.01325 0.05072 0.0
C244 C 0.5236 0.9678 0.03155 0.0
H245 H 0.55904 0.03526 0.05188 0.0
H246 H 0.50811 0.95335 0.01702 0.0
H247 H 0.47609 0.99035 0.95229 0.0
H248 H 0.508 0.06356 0.0011 0.0
C249 C 0.54548 0.07201 0.03771 0.0
C250 C 0.45448 0.98078 0.05539 0.0
C251 C 0.57518 0.03728 0.96164 0.0
C252 C 0.47932 0.94966 0.97273 0.0
H253 H 0.46482 0.02257 0.09534 0.0
H254 H 0.51483 0.07264 0.08604 0.0
H255 H 0.60161 0.11524 0.01512 0.0
H256 H 0.61829 0.09588 0.97433 0.0
H257 H 0.56517 0.99532 0.9221 0.0
H258 H 0.51282 0.94699 0.92815 0.0
H259 H 0.42243 0.90694 0.99479 0.0
H260 H 0.40933 0.92407 0.04051 0.0
H261 H 0.45125 0.00589 0.92209 0.0
H262 H 0.4834 0.08018 0.97141 0.0
H263 H 0.52822 0.93417 0.04977 0.0
H264 H 0.58046 0.0173 0.08472 0.0
C265 C 0.53374 0.56649 0.50235 0.0
C266 C 0.52822 0.58606 0.51324 0.0
C267 C 0.50995 0.57251 0.53623 0.0
C268 C 0.50524 0.54552 0.53796 0.0
N269 N 0.51918 0.54086 0.51731 0.0
Co270 Co 0.51859 0.50469 0.51201 0.0
N271 N 0.49358 0.4855 0.54709 0.0
C272 C 0.48412 0.4972 0.56523 0.0
C273 C 0.46752 0.47893 0.58753 0.0
C274 C 0.46607 0.45397 0.58334 0.0
C275 C 0.48176 0.45837 0.55847 0.0
N276 N 0.51759 0.46837 0.50641 0.0
C277 C 0.50239 0.44248 0.52083 0.0
C278 C 0.50519 0.42204 0.50775 0.0
C279 C 0.5234 0.43561 0.48484 0.0
C280 C 0.53022 0.46328 0.48482 0.0
N281 N 0.54402 0.52398 0.47721 0.0
C282 C 0.5546 0.51275 0.4598 0.0
C283 C 0.57324 0.53167 0.43887 0.0
C284 C 0.57498 0.55668 0.44325 0.0
C285 C 0.55692 0.55144 0.46657 0.0
N286 N 0.55459 0.5198 0.53486 0.0
C287 C 0.60808 0.54704 0.5636 0.0
C288 C 0.60367 0.52964 0.54127 0.0
C289 C 0.57694 0.5164 0.52715 0.0
C290 C 0.58501 0.54954 0.57219 0.0
C291 C 0.55851 0.53548 0.55794 0.0
N292 N 0.48256 0.48971 0.48917 0.0
C293 C 0.45369 0.4645 0.44895 0.0
C294 C 0.42972 0.46479 0.45923 0.0
C295 C 0.43284 0.47844 0.48421 0.0
C296 C 0.45916 0.49055 0.49876 0.0
C297 C 0.47986 0.4773 0.46398 0.0
H298 H 0.45979 0.49999 0.51799 0.0
H299 H 0.49747 0.47665 0.45494 0.0
H300 H 0.57508 0.50403 0.50974 0.0
H301 H 0.54172 0.53805 0.56577 0.0
C302 C 0.48972 0.52482 0.55988 0.0
C303 C 0.55345 0.57346 0.4782 0.0
C304 C 0.48453 0.43609 0.54642 0.0
C305 C 0.54739 0.48459 0.4641 0.0
H306 H 0.53692 0.60802 0.50564 0.0
H307 H 0.50171 0.5815 0.55042 0.0
H308 H 0.45725 0.48309 0.60456 0.0
H309 H 0.45452 0.43466 0.59694 0.0
H310 H 0.49463 0.3994 0.51353 0.0
H311 H 0.53017 0.42623 0.46953 0.0
H312 H 0.58471 0.5279 0.42274 0.0
H313 H 0.58852 0.57664 0.4309 0.0
H314 H 0.62106 0.52707 0.534 0.0
H315 H 0.58727 0.5622 0.58995 0.0
H316 H 0.45241 0.4546 0.42932 0.0
H317 H 0.41476 0.47896 0.49319 0.0
C318 C 0.05502 0.37517 0.36851 0.0
C319 C 0.08188 0.39999 0.3825 0.0
C320 C 0.12401 0.41957 0.34922 0.0
C321 C 0.14513 0.4446 0.33406 0.0
C322 C 0.1689 0.44625 0.32022 0.0
C323 C 0.17101 0.42178 0.32079 0.0
C324 C 0.14962 0.39626 0.33596 0.0
C325 C 0.12648 0.39547 0.35025 0.0
C326 C 0.19172 0.47418 0.30502 0.0
C327 C 0.15109 0.36972 0.33688 0.0
C328 C 0.3765 0.44656 0.4003 0.0
C329 C 0.35054 0.43358 0.38163 0.0
C330 C 0.3182 0.44612 0.35774 0.0
C331 C 0.29586 0.41773 0.35234 0.0
C332 C 0.27121 0.41202 0.33667 0.0
C333 C 0.26907 0.43513 0.32588 0.0
C334 C 0.29137 0.46368 0.3315 0.0
C335 C 0.31557 0.46875 0.34752 0.0
C336 C 0.24755 0.38133 0.33139 0.0
C337 C 0.28981 0.48884 0.32025 0.0
C338 C 0.32651 0.44383 0.14638 0.0
C339 C 0.3008 0.4162 0.1485 0.0
C340 C 0.27535 0.41139 0.16202 0.0
C341 C 0.27545 0.43478 0.17309 0.0
C342 C 0.30109 0.46274 0.17029 0.0
C343 C 0.32643 0.46677 0.1574 0.0
C344 C 0.2485 0.38127 0.16489 0.0
C345 C 0.30184 0.48837 0.18112 0.0
C346 C 0.0619 0.40107 0.14758 0.0
C347 C 0.09057 0.42793 0.1365 0.0
C348 C 0.13172 0.42163 0.13803 0.0
C349 C 0.13385 0.39751 0.14009 0.0
C350 C 0.15662 0.398 0.15522 0.0
C351 C 0.17812 0.42353 0.16786 0.0
C352 C 0.177 0.44853 0.16428 0.0
C353 C 0.15367 0.44723 0.14954 0.0
C354 C 0.15728 0.37106 0.15836 0.0
C355 C 0.20015 0.47648 0.17647 0.0
C356 C 0.19559 0.42296 0.30549 0.0
C357 C 0.21944 0.42692 0.32123 0.0
C358 C 0.24393 0.42961 0.30804 0.0
C359 C 0.24485 0.42842 0.27829 0.0
C360 C 0.26917 0.43109 0.26435 0.0
C361 C 0.27032 0.4309 0.235 0.0
C362 C 0.24742 0.42851 0.2184 0.0
C363 C 0.24911 0.42988 0.18846 0.0
C364 C 0.22605 0.4277 0.17261 0.0
C365 C 0.20103 0.4239 0.18586 0.0
C366 C 0.19878 0.42203 0.21578 0.0
C367 C 0.17368 0.41756 0.22985 0.0
C368 C 0.1723 0.41724 0.25924 0.0
C369 C 0.19604 0.42156 0.27572 0.0
C370 C 0.22098 0.42477 0.26206 0.0
C371 C 0.22231 0.42492 0.23206 0.0
C372 C 0.38322 0.44644 0.10059 0.0
C373 C 0.35426 0.43179 0.11576 0.0
O374 O 0.10164 0.41966 0.3621 0.0
O375 O 0.10833 0.41973 0.1249 0.0
O376 O 0.35178 0.44928 0.13406 0.0
O377 O 0.34251 0.45263 0.37263 0.0
H378 H 0.09251 0.39098 0.39574 0.0
H379 H 0.06158 0.3631 0.35577 0.0
H380 H 0.04433 0.38328 0.35421 0.0
H381 H 0.03877 0.35999 0.38495 0.0
H382 H 0.14308 0.46308 0.3334 0.0
H383 H 0.11031 0.37586 0.3618 0.0
H384 H 0.21419 0.47977 0.31052 0.0
H385 H 0.18937 0.49224 0.31026 0.0
H386 H 0.18945 0.47181 0.28182 0.0
H387 H 0.13129 0.35078 0.34723 0.0
H388 H 0.17073 0.37389 0.34877 0.0
H389 H 0.15346 0.3645 0.31508 0.0
H390 H 0.35137 0.42122 0.36409 0.0
H391 H 0.3941 0.44625 0.38801 0.0
H392 H 0.35945 0.42368 0.43922 0.0
H393 H 0.38735 0.47058 0.39766 0.0
H394 H 0.29748 0.39995 0.36029 0.0
H395 H 0.33283 0.49054 0.35187 0.0
H396 H 0.22594 0.37674 0.33897 0.0
H397 H 0.25186 0.36566 0.34213 0.0
H398 H 0.24596 0.37815 0.30829 0.0
H399 H 0.30894 0.50974 0.32652 0.0
H400 H 0.26936 0.48662 0.32822 0.0
H401 H 0.28894 0.48897 0.29678 0.0
H402 H 0.34665 0.41 0.12534 0.0
H403 H 0.30058 0.39822 0.14011 0.0
H404 H 0.34632 0.48801 0.15554 0.0
H405 H 0.24124 0.37545 0.18745 0.0
H406 H 0.25257 0.36511 0.15688 0.0
H407 H 0.23024 0.38024 0.15286 0.0
H408 H 0.3218 0.50901 0.17358 0.0
H409 H 0.30161 0.48714 0.20461 0.0
H410 H 0.28209 0.48834 0.17427 0.0
H411 H 0.10126 0.44136 0.15498 0.0
H412 H 0.0472 0.4071 0.1568 0.0
H413 H 0.06673 0.38951 0.16438 0.0
H414 H 0.0503 0.38625 0.1303 0.0
H415 H 0.11699 0.37797 0.13068 0.0
H416 H 0.15252 0.46619 0.14699 0.0
H417 H 0.15745 0.36527 0.18114 0.0
H418 H 0.17776 0.37501 0.14838 0.0
H419 H 0.13815 0.35257 0.14842 0.0
H420 H 0.19857 0.4948 0.16835 0.0
H421 H 0.22246 0.48128 0.17139 0.0
H422 H 0.19751 0.47459 0.19987 0.0
H423 H 0.21915 0.42839 0.34401 0.0
H424 H 0.28768 0.4335 0.27596 0.0
H425 H 0.28963 0.43307 0.22549 0.0
H426 H 0.22778 0.42942 0.14967 0.0
H427 H 0.15487 0.41447 0.21828 0.0
H428 H 0.15251 0.41392 0.26886 0.0
H429 H 0.37279 0.44893 0.0582 0.0
H430 H 0.3932 0.43394 0.10803 0.0
H431 H 0.39877 0.46599 0.11259 0.0
C432 C 0.872 0.29825 0.92129 0.0
C433 C 0.89867 0.31597 0.90116 0.0
C434 C 0.87375 0.29683 0.8568 0.0
C435 C 0.87905 0.27478 0.85416 0.0
C436 C 0.86134 0.25166 0.83708 0.0
C437 C 0.83759 0.25034 0.82264 0.0
C438 C 0.83264 0.2729 0.82479 0.0
C439 C 0.85123 0.29616 0.84139 0.0
C440 C 0.86776 0.2284 0.8348 0.0
C441 C 0.8072 0.27209 0.81028 0.0
C442 C 0.70985 0.07537 0.92437 0.0
C443 C 0.69099 0.08541 0.91016 0.0
C444 C 0.71032 0.10412 0.86311 0.0
C445 C 0.70683 0.12688 0.85564 0.0
C446 C 0.72742 0.14999 0.83773 0.0
C447 C 0.75216 0.15036 0.82739 0.0
C448 C 0.75559 0.1272 0.83481 0.0
C449 C 0.73433 0.1041 0.85236 0.0
C450 C 0.72286 0.17413 0.83003 0.0
C451 C 0.78189 0.12707 0.82452 0.0
C452 C 0.70479 0.10469 0.64486 0.0
C453 C 0.6991 0.12453 0.65552 0.0
C454 C 0.72079 0.14815 0.66997 0.0
C455 C 0.74869 0.15192 0.67379 0.0
C456 C 0.75471 0.1324 0.66233 0.0
C457 C 0.7327 0.10916 0.64771 0.0
C458 C 0.71393 0.16906 0.68116 0.0
C459 C 0.78429 0.13596 0.66579 0.0
C460 C 0.92191 0.37589 0.60697 0.0
C461 C 0.90597 0.35168 0.6285 0.0
C462 C 0.86952 0.30145 0.63378 0.0
C463 C 0.84438 0.29764 0.64666 0.0
C464 C 0.82597 0.27303 0.66407 0.0
C465 C 0.83328 0.25212 0.66889 0.0
C466 C 0.85875 0.25601 0.65581 0.0
C467 C 0.87647 0.28062 0.63809 0.0
C468 C 0.79862 0.26923 0.67715 0.0
C469 C 0.86726 0.23427 0.6607 0.0
C470 C 0.8169 0.22459 0.8068 0.0
C471 C 0.79583 0.19987 0.8225 0.0
C472 C 0.77461 0.17523 0.80923 0.0
C473 C 0.7742 0.17508 0.77934 0.0
C474 C 0.75288 0.15083 0.76526 0.0
C475 C 0.75227 0.15108 0.73584 0.0
C476 C 0.77274 0.17572 0.71934 0.0
C477 C 0.77167 0.17654 0.68943 0.0
C478 C 0.79208 0.20151 0.67371 0.0
C479 C 0.81377 0.22586 0.687 0.0
C480 C 0.81552 0.22535 0.71686 0.0
C481 C 0.83738 0.24932 0.7309 0.0
C482 C 0.83824 0.24895 0.76034 0.0
C483 C 0.8171 0.22471 0.77687 0.0
C484 C 0.79544 0.19996 0.76312 0.0
C485 C 0.79468 0.20028 0.73309 0.0
C486 C 0.64791 0.0344 0.6497 0.0
C487 C 0.65458 0.06407 0.63956 0.0
O488 O 0.88949 0.3187 0.87434 0.0
O489 O 0.88723 0.3253 0.61718 0.0
O490 O 0.68398 0.08131 0.63142 0.0
O491 O 0.69095 0.08242 0.88125 0.0
H492 H 0.9107 0.30485 0.90015 0.0
H493 H 0.85781 0.27605 0.91408 0.0
H494 H 0.85871 0.30812 0.92188 0.0
H495 H 0.87924 0.29689 0.94305 0.0
H496 H 0.89705 0.27553 0.86522 0.0
H497 H 0.84748 0.31341 0.84337 0.0
H498 H 0.85037 0.2085 0.84641 0.0
H499 H 0.88935 0.23457 0.84382 0.0
H500 H 0.86754 0.22338 0.81231 0.0
H501 H 0.80424 0.2894 0.81692 0.0
H502 H 0.7865 0.25101 0.81496 0.0
H503 H 0.81104 0.27467 0.78701 0.0
H504 H 0.7016 0.10854 0.91471 0.0
H505 H 0.70971 0.07694 0.9477 0.0
H506 H 0.73296 0.08933 0.91655 0.0
H507 H 0.7018 0.05293 0.91924 0.0
H508 H 0.68804 0.12657 0.86393 0.0
H509 H 0.73672 0.08629 0.85834 0.0
H510 H 0.72415 0.17803 0.80667 0.0
H511 H 0.74061 0.1942 0.83919 0.0
H512 H 0.70134 0.16952 0.83793 0.0
H513 H 0.78216 0.10826 0.83346 0.0
H514 H 0.80245 0.14705 0.83038 0.0
H515 H 0.78177 0.12669 0.80107 0.0
H516 H 0.64962 0.07283 0.65786 0.0
H517 H 0.67787 0.12179 0.65228 0.0
H518 H 0.73697 0.09394 0.63899 0.0
H519 H 0.71489 0.16853 0.70462 0.0
H520 H 0.69183 0.16408 0.67496 0.0
H521 H 0.73067 0.19126 0.67317 0.0
H522 H 0.78501 0.1181 0.65688 0.0
H523 H 0.78971 0.137 0.68858 0.0
H524 H 0.80152 0.15651 0.65498 0.0
H525 H 0.89605 0.35594 0.6467 0.0
H526 H 0.96596 0.38853 0.61146 0.0
H527 H 0.91403 0.39064 0.61083 0.0
H528 H 0.90976 0.36809 0.5866 0.0
H529 H 0.83917 0.3139 0.64288 0.0
H530 H 0.89605 0.28393 0.62791 0.0
H531 H 0.79992 0.26837 0.70058 0.0
H532 H 0.77902 0.24854 0.67112 0.0
H533 H 0.79549 0.28695 0.67046 0.0
H534 H 0.88854 0.24116 0.65014 0.0
H535 H 0.84992 0.21338 0.65253 0.0
H536 H 0.86894 0.23071 0.68377 0.0
H537 H 0.79563 0.19997 0.84544 0.0
H538 H 0.73633 0.13138 0.77684 0.0
H539 H 0.73535 0.13179 0.72618 0.0
H540 H 0.79076 0.20216 0.65081 0.0
H541 H 0.854 0.26869 0.71925 0.0
H542 H 0.85551 0.26803 0.77001 0.0
H543 H 0.65282 0.02434 0.63266 0.0
H544 H 0.62442 0.02013 0.65631 0.0
H545 H 0.66165 0.03648 0.66818 0.0
C546 C 0.65759 0.68751 0.4153 0.0
C547 C 0.62805 0.68474 0.41954 0.0
C548 C 0.6147 0.70701 0.38162 0.0
C549 C 0.58898 0.69986 0.3676 0.0
C550 C 0.58589 0.7211 0.35393 0.0
C551 C 0.60991 0.75004 0.35298 0.0
C552 C 0.63612 0.75742 0.36715 0.0
C553 C 0.63808 0.73578 0.38174 0.0
C554 C 0.55705 0.71247 0.34031 0.0
C555 C 0.66224 0.78799 0.36628 0.0
C556 C 0.58063 0.92071 0.42495 0.0
C557 C 0.59432 0.90845 0.40839 0.0
C558 C 0.58282 0.8631 0.38993 0.0
C559 C 0.61026 0.87438 0.37633 0.0
C560 C 0.61537 0.85736 0.35925 0.0
C561 C 0.59232 0.82874 0.35492 0.0
C562 C 0.56457 0.81743 0.36829 0.0
C563 C 0.56034 0.83469 0.38591 0.0
C564 C 0.64555 0.86989 0.34614 0.0
C565 C 0.5394 0.78707 0.36405 0.0
C566 C 0.58791 0.87952 0.17126 0.0
C567 C 0.61586 0.88714 0.18074 0.0
C568 C 0.61989 0.86686 0.19544 0.0
C569 C 0.59549 0.83854 0.20095 0.0
C570 C 0.56745 0.83071 0.19108 0.0
C571 C 0.56411 0.85132 0.17621 0.0
C572 C 0.65019 0.87572 0.20529 0.0
C573 C 0.541 0.80069 0.1966 0.0
C574 C 0.64587 0.67956 0.16474 0.0
C575 C 0.61663 0.67729 0.16013 0.0
C576 C 0.61841 0.72152 0.16636 0.0
C577 C 0.64138 0.75017 0.16786 0.0
C578 C 0.63866 0.76895 0.1846 0.0
C579 C 0.61186 0.75891 0.19938 0.0
C580 C 0.58811 0.73011 0.197 0.0
C581 C 0.59177 0.71163 0.18072 0.0
C582 C 0.66449 0.79942 0.18663 0.0
C583 C 0.5588 0.71888 0.21147 0.0
C584 C 0.60762 0.77231 0.33662 0.0
C585 C 0.60228 0.7903 0.35155 0.0
C586 C 0.59761 0.81027 0.33742 0.0
C587 C 0.59796 0.81221 0.30745 0.0
C588 C 0.59247 0.8314 0.29248 0.0
C589 C 0.59303 0.83322 0.263 0.0
C590 C 0.59875 0.81567 0.24736 0.0
C591 C 0.59926 0.81727 0.21743 0.0
C592 C 0.60367 0.79863 0.20253 0.0
C593 C 0.60839 0.77871 0.21669 0.0
C594 C 0.60924 0.77763 0.24663 0.0
C595 C 0.61534 0.75887 0.26158 0.0
C596 C 0.61528 0.75741 0.29103 0.0
C597 C 0.60896 0.77453 0.30669 0.0
C598 C 0.60373 0.79429 0.29207 0.0
C599 C 0.60395 0.79589 0.262 0.0
C600 C 0.60456 0.9424 0.18151 0.0
C601 C 0.60153 0.92802 0.15366 0.0
O602 O 0.61681 0.6854 0.39332 0.0
O603 O 0.62226 0.70393 0.15055 0.0
O604 O 0.58271 0.89846 0.15747 0.0
O605 O 0.57723 0.8788 0.40705 0.0
H606 H 0.63148 0.70282 0.43209 0.0
H607 H 0.67293 0.70755 0.40258 0.0
H608 H 0.65457 0.66897 0.40398 0.0
H609 H 0.66788 0.68844 0.43599 0.0
H610 H 0.57113 0.6775 0.3677 0.0
H611 H 0.65815 0.74119 0.39235 0.0
H612 H 0.55037 0.72763 0.34529 0.0
H613 H 0.53918 0.69036 0.34742 0.0
H614 H 0.55958 0.7132 0.31697 0.0
H615 H 0.68185 0.78976 0.3762 0.0
H616 H 0.65658 0.80156 0.37764 0.0
H617 H 0.66793 0.79674 0.34401 0.0
H618 H 0.61766 0.91675 0.41367 0.0
H619 H 0.59547 0.93061 0.44343 0.0
H620 H 0.56225 0.90227 0.43809 0.0
H621 H 0.57361 0.94502 0.39439 0.0
H622 H 0.62798 0.89631 0.37924 0.0
H623 H 0.53925 0.82614 0.39643 0.0
H624 H 0.65337 0.85521 0.35065 0.0
H625 H 0.66191 0.8913 0.35409 0.0
H626 H 0.64446 0.87226 0.32281 0.0
H627 H 0.51831 0.78276 0.37287 0.0
H628 H 0.54424 0.77175 0.37467 0.0
H629 H 0.53679 0.78286 0.34115 0.0
H630 H 0.62349 0.93337 0.14619 0.0
H631 H 0.63462 0.90878 0.1769 0.0
H632 H 0.54268 0.84561 0.1687 0.0
H633 H 0.65025 0.87438 0.22878 0.0
H634 H 0.66725 0.89798 0.19771 0.0
H635 H 0.65615 0.86078 0.19765 0.0
H636 H 0.52051 0.79826 0.18828 0.0
H637 H 0.53804 0.79513 0.21972 0.0
H638 H 0.54459 0.78506 0.18653 0.0
H639 H 0.60464 0.67054 0.18095 0.0
H640 H 0.64201 0.65855 0.17279 0.0
H641 H 0.6588 0.69573 0.18061 0.0
H642 H 0.65895 0.68631 0.14464 0.0
H643 H 0.66175 0.7576 0.15639 0.0
H644 H 0.57374 0.68958 0.17881 0.0
H645 H 0.66871 0.80503 0.20915 0.0
H646 H 0.65935 0.81439 0.1757 0.0
H647 H 0.68481 0.80278 0.17683 0.0
H648 H 0.54154 0.69737 0.20442 0.0
H649 H 0.55148 0.73401 0.20724 0.0
H650 H 0.56102 0.71713 0.23471 0.0
H651 H 0.60138 0.78849 0.37452 0.0
H652 H 0.58769 0.84525 0.30338 0.0
H653 H 0.5887 0.84844 0.25263 0.0
H654 H 0.6034 0.79964 0.17956 0.0
H655 H 0.62016 0.74505 0.25067 0.0
H656 H 0.6201 0.74254 0.30138 0.0
H657 H 0.61944 0.9661 0.17844 0.0
H658 H 0.61401 0.93491 0.19803 0.0
H659 H 0.58273 0.93716 0.18923 0.0
C660 C 0.72345 0.59057 0.95978 0.0
C661 C 0.70363 0.5899 0.93597 0.0
C662 C 0.72609 0.58082 0.89598 0.0
C663 C 0.75095 0.60886 0.89183 0.0
C664 C 0.77397 0.61464 0.87335 0.0
C665 C 0.77228 0.59193 0.85901 0.0
C666 C 0.74719 0.56372 0.86306 0.0
C667 C 0.72425 0.5587 0.88114 0.0
C668 C 0.80022 0.64501 0.86929 0.0
C669 C 0.74474 0.53875 0.84866 0.0
C670 C 0.98259 0.6348 0.8825 0.0
C671 C 0.95945 0.61332 0.90444 0.0
C672 C 0.91267 0.59621 0.87966 0.0
C673 C 0.88934 0.57248 0.86704 0.0
C674 C 0.86672 0.57393 0.85401 0.0
C675 C 0.86779 0.60012 0.85309 0.0
C676 C 0.89105 0.62416 0.86628 0.0
C677 C 0.91316 0.62192 0.87967 0.0
C678 C 0.84184 0.54749 0.841 0.0
C679 C 0.8927 0.6523 0.86587 0.0
C680 C 0.90543 0.60426 0.667 0.0
C681 C 0.88553 0.57934 0.68326 0.0
C682 C 0.86344 0.5783 0.69973 0.0
C683 C 0.86172 0.60298 0.70033 0.0
C684 C 0.88144 0.62792 0.68339 0.0
C685 C 0.9028 0.62805 0.66656 0.0
C686 C 0.84195 0.55081 0.7164 0.0
C687 C 0.88012 0.65451 0.68323 0.0
C688 C 0.65921 0.57261 0.62386 0.0
C689 C 0.68436 0.58748 0.64328 0.0
C690 C 0.71419 0.57648 0.67398 0.0
C691 C 0.71618 0.55455 0.68739 0.0
C692 C 0.74078 0.56071 0.7033 0.0
C693 C 0.76397 0.58964 0.70584 0.0
C694 C 0.76198 0.61204 0.69266 0.0
C695 C 0.73707 0.60527 0.67688 0.0
C696 C 0.74218 0.53627 0.71706 0.0
C697 C 0.78635 0.6431 0.69502 0.0
C698 C 0.79717 0.59739 0.84064 0.0
C699 C 0.82128 0.59893 0.85379 0.0
C700 C 0.84471 0.60221 0.8379 0.0
C701 C 0.84444 0.60448 0.80799 0.0
C702 C 0.86798 0.60855 0.79136 0.0
C703 C 0.86663 0.60871 0.76196 0.0
C704 C 0.84157 0.60452 0.74809 0.0
C705 C 0.83905 0.60252 0.71837 0.0
C706 C 0.81383 0.59841 0.70533 0.0
C707 C 0.79089 0.59625 0.72111 0.0
C708 C 0.79304 0.59833 0.75082 0.0
C709 C 0.77048 0.59646 0.76733 0.0
C710 C 0.77214 0.59698 0.79672 0.0
C711 C 0.79622 0.59895 0.81072 0.0
C712 C 0.81978 0.60211 0.79438 0.0
C713 C 0.81826 0.60194 0.76439 0.0
C714 C 0.97587 0.62755 0.66751 0.0
C715 C 0.94718 0.59942 0.66154 0.0
O716 O 0.70355 0.57398 0.91412 0.0
O717 O 0.69009 0.56889 0.65825 0.0
O718 O 0.92699 0.60563 0.65116 0.0
O719 O 0.93409 0.59314 0.89117 0.0
H720 H 0.71169 0.61219 0.92781 0.0
H721 H 0.74648 0.60102 0.95193 0.0
H722 H 0.71576 0.56838 0.96798 0.0
H723 H 0.72335 0.60304 0.97746 0.0
H724 H 0.75262 0.62633 0.90288 0.0
H725 H 0.70495 0.53719 0.88437 0.0
H726 H 0.81982 0.64629 0.8786 0.0
H727 H 0.79683 0.66074 0.87946 0.0
H728 H 0.80499 0.6512 0.84636 0.0
H729 H 0.72569 0.51777 0.85687 0.0
H730 H 0.76509 0.53861 0.85161 0.0
H731 H 0.74208 0.54101 0.82558 0.0
H732 H 0.9542 0.62504 0.91928 0.0
H733 H 0.0031 0.65048 0.89321 0.0
H734 H 0.9746 0.647 0.87059 0.0
H735 H 0.98772 0.62347 0.86709 0.0
H736 H 0.88899 0.55267 0.86734 0.0
H737 H 0.93079 0.64039 0.88974 0.0
H738 H 0.84375 0.55062 0.81758 0.0
H739 H 0.82034 0.5439 0.8475 0.0
H740 H 0.84199 0.52791 0.84712 0.0
H741 H 0.91312 0.66953 0.87552 0.0
H742 H 0.8735 0.64934 0.87769 0.0
H743 H 0.8917 0.65936 0.84374 0.0
H744 H 0.93904 0.58632 0.68189 0.0
H745 H 0.88704 0.5606 0.68274 0.0
H746 H 0.91807 0.64701 0.65353 0.0
H747 H 0.84674 0.55369 0.73928 0.0
H748 H 0.84326 0.53243 0.7101 0.0
H749 H 0.81911 0.54541 0.71346 0.0
H750 H 0.89891 0.67305 0.67127 0.0
H751 H 0.87999 0.66056 0.70525 0.0
H752 H 0.85941 0.64999 0.67334 0.0
H753 H 0.68397 0.60318 0.65693 0.0
H754 H 0.642 0.57601 0.63251 0.0
H755 H 0.64685 0.54903 0.63047 0.0
H756 H 0.67861 0.58859 0.5835 0.0
H757 H 0.6984 0.53245 0.68509 0.0
H758 H 0.73577 0.62251 0.66671 0.0
H759 H 0.7443 0.53851 0.7403 0.0
H760 H 0.76192 0.53709 0.70909 0.0
H761 H 0.72239 0.51494 0.71289 0.0
H762 H 0.7808 0.65811 0.68489 0.0
H763 H 0.80669 0.64698 0.68477 0.0
H764 H 0.79113 0.64794 0.71766 0.0
H765 H 0.82137 0.59665 0.8767 0.0
H766 H 0.88761 0.61134 0.8009 0.0
H767 H 0.88529 0.61164 0.75027 0.0
H768 H 0.81173 0.59623 0.68261 0.0
H769 H 0.75116 0.59432 0.7577 0.0
H770 H 0.75404 0.59527 0.80837 0.0
H771 H 0.98503 0.6415 0.6478 0.0
H772 H 0.99233 0.62315 0.67622 0.0
H773 H 0.97173 0.63926 0.68332 0.0
C774 C 0.12095 0.70009 0.4413 0.0
C775 C 0.10544 0.6799 0.41708 0.0
C776 C 0.14354 0.70742 0.37978 0.0
C777 C 0.1379 0.72921 0.37414 0.0
C778 C 0.15711 0.75359 0.35668 0.0
C779 C 0.1825 0.75629 0.34478 0.0
C780 C 0.18814 0.73431 0.35039 0.0
C781 C 0.16834 0.71 0.3675 0.0
C782 C 0.15032 0.7765 0.35094 0.0
C783 C 0.21524 0.73659 0.33854 0.0
C784 C 0.31184 0.92835 0.43241 0.0
C785 C 0.33149 0.9215 0.41589 0.0
C786 C 0.30972 0.90315 0.37102 0.0
C787 C 0.31264 0.87972 0.36795 0.0
C788 C 0.29228 0.85636 0.35236 0.0
C789 C 0.26831 0.85636 0.33993 0.0
C790 C 0.26554 0.8802 0.34281 0.0
C791 C 0.28665 0.90358 0.35798 0.0
C792 C 0.29625 0.83158 0.34939 0.0
C793 C 0.24006 0.88078 0.33026 0.0
C794 C 0.31893 0.90039 0.15476 0.0
C795 C 0.32405 0.88016 0.16777 0.0
C796 C 0.30182 0.85635 0.18386 0.0
C797 C 0.27396 0.85278 0.18694 0.0
C798 C 0.2685 0.87268 0.17308 0.0
C799 C 0.29103 0.8961 0.15687 0.0
C800 C 0.30811 0.83507 0.19768 0.0
C801 C 0.23898 0.86938 0.17572 0.0
C802 C 0.09823 0.64856 0.11307 0.0
C803 C 0.1093 0.67397 0.1306 0.0
C804 C 0.15079 0.70419 0.16085 0.0
C805 C 0.17528 0.70722 0.1745 0.0
C806 C 0.19392 0.73148 0.18987 0.0
C807 C 0.18772 0.75318 0.19178 0.0
C808 C 0.16282 0.7502 0.17822 0.0
C809 C 0.14461 0.72577 0.16284 0.0
C810 C 0.22038 0.73402 0.20392 0.0
C811 C 0.15557 0.77292 0.17992 0.0
C812 C 0.20334 0.7821 0.32661 0.0
C813 C 0.22432 0.8069 0.3399 0.0
C814 C 0.24603 0.83125 0.32421 0.0
C815 C 0.24698 0.83096 0.29435 0.0
C816 C 0.26887 0.85479 0.27792 0.0
C817 C 0.26988 0.85416 0.2486 0.0
C818 C 0.24926 0.82951 0.23457 0.0
C819 C 0.25063 0.82836 0.20484 0.0
C820 C 0.23002 0.80341 0.19161 0.0
C821 C 0.20783 0.77938 0.20724 0.0
C822 C 0.20588 0.78022 0.23695 0.0
C823 C 0.18364 0.75658 0.25329 0.0
C824 C 0.1825 0.75729 0.28261 0.0
C825 C 0.2036 0.78163 0.29673 0.0
C826 C 0.2257 0.80604 0.28059 0.0
C827 C 0.22686 0.80531 0.25067 0.0
C828 C 0.37361 0.96913 0.15857 0.0
C829 C 0.36918 0.94153 0.14754 0.0
O830 O 0.12597 0.68369 0.39696 0.0
O831 O 0.13395 0.68035 0.14594 0.0
O832 O 0.3402 0.9239 0.13957 0.0
O833 O 0.3286 0.92513 0.38712 0.0
H834 H 0.08953 0.68442 0.40707 0.0
H835 H 0.13292 0.72289 0.43332 0.0
H836 H 0.13697 0.69579 0.45141 0.0
H837 H 0.1047 0.69709 0.4576 0.0
H838 H 0.11858 0.72735 0.38319 0.0
H839 H 0.17246 0.69305 0.37189 0.0
H840 H 0.16756 0.79674 0.36027 0.0
H841 H 0.12861 0.77026 0.35997 0.0
H842 H 0.15058 0.78099 0.32776 0.0
H843 H 0.21801 0.7192 0.34735 0.0
H844 H 0.23514 0.75766 0.34317 0.0
H845 H 0.21371 0.73531 0.31519 0.0
H846 H 0.32321 0.89854 0.42181 0.0
H847 H 0.31559 0.92785 0.45551 0.0
H848 H 0.28839 0.91198 0.42856 0.0
H849 H 0.31597 0.94969 0.42534 0.0
H850 H 0.33085 0.87978 0.37781 0.0
H851 H 0.2847 0.92187 0.36052 0.0
H852 H 0.29504 0.82655 0.32677 0.0
H853 H 0.2782 0.81218 0.36106 0.0
H854 H 0.31756 0.83616 0.35782 0.0
H855 H 0.23979 0.8998 0.33634 0.0
H856 H 0.219 0.86099 0.33731 0.0
H857 H 0.24137 0.88118 0.30682 0.0
H858 H 0.37457 0.93112 0.16515 0.0
H859 H 0.34525 0.88271 0.1651 0.0
H860 H 0.2872 0.91161 0.1463 0.0
H861 H 0.30696 0.83555 0.22105 0.0
H862 H 0.33016 0.83974 0.19158 0.0
H863 H 0.2912 0.81296 0.19176 0.0
H864 H 0.23862 0.88733 0.16455 0.0
H865 H 0.23322 0.86838 0.19841 0.0
H866 H 0.22181 0.84887 0.16677 0.0
H867 H 0.09218 0.67406 0.14354 0.0
H868 H 0.07583 0.63211 0.1223 0.0
H869 H 0.10876 0.63673 0.12121 0.0
H870 H 0.10452 0.66592 0.07149 0.0
H871 H 0.17987 0.69051 0.17287 0.0
H872 H 0.12572 0.72375 0.15238 0.0
H873 H 0.21841 0.7346 0.22718 0.0
H874 H 0.24064 0.75445 0.19652 0.0
H875 H 0.22282 0.71585 0.19946 0.0
H876 H 0.1344 0.7666 0.1698 0.0
H877 H 0.17333 0.79329 0.16928 0.0
H878 H 0.15439 0.77721 0.20241 0.0
H879 H 0.2241 0.80704 0.36283 0.0
H880 H 0.28556 0.87422 0.28756 0.0
H881 H 0.28721 0.87317 0.23709 0.0
H882 H 0.2315 0.80255 0.16885 0.0
H883 H 0.16696 0.73719 0.2436 0.0
H884 H 0.16496 0.73841 0.29411 0.0
H885 H 0.39672 0.98363 0.16508 0.0
H886 H 0.35895 0.96384 0.17729 0.0
H887 H 0.36832 0.98057 0.14203 0.0
C888 C 0.38908 0.09818 0.58278 0.0
C889 C 0.41573 0.10743 0.6015 0.0
C890 C 0.40957 0.12223 0.64661 0.0
C891 C 0.4372 0.14669 0.65145 0.0
C892 C 0.4399 0.16859 0.66764 0.0
C893 C 0.4143 0.16605 0.67887 0.0
C894 C 0.38638 0.1411 0.67428 0.0
C895 C 0.38444 0.11921 0.65859 0.0
C896 C 0.47007 0.19463 0.67237 0.0
C897 C 0.35855 0.13784 0.68533 0.0
C898 C 0.44819 0.37445 0.60181 0.0
C899 C 0.43175 0.34572 0.61711 0.0
C900 C 0.44261 0.31515 0.64689 0.0
C901 C 0.41393 0.29058 0.6477 0.0
C902 C 0.40782 0.26476 0.66142 0.0
C903 C 0.43092 0.26344 0.67417 0.0
C904 C 0.46002 0.28779 0.67214 0.0
C905 C 0.46536 0.31344 0.65889 0.0
C906 C 0.37659 0.23917 0.66311 0.0
C907 C 0.48539 0.287 0.68469 0.0
C908 C 0.434 0.31012 0.85323 0.0
C909 C 0.40558 0.2859 0.8497 0.0
C910 C 0.4014 0.26185 0.83637 0.0
C911 C 0.42608 0.26175 0.8268 0.0
C912 C 0.45471 0.28579 0.83085 0.0
C913 C 0.45824 0.30972 0.84385 0.0
C914 C 0.37055 0.23669 0.83214 0.0
C915 C 0.48156 0.28636 0.82106 0.0
C916 C 0.36333 0.04227 0.87345 0.0
C917 C 0.39335 0.07047 0.87315 0.0
C918 C 0.39628 0.1156 0.86689 0.0
C919 C 0.37436 0.12141 0.86253 0.0
C920 C 0.37967 0.14508 0.84516 0.0
C921 C 0.40801 0.16397 0.83288 0.0
C922 C 0.43068 0.1588 0.83833 0.0
C923 C 0.42439 0.13431 0.85497 0.0
C924 C 0.35489 0.14975 0.83984 0.0
C925 C 0.46145 0.17905 0.82658 0.0
C926 C 0.41677 0.18996 0.69451 0.0
C927 C 0.42119 0.21409 0.67867 0.0
C928 C 0.42442 0.23768 0.69191 0.0
C929 C 0.42287 0.2372 0.72177 0.0
C930 C 0.4254 0.26033 0.7357 0.0
C931 C 0.42498 0.26025 0.76506 0.0
C932 C 0.42182 0.23695 0.7817 0.0
C933 C 0.42193 0.23697 0.81158 0.0
C934 C 0.41794 0.21314 0.82755 0.0
C935 C 0.41379 0.18909 0.81447 0.0
C936 C 0.41421 0.18892 0.78454 0.0
C937 C 0.41051 0.1653 0.7706 0.0
C938 C 0.41162 0.16567 0.74116 0.0
C939 C 0.41565 0.18933 0.72447 0.0
C940 C 0.41884 0.21312 0.7381 0.0
C941 C 0.41831 0.213 0.76813 0.0
C942 C 0.40382 0.34676 0.85333 0.0
C943 C 0.41871 0.33905 0.87672 0.0
O944 O 0.40676 0.10178 0.62972 0.0
O945 O 0.38985 0.09177 0.8827 0.0
O946 O 0.43915 0.33434 0.8651 0.0
O947 O 0.44927 0.34091 0.63509 0.0
H948 H 0.43104 0.131 0.59695 0.0
H949 H 0.37946 0.11107 0.58713 0.0
H950 H 0.37186 0.07512 0.58708 0.0
H951 H 0.39578 0.10185 0.56004 0.0
H952 H 0.45661 0.14864 0.64239 0.0
H953 H 0.36321 0.10013 0.6547 0.0
H954 H 0.47255 0.21356 0.66028 0.0
H955 H 0.48784 0.19167 0.66542 0.0
H956 H 0.47284 0.19944 0.69512 0.0
H957 H 0.3385 0.11851 0.67758 0.0
H958 H 0.35802 0.15714 0.67884 0.0
H959 H 0.35802 0.13605 0.70882 0.0
H960 H 0.41039 0.33972 0.62702 0.0
H961 H 0.43754 0.38581 0.60936 0.0
H962 H 0.44772 0.3648 0.55938 0.0
H963 H 0.46915 0.38804 0.61361 0.0
H964 H 0.39615 0.29162 0.63831 0.0
H965 H 0.48744 0.33243 0.6579 0.0
H966 H 0.37531 0.2208 0.65307 0.0
H967 H 0.36101 0.24376 0.65247 0.0
H968 H 0.36955 0.23248 0.68563 0.0
H969 H 0.50697 0.30577 0.67707 0.0
H970 H 0.48407 0.26699 0.67938 0.0
H971 H 0.48432 0.28714 0.7081 0.0
H972 H 0.40157 0.31931 0.88885 0.0
H973 H 0.38647 0.28561 0.8569 0.0
H974 H 0.48008 0.3284 0.84668 0.0
H975 H 0.36727 0.23171 0.80943 0.0
H976 H 0.3536 0.24078 0.83918 0.0
H977 H 0.36723 0.21744 0.84426 0.0
H978 H 0.50229 0.30561 0.82785 0.0
H979 H 0.48194 0.28631 0.79759 0.0
H980 H 0.48065 0.26678 0.82949 0.0
H981 H 0.40178 0.07571 0.85079 0.0
H982 H 0.36538 0.02483 0.86545 0.0
H983 H 0.34814 0.04488 0.85954 0.0
H984 H 0.35369 0.03594 0.89526 0.0
H985 H 0.3528 0.1068 0.8721 0.0
H986 H 0.44139 0.12985 0.85897 0.0
H987 H 0.35346 0.15395 0.81687 0.0
H988 H 0.3593 0.16887 0.85093 0.0
H989 H 0.33334 0.13101 0.84756 0.0
H990 H 0.47733 0.17413 0.83587 0.0
H991 H 0.46899 0.2016 0.83072 0.0
H992 H 0.4616 0.17744 0.8033 0.0
H993 H 0.42252 0.21469 0.65574 0.0
H994 H 0.42787 0.2789 0.72408 0.0
H995 H 0.42723 0.27876 0.77452 0.0
H996 H 0.41777 0.2132 0.85049 0.0
H997 H 0.40703 0.14636 0.78229 0.0
H998 H 0.40916 0.14709 0.73164 0.0
H999 H 0.38828 0.35157 0.86283 0.0
H1000 H 0.39119 0.3286 0.83936 0.0
H1001 H 0.42038 0.36575 0.84001 0.0
C1002 C 0.07746 0.48413 0.10242 0.0
C1003 C 0.06726 0.4733 0.07573 0.0
H1004 H 0.09302 0.47835 0.14246 0.0
C1005 C 0.0658 0.44824 0.06843 0.0
H1006 H 0.07836 0.50323 0.10851 0.0
C1007 C 0.07431 0.43412 0.08763 0.0
C1008 C 0.08422 0.44471 0.11458 0.0
H1009 H 0.0575 0.4393 0.04805 0.0
H1010 H 0.07245 0.41453 0.08172 0.0
C1011 C 0.08583 0.46993 0.12172 0.0
C1012 C 0.58938 0.05531 0.59858 0.0
C1013 C 0.59394 0.04794 0.57205 0.0
H1014 H 0.60516 0.06635 0.64066 0.0
C1015 C 0.61973 0.04848 0.56668 0.0
H1016 H 0.56936 0.0546 0.60314 0.0
C1017 C 0.6402 0.05514 0.58806 0.0
C1018 C 0.63512 0.06138 0.6151 0.0
H1019 H 0.62332 0.04239 0.54641 0.0
H1020 H 0.65935 0.05421 0.58387 0.0
C1021 C 0.60978 0.06193 0.61996 0.0
C1022 C 0.56471 0.60428 0.12989 0.0
C1023 C 0.56971 0.61055 0.10057 0.0
H1024 H 0.57535 0.62048 0.1714 0.0
C1025 C 0.58868 0.63926 0.09063 0.0
H1026 H 0.55003 0.58239 0.13817 0.0
C1027 C 0.60319 0.6611 0.10971 0.0
C1028 C 0.59857 0.6547 0.13908 0.0
H1029 H 0.59323 0.64469 0.06817 0.0
H1030 H 0.61861 0.68287 0.10153 0.0
C1031 C 0.57901 0.62609 0.1489 0.0
C1032 C 0.96954 0.55102 0.63141 0.0
C1033 C 0.96919 0.55619 0.60207 0.0
H1034 H 0.96248 0.56034 0.67292 0.0
C1035 C 0.96014 0.57457 0.59211 0.0
H1036 H 0.97625 0.53682 0.63967 0.0
C1037 C 0.95236 0.58811 0.61115 0.0
C1038 C 0.95285 0.58302 0.64054 0.0
H1039 H 0.96002 0.57922 0.56962 0.0
H1040 H 0.94647 0.60294 0.6029 0.0
C1041 C 0.96146 0.56429 0.65041 0.0
C1042 C 0.43717 0.95998 0.10458 0.0
C1043 C 0.43129 0.9677 0.07788 0.0
H1044 H 0.42199 0.94551 0.14746 0.0
C1045 C 0.40437 0.96533 0.07341 0.0
H1046 H 0.45803 0.96204 0.10841 0.0
C1047 C 0.38379 0.95592 0.09562 0.0
C1048 C 0.38979 0.94861 0.12261 0.0
H1049 H 0.39971 0.97158 0.05297 0.0
H1050 H 0.36353 0.95511 0.09195 0.0
C1051 C 0.41662 0.95057 0.12679 0.0
C1052 C 0.42881 0.38642 0.56067 0.0
C1053 C 0.46849 0.40652 0.55948 0.0
H1054 H 0.38438 0.33771 0.57616 0.0
C1055 C 0.48889 0.39009 0.56886 0.0
H1056 H 0.41741 0.39664 0.55336 0.0
C1057 C 0.47022 0.35309 0.58153 0.0
C1058 C 0.43037 0.33618 0.58983 0.0
H1059 H 0.51258 0.40248 0.56649 0.0
H1060 H 0.48231 0.34363 0.58906 0.0
C1061 C 0.40799 0.34926 0.57322 0.0
C1062 C 0.53568 0.91856 0.413 0.0
C1063 C 0.56112 0.95116 0.43041 0.0
H1064 H 0.53407 0.88409 0.3783 0.0
C1065 C 0.60003 0.97194 0.42171 0.0
H1066 H 0.51237 0.9076 0.41754 0.0
C1067 C 0.61522 0.95977 0.39656 0.0
C1068 C 0.58953 0.92254 0.38558 0.0
H1069 H 0.61447 0.99195 0.43165 0.0
H1070 H 0.63873 0.97077 0.3931 0.0
C1071 C 0.54874 0.90456 0.38741 0.0
C1072 C 0.63771 0.58197 0.97472 0.0
C1073 C 0.61625 0.55273 0.97243 0.0
H1074 H 0.68186 0.61654 0.96452 0.0
C1075 C 0.62313 0.53553 0.95782 0.0
H1076 H 0.63285 0.59553 0.98611 0.0
C1077 C 0.65118 0.54735 0.94587 0.0
C1078 C 0.67265 0.57682 0.94766 0.0
H1079 H 0.60684 0.51288 0.95591 0.0
H1080 H 0.65603 0.53337 0.93531 0.0
C1081 C 0.6656 0.59393 0.96236 0.0
C1082 C 0.04763 0.61147 0.45856 0.0
C1083 C 0.05917 0.59407 0.45728 0.0
H1084 H 0.053 0.6519 0.44626 0.0
C1085 C 0.08474 0.60381 0.44099 0.0
H1086 H 0.02798 0.60438 0.47113 0.0
C1087 C 0.09946 0.63116 0.42741 0.0
C1088 C 0.08832 0.649 0.42908 0.0
H1089 H 0.09394 0.59064 0.43972 0.0
H1090 H 0.11987 0.63847 0.41614 0.0
C1091 C 0.06195 0.63858 0.44442 0.0
C1092 C 0.44889 0.0516 0.89649 0.0
C1093 C 0.44893 0.05367 0.92599 0.0
H1094 H 0.43154 0.05559 0.85688 0.0
C1095 C 0.43206 0.06312 0.93804 0.0
H1096 H 0.46183 0.04458 0.88658 0.0
C1097 C 0.41475 0.06945 0.921 0.0
C1098 C 0.41438 0.06692 0.89153 0.0
H1099 H 0.43136 0.06455 0.96074 0.0
H1100 H 0.4011 0.07562 0.93094 0.0
C1101 C 0.43176 0.0581 0.87947 0.0
C1102 C 0.38983 0.41711 0.42781 0.0
C1103 C 0.40139 0.45019 0.44466 0.0
H1104 H 0.34894 0.37933 0.39849 0.0
C1105 C 0.37786 0.46411 0.44674 0.0
H1106 H 0.40381 0.40862 0.4282 0.0
C1107 C 0.34259 0.44637 0.43018 0.0
C1108 C 0.33588 0.41747 0.4066 0.0
H1109 H 0.38497 0.48337 0.45786 0.0
H1110 H 0.3294 0.45573 0.42937 0.0
C1111 C 0.35496 0.39778 0.4106 0.0
C1112 C 0.96189 0.37716 0.9402 0.0
C1113 C 0.95463 0.39816 0.93905 0.0
H1114 H 0.94991 0.33502 0.92954 0.0
C1115 C 0.92953 0.39243 0.92392 0.0
H1116 H 0.98121 0.38069 0.95103 0.0
C1117 C 0.9121 0.36643 0.9108 0.0
C1118 C 0.91912 0.34536 0.9126 0.0
H1119 H 0.92265 0.40756 0.92283 0.0
H1120 H 0.89265 0.36247 0.89982 0.0
C1121 C 0.94418 0.35102 0.92746 0.0
C1122 C 0.99391 0.59173 0.96354 0.0
C1123 C 0.9947 0.56946 0.95148 0.0
H1124 H 0.9822 0.62311 0.95808 0.0
C1125 C 0.98392 0.5615 0.92417 0.0
H1126 H 0.00179 0.59787 0.98476 0.0
C1127 C 0.97273 0.57574 0.909 0.0
C1128 C 0.97153 0.59787 0.92107 0.0
H1129 H 0.98389 0.54401 0.91471 0.0
H1130 H 0.96473 0.56929 0.88787 0.0
C1131 C 0.98257 0.60595 0.94839 0.0
C1132 C 0.40519 0.98034 0.4455 0.0
C1133 C 0.42095 0.96683 0.44556 0.0
H1134 H 0.36516 0.97756 0.43537 0.0
C1135 C 0.40909 0.94071 0.43241 0.0
H1136 H 0.41418 0.00068 0.45528 0.0
C1137 C 0.3807 0.92696 0.42174 0.0
C1138 C 0.36369 0.93912 0.42387 0.0
H1139 H 0.42112 0.93014 0.43196 0.0
H1140 H 0.37147 0.90608 0.41306 0.0
C1141 C 0.37695 0.96682 0.43437 0.0
C1142 C 0.43749 0.38181 0.94327 0.0
C1143 C 0.46132 0.40891 0.93373 0.0
H1144 H 0.40524 0.33874 0.93275 0.0
C1145 C 0.47164 0.41289 0.90567 0.0
H1146 H 0.42897 0.37824 0.96475 0.0
C1147 C 0.4583 0.39022 0.88746 0.0
C1148 C 0.43408 0.36323 0.89682 0.0
H1149 H 0.49016 0.4335 0.89787 0.0
H1150 H 0.46672 0.39383 0.86594 0.0
C1151 C 0.42389 0.35926 0.92496 0.0
C1152 C 0.05163 0.44432 0.4069 0.0
C1153 C 0.05555 0.44409 0.43629 0.0
H1154 H 0.05732 0.43108 0.36694 0.0
C1155 C 0.06824 0.42946 0.44802 0.0
H1156 H 0.04219 0.45568 0.39727 0.0
C1157 C 0.07657 0.41511 0.43072 0.0
C1158 C 0.07266 0.41533 0.40131 0.0
H1159 H 0.07128 0.42874 0.47064 0.0
H1160 H 0.08608 0.40382 0.44036 0.0
C1161 C 0.06029 0.43027 0.38957 0.0
C1162 C 0.61463 0.07028 0.92605 0.0
C1163 C 0.60312 0.0471 0.94611 0.0
H1164 H 0.65144 0.10045 0.89962 0.0
C1165 C 0.61907 0.03433 0.95262 0.0
H1166 H 0.60244 0.08019 0.9205 0.0
C1167 C 0.64688 0.0455 0.94033 0.0
C1168 C 0.65952 0.07012 0.92161 0.0
H1169 H 0.61034 0.01619 0.96787 0.0
H1170 H 0.65856 0.03523 0.94637 0.0
C1171 C 0.64261 0.08178 0.91411 0.0
C1172 C 0.56354 0.60773 0.43715 0.0
C1173 C 0.56993 0.60294 0.46482 0.0
H1174 H 0.57671 0.63648 0.40089 0.0
C1175 C 0.59368 0.6255 0.47857 0.0
H1176 H 0.54519 0.59051 0.42631 0.0
C1177 C 0.61168 0.65225 0.46426 0.0
C1178 C 0.60649 0.65667 0.43583 0.0
H1179 H 0.59886 0.6221 0.5 0.0
H1180 H 0.63027 0.66923 0.47505 0.0
C1181 C 0.58177 0.63415 0.42265 0.0
C1182 C 0.42952 0.04825 0.58564 0.0
C1183 C 0.45776 0.06435 0.57297 0.0
H1184 H 0.39426 0.04918 0.60506 0.0
C1185 C 0.47321 0.09453 0.57283 0.0
H1186 H 0.41699 0.02499 0.58612 0.0
C1187 C 0.46001 0.10827 0.58315 0.0
C1188 C 0.43114 0.09224 0.59418 0.0
H1189 H 0.49531 0.10763 0.56399 0.0
H1190 H 0.47213 0.13154 0.58166 0.0
C1191 C 0.4164 0.06207 0.59628 0.0
C1192 C 0.40182 0.48812 0.06796 0.0
C1193 C 0.41509 0.4657 0.05837 0.0
H1194 H 0.3571 0.48552 0.08827 0.0
C1195 C 0.39142 0.42698 0.05924 0.0
H1196 H 0.41632 0.51126 0.066 0.0
C1197 C 0.35386 0.40908 0.07165 0.0
C1198 C 0.34423 0.4328 0.08851 0.0
H1199 H 0.3998 0.4144 0.05201 0.0
H1200 H 0.34033 0.38592 0.07455 0.0
C1201 C 0.36461 0.47238 0.08054 0.0
C1202 C 0.95682 0.38037 0.57178 0.0
C1203 C 0.9661 0.41508 0.58272 0.0
H1204 H 0.93575 0.32903 0.59064 0.0
C1205 C 0.96429 0.4219 0.61935 0.0
H1206 H 0.95993 0.37769 0.54987 0.0
C1207 C 0.95101 0.39343 0.64638 0.0
C1208 C 0.93411 0.35688 0.63284 0.0
H1209 H 0.97173 0.44343 0.62517 0.0
H1210 H 0.94762 0.39677 0.66799 0.0
C1211 C 0.94329 0.35038 0.59718 0.0
C1212 C 0.54835 0.93672 0.10689 0.0
C1213 C 0.56763 0.96229 0.09103 0.0
H1214 H 0.54363 0.90618 0.13936 0.0
C1215 C 0.59796 0.97649 0.09562 0.0
H1216 H 0.52482 0.92564 0.10407 0.0
C1217 C 0.60883 0.96509 0.11549 0.0
C1218 C 0.58957 0.93938 0.13125 0.0
H1219 H 0.61327 0.99625 0.08365 0.0
H1220 H 0.63231 0.97642 0.11871 0.0
C1221 C 0.55915 0.92558 0.12704 0.0
C1222 C 0.65788 0.54691 0.58303 0.0
C1223 C 0.6366 0.5631 0.57755 0.0
H1224 H 0.70416 0.55523 0.60631 0.0
C1225 C 0.64984 0.59921 0.58761 0.0
H1226 H 0.6497 0.52564 0.57588 0.0
C1227 C 0.68412 0.6197 0.60555 0.0
C1228 C 0.70047 0.59883 0.61769 0.0
H1229 H 0.63705 0.60863 0.58295 0.0
H1230 H 0.69088 0.64022 0.61389 0.0
C1231 C 0.69242 0.56561 0.60087 0.0
C1232 C 0.12488 0.64559 0.07363 0.0
C1233 C 0.08559 0.62463 0.0684 0.0
H1234 H 0.16521 0.69177 0.0943 0.0
C1235 C 0.06253 0.63808 0.07636 0.0
H1236 H 0.13819 0.63739 0.06769 0.0
C1237 C 0.07773 0.6723 0.0918 0.0
C1238 C 0.11615 0.68873 0.10397 0.0
H1239 H 0.03939 0.62561 0.07165 0.0
H1240 H 0.06373 0.67939 0.09879 0.0
C1241 C 0.1422 0.6801 0.08902 0.0
loop_
_geom_bond_atom_site_label_1
_geom_bond_atom_site_label_2
_geom_bond_distance
_geom_bond_site_symmetry_2
_ccdc_geom_bond_type
C0 C1 1.443 . S
C0 N4 1.376 1_556 S
C0 C38 1.389 . S
C1 C0 1.443 . S
C1 C2 1.340 1_556 S
C1 H41 0.951 . S
C2 C1 1.340 1_554 S
C2 C3 1.439 . S
C2 H42 0.950 . S
C3 C2 1.439 . S
C3 N4 1.374 . S
C3 C37 1.395 . S
N4 C0 1.376 1_554 S
N4 C3 1.374 . S
N4 Co5 2.009 1_655 S
Co5 N4 2.009 1_455 S
Co5 N6 2.017 . S
Co5 N11 2.007 1_554 S
Co5 N16 1.972 1_554 S
Co5 N21 2.301 . S
Co5 N27 2.264 1_554 S
N6 Co5 2.017 . S
N6 C7 1.376 1_455 S
N6 C10 1.383 . S
C7 N6 1.376 1_655 S
C7 C8 1.446 . S
C7 C37 1.391 . S
C8 C7 1.446 . S
C8 C9 1.339 1_655 S
C8 H43 0.949 . S
C9 C8 1.339 1_455 S
C9 C10 1.439 . S
C9 H44 0.950 . S
C10 N6 1.383 . S
C10 C9 1.439 . S
C10 C39 1.392 . S
N11 Co5 2.007 1_556 S
N11 C12 1.358 1_556 S
N11 C15 1.391 . S
C12 N11 1.358 1_554 S
C12 C13 1.443 . S
C12 C39 1.389 . S
C13 C12 1.443 . S
C13 C14 1.340 1_554 S
C13 H45 0.951 . S
C14 C13 1.340 1_556 S
C14 C15 1.439 . S
C14 H46 0.950 . S
C15 N11 1.391 . S
C15 C14 1.439 . S
C15 C40 1.395 . S
N16 Co5 1.972 1_556 S
N16 C17 1.376 . S
N16 C20 1.383 . S
C17 N16 1.376 . S
C17 C18 1.446 . S
C17 C40 1.391 . S
C18 C17 1.446 . S
C18 C19 1.339 . S
C18 H47 0.949 . S
C19 C18 1.339 . S
C19 C20 1.439 . S
C19 H48 0.950 . S
C20 N16 1.383 . S
C20 C19 1.439 . S
C20 C38 1.392 1_455 S
N21 Co5 2.301 . S
N21 C24 1.332 . S
N21 C26 1.332 . S
C22 C23 1.386 . S
C22 C25 1.388 . S
C23 C22 1.386 . S
C23 C24 1.382 . S
C23 H49 0.950 . S
C24 N21 1.332 . S
C24 C23 1.382 . S
C24 H35 0.952 . S
C25 C22 1.388 . S
C25 C26 1.382 . S
C25 H50 0.950 . S
C26 N21 1.332 . S
C26 C25 1.382 . S
C26 H36 0.948 . S
N27 Co5 2.264 1_556 S
N27 C31 1.332 1_455 S
N27 C32 1.332 . S
C28 C29 1.388 . S
C28 C32 1.382 1_655 S
C28 H51 0.950 1_655 S
C29 C28 1.388 . S
C29 C30 1.386 . S
C30 C29 1.386 . S
C30 C31 1.382 . S
C30 H52 0.950 . S
C31 N27 1.332 1_655 S
C31 C30 1.382 . S
C31 H33 0.975 . S
C32 N27 1.332 . S
C32 C28 1.382 1_455 S
C32 H34 0.948 . S
H33 C31 0.975 . S
H34 C32 0.948 . S
H35 C24 0.952 . S
H36 C26 0.948 . S
C37 C3 1.395 . S
C37 C7 1.391 . S
C38 C0 1.389 . S
C38 C20 1.392 1_655 S
C39 C10 1.392 . S
C39 C12 1.389 . S
C40 C15 1.395 . S
C40 C17 1.391 . S
H41 C1 0.951 . S
H42 C2 0.950 . S
H43 C8 0.949 . S
H44 C9 0.950 . S
H45 C13 0.951 . S
H46 C14 0.950 . S
H47 C18 0.949 . S
H48 C19 0.950 . S
H49 C23 0.950 . S
H50 C25 0.950 . S
H51 C28 0.950 1_455 S
H52 C30 0.950 . S
C53 C54 1.443 . S
C53 N57 1.376 1_545 S
C53 C91 1.389 . S
C54 C53 1.443 . S
C54 C55 1.340 1_545 S
C54 H94 0.951 . S
C55 C54 1.340 1_565 S
C55 C56 1.439 . S
C55 H95 0.950 . S
C56 C55 1.439 . S
C56 N57 1.374 . S
C56 C90 1.395 . S
N57 C53 1.376 1_565 S
N57 C56 1.374 . S
N57 Co58 2.008 1_565 S
Co58 N57 2.008 1_545 S
Co58 N59 1.995 1_545 S
Co58 N64 2.008 . S
Co58 N69 1.995 . S
Co58 N74 2.282 1_545 S
Co58 N80 2.282 . S
N59 Co58 1.995 1_565 S
N59 C60 1.376 . S
N59 C63 1.383 . S
C60 N59 1.376 . S
C60 C61 1.446 . S
C60 C90 1.391 . S
C61 C60 1.446 . S
C61 C62 1.339 . S
C61 H96 0.949 . S
C62 C61 1.339 . S
C62 C63 1.439 . S
C62 H97 0.950 . S
C63 N59 1.383 . S
C63 C62 1.439 . S
C63 C92 1.392 . S
N64 Co58 2.008 . S
N64 C65 1.376 1_545 S
N64 C68 1.374 . S
C65 N64 1.376 1_565 S
C65 C66 1.443 1_565 S
C65 C92 1.389 . S
C66 C65 1.443 1_545 S
C66 C67 1.340 . S
C66 H98 0.953 . S
C67 C66 1.340 . S
C67 C68 1.439 . S
C67 H99 0.950 . S
C68 N64 1.374 . S
C68 C67 1.439 . S
C68 C93 1.395 . S
N69 Co58 1.995 . S
N69 C70 1.376 . S
N69 C73 1.383 . S
C70 N69 1.376 . S
C70 C71 1.446 . S
C70 C93 1.391 . S
C71 C70 1.446 . S
C71 C72 1.339 . S
C71 H100 0.949 . S
C72 C71 1.339 . S
C72 C73 1.439 . S
C72 H101 0.950 . S
C73 N69 1.383 . S
C73 C72 1.439 . S
C73 C91 1.392 . S
N74 Co58 2.282 1_565 S
N74 C77 1.332 . S
N74 C79 1.332 . S
C75 C76 1.386 . S
C75 C78 1.388 . S
C76 C75 1.386 . S
C76 C77 1.382 . S
C76 H102 0.950 . S
C77 N74 1.332 . S
C77 C76 1.382 . S
C77 H88 0.952 1_565 S
C78 C75 1.388 . S
C78 C79 1.382 . S
C78 H103 0.950 . S
C79 N74 1.332 . S
C79 C78 1.382 . S
C79 H89 0.948 . S
N80 Co58 2.282 . S
N80 C84 1.332 . S
N80 C85 1.332 . S
C81 C82 1.388 . S
C81 C85 1.382 . S
C81 H104 0.950 . S
C82 C81 1.388 . S
C82 C83 1.386 . S
C83 C82 1.386 . S
C83 C84 1.382 . S
C83 H105 0.950 . S
C84 N80 1.332 . S
C84 C83 1.382 . S
C84 H86 0.952 1_545 S
C85 N80 1.332 . S
C85 C81 1.382 . S
C85 H87 0.948 . S
H86 C84 0.952 1_565 S
H87 C85 0.948 . S
H88 C77 0.952 1_545 S
H89 C79 0.948 . S
C90 C56 1.395 . S
C90 C60 1.391 . S
C91 C53 1.389 . S
C91 C73 1.392 . S
C92 C63 1.392 . S
C92 C65 1.389 . S
C93 C68 1.395 . S
C93 C70 1.391 . S
H94 C54 0.951 . S
H95 C55 0.950 . S
H96 C61 0.949 . S
H97 C62 0.950 . S
H98 C66 0.953 . S
H99 C67 0.950 . S
H100 C71 0.949 . S
H101 C72 0.950 . S
H102 C76 0.950 . S
H103 C78 0.950 . S
H104 C81 0.950 . S
H105 C83 0.950 . S
C106 C107 1.443 . S
C106 N110 1.376 . S
C106 C144 1.389 . S
C107 C106 1.443 . S
C107 C108 1.340 . S
C107 H147 0.951 . S
C108 C107 1.340 . S
C108 C109 1.439 . S
C108 H148 0.950 . S
C109 C108 1.439 . S
C109 N110 1.374 . S
C109 C143 1.395 . S
N110 C106 1.376 . S
N110 C109 1.374 . S
N110 Co111 2.008 1_556 S
Co111 N110 2.008 1_554 S
Co111 N112 1.995 . S
Co111 N117 2.008 . S
Co111 N122 1.995 . S
Co111 N127 2.282 . S
Co111 N133 2.282 1_554 S
N112 Co111 1.995 . S
N112 C113 1.376 1_554 S
N112 C116 1.383 . S
C113 N112 1.376 1_556 S
C113 C114 1.446 . S
C113 C143 1.391 . S
C114 C113 1.446 . S
C114 C115 1.339 1_556 S
C114 H149 0.949 . S
C115 C114 1.339 1_554 S
C115 C116 1.439 . S
C115 H150 0.950 . S
C116 N112 1.383 . S
C116 C115 1.439 . S
C116 C145 1.392 . S
N117 Co111 2.008 . S
N117 C118 1.376 . S
N117 C121 1.374 . S
C118 N117 1.376 . S
C118 C119 1.443 . S
C118 C145 1.389 . S
C119 C118 1.443 . S
C119 C120 1.340 . S
C119 H151 0.951 . S
C120 C119 1.340 . S
C120 C121 1.439 . S
C120 H152 0.950 . S
C121 N117 1.374 . S
C121 C120 1.439 . S
C121 C146 1.395 . S
N122 Co111 1.995 . S
N122 C123 1.376 . S
N122 C126 1.383 1_554 S
C123 N122 1.376 . S
C123 C124 1.446 . S
C123 C146 1.391 . S
C124 C123 1.446 . S
C124 C125 1.339 . S
C124 H153 0.949 . S
C125 C124 1.339 . S
C125 C126 1.439 1_554 S
C125 H154 0.950 1_554 S
C126 N122 1.383 1_556 S
C126 C125 1.439 1_556 S
C126 C144 1.392 . S
N127 Co111 2.282 . S
N127 C130 1.332 . S
N127 C132 1.332 . S
C128 C129 1.386 . S
C128 C131 1.388 . S
C129 C128 1.386 . S
C129 C130 1.382 . S
C129 H155 0.950 . S
C130 N127 1.332 . S
C130 C129 1.382 . S
C130 H141 0.952 . S
C131 C128 1.388 . S
C131 C132 1.382 . S
C131 H156 0.950 . S
C132 N127 1.332 . S
C132 C131 1.382 . S
C132 H142 0.948 . S
N133 Co111 2.282 1_556 S
N133 C137 1.332 . S
N133 C138 1.332 . S
C134 C135 1.388 . S
C134 C138 1.382 . S
C134 H157 0.950 . S
C135 C134 1.388 . S
C135 C136 1.386 . S
C136 C135 1.386 . S
C136 C137 1.382 . S
C136 H158 0.950 . S
C137 N133 1.332 . S
C137 C136 1.382 . S
C137 H139 0.952 . S
C138 N133 1.332 . S
C138 C134 1.382 . S
C138 H140 0.948 1_556 S
H139 C137 0.952 . S
H140 C138 0.948 1_554 S
H141 C130 0.952 . S
H142 C132 0.948 . S
C143 C109 1.395 . S
C143 C113 1.391 . S
C144 C106 1.389 . S
C144 C126 1.392 . S
C145 C116 1.392 . S
C145 C118 1.389 . S
C146 C121 1.395 . S
C146 C123 1.391 . S
H147 C107 0.951 . S
H148 C108 0.950 . S
H149 C114 0.949 . S
H150 C115 0.950 . S
H151 C119 0.951 . S
H152 C120 0.950 . S
H153 C124 0.949 . S
H154 C125 0.950 1_556 S
H155 C129 0.950 . S
H156 C131 0.950 . S
H157 C134 0.950 . S
H158 C136 0.950 . S
C159 C160 1.443 . S
C159 N163 1.376 . S
C159 C197 1.389 . S
C160 C159 1.443 . S
C160 C161 1.340 . S
C160 H200 0.951 . S
C161 C160 1.340 . S
C161 C162 1.439 . S
C161 H201 0.950 . S
C162 C161 1.439 . S
C162 N163 1.374 . S
C162 C196 1.395 . S
N163 C159 1.376 . S
N163 C162 1.374 . S
N163 Co164 2.008 1_655 S
Co164 N163 2.008 1_455 S
Co164 N165 1.995 1_455 S
Co164 N170 2.008 . S
Co164 N175 1.995 . S
Co164 N180 2.282 . S
Co164 N186 2.282 1_455 S
N165 Co164 1.995 1_655 S
N165 C166 1.376 . S
N165 C169 1.383 1_655 S
C166 N165 1.376 . S
C166 C167 1.446 . S
C166 C196 1.391 . S
C167 C166 1.446 . S
C167 C168 1.326 1_655 S
C167 H202 0.949 . S
C168 C167 1.326 1_455 S
C168 C169 1.450 . S
C168 H203 0.951 . S
C169 N165 1.383 1_455 S
C169 C168 1.450 . S
C169 C198 1.392 . S
N170 Co164 2.008 . S
N170 C171 1.376 . S
N170 C174 1.374 . S
C171 N170 1.376 . S
C171 C172 1.443 . S
C171 C198 1.389 . S
C172 C171 1.443 . S
C172 C173 1.340 . S
C172 H204 0.951 . S
C173 C172 1.340 . S
C173 C174 1.439 . S
C173 H205 0.950 . S
C174 N170 1.374 . S
C174 C173 1.439 . S
C174 C199 1.395 . S
N175 Co164 1.995 . S
N175 C176 1.376 . S
N175 C179 1.383 1_455 S
C176 N175 1.376 . S
C176 C177 1.446 . S
C176 C199 1.391 . S
C177 C176 1.446 . S
C177 C178 1.339 . S
C177 H206 0.949 . S
C178 C177 1.339 . S
C178 C179 1.439 1_455 S
C178 H207 0.950 1_455 S
C179 N175 1.383 1_655 S
C179 C178 1.439 1_655 S
C179 C197 1.392 . S
N180 Co164 2.282 . S
N180 C183 1.332 . S
N180 C185 1.332 . S
C181 C182 1.386 . S
C181 C184 1.388 . S
C182 C181 1.386 . S
C182 C183 1.382 . S
C182 H208 0.950 . S
C183 N180 1.332 . S
C183 C182 1.382 . S
C183 H194 0.952 . S
C184 C181 1.388 . S
C184 C185 1.382 . S
C184 H209 0.950 . S
C185 N180 1.332 . S
C185 C184 1.382 . S
C185 H195 0.948 1_455 S
N186 Co164 2.282 1_655 S
N186 C190 1.332 . S
N186 C191 1.332 . S
C187 C188 1.388 . S
C187 C191 1.382 . S
C187 H210 0.950 . S
C188 C187 1.388 . S
C188 C189 1.386 . S
C189 C188 1.386 . S
C189 C190 1.382 . S
C189 H211 0.950 . S
C190 N186 1.332 . S
C190 C189 1.382 . S
C190 H192 0.952 . S
C191 N186 1.332 . S
C191 C187 1.382 . S
C191 H193 0.948 1_655 S
H192 C190 0.952 . S
H193 C191 0.948 1_455 S
H194 C183 0.952 . S
H195 C185 0.948 1_655 S
C196 C162 1.395 . S
C196 C166 1.391 . S
C197 C159 1.389 . S
C197 C179 1.392 . S
C198 C169 1.392 . S
C198 C171 1.389 . S
C199 C174 1.395 . S
C199 C176 1.391 . S
H200 C160 0.951 . S
H201 C161 0.950 . S
H202 C167 0.949 . S
H203 C168 0.951 . S
H204 C172 0.951 . S
H205 C173 0.950 . S
H206 C177 0.949 . S
H207 C178 0.950 1_655 S
H208 C182 0.950 . S
H209 C184 0.950 . S
H210 C187 0.950 . S
H211 C189 0.950 . S
C212 C213 1.443 1_565 S
C212 N216 1.376 1_565 S
C212 C250 1.389 . S
C213 C212 1.443 1_545 S
C213 C214 1.340 . S
C213 H253 0.951 . S
C214 C213 1.340 . S
C214 C215 1.439 . S
C214 H254 0.950 . S
C215 C214 1.439 . S
C215 N216 1.374 . S
C215 C249 1.395 . S
N216 C212 1.376 1_545 S
N216 C215 1.374 . S
N216 Co217 2.008 . S
Co217 N216 2.008 . S
Co217 N218 1.995 . S
Co217 N223 1.990 1_544 S
Co217 N228 1.995 1_545 S
Co217 N233 2.282 1_554 S
Co217 N239 2.282 1_545 S
N218 Co217 1.995 . S
N218 C219 1.376 . S
N218 C222 1.383 1_554 S
C219 N218 1.376 . S
C219 C220 1.446 . S
C219 C249 1.391 . S
C220 C219 1.446 . S
C220 C221 1.339 1_554 S
C220 H255 0.949 . S
C221 C220 1.339 1_556 S
C221 C222 1.439 . S
C221 H256 0.950 . S
C222 N218 1.383 1_556 S
C222 C221 1.439 . S
C222 C251 1.392 . S
N223 Co217 1.990 1_566 S
N223 C224 1.367 1_565 S
N223 C227 1.400 . S
C224 N223 1.367 1_545 S
C224 C225 1.443 . S
C224 C251 1.389 . S
C225 C224 1.443 . S
C225 C226 1.340 1_545 S
C225 H257 0.951 . S
C226 C225 1.340 1_565 S
C226 C227 1.439 . S
C226 H258 0.950 . S
C227 N223 1.400 . S
C227 C226 1.439 . S
C227 C252 1.395 . S
N228 Co217 1.995 1_565 S
N228 C229 1.376 1_554 S
N228 C232 1.383 . S
C229 N228 1.376 1_556 S
C229 C230 1.446 1_556 S
C229 C252 1.391 . S
C230 C229 1.446 1_554 S
C230 C231 1.339 . S
C230 H259 0.949 1_554 S
C231 C230 1.339 . S
C231 C232 1.439 . S
C231 H260 0.950 . S
C232 N228 1.383 . S
C232 C231 1.439 . S
C232 C250 1.392 . S
N233 Co217 2.282 1_556 S
N233 C236 1.332 . S
N233 C238 1.332 . S
C234 C235 1.386 . S
C234 C237 1.388 . S
C235 C234 1.386 . S
C235 C236 1.382 . S
C235 H261 0.950 . S
C236 N233 1.332 . S
C236 C235 1.382 . S
C236 H247 0.952 1_545 S
C237 C234 1.388 . S
C237 C238 1.382 . S
C237 H262 0.950 . S
C238 N233 1.332 . S
C238 C237 1.382 . S
C238 H248 0.942 1_556 S
N239 Co217 2.282 1_565 S
N239 C243 1.332 . S
N239 C244 1.332 . S
C240 C241 1.388 . S
C240 C244 1.382 . S
C240 H263 0.950 . S
C241 C240 1.388 . S
C241 C242 1.386 . S
C242 C241 1.386 . S
C242 C243 1.382 . S
C242 H264 0.950 . S
C243 N239 1.332 . S
C243 C242 1.382 . S
C243 H245 0.952 1_565 S
C244 N239 1.332 . S
C244 C240 1.382 . S
C244 H246 0.948 . S
H245 C243 0.952 1_545 S
H246 C244 0.948 . S
H247 C236 0.952 1_565 S
H248 C238 0.942 1_554 S
C249 C215 1.395 . S
C249 C219 1.391 . S
C250 C212 1.389 . S
C250 C232 1.392 . S
C251 C222 1.392 . S
C251 C224 1.389 . S
C252 C227 1.395 . S
C252 C229 1.391 . S
H253 C213 0.951 . S
H254 C214 0.950 . S
H255 C220 0.949 . S
H256 C221 0.950 . S
H257 C225 0.951 . S
H258 C226 0.950 . S
H259 C230 0.949 1_556 S
H260 C231 0.950 . S
H261 C235 0.950 . S
H262 C237 0.950 . S
H263 C240 0.950 . S
H264 C242 0.950 . S
C265 C266 1.443 . S
C265 N269 1.376 . S
C265 C303 1.389 . S
C266 C265 1.443 . S
C266 C267 1.340 . S
C266 H306 0.951 . S
C267 C266 1.340 . S
C267 C268 1.439 . S
C267 H307 0.950 . S
C268 C267 1.439 . S
C268 N269 1.374 . S
C268 C302 1.395 . S
N269 C265 1.376 . S
N269 C268 1.374 . S
N269 Co270 2.008 . S
Co270 N269 2.008 . S
Co270 N271 1.995 . S
Co270 N276 2.008 . S
Co270 N281 1.995 . S
Co270 N286 2.282 . S
Co270 N292 2.282 . S
N271 Co270 1.995 . S
N271 C272 1.376 . S
N271 C275 1.383 . S
C272 N271 1.376 . S
C272 C273 1.446 . S
C272 C302 1.391 . S
C273 C272 1.446 . S
C273 C274 1.339 . S
C273 H308 0.949 . S
C274 C273 1.339 . S
C274 C275 1.439 . S
C274 H309 0.950 . S
C275 N271 1.383 . S
C275 C274 1.439 . S
C275 C304 1.392 . S
N276 Co270 2.008 . S
N276 C277 1.376 . S
N276 C280 1.374 . S
C277 N276 1.376 . S
C277 C278 1.443 . S
C277 C304 1.389 . S
C278 C277 1.443 . S
C278 C279 1.340 . S
C278 H310 0.951 . S
C279 C278 1.340 . S
C279 C280 1.439 . S
C279 H311 0.950 . S
C280 N276 1.374 . S
C280 C279 1.439 . S
C280 C305 1.395 . S
N281 Co270 1.995 . S
N281 C282 1.376 . S
N281 C285 1.383 . S
C282 N281 1.376 . S
C282 C283 1.446 . S
C282 C305 1.391 . S
C283 C282 1.446 . S
C283 C284 1.339 . S
C283 H312 0.949 . S
C284 C283 1.339 . S
C284 C285 1.439 . S
C284 H313 0.950 . S
C285 N281 1.383 . S
C285 C284 1.439 . S
C285 C303 1.392 . S
N286 Co270 2.282 . S
N286 C289 1.332 . S
N286 C291 1.332 . S
C287 C288 1.386 . S
C287 C290 1.388 . S
C288 C287 1.386 . S
C288 C289 1.382 . S
C288 H314 0.950 . S
C289 N286 1.332 . S
C289 C288 1.382 . S
C289 H300 0.952 . S
C290 C287 1.388 . S
C290 C291 1.382 . S
C290 H315 0.950 . S
C291 N286 1.332 . S
C291 C290 1.382 . S
C291 H301 0.948 . S
N292 Co270 2.282 . S
N292 C296 1.332 . S
N292 C297 1.332 . S
C293 C294 1.388 . S
C293 C297 1.382 . S
C293 H316 0.950 . S
C294 C293 1.388 . S
C294 C295 1.386 . S
C295 C294 1.386 . S
C295 C296 1.382 . S
C295 H317 0.950 . S
C296 N292 1.332 . S
C296 C295 1.382 . S
C296 H298 0.952 . S
C297 N292 1.332 . S
C297 C293 1.382 . S
C297 H299 0.948 . S
H298 C296 0.952 . S
H299 C297 0.948 . S
H300 C289 0.952 . S
H301 C291 0.948 . S
C302 C268 1.395 . S
C302 C272 1.391 . S
C303 C265 1.389 . S
C303 C285 1.392 . S
C304 C275 1.392 . S
C304 C277 1.389 . S
C305 C280 1.395 . S
C305 C282 1.391 . S
H306 C266 0.951 . S
H307 C267 0.950 . S
H308 C273 0.949 . S
H309 C274 0.950 . S
H310 C278 0.951 . S
H311 C279 0.950 . S
H312 C283 0.949 . S
H313 C284 0.950 . S
H314 C288 0.950 . S
H315 C290 0.950 . S
H316 C293 0.950 . S
H317 C295 0.950 . S
C318 C319 1.560 . S
C318 H379 0.959 . S
C318 H380 0.959 . S
C318 H381 0.960 . S
C319 C318 1.560 . S
C319 O374 1.426 . S
C319 H378 0.980 . S
C320 C321 1.407 . S
C320 C325 1.418 . S
C320 O374 1.334 . S
C321 C320 1.407 . S
C321 C322 1.360 . S
C321 H382 0.929 . S
C322 C321 1.360 . S
C322 C323 1.401 . S
C322 C326 1.527 . S
C323 C322 1.401 . S
C323 C324 1.405 . S
C323 C356 1.587 . S
C324 C323 1.405 . S
C324 C325 1.332 . S
C324 C327 1.496 . S
C325 C320 1.418 . S
C325 C324 1.332 . S
C325 H383 0.929 . S
C326 C322 1.527 . S
C326 H384 0.959 . S
C326 H385 0.961 . S
C326 H386 0.961 . S
C327 C324 1.496 . S
C327 H387 0.960 . S
C327 H388 0.960 . S
C327 H389 0.961 . S
C328 C329 1.517 . S
C328 H391 0.961 . S
C328 H392 0.960 . S
C328 H393 0.959 . S
C329 C328 1.517 . S
C329 O377 1.468 . S
C329 H390 0.980 . S
C330 C331 1.349 . S
C330 C335 1.367 . S
C330 O377 1.408 . S
C331 C330 1.349 . S
C331 C332 1.407 . S
C331 H394 0.930 . S
C332 C331 1.407 . S
C332 C333 1.449 . S
C332 C336 1.535 . S
C333 C332 1.449 . S
C333 C334 1.384 . S
C333 C358 1.553 . S
C334 C333 1.384 . S
C334 C335 1.364 . S
C334 C337 1.450 . S
C335 C330 1.367 . S
C335 C334 1.364 . S
C335 H395 0.931 . S
C336 C332 1.535 . S
C336 H396 0.959 . S
C336 H397 0.961 . S
C336 H398 0.959 . S
C337 C334 1.450 . S
C337 H399 0.960 . S
C337 H400 0.960 . S
C337 H401 0.960 . S
C338 C339 1.309 . S
C338 C343 1.304 . S
C338 O376 1.435 . S
C339 C338 1.309 . S
C339 C340 1.476 . S
C339 H403 0.930 . S
C340 C339 1.476 . S
C340 C341 1.400 . S
C340 C344 1.567 . S
C341 C340 1.400 . S
C341 C342 1.373 . S
C341 C363 1.432 . S
C342 C341 1.373 . S
C342 C343 1.339 . S
C342 C345 1.530 . S
C343 C338 1.304 . S
C343 C342 1.339 . S
C343 H404 0.930 . S
C344 C340 1.567 . S
C344 H405 0.961 . S
C344 H406 0.960 . S
C344 H407 0.958 . S
C345 C342 1.530 . S
C345 H408 0.961 . S
C345 H409 0.960 . S
C345 H410 0.960 . S
C346 C347 1.530 . S
C346 H412 0.961 . S
C346 H413 0.961 . S
C346 H414 0.959 . S
C347 C346 1.530 . S
C347 O375 1.412 . S
C347 H411 0.980 . S
C348 C349 1.288 . S
C348 C353 1.377 . S
C348 O375 1.393 . S
C349 C348 1.288 . S
C349 C350 1.369 . S
C349 H415 0.932 . S
C350 C349 1.369 . S
C350 C351 1.398 . S
C350 C354 1.527 . S
C351 C350 1.398 . S
C351 C352 1.380 . S
C351 C365 1.497 . S
C352 C351 1.380 . S
C352 C353 1.383 . S
C352 C355 1.603 . S
C353 C348 1.377 . S
C353 C352 1.383 . S
C353 H416 0.929 . S
C354 C350 1.527 . S
C354 H417 0.961 . S
C354 H418 0.959 . S
C354 H419 0.959 . S
C355 C352 1.603 . S
C355 H420 0.960 . S
C355 H421 0.962 . S
C355 H422 0.961 . S
C356 C323 1.587 . S
C356 C357 1.360 . S
C356 C369 1.412 . S
C357 C356 1.360 . S
C357 C358 1.365 . S
C357 H423 0.929 . S
C358 C333 1.553 . S
C358 C357 1.365 . S
C358 C359 1.404 . S
C359 C358 1.404 . S
C359 C360 1.395 . S
C359 C370 1.451 . S
C360 C359 1.395 . S
C360 C361 1.322 . S
C360 H424 0.930 . S
C361 C360 1.322 . S
C361 C362 1.459 . S
C361 H425 0.929 . S
C362 C361 1.459 . S
C362 C363 1.445 . S
C362 C371 1.395 . S
C363 C341 1.432 . S
C363 C362 1.445 . S
C363 C364 1.370 . S
C364 C363 1.370 . S
C364 C365 1.438 . S
C364 H426 0.930 . S
C365 C351 1.497 . S
C365 C364 1.438 . S
C365 C366 1.360 . S
C366 C365 1.360 . S
C366 C367 1.401 . S
C366 C371 1.446 . S
C367 C366 1.401 . S
C367 C368 1.347 . S
C367 H427 0.929 . S
C368 C367 1.347 . S
C368 C369 1.455 . S
C368 H428 0.930 . S
C369 C356 1.412 . S
C369 C368 1.455 . S
C369 C370 1.331 . S
C370 C359 1.451 . S
C370 C369 1.331 . S
C370 C371 1.497 . S
C371 C362 1.395 . S
C371 C366 1.446 . S
C371 C370 1.497 . S
C372 C373 1.582 . S
C372 H429 0.962 . S
C372 H430 0.959 . S
C372 H431 0.958 . S
C373 C372 1.582 . S
C373 O376 1.458 . S
C373 H402 0.980 . S
O374 C319 1.426 . S
O374 C320 1.334 . S
O375 C347 1.412 . S
O375 C348 1.393 . S
O376 C338 1.435 . S
O376 C373 1.458 . S
O377 C329 1.468 . S
O377 C330 1.408 . S
H378 C319 0.980 . S
H379 C318 0.959 . S
H380 C318 0.959 . S
H381 C318 0.960 . S
H382 C321 0.929 . S
H383 C325 0.929 . S
H384 C326 0.959 . S
H385 C326 0.961 . S
H386 C326 0.961 . S
H387 C327 0.960 . S
H388 C327 0.960 . S
H389 C327 0.961 . S
H390 C329 0.980 . S
H391 C328 0.961 . S
H392 C328 0.960 . S
H393 C328 0.959 . S
H394 C331 0.930 . S
H395 C335 0.931 . S
H396 C336 0.959 . S
H397 C336 0.961 . S
H398 C336 0.959 . S
H399 C337 0.960 . S
H400 C337 0.960 . S
H401 C337 0.960 . S
H402 C373 0.980 . S
H403 C339 0.930 . S
H404 C343 0.930 . S
H405 C344 0.961 . S
H406 C344 0.960 . S
H407 C344 0.958 . S
H408 C345 0.961 . S
H409 C345 0.960 . S
H410 C345 0.960 . S
H411 C347 0.980 . S
H412 C346 0.961 . S
H413 C346 0.961 . S
H414 C346 0.959 . S
H415 C349 0.932 . S
H416 C353 0.929 . S
H417 C354 0.961 . S
H418 C354 0.959 . S
H419 C354 0.959 . S
H420 C355 0.960 . S
H421 C355 0.962 . S
H422 C355 0.961 . S
H423 C357 0.929 . S
H424 C360 0.930 . S
H425 C361 0.929 . S
H426 C364 0.930 . S
H427 C367 0.929 . S
H428 C368 0.930 . S
H429 C372 0.962 . S
H430 C372 0.959 . S
H431 C372 0.958 . S
C432 C433 1.560 . S
C432 H493 0.959 . S
C432 H494 0.959 . S
C432 H495 0.960 . S
C433 C432 1.560 . S
C433 O488 1.426 . S
C433 H492 0.980 . S
C434 C435 1.407 . S
C434 C439 1.418 . S
C434 O488 1.334 . S
C435 C434 1.407 . S
C435 C436 1.360 . S
C435 H496 0.929 . S
C436 C435 1.360 . S
C436 C437 1.401 . S
C436 C440 1.527 . S
C437 C436 1.401 . S
C437 C438 1.405 . S
C437 C470 1.587 . S
C438 C437 1.405 . S
C438 C439 1.332 . S
C438 C441 1.496 . S
C439 C434 1.418 . S
C439 C438 1.332 . S
C439 H497 0.929 . S
C440 C436 1.527 . S
C440 H498 0.959 . S
C440 H499 0.961 . S
C440 H500 0.961 . S
C441 C438 1.496 . S
C441 H501 0.960 . S
C441 H502 0.960 . S
C441 H503 0.961 . S
C442 C443 1.517 . S
C442 H505 0.961 . S
C442 H506 0.960 . S
C442 H507 0.959 . S
C443 C442 1.517 . S
C443 O491 1.468 . S
C443 H504 0.980 . S
C444 C445 1.349 . S
C444 C449 1.367 . S
C444 O491 1.408 . S
C445 C444 1.349 . S
C445 C446 1.407 . S
C445 H508 0.930 . S
C446 C445 1.407 . S
C446 C447 1.449 . S
C446 C450 1.535 . S
C447 C446 1.449 . S
C447 C448 1.384 . S
C447 C472 1.553 . S
C448 C447 1.384 . S
C448 C449 1.364 . S
C448 C451 1.450 . S
C449 C444 1.367 . S
C449 C448 1.364 . S
C449 H509 0.931 . S
C450 C446 1.535 . S
C450 H510 0.959 . S
C450 H511 0.961 . S
C450 H512 0.959 . S
C451 C448 1.450 . S
C451 H513 0.960 . S
C451 H514 0.960 . S
C451 H515 0.960 . S
C452 C453 1.309 . S
C452 C457 1.304 . S
C452 O490 1.435 . S
C453 C452 1.309 . S
C453 C454 1.476 . S
C453 H517 0.930 . S
C454 C453 1.476 . S
C454 C455 1.400 . S
C454 C458 1.567 . S
C455 C454 1.400 . S
C455 C456 1.373 . S
C455 C477 1.432 . S
C456 C455 1.373 . S
C456 C457 1.339 . S
C456 C459 1.530 . S
C457 C452 1.304 . S
C457 C456 1.339 . S
C457 H518 0.930 . S
C458 C454 1.567 . S
C458 H519 0.961 . S
C458 H520 0.960 . S
C458 H521 0.958 . S
C459 C456 1.530 . S
C459 H522 0.961 . S
C459 H523 0.960 . S
C459 H524 0.960 . S
C460 C461 1.530 . S
C460 H526 0.961 . S
C460 H527 0.961 . S
C460 H528 0.959 . S
C461 C460 1.530 . S
C461 O489 1.412 . S
C461 H525 0.980 . S
C462 C463 1.288 . S
C462 C467 1.377 . S
C462 O489 1.393 . S
C463 C462 1.288 . S
C463 C464 1.369 . S
C463 H529 0.932 . S
C464 C463 1.369 . S
C464 C465 1.398 . S
C464 C468 1.527 . S
C465 C464 1.398 . S
C465 C466 1.380 . S
C465 C479 1.497 . S
C466 C465 1.380 . S
C466 C467 1.383 . S
C466 C469 1.603 . S
C467 C462 1.377 . S
C467 C466 1.383 . S
C467 H530 0.929 . S
C468 C464 1.527 . S
C468 H531 0.961 . S
C468 H532 0.959 . S
C468 H533 0.959 . S
C469 C466 1.603 . S
C469 H534 0.960 . S
C469 H535 0.962 . S
C469 H536 0.961 . S
C470 C437 1.587 . S
C470 C471 1.360 . S
C470 C483 1.412 . S
C471 C470 1.360 . S
C471 C472 1.365 . S
C471 H537 0.929 . S
C472 C447 1.553 . S
C472 C471 1.365 . S
C472 C473 1.404 . S
C473 C472 1.404 . S
C473 C474 1.395 . S
C473 C484 1.451 . S
C474 C473 1.395 . S
C474 C475 1.322 . S
C474 H538 0.930 . S
C475 C474 1.322 . S
C475 C476 1.459 . S
C475 H539 0.929 . S
C476 C475 1.459 . S
C476 C477 1.445 . S
C476 C485 1.395 . S
C477 C455 1.432 . S
C477 C476 1.445 . S
C477 C478 1.370 . S
C478 C477 1.370 . S
C478 C479 1.438 . S
C478 H540 0.930 . S
C479 C465 1.497 . S
C479 C478 1.438 . S
C479 C480 1.360 . S
C480 C479 1.360 . S
C480 C481 1.401 . S
C480 C485 1.446 . S
C481 C480 1.401 . S
C481 C482 1.347 . S
C481 H541 0.929 . S
C482 C481 1.347 . S
C482 C483 1.455 . S
C482 H542 0.930 . S
C483 C470 1.412 . S
C483 C482 1.455 . S
C483 C484 1.331 . S
C484 C473 1.451 . S
C484 C483 1.331 . S
C484 C485 1.497 . S
C485 C476 1.395 . S
C485 C480 1.446 . S
C485 C484 1.497 . S
C486 C487 1.582 . S
C486 H543 0.962 . S
C486 H544 0.959 . S
C486 H545 0.958 . S
C487 C486 1.582 . S
C487 O490 1.458 . S
C487 H516 0.980 . S
O488 C433 1.426 . S
O488 C434 1.334 . S
O489 C461 1.412 . S
O489 C462 1.393 . S
O490 C452 1.435 . S
O490 C487 1.458 . S
O491 C443 1.468 . S
O491 C444 1.408 . S
H492 C433 0.980 . S
H493 C432 0.959 . S
H494 C432 0.959 . S
H495 C432 0.960 . S
H496 C435 0.929 . S
H497 C439 0.929 . S
H498 C440 0.959 . S
H499 C440 0.961 . S
H500 C440 0.961 . S
H501 C441 0.960 . S
H502 C441 0.960 . S
H503 C441 0.961 . S
H504 C443 0.980 . S
H505 C442 0.961 . S
H506 C442 0.960 . S
H507 C442 0.959 . S
H508 C445 0.930 . S
H509 C449 0.931 . S
H510 C450 0.959 . S
H511 C450 0.961 . S
H512 C450 0.959 . S
H513 C451 0.960 . S
H514 C451 0.960 . S
H515 C451 0.960 . S
H516 C487 0.980 . S
H517 C453 0.930 . S
H518 C457 0.930 . S
H519 C458 0.961 . S
H520 C458 0.960 . S
H521 C458 0.958 . S
H522 C459 0.961 . S
H523 C459 0.960 . S
H524 C459 0.960 . S
H525 C461 0.980 . S
H526 C460 0.961 . S
H527 C460 0.961 . S
H528 C460 0.959 . S
H529 C463 0.932 . S
H530 C467 0.929 . S
H531 C468 0.961 . S
H532 C468 0.959 . S
H533 C468 0.959 . S
H534 C469 0.960 . S
H535 C469 0.962 . S
H536 C469 0.961 . S
H537 C471 0.929 . S
H538 C474 0.930 . S
H539 C475 0.929 . S
H540 C478 0.930 . S
H541 C481 0.929 . S
H542 C482 0.930 . S
H543 C486 0.962 . S
H544 C486 0.959 . S
H545 C486 0.958 . S
C546 C547 1.560 . S
C546 H607 0.959 . S
C546 H608 0.959 . S
C546 H609 0.960 . S
C547 C546 1.560 . S
C547 O602 1.426 . S
C547 H606 0.980 . S
C548 C549 1.407 . S
C548 C553 1.418 . S
C548 O602 1.334 . S
C549 C548 1.407 . S
C549 C550 1.360 . S
C549 H610 0.929 . S
C550 C549 1.360 . S
C550 C551 1.401 . S
C550 C554 1.527 . S
C551 C550 1.401 . S
C551 C552 1.405 . S
C551 C584 1.587 . S
C552 C551 1.405 . S
C552 C553 1.332 . S
C552 C555 1.496 . S
C553 C548 1.418 . S
C553 C552 1.332 . S
C553 H611 0.929 . S
C554 C550 1.527 . S
C554 H612 0.959 . S
C554 H613 0.961 . S
C554 H614 0.961 . S
C555 C552 1.496 . S
C555 H615 0.960 . S
C555 H616 0.960 . S
C555 H617 0.961 . S
C556 C557 1.517 . S
C556 H619 0.961 . S
C556 H620 0.960 . S
C556 H621 0.959 . S
C557 C556 1.517 . S
C557 O605 1.468 . S
C557 H618 0.980 . S
C558 C559 1.349 . S
C558 C563 1.367 . S
C558 O605 1.408 . S
C559 C558 1.349 . S
C559 C560 1.407 . S
C559 H622 0.930 . S
C560 C559 1.407 . S
C560 C561 1.449 . S
C560 C564 1.535 . S
C561 C560 1.449 . S
C561 C562 1.384 . S
C561 C586 1.553 . S
C562 C561 1.384 . S
C562 C563 1.364 . S
C562 C565 1.450 . S
C563 C558 1.367 . S
C563 C562 1.364 . S
C563 H623 0.931 . S
C564 C560 1.535 . S
C564 H624 0.959 . S
C564 H625 0.961 . S
C564 H626 0.959 . S
C565 C562 1.450 . S
C565 H627 0.960 . S
C565 H628 0.960 . S
C565 H629 0.960 . S
C566 C567 1.309 . S
C566 C571 1.304 . S
C566 O604 1.435 . S
C567 C566 1.309 . S
C567 C568 1.476 . S
C567 H631 0.930 . S
C568 C567 1.476 . S
C568 C569 1.400 . S
C568 C572 1.567 . S
C569 C568 1.400 . S
C569 C570 1.373 . S
C569 C591 1.432 . S
C570 C569 1.373 . S
C570 C571 1.339 . S
C570 C573 1.530 . S
C571 C566 1.304 . S
C571 C570 1.339 . S
C571 H632 0.930 . S
C572 C568 1.567 . S
C572 H633 0.961 . S
C572 H634 0.960 . S
C572 H635 0.958 . S
C573 C570 1.530 . S
C573 H636 0.961 . S
C573 H637 0.960 . S
C573 H638 0.960 . S
C574 C575 1.530 . S
C574 H640 0.961 . S
C574 H641 0.961 . S
C574 H642 0.959 . S
C575 C574 1.530 . S
C575 O603 1.412 . S
C575 H639 0.980 . S
C576 C577 1.288 . S
C576 C581 1.377 . S
C576 O603 1.393 . S
C577 C576 1.288 . S
C577 C578 1.369 . S
C577 H643 0.932 . S
C578 C577 1.369 . S
C578 C579 1.398 . S
C578 C582 1.527 . S
C579 C578 1.398 . S
C579 C580 1.380 . S
C579 C593 1.497 . S
C580 C579 1.380 . S
C580 C581 1.383 . S
C580 C583 1.603 . S
C581 C576 1.377 . S
C581 C580 1.383 . S
C581 H644 0.929 . S
C582 C578 1.527 . S
C582 H645 0.961 . S
C582 H646 0.959 . S
C582 H647 0.959 . S
C583 C580 1.603 . S
C583 H648 0.960 . S
C583 H649 0.962 . S
C583 H650 0.961 . S
C584 C551 1.587 . S
C584 C585 1.360 . S
C584 C597 1.412 . S
C585 C584 1.360 . S
C585 C586 1.365 . S
C585 H651 0.929 . S
C586 C561 1.553 . S
C586 C585 1.365 . S
C586 C587 1.404 . S
C587 C586 1.404 . S
C587 C588 1.395 . S
C587 C598 1.451 . S
C588 C587 1.395 . S
C588 C589 1.322 . S
C588 H652 0.930 . S
C589 C588 1.322 . S
C589 C590 1.459 . S
C589 H653 0.929 . S
C590 C589 1.459 . S
C590 C591 1.445 . S
C590 C599 1.395 . S
C591 C569 1.432 . S
C591 C590 1.445 . S
C591 C592 1.370 . S
C592 C591 1.370 . S
C592 C593 1.438 . S
C592 H654 0.930 . S
C593 C579 1.497 . S
C593 C592 1.438 . S
C593 C594 1.360 . S
C594 C593 1.360 . S
C594 C595 1.401 . S
C594 C599 1.446 . S
C595 C594 1.401 . S
C595 C596 1.347 . S
C595 H655 0.929 . S
C596 C595 1.347 . S
C596 C597 1.455 . S
C596 H656 0.930 . S
C597 C584 1.412 . S
C597 C596 1.455 . S
C597 C598 1.331 . S
C598 C587 1.451 . S
C598 C597 1.331 . S
C598 C599 1.497 . S
C599 C590 1.395 . S
C599 C594 1.446 . S
C599 C598 1.497 . S
C600 C601 1.582 . S
C600 H657 0.962 . S
C600 H658 0.959 . S
C600 H659 0.958 . S
C601 C600 1.582 . S
C601 O604 1.458 . S
C601 H630 0.980 . S
O602 C547 1.426 . S
O602 C548 1.334 . S
O603 C575 1.412 . S
O603 C576 1.393 . S
O604 C566 1.435 . S
O604 C601 1.458 . S
O605 C557 1.468 . S
O605 C558 1.408 . S
H606 C547 0.980 . S
H607 C546 0.959 . S
H608 C546 0.959 . S
H609 C546 0.960 . S
H610 C549 0.929 . S
H611 C553 0.929 . S
H612 C554 0.959 . S
H613 C554 0.961 . S
H614 C554 0.961 . S
H615 C555 0.960 . S
H616 C555 0.960 . S
H617 C555 0.961 . S
H618 C557 0.980 . S
H619 C556 0.961 . S
H620 C556 0.960 . S
H621 C556 0.959 . S
H622 C559 0.930 . S
H623 C563 0.931 . S
H624 C564 0.959 . S
H625 C564 0.961 . S
H626 C564 0.959 . S
H627 C565 0.960 . S
H628 C565 0.960 . S
H629 C565 0.960 . S
H630 C601 0.980 . S
H631 C567 0.930 . S
H632 C571 0.930 . S
H633 C572 0.961 . S
H634 C572 0.960 . S
H635 C572 0.958 . S
H636 C573 0.961 . S
H637 C573 0.960 . S
H638 C573 0.960 . S
H639 C575 0.980 . S
H640 C574 0.961 . S
H641 C574 0.961 . S
H642 C574 0.959 . S
H643 C577 0.932 . S
H644 C581 0.929 . S
H645 C582 0.961 . S
H646 C582 0.959 . S
H647 C582 0.959 . S
H648 C583 0.960 . S
H649 C583 0.962 . S
H650 C583 0.961 . S
H651 C585 0.929 . S
H652 C588 0.930 . S
H653 C589 0.929 . S
H654 C592 0.930 . S
H655 C595 0.929 . S
H656 C596 0.930 . S
H657 C600 0.962 . S
H658 C600 0.959 . S
H659 C600 0.958 . S
C660 C661 1.560 . S
C660 H721 0.959 . S
C660 H722 0.959 . S
C660 H723 0.960 . S
C661 C660 1.560 . S
C661 O716 1.426 . S
C661 H720 0.980 . S
C662 C663 1.407 . S
C662 C667 1.418 . S
C662 O716 1.334 . S
C663 C662 1.407 . S
C663 C664 1.360 . S
C663 H724 0.929 . S
C664 C663 1.360 . S
C664 C665 1.401 . S
C664 C668 1.527 . S
C665 C664 1.401 . S
C665 C666 1.405 . S
C665 C698 1.587 . S
C666 C665 1.405 . S
C666 C667 1.332 . S
C666 C669 1.496 . S
C667 C662 1.418 . S
C667 C666 1.332 . S
C667 H725 0.929 . S
C668 C664 1.527 . S
C668 H726 0.959 . S
C668 H727 0.961 . S
C668 H728 0.961 . S
C669 C666 1.496 . S
C669 H729 0.960 . S
C669 H730 0.960 . S
C669 H731 0.961 . S
C670 C671 1.517 . S
C670 H733 0.961 . S
C670 H734 0.960 . S
C670 H735 0.959 . S
C671 C670 1.517 . S
C671 O719 1.468 . S
C671 H732 0.980 . S
C672 C673 1.349 . S
C672 C677 1.367 . S
C672 O719 1.408 . S
C673 C672 1.349 . S
C673 C674 1.407 . S
C673 H736 0.930 . S
C674 C673 1.407 . S
C674 C675 1.449 . S
C674 C678 1.535 . S
C675 C674 1.449 . S
C675 C676 1.384 . S
C675 C700 1.553 . S
C676 C675 1.384 . S
C676 C677 1.364 . S
C676 C679 1.450 . S
C677 C672 1.367 . S
C677 C676 1.364 . S
C677 H737 0.931 . S
C678 C674 1.535 . S
C678 H738 0.959 . S
C678 H739 0.961 . S
C678 H740 0.959 . S
C679 C676 1.450 . S
C679 H741 0.960 . S
C679 H742 0.960 . S
C679 H743 0.960 . S
C680 C681 1.309 . S
C680 C685 1.304 . S
C680 O718 1.435 . S
C681 C680 1.309 . S
C681 C682 1.476 . S
C681 H745 0.930 . S
C682 C681 1.476 . S
C682 C683 1.400 . S
C682 C686 1.567 . S
C683 C682 1.400 . S
C683 C684 1.373 . S
C683 C705 1.432 . S
C684 C683 1.373 . S
C684 C685 1.339 . S
C684 C687 1.530 . S
C685 C680 1.304 . S
C685 C684 1.339 . S
C685 H746 0.930 . S
C686 C682 1.567 . S
C686 H747 0.961 . S
C686 H748 0.960 . S
C686 H749 0.958 . S
C687 C684 1.530 . S
C687 H750 0.961 . S
C687 H751 0.960 . S
C687 H752 0.960 . S
C688 C689 1.530 . S
C688 H754 0.961 . S
C688 H755 0.961 . S
C688 H756 0.959 . S
C689 C688 1.530 . S
C689 O717 1.412 . S
C689 H753 0.980 . S
C690 C691 1.288 . S
C690 C695 1.377 . S
C690 O717 1.393 . S
C691 C690 1.288 . S
C691 C692 1.369 . S
C691 H757 0.932 . S
C692 C691 1.369 . S
C692 C693 1.398 . S
C692 C696 1.527 . S
C693 C692 1.398 . S
C693 C694 1.380 . S
C693 C707 1.497 . S
C694 C693 1.380 . S
C694 C695 1.383 . S
C694 C697 1.603 . S
C695 C690 1.377 . S
C695 C694 1.383 . S
C695 H758 0.929 . S
C696 C692 1.527 . S
C696 H759 0.961 . S
C696 H760 0.959 . S
C696 H761 0.959 . S
C697 C694 1.603 . S
C697 H762 0.960 . S
C697 H763 0.962 . S
C697 H764 0.961 . S
C698 C665 1.587 . S
C698 C699 1.360 . S
C698 C711 1.412 . S
C699 C698 1.360 . S
C699 C700 1.365 . S
C699 H765 0.929 . S
C700 C675 1.553 . S
C700 C699 1.365 . S
C700 C701 1.404 . S
C701 C700 1.404 . S
C701 C702 1.395 . S
C701 C712 1.451 . S
C702 C701 1.395 . S
C702 C703 1.322 . S
C702 H766 0.930 . S
C703 C702 1.322 . S
C703 C704 1.459 . S
C703 H767 0.929 . S
C704 C703 1.459 . S
C704 C705 1.445 . S
C704 C713 1.395 . S
C705 C683 1.432 . S
C705 C704 1.445 . S
C705 C706 1.370 . S
C706 C705 1.370 . S
C706 C707 1.438 . S
C706 H768 0.930 . S
C707 C693 1.497 . S
C707 C706 1.438 . S
C707 C708 1.360 . S
C708 C707 1.360 . S
C708 C709 1.401 . S
C708 C713 1.446 . S
C709 C708 1.401 . S
C709 C710 1.347 . S
C709 H769 0.929 . S
C710 C709 1.347 . S
C710 C711 1.455 . S
C710 H770 0.930 . S
C711 C698 1.412 . S
C711 C710 1.455 . S
C711 C712 1.331 . S
C712 C701 1.451 . S
C712 C711 1.331 . S
C712 C713 1.497 . S
C713 C704 1.395 . S
C713 C708 1.446 . S
C713 C712 1.497 . S
C714 C715 1.582 . S
C714 H771 0.962 . S
C714 H772 0.959 . S
C714 H773 0.958 . S
C715 C714 1.582 . S
C715 O718 1.458 . S
C715 H744 0.980 . S
O716 C661 1.426 . S
O716 C662 1.334 . S
O717 C689 1.412 . S
O717 C690 1.393 . S
O718 C680 1.435 . S
O718 C715 1.458 . S
O719 C671 1.468 . S
O719 C672 1.408 . S
H720 C661 0.980 . S
H721 C660 0.959 . S
H722 C660 0.959 . S
H723 C660 0.960 . S
H724 C663 0.929 . S
H725 C667 0.929 . S
H726 C668 0.959 . S
H727 C668 0.961 . S
H728 C668 0.961 . S
H729 C669 0.960 . S
H730 C669 0.960 . S
H731 C669 0.961 . S
H732 C671 0.980 . S
H733 C670 0.961 . S
H734 C670 0.960 . S
H735 C670 0.959 . S
H736 C673 0.930 . S
H737 C677 0.931 . S
H738 C678 0.959 . S
H739 C678 0.961 . S
H740 C678 0.959 . S
H741 C679 0.960 . S
H742 C679 0.960 . S
H743 C679 0.960 . S
H744 C715 0.980 . S
H745 C681 0.930 . S
H746 C685 0.930 . S
H747 C686 0.961 . S
H748 C686 0.960 . S
H749 C686 0.958 . S
H750 C687 0.961 . S
H751 C687 0.960 . S
H752 C687 0.960 . S
H753 C689 0.980 . S
H754 C688 0.961 . S
H755 C688 0.961 . S
H756 C688 0.959 . S
H757 C691 0.932 . S
H758 C695 0.929 . S
H759 C696 0.961 . S
H760 C696 0.959 . S
H761 C696 0.959 . S
H762 C697 0.960 . S
H763 C697 0.962 . S
H764 C697 0.961 . S
H765 C699 0.929 . S
H766 C702 0.930 . S
H767 C703 0.929 . S
H768 C706 0.930 . S
H769 C709 0.929 . S
H770 C710 0.930 . S
H771 C714 0.962 . S
H772 C714 0.959 . S
H773 C714 0.958 . S
C774 C775 1.560 . S
C774 H835 0.959 . S
C774 H836 0.959 . S
C774 H837 0.960 . S
C775 C774 1.560 . S
C775 O830 1.426 . S
C775 H834 0.980 . S
C776 C777 1.407 . S
C776 C781 1.418 . S
C776 O830 1.334 . S
C777 C776 1.407 . S
C777 C778 1.360 . S
C777 H838 0.929 . S
C778 C777 1.360 . S
C778 C779 1.401 . S
C778 C782 1.527 . S
C779 C778 1.401 . S
C779 C780 1.405 . S
C779 C812 1.587 . S
C780 C779 1.405 . S
C780 C781 1.332 . S
C780 C783 1.496 . S
C781 C776 1.418 . S
C781 C780 1.332 . S
C781 H839 0.929 . S
C782 C778 1.527 . S
C782 H840 0.959 . S
C782 H841 0.961 . S
C782 H842 0.961 . S
C783 C780 1.496 . S
C783 H843 0.960 . S
C783 H844 0.960 . S
C783 H845 0.961 . S
C784 C785 1.517 . S
C784 H847 0.961 . S
C784 H848 0.960 . S
C784 H849 0.959 . S
C785 C784 1.517 . S
C785 O833 1.468 . S
C785 H846 0.980 . S
C786 C787 1.349 . S
C786 C791 1.367 . S
C786 O833 1.408 . S
C787 C786 1.349 . S
C787 C788 1.407 . S
C787 H850 0.930 . S
C788 C787 1.407 . S
C788 C789 1.449 . S
C788 C792 1.535 . S
C789 C788 1.449 . S
C789 C790 1.384 . S
C789 C814 1.553 . S
C790 C789 1.384 . S
C790 C791 1.364 . S
C790 C793 1.450 . S
C791 C786 1.367 . S
C791 C790 1.364 . S
C791 H851 0.931 . S
C792 C788 1.535 . S
C792 H852 0.959 . S
C792 H853 0.961 . S
C792 H854 0.959 . S
C793 C790 1.450 . S
C793 H855 0.960 . S
C793 H856 0.960 . S
C793 H857 0.960 . S
C794 C795 1.309 . S
C794 C799 1.304 . S
C794 O832 1.435 . S
C795 C794 1.309 . S
C795 C796 1.476 . S
C795 H859 0.930 . S
C796 C795 1.476 . S
C796 C797 1.400 . S
C796 C800 1.567 . S
C797 C796 1.400 . S
C797 C798 1.373 . S
C797 C819 1.432 . S
C798 C797 1.373 . S
C798 C799 1.339 . S
C798 C801 1.530 . S
C799 C794 1.304 . S
C799 C798 1.339 . S
C799 H860 0.930 . S
C800 C796 1.567 . S
C800 H861 0.961 . S
C800 H862 0.960 . S
C800 H863 0.958 . S
C801 C798 1.530 . S
C801 H864 0.961 . S
C801 H865 0.960 . S
C801 H866 0.960 . S
C802 C803 1.530 . S
C802 H868 0.961 . S
C802 H869 0.961 . S
C802 H870 0.959 . S
C803 C802 1.530 . S
C803 O831 1.412 . S
C803 H867 0.980 . S
C804 C805 1.288 . S
C804 C809 1.377 . S
C804 O831 1.393 . S
C805 C804 1.288 . S
C805 C806 1.369 . S
C805 H871 0.932 . S
C806 C805 1.369 . S
C806 C807 1.398 . S
C806 C810 1.527 . S
C807 C806 1.398 . S
C807 C808 1.380 . S
C807 C821 1.497 . S
C808 C807 1.380 . S
C808 C809 1.383 . S
C808 C811 1.603 . S
C809 C804 1.377 . S
C809 C808 1.383 . S
C809 H872 0.929 . S
C810 C806 1.527 . S
C810 H873 0.961 . S
C810 H874 0.959 . S
C810 H875 0.959 . S
C811 C808 1.603 . S
C811 H876 0.960 . S
C811 H877 0.962 . S
C811 H878 0.961 . S
C812 C779 1.587 . S
C812 C813 1.360 . S
C812 C825 1.412 . S
C813 C812 1.360 . S
C813 C814 1.365 . S
C813 H879 0.929 . S
C814 C789 1.553 . S
C814 C813 1.365 . S
C814 C815 1.404 . S
C815 C814 1.404 . S
C815 C816 1.395 . S
C815 C826 1.451 . S
C816 C815 1.395 . S
C816 C817 1.322 . S
C816 H880 0.930 . S
C817 C816 1.322 . S
C817 C818 1.459 . S
C817 H881 0.929 . S
C818 C817 1.459 . S
C818 C819 1.445 . S
C818 C827 1.395 . S
C819 C797 1.432 . S
C819 C818 1.445 . S
C819 C820 1.370 . S
C820 C819 1.370 . S
C820 C821 1.438 . S
C820 H882 0.930 . S
C821 C807 1.497 . S
C821 C820 1.438 . S
C821 C822 1.360 . S
C822 C821 1.360 . S
C822 C823 1.401 . S
C822 C827 1.446 . S
C823 C822 1.401 . S
C823 C824 1.347 . S
C823 H883 0.929 . S
C824 C823 1.347 . S
C824 C825 1.455 . S
C824 H884 0.930 . S
C825 C812 1.412 . S
C825 C824 1.455 . S
C825 C826 1.331 . S
C826 C815 1.451 . S
C826 C825 1.331 . S
C826 C827 1.497 . S
C827 C818 1.395 . S
C827 C822 1.446 . S
C827 C826 1.497 . S
C828 C829 1.582 . S
C828 H885 0.962 . S
C828 H886 0.959 . S
C828 H887 0.958 . S
C829 C828 1.582 . S
C829 O832 1.458 . S
C829 H858 0.980 . S
O830 C775 1.426 . S
O830 C776 1.334 . S
O831 C803 1.412 . S
O831 C804 1.393 . S
O832 C794 1.435 . S
O832 C829 1.458 . S
O833 C785 1.468 . S
O833 C786 1.408 . S
H834 C775 0.980 . S
H835 C774 0.959 . S
H836 C774 0.959 . S
H837 C774 0.960 . S
H838 C777 0.929 . S
H839 C781 0.929 . S
H840 C782 0.959 . S
H841 C782 0.961 . S
H842 C782 0.961 . S
H843 C783 0.960 . S
H844 C783 0.960 . S
H845 C783 0.961 . S
H846 C785 0.980 . S
H847 C784 0.961 . S
H848 C784 0.960 . S
H849 C784 0.959 . S
H850 C787 0.930 . S
H851 C791 0.931 . S
H852 C792 0.959 . S
H853 C792 0.961 . S
H854 C792 0.959 . S
H855 C793 0.960 . S
H856 C793 0.960 . S
H857 C793 0.960 . S
H858 C829 0.980 . S
H859 C795 0.930 . S
H860 C799 0.930 . S
H861 C800 0.961 . S
H862 C800 0.960 . S
H863 C800 0.958 . S
H864 C801 0.961 . S
H865 C801 0.960 . S
H866 C801 0.960 . S
H867 C803 0.980 . S
H868 C802 0.961 . S
H869 C802 0.961 . S
H870 C802 0.959 . S
H871 C805 0.932 . S
H872 C809 0.929 . S
H873 C810 0.961 . S
H874 C810 0.959 . S
H875 C810 0.959 . S
H876 C811 0.960 . S
H877 C811 0.962 . S
H878 C811 0.961 . S
H879 C813 0.929 . S
H880 C816 0.930 . S
H881 C817 0.929 . S
H882 C820 0.930 . S
H883 C823 0.929 . S
H884 C824 0.930 . S
H885 C828 0.962 . S
H886 C828 0.959 . S
H887 C828 0.958 . S
C888 C889 1.560 . S
C888 H949 0.959 . S
C888 H950 0.959 . S
C888 H951 0.960 . S
C889 C888 1.560 . S
C889 O944 1.426 . S
C889 H948 0.980 . S
C890 C891 1.407 . S
C890 C895 1.418 . S
C890 O944 1.334 . S
C891 C890 1.407 . S
C891 C892 1.360 . S
C891 H952 0.929 . S
C892 C891 1.360 . S
C892 C893 1.401 . S
C892 C896 1.527 . S
C893 C892 1.401 . S
C893 C894 1.405 . S
C893 C926 1.587 . S
C894 C893 1.405 . S
C894 C895 1.332 . S
C894 C897 1.496 . S
C895 C890 1.418 . S
C895 C894 1.332 . S
C895 H953 0.929 . S
C896 C892 1.527 . S
C896 H954 0.959 . S
C896 H955 0.961 . S
C896 H956 0.961 . S
C897 C894 1.496 . S
C897 H957 0.960 . S
C897 H958 0.960 . S
C897 H959 0.961 . S
C898 C899 1.517 . S
C898 H961 0.961 . S
C898 H962 0.960 . S
C898 H963 0.959 . S
C899 C898 1.517 . S
C899 O947 1.468 . S
C899 H960 0.980 . S
C900 C901 1.349 . S
C900 C905 1.367 . S
C900 O947 1.408 . S
C901 C900 1.349 . S
C901 C902 1.407 . S
C901 H964 0.930 . S
C902 C901 1.407 . S
C902 C903 1.449 . S
C902 C906 1.535 . S
C903 C902 1.449 . S
C903 C904 1.384 . S
C903 C928 1.553 . S
C904 C903 1.384 . S
C904 C905 1.364 . S
C904 C907 1.450 . S
C905 C900 1.367 . S
C905 C904 1.364 . S
C905 H965 0.931 . S
C906 C902 1.535 . S
C906 H966 0.959 . S
C906 H967 0.961 . S
C906 H968 0.959 . S
C907 C904 1.450 . S
C907 H969 0.960 . S
C907 H970 0.960 . S
C907 H971 0.960 . S
C908 C909 1.309 . S
C908 C913 1.304 . S
C908 O946 1.435 . S
C909 C908 1.309 . S
C909 C910 1.476 . S
C909 H973 0.930 . S
C910 C909 1.476 . S
C910 C911 1.400 . S
C910 C914 1.567 . S
C911 C910 1.400 . S
C911 C912 1.373 . S
C911 C933 1.432 . S
C912 C911 1.373 . S
C912 C913 1.339 . S
C912 C915 1.530 . S
C913 C908 1.304 . S
C913 C912 1.339 . S
C913 H974 0.930 . S
C914 C910 1.567 . S
C914 H975 0.961 . S
C914 H976 0.960 . S
C914 H977 0.958 . S
C915 C912 1.530 . S
C915 H978 0.961 . S
C915 H979 0.960 . S
C915 H980 0.960 . S
C916 C917 1.530 . S
C916 H982 0.961 . S
C916 H983 0.961 . S
C916 H984 0.959 . S
C917 C916 1.530 . S
C917 O945 1.412 . S
C917 H981 0.980 . S
C918 C919 1.288 . S
C918 C923 1.377 . S
C918 O945 1.393 . S
C919 C918 1.288 . S
C919 C920 1.369 . S
C919 H985 0.932 . S
C920 C919 1.369 . S
C920 C921 1.398 . S
C920 C924 1.527 . S
C921 C920 1.398 . S
C921 C922 1.380 . S
C921 C935 1.497 . S
C922 C921 1.380 . S
C922 C923 1.383 . S
C922 C925 1.603 . S
C923 C918 1.377 . S
C923 C922 1.383 . S
C923 H986 0.929 . S
C924 C920 1.527 . S
C924 H987 0.961 . S
C924 H988 0.959 . S
C924 H989 0.959 . S
C925 C922 1.603 . S
C925 H990 0.960 . S
C925 H991 0.962 . S
C925 H992 0.961 . S
C926 C893 1.587 . S
C926 C927 1.360 . S
C926 C939 1.412 . S
C927 C926 1.360 . S
C927 C928 1.365 . S
C927 H993 0.929 . S
C928 C903 1.553 . S
C928 C927 1.365 . S
C928 C929 1.404 . S
C929 C928 1.404 . S
C929 C930 1.395 . S
C929 C940 1.451 . S
C930 C929 1.395 . S
C930 C931 1.322 . S
C930 H994 0.930 . S
C931 C930 1.322 . S
C931 C932 1.459 . S
C931 H995 0.929 . S
C932 C931 1.459 . S
C932 C933 1.445 . S
C932 C941 1.395 . S
C933 C911 1.432 . S
C933 C932 1.445 . S
C933 C934 1.370 . S
C934 C933 1.370 . S
C934 C935 1.438 . S
C934 H996 0.930 . S
C935 C921 1.497 . S
C935 C934 1.438 . S
C935 C936 1.360 . S
C936 C935 1.360 . S
C936 C937 1.401 . S
C936 C941 1.446 . S
C937 C936 1.401 . S
C937 C938 1.347 . S
C937 H997 0.929 . S
C938 C937 1.347 . S
C938 C939 1.455 . S
C938 H998 0.930 . S
C939 C926 1.412 . S
C939 C938 1.455 . S
C939 C940 1.331 . S
C940 C929 1.451 . S
C940 C939 1.331 . S
C940 C941 1.497 . S
C941 C932 1.395 . S
C941 C936 1.446 . S
C941 C940 1.497 . S
C942 C943 1.582 . S
C942 H999 0.962 . S
C942 H1000 0.959 . S
C942 H1001 0.958 . S
C943 C942 1.582 . S
C943 O946 1.458 . S
C943 H972 0.980 . S
O944 C889 1.426 . S
O944 C890 1.334 . S
O945 C917 1.412 . S
O945 C918 1.393 . S
O946 C908 1.435 . S
O946 C943 1.458 . S
O947 C899 1.468 . S
O947 C900 1.408 . S
H948 C889 0.980 . S
H949 C888 0.959 . S
H950 C888 0.959 . S
H951 C888 0.960 . S
H952 C891 0.929 . S
H953 C895 0.929 . S
H954 C896 0.959 . S
H955 C896 0.961 . S
H956 C896 0.961 . S
H957 C897 0.960 . S
H958 C897 0.960 . S
H959 C897 0.961 . S
H960 C899 0.980 . S
H961 C898 0.961 . S
H962 C898 0.960 . S
H963 C898 0.959 . S
H964 C901 0.930 . S
H965 C905 0.931 . S
H966 C906 0.959 . S
H967 C906 0.961 . S
H968 C906 0.959 . S
H969 C907 0.960 . S
H970 C907 0.960 . S
H971 C907 0.960 . S
H972 C943 0.980 . S
H973 C909 0.930 . S
H974 C913 0.930 . S
H975 C914 0.961 . S
H976 C914 0.960 . S
H977 C914 0.958 . S
H978 C915 0.961 . S
H979 C915 0.960 . S
H980 C915 0.960 . S
H981 C917 0.980 . S
H982 C916 0.961 . S
H983 C916 0.961 . S
H984 C916 0.959 . S
H985 C919 0.932 . S
H986 C923 0.929 . S
H987 C924 0.961 . S
H988 C924 0.959 . S
H989 C924 0.959 . S
H990 C925 0.960 . S
H991 C925 0.962 . S
H992 C925 0.961 . S
H993 C927 0.929 . S
H994 C930 0.930 . S
H995 C931 0.929 . S
H996 C934 0.930 . S
H997 C937 0.929 . S
H998 C938 0.930 . S
H999 C942 0.962 . S
H1000 C942 0.959 . S
H1001 C942 0.958 . S
C1002 C1003 1.387 . S
C1002 H1006 0.950 . S
C1002 C1011 1.390 . S
C1003 C1002 1.387 . S
C1003 C1005 1.387 . S
H1004 C1011 0.950 . S
C1005 C1003 1.387 . S
C1005 C1007 1.390 . S
C1005 H1009 0.950 . S
H1006 C1002 0.950 . S
C1007 C1005 1.390 . S
C1007 C1008 1.387 . S
C1007 H1010 0.950 . S
C1008 C1007 1.387 . S
C1008 C1011 1.387 . S
H1009 C1005 0.950 . S
H1010 C1007 0.950 . S
C1011 C1002 1.390 . S
C1011 H1004 0.950 . S
C1011 C1008 1.387 . S
C1012 C1013 1.387 . S
C1012 H1016 0.950 . S
C1012 C1021 1.390 . S
C1013 C1012 1.387 . S
C1013 C1015 1.387 . S
H1014 C1021 0.950 . S
C1015 C1013 1.387 . S
C1015 C1017 1.390 . S
C1015 H1019 0.950 . S
H1016 C1012 0.950 . S
C1017 C1015 1.390 . S
C1017 C1018 1.387 . S
C1017 H1020 0.950 . S
C1018 C1017 1.387 . S
C1018 C1021 1.387 . S
H1019 C1015 0.950 . S
H1020 C1017 0.950 . S
C1021 C1012 1.390 . S
C1021 H1014 0.950 . S
C1021 C1018 1.387 . S
C1022 C1023 1.387 . S
C1022 H1026 0.950 . S
C1022 C1031 1.390 . S
C1023 C1022 1.387 . S
C1023 C1025 1.387 . S
H1024 C1031 0.950 . S
C1025 C1023 1.387 . S
C1025 C1027 1.390 . S
C1025 H1029 0.950 . S
H1026 C1022 0.950 . S
C1027 C1025 1.390 . S
C1027 C1028 1.387 . S
C1027 H1030 0.950 . S
C1028 C1027 1.387 . S
C1028 C1031 1.387 . S
H1029 C1025 0.950 . S
H1030 C1027 0.950 . S
C1031 C1022 1.390 . S
C1031 H1024 0.950 . S
C1031 C1028 1.387 . S
C1032 C1033 1.387 . S
C1032 H1036 0.950 . S
C1032 C1041 1.390 . S
C1033 C1032 1.387 . S
C1033 C1035 1.387 . S
H1034 C1041 0.950 . S
C1035 C1033 1.387 . S
C1035 C1037 1.390 . S
C1035 H1039 0.950 . S
H1036 C1032 0.950 . S
C1037 C1035 1.390 . S
C1037 C1038 1.387 . S
C1037 H1040 0.950 . S
C1038 C1037 1.387 . S
C1038 C1041 1.387 . S
H1039 C1035 0.950 . S
H1040 C1037 0.950 . S
C1041 C1032 1.390 . S
C1041 H1034 0.950 . S
C1041 C1038 1.387 . S
C1042 C1043 1.387 . S
C1042 H1046 0.950 . S
C1042 C1051 1.390 . S
C1043 C1042 1.387 . S
C1043 C1045 1.387 . S
H1044 C1051 0.950 . S
C1045 C1043 1.387 . S
C1045 C1047 1.390 . S
C1045 H1049 0.950 . S
H1046 C1042 0.950 . S
C1047 C1045 1.390 . S
C1047 C1048 1.387 . S
C1047 H1050 0.950 . S
C1048 C1047 1.387 . S
C1048 C1051 1.387 . S
H1049 C1045 0.950 . S
H1050 C1047 0.950 . S
C1051 C1042 1.390 . S
C1051 H1044 0.950 . S
C1051 C1048 1.387 . S
C1052 C1053 1.387 . S
C1052 H1056 0.950 . S
C1052 C1061 1.390 . S
C1053 C1052 1.387 . S
C1053 C1055 1.387 . S
H1054 C1061 0.950 . S
C1055 C1053 1.387 . S
C1055 C1057 1.390 . S
C1055 H1059 0.950 . S
H1056 C1052 0.950 . S
C1057 C1055 1.390 . S
C1057 C1058 1.387 . S
C1057 H1060 0.950 . S
C1058 C1057 1.387 . S
C1058 C1061 1.387 . S
H1059 C1055 0.950 . S
H1060 C1057 0.950 . S
C1061 C1052 1.390 . S
C1061 H1054 0.950 . S
C1061 C1058 1.387 . S
C1062 C1063 1.387 . S
C1062 H1066 0.950 . S
C1062 C1071 1.390 . S
C1063 C1062 1.387 . S
C1063 C1065 1.387 . S
H1064 C1071 0.950 . S
C1065 C1063 1.387 . S
C1065 C1067 1.390 . S
C1065 H1069 0.950 . S
H1066 C1062 0.950 . S
C1067 C1065 1.390 . S
C1067 C1068 1.387 . S
C1067 H1070 0.950 . S
C1068 C1067 1.387 . S
C1068 C1071 1.387 . S
H1069 C1065 0.950 . S
H1070 C1067 0.950 . S
C1071 C1062 1.390 . S
C1071 H1064 0.950 . S
C1071 C1068 1.387 . S
C1072 C1073 1.387 . S
C1072 H1076 0.950 . S
C1072 C1081 1.390 . S
C1073 C1072 1.387 . S
C1073 C1075 1.387 . S
H1074 C1081 0.950 . S
C1075 C1073 1.387 . S
C1075 C1077 1.390 . S
C1075 H1079 0.950 . S
H1076 C1072 0.950 . S
C1077 C1075 1.390 . S
C1077 C1078 1.387 . S
C1077 H1080 0.950 . S
C1078 C1077 1.387 . S
C1078 C1081 1.387 . S
H1079 C1075 0.950 . S
H1080 C1077 0.950 . S
C1081 C1072 1.390 . S
C1081 H1074 0.950 . S
C1081 C1078 1.387 . S
C1082 C1083 1.387 . S
C1082 H1086 0.950 . S
C1082 C1091 1.390 . S
C1083 C1082 1.387 . S
C1083 C1085 1.387 . S
H1084 C1091 0.950 . S
C1085 C1083 1.387 . S
C1085 C1087 1.390 . S
C1085 H1089 0.950 . S
H1086 C1082 0.950 . S
C1087 C1085 1.390 . S
C1087 C1088 1.387 . S
C1087 H1090 0.950 . S
C1088 C1087 1.387 . S
C1088 C1091 1.387 . S
H1089 C1085 0.950 . S
H1090 C1087 0.950 . S
C1091 C1082 1.390 . S
C1091 H1084 0.950 . S
C1091 C1088 1.387 . S
C1092 C1093 1.387 . S
C1092 H1096 0.950 . S
C1092 C1101 1.390 . S
C1093 C1092 1.387 . S
C1093 C1095 1.387 . S
H1094 C1101 0.950 . S
C1095 C1093 1.387 . S
C1095 C1097 1.390 . S
C1095 H1099 0.950 . S
H1096 C1092 0.950 . S
C1097 C1095 1.390 . S
C1097 C1098 1.387 . S
C1097 H1100 0.950 . S
C1098 C1097 1.387 . S
C1098 C1101 1.387 . S
H1099 C1095 0.950 . S
H1100 C1097 0.950 . S
C1101 C1092 1.390 . S
C1101 H1094 0.950 . S
C1101 C1098 1.387 . S
C1102 C1103 1.387 . S
C1102 H1106 0.950 . S
C1102 C1111 1.390 . S
C1103 C1102 1.387 . S
C1103 C1105 1.387 . S
H1104 C1111 0.950 . S
C1105 C1103 1.387 . S
C1105 C1107 1.390 . S
C1105 H1109 0.950 . S
H1106 C1102 0.950 . S
C1107 C1105 1.390 . S
C1107 C1108 1.387 . S
C1107 H1110 0.950 . S
C1108 C1107 1.387 . S
C1108 C1111 1.387 . S
H1109 C1105 0.950 . S
H1110 C1107 0.950 . S
C1111 C1102 1.390 . S
C1111 H1104 0.950 . S
C1111 C1108 1.387 . S
C1112 C1113 1.387 . S
C1112 H1116 0.950 . S
C1112 C1121 1.390 . S
C1113 C1112 1.387 . S
C1113 C1115 1.387 . S
H1114 C1121 0.950 . S
C1115 C1113 1.387 . S
C1115 C1117 1.390 . S
C1115 H1119 0.950 . S
H1116 C1112 0.950 . S
C1117 C1115 1.390 . S
C1117 C1118 1.387 . S
C1117 H1120 0.950 . S
C1118 C1117 1.387 . S
C1118 C1121 1.387 . S
H1119 C1115 0.950 . S
H1120 C1117 0.950 . S
C1121 C1112 1.390 . S
C1121 H1114 0.950 . S
C1121 C1118 1.387 . S
C1122 C1123 1.387 . S
C1122 H1126 0.950 . S
C1122 C1131 1.390 . S
C1123 C1122 1.387 . S
C1123 C1125 1.387 . S
H1124 C1131 0.950 . S
C1125 C1123 1.387 . S
C1125 C1127 1.390 . S
C1125 H1129 0.950 . S
H1126 C1122 0.950 . S
C1127 C1125 1.390 . S
C1127 C1128 1.387 . S
C1127 H1130 0.950 . S
C1128 C1127 1.387 . S
C1128 C1131 1.387 . S
H1129 C1125 0.950 . S
H1130 C1127 0.950 . S
C1131 C1122 1.390 . S
C1131 H1124 0.950 . S
C1131 C1128 1.387 . S
C1132 C1133 1.387 . S
C1132 H1136 0.950 . S
C1132 C1141 1.390 . S
C1133 C1132 1.387 . S
C1133 C1135 1.387 . S
H1134 C1141 0.950 . S
C1135 C1133 1.387 . S
C1135 C1137 1.390 . S
C1135 H1139 0.950 . S
H1136 C1132 0.950 . S
C1137 C1135 1.390 . S
C1137 C1138 1.387 . S
C1137 H1140 0.950 . S
C1138 C1137 1.387 . S
C1138 C1141 1.387 . S
H1139 C1135 0.950 . S
H1140 C1137 0.950 . S
C1141 C1132 1.390 . S
C1141 H1134 0.950 . S
C1141 C1138 1.387 . S
C1142 C1143 1.387 . S
C1142 H1146 0.950 . S
C1142 C1151 1.390 . S
C1143 C1142 1.387 . S
C1143 C1145 1.387 . S
H1144 C1151 0.950 . S
C1145 C1143 1.387 . S
C1145 C1147 1.390 . S
C1145 H1149 0.950 . S
H1146 C1142 0.950 . S
C1147 C1145 1.390 . S
C1147 C1148 1.387 . S
C1147 H1150 0.950 . S
C1148 C1147 1.387 . S
C1148 C1151 1.387 . S
H1149 C1145 0.950 . S
H1150 C1147 0.950 . S
C1151 C1142 1.390 . S
C1151 H1144 0.950 . S
C1151 C1148 1.387 . S
C1152 C1153 1.387 . S
C1152 H1156 0.950 . S
C1152 C1161 1.390 . S
C1153 C1152 1.387 . S
C1153 C1155 1.387 . S
H1154 C1161 0.950 . S
C1155 C1153 1.387 . S
C1155 C1157 1.390 . S
C1155 H1159 0.950 . S
H1156 C1152 0.950 . S
C1157 C1155 1.390 . S
C1157 C1158 1.387 . S
C1157 H1160 0.950 . S
C1158 C1157 1.387 . S
C1158 C1161 1.387 . S
H1159 C1155 0.950 . S
H1160 C1157 0.950 . S
C1161 C1152 1.390 . S
C1161 H1154 0.950 . S
C1161 C1158 1.387 . S
C1162 C1163 1.387 . S
C1162 H1166 0.950 . S
C1162 C1171 1.390 . S
C1163 C1162 1.387 . S
C1163 C1165 1.387 . S
H1164 C1171 0.950 . S
C1165 C1163 1.387 . S
C1165 C1167 1.390 . S
C1165 H1169 0.950 . S
H1166 C1162 0.950 . S
C1167 C1165 1.390 . S
C1167 C1168 1.387 . S
C1167 H1170 0.950 . S
C1168 C1167 1.387 . S
C1168 C1171 1.387 . S
H1169 C1165 0.950 . S
H1170 C1167 0.950 . S
C1171 C1162 1.390 . S
C1171 H1164 0.950 . S
C1171 C1168 1.387 . S
C1172 C1173 1.387 . S
C1172 H1176 0.950 . S
C1172 C1181 1.390 . S
C1173 C1172 1.387 . S
C1173 C1175 1.387 . S
H1174 C1181 0.950 . S
C1175 C1173 1.387 . S
C1175 C1177 1.390 . S
C1175 H1179 0.950 . S
H1176 C1172 0.950 . S
C1177 C1175 1.390 . S
C1177 C1178 1.387 . S
C1177 H1180 0.950 . S
C1178 C1177 1.387 . S
C1178 C1181 1.387 . S
H1179 C1175 0.950 . S
H1180 C1177 0.950 . S
C1181 C1172 1.390 . S
C1181 H1174 0.950 . S
C1181 C1178 1.387 . S
C1182 C1183 1.387 . S
C1182 H1186 0.950 . S
C1182 C1191 1.390 . S
C1183 C1182 1.387 . S
C1183 C1185 1.387 . S
H1184 C1191 0.950 . S
C1185 C1183 1.387 . S
C1185 C1187 1.390 . S
C1185 H1189 0.950 . S
H1186 C1182 0.950 . S
C1187 C1185 1.390 . S
C1187 C1188 1.387 . S
C1187 H1190 0.950 . S
C1188 C1187 1.387 . S
C1188 C1191 1.387 . S
H1189 C1185 0.950 . S
H1190 C1187 0.950 . S
C1191 C1182 1.390 . S
C1191 H1184 0.950 . S
C1191 C1188 1.387 . S
C1192 C1193 1.387 . S
C1192 H1196 0.950 . S
C1192 C1201 1.390 . S
C1193 C1192 1.387 . S
C1193 C1195 1.387 . S
H1194 C1201 0.950 . S
C1195 C1193 1.387 . S
C1195 C1197 1.390 . S
C1195 H1199 0.950 . S
H1196 C1192 0.950 . S
C1197 C1195 1.390 . S
C1197 C1198 1.387 . S
C1197 H1200 0.950 . S
C1198 C1197 1.387 . S
C1198 C1201 1.387 . S
H1199 C1195 0.950 . S
H1200 C1197 0.950 . S
C1201 C1192 1.390 . S
C1201 H1194 0.950 . S
C1201 C1198 1.387 . S
C1202 C1203 1.387 . S
C1202 H1206 0.950 . S
C1202 C1211 1.390 . S
C1203 C1202 1.387 . S
C1203 C1205 1.387 . S
H1204 C1211 0.950 . S
C1205 C1203 1.387 . S
C1205 C1207 1.390 . S
C1205 H1209 0.950 . S
H1206 C1202 0.950 . S
C1207 C1205 1.390 . S
C1207 C1208 1.387 . S
C1207 H1210 0.950 . S
C1208 C1207 1.387 . S
C1208 C1211 1.387 . S
H1209 C1205 0.950 . S
H1210 C1207 0.950 . S
C1211 C1202 1.390 . S
C1211 H1204 0.950 . S
C1211 C1208 1.387 . S
C1212 C1213 1.387 . S
C1212 H1216 0.950 . S
C1212 C1221 1.390 . S
C1213 C1212 1.387 . S
C1213 C1215 1.387 . S
H1214 C1221 0.950 . S
C1215 C1213 1.387 . S
C1215 C1217 1.390 . S
C1215 H1219 0.950 . S
H1216 C1212 0.950 . S
C1217 C1215 1.390 . S
C1217 C1218 1.387 . S
C1217 H1220 0.950 . S
C1218 C1217 1.387 . S
C1218 C1221 1.387 . S
H1219 C1215 0.950 . S
H1220 C1217 0.950 . S
C1221 C1212 1.390 . S
C1221 H1214 0.950 . S
C1221 C1218 1.387 . S
C1222 C1223 1.387 . S
C1222 H1226 0.950 . S
C1222 C1231 1.390 . S
C1223 C1222 1.387 . S
C1223 C1225 1.387 . S
H1224 C1231 0.950 . S
C1225 C1223 1.387 . S
C1225 C1227 1.390 . S
C1225 H1229 0.950 . S
H1226 C1222 0.950 . S
C1227 C1225 1.390 . S
C1227 C1228 1.387 . S
C1227 H1230 0.950 . S
C1228 C1227 1.387 . S
C1228 C1231 1.387 . S
H1229 C1225 0.950 . S
H1230 C1227 0.950 . S
C1231 C1222 1.390 . S
C1231 H1224 0.950 . S
C1231 C1228 1.387 . S
C1232 C1233 1.387 . S
C1232 H1236 0.950 . S
C1232 C1241 1.390 . S
C1233 C1232 1.387 . S
C1233 C1235 1.387 . S
H1234 C1241 0.950 . S
C1235 C1233 1.387 . S
C1235 C1237 1.390 . S
C1235 H1239 0.950 . S
H1236 C1232 0.950 . S
C1237 C1235 1.390 . S
C1237 C1238 1.387 . S
C1237 H1240 0.950 . S
C1238 C1237 1.387 . S
C1238 C1241 1.387 . S
H1239 C1235 0.950 . S
H1240 C1237 0.950 . S
C1241 C1232 1.390 . S
C1241 H1234 0.950 . S
C1241 C1238 1.387 . S
C1003 C39 1.967 . S
C1008 C347 1.813 . S
C1013 C91 1.937 . S
C1018 C487 1.760 . S
C1028 C575 1.620 . S
C1023 C128 1.752 . S
C1038 C715 1.648 . S
C1033 C188 1.772 . S
C1048 C829 1.693 . S
C1043 C250 1.860 . S
C1058 C899 1.004 . S
C1053 C304 1.957 . S
C1063 C75 1.822 . S
C1068 C557 0.999 . S
C1073 C144 1.856 . S
C1078 C661 1.379 . S
C1088 C775 1.325 . S
C1083 C198 1.815 . S
C1098 C917 1.588 . S
C1093 C234 1.718 . S
C1103 C294 1.816 . S
C1108 C329 0.831 . S
C1118 C433 1.156 . S
C1113 C29 1.598 . S
C1128 C671 1.726 . S
C1123 C38 2.063 . S
C1133 C92 2.042 . S
C1138 C785 1.647 . S
C1148 C943 1.238 . S
C1143 C135 2.017 . S
C1153 C181 1.753 . S
C1158 C319 1.553 . S
C1163 C251 2.130 . S
C1168 C443 1.638 . S
C1173 C303 1.984 . S
C1178 C547 1.854 . S
C1183 C82 1.915 . S
C1188 C889 1.785 . S
C1198 C373 1.224 . S
C1193 C145 2.061 . S
C1203 C197 1.987 . S
C1208 C461 1.296 . S
C1213 C241 1.910 . S
C1218 C601 1.078 . S
C1223 C287 1.758 . S
C1228 C689 1.213 . S
C1233 C22 1.837 . S
C1238 C803 1.281 . S
