# Generated by pormake.
# Topology eea, (3,6)-cn, num edge types: 1
# Building blocks:
#     Node 0, Type 0, BuildingBlock: BETDAH_clean_linker_0, # of connection points: 3
#     Node 1, Type 0, BuildingBlock: BETDAH_clean_linker_0, # of connection points: 3
#     Node 2, Type 0, BuildingBlock: BETDAH_clean_linker_0, # of connection points: 3
#     Node 3, Type 0, BuildingBlock: BETDAH_clean_linker_0, # of connection points: 3
#     Node 4, Type 0, BuildingBlock: BETDAH_clean_linker_0, # of connection points: 3
#     Node 5, Type 0, BuildingBlock: BETDAH_clean_linker_0, # of connection points: 3
#     Node 6, Type 0, BuildingBlock: BETDAH_clean_linker_0, # of connection points: 3
#     Node 7, Type 0, BuildingBlock: BETDAH_clean_linker_0, # of connection points: 3
#     Node 8, Type 0, BuildingBlock: BETDAH_clean_linker_0, # of connection points: 3
#     Node 9, Type 0, BuildingBlock: BETDAH_clean_linker_0, # of connection points: 3
#     Node 10, Type 0, BuildingBlock: BETDAH_clean_linker_0, # of connection points: 3
#     Node 11, Type 0, BuildingBlock: BETDAH_clean_linker_0, # of connection points: 3
#     Node 12, Type 0, BuildingBlock: BETDAH_clean_linker_0, # of connection points: 3
#     Node 13, Type 0, BuildingBlock: BETDAH_clean_linker_0, # of connection points: 3
#     Node 14, Type 0, BuildingBlock: BETDAH_clean_linker_0, # of connection points: 3
#     Node 15, Type 0, BuildingBlock: BETDAH_clean_linker_0, # of connection points: 3
#     Node 16, Type 0, BuildingBlock: BETDAH_clean_linker_0, # of connection points: 3
#     Node 17, Type 0, BuildingBlock: BETDAH_clean_linker_0, # of connection points: 3
#     Node 18, Type 1, BuildingBlock: CUWYAW_clean_sbu_0, # of connection points: 6
#     Node 19, Type 1, BuildingBlock: CUWYAW_clean_sbu_0, # of connection points: 6
#     Node 20, Type 1, BuildingBlock: CUWYAW_clean_sbu_0, # of connection points: 6
#     Node 21, Type 1, BuildingBlock: CUWYAW_clean_sbu_0, # of connection points: 6
#     Node 22, Type 1, BuildingBlock: CUWYAW_clean_sbu_0, # of connection points: 6
#     Node 23, Type 1, BuildingBlock: CUWYAW_clean_sbu_0, # of connection points: 6
#     Node 24, Type 1, BuildingBlock: CUWYAW_clean_sbu_0, # of connection points: 6
#     Node 25, Type 1, BuildingBlock: CUWYAW_clean_sbu_0, # of connection points: 6
#     Node 26, Type 1, BuildingBlock: CUWYAW_clean_sbu_0, # of connection points: 6
#     Edge 27, Type (0, 1), BuildingBlock: CIFDUS_clean_linker_0, # of connection points: 2
#     Edge 28, Type (0, 1), BuildingBlock: CIFDUS_clean_linker_0, # of connection points: 2
#     Edge 29, Type (0, 1), BuildingBlock: CIFDUS_clean_linker_0, # of connection points: 2
#     Edge 30, Type (0, 1), BuildingBlock: CIFDUS_clean_linker_0, # of connection points: 2
#     Edge 31, Type (0, 1), BuildingBlock: CIFDUS_clean_linker_0, # of connection points: 2
#     Edge 32, Type (0, 1), BuildingBlock: CIFDUS_clean_linker_0, # of connection points: 2
#     Edge 33, Type (0, 1), BuildingBlock: CIFDUS_clean_linker_0, # of connection points: 2
#     Edge 34, Type (0, 1), BuildingBlock: CIFDUS_clean_linker_0, # of connection points: 2
#     Edge 35, Type (0, 1), BuildingBlock: CIFDUS_clean_linker_0, # of connection points: 2
#     Edge 36, Type (0, 1), BuildingBlock: CIFDUS_clean_linker_0, # of connection points: 2
#     Edge 37, Type (0, 1), BuildingBlock: CIFDUS_clean_linker_0, # of connection points: 2
#     Edge 38, Type (0, 1), BuildingBlock: CIFDUS_clean_linker_0, # of connection points: 2
#     Edge 39, Type (0, 1), BuildingBlock: CIFDUS_clean_linker_0, # of connection points: 2
#     Edge 40, Type (0, 1), BuildingBlock: CIFDUS_clean_linker_0, # of connection points: 2
#     Edge 41, Type (0, 1), BuildingBlock: CIFDUS_clean_linker_0, # of connection points: 2
#     Edge 42, Type (0, 1), BuildingBlock: CIFDUS_clean_linker_0, # of connection points: 2
#     Edge 43, Type (0, 1), BuildingBlock: CIFDUS_clean_linker_0, # of connection points: 2
#     Edge 44, Type (0, 1), BuildingBlock: CIFDUS_clean_linker_0, # of connection points: 2
#     Edge 45, Type (0, 1), BuildingBlock: CIFDUS_clean_linker_0, # of connection points: 2
#     Edge 46, Type (0, 1), BuildingBlock: CIFDUS_clean_linker_0, # of connection points: 2
#     Edge 47, Type (0, 1), BuildingBlock: CIFDUS_clean_linker_0, # of connection points: 2
#     Edge 48, Type (0, 1), BuildingBlock: CIFDUS_clean_linker_0, # of connection points: 2
#     Edge 49, Type (0, 1), BuildingBlock: CIFDUS_clean_linker_0, # of connection points: 2
#     Edge 50, Type (0, 1), BuildingBlock: CIFDUS_clean_linker_0, # of connection points: 2
#     Edge 51, Type (0, 1), BuildingBlock: CIFDUS_clean_linker_0, # of connection points: 2
#     Edge 52, Type (0, 1), BuildingBlock: CIFDUS_clean_linker_0, # of connection points: 2
#     Edge 53, Type (0, 1), BuildingBlock: CIFDUS_clean_linker_0, # of connection points: 2
#     Edge 54, Type (0, 1), BuildingBlock: CIFDUS_clean_linker_0, # of connection points: 2
#     Edge 55, Type (0, 1), BuildingBlock: CIFDUS_clean_linker_0, # of connection points: 2
#     Edge 56, Type (0, 1), BuildingBlock: CIFDUS_clean_linker_0, # of connection points: 2
#     Edge 57, Type (0, 1), BuildingBlock: CIFDUS_clean_linker_0, # of connection points: 2
#     Edge 58, Type (0, 1), BuildingBlock: CIFDUS_clean_linker_0, # of connection points: 2
#     Edge 59, Type (0, 1), BuildingBlock: CIFDUS_clean_linker_0, # of connection points: 2
#     Edge 60, Type (0, 1), BuildingBlock: CIFDUS_clean_linker_0, # of connection points: 2
#     Edge 61, Type (0, 1), BuildingBlock: CIFDUS_clean_linker_0, # of connection points: 2
#     Edge 62, Type (0, 1), BuildingBlock: CIFDUS_clean_linker_0, # of connection points: 2
#     Edge 63, Type (0, 1), BuildingBlock: CIFDUS_clean_linker_0, # of connection points: 2
#     Edge 64, Type (0, 1), BuildingBlock: CIFDUS_clean_linker_0, # of connection points: 2
#     Edge 65, Type (0, 1), BuildingBlock: CIFDUS_clean_linker_0, # of connection points: 2
#     Edge 66, Type (0, 1), BuildingBlock: CIFDUS_clean_linker_0, # of connection points: 2
#     Edge 67, Type (0, 1), BuildingBlock: CIFDUS_clean_linker_0, # of connection points: 2
#     Edge 68, Type (0, 1), BuildingBlock: CIFDUS_clean_linker_0, # of connection points: 2
#     Edge 69, Type (0, 1), BuildingBlock: CIFDUS_clean_linker_0, # of connection points: 2
#     Edge 70, Type (0, 1), BuildingBlock: CIFDUS_clean_linker_0, # of connection points: 2
#     Edge 71, Type (0, 1), BuildingBlock: CIFDUS_clean_linker_0, # of connection points: 2
#     Edge 72, Type (0, 1), BuildingBlock: CIFDUS_clean_linker_0, # of connection points: 2
#     Edge 73, Type (0, 1), BuildingBlock: CIFDUS_clean_linker_0, # of connection points: 2
#     Edge 74, Type (0, 1), BuildingBlock: CIFDUS_clean_linker_0, # of connection points: 2
#     Edge 75, Type (0, 1), BuildingBlock: CIFDUS_clean_linker_0, # of connection points: 2
#     Edge 76, Type (0, 1), BuildingBlock: CIFDUS_clean_linker_0, # of connection points: 2
#     Edge 77, Type (0, 1), BuildingBlock: CIFDUS_clean_linker_0, # of connection points: 2
#     Edge 78, Type (0, 1), BuildingBlock: CIFDUS_clean_linker_0, # of connection points: 2
#     Edge 79, Type (0, 1), BuildingBlock: CIFDUS_clean_linker_0, # of connection points: 2
#     Edge 80, Type (0, 1), BuildingBlock: CIFDUS_clean_linker_0, # of connection points: 2
# Relax obj value: 0.057
# Max RMSD: 0.213
# Mean RMSD: 0.150
data_MOF--net-eea--node1-CUWYAW_clean_sbu_0--node2-BETDAH_clean_linker_0--edge1-CIFDUS_clean_linker_0
_symmetry_space_group_name_H-M    P1
_symmetry_Int_Tables_number       1
_symmetry_cell_setting            triclinic
loop_
_symmetry_equiv_pos_as_xyz
'x, y, z'
_cell_length_a     47.659809
_cell_length_b     47.293037
_cell_length_c     62.794634
_cell_angle_alpha  93.317509
_cell_angle_beta   93.317894
_cell_angle_gamma 119.84499
loop_
_atom_site_label
_atom_site_type_symbol
_atom_site_fract_x
_atom_site_fract_y
_atom_site_fract_z
_atom_type_partial_charge
H0 H 0.256 0.06868 0.42161 0.0
H1 H 0.27235 0.16709 0.42471 0.0
H2 H 0.25393 0.11249 0.36371 0.0
C3 C 0.257 0.08883 0.41365 0.0
C4 C 0.25304 0.08628 0.39108 0.0
C5 C 0.26387 0.11776 0.42606 0.0
C6 C 0.26667 0.14444 0.41555 0.0
C7 C 0.26332 0.14238 0.39308 0.0
C8 C 0.25665 0.11354 0.38103 0.0
N9 N 0.27006 0.17017 0.38224 0.0
C10 C 0.2516 0.18541 0.383 0.0
H11 H 0.96408 0.18967 0.43119 0.0
H12 H 0.86418 0.11359 0.41649 0.0
H13 H 0.92342 0.15395 0.36549 0.0
C14 C 0.944 0.17346 0.41944 0.0
C15 C 0.94844 0.17409 0.39739 0.0
C16 C 0.91343 0.15244 0.42647 0.0
C17 C 0.88761 0.13039 0.4113 0.0
C18 C 0.89155 0.1308 0.38936 0.0
C19 C 0.92146 0.15319 0.38256 0.0
N20 N 0.86551 0.11 0.37362 0.0
C21 C 0.84096 0.07863 0.37663 0.0
H22 H 0.83121 0.7622 0.44034 0.0
H23 H 0.90184 0.73096 0.445 0.0
H24 H 0.88087 0.76006 0.38549 0.0
C25 C 0.84933 0.75829 0.43322 0.0
C26 C 0.85406 0.76302 0.41144 0.0
C27 C 0.86655 0.74699 0.44565 0.0
C28 C 0.88842 0.73993 0.43585 0.0
C29 C 0.89393 0.745 0.41437 0.0
C30 C 0.87692 0.75673 0.4022 0.0
N31 N 0.91467 0.73542 0.40504 0.0
C32 C 0.93891 0.75441 0.39233 0.0
H33 H 0.08746 0.26232 0.58292 0.0
H34 H 0.17174 0.25496 0.60197 0.0
H35 H 0.09929 0.23352 0.64519 0.0
C36 C 0.10108 0.25689 0.59472 0.0
C37 C 0.08853 0.24648 0.61443 0.0
C38 C 0.13148 0.26085 0.59019 0.0
C39 C 0.14886 0.25298 0.6054 0.0
C40 C 0.13669 0.24259 0.62505 0.0
C41 C 0.10723 0.24015 0.62952 0.0
N42 N 0.15311 0.23445 0.64101 0.0
C43 C 0.18246 0.23504 0.63982 0.0
H44 H 0.77254 0.82474 0.59872 0.0
H45 H 0.76035 0.90885 0.60867 0.0
H46 H 0.77783 0.86624 0.66268 0.0
C47 C 0.77118 0.84275 0.60942 0.0
C48 C 0.77622 0.84281 0.63171 0.0
C49 C 0.76577 0.86677 0.60093 0.0
C50 C 0.76508 0.89065 0.61502 0.0
C51 C 0.76915 0.89024 0.6373 0.0
C52 C 0.77455 0.8663 0.64545 0.0
N53 N 0.76737 0.91309 0.652 0.0
C54 C 0.77354 0.94397 0.64743 0.0
H55 H 0.1846 0.95099 0.58029 0.0
H56 H 0.11188 0.8495 0.58159 0.0
H57 H 0.13777 0.91682 0.63762 0.0
C58 C 0.1665 0.93155 0.58853 0.0
C59 C 0.16277 0.93818 0.61002 0.0
C60 C 0.14814 0.89964 0.57801 0.0
C61 C 0.12551 0.87442 0.58916 0.0
C62 C 0.1213 0.8807 0.61045 0.0
C63 C 0.13984 0.91254 0.62078 0.0
N64 N 0.10393 0.85406 0.62262 0.0
C65 C 0.07134 0.84122 0.62583 0.0
H66 H 0.88903 0.3892 0.76096 0.0
H67 H 0.91577 0.49117 0.76418 0.0
H68 H 0.88952 0.43396 0.70328 0.0
C69 C 0.89227 0.41039 0.75323 0.0
C70 C 0.8869 0.40771 0.73079 0.0
C71 C 0.90252 0.44033 0.76563 0.0
C72 C 0.90737 0.46773 0.75509 0.0
C73 C 0.90258 0.46532 0.73264 0.0
C74 C 0.89234 0.43539 0.72064 0.0
N75 N 0.91227 0.49368 0.7218 0.0
C76 C 0.89555 0.51077 0.72148 0.0
H77 H 0.60843 0.53798 0.76575 0.0
H78 H 0.5288 0.43887 0.75019 0.0
H79 H 0.59742 0.48528 0.7047 0.0
C80 C 0.59555 0.51582 0.75482 0.0
C81 C 0.60652 0.515 0.73452 0.0
C82 C 0.567 0.48861 0.7605 0.0
C83 C 0.5504 0.46009 0.74593 0.0
C84 C 0.56145 0.45904 0.72582 0.0
C85 C 0.58913 0.48648 0.72027 0.0
N86 N 0.54524 0.43123 0.71042 0.0
C87 C 0.51993 0.40051 0.71384 0.0
H88 H 0.50675 0.1002 0.7741 0.0
H89 H 0.57814 0.07056 0.78165 0.0
H90 H 0.56453 0.10517 0.72246 0.0
C91 C 0.52549 0.0967 0.76761 0.0
C92 C 0.53281 0.10354 0.74642 0.0
C93 C 0.54135 0.08452 0.78043 0.0
C94 C 0.56634 0.08098 0.7723 0.0
C95 C 0.57556 0.08955 0.75179 0.0
C96 C 0.55875 0.10075 0.7388 0.0
N97 N 0.59835 0.0819 0.74358 0.0
C98 C 0.62601 0.10379 0.73445 0.0
H99 H 0.73735 0.60243 0.92456 0.0
H100 H 0.83144 0.61087 0.93518 0.0
H101 H 0.76988 0.58754 0.98612 0.0
C102 C 0.75524 0.60056 0.93489 0.0
C103 C 0.74933 0.59333 0.95615 0.0
C104 C 0.78472 0.60687 0.92708 0.0
C105 C 0.80811 0.60485 0.94062 0.0
C106 C 0.80263 0.59797 0.96189 0.0
C107 C 0.77347 0.59239 0.96955 0.0
N108 N 0.82813 0.6019 0.97669 0.0
C109 C 0.84067 0.58095 0.97636 0.0
H110 H 0.45489 0.17069 0.92527 0.0
H111 H 0.44115 0.25395 0.93648 0.0
H112 H 0.47838 0.2228 0.98807 0.0
C113 C 0.4567 0.19062 0.9358 0.0
C114 C 0.4691 0.19505 0.9574 0.0
C115 C 0.44627 0.21167 0.92796 0.0
C116 C 0.44888 0.23744 0.94209 0.0
C117 C 0.46027 0.24118 0.96375 0.0
C118 C 0.47004 0.21992 0.97122 0.0
N119 N 0.45975 0.2643 0.97888 0.0
C120 C 0.46982 0.29663 0.97553 0.0
H121 H 0.83546 0.28138 0.91733 0.0
H122 H 0.76449 0.17827 0.91071 0.0
H123 H 0.78966 0.23386 0.97212 0.0
C124 C 0.81788 0.25966 0.92414 0.0
C125 C 0.81424 0.2615 0.94615 0.0
C126 C 0.79986 0.22985 0.91105 0.0
C127 C 0.778 0.20168 0.92034 0.0
C128 C 0.77394 0.20319 0.9422 0.0
C129 C 0.79187 0.23313 0.95504 0.0
N130 N 0.75638 0.17367 0.95177 0.0
C131 C 0.72459 0.16137 0.95679 0.0
H132 H 0.58454 0.74306 0.09841 0.0
H133 H 0.5915 0.83735 0.0952 0.0
H134 H 0.5682 0.77283 0.03783 0.0
C135 C 0.5828 0.76098 0.08929 0.0
C136 C 0.57471 0.75395 0.06702 0.0
C137 C 0.58892 0.79101 0.09976 0.0
C138 C 0.58679 0.81412 0.08748 0.0
C139 C 0.57942 0.80747 0.06511 0.0
C140 C 0.57356 0.77758 0.05511 0.0
N141 N 0.57941 0.83074 0.05182 0.0
C142 C 0.57238 0.85516 0.05774 0.0
H143 H 0.27502 0.85809 0.09955 0.0
H144 H 0.17718 0.77627 0.08746 0.0
H145 H 0.23603 0.80976 0.03561 0.0
C146 C 0.25541 0.83939 0.08845 0.0
C147 C 0.26015 0.83628 0.06661 0.0
C148 C 0.22542 0.8181 0.09619 0.0
C149 C 0.20055 0.79262 0.08199 0.0
C150 C 0.20478 0.78961 0.06028 0.0
C151 C 0.23399 0.81181 0.05265 0.0
N152 N 0.17895 0.76618 0.04542 0.0
C153 C 0.1636 0.73269 0.04715 0.0
H154 H 0.17467 0.44764 0.11035 0.0
H155 H 0.2409 0.41094 0.10796 0.0
H156 H 0.20792 0.43354 0.05016 0.0
C157 C 0.18892 0.44028 0.10118 0.0
C158 C 0.18822 0.44175 0.07873 0.0
C159 C 0.20783 0.42926 0.112 0.0
C160 C 0.22707 0.42065 0.10017 0.0
C161 C 0.228 0.42339 0.07813 0.0
C162 C 0.20851 0.43371 0.06743 0.0
N163 N 0.24511 0.41124 0.06657 0.0
C164 C 0.27129 0.43055 0.05528 0.0
H165 H 0.40283 0.92846 0.25261 0.0
H166 H 0.48547 0.91445 0.26168 0.0
H167 H 0.42315 0.89765 0.31177 0.0
C168 C 0.41786 0.92211 0.26251 0.0
C169 C 0.40978 0.91337 0.28325 0.0
C170 C 0.44522 0.92272 0.2545 0.0
C171 C 0.4642 0.91379 0.26746 0.0
C172 C 0.45613 0.90488 0.28816 0.0
C173 C 0.42926 0.90497 0.29587 0.0
N174 N 0.4743 0.89595 0.30208 0.0
C175 C 0.49967 0.89092 0.29721 0.0
H176 H 0.10494 0.47908 0.25813 0.0
H177 H 0.10507 0.5705 0.26515 0.0
H178 H 0.13544 0.53725 0.3191 0.0
C179 C 0.10935 0.50074 0.26799 0.0
C180 C 0.12173 0.50565 0.28956 0.0
C181 C 0.10318 0.52398 0.25898 0.0
C182 C 0.11021 0.5527 0.27174 0.0
C183 C 0.12182 0.55728 0.29346 0.0
C184 C 0.12706 0.53364 0.3022 0.0
N185 N 0.12652 0.58418 0.30748 0.0
C186 C 0.13669 0.61552 0.30175 0.0
H187 H 0.52768 0.63092 0.25863 0.0
H188 H 0.45507 0.52883 0.2461 0.0
H189 H 0.47337 0.57775 0.30935 0.0
C190 C 0.50894 0.60843 0.26401 0.0
C191 C 0.50254 0.60789 0.28565 0.0
C192 C 0.4918 0.5802 0.24941 0.0
C193 C 0.46848 0.55103 0.25694 0.0
C194 C 0.46145 0.55003 0.27832 0.0
C195 C 0.47812 0.57866 0.29266 0.0
N196 N 0.43941 0.5191 0.28502 0.0
C197 C 0.4178 0.51354 0.30036 0.0
C198 C 0.52662 0.04067 0.0842 0.0
Eu199 Eu 0.50947 0.0283 0.04301 0.0
C200 C 0.51355 0.02749 0.10434 0.0
C201 C 0.52192 0.04917 0.12284 0.0
C202 C 0.51071 0.03737 0.14233 0.0
C203 C 0.49094 1.00355 0.14373 0.0
C204 C 0.48239 0.98182 0.12509 0.0
C205 C 0.49349 0.99369 0.10552 0.0
C206 C 0.49549 0.06482 0.01731 0.0
C207 C 0.43231 0.97314 0.03302 0.0
C208 C 0.46606 0.98569 0.95621 0.0
Eu209 Eu 0.48226 0.99756 0.99752 0.0
C210 C 0.47939 1.00063 0.9366 0.0
C211 C 0.46594 0.98215 0.9167 0.0
C212 C 0.47817 0.99572 0.89782 0.0
C213 C 0.50418 0.02811 0.89848 0.0
C214 C 0.51781 0.04653 0.91854 0.0
C215 C 0.50543 0.03292 0.93746 0.0
C216 C 0.49467 0.95982 0.02282 0.0
C217 C 0.55971 0.05259 0.00833 0.0
O218 O 0.53379 0.02274 0.0715 0.0
O219 O 0.51267 0.0543 0.07379 0.0
O220 O 0.52051 0.07725 0.03156 0.0
O221 O 0.47845 0.03437 0.01804 0.0
O222 O 0.45793 0.98913 0.04734 0.0
O223 O 0.43461 0.97464 0.01219 0.0
O224 O 0.45675 1.00163 0.96899 0.0
O225 O 0.48175 0.97374 0.96659 0.0
O226 O 0.47013 0.9485 0.00831 0.0
O227 O 0.51272 0.9904 0.02253 0.0
O228 O 0.53399 0.03859 0.99391 0.0
O229 O 0.55682 0.04854 0.02883 0.0
H230 H 0.53743 0.07531 0.12226 0.0
H231 H 0.51805 0.05473 0.15642 0.0
H232 H 0.46691 0.95568 0.12559 0.0
H233 H 0.48654 0.9765 0.09138 0.0
H234 H 0.44595 0.95714 0.91576 0.0
H235 H 0.46744 0.98069 0.88269 0.0
H236 H 0.53768 0.0716 0.91961 0.0
H237 H 0.51606 0.04761 0.9527 0.0
C238 C 0.98196 0.49975 0.07654 0.0
Eu239 Eu 0.98663 0.48751 0.03631 0.0
C240 C 1.00034 0.50526 0.0975 0.0
C241 C 0.98342 0.49506 0.11563 0.0
C242 C 1.00026 0.50051 0.13579 0.0
C243 C 0.03442 0.5164 0.1382 0.0
C244 C 0.05135 0.52647 0.11994 0.0
C245 C 0.03444 0.52079 0.09973 0.0
C246 C 0.94902 0.43086 0.01111 0.0
C247 C 0.04525 0.47089 0.03163 0.0
C248 C 0.01403 0.47259 0.95212 0.0
Eu249 Eu 0.01027 0.4852 0.99254 0.0
C250 C 0.9997 0.47284 0.93065 0.0
C251 C 0.99981 0.50086 0.92417 0.0
C252 C 0.98773 0.50084 0.90328 0.0
C253 C 0.97508 0.47275 0.88854 0.0
C254 C 0.97431 0.44454 0.89528 0.0
C255 C 0.98658 0.44465 0.91607 0.0
C256 C 0.04649 0.54262 0.01758 0.0
C257 C 0.95337 0.50477 0.99776 0.0
O258 O 0.99542 0.52249 0.06351 0.0
O259 O 0.96813 0.4701 0.06677 0.0
O260 O 0.93762 0.44418 0.02407 0.0
O261 O 0.97976 0.44696 0.0129 0.0
O262 O 0.03045 0.48167 0.04413 0.0
O263 O 0.03927 0.46672 0.01053 0.0
O264 O 0.99481 0.45039 0.96399 0.0
O265 O 0.03348 0.50085 0.96318 0.0
O266 O 0.05874 0.52986 1.00489 0.0
O267 O 0.01592 0.52542 0.01552 0.0
O268 O 0.96873 0.49527 0.98475 0.0
O269 O 0.95835 0.50659 0.0188 0.0
H270 H 0.95712 0.48306 0.11422 0.0
H271 H 0.98656 0.49278 0.14957 0.0
H272 H 0.07763 0.53845 0.12127 0.0
H273 H 0.04798 0.52864 0.08588 0.0
H274 H 0.00954 0.5229 0.93512 0.0
H275 H 0.98835 0.52283 0.89865 0.0
H276 H 0.96509 0.42264 0.88426 0.0
H277 H 0.9863 0.42279 0.92068 0.0
C278 C 0.47308 0.50213 0.93749 0.0
Eu279 Eu 0.49284 0.5226 0.97798 0.0
C280 C 0.48812 0.50176 0.91756 0.0
C281 C 0.4775 0.50953 0.89866 0.0
C282 C 0.49166 0.50993 0.87967 0.0
C283 C 0.51685 0.50256 0.87913 0.0
C284 C 0.52754 0.49488 0.89817 0.0
C285 C 0.51329 0.49443 0.91717 0.0
C286 C 0.51032 0.58266 0.99683 0.0
C287 C 0.5714 0.55007 0.98493 0.0
C288 C 0.55114 0.56173 0.06285 0.0
Eu289 Eu 0.5279 0.53893 0.02302 0.0
C290 C 0.54068 0.56027 0.08458 0.0
C291 C 0.51398 0.53203 0.09063 0.0
C292 C 0.50559 0.531 0.11171 0.0
C293 C 0.52361 0.55827 0.12702 0.0
C294 C 0.54988 0.58671 0.12068 0.0
C295 C 0.55832 0.58764 0.09968 0.0
C296 C 0.50923 0.47835 1.00415 0.0
C297 C 0.44862 0.5094 0.01655 0.0
O298 O 0.47326 0.48325 0.95189 0.0
O299 O 0.47964 0.53091 0.94601 0.0
O300 O 0.48355 0.56446 0.98449 0.0
O301 O 0.52754 0.56925 0.99777 0.0
O302 O 0.54362 0.53217 0.97269 0.0
O303 O 0.57207 0.56068 1.00495 0.0
O304 O 0.54226 0.57681 0.0496 0.0
O305 O 0.54922 0.53522 0.05363 0.0
O306 O 0.53617 0.49608 0.01642 0.0
O307 O 0.49276 0.49246 1.00347 0.0
O308 O 0.47632 0.52554 0.02916 0.0
O309 O 0.44799 0.50172 0.99583 0.0
H310 H 0.45828 0.51547 0.8986 0.0
H311 H 0.48312 0.51646 0.86546 0.0
H312 H 0.54662 0.48875 0.89835 0.0
H313 H 0.52195 0.48832 0.93153 0.0
H314 H 0.49982 0.51072 0.07914 0.0
H315 H 0.48498 0.50888 0.11602 0.0
H316 H 0.56446 0.60799 0.1321 0.0
H317 H 0.57898 0.60967 0.09529 0.0
C318 C 0.22133 0.37252 0.41872 0.0
Eu319 Eu 0.20155 0.36914 0.37856 0.0
C320 C 0.20699 0.35609 0.4378 0.0
C321 C 0.21808 0.37377 0.45812 0.0
C322 C 0.20482 0.35872 0.47643 0.0
C323 C 0.18019 0.32554 0.47483 0.0
C324 C 0.16904 0.30794 0.45435 0.0
C325 C 0.18223 0.32307 0.43603 0.0
C326 C 0.18332 0.40768 0.35937 0.0
C327 C 0.12378 0.31258 0.36906 0.0
C328 C 0.14992 0.3366 0.29147 0.0
Eu329 Eu 0.16968 0.34351 0.33212 0.0
C330 C 0.15833 0.35372 0.27168 0.0
C331 C 0.1805 0.35164 0.25873 0.0
C332 C 0.18539 0.36439 0.23882 0.0
C333 C 0.16811 0.37936 0.23126 0.0
C334 C 0.14672 0.38236 0.24452 0.0
C335 C 0.14184 0.36965 0.26445 0.0
C336 C 0.19127 0.30734 0.35184 0.0
C337 C 0.24564 0.40305 0.34147 0.0
O338 O 0.22442 0.35468 0.40331 0.0
O339 O 0.21109 0.39156 0.41153 0.0
O340 O 0.20843 0.41874 0.37348 0.0
O341 O 0.16737 0.37667 0.35733 0.0
O342 O 0.15019 0.32867 0.38281 0.0
O343 O 0.12422 0.31586 0.34832 0.0
O344 O 0.1395 0.34817 0.30662 0.0
O345 O 0.1687 0.32591 0.29909 0.0
O346 O 0.16496 0.29453 0.3387 0.0
O347 O 0.20543 0.33807 0.35289 0.0
O348 O 0.2181 0.38891 0.3287 0.0
O349 O 0.24674 0.39594 0.36149 0.0
H350 H 0.23698 0.39932 0.45982 0.0
H351 H 0.21361 0.37327 0.49182 0.0
H352 H 0.15039 0.2823 0.45247 0.0
H353 H 0.17316 0.30893 0.4205 0.0
H354 H 0.19339 0.33926 0.26364 0.0
H355 H 0.20175 0.36125 0.22897 0.0
H356 H 0.13331 0.39412 0.23936 0.0
H357 H 0.12446 0.37153 0.27395 0.0
C358 C 0.67547 0.85359 0.41305 0.0
Eu359 Eu 0.67475 0.83785 0.37243 0.0
C360 C 0.68663 0.84882 0.43433 0.0
C361 C 0.66352 0.83026 0.44813 0.0
C362 C 0.67332 0.82699 0.4688 0.0
C363 C 0.70649 0.84251 0.47622 0.0
C364 C 0.72968 0.86076 0.46232 0.0
C365 C 0.71987 0.86382 0.44155 0.0
C366 C 0.63525 0.77713 0.35161 0.0
C367 C 0.73114 0.81899 0.36544 0.0
C368 C 0.68811 0.81138 0.28695 0.0
Eu369 Eu 0.68976 0.82829 0.32754 0.0
C370 C 0.66924 0.80603 0.26609 0.0
C371 C 0.6632 0.83009 0.2585 0.0
C372 C 0.64734 0.82516 0.23797 0.0
C373 C 0.63704 0.79602 0.22471 0.0
C374 C 0.64248 0.77173 0.2326 0.0
C375 C 0.65846 0.77674 0.25303 0.0
C376 C 0.73154 0.88765 0.34855 0.0
C377 C 0.63531 0.84969 0.33603 0.0
O378 O 0.6976 0.87246 0.40102 0.0
O379 O 0.65122 0.8278 0.40205 0.0
O380 O 0.62496 0.79218 0.36399 0.0
O381 O 0.66558 0.7941 0.35142 0.0
O382 O 0.71845 0.83166 0.37836 0.0
O383 O 0.72109 0.81121 0.34472 0.0
O384 O 0.67389 0.79024 0.30081 0.0
O385 O 0.70559 0.84147 0.29595 0.0
O386 O 0.7401 0.87119 0.33595 0.0
O387 O 0.70097 0.8729 0.34888 0.0
O388 O 0.64467 0.83398 0.32265 0.0
O389 O 0.64853 0.85948 0.35595 0.0
H390 H 0.63776 0.81871 0.44306 0.0
H391 H 0.65487 0.81314 0.47922 0.0
H392 H 0.75542 0.87278 0.46755 0.0
H393 H 0.73833 0.8783 0.43131 0.0
H394 H 0.67108 0.85288 0.26828 0.0
H395 H 0.64319 0.84418 0.23246 0.0
H396 H 0.63525 0.74918 0.22274 0.0
H397 H 0.66297 0.7579 0.25849 0.0
C398 C 0.12907 0.82739 0.27284 0.0
Eu399 Eu 0.15822 0.84549 0.3116 0.0
C400 C 0.14045 0.82339 0.25197 0.0
C401 C 0.13698 0.83908 0.23453 0.0
C402 C 0.14823 0.83582 0.21489 0.0
C403 C 0.16291 0.81653 0.21225 0.0
C404 C 0.16655 0.80103 0.22977 0.0
C405 C 0.15565 0.80455 0.24941 0.0
C406 C 0.18842 0.90553 0.33451 0.0
C407 C 0.23418 0.86992 0.31624 0.0
C408 C 0.21439 0.86273 0.39629 0.0
Eu409 Eu 0.19188 0.85023 0.356 0.0
C410 C 0.2054 0.87029 0.41701 0.0
C411 C 0.2212 0.86873 0.43604 0.0
C412 C 0.21283 0.8754 0.45592 0.0
C413 C 0.18852 0.88389 0.45716 0.0
C414 C 0.17278 0.88557 0.43799 0.0
C415 C 0.18105 0.87865 0.41807 0.0
C416 C 0.17805 0.79672 0.32925 0.0
C417 C 0.11413 0.82717 0.35138 0.0
O418 O 0.12664 0.80675 0.28663 0.0
O419 O 0.14173 0.85737 0.2819 0.0
O420 O 0.18831 0.90159 0.31386 0.0
O421 O 0.17196 0.8783 0.34149 0.0
O422 O 0.20643 0.85157 0.30418 0.0
O423 O 0.23473 0.87825 0.33683 0.0
O424 O 0.22329 0.88524 0.38285 0.0
O425 O 0.19545 0.83301 0.38693 0.0
O426 O 0.2039 0.81219 0.34278 0.0
O427 O 0.16035 0.80925 0.33139 0.0
O428 O 0.14041 0.83323 0.36373 0.0
O429 O 0.11457 0.83059 0.33055 0.0
H430 H 0.12554 0.85387 0.23611 0.0
H431 H 0.14489 0.8479 0.20165 0.0
H432 H 0.17812 0.78635 0.22834 0.0
H433 H 0.15923 0.79252 0.2626 0.0
H434 H 0.24005 0.8623 0.43552 0.0
H435 H 0.22567 0.87427 0.47036 0.0
H436 H 0.15373 0.8917 0.43839 0.0
H437 H 0.16834 0.87965 0.40354 0.0
C438 C 0.88001 0.71043 0.75583 0.0
Eu439 Eu 0.86022 0.7044 0.7154 0.0
C440 C 0.86785 0.69353 0.7751 0.0
C441 C 0.87362 0.7123 0.79465 0.0
C442 C 0.86242 0.69709 0.81323 0.0
C443 C 0.84534 0.66273 0.81264 0.0
C444 C 0.83959 0.64389 0.79301 0.0
C445 C 0.85059 0.65916 0.77435 0.0
C446 C 0.84319 0.74411 0.6962 0.0
C447 C 0.78334 0.64969 0.70668 0.0
C448 C 0.80791 0.67411 0.62912 0.0
Eu449 Eu 0.82895 0.68019 0.66946 0.0
C450 C 0.81911 0.68127 0.60754 0.0
C451 C 0.80523 0.65589 0.59079 0.0
C452 C 0.81351 0.66209 0.56989 0.0
C453 C 0.83582 0.69392 0.56517 0.0
C454 C 0.85001 0.71935 0.58202 0.0
C455 C 0.84181 0.71309 0.60302 0.0
C456 C 0.84793 0.64162 0.6886 0.0
C457 C 0.90752 0.73392 0.67893 0.0
O458 O 0.88678 0.69509 0.74077 0.0
O459 O 0.86538 0.72543 0.74823 0.0
O460 O 0.8691 0.75456 0.7094 0.0
O461 O 0.82639 0.7132 0.69455 0.0
O462 O 0.81072 0.6612 0.71923 0.0
O463 O 0.78339 0.65762 0.6868 0.0
O464 O 0.81395 0.69883 0.64283 0.0
O465 O 0.8111 0.65148 0.63813 0.0
O466 O 0.82182 0.63015 0.67544 0.0
O467 O 0.86344 0.67243 0.68997 0.0
O468 O 0.88113 0.71988 0.66496 0.0
O469 O 0.906 0.72867 0.69936 0.0
H470 H 0.88688 0.73882 0.79557 0.0
H471 H 0.86753 0.71225 0.82815 0.0
H472 H 0.82624 0.61738 0.79205 0.0
H473 H 0.84559 0.64414 0.75937 0.0
H474 H 0.78745 0.63124 0.59382 0.0
H475 H 0.80177 0.64201 0.5573 0.0
H476 H 0.86753 0.74407 0.57899 0.0
H477 H 0.85296 0.73319 0.61562 0.0
C478 C 0.34404 0.17513 0.73839 0.0
Eu479 Eu 0.34629 0.16232 0.69767 0.0
C480 C 0.35923 0.17579 0.75979 0.0
C481 C 0.3395 0.16353 0.77652 0.0
C482 C 0.35325 0.16574 0.79729 0.0
C483 C 0.38716 0.18047 0.80188 0.0
C484 C 0.40686 0.19207 0.78492 0.0
C485 C 0.39304 0.18973 0.76409 0.0
C486 C 0.30423 0.10669 0.67237 0.0
C487 C 0.39778 0.13625 0.69109 0.0
C488 C 0.3707 0.14603 0.61273 0.0
Eu489 Eu 0.36668 0.15686 0.65339 0.0
C490 C 0.35756 0.14754 0.59122 0.0
C491 C 0.37905 0.16046 0.57548 0.0
C492 C 0.36765 0.1617 0.55476 0.0
C493 C 0.3344 0.14995 0.54924 0.0
C494 C 0.3128 0.13707 0.56509 0.0
C495 C 0.3243 0.136 0.58594 0.0
C496 C 0.4091 0.21192 0.67887 0.0
C497 C 0.3152 0.1829 0.66008 0.0
O498 O 0.36209 0.1973 0.72604 0.0
O499 O 0.32505 0.14642 0.72777 0.0
O500 O 0.29507 0.12215 0.68544 0.0
O501 O 0.33482 0.12029 0.67399 0.0
O502 O 0.38573 0.14935 0.70428 0.0
O503 O 0.39108 0.13273 0.67008 0.0
O504 O 0.35119 0.1233 0.62423 0.0
O505 O 0.38973 0.17402 0.62413 0.0
O506 O 0.41768 0.19577 0.66602 0.0
O507 O 0.37857 0.19918 0.67708 0.0
O508 O 0.32591 0.16833 0.64689 0.0
O509 O 0.32344 0.18759 0.68095 0.0
H510 H 0.31337 0.15258 0.77357 0.0
H511 H 0.33722 0.15593 0.80978 0.0
H512 H 0.43305 0.2038 0.78782 0.0
H513 H 0.40886 0.19934 0.75146 0.0
H514 H 0.40476 0.16937 0.57917 0.0
H515 H 0.38489 0.17127 0.5429 0.0
H516 H 0.28709 0.12806 0.5614 0.0
H517 H 0.30724 0.12606 0.59787 0.0
C518 C 0.82568 0.16903 0.60513 0.0
Eu519 Eu 0.84239 0.1842 0.6463 0.0
C520 C 0.83907 0.17066 0.58425 0.0
C521 C 0.83388 0.1883 0.56882 0.0
C522 C 0.84289 0.18738 0.54813 0.0
C523 C 0.85708 0.16853 0.54228 0.0
C524 C 0.86343 0.15182 0.55798 0.0
C525 C 0.85447 0.15282 0.57876 0.0
C526 C 0.85958 0.2424 0.6684 0.0
C527 C 0.91923 0.20778 0.65814 0.0
C528 C 0.88498 0.20706 0.7338 0.0
Eu529 Eu 0.86843 0.19216 0.69261 0.0
C530 C 0.87063 0.20478 0.75424 0.0
C531 C 0.88305 0.19605 0.77184 0.0
C532 C 0.8707 0.1943 0.79164 0.0
C533 C 0.84566 0.20137 0.79429 0.0
C534 C 0.83307 0.21 0.77659 0.0
C535 C 0.84537 0.21156 0.75667 0.0
C536 C 0.85348 0.13478 0.6707 0.0
C537 C 0.79087 0.16569 0.68049 0.0
O538 O 0.82681 0.14888 0.61813 0.0
O539 O 0.83118 0.19657 0.61519 0.0
O540 O 0.83418 0.22679 0.65452 0.0
O541 O 0.87514 0.22737 0.66937 0.0
O542 O 0.89409 0.1948 0.64334 0.0
O543 O 0.91633 0.21323 0.67854 0.0
O544 O 0.88404 0.22737 0.72087 0.0
O545 O 0.87926 0.1795 0.72368 0.0
O546 O 0.87846 0.1513 0.68474 0.0
O547 O 0.83642 0.14836 0.66947 0.0
O548 O 0.81617 0.18053 0.69521 0.0
O549 O 0.79446 0.16023 0.66026 0.0
H550 H 0.82201 0.20218 0.5726 0.0
H551 H 0.83819 0.20105 0.53658 0.0
H552 H 0.87414 0.13691 0.55399 0.0
H553 H 0.85876 0.13888 0.59028 0.0
H554 H 0.9026 0.19082 0.77031 0.0
H555 H 0.88124 0.18804 0.80501 0.0
H556 H 0.8136 0.21531 0.7781 0.0
H557 H 0.83525 0.21817 0.74325 0.0
H558 H 0.30454 0.90118 0.07971 0.0
H559 H 0.2883 0.82097 0.0343 0.0
H560 H 0.33792 0.85676 0.01871 0.0
H561 H 0.387 0.91075 0.01812 0.0
H562 H 0.40708 0.98884 0.06626 0.0
H563 H 0.3554 0.954 0.08075 0.0
C564 C 0.31193 0.89124 0.06663 0.0
C565 C 0.29193 0.85828 0.05808 0.0
C566 C 0.34137 0.91173 0.05811 0.0
C567 C 0.30228 0.84635 0.04091 0.0
C568 C 0.33097 0.86678 0.03202 0.0
C569 C 0.37978 0.92013 0.03164 0.0
C570 C 0.4004 0.95238 0.04092 0.0
C571 C 0.35066 0.89954 0.0404 0.0
C572 C 0.39136 0.9641 0.05878 0.0
C573 C 0.36188 0.94417 0.06709 0.0
H574 H 0.12776 0.42796 0.08883 0.0
H575 H 0.19573 0.47339 0.04197 0.0
H576 H 0.15679 0.48404 0.02238 0.0
H577 H 0.10343 0.4816 0.01886 0.0
H578 H 0.0391 0.44195 0.06826 0.0
H579 H 0.07693 0.42868 0.08673 0.0
C580 C 0.13465 0.44087 0.07463 0.0
C581 C 0.16501 0.44976 0.06708 0.0
C582 C 0.11261 0.448 0.06379 0.0
C583 C 0.17251 0.4656 0.04814 0.0
C584 C 0.15027 0.47198 0.03694 0.0
C585 C 0.09773 0.46988 0.03359 0.0
C586 C 0.0684 0.46247 0.04209 0.0
C587 C 0.1202 0.46327 0.04459 0.0
C588 C 0.06151 0.44784 0.0614 0.0
C589 C 0.08312 0.44025 0.07197 0.0
H590 H 0.52274 0.71332 0.03888 0.0
H591 H 0.61023 0.72304 0.0705 0.0
H592 H 0.59884 0.67133 0.05109 0.0
H593 H 0.56428 0.62384 0.02435 0.0
H594 H 0.4752 0.61326 0.99465 0.0
H595 H 0.48734 0.66517 0.01357 0.0
C596 C 0.53934 0.70412 0.04146 0.0
C597 C 0.56736 0.72201 0.05597 0.0
C598 C 0.53248 0.67436 0.03042 0.0
C599 C 0.58842 0.7096 0.05945 0.0
C600 C 0.582 0.68016 0.04828 0.0
C601 C 0.54741 0.63276 0.02224 0.0
C602 C 0.51876 0.61457 0.00824 0.0
C603 C 0.55414 0.66236 0.03364 0.0
C604 C 0.49739 0.62673 1.00535 0.0
C605 C 0.50426 0.6564 0.01621 0.0
H606 H 0.88 0.29965 0.94879 0.0
H607 H 0.79525 0.29296 0.97457 0.0
H608 H 0.82948 0.34501 0.99675 0.0
H609 H 0.88346 0.39268 0.00845 0.0
H610 H 0.96859 0.39761 0.98444 0.0
H611 H 0.93433 0.34621 0.96173 0.0
C612 C 0.86908 0.30972 0.95922 0.0
C613 C 0.83514 0.29269 0.95994 0.0
C614 C 0.88897 0.33937 0.97212 0.0
C615 C 0.82131 0.30563 0.97379 0.0
C616 C 0.84086 0.3354 0.9864 0.0
C617 C 0.89452 0.38249 0.99825 0.0
C618 C 0.9285 0.39927 0.99781 0.0
C619 C 0.8747 0.35251 0.98566 0.0
C620 C 0.94248 0.38556 0.98472 0.0
C621 C 0.92289 0.35605 0.97183 0.0
H622 H 0.68776 0.56071 0.93572 0.0
H623 H 0.74208 0.61536 0.99568 0.0
H624 H 0.69219 0.60707 0.00975 0.0
H625 H 0.63304 0.58419 1.00518 0.0
H626 H 0.57911 0.53121 0.94474 0.0
H627 H 0.62898 0.53966 0.93066 0.0
C628 C 0.68881 0.57114 0.95179 0.0
C629 C 0.71875 0.58843 0.96461 0.0
C630 C 0.66005 0.56674 0.95971 0.0
C631 C 0.71939 0.60135 0.98553 0.0
C632 C 0.69086 0.59687 0.99356 0.0
C633 C 0.63216 0.57462 0.98889 0.0
C634 C 0.6022 0.55697 0.97612 0.0
C635 C 0.66103 0.57955 0.98082 0.0
C636 C 0.60169 0.5448 0.95502 0.0
C637 C 0.63026 0.54958 0.94692 0.0
H638 H 0.43617 0.12835 0.95664 0.0
H639 H 0.52787 0.21466 0.97871 0.0
H640 H 0.54489 0.1818 0.99845 0.0
H641 H 0.53209 0.12926 0.01174 0.0
H642 H 0.43982 0.04293 0.99077 0.0
H643 H 0.4247 0.07477 0.96829 0.0
C644 C 0.4601 0.13973 0.96542 0.0
C645 C 0.48075 0.17384 0.96626 0.0
C646 C 0.46946 0.12072 0.97716 0.0
C647 C 0.51156 0.18843 0.97791 0.0
C648 C 0.52125 0.16969 0.98926 0.0
C649 C 0.50874 0.11742 1.00217 0.0
C650 C 0.48705 0.08387 1.00301 0.0
C651 C 0.50011 0.13595 0.98943 0.0
C652 C 0.45697 0.06877 0.99039 0.0
C653 C 0.44828 0.08697 0.97755 0.0
H654 H 0.70832 0.14368 0.99574 0.0
H655 H 0.66819 0.13932 0.93164 0.0
H656 H 0.61288 0.10496 0.9418 0.0
H657 H 0.57624 0.07466 0.9689 0.0
H658 H 0.61762 0.07931 0.03296 0.0
H659 H 0.67194 0.11485 0.02287 0.0
C660 C 0.68734 0.13549 0.98413 0.0
C661 C 0.69195 0.14407 0.96311 0.0
C662 C 0.65588 0.11554 0.99005 0.0
C663 C 0.66492 0.13314 0.94801 0.0
C664 C 0.6334 0.11339 0.95379 0.0
C665 C 0.59712 0.08342 0.98064 0.0
C666 C 0.59266 0.0741 1.00166 0.0
C667 C 0.62859 0.10412 0.97475 0.0
C668 C 0.62012 0.08594 0.01667 0.0
C669 C 0.65132 0.10636 0.01093 0.0
H670 H 0.88002 0.56918 0.95237 0.0
H671 H 0.83425 0.54964 0.01116 0.0
H672 H 0.86374 0.52217 0.02251 0.0
H673 H 0.90544 0.50759 0.01702 0.0
H674 H 0.95158 0.52621 0.95828 0.0
H675 H 0.91885 0.54974 0.94542 0.0
C676 C 0.87624 0.55835 0.96746 0.0
C677 C 0.85513 0.5612 0.98099 0.0
C678 C 0.89347 0.54269 0.97392 0.0
C679 C 0.85036 0.54744 1.00055 0.0
C680 C 0.86729 0.53191 0.00706 0.0
C681 C 0.90822 0.51659 1.00133 0.0
C682 C 0.93121 0.51555 0.98876 0.0
C683 C 0.88939 0.53 0.99409 0.0
C684 C 0.93409 0.5268 0.96831 0.0
C685 C 0.91548 0.54038 0.96098 0.0
H686 H 0.43592 0.32791 0.97088 0.0
H687 H 0.53224 0.34295 0.98463 0.0
H688 H 0.55372 0.40164 0.99374 0.0
H689 H 0.5441 0.44765 1.0008 0.0
H690 H 0.44785 0.43303 0.98697 0.0
H691 H 0.42726 0.37537 0.97474 0.0
C692 C 0.46169 0.34431 0.97541 0.0
C693 C 0.48266 0.33155 0.97699 0.0
C694 C 0.47373 0.37794 0.98086 0.0
C695 C 0.51588 0.35259 0.98313 0.0
C696 C 0.52807 0.38603 0.98848 0.0
C697 C 0.51868 0.43186 0.99496 0.0
C698 C 0.49742 0.44436 0.99505 0.0
C699 C 0.50709 0.39883 0.9879 0.0
C700 C 0.46463 0.42384 0.98718 0.0
C701 C 0.45284 0.39088 0.9802 0.0
H702 H 0.1012 0.69027 0.0524 0.0
H703 H 0.19077 0.69668 0.03658 0.0
H704 H 0.16272 0.63719 0.02753 0.0
H705 H 0.1117 0.5842 0.02099 0.0
H706 H 0.02181 0.57781 0.03638 0.0
H707 H 0.05084 0.63617 0.04896 0.0
C708 C 0.11453 0.67839 0.04737 0.0
C709 C 0.14784 0.6974 0.04517 0.0
C710 C 0.09811 0.64427 0.04195 0.0
C711 C 0.16507 0.68219 0.03847 0.0
C712 C 0.14902 0.64828 0.0332 0.0
C713 C 0.09856 0.59555 0.02733 0.0
C714 C 0.06465 0.57685 0.02753 0.0
C715 C 0.11539 0.62918 0.03439 0.0
C716 C 0.04793 0.59174 0.03596 0.0
C717 C 0.0645 0.62514 0.04311 0.0
H718 H 0.33193 0.46785 0.07403 0.0
H719 H 0.27586 0.42834 0.01259 0.0
H720 H 0.32604 0.45018 0.99469 0.0
H721 H 0.38611 0.47802 0.99691 0.0
H722 H 0.44154 0.5168 0.05894 0.0
H723 H 0.39165 0.49789 0.0761 0.0
C724 C 0.33085 0.46456 0.05669 0.0
C725 C 0.30054 0.44691 0.04453 0.0
C726 C 0.35973 0.47678 0.04663 0.0
C727 C 0.29912 0.44224 0.02216 0.0
C728 C 0.32777 0.45454 0.01198 0.0
C729 C 0.38729 0.48246 0.01416 0.0
C730 C 0.41773 0.49871 0.02652 0.0
C731 C 0.35828 0.47144 0.02409 0.0
C732 C 0.41863 0.50434 0.0489 0.0
C733 C 0.39003 0.49351 0.05882 0.0
H734 H 0.51185 0.84394 0.05152 0.0
H735 H 0.61177 0.92096 0.06344 0.0
H736 H 0.59606 0.96192 0.05604 0.0
H737 H 0.55436 0.97456 0.04166 0.0
H738 H 0.45494 0.89617 0.02801 0.0
H739 H 0.4697 0.85715 0.04081 0.0
C740 C 0.52996 0.86983 0.05307 0.0
C741 C 0.56275 0.8797 0.05818 0.0
C742 C 0.52082 0.89291 0.04817 0.0
C743 C 0.58629 0.91307 0.05978 0.0
C744 C 0.57732 0.93638 0.05537 0.0
C745 C 0.53593 0.94904 0.04188 0.0
C746 C 0.5037 0.93813 0.03365 0.0
C747 C 0.54475 0.92647 0.04887 0.0
C748 C 0.47999 0.90504 0.03402 0.0
C749 C 0.48839 0.88269 0.04133 0.0
H750 H 0.99671 0.23517 0.41557 0.0
H751 H 0.9742 0.16355 0.36168 0.0
H752 H 0.02481 0.20062 0.34765 0.0
H753 H 0.07603 0.2534 0.35046 0.0
H754 H 0.10215 0.32172 0.40655 0.0
H755 H 0.05011 0.28555 0.42016 0.0
C756 C 1.0029 0.22718 0.40097 0.0
C757 C 0.9808 0.19649 0.38963 0.0
C758 C 0.03295 0.24812 0.39333 0.0
C759 C 0.98974 0.18728 0.37054 0.0
C760 C 0.01903 0.20839 0.36253 0.0
C761 C 0.07021 0.26033 0.36563 0.0
C762 C 0.0926 0.29031 0.37737 0.0
C763 C 0.04074 0.23894 0.37369 0.0
C764 C 0.08517 0.29877 0.39722 0.0
C765 C 0.05542 0.27812 0.40498 0.0
H766 H 0.83761 0.80863 0.42322 0.0
H767 H 0.8247 0.73958 0.3703 0.0
H768 H 0.78715 0.75218 0.35049 0.0
H769 H 0.75464 0.78011 0.34939 0.0
H770 H 0.76696 0.8472 0.40361 0.0
H771 H 0.80745 0.83769 0.42165 0.0
C772 C 0.82656 0.79624 0.40737 0.0
C773 C 0.83382 0.77298 0.3984 0.0
C774 C 0.80449 0.80304 0.3963 0.0
C775 C 0.81979 0.75779 0.37759 0.0
C776 C 0.79806 0.76478 0.3663 0.0
C777 C 0.76641 0.79281 0.36506 0.0
C778 C 0.75737 0.81406 0.37514 0.0
C779 C 0.78974 0.78698 0.37565 0.0
C780 C 0.77296 0.83034 0.39549 0.0
C781 C 0.79629 0.82503 0.40588 0.0
H782 H 0.21465 0.0234 0.40044 0.0
H783 H 0.27408 0.07921 0.35217 0.0
H784 H 0.25908 0.0286 0.33018 0.0
H785 H 0.22845 0.96792 0.32439 0.0
H786 H 0.17243 0.91313 0.37411 0.0
H787 H 0.18753 0.96375 0.39594 0.0
C788 C 0.22489 0.02469 0.38531 0.0
C789 C 0.24529 0.05534 0.37804 0.0
C790 C 0.21684 0.99549 0.37294 0.0
C791 C 0.2577 0.05613 0.3581 0.0
C792 C 0.24937 0.02712 0.34552 0.0
C793 C 0.2197 0.96721 0.34003 0.0
C794 C 0.19928 0.93685 0.34758 0.0
C795 C 0.22876 0.99661 0.3527 0.0
C796 C 0.18827 0.93619 0.36794 0.0
C797 C 0.19679 0.96514 0.38044 0.0
H798 H 0.56817 0.64467 0.29111 0.0
H799 H 0.48185 0.63805 0.31412 0.0
H800 H 0.51523 0.68975 0.33698 0.0
H801 H 0.5692 0.73819 0.34918 0.0
H802 H 0.65517 0.74277 0.32688 0.0
H803 H 0.62176 0.69081 0.30482 0.0
C804 C 0.55668 0.65457 0.30116 0.0
C805 C 0.52261 0.63779 0.30079 0.0
C806 C 0.57599 0.6841 0.31423 0.0
C807 C 0.50805 0.65053 0.31417 0.0
C808 C 0.52712 0.68014 0.32714 0.0
C809 C 0.58055 0.72768 0.33955 0.0
C810 C 0.61459 0.74464 0.33933 0.0
C811 C 0.56113 0.69735 0.32712 0.0
C812 C 0.62901 0.73057 0.32698 0.0
C813 C 0.60993 0.70075 0.31444 0.0
H814 H 0.34893 0.88717 0.26265 0.0
H815 H 0.40502 0.93588 0.32322 0.0
H816 H 0.35606 0.92811 0.33865 0.0
H817 H 0.29663 0.90455 0.33555 0.0
H818 H 0.24085 0.85581 0.27476 0.0
H819 H 0.29024 0.8669 0.25888 0.0
C820 C 0.35054 0.89661 0.2791 0.0
C821 C 0.38058 0.91185 0.29178 0.0
C822 C 0.32223 0.89187 0.28794 0.0
C823 C 0.38212 0.92361 0.31318 0.0
C824 C 0.35413 0.91924 0.32202 0.0
C825 C 0.29529 0.89658 0.3188 0.0
C826 C 0.26491 0.87914 0.3065 0.0
C827 C 0.32392 0.90287 0.30967 0.0
C828 C 0.26377 0.86912 0.28475 0.0
C829 C 0.29207 0.87544 0.27558 0.0
H830 H 0.17548 0.51978 0.31515 0.0
H831 H 0.08508 0.43835 0.2855 0.0
H832 H 0.09632 0.40023 0.30399 0.0
H833 H 0.13061 0.39071 0.3306 0.0
H834 H 0.22071 0.47322 0.3599 0.0
H835 H 0.2104 0.51029 0.33999 0.0
C836 C 0.15814 0.49369 0.31279 0.0
C837 C 0.12932 0.48196 0.29921 0.0
C838 C 0.16453 0.47214 0.32364 0.0
C839 C 0.1075 0.448 0.29586 0.0
C840 C 0.1138 0.42624 0.30655 0.0
C841 C 0.14805 0.41674 0.33241 0.0
C842 C 0.17632 0.4292 0.34674 0.0
C843 C 0.14204 0.43809 0.32077 0.0
C844 C 0.19864 0.46303 0.34909 0.0
C845 C 0.19284 0.48428 0.33767 0.0
H846 H 0.35702 0.49669 0.28722 0.0
H847 H 0.41754 0.49773 0.34118 0.0
H848 H 0.36918 0.46488 0.35977 0.0
H849 H 0.30916 0.43172 0.35902 0.0
H850 H 0.24951 0.42986 0.30384 0.0
H851 H 0.29779 0.46703 0.28748 0.0
C852 C 0.35953 0.49031 0.30327 0.0
C853 C 0.3905 0.49978 0.31304 0.0
C854 C 0.33169 0.47081 0.31349 0.0
C855 C 0.39375 0.49099 0.33359 0.0
C856 C 0.36612 0.472 0.34409 0.0
C857 C 0.30674 0.4397 0.34352 0.0
C858 C 0.27561 0.42758 0.33264 0.0
C859 C 0.33485 0.46108 0.33397 0.0
C860 C 0.27303 0.43833 0.31255 0.0
C861 C 0.30069 0.45974 0.30314 0.0
H862 H 0.514 0.86884 0.33096 0.0
H863 H 0.54212 0.89534 0.26802 0.0
H864 H 0.58624 0.88267 0.27365 0.0
H865 H 0.61805 0.86581 0.29774 0.0
H866 H 0.58915 0.8421 0.36118 0.0
H867 H 0.54397 0.85147 0.35409 0.0
C868 C 0.52976 0.87167 0.31845 0.0
C869 C 0.52515 0.88289 0.29919 0.0
C870 C 0.5549 0.86478 0.32195 0.0
C871 C 0.54548 0.88664 0.283 0.0
C872 C 0.57061 0.87942 0.28626 0.0
C873 C 0.60161 0.86248 0.30983 0.0
C874 C 0.60704 0.85352 0.33002 0.0
C875 C 0.57575 0.86867 0.3058 0.0
C876 C 0.58571 0.84939 0.34564 0.0
C877 C 0.55981 0.85469 0.34161 0.0
H878 H 0.1034 0.64705 0.2958 0.0
H879 H 0.19969 0.66132 0.30782 0.0
H880 H 0.22216 0.72044 0.31537 0.0
H881 H 0.21315 0.76675 0.3231 0.0
H882 H 0.11671 0.75254 0.31148 0.0
H883 H 0.09554 0.69497 0.29892 0.0
C884 C 0.12939 0.66337 0.29947 0.0
C885 C 0.15004 0.65028 0.3012 0.0
C886 C 0.14197 0.69722 0.30415 0.0
C887 C 0.18355 0.67121 0.30624 0.0
C888 C 0.19632 0.70491 0.31072 0.0
C889 C 0.18761 0.75112 0.3175 0.0
C890 C 0.16641 0.76363 0.31854 0.0
C891 C 0.1756 0.71801 0.31044 0.0
C892 C 0.13345 0.74335 0.31098 0.0
C893 C 0.12131 0.7104 0.30386 0.0
H894 H 0.8513 0.02828 0.37506 0.0
H895 H 0.77593 0.05311 0.3765 0.0
H896 H 0.73414 0.9948 0.37022 0.0
H897 H 0.71946 0.937 0.36062 0.0
H898 H 0.79601 0.91378 0.35742 0.0
H899 H 0.83682 0.97081 0.36836 0.0
C900 C 0.82568 0.02073 0.37441 0.0
C901 C 0.81644 0.04452 0.3763 0.0
C902 C 0.80203 0.98741 0.37031 0.0
C903 C 0.78337 0.03489 0.37521 0.0
C904 C 0.75955 1.00163 0.37152 0.0
C905 C 0.74504 0.94446 0.36269 0.0
C906 C 0.7548 0.92136 0.35805 0.0
C907 C 0.7686 0.97767 0.36851 0.0
C908 C 0.78799 0.93125 0.3607 0.0
C909 C 0.81136 0.96385 0.36694 0.0
H910 H 0.99935 0.78156 0.4105 0.0
H911 H 0.94311 0.76312 0.34995 0.0
H912 H 0.99296 0.78553 0.33153 0.0
H913 H 0.05253 0.80737 0.33273 0.0
H914 H 0.10734 0.82408 0.39403 0.0
H915 H 0.05831 0.80544 0.41196 0.0
C916 C 0.99819 0.78297 0.3933 0.0
C917 C 0.96799 0.77111 0.38151 0.0
C918 C 0.02671 0.79526 0.38293 0.0
C919 C 0.96637 0.7725 0.35926 0.0
C920 C 0.99481 0.78511 0.34877 0.0
C921 C 0.05375 0.8071 0.35 0.0
C922 C 0.08375 0.81693 0.36187 0.0
C923 C 0.02514 0.79609 0.36042 0.0
C924 C 0.08475 0.81646 0.38431 0.0
C925 C 0.05665 0.80583 0.3947 0.0
H926 H 0.27604 0.25014 0.38967 0.0
H927 H 0.18845 0.15907 0.36862 0.0
H928 H 0.16082 0.18891 0.35802 0.0
H929 H 0.16327 0.24128 0.35216 0.0
H930 H 0.25163 0.33229 0.37264 0.0
H931 H 0.27724 0.30234 0.38619 0.0
C932 C 0.2507 0.23696 0.38315 0.0
C933 C 0.23403 0.20266 0.38002 0.0
C934 C 0.2353 0.25432 0.37681 0.0
C935 C 0.20146 0.18557 0.37132 0.0
C936 C 0.1858 0.20263 0.36515 0.0
C937 C 0.18804 0.25448 0.35974 0.0
C938 C 0.2056 0.28891 0.36129 0.0
C939 C 0.20271 0.23704 0.36738 0.0
C940 C 0.2376 0.30578 0.37126 0.0
C941 C 0.2523 0.28867 0.37897 0.0
H942 H 0.66698 0.55079 0.7563 0.0
H943 H 0.61215 0.54249 0.6969 0.0
H944 H 0.66152 0.58389 0.6831 0.0
H945 H 0.72102 0.62025 0.68702 0.0
H946 H 0.77586 0.6279 0.74643 0.0
H947 H 0.72611 0.58937 0.76095 0.0
C948 C 0.66581 0.55851 0.7405 0.0
C949 C 0.63595 0.54344 0.72763 0.0
C950 C 0.69447 0.58206 0.7325 0.0
C951 C 0.63489 0.55349 0.70707 0.0
C952 C 0.66314 0.57715 0.69914 0.0
C953 C 0.7221 0.61362 0.70317 0.0
C954 C 0.75236 0.62696 0.71545 0.0
C955 C 0.69322 0.59119 0.71154 0.0
C956 C 0.75308 0.61805 0.73644 0.0
C957 C 0.72455 0.59595 0.74485 0.0
H958 H 0.46737 0.07778 0.74572 0.0
H959 H 0.5499 0.14587 0.71471 0.0
H960 H 0.51467 0.15959 0.69308 0.0
H961 H 0.46063 0.15495 0.68483 0.0
H962 H 0.38076 0.09141 0.71943 0.0
H963 H 0.41485 0.07368 0.73816 0.0
C964 C 0.47802 0.0961 0.73454 0.0
C965 C 0.51157 0.11119 0.73226 0.0
C966 C 0.45795 0.10471 0.7228 0.0
C967 C 0.52426 0.13377 0.71689 0.0
C968 C 0.50412 0.1418 0.70459 0.0
C969 C 0.45077 0.13691 0.69628 0.0
C970 C 0.41823 0.12411 0.70066 0.0
C971 C 0.47097 0.12776 0.70762 0.0
C972 C 0.4057 0.10132 0.71579 0.0
C973 C 0.42519 0.09128 0.72651 0.0
H974 H 0.91705 0.37192 0.73145 0.0
H975 H 0.83489 0.37394 0.70082 0.0
H976 H 0.81872 0.32262 0.67891 0.0
H977 H 0.82821 0.27722 0.66841 0.0
H978 H 0.9127 0.27757 0.69734 0.0
H979 H 0.92765 0.32768 0.72002 0.0
C980 C 0.89551 0.36092 0.72005 0.0
C981 C 0.877 0.37641 0.71781 0.0
C982 C 0.88681 0.33186 0.70723 0.0
C983 C 0.84945 0.36235 0.70277 0.0
C984 C 0.84023 0.33305 0.69028 0.0
C985 C 0.8499 0.28833 0.67967 0.0
C986 C 0.86902 0.27342 0.68146 0.0
C987 C 0.85877 0.31762 0.69233 0.0
C988 C 0.89725 0.28824 0.69594 0.0
C989 C 0.90589 0.31699 0.70886 0.0
H990 H 0.22864 0.97434 0.61144 0.0
H991 H 0.14623 0.97522 0.63564 0.0
H992 H 0.18256 0.0279 0.6566 0.0
H993 H 0.23803 0.07317 0.66874 0.0
H994 H 0.32036 0.07049 0.64587 0.0
H995 H 0.28392 0.01941 0.62355 0.0
C996 C 0.21863 0.98629 0.62109 0.0
C997 C 0.18476 0.971 0.62187 0.0
C998 C 0.2397 0.01627 0.63337 0.0
C999 C 0.1722 0.98647 0.6348 0.0
C1000 C 0.19297 0.01658 0.64677 0.0
C1001 C 0.24795 0.06141 0.65882 0.0
C1002 C 0.28188 0.07578 0.65882 0.0
C1003 C 0.22679 0.03161 0.64632 0.0
C1004 C 0.29437 0.06017 0.64598 0.0
C1005 C 0.27353 0.03086 0.63327 0.0
H1006 H 0.04575 0.20422 0.64059 0.0
H1007 H 0.05772 0.27957 0.60002 0.0
H1008 H 1.00583 0.27293 0.60881 0.0
H1009 H 0.95727 0.24686 0.62913 0.0
H1010 H 0.95072 0.17833 0.67366 0.0
H1011 H 1.00096 0.18228 0.66291 0.0
C1012 C 0.03782 0.22001 0.63397 0.0
C1013 C 0.05636 0.24249 0.61959 0.0
C1014 C 0.00882 0.21751 0.64004 0.0
C1015 C 0.04417 0.26149 0.61074 0.0
C1016 C 0.0145 0.25804 0.61598 0.0
C1017 C 0.96712 0.23304 0.6365 0.0
C1018 C 0.95058 0.21239 0.65217 0.0
C1019 C 0.99668 0.23627 0.63073 0.0
C1020 C 0.96336 0.19459 0.66171 0.0
C1021 C 0.99194 0.19672 0.65549 0.0
H1022 H 0.82749 0.85752 0.65994 0.0
H1023 H 0.74375 0.77586 0.62395 0.0
H1024 H 0.75643 0.73755 0.64101 0.0
H1025 H 0.79074 0.72759 0.66728 0.0
H1026 H 0.87617 0.81029 0.70134 0.0
H1027 H 0.86309 0.84785 0.68431 0.0
C1028 C 0.81203 0.83131 0.65586 0.0
C1029 C 0.78459 0.81944 0.64091 0.0
C1030 C 0.81965 0.80965 0.66554 0.0
C1031 C 0.76502 0.7855 0.63543 0.0
C1032 C 0.77219 0.76365 0.64525 0.0
C1033 C 0.80664 0.75382 0.67074 0.0
C1034 C 0.83445 0.76612 0.6855 0.0
C1035 C 0.79935 0.77545 0.66047 0.0
C1036 C 0.8546 0.80017 0.69006 0.0
C1037 C 0.84719 0.82171 0.68031 0.0
H1038 H 0.05518 0.82697 0.66513 0.0
H1039 H 0.01461 0.81571 0.60009 0.0
H1040 H 0.95945 0.78155 0.61067 0.0
H1041 H 0.92311 0.75313 0.63858 0.0
H1042 H 0.96562 0.76469 0.70346 0.0
H1043 H 0.01937 0.80026 0.69282 0.0
C1044 C 0.03414 0.81732 0.65337 0.0
C1045 C 0.03859 0.82388 0.63199 0.0
C1046 C 1.00284 0.79748 0.65954 0.0
C1047 C 0.01146 0.81108 0.61673 0.0
C1048 C 0.98004 0.79146 0.62277 0.0
C1049 C 0.94412 0.76346 0.65038 0.0
C1050 C 0.94007 0.75594 0.67181 0.0
C1051 C 0.97542 0.78415 0.64414 0.0
C1052 C 0.96772 0.76977 0.68685 0.0
C1053 C 0.99865 0.79026 0.68081 0.0
H1054 H 0.2017 0.19913 0.61628 0.0
H1055 H 0.2279 0.26663 0.67279 0.0
H1056 H 0.27291 0.25786 0.68369 0.0
H1057 H 0.30179 0.22753 0.67871 0.0
H1058 H 0.27647 0.16029 0.62202 0.0
H1059 H 0.23445 0.17253 0.60951 0.0
C1060 C 0.21779 0.21236 0.63071 0.0
C1061 C 0.21187 0.2336 0.64373 0.0
C1062 C 0.2435 0.20694 0.63694 0.0
C1063 C 0.2324 0.25039 0.6625 0.0
C1064 C 0.25794 0.24522 0.66879 0.0
C1065 C 0.28724 0.21571 0.66354 0.0
C1066 C 0.29202 0.19274 0.65146 0.0
C1067 C 0.26325 0.22298 0.65641 0.0
C1068 C 0.27327 0.17803 0.63168 0.0
C1069 C 0.24915 0.18494 0.62453 0.0
H1070 H 0.83385 0.99447 0.64984 0.0
H1071 H 0.73328 0.96862 0.64316 0.0
H1072 H 0.74924 0.02686 0.64713 0.0
H1073 H 0.79211 0.08491 0.65664 0.0
H1074 H 0.89242 0.10943 0.66529 0.0
H1075 H 0.87654 0.05226 0.6561 0.0
C1076 C 0.81556 1.00177 0.64881 0.0
C1077 C 0.7826 0.97776 0.64616 0.0
C1078 C 0.82495 0.03508 0.65163 0.0
C1079 C 0.75887 0.98704 0.64507 0.0
C1080 C 0.768 0.02024 0.64745 0.0
C1081 C 0.81042 0.0777 0.65609 0.0
C1082 C 0.84333 0.10116 0.66181 0.0
C1083 C 0.80099 0.04449 0.65133 0.0
C1084 C 0.8669 0.09165 0.66114 0.0
C1085 C 0.85785 0.05898 0.65592 0.0
H1086 H 0.52951 0.34976 0.7109 0.0
H1087 H 0.45498 0.37563 0.71372 0.0
H1088 H 0.41273 0.31776 0.70544 0.0
H1089 H 0.39765 0.26064 0.69331 0.0
H1090 H 0.47335 0.23642 0.68865 0.0
H1091 H 0.51443 0.29247 0.70199 0.0
C1092 C 0.50395 0.34248 0.71019 0.0
C1093 C 0.49508 0.36647 0.71301 0.0
C1094 C 0.48008 0.30948 0.70486 0.0
C1095 C 0.46211 0.35723 0.71177 0.0
C1096 C 0.43806 0.32425 0.7069 0.0
C1097 C 0.4231 0.26761 0.69559 0.0
C1098 C 0.43257 0.24461 0.68981 0.0
C1099 C 0.44679 0.30024 0.70281 0.0
C1100 C 0.46557 0.25385 0.69278 0.0
C1101 C 0.48908 0.28588 0.7004 0.0
H1102 H 0.64144 0.09718 0.69473 0.0
H1103 H 0.6812 0.15028 0.75716 0.0
H1104 H 0.73632 0.17527 0.74589 0.0
H1105 H 0.77335 0.1791 0.71889 0.0
H1106 H 0.73313 0.12552 0.65637 0.0
H1107 H 0.67827 0.1038 0.66697 0.0
C1108 C 0.6622 0.11477 0.70564 0.0
C1109 C 0.65753 0.12232 0.7266 0.0
C1110 C 0.69377 0.12863 0.69911 0.0
C1111 C 0.68442 0.14459 0.74083 0.0
C1112 C 0.71589 0.15864 0.73444 0.0
C1113 C 0.7526 0.16278 0.70754 0.0
C1114 C 0.75753 0.15382 0.68689 0.0
C1115 C 0.72093 0.15037 0.71372 0.0
C1116 C 0.73023 0.13284 0.67238 0.0
C1117 C 0.69874 0.12034 0.67842 0.0
H1118 H 0.92356 0.57599 0.7284 0.0
H1119 H 0.83379 0.48831 0.70527 0.0
H1120 H 0.81005 0.5213 0.69385 0.0
H1121 H 0.8165 0.57533 0.6881 0.0
H1122 H 0.90686 0.66302 0.71077 0.0
H1123 H 0.9287 0.63002 0.72486 0.0
C1124 C 0.89861 0.56426 0.72121 0.0
C1125 C 0.88021 0.52999 0.71774 0.0
C1126 C 0.88542 0.58342 0.71444 0.0
C1127 C 0.84813 0.51477 0.70821 0.0
C1128 C 0.83469 0.53361 0.70158 0.0
C1129 C 0.84088 0.58716 0.69624 0.0
C1130 C 0.86014 0.62152 0.69826 0.0
C1131 C 0.85334 0.56798 0.70422 0.0
C1132 C 0.89159 0.63659 0.70899 0.0
C1133 C 0.90412 0.61774 0.71702 0.0
H1134 H 0.44439 0.97315 0.23615 0.0
H1135 H 0.46629 0.8958 0.22396 0.0
H1136 H 0.4817 0.91346 0.18855 0.0
H1137 H 0.48971 0.95145 0.16118 0.0
H1138 H 0.46697 0.02817 0.1734 0.0
H1139 H 0.4508 0.00992 0.20852 0.0
C1140 C 0.45214 0.95986 0.22566 0.0
C1141 C 0.45414 0.93315 0.23277 0.0
C1142 C 0.46084 0.97005 0.20529 0.0
C1143 C 0.46487 0.91667 0.21906 0.0
C1144 C 0.47351 0.92663 0.19874 0.0
C1145 C 0.48086 0.96392 0.17144 0.0
C1146 C 0.47967 0.99122 0.16467 0.0
C1147 C 0.47167 0.95335 0.1917 0.0
C1148 C 0.46854 0.00737 0.1783 0.0
C1149 C 0.45917 0.99688 0.19837 0.0
H1150 H 0.11995 0.5659 0.22779 0.0
H1151 H 0.05176 0.46697 0.24005 0.0
H1152 H 0.02517 0.45566 0.20369 0.0
H1153 H 0.02042 0.47409 0.16866 0.0
H1154 H 0.08826 0.57289 0.15609 0.0
H1155 H 0.11597 0.58398 0.1922 0.0
C1156 C 0.09922 0.54192 0.22248 0.0
C1157 C 0.08786 0.51732 0.2366 0.0
C1158 C 0.08401 0.53554 0.20149 0.0
C1159 C 0.06121 0.48622 0.22942 0.0
C1160 C 0.04587 0.47977 0.20867 0.0
C1161 C 0.0412 0.49809 0.17387 0.0
C1162 C 0.05215 0.52267 0.15977 0.0
C1163 C 0.05694 0.50428 0.19462 0.0
C1164 C 0.07949 0.55347 0.16659 0.0
C1165 C 0.09522 0.55988 0.18728 0.0
H1166 H 0.49367 0.53306 0.22308 0.0
H1167 H 0.50455 0.62939 0.22374 0.0
H1168 H 0.5154 0.63115 0.18621 0.0
H1169 H 0.52122 0.60516 0.15298 0.0
H1170 H 0.50871 0.50824 0.15207 0.0
H1171 H 0.49795 0.50649 0.18968 0.0
C1172 C 0.49798 0.55431 0.215 0.0
C1173 C 0.49835 0.58109 0.2264 0.0
C1174 C 0.50362 0.55495 0.19326 0.0
C1175 C 0.50465 0.60862 0.2156 0.0
C1176 C 0.51059 0.60956 0.19404 0.0
C1177 C 0.51626 0.58371 0.16104 0.0
C1178 C 0.5158 0.55688 0.14969 0.0
C1179 C 0.51017 0.58289 0.18271 0.0
C1180 C 0.50885 0.52908 0.16031 0.0
C1181 C 0.50292 0.52815 0.18188 0.0
H1182 H 0.95326 0.49078 0.79115 0.0
H1183 H 0.86823 0.39588 0.79355 0.0
H1184 H 0.88262 0.3979 0.83176 0.0
H1185 H 0.92047 0.42562 0.86428 0.0
H1186 H 1.00506 0.52076 0.86199 0.0
H1187 H 0.9892 0.52001 0.82416 0.0
C1188 C 0.93751 0.47078 0.80007 0.0
C1189 C 0.90981 0.4431 0.78934 0.0
C1190 C 0.94584 0.47214 0.82213 0.0
C1191 C 0.89001 0.41725 0.80123 0.0
C1192 C 0.89813 0.41843 0.82314 0.0
C1193 C 0.93541 0.44619 0.85549 0.0
C1194 C 0.96399 0.47313 0.86595 0.0
C1195 C 0.92624 0.44553 0.83369 0.0
C1196 C 0.98281 0.49983 0.85441 0.0
C1197 C 0.97386 0.49933 0.83272 0.0
H1198 H 0.59927 0.51269 0.80085 0.0
H1199 H 0.50375 0.46788 0.76639 0.0
H1200 H 0.48007 0.46798 0.79972 0.0
H1201 H 0.48598 0.47988 0.8387 0.0
H1202 H 0.58121 0.52553 0.87361 0.0
H1203 H 0.6053 0.52572 0.84023 0.0
C1204 C 0.57332 0.5032 0.80064 0.0
C1205 C 0.55335 0.49006 0.78109 0.0
C1206 C 0.5597 0.50327 0.82001 0.0
C1207 C 0.51969 0.47763 0.78119 0.0
C1208 C 0.50609 0.47781 0.80026 0.0
C1209 C 0.51206 0.49023 0.83904 0.0
C1210 C 0.53166 0.50271 0.85874 0.0
C1211 C 0.52579 0.49042 0.81977 0.0
C1212 C 0.56538 0.51539 0.85878 0.0
C1213 C 0.57925 0.51571 0.83964 0.0
H1214 H 0.5777 0.09368 0.81836 0.0
H1215 H 0.47864 0.04864 0.78967 0.0
H1216 H 0.45866 0.02836 0.82361 0.0
H1217 H 0.46898 0.02245 0.86123 0.0
H1218 H 0.56767 0.06615 0.89023 0.0
H1219 H 0.58805 0.08805 0.85651 0.0
C1220 C 0.55176 0.07934 0.81955 0.0
C1221 C 0.52975 0.0729 0.80148 0.0
C1222 C 0.54032 0.06752 0.83919 0.0
C1223 C 0.49617 0.05449 0.80337 0.0
C1224 C 0.48468 0.04266 0.82276 0.0
C1225 C 0.49497 0.03657 0.86016 0.0
C1226 C 0.51673 0.04244 0.87822 0.0
C1227 C 0.5065 0.0489 0.84073 0.0
C1228 C 0.55034 0.06143 0.87664 0.0
C1229 C 0.56203 0.07381 0.85731 0.0
H1230 H 0.10004 0.24836 0.54975 0.0
H1231 H 0.19502 0.30434 0.58507 0.0
H1232 H 0.2184 0.32799 0.55262 0.0
H1233 H 0.21197 0.334 0.51441 0.0
H1234 H 0.11656 0.28084 0.47947 0.0
H1235 H 0.09346 0.25507 0.51153 0.0
C1236 C 0.12581 0.26594 0.55044 0.0
C1237 C 0.14563 0.27438 0.56998 0.0
C1238 C 0.13913 0.28005 0.53174 0.0
C1239 C 0.17913 0.29682 0.5703 0.0
C1240 C 0.19256 0.31064 0.55175 0.0
C1241 C 0.18605 0.31704 0.5138 0.0
C1242 C 0.16614 0.30952 0.49443 0.0
C1243 C 0.17277 0.30263 0.53241 0.0
C1244 C 0.13268 0.28687 0.49399 0.0
C1245 C 0.11935 0.27224 0.51239 0.0
H1246 H 0.72647 0.81499 0.57161 0.0
H1247 H 0.79331 0.91921 0.57752 0.0
H1248 H 0.78223 0.92057 0.53923 0.0
H1249 H 0.75145 0.89267 0.50446 0.0
H1250 H 0.68375 0.78865 0.49856 0.0
H1251 H 0.69735 0.78662 0.53639 0.0
C1252 C 0.73891 0.83789 0.56443 0.0
C1253 C 0.76056 0.86697 0.57739 0.0
C1254 C 0.73215 0.83855 0.54243 0.0
C1255 C 0.77623 0.89656 0.56793 0.0
C1256 C 0.77 0.89734 0.54603 0.0
C1257 C 0.74006 0.86947 0.51138 0.0
C1258 C 0.71661 0.84086 0.49873 0.0
C1259 C 0.7477 0.86857 0.53318 0.0
C1260 C 0.70166 0.81107 0.50802 0.0
C1261 C 0.70948 0.80988 0.52962 0.0
H1262 H 0.15517 0.93342 0.54289 0.0
H1263 H 0.1562 0.84874 0.56411 0.0
H1264 H 0.16802 0.83614 0.52869 0.0
H1265 H 0.17891 0.84942 0.49182 0.0
H1266 H 0.17815 0.93396 0.47019 0.0
H1267 H 0.16524 0.94623 0.50549 0.0
C1268 C 0.15806 0.91226 0.53973 0.0
C1269 C 0.15464 0.89199 0.55613 0.0
C1270 C 0.16488 0.90509 0.51923 0.0
C1271 C 0.15819 0.86449 0.55172 0.0
C1272 C 0.16516 0.85736 0.53149 0.0
C1273 C 0.1761 0.87064 0.49486 0.0
C1274 C 0.17967 0.89082 0.47841 0.0
C1275 C 0.16868 0.87752 0.51516 0.0
C1276 C 0.17532 0.91788 0.48251 0.0
C1277 C 0.1681 0.92501 0.50273 0.0
H1278 H 0.56434 0.74998 0.13109 0.0
H1279 H 0.63626 0.84894 0.12142 0.0
H1280 H 0.65583 0.85995 0.15946 0.0
H1281 H 0.65534 0.84023 0.19496 0.0
H1282 H 0.58445 0.74075 0.2043 0.0
H1283 H 0.56215 0.73106 0.16687 0.0
C1284 C 0.58435 0.77396 0.13727 0.0
C1285 C 0.59889 0.7985 0.1233 0.0
C1286 C 0.59592 0.77995 0.15911 0.0
C1287 C 0.62435 0.82964 0.13176 0.0
C1288 C 0.63576 0.8359 0.15352 0.0
C1289 C 0.63467 0.81659 0.1889 0.0
C1290 C 0.62175 0.7912 0.20243 0.0
C1291 C 0.62208 0.81109 0.16728 0.0
C1292 C 0.59519 0.76059 0.19419 0.0
C1293 C 0.58233 0.75505 0.1728 0.0
H1294 H 0.19473 0.7724 0.12409 0.0
H1295 H 0.24135 0.87627 0.11858 0.0
H1296 H 0.22661 0.88515 0.15396 0.0
H1297 H 0.19831 0.8631 0.18595 0.0
H1298 H 0.15183 0.75923 0.19134 0.0
H1299 H 0.16843 0.75068 0.15659 0.0
C1300 C 0.20171 0.79699 0.13064 0.0
C1301 C 0.21906 0.82359 0.11861 0.0
C1302 C 0.19295 0.80192 0.15096 0.0
C1303 C 0.22831 0.85536 0.12753 0.0
C1304 C 0.21964 0.86044 0.14771 0.0
C1305 C 0.19175 0.8386 0.17946 0.0
C1306 C 0.17372 0.81183 0.1912 0.0
C1307 C 0.20158 0.83386 0.15947 0.0
C1308 C 0.16585 0.78029 0.18272 0.0
C1309 C 0.17526 0.77535 0.1628 0.0
H1310 H 0.15431 0.40497 0.13435 0.0
H1311 H 0.25798 0.44367 0.14237 0.0
H1312 H 0.25511 0.4327 0.17994 0.0
H1313 H 0.22291 0.41037 0.21032 0.0
H1314 H 0.1192 0.37144 0.20211 0.0
H1315 H 0.12256 0.38511 0.16513 0.0
C1316 C 0.17639 0.41154 0.14438 0.0
C1317 C 0.2063 0.42499 0.1354 0.0
C1318 C 0.17459 0.40517 0.16604 0.0
C1319 C 0.23454 0.43285 0.14868 0.0
C1320 C 0.23295 0.4267 0.17024 0.0
C1321 C 0.20103 0.40484 0.20045 0.0
C1322 C 0.17084 0.38983 0.2091 0.0
C1323 C 0.20305 0.41246 0.17903 0.0
C1324 C 0.14284 0.38335 0.19607 0.0
C1325 C 0.14468 0.39093 0.17481 0.0
H1326 H 0.81159 0.58774 0.89611 0.0
H1327 H 0.77537 0.65348 0.91008 0.0
H1328 H 0.78969 0.6755 0.87568 0.0
H1329 H 0.81412 0.67755 0.84215 0.0
H1330 H 0.85067 0.6123 0.82774 0.0
H1331 H 0.83444 0.58847 0.86163 0.0
C1332 C 0.80684 0.60685 0.89157 0.0
C1333 C 0.79233 0.61885 0.90562 0.0
C1334 C 0.81521 0.61952 0.87169 0.0
C1335 C 0.78607 0.64346 0.89945 0.0
C1336 C 0.79444 0.65624 0.87983 0.0
C1337 C 0.81858 0.65815 0.84646 0.0
C1338 C 0.83379 0.64688 0.83255 0.0
C1339 C 0.80925 0.64466 0.86592 0.0
C1340 C 0.83886 0.62129 0.83814 0.0
C1341 C 0.82975 0.60779 0.85757 0.0
H1342 H 0.46533 0.19484 0.89116 0.0
H1343 H 0.39314 0.21567 0.91396 0.0
H1344 H 0.36901 0.2082 0.87735 0.0
H1345 H 0.36854 0.19653 0.83881 0.0
H1346 H 0.43915 0.17365 0.81563 0.0
H1347 H 0.46368 0.18126 0.85231 0.0
C1348 C 0.44415 0.19746 0.88814 0.0
C1349 C 0.43137 0.20616 0.90541 0.0
C1350 C 0.43011 0.19289 0.86692 0.0
C1351 C 0.40402 0.20969 0.90106 0.0
C1352 C 0.39 0.2052 0.88009 0.0
C1353 C 0.38902 0.19274 0.84173 0.0
C1354 C 0.40186 0.18447 0.82434 0.0
C1355 C 0.40288 0.19691 0.86289 0.0
C1356 C 0.42891 0.18041 0.82858 0.0
C1357 C 0.44287 0.18457 0.84961 0.0
H1358 H 0.80558 0.1822 0.88868 0.0
H1359 H 0.80729 0.27328 0.8818 0.0
H1360 H 0.82005 0.27179 0.84475 0.0
H1361 H 0.83319 0.24578 0.81479 0.0
H1362 H 0.831 0.15453 0.82188 0.0
H1363 H 0.81553 0.15471 0.85824 0.0
C1364 C 0.80815 0.20145 0.87899 0.0
C1365 C 0.80551 0.22784 0.88807 0.0
C1366 C 0.81553 0.20046 0.85772 0.0
C1367 C 0.80958 0.25288 0.87532 0.0
C1368 C 0.81674 0.25197 0.85409 0.0
C1369 C 0.82882 0.2257 0.82418 0.0
C1370 C 0.83345 0.20029 0.81567 0.0
C1371 C 0.82012 0.22606 0.84519 0.0
C1372 C 0.82806 0.17462 0.82815 0.0
C1373 C 0.81912 0.17465 0.84893 0.0
H1374 H 0.31167 0.16941 0.45235 0.0
H1375 H 0.23016 0.0718 0.4533 0.0
H1376 H 0.24355 0.07378 0.49171 0.0
H1377 H 0.28064 0.10186 0.52459 0.0
H1378 H 0.3619 0.19959 0.52351 0.0
H1379 H 0.34617 0.19902 0.48573 0.0
C1380 C 0.29643 0.1488 0.46102 0.0
C1381 C 0.27005 0.12043 0.44986 0.0
C1382 C 0.30438 0.15002 0.48311 0.0
C1383 C 0.25089 0.09378 0.46138 0.0
C1384 C 0.25848 0.09492 0.48338 0.0
C1385 C 0.29458 0.12324 0.51618 0.0
C1386 C 0.32261 0.1506 0.52686 0.0
C1387 C 0.2855 0.1227 0.49435 0.0
C1388 C 0.34055 0.17798 0.51562 0.0
C1389 C 0.33151 0.17774 0.49401 0.0
H1390 H 0.86156 0.15218 0.44221 0.0
H1391 H 0.95287 0.15877 0.46238 0.0
H1392 H 0.94378 0.16454 0.49998 0.0
H1393 H 0.90981 0.16815 0.52716 0.0
H1394 H 0.81797 0.16011 0.50626 0.0
H1395 H 0.82737 0.15439 0.46898 0.0
C1396 C 0.8793 0.15439 0.45481 0.0
C1397 C 0.90776 0.15483 0.44943 0.0
C1398 C 0.8739 0.15764 0.47631 0.0
C1399 C 0.93083 0.15855 0.46603 0.0
C1400 C 0.92559 0.16173 0.48754 0.0
C1401 C 0.89177 0.16492 0.51444 0.0
C1402 C 0.86336 0.16489 0.51959 0.0
C1403 C 0.89721 0.16139 0.49288 0.0
C1404 C 0.84037 0.16093 0.50285 0.0
C1405 C 0.84559 0.15739 0.48148 0.0
H1406 H 0.86265 0.69699 0.46754 0.0
H1407 H 0.85869 0.78613 0.4758 0.0
H1408 H 0.84952 0.77806 0.51338 0.0
H1409 H 0.84186 0.74525 0.54392 0.0
H1410 H 0.84716 0.65687 0.5357 0.0
H1411 H 0.85696 0.66535 0.49826 0.0
C1412 C 0.8602 0.71491 0.47759 0.0
C1413 C 0.86133 0.74212 0.46871 0.0
C1414 C 0.85517 0.71027 0.49928 0.0
C1415 C 0.85747 0.7647 0.48202 0.0
C1416 C 0.85244 0.76023 0.5036 0.0
C1417 C 0.84557 0.72807 0.53402 0.0
C1418 C 0.84364 0.70038 0.54267 0.0
C1419 C 0.85117 0.73306 0.5124 0.0
C1420 C 0.84807 0.67814 0.52944 0.0
C1421 C 0.8538 0.68303 0.50802 0.0
loop_
_geom_bond_atom_site_label_1
_geom_bond_atom_site_label_2
_geom_bond_distance
_geom_bond_site_symmetry_2
_ccdc_geom_bond_type
H0 C3 0.929 . S
H1 C6 0.929 . S
H2 C8 0.930 . S
C3 H0 0.929 . S
C3 C4 1.398 . S
C3 C5 1.396 . S
C4 C3 1.398 . S
C4 C8 1.407 . S
C5 C3 1.396 . S
C5 C6 1.394 . S
C6 H1 0.929 . S
C6 C5 1.394 . S
C6 C7 1.382 . S
C7 C6 1.382 . S
C7 C8 1.392 . S
C7 N9 1.420 . S
C8 H2 0.930 . S
C8 C4 1.407 . S
C8 C7 1.392 . S
N9 C7 1.420 . S
N9 C10 1.244 . S
C10 N9 1.244 . S
H11 C14 0.929 . S
H12 C17 0.929 . S
H13 C19 0.930 . S
C14 H11 0.929 . S
C14 C15 1.398 . S
C14 C16 1.396 . S
C15 C14 1.398 . S
C15 C19 1.407 . S
C16 C14 1.396 . S
C16 C17 1.394 . S
C17 H12 0.929 . S
C17 C16 1.394 . S
C17 C18 1.382 . S
C18 C17 1.382 . S
C18 C19 1.392 . S
C18 N20 1.420 . S
C19 H13 0.930 . S
C19 C15 1.407 . S
C19 C18 1.392 . S
N20 C18 1.420 . S
N20 C21 1.244 . S
C21 N20 1.244 . S
H22 C25 0.929 . S
H23 C28 0.929 . S
H24 C30 0.930 . S
C25 H22 0.929 . S
C25 C26 1.398 . S
C25 C27 1.396 . S
C26 C25 1.398 . S
C26 C30 1.407 . S
C27 C25 1.396 . S
C27 C28 1.394 . S
C28 H23 0.929 . S
C28 C27 1.394 . S
C28 C29 1.382 . S
C29 C28 1.382 . S
C29 C30 1.392 . S
C29 N31 1.420 . S
C30 H24 0.930 . S
C30 C26 1.407 . S
C30 C29 1.392 . S
N31 C29 1.420 . S
N31 C32 1.244 . S
C32 N31 1.244 . S
H33 C36 0.929 . S
H34 C39 0.929 . S
H35 C41 0.930 . S
C36 H33 0.929 . S
C36 C37 1.398 . S
C36 C38 1.396 . S
C37 C36 1.398 . S
C37 C41 1.407 . S
C38 C36 1.396 . S
C38 C39 1.394 . S
C39 H34 0.929 . S
C39 C38 1.394 . S
C39 C40 1.382 . S
C40 C39 1.382 . S
C40 C41 1.392 . S
C40 N42 1.420 . S
C41 H35 0.930 . S
C41 C37 1.407 . S
C41 C40 1.392 . S
N42 C40 1.420 . S
N42 C43 1.244 . S
C43 N42 1.244 . S
H44 C47 0.929 . S
H45 C50 0.929 . S
H46 C52 0.930 . S
C47 H44 0.929 . S
C47 C48 1.398 . S
C47 C49 1.396 . S
C48 C47 1.398 . S
C48 C52 1.407 . S
C49 C47 1.396 . S
C49 C50 1.394 . S
C50 H45 0.929 . S
C50 C49 1.394 . S
C50 C51 1.382 . S
C51 C50 1.382 . S
C51 C52 1.392 . S
C51 N53 1.420 . S
C52 H46 0.930 . S
C52 C48 1.407 . S
C52 C51 1.392 . S
N53 C51 1.420 . S
N53 C54 1.244 . S
C54 N53 1.244 . S
H55 C58 0.929 . S
H56 C61 0.929 . S
H57 C63 0.930 . S
C58 H55 0.929 . S
C58 C59 1.398 . S
C58 C60 1.396 . S
C59 C58 1.398 . S
C59 C63 1.407 . S
C60 C58 1.396 . S
C60 C61 1.394 . S
C61 H56 0.929 . S
C61 C60 1.394 . S
C61 C62 1.382 . S
C62 C61 1.382 . S
C62 C63 1.392 . S
C62 N64 1.420 . S
C63 H57 0.930 . S
C63 C59 1.407 . S
C63 C62 1.392 . S
N64 C62 1.420 . S
N64 C65 1.244 . S
C65 N64 1.244 . S
H66 C69 0.929 . S
H67 C72 0.929 . S
H68 C74 0.930 . S
C69 H66 0.929 . S
C69 C70 1.398 . S
C69 C71 1.396 . S
C70 C69 1.398 . S
C70 C74 1.407 . S
C71 C69 1.396 . S
C71 C72 1.394 . S
C72 H67 0.929 . S
C72 C71 1.394 . S
C72 C73 1.382 . S
C73 C72 1.382 . S
C73 C74 1.392 . S
C73 N75 1.420 . S
C74 H68 0.930 . S
C74 C70 1.407 . S
C74 C73 1.392 . S
N75 C73 1.420 . S
N75 C76 1.244 . S
C76 N75 1.244 . S
H77 C80 0.929 . S
H78 C83 0.929 . S
H79 C85 0.930 . S
C80 H77 0.929 . S
C80 C81 1.398 . S
C80 C82 1.396 . S
C81 C80 1.398 . S
C81 C85 1.407 . S
C82 C80 1.396 . S
C82 C83 1.394 . S
C83 H78 0.929 . S
C83 C82 1.394 . S
C83 C84 1.382 . S
C84 C83 1.382 . S
C84 C85 1.392 . S
C84 N86 1.420 . S
C85 H79 0.930 . S
C85 C81 1.407 . S
C85 C84 1.392 . S
N86 C84 1.420 . S
N86 C87 1.244 . S
C87 N86 1.244 . S
H88 C91 0.929 . S
H89 C94 0.929 . S
H90 C96 0.930 . S
C91 H88 0.929 . S
C91 C92 1.398 . S
C91 C93 1.396 . S
C92 C91 1.398 . S
C92 C96 1.407 . S
C93 C91 1.396 . S
C93 C94 1.394 . S
C94 H89 0.929 . S
C94 C93 1.394 . S
C94 C95 1.382 . S
C95 C94 1.382 . S
C95 C96 1.392 . S
C95 N97 1.420 . S
C96 H90 0.930 . S
C96 C92 1.407 . S
C96 C95 1.392 . S
N97 C95 1.420 . S
N97 C98 1.244 . S
C98 N97 1.244 . S
H99 C102 0.929 . S
H100 C105 0.929 . S
H101 C107 0.930 . S
C102 H99 0.929 . S
C102 C103 1.398 . S
C102 C104 1.396 . S
C103 C102 1.398 . S
C103 C107 1.407 . S
C104 C102 1.396 . S
C104 C105 1.394 . S
C105 H100 0.929 . S
C105 C104 1.394 . S
C105 C106 1.382 . S
C106 C105 1.382 . S
C106 C107 1.392 . S
C106 N108 1.420 . S
C107 H101 0.930 . S
C107 C103 1.407 . S
C107 C106 1.392 . S
N108 C106 1.420 . S
N108 C109 1.244 . S
C109 N108 1.244 . S
H110 C113 0.929 . S
H111 C116 0.929 . S
H112 C118 0.876 1_554 S
C113 H110 0.929 . S
C113 C114 1.398 . S
C113 C115 1.396 . S
C114 C113 1.398 . S
C114 C118 1.407 . S
C115 C113 1.396 . S
C115 C116 1.394 . S
C116 H111 0.929 . S
C116 C115 1.394 . S
C116 C117 1.382 . S
C117 C116 1.382 . S
C117 C118 1.392 . S
C117 N119 1.420 . S
C118 H112 0.876 1_556 S
C118 C114 1.407 . S
C118 C117 1.392 . S
N119 C117 1.420 . S
N119 C120 1.244 . S
C120 N119 1.244 . S
H121 C124 0.929 . S
H122 C127 0.929 . S
H123 C129 0.930 . S
C124 H121 0.929 . S
C124 C125 1.398 . S
C124 C126 1.396 . S
C125 C124 1.398 . S
C125 C129 1.407 . S
C126 C124 1.396 . S
C126 C127 1.394 . S
C127 H122 0.929 . S
C127 C126 1.394 . S
C127 C128 1.382 . S
C128 C127 1.382 . S
C128 C129 1.392 . S
C128 N130 1.420 . S
C129 H123 0.930 . S
C129 C125 1.407 . S
C129 C128 1.392 . S
N130 C128 1.420 . S
N130 C131 1.244 . S
C131 N130 1.244 . S
H132 C135 0.929 . S
H133 C138 0.929 . S
H134 C140 0.930 . S
C135 H132 0.929 . S
C135 C136 1.398 . S
C135 C137 1.396 . S
C136 C135 1.398 . S
C136 C140 1.407 . S
C137 C135 1.396 . S
C137 C138 1.394 . S
C138 H133 0.929 . S
C138 C137 1.394 . S
C138 C139 1.382 . S
C139 C138 1.382 . S
C139 C140 1.392 . S
C139 N141 1.420 . S
C140 H134 0.930 . S
C140 C136 1.407 . S
C140 C139 1.392 . S
N141 C139 1.420 . S
N141 C142 1.244 . S
C142 N141 1.244 . S
H143 C146 0.929 . S
H144 C149 0.929 . S
H145 C151 0.930 . S
C146 H143 0.929 . S
C146 C147 1.398 . S
C146 C148 1.396 . S
C147 C146 1.398 . S
C147 C151 1.407 . S
C148 C146 1.396 . S
C148 C149 1.394 . S
C149 H144 0.929 . S
C149 C148 1.394 . S
C149 C150 1.382 . S
C150 C149 1.382 . S
C150 C151 1.392 . S
C150 N152 1.420 . S
C151 H145 0.930 . S
C151 C147 1.407 . S
C151 C150 1.392 . S
N152 C150 1.420 . S
N152 C153 1.244 . S
C153 N152 1.244 . S
H154 C157 0.929 . S
H155 C160 0.929 . S
H156 C162 0.930 . S
C157 H154 0.929 . S
C157 C158 1.398 . S
C157 C159 1.396 . S
C158 C157 1.398 . S
C158 C162 1.407 . S
C159 C157 1.396 . S
C159 C160 1.394 . S
C160 H155 0.929 . S
C160 C159 1.394 . S
C160 C161 1.382 . S
C161 C160 1.382 . S
C161 C162 1.392 . S
C161 N163 1.420 . S
C162 H156 0.930 . S
C162 C158 1.407 . S
C162 C161 1.392 . S
N163 C161 1.420 . S
N163 C164 1.244 . S
C164 N163 1.244 . S
H165 C168 0.929 . S
H166 C171 0.929 . S
H167 C173 0.930 . S
C168 H165 0.929 . S
C168 C169 1.398 . S
C168 C170 1.396 . S
C169 C168 1.398 . S
C169 C173 1.407 . S
C170 C168 1.396 . S
C170 C171 1.394 . S
C171 H166 0.929 . S
C171 C170 1.394 . S
C171 C172 1.382 . S
C172 C171 1.382 . S
C172 C173 1.392 . S
C172 N174 1.420 . S
C173 H167 0.930 . S
C173 C169 1.407 . S
C173 C172 1.392 . S
N174 C172 1.420 . S
N174 C175 1.244 . S
C175 N174 1.244 . S
H176 C179 0.929 . S
H177 C182 0.929 . S
H178 C184 0.930 . S
C179 H176 0.929 . S
C179 C180 1.398 . S
C179 C181 1.396 . S
C180 C179 1.398 . S
C180 C184 1.407 . S
C181 C179 1.396 . S
C181 C182 1.394 . S
C182 H177 0.929 . S
C182 C181 1.394 . S
C182 C183 1.382 . S
C183 C182 1.382 . S
C183 C184 1.392 . S
C183 N185 1.420 . S
C184 H178 0.930 . S
C184 C180 1.407 . S
C184 C183 1.392 . S
N185 C183 1.420 . S
N185 C186 1.244 . S
C186 N185 1.244 . S
H187 C190 0.929 . S
H188 C193 0.929 . S
H189 C195 0.930 . S
C190 H187 0.929 . S
C190 C191 1.398 . S
C190 C192 1.396 . S
C191 C190 1.398 . S
C191 C195 1.407 . S
C192 C190 1.396 . S
C192 C193 1.394 . S
C193 H188 0.929 . S
C193 C192 1.394 . S
C193 C194 1.382 . S
C194 C193 1.382 . S
C194 C195 1.392 . S
C194 N196 1.420 . S
C195 H189 0.930 . S
C195 C191 1.407 . S
C195 C194 1.392 . S
N196 C194 1.420 . S
N196 C197 1.244 . S
C197 N196 1.244 . S
C198 Eu199 2.835 . S
C198 C200 1.500 1_545 S
C198 O218 1.257 1_545 S
C198 O219 1.260 . S
Eu199 C198 2.835 . S
Eu199 O218 2.473 1_545 S
Eu199 O219 2.480 . S
Eu199 O220 2.430 . S
Eu199 O221 2.670 1_554 S
Eu199 O222 2.394 1_545 S
Eu199 O227 2.355 1_545 S
Eu199 O229 2.374 . S
C200 C198 1.500 1_565 S
C200 C201 1.377 1_565 S
C200 C205 1.377 . S
C201 C200 1.377 1_545 S
C201 C202 1.395 . S
C201 H230 0.931 . S
C202 C201 1.395 . S
C202 C203 1.383 1_545 S
C202 H231 0.931 . S
C203 C202 1.383 1_565 S
C203 C204 1.394 . S
C204 C203 1.394 . S
C204 C205 1.378 . S
C204 H232 0.931 . S
C205 C200 1.377 . S
C205 C204 1.378 . S
C205 H233 0.931 . S
C206 O220 1.259 . S
C206 O221 1.270 1_554 S
C207 O222 1.251 . S
C207 O223 1.251 1_554 S
C208 Eu209 2.835 1_545 S
C208 C210 1.500 . S
C208 O224 1.257 . S
C208 O225 1.260 1_545 S
Eu209 C208 2.835 1_565 S
Eu209 O221 2.355 1_565 S
Eu209 O223 2.374 . S
Eu209 O224 2.473 1_565 S
Eu209 O225 2.480 . S
Eu209 O226 2.430 . S
Eu209 O227 2.670 1_556 S
Eu209 O228 2.394 1_565 S
C210 C208 1.500 . S
C210 C211 1.377 . S
C210 C215 1.377 . S
C211 C210 1.377 . S
C211 C212 1.395 . S
C211 H234 0.931 1_545 S
C212 C211 1.395 . S
C212 C213 1.383 . S
C212 H235 0.931 1_545 S
C213 C212 1.383 . S
C213 C214 1.394 . S
C214 C213 1.394 . S
C214 C215 1.378 . S
C214 H236 0.931 . S
C215 C210 1.377 . S
C215 C214 1.378 . S
C215 H237 0.931 . S
C216 O226 1.259 1_554 S
C216 O227 1.270 . S
C217 O228 1.251 . S
C217 O229 1.251 1_556 S
O218 C198 1.257 1_565 S
O218 Eu199 2.473 1_565 S
O219 C198 1.260 . S
O219 Eu199 2.480 . S
O220 Eu199 2.430 . S
O220 C206 1.259 . S
O221 Eu199 2.670 1_556 S
O221 C206 1.270 1_556 S
O221 Eu209 2.355 1_545 S
O222 Eu199 2.394 1_565 S
O222 C207 1.251 . S
O223 C207 1.251 1_556 S
O223 Eu209 2.374 . S
O224 C208 1.257 . S
O224 Eu209 2.473 1_545 S
O225 C208 1.260 1_565 S
O225 Eu209 2.480 . S
O226 Eu209 2.430 . S
O226 C216 1.259 1_556 S
O227 Eu199 2.355 1_565 S
O227 Eu209 2.670 1_554 S
O227 C216 1.270 . S
O228 Eu209 2.394 1_545 S
O228 C217 1.251 . S
O229 Eu199 2.374 . S
O229 C217 1.251 1_554 S
H230 C201 0.931 . S
H231 C202 0.931 . S
H232 C204 0.931 . S
H233 C205 0.931 . S
H234 C211 0.931 1_565 S
H235 C212 0.931 1_565 S
H236 C214 0.931 . S
H237 C215 0.931 . S
C238 Eu239 2.835 1_455 S
C238 C240 1.500 . S
C238 O258 1.257 . S
C238 O259 1.260 1_455 S
Eu239 C238 2.835 1_655 S
Eu239 O258 2.473 1_655 S
Eu239 O259 2.480 . S
Eu239 O260 2.430 . S
Eu239 O261 2.670 1_554 S
Eu239 O262 2.394 1_655 S
Eu239 O267 2.355 1_655 S
Eu239 O269 2.374 . S
C240 C238 1.500 . S
C240 C241 1.377 . S
C240 C245 1.377 . S
C241 C240 1.377 . S
C241 C242 1.395 . S
C241 H270 0.931 1_455 S
C242 C241 1.395 . S
C242 C243 1.383 . S
C242 H271 0.939 . S
C243 C242 1.383 . S
C243 C244 1.394 . S
C244 C243 1.394 . S
C244 C245 1.378 . S
C244 H272 0.931 . S
C245 C240 1.377 . S
C245 C244 1.378 . S
C245 H273 0.931 . S
C246 O260 1.298 . S
C246 O261 1.252 1_554 S
C247 O262 1.251 . S
C247 O263 1.251 . S
C248 Eu249 2.835 1_655 S
C248 C250 1.500 . S
C248 O264 1.257 . S
C248 O265 1.260 1_655 S
Eu249 C248 2.835 1_455 S
Eu249 O261 2.355 1_455 S
Eu249 O263 2.374 1_556 S
Eu249 O264 2.473 1_455 S
Eu249 O265 2.480 . S
Eu249 O266 2.430 . S
Eu249 O267 2.670 1_556 S
Eu249 O268 2.394 1_455 S
C250 C248 1.500 . S
C250 C251 1.370 1_655 S
C250 C255 1.377 . S
C251 C250 1.370 1_455 S
C251 C252 1.388 1_455 S
C251 H274 0.946 . S
C252 C251 1.388 1_655 S
C252 C253 1.383 . S
C252 H275 0.931 1_655 S
C253 C252 1.383 . S
C253 C254 1.394 . S
C254 C253 1.394 . S
C254 C255 1.378 . S
C254 H276 0.931 . S
C255 C250 1.377 . S
C255 C254 1.378 . S
C255 H277 0.931 . S
C256 O266 1.259 1_554 S
C256 O267 1.270 . S
C257 O268 1.251 . S
C257 O269 1.251 1_556 S
O258 C238 1.257 . S
O258 Eu239 2.473 1_455 S
O259 C238 1.260 1_655 S
O259 Eu239 2.480 . S
O260 Eu239 2.430 . S
O260 C246 1.298 . S
O261 Eu239 2.670 1_556 S
O261 C246 1.252 1_556 S
O261 Eu249 2.355 1_655 S
O262 Eu239 2.394 1_455 S
O262 C247 1.251 . S
O263 C247 1.251 . S
O263 Eu249 2.374 1_554 S
O264 C248 1.257 . S
O264 Eu249 2.473 1_655 S
O265 C248 1.260 1_455 S
O265 Eu249 2.480 . S
O266 Eu249 2.430 . S
O266 C256 1.259 1_556 S
O267 Eu239 2.355 1_455 S
O267 Eu249 2.670 1_554 S
O267 C256 1.270 . S
O268 Eu249 2.394 1_655 S
O268 C257 1.251 . S
O269 Eu239 2.374 . S
O269 C257 1.251 1_554 S
H270 C241 0.931 1_655 S
H271 C242 0.939 . S
H272 C244 0.931 . S
H273 C245 0.931 . S
H274 C251 0.946 . S
H275 C252 0.931 1_455 S
H276 C254 0.931 . S
H277 C255 0.931 . S
C278 Eu279 2.835 . S
C278 C280 1.500 . S
C278 O298 1.257 . S
C278 O299 1.260 . S
Eu279 C278 2.835 . S
Eu279 O298 2.473 . S
Eu279 O299 2.480 . S
Eu279 O300 2.430 . S
Eu279 O301 2.670 1_556 S
Eu279 O302 2.394 . S
Eu279 O307 2.385 . S
Eu279 O309 2.374 1_556 S
C280 C278 1.500 . S
C280 C281 1.377 . S
C280 C285 1.377 . S
C281 C280 1.377 . S
C281 C282 1.395 . S
C281 H310 0.931 . S
C282 C281 1.395 . S
C282 C283 1.383 . S
C282 H311 0.931 . S
C283 C282 1.383 . S
C283 C284 1.394 . S
C284 C283 1.394 . S
C284 C285 1.378 . S
C284 H312 0.931 . S
C285 C280 1.377 . S
C285 C284 1.378 . S
C285 H313 0.931 . S
C286 O300 1.259 1_554 S
C286 O301 1.270 . S
C287 O302 1.251 . S
C287 O303 1.251 1_556 S
C288 Eu289 2.835 . S
C288 C290 1.500 . S
C288 O304 1.257 . S
C288 O305 1.260 . S
Eu289 C288 2.835 . S
Eu289 O301 2.355 . S
Eu289 O303 2.374 . S
Eu289 O304 2.473 . S
Eu289 O305 2.480 . S
Eu289 O306 2.430 . S
Eu289 O307 2.626 1_554 S
Eu289 O308 2.394 . S
C290 C288 1.500 . S
C290 C291 1.377 . S
C290 C295 1.377 . S
C291 C290 1.377 . S
C291 C292 1.395 . S
C291 H314 0.931 . S
C292 C291 1.395 . S
C292 C293 1.383 . S
C292 H315 0.931 . S
C293 C292 1.383 . S
C293 C294 1.394 . S
C294 C293 1.394 . S
C294 C295 1.378 . S
C294 H316 0.931 . S
C295 C290 1.377 . S
C295 C294 1.378 . S
C295 H317 0.931 . S
C296 O306 1.259 . S
C296 O307 1.246 1_554 S
C297 O308 1.251 . S
C297 O309 1.251 . S
O298 C278 1.257 . S
O298 Eu279 2.473 . S
O299 C278 1.260 . S
O299 Eu279 2.480 . S
O300 Eu279 2.430 . S
O300 C286 1.259 1_556 S
O301 Eu279 2.670 1_554 S
O301 C286 1.270 . S
O301 Eu289 2.355 . S
O302 Eu279 2.394 . S
O302 C287 1.251 . S
O303 C287 1.251 1_554 S
O303 Eu289 2.374 . S
O304 C288 1.257 . S
O304 Eu289 2.473 . S
O305 C288 1.260 . S
O305 Eu289 2.480 . S
O306 Eu289 2.430 . S
O306 C296 1.259 . S
O307 Eu279 2.385 . S
O307 Eu289 2.626 1_556 S
O307 C296 1.246 1_556 S
O308 Eu289 2.394 . S
O308 C297 1.251 . S
O309 Eu279 2.374 1_554 S
O309 C297 1.251 . S
H310 C281 0.931 . S
H311 C282 0.931 . S
H312 C284 0.931 . S
H313 C285 0.931 . S
H314 C291 0.931 . S
H315 C292 0.931 . S
H316 C294 0.931 . S
H317 C295 0.931 . S
C318 Eu319 2.835 . S
C318 C320 1.500 . S
C318 O338 1.257 . S
C318 O339 1.260 . S
Eu319 C318 2.835 . S
Eu319 O338 2.473 . S
Eu319 O339 2.480 . S
Eu319 O340 2.430 . S
Eu319 O341 2.670 . S
Eu319 O342 2.394 . S
Eu319 O347 2.355 . S
Eu319 O349 2.374 . S
C320 C318 1.500 . S
C320 C321 1.377 . S
C320 C325 1.377 . S
C321 C320 1.377 . S
C321 C322 1.395 . S
C321 H350 0.931 . S
C322 C321 1.395 . S
C322 C323 1.383 . S
C322 H351 0.931 . S
C323 C322 1.383 . S
C323 C324 1.394 . S
C324 C323 1.394 . S
C324 C325 1.378 . S
C324 H352 0.931 . S
C325 C320 1.377 . S
C325 C324 1.378 . S
C325 H353 0.931 . S
C326 O340 1.259 . S
C326 O341 1.270 . S
C327 O342 1.251 . S
C327 O343 1.251 . S
C328 Eu329 2.835 . S
C328 C330 1.500 . S
C328 O344 1.257 . S
C328 O345 1.260 . S
Eu329 C328 2.835 . S
Eu329 O341 2.355 . S
Eu329 O343 2.374 . S
Eu329 O344 2.473 . S
Eu329 O345 2.480 . S
Eu329 O346 2.430 . S
Eu329 O347 2.670 . S
Eu329 O348 2.394 . S
C330 C328 1.500 . S
C330 C331 1.377 . S
C330 C335 1.377 . S
C331 C330 1.377 . S
C331 C332 1.395 . S
C331 H354 0.931 . S
C332 C331 1.395 . S
C332 C333 1.383 . S
C332 H355 0.931 . S
C333 C332 1.383 . S
C333 C334 1.394 . S
C334 C333 1.394 . S
C334 C335 1.378 . S
C334 H356 0.931 . S
C335 C330 1.377 . S
C335 C334 1.378 . S
C335 H357 0.931 . S
C336 O346 1.259 . S
C336 O347 1.270 . S
C337 O348 1.251 . S
C337 O349 1.251 . S
O338 C318 1.257 . S
O338 Eu319 2.473 . S
O339 C318 1.260 . S
O339 Eu319 2.480 . S
O340 Eu319 2.430 . S
O340 C326 1.259 . S
O341 Eu319 2.670 . S
O341 C326 1.270 . S
O341 Eu329 2.355 . S
O342 Eu319 2.394 . S
O342 C327 1.251 . S
O343 C327 1.251 . S
O343 Eu329 2.374 . S
O344 C328 1.257 . S
O344 Eu329 2.473 . S
O345 C328 1.260 . S
O345 Eu329 2.480 . S
O346 Eu329 2.430 . S
O346 C336 1.259 . S
O347 Eu319 2.355 . S
O347 Eu329 2.670 . S
O347 C336 1.270 . S
O348 Eu329 2.394 . S
O348 C337 1.251 . S
O349 Eu319 2.374 . S
O349 C337 1.251 . S
H350 C321 0.931 . S
H351 C322 0.931 . S
H352 C324 0.931 . S
H353 C325 0.931 . S
H354 C331 0.931 . S
H355 C332 0.931 . S
H356 C334 0.931 . S
H357 C335 0.931 . S
C358 Eu359 2.835 . S
C358 C360 1.500 . S
C358 O378 1.257 . S
C358 O379 1.260 . S
Eu359 C358 2.835 . S
Eu359 O378 2.473 . S
Eu359 O379 2.480 . S
Eu359 O380 2.430 . S
Eu359 O381 2.670 . S
Eu359 O382 2.394 . S
Eu359 O387 2.355 . S
Eu359 O389 2.374 . S
C360 C358 1.500 . S
C360 C361 1.377 . S
C360 C365 1.377 . S
C361 C360 1.377 . S
C361 C362 1.395 . S
C361 H390 0.931 . S
C362 C361 1.395 . S
C362 C363 1.383 . S
C362 H391 0.931 . S
C363 C362 1.383 . S
C363 C364 1.394 . S
C364 C363 1.394 . S
C364 C365 1.378 . S
C364 H392 0.931 . S
C365 C360 1.377 . S
C365 C364 1.378 . S
C365 H393 0.931 . S
C366 O380 1.259 . S
C366 O381 1.270 . S
C367 O382 1.251 . S
C367 O383 1.251 . S
C368 Eu369 2.835 . S
C368 C370 1.500 . S
C368 O384 1.257 . S
C368 O385 1.260 . S
Eu369 C368 2.835 . S
Eu369 O381 2.355 . S
Eu369 O383 2.374 . S
Eu369 O384 2.473 . S
Eu369 O385 2.480 . S
Eu369 O386 2.430 . S
Eu369 O387 2.670 . S
Eu369 O388 2.394 . S
C370 C368 1.500 . S
C370 C371 1.377 . S
C370 C375 1.377 . S
C371 C370 1.377 . S
C371 C372 1.395 . S
C371 H394 0.931 . S
C372 C371 1.395 . S
C372 C373 1.383 . S
C372 H395 0.931 . S
C373 C372 1.383 . S
C373 C374 1.394 . S
C374 C373 1.394 . S
C374 C375 1.378 . S
C374 H396 0.931 . S
C375 C370 1.377 . S
C375 C374 1.378 . S
C375 H397 0.931 . S
C376 O386 1.259 . S
C376 O387 1.270 . S
C377 O388 1.251 . S
C377 O389 1.251 . S
O378 C358 1.257 . S
O378 Eu359 2.473 . S
O379 C358 1.260 . S
O379 Eu359 2.480 . S
O380 Eu359 2.430 . S
O380 C366 1.259 . S
O381 Eu359 2.670 . S
O381 C366 1.270 . S
O381 Eu369 2.355 . S
O382 Eu359 2.394 . S
O382 C367 1.251 . S
O383 C367 1.251 . S
O383 Eu369 2.374 . S
O384 C368 1.257 . S
O384 Eu369 2.473 . S
O385 C368 1.260 . S
O385 Eu369 2.480 . S
O386 Eu369 2.430 . S
O386 C376 1.259 . S
O387 Eu359 2.355 . S
O387 Eu369 2.670 . S
O387 C376 1.270 . S
O388 Eu369 2.394 . S
O388 C377 1.251 . S
O389 Eu359 2.374 . S
O389 C377 1.251 . S
H390 C361 0.931 . S
H391 C362 0.931 . S
H392 C364 0.931 . S
H393 C365 0.931 . S
H394 C371 0.931 . S
H395 C372 0.931 . S
H396 C374 0.931 . S
H397 C375 0.931 . S
C398 Eu399 2.835 . S
C398 C400 1.500 . S
C398 O418 1.257 . S
C398 O419 1.260 . S
Eu399 C398 2.835 . S
Eu399 O418 2.473 . S
Eu399 O419 2.480 . S
Eu399 O420 2.430 . S
Eu399 O421 2.670 . S
Eu399 O422 2.394 . S
Eu399 O427 2.355 . S
Eu399 O429 2.374 . S
C400 C398 1.500 . S
C400 C401 1.377 . S
C400 C405 1.377 . S
C401 C400 1.377 . S
C401 C402 1.395 . S
C401 H430 0.931 . S
C402 C401 1.395 . S
C402 C403 1.383 . S
C402 H431 0.931 . S
C403 C402 1.383 . S
C403 C404 1.394 . S
C404 C403 1.394 . S
C404 C405 1.378 . S
C404 H432 0.931 . S
C405 C400 1.377 . S
C405 C404 1.378 . S
C405 H433 0.931 . S
C406 O420 1.259 . S
C406 O421 1.270 . S
C407 O422 1.251 . S
C407 O423 1.251 . S
C408 Eu409 2.835 . S
C408 C410 1.500 . S
C408 O424 1.257 . S
C408 O425 1.260 . S
Eu409 C408 2.835 . S
Eu409 O421 2.355 . S
Eu409 O423 2.374 . S
Eu409 O424 2.473 . S
Eu409 O425 2.480 . S
Eu409 O426 2.430 . S
Eu409 O427 2.670 . S
Eu409 O428 2.394 . S
C410 C408 1.500 . S
C410 C411 1.377 . S
C410 C415 1.377 . S
C411 C410 1.377 . S
C411 C412 1.395 . S
C411 H434 0.931 . S
C412 C411 1.395 . S
C412 C413 1.383 . S
C412 H435 0.931 . S
C413 C412 1.383 . S
C413 C414 1.394 . S
C414 C413 1.394 . S
C414 C415 1.378 . S
C414 H436 0.931 . S
C415 C410 1.377 . S
C415 C414 1.378 . S
C415 H437 0.931 . S
C416 O426 1.259 . S
C416 O427 1.270 . S
C417 O428 1.251 . S
C417 O429 1.251 . S
O418 C398 1.257 . S
O418 Eu399 2.473 . S
O419 C398 1.260 . S
O419 Eu399 2.480 . S
O420 Eu399 2.430 . S
O420 C406 1.259 . S
O421 Eu399 2.670 . S
O421 C406 1.270 . S
O421 Eu409 2.355 . S
O422 Eu399 2.394 . S
O422 C407 1.251 . S
O423 C407 1.251 . S
O423 Eu409 2.374 . S
O424 C408 1.257 . S
O424 Eu409 2.473 . S
O425 C408 1.260 . S
O425 Eu409 2.480 . S
O426 Eu409 2.430 . S
O426 C416 1.259 . S
O427 Eu399 2.355 . S
O427 Eu409 2.670 . S
O427 C416 1.270 . S
O428 Eu409 2.394 . S
O428 C417 1.251 . S
O429 Eu399 2.374 . S
O429 C417 1.251 . S
H430 C401 0.931 . S
H431 C402 0.931 . S
H432 C404 0.931 . S
H433 C405 0.931 . S
H434 C411 0.931 . S
H435 C412 0.931 . S
H436 C414 0.931 . S
H437 C415 0.931 . S
C438 Eu439 2.835 . S
C438 C440 1.500 . S
C438 O458 1.257 . S
C438 O459 1.260 . S
Eu439 C438 2.835 . S
Eu439 O458 2.473 . S
Eu439 O459 2.480 . S
Eu439 O460 2.430 . S
Eu439 O461 2.670 . S
Eu439 O462 2.394 . S
Eu439 O467 2.355 . S
Eu439 O469 2.374 . S
C440 C438 1.500 . S
C440 C441 1.377 . S
C440 C445 1.377 . S
C441 C440 1.377 . S
C441 C442 1.395 . S
C441 H470 0.931 . S
C442 C441 1.395 . S
C442 C443 1.383 . S
C442 H471 0.931 . S
C443 C442 1.383 . S
C443 C444 1.394 . S
C444 C443 1.394 . S
C444 C445 1.378 . S
C444 H472 0.931 . S
C445 C440 1.377 . S
C445 C444 1.378 . S
C445 H473 0.931 . S
C446 O460 1.259 . S
C446 O461 1.270 . S
C447 O462 1.251 . S
C447 O463 1.251 . S
C448 Eu449 2.835 . S
C448 C450 1.500 . S
C448 O464 1.257 . S
C448 O465 1.260 . S
Eu449 C448 2.835 . S
Eu449 O461 2.355 . S
Eu449 O463 2.374 . S
Eu449 O464 2.473 . S
Eu449 O465 2.480 . S
Eu449 O466 2.430 . S
Eu449 O467 2.670 . S
Eu449 O468 2.394 . S
C450 C448 1.500 . S
C450 C451 1.377 . S
C450 C455 1.377 . S
C451 C450 1.377 . S
C451 C452 1.395 . S
C451 H474 0.931 . S
C452 C451 1.395 . S
C452 C453 1.383 . S
C452 H475 0.931 . S
C453 C452 1.383 . S
C453 C454 1.394 . S
C454 C453 1.394 . S
C454 C455 1.378 . S
C454 H476 0.931 . S
C455 C450 1.377 . S
C455 C454 1.378 . S
C455 H477 0.931 . S
C456 O466 1.259 . S
C456 O467 1.270 . S
C457 O468 1.251 . S
C457 O469 1.251 . S
O458 C438 1.257 . S
O458 Eu439 2.473 . S
O459 C438 1.260 . S
O459 Eu439 2.480 . S
O460 Eu439 2.430 . S
O460 C446 1.259 . S
O461 Eu439 2.670 . S
O461 C446 1.270 . S
O461 Eu449 2.355 . S
O462 Eu439 2.394 . S
O462 C447 1.251 . S
O463 C447 1.251 . S
O463 Eu449 2.374 . S
O464 C448 1.257 . S
O464 Eu449 2.473 . S
O465 C448 1.260 . S
O465 Eu449 2.480 . S
O466 Eu449 2.430 . S
O466 C456 1.259 . S
O467 Eu439 2.355 . S
O467 Eu449 2.670 . S
O467 C456 1.270 . S
O468 Eu449 2.394 . S
O468 C457 1.251 . S
O469 Eu439 2.374 . S
O469 C457 1.251 . S
H470 C441 0.931 . S
H471 C442 0.931 . S
H472 C444 0.931 . S
H473 C445 0.931 . S
H474 C451 0.931 . S
H475 C452 0.931 . S
H476 C454 0.931 . S
H477 C455 0.931 . S
C478 Eu479 2.835 . S
C478 C480 1.500 . S
C478 O498 1.257 . S
C478 O499 1.260 . S
Eu479 C478 2.835 . S
Eu479 O498 2.473 . S
Eu479 O499 2.480 . S
Eu479 O500 2.430 . S
Eu479 O501 2.670 . S
Eu479 O502 2.394 . S
Eu479 O507 2.355 . S
Eu479 O509 2.374 . S
C480 C478 1.500 . S
C480 C481 1.377 . S
C480 C485 1.377 . S
C481 C480 1.377 . S
C481 C482 1.395 . S
C481 H510 0.931 . S
C482 C481 1.395 . S
C482 C483 1.383 . S
C482 H511 0.931 . S
C483 C482 1.383 . S
C483 C484 1.394 . S
C484 C483 1.394 . S
C484 C485 1.378 . S
C484 H512 0.931 . S
C485 C480 1.377 . S
C485 C484 1.378 . S
C485 H513 0.931 . S
C486 O500 1.259 . S
C486 O501 1.270 . S
C487 O502 1.251 . S
C487 O503 1.251 . S
C488 Eu489 2.835 . S
C488 C490 1.500 . S
C488 O504 1.257 . S
C488 O505 1.260 . S
Eu489 C488 2.835 . S
Eu489 O501 2.355 . S
Eu489 O503 2.374 . S
Eu489 O504 2.473 . S
Eu489 O505 2.480 . S
Eu489 O506 2.430 . S
Eu489 O507 2.670 . S
Eu489 O508 2.394 . S
C490 C488 1.500 . S
C490 C491 1.377 . S
C490 C495 1.377 . S
C491 C490 1.377 . S
C491 C492 1.395 . S
C491 H514 0.931 . S
C492 C491 1.395 . S
C492 C493 1.383 . S
C492 H515 0.931 . S
C493 C492 1.383 . S
C493 C494 1.394 . S
C494 C493 1.394 . S
C494 C495 1.378 . S
C494 H516 0.931 . S
C495 C490 1.377 . S
C495 C494 1.378 . S
C495 H517 0.931 . S
C496 O506 1.259 . S
C496 O507 1.270 . S
C497 O508 1.251 . S
C497 O509 1.251 . S
O498 C478 1.257 . S
O498 Eu479 2.473 . S
O499 C478 1.260 . S
O499 Eu479 2.480 . S
O500 Eu479 2.430 . S
O500 C486 1.259 . S
O501 Eu479 2.670 . S
O501 C486 1.270 . S
O501 Eu489 2.355 . S
O502 Eu479 2.394 . S
O502 C487 1.251 . S
O503 C487 1.251 . S
O503 Eu489 2.374 . S
O504 C488 1.257 . S
O504 Eu489 2.473 . S
O505 C488 1.260 . S
O505 Eu489 2.480 . S
O506 Eu489 2.430 . S
O506 C496 1.259 . S
O507 Eu479 2.355 . S
O507 Eu489 2.670 . S
O507 C496 1.270 . S
O508 Eu489 2.394 . S
O508 C497 1.251 . S
O509 Eu479 2.374 . S
O509 C497 1.251 . S
H510 C481 0.931 . S
H511 C482 0.931 . S
H512 C484 0.931 . S
H513 C485 0.931 . S
H514 C491 0.931 . S
H515 C492 0.931 . S
H516 C494 0.931 . S
H517 C495 0.931 . S
C518 Eu519 2.835 . S
C518 C520 1.500 . S
C518 O538 1.257 . S
C518 O539 1.260 . S
Eu519 C518 2.835 . S
Eu519 O538 2.473 . S
Eu519 O539 2.480 . S
Eu519 O540 2.430 . S
Eu519 O541 2.670 . S
Eu519 O542 2.394 . S
Eu519 O547 2.355 . S
Eu519 O549 2.374 . S
C520 C518 1.500 . S
C520 C521 1.377 . S
C520 C525 1.377 . S
C521 C520 1.377 . S
C521 C522 1.395 . S
C521 H550 0.931 . S
C522 C521 1.395 . S
C522 C523 1.383 . S
C522 H551 0.931 . S
C523 C522 1.383 . S
C523 C524 1.394 . S
C524 C523 1.394 . S
C524 C525 1.378 . S
C524 H552 0.931 . S
C525 C520 1.377 . S
C525 C524 1.378 . S
C525 H553 0.931 . S
C526 O540 1.259 . S
C526 O541 1.270 . S
C527 O542 1.251 . S
C527 O543 1.251 . S
C528 Eu529 2.835 . S
C528 C530 1.500 . S
C528 O544 1.257 . S
C528 O545 1.260 . S
Eu529 C528 2.835 . S
Eu529 O541 2.355 . S
Eu529 O543 2.374 . S
Eu529 O544 2.473 . S
Eu529 O545 2.480 . S
Eu529 O546 2.430 . S
Eu529 O547 2.670 . S
Eu529 O548 2.394 . S
C530 C528 1.500 . S
C530 C531 1.377 . S
C530 C535 1.377 . S
C531 C530 1.377 . S
C531 C532 1.395 . S
C531 H554 0.931 . S
C532 C531 1.395 . S
C532 C533 1.383 . S
C532 H555 0.931 . S
C533 C532 1.383 . S
C533 C534 1.394 . S
C534 C533 1.394 . S
C534 C535 1.378 . S
C534 H556 0.931 . S
C535 C530 1.377 . S
C535 C534 1.378 . S
C535 H557 0.931 . S
C536 O546 1.259 . S
C536 O547 1.270 . S
C537 O548 1.251 . S
C537 O549 1.251 . S
O538 C518 1.257 . S
O538 Eu519 2.473 . S
O539 C518 1.260 . S
O539 Eu519 2.480 . S
O540 Eu519 2.430 . S
O540 C526 1.259 . S
O541 Eu519 2.670 . S
O541 C526 1.270 . S
O541 Eu529 2.355 . S
O542 Eu519 2.394 . S
O542 C527 1.251 . S
O543 C527 1.251 . S
O543 Eu529 2.374 . S
O544 C528 1.257 . S
O544 Eu529 2.473 . S
O545 C528 1.260 . S
O545 Eu529 2.480 . S
O546 Eu529 2.430 . S
O546 C536 1.259 . S
O547 Eu519 2.355 . S
O547 Eu529 2.670 . S
O547 C536 1.270 . S
O548 Eu529 2.394 . S
O548 C537 1.251 . S
O549 Eu519 2.374 . S
O549 C537 1.251 . S
H550 C521 0.931 . S
H551 C522 0.931 . S
H552 C524 0.931 . S
H553 C525 0.931 . S
H554 C531 0.931 . S
H555 C532 0.931 . S
H556 C534 0.931 . S
H557 C535 0.931 . S
H558 C564 0.930 . S
H559 C567 0.930 . S
H560 C568 0.930 . S
H561 C569 0.930 . S
H562 C572 0.930 . S
H563 C573 0.930 . S
C564 H558 0.930 . S
C564 C565 1.355 . S
C564 C566 1.415 . S
C565 C564 1.355 . S
C565 C567 1.419 . S
C566 C564 1.415 . S
C566 C571 1.425 . S
C566 C573 1.409 . S
C567 H559 0.930 . S
C567 C565 1.419 . S
C567 C568 1.362 . S
C568 H560 0.930 . S
C568 C567 1.362 . S
C568 C571 1.409 . S
C569 H561 0.930 . S
C569 C570 1.355 . S
C569 C571 1.415 . S
C570 C569 1.355 . S
C570 C572 1.419 . S
C571 C566 1.425 . S
C571 C568 1.409 . S
C571 C569 1.415 . S
C572 H562 0.930 . S
C572 C570 1.419 . S
C572 C573 1.362 . S
C573 H563 0.930 . S
C573 C566 1.409 . S
C573 C572 1.362 . S
H574 C580 0.930 . S
H575 C583 0.930 . S
H576 C584 0.930 . S
H577 C585 0.930 . S
H578 C588 0.930 . S
H579 C589 0.930 . S
C580 H574 0.930 . S
C580 C581 1.355 . S
C580 C582 1.415 . S
C581 C580 1.355 . S
C581 C583 1.419 . S
C582 C580 1.415 . S
C582 C587 1.425 . S
C582 C589 1.409 . S
C583 H575 0.930 . S
C583 C581 1.419 . S
C583 C584 1.362 . S
C584 H576 0.930 . S
C584 C583 1.362 . S
C584 C587 1.409 . S
C585 H577 0.930 . S
C585 C586 1.355 . S
C585 C587 1.415 . S
C586 C585 1.355 . S
C586 C588 1.419 . S
C587 C582 1.425 . S
C587 C584 1.409 . S
C587 C585 1.415 . S
C588 H578 0.930 . S
C588 C586 1.419 . S
C588 C589 1.362 . S
C589 H579 0.930 . S
C589 C582 1.409 . S
C589 C588 1.362 . S
H590 C596 0.930 . S
H591 C599 0.930 . S
H592 C600 0.930 1_556 S
H593 C601 0.937 . S
H594 C604 0.930 . S
H595 C605 0.930 . S
C596 H590 0.930 . S
C596 C597 1.355 . S
C596 C598 1.415 . S
C597 C596 1.355 . S
C597 C599 1.419 . S
C598 C596 1.415 . S
C598 C603 1.425 . S
C598 C605 1.409 . S
C599 H591 0.930 . S
C599 C597 1.419 . S
C599 C600 1.362 . S
C600 H592 0.930 1_554 S
C600 C599 1.362 . S
C600 C603 1.409 . S
C601 H593 0.937 . S
C601 C602 1.355 . S
C601 C603 1.415 . S
C602 C601 1.355 . S
C602 C604 1.419 . S
C603 C598 1.425 . S
C603 C600 1.409 . S
C603 C601 1.415 . S
C604 H594 0.930 . S
C604 C602 1.419 . S
C604 C605 1.362 . S
C605 H595 0.930 . S
C605 C598 1.409 . S
C605 C604 1.362 . S
H606 C612 0.930 . S
H607 C615 0.930 . S
H608 C616 0.930 . S
H609 C617 0.930 . S
H610 C620 0.930 . S
H611 C621 0.930 . S
C612 H606 0.930 . S
C612 C613 1.355 . S
C612 C614 1.415 . S
C613 C612 1.355 . S
C613 C615 1.419 . S
C614 C612 1.415 . S
C614 C619 1.425 . S
C614 C621 1.409 . S
C615 H607 0.930 . S
C615 C613 1.419 . S
C615 C616 1.362 . S
C616 H608 0.930 . S
C616 C615 1.362 . S
C616 C619 1.409 . S
C617 H609 0.930 . S
C617 C618 1.355 . S
C617 C619 1.415 . S
C618 C617 1.355 . S
C618 C620 1.419 . S
C619 C614 1.425 . S
C619 C616 1.409 . S
C619 C617 1.415 . S
C620 H610 0.930 . S
C620 C618 1.419 . S
C620 C621 1.362 . S
C621 H611 0.930 . S
C621 C614 1.409 . S
C621 C620 1.362 . S
H622 C628 0.930 . S
H623 C631 0.930 . S
H624 C632 0.930 1_554 S
H625 C633 0.930 1_554 S
H626 C636 0.930 . S
H627 C637 0.930 . S
C628 H622 0.930 . S
C628 C629 1.355 . S
C628 C630 1.415 . S
C629 C628 1.355 . S
C629 C631 1.419 . S
C630 C628 1.415 . S
C630 C635 1.425 . S
C630 C637 1.409 . S
C631 H623 0.930 . S
C631 C629 1.419 . S
C631 C632 1.362 . S
C632 H624 0.930 1_556 S
C632 C631 1.362 . S
C632 C635 1.409 . S
C633 H625 0.930 1_556 S
C633 C634 1.355 . S
C633 C635 1.415 . S
C634 C633 1.355 . S
C634 C636 1.419 . S
C635 C630 1.425 . S
C635 C632 1.409 . S
C635 C633 1.415 . S
C636 H626 0.930 . S
C636 C634 1.419 . S
C636 C637 1.362 . S
C637 H627 0.930 . S
C637 C630 1.409 . S
C637 C636 1.362 . S
H638 C644 0.930 1_554 S
H639 C647 0.930 . S
H640 C648 0.930 . S
H641 C649 0.930 . S
H642 C652 0.930 . S
H643 C653 0.930 . S
C644 H638 0.930 1_556 S
C644 C645 1.355 . S
C644 C646 1.415 . S
C645 C644 1.355 . S
C645 C647 1.419 . S
C646 C644 1.415 . S
C646 C651 1.425 . S
C646 C653 1.409 1_556 S
C647 H639 0.930 . S
C647 C645 1.419 . S
C647 C648 1.362 . S
C648 H640 0.930 . S
C648 C647 1.362 . S
C648 C651 1.409 . S
C649 H641 0.930 . S
C649 C650 1.355 . S
C649 C651 1.415 . S
C650 C649 1.355 . S
C650 C652 1.419 1_556 S
C651 C646 1.425 . S
C651 C648 1.409 . S
C651 C649 1.415 . S
C652 H642 0.930 . S
C652 C650 1.419 1_554 S
C652 C653 1.362 . S
C653 H643 0.930 . S
C653 C646 1.409 1_554 S
C653 C652 1.362 . S
H654 C660 0.930 1_554 S
H655 C663 0.930 . S
H656 C664 0.930 . S
H657 C665 0.930 . S
H658 C668 0.930 . S
H659 C669 0.930 . S
C660 H654 0.930 1_556 S
C660 C661 1.355 . S
C660 C662 1.415 . S
C661 C660 1.355 . S
C661 C663 1.419 . S
C662 C660 1.415 . S
C662 C667 1.425 . S
C662 C669 1.409 1_556 S
C663 H655 0.930 . S
C663 C661 1.419 . S
C663 C664 1.362 . S
C664 H656 0.930 . S
C664 C663 1.362 . S
C664 C667 1.409 . S
C665 H657 0.930 . S
C665 C666 1.355 . S
C665 C667 1.415 . S
C666 C665 1.355 . S
C666 C668 1.419 1_556 S
C667 C662 1.425 . S
C667 C664 1.409 . S
C667 C665 1.415 . S
C668 H658 0.930 . S
C668 C666 1.419 1_554 S
C668 C669 1.362 . S
C669 H659 0.930 . S
C669 C662 1.409 1_554 S
C669 C668 1.362 . S
H670 C676 0.930 . S
H671 C679 0.930 . S
H672 C680 0.930 1_554 S
H673 C681 0.926 1_554 S
H674 C684 0.930 . S
H675 C685 0.930 . S
C676 H670 0.930 . S
C676 C677 1.355 . S
C676 C678 1.415 . S
C677 C676 1.355 . S
C677 C679 1.419 . S
C678 C676 1.415 . S
C678 C683 1.425 . S
C678 C685 1.409 . S
C679 H671 0.930 . S
C679 C677 1.419 . S
C679 C680 1.362 . S
C680 H672 0.930 1_556 S
C680 C679 1.362 . S
C680 C683 1.409 . S
C681 H673 0.926 1_556 S
C681 C682 1.355 . S
C681 C683 1.415 . S
C682 C681 1.355 . S
C682 C684 1.419 . S
C683 C678 1.425 . S
C683 C680 1.409 . S
C683 C681 1.415 . S
C684 H674 0.930 . S
C684 C682 1.419 . S
C684 C685 1.362 . S
C685 H675 0.930 . S
C685 C678 1.409 . S
C685 C684 1.362 . S
H686 C692 0.930 . S
H687 C695 0.930 . S
H688 C696 0.930 . S
H689 C697 0.930 . S
H690 C700 0.930 . S
H691 C701 0.930 . S
C692 H686 0.930 . S
C692 C693 1.355 . S
C692 C694 1.415 . S
C693 C692 1.355 . S
C693 C695 1.419 1_556 S
C694 C692 1.415 . S
C694 C699 1.425 1_556 S
C694 C701 1.409 . S
C695 H687 0.930 . S
C695 C693 1.419 1_554 S
C695 C696 1.362 . S
C696 H688 0.930 . S
C696 C695 1.362 . S
C696 C699 1.409 . S
C697 H689 0.930 . S
C697 C698 1.355 1_554 S
C697 C699 1.415 . S
C698 C697 1.355 1_556 S
C698 C700 1.419 . S
C699 C694 1.425 1_554 S
C699 C696 1.409 . S
C699 C697 1.415 . S
C700 H690 0.930 . S
C700 C698 1.419 . S
C700 C701 1.362 . S
C701 H691 0.930 . S
C701 C694 1.409 . S
C701 C700 1.362 . S
H702 C708 0.930 . S
H703 C711 0.930 . S
H704 C712 0.930 . S
H705 C713 0.930 . S
H706 C716 0.930 . S
H707 C717 0.930 . S
C708 H702 0.930 . S
C708 C709 1.355 . S
C708 C710 1.415 . S
C709 C708 1.355 . S
C709 C711 1.419 . S
C710 C708 1.415 . S
C710 C715 1.425 . S
C710 C717 1.409 . S
C711 H703 0.930 . S
C711 C709 1.419 . S
C711 C712 1.362 . S
C712 H704 0.930 . S
C712 C711 1.362 . S
C712 C715 1.409 . S
C713 H705 0.930 . S
C713 C714 1.355 . S
C713 C715 1.415 . S
C714 C713 1.355 . S
C714 C716 1.419 . S
C715 C710 1.425 . S
C715 C712 1.409 . S
C715 C713 1.415 . S
C716 H706 0.930 . S
C716 C714 1.419 . S
C716 C717 1.362 . S
C717 H707 0.930 . S
C717 C710 1.409 . S
C717 C716 1.362 . S
H718 C724 0.930 . S
H719 C727 0.930 . S
H720 C728 0.930 . S
H721 C729 0.930 . S
H722 C732 0.930 . S
H723 C733 0.930 . S
C724 H718 0.930 . S
C724 C725 1.355 . S
C724 C726 1.415 . S
C725 C724 1.355 . S
C725 C727 1.419 . S
C726 C724 1.415 . S
C726 C731 1.425 . S
C726 C733 1.409 . S
C727 H719 0.930 . S
C727 C725 1.419 . S
C727 C728 1.362 . S
C728 H720 0.930 . S
C728 C727 1.362 . S
C728 C731 1.409 . S
C729 H721 0.930 . S
C729 C730 1.355 . S
C729 C731 1.415 . S
C730 C729 1.355 . S
C730 C732 1.419 . S
C731 C726 1.425 . S
C731 C728 1.409 . S
C731 C729 1.415 . S
C732 H722 0.930 . S
C732 C730 1.419 . S
C732 C733 1.362 . S
C733 H723 0.930 . S
C733 C726 1.409 . S
C733 C732 1.362 . S
H734 C740 0.933 1_556 S
H735 C743 0.930 . S
H736 C744 0.930 . S
H737 C745 0.930 . S
H738 C748 0.930 . S
H739 C749 0.930 . S
C740 H734 0.933 1_554 S
C740 C741 1.355 . S
C740 C742 1.415 . S
C741 C740 1.355 . S
C741 C743 1.419 . S
C742 C740 1.415 . S
C742 C747 1.425 . S
C742 C749 1.409 1_554 S
C743 H735 0.930 . S
C743 C741 1.419 . S
C743 C744 1.362 . S
C744 H736 0.930 . S
C744 C743 1.362 . S
C744 C747 1.409 . S
C745 H737 0.930 . S
C745 C746 1.355 . S
C745 C747 1.415 . S
C746 C745 1.355 . S
C746 C748 1.419 1_554 S
C747 C742 1.425 . S
C747 C744 1.409 . S
C747 C745 1.415 . S
C748 H738 0.930 . S
C748 C746 1.419 1_556 S
C748 C749 1.362 . S
C749 H739 0.930 . S
C749 C742 1.409 1_556 S
C749 C748 1.362 . S
H750 C756 0.930 . S
H751 C759 0.930 . S
H752 C760 0.930 . S
H753 C761 0.930 . S
H754 C764 0.930 . S
H755 C765 0.930 . S
C756 H750 0.930 . S
C756 C757 1.355 . S
C756 C758 1.415 . S
C757 C756 1.355 . S
C757 C759 1.419 . S
C758 C756 1.415 . S
C758 C763 1.434 . S
C758 C765 1.409 . S
C759 H751 0.930 . S
C759 C757 1.419 . S
C759 C760 1.362 . S
C760 H752 0.930 . S
C760 C759 1.362 . S
C760 C763 1.409 . S
C761 H753 0.930 . S
C761 C762 1.355 . S
C761 C763 1.407 1_455 S
C762 C761 1.355 . S
C762 C764 1.419 . S
C763 C758 1.434 . S
C763 C760 1.409 . S
C763 C761 1.407 1_655 S
C764 H754 0.930 . S
C764 C762 1.419 . S
C764 C765 1.362 1_455 S
C765 H755 0.930 . S
C765 C758 1.409 . S
C765 C764 1.362 1_655 S
H766 C772 0.930 . S
H767 C775 0.930 . S
H768 C776 0.930 . S
H769 C777 0.930 . S
H770 C780 0.930 . S
H771 C781 0.930 . S
C772 H766 0.930 . S
C772 C773 1.355 . S
C772 C774 1.415 . S
C773 C772 1.355 . S
C773 C775 1.419 . S
C774 C772 1.415 . S
C774 C779 1.425 . S
C774 C781 1.409 . S
C775 H767 0.930 . S
C775 C773 1.419 . S
C775 C776 1.362 . S
C776 H768 0.930 . S
C776 C775 1.362 . S
C776 C779 1.409 . S
C777 H769 0.930 . S
C777 C778 1.355 . S
C777 C779 1.415 . S
C778 C777 1.355 . S
C778 C780 1.419 . S
C779 C774 1.425 . S
C779 C776 1.409 . S
C779 C777 1.415 . S
C780 H770 0.930 . S
C780 C778 1.419 . S
C780 C781 1.362 . S
C781 H771 0.930 . S
C781 C774 1.409 . S
C781 C780 1.362 . S
H782 C788 0.930 . S
H783 C791 0.930 . S
H784 C792 0.930 . S
H785 C793 0.930 . S
H786 C796 0.930 . S
H787 C797 0.936 . S
C788 H782 0.930 . S
C788 C789 1.355 . S
C788 C790 1.415 . S
C789 C788 1.355 . S
C789 C791 1.419 . S
C790 C788 1.415 . S
C790 C795 1.425 . S
C790 C797 1.413 . S
C791 H783 0.930 . S
C791 C789 1.419 . S
C791 C792 1.362 . S
C792 H784 0.930 . S
C792 C791 1.362 . S
C792 C795 1.409 . S
C793 H785 0.930 . S
C793 C794 1.355 . S
C793 C795 1.415 1_565 S
C794 C793 1.355 . S
C794 C796 1.419 . S
C795 C790 1.425 . S
C795 C792 1.409 . S
C795 C793 1.415 1_545 S
C796 H786 0.930 . S
C796 C794 1.419 . S
C796 C797 1.353 1_565 S
C797 H787 0.936 . S
C797 C790 1.413 . S
C797 C796 1.353 1_545 S
H798 C804 0.930 . S
H799 C807 0.930 . S
H800 C808 0.930 . S
H801 C809 0.930 . S
H802 C812 0.930 . S
H803 C813 0.930 . S
C804 H798 0.930 . S
C804 C805 1.355 . S
C804 C806 1.415 . S
C805 C804 1.355 . S
C805 C807 1.419 . S
C806 C804 1.415 . S
C806 C811 1.425 . S
C806 C813 1.409 . S
C807 H799 0.930 . S
C807 C805 1.419 . S
C807 C808 1.362 . S
C808 H800 0.930 . S
C808 C807 1.362 . S
C808 C811 1.409 . S
C809 H801 0.930 . S
C809 C810 1.355 . S
C809 C811 1.415 . S
C810 C809 1.355 . S
C810 C812 1.419 . S
C811 C806 1.425 . S
C811 C808 1.409 . S
C811 C809 1.415 . S
C812 H802 0.930 . S
C812 C810 1.419 . S
C812 C813 1.362 . S
C813 H803 0.930 . S
C813 C806 1.409 . S
C813 C812 1.362 . S
H814 C820 0.930 . S
H815 C823 0.930 . S
H816 C824 0.930 . S
H817 C825 0.930 . S
H818 C828 0.930 . S
H819 C829 0.930 . S
C820 H814 0.930 . S
C820 C821 1.355 . S
C820 C822 1.415 . S
C821 C820 1.355 . S
C821 C823 1.419 . S
C822 C820 1.415 . S
C822 C827 1.425 . S
C822 C829 1.409 . S
C823 H815 0.930 . S
C823 C821 1.419 . S
C823 C824 1.362 . S
C824 H816 0.930 . S
C824 C823 1.362 . S
C824 C827 1.409 . S
C825 H817 0.930 . S
C825 C826 1.355 . S
C825 C827 1.415 . S
C826 C825 1.355 . S
C826 C828 1.419 . S
C827 C822 1.425 . S
C827 C824 1.409 . S
C827 C825 1.415 . S
C828 H818 0.930 . S
C828 C826 1.419 . S
C828 C829 1.362 . S
C829 H819 0.930 . S
C829 C822 1.409 . S
C829 C828 1.362 . S
H830 C836 0.930 . S
H831 C839 0.930 . S
H832 C840 0.930 . S
H833 C841 0.930 . S
H834 C844 0.930 . S
H835 C845 0.930 . S
C836 H830 0.930 . S
C836 C837 1.355 . S
C836 C838 1.415 . S
C837 C836 1.355 . S
C837 C839 1.419 . S
C838 C836 1.415 . S
C838 C843 1.425 . S
C838 C845 1.409 . S
C839 H831 0.930 . S
C839 C837 1.419 . S
C839 C840 1.362 . S
C840 H832 0.930 . S
C840 C839 1.362 . S
C840 C843 1.409 . S
C841 H833 0.930 . S
C841 C842 1.355 . S
C841 C843 1.415 . S
C842 C841 1.355 . S
C842 C844 1.419 . S
C843 C838 1.425 . S
C843 C840 1.409 . S
C843 C841 1.415 . S
C844 H834 0.930 . S
C844 C842 1.419 . S
C844 C845 1.362 . S
C845 H835 0.930 . S
C845 C838 1.409 . S
C845 C844 1.362 . S
H846 C852 0.930 . S
H847 C855 0.930 . S
H848 C856 0.930 . S
H849 C857 0.930 . S
H850 C860 0.930 . S
H851 C861 0.930 . S
C852 H846 0.930 . S
C852 C853 1.355 . S
C852 C854 1.415 . S
C853 C852 1.355 . S
C853 C855 1.419 . S
C854 C852 1.415 . S
C854 C859 1.425 . S
C854 C861 1.409 . S
C855 H847 0.930 . S
C855 C853 1.419 . S
C855 C856 1.362 . S
C856 H848 0.930 . S
C856 C855 1.362 . S
C856 C859 1.409 . S
C857 H849 0.930 . S
C857 C858 1.355 . S
C857 C859 1.415 . S
C858 C857 1.355 . S
C858 C860 1.419 . S
C859 C854 1.425 . S
C859 C856 1.409 . S
C859 C857 1.415 . S
C860 H850 0.930 . S
C860 C858 1.419 . S
C860 C861 1.362 . S
C861 H851 0.930 . S
C861 C854 1.409 . S
C861 C860 1.362 . S
H862 C868 0.930 . S
H863 C871 0.930 . S
H864 C872 0.930 . S
H865 C873 0.930 . S
H866 C876 0.930 . S
H867 C877 0.930 . S
C868 H862 0.930 . S
C868 C869 1.355 . S
C868 C870 1.415 . S
C869 C868 1.355 . S
C869 C871 1.419 . S
C870 C868 1.415 . S
C870 C875 1.425 . S
C870 C877 1.409 . S
C871 H863 0.930 . S
C871 C869 1.419 . S
C871 C872 1.362 . S
C872 H864 0.930 . S
C872 C871 1.362 . S
C872 C875 1.409 . S
C873 H865 0.930 . S
C873 C874 1.355 . S
C873 C875 1.415 . S
C874 C873 1.355 . S
C874 C876 1.419 . S
C875 C870 1.425 . S
C875 C872 1.409 . S
C875 C873 1.415 . S
C876 H866 0.930 . S
C876 C874 1.419 . S
C876 C877 1.362 . S
C877 H867 0.930 . S
C877 C870 1.409 . S
C877 C876 1.362 . S
H878 C884 0.930 . S
H879 C887 0.930 . S
H880 C888 0.930 . S
H881 C889 0.930 . S
H882 C892 0.930 . S
H883 C893 0.930 . S
C884 H878 0.930 . S
C884 C885 1.355 . S
C884 C886 1.415 . S
C885 C884 1.355 . S
C885 C887 1.419 . S
C886 C884 1.415 . S
C886 C891 1.425 . S
C886 C893 1.409 . S
C887 H879 0.930 . S
C887 C885 1.419 . S
C887 C888 1.362 . S
C888 H880 0.930 . S
C888 C887 1.362 . S
C888 C891 1.409 . S
C889 H881 0.930 . S
C889 C890 1.355 . S
C889 C891 1.415 . S
C890 C889 1.355 . S
C890 C892 1.419 . S
C891 C886 1.425 . S
C891 C888 1.409 . S
C891 C889 1.415 . S
C892 H882 0.930 . S
C892 C890 1.419 . S
C892 C893 1.362 . S
C893 H883 0.930 . S
C893 C886 1.409 . S
C893 C892 1.362 . S
H894 C900 0.930 . S
H895 C903 0.930 . S
H896 C904 0.930 . S
H897 C905 0.930 . S
H898 C908 0.930 . S
H899 C909 0.930 . S
C900 H894 0.930 . S
C900 C901 1.355 . S
C900 C902 1.415 1_545 S
C901 C900 1.355 . S
C901 C903 1.419 . S
C902 C900 1.415 1_565 S
C902 C907 1.425 . S
C902 C909 1.409 . S
C903 H895 0.930 . S
C903 C901 1.419 . S
C903 C904 1.362 1_545 S
C904 H896 0.930 . S
C904 C903 1.362 1_565 S
C904 C907 1.409 . S
C905 H897 0.930 . S
C905 C906 1.355 . S
C905 C907 1.415 . S
C906 C905 1.355 . S
C906 C908 1.419 . S
C907 C902 1.425 . S
C907 C904 1.409 . S
C907 C905 1.415 . S
C908 H898 0.930 . S
C908 C906 1.419 . S
C908 C909 1.362 . S
C909 H899 0.930 . S
C909 C902 1.409 . S
C909 C908 1.362 . S
H910 C916 0.930 . S
H911 C919 0.930 1_655 S
H912 C920 0.930 . S
H913 C921 0.930 . S
H914 C924 0.930 . S
H915 C925 0.930 . S
C916 H910 0.930 . S
C916 C917 1.336 1_455 S
C916 C918 1.415 . S
C917 C916 1.336 1_655 S
C917 C919 1.423 1_655 S
C918 C916 1.415 . S
C918 C923 1.425 . S
C918 C925 1.409 . S
C919 H911 0.930 1_455 S
C919 C917 1.423 1_455 S
C919 C920 1.362 . S
C920 H912 0.930 . S
C920 C919 1.362 . S
C920 C923 1.409 . S
C921 H913 0.930 . S
C921 C922 1.355 . S
C921 C923 1.415 . S
C922 C921 1.355 . S
C922 C924 1.419 . S
C923 C918 1.425 . S
C923 C920 1.409 . S
C923 C921 1.415 . S
C924 H914 0.930 . S
C924 C922 1.419 . S
C924 C925 1.362 . S
C925 H915 0.930 . S
C925 C918 1.409 . S
C925 C924 1.362 . S
H926 C932 0.930 . S
H927 C935 0.930 . S
H928 C936 0.930 . S
H929 C937 0.930 . S
H930 C940 0.930 . S
H931 C941 0.930 . S
C932 H926 0.930 . S
C932 C933 1.355 . S
C932 C934 1.415 . S
C933 C932 1.355 . S
C933 C935 1.419 . S
C934 C932 1.415 . S
C934 C939 1.425 . S
C934 C941 1.409 . S
C935 H927 0.930 . S
C935 C933 1.419 . S
C935 C936 1.362 . S
C936 H928 0.930 . S
C936 C935 1.362 . S
C936 C939 1.409 . S
C937 H929 0.930 . S
C937 C938 1.355 . S
C937 C939 1.415 . S
C938 C937 1.355 . S
C938 C940 1.419 . S
C939 C934 1.425 . S
C939 C936 1.409 . S
C939 C937 1.415 . S
C940 H930 0.930 . S
C940 C938 1.419 . S
C940 C941 1.362 . S
C941 H931 0.930 . S
C941 C934 1.409 . S
C941 C940 1.362 . S
H942 C948 0.930 . S
H943 C951 0.930 . S
H944 C952 0.930 . S
H945 C953 0.930 . S
H946 C956 0.930 . S
H947 C957 0.930 . S
C948 H942 0.930 . S
C948 C949 1.355 . S
C948 C950 1.415 . S
C949 C948 1.355 . S
C949 C951 1.419 . S
C950 C948 1.415 . S
C950 C955 1.425 . S
C950 C957 1.409 . S
C951 H943 0.930 . S
C951 C949 1.419 . S
C951 C952 1.362 . S
C952 H944 0.930 . S
C952 C951 1.362 . S
C952 C955 1.409 . S
C953 H945 0.930 . S
C953 C954 1.355 . S
C953 C955 1.415 . S
C954 C953 1.355 . S
C954 C956 1.419 . S
C955 C950 1.425 . S
C955 C952 1.409 . S
C955 C953 1.415 . S
C956 H946 0.930 . S
C956 C954 1.419 . S
C956 C957 1.362 . S
C957 H947 0.930 . S
C957 C950 1.409 . S
C957 C956 1.362 . S
H958 C964 0.930 . S
H959 C967 0.930 . S
H960 C968 0.930 . S
H961 C969 0.930 . S
H962 C972 0.930 . S
H963 C973 0.930 . S
C964 H958 0.930 . S
C964 C965 1.355 . S
C964 C966 1.415 . S
C965 C964 1.355 . S
C965 C967 1.419 . S
C966 C964 1.415 . S
C966 C971 1.425 . S
C966 C973 1.409 . S
C967 H959 0.930 . S
C967 C965 1.419 . S
C967 C968 1.362 . S
C968 H960 0.930 . S
C968 C967 1.362 . S
C968 C971 1.409 . S
C969 H961 0.930 . S
C969 C970 1.355 . S
C969 C971 1.415 . S
C970 C969 1.355 . S
C970 C972 1.419 . S
C971 C966 1.425 . S
C971 C968 1.409 . S
C971 C969 1.415 . S
C972 H962 0.930 . S
C972 C970 1.419 . S
C972 C973 1.362 . S
C973 H963 0.930 . S
C973 C966 1.409 . S
C973 C972 1.362 . S
H974 C980 0.930 . S
H975 C983 0.930 . S
H976 C984 0.930 . S
H977 C985 0.930 . S
H978 C988 0.930 . S
H979 C989 0.930 . S
C980 H974 0.930 . S
C980 C981 1.355 . S
C980 C982 1.415 . S
C981 C980 1.355 . S
C981 C983 1.419 . S
C982 C980 1.415 . S
C982 C987 1.425 . S
C982 C989 1.409 . S
C983 H975 0.930 . S
C983 C981 1.419 . S
C983 C984 1.362 . S
C984 H976 0.930 . S
C984 C983 1.362 . S
C984 C987 1.409 . S
C985 H977 0.930 . S
C985 C986 1.355 . S
C985 C987 1.415 . S
C986 C985 1.355 . S
C986 C988 1.419 . S
C987 C982 1.425 . S
C987 C984 1.409 . S
C987 C985 1.415 . S
C988 H978 0.930 . S
C988 C986 1.419 . S
C988 C989 1.362 . S
C989 H979 0.930 . S
C989 C982 1.409 . S
C989 C988 1.362 . S
H990 C996 0.930 . S
H991 C999 0.930 . S
H992 C1000 0.930 1_545 S
H993 C1001 0.930 . S
H994 C1004 0.930 . S
H995 C1005 0.930 . S
C996 H990 0.930 . S
C996 C997 1.355 . S
C996 C998 1.415 . S
C997 C996 1.355 . S
C997 C999 1.419 . S
C998 C996 1.415 . S
C998 C1003 1.394 1_565 S
C998 C1005 1.409 . S
C999 H991 0.930 . S
C999 C997 1.419 . S
C999 C1000 1.362 . S
C1000 H992 0.930 1_565 S
C1000 C999 1.362 . S
C1000 C1003 1.413 1_565 S
C1001 H993 0.930 . S
C1001 C1002 1.355 . S
C1001 C1003 1.442 . S
C1002 C1001 1.355 . S
C1002 C1004 1.419 . S
C1003 C998 1.394 1_545 S
C1003 C1000 1.413 1_545 S
C1003 C1001 1.442 . S
C1004 H994 0.930 . S
C1004 C1002 1.419 . S
C1004 C1005 1.362 1_545 S
C1005 H995 0.930 . S
C1005 C998 1.409 . S
C1005 C1004 1.362 1_565 S
H1006 C1012 0.930 . S
H1007 C1015 0.930 . S
H1008 C1016 0.930 . S
H1009 C1017 0.930 . S
H1010 C1020 0.930 . S
H1011 C1021 0.930 1_455 S
C1012 H1006 0.930 . S
C1012 C1013 1.355 . S
C1012 C1014 1.415 . S
C1013 C1012 1.355 . S
C1013 C1015 1.419 . S
C1014 C1012 1.415 . S
C1014 C1019 1.425 1_455 S
C1014 C1021 1.409 1_455 S
C1015 H1007 0.930 . S
C1015 C1013 1.419 . S
C1015 C1016 1.362 . S
C1016 H1008 0.930 . S
C1016 C1015 1.362 . S
C1016 C1019 1.409 1_455 S
C1017 H1009 0.930 . S
C1017 C1018 1.355 . S
C1017 C1019 1.415 . S
C1018 C1017 1.355 . S
C1018 C1020 1.419 . S
C1019 C1014 1.425 1_655 S
C1019 C1016 1.409 1_655 S
C1019 C1017 1.415 . S
C1020 H1010 0.930 . S
C1020 C1018 1.419 . S
C1020 C1021 1.362 . S
C1021 H1011 0.930 1_655 S
C1021 C1014 1.409 1_655 S
C1021 C1020 1.362 . S
H1022 C1028 0.930 . S
H1023 C1031 0.930 . S
H1024 C1032 0.930 . S
H1025 C1033 0.930 . S
H1026 C1036 0.930 . S
H1027 C1037 0.930 . S
C1028 H1022 0.930 . S
C1028 C1029 1.355 . S
C1028 C1030 1.415 . S
C1029 C1028 1.355 . S
C1029 C1031 1.419 . S
C1030 C1028 1.415 . S
C1030 C1035 1.425 . S
C1030 C1037 1.409 . S
C1031 H1023 0.930 . S
C1031 C1029 1.419 . S
C1031 C1032 1.362 . S
C1032 H1024 0.930 . S
C1032 C1031 1.362 . S
C1032 C1035 1.409 . S
C1033 H1025 0.930 . S
C1033 C1034 1.355 . S
C1033 C1035 1.415 . S
C1034 C1033 1.355 . S
C1034 C1036 1.419 . S
C1035 C1030 1.425 . S
C1035 C1032 1.409 . S
C1035 C1033 1.415 . S
C1036 H1026 0.930 . S
C1036 C1034 1.419 . S
C1036 C1037 1.362 . S
C1037 H1027 0.930 . S
C1037 C1030 1.409 . S
C1037 C1036 1.362 . S
H1038 C1044 0.930 . S
H1039 C1047 0.930 1_455 S
H1040 C1048 0.930 . S
H1041 C1049 0.930 . S
H1042 C1052 0.930 . S
H1043 C1053 0.930 . S
C1044 H1038 0.930 . S
C1044 C1045 1.355 . S
C1044 C1046 1.415 1_455 S
C1045 C1044 1.355 . S
C1045 C1047 1.419 1_455 S
C1046 C1044 1.415 1_655 S
C1046 C1051 1.425 . S
C1046 C1053 1.409 . S
C1047 H1039 0.930 1_655 S
C1047 C1045 1.419 1_655 S
C1047 C1048 1.362 . S
C1048 H1040 0.930 . S
C1048 C1047 1.362 . S
C1048 C1051 1.409 . S
C1049 H1041 0.930 . S
C1049 C1050 1.355 . S
C1049 C1051 1.415 . S
C1050 C1049 1.355 . S
C1050 C1052 1.419 . S
C1051 C1046 1.425 . S
C1051 C1048 1.409 . S
C1051 C1049 1.415 . S
C1052 H1042 0.930 . S
C1052 C1050 1.419 . S
C1052 C1053 1.362 . S
C1053 H1043 0.930 . S
C1053 C1046 1.409 . S
C1053 C1052 1.362 . S
H1054 C1060 0.930 . S
H1055 C1063 0.930 . S
H1056 C1064 0.930 . S
H1057 C1065 0.930 . S
H1058 C1068 0.930 . S
H1059 C1069 0.930 . S
C1060 H1054 0.930 . S
C1060 C1061 1.355 . S
C1060 C1062 1.415 . S
C1061 C1060 1.355 . S
C1061 C1063 1.419 . S
C1062 C1060 1.415 . S
C1062 C1067 1.425 . S
C1062 C1069 1.409 . S
C1063 H1055 0.930 . S
C1063 C1061 1.419 . S
C1063 C1064 1.362 . S
C1064 H1056 0.930 . S
C1064 C1063 1.362 . S
C1064 C1067 1.409 . S
C1065 H1057 0.930 . S
C1065 C1066 1.355 . S
C1065 C1067 1.415 . S
C1066 C1065 1.355 . S
C1066 C1068 1.419 . S
C1067 C1062 1.425 . S
C1067 C1064 1.409 . S
C1067 C1065 1.415 . S
C1068 H1058 0.930 . S
C1068 C1066 1.419 . S
C1068 C1069 1.362 . S
C1069 H1059 0.930 . S
C1069 C1062 1.409 . S
C1069 C1068 1.362 . S
H1070 C1076 0.930 1_565 S
H1071 C1079 0.930 . S
H1072 C1080 0.930 . S
H1073 C1081 0.930 . S
H1074 C1084 0.930 . S
H1075 C1085 0.930 . S
C1076 H1070 0.930 1_545 S
C1076 C1077 1.355 1_545 S
C1076 C1078 1.415 . S
C1077 C1076 1.355 1_565 S
C1077 C1079 1.419 . S
C1078 C1076 1.415 . S
C1078 C1083 1.425 . S
C1078 C1085 1.409 . S
C1079 H1071 0.930 . S
C1079 C1077 1.419 . S
C1079 C1080 1.362 1_565 S
C1080 H1072 0.930 . S
C1080 C1079 1.362 1_545 S
C1080 C1083 1.409 . S
C1081 H1073 0.930 . S
C1081 C1082 1.355 . S
C1081 C1083 1.415 . S
C1082 C1081 1.355 . S
C1082 C1084 1.419 . S
C1083 C1078 1.425 . S
C1083 C1080 1.409 . S
C1083 C1081 1.415 . S
C1084 H1074 0.930 . S
C1084 C1082 1.419 . S
C1084 C1085 1.362 . S
C1085 H1075 0.930 . S
C1085 C1078 1.409 . S
C1085 C1084 1.362 . S
H1086 C1092 0.930 . S
H1087 C1095 0.930 . S
H1088 C1096 0.930 . S
H1089 C1097 0.930 . S
H1090 C1100 0.930 . S
H1091 C1101 0.930 . S
C1092 H1086 0.930 . S
C1092 C1093 1.355 . S
C1092 C1094 1.415 . S
C1093 C1092 1.355 . S
C1093 C1095 1.419 . S
C1094 C1092 1.415 . S
C1094 C1099 1.425 . S
C1094 C1101 1.409 . S
C1095 H1087 0.930 . S
C1095 C1093 1.419 . S
C1095 C1096 1.362 . S
C1096 H1088 0.930 . S
C1096 C1095 1.362 . S
C1096 C1099 1.409 . S
C1097 H1089 0.930 . S
C1097 C1098 1.355 . S
C1097 C1099 1.415 . S
C1098 C1097 1.355 . S
C1098 C1100 1.419 . S
C1099 C1094 1.425 . S
C1099 C1096 1.409 . S
C1099 C1097 1.415 . S
C1100 H1090 0.930 . S
C1100 C1098 1.419 . S
C1100 C1101 1.362 . S
C1101 H1091 0.930 . S
C1101 C1094 1.409 . S
C1101 C1100 1.362 . S
H1102 C1108 0.930 . S
H1103 C1111 0.930 . S
H1104 C1112 0.930 . S
H1105 C1113 0.930 . S
H1106 C1116 0.930 . S
H1107 C1117 0.930 . S
C1108 H1102 0.930 . S
C1108 C1109 1.355 . S
C1108 C1110 1.415 . S
C1109 C1108 1.355 . S
C1109 C1111 1.419 . S
C1110 C1108 1.415 . S
C1110 C1115 1.425 . S
C1110 C1117 1.409 . S
C1111 H1103 0.930 . S
C1111 C1109 1.419 . S
C1111 C1112 1.362 . S
C1112 H1104 0.930 . S
C1112 C1111 1.362 . S
C1112 C1115 1.409 . S
C1113 H1105 0.930 . S
C1113 C1114 1.355 . S
C1113 C1115 1.415 . S
C1114 C1113 1.355 . S
C1114 C1116 1.419 . S
C1115 C1110 1.425 . S
C1115 C1112 1.409 . S
C1115 C1113 1.415 . S
C1116 H1106 0.930 . S
C1116 C1114 1.419 . S
C1116 C1117 1.362 . S
C1117 H1107 0.930 . S
C1117 C1110 1.409 . S
C1117 C1116 1.362 . S
H1118 C1124 0.930 . S
H1119 C1127 0.930 . S
H1120 C1128 0.930 . S
H1121 C1129 0.930 . S
H1122 C1132 0.930 . S
H1123 C1133 0.930 . S
C1124 H1118 0.930 . S
C1124 C1125 1.355 . S
C1124 C1126 1.415 . S
C1125 C1124 1.355 . S
C1125 C1127 1.419 . S
C1126 C1124 1.415 . S
C1126 C1131 1.425 . S
C1126 C1133 1.409 . S
C1127 H1119 0.930 . S
C1127 C1125 1.419 . S
C1127 C1128 1.362 . S
C1128 H1120 0.930 . S
C1128 C1127 1.362 . S
C1128 C1131 1.409 . S
C1129 H1121 0.930 . S
C1129 C1130 1.355 . S
C1129 C1131 1.415 . S
C1130 C1129 1.355 . S
C1130 C1132 1.419 . S
C1131 C1126 1.425 . S
C1131 C1128 1.409 . S
C1131 C1129 1.415 . S
C1132 H1122 0.930 . S
C1132 C1130 1.419 . S
C1132 C1133 1.362 . S
C1133 H1123 0.930 . S
C1133 C1126 1.409 . S
C1133 C1132 1.362 . S
H1134 C1140 0.930 . S
H1135 C1143 0.930 . S
H1136 C1144 0.930 . S
H1137 C1145 0.930 . S
H1138 C1148 0.930 . S
H1139 C1149 0.930 . S
C1140 H1134 0.930 . S
C1140 C1141 1.355 . S
C1140 C1142 1.415 . S
C1141 C1140 1.355 . S
C1141 C1143 1.419 . S
C1142 C1140 1.415 . S
C1142 C1147 1.425 . S
C1142 C1149 1.409 . S
C1143 H1135 0.930 . S
C1143 C1141 1.419 . S
C1143 C1144 1.362 . S
C1144 H1136 0.930 . S
C1144 C1143 1.362 . S
C1144 C1147 1.409 . S
C1145 H1137 0.930 . S
C1145 C1146 1.355 . S
C1145 C1147 1.415 . S
C1146 C1145 1.355 . S
C1146 C1148 1.419 . S
C1147 C1142 1.425 . S
C1147 C1144 1.409 . S
C1147 C1145 1.415 . S
C1148 H1138 0.930 . S
C1148 C1146 1.419 . S
C1148 C1149 1.362 . S
C1149 H1139 0.930 . S
C1149 C1142 1.409 . S
C1149 C1148 1.362 . S
H1150 C1156 0.930 . S
H1151 C1159 0.930 . S
H1152 C1160 0.930 . S
H1153 C1161 0.930 . S
H1154 C1164 0.930 . S
H1155 C1165 0.930 . S
C1156 H1150 0.930 . S
C1156 C1157 1.355 . S
C1156 C1158 1.415 . S
C1157 C1156 1.355 . S
C1157 C1159 1.419 . S
C1158 C1156 1.415 . S
C1158 C1163 1.425 . S
C1158 C1165 1.409 . S
C1159 H1151 0.930 . S
C1159 C1157 1.419 . S
C1159 C1160 1.362 . S
C1160 H1152 0.930 . S
C1160 C1159 1.362 . S
C1160 C1163 1.409 . S
C1161 H1153 0.930 . S
C1161 C1162 1.355 . S
C1161 C1163 1.415 . S
C1162 C1161 1.355 . S
C1162 C1164 1.419 . S
C1163 C1158 1.425 . S
C1163 C1160 1.409 . S
C1163 C1161 1.415 . S
C1164 H1154 0.930 . S
C1164 C1162 1.419 . S
C1164 C1165 1.362 . S
C1165 H1155 0.930 . S
C1165 C1158 1.409 . S
C1165 C1164 1.362 . S
H1166 C1172 0.930 . S
H1167 C1175 0.930 . S
H1168 C1176 0.930 . S
H1169 C1177 0.930 . S
H1170 C1180 0.930 . S
H1171 C1181 0.930 . S
C1172 H1166 0.930 . S
C1172 C1173 1.355 . S
C1172 C1174 1.415 . S
C1173 C1172 1.355 . S
C1173 C1175 1.419 . S
C1174 C1172 1.415 . S
C1174 C1179 1.425 . S
C1174 C1181 1.409 . S
C1175 H1167 0.930 . S
C1175 C1173 1.419 . S
C1175 C1176 1.362 . S
C1176 H1168 0.930 . S
C1176 C1175 1.362 . S
C1176 C1179 1.409 . S
C1177 H1169 0.930 . S
C1177 C1178 1.355 . S
C1177 C1179 1.415 . S
C1178 C1177 1.355 . S
C1178 C1180 1.419 . S
C1179 C1174 1.425 . S
C1179 C1176 1.409 . S
C1179 C1177 1.415 . S
C1180 H1170 0.930 . S
C1180 C1178 1.419 . S
C1180 C1181 1.362 . S
C1181 H1171 0.930 . S
C1181 C1174 1.409 . S
C1181 C1180 1.362 . S
H1182 C1188 0.930 . S
H1183 C1191 0.930 . S
H1184 C1192 0.930 . S
H1185 C1193 0.930 . S
H1186 C1196 0.930 1_455 S
H1187 C1197 0.930 1_455 S
C1188 H1182 0.930 . S
C1188 C1189 1.355 . S
C1188 C1190 1.415 . S
C1189 C1188 1.355 . S
C1189 C1191 1.419 . S
C1190 C1188 1.415 . S
C1190 C1195 1.425 . S
C1190 C1197 1.409 . S
C1191 H1183 0.930 . S
C1191 C1189 1.419 . S
C1191 C1192 1.362 . S
C1192 H1184 0.930 . S
C1192 C1191 1.362 . S
C1192 C1195 1.409 . S
C1193 H1185 0.930 . S
C1193 C1194 1.355 . S
C1193 C1195 1.415 . S
C1194 C1193 1.355 . S
C1194 C1196 1.419 . S
C1195 C1190 1.425 . S
C1195 C1192 1.409 . S
C1195 C1193 1.415 . S
C1196 H1186 0.930 1_655 S
C1196 C1194 1.419 . S
C1196 C1197 1.362 . S
C1197 H1187 0.930 1_655 S
C1197 C1190 1.409 . S
C1197 C1196 1.362 . S
H1198 C1204 0.930 . S
H1199 C1207 0.930 . S
H1200 C1208 0.930 . S
H1201 C1209 0.930 . S
H1202 C1212 0.930 . S
H1203 C1213 0.930 . S
C1204 H1198 0.930 . S
C1204 C1205 1.355 . S
C1204 C1206 1.415 . S
C1205 C1204 1.355 . S
C1205 C1207 1.419 . S
C1206 C1204 1.415 . S
C1206 C1211 1.425 . S
C1206 C1213 1.409 . S
C1207 H1199 0.930 . S
C1207 C1205 1.419 . S
C1207 C1208 1.362 . S
C1208 H1200 0.930 . S
C1208 C1207 1.362 . S
C1208 C1211 1.409 . S
C1209 H1201 0.930 . S
C1209 C1210 1.355 . S
C1209 C1211 1.415 . S
C1210 C1209 1.355 . S
C1210 C1212 1.419 . S
C1211 C1206 1.425 . S
C1211 C1208 1.409 . S
C1211 C1209 1.415 . S
C1212 H1202 0.930 . S
C1212 C1210 1.419 . S
C1212 C1213 1.362 . S
C1213 H1203 0.930 . S
C1213 C1206 1.409 . S
C1213 C1212 1.362 . S
H1214 C1220 0.930 . S
H1215 C1223 0.930 . S
H1216 C1224 0.930 . S
H1217 C1225 0.930 . S
H1218 C1228 0.930 . S
H1219 C1229 0.930 . S
C1220 H1214 0.930 . S
C1220 C1221 1.355 . S
C1220 C1222 1.415 . S
C1221 C1220 1.355 . S
C1221 C1223 1.419 . S
C1222 C1220 1.415 . S
C1222 C1227 1.425 . S
C1222 C1229 1.409 . S
C1223 H1215 0.930 . S
C1223 C1221 1.419 . S
C1223 C1224 1.362 . S
C1224 H1216 0.930 . S
C1224 C1223 1.362 . S
C1224 C1227 1.409 . S
C1225 H1217 0.930 . S
C1225 C1226 1.355 . S
C1225 C1227 1.415 . S
C1226 C1225 1.355 . S
C1226 C1228 1.419 . S
C1227 C1222 1.425 . S
C1227 C1224 1.409 . S
C1227 C1225 1.415 . S
C1228 H1218 0.930 . S
C1228 C1226 1.419 . S
C1228 C1229 1.362 . S
C1229 H1219 0.930 . S
C1229 C1222 1.409 . S
C1229 C1228 1.362 . S
H1230 C1236 0.930 . S
H1231 C1239 0.930 . S
H1232 C1240 0.930 . S
H1233 C1241 0.930 . S
H1234 C1244 0.930 . S
H1235 C1245 0.930 . S
C1236 H1230 0.930 . S
C1236 C1237 1.355 . S
C1236 C1238 1.415 . S
C1237 C1236 1.355 . S
C1237 C1239 1.419 . S
C1238 C1236 1.415 . S
C1238 C1243 1.425 . S
C1238 C1245 1.409 . S
C1239 H1231 0.930 . S
C1239 C1237 1.419 . S
C1239 C1240 1.362 . S
C1240 H1232 0.930 . S
C1240 C1239 1.362 . S
C1240 C1243 1.409 . S
C1241 H1233 0.930 . S
C1241 C1242 1.355 . S
C1241 C1243 1.415 . S
C1242 C1241 1.355 . S
C1242 C1244 1.419 . S
C1243 C1238 1.425 . S
C1243 C1240 1.409 . S
C1243 C1241 1.415 . S
C1244 H1234 0.930 . S
C1244 C1242 1.419 . S
C1244 C1245 1.362 . S
C1245 H1235 0.930 . S
C1245 C1238 1.409 . S
C1245 C1244 1.362 . S
H1246 C1252 0.930 . S
H1247 C1255 0.930 . S
H1248 C1256 0.930 . S
H1249 C1257 0.930 . S
H1250 C1260 0.930 . S
H1251 C1261 0.930 . S
C1252 H1246 0.930 . S
C1252 C1253 1.355 . S
C1252 C1254 1.415 . S
C1253 C1252 1.355 . S
C1253 C1255 1.419 . S
C1254 C1252 1.415 . S
C1254 C1259 1.425 . S
C1254 C1261 1.409 . S
C1255 H1247 0.930 . S
C1255 C1253 1.419 . S
C1255 C1256 1.362 . S
C1256 H1248 0.930 . S
C1256 C1255 1.362 . S
C1256 C1259 1.409 . S
C1257 H1249 0.930 . S
C1257 C1258 1.355 . S
C1257 C1259 1.415 . S
C1258 C1257 1.355 . S
C1258 C1260 1.419 . S
C1259 C1254 1.425 . S
C1259 C1256 1.409 . S
C1259 C1257 1.415 . S
C1260 H1250 0.930 . S
C1260 C1258 1.419 . S
C1260 C1261 1.362 . S
C1261 H1251 0.930 . S
C1261 C1254 1.409 . S
C1261 C1260 1.362 . S
H1262 C1268 0.930 . S
H1263 C1271 0.930 . S
H1264 C1272 0.930 . S
H1265 C1273 0.930 . S
H1266 C1276 0.930 . S
H1267 C1277 0.930 . S
C1268 H1262 0.930 . S
C1268 C1269 1.355 . S
C1268 C1270 1.415 . S
C1269 C1268 1.355 . S
C1269 C1271 1.419 . S
C1270 C1268 1.415 . S
C1270 C1275 1.425 . S
C1270 C1277 1.409 . S
C1271 H1263 0.930 . S
C1271 C1269 1.419 . S
C1271 C1272 1.362 . S
C1272 H1264 0.930 . S
C1272 C1271 1.362 . S
C1272 C1275 1.409 . S
C1273 H1265 0.930 . S
C1273 C1274 1.355 . S
C1273 C1275 1.415 . S
C1274 C1273 1.355 . S
C1274 C1276 1.419 . S
C1275 C1270 1.425 . S
C1275 C1272 1.409 . S
C1275 C1273 1.415 . S
C1276 H1266 0.930 . S
C1276 C1274 1.419 . S
C1276 C1277 1.362 . S
C1277 H1267 0.930 . S
C1277 C1270 1.409 . S
C1277 C1276 1.362 . S
H1278 C1284 0.930 . S
H1279 C1287 0.930 . S
H1280 C1288 0.930 . S
H1281 C1289 0.930 . S
H1282 C1292 0.930 . S
H1283 C1293 0.930 . S
C1284 H1278 0.930 . S
C1284 C1285 1.355 . S
C1284 C1286 1.415 . S
C1285 C1284 1.355 . S
C1285 C1287 1.419 . S
C1286 C1284 1.415 . S
C1286 C1291 1.425 . S
C1286 C1293 1.409 . S
C1287 H1279 0.930 . S
C1287 C1285 1.419 . S
C1287 C1288 1.362 . S
C1288 H1280 0.930 . S
C1288 C1287 1.362 . S
C1288 C1291 1.409 . S
C1289 H1281 0.930 . S
C1289 C1290 1.355 . S
C1289 C1291 1.415 . S
C1290 C1289 1.355 . S
C1290 C1292 1.419 . S
C1291 C1286 1.425 . S
C1291 C1288 1.409 . S
C1291 C1289 1.415 . S
C1292 H1282 0.930 . S
C1292 C1290 1.419 . S
C1292 C1293 1.362 . S
C1293 H1283 0.930 . S
C1293 C1286 1.409 . S
C1293 C1292 1.362 . S
H1294 C1300 0.930 . S
H1295 C1303 0.930 . S
H1296 C1304 0.930 . S
H1297 C1305 0.930 . S
H1298 C1308 0.930 . S
H1299 C1309 0.930 . S
C1300 H1294 0.930 . S
C1300 C1301 1.355 . S
C1300 C1302 1.415 . S
C1301 C1300 1.355 . S
C1301 C1303 1.419 . S
C1302 C1300 1.415 . S
C1302 C1307 1.425 . S
C1302 C1309 1.409 . S
C1303 H1295 0.930 . S
C1303 C1301 1.419 . S
C1303 C1304 1.362 . S
C1304 H1296 0.930 . S
C1304 C1303 1.362 . S
C1304 C1307 1.409 . S
C1305 H1297 0.930 . S
C1305 C1306 1.355 . S
C1305 C1307 1.415 . S
C1306 C1305 1.355 . S
C1306 C1308 1.419 . S
C1307 C1302 1.425 . S
C1307 C1304 1.409 . S
C1307 C1305 1.415 . S
C1308 H1298 0.930 . S
C1308 C1306 1.419 . S
C1308 C1309 1.362 . S
C1309 H1299 0.930 . S
C1309 C1302 1.409 . S
C1309 C1308 1.362 . S
H1310 C1316 0.930 . S
H1311 C1319 0.930 . S
H1312 C1320 0.930 . S
H1313 C1321 0.930 . S
H1314 C1324 0.930 . S
H1315 C1325 0.930 . S
C1316 H1310 0.930 . S
C1316 C1317 1.355 . S
C1316 C1318 1.415 . S
C1317 C1316 1.355 . S
C1317 C1319 1.419 . S
C1318 C1316 1.415 . S
C1318 C1323 1.425 . S
C1318 C1325 1.409 . S
C1319 H1311 0.930 . S
C1319 C1317 1.419 . S
C1319 C1320 1.362 . S
C1320 H1312 0.930 . S
C1320 C1319 1.362 . S
C1320 C1323 1.409 . S
C1321 H1313 0.930 . S
C1321 C1322 1.355 . S
C1321 C1323 1.415 . S
C1322 C1321 1.355 . S
C1322 C1324 1.419 . S
C1323 C1318 1.425 . S
C1323 C1320 1.409 . S
C1323 C1321 1.415 . S
C1324 H1314 0.930 . S
C1324 C1322 1.419 . S
C1324 C1325 1.362 . S
C1325 H1315 0.930 . S
C1325 C1318 1.409 . S
C1325 C1324 1.362 . S
H1326 C1332 0.930 . S
H1327 C1335 0.930 . S
H1328 C1336 0.930 . S
H1329 C1337 0.930 . S
H1330 C1340 0.930 . S
H1331 C1341 0.930 . S
C1332 H1326 0.930 . S
C1332 C1333 1.355 . S
C1332 C1334 1.415 . S
C1333 C1332 1.355 . S
C1333 C1335 1.419 . S
C1334 C1332 1.415 . S
C1334 C1339 1.425 . S
C1334 C1341 1.409 . S
C1335 H1327 0.930 . S
C1335 C1333 1.419 . S
C1335 C1336 1.362 . S
C1336 H1328 0.930 . S
C1336 C1335 1.362 . S
C1336 C1339 1.409 . S
C1337 H1329 0.930 . S
C1337 C1338 1.355 . S
C1337 C1339 1.415 . S
C1338 C1337 1.355 . S
C1338 C1340 1.419 . S
C1339 C1334 1.425 . S
C1339 C1336 1.409 . S
C1339 C1337 1.415 . S
C1340 H1330 0.930 . S
C1340 C1338 1.419 . S
C1340 C1341 1.362 . S
C1341 H1331 0.930 . S
C1341 C1334 1.409 . S
C1341 C1340 1.362 . S
H1342 C1348 0.930 . S
H1343 C1351 0.930 . S
H1344 C1352 0.930 . S
H1345 C1353 0.930 . S
H1346 C1356 0.930 . S
H1347 C1357 0.930 . S
C1348 H1342 0.930 . S
C1348 C1349 1.355 . S
C1348 C1350 1.415 . S
C1349 C1348 1.355 . S
C1349 C1351 1.419 . S
C1350 C1348 1.415 . S
C1350 C1355 1.425 . S
C1350 C1357 1.409 . S
C1351 H1343 0.930 . S
C1351 C1349 1.419 . S
C1351 C1352 1.362 . S
C1352 H1344 0.930 . S
C1352 C1351 1.362 . S
C1352 C1355 1.409 . S
C1353 H1345 0.930 . S
C1353 C1354 1.355 . S
C1353 C1355 1.415 . S
C1354 C1353 1.355 . S
C1354 C1356 1.419 . S
C1355 C1350 1.425 . S
C1355 C1352 1.409 . S
C1355 C1353 1.415 . S
C1356 H1346 0.930 . S
C1356 C1354 1.419 . S
C1356 C1357 1.362 . S
C1357 H1347 0.930 . S
C1357 C1350 1.409 . S
C1357 C1356 1.362 . S
H1358 C1364 0.930 . S
H1359 C1367 0.930 . S
H1360 C1368 0.930 . S
H1361 C1369 0.930 . S
H1362 C1372 0.930 . S
H1363 C1373 0.930 . S
C1364 H1358 0.930 . S
C1364 C1365 1.355 . S
C1364 C1366 1.415 . S
C1365 C1364 1.355 . S
C1365 C1367 1.419 . S
C1366 C1364 1.415 . S
C1366 C1371 1.425 . S
C1366 C1373 1.409 . S
C1367 H1359 0.930 . S
C1367 C1365 1.419 . S
C1367 C1368 1.362 . S
C1368 H1360 0.930 . S
C1368 C1367 1.362 . S
C1368 C1371 1.409 . S
C1369 H1361 0.930 . S
C1369 C1370 1.355 . S
C1369 C1371 1.415 . S
C1370 C1369 1.355 . S
C1370 C1372 1.419 . S
C1371 C1366 1.425 . S
C1371 C1368 1.409 . S
C1371 C1369 1.415 . S
C1372 H1362 0.930 . S
C1372 C1370 1.419 . S
C1372 C1373 1.362 . S
C1373 H1363 0.930 . S
C1373 C1366 1.409 . S
C1373 C1372 1.362 . S
H1374 C1380 0.930 . S
H1375 C1383 0.930 . S
H1376 C1384 0.930 . S
H1377 C1385 0.930 . S
H1378 C1388 0.930 . S
H1379 C1389 0.930 . S
C1380 H1374 0.930 . S
C1380 C1381 1.355 . S
C1380 C1382 1.415 . S
C1381 C1380 1.355 . S
C1381 C1383 1.419 . S
C1382 C1380 1.415 . S
C1382 C1387 1.425 . S
C1382 C1389 1.409 . S
C1383 H1375 0.930 . S
C1383 C1381 1.419 . S
C1383 C1384 1.362 . S
C1384 H1376 0.930 . S
C1384 C1383 1.362 . S
C1384 C1387 1.409 . S
C1385 H1377 0.930 . S
C1385 C1386 1.355 . S
C1385 C1387 1.415 . S
C1386 C1385 1.355 . S
C1386 C1388 1.419 . S
C1387 C1382 1.425 . S
C1387 C1384 1.409 . S
C1387 C1385 1.415 . S
C1388 H1378 0.930 . S
C1388 C1386 1.419 . S
C1388 C1389 1.362 . S
C1389 H1379 0.930 . S
C1389 C1382 1.409 . S
C1389 C1388 1.362 . S
H1390 C1396 0.930 . S
H1391 C1399 0.930 . S
H1392 C1400 0.930 . S
H1393 C1401 0.930 . S
H1394 C1404 0.930 . S
H1395 C1405 0.930 . S
C1396 H1390 0.930 . S
C1396 C1397 1.355 . S
C1396 C1398 1.415 . S
C1397 C1396 1.355 . S
C1397 C1399 1.419 . S
C1398 C1396 1.415 . S
C1398 C1403 1.425 . S
C1398 C1405 1.409 . S
C1399 H1391 0.930 . S
C1399 C1397 1.419 . S
C1399 C1400 1.362 . S
C1400 H1392 0.930 . S
C1400 C1399 1.362 . S
C1400 C1403 1.409 . S
C1401 H1393 0.930 . S
C1401 C1402 1.355 . S
C1401 C1403 1.415 . S
C1402 C1401 1.355 . S
C1402 C1404 1.419 . S
C1403 C1398 1.425 . S
C1403 C1400 1.409 . S
C1403 C1401 1.415 . S
C1404 H1394 0.930 . S
C1404 C1402 1.419 . S
C1404 C1405 1.362 . S
C1405 H1395 0.930 . S
C1405 C1398 1.409 . S
C1405 C1404 1.362 . S
H1406 C1412 0.930 . S
H1407 C1415 0.930 . S
H1408 C1416 0.930 . S
H1409 C1417 0.930 . S
H1410 C1420 0.930 . S
H1411 C1421 0.930 . S
C1412 H1406 0.930 . S
C1412 C1413 1.355 . S
C1412 C1414 1.415 . S
C1413 C1412 1.355 . S
C1413 C1415 1.419 . S
C1414 C1412 1.415 . S
C1414 C1419 1.425 . S
C1414 C1421 1.409 . S
C1415 H1407 0.930 . S
C1415 C1413 1.419 . S
C1415 C1416 1.362 . S
C1416 H1408 0.930 . S
C1416 C1415 1.362 . S
C1416 C1419 1.409 . S
C1417 H1409 0.930 . S
C1417 C1418 1.355 . S
C1417 C1419 1.415 . S
C1418 C1417 1.355 . S
C1418 C1420 1.419 . S
C1419 C1414 1.425 . S
C1419 C1416 1.409 . S
C1419 C1417 1.415 . S
C1420 H1410 0.930 . S
C1420 C1418 1.419 . S
C1420 C1421 1.362 . S
C1421 H1411 0.930 . S
C1421 C1414 1.409 . S
C1421 C1420 1.362 . S
C565 C147 1.650 . S
C570 C207 1.641 . S
C581 C158 1.759 . S
C586 C247 1.753 . S
C597 C136 1.601 . S
C602 C286 1.548 . S
C613 C125 1.482 . S
C618 C246 1.460 1_556 S
C634 C287 1.504 . S
C629 C103 1.504 . S
C645 C114 1.358 . S
C650 C206 1.367 1_556 S
C666 C217 1.604 . S
C661 C131 1.617 . S
C682 C257 1.612 . S
C677 C109 1.642 . S
C693 C120 1.662 . S
C698 C296 1.684 1_556 S
C709 C153 1.476 . S
C714 C256 1.495 . S
C725 C164 1.460 . S
C730 C297 1.422 . S
C746 C216 1.477 . S
C741 C142 1.474 . S
C762 C327 1.630 . S
C757 C15 1.640 . S
C773 C26 1.759 . S
C778 C367 1.756 . S
C789 C4 1.569 . S
C794 C406 1.520 . S
C805 C191 1.486 . S
C810 C366 1.476 . S
C821 C169 1.504 . S
C826 C407 1.506 . S
C837 C180 1.372 . S
C842 C326 1.328 . S
C853 C197 1.662 . S
C858 C337 1.648 . S
C869 C175 1.647 . S
C874 C377 1.642 . S
C890 C416 1.628 . S
C885 C186 1.603 . S
C901 C21 1.536 . S
C906 C376 1.526 . S
C922 C417 1.413 . S
C917 C32 1.467 . S
C933 C10 1.491 . S
C938 C336 1.517 . S
C954 C447 1.650 . S
C949 C81 1.656 . S
C965 C92 1.759 . S
C970 C487 1.754 . S
C986 C526 1.581 . S
C981 C70 1.606 . S
C1002 C486 1.462 . S
C997 C59 1.472 . S
C1018 C527 1.495 . S
C1013 C37 1.499 . S
C1029 C48 1.379 . S
C1034 C446 1.331 . S
C1045 C65 1.621 . S
C1050 C457 1.610 . S
C1061 C43 1.642 . S
C1066 C497 1.611 . S
C1082 C536 1.641 . S
C1077 C54 1.643 . S
C1093 C87 1.537 . S
C1098 C496 1.528 . S
C1109 C98 1.446 . S
C1114 C537 1.409 . S
C1125 C76 1.486 . S
C1130 C456 1.516 . S
C1141 C170 1.550 . S
C1146 C203 1.546 . S
C1162 C243 1.883 . S
C1157 C181 1.888 . S
C1173 C192 1.527 . S
C1178 C293 1.554 . S
C1189 C71 1.719 . S
C1194 C253 1.736 . S
C1205 C82 1.677 . S
C1210 C283 1.676 . S
C1226 C213 1.341 . S
C1221 C93 1.337 . S
C1237 C38 1.534 . S
C1242 C323 1.522 . S
C1253 C49 1.888 . S
C1258 C363 1.889 . S
C1269 C60 1.569 . S
C1274 C413 1.577 . S
C1285 C137 1.752 . S
C1290 C373 1.760 . S
C1306 C403 1.667 . S
C1301 C148 1.669 . S
C1317 C159 1.355 . S
C1322 C333 1.351 . S
C1333 C104 1.515 . S
C1338 C443 1.501 . S
C1349 C115 1.910 . S
C1354 C483 1.906 . S
C1370 C533 1.552 . S
C1365 C126 1.524 . S
C1381 C5 1.722 . S
C1386 C493 1.746 . S
C1397 C16 1.648 . S
C1402 C523 1.650 . S
C1413 C27 1.318 . S
C1418 C453 1.342 . S
