# Generated by pormake.
# Topology pyr, (3,6)-cn, num edge types: 1
# Building blocks:
#     Node 0, Type 0, BuildingBlock: CUQRIR_clean_linker_1, # of connection points: 3
#     Node 1, Type 0, BuildingBlock: CUQRIR_clean_linker_1, # of connection points: 3
#     Node 2, Type 0, BuildingBlock: CUQRIR_clean_linker_1, # of connection points: 3
#     Node 3, Type 0, BuildingBlock: CUQRIR_clean_linker_1, # of connection points: 3
#     Node 4, Type 0, BuildingBlock: CUQRIR_clean_linker_1, # of connection points: 3
#     Node 5, Type 0, BuildingBlock: CUQRIR_clean_linker_1, # of connection points: 3
#     Node 6, Type 0, BuildingBlock: CUQRIR_clean_linker_1, # of connection points: 3
#     Node 7, Type 0, BuildingBlock: CUQRIR_clean_linker_1, # of connection points: 3
#     Node 8, Type 1, BuildingBlock: JUFBIX_clean_sbu_0, # of connection points: 6
#     Node 9, Type 1, BuildingBlock: JUFBIX_clean_sbu_0, # of connection points: 6
#     Node 10, Type 1, BuildingBlock: JUFBIX_clean_sbu_0, # of connection points: 6
#     Node 11, Type 1, BuildingBlock: JUFBIX_clean_sbu_0, # of connection points: 6
#     Edge 12, Type (0, 1), BuildingBlock: EZIPEK_clean_linker_0, # of connection points: 2
#     Edge 13, Type (0, 1), BuildingBlock: EZIPEK_clean_linker_0, # of connection points: 2
#     Edge 14, Type (0, 1), BuildingBlock: EZIPEK_clean_linker_0, # of connection points: 2
#     Edge 15, Type (0, 1), BuildingBlock: EZIPEK_clean_linker_0, # of connection points: 2
#     Edge 16, Type (0, 1), BuildingBlock: EZIPEK_clean_linker_0, # of connection points: 2
#     Edge 17, Type (0, 1), BuildingBlock: EZIPEK_clean_linker_0, # of connection points: 2
#     Edge 18, Type (0, 1), BuildingBlock: EZIPEK_clean_linker_0, # of connection points: 2
#     Edge 19, Type (0, 1), BuildingBlock: EZIPEK_clean_linker_0, # of connection points: 2
#     Edge 20, Type (0, 1), BuildingBlock: EZIPEK_clean_linker_0, # of connection points: 2
#     Edge 21, Type (0, 1), BuildingBlock: EZIPEK_clean_linker_0, # of connection points: 2
#     Edge 22, Type (0, 1), BuildingBlock: EZIPEK_clean_linker_0, # of connection points: 2
#     Edge 23, Type (0, 1), BuildingBlock: EZIPEK_clean_linker_0, # of connection points: 2
#     Edge 24, Type (0, 1), BuildingBlock: EZIPEK_clean_linker_0, # of connection points: 2
#     Edge 25, Type (0, 1), BuildingBlock: EZIPEK_clean_linker_0, # of connection points: 2
#     Edge 26, Type (0, 1), BuildingBlock: EZIPEK_clean_linker_0, # of connection points: 2
#     Edge 27, Type (0, 1), BuildingBlock: EZIPEK_clean_linker_0, # of connection points: 2
#     Edge 28, Type (0, 1), BuildingBlock: EZIPEK_clean_linker_0, # of connection points: 2
#     Edge 29, Type (0, 1), BuildingBlock: EZIPEK_clean_linker_0, # of connection points: 2
#     Edge 30, Type (0, 1), BuildingBlock: EZIPEK_clean_linker_0, # of connection points: 2
#     Edge 31, Type (0, 1), BuildingBlock: EZIPEK_clean_linker_0, # of connection points: 2
#     Edge 32, Type (0, 1), BuildingBlock: EZIPEK_clean_linker_0, # of connection points: 2
#     Edge 33, Type (0, 1), BuildingBlock: EZIPEK_clean_linker_0, # of connection points: 2
#     Edge 34, Type (0, 1), BuildingBlock: EZIPEK_clean_linker_0, # of connection points: 2
#     Edge 35, Type (0, 1), BuildingBlock: EZIPEK_clean_linker_0, # of connection points: 2
# Relax obj value: 0.188
# Max RMSD: 0.233
# Mean RMSD: 0.155
data_MOF--net-pry--node1-JUFBIX_clean_sbu_0--node2-CUQRIR_clean_linker_1--edge1-EZIPEK_clean_linker_0
_symmetry_space_group_name_H-M    P1
_symmetry_Int_Tables_number       1
_symmetry_cell_setting            triclinic
loop_
_symmetry_equiv_pos_as_xyz
'x, y, z'
_cell_length_a     24.532132
_cell_length_b     23.156061
_cell_length_c     23.722128
_cell_angle_alpha  77.814283
_cell_angle_beta   90.25926
_cell_angle_gamma 94.266264
loop_
_atom_site_label
_atom_site_type_symbol
_atom_site_fract_x
_atom_site_fract_y
_atom_site_fract_z
_atom_type_partial_charge
C0 C 0.2078 0.21126 0.2353 0.0
N1 N 0.24186 0.16661 0.25041 0.0
N2 N 0.20825 0.23355 0.17766 0.0
C3 C 0.17236 0.2321 0.27764 0.0
C4 C 0.24573 0.20153 0.158 0.0
N5 N 0.26776 0.16153 0.20173 0.0
C6 C 0.26045 0.20851 0.09538 0.0
H7 H 0.13437 0.20238 0.28626 0.0
H8 H 0.16117 0.27802 0.26064 0.0
H9 H 0.19381 0.23044 0.31915 0.0
H10 H 0.29628 0.24109 0.08442 0.0
H11 H 0.22599 0.22486 0.06754 0.0
H12 H 0.2716 0.16565 0.08654 0.0
C13 C 0.43839 0.79971 0.69901 0.0
N14 N 0.44148 0.84528 0.72605 0.0
N15 N 0.48884 0.78358 0.68999 0.0
C16 C 0.38556 0.77187 0.68081 0.0
C17 C 0.52276 0.82017 0.71486 0.0
N18 N 0.49351 0.85771 0.73704 0.0
C19 C 0.58393 0.82042 0.71659 0.0
H20 H 0.39015 0.72624 0.67484 0.0
H21 H 0.37204 0.79941 0.63977 0.0
H22 H 0.35314 0.77039 0.71364 0.0
H23 H 0.59982 0.80061 0.68185 0.0
H24 H 0.59617 0.7944 0.75893 0.0
H25 H 0.6025 0.86631 0.71243 0.0
C26 C 0.67872 0.38043 0.8819 0.0
N27 N 0.70733 0.36448 0.9312 0.0
N28 N 0.70519 0.42648 0.84528 0.0
C29 C 0.62696 0.34762 0.86695 0.0
C30 C 0.75017 0.43995 0.87474 0.0
N31 N 0.75183 0.40253 0.92724 0.0
C32 C 0.79235 0.49009 0.85269 0.0
H33 H 0.63614 0.32415 0.83227 0.0
H34 H 0.59591 0.37906 0.85023 0.0
H35 H 0.60889 0.31525 0.90463 0.0
H36 H 0.78827 0.50784 0.80579 0.0
H37 H 0.83398 0.47495 0.86185 0.0
H38 H 0.78735 0.52646 0.87562 0.0
C39 C 0.93164 0.73416 0.39673 0.0
N40 N 0.98573 0.72616 0.40165 0.0
N41 N 0.91731 0.7732 0.42757 0.0
C42 C 0.89114 0.69959 0.36612 0.0
C43 C 0.96462 0.7912 0.44945 0.0
N44 N 1.00697 0.76168 0.43554 0.0
C45 C 0.96727 0.83452 0.48835 0.0
H46 H 0.91008 0.68805 0.32798 0.0
H47 H 0.85533 0.7253 0.35192 0.0
H48 H 0.87637 0.658 0.39632 0.0
H49 H 0.96704 0.81068 0.53407 0.0
H50 H 0.93142 0.86163 0.48199 0.0
H51 H 1.00485 0.86387 0.47843 0.0
C52 C 0.8485 0.86058 0.95709 0.0
N53 N 0.89007 0.85033 0.92339 0.0
N54 N 0.8242 0.91032 0.93294 0.0
C55 C 0.83218 0.82225 1.01497 0.0
C56 C 0.8522 0.93009 0.88216 0.0
N57 N 0.89202 0.89354 0.87513 0.0
C58 C 0.8405 0.98528 0.83928 0.0
H59 H 0.83482 0.77473 1.01458 0.0
H60 H 0.7901 0.82918 1.0276 0.0
H61 H 0.86071 0.83371 0.04803 0.0
H62 H 0.87908 0.00884 0.81959 0.0
H63 H 0.81793 0.01532 0.85982 0.0
H64 H 0.81506 0.97282 0.80431 0.0
C65 C 0.70973 0.19035 0.46296 0.0
N66 N 0.701 0.13185 0.46425 0.0
N67 N 0.66219 0.21421 0.46725 0.0
C68 C 0.76499 0.22422 0.45737 0.0
C69 C 0.62396 0.16815 0.47298 0.0
N70 N 0.64707 0.11693 0.46964 0.0
C71 C 0.56532 0.17362 0.48765 0.0
H72 H 0.79493 0.19833 0.48532 0.0
H73 H 0.76344 0.26807 0.46882 0.0
H74 H 0.77966 0.23119 0.41209 0.0
H75 H 0.56071 0.21419 0.50451 0.0
H76 H 0.5502 0.13516 0.52143 0.0
H77 H 0.54018 0.17711 0.44831 0.0
C78 C 0.34043 0.63666 0.219 0.0
N79 N 0.38813 0.6648 0.23153 0.0
N80 N 0.3258 0.65724 0.16349 0.0
C81 C 0.30818 0.58909 0.2613 0.0
C82 C 0.36677 0.69823 0.14248 0.0
N83 N 0.40369 0.70452 0.1839 0.0
C84 C 0.37065 0.73331 0.08131 0.0
H85 H 0.32262 0.54535 0.25906 0.0
H86 H 0.26399 0.58868 0.25107 0.0
H87 H 0.31439 0.59583 0.30591 0.0
H88 H 0.3512 0.77556 0.07835 0.0
H89 H 0.34949 0.70833 0.05144 0.0
H90 H 0.41414 0.74422 0.06788 0.0
C91 C 0.08573 0.36419 0.64525 0.0
N92 N 0.12523 0.33826 0.6221 0.0
N93 N 0.10683 0.41312 0.66249 0.0
C94 C 1.0277 0.33849 0.65634 0.0
C95 C 0.15976 0.4184 0.64586 0.0
N96 N 0.17191 0.3717 0.62354 0.0
C97 C 0.20094 0.46628 0.65735 0.0
H98 H 1.00166 0.37064 0.66955 0.0
H99 H 1.02685 0.29782 0.69092 0.0
H100 H 1.01084 0.32556 0.61693 0.0
H101 H 0.20948 0.45855 0.70422 0.0
H102 H 0.18427 0.51025 0.64471 0.0
H103 H 0.23973 0.46778 0.63309 0.0
Co104 Co 0.04819 0.00874 0.54001 0.0
C105 C 0.09733 0.89797 0.55073 0.0
Co106 Co 0.12405 0.99689 0.58869 0.0
C107 C 0.93867 0.0327 0.50473 0.0
C108 C 0.97652 0.98511 0.44944 0.0
N109 N 0.98574 0.00921 0.496 0.0
N110 N 0.90021 0.0234 0.46617 0.0
C111 C 0.92351 0.99271 0.43167 0.0
H112 H 0.93243 0.05591 0.53903 0.0
H113 H 1.00636 0.96333 0.4297 0.0
C114 C 0.07837 0.10879 0.57298 0.0
N115 N 0.18383 0.99908 0.63581 0.0
C116 C 0.22755 0.9668 0.64189 0.0
C117 C 0.18965 0.03182 0.67694 0.0
N118 N 0.25949 0.97815 0.68511 0.0
C119 C 0.23649 0.0193 0.70707 0.0
C120 C 0.14525 0.04379 0.46997 0.0
O121 O 0.0395 0.088 0.54629 0.0
O122 O 0.11516 0.07566 0.59424 0.0
O123 O 0.16874 0.02716 0.5184 0.0
O124 O 0.0929 0.03939 0.46991 0.0
O125 O 0.13397 0.91808 0.58094 0.0
H126 H 0.16123 0.06229 0.68574 0.0
H127 H 0.23554 0.93499 0.616 0.0
O128 O 0.05791 0.92929 0.53213 0.0
O129 O 1.00374 0.97866 0.61208 0.0
O130 O 0.07949 0.96565 0.65904 0.0
C131 C 1.0274 0.96237 0.66051 0.0
H132 H 0.90384 0.9779 0.39574 0.0
H133 H 0.2522 0.03803 0.74257 0.0
Co134 Co 0.53807 0.04185 0.04563 0.0
C135 C 0.51785 0.93349 0.12419 0.0
Co136 Co 0.58109 0.03503 0.12824 0.0
C137 C 0.52533 0.02876 0.92778 0.0
C138 C 0.44831 0.02933 0.96945 0.0
N139 N 0.50255 0.04075 0.97561 0.0
N140 N 0.48806 0.00736 0.89411 0.0
C141 C 0.43939 0.00845 0.91963 0.0
H142 H 0.56879 0.02813 0.92091 0.0
H143 H 0.41788 0.02849 1.00249 0.0
C144 C 0.6042 0.14295 0.04861 0.0
N145 N 0.61758 0.03332 0.19619 0.0
C146 C 0.59657 0.01986 0.25011 0.0
C147 C 0.67 0.05303 0.20191 0.0
N148 N 0.63313 0.03304 0.28893 0.0
C149 C 0.6796 0.05304 0.25897 0.0
C150 C 0.64327 0.99615 0.0455 0.0
O151 O 0.56981 0.12081 1.01704 0.0
O152 O 0.61391 0.11337 0.0987 0.0
O153 O 0.64374 1.00197 0.09775 0.0
O154 O 0.60122 0.01096 1.01617 0.0
O155 O 0.54921 0.9571 0.15706 0.0
H156 H 0.6985 0.06937 0.1665 0.0
H157 H 0.55418 0.00484 0.2602 0.0
O158 O 0.50807 0.96278 0.07405 0.0
O159 O 0.47397 0.07288 0.07764 0.0
O160 O 0.51713 0.06785 0.15927 0.0
C161 C 0.47392 0.07975 0.12987 0.0
H162 H 0.40105 0.98885 0.90696 0.0
H163 H 0.71698 0.06894 0.27669 0.0
Co164 Co 0.60389 0.55547 0.5033 0.0
C165 C 0.51503 0.56113 0.42872 0.0
Co166 Co 0.53356 0.49502 0.53857 0.0
C167 C 0.67833 0.65746 0.49518 0.0
C168 C 0.68562 0.61675 0.42268 0.0
N169 N 0.65898 0.61089 0.4733 0.0
N170 N 0.71639 0.69207 0.46051 0.0
C171 C 0.7213 0.66638 0.41496 0.0
H172 H 0.66385 0.66614 0.53525 0.0
H173 H 0.67951 0.58686 0.39342 0.0
C174 C 0.62144 0.49433 0.61499 0.0
N175 N 0.4786 0.43687 0.56707 0.0
C176 C 0.42368 0.43754 0.56597 0.0
C177 C 0.48794 0.37963 0.58896 0.0
N178 N 0.39896 0.38298 0.58602 0.0
C179 C 0.43905 0.34638 0.60038 0.0
C180 C 0.61036 0.4462 0.47886 0.0
O181 O 0.64256 0.53451 0.5743 0.0
O182 O 0.57557 0.46828 0.60653 0.0
O183 O 0.56356 0.43917 0.50239 0.0
O184 O 0.63792 0.49564 0.47403 0.0
O185 O 0.49163 0.52367 0.47034 0.0
H186 H 0.528 0.36284 0.59538 0.0
H187 H 0.40222 0.47697 0.55074 0.0
O188 O 0.56499 0.57797 0.43316 0.0
O189 O 0.57105 0.61355 0.53367 0.0
O190 O 0.50417 0.55165 0.57627 0.0
C191 C 0.52993 0.60267 0.56722 0.0
H192 H 0.75028 0.6813 0.37965 0.0
H193 H 0.43316 0.29942 0.61895 0.0
Co194 Co 0.04279 0.53377 1.0104 0.0
C195 C 0.93611 0.47962 0.04609 0.0
Co196 Co 1.01908 0.52955 0.10104 0.0
C197 C 0.07794 0.51829 0.89581 0.0
C198 C 1.00924 0.56971 0.89603 0.0
N199 N 0.04807 0.54285 0.93082 0.0
N200 N 0.05812 0.5284 0.84148 0.0
C201 C 1.0153 0.56091 0.84167 0.0
H202 H 0.10964 0.48878 0.9108 0.0
H203 H 0.97493 0.58985 0.90994 0.0
C204 C 0.12526 0.58118 0.06639 0.0
N205 N 1.01178 0.5261 0.18111 0.0
C206 C 1.00449 0.57196 0.20706 0.0
C207 C 1.0305 0.48406 0.22384 0.0
N208 N 1.019 0.56056 0.2633 0.0
C209 C 1.03572 0.50534 0.2737 0.0
C210 C 0.07571 0.43011 0.07809 0.0
O211 O 0.11512 0.56925 1.0171 0.0
O212 O 0.08846 0.57009 0.10535 0.0
O213 O 0.05479 0.4537 0.11639 0.0
O214 O 0.07213 0.45643 1.02535 0.0
O215 O 0.94843 0.48747 0.09644 0.0
H216 H 0.04351 0.44187 0.21883 0.0
H217 H 0.9926 0.6147 0.18444 0.0
O218 O 0.9708 0.49712 1.00534 0.0
O219 O 1.01541 0.61068 0.99536 0.0
O220 O 0.98438 0.60611 0.08194 0.0
C221 C 0.99007 0.63429 1.02962 0.0
H222 H 0.98761 0.57292 0.80613 0.0
H223 H 0.05202 0.48264 0.31416 0.0
C224 C 0.25392 0.12998 0.35589 0.0
C225 C 0.23017 0.12129 0.30346 0.0
C226 C 0.15987 0.05069 0.36141 0.0
C227 C 0.1778 0.06736 0.41351 0.0
N228 N 0.24009 0.1309 0.45712 0.0
N229 N 0.15475 0.07826 0.25724 0.0
C230 C 0.22511 0.10835 0.41009 0.0
C231 C 0.18201 0.08221 0.30674 0.0
N232 N 0.30332 0.16163 0.35316 0.0
N233 N 0.12224 0.00369 0.36367 0.0
H234 H 0.17006 0.09898 0.21649 0.0
H235 H 0.11554 0.05768 0.25689 0.0
H236 H 0.10558 0.9784 0.40207 0.0
H237 H 0.11208 0.98572 0.32792 0.0
H238 H 0.32609 0.16602 0.38937 0.0
H239 H 0.32353 0.17867 0.31384 0.0
H240 H 0.27053 0.16496 0.45587 0.0
H241 H 0.21864 0.12021 0.49613 0.0
C242 C 0.518 0.95639 0.75737 0.0
C243 C 0.51017 0.89439 0.77731 0.0
C244 C 0.50206 0.90791 0.87661 0.0
C245 C 0.49961 0.96969 0.85507 0.0
N246 N 0.50661 0.05404 0.77633 0.0
N247 N 0.49889 0.80959 0.85539 0.0
C248 C 0.50872 0.99444 0.79578 0.0
C249 C 0.5046 0.86975 0.83709 0.0
N250 N 0.53494 0.9782 0.70183 0.0
N251 N 0.50186 0.88606 0.93482 0.0
H252 H 0.5025 0.78091 0.82738 0.0
H253 H 0.48814 0.78798 0.89732 0.0
H254 H 0.49869 0.91267 0.96483 0.0
H255 H 0.5087 0.84246 0.95375 0.0
H256 H 0.54454 0.02295 0.68452 0.0
H257 H 0.54459 0.95009 0.67488 0.0
H258 H 0.50767 0.07473 0.73287 0.0
H259 H 0.50081 0.08249 0.8042 0.0
C260 C 0.63981 0.47925 0.77803 0.0
C261 C 0.68917 0.45142 0.78692 0.0
C262 C 0.70127 0.4662 0.68216 0.0
C263 C 0.6464 0.48254 0.67387 0.0
N264 N 0.56106 0.49887 0.71821 0.0
N265 N 0.76324 0.40928 0.74764 0.0
C266 C 0.61486 0.48718 0.72308 0.0
C267 C 0.71912 0.44253 0.73901 0.0
N268 N 0.61709 0.49868 0.82239 0.0
N269 N 0.73687 0.47375 0.63668 0.0
H270 H 0.77678 0.39043 0.78865 0.0
H271 H 0.78312 0.39615 0.71421 0.0
H272 H 0.72702 0.49294 0.59456 0.0
H273 H 0.77826 0.4669 0.64191 0.0
H274 H 0.58376 0.52465 0.8173 0.0
H275 H 0.63519 0.49354 0.8629 0.0
H276 H 0.53532 0.49498 0.75387 0.0
H277 H 0.54112 0.51013 0.67916 0.0
C278 C 0.9945 0.62243 0.39618 0.0
C279 C 1.01069 0.68347 0.37528 0.0
C280 C 0.04381 0.65913 0.28613 0.0
C281 C 1.0199 0.60041 0.30312 0.0
N282 N 0.96287 0.52956 0.37109 0.0
N283 N 1.03399 0.76055 0.29175 0.0
C284 C 0.99375 0.58234 0.35798 0.0
C285 C 1.03157 0.70202 0.31809 0.0
N286 N 0.97367 0.60426 0.45076 0.0
N287 N 0.07832 0.67412 0.23957 0.0
H288 H 1.0229 0.79322 0.31289 0.0
H289 H 0.04313 0.77561 0.24798 0.0
H290 H 0.09042 0.64297 0.21709 0.0
H291 H 0.09941 0.71575 0.22788 0.0
H292 H 0.96757 0.55988 0.47152 0.0
H293 H 0.96412 0.63407 0.47579 0.0
H294 H 0.93847 0.51622 0.408 0.0
H295 H 0.95652 0.50164 0.34219 0.0
C296 C 0.36825 0.18007 0.1765 0.0
C297 C 0.32245 0.13902 0.19625 0.0
C298 C 0.38272 0.05912 0.18784 0.0
C299 C 0.42349 0.10057 0.15644 0.0
N300 N 0.45229 0.20302 0.11904 0.0
N301 N 0.28661 0.03727 0.21436 0.0
C302 C 0.41538 0.16182 0.15043 0.0
C303 C 0.33004 0.07783 0.20051 0.0
N304 N 0.36708 0.23674 0.184 0.0
N305 N 0.39485 1.00196 0.20771 0.0
H306 H 0.24819 0.0495 0.22299 0.0
H307 H 0.288 0.99284 0.21247 0.0
H308 H 0.43361 0.98802 0.2023 0.0
H309 H 0.36875 0.97064 0.23477 0.0
H310 H 0.40031 0.26808 0.17501 0.0
H311 H 0.33476 0.25 0.20549 0.0
H312 H 0.44606 0.248 0.10792 0.0
H313 H 0.48727 0.19146 0.10052 0.0
C314 C 0.39912 0.93291 0.67323 0.0
C315 C 0.40012 0.88616 0.72251 0.0
C316 C 0.30955 0.90552 0.75191 0.0
C317 C 0.30916 0.95224 0.70275 0.0
N318 N 0.35653 0.02089 0.62561 0.0
N319 N 0.36206 0.83235 0.81294 0.0
C320 C 0.35533 0.9696 0.66662 0.0
C321 C 0.35731 0.87449 0.76378 0.0
N322 N 0.43772 0.93916 0.63066 0.0
N323 N 0.26317 0.88889 0.78473 0.0
H324 H 0.39573 0.80695 0.82028 0.0
H325 H 0.33455 0.82483 0.84744 0.0
H326 H 0.22757 0.91109 0.77651 0.0
H327 H 0.25882 0.85155 0.81806 0.0
H328 H 0.43556 0.96823 0.59084 0.0
H329 H 0.46993 0.91199 0.63326 0.0
H330 H 0.39124 0.03894 0.60117 0.0
H331 H 0.32407 0.04819 0.61995 0.0
C332 C 0.7884 0.45946 0.99896 0.0
C333 C 0.79124 0.41022 0.97195 0.0
C334 C 0.88452 0.39716 1.00981 0.0
C335 C 0.88306 0.44906 1.03252 0.0
N336 N 0.82979 0.52097 0.06165 0.0
N337 N 0.84366 0.3353 0.94787 0.0
C338 C 0.8335 0.47706 1.03168 0.0
C339 C 0.83935 0.37899 0.97774 0.0
N340 N 0.74432 0.49284 0.98856 0.0
N341 N 0.92944 0.365 1.01953 0.0
H342 H 0.81158 0.32172 0.92405 0.0
H343 H 0.87943 0.31511 0.94353 0.0
H344 H 0.96307 0.37763 1.04235 0.0
H345 H 0.93188 0.32363 1.00953 0.0
H346 H 0.74196 0.53342 1.00026 0.0
H347 H 0.71104 0.48181 0.96438 0.0
H348 H 0.79353 0.53955 0.06781 0.0
H349 H 0.86237 0.53579 0.08456 0.0
C350 C 0.82453 0.80644 0.41835 0.0
C351 C 0.86381 0.77321 0.45163 0.0
C352 C 0.7921 0.72104 0.51737 0.0
C353 C 0.7542 0.73785 0.47335 0.0
N354 N 0.72864 0.80922 0.39142 0.0
N355 N 0.88581 0.70014 0.53619 0.0
C356 C 0.7685 0.78671 0.42795 0.0
C357 C 0.84813 0.73212 0.50331 0.0
N358 N 0.84155 0.85373 0.37591 0.0
N359 N 0.77466 0.69307 0.57133 0.0
H360 H 0.92754 0.7063 0.52751 0.0
H361 H 0.8751 0.6646 0.57018 0.0
H362 H 0.73356 0.68857 0.58322 0.0
H363 H 0.80111 0.68247 0.60586 0.0
H364 H 0.81513 0.88157 0.35098 0.0
H365 H 0.88302 0.86699 0.36871 0.0
H366 H 0.73589 0.84172 0.35408 0.0
H367 H 0.68767 0.79387 0.39943 0.0
C368 C 0.11662 0.27253 0.1501 0.0
C369 C 0.17467 0.27978 0.14589 0.0
C370 C 0.1656 0.37838 0.08278 0.0
C371 C 0.10851 0.3757 0.09618 0.0
N372 N 1.03078 0.3189 0.14771 0.0
N373 N 0.25421 0.34616 0.11635 0.0
C374 C 0.08444 0.32234 0.13147 0.0
C375 C 0.19906 0.3343 0.11389 0.0
N376 N 0.09204 0.2173 0.17044 0.0
N377 N 0.18877 0.42327 1.0411 0.0
H378 H 0.27943 0.31658 0.14098 0.0
H379 H 0.27386 0.38757 0.09913 0.0
H380 H 0.16758 0.45813 1.01882 0.0
H381 H 0.22857 0.42347 1.02581 0.0
H382 H 0.04993 0.20752 0.16999 0.0
H383 H 0.11447 0.18019 0.18206 0.0
H384 H 1.01273 0.28401 0.1786 0.0
H385 H 1.00511 0.35269 0.13312 0.0
C386 C 0.70085 0.25527 0.94838 0.0
C387 C 0.69663 0.30741 0.97055 0.0
C388 C 0.63733 0.24934 0.04968 0.0
C389 C 0.63834 0.19891 1.02445 0.0
N390 N 0.68392 0.14916 0.96057 0.0
N391 N 0.65988 0.35501 1.04066 0.0
C392 C 0.67419 0.20051 0.97724 0.0
C393 C 0.6658 0.30412 1.02183 0.0
N394 N 0.72527 0.25954 0.89577 0.0
N395 N 0.60894 0.24487 0.10009 0.0
H396 H 0.68072 0.39484 1.02127 0.0
H397 H 0.63322 0.35881 0.0734 0.0
H398 H 0.58555 0.20666 0.12001 0.0
H399 H 0.61066 0.27754 0.12426 0.0
H400 H 0.7227 0.22569 0.87294 0.0
H401 H 0.74424 0.2988 0.872 0.0
H402 H 0.71518 0.14587 0.93212 0.0
H403 H 0.66416 0.10836 0.97909 0.0
C404 C 0.05848 0.74578 0.52532 0.0
C405 C 0.05975 0.76237 0.46422 0.0
C406 C 0.12281 0.84735 0.47289 0.0
C407 C 0.10269 0.84256 0.52965 0.0
N408 N 0.06074 0.78135 0.61494 0.0
N409 N 0.11519 0.81135 0.38357 0.0
C410 C 0.07483 0.78891 0.55817 0.0
C411 C 0.10021 0.80707 0.43938 0.0
N412 N 0.03911 0.69003 0.55091 0.0
N413 N 0.16285 0.89045 0.4518 0.0
H414 H 0.10463 0.77659 0.36323 0.0
H415 H 0.13998 0.84615 0.35945 0.0
H416 H 0.17993 0.91878 0.47713 0.0
H417 H 0.18114 0.89605 0.41135 0.0
H418 H 0.03759 0.67429 0.59539 0.0
H419 H 1.03134 0.65809 0.52641 0.0
H420 H 1.0351 0.74589 0.63677 0.0
H421 H 0.07372 0.81233 0.63935 0.0
C422 C 0.53113 0.69137 0.68452 0.0
C423 C 0.5016 0.73958 0.65824 0.0
C424 C 0.48164 0.69153 0.57712 0.0
C425 C 0.51754 0.64779 0.6 0.0
N426 N 0.59335 0.62342 0.66435 0.0
N427 N 0.4626 0.79352 0.57101 0.0
C428 C 0.54735 0.65245 0.65056 0.0
C429 C 0.48097 0.74221 0.60173 0.0
N430 N 0.54255 0.68152 0.7419 0.0
N431 N 0.44823 0.68478 0.53249 0.0
H432 H 0.46485 0.83231 0.58682 0.0
H433 H 0.45089 0.79885 0.52803 0.0
H434 H 0.44665 0.64682 0.51522 0.0
H435 H 0.41856 0.71395 0.51701 0.0
H436 H 0.56106 0.64393 0.76312 0.0
H437 H 0.52815 0.70729 0.76892 0.0
H438 H 0.61808 0.62942 0.69887 0.0
H439 H 0.61005 0.59963 0.63718 0.0
C440 C 0.97944 0.93856 0.82317 0.0
C441 C 0.92928 0.90324 0.82432 0.0
C442 C 0.94514 0.90341 0.72022 0.0
C443 C 0.9948 0.9404 0.71806 0.0
N444 N 0.06212 0.98657 0.77324 0.0
N445 N 0.85724 0.86977 0.76715 0.0
C446 C 1.01286 0.95551 0.77134 0.0
C447 C 0.91041 0.89041 0.77096 0.0
N448 N 0.99211 0.962 0.87024 0.0
N449 N 0.93229 0.87708 0.67497 0.0
H450 H 0.82984 0.86257 0.80181 0.0
H451 H 0.83879 0.86616 0.72827 0.0
H452 H 0.95767 0.88145 0.63898 0.0
H453 H 0.89993 0.84502 0.67627 0.0
H454 H 1.02387 0.99404 0.8715 0.0
H455 H 0.96696 0.95397 0.90664 0.0
H456 H 0.08233 0.98925 0.81138 0.0
H457 H 0.08438 0.00836 0.73701 0.0
C458 C 0.64932 0.01638 0.44934 0.0
C459 C 0.61869 0.06348 0.45626 0.0
C460 C 0.58024 0.06891 0.36208 0.0
C461 C 0.62275 0.0358 0.34785 0.0
N462 N 0.69053 0.96631 0.38173 0.0
N463 N 0.52206 0.06807 0.44314 0.0
C464 C 0.65481 0.0049 0.39298 0.0
C465 C 0.57307 0.0709 0.42024 0.0
N466 N 0.66909 0.98109 0.49702 0.0
N467 N 0.54826 0.1003 0.32144 0.0
H468 H 0.5157 0.05883 0.48772 0.0
H469 H 0.48711 0.06855 0.4178 0.0
H470 H 0.55495 0.10564 0.27729 0.0
H471 H 0.51847 0.12592 0.33272 0.0
H472 H 0.68902 0.94312 0.49607 0.0
H473 H 0.66101 0.98854 0.538 0.0
H474 H 0.71866 0.94718 0.41168 0.0
H475 H 0.69251 0.95477 0.34162 0.0
C476 C 0.43387 0.67144 0.32463 0.0
C477 C 0.4237 0.64152 0.27901 0.0
C478 C 0.47002 0.55649 0.33353 0.0
C479 C 0.48393 0.58862 0.37689 0.0
N480 N 0.49075 0.68302 0.40565 0.0
N481 N 0.44407 0.56175 0.23388 0.0
C482 C 0.46971 0.64818 0.3698 0.0
C483 C 0.44536 0.58572 0.28175 0.0
N484 N 0.40703 0.72035 0.32667 0.0
N485 N 0.48027 0.49814 0.3417 0.0
H486 H 0.42912 0.58381 0.19465 0.0
H487 H 0.46316 0.52371 0.23124 0.0
H488 H 0.49949 0.47585 0.37836 0.0
H489 H 0.46603 0.47081 0.31426 0.0
H490 H 0.40857 0.74086 0.3618 0.0
H491 H 0.37859 0.73627 0.29589 0.0
H492 H 0.48612 0.72834 0.39865 0.0
H493 H 0.51675 0.66792 0.43951 0.0
C494 C 0.07974 0.4072 0.76423 0.0
C495 C 0.08617 0.43997 0.70654 0.0
C496 C 0.07889 0.53177 0.73946 0.0
C497 C 0.06872 0.49846 0.79624 0.0
N498 N 0.03864 0.40409 0.85688 0.0
N499 N 0.07825 0.53068 0.63744 0.0
C500 C 0.06282 0.43597 0.80707 0.0
C501 C 0.08077 0.50154 0.6936 0.0
N502 N 0.09224 0.34963 0.77914 0.0
N503 N 0.08878 0.59186 0.72993 0.0
H504 H 0.07967 0.50857 0.60344 0.0
H505 H 0.0703 0.57508 0.62514 0.0
H506 H 0.08995 0.61483 0.76337 0.0
H507 H 0.10077 0.61794 0.68994 0.0
H508 H 0.09359 0.32659 0.82188 0.0
H509 H 0.10611 0.32659 0.7498 0.0
H510 H 1.02941 0.35842 0.86407 0.0
H511 H 1.02159 0.42379 0.8876 0.0
C512 C 0.78984 0.97661 0.99366 0.0
C513 C 0.77905 0.93541 0.95767 0.0
C514 C 0.68114 0.92857 0.98499 0.0
C515 C 0.69097 0.97363 1.01751 0.0
N516 N 0.75497 0.04768 1.04392 0.0
N517 N 0.71381 0.8783 0.91249 0.0
C518 C 0.74553 0.99941 1.01964 0.0
C519 C 0.72434 0.91357 0.95125 0.0
N520 N 0.84292 0.99307 1.00395 0.0
N521 N 0.63121 0.89748 0.98893 0.0
H522 H 0.7448 0.86591 0.88849 0.0
H523 H 0.67454 0.86556 0.90066 0.0
H524 H 0.5996 0.90456 1.01534 0.0
H525 H 0.62271 0.86063 0.97083 0.0
H526 H 0.85448 0.01738 1.03486 0.0
H527 H 0.87569 0.97871 0.98404 0.0
H528 H 0.79244 0.07242 1.04122 0.0
H529 H 0.72422 0.06658 0.06233 0.0
C530 C 0.7649 0.0614 0.51424 0.0
C531 C 0.7449 0.0943 0.46222 0.0
C532 C 0.82837 0.08133 0.41179 0.0
C533 C 0.84591 0.04361 0.46282 0.0
N534 N 0.82395 0.9856 0.55779 0.0
N535 N 0.75266 0.12943 0.35998 0.0
C536 C 0.81186 0.02976 0.5126 0.0
C537 C 0.77486 0.10124 0.41021 0.0
N538 N 0.74021 0.06245 0.5654 0.0
N539 N 0.86412 0.10188 0.36683 0.0
H540 H 0.71333 0.1441 0.35851 0.0
H541 H 0.77127 0.13435 0.31975 0.0
H542 H 0.90485 0.09188 0.3681 0.0
H543 H 0.85525 0.13372 0.33063 0.0
H544 H 0.75652 0.04426 0.60529 0.0
H545 H 0.70515 0.08481 0.5677 0.0
H546 H 0.79806 0.97061 0.59342 0.0
H547 H 0.8569 0.95985 0.55658 0.0
C548 C 0.26864 0.58022 0.12815 0.0
C549 C 0.27785 0.63966 0.13345 0.0
C550 C 0.19393 0.663 0.07887 0.0
C551 C 0.18068 0.60184 0.08249 0.0
N552 N 0.19963 0.50154 0.12689 0.0
N553 N 0.24326 0.73621 0.12262 0.0
C554 C 0.21654 0.56009 0.11135 0.0
C555 C 0.23907 0.68103 0.11071 0.0
N556 N 0.30971 0.54296 0.13888 0.0
N557 N 0.16293 0.70364 0.04598 0.0
H558 H 0.27399 0.74957 0.14833 0.0
H559 H 0.21336 0.76624 0.11195 0.0
H560 H 0.12966 0.69132 1.02237 0.0
H561 H 0.1733 0.74911 1.03797 0.0
H562 H 0.306 0.50009 0.1313 0.0
H563 H 0.349 0.55733 0.14928 0.0
H564 H 0.22269 0.47038 0.15275 0.0
H565 H 0.16019 0.48568 0.11948 0.0
C566 C 0.24909 0.36735 0.55809 0.0
C567 C 0.22737 0.35763 0.61494 0.0
C568 C 0.32075 0.35951 0.65322 0.0
C569 C 0.34159 0.36812 0.59651 0.0
N570 N 0.32792 0.36644 0.49682 0.0
N571 N 0.24304 0.33898 0.71789 0.0
C572 C 0.3063 0.36685 0.54962 0.0
C573 C 0.26349 0.35013 0.66292 0.0
N574 N 0.21585 0.3835 0.5122 0.0
N575 N 0.35554 0.36592 0.69709 0.0
H576 H 0.20257 0.34363 0.72753 0.0
H577 H 0.26612 0.32378 0.75421 0.0
H578 H 0.39767 0.37439 0.69125 0.0
H579 H 0.34275 0.36751 0.73847 0.0
H580 H 0.22992 0.39691 0.46976 0.0
H581 H 0.17483 0.38944 0.51745 0.0
H582 H 0.30422 0.36021 0.46173 0.0
H583 H 0.36998 0.3671 0.48986 0.0
C584 C 0.96209 0.8001 0.98667 0.0
C585 C 0.92371 0.79986 0.94117 0.0
C586 C 0.92195 0.6902 0.96291 0.0
C587 C 0.96381 0.69108 1.00457 0.0
N588 N 1.02887 0.74819 0.05071 0.0
N589 N 0.87034 0.74382 0.88372 0.0
C590 C 0.98552 0.74652 1.01463 0.0
C591 C 0.90542 0.74448 0.92828 0.0
N592 N 0.97316 0.85101 1.0062 0.0
N593 N 0.89554 0.63716 0.95884 0.0
H594 H 0.85495 0.78228 0.86071 0.0
H595 H 0.85969 0.7064 0.86711 0.0
H596 H 0.90539 0.59704 0.98451 0.0
H597 H 0.86092 0.63299 0.93407 0.0
H598 H 0.99573 0.85314 1.04309 0.0
H599 H 0.95538 0.8901 0.98855 0.0
H600 H 0.05099 0.7873 0.05461 0.0
H601 H 0.04478 0.70994 0.07422 0.0
C602 C 0.4924 0.76515 0.1717 0.0
C603 C 0.43542 0.76005 0.18237 0.0
C604 C 0.43254 0.86754 0.15213 0.0
C605 C 0.49017 0.87364 0.14511 0.0
N606 N 0.57656 0.8289 0.15461 0.0
N607 N 0.35416 0.80706 0.19774 0.0
C608 C 0.52077 0.82261 0.15771 0.0
C609 C 0.4068 0.81171 0.17803 0.0
N610 N 0.51854 0.71521 0.17164 0.0
N611 N 0.40166 0.91412 0.13175 0.0
H612 H 0.33369 0.76649 0.21616 0.0
H613 H 0.33294 0.84357 0.2011 0.0
H614 H 0.41803 0.95651 0.11291 0.0
H615 H 0.35917 0.9096 0.12946 0.0
H616 H 0.55894 0.71564 0.15824 0.0
H617 H 0.49826 0.67309 0.18182 0.0
H618 H 0.60116 0.79407 0.16877 0.0
H619 H 0.59852 0.86975 0.14072 0.0
C620 C 0.11534 0.22906 0.65108 0.0
C621 C 0.11704 0.28097 0.60679 0.0
C622 C 0.08626 0.22016 0.53791 0.0
C623 C 0.08149 0.16946 0.58354 0.0
N624 N 0.07193 0.1309 0.68551 0.0
N625 N 0.083 0.3266 0.51367 0.0
C626 C 0.08998 0.17562 0.64082 0.0
C627 C 0.09645 0.27689 0.55156 0.0
N628 N 0.13775 0.23062 0.7032 0.0
N629 N 0.08246 0.21451 0.48189 0.0
H630 H 0.08562 0.3682 0.52427 0.0
H631 H 0.06364 0.32526 0.47471 0.0
H632 H 0.07461 0.17375 0.47025 0.0
H633 H 0.09105 0.25008 0.44727 0.0
H634 H 0.14206 0.19292 0.73534 0.0
H635 H 0.15697 0.26899 0.71145 0.0
H636 H 0.07302 0.13476 0.72849 0.0
H637 H 0.04987 0.09273 0.67863 0.0
C638 C 0.66312 0.29541 0.51881 0.0
C639 C 0.65434 0.27501 0.46742 0.0
C640 C 0.62585 0.37202 0.41833 0.0
C641 C 0.63533 0.39261 0.46989 0.0
N642 N 0.67508 0.37925 0.56424 0.0
N643 N 0.63609 0.29353 0.366 0.0
C644 C 0.65797 0.35585 0.51854 0.0
C645 C 0.63848 0.31342 0.41626 0.0
N646 N 0.67442 0.25613 0.56834 0.0
N647 N 0.60355 0.40802 0.37228 0.0
H648 H 0.64455 0.25045 0.36412 0.0
H649 H 0.62917 0.32028 0.32591 0.0
H650 H 0.59711 0.45213 0.372 0.0
H651 H 0.59004 0.39402 0.33537 0.0
H652 H 0.67535 0.26654 0.60895 0.0
H653 H 0.67884 0.21144 0.56944 0.0
H654 H 0.69615 0.35655 0.5992 0.0
H655 H 0.67308 0.42387 0.56377 0.0
loop_
_geom_bond_atom_site_label_1
_geom_bond_atom_site_label_2
_geom_bond_distance
_geom_bond_site_symmetry_2
_ccdc_geom_bond_type
C0 N1 1.317 . S
C0 N2 1.348 . S
C0 C3 1.485 . S
N1 C0 1.317 . S
N1 N5 1.370 . S
N2 C0 1.348 . S
N2 C4 1.346 . S
C3 C0 1.485 . S
C3 H7 0.960 . S
C3 H8 0.961 . S
C3 H9 0.960 . S
C4 N2 1.346 . S
C4 N5 1.307 . S
C4 C6 1.486 . S
N5 N1 1.370 . S
N5 C4 1.307 . S
C6 C4 1.486 . S
C6 H10 0.960 . S
C6 H11 0.960 . S
C6 H12 0.959 . S
H7 C3 0.960 . S
H8 C3 0.961 . S
H9 C3 0.960 . S
H10 C6 0.960 . S
H11 C6 0.960 . S
H12 C6 0.959 . S
C13 N14 1.317 . S
C13 N15 1.348 . S
C13 C16 1.485 . S
N14 C13 1.317 . S
N14 N18 1.370 . S
N15 C13 1.348 . S
N15 C17 1.346 . S
C16 C13 1.485 . S
C16 H20 0.960 . S
C16 H21 0.961 . S
C16 H22 0.960 . S
C17 N15 1.346 . S
C17 N18 1.307 . S
C17 C19 1.486 . S
N18 N14 1.370 . S
N18 C17 1.307 . S
C19 C17 1.486 . S
C19 H23 0.960 . S
C19 H24 0.960 . S
C19 H25 0.959 . S
H20 C16 0.960 . S
H21 C16 0.961 . S
H22 C16 0.960 . S
H23 C19 0.960 . S
H24 C19 0.960 . S
H25 C19 0.959 . S
C26 N27 1.317 . S
C26 N28 1.348 . S
C26 C29 1.485 . S
N27 C26 1.317 . S
N27 N31 1.370 . S
N28 C26 1.348 . S
N28 C30 1.346 . S
C29 C26 1.485 . S
C29 H33 0.960 . S
C29 H34 0.961 . S
C29 H35 0.960 . S
C30 N28 1.346 . S
C30 N31 1.307 . S
C30 C32 1.486 . S
N31 N27 1.370 . S
N31 C30 1.307 . S
C32 C30 1.486 . S
C32 H36 0.960 . S
C32 H37 0.960 . S
C32 H38 0.959 . S
H33 C29 0.960 . S
H34 C29 0.961 . S
H35 C29 0.960 . S
H36 C32 0.960 . S
H37 C32 0.960 . S
H38 C32 0.959 . S
C39 N40 1.317 . S
C39 N41 1.348 . S
C39 C42 1.485 . S
N40 C39 1.317 . S
N40 N44 1.370 . S
N41 C39 1.348 . S
N41 C43 1.346 . S
C42 C39 1.485 . S
C42 H46 0.960 . S
C42 H47 0.961 . S
C42 H48 0.960 . S
C43 N41 1.346 . S
C43 N44 1.307 . S
C43 C45 1.486 . S
N44 N40 1.370 . S
N44 C43 1.307 . S
C45 C43 1.486 . S
C45 H49 0.960 . S
C45 H50 0.960 . S
C45 H51 0.959 . S
H46 C42 0.960 . S
H47 C42 0.961 . S
H48 C42 0.960 . S
H49 C45 0.960 . S
H50 C45 0.960 . S
H51 C45 0.959 . S
C52 N53 1.317 . S
C52 N54 1.348 . S
C52 C55 1.485 . S
N53 C52 1.317 . S
N53 N57 1.370 . S
N54 C52 1.348 . S
N54 C56 1.346 . S
C55 C52 1.485 . S
C55 H59 0.960 . S
C55 H60 0.961 1_556 S
C55 H61 0.960 1_556 S
C56 N54 1.346 . S
C56 N57 1.307 . S
C56 C58 1.486 1_565 S
N57 N53 1.370 . S
N57 C56 1.307 . S
C58 C56 1.486 1_545 S
C58 H62 0.960 . S
C58 H63 0.960 . S
C58 H64 0.959 . S
H59 C55 0.960 . S
H60 C55 0.961 1_554 S
H61 C55 0.960 1_554 S
H62 C58 0.960 . S
H63 C58 0.960 . S
H64 C58 0.959 . S
C65 N66 1.317 . S
C65 N67 1.348 . S
C65 C68 1.485 . S
N66 C65 1.317 . S
N66 N70 1.370 . S
N67 C65 1.348 . S
N67 C69 1.346 . S
C68 C65 1.485 . S
C68 H72 0.960 . S
C68 H73 0.961 . S
C68 H74 0.960 . S
C69 N67 1.346 . S
C69 N70 1.307 . S
C69 C71 1.486 . S
N70 N66 1.370 . S
N70 C69 1.307 . S
C71 C69 1.486 . S
C71 H75 0.960 . S
C71 H76 0.960 . S
C71 H77 0.959 . S
H72 C68 0.960 . S
H73 C68 0.961 . S
H74 C68 0.960 . S
H75 C71 0.960 . S
H76 C71 0.960 . S
H77 C71 0.959 . S
C78 N79 1.317 . S
C78 N80 1.348 . S
C78 C81 1.485 . S
N79 C78 1.317 . S
N79 N83 1.370 . S
N80 C78 1.348 . S
N80 C82 1.346 . S
C81 C78 1.485 . S
C81 H85 0.960 . S
C81 H86 0.961 . S
C81 H87 0.960 . S
C82 N80 1.346 . S
C82 N83 1.307 . S
C82 C84 1.486 . S
N83 N79 1.370 . S
N83 C82 1.307 . S
C84 C82 1.486 . S
C84 H88 0.960 . S
C84 H89 0.960 . S
C84 H90 0.959 . S
H85 C81 0.960 . S
H86 C81 0.961 . S
H87 C81 0.960 . S
H88 C84 0.960 . S
H89 C84 0.960 . S
H90 C84 0.959 . S
C91 N92 1.317 . S
C91 N93 1.348 . S
C91 C94 1.485 . S
N92 C91 1.317 . S
N92 N96 1.370 . S
N93 C91 1.348 . S
N93 C95 1.346 . S
C94 C91 1.485 . S
C94 H98 0.960 1_455 S
C94 H99 0.961 . S
C94 H100 0.960 . S
C95 N93 1.346 . S
C95 N96 1.307 . S
C95 C97 1.486 . S
N96 N92 1.370 . S
N96 C95 1.307 . S
C97 C95 1.486 . S
C97 H101 0.960 . S
C97 H102 0.960 . S
C97 H103 0.959 . S
H98 C94 0.960 1_655 S
H99 C94 0.961 . S
H100 C94 0.960 . S
H101 C97 0.960 . S
H102 C97 0.960 . S
H103 C97 0.959 . S
Co104 N109 2.057 . S
Co104 O121 2.021 1_655 S
Co104 O124 2.062 1_655 S
Co104 O128 2.117 1_545 S
Co104 O129 2.020 . S
C105 O125 1.259 . S
C105 O128 1.258 1_455 S
Co106 N115 2.057 . S
Co106 O122 2.117 1_565 S
Co106 O123 2.020 1_565 S
Co106 O125 2.021 . S
Co106 O130 2.062 . S
C107 N109 1.316 . S
C107 N110 1.347 . S
C107 H112 0.931 . S
C108 N109 1.375 . S
C108 C111 1.350 . S
C108 H113 0.930 1_545 S
N109 Co104 2.057 . S
N109 C107 1.316 . S
N109 C108 1.375 . S
N110 C107 1.347 . S
N110 C111 1.373 . S
C111 C108 1.350 . S
C111 N110 1.373 . S
C111 H132 0.931 . S
H112 C107 0.931 . S
H113 C108 0.930 1_565 S
C114 O121 1.259 . S
C114 O122 1.258 . S
N115 Co106 2.057 . S
N115 C116 1.316 . S
N115 C117 1.375 1_565 S
C116 N115 1.316 . S
C116 N118 1.347 . S
C116 H127 0.931 . S
C117 N115 1.375 1_545 S
C117 C119 1.350 . S
C117 H126 0.930 . S
N118 C116 1.347 . S
N118 C119 1.373 1_565 S
C119 C117 1.350 . S
C119 N118 1.373 1_545 S
C119 H133 0.931 . S
C120 O123 1.256 . S
C120 O124 1.255 . S
O121 Co104 2.021 1_455 S
O121 C114 1.259 . S
O122 Co106 2.117 1_545 S
O122 C114 1.258 . S
O123 Co106 2.020 1_545 S
O123 C120 1.256 . S
O124 Co104 2.062 1_455 S
O124 C120 1.255 . S
O125 C105 1.259 . S
O125 Co106 2.021 . S
H126 C117 0.930 . S
H127 C116 0.931 . S
O128 Co104 2.117 1_565 S
O128 C105 1.258 1_655 S
O129 Co104 2.020 . S
O129 C131 1.256 1_645 S
O130 Co106 2.062 . S
O130 C131 1.255 . S
C131 O129 1.256 1_465 S
C131 O130 1.255 . S
H132 C111 0.931 . S
H133 C119 0.931 . S
Co134 N139 2.057 1_545 S
Co134 O151 2.021 . S
Co134 O154 2.062 1_545 S
Co134 O158 2.117 1_546 S
Co134 O159 2.020 1_556 S
C135 O155 1.259 . S
C135 O158 1.258 . S
Co136 N145 2.057 . S
Co136 O152 2.117 . S
Co136 O153 2.020 . S
Co136 O155 2.021 1_545 S
Co136 O160 2.062 . S
C137 N139 1.316 . S
C137 N140 1.347 . S
C137 H142 0.931 1_565 S
C138 N139 1.375 . S
C138 C141 1.350 . S
C138 H143 0.930 . S
N139 Co134 2.057 1_565 S
N139 C137 1.316 . S
N139 C138 1.375 . S
N140 C137 1.347 . S
N140 C141 1.373 . S
C141 C138 1.350 . S
C141 N140 1.373 . S
C141 H162 0.931 . S
H142 C137 0.931 1_545 S
H143 C138 0.930 . S
C144 O151 1.259 . S
C144 O152 1.258 1_556 S
N145 Co136 2.057 . S
N145 C146 1.316 . S
N145 C147 1.375 . S
C146 N145 1.316 . S
C146 N148 1.347 . S
C146 H157 0.931 . S
C147 N145 1.375 . S
C147 C149 1.350 . S
C147 H156 0.930 . S
N148 C146 1.347 . S
N148 C149 1.373 . S
C149 C147 1.350 . S
C149 N148 1.373 . S
C149 H163 0.931 . S
C150 O153 1.256 1_565 S
C150 O154 1.255 1_554 S
O151 Co134 2.021 . S
O151 C144 1.259 . S
O152 Co136 2.117 . S
O152 C144 1.258 1_554 S
O153 Co136 2.020 . S
O153 C150 1.256 1_545 S
O154 Co134 2.062 1_565 S
O154 C150 1.255 1_556 S
O155 C135 1.259 . S
O155 Co136 2.021 1_565 S
H156 C147 0.930 . S
H157 C146 0.931 . S
O158 Co134 2.117 1_564 S
O158 C135 1.258 . S
O159 Co134 2.020 1_554 S
O159 C161 1.256 . S
O160 Co136 2.062 . S
O160 C161 1.255 . S
C161 O159 1.256 . S
C161 O160 1.255 . S
H162 C141 0.931 . S
H163 C149 0.931 . S
Co164 N169 2.057 . S
Co164 O181 2.021 . S
Co164 O184 2.062 . S
Co164 O188 2.117 . S
Co164 O189 2.020 . S
C165 O185 1.259 . S
C165 O188 1.258 . S
Co166 N175 2.057 . S
Co166 O182 2.117 . S
Co166 O183 2.020 . S
Co166 O185 2.021 . S
Co166 O190 2.062 . S
C167 N169 1.316 . S
C167 N170 1.347 . S
C167 H172 0.931 . S
C168 N169 1.375 . S
C168 C171 1.350 . S
C168 H173 0.930 . S
N169 Co164 2.057 . S
N169 C167 1.316 . S
N169 C168 1.375 . S
N170 C167 1.347 . S
N170 C171 1.373 . S
C171 C168 1.350 . S
C171 N170 1.373 . S
C171 H192 0.931 . S
H172 C167 0.931 . S
H173 C168 0.930 . S
C174 O181 1.259 . S
C174 O182 1.258 . S
N175 Co166 2.057 . S
N175 C176 1.316 . S
N175 C177 1.375 . S
C176 N175 1.316 . S
C176 N178 1.347 . S
C176 H187 0.931 . S
C177 N175 1.375 . S
C177 C179 1.350 . S
C177 H186 0.930 . S
N178 C176 1.347 . S
N178 C179 1.373 . S
C179 C177 1.350 . S
C179 N178 1.373 . S
C179 H193 0.931 . S
C180 O183 1.256 . S
C180 O184 1.255 . S
O181 Co164 2.021 . S
O181 C174 1.259 . S
O182 Co166 2.117 . S
O182 C174 1.258 . S
O183 Co166 2.020 . S
O183 C180 1.256 . S
O184 Co164 2.062 . S
O184 C180 1.255 . S
O185 C165 1.259 . S
O185 Co166 2.021 . S
H186 C177 0.930 . S
H187 C176 0.931 . S
O188 Co164 2.117 . S
O188 C165 1.258 . S
O189 Co164 2.020 . S
O189 C191 1.256 . S
O190 Co166 2.062 . S
O190 C191 1.255 . S
C191 O189 1.256 . S
C191 O190 1.255 . S
H192 C171 0.931 . S
H193 C179 0.931 . S
Co194 N199 2.057 . S
Co194 O211 2.021 . S
Co194 O214 2.062 . S
Co194 O218 2.117 1_455 S
Co194 O219 2.020 . S
C195 O215 1.259 1_556 S
C195 O218 1.258 . S
Co196 N205 2.057 . S
Co196 O212 2.117 1_655 S
Co196 O213 2.020 1_655 S
Co196 O215 2.021 . S
Co196 O220 2.062 . S
C197 N199 1.316 . S
C197 N200 1.347 . S
C197 H202 0.931 . S
C198 N199 1.375 1_655 S
C198 C201 1.350 1_655 S
C198 H203 0.930 . S
N199 Co194 2.057 . S
N199 C197 1.316 . S
N199 C198 1.375 1_455 S
N200 C197 1.347 . S
N200 C201 1.373 . S
C201 C198 1.350 1_455 S
C201 N200 1.373 . S
C201 H222 0.931 1_455 S
H202 C197 0.931 . S
H203 C198 0.930 . S
C204 O211 1.259 1_554 S
C204 O212 1.258 . S
N205 Co196 2.057 . S
N205 C206 1.316 . S
N205 C207 1.375 1_655 S
C206 N205 1.316 . S
C206 N208 1.347 . S
C206 H217 0.931 . S
C207 N205 1.375 1_455 S
C207 C209 1.350 . S
C207 H216 0.930 . S
N208 C206 1.347 . S
N208 C209 1.373 1_655 S
C209 C207 1.350 . S
C209 N208 1.373 1_455 S
C209 H223 0.931 . S
C210 O213 1.256 . S
C210 O214 1.255 1_554 S
O211 Co194 2.021 . S
O211 C204 1.259 1_556 S
O212 Co196 2.117 1_455 S
O212 C204 1.258 . S
O213 Co196 2.020 1_455 S
O213 C210 1.256 . S
O214 Co194 2.062 . S
O214 C210 1.255 1_556 S
O215 C195 1.259 1_554 S
O215 Co196 2.021 . S
H216 C207 0.930 . S
H217 C206 0.931 . S
O218 Co194 2.117 1_655 S
O218 C195 1.258 . S
O219 Co194 2.020 . S
O219 C221 1.256 1_455 S
O220 Co196 2.062 . S
O220 C221 1.255 1_554 S
C221 O219 1.256 1_655 S
C221 O220 1.255 1_556 S
H222 C201 0.931 1_655 S
H223 C209 0.931 . S
C224 C225 1.363 . S
C224 C230 1.379 . S
C224 N232 1.356 . S
C225 C224 1.363 . S
C225 C231 1.363 . S
C226 C227 1.363 . S
C226 C231 1.379 . S
C226 N233 1.351 1_545 S
C227 C226 1.363 . S
C227 C230 1.363 . S
N228 C230 1.356 . S
N228 H240 0.984 . S
N228 H241 0.985 . S
N229 C231 1.356 . S
N229 H234 0.984 . S
N229 H235 0.985 1_545 S
C230 C224 1.379 . S
C230 C227 1.363 . S
C230 N228 1.356 . S
C231 C225 1.363 . S
C231 C226 1.379 . S
C231 N229 1.356 . S
N232 C224 1.356 . S
N232 H238 0.984 . S
N232 H239 0.984 . S
N233 C226 1.351 1_565 S
N233 H236 0.983 1_565 S
N233 H237 0.991 . S
H234 N229 0.984 . S
H235 N229 0.985 1_565 S
H236 N233 0.983 1_545 S
H237 N233 0.991 . S
H238 N232 0.984 . S
H239 N232 0.984 . S
H240 N228 0.984 . S
H241 N228 0.985 . S
C242 C243 1.363 . S
C242 C248 1.379 . S
C242 N250 1.356 . S
C243 C242 1.363 . S
C243 C249 1.363 . S
C244 C245 1.363 . S
C244 C249 1.379 . S
C244 N251 1.356 . S
C245 C244 1.363 . S
C245 C248 1.363 . S
N246 C248 1.356 1_545 S
N246 H258 0.984 . S
N246 H259 0.985 . S
N247 C249 1.356 . S
N247 H252 0.984 . S
N247 H253 0.985 . S
C248 C242 1.379 . S
C248 C245 1.363 . S
C248 N246 1.356 1_565 S
C249 C243 1.363 . S
C249 C244 1.379 . S
C249 N247 1.356 . S
N250 C242 1.356 . S
N250 H256 0.984 1_565 S
N250 H257 0.984 . S
N251 C244 1.356 . S
N251 H254 0.984 . S
N251 H255 0.985 . S
H252 N247 0.984 . S
H253 N247 0.985 . S
H254 N251 0.984 . S
H255 N251 0.985 . S
H256 N250 0.984 1_545 S
H257 N250 0.984 . S
H258 N246 0.984 . S
H259 N246 0.985 . S
C260 C261 1.363 . S
C260 C266 1.379 . S
C260 N268 1.356 . S
C261 C260 1.363 . S
C261 C267 1.363 . S
C262 C263 1.363 . S
C262 C267 1.379 . S
C262 N269 1.356 . S
C263 C262 1.363 . S
C263 C266 1.363 . S
N264 C266 1.356 . S
N264 H276 0.984 . S
N264 H277 0.985 . S
N265 C267 1.356 . S
N265 H270 0.984 . S
N265 H271 0.985 . S
C266 C260 1.379 . S
C266 C263 1.363 . S
C266 N264 1.356 . S
C267 C261 1.363 . S
C267 C262 1.379 . S
C267 N265 1.356 . S
N268 C260 1.356 . S
N268 H274 0.984 . S
N268 H275 0.984 . S
N269 C262 1.356 . S
N269 H272 0.984 . S
N269 H273 0.985 . S
H270 N265 0.984 . S
H271 N265 0.985 . S
H272 N269 0.984 . S
H273 N269 0.985 . S
H274 N268 0.984 . S
H275 N268 0.984 . S
H276 N264 0.984 . S
H277 N264 0.985 . S
C278 C279 1.363 . S
C278 C284 1.379 . S
C278 N286 1.356 1_655 S
C279 C278 1.363 . S
C279 C285 1.363 . S
C280 C281 1.363 . S
C280 C285 1.379 . S
C280 N287 1.356 . S
C281 C280 1.363 . S
C281 C284 1.363 . S
N282 C284 1.356 . S
N282 H294 0.984 1_655 S
N282 H295 0.985 . S
N283 C285 1.356 . S
N283 H288 0.984 . S
N283 H289 0.985 . S
C284 C278 1.379 . S
C284 C281 1.363 . S
C284 N282 1.356 . S
C285 C279 1.363 . S
C285 C280 1.379 . S
C285 N283 1.356 . S
N286 C278 1.356 1_455 S
N286 H292 0.984 . S
N286 H293 0.984 . S
N287 C280 1.356 . S
N287 H290 0.984 . S
N287 H291 0.985 . S
H288 N283 0.984 . S
H289 N283 0.985 . S
H290 N287 0.984 . S
H291 N287 0.985 . S
H292 N286 0.984 . S
H293 N286 0.984 . S
H294 N282 0.984 1_455 S
H295 N282 0.985 . S
C296 C297 1.363 . S
C296 C302 1.379 . S
C296 N304 1.356 . S
C297 C296 1.363 . S
C297 C303 1.363 . S
C298 C299 1.363 . S
C298 C303 1.379 . S
C298 N305 1.373 . S
C299 C298 1.363 . S
C299 C302 1.363 . S
N300 C302 1.356 . S
N300 H312 0.988 . S
N300 H313 0.985 . S
N301 C303 1.356 . S
N301 H306 0.984 . S
N301 H307 0.985 1_545 S
C302 C296 1.379 . S
C302 C299 1.363 . S
C302 N300 1.356 . S
C303 C297 1.363 . S
C303 C298 1.379 . S
C303 N301 1.356 . S
N304 C296 1.356 . S
N304 H310 0.984 . S
N304 H311 0.984 . S
N305 C298 1.373 . S
N305 H308 0.983 . S
N305 H309 0.970 1_545 S
H306 N301 0.984 . S
H307 N301 0.985 1_565 S
H308 N305 0.983 . S
H309 N305 0.970 1_565 S
H310 N304 0.984 . S
H311 N304 0.984 . S
H312 N300 0.988 . S
H313 N300 0.985 . S
C314 C315 1.363 . S
C314 C320 1.379 . S
C314 N322 1.356 . S
C315 C314 1.363 . S
C315 C321 1.363 . S
C316 C317 1.363 . S
C316 C321 1.379 . S
C316 N323 1.356 . S
C317 C316 1.363 . S
C317 C320 1.363 . S
N318 C320 1.356 . S
N318 H330 0.984 1_565 S
N318 H331 0.985 . S
N319 C321 1.356 . S
N319 H324 0.984 . S
N319 H325 0.985 . S
C320 C314 1.379 . S
C320 C317 1.363 . S
C320 N318 1.356 . S
C321 C315 1.363 . S
C321 C316 1.379 . S
C321 N319 1.356 . S
N322 C314 1.356 . S
N322 H328 0.984 . S
N322 H329 0.984 . S
N323 C316 1.356 . S
N323 H326 0.984 . S
N323 H327 0.985 . S
H324 N319 0.984 . S
H325 N319 0.985 . S
H326 N323 0.984 . S
H327 N323 0.985 . S
H328 N322 0.984 . S
H329 N322 0.984 . S
H330 N318 0.984 1_545 S
H331 N318 0.985 . S
C332 C333 1.363 . S
C332 C338 1.379 . S
C332 N340 1.356 . S
C333 C332 1.363 . S
C333 C339 1.363 . S
C334 C335 1.363 . S
C334 C339 1.379 . S
C334 N341 1.356 . S
C335 C334 1.363 . S
C335 C338 1.363 . S
N336 C338 1.356 1_554 S
N336 H348 0.984 . S
N336 H349 0.985 . S
N337 C339 1.356 . S
N337 H342 0.984 . S
N337 H343 0.985 . S
C338 C332 1.379 . S
C338 C335 1.363 . S
C338 N336 1.356 1_556 S
C339 C333 1.363 . S
C339 C334 1.379 . S
C339 N337 1.356 . S
N340 C332 1.356 . S
N340 H346 0.984 1_556 S
N340 H347 0.984 . S
N341 C334 1.356 . S
N341 H344 0.984 . S
N341 H345 0.985 . S
H342 N337 0.984 . S
H343 N337 0.985 . S
H344 N341 0.984 . S
H345 N341 0.985 . S
H346 N340 0.984 1_554 S
H347 N340 0.984 . S
H348 N336 0.984 . S
H349 N336 0.985 . S
C350 C351 1.363 . S
C350 C356 1.379 . S
C350 N358 1.356 . S
C351 C350 1.363 . S
C351 C357 1.363 . S
C352 C353 1.363 . S
C352 C357 1.379 . S
C352 N359 1.356 . S
C353 C352 1.363 . S
C353 C356 1.363 . S
N354 C356 1.356 . S
N354 H366 0.984 . S
N354 H367 0.985 . S
N355 C357 1.356 . S
N355 H360 0.984 . S
N355 H361 0.985 . S
C356 C350 1.379 . S
C356 C353 1.363 . S
C356 N354 1.356 . S
C357 C351 1.363 . S
C357 C352 1.379 . S
C357 N355 1.356 . S
N358 C350 1.356 . S
N358 H364 0.984 . S
N358 H365 0.984 . S
N359 C352 1.356 . S
N359 H362 0.984 . S
N359 H363 0.985 . S
H360 N355 0.984 . S
H361 N355 0.985 . S
H362 N359 0.984 . S
H363 N359 0.985 . S
H364 N358 0.984 . S
H365 N358 0.984 . S
H366 N354 0.984 . S
H367 N354 0.985 . S
C368 C369 1.363 . S
C368 C374 1.379 . S
C368 N376 1.356 . S
C369 C368 1.363 . S
C369 C375 1.363 . S
C370 C371 1.363 . S
C370 C375 1.379 . S
C370 N377 1.356 1_554 S
C371 C370 1.363 . S
C371 C374 1.363 . S
N372 C374 1.356 . S
N372 H384 0.984 . S
N372 H385 0.985 . S
N373 C375 1.356 . S
N373 H378 0.984 . S
N373 H379 0.985 1_554 S
C374 C368 1.379 . S
C374 C371 1.363 . S
C374 N372 1.356 . S
C375 C369 1.363 . S
C375 C370 1.379 . S
C375 N373 1.356 . S
N376 C368 1.356 . S
N376 H382 0.984 . S
N376 H383 0.984 . S
N377 C370 1.356 1_556 S
N377 H380 0.984 . S
N377 H381 0.985 . S
H378 N373 0.984 . S
H379 N373 0.985 1_556 S
H380 N377 0.984 . S
H381 N377 0.985 . S
H382 N376 0.984 . S
H383 N376 0.984 . S
H384 N372 0.984 . S
H385 N372 0.985 . S
C386 C387 1.363 . S
C386 C392 1.379 . S
C386 N394 1.356 . S
C387 C386 1.363 . S
C387 C393 1.363 . S
C388 C389 1.363 . S
C388 C393 1.379 . S
C388 N395 1.356 1_556 S
C389 C388 1.363 . S
C389 C392 1.363 . S
N390 C392 1.356 . S
N390 H402 0.984 . S
N390 H403 0.985 . S
N391 C393 1.359 . S
N391 H396 0.988 . S
N391 H397 0.978 1_556 S
C392 C386 1.379 . S
C392 C389 1.363 . S
C392 N390 1.356 . S
C393 C387 1.363 . S
C393 C388 1.379 . S
C393 N391 1.359 . S
N394 C386 1.356 . S
N394 H400 0.984 . S
N394 H401 0.984 . S
N395 C388 1.356 1_554 S
N395 H398 0.984 . S
N395 H399 0.985 . S
H396 N391 0.988 . S
H397 N391 0.978 1_554 S
H398 N395 0.984 . S
H399 N395 0.985 . S
H400 N394 0.984 . S
H401 N394 0.984 . S
H402 N390 0.984 . S
H403 N390 0.985 . S
C404 C405 1.363 . S
C404 C410 1.379 . S
C404 N412 1.356 . S
C405 C404 1.363 . S
C405 C411 1.363 1_655 S
C406 C407 1.363 . S
C406 C411 1.379 . S
C406 N413 1.356 . S
C407 C406 1.363 . S
C407 C410 1.363 1_455 S
N408 C410 1.356 . S
N408 H420 0.984 . S
N408 H421 0.985 . S
N409 C411 1.356 . S
N409 H414 0.984 . S
N409 H415 0.985 . S
C410 C404 1.379 . S
C410 C407 1.363 1_655 S
C410 N408 1.356 . S
C411 C405 1.363 1_455 S
C411 C406 1.379 . S
C411 N409 1.356 . S
N412 C404 1.356 . S
N412 H418 0.984 . S
N412 H419 0.984 . S
N413 C406 1.356 . S
N413 H416 0.984 . S
N413 H417 0.985 . S
H414 N409 0.984 . S
H415 N409 0.985 . S
H416 N413 0.984 . S
H417 N413 0.985 . S
H418 N412 0.984 . S
H419 N412 0.984 . S
H420 N408 0.984 . S
H421 N408 0.985 . S
C422 C423 1.363 . S
C422 C428 1.379 . S
C422 N430 1.356 . S
C423 C422 1.363 . S
C423 C429 1.363 . S
C424 C425 1.363 . S
C424 C429 1.379 . S
C424 N431 1.356 . S
C425 C424 1.363 . S
C425 C428 1.363 . S
N426 C428 1.356 . S
N426 H438 0.984 . S
N426 H439 0.985 . S
N427 C429 1.356 . S
N427 H432 0.984 . S
N427 H433 0.985 . S
C428 C422 1.379 . S
C428 C425 1.363 . S
C428 N426 1.356 . S
C429 C423 1.363 . S
C429 C424 1.379 . S
C429 N427 1.356 . S
N430 C422 1.356 . S
N430 H436 0.984 . S
N430 H437 0.984 . S
N431 C424 1.356 . S
N431 H434 0.984 . S
N431 H435 0.985 . S
H432 N427 0.984 . S
H433 N427 0.985 . S
H434 N431 0.984 . S
H435 N431 0.985 . S
H436 N430 0.984 . S
H437 N430 0.984 . S
H438 N426 0.984 . S
H439 N426 0.985 . S
C440 C441 1.363 . S
C440 C446 1.379 . S
C440 N448 1.356 1_565 S
C441 C440 1.363 . S
C441 C447 1.363 . S
C442 C443 1.363 1_455 S
C442 C447 1.379 1_455 S
C442 N449 1.356 . S
C443 C442 1.363 1_655 S
C443 C446 1.363 . S
N444 C446 1.356 1_545 S
N444 H456 0.984 . S
N444 H457 0.985 . S
N445 C447 1.356 . S
N445 H450 0.984 . S
N445 H451 0.985 1_655 S
C446 C440 1.379 . S
C446 C443 1.363 . S
C446 N444 1.356 1_565 S
C447 C441 1.363 . S
C447 C442 1.379 1_655 S
C447 N445 1.356 . S
N448 C440 1.356 1_545 S
N448 H454 0.984 . S
N448 H455 0.983 1_545 S
N449 C442 1.356 . S
N449 H452 0.984 . S
N449 H453 0.985 . S
H450 N445 0.984 . S
H451 N445 0.985 1_455 S
H452 N449 0.984 . S
H453 N449 0.985 . S
H454 N448 0.984 . S
H455 N448 0.983 1_565 S
H456 N444 0.984 . S
H457 N444 0.985 . S
C458 C459 1.363 . S
C458 C464 1.379 . S
C458 N466 1.356 . S
C459 C458 1.363 . S
C459 C465 1.363 . S
C460 C461 1.363 . S
C460 C465 1.379 . S
C460 N467 1.356 . S
C461 C460 1.363 . S
C461 C464 1.363 . S
N462 C464 1.356 . S
N462 H474 0.984 . S
N462 H475 0.985 . S
N463 C465 1.356 . S
N463 H468 0.984 . S
N463 H469 0.985 . S
C464 C458 1.379 . S
C464 C461 1.363 . S
C464 N462 1.356 . S
C465 C459 1.363 . S
C465 C460 1.379 . S
C465 N463 1.356 . S
N466 C458 1.356 . S
N466 H472 0.984 . S
N466 H473 0.984 . S
N467 C460 1.356 . S
N467 H470 0.984 . S
N467 H471 0.985 . S
H468 N463 0.984 . S
H469 N463 0.985 . S
H470 N467 0.984 . S
H471 N467 0.985 . S
H472 N466 0.984 . S
H473 N466 0.984 . S
H474 N462 0.984 . S
H475 N462 0.985 . S
C476 C477 1.363 . S
C476 C482 1.379 . S
C476 N484 1.356 . S
C477 C476 1.363 . S
C477 C483 1.363 . S
C478 C479 1.363 . S
C478 C483 1.379 . S
C478 N485 1.356 . S
C479 C478 1.363 . S
C479 C482 1.363 . S
N480 C482 1.356 . S
N480 H492 0.984 . S
N480 H493 0.985 . S
N481 C483 1.356 . S
N481 H486 0.984 . S
N481 H487 0.985 . S
C482 C476 1.379 . S
C482 C479 1.363 . S
C482 N480 1.356 . S
C483 C477 1.363 . S
C483 C478 1.379 . S
C483 N481 1.356 . S
N484 C476 1.356 . S
N484 H490 0.984 . S
N484 H491 0.984 . S
N485 C478 1.356 . S
N485 H488 0.984 . S
N485 H489 0.985 . S
H486 N481 0.984 . S
H487 N481 0.985 . S
H488 N485 0.984 . S
H489 N485 0.985 . S
H490 N484 0.984 . S
H491 N484 0.984 . S
H492 N480 0.984 . S
H493 N480 0.985 . S
C494 C495 1.363 . S
C494 C500 1.379 . S
C494 N502 1.356 . S
C495 C494 1.363 . S
C495 C501 1.363 . S
C496 C497 1.363 . S
C496 C501 1.379 . S
C496 N503 1.356 . S
C497 C496 1.363 . S
C497 C500 1.363 . S
N498 C500 1.356 . S
N498 H510 0.984 . S
N498 H511 0.985 . S
N499 C501 1.356 . S
N499 H504 0.984 . S
N499 H505 0.985 . S
C500 C494 1.379 . S
C500 C497 1.363 . S
C500 N498 1.356 . S
C501 C495 1.363 . S
C501 C496 1.379 . S
C501 N499 1.356 . S
N502 C494 1.356 . S
N502 H508 0.984 . S
N502 H509 0.984 . S
N503 C496 1.356 . S
N503 H506 0.984 . S
N503 H507 0.985 . S
H504 N499 0.984 . S
H505 N499 0.985 . S
H506 N503 0.984 . S
H507 N503 0.985 . S
H508 N502 0.984 . S
H509 N502 0.984 . S
H510 N498 0.984 . S
H511 N498 0.985 . S
C512 C513 1.363 1_545 S
C512 C518 1.379 . S
C512 N520 1.356 . S
C513 C512 1.363 1_565 S
C513 C519 1.363 . S
C514 C515 1.363 1_554 S
C514 C519 1.379 1_554 S
C514 N521 1.356 . S
C515 C514 1.363 1_556 S
C515 C518 1.363 1_565 S
N516 C518 1.356 . S
N516 H528 0.984 . S
N516 H529 0.985 . S
N517 C519 1.356 . S
N517 H522 0.984 . S
N517 H523 0.985 1_556 S
C518 C512 1.379 . S
C518 C515 1.363 1_545 S
C518 N516 1.356 . S
C519 C513 1.363 . S
C519 C514 1.379 1_556 S
C519 N517 1.356 . S
N520 C512 1.356 . S
N520 H526 0.984 . S
N520 H527 0.984 . S
N521 C514 1.356 . S
N521 H524 0.984 . S
N521 H525 0.985 . S
H522 N517 0.984 . S
H523 N517 0.985 1_554 S
H524 N521 0.984 . S
H525 N521 0.985 . S
H526 N520 0.984 . S
H527 N520 0.984 . S
H528 N516 0.984 . S
H529 N516 0.985 . S
C530 C531 1.363 . S
C530 C536 1.379 . S
C530 N538 1.356 . S
C531 C530 1.363 . S
C531 C537 1.363 . S
C532 C533 1.363 . S
C532 C537 1.379 . S
C532 N539 1.356 . S
C533 C532 1.363 . S
C533 C536 1.363 . S
N534 C536 1.356 . S
N534 H546 0.984 . S
N534 H547 0.985 . S
N535 C537 1.356 . S
N535 H540 0.984 . S
N535 H541 0.985 . S
C536 C530 1.379 . S
C536 C533 1.363 . S
C536 N534 1.356 . S
C537 C531 1.363 . S
C537 C532 1.379 . S
C537 N535 1.356 . S
N538 C530 1.356 . S
N538 H544 0.984 . S
N538 H545 0.984 . S
N539 C532 1.356 . S
N539 H542 0.984 . S
N539 H543 0.985 . S
H540 N535 0.984 . S
H541 N535 0.985 . S
H542 N539 0.984 . S
H543 N539 0.985 . S
H544 N538 0.984 . S
H545 N538 0.984 . S
H546 N534 0.984 . S
H547 N534 0.985 . S
C548 C549 1.363 . S
C548 C554 1.379 . S
C548 N556 1.356 . S
C549 C548 1.363 . S
C549 C555 1.363 . S
C550 C551 1.363 . S
C550 C555 1.379 . S
C550 N557 1.356 . S
C551 C550 1.363 . S
C551 C554 1.363 . S
N552 C554 1.356 . S
N552 H564 0.984 . S
N552 H565 0.985 . S
N553 C555 1.356 . S
N553 H558 0.984 . S
N553 H559 0.985 . S
C554 C548 1.379 . S
C554 C551 1.363 . S
C554 N552 1.356 . S
C555 C549 1.363 . S
C555 C550 1.379 . S
C555 N553 1.356 . S
N556 C548 1.356 . S
N556 H562 0.984 . S
N556 H563 0.984 . S
N557 C550 1.356 . S
N557 H560 0.984 . S
N557 H561 0.981 1_554 S
H558 N553 0.984 . S
H559 N553 0.985 . S
H560 N557 0.984 . S
H561 N557 0.981 1_556 S
H562 N556 0.984 . S
H563 N556 0.984 . S
H564 N552 0.984 . S
H565 N552 0.985 . S
C566 C567 1.363 . S
C566 C572 1.379 . S
C566 N574 1.356 . S
C567 C566 1.363 . S
C567 C573 1.363 . S
C568 C569 1.363 . S
C568 C573 1.379 . S
C568 N575 1.356 . S
C569 C568 1.363 . S
C569 C572 1.363 . S
N570 C572 1.356 . S
N570 H582 0.984 . S
N570 H583 0.985 . S
N571 C573 1.356 . S
N571 H576 0.984 . S
N571 H577 0.985 . S
C572 C566 1.379 . S
C572 C569 1.363 . S
C572 N570 1.356 . S
C573 C567 1.363 . S
C573 C568 1.379 . S
C573 N571 1.356 . S
N574 C566 1.356 . S
N574 H580 0.984 . S
N574 H581 0.984 . S
N575 C568 1.356 . S
N575 H578 0.984 . S
N575 H579 0.985 . S
H576 N571 0.984 . S
H577 N571 0.985 . S
H578 N575 0.984 . S
H579 N575 0.985 . S
H580 N574 0.984 . S
H581 N574 0.984 . S
H582 N570 0.984 . S
H583 N570 0.985 . S
C584 C585 1.363 . S
C584 C590 1.379 . S
C584 N592 1.356 . S
C585 C584 1.363 . S
C585 C591 1.363 . S
C586 C587 1.363 . S
C586 C591 1.379 . S
C586 N593 1.356 . S
C587 C586 1.363 . S
C587 C590 1.363 . S
N588 C590 1.356 1_454 S
N588 H600 0.984 . S
N588 H601 0.985 . S
N589 C591 1.356 . S
N589 H594 0.984 . S
N589 H595 0.985 . S
C590 C584 1.379 . S
C590 C587 1.363 . S
C590 N588 1.356 1_656 S
C591 C585 1.363 . S
C591 C586 1.379 . S
C591 N589 1.356 . S
N592 C584 1.356 . S
N592 H598 0.984 1_656 S
N592 H599 0.984 . S
N593 C586 1.356 . S
N593 H596 0.984 . S
N593 H597 0.985 . S
H594 N589 0.984 . S
H595 N589 0.985 . S
H596 N593 0.984 . S
H597 N593 0.985 . S
H598 N592 0.984 1_454 S
H599 N592 0.984 . S
H600 N588 0.984 . S
H601 N588 0.985 . S
C602 C603 1.363 . S
C602 C608 1.379 . S
C602 N610 1.356 . S
C603 C602 1.363 . S
C603 C609 1.363 . S
C604 C605 1.363 . S
C604 C609 1.379 . S
C604 N611 1.356 . S
C605 C604 1.363 . S
C605 C608 1.363 . S
N606 C608 1.356 . S
N606 H618 0.984 . S
N606 H619 0.985 . S
N607 C609 1.356 . S
N607 H612 0.984 . S
N607 H613 0.985 . S
C608 C602 1.379 . S
C608 C605 1.363 . S
C608 N606 1.356 . S
C609 C603 1.363 . S
C609 C604 1.379 . S
C609 N607 1.356 . S
N610 C602 1.356 . S
N610 H616 0.984 . S
N610 H617 0.984 . S
N611 C604 1.356 . S
N611 H614 0.984 . S
N611 H615 0.985 . S
H612 N607 0.984 . S
H613 N607 0.985 . S
H614 N611 0.984 . S
H615 N611 0.985 . S
H616 N610 0.984 . S
H617 N610 0.984 . S
H618 N606 0.984 . S
H619 N606 0.985 . S
C620 C621 1.363 . S
C620 C626 1.379 . S
C620 N628 1.356 . S
C621 C620 1.363 . S
C621 C627 1.363 . S
C622 C623 1.363 . S
C622 C627 1.379 . S
C622 N629 1.356 . S
C623 C622 1.363 . S
C623 C626 1.363 . S
N624 C626 1.356 . S
N624 H636 0.984 . S
N624 H637 0.985 . S
N625 C627 1.356 . S
N625 H630 0.984 . S
N625 H631 0.985 . S
C626 C620 1.379 . S
C626 C623 1.363 . S
C626 N624 1.356 . S
C627 C621 1.363 . S
C627 C622 1.379 . S
C627 N625 1.356 . S
N628 C620 1.356 . S
N628 H634 0.984 . S
N628 H635 0.984 . S
N629 C622 1.356 . S
N629 H632 0.984 . S
N629 H633 0.985 . S
H630 N625 0.984 . S
H631 N625 0.985 . S
H632 N629 0.984 . S
H633 N629 0.985 . S
H634 N628 0.984 . S
H635 N628 0.984 . S
H636 N624 0.984 . S
H637 N624 0.985 . S
C638 C639 1.363 . S
C638 C644 1.379 . S
C638 N646 1.356 . S
C639 C638 1.363 . S
C639 C645 1.363 . S
C640 C641 1.363 . S
C640 C645 1.379 . S
C640 N647 1.356 . S
C641 C640 1.363 . S
C641 C644 1.363 . S
N642 C644 1.356 . S
N642 H654 0.984 . S
N642 H655 0.985 . S
N643 C645 1.356 . S
N643 H648 0.984 . S
N643 H649 0.985 . S
C644 C638 1.379 . S
C644 C641 1.363 . S
C644 N642 1.356 . S
C645 C639 1.363 . S
C645 C640 1.379 . S
C645 N643 1.356 . S
N646 C638 1.356 . S
N646 H652 0.984 . S
N646 H653 0.984 . S
N647 C640 1.356 . S
N647 H650 0.984 . S
N647 H651 0.985 . S
H648 N643 0.984 . S
H649 N643 0.985 . S
H650 N647 0.984 . S
H651 N647 0.985 . S
H652 N646 0.984 . S
H653 N646 0.984 . S
H654 N642 0.984 . S
H655 N642 0.985 . S
C225 N1 2.020 . S
C227 C120 2.115 . S
C243 N18 1.358 . S
C245 N140 1.321 . S
C263 C174 1.630 . S
C261 N28 1.630 . S
C279 N40 1.355 . S
C281 N208 1.338 . S
C299 C161 2.514 . S
C297 N5 2.464 . S
C317 N118 1.153 . S
C315 N14 1.189 . S
C335 C195 1.998 . S
C333 N31 1.959 . S
C353 N170 0.858 . S
C351 N41 0.850 . S
C369 N2 1.707 . S
C371 C210 1.729 . S
C389 C144 1.756 . S
C387 N27 1.700 . S
C405 N44 1.454 . S
C407 C105 1.517 . S
C423 N15 1.232 . S
C425 C191 1.244 . S
C443 C131 2.341 1_655 S
C441 N57 2.338 . S
C459 N70 1.057 . S
C461 N148 1.033 . S
C477 N79 1.819 . S
C479 C165 1.879 . S
C495 N93 1.184 . S
C497 N200 1.134 . S
C513 N54 2.207 . S
C515 C150 2.209 1_556 S
C533 N110 1.437 . S
C531 N66 1.491 . S
C551 C204 1.611 . S
C549 N80 1.598 . S
C569 N178 1.039 . S
C567 N96 1.016 . S
C585 N53 1.738 . S
C587 C221 1.769 . S
C605 C135 1.674 . S
C603 N83 1.638 . S
C623 C114 1.516 . S
C621 N92 1.492 . S
C639 N67 1.224 . S
C641 C180 1.241 . S
