# Generated by pormake.
# Topology the, (3,8)-cn, num edge types: 1
# Building blocks:
#     Node 0, Type 0, BuildingBlock: QEWDON_clean_linker_0, # of connection points: 3
#     Node 1, Type 0, BuildingBlock: QEWDON_clean_linker_0, # of connection points: 3
#     Node 2, Type 0, BuildingBlock: QEWDON_clean_linker_0, # of connection points: 3
#     Node 3, Type 0, BuildingBlock: QEWDON_clean_linker_0, # of connection points: 3
#     Node 4, Type 0, BuildingBlock: QEWDON_clean_linker_0, # of connection points: 3
#     Node 5, Type 0, BuildingBlock: QEWDON_clean_linker_0, # of connection points: 3
#     Node 6, Type 0, BuildingBlock: QEWDON_clean_linker_0, # of connection points: 3
#     Node 7, Type 0, BuildingBlock: QEWDON_clean_linker_0, # of connection points: 3
#     Node 8, Type 1, BuildingBlock: GIZVER_clean_sbu_0, # of connection points: 8
#     Node 9, Type 1, BuildingBlock: GIZVER_clean_sbu_0, # of connection points: 8
#     Node 10, Type 1, BuildingBlock: GIZVER_clean_sbu_0, # of connection points: 8
#     Edge 11, Type (0, 1), BuildingBlock: XUDNAN_clean_linker_2, # of connection points: 2
#     Edge 12, Type (0, 1), BuildingBlock: XUDNAN_clean_linker_2, # of connection points: 2
#     Edge 13, Type (0, 1), BuildingBlock: XUDNAN_clean_linker_2, # of connection points: 2
#     Edge 14, Type (0, 1), BuildingBlock: XUDNAN_clean_linker_2, # of connection points: 2
#     Edge 15, Type (0, 1), BuildingBlock: XUDNAN_clean_linker_2, # of connection points: 2
#     Edge 16, Type (0, 1), BuildingBlock: XUDNAN_clean_linker_2, # of connection points: 2
#     Edge 17, Type (0, 1), BuildingBlock: XUDNAN_clean_linker_2, # of connection points: 2
#     Edge 18, Type (0, 1), BuildingBlock: XUDNAN_clean_linker_2, # of connection points: 2
#     Edge 19, Type (0, 1), BuildingBlock: XUDNAN_clean_linker_2, # of connection points: 2
#     Edge 20, Type (0, 1), BuildingBlock: XUDNAN_clean_linker_2, # of connection points: 2
#     Edge 21, Type (0, 1), BuildingBlock: XUDNAN_clean_linker_2, # of connection points: 2
#     Edge 22, Type (0, 1), BuildingBlock: XUDNAN_clean_linker_2, # of connection points: 2
#     Edge 23, Type (0, 1), BuildingBlock: XUDNAN_clean_linker_2, # of connection points: 2
#     Edge 24, Type (0, 1), BuildingBlock: XUDNAN_clean_linker_2, # of connection points: 2
#     Edge 25, Type (0, 1), BuildingBlock: XUDNAN_clean_linker_2, # of connection points: 2
#     Edge 26, Type (0, 1), BuildingBlock: XUDNAN_clean_linker_2, # of connection points: 2
#     Edge 27, Type (0, 1), BuildingBlock: XUDNAN_clean_linker_2, # of connection points: 2
#     Edge 28, Type (0, 1), BuildingBlock: XUDNAN_clean_linker_2, # of connection points: 2
#     Edge 29, Type (0, 1), BuildingBlock: XUDNAN_clean_linker_2, # of connection points: 2
#     Edge 30, Type (0, 1), BuildingBlock: XUDNAN_clean_linker_2, # of connection points: 2
#     Edge 31, Type (0, 1), BuildingBlock: XUDNAN_clean_linker_2, # of connection points: 2
#     Edge 32, Type (0, 1), BuildingBlock: XUDNAN_clean_linker_2, # of connection points: 2
#     Edge 33, Type (0, 1), BuildingBlock: XUDNAN_clean_linker_2, # of connection points: 2
#     Edge 34, Type (0, 1), BuildingBlock: XUDNAN_clean_linker_2, # of connection points: 2
# Relax obj value: 0.102
# Max RMSD: 0.270
# Mean RMSD: 0.183
data_MOF--net-the--node1-GIZVER_clean_sbu_0--node2-QEWDON_clean_linker_0--edge1-XUDNAN_clean_linker_2
_symmetry_space_group_name_H-M    P1
_symmetry_Int_Tables_number       1
_symmetry_cell_setting            triclinic
loop_
_symmetry_equiv_pos_as_xyz
'x, y, z'
_cell_length_a     41.202145
_cell_length_b     38.82043
_cell_length_c     37.699694
_cell_angle_alpha  86.905034
_cell_angle_beta   94.863986
_cell_angle_gamma 111.67737
loop_
_atom_site_label
_atom_site_type_symbol
_atom_site_fract_x
_atom_site_fract_y
_atom_site_fract_z
_atom_type_partial_charge
H0 H 0.38478 0.25937 0.42332 0.0
C1 C 0.39183 0.27768 0.40016 0.0
C2 C 0.42113 0.28007 0.38215 0.0
C3 C 0.36988 0.29657 0.38718 0.0
H4 H 0.45051 0.30384 0.3362 0.0
C5 C 0.42858 0.30248 0.3509 0.0
C6 C 0.40651 0.32111 0.33712 0.0
C7 C 0.37763 0.31861 0.35599 0.0
C8 C 0.33607 0.28866 0.40308 0.0
H9 H 0.36 0.33216 0.34532 0.0
C10 C 0.32568 0.31741 0.41279 0.0
C11 C 0.29247 0.30933 0.42605 0.0
C12 C 0.31326 0.25169 0.40705 0.0
H13 H 0.3205 0.22912 0.39942 0.0
C14 C 0.28041 0.24344 0.41972 0.0
H15 H 0.34374 0.34582 0.41038 0.0
C16 C 0.2699 0.27187 0.42879 0.0
H17 H 0.24367 0.26422 0.43729 0.0
H18 H 0.26275 0.21486 0.42201 0.0
H19 H 0.8102 0.35971 0.33543 0.0
C20 C 0.79326 0.33071 0.33553 0.0
C21 C 0.80372 0.305 0.35621 0.0
C22 C 0.76016 0.31992 0.31689 0.0
H23 H 0.78886 0.24798 0.37355 0.0
C24 C 0.78118 0.26771 0.3569 0.0
C25 C 0.74798 0.25609 0.33836 0.0
C26 C 0.73775 0.28241 0.31807 0.0
C27 C 0.74801 0.3488 0.29964 0.0
H28 H 0.71184 0.27407 0.30454 0.0
C29 C 0.73061 0.3443 0.26537 0.0
C30 C 0.72017 0.37261 0.24933 0.0
C31 C 0.75403 0.3815 0.31793 0.0
H32 H 0.7666 0.38544 0.34461 0.0
C33 C 0.74348 0.40932 0.30231 0.0
H34 H 0.72598 0.31933 0.25096 0.0
C35 C 0.72673 0.40502 0.2683 0.0
H36 H 0.71827 0.42687 0.25713 0.0
H37 H 0.74812 0.43426 0.31674 0.0
H38 H 0.7804 0.65739 0.40065 0.0
C39 C 0.77244 0.657 0.37248 0.0
C40 C 0.78782 0.64195 0.34852 0.0
C41 C 0.74451 0.66846 0.36078 0.0
H42 H 0.78604 0.62708 0.2936 0.0
C43 C 0.77511 0.6392 0.31244 0.0
C44 C 0.74694 0.64988 0.30063 0.0
C45 C 0.73209 0.66504 0.32476 0.0
C46 C 0.72288 0.67508 0.38708 0.0
H47 H 0.7091 0.67142 0.31612 0.0
C48 C 0.722 0.71053 0.39202 0.0
C49 C 0.69881 0.71507 0.41552 0.0
C50 C 0.70083 0.64431 0.40573 0.0
H51 H 0.70099 0.61688 0.40204 0.0
C52 C 0.6775 0.64833 0.42824 0.0
H53 H 0.73951 0.73419 0.37787 0.0
C54 C 0.67612 0.68311 0.43279 0.0
H55 H 0.65664 0.68456 0.44956 0.0
H56 H 0.65999 0.62423 0.44188 0.0
H57 H 0.41725 0.75122 0.32555 0.0
C58 C 0.39067 0.73305 0.33017 0.0
C59 C 0.37543 0.7371 0.36079 0.0
C60 C 0.37223 0.70477 0.30606 0.0
H61 H 0.32876 0.71875 0.38875 0.0
C62 C 0.34089 0.71374 0.36622 0.0
C63 C 0.32208 0.6846 0.34309 0.0
C64 C 0.33834 0.68016 0.31309 0.0
C65 C 0.38811 0.70211 0.27289 0.0
H66 H 0.32469 0.65795 0.29486 0.0
C67 C 0.3909 0.66871 0.26329 0.0
C68 C 0.40693 0.66717 0.232 0.0
C69 C 0.40099 0.73374 0.25072 0.0
H70 H 0.39898 0.75964 0.25742 0.0
C71 C 0.41634 0.73226 0.21959 0.0
H72 H 0.38109 0.64427 0.28039 0.0
C73 C 0.41945 0.69939 0.21032 0.0
H74 H 0.43256 0.69957 0.18657 0.0
H75 H 0.42625 0.75685 0.20275 0.0
H76 H 0.43752 0.73327 0.73906 0.0
C77 C 0.41051 0.72614 0.72886 0.0
C78 C 0.39854 0.75404 0.71483 0.0
C79 C 0.38888 0.68855 0.72648 0.0
H80 H 0.354 0.76484 0.68979 0.0
C81 C 0.36384 0.74368 0.70002 0.0
C82 C 0.34232 0.70619 0.69625 0.0
C83 C 0.35492 0.67885 0.71014 0.0
C84 C 0.40333 0.65932 0.73633 0.0
H85 H 0.33908 0.64979 0.70652 0.0
C86 C 0.42052 0.65822 0.77005 0.0
C87 C 0.43524 0.63107 0.7782 0.0
C88 C 0.40079 0.63283 0.71115 0.0
H89 H 0.388 0.63332 0.6849 0.0
C90 C 0.41543 0.60598 0.71926 0.0
H91 H 0.4226 0.67844 0.78972 0.0
C92 C 0.43272 0.60516 0.75252 0.0
H93 H 0.44388 0.58404 0.75838 0.0
H94 H 0.41352 0.58584 0.69963 0.0
H95 H 0.37883 0.31403 0.76071 0.0
C96 C 0.38735 0.29516 0.74732 0.0
C97 C 0.4211 0.29447 0.75579 0.0
C98 C 0.3646 0.27155 0.72144 0.0
H99 H 0.45756 0.26877 0.74439 0.0
C100 C 0.43181 0.2698 0.73777 0.0
C101 C 0.40916 0.24573 0.71206 0.0
C102 C 0.37571 0.2471 0.70414 0.0
C103 C 0.32826 0.27018 0.71325 0.0
H104 H 0.35808 0.22911 0.68408 0.0
C105 C 0.32111 0.30099 0.69824 0.0
C106 C 0.2864 0.29745 0.6865 0.0
C107 C 0.30048 0.23628 0.71774 0.0
H108 H 0.30537 0.21228 0.72917 0.0
C109 C 0.26629 0.23268 0.70687 0.0
H110 H 0.34265 0.32714 0.69502 0.0
C111 C 0.2593 0.26268 0.69098 0.0
H112 H 0.23256 0.25802 0.68138 0.0
H113 H 0.24514 0.20621 0.71 0.0
H114 H 0.86604 0.34683 0.76954 0.0
C115 C 0.84524 0.32541 0.75483 0.0
C116 C 0.84832 0.32016 0.7189 0.0
C117 C 0.81668 0.30117 0.77259 0.0
H118 H 0.82406 0.28721 0.6727 0.0
C119 C 0.82167 0.29164 0.70037 0.0
C120 C 0.79291 0.26752 0.7179 0.0
C121 C 0.79073 0.27215 0.75415 0.0
C122 C 0.81586 0.30366 0.81129 0.0
H123 H 0.76916 0.25282 0.76817 0.0
C124 C 0.80596 0.33077 0.82538 0.0
C125 C 0.80504 0.33274 0.86245 0.0
C126 C 0.82498 0.27855 0.83425 0.0
H127 H 0.83262 0.25747 0.82369 0.0
C128 C 0.82449 0.28063 0.871 0.0
H129 H 0.79894 0.35014 0.80751 0.0
C130 C 0.81459 0.3075 0.88509 0.0
H131 H 0.81369 0.30802 0.91368 0.0
H132 H 0.83157 0.26119 0.88862 0.0
H133 H 0.84888 0.71983 0.63489 0.0
C134 C 0.83518 0.70352 0.65704 0.0
C135 C 0.83239 0.66648 0.6623 0.0
C136 C 0.82062 0.71981 0.68044 0.0
H137 H 0.81444 0.61803 0.69655 0.0
C138 C 0.81523 0.64608 0.69167 0.0
C139 C 0.80063 0.66207 0.71559 0.0
C140 C 0.80332 0.69909 0.70949 0.0
C141 C 0.82666 0.75963 0.67646 0.0
H142 H 0.79228 0.71207 0.7274 0.0
C143 C 0.80215 0.77217 0.65723 0.0
C144 C 0.80968 0.81045 0.65207 0.0
C145 C 0.85813 0.78541 0.69109 0.0
H146 H 0.87722 0.77611 0.70592 0.0
C147 C 0.86536 0.82333 0.6864 0.0
H148 H 0.77795 0.75235 0.64556 0.0
C149 C 0.84142 0.83584 0.66681 0.0
H150 H 0.84767 0.86541 0.66306 0.0
H151 H 0.88974 0.84309 0.69767 0.0
Co152 Co 0.14549 0.49046 0.54283 0.0
Co153 Co 0.10592 0.46388 0.48494 0.0
Co154 Co 0.07306 0.51326 0.51998 0.0
O155 O 0.0965 0.47661 0.52888 0.0
H156 H 0.08228 0.4546 0.54148 0.0
O157 O 0.04863 0.5496 0.51113 0.0
Co158 Co 0.99929 0.5313 0.49534 0.0
Co159 Co 0.03477 0.56053 0.55364 0.0
H160 H 0.06238 0.57181 0.4984 0.0
O161 O 0.11764 0.42249 0.47913 0.0
O162 O 0.15425 0.47985 0.49418 0.0
O163 O 0.09757 0.49222 0.44355 0.0
O164 O 0.10176 0.53819 0.4783 0.0
O165 O 0.0369 0.47689 0.48801 0.0
O166 O 0.95527 0.51776 0.47835 0.0
O167 O 0.99789 0.57421 0.4739 0.0
O168 O 0.99376 0.48352 0.514 0.0
O169 O 0.04558 0.48805 0.56206 0.0
O170 O 0.03851 0.53032 0.59495 0.0
O171 O 0.98694 0.545 0.5409 0.0
O172 O 0.0228 0.6018 0.5582 0.0
C173 C 0.17664 0.46304 0.56576 0.0
C174 C 0.14187 0.55972 0.54749 0.0
C175 C 0.10569 0.52653 0.44845 0.0
C176 C 0.14922 0.44662 0.48423 0.0
C177 C 0.96571 0.55174 0.46614 0.0
C178 C 1.00504 0.46449 0.49555 0.0
C179 C 0.0371 0.49758 0.59076 0.0
C180 C 0.99138 0.57822 0.55064 0.0
O181 O 0.19015 0.49824 0.5574 0.0
O182 O 0.14316 0.44498 0.55907 0.0
O183 O 0.1093 0.54905 0.55207 0.0
O184 O 0.1539 0.54079 0.52956 0.0
Co185 Co 0.6048 0.94192 0.51633 0.0
Co186 Co 0.62895 0.97931 0.57457 0.0
Co187 Co 0.57451 0.00976 0.53494 0.0
O188 O 0.61343 0.99163 0.52976 0.0
H189 H 0.63275 0.00968 0.51809 0.0
O190 O 0.53623 0.02931 0.54017 0.0
Co191 Co 0.54376 0.07774 0.55898 0.0
Co192 Co 0.52339 0.04844 0.49781 0.0
H193 H 0.51584 0.01027 0.54934 0.0
O194 O 0.67363 0.97897 0.58246 0.0
O195 O 0.62446 0.93152 0.56431 0.0
O196 O 0.60049 0.97604 0.61366 0.0
O197 O 0.55513 0.97623 0.57728 0.0
O198 O 0.6067 0.04729 0.56788 0.0
O199 O 0.54567 0.11989 0.57836 0.0
O200 O 0.49925 0.06672 0.57056 0.0
O201 O 0.59262 0.09579 0.55096 0.0
O202 O 0.59434 0.04342 0.49276 0.0
O203 O 0.55051 0.05082 0.45853 0.0
O204 O 0.53294 0.09682 0.51085 0.0
O205 O 0.4818 0.05552 0.48761 0.0
C206 C 0.63154 0.91501 0.49237 0.0
C207 C 0.53711 0.93556 0.51091 0.0
C208 C 0.56797 0.96924 0.6077 0.0
C209 C 0.65775 0.94434 0.57452 0.0
C210 C 0.51279 0.10044 0.58251 0.0
C211 C 0.61319 0.08193 0.56785 0.0
C212 C 0.58206 0.05333 0.46335 0.0
C213 C 0.50219 0.08953 0.49408 0.0
O214 O 0.60022 0.89707 0.50262 0.0
O215 O 0.64646 0.95062 0.49756 0.0
O216 O 0.54216 0.96961 0.5031 0.0
O217 O 0.55912 0.92698 0.5318 0.0
Co218 Co 0.53449 0.49714 0.08991 0.0
Co219 Co 0.51531 0.43504 0.05532 0.0
Co220 Co 0.57943 0.49804 0.01813 0.0
O221 O 0.53357 0.48491 0.04025 0.0
H222 H 0.51658 0.4915 0.02502 0.0
O223 O 0.62732 0.51311 0.99965 0.0
Co224 Co 0.63326 0.48871 0.96099 0.0
Co225 Co 0.64509 0.5568 0.97275 0.0
H226 H 0.64436 0.51355 0.01907 0.0
O227 O 0.4692 0.41062 0.07021 0.0
O228 O 0.51661 0.44423 0.10366 0.0
O229 O 0.54622 0.40829 0.05204 0.0
O230 O 0.59341 0.46009 0.04797 0.0
O231 O 0.5547 0.4588 0.97983 0.0
O232 O 0.64242 0.46401 0.92698 0.0
O233 O 0.67512 0.48786 0.977 0.0
O234 O 0.59113 0.48865 0.94009 0.0
O235 O 0.56525 0.53575 0.98756 0.0
O236 O 0.60961 0.57626 0.95841 0.0
O237 O 0.65341 0.53506 0.93356 0.0
O238 O 0.69298 0.58311 0.96207 0.0
C239 C 0.50108 0.5087 0.12058 0.0
C240 C 0.60433 0.52718 0.08827 0.0
C241 C 0.57919 0.4253 0.05517 0.0
C242 C 0.48404 0.42236 0.10126 0.0
C243 C 0.67052 0.46934 0.94803 0.0
C244 C 0.56296 0.46321 0.94741 0.0
C245 C 0.57783 0.56371 0.96626 0.0
C246 C 0.68416 0.56084 0.93552 0.0
O247 O 0.53123 0.5088 0.13403 0.0
O248 O 0.49114 0.49948 0.08744 0.0
O249 O 0.60346 0.53622 0.05532 0.0
O250 O 0.58052 0.4982 0.0993 0.0
H251 H 0.24729 0.30645 0.47732 0.0
H252 H 0.30965 0.38053 0.39722 0.0
H253 H 0.28597 0.42764 0.41072 0.0
H254 H 0.17184 0.32361 0.4513 0.0
H255 H 0.15713 0.3199 0.49554 0.0
H256 H 0.18433 0.29529 0.48508 0.0
H257 H 0.20227 0.35311 0.54756 0.0
H258 H 0.24762 0.37635 0.53857 0.0
H259 H 0.228 0.32656 0.53742 0.0
H260 H 0.2517 0.46512 0.42953 0.0
H261 H 0.20534 0.48614 0.44672 0.0
H262 H 0.16019 0.38396 0.50765 0.0
C263 C 0.2562 0.33248 0.46244 0.0
C264 C 0.28062 0.33939 0.43612 0.0
C265 C 0.29171 0.37445 0.41809 0.0
C266 C 0.27824 0.40149 0.42546 0.0
C267 C 0.25344 0.39311 0.45074 0.0
C268 C 0.24232 0.35926 0.4687 0.0
C269 C 0.21233 0.35513 0.49128 0.0
C270 C 0.17948 0.32151 0.48011 0.0
C271 C 0.2232 0.35264 0.53108 0.0
C272 C 0.20726 0.39129 0.48202 0.0
C273 C 0.23204 0.41346 0.45964 0.0
C274 C 0.23225 0.44802 0.4471 0.0
C275 C 0.20592 0.45973 0.45696 0.0
C276 C 0.17924 0.43638 0.47809 0.0
C277 C 0.18027 0.40208 0.49121 0.0
H278 H 0.67854 0.23388 0.35112 0.0
H279 H 0.76126 0.19165 0.34171 0.0
H280 H 0.72406 0.13104 0.36624 0.0
H281 H 0.65337 0.19481 0.43086 0.0
H282 H 0.60689 0.18301 0.42194 0.0
H283 H 0.63702 0.22071 0.39768 0.0
H284 H 0.60774 0.19006 0.33793 0.0
H285 H 0.57707 0.1524 0.36211 0.0
H286 H 0.60309 0.14291 0.33061 0.0
H287 H 0.68364 0.08062 0.40355 0.0
H288 H 0.63943 0.04122 0.44399 0.0
H289 H 0.58088 0.11374 0.42431 0.0
C290 C 0.68826 0.21142 0.35262 0.0
C291 C 0.72291 0.21762 0.34461 0.0
C292 C 0.73494 0.1877 0.34803 0.0
C293 C 0.71393 0.15308 0.36177 0.0
C294 C 0.68059 0.14849 0.37117 0.0
C295 C 0.66743 0.17654 0.36589 0.0
C296 C 0.63194 0.16553 0.38094 0.0
C297 C 0.63237 0.19262 0.40955 0.0
C298 C 0.60326 0.16254 0.35111 0.0
C299 C 0.62807 0.12777 0.39708 0.0
C300 C 0.65634 0.11833 0.39109 0.0
C301 C 0.66077 0.08704 0.40738 0.0
C302 C 0.63572 0.06494 0.43041 0.0
C303 C 0.60647 0.07403 0.43647 0.0
C304 C 0.60239 0.10547 0.41909 0.0
H305 H 0.84384 0.66719 0.39966 0.0
H306 H 0.78966 0.57638 0.32806 0.0
H307 H 0.83142 0.54673 0.34826 0.0
H308 H 0.93189 0.67026 0.39037 0.0
H309 H 0.94616 0.679 0.43667 0.0
H310 H 0.91265 0.69454 0.41624 0.0
H311 H 0.87098 0.65857 0.46464 0.0
H312 H 0.90444 0.64306 0.48525 0.0
H313 H 0.86188 0.6097 0.47197 0.0
H314 H 0.87643 0.52507 0.37671 0.0
H315 H 0.92313 0.51192 0.41323 0.0
H316 H 0.95048 0.61576 0.46735 0.0
C317 C 0.84083 0.6411 0.38824 0.0
C318 C 0.81373 0.62465 0.36156 0.0
C319 C 0.81068 0.5903 0.34757 0.0
C320 C 0.83416 0.57298 0.35911 0.0
C321 C 0.86066 0.59005 0.38493 0.0
C322 C 0.86421 0.62321 0.39958 0.0
C323 C 0.89486 0.63478 0.42768 0.0
C324 C 0.92306 0.67185 0.41709 0.0
C325 C 0.88228 0.63663 0.46456 0.0
C326 C 0.90781 0.60291 0.42632 0.0
C327 C 0.88743 0.57749 0.40144 0.0
C328 C 0.89279 0.54488 0.39604 0.0
C329 C 0.91937 0.53768 0.41689 0.0
C330 C 0.94066 0.56306 0.44263 0.0
C331 C 0.9351 0.59638 0.44719 0.0
H332 H 0.41742 0.8112 0.35239 0.0
H333 H 0.37981 0.72331 0.43205 0.0
H334 H 0.41317 0.76642 0.47926 0.0
H335 H 0.50402 0.85292 0.39259 0.0
H336 H 0.50773 0.89992 0.38156 0.0
H337 H 0.47962 0.86264 0.35392 0.0
H338 H 0.42735 0.8826 0.36233 0.0
H339 H 0.4553 0.91979 0.39025 0.0
H340 H 0.41581 0.88617 0.40669 0.0
H341 H 0.45389 0.81644 0.51715 0.0
H342 H 0.49946 0.87167 0.54397 0.0
H343 H 0.50878 0.92969 0.44161 0.0
C344 C 0.41621 0.80118 0.3798 0.0
C345 C 0.39582 0.76394 0.38859 0.0
C346 C 0.39483 0.75182 0.42476 0.0
C347 C 0.41373 0.77608 0.45177 0.0
C348 C 0.43335 0.81258 0.44232 0.0
C349 C 0.43469 0.82527 0.40731 0.0
C350 C 0.45863 0.86577 0.40467 0.0
C351 C 0.48932 0.87058 0.38184 0.0
C352 C 0.43803 0.89001 0.39012 0.0
C353 C 0.47104 0.87349 0.44355 0.0
C354 C 0.45601 0.84228 0.46471 0.0
C355 C 0.46528 0.84129 0.50103 0.0
C356 C 0.49104 0.87279 0.51606 0.0
C357 C 0.50677 0.90511 0.49507 0.0
C358 C 0.49624 0.9057 0.45844 0.0
H359 H 0.28047 0.64754 0.70599 0.0
H360 H 0.32973 0.73927 0.63333 0.0
H361 H 0.27849 0.71619 0.59054 0.0
H362 H 0.25004 0.58127 0.64212 0.0
H363 H 0.20944 0.5545 0.66143 0.0
H364 H 0.24656 0.58192 0.68942 0.0
H365 H 0.20967 0.61622 0.71296 0.0
H366 H 0.17228 0.58872 0.68506 0.0
H367 H 0.18763 0.63862 0.68183 0.0
H368 H 0.22734 0.67792 0.55144 0.0
H369 H 0.17851 0.62781 0.52039 0.0
H370 H 0.16247 0.56094 0.61753 0.0
C371 C 0.28013 0.66326 0.68144 0.0
C372 C 0.30906 0.69548 0.67333 0.0
C373 C 0.30763 0.71507 0.64072 0.0
C374 C 0.27865 0.70205 0.61605 0.0
C375 C 0.25115 0.66953 0.62438 0.0
C376 C 0.25146 0.65055 0.65644 0.0
C377 C 0.22038 0.61429 0.65736 0.0
C378 C 0.23233 0.58106 0.6629 0.0
C379 C 0.19605 0.61449 0.68601 0.0
C380 C 0.20334 0.61517 0.62032 0.0
C381 C 0.22127 0.64748 0.60182 0.0
C382 C 0.21254 0.65297 0.56593 0.0
C383 C 0.18503 0.6245 0.54845 0.0
C384 C 0.16676 0.59131 0.56696 0.0
C385 C 0.17558 0.58677 0.60334 0.0
H386 H 0.47202 0.25627 0.68301 0.0
H387 H 0.36958 0.17289 0.69985 0.0
H388 H 0.38433 0.12773 0.66749 0.0
H389 H 0.47769 0.22872 0.59402 0.0
H390 H 0.52387 0.2374 0.59997 0.0
H391 H 0.50544 0.26358 0.62439 0.0
H392 H 0.5306 0.24332 0.68378 0.0
H393 H 0.54918 0.21723 0.65946 0.0
H394 H 0.52013 0.19464 0.69387 0.0
H395 H 0.4097 0.09134 0.6328 0.0
H396 H 0.44495 0.06571 0.60035 0.0
H397 H 0.53149 0.17185 0.60611 0.0
C398 C 0.45283 0.22842 0.68014 0.0
C399 C 0.41948 0.21831 0.69389 0.0
C400 C 0.39506 0.18159 0.6892 0.0
C401 C 0.40324 0.15563 0.67091 0.0
C402 C 0.43603 0.16659 0.65728 0.0
C403 C 0.46053 0.20205 0.66171 0.0
C404 C 0.49386 0.20649 0.64429 0.0
C405 C 0.5006 0.23579 0.61387 0.0
C406 C 0.5253 0.21598 0.67201 0.0
C407 C 0.48441 0.16788 0.62994 0.0
C408 C 0.45081 0.14542 0.63748 0.0
C409 C 0.43609 0.10868 0.62681 0.0
C410 C 0.45634 0.09435 0.6083 0.0
C411 C 0.4911 0.11658 0.6007 0.0
C412 C 0.50508 0.15398 0.61155 0.0
H413 H 0.88065 0.39585 0.7137 0.0
H414 H 0.88925 0.29287 0.68555 0.0
H415 H 0.94383 0.32809 0.65661 0.0
H416 H 0.90753 0.44298 0.63233 0.0
H417 H 0.93107 0.48754 0.65179 0.0
H418 H 0.89489 0.45422 0.67352 0.0
H419 H 0.93519 0.45852 0.73114 0.0
H420 H 0.97163 0.4916 0.70934 0.0
H421 H 0.97505 0.44976 0.72942 0.0
H422 H 0.99471 0.37369 0.6276 0.0
H423 H 0.03573 0.42663 0.59541 0.0
H424 H 0.99412 0.50058 0.64142 0.0
C425 C 0.8944 0.38088 0.70182 0.0
C426 C 0.88097 0.34176 0.70179 0.0
C427 C 0.89914 0.32289 0.68555 0.0
C428 C 0.93027 0.34263 0.6694 0.0
C429 C 0.94283 0.3812 0.6697 0.0
C430 C 0.92536 0.4002 0.68518 0.0
C431 C 0.94283 0.44166 0.67895 0.0
C432 C 0.91759 0.45752 0.65789 0.0
C433 C 0.95702 0.46155 0.71433 0.0
C434 C 0.97237 0.44289 0.65693 0.0
C435 C 0.97219 0.40772 0.65244 0.0
C436 C 0.99542 0.40143 0.63123 0.0
C437 C 0.01866 0.43171 0.61309 0.0
C438 C 0.01833 0.46782 0.61604 0.0
C439 C 0.99557 0.4735 0.63916 0.0
H440 H 0.7446 0.80721 0.66716 0.0
H441 H 0.82223 0.8479 0.58905 0.0
H442 H 0.78719 0.88067 0.55634 0.0
H443 H 0.66569 0.79693 0.60612 0.0
H444 H 0.64556 0.81425 0.6379 0.0
H445 H 0.67376 0.78951 0.65302 0.0
H446 H 0.71238 0.84422 0.69189 0.0
H447 H 0.68434 0.86925 0.67761 0.0
H448 H 0.73063 0.88994 0.67188 0.0
H449 H 0.74953 0.9163 0.53764 0.0
H450 H 0.70966 0.951 0.53244 0.0
H451 H 0.65406 0.88626 0.62065 0.0
C452 C 0.75342 0.82201 0.64249 0.0
C453 C 0.78571 0.82473 0.63013 0.0
C454 C 0.79731 0.84531 0.59852 0.0
C455 C 0.77761 0.86396 0.57986 0.0
C456 C 0.74639 0.86177 0.59321 0.0
C457 C 0.73407 0.84106 0.62359 0.0
C458 C 0.70142 0.84634 0.634 0.0
C459 C 0.66974 0.80959 0.63263 0.0
C460 C 0.70758 0.86346 0.67103 0.0
C461 C 0.69761 0.87353 0.60496 0.0
C462 C 0.72396 0.88207 0.58181 0.0
C463 C 0.72835 0.90931 0.55507 0.0
C464 C 0.70563 0.92884 0.55229 0.0
C465 C 0.67841 0.92044 0.57549 0.0
C466 C 0.674 0.89213 0.60183 0.0
H467 H 0.43954 0.26038 0.45062 0.0
H468 H 0.44547 0.24165 0.33914 0.0
H469 H 0.47137 0.19506 0.35674 0.0
H470 H 0.52054 0.2448 0.48471 0.0
H471 H 0.5014 0.22101 0.52461 0.0
H472 H 0.48747 0.25664 0.50381 0.0
H473 H 0.42324 0.21036 0.50018 0.0
H474 H 0.43708 0.17468 0.52081 0.0
H475 H 0.41228 0.16694 0.47829 0.0
H476 H 0.4899 0.14581 0.38501 0.0
H477 H 0.50282 0.09809 0.42318 0.0
H478 H 0.48556 0.1471 0.51701 0.0
C479 C 0.44676 0.24688 0.4299 0.0
C480 C 0.44074 0.25524 0.39338 0.0
C481 C 0.45054 0.23672 0.36723 0.0
C482 C 0.46506 0.20988 0.37697 0.0
C483 C 0.46981 0.20174 0.41301 0.0
C484 C 0.46129 0.21984 0.43919 0.0
C485 C 0.46719 0.20403 0.47594 0.0
C486 C 0.49586 0.23338 0.4986 0.0
C487 C 0.4329 0.18805 0.4949 0.0
C488 C 0.47936 0.17355 0.4661 0.0
C489 C 0.48081 0.173 0.4296 0.0
C490 C 0.48931 0.14623 0.41362 0.0
C491 C 0.4964 0.11919 0.43542 0.0
C492 C 0.49515 0.11918 0.47277 0.0
C493 C 0.48694 0.1469 0.48846 0.0
H494 H 0.86809 0.35787 0.34271 0.0
H495 H 0.81165 0.28308 0.42554 0.0
H496 H 0.86216 0.30993 0.46845 0.0
H497 H 0.95782 0.36212 0.37516 0.0
H498 H 0.97713 0.41087 0.36399 0.0
H499 H 0.93908 0.38152 0.33808 0.0
H500 H 0.90625 0.42488 0.34989 0.0
H501 H 0.94409 0.45426 0.37576 0.0
H502 H 0.90242 0.43492 0.39515 0.0
H503 H 0.91331 0.35151 0.50456 0.0
H504 H 0.96323 0.40398 0.53067 0.0
H505 H 0.98805 0.45114 0.42514 0.0
C506 C 0.86666 0.34661 0.36969 0.0
C507 C 0.836 0.31799 0.38055 0.0
C508 C 0.83509 0.30427 0.41623 0.0
C509 C 0.86364 0.31949 0.44092 0.0
C510 C 0.89307 0.34828 0.42957 0.0
C511 C 0.89496 0.36155 0.39474 0.0
C512 C 0.92818 0.39511 0.39029 0.0
C513 C 0.95196 0.3869 0.3654 0.0
C514 C 0.91971 0.42929 0.37701 0.0
C515 C 0.944 0.39941 0.42831 0.0
C516 C 0.92341 0.37191 0.45051 0.0
C517 C 0.93026 0.37251 0.48738 0.0
C518 C 0.95854 0.40229 0.50197 0.0
C519 C 0.97976 0.4306 0.47968 0.0
C520 C 0.97289 0.42883 0.44244 0.0
H521 H 0.68151 0.73853 0.47662 0.0
H522 H 0.71214 0.77675 0.36966 0.0
H523 H 0.70492 0.83571 0.38015 0.0
H524 H 0.61156 0.7702 0.47142 0.0
H525 H 0.6169 0.7815 0.51785 0.0
H526 H 0.63006 0.74538 0.50373 0.0
H527 H 0.69228 0.77887 0.5332 0.0
H528 H 0.67938 0.81547 0.54667 0.0
H529 H 0.71668 0.82633 0.52049 0.0
H530 H 0.69108 0.89043 0.40238 0.0
H531 H 0.66656 0.93082 0.43112 0.0
H532 H 0.63794 0.8515 0.51906 0.0
C533 C 0.68653 0.75887 0.45499 0.0
C534 C 0.69729 0.7523 0.42211 0.0
C535 C 0.70446 0.78083 0.39536 0.0
C536 C 0.70022 0.81451 0.40101 0.0
C537 C 0.68844 0.81928 0.43339 0.0
C538 C 0.68138 0.79188 0.4597 0.0
C539 C 0.66577 0.8017 0.49076 0.0
C540 C 0.62889 0.773 0.49623 0.0
C541 C 0.69002 0.80582 0.5248 0.0
C542 C 0.66446 0.83869 0.47773 0.0
C543 C 0.67848 0.84903 0.44501 0.0
C544 C 0.68003 0.88244 0.42796 0.0
C545 C 0.6662 0.90527 0.44445 0.0
C546 C 0.65024 0.894 0.47705 0.0
C547 C 0.64981 0.86055 0.49395 0.0
H548 H 0.29466 0.66369 0.40867 0.0
H549 H 0.26625 0.64739 0.29536 0.0
H550 H 0.20637 0.60692 0.30911 0.0
H551 H 0.24284 0.57562 0.44149 0.0
H552 H 0.23098 0.59358 0.47944 0.0
H553 H 0.27185 0.61892 0.46019 0.0
H554 H 0.25453 0.67688 0.452 0.0
H555 H 0.21355 0.6515 0.47099 0.0
H556 H 0.21388 0.67317 0.4275 0.0
H557 H 0.1499 0.56426 0.33678 0.0
H558 H 0.10246 0.5273 0.37532 0.0
H559 H 0.16637 0.58184 0.46805 0.0
C560 C 0.27599 0.65251 0.38637 0.0
C561 C 0.28574 0.65925 0.35077 0.0
C562 C 0.26009 0.64243 0.32295 0.0
C563 C 0.22574 0.61963 0.33046 0.0
C564 C 0.2171 0.61452 0.36584 0.0
C565 C 0.24152 0.63093 0.39322 0.0
C566 C 0.22574 0.62244 0.42891 0.0
C567 C 0.24393 0.60138 0.45396 0.0
C568 C 0.22699 0.65812 0.44583 0.0
C569 C 0.18865 0.59796 0.41754 0.0
C570 C 0.18411 0.5932 0.38113 0.0
C571 C 0.15292 0.56855 0.36518 0.0
C572 C 0.12609 0.54782 0.38716 0.0
C573 C 0.13038 0.55264 0.42444 0.0
C574 C 0.1618 0.57864 0.43951 0.0
H575 H 0.40005 0.80231 0.6586 0.0
H576 H 0.45491 0.7937 0.76026 0.0
H577 H 0.50135 0.85399 0.7474 0.0
H578 H 0.46944 0.83717 0.60842 0.0
H579 H 0.45302 0.86806 0.58181 0.0
H580 H 0.423 0.82724 0.60209 0.0
H581 H 0.39693 0.86926 0.63202 0.0
H582 H 0.42828 0.90995 0.61218 0.0
H583 H 0.42527 0.90643 0.65975 0.0
H584 H 0.54602 0.90956 0.71887 0.0
H585 H 0.58408 0.95599 0.67803 0.0
H586 H 0.49783 0.92956 0.59691 0.0
C587 C 0.4209 0.81361 0.67905 0.0
C588 C 0.42356 0.79302 0.71057 0.0
C589 C 0.4523 0.80861 0.73575 0.0
C590 C 0.47867 0.84306 0.72883 0.0
C591 C 0.4756 0.86199 0.69698 0.0
C592 C 0.44706 0.84804 0.6728 0.0
C593 C 0.45112 0.87205 0.63925 0.0
C594 C 0.44908 0.84976 0.60599 0.0
C595 C 0.42378 0.89052 0.63561 0.0
C596 C 0.48753 0.9003 0.64721 0.0
C597 C 0.50098 0.89454 0.68092 0.0
C598 C 0.53546 0.91489 0.69278 0.0
C599 C 0.55693 0.94114 0.66934 0.0
C600 C 0.54388 0.94668 0.63436 0.0
C601 C 0.50841 0.92666 0.62371 0.0
H602 H 0.22555 0.31213 0.68697 0.0
H603 H 0.32762 0.35392 0.64312 0.0
H604 H 0.31166 0.40235 0.60959 0.0
H605 H 0.17874 0.32073 0.60552 0.0
H606 H 0.14681 0.33311 0.62616 0.0
H607 H 0.16744 0.30439 0.65011 0.0
H608 H 0.18833 0.35046 0.70179 0.0
H609 H 0.16743 0.37927 0.67842 0.0
H610 H 0.21334 0.39865 0.69255 0.0
H611 H 0.28365 0.4461 0.57973 0.0
H612 H 0.24522 0.47871 0.55413 0.0
H613 H 0.15966 0.40327 0.61224 0.0
C614 C 0.24471 0.33111 0.67022 0.0
C615 C 0.27806 0.32879 0.66806 0.0
C616 C 0.30222 0.35519 0.64616 0.0
C617 C 0.29325 0.38273 0.62664 0.0
C618 C 0.25988 0.38343 0.62886 0.0
C619 C 0.23592 0.35807 0.64991 0.0
C620 C 0.20102 0.36314 0.64614 0.0
C621 C 0.17179 0.32828 0.63107 0.0
C622 C 0.19202 0.3735 0.68185 0.0
C623 C 0.20897 0.39534 0.61957 0.0
C624 C 0.24324 0.40709 0.61034 0.0
C625 C 0.25681 0.43708 0.58682 0.0
C626 C 0.23483 0.45546 0.57246 0.0
C627 C 0.19951 0.44347 0.58122 0.0
C628 C 0.18647 0.41284 0.60488 0.0
H629 H 0.74946 0.26733 0.65844 0.0
H630 H 0.77882 0.19522 0.73565 0.0
H631 H 0.73762 0.14031 0.70392 0.0
H632 H 0.65721 0.20969 0.65009 0.0
H633 H 0.65194 0.21959 0.60316 0.0
H634 H 0.68461 0.25334 0.63111 0.0
H635 H 0.73237 0.25475 0.58993 0.0
H636 H 0.69986 0.22084 0.56197 0.0
H637 H 0.73781 0.21212 0.58099 0.0
H638 H 0.69547 0.09398 0.66352 0.0
H639 H 0.64948 0.05731 0.62021 0.0
H640 H 0.64347 0.1586 0.57034 0.0
C641 C 0.74706 0.23989 0.66849 0.0
C642 C 0.76717 0.23518 0.69932 0.0
C643 C 0.7634 0.19911 0.71212 0.0
C644 C 0.74027 0.1679 0.69421 0.0
C645 C 0.72085 0.17335 0.66382 0.0
C646 C 0.72352 0.20833 0.65127 0.0
C647 C 0.69837 0.2061 0.61885 0.0
C648 C 0.67143 0.22319 0.62626 0.0
C649 C 0.7183 0.22455 0.58599 0.0
C650 C 0.6813 0.1644 0.61513 0.0
C651 C 0.69511 0.14623 0.64114 0.0
C652 C 0.68426 0.10782 0.64313 0.0
C653 C 0.65815 0.08725 0.61822 0.0
C654 C 0.6427 0.10502 0.59182 0.0
C655 C 0.65466 0.14421 0.59021 0.0
H656 H 0.89865 0.69563 0.63898 0.0
H657 H 0.80313 0.5982 0.63223 0.0
H658 H 0.83161 0.56763 0.59606 0.0
H659 H 0.92663 0.68974 0.54854 0.0
H660 H 0.97214 0.70493 0.56432 0.0
H661 H 0.9427 0.72095 0.58522 0.0
H662 H 0.96018 0.69664 0.6465 0.0
H663 H 0.98951 0.68055 0.62577 0.0
H664 H 0.95572 0.64868 0.65167 0.0
H665 H 0.87207 0.54576 0.565 0.0
H666 H 0.92198 0.53294 0.5451 0.0
H667 H 0.99143 0.64432 0.57318 0.0
C668 C 0.88347 0.66825 0.62906 0.0
C669 C 0.8486 0.64937 0.63815 0.0
C670 C 0.82989 0.61312 0.62558 0.0
C671 C 0.84577 0.59567 0.60481 0.0
C672 C 0.88038 0.61482 0.59678 0.0
C673 C 0.89901 0.65033 0.60853 0.0
C674 C 0.93678 0.66354 0.5991 0.0
C675 C 0.94504 0.69676 0.57272 0.0
C676 C 0.96202 0.67288 0.63276 0.0
C677 C 0.93686 0.62941 0.58147 0.0
C678 C 0.90391 0.60191 0.57965 0.0
C679 C 0.89791 0.56724 0.566 0.0
C680 C 0.92647 0.5602 0.55478 0.0
C681 C 0.96071 0.58754 0.55771 0.0
C682 C 0.96562 0.62284 0.57045 0.0
H683 H 0.46741 0.36743 0.30804 0.0
H684 H 0.35556 0.31357 0.28356 0.0
H685 H 0.36257 0.33764 0.2217 0.0
H686 H 0.47858 0.45058 0.24944 0.0
H687 H 0.5206 0.45312 0.23669 0.0
H688 H 0.50642 0.43463 0.28001 0.0
H689 H 0.5158 0.37415 0.26713 0.0
H690 H 0.52984 0.39244 0.2238 0.0
H691 H 0.49407 0.3486 0.22789 0.0
H692 H 0.3823 0.36186 0.16093 0.0
H693 H 0.4133 0.38708 0.10642 0.0
H694 H 0.51205 0.42697 0.17029 0.0
C695 C 0.44436 0.36117 0.28976 0.0
C696 C 0.41087 0.33887 0.30084 0.0
C697 C 0.38138 0.33118 0.27601 0.0
C698 C 0.38511 0.34458 0.2407 0.0
C699 C 0.41847 0.36602 0.23052 0.0
C700 C 0.44757 0.37468 0.2544 0.0
C701 C 0.48063 0.39711 0.2362 0.0
C702 C 0.49755 0.43618 0.2515 0.0
C703 C 0.5066 0.37685 0.23892 0.0
C704 C 0.46569 0.39855 0.19821 0.0
C705 C 0.42976 0.38063 0.19553 0.0
C706 C 0.41038 0.37643 0.16278 0.0
C707 C 0.42822 0.39072 0.13193 0.0
C708 C 0.46505 0.40911 0.13404 0.0
C709 C 0.48382 0.41342 0.16778 0.0
H710 H 0.50328 0.63901 0.79176 0.0
H711 H 0.40716 0.61671 0.84292 0.0
H712 H 0.43522 0.60295 0.90002 0.0
H713 H 0.52501 0.5684 0.83191 0.0
H714 H 0.57158 0.59376 0.83672 0.0
H715 H 0.54541 0.60655 0.80177 0.0
H716 H 0.56835 0.67375 0.82463 0.0
H717 H 0.59485 0.66119 0.85962 0.0
H718 H 0.56415 0.68151 0.87045 0.0
H719 H 0.47129 0.58187 0.94837 0.0
H720 H 0.51356 0.56064 0.98494 0.0
H721 H 0.58683 0.60091 0.9024 0.0
C722 C 0.48857 0.63226 0.81532 0.0
C723 C 0.4533 0.6291 0.81334 0.0
C724 C 0.43443 0.6197 0.84431 0.0
C725 C 0.45013 0.61176 0.8767 0.0
C726 C 0.48483 0.61414 0.87761 0.0
C727 C 0.504 0.6249 0.84782 0.0
C728 C 0.54009 0.62334 0.85499 0.0
C729 C 0.54582 0.5964 0.82987 0.0
C730 C 0.56854 0.66227 0.85227 0.0
C731 C 0.53786 0.60861 0.893 0.0
C732 C 0.50588 0.6035 0.90575 0.0
C733 C 0.49674 0.58666 0.939 0.0
C734 C 0.52083 0.57458 0.95953 0.0
C735 C 0.55372 0.57969 0.94682 0.0
C736 C 0.56234 0.5975 0.91336 0.0
H737 H 0.41016 0.31079 0.82413 0.0
H738 H 0.48849 0.33788 0.74644 0.0
H739 H 0.53115 0.38161 0.78792 0.0
H740 H 0.43628 0.40349 0.85885 0.0
H741 H 0.4295 0.38846 0.90462 0.0
H742 H 0.40407 0.35867 0.86923 0.0
H743 H 0.42448 0.30635 0.89507 0.0
H744 H 0.45002 0.33599 0.93052 0.0
H745 H 0.47067 0.3153 0.90233 0.0
H746 H 0.56413 0.42327 0.83401 0.0
H747 H 0.58965 0.46125 0.88503 0.0
H748 H 0.49372 0.40814 0.93951 0.0
C749 C 0.43632 0.32607 0.81599 0.0
C750 C 0.44606 0.32074 0.78193 0.0
C751 C 0.48054 0.34106 0.77235 0.0
C752 C 0.50492 0.36611 0.79572 0.0
C753 C 0.4947 0.37055 0.82892 0.0
C754 C 0.46146 0.35116 0.83945 0.0
C755 C 0.4583 0.36165 0.87726 0.0
C756 C 0.43037 0.37911 0.87749 0.0
C757 C 0.4504 0.3278 0.90281 0.0
C758 C 0.49497 0.3902 0.88595 0.0
C759 C 0.51497 0.39456 0.85718 0.0
C760 C 0.54896 0.41978 0.85691 0.0
C761 C 0.56327 0.44132 0.88665 0.0
C762 C 0.54428 0.43771 0.91741 0.0
C763 C 0.50933 0.41143 0.91699 0.0
H764 H 0.74818 0.35057 0.83924 0.0
H765 H 0.83419 0.37578 0.92053 0.0
H766 H 0.81104 0.41684 0.94919 0.0
H767 H 0.7424 0.44378 0.83411 0.0
H768 H 0.69531 0.42498 0.82779 0.0
H769 H 0.72055 0.40048 0.81177 0.0
H770 H 0.68522 0.34189 0.84807 0.0
H771 H 0.66009 0.36625 0.86436 0.0
H772 H 0.68336 0.34506 0.89535 0.0
H773 H 0.77626 0.45117 0.97147 0.0
H774 H 0.73247 0.47686 0.98565 0.0
H775 H 0.66922 0.42955 0.88958 0.0
C776 C 0.76261 0.36545 0.86256 0.0
C777 C 0.79302 0.36007 0.87765 0.0
C778 C 0.8107 0.37933 0.90869 0.0
C779 C 0.79788 0.40285 0.92502 0.0
C780 C 0.76744 0.40696 0.90988 0.0
C781 C 0.75013 0.38899 0.87922 0.0
C782 C 0.71685 0.39646 0.86956 0.0
C783 C 0.71892 0.41769 0.83368 0.0
C784 C 0.68448 0.36026 0.86934 0.0
C785 C 0.7177 0.42063 0.90009 0.0
C786 C 0.74727 0.42666 0.92284 0.0
C787 C 0.75317 0.44696 0.95367 0.0
C788 C 0.72808 0.46135 0.96153 0.0
C789 C 0.6974 0.45521 0.93875 0.0
C790 C 0.69243 0.43484 0.90749 0.0
H791 H 0.80135 0.68611 0.78378 0.0
H792 H 0.75945 0.5882 0.71865 0.0
H793 H 0.73143 0.55116 0.77026 0.0
H794 H 0.81605 0.64007 0.86714 0.0
H795 H 0.80185 0.66801 0.8942 0.0
H796 H 0.82147 0.68688 0.85305 0.0
H797 H 0.76697 0.70223 0.83087 0.0
H798 H 0.7474 0.68379 0.87207 0.0
H799 H 0.72422 0.66596 0.83026 0.0
H800 H 0.70527 0.52523 0.82674 0.0
H801 H 0.67848 0.51245 0.88376 0.0
H802 H 0.73544 0.62655 0.91407 0.0
C803 C 0.78622 0.65691 0.78026 0.0
C804 C 0.78313 0.6401 0.747 0.0
C805 C 0.76311 0.6017 0.74387 0.0
C806 C 0.74693 0.58036 0.77306 0.0
C807 C 0.75074 0.59773 0.80534 0.0
C808 C 0.76957 0.63515 0.80915 0.0
C809 C 0.76752 0.64718 0.84635 0.0
C810 C 0.80389 0.66137 0.86637 0.0
C811 C 0.75051 0.67652 0.84478 0.0
C812 C 0.74403 0.61074 0.86256 0.0
C813 C 0.73514 0.58261 0.8384 0.0
C814 C 0.71234 0.5469 0.84605 0.0
C815 C 0.69734 0.53986 0.87881 0.0
C816 C 0.70518 0.56823 0.90392 0.0
C817 C 0.7295 0.60404 0.89588 0.0
H818 H 0.69957 0.58264 0.28175 0.0
H819 H 0.75503 0.69283 0.23938 0.0
H820 H 0.72617 0.67324 0.17925 0.0
H821 H 0.70237 0.53138 0.20539 0.0
H822 H 0.65908 0.49744 0.21078 0.0
H823 H 0.68556 0.52101 0.24893 0.0
H824 H 0.63473 0.54152 0.26318 0.0
H825 H 0.6091 0.51864 0.22426 0.0
H826 H 0.61826 0.56722 0.22989 0.0
H827 H 0.69085 0.64037 0.12342 0.0
H828 H 0.65026 0.59889 0.07805 0.0
H829 H 0.61763 0.51075 0.15826 0.0
C830 C 0.70553 0.60255 0.2597 0.0
C831 C 0.72941 0.63915 0.26483 0.0
C832 C 0.73671 0.66467 0.23569 0.0
C833 C 0.72053 0.65372 0.20157 0.0
C834 C 0.6971 0.61721 0.19726 0.0
C835 C 0.6895 0.59212 0.22568 0.0
C836 C 0.66288 0.55483 0.21444 0.0
C837 C 0.67845 0.52439 0.2202 0.0
C838 C 0.62926 0.545 0.23411 0.0
C839 C 0.65659 0.56268 0.17519 0.0
C840 C 0.67666 0.5987 0.16564 0.0
C841 C 0.67502 0.61215 0.13069 0.0
C842 C 0.65196 0.58835 0.10505 0.0
C843 C 0.63062 0.55159 0.11453 0.0
C844 C 0.63342 0.53871 0.15007 0.0
H845 H 0.40149 0.63855 0.16553 0.0
H846 H 0.42737 0.61971 0.27705 0.0
H847 H 0.44583 0.56938 0.26057 0.0
H848 H 0.37295 0.53999 0.13738 0.0
H849 H 0.39255 0.55394 0.09541 0.0
H850 H 0.37536 0.58363 0.11638 0.0
H851 H 0.43547 0.63762 0.11416 0.0
H852 H 0.4528 0.60817 0.09332 0.0
H853 H 0.47418 0.63094 0.13398 0.0
H854 H 0.4704 0.52853 0.23155 0.0
H855 H 0.49829 0.50017 0.19249 0.0
H856 H 0.45663 0.54511 0.0996 0.0
C857 C 0.41041 0.62339 0.1866 0.0
C858 C 0.41284 0.63314 0.22267 0.0
C859 C 0.42463 0.61247 0.24933 0.0
C860 C 0.43532 0.58386 0.24018 0.0
C861 C 0.43373 0.5759 0.20427 0.0
C862 C 0.42122 0.59484 0.17791 0.0
C863 C 0.42532 0.58349 0.14116 0.0
C864 C 0.3894 0.5641 0.12142 0.0
C865 C 0.44832 0.61705 0.1194 0.0
C866 C 0.44357 0.55644 0.15089 0.0
C867 C 0.4477 0.55203 0.18746 0.0
C868 C 0.46667 0.5312 0.20292 0.0
C869 C 0.48249 0.51527 0.18052 0.0
C870 C 0.47926 0.52014 0.14306 0.0
C871 C 0.45873 0.54014 0.1281 0.0
H872 H 0.73047 0.42517 0.1958 0.0
H873 H 0.66649 0.31155 0.22251 0.0
H874 H 0.62882 0.30895 0.1673 0.0
H875 H 0.66315 0.45281 0.16985 0.0
H876 H 0.68409 0.48411 0.13446 0.0
H877 H 0.71024 0.47402 0.17108 0.0
H878 H 0.74353 0.45245 0.1268 0.0
H879 H 0.71712 0.46234 0.09 0.0
H880 H 0.71922 0.41679 0.09565 0.0
H881 H 0.59198 0.32274 0.1162 0.0
H882 H 0.55953 0.35138 0.07418 0.0
H883 H 0.64752 0.45628 0.08105 0.0
C884 C 0.70906 0.39941 0.18956 0.0
C885 C 0.70141 0.36854 0.21343 0.0
C886 C 0.67315 0.33535 0.20437 0.0
C887 C 0.65158 0.33366 0.17307 0.0
C888 C 0.65896 0.36521 0.15089 0.0
C889 C 0.68733 0.39736 0.15858 0.0
C890 C 0.68716 0.42887 0.13317 0.0
C891 C 0.6861 0.46189 0.15334 0.0
C892 C 0.71863 0.4408 0.11003 0.0
C893 C 0.65323 0.41008 0.11122 0.0
C894 C 0.63767 0.37317 0.1213 0.0
C895 C 0.60431 0.35135 0.10751 0.0
C896 C 0.58601 0.36793 0.08369 0.0
C897 C 0.60097 0.4061 0.07414 0.0
C898 C 0.63552 0.42691 0.08722 0.0
loop_
_geom_bond_atom_site_label_1
_geom_bond_atom_site_label_2
_geom_bond_distance
_geom_bond_site_symmetry_2
_ccdc_geom_bond_type
H0 C1 0.949 . S
C1 H0 0.949 . S
C1 C2 1.395 . S
C1 C3 1.391 . S
C2 C1 1.395 . S
C2 C5 1.390 . S
C3 C1 1.391 . S
C3 C7 1.387 . S
C3 C8 1.491 . S
H4 C5 0.950 . S
C5 C2 1.390 . S
C5 H4 0.950 . S
C5 C6 1.378 . S
C6 C5 1.378 . S
C6 C7 1.409 . S
C7 C3 1.387 . S
C7 C6 1.409 . S
C7 H9 0.951 . S
C8 C3 1.491 . S
C8 C10 1.382 . S
C8 C12 1.404 . S
H9 C7 0.951 . S
C10 C8 1.382 . S
C10 C11 1.390 . S
C10 H15 0.949 . S
C11 C10 1.390 . S
C11 C16 1.399 . S
C12 C8 1.404 . S
C12 H13 0.950 . S
C12 C14 1.375 . S
H13 C12 0.950 . S
C14 C12 1.375 . S
C14 C16 1.382 . S
C14 H18 0.950 . S
H15 C10 0.949 . S
C16 C11 1.399 . S
C16 C14 1.382 . S
C16 H17 0.952 . S
H17 C16 0.952 . S
H18 C14 0.950 . S
H19 C20 0.949 . S
C20 H19 0.949 . S
C20 C21 1.395 . S
C20 C22 1.391 . S
C21 C20 1.395 . S
C21 C24 1.390 . S
C22 C20 1.391 . S
C22 C26 1.387 . S
C22 C27 1.491 . S
H23 C24 0.950 . S
C24 C21 1.390 . S
C24 H23 0.950 . S
C24 C25 1.378 . S
C25 C24 1.378 . S
C25 C26 1.409 . S
C26 C22 1.387 . S
C26 C25 1.409 . S
C26 H28 0.951 . S
C27 C22 1.491 . S
C27 C29 1.382 . S
C27 C31 1.404 . S
H28 C26 0.951 . S
C29 C27 1.382 . S
C29 C30 1.390 . S
C29 H34 0.949 . S
C30 C29 1.390 . S
C30 C35 1.399 . S
C31 C27 1.404 . S
C31 H32 0.950 . S
C31 C33 1.375 . S
H32 C31 0.950 . S
C33 C31 1.375 . S
C33 C35 1.382 . S
C33 H37 0.950 . S
H34 C29 0.949 . S
C35 C30 1.399 . S
C35 C33 1.382 . S
C35 H36 0.952 . S
H36 C35 0.952 . S
H37 C33 0.950 . S
H38 C39 0.949 . S
C39 H38 0.949 . S
C39 C40 1.395 . S
C39 C41 1.391 . S
C40 C39 1.395 . S
C40 C43 1.390 . S
C41 C39 1.391 . S
C41 C45 1.387 . S
C41 C46 1.491 . S
H42 C43 0.950 . S
C43 C40 1.390 . S
C43 H42 0.950 . S
C43 C44 1.378 . S
C44 C43 1.378 . S
C44 C45 1.409 . S
C45 C41 1.387 . S
C45 C44 1.409 . S
C45 H47 0.951 . S
C46 C41 1.491 . S
C46 C48 1.382 . S
C46 C50 1.404 . S
H47 C45 0.951 . S
C48 C46 1.382 . S
C48 C49 1.390 . S
C48 H53 0.949 . S
C49 C48 1.390 . S
C49 C54 1.399 . S
C50 C46 1.404 . S
C50 H51 0.950 . S
C50 C52 1.375 . S
H51 C50 0.950 . S
C52 C50 1.375 . S
C52 C54 1.382 . S
C52 H56 0.950 . S
H53 C48 0.949 . S
C54 C49 1.399 . S
C54 C52 1.382 . S
C54 H55 0.952 . S
H55 C54 0.952 . S
H56 C52 0.950 . S
H57 C58 0.949 . S
C58 H57 0.949 . S
C58 C59 1.395 . S
C58 C60 1.391 . S
C59 C58 1.395 . S
C59 C62 1.390 . S
C60 C58 1.391 . S
C60 C64 1.387 . S
C60 C65 1.491 . S
H61 C62 0.950 . S
C62 C59 1.390 . S
C62 H61 0.950 . S
C62 C63 1.378 . S
C63 C62 1.378 . S
C63 C64 1.409 . S
C64 C60 1.387 . S
C64 C63 1.409 . S
C64 H66 0.951 . S
C65 C60 1.491 . S
C65 C67 1.382 . S
C65 C69 1.404 . S
H66 C64 0.951 . S
C67 C65 1.382 . S
C67 C68 1.390 . S
C67 H72 0.949 . S
C68 C67 1.390 . S
C68 C73 1.399 . S
C69 C65 1.404 . S
C69 H70 0.950 . S
C69 C71 1.375 . S
H70 C69 0.950 . S
C71 C69 1.375 . S
C71 C73 1.382 . S
C71 H75 0.950 . S
H72 C67 0.949 . S
C73 C68 1.399 . S
C73 C71 1.382 . S
C73 H74 0.952 . S
H74 C73 0.952 . S
H75 C71 0.950 . S
H76 C77 0.949 . S
C77 H76 0.949 . S
C77 C78 1.395 . S
C77 C79 1.391 . S
C78 C77 1.395 . S
C78 C81 1.390 . S
C79 C77 1.391 . S
C79 C83 1.387 . S
C79 C84 1.491 . S
H80 C81 0.950 . S
C81 C78 1.390 . S
C81 H80 0.950 . S
C81 C82 1.378 . S
C82 C81 1.378 . S
C82 C83 1.409 . S
C83 C79 1.387 . S
C83 C82 1.409 . S
C83 H85 0.951 . S
C84 C79 1.491 . S
C84 C86 1.382 . S
C84 C88 1.404 . S
H85 C83 0.951 . S
C86 C84 1.382 . S
C86 C87 1.390 . S
C86 H91 0.949 . S
C87 C86 1.390 . S
C87 C92 1.399 . S
C88 C84 1.404 . S
C88 H89 0.950 . S
C88 C90 1.375 . S
H89 C88 0.950 . S
C90 C88 1.375 . S
C90 C92 1.382 . S
C90 H94 0.950 . S
H91 C86 0.949 . S
C92 C87 1.399 . S
C92 C90 1.382 . S
C92 H93 0.952 . S
H93 C92 0.952 . S
H94 C90 0.950 . S
H95 C96 0.949 . S
C96 H95 0.949 . S
C96 C97 1.395 . S
C96 C98 1.391 . S
C97 C96 1.395 . S
C97 C100 1.390 . S
C98 C96 1.391 . S
C98 C102 1.387 . S
C98 C103 1.491 . S
H99 C100 0.950 . S
C100 C97 1.390 . S
C100 H99 0.950 . S
C100 C101 1.378 . S
C101 C100 1.378 . S
C101 C102 1.409 . S
C102 C98 1.387 . S
C102 C101 1.409 . S
C102 H104 0.951 . S
C103 C98 1.491 . S
C103 C105 1.382 . S
C103 C107 1.404 . S
H104 C102 0.951 . S
C105 C103 1.382 . S
C105 C106 1.390 . S
C105 H110 0.949 . S
C106 C105 1.390 . S
C106 C111 1.399 . S
C107 C103 1.404 . S
C107 H108 0.950 . S
C107 C109 1.375 . S
H108 C107 0.950 . S
C109 C107 1.375 . S
C109 C111 1.382 . S
C109 H113 0.950 . S
H110 C105 0.949 . S
C111 C106 1.399 . S
C111 C109 1.382 . S
C111 H112 0.952 . S
H112 C111 0.952 . S
H113 C109 0.950 . S
H114 C115 0.949 . S
C115 H114 0.949 . S
C115 C116 1.395 . S
C115 C117 1.391 . S
C116 C115 1.395 . S
C116 C119 1.390 . S
C117 C115 1.391 . S
C117 C121 1.387 . S
C117 C122 1.491 . S
H118 C119 0.950 . S
C119 C116 1.390 . S
C119 H118 0.950 . S
C119 C120 1.378 . S
C120 C119 1.378 . S
C120 C121 1.409 . S
C121 C117 1.387 . S
C121 C120 1.409 . S
C121 H123 0.951 . S
C122 C117 1.491 . S
C122 C124 1.382 . S
C122 C126 1.404 . S
H123 C121 0.951 . S
C124 C122 1.382 . S
C124 C125 1.390 . S
C124 H129 0.949 . S
C125 C124 1.390 . S
C125 C130 1.399 . S
C126 C122 1.404 . S
C126 H127 0.950 . S
C126 C128 1.375 . S
H127 C126 0.950 . S
C128 C126 1.375 . S
C128 C130 1.382 . S
C128 H132 0.950 . S
H129 C124 0.949 . S
C130 C125 1.399 . S
C130 C128 1.382 . S
C130 H131 0.952 . S
H131 C130 0.952 . S
H132 C128 0.950 . S
H133 C134 0.949 . S
C134 H133 0.949 . S
C134 C135 1.395 . S
C134 C136 1.391 . S
C135 C134 1.395 . S
C135 C138 1.390 . S
C136 C134 1.391 . S
C136 C140 1.387 . S
C136 C141 1.491 . S
H137 C138 0.950 . S
C138 C135 1.390 . S
C138 H137 0.950 . S
C138 C139 1.378 . S
C139 C138 1.378 . S
C139 C140 1.409 . S
C140 C136 1.387 . S
C140 C139 1.409 . S
C140 H142 0.951 . S
C141 C136 1.491 . S
C141 C143 1.382 . S
C141 C145 1.404 . S
H142 C140 0.951 . S
C143 C141 1.382 . S
C143 C144 1.390 . S
C143 H148 0.949 . S
C144 C143 1.390 . S
C144 C149 1.399 . S
C145 C141 1.404 . S
C145 H146 0.950 . S
C145 C147 1.375 . S
H146 C145 0.950 . S
C147 C145 1.375 . S
C147 C149 1.382 . S
C147 H151 0.950 . S
H148 C143 0.949 . S
C149 C144 1.399 . S
C149 C147 1.382 . S
C149 H150 0.952 . S
H150 C149 0.952 . S
H151 C147 0.950 . S
Co152 O155 2.042 . S
Co152 O162 2.264 . S
Co152 O181 2.286 . S
Co152 O182 2.069 . S
Co152 O184 2.015 . S
Co153 O155 2.122 . S
Co153 O161 2.073 . S
Co153 O162 2.327 . S
Co153 O163 1.976 . S
Co154 O155 2.087 . S
Co154 O157 2.087 . S
Co154 O164 2.111 . S
Co154 O165 2.143 1_455 S
Co154 O169 2.111 . S
Co154 O183 2.143 . S
O155 Co152 2.042 . S
O155 Co153 2.122 . S
O155 Co154 2.087 . S
O155 H156 0.980 . S
H156 O155 0.980 . S
O157 Co154 2.087 . S
O157 Co158 2.042 1_455 S
O157 Co159 2.122 1_455 S
O157 H160 0.980 . S
Co158 O157 2.042 1_655 S
Co158 O166 2.286 . S
Co158 O167 2.069 . S
Co158 O168 2.015 . S
Co158 O171 2.264 . S
Co159 O157 2.122 1_655 S
Co159 O170 1.976 . S
Co159 O171 2.327 . S
Co159 O172 2.072 1_655 S
H160 O157 0.980 . S
O161 Co153 2.073 . S
O161 C176 1.245 . S
O162 Co152 2.264 . S
O162 Co153 2.327 . S
O162 C176 1.257 . S
O163 Co153 1.976 . S
O163 C175 1.251 . S
O164 Co154 2.111 . S
O164 C175 1.274 . S
O165 Co154 2.143 1_655 S
O165 C178 1.246 . S
O166 Co158 2.286 . S
O166 C177 1.259 . S
O167 Co158 2.069 . S
O167 C177 1.289 . S
O168 Co158 2.015 . S
O168 C178 1.257 . S
O169 Co154 2.111 . S
O169 C179 1.274 1_455 S
O170 Co159 1.976 . S
O170 C179 1.251 . S
O171 Co158 2.264 . S
O171 Co159 2.327 . S
O171 C180 1.257 . S
O172 Co159 2.072 1_455 S
O172 C180 1.247 1_455 S
C173 O181 1.259 . S
C173 O182 1.289 . S
C174 O183 1.246 . S
C174 O184 1.257 . S
C175 O163 1.251 . S
C175 O164 1.274 . S
C176 O161 1.245 . S
C176 O162 1.257 . S
C177 O166 1.259 . S
C177 O167 1.289 . S
C178 O165 1.246 . S
C178 O168 1.257 . S
C179 O169 1.274 1_655 S
C179 O170 1.251 . S
C180 O171 1.257 . S
C180 O172 1.247 1_655 S
O181 Co152 2.286 . S
O181 C173 1.259 . S
O182 Co152 2.069 . S
O182 C173 1.289 . S
O183 Co154 2.143 . S
O183 C174 1.246 . S
O184 Co152 2.015 . S
O184 C174 1.257 . S
Co185 O188 2.042 . S
Co185 O195 2.264 . S
Co185 O214 2.286 . S
Co185 O215 2.069 . S
Co185 O217 2.015 . S
Co186 O188 2.122 . S
Co186 O194 2.073 . S
Co186 O195 2.327 . S
Co186 O196 1.976 . S
Co187 O188 2.087 1_545 S
Co187 O190 2.087 . S
Co187 O197 2.111 1_545 S
Co187 O198 2.143 . S
Co187 O202 2.111 . S
Co187 O216 2.143 1_545 S
O188 Co185 2.042 . S
O188 Co186 2.122 . S
O188 Co187 2.087 1_565 S
O188 H189 0.980 1_565 S
H189 O188 0.980 1_545 S
O190 Co187 2.087 . S
O190 Co191 2.042 . S
O190 Co192 2.122 . S
O190 H193 0.980 . S
Co191 O190 2.042 . S
Co191 O199 2.286 . S
Co191 O200 2.069 . S
Co191 O201 2.015 . S
Co191 O204 2.264 . S
Co192 O190 2.122 . S
Co192 O203 1.976 . S
Co192 O204 2.327 . S
Co192 O205 2.073 . S
H193 O190 0.980 . S
O194 Co186 2.073 . S
O194 C209 1.245 . S
O195 Co185 2.264 . S
O195 Co186 2.327 . S
O195 C209 1.257 . S
O196 Co186 1.976 . S
O196 C208 1.251 . S
O197 Co187 2.111 1_565 S
O197 C208 1.274 . S
O198 Co187 2.143 . S
O198 C211 1.246 . S
O199 Co191 2.286 . S
O199 C210 1.259 . S
O200 Co191 2.069 . S
O200 C210 1.289 . S
O201 Co191 2.015 . S
O201 C211 1.257 . S
O202 Co187 2.111 . S
O202 C212 1.274 . S
O203 Co192 1.976 . S
O203 C212 1.251 . S
O204 Co191 2.264 . S
O204 Co192 2.327 . S
O204 C213 1.257 . S
O205 Co192 2.073 . S
O205 C213 1.245 . S
C206 O214 1.259 . S
C206 O215 1.289 . S
C207 O216 1.246 . S
C207 O217 1.257 . S
C208 O196 1.251 . S
C208 O197 1.274 . S
C209 O194 1.245 . S
C209 O195 1.257 . S
C210 O199 1.259 . S
C210 O200 1.289 . S
C211 O198 1.246 . S
C211 O201 1.257 . S
C212 O202 1.274 . S
C212 O203 1.251 . S
C213 O204 1.257 . S
C213 O205 1.245 . S
O214 Co185 2.286 . S
O214 C206 1.259 . S
O215 Co185 2.069 . S
O215 C206 1.289 . S
O216 Co187 2.143 1_565 S
O216 C207 1.246 . S
O217 Co185 2.015 . S
O217 C207 1.257 . S
Co218 O221 2.042 . S
Co218 O228 2.264 . S
Co218 O247 2.286 . S
Co218 O248 2.069 . S
Co218 O250 2.015 . S
Co219 O221 2.122 . S
Co219 O227 2.073 . S
Co219 O228 2.327 . S
Co219 O229 1.976 . S
Co220 O221 2.087 . S
Co220 O223 2.087 1_554 S
Co220 O230 2.111 . S
Co220 O231 2.143 1_554 S
Co220 O235 2.111 1_554 S
Co220 O249 2.143 . S
O221 Co218 2.042 . S
O221 Co219 2.122 . S
O221 Co220 2.087 . S
O221 H222 0.980 . S
H222 O221 0.980 . S
O223 Co220 2.087 1_556 S
O223 Co224 2.042 . S
O223 Co225 2.122 . S
O223 H226 0.980 . S
Co224 O223 2.042 . S
Co224 O232 2.286 . S
Co224 O233 2.069 . S
Co224 O234 2.015 . S
Co224 O237 2.264 . S
Co225 O223 2.122 . S
Co225 O236 1.976 . S
Co225 O237 2.327 . S
Co225 O238 2.073 . S
H226 O223 0.980 . S
O227 Co219 2.073 . S
O227 C242 1.245 . S
O228 Co218 2.264 . S
O228 Co219 2.327 . S
O228 C242 1.257 . S
O229 Co219 1.976 . S
O229 C241 1.251 . S
O230 Co220 2.111 . S
O230 C241 1.274 . S
O231 Co220 2.143 1_556 S
O231 C244 1.246 . S
O232 Co224 2.286 . S
O232 C243 1.259 . S
O233 Co224 2.069 . S
O233 C243 1.289 . S
O234 Co224 2.015 . S
O234 C244 1.257 . S
O235 Co220 2.111 1_556 S
O235 C245 1.274 . S
O236 Co225 1.976 . S
O236 C245 1.251 . S
O237 Co224 2.264 . S
O237 Co225 2.327 . S
O237 C246 1.257 . S
O238 Co225 2.073 . S
O238 C246 1.245 . S
C239 O247 1.259 . S
C239 O248 1.289 . S
C240 O249 1.246 . S
C240 O250 1.257 . S
C241 O229 1.251 . S
C241 O230 1.274 . S
C242 O227 1.245 . S
C242 O228 1.257 . S
C243 O232 1.259 . S
C243 O233 1.289 . S
C244 O231 1.246 . S
C244 O234 1.257 . S
C245 O235 1.274 . S
C245 O236 1.251 . S
C246 O237 1.257 . S
C246 O238 1.245 . S
O247 Co218 2.286 . S
O247 C239 1.259 . S
O248 Co218 2.069 . S
O248 C239 1.289 . S
O249 Co220 2.143 . S
O249 C240 1.246 . S
O250 Co218 2.015 . S
O250 C240 1.257 . S
H251 C263 0.930 . S
H252 C265 0.930 . S
H253 C266 0.930 . S
H254 C270 0.959 . S
H255 C270 0.959 . S
H256 C270 0.961 . S
H257 C271 0.960 . S
H258 C271 0.961 . S
H259 C271 0.959 . S
H260 C274 0.929 . S
H261 C275 0.931 . S
H262 C277 0.930 . S
C263 H251 0.930 . S
C263 C264 1.399 . S
C263 C268 1.399 . S
C264 C263 1.399 . S
C264 C265 1.376 . S
C265 H252 0.930 . S
C265 C264 1.376 . S
C265 C266 1.388 . S
C266 H253 0.930 . S
C266 C265 1.388 . S
C266 C267 1.390 . S
C267 C266 1.390 . S
C267 C268 1.394 . S
C267 C273 1.465 . S
C268 C263 1.399 . S
C268 C267 1.394 . S
C268 C269 1.516 . S
C269 C268 1.516 . S
C269 C270 1.502 . S
C269 C271 1.561 . S
C269 C272 1.526 . S
C270 H254 0.959 . S
C270 H255 0.959 . S
C270 H256 0.961 . S
C270 C269 1.502 . S
C271 H257 0.960 . S
C271 H258 0.961 . S
C271 H259 0.959 . S
C271 C269 1.561 . S
C272 C269 1.526 . S
C272 C273 1.396 . S
C272 C277 1.390 . S
C273 C267 1.465 . S
C273 C272 1.396 . S
C273 C274 1.399 . S
C274 H260 0.929 . S
C274 C273 1.399 . S
C274 C275 1.385 . S
C275 H261 0.931 . S
C275 C274 1.385 . S
C275 C276 1.389 . S
C276 C275 1.389 . S
C276 C277 1.387 . S
C277 H262 0.930 . S
C277 C272 1.390 . S
C277 C276 1.387 . S
H278 C290 0.930 . S
H279 C292 0.930 . S
H280 C293 0.930 . S
H281 C297 0.959 . S
H282 C297 0.959 . S
H283 C297 0.961 . S
H284 C298 0.960 . S
H285 C298 0.961 . S
H286 C298 0.959 . S
H287 C301 0.929 . S
H288 C302 0.931 . S
H289 C304 0.930 . S
C290 H278 0.930 . S
C290 C291 1.399 . S
C290 C295 1.399 . S
C291 C290 1.399 . S
C291 C292 1.376 . S
C292 H279 0.930 . S
C292 C291 1.376 . S
C292 C293 1.388 . S
C293 H280 0.930 . S
C293 C292 1.388 . S
C293 C294 1.390 . S
C294 C293 1.390 . S
C294 C295 1.394 . S
C294 C300 1.465 . S
C295 C290 1.399 . S
C295 C294 1.394 . S
C295 C296 1.516 . S
C296 C295 1.516 . S
C296 C297 1.502 . S
C296 C298 1.561 . S
C296 C299 1.526 . S
C297 H281 0.959 . S
C297 H282 0.959 . S
C297 H283 0.961 . S
C297 C296 1.502 . S
C298 H284 0.960 . S
C298 H285 0.961 . S
C298 H286 0.959 . S
C298 C296 1.561 . S
C299 C296 1.526 . S
C299 C300 1.396 . S
C299 C304 1.390 . S
C300 C294 1.465 . S
C300 C299 1.396 . S
C300 C301 1.399 . S
C301 H287 0.929 . S
C301 C300 1.399 . S
C301 C302 1.385 . S
C302 H288 0.931 . S
C302 C301 1.385 . S
C302 C303 1.389 . S
C303 C302 1.389 . S
C303 C304 1.387 . S
C304 H289 0.930 . S
C304 C299 1.390 . S
C304 C303 1.387 . S
H305 C317 0.930 . S
H306 C319 0.930 . S
H307 C320 0.930 . S
H308 C324 0.959 . S
H309 C324 0.959 . S
H310 C324 0.961 . S
H311 C325 0.960 . S
H312 C325 0.961 . S
H313 C325 0.959 . S
H314 C328 0.929 . S
H315 C329 0.931 . S
H316 C331 0.930 . S
C317 H305 0.930 . S
C317 C318 1.399 . S
C317 C322 1.399 . S
C318 C317 1.399 . S
C318 C319 1.376 . S
C319 H306 0.930 . S
C319 C318 1.376 . S
C319 C320 1.388 . S
C320 H307 0.930 . S
C320 C319 1.388 . S
C320 C321 1.390 . S
C321 C320 1.390 . S
C321 C322 1.394 . S
C321 C327 1.465 . S
C322 C317 1.399 . S
C322 C321 1.394 . S
C322 C323 1.516 . S
C323 C322 1.516 . S
C323 C324 1.502 . S
C323 C325 1.561 . S
C323 C326 1.526 . S
C324 H308 0.959 . S
C324 H309 0.959 . S
C324 H310 0.961 . S
C324 C323 1.502 . S
C325 H311 0.960 . S
C325 H312 0.961 . S
C325 H313 0.959 . S
C325 C323 1.561 . S
C326 C323 1.526 . S
C326 C327 1.396 . S
C326 C331 1.390 . S
C327 C321 1.465 . S
C327 C326 1.396 . S
C327 C328 1.399 . S
C328 H314 0.929 . S
C328 C327 1.399 . S
C328 C329 1.385 . S
C329 H315 0.931 . S
C329 C328 1.385 . S
C329 C330 1.389 . S
C330 C329 1.389 . S
C330 C331 1.387 . S
C331 H316 0.930 . S
C331 C326 1.390 . S
C331 C330 1.387 . S
H332 C344 0.930 . S
H333 C346 0.930 . S
H334 C347 0.930 . S
H335 C351 0.959 . S
H336 C351 0.959 . S
H337 C351 0.961 . S
H338 C352 0.960 . S
H339 C352 0.961 . S
H340 C352 0.959 . S
H341 C355 0.929 . S
H342 C356 0.931 . S
H343 C358 0.930 . S
C344 H332 0.930 . S
C344 C345 1.399 . S
C344 C349 1.399 . S
C345 C344 1.399 . S
C345 C346 1.376 . S
C346 H333 0.930 . S
C346 C345 1.376 . S
C346 C347 1.388 . S
C347 H334 0.930 . S
C347 C346 1.388 . S
C347 C348 1.390 . S
C348 C347 1.390 . S
C348 C349 1.394 . S
C348 C354 1.465 . S
C349 C344 1.399 . S
C349 C348 1.394 . S
C349 C350 1.516 . S
C350 C349 1.516 . S
C350 C351 1.502 . S
C350 C352 1.561 . S
C350 C353 1.526 . S
C351 H335 0.959 . S
C351 H336 0.959 . S
C351 H337 0.961 . S
C351 C350 1.502 . S
C352 H338 0.960 . S
C352 H339 0.961 . S
C352 H340 0.959 . S
C352 C350 1.561 . S
C353 C350 1.526 . S
C353 C354 1.396 . S
C353 C358 1.390 . S
C354 C348 1.465 . S
C354 C353 1.396 . S
C354 C355 1.399 . S
C355 H341 0.929 . S
C355 C354 1.399 . S
C355 C356 1.385 . S
C356 H342 0.931 . S
C356 C355 1.385 . S
C356 C357 1.389 . S
C357 C356 1.389 . S
C357 C358 1.387 . S
C358 H343 0.930 . S
C358 C353 1.390 . S
C358 C357 1.387 . S
H359 C371 0.930 . S
H360 C373 0.930 . S
H361 C374 0.930 . S
H362 C378 0.959 . S
H363 C378 0.959 . S
H364 C378 0.961 . S
H365 C379 0.960 . S
H366 C379 0.961 . S
H367 C379 0.959 . S
H368 C382 0.929 . S
H369 C383 0.931 . S
H370 C385 0.930 . S
C371 H359 0.930 . S
C371 C372 1.399 . S
C371 C376 1.399 . S
C372 C371 1.399 . S
C372 C373 1.376 . S
C373 H360 0.930 . S
C373 C372 1.376 . S
C373 C374 1.388 . S
C374 H361 0.930 . S
C374 C373 1.388 . S
C374 C375 1.390 . S
C375 C374 1.390 . S
C375 C376 1.394 . S
C375 C381 1.465 . S
C376 C371 1.399 . S
C376 C375 1.394 . S
C376 C377 1.516 . S
C377 C376 1.516 . S
C377 C378 1.502 . S
C377 C379 1.561 . S
C377 C380 1.526 . S
C378 H362 0.959 . S
C378 H363 0.959 . S
C378 H364 0.961 . S
C378 C377 1.502 . S
C379 H365 0.960 . S
C379 H366 0.961 . S
C379 H367 0.959 . S
C379 C377 1.561 . S
C380 C377 1.526 . S
C380 C381 1.396 . S
C380 C385 1.390 . S
C381 C375 1.465 . S
C381 C380 1.396 . S
C381 C382 1.399 . S
C382 H368 0.929 . S
C382 C381 1.399 . S
C382 C383 1.385 . S
C383 H369 0.931 . S
C383 C382 1.385 . S
C383 C384 1.389 . S
C384 C383 1.389 . S
C384 C385 1.387 . S
C385 H370 0.930 . S
C385 C380 1.390 . S
C385 C384 1.387 . S
H386 C398 0.930 . S
H387 C400 0.930 . S
H388 C401 0.930 . S
H389 C405 0.959 . S
H390 C405 0.959 . S
H391 C405 0.961 . S
H392 C406 0.960 . S
H393 C406 0.961 . S
H394 C406 0.959 . S
H395 C409 0.929 . S
H396 C410 0.931 . S
H397 C412 0.930 . S
C398 H386 0.930 . S
C398 C399 1.399 . S
C398 C403 1.399 . S
C399 C398 1.399 . S
C399 C400 1.376 . S
C400 H387 0.930 . S
C400 C399 1.376 . S
C400 C401 1.388 . S
C401 H388 0.930 . S
C401 C400 1.388 . S
C401 C402 1.390 . S
C402 C401 1.390 . S
C402 C403 1.394 . S
C402 C408 1.465 . S
C403 C398 1.399 . S
C403 C402 1.394 . S
C403 C404 1.516 . S
C404 C403 1.516 . S
C404 C405 1.502 . S
C404 C406 1.561 . S
C404 C407 1.526 . S
C405 H389 0.959 . S
C405 H390 0.959 . S
C405 H391 0.961 . S
C405 C404 1.502 . S
C406 H392 0.960 . S
C406 H393 0.961 . S
C406 H394 0.959 . S
C406 C404 1.561 . S
C407 C404 1.526 . S
C407 C408 1.396 . S
C407 C412 1.390 . S
C408 C402 1.465 . S
C408 C407 1.396 . S
C408 C409 1.399 . S
C409 H395 0.929 . S
C409 C408 1.399 . S
C409 C410 1.385 . S
C410 H396 0.931 . S
C410 C409 1.385 . S
C410 C411 1.389 . S
C411 C410 1.389 . S
C411 C412 1.387 . S
C412 H397 0.930 . S
C412 C407 1.390 . S
C412 C411 1.387 . S
H413 C425 0.930 . S
H414 C427 0.930 . S
H415 C428 0.930 . S
H416 C432 0.959 . S
H417 C432 0.959 . S
H418 C432 0.961 . S
H419 C433 0.960 . S
H420 C433 0.961 . S
H421 C433 0.959 . S
H422 C436 0.929 . S
H423 C437 0.931 . S
H424 C439 0.930 . S
C425 H413 0.930 . S
C425 C426 1.399 . S
C425 C430 1.399 . S
C426 C425 1.399 . S
C426 C427 1.376 . S
C427 H414 0.930 . S
C427 C426 1.376 . S
C427 C428 1.388 . S
C428 H415 0.930 . S
C428 C427 1.388 . S
C428 C429 1.390 . S
C429 C428 1.390 . S
C429 C430 1.394 . S
C429 C435 1.465 . S
C430 C425 1.399 . S
C430 C429 1.394 . S
C430 C431 1.516 . S
C431 C430 1.516 . S
C431 C432 1.502 . S
C431 C433 1.561 . S
C431 C434 1.526 . S
C432 H416 0.959 . S
C432 H417 0.959 . S
C432 H418 0.961 . S
C432 C431 1.502 . S
C433 H419 0.960 . S
C433 H420 0.961 . S
C433 H421 0.959 . S
C433 C431 1.561 . S
C434 C431 1.526 . S
C434 C435 1.396 . S
C434 C439 1.390 . S
C435 C429 1.465 . S
C435 C434 1.396 . S
C435 C436 1.399 . S
C436 H422 0.929 . S
C436 C435 1.399 . S
C436 C437 1.385 . S
C437 H423 0.931 . S
C437 C436 1.385 . S
C437 C438 1.389 . S
C438 C437 1.389 . S
C438 C439 1.387 . S
C439 H424 0.930 . S
C439 C434 1.390 . S
C439 C438 1.387 . S
H440 C452 0.930 . S
H441 C454 0.930 . S
H442 C455 0.930 . S
H443 C459 0.959 . S
H444 C459 0.959 . S
H445 C459 0.961 . S
H446 C460 0.960 . S
H447 C460 0.961 . S
H448 C460 0.959 . S
H449 C463 0.929 . S
H450 C464 0.931 . S
H451 C466 0.930 . S
C452 H440 0.930 . S
C452 C453 1.399 . S
C452 C457 1.399 . S
C453 C452 1.399 . S
C453 C454 1.376 . S
C454 H441 0.930 . S
C454 C453 1.376 . S
C454 C455 1.388 . S
C455 H442 0.930 . S
C455 C454 1.388 . S
C455 C456 1.390 . S
C456 C455 1.390 . S
C456 C457 1.394 . S
C456 C462 1.465 . S
C457 C452 1.399 . S
C457 C456 1.394 . S
C457 C458 1.516 . S
C458 C457 1.516 . S
C458 C459 1.502 . S
C458 C460 1.561 . S
C458 C461 1.526 . S
C459 H443 0.959 . S
C459 H444 0.959 . S
C459 H445 0.961 . S
C459 C458 1.502 . S
C460 H446 0.960 . S
C460 H447 0.961 . S
C460 H448 0.959 . S
C460 C458 1.561 . S
C461 C458 1.526 . S
C461 C462 1.396 . S
C461 C466 1.390 . S
C462 C456 1.465 . S
C462 C461 1.396 . S
C462 C463 1.399 . S
C463 H449 0.929 . S
C463 C462 1.399 . S
C463 C464 1.385 . S
C464 H450 0.931 . S
C464 C463 1.385 . S
C464 C465 1.389 . S
C465 C464 1.389 . S
C465 C466 1.387 . S
C466 H451 0.930 . S
C466 C461 1.390 . S
C466 C465 1.387 . S
H467 C479 0.930 . S
H468 C481 0.930 . S
H469 C482 0.930 . S
H470 C486 0.959 . S
H471 C486 0.959 . S
H472 C486 0.961 . S
H473 C487 0.960 . S
H474 C487 0.961 . S
H475 C487 0.959 . S
H476 C490 0.929 . S
H477 C491 0.931 . S
H478 C493 0.930 . S
C479 H467 0.930 . S
C479 C480 1.399 . S
C479 C484 1.399 . S
C480 C479 1.399 . S
C480 C481 1.376 . S
C481 H468 0.930 . S
C481 C480 1.376 . S
C481 C482 1.388 . S
C482 H469 0.930 . S
C482 C481 1.388 . S
C482 C483 1.390 . S
C483 C482 1.390 . S
C483 C484 1.394 . S
C483 C489 1.465 . S
C484 C479 1.399 . S
C484 C483 1.394 . S
C484 C485 1.516 . S
C485 C484 1.516 . S
C485 C486 1.502 . S
C485 C487 1.561 . S
C485 C488 1.526 . S
C486 H470 0.959 . S
C486 H471 0.959 . S
C486 H472 0.961 . S
C486 C485 1.502 . S
C487 H473 0.960 . S
C487 H474 0.961 . S
C487 H475 0.959 . S
C487 C485 1.561 . S
C488 C485 1.526 . S
C488 C489 1.396 . S
C488 C493 1.390 . S
C489 C483 1.465 . S
C489 C488 1.396 . S
C489 C490 1.399 . S
C490 H476 0.929 . S
C490 C489 1.399 . S
C490 C491 1.385 . S
C491 H477 0.931 . S
C491 C490 1.385 . S
C491 C492 1.389 . S
C492 C491 1.389 . S
C492 C493 1.387 . S
C493 H478 0.930 . S
C493 C488 1.390 . S
C493 C492 1.387 . S
H494 C506 0.930 . S
H495 C508 0.930 . S
H496 C509 0.930 . S
H497 C513 0.959 . S
H498 C513 0.959 . S
H499 C513 0.961 . S
H500 C514 0.960 . S
H501 C514 0.961 . S
H502 C514 0.959 . S
H503 C517 0.929 . S
H504 C518 0.931 . S
H505 C520 0.930 . S
C506 H494 0.930 . S
C506 C507 1.399 . S
C506 C511 1.399 . S
C507 C506 1.399 . S
C507 C508 1.376 . S
C508 H495 0.930 . S
C508 C507 1.376 . S
C508 C509 1.388 . S
C509 H496 0.930 . S
C509 C508 1.388 . S
C509 C510 1.390 . S
C510 C509 1.390 . S
C510 C511 1.394 . S
C510 C516 1.465 . S
C511 C506 1.399 . S
C511 C510 1.394 . S
C511 C512 1.516 . S
C512 C511 1.516 . S
C512 C513 1.502 . S
C512 C514 1.561 . S
C512 C515 1.526 . S
C513 H497 0.959 . S
C513 H498 0.959 . S
C513 H499 0.961 . S
C513 C512 1.502 . S
C514 H500 0.960 . S
C514 H501 0.961 . S
C514 H502 0.959 . S
C514 C512 1.561 . S
C515 C512 1.526 . S
C515 C516 1.396 . S
C515 C520 1.390 . S
C516 C510 1.465 . S
C516 C515 1.396 . S
C516 C517 1.399 . S
C517 H503 0.929 . S
C517 C516 1.399 . S
C517 C518 1.385 . S
C518 H504 0.931 . S
C518 C517 1.385 . S
C518 C519 1.389 . S
C519 C518 1.389 . S
C519 C520 1.387 . S
C520 H505 0.930 . S
C520 C515 1.390 . S
C520 C519 1.387 . S
H521 C533 0.930 . S
H522 C535 0.930 . S
H523 C536 0.930 . S
H524 C540 0.959 . S
H525 C540 0.959 . S
H526 C540 0.961 . S
H527 C541 0.960 . S
H528 C541 0.961 . S
H529 C541 0.959 . S
H530 C544 0.929 . S
H531 C545 0.931 . S
H532 C547 0.930 . S
C533 H521 0.930 . S
C533 C534 1.399 . S
C533 C538 1.399 . S
C534 C533 1.399 . S
C534 C535 1.376 . S
C535 H522 0.930 . S
C535 C534 1.376 . S
C535 C536 1.388 . S
C536 H523 0.930 . S
C536 C535 1.388 . S
C536 C537 1.390 . S
C537 C536 1.390 . S
C537 C538 1.394 . S
C537 C543 1.465 . S
C538 C533 1.399 . S
C538 C537 1.394 . S
C538 C539 1.516 . S
C539 C538 1.516 . S
C539 C540 1.502 . S
C539 C541 1.561 . S
C539 C542 1.526 . S
C540 H524 0.959 . S
C540 H525 0.959 . S
C540 H526 0.961 . S
C540 C539 1.502 . S
C541 H527 0.960 . S
C541 H528 0.961 . S
C541 H529 0.959 . S
C541 C539 1.561 . S
C542 C539 1.526 . S
C542 C543 1.396 . S
C542 C547 1.390 . S
C543 C537 1.465 . S
C543 C542 1.396 . S
C543 C544 1.399 . S
C544 H530 0.929 . S
C544 C543 1.399 . S
C544 C545 1.385 . S
C545 H531 0.931 . S
C545 C544 1.385 . S
C545 C546 1.389 . S
C546 C545 1.389 . S
C546 C547 1.387 . S
C547 H532 0.930 . S
C547 C542 1.390 . S
C547 C546 1.387 . S
H548 C560 0.930 . S
H549 C562 0.930 . S
H550 C563 0.930 . S
H551 C567 0.959 . S
H552 C567 0.959 . S
H553 C567 0.961 . S
H554 C568 0.960 . S
H555 C568 0.961 . S
H556 C568 0.959 . S
H557 C571 0.929 . S
H558 C572 0.931 . S
H559 C574 0.930 . S
C560 H548 0.930 . S
C560 C561 1.399 . S
C560 C565 1.399 . S
C561 C560 1.399 . S
C561 C562 1.376 . S
C562 H549 0.930 . S
C562 C561 1.376 . S
C562 C563 1.388 . S
C563 H550 0.930 . S
C563 C562 1.388 . S
C563 C564 1.390 . S
C564 C563 1.390 . S
C564 C565 1.394 . S
C564 C570 1.465 . S
C565 C560 1.399 . S
C565 C564 1.394 . S
C565 C566 1.516 . S
C566 C565 1.516 . S
C566 C567 1.502 . S
C566 C568 1.561 . S
C566 C569 1.526 . S
C567 H551 0.959 . S
C567 H552 0.959 . S
C567 H553 0.961 . S
C567 C566 1.502 . S
C568 H554 0.960 . S
C568 H555 0.961 . S
C568 H556 0.959 . S
C568 C566 1.561 . S
C569 C566 1.526 . S
C569 C570 1.396 . S
C569 C574 1.390 . S
C570 C564 1.465 . S
C570 C569 1.396 . S
C570 C571 1.399 . S
C571 H557 0.929 . S
C571 C570 1.399 . S
C571 C572 1.385 . S
C572 H558 0.931 . S
C572 C571 1.385 . S
C572 C573 1.389 . S
C573 C572 1.389 . S
C573 C574 1.387 . S
C574 H559 0.930 . S
C574 C569 1.390 . S
C574 C573 1.387 . S
H575 C587 0.930 . S
H576 C589 0.930 . S
H577 C590 0.930 . S
H578 C594 0.959 . S
H579 C594 0.959 . S
H580 C594 0.961 . S
H581 C595 0.960 . S
H582 C595 0.961 . S
H583 C595 0.959 . S
H584 C598 0.929 . S
H585 C599 0.931 . S
H586 C601 0.930 . S
C587 H575 0.930 . S
C587 C588 1.399 . S
C587 C592 1.399 . S
C588 C587 1.399 . S
C588 C589 1.376 . S
C589 H576 0.930 . S
C589 C588 1.376 . S
C589 C590 1.388 . S
C590 H577 0.930 . S
C590 C589 1.388 . S
C590 C591 1.390 . S
C591 C590 1.390 . S
C591 C592 1.394 . S
C591 C597 1.465 . S
C592 C587 1.399 . S
C592 C591 1.394 . S
C592 C593 1.516 . S
C593 C592 1.516 . S
C593 C594 1.502 . S
C593 C595 1.561 . S
C593 C596 1.526 . S
C594 H578 0.959 . S
C594 H579 0.959 . S
C594 H580 0.961 . S
C594 C593 1.502 . S
C595 H581 0.960 . S
C595 H582 0.961 . S
C595 H583 0.959 . S
C595 C593 1.561 . S
C596 C593 1.526 . S
C596 C597 1.396 . S
C596 C601 1.390 . S
C597 C591 1.465 . S
C597 C596 1.396 . S
C597 C598 1.399 . S
C598 H584 0.929 . S
C598 C597 1.399 . S
C598 C599 1.385 . S
C599 H585 0.931 . S
C599 C598 1.385 . S
C599 C600 1.389 . S
C600 C599 1.389 . S
C600 C601 1.387 . S
C601 H586 0.930 . S
C601 C596 1.390 . S
C601 C600 1.387 . S
H602 C614 0.930 . S
H603 C616 0.930 . S
H604 C617 0.930 . S
H605 C621 0.959 . S
H606 C621 0.959 . S
H607 C621 0.961 . S
H608 C622 0.960 . S
H609 C622 0.961 . S
H610 C622 0.959 . S
H611 C625 0.929 . S
H612 C626 0.931 . S
H613 C628 0.930 . S
C614 H602 0.930 . S
C614 C615 1.399 . S
C614 C619 1.399 . S
C615 C614 1.399 . S
C615 C616 1.376 . S
C616 H603 0.930 . S
C616 C615 1.376 . S
C616 C617 1.388 . S
C617 H604 0.930 . S
C617 C616 1.388 . S
C617 C618 1.390 . S
C618 C617 1.390 . S
C618 C619 1.394 . S
C618 C624 1.465 . S
C619 C614 1.399 . S
C619 C618 1.394 . S
C619 C620 1.516 . S
C620 C619 1.516 . S
C620 C621 1.502 . S
C620 C622 1.561 . S
C620 C623 1.526 . S
C621 H605 0.959 . S
C621 H606 0.959 . S
C621 H607 0.961 . S
C621 C620 1.502 . S
C622 H608 0.960 . S
C622 H609 0.961 . S
C622 H610 0.959 . S
C622 C620 1.561 . S
C623 C620 1.526 . S
C623 C624 1.396 . S
C623 C628 1.390 . S
C624 C618 1.465 . S
C624 C623 1.396 . S
C624 C625 1.399 . S
C625 H611 0.929 . S
C625 C624 1.399 . S
C625 C626 1.385 . S
C626 H612 0.931 . S
C626 C625 1.385 . S
C626 C627 1.389 . S
C627 C626 1.389 . S
C627 C628 1.387 . S
C628 H613 0.930 . S
C628 C623 1.390 . S
C628 C627 1.387 . S
H629 C641 0.930 . S
H630 C643 0.930 . S
H631 C644 0.930 . S
H632 C648 0.959 . S
H633 C648 0.959 . S
H634 C648 0.961 . S
H635 C649 0.960 . S
H636 C649 0.961 . S
H637 C649 0.959 . S
H638 C652 0.929 . S
H639 C653 0.931 . S
H640 C655 0.930 . S
C641 H629 0.930 . S
C641 C642 1.399 . S
C641 C646 1.399 . S
C642 C641 1.399 . S
C642 C643 1.376 . S
C643 H630 0.930 . S
C643 C642 1.376 . S
C643 C644 1.388 . S
C644 H631 0.930 . S
C644 C643 1.388 . S
C644 C645 1.390 . S
C645 C644 1.390 . S
C645 C646 1.394 . S
C645 C651 1.465 . S
C646 C641 1.399 . S
C646 C645 1.394 . S
C646 C647 1.516 . S
C647 C646 1.516 . S
C647 C648 1.502 . S
C647 C649 1.561 . S
C647 C650 1.526 . S
C648 H632 0.959 . S
C648 H633 0.959 . S
C648 H634 0.961 . S
C648 C647 1.502 . S
C649 H635 0.960 . S
C649 H636 0.961 . S
C649 H637 0.959 . S
C649 C647 1.561 . S
C650 C647 1.526 . S
C650 C651 1.396 . S
C650 C655 1.390 . S
C651 C645 1.465 . S
C651 C650 1.396 . S
C651 C652 1.399 . S
C652 H638 0.929 . S
C652 C651 1.399 . S
C652 C653 1.385 . S
C653 H639 0.931 . S
C653 C652 1.385 . S
C653 C654 1.389 . S
C654 C653 1.389 . S
C654 C655 1.387 . S
C655 H640 0.930 . S
C655 C650 1.390 . S
C655 C654 1.387 . S
H656 C668 0.930 . S
H657 C670 0.930 . S
H658 C671 0.930 . S
H659 C675 0.959 . S
H660 C675 0.959 . S
H661 C675 0.961 . S
H662 C676 0.960 . S
H663 C676 0.961 . S
H664 C676 0.959 . S
H665 C679 0.929 . S
H666 C680 0.931 . S
H667 C682 0.930 . S
C668 H656 0.930 . S
C668 C669 1.399 . S
C668 C673 1.399 . S
C669 C668 1.399 . S
C669 C670 1.376 . S
C670 H657 0.930 . S
C670 C669 1.376 . S
C670 C671 1.388 . S
C671 H658 0.930 . S
C671 C670 1.388 . S
C671 C672 1.390 . S
C672 C671 1.390 . S
C672 C673 1.394 . S
C672 C678 1.465 . S
C673 C668 1.399 . S
C673 C672 1.394 . S
C673 C674 1.516 . S
C674 C673 1.516 . S
C674 C675 1.502 . S
C674 C676 1.561 . S
C674 C677 1.526 . S
C675 H659 0.959 . S
C675 H660 0.959 . S
C675 H661 0.961 . S
C675 C674 1.502 . S
C676 H662 0.960 . S
C676 H663 0.961 . S
C676 H664 0.959 . S
C676 C674 1.561 . S
C677 C674 1.526 . S
C677 C678 1.396 . S
C677 C682 1.390 . S
C678 C672 1.465 . S
C678 C677 1.396 . S
C678 C679 1.399 . S
C679 H665 0.929 . S
C679 C678 1.399 . S
C679 C680 1.385 . S
C680 H666 0.931 . S
C680 C679 1.385 . S
C680 C681 1.389 . S
C681 C680 1.389 . S
C681 C682 1.387 . S
C682 H667 0.930 . S
C682 C677 1.390 . S
C682 C681 1.387 . S
H683 C695 0.930 . S
H684 C697 0.930 . S
H685 C698 0.930 . S
H686 C702 0.959 . S
H687 C702 0.959 . S
H688 C702 0.961 . S
H689 C703 0.960 . S
H690 C703 0.961 . S
H691 C703 0.959 . S
H692 C706 0.929 . S
H693 C707 0.931 . S
H694 C709 0.930 . S
C695 H683 0.930 . S
C695 C696 1.399 . S
C695 C700 1.399 . S
C696 C695 1.399 . S
C696 C697 1.376 . S
C697 H684 0.930 . S
C697 C696 1.376 . S
C697 C698 1.388 . S
C698 H685 0.930 . S
C698 C697 1.388 . S
C698 C699 1.390 . S
C699 C698 1.390 . S
C699 C700 1.394 . S
C699 C705 1.465 . S
C700 C695 1.399 . S
C700 C699 1.394 . S
C700 C701 1.516 . S
C701 C700 1.516 . S
C701 C702 1.502 . S
C701 C703 1.561 . S
C701 C704 1.526 . S
C702 H686 0.959 . S
C702 H687 0.959 . S
C702 H688 0.961 . S
C702 C701 1.502 . S
C703 H689 0.960 . S
C703 H690 0.961 . S
C703 H691 0.959 . S
C703 C701 1.561 . S
C704 C701 1.526 . S
C704 C705 1.396 . S
C704 C709 1.390 . S
C705 C699 1.465 . S
C705 C704 1.396 . S
C705 C706 1.399 . S
C706 H692 0.929 . S
C706 C705 1.399 . S
C706 C707 1.385 . S
C707 H693 0.931 . S
C707 C706 1.385 . S
C707 C708 1.389 . S
C708 C707 1.389 . S
C708 C709 1.387 . S
C709 H694 0.930 . S
C709 C704 1.390 . S
C709 C708 1.387 . S
H710 C722 0.930 . S
H711 C724 0.930 . S
H712 C725 0.930 . S
H713 C729 0.959 . S
H714 C729 0.959 . S
H715 C729 0.961 . S
H716 C730 0.960 . S
H717 C730 0.961 . S
H718 C730 0.959 . S
H719 C733 0.929 . S
H720 C734 0.931 . S
H721 C736 0.930 . S
C722 H710 0.930 . S
C722 C723 1.399 . S
C722 C727 1.399 . S
C723 C722 1.399 . S
C723 C724 1.376 . S
C724 H711 0.930 . S
C724 C723 1.376 . S
C724 C725 1.388 . S
C725 H712 0.930 . S
C725 C724 1.388 . S
C725 C726 1.390 . S
C726 C725 1.390 . S
C726 C727 1.394 . S
C726 C732 1.465 . S
C727 C722 1.399 . S
C727 C726 1.394 . S
C727 C728 1.516 . S
C728 C727 1.516 . S
C728 C729 1.502 . S
C728 C730 1.561 . S
C728 C731 1.526 . S
C729 H713 0.959 . S
C729 H714 0.959 . S
C729 H715 0.961 . S
C729 C728 1.502 . S
C730 H716 0.960 . S
C730 H717 0.961 . S
C730 H718 0.959 . S
C730 C728 1.561 . S
C731 C728 1.526 . S
C731 C732 1.396 . S
C731 C736 1.390 . S
C732 C726 1.465 . S
C732 C731 1.396 . S
C732 C733 1.399 . S
C733 H719 0.929 . S
C733 C732 1.399 . S
C733 C734 1.385 . S
C734 H720 0.931 . S
C734 C733 1.385 . S
C734 C735 1.389 . S
C735 C734 1.389 . S
C735 C736 1.387 . S
C736 H721 0.930 . S
C736 C731 1.390 . S
C736 C735 1.387 . S
H737 C749 0.930 . S
H738 C751 0.930 . S
H739 C752 0.930 . S
H740 C756 0.959 . S
H741 C756 0.959 . S
H742 C756 0.961 . S
H743 C757 0.960 . S
H744 C757 0.961 . S
H745 C757 0.959 . S
H746 C760 0.929 . S
H747 C761 0.931 . S
H748 C763 0.930 . S
C749 H737 0.930 . S
C749 C750 1.399 . S
C749 C754 1.399 . S
C750 C749 1.399 . S
C750 C751 1.376 . S
C751 H738 0.930 . S
C751 C750 1.376 . S
C751 C752 1.388 . S
C752 H739 0.930 . S
C752 C751 1.388 . S
C752 C753 1.390 . S
C753 C752 1.390 . S
C753 C754 1.394 . S
C753 C759 1.465 . S
C754 C749 1.399 . S
C754 C753 1.394 . S
C754 C755 1.516 . S
C755 C754 1.516 . S
C755 C756 1.502 . S
C755 C757 1.561 . S
C755 C758 1.526 . S
C756 H740 0.959 . S
C756 H741 0.959 . S
C756 H742 0.961 . S
C756 C755 1.502 . S
C757 H743 0.960 . S
C757 H744 0.961 . S
C757 H745 0.959 . S
C757 C755 1.561 . S
C758 C755 1.526 . S
C758 C759 1.396 . S
C758 C763 1.390 . S
C759 C753 1.465 . S
C759 C758 1.396 . S
C759 C760 1.399 . S
C760 H746 0.929 . S
C760 C759 1.399 . S
C760 C761 1.385 . S
C761 H747 0.931 . S
C761 C760 1.385 . S
C761 C762 1.389 . S
C762 C761 1.389 . S
C762 C763 1.387 . S
C763 H748 0.930 . S
C763 C758 1.390 . S
C763 C762 1.387 . S
H764 C776 0.930 . S
H765 C778 0.930 . S
H766 C779 0.930 . S
H767 C783 0.959 . S
H768 C783 0.959 . S
H769 C783 0.961 . S
H770 C784 0.960 . S
H771 C784 0.961 . S
H772 C784 0.959 . S
H773 C787 0.929 . S
H774 C788 0.931 . S
H775 C790 0.930 . S
C776 H764 0.930 . S
C776 C777 1.399 . S
C776 C781 1.399 . S
C777 C776 1.399 . S
C777 C778 1.376 . S
C778 H765 0.930 . S
C778 C777 1.376 . S
C778 C779 1.388 . S
C779 H766 0.930 . S
C779 C778 1.388 . S
C779 C780 1.390 . S
C780 C779 1.390 . S
C780 C781 1.394 . S
C780 C786 1.465 . S
C781 C776 1.399 . S
C781 C780 1.394 . S
C781 C782 1.516 . S
C782 C781 1.516 . S
C782 C783 1.502 . S
C782 C784 1.561 . S
C782 C785 1.526 . S
C783 H767 0.959 . S
C783 H768 0.959 . S
C783 H769 0.961 . S
C783 C782 1.502 . S
C784 H770 0.960 . S
C784 H771 0.961 . S
C784 H772 0.959 . S
C784 C782 1.561 . S
C785 C782 1.526 . S
C785 C786 1.396 . S
C785 C790 1.390 . S
C786 C780 1.465 . S
C786 C785 1.396 . S
C786 C787 1.399 . S
C787 H773 0.929 . S
C787 C786 1.399 . S
C787 C788 1.385 . S
C788 H774 0.931 . S
C788 C787 1.385 . S
C788 C789 1.389 . S
C789 C788 1.389 . S
C789 C790 1.387 . S
C790 H775 0.930 . S
C790 C785 1.390 . S
C790 C789 1.387 . S
H791 C803 0.930 . S
H792 C805 0.930 . S
H793 C806 0.930 . S
H794 C810 0.959 . S
H795 C810 0.959 . S
H796 C810 0.961 . S
H797 C811 0.960 . S
H798 C811 0.961 . S
H799 C811 0.959 . S
H800 C814 0.929 . S
H801 C815 0.931 . S
H802 C817 0.930 . S
C803 H791 0.930 . S
C803 C804 1.399 . S
C803 C808 1.399 . S
C804 C803 1.399 . S
C804 C805 1.376 . S
C805 H792 0.930 . S
C805 C804 1.376 . S
C805 C806 1.388 . S
C806 H793 0.930 . S
C806 C805 1.388 . S
C806 C807 1.390 . S
C807 C806 1.390 . S
C807 C808 1.394 . S
C807 C813 1.465 . S
C808 C803 1.399 . S
C808 C807 1.394 . S
C808 C809 1.516 . S
C809 C808 1.516 . S
C809 C810 1.502 . S
C809 C811 1.561 . S
C809 C812 1.526 . S
C810 H794 0.959 . S
C810 H795 0.959 . S
C810 H796 0.961 . S
C810 C809 1.502 . S
C811 H797 0.960 . S
C811 H798 0.961 . S
C811 H799 0.959 . S
C811 C809 1.561 . S
C812 C809 1.526 . S
C812 C813 1.396 . S
C812 C817 1.390 . S
C813 C807 1.465 . S
C813 C812 1.396 . S
C813 C814 1.399 . S
C814 H800 0.929 . S
C814 C813 1.399 . S
C814 C815 1.385 . S
C815 H801 0.931 . S
C815 C814 1.385 . S
C815 C816 1.389 . S
C816 C815 1.389 . S
C816 C817 1.387 . S
C817 H802 0.930 . S
C817 C812 1.390 . S
C817 C816 1.387 . S
H818 C830 0.930 . S
H819 C832 0.930 . S
H820 C833 0.930 . S
H821 C837 0.959 . S
H822 C837 0.959 . S
H823 C837 0.961 . S
H824 C838 0.960 . S
H825 C838 0.961 . S
H826 C838 0.959 . S
H827 C841 0.929 . S
H828 C842 0.931 . S
H829 C844 0.930 . S
C830 H818 0.930 . S
C830 C831 1.399 . S
C830 C835 1.399 . S
C831 C830 1.399 . S
C831 C832 1.376 . S
C832 H819 0.930 . S
C832 C831 1.376 . S
C832 C833 1.388 . S
C833 H820 0.930 . S
C833 C832 1.388 . S
C833 C834 1.390 . S
C834 C833 1.390 . S
C834 C835 1.394 . S
C834 C840 1.465 . S
C835 C830 1.399 . S
C835 C834 1.394 . S
C835 C836 1.516 . S
C836 C835 1.516 . S
C836 C837 1.502 . S
C836 C838 1.561 . S
C836 C839 1.526 . S
C837 H821 0.959 . S
C837 H822 0.959 . S
C837 H823 0.961 . S
C837 C836 1.502 . S
C838 H824 0.960 . S
C838 H825 0.961 . S
C838 H826 0.959 . S
C838 C836 1.561 . S
C839 C836 1.526 . S
C839 C840 1.396 . S
C839 C844 1.390 . S
C840 C834 1.465 . S
C840 C839 1.396 . S
C840 C841 1.399 . S
C841 H827 0.929 . S
C841 C840 1.399 . S
C841 C842 1.385 . S
C842 H828 0.931 . S
C842 C841 1.385 . S
C842 C843 1.389 . S
C843 C842 1.389 . S
C843 C844 1.387 . S
C844 H829 0.930 . S
C844 C839 1.390 . S
C844 C843 1.387 . S
H845 C857 0.930 . S
H846 C859 0.930 . S
H847 C860 0.930 . S
H848 C864 0.959 . S
H849 C864 0.959 . S
H850 C864 0.961 . S
H851 C865 0.960 . S
H852 C865 0.961 . S
H853 C865 0.959 . S
H854 C868 0.929 . S
H855 C869 0.931 . S
H856 C871 0.930 . S
C857 H845 0.930 . S
C857 C858 1.399 . S
C857 C862 1.399 . S
C858 C857 1.399 . S
C858 C859 1.376 . S
C859 H846 0.930 . S
C859 C858 1.376 . S
C859 C860 1.388 . S
C860 H847 0.930 . S
C860 C859 1.388 . S
C860 C861 1.390 . S
C861 C860 1.390 . S
C861 C862 1.394 . S
C861 C867 1.465 . S
C862 C857 1.399 . S
C862 C861 1.394 . S
C862 C863 1.516 . S
C863 C862 1.516 . S
C863 C864 1.502 . S
C863 C865 1.561 . S
C863 C866 1.526 . S
C864 H848 0.959 . S
C864 H849 0.959 . S
C864 H850 0.961 . S
C864 C863 1.502 . S
C865 H851 0.960 . S
C865 H852 0.961 . S
C865 H853 0.959 . S
C865 C863 1.561 . S
C866 C863 1.526 . S
C866 C867 1.396 . S
C866 C871 1.390 . S
C867 C861 1.465 . S
C867 C866 1.396 . S
C867 C868 1.399 . S
C868 H854 0.929 . S
C868 C867 1.399 . S
C868 C869 1.385 . S
C869 H855 0.931 . S
C869 C868 1.385 . S
C869 C870 1.389 . S
C870 C869 1.389 . S
C870 C871 1.387 . S
C871 H856 0.930 . S
C871 C866 1.390 . S
C871 C870 1.387 . S
H872 C884 0.930 . S
H873 C886 0.930 . S
H874 C887 0.930 . S
H875 C891 0.959 . S
H876 C891 0.959 . S
H877 C891 0.961 . S
H878 C892 0.960 . S
H879 C892 0.961 . S
H880 C892 0.959 . S
H881 C895 0.929 . S
H882 C896 0.931 . S
H883 C898 0.930 . S
C884 H872 0.930 . S
C884 C885 1.399 . S
C884 C889 1.399 . S
C885 C884 1.399 . S
C885 C886 1.376 . S
C886 H873 0.930 . S
C886 C885 1.376 . S
C886 C887 1.388 . S
C887 H874 0.930 . S
C887 C886 1.388 . S
C887 C888 1.390 . S
C888 C887 1.390 . S
C888 C889 1.394 . S
C888 C894 1.465 . S
C889 C884 1.399 . S
C889 C888 1.394 . S
C889 C890 1.516 . S
C890 C889 1.516 . S
C890 C891 1.502 . S
C890 C892 1.561 . S
C890 C893 1.526 . S
C891 H875 0.959 . S
C891 H876 0.959 . S
C891 H877 0.961 . S
C891 C890 1.502 . S
C892 H878 0.960 . S
C892 H879 0.961 . S
C892 H880 0.959 . S
C892 C890 1.561 . S
C893 C890 1.526 . S
C893 C894 1.396 . S
C893 C898 1.390 . S
C894 C888 1.465 . S
C894 C893 1.396 . S
C894 C895 1.399 . S
C895 H881 0.929 . S
C895 C894 1.399 . S
C895 C896 1.385 . S
C896 H882 0.931 . S
C896 C895 1.385 . S
C896 C897 1.389 . S
C897 C896 1.389 . S
C897 C898 1.387 . S
C898 H883 0.930 . S
C898 C893 1.390 . S
C898 C897 1.387 . S
C276 C176 1.412 . S
C264 C11 1.362 . S
C303 C212 1.243 . S
C291 C25 1.272 . S
C330 C177 1.802 . S
C318 C40 1.802 . S
C357 C207 1.616 . S
C345 C59 1.639 . S
C384 C174 1.357 . S
C372 C82 1.444 . S
C399 C101 2.091 . S
C411 C210 2.069 . S
C426 C116 0.413 . S
C438 C179 0.746 . S
C465 C209 1.553 . S
C453 C144 1.433 . S
C492 C213 1.937 . S
C480 C2 1.989 . S
C519 C178 0.975 . S
C507 C21 0.950 . S
C546 C206 1.669 . S
C534 C49 1.478 . S
C573 C175 1.125 . S
C561 C63 1.308 . S
C600 C208 1.825 . S
C588 C78 1.924 . S
C615 C106 1.320 . S
C627 C173 1.354 . S
C642 C120 1.046 . S
C654 C211 1.026 . S
C681 C180 1.695 . S
C669 C135 1.739 . S
C708 C242 1.989 . S
C696 C6 2.122 . S
C723 C87 1.745 . S
C735 C245 1.738 . S
C762 C244 2.185 . S
C750 C97 2.249 . S
C777 C125 0.986 . S
C789 C243 0.973 . S
C816 C246 2.090 . S
C804 C139 2.198 . S
C831 C44 2.054 . S
C843 C240 1.971 . S
C870 C239 1.930 . S
C858 C68 1.864 . S
C885 C30 0.831 . S
C897 C241 0.741 . S
