# Generated by pormake.
# Topology rtl, (3,6)-cn, num edge types: 1
# Building blocks:
#     Node 0, Type 0, BuildingBlock: PAMTOO_clean_linker_0, # of connection points: 3
#     Node 1, Type 0, BuildingBlock: PAMTOO_clean_linker_0, # of connection points: 3
#     Node 2, Type 0, BuildingBlock: PAMTOO_clean_linker_0, # of connection points: 3
#     Node 3, Type 0, BuildingBlock: PAMTOO_clean_linker_0, # of connection points: 3
#     Node 4, Type 1, BuildingBlock: KUMBOL_clean_sbu_1, # of connection points: 6
#     Node 5, Type 1, BuildingBlock: KUMBOL_clean_sbu_1, # of connection points: 6
#     Edge 6, Type (0, 1), BuildingBlock: XUDNAN_clean_linker_2, # of connection points: 2
#     Edge 7, Type (0, 1), BuildingBlock: XUDNAN_clean_linker_2, # of connection points: 2
#     Edge 8, Type (0, 1), BuildingBlock: XUDNAN_clean_linker_2, # of connection points: 2
#     Edge 9, Type (0, 1), BuildingBlock: XUDNAN_clean_linker_2, # of connection points: 2
#     Edge 10, Type (0, 1), BuildingBlock: XUDNAN_clean_linker_2, # of connection points: 2
#     Edge 11, Type (0, 1), BuildingBlock: XUDNAN_clean_linker_2, # of connection points: 2
#     Edge 12, Type (0, 1), BuildingBlock: XUDNAN_clean_linker_2, # of connection points: 2
#     Edge 13, Type (0, 1), BuildingBlock: XUDNAN_clean_linker_2, # of connection points: 2
#     Edge 14, Type (0, 1), BuildingBlock: XUDNAN_clean_linker_2, # of connection points: 2
#     Edge 15, Type (0, 1), BuildingBlock: XUDNAN_clean_linker_2, # of connection points: 2
#     Edge 16, Type (0, 1), BuildingBlock: XUDNAN_clean_linker_2, # of connection points: 2
#     Edge 17, Type (0, 1), BuildingBlock: XUDNAN_clean_linker_2, # of connection points: 2
# Relax obj value: 0.052
# Max RMSD: 0.218
# Mean RMSD: 0.164
data_MOF--net-rtl--node1-KUMBOL_clean_sbu_1--node2-PAMTOO_clean_linker_0--edge1-XUDNAN_clean_linker_2
_symmetry_space_group_name_H-M    P1
_symmetry_Int_Tables_number       1
_symmetry_cell_setting            triclinic
loop_
_symmetry_equiv_pos_as_xyz
'x, y, z'
_cell_length_a     35.055188
_cell_length_b     35.313243
_cell_length_c     27.033408
_cell_angle_alpha  79.246791
_cell_angle_beta   98.911595
_cell_angle_gamma 91.237953
loop_
_atom_site_label
_atom_site_type_symbol
_atom_site_fract_x
_atom_site_fract_y
_atom_site_fract_z
_atom_type_partial_charge
H0 H 0.15913 0.88289 1.00674 0.0
H1 H 0.25318 0.81502 0.10154 0.0
H2 H 0.23494 0.82017 0.93973 0.0
H3 H 0.24565 0.7431 0.01517 0.0
C4 C 0.27321 0.75148 0.03685 0.0
O5 O 0.27799 0.79094 0.02611 0.0
H6 H 0.27147 0.74237 0.07811 0.0
C7 C 0.18463 0.86504 0.01088 0.0
C8 C 0.19533 0.85418 0.96757 0.0
C9 C 0.20497 0.85074 0.05967 0.0
C10 C 0.23711 0.82639 0.06432 0.0
C11 C 0.24805 0.81563 0.0211 0.0
C12 C 0.22703 0.8294 0.97286 0.0
H13 H 0.6438 0.64218 0.6547 0.0
H14 H 0.7154 0.72101 0.56929 0.0
H15 H 0.71683 0.7223 0.72787 0.0
H16 H 0.73174 0.80164 0.6669 0.0
C17 C 0.73875 0.79114 0.63303 0.0
O18 O 0.74678 0.7521 0.6463 0.0
H19 H 0.71326 0.79681 0.60242 0.0
C20 C 0.66416 0.66577 0.65314 0.0
C21 C 0.67807 0.68055 0.69743 0.0
C22 C 0.67731 0.68043 0.60692 0.0
C23 C 0.70465 0.71 0.60469 0.0
C24 C 0.71887 0.72498 0.6483 0.0
C25 C 0.70553 0.7104 0.69445 0.0
H26 H 0.90414 0.16023 0.08809 0.0
H27 H 0.8124 0.23734 0.00736 0.0
H28 H 0.83655 0.21947 0.17077 0.0
H29 H 0.75298 0.23337 0.12924 0.0
C30 C 0.75606 0.25031 0.09103 0.0
O31 O 0.79459 0.25825 0.08925 0.0
H32 H 0.74458 0.233 0.06164 0.0
C33 C 0.88086 0.17983 0.08858 0.0
C34 C 0.87275 0.18715 0.13524 0.0
C35 C 0.85891 0.19736 0.04244 0.0
C36 C 0.82892 0.22292 0.04288 0.0
C37 C 0.821 0.23092 0.08919 0.0
C38 C 0.84252 0.21266 0.13525 0.0
H39 H 0.37345 0.37793 0.43165 0.0
H40 H 0.3019 0.29386 0.51009 0.0
H41 H 0.30499 0.2996 0.35074 0.0
H42 H 0.22631 0.27121 0.38034 0.0
C43 C 0.23658 0.26839 0.42189 0.0
O44 O 0.27617 0.26313 0.43087 0.0
H45 H 0.22846 0.29543 0.43347 0.0
C46 C 0.35393 0.35368 0.43175 0.0
C47 C 0.34153 0.34033 0.38617 0.0
C48 C 0.33928 0.33758 0.47653 0.0
C49 C 0.3132 0.30685 0.47579 0.0
C50 C 0.30117 0.2929 0.43073 0.0
C51 C 0.31501 0.30991 0.38579 0.0
C52 C 0.96776 0.12675 0.52629 0.0
C53 C 0.90063 0.12579 0.48733 0.0
C54 C 0.93384 0.10666 0.51659 0.0
C55 C 0.90264 0.16499 0.4656 0.0
C56 C 0.96952 0.16644 0.50585 0.0
C57 C 0.93711 0.18518 0.47442 0.0
N58 N 0.99809 0.10817 0.55843 0.0
C59 C 0.02946 0.12843 0.57535 0.0
C60 C 1.00324 0.18648 0.51935 0.0
C61 C 0.0331 0.16751 0.55495 0.0
Gd62 Gd 0.04504 0.9689 0.52331 0.0
Gd63 Gd 0.98971 0.04202 0.58845 0.0
N64 N 0.93291 0.06863 0.5374 0.0
C65 C 0.86617 0.10513 0.48178 0.0
C66 C 0.89935 0.04835 0.53229 0.0
C67 C 0.86555 0.06623 0.50427 0.0
H68 H 0.89861 0.01841 0.55013 0.0
H69 H 0.83901 0.05008 0.50035 0.0
H70 H 0.13242 0.01321 0.51942 0.0
H71 H 0.05133 0.11481 0.60553 0.0
H72 H 0.19695 1.00755 0.57079 0.0
H73 H 0.83981 0.11901 0.46052 0.0
H74 H 0.87752 0.18009 0.44256 0.0
H75 H 1.00207 0.88516 0.55403 0.0
H76 H 1.00581 0.21694 0.50432 0.0
H77 H 0.05853 0.18315 0.5676 0.0
H78 H 0.1931 0.88866 0.6893 0.0
H79 H 0.93801 0.21559 0.45817 0.0
H80 H 0.07874 0.81228 0.67041 0.0
H81 H 0.01577 0.82287 0.61374 0.0
N82 N 0.05647 0.90899 0.57745 0.0
C83 C 0.09192 0.90307 0.60614 0.0
C84 C 0.02963 0.88041 0.57853 0.0
C85 C 0.07297 0.83938 0.64404 0.0
C86 C 0.03734 0.84527 0.61218 0.0
C87 C 0.1009 0.86836 0.64106 0.0
H88 H 0.14454 0.83755 0.69944 0.0
N89 N 0.10988 0.96424 0.5645 0.0
C90 C 0.11914 0.93194 0.60034 0.0
C91 C 0.18407 0.95506 0.61997 0.0
C92 C 0.15629 0.92671 0.62952 0.0
C93 C 0.13802 0.99003 0.55185 0.0
C94 C 0.17512 0.98642 0.58018 0.0
O95 O 0.9705 0.03869 0.50466 0.0
O96 O 0.02665 0.02685 0.47633 0.0
O97 O 0.08131 0.94983 0.474 0.0
O98 O 0.01987 0.9402 0.46184 0.0
O99 O 0.96265 0.98331 0.58737 0.0
O100 O 0.98018 0.96079 0.51828 0.0
O101 O 0.03144 0.95389 0.60354 0.0
O102 O 0.04329 0.01014 0.63201 0.0
O103 O 0.96215 0.01774 0.65378 0.0
O104 O 0.97994 0.07718 0.64361 0.0
O105 O 0.06679 0.03042 0.51643 0.0
O106 O 0.05456 0.04994 0.58952 0.0
C107 C 0.99263 0.04358 0.46897 0.0
C108 C 0.95728 0.96094 0.55281 0.0
C109 C 0.05122 0.95226 0.3892 0.0
C110 C 0.0725 0.9452 0.30919 0.0
C111 C 0.02626 0.9955 0.31063 0.0
C112 C 0.02765 0.98352 0.36305 0.0
C113 C 0.04819 0.97639 0.28376 0.0
C114 C 0.07391 0.9336 0.36235 0.0
C115 C 0.05223 0.93858 0.44434 0.0
C116 C 0.16488 0.89292 0.66609 0.0
C117 C 0.13729 0.86375 0.67174 0.0
H118 H 0.21292 0.95219 0.6416 0.0
C119 C 0.04536 0.97249 0.63981 0.0
C120 C 0.07375 0.05287 0.5507 0.0
C121 C 0.92521 0.06146 0.68431 0.0
C122 C 0.89173 0.09439 0.73762 0.0
C123 C 0.8552 0.06324 0.67221 0.0
C124 C 0.88942 0.05123 0.65944 0.0
C125 C 0.85623 0.08489 0.71063 0.0
C126 C 0.92622 0.08265 0.72369 0.0
C127 C 0.96176 0.05016 0.67007 0.0
H128 H 1.00775 0.01943 0.29062 0.0
H129 H 1.01009 0.99845 0.38303 0.0
H130 H 0.04545 0.98573 0.24289 0.0
H131 H 0.09273 0.91013 0.38321 0.0
H132 H 0.82771 0.05565 0.6523 0.0
H133 H 0.88781 0.03377 0.63041 0.0
H134 H 0.82911 0.09421 0.71899 0.0
H135 H 0.95397 0.08921 0.74398 0.0
C136 C 0.6396 0.52261 0.13204 0.0
C137 C 0.66151 0.58673 0.0997 0.0
C138 C 0.63142 0.56022 0.10757 0.0
C139 C 0.70005 0.57421 0.11464 0.0
C140 C 0.67815 0.51034 0.14934 0.0
C141 C 0.70836 0.53607 0.13938 0.0
N142 N 0.60976 0.4988 0.14199 0.0
C143 C 0.61619 0.46335 0.17224 0.0
C144 C 0.68508 0.47306 0.17777 0.0
C145 C 0.65393 0.44974 0.19004 0.0
Gd146 Gd 0.48064 0.4807 0.99206 0.0
Gd147 Gd 0.54763 0.52321 0.10835 0.0
N148 N 0.59391 0.57136 0.09373 0.0
C149 C 0.65188 0.62521 0.07825 0.0
C150 C 0.58429 0.60927 0.07572 0.0
C151 C 0.61309 0.63662 0.06686 0.0
H152 H 0.55428 0.618 0.06656 0.0
H153 H 0.60537 0.66644 0.05128 0.0
H154 H 0.53552 0.39812 0.01481 0.0
H155 H 0.59209 0.44546 0.18227 0.0
H156 H 0.53556 0.33322 0.06649 0.0
H157 H 0.67415 0.64647 0.0715 0.0
H158 H 0.7236 0.59404 0.10842 0.0
H159 H 0.39132 0.51442 0.97694 0.0
H160 H 0.71428 0.46252 0.19185 0.0
H161 H 0.65897 0.42144 0.21354 0.0
H162 H 0.41225 0.32387 0.1231 0.0
H163 H 0.7382 0.52708 0.15195 0.0
H164 H 0.32313 0.42883 0.05721 0.0
H165 H 0.32846 0.49314 1.00359 0.0
N166 N 0.42044 0.46259 0.01502 0.0
C167 C 0.41782 0.42648 0.04234 0.0
C168 C 0.38884 0.48616 0.99987 0.0
C169 C 0.3505 0.43783 0.04511 0.0
C170 C 0.3534 0.47421 0.01491 0.0
C171 C 0.38289 0.41341 0.05909 0.0
H172 H 0.35505 0.3663 0.10324 0.0
N173 N 0.4832 0.41578 0.03529 0.0
C174 C 0.45035 0.40276 0.05384 0.0
C175 C 0.48019 0.34049 0.08864 0.0
C176 C 0.44831 0.36505 0.08197 0.0
C177 C 0.51232 0.39033 0.03653 0.0
C178 C 0.51187 0.35285 0.06455 0.0
O179 O 0.56056 0.5497 0.02998 0.0
O180 O 0.52783 0.52033 0.96455 0.0
O181 O 0.46914 0.44358 0.93599 0.0
O182 O 0.44854 0.50225 0.91679 0.0
O183 O 0.49976 0.56305 0.062 0.0
O184 O 0.46486 0.54234 0.99017 0.0
O185 O 0.46006 0.49139 0.06402 0.0
O186 O 0.51229 0.46989 0.12177 0.0
O187 O 0.50773 0.54531 0.15029 0.0
O188 O 0.56594 0.52952 0.18697 0.0
O189 O 0.54425 0.46664 0.00715 0.0
O190 O 0.55286 0.46327 0.09283 0.0
C191 C 0.55292 0.54504 0.98212 0.0
C192 C 0.47327 0.56761 0.02062 0.0
C193 C 0.46468 0.47367 0.85037 0.0
C194 C 0.45339 0.45928 0.76421 0.0
C195 C 0.51152 0.49295 0.79352 0.0
C196 C 0.49971 0.49122 0.84087 0.0
C197 C 0.48846 0.47754 0.75526 0.0
C198 C 0.44189 0.45745 0.81234 0.0
C199 C 0.45219 0.47039 0.90039 0.0
C200 C 0.41409 0.35253 0.10078 0.0
C201 C 0.38144 0.37661 0.08926 0.0
H202 H 0.47977 0.3113 0.10992 0.0
C203 C 0.4749 0.47398 0.10997 0.0
C204 C 0.56616 0.45843 0.05174 0.0
C205 C 0.5388 0.58366 0.20776 0.0
C206 C 0.5636 0.61949 0.27523 0.0
C207 C 0.53585 0.65357 0.19082 0.0
C208 C 0.52873 0.61863 0.17428 0.0
C209 C 0.55338 0.65412 0.24068 0.0
C210 C 0.55581 0.58425 0.25825 0.0
C211 C 0.53406 0.54663 0.18972 0.0
H212 H 0.53874 0.50616 0.78642 0.0
H213 H 0.518 0.50322 0.8701 0.0
H214 H 0.49811 0.4802 0.71863 0.0
H215 H 0.4156 0.44272 0.8209 0.0
H216 H 0.52833 0.6804 0.1646 0.0
H217 H 0.51591 0.61906 0.13513 0.0
H218 H 0.55966 0.68182 0.25165 0.0
H219 H 0.56311 0.55714 0.28402 0.0
H220 H 0.18957 0.21277 0.38548 0.0
H221 H 0.23997 0.24942 0.52545 0.0
H222 H 0.20607 0.19657 0.57506 0.0
H223 H 0.09696 0.18914 0.42082 0.0
H224 H 0.09039 0.14798 0.38982 0.0
H225 H 0.11998 0.18745 0.36605 0.0
H226 H 0.17731 0.14015 0.37482 0.0
H227 H 0.14775 0.10062 0.39861 0.0
H228 H 0.19333 0.10957 0.43549 0.0
H229 H 0.16406 0.14084 0.60877 0.0
H230 H 0.11799 0.0871 0.62335 0.0
H231 H 0.09602 0.08751 0.461 0.0
C232 C 0.19369 0.20941 0.42661 0.0
C233 C 0.21736 0.23502 0.45185 0.0
C234 C 0.22198 0.22991 0.50564 0.0
C235 C 0.20285 0.20006 0.534 0.0
C236 C 0.17932 0.1755 0.50792 0.0
C237 C 0.1748 0.17982 0.4554 0.0
C238 C 0.14716 0.15028 0.4364 0.0
C239 C 0.11152 0.1699 0.4012 0.0
C240 C 0.16762 0.12357 0.40976 0.0
C241 C 0.13661 0.12885 0.48628 0.0
C242 C 0.1554 0.1437 0.52719 0.0
C243 C 0.14926 0.129 0.57695 0.0
C244 C 0.12297 0.09862 0.58488 0.0
C245 C 0.103 0.08351 0.54325 0.0
C246 C 0.1106 0.09853 0.49358 0.0
H247 H 0.33529 0.71345 0.1005 0.0
H248 H 0.28464 0.74339 0.94151 0.0
H249 H 0.33504 0.70473 0.91826 0.0
H250 H 0.43776 0.71218 0.07968 0.0
H251 H 0.44969 0.67162 0.13088 0.0
H252 H 0.41256 0.70525 0.13395 0.0
H253 H 0.36416 0.64891 0.14634 0.0
H254 H 0.4012 0.61536 0.14324 0.0
H255 H 0.35619 0.61752 0.10027 0.0
H256 H 0.38594 0.65652 0.91403 0.0
H257 H 0.43456 0.60425 0.92874 0.0
H258 H 0.45261 0.60693 0.09041 0.0
C259 C 0.33536 0.71241 0.06073 0.0
C260 C 0.30614 0.73115 0.02265 0.0
C261 C 0.30686 0.72908 0.97105 0.0
C262 C 0.33536 0.7073 0.95759 0.0
C263 C 0.36322 0.68824 0.99619 0.0
C264 C 0.36368 0.6909 0.04669 0.0
C265 C 0.3952 0.66568 0.08119 0.0
C266 C 0.4256 0.69016 0.10799 0.0
C267 C 0.37815 0.63506 0.12002 0.0
C268 C 0.41166 0.64756 0.04243 0.0
C269 C 0.39305 0.66112 0.99357 0.0
C270 C 0.40123 0.64627 0.95199 0.0
C271 C 0.42881 0.61655 0.9607 0.0
C272 C 0.44798 0.60209 0.01055 0.0
C273 C 0.43954 0.6183 0.05166 0.0
H274 H 0.78153 0.84914 0.67059 0.0
H275 H 0.77203 0.78156 0.55096 0.0
H276 H 0.82659 0.81764 0.5165 0.0
H277 H 0.8035 0.93921 0.59418 0.0
H278 H 0.83709 0.95421 0.6443 0.0
H279 H 0.79789 0.92267 0.65989 0.0
H280 H 0.84658 0.87277 0.71745 0.0
H281 H 0.88586 0.9043 0.70222 0.0
H282 H 0.88565 0.85551 0.69117 0.0
H283 H 0.88215 0.8618 0.49505 0.0
H284 H 0.9345 0.90965 0.48882 0.0
H285 H 0.90683 0.94853 0.62246 0.0
C286 C 0.79111 0.84185 0.6373 0.0
C287 C 0.77286 0.81241 0.6135 0.0
C288 C 0.78593 0.80387 0.56979 0.0
C289 C 0.81677 0.82424 0.54999 0.0
C290 C 0.83412 0.85321 0.57426 0.0
C291 C 0.82177 0.86198 0.617 0.0
C292 C 0.84514 0.89453 0.63577 0.0
C293 C 0.81936 0.92973 0.63337 0.0
C294 C 0.86711 0.88095 0.68985 0.0
C295 C 0.87254 0.90271 0.59695 0.0
C296 C 0.86578 0.87862 0.56177 0.0
C297 C 0.88767 0.88081 0.52243 0.0
C298 C 0.91735 0.90815 0.51917 0.0
C299 C 0.92495 0.93301 0.55507 0.0
C300 C 0.90192 0.93014 0.59424 0.0
H301 H 0.70101 0.27161 0.14375 0.0
H302 H 0.75841 0.31161 0.01281 0.0
H303 H 0.71968 0.37183 0.99292 0.0
H304 H 0.60776 0.30685 0.08428 0.0
H305 H 0.59451 0.32 0.14071 0.0
H306 H 0.62865 0.2815 0.14648 0.0
H307 H 0.67876 0.31629 0.20351 0.0
H308 H 0.64419 0.35444 0.19789 0.0
H309 H 0.69138 0.36549 0.18046 0.0
H310 H 0.67249 0.42572 0.98456 0.0
H311 H 0.61825 0.46882 0.98644 0.0
H312 H 0.59117 0.39407 0.12271 0.0
C313 C 0.70577 0.29337 0.11138 0.0
C314 C 0.7333 0.28749 0.08041 0.0
C315 C 0.738 0.31603 0.03751 0.0
C316 C 0.71617 0.35024 0.02599 0.0
C317 C 0.68954 0.35535 0.05755 0.0
C318 C 0.68411 0.32765 0.09925 0.0
C319 C 0.65202 0.33933 0.12522 0.0
C320 C 0.61877 0.31019 0.12406 0.0
C321 C 0.66754 0.3442 0.18002 0.0
C322 C 0.64002 0.37775 0.09135 0.0
C323 C 0.6622 0.38651 0.05269 0.0
C324 C 0.65525 0.41941 0.01498 0.0
C325 C 0.62445 0.44367 0.01631 0.0
C326 C 0.60116 0.43504 0.05518 0.0
C327 C 0.60934 0.4019 0.09348 0.0
H328 H 0.18131 0.92008 0.07751 0.0
H329 H 0.19462 0.79868 0.14484 0.0
H330 H 0.16491 0.81002 0.21796 0.0
H331 H 0.20113 0.95597 0.19819 0.0
H332 H 0.16608 0.99445 0.17685 0.0
H333 H 0.19054 0.97707 0.13146 0.0
H334 H 0.12446 0.96401 0.0799 0.0
H335 H 0.09982 0.98105 0.12529 0.0
H336 H 0.09006 0.93353 0.11126 0.0
H337 H 0.12816 0.83346 0.27938 0.0
H338 H 0.09115 0.8678 0.32778 0.0
H339 H 0.10561 0.97504 0.22363 0.0
C340 C 0.17832 0.89599 0.10795 0.0
C341 C 0.19042 0.85851 0.10564 0.0
C342 C 0.18608 0.82772 0.14619 0.0
C343 C 0.16903 0.83384 0.18772 0.0
C344 C 0.15687 0.87102 0.18846 0.0
C345 C 0.16176 0.90168 0.14999 0.0
C346 C 0.14558 0.93865 0.15961 0.0
C347 C 0.17776 0.96828 0.16698 0.0
C348 C 0.11305 0.95527 0.11645 0.0
C349 C 0.13005 0.9238 0.20888 0.0
C350 C 0.13681 0.88473 0.22483 0.0
C351 C 0.12337 0.86422 0.26784 0.0
C352 C 0.10255 0.88417 0.29537 0.0
C353 C 0.09556 0.92444 0.28023 0.0
C354 C 0.10993 0.94431 0.2364 0.0
H355 H 0.60482 0.65739 0.71503 0.0
H356 H 0.7224 0.66425 0.79187 0.0
H357 H 0.70224 0.63301 0.87311 0.0
H358 H 0.55739 0.67411 0.821 0.0
H359 H 0.51891 0.64087 0.80857 0.0
H360 H 0.54185 0.66629 0.75696 0.0
H361 H 0.55813 0.60133 0.7329 0.0
H362 H 0.53444 0.57644 0.78392 0.0
H363 H 0.5838 0.56453 0.7811 0.0
H364 H 0.67034 0.59833 0.94515 0.0
H365 H 0.62887 0.56231 1.00308 0.0
H366 H 0.53191 0.57622 0.8802 0.0
C367 C 0.62635 0.65239 0.74894 0.0
C368 C 0.66525 0.66351 0.74691 0.0
C369 C 0.69235 0.65669 0.7924 0.0
C370 C 0.68121 0.63873 0.83875 0.0
C371 C 0.64281 0.6278 0.83921 0.0
C372 C 0.61572 0.63448 0.7956 0.0
C373 C 0.5765 0.61903 0.8064 0.0
C374 C 0.54692 0.65205 0.79772 0.0
C375 C 0.56243 0.58848 0.77416 0.0
C376 C 0.5861 0.60137 0.86252 0.0
C377 C 0.6244 0.60737 0.88079 0.0
C378 C 0.64024 0.5938 0.93135 0.0
C379 C 0.61636 0.57363 0.96415 0.0
C380 C 0.57707 0.56699 0.94644 0.0
C381 C 0.56185 0.58089 0.89479 0.0
H382 H 0.8489 0.14798 0.22281 0.0
H383 H 0.95128 0.1859 0.1562 0.0
H384 H 0.9924 0.15546 0.23575 0.0
H385 H 0.88538 0.16014 0.35278 0.0
H386 H 0.86066 0.11745 0.37886 0.0
H387 H 0.84165 0.14482 0.31753 0.0
H388 H 0.84277 0.08085 0.2824 0.0
H389 H 0.86425 0.05523 0.34409 0.0
H390 H 0.88796 0.05551 0.28945 0.0
H391 H 0.02216 0.1195 0.32002 0.0
H392 H 0.03977 0.07952 0.40471 0.0
H393 H 0.91856 0.06478 0.41963 0.0
C394 C 0.87998 0.1501 0.22531 0.0
C395 C 0.89702 0.16934 0.18354 0.0
C396 C 0.93775 0.17109 0.18773 0.0
C397 C 0.96128 0.15403 0.23277 0.0
C398 C 0.94362 0.13515 0.27317 0.0
C399 C 0.90398 0.13283 0.2699 0.0
C400 C 0.89258 0.1097 0.31849 0.0
C401 C 0.86871 0.13459 0.34343 0.0
C402 C 0.87059 0.07316 0.30795 0.0
C403 C 0.93206 0.09975 0.34996 0.0
C404 C 0.96098 0.11466 0.32266 0.0
C405 C 0.99982 0.10799 0.34198 0.0
C406 C 1.00952 0.08519 0.3903 0.0
C407 C 0.98063 0.0694 0.41929 0.0
C408 C 0.9413 0.07711 0.3989 0.0
H409 H 0.41132 0.3545 0.52285 0.0
H410 H 0.28956 0.35938 0.53439 0.0
H411 H 0.30533 0.39085 0.60936 0.0
H412 H 0.44504 0.33332 0.65934 0.0
H413 H 0.48798 0.36196 0.65472 0.0
H414 H 0.46697 0.3396 0.60229 0.0
H415 H 0.4627 0.40619 0.542 0.0
H416 H 0.48346 0.42878 0.59431 0.0
H417 H 0.43752 0.44531 0.55757 0.0
H418 H 0.33412 0.42519 0.67966 0.0
H419 H 0.37398 0.4555 0.74462 0.0
H420 H 0.47754 0.42378 0.69135 0.0
C421 C 0.38806 0.36214 0.54134 0.0
C422 C 0.34923 0.35456 0.52299 0.0
C423 C 0.31951 0.36466 0.54824 0.0
C424 C 0.32817 0.3827 0.59061 0.0
C425 C 0.36673 0.39004 0.60756 0.0
C426 C 0.39624 0.37966 0.58414 0.0
C427 C 0.43526 0.39031 0.61045 0.0
C428 C 0.46028 0.35414 0.63305 0.0
C429 C 0.45594 0.41938 0.5739 0.0
C430 C 0.42304 0.40871 0.65191 0.0
C431 C 0.3834 0.40849 0.64935 0.0
C432 C 0.36526 0.425 0.68256 0.0
C433 C 0.38827 0.44193 0.71968 0.0
C434 C 0.42914 0.44184 0.72388 0.0
C435 C 0.44649 0.42488 0.68923 0.0
H436 H 0.62095 0.70865 0.52805 0.0
H437 H 0.7034 0.61507 0.58372 0.0
H438 H 0.6822 0.58777 0.50581 0.0
H439 H 0.54472 0.6514 0.47077 0.0
H440 H 0.52929 0.68955 0.41747 0.0
H441 H 0.55067 0.70104 0.47784 0.0
H442 H 0.60205 0.74266 0.43378 0.0
H443 H 0.5809 0.7312 0.37334 0.0
H444 H 0.63136 0.72137 0.39682 0.0
H445 H 0.65421 0.57305 0.41972 0.0
H446 H 0.62028 0.5703 0.33359 0.0
H447 H 0.55266 0.67129 0.33688 0.0
C448 C 0.63425 0.68231 0.52368 0.0
C449 C 0.6637 0.66375 0.56133 0.0
C450 C 0.68071 0.62942 0.55493 0.0
C451 C 0.66887 0.61383 0.51095 0.0
C452 C 0.63977 0.63285 0.47419 0.0
C453 C 0.62247 0.66617 0.48028 0.0
C454 C 0.59196 0.68102 0.43506 0.0
C455 C 0.55178 0.68072 0.45127 0.0
C456 C 0.6022 0.72145 0.40817 0.0
C457 C 0.5951 0.65114 0.40229 0.0
C458 C 0.62289 0.62368 0.42543 0.0
C459 C 0.63197 0.59409 0.40154 0.0
C460 C 0.61223 0.5926 0.35263 0.0
C461 C 0.58339 0.62036 0.3281 0.0
C462 C 0.5747 0.64976 0.35391 0.0
H463 H 0.81893 0.15261 0.98039 0.0
H464 H 0.92099 0.22314 0.99732 0.0
H465 H 0.93951 0.20684 0.91882 0.0
H466 H 0.86433 0.07696 0.94049 0.0
H467 H 0.823 0.067 0.89628 0.0
H468 H 0.81628 0.08688 0.951 0.0
H469 H 0.77715 0.14389 0.89205 0.0
H470 H 0.78373 0.12413 0.8371 0.0
H471 H 0.79838 0.17283 0.84117 0.0
H472 H 0.94704 0.18181 0.83912 0.0
H473 H 0.94487 0.14813 0.76665 0.0
H474 H 0.84039 0.08966 0.8064 0.0
C475 C 0.8448 0.16501 0.96688 0.0
C476 C 0.86837 0.18953 0.99398 0.0
C477 C 0.90251 0.20464 0.97636 0.0
C478 C 0.91317 0.19554 0.93198 0.0
C479 C 0.8895 0.17096 0.90613 0.0
C480 C 0.85612 0.15575 0.92307 0.0
C481 C 0.83698 0.12831 0.89006 0.0
C482 C 0.83506 0.08737 0.92133 0.0
C483 C 0.79667 0.14319 0.86352 0.0
C484 C 0.8649 0.13025 0.85214 0.0
C485 C 0.89474 0.15532 0.86166 0.0
C486 C 0.9239 0.16193 0.83148 0.0
C487 C 0.92258 0.14231 0.79059 0.0
C488 C 0.89258 0.11589 0.7805 0.0
C489 C 0.86345 0.11001 0.81207 0.0
H490 H 0.41328 0.33978 0.35788 0.0
H491 H 0.29791 0.38749 0.30837 0.0
H492 H 0.31965 0.4275 0.23247 0.0
H493 H 0.46564 0.42391 0.3202 0.0
H494 H 0.50263 0.4002 0.29739 0.0
H495 H 0.47793 0.37418 0.34679 0.0
H496 H 0.45798 0.32173 0.29232 0.0
H497 H 0.48306 0.3474 0.24303 0.0
H498 H 0.43278 0.33578 0.22823 0.0
H499 H 0.3553 0.46616 0.16651 0.0
H500 H 0.40033 0.49522 0.10862 0.0
H501 H 0.4917 0.41896 0.19696 0.0
C502 C 0.39263 0.3583 0.33051 0.0
C503 C 0.35394 0.36068 0.33846 0.0
C504 C 0.32755 0.38521 0.30237 0.0
C505 C 0.3397 0.40808 0.25943 0.0
C506 C 0.37819 0.40557 0.2529 0.0
C507 C 0.40412 0.38075 0.28685 0.0
C508 C 0.44372 0.38328 0.27044 0.0
C509 C 0.47428 0.39616 0.31114 0.0
C510 C 0.45504 0.34475 0.25776 0.0
C511 C 0.43629 0.41415 0.22284 0.0
C512 C 0.39833 0.4267 0.21356 0.0
C513 C 0.38489 0.45605 0.1729 0.0
C514 C 0.41067 0.47235 0.14018 0.0
C515 C 0.44924 0.45881 0.14764 0.0
C516 C 0.46229 0.42974 0.19007 0.0
H517 H 0.19328 0.92321 0.9009 0.0
H518 H 0.14155 0.80998 0.92341 0.0
H519 H 0.0965 0.82868 0.84264 0.0
H520 H 0.10744 0.97748 0.8472 0.0
H521 H 0.1293 0.01062 0.80068 0.0
H522 H 0.15812 0.98836 0.8596 0.0
H523 H 0.20555 0.96196 0.80933 0.0
H524 H 0.17701 0.9843 0.75019 0.0
H525 H 0.18722 0.93334 0.76228 0.0
H526 H 0.05558 0.86028 0.76245 0.0
H527 H 0.02427 0.90112 0.68297 0.0
H528 H 0.10388 0.99354 0.70945 0.0
C529 C 0.17258 0.90244 0.88834 0.0
C530 C 0.17057 0.8652 0.91782 0.0
C531 C 0.14333 0.83855 0.90083 0.0
C532 C 0.11769 0.84897 0.85527 0.0
C533 C 0.12002 0.88603 0.8271 0.0
C534 C 0.14705 0.91224 0.84248 0.0
C535 C 0.14363 0.94999 0.8045 0.0
C536 C 0.13405 0.98359 0.82951 0.0
C537 C 0.18055 0.95785 0.78014 0.0
C538 C 0.10994 0.94115 0.76605 0.0
C539 C 0.09681 0.90407 0.77996 0.0
C540 C 0.0658 0.88924 0.75095 0.0
C541 C 0.04824 0.91262 0.7059 0.0
C542 C 0.06194 0.95024 0.69001 0.0
C543 C 0.09278 0.96491 0.72092 0.0
loop_
_geom_bond_atom_site_label_1
_geom_bond_atom_site_label_2
_geom_bond_distance
_geom_bond_site_symmetry_2
_ccdc_geom_bond_type
H0 C7 0.929 . S
H1 C10 0.930 . S
H2 C12 0.929 . S
H3 C4 0.969 . S
C4 H3 0.969 . S
C4 O5 1.550 . S
C4 H6 0.973 . S
O5 C4 1.550 . S
O5 C11 1.412 . S
H6 C4 0.973 . S
C7 H0 0.929 . S
C7 C8 1.400 1_554 S
C7 C9 1.364 . S
C8 C7 1.400 1_556 S
C8 C12 1.377 . S
C9 C7 1.364 . S
C9 C10 1.374 . S
C10 H1 0.930 . S
C10 C9 1.374 . S
C10 C11 1.383 . S
C11 O5 1.412 . S
C11 C10 1.383 . S
C11 C12 1.394 1_554 S
C12 H2 0.929 . S
C12 C8 1.377 . S
C12 C11 1.394 1_556 S
H13 C20 0.929 . S
H14 C23 0.930 . S
H15 C25 0.929 . S
H16 C17 0.969 . S
C17 H16 0.969 . S
C17 O18 1.550 . S
C17 H19 0.973 . S
O18 C17 1.550 . S
O18 C24 1.412 . S
H19 C17 0.973 . S
C20 H13 0.929 . S
C20 C21 1.400 . S
C20 C22 1.364 . S
C21 C20 1.400 . S
C21 C25 1.377 . S
C22 C20 1.364 . S
C22 C23 1.374 . S
C23 H14 0.930 . S
C23 C22 1.374 . S
C23 C24 1.383 . S
C24 O18 1.412 . S
C24 C23 1.383 . S
C24 C25 1.394 . S
C25 H15 0.929 . S
C25 C21 1.377 . S
C25 C24 1.394 . S
H26 C33 0.929 . S
H27 C36 0.930 1_556 S
H28 C38 0.929 . S
H29 C30 0.969 . S
C30 H29 0.969 . S
C30 O31 1.550 . S
C30 H32 0.973 1_554 S
O31 C30 1.550 . S
O31 C37 1.412 . S
H32 C30 0.973 1_556 S
C33 H26 0.929 . S
C33 C34 1.400 . S
C33 C35 1.364 . S
C34 C33 1.400 . S
C34 C38 1.377 . S
C35 C33 1.364 . S
C35 C36 1.374 . S
C36 H27 0.930 1_554 S
C36 C35 1.374 . S
C36 C37 1.383 . S
C37 O31 1.412 . S
C37 C36 1.383 . S
C37 C38 1.394 . S
C38 H28 0.929 . S
C38 C34 1.377 . S
C38 C37 1.394 . S
H39 C46 0.929 . S
H40 C49 0.930 . S
H41 C51 0.929 . S
H42 C43 0.969 . S
C43 H42 0.969 . S
C43 O44 1.550 . S
C43 H45 0.973 . S
O44 C43 1.550 . S
O44 C50 1.412 . S
H45 C43 0.973 . S
C46 H39 0.929 . S
C46 C47 1.400 . S
C46 C48 1.364 . S
C47 C46 1.400 . S
C47 C51 1.377 . S
C48 C46 1.364 . S
C48 C49 1.374 . S
C49 H40 0.930 . S
C49 C48 1.374 . S
C49 C50 1.383 . S
C50 O44 1.412 . S
C50 C49 1.383 . S
C50 C51 1.394 . S
C51 H41 0.929 . S
C51 C47 1.377 . S
C51 C50 1.394 . S
C52 C54 1.422 . S
C52 C56 1.415 . S
C52 N58 1.369 . S
C53 C54 1.421 . S
C53 C55 1.417 . S
C53 C65 1.422 . S
C54 C52 1.422 . S
C54 C53 1.421 . S
C54 N64 1.359 . S
C55 C53 1.417 . S
C55 C57 1.329 . S
C55 H74 0.930 . S
C56 C52 1.415 . S
C56 C57 1.437 . S
C56 C60 1.413 . S
C57 C55 1.329 . S
C57 C56 1.437 . S
C57 H79 0.929 . S
N58 C52 1.369 . S
N58 C59 1.338 1_655 S
N58 Gd63 2.622 . S
C59 N58 1.338 1_455 S
C59 C61 1.378 . S
C59 H71 0.929 . S
C60 C56 1.413 . S
C60 C61 1.348 1_655 S
C60 H76 0.931 . S
C61 C59 1.378 . S
C61 C60 1.348 1_455 S
C61 H77 0.930 . S
Gd62 N82 2.622 . S
Gd62 N89 2.570 . S
Gd62 O96 2.353 1_465 S
Gd62 O97 2.468 . S
Gd62 O98 2.427 . S
Gd62 O100 2.388 1_455 S
Gd62 O101 2.386 . S
Gd62 O105 2.307 1_565 S
Gd62 C115 2.805 . S
Gd63 N58 2.622 . S
Gd63 N64 2.570 . S
Gd63 O95 2.386 . S
Gd63 O99 2.307 1_545 S
Gd63 O102 2.353 1_655 S
Gd63 O103 2.468 . S
Gd63 O104 2.427 . S
Gd63 O106 2.388 1_655 S
Gd63 C127 2.805 . S
N64 C54 1.359 . S
N64 Gd63 2.570 . S
N64 C66 1.343 . S
C65 C53 1.422 . S
C65 C67 1.321 . S
C65 H73 0.931 . S
C66 N64 1.343 . S
C66 C67 1.390 . S
C66 H68 0.931 . S
C67 C65 1.321 . S
C67 C66 1.390 . S
C67 H69 0.930 . S
H68 C66 0.931 . S
H69 C67 0.930 . S
H70 C93 0.931 . S
H71 C59 0.929 . S
H72 C94 0.930 . S
H73 C65 0.931 . S
H74 C55 0.930 . S
H75 C84 0.929 1_655 S
H76 C60 0.931 . S
H77 C61 0.930 . S
H78 C116 0.930 . S
H79 C57 0.929 . S
H80 C85 0.931 . S
H81 C86 0.930 1_655 S
N82 Gd62 2.622 . S
N82 C83 1.369 . S
N82 C84 1.338 . S
C83 N82 1.369 . S
C83 C87 1.415 . S
C83 C90 1.422 . S
C84 H75 0.929 1_455 S
C84 N82 1.338 . S
C84 C86 1.378 . S
C85 H80 0.931 . S
C85 C86 1.348 . S
C85 C87 1.413 . S
C86 H81 0.930 1_455 S
C86 C84 1.378 . S
C86 C85 1.348 . S
C87 C83 1.415 . S
C87 C85 1.413 . S
C87 C117 1.437 . S
H88 C117 0.929 . S
N89 Gd62 2.570 . S
N89 C90 1.359 . S
N89 C93 1.343 . S
C90 C83 1.422 . S
C90 N89 1.359 . S
C90 C92 1.421 . S
C91 C92 1.422 . S
C91 C94 1.321 . S
C91 H118 0.931 . S
C92 C90 1.421 . S
C92 C91 1.422 . S
C92 C116 1.417 . S
C93 H70 0.931 . S
C93 N89 1.343 . S
C93 C94 1.390 . S
C94 H72 0.930 . S
C94 C91 1.321 . S
C94 C93 1.390 . S
O95 Gd63 2.386 . S
O95 C107 1.265 . S
O96 Gd62 2.353 1_645 S
O96 C107 1.242 . S
O97 Gd62 2.468 . S
O97 C115 1.263 . S
O98 Gd62 2.427 . S
O98 C115 1.252 . S
O99 Gd63 2.307 1_565 S
O99 C108 1.261 . S
O100 Gd62 2.388 1_655 S
O100 C108 1.252 . S
O101 Gd62 2.386 . S
O101 C119 1.265 . S
O102 Gd63 2.353 1_455 S
O102 C119 1.242 1_545 S
O103 Gd63 2.468 . S
O103 C127 1.263 . S
O104 Gd63 2.427 . S
O104 C127 1.252 . S
O105 Gd62 2.307 1_545 S
O105 C120 1.261 . S
O106 Gd63 2.388 1_455 S
O106 C120 1.252 . S
C107 O95 1.265 . S
C107 O96 1.242 . S
C108 O99 1.261 . S
C108 O100 1.252 . S
C109 C112 1.394 . S
C109 C114 1.370 . S
C109 C115 1.500 . S
C110 C113 1.383 . S
C110 C114 1.395 . S
C111 C112 1.396 . S
C111 C113 1.365 . S
C111 H128 0.929 . S
C112 C109 1.394 . S
C112 C111 1.396 . S
C112 H129 0.930 . S
C113 C110 1.383 . S
C113 C111 1.365 . S
C113 H130 0.931 . S
C114 C109 1.370 . S
C114 C110 1.395 . S
C114 H131 0.930 . S
C115 Gd62 2.805 . S
C115 O97 1.263 . S
C115 O98 1.252 . S
C115 C109 1.500 . S
C116 H78 0.930 . S
C116 C92 1.417 . S
C116 C117 1.329 . S
C117 C87 1.437 . S
C117 H88 0.929 . S
C117 C116 1.329 . S
H118 C91 0.931 . S
C119 O101 1.265 . S
C119 O102 1.242 1_565 S
C120 O105 1.261 . S
C120 O106 1.252 . S
C121 C124 1.394 . S
C121 C126 1.370 . S
C121 C127 1.500 . S
C122 C125 1.383 . S
C122 C126 1.395 . S
C123 C124 1.396 . S
C123 C125 1.365 . S
C123 H132 0.929 . S
C124 C121 1.394 . S
C124 C123 1.396 . S
C124 H133 0.930 . S
C125 C122 1.383 . S
C125 C123 1.365 . S
C125 H134 0.931 . S
C126 C121 1.370 . S
C126 C122 1.395 . S
C126 H135 0.930 . S
C127 Gd63 2.805 . S
C127 O103 1.263 . S
C127 O104 1.252 . S
C127 C121 1.500 . S
H128 C111 0.929 . S
H129 C112 0.930 . S
H130 C113 0.931 . S
H131 C114 0.930 . S
H132 C123 0.929 . S
H133 C124 0.930 . S
H134 C125 0.931 . S
H135 C126 0.930 . S
C136 C138 1.422 . S
C136 C140 1.415 . S
C136 N142 1.369 . S
C137 C138 1.421 . S
C137 C139 1.417 . S
C137 C149 1.422 . S
C138 C136 1.422 . S
C138 C137 1.421 . S
C138 N148 1.359 . S
C139 C137 1.417 . S
C139 C141 1.329 . S
C139 H158 0.930 . S
C140 C136 1.415 . S
C140 C141 1.437 . S
C140 C144 1.413 . S
C141 C139 1.329 . S
C141 C140 1.437 . S
C141 H163 0.929 . S
N142 C136 1.369 . S
N142 C143 1.338 . S
N142 Gd147 2.622 . S
C143 N142 1.338 . S
C143 C145 1.378 . S
C143 H155 0.929 . S
C144 C140 1.413 . S
C144 C145 1.348 . S
C144 H160 0.931 . S
C145 C143 1.378 . S
C145 C144 1.348 . S
C145 H161 0.930 . S
Gd146 N166 2.622 . S
Gd146 N173 2.570 1_556 S
Gd146 O180 2.353 . S
Gd146 O181 2.468 . S
Gd146 O182 2.427 . S
Gd146 O184 2.388 1_556 S
Gd146 O185 2.386 1_556 S
Gd146 O189 2.307 1_556 S
Gd146 C199 2.805 . S
Gd147 N142 2.622 . S
Gd147 N148 2.570 . S
Gd147 O179 2.386 . S
Gd147 O183 2.307 . S
Gd147 O186 2.353 . S
Gd147 O187 2.468 . S
Gd147 O188 2.427 . S
Gd147 O190 2.388 . S
Gd147 C211 2.805 . S
N148 C138 1.359 . S
N148 Gd147 2.570 . S
N148 C150 1.343 . S
C149 C137 1.422 . S
C149 C151 1.321 . S
C149 H157 0.931 . S
C150 N148 1.343 . S
C150 C151 1.390 . S
C150 H152 0.931 . S
C151 C149 1.321 . S
C151 C150 1.390 . S
C151 H153 0.930 . S
H152 C150 0.931 . S
H153 C151 0.930 . S
H154 C177 0.931 . S
H155 C143 0.929 . S
H156 C178 0.930 . S
H157 C149 0.931 . S
H158 C139 0.930 . S
H159 C168 0.929 . S
H160 C144 0.931 . S
H161 C145 0.930 . S
H162 C200 0.930 . S
H163 C141 0.929 . S
H164 C169 0.931 . S
H165 C170 0.930 . S
N166 Gd146 2.622 . S
N166 C167 1.369 1_556 S
N166 C168 1.338 . S
C167 N166 1.369 1_554 S
C167 C171 1.415 . S
C167 C174 1.422 . S
C168 H159 0.929 . S
C168 N166 1.338 . S
C168 C170 1.378 . S
C169 H164 0.931 . S
C169 C170 1.348 1_554 S
C169 C171 1.413 . S
C170 H165 0.930 . S
C170 C168 1.378 . S
C170 C169 1.348 1_556 S
C171 C167 1.415 . S
C171 C169 1.413 . S
C171 C201 1.437 . S
H172 C201 0.929 . S
N173 Gd146 2.570 1_554 S
N173 C174 1.359 . S
N173 C177 1.343 . S
C174 C167 1.422 . S
C174 N173 1.359 . S
C174 C176 1.421 . S
C175 C176 1.422 . S
C175 C178 1.321 . S
C175 H202 0.931 . S
C176 C174 1.421 . S
C176 C175 1.422 . S
C176 C200 1.417 . S
C177 H154 0.931 . S
C177 N173 1.343 . S
C177 C178 1.390 . S
C178 H156 0.930 . S
C178 C175 1.321 . S
C178 C177 1.390 . S
O179 Gd147 2.386 . S
O179 C191 1.265 1_554 S
O180 Gd146 2.353 . S
O180 C191 1.242 . S
O181 Gd146 2.468 . S
O181 C199 1.263 . S
O182 Gd146 2.427 . S
O182 C199 1.252 . S
O183 Gd147 2.307 . S
O183 C192 1.261 . S
O184 Gd146 2.388 1_554 S
O184 C192 1.252 . S
O185 Gd146 2.386 1_554 S
O185 C203 1.265 . S
O186 Gd147 2.353 . S
O186 C203 1.242 . S
O187 Gd147 2.468 . S
O187 C211 1.263 . S
O188 Gd147 2.427 . S
O188 C211 1.252 . S
O189 Gd146 2.307 1_554 S
O189 C204 1.261 . S
O190 Gd147 2.388 . S
O190 C204 1.252 . S
C191 O179 1.265 1_556 S
C191 O180 1.242 . S
C192 O183 1.261 . S
C192 O184 1.252 . S
C193 C196 1.394 . S
C193 C198 1.370 . S
C193 C199 1.500 . S
C194 C197 1.383 . S
C194 C198 1.395 . S
C195 C196 1.396 . S
C195 C197 1.365 . S
C195 H212 0.929 . S
C196 C193 1.394 . S
C196 C195 1.396 . S
C196 H213 0.930 . S
C197 C194 1.383 . S
C197 C195 1.365 . S
C197 H214 0.931 . S
C198 C193 1.370 . S
C198 C194 1.395 . S
C198 H215 0.930 . S
C199 Gd146 2.805 . S
C199 O181 1.263 . S
C199 O182 1.252 . S
C199 C193 1.500 . S
C200 H162 0.930 . S
C200 C176 1.417 . S
C200 C201 1.329 . S
C201 C171 1.437 . S
C201 H172 0.929 . S
C201 C200 1.329 . S
H202 C175 0.931 . S
C203 O185 1.265 . S
C203 O186 1.242 . S
C204 O189 1.261 . S
C204 O190 1.252 . S
C205 C208 1.394 . S
C205 C210 1.370 . S
C205 C211 1.500 . S
C206 C209 1.383 . S
C206 C210 1.395 . S
C207 C208 1.396 . S
C207 C209 1.365 . S
C207 H216 0.929 . S
C208 C205 1.394 . S
C208 C207 1.396 . S
C208 H217 0.930 . S
C209 C206 1.383 . S
C209 C207 1.365 . S
C209 H218 0.931 . S
C210 C205 1.370 . S
C210 C206 1.395 . S
C210 H219 0.930 . S
C211 Gd147 2.805 . S
C211 O187 1.263 . S
C211 O188 1.252 . S
C211 C205 1.500 . S
H212 C195 0.929 . S
H213 C196 0.930 . S
H214 C197 0.931 . S
H215 C198 0.930 . S
H216 C207 0.929 . S
H217 C208 0.930 . S
H218 C209 0.931 . S
H219 C210 0.930 . S
H220 C232 0.930 . S
H221 C234 0.930 . S
H222 C235 0.930 . S
H223 C239 0.959 . S
H224 C239 0.959 . S
H225 C239 0.961 . S
H226 C240 0.960 . S
H227 C240 0.961 . S
H228 C240 0.959 . S
H229 C243 0.929 . S
H230 C244 0.931 . S
H231 C246 0.930 . S
C232 H220 0.930 . S
C232 C233 1.399 . S
C232 C237 1.399 . S
C233 C232 1.399 . S
C233 C234 1.376 . S
C234 H221 0.930 . S
C234 C233 1.376 . S
C234 C235 1.388 . S
C235 H222 0.930 . S
C235 C234 1.388 . S
C235 C236 1.390 . S
C236 C235 1.390 . S
C236 C237 1.394 . S
C236 C242 1.465 . S
C237 C232 1.399 . S
C237 C236 1.394 . S
C237 C238 1.516 . S
C238 C237 1.516 . S
C238 C239 1.502 . S
C238 C240 1.561 . S
C238 C241 1.526 . S
C239 H223 0.959 . S
C239 H224 0.959 . S
C239 H225 0.961 . S
C239 C238 1.502 . S
C240 H226 0.960 . S
C240 H227 0.961 . S
C240 H228 0.959 . S
C240 C238 1.561 . S
C241 C238 1.526 . S
C241 C242 1.396 . S
C241 C246 1.390 . S
C242 C236 1.465 . S
C242 C241 1.396 . S
C242 C243 1.399 . S
C243 H229 0.929 . S
C243 C242 1.399 . S
C243 C244 1.385 . S
C244 H230 0.931 . S
C244 C243 1.385 . S
C244 C245 1.389 . S
C245 C244 1.389 . S
C245 C246 1.387 . S
C246 H231 0.930 . S
C246 C241 1.390 . S
C246 C245 1.387 . S
H247 C259 0.930 . S
H248 C261 0.930 1_556 S
H249 C262 0.930 . S
H250 C266 0.959 . S
H251 C266 0.959 . S
H252 C266 0.961 . S
H253 C267 0.960 . S
H254 C267 0.961 . S
H255 C267 0.959 . S
H256 C270 0.929 . S
H257 C271 0.931 . S
H258 C273 0.930 . S
C259 H247 0.930 . S
C259 C260 1.399 . S
C259 C264 1.399 . S
C260 C259 1.399 . S
C260 C261 1.376 . S
C261 H248 0.930 1_554 S
C261 C260 1.376 . S
C261 C262 1.388 1_554 S
C262 H249 0.930 . S
C262 C261 1.388 1_556 S
C262 C263 1.390 1_556 S
C263 C262 1.390 1_554 S
C263 C264 1.394 . S
C263 C269 1.465 . S
C264 C259 1.399 . S
C264 C263 1.394 . S
C264 C265 1.516 . S
C265 C264 1.516 . S
C265 C266 1.502 . S
C265 C267 1.561 . S
C265 C268 1.526 . S
C266 H250 0.959 . S
C266 H251 0.959 . S
C266 H252 0.961 . S
C266 C265 1.502 . S
C267 H253 0.960 . S
C267 H254 0.961 . S
C267 H255 0.959 . S
C267 C265 1.561 . S
C268 C265 1.526 . S
C268 C269 1.396 . S
C268 C273 1.390 . S
C269 C263 1.465 . S
C269 C268 1.396 . S
C269 C270 1.399 1_554 S
C270 H256 0.929 . S
C270 C269 1.399 1_556 S
C270 C271 1.385 . S
C271 H257 0.931 . S
C271 C270 1.385 . S
C271 C272 1.389 1_556 S
C272 C271 1.389 1_554 S
C272 C273 1.387 . S
C273 H258 0.930 . S
C273 C268 1.390 . S
C273 C272 1.387 . S
H274 C286 0.930 . S
H275 C288 0.930 . S
H276 C289 0.930 . S
H277 C293 0.959 . S
H278 C293 0.959 . S
H279 C293 0.961 . S
H280 C294 0.960 . S
H281 C294 0.961 . S
H282 C294 0.959 . S
H283 C297 0.929 . S
H284 C298 0.931 . S
H285 C300 0.930 . S
C286 H274 0.930 . S
C286 C287 1.399 . S
C286 C291 1.399 . S
C287 C286 1.399 . S
C287 C288 1.376 . S
C288 H275 0.930 . S
C288 C287 1.376 . S
C288 C289 1.388 . S
C289 H276 0.930 . S
C289 C288 1.388 . S
C289 C290 1.390 . S
C290 C289 1.390 . S
C290 C291 1.394 . S
C290 C296 1.465 . S
C291 C286 1.399 . S
C291 C290 1.394 . S
C291 C292 1.516 . S
C292 C291 1.516 . S
C292 C293 1.502 . S
C292 C294 1.561 . S
C292 C295 1.526 . S
C293 H277 0.959 . S
C293 H278 0.959 . S
C293 H279 0.961 . S
C293 C292 1.502 . S
C294 H280 0.960 . S
C294 H281 0.961 . S
C294 H282 0.959 . S
C294 C292 1.561 . S
C295 C292 1.526 . S
C295 C296 1.396 . S
C295 C300 1.390 . S
C296 C290 1.465 . S
C296 C295 1.396 . S
C296 C297 1.399 . S
C297 H283 0.929 . S
C297 C296 1.399 . S
C297 C298 1.385 . S
C298 H284 0.931 . S
C298 C297 1.385 . S
C298 C299 1.389 . S
C299 C298 1.389 . S
C299 C300 1.387 . S
C300 H285 0.930 . S
C300 C295 1.390 . S
C300 C299 1.387 . S
H301 C313 0.930 . S
H302 C315 0.930 . S
H303 C316 0.930 . S
H304 C320 0.959 . S
H305 C320 0.959 . S
H306 C320 0.961 . S
H307 C321 0.960 . S
H308 C321 0.961 . S
H309 C321 0.959 . S
H310 C324 0.929 . S
H311 C325 0.931 . S
H312 C327 0.930 . S
C313 H301 0.930 . S
C313 C314 1.399 . S
C313 C318 1.399 . S
C314 C313 1.399 . S
C314 C315 1.376 1_554 S
C315 H302 0.930 . S
C315 C314 1.376 1_556 S
C315 C316 1.388 . S
C316 H303 0.930 . S
C316 C315 1.388 . S
C316 C317 1.390 1_556 S
C317 C316 1.390 1_554 S
C317 C318 1.394 . S
C317 C323 1.465 . S
C318 C313 1.399 . S
C318 C317 1.394 . S
C318 C319 1.516 . S
C319 C318 1.516 . S
C319 C320 1.502 . S
C319 C321 1.561 . S
C319 C322 1.526 . S
C320 H304 0.959 . S
C320 H305 0.959 . S
C320 H306 0.961 . S
C320 C319 1.502 . S
C321 H307 0.960 . S
C321 H308 0.961 . S
C321 H309 0.959 . S
C321 C319 1.561 . S
C322 C319 1.526 . S
C322 C323 1.396 . S
C322 C327 1.390 . S
C323 C317 1.465 . S
C323 C322 1.396 . S
C323 C324 1.399 1_554 S
C324 H310 0.929 . S
C324 C323 1.399 1_556 S
C324 C325 1.385 . S
C325 H311 0.931 . S
C325 C324 1.385 . S
C325 C326 1.389 1_556 S
C326 C325 1.389 1_554 S
C326 C327 1.387 . S
C327 H312 0.930 . S
C327 C322 1.390 . S
C327 C326 1.387 . S
H328 C340 0.930 . S
H329 C342 0.930 . S
H330 C343 0.930 . S
H331 C347 0.959 . S
H332 C347 0.959 . S
H333 C347 0.961 . S
H334 C348 0.960 . S
H335 C348 0.961 1_545 S
H336 C348 0.959 . S
H337 C351 0.929 . S
H338 C352 0.931 . S
H339 C354 0.930 . S
C340 H328 0.930 . S
C340 C341 1.399 . S
C340 C345 1.399 . S
C341 C340 1.399 . S
C341 C342 1.376 . S
C342 H329 0.930 . S
C342 C341 1.376 . S
C342 C343 1.388 . S
C343 H330 0.930 . S
C343 C342 1.388 . S
C343 C344 1.390 . S
C344 C343 1.390 . S
C344 C345 1.394 . S
C344 C350 1.465 . S
C345 C340 1.399 . S
C345 C344 1.394 . S
C345 C346 1.516 . S
C346 C345 1.516 . S
C346 C347 1.502 . S
C346 C348 1.561 . S
C346 C349 1.526 . S
C347 H331 0.959 . S
C347 H332 0.959 . S
C347 H333 0.961 . S
C347 C346 1.502 . S
C348 H334 0.960 . S
C348 H335 0.961 1_565 S
C348 H336 0.959 . S
C348 C346 1.561 . S
C349 C346 1.526 . S
C349 C350 1.396 . S
C349 C354 1.390 . S
C350 C344 1.465 . S
C350 C349 1.396 . S
C350 C351 1.399 . S
C351 H337 0.929 . S
C351 C350 1.399 . S
C351 C352 1.385 . S
C352 H338 0.931 . S
C352 C351 1.385 . S
C352 C353 1.389 . S
C353 C352 1.389 . S
C353 C354 1.387 . S
C354 H339 0.930 . S
C354 C349 1.390 . S
C354 C353 1.387 . S
H355 C367 0.930 . S
H356 C369 0.930 . S
H357 C370 0.930 . S
H358 C374 0.959 . S
H359 C374 0.959 . S
H360 C374 0.961 . S
H361 C375 0.960 . S
H362 C375 0.961 . S
H363 C375 0.959 . S
H364 C378 0.929 . S
H365 C379 0.931 . S
H366 C381 0.930 . S
C367 H355 0.930 . S
C367 C368 1.399 . S
C367 C372 1.399 . S
C368 C367 1.399 . S
C368 C369 1.376 . S
C369 H356 0.930 . S
C369 C368 1.376 . S
C369 C370 1.388 . S
C370 H357 0.930 . S
C370 C369 1.388 . S
C370 C371 1.390 . S
C371 C370 1.390 . S
C371 C372 1.394 . S
C371 C377 1.465 . S
C372 C367 1.399 . S
C372 C371 1.394 . S
C372 C373 1.516 . S
C373 C372 1.516 . S
C373 C374 1.502 . S
C373 C375 1.561 . S
C373 C376 1.526 . S
C374 H358 0.959 . S
C374 H359 0.959 . S
C374 H360 0.961 . S
C374 C373 1.502 . S
C375 H361 0.960 . S
C375 H362 0.961 . S
C375 H363 0.959 . S
C375 C373 1.561 . S
C376 C373 1.526 . S
C376 C377 1.396 . S
C376 C381 1.390 . S
C377 C371 1.465 . S
C377 C376 1.396 . S
C377 C378 1.399 . S
C378 H364 0.929 . S
C378 C377 1.399 . S
C378 C379 1.385 . S
C379 H365 0.931 . S
C379 C378 1.385 . S
C379 C380 1.389 . S
C380 C379 1.389 . S
C380 C381 1.387 . S
C381 H366 0.930 . S
C381 C376 1.390 . S
C381 C380 1.387 . S
H382 C394 0.930 . S
H383 C396 0.930 . S
H384 C397 0.930 . S
H385 C401 0.959 . S
H386 C401 0.959 . S
H387 C401 0.961 . S
H388 C402 0.960 . S
H389 C402 0.961 . S
H390 C402 0.959 . S
H391 C405 0.929 . S
H392 C406 0.931 . S
H393 C408 0.930 . S
C394 H382 0.930 . S
C394 C395 1.399 . S
C394 C399 1.399 . S
C395 C394 1.399 . S
C395 C396 1.376 . S
C396 H383 0.930 . S
C396 C395 1.376 . S
C396 C397 1.388 . S
C397 H384 0.930 . S
C397 C396 1.388 . S
C397 C398 1.390 . S
C398 C397 1.390 . S
C398 C399 1.394 . S
C398 C404 1.465 . S
C399 C394 1.399 . S
C399 C398 1.394 . S
C399 C400 1.516 . S
C400 C399 1.516 . S
C400 C401 1.502 . S
C400 C402 1.561 . S
C400 C403 1.526 . S
C401 H385 0.959 . S
C401 H386 0.959 . S
C401 H387 0.961 . S
C401 C400 1.502 . S
C402 H388 0.960 . S
C402 H389 0.961 . S
C402 H390 0.959 . S
C402 C400 1.561 . S
C403 C400 1.526 . S
C403 C404 1.396 . S
C403 C408 1.390 . S
C404 C398 1.465 . S
C404 C403 1.396 . S
C404 C405 1.399 . S
C405 H391 0.929 . S
C405 C404 1.399 . S
C405 C406 1.385 . S
C406 H392 0.931 . S
C406 C405 1.385 . S
C406 C407 1.389 . S
C407 C406 1.389 . S
C407 C408 1.387 . S
C408 H393 0.930 . S
C408 C403 1.390 . S
C408 C407 1.387 . S
H409 C421 0.930 . S
H410 C423 0.930 . S
H411 C424 0.930 . S
H412 C428 0.959 . S
H413 C428 0.959 . S
H414 C428 0.961 . S
H415 C429 0.960 . S
H416 C429 0.961 . S
H417 C429 0.959 . S
H418 C432 0.929 . S
H419 C433 0.931 . S
H420 C435 0.930 . S
C421 H409 0.930 . S
C421 C422 1.399 . S
C421 C426 1.399 . S
C422 C421 1.399 . S
C422 C423 1.376 . S
C423 H410 0.930 . S
C423 C422 1.376 . S
C423 C424 1.388 . S
C424 H411 0.930 . S
C424 C423 1.388 . S
C424 C425 1.390 . S
C425 C424 1.390 . S
C425 C426 1.394 . S
C425 C431 1.465 . S
C426 C421 1.399 . S
C426 C425 1.394 . S
C426 C427 1.516 . S
C427 C426 1.516 . S
C427 C428 1.502 . S
C427 C429 1.561 . S
C427 C430 1.526 . S
C428 H412 0.959 . S
C428 H413 0.959 . S
C428 H414 0.961 . S
C428 C427 1.502 . S
C429 H415 0.960 . S
C429 H416 0.961 . S
C429 H417 0.959 . S
C429 C427 1.561 . S
C430 C427 1.526 . S
C430 C431 1.396 . S
C430 C435 1.390 . S
C431 C425 1.465 . S
C431 C430 1.396 . S
C431 C432 1.399 . S
C432 H418 0.929 . S
C432 C431 1.399 . S
C432 C433 1.385 . S
C433 H419 0.931 . S
C433 C432 1.385 . S
C433 C434 1.389 . S
C434 C433 1.389 . S
C434 C435 1.387 . S
C435 H420 0.930 . S
C435 C430 1.390 . S
C435 C434 1.387 . S
H436 C448 0.930 . S
H437 C450 0.930 . S
H438 C451 0.930 . S
H439 C455 0.959 . S
H440 C455 0.959 . S
H441 C455 0.961 . S
H442 C456 0.960 . S
H443 C456 0.961 . S
H444 C456 0.959 . S
H445 C459 0.929 . S
H446 C460 0.931 . S
H447 C462 0.930 . S
C448 H436 0.930 . S
C448 C449 1.399 . S
C448 C453 1.399 . S
C449 C448 1.399 . S
C449 C450 1.376 . S
C450 H437 0.930 . S
C450 C449 1.376 . S
C450 C451 1.388 . S
C451 H438 0.930 . S
C451 C450 1.388 . S
C451 C452 1.390 . S
C452 C451 1.390 . S
C452 C453 1.394 . S
C452 C458 1.465 . S
C453 C448 1.399 . S
C453 C452 1.394 . S
C453 C454 1.516 . S
C454 C453 1.516 . S
C454 C455 1.502 . S
C454 C456 1.561 . S
C454 C457 1.526 . S
C455 H439 0.959 . S
C455 H440 0.959 . S
C455 H441 0.961 . S
C455 C454 1.502 . S
C456 H442 0.960 . S
C456 H443 0.961 . S
C456 H444 0.959 . S
C456 C454 1.561 . S
C457 C454 1.526 . S
C457 C458 1.396 . S
C457 C462 1.390 . S
C458 C452 1.465 . S
C458 C457 1.396 . S
C458 C459 1.399 . S
C459 H445 0.929 . S
C459 C458 1.399 . S
C459 C460 1.385 . S
C460 H446 0.931 . S
C460 C459 1.385 . S
C460 C461 1.389 . S
C461 C460 1.389 . S
C461 C462 1.387 . S
C462 H447 0.930 . S
C462 C457 1.390 . S
C462 C461 1.387 . S
H463 C475 0.930 . S
H464 C477 0.930 . S
H465 C478 0.930 . S
H466 C482 0.959 . S
H467 C482 0.959 . S
H468 C482 0.961 . S
H469 C483 0.960 . S
H470 C483 0.961 . S
H471 C483 0.959 . S
H472 C486 0.929 . S
H473 C487 0.931 . S
H474 C489 0.930 . S
C475 H463 0.930 . S
C475 C476 1.399 . S
C475 C480 1.399 . S
C476 C475 1.399 . S
C476 C477 1.376 . S
C477 H464 0.930 . S
C477 C476 1.376 . S
C477 C478 1.388 . S
C478 H465 0.930 . S
C478 C477 1.388 . S
C478 C479 1.390 . S
C479 C478 1.390 . S
C479 C480 1.394 . S
C479 C485 1.465 . S
C480 C475 1.399 . S
C480 C479 1.394 . S
C480 C481 1.516 . S
C481 C480 1.516 . S
C481 C482 1.502 . S
C481 C483 1.561 . S
C481 C484 1.526 . S
C482 H466 0.959 . S
C482 H467 0.959 . S
C482 H468 0.961 . S
C482 C481 1.502 . S
C483 H469 0.960 . S
C483 H470 0.961 . S
C483 H471 0.959 . S
C483 C481 1.561 . S
C484 C481 1.526 . S
C484 C485 1.396 . S
C484 C489 1.390 . S
C485 C479 1.465 . S
C485 C484 1.396 . S
C485 C486 1.399 . S
C486 H472 0.929 . S
C486 C485 1.399 . S
C486 C487 1.385 . S
C487 H473 0.931 . S
C487 C486 1.385 . S
C487 C488 1.389 . S
C488 C487 1.389 . S
C488 C489 1.387 . S
C489 H474 0.930 . S
C489 C484 1.390 . S
C489 C488 1.387 . S
H490 C502 0.930 . S
H491 C504 0.930 . S
H492 C505 0.930 . S
H493 C509 0.959 . S
H494 C509 0.959 . S
H495 C509 0.961 . S
H496 C510 0.960 . S
H497 C510 0.961 . S
H498 C510 0.959 . S
H499 C513 0.929 . S
H500 C514 0.931 . S
H501 C516 0.930 . S
C502 H490 0.930 . S
C502 C503 1.399 . S
C502 C507 1.399 . S
C503 C502 1.399 . S
C503 C504 1.376 . S
C504 H491 0.930 . S
C504 C503 1.376 . S
C504 C505 1.388 . S
C505 H492 0.930 . S
C505 C504 1.388 . S
C505 C506 1.390 . S
C506 C505 1.390 . S
C506 C507 1.394 . S
C506 C512 1.465 . S
C507 C502 1.399 . S
C507 C506 1.394 . S
C507 C508 1.516 . S
C508 C507 1.516 . S
C508 C509 1.502 . S
C508 C510 1.561 . S
C508 C511 1.526 . S
C509 H493 0.959 . S
C509 H494 0.959 . S
C509 H495 0.961 . S
C509 C508 1.502 . S
C510 H496 0.960 . S
C510 H497 0.961 . S
C510 H498 0.959 . S
C510 C508 1.561 . S
C511 C508 1.526 . S
C511 C512 1.396 . S
C511 C516 1.390 . S
C512 C506 1.465 . S
C512 C511 1.396 . S
C512 C513 1.399 . S
C513 H499 0.929 . S
C513 C512 1.399 . S
C513 C514 1.385 . S
C514 H500 0.931 . S
C514 C513 1.385 . S
C514 C515 1.389 . S
C515 C514 1.389 . S
C515 C516 1.387 . S
C516 H501 0.930 . S
C516 C511 1.390 . S
C516 C515 1.387 . S
H517 C529 0.930 . S
H518 C531 0.930 . S
H519 C532 0.930 . S
H520 C536 0.959 . S
H521 C536 0.959 1_545 S
H522 C536 0.961 . S
H523 C537 0.960 . S
H524 C537 0.961 . S
H525 C537 0.959 1_565 S
H526 C540 0.929 . S
H527 C541 0.931 . S
H528 C543 0.930 1_545 S
C529 H517 0.930 . S
C529 C530 1.399 . S
C529 C534 1.399 . S
C530 C529 1.399 . S
C530 C531 1.376 . S
C531 H518 0.930 . S
C531 C530 1.376 . S
C531 C532 1.388 . S
C532 H519 0.930 . S
C532 C531 1.388 . S
C532 C533 1.390 . S
C533 C532 1.390 . S
C533 C534 1.394 . S
C533 C539 1.465 . S
C534 C529 1.399 . S
C534 C533 1.394 . S
C534 C535 1.516 . S
C535 C534 1.516 . S
C535 C536 1.502 . S
C535 C537 1.561 1_565 S
C535 C538 1.526 . S
C536 H520 0.959 . S
C536 H521 0.959 1_565 S
C536 H522 0.961 . S
C536 C535 1.502 . S
C537 H523 0.960 . S
C537 H524 0.961 . S
C537 H525 0.959 1_545 S
C537 C535 1.561 1_545 S
C538 C535 1.526 . S
C538 C539 1.396 . S
C538 C543 1.390 . S
C539 C533 1.465 . S
C539 C538 1.396 . S
C539 C540 1.399 . S
C540 H526 0.929 . S
C540 C539 1.399 . S
C540 C541 1.385 . S
C541 H527 0.931 . S
C541 C540 1.385 . S
C541 C542 1.389 . S
C542 C541 1.389 . S
C542 C543 1.387 . S
C543 H528 0.930 1_565 S
C543 C538 1.390 . S
C543 C542 1.387 . S
C245 C120 1.627 . S
C233 C43 1.561 . S
C260 C4 1.582 . S
C272 C192 1.613 . S
C287 C17 1.561 . S
C299 C108 1.621 . S
C314 C30 1.628 . S
C326 C204 1.648 . S
C353 C110 1.337 . S
C341 C9 1.555 . S
C380 C191 1.656 . S
C368 C21 1.653 . S
C395 C34 1.619 . S
C407 C107 1.621 . S
C422 C48 1.580 . S
C434 C194 1.373 . S
C461 C206 1.357 . S
C449 C22 1.569 . S
C488 C122 1.337 . S
C476 C35 1.571 1_556 S
C515 C203 1.664 . S
C503 C47 1.641 . S
C530 C8 1.603 . S
C542 C119 1.617 . S
