# Generated by pormake.
# Topology zzz, (3,6)-cn, num edge types: 1
# Building blocks:
#     Node 0, Type 0, BuildingBlock: CUQRIR_clean_linker_1, # of connection points: 3
#     Node 1, Type 0, BuildingBlock: CUQRIR_clean_linker_1, # of connection points: 3
#     Node 2, Type 0, BuildingBlock: CUQRIR_clean_linker_1, # of connection points: 3
#     Node 3, Type 0, BuildingBlock: CUQRIR_clean_linker_1, # of connection points: 3
#     Node 4, Type 0, BuildingBlock: CUQRIR_clean_linker_1, # of connection points: 3
#     Node 5, Type 0, BuildingBlock: CUQRIR_clean_linker_1, # of connection points: 3
#     Node 6, Type 0, BuildingBlock: CUQRIR_clean_linker_1, # of connection points: 3
#     Node 7, Type 0, BuildingBlock: CUQRIR_clean_linker_1, # of connection points: 3
#     Node 8, Type 1, BuildingBlock: BETDEL_clean_sbu_0, # of connection points: 6
#     Node 9, Type 1, BuildingBlock: BETDEL_clean_sbu_0, # of connection points: 6
#     Node 10, Type 1, BuildingBlock: BETDEL_clean_sbu_0, # of connection points: 6
#     Node 11, Type 1, BuildingBlock: BETDEL_clean_sbu_0, # of connection points: 6
#     Edge 12, Type (0, 1), BuildingBlock: UVAHIK_clean_linker_0, # of connection points: 2
#     Edge 13, Type (0, 1), BuildingBlock: UVAHIK_clean_linker_0, # of connection points: 2
#     Edge 14, Type (0, 1), BuildingBlock: UVAHIK_clean_linker_0, # of connection points: 2
#     Edge 15, Type (0, 1), BuildingBlock: UVAHIK_clean_linker_0, # of connection points: 2
#     Edge 16, Type (0, 1), BuildingBlock: UVAHIK_clean_linker_0, # of connection points: 2
#     Edge 17, Type (0, 1), BuildingBlock: UVAHIK_clean_linker_0, # of connection points: 2
#     Edge 18, Type (0, 1), BuildingBlock: UVAHIK_clean_linker_0, # of connection points: 2
#     Edge 19, Type (0, 1), BuildingBlock: UVAHIK_clean_linker_0, # of connection points: 2
#     Edge 20, Type (0, 1), BuildingBlock: UVAHIK_clean_linker_0, # of connection points: 2
#     Edge 21, Type (0, 1), BuildingBlock: UVAHIK_clean_linker_0, # of connection points: 2
#     Edge 22, Type (0, 1), BuildingBlock: UVAHIK_clean_linker_0, # of connection points: 2
#     Edge 23, Type (0, 1), BuildingBlock: UVAHIK_clean_linker_0, # of connection points: 2
#     Edge 24, Type (0, 1), BuildingBlock: UVAHIK_clean_linker_0, # of connection points: 2
#     Edge 25, Type (0, 1), BuildingBlock: UVAHIK_clean_linker_0, # of connection points: 2
#     Edge 26, Type (0, 1), BuildingBlock: UVAHIK_clean_linker_0, # of connection points: 2
#     Edge 27, Type (0, 1), BuildingBlock: UVAHIK_clean_linker_0, # of connection points: 2
#     Edge 28, Type (0, 1), BuildingBlock: UVAHIK_clean_linker_0, # of connection points: 2
#     Edge 29, Type (0, 1), BuildingBlock: UVAHIK_clean_linker_0, # of connection points: 2
#     Edge 30, Type (0, 1), BuildingBlock: UVAHIK_clean_linker_0, # of connection points: 2
#     Edge 31, Type (0, 1), BuildingBlock: UVAHIK_clean_linker_0, # of connection points: 2
#     Edge 32, Type (0, 1), BuildingBlock: UVAHIK_clean_linker_0, # of connection points: 2
#     Edge 33, Type (0, 1), BuildingBlock: UVAHIK_clean_linker_0, # of connection points: 2
#     Edge 34, Type (0, 1), BuildingBlock: UVAHIK_clean_linker_0, # of connection points: 2
#     Edge 35, Type (0, 1), BuildingBlock: UVAHIK_clean_linker_0, # of connection points: 2
# Relax obj value: 0.161
# Max RMSD: 0.187
# Mean RMSD: 0.116
data_MOF--net-zzz--node1-BETDEL_clean_sbu_0--node2-CUQRIR_clean_linker_1--edge1-UVAHIK_clean_linker_0
_symmetry_space_group_name_H-M    P1
_symmetry_Int_Tables_number       1
_symmetry_cell_setting            triclinic
loop_
_symmetry_equiv_pos_as_xyz
'x, y, z'
_cell_length_a     61.314921
_cell_length_b     62.644094
_cell_length_c     17.469532
_cell_angle_alpha  91.639959
_cell_angle_beta   88.362211
_cell_angle_gamma 95.066299
loop_
_atom_site_label
_atom_site_type_symbol
_atom_site_fract_x
_atom_site_fract_y
_atom_site_fract_z
_atom_type_partial_charge
C0 C 0.735 0.51813 0.16268 0.0
N1 N 0.75587 0.51277 0.16709 0.0
N2 N 0.72805 0.51556 0.08942 0.0
C3 C 0.72153 0.52602 0.22885 0.0
C4 C 0.74544 0.50839 0.05003 0.0
N5 N 0.76219 0.50674 0.09716 0.0
C6 C 0.74622 0.50333 0.96537 0.0
H7 H 0.71056 0.5124 0.25082 0.0
H8 H 0.71114 0.5384 0.20986 0.0
H9 H 0.73208 0.53263 0.27596 0.0
H10 H 0.75166 0.51818 0.93457 0.0
H11 H 0.72977 0.49727 0.94512 0.0
H12 H 0.758 0.49127 0.9511 0.0
C13 C 0.9922 0.73489 0.1342 0.0
N14 N 0.99064 0.75632 0.13829 0.0
N15 N 0.99417 0.72811 0.06002 0.0
C16 C 0.99347 0.72088 0.20189 0.0
C17 C 0.99382 0.7462 0.01959 0.0
N18 N 0.99169 0.76327 0.06711 0.0
C19 C 0.99527 0.74719 0.93367 0.0
H20 H 0.99663 0.73051 0.25532 0.0
H21 H 0.00651 0.70984 0.19168 0.0
H22 H 0.97768 0.71094 0.20897 0.0
H23 H 0.98815 0.73197 0.90688 0.0
H24 H 0.01274 0.74976 0.91514 0.0
H25 H 0.98664 0.76073 0.91345 0.0
C26 C 0.76945 0.98452 0.17365 0.0
N27 N 0.74758 0.98501 0.16549 0.0
N28 N 0.78013 0.98713 0.10488 0.0
C29 C 0.78033 0.98298 0.2488 0.0
C30 C 0.76394 0.98911 0.05513 0.0
N31 N 0.74426 0.98779 0.09192 0.0
C32 C 0.76748 0.9937 0.97139 0.0
H33 H 0.78281 0.99926 0.27555 0.0
H34 H 0.79652 0.97651 0.24069 0.0
H35 H 0.76976 0.97272 0.28815 0.0
H36 H 0.78272 0.98726 0.94856 0.0
H37 H 0.76891 0.01131 0.96416 0.0
H38 H 0.75343 0.98666 0.93772 0.0
C39 C 0.51305 0.77132 0.17501 0.0
N40 N 0.50944 0.74963 0.17388 0.0
N41 N 0.50862 0.77913 0.1059 0.0
C42 C 0.52274 0.7847 0.24017 0.0
C43 C 0.50223 0.76146 0.06312 0.0
N44 N 0.50264 0.74365 0.10441 0.0
C45 C 0.49589 0.76157 0.98065 0.0
H46 H 0.51205 0.79766 0.2555 0.0
H47 H 0.53892 0.79245 0.22155 0.0
H48 H 0.52472 0.77497 0.29116 0.0
H49 H 0.51081 0.76081 0.94358 0.0
H50 H 0.48832 0.77651 0.96832 0.0
H51 H 0.48432 0.74747 0.96645 0.0
C52 C 0.27403 0.50205 0.9926 0.0
N53 N 0.252 0.49819 0.98721 0.0
N54 N 0.28013 0.49986 0.06607 0.0
C55 C 0.28946 0.50828 0.9273 0.0
C56 C 0.26099 0.49453 0.10458 0.0
N57 N 0.24407 0.49355 0.05671 0.0
C58 C 0.25875 0.49062 0.18908 0.0
H59 H 0.29723 0.49387 0.90572 0.0
H60 H 0.30263 0.52029 0.94716 0.0
H61 H 0.28069 0.51479 0.87969 0.0
H62 H 0.25679 0.50609 0.21999 0.0
H63 H 0.27355 0.4839 0.21013 0.0
H64 H 0.2441 0.47952 0.20223 0.0
C65 C 0.0132 0.26558 0.02664 0.0
N66 N 0.00772 0.2443 0.01695 0.0
N67 N 0.0085 0.27197 0.09967 0.0
C68 C 0.02396 0.27991 0.96652 0.0
C69 C 1.00008 0.25376 0.1337 0.0
N70 N 0.99956 0.23704 0.0833 0.0
C71 C 0.99302 0.2521 0.21654 0.0
H72 H 0.03706 0.29098 0.99215 0.0
H73 H 0.01157 0.28976 0.94375 0.0
H74 H 0.0309 0.27052 0.91837 0.0
H75 H 0.98708 0.26738 0.23871 0.0
H76 H 0.00723 0.24852 0.25042 0.0
H77 H 0.97992 0.23888 0.2242 0.0
C78 C 0.24165 0.02023 0.99074 0.0
N79 N 0.26229 0.01408 0.99145 0.0
N80 N 0.23015 0.01351 0.05453 0.0
C81 C 0.23252 0.03196 0.92696 0.0
C82 C 0.24461 0.00326 0.094 0.0
N83 N 0.264 0.0035 0.05545 0.0
C84 C 0.24027 0.99439 0.1727 0.0
H85 H 0.21458 0.02797 0.92336 0.0
H86 H 0.24067 0.02807 0.87141 0.0
H87 H 0.23562 0.04945 0.93863 0.0
H88 H 0.23404 0.97726 0.16693 0.0
H89 H 0.2278 0.00312 0.20483 0.0
H90 H 0.2555 0.99543 0.20587 0.0
C91 C 0.48847 0.23833 0.98347 0.0
N92 N 0.49306 0.25988 0.98145 0.0
N93 N 0.49107 0.23129 0.05528 0.0
C94 C 0.48171 0.22421 0.91598 0.0
C95 C 0.49752 0.24932 0.09632 0.0
N96 N 0.49868 0.26657 0.05147 0.0
C97 C 0.50237 0.25003 0.18034 0.0
H98 H 0.47045 0.21037 0.93465 0.0
H99 H 0.49652 0.21792 0.88894 0.0
H100 H 0.47373 0.23331 0.87273 0.0
H101 H 0.51005 0.23543 0.19611 0.0
H102 H 0.48676 0.25057 0.21379 0.0
H103 H 0.51327 0.26442 0.19637 0.0
Dy104 Dy 0.01329 0.99238 0.64693 0.0
C105 C 0.99435 0.03191 0.35908 0.0
C106 C 0.01813 0.96945 0.77418 0.0
Dy107 Dy 0.99458 0.01142 0.4939 0.0
O108 O 0.03096 0.96954 0.71362 0.0
O109 O 1.00287 0.98229 0.76581 0.0
O110 O 0.04695 0.0066 0.61202 0.0
O111 O 0.02393 0.99714 0.52796 0.0
C112 C 0.04273 0.00638 0.53925 0.0
C113 C 0.96421 0.00653 0.60915 0.0
O114 O 0.99324 0.97652 0.46068 0.0
O115 O 0.99937 0.96304 0.58146 0.0
O116 O 0.97836 0.01871 0.38481 0.0
O117 O 0.01044 0.03347 0.40637 0.0
O118 O 0.96028 0.01538 0.54498 0.0
O119 O 0.98336 1.00119 0.60374 0.0
O120 O 0.01095 0.02656 0.68395 0.0
O121 O 0.00798 0.04039 0.56196 0.0
C122 C 0.99424 0.96034 0.50799 0.0
C123 C 0.01095 0.04288 0.63693 0.0
Dy124 Dy 0.48993 0.99019 0.51833 0.0
C125 C 0.55347 0.03369 0.71483 0.0
C126 C 0.45506 0.97374 0.43559 0.0
Dy127 Dy 0.51933 0.01802 0.62719 0.0
O128 O 0.47528 0.97518 0.41057 0.0
O129 O 0.45402 0.9811 0.50558 0.0
O130 O 0.51822 0.97156 0.48072 0.0
O131 O 0.52378 0.00415 0.51295 0.0
C132 C 0.53292 0.98744 0.49395 0.0
C133 C 0.47636 0.02059 0.65163 0.0
O134 O 0.51676 0.04238 0.53797 0.0
O135 O 0.48854 0.02335 0.47209 0.0
O136 O 0.5339 0.02777 0.74097 0.0
O137 O 0.55417 0.0315 0.64078 0.0
O138 O 0.49096 0.03653 0.66516 0.0
O139 O 0.48567 0.00397 0.63278 0.0
O140 O 0.49179 0.9664 0.60998 0.0
O141 O 0.52178 0.98446 0.66866 0.0
C142 C 0.50175 0.04104 0.48449 0.0
C143 C 0.50765 0.96726 0.66024 0.0
Dy144 Dy 0.49628 0.51401 0.66053 0.0
C145 C 0.52118 0.47322 0.3686 0.0
C146 C 0.50029 0.53495 0.79814 0.0
Dy147 Dy 0.51397 0.49584 0.50103 0.0
O148 O 0.48304 0.52265 0.77788 0.0
O149 O 0.51516 0.53547 0.74358 0.0
O150 O 0.46105 0.51644 0.62862 0.0
O151 O 0.48354 0.50513 0.54987 0.0
C152 C 0.4639 0.50938 0.55845 0.0
C153 C 0.54381 0.50964 0.605 0.0
O154 O 0.51088 0.5297 0.46916 0.0
O155 O 0.50658 0.54373 0.59363 0.0
O156 O 0.53509 0.47684 0.42306 0.0
O157 O 0.50333 0.48222 0.38609 0.0
O158 O 0.54725 0.51146 0.53152 0.0
O159 O 0.52539 0.49965 0.61782 0.0
O160 O 0.49472 0.47915 0.68712 0.0
O161 O 0.50156 0.46575 0.56307 0.0
C162 C 0.50961 0.54612 0.51848 0.0
C163 C 0.49625 0.46294 0.63689 0.0
Dy164 Dy 0.9936 0.49449 0.65429 0.0
C165 C 0.03463 0.49783 0.35263 0.0
C166 C 0.9699 0.48972 0.7875 0.0
Dy167 Dy 0.01468 0.50684 0.48881 0.0
O168 O 0.97119 0.47506 0.73395 0.0
O169 O 0.98168 0.50716 0.76848 0.0
O170 O 0.00614 0.46207 0.63476 0.0
O171 O 0.99671 0.47932 0.54155 0.0
C172 C 0.00492 0.4626 0.56066 0.0
C173 C 0.01264 0.54142 0.58298 0.0
O174 O 0.97902 0.50593 0.46278 0.0
O175 O 0.96457 0.50345 0.58842 0.0
O176 O 0.02558 0.51557 0.36848 0.0
O177 O 0.03279 0.48538 0.41098 0.0
O178 O 0.02108 0.54276 0.51364 0.0
O179 O 0.00643 0.52215 0.59415 0.0
O180 O 0.0288 0.5017 0.68458 0.0
O181 O 0.04376 0.5011 0.55978 0.0
C182 C 0.96234 0.50588 0.51341 0.0
C183 C 0.04583 0.50163 0.63559 0.0
C184 C 0.20034 0.0362 0.09079 0.0
C185 C 0.20767 0.01584 0.0766 0.0
C186 C 0.17979 0.03825 0.12627 0.0
C187 C 0.14516 0.03739 0.25513 0.0
H188 H 0.09669 0.99378 0.23272 0.0
C189 C 0.08057 0.01988 0.49645 0.0
C190 C 0.0592 0.01195 0.47789 0.0
C191 C 0.09672 0.02347 0.43895 0.0
C192 C 0.10983 0.00637 0.2392 0.0
H193 H 0.19915 0.98178 0.08359 0.0
H194 H 0.16358 0.9851 0.14624 0.0
H195 H 0.12735 0.99462 0.14147 0.0
H196 H 0.03778 0.00209 0.38444 0.0
H197 H 0.06566 0.00914 0.28377 0.0
H198 H 0.12751 0.04929 0.3524 0.0
C199 C 0.17329 0.99959 0.12961 0.0
C200 C 0.12762 0.00667 0.18723 0.0
C201 C 0.19371 0.99761 0.09412 0.0
C202 C 0.0541 0.00833 0.40048 0.0
C203 C 0.07018 0.01215 0.34281 0.0
C204 C 0.12725 0.03722 0.30674 0.0
C205 C 0.16625 0.01994 0.14813 0.0
C206 C 0.14584 0.02177 0.19579 0.0
C207 C 0.09184 0.01939 0.36129 0.0
C208 C 0.10961 0.02133 0.30083 0.0
H209 H 0.21098 0.05045 0.07801 0.0
H210 H 0.17479 0.05417 0.13855 0.0
H211 H 0.15889 0.0492 0.26407 0.0
H212 H 0.085 0.02274 0.55568 0.0
H213 H 0.11323 0.02869 0.45587 0.0
C214 C 0.5015 0.19412 0.05676 0.0
C215 C 0.48803 0.20984 0.08366 0.0
C216 C 0.50134 0.1746 0.09436 0.0
C217 C 0.48964 0.15296 0.28645 0.0
H218 H 0.49493 0.09755 0.18642 0.0
C219 C 0.51165 0.07963 0.45219 0.0
C220 C 0.49974 0.05986 0.43596 0.0
C221 C 0.50971 0.09735 0.40662 0.0
C222 C 0.49334 0.1129 0.21519 0.0
H223 H 0.46294 0.21722 0.16703 0.0
H224 H 0.4624 0.18317 0.23253 0.0
H225 H 0.49126 0.12897 0.10904 0.0
H226 H 0.47656 0.0433 0.35813 0.0
H227 H 0.47323 0.07423 0.27878 0.0
H228 H 0.49168 0.13703 0.39243 0.0
C229 C 0.4734 0.18593 0.18349 0.0
C230 C 0.49141 0.13092 0.17083 0.0
C231 C 0.47355 0.20532 0.14584 0.0
C232 C 0.48596 0.05826 0.37255 0.0
C233 C 0.48415 0.07596 0.32664 0.0
C234 C 0.49173 0.13504 0.33064 0.0
C235 C 0.48775 0.17057 0.15968 0.0
C236 C 0.48947 0.15117 0.20598 0.0
C237 C 0.49592 0.09575 0.3433 0.0
C238 C 0.49362 0.11477 0.29568 0.0
H239 H 0.51294 0.19742 0.00935 0.0
H240 H 0.51266 0.16317 0.07469 0.0
H241 H 0.4885 0.16835 0.31546 0.0
H242 H 0.52244 0.08149 0.50037 0.0
H243 H 0.5192 0.11229 0.42058 0.0
C244 C 0.30477 0.51833 0.16012 0.0
C245 C 0.30151 0.50356 0.09881 0.0
C246 C 0.3239 0.51931 0.20207 0.0
C247 C 0.38087 0.50493 0.20628 0.0
H248 H 0.36905 0.50334 0.42534 0.0
C249 C 0.44895 0.49689 0.42979 0.0
C250 C 0.4469 0.50836 0.49949 0.0
C251 C 0.43218 0.49589 0.37619 0.0
C252 C 0.37279 0.50411 0.36448 0.0
H253 H 0.3161 0.47911 0.03001 0.0
H254 H 0.35008 0.48101 0.10288 0.0
H255 H 0.33887 0.50352 0.33854 0.0
H256 H 0.42601 0.52825 0.5669 0.0
H257 H 0.39731 0.52708 0.4738 0.0
H258 H 0.41495 0.50593 0.23269 0.0
C259 C 0.33772 0.49178 0.11866 0.0
C260 C 0.3554 0.50415 0.31461 0.0
C261 C 0.31838 0.49072 0.07684 0.0
C262 C 0.428 0.51907 0.51403 0.0
C263 C 0.41142 0.51826 0.46062 0.0
C264 C 0.39841 0.50513 0.2565 0.0
C265 C 0.34034 0.5056 0.18337 0.0
C266 C 0.35919 0.50484 0.23499 0.0
C267 C 0.41305 0.50643 0.39128 0.0
C268 C 0.3946 0.50502 0.33648 0.0
H269 H 0.29204 0.52854 0.17742 0.0
H270 H 0.32558 0.53043 0.25062 0.0
H271 H 0.3843 0.50545 0.14517 0.0
H272 H 0.46323 0.48832 0.41746 0.0
H273 H 0.43399 0.48646 0.32384 0.0
C274 C 1.00361 0.31061 0.10931 0.0
C275 C 0.01315 0.29275 0.13555 0.0
C276 C 0.00613 0.33024 0.14986 0.0
C277 C 0.01552 0.35081 0.34555 0.0
H278 H 0.02387 0.40652 0.25275 0.0
C279 C 0.02115 0.42801 0.53204 0.0
C280 C 0.00967 0.44483 0.50734 0.0
C281 C 0.02446 0.41049 0.4831 0.0
C282 C 0.02136 0.39108 0.27949 0.0
H283 H 0.03389 0.28144 0.22082 0.0
H284 H 0.03835 0.31566 0.29215 0.0
H285 H 0.02445 0.374 0.17201 0.0
H286 H 0.99298 0.45683 0.41195 0.0
H287 H 0.99834 0.42607 0.32688 0.0
H288 H 0.01176 0.3676 0.45247 0.0
C289 C 0.02861 0.31452 0.24121 0.0
C290 C 0.02174 0.37248 0.23322 0.0
C291 C 0.02612 0.29499 0.20058 0.0
C292 C 1.00198 0.44409 0.43229 0.0
C293 C 0.00517 0.42651 0.38342 0.0
C294 C 0.01501 0.36933 0.39161 0.0
C295 C 0.01821 0.33223 0.21738 0.0
C296 C 0.01876 0.35214 0.26583 0.0
C297 C 0.01616 0.40931 0.40864 0.0
C298 C 0.01783 0.38972 0.35926 0.0
H299 H 0.99346 0.30909 0.05939 0.0
H300 H 0.99781 0.34355 0.13034 0.0
H301 H 0.01275 0.33538 0.3723 0.0
H302 H 0.02739 0.4283 0.58949 0.0
H303 H 0.03336 0.39775 0.50396 0.0
C304 C 0.81225 0.0095 0.05765 0.0
C305 C 0.80326 0.99004 0.08746 0.0
C306 C 0.83315 0.01115 0.02326 0.0
C307 C 0.87196 0.9765 0.92574 0.0
H308 H 0.9071 0.03076 0.90688 0.0
C309 C 0.95028 0.98826 0.72894 0.0
C310 C 0.9493 0.00479 0.67688 0.0
C311 C 0.93516 0.98606 0.79058 0.0
C312 C 0.89749 0.01548 0.91194 0.0
H313 H 0.80926 0.95737 0.1092 0.0
H314 H 0.84642 0.96029 0.05211 0.0
H315 H 0.87671 0.02758 1.0002 0.0
H316 H 0.9321 0.03211 0.6484 0.0
H317 H 0.90606 0.02863 0.75699 0.0
H318 H 0.89297 0.96451 0.83722 0.0
C319 C 0.83715 0.97423 0.05328 0.0
C320 C 0.87997 0.01364 0.96511 0.0
C321 C 0.81606 0.97258 0.08711 0.0
C322 C 0.93324 0.01928 0.68801 0.0
C323 C 0.91844 0.01736 0.75031 0.0
C324 C 0.88973 0.97826 0.87347 0.0
C325 C 0.8457 0.99334 0.01844 0.0
C326 C 0.86648 0.99432 0.97112 0.0
C327 C 0.91909 1.00061 0.80182 0.0
C328 C 0.90227 0.99793 0.86451 0.0
H329 H 0.80248 0.02307 0.05684 0.0
H330 H 0.83881 0.02605 0.99639 0.0
H331 H 0.86189 0.96142 0.92757 0.0
H332 H 0.96222 0.97662 0.72048 0.0
H333 H 0.93596 0.97296 0.82928 0.0
C334 C 0.52756 0.80524 0.01892 0.0
C335 C 0.51234 0.80068 0.07896 0.0
C336 C 0.52859 0.8249 0.98247 0.0
C337 C 0.49355 0.86787 0.94234 0.0
H338 H 0.54757 0.89618 0.85975 0.0
C339 C 0.49407 0.93058 0.70575 0.0
C340 C 0.50926 0.94873 0.71063 0.0
C341 C 0.49506 0.91351 0.75518 0.0
C342 C 0.53233 0.88862 0.88293 0.0
H343 H 0.48677 0.81309 0.15011 0.0
H344 H 0.48866 0.84786 0.08735 0.0
H345 H 0.54889 0.86576 0.94312 0.0
H346 H 0.53754 0.96296 0.77154 0.0
H347 H 0.53917 0.93325 0.85775 0.0
H348 H 0.47698 0.89075 0.88242 0.0
C349 C 0.49971 0.83616 0.06776 0.0
C350 C 0.53308 0.87103 0.93025 0.0
C351 C 0.49878 0.81645 0.1044 0.0
C352 C 0.5256 0.94924 0.76581 0.0
C353 C 0.5266 0.93214 0.81519 0.0
C354 C 0.4928 0.88542 0.89491 0.0
C355 C 0.5143 0.84044 0.00509 0.0
C356 C 0.51368 0.86027 0.95998 0.0
C357 C 0.51127 0.91408 0.81084 0.0
C358 C 0.51216 0.8959 0.86385 0.0
H359 H 0.53803 0.79315 0.99823 0.0
H360 H 0.53985 0.82746 0.93406 0.0
H361 H 0.47826 0.85987 0.96337 0.0
H362 H 0.48128 0.92956 0.66397 0.0
H363 H 0.4832 0.89973 0.74925 0.0
C364 C 0.70753 0.5342 0.99683 0.0
C365 C 0.70755 0.52007 0.05769 0.0
C366 C 0.68861 0.53561 0.95519 0.0
C367 C 0.62854 0.52287 0.95212 0.0
H368 H 0.63896 0.5182 0.73258 0.0
C369 C 0.55804 0.5056 0.73664 0.0
C370 C 0.56091 0.51406 0.66301 0.0
C371 C 0.57504 0.50812 0.78903 0.0
C372 C 0.63566 0.51995 0.79354 0.0
H373 H 0.68763 0.49724 0.12589 0.0
H374 H 0.65413 0.49985 0.05366 0.0
H375 H 0.66966 0.52 0.81787 0.0
H376 H 0.58336 0.53268 0.58783 0.0
H377 H 0.61271 0.53776 0.67959 0.0
H378 H 0.59448 0.52299 0.92763 0.0
C379 C 0.66881 0.50984 0.03802 0.0
C380 C 0.65335 0.52089 0.84262 0.0
C381 C 0.68789 0.50837 0.07953 0.0
C382 C 0.58077 0.5258 0.6439 0.0
C383 C 0.59767 0.52854 0.69648 0.0
C384 C 0.61078 0.52215 0.90281 0.0
C385 C 0.66918 0.52296 0.97373 0.0
C386 C 0.65006 0.52237 0.9225 0.0
C387 C 0.59527 0.51933 0.7693 0.0
C388 C 0.61408 0.52066 0.82267 0.0
H389 H 0.7225 0.54349 0.97952 0.0
H390 H 0.68936 0.54617 0.907 0.0
H391 H 0.62547 0.52411 0.01337 0.0
H392 H 0.5429 0.49644 0.75297 0.0
H393 H 0.57253 0.5006 0.844 0.0
C394 C 0.01696 0.70487 0.98306 0.0
C395 C 0.99833 0.70722 0.02987 0.0
C396 C 0.0194 0.68567 0.94267 0.0
C397 C 1.00086 0.62835 0.92534 0.0
H398 H 0.01384 0.63679 0.70917 0.0
C399 C 0.99623 0.55815 0.70026 0.0
C400 C 0.01153 0.55935 0.63897 0.0
C401 C 0.99494 0.57547 0.75217 0.0
C402 C 0.01058 0.63405 0.7695 0.0
H403 H 0.96831 0.69122 0.07549 0.0
H404 H 0.97263 0.65717 0.0052 0.0
H405 H 0.01179 0.66769 0.79537 0.0
H406 H 0.0377 0.57926 0.58397 0.0
H407 H 0.03605 0.60922 0.67542 0.0
H408 H 0.99995 0.59464 0.89954 0.0
C409 C 0.98531 0.67024 0.9996 0.0
C410 C 0.00933 0.65181 0.81891 0.0
C411 C 0.98283 0.68961 0.03983 0.0
C412 C 0.02566 0.57801 0.63062 0.0
C413 C 0.02459 0.59521 0.68287 0.0
C414 C 1.00235 0.61049 0.87589 0.0
C415 C 1.00329 0.66836 0.94868 0.0
C416 C 0.00456 0.64919 0.89735 0.0
C417 C 0.00906 0.59429 0.74395 0.0
C418 C 0.00731 0.61313 0.79727 0.0
H419 H 0.02923 0.71823 0.97566 0.0
H420 H 0.03362 0.68455 0.905 0.0
H421 H 0.99721 0.62588 0.98564 0.0
H422 H 0.98483 0.5441 0.7067 0.0
H423 H 0.98252 0.57427 0.79753 0.0
C424 C 0.01429 0.20315 0.11073 0.0
C425 C 0.99616 0.21475 0.10073 0.0
C426 C 0.01152 0.18102 0.11917 0.0
C427 C 1.00268 0.1332 0.09484 0.0
H428 H 0.95891 0.11024 0.24208 0.0
C429 C 0.9724 0.05055 0.26768 0.0
C430 C 0.99285 0.04672 0.29598 0.0
C431 C 0.97048 0.0682 0.22176 0.0
C432 C 0.97086 0.11623 0.1993 0.0
H433 H 0.96106 0.21292 0.09065 0.0
H434 H 0.95587 0.17388 0.10691 0.0
H435 H 0.95971 0.14765 0.20716 0.0
H436 H 0.02755 0.05689 0.29329 0.0
H437 H 0.0243 0.08749 0.21301 0.0
H438 H 0.01448 0.10199 0.08989 0.0
C439 C 0.97225 0.18187 0.10859 0.0
C440 C 0.97136 0.13772 0.17947 0.0
C441 C 0.97512 0.20409 0.09979 0.0
C442 C 0.01158 0.05957 0.27231 0.0
C443 C 0.00971 0.07704 0.22597 0.0
C444 C 1.00222 0.11173 0.11481 0.0
C445 C 0.99048 0.17008 0.11777 0.0
C446 C 0.98775 0.14661 0.12914 0.0
C447 C 0.98903 0.08208 0.20291 0.0
C448 C 0.98677 0.10322 0.16923 0.0
H449 H 0.03063 0.21129 0.11068 0.0
H450 H 0.02585 0.1725 0.12758 0.0
H451 H 0.01519 0.13949 0.05441 0.0
H452 H 0.95771 0.04084 0.2852 0.0
H453 H 0.95438 0.07157 0.20407 0.0
C454 C 0.30267 0.00939 0.08947 0.0
C455 C 0.28371 0.99546 0.08096 0.0
C456 C 0.32175 1.00183 0.11562 0.0
C457 C 0.363 0.98043 0.14108 0.0
H458 H 0.35664 0.94538 0.32108 0.0
C459 C 0.43818 0.96337 0.30994 0.0
C460 C 0.4358 0.96779 0.38878 0.0
C461 C 0.41978 0.96094 0.26396 0.0
C462 C 0.35869 0.95507 0.27057 0.0
H463 H 0.26956 0.96281 0.09086 0.0
H464 H 0.30306 0.94934 0.13731 0.0
H465 H 0.32417 0.95328 0.25367 0.0
H466 H 0.41248 0.9719 0.48245 0.0
H467 H 0.38049 0.96798 0.4026 0.0
H468 H 0.39736 0.9834 0.16078 0.0
C469 C 0.30318 0.96614 0.12428 0.0
C470 C 0.3401 0.95942 0.23147 0.0
C471 C 0.28408 0.97377 0.09793 0.0
C472 C 0.41474 0.96851 0.4217 0.0
C473 C 0.39639 0.9661 0.37592 0.0
C474 C 0.38157 0.97615 0.18032 0.0
C475 C 0.32219 0.98015 0.13394 0.0
C476 C 0.34201 0.97273 0.16778 0.0
C477 C 0.39873 0.96289 0.29622 0.0
C478 C 0.37956 0.96399 0.24696 0.0
H479 H 0.30252 0.02623 0.07747 0.0
H480 H 0.33594 0.01315 0.12389 0.0
H481 H 0.36502 0.99042 0.09134 0.0
H482 H 0.45428 0.96265 0.28333 0.0
H483 H 0.42207 0.9582 0.20288 0.0
C484 C 0.48757 0.30296 0.07203 0.0
C485 C 0.50376 0.28859 0.07409 0.0
C486 C 0.49279 0.32476 0.08711 0.0
C487 C 0.53237 0.36136 0.18875 0.0
H488 H 0.50571 0.40495 0.07923 0.0
C489 C 0.54343 0.44814 0.29434 0.0
C490 C 0.52356 0.45743 0.30573 0.0
C491 C 0.54451 0.42992 0.24699 0.0
C492 C 0.51332 0.39296 0.11015 0.0
H493 H 0.53801 0.28524 0.09081 0.0
H494 H 0.54734 0.32354 0.11894 0.0
H495 H 0.50076 0.3675 0.03475 0.0
H496 H 0.48975 0.45631 0.27198 0.0
H497 H 0.49145 0.42423 0.19039 0.0
H498 H 0.54425 0.38645 0.26578 0.0
C499 C 0.53056 0.318 0.10638 0.0
C500 C 0.51044 0.37155 0.08487 0.0
C501 C 0.52529 0.29618 0.09094 0.0
C502 C 0.50526 0.44937 0.26414 0.0
C503 C 0.50628 0.43105 0.21714 0.0
C504 C 0.53524 0.3827 0.21397 0.0
C505 C 0.51434 0.33252 0.10462 0.0
C506 C 0.51951 0.35548 0.12512 0.0
C507 C 0.52567 0.4206 0.2108 0.0
C508 C 0.52534 0.39868 0.17607 0.0
H509 H 0.47093 0.29724 0.05823 0.0
H510 H 0.47987 0.33548 0.08642 0.0
H511 H 0.53934 0.34933 0.22153 0.0
H512 H 0.55784 0.45422 0.32525 0.0
H513 H 0.5598 0.4225 0.24188 0.0
C514 C 0.21054 0.47066 0.08753 0.0
C515 C 0.22118 0.49109 0.07675 0.0
C516 C 0.18778 0.46809 0.09746 0.0
C517 C 0.13742 0.49551 0.06995 0.0
H518 H 0.11464 0.46176 0.24153 0.0
C519 C 0.05957 0.5108 0.24549 0.0
C520 C 0.04876 0.49373 0.28557 0.0
C521 C 0.07747 0.50725 0.19682 0.0
C522 C 0.12052 0.47081 0.19205 0.0
H523 H 0.21709 0.52473 0.06667 0.0
H524 H 0.17725 0.52052 0.08574 0.0
H525 H 0.15294 0.46162 0.20371 0.0
H526 H 0.04604 0.45933 0.29953 0.0
H527 H 0.07677 0.45302 0.21274 0.0
H528 H 0.10503 0.50542 0.06069 0.0
C529 C 0.18626 0.50641 0.08559 0.0
C530 C 0.14256 0.47077 0.17055 0.0
C531 C 0.20897 0.50892 0.07599 0.0
C532 C 0.0544 0.4728 0.26991 0.0
C533 C 0.07205 0.46921 0.2206 0.0
C534 C 0.11529 0.49557 0.09153 0.0
C535 C 0.1754 0.48596 0.09627 0.0
C536 C 0.1514 0.48361 0.11087 0.0
C537 C 0.08459 0.48655 0.1872 0.0
C538 C 0.10675 0.48367 0.15425 0.0
H539 H 0.21985 0.45675 0.08637 0.0
H540 H 0.17983 0.45213 0.10506 0.0
H541 H 0.14374 0.50525 0.02264 0.0
H542 H 0.05546 0.52708 0.25681 0.0
H543 H 0.08679 0.52098 0.17213 0.0
C544 C 0.9769 0.79852 0.06837 0.0
C545 C 0.99359 0.78546 0.04718 0.0
C546 C 0.97969 0.82054 0.05635 0.0
C547 C 0.0224 0.8649 0.01886 0.0
H548 H 0.97502 0.89177 0.9288 0.0
C549 C 0.03453 0.93942 0.83467 0.0
C550 C 0.01802 0.95355 0.83455 0.0
C551 C 0.03224 0.92148 0.8807 0.0
C552 C 0.98827 0.88469 0.95562 0.0
H553 H 0.02616 0.78469 0.99739 0.0
H554 H 0.03091 0.82315 0.97334 0.0
H555 H 0.96914 0.8547 0.96767 0.0
H556 H 0.98701 0.96111 0.8864 0.0
H557 H 0.98301 0.92972 0.96737 0.0
H558 H 0.04177 0.89472 0.00388 0.0
C559 C 0.01582 0.81656 1.00061 0.0
C560 C 0.9849 0.8634 0.97769 0.0
C561 C 0.01301 0.79457 0.01294 0.0
C562 C 0.99995 0.95039 0.88538 0.0
C563 C 0.9976 0.93238 0.93127 0.0
C564 C 0.02578 0.8862 0.99663 0.0
C565 C 0.99923 0.82982 0.0226 0.0
C566 C 1.0021 0.8531 0.00764 0.0
C567 C 0.01333 0.91733 0.92722 0.0
C568 C 0.0089 0.89615 0.96297 0.0
H569 H 0.96184 0.79166 0.09505 0.0
H570 H 0.96668 0.83034 0.07435 0.0
H571 H 0.03583 0.85751 0.04336 0.0
H572 H 0.04864 0.94153 0.79599 0.0
H573 H 0.04457 0.91013 0.87578 0.0
C574 C 0.71714 0.01388 0.08058 0.0
C575 C 0.72424 0.99371 0.06176 0.0
C576 C 0.69836 0.02034 0.04809 0.0
C577 C 0.66435 0.00943 0.8793 0.0
H578 H 0.62263 0.04175 0.99401 0.0
C579 C 0.59366 0.04157 0.72677 0.0
C580 C 0.573 0.03697 0.76195 0.0
C581 C 0.61263 0.04 0.76771 0.0
C582 C 0.63414 0.03273 0.96129 0.0
H583 H 0.71747 0.96407 0.99755 0.0
H584 H 0.68424 0.97511 0.94055 0.0
H585 H 0.6539 0.02957 0.05878 0.0
H586 H 0.55577 0.02872 0.8685 0.0
H587 H 0.58889 0.02563 0.93988 0.0
H588 H 0.64435 0.01187 0.78257 0.0
C589 C 0.69332 0.98615 0.97926 0.0
C590 C 0.65211 0.02588 0.99821 0.0
C591 C 0.71215 0.97976 0.01183 0.0
C592 C 0.57155 0.03238 0.84016 0.0
C593 C 0.59053 0.03065 0.88104 0.0
C594 C 0.64642 0.01623 0.84253 0.0
C595 C 0.68641 0.00666 0.9962 0.0
C596 C 0.66732 0.01403 0.95764 0.0
C597 C 0.61125 0.03362 0.84435 0.0
C598 C 0.63106 0.02788 0.88308 0.0
H599 H 0.7265 0.02478 0.11902 0.0
H600 H 0.6936 0.03628 0.06173 0.0
H601 H 0.67595 1.00062 0.84615 0.0
H602 H 0.59519 0.04528 0.66655 0.0
H603 H 0.62838 0.04289 0.73838 0.0
C604 C 0.51474 0.71449 0.02192 0.0
C605 C 0.49986 0.72185 0.07653 0.0
C606 C 0.51413 0.69274 0.00233 0.0
C607 C 0.49315 0.63887 0.07031 0.0
H608 H 0.50814 0.6224 0.86104 0.0
C609 C 0.48179 0.5556 0.90159 0.0
C610 C 0.50111 0.55048 0.86284 0.0
C611 C 0.48164 0.57461 0.94565 0.0
C612 C 0.50404 0.62684 0.9198 0.0
H613 H 0.47266 0.71284 0.15352 0.0
H614 H 0.47075 0.67464 0.11697 0.0
H615 H 0.50632 0.66006 0.89519 0.0
H616 H 0.53587 0.5595 0.84702 0.0
H617 H 0.53549 0.59271 0.92317 0.0
H618 H 0.49011 0.60512 0.09298 0.0
C619 C 0.48323 0.68551 0.0903 0.0
C620 C 0.5031 0.64839 0.93958 0.0
C621 C 0.48406 0.70731 0.11049 0.0
C622 C 0.52072 0.56323 0.87574 0.0
C623 C 0.52054 0.58217 0.91929 0.0
C624 C 0.49374 0.61713 0.04996 0.0
C625 C 0.49838 0.67794 0.03632 0.0
C626 C 0.49802 0.65476 0.0153 0.0
C627 C 0.5008 0.58851 0.95108 0.0
C628 C 0.49954 0.61109 0.97479 0.0
H629 H 0.52741 0.72551 0.997 0.0
H630 H 0.52643 0.68749 0.96206 0.0
H631 H 0.48931 0.6432 0.12928 0.0
H632 H 0.46647 0.54598 0.89244 0.0
H633 H 0.46624 0.57934 0.96957 0.0
C634 C 0.78905 0.48104 0.06241 0.0
C635 C 0.78408 0.5022 0.07604 0.0
C636 C 0.81079 0.4765 0.04991 0.0
C637 C 0.86816 0.49963 0.07333 0.0
H638 H 0.87997 0.46292 0.89746 0.0
C639 C 0.94776 0.5063 0.89125 0.0
C640 C 0.95405 0.48788 0.85207 0.0
C641 C 0.9292 0.50501 0.93979 0.0
C642 C 0.87704 0.4728 0.94797 0.0
H643 H 0.79717 0.53518 0.08881 0.0
H644 H 0.83527 0.52753 0.06515 0.0
H645 H 0.84241 0.46635 0.93962 0.0
H646 H 0.94762 0.45343 0.83872 0.0
H647 H 0.9155 0.45108 0.92464 0.0
H648 H 0.90292 0.50679 0.07917 0.0
C649 C 0.82261 0.51433 0.06508 0.0
C650 C 0.85544 0.47479 0.97203 0.0
C651 C 0.80091 0.5188 0.07738 0.0
C652 C 0.94287 0.4679 0.86763 0.0
C653 C 0.92446 0.46658 0.91652 0.0
C654 C 0.88982 0.49767 0.04909 0.0
C655 C 0.8278 0.49313 0.05124 0.0
C656 C 0.85074 0.4887 0.03349 0.0
C657 C 0.9168 0.48525 0.95001 0.0
C658 C 0.89444 0.48466 0.98485 0.0
H659 H 0.77614 0.46808 0.06306 0.0
H660 H 0.81431 0.46 0.03999 0.0
H661 H 0.865 0.51015 0.12194 0.0
H662 H 0.95618 0.52189 0.88015 0.0
H663 H 0.92367 0.51971 0.96446 0.0
C664 C 0.0324 0.22369 0.93744 0.0
C665 C 0.01151 0.23059 0.9516 0.0
C666 C 0.035 0.20535 0.89166 0.0
C667 C 0.03079 0.15729 0.85552 0.0
H668 H 0.99729 0.14107 0.67487 0.0
C669 C 0.01424 0.0692 0.74842 0.0
C670 C 0.01411 0.06511 0.66887 0.0
C671 C 0.01614 0.09029 0.77785 0.0
C672 C 0.00699 0.1454 0.72472 0.0
H673 H 0.97718 0.2247 0.92754 0.0
H674 H 0.98154 0.19294 0.84591 0.0
H675 H 0.99736 0.17746 0.72819 0.0
H676 H 0.01659 0.08009 0.55794 0.0
H677 H 0.02015 0.11664 0.60921 0.0
H678 H 0.04032 0.12519 0.85239 0.0
C679 C 0.99602 0.20165 0.86919 0.0
C680 C 0.00687 0.16622 0.75558 0.0
C681 C 0.99347 0.21987 0.91531 0.0
C682 C 0.01642 0.08258 0.61955 0.0
C683 C 0.01837 0.1036 0.64893 0.0
C684 C 0.03088 0.13644 0.82472 0.0
C685 C 0.01669 0.19371 0.85922 0.0
C686 C 0.01859 0.17234 0.82175 0.0
C687 C 0.01799 0.10775 0.7284 0.0
C688 C 0.0188 0.13018 0.75937 0.0
H689 H 0.04638 0.23151 0.96675 0.0
H690 H 0.05115 0.19972 0.88447 0.0
H691 H 0.03971 0.16139 0.9073 0.0
H692 H 0.01244 0.05616 0.78809 0.0
H693 H 0.01555 0.0929 0.8394 0.0
C694 C 0.29086 0.03623 0.92016 0.0
C695 C 0.27924 0.01629 0.93275 0.0
C696 C 0.31078 0.03744 0.87822 0.0
C697 C 0.35562 0.00323 0.83147 0.0
H698 H 0.37767 0.04906 0.69799 0.0
C699 C 0.4392 1.00145 0.67384 0.0
C700 C 0.45281 0.02068 0.67279 0.0
C701 C 0.41723 1.00136 0.69794 0.0
C702 C 0.37179 0.03622 0.73558 0.0
H703 H 0.27821 0.98228 0.90829 0.0
H704 H 0.31247 0.98425 0.83283 0.0
H705 H 0.34022 0.04831 0.75104 0.0
H706 H 0.45403 0.05497 0.6947 0.0
H707 H 0.41572 0.05483 0.73781 0.0
H708 H 0.38709 0.99125 0.81724 0.0
C709 C 0.30669 0.99896 0.8565 0.0
C710 C 0.35032 0.0358 0.76593 0.0
C711 C 0.28694 0.9978 0.8986 0.0
C712 C 0.4439 0.0399 0.69492 0.0
C713 C 0.42191 0.03982 0.71911 0.0
C714 C 0.37698 0.00365 0.80121 0.0
C715 C 0.31931 0.01867 0.84823 0.0
C716 C 0.34194 0.01923 0.81407 0.0
C717 C 0.40836 0.0205 0.7219 0.0
C718 C 0.38538 0.02011 0.75276 0.0
H719 H 0.2853 0.0506 0.94731 0.0
H720 H 0.3201 0.05287 0.87333 0.0
H721 H 0.34998 0.99054 0.86999 0.0
H722 H 0.44562 0.98637 0.65756 0.0
H723 H 0.40722 0.98623 0.69826 0.0
C724 C 0.47283 0.28055 0.89383 0.0
C725 C 0.49279 0.27403 0.91797 0.0
C726 C 0.47241 0.29938 0.8524 0.0
C727 C 0.50419 0.35135 0.83844 0.0
H728 H 0.46759 0.36119 0.66784 0.0
C729 C 0.49143 0.43684 0.74426 0.0
C730 C 0.49324 0.44063 0.66523 0.0
C731 C 0.49021 0.41593 0.7713 0.0
C732 C 0.47796 0.35867 0.71532 0.0
H733 H 0.52787 0.2811 0.91444 0.0
H734 H 0.52733 0.31377 0.84126 0.0
H735 H 0.46828 0.32484 0.71587 0.0
H736 H 0.4945 0.42512 0.55266 0.0
H737 H 0.49228 0.38868 0.59999 0.0
H738 H 0.51386 0.38502 0.83854 0.0
C739 C 0.51198 0.30453 0.85448 0.0
C740 C 0.47825 0.33789 0.74304 0.0
C741 C 0.51236 0.28569 0.89515 0.0
C742 C 0.49316 0.42287 0.61391 0.0
C743 C 0.49177 0.40193 0.64101 0.0
C744 C 0.50373 0.37209 0.81137 0.0
C745 C 0.49196 0.31207 0.83529 0.0
C746 C 0.49152 0.33397 0.80454 0.0
C747 C 0.49061 0.39821 0.7201 0.0
C748 C 0.49067 0.37604 0.74932 0.0
H749 H 0.45755 0.27208 0.91263 0.0
H750 H 0.45672 0.3048 0.83874 0.0
H751 H 0.51431 0.34895 0.88679 0.0
H752 H 0.4914 0.45005 0.78562 0.0
H753 H 0.48903 0.41364 0.83255 0.0
C754 C 0.23167 0.51859 0.8993 0.0
C755 C 0.23826 0.49888 0.92193 0.0
C756 C 0.21236 0.51936 0.85851 0.0
C757 C 0.15906 0.48818 0.84145 0.0
H758 H 0.14907 0.52632 0.67765 0.0
C759 C 0.07161 0.50142 0.74565 0.0
C760 C 0.06832 0.50213 0.66639 0.0
C761 C 0.09279 0.50164 0.77415 0.0
C762 C 0.1516 0.51548 0.72312 0.0
H763 H 0.23079 0.46459 0.91614 0.0
H764 H 0.19743 0.46571 0.84339 0.0
H765 H 0.18608 0.52514 0.72546 0.0
H766 H 0.08504 0.50385 0.55518 0.0
H767 H 0.12178 0.50413 0.60481 0.0
H768 H 0.12472 0.47845 0.83939 0.0
C769 C 0.20693 0.48063 0.85757 0.0
C770 C 0.1728 0.51493 0.75084 0.0
C771 C 0.22624 0.47992 0.89774 0.0
C772 C 0.08683 0.50327 0.61656 0.0
C773 C 0.10799 0.50359 0.64508 0.0
C774 C 0.13789 0.48884 0.8142 0.0
C775 C 0.19924 0.50039 0.84031 0.0
C776 C 0.17682 0.50112 0.80988 0.0
C777 C 0.11128 0.50268 0.72424 0.0
C778 C 0.13385 0.50241 0.75438 0.0
H779 H 0.24034 0.53341 0.91937 0.0
H780 H 0.20687 0.53485 0.84637 0.0
H781 H 0.16149 0.47767 0.88806 0.0
H782 H 0.05782 0.5006 0.78592 0.0
H783 H 0.09468 0.50118 0.83552 0.0
C784 C 0.01127 0.78313 0.21803 0.0
C785 C 0.99172 0.77044 0.20457 0.0
C786 C 0.01112 0.80206 0.2621 0.0
C787 C 1.00164 0.84816 0.28889 0.0
H788 H 0.96733 0.85819 0.47416 0.0
C789 C 0.98816 0.9338 0.39816 0.0
C790 C 0.9908 0.938 0.477 0.0
C791 C 0.98682 0.91273 0.3686 0.0
C792 C 0.97707 0.85563 0.42257 0.0
H793 H 0.95702 0.76641 0.23025 0.0
H794 H 0.95658 0.79943 0.30912 0.0
H795 H 0.9692 0.82156 0.42334 0.0
H796 H 0.99331 0.9231 0.58686 0.0
H797 H 0.99115 0.88655 0.53522 0.0
H798 H 0.00973 0.88205 0.28807 0.0
C799 C 0.97209 0.7948 0.28593 0.0
C800 C 0.97803 0.83467 0.3933 0.0
C801 C 0.97231 0.77582 0.24159 0.0
C802 C 0.99134 0.92055 0.52578 0.0
C803 C 0.98996 0.89952 0.49624 0.0
C804 C 1.00062 0.86906 0.3179 0.0
C805 C 0.99134 0.80862 0.29348 0.0
C806 C 0.99048 0.8307 0.32643 0.0
C807 C 0.98804 0.89535 0.41716 0.0
C808 C 0.98838 0.87308 0.3852 0.0
H809 H 0.0263 0.77932 0.18873 0.0
H810 H 0.02628 0.81215 0.26803 0.0
H811 H 0.011 0.84572 0.2363 0.0
H812 H 0.98759 0.94679 0.35886 0.0
H813 H 0.985 0.91006 0.3075 0.0
C814 C 0.7145 0.96575 0.22006 0.0
C815 C 0.73028 0.98334 0.223 0.0
C816 C 0.69497 0.96591 0.26334 0.0
C817 C 0.65733 0.00357 0.33941 0.0
H818 H 0.62909 0.9543 0.44346 0.0
C819 C 0.57088 0.00574 0.48012 0.0
C820 C 0.55657 0.98701 0.47441 0.0
C821 C 0.59309 0.00543 0.45932 0.0
C822 C 0.63659 0.96815 0.41396 0.0
H823 H 0.73842 0.01479 0.27327 0.0
H824 H 0.70407 0.0153 0.34954 0.0
H825 H 0.66639 0.95322 0.39181 0.0
H826 H 0.5543 0.95326 0.44226 0.0
H827 H 0.59275 0.95279 0.40341 0.0
H828 H 0.62738 0.01823 0.35821 0.0
C829 C 0.70689 1.00124 0.31441 0.0
C830 C 0.65806 0.96755 0.3848 0.0
C831 C 0.72661 1.00088 0.27181 0.0
C832 C 0.56495 0.96794 0.44766 0.0
C833 C 0.5871 0.96766 0.42601 0.0
C834 C 0.63578 0.00409 0.36777 0.0
C835 C 0.69066 0.98392 0.30938 0.0
C836 C 0.66862 0.98519 0.34659 0.0
C837 C 0.60152 0.98643 0.43116 0.0
C838 C 0.62498 0.9863 0.40481 0.0
H839 H 0.7169 0.95233 0.18119 0.0
H840 H 0.68273 0.95245 0.25735 0.0
H841 H 0.66486 0.01729 0.30914 0.0
H842 H 0.56488 0.02074 0.49965 0.0
H843 H 0.60363 0.02015 0.46528 0.0
C844 C 0.50065 0.72944 0.29141 0.0
C845 C 0.5151 0.73468 0.22974 0.0
C846 C 0.50222 0.71051 0.33133 0.0
C847 C 0.51681 0.65653 0.29166 0.0
H848 H 0.51634 0.64936 0.51122 0.0
C849 C 0.52202 0.57285 0.41807 0.0
C850 C 0.51136 0.56821 0.48865 0.0
C851 C 0.52361 0.5937 0.39014 0.0
C852 C 0.51608 0.65093 0.44974 0.0
H853 H 0.54313 0.7252 0.1639 0.0
H854 H 0.54585 0.69205 0.23281 0.0
H855 H 0.51732 0.68531 0.45996 0.0
H856 H 0.49368 0.58183 0.5847 0.0
H857 H 0.49548 0.61779 0.53478 0.0
H858 H 0.51448 0.6224 0.28033 0.0
C859 C 0.53338 0.70251 0.25073 0.0
C860 C 0.51682 0.67163 0.42053 0.0
C861 C 0.53203 0.72154 0.21201 0.0
C862 C 0.50221 0.58489 0.53042 0.0
C863 C 0.5034 0.60564 0.50183 0.0
C864 C 0.51559 0.63586 0.3207 0.0
C865 C 0.51805 0.69643 0.3091 0.0
C866 C 0.51737 0.67463 0.34118 0.0
C867 C 0.51417 0.61045 0.43123 0.0
C868 C 0.51535 0.63267 0.40029 0.0
H869 H 0.48721 0.73913 0.30476 0.0
H870 H 0.49013 0.70617 0.37591 0.0
H871 H 0.51686 0.65837 0.23017 0.0
H872 H 0.52944 0.56041 0.38477 0.0
H873 H 0.5325 0.59665 0.33653 0.0
C874 C 0.78123 0.53245 0.25646 0.0
C875 C 0.76994 0.5131 0.23195 0.0
C876 C 0.80056 0.53235 0.29766 0.0
C877 C 0.84606 0.49856 0.31144 0.0
H878 H 0.865 0.53634 0.48094 0.0
C879 C 0.93621 0.50788 0.40549 0.0
C880 C 0.93998 0.50807 0.48463 0.0
C881 C 0.9151 0.50923 0.37835 0.0
C882 C 0.85992 0.5256 0.43384 0.0
H883 H 0.76913 0.47864 0.2346 0.0
H884 H 0.80254 0.47829 0.30767 0.0
H885 H 0.82788 0.53703 0.43304 0.0
H886 H 0.92425 0.51026 0.59714 0.0
H887 H 0.8875 0.51264 0.54971 0.0
H888 H 0.87795 0.48714 0.31165 0.0
C889 C 0.79667 0.49357 0.29486 0.0
C890 C 0.8387 0.52611 0.40612 0.0
C891 C 0.77734 0.49373 0.2544 0.0
C892 C 0.92205 0.51002 0.53582 0.0
C893 C 0.90094 0.51152 0.50862 0.0
C894 C 0.86728 0.4982 0.33858 0.0
C895 C 0.80902 0.51286 0.31426 0.0
C896 C 0.83146 0.51246 0.34495 0.0
C897 C 0.89714 0.51096 0.4295 0.0
C898 C 0.87451 0.51165 0.40031 0.0
H899 H 0.77616 0.54755 0.2378 0.0
H900 H 0.80972 0.54749 0.31144 0.0
H901 H 0.84117 0.48811 0.2633 0.0
H902 H 0.94954 0.50644 0.36416 0.0
H903 H 0.91286 0.50903 0.31705 0.0
loop_
_geom_bond_atom_site_label_1
_geom_bond_atom_site_label_2
_geom_bond_distance
_geom_bond_site_symmetry_2
_ccdc_geom_bond_type
C0 N1 1.317 . S
C0 N2 1.348 . S
C0 C3 1.485 . S
N1 C0 1.317 . S
N1 N5 1.370 . S
N2 C0 1.348 . S
N2 C4 1.346 . S
C3 C0 1.485 . S
C3 H7 0.960 . S
C3 H8 0.961 . S
C3 H9 0.960 . S
C4 N2 1.346 . S
C4 N5 1.307 . S
C4 C6 1.486 1_554 S
N5 N1 1.370 . S
N5 C4 1.307 . S
C6 C4 1.486 1_556 S
C6 H10 0.960 . S
C6 H11 0.960 . S
C6 H12 0.959 . S
H7 C3 0.960 . S
H8 C3 0.961 . S
H9 C3 0.960 . S
H10 C6 0.960 . S
H11 C6 0.960 . S
H12 C6 0.959 . S
C13 N14 1.317 . S
C13 N15 1.351 . S
C13 C16 1.485 . S
N14 C13 1.317 . S
N14 N18 1.370 . S
N15 C13 1.351 . S
N15 C17 1.349 1_654 S
C16 C13 1.485 . S
C16 H20 0.960 1_655 S
C16 H21 0.961 . S
C16 H22 0.960 . S
C17 N15 1.349 1_456 S
C17 N18 1.306 1_456 S
C17 C19 1.486 . S
N18 N14 1.370 . S
N18 C17 1.306 1_654 S
C19 C17 1.486 . S
C19 H23 0.925 1_455 S
C19 H24 0.992 . S
C19 H25 0.963 . S
H20 C16 0.960 1_455 S
H21 C16 0.961 . S
H22 C16 0.960 . S
H23 C19 0.925 1_655 S
H24 C19 0.992 . S
H25 C19 0.963 . S
C26 N27 1.317 . S
C26 N28 1.348 . S
C26 C29 1.485 . S
N27 C26 1.317 . S
N27 N31 1.370 1_554 S
N28 C26 1.348 . S
N28 C30 1.346 1_554 S
C29 C26 1.485 . S
C29 H33 0.960 . S
C29 H34 0.961 . S
C29 H35 0.960 . S
C30 N28 1.346 1_556 S
C30 N31 1.307 . S
C30 C32 1.486 . S
N31 N27 1.370 1_556 S
N31 C30 1.307 . S
C32 C30 1.486 . S
C32 H36 0.960 . S
C32 H37 0.960 . S
C32 H38 0.959 . S
H33 C29 0.960 . S
H34 C29 0.961 . S
H35 C29 0.960 . S
H36 C32 0.960 . S
H37 C32 0.960 . S
H38 C32 0.959 . S
C39 N40 1.317 . S
C39 N41 1.348 . S
C39 C42 1.485 . S
N40 C39 1.317 . S
N40 N44 1.370 . S
N41 C39 1.348 . S
N41 C43 1.346 . S
C42 C39 1.485 . S
C42 H46 0.960 . S
C42 H47 0.961 . S
C42 H48 0.960 . S
C43 N41 1.346 . S
C43 N44 1.307 . S
C43 C45 1.486 1_554 S
N44 N40 1.370 . S
N44 C43 1.307 . S
C45 C43 1.486 1_556 S
C45 H49 0.960 . S
C45 H50 0.960 . S
C45 H51 0.959 . S
H46 C42 0.960 . S
H47 C42 0.961 . S
H48 C42 0.960 . S
H49 C45 0.960 . S
H50 C45 0.960 . S
H51 C45 0.959 . S
C52 N53 1.317 . S
C52 N54 1.348 . S
C52 C55 1.485 1_554 S
N53 C52 1.317 . S
N53 N57 1.370 . S
N54 C52 1.348 . S
N54 C56 1.346 . S
C55 C52 1.485 1_556 S
C55 H59 0.960 . S
C55 H60 0.961 . S
C55 H61 0.960 . S
C56 N54 1.346 . S
C56 N57 1.307 . S
C56 C58 1.486 . S
N57 N53 1.370 . S
N57 C56 1.307 . S
C58 C56 1.486 . S
C58 H62 0.960 . S
C58 H63 0.960 . S
C58 H64 0.959 . S
H59 C55 0.960 . S
H60 C55 0.961 . S
H61 C55 0.960 . S
H62 C58 0.960 . S
H63 C58 0.960 . S
H64 C58 0.959 . S
C65 N66 1.317 . S
C65 N67 1.349 . S
C65 C68 1.485 1_554 S
N66 C65 1.317 . S
N66 N70 1.370 . S
N67 C65 1.349 . S
N67 C69 1.342 1_655 S
C68 C65 1.485 1_556 S
C68 H72 0.960 1_655 S
C68 H73 0.961 . S
C68 H74 0.960 . S
C69 N67 1.342 1_455 S
C69 N70 1.307 1_455 S
C69 C71 1.485 . S
N70 N66 1.370 . S
N70 C69 1.307 1_655 S
C71 C69 1.485 . S
C71 H75 0.912 1_455 S
C71 H76 0.996 . S
C71 H77 0.975 . S
H72 C68 0.960 1_455 S
H73 C68 0.961 . S
H74 C68 0.960 . S
H75 C71 0.912 1_655 S
H76 C71 0.996 . S
H77 C71 0.975 . S
C78 N79 1.317 . S
C78 N80 1.348 . S
C78 C81 1.482 1_554 S
N79 C78 1.317 . S
N79 N83 1.370 . S
N80 C78 1.348 . S
N80 C82 1.346 . S
C81 C78 1.482 1_556 S
C81 H85 0.961 . S
C81 H86 0.961 1_556 S
C81 H87 0.961 . S
C82 N80 1.346 . S
C82 N83 1.307 . S
C82 C84 1.486 . S
N83 N79 1.370 . S
N83 C82 1.307 . S
C84 C82 1.486 . S
C84 H88 0.960 . S
C84 H89 0.960 . S
C84 H90 0.959 . S
H85 C81 0.961 . S
H86 C81 0.961 1_554 S
H87 C81 0.961 . S
H88 C84 0.960 . S
H89 C84 0.960 . S
H90 C84 0.959 . S
C91 N92 1.317 . S
C91 N93 1.348 1_556 S
C91 C94 1.485 . S
N92 C91 1.317 . S
N92 N96 1.370 1_556 S
N93 C91 1.348 1_554 S
N93 C95 1.346 . S
C94 C91 1.485 . S
C94 H98 0.960 . S
C94 H99 0.961 . S
C94 H100 0.960 . S
C95 N93 1.346 . S
C95 N96 1.307 . S
C95 C97 1.486 . S
N96 N92 1.370 1_554 S
N96 C95 1.307 . S
C97 C95 1.486 . S
C97 H101 0.960 . S
C97 H102 0.960 . S
C97 H103 0.959 . S
H98 C94 0.960 . S
H99 C94 0.961 . S
H100 C94 0.960 . S
H101 C97 0.960 . S
H102 C97 0.960 . S
H103 C97 0.959 . S
Dy104 O108 2.398 . S
Dy104 O109 2.491 1_455 S
Dy104 O110 2.403 . S
Dy104 O111 2.664 1_565 S
Dy104 O115 2.326 . S
Dy104 O119 2.310 1_455 S
Dy104 O120 2.351 1_565 S
C105 O116 1.185 . S
C105 O117 1.355 1_655 S
C106 O108 1.185 . S
C106 O109 1.355 1_455 S
Dy107 O111 2.310 1_655 S
Dy107 O114 2.351 1_545 S
Dy107 O116 2.398 . S
Dy107 O117 2.491 1_655 S
Dy107 O118 2.403 . S
Dy107 O119 2.664 1_545 S
Dy107 O121 2.326 . S
O108 Dy104 2.398 . S
O108 C106 1.185 . S
O109 Dy104 2.491 1_655 S
O109 C106 1.355 1_655 S
O110 Dy104 2.403 . S
O110 C112 1.254 1_565 S
O111 Dy104 2.664 1_545 S
O111 Dy107 2.310 1_455 S
O111 C112 1.268 . S
C112 O110 1.254 1_545 S
C112 O111 1.268 . S
C113 O118 1.254 1_565 S
C113 O119 1.268 . S
O114 Dy107 2.351 1_565 S
O114 C122 1.249 . S
O115 Dy104 2.326 . S
O115 C122 1.267 1_455 S
O116 C105 1.185 . S
O116 Dy107 2.398 . S
O117 C105 1.355 1_455 S
O117 Dy107 2.491 1_455 S
O118 Dy107 2.403 . S
O118 C113 1.254 1_545 S
O119 Dy104 2.310 1_655 S
O119 Dy107 2.664 1_565 S
O119 C113 1.268 . S
O120 Dy104 2.351 1_545 S
O120 C123 1.249 . S
O121 Dy107 2.326 . S
O121 C123 1.267 1_655 S
C122 O114 1.249 . S
C122 O115 1.267 1_655 S
C123 O120 1.249 . S
C123 O121 1.267 1_455 S
Dy124 O128 2.398 . S
Dy124 O129 2.491 1_565 S
Dy124 O130 2.403 . S
Dy124 O131 2.664 . S
Dy124 O135 2.326 1_565 S
Dy124 O139 2.310 1_565 S
Dy124 O140 2.351 . S
C125 O136 1.196 . S
C125 O137 1.352 1_545 S
C126 O128 1.185 1_545 S
C126 O129 1.355 . S
Dy127 O131 2.310 1_545 S
Dy127 O134 2.351 . S
Dy127 O136 2.398 . S
Dy127 O137 2.491 1_545 S
Dy127 O138 2.403 . S
Dy127 O139 2.664 . S
Dy127 O141 2.326 1_545 S
O128 Dy124 2.398 . S
O128 C126 1.185 1_565 S
O129 Dy124 2.491 1_545 S
O129 C126 1.355 . S
O130 Dy124 2.403 . S
O130 C132 1.254 . S
O131 Dy124 2.664 . S
O131 Dy127 2.310 1_565 S
O131 C132 1.268 . S
C132 O130 1.254 . S
C132 O131 1.268 . S
C133 O138 1.254 . S
C133 O139 1.268 . S
O134 Dy127 2.351 . S
O134 C142 1.249 . S
O135 Dy124 2.326 1_545 S
O135 C142 1.267 . S
O136 C125 1.196 . S
O136 Dy127 2.398 . S
O137 C125 1.352 1_565 S
O137 Dy127 2.491 1_565 S
O138 Dy127 2.403 . S
O138 C133 1.254 . S
O139 Dy124 2.310 1_545 S
O139 Dy127 2.664 . S
O139 C133 1.268 . S
O140 Dy124 2.351 . S
O140 C143 1.249 . S
O141 Dy127 2.326 1_565 S
O141 C143 1.267 . S
C142 O134 1.249 . S
C142 O135 1.267 . S
C143 O140 1.249 . S
C143 O141 1.267 . S
Dy144 O148 2.398 . S
Dy144 O149 2.491 . S
Dy144 O150 2.403 . S
Dy144 O151 2.664 . S
Dy144 O155 2.326 . S
Dy144 O159 2.310 . S
Dy144 O160 2.351 . S
C145 O156 1.185 . S
C145 O157 1.355 . S
C146 O148 1.185 . S
C146 O149 1.355 . S
Dy147 O151 2.310 . S
Dy147 O154 2.351 . S
Dy147 O156 2.398 . S
Dy147 O157 2.491 . S
Dy147 O158 2.403 . S
Dy147 O159 2.664 . S
Dy147 O161 2.326 . S
O148 Dy144 2.398 . S
O148 C146 1.185 . S
O149 Dy144 2.491 . S
O149 C146 1.355 . S
O150 Dy144 2.403 . S
O150 C152 1.254 . S
O151 Dy144 2.664 . S
O151 Dy147 2.310 . S
O151 C152 1.268 . S
C152 O150 1.254 . S
C152 O151 1.268 . S
C153 O158 1.254 . S
C153 O159 1.268 . S
O154 Dy147 2.351 . S
O154 C162 1.249 . S
O155 Dy144 2.326 . S
O155 C162 1.267 . S
O156 C145 1.185 . S
O156 Dy147 2.398 . S
O157 C145 1.355 . S
O157 Dy147 2.491 . S
O158 Dy147 2.403 . S
O158 C153 1.254 . S
O159 Dy144 2.310 . S
O159 Dy147 2.664 . S
O159 C153 1.268 . S
O160 Dy144 2.351 . S
O160 C163 1.249 . S
O161 Dy147 2.326 . S
O161 C163 1.267 . S
C162 O154 1.249 . S
C162 O155 1.267 . S
C163 O160 1.249 . S
C163 O161 1.267 . S
Dy164 O168 2.398 . S
Dy164 O169 2.491 . S
Dy164 O170 2.403 . S
Dy164 O171 2.664 1_655 S
Dy164 O175 2.326 . S
Dy164 O179 2.310 . S
Dy164 O180 2.351 1_655 S
C165 O176 1.185 . S
C165 O177 1.355 . S
C166 O168 1.185 . S
C166 O169 1.355 . S
Dy167 O171 2.310 . S
Dy167 O174 2.351 1_455 S
Dy167 O176 2.398 . S
Dy167 O177 2.491 . S
Dy167 O178 2.403 . S
Dy167 O179 2.664 1_455 S
Dy167 O181 2.326 . S
O168 Dy164 2.398 . S
O168 C166 1.185 . S
O169 Dy164 2.491 . S
O169 C166 1.355 . S
O170 Dy164 2.403 . S
O170 C172 1.254 . S
O171 Dy164 2.664 1_455 S
O171 Dy167 2.310 . S
O171 C172 1.268 1_455 S
C172 O170 1.254 . S
C172 O171 1.268 1_655 S
C173 O178 1.254 . S
C173 O179 1.268 1_455 S
O174 Dy167 2.351 1_655 S
O174 C182 1.249 . S
O175 Dy164 2.326 . S
O175 C182 1.267 . S
O176 C165 1.185 . S
O176 Dy167 2.398 . S
O177 C165 1.355 . S
O177 Dy167 2.491 . S
O178 Dy167 2.403 . S
O178 C173 1.254 . S
O179 Dy164 2.310 . S
O179 Dy167 2.664 1_655 S
O179 C173 1.268 1_655 S
O180 Dy164 2.351 1_455 S
O180 C183 1.249 . S
O181 Dy167 2.326 . S
O181 C183 1.267 . S
C182 O174 1.249 . S
C182 O175 1.267 . S
C183 O180 1.249 . S
C183 O181 1.267 . S
C184 C185 1.349 . S
C184 C186 1.327 . S
C184 H209 0.950 . S
C185 C184 1.349 . S
C185 C201 1.349 . S
C186 C184 1.327 . S
C186 C205 1.429 . S
C186 H210 0.950 . S
C187 C204 1.574 . S
C187 C206 1.368 . S
C187 H211 0.949 . S
H188 C192 0.949 . S
C189 C190 1.349 . S
C189 C191 1.327 . S
C189 H212 0.950 . S
C190 C189 1.349 . S
C190 C202 1.349 . S
C191 C189 1.327 . S
C191 C207 1.429 . S
C191 H213 0.950 . S
C192 H188 0.949 . S
C192 C200 1.574 . S
C192 C208 1.368 . S
H193 C201 0.950 . S
H194 C199 0.950 . S
H195 C200 0.949 . S
H196 C202 0.950 . S
H197 C203 0.950 . S
H198 C204 0.949 . S
C199 H194 0.950 . S
C199 C201 1.327 . S
C199 C205 1.429 . S
C200 C192 1.574 . S
C200 H195 0.949 . S
C200 C206 1.368 . S
C201 C185 1.349 . S
C201 H193 0.950 . S
C201 C199 1.327 . S
C202 C190 1.349 . S
C202 H196 0.950 . S
C202 C203 1.327 . S
C203 H197 0.950 . S
C203 C202 1.327 . S
C203 C207 1.429 . S
C204 C187 1.574 . S
C204 H198 0.949 . S
C204 C208 1.368 . S
C205 C186 1.429 . S
C205 C199 1.429 . S
C205 C206 1.523 . S
C206 C187 1.368 . S
C206 C200 1.368 . S
C206 C205 1.523 . S
C207 C191 1.429 . S
C207 C203 1.429 . S
C207 C208 1.523 . S
C208 C192 1.368 . S
C208 C204 1.368 . S
C208 C207 1.523 . S
H209 C184 0.950 . S
H210 C186 0.950 . S
H211 C187 0.949 . S
H212 C189 0.950 . S
H213 C191 0.950 . S
C214 C215 1.349 . S
C214 C216 1.327 . S
C214 H239 0.950 . S
C215 C214 1.349 . S
C215 C231 1.349 . S
C216 C214 1.327 . S
C216 C235 1.429 . S
C216 H240 0.950 . S
C217 C234 1.574 . S
C217 C236 1.368 . S
C217 H241 0.949 . S
H218 C222 0.949 . S
C219 C220 1.349 . S
C219 C221 1.327 . S
C219 H242 0.950 . S
C220 C219 1.349 . S
C220 C232 1.349 . S
C221 C219 1.327 . S
C221 C237 1.429 . S
C221 H243 0.950 . S
C222 H218 0.949 . S
C222 C230 1.574 . S
C222 C238 1.368 . S
H223 C231 0.950 . S
H224 C229 0.950 . S
H225 C230 0.949 . S
H226 C232 0.950 . S
H227 C233 0.950 . S
H228 C234 0.949 . S
C229 H224 0.950 . S
C229 C231 1.327 . S
C229 C235 1.429 . S
C230 C222 1.574 . S
C230 H225 0.949 . S
C230 C236 1.368 . S
C231 C215 1.349 . S
C231 H223 0.950 . S
C231 C229 1.327 . S
C232 C220 1.349 . S
C232 H226 0.950 . S
C232 C233 1.327 . S
C233 H227 0.950 . S
C233 C232 1.327 . S
C233 C237 1.429 . S
C234 C217 1.574 . S
C234 H228 0.949 . S
C234 C238 1.368 . S
C235 C216 1.429 . S
C235 C229 1.429 . S
C235 C236 1.523 . S
C236 C217 1.368 . S
C236 C230 1.368 . S
C236 C235 1.523 . S
C237 C221 1.429 . S
C237 C233 1.429 . S
C237 C238 1.523 . S
C238 C222 1.368 . S
C238 C234 1.368 . S
C238 C237 1.523 . S
H239 C214 0.950 . S
H240 C216 0.950 . S
H241 C217 0.949 . S
H242 C219 0.950 . S
H243 C221 0.950 . S
C244 C245 1.349 . S
C244 C246 1.327 . S
C244 H269 0.950 . S
C245 C244 1.349 . S
C245 C261 1.349 . S
C246 C244 1.327 . S
C246 C265 1.429 . S
C246 H270 0.950 . S
C247 C264 1.574 . S
C247 C266 1.368 . S
C247 H271 0.949 . S
H248 C252 0.949 . S
C249 C250 1.349 . S
C249 C251 1.327 . S
C249 H272 0.950 . S
C250 C249 1.349 . S
C250 C262 1.349 . S
C251 C249 1.327 . S
C251 C267 1.429 . S
C251 H273 0.950 . S
C252 H248 0.949 . S
C252 C260 1.574 . S
C252 C268 1.368 . S
H253 C261 0.950 . S
H254 C259 0.950 . S
H255 C260 0.949 . S
H256 C262 0.950 . S
H257 C263 0.950 . S
H258 C264 0.949 . S
C259 H254 0.950 . S
C259 C261 1.327 . S
C259 C265 1.429 . S
C260 C252 1.574 . S
C260 H255 0.949 . S
C260 C266 1.368 . S
C261 C245 1.349 . S
C261 H253 0.950 . S
C261 C259 1.327 . S
C262 C250 1.349 . S
C262 H256 0.950 . S
C262 C263 1.327 . S
C263 H257 0.950 . S
C263 C262 1.327 . S
C263 C267 1.429 . S
C264 C247 1.574 . S
C264 H258 0.949 . S
C264 C268 1.368 . S
C265 C246 1.429 . S
C265 C259 1.429 . S
C265 C266 1.523 . S
C266 C247 1.368 . S
C266 C260 1.368 . S
C266 C265 1.523 . S
C267 C251 1.429 . S
C267 C263 1.429 . S
C267 C268 1.523 . S
C268 C252 1.368 . S
C268 C264 1.368 . S
C268 C267 1.523 . S
H269 C244 0.950 . S
H270 C246 0.950 . S
H271 C247 0.949 . S
H272 C249 0.950 . S
H273 C251 0.950 . S
C274 C275 1.351 1_655 S
C274 C276 1.327 . S
C274 H299 0.950 . S
C275 C274 1.351 1_455 S
C275 C291 1.347 . S
C276 C274 1.327 . S
C276 C295 1.432 . S
C276 H300 0.950 . S
C277 C294 1.574 . S
C277 C296 1.359 1_455 S
C277 H301 0.949 . S
H278 C282 0.949 . S
C279 C280 1.315 1_455 S
C279 C281 1.327 . S
C279 H302 0.950 . S
C280 C279 1.315 1_655 S
C280 C292 1.381 . S
C281 C279 1.327 . S
C281 C297 1.408 1_455 S
C281 H303 0.950 . S
C282 H278 0.949 . S
C282 C290 1.574 . S
C282 C298 1.387 . S
H283 C291 0.950 . S
H284 C289 0.950 . S
H285 C290 0.949 . S
H286 C292 0.950 . S
H287 C293 0.950 . S
H288 C294 0.949 . S
C289 H284 0.950 . S
C289 C291 1.327 . S
C289 C295 1.425 1_455 S
C290 C282 1.574 . S
C290 H285 0.949 . S
C290 C296 1.378 . S
C291 C275 1.347 . S
C291 H283 0.950 . S
C291 C289 1.327 . S
C292 C280 1.381 . S
C292 H286 0.950 . S
C292 C293 1.327 . S
C293 H287 0.950 . S
C293 C292 1.327 . S
C293 C297 1.453 . S
C294 C277 1.574 . S
C294 H288 0.949 . S
C294 C298 1.349 1_455 S
C295 C276 1.432 . S
C295 C289 1.425 1_655 S
C295 C296 1.522 . S
C296 C277 1.359 1_655 S
C296 C290 1.378 . S
C296 C295 1.522 . S
C297 C281 1.408 1_655 S
C297 C293 1.453 . S
C297 C298 1.522 . S
C298 C282 1.387 . S
C298 C294 1.349 1_655 S
C298 C297 1.522 . S
H299 C274 0.950 . S
H300 C276 0.950 . S
H301 C277 0.949 . S
H302 C279 0.950 . S
H303 C281 0.950 . S
C304 C305 1.349 . S
C304 C306 1.327 . S
C304 H329 0.950 . S
C305 C304 1.349 . S
C305 C321 1.349 . S
C306 C304 1.327 . S
C306 C325 1.429 . S
C306 H330 0.950 . S
C307 C324 1.574 . S
C307 C326 1.368 . S
C307 H331 0.949 . S
H308 C312 0.949 1_545 S
C309 C310 1.349 . S
C309 C311 1.327 . S
C309 H332 0.950 . S
C310 C309 1.349 . S
C310 C322 1.349 1_565 S
C311 C309 1.327 . S
C311 C327 1.429 . S
C311 H333 0.950 . S
C312 H308 0.949 1_565 S
C312 C320 1.574 . S
C312 C328 1.368 . S
H313 C321 0.950 . S
H314 C319 0.950 . S
H315 C320 0.949 1_545 S
H316 C322 0.950 . S
H317 C323 0.950 . S
H318 C324 0.949 . S
C319 H314 0.950 . S
C319 C321 1.327 . S
C319 C325 1.429 . S
C320 C312 1.574 . S
C320 H315 0.949 1_565 S
C320 C326 1.368 . S
C321 C305 1.349 . S
C321 H313 0.950 . S
C321 C319 1.327 . S
C322 C310 1.349 1_545 S
C322 H316 0.950 . S
C322 C323 1.327 . S
C323 H317 0.950 . S
C323 C322 1.327 . S
C323 C327 1.429 1_545 S
C324 C307 1.574 . S
C324 H318 0.949 . S
C324 C328 1.368 . S
C325 C306 1.429 . S
C325 C319 1.429 . S
C325 C326 1.523 . S
C326 C307 1.368 . S
C326 C320 1.368 . S
C326 C325 1.523 . S
C327 C311 1.429 . S
C327 C323 1.429 1_565 S
C327 C328 1.523 . S
C328 C312 1.368 . S
C328 C324 1.368 . S
C328 C327 1.523 . S
H329 C304 0.950 . S
H330 C306 0.950 . S
H331 C307 0.949 . S
H332 C309 0.950 . S
H333 C311 0.950 . S
C334 C335 1.349 . S
C334 C336 1.327 . S
C334 H359 0.950 . S
C335 C334 1.349 . S
C335 C351 1.349 . S
C336 C334 1.327 . S
C336 C355 1.429 1_554 S
C336 H360 0.950 . S
C337 C354 1.574 . S
C337 C356 1.368 . S
C337 H361 0.949 . S
H338 C342 0.949 . S
C339 C340 1.349 . S
C339 C341 1.327 . S
C339 H362 0.950 . S
C340 C339 1.349 . S
C340 C352 1.349 . S
C341 C339 1.327 . S
C341 C357 1.429 . S
C341 H363 0.950 . S
C342 H338 0.949 . S
C342 C350 1.574 . S
C342 C358 1.368 . S
H343 C351 0.950 1_556 S
H344 C349 0.950 . S
H345 C350 0.949 . S
H346 C352 0.950 . S
H347 C353 0.950 . S
H348 C354 0.949 . S
C349 H344 0.950 . S
C349 C351 1.327 1_556 S
C349 C355 1.429 . S
C350 C342 1.574 . S
C350 H345 0.949 . S
C350 C356 1.368 . S
C351 C335 1.349 . S
C351 H343 0.950 1_554 S
C351 C349 1.327 1_554 S
C352 C340 1.349 . S
C352 H346 0.950 . S
C352 C353 1.327 . S
C353 H347 0.950 . S
C353 C352 1.327 . S
C353 C357 1.429 . S
C354 C337 1.574 . S
C354 H348 0.949 . S
C354 C358 1.368 . S
C355 C336 1.429 1_556 S
C355 C349 1.429 . S
C355 C356 1.523 . S
C356 C337 1.368 . S
C356 C350 1.368 . S
C356 C355 1.523 . S
C357 C341 1.429 . S
C357 C353 1.429 . S
C357 C358 1.523 . S
C358 C342 1.368 . S
C358 C354 1.368 . S
C358 C357 1.523 . S
H359 C334 0.950 . S
H360 C336 0.950 . S
H361 C337 0.949 . S
H362 C339 0.950 . S
H363 C341 0.950 . S
C364 C365 1.349 1_556 S
C364 C366 1.327 . S
C364 H389 0.950 . S
C365 C364 1.349 1_554 S
C365 C381 1.349 . S
C366 C364 1.327 . S
C366 C385 1.429 . S
C366 H390 0.950 . S
C367 C384 1.574 . S
C367 C386 1.368 . S
C367 H391 0.949 . S
H368 C372 0.949 . S
C369 C370 1.349 . S
C369 C371 1.327 . S
C369 H392 0.950 . S
C370 C369 1.349 . S
C370 C382 1.349 . S
C371 C369 1.327 . S
C371 C387 1.429 . S
C371 H393 0.950 . S
C372 H368 0.949 . S
C372 C380 1.574 . S
C372 C388 1.368 . S
H373 C381 0.950 . S
H374 C379 0.950 . S
H375 C380 0.949 . S
H376 C382 0.950 . S
H377 C383 0.950 . S
H378 C384 0.949 . S
C379 H374 0.950 . S
C379 C381 1.327 1_556 S
C379 C385 1.429 . S
C380 C372 1.574 . S
C380 H375 0.949 . S
C380 C386 1.368 . S
C381 C365 1.349 . S
C381 H373 0.950 . S
C381 C379 1.327 1_554 S
C382 C370 1.349 . S
C382 H376 0.950 . S
C382 C383 1.327 . S
C383 H377 0.950 . S
C383 C382 1.327 . S
C383 C387 1.429 . S
C384 C367 1.574 . S
C384 H378 0.949 . S
C384 C388 1.368 . S
C385 C366 1.429 . S
C385 C379 1.429 . S
C385 C386 1.523 . S
C386 C367 1.368 . S
C386 C380 1.368 . S
C386 C385 1.523 . S
C387 C371 1.429 . S
C387 C383 1.429 . S
C387 C388 1.523 . S
C388 C372 1.368 . S
C388 C384 1.368 . S
C388 C387 1.523 . S
H389 C364 0.950 . S
H390 C366 0.950 . S
H391 C367 0.949 . S
H392 C369 0.950 . S
H393 C371 0.950 . S
C394 C395 1.362 1_455 S
C394 C396 1.327 . S
C394 H419 0.950 . S
C395 C394 1.362 1_655 S
C395 C411 1.343 1_556 S
C396 C394 1.327 . S
C396 C415 1.430 . S
C396 H420 0.950 . S
C397 C414 1.574 . S
C397 C416 1.365 1_655 S
C397 H421 0.949 . S
H398 C402 0.949 . S
C399 C400 1.335 1_655 S
C399 C401 1.327 . S
C399 H422 0.950 . S
C400 C399 1.335 1_455 S
C400 C412 1.362 . S
C401 C399 1.327 . S
C401 C417 1.421 1_655 S
C401 H423 0.950 . S
C402 H398 0.949 . S
C402 C410 1.574 . S
C402 C418 1.376 . S
H403 C411 0.950 . S
H404 C409 0.950 1_554 S
H405 C410 0.949 . S
H406 C412 0.950 . S
H407 C413 0.950 . S
H408 C414 0.949 . S
C409 H404 0.950 1_556 S
C409 C411 1.327 1_556 S
C409 C415 1.427 1_655 S
C410 C402 1.574 . S
C410 H405 0.949 . S
C410 C416 1.373 . S
C411 C395 1.343 1_554 S
C411 H403 0.950 . S
C411 C409 1.327 1_554 S
C412 C400 1.362 . S
C412 H406 0.950 . S
C412 C413 1.327 . S
C413 H407 0.950 . S
C413 C412 1.327 . S
C413 C417 1.439 . S
C414 C397 1.574 . S
C414 H408 0.949 . S
C414 C418 1.360 1_655 S
C415 C396 1.430 . S
C415 C409 1.427 1_455 S
C415 C416 1.522 . S
C416 C397 1.365 1_455 S
C416 C410 1.373 . S
C416 C415 1.522 . S
C417 C401 1.421 1_455 S
C417 C413 1.439 . S
C417 C418 1.522 . S
C418 C402 1.376 . S
C418 C414 1.360 1_455 S
C418 C417 1.522 . S
H419 C394 0.950 . S
H420 C396 0.950 . S
H421 C397 0.949 . S
H422 C399 0.950 . S
H423 C401 0.950 . S
C424 C425 1.351 . S
C424 C426 1.327 . S
C424 H449 0.950 . S
C425 C424 1.351 . S
C425 C441 1.347 1_455 S
C426 C424 1.327 . S
C426 C445 1.429 1_455 S
C426 H450 0.950 . S
C427 C444 1.574 . S
C427 C446 1.368 . S
C427 H451 0.949 . S
H428 C432 0.949 . S
C429 C430 1.349 . S
C429 C431 1.327 . S
C429 H452 0.950 . S
C430 C429 1.349 . S
C430 C442 1.349 . S
C431 C429 1.327 . S
C431 C447 1.429 . S
C431 H453 0.950 . S
C432 H428 0.949 . S
C432 C440 1.574 . S
C432 C448 1.368 1_455 S
H433 C441 0.950 . S
H434 C439 0.950 . S
H435 C440 0.949 . S
H436 C442 0.950 1_455 S
H437 C443 0.950 1_455 S
H438 C444 0.949 . S
C439 H434 0.950 . S
C439 C441 1.327 . S
C439 C445 1.429 . S
C440 C432 1.574 . S
C440 H435 0.949 . S
C440 C446 1.368 1_455 S
C441 C425 1.347 1_655 S
C441 H433 0.950 . S
C441 C439 1.327 . S
C442 C430 1.349 . S
C442 H436 0.950 1_655 S
C442 C443 1.327 . S
C443 H437 0.950 1_655 S
C443 C442 1.327 . S
C443 C447 1.429 . S
C444 C427 1.574 . S
C444 H438 0.949 . S
C444 C448 1.368 . S
C445 C426 1.429 1_655 S
C445 C439 1.429 . S
C445 C446 1.523 . S
C446 C427 1.368 . S
C446 C440 1.368 1_655 S
C446 C445 1.523 . S
C447 C431 1.429 . S
C447 C443 1.429 . S
C447 C448 1.523 . S
C448 C432 1.368 1_655 S
C448 C444 1.368 . S
C448 C447 1.523 . S
H449 C424 0.950 . S
H450 C426 0.950 . S
H451 C427 0.949 . S
H452 C429 0.950 . S
H453 C431 0.950 . S
C454 C455 1.349 . S
C454 C456 1.327 . S
C454 H479 0.950 . S
C455 C454 1.349 . S
C455 C471 1.349 . S
C456 C454 1.327 . S
C456 C475 1.429 . S
C456 H480 0.950 . S
C457 C474 1.574 . S
C457 C476 1.368 . S
C457 H481 0.949 . S
H458 C462 0.949 . S
C459 C460 1.349 1_565 S
C459 C461 1.327 . S
C459 H482 0.950 . S
C460 C459 1.349 1_545 S
C460 C472 1.349 . S
C461 C459 1.327 . S
C461 C477 1.429 1_565 S
C461 H483 0.950 . S
C462 H458 0.949 . S
C462 C470 1.574 . S
C462 C478 1.368 . S
H463 C471 0.950 . S
H464 C469 0.950 . S
H465 C470 0.949 . S
H466 C472 0.950 . S
H467 C473 0.950 . S
H468 C474 0.949 1_565 S
C469 H464 0.950 . S
C469 C471 1.327 . S
C469 C475 1.429 . S
C470 C462 1.574 . S
C470 H465 0.949 . S
C470 C476 1.368 . S
C471 C455 1.349 . S
C471 H463 0.950 . S
C471 C469 1.327 . S
C472 C460 1.349 . S
C472 H466 0.950 . S
C472 C473 1.327 . S
C473 H467 0.950 . S
C473 C472 1.327 . S
C473 C477 1.429 . S
C474 C457 1.574 . S
C474 H468 0.949 1_545 S
C474 C478 1.368 . S
C475 C456 1.429 . S
C475 C469 1.429 . S
C475 C476 1.523 . S
C476 C457 1.368 . S
C476 C470 1.368 . S
C476 C475 1.523 . S
C477 C461 1.429 1_545 S
C477 C473 1.429 . S
C477 C478 1.523 . S
C478 C462 1.368 . S
C478 C474 1.368 . S
C478 C477 1.523 . S
H479 C454 0.950 . S
H480 C456 0.950 . S
H481 C457 0.949 . S
H482 C459 0.950 . S
H483 C461 0.950 . S
C484 C485 1.349 . S
C484 C486 1.327 . S
C484 H509 0.950 . S
C485 C484 1.349 . S
C485 C501 1.349 . S
C486 C484 1.327 . S
C486 C505 1.429 . S
C486 H510 0.950 . S
C487 C504 1.574 . S
C487 C506 1.368 . S
C487 H511 0.949 . S
H488 C492 0.949 . S
C489 C490 1.349 . S
C489 C491 1.327 . S
C489 H512 0.950 . S
C490 C489 1.349 . S
C490 C502 1.349 . S
C491 C489 1.327 . S
C491 C507 1.429 . S
C491 H513 0.950 . S
C492 H488 0.949 . S
C492 C500 1.574 . S
C492 C508 1.368 . S
H493 C501 0.950 . S
H494 C499 0.950 . S
H495 C500 0.949 . S
H496 C502 0.950 . S
H497 C503 0.950 . S
H498 C504 0.949 . S
C499 H494 0.950 . S
C499 C501 1.327 . S
C499 C505 1.429 . S
C500 C492 1.574 . S
C500 H495 0.949 . S
C500 C506 1.368 . S
C501 C485 1.349 . S
C501 H493 0.950 . S
C501 C499 1.327 . S
C502 C490 1.349 . S
C502 H496 0.950 . S
C502 C503 1.327 . S
C503 H497 0.950 . S
C503 C502 1.327 . S
C503 C507 1.429 . S
C504 C487 1.574 . S
C504 H498 0.949 . S
C504 C508 1.368 . S
C505 C486 1.429 . S
C505 C499 1.429 . S
C505 C506 1.523 . S
C506 C487 1.368 . S
C506 C500 1.368 . S
C506 C505 1.523 . S
C507 C491 1.429 . S
C507 C503 1.429 . S
C507 C508 1.523 . S
C508 C492 1.368 . S
C508 C504 1.368 . S
C508 C507 1.523 . S
H509 C484 0.950 . S
H510 C486 0.950 . S
H511 C487 0.949 . S
H512 C489 0.950 . S
H513 C491 0.950 . S
C514 C515 1.349 . S
C514 C516 1.327 . S
C514 H539 0.950 . S
C515 C514 1.349 . S
C515 C531 1.349 . S
C516 C514 1.327 . S
C516 C535 1.429 . S
C516 H540 0.950 . S
C517 C534 1.574 . S
C517 C536 1.368 . S
C517 H541 0.949 . S
H518 C522 0.949 . S
C519 C520 1.349 . S
C519 C521 1.327 . S
C519 H542 0.950 . S
C520 C519 1.349 . S
C520 C532 1.349 . S
C521 C519 1.327 . S
C521 C537 1.429 . S
C521 H543 0.950 . S
C522 H518 0.949 . S
C522 C530 1.574 . S
C522 C538 1.368 . S
H523 C531 0.950 . S
H524 C529 0.950 . S
H525 C530 0.949 . S
H526 C532 0.950 . S
H527 C533 0.950 . S
H528 C534 0.949 . S
C529 H524 0.950 . S
C529 C531 1.327 . S
C529 C535 1.429 . S
C530 C522 1.574 . S
C530 H525 0.949 . S
C530 C536 1.368 . S
C531 C515 1.349 . S
C531 H523 0.950 . S
C531 C529 1.327 . S
C532 C520 1.349 . S
C532 H526 0.950 . S
C532 C533 1.327 . S
C533 H527 0.950 . S
C533 C532 1.327 . S
C533 C537 1.429 . S
C534 C517 1.574 . S
C534 H528 0.949 . S
C534 C538 1.368 . S
C535 C516 1.429 . S
C535 C529 1.429 . S
C535 C536 1.523 . S
C536 C517 1.368 . S
C536 C530 1.368 . S
C536 C535 1.523 . S
C537 C521 1.429 . S
C537 C533 1.429 . S
C537 C538 1.523 . S
C538 C522 1.368 . S
C538 C534 1.368 . S
C538 C537 1.523 . S
H539 C514 0.950 . S
H540 C516 0.950 . S
H541 C517 0.949 . S
H542 C519 0.950 . S
H543 C521 0.950 . S
C544 C545 1.354 . S
C544 C546 1.327 . S
C544 H569 0.950 . S
C545 C544 1.354 . S
C545 C561 1.344 1_656 S
C546 C544 1.327 . S
C546 C565 1.429 1_655 S
C546 H570 0.950 . S
C547 C564 1.574 . S
C547 C566 1.368 . S
C547 H571 0.949 . S
H548 C552 0.949 . S
C549 C550 1.349 . S
C549 C551 1.327 . S
C549 H572 0.950 . S
C550 C549 1.349 . S
C550 C562 1.349 1_455 S
C551 C549 1.327 . S
C551 C567 1.429 . S
C551 H573 0.950 . S
C552 H548 0.949 . S
C552 C560 1.574 . S
C552 C568 1.368 1_655 S
H553 C561 0.950 . S
H554 C559 0.950 . S
H555 C560 0.949 . S
H556 C562 0.950 . S
H557 C563 0.950 . S
H558 C564 0.949 . S
C559 H554 0.950 . S
C559 C561 1.327 1_556 S
C559 C565 1.429 . S
C560 C552 1.574 . S
C560 H555 0.949 . S
C560 C566 1.368 1_655 S
C561 C545 1.344 1_454 S
C561 H553 0.950 . S
C561 C559 1.327 1_554 S
C562 C550 1.349 1_655 S
C562 H556 0.950 . S
C562 C563 1.327 . S
C563 H557 0.950 . S
C563 C562 1.327 . S
C563 C567 1.429 1_655 S
C564 C547 1.574 . S
C564 H558 0.949 . S
C564 C568 1.368 . S
C565 C546 1.429 1_455 S
C565 C559 1.429 . S
C565 C566 1.523 . S
C566 C547 1.368 . S
C566 C560 1.368 1_455 S
C566 C565 1.523 . S
C567 C551 1.429 . S
C567 C563 1.429 1_455 S
C567 C568 1.523 . S
C568 C552 1.368 1_455 S
C568 C564 1.368 . S
C568 C567 1.523 . S
H569 C544 0.950 . S
H570 C546 0.950 . S
H571 C547 0.949 . S
H572 C549 0.950 . S
H573 C551 0.950 . S
C574 C575 1.349 . S
C574 C576 1.327 . S
C574 H599 0.950 1_556 S
C575 C574 1.349 . S
C575 C591 1.349 . S
C576 C574 1.327 . S
C576 C595 1.429 . S
C576 H600 0.950 . S
C577 C594 1.574 . S
C577 C596 1.368 . S
C577 H601 0.949 . S
H578 C582 0.949 1_545 S
C579 C580 1.349 . S
C579 C581 1.327 . S
C579 H602 0.950 . S
C580 C579 1.349 . S
C580 C592 1.349 1_565 S
C581 C579 1.327 . S
C581 C597 1.429 . S
C581 H603 0.950 . S
C582 H578 0.949 1_565 S
C582 C590 1.574 . S
C582 C598 1.368 . S
H583 C591 0.950 . S
H584 C589 0.950 . S
H585 C590 0.949 1_545 S
H586 C592 0.950 . S
H587 C593 0.950 . S
H588 C594 0.949 . S
C589 H584 0.950 . S
C589 C591 1.327 . S
C589 C595 1.429 . S
C590 C582 1.574 . S
C590 H585 0.949 1_565 S
C590 C596 1.368 . S
C591 C575 1.349 . S
C591 H583 0.950 . S
C591 C589 1.327 . S
C592 C580 1.349 1_545 S
C592 H586 0.950 . S
C592 C593 1.327 . S
C593 H587 0.950 . S
C593 C592 1.327 . S
C593 C597 1.429 1_545 S
C594 C577 1.574 . S
C594 H588 0.949 . S
C594 C598 1.368 . S
C595 C576 1.429 . S
C595 C589 1.429 . S
C595 C596 1.523 . S
C596 C577 1.368 . S
C596 C590 1.368 . S
C596 C595 1.523 . S
C597 C581 1.429 . S
C597 C593 1.429 1_565 S
C597 C598 1.523 . S
C598 C582 1.368 . S
C598 C594 1.368 . S
C598 C597 1.523 . S
H599 C574 0.950 1_554 S
H600 C576 0.950 . S
H601 C577 0.949 . S
H602 C579 0.950 . S
H603 C581 0.950 . S
C604 C605 1.349 1_556 S
C604 C606 1.327 . S
C604 H629 0.950 . S
C605 C604 1.349 1_554 S
C605 C621 1.349 . S
C606 C604 1.327 . S
C606 C625 1.429 . S
C606 H630 0.950 . S
C607 C624 1.574 . S
C607 C626 1.368 . S
C607 H631 0.949 1_556 S
H608 C612 0.949 . S
C609 C610 1.349 . S
C609 C611 1.327 . S
C609 H632 0.950 . S
C610 C609 1.349 . S
C610 C622 1.349 . S
C611 C609 1.327 . S
C611 C627 1.429 . S
C611 H633 0.950 . S
C612 H608 0.949 . S
C612 C620 1.574 . S
C612 C628 1.368 . S
H613 C621 0.950 . S
H614 C619 0.950 . S
H615 C620 0.949 . S
H616 C622 0.950 . S
H617 C623 0.950 . S
H618 C624 0.949 . S
C619 H614 0.950 . S
C619 C621 1.327 . S
C619 C625 1.429 1_554 S
C620 C612 1.574 . S
C620 H615 0.949 . S
C620 C626 1.368 . S
C621 C605 1.349 . S
C621 H613 0.950 . S
C621 C619 1.327 . S
C622 C610 1.349 . S
C622 H616 0.950 . S
C622 C623 1.327 . S
C623 H617 0.950 . S
C623 C622 1.327 . S
C623 C627 1.429 . S
C624 C607 1.574 . S
C624 H618 0.949 . S
C624 C628 1.368 . S
C625 C606 1.429 . S
C625 C619 1.429 1_556 S
C625 C626 1.523 . S
C626 C607 1.368 . S
C626 C620 1.368 . S
C626 C625 1.523 . S
C627 C611 1.429 . S
C627 C623 1.429 . S
C627 C628 1.523 . S
C628 C612 1.368 . S
C628 C624 1.368 . S
C628 C627 1.523 . S
H629 C604 0.950 . S
H630 C606 0.950 . S
H631 C607 0.949 1_554 S
H632 C609 0.950 . S
H633 C611 0.950 . S
C634 C635 1.349 1_556 S
C634 C636 1.327 . S
C634 H659 0.950 . S
C635 C634 1.349 1_554 S
C635 C651 1.349 . S
C636 C634 1.327 . S
C636 C655 1.429 . S
C636 H660 0.950 . S
C637 C654 1.574 . S
C637 C656 1.368 . S
C637 H661 0.949 . S
H638 C642 0.949 . S
C639 C640 1.349 . S
C639 C641 1.327 . S
C639 H662 0.950 . S
C640 C639 1.349 . S
C640 C652 1.349 . S
C641 C639 1.327 . S
C641 C657 1.429 . S
C641 H663 0.950 . S
C642 H638 0.949 . S
C642 C650 1.574 . S
C642 C658 1.368 . S
H643 C651 0.950 . S
H644 C649 0.950 . S
H645 C650 0.949 . S
H646 C652 0.950 . S
H647 C653 0.950 . S
H648 C654 0.949 . S
C649 H644 0.950 . S
C649 C651 1.327 1_556 S
C649 C655 1.429 . S
C650 C642 1.574 . S
C650 H645 0.949 . S
C650 C656 1.368 . S
C651 C635 1.349 . S
C651 H643 0.950 . S
C651 C649 1.327 1_554 S
C652 C640 1.349 . S
C652 H646 0.950 . S
C652 C653 1.327 . S
C653 H647 0.950 . S
C653 C652 1.327 . S
C653 C657 1.429 . S
C654 C637 1.574 . S
C654 H648 0.949 . S
C654 C658 1.368 . S
C655 C636 1.429 . S
C655 C649 1.429 . S
C655 C656 1.523 . S
C656 C637 1.368 . S
C656 C650 1.368 . S
C656 C655 1.523 . S
C657 C641 1.429 . S
C657 C653 1.429 . S
C657 C658 1.523 . S
C658 C642 1.368 . S
C658 C654 1.368 . S
C658 C657 1.523 . S
H659 C634 0.950 . S
H660 C636 0.950 . S
H661 C637 0.949 . S
H662 C639 0.950 . S
H663 C641 0.950 . S
C664 C665 1.359 1_556 S
C664 C666 1.327 . S
C664 H689 0.950 . S
C665 C664 1.359 1_554 S
C665 C681 1.342 1_455 S
C666 C664 1.327 . S
C666 C685 1.429 . S
C666 H690 0.950 . S
C667 C684 1.574 . S
C667 C686 1.368 1_655 S
C667 H691 0.949 . S
H668 C672 0.949 . S
C669 C670 1.349 1_655 S
C669 C671 1.327 . S
C669 H692 0.950 . S
C670 C669 1.349 1_455 S
C670 C682 1.349 . S
C671 C669 1.327 . S
C671 C687 1.429 1_655 S
C671 H693 0.950 . S
C672 H668 0.949 . S
C672 C680 1.574 . S
C672 C688 1.368 . S
H673 C681 0.950 . S
H674 C679 0.950 . S
H675 C680 0.949 . S
H676 C682 0.950 . S
H677 C683 0.950 . S
H678 C684 0.949 . S
C679 H674 0.950 . S
C679 C681 1.327 . S
C679 C685 1.429 1_654 S
C680 C672 1.574 . S
C680 H675 0.949 . S
C680 C686 1.368 . S
C681 C665 1.342 1_655 S
C681 H673 0.950 . S
C681 C679 1.327 . S
C682 C670 1.349 . S
C682 H676 0.950 . S
C682 C683 1.327 . S
C683 H677 0.950 . S
C683 C682 1.327 . S
C683 C687 1.429 . S
C684 C667 1.574 . S
C684 H678 0.949 . S
C684 C688 1.368 1_655 S
C685 C666 1.429 . S
C685 C679 1.429 1_456 S
C685 C686 1.523 . S
C686 C667 1.368 1_455 S
C686 C680 1.368 . S
C686 C685 1.523 . S
C687 C671 1.429 1_455 S
C687 C683 1.429 . S
C687 C688 1.523 . S
C688 C672 1.368 . S
C688 C684 1.368 1_455 S
C688 C687 1.523 . S
H689 C664 0.950 . S
H690 C666 0.950 . S
H691 C667 0.949 . S
H692 C669 0.950 . S
H693 C671 0.950 . S
C694 C695 1.349 . S
C694 C696 1.327 1_554 S
C694 H719 0.950 . S
C695 C694 1.349 . S
C695 C711 1.349 . S
C696 C694 1.327 1_556 S
C696 C715 1.429 . S
C696 H720 0.950 . S
C697 C714 1.574 . S
C697 C716 1.368 . S
C697 H721 0.953 . S
H698 C702 0.949 . S
C699 C700 1.349 1_565 S
C699 C701 1.321 1_565 S
C699 H722 0.950 . S
C700 C699 1.349 1_545 S
C700 C712 1.349 . S
C701 C699 1.321 1_545 S
C701 C717 1.460 . S
C701 H723 0.925 1_545 S
C702 H698 0.949 . S
C702 C710 1.574 . S
C702 C718 1.368 . S
H703 C711 0.950 . S
H704 C709 0.950 . S
H705 C710 0.949 . S
H706 C712 0.950 . S
H707 C713 0.950 . S
H708 C714 0.949 1_565 S
C709 H704 0.950 . S
C709 C711 1.327 1_556 S
C709 C715 1.429 . S
C710 C702 1.574 . S
C710 H705 0.949 . S
C710 C716 1.368 . S
C711 C695 1.349 . S
C711 H703 0.950 . S
C711 C709 1.327 1_554 S
C712 C700 1.349 . S
C712 H706 0.950 . S
C712 C713 1.327 . S
C713 H707 0.950 . S
C713 C712 1.327 . S
C713 C717 1.429 . S
C714 C697 1.574 . S
C714 H708 0.949 1_545 S
C714 C718 1.368 . S
C715 C696 1.429 . S
C715 C709 1.429 . S
C715 C716 1.523 . S
C716 C697 1.368 . S
C716 C710 1.368 . S
C716 C715 1.523 . S
C717 C701 1.460 . S
C717 C713 1.429 . S
C717 C718 1.523 . S
C718 C702 1.368 . S
C718 C714 1.368 . S
C718 C717 1.523 . S
H719 C694 0.950 . S
H720 C696 0.950 . S
H721 C697 0.953 . S
H722 C699 0.950 . S
H723 C701 0.925 1_565 S
C724 C725 1.349 . S
C724 C726 1.327 . S
C724 H749 0.950 . S
C725 C724 1.349 . S
C725 C741 1.349 . S
C726 C724 1.327 . S
C726 C745 1.429 . S
C726 H750 0.950 . S
C727 C744 1.574 . S
C727 C746 1.368 . S
C727 H751 0.949 . S
H728 C732 0.949 . S
C729 C730 1.349 . S
C729 C731 1.327 . S
C729 H752 0.950 . S
C730 C729 1.349 . S
C730 C742 1.349 . S
C731 C729 1.327 . S
C731 C747 1.429 . S
C731 H753 0.950 . S
C732 H728 0.949 . S
C732 C740 1.574 . S
C732 C748 1.368 . S
H733 C741 0.950 1_554 S
H734 C739 0.950 . S
H735 C740 0.949 . S
H736 C742 0.950 . S
H737 C743 0.950 . S
H738 C744 0.949 . S
C739 H734 0.950 . S
C739 C741 1.327 . S
C739 C745 1.429 . S
C740 C732 1.574 . S
C740 H735 0.949 . S
C740 C746 1.368 . S
C741 C725 1.349 . S
C741 H733 0.950 1_556 S
C741 C739 1.327 . S
C742 C730 1.349 . S
C742 H736 0.950 . S
C742 C743 1.327 . S
C743 H737 0.950 . S
C743 C742 1.327 . S
C743 C747 1.429 . S
C744 C727 1.574 . S
C744 H738 0.949 . S
C744 C748 1.368 . S
C745 C726 1.429 . S
C745 C739 1.429 . S
C745 C746 1.523 . S
C746 C727 1.368 . S
C746 C740 1.368 . S
C746 C745 1.523 . S
C747 C731 1.429 . S
C747 C743 1.429 . S
C747 C748 1.523 . S
C748 C732 1.368 . S
C748 C744 1.368 . S
C748 C747 1.523 . S
H749 C724 0.950 . S
H750 C726 0.950 . S
H751 C727 0.949 . S
H752 C729 0.950 . S
H753 C731 0.950 . S
C754 C755 1.349 . S
C754 C756 1.327 . S
C754 H779 0.950 . S
C755 C754 1.349 . S
C755 C771 1.351 . S
C756 C754 1.327 . S
C756 C775 1.429 . S
C756 H780 0.950 . S
C757 C774 1.574 . S
C757 C776 1.368 . S
C757 H781 0.949 . S
H758 C762 0.949 . S
C759 C760 1.349 . S
C759 C761 1.327 . S
C759 H782 0.950 . S
C760 C759 1.349 . S
C760 C772 1.349 . S
C761 C759 1.327 . S
C761 C777 1.429 . S
C761 H783 0.950 . S
C762 H758 0.949 . S
C762 C770 1.574 . S
C762 C778 1.368 . S
H763 C771 0.945 1_554 S
H764 C769 0.950 . S
H765 C770 0.949 . S
H766 C772 0.950 . S
H767 C773 0.950 . S
H768 C774 0.949 . S
C769 H764 0.950 . S
C769 C771 1.330 . S
C769 C775 1.429 . S
C770 C762 1.574 . S
C770 H765 0.949 . S
C770 C776 1.368 . S
C771 C755 1.351 . S
C771 H763 0.945 1_556 S
C771 C769 1.330 . S
C772 C760 1.349 . S
C772 H766 0.950 . S
C772 C773 1.327 . S
C773 H767 0.950 . S
C773 C772 1.327 . S
C773 C777 1.429 . S
C774 C757 1.574 . S
C774 H768 0.949 . S
C774 C778 1.368 . S
C775 C756 1.429 . S
C775 C769 1.429 . S
C775 C776 1.523 . S
C776 C757 1.368 . S
C776 C770 1.368 . S
C776 C775 1.523 . S
C777 C761 1.429 . S
C777 C773 1.429 . S
C777 C778 1.523 . S
C778 C762 1.368 . S
C778 C774 1.368 . S
C778 C777 1.523 . S
H779 C754 0.950 . S
H780 C756 0.950 . S
H781 C757 0.949 . S
H782 C759 0.950 . S
H783 C761 0.950 . S
C784 C785 1.332 1_455 S
C784 C786 1.327 . S
C784 H809 0.950 . S
C785 C784 1.332 1_655 S
C785 C801 1.369 . S
C786 C784 1.327 . S
C786 C805 1.429 1_455 S
C786 H810 0.950 . S
C787 C804 1.574 . S
C787 C806 1.368 . S
C787 H811 0.949 . S
H788 C792 0.949 . S
C789 C790 1.349 . S
C789 C791 1.327 . S
C789 H812 0.950 . S
C790 C789 1.349 . S
C790 C802 1.349 1_655 S
C791 C789 1.327 . S
C791 C807 1.429 . S
C791 H813 0.950 . S
C792 H788 0.949 . S
C792 C800 1.574 . S
C792 C808 1.368 1_455 S
H793 C801 0.950 . S
H794 C799 0.950 . S
H795 C800 0.949 . S
H796 C802 0.950 . S
H797 C803 0.950 . S
H798 C804 0.949 . S
C799 H794 0.950 . S
C799 C801 1.327 . S
C799 C805 1.429 . S
C800 C792 1.574 . S
C800 H795 0.949 . S
C800 C806 1.368 1_455 S
C801 C785 1.369 . S
C801 H793 0.950 . S
C801 C799 1.327 . S
C802 C790 1.349 1_455 S
C802 H796 0.950 . S
C802 C803 1.327 . S
C803 H797 0.950 . S
C803 C802 1.327 . S
C803 C807 1.429 1_455 S
C804 C787 1.574 . S
C804 H798 0.949 . S
C804 C808 1.368 . S
C805 C786 1.429 1_655 S
C805 C799 1.429 . S
C805 C806 1.523 . S
C806 C787 1.368 . S
C806 C800 1.368 1_655 S
C806 C805 1.523 . S
C807 C791 1.429 . S
C807 C803 1.429 1_655 S
C807 C808 1.523 . S
C808 C792 1.368 1_655 S
C808 C804 1.368 . S
C808 C807 1.523 . S
H809 C784 0.950 . S
H810 C786 0.950 . S
H811 C787 0.949 . S
H812 C789 0.950 . S
H813 C791 0.950 . S
C814 C815 1.349 . S
C814 C816 1.327 . S
C814 H839 0.950 . S
C815 C814 1.349 . S
C815 C831 1.349 . S
C816 C814 1.327 . S
C816 C835 1.429 . S
C816 H840 0.950 . S
C817 C834 1.574 . S
C817 C836 1.368 . S
C817 H841 0.949 . S
H818 C822 0.949 . S
C819 C820 1.349 . S
C819 C821 1.327 . S
C819 H842 0.950 1_565 S
C820 C819 1.349 . S
C820 C832 1.349 . S
C821 C819 1.327 . S
C821 C837 1.429 . S
C821 H843 0.950 1_565 S
C822 H818 0.949 . S
C822 C830 1.574 . S
C822 C838 1.368 . S
H823 C831 0.950 . S
H824 C829 0.950 . S
H825 C830 0.949 . S
H826 C832 0.950 . S
H827 C833 0.950 . S
H828 C834 0.949 . S
C829 H824 0.950 . S
C829 C831 1.327 . S
C829 C835 1.429 . S
C830 C822 1.574 . S
C830 H825 0.949 . S
C830 C836 1.368 . S
C831 C815 1.349 . S
C831 H823 0.950 . S
C831 C829 1.327 . S
C832 C820 1.349 . S
C832 H826 0.950 . S
C832 C833 1.327 . S
C833 H827 0.950 . S
C833 C832 1.327 . S
C833 C837 1.429 . S
C834 C817 1.574 . S
C834 H828 0.949 . S
C834 C838 1.368 . S
C835 C816 1.429 . S
C835 C829 1.429 . S
C835 C836 1.523 . S
C836 C817 1.368 . S
C836 C830 1.368 . S
C836 C835 1.523 . S
C837 C821 1.429 . S
C837 C833 1.429 . S
C837 C838 1.523 . S
C838 C822 1.368 . S
C838 C834 1.368 . S
C838 C837 1.523 . S
H839 C814 0.950 . S
H840 C816 0.950 . S
H841 C817 0.949 . S
H842 C819 0.950 1_545 S
H843 C821 0.950 1_545 S
C844 C845 1.349 . S
C844 C846 1.327 . S
C844 H869 0.950 . S
C845 C844 1.349 . S
C845 C861 1.349 . S
C846 C844 1.327 . S
C846 C865 1.429 . S
C846 H870 0.950 . S
C847 C864 1.574 . S
C847 C866 1.368 . S
C847 H871 0.949 . S
H848 C852 0.949 . S
C849 C850 1.349 . S
C849 C851 1.327 . S
C849 H872 0.950 . S
C850 C849 1.349 . S
C850 C862 1.349 . S
C851 C849 1.327 . S
C851 C867 1.429 . S
C851 H873 0.950 . S
C852 H848 0.949 . S
C852 C860 1.574 . S
C852 C868 1.368 . S
H853 C861 0.950 . S
H854 C859 0.950 . S
H855 C860 0.949 . S
H856 C862 0.950 . S
H857 C863 0.950 . S
H858 C864 0.949 . S
C859 H854 0.950 . S
C859 C861 1.327 . S
C859 C865 1.429 . S
C860 C852 1.574 . S
C860 H855 0.949 . S
C860 C866 1.368 . S
C861 C845 1.349 . S
C861 H853 0.950 . S
C861 C859 1.327 . S
C862 C850 1.349 . S
C862 H856 0.950 . S
C862 C863 1.327 . S
C863 H857 0.950 . S
C863 C862 1.327 . S
C863 C867 1.429 . S
C864 C847 1.574 . S
C864 H858 0.949 . S
C864 C868 1.368 . S
C865 C846 1.429 . S
C865 C859 1.429 . S
C865 C866 1.523 . S
C866 C847 1.368 . S
C866 C860 1.368 . S
C866 C865 1.523 . S
C867 C851 1.429 . S
C867 C863 1.429 . S
C867 C868 1.523 . S
C868 C852 1.368 . S
C868 C864 1.368 . S
C868 C867 1.523 . S
H869 C844 0.950 . S
H870 C846 0.950 . S
H871 C847 0.949 . S
H872 C849 0.950 . S
H873 C851 0.950 . S
C874 C875 1.349 . S
C874 C876 1.327 . S
C874 H899 0.950 . S
C875 C874 1.349 . S
C875 C891 1.349 . S
C876 C874 1.327 . S
C876 C895 1.429 . S
C876 H900 0.950 . S
C877 C894 1.574 . S
C877 C896 1.368 . S
C877 H901 0.949 . S
H878 C882 0.949 . S
C879 C880 1.349 . S
C879 C881 1.327 . S
C879 H902 0.950 . S
C880 C879 1.349 . S
C880 C892 1.349 . S
C881 C879 1.327 . S
C881 C897 1.429 . S
C881 H903 0.950 . S
C882 H878 0.949 . S
C882 C890 1.574 . S
C882 C898 1.368 . S
H883 C891 0.950 . S
H884 C889 0.950 . S
H885 C890 0.949 . S
H886 C892 0.950 . S
H887 C893 0.950 . S
H888 C894 0.949 . S
C889 H884 0.950 . S
C889 C891 1.327 . S
C889 C895 1.429 . S
C890 C882 1.574 . S
C890 H885 0.949 . S
C890 C896 1.368 . S
C891 C875 1.349 . S
C891 H883 0.950 . S
C891 C889 1.327 . S
C892 C880 1.349 . S
C892 H886 0.950 . S
C892 C893 1.327 . S
C893 H887 0.950 . S
C893 C892 1.327 . S
C893 C897 1.429 . S
C894 C877 1.574 . S
C894 H888 0.949 . S
C894 C898 1.368 . S
C895 C876 1.429 . S
C895 C889 1.429 . S
C895 C896 1.523 . S
C896 C877 1.368 . S
C896 C890 1.368 . S
C896 C895 1.523 . S
C897 C881 1.429 . S
C897 C893 1.429 . S
C897 C898 1.523 . S
C898 C882 1.368 . S
C898 C894 1.368 . S
C898 C897 1.523 . S
H899 C874 0.950 . S
H900 C876 0.950 . S
H901 C877 0.949 . S
H902 C879 0.950 . S
H903 C881 0.950 . S
C185 N80 1.695 . S
C190 C112 1.700 . S
C220 C142 1.818 . S
C215 N93 1.802 . S
C250 C152 1.466 . S
C245 N54 1.452 . S
C280 C172 1.338 . S
C275 N67 1.326 1_455 S
C310 C113 1.704 . S
C305 N28 1.708 1_556 S
C335 N41 1.809 . S
C340 C143 1.818 . S
C365 N2 1.453 . S
C370 C153 1.467 . S
C395 N15 1.316 1_556 S
C400 C173 1.340 . S
C430 C105 0.656 . S
C425 N70 0.652 1_455 S
C460 C126 0.301 . S
C455 N83 0.281 . S
C490 C145 0.818 . S
C485 N96 0.819 . S
C515 N57 0.519 . S
C520 C165 0.523 . S
C545 N18 0.653 1_556 S
C550 C106 0.655 . S
C580 C125 0.292 1_565 S
C575 N31 0.270 . S
C610 C146 0.818 . S
C605 N44 0.819 . S
C635 N5 0.519 . S
C640 C166 0.535 . S
C665 N66 1.533 1_455 S
C670 C123 1.536 . S
C695 N79 1.344 . S
C700 C133 1.366 . S
C730 C163 1.738 . S
C725 N92 1.725 . S
C760 C183 1.757 . S
C755 N53 1.749 1_556 S
C785 N14 1.533 . S
C790 C122 1.536 . S
C820 C132 1.366 . S
C815 N27 1.354 . S
C850 C162 1.738 . S
C845 N40 1.734 . S
C875 N1 1.753 . S
C880 C182 1.763 . S
