# Generated by pormake.
# Topology ptr, (4,4)-cn, num edge types: 1
# Building blocks:
#     Node 0, Type 0, BuildingBlock: NAHDIM_clean_sbu_0, # of connection points: 4
#     Node 1, Type 0, BuildingBlock: NAHDIM_clean_sbu_0, # of connection points: 4
#     Node 2, Type 0, BuildingBlock: NAHDIM_clean_sbu_0, # of connection points: 4
#     Node 3, Type 0, BuildingBlock: NAHDIM_clean_sbu_0, # of connection points: 4
#     Node 4, Type 0, BuildingBlock: NAHDIM_clean_sbu_0, # of connection points: 4
#     Node 5, Type 0, BuildingBlock: NAHDIM_clean_sbu_0, # of connection points: 4
#     Node 6, Type 0, BuildingBlock: NAHDIM_clean_sbu_0, # of connection points: 4
#     Node 7, Type 0, BuildingBlock: NAHDIM_clean_sbu_0, # of connection points: 4
#     Node 8, Type 0, BuildingBlock: NAHDIM_clean_sbu_0, # of connection points: 4
#     Node 9, Type 0, BuildingBlock: NAHDIM_clean_sbu_0, # of connection points: 4
#     Node 10, Type 0, BuildingBlock: NAHDIM_clean_sbu_0, # of connection points: 4
#     Node 11, Type 0, BuildingBlock: NAHDIM_clean_sbu_0, # of connection points: 4
#     Node 12, Type 0, BuildingBlock: NAHDIM_clean_sbu_0, # of connection points: 4
#     Node 13, Type 0, BuildingBlock: NAHDIM_clean_sbu_0, # of connection points: 4
#     Node 14, Type 0, BuildingBlock: NAHDIM_clean_sbu_0, # of connection points: 4
#     Node 15, Type 0, BuildingBlock: NAHDIM_clean_sbu_0, # of connection points: 4
#     Node 16, Type 0, BuildingBlock: NAHDIM_clean_sbu_0, # of connection points: 4
#     Node 17, Type 0, BuildingBlock: NAHDIM_clean_sbu_0, # of connection points: 4
#     Node 18, Type 1, BuildingBlock: MUDLON_clean_linker_0, # of connection points: 4
#     Node 19, Type 1, BuildingBlock: MUDLON_clean_linker_0, # of connection points: 4
#     Node 20, Type 1, BuildingBlock: MUDLON_clean_linker_0, # of connection points: 4
#     Node 21, Type 1, BuildingBlock: MUDLON_clean_linker_0, # of connection points: 4
#     Node 22, Type 1, BuildingBlock: MUDLON_clean_linker_0, # of connection points: 4
#     Node 23, Type 1, BuildingBlock: MUDLON_clean_linker_0, # of connection points: 4
#     Node 24, Type 1, BuildingBlock: MUDLON_clean_linker_0, # of connection points: 4
#     Node 25, Type 1, BuildingBlock: MUDLON_clean_linker_0, # of connection points: 4
#     Node 26, Type 1, BuildingBlock: MUDLON_clean_linker_0, # of connection points: 4
#     Node 27, Type 1, BuildingBlock: MUDLON_clean_linker_0, # of connection points: 4
#     Node 28, Type 1, BuildingBlock: MUDLON_clean_linker_0, # of connection points: 4
#     Node 29, Type 1, BuildingBlock: MUDLON_clean_linker_0, # of connection points: 4
#     Node 30, Type 1, BuildingBlock: MUDLON_clean_linker_0, # of connection points: 4
#     Node 31, Type 1, BuildingBlock: MUDLON_clean_linker_0, # of connection points: 4
#     Node 32, Type 1, BuildingBlock: MUDLON_clean_linker_0, # of connection points: 4
#     Node 33, Type 1, BuildingBlock: MUDLON_clean_linker_0, # of connection points: 4
#     Node 34, Type 1, BuildingBlock: MUDLON_clean_linker_0, # of connection points: 4
#     Node 35, Type 1, BuildingBlock: MUDLON_clean_linker_0, # of connection points: 4
#     Edge 36, Type (0, 1), None
#     Edge 37, Type (0, 1), None
#     Edge 38, Type (0, 1), None
#     Edge 39, Type (0, 1), None
#     Edge 40, Type (0, 1), None
#     Edge 41, Type (0, 1), None
#     Edge 42, Type (0, 1), None
#     Edge 43, Type (0, 1), None
#     Edge 44, Type (0, 1), None
#     Edge 45, Type (0, 1), None
#     Edge 46, Type (0, 1), None
#     Edge 47, Type (0, 1), None
#     Edge 48, Type (0, 1), None
#     Edge 49, Type (0, 1), None
#     Edge 50, Type (0, 1), None
#     Edge 51, Type (0, 1), None
#     Edge 52, Type (0, 1), None
#     Edge 53, Type (0, 1), None
#     Edge 54, Type (0, 1), None
#     Edge 55, Type (0, 1), None
#     Edge 56, Type (0, 1), None
#     Edge 57, Type (0, 1), None
#     Edge 58, Type (0, 1), None
#     Edge 59, Type (0, 1), None
#     Edge 60, Type (0, 1), None
#     Edge 61, Type (0, 1), None
#     Edge 62, Type (0, 1), None
#     Edge 63, Type (0, 1), None
#     Edge 64, Type (0, 1), None
#     Edge 65, Type (0, 1), None
#     Edge 66, Type (0, 1), None
#     Edge 67, Type (0, 1), None
#     Edge 68, Type (0, 1), None
#     Edge 69, Type (0, 1), None
#     Edge 70, Type (0, 1), None
#     Edge 71, Type (0, 1), None
#     Edge 72, Type (0, 1), None
#     Edge 73, Type (0, 1), None
#     Edge 74, Type (0, 1), None
#     Edge 75, Type (0, 1), None
#     Edge 76, Type (0, 1), None
#     Edge 77, Type (0, 1), None
#     Edge 78, Type (0, 1), None
#     Edge 79, Type (0, 1), None
#     Edge 80, Type (0, 1), None
#     Edge 81, Type (0, 1), None
#     Edge 82, Type (0, 1), None
#     Edge 83, Type (0, 1), None
#     Edge 84, Type (0, 1), None
#     Edge 85, Type (0, 1), None
#     Edge 86, Type (0, 1), None
#     Edge 87, Type (0, 1), None
#     Edge 88, Type (0, 1), None
#     Edge 89, Type (0, 1), None
#     Edge 90, Type (0, 1), None
#     Edge 91, Type (0, 1), None
#     Edge 92, Type (0, 1), None
#     Edge 93, Type (0, 1), None
#     Edge 94, Type (0, 1), None
#     Edge 95, Type (0, 1), None
#     Edge 96, Type (0, 1), None
#     Edge 97, Type (0, 1), None
#     Edge 98, Type (0, 1), None
#     Edge 99, Type (0, 1), None
#     Edge 100, Type (0, 1), None
#     Edge 101, Type (0, 1), None
#     Edge 102, Type (0, 1), None
#     Edge 103, Type (0, 1), None
#     Edge 104, Type (0, 1), None
#     Edge 105, Type (0, 1), None
#     Edge 106, Type (0, 1), None
#     Edge 107, Type (0, 1), None
# Relax obj value: 0.061
# Max RMSD: 0.211
# Mean RMSD: 0.110
data_MOF--net-ptr--node1-NAHDIM_clean_sbu_0--node2-MUDLON_clean_linker_0--edge1-none
_symmetry_space_group_name_H-M    P1
_symmetry_Int_Tables_number       1
_symmetry_cell_setting            triclinic
loop_
_symmetry_equiv_pos_as_xyz
'x, y, z'
_cell_length_a     63.855076
_cell_length_b     62.557796
_cell_length_c     35.812711
_cell_angle_alpha  92.164433
_cell_angle_beta   88.96956
_cell_angle_gamma 121.96853
loop_
_atom_site_label
_atom_site_type_symbol
_atom_site_fract_x
_atom_site_fract_y
_atom_site_fract_z
_atom_type_partial_charge
C0 C 0.0191 0.31751 0.04522 0.0
O1 O 0.99496 0.30586 0.04315 0.0
O2 O 0.98274 0.31824 0.97952 0.0
Zn3 Zn 0.01156 0.34951 0.00357 0.0
O4 O 0.00376 0.36823 0.04255 0.0
C5 C 0.01282 0.37819 0.94741 0.0
O6 O 0.99059 0.36767 0.96181 0.0
O7 O 0.03216 0.33833 0.02891 0.0
C8 C 0.98828 0.36033 0.06912 0.0
O9 O 0.9729 0.33599 0.0726 0.0
C10 C 0.95962 0.30898 0.97801 0.0
O11 O 0.95 0.32076 0.99506 0.0
O12 O 0.02822 0.37377 0.9617 0.0
C13 C 0.69575 0.66496 0.00373 0.0
O14 O 0.701 0.67705 0.03633 0.0
O15 O 0.65239 0.67862 0.04815 0.0
Zn16 Zn 0.64407 0.64548 0.02368 0.0
O17 O 0.61593 0.63171 0.98715 0.0
C18 C 0.61477 0.61494 0.08201 0.0
O19 O 0.60098 0.62305 0.0698 0.0
O20 O 0.67331 0.65005 0.9943 0.0
C21 C 0.61231 0.64563 0.96672 0.0
O22 O 0.62621 0.67023 0.97146 0.0
C23 C 0.6681 0.70026 0.03606 0.0
O24 O 0.67841 0.70206 0.00331 0.0
O25 O 0.63492 0.62141 0.06532 0.0
C26 C 0.33841 0.03739 0.99158 0.0
O27 O 0.31641 0.02046 0.00381 0.0
O28 O 0.31912 0.98683 0.04923 0.0
Zn29 Zn 0.35248 0.0053 0.02427 0.0
O30 O 0.35685 0.98474 0.98344 0.0
C31 C 0.37486 -0.00108 0.08625 0.0
O32 O 0.35657 0.97571 0.07915 0.0
O33 O 0.3567 0.03541 0.99892 0.0
C34 C 0.3777 0.99653 0.96721 0.0
O35 O 0.39431 0.01928 0.9799 0.0
C36 C 0.30491 0.96311 0.05164 0.0
O37 O 0.3111 0.94813 0.03512 0.0
O38 O 0.37808 0.01616 0.06484 0.0
C39 C 0.95848 0.66809 0.99356 0.0
O40 O 0.97234 0.68461 0.01982 0.0
O41 O 0.00838 0.67653 0.04102 0.0
Zn42 Zn 0.98299 0.64308 0.01686 0.0
O43 O 0.99565 0.62749 0.98009 0.0
C44 C 0.98375 0.618 0.07723 0.0
O45 O 0.00681 0.63117 0.06607 0.0
O46 O 0.95874 0.64797 0.98889 0.0
C47 C 0.00915 0.63767 0.95178 0.0
O48 O 0.01861 0.6618 0.94681 0.0
C49 C 0.03156 0.68825 0.04619 0.0
O50 O 0.04425 0.67879 0.03229 0.0
O51 O 0.96744 0.61899 0.05892 0.0
C52 C 0.29139 0.31527 0.06018 0.0
O53 O 0.3012 0.30144 0.05582 0.0
O54 O 0.3258 0.31488 0.98801 0.0
Zn55 Zn 0.33412 0.3453 0.02043 0.0
O56 O 0.3595 0.35341 0.06034 0.0
C57 C 0.36695 0.37807 0.96841 0.0
O58 O 0.37677 0.3652 0.97809 0.0
O59 O 0.30255 0.3371 0.04651 0.0
C60 C 0.36857 0.37496 0.07656 0.0
O61 O 0.36163 0.39005 0.06534 0.0
C62 C 0.33772 0.30396 0.98344 0.0
O63 O 0.35832 0.31231 0.00208 0.0
O64 O 0.3474 0.37398 0.98491 0.0
C65 C 0.67353 0.96666 0.01494 0.0
O66 O 0.68877 0.98851 1.00013 0.0
O67 O 0.66462 0.01073 0.9765 0.0
Zn68 Zn 0.6363 0.97688 0.9926 0.0
O69 O 0.61752 0.97833 0.03745 0.0
C70 C 0.60712 0.97487 0.93314 0.0
O71 O 0.61729 0.99822 0.94592 0.0
O72 O 0.65037 0.95687 0.01125 0.0
C73 C 0.60407 0.98748 0.04327 0.0
O74 O 0.60133 2e-05 0.01724 0.0
C75 C 0.66802 0.03256 0.98152 0.0
O76 O 0.65203 0.03547 0.001 0.0
O77 O 0.61264 0.96046 0.94854 0.0
C78 C 0.69997 0.66399 0.36349 0.0
O79 O 0.68961 0.64952 0.33353 0.0
O80 O 0.64704 0.66294 0.32109 0.0
Zn81 Zn 0.67833 0.69368 0.34135 0.0
O82 O 0.67296 0.71482 0.37905 0.0
C83 C 0.68542 0.72667 0.28614 0.0
O84 O 0.66541 0.72275 0.30342 0.0
O85 O 0.69855 0.68336 0.36932 0.0
C86 C 0.65873 0.70653 0.40707 0.0
O87 O 0.64384 0.68209 0.41032 0.0
C88 C 0.63634 0.64113 0.3347 0.0
O89 O 0.64387 0.63807 0.36682 0.0
O90 O 0.69604 0.71576 0.2977 0.0
C91 C 0.3709 -0.00137 0.344 0.0
O92 O 0.37398 0.0148 0.37107 0.0
O93 O 0.32149 0.00481 0.38219 0.0
Zn94 Zn 0.31745 0.97283 0.35935 0.0
O95 O 0.29291 0.95783 0.31704 0.0
C96 C 0.28701 0.94192 0.41739 0.0
O97 O 0.273 0.94969 0.40491 0.0
O98 O 0.34945 0.97982 0.3366 0.0
C99 C 0.27904 0.96518 0.30595 0.0
O100 O 0.27873 0.98354 0.32448 0.0
C101 C 0.33385 0.02653 0.36839 0.0
O102 O 0.34339 0.02896 0.33484 0.0
O103 O 0.30729 0.94865 0.40096 0.0
C104 C 0.00652 0.373 0.31584 0.0
O105 O 0.98518 0.35593 0.32986 0.0
O106 O 0.98932 0.3224 0.37002 0.0
Zn107 Zn 0.02223 0.34107 0.34389 0.0
O108 O 0.02708 0.32288 0.30023 0.0
C109 C 0.04714 0.33503 0.40324 0.0
O110 O 0.02851 0.31169 0.39848 0.0
O111 O 0.0253 0.37138 0.3208 0.0
C112 C 0.02754 0.30285 0.29639 0.0
O113 O 0.02285 0.28848 0.32503 0.0
C114 C 0.97338 0.29907 0.37294 0.0
O115 O 0.9772 0.28227 0.35666 0.0
O116 O 0.04891 0.35178 0.38213 0.0
C117 C 0.63978 0.99584 0.28603 0.0
O118 O 0.6614 0.01674 0.28243 0.0
O119 O 0.68581 0.02048 0.35354 0.0
Zn120 Zn 0.66942 0.98564 0.32956 0.0
O121 O 0.6888 0.98124 0.2881 0.0
C122 C 0.67939 0.96437 0.39047 0.0
O123 O 0.70207 0.9821 0.38215 0.0
O124 O 0.63806 0.97878 0.30638 0.0
C125 C 0.67738 0.95945 0.27215 0.0
O126 O 0.65573 0.94229 0.28527 0.0
C127 C 0.70857 0.03634 0.35962 0.0
O128 O 0.72505 0.03113 0.34789 0.0
O129 O 0.66171 0.96135 0.37051 0.0
C130 C 0.95375 0.66079 0.37826 0.0
O131 O 0.94947 0.64576 0.34894 0.0
O132 O 0.99137 0.64619 0.33138 0.0
Zn133 Zn 0.0043 0.67973 0.35798 0.0
O134 O 0.03046 0.68727 0.39598 0.0
C135 C 0.03508 0.70649 0.29834 0.0
O136 O 0.04295 0.69158 0.30633 0.0
O137 O 0.97586 0.67812 0.38608 0.0
C138 C 0.04208 0.7095 0.41035 0.0
O139 O 0.03734 0.72607 0.39818 0.0
C140 C 0.00124 0.63317 0.32769 0.0
O141 O 0.02273 0.64126 0.34338 0.0
O142 O 0.01809 0.70585 0.31829 0.0
C143 C 0.33451 0.29373 0.36329 0.0
O144 O 0.34737 0.3039 0.33297 0.0
O145 O 0.33663 0.34746 0.32143 0.0
Zn146 Zn 0.30746 0.31903 0.34751 0.0
O147 O 0.29449 0.33117 0.3889 0.0
C148 C 0.27529 0.3154 0.29347 0.0
O149 O 0.28699 0.33928 0.30434 0.0
O150 O 0.31675 0.29662 0.37201 0.0
C151 C 0.29948 0.35338 0.39635 0.0
O152 O 0.315 0.3719 0.37511 0.0
C153 C 0.35902 0.35889 0.33194 0.0
O154 O 0.36461 0.35354 0.36397 0.0
O155 O 0.28061 0.3009 0.30901 0.0
C156 C 0.37387 0.99617 0.69887 0.0
O157 O 0.36388 0.98153 0.66894 0.0
O158 O 0.32011 0.99211 0.65573 0.0
Zn159 Zn 0.35067 0.02389 0.67531 0.0
O160 O 0.34365 0.04401 0.71252 0.0
C161 C 0.3537 0.05388 0.61868 0.0
O162 O 0.33295 0.04748 0.63599 0.0
O163 O 0.37213 0.01538 0.70402 0.0
C164 C 0.3289 0.03492 0.73985 0.0
O165 O 0.31487 0.01035 0.74258 0.0
C166 C 0.30992 0.97043 0.6697 0.0
O167 O 0.31767 0.96785 0.70194 0.0
O168 O 0.36685 0.04589 0.63089 0.0
C169 C 0.02722 0.33713 0.63633 0.0
O170 O 0.01729 0.35083 0.634 0.0
O171 O 0.99594 0.34647 0.70224 0.0
Zn172 Zn 0.98441 0.31302 0.6753 0.0
O173 O 0.96234 0.30449 0.63029 0.0
C174 C 0.95183 0.28842 0.73342 0.0
O175 O 0.94811 0.30657 0.72611 0.0
O176 O 0.01578 0.31692 0.65445 0.0
C177 C 0.94232 0.30379 0.62536 0.0
O178 O 0.93264 0.31012 0.65296 0.0
C179 C 0.98938 0.36241 0.70221 0.0
O180 O 0.97066 0.3581 0.68158 0.0
O181 O 0.96734 0.28612 0.7137 0.0
C182 C 0.66934 0.70556 0.6571 0.0
O183 O 0.64748 0.69128 0.67215 0.0
O184 O 0.64632 0.6503 0.70758 0.0
Zn185 Zn 0.68083 0.67005 0.68693 0.0
O186 O 0.68724 0.65063 0.6469 0.0
C187 C 0.71422 0.66961 0.74143 0.0
O188 O 0.70996 0.64919 0.72278 0.0
O189 O 0.68588 0.70043 0.66155 0.0
C190 C 0.70779 0.66331 0.63012 0.0
O191 O 0.72362 0.68647 0.64226 0.0
C192 C 0.64056 0.63282 0.73011 0.0
O193 O 0.65663 0.6264 0.73684 0.0
O194 O 0.70451 0.68149 0.7303 0.0
C195 C 0.31854 0.34709 0.63461 0.0
O196 O 0.34236 0.36331 0.63863 0.0
O197 O 0.35424 0.35182 0.70549 0.0
Zn198 Zn 0.33413 0.32039 0.67316 0.0
O199 O 0.35278 0.31357 0.63298 0.0
C200 C 0.33498 0.2912 0.72813 0.0
O201 O 0.35839 0.30665 0.72023 0.0
O202 O 0.30921 0.32521 0.64758 0.0
C203 C 0.34074 0.2914 0.61828 0.0
O204 O 0.31867 0.27531 0.63132 0.0
C205 C 0.37696 0.36551 0.71399 0.0
O206 O 0.39275 0.36014 0.6995 0.0
O207 O 0.31881 0.29205 0.70919 0.0
C208 C 0.61421 0.99251 0.6837 0.0
O209 O 0.61664 0.97804 0.6588 0.0
O210 O 0.66473 -0.00148 0.64189 0.0
Zn211 Zn 0.66457 0.02866 0.6631 0.0
O212 O 0.68941 0.04851 0.70361 0.0
C213 C 0.69301 0.05739 0.60552 0.0
O214 O 0.70598 0.04941 0.62119 0.0
O215 O 0.63134 0.01563 0.68738 0.0
C216 C 0.69086 0.03847 0.73281 0.0
O217 O 0.67779 0.01381 0.73491 0.0
C218 C 0.67987 0.99122 0.64061 0.0
O219 O 0.70149 0.00489 0.65708 0.0
O220 O 0.67231 0.05149 0.61983 0.0
C221 C 0.99082 0.62777 0.70242 0.0
O222 O 0.00535 0.63471 0.6731 0.0
O223 O 0.00692 0.68755 0.65546 0.0
Zn224 Zn 0.97563 0.66377 0.68262 0.0
O225 O 0.96734 0.68168 0.72234 0.0
C226 C 0.94103 0.66102 0.63135 0.0
O227 O 0.95008 0.68398 0.6454 0.0
O228 O 0.97771 0.63722 0.70926 0.0
C229 C 0.94633 0.66795 0.73737 0.0
O230 O 0.93191 0.64465 0.72451 0.0
C231 C 0.02877 0.69434 0.66459 0.0
O232 O 0.0327 0.68671 0.6959 0.0
O233 O 0.94875 0.64768 0.6439 0.0
H234 H 0.23851 0.32929 0.19482 0.0
N235 N 0.2123 0.28128 0.16472 0.0
H236 H 0.26549 0.3435 0.24921 0.0
H237 H 0.21787 0.25268 0.21179 0.0
H238 H 0.24511 0.26679 0.26662 0.0
H239 H 0.22847 0.25413 0.13171 0.0
H240 H 0.26245 0.26838 0.08746 0.0
H241 H 0.23488 0.32617 0.12867 0.0
H242 H 0.26926 0.34085 0.08456 0.0
H243 H 0.19155 0.2979 0.2184 0.0
H244 H 0.18399 0.2704 0.10359 0.0
H245 H 0.15543 0.30036 0.21138 0.0
H246 H 0.14731 0.27273 0.09709 0.0
H247 H 0.06332 0.32606 0.17968 0.0
H248 H 0.05063 0.3348 0.23956 0.0
H249 H 0.02188 0.25807 0.27102 0.0
H250 H 0.03419 0.24917 0.20977 0.0
H251 H 0.01209 0.25567 0.12083 0.0
H252 H 0.99603 0.271 0.07448 0.0
H253 H 0.067 0.34076 0.07032 0.0
H254 H 0.08291 0.32519 0.11678 0.0
H255 H 0.10039 0.32122 0.17756 0.0
H256 H 0.13984 0.32364 0.17716 0.0
H257 H 0.10483 0.24938 0.12424 0.0
N258 N 0.05577 0.28065 0.15381 0.0
H259 H 0.06529 0.24705 0.12487 0.0
C260 C 0.22602 0.28981 0.19939 0.0
C261 C 0.23964 0.31549 0.21049 0.0
C262 C 0.25505 0.32356 0.24171 0.0
C263 C 0.25753 0.30627 0.26213 0.0
C264 C 0.24361 0.28056 0.25141 0.0
C265 C 0.22796 0.27245 0.22032 0.0
C266 C 0.22926 0.28902 0.13367 0.0
C267 C 0.23695 0.27287 0.12085 0.0
C268 C 0.25649 0.28117 0.09578 0.0
C269 C 0.26883 0.30592 0.08299 0.0
C270 C 0.26024 0.32174 0.09414 0.0
C271 C 0.24061 0.31338 0.11935 0.0
C272 C 0.19191 0.28523 0.16076 0.0
C273 C 0.18295 0.29321 0.19115 0.0
C274 C 0.16194 0.2945 0.18732 0.0
C275 C 0.14876 0.28711 0.15356 0.0
C276 C 0.15722 0.27873 0.12342 0.0
C277 C 0.17839 0.27765 0.12707 0.0
C278 C 0.04937 0.28673 0.18988 0.0
C279 C 0.05412 0.31096 0.19908 0.0
C280 C 0.04681 0.31596 0.23354 0.0
C281 C 0.03501 0.29704 0.25995 0.0
C282 C 0.03084 0.27299 0.25119 0.0
C283 C 0.03786 0.26789 0.21633 0.0
C284 C 0.04855 0.28914 0.1224 0.0
C285 C 0.02429 0.27404 0.10933 0.0
C286 C 0.01517 0.28293 0.08299 0.0
C287 C 0.0302 0.30725 0.06905 0.0
C288 C 0.05498 0.32196 0.08055 0.0
C289 C 0.06411 0.31302 0.10712 0.0
C290 C 0.07976 0.2837 0.15161 0.0
C291 C 0.10115 0.30549 0.16574 0.0
C292 C 0.12372 0.30686 0.16552 0.0
C293 C 0.12538 0.28665 0.15084 0.0
C294 C 0.10417 0.26533 0.13545 0.0
C295 C 0.08159 0.2639 0.13595 0.0
H296 H 0.73486 0.75857 0.18048 0.0
N297 N 0.71254 0.77905 0.14846 0.0
H298 H 0.72356 0.73573 0.23897 0.0
H299 H 0.67784 0.77506 0.19969 0.0
H300 H 0.6668 0.75282 0.2573 0.0
H301 H 0.664 0.73991 0.14501 0.0
H302 H 0.64537 0.70662 0.09667 0.0
H303 H 0.73261 0.77649 0.08405 0.0
H304 H 0.71371 0.74341 0.03473 0.0
H305 H 0.75181 0.82575 0.15107 0.0
H306 H 0.67281 0.78373 0.13682 0.0
H307 H 0.75302 0.86516 0.14434 0.0
H308 H 0.67349 0.82269 0.13264 0.0
H309 H 0.73311 0.98222 0.17348 0.0
H310 H 0.71901 0.99161 0.23255 0.0
H311 H 0.65738 0.91442 0.23355 0.0
H312 H 0.6716 0.90532 0.17498 0.0
H313 H 0.66304 0.91847 0.11684 0.0
H314 H 0.64701 0.92993 0.06527 0.0
H315 H 0.72153 0.98134 0.0277 0.0
H316 H 0.73746 0.9695 0.07962 0.0
H317 H 0.74332 0.93149 0.1712 0.0
H318 H 0.74389 0.89292 0.17448 0.0
H319 H 0.68359 0.85608 0.09519 0.0
N320 N 0.71187 0.93859 0.13436 0.0
H321 H 0.682 0.89367 0.09399 0.0
C322 C 0.70746 0.76875 0.1854 0.0
C323 C 0.72028 0.75771 0.19756 0.0
C324 C 0.71375 0.74461 0.23087 0.0
C325 C 0.69415 0.74228 0.25263 0.0
C326 C 0.68192 0.75412 0.24114 0.0
C327 C 0.6884 0.76712 0.20796 0.0
C328 C 0.70006 0.76045 0.11862 0.0
C329 C 0.67506 0.74097 0.1211 0.0
C330 C 0.66431 0.72198 0.09328 0.0
C331 C 0.67812 0.72236 0.06207 0.0
C332 C 0.70257 0.74268 0.0584 0.0
C333 C 0.71345 0.76147 0.08659 0.0
C334 C 0.71233 0.80184 0.14478 0.0
C335 C 0.73472 0.82509 0.14687 0.0
C336 C 0.7353 0.84758 0.14329 0.0
C337 C 0.71333 0.84727 0.13802 0.0
C338 C 0.69087 0.82382 0.13591 0.0
C339 C 0.69039 0.80138 0.13876 0.0
C340 C 0.70345 0.94319 0.16976 0.0
C341 C 0.71665 0.96737 0.18669 0.0
C342 C 0.7086 0.97266 0.22042 0.0
C343 C 0.68706 0.95378 0.23776 0.0
C344 C 0.67404 0.92943 0.22097 0.0
C345 C 0.68212 0.92418 0.18736 0.0
C346 C 0.70161 0.9434 0.10238 0.0
C347 C 0.67598 0.93205 0.09744 0.0
C348 C 0.66679 0.93845 0.06759 0.0
C349 C 0.68299 0.95662 0.04237 0.0
C350 C 0.70854 0.96727 0.04662 0.0
C351 C 0.71771 0.96063 0.07628 0.0
C352 C 0.7127 0.91587 0.13262 0.0
C353 C 0.73028 0.91506 0.15448 0.0
C354 C 0.73067 0.89299 0.15608 0.0
C355 C 0.71369 0.87118 0.13523 0.0
C356 C 0.69657 0.87223 0.1124 0.0
C357 C 0.69585 0.89411 0.11141 0.0
H358 H 0.08137 0.73112 0.18968 0.0
N359 N 0.06835 0.76333 0.1646 0.0
H360 H 0.06713 0.70723 0.2464 0.0
H361 H 0.03908 0.76504 0.21706 0.0
H362 H 0.02453 0.74099 0.27444 0.0
H363 H 0.02598 0.74399 0.12847 0.0
H364 H 0.01009 0.71235 0.07752 0.0
H365 H 0.09435 0.74576 0.12685 0.0
H366 H 0.07847 0.71359 0.076 0.0
H367 H 0.10956 0.77855 0.20895 0.0
H368 H 0.08245 0.80032 0.11727 0.0
H369 H 0.14824 0.81828 0.20741 0.0
H370 H 0.12227 0.83983 0.11382 0.0
H371 H 0.26233 0.91856 0.19461 0.0
H372 H 0.28251 0.93351 0.25521 0.0
H373 H 0.24477 0.97331 0.27573 0.0
H374 H 0.22414 0.95767 0.21483 0.0
H375 H 0.25159 0.97267 0.13027 0.0
H376 H 0.2836 0.98772 0.08218 0.0
H377 H 0.27826 0.91588 0.07972 0.0
H378 H 0.24678 0.90119 0.1278 0.0
H379 H 0.22329 0.88324 0.18027 0.0
H380 H 0.185 0.84261 0.17668 0.0
H381 H 0.14658 0.87886 0.14397 0.0
N382 N 0.22986 0.92904 0.16404 0.0
H383 H 0.18572 0.91942 0.1448 0.0
C384 C 0.06118 0.74986 0.19902 0.0
C385 C 0.06897 0.73342 0.2079 0.0
C386 C 0.0609 0.71985 0.24059 0.0
C387 C 0.04464 0.72217 0.26496 0.0
C388 C 0.03705 0.73879 0.25625 0.0
C389 C 0.04532 0.75254 0.22358 0.0
C390 C 0.06109 0.74696 0.13167 0.0
C391 C 0.03765 0.73771 0.11667 0.0
C392 C 0.02865 0.71961 0.08758 0.0
C393 C 0.04292 0.71018 0.07292 0.0
C394 C 0.067 0.72038 0.08671 0.0
C395 C 0.07604 0.73867 0.11587 0.0
C396 C 0.09261 0.78613 0.16311 0.0
C397 C 0.11183 0.79153 0.18794 0.0
C398 C 0.13436 0.81448 0.18684 0.0
C399 C 0.1386 0.83247 0.16047 0.0
C400 C 0.11963 0.82676 0.13506 0.0
C401 C 0.09689 0.80402 0.13669 0.0
C402 C 0.24158 0.93695 0.20023 0.0
C403 C 0.25806 0.93016 0.21225 0.0
C404 C 0.26965 0.9388 0.24703 0.0
C405 C 0.26526 0.95464 0.27037 0.0
C406 C 0.24856 0.96116 0.25845 0.0
C407 C 0.23678 0.95228 0.22374 0.0
C408 C 0.24661 0.93587 0.1328 0.0
C409 C 0.2571 0.96008 0.11891 0.0
C410 C 0.27539 0.96863 0.0915 0.0
C411 C 0.28351 0.95298 0.07721 0.0
C412 C 0.27232 0.92834 0.09001 0.0
C413 C 0.2542 0.9199 0.11773 0.0
C414 C 0.20748 0.90448 0.16216 0.0
C415 C 0.20681 0.88251 0.17162 0.0
C416 C 0.18465 0.85915 0.17007 0.0
C417 C 0.16247 0.85724 0.16015 0.0
C418 C 0.16325 0.87935 0.15097 0.0
C419 C 0.18556 0.90264 0.15172 0.0
H420 H 0.35394 0.27271 0.84146 0.0
N421 N 0.30818 0.23289 0.86004 0.0
H422 H 0.3649 0.29664 0.78518 0.0
H423 H 0.27872 0.22571 0.80282 0.0
H424 H 0.28956 0.25042 0.74605 0.0
H425 H 0.28172 0.24936 0.89333 0.0
H426 H 0.29385 0.27963 0.94596 0.0
H427 H 0.35045 0.25226 0.90251 0.0
H428 H 0.36266 0.28237 0.95511 0.0
H429 H 0.34944 0.23276 0.83567 0.0
H430 H 0.27783 0.18739 0.88662 0.0
H431 H 0.35662 0.19878 0.84012 0.0
H432 H 0.28545 0.1531 0.8924 0.0
H433 H 0.3725 0.11035 0.80821 0.0
H434 H 0.36519 0.08424 0.75168 0.0
H435 H 0.29801 0.02395 0.79984 0.0
H436 H 0.30504 0.05056 0.85567 0.0
H437 H 0.30628 0.07209 0.91647 0.0
H438 H 0.30327 0.04648 0.96856 0.0
H439 H 0.3797 0.06973 0.95233 0.0
H440 H 0.38231 0.09504 0.90004 0.0
H441 H 0.37514 0.14598 0.88862 0.0
H442 H 0.36508 0.17861 0.88816 0.0
H443 H 0.29026 0.12233 0.85511 0.0
N444 N 0.34609 0.09762 0.87035 0.0
H445 H 0.30037 0.08972 0.85703 0.0
C446 C 0.31541 0.24712 0.82634 0.0
C447 C 0.33974 0.26737 0.82078 0.0
C448 C 0.34603 0.28109 0.78837 0.0
C449 C 0.3281 0.27534 0.7611 0.0
C450 C 0.30376 0.25522 0.7666 0.0
C451 C 0.29756 0.24112 0.79889 0.0
C452 C 0.31499 0.24847 0.89385 0.0
C453 C 0.29922 0.25622 0.9071 0.0
C454 C 0.30627 0.27357 0.93708 0.0
C455 C 0.32934 0.28355 0.95453 0.0
C456 C 0.34477 0.27502 0.9423 0.0
C457 C 0.33774 0.25772 0.91214 0.0
C458 C 0.3128 0.21266 0.86055 0.0
C459 C 0.33508 0.21551 0.84766 0.0
C460 C 0.33938 0.19603 0.85066 0.0
C461 C 0.32172 0.17333 0.86698 0.0
C462 C 0.29934 0.17031 0.87945 0.0
C463 C 0.29499 0.18985 0.87626 0.0
C464 C 0.33977 0.0823 0.83644 0.0
C465 C 0.35604 0.09164 0.80625 0.0
C466 C 0.35174 0.07668 0.77398 0.0
C467 C 0.33114 0.05187 0.7715 0.0
C468 C 0.31415 0.04289 0.80109 0.0
C469 C 0.31827 0.05808 0.83317 0.0
C470 C 0.34453 0.08523 0.90423 0.0
C471 C 0.32246 0.07198 0.92455 0.0
C472 C 0.32079 0.05735 0.95433 0.0
C473 C 0.34117 0.05587 0.96433 0.0
C474 C 0.36362 0.07039 0.94531 0.0
C475 C 0.36519 0.08484 0.91545 0.0
C476 C 0.33868 0.11566 0.87245 0.0
C477 C 0.35654 0.14075 0.8817 0.0
C478 C 0.35078 0.15931 0.8811 0.0
C479 C 0.32698 0.1531 0.87093 0.0
C480 C 0.30873 0.12769 0.86313 0.0
C481 C 0.31452 0.10906 0.86399 0.0
H482 H 0.71977 0.11175 0.80564 0.0
N483 N 0.72975 0.09774 0.86849 0.0
H484 H 0.7039 0.08717 0.74698 0.0
H485 H 0.72288 0.0509 0.85226 0.0
H486 H 0.70612 0.02594 0.79454 0.0
H487 H 0.73996 0.06944 0.91237 0.0
H488 H 0.713 0.04125 0.96078 0.0
H489 H 0.69091 0.09636 0.89909 0.0
H490 H 0.66441 0.06904 0.94882 0.0
H491 H 0.75002 0.14582 0.88873 0.0
H492 H 0.76798 0.09026 0.85709 0.0
H493 H 0.79394 0.17852 0.89134 0.0
H494 H 0.81192 0.12291 0.85811 0.0
H495 H 0.90667 0.27152 0.84229 0.0
H496 H 0.92462 0.29502 0.78635 0.0
H497 H 0.95124 0.24621 0.75438 0.0
H498 H 0.9324 0.22203 0.81092 0.0
H499 H 0.95115 0.24472 0.89858 0.0
H500 H 0.97311 0.27773 0.94668 0.0
H501 H 0.91216 0.28939 0.95336 0.0
H502 H 0.89028 0.25619 0.90537 0.0
H503 H 0.86909 0.23379 0.84359 0.0
H504 H 0.82611 0.20047 0.84706 0.0
H505 H 0.84684 0.15231 0.8966 0.0
N506 N 0.90915 0.2316 0.8654 0.0
H507 H 0.89044 0.18587 0.89167 0.0
C508 C 0.72194 0.08311 0.83376 0.0
C509 C 0.7171 0.09315 0.80318 0.0
C510 C 0.70816 0.07911 0.76969 0.0
C511 C 0.70355 0.0545 0.76632 0.0
C512 C 0.70927 0.04475 0.79646 0.0
C513 C 0.71871 0.05903 0.82971 0.0
C514 C 0.71702 0.08453 0.90155 0.0
C515 C 0.7237 0.06971 0.92044 0.0
C516 C 0.70837 0.05372 0.94821 0.0
C517 C 0.68662 0.05294 0.95832 0.0
C518 C 0.68115 0.0694 0.94171 0.0
C519 C 0.69615 0.08488 0.91325 0.0
C520 C 0.75578 0.11582 0.87234 0.0
C521 C 0.76353 0.14075 0.88246 0.0
C522 C 0.78859 0.15937 0.8836 0.0
C523 C 0.80646 0.15341 0.87434 0.0
C524 C 0.79867 0.12814 0.86558 0.0
C525 C 0.77353 0.10945 0.86473 0.0
C526 C 0.91789 0.24466 0.83074 0.0
C527 C 0.91584 0.26538 0.8231 0.0
C528 C 0.9263 0.27897 0.79096 0.0
C529 C 0.93944 0.27253 0.7659 0.0
C530 C 0.94124 0.25164 0.77318 0.0
C531 C 0.93044 0.23778 0.8053 0.0
C532 C 0.91924 0.24802 0.89815 0.0
C533 C 0.94233 0.25402 0.91105 0.0
C534 C 0.95486 0.273 0.93838 0.0
C535 C 0.94451 0.28646 0.95342 0.0
C536 C 0.92066 0.27943 0.94222 0.0
C537 C 0.90811 0.26038 0.91473 0.0
C538 C 0.88325 0.2123 0.86702 0.0
C539 C 0.86469 0.21616 0.85495 0.0
C540 C 0.83988 0.19704 0.85738 0.0
C541 C 0.83296 0.17371 0.87228 0.0
C542 C 0.85152 0.16994 0.88457 0.0
C543 C 0.8764 0.18908 0.88193 0.0
H544 H 0.7477 0.72281 0.84656 0.0
N545 N 0.76469 0.69873 0.8828 0.0
H546 H 0.72646 0.71101 0.78615 0.0
H547 H 0.7546 0.65791 0.83794 0.0
H548 H 0.73352 0.64596 0.77746 0.0
H549 H 0.72464 0.65072 0.892 0.0
H550 H 0.69549 0.63671 0.94379 0.0
H551 H 0.76799 0.72439 0.94564 0.0
H552 H 0.73927 0.71008 0.99853 0.0
H553 H 0.80702 0.73052 0.84987 0.0
H554 H 0.77273 0.66552 0.91908 0.0
H555 H 0.84487 0.73008 0.84857 0.0
H556 H 0.81109 0.66644 0.92123 0.0
H557 H 0.96277 0.72487 0.83677 0.0
H558 H 0.97395 0.71254 0.77748 0.0
H559 H 0.90232 0.64338 0.77375 0.0
H560 H 0.89146 0.65563 0.83223 0.0
H561 H 0.90951 0.65011 0.8887 0.0
H562 H 0.9254 0.63749 0.93921 0.0
H563 H 0.96404 0.71395 0.98481 0.0
H564 H 0.94849 0.72653 0.93352 0.0
H565 H 0.91689 0.73797 0.87396 0.0
H566 H 0.87923 0.7388 0.87971 0.0
H567 H 0.83696 0.65769 0.88997 0.0
N568 N 0.92144 0.69836 0.87565 0.0
H569 H 0.87497 0.65774 0.88839 0.0
C570 C 0.75271 0.69134 0.8467 0.0
C571 C 0.74471 0.70609 0.83145 0.0
C572 C 0.73264 0.69931 0.79693 0.0
C573 C 0.72833 0.67754 0.77693 0.0
C574 C 0.73663 0.66289 0.79205 0.0
C575 C 0.74867 0.66967 0.82665 0.0
C576 C 0.7482 0.689 0.91439 0.0
C577 C 0.72802 0.6639 0.91492 0.0
C578 C 0.71144 0.65579 0.94476 0.0
C579 C 0.71509 0.67233 0.97508 0.0
C580 C 0.73607 0.69688 0.97562 0.0
C581 C 0.75236 0.70515 0.94538 0.0
C582 C 0.78706 0.69835 0.88473 0.0
C583 C 0.80787 0.71647 0.86542 0.0
C584 C 0.82963 0.71632 0.86512 0.0
C585 C 0.83139 0.69836 0.88511 0.0
C586 C 0.81051 0.68033 0.90491 0.0
C587 C 0.78848 0.68001 0.90418 0.0
C588 C 0.92636 0.69135 0.83918 0.0
C589 C 0.94943 0.70722 0.82278 0.0
C590 C 0.95576 0.70015 0.78896 0.0
C591 C 0.93905 0.67691 0.77101 0.0
C592 C 0.91566 0.66138 0.78688 0.0
C593 C 0.90937 0.66847 0.82057 0.0
C594 C 0.92832 0.68952 0.90692 0.0
C595 C 0.9213 0.66417 0.90956 0.0
C596 C 0.93032 0.65692 0.93861 0.0
C597 C 0.94615 0.67475 0.96584 0.0
C598 C 0.95192 0.69973 0.96428 0.0
C599 C 0.94316 0.70701 0.93498 0.0
C600 C 0.89871 0.69783 0.87974 0.0
C601 C 0.89942 0.72047 0.87774 0.0
C602 C 0.87777 0.72079 0.88061 0.0
C603 C 0.85471 0.69823 0.88459 0.0
C604 C 0.85419 0.67554 0.8873 0.0
C605 C 0.87599 0.67541 0.88564 0.0
H606 H 0.68433 0.60579 0.52935 0.0
N607 N 0.72586 0.62842 0.48956 0.0
H608 H 0.67629 0.61986 0.58985 0.0
H609 H 0.75863 0.67062 0.53082 0.0
H610 H 0.75083 0.68485 0.59079 0.0
H611 H 0.73858 0.67714 0.47755 0.0
H612 H 0.72799 0.69187 0.42355 0.0
H613 H 0.70177 0.60188 0.42823 0.0
H614 H 0.69141 0.61676 0.37322 0.0
H615 H 0.73461 0.59688 0.52339 0.0
H616 H 0.76902 0.66087 0.45206 0.0
H617 H 0.77305 0.59757 0.52545 0.0
H618 H 0.80648 0.6602 0.45099 0.0
H619 H 0.89859 0.60432 0.53273 0.0
H620 H 0.9231 0.61689 0.59026 0.0
H621 H 0.92076 0.6847 0.59895 0.0
H622 H 0.89654 0.67213 0.54204 0.0
H623 H 0.92292 0.67838 0.48529 0.0
H624 H 0.95282 0.69107 0.43456 0.0
H625 H 0.91015 0.616 0.38453 0.0
H626 H 0.88081 0.60319 0.43625 0.0
H627 H 0.83823 0.59037 0.49984 0.0
H628 H 0.79948 0.58896 0.49464 0.0
H629 H 0.84067 0.67004 0.48412 0.0
N630 N 0.88367 0.63029 0.49681 0.0
H631 H 0.87898 0.67059 0.48551 0.0
C632 C 0.72191 0.63715 0.52542 0.0
C633 C 0.69888 0.623 0.54281 0.0
C634 C 0.6944 0.631 0.57741 0.0
C635 C 0.71293 0.65348 0.59515 0.0
C636 C 0.73614 0.66745 0.57792 0.0
C637 C 0.74063 0.65938 0.5435 0.0
C638 C 0.72032 0.63806 0.45755 0.0
C639 C 0.7281 0.66366 0.45527 0.0
C640 C 0.72227 0.6722 0.42401 0.0
C641 C 0.70884 0.65549 0.39409 0.0
C642 C 0.70191 0.63015 0.39571 0.0
C643 C 0.70757 0.62155 0.42722 0.0
C644 C 0.74857 0.62852 0.48746 0.0
C645 C 0.75029 0.61072 0.50752 0.0
C646 C 0.7723 0.61105 0.50835 0.0
C647 C 0.79309 0.6289 0.48824 0.0
C648 C 0.79118 0.64647 0.46751 0.0
C649 C 0.76939 0.6466 0.46762 0.0
C650 C 0.89564 0.63711 0.53288 0.0
C651 C 0.90307 0.62168 0.54748 0.0
C652 C 0.91708 0.62892 0.58028 0.0
C653 C 0.92402 0.6519 0.59902 0.0
C654 C 0.9158 0.66692 0.58513 0.0
C655 C 0.90177 0.65964 0.55242 0.0
C656 C 0.89993 0.6395 0.46506 0.0
C657 C 0.9199 0.66464 0.46345 0.0
C658 C 0.93696 0.67195 0.43427 0.0
C659 C 0.93397 0.65448 0.40579 0.0
C660 C 0.913 0.62992 0.40608 0.0
C661 C 0.89627 0.6225 0.43562 0.0
C662 C 0.86137 0.63053 0.4939 0.0
C663 C 0.83872 0.60774 0.49623 0.0
C664 C 0.81661 0.60708 0.49361 0.0
C665 C 0.81671 0.62944 0.48945 0.0
C666 C 0.83963 0.65233 0.48681 0.0
C667 C 0.86171 0.65281 0.48833 0.0
H668 H 0.4006 0.08879 0.51141 0.0
N669 N 0.37426 0.10533 0.48057 0.0
H670 H 0.39228 0.06658 0.5702 0.0
H671 H 0.33822 0.09671 0.53212 0.0
H672 H 0.33008 0.0751 0.58996 0.0
H673 H 0.32645 0.06465 0.4766 0.0
H674 H 0.30954 0.03114 0.42834 0.0
H675 H 0.39474 0.10497 0.41543 0.0
H676 H 0.37745 0.0718 0.36608 0.0
H677 H 0.41275 0.15238 0.48296 0.0
H678 H 0.33352 0.10882 0.47278 0.0
H679 H 0.41266 0.19128 0.48086 0.0
H680 H 0.33284 0.14729 0.47405 0.0
H681 H 0.39517 0.30963 0.51883 0.0
H682 H 0.38223 0.32148 0.57692 0.0
H683 H 0.32027 0.24483 0.58429 0.0
H684 H 0.3333 0.23329 0.52664 0.0
H685 H 0.32403 0.25073 0.47117 0.0
H686 H 0.30831 0.26298 0.42019 0.0
H687 H 0.3807 0.30145 0.36977 0.0
H688 H 0.39659 0.28962 0.42185 0.0
H689 H 0.40447 0.2568 0.51476 0.0
H690 H 0.40462 0.21793 0.51456 0.0
H691 H 0.33998 0.18173 0.44323 0.0
N692 N 0.37229 0.26494 0.48249 0.0
H693 H 0.33875 0.2197 0.44639 0.0
C694 C 0.37028 0.09467 0.51712 0.0
C695 C 0.38541 0.08613 0.52883 0.0
C696 C 0.38061 0.07342 0.56232 0.0
C697 C 0.36044 0.06895 0.58467 0.0
C698 C 0.34574 0.07813 0.57341 0.0
C699 C 0.35052 0.09076 0.5401 0.0
C700 C 0.36228 0.08708 0.45015 0.0
C701 C 0.33774 0.06656 0.45259 0.0
C702 C 0.32797 0.04744 0.42481 0.0
C703 C 0.34223 0.04882 0.39361 0.0
C704 C 0.36598 0.0703 0.38973 0.0
C705 C 0.37594 0.08916 0.41794 0.0
C706 C 0.37325 0.12776 0.47858 0.0
C707 C 0.39531 0.15128 0.48071 0.0
C708 C 0.39513 0.1735 0.47993 0.0
C709 C 0.3727 0.1727 0.47778 0.0
C710 C 0.35055 0.14893 0.47519 0.0
C711 C 0.35085 0.12674 0.47498 0.0
C712 C 0.36529 0.27067 0.51836 0.0
C713 C 0.37899 0.2954 0.53337 0.0
C714 C 0.37158 0.3021 0.56651 0.0
C715 C 0.35015 0.28414 0.58516 0.0
C716 C 0.33682 0.25918 0.57061 0.0
C717 C 0.34428 0.2525 0.53762 0.0
C718 C 0.36182 0.2699 0.45094 0.0
C719 C 0.33664 0.26185 0.44937 0.0
C720 C 0.32756 0.26868 0.41992 0.0
C721 C 0.34329 0.2833 0.39108 0.0
C722 C 0.36809 0.29009 0.39152 0.0
C723 C 0.37725 0.28352 0.42131 0.0
C724 C 0.3719 0.24156 0.48043 0.0
C725 C 0.39031 0.24039 0.49921 0.0
C726 C 0.39047 0.21813 0.49868 0.0
C727 C 0.37242 0.19647 0.47858 0.0
C728 C 0.35398 0.19772 0.45958 0.0
C729 C 0.35347 0.21979 0.46096 0.0
H730 H 0.74503 0.08454 0.50344 0.0
N731 N 0.73 0.11319 0.4712 0.0
H732 H 0.72904 0.06101 0.56006 0.0
H733 H 0.69428 0.11003 0.51532 0.0
H734 H 0.67777 0.086 0.57267 0.0
H735 H 0.68946 0.08765 0.42963 0.0
H736 H 0.67991 0.05482 0.38177 0.0
H737 H 0.76251 0.1009 0.4418 0.0
H738 H 0.75317 0.06813 0.39391 0.0
H739 H 0.7654 0.1319 0.52832 0.0
H740 H 0.74978 0.14839 0.41965 0.0
H741 H 0.80519 0.17024 0.52854 0.0
H742 H 0.7906 0.18707 0.41969 0.0
H743 H 0.93 0.26359 0.50931 0.0
H744 H 0.94946 0.27701 0.57048 0.0
H745 H 0.90711 0.31121 0.59704 0.0
H746 H 0.88805 0.29822 0.53471 0.0
H747 H 0.92433 0.31728 0.44775 0.0
H748 H 0.95722 0.32869 0.40214 0.0
H749 H 0.94076 0.25215 0.3994 0.0
H750 H 0.90817 0.24098 0.44511 0.0
H751 H 0.88498 0.22722 0.50332 0.0
H752 H 0.84464 0.18831 0.49956 0.0
H753 H 0.81448 0.22816 0.44938 0.0
N754 N 0.89664 0.27358 0.48032 0.0
H755 H 0.85538 0.26697 0.45205 0.0
C756 C 0.72092 0.09924 0.50515 0.0
C757 C 0.7303 0.08495 0.51811 0.0
C758 C 0.72121 0.07161 0.55078 0.0
C759 C 0.70221 0.07176 0.57096 0.0
C760 C 0.69245 0.08559 0.55771 0.0
C761 C 0.70187 0.09934 0.52512 0.0
C762 C 0.72653 0.09666 0.43941 0.0
C763 C 0.70357 0.08378 0.4214 0.0
C764 C 0.69817 0.06499 0.39417 0.0
C765 C 0.71573 0.0587 0.38429 0.0
C766 C 0.73926 0.07253 0.40087 0.0
C767 C 0.7446 0.09127 0.42832 0.0
C768 C 0.75421 0.13636 0.47318 0.0
C769 C 0.77035 0.14325 0.50397 0.0
C770 C 0.79351 0.1655 0.50422 0.0
C771 C 0.80133 0.18161 0.47393 0.0
C772 C 0.78516 0.17515 0.4436 0.0
C773 C 0.76186 0.15293 0.44342 0.0
C774 C 0.90778 0.28031 0.51705 0.0
C775 C 0.92495 0.27413 0.52797 0.0
C776 C 0.9361 0.28182 0.56312 0.0
C777 C 0.92997 0.29537 0.58849 0.0
C778 C 0.91225 0.30085 0.57806 0.0
C779 C 0.90138 0.29349 0.54255 0.0
C780 C 0.91366 0.27839 0.44995 0.0
C781 C 0.92758 0.3029 0.43683 0.0
C782 C 0.94642 0.30936 0.41089 0.0
C783 C 0.95172 0.29133 0.39735 0.0
C784 C 0.93711 0.26645 0.40925 0.0
C785 C 0.91834 0.26004 0.43546 0.0
C786 C 0.87317 0.25007 0.47788 0.0
C787 C 0.86977 0.2276 0.49129 0.0
C788 C 0.84658 0.20535 0.48936 0.0
C789 C 0.82622 0.2051 0.47438 0.0
C790 C 0.82978 0.22757 0.46067 0.0
C791 C 0.85305 0.24978 0.46236 0.0
H792 H 0.00642 0.60141 0.1887 0.0
N793 N 0.96226 0.55953 0.20804 0.0
H794 H 0.01497 0.62563 0.13326 0.0
H795 H 0.93047 0.5524 0.15426 0.0
H796 H 0.93897 0.57739 0.09817 0.0
H797 H 0.93849 0.57696 0.24723 0.0
H798 H 0.95477 0.60855 0.29841 0.0
H799 H 0.00596 0.57672 0.24612 0.0
H800 H 0.0222 0.60806 0.29722 0.0
H801 H 0.00276 0.56171 0.17472 0.0
H802 H 0.93462 0.51292 0.2327 0.0
H803 H 0.01138 0.5286 0.17076 0.0
H804 H 0.94387 0.47947 0.23001 0.0
H805 H 0.03167 0.43875 0.12985 0.0
H806 H 0.02407 0.41022 0.07633 0.0
H807 H 0.95791 0.3518 0.12941 0.0
H808 H 0.96532 0.38085 0.1823 0.0
H809 H 0.9691 0.40323 0.24307 0.0
H810 H 0.96944 0.37995 0.29602 0.0
H811 H 0.04582 0.4055 0.2731 0.0
H812 H 0.04511 0.42856 0.21999 0.0
H813 H 0.03528 0.47701 0.20871 0.0
H814 H 0.02365 0.50844 0.21306 0.0
H815 H 0.94807 0.45036 0.18702 0.0
N816 N 0.00659 0.42828 0.19311 0.0
H817 H 0.95988 0.41889 0.18399 0.0
C818 C 0.96771 0.57474 0.17561 0.0
C819 C 0.99146 0.59583 0.16932 0.0
C820 C -0.0036 0.60972 0.13739 0.0
C821 C 0.97767 0.60328 0.11128 0.0
C822 C 0.95374 0.58272 0.1179 0.0
C823 C 0.94889 0.56845 0.14974 0.0
C824 C 0.97082 0.57443 0.24254 0.0
C825 C 0.95653 0.58324 0.25864 0.0
C826 C 0.96594 0.60138 0.28774 0.0
C827 C 0.98993 0.61105 0.30149 0.0
C828 C 0.00368 0.60101 0.28719 0.0
C829 C 0.99429 0.58295 0.25787 0.0
C830 C 0.96772 0.53988 0.20387 0.0
C831 C 0.98944 0.54389 0.18648 0.0
C832 C 0.9946 0.52487 0.18458 0.0
C833 C 0.97845 0.50146 0.20038 0.0
C834 C 0.95659 0.49725 0.21729 0.0
C835 C 0.95133 0.51633 0.219 0.0
C836 C -0.00055 0.41189 0.16027 0.0
C837 C 0.0153 0.41995 0.12952 0.0
C838 C 0.01088 0.40355 0.09903 0.0
C839 C 0.99056 0.37854 0.09889 0.0
C840 C 0.97386 0.37084 0.12886 0.0
C841 C 0.97814 0.38746 0.1592 0.0
C842 C 0.00708 0.41735 0.22742 0.0
C843 C 0.98601 0.40415 0.24986 0.0
C844 C 0.98626 0.39088 0.28017 0.0
C845 C 0.00758 0.39065 0.28851 0.0
C846 C 0.02907 0.40521 0.26738 0.0
C847 C 0.02873 0.41835 0.23703 0.0
C848 C -0.0014 0.44585 0.19559 0.0
C849 C 0.01622 0.47115 0.20401 0.0
C850 C 0.00954 0.48903 0.20625 0.0
C851 C 0.98498 0.48195 0.19984 0.0
C852 C 0.96711 0.45638 0.19221 0.0
C853 C 0.97385 0.43841 0.19018 0.0
H854 H 0.63184 0.5806 0.18135 0.0
N855 N 0.59063 0.56408 0.22083 0.0
H856 H 0.64248 0.60202 0.12174 0.0
H857 H 0.56105 0.5737 0.17976 0.0
H858 H 0.57147 0.59518 0.12054 0.0
H859 H 0.58387 0.60379 0.23341 0.0
H860 H 0.60398 0.63683 0.282 0.0
H861 H 0.61445 0.56367 0.28071 0.0
H862 H 0.63353 0.59615 0.33082 0.0
H863 H 0.57811 0.52116 0.18493 0.0
H864 H 0.54921 0.55459 0.26056 0.0
H865 H 0.53814 0.48208 0.18274 0.0
H866 H 0.50983 0.51481 0.26177 0.0
H867 H 0.40791 0.35871 0.1697 0.0
H868 H 0.38315 0.34684 0.11236 0.0
H869 H 0.39139 0.42005 0.11514 0.0
H870 H 0.41564 0.43154 0.17175 0.0
H871 H 0.38717 0.40691 0.22664 0.0
H872 H 0.35845 0.38842 0.27862 0.0
H873 H 0.4028 0.36176 0.32257 0.0
H874 H 0.43091 0.37921 0.26927 0.0
H875 H 0.4706 0.40751 0.20432 0.0
H876 H 0.51066 0.4465 0.21133 0.0
H877 H 0.47401 0.48758 0.23154 0.0
N878 N 0.42637 0.40129 0.21072 0.0
H879 H 0.43428 0.44797 0.22873 0.0
C880 C 0.59581 0.5757 0.18499 0.0
C881 C 0.61859 0.58361 0.16795 0.0
C882 C 0.62456 0.59576 0.13392 0.0
C883 C 0.60784 0.60036 0.11647 0.0
C884 C 0.58479 0.59199 0.13329 0.0
C885 C 0.57879 0.57971 0.16715 0.0
C886 C 0.59839 0.58156 0.25265 0.0
C887 C 0.59457 0.6018 0.25447 0.0
C888 C 0.60588 0.62063 0.28251 0.0
C889 C 0.62039 0.61909 0.30997 0.0
C890 C 0.62232 0.59774 0.31008 0.0
C891 C 0.61157 0.57926 0.28143 0.0
C892 C 0.56692 0.5408 0.223 0.0
C893 C 0.56322 0.51982 0.20176 0.0
C894 C 0.54029 0.49732 0.20094 0.0
C895 C 0.52047 0.49485 0.2224 0.0
C896 C 0.52433 0.51588 0.24429 0.0
C897 C 0.54714 0.53872 0.24411 0.0
C898 C 0.41383 0.39599 0.17519 0.0
C899 C 0.4046 0.37225 0.15754 0.0
C900 C 0.39046 0.36552 0.12485 0.0
C901 C 0.38521 0.38247 0.10926 0.0
C902 C 0.39504 0.4065 0.1264 0.0
C903 C 0.40914 0.41319 0.15896 0.0
C904 C 0.41085 0.39371 0.24342 0.0
C905 C 0.39084 0.39716 0.24733 0.0
C906 C 0.37451 0.38678 0.27725 0.0
C907 C 0.37841 0.37364 0.30444 0.0
C908 C 0.39946 0.37195 0.3021 0.0
C909 C 0.4154 0.38172 0.27162 0.0
C910 C 0.44955 0.42492 0.21481 0.0
C911 C 0.47138 0.42501 0.2104 0.0
C912 C 0.49428 0.44746 0.21406 0.0
C913 C 0.49591 0.47063 0.22119 0.0
C914 C 0.4738 0.47033 0.22632 0.0
C915 C 0.4509 0.44767 0.22391 0.0
H916 H 0.57112 0.94313 0.15142 0.0
N917 N 0.56043 0.97354 0.18848 0.0
H918 H 0.59047 0.94905 0.09003 0.0
H919 H 0.57051 0.01125 0.13947 0.0
H920 H 0.58893 0.01663 0.07794 0.0
H921 H 0.60454 0.01835 0.19572 0.0
H922 H 0.63823 0.02763 0.23758 0.0
H923 H 0.55937 0.9449 0.24218 0.0
H924 H 0.59312 0.95389 0.28424 0.0
H925 H 0.51209 0.94201 0.19326 0.0
H926 H 0.56889 0.0207 0.20497 0.0
H927 H 0.48061 0.95226 0.20548 0.0
H928 H 0.53779 0.03149 0.21401 0.0
H929 H 0.39056 0.97682 0.19907 0.0
H930 H 0.36628 0.96797 0.14331 0.0
H931 H 0.4179 0.04313 0.1059 0.0
H932 H 0.44266 0.05201 0.16272 0.0
H933 H 0.42933 0.05378 0.26138 0.0
H934 H 0.4031 0.04477 0.31681 0.0
H935 H 0.38199 0.96682 0.30806 0.0
H936 H 0.40932 0.97623 0.25418 0.0
H937 H 0.43016 0.97966 0.18004 0.0
H938 H 0.46108 0.96886 0.1761 0.0
H939 H 0.50815 0.03194 0.25098 0.0
N940 N 0.43396 0.02102 0.21818 0.0
H941 H 0.47753 0.04404 0.25222 0.0
C942 C 0.56907 0.97644 0.15034 0.0
C943 C 0.57471 0.95906 0.13535 0.0
C944 C 0.5859 0.96258 0.10045 0.0
C945 C 0.59127 0.98339 0.07939 0.0
C946 C 0.58489 0.00039 0.0936 0.0
C947 C 0.57422 0.99719 0.12899 0.0
C948 C 0.57943 0.98086 0.21596 0.0
C949 C 0.6017 0.00442 0.21552 0.0
C950 C 0.62101 0.00962 0.23936 0.0
C951 C 0.61843 0.99138 0.26396 0.0
C952 C 0.59573 0.96829 0.26549 0.0
C953 C 0.57642 0.96313 0.24165 0.0
C954 C 0.5427 0.9805 0.1975 0.0
C955 C 0.5177 0.96152 0.19822 0.0
C956 C 0.49976 0.96752 0.20484 0.0
C957 C 0.5065 0.99281 0.21006 0.0
C958 C 0.53176 0.01178 0.21053 0.0
C959 C 0.54968 0.00566 0.20491 0.0
C960 C 0.4186 0.01532 0.18551 0.0
C961 C 0.39677 0.99164 0.17941 0.0
C962 C 0.38288 0.98645 0.14704 0.0
C963 C 0.3902 0.0048 0.12005 0.0
C964 C 0.41181 0.02858 0.12619 0.0
C965 C 0.42592 0.0337 0.15859 0.0
C966 C 0.42079 0.01564 0.25313 0.0
C967 C 0.41951 0.03493 0.27205 0.0
C968 C 0.40471 0.02979 0.30376 0.0
C969 C 0.39054 0.00509 0.31643 0.0
C970 C 0.39275 0.986 0.29867 0.0
C971 C 0.40816 0.99133 0.26771 0.0
C972 C 0.45162 0.01323 0.21593 0.0
C973 C 0.4471 0.99153 0.19537 0.0
C974 C 0.46486 0.98501 0.19359 0.0
C975 C 0.48729 -0.00055 0.21322 0.0
C976 C 0.49141 0.02064 0.23474 0.0
C977 C 0.47386 0.02753 0.23574 0.0
H978 H 0.35398 0.93825 0.8672 0.0
N979 N 0.39583 0.95981 0.82823 0.0
H980 H 0.34573 0.95317 0.92681 0.0
H981 H 0.42901 0.00186 0.87021 0.0
H982 H 0.42104 0.01668 0.92905 0.0
H983 H 0.40978 0.00885 0.81542 0.0
H984 H 0.40097 0.02397 0.75987 0.0
H985 H 0.37279 0.93355 0.76632 0.0
H986 H 0.3643 0.94876 0.70994 0.0
H987 H 0.39772 0.91922 0.84059 0.0
H988 H 0.44291 0.99687 0.80985 0.0
H989 H 0.43351 0.9147 0.83425 0.0
H990 H 0.47872 0.99289 0.80482 0.0
H991 H 0.56398 0.92076 0.83182 0.0
H992 H 0.5905 0.93257 0.88737 0.0
H993 H 0.58452 0.99774 0.90679 0.0
H994 H 0.55797 0.98568 0.85231 0.0
H995 H 0.57618 0.99681 0.79262 0.0
H996 H 0.60505 0.01629 0.74144 0.0
H997 H 0.57906 0.94254 0.6908 0.0
H998 H 0.55039 0.9231 0.74287 0.0
H999 H 0.50897 0.92397 0.85389 0.0
H1000 H 0.47274 0.9273 0.86168 0.0
H1001 H 0.49399 0.97295 0.76428 0.0
N1002 N 0.54521 0.94602 0.80324 0.0
H1003 H 0.53005 0.97037 0.75692 0.0
C1004 C 0.39201 0.96878 0.864 0.0
C1005 C 0.36869 0.95529 0.8808 0.0
C1006 C 0.36405 0.9638 0.91487 0.0
C1007 C 0.38273 0.98612 0.93271 0.0
C1008 C 0.40621 -0.0006 0.91613 0.0
C1009 C 0.41083 0.99087 0.88225 0.0
C1010 C 0.3913 0.96974 0.79559 0.0
C1011 C 0.39972 0.99547 0.79282 0.0
C1012 C 0.3949 0.00422 0.76072 0.0
C1013 C 0.38196 0.98759 0.73045 0.0
C1014 C 0.37447 0.96211 0.73263 0.0
C1015 C 0.37904 0.95332 0.76495 0.0
C1016 C 0.41755 0.95825 0.82571 0.0
C1017 C 0.41542 0.93532 0.83285 0.0
C1018 C 0.4359 0.93285 0.82941 0.0
C1019 C 0.45898 0.95341 0.81886 0.0
C1020 C 0.46114 0.97653 0.81233 0.0
C1021 C 0.44066 0.97892 0.81553 0.0
C1022 C 0.55908 0.95232 0.83772 0.0
C1023 C 0.56822 0.9374 0.84845 0.0
C1024 C 0.58334 0.94416 0.88009 0.0
C1025 C 0.58978 0.9662 0.90122 0.0
C1026 C 0.58013 0.98079 0.89089 0.0
C1027 C 0.5649 0.97391 0.85966 0.0
C1028 C 0.56145 0.9583 0.77204 0.0
C1029 C 0.57676 0.98476 0.77075 0.0
C1030 C 0.59308 0.99595 0.7411 0.0
C1031 C 0.59446 0.981 0.71208 0.0
C1032 C 0.57846 0.95463 0.71268 0.0
C1033 C 0.56216 0.94344 0.74245 0.0
C1034 C 0.52337 0.94781 0.80604 0.0
C1035 C 0.50604 0.93499 0.83444 0.0
C1036 C 0.48515 0.93669 0.83867 0.0
C1037 C 0.48072 0.95082 0.81403 0.0
C1038 C 0.49729 0.96263 0.78455 0.0
C1039 C 0.51822 0.9611 0.78044 0.0
H1040 H 0.97524 0.5601 0.88956 0.0
N1041 N -0.00277 0.57512 0.82392 0.0
H1042 H 0.98044 0.58643 0.94491 0.0
H1043 H 0.03375 0.62476 0.83438 0.0
H1044 H 0.03848 0.65166 0.88922 0.0
H1045 H 0.03148 0.59787 0.76887 0.0
H1046 H 0.02834 0.61998 0.71606 0.0
H1047 H 0.95842 0.57693 0.80451 0.0
H1048 H 0.95525 0.59932 0.75251 0.0
H1049 H 0.96699 0.52621 0.81066 0.0
H1050 H 0.04344 0.58329 0.82974 0.0
H1051 H 0.9771 0.49358 0.80874 0.0
H1052 H 0.05388 0.55063 0.82887 0.0
H1053 H 0.98876 0.39996 0.84215 0.0
H1054 H 0.98045 0.37488 0.89664 0.0
H1055 H 0.05826 0.41621 0.92316 0.0
H1056 H 0.06654 0.44226 0.86833 0.0
H1057 H 0.05443 0.41693 0.78039 0.0
H1058 H 0.0356 0.38413 0.73101 0.0
H1059 H 0.97158 0.3907 0.73178 0.0
H1060 H 0.9902 0.42305 0.78153 0.0
H1061 H 0.99617 0.44053 0.85428 0.0
H1062 H 0.98958 0.47504 0.85455 0.0
H1063 H 0.05535 0.51821 0.78845 0.0
N1064 N 0.03385 0.43825 0.81844 0.0
H1065 H 0.06244 0.48327 0.78905 0.0
C1066 C 0.00369 0.5905 0.85775 0.0
C1067 C 0.9895 0.57995 0.88973 0.0
C1068 C 0.99253 0.5951 0.92129 0.0
C1069 C 0.00962 0.62128 0.92123 0.0
C1070 C 0.025 0.63162 0.88997 0.0
C1071 C 0.02227 0.61627 0.85859 0.0
C1072 C 0.99506 0.58575 0.7904 0.0
C1073 C 0.0146 0.59763 0.76485 0.0
C1074 C 0.01276 0.6102 0.73472 0.0
C1075 C 0.99158 0.61142 0.7303 0.0
C1076 C 0.97182 0.59876 0.75528 0.0
C1077 C 0.97354 0.58595 0.78489 0.0
C1078 C 0.00439 0.55692 0.82061 0.0
C1079 C 0.986 0.5316 0.81432 0.0
C1080 C 0.99182 0.51304 0.81355 0.0
C1081 C 0.01625 0.51948 0.81928 0.0
C1082 C 0.03491 0.54509 0.8243 0.0
C1083 C 0.02901 0.56373 0.82496 0.0
C1084 C 0.02834 0.42354 0.85147 0.0
C1085 C 0.00411 0.40405 0.85977 0.0
C1086 C -0.00064 0.38958 0.89099 0.0
C1087 C 0.01871 0.39367 0.91422 0.0
C1088 C 0.04302 0.41268 0.90565 0.0
C1089 C 0.04773 0.42763 0.87462 0.0
C1090 C 0.02396 0.42257 0.78482 0.0
C1091 C 0.03659 0.41169 0.76932 0.0
C1092 C 0.02572 0.39286 0.74132 0.0
C1093 C 0.00199 0.3847 0.72788 0.0
C1094 C 0.98989 0.39666 0.74158 0.0
C1095 C 0.00065 0.41528 0.77006 0.0
C1096 C 0.03008 0.45914 0.82166 0.0
C1097 C 0.00954 0.4573 0.84017 0.0
C1098 C 0.00556 0.47714 0.84001 0.0
C1099 C 0.02176 0.49927 0.82113 0.0
C1100 C 0.0426 0.50145 0.80342 0.0
C1101 C 0.04664 0.48152 0.80366 0.0
H1102 H 0.41658 0.40668 0.86373 0.0
N1103 N 0.40116 0.43652 0.83647 0.0
H1104 H 0.40222 0.38256 0.91996 0.0
H1105 H 0.36953 0.43575 0.88674 0.0
H1106 H 0.35439 0.41086 0.94336 0.0
H1107 H 0.35983 0.41303 0.79696 0.0
H1108 H 0.34917 0.38292 0.74455 0.0
H1109 H 0.43231 0.42398 0.80198 0.0
H1110 H 0.42181 0.39376 0.74962 0.0
H1111 H 0.44671 0.44965 0.8638 0.0
H1112 H 0.40733 0.47814 0.80858 0.0
H1113 H 0.4845 0.49068 0.86122 0.0
H1114 H 0.44564 0.51944 0.80463 0.0
H1115 H 0.56269 0.57822 0.8861 0.0
H1116 H 0.58502 0.59592 0.94453 0.0
H1117 H 0.6018 0.66976 0.91494 0.0
H1118 H 0.57902 0.65169 0.85627 0.0
H1119 H 0.56814 0.62877 0.7658 0.0
H1120 H 0.60272 0.64103 0.7227 0.0
H1121 H 0.62735 0.60227 0.78951 0.0
H1122 H 0.59331 0.59057 0.83229 0.0
H1123 H 0.55276 0.55768 0.81544 0.0
H1124 H 0.51414 0.51749 0.81641 0.0
H1125 H 0.47527 0.55547 0.84253 0.0
N1126 N 0.55931 0.60469 0.82938 0.0
H1127 H 0.51433 0.59619 0.84014 0.0
C1128 C 0.39426 0.42329 0.87105 0.0
C1129 C 0.40339 0.4082 0.88112 0.0
C1130 C 0.39506 0.39429 0.91345 0.0
C1131 C 0.37711 0.39475 0.93617 0.0
C1132 C 0.36823 0.41011 0.92644 0.0
C1133 C 0.37686 0.42434 0.89422 0.0
C1134 C 0.39669 0.42069 0.8035 0.0
C1135 C 0.37351 0.40912 0.78641 0.0
C1136 C 0.3675 0.39189 0.75652 0.0
C1137 C 0.38461 0.38579 0.74305 0.0
C1138 C 0.40823 0.39805 0.75932 0.0
C1139 C 0.41423 0.41533 0.78936 0.0
C1140 C 0.42392 0.46079 0.83664 0.0
C1141 C 0.44604 0.46467 0.8512 0.0
C1142 C 0.46786 0.48823 0.84932 0.0
C1143 C 0.46817 0.50835 0.83253 0.0
C1144 C 0.44601 0.50445 0.81816 0.0
C1145 C 0.42415 0.48089 0.82024 0.0
C1146 C 0.56915 0.6137 0.8666 0.0
C1147 C 0.5706 0.59809 0.8924 0.0
C1148 C 0.5835 0.6083 0.92593 0.0
C1149 C 0.59542 0.63432 0.93426 0.0
C1150 C 0.59291 0.64966 0.90934 0.0
C1151 C 0.57988 0.63939 0.87586 0.0
C1152 C 0.57803 0.60881 0.80225 0.0
C1153 C 0.58082 0.62262 0.77067 0.0
C1154 C 0.60057 0.6296 0.74616 0.0
C1155 C 0.61785 0.62272 0.7528 0.0
C1156 C 0.61438 0.60787 0.78352 0.0
C1157 C 0.59483 0.60115 0.80813 0.0
C1158 C 0.53658 0.5803 0.82744 0.0
C1159 C 0.5361 0.5577 0.82086 0.0
C1160 C 0.51386 0.53448 0.82185 0.0
C1161 C 0.4916 0.5332 0.82984 0.0
C1162 C 0.49203 0.55577 0.83589 0.0
C1163 C 0.51431 0.57904 0.83466 0.0
H1164 H 0.70321 0.95202 0.505 0.0
N1165 N 0.65798 0.91426 0.52946 0.0
H1166 H 0.71202 0.97271 0.44565 0.0
H1167 H 0.62683 0.90296 0.47325 0.0
H1168 H 0.63542 0.924 0.4135 0.0
H1169 H 0.62698 0.9256 0.55975 0.0
H1170 H 0.63574 0.95806 0.60749 0.0
H1171 H 0.70109 0.94151 0.56987 0.0
H1172 H 0.71031 0.9745 0.61755 0.0
H1173 H 0.70024 0.91384 0.51587 0.0
H1174 H 0.62522 0.86928 0.5549 0.0
H1175 H 0.70508 0.87817 0.52144 0.0
H1176 H 0.63026 0.83352 0.56248 0.0
H1177 H 0.70768 0.78111 0.47525 0.0
H1178 H 0.69763 0.75472 0.41832 0.0
H1179 H 0.62909 0.69789 0.46807 0.0
H1180 H 0.63886 0.72486 0.52426 0.0
H1181 H 0.64283 0.74735 0.58573 0.0
H1182 H 0.63741 0.71984 0.63664 0.0
H1183 H 0.71099 0.7349 0.61666 0.0
H1184 H 0.71598 0.76206 0.56569 0.0
H1185 H 0.71457 0.81688 0.56116 0.0
H1186 H 0.70875 0.85251 0.5641 0.0
H1187 H 0.63357 0.80318 0.52536 0.0
N1188 N 0.68246 0.76989 0.53854 0.0
H1189 H 0.63929 0.76756 0.52454 0.0
C1190 C 0.66425 0.92578 0.49356 0.0
C1191 C 0.68835 0.94542 0.48509 0.0
C1192 C 0.69337 0.95731 0.451 0.0
C1193 C 0.6744 0.95005 0.42487 0.0
C1194 C 0.65044 0.93006 0.43306 0.0
C1195 C 0.64549 0.91801 0.46708 0.0
C1196 C 0.66332 0.93133 0.561 0.0
C1197 C 0.64505 0.93592 0.57277 0.0
C1198 C 0.65018 0.95454 0.60001 0.0
C1199 C 0.67388 0.96913 0.61605 0.0
C1200 C 0.69192 0.96365 0.60567 0.0
C1201 C 0.68668 0.94485 0.5783 0.0
C1202 C 0.66213 0.89407 0.53444 0.0
C1203 C 0.68481 0.89645 0.52593 0.0
C1204 C 0.68765 0.87599 0.52957 0.0
C1205 C 0.66803 0.85288 0.54235 0.0
C1206 C 0.64561 0.85086 0.55191 0.0
C1207 C 0.64272 0.87127 0.54786 0.0
C1208 C 0.67447 0.75481 0.5043 0.0
C1209 C 0.69033 0.76315 0.47354 0.0
C1210 C 0.68446 0.74804 0.44105 0.0
C1211 C 0.66267 0.72402 0.43892 0.0
C1212 C 0.64612 0.71617 0.46905 0.0
C1213 C 0.6518 0.73156 0.50134 0.0
C1214 C 0.6798 0.75651 0.57181 0.0
C1215 C 0.65789 0.74501 0.59279 0.0
C1216 C 0.65483 0.7293 0.62187 0.0
C1217 C 0.67366 0.72496 0.63044 0.0
C1218 C 0.69606 0.73771 0.61071 0.0
C1219 C 0.699 0.75324 0.58162 0.0
C1220 C 0.67758 0.78981 0.54213 0.0
C1221 C 0.69679 0.81384 0.55375 0.0
C1222 C 0.69346 0.83415 0.55509 0.0
C1223 C 0.6708 0.83082 0.5444 0.0
C1224 C 0.65121 0.80643 0.53404 0.0
C1225 C 0.6545 0.78604 0.5332 0.0
H1226 H 0.30517 0.9087 0.51695 0.0
N1227 N 0.26432 0.89237 0.55721 0.0
H1228 H 0.31516 0.92952 0.45694 0.0
H1229 H 0.23415 0.90135 0.51632 0.0
H1230 H 0.24394 0.92226 0.45665 0.0
H1231 H 0.25702 0.93174 0.56928 0.0
H1232 H 0.27701 0.96516 0.61734 0.0
H1233 H 0.28903 0.89301 0.61671 0.0
H1234 H 0.30806 0.92591 0.66629 0.0
H1235 H 0.25139 0.84907 0.52217 0.0
H1236 H 0.2233 0.88341 0.59764 0.0
H1237 H 0.21115 0.81028 0.52031 0.0
H1238 H 0.18372 0.84397 0.59916 0.0
H1239 H 0.07729 0.68907 0.5045 0.0
H1240 H 0.0531 0.67884 0.44692 0.0
H1241 H 0.06843 0.75492 0.44763 0.0
H1242 H 0.09207 0.76483 0.50449 0.0
H1243 H 0.06201 0.74197 0.55956 0.0
H1244 H 0.03241 0.72566 0.61073 0.0
H1245 H 0.06959 0.69124 0.65548 0.0
H1246 H 0.09872 0.70683 0.6031 0.0
H1247 H 0.1421 0.73659 0.54004 0.0
H1248 H 0.18272 0.77477 0.54834 0.0
H1249 H 0.14805 0.81784 0.56809 0.0
N1250 N 0.09846 0.73195 0.54509 0.0
H1251 H 0.10779 0.7791 0.56395 0.0
C1252 C 0.26909 0.90362 0.52113 0.0
C1253 C 0.29172 0.91148 0.50368 0.0
C1254 C 0.29732 0.92329 0.4694 0.0
C1255 C 0.28035 0.9276 0.45208 0.0
C1256 C 0.25744 0.91927 0.46928 0.0
C1257 C 0.25181 0.90732 0.50342 0.0
C1258 C 0.27225 0.91018 0.58861 0.0
C1259 C 0.26804 0.93015 0.59024 0.0
C1260 C 0.27927 0.94918 0.61798 0.0
C1261 C 0.29414 0.94814 0.64533 0.0
C1262 C 0.29655 0.92709 0.64563 0.0
C1263 C 0.28585 0.90839 0.61727 0.0
C1264 C 0.24061 0.86917 0.56004 0.0
C1265 C 0.23664 0.84798 0.53908 0.0
C1266 C 0.21356 0.82566 0.53843 0.0
C1267 C 0.19387 0.82361 0.55979 0.0
C1268 C 0.19809 0.84476 0.58168 0.0
C1269 C 0.22103 0.86741 0.5813 0.0
C1270 C 0.08668 0.72765 0.50908 0.0
C1271 C 0.0757 0.70359 0.49182 0.0
C1272 C 0.06188 0.69779 0.45898 0.0
C1273 C 0.05873 0.71604 0.44278 0.0
C1274 C 0.07043 0.74039 0.45936 0.0
C1275 C 0.08417 0.74614 0.49213 0.0
C1276 C 0.08222 0.72496 0.57692 0.0
C1277 C 0.06389 0.73095 0.58024 0.0
C1278 C 0.04704 0.72175 0.60968 0.0
C1279 C 0.04865 0.70709 0.6369 0.0
C1280 C 0.06798 0.70258 0.63496 0.0
C1281 C 0.08449 0.7113 0.60501 0.0
C1282 C 0.12201 0.75507 0.55025 0.0
C1283 C 0.14344 0.75434 0.54638 0.0
C1284 C 0.16666 0.77633 0.55078 0.0
C1285 C 0.16901 0.7998 0.55815 0.0
C1286 C 0.1473 0.80031 0.56281 0.0
C1287 C 0.12409 0.77813 0.55967 0.0
H1288 H 0.25311 0.32662 0.50436 0.0
N1289 N 0.26662 0.37267 0.53592 0.0
H1290 H 0.26714 0.31882 0.44509 0.0
H1291 H 0.2935 0.40633 0.48491 0.0
H1292 H 0.30813 0.39872 0.42497 0.0
H1293 H 0.31022 0.40374 0.5667 0.0
H1294 H 0.33306 0.39319 0.60833 0.0
H1295 H 0.24757 0.32754 0.57129 0.0
H1296 H 0.27021 0.31682 0.61263 0.0
H1297 H 0.22125 0.32823 0.5313 0.0
H1298 H 0.2574 0.40852 0.5512 0.0
H1299 H 0.1813 0.32368 0.5383 0.0
H1300 H 0.21732 0.4045 0.55536 0.0
H1301 H 0.07243 0.31551 0.51017 0.0
H1302 H 0.04718 0.30373 0.45413 0.0
H1303 H 0.08592 0.38195 0.42413 0.0
H1304 H 0.11118 0.39356 0.4808 0.0
H1305 H 0.09229 0.39354 0.56356 0.0
H1306 H 0.05835 0.38253 0.60665 0.0
H1307 H 0.04807 0.30906 0.61904 0.0
H1308 H 0.08265 0.32063 0.57593 0.0
H1309 H 0.11666 0.32972 0.5009 0.0
H1310 H 0.15487 0.33085 0.50539 0.0
H1311 H 0.18129 0.39139 0.58901 0.0
N1312 N 0.10624 0.36348 0.53527 0.0
H1313 H 0.14334 0.39138 0.58226 0.0
C1314 C 0.27216 0.36714 0.49902 0.0
C1315 C 0.26459 0.34245 0.48702 0.0
C1316 C 0.27285 0.33804 0.45304 0.0
C1317 C 0.28898 0.3582 0.43042 0.0
C1318 C 0.29579 0.3828 0.44179 0.0
C1319 C 0.28742 0.38718 0.47587 0.0
C1320 C 0.27726 0.36662 0.56573 0.0
C1321 C 0.30121 0.38491 0.57737 0.0
C1322 C 0.31426 0.37874 0.6009 0.0
C1323 C 0.30354 0.35403 0.61329 0.0
C1324 C 0.27901 0.33598 0.60334 0.0
C1325 C 0.26597 0.34219 0.57967 0.0
C1326 C 0.24249 0.36882 0.54137 0.0
C1327 C 0.22072 0.34493 0.53759 0.0
C1328 C 0.19768 0.34238 0.54104 0.0
C1329 C 0.19589 0.3637 0.54732 0.0
C1330 C 0.2178 0.38753 0.55137 0.0
C1331 C 0.24078 0.38996 0.54867 0.0
C1332 C 0.09371 0.35552 0.49968 0.0
C1333 C 0.07574 0.3301 0.49137 0.0
C1334 C 0.06128 0.32339 0.45923 0.0
C1335 C 0.06436 0.34194 0.43487 0.0
C1336 C 0.08304 0.36722 0.4424 0.0
C1337 C 0.09755 0.3739 0.4746 0.0
C1338 C 0.08973 0.35789 0.56634 0.0
C1339 C 0.08311 0.37533 0.57635 0.0
C1340 C 0.06359 0.36887 0.60073 0.0
C1341 C 0.05021 0.34471 0.61561 0.0
C1342 C 0.05795 0.32775 0.60776 0.0
C1343 C 0.07765 0.33431 0.58319 0.0
C1344 C 0.12709 0.36086 0.54093 0.0
C1345 C 0.13042 0.34323 0.52039 0.0
C1346 C 0.15244 0.34371 0.52328 0.0
C1347 C 0.17145 0.36142 0.54729 0.0
C1348 C 0.16741 0.37794 0.56946 0.0
C1349 C 0.1456 0.37778 0.56599 0.0
loop_
_geom_bond_atom_site_label_1
_geom_bond_atom_site_label_2
_geom_bond_distance
_geom_bond_site_symmetry_2
_ccdc_geom_bond_type
C0 O1 1.160 . S
C0 O7 1.185 . S
O1 C0 1.160 . S
O2 Zn3 1.899 1_656 S
O2 C10 1.281 1_556 S
Zn3 O2 1.899 1_454 S
Zn3 O4 2.032 . S
Zn3 O7 2.086 . S
Zn3 O12 1.977 1_554 S
O4 Zn3 2.032 . S
O4 C8 1.278 1_455 S
C5 O6 1.203 1_455 S
C5 O12 1.267 . S
O6 C5 1.203 1_655 S
O7 C0 1.185 . S
O7 Zn3 2.086 . S
C8 O4 1.278 1_655 S
C8 O9 1.211 . S
O9 C8 1.211 . S
C10 O2 1.281 1_554 S
C10 O11 1.280 . S
O11 C10 1.280 . S
O12 Zn3 1.977 1_556 S
O12 C5 1.267 . S
C13 O14 1.160 . S
C13 O20 1.185 1_556 S
O14 C13 1.160 . S
O15 Zn16 1.899 . S
O15 C23 1.284 . S
Zn16 O15 1.899 . S
Zn16 O17 2.032 1_554 S
Zn16 O20 2.086 . S
Zn16 O25 1.977 . S
O17 Zn16 2.032 1_556 S
O17 C21 1.278 . S
C18 O19 1.203 . S
C18 O25 1.267 . S
O19 C18 1.203 . S
O20 C13 1.185 1_554 S
O20 Zn16 2.086 . S
C21 O17 1.278 . S
C21 O22 1.211 . S
O22 C21 1.211 . S
C23 O15 1.284 . S
C23 O24 1.273 . S
O24 C23 1.273 . S
O25 Zn16 1.977 . S
O25 C18 1.267 . S
C26 O27 1.160 . S
C26 O33 1.185 1_556 S
O27 C26 1.160 . S
O28 Zn29 1.899 1_565 S
O28 C36 1.284 . S
Zn29 O28 1.899 1_545 S
Zn29 O30 2.032 1_554 S
Zn29 O33 2.086 . S
Zn29 O38 1.977 . S
O30 Zn29 2.032 1_556 S
O30 C34 1.278 1_545 S
C31 O32 1.203 1_545 S
C31 O38 1.267 . S
O32 C31 1.203 1_565 S
O33 C26 1.185 1_554 S
O33 Zn29 2.086 . S
C34 O30 1.278 1_565 S
C34 O35 1.211 . S
O35 C34 1.211 . S
C36 O28 1.284 . S
C36 O37 1.273 . S
O37 C36 1.273 . S
O38 Zn29 1.977 . S
O38 C31 1.267 . S
C39 O40 1.160 . S
C39 O46 1.185 1_556 S
O40 C39 1.160 . S
O41 Zn42 1.899 1_455 S
O41 C49 1.284 . S
Zn42 O41 1.899 1_655 S
Zn42 O43 2.032 1_554 S
Zn42 O46 2.086 . S
Zn42 O51 1.977 . S
O43 Zn42 2.032 1_556 S
O43 C47 1.278 1_655 S
C44 O45 1.203 1_655 S
C44 O51 1.267 . S
O45 C44 1.203 1_455 S
O46 C39 1.185 1_554 S
O46 Zn42 2.086 . S
C47 O43 1.278 1_455 S
C47 O48 1.211 . S
O48 C47 1.211 . S
C49 O41 1.284 . S
C49 O50 1.273 . S
O50 C49 1.273 . S
O51 Zn42 1.977 . S
O51 C44 1.267 . S
C52 O53 1.160 . S
C52 O59 1.185 . S
O53 C52 1.160 . S
O54 Zn55 1.899 1_556 S
O54 C62 1.284 . S
Zn55 O54 1.899 1_554 S
Zn55 O56 2.032 . S
Zn55 O59 2.086 . S
Zn55 O64 1.977 1_554 S
O56 Zn55 2.032 . S
O56 C60 1.278 . S
C57 O58 1.203 . S
C57 O64 1.267 . S
O58 C57 1.203 . S
O59 C52 1.185 . S
O59 Zn55 2.086 . S
C60 O56 1.278 . S
C60 O61 1.211 . S
O61 C60 1.211 . S
C62 O54 1.284 . S
C62 O63 1.273 1_556 S
O63 C62 1.273 1_554 S
O64 Zn55 1.977 1_556 S
O64 C57 1.267 . S
C65 O66 1.160 . S
C65 O72 1.185 . S
O66 C65 1.160 . S
O67 Zn68 1.899 1_546 S
O67 C75 1.284 . S
Zn68 O67 1.899 1_564 S
Zn68 O69 2.032 . S
Zn68 O72 2.086 . S
Zn68 O77 1.977 1_554 S
O69 Zn68 2.032 . S
O69 C73 1.278 1_565 S
C70 O71 1.203 1_565 S
C70 O77 1.267 . S
O71 C70 1.203 1_545 S
O72 C65 1.185 . S
O72 Zn68 2.086 . S
C73 O69 1.278 1_545 S
C73 O74 1.211 . S
O74 C73 1.211 . S
C75 O67 1.284 . S
C75 O76 1.273 1_556 S
O76 C75 1.273 1_554 S
O77 Zn68 1.977 1_556 S
O77 C70 1.267 . S
C78 O79 1.160 . S
C78 O85 1.185 . S
O79 C78 1.160 . S
O80 Zn81 1.899 . S
O80 C88 1.284 . S
Zn81 O80 1.899 . S
Zn81 O82 2.032 . S
Zn81 O85 2.086 . S
Zn81 O90 1.977 . S
O82 Zn81 2.032 . S
O82 C86 1.278 . S
C83 O84 1.203 . S
C83 O90 1.267 . S
O84 C83 1.203 . S
O85 C78 1.185 . S
O85 Zn81 2.086 . S
C86 O82 1.278 . S
C86 O87 1.211 . S
O87 C86 1.211 . S
C88 O80 1.284 . S
C88 O89 1.273 . S
O89 C88 1.273 . S
O90 Zn81 1.977 . S
O90 C83 1.267 . S
C91 O92 1.146 1_565 S
C91 O98 1.185 . S
O92 C91 1.146 1_545 S
O93 Zn94 1.899 1_545 S
O93 C101 1.284 . S
Zn94 O93 1.899 1_565 S
Zn94 O95 2.032 . S
Zn94 O98 2.086 . S
Zn94 O103 1.977 . S
O95 Zn94 2.032 . S
O95 C99 1.278 . S
C96 O97 1.203 . S
C96 O103 1.267 . S
O97 C96 1.203 . S
O98 C91 1.185 . S
O98 Zn94 2.086 . S
C99 O95 1.278 . S
C99 O100 1.211 . S
O100 C99 1.211 . S
C101 O93 1.284 . S
C101 O102 1.277 . S
O102 C101 1.277 . S
O103 Zn94 1.977 . S
O103 C96 1.267 . S
C104 O105 1.160 . S
C104 O111 1.185 . S
O105 C104 1.160 . S
O106 Zn107 1.899 . S
O106 C114 1.284 1_455 S
Zn107 O106 1.899 . S
Zn107 O108 2.032 . S
Zn107 O111 2.086 . S
Zn107 O116 1.977 . S
O108 Zn107 2.032 . S
O108 C112 1.278 . S
C109 O110 1.203 . S
C109 O116 1.267 . S
O110 C109 1.203 . S
O111 C104 1.185 . S
O111 Zn107 2.086 . S
C112 O108 1.278 . S
C112 O113 1.211 . S
O113 C112 1.211 . S
C114 O106 1.284 1_655 S
C114 O115 1.273 1_655 S
O115 C114 1.273 1_455 S
O116 Zn107 1.977 . S
O116 C109 1.267 . S
C117 O118 1.140 1_565 S
C117 O124 1.185 . S
O118 C117 1.140 1_545 S
O119 Zn120 1.899 1_545 S
O119 C127 1.284 . S
Zn120 O119 1.899 1_565 S
Zn120 O121 2.032 . S
Zn120 O124 2.086 . S
Zn120 O129 1.977 . S
O121 Zn120 2.032 . S
O121 C125 1.278 . S
C122 O123 1.203 . S
C122 O129 1.267 . S
O123 C122 1.203 . S
O124 C117 1.185 . S
O124 Zn120 2.086 . S
C125 O121 1.278 . S
C125 O126 1.211 . S
O126 C125 1.211 . S
C127 O119 1.284 . S
C127 O128 1.273 . S
O128 C127 1.273 . S
O129 Zn120 1.977 . S
O129 C122 1.267 . S
C130 O131 1.160 . S
C130 O137 1.185 . S
O131 C130 1.160 . S
O132 Zn133 1.899 . S
O132 C140 1.284 . S
Zn133 O132 1.899 . S
Zn133 O134 2.032 . S
Zn133 O137 2.086 1_455 S
Zn133 O142 1.977 . S
O134 Zn133 2.032 . S
O134 C138 1.278 . S
C135 O136 1.203 . S
C135 O142 1.267 . S
O136 C135 1.203 . S
O137 C130 1.185 . S
O137 Zn133 2.086 1_655 S
C138 O134 1.278 . S
C138 O139 1.211 . S
O139 C138 1.211 . S
C140 O132 1.284 . S
C140 O141 1.273 . S
O141 C140 1.273 . S
O142 Zn133 1.977 . S
O142 C135 1.267 . S
C143 O144 1.160 . S
C143 O150 1.185 . S
O144 C143 1.160 . S
O145 Zn146 1.899 . S
O145 C153 1.284 . S
Zn146 O145 1.899 . S
Zn146 O147 2.032 . S
Zn146 O150 2.086 . S
Zn146 O155 1.977 . S
O147 Zn146 2.032 . S
O147 C151 1.278 . S
C148 O149 1.203 . S
C148 O155 1.267 . S
O149 C148 1.203 . S
O150 C143 1.185 . S
O150 Zn146 2.086 . S
C151 O147 1.278 . S
C151 O152 1.211 . S
O152 C151 1.211 . S
C153 O145 1.284 . S
C153 O154 1.273 . S
O154 C153 1.273 . S
O155 Zn146 1.977 . S
O155 C148 1.267 . S
C156 O157 1.160 . S
C156 O163 1.185 . S
O157 C156 1.160 . S
O158 Zn159 1.889 1_565 S
O158 C166 1.282 . S
Zn159 O158 1.889 1_545 S
Zn159 O160 2.032 . S
Zn159 O163 2.086 . S
Zn159 O168 1.977 . S
O160 Zn159 2.032 . S
O160 C164 1.278 . S
C161 O162 1.203 . S
C161 O168 1.267 . S
O162 C161 1.203 . S
O163 C156 1.185 . S
O163 Zn159 2.086 . S
C164 O160 1.278 . S
C164 O165 1.211 . S
O165 C164 1.211 . S
C166 O158 1.282 . S
C166 O167 1.273 1_565 S
O167 C166 1.273 1_545 S
O168 Zn159 1.977 . S
O168 C161 1.267 . S
C169 O170 1.160 . S
C169 O176 1.185 . S
O170 C169 1.160 . S
O171 Zn172 1.899 . S
O171 C179 1.284 . S
Zn172 O171 1.899 . S
Zn172 O173 2.032 . S
Zn172 O176 2.086 1_655 S
Zn172 O181 1.977 . S
O173 Zn172 2.032 . S
O173 C177 1.278 . S
C174 O175 1.203 . S
C174 O181 1.267 . S
O175 C174 1.203 . S
O176 C169 1.185 . S
O176 Zn172 2.086 1_455 S
C177 O173 1.278 . S
C177 O178 1.211 . S
O178 C177 1.211 . S
C179 O171 1.284 . S
C179 O180 1.273 . S
O180 C179 1.273 . S
O181 Zn172 1.977 . S
O181 C174 1.267 . S
C182 O183 1.160 . S
C182 O189 1.185 . S
O183 C182 1.160 . S
O184 Zn185 1.899 . S
O184 C192 1.284 . S
Zn185 O184 1.899 . S
Zn185 O186 2.032 . S
Zn185 O189 2.086 . S
Zn185 O194 1.977 . S
O186 Zn185 2.032 . S
O186 C190 1.278 . S
C187 O188 1.203 . S
C187 O194 1.267 . S
O188 C187 1.203 . S
O189 C182 1.185 . S
O189 Zn185 2.086 . S
C190 O186 1.278 . S
C190 O191 1.211 . S
O191 C190 1.211 . S
C192 O184 1.284 . S
C192 O193 1.273 . S
O193 C192 1.273 . S
O194 Zn185 1.977 . S
O194 C187 1.267 . S
C195 O196 1.160 . S
C195 O202 1.185 . S
O196 C195 1.160 . S
O197 Zn198 1.899 . S
O197 C205 1.284 . S
Zn198 O197 1.899 . S
Zn198 O199 2.032 . S
Zn198 O202 2.086 . S
Zn198 O207 1.977 . S
O199 Zn198 2.032 . S
O199 C203 1.278 . S
C200 O201 1.203 . S
C200 O207 1.267 . S
O201 C200 1.203 . S
O202 C195 1.185 . S
O202 Zn198 2.086 . S
C203 O199 1.278 . S
C203 O204 1.211 . S
O204 C203 1.211 . S
C205 O197 1.284 . S
C205 O206 1.273 . S
O206 C205 1.273 . S
O207 Zn198 1.977 . S
O207 C200 1.267 . S
C208 O209 1.160 . S
C208 O215 1.185 . S
O209 C208 1.160 . S
O210 Zn211 1.909 . S
O210 C218 1.275 1_545 S
Zn211 O210 1.909 . S
Zn211 O212 2.032 . S
Zn211 O215 2.086 . S
Zn211 O220 1.977 . S
O212 Zn211 2.032 . S
O212 C216 1.278 . S
C213 O214 1.203 . S
C213 O220 1.267 . S
O214 C213 1.203 . S
O215 C208 1.185 . S
O215 Zn211 2.086 . S
C216 O212 1.278 . S
C216 O217 1.211 . S
O217 C216 1.211 . S
C218 O210 1.275 1_565 S
C218 O219 1.273 1_565 S
O219 C218 1.273 1_545 S
O220 Zn211 1.977 . S
O220 C213 1.267 . S
C221 O222 1.160 . S
C221 O228 1.185 . S
O222 C221 1.160 . S
O223 Zn224 1.899 . S
O223 C231 1.284 1_655 S
Zn224 O223 1.899 . S
Zn224 O225 2.032 . S
Zn224 O228 2.086 . S
Zn224 O233 1.977 . S
O225 Zn224 2.032 . S
O225 C229 1.278 . S
C226 O227 1.203 . S
C226 O233 1.267 . S
O227 C226 1.203 . S
O228 C221 1.185 . S
O228 Zn224 2.086 . S
C229 O225 1.278 . S
C229 O230 1.211 . S
O230 C229 1.211 . S
C231 O223 1.284 1_455 S
C231 O232 1.273 1_455 S
O232 C231 1.273 1_655 S
O233 Zn224 1.977 . S
O233 C226 1.267 . S
H234 C261 0.929 . S
N235 C260 1.433 . S
N235 C266 1.435 . S
N235 C272 1.423 . S
H236 C262 0.930 . S
H237 C265 0.931 . S
H238 C264 0.929 . S
H239 C267 0.930 . S
H240 C268 0.932 . S
H241 C271 0.929 . S
H242 C270 0.931 . S
H243 C273 0.929 . S
H244 C277 0.932 . S
H245 C274 0.931 . S
H246 C276 0.929 . S
H247 C279 0.929 . S
H248 C280 0.930 . S
H249 C282 0.929 . S
H250 C283 0.931 . S
H251 C285 0.930 . S
H252 C286 0.932 . S
H253 C288 0.931 . S
H254 C289 0.929 . S
H255 C291 0.929 . S
H256 C292 0.931 . S
H257 C294 0.929 . S
N258 C278 1.433 . S
N258 C284 1.435 . S
N258 C290 1.423 . S
H259 C295 0.932 . S
C260 N235 1.433 . S
C260 C261 1.363 . S
C260 C265 1.370 . S
C261 H234 0.929 . S
C261 C260 1.363 . S
C261 C262 1.385 . S
C262 H236 0.930 . S
C262 C261 1.385 . S
C262 C263 1.357 . S
C263 C262 1.357 . S
C263 C264 1.406 . S
C264 H238 0.929 . S
C264 C263 1.406 . S
C264 C265 1.391 . S
C265 H237 0.931 . S
C265 C260 1.370 . S
C265 C264 1.391 . S
C266 N235 1.435 . S
C266 C267 1.358 . S
C266 C271 1.371 . S
C267 H239 0.930 . S
C267 C266 1.358 . S
C267 C268 1.405 . S
C268 H240 0.932 . S
C268 C267 1.405 . S
C268 C269 1.383 . S
C269 C268 1.383 . S
C269 C270 1.393 . S
C270 H242 0.931 . S
C270 C269 1.393 . S
C270 C271 1.382 . S
C271 H241 0.929 . S
C271 C266 1.371 . S
C271 C270 1.382 . S
C272 N235 1.423 . S
C272 C273 1.362 . S
C272 C277 1.388 . S
C273 H243 0.929 . S
C273 C272 1.362 . S
C273 C274 1.376 . S
C274 H245 0.931 . S
C274 C273 1.376 . S
C274 C275 1.396 . S
C275 C274 1.396 . S
C275 C276 1.348 . S
C275 C293 1.472 . S
C276 H246 0.929 . S
C276 C275 1.348 . S
C276 C277 1.443 . S
C277 H244 0.932 . S
C277 C272 1.388 . S
C277 C276 1.443 . S
C278 N258 1.433 . S
C278 C279 1.363 . S
C278 C283 1.370 . S
C279 H247 0.929 . S
C279 C278 1.363 . S
C279 C280 1.385 . S
C280 H248 0.930 . S
C280 C279 1.385 . S
C280 C281 1.357 . S
C281 C280 1.357 . S
C281 C282 1.406 . S
C282 H249 0.929 . S
C282 C281 1.406 . S
C282 C283 1.391 . S
C283 H250 0.931 . S
C283 C278 1.370 . S
C283 C282 1.391 . S
C284 N258 1.435 . S
C284 C285 1.358 . S
C284 C289 1.371 . S
C285 H251 0.930 . S
C285 C284 1.358 . S
C285 C286 1.405 . S
C286 H252 0.932 . S
C286 C285 1.405 . S
C286 C287 1.383 . S
C287 C286 1.383 . S
C287 C288 1.393 . S
C288 H253 0.931 . S
C288 C287 1.393 . S
C288 C289 1.382 . S
C289 H254 0.929 . S
C289 C284 1.371 . S
C289 C288 1.382 . S
C290 N258 1.423 . S
C290 C291 1.362 . S
C290 C295 1.388 . S
C291 H255 0.929 . S
C291 C290 1.362 . S
C291 C292 1.376 . S
C292 H256 0.931 . S
C292 C291 1.376 . S
C292 C293 1.396 . S
C293 C275 1.472 . S
C293 C292 1.396 . S
C293 C294 1.348 . S
C294 H257 0.929 . S
C294 C293 1.348 . S
C294 C295 1.443 . S
C295 H259 0.932 . S
C295 C290 1.388 . S
C295 C294 1.443 . S
H296 C323 0.929 . S
N297 C322 1.433 . S
N297 C328 1.435 . S
N297 C334 1.423 . S
H298 C324 0.930 . S
H299 C327 0.931 . S
H300 C326 0.929 . S
H301 C329 0.930 . S
H302 C330 0.932 . S
H303 C333 0.929 . S
H304 C332 0.931 . S
H305 C335 0.929 . S
H306 C339 0.932 . S
H307 C336 0.931 . S
H308 C338 0.929 . S
H309 C341 0.929 . S
H310 C342 0.930 . S
H311 C344 0.929 . S
H312 C345 0.931 . S
H313 C347 0.930 . S
H314 C348 0.932 . S
H315 C350 0.931 . S
H316 C351 0.929 . S
H317 C353 0.929 . S
H318 C354 0.931 . S
H319 C356 0.929 . S
N320 C340 1.433 . S
N320 C346 1.435 . S
N320 C352 1.423 . S
H321 C357 0.932 . S
C322 N297 1.433 . S
C322 C323 1.363 . S
C322 C327 1.370 . S
C323 H296 0.929 . S
C323 C322 1.363 . S
C323 C324 1.385 . S
C324 H298 0.930 . S
C324 C323 1.385 . S
C324 C325 1.357 . S
C325 C324 1.357 . S
C325 C326 1.406 . S
C326 H300 0.929 . S
C326 C325 1.406 . S
C326 C327 1.391 . S
C327 H299 0.931 . S
C327 C322 1.370 . S
C327 C326 1.391 . S
C328 N297 1.435 . S
C328 C329 1.358 . S
C328 C333 1.371 . S
C329 H301 0.930 . S
C329 C328 1.358 . S
C329 C330 1.405 . S
C330 H302 0.932 . S
C330 C329 1.405 . S
C330 C331 1.383 . S
C331 C330 1.383 . S
C331 C332 1.393 . S
C332 H304 0.931 . S
C332 C331 1.393 . S
C332 C333 1.382 . S
C333 H303 0.929 . S
C333 C328 1.371 . S
C333 C332 1.382 . S
C334 N297 1.423 . S
C334 C335 1.362 . S
C334 C339 1.388 . S
C335 H305 0.929 . S
C335 C334 1.362 . S
C335 C336 1.376 . S
C336 H307 0.931 . S
C336 C335 1.376 . S
C336 C337 1.396 . S
C337 C336 1.396 . S
C337 C338 1.348 . S
C337 C355 1.472 . S
C338 H308 0.929 . S
C338 C337 1.348 . S
C338 C339 1.443 . S
C339 H306 0.932 . S
C339 C334 1.388 . S
C339 C338 1.443 . S
C340 N320 1.433 . S
C340 C341 1.363 . S
C340 C345 1.370 . S
C341 H309 0.929 . S
C341 C340 1.363 . S
C341 C342 1.385 . S
C342 H310 0.930 . S
C342 C341 1.385 . S
C342 C343 1.357 . S
C343 C342 1.357 . S
C343 C344 1.406 . S
C344 H311 0.929 . S
C344 C343 1.406 . S
C344 C345 1.391 . S
C345 H312 0.931 . S
C345 C340 1.370 . S
C345 C344 1.391 . S
C346 N320 1.435 . S
C346 C347 1.358 . S
C346 C351 1.371 . S
C347 H313 0.930 . S
C347 C346 1.358 . S
C347 C348 1.405 . S
C348 H314 0.932 . S
C348 C347 1.405 . S
C348 C349 1.383 . S
C349 C348 1.383 . S
C349 C350 1.393 . S
C350 H315 0.931 . S
C350 C349 1.393 . S
C350 C351 1.382 . S
C351 H316 0.929 . S
C351 C346 1.371 . S
C351 C350 1.382 . S
C352 N320 1.423 . S
C352 C353 1.362 . S
C352 C357 1.388 . S
C353 H317 0.929 . S
C353 C352 1.362 . S
C353 C354 1.376 . S
C354 H318 0.931 . S
C354 C353 1.376 . S
C354 C355 1.396 . S
C355 C337 1.472 . S
C355 C354 1.396 . S
C355 C356 1.348 . S
C356 H319 0.929 . S
C356 C355 1.348 . S
C356 C357 1.443 . S
C357 H321 0.932 . S
C357 C352 1.388 . S
C357 C356 1.443 . S
H358 C385 0.929 . S
N359 C384 1.433 . S
N359 C390 1.435 . S
N359 C396 1.423 . S
H360 C386 0.930 . S
H361 C389 0.931 . S
H362 C388 0.929 . S
H363 C391 0.930 . S
H364 C392 0.932 . S
H365 C395 0.929 . S
H366 C394 0.931 . S
H367 C397 0.929 . S
H368 C401 0.932 . S
H369 C398 0.931 . S
H370 C400 0.929 . S
H371 C403 0.929 . S
H372 C404 0.930 . S
H373 C406 0.929 . S
H374 C407 0.931 . S
H375 C409 0.930 . S
H376 C410 0.932 . S
H377 C412 0.931 . S
H378 C413 0.929 . S
H379 C415 0.929 . S
H380 C416 0.931 . S
H381 C418 0.929 . S
N382 C402 1.433 . S
N382 C408 1.435 . S
N382 C414 1.423 . S
H383 C419 0.932 . S
C384 N359 1.433 . S
C384 C385 1.363 . S
C384 C389 1.370 . S
C385 H358 0.929 . S
C385 C384 1.363 . S
C385 C386 1.385 . S
C386 H360 0.930 . S
C386 C385 1.385 . S
C386 C387 1.357 . S
C387 C386 1.357 . S
C387 C388 1.406 . S
C388 H362 0.929 . S
C388 C387 1.406 . S
C388 C389 1.391 . S
C389 H361 0.931 . S
C389 C384 1.370 . S
C389 C388 1.391 . S
C390 N359 1.435 . S
C390 C391 1.358 . S
C390 C395 1.371 . S
C391 H363 0.930 . S
C391 C390 1.358 . S
C391 C392 1.405 . S
C392 H364 0.932 . S
C392 C391 1.405 . S
C392 C393 1.383 . S
C393 C392 1.383 . S
C393 C394 1.393 . S
C394 H366 0.931 . S
C394 C393 1.393 . S
C394 C395 1.382 . S
C395 H365 0.929 . S
C395 C390 1.371 . S
C395 C394 1.382 . S
C396 N359 1.423 . S
C396 C397 1.362 . S
C396 C401 1.388 . S
C397 H367 0.929 . S
C397 C396 1.362 . S
C397 C398 1.376 . S
C398 H369 0.931 . S
C398 C397 1.376 . S
C398 C399 1.396 . S
C399 C398 1.396 . S
C399 C400 1.348 . S
C399 C417 1.472 . S
C400 H370 0.929 . S
C400 C399 1.348 . S
C400 C401 1.443 . S
C401 H368 0.932 . S
C401 C396 1.388 . S
C401 C400 1.443 . S
C402 N382 1.433 . S
C402 C403 1.363 . S
C402 C407 1.370 . S
C403 H371 0.929 . S
C403 C402 1.363 . S
C403 C404 1.385 . S
C404 H372 0.930 . S
C404 C403 1.385 . S
C404 C405 1.357 . S
C405 C404 1.357 . S
C405 C406 1.406 . S
C406 H373 0.929 . S
C406 C405 1.406 . S
C406 C407 1.391 . S
C407 H374 0.931 . S
C407 C402 1.370 . S
C407 C406 1.391 . S
C408 N382 1.435 . S
C408 C409 1.358 . S
C408 C413 1.371 . S
C409 H375 0.930 . S
C409 C408 1.358 . S
C409 C410 1.405 . S
C410 H376 0.932 . S
C410 C409 1.405 . S
C410 C411 1.383 . S
C411 C410 1.383 . S
C411 C412 1.393 . S
C412 H377 0.931 . S
C412 C411 1.393 . S
C412 C413 1.382 . S
C413 H378 0.929 . S
C413 C408 1.371 . S
C413 C412 1.382 . S
C414 N382 1.423 . S
C414 C415 1.362 . S
C414 C419 1.388 . S
C415 H379 0.929 . S
C415 C414 1.362 . S
C415 C416 1.376 . S
C416 H380 0.931 . S
C416 C415 1.376 . S
C416 C417 1.396 . S
C417 C399 1.472 . S
C417 C416 1.396 . S
C417 C418 1.348 . S
C418 H381 0.929 . S
C418 C417 1.348 . S
C418 C419 1.443 . S
C419 H383 0.932 . S
C419 C414 1.388 . S
C419 C418 1.443 . S
H420 C447 0.929 . S
N421 C446 1.433 . S
N421 C452 1.435 . S
N421 C458 1.423 . S
H422 C448 0.930 . S
H423 C451 0.931 . S
H424 C450 0.929 . S
H425 C453 0.930 . S
H426 C454 0.932 . S
H427 C457 0.929 . S
H428 C456 0.931 1_554 S
H429 C459 0.929 . S
H430 C463 0.932 . S
H431 C460 0.931 . S
H432 C462 0.929 . S
H433 C465 0.929 . S
H434 C466 0.930 . S
H435 C468 0.929 . S
H436 C469 0.931 . S
H437 C471 0.930 . S
H438 C472 0.932 . S
H439 C474 0.931 1_554 S
H440 C475 0.929 . S
H441 C477 0.929 . S
H442 C478 0.931 . S
H443 C480 0.929 . S
N444 C464 1.433 . S
N444 C470 1.435 . S
N444 C476 1.423 . S
H445 C481 0.932 . S
C446 N421 1.433 . S
C446 C447 1.363 . S
C446 C451 1.370 . S
C447 H420 0.929 . S
C447 C446 1.363 . S
C447 C448 1.385 . S
C448 H422 0.930 . S
C448 C447 1.385 . S
C448 C449 1.357 . S
C449 C448 1.357 . S
C449 C450 1.406 . S
C450 H424 0.929 . S
C450 C449 1.406 . S
C450 C451 1.391 . S
C451 H423 0.931 . S
C451 C446 1.370 . S
C451 C450 1.391 . S
C452 N421 1.435 . S
C452 C453 1.358 . S
C452 C457 1.371 . S
C453 H425 0.930 . S
C453 C452 1.358 . S
C453 C454 1.405 . S
C454 H426 0.932 . S
C454 C453 1.405 . S
C454 C455 1.383 . S
C455 C454 1.383 . S
C455 C456 1.393 . S
C456 H428 0.931 1_556 S
C456 C455 1.393 . S
C456 C457 1.382 . S
C457 H427 0.929 . S
C457 C452 1.371 . S
C457 C456 1.382 . S
C458 N421 1.423 . S
C458 C459 1.362 . S
C458 C463 1.388 . S
C459 H429 0.929 . S
C459 C458 1.362 . S
C459 C460 1.376 . S
C460 H431 0.931 . S
C460 C459 1.376 . S
C460 C461 1.396 . S
C461 C460 1.396 . S
C461 C462 1.348 . S
C461 C479 1.472 . S
C462 H432 0.929 . S
C462 C461 1.348 . S
C462 C463 1.443 . S
C463 H430 0.932 . S
C463 C458 1.388 . S
C463 C462 1.443 . S
C464 N444 1.433 . S
C464 C465 1.363 . S
C464 C469 1.370 . S
C465 H433 0.929 . S
C465 C464 1.363 . S
C465 C466 1.385 . S
C466 H434 0.930 . S
C466 C465 1.385 . S
C466 C467 1.357 . S
C467 C466 1.357 . S
C467 C468 1.406 . S
C468 H435 0.929 . S
C468 C467 1.406 . S
C468 C469 1.391 . S
C469 H436 0.931 . S
C469 C464 1.370 . S
C469 C468 1.391 . S
C470 N444 1.435 . S
C470 C471 1.358 . S
C470 C475 1.371 . S
C471 H437 0.930 . S
C471 C470 1.358 . S
C471 C472 1.405 . S
C472 H438 0.932 . S
C472 C471 1.405 . S
C472 C473 1.383 . S
C473 C472 1.383 . S
C473 C474 1.393 . S
C474 H439 0.931 1_556 S
C474 C473 1.393 . S
C474 C475 1.382 . S
C475 H440 0.929 . S
C475 C470 1.371 . S
C475 C474 1.382 . S
C476 N444 1.423 . S
C476 C477 1.362 . S
C476 C481 1.388 . S
C477 H441 0.929 . S
C477 C476 1.362 . S
C477 C478 1.376 . S
C478 H442 0.931 . S
C478 C477 1.376 . S
C478 C479 1.396 . S
C479 C461 1.472 . S
C479 C478 1.396 . S
C479 C480 1.348 . S
C480 H443 0.929 . S
C480 C479 1.348 . S
C480 C481 1.443 . S
C481 H445 0.932 . S
C481 C476 1.388 . S
C481 C480 1.443 . S
H482 C509 0.929 . S
N483 C508 1.433 . S
N483 C514 1.435 . S
N483 C520 1.423 . S
H484 C510 0.930 . S
H485 C513 0.931 . S
H486 C512 0.929 . S
H487 C515 0.930 . S
H488 C516 0.932 . S
H489 C519 0.929 . S
H490 C518 0.931 1_554 S
H491 C521 0.929 . S
H492 C525 0.932 . S
H493 C522 0.931 . S
H494 C524 0.929 . S
H495 C527 0.929 . S
H496 C528 0.930 . S
H497 C530 0.929 . S
H498 C531 0.931 . S
H499 C533 0.930 . S
H500 C534 0.932 . S
H501 C536 0.931 1_554 S
H502 C537 0.929 . S
H503 C539 0.929 . S
H504 C540 0.931 . S
H505 C542 0.929 . S
N506 C526 1.433 . S
N506 C532 1.435 . S
N506 C538 1.423 . S
H507 C543 0.932 . S
C508 N483 1.433 . S
C508 C509 1.363 . S
C508 C513 1.370 . S
C509 H482 0.929 . S
C509 C508 1.363 . S
C509 C510 1.385 . S
C510 H484 0.930 . S
C510 C509 1.385 . S
C510 C511 1.357 . S
C511 C510 1.357 . S
C511 C512 1.406 . S
C512 H486 0.929 . S
C512 C511 1.406 . S
C512 C513 1.391 . S
C513 H485 0.931 . S
C513 C508 1.370 . S
C513 C512 1.391 . S
C514 N483 1.435 . S
C514 C515 1.358 . S
C514 C519 1.371 . S
C515 H487 0.930 . S
C515 C514 1.358 . S
C515 C516 1.405 . S
C516 H488 0.932 . S
C516 C515 1.405 . S
C516 C517 1.383 . S
C517 C516 1.383 . S
C517 C518 1.393 . S
C518 H490 0.931 1_556 S
C518 C517 1.393 . S
C518 C519 1.382 . S
C519 H489 0.929 . S
C519 C514 1.371 . S
C519 C518 1.382 . S
C520 N483 1.423 . S
C520 C521 1.362 . S
C520 C525 1.388 . S
C521 H491 0.929 . S
C521 C520 1.362 . S
C521 C522 1.376 . S
C522 H493 0.931 . S
C522 C521 1.376 . S
C522 C523 1.396 . S
C523 C522 1.396 . S
C523 C524 1.348 . S
C523 C541 1.472 . S
C524 H494 0.929 . S
C524 C523 1.348 . S
C524 C525 1.443 . S
C525 H492 0.932 . S
C525 C520 1.388 . S
C525 C524 1.443 . S
C526 N506 1.433 . S
C526 C527 1.363 . S
C526 C531 1.370 . S
C527 H495 0.929 . S
C527 C526 1.363 . S
C527 C528 1.385 . S
C528 H496 0.930 . S
C528 C527 1.385 . S
C528 C529 1.357 . S
C529 C528 1.357 . S
C529 C530 1.406 . S
C530 H497 0.929 . S
C530 C529 1.406 . S
C530 C531 1.391 . S
C531 H498 0.931 . S
C531 C526 1.370 . S
C531 C530 1.391 . S
C532 N506 1.435 . S
C532 C533 1.358 . S
C532 C537 1.371 . S
C533 H499 0.930 . S
C533 C532 1.358 . S
C533 C534 1.405 . S
C534 H500 0.932 . S
C534 C533 1.405 . S
C534 C535 1.383 . S
C535 C534 1.383 . S
C535 C536 1.393 . S
C536 H501 0.931 1_556 S
C536 C535 1.393 . S
C536 C537 1.382 . S
C537 H502 0.929 . S
C537 C532 1.371 . S
C537 C536 1.382 . S
C538 N506 1.423 . S
C538 C539 1.362 . S
C538 C543 1.388 . S
C539 H503 0.929 . S
C539 C538 1.362 . S
C539 C540 1.376 . S
C540 H504 0.931 . S
C540 C539 1.376 . S
C540 C541 1.396 . S
C541 C523 1.472 . S
C541 C540 1.396 . S
C541 C542 1.348 . S
C542 H505 0.929 . S
C542 C541 1.348 . S
C542 C543 1.443 . S
C543 H507 0.932 . S
C543 C538 1.388 . S
C543 C542 1.443 . S
H544 C571 0.929 . S
N545 C570 1.433 . S
N545 C576 1.435 . S
N545 C582 1.423 . S
H546 C572 0.930 . S
H547 C575 0.931 . S
H548 C574 0.929 . S
H549 C577 0.930 . S
H550 C578 0.932 . S
H551 C581 0.929 . S
H552 C580 0.931 1_554 S
H553 C583 0.929 . S
H554 C587 0.932 . S
H555 C584 0.931 . S
H556 C586 0.929 . S
H557 C589 0.929 . S
H558 C590 0.930 . S
H559 C592 0.929 . S
H560 C593 0.931 . S
H561 C595 0.930 . S
H562 C596 0.932 . S
H563 C598 0.931 1_554 S
H564 C599 0.929 . S
H565 C601 0.929 . S
H566 C602 0.931 . S
H567 C604 0.929 . S
N568 C588 1.433 . S
N568 C594 1.435 . S
N568 C600 1.423 . S
H569 C605 0.932 . S
C570 N545 1.433 . S
C570 C571 1.363 . S
C570 C575 1.370 . S
C571 H544 0.929 . S
C571 C570 1.363 . S
C571 C572 1.385 . S
C572 H546 0.930 . S
C572 C571 1.385 . S
C572 C573 1.357 . S
C573 C572 1.357 . S
C573 C574 1.406 . S
C574 H548 0.929 . S
C574 C573 1.406 . S
C574 C575 1.391 . S
C575 H547 0.931 . S
C575 C570 1.370 . S
C575 C574 1.391 . S
C576 N545 1.435 . S
C576 C577 1.358 . S
C576 C581 1.371 . S
C577 H549 0.930 . S
C577 C576 1.358 . S
C577 C578 1.405 . S
C578 H550 0.932 . S
C578 C577 1.405 . S
C578 C579 1.383 . S
C579 C578 1.383 . S
C579 C580 1.393 . S
C580 H552 0.931 1_556 S
C580 C579 1.393 . S
C580 C581 1.382 . S
C581 H551 0.929 . S
C581 C576 1.371 . S
C581 C580 1.382 . S
C582 N545 1.423 . S
C582 C583 1.362 . S
C582 C587 1.388 . S
C583 H553 0.929 . S
C583 C582 1.362 . S
C583 C584 1.376 . S
C584 H555 0.931 . S
C584 C583 1.376 . S
C584 C585 1.396 . S
C585 C584 1.396 . S
C585 C586 1.348 . S
C585 C603 1.472 . S
C586 H556 0.929 . S
C586 C585 1.348 . S
C586 C587 1.443 . S
C587 H554 0.932 . S
C587 C582 1.388 . S
C587 C586 1.443 . S
C588 N568 1.433 . S
C588 C589 1.363 . S
C588 C593 1.370 . S
C589 H557 0.929 . S
C589 C588 1.363 . S
C589 C590 1.385 . S
C590 H558 0.930 . S
C590 C589 1.385 . S
C590 C591 1.357 . S
C591 C590 1.357 . S
C591 C592 1.406 . S
C592 H559 0.929 . S
C592 C591 1.406 . S
C592 C593 1.391 . S
C593 H560 0.931 . S
C593 C588 1.370 . S
C593 C592 1.391 . S
C594 N568 1.435 . S
C594 C595 1.358 . S
C594 C599 1.371 . S
C595 H561 0.930 . S
C595 C594 1.358 . S
C595 C596 1.405 . S
C596 H562 0.932 . S
C596 C595 1.405 . S
C596 C597 1.383 . S
C597 C596 1.383 . S
C597 C598 1.393 . S
C598 H563 0.931 1_556 S
C598 C597 1.393 . S
C598 C599 1.382 . S
C599 H564 0.929 . S
C599 C594 1.371 . S
C599 C598 1.382 . S
C600 N568 1.423 . S
C600 C601 1.362 . S
C600 C605 1.388 . S
C601 H565 0.929 . S
C601 C600 1.362 . S
C601 C602 1.376 . S
C602 H566 0.931 . S
C602 C601 1.376 . S
C602 C603 1.396 . S
C603 C585 1.472 . S
C603 C602 1.396 . S
C603 C604 1.348 . S
C604 H567 0.929 . S
C604 C603 1.348 . S
C604 C605 1.443 . S
C605 H569 0.932 . S
C605 C600 1.388 . S
C605 C604 1.443 . S
H606 C633 0.929 . S
N607 C632 1.433 . S
N607 C638 1.435 . S
N607 C644 1.423 . S
H608 C634 0.930 . S
H609 C637 0.931 . S
H610 C636 0.929 . S
H611 C639 0.930 . S
H612 C640 0.932 . S
H613 C643 0.929 . S
H614 C642 0.931 . S
H615 C645 0.929 . S
H616 C649 0.932 . S
H617 C646 0.931 . S
H618 C648 0.929 . S
H619 C651 0.929 . S
H620 C652 0.930 . S
H621 C654 0.929 . S
H622 C655 0.931 . S
H623 C657 0.930 . S
H624 C658 0.932 . S
H625 C660 0.931 . S
H626 C661 0.929 . S
H627 C663 0.929 . S
H628 C664 0.931 . S
H629 C666 0.929 . S
N630 C650 1.433 . S
N630 C656 1.435 . S
N630 C662 1.423 . S
H631 C667 0.932 . S
C632 N607 1.433 . S
C632 C633 1.363 . S
C632 C637 1.370 . S
C633 H606 0.929 . S
C633 C632 1.363 . S
C633 C634 1.385 . S
C634 H608 0.930 . S
C634 C633 1.385 . S
C634 C635 1.357 . S
C635 C634 1.357 . S
C635 C636 1.406 . S
C636 H610 0.929 . S
C636 C635 1.406 . S
C636 C637 1.391 . S
C637 H609 0.931 . S
C637 C632 1.370 . S
C637 C636 1.391 . S
C638 N607 1.435 . S
C638 C639 1.358 . S
C638 C643 1.371 . S
C639 H611 0.930 . S
C639 C638 1.358 . S
C639 C640 1.405 . S
C640 H612 0.932 . S
C640 C639 1.405 . S
C640 C641 1.383 . S
C641 C640 1.383 . S
C641 C642 1.393 . S
C642 H614 0.931 . S
C642 C641 1.393 . S
C642 C643 1.382 . S
C643 H613 0.929 . S
C643 C638 1.371 . S
C643 C642 1.382 . S
C644 N607 1.423 . S
C644 C645 1.362 . S
C644 C649 1.388 . S
C645 H615 0.929 . S
C645 C644 1.362 . S
C645 C646 1.376 . S
C646 H617 0.931 . S
C646 C645 1.376 . S
C646 C647 1.396 . S
C647 C646 1.396 . S
C647 C648 1.348 . S
C647 C665 1.472 . S
C648 H618 0.929 . S
C648 C647 1.348 . S
C648 C649 1.443 . S
C649 H616 0.932 . S
C649 C644 1.388 . S
C649 C648 1.443 . S
C650 N630 1.433 . S
C650 C651 1.363 . S
C650 C655 1.370 . S
C651 H619 0.929 . S
C651 C650 1.363 . S
C651 C652 1.385 . S
C652 H620 0.930 . S
C652 C651 1.385 . S
C652 C653 1.357 . S
C653 C652 1.357 . S
C653 C654 1.406 . S
C654 H621 0.929 . S
C654 C653 1.406 . S
C654 C655 1.391 . S
C655 H622 0.931 . S
C655 C650 1.370 . S
C655 C654 1.391 . S
C656 N630 1.435 . S
C656 C657 1.358 . S
C656 C661 1.371 . S
C657 H623 0.930 . S
C657 C656 1.358 . S
C657 C658 1.405 . S
C658 H624 0.932 . S
C658 C657 1.405 . S
C658 C659 1.383 . S
C659 C658 1.383 . S
C659 C660 1.393 . S
C660 H625 0.931 . S
C660 C659 1.393 . S
C660 C661 1.382 . S
C661 H626 0.929 . S
C661 C656 1.371 . S
C661 C660 1.382 . S
C662 N630 1.423 . S
C662 C663 1.362 . S
C662 C667 1.388 . S
C663 H627 0.929 . S
C663 C662 1.362 . S
C663 C664 1.376 . S
C664 H628 0.931 . S
C664 C663 1.376 . S
C664 C665 1.396 . S
C665 C647 1.472 . S
C665 C664 1.396 . S
C665 C666 1.348 . S
C666 H629 0.929 . S
C666 C665 1.348 . S
C666 C667 1.443 . S
C667 H631 0.932 . S
C667 C662 1.388 . S
C667 C666 1.443 . S
H668 C695 0.929 . S
N669 C694 1.433 . S
N669 C700 1.435 . S
N669 C706 1.423 . S
H670 C696 0.930 . S
H671 C699 0.931 . S
H672 C698 0.929 . S
H673 C701 0.930 . S
H674 C702 0.932 . S
H675 C705 0.929 . S
H676 C704 0.931 . S
H677 C707 0.929 . S
H678 C711 0.932 . S
H679 C708 0.931 . S
H680 C710 0.929 . S
H681 C713 0.929 . S
H682 C714 0.930 . S
H683 C716 0.929 . S
H684 C717 0.931 . S
H685 C719 0.930 . S
H686 C720 0.932 . S
H687 C722 0.931 . S
H688 C723 0.929 . S
H689 C725 0.929 . S
H690 C726 0.931 . S
H691 C728 0.929 . S
N692 C712 1.433 . S
N692 C718 1.435 . S
N692 C724 1.423 . S
H693 C729 0.932 . S
C694 N669 1.433 . S
C694 C695 1.363 . S
C694 C699 1.370 . S
C695 H668 0.929 . S
C695 C694 1.363 . S
C695 C696 1.385 . S
C696 H670 0.930 . S
C696 C695 1.385 . S
C696 C697 1.357 . S
C697 C696 1.357 . S
C697 C698 1.406 . S
C698 H672 0.929 . S
C698 C697 1.406 . S
C698 C699 1.391 . S
C699 H671 0.931 . S
C699 C694 1.370 . S
C699 C698 1.391 . S
C700 N669 1.435 . S
C700 C701 1.358 . S
C700 C705 1.371 . S
C701 H673 0.930 . S
C701 C700 1.358 . S
C701 C702 1.405 . S
C702 H674 0.932 . S
C702 C701 1.405 . S
C702 C703 1.383 . S
C703 C702 1.383 . S
C703 C704 1.393 . S
C704 H676 0.931 . S
C704 C703 1.393 . S
C704 C705 1.382 . S
C705 H675 0.929 . S
C705 C700 1.371 . S
C705 C704 1.382 . S
C706 N669 1.423 . S
C706 C707 1.362 . S
C706 C711 1.388 . S
C707 H677 0.929 . S
C707 C706 1.362 . S
C707 C708 1.376 . S
C708 H679 0.931 . S
C708 C707 1.376 . S
C708 C709 1.396 . S
C709 C708 1.396 . S
C709 C710 1.348 . S
C709 C727 1.472 . S
C710 H680 0.929 . S
C710 C709 1.348 . S
C710 C711 1.443 . S
C711 H678 0.932 . S
C711 C706 1.388 . S
C711 C710 1.443 . S
C712 N692 1.433 . S
C712 C713 1.363 . S
C712 C717 1.370 . S
C713 H681 0.929 . S
C713 C712 1.363 . S
C713 C714 1.385 . S
C714 H682 0.930 . S
C714 C713 1.385 . S
C714 C715 1.357 . S
C715 C714 1.357 . S
C715 C716 1.406 . S
C716 H683 0.929 . S
C716 C715 1.406 . S
C716 C717 1.391 . S
C717 H684 0.931 . S
C717 C712 1.370 . S
C717 C716 1.391 . S
C718 N692 1.435 . S
C718 C719 1.358 . S
C718 C723 1.371 . S
C719 H685 0.930 . S
C719 C718 1.358 . S
C719 C720 1.405 . S
C720 H686 0.932 . S
C720 C719 1.405 . S
C720 C721 1.383 . S
C721 C720 1.383 . S
C721 C722 1.393 . S
C722 H687 0.931 . S
C722 C721 1.393 . S
C722 C723 1.382 . S
C723 H688 0.929 . S
C723 C718 1.371 . S
C723 C722 1.382 . S
C724 N692 1.423 . S
C724 C725 1.362 . S
C724 C729 1.388 . S
C725 H689 0.929 . S
C725 C724 1.362 . S
C725 C726 1.376 . S
C726 H690 0.931 . S
C726 C725 1.376 . S
C726 C727 1.396 . S
C727 C709 1.472 . S
C727 C726 1.396 . S
C727 C728 1.348 . S
C728 H691 0.929 . S
C728 C727 1.348 . S
C728 C729 1.443 . S
C729 H693 0.932 . S
C729 C724 1.388 . S
C729 C728 1.443 . S
H730 C757 0.929 . S
N731 C756 1.433 . S
N731 C762 1.435 . S
N731 C768 1.423 . S
H732 C758 0.930 . S
H733 C761 0.931 . S
H734 C760 0.929 . S
H735 C763 0.930 . S
H736 C764 0.932 . S
H737 C767 0.929 . S
H738 C766 0.931 . S
H739 C769 0.929 . S
H740 C773 0.932 . S
H741 C770 0.931 . S
H742 C772 0.929 . S
H743 C775 0.929 . S
H744 C776 0.930 . S
H745 C778 0.929 . S
H746 C779 0.931 . S
H747 C781 0.930 . S
H748 C782 0.932 . S
H749 C784 0.931 . S
H750 C785 0.929 . S
H751 C787 0.929 . S
H752 C788 0.931 . S
H753 C790 0.929 . S
N754 C774 1.433 . S
N754 C780 1.435 . S
N754 C786 1.423 . S
H755 C791 0.932 . S
C756 N731 1.433 . S
C756 C757 1.363 . S
C756 C761 1.370 . S
C757 H730 0.929 . S
C757 C756 1.363 . S
C757 C758 1.385 . S
C758 H732 0.930 . S
C758 C757 1.385 . S
C758 C759 1.357 . S
C759 C758 1.357 . S
C759 C760 1.406 . S
C760 H734 0.929 . S
C760 C759 1.406 . S
C760 C761 1.391 . S
C761 H733 0.931 . S
C761 C756 1.370 . S
C761 C760 1.391 . S
C762 N731 1.435 . S
C762 C763 1.358 . S
C762 C767 1.371 . S
C763 H735 0.930 . S
C763 C762 1.358 . S
C763 C764 1.405 . S
C764 H736 0.932 . S
C764 C763 1.405 . S
C764 C765 1.383 . S
C765 C764 1.383 . S
C765 C766 1.393 . S
C766 H738 0.931 . S
C766 C765 1.393 . S
C766 C767 1.382 . S
C767 H737 0.929 . S
C767 C762 1.371 . S
C767 C766 1.382 . S
C768 N731 1.423 . S
C768 C769 1.362 . S
C768 C773 1.388 . S
C769 H739 0.929 . S
C769 C768 1.362 . S
C769 C770 1.376 . S
C770 H741 0.931 . S
C770 C769 1.376 . S
C770 C771 1.396 . S
C771 C770 1.396 . S
C771 C772 1.348 . S
C771 C789 1.472 . S
C772 H742 0.929 . S
C772 C771 1.348 . S
C772 C773 1.443 . S
C773 H740 0.932 . S
C773 C768 1.388 . S
C773 C772 1.443 . S
C774 N754 1.433 . S
C774 C775 1.363 . S
C774 C779 1.370 . S
C775 H743 0.929 . S
C775 C774 1.363 . S
C775 C776 1.385 . S
C776 H744 0.930 . S
C776 C775 1.385 . S
C776 C777 1.357 . S
C777 C776 1.357 . S
C777 C778 1.406 . S
C778 H745 0.929 . S
C778 C777 1.406 . S
C778 C779 1.391 . S
C779 H746 0.931 . S
C779 C774 1.370 . S
C779 C778 1.391 . S
C780 N754 1.435 . S
C780 C781 1.358 . S
C780 C785 1.371 . S
C781 H747 0.930 . S
C781 C780 1.358 . S
C781 C782 1.405 . S
C782 H748 0.932 . S
C782 C781 1.405 . S
C782 C783 1.383 . S
C783 C782 1.383 . S
C783 C784 1.393 . S
C784 H749 0.931 . S
C784 C783 1.393 . S
C784 C785 1.382 . S
C785 H750 0.929 . S
C785 C780 1.371 . S
C785 C784 1.382 . S
C786 N754 1.423 . S
C786 C787 1.362 . S
C786 C791 1.388 . S
C787 H751 0.929 . S
C787 C786 1.362 . S
C787 C788 1.376 . S
C788 H752 0.931 . S
C788 C787 1.376 . S
C788 C789 1.396 . S
C789 C771 1.472 . S
C789 C788 1.396 . S
C789 C790 1.348 . S
C790 H753 0.929 . S
C790 C789 1.348 . S
C790 C791 1.443 . S
C791 H755 0.932 . S
C791 C786 1.388 . S
C791 C790 1.443 . S
H792 C819 0.929 . S
N793 C818 1.433 . S
N793 C824 1.435 . S
N793 C830 1.423 . S
H794 C820 0.930 . S
H795 C823 0.931 . S
H796 C822 0.929 . S
H797 C825 0.930 . S
H798 C826 0.932 . S
H799 C829 0.929 . S
H800 C828 0.931 . S
H801 C831 0.929 . S
H802 C835 0.932 1_655 S
H803 C832 0.931 . S
H804 C834 0.929 . S
H805 C837 0.929 . S
H806 C838 0.930 . S
H807 C840 0.929 . S
H808 C841 0.931 . S
H809 C843 0.930 . S
H810 C844 0.932 . S
H811 C846 0.931 . S
H812 C847 0.929 . S
H813 C849 0.929 . S
H814 C850 0.931 . S
H815 C852 0.929 . S
N816 C836 1.433 . S
N816 C842 1.435 . S
N816 C848 1.423 . S
H817 C853 0.932 1_655 S
C818 N793 1.433 . S
C818 C819 1.363 . S
C818 C823 1.370 1_455 S
C819 H792 0.929 . S
C819 C818 1.363 . S
C819 C820 1.385 . S
C820 H794 0.930 . S
C820 C819 1.385 . S
C820 C821 1.357 1_455 S
C821 C820 1.357 1_655 S
C821 C822 1.406 . S
C822 H796 0.929 . S
C822 C821 1.406 . S
C822 C823 1.391 . S
C823 H795 0.931 . S
C823 C818 1.370 1_655 S
C823 C822 1.391 . S
C824 N793 1.435 . S
C824 C825 1.358 1_455 S
C824 C829 1.371 . S
C825 H797 0.930 . S
C825 C824 1.358 1_655 S
C825 C826 1.405 . S
C826 H798 0.932 . S
C826 C825 1.405 . S
C826 C827 1.383 1_655 S
C827 C826 1.383 1_455 S
C827 C828 1.393 . S
C828 H800 0.931 . S
C828 C827 1.393 . S
C828 C829 1.382 . S
C829 H799 0.929 . S
C829 C824 1.371 . S
C829 C828 1.382 . S
C830 N793 1.423 . S
C830 C831 1.362 . S
C830 C835 1.388 . S
C831 H801 0.929 . S
C831 C830 1.362 . S
C831 C832 1.376 . S
C832 H803 0.931 . S
C832 C831 1.376 . S
C832 C833 1.396 . S
C833 C832 1.396 . S
C833 C834 1.348 . S
C833 C851 1.472 . S
C834 H804 0.929 . S
C834 C833 1.348 . S
C834 C835 1.443 . S
C835 H802 0.932 1_455 S
C835 C830 1.388 . S
C835 C834 1.443 . S
C836 N816 1.433 . S
C836 C837 1.363 . S
C836 C841 1.370 1_455 S
C837 H805 0.929 . S
C837 C836 1.363 . S
C837 C838 1.385 . S
C838 H806 0.930 . S
C838 C837 1.385 . S
C838 C839 1.357 1_455 S
C839 C838 1.357 1_655 S
C839 C840 1.406 . S
C840 H807 0.929 . S
C840 C839 1.406 . S
C840 C841 1.391 . S
C841 H808 0.931 . S
C841 C836 1.370 1_655 S
C841 C840 1.391 . S
C842 N816 1.435 . S
C842 C843 1.358 1_455 S
C842 C847 1.371 . S
C843 H809 0.930 . S
C843 C842 1.358 1_655 S
C843 C844 1.405 . S
C844 H810 0.932 . S
C844 C843 1.405 . S
C844 C845 1.383 1_655 S
C845 C844 1.383 1_455 S
C845 C846 1.393 . S
C846 H811 0.931 . S
C846 C845 1.393 . S
C846 C847 1.382 . S
C847 H812 0.929 . S
C847 C842 1.371 . S
C847 C846 1.382 . S
C848 N816 1.423 . S
C848 C849 1.362 . S
C848 C853 1.388 . S
C849 H813 0.929 . S
C849 C848 1.362 . S
C849 C850 1.376 . S
C850 H814 0.931 . S
C850 C849 1.376 . S
C850 C851 1.396 . S
C851 C833 1.472 . S
C851 C850 1.396 . S
C851 C852 1.348 . S
C852 H815 0.929 . S
C852 C851 1.348 . S
C852 C853 1.443 . S
C853 H817 0.932 1_455 S
C853 C848 1.388 . S
C853 C852 1.443 . S
H854 C881 0.929 . S
N855 C880 1.433 . S
N855 C886 1.435 . S
N855 C892 1.423 . S
H856 C882 0.930 . S
H857 C885 0.931 . S
H858 C884 0.929 . S
H859 C887 0.930 . S
H860 C888 0.932 . S
H861 C891 0.929 . S
H862 C890 0.931 . S
H863 C893 0.929 . S
H864 C897 0.932 . S
H865 C894 0.931 . S
H866 C896 0.929 . S
H867 C899 0.929 . S
H868 C900 0.930 . S
H869 C902 0.929 . S
H870 C903 0.931 . S
H871 C905 0.930 . S
H872 C906 0.932 . S
H873 C908 0.931 . S
H874 C909 0.929 . S
H875 C911 0.929 . S
H876 C912 0.931 . S
H877 C914 0.929 . S
N878 C898 1.433 . S
N878 C904 1.435 . S
N878 C910 1.423 . S
H879 C915 0.932 . S
C880 N855 1.433 . S
C880 C881 1.363 . S
C880 C885 1.370 . S
C881 H854 0.929 . S
C881 C880 1.363 . S
C881 C882 1.385 . S
C882 H856 0.930 . S
C882 C881 1.385 . S
C882 C883 1.357 . S
C883 C882 1.357 . S
C883 C884 1.406 . S
C884 H858 0.929 . S
C884 C883 1.406 . S
C884 C885 1.391 . S
C885 H857 0.931 . S
C885 C880 1.370 . S
C885 C884 1.391 . S
C886 N855 1.435 . S
C886 C887 1.358 . S
C886 C891 1.371 . S
C887 H859 0.930 . S
C887 C886 1.358 . S
C887 C888 1.405 . S
C888 H860 0.932 . S
C888 C887 1.405 . S
C888 C889 1.383 . S
C889 C888 1.383 . S
C889 C890 1.393 . S
C890 H862 0.931 . S
C890 C889 1.393 . S
C890 C891 1.382 . S
C891 H861 0.929 . S
C891 C886 1.371 . S
C891 C890 1.382 . S
C892 N855 1.423 . S
C892 C893 1.362 . S
C892 C897 1.388 . S
C893 H863 0.929 . S
C893 C892 1.362 . S
C893 C894 1.376 . S
C894 H865 0.931 . S
C894 C893 1.376 . S
C894 C895 1.396 . S
C895 C894 1.396 . S
C895 C896 1.348 . S
C895 C913 1.472 . S
C896 H866 0.929 . S
C896 C895 1.348 . S
C896 C897 1.443 . S
C897 H864 0.932 . S
C897 C892 1.388 . S
C897 C896 1.443 . S
C898 N878 1.433 . S
C898 C899 1.363 . S
C898 C903 1.370 . S
C899 H867 0.929 . S
C899 C898 1.363 . S
C899 C900 1.385 . S
C900 H868 0.930 . S
C900 C899 1.385 . S
C900 C901 1.357 . S
C901 C900 1.357 . S
C901 C902 1.406 . S
C902 H869 0.929 . S
C902 C901 1.406 . S
C902 C903 1.391 . S
C903 H870 0.931 . S
C903 C898 1.370 . S
C903 C902 1.391 . S
C904 N878 1.435 . S
C904 C905 1.358 . S
C904 C909 1.371 . S
C905 H871 0.930 . S
C905 C904 1.358 . S
C905 C906 1.405 . S
C906 H872 0.932 . S
C906 C905 1.405 . S
C906 C907 1.383 . S
C907 C906 1.383 . S
C907 C908 1.393 . S
C908 H873 0.931 . S
C908 C907 1.393 . S
C908 C909 1.382 . S
C909 H874 0.929 . S
C909 C904 1.371 . S
C909 C908 1.382 . S
C910 N878 1.423 . S
C910 C911 1.362 . S
C910 C915 1.388 . S
C911 H875 0.929 . S
C911 C910 1.362 . S
C911 C912 1.376 . S
C912 H876 0.931 . S
C912 C911 1.376 . S
C912 C913 1.396 . S
C913 C895 1.472 . S
C913 C912 1.396 . S
C913 C914 1.348 . S
C914 H877 0.929 . S
C914 C913 1.348 . S
C914 C915 1.443 . S
C915 H879 0.932 . S
C915 C910 1.388 . S
C915 C914 1.443 . S
H916 C943 0.929 . S
N917 C942 1.433 . S
N917 C948 1.435 . S
N917 C954 1.423 . S
H918 C944 0.930 . S
H919 C947 0.931 . S
H920 C946 0.929 . S
H921 C949 0.930 . S
H922 C950 0.932 . S
H923 C953 0.929 . S
H924 C952 0.931 . S
H925 C955 0.929 . S
H926 C959 0.932 1_545 S
H927 C956 0.931 . S
H928 C958 0.929 . S
H929 C961 0.929 . S
H930 C962 0.930 . S
H931 C964 0.929 . S
H932 C965 0.931 . S
H933 C967 0.930 . S
H934 C968 0.932 . S
H935 C970 0.931 . S
H936 C971 0.929 . S
H937 C973 0.929 . S
H938 C974 0.931 . S
H939 C976 0.929 . S
N940 C960 1.433 . S
N940 C966 1.435 . S
N940 C972 1.423 . S
H941 C977 0.932 1_545 S
C942 N917 1.433 . S
C942 C943 1.363 . S
C942 C947 1.370 1_565 S
C943 H916 0.929 . S
C943 C942 1.363 . S
C943 C944 1.385 . S
C944 H918 0.930 . S
C944 C943 1.385 . S
C944 C945 1.357 1_565 S
C945 C944 1.357 1_545 S
C945 C946 1.406 . S
C946 H920 0.929 . S
C946 C945 1.406 . S
C946 C947 1.391 . S
C947 H919 0.931 . S
C947 C942 1.370 1_545 S
C947 C946 1.391 . S
C948 N917 1.435 . S
C948 C949 1.358 1_565 S
C948 C953 1.371 . S
C949 H921 0.930 . S
C949 C948 1.358 1_545 S
C949 C950 1.405 . S
C950 H922 0.932 . S
C950 C949 1.405 . S
C950 C951 1.383 1_545 S
C951 C950 1.383 1_565 S
C951 C952 1.393 . S
C952 H924 0.931 . S
C952 C951 1.393 . S
C952 C953 1.382 . S
C953 H923 0.929 . S
C953 C948 1.371 . S
C953 C952 1.382 . S
C954 N917 1.423 . S
C954 C955 1.362 . S
C954 C959 1.388 . S
C955 H925 0.929 . S
C955 C954 1.362 . S
C955 C956 1.376 . S
C956 H927 0.931 . S
C956 C955 1.376 . S
C956 C957 1.396 . S
C957 C956 1.396 . S
C957 C958 1.348 . S
C957 C975 1.472 . S
C958 H928 0.929 . S
C958 C957 1.348 . S
C958 C959 1.443 . S
C959 H926 0.932 1_565 S
C959 C954 1.388 . S
C959 C958 1.443 . S
C960 N940 1.433 . S
C960 C961 1.363 . S
C960 C965 1.370 1_565 S
C961 H929 0.929 . S
C961 C960 1.363 . S
C961 C962 1.385 . S
C962 H930 0.930 . S
C962 C961 1.385 . S
C962 C963 1.357 1_565 S
C963 C962 1.357 1_545 S
C963 C964 1.406 . S
C964 H931 0.929 . S
C964 C963 1.406 . S
C964 C965 1.391 . S
C965 H932 0.931 . S
C965 C960 1.370 1_545 S
C965 C964 1.391 . S
C966 N940 1.435 . S
C966 C967 1.358 1_565 S
C966 C971 1.371 . S
C967 H933 0.930 . S
C967 C966 1.358 1_545 S
C967 C968 1.405 . S
C968 H934 0.932 . S
C968 C967 1.405 . S
C968 C969 1.383 1_545 S
C969 C968 1.383 1_565 S
C969 C970 1.393 . S
C970 H935 0.931 . S
C970 C969 1.393 . S
C970 C971 1.382 . S
C971 H936 0.929 . S
C971 C966 1.371 . S
C971 C970 1.382 . S
C972 N940 1.423 . S
C972 C973 1.362 . S
C972 C977 1.388 . S
C973 H937 0.929 . S
C973 C972 1.362 . S
C973 C974 1.376 . S
C974 H938 0.931 . S
C974 C973 1.376 . S
C974 C975 1.396 . S
C975 C957 1.472 . S
C975 C974 1.396 . S
C975 C976 1.348 . S
C976 H939 0.929 . S
C976 C975 1.348 . S
C976 C977 1.443 . S
C977 H941 0.932 1_565 S
C977 C972 1.388 . S
C977 C976 1.443 . S
H978 C1005 0.929 . S
N979 C1004 1.433 . S
N979 C1010 1.435 . S
N979 C1016 1.423 . S
H980 C1006 0.930 . S
H981 C1009 0.931 . S
H982 C1008 0.929 . S
H983 C1011 0.930 . S
H984 C1012 0.932 . S
H985 C1015 0.929 . S
H986 C1014 0.931 . S
H987 C1017 0.929 . S
H988 C1021 0.932 . S
H989 C1018 0.931 . S
H990 C1020 0.925 1_545 S
H991 C1023 0.929 . S
H992 C1024 0.930 . S
H993 C1026 0.934 . S
H994 C1027 0.934 . S
H995 C1029 0.930 . S
H996 C1030 0.932 . S
H997 C1032 0.931 . S
H998 C1033 0.929 . S
H999 C1035 0.929 . S
H1000 C1036 0.931 . S
H1001 C1038 0.898 1_545 S
N1002 C1022 1.433 . S
N1002 C1028 1.435 . S
N1002 C1034 1.423 . S
H1003 C1039 0.932 . S
C1004 N979 1.433 . S
C1004 C1005 1.363 . S
C1004 C1009 1.370 1_565 S
C1005 H978 0.929 . S
C1005 C1004 1.363 . S
C1005 C1006 1.385 . S
C1006 H980 0.930 . S
C1006 C1005 1.385 . S
C1006 C1007 1.357 . S
C1007 C1006 1.357 . S
C1007 C1008 1.406 1_565 S
C1008 H982 0.929 . S
C1008 C1007 1.406 1_545 S
C1008 C1009 1.391 . S
C1009 H981 0.931 . S
C1009 C1004 1.370 1_545 S
C1009 C1008 1.391 . S
C1010 N979 1.435 . S
C1010 C1011 1.358 1_565 S
C1010 C1015 1.371 . S
C1011 H983 0.930 . S
C1011 C1010 1.358 1_545 S
C1011 C1012 1.405 . S
C1012 H984 0.932 . S
C1012 C1011 1.405 . S
C1012 C1013 1.383 . S
C1013 C1012 1.383 . S
C1013 C1014 1.393 1_545 S
C1014 H986 0.931 . S
C1014 C1013 1.393 1_565 S
C1014 C1015 1.382 . S
C1015 H985 0.929 . S
C1015 C1010 1.371 . S
C1015 C1014 1.382 . S
C1016 N979 1.423 . S
C1016 C1017 1.362 . S
C1016 C1021 1.388 1_565 S
C1017 H987 0.929 . S
C1017 C1016 1.362 . S
C1017 C1018 1.376 . S
C1018 H989 0.931 . S
C1018 C1017 1.376 . S
C1018 C1019 1.396 . S
C1019 C1018 1.396 . S
C1019 C1020 1.364 . S
C1019 C1037 1.472 . S
C1020 H990 0.925 1_565 S
C1020 C1019 1.364 . S
C1020 C1021 1.431 1_565 S
C1021 H988 0.932 . S
C1021 C1016 1.388 1_545 S
C1021 C1020 1.431 1_545 S
C1022 N1002 1.433 . S
C1022 C1023 1.363 . S
C1022 C1027 1.368 1_565 S
C1023 H991 0.929 . S
C1023 C1022 1.363 . S
C1023 C1024 1.385 . S
C1024 H992 0.930 . S
C1024 C1023 1.385 . S
C1024 C1025 1.357 . S
C1025 C1024 1.357 . S
C1025 C1026 1.400 1_565 S
C1026 H993 0.934 . S
C1026 C1025 1.400 1_545 S
C1026 C1027 1.392 . S
C1027 H994 0.934 . S
C1027 C1022 1.368 1_545 S
C1027 C1026 1.392 . S
C1028 N1002 1.435 . S
C1028 C1029 1.358 1_565 S
C1028 C1033 1.371 . S
C1029 H995 0.930 . S
C1029 C1028 1.358 1_545 S
C1029 C1030 1.405 . S
C1030 H996 0.932 . S
C1030 C1029 1.405 . S
C1030 C1031 1.383 . S
C1031 C1030 1.383 . S
C1031 C1032 1.393 1_545 S
C1032 H997 0.931 . S
C1032 C1031 1.393 1_565 S
C1032 C1033 1.382 . S
C1033 H998 0.929 . S
C1033 C1028 1.371 . S
C1033 C1032 1.382 . S
C1034 N1002 1.423 . S
C1034 C1035 1.362 . S
C1034 C1039 1.388 1_565 S
C1035 H999 0.929 . S
C1035 C1034 1.362 . S
C1035 C1036 1.376 . S
C1036 H1000 0.931 . S
C1036 C1035 1.376 . S
C1036 C1037 1.396 . S
C1037 C1019 1.472 . S
C1037 C1036 1.396 . S
C1037 C1038 1.360 . S
C1038 H1001 0.898 1_565 S
C1038 C1037 1.360 . S
C1038 C1039 1.462 1_565 S
C1039 H1003 0.932 . S
C1039 C1034 1.388 1_545 S
C1039 C1038 1.462 1_545 S
H1040 C1067 0.929 . S
N1041 C1066 1.433 . S
N1041 C1072 1.435 . S
N1041 C1078 1.423 . S
H1042 C1068 0.930 . S
H1043 C1071 0.931 . S
H1044 C1070 0.929 . S
H1045 C1073 0.930 . S
H1046 C1074 0.932 . S
H1047 C1077 0.929 . S
H1048 C1076 0.931 . S
H1049 C1079 0.929 . S
H1050 C1083 0.932 1_455 S
H1051 C1080 0.931 . S
H1052 C1082 0.929 . S
H1053 C1085 0.929 . S
H1054 C1086 0.930 . S
H1055 C1088 0.929 . S
H1056 C1089 0.931 . S
H1057 C1091 0.930 . S
H1058 C1092 0.932 . S
H1059 C1094 0.931 . S
H1060 C1095 0.929 . S
H1061 C1097 0.929 . S
H1062 C1098 0.931 . S
H1063 C1100 0.929 . S
N1064 C1084 1.433 . S
N1064 C1090 1.435 . S
N1064 C1096 1.423 . S
H1065 C1101 0.932 1_455 S
C1066 N1041 1.433 . S
C1066 C1067 1.363 . S
C1066 C1071 1.370 1_655 S
C1067 H1040 0.929 . S
C1067 C1066 1.363 . S
C1067 C1068 1.385 . S
C1068 H1042 0.930 . S
C1068 C1067 1.385 . S
C1068 C1069 1.357 1_655 S
C1069 C1068 1.357 1_455 S
C1069 C1070 1.406 . S
C1070 H1044 0.929 . S
C1070 C1069 1.406 . S
C1070 C1071 1.391 . S
C1071 H1043 0.931 . S
C1071 C1066 1.370 1_455 S
C1071 C1070 1.391 . S
C1072 N1041 1.435 . S
C1072 C1073 1.358 1_655 S
C1072 C1077 1.371 . S
C1073 H1045 0.930 . S
C1073 C1072 1.358 1_455 S
C1073 C1074 1.405 . S
C1074 H1046 0.932 . S
C1074 C1073 1.405 . S
C1074 C1075 1.383 1_455 S
C1075 C1074 1.383 1_655 S
C1075 C1076 1.393 . S
C1076 H1048 0.931 . S
C1076 C1075 1.393 . S
C1076 C1077 1.382 . S
C1077 H1047 0.929 . S
C1077 C1072 1.371 . S
C1077 C1076 1.382 . S
C1078 N1041 1.423 . S
C1078 C1079 1.362 . S
C1078 C1083 1.388 . S
C1079 H1049 0.929 . S
C1079 C1078 1.362 . S
C1079 C1080 1.376 . S
C1080 H1051 0.931 . S
C1080 C1079 1.376 . S
C1080 C1081 1.396 . S
C1081 C1080 1.396 . S
C1081 C1082 1.348 . S
C1081 C1099 1.472 . S
C1082 H1052 0.929 . S
C1082 C1081 1.348 . S
C1082 C1083 1.443 . S
C1083 H1050 0.932 1_655 S
C1083 C1078 1.388 . S
C1083 C1082 1.443 . S
C1084 N1064 1.433 . S
C1084 C1085 1.363 . S
C1084 C1089 1.370 1_655 S
C1085 H1053 0.929 . S
C1085 C1084 1.363 . S
C1085 C1086 1.385 . S
C1086 H1054 0.930 . S
C1086 C1085 1.385 . S
C1086 C1087 1.357 1_655 S
C1087 C1086 1.357 1_455 S
C1087 C1088 1.406 . S
C1088 H1055 0.929 . S
C1088 C1087 1.406 . S
C1088 C1089 1.391 . S
C1089 H1056 0.931 . S
C1089 C1084 1.370 1_455 S
C1089 C1088 1.391 . S
C1090 N1064 1.435 . S
C1090 C1091 1.358 1_655 S
C1090 C1095 1.371 . S
C1091 H1057 0.930 . S
C1091 C1090 1.358 1_455 S
C1091 C1092 1.405 . S
C1092 H1058 0.932 . S
C1092 C1091 1.405 . S
C1092 C1093 1.383 1_455 S
C1093 C1092 1.383 1_655 S
C1093 C1094 1.393 . S
C1094 H1059 0.931 . S
C1094 C1093 1.393 . S
C1094 C1095 1.382 . S
C1095 H1060 0.929 . S
C1095 C1090 1.371 . S
C1095 C1094 1.382 . S
C1096 N1064 1.423 . S
C1096 C1097 1.362 . S
C1096 C1101 1.388 . S
C1097 H1061 0.929 . S
C1097 C1096 1.362 . S
C1097 C1098 1.376 . S
C1098 H1062 0.931 . S
C1098 C1097 1.376 . S
C1098 C1099 1.396 . S
C1099 C1081 1.472 . S
C1099 C1098 1.396 . S
C1099 C1100 1.348 . S
C1100 H1063 0.929 . S
C1100 C1099 1.348 . S
C1100 C1101 1.443 . S
C1101 H1065 0.932 1_655 S
C1101 C1096 1.388 . S
C1101 C1100 1.443 . S
H1102 C1129 0.929 . S
N1103 C1128 1.433 . S
N1103 C1134 1.435 . S
N1103 C1140 1.423 . S
H1104 C1130 0.930 . S
H1105 C1133 0.931 . S
H1106 C1132 0.929 . S
H1107 C1135 0.930 . S
H1108 C1136 0.932 . S
H1109 C1139 0.929 . S
H1110 C1138 0.931 . S
H1111 C1141 0.929 . S
H1112 C1145 0.932 . S
H1113 C1142 0.931 . S
H1114 C1144 0.929 . S
H1115 C1147 0.929 . S
H1116 C1148 0.930 . S
H1117 C1150 0.929 . S
H1118 C1151 0.931 . S
H1119 C1153 0.930 . S
H1120 C1154 0.932 . S
H1121 C1156 0.931 . S
H1122 C1157 0.929 . S
H1123 C1159 0.929 . S
H1124 C1160 0.931 . S
H1125 C1162 0.929 . S
N1126 C1146 1.433 . S
N1126 C1152 1.435 . S
N1126 C1158 1.423 . S
H1127 C1163 0.932 . S
C1128 N1103 1.433 . S
C1128 C1129 1.363 . S
C1128 C1133 1.370 . S
C1129 H1102 0.929 . S
C1129 C1128 1.363 . S
C1129 C1130 1.385 . S
C1130 H1104 0.930 . S
C1130 C1129 1.385 . S
C1130 C1131 1.357 . S
C1131 C1130 1.357 . S
C1131 C1132 1.406 . S
C1132 H1106 0.929 . S
C1132 C1131 1.406 . S
C1132 C1133 1.391 . S
C1133 H1105 0.931 . S
C1133 C1128 1.370 . S
C1133 C1132 1.391 . S
C1134 N1103 1.435 . S
C1134 C1135 1.358 . S
C1134 C1139 1.371 . S
C1135 H1107 0.930 . S
C1135 C1134 1.358 . S
C1135 C1136 1.405 . S
C1136 H1108 0.932 . S
C1136 C1135 1.405 . S
C1136 C1137 1.383 . S
C1137 C1136 1.383 . S
C1137 C1138 1.393 . S
C1138 H1110 0.931 . S
C1138 C1137 1.393 . S
C1138 C1139 1.382 . S
C1139 H1109 0.929 . S
C1139 C1134 1.371 . S
C1139 C1138 1.382 . S
C1140 N1103 1.423 . S
C1140 C1141 1.362 . S
C1140 C1145 1.388 . S
C1141 H1111 0.929 . S
C1141 C1140 1.362 . S
C1141 C1142 1.376 . S
C1142 H1113 0.931 . S
C1142 C1141 1.376 . S
C1142 C1143 1.396 . S
C1143 C1142 1.396 . S
C1143 C1144 1.348 . S
C1143 C1161 1.472 . S
C1144 H1114 0.929 . S
C1144 C1143 1.348 . S
C1144 C1145 1.443 . S
C1145 H1112 0.932 . S
C1145 C1140 1.388 . S
C1145 C1144 1.443 . S
C1146 N1126 1.433 . S
C1146 C1147 1.363 . S
C1146 C1151 1.370 . S
C1147 H1115 0.929 . S
C1147 C1146 1.363 . S
C1147 C1148 1.385 . S
C1148 H1116 0.930 . S
C1148 C1147 1.385 . S
C1148 C1149 1.357 . S
C1149 C1148 1.357 . S
C1149 C1150 1.406 . S
C1150 H1117 0.929 . S
C1150 C1149 1.406 . S
C1150 C1151 1.391 . S
C1151 H1118 0.931 . S
C1151 C1146 1.370 . S
C1151 C1150 1.391 . S
C1152 N1126 1.435 . S
C1152 C1153 1.358 . S
C1152 C1157 1.371 . S
C1153 H1119 0.930 . S
C1153 C1152 1.358 . S
C1153 C1154 1.405 . S
C1154 H1120 0.932 . S
C1154 C1153 1.405 . S
C1154 C1155 1.383 . S
C1155 C1154 1.383 . S
C1155 C1156 1.393 . S
C1156 H1121 0.931 . S
C1156 C1155 1.393 . S
C1156 C1157 1.382 . S
C1157 H1122 0.929 . S
C1157 C1152 1.371 . S
C1157 C1156 1.382 . S
C1158 N1126 1.423 . S
C1158 C1159 1.362 . S
C1158 C1163 1.388 . S
C1159 H1123 0.929 . S
C1159 C1158 1.362 . S
C1159 C1160 1.376 . S
C1160 H1124 0.931 . S
C1160 C1159 1.376 . S
C1160 C1161 1.396 . S
C1161 C1143 1.472 . S
C1161 C1160 1.396 . S
C1161 C1162 1.348 . S
C1162 H1125 0.929 . S
C1162 C1161 1.348 . S
C1162 C1163 1.443 . S
C1163 H1127 0.932 . S
C1163 C1158 1.388 . S
C1163 C1162 1.443 . S
H1164 C1191 0.929 . S
N1165 C1190 1.433 . S
N1165 C1196 1.435 . S
N1165 C1202 1.423 . S
H1166 C1192 0.930 . S
H1167 C1195 0.931 . S
H1168 C1194 0.929 . S
H1169 C1197 0.930 . S
H1170 C1198 0.932 . S
H1171 C1201 0.929 . S
H1172 C1200 0.931 . S
H1173 C1203 0.929 . S
H1174 C1207 0.932 . S
H1175 C1204 0.931 . S
H1176 C1206 0.929 . S
H1177 C1209 0.929 . S
H1178 C1210 0.930 . S
H1179 C1212 0.929 . S
H1180 C1213 0.931 . S
H1181 C1215 0.930 . S
H1182 C1216 0.932 . S
H1183 C1218 0.931 . S
H1184 C1219 0.929 . S
H1185 C1221 0.929 . S
H1186 C1222 0.931 . S
H1187 C1224 0.929 . S
N1188 C1208 1.433 . S
N1188 C1214 1.435 . S
N1188 C1220 1.423 . S
H1189 C1225 0.932 . S
C1190 N1165 1.433 . S
C1190 C1191 1.363 . S
C1190 C1195 1.370 . S
C1191 H1164 0.929 . S
C1191 C1190 1.363 . S
C1191 C1192 1.385 . S
C1192 H1166 0.930 . S
C1192 C1191 1.385 . S
C1192 C1193 1.357 . S
C1193 C1192 1.357 . S
C1193 C1194 1.406 . S
C1194 H1168 0.929 . S
C1194 C1193 1.406 . S
C1194 C1195 1.391 . S
C1195 H1167 0.931 . S
C1195 C1190 1.370 . S
C1195 C1194 1.391 . S
C1196 N1165 1.435 . S
C1196 C1197 1.358 . S
C1196 C1201 1.371 . S
C1197 H1169 0.930 . S
C1197 C1196 1.358 . S
C1197 C1198 1.405 . S
C1198 H1170 0.932 . S
C1198 C1197 1.405 . S
C1198 C1199 1.383 . S
C1199 C1198 1.383 . S
C1199 C1200 1.393 . S
C1200 H1172 0.931 . S
C1200 C1199 1.393 . S
C1200 C1201 1.382 . S
C1201 H1171 0.929 . S
C1201 C1196 1.371 . S
C1201 C1200 1.382 . S
C1202 N1165 1.423 . S
C1202 C1203 1.362 . S
C1202 C1207 1.388 . S
C1203 H1173 0.929 . S
C1203 C1202 1.362 . S
C1203 C1204 1.376 . S
C1204 H1175 0.931 . S
C1204 C1203 1.376 . S
C1204 C1205 1.396 . S
C1205 C1204 1.396 . S
C1205 C1206 1.348 . S
C1205 C1223 1.472 . S
C1206 H1176 0.929 . S
C1206 C1205 1.348 . S
C1206 C1207 1.443 . S
C1207 H1174 0.932 . S
C1207 C1202 1.388 . S
C1207 C1206 1.443 . S
C1208 N1188 1.433 . S
C1208 C1209 1.363 . S
C1208 C1213 1.370 . S
C1209 H1177 0.929 . S
C1209 C1208 1.363 . S
C1209 C1210 1.385 . S
C1210 H1178 0.930 . S
C1210 C1209 1.385 . S
C1210 C1211 1.357 . S
C1211 C1210 1.357 . S
C1211 C1212 1.406 . S
C1212 H1179 0.929 . S
C1212 C1211 1.406 . S
C1212 C1213 1.391 . S
C1213 H1180 0.931 . S
C1213 C1208 1.370 . S
C1213 C1212 1.391 . S
C1214 N1188 1.435 . S
C1214 C1215 1.358 . S
C1214 C1219 1.371 . S
C1215 H1181 0.930 . S
C1215 C1214 1.358 . S
C1215 C1216 1.405 . S
C1216 H1182 0.932 . S
C1216 C1215 1.405 . S
C1216 C1217 1.383 . S
C1217 C1216 1.383 . S
C1217 C1218 1.393 . S
C1218 H1183 0.931 . S
C1218 C1217 1.393 . S
C1218 C1219 1.382 . S
C1219 H1184 0.929 . S
C1219 C1214 1.371 . S
C1219 C1218 1.382 . S
C1220 N1188 1.423 . S
C1220 C1221 1.362 . S
C1220 C1225 1.388 . S
C1221 H1185 0.929 . S
C1221 C1220 1.362 . S
C1221 C1222 1.376 . S
C1222 H1186 0.931 . S
C1222 C1221 1.376 . S
C1222 C1223 1.396 . S
C1223 C1205 1.472 . S
C1223 C1222 1.396 . S
C1223 C1224 1.348 . S
C1224 H1187 0.929 . S
C1224 C1223 1.348 . S
C1224 C1225 1.443 . S
C1225 H1189 0.932 . S
C1225 C1220 1.388 . S
C1225 C1224 1.443 . S
H1226 C1253 0.929 . S
N1227 C1252 1.433 . S
N1227 C1258 1.435 . S
N1227 C1264 1.423 . S
H1228 C1254 0.930 . S
H1229 C1257 0.931 . S
H1230 C1256 0.929 . S
H1231 C1259 0.930 . S
H1232 C1260 0.932 . S
H1233 C1263 0.929 . S
H1234 C1262 0.931 . S
H1235 C1265 0.929 . S
H1236 C1269 0.932 . S
H1237 C1266 0.931 . S
H1238 C1268 0.929 . S
H1239 C1271 0.929 . S
H1240 C1272 0.930 . S
H1241 C1274 0.929 . S
H1242 C1275 0.931 . S
H1243 C1277 0.930 . S
H1244 C1278 0.932 . S
H1245 C1280 0.931 . S
H1246 C1281 0.929 . S
H1247 C1283 0.929 . S
H1248 C1284 0.931 . S
H1249 C1286 0.929 . S
N1250 C1270 1.433 . S
N1250 C1276 1.435 . S
N1250 C1282 1.423 . S
H1251 C1287 0.932 . S
C1252 N1227 1.433 . S
C1252 C1253 1.363 . S
C1252 C1257 1.370 . S
C1253 H1226 0.929 . S
C1253 C1252 1.363 . S
C1253 C1254 1.385 . S
C1254 H1228 0.930 . S
C1254 C1253 1.385 . S
C1254 C1255 1.357 . S
C1255 C1254 1.357 . S
C1255 C1256 1.406 . S
C1256 H1230 0.929 . S
C1256 C1255 1.406 . S
C1256 C1257 1.391 . S
C1257 H1229 0.931 . S
C1257 C1252 1.370 . S
C1257 C1256 1.391 . S
C1258 N1227 1.435 . S
C1258 C1259 1.358 . S
C1258 C1263 1.371 . S
C1259 H1231 0.930 . S
C1259 C1258 1.358 . S
C1259 C1260 1.405 . S
C1260 H1232 0.932 . S
C1260 C1259 1.405 . S
C1260 C1261 1.383 . S
C1261 C1260 1.383 . S
C1261 C1262 1.393 . S
C1262 H1234 0.931 . S
C1262 C1261 1.393 . S
C1262 C1263 1.382 . S
C1263 H1233 0.929 . S
C1263 C1258 1.371 . S
C1263 C1262 1.382 . S
C1264 N1227 1.423 . S
C1264 C1265 1.362 . S
C1264 C1269 1.388 . S
C1265 H1235 0.929 . S
C1265 C1264 1.362 . S
C1265 C1266 1.376 . S
C1266 H1237 0.931 . S
C1266 C1265 1.376 . S
C1266 C1267 1.396 . S
C1267 C1266 1.396 . S
C1267 C1268 1.348 . S
C1267 C1285 1.472 . S
C1268 H1238 0.929 . S
C1268 C1267 1.348 . S
C1268 C1269 1.443 . S
C1269 H1236 0.932 . S
C1269 C1264 1.388 . S
C1269 C1268 1.443 . S
C1270 N1250 1.433 . S
C1270 C1271 1.363 . S
C1270 C1275 1.370 . S
C1271 H1239 0.929 . S
C1271 C1270 1.363 . S
C1271 C1272 1.385 . S
C1272 H1240 0.930 . S
C1272 C1271 1.385 . S
C1272 C1273 1.357 . S
C1273 C1272 1.357 . S
C1273 C1274 1.406 . S
C1274 H1241 0.929 . S
C1274 C1273 1.406 . S
C1274 C1275 1.391 . S
C1275 H1242 0.931 . S
C1275 C1270 1.370 . S
C1275 C1274 1.391 . S
C1276 N1250 1.435 . S
C1276 C1277 1.358 . S
C1276 C1281 1.371 . S
C1277 H1243 0.930 . S
C1277 C1276 1.358 . S
C1277 C1278 1.405 . S
C1278 H1244 0.932 . S
C1278 C1277 1.405 . S
C1278 C1279 1.383 . S
C1279 C1278 1.383 . S
C1279 C1280 1.393 . S
C1280 H1245 0.931 . S
C1280 C1279 1.393 . S
C1280 C1281 1.382 . S
C1281 H1246 0.929 . S
C1281 C1276 1.371 . S
C1281 C1280 1.382 . S
C1282 N1250 1.423 . S
C1282 C1283 1.362 . S
C1282 C1287 1.388 . S
C1283 H1247 0.929 . S
C1283 C1282 1.362 . S
C1283 C1284 1.376 . S
C1284 H1248 0.931 . S
C1284 C1283 1.376 . S
C1284 C1285 1.396 . S
C1285 C1267 1.472 . S
C1285 C1284 1.396 . S
C1285 C1286 1.348 . S
C1286 H1249 0.929 . S
C1286 C1285 1.348 . S
C1286 C1287 1.443 . S
C1287 H1251 0.932 . S
C1287 C1282 1.388 . S
C1287 C1286 1.443 . S
H1288 C1315 0.929 . S
N1289 C1314 1.433 . S
N1289 C1320 1.435 . S
N1289 C1326 1.423 . S
H1290 C1316 0.930 . S
H1291 C1319 0.931 . S
H1292 C1318 0.929 . S
H1293 C1321 0.930 . S
H1294 C1322 0.932 . S
H1295 C1325 0.929 . S
H1296 C1324 0.931 . S
H1297 C1327 0.929 . S
H1298 C1331 0.932 . S
H1299 C1328 0.931 . S
H1300 C1330 0.929 . S
H1301 C1333 0.929 . S
H1302 C1334 0.930 . S
H1303 C1336 0.929 . S
H1304 C1337 0.931 . S
H1305 C1339 0.930 . S
H1306 C1340 0.932 . S
H1307 C1342 0.931 . S
H1308 C1343 0.929 . S
H1309 C1345 0.929 . S
H1310 C1346 0.931 . S
H1311 C1348 0.929 . S
N1312 C1332 1.433 . S
N1312 C1338 1.435 . S
N1312 C1344 1.423 . S
H1313 C1349 0.932 . S
C1314 N1289 1.433 . S
C1314 C1315 1.363 . S
C1314 C1319 1.370 . S
C1315 H1288 0.929 . S
C1315 C1314 1.363 . S
C1315 C1316 1.385 . S
C1316 H1290 0.930 . S
C1316 C1315 1.385 . S
C1316 C1317 1.357 . S
C1317 C1316 1.357 . S
C1317 C1318 1.406 . S
C1318 H1292 0.929 . S
C1318 C1317 1.406 . S
C1318 C1319 1.391 . S
C1319 H1291 0.931 . S
C1319 C1314 1.370 . S
C1319 C1318 1.391 . S
C1320 N1289 1.435 . S
C1320 C1321 1.358 . S
C1320 C1325 1.371 . S
C1321 H1293 0.930 . S
C1321 C1320 1.358 . S
C1321 C1322 1.405 . S
C1322 H1294 0.932 . S
C1322 C1321 1.405 . S
C1322 C1323 1.383 . S
C1323 C1322 1.383 . S
C1323 C1324 1.393 . S
C1324 H1296 0.931 . S
C1324 C1323 1.393 . S
C1324 C1325 1.382 . S
C1325 H1295 0.929 . S
C1325 C1320 1.371 . S
C1325 C1324 1.382 . S
C1326 N1289 1.423 . S
C1326 C1327 1.362 . S
C1326 C1331 1.388 . S
C1327 H1297 0.929 . S
C1327 C1326 1.362 . S
C1327 C1328 1.376 . S
C1328 H1299 0.931 . S
C1328 C1327 1.376 . S
C1328 C1329 1.396 . S
C1329 C1328 1.396 . S
C1329 C1330 1.348 . S
C1329 C1347 1.472 . S
C1330 H1300 0.929 . S
C1330 C1329 1.348 . S
C1330 C1331 1.443 . S
C1331 H1298 0.932 . S
C1331 C1326 1.388 . S
C1331 C1330 1.443 . S
C1332 N1312 1.433 . S
C1332 C1333 1.363 . S
C1332 C1337 1.370 . S
C1333 H1301 0.929 . S
C1333 C1332 1.363 . S
C1333 C1334 1.385 . S
C1334 H1302 0.930 . S
C1334 C1333 1.385 . S
C1334 C1335 1.357 . S
C1335 C1334 1.357 . S
C1335 C1336 1.406 . S
C1336 H1303 0.929 . S
C1336 C1335 1.406 . S
C1336 C1337 1.391 . S
C1337 H1304 0.931 . S
C1337 C1332 1.370 . S
C1337 C1336 1.391 . S
C1338 N1312 1.435 . S
C1338 C1339 1.358 . S
C1338 C1343 1.371 . S
C1339 H1305 0.930 . S
C1339 C1338 1.358 . S
C1339 C1340 1.405 . S
C1340 H1306 0.932 . S
C1340 C1339 1.405 . S
C1340 C1341 1.383 . S
C1341 C1340 1.383 . S
C1341 C1342 1.393 . S
C1342 H1307 0.931 . S
C1342 C1341 1.393 . S
C1342 C1343 1.382 . S
C1343 H1308 0.929 . S
C1343 C1338 1.371 . S
C1343 C1342 1.382 . S
C1344 N1312 1.423 . S
C1344 C1345 1.362 . S
C1344 C1349 1.388 . S
C1345 H1309 0.929 . S
C1345 C1344 1.362 . S
C1345 C1346 1.376 . S
C1346 H1310 0.931 . S
C1346 C1345 1.376 . S
C1346 C1347 1.396 . S
C1347 C1329 1.472 . S
C1347 C1346 1.396 . S
C1347 C1348 1.348 . S
C1348 H1311 0.929 . S
C1348 C1347 1.348 . S
C1348 C1349 1.443 . S
C1349 H1313 0.932 . S
C1349 C1344 1.388 . S
C1349 C1348 1.443 . S
C8 C839 1.948 . S
C18 C883 1.768 . S
C963 C31 1.619 . S
C34 C1007 2.010 . S
C5 C1087 1.738 . S
C21 C1149 2.039 . S
C47 C1069 1.944 . S
C1131 C57 1.699 . S
C1025 C70 1.766 . S
C73 C945 1.917 . S
C821 C44 1.745 . S
C60 C901 2.089 . S
C86 C1211 2.064 . S
C96 C1255 1.862 . S
C1335 C109 1.866 . S
C112 C281 2.140 . S
C83 C325 2.050 . S
C99 C405 2.121 . S
C125 C343 2.119 . S
C135 C387 1.783 . S
C263 C148 1.855 . S
C1317 C151 2.160 . S
C1193 C122 1.899 . S
C1273 C138 2.201 . S
C164 C467 2.037 . S
C174 C529 1.764 . S
C187 C573 1.985 . S
C190 C635 2.296 . S
C697 C161 2.062 . S
C777 C177 2.138 . S
C715 C203 2.157 . S
C759 C213 1.789 . S
C226 C653 2.023 . S
C591 C229 2.252 . S
C200 C449 1.892 . S
C511 C216 2.126 . S
C287 C0 1.492 . S
C23 C331 1.782 . S
C411 C36 1.592 . S
C473 C26 1.489 . S
C535 C10 1.628 1_556 S
C579 C13 1.659 . S
C39 C597 1.568 . S
C62 C455 1.638 . S
C75 C517 1.563 . S
C65 C349 1.610 . S
C393 C49 1.671 . S
C52 C269 1.575 . S
C641 C78 1.585 . S
C101 C703 1.791 . S
C114 C783 1.585 . S
C845 C104 1.277 . S
C88 C889 1.638 . S
C91 C969 1.130 . S
C117 C951 1.135 . S
C140 C827 1.398 . S
C907 C153 1.555 . S
C143 C721 1.590 . S
C127 C765 1.667 . S
C659 C130 1.694 . S
C1013 C156 1.256 . S
C179 C1093 1.402 . S
C192 C1155 1.487 . S
C1217 C182 1.462 . S
C1261 C166 1.738 . S
C169 C1341 1.579 . S
C195 C1323 1.482 . S
C218 C1199 1.667 . S
C1279 C231 1.628 . S
C1075 C221 1.273 . S
C1137 C205 1.565 . S
C208 C1031 1.286 . S
