# Generated by pormake.
# Topology zzz, (3,6)-cn, num edge types: 1
# Building blocks:
#     Node 0, Type 0, BuildingBlock: BETDAH_clean_linker_0, # of connection points: 3
#     Node 1, Type 0, BuildingBlock: BETDAH_clean_linker_0, # of connection points: 3
#     Node 2, Type 0, BuildingBlock: BETDAH_clean_linker_0, # of connection points: 3
#     Node 3, Type 0, BuildingBlock: BETDAH_clean_linker_0, # of connection points: 3
#     Node 4, Type 0, BuildingBlock: BETDAH_clean_linker_0, # of connection points: 3
#     Node 5, Type 0, BuildingBlock: BETDAH_clean_linker_0, # of connection points: 3
#     Node 6, Type 0, BuildingBlock: BETDAH_clean_linker_0, # of connection points: 3
#     Node 7, Type 0, BuildingBlock: BETDAH_clean_linker_0, # of connection points: 3
#     Node 8, Type 1, BuildingBlock: VOLQOD_clean_sbu_1, # of connection points: 6
#     Node 9, Type 1, BuildingBlock: VOLQOD_clean_sbu_1, # of connection points: 6
#     Node 10, Type 1, BuildingBlock: VOLQOD_clean_sbu_1, # of connection points: 6
#     Node 11, Type 1, BuildingBlock: VOLQOD_clean_sbu_1, # of connection points: 6
#     Edge 12, Type (0, 1), BuildingBlock: TEMPAE_clean_linker_10, # of connection points: 2
#     Edge 13, Type (0, 1), BuildingBlock: TEMPAE_clean_linker_10, # of connection points: 2
#     Edge 14, Type (0, 1), BuildingBlock: TEMPAE_clean_linker_10, # of connection points: 2
#     Edge 15, Type (0, 1), BuildingBlock: TEMPAE_clean_linker_10, # of connection points: 2
#     Edge 16, Type (0, 1), BuildingBlock: TEMPAE_clean_linker_10, # of connection points: 2
#     Edge 17, Type (0, 1), BuildingBlock: TEMPAE_clean_linker_10, # of connection points: 2
#     Edge 18, Type (0, 1), BuildingBlock: TEMPAE_clean_linker_10, # of connection points: 2
#     Edge 19, Type (0, 1), BuildingBlock: TEMPAE_clean_linker_10, # of connection points: 2
#     Edge 20, Type (0, 1), BuildingBlock: TEMPAE_clean_linker_10, # of connection points: 2
#     Edge 21, Type (0, 1), BuildingBlock: TEMPAE_clean_linker_10, # of connection points: 2
#     Edge 22, Type (0, 1), BuildingBlock: TEMPAE_clean_linker_10, # of connection points: 2
#     Edge 23, Type (0, 1), BuildingBlock: TEMPAE_clean_linker_10, # of connection points: 2
#     Edge 24, Type (0, 1), BuildingBlock: TEMPAE_clean_linker_10, # of connection points: 2
#     Edge 25, Type (0, 1), BuildingBlock: TEMPAE_clean_linker_10, # of connection points: 2
#     Edge 26, Type (0, 1), BuildingBlock: TEMPAE_clean_linker_10, # of connection points: 2
#     Edge 27, Type (0, 1), BuildingBlock: TEMPAE_clean_linker_10, # of connection points: 2
#     Edge 28, Type (0, 1), BuildingBlock: TEMPAE_clean_linker_10, # of connection points: 2
#     Edge 29, Type (0, 1), BuildingBlock: TEMPAE_clean_linker_10, # of connection points: 2
#     Edge 30, Type (0, 1), BuildingBlock: TEMPAE_clean_linker_10, # of connection points: 2
#     Edge 31, Type (0, 1), BuildingBlock: TEMPAE_clean_linker_10, # of connection points: 2
#     Edge 32, Type (0, 1), BuildingBlock: TEMPAE_clean_linker_10, # of connection points: 2
#     Edge 33, Type (0, 1), BuildingBlock: TEMPAE_clean_linker_10, # of connection points: 2
#     Edge 34, Type (0, 1), BuildingBlock: TEMPAE_clean_linker_10, # of connection points: 2
#     Edge 35, Type (0, 1), BuildingBlock: TEMPAE_clean_linker_10, # of connection points: 2
# Relax obj value: 0.197
# Max RMSD: 0.236
# Mean RMSD: 0.111
data_MOF--net-zzz--node1-VOLQOD_clean_sbu_1--node2-BETDAH_clean_linker_0--edge1-TEMPAE_clean_linker_10
_symmetry_space_group_name_H-M    P1
_symmetry_Int_Tables_number       1
_symmetry_cell_setting            triclinic
loop_
_symmetry_equiv_pos_as_xyz
'x, y, z'
_cell_length_a     51.902498
_cell_length_b     51.562774
_cell_length_c     17.536419
_cell_angle_alpha  90.331372
_cell_angle_beta   89.883853
_cell_angle_gamma 90.810515
loop_
_atom_site_label
_atom_site_type_symbol
_atom_site_fract_x
_atom_site_fract_y
_atom_site_fract_z
_atom_type_partial_charge
H0 H 0.83662 0.53204 0.05546 0.0
H1 H 0.7596 0.50302 0.0268 0.0
H2 H 0.78332 0.53508 0.24328 0.0
C3 C 0.81733 0.52924 0.07822 0.0
C4 C 0.81253 0.53483 0.15508 0.0
C5 C 0.79857 0.51717 0.03262 0.0
C6 C 0.77377 0.51293 0.06187 0.0
C7 C 0.76788 0.52054 0.13725 0.0
C8 C 0.78745 0.53105 0.18382 0.0
N9 N 0.74301 0.51638 0.16933 0.0
C10 C 0.72149 0.50923 0.12662 0.0
H11 H 0.01696 0.82714 0.18763 0.0
H12 H 0.00806 0.7572 0.05502 0.0
H13 H 0.96627 0.76662 0.26611 0.0
C14 C 0.00923 0.80758 0.18109 0.0
C15 C 0.99161 0.79831 0.23509 0.0
C16 C 0.01519 0.79307 0.11569 0.0
C17 C 0.00381 0.76835 0.10592 0.0
C18 C 0.98641 0.75855 0.1611 0.0
C19 C 0.98014 0.77382 0.22478 0.0
N20 N 0.97422 0.73385 0.15361 0.0
C21 C 0.97946 0.71611 0.09595 0.0
H22 H 0.67341 0.00102 0.11428 0.0
H23 H 0.74819 0.03201 0.05749 0.0
H24 H 0.73459 0.99794 0.27833 0.0
C25 C 0.69351 0.00425 0.12914 0.0
C26 C 0.70216 0.99741 0.20156 0.0
C27 C 0.70985 0.01696 0.07756 0.0
C28 C 0.73563 0.02194 0.09724 0.0
C29 C 0.74475 0.0145 0.16955 0.0
C30 C 0.72776 0.00291 0.22198 0.0
N31 N 0.77065 0.01897 0.19213 0.0
C32 C 0.79102 0.02035 0.14089 0.0
H33 H 0.50101 0.67064 0.17599 0.0
H34 H 0.50797 0.74229 0.0529 0.0
H35 H 0.55254 0.73025 0.25684 0.0
C36 C 0.50866 0.69027 0.17113 0.0
C37 C 0.52693 0.69893 0.22409 0.0
C38 C 0.50178 0.70561 0.10887 0.0
C39 C 0.51294 0.73049 0.10145 0.0
C40 C 0.531 0.73962 0.15589 0.0
C41 C 0.53822 0.72353 0.2161 0.0
N42 N 0.54283 0.76451 0.15113 0.0
C43 C 0.5354 0.78352 0.10037 0.0
H44 H 0.17293 0.5117 0.18627 0.0
H45 H 0.2492 0.52384 0.27598 0.0
H46 H 0.2376 0.47947 0.06869 0.0
C47 C 0.1936 0.50904 0.18193 0.0
C48 C 0.20336 0.49425 0.12206 0.0
C49 C 0.20999 0.52016 0.23677 0.0
C50 C 0.23659 0.51569 0.23264 0.0
C51 C 0.24667 0.50106 0.17127 0.0
C52 C 0.22994 0.49072 0.11574 0.0
N53 N 0.27339 0.49631 0.1633 0.0
C54 C 0.29136 0.50022 0.22087 0.0
H55 H 0.06533 0.16342 0.28594 0.0
H56 H 0.0418 0.24189 0.31685 0.0
H57 H 0.07576 0.21809 0.10382 0.0
C58 C 0.06455 0.18313 0.26471 0.0
C59 C 0.07172 0.18818 0.18922 0.0
C60 C 0.05298 0.20217 0.30968 0.0
C61 C 0.05122 0.22749 0.28211 0.0
C62 C 0.06061 0.23361 0.20874 0.0
C63 C 0.0705 0.21377 0.16227 0.0
N64 N 0.05867 0.25897 0.17809 0.0
C65 C 0.04961 0.28011 0.21925 0.0
H66 H 0.33626 0.02761 0.23723 0.0
H67 H 0.25737 0.01866 0.30491 0.0
H68 H 0.27667 0.0602 0.09877 0.0
C69 C 0.31608 0.03161 0.22706 0.0
C70 C 0.30889 0.04557 0.1625 0.0
C71 C 0.29764 0.02194 0.27797 0.0
C72 C 0.27147 0.02623 0.26491 0.0
C73 C 0.26381 0.04019 0.19987 0.0
C74 C 0.2826 0.04963 0.14884 0.0
N75 N 0.23749 0.04495 0.18386 0.0
C76 C 0.21741 0.03766 0.23199 0.0
H77 H 0.48849 0.32775 0.18704 0.0
H78 H 0.47235 0.25773 0.30992 0.0
H79 H 0.43555 0.27128 0.09349 0.0
C80 C 0.47914 0.30881 0.18979 0.0
C81 C 0.46204 0.30118 0.13206 0.0
C82 C 0.48282 0.29335 0.25397 0.0
C83 C 0.4698 0.26942 0.25945 0.0
C84 C 0.45306 0.26112 0.2005 0.0
C85 C 0.44885 0.27736 0.13791 0.0
N86 N 0.43987 0.23684 0.20309 0.0
C87 C 0.44643 0.21724 0.25308 0.0
O88 O 0.06966 0.99619 0.64473 0.0
Zn89 Zn 0.04463 0.99566 0.73311 0.0
O90 O 0.00897 0.0003 0.69621 0.0
Zn91 Zn 0.99468 0.03181 0.73766 0.0
Zn92 Zn 0.0083 0.00212 0.58466 0.0
Zn93 Zn 0.98701 0.97191 0.73065 0.0
O94 O 0.96225 0.02611 0.79795 0.0
O95 O 0.9556 0.9837 0.7886 0.0
O96 O 0.05574 0.02558 0.803 0.0
O97 O 0.02068 0.0498 0.80182 0.0
O98 O 0.98717 0.0571 0.65644 0.0
O99 O 0.99472 0.0366 0.54752 0.0
O100 O 0.98913 0.97123 0.53945 0.0
O101 O 0.04801 0.96134 0.78901 0.0
O102 O 0.97592 0.94979 0.64211 0.0
O103 O 0.00694 0.94864 0.79828 0.0
C104 C 0.06675 0.99857 0.57298 0.0
C105 C 0.94871 0.00596 0.81215 0.0
C106 C 0.98796 0.05686 0.58411 0.0
C107 C 0.04378 0.04602 0.82241 0.0
C108 C 0.97794 0.95168 0.57 0.0
C109 C 0.03068 0.94566 0.81329 0.0
O110 O 0.04446 0.00079 0.54374 0.0
O111 O 0.49842 0.06494 0.63808 0.0
Zn112 Zn 0.50383 0.03772 0.71869 0.0
O113 O 0.50219 0.0025 0.67375 0.0
Zn114 Zn 0.47374 0.98247 0.71785 0.0
Zn115 Zn 0.49771 0.00467 0.56342 0.0
Zn116 Zn 0.53371 0.98412 0.69456 0.0
O117 O 0.48512 0.94896 0.7652 0.0
O118 O 0.52757 0.95127 0.75254 0.0
O119 O 0.47528 0.0424 0.7966 0.0
O120 O 0.45655 0.00335 0.79893 0.0
O121 O 0.4464 0.97477 0.63965 0.0
O122 O 0.4641 0.98804 0.53116 0.0
O123 O 0.52785 0.98973 0.50571 0.0
O124 O 0.5387 0.04471 0.76868 0.0
O125 O 0.55245 0.97513 0.59891 0.0
O126 O 0.55791 0.00663 0.75384 0.0
C127 C 0.49527 0.06355 0.56613 0.0
C128 C 0.50735 0.93951 0.77575 0.0
C129 C 0.4453 0.97791 0.5678 0.0
C130 C 0.45836 0.02665 0.82283 0.0
C131 C 0.54825 0.97871 0.52843 0.0
C132 C 0.55793 0.02994 0.77774 0.0
O133 O 0.49503 0.04181 0.53144 0.0
O134 O 0.44364 0.50563 0.63604 0.0
Zn135 Zn 0.46946 0.50407 0.72159 0.0
O136 O 0.50465 0.49914 0.68096 0.0
Zn137 Zn 0.51977 0.46748 0.72026 0.0
Zn138 Zn 0.50377 0.49749 0.56956 0.0
Zn139 Zn 0.52669 0.52782 0.71263 0.0
O140 O 0.55186 0.47399 0.78375 0.0
O141 O 0.55753 0.5164 0.77068 0.0
O142 O 0.4587 0.47358 0.78812 0.0
O143 O 0.49359 0.44889 0.78312 0.0
O144 O 0.52807 0.44246 0.63599 0.0
O145 O 0.51602 0.46285 0.53117 0.0
O146 O 0.5243 0.5269 0.52242 0.0
O147 O 0.46675 0.53789 0.78121 0.0
O148 O 0.53874 0.54859 0.62354 0.0
O149 O 0.50742 0.55208 0.77969 0.0
C150 C 0.44562 0.50409 0.56377 0.0
C151 C 0.56481 0.49473 0.79654 0.0
C152 C 0.52497 0.44293 0.56408 0.0
C153 C 0.47067 0.453 0.80519 0.0
C154 C 0.53663 0.54605 0.55167 0.0
C155 C 0.48408 0.55442 0.80029 0.0
O156 O 0.4674 0.50098 0.53171 0.0
O157 O 0.97647 0.53912 0.53532 0.0
Zn158 Zn 0.00664 0.53326 0.60768 0.0
O159 O 0.00482 0.49796 0.65184 0.0
Zn160 Zn 0.99968 0.50014 0.76222 0.0
Zn161 Zn 0.97684 0.47776 0.60634 0.0
Zn162 Zn 0.03618 0.47933 0.63062 0.0
O163 O 0.0294 0.48441 0.81965 0.0
O164 O 0.05498 0.47103 0.72619 0.0
O165 O 0.00402 0.56052 0.69057 0.0
O166 O 0.99849 0.53745 0.79589 0.0
O167 O 0.96538 0.48412 0.79239 0.0
O168 O 0.95052 0.4674 0.68402 0.0
O169 O 0.98841 0.44607 0.54751 0.0
O170 O 0.04087 0.53934 0.55321 0.0
O171 O 0.03021 0.44628 0.57268 0.0
O172 O 0.05975 0.50116 0.56765 0.0
C173 C 0.95822 0.52374 0.51521 0.0
C174 C 0.05019 0.474 0.7968 0.0
C175 C 0.9479 0.47201 0.75489 0.0
C176 C 0.00059 0.55923 0.76242 0.0
C177 C 0.01052 0.43585 0.54151 0.0
C178 C 0.05976 0.5242 0.54232 0.0
O179 O 0.95725 0.50034 0.5375 0.0
C180 C 0.18204 0.04984 0.31723 0.0
C181 C 0.19655 0.03053 0.28217 0.0
C182 C 0.16141 0.0433 0.36557 0.0
C183 C 0.1553 0.01681 0.37867 0.0
C184 C 0.17019 0.99725 0.34348 0.0
C185 C 0.19075 0.0044 0.29546 0.0
C186 C 0.14602 0.06471 0.40206 0.0
C187 C 0.16424 0.96885 0.35597 0.0
C188 C 0.1146 0.00228 0.554 0.0
C189 C 0.08974 0.00067 0.52279 0.0
C190 C 0.13624 0.00682 0.50749 0.0
C191 C 0.13295 0.00973 0.4279 0.0
C192 C 0.10806 0.00719 0.39571 0.0
C193 C 0.08677 0.00272 0.44349 0.0
C194 C 0.16251 0.0094 0.54386 0.0
C195 C 0.10379 0.01004 0.311 0.0
H196 H 0.18676 0.07006 0.30655 0.0
H197 H 0.20222 0.98959 0.26799 0.0
H198 H 0.12563 0.06323 0.38341 0.0
H199 H 0.14618 0.06266 0.465 0.0
H200 H 0.15363 0.08429 0.38729 0.0
H201 H 0.178 0.95608 0.32564 0.0
H202 H 0.16482 0.96439 0.41774 0.0
H203 H 0.14446 0.96417 0.33575 0.0
H204 H 0.11713 0.00072 0.61513 0.0
H205 H 0.06769 0.00139 0.41864 0.0
H206 H 0.17005 0.02946 0.53629 0.0
H207 H 0.17626 0.99616 0.51554 0.0
H208 H 0.16203 0.00501 0.6058 0.0
H209 H 0.10892 0.03008 0.29331 0.0
H210 H 0.08349 0.00593 0.29442 0.0
H211 H 0.11649 0.99671 0.27887 0.0
C212 C 0.48017 0.19323 0.31883 0.0
C213 C 0.4541 0.19662 0.30263 0.0
C214 C 0.48813 0.17249 0.36417 0.0
C215 C 0.46944 0.15491 0.39358 0.0
C216 C 0.44296 0.15867 0.3781 0.0
C217 C 0.4356 0.17957 0.33249 0.0
C218 C 0.5165 0.16907 0.37921 0.0
C219 C 0.42248 0.14036 0.40847 0.0
C220 C 0.48878 0.08632 0.44219 0.0
C221 C 0.49042 0.08745 0.52204 0.0
C222 C 0.48247 0.10827 0.39969 0.0
C223 C 0.47759 0.13195 0.43787 0.0
C224 C 0.47974 0.13343 0.51824 0.0
C225 C 0.48621 0.11116 0.5594 0.0
C226 C 0.4805 0.10597 0.31396 0.0
C227 C 0.47461 0.15836 0.56086 0.0
H228 H 0.49435 0.20661 0.29521 0.0
H229 H 0.41542 0.1824 0.31941 0.0
H230 H 0.5201 0.1682 0.44147 0.0
H231 H 0.52292 0.15043 0.35419 0.0
H232 H 0.52844 0.18503 0.35476 0.0
H233 H 0.40272 0.14666 0.39399 0.0
H234 H 0.42536 0.12064 0.38453 0.0
H235 H 0.42407 0.13888 0.47138 0.0
H236 H 0.49211 0.06814 0.41267 0.0
H237 H 0.48738 0.11224 0.62104 0.0
H238 H 0.49314 0.12071 0.28637 0.0
H239 H 0.46046 0.10979 0.29571 0.0
H240 H 0.48598 0.08646 0.29276 0.0
H241 H 0.48705 0.17423 0.53834 0.0
H242 H 0.4781 0.15657 0.62308 0.0
H243 H 0.45432 0.16411 0.55204 0.0
C244 C 0.32076 0.47965 0.3103 0.0
C245 C 0.31146 0.50219 0.27705 0.0
C246 C 0.34181 0.48074 0.36026 0.0
C247 C 0.35372 0.50501 0.37686 0.0
C248 C 0.34382 0.52796 0.34461 0.0
C249 C 0.32272 0.52624 0.29468 0.0
C250 C 0.35179 0.45586 0.39341 0.0
C251 C 0.35597 0.55416 0.36109 0.0
C252 C 0.39775 0.50838 0.54962 0.0
C253 C 0.42212 0.50542 0.51597 0.0
C254 C 0.37533 0.50877 0.50497 0.0
C255 C 0.37731 0.50612 0.42482 0.0
C256 C 0.40183 0.50355 0.39039 0.0
C257 C 0.42392 0.50324 0.43631 0.0
C258 C 0.34949 0.51159 0.54364 0.0
C259 C 0.40473 0.50065 0.30504 0.0
H260 H 0.3119 0.46108 0.2959 0.0
H261 H 0.31538 0.5436 0.26826 0.0
H262 H 0.37168 0.45248 0.37262 0.0
H263 H 0.35269 0.45735 0.45648 0.0
H264 H 0.33957 0.43879 0.37779 0.0
H265 H 0.34501 0.57023 0.33523 0.0
H266 H 0.35719 0.55748 0.42354 0.0
H267 H 0.37593 0.55477 0.33836 0.0
H268 H 0.39612 0.51014 0.61105 0.0
H269 H 0.44261 0.501 0.40962 0.0
H270 H 0.33749 0.49396 0.53313 0.0
H271 H 0.33906 0.52824 0.5193 0.0
H272 H 0.35132 0.51454 0.60621 0.0
H273 H 0.39463 0.48271 0.28546 0.0
H274 H 0.42523 0.49969 0.287 0.0
H275 H 0.39565 0.51719 0.27576 0.0
C276 C 0.02598 0.29889 0.32771 0.0
C277 C 0.0411 0.30229 0.26237 0.0
C278 C 0.0191 0.32023 0.37306 0.0
C279 C 0.02735 0.34546 0.35162 0.0
C280 C 0.04191 0.34896 0.2839 0.0
C281 C 0.04875 0.32721 0.24018 0.0
C282 C 0.00375 0.31569 0.4451 0.0
C283 C 0.05084 0.37556 0.25876 0.0
C284 C 0.99544 0.40424 0.44127 0.0
C285 C 0.01385 0.41192 0.49564 0.0
C286 C 0.99945 0.38252 0.39413 0.0
C287 C 0.02221 0.368 0.40245 0.0
C288 C 0.04051 0.37527 0.45863 0.0
C289 C 0.03619 0.39721 0.50413 0.0
C290 C 0.97964 0.37548 0.33428 0.0
C291 C 0.06485 0.36005 0.47008 0.0
H292 H 0.01986 0.27956 0.34423 0.0
H293 H 0.0604 0.32966 0.18924 0.0
H294 H 0.01546 0.32154 0.49536 0.0
H295 H 0.98627 0.32782 0.44537 0.0
H296 H 0.99777 0.29505 0.4517 0.0
H297 H 0.06039 0.37514 0.20202 0.0
H298 H 0.03426 0.38888 0.25615 0.0
H299 H 0.06465 0.38377 0.30098 0.0
H300 H 0.9782 0.41559 0.43413 0.0
H301 H 0.05043 0.4029 0.54641 0.0
H302 H 0.97297 0.35512 0.34175 0.0
H303 H 0.98848 0.37686 0.27675 0.0
H304 H 0.96265 0.38833 0.33649 0.0
H305 H 0.05998 0.33938 0.48115 0.0
H306 H 0.07662 0.36767 0.51831 0.0
H307 H 0.07675 0.3607 0.41749 0.0
C308 C 0.81019 0.01966 0.01247 0.0
C309 C 0.8132 0.0199 0.09161 0.0
C310 C 0.83174 0.01786 0.96426 0.0
C311 C 0.85667 0.01616 0.99657 0.0
C312 C 0.85964 0.01664 0.07686 0.0
C313 C 0.83776 0.01852 0.12353 0.0
C314 C 0.82784 0.01748 0.87898 0.0
C315 C 0.88586 0.01484 0.11343 0.0
C316 C 0.91078 0.98643 0.88081 0.0
C317 C 0.9247 0.00852 0.85741 0.0
C318 C 0.88841 0.98865 0.92533 0.0
C319 C 0.87968 0.01355 0.94667 0.0
C320 C 0.89339 0.03593 0.92233 0.0
C321 C 0.91576 0.03316 0.87817 0.0
C322 C 0.87433 0.96433 0.95054 0.0
C323 C 0.8846 0.06282 0.94373 0.0
H324 H 0.791 0.02059 0.98836 0.0
H325 H 0.83983 0.01859 0.18507 0.0
H326 H 0.8392 0.0334 0.85227 0.0
H327 H 0.83494 0.99898 0.85475 0.0
H328 H 0.80728 0.01959 0.86304 0.0
H329 H 0.88486 0.01585 0.17667 0.0
H330 H 0.89501 0.99633 0.09671 0.0
H331 H 0.89859 0.03082 0.09295 0.0
H332 H 0.91752 0.96732 0.86514 0.0
H333 H 0.92628 0.05036 0.86013 0.0
H334 H 0.85395 0.96482 0.93179 0.0
H335 H 0.87426 0.96327 0.01371 0.0
H336 H 0.88324 0.94646 0.92744 0.0
H337 H 0.86443 0.06558 0.92497 0.0
H338 H 0.89692 0.07825 0.91802 0.0
H339 H 0.88494 0.06521 0.00664 0.0
C340 C 0.52732 0.82963 0.082 0.0
C341 C 0.52875 0.80464 0.05146 0.0
C342 C 0.52234 0.85085 0.03496 0.0
C343 C 0.51877 0.84676 0.9557 0.0
C344 C 0.51966 0.82129 0.92507 0.0
C345 C 0.52471 0.80041 0.97363 0.0
C346 C 0.52157 0.8777 0.06974 0.0
C347 C 0.51592 0.81621 0.84093 0.0
C348 C 0.48817 0.90178 0.84684 0.0
C349 C 0.50996 0.91482 0.81774 0.0
C350 C 0.49067 0.87914 0.89015 0.0
C351 C 0.51551 0.86937 0.90473 0.0
C352 C 0.5375 0.88205 0.87396 0.0
C353 C 0.53446 0.90458 0.83083 0.0
C354 C 0.46679 0.86605 0.92195 0.0
C355 C 0.56433 0.87221 0.88832 0.0
H356 H 0.53052 0.83263 0.14255 0.0
H357 H 0.5259 0.78088 0.95067 0.0
H358 H 0.53741 0.88985 0.04583 0.0
H359 H 0.50318 0.88717 0.05523 0.0
H360 H 0.52356 0.87738 0.13279 0.0
H361 H 0.51567 0.79516 0.82701 0.0
H362 H 0.49759 0.82473 0.82143 0.0
H363 H 0.53173 0.8257 0.80824 0.0
H364 H 0.46916 0.90947 0.83685 0.0
H365 H 0.55142 0.91442 0.80841 0.0
H366 H 0.46711 0.86709 0.98515 0.0
H367 H 0.46636 0.84522 0.90576 0.0
H368 H 0.44882 0.87515 0.90151 0.0
H369 H 0.56864 0.87322 0.95022 0.0
H370 H 0.57931 0.88358 0.85725 0.0
H371 H 0.56565 0.85157 0.87066 0.0
C372 C 0.6747 0.51115 0.10856 0.0
C373 C 0.6988 0.50329 0.08229 0.0
C374 C 0.65261 0.50739 0.06361 0.0
C375 C 0.65492 0.49571 0.9906 0.0
C376 C 0.67925 0.48702 0.96507 0.0
C377 C 0.70097 0.49086 0.01157 0.0
C378 C 0.627 0.51676 0.09303 0.0
C379 C 0.68251 0.47464 0.88749 0.0
C380 C 0.59383 0.47268 0.88973 0.0
C381 C 0.58846 0.49408 0.84362 0.0
C382 C 0.61553 0.47277 0.93759 0.0
C383 C 0.63234 0.49465 0.93858 0.0
C384 C 0.62733 0.51601 0.89082 0.0
C385 C 0.60543 0.51551 0.84428 0.0
C386 C 0.62019 0.44974 0.98822 0.0
C387 C 0.64495 0.53959 0.88955 0.0
H388 H 0.67322 0.52073 0.1636 0.0
H389 H 0.71968 0.48464 0.99176 0.0
H390 H 0.62038 0.53314 0.05764 0.0
H391 H 0.61221 0.50108 0.08851 0.0
H392 H 0.62809 0.52339 0.15334 0.0
H393 H 0.7023 0.46726 0.87851 0.0
H394 H 0.66857 0.45832 0.88008 0.0
H395 H 0.67841 0.48905 0.84254 0.0
H396 H 0.58076 0.45609 0.88975 0.0
H397 H 0.60157 0.53206 0.80842 0.0
H398 H 0.61941 0.45586 0.04893 0.0
H399 H 0.63971 0.44198 0.97767 0.0
H400 H 0.60577 0.43391 0.97896 0.0
H401 H 0.64533 0.54891 0.94672 0.0
H402 H 0.63881 0.55417 0.84715 0.0
H403 H 0.66494 0.53375 0.8759 0.0
C404 C 0.00827 0.68618 0.02871 0.0
C405 C 0.98361 0.69603 0.04009 0.0
C406 C 0.0121 0.66494 0.97968 0.0
C407 C 0.99068 0.65341 0.94181 0.0
C408 C 0.96582 0.66395 0.95179 0.0
C409 C 0.96259 0.68519 0.00112 0.0
C410 C 0.03887 0.65428 0.97045 0.0
C411 C 0.94252 0.65224 0.91251 0.0
C412 C 0.00135 0.60785 0.77363 0.0
C413 C 0.99866 0.58345 0.80818 0.0
C414 C 0.99907 0.63082 0.81648 0.0
C415 C 0.99394 0.62937 0.89566 0.0
C416 C 0.9914 0.60485 0.93094 0.0
C417 C 0.99381 0.58223 0.88688 0.0
C418 C 0.00193 0.65664 0.77696 0.0
C419 C 0.98586 0.60248 0.01526 0.0
H420 H 0.02442 0.6947 0.05951 0.0
H421 H 0.94353 0.69294 0.01065 0.0
H422 H 0.03952 0.63443 0.9944 0.0
H423 H 0.04394 0.65277 0.90911 0.0
H424 H 0.05367 0.66652 -0.00038 0.0
H425 H 0.92487 0.66372 0.92254 0.0
H426 H 0.94596 0.65084 0.85017 0.0
H427 H 0.93904 0.63225 0.93362 0.0
H428 H 0.00513 0.60904 0.71295 0.0
H429 H 0.99169 0.56353 0.91426 0.0
H430 H 0.01747 0.66837 0.80436 0.0
H431 H 0.98385 0.6677 0.78278 0.0
H432 H 0.00648 0.65446 0.71534 0.0
H433 H 0.00107 0.61274 0.04856 0.0
H434 H 0.98483 0.58196 0.03418 0.0
H435 H 0.96729 0.61182 0.02907 0.0
C436 C 0.05023 0.1788 0.43225 0.0
C437 C 0.03793 0.19318 0.37599 0.0
C438 C 0.03645 0.16032 0.47474 0.0
C439 C 0.00988 0.15619 0.45978 0.0
C440 C 0.99679 0.17317 0.41057 0.0
C441 C 0.01105 0.19164 0.36915 0.0
C442 C 0.05103 0.14309 0.52845 0.0
C443 C 0.9684 0.16983 0.39444 0.0
C444 C 0.99491 0.08447 0.46904 0.0
C445 C 0.98618 0.08205 0.54435 0.0
C446 C 0.00068 0.10894 0.43839 0.0
C447 C 0.99752 0.13145 0.48419 0.0
C448 C 0.986 0.12931 0.55696 0.0
C449 C 0.98041 0.1046 0.58617 0.0
C450 C 0.01242 0.11047 0.35957 0.0
C451 C 0.98182 0.1528 0.60698 0.0
H452 H 0.07104 0.18003 0.43714 0.0
H453 H 0.00159 0.20269 0.32513 0.0
H454 H 0.04018 0.14036 0.58242 0.0
H455 H 0.05341 0.1237 0.50173 0.0
H456 H 0.07045 0.15117 0.54204 0.0
H457 H 0.96009 0.18785 0.37104 0.0
H458 H 0.96558 0.15409 0.3517 0.0
H459 H 0.95761 0.16427 0.44665 0.0
H460 H 0.99917 0.06723 0.43595 0.0
H461 H 0.97323 0.10299 0.64408 0.0
H462 H 0.0331 0.11604 0.3642 0.0
H463 H 0.00283 0.12557 0.32538 0.0
H464 H 0.01095 0.0917 0.32837 0.0
H465 H 1.0002 0.15816 0.63563 0.0
H466 H 0.96714 0.14886 0.65179 0.0
H467 H 0.9757 0.1697 0.573 0.0
C468 C 0.31753 0.0218 0.40503 0.0
C469 C 0.30705 0.00758 0.34422 0.0
C470 C 0.33649 0.01106 0.45145 0.0
C471 C 0.34497 0.98553 0.43622 0.0
C472 C 0.33181 0.97 0.3816 0.0
C473 C 0.31307 0.98136 0.3354 0.0
C474 C 0.34979 0.02825 0.50967 0.0
C475 C 0.33961 0.94243 0.3656 0.0
C476 C 0.41732 0.98255 0.45334 0.0
C477 C 0.4203 0.97387 0.52837 0.0
C478 C 0.39283 0.98482 0.42096 0.0
C479 C 0.37073 0.97779 0.4642 0.0
C480 C 0.37371 0.96658 0.537 0.0
C481 C 0.3985 0.96492 0.56857 0.0
C482 C 0.39057 0.99675 0.3427 0.0
C483 C 0.35074 0.95806 0.58389 0.0
H484 H 0.31299 0.04218 0.4109 0.0
H485 H 0.30506 0.97051 0.28764 0.0
H486 H 0.35284 0.01764 0.56361 0.0
H487 H 0.369 0.03428 0.48754 0.0
H488 H 0.3386 0.04599 0.52228 0.0
H489 H 0.32389 0.93126 0.33694 0.0
H490 H 0.35669 0.94249 0.32744 0.0
H491 H 0.34495 0.93239 0.41896 0.0
H492 H 0.43401 0.98925 0.4214 0.0
H493 H 0.40058 0.95784 0.62629 0.0
H494 H 0.38109 0.01587 0.34744 0.0
H495 H 0.37843 0.98428 0.30517 0.0
H496 H 0.40962 0.99967 0.31483 0.0
H497 H 0.34253 0.97516 0.61333 0.0
H498 H 0.35624 0.94379 0.628 0.0
H499 H 0.33543 0.94934 0.54742 0.0
C500 C 0.48372 0.31231 0.38367 0.0
C501 C 0.4973 0.30482 0.3184 0.0
C502 C 0.49353 0.33186 0.43181 0.0
C503 C 0.5176 0.34377 0.41433 0.0
C504 C 0.53286 0.33367 0.35451 0.0
C505 C 0.52236 0.31444 0.30646 0.0
C506 C 0.47668 0.34193 0.49536 0.0
C507 C 0.55903 0.3451 0.33591 0.0
C508 C 0.51713 0.41629 0.44702 0.0
C509 C 0.52794 0.41854 0.51997 0.0
C510 C 0.51477 0.39212 0.41067 0.0
C511 C 0.52393 0.36967 0.4475 0.0
C512 C 0.53681 0.37208 0.51821 0.0
C513 C 0.53846 0.39648 0.55405 0.0
C514 C 0.50091 0.39045 0.33499 0.0
C515 C 0.54757 0.34876 0.55814 0.0
H516 H 0.46426 0.30495 0.39242 0.0
H517 H 0.53284 0.30854 0.25581 0.0
H518 H 0.48806 0.34516 0.54806 0.0
H519 H 0.46861 0.36088 0.47847 0.0
H520 H 0.46041 0.32841 0.50826 0.0
H521 H 0.57065 0.33154 0.30092 0.0
H522 H 0.55662 0.36323 0.30307 0.0
H523 H 0.56981 0.35007 0.3887 0.0
H524 H 0.50904 0.43318 0.42003 0.0
H525 H 0.5471 0.39806 0.61015 0.0
H526 H 0.48292 0.37876 0.34138 0.0
H527 H 0.51307 0.38057 0.29198 0.0
H528 H 0.49582 0.40984 0.31274 0.0
H529 H 0.53169 0.33805 0.58703 0.0
H530 H 0.56203 0.3545 0.60194 0.0
H531 H 0.55664 0.33528 0.51686 0.0
C532 C 0.19712 0.52375 0.37257 0.0
C533 C 0.19786 0.53467 0.29978 0.0
C534 C 0.17687 0.52952 0.42286 0.0
C535 C 0.15705 0.5462 0.39861 0.0
C536 C 0.16021 0.56041 0.33042 0.0
C537 C 0.18076 0.55451 0.28173 0.0
C538 C 0.17476 0.51487 0.49683 0.0
C539 C 0.13988 0.57877 0.30304 0.0
C540 C 0.09104 0.51754 0.43859 0.0
C541 C 0.08251 0.53288 0.49921 0.0
C542 C 0.1148 0.52254 0.40359 0.0
C543 C 0.1308 0.54298 0.43157 0.0
C544 C 0.12188 0.55912 0.49144 0.0
C545 C 0.0976 0.55396 0.52439 0.0
C546 C 0.12312 0.50523 0.33836 0.0
C547 C 0.13843 0.5808 0.52373 0.0
H548 H 0.21045 0.50851 0.38668 0.0
H549 H 0.18158 0.56312 0.22545 0.0
H550 H 0.16684 0.52737 0.54267 0.0
H551 H 0.16141 0.49805 0.48915 0.0
H552 H 0.19375 0.50746 0.5152 0.0
H553 H 0.1477 0.59239 0.25966 0.0
H554 H 0.12388 0.56739 0.27661 0.0
H555 H 0.13174 0.5901 0.35109 0.0
H556 H 0.07927 0.50119 0.41968 0.0
H557 H 0.09107 0.56548 0.57241 0.0
H558 H 0.14024 0.49401 0.35541 0.0
H559 H 0.12868 0.51711 0.28823 0.0
H560 H 0.1077 0.49131 0.32065 0.0
H561 H 0.1527 0.57252 0.56346 0.0
H562 H 0.12675 0.59509 0.55588 0.0
H563 H 0.14929 0.59108 0.47821 0.0
C564 C 0.05122 0.82207 0.07302 0.0
C565 C 0.02994 0.80621 0.05413 0.0
C566 C 0.05865 0.8428 0.02609 0.0
C567 C 0.04468 0.84733 0.95844 0.0
C568 C 0.02627 0.82867 0.93302 0.0
C569 C 0.01895 0.80831 0.9816 0.0
C570 C 0.07884 0.86181 0.05453 0.0
C571 C 0.01172 0.8322 0.85951 0.0
C572 C 0.02225 0.91531 0.91916 0.0
C573 C 0.03769 0.9226 0.85727 0.0
C574 C 0.02541 0.89139 0.9548 0.0
C575 C 0.04409 0.87396 0.92646 0.0
C576 C 0.06055 0.88168 0.86591 0.0
C577 C 0.05727 0.90614 0.83224 0.0
C578 C 0.00787 0.88434 0.0207 0.0
C579 C 0.08047 0.86367 0.83344 0.0
H580 H 0.06019 0.82005 0.12844 0.0
H581 H 0.00268 0.79594 0.96621 0.0
H582 H 0.09065 0.86955 0.00682 0.0
H583 H 0.06916 0.87843 0.08244 0.0
H584 H 0.09176 0.8528 0.09696 0.0
H585 H 0.00234 0.81381 0.8402 0.0
H586 H 0.99651 0.84685 0.86829 0.0
H587 H 0.02476 0.83937 0.81383 0.0
H588 H 0.00717 0.92815 0.93847 0.0
H589 H 0.06897 0.9117 0.78356 0.0
H590 H 0.01937 0.87789 0.07018 0.0
H591 H 0.99491 0.868 0.00383 0.0
H592 H 0.99579 0.90084 0.03925 0.0
H593 H 0.09563 0.87446 0.80137 0.0
H594 H 0.07091 0.84982 0.79355 0.0
H595 H 0.08974 0.85219 0.87882 0.0
C596 C 0.68874 0.00868 0.95383 0.0
C597 C 0.69814 0.02669 0.00716 0.0
C598 C 0.66836 0.01495 0.9054 0.0
C599 C 0.65712 0.03978 0.91128 0.0
C600 C 0.66876 0.05903 0.95825 0.0
C601 C 0.68922 0.05219 0.00609 0.0
C602 C 0.65684 0.99394 0.85518 0.0
C603 C 0.65777 0.08587 0.96478 0.0
C604 C 0.60199 0.04888 0.77289 0.0
C605 C 0.58126 0.03941 0.81624 0.0
C606 C 0.62675 0.05122 0.80473 0.0
C607 C 0.63068 0.04343 0.88104 0.0
C608 C 0.60928 0.03558 0.92633 0.0
C609 C 0.5848 0.03358 0.8931 0.0
C610 C 0.64889 0.06001 0.75489 0.0
C611 C 0.61256 0.02718 0.00813 0.0
H612 H 0.69555 0.9889 0.95553 0.0
H613 H 0.69635 0.066 0.04819 0.0
H614 H 0.63853 0.98679 0.8809 0.0
H615 H 0.65231 0.00163 0.7979 0.0
H616 H 0.66996 0.97724 0.84845 0.0
H617 H 0.67206 0.09991 0.98885 0.0
H618 H 0.6513 0.09293 0.90843 0.0
H619 H 0.64075 0.08531 0.00316 0.0
H620 H 0.59917 0.05292 0.71288 0.0
H621 H 0.56872 0.02584 0.92583 0.0
H622 H 0.6594 0.0428 0.73385 0.0
H623 H 0.66274 0.07234 0.78741 0.0
H624 H 0.64206 0.07099 0.70467 0.0
H625 H 0.62358 0.0089 0.00977 0.0
H626 H 0.59378 0.02385 0.03723 0.0
H627 H 0.62369 0.04203 0.04073 0.0
C628 C 0.46513 0.67722 0.06724 0.0
C629 C 0.48617 0.69325 0.04758 0.0
C630 C 0.45732 0.65674 0.01932 0.0
C631 C 0.47062 0.65269 0.94991 0.0
C632 C 0.48854 0.67168 0.92402 0.0
C633 C 0.4963 0.69177 0.97363 0.0
C634 C 0.43764 0.63737 0.04837 0.0
C635 C 0.50224 0.66874 0.8486 0.0
C636 C 0.49364 0.58511 0.90525 0.0
C637 C 0.47747 0.57753 0.84533 0.0
C638 C 0.49063 0.60903 0.9419 0.0
C639 C 0.47135 0.62616 0.91641 0.0
C640 C 0.45427 0.61818 0.85761 0.0
C641 C 0.45741 0.59372 0.82301 0.0
C642 C 0.50886 0.61634 0.00592 0.0
C643 C 0.43376 0.63591 0.82791 0.0
H644 H 0.45682 0.67879 0.12384 0.0
H645 H 0.51234 0.70432 0.95764 0.0
H646 H 0.42539 0.62977 0.00133 0.0
H647 H 0.44778 0.62072 0.07386 0.0
H648 H 0.4251 0.64603 0.09288 0.0
H649 H 0.51103 0.68738 0.82958 0.0
H650 H 0.51782 0.65436 0.8545 0.0
H651 H 0.48878 0.66151 0.80398 0.0
H652 H 0.50913 0.57249 0.9223 0.0
H653 H 0.44516 0.58792 0.7757 0.0
H654 H 0.49788 0.6226 0.057 0.0
H655 H 0.52137 0.63287 0.98815 0.0
H656 H 0.52142 0.60003 0.02239 0.0
H657 H 0.42503 0.64751 0.87447 0.0
H658 H 0.41827 0.62486 0.79786 0.0
H659 H 0.44265 0.64966 0.78677 0.0
C660 C 0.81082 0.47769 0.96213 0.0
C661 C 0.80753 0.50461 0.96188 0.0
C662 C 0.82991 0.46627 0.91673 0.0
C663 C 0.84574 0.4823 0.87051 0.0
C664 C 0.83961 0.5088 0.86142 0.0
C665 C 0.82051 0.51969 0.90758 0.0
C666 C 0.83525 0.43779 0.92604 0.0
C667 C 0.85552 0.52645 0.81095 0.0
C668 C 0.91797 0.47505 0.86624 0.0
C669 C 0.92218 0.46788 0.79008 0.0
C670 C 0.89292 0.47788 0.89477 0.0
C671 C 0.87156 0.47335 0.84592 0.0
C672 C 0.8756 0.46363 0.77142 0.0
C673 C 0.9009 0.46097 0.74433 0.0
C674 C 0.88944 0.48781 0.97538 0.0
C675 C 0.85342 0.45813 0.71792 0.0
H676 H 0.80077 0.46604 0.00438 0.0
H677 H 0.81786 0.54052 0.9076 0.0
H678 H 0.84143 0.42893 0.87132 0.0
H679 H 0.85108 0.43543 0.96775 0.0
H680 H 0.81802 0.42709 0.94762 0.0
H681 H 0.84585 0.54519 0.80077 0.0
H682 H 0.87437 0.53056 0.83863 0.0
H683 H 0.85939 0.51702 0.75518 0.0
H684 H 0.93424 0.48008 0.90234 0.0
H685 H 0.90386 0.45516 0.6855 0.0
H686 H 0.87517 0.47561 0.00645 0.0
H687 H 0.88191 0.50785 0.97404 0.0
H688 H 0.90778 0.48809 0.00796 0.0
H689 H 0.83637 0.45028 0.74882 0.0
H690 H 0.85891 0.44418 0.67237 0.0
H691 H 0.84771 0.47645 0.6902 0.0
C692 C 0.0587 0.14442 0.14151 0.0
C693 C 0.07552 0.16592 0.13636 0.0
C694 C 0.05987 0.12391 0.08949 0.0
C695 C 0.07806 0.12495 0.02941 0.0
C696 C 0.09595 0.14594 0.0255 0.0
C697 C 0.09436 0.16636 0.07893 0.0
C698 C 0.04026 0.10205 0.09586 0.0
C699 C 0.11584 0.14749 0.96283 0.0
C700 C 0.07634 0.06161 0.91916 0.0
C701 C 0.0567 0.06681 0.86698 0.0
C702 C 0.0856 0.08121 0.96864 0.0
C703 C 0.07492 0.10634 0.9651 0.0
C704 C 0.05686 0.1121 0.90759 0.0
C705 C 0.04796 0.09227 0.85948 0.0
C706 C 0.10526 0.07452 0.02833 0.0
C707 C 0.04504 0.13863 0.90119 0.0
H708 H 0.04361 0.14411 0.18434 0.0
H709 H 0.1075 0.18282 0.07495 0.0
H710 H 0.0264 0.10312 0.0479 0.0
H711 H 0.04983 0.08299 0.0921 0.0
H712 H 0.02924 0.10284 0.15021 0.0
H713 H 0.13164 0.16143 0.9772 0.0
H714 H 0.12421 0.12818 0.95133 0.0
H715 H 0.10656 0.15405 0.90952 0.0
H716 H 0.08342 0.04202 0.92429 0.0
H717 H 0.0333 0.09657 0.8176 0.0
H718 H 0.09538 0.07141 0.08378 0.0
H719 H 0.11944 0.09062 0.03614 0.0
H720 H 0.11571 0.05654 0.01326 0.0
H721 H 0.03188 0.14186 0.9502 0.0
H722 H 0.03384 0.14077 0.84772 0.0
H723 H 0.06016 0.15402 0.90312 0.0
C724 C 0.32688 0.04783 0.03025 0.0
C725 C 0.32924 0.05384 0.10793 0.0
C726 C 0.34841 0.0491 0.98179 0.0
C727 C 0.37279 0.05631 0.01217 0.0
C728 C 0.37464 0.06501 0.0886 0.0
C729 C 0.35277 0.06385 0.13545 0.0
C730 C 0.34555 0.04025 0.90002 0.0
C731 C 0.40018 0.07296 0.1233 0.0
C732 C 0.42756 0.01782 0.92828 0.0
C733 C 0.43893 0.03566 0.87813 0.0
C734 C 0.40667 0.02475 0.97425 0.0
C735 C 0.39657 0.05005 0.96892 0.0
C736 C 0.40856 0.0685 0.92046 0.0
C737 C 0.42981 0.06112 0.87588 0.0
C738 C 0.39486 0.00464 0.02664 0.0
C739 C 0.39821 0.09557 0.91293 0.0
H740 H 0.30875 0.04016 0.0086 0.0
H741 H 0.35451 0.06908 0.19522 0.0
H742 H 0.35656 0.05323 0.86123 0.0
H743 H 0.35345 0.02047 0.89369 0.0
H744 H 0.32505 0.03968 0.88182 0.0
H745 H 0.39765 0.08377 0.17773 0.0
H746 H 0.4115 0.05534 0.13517 0.0
H747 H 0.41161 0.08516 0.08342 0.0
H748 H 0.43472 0.99819 0.9305 0.0
H749 H 0.43846 0.07488 0.83657 0.0
H750 H 0.3749 0.99995 0.00805 0.0
H751 H 0.39377 0.01237 0.08574 0.0
H752 H 0.406 0.98641 0.02735 0.0
H753 H 0.37945 0.0947 0.8827 0.0
H754 H 0.41154 0.10848 0.88057 0.0
H755 H 0.39468 0.10428 0.96991 0.0
C756 C 0.47847 0.33079 0.03158 0.0
C757 C 0.45737 0.31936 0.0689 0.0
C758 C 0.47528 0.35204 0.98354 0.0
C759 C 0.45029 0.36201 0.9722 0.0
C760 C 0.42866 0.3494 0.00548 0.0
C761 C 0.43247 0.32814 0.05383 0.0
C762 C 0.49889 0.36471 0.9485 0.0
C763 C 0.40173 0.35924 0.99367 0.0
C764 C 0.45607 0.43322 0.92645 0.0
C765 C 0.45766 0.43211 0.84702 0.0
C766 C 0.45104 0.41062 0.96852 0.0
C767 C 0.44759 0.38662 0.92961 0.0
C768 C 0.44664 0.38608 0.84902 0.0
C769 C 0.45201 0.40888 0.80857 0.0
C770 C 0.45216 0.41201 0.05445 0.0
C771 C 0.44259 0.36104 0.80539 0.0
H772 H 0.49769 0.32381 0.04296 0.0
H773 H 0.41617 0.31938 0.08322 0.0
H774 H 0.49658 0.36624 0.88584 0.0
H775 H 0.50135 0.38468 0.97151 0.0
H776 H 0.51674 0.35379 0.96027 0.0
H777 H 0.38686 0.34491 0.01235 0.0
H778 H 0.39918 0.37736 0.02705 0.0
H779 H 0.39845 0.36391 0.93281 0.0
H780 H 0.46079 0.45124 0.95575 0.0
H781 H 0.45348 0.40818 0.74687 0.0
H782 H 0.47053 0.40359 0.07427 0.0
H783 H 0.43618 0.4005 0.0801 0.0
H784 H 0.45114 0.43229 0.07586 0.0
H785 H 0.46072 0.34989 0.80553 0.0
H786 H 0.43712 0.36459 0.74517 0.0
H787 H 0.42743 0.34883 0.83262 0.0
C788 C 0.16864 0.4627 0.08899 0.0
C789 C 0.18505 0.48307 0.06672 0.0
C790 C 0.14692 0.45595 0.04539 0.0
C791 C 0.14132 0.47044 0.97932 0.0
C792 C 0.15876 0.49007 0.95446 0.0
C793 C 0.18056 0.49608 -0.00147 0.0
C794 C 0.12911 0.43456 0.07287 0.0
C795 C 0.15338 0.50608 0.88457 0.0
C796 C 0.09123 0.45229 0.8311 0.0
C797 C 0.07096 0.46866 0.85177 0.0
C798 C 0.11368 0.45119 0.87526 0.0
C799 C 0.11605 0.46723 0.9406 0.0
C800 C 0.09497 0.48244 0.96457 0.0
C801 C 0.07254 0.48277 0.92017 0.0
C802 C 0.13543 0.4341 0.84935 0.0
C803 C 0.09678 0.49988 0.03393 0.0
H804 H 0.17211 0.45295 0.14257 0.0
H805 H 0.19314 0.51213 0.98252 0.0
H806 H 0.11166 0.44316 0.09873 0.0
H807 H 0.12272 0.42206 0.02459 0.0
H808 H 0.13845 0.42227 0.11639 0.0
H809 H 0.16974 0.51928 0.86999 0.0
H810 H 0.14931 0.4933 0.83483 0.0
H811 H 0.13601 0.51795 0.89463 0.0
H812 H 0.08998 0.44111 0.77865 0.0
H813 H 0.05697 0.49549 0.93635 0.0
H814 H 0.14355 0.42342 0.8983 0.0
H815 H 0.15115 0.4463 0.82506 0.0
H816 H 0.12909 0.41988 0.80516 0.0
H817 H 0.10329 0.48879 0.08416 0.0
H818 H 0.07808 0.509 0.04798 0.0
H819 H 0.11129 0.51549 0.02353 0.0
C820 C 0.00324 0.82668 0.34483 0.0
C821 C 0.9841 0.81572 0.2982 0.0
C822 C 0.9978 0.84752 0.39346 0.0
C823 C 0.97263 0.8578 0.3947 0.0
C824 C 0.95281 0.84572 0.35126 0.0
C825 C 0.9588 0.82468 0.30343 0.0
C826 C 0.01941 0.85957 0.43977 0.0
C827 C 0.92577 0.85608 0.35121 0.0
C828 C 0.96292 0.90554 0.55646 0.0
C829 C 0.97076 0.92892 0.52205 0.0
C830 C 0.96157 0.88233 0.51441 0.0
C831 C 0.96806 0.88255 0.43609 0.0
C832 C 0.97372 0.90641 0.39962 0.0
C833 C 0.97504 0.92932 0.44307 0.0
C834 C 0.95527 0.85734 0.55526 0.0
C835 C 0.98036 0.9075 0.31579 0.0
H836 H 0.02281 0.81969 0.34042 0.0
H837 H 0.9441 0.81634 0.2665 0.0
H838 H 0.024 0.87924 0.41775 0.0
H839 H 0.01347 0.86175 0.50024 0.0
H840 H 0.03721 0.84787 0.4375 0.0
H841 H 0.91186 0.84222 0.32449 0.0
H842 H 0.91926 0.86044 0.41013 0.0
H843 H 0.92544 0.87448 0.31877 0.0
H844 H 0.95931 0.90499 0.61733 0.0
H845 H 0.98081 0.94729 0.41572 0.0
H846 H 0.97322 0.84626 0.56349 0.0
H847 H 0.94192 0.84502 0.52094 0.0
H848 H 0.94646 0.86087 0.6121 0.0
H849 H 0.99946 0.89862 0.30619 0.0
H850 H 0.98112 0.92771 0.2942 0.0
H851 H 0.96604 0.89622 0.28183 0.0
C852 C 0.66703 0.96619 0.23632 0.0
C853 C 0.68329 0.987 0.25695 0.0
C854 C 0.6454 0.95971 0.28064 0.0
C855 C 0.63975 0.97477 0.34607 0.0
C856 C 0.65708 0.99473 0.36975 0.0
C857 C 0.6788 0.00048 0.32501 0.0
C858 C 0.62776 0.93789 0.25468 0.0
C859 C 0.65167 0.0113 0.4391 0.0
C860 C 0.57084 0.987 0.40514 0.0
C861 C 0.56928 0.97334 0.47388 0.0
C862 C 0.59334 0.98657 0.36081 0.0
C863 C 0.61454 0.97175 0.38527 0.0
C864 C 0.61225 0.9562 0.45113 0.0
C865 C 0.58969 0.95735 0.49509 0.0
C866 C 0.59506 0.00346 0.29082 0.0
C867 C 0.63416 0.93958 0.47771 0.0
H868 H 0.67064 0.95574 0.18362 0.0
H869 H 0.69126 0.01674 0.34039 0.0
H870 H 0.62176 0.92567 0.30366 0.0
H871 H 0.61006 0.94607 0.22955 0.0
H872 H 0.63705 0.9254 0.21105 0.0
H873 H 0.66798 0.02468 0.45293 0.0
H874 H 0.63425 0.02302 0.42883 0.0
H875 H 0.64767 0.99893 0.48939 0.0
H876 H 0.55516 0.99941 0.38845 0.0
H877 H 0.58847 0.94651 0.5478 0.0
H878 H 0.60165 0.992 0.24094 0.0
H879 H 0.60948 0.01924 0.3005 0.0
H880 H 0.57632 0.01236 0.27662 0.0
H881 H 0.64255 0.92866 0.42917 0.0
H882 H 0.6279 0.9256 0.52224 0.0
H883 H 0.64966 0.95216 0.50183 0.0
C884 C 0.51631 0.67098 0.33422 0.0
C885 C 0.53492 0.68102 0.28436 0.0
C886 C 0.52174 0.64982 0.38073 0.0
C887 C 0.54632 0.63829 0.37633 0.0
C888 C 0.56572 0.64938 0.32935 0.0
C889 C 0.55976 0.67078 0.28375 0.0
C890 C 0.50062 0.63882 0.43093 0.0
C891 C 0.59211 0.63764 0.32321 0.0
C892 C 0.55566 0.59049 0.53549 0.0
C893 C 0.54529 0.56775 0.50247 0.0
C894 C 0.55829 0.61334 0.49311 0.0
C895 C 0.55048 0.61336 0.41596 0.0
C896 C 0.54254 0.58987 0.38032 0.0
C897 C 0.54001 0.5673 0.42409 0.0
C898 C 0.56717 0.63792 0.53283 0.0
C899 C 0.53449 0.58904 0.29762 0.0
H900 H 0.49709 0.67898 0.33406 0.0
H901 H 0.57398 0.67845 0.24418 0.0
H902 H 0.49467 0.61936 0.40948 0.0
H903 H 0.50771 0.63643 0.49007 0.0
H904 H 0.48337 0.65135 0.4324 0.0
H905 H 0.60617 0.65105 0.29553 0.0
H906 H 0.5995 0.63234 0.38026 0.0
H907 H 0.59085 0.61959 0.2886 0.0
H908 H 0.56021 0.59098 0.59579 0.0
H909 H 0.53236 0.54976 0.39775 0.0
H910 H 0.55024 0.65019 0.54502 0.0
H911 H 0.58049 0.64929 0.49598 0.0
H912 H 0.57698 0.63383 0.58763 0.0
H913 H 0.51573 0.59885 0.29124 0.0
H914 H 0.53236 0.56884 0.27586 0.0
H915 H 0.54875 0.59954 0.26161 0.0
C916 C 0.83311 0.55857 0.26624 0.0
C917 C 0.83469 0.54046 0.20647 0.0
C918 C 0.85362 0.56196 0.31794 0.0
C919 C 0.87597 0.54672 0.30972 0.0
C920 C 0.87808 0.52936 0.24738 0.0
C921 C 0.85741 0.52629 0.19722 0.0
C922 C 0.85081 0.58081 0.38341 0.0
C923 C 0.90146 0.51256 0.23647 0.0
C924 C 0.93913 0.5534 0.41727 0.0
C925 C 0.93642 0.53294 0.46907 0.0
C926 C 0.91875 0.5597 0.36813 0.0
C927 C 0.89532 0.54528 0.37175 0.0
C928 C 0.89196 0.52602 0.42811 0.0
C929 C 0.91253 0.52008 0.47577 0.0
C930 C 0.92287 0.58057 0.30926 0.0
C931 C 0.86729 0.51024 0.43452 0.0
H932 H 0.81571 0.56972 0.27335 0.0
H933 H 0.85868 0.51177 0.15248 0.0
H934 H 0.84674 0.56993 0.43659 0.0
H935 H 0.86894 0.59206 0.39236 0.0
H936 H 0.83482 0.59452 0.37389 0.0
H937 H 0.90131 0.50231 0.18055 0.0
H938 H 0.91941 0.52441 0.24049 0.0
H939 H 0.90204 0.49781 0.28228 0.0
H940 H 0.95747 0.56359 0.41264 0.0
H941 H 0.91007 0.50471 0.51724 0.0
H942 H 0.90555 0.59281 0.30439 0.0
H943 H 0.92619 0.57142 0.25273 0.0
H944 H 0.9398 0.59316 0.32303 0.0
H945 H 0.85034 0.52308 0.43523 0.0
H946 H 0.86677 0.49812 0.48671 0.0
H947 H 0.86537 0.49722 0.38415 0.0
loop_
_geom_bond_atom_site_label_1
_geom_bond_atom_site_label_2
_geom_bond_distance
_geom_bond_site_symmetry_2
_ccdc_geom_bond_type
H0 C3 0.929 . S
H1 C6 0.929 . S
H2 C8 0.930 . S
C3 H0 0.929 . S
C3 C4 1.398 . S
C3 C5 1.396 1_554 S
C4 C3 1.398 . S
C4 C8 1.407 . S
C5 C3 1.396 1_556 S
C5 C6 1.394 . S
C6 H1 0.929 . S
C6 C5 1.394 . S
C6 C7 1.382 1_556 S
C7 C6 1.382 1_554 S
C7 C8 1.392 . S
C7 N9 1.420 . S
C8 H2 0.930 . S
C8 C4 1.407 . S
C8 C7 1.392 . S
N9 C7 1.420 . S
N9 C10 1.244 1_554 S
C10 N9 1.244 1_556 S
H11 C14 0.937 . S
H12 C17 0.929 . S
H13 C19 0.930 . S
C14 H11 0.937 . S
C14 C15 1.395 1_655 S
C14 C16 1.393 1_655 S
C15 C14 1.395 1_455 S
C15 C19 1.407 . S
C16 C14 1.393 1_455 S
C16 C17 1.394 . S
C17 H12 0.929 . S
C17 C16 1.394 . S
C17 C18 1.382 . S
C18 C17 1.382 . S
C18 C19 1.392 . S
C18 N20 1.420 . S
C19 H13 0.930 . S
C19 C15 1.407 . S
C19 C18 1.392 . S
N20 C18 1.420 . S
N20 C21 1.244 1_455 S
C21 N20 1.244 1_655 S
H22 C25 0.929 . S
H23 C28 0.929 1_556 S
H24 C30 0.930 . S
C25 H22 0.929 . S
C25 C26 1.398 1_565 S
C25 C27 1.394 1_565 S
C26 C25 1.398 1_545 S
C26 C30 1.407 . S
C27 C25 1.394 1_545 S
C27 C28 1.399 . S
C28 H23 0.929 1_554 S
C28 C27 1.399 . S
C28 C29 1.382 . S
C29 C28 1.382 . S
C29 C30 1.392 . S
C29 N31 1.420 . S
C30 H24 0.930 . S
C30 C26 1.407 . S
C30 C29 1.392 . S
N31 C29 1.420 . S
N31 C32 1.244 1_545 S
C32 N31 1.244 1_565 S
H33 C36 0.929 . S
H34 C39 0.929 . S
H35 C41 0.930 . S
C36 H33 0.929 . S
C36 C37 1.398 . S
C36 C38 1.396 1_554 S
C37 C36 1.398 . S
C37 C41 1.407 . S
C38 C36 1.396 1_556 S
C38 C39 1.394 . S
C39 H34 0.929 . S
C39 C38 1.394 . S
C39 C40 1.382 1_556 S
C40 C39 1.382 1_554 S
C40 C41 1.392 . S
C40 N42 1.420 . S
C41 H35 0.930 . S
C41 C37 1.407 . S
C41 C40 1.392 . S
N42 C40 1.420 . S
N42 C43 1.244 1_554 S
C43 N42 1.244 1_556 S
H44 C47 0.929 . S
H45 C50 0.929 . S
H46 C52 0.930 . S
C47 H44 0.929 . S
C47 C48 1.398 . S
C47 C49 1.396 . S
C48 C47 1.398 . S
C48 C52 1.407 . S
C49 C47 1.396 . S
C49 C50 1.394 . S
C50 H45 0.929 . S
C50 C49 1.394 . S
C50 C51 1.382 . S
C51 C50 1.382 . S
C51 C52 1.392 . S
C51 N53 1.420 . S
C52 H46 0.930 . S
C52 C48 1.407 . S
C52 C51 1.392 . S
N53 C51 1.420 . S
N53 C54 1.244 . S
C54 N53 1.244 . S
H55 C58 0.929 . S
H56 C61 0.929 . S
H57 C63 0.930 . S
C58 H55 0.929 . S
C58 C59 1.398 . S
C58 C60 1.396 . S
C59 C58 1.398 . S
C59 C63 1.407 . S
C60 C58 1.396 . S
C60 C61 1.394 . S
C61 H56 0.929 . S
C61 C60 1.394 . S
C61 C62 1.382 . S
C62 C61 1.382 . S
C62 C63 1.392 . S
C62 N64 1.420 . S
C63 H57 0.930 . S
C63 C59 1.407 . S
C63 C62 1.392 . S
N64 C62 1.420 . S
N64 C65 1.244 . S
C65 N64 1.244 . S
H66 C69 0.929 . S
H67 C72 0.929 . S
H68 C74 0.930 . S
C69 H66 0.929 . S
C69 C70 1.398 . S
C69 C71 1.396 . S
C70 C69 1.398 . S
C70 C74 1.407 . S
C71 C69 1.396 . S
C71 C72 1.394 . S
C72 H67 0.929 . S
C72 C71 1.394 . S
C72 C73 1.382 . S
C73 C72 1.382 . S
C73 C74 1.392 . S
C73 N75 1.420 . S
C74 H68 0.930 . S
C74 C70 1.407 . S
C74 C73 1.392 . S
N75 C73 1.420 . S
N75 C76 1.244 . S
C76 N75 1.244 . S
H77 C80 0.929 . S
H78 C83 0.929 . S
H79 C85 0.930 . S
C80 H77 0.929 . S
C80 C81 1.398 . S
C80 C82 1.396 . S
C81 C80 1.398 . S
C81 C85 1.407 . S
C82 C80 1.396 . S
C82 C83 1.394 . S
C83 H78 0.929 . S
C83 C82 1.394 . S
C83 C84 1.382 . S
C84 C83 1.382 . S
C84 C85 1.392 . S
C84 N86 1.420 . S
C85 H79 0.930 . S
C85 C81 1.407 . S
C85 C84 1.392 . S
N86 C84 1.420 . S
N86 C87 1.244 . S
C87 N86 1.244 . S
O88 Zn89 1.956 . S
O88 C104 1.225 1_545 S
Zn89 O88 1.956 . S
Zn89 O90 1.948 1_545 S
Zn89 O96 1.947 . S
Zn89 O101 1.891 1_545 S
O90 Zn89 1.948 1_565 S
O90 Zn91 1.901 1_465 S
O90 Zn92 1.952 . S
O90 Zn93 1.965 1_455 S
Zn91 O90 1.901 1_645 S
Zn91 O94 1.933 . S
Zn91 O97 1.941 1_655 S
Zn91 O98 1.965 . S
Zn92 O90 1.952 . S
Zn92 O99 1.938 1_565 S
Zn92 O100 1.906 . S
Zn92 O110 1.953 . S
Zn93 O90 1.965 1_655 S
Zn93 O95 1.932 . S
Zn93 O102 1.977 . S
Zn93 O103 1.910 1_655 S
O94 Zn91 1.933 . S
O94 C105 1.226 . S
O95 Zn93 1.932 . S
O95 C105 1.307 1_565 S
O96 Zn89 1.947 . S
O96 C107 1.253 . S
O97 Zn91 1.941 1_455 S
O97 C107 1.283 . S
O98 Zn91 1.965 . S
O98 C106 1.303 1_655 S
O99 Zn92 1.938 1_545 S
O99 C106 1.247 . S
O100 Zn92 1.906 . S
O100 C108 1.304 1_455 S
O101 Zn89 1.891 1_565 S
O101 C109 1.311 . S
O102 Zn93 1.977 . S
O102 C108 1.272 . S
O103 Zn93 1.910 1_455 S
O103 C109 1.231 . S
C104 O88 1.225 1_565 S
C104 O110 1.298 . S
C105 O94 1.226 . S
C105 O95 1.307 1_545 S
C106 O98 1.303 1_455 S
C106 O99 1.247 . S
C107 O96 1.253 . S
C107 O97 1.283 . S
C108 O100 1.304 1_655 S
C108 O102 1.272 . S
C109 O101 1.311 . S
C109 O103 1.231 . S
O110 Zn92 1.953 . S
O110 C104 1.298 . S
O111 Zn112 1.953 . S
O111 C127 1.225 . S
Zn112 O111 1.953 . S
Zn112 O113 1.949 . S
Zn112 O119 1.919 . S
Zn112 O124 1.924 . S
O113 Zn112 1.949 . S
O113 Zn114 1.923 1_545 S
O113 Zn115 1.950 . S
O113 Zn116 1.945 1_545 S
Zn114 O113 1.923 1_565 S
Zn114 O117 1.933 . S
Zn114 O120 1.941 . S
Zn114 O121 1.965 . S
Zn115 O113 1.950 . S
Zn115 O122 1.938 . S
Zn115 O123 1.906 . S
Zn115 O133 1.953 . S
Zn116 O113 1.945 1_565 S
Zn116 O118 1.932 . S
Zn116 O125 1.977 . S
Zn116 O126 1.910 1_565 S
O117 Zn114 1.933 . S
O117 C128 1.226 . S
O118 Zn116 1.932 . S
O118 C128 1.307 . S
O119 Zn112 1.919 . S
O119 C130 1.253 . S
O120 Zn114 1.941 . S
O120 C130 1.283 1_565 S
O121 Zn114 1.965 . S
O121 C129 1.303 1_565 S
O122 Zn115 1.938 . S
O122 C129 1.247 . S
O123 Zn115 1.906 . S
O123 C131 1.304 1_545 S
O124 Zn112 1.924 . S
O124 C132 1.311 . S
O125 Zn116 1.977 . S
O125 C131 1.272 . S
O126 Zn116 1.910 1_545 S
O126 C132 1.231 . S
C127 O111 1.225 . S
C127 O133 1.298 . S
C128 O117 1.226 . S
C128 O118 1.307 . S
C129 O121 1.303 1_545 S
C129 O122 1.247 . S
C130 O119 1.253 . S
C130 O120 1.283 1_545 S
C131 O123 1.304 1_565 S
C131 O125 1.272 . S
C132 O124 1.311 . S
C132 O126 1.231 . S
O133 Zn115 1.953 . S
O133 C127 1.298 . S
O134 Zn135 1.953 . S
O134 C150 1.225 . S
Zn135 O134 1.953 . S
Zn135 O136 1.949 . S
Zn135 O142 1.919 . S
Zn135 O147 1.924 . S
O136 Zn135 1.949 . S
O136 Zn137 1.923 . S
O136 Zn138 1.950 . S
O136 Zn139 1.945 . S
Zn137 O136 1.923 . S
Zn137 O140 1.933 . S
Zn137 O143 1.941 . S
Zn137 O144 1.965 . S
Zn138 O136 1.950 . S
Zn138 O145 1.938 . S
Zn138 O146 1.906 . S
Zn138 O156 1.953 . S
Zn139 O136 1.945 . S
Zn139 O141 1.932 . S
Zn139 O148 1.977 . S
Zn139 O149 1.910 . S
O140 Zn137 1.933 . S
O140 C151 1.226 . S
O141 Zn139 1.932 . S
O141 C151 1.307 . S
O142 Zn135 1.919 . S
O142 C153 1.253 . S
O143 Zn137 1.941 . S
O143 C153 1.283 . S
O144 Zn137 1.965 . S
O144 C152 1.303 . S
O145 Zn138 1.938 . S
O145 C152 1.247 . S
O146 Zn138 1.906 . S
O146 C154 1.304 . S
O147 Zn135 1.924 . S
O147 C155 1.311 . S
O148 Zn139 1.977 . S
O148 C154 1.272 . S
O149 Zn139 1.910 . S
O149 C155 1.231 . S
C150 O134 1.225 . S
C150 O156 1.298 . S
C151 O140 1.226 . S
C151 O141 1.307 . S
C152 O144 1.303 . S
C152 O145 1.247 . S
C153 O142 1.253 . S
C153 O143 1.283 . S
C154 O146 1.304 . S
C154 O148 1.272 . S
C155 O147 1.311 . S
C155 O149 1.231 . S
O156 Zn138 1.953 . S
O156 C150 1.298 . S
O157 Zn158 1.921 1_655 S
O157 C173 1.225 . S
Zn158 O157 1.921 1_455 S
Zn158 O159 1.949 . S
Zn158 O165 1.919 . S
Zn158 O170 1.958 . S
O159 Zn158 1.949 . S
O159 Zn160 1.918 1_455 S
O159 Zn161 1.929 1_455 S
O159 Zn162 1.973 . S
Zn160 O159 1.918 1_655 S
Zn160 O163 1.933 1_655 S
Zn160 O166 1.941 . S
Zn160 O167 1.965 . S
Zn161 O159 1.929 1_655 S
Zn161 O168 1.938 . S
Zn161 O169 1.906 . S
Zn161 O179 1.953 . S
Zn162 O159 1.973 . S
Zn162 O164 1.932 . S
Zn162 O171 1.977 . S
Zn162 O172 1.910 . S
O163 Zn160 1.933 1_455 S
O163 C174 1.226 . S
O164 Zn162 1.932 . S
O164 C174 1.307 . S
O165 Zn158 1.919 . S
O165 C176 1.253 . S
O166 Zn160 1.941 . S
O166 C176 1.284 1_655 S
O167 Zn160 1.965 . S
O167 C175 1.303 . S
O168 Zn161 1.938 . S
O168 C175 1.247 . S
O169 Zn161 1.906 . S
O169 C177 1.304 1_655 S
O170 Zn158 1.958 . S
O170 C178 1.311 . S
O171 Zn162 1.977 . S
O171 C177 1.272 . S
O172 Zn162 1.910 . S
O172 C178 1.231 . S
C173 O157 1.225 . S
C173 O179 1.298 . S
C174 O163 1.226 . S
C174 O164 1.307 . S
C175 O167 1.303 . S
C175 O168 1.247 . S
C176 O165 1.253 . S
C176 O166 1.284 1_455 S
C177 O169 1.304 1_455 S
C177 O171 1.272 . S
C178 O170 1.311 . S
C178 O172 1.231 . S
O179 Zn161 1.953 . S
O179 C173 1.298 . S
C180 C181 1.391 . S
C180 C182 1.394 . S
C180 H196 0.931 . S
C181 C180 1.391 . S
C181 C185 1.376 1_545 S
C182 C180 1.394 . S
C182 C183 1.369 . S
C182 C186 1.531 . S
C183 C182 1.369 . S
C183 C184 1.410 1_545 S
C183 C191 1.503 . S
C184 C183 1.410 1_565 S
C184 C185 1.392 . S
C184 C187 1.511 . S
C185 C181 1.376 1_565 S
C185 C184 1.392 . S
C185 H197 0.929 . S
C186 C182 1.531 . S
C186 H198 0.960 . S
C186 H199 0.962 . S
C186 H200 0.960 . S
C187 C184 1.511 . S
C187 H201 0.961 . S
C187 H202 0.961 . S
C187 H203 0.961 . S
C188 C189 1.370 . S
C188 C190 1.365 . S
C188 H204 0.931 . S
C189 C188 1.370 . S
C189 C193 1.408 1_565 S
C190 C188 1.365 . S
C190 C191 1.366 1_565 S
C190 C194 1.527 . S
C191 C183 1.503 . S
C191 C190 1.366 1_545 S
C191 C192 1.403 . S
C192 C191 1.403 . S
C192 C193 1.404 . S
C192 C195 1.539 . S
C193 C189 1.408 1_545 S
C193 C192 1.404 . S
C193 H205 0.930 . S
C194 C190 1.527 . S
C194 H206 0.956 1_565 S
C194 H207 0.961 . S
C194 H208 0.961 . S
C195 C192 1.539 . S
C195 H209 0.958 . S
C195 H210 0.961 1_545 S
C195 H211 0.946 1_545 S
H196 C180 0.931 . S
H197 C185 0.929 . S
H198 C186 0.960 . S
H199 C186 0.962 . S
H200 C186 0.960 . S
H201 C187 0.961 . S
H202 C187 0.961 . S
H203 C187 0.961 . S
H204 C188 0.931 . S
H205 C193 0.930 . S
H206 C194 0.956 1_545 S
H207 C194 0.961 . S
H208 C194 0.961 . S
H209 C195 0.958 . S
H210 C195 0.961 1_565 S
H211 C195 0.946 1_565 S
C212 C213 1.391 . S
C212 C214 1.394 . S
C212 H228 0.931 . S
C213 C212 1.391 . S
C213 C217 1.376 . S
C214 C212 1.394 . S
C214 C215 1.369 . S
C214 C218 1.531 . S
C215 C214 1.369 . S
C215 C216 1.410 . S
C215 C223 1.503 . S
C216 C215 1.410 . S
C216 C217 1.392 . S
C216 C219 1.511 . S
C217 C213 1.376 . S
C217 C216 1.392 . S
C217 H229 0.929 . S
C218 C214 1.531 . S
C218 H230 0.960 . S
C218 H231 0.962 . S
C218 H232 0.960 . S
C219 C216 1.511 . S
C219 H233 0.961 . S
C219 H234 0.961 . S
C219 H235 0.961 . S
C220 C221 1.370 . S
C220 C222 1.363 . S
C220 H236 0.931 . S
C221 C220 1.370 . S
C221 C225 1.408 . S
C222 C220 1.363 . S
C222 C223 1.370 . S
C222 C226 1.524 . S
C223 C215 1.503 . S
C223 C222 1.370 . S
C223 C224 1.403 . S
C224 C223 1.403 . S
C224 C225 1.404 . S
C224 C227 1.539 . S
C225 C221 1.408 . S
C225 C224 1.404 . S
C225 H237 0.930 . S
C226 C222 1.524 . S
C226 H238 0.956 . S
C226 H239 0.961 . S
C226 H240 0.961 . S
C227 C224 1.539 . S
C227 H241 0.958 . S
C227 H242 0.961 . S
C227 H243 0.960 . S
H228 C212 0.931 . S
H229 C217 0.929 . S
H230 C218 0.960 . S
H231 C218 0.962 . S
H232 C218 0.960 . S
H233 C219 0.961 . S
H234 C219 0.961 . S
H235 C219 0.961 . S
H236 C220 0.931 . S
H237 C225 0.930 . S
H238 C226 0.956 . S
H239 C226 0.961 . S
H240 C226 0.961 . S
H241 C227 0.958 . S
H242 C227 0.961 . S
H243 C227 0.960 . S
C244 C245 1.391 . S
C244 C246 1.394 . S
C244 H260 0.931 . S
C245 C244 1.391 . S
C245 C249 1.376 . S
C246 C244 1.394 . S
C246 C247 1.369 . S
C246 C250 1.531 . S
C247 C246 1.369 . S
C247 C248 1.410 . S
C247 C255 1.503 . S
C248 C247 1.410 . S
C248 C249 1.392 . S
C248 C251 1.511 . S
C249 C245 1.376 . S
C249 C248 1.392 . S
C249 H261 0.929 . S
C250 C246 1.531 . S
C250 H262 0.960 . S
C250 H263 0.962 . S
C250 H264 0.960 . S
C251 C248 1.511 . S
C251 H265 0.961 . S
C251 H266 0.961 . S
C251 H267 0.961 . S
C252 C253 1.370 . S
C252 C254 1.363 . S
C252 H268 0.931 . S
C253 C252 1.370 . S
C253 C257 1.408 . S
C254 C252 1.363 . S
C254 C255 1.370 . S
C254 C258 1.524 . S
C255 C247 1.503 . S
C255 C254 1.370 . S
C255 C256 1.403 . S
C256 C255 1.403 . S
C256 C257 1.404 . S
C256 C259 1.539 . S
C257 C253 1.408 . S
C257 C256 1.404 . S
C257 H269 0.930 . S
C258 C254 1.524 . S
C258 H270 0.956 . S
C258 H271 0.961 . S
C258 H272 0.961 . S
C259 C256 1.539 . S
C259 H273 0.958 . S
C259 H274 0.961 . S
C259 H275 0.960 . S
H260 C244 0.931 . S
H261 C249 0.929 . S
H262 C250 0.960 . S
H263 C250 0.962 . S
H264 C250 0.960 . S
H265 C251 0.961 . S
H266 C251 0.961 . S
H267 C251 0.961 . S
H268 C252 0.931 . S
H269 C257 0.930 . S
H270 C258 0.956 . S
H271 C258 0.961 . S
H272 C258 0.961 . S
H273 C259 0.958 . S
H274 C259 0.961 . S
H275 C259 0.960 . S
C276 C277 1.391 . S
C276 C278 1.394 . S
C276 H292 0.931 . S
C277 C276 1.391 . S
C277 C281 1.376 . S
C278 C276 1.394 . S
C278 C279 1.369 . S
C278 C282 1.531 1_455 S
C279 C278 1.369 . S
C279 C280 1.410 . S
C279 C287 1.503 . S
C280 C279 1.410 . S
C280 C281 1.392 . S
C280 C283 1.511 . S
C281 C277 1.376 . S
C281 C280 1.392 . S
C281 H293 0.929 . S
C282 C278 1.531 1_655 S
C282 H294 0.960 . S
C282 H295 0.962 . S
C282 H296 0.960 . S
C283 C280 1.511 . S
C283 H297 0.961 . S
C283 H298 0.961 . S
C283 H299 0.961 . S
C284 C285 1.370 . S
C284 C286 1.363 . S
C284 H300 0.931 1_455 S
C285 C284 1.370 . S
C285 C289 1.408 . S
C286 C284 1.363 . S
C286 C287 1.370 . S
C286 C290 1.523 . S
C287 C279 1.503 . S
C287 C286 1.370 . S
C287 C288 1.403 . S
C288 C287 1.403 . S
C288 C289 1.404 . S
C288 C291 1.539 . S
C289 C285 1.408 . S
C289 C288 1.404 . S
C289 H301 0.930 . S
C290 C286 1.523 . S
C290 H302 0.957 1_455 S
C290 H303 0.959 . S
C290 H304 0.962 1_455 S
C291 C288 1.539 . S
C291 H305 0.958 . S
C291 H306 0.961 . S
C291 H307 0.960 . S
H292 C276 0.931 . S
H293 C281 0.929 . S
H294 C282 0.960 . S
H295 C282 0.962 . S
H296 C282 0.960 . S
H297 C283 0.961 . S
H298 C283 0.961 . S
H299 C283 0.961 . S
H300 C284 0.931 1_655 S
H301 C289 0.930 . S
H302 C290 0.957 1_655 S
H303 C290 0.959 . S
H304 C290 0.962 1_655 S
H305 C291 0.958 . S
H306 C291 0.961 . S
H307 C291 0.960 . S
C308 C309 1.391 1_565 S
C308 C310 1.394 . S
C308 H324 0.931 . S
C309 C308 1.391 1_545 S
C309 C313 1.376 1_556 S
C310 C308 1.394 . S
C310 C311 1.369 1_565 S
C310 C314 1.531 . S
C311 C310 1.369 1_545 S
C311 C312 1.410 . S
C311 C319 1.503 . S
C312 C311 1.410 . S
C312 C313 1.392 1_556 S
C312 C315 1.511 1_556 S
C313 C309 1.376 1_554 S
C313 C312 1.392 1_554 S
C313 H325 0.929 . S
C314 C310 1.531 . S
C314 H326 0.960 . S
C314 H327 0.962 . S
C314 H328 0.960 . S
C315 C312 1.511 1_554 S
C315 H329 0.961 . S
C315 H330 0.961 1_554 S
C315 H331 0.961 1_554 S
C316 C317 1.370 1_565 S
C316 C318 1.363 . S
C316 H332 0.931 . S
C317 C316 1.370 1_545 S
C317 C321 1.408 . S
C318 C316 1.363 . S
C318 C319 1.370 1_565 S
C318 C322 1.524 . S
C319 C311 1.503 . S
C319 C318 1.370 1_545 S
C319 C320 1.403 . S
C320 C319 1.403 . S
C320 C321 1.404 . S
C320 C323 1.539 . S
C321 C317 1.408 . S
C321 C320 1.404 . S
C321 H333 0.930 . S
C322 C318 1.524 . S
C322 H334 0.956 . S
C322 H335 0.955 1_556 S
C322 H336 0.961 . S
C323 C320 1.539 . S
C323 H337 0.958 . S
C323 H338 0.961 . S
C323 H339 0.960 . S
H324 C308 0.931 . S
H325 C313 0.929 . S
H326 C314 0.960 . S
H327 C314 0.962 . S
H328 C314 0.960 . S
H329 C315 0.961 . S
H330 C315 0.961 1_556 S
H331 C315 0.961 1_556 S
H332 C316 0.931 . S
H333 C321 0.930 . S
H334 C322 0.956 . S
H335 C322 0.955 1_554 S
H336 C322 0.961 . S
H337 C323 0.958 . S
H338 C323 0.961 . S
H339 C323 0.960 . S
C340 C341 1.391 1_554 S
C340 C342 1.394 1_554 S
C340 H356 0.931 . S
C341 C340 1.391 1_556 S
C341 C345 1.376 . S
C342 C340 1.394 1_556 S
C342 C343 1.369 . S
C342 C346 1.531 1_556 S
C343 C342 1.369 . S
C343 C344 1.410 . S
C343 C351 1.503 . S
C344 C343 1.410 . S
C344 C345 1.392 . S
C344 C347 1.511 . S
C345 C341 1.376 . S
C345 C344 1.392 . S
C345 H357 0.929 . S
C346 C342 1.531 1_554 S
C346 H358 0.960 1_554 S
C346 H359 0.962 . S
C346 H360 0.960 . S
C347 C344 1.511 . S
C347 H361 0.961 . S
C347 H362 0.961 . S
C347 H363 0.961 . S
C348 C349 1.370 . S
C348 C350 1.363 . S
C348 H364 0.931 . S
C349 C348 1.370 . S
C349 C353 1.408 . S
C350 C348 1.363 . S
C350 C351 1.370 . S
C350 C354 1.524 . S
C351 C343 1.503 . S
C351 C350 1.370 . S
C351 C352 1.403 . S
C352 C351 1.403 . S
C352 C353 1.404 . S
C352 C355 1.539 . S
C353 C349 1.408 . S
C353 C352 1.404 . S
C353 H365 0.930 . S
C354 C350 1.524 . S
C354 H366 0.956 . S
C354 H367 0.961 . S
C354 H368 0.961 . S
C355 C352 1.539 . S
C355 H369 0.958 . S
C355 H370 0.961 . S
C355 H371 0.960 . S
H356 C340 0.931 . S
H357 C345 0.929 . S
H358 C346 0.960 1_556 S
H359 C346 0.962 . S
H360 C346 0.960 . S
H361 C347 0.961 . S
H362 C347 0.961 . S
H363 C347 0.961 . S
H364 C348 0.931 . S
H365 C353 0.930 . S
H366 C354 0.956 . S
H367 C354 0.961 . S
H368 C354 0.961 . S
H369 C355 0.958 . S
H370 C355 0.961 . S
H371 C355 0.960 . S
C372 C373 1.391 . S
C372 C374 1.394 . S
C372 H388 0.931 1_556 S
C373 C372 1.391 . S
C373 C377 1.376 . S
C374 C372 1.394 . S
C374 C375 1.369 . S
C374 C378 1.531 . S
C375 C374 1.369 . S
C375 C376 1.410 . S
C375 C383 1.503 . S
C376 C375 1.410 . S
C376 C377 1.392 . S
C376 C379 1.511 . S
C377 C373 1.376 . S
C377 C376 1.392 . S
C377 H389 0.929 . S
C378 C374 1.531 . S
C378 H390 0.960 . S
C378 H391 0.962 . S
C378 H392 0.960 . S
C379 C376 1.511 . S
C379 H393 0.961 . S
C379 H394 0.961 . S
C379 H395 0.961 . S
C380 C381 1.370 . S
C380 C382 1.363 . S
C380 H396 0.931 . S
C381 C380 1.370 . S
C381 C385 1.408 . S
C382 C380 1.363 . S
C382 C383 1.370 . S
C382 C386 1.524 . S
C383 C375 1.503 . S
C383 C382 1.370 . S
C383 C384 1.403 . S
C384 C383 1.403 . S
C384 C385 1.404 . S
C384 C387 1.539 . S
C385 C381 1.408 . S
C385 C384 1.404 . S
C385 H397 0.930 . S
C386 C382 1.524 . S
C386 H398 0.956 . S
C386 H399 0.961 . S
C386 H400 0.961 . S
C387 C384 1.539 . S
C387 H401 0.958 . S
C387 H402 0.961 . S
C387 H403 0.960 . S
H388 C372 0.931 1_554 S
H389 C377 0.929 . S
H390 C378 0.960 . S
H391 C378 0.962 . S
H392 C378 0.960 . S
H393 C379 0.961 . S
H394 C379 0.961 . S
H395 C379 0.961 . S
H396 C380 0.931 . S
H397 C385 0.930 . S
H398 C386 0.956 . S
H399 C386 0.961 . S
H400 C386 0.961 . S
H401 C387 0.958 . S
H402 C387 0.961 . S
H403 C387 0.960 . S
C404 C405 1.391 1_455 S
C404 C406 1.394 1_554 S
C404 H420 0.931 . S
C405 C404 1.391 1_655 S
C405 C409 1.376 1_554 S
C406 C404 1.394 1_556 S
C406 C407 1.340 1_455 S
C406 C410 1.531 . S
C407 C406 1.340 1_655 S
C407 C408 1.441 . S
C407 C415 1.500 1_655 S
C408 C407 1.441 . S
C408 C409 1.392 . S
C408 C411 1.511 . S
C409 C405 1.376 1_556 S
C409 C408 1.392 . S
C409 H421 0.929 . S
C410 C406 1.531 . S
C410 H422 0.960 . S
C410 H423 0.962 . S
C410 H424 0.960 1_556 S
C411 C408 1.511 . S
C411 H425 0.961 . S
C411 H426 0.961 . S
C411 H427 0.961 . S
C412 C413 1.370 . S
C412 C414 1.363 . S
C412 H428 0.931 . S
C413 C412 1.370 . S
C413 C417 1.408 1_455 S
C414 C412 1.363 . S
C414 C415 1.382 . S
C414 C418 1.524 . S
C415 C407 1.500 1_455 S
C415 C414 1.382 . S
C415 C416 1.395 1_455 S
C416 C415 1.395 1_655 S
C416 C417 1.404 . S
C416 C419 1.539 . S
C417 C413 1.408 1_655 S
C417 C416 1.404 . S
C417 H429 0.930 . S
C418 C414 1.524 . S
C418 H430 0.956 . S
C418 H431 0.961 . S
C418 H432 0.961 . S
C419 C416 1.539 . S
C419 H433 0.958 1_556 S
C419 H434 0.961 . S
C419 H435 0.960 1_556 S
H420 C404 0.931 . S
H421 C409 0.929 . S
H422 C410 0.960 . S
H423 C410 0.962 . S
H424 C410 0.960 1_554 S
H425 C411 0.961 . S
H426 C411 0.961 . S
H427 C411 0.961 . S
H428 C412 0.931 . S
H429 C417 0.930 . S
H430 C418 0.956 . S
H431 C418 0.961 . S
H432 C418 0.961 . S
H433 C419 0.958 1_554 S
H434 C419 0.961 . S
H435 C419 0.960 1_554 S
C436 C437 1.391 . S
C436 C438 1.394 . S
C436 H452 0.931 . S
C437 C436 1.391 . S
C437 C441 1.376 . S
C438 C436 1.394 . S
C438 C439 1.369 . S
C438 C442 1.531 . S
C439 C438 1.369 . S
C439 C440 1.410 . S
C439 C447 1.503 . S
C440 C439 1.410 . S
C440 C441 1.392 . S
C440 C443 1.511 . S
C441 C437 1.376 . S
C441 C440 1.392 . S
C441 H453 0.929 . S
C442 C438 1.531 . S
C442 H454 0.960 . S
C442 H455 0.962 . S
C442 H456 0.960 . S
C443 C440 1.511 . S
C443 H457 0.961 . S
C443 H458 0.961 . S
C443 H459 0.961 1_455 S
C444 C445 1.370 . S
C444 C446 1.363 . S
C444 H460 0.931 . S
C445 C444 1.370 . S
C445 C449 1.408 . S
C446 C444 1.363 . S
C446 C447 1.370 . S
C446 C450 1.524 . S
C447 C439 1.503 . S
C447 C446 1.370 . S
C447 C448 1.403 . S
C448 C447 1.403 . S
C448 C449 1.404 . S
C448 C451 1.539 1_455 S
C449 C445 1.408 . S
C449 C448 1.404 . S
C449 H461 0.930 1_455 S
C450 C446 1.524 . S
C450 H462 0.956 . S
C450 H463 0.961 . S
C450 H464 0.961 . S
C451 C448 1.539 1_655 S
C451 H465 0.958 . S
C451 H466 0.961 . S
C451 H467 0.960 . S
H452 C436 0.931 . S
H453 C441 0.929 . S
H454 C442 0.960 . S
H455 C442 0.962 . S
H456 C442 0.960 . S
H457 C443 0.961 . S
H458 C443 0.961 . S
H459 C443 0.961 1_655 S
H460 C444 0.931 . S
H461 C449 0.930 1_655 S
H462 C450 0.956 . S
H463 C450 0.961 . S
H464 C450 0.961 . S
H465 C451 0.958 . S
H466 C451 0.961 . S
H467 C451 0.960 . S
C468 C469 1.391 . S
C468 C470 1.394 . S
C468 H484 0.931 . S
C469 C468 1.391 . S
C469 C473 1.376 1_545 S
C470 C468 1.394 . S
C470 C471 1.369 . S
C470 C474 1.531 . S
C471 C470 1.369 . S
C471 C472 1.410 1_545 S
C471 C479 1.503 . S
C472 C471 1.410 1_565 S
C472 C473 1.392 . S
C472 C475 1.511 . S
C473 C469 1.376 1_565 S
C473 C472 1.392 . S
C473 H485 0.929 . S
C474 C470 1.531 . S
C474 H486 0.960 . S
C474 H487 0.962 . S
C474 H488 0.960 . S
C475 C472 1.511 . S
C475 H489 0.961 . S
C475 H490 0.961 . S
C475 H491 0.961 . S
C476 C477 1.370 . S
C476 C478 1.363 . S
C476 H492 0.931 . S
C477 C476 1.370 . S
C477 C481 1.408 1_545 S
C478 C476 1.363 . S
C478 C479 1.370 . S
C478 C482 1.524 . S
C479 C471 1.503 . S
C479 C478 1.370 . S
C479 C480 1.403 1_545 S
C480 C479 1.403 1_565 S
C480 C481 1.404 . S
C480 C483 1.539 . S
C481 C477 1.408 1_565 S
C481 C480 1.404 . S
C481 H493 0.930 . S
C482 C478 1.524 . S
C482 H494 0.956 . S
C482 H495 0.961 . S
C482 H496 0.961 . S
C483 C480 1.539 . S
C483 H497 0.958 . S
C483 H498 0.961 . S
C483 H499 0.960 . S
H484 C468 0.931 . S
H485 C473 0.929 . S
H486 C474 0.960 . S
H487 C474 0.962 . S
H488 C474 0.960 . S
H489 C475 0.961 . S
H490 C475 0.961 . S
H491 C475 0.961 . S
H492 C476 0.931 . S
H493 C481 0.930 . S
H494 C482 0.956 . S
H495 C482 0.961 . S
H496 C482 0.961 . S
H497 C483 0.958 . S
H498 C483 0.961 . S
H499 C483 0.960 . S
C500 C501 1.391 . S
C500 C502 1.394 . S
C500 H516 0.931 . S
C501 C500 1.391 . S
C501 C505 1.376 . S
C502 C500 1.394 . S
C502 C503 1.369 . S
C502 C506 1.531 . S
C503 C502 1.369 . S
C503 C504 1.410 . S
C503 C511 1.503 . S
C504 C503 1.410 . S
C504 C505 1.392 . S
C504 C507 1.511 . S
C505 C501 1.376 . S
C505 C504 1.392 . S
C505 H517 0.929 . S
C506 C502 1.531 . S
C506 H518 0.960 . S
C506 H519 0.962 . S
C506 H520 0.960 . S
C507 C504 1.511 . S
C507 H521 0.961 . S
C507 H522 0.961 . S
C507 H523 0.961 . S
C508 C509 1.370 . S
C508 C510 1.363 . S
C508 H524 0.931 . S
C509 C508 1.370 . S
C509 C513 1.408 . S
C510 C508 1.363 . S
C510 C511 1.370 . S
C510 C514 1.524 . S
C511 C503 1.503 . S
C511 C510 1.370 . S
C511 C512 1.403 . S
C512 C511 1.403 . S
C512 C513 1.404 . S
C512 C515 1.539 . S
C513 C509 1.408 . S
C513 C512 1.404 . S
C513 H525 0.930 . S
C514 C510 1.524 . S
C514 H526 0.956 . S
C514 H527 0.961 . S
C514 H528 0.961 . S
C515 C512 1.539 . S
C515 H529 0.958 . S
C515 H530 0.961 . S
C515 H531 0.960 . S
H516 C500 0.931 . S
H517 C505 0.929 . S
H518 C506 0.960 . S
H519 C506 0.962 . S
H520 C506 0.960 . S
H521 C507 0.961 . S
H522 C507 0.961 . S
H523 C507 0.961 . S
H524 C508 0.931 . S
H525 C513 0.930 . S
H526 C514 0.956 . S
H527 C514 0.961 . S
H528 C514 0.961 . S
H529 C515 0.958 . S
H530 C515 0.961 . S
H531 C515 0.960 . S
C532 C533 1.391 . S
C532 C534 1.394 . S
C532 H548 0.931 . S
C533 C532 1.391 . S
C533 C537 1.376 . S
C534 C532 1.394 . S
C534 C535 1.369 . S
C534 C538 1.531 . S
C535 C534 1.369 . S
C535 C536 1.410 . S
C535 C543 1.503 . S
C536 C535 1.410 . S
C536 C537 1.392 . S
C536 C539 1.511 . S
C537 C533 1.376 . S
C537 C536 1.392 . S
C537 H549 0.929 . S
C538 C534 1.531 . S
C538 H550 0.960 . S
C538 H551 0.962 . S
C538 H552 0.960 . S
C539 C536 1.511 . S
C539 H553 0.961 . S
C539 H554 0.961 . S
C539 H555 0.961 . S
C540 C541 1.370 . S
C540 C542 1.363 . S
C540 H556 0.931 . S
C541 C540 1.370 . S
C541 C545 1.408 . S
C542 C540 1.363 . S
C542 C543 1.370 . S
C542 C546 1.524 . S
C543 C535 1.503 . S
C543 C542 1.370 . S
C543 C544 1.403 . S
C544 C543 1.403 . S
C544 C545 1.404 . S
C544 C547 1.539 . S
C545 C541 1.408 . S
C545 C544 1.404 . S
C545 H557 0.930 . S
C546 C542 1.524 . S
C546 H558 0.956 . S
C546 H559 0.961 . S
C546 H560 0.961 . S
C547 C544 1.539 . S
C547 H561 0.958 . S
C547 H562 0.961 . S
C547 H563 0.960 . S
H548 C532 0.931 . S
H549 C537 0.929 . S
H550 C538 0.960 . S
H551 C538 0.962 . S
H552 C538 0.960 . S
H553 C539 0.961 . S
H554 C539 0.961 . S
H555 C539 0.961 . S
H556 C540 0.931 . S
H557 C545 0.930 . S
H558 C546 0.956 . S
H559 C546 0.961 . S
H560 C546 0.961 . S
H561 C547 0.958 . S
H562 C547 0.961 . S
H563 C547 0.960 . S
C564 C565 1.363 1_456 S
C564 C566 1.394 . S
C564 H580 0.931 . S
C565 C564 1.363 1_654 S
C565 C569 1.397 . S
C566 C564 1.394 . S
C566 C567 1.369 . S
C566 C570 1.531 . S
C567 C566 1.369 . S
C567 C568 1.410 1_456 S
C567 C575 1.503 . S
C568 C567 1.410 1_654 S
C568 C569 1.392 . S
C568 C571 1.511 . S
C569 C565 1.397 . S
C569 C568 1.392 . S
C569 H581 0.929 . S
C570 C566 1.531 . S
C570 H582 0.960 . S
C570 H583 0.962 . S
C570 H584 0.960 . S
C571 C568 1.511 . S
C571 H585 0.961 . S
C571 H586 0.961 . S
C571 H587 0.961 1_554 S
C572 C573 1.370 . S
C572 C574 1.363 . S
C572 H588 0.931 . S
C573 C572 1.370 . S
C573 C577 1.408 . S
C574 C572 1.363 . S
C574 C575 1.370 . S
C574 C578 1.524 1_556 S
C575 C567 1.503 . S
C575 C574 1.370 . S
C575 C576 1.403 . S
C576 C575 1.403 . S
C576 C577 1.404 . S
C576 C579 1.539 1_455 S
C577 C573 1.408 . S
C577 C576 1.404 . S
C577 H589 0.930 . S
C578 C574 1.524 1_554 S
C578 H590 0.956 . S
C578 H591 0.961 . S
C578 H592 0.961 . S
C579 C576 1.539 1_655 S
C579 H593 0.958 . S
C579 H594 0.961 . S
C579 H595 0.960 . S
H580 C564 0.931 . S
H581 C569 0.929 . S
H582 C570 0.960 . S
H583 C570 0.962 . S
H584 C570 0.960 . S
H585 C571 0.961 . S
H586 C571 0.961 . S
H587 C571 0.961 1_556 S
H588 C572 0.931 . S
H589 C577 0.930 . S
H590 C578 0.956 . S
H591 C578 0.961 . S
H592 C578 0.961 . S
H593 C579 0.958 . S
H594 C579 0.961 . S
H595 C579 0.960 . S
C596 C597 1.391 . S
C596 C598 1.394 . S
C596 H612 0.931 . S
C597 C596 1.391 . S
C597 C601 1.376 1_566 S
C598 C596 1.394 . S
C598 C599 1.369 1_565 S
C598 C602 1.531 . S
C599 C598 1.369 1_545 S
C599 C600 1.409 . S
C599 C607 1.503 . S
C600 C599 1.409 . S
C600 C601 1.392 1_556 S
C600 C603 1.511 1_556 S
C601 C597 1.376 1_544 S
C601 C600 1.392 1_554 S
C601 H613 0.929 . S
C602 C598 1.531 . S
C602 H614 0.960 . S
C602 H615 0.962 1_565 S
C602 H616 0.960 . S
C603 C600 1.511 1_554 S
C603 H617 0.961 . S
C603 H618 0.961 . S
C603 H619 0.961 . S
C604 C605 1.370 . S
C604 C606 1.363 . S
C604 H620 0.931 . S
C605 C604 1.370 . S
C605 C609 1.408 . S
C606 C604 1.363 . S
C606 C607 1.370 . S
C606 C610 1.524 . S
C607 C599 1.503 . S
C607 C606 1.370 . S
C607 C608 1.403 1_545 S
C608 C607 1.403 1_565 S
C608 C609 1.404 1_565 S
C608 C611 1.539 . S
C609 C605 1.408 . S
C609 C608 1.404 1_545 S
C609 H621 0.930 1_545 S
C610 C606 1.524 . S
C610 H622 0.956 . S
C610 H623 0.961 . S
C610 H624 0.961 . S
C611 C608 1.539 . S
C611 H625 0.958 . S
C611 H626 0.961 . S
C611 H627 0.960 . S
H612 C596 0.931 . S
H613 C601 0.929 . S
H614 C602 0.960 . S
H615 C602 0.962 1_545 S
H616 C602 0.960 . S
H617 C603 0.961 . S
H618 C603 0.961 . S
H619 C603 0.961 . S
H620 C604 0.931 . S
H621 C609 0.930 1_565 S
H622 C610 0.956 . S
H623 C610 0.961 . S
H624 C610 0.961 . S
H625 C611 0.958 . S
H626 C611 0.961 . S
H627 C611 0.960 . S
C628 C629 1.391 . S
C628 C630 1.394 . S
C628 H644 0.931 1_556 S
C629 C628 1.391 . S
C629 C633 1.376 . S
C630 C628 1.394 . S
C630 C631 1.369 . S
C630 C634 1.531 . S
C631 C630 1.369 . S
C631 C632 1.410 . S
C631 C639 1.503 . S
C632 C631 1.410 . S
C632 C633 1.392 . S
C632 C635 1.511 . S
C633 C629 1.376 . S
C633 C632 1.392 . S
C633 H645 0.929 . S
C634 C630 1.531 . S
C634 H646 0.960 . S
C634 H647 0.962 . S
C634 H648 0.960 . S
C635 C632 1.511 . S
C635 H649 0.961 . S
C635 H650 0.961 . S
C635 H651 0.961 . S
C636 C637 1.370 . S
C636 C638 1.363 . S
C636 H652 0.931 . S
C637 C636 1.370 . S
C637 C641 1.408 . S
C638 C636 1.363 . S
C638 C639 1.370 . S
C638 C642 1.524 . S
C639 C631 1.503 . S
C639 C638 1.370 . S
C639 C640 1.403 . S
C640 C639 1.403 . S
C640 C641 1.404 . S
C640 C643 1.539 . S
C641 C637 1.408 . S
C641 C640 1.404 . S
C641 H653 0.930 . S
C642 C638 1.524 . S
C642 H654 0.956 . S
C642 H655 0.961 . S
C642 H656 0.961 . S
C643 C640 1.539 . S
C643 H657 0.958 . S
C643 H658 0.961 . S
C643 H659 0.960 . S
H644 C628 0.931 1_554 S
H645 C633 0.929 . S
H646 C634 0.960 . S
H647 C634 0.962 . S
H648 C634 0.960 . S
H649 C635 0.961 . S
H650 C635 0.961 . S
H651 C635 0.961 . S
H652 C636 0.931 . S
H653 C641 0.930 . S
H654 C642 0.956 . S
H655 C642 0.961 . S
H656 C642 0.961 . S
H657 C643 0.958 . S
H658 C643 0.961 . S
H659 C643 0.960 . S
C660 C661 1.391 . S
C660 C662 1.394 . S
C660 H676 0.931 . S
C661 C660 1.391 . S
C661 C665 1.376 . S
C662 C660 1.394 . S
C662 C663 1.369 . S
C662 C666 1.531 . S
C663 C662 1.369 . S
C663 C664 1.410 . S
C663 C671 1.503 . S
C664 C663 1.410 . S
C664 C665 1.392 . S
C664 C667 1.511 . S
C665 C661 1.376 . S
C665 C664 1.392 . S
C665 H677 0.929 . S
C666 C662 1.531 . S
C666 H678 0.960 . S
C666 H679 0.962 . S
C666 H680 0.960 . S
C667 C664 1.511 . S
C667 H681 0.961 . S
C667 H682 0.961 . S
C667 H683 0.961 . S
C668 C669 1.370 . S
C668 C670 1.363 . S
C668 H684 0.931 . S
C669 C668 1.370 . S
C669 C673 1.408 . S
C670 C668 1.363 . S
C670 C671 1.370 . S
C670 C674 1.524 . S
C671 C663 1.503 . S
C671 C670 1.370 . S
C671 C672 1.403 . S
C672 C671 1.403 . S
C672 C673 1.404 . S
C672 C675 1.539 . S
C673 C669 1.408 . S
C673 C672 1.404 . S
C673 H685 0.930 . S
C674 C670 1.524 . S
C674 H686 0.956 . S
C674 H687 0.961 . S
C674 H688 0.961 . S
C675 C672 1.539 . S
C675 H689 0.958 . S
C675 H690 0.961 . S
C675 H691 0.960 . S
H676 C660 0.931 . S
H677 C665 0.929 . S
H678 C666 0.960 . S
H679 C666 0.962 . S
H680 C666 0.960 . S
H681 C667 0.961 . S
H682 C667 0.961 . S
H683 C667 0.961 . S
H684 C668 0.931 . S
H685 C673 0.930 . S
H686 C674 0.956 . S
H687 C674 0.961 . S
H688 C674 0.961 . S
H689 C675 0.958 . S
H690 C675 0.961 . S
H691 C675 0.960 . S
C692 C693 1.391 . S
C692 C694 1.394 . S
C692 H708 0.931 . S
C693 C692 1.391 . S
C693 C697 1.376 . S
C694 C692 1.394 . S
C694 C695 1.369 . S
C694 C698 1.531 1_455 S
C695 C694 1.369 . S
C695 C696 1.410 . S
C695 C703 1.503 . S
C696 C695 1.410 . S
C696 C697 1.392 . S
C696 C699 1.511 1_554 S
C697 C693 1.376 . S
C697 C696 1.392 . S
C697 H709 0.929 . S
C698 C694 1.531 1_655 S
C698 H710 0.960 . S
C698 H711 0.962 1_655 S
C698 H712 0.960 . S
C699 C696 1.511 1_556 S
C699 H713 0.961 . S
C699 H714 0.961 . S
C699 H715 0.961 . S
C700 C701 1.370 . S
C700 C702 1.363 1_556 S
C700 H716 0.931 1_556 S
C701 C700 1.370 . S
C701 C705 1.408 . S
C702 C700 1.363 1_554 S
C702 C703 1.370 . S
C702 C706 1.524 . S
C703 C695 1.503 . S
C703 C702 1.370 . S
C703 C704 1.403 1_554 S
C704 C703 1.403 1_556 S
C704 C705 1.404 . S
C704 C707 1.539 1_455 S
C705 C701 1.408 . S
C705 C704 1.404 . S
C705 H717 0.930 1_455 S
C706 C702 1.524 . S
C706 H718 0.956 . S
C706 H719 0.961 . S
C706 H720 0.961 . S
C707 C704 1.539 1_655 S
C707 H721 0.958 . S
C707 H722 0.961 . S
C707 H723 0.959 1_655 S
H708 C692 0.931 . S
H709 C697 0.929 . S
H710 C698 0.960 . S
H711 C698 0.962 1_455 S
H712 C698 0.960 . S
H713 C699 0.961 . S
H714 C699 0.961 . S
H715 C699 0.961 . S
H716 C700 0.931 1_554 S
H717 C705 0.930 1_655 S
H718 C706 0.956 . S
H719 C706 0.961 . S
H720 C706 0.961 . S
H721 C707 0.958 . S
H722 C707 0.961 . S
H723 C707 0.959 1_455 S
C724 C725 1.391 1_565 S
C724 C726 1.394 . S
C724 H740 0.931 . S
C725 C724 1.391 1_545 S
C725 C729 1.376 . S
C726 C724 1.394 . S
C726 C727 1.369 1_565 S
C726 C730 1.531 1_554 S
C727 C726 1.369 1_545 S
C727 C728 1.410 . S
C727 C735 1.503 1_554 S
C728 C727 1.410 . S
C728 C729 1.392 . S
C728 C731 1.511 . S
C729 C725 1.376 . S
C729 C728 1.392 . S
C729 H741 0.929 . S
C730 C726 1.531 1_556 S
C730 H742 0.960 . S
C730 H743 0.962 . S
C730 H744 0.960 . S
C731 C728 1.511 . S
C731 H745 0.961 . S
C731 H746 0.961 . S
C731 H747 0.961 . S
C732 C733 1.370 1_565 S
C732 C734 1.363 1_556 S
C732 H748 0.931 . S
C733 C732 1.370 1_545 S
C733 C737 1.408 . S
C734 C732 1.363 1_554 S
C734 C735 1.370 1_564 S
C734 C738 1.524 . S
C735 C727 1.503 1_556 S
C735 C734 1.370 1_546 S
C735 C736 1.403 . S
C736 C735 1.403 . S
C736 C737 1.404 . S
C736 C739 1.539 . S
C737 C733 1.408 . S
C737 C736 1.404 . S
C737 H749 0.930 . S
C738 C734 1.524 . S
C738 H750 0.956 . S
C738 H751 0.961 . S
C738 H752 0.961 . S
C739 C736 1.539 . S
C739 H753 0.958 . S
C739 H754 0.961 . S
C739 H755 0.960 . S
H740 C724 0.931 . S
H741 C729 0.929 . S
H742 C730 0.960 . S
H743 C730 0.962 . S
H744 C730 0.960 . S
H745 C731 0.961 . S
H746 C731 0.961 . S
H747 C731 0.961 . S
H748 C732 0.931 . S
H749 C737 0.930 . S
H750 C738 0.956 . S
H751 C738 0.961 . S
H752 C738 0.961 . S
H753 C739 0.958 . S
H754 C739 0.961 . S
H755 C739 0.960 . S
C756 C757 1.391 . S
C756 C758 1.394 . S
C756 H772 0.931 . S
C757 C756 1.391 . S
C757 C761 1.376 . S
C758 C756 1.394 . S
C758 C759 1.369 . S
C758 C762 1.531 . S
C759 C758 1.369 . S
C759 C760 1.410 . S
C759 C767 1.503 1_554 S
C760 C759 1.410 . S
C760 C761 1.392 . S
C760 C763 1.511 1_554 S
C761 C757 1.376 . S
C761 C760 1.392 . S
C761 H773 0.929 . S
C762 C758 1.531 . S
C762 H774 0.960 1_554 S
C762 H775 0.962 . S
C762 H776 0.960 . S
C763 C760 1.511 1_556 S
C763 H777 0.961 . S
C763 H778 0.961 . S
C763 H779 0.961 . S
C764 C765 1.370 . S
C764 C766 1.363 . S
C764 H780 0.931 . S
C765 C764 1.370 . S
C765 C769 1.408 . S
C766 C764 1.363 . S
C766 C767 1.370 . S
C766 C770 1.524 1_556 S
C767 C759 1.503 1_556 S
C767 C766 1.370 . S
C767 C768 1.403 . S
C768 C767 1.403 . S
C768 C769 1.404 . S
C768 C771 1.539 . S
C769 C765 1.408 . S
C769 C768 1.404 . S
C769 H781 0.930 . S
C770 C766 1.524 1_554 S
C770 H782 0.956 . S
C770 H783 0.961 . S
C770 H784 0.961 . S
C771 C768 1.539 . S
C771 H785 0.958 . S
C771 H786 0.961 . S
C771 H787 0.960 . S
H772 C756 0.931 . S
H773 C761 0.929 . S
H774 C762 0.960 1_556 S
H775 C762 0.962 . S
H776 C762 0.960 . S
H777 C763 0.961 . S
H778 C763 0.961 . S
H779 C763 0.961 . S
H780 C764 0.931 . S
H781 C769 0.930 . S
H782 C770 0.956 . S
H783 C770 0.961 . S
H784 C770 0.961 . S
H785 C771 0.958 . S
H786 C771 0.961 . S
H787 C771 0.960 . S
C788 C789 1.391 . S
C788 C790 1.394 . S
C788 H804 0.931 . S
C789 C788 1.391 . S
C789 C793 1.376 . S
C790 C788 1.394 . S
C790 C791 1.369 . S
C790 C794 1.531 . S
C791 C790 1.369 . S
C791 C792 1.410 1_554 S
C791 C799 1.503 1_554 S
C792 C791 1.410 1_556 S
C792 C793 1.392 1_556 S
C792 C795 1.511 . S
C793 C789 1.376 . S
C793 C792 1.392 1_554 S
C793 H805 0.929 . S
C794 C790 1.531 . S
C794 H806 0.960 . S
C794 H807 0.962 . S
C794 H808 0.960 . S
C795 C792 1.511 . S
C795 H809 0.961 . S
C795 H810 0.961 . S
C795 H811 0.961 . S
C796 C797 1.370 . S
C796 C798 1.363 . S
C796 H812 0.931 . S
C797 C796 1.370 . S
C797 C801 1.408 . S
C798 C796 1.363 . S
C798 C799 1.370 . S
C798 C802 1.524 . S
C799 C791 1.503 1_556 S
C799 C798 1.370 . S
C799 C800 1.403 . S
C800 C799 1.403 . S
C800 C801 1.404 . S
C800 C803 1.539 . S
C801 C797 1.408 . S
C801 C800 1.404 . S
C801 H813 0.930 . S
C802 C798 1.524 . S
C802 H814 0.956 1_556 S
C802 H815 0.961 . S
C802 H816 0.961 . S
C803 C800 1.539 . S
C803 H817 0.958 1_556 S
C803 H818 0.961 . S
C803 H819 0.960 . S
H804 C788 0.931 . S
H805 C793 0.929 . S
H806 C794 0.960 . S
H807 C794 0.962 . S
H808 C794 0.960 . S
H809 C795 0.961 . S
H810 C795 0.961 . S
H811 C795 0.961 . S
H812 C796 0.931 . S
H813 C801 0.930 . S
H814 C802 0.956 1_554 S
H815 C802 0.961 . S
H816 C802 0.961 . S
H817 C803 0.958 1_554 S
H818 C803 0.961 . S
H819 C803 0.960 . S
C820 C821 1.391 1_455 S
C820 C822 1.394 . S
C820 H836 0.931 . S
C821 C820 1.391 1_655 S
C821 C825 1.376 . S
C822 C820 1.394 . S
C822 C823 1.369 1_455 S
C822 C826 1.531 . S
C823 C822 1.369 1_655 S
C823 C824 1.410 . S
C823 C831 1.503 . S
C824 C823 1.410 . S
C824 C825 1.392 . S
C824 C827 1.511 . S
C825 C821 1.376 . S
C825 C824 1.392 . S
C825 H837 0.929 . S
C826 C822 1.531 . S
C826 H838 0.960 . S
C826 H839 0.962 . S
C826 H840 0.960 . S
C827 C824 1.511 . S
C827 H841 0.961 . S
C827 H842 0.961 . S
C827 H843 0.961 . S
C828 C829 1.370 . S
C828 C830 1.363 . S
C828 H844 0.931 1_655 S
C829 C828 1.370 . S
C829 C833 1.408 . S
C830 C828 1.363 . S
C830 C831 1.372 . S
C830 C834 1.522 1_655 S
C831 C823 1.503 . S
C831 C830 1.372 . S
C831 C832 1.403 . S
C832 C831 1.403 . S
C832 C833 1.404 . S
C832 C835 1.539 . S
C833 C829 1.408 . S
C833 C832 1.404 . S
C833 H845 0.930 . S
C834 C830 1.522 1_455 S
C834 H846 0.956 . S
C834 H847 0.961 . S
C834 H848 0.961 . S
C835 C832 1.539 . S
C835 H849 0.958 . S
C835 H850 0.961 . S
C835 H851 0.960 . S
H836 C820 0.931 . S
H837 C825 0.929 . S
H838 C826 0.960 . S
H839 C826 0.962 . S
H840 C826 0.960 . S
H841 C827 0.961 . S
H842 C827 0.961 . S
H843 C827 0.961 . S
H844 C828 0.931 1_455 S
H845 C833 0.930 . S
H846 C834 0.956 . S
H847 C834 0.961 . S
H848 C834 0.961 . S
H849 C835 0.958 . S
H850 C835 0.961 . S
H851 C835 0.960 . S
C852 C853 1.391 . S
C852 C854 1.394 . S
C852 H868 0.931 . S
C853 C852 1.391 . S
C853 C857 1.376 1_565 S
C854 C852 1.394 . S
C854 C855 1.369 . S
C854 C858 1.531 . S
C855 C854 1.369 . S
C855 C856 1.410 1_565 S
C855 C863 1.503 . S
C856 C855 1.410 1_545 S
C856 C857 1.392 . S
C856 C859 1.511 . S
C857 C853 1.376 1_545 S
C857 C856 1.392 . S
C857 H869 0.929 . S
C858 C854 1.531 . S
C858 H870 0.960 . S
C858 H871 0.962 . S
C858 H872 0.960 . S
C859 C856 1.511 . S
C859 H873 0.961 . S
C859 H874 0.961 . S
C859 H875 0.961 . S
C860 C861 1.370 . S
C860 C862 1.363 . S
C860 H876 0.931 . S
C861 C860 1.370 . S
C861 C865 1.408 . S
C862 C860 1.363 . S
C862 C863 1.370 . S
C862 C866 1.524 . S
C863 C855 1.503 . S
C863 C862 1.370 . S
C863 C864 1.403 . S
C864 C863 1.403 . S
C864 C865 1.404 . S
C864 C867 1.539 . S
C865 C861 1.408 . S
C865 C864 1.404 . S
C865 H877 0.930 . S
C866 C862 1.524 . S
C866 H878 0.956 . S
C866 H879 0.961 1_565 S
C866 H880 0.961 . S
C867 C864 1.539 . S
C867 H881 0.958 . S
C867 H882 0.961 . S
C867 H883 0.960 . S
H868 C852 0.931 . S
H869 C857 0.929 . S
H870 C858 0.960 . S
H871 C858 0.962 . S
H872 C858 0.960 . S
H873 C859 0.961 . S
H874 C859 0.961 . S
H875 C859 0.961 . S
H876 C860 0.931 . S
H877 C865 0.930 . S
H878 C866 0.956 . S
H879 C866 0.961 1_545 S
H880 C866 0.961 . S
H881 C867 0.958 . S
H882 C867 0.961 . S
H883 C867 0.960 . S
C884 C885 1.391 . S
C884 C886 1.394 . S
C884 H900 0.931 . S
C885 C884 1.391 . S
C885 C889 1.376 . S
C886 C884 1.394 . S
C886 C887 1.369 . S
C886 C890 1.531 . S
C887 C886 1.369 . S
C887 C888 1.410 . S
C887 C895 1.503 . S
C888 C887 1.410 . S
C888 C889 1.392 . S
C888 C891 1.511 . S
C889 C885 1.376 . S
C889 C888 1.392 . S
C889 H901 0.929 . S
C890 C886 1.531 . S
C890 H902 0.960 . S
C890 H903 0.962 . S
C890 H904 0.960 . S
C891 C888 1.511 . S
C891 H905 0.961 . S
C891 H906 0.961 . S
C891 H907 0.961 . S
C892 C893 1.370 . S
C892 C894 1.363 . S
C892 H908 0.931 . S
C893 C892 1.370 . S
C893 C897 1.408 . S
C894 C892 1.363 . S
C894 C895 1.370 . S
C894 C898 1.524 . S
C895 C887 1.503 . S
C895 C894 1.370 . S
C895 C896 1.403 . S
C896 C895 1.403 . S
C896 C897 1.404 . S
C896 C899 1.539 . S
C897 C893 1.408 . S
C897 C896 1.404 . S
C897 H909 0.930 . S
C898 C894 1.524 . S
C898 H910 0.956 . S
C898 H911 0.961 . S
C898 H912 0.961 . S
C899 C896 1.539 . S
C899 H913 0.958 . S
C899 H914 0.961 . S
C899 H915 0.960 . S
H900 C884 0.931 . S
H901 C889 0.929 . S
H902 C890 0.960 . S
H903 C890 0.962 . S
H904 C890 0.960 . S
H905 C891 0.961 . S
H906 C891 0.961 . S
H907 C891 0.961 . S
H908 C892 0.931 . S
H909 C897 0.930 . S
H910 C898 0.956 . S
H911 C898 0.961 . S
H912 C898 0.961 . S
H913 C899 0.958 . S
H914 C899 0.961 . S
H915 C899 0.960 . S
C916 C917 1.391 . S
C916 C918 1.394 . S
C916 H932 0.931 . S
C917 C916 1.391 . S
C917 C921 1.376 . S
C918 C916 1.394 . S
C918 C919 1.369 . S
C918 C922 1.531 . S
C919 C918 1.369 . S
C919 C920 1.410 . S
C919 C927 1.503 . S
C920 C919 1.410 . S
C920 C921 1.392 . S
C920 C923 1.511 . S
C921 C917 1.376 . S
C921 C920 1.392 . S
C921 H933 0.929 . S
C922 C918 1.531 . S
C922 H934 0.960 . S
C922 H935 0.962 . S
C922 H936 0.960 . S
C923 C920 1.511 . S
C923 H937 0.961 . S
C923 H938 0.961 . S
C923 H939 0.961 . S
C924 C925 1.370 . S
C924 C926 1.363 . S
C924 H940 0.931 . S
C925 C924 1.370 . S
C925 C929 1.408 . S
C926 C924 1.363 . S
C926 C927 1.370 . S
C926 C930 1.524 . S
C927 C919 1.503 . S
C927 C926 1.370 . S
C927 C928 1.403 . S
C928 C927 1.403 . S
C928 C929 1.404 . S
C928 C931 1.539 . S
C929 C925 1.408 . S
C929 C928 1.404 . S
C929 H941 0.930 . S
C930 C926 1.524 . S
C930 H942 0.956 . S
C930 H943 0.961 . S
C930 H944 0.961 . S
C931 C928 1.539 . S
C931 H945 0.958 . S
C931 H946 0.961 . S
C931 H947 0.960 . S
H932 C916 0.931 . S
H933 C921 0.929 . S
H934 C922 0.960 . S
H935 C922 0.962 . S
H936 C922 0.960 . S
H937 C923 0.961 . S
H938 C923 0.961 . S
H939 C923 0.961 . S
H940 C924 0.931 . S
H941 C929 0.930 . S
H942 C930 0.956 . S
H943 C930 0.961 . S
H944 C930 0.961 . S
H945 C931 0.958 . S
H946 C931 0.961 . S
H947 C931 0.960 . S
C181 C76 1.585 . S
C189 C104 1.576 . S
C221 C127 1.625 . S
C213 C87 1.569 . S
C253 C150 1.629 . S
C245 C54 1.630 . S
C285 C177 1.520 . S
C277 C65 1.541 . S
C317 C105 1.564 . S
C309 C32 1.521 1_546 S
C341 C43 1.484 . S
C349 C128 1.502 . S
C373 C10 1.449 . S
C381 C151 1.492 . S
C405 C21 1.594 . S
C413 C176 1.576 . S
C445 C106 0.379 . S
C437 C60 0.529 . S
C477 C129 0.379 . S
C469 C71 0.513 . S
C509 C152 0.409 . S
C501 C82 0.501 . S
C533 C49 0.589 . S
C541 C178 0.616 . S
C565 C16 0.737 1_655 S
C573 C109 0.672 . S
C605 C132 0.647 . S
C597 C27 0.675 1_566 S
C637 C155 0.671 . S
C629 C38 0.671 . S
C661 C5 0.539 . S
C669 C175 0.411 . S
C693 C59 1.583 . S
C701 C107 1.552 . S
C725 C70 1.538 . S
C733 C130 1.517 . S
C765 C153 1.533 . S
C757 C81 1.565 . S
C797 C174 1.381 . S
C789 C48 1.338 . S
C821 C15 1.567 1_655 S
C829 C108 1.560 . S
C861 C131 1.484 . S
C853 C26 1.580 1_565 S
C893 C154 1.493 . S
C885 C37 1.503 . S
C917 C4 1.679 . S
C925 C173 1.724 . S
