# Generated by pormake.
# Topology zzz, (3,6)-cn, num edge types: 1
# Building blocks:
#     Node 0, Type 0, BuildingBlock: VETTIZ_charged_linker_0, # of connection points: 3
#     Node 1, Type 0, BuildingBlock: VETTIZ_charged_linker_0, # of connection points: 3
#     Node 2, Type 0, BuildingBlock: VETTIZ_charged_linker_0, # of connection points: 3
#     Node 3, Type 0, BuildingBlock: VETTIZ_charged_linker_0, # of connection points: 3
#     Node 4, Type 0, BuildingBlock: VETTIZ_charged_linker_0, # of connection points: 3
#     Node 5, Type 0, BuildingBlock: VETTIZ_charged_linker_0, # of connection points: 3
#     Node 6, Type 0, BuildingBlock: VETTIZ_charged_linker_0, # of connection points: 3
#     Node 7, Type 0, BuildingBlock: VETTIZ_charged_linker_0, # of connection points: 3
#     Node 8, Type 1, BuildingBlock: NUHQIS_clean_sbu_0, # of connection points: 6
#     Node 9, Type 1, BuildingBlock: NUHQIS_clean_sbu_0, # of connection points: 6
#     Node 10, Type 1, BuildingBlock: NUHQIS_clean_sbu_0, # of connection points: 6
#     Node 11, Type 1, BuildingBlock: NUHQIS_clean_sbu_0, # of connection points: 6
#     Edge 12, Type (0, 1), BuildingBlock: UVAHIK_clean_linker_0, # of connection points: 2
#     Edge 13, Type (0, 1), BuildingBlock: UVAHIK_clean_linker_0, # of connection points: 2
#     Edge 14, Type (0, 1), BuildingBlock: UVAHIK_clean_linker_0, # of connection points: 2
#     Edge 15, Type (0, 1), BuildingBlock: UVAHIK_clean_linker_0, # of connection points: 2
#     Edge 16, Type (0, 1), BuildingBlock: UVAHIK_clean_linker_0, # of connection points: 2
#     Edge 17, Type (0, 1), BuildingBlock: UVAHIK_clean_linker_0, # of connection points: 2
#     Edge 18, Type (0, 1), BuildingBlock: UVAHIK_clean_linker_0, # of connection points: 2
#     Edge 19, Type (0, 1), BuildingBlock: UVAHIK_clean_linker_0, # of connection points: 2
#     Edge 20, Type (0, 1), BuildingBlock: UVAHIK_clean_linker_0, # of connection points: 2
#     Edge 21, Type (0, 1), BuildingBlock: UVAHIK_clean_linker_0, # of connection points: 2
#     Edge 22, Type (0, 1), BuildingBlock: UVAHIK_clean_linker_0, # of connection points: 2
#     Edge 23, Type (0, 1), BuildingBlock: UVAHIK_clean_linker_0, # of connection points: 2
#     Edge 24, Type (0, 1), BuildingBlock: UVAHIK_clean_linker_0, # of connection points: 2
#     Edge 25, Type (0, 1), BuildingBlock: UVAHIK_clean_linker_0, # of connection points: 2
#     Edge 26, Type (0, 1), BuildingBlock: UVAHIK_clean_linker_0, # of connection points: 2
#     Edge 27, Type (0, 1), BuildingBlock: UVAHIK_clean_linker_0, # of connection points: 2
#     Edge 28, Type (0, 1), BuildingBlock: UVAHIK_clean_linker_0, # of connection points: 2
#     Edge 29, Type (0, 1), BuildingBlock: UVAHIK_clean_linker_0, # of connection points: 2
#     Edge 30, Type (0, 1), BuildingBlock: UVAHIK_clean_linker_0, # of connection points: 2
#     Edge 31, Type (0, 1), BuildingBlock: UVAHIK_clean_linker_0, # of connection points: 2
#     Edge 32, Type (0, 1), BuildingBlock: UVAHIK_clean_linker_0, # of connection points: 2
#     Edge 33, Type (0, 1), BuildingBlock: UVAHIK_clean_linker_0, # of connection points: 2
#     Edge 34, Type (0, 1), BuildingBlock: UVAHIK_clean_linker_0, # of connection points: 2
#     Edge 35, Type (0, 1), BuildingBlock: UVAHIK_clean_linker_0, # of connection points: 2
# Relax obj value: 0.396
# Max RMSD: 0.261
# Mean RMSD: 0.234
data_MOF--net-zzz--node1-NUHQIS_clean_sbu_0--node2-VETTIZ_charged_linker_0--edge1-UVAHIK_clean_linker_0
_symmetry_space_group_name_H-M    P1
_symmetry_Int_Tables_number       1
_symmetry_cell_setting            triclinic
loop_
_symmetry_equiv_pos_as_xyz
'x, y, z'
_cell_length_a     73.370826
_cell_length_b     73.347853
_cell_length_c     23.397732
_cell_angle_alpha  89.847281
_cell_angle_beta   89.968928
_cell_angle_gamma 90.040883
loop_
_atom_site_label
_atom_site_type_symbol
_atom_site_fract_x
_atom_site_fract_y
_atom_site_fract_z
_atom_type_partial_charge
C0 C 0.79838 0.50423 0.31298 0.0
C1 C 0.81739 0.50115 0.31483 0.0
C2 C 0.82658 0.49635 0.26443 0.0
C3 C 0.79837 0.4977 0.211 0.0
C4 C 0.78913 0.50253 0.26023 0.0
C5 C 0.76904 0.50568 0.24835 0.0
H6 H 0.70119 0.50906 0.04682 0.0
C7 C 0.78526 0.4971 0.16321 0.0
C8 C 0.76791 0.50184 0.18425 0.0
H9 H 0.69494 0.52001 0.22663 0.0
H10 H 0.72726 0.51325 0.24217 0.0
H11 H 0.73871 0.52934 0.02911 0.0
H12 H 0.72355 0.47384 0.06252 0.0
H13 H 0.74274 0.4724 0.01817 0.0
H14 H 0.72239 0.4835 0.99218 0.0
H15 H 0.72819 0.51488 0.97693 0.0
H16 H 0.75259 0.51584 0.98518 0.0
C17 C 0.76449 0.52573 0.26226 0.0
C18 C 0.75786 0.4918 0.28356 0.0
C19 C 0.8078 0.47909 0.96562 0.0
C20 C 0.79897 0.47691 0.9127 0.0
C21 C 0.78014 0.48031 0.90889 0.0
C22 C 0.77027 0.4859 0.95698 0.0
C23 C 0.77927 0.48801 0.00968 0.0
C24 C 0.79771 0.48457 0.01333 0.0
C25 C 0.80493 0.48721 0.07288 0.0
C26 C 0.78772 0.49276 0.10456 0.0
C27 C 0.77286 0.49329 0.06725 0.0
C28 C 0.8192 0.50285 0.07104 0.0
C29 C 0.8124 0.46862 0.09424 0.0
C30 C 0.7068 0.5101 0.08957 0.0
C31 C 0.69574 0.51524 0.13534 0.0
C32 C 0.70336 0.51614 0.19063 0.0
C33 C 0.72206 0.51227 0.19941 0.0
C34 C 0.73307 0.50733 0.15242 0.0
C35 C 0.72513 0.50617 0.09888 0.0
C36 C 0.73811 0.50022 0.05351 0.0
C37 C 0.75544 0.49831 0.08768 0.0
C38 C 0.75273 0.50251 0.14585 0.0
C39 C 0.73948 0.51572 0.00839 0.0
C40 C 0.73141 0.48161 0.02982 0.0
H41 H 0.82517 0.49086 0.17624 0.0
H42 H 0.79104 0.50805 0.35127 0.0
H43 H 0.76397 0.47797 0.28029 0.0
H44 H 0.74372 0.49047 0.2682 0.0
H45 H 0.75758 0.49566 0.32944 0.0
H46 H 0.77496 0.53499 0.24373 0.0
H47 H 0.76417 0.52795 0.30921 0.0
H48 H 0.75134 0.53011 0.24415 0.0
H49 H 0.82222 0.47631 0.97011 0.0
H50 H 0.77309 0.47883 0.8685 0.0
H51 H 0.756 0.4884 0.95104 0.0
H52 H 0.81593 0.51291 0.03689 0.0
H53 H 0.83309 0.49752 0.06233 0.0
H54 H 0.81946 0.51099 0.11073 0.0
H55 H 0.80402 0.45714 0.07762 0.0
H56 H 0.81182 0.46709 0.14117 0.0
H57 H 0.82664 0.46644 0.07965 0.0
H58 H 0.84116 0.49395 0.26508 0.0
C59 C 0.81724 0.49457 0.21283 0.0
C60 C 0.06162 0.77241 0.96556 0.0
C61 C 0.06377 0.79121 0.9568 0.0
C62 C 0.05872 0.80343 1.00025 0.0
C63 C 0.04838 0.7783 0.059 0.0
C64 C 0.05372 0.76628 0.01679 0.0
C65 C 0.04904 0.74689 0.03178 0.0
H66 H 1.00203 0.68695 0.19357 0.0
C67 C 0.03959 0.76771 0.1052 0.0
C68 C 0.03988 0.74934 0.08975 0.0
H69 H 0.03554 0.67723 0.04471 0.0
H70 H 0.04515 0.70842 0.04426 0.0
H71 H 0.0237 0.73151 0.28958 0.0
H72 H 0.98641 0.72911 0.16289 0.0
H73 H 0.98832 0.7399 0.23059 0.0
H74 H 0.98562 0.71562 0.2272 0.0
H75 H 0.03555 0.71384 0.25466 0.0
H76 H 0.01331 0.70932 0.28368 0.0
C77 C 0.06706 0.7359 0.03637 0.0
C78 C 0.03556 0.73984 0.98579 0.0
C79 C 0.01452 0.80219 0.2738 0.0
C80 C 0.00568 0.79731 0.32456 0.0
C81 C 1.00184 0.77872 0.33487 0.0
C82 C 0.00651 0.76528 0.29401 0.0
C83 C 0.0154 0.77052 0.24303 0.0
C84 C 0.01935 0.78878 0.23447 0.0
C85 C 0.02928 0.79232 0.17981 0.0
C86 C 0.03106 0.7732 0.15667 0.0
C87 C 0.02271 0.76027 0.1929 0.0
C88 C 0.04812 0.80072 0.19461 0.0
C89 C 0.01693 0.80446 0.1415 0.0
C90 C 0.01138 0.69175 0.16104 0.0
C91 C 0.01787 0.67976 0.11841 0.0
C92 C 0.03037 0.68623 0.07762 0.0
C93 C 0.03584 0.70441 0.07721 0.0
C94 C 0.02878 0.71646 0.11796 0.0
C95 C 0.01735 0.71009 0.16057 0.0
C96 C 0.01305 0.72501 0.20339 0.0
C97 C 0.02255 0.74148 0.1764 0.0
C98 C 0.0315 0.73617 0.12581 0.0
C99 C 0.02172 0.7197 0.26119 0.0
C100 C 0.99221 0.72758 0.20655 0.0
H101 H 0.04745 0.80717 0.08232 0.0
H102 H 0.06532 0.76279 0.93247 0.0
H103 H 0.02528 0.75048 0.97521 0.0
H104 H 0.02754 0.72792 0.99959 0.0
H105 H 0.04286 0.73631 0.94571 0.0
H106 H 0.07895 0.74491 0.04497 0.0
H107 H 0.06998 0.72838 0.99625 0.0
H108 H 0.06692 0.72616 0.07265 0.0
H109 H 0.01788 0.81632 0.26505 0.0
H110 H 0.99503 0.77466 0.37395 0.0
H111 H 1.003 0.75138 0.30339 0.0
H112 H 0.0535 0.79503 0.23539 0.0
H113 H 0.04717 0.81575 0.19963 0.0
H114 H 0.05875 0.79756 0.16266 0.0
H115 H 1.00222 0.80201 0.15045 0.0
H116 H 0.01841 0.80149 0.09545 0.0
H117 H 0.01962 0.81917 0.14885 0.0
H118 H 0.06043 0.81799 0.99423 0.0
C119 C 0.05115 0.79709 0.05133 0.0
C120 C 0.82107 1.0032 0.15087 0.0
C121 C 0.83273 0.0139 0.11594 0.0
C122 C 0.82574 0.02991 0.09055 0.0
C123 C 0.79562 0.02224 0.12321 0.0
C124 C 0.80252 0.00812 0.15557 0.0
C125 C 0.78755 0.99931 0.19105 0.0
H126 H 0.69592 0.99093 0.23303 0.0
C127 C 0.77575 0.02186 0.12616 0.0
C128 C 0.77078 0.01017 0.17125 0.0
H129 H 0.73388 0.99979 0.37107 0.0
H130 H 0.7582 1.00527 0.30125 0.0
H131 H 0.70831 0.02633 0.17512 0.0
H132 H 0.7229 0.97082 0.1362 0.0
H133 H 0.72282 0.98283 0.07109 0.0
H134 H 0.70193 0.98062 0.11155 0.0
H135 H 0.69245 0.00963 0.14893 0.0
H136 H 0.70615 0.02276 0.101 0.0
C137 C 0.79191 1.00157 0.25496 0.0
C138 C 0.7857 0.97901 0.17531 0.0
C139 C 0.74272 0.03934 0.94273 0.0
C140 C 0.72612 0.03351 0.91946 0.0
C141 C 0.71525 0.02099 0.94982 0.0
C142 C 0.72052 0.01487 1.00404 0.0
C143 C 0.73682 0.02135 0.02795 0.0
C144 C 0.74807 0.03263 0.99632 0.0
C145 C 0.76581 0.03648 0.02629 0.0
C146 C 0.76313 0.02567 0.08159 0.0
C147 C 0.74583 0.01755 0.08289 0.0
C148 C 0.76692 0.05717 0.038 0.0
C149 C 0.78175 0.02932 0.98874 0.0
C150 C 0.70965 0.99302 0.24867 0.0
C151 C 0.713 0.99446 0.30764 0.0
C152 C 0.73105 0.99783 0.32609 0.0
C153 C 0.74524 1.00045 0.2861 0.0
C154 C 0.74153 0.99898 0.22743 0.0
C155 C 0.72378 0.99609 0.20958 0.0
C156 C 0.7212 1.00072 0.1473 0.0
C157 C 0.73996 0.00806 0.1324 0.0
C158 C 0.75212 1.00544 0.17776 0.0
C159 C 0.70622 0.01557 0.14232 0.0
C160 C 0.71686 0.98292 0.11454 0.0
H161 H 0.80255 0.04657 0.07528 0.0
H162 H 0.8262 0.99125 0.17279 0.0
H163 H 0.78326 0.9774 0.12868 0.0
H164 H 0.77407 0.97273 0.19859 0.0
H165 H 0.79827 0.97139 0.1868 0.0
H166 H 0.78931 0.01578 0.26915 0.0
H167 H 0.80643 0.99831 0.26371 0.0
H168 H 0.78383 0.99191 0.28125 0.0
H169 H 0.75134 0.04881 0.91957 0.0
H170 H 0.70239 0.01639 0.93223 0.0
H171 H 0.71157 1.00559 0.02576 0.0
H172 H 0.75363 0.06242 0.05394 0.0
H173 H 0.77044 0.06476 0.99834 0.0
H174 H 0.77703 0.06051 0.07131 0.0
H175 H 0.7861 0.01546 1.00231 0.0
H176 H 0.79367 0.03857 0.98936 0.0
H177 H 0.77798 0.02835 0.94287 0.0
H178 H 0.83435 0.03867 0.06476 0.0
C179 C 0.80728 0.03421 0.09473 0.0
C180 C 0.50445 0.71828 0.30084 0.0
C181 C 0.49652 0.70119 0.31407 0.0
C182 C 0.48209 0.69473 0.28021 0.0
C183 C 0.48359 0.72169 0.22064 0.0
C184 C 0.49756 0.72844 0.25412 0.0
C185 C 0.50332 0.74732 0.23432 0.0
H186 H 0.49439 0.81466 0.03222 0.0
C187 C 0.47952 0.73505 0.17516 0.0
C188 C 0.4909 0.75031 0.18266 0.0
H189 H 0.52912 0.81628 0.18068 0.0
H190 H 0.51812 0.78619 0.21004 0.0
H191 H 0.50114 0.77284 0.9998 0.0
H192 H 0.46016 0.80098 0.09656 0.0
H193 H 0.44866 0.7834 0.06094 0.0
H194 H 0.46012 0.80088 0.01991 0.0
H195 H 0.48426 0.7873 0.96773 0.0
H196 H 0.48007 0.76342 0.98018 0.0
C197 C 0.52362 0.74666 0.21712 0.0
C198 C 0.49922 0.76097 0.28276 0.0
C199 C 0.43465 0.71745 0.01966 0.0
C200 C 0.42876 0.72614 0.96923 0.0
C201 C 0.43443 0.74421 0.95856 0.0
C202 C 0.44636 0.75311 0.99612 0.0
C203 C 0.45276 0.74388 0.04494 0.0
C204 C 0.44654 0.72652 0.05661 0.0
C205 C 0.45472 0.71875 0.11025 0.0
C206 C 0.46725 0.73419 0.12833 0.0
C207 C 0.46614 0.74876 0.08977 0.0
C208 C 0.46555 0.70137 0.09374 0.0
C209 C 0.43908 0.71554 0.1539 0.0
C210 C 0.49973 0.80848 0.0709 0.0
C211 C 0.51275 0.81759 0.10377 0.0
C212 C 0.51911 0.80935 0.15454 0.0
C213 C 0.5127 0.79196 0.17142 0.0
C214 C 0.4996 0.78295 0.13759 0.0
C215 C 0.49327 0.79148 0.08862 0.0
C216 C 0.47891 0.78072 0.05841 0.0
C217 C 0.47754 0.76417 0.09676 0.0
C218 C 0.4898 0.7652 0.14307 0.0
C219 C 0.48628 0.77584 0.99819 0.0
C220 C 0.46101 0.79201 0.05836 0.0
H221 H 0.46473 0.69889 0.20987 0.0
H222 H 0.51544 0.72365 0.32666 0.0
H223 H 0.49825 0.77516 0.26733 0.0
H224 H 0.50977 0.76021 0.31671 0.0
H225 H 0.48579 0.75794 0.30276 0.0
H226 H 0.52625 0.73481 0.18873 0.0
H227 H 0.53244 0.74524 0.25545 0.0
H228 H 0.52797 0.75888 0.19318 0.0
H229 H 0.43085 0.70349 0.02902 0.0
H230 H 0.42995 0.75134 0.9205 0.0
H231 H 0.45045 0.76669 0.98483 0.0
H232 H 0.47646 0.69792 0.12431 0.0
H233 H 0.47267 0.70332 0.05215 0.0
H234 H 0.45634 0.68943 0.08932 0.0
H235 H 0.42725 0.72465 0.14542 0.0
H236 H 0.44317 0.7188 0.19827 0.0
H237 H 0.43402 0.70128 0.15222 0.0
H238 H 0.47587 0.68163 0.28935 0.0
C239 C 0.47564 0.7048 0.23385 0.0
C240 C 0.31941 0.51033 0.22399 0.0
C241 C 0.33127 0.51823 0.26461 0.0
C242 C 0.32531 0.53336 0.29624 0.0
C243 C 0.29632 0.53294 0.24743 0.0
C244 C 0.30197 0.51812 0.21558 0.0
C245 C 0.28742 0.51242 0.17309 0.0
H246 H 0.20382 0.53117 0.05518 0.0
C247 C 0.27786 0.53817 0.22901 0.0
C248 C 0.27246 0.52647 0.18453 0.0
H249 H 0.23875 0.48603 0.01196 0.0
H250 H 0.26105 0.49612 0.0828 0.0
H251 H 0.20652 0.52493 0.18163 0.0
H252 H 0.23474 0.56231 0.07176 0.0
H253 H 0.22844 0.5745 0.13337 0.0
H254 H 0.21103 0.56412 0.0899 0.0
H255 H 0.1968 0.54649 0.16243 0.0
H256 H 0.21093 0.54381 0.22505 0.0
C257 C 0.28117 0.49289 0.18824 0.0
C258 C 0.29531 0.51422 0.11218 0.0
C259 C 0.24413 0.58716 0.3398 0.0
C260 C 0.22621 0.59391 0.33608 0.0
C261 C 0.21556 0.58914 0.2881 0.0
C262 C 0.22218 0.5771 0.24678 0.0
C263 C 0.23955 0.56941 0.25353 0.0
C264 C 0.2504 0.57484 0.29854 0.0
C265 C 0.26838 0.56501 0.2992 0.0
C266 C 0.26606 0.55211 0.24886 0.0
C267 C 0.24921 0.55479 0.22243 0.0
C268 C 0.26989 0.55455 0.35673 0.0
C269 C 0.28367 0.57929 0.28858 0.0
C270 C 0.21642 0.52362 0.06029 0.0
C271 C 0.21977 0.50808 0.02746 0.0
C272 C 0.23602 0.4982 0.03662 0.0
C273 C 0.24889 0.50407 0.07766 0.0
C274 C 0.24524 0.51977 0.11046 0.0
C275 C 0.22904 0.52902 0.10157 0.0
C276 C 0.22627 0.54433 0.14269 0.0
C277 C 0.24374 0.54339 0.17674 0.0
C278 C 0.25509 0.5291 0.15791 0.0
C279 C 0.20923 0.53985 0.17979 0.0
C280 C 0.2249 0.56232 0.108 0.0
H281 H 0.30447 0.55216 0.31384 0.0
H282 H 0.32372 0.49871 0.19898 0.0
H283 H 0.30227 0.5276 0.10686 0.0
H284 H 0.28472 0.51365 0.07884 0.0
H285 H 0.30544 0.5033 0.10372 0.0
H286 H 0.26787 0.48942 0.16926 0.0
H287 H 0.27937 0.4914 0.23524 0.0
H288 H 0.29142 0.4827 0.17419 0.0
H289 H 0.25285 0.59075 0.37537 0.0
H290 H 0.20164 0.59383 0.28393 0.0
H291 H 0.21317 0.57372 0.21234 0.0
H292 H 0.25655 0.54835 0.36853 0.0
H293 H 0.27396 0.56384 0.3919 0.0
H294 H 0.27953 0.54303 0.35536 0.0
H295 H 0.29006 0.58368 0.32931 0.0
H296 H 0.2784 0.59175 0.26699 0.0
H297 H 0.2944 0.57414 0.25945 0.0
H298 H 0.33412 0.53952 0.32796 0.0
C299 C 0.30803 0.5407 0.28795 0.0
C300 C 0.9138 0.23532 0.3136 0.0
C301 C 0.90629 0.2177 0.30882 0.0
C302 C 0.91075 0.20718 0.26033 0.0
C303 C 0.93204 0.23028 0.22849 0.0
C304 C 0.92677 0.2412 0.27348 0.0
C305 C 0.93768 0.25857 0.27594 0.0
H306 H 0.0125 0.3065 0.20015 0.0
C307 C 0.94773 0.23904 0.19982 0.0
C308 C 0.95115 0.2556 0.22725 0.0
H309 H 0.96861 0.32189 0.3134 0.0
H310 H 0.95237 0.2945 0.29009 0.0
H311 H 0.01272 0.26174 0.22898 0.0
H312 H 0.98346 0.29087 0.09603 0.0
H313 H 0.99511 0.27172 0.06852 0.0
H314 H 0.00796 0.29034 0.09806 0.0
H315 H 0.02451 0.27373 0.17292 0.0
H316 H 0.01544 0.25124 0.16157 0.0
C317 C 0.94731 0.25933 0.33486 0.0
C318 C 0.92461 0.27477 0.26392 0.0
C319 C 0.97962 0.20429 0.04299 0.0
C320 C 0.99582 0.20669 0.01219 0.0
C321 C 0.00676 0.22209 0.02412 0.0
C322 C 1.00126 0.23506 0.06531 0.0
C323 C 0.98479 0.23246 0.0954 0.0
C324 C 0.97449 0.21708 0.08408 0.0
C325 C 0.95814 0.21542 0.12195 0.0
C326 C 0.95967 0.23274 0.15651 0.0
C327 C 0.97525 0.2429 0.14119 0.0
C328 C 0.96049 0.19801 0.15941 0.0
C329 C 0.94088 0.21549 0.08372 0.0
C330 C 0.99939 0.3038 0.21966 0.0
C331 C 0.99181 0.3162 0.25917 0.0
C332 C 0.97464 0.3125 0.28311 0.0
C333 C 0.96525 0.29655 0.26962 0.0
C334 C 0.97304 0.284 0.2317 0.0
C335 C 0.98955 0.28784 0.20578 0.0
C336 C 0.99469 0.27317 0.16314 0.0
C337 C 0.97874 0.25988 0.16911 0.0
C338 C 0.96641 0.26629 0.21059 0.0
C339 C 0.01287 0.26449 0.18219 0.0
C340 C 0.99547 0.28189 0.10308 0.0
H341 H 0.92655 0.20447 0.18536 0.0
H342 H 0.91041 0.24399 0.34943 0.0
H343 H 0.91185 0.2703 0.24239 0.0
H344 H 0.93069 0.28491 0.23426 0.0
H345 H 0.92058 0.28174 0.30408 0.0
H346 H 0.95337 0.24585 0.34565 0.0
H347 H 0.93751 0.26292 0.36924 0.0
H348 H 0.9587 0.26911 0.3364 0.0
H349 H 0.97118 0.19236 0.03619 0.0
H350 H 0.01941 0.22417 1.00117 0.0
H351 H 0.01005 0.24653 0.0725 0.0
H352 H 0.97503 0.19386 0.163 0.0
H353 H 0.95291 0.18627 0.14123 0.0
H354 H 0.95613 0.20009 0.20419 0.0
H355 H 0.9424 0.22541 0.04796 0.0
H356 H 0.92849 0.21982 0.1068 0.0
H357 H 0.93845 0.20183 0.06475 0.0
H358 H 0.90545 0.19351 0.2551 0.0
C359 C 0.9234 0.21343 0.22009 0.0
C360 C 0.29465 0.01022 0.04959 0.0
C361 C 0.31363 0.00677 0.04954 0.0
C362 C 0.32266 1.00449 0.10206 0.0
C363 C 0.29438 0.00864 0.15358 0.0
C364 C 0.28523 0.01094 0.10238 0.0
C365 C 0.26493 0.01354 0.11218 0.0
H366 H 0.19624 0.02347 0.30905 0.0
C367 C 0.28114 0.01005 0.20086 0.0
C368 C 0.26372 0.01306 0.17744 0.0
H369 H 0.18955 0.02155 0.12611 0.0
H370 H 0.22252 0.01792 0.11428 0.0
H371 H 0.22004 0.99055 0.31467 0.0
H372 H 0.23299 0.04754 0.31359 0.0
H373 H 0.24715 0.03744 0.36527 0.0
H374 H 0.22273 0.03599 0.3732 0.0
H375 H 0.21909 1.00397 0.37848 0.0
H376 H 0.2396 0.99224 0.35707 0.0
C377 C 0.25476 0.99734 0.08478 0.0
C378 C 0.25924 0.03222 0.08766 0.0
C379 C 0.30318 1.00102 0.40498 0.0
C380 C 0.29411 1.0008 0.45799 0.0
C381 C 0.2755 1.00534 0.46011 0.0
C382 C 0.26595 0.00959 0.41002 0.0
C383 C 0.27504 0.00907 0.35703 0.0
C384 C 0.2934 1.00511 0.35528 0.0
C385 C 0.30073 1.00491 0.29523 0.0
C386 C 0.28359 0.00896 0.26101 0.0
C387 C 0.26869 0.01136 0.29746 0.0
C388 C 0.30818 0.98551 0.283 0.0
C389 C 0.31502 0.02043 0.2899 0.0
C390 C 0.20185 0.0226 0.26626 0.0
C391 C 0.19043 0.02319 0.21854 0.0
C392 C 0.19819 0.0213 0.1636 0.0
C393 C 0.21726 0.01914 0.15692 0.0
C394 C 0.22852 0.01842 0.20578 0.0
C395 C 0.22052 0.02001 0.25914 0.0
C396 C 0.23368 0.01752 0.30711 0.0
C397 C 0.25116 0.01456 0.27451 0.0
C398 C 0.24841 0.01525 0.21488 0.0
C399 C 0.22786 1.0003 0.34158 0.0
C400 C 0.23418 0.03544 0.34214 0.0
H401 H 0.32108 1.0036 0.19182 0.0
H402 H 0.28735 0.01193 0.00974 0.0
H403 H 0.26864 0.04307 0.10289 0.0
H404 H 0.24542 0.03625 0.10114 0.0
H405 H 0.25968 0.0321 0.04019 0.0
H406 H 0.24084 0.99562 0.10173 0.0
H407 H 0.26193 0.98431 0.09414 0.0
H408 H 0.25403 0.99895 0.03761 0.0
H409 H 0.31744 0.99735 0.40185 0.0
H410 H 0.26829 1.00542 0.50052 0.0
H411 H 0.25178 0.01281 0.41458 0.0
H412 H 0.29987 0.97495 0.30521 0.0
H413 H 0.32246 0.98405 0.2981 0.0
H414 H 0.3075 0.98174 0.23739 0.0
H415 H 0.3117 0.03199 0.31878 0.0
H416 H 0.3154 0.02661 0.24675 0.0
H417 H 0.32887 0.01555 0.30137 0.0
H418 H 0.33722 1.00203 0.10315 0.0
C419 C 0.31323 1.00549 0.1537 0.0
C420 C 0.49817 0.28621 0.06172 0.0
C421 C 0.49853 0.30547 0.06345 0.0
C422 C 0.49602 0.31434 0.11597 0.0
C423 C 0.49378 0.28532 0.16486 0.0
C424 C 0.49572 0.27636 0.11328 0.0
C425 C 0.49533 0.25582 0.12152 0.0
H426 H 0.48577 0.18467 0.31056 0.0
C427 C 0.49206 0.27164 0.21088 0.0
C428 C 0.49257 0.25416 0.18613 0.0
H429 H 0.49694 0.18001 0.13039 0.0
H430 H 0.49621 0.21326 0.12074 0.0
H431 H 0.51449 0.21127 0.33011 0.0
H432 H 0.45713 0.21877 0.30779 0.0
H433 H 0.46381 0.23279 0.36509 0.0
H434 H 0.46754 0.20853 0.36943 0.0
H435 H 0.49922 0.21027 0.38967 0.0
H436 H 0.51002 0.23131 0.3679 0.0
C437 C 0.51392 0.24804 0.10259 0.0
C438 C 0.47906 0.24798 0.08788 0.0
C439 C 0.49499 0.29229 0.41761 0.0
C440 C 0.49614 0.28246 0.46914 0.0
C441 C 0.49232 0.26368 0.46929 0.0
C442 C 0.48847 0.25459 0.41819 0.0
C443 C 0.48898 0.26429 0.36621 0.0
C444 C 0.4916 0.28292 0.36665 0.0
C445 C 0.49228 0.29084 0.30726 0.0
C446 C 0.49069 0.27369 0.2711 0.0
C447 C 0.48877 0.2583 0.30593 0.0
C448 C 0.51102 0.30034 0.29942 0.0
C449 C 0.47557 0.30359 0.29967 0.0
C450 C 0.48765 0.19078 0.26872 0.0
C451 C 0.49098 0.17985 0.22108 0.0
C452 C 0.49413 0.18828 0.16764 0.0
C453 C 0.49377 0.20751 0.16228 0.0
C454 C 0.49072 0.21832 0.21118 0.0
C455 C 0.48789 0.2097 0.26318 0.0
C456 C 0.48691 0.22265 0.31217 0.0
C457 C 0.48874 0.24068 0.28145 0.0
C458 C 0.49084 0.23838 0.22199 0.0
C459 C 0.50336 0.21872 0.3524 0.0
C460 C 0.46793 0.2206 0.34066 0.0
H461 H 0.49188 0.31214 0.2048 0.0
H462 H 0.50006 0.27908 0.0217 0.0
H463 H 0.46648 0.25592 0.09701 0.0
H464 H 0.47604 0.23372 0.09952 0.0
H465 H 0.48166 0.24865 0.04113 0.0
H466 H 0.52525 0.25671 0.11865 0.0
H467 H 0.51492 0.24755 0.05523 0.0
H468 H 0.5165 0.23428 0.11987 0.0
H469 H 0.49807 0.30674 0.41641 0.0
H470 H 0.49304 0.25593 0.50871 0.0
H471 H 0.48602 0.24022 0.42105 0.0
H472 H 0.52207 0.29204 0.31903 0.0
H473 H 0.51115 0.31394 0.32019 0.0
H474 H 0.51505 0.30204 0.25434 0.0
H475 H 0.46435 0.30001 0.3297 0.0
H476 H 0.46937 0.30241 0.25667 0.0
H477 H 0.47925 0.31805 0.30761 0.0
H478 H 0.49616 0.32911 0.11804 0.0
C479 C 0.49354 0.30444 0.16635 0.0
Tb480 Tb 0.02312 0.999 0.69257 0.0
Eu481 Eu 0.99092 0.01276 0.60519 0.0
C482 C 0.03259 0.00975 0.56581 0.0
C483 C 0.00925 0.03996 0.69528 0.0
C484 C 0.06235 0.97298 0.7465 0.0
C485 C 0.08079 0.95379 0.68464 0.0
C486 C 0.0699 0.96921 0.69259 0.0
C487 C 0.06633 0.9615 0.79263 0.0
C488 C 0.07705 0.946 0.78466 0.0
C489 C 0.08412 0.94173 0.73029 0.0
C490 C 0.04896 0.98769 0.75405 0.0
O491 O 0.99965 1.0034 0.74827 0.0
O492 O 0.97677 1.00074 0.68202 0.0
O493 O 0.99868 0.98475 0.57494 0.0
O494 O 0.01116 0.9739 0.6583 0.0
C495 C 0.98238 1.00098 0.73532 0.0
O496 O 0.96423 0.00904 0.56569 0.0
O497 O 0.98088 0.03231 0.54249 0.0
O498 O 0.01778 0.01974 0.56335 0.0
O499 O 0.03502 0.99791 0.60727 0.0
O500 O 0.0233 0.02882 0.698 0.0
O501 O 0.99406 0.03516 0.66984 0.0
C502 C 1.00431 0.97115 0.607 0.0
O503 O 0.05029 1.00157 0.71933 0.0
O504 O 0.03212 0.98232 0.75999 0.0
C505 C 0.94933 0.03678 0.54494 0.0
C506 C 0.92262 0.06411 0.55652 0.0
C507 C 0.92828 0.05823 0.50204 0.0
C508 C 0.9415 0.04468 0.4964 0.0
C509 C 0.94327 0.04198 0.59942 0.0
C510 C 0.92995 0.05549 0.60517 0.0
C511 C 0.96496 0.02453 0.53825 0.0
H512 H 0.08616 0.95107 0.64241 0.0
H513 H 0.06692 0.97784 0.65617 0.0
H514 H 0.0605 0.96409 0.83439 0.0
H515 H 0.07893 0.9369 0.82065 0.0
H516 H 0.92326 0.06476 0.46361 0.0
H517 H 0.94616 0.04092 0.45408 0.0
H518 H 0.94928 0.03603 0.63744 0.0
H519 H 0.9258 0.05955 0.64769 0.0
Tb520 Tb 0.51586 0.0153 0.70669 0.0
Eu521 Eu 0.50229 0.98277 0.62173 0.0
C522 C 0.50535 0.02382 0.57741 0.0
C523 C 0.47459 1.00326 0.70799 0.0
C524 C 0.54203 0.05481 0.74681 0.0
C525 C 0.56054 0.06696 0.66939 0.0
C526 C 0.54466 0.05836 0.68833 0.0
C527 C 0.55476 0.06126 0.7864 0.0
C528 C 0.57069 0.0698 0.7675 0.0
C529 C 0.57415 0.07193 0.70859 0.0
C530 C 0.52846 0.04124 0.7647 0.0
O531 O 0.52252 0.98969 0.75059 0.0
O532 O 0.50035 0.97194 0.71125 0.0
O533 O 0.5331 0.98225 0.61944 0.0
O534 O 0.53798 0.01188 0.64556 0.0
C535 C 0.51227 0.97498 0.75164 0.0
O536 O 0.50423 0.95422 0.5965 0.0
O537 O 0.4852 0.97216 0.55321 0.0
O538 O 0.50735 0.00664 0.56313 0.0
O539 O 0.50457 0.02886 0.63129 0.0
O540 O 0.48863 0.00886 0.73829 0.0
O541 O 0.47675 0.99593 0.65713 0.0
C542 C 0.5438 0.99656 0.62314 0.0
O543 O 0.51274 0.04189 0.73885 0.0
O544 O 0.53476 0.02467 0.76707 0.0
C545 C 0.47448 0.94323 0.57883 0.0
C546 C 0.44052 0.9301 0.61726 0.0
C547 C 0.45566 0.93009 0.65402 0.0
C548 C 0.47246 0.9367 0.6351 0.0
C549 C 0.45997 0.94138 0.54045 0.0
C550 C 0.44312 0.93491 0.55945 0.0
C551 C 0.48982 0.95529 0.56389 0.0
H552 H 0.5627 0.06857 0.62386 0.0
H553 H 0.53509 0.0533 0.6569 0.0
H554 H 0.55307 0.05841 0.83157 0.0
H555 H 0.58095 0.07324 0.79892 0.0
H556 H 0.45422 0.92617 0.69845 0.0
H557 H 0.48343 0.93795 0.66582 0.0
H558 H 0.46119 0.94642 0.49703 0.0
H559 H 0.43178 0.93529 0.52989 0.0
Tb560 Tb 0.49912 0.51253 0.73973 0.0
Eu561 Eu 0.52977 0.49735 0.64977 0.0
C562 C 0.488 0.50109 0.61317 0.0
C563 C 0.51038 0.47111 0.74151 0.0
C564 C 0.45902 0.53686 0.79466 0.0
C565 C 0.4399 0.55388 0.72873 0.0
C566 C 0.4529 0.54034 0.73886 0.0
C567 C 0.45151 0.54652 0.84037 0.0
C568 C 0.43863 0.56015 0.83032 0.0
C569 C 0.43301 0.56435 0.77421 0.0
C570 C 0.47463 0.52483 0.80478 0.0
O571 O 0.52526 0.5192 0.77926 0.0
O572 O 0.54254 0.49714 0.73711 0.0
O573 O 0.53049 0.528 0.64099 0.0
O574 O 0.50194 0.53419 0.67608 0.0
C575 C 0.5401 0.50923 0.77745 0.0
O576 O 0.5581 0.49719 0.62101 0.0
O577 O 0.53838 0.47944 0.58055 0.0
O578 O 0.50494 0.50232 0.59539 0.0
O579 O 0.48384 0.50126 0.66791 0.0
O580 O 0.50657 0.4856 0.77231 0.0
O581 O 0.51591 0.4727 0.68836 0.0
C582 C 0.51663 0.53915 0.64767 0.0
O583 O 0.47394 0.50879 0.78102 0.0
O584 O 0.49048 0.53252 0.79759 0.0
C585 C 0.56629 0.46656 0.60534 0.0
C586 C 0.57538 0.43103 0.63985 0.0
C587 C 0.57313 0.44478 0.6807 0.0
C588 C 0.56867 0.46242 0.66358 0.0
C589 C 0.57034 0.45329 0.56427 0.0
C590 C 0.57499 0.43561 0.58146 0.0
C591 C 0.55563 0.48275 0.58939 0.0
H592 H 0.43575 0.55659 0.68512 0.0
H593 H 0.45872 0.53309 0.70294 0.0
H594 H 0.45624 0.54413 0.88361 0.0
H595 H 0.43396 0.56811 0.86636 0.0
H596 H 0.5733 0.44152 0.7259 0.0
H597 H 0.5655 0.47236 0.69619 0.0
H598 H 0.56837 0.45615 0.51924 0.0
H599 H 0.57646 0.42514 0.54921 0.0
Tb600 Tb 0.00719 0.48158 0.73891 0.0
Eu601 Eu 0.01962 0.51312 0.64776 0.0
C602 C 0.01763 0.47147 0.61275 0.0
C603 C 0.04783 0.49513 0.73911 0.0
C604 C 0.98232 0.44148 0.78054 0.0
C605 C 0.96584 0.42761 0.7017 0.0
C606 C 0.98137 0.43629 0.7228 0.0
C607 C 0.96829 0.43642 0.81782 0.0
C608 C 0.9527 0.42786 0.79671 0.0
C609 C 0.95089 0.42423 0.73781 0.0
C610 C 0.99537 0.45555 0.79836 0.0
O611 O 1.0015 0.50726 0.78336 0.0
O612 O 0.02012 0.52678 0.73329 0.0
O613 O 0.98891 0.51353 0.64908 0.0
O614 O 0.98455 0.48414 0.67862 0.0
C615 C 0.00983 0.52309 0.77766 0.0
O616 O 0.01656 0.54038 0.61199 0.0
O617 O 0.03681 0.52202 0.57682 0.0
O618 O 0.01354 0.488 0.59576 0.0
O619 O 0.02041 0.46798 0.66708 0.0
O620 O 0.03405 0.48919 0.76993 0.0
O621 O 0.04552 0.50202 0.68756 0.0
C622 C 0.97838 0.49917 0.65493 0.0
O623 O 0.01123 0.45536 0.77327 0.0
O624 O 0.9885 0.47191 0.79973 0.0
C625 C 0.04449 0.55303 0.58234 0.0
C626 C 0.07347 0.57814 0.5899 0.0
C627 C 0.06479 0.57171 0.63966 0.0
C628 C 0.05048 0.55919 0.63592 0.0
C629 C 0.05264 0.55983 0.53263 0.0
C630 C 0.06702 0.57225 0.53631 0.0
C631 C 0.0306 0.53869 0.57816 0.0
H632 H 0.96503 0.42474 0.65639 0.0
H633 H 0.99199 0.4402 0.69298 0.0
H634 H 0.96867 0.44051 0.86228 0.0
H635 H 0.94144 0.42569 0.82587 0.0
H636 H 0.06929 0.57606 0.68153 0.0
H637 H 0.04437 0.55401 0.67488 0.0
H638 H 0.04827 0.5551 0.491 0.0
H639 H 0.07359 0.57659 0.49712 0.0
C640 C 0.15868 0.01044 0.21485 0.0
C641 C 0.17051 0.02479 0.22895 0.0
C642 C 0.14119 0.0095 0.23916 0.0
C643 C 0.10729 0.03555 0.32752 0.0
H644 H 0.09563 0.98775 0.38834 0.0
C645 C 0.04421 0.02322 0.47331 0.0
C646 C 0.04667 0.01141 0.52015 0.0
C647 C 0.05758 0.02474 0.43065 0.0
C648 C 0.09869 1.00122 0.37194 0.0
H649 H 0.17296 0.05 0.27613 0.0
H650 H 0.14268 0.04849 0.31817 0.0
H651 H 0.12138 0.99131 0.32375 0.0
H652 H 0.06526 0.99191 0.55841 0.0
H653 H 0.08858 0.99479 0.48519 0.0
H654 H 0.08514 0.0456 0.37804 0.0
C655 C 0.14663 0.03797 0.28828 0.0
C656 C 0.11334 1.00323 0.33399 0.0
C657 C 0.16404 0.03886 0.26417 0.0
C658 C 0.06282 1.00112 0.52306 0.0
C659 C 0.07618 1.00267 0.48058 0.0
C660 C 0.09266 0.03355 0.36562 0.0
C661 C 0.1352 0.02292 0.27794 0.0
C662 C 0.11809 0.02048 0.31207 0.0
C663 C 0.07379 0.0145 0.43372 0.0
C664 C 0.08838 0.01642 0.3893 0.0
H665 H 0.16341 0.99931 0.18837 0.0
H666 H 0.13267 0.99786 0.22941 0.0
H667 H 0.11036 0.04902 0.31106 0.0
H668 H 0.03191 0.03131 0.46943 0.0
H669 H 0.05513 0.03385 0.39499 0.0
C670 C 0.47718 0.15031 0.25145 0.0
C671 C 0.49239 0.15992 0.23073 0.0
C672 C 0.47927 0.13321 0.27742 0.0
C673 C 0.48702 0.09433 0.31957 0.0
H674 H 0.52514 0.09506 0.43431 0.0
C675 C 0.50175 0.03339 0.47422 0.0
C676 C 0.50416 0.03807 0.53205 0.0
C677 C 0.5009 0.04694 0.43182 0.0
C678 C 0.51445 0.09461 0.40244 0.0
H679 H 0.52159 0.15893 0.21879 0.0
H680 H 0.52533 0.12894 0.26389 0.0
H681 H 0.52264 0.12017 0.3662 0.0
H682 H 0.50763 0.0608 0.59025 0.0
H683 H 0.50634 0.08427 0.51656 0.0
H684 H 0.4786 0.06891 0.35696 0.0
C685 C 0.51175 0.1346 0.25995 0.0
C686 C 0.51314 0.10891 0.3629 0.0
C687 C 0.50961 0.15163 0.23336 0.0
C688 C 0.50575 0.05663 0.54628 0.0
C689 C 0.50513 0.07012 0.50391 0.0
C690 C 0.48846 0.07989 0.3588 0.0
C691 C 0.49668 0.12548 0.28412 0.0
C692 C 0.49923 0.10913 0.32152 0.0
C693 C 0.50271 0.06548 0.44614 0.0
C694 C 0.50199 0.08003 0.40142 0.0
H695 H 0.46382 0.15659 0.251 0.0
H696 H 0.4674 0.1267 0.29591 0.0
H697 H 0.4762 0.09403 0.28815 0.0
H698 H 0.50048 0.01924 0.46166 0.0
H699 H 0.49911 0.0429 0.38769 0.0
C700 C 0.35275 0.4949 0.30498 0.0
C701 C 0.34997 0.51147 0.27603 0.0
C702 C 0.36948 0.49135 0.33211 0.0
C703 C 0.40393 0.51767 0.40571 0.0
H704 H 0.43285 0.4735 0.41338 0.0
C705 C 0.45497 0.50409 0.58748 0.0
C706 C 0.47292 0.49997 0.57082 0.0
C707 C 0.44078 0.50403 0.54761 0.0
C708 C 0.4249 0.48592 0.41141 0.0
H709 H 0.36279 0.5366 0.2487 0.0
H710 H 0.39188 0.53041 0.29543 0.0
H711 H 0.40702 0.47542 0.34633 0.0
H712 H 0.48987 0.49197 0.4992 0.0
H713 H 0.46483 0.49145 0.42958 0.0
H714 H 0.4213 0.52805 0.47158 0.0
C715 C 0.38121 0.52021 0.2977 0.0
C716 C 0.41012 0.48698 0.37332 0.0
C717 C 0.36463 0.52368 0.27051 0.0
C718 C 0.47622 0.49528 0.51342 0.0
C719 C 0.4619 0.49488 0.47363 0.0
C720 C 0.41839 0.51649 0.44434 0.0
C721 C 0.38356 0.50441 0.33097 0.0
C722 C 0.39954 0.50294 0.36994 0.0
C723 C 0.44408 0.49953 0.49022 0.0
C724 C 0.42903 0.50062 0.44774 0.0
H725 H 0.34157 0.48541 0.3106 0.0
H726 H 0.3709 0.47908 0.35756 0.0
H727 H 0.39591 0.53007 0.40466 0.0
H728 H 0.45188 0.50777 0.63122 0.0
H729 H 0.42717 0.50758 0.56167 0.0
C730 C 0.01466 0.33152 0.32164 0.0
C731 C 1.00142 0.33282 0.27859 0.0
C732 C 0.01994 0.34703 0.35241 0.0
C733 C 0.01802 0.39768 0.35712 0.0
H734 H 0.01421 0.39035 0.5208 0.0
C735 C 0.01152 0.45821 0.51541 0.0
C736 C 0.01877 0.45632 0.57071 0.0
C737 C 0.01156 0.44349 0.47726 0.0
C738 C 0.01572 0.39271 0.47535 0.0
H739 H 0.98386 0.35131 0.23214 0.0
H740 H 0.99342 0.37852 0.28456 0.0
H741 H 0.01189 0.36438 0.45704 0.0
H742 H 0.03231 0.43757 0.62851 0.0
H743 H 0.03301 0.41223 0.56177 0.0
H744 H 0.0219 0.42602 0.37533 0.0
C745 C 0.99982 0.3656 0.29459 0.0
C746 C 0.01436 0.37772 0.43867 0.0
C747 C 0.99439 0.35005 0.26435 0.0
C748 C 0.02648 0.4395 0.5864 0.0
C749 C 0.02674 0.42487 0.54809 0.0
C750 C 0.01961 0.41268 0.39389 0.0
C751 C 0.01213 0.36416 0.34046 0.0
C752 C 0.01529 0.38002 0.37908 0.0
C753 C 0.01904 0.42652 0.49316 0.0
C754 C 0.01828 0.41046 0.45362 0.0
H755 H 0.01998 0.31832 0.33415 0.0
H756 H 0.02957 0.3455 0.38714 0.0
H757 H 0.0189 0.3999 0.31142 0.0
H758 H 1.00534 0.47093 0.50203 0.0
H759 H 1.00524 0.44532 0.43586 0.0
C760 C 0.86562 0.02109 0.09685 0.0
C761 C 0.85155 0.0081 0.10033 0.0
C762 C 0.88175 0.01726 0.06741 0.0
C763 C 0.89748 0.98785 0.94924 0.0
H764 H 0.94348 0.01222 0.97742 0.0
C765 C 0.9499 0.99952 0.76919 0.0
C766 C 0.96863 0.9992 0.78189 0.0
C767 C 0.93687 0.99836 0.81274 0.0
C768 C 0.93085 1.00507 0.96908 0.0
H769 H 0.84411 0.9803 0.07996 0.0
H770 H 0.87258 0.97331 0.03022 0.0
H771 H 0.91963 0.01304 0.04975 0.0
H772 H 0.98827 0.99714 0.85083 0.0
H773 H 0.96554 0.99478 0.92676 0.0
H774 H 0.90874 0.9797 0.86892 0.0
C775 C 0.87092 0.98671 0.04882 0.0
C776 C 0.91704 0.00572 0.01046 0.0
C777 C 0.8547 0.99059 0.07821 0.0
C778 C 0.97398 0.99751 0.83941 0.0
C779 C 0.96091 0.99624 0.88306 0.0
C780 C 0.91132 0.9871 0.90808 0.0
C781 C 0.88434 1.00025 0.04089 0.0
C782 C 0.89998 0.99747 1.00063 0.0
C783 C 0.94214 0.99672 0.87038 0.0
C784 C 0.92806 0.99606 0.91674 0.0
H785 H 0.86367 0.03468 0.11386 0.0
H786 H 0.89163 0.02812 0.06231 0.0
H787 H 0.88455 0.98146 0.93953 0.0
H788 H 0.94522 1.00096 0.72551 0.0
H789 H 0.92261 0.99917 0.80111 0.0
C790 C 0.51313 0.85165 0.11182 0.0
C791 C 0.51898 0.83578 0.08394 0.0
C792 C 0.5151 0.86875 0.0854 0.0
C793 C 0.53768 0.89352 0.96526 0.0
H794 H 0.49257 0.92094 0.95895 0.0
C795 C 0.52962 0.96083 0.83378 0.0
C796 C 0.51415 0.96129 0.7983 0.0
C797 C 0.53158 0.94715 0.87548 0.0
C798 C 0.5053 0.9135 0.96049 0.0
H799 H 0.53218 0.82529 0.00819 0.0
H800 H 0.53605 0.85505 0.96265 0.0
H801 H 0.49475 0.89422 0.02093 0.0
H802 H 0.4884 0.94794 0.78001 0.0
H803 H 0.49171 0.92441 0.85273 0.0
H804 H 0.54802 0.91256 0.90339 0.0
C805 C 0.52999 0.85444 1.00484 0.0
C806 C 0.50662 0.89828 0.99648 0.0
C807 C 0.52781 0.83738 0.03089 0.0
C808 C 0.50053 0.94802 0.80641 0.0
C809 C 0.50236 0.93456 0.84844 0.0
C810 C 0.53643 0.9089 0.92968 0.0
C811 C 0.52312 0.87028 0.03084 0.0
C812 C 0.52269 0.88785 0.99843 0.0
C813 C 0.51796 0.93384 0.88322 0.0
C814 C 0.52007 0.91882 0.92587 0.0
H815 H 0.50601 0.85071 0.15231 0.0
H816 H 0.50978 0.88069 0.10676 0.0
H817 H 0.55029 0.88585 0.96598 0.0
H818 H 0.54039 0.97081 0.82859 0.0
H819 H 0.54372 0.94701 0.90178 0.0
C820 C 0.66281 0.50645 0.13198 0.0
C821 C 0.67645 0.51955 0.12253 0.0
C822 C 0.64602 0.50773 0.10344 0.0
C823 C 0.62929 0.52505 0.96646 0.0
H824 H 0.58137 0.51112 0.02124 0.0
C825 C 0.57186 0.50381 0.81318 0.0
C826 C 0.5545 0.51149 0.82163 0.0
C827 C 0.58562 0.50599 0.85388 0.0
C828 C 0.59466 0.51516 0.00547 0.0
H829 H 0.68297 0.54476 0.07895 0.0
H830 H 0.65363 0.54728 0.03027 0.0
H831 H 0.6068 0.51377 0.08902 0.0
H832 H 0.53799 0.52726 0.88038 0.0
H833 H 0.56211 0.53087 0.95207 0.0
H834 H 0.6174 0.5261 0.88301 0.0
C835 C 0.65586 0.53591 0.05908 0.0
C836 C 0.60922 0.51657 0.04418 0.0
C837 C 0.67256 0.53462 0.08753 0.0
C838 C 0.55121 0.52122 0.87238 0.0
C839 C 0.56498 0.52321 0.9136 0.0
C840 C 0.61486 0.52343 0.92787 0.0
C841 C 0.64269 0.52206 0.06463 0.0
C842 C 0.62674 0.5215 0.02505 0.0
C843 C 0.5824 0.51575 0.9045 0.0
C844 C 0.5974 0.51832 0.94672 0.0
H845 H 0.66566 0.49449 0.15774 0.0
H846 H 0.63622 0.49679 0.10847 0.0
H847 H 0.64264 0.52861 0.94999 0.0
H848 H 0.57493 0.49622 0.77472 0.0
H849 H 0.59883 0.49991 0.84584 0.0
C850 C 0.99422 0.65732 0.08826 0.0
C851 C 0.01144 0.66071 0.11207 0.0
C852 C 0.99034 0.64038 0.06331 0.0
C853 C 0.00744 0.5928 0.0421 0.0
H854 H 0.98957 0.5997 0.88762 0.0
C855 C 1.0 0.53361 0.87588 0.0
C856 C 0.00747 0.53751 0.82177 0.0
C857 C 0.99806 0.54743 0.91695 0.0
C858 C 0.9945 0.5975 0.93073 0.0
H859 H 0.03763 0.64879 0.13207 0.0
H860 H 0.0308 0.61916 0.08991 0.0
H861 H 0.98971 0.62529 0.95376 0.0
H862 H 0.01858 0.55912 0.76855 0.0
H863 H 0.01501 0.58301 0.83943 0.0
H864 H 0.01277 0.56507 0.01796 0.0
C865 C 0.02021 0.62944 0.09046 0.0
C866 C 0.99438 0.61214 0.96895 0.0
C867 C 0.02413 0.6464 0.11489 0.0
C868 C 0.0128 0.55555 0.80968 0.0
C869 C 0.01063 0.56933 0.85025 0.0
C870 C 0.00737 0.57806 1.00391 0.0
C871 C 1.0036 0.62649 0.06194 0.0
C872 C 1.00123 0.61012 0.02476 0.0
C873 C 1.00325 0.56548 0.9044 0.0
C874 C 1.00133 0.58038 0.9473 0.0
H875 H 0.98433 0.66823 0.08461 0.0
H876 H 0.97732 0.6385 0.04232 0.0
H877 H 0.01273 0.59074 0.08483 0.0
H878 H 0.99579 0.51987 0.8867 0.0
H879 H 0.99229 0.54405 0.95826 0.0
C880 C 0.88361 0.19511 0.34805 0.0
C881 C 0.89645 0.20903 0.35763 0.0
C882 C 0.87882 0.18309 0.39199 0.0
C883 C 0.90266 0.16471 0.51621 0.0
H884 H 0.86261 0.13024 0.51444 0.0
C885 C 0.91495 0.09399 0.60267 0.0
C886 C 0.91088 0.08056 0.56181 0.0
C887 C 0.90689 0.11121 0.59938 0.0
C888 C 0.87384 0.13982 0.51589 0.0
H889 H 0.91196 0.22292 0.42367 0.0
H890 H 0.90269 0.20277 0.50044 0.0
H891 H 0.85899 0.16003 0.46878 0.0
H892 H 0.89337 0.07397 0.4901 0.0
H893 H 0.87997 0.10417 0.4827 0.0
H894 H 0.91789 0.14437 0.56006 0.0
C895 C 0.89707 0.20052 0.45825 0.0
C896 C 0.87177 0.15689 0.48967 0.0
C897 C 0.90219 0.2123 0.41408 0.0
C898 C 0.89719 0.08417 0.52129 0.0
C899 C 0.88927 0.10145 0.51762 0.0
C900 C 0.90468 0.14778 0.54246 0.0
C901 C 0.88647 0.18497 0.44679 0.0
C902 C 0.88649 0.1692 0.48713 0.0
C903 C 0.89476 0.11546 0.55477 0.0
C904 C 0.89062 0.13478 0.54032 0.0
H905 H 0.87833 0.1926 0.30559 0.0
H906 H 0.87046 0.17142 0.38133 0.0
H907 H 0.91445 0.17358 0.51468 0.0
H908 H 0.92539 0.09175 0.63461 0.0
H909 H 0.91111 0.12158 0.62947 0.0
C910 C 0.29599 0.98135 0.54599 0.0
C911 C 0.30383 0.99456 0.50991 0.0
C912 C 0.30634 0.97315 0.58914 0.0
C913 C 0.33652 0.94774 0.62865 0.0
H914 H 0.37827 0.97177 0.69609 0.0
C915 C 0.40764 0.92133 0.60697 0.0
C916 C 0.42172 0.92861 0.6405 0.0
C917 C 0.38948 0.92524 0.6197 0.0
C918 C 0.36651 0.96464 0.67942 0.0
H919 H 0.32799 0.01074 0.49376 0.0
H920 H 0.34614 0.99634 0.56795 0.0
H921 H 0.35214 0.98971 0.66742 0.0
H922 H 0.42759 0.94342 0.71876 0.0
H923 H 0.39596 0.94933 0.74235 0.0
H924 H 0.35119 0.92275 0.63866 0.0
C925 C 0.33201 0.99231 0.56361 0.0
C926 C 0.35158 0.97504 0.66222 0.0
C927 C 0.3217 1.00042 0.52049 0.0
C928 C 0.41715 0.93764 0.69158 0.0
C929 C 0.39896 0.94128 0.70482 0.0
C930 C 0.35139 0.93729 0.64647 0.0
C931 C 0.32467 0.97811 0.59709 0.0
C932 C 0.33704 0.96686 0.63286 0.0
C933 C 0.38503 0.93633 0.66674 0.0
C934 C 0.36711 0.9458 0.66811 0.0
H935 H 0.28222 0.97654 0.53869 0.0
H936 H 0.30027 0.96236 0.61449 0.0
H937 H 0.32547 0.94095 0.60662 0.0
H938 H 0.41068 0.91389 0.56819 0.0
H939 H 0.37919 0.92105 0.58931 0.0
C940 C 0.49762 0.30807 0.53931 0.0
C941 C 0.50419 0.29122 0.51989 0.0
C942 C 0.50771 0.3182 0.57864 0.0
C943 C 0.53337 0.33336 0.676 0.0
H944 H 0.57271 0.35081 0.57978 0.0
C945 C 0.55789 0.40632 0.68663 0.0
C946 C 0.57363 0.41176 0.65717 0.0
C947 C 0.55337 0.38794 0.69118 0.0
C948 C 0.56235 0.34587 0.60885 0.0
H949 H 0.52577 0.27124 0.52829 0.0
H950 H 0.54377 0.28937 0.59546 0.0
H951 H 0.55582 0.32405 0.55204 0.0
H952 H 0.5981 0.40241 0.61504 0.0
H953 H 0.59106 0.37007 0.62673 0.0
H954 H 0.53981 0.35504 0.73321 0.0
C955 C 0.53062 0.29442 0.58152 0.0
C956 C 0.55255 0.33049 0.59241 0.0
C957 C 0.52034 0.28411 0.54321 0.0
C958 C 0.58578 0.39847 0.6374 0.0
C959 C 0.58156 0.37996 0.64358 0.0
C960 C 0.54358 0.34844 0.69363 0.0
C961 C 0.52465 0.31177 0.598 0.0
C962 C 0.53747 0.32469 0.62433 0.0
C963 C 0.56471 0.37447 0.6673 0.0
C964 C 0.55752 0.35561 0.65844 0.0
H965 H 0.48523 0.31381 0.52167 0.0
H966 H 0.50303 0.3317 0.59023 0.0
H967 H 0.5218 0.32896 0.70136 0.0
H968 H 0.54824 0.41636 0.70188 0.0
H969 H 0.54022 0.38461 0.7093 0.0
C970 C 0.22127 0.59786 0.4415 0.0
C971 C 0.21758 0.60351 0.38515 0.0
C972 C 0.20979 0.60299 0.48627 0.0
C973 C 0.17436 0.59747 0.54653 0.0
H974 H 0.13993 0.63751 0.54498 0.0
C975 C 0.09394 0.60285 0.55202 0.0
C976 C 0.09027 0.58942 0.59344 0.0
C977 C 0.11125 0.61067 0.54794 0.0
C978 C 0.14952 0.62629 0.54641 0.0
H979 H 0.20064 0.62132 0.33354 0.0
H980 H 0.18001 0.62927 0.41043 0.0
H981 H 0.16955 0.64112 0.49845 0.0
H982 H 0.10143 0.57512 0.66689 0.0
H983 H 0.13138 0.58918 0.66078 0.0
H984 H 0.15416 0.58225 0.5912 0.0
C985 C 0.1918 0.62101 0.42057 0.0
C986 C 0.16648 0.62835 0.51971 0.0
C987 C 0.20349 0.61617 0.37601 0.0
C988 C 0.10374 0.58538 0.63432 0.0
C989 C 0.121 0.59333 0.63054 0.0
C990 C 0.15752 0.59546 0.57329 0.0
C991 C 0.19415 0.61353 0.47552 0.0
C992 C 0.17872 0.61361 0.51691 0.0
C993 C 0.12524 0.60533 0.58548 0.0
C994 C 0.14453 0.6095 0.57108 0.0
H995 H 0.23204 0.5882 0.45062 0.0
H996 H 0.21236 0.59746 0.52847 0.0
H997 H 0.18321 0.58568 0.5449 0.0
H998 H 0.08373 0.60661 0.52075 0.0
H999 H 0.114 0.61983 0.51258 0.0
C1000 C 0.05913 0.81099 0.87227 0.0
C1001 C 0.07017 0.79855 0.90166 0.0
C1002 C 0.06596 0.82063 0.82572 0.0
C1003 C 0.10902 0.83992 0.78116 0.0
H1004 H 0.07609 0.86288 0.67366 0.0
C1005 C 0.10346 0.91563 0.76417 0.0
C1006 C 0.09307 0.92378 0.72067 0.0
C1007 C 0.10776 0.89713 0.76188 0.0
C1008 C 0.08591 0.85652 0.70183 0.0
H1009 H 0.0965 0.7853 0.90362 0.0
H1010 H 0.10873 0.80242 0.8216 0.0
H1011 H 0.06884 0.83312 0.71152 0.0
H1012 H 0.08137 0.91937 0.63655 0.0
H1013 H 0.08983 0.88746 0.63102 0.0
H1014 H 0.12598 0.86345 0.7722 0.0
C1015 C 0.09476 0.80472 0.83473 0.0
C1016 C 0.08156 0.83942 0.72418 0.0
C1017 C 0.08779 0.7949 0.88137 0.0
C1018 C 0.08922 0.91357 0.67127 0.0
C1019 C 0.09387 0.89511 0.66842 0.0
C1020 C 0.1136 0.85688 0.7578 0.0
C1021 C 0.08409 0.81814 0.8076 0.0
C1022 C 0.09223 0.83172 0.76781 0.0
C1023 C 0.10207 0.88635 0.71541 0.0
C1024 C 0.10129 0.8661 0.72176 0.0
H1025 H 0.04545 0.81391 0.88716 0.0
H1026 H 0.05738 0.83102 0.80679 0.0
H1027 H 0.11775 0.83425 0.81399 0.0
H1028 H 0.10722 0.92324 0.80197 0.0
H1029 H 0.11413 0.89111 0.79909 0.0
C1030 C 0.71638 0.03021 0.81802 0.0
C1031 C 0.71926 0.04134 0.86572 0.0
C1032 C 0.70653 0.03679 0.77122 0.0
C1033 C 0.68055 0.07794 0.71815 0.0
H1034 H 0.6448 0.04085 0.68205 0.0
C1035 C 0.60088 0.06503 0.64601 0.0
C1036 C 0.59297 0.07594 0.68875 0.0
C1037 C 0.61976 0.06463 0.6389 0.0
C1038 C 0.65482 0.05139 0.68994 0.0
H1039 H 0.71537 0.06819 0.90138 0.0
H1040 H 0.69732 0.07945 0.82176 0.0
H1041 H 0.67327 0.032 0.72442 0.0
H1042 H 0.59839 0.09693 0.75148 0.0
H1043 H 0.63135 0.0959 0.74022 0.0
H1044 H 0.66093 0.09744 0.6883 0.0
C1045 C 0.70308 0.06591 0.8186 0.0
C1046 C 0.67134 0.04628 0.71442 0.0
C1047 C 0.7133 0.05946 0.86466 0.0
C1048 C 0.60413 0.0881 0.71909 0.0
C1049 C 0.62303 0.08766 0.71207 0.0
C1050 C 0.66383 0.08308 0.69431 0.0
C1051 C 0.69885 0.0544 0.77232 0.0
C1052 C 0.68404 0.05954 0.73177 0.0
C1053 C 0.63108 0.07506 0.67456 0.0
C1054 C 0.65045 0.06989 0.68268 0.0
H1055 H 0.72105 0.0162 0.81807 0.0
H1056 H 0.70405 0.02769 0.73571 0.0
H1057 H 0.69023 0.0885 0.72924 0.0
H1058 H 0.59273 0.05548 0.62176 0.0
H1059 H 0.62557 0.05499 0.60901 0.0
C1060 C 0.42331 0.71698 0.86742 0.0
C1061 C 0.41858 0.71555 0.92552 0.0
C1062 C 0.4171 0.70407 0.82816 0.0
C1063 C 0.38894 0.66153 0.81356 0.0
H1064 H 0.43289 0.64385 0.7406 0.0
C1065 C 0.42648 0.59271 0.71755 0.0
C1066 C 0.422 0.58104 0.76329 0.0
C1067 C 0.41945 0.61038 0.71513 0.0
C1068 C 0.42022 0.64866 0.75891 0.0
H1069 H 0.40164 0.70094 0.98629 0.0
H1070 H 0.39157 0.67799 0.91878 0.0
H1071 H 0.43213 0.67441 0.77745 0.0
H1072 H 0.40466 0.57798 0.8378 0.0
H1073 H 0.39318 0.60899 0.83536 0.0
H1074 H 0.37756 0.63508 0.79802 0.0
C1075 C 0.39993 0.68909 0.90307 0.0
C1076 C 0.41979 0.66636 0.78025 0.0
C1077 C 0.40596 0.70212 0.94216 0.0
C1078 C 0.40882 0.5868 0.80295 0.0
C1079 C 0.40198 0.60456 0.80097 0.0
C1080 C 0.38938 0.64373 0.7921 0.0
C1081 C 0.40625 0.68934 0.8463 0.0
C1082 C 0.40449 0.67272 0.81039 0.0
C1083 C 0.40803 0.61688 0.75884 0.0
C1084 C 0.40537 0.63681 0.76708 0.0
H1085 H 0.43294 0.72718 0.85288 0.0
H1086 H 0.42187 0.70492 0.78442 0.0
H1087 H 0.37679 0.66614 0.83549 0.0
H1088 H 0.43654 0.5888 0.68602 0.0
H1089 H 0.42403 0.61938 0.68125 0.0
C1090 C 0.80283 0.45686 0.82671 0.0
C1091 C 0.80942 0.47086 0.86205 0.0
C1092 C 0.8137 0.44987 0.78277 0.0
C1093 C 0.84606 0.42856 0.73562 0.0
H1094 H 0.88351 0.45841 0.66562 0.0
C1095 C 0.91973 0.41034 0.74522 0.0
C1096 C 0.93253 0.42044 0.71368 0.0
C1097 C 0.90115 0.41203 0.73367 0.0
C1098 C 0.873 0.44964 0.68299 0.0
H1099 H 0.83191 0.48941 0.87671 0.0
H1100 H 0.85096 0.4771 0.80135 0.0
H1101 H 0.85598 0.47258 0.70054 0.0
H1102 H 0.93601 0.4378 0.63898 0.0
H1103 H 0.90381 0.43988 0.61704 0.0
H1104 H 0.8633 0.40565 0.71947 0.0
C1105 C 0.83739 0.47154 0.80677 0.0
C1106 C 0.85724 0.4579 0.70383 0.0
C1107 C 0.8266 0.47844 0.85065 0.0
C1108 C 0.92657 0.42994 0.66476 0.0
C1109 C 0.908 0.43135 0.65254 0.0
C1110 C 0.86173 0.42022 0.71399 0.0
C1111 C 0.83127 0.45687 0.77318 0.0
C1112 C 0.84429 0.44764 0.73425 0.0
C1113 C 0.89501 0.42365 0.68968 0.0
C1114 C 0.87603 0.43086 0.69156 0.0
H1115 H 0.78961 0.45076 0.83466 0.0
H1116 H 0.80858 0.43862 0.75749 0.0
H1117 H 0.83622 0.42019 0.75816 0.0
H1118 H 0.92392 0.40243 0.78209 0.0
H1119 H 0.89171 0.40569 0.76319 0.0
C1120 C 0.98782 0.1865 0.9298 0.0
C1121 C 1.00095 0.19271 0.96895 0.0
C1122 C 0.99129 0.17145 0.89491 0.0
C1123 C 0.019 0.12956 0.89009 0.0
H1124 H 0.99917 0.12593 0.73697 0.0
C1125 C 0.02596 0.06372 0.75313 0.0
C1126 C 0.01039 0.05832 0.72232 0.0
C1127 C 0.02669 0.08082 0.77983 0.0
C1128 C 1.00468 0.12664 0.77983 0.0
H1129 H 0.02832 0.18837 1.00059 0.0
H1130 H 0.03452 0.16202 0.93903 0.0
H1131 H 0.9977 0.15486 0.78771 0.0
H1132 H 0.98342 0.06691 0.69542 0.0
H1133 H 0.98466 0.09647 0.74202 0.0
H1134 H 0.02568 0.10122 0.88254 0.0
C1135 C 0.02144 0.16876 0.93579 0.0
C1136 C 1.00387 0.14328 0.80895 0.0
C1137 C 0.01799 0.18398 0.97058 0.0
C1138 C 0.99567 0.07055 0.71854 0.0
C1139 C 0.99643 0.08763 0.74505 0.0
C1140 C 0.01981 0.11289 0.86092 0.0
C1141 C 0.00798 0.16209 0.89822 0.0
C1142 C 0.01071 0.14491 0.8649 0.0
C1143 C 0.01192 0.09301 0.77625 0.0
C1144 C 0.01236 0.1111 0.80575 0.0
H1145 H 0.97457 0.19297 0.92746 0.0
H1146 H 0.98051 0.16668 0.86709 0.0
H1147 H 0.02421 0.1302 0.93333 0.0
H1148 H 0.03757 0.05469 0.757 0.0
H1149 H 0.03891 0.08454 0.80298 0.0
C1150 C 0.33567 0.98996 0.98768 0.0
C1151 C 0.32467 1.0054 0.99632 0.0
C1152 C 0.34925 0.98991 0.9457 0.0
C1153 C 0.37943 0.02204 0.86976 0.0
H1154 H 0.39554 0.9783 0.7922 0.0
C1155 C 0.45297 0.01406 0.78432 0.0
C1156 C 0.45592 1.00452 0.73306 0.0
C1157 C 0.43559 0.01484 0.80908 0.0
C1158 C 0.39114 0.99073 0.81276 0.0
H1159 H 0.31871 0.0326 0.96586 0.0
H1160 H 0.34239 0.03254 0.89158 0.0
H1161 H 0.36664 0.97818 0.84366 0.0
H1162 H 0.44267 0.98828 0.66774 0.0
H1163 H 0.41237 0.98968 0.71083 0.0
H1164 H 0.40393 0.03457 0.83888 0.0
C1165 C 0.34059 0.02047 0.91777 0.0
C1166 C 0.37461 0.99062 0.84292 0.0
C1167 C 0.32686 0.02045 0.95974 0.0
C1168 C 0.44095 0.99584 0.70708 0.0
C1169 C 0.42355 0.99653 0.73206 0.0
C1170 C 0.39594 0.02215 0.83955 0.0
C1171 C 0.35233 1.00538 0.91129 0.0
C1172 C 0.36868 0.00616 0.87288 0.0
C1173 C 0.42061 0.00604 0.7835 0.0
C1174 C 0.40223 0.00639 0.81152 0.0
H1175 H 0.33436 0.97821 0.01555 0.0
H1176 H 0.35804 0.9781 0.94265 0.0
H1177 H 0.37546 0.03424 0.89258 0.0
H1178 H 0.46413 0.02087 0.80575 0.0
H1179 H 0.434 0.02202 0.84914 0.0
C1180 C 0.51881 0.32617 0.00792 0.0
C1181 C 0.50205 0.31703 0.01249 0.0
C1182 C 0.52088 0.34094 0.97045 0.0
C1183 C 0.49961 0.36695 0.85039 0.0
H1184 H 0.52307 0.40814 0.92349 0.0
C1185 C 0.51229 0.43677 0.73564 0.0
C1186 C 0.50926 0.45263 0.76813 0.0
C1187 C 0.51171 0.41944 0.76124 0.0
C1188 C 0.5164 0.39683 0.90241 0.0
H1189 H 0.47449 0.31574 0.98023 0.0
H1190 H 0.47806 0.34151 0.91406 0.0
H1191 H 0.52196 0.37887 0.97236 0.0
H1192 H 0.50308 0.46249 0.85327 0.0
H1193 H 0.50215 0.43244 0.89769 0.0
H1194 H 0.49376 0.38519 0.78079 0.0
C1195 C 0.48972 0.33713 0.93885 0.0
C1196 C 0.51598 0.37991 0.93018 0.0
C1197 C 0.48767 0.32229 0.97649 0.0
C1198 C 0.50552 0.45065 0.8268 0.0
C1199 C 0.50511 0.43337 0.85242 0.0
C1200 C 0.50016 0.38391 0.82231 0.0
C1201 C 0.50616 0.34708 0.93696 0.0
C1202 C 0.50745 0.36474 0.90488 0.0
C1203 C 0.50831 0.41751 0.82015 0.0
C1204 C 0.50835 0.39915 0.84834 0.0
H1205 H 0.53001 0.32255 0.0359 0.0
H1206 H 0.53382 0.34804 0.96948 0.0
H1207 H 0.49302 0.35556 0.82946 0.0
H1208 H 0.51524 0.43771 0.69036 0.0
H1209 H 0.51432 0.40757 0.73508 0.0
C1210 C 0.19491 0.48678 0.99684 0.0
C1211 C 0.20561 0.50229 0.98602 0.0
C1212 C 0.17892 0.48366 0.9654 0.0
C1213 C 0.15359 0.49647 0.83407 0.0
H1214 H 0.11056 0.48847 0.92697 0.0
C1215 C 0.0807 0.50508 0.74163 0.0
C1216 C 0.06651 0.49427 0.76379 0.0
C1217 C 0.09813 0.50464 0.76621 0.0
C1218 C 0.12239 0.49034 0.89993 0.0
H1219 H 0.20848 0.52627 0.93275 0.0
H1220 H 0.18094 0.52055 0.87664 0.0
H1221 H 0.14046 0.48901 0.97178 0.0
H1222 H 0.05974 0.47412 0.82834 0.0
H1223 H 0.09012 0.47282 0.86971 0.0
H1224 H 0.13564 0.49764 0.76206 0.0
C1225 C 0.1848 0.5108 0.90929 0.0
C1226 C 0.1396 0.49068 0.92585 0.0
C1227 C 0.20059 0.51407 0.94128 0.0
C1228 C 0.07028 0.48278 0.81049 0.0
C1229 C 0.08776 0.48213 0.83452 0.0
C1230 C 0.13639 0.49588 0.80794 0.0
C1231 C 0.17347 0.49587 0.92208 0.0
C1232 C 0.1554 0.49395 0.89339 0.0
C1233 C 0.10195 0.49318 0.81319 0.0
C1234 C 0.12047 0.49302 0.84054 0.0
H1235 H 0.19833 0.47768 0.03175 0.0
H1236 H 0.17055 0.47196 0.97602 0.0
H1237 H 0.16551 0.49889 0.80778 0.0
H1238 H 0.07825 0.51421 0.70597 0.0
H1239 H 0.10848 0.51362 0.74897 0.0
C1240 C 0.99047 0.82693 0.34546 0.0
C1241 C 1.00086 0.81212 0.36514 0.0
C1242 C 0.98931 0.843 0.3772 0.0
C1243 C 0.99845 0.86472 0.51796 0.0
H1244 H 1.00484 0.90787 0.42392 0.0
C1245 C 0.01123 0.9374 0.61251 0.0
C1246 C 1.00306 0.95223 0.58404 0.0
C1247 C 0.01045 0.91976 0.58935 0.0
C1248 C 1.00278 0.89604 0.45098 0.0
H1249 H 0.01746 0.80216 0.4349 0.0
H1250 H 0.01545 0.83039 0.49097 0.0
H1251 H 1.0035 0.87809 0.37926 0.0
H1252 H 0.98724 0.95988 0.50943 0.0
H1253 H 0.98563 0.92935 0.46991 0.0
H1254 H 0.99777 0.88287 0.58983 0.0
C1255 C 0.00807 0.8295 0.45102 0.0
C1256 C 1.002 0.87888 0.42524 0.0
C1257 C 0.00916 0.8133 0.41912 0.0
C1258 C 0.99385 0.94889 0.53242 0.0
C1259 C 0.99302 0.93131 0.50948 0.0
C1260 C 0.99917 0.88199 0.54385 0.0
C1261 C 0.99867 0.84479 0.42937 0.0
C1262 C 0.99964 0.86297 0.45817 0.0
C1263 C 1.00147 0.9165 0.53716 0.0
C1264 C 1.00118 0.89793 0.51059 0.0
H1265 H 0.98394 0.82638 0.30396 0.0
H1266 H 0.98158 0.85429 0.3598 0.0
H1267 H 0.99659 0.85278 0.54466 0.0
H1268 H 0.01849 0.93945 0.65228 0.0
H1269 H 0.01727 0.90877 0.61171 0.0
C1270 C 0.6974 0.9855 0.40042 0.0
C1271 C 0.69723 0.99498 0.34808 0.0
C1272 C 0.68205 0.98573 0.43653 0.0
C1273 C 0.63938 0.01184 0.46499 0.0
H1274 H 0.6222 0.96694 0.53418 0.0
C1275 C 0.57466 0.01063 0.60617 0.0
C1276 C 0.56262 0.99585 0.59909 0.0
C1277 C 0.5921 0.01036 0.58179 0.0
C1278 C 0.62675 0.9796 0.51499 0.0
H1279 H 0.68105 0.01283 0.29417 0.0
H1280 H 0.65451 0.01301 0.356 0.0
H1281 H 0.65074 0.96706 0.48027 0.0
H1282 H 0.55976 0.96904 0.5613 0.0
H1283 H 0.58999 0.96871 0.51788 0.0
H1284 H 0.6152 0.02429 0.49771 0.0
C1285 C 0.66639 1.00538 0.36955 0.0
C1286 C 0.64326 0.97971 0.48464 0.0
C1287 C 0.68158 1.00507 0.3336 0.0
C1288 C 0.56864 0.98066 0.56778 0.0
C1289 C 0.58608 0.98042 0.54314 0.0
C1290 C 0.62292 0.01174 0.49528 0.0
C1291 C 0.66631 0.99566 0.42142 0.0
C1292 C 0.64965 0.99577 0.45837 0.0
C1293 C 0.59801 0.99534 0.5493 0.0
C1294 C 0.6162 0.99557 0.52009 0.0
H1295 H 0.70925 0.97764 0.41289 0.0
H1296 H 0.68254 0.97821 0.47639 0.0
H1297 H 0.64397 0.02454 0.44612 0.0
H1298 H 0.5706 0.02253 0.63038 0.0
H1299 H 0.60097 0.02196 0.58847 0.0
C1300 C 0.52016 0.68152 0.36165 0.0
C1301 C 0.50276 0.6895 0.36222 0.0
C1302 C 0.52433 0.6671 0.39911 0.0
C1303 C 0.50781 0.64204 0.52897 0.0
H1304 H 0.53055 0.60022 0.45749 0.0
C1305 C 0.50215 0.56943 0.62476 0.0
C1306 C 0.51711 0.55751 0.62009 0.0
C1307 C 0.5023 0.58647 0.59752 0.0
C1308 C 0.52444 0.61183 0.47859 0.0
H1309 H 0.47647 0.68936 0.40412 0.0
H1310 H 0.48371 0.66455 0.46964 0.0
H1311 H 0.52822 0.62886 0.40498 0.0
H1312 H 0.54408 0.55447 0.58336 0.0
H1313 H 0.54439 0.58422 0.53635 0.0
H1314 H 0.50372 0.62492 0.6022 0.0
C1315 C 0.49424 0.66932 0.44078 0.0
C1316 C 0.52313 0.62833 0.44841 0.0
C1317 C 0.49005 0.68357 0.40319 0.0
C1318 C 0.53229 0.56322 0.58785 0.0
C1319 C 0.53242 0.58028 0.56055 0.0
C1320 C 0.50913 0.62556 0.55917 0.0
C1321 C 0.51123 0.66047 0.43814 0.0
C1322 C 0.51452 0.64359 0.47278 0.0
C1323 C 0.51739 0.59214 0.56477 0.0
C1324 C 0.51718 0.61011 0.53409 0.0
H1325 H 0.53012 0.68567 0.32999 0.0
H1326 H 0.53763 0.66077 0.39633 0.0
H1327 H 0.50134 0.65356 0.54955 0.0
H1328 H 0.49017 0.56555 0.64901 0.0
H1329 H 0.49034 0.59504 0.60115 0.0
C1330 C 0.84033 0.51782 0.37326 0.0
C1331 C 0.82835 0.50301 0.36773 0.0
C1332 C 0.85405 0.51769 0.41487 0.0
C1333 C 0.88238 0.48508 0.4959 0.0
H1334 H 0.9001 0.52878 0.57028 0.0
C1335 C 0.94771 0.48457 0.637 0.0
C1336 C 0.95953 0.4996 0.63104 0.0
C1337 C 0.93021 0.48484 0.61268 0.0
C1338 C 0.89545 0.51645 0.54952 0.0
H1339 H 0.82102 0.47659 0.40186 0.0
H1340 H 0.84484 0.47638 0.47551 0.0
H1341 H 0.87177 0.52982 0.51602 0.0
H1342 H 0.96198 0.52676 0.5949 0.0
H1343 H 0.93185 0.52709 0.55189 0.0
H1344 H 0.90627 0.47181 0.52814 0.0
C1345 C 0.84368 0.48813 0.44764 0.0
C1346 C 0.87913 0.51704 0.51846 0.0
C1347 C 0.82986 0.48834 0.4061 0.0
C1348 C 0.95329 0.51495 0.60068 0.0
C1349 C 0.93587 0.51519 0.57626 0.0
C1350 C 0.89874 0.4845 0.52688 0.0
C1351 C 0.85628 0.5026 0.45159 0.0
C1352 C 0.87252 0.50146 0.49024 0.0
C1353 C 0.92406 0.50013 0.58161 0.0
C1354 C 0.90574 0.50027 0.55316 0.0
H1355 H 0.8397 0.52908 0.34326 0.0
H1356 H 0.86357 0.52896 0.41591 0.0
H1357 H 0.87788 0.47285 0.47428 0.0
H1358 H 0.95198 0.47252 0.66025 0.0
H1359 H 0.92148 0.47306 0.61845 0.0
loop_
_geom_bond_atom_site_label_1
_geom_bond_atom_site_label_2
_geom_bond_distance
_geom_bond_site_symmetry_2
_ccdc_geom_bond_type
C0 C1 1.391 . S
C0 C4 1.391 . S
C0 H42 0.948 . S
C1 C0 1.391 . S
C1 C2 1.391 . S
C2 C1 1.391 . S
C2 H58 0.947 . S
C2 C59 1.392 . S
C3 C4 1.391 . S
C3 C7 1.397 . S
C3 C59 1.419 . S
C4 C0 1.391 . S
C4 C3 1.391 . S
C4 C5 1.399 . S
C5 C4 1.399 . S
C5 C8 1.396 . S
C5 C17 1.453 . S
C5 C18 1.684 . S
H6 C30 0.948 . S
C7 C3 1.397 . S
C7 C8 1.394 . S
C7 C26 1.723 . S
C8 C5 1.396 . S
C8 C7 1.394 . S
C8 C38 1.723 . S
H9 C32 0.947 . S
H10 C33 0.948 . S
H11 C39 0.982 . S
H12 C40 0.979 . S
H13 C40 0.980 . S
H14 C40 0.983 . S
H15 C39 0.979 . S
H16 C39 0.977 . S
C17 C5 1.453 . S
C17 H46 0.982 . S
C17 H47 0.979 . S
C17 H48 0.977 . S
C18 C5 1.684 . S
C18 H43 0.979 . S
C18 H44 0.980 . S
C18 H45 0.983 . S
C19 C20 1.391 . S
C19 C24 1.391 . S
C19 H49 0.948 . S
C20 C19 1.391 . S
C20 C21 1.391 . S
C21 C20 1.391 . S
C21 C22 1.392 . S
C21 H50 0.947 . S
C22 C21 1.392 . S
C22 C23 1.419 . S
C22 H51 0.948 . S
C23 C22 1.419 . S
C23 C24 1.391 . S
C23 C27 1.397 . S
C24 C19 1.391 . S
C24 C23 1.391 . S
C24 C25 1.399 . S
C25 C24 1.399 . S
C25 C26 1.396 . S
C25 C28 1.453 . S
C25 C29 1.684 . S
C26 C7 1.723 . S
C26 C25 1.396 . S
C26 C27 1.394 . S
C27 C23 1.397 . S
C27 C26 1.394 . S
C27 C37 1.723 . S
C28 C25 1.453 . S
C28 H52 0.982 . S
C28 H53 0.979 . S
C28 H54 0.977 . S
C29 C25 1.684 . S
C29 H55 0.979 . S
C29 H56 0.980 . S
C29 H57 0.983 . S
C30 H6 0.948 . S
C30 C31 1.391 . S
C30 C35 1.391 . S
C31 C30 1.391 . S
C31 C32 1.391 . S
C32 H9 0.947 . S
C32 C31 1.391 . S
C32 C33 1.392 . S
C33 H10 0.948 . S
C33 C32 1.392 . S
C33 C34 1.419 . S
C34 C33 1.419 . S
C34 C35 1.391 . S
C34 C38 1.397 . S
C35 C30 1.391 . S
C35 C34 1.391 . S
C35 C36 1.399 . S
C36 C35 1.399 . S
C36 C37 1.396 . S
C36 C39 1.453 . S
C36 C40 1.684 . S
C37 C27 1.723 . S
C37 C36 1.396 . S
C37 C38 1.394 . S
C38 C8 1.723 . S
C38 C34 1.397 . S
C38 C37 1.394 . S
C39 H11 0.982 . S
C39 H15 0.979 . S
C39 H16 0.977 . S
C39 C36 1.453 . S
C40 H12 0.979 . S
C40 H13 0.980 . S
C40 H14 0.983 . S
C40 C36 1.684 . S
H41 C59 0.948 . S
H42 C0 0.948 . S
H43 C18 0.979 . S
H44 C18 0.980 . S
H45 C18 0.983 . S
H46 C17 0.982 . S
H47 C17 0.979 . S
H48 C17 0.977 . S
H49 C19 0.948 . S
H50 C21 0.947 . S
H51 C22 0.948 . S
H52 C28 0.982 . S
H53 C28 0.979 . S
H54 C28 0.977 . S
H55 C29 0.979 . S
H56 C29 0.980 . S
H57 C29 0.983 . S
H58 C2 0.947 . S
C59 C2 1.392 . S
C59 C3 1.419 . S
C59 H41 0.948 . S
C60 C61 1.391 . S
C60 C64 1.391 . S
C60 H102 0.948 . S
C61 C60 1.391 . S
C61 C62 1.391 . S
C62 C61 1.391 . S
C62 H118 0.947 . S
C62 C119 1.392 . S
C63 C64 1.391 . S
C63 C67 1.397 1_655 S
C63 C119 1.419 . S
C64 C60 1.391 . S
C64 C63 1.391 . S
C64 C65 1.399 . S
C65 C64 1.399 . S
C65 C68 1.388 1_655 S
C65 C77 1.453 1_655 S
C65 C78 1.684 . S
H66 C90 0.948 . S
C67 C63 1.397 1_455 S
C67 C68 1.393 . S
C67 C86 1.722 . S
C68 C65 1.388 1_455 S
C68 C67 1.393 . S
C68 C98 1.722 . S
H69 C92 0.947 . S
H70 C93 0.948 . S
H71 C99 0.982 . S
H72 C100 0.979 . S
H73 C100 0.980 . S
H74 C100 0.983 . S
H75 C99 0.979 . S
H76 C99 0.977 . S
C77 C65 1.453 1_455 S
C77 H106 0.982 . S
C77 H107 0.979 . S
C77 H108 0.977 . S
C78 C65 1.684 . S
C78 H103 0.979 . S
C78 H104 0.980 . S
C78 H105 0.983 . S
C79 C80 1.391 . S
C79 C84 1.391 . S
C79 H109 0.948 . S
C80 C79 1.391 . S
C80 C81 1.391 . S
C81 C80 1.391 . S
C81 C82 1.392 . S
C81 H110 0.947 . S
C82 C81 1.392 . S
C82 C83 1.419 . S
C82 H111 0.948 . S
C83 C82 1.419 . S
C83 C84 1.391 . S
C83 C87 1.397 1_655 S
C84 C79 1.391 . S
C84 C83 1.391 . S
C84 C85 1.399 . S
C85 C84 1.399 . S
C85 C86 1.388 1_655 S
C85 C88 1.453 1_655 S
C85 C89 1.684 . S
C86 C67 1.722 . S
C86 C85 1.388 1_455 S
C86 C87 1.393 . S
C87 C83 1.397 1_455 S
C87 C86 1.393 . S
C87 C97 1.722 . S
C88 C85 1.453 1_455 S
C88 H112 0.982 . S
C88 H113 0.979 . S
C88 H114 0.977 . S
C89 C85 1.684 . S
C89 H115 0.979 . S
C89 H116 0.980 . S
C89 H117 0.983 . S
C90 H66 0.948 . S
C90 C91 1.391 . S
C90 C95 1.391 . S
C91 C90 1.391 . S
C91 C92 1.391 . S
C92 H69 0.947 . S
C92 C91 1.391 . S
C92 C93 1.392 . S
C93 H70 0.948 . S
C93 C92 1.392 . S
C93 C94 1.419 . S
C94 C93 1.419 . S
C94 C95 1.391 . S
C94 C98 1.397 1_655 S
C95 C90 1.391 . S
C95 C94 1.391 . S
C95 C96 1.399 . S
C96 C95 1.399 . S
C96 C97 1.388 1_655 S
C96 C99 1.453 1_655 S
C96 C100 1.684 . S
C97 C87 1.722 . S
C97 C96 1.388 1_455 S
C97 C98 1.393 . S
C98 C68 1.722 . S
C98 C94 1.397 1_455 S
C98 C97 1.393 . S
C99 H71 0.982 . S
C99 H75 0.979 . S
C99 H76 0.977 . S
C99 C96 1.453 1_455 S
C100 H72 0.979 . S
C100 H73 0.980 . S
C100 H74 0.983 . S
C100 C96 1.684 . S
H101 C119 0.948 . S
H102 C60 0.948 . S
H103 C78 0.979 . S
H104 C78 0.980 . S
H105 C78 0.983 . S
H106 C77 0.982 . S
H107 C77 0.979 . S
H108 C77 0.977 . S
H109 C79 0.948 . S
H110 C81 0.947 . S
H111 C82 0.948 . S
H112 C88 0.982 . S
H113 C88 0.979 . S
H114 C88 0.977 . S
H115 C89 0.979 . S
H116 C89 0.980 . S
H117 C89 0.983 . S
H118 C62 0.947 . S
C119 C62 1.392 . S
C119 C63 1.419 . S
C119 H101 0.948 . S
C120 C121 1.391 . S
C120 C124 1.391 . S
C120 H162 0.948 . S
C121 C120 1.391 . S
C121 C122 1.391 . S
C122 C121 1.391 . S
C122 H178 0.947 . S
C122 C179 1.392 . S
C123 C124 1.391 . S
C123 C127 1.397 1_565 S
C123 C179 1.419 . S
C124 C120 1.391 . S
C124 C123 1.391 . S
C124 C125 1.399 . S
C125 C124 1.399 . S
C125 C128 1.388 1_565 S
C125 C137 1.453 1_565 S
C125 C138 1.684 . S
H126 C150 0.948 . S
C127 C123 1.397 1_545 S
C127 C128 1.393 . S
C127 C146 1.722 . S
C128 C125 1.388 1_545 S
C128 C127 1.393 . S
C128 C158 1.722 . S
H129 C152 0.947 . S
H130 C153 0.948 . S
H131 C159 0.982 . S
H132 C160 0.979 . S
H133 C160 0.980 . S
H134 C160 0.983 . S
H135 C159 0.979 . S
H136 C159 0.977 . S
C137 C125 1.453 1_545 S
C137 H166 0.982 . S
C137 H167 0.979 . S
C137 H168 0.977 . S
C138 C125 1.684 . S
C138 H163 0.979 . S
C138 H164 0.980 . S
C138 H165 0.983 . S
C139 C140 1.391 . S
C139 C144 1.391 . S
C139 H169 0.948 . S
C140 C139 1.391 . S
C140 C141 1.391 . S
C141 C140 1.391 . S
C141 C142 1.392 . S
C141 H170 0.947 . S
C142 C141 1.392 . S
C142 C143 1.419 . S
C142 H171 0.948 . S
C143 C142 1.419 . S
C143 C144 1.391 . S
C143 C147 1.397 1_565 S
C144 C139 1.391 . S
C144 C143 1.391 . S
C144 C145 1.399 . S
C145 C144 1.399 . S
C145 C146 1.388 1_565 S
C145 C148 1.453 1_565 S
C145 C149 1.684 . S
C146 C127 1.722 . S
C146 C145 1.388 1_545 S
C146 C147 1.393 . S
C147 C143 1.397 1_545 S
C147 C146 1.393 . S
C147 C157 1.722 . S
C148 C145 1.453 1_545 S
C148 H172 0.982 . S
C148 H173 0.979 . S
C148 H174 0.977 . S
C149 C145 1.684 . S
C149 H175 0.979 . S
C149 H176 0.980 . S
C149 H177 0.983 . S
C150 H126 0.948 . S
C150 C151 1.391 . S
C150 C155 1.391 . S
C151 C150 1.391 . S
C151 C152 1.391 . S
C152 H129 0.947 . S
C152 C151 1.391 . S
C152 C153 1.392 . S
C153 H130 0.948 . S
C153 C152 1.392 . S
C153 C154 1.419 . S
C154 C153 1.419 . S
C154 C155 1.391 . S
C154 C158 1.397 1_565 S
C155 C150 1.391 . S
C155 C154 1.391 . S
C155 C156 1.399 . S
C156 C155 1.399 . S
C156 C157 1.388 1_565 S
C156 C159 1.453 1_565 S
C156 C160 1.684 . S
C157 C147 1.722 . S
C157 C156 1.388 1_545 S
C157 C158 1.393 . S
C158 C128 1.722 . S
C158 C154 1.397 1_545 S
C158 C157 1.393 . S
C159 H131 0.982 . S
C159 H135 0.979 . S
C159 H136 0.977 . S
C159 C156 1.453 1_545 S
C160 H132 0.979 . S
C160 H133 0.980 . S
C160 H134 0.983 . S
C160 C156 1.684 . S
H161 C179 0.948 . S
H162 C120 0.948 . S
H163 C138 0.979 . S
H164 C138 0.980 . S
H165 C138 0.983 . S
H166 C137 0.982 . S
H167 C137 0.979 . S
H168 C137 0.977 . S
H169 C139 0.948 . S
H170 C141 0.947 . S
H171 C142 0.948 . S
H172 C148 0.982 . S
H173 C148 0.979 . S
H174 C148 0.977 . S
H175 C149 0.979 . S
H176 C149 0.980 . S
H177 C149 0.983 . S
H178 C122 0.947 . S
C179 C122 1.392 . S
C179 C123 1.419 . S
C179 H161 0.948 . S
C180 C181 1.391 . S
C180 C184 1.391 . S
C180 H222 0.948 . S
C181 C180 1.391 . S
C181 C182 1.391 . S
C182 C181 1.391 . S
C182 H238 0.947 . S
C182 C239 1.392 . S
C183 C184 1.391 . S
C183 C187 1.397 . S
C183 C239 1.419 . S
C184 C180 1.391 . S
C184 C183 1.391 . S
C184 C185 1.399 . S
C185 C184 1.399 . S
C185 C188 1.396 . S
C185 C197 1.453 . S
C185 C198 1.684 . S
H186 C210 0.948 . S
C187 C183 1.397 . S
C187 C188 1.394 . S
C187 C206 1.723 . S
C188 C185 1.396 . S
C188 C187 1.394 . S
C188 C218 1.723 . S
H189 C212 0.947 . S
H190 C213 0.948 . S
H191 C219 0.982 . S
H192 C220 0.979 . S
H193 C220 0.980 . S
H194 C220 0.983 . S
H195 C219 0.979 . S
H196 C219 0.977 . S
C197 C185 1.453 . S
C197 H226 0.982 . S
C197 H227 0.979 . S
C197 H228 0.977 . S
C198 C185 1.684 . S
C198 H223 0.979 . S
C198 H224 0.980 . S
C198 H225 0.983 . S
C199 C200 1.391 . S
C199 C204 1.391 . S
C199 H229 0.948 . S
C200 C199 1.391 . S
C200 C201 1.391 . S
C201 C200 1.391 . S
C201 C202 1.392 . S
C201 H230 0.947 . S
C202 C201 1.392 . S
C202 C203 1.419 . S
C202 H231 0.948 . S
C203 C202 1.419 . S
C203 C204 1.391 . S
C203 C207 1.397 . S
C204 C199 1.391 . S
C204 C203 1.391 . S
C204 C205 1.399 . S
C205 C204 1.399 . S
C205 C206 1.396 . S
C205 C208 1.453 . S
C205 C209 1.684 . S
C206 C187 1.723 . S
C206 C205 1.396 . S
C206 C207 1.394 . S
C207 C203 1.397 . S
C207 C206 1.394 . S
C207 C217 1.723 . S
C208 C205 1.453 . S
C208 H232 0.982 . S
C208 H233 0.979 . S
C208 H234 0.977 . S
C209 C205 1.684 . S
C209 H235 0.979 . S
C209 H236 0.980 . S
C209 H237 0.983 . S
C210 H186 0.948 . S
C210 C211 1.391 . S
C210 C215 1.391 . S
C211 C210 1.391 . S
C211 C212 1.391 . S
C212 H189 0.947 . S
C212 C211 1.391 . S
C212 C213 1.392 . S
C213 H190 0.948 . S
C213 C212 1.392 . S
C213 C214 1.419 . S
C214 C213 1.419 . S
C214 C215 1.391 . S
C214 C218 1.397 . S
C215 C210 1.391 . S
C215 C214 1.391 . S
C215 C216 1.399 . S
C216 C215 1.399 . S
C216 C217 1.396 . S
C216 C219 1.453 . S
C216 C220 1.684 . S
C217 C207 1.723 . S
C217 C216 1.396 . S
C217 C218 1.394 . S
C218 C188 1.723 . S
C218 C214 1.397 . S
C218 C217 1.394 . S
C219 H191 0.982 . S
C219 H195 0.979 . S
C219 H196 0.977 . S
C219 C216 1.453 . S
C220 H192 0.979 . S
C220 H193 0.980 . S
C220 H194 0.983 . S
C220 C216 1.684 . S
H221 C239 0.948 . S
H222 C180 0.948 . S
H223 C198 0.979 . S
H224 C198 0.980 . S
H225 C198 0.983 . S
H226 C197 0.982 . S
H227 C197 0.979 . S
H228 C197 0.977 . S
H229 C199 0.948 . S
H230 C201 0.947 . S
H231 C202 0.948 . S
H232 C208 0.982 . S
H233 C208 0.979 . S
H234 C208 0.977 . S
H235 C209 0.979 . S
H236 C209 0.980 . S
H237 C209 0.983 . S
H238 C182 0.947 . S
C239 C182 1.392 . S
C239 C183 1.419 . S
C239 H221 0.948 . S
C240 C241 1.391 . S
C240 C244 1.391 . S
C240 H282 0.948 . S
C241 C240 1.391 . S
C241 C242 1.391 . S
C242 C241 1.391 . S
C242 H298 0.947 . S
C242 C299 1.392 . S
C243 C244 1.391 . S
C243 C247 1.397 . S
C243 C299 1.419 . S
C244 C240 1.391 . S
C244 C243 1.391 . S
C244 C245 1.399 1_554 S
C245 C244 1.399 1_556 S
C245 C248 1.396 1_556 S
C245 C257 1.453 . S
C245 C258 1.684 . S
H246 C270 0.948 . S
C247 C243 1.397 . S
C247 C248 1.394 . S
C247 C266 1.723 . S
C248 C245 1.396 1_554 S
C248 C247 1.394 . S
C248 C278 1.723 1_554 S
H249 C272 0.947 . S
H250 C273 0.948 . S
H251 C279 0.982 . S
H252 C280 0.979 . S
H253 C280 0.980 1_554 S
H254 C280 0.983 . S
H255 C279 0.979 . S
H256 C279 0.977 1_554 S
C257 C245 1.453 . S
C257 H286 0.982 . S
C257 H287 0.979 . S
C257 H288 0.977 . S
C258 C245 1.684 . S
C258 H283 0.979 . S
C258 H284 0.980 . S
C258 H285 0.983 . S
C259 C260 1.391 . S
C259 C264 1.391 . S
C259 H289 0.948 . S
C260 C259 1.391 . S
C260 C261 1.391 . S
C261 C260 1.391 . S
C261 C262 1.392 . S
C261 H290 0.947 . S
C262 C261 1.392 . S
C262 C263 1.419 . S
C262 H291 0.948 . S
C263 C262 1.419 . S
C263 C264 1.391 . S
C263 C267 1.397 . S
C264 C259 1.391 . S
C264 C263 1.391 . S
C264 C265 1.399 . S
C265 C264 1.399 . S
C265 C266 1.396 . S
C265 C268 1.453 . S
C265 C269 1.684 . S
C266 C247 1.723 . S
C266 C265 1.396 . S
C266 C267 1.394 . S
C267 C263 1.397 . S
C267 C266 1.394 . S
C267 C277 1.723 . S
C268 C265 1.453 . S
C268 H292 0.982 . S
C268 H293 0.979 . S
C268 H294 0.977 . S
C269 C265 1.684 . S
C269 H295 0.979 . S
C269 H296 0.980 . S
C269 H297 0.983 . S
C270 H246 0.948 . S
C270 C271 1.391 . S
C270 C275 1.391 . S
C271 C270 1.391 . S
C271 C272 1.391 . S
C272 H249 0.947 . S
C272 C271 1.391 . S
C272 C273 1.392 . S
C273 H250 0.948 . S
C273 C272 1.392 . S
C273 C274 1.419 . S
C274 C273 1.419 . S
C274 C275 1.391 . S
C274 C278 1.397 . S
C275 C270 1.391 . S
C275 C274 1.391 . S
C275 C276 1.399 . S
C276 C275 1.399 . S
C276 C277 1.396 1_556 S
C276 C279 1.453 . S
C276 C280 1.684 . S
C277 C267 1.723 . S
C277 C276 1.396 1_554 S
C277 C278 1.394 1_554 S
C278 C248 1.723 1_556 S
C278 C274 1.397 . S
C278 C277 1.394 1_556 S
C279 H251 0.982 . S
C279 H255 0.979 . S
C279 H256 0.977 1_556 S
C279 C276 1.453 . S
C280 H252 0.979 . S
C280 H253 0.980 1_556 S
C280 H254 0.983 . S
C280 C276 1.684 . S
H281 C299 0.948 . S
H282 C240 0.948 . S
H283 C258 0.979 . S
H284 C258 0.980 . S
H285 C258 0.983 . S
H286 C257 0.982 . S
H287 C257 0.979 . S
H288 C257 0.977 . S
H289 C259 0.948 . S
H290 C261 0.947 . S
H291 C262 0.948 . S
H292 C268 0.982 . S
H293 C268 0.979 . S
H294 C268 0.977 . S
H295 C269 0.979 . S
H296 C269 0.980 . S
H297 C269 0.983 . S
H298 C242 0.947 . S
C299 C242 1.392 . S
C299 C243 1.419 . S
C299 H281 0.948 . S
C300 C301 1.391 . S
C300 C304 1.391 . S
C300 H342 0.948 . S
C301 C300 1.391 . S
C301 C302 1.391 . S
C302 C301 1.391 . S
C302 H358 0.947 . S
C302 C359 1.392 . S
C303 C304 1.398 . S
C303 C307 1.395 1_655 S
C303 C359 1.424 . S
C304 C300 1.391 . S
C304 C303 1.398 . S
C304 C305 1.399 . S
C305 C304 1.399 . S
C305 C308 1.396 1_655 S
C305 C317 1.453 1_655 S
C305 C318 1.684 . S
H306 C330 0.948 . S
C307 C303 1.395 1_455 S
C307 C308 1.395 . S
C307 C326 1.723 . S
C308 C305 1.396 1_455 S
C308 C307 1.395 . S
C308 C338 1.723 . S
H309 C332 0.947 . S
H310 C333 0.948 . S
H311 C339 0.982 . S
H312 C340 0.979 . S
H313 C340 0.980 . S
H314 C340 0.983 . S
H315 C339 0.979 . S
H316 C339 0.977 . S
C317 C305 1.453 1_455 S
C317 H346 0.982 . S
C317 H347 0.979 . S
C317 H348 0.977 . S
C318 C305 1.684 . S
C318 H343 0.979 . S
C318 H344 0.980 . S
C318 H345 0.983 . S
C319 C320 1.391 . S
C319 C324 1.391 . S
C319 H349 0.948 . S
C320 C319 1.391 . S
C320 C321 1.391 . S
C321 C320 1.391 . S
C321 C322 1.392 . S
C321 H350 0.947 . S
C322 C321 1.392 . S
C322 C323 1.424 . S
C322 H351 0.948 . S
C323 C322 1.424 . S
C323 C324 1.398 . S
C323 C327 1.395 1_655 S
C324 C319 1.391 . S
C324 C323 1.398 . S
C324 C325 1.399 . S
C325 C324 1.399 . S
C325 C326 1.396 1_656 S
C325 C328 1.453 1_655 S
C325 C329 1.684 . S
C326 C307 1.723 . S
C326 C325 1.396 1_454 S
C326 C327 1.395 1_554 S
C327 C323 1.395 1_455 S
C327 C326 1.395 1_556 S
C327 C337 1.723 1_556 S
C328 C325 1.453 1_455 S
C328 H352 0.982 . S
C328 H353 0.979 . S
C328 H354 0.977 1_556 S
C329 C325 1.684 . S
C329 H355 0.979 . S
C329 H356 0.980 1_556 S
C329 H357 0.983 . S
C330 H306 0.948 . S
C330 C331 1.391 . S
C330 C335 1.391 . S
C331 C330 1.391 . S
C331 C332 1.391 . S
C332 H309 0.947 . S
C332 C331 1.391 . S
C332 C333 1.392 . S
C333 H310 0.948 . S
C333 C332 1.392 . S
C333 C334 1.424 . S
C334 C333 1.424 . S
C334 C335 1.398 . S
C334 C338 1.395 1_655 S
C335 C330 1.391 . S
C335 C334 1.398 . S
C335 C336 1.399 1_554 S
C336 C335 1.399 1_556 S
C336 C337 1.396 1_656 S
C336 C339 1.453 1_655 S
C336 C340 1.684 . S
C337 C327 1.723 1_554 S
C337 C336 1.396 1_454 S
C337 C338 1.395 . S
C338 C308 1.723 . S
C338 C334 1.395 1_455 S
C338 C337 1.395 . S
C339 H311 0.982 . S
C339 H315 0.979 . S
C339 H316 0.977 . S
C339 C336 1.453 1_455 S
C340 H312 0.979 . S
C340 H313 0.980 . S
C340 H314 0.983 . S
C340 C336 1.684 . S
H341 C359 0.948 . S
H342 C300 0.948 . S
H343 C318 0.979 . S
H344 C318 0.980 . S
H345 C318 0.983 . S
H346 C317 0.982 . S
H347 C317 0.979 . S
H348 C317 0.977 . S
H349 C319 0.948 . S
H350 C321 0.947 . S
H351 C322 0.948 . S
H352 C328 0.982 . S
H353 C328 0.979 . S
H354 C328 0.977 1_554 S
H355 C329 0.979 . S
H356 C329 0.980 1_554 S
H357 C329 0.983 . S
H358 C302 0.947 . S
C359 C302 1.392 . S
C359 C303 1.424 . S
C359 H341 0.948 . S
C360 C361 1.391 . S
C360 C364 1.391 . S
C360 H402 0.948 . S
C361 C360 1.391 . S
C361 C362 1.391 . S
C362 C361 1.391 . S
C362 H418 0.947 . S
C362 C419 1.392 . S
C363 C364 1.391 . S
C363 C367 1.397 1_545 S
C363 C419 1.419 . S
C364 C360 1.391 . S
C364 C363 1.391 . S
C364 C365 1.399 . S
C365 C364 1.399 . S
C365 C368 1.388 1_545 S
C365 C377 1.453 1_545 S
C365 C378 1.684 . S
H366 C390 0.948 . S
C367 C363 1.397 1_565 S
C367 C368 1.393 . S
C367 C386 1.722 1_556 S
C368 C365 1.388 1_565 S
C368 C367 1.393 . S
C368 C398 1.722 1_556 S
H369 C392 0.947 . S
H370 C393 0.948 1_556 S
H371 C399 0.982 . S
H372 C400 0.979 . S
H373 C400 0.980 . S
H374 C400 0.983 . S
H375 C399 0.979 . S
H376 C399 0.977 . S
C377 C365 1.453 1_565 S
C377 H406 0.982 . S
C377 H407 0.979 . S
C377 H408 0.977 . S
C378 C365 1.684 . S
C378 H403 0.979 . S
C378 H404 0.980 . S
C378 H405 0.983 . S
C379 C380 1.391 . S
C379 C384 1.391 . S
C379 H409 0.948 . S
C380 C379 1.391 . S
C380 C381 1.391 . S
C381 C380 1.391 . S
C381 C382 1.392 . S
C381 H410 0.947 . S
C382 C381 1.392 . S
C382 C383 1.419 . S
C382 H411 0.948 . S
C383 C382 1.419 . S
C383 C384 1.391 . S
C383 C387 1.397 1_545 S
C384 C379 1.391 . S
C384 C383 1.391 . S
C384 C385 1.399 . S
C385 C384 1.399 . S
C385 C386 1.388 1_545 S
C385 C388 1.453 1_545 S
C385 C389 1.684 . S
C386 C367 1.722 1_554 S
C386 C385 1.388 1_565 S
C386 C387 1.393 . S
C387 C383 1.397 1_565 S
C387 C386 1.393 . S
C387 C397 1.722 . S
C388 C385 1.453 1_565 S
C388 H412 0.982 . S
C388 H413 0.979 . S
C388 H414 0.977 . S
C389 C385 1.684 . S
C389 H415 0.979 . S
C389 H416 0.967 1_554 S
C389 H417 0.983 . S
C390 H366 0.948 . S
C390 C391 1.391 . S
C390 C395 1.391 . S
C391 C390 1.391 . S
C391 C392 1.391 . S
C392 H369 0.947 . S
C392 C391 1.391 . S
C392 C393 1.392 . S
C393 H370 0.948 1_554 S
C393 C392 1.392 . S
C393 C394 1.419 . S
C394 C393 1.419 . S
C394 C395 1.391 . S
C394 C398 1.397 1_545 S
C395 C390 1.391 . S
C395 C394 1.391 . S
C395 C396 1.399 . S
C396 C395 1.399 . S
C396 C397 1.388 1_545 S
C396 C399 1.453 1_545 S
C396 C400 1.684 . S
C397 C387 1.722 . S
C397 C396 1.388 1_565 S
C397 C398 1.393 . S
C398 C368 1.722 1_554 S
C398 C394 1.397 1_565 S
C398 C397 1.393 . S
C399 H371 0.982 . S
C399 H375 0.979 . S
C399 H376 0.977 . S
C399 C396 1.453 1_565 S
C400 H372 0.979 . S
C400 H373 0.980 . S
C400 H374 0.983 . S
C400 C396 1.684 . S
H401 C419 0.948 . S
H402 C360 0.948 . S
H403 C378 0.979 . S
H404 C378 0.980 . S
H405 C378 0.983 . S
H406 C377 0.982 . S
H407 C377 0.979 . S
H408 C377 0.977 . S
H409 C379 0.948 . S
H410 C381 0.947 . S
H411 C382 0.948 . S
H412 C388 0.982 . S
H413 C388 0.979 . S
H414 C388 0.977 . S
H415 C389 0.979 . S
H416 C389 0.967 1_556 S
H417 C389 0.983 . S
H418 C362 0.947 . S
C419 C362 1.392 . S
C419 C363 1.419 . S
C419 H401 0.948 . S
C420 C421 1.391 . S
C420 C424 1.391 . S
C420 H462 0.948 . S
C421 C420 1.391 . S
C421 C422 1.391 . S
C422 C421 1.391 . S
C422 H478 0.947 . S
C422 C479 1.392 . S
C423 C424 1.391 . S
C423 C427 1.397 . S
C423 C479 1.419 . S
C424 C420 1.391 . S
C424 C423 1.391 . S
C424 C425 1.399 . S
C425 C424 1.399 . S
C425 C428 1.396 . S
C425 C437 1.453 . S
C425 C438 1.684 . S
H426 C450 0.948 . S
C427 C423 1.397 . S
C427 C428 1.394 . S
C427 C446 1.723 1_556 S
C428 C425 1.396 . S
C428 C427 1.394 . S
C428 C458 1.723 1_556 S
H429 C452 0.947 . S
H430 C453 0.948 1_556 S
H431 C459 0.982 . S
H432 C460 0.979 . S
H433 C460 0.980 . S
H434 C460 0.983 . S
H435 C459 0.979 . S
H436 C459 0.977 . S
C437 C425 1.453 . S
C437 H466 0.982 . S
C437 H467 0.979 . S
C437 H468 0.977 . S
C438 C425 1.684 . S
C438 H463 0.979 . S
C438 H464 0.980 . S
C438 H465 0.983 . S
C439 C440 1.391 . S
C439 C444 1.391 . S
C439 H469 0.948 . S
C440 C439 1.391 . S
C440 C441 1.391 . S
C441 C440 1.391 . S
C441 C442 1.392 . S
C441 H470 0.947 . S
C442 C441 1.392 . S
C442 C443 1.419 . S
C442 H471 0.948 . S
C443 C442 1.419 . S
C443 C444 1.391 . S
C443 C447 1.397 . S
C444 C439 1.391 . S
C444 C443 1.391 . S
C444 C445 1.399 . S
C445 C444 1.399 . S
C445 C446 1.396 . S
C445 C448 1.453 . S
C445 C449 1.684 . S
C446 C427 1.723 1_554 S
C446 C445 1.396 . S
C446 C447 1.394 . S
C447 C443 1.397 . S
C447 C446 1.394 . S
C447 C457 1.723 . S
C448 C445 1.453 . S
C448 H472 0.982 . S
C448 H473 0.979 . S
C448 H474 0.977 . S
C449 C445 1.684 . S
C449 H475 0.979 . S
C449 H476 0.980 1_554 S
C449 H477 0.983 . S
C450 H426 0.948 . S
C450 C451 1.391 . S
C450 C455 1.391 . S
C451 C450 1.391 . S
C451 C452 1.391 . S
C452 H429 0.947 . S
C452 C451 1.391 . S
C452 C453 1.392 . S
C453 H430 0.948 1_554 S
C453 C452 1.392 . S
C453 C454 1.419 . S
C454 C453 1.419 . S
C454 C455 1.391 . S
C454 C458 1.397 . S
C455 C450 1.391 . S
C455 C454 1.391 . S
C455 C456 1.399 . S
C456 C455 1.399 . S
C456 C457 1.396 . S
C456 C459 1.453 . S
C456 C460 1.684 . S
C457 C447 1.723 . S
C457 C456 1.396 . S
C457 C458 1.394 . S
C458 C428 1.723 1_554 S
C458 C454 1.397 . S
C458 C457 1.394 . S
C459 H431 0.982 . S
C459 H435 0.979 . S
C459 H436 0.977 . S
C459 C456 1.453 . S
C460 H432 0.979 . S
C460 H433 0.980 . S
C460 H434 0.983 . S
C460 C456 1.684 . S
H461 C479 0.948 . S
H462 C420 0.948 . S
H463 C438 0.979 . S
H464 C438 0.980 . S
H465 C438 0.983 . S
H466 C437 0.982 . S
H467 C437 0.979 . S
H468 C437 0.977 . S
H469 C439 0.948 . S
H470 C441 0.947 . S
H471 C442 0.948 . S
H472 C448 0.982 . S
H473 C448 0.979 . S
H474 C448 0.977 . S
H475 C449 0.979 . S
H476 C449 0.980 1_556 S
H477 C449 0.983 . S
H478 C422 0.947 . S
C479 C422 1.392 . S
C479 C423 1.419 . S
C479 H461 0.948 . S
Tb480 C490 2.825 . S
Tb480 O491 2.347 1_455 S
Tb480 O494 2.366 . S
Tb480 O499 2.418 . S
Tb480 O500 2.384 1_565 S
Tb480 O503 2.479 . S
Tb480 O504 2.471 . S
Eu481 O492 2.418 . S
Eu481 O493 2.384 1_545 S
Eu481 O496 2.479 . S
Eu481 O497 2.471 . S
Eu481 O498 2.347 1_655 S
Eu481 O501 2.366 . S
Eu481 C511 2.825 . S
C482 O498 1.259 1_565 S
C482 O499 1.265 . S
C483 O500 1.255 . S
C483 O501 1.265 1_455 S
C484 C486 1.380 . S
C484 C487 1.374 . S
C484 C490 1.507 . S
C485 C486 1.384 . S
C485 C489 1.387 . S
C485 H512 0.930 . S
C486 C484 1.380 . S
C486 C485 1.384 . S
C486 H513 0.931 . S
C487 C484 1.374 . S
C487 C488 1.390 . S
C487 H514 0.930 1_455 S
C488 C487 1.390 . S
C488 C489 1.391 . S
C488 H515 0.930 1_455 S
C489 C485 1.387 . S
C489 C488 1.391 . S
C490 Tb480 2.825 . S
C490 C484 1.507 . S
C490 O503 1.238 . S
C490 O504 1.247 . S
O491 Tb480 2.347 1_655 S
O491 C495 1.259 1_565 S
O492 Eu481 2.418 . S
O492 C495 1.265 . S
O493 Eu481 2.384 1_565 S
O493 C502 1.255 . S
O494 Tb480 2.366 . S
O494 C502 1.265 1_455 S
C495 O491 1.259 1_545 S
C495 O492 1.265 . S
O496 Eu481 2.479 . S
O496 C511 1.238 . S
O497 Eu481 2.471 . S
O497 C511 1.247 . S
O498 Eu481 2.347 1_455 S
O498 C482 1.259 1_545 S
O499 Tb480 2.418 . S
O499 C482 1.265 . S
O500 Tb480 2.384 1_545 S
O500 C483 1.255 . S
O501 Eu481 2.366 . S
O501 C483 1.265 1_655 S
C502 O493 1.255 . S
C502 O494 1.265 1_655 S
O503 Tb480 2.479 . S
O503 C490 1.238 . S
O504 Tb480 2.471 . S
O504 C490 1.247 . S
C505 C508 1.380 . S
C505 C509 1.374 . S
C505 C511 1.507 . S
C506 C507 1.387 . S
C506 C510 1.391 . S
C507 C506 1.387 . S
C507 C508 1.384 . S
C507 H516 0.930 . S
C508 C505 1.380 . S
C508 C507 1.384 . S
C508 H517 0.931 . S
C509 C505 1.374 . S
C509 C510 1.390 . S
C509 H518 0.930 1_655 S
C510 C506 1.391 . S
C510 C509 1.390 . S
C510 H519 0.930 1_655 S
C511 Eu481 2.825 . S
C511 O496 1.238 . S
C511 O497 1.247 . S
C511 C505 1.507 . S
H512 C485 0.930 . S
H513 C486 0.931 . S
H514 C487 0.930 1_655 S
H515 C488 0.930 1_655 S
H516 C507 0.930 . S
H517 C508 0.931 . S
H518 C509 0.930 1_455 S
H519 C510 0.930 1_455 S
Tb520 C530 2.825 . S
Tb520 O531 2.347 1_545 S
Tb520 O534 2.366 . S
Tb520 O539 2.418 . S
Tb520 O540 2.384 . S
Tb520 O543 2.479 . S
Tb520 O544 2.471 . S
Eu521 O532 2.418 . S
Eu521 O533 2.384 . S
Eu521 O536 2.479 . S
Eu521 O537 2.471 . S
Eu521 O538 2.347 1_565 S
Eu521 O541 2.366 . S
Eu521 C551 2.825 . S
C522 O538 1.259 . S
C522 O539 1.265 . S
C523 O540 1.255 . S
C523 O541 1.265 1_545 S
C524 C526 1.380 . S
C524 C527 1.374 . S
C524 C530 1.507 . S
C525 C526 1.384 . S
C525 C529 1.387 . S
C525 H552 0.930 . S
C526 C524 1.380 . S
C526 C525 1.384 . S
C526 H553 0.931 . S
C527 C524 1.374 . S
C527 C528 1.390 . S
C527 H554 0.930 1_545 S
C528 C527 1.390 . S
C528 C529 1.391 . S
C528 H555 0.930 1_545 S
C529 C525 1.387 . S
C529 C528 1.391 . S
C530 Tb520 2.825 . S
C530 C524 1.507 . S
C530 O543 1.238 . S
C530 O544 1.247 . S
O531 Tb520 2.347 1_565 S
O531 C535 1.259 . S
O532 Eu521 2.418 . S
O532 C535 1.265 . S
O533 Eu521 2.384 . S
O533 C542 1.255 . S
O534 Tb520 2.366 . S
O534 C542 1.265 1_545 S
C535 O531 1.259 . S
C535 O532 1.265 . S
O536 Eu521 2.479 . S
O536 C551 1.238 . S
O537 Eu521 2.471 . S
O537 C551 1.247 . S
O538 Eu521 2.347 1_545 S
O538 C522 1.259 . S
O539 Tb520 2.418 . S
O539 C522 1.265 . S
O540 Tb520 2.384 . S
O540 C523 1.255 . S
O541 Eu521 2.366 . S
O541 C523 1.265 1_565 S
C542 O533 1.255 . S
C542 O534 1.265 1_565 S
O543 Tb520 2.479 . S
O543 C530 1.238 . S
O544 Tb520 2.471 . S
O544 C530 1.247 . S
C545 C548 1.380 . S
C545 C549 1.374 . S
C545 C551 1.507 . S
C546 C547 1.387 . S
C546 C550 1.391 . S
C547 C546 1.387 . S
C547 C548 1.384 . S
C547 H556 0.930 . S
C548 C545 1.380 . S
C548 C547 1.384 . S
C548 H557 0.931 . S
C549 C545 1.374 . S
C549 C550 1.390 . S
C549 H558 0.930 1_565 S
C550 C546 1.391 . S
C550 C549 1.390 . S
C550 H559 0.930 1_565 S
C551 Eu521 2.825 . S
C551 O536 1.238 . S
C551 O537 1.247 . S
C551 C545 1.507 . S
H552 C525 0.930 . S
H553 C526 0.931 . S
H554 C527 0.930 1_565 S
H555 C528 0.930 1_565 S
H556 C547 0.930 . S
H557 C548 0.931 . S
H558 C549 0.930 1_545 S
H559 C550 0.930 1_545 S
Tb560 C570 2.825 . S
Tb560 O571 2.347 . S
Tb560 O574 2.366 . S
Tb560 O579 2.418 . S
Tb560 O580 2.384 . S
Tb560 O583 2.479 . S
Tb560 O584 2.471 . S
Eu561 O572 2.418 . S
Eu561 O573 2.384 . S
Eu561 O576 2.479 . S
Eu561 O577 2.471 . S
Eu561 O578 2.347 . S
Eu561 O581 2.366 . S
Eu561 C591 2.825 . S
C562 O578 1.259 . S
C562 O579 1.265 . S
C563 O580 1.255 . S
C563 O581 1.265 . S
C564 C566 1.380 . S
C564 C567 1.374 . S
C564 C570 1.507 . S
C565 C566 1.384 . S
C565 C569 1.387 . S
C565 H592 0.930 . S
C566 C564 1.380 . S
C566 C565 1.384 . S
C566 H593 0.931 . S
C567 C564 1.374 . S
C567 C568 1.390 . S
C567 H594 0.930 . S
C568 C567 1.390 . S
C568 C569 1.391 . S
C568 H595 0.930 . S
C569 C565 1.387 . S
C569 C568 1.391 . S
C570 Tb560 2.825 . S
C570 C564 1.507 . S
C570 O583 1.238 . S
C570 O584 1.247 . S
O571 Tb560 2.347 . S
O571 C575 1.259 . S
O572 Eu561 2.418 . S
O572 C575 1.265 . S
O573 Eu561 2.384 . S
O573 C582 1.255 . S
O574 Tb560 2.366 . S
O574 C582 1.265 . S
C575 O571 1.259 . S
C575 O572 1.265 . S
O576 Eu561 2.479 . S
O576 C591 1.238 . S
O577 Eu561 2.471 . S
O577 C591 1.247 . S
O578 Eu561 2.347 . S
O578 C562 1.259 . S
O579 Tb560 2.418 . S
O579 C562 1.265 . S
O580 Tb560 2.384 . S
O580 C563 1.255 . S
O581 Eu561 2.366 . S
O581 C563 1.265 . S
C582 O573 1.255 . S
C582 O574 1.265 . S
O583 Tb560 2.479 . S
O583 C570 1.238 . S
O584 Tb560 2.471 . S
O584 C570 1.247 . S
C585 C588 1.380 . S
C585 C589 1.374 . S
C585 C591 1.507 . S
C586 C587 1.387 . S
C586 C590 1.391 . S
C587 C586 1.387 . S
C587 C588 1.384 . S
C587 H596 0.930 . S
C588 C585 1.380 . S
C588 C587 1.384 . S
C588 H597 0.931 . S
C589 C585 1.374 . S
C589 C590 1.390 . S
C589 H598 0.930 . S
C590 C586 1.391 . S
C590 C589 1.390 . S
C590 H599 0.930 . S
C591 Eu561 2.825 . S
C591 O576 1.238 . S
C591 O577 1.247 . S
C591 C585 1.507 . S
H592 C565 0.930 . S
H593 C566 0.931 . S
H594 C567 0.930 . S
H595 C568 0.930 . S
H596 C587 0.930 . S
H597 C588 0.931 . S
H598 C589 0.930 . S
H599 C590 0.930 . S
Tb600 C610 2.825 . S
Tb600 O611 2.347 . S
Tb600 O614 2.366 . S
Tb600 O619 2.418 . S
Tb600 O620 2.384 1_655 S
Tb600 O623 2.479 . S
Tb600 O624 2.471 . S
Eu601 O612 2.418 . S
Eu601 O613 2.384 1_455 S
Eu601 O616 2.479 . S
Eu601 O617 2.471 . S
Eu601 O618 2.347 . S
Eu601 O621 2.366 . S
Eu601 C631 2.825 . S
C602 O618 1.259 1_655 S
C602 O619 1.265 . S
C603 O620 1.255 . S
C603 O621 1.265 . S
C604 C606 1.380 . S
C604 C607 1.374 . S
C604 C610 1.507 . S
C605 C606 1.384 . S
C605 C609 1.387 . S
C605 H632 0.930 . S
C606 C604 1.380 . S
C606 C605 1.384 . S
C606 H633 0.931 . S
C607 C604 1.374 . S
C607 C608 1.390 . S
C607 H634 0.930 . S
C608 C607 1.390 . S
C608 C609 1.391 . S
C608 H635 0.930 . S
C609 C605 1.387 . S
C609 C608 1.391 . S
C610 Tb600 2.825 . S
C610 C604 1.507 . S
C610 O623 1.238 . S
C610 O624 1.247 . S
O611 Tb600 2.347 . S
O611 C615 1.259 1_655 S
O612 Eu601 2.418 . S
O612 C615 1.265 . S
O613 Eu601 2.384 1_655 S
O613 C622 1.255 . S
O614 Tb600 2.366 . S
O614 C622 1.265 . S
C615 O611 1.259 1_455 S
C615 O612 1.265 . S
O616 Eu601 2.479 . S
O616 C631 1.238 . S
O617 Eu601 2.471 . S
O617 C631 1.247 . S
O618 Eu601 2.347 . S
O618 C602 1.259 1_455 S
O619 Tb600 2.418 . S
O619 C602 1.265 . S
O620 Tb600 2.384 1_455 S
O620 C603 1.255 . S
O621 Eu601 2.366 . S
O621 C603 1.265 . S
C622 O613 1.255 . S
C622 O614 1.265 . S
O623 Tb600 2.479 . S
O623 C610 1.238 . S
O624 Tb600 2.471 . S
O624 C610 1.247 . S
C625 C628 1.380 . S
C625 C629 1.374 . S
C625 C631 1.507 . S
C626 C627 1.387 . S
C626 C630 1.391 . S
C627 C626 1.387 . S
C627 C628 1.384 . S
C627 H636 0.930 . S
C628 C625 1.380 . S
C628 C627 1.384 . S
C628 H637 0.931 . S
C629 C625 1.374 . S
C629 C630 1.390 . S
C629 H638 0.930 . S
C630 C626 1.391 . S
C630 C629 1.390 . S
C630 H639 0.930 . S
C631 Eu601 2.825 . S
C631 O616 1.238 . S
C631 O617 1.247 . S
C631 C625 1.507 . S
H632 C605 0.930 . S
H633 C606 0.931 . S
H634 C607 0.930 . S
H635 C608 0.930 . S
H636 C627 0.930 . S
H637 C628 0.931 . S
H638 C629 0.930 . S
H639 C630 0.930 . S
C640 C641 1.346 1_565 S
C640 C642 1.327 . S
C640 H665 0.950 . S
C641 C640 1.346 1_545 S
C641 C657 1.352 . S
C642 C640 1.327 . S
C642 C661 1.419 1_565 S
C642 H666 0.950 . S
C643 C660 1.574 . S
C643 C662 1.383 . S
C643 H667 0.949 . S
H644 C648 0.949 . S
C645 C646 1.380 . S
C645 C647 1.327 . S
C645 H668 0.950 . S
C646 C645 1.380 . S
C646 C658 1.318 1_545 S
C647 C645 1.327 . S
C647 C663 1.452 . S
C647 H669 0.950 . S
C648 H644 0.949 . S
C648 C656 1.574 . S
C648 C664 1.347 1_565 S
H649 C657 0.950 . S
H650 C655 0.950 . S
H651 C656 0.949 . S
H652 C658 0.950 . S
H653 C659 0.950 . S
H654 C660 0.949 . S
C655 H650 0.950 . S
C655 C657 1.327 . S
C655 C661 1.438 . S
C656 C648 1.574 . S
C656 H651 0.949 . S
C656 C662 1.354 1_565 S
C657 C641 1.352 . S
C657 H649 0.950 . S
C657 C655 1.327 . S
C658 C646 1.318 1_565 S
C658 H652 0.950 . S
C658 C659 1.327 . S
C659 H653 0.950 . S
C659 C658 1.327 . S
C659 C663 1.405 1_565 S
C660 C643 1.574 . S
C660 H654 0.949 . S
C660 C664 1.390 . S
C661 C642 1.419 1_545 S
C661 C655 1.438 . S
C661 C662 1.523 . S
C662 C643 1.383 . S
C662 C656 1.354 1_545 S
C662 C661 1.523 . S
C663 C647 1.452 . S
C663 C659 1.405 1_545 S
C663 C664 1.523 . S
C664 C648 1.347 1_545 S
C664 C660 1.390 . S
C664 C663 1.523 . S
H665 C640 0.950 . S
H666 C642 0.950 . S
H667 C643 0.949 . S
H668 C645 0.950 . S
H669 C647 0.950 . S
C670 C671 1.349 . S
C670 C672 1.327 . S
C670 H695 0.950 . S
C671 C670 1.349 . S
C671 C687 1.349 . S
C672 C670 1.327 . S
C672 C691 1.429 . S
C672 H696 0.950 . S
C673 C690 1.574 . S
C673 C692 1.368 . S
C673 H697 0.949 . S
H674 C678 0.949 . S
C675 C676 1.349 . S
C675 C677 1.327 . S
C675 H698 0.950 . S
C676 C675 1.349 . S
C676 C688 1.349 . S
C677 C675 1.327 . S
C677 C693 1.429 . S
C677 H699 0.950 . S
C678 H674 0.949 . S
C678 C686 1.574 . S
C678 C694 1.368 . S
H679 C687 0.950 . S
H680 C685 0.950 . S
H681 C686 0.949 . S
H682 C688 0.950 . S
H683 C689 0.950 . S
H684 C690 0.949 . S
C685 H680 0.950 . S
C685 C687 1.327 . S
C685 C691 1.429 . S
C686 C678 1.574 . S
C686 H681 0.949 . S
C686 C692 1.368 . S
C687 C671 1.349 . S
C687 H679 0.950 . S
C687 C685 1.327 . S
C688 C676 1.349 . S
C688 H682 0.950 . S
C688 C689 1.327 . S
C689 H683 0.950 . S
C689 C688 1.327 . S
C689 C693 1.429 . S
C690 C673 1.574 . S
C690 H684 0.949 . S
C690 C694 1.368 . S
C691 C672 1.429 . S
C691 C685 1.429 . S
C691 C692 1.523 . S
C692 C673 1.368 . S
C692 C686 1.368 . S
C692 C691 1.523 . S
C693 C677 1.429 . S
C693 C689 1.429 . S
C693 C694 1.523 . S
C694 C678 1.368 . S
C694 C690 1.368 . S
C694 C693 1.523 . S
H695 C670 0.950 . S
H696 C672 0.950 . S
H697 C673 0.949 . S
H698 C675 0.950 . S
H699 C677 0.950 . S
C700 C701 1.349 . S
C700 C702 1.327 . S
C700 H725 0.950 . S
C701 C700 1.349 . S
C701 C717 1.349 . S
C702 C700 1.327 . S
C702 C721 1.429 . S
C702 H726 0.950 . S
C703 C720 1.574 . S
C703 C722 1.368 . S
C703 H727 0.949 . S
H704 C708 0.949 . S
C705 C706 1.349 . S
C705 C707 1.327 . S
C705 H728 0.950 . S
C706 C705 1.349 . S
C706 C718 1.349 . S
C707 C705 1.327 . S
C707 C723 1.429 . S
C707 H729 0.950 . S
C708 H704 0.949 . S
C708 C716 1.574 . S
C708 C724 1.368 . S
H709 C717 0.950 . S
H710 C715 0.950 . S
H711 C716 0.949 . S
H712 C718 0.950 . S
H713 C719 0.950 . S
H714 C720 0.949 . S
C715 H710 0.950 . S
C715 C717 1.327 . S
C715 C721 1.429 . S
C716 C708 1.574 . S
C716 H711 0.949 . S
C716 C722 1.368 . S
C717 C701 1.349 . S
C717 H709 0.950 . S
C717 C715 1.327 . S
C718 C706 1.349 . S
C718 H712 0.950 . S
C718 C719 1.327 . S
C719 H713 0.950 . S
C719 C718 1.327 . S
C719 C723 1.429 . S
C720 C703 1.574 . S
C720 H714 0.949 . S
C720 C724 1.368 . S
C721 C702 1.429 . S
C721 C715 1.429 . S
C721 C722 1.523 . S
C722 C703 1.368 . S
C722 C716 1.368 . S
C722 C721 1.523 . S
C723 C707 1.429 . S
C723 C719 1.429 . S
C723 C724 1.523 . S
C724 C708 1.368 . S
C724 C720 1.368 . S
C724 C723 1.523 . S
H725 C700 0.950 . S
H726 C702 0.950 . S
H727 C703 0.949 . S
H728 C705 0.950 . S
H729 C707 0.950 . S
C730 C731 1.352 . S
C730 C732 1.327 . S
C730 H755 0.950 . S
C731 C730 1.352 . S
C731 C747 1.346 1_455 S
C732 C730 1.327 . S
C732 C751 1.438 . S
C732 H756 0.950 . S
C733 C750 1.574 . S
C733 C752 1.354 1_655 S
C733 H757 0.949 . S
H734 C738 0.949 . S
C735 C736 1.318 1_655 S
C735 C737 1.327 . S
C735 H758 0.950 . S
C736 C735 1.318 1_455 S
C736 C748 1.380 . S
C737 C735 1.327 . S
C737 C753 1.406 1_655 S
C737 H759 0.950 . S
C738 H734 0.949 . S
C738 C746 1.574 . S
C738 C754 1.390 . S
H739 C747 0.950 . S
H740 C745 0.950 . S
H741 C746 0.949 . S
H742 C748 0.950 . S
H743 C749 0.950 . S
H744 C750 0.949 . S
C745 H740 0.950 . S
C745 C747 1.327 . S
C745 C751 1.419 1_655 S
C746 C738 1.574 . S
C746 H741 0.949 . S
C746 C752 1.383 . S
C747 C731 1.346 1_655 S
C747 H739 0.950 . S
C747 C745 1.327 . S
C748 C736 1.380 . S
C748 H742 0.950 . S
C748 C749 1.327 . S
C749 H743 0.950 . S
C749 C748 1.327 . S
C749 C753 1.452 . S
C750 C733 1.574 . S
C750 H744 0.949 . S
C750 C754 1.347 1_655 S
C751 C732 1.438 . S
C751 C745 1.419 1_455 S
C751 C752 1.523 . S
C752 C733 1.354 1_455 S
C752 C746 1.383 . S
C752 C751 1.523 . S
C753 C737 1.406 1_455 S
C753 C749 1.452 . S
C753 C754 1.523 . S
C754 C738 1.390 . S
C754 C750 1.347 1_455 S
C754 C753 1.523 . S
H755 C730 0.950 . S
H756 C732 0.950 . S
H757 C733 0.949 . S
H758 C735 0.950 . S
H759 C737 0.950 . S
C760 C761 1.345 . S
C760 C762 1.327 . S
C760 H785 0.950 . S
C761 C760 1.345 . S
C761 C777 1.352 1_545 S
C762 C760 1.327 . S
C762 C781 1.429 1_545 S
C762 H786 0.950 . S
C763 C780 1.574 . S
C763 C782 1.372 1_556 S
C763 H787 0.949 1_556 S
H764 C768 0.949 . S
C765 C766 1.370 . S
C765 C767 1.327 . S
C765 H788 0.950 . S
C766 C765 1.370 . S
C766 C778 1.328 1_565 S
C767 C765 1.327 . S
C767 C783 1.442 . S
C767 H789 0.950 . S
C768 H764 0.949 . S
C768 C776 1.574 1_556 S
C768 C784 1.358 1_545 S
H769 C777 0.950 . S
H770 C775 0.950 . S
H771 C776 0.949 . S
H772 C778 0.950 . S
H773 C779 0.950 . S
H774 C780 0.949 . S
C775 H770 0.950 . S
C775 C777 1.327 . S
C775 C781 1.428 . S
C776 C768 1.574 1_554 S
C776 H771 0.949 . S
C776 C782 1.365 1_545 S
C777 C761 1.352 1_565 S
C777 H769 0.950 . S
C777 C775 1.327 . S
C778 C766 1.328 1_545 S
C778 H772 0.950 . S
C778 C779 1.327 . S
C779 H773 0.950 . S
C779 C778 1.327 . S
C779 C783 1.415 1_545 S
C780 C763 1.574 . S
C780 H774 0.949 . S
C780 C784 1.379 . S
C781 C762 1.429 1_565 S
C781 C775 1.428 . S
C781 C782 1.523 . S
C782 C763 1.372 1_554 S
C782 C776 1.365 1_565 S
C782 C781 1.523 . S
C783 C767 1.442 . S
C783 C779 1.415 1_565 S
C783 C784 1.523 . S
C784 C768 1.358 1_565 S
C784 C780 1.379 . S
C784 C783 1.523 . S
H785 C760 0.950 . S
H786 C762 0.950 . S
H787 C763 0.949 1_554 S
H788 C765 0.950 . S
H789 C767 0.950 . S
C790 C791 1.349 . S
C790 C792 1.327 . S
C790 H815 0.950 . S
C791 C790 1.349 . S
C791 C807 1.349 . S
C792 C790 1.327 . S
C792 C811 1.429 . S
C792 H816 0.950 . S
C793 C810 1.574 1_554 S
C793 C812 1.368 . S
C793 H817 0.949 . S
H794 C798 0.949 . S
C795 C796 1.349 . S
C795 C797 1.327 . S
C795 H818 0.950 . S
C796 C795 1.349 . S
C796 C808 1.349 . S
C797 C795 1.327 . S
C797 C813 1.429 . S
C797 H819 0.950 . S
C798 H794 0.949 . S
C798 C806 1.574 . S
C798 C814 1.368 . S
H799 C807 0.950 . S
H800 C805 0.950 . S
H801 C806 0.949 1_554 S
H802 C808 0.950 . S
H803 C809 0.950 . S
H804 C810 0.949 . S
C805 H800 0.950 . S
C805 C807 1.327 . S
C805 C811 1.429 . S
C806 C798 1.574 . S
C806 H801 0.949 1_556 S
C806 C812 1.368 1_556 S
C807 C791 1.349 . S
C807 H799 0.950 . S
C807 C805 1.327 . S
C808 C796 1.349 . S
C808 H802 0.950 . S
C808 C809 1.327 . S
C809 H803 0.950 . S
C809 C808 1.327 . S
C809 C813 1.429 . S
C810 C793 1.574 1_556 S
C810 H804 0.949 . S
C810 C814 1.368 . S
C811 C792 1.429 . S
C811 C805 1.429 . S
C811 C812 1.523 . S
C812 C793 1.368 . S
C812 C806 1.368 1_554 S
C812 C811 1.523 . S
C813 C797 1.429 . S
C813 C809 1.429 . S
C813 C814 1.523 . S
C814 C798 1.368 . S
C814 C810 1.368 . S
C814 C813 1.523 . S
H815 C790 0.950 . S
H816 C792 0.950 . S
H817 C793 0.949 . S
H818 C795 0.950 . S
H819 C797 0.950 . S
C820 C821 1.349 . S
C820 C822 1.327 . S
C820 H845 0.950 . S
C821 C820 1.349 . S
C821 C837 1.349 . S
C822 C820 1.327 . S
C822 C841 1.429 . S
C822 H846 0.950 . S
C823 C840 1.574 . S
C823 C842 1.368 1_556 S
C823 H847 0.949 1_556 S
H824 C828 0.949 . S
C825 C826 1.349 . S
C825 C827 1.327 . S
C825 H848 0.950 . S
C826 C825 1.349 . S
C826 C838 1.349 . S
C827 C825 1.327 . S
C827 C843 1.429 . S
C827 H849 0.950 . S
C828 H824 0.949 . S
C828 C836 1.574 1_556 S
C828 C844 1.368 . S
H829 C837 0.950 . S
H830 C835 0.950 . S
H831 C836 0.949 . S
H832 C838 0.950 . S
H833 C839 0.950 . S
H834 C840 0.949 . S
C835 H830 0.950 . S
C835 C837 1.327 . S
C835 C841 1.429 . S
C836 C828 1.574 1_554 S
C836 H831 0.949 . S
C836 C842 1.368 . S
C837 C821 1.349 . S
C837 H829 0.950 . S
C837 C835 1.327 . S
C838 C826 1.349 . S
C838 H832 0.950 . S
C838 C839 1.327 . S
C839 H833 0.950 . S
C839 C838 1.327 . S
C839 C843 1.429 . S
C840 C823 1.574 . S
C840 H834 0.949 . S
C840 C844 1.368 . S
C841 C822 1.429 . S
C841 C835 1.429 . S
C841 C842 1.523 . S
C842 C823 1.368 1_554 S
C842 C836 1.368 . S
C842 C841 1.523 . S
C843 C827 1.429 . S
C843 C839 1.429 . S
C843 C844 1.523 . S
C844 C828 1.368 . S
C844 C840 1.368 . S
C844 C843 1.523 . S
H845 C820 0.950 . S
H846 C822 0.950 . S
H847 C823 0.949 1_554 S
H848 C825 0.950 . S
H849 C827 0.950 . S
C850 C851 1.353 . S
C850 C852 1.327 . S
C850 H875 0.950 . S
C851 C850 1.353 . S
C851 C867 1.345 1_655 S
C852 C850 1.327 . S
C852 C871 1.440 . S
C852 H876 0.950 . S
C853 C870 1.574 1_554 S
C853 C872 1.351 1_455 S
C853 H877 0.949 . S
H854 C858 0.949 . S
C855 C856 1.312 1_455 S
C855 C857 1.327 . S
C855 H878 0.950 . S
C856 C855 1.312 1_655 S
C856 C868 1.386 . S
C857 C855 1.327 . S
C857 C873 1.401 1_455 S
C857 H879 0.950 . S
C858 H854 0.949 . S
C858 C866 1.580 . S
C858 C874 1.394 . S
H859 C867 0.950 . S
H860 C865 0.950 . S
H861 C866 0.947 1_554 S
H862 C868 0.950 . S
H863 C869 0.950 . S
H864 C870 0.949 . S
C865 H860 0.950 . S
C865 C867 1.327 . S
C865 C871 1.417 1_455 S
C866 C858 1.580 . S
C866 H861 0.947 1_556 S
C866 C872 1.382 1_556 S
C867 C851 1.345 1_455 S
C867 H859 0.950 . S
C867 C865 1.327 . S
C868 C856 1.386 . S
C868 H862 0.950 . S
C868 C869 1.327 . S
C869 H863 0.950 . S
C869 C868 1.327 . S
C869 C873 1.457 . S
C870 C853 1.574 1_556 S
C870 H864 0.949 . S
C870 C874 1.342 1_455 S
C871 C852 1.440 . S
C871 C865 1.417 1_655 S
C871 C872 1.523 . S
C872 C853 1.351 1_655 S
C872 C866 1.382 1_554 S
C872 C871 1.523 . S
C873 C857 1.401 1_655 S
C873 C869 1.457 . S
C873 C874 1.523 . S
C874 C858 1.394 . S
C874 C870 1.342 1_655 S
C874 C873 1.523 . S
H875 C850 0.950 . S
H876 C852 0.950 . S
H877 C853 0.949 . S
H878 C855 0.950 . S
H879 C857 0.950 . S
C880 C881 1.349 1_655 S
C880 C882 1.327 . S
C880 H905 0.950 . S
C881 C880 1.349 1_455 S
C881 C897 1.349 . S
C882 C880 1.327 . S
C882 C901 1.429 . S
C882 H906 0.950 . S
C883 C900 1.574 . S
C883 C902 1.368 . S
C883 H907 0.933 1_655 S
H884 C888 0.949 . S
C885 C886 1.349 . S
C885 C887 1.327 . S
C885 H908 0.950 . S
C886 C885 1.349 . S
C886 C898 1.349 . S
C887 C885 1.327 . S
C887 C903 1.429 . S
C887 H909 0.950 . S
C888 H884 0.949 . S
C888 C896 1.574 . S
C888 C904 1.368 . S
H889 C897 0.950 . S
H890 C895 0.950 . S
H891 C896 0.949 . S
H892 C898 0.950 . S
H893 C899 0.950 . S
H894 C900 0.949 . S
C895 H890 0.950 . S
C895 C897 1.327 . S
C895 C901 1.429 1_455 S
C896 C888 1.574 . S
C896 H891 0.949 . S
C896 C902 1.368 . S
C897 C881 1.349 . S
C897 H889 0.950 . S
C897 C895 1.327 . S
C898 C886 1.349 . S
C898 H892 0.950 . S
C898 C899 1.327 . S
C899 H893 0.950 . S
C899 C898 1.327 . S
C899 C903 1.429 . S
C900 C883 1.574 . S
C900 H894 0.949 . S
C900 C904 1.368 . S
C901 C882 1.429 . S
C901 C895 1.429 1_655 S
C901 C902 1.523 . S
C902 C883 1.368 . S
C902 C896 1.368 . S
C902 C901 1.523 . S
C903 C887 1.429 . S
C903 C899 1.429 . S
C903 C904 1.523 . S
C904 C888 1.368 . S
C904 C900 1.368 . S
C904 C903 1.523 . S
H905 C880 0.950 . S
H906 C882 0.950 . S
H907 C883 0.933 1_455 S
H908 C885 0.950 . S
H909 C887 0.950 . S
C910 C911 1.349 1_565 S
C910 C912 1.327 . S
C910 H935 0.950 . S
C911 C910 1.349 1_545 S
C911 C927 1.349 . S
C912 C910 1.327 . S
C912 C931 1.429 . S
C912 H936 0.950 . S
C913 C930 1.574 . S
C913 C932 1.368 . S
C913 H937 0.938 1_565 S
H914 C918 0.949 . S
C915 C916 1.349 . S
C915 C917 1.327 . S
C915 H938 0.950 . S
C916 C915 1.349 . S
C916 C928 1.349 . S
C917 C915 1.327 . S
C917 C933 1.429 . S
C917 H939 0.950 . S
C918 H914 0.949 . S
C918 C926 1.574 . S
C918 C934 1.368 . S
H919 C927 0.950 . S
H920 C925 0.950 . S
H921 C926 0.949 . S
H922 C928 0.950 . S
H923 C929 0.950 . S
H924 C930 0.949 . S
C925 H920 0.950 . S
C925 C927 1.327 . S
C925 C931 1.429 1_545 S
C926 C918 1.574 . S
C926 H921 0.949 . S
C926 C932 1.368 . S
C927 C911 1.349 . S
C927 H919 0.950 . S
C927 C925 1.327 . S
C928 C916 1.349 . S
C928 H922 0.950 . S
C928 C929 1.327 . S
C929 H923 0.950 . S
C929 C928 1.327 . S
C929 C933 1.429 . S
C930 C913 1.574 . S
C930 H924 0.949 . S
C930 C934 1.368 . S
C931 C912 1.429 . S
C931 C925 1.429 1_565 S
C931 C932 1.523 . S
C932 C913 1.368 . S
C932 C926 1.368 . S
C932 C931 1.523 . S
C933 C917 1.429 . S
C933 C929 1.429 . S
C933 C934 1.523 . S
C934 C918 1.368 . S
C934 C930 1.368 . S
C934 C933 1.523 . S
H935 C910 0.950 . S
H936 C912 0.950 . S
H937 C913 0.938 1_545 S
H938 C915 0.950 . S
H939 C917 0.950 . S
C940 C941 1.349 . S
C940 C942 1.327 . S
C940 H965 0.950 . S
C941 C940 1.349 . S
C941 C957 1.349 . S
C942 C940 1.327 . S
C942 C961 1.429 . S
C942 H966 0.950 . S
C943 C960 1.574 . S
C943 C962 1.368 . S
C943 H967 0.949 . S
H944 C948 0.949 . S
C945 C946 1.349 . S
C945 C947 1.327 . S
C945 H968 0.950 . S
C946 C945 1.349 . S
C946 C958 1.349 . S
C947 C945 1.327 . S
C947 C963 1.429 . S
C947 H969 0.950 . S
C948 H944 0.949 . S
C948 C956 1.574 . S
C948 C964 1.368 . S
H949 C957 0.950 . S
H950 C955 0.950 . S
H951 C956 0.949 . S
H952 C958 0.950 . S
H953 C959 0.950 . S
H954 C960 0.949 . S
C955 H950 0.950 . S
C955 C957 1.327 . S
C955 C961 1.429 . S
C956 C948 1.574 . S
C956 H951 0.949 . S
C956 C962 1.368 . S
C957 C941 1.349 . S
C957 H949 0.950 . S
C957 C955 1.327 . S
C958 C946 1.349 . S
C958 H952 0.950 . S
C958 C959 1.327 . S
C959 H953 0.950 . S
C959 C958 1.327 . S
C959 C963 1.429 . S
C960 C943 1.574 . S
C960 H954 0.949 . S
C960 C964 1.368 . S
C961 C942 1.429 . S
C961 C955 1.429 . S
C961 C962 1.523 . S
C962 C943 1.368 . S
C962 C956 1.368 . S
C962 C961 1.523 . S
C963 C947 1.429 . S
C963 C959 1.429 . S
C963 C964 1.523 . S
C964 C948 1.368 . S
C964 C960 1.368 . S
C964 C963 1.523 . S
H965 C940 0.950 . S
H966 C942 0.950 . S
H967 C943 0.949 . S
H968 C945 0.950 . S
H969 C947 0.950 . S
C970 C971 1.349 . S
C970 C972 1.327 . S
C970 H995 0.950 . S
C971 C970 1.349 . S
C971 C987 1.349 . S
C972 C970 1.327 . S
C972 C991 1.429 . S
C972 H996 0.950 . S
C973 C990 1.574 . S
C973 C992 1.368 . S
C973 H997 0.949 . S
H974 C978 0.949 . S
C975 C976 1.349 . S
C975 C977 1.327 . S
C975 H998 0.950 . S
C976 C975 1.349 . S
C976 C988 1.349 . S
C977 C975 1.327 . S
C977 C993 1.429 . S
C977 H999 0.950 . S
C978 H974 0.949 . S
C978 C986 1.574 . S
C978 C994 1.368 . S
H979 C987 0.950 . S
H980 C985 0.950 . S
H981 C986 0.949 . S
H982 C988 0.950 . S
H983 C989 0.950 . S
H984 C990 0.949 . S
C985 H980 0.950 . S
C985 C987 1.327 . S
C985 C991 1.429 . S
C986 C978 1.574 . S
C986 H981 0.949 . S
C986 C992 1.368 . S
C987 C971 1.349 . S
C987 H979 0.950 . S
C987 C985 1.327 . S
C988 C976 1.349 . S
C988 H982 0.950 . S
C988 C989 1.327 . S
C989 H983 0.950 . S
C989 C988 1.327 . S
C989 C993 1.429 . S
C990 C973 1.574 . S
C990 H984 0.949 . S
C990 C994 1.368 . S
C991 C972 1.429 . S
C991 C985 1.429 . S
C991 C992 1.523 . S
C992 C973 1.368 . S
C992 C986 1.368 . S
C992 C991 1.523 . S
C993 C977 1.429 . S
C993 C989 1.429 . S
C993 C994 1.523 . S
C994 C978 1.368 . S
C994 C990 1.368 . S
C994 C993 1.523 . S
H995 C970 0.950 . S
H996 C972 0.950 . S
H997 C973 0.949 . S
H998 C975 0.950 . S
H999 C977 0.950 . S
C1000 C1001 1.349 . S
C1000 C1002 1.327 . S
C1000 H1025 0.950 . S
C1001 C1000 1.349 . S
C1001 C1017 1.349 1_655 S
C1002 C1000 1.327 . S
C1002 C1021 1.429 1_655 S
C1002 H1026 0.940 1_554 S
C1003 C1020 1.571 1_554 S
C1003 C1022 1.368 . S
C1003 H1027 0.949 . S
H1004 C1008 0.952 . S
C1005 C1006 1.349 . S
C1005 C1007 1.327 . S
C1005 H1028 0.950 . S
C1006 C1005 1.349 . S
C1006 C1018 1.349 . S
C1007 C1005 1.327 . S
C1007 C1023 1.429 . S
C1007 H1029 0.950 . S
C1008 H1004 0.952 . S
C1008 C1016 1.575 . S
C1008 C1024 1.364 1_655 S
H1009 C1017 0.950 . S
H1010 C1015 0.950 . S
H1011 C1016 0.949 . S
H1012 C1018 0.950 . S
H1013 C1019 0.950 1_655 S
H1014 C1020 0.948 1_554 S
C1015 H1010 0.950 . S
C1015 C1017 1.327 . S
C1015 C1021 1.429 . S
C1016 C1008 1.575 . S
C1016 H1011 0.949 . S
C1016 C1022 1.368 1_656 S
C1017 C1001 1.349 1_455 S
C1017 H1009 0.950 . S
C1017 C1015 1.327 . S
C1018 C1006 1.349 . S
C1018 H1012 0.950 . S
C1018 C1019 1.327 . S
C1019 H1013 0.950 1_455 S
C1019 C1018 1.327 . S
C1019 C1023 1.429 . S
C1020 C1003 1.571 1_556 S
C1020 H1014 0.948 1_556 S
C1020 C1024 1.373 . S
C1021 C1002 1.429 1_455 S
C1021 C1015 1.429 . S
C1021 C1022 1.523 . S
C1022 C1003 1.368 . S
C1022 C1016 1.368 1_454 S
C1022 C1021 1.523 . S
C1023 C1007 1.429 . S
C1023 C1019 1.429 . S
C1023 C1024 1.523 . S
C1024 C1008 1.364 1_455 S
C1024 C1020 1.373 . S
C1024 C1023 1.523 . S
H1025 C1000 0.950 . S
H1026 C1002 0.940 1_556 S
H1027 C1003 0.949 . S
H1028 C1005 0.950 . S
H1029 C1007 0.950 . S
C1030 C1031 1.349 . S
C1030 C1032 1.327 . S
C1030 H1055 0.950 . S
C1031 C1030 1.349 . S
C1031 C1047 1.349 1_565 S
C1032 C1030 1.327 . S
C1032 C1051 1.429 1_565 S
C1032 H1056 0.950 . S
C1033 C1050 1.574 . S
C1033 C1052 1.368 1_556 S
C1033 H1057 0.949 . S
H1034 C1038 0.987 . S
C1035 C1036 1.349 . S
C1035 C1037 1.327 . S
C1035 H1058 0.950 . S
C1036 C1035 1.349 . S
C1036 C1048 1.349 . S
C1037 C1035 1.327 . S
C1037 C1053 1.429 . S
C1037 H1059 0.950 . S
C1038 H1034 0.987 . S
C1038 C1046 1.585 1_556 S
C1038 C1054 1.319 1_565 S
H1039 C1047 0.950 . S
H1040 C1045 0.950 . S
H1041 C1046 0.949 . S
H1042 C1048 0.950 . S
H1043 C1049 0.950 1_565 S
H1044 C1050 0.949 . S
C1045 H1040 0.950 . S
C1045 C1047 1.327 . S
C1045 C1051 1.429 . S
C1046 C1038 1.585 1_554 S
C1046 H1041 0.949 . S
C1046 C1052 1.368 1_565 S
C1047 C1031 1.349 1_545 S
C1047 H1039 0.950 . S
C1047 C1045 1.327 . S
C1048 C1036 1.349 . S
C1048 H1042 0.950 . S
C1048 C1049 1.327 . S
C1049 H1043 0.950 1_545 S
C1049 C1048 1.327 . S
C1049 C1053 1.429 . S
C1050 C1033 1.574 . S
C1050 H1044 0.949 . S
C1050 C1054 1.368 . S
C1051 C1032 1.429 1_545 S
C1051 C1045 1.429 . S
C1051 C1052 1.523 . S
C1052 C1033 1.368 1_554 S
C1052 C1046 1.368 1_545 S
C1052 C1051 1.523 . S
C1053 C1037 1.429 . S
C1053 C1049 1.429 . S
C1053 C1054 1.523 . S
C1054 C1038 1.319 1_545 S
C1054 C1050 1.368 . S
C1054 C1053 1.523 . S
H1055 C1030 0.950 . S
H1056 C1032 0.950 . S
H1057 C1033 0.949 . S
H1058 C1035 0.950 . S
H1059 C1037 0.950 . S
C1060 C1061 1.349 . S
C1060 C1062 1.327 . S
C1060 H1085 0.950 . S
C1061 C1060 1.349 . S
C1061 C1077 1.349 . S
C1062 C1060 1.327 . S
C1062 C1081 1.429 . S
C1062 H1086 0.950 . S
C1063 C1080 1.574 . S
C1063 C1082 1.368 1_556 S
C1063 H1087 0.949 . S
H1064 C1068 0.949 . S
C1065 C1066 1.349 . S
C1065 C1067 1.327 . S
C1065 H1088 0.950 . S
C1066 C1065 1.349 . S
C1066 C1078 1.349 . S
C1067 C1065 1.327 . S
C1067 C1083 1.429 . S
C1067 H1089 0.950 . S
C1068 H1064 0.949 . S
C1068 C1076 1.574 1_556 S
C1068 C1084 1.368 . S
H1069 C1077 0.950 . S
H1070 C1075 0.950 . S
H1071 C1076 0.949 . S
H1072 C1078 0.950 . S
H1073 C1079 0.950 . S
H1074 C1080 0.949 . S
C1075 H1070 0.950 . S
C1075 C1077 1.327 . S
C1075 C1081 1.429 . S
C1076 C1068 1.574 1_554 S
C1076 H1071 0.949 . S
C1076 C1082 1.368 . S
C1077 C1061 1.349 . S
C1077 H1069 0.950 . S
C1077 C1075 1.327 . S
C1078 C1066 1.349 . S
C1078 H1072 0.950 . S
C1078 C1079 1.327 . S
C1079 H1073 0.950 . S
C1079 C1078 1.327 . S
C1079 C1083 1.429 . S
C1080 C1063 1.574 . S
C1080 H1074 0.949 . S
C1080 C1084 1.368 . S
C1081 C1062 1.429 . S
C1081 C1075 1.429 . S
C1081 C1082 1.523 . S
C1082 C1063 1.368 1_554 S
C1082 C1076 1.368 . S
C1082 C1081 1.523 . S
C1083 C1067 1.429 . S
C1083 C1079 1.429 . S
C1083 C1084 1.523 . S
C1084 C1068 1.368 . S
C1084 C1080 1.368 . S
C1084 C1083 1.523 . S
H1085 C1060 0.950 . S
H1086 C1062 0.950 . S
H1087 C1063 0.949 . S
H1088 C1065 0.950 . S
H1089 C1067 0.950 . S
C1090 C1091 1.349 . S
C1090 C1092 1.327 . S
C1090 H1115 0.950 . S
C1091 C1090 1.349 . S
C1091 C1107 1.349 . S
C1092 C1090 1.327 . S
C1092 C1111 1.429 . S
C1092 H1116 0.950 1_554 S
C1093 C1110 1.574 . S
C1093 C1112 1.368 . S
C1093 H1117 0.949 . S
H1094 C1098 0.949 . S
C1095 C1096 1.349 . S
C1095 C1097 1.327 . S
C1095 H1118 0.950 . S
C1096 C1095 1.349 . S
C1096 C1108 1.349 . S
C1097 C1095 1.327 . S
C1097 C1113 1.429 . S
C1097 H1119 0.950 . S
C1098 H1094 0.949 . S
C1098 C1106 1.574 . S
C1098 C1114 1.368 . S
H1099 C1107 0.950 . S
H1100 C1105 0.950 . S
H1101 C1106 0.949 . S
H1102 C1108 0.950 . S
H1103 C1109 0.950 . S
H1104 C1110 0.949 . S
C1105 H1100 0.950 . S
C1105 C1107 1.327 . S
C1105 C1111 1.429 . S
C1106 C1098 1.574 . S
C1106 H1101 0.949 . S
C1106 C1112 1.368 1_556 S
C1107 C1091 1.349 . S
C1107 H1099 0.950 . S
C1107 C1105 1.327 . S
C1108 C1096 1.349 . S
C1108 H1102 0.950 . S
C1108 C1109 1.327 . S
C1109 H1103 0.950 . S
C1109 C1108 1.327 . S
C1109 C1113 1.429 . S
C1110 C1093 1.574 . S
C1110 H1104 0.949 . S
C1110 C1114 1.368 1_554 S
C1111 C1092 1.429 . S
C1111 C1105 1.429 . S
C1111 C1112 1.523 . S
C1112 C1093 1.368 . S
C1112 C1106 1.368 1_554 S
C1112 C1111 1.523 . S
C1113 C1097 1.429 . S
C1113 C1109 1.429 . S
C1113 C1114 1.523 . S
C1114 C1098 1.368 . S
C1114 C1110 1.368 1_556 S
C1114 C1113 1.523 . S
H1115 C1090 0.950 . S
H1116 C1092 0.950 1_556 S
H1117 C1093 0.949 . S
H1118 C1095 0.950 . S
H1119 C1097 0.950 . S
C1120 C1121 1.349 . S
C1120 C1122 1.327 . S
C1120 H1145 0.950 . S
C1121 C1120 1.349 . S
C1121 C1137 1.345 1_455 S
C1122 C1120 1.327 . S
C1122 C1141 1.429 . S
C1122 H1146 0.950 . S
C1123 C1140 1.574 . S
C1123 C1142 1.368 . S
C1123 H1147 0.945 1_455 S
H1124 C1128 0.949 . S
C1125 C1126 1.349 . S
C1125 C1127 1.327 . S
C1125 H1148 0.950 . S
C1126 C1125 1.349 . S
C1126 C1138 1.349 . S
C1127 C1125 1.327 . S
C1127 C1143 1.429 . S
C1127 H1149 0.950 . S
C1128 H1124 0.949 . S
C1128 C1136 1.574 . S
C1128 C1144 1.368 . S
H1129 C1137 0.957 . S
H1130 C1135 0.949 . S
H1131 C1136 0.949 . S
H1132 C1138 0.950 . S
H1133 C1139 0.950 . S
H1134 C1140 0.955 . S
C1135 H1130 0.949 . S
C1135 C1137 1.326 . S
C1135 C1141 1.429 1_655 S
C1136 C1128 1.574 . S
C1136 H1131 0.949 . S
C1136 C1142 1.368 . S
C1137 C1121 1.345 1_655 S
C1137 H1129 0.957 . S
C1137 C1135 1.326 . S
C1138 C1126 1.349 . S
C1138 H1132 0.950 . S
C1138 C1139 1.327 . S
C1139 H1133 0.950 . S
C1139 C1138 1.327 . S
C1139 C1143 1.429 . S
C1140 C1123 1.574 . S
C1140 H1134 0.955 . S
C1140 C1144 1.368 . S
C1141 C1122 1.429 . S
C1141 C1135 1.429 1_455 S
C1141 C1142 1.523 . S
C1142 C1123 1.368 . S
C1142 C1136 1.368 . S
C1142 C1141 1.523 . S
C1143 C1127 1.429 . S
C1143 C1139 1.429 . S
C1143 C1144 1.523 . S
C1144 C1128 1.368 . S
C1144 C1140 1.368 . S
C1144 C1143 1.523 . S
H1145 C1120 0.950 . S
H1146 C1122 0.950 . S
H1147 C1123 0.945 1_655 S
H1148 C1125 0.950 . S
H1149 C1127 0.950 . S
C1150 C1151 1.349 1_565 S
C1150 C1152 1.327 . S
C1150 H1175 0.950 . S
C1151 C1150 1.349 1_545 S
C1151 C1167 1.349 . S
C1152 C1150 1.327 . S
C1152 C1171 1.429 1_565 S
C1152 H1176 0.950 . S
C1153 C1170 1.574 . S
C1153 C1172 1.368 . S
C1153 H1177 0.949 . S
H1154 C1158 0.949 . S
C1155 C1156 1.349 . S
C1155 C1157 1.327 . S
C1155 H1178 0.950 . S
C1156 C1155 1.349 . S
C1156 C1168 1.349 1_545 S
C1157 C1155 1.327 . S
C1157 C1173 1.429 . S
C1157 H1179 0.950 . S
C1158 H1154 0.949 . S
C1158 C1166 1.574 . S
C1158 C1174 1.368 1_565 S
H1159 C1167 0.950 . S
H1160 C1165 0.950 . S
H1161 C1166 0.949 . S
H1162 C1168 0.950 . S
H1163 C1169 0.950 . S
H1164 C1170 0.949 . S
C1165 H1160 0.950 . S
C1165 C1167 1.327 . S
C1165 C1171 1.429 . S
C1166 C1158 1.574 . S
C1166 H1161 0.949 . S
C1166 C1172 1.368 1_565 S
C1167 C1151 1.349 . S
C1167 H1159 0.950 . S
C1167 C1165 1.327 . S
C1168 C1156 1.349 1_565 S
C1168 H1162 0.950 . S
C1168 C1169 1.327 . S
C1169 H1163 0.950 . S
C1169 C1168 1.327 . S
C1169 C1173 1.429 1_565 S
C1170 C1153 1.574 . S
C1170 H1164 0.949 . S
C1170 C1174 1.368 . S
C1171 C1152 1.429 1_545 S
C1171 C1165 1.429 . S
C1171 C1172 1.523 . S
C1172 C1153 1.368 . S
C1172 C1166 1.368 1_545 S
C1172 C1171 1.523 . S
C1173 C1157 1.429 . S
C1173 C1169 1.429 1_545 S
C1173 C1174 1.523 . S
C1174 C1158 1.368 1_545 S
C1174 C1170 1.368 . S
C1174 C1173 1.523 . S
H1175 C1150 0.950 . S
H1176 C1152 0.950 . S
H1177 C1153 0.949 . S
H1178 C1155 0.950 . S
H1179 C1157 0.950 . S
C1180 C1181 1.349 . S
C1180 C1182 1.327 . S
C1180 H1205 0.950 . S
C1181 C1180 1.349 . S
C1181 C1197 1.349 . S
C1182 C1180 1.327 . S
C1182 C1201 1.429 . S
C1182 H1206 0.950 . S
C1183 C1200 1.574 . S
C1183 C1202 1.368 . S
C1183 H1207 0.949 . S
H1184 C1188 0.949 . S
C1185 C1186 1.349 . S
C1185 C1187 1.327 . S
C1185 H1208 0.950 . S
C1186 C1185 1.349 . S
C1186 C1198 1.349 . S
C1187 C1185 1.327 . S
C1187 C1203 1.429 . S
C1187 H1209 0.950 . S
C1188 H1184 0.949 . S
C1188 C1196 1.574 . S
C1188 C1204 1.368 . S
H1189 C1197 0.950 . S
H1190 C1195 0.950 . S
H1191 C1196 0.949 . S
H1192 C1198 0.950 . S
H1193 C1199 0.950 . S
H1194 C1200 0.949 . S
C1195 H1190 0.950 . S
C1195 C1197 1.327 . S
C1195 C1201 1.429 . S
C1196 C1188 1.574 . S
C1196 H1191 0.949 . S
C1196 C1202 1.368 . S
C1197 C1181 1.349 . S
C1197 H1189 0.950 . S
C1197 C1195 1.327 . S
C1198 C1186 1.349 . S
C1198 H1192 0.950 . S
C1198 C1199 1.327 . S
C1199 H1193 0.950 . S
C1199 C1198 1.327 . S
C1199 C1203 1.429 . S
C1200 C1183 1.574 . S
C1200 H1194 0.949 . S
C1200 C1204 1.368 . S
C1201 C1182 1.429 . S
C1201 C1195 1.429 . S
C1201 C1202 1.523 . S
C1202 C1183 1.368 . S
C1202 C1196 1.368 . S
C1202 C1201 1.523 . S
C1203 C1187 1.429 . S
C1203 C1199 1.429 . S
C1203 C1204 1.523 . S
C1204 C1188 1.368 . S
C1204 C1200 1.368 . S
C1204 C1203 1.523 . S
H1205 C1180 0.950 . S
H1206 C1182 0.950 . S
H1207 C1183 0.949 . S
H1208 C1185 0.950 . S
H1209 C1187 0.950 . S
C1210 C1211 1.349 . S
C1210 C1212 1.327 . S
C1210 H1235 0.950 . S
C1211 C1210 1.349 . S
C1211 C1227 1.349 . S
C1212 C1210 1.327 . S
C1212 C1231 1.429 . S
C1212 H1236 0.950 . S
C1213 C1230 1.574 . S
C1213 C1232 1.368 . S
C1213 H1237 0.949 . S
H1214 C1218 0.949 . S
C1215 C1216 1.349 . S
C1215 C1217 1.327 . S
C1215 H1238 0.950 . S
C1216 C1215 1.349 . S
C1216 C1228 1.349 . S
C1217 C1215 1.327 . S
C1217 C1233 1.429 . S
C1217 H1239 0.950 . S
C1218 H1214 0.949 . S
C1218 C1226 1.574 . S
C1218 C1234 1.368 . S
H1219 C1227 0.950 . S
H1220 C1225 0.950 . S
H1221 C1226 0.949 . S
H1222 C1228 0.950 . S
H1223 C1229 0.950 . S
H1224 C1230 0.949 . S
C1225 H1220 0.950 . S
C1225 C1227 1.327 . S
C1225 C1231 1.429 . S
C1226 C1218 1.574 . S
C1226 H1221 0.949 . S
C1226 C1232 1.368 . S
C1227 C1211 1.349 . S
C1227 H1219 0.950 . S
C1227 C1225 1.327 . S
C1228 C1216 1.349 . S
C1228 H1222 0.950 . S
C1228 C1229 1.327 . S
C1229 H1223 0.950 . S
C1229 C1228 1.327 . S
C1229 C1233 1.429 . S
C1230 C1213 1.574 . S
C1230 H1224 0.949 . S
C1230 C1234 1.368 . S
C1231 C1212 1.429 . S
C1231 C1225 1.429 . S
C1231 C1232 1.523 . S
C1232 C1213 1.368 . S
C1232 C1226 1.368 . S
C1232 C1231 1.523 . S
C1233 C1217 1.429 . S
C1233 C1229 1.429 . S
C1233 C1234 1.523 . S
C1234 C1218 1.368 . S
C1234 C1230 1.368 . S
C1234 C1233 1.523 . S
H1235 C1210 0.950 . S
H1236 C1212 0.950 . S
H1237 C1213 0.949 . S
H1238 C1215 0.950 . S
H1239 C1217 0.950 . S
C1240 C1241 1.349 . S
C1240 C1242 1.327 . S
C1240 H1265 0.950 . S
C1241 C1240 1.349 . S
C1241 C1257 1.349 1_655 S
C1242 C1240 1.327 . S
C1242 C1261 1.429 . S
C1242 H1266 0.950 . S
C1243 C1260 1.574 . S
C1243 C1262 1.368 1_455 S
C1243 H1267 0.949 . S
H1244 C1248 0.949 . S
C1245 C1246 1.349 1_455 S
C1245 C1247 1.327 . S
C1245 H1268 0.950 . S
C1246 C1245 1.349 1_655 S
C1246 C1258 1.349 . S
C1247 C1245 1.327 . S
C1247 C1263 1.429 1_455 S
C1247 H1269 0.950 . S
C1248 H1244 0.949 . S
C1248 C1256 1.574 . S
C1248 C1264 1.368 . S
H1249 C1257 0.950 . S
H1250 C1255 0.950 . S
H1251 C1256 0.949 . S
H1252 C1258 0.950 . S
H1253 C1259 0.950 . S
H1254 C1260 0.949 . S
C1255 H1250 0.950 . S
C1255 C1257 1.327 . S
C1255 C1261 1.429 1_455 S
C1256 C1248 1.574 . S
C1256 H1251 0.949 . S
C1256 C1262 1.368 . S
C1257 C1241 1.349 1_455 S
C1257 H1249 0.950 . S
C1257 C1255 1.327 . S
C1258 C1246 1.349 . S
C1258 H1252 0.950 . S
C1258 C1259 1.327 . S
C1259 H1253 0.950 . S
C1259 C1258 1.327 . S
C1259 C1263 1.429 . S
C1260 C1243 1.574 . S
C1260 H1254 0.949 . S
C1260 C1264 1.368 1_455 S
C1261 C1242 1.429 . S
C1261 C1255 1.429 1_655 S
C1261 C1262 1.523 . S
C1262 C1243 1.368 1_655 S
C1262 C1256 1.368 . S
C1262 C1261 1.523 . S
C1263 C1247 1.429 1_655 S
C1263 C1259 1.429 . S
C1263 C1264 1.523 . S
C1264 C1248 1.368 . S
C1264 C1260 1.368 1_655 S
C1264 C1263 1.523 . S
H1265 C1240 0.950 . S
H1266 C1242 0.950 . S
H1267 C1243 0.949 . S
H1268 C1245 0.950 . S
H1269 C1247 0.950 . S
C1270 C1271 1.403 . S
C1270 C1272 1.327 . S
C1270 H1295 0.950 . S
C1271 C1270 1.403 . S
C1271 C1287 1.298 1_565 S
C1272 C1270 1.327 . S
C1272 C1291 1.429 . S
C1272 H1296 0.950 . S
C1273 C1290 1.574 . S
C1273 C1292 1.368 1_545 S
C1273 H1297 0.949 . S
H1274 C1278 0.949 . S
C1275 C1276 1.349 1_545 S
C1275 C1277 1.327 . S
C1275 H1298 0.950 . S
C1276 C1275 1.349 1_565 S
C1276 C1288 1.349 . S
C1277 C1275 1.327 . S
C1277 C1293 1.429 1_545 S
C1277 H1299 0.950 . S
C1278 H1274 0.949 . S
C1278 C1286 1.574 . S
C1278 C1294 1.368 . S
H1279 C1287 0.950 . S
H1280 C1285 0.950 . S
H1281 C1286 0.949 . S
H1282 C1288 0.950 . S
H1283 C1289 0.950 . S
H1284 C1290 0.949 . S
C1285 H1280 0.950 . S
C1285 C1287 1.327 . S
C1285 C1291 1.429 1_545 S
C1286 C1278 1.574 . S
C1286 H1281 0.949 . S
C1286 C1292 1.368 . S
C1287 C1271 1.298 1_545 S
C1287 H1279 0.950 . S
C1287 C1285 1.327 . S
C1288 C1276 1.349 . S
C1288 H1282 0.950 . S
C1288 C1289 1.327 . S
C1289 H1283 0.950 . S
C1289 C1288 1.327 . S
C1289 C1293 1.429 . S
C1290 C1273 1.574 . S
C1290 H1284 0.949 . S
C1290 C1294 1.368 1_545 S
C1291 C1272 1.429 . S
C1291 C1285 1.429 1_565 S
C1291 C1292 1.523 . S
C1292 C1273 1.368 1_565 S
C1292 C1286 1.368 . S
C1292 C1291 1.523 . S
C1293 C1277 1.429 1_565 S
C1293 C1289 1.429 . S
C1293 C1294 1.523 . S
C1294 C1278 1.368 . S
C1294 C1290 1.368 1_565 S
C1294 C1293 1.523 . S
H1295 C1270 0.950 . S
H1296 C1272 0.950 . S
H1297 C1273 0.949 . S
H1298 C1275 0.950 . S
H1299 C1277 0.950 . S
C1300 C1301 1.349 . S
C1300 C1302 1.327 . S
C1300 H1325 0.950 . S
C1301 C1300 1.349 . S
C1301 C1317 1.349 . S
C1302 C1300 1.327 . S
C1302 C1321 1.429 . S
C1302 H1326 0.950 . S
C1303 C1320 1.574 . S
C1303 C1322 1.368 . S
C1303 H1327 0.949 . S
H1304 C1308 0.949 . S
C1305 C1306 1.349 . S
C1305 C1307 1.327 . S
C1305 H1328 0.950 . S
C1306 C1305 1.349 . S
C1306 C1318 1.349 . S
C1307 C1305 1.327 . S
C1307 C1323 1.429 . S
C1307 H1329 0.950 . S
C1308 H1304 0.949 . S
C1308 C1316 1.574 . S
C1308 C1324 1.368 . S
H1309 C1317 0.950 . S
H1310 C1315 0.950 . S
H1311 C1316 0.949 . S
H1312 C1318 0.950 . S
H1313 C1319 0.950 . S
H1314 C1320 0.949 . S
C1315 H1310 0.950 . S
C1315 C1317 1.327 . S
C1315 C1321 1.429 . S
C1316 C1308 1.574 . S
C1316 H1311 0.949 . S
C1316 C1322 1.368 . S
C1317 C1301 1.349 . S
C1317 H1309 0.950 . S
C1317 C1315 1.327 . S
C1318 C1306 1.349 . S
C1318 H1312 0.950 . S
C1318 C1319 1.327 . S
C1319 H1313 0.950 . S
C1319 C1318 1.327 . S
C1319 C1323 1.429 . S
C1320 C1303 1.574 . S
C1320 H1314 0.949 . S
C1320 C1324 1.368 . S
C1321 C1302 1.429 . S
C1321 C1315 1.429 . S
C1321 C1322 1.523 . S
C1322 C1303 1.368 . S
C1322 C1316 1.368 . S
C1322 C1321 1.523 . S
C1323 C1307 1.429 . S
C1323 C1319 1.429 . S
C1323 C1324 1.523 . S
C1324 C1308 1.368 . S
C1324 C1320 1.368 . S
C1324 C1323 1.523 . S
H1325 C1300 0.950 . S
H1326 C1302 0.950 . S
H1327 C1303 0.949 . S
H1328 C1305 0.950 . S
H1329 C1307 0.950 . S
C1330 C1331 1.349 . S
C1330 C1332 1.327 . S
C1330 H1355 0.950 . S
C1331 C1330 1.349 . S
C1331 C1347 1.349 . S
C1332 C1330 1.327 . S
C1332 C1351 1.429 . S
C1332 H1356 0.950 . S
C1333 C1350 1.574 . S
C1333 C1352 1.368 . S
C1333 H1357 0.949 . S
H1334 C1338 0.949 . S
C1335 C1336 1.349 . S
C1335 C1337 1.327 . S
C1335 H1358 0.950 . S
C1336 C1335 1.349 . S
C1336 C1348 1.349 . S
C1337 C1335 1.327 . S
C1337 C1353 1.429 . S
C1337 H1359 0.950 . S
C1338 H1334 0.949 . S
C1338 C1346 1.574 . S
C1338 C1354 1.368 . S
H1339 C1347 0.950 . S
H1340 C1345 0.950 . S
H1341 C1346 0.949 . S
H1342 C1348 0.950 . S
H1343 C1349 0.950 . S
H1344 C1350 0.949 . S
C1345 H1340 0.950 . S
C1345 C1347 1.327 . S
C1345 C1351 1.429 . S
C1346 C1338 1.574 . S
C1346 H1341 0.949 . S
C1346 C1352 1.368 . S
C1347 C1331 1.349 . S
C1347 H1339 0.950 . S
C1347 C1345 1.327 . S
C1348 C1336 1.349 . S
C1348 H1342 0.950 . S
C1348 C1349 1.327 . S
C1349 H1343 0.950 . S
C1349 C1348 1.327 . S
C1349 C1353 1.429 . S
C1350 C1333 1.574 . S
C1350 H1344 0.949 . S
C1350 C1354 1.368 . S
C1351 C1332 1.429 . S
C1351 C1345 1.429 . S
C1351 C1352 1.523 . S
C1352 C1333 1.368 . S
C1352 C1346 1.368 . S
C1352 C1351 1.523 . S
C1353 C1337 1.429 . S
C1353 C1349 1.429 . S
C1353 C1354 1.523 . S
C1354 C1338 1.368 . S
C1354 C1350 1.368 . S
C1354 C1353 1.523 . S
H1355 C1330 0.950 . S
H1356 C1332 0.950 . S
H1357 C1333 0.949 . S
H1358 C1335 0.950 . S
H1359 C1337 0.950 . S
C641 C391 2.022 . S
C646 C482 2.063 1_545 S
C676 C522 2.073 . S
C671 C451 2.020 . S
C706 C562 2.073 . S
C701 C241 1.809 . S
C736 C602 2.069 1_455 S
C731 C331 1.807 1_455 S
C766 C495 2.069 1_565 S
C761 C121 1.813 1_545 S
C791 C211 2.027 . S
C796 C535 2.077 . S
C821 C31 2.027 . S
C826 C575 2.073 . S
C851 C91 1.806 . S
C856 C615 2.069 1_655 S
C886 C506 0.199 . S
C881 C301 0.481 1_455 S
C916 C546 0.200 . S
C911 C380 0.113 . S
C946 C586 0.199 . S
C941 C440 0.115 . S
C971 C260 0.475 . S
C976 C626 0.193 . S
C1001 C61 0.413 . S
C1006 C489 0.195 . S
C1036 C529 0.200 . S
C1031 C140 0.414 . S
C1066 C569 0.199 . S
C1061 C200 0.260 . S
C1091 C20 0.260 . S
C1096 C609 0.203 . S
C1121 C320 2.667 1_455 S
C1126 C483 2.832 . S
C1151 C361 2.305 . S
C1156 C523 2.833 . S
C1186 C563 2.830 . S
C1181 C421 2.301 . S
C1216 C603 2.836 . S
C1211 C271 2.658 . S
C1241 C80 2.659 . S
C1246 C502 2.847 . S
C1276 C542 2.834 . S
C1271 C151 2.656 . S
C1306 C582 2.830 . S
C1301 C181 2.312 . S
C1331 C1 2.317 . S
C1336 C622 2.842 . S
