# Generated by pormake.
# Topology rtl, (3,6)-cn, num edge types: 1
# Building blocks:
#     Node 0, Type 0, BuildingBlock: INOVEN_clean_linker_0, # of connection points: 3
#     Node 1, Type 0, BuildingBlock: INOVEN_clean_linker_0, # of connection points: 3
#     Node 2, Type 0, BuildingBlock: INOVEN_clean_linker_0, # of connection points: 3
#     Node 3, Type 0, BuildingBlock: INOVEN_clean_linker_0, # of connection points: 3
#     Node 4, Type 1, BuildingBlock: LEVNOQ01_clean_sbu_1, # of connection points: 6
#     Node 5, Type 1, BuildingBlock: LEVNOQ01_clean_sbu_1, # of connection points: 6
#     Edge 6, Type (0, 1), BuildingBlock: EZIPEK_clean_linker_0, # of connection points: 2
#     Edge 7, Type (0, 1), BuildingBlock: EZIPEK_clean_linker_0, # of connection points: 2
#     Edge 8, Type (0, 1), BuildingBlock: EZIPEK_clean_linker_0, # of connection points: 2
#     Edge 9, Type (0, 1), BuildingBlock: EZIPEK_clean_linker_0, # of connection points: 2
#     Edge 10, Type (0, 1), BuildingBlock: EZIPEK_clean_linker_0, # of connection points: 2
#     Edge 11, Type (0, 1), BuildingBlock: EZIPEK_clean_linker_0, # of connection points: 2
#     Edge 12, Type (0, 1), BuildingBlock: EZIPEK_clean_linker_0, # of connection points: 2
#     Edge 13, Type (0, 1), BuildingBlock: EZIPEK_clean_linker_0, # of connection points: 2
#     Edge 14, Type (0, 1), BuildingBlock: EZIPEK_clean_linker_0, # of connection points: 2
#     Edge 15, Type (0, 1), BuildingBlock: EZIPEK_clean_linker_0, # of connection points: 2
#     Edge 16, Type (0, 1), BuildingBlock: EZIPEK_clean_linker_0, # of connection points: 2
#     Edge 17, Type (0, 1), BuildingBlock: EZIPEK_clean_linker_0, # of connection points: 2
# Relax obj value: 0.016
# Max RMSD: 0.109
# Mean RMSD: 0.080
data_MOF--net-rtl--node1-LEVNOQ01_clean_sbu_1--node2-INOVEN_clean_linker_0--edge1-EZIPEK_clean_linker_0
_symmetry_space_group_name_H-M    P1
_symmetry_Int_Tables_number       1
_symmetry_cell_setting            triclinic
loop_
_symmetry_equiv_pos_as_xyz
'x, y, z'
_cell_length_a     26.503134
_cell_length_b     26.485213
_cell_length_c     16.148209
_cell_angle_alpha  92.043349
_cell_angle_beta   100.23781
_cell_angle_gamma 90.138832
loop_
_atom_site_label
_atom_site_type_symbol
_atom_site_fract_x
_atom_site_fract_y
_atom_site_fract_z
_atom_type_partial_charge
H0 H 0.19922 0.7986 0.94138 0.0
H1 H 0.12905 0.91748 0.0682 0.0
H2 H 0.22413 0.80876 0.21217 0.0
N3 N 0.2465 0.7554 0.07667 0.0
N4 N 0.26733 0.73529 0.14264 0.0
C5 C 0.19343 0.81811 0.99908 0.0
C6 C 0.1636 0.86189 0.99524 0.0
C7 C 0.21617 0.79937 0.07672 0.0
C8 C 0.20771 0.82373 0.15182 0.0
C9 C 0.17448 0.86514 0.14901 0.0
C10 C 0.15424 0.88515 0.07071 0.0
H11 H 0.71913 0.70454 0.75364 0.0
H12 H 0.61708 0.61005 0.5753 0.0
H13 H 0.71766 0.71459 0.48736 0.0
N14 N 0.76485 0.7489 0.64115 0.0
N15 N 0.77554 0.7753 0.58424 0.0
C16 C 0.70458 0.69185 0.68926 0.0
C17 C 0.66544 0.65513 0.67215 0.0
C18 C 0.72376 0.71345 0.62311 0.0
C19 C 0.70333 0.69821 0.5393 0.0
C20 C 0.66582 0.66018 0.52185 0.0
C21 C 0.64712 0.63861 0.58855 0.0
H22 H 0.81548 0.21846 0.84336 0.0
H23 H 0.85533 0.09185 0.00349 0.0
H24 H 0.80892 0.23087 0.10665 0.0
N25 N 0.76808 0.26621 0.95238 0.0
N26 N 0.74687 0.28521 0.00876 0.0
C27 C 0.82103 0.20121 0.90404 0.0
C28 C 0.83896 0.15123 0.91319 0.0
C29 C 0.80511 0.22778 0.97108 0.0
C30 C 0.8177 0.2093 0.05279 0.0
C31 C 0.83929 0.16146 0.06441 0.0
C32 C 0.84459 0.13092 0.99395 0.0
H33 H 0.27359 0.3202 0.33643 0.0
H34 H 0.38188 0.41298 0.5065 0.0
H35 H 0.27527 0.31917 0.60382 0.0
N36 N 0.23228 0.27592 0.45123 0.0
N37 N 0.21712 0.25405 0.50936 0.0
C38 C 0.28911 0.33399 0.3999 0.0
C39 C 0.33005 0.36862 0.41362 0.0
C40 C 0.27001 0.31483 0.46783 0.0
C41 C 0.29023 0.33287 0.55048 0.0
C42 C 0.33028 0.3687 0.56425 0.0
C43 C 0.35041 0.38589 0.4958 0.0
O44 O 0.96684 0.10105 0.68434 0.0
Mg45 Mg 0.04045 0.07867 0.66938 0.0
O46 O 0.93602 0.03474 0.6051 0.0
Mg47 Mg -0.00288 0.00564 0.52417 0.0
O48 O 0.05142 0.07595 0.54758 0.0
O49 O 0.08743 0.13416 0.6449 0.0
O50 O 0.05687 0.97278 0.443 0.0
O51 O 0.95192 0.0519 0.41271 0.0
Mg52 Mg 0.94214 0.93704 0.37108 0.0
O53 O 0.94299 0.93662 0.49763 0.0
O54 O 0.01439 0.92051 0.34403 0.0
O55 O 0.90619 0.00081 0.31588 0.0
O56 O 0.89911 0.88026 0.40601 0.0
C57 C 0.06954 0.97219 0.71026 0.0
C58 C 0.92982 0.0717 0.6551 0.0
C59 C 0.08084 0.11538 0.56888 0.0
C60 C 0.05585 0.94133 0.38056 0.0
C61 C 0.92011 0.04485 0.34374 0.0
C62 C 0.91248 0.89772 0.48243 0.0
O63 O 0.07515 0.01762 0.73771 0.0
O64 O 0.04254 0.96084 0.63803 0.0
O65 O 0.59661 0.50809 0.23887 0.0
Mg66 Mg 0.55822 0.44993 0.16521 0.0
O67 O 0.54914 0.55904 0.15321 0.0
Mg68 Mg 0.50005 0.50847 0.04374 0.0
O69 O 0.56137 0.44343 0.03837 0.0
O70 O 0.60778 0.39821 0.14081 0.0
O71 O 0.44907 0.46258 0.93477 0.0
O72 O 0.54851 0.54478 0.94739 0.0
Mg73 Mg 0.45988 0.5784 0.94431 0.0
O74 O 0.4358 0.56961 0.05501 0.0
O75 O 0.43708 0.5236 0.84474 0.0
O76 O 0.52554 0.62345 0.95121 0.0
O77 O 0.39991 0.62264 0.95544 0.0
C78 C 0.45604 0.43662 0.18811 0.0
C79 C 0.58237 0.55204 0.21933 0.0
C80 C 0.59537 0.40887 0.06259 0.0
C81 C 0.43218 0.47762 0.86106 0.0
C82 C 0.55534 0.59063 0.92976 0.0
C83 C 0.4028 0.60448 0.02907 0.0
O84 O 0.49893 0.41658 0.21199 0.0
O85 O 0.45104 0.46972 0.13199 0.0
C86 C 0.19763 0.16426 0.50957 0.0
C87 C 0.18065 0.21405 0.49273 0.0
C88 C 0.09133 0.18645 0.47901 0.0
C89 C 0.10914 0.13937 0.5101 0.0
N90 N 0.17451 0.07668 0.52749 0.0
N91 N 0.11287 0.27262 0.44905 0.0
C92 C 0.16095 0.12589 0.51489 0.0
C93 C 0.12769 0.22489 0.47127 0.0
N94 N 0.24905 0.15498 0.5253 0.0
N95 N 0.03968 0.19422 0.46091 0.0
H96 H 0.13922 0.30124 0.44454 0.0
H97 H 0.07499 0.28427 0.43519 0.0
H98 H 0.01351 0.16538 0.46583 0.0
H99 H 0.02268 0.22733 0.43744 0.0
H100 H 0.26498 0.12068 0.54523 0.0
H101 H 0.27619 0.18276 0.51993 0.0
H102 H 0.2113 0.06292 0.52824 0.0
H103 H 0.14714 0.04874 0.53088 0.0
C104 C 0.27962 0.65003 0.08467 0.0
C105 C 0.29848 0.69218 0.13754 0.0
C106 C 0.3865 0.66382 0.14471 0.0
C107 C 0.36823 0.6253 0.08338 0.0
N108 N 0.29925 0.57209 0.01257 0.0
N109 N 0.36504 0.73057 0.23981 0.0
C110 C 0.31508 0.61496 0.05976 0.0
C111 C 0.35046 0.69548 0.17604 0.0
N112 N 0.228 0.64476 0.0577 0.0
N113 N 0.43801 0.67262 0.16735 0.0
H114 H 0.33851 0.75442 0.26159 0.0
H115 H 0.40187 0.73319 0.27525 0.0
H116 H 0.46523 0.64992 0.14525 0.0
H117 H 0.45386 0.70337 0.20507 0.0
H118 H 0.21104 0.61756 0.01333 0.0
H119 H 0.20182 0.66845 0.08073 0.0
H120 H 0.26116 0.56076 0.99484 0.0
H121 H 0.32525 0.54575 0.99577 0.0
C122 C 0.81249 0.85991 0.60449 0.0
C123 C 0.81926 0.80728 0.59588 0.0
C124 C 0.9036 0.82099 0.55963 0.0
C125 C 0.89137 0.87247 0.54877 0.0
N126 N 0.83844 0.94366 0.57028 0.0
N127 N 0.87101 0.73624 0.57017 0.0
C128 C 0.84781 0.89316 0.5768 0.0
C129 C 0.86559 0.78737 0.57752 0.0
N130 N 0.77104 0.87729 0.63597 0.0
N131 N 0.95089 0.80449 0.54907 0.0
H132 H 0.84366 0.71097 0.58404 0.0
H133 H 0.90115 0.71891 0.54708 0.0
H134 H 0.9788 0.82931 0.53557 0.0
H135 H 0.96382 0.76791 0.56083 0.0
H136 H 0.76465 0.91525 0.64904 0.0
H137 H 0.74486 0.85259 0.65497 0.0
H138 H 0.80514 0.96092 0.58228 0.0
H139 H 0.86418 0.96841 0.55064 0.0
C140 C 0.7061 0.36681 0.97102 0.0
C141 C 0.70252 0.3153 0.99017 0.0
C142 C 0.61311 0.32583 0.00504 0.0
C143 C 0.62001 0.37851 0.0031 0.0
N144 N 0.66383 0.44876 0.95847 0.0
N145 N 0.65351 0.24369 0.01856 0.0
C146 C 0.66345 0.39881 0.97609 0.0
C147 C 0.65566 0.29395 0.00284 0.0
N148 N 0.7511 0.38512 0.95362 0.0
N149 N 0.56613 0.3073 0.0129 0.0
H150 H 0.6842 0.21947 0.0155 0.0
H151 H 0.62241 0.22618 0.03727 0.0
H152 H 0.53502 0.33125 0.01461 0.0
H153 H 0.5569 0.26903 0.0112 0.0
H154 H 0.75775 0.42279 0.94268 0.0
H155 H 0.78257 0.36195 0.95083 0.0
H156 H 0.69351 0.46687 0.93672 0.0
H157 H 0.63189 0.47138 0.96076 0.0
C158 C 0.16153 0.9367 0.25088 0.0
C159 C 0.1561 0.88452 0.22638 0.0
C160 C 0.10911 0.87187 0.34137 0.0
C161 C 0.10295 0.9246 0.3502 0.0
N162 N 0.12544 0.00867 0.31685 0.0
N163 N 0.11711 0.80327 0.24307 0.0
C164 C 0.13074 0.95765 0.30739 0.0
C165 C 0.12884 0.8519 0.27137 0.0
N166 N 0.19593 0.96592 0.22002 0.0
N167 N 0.09351 0.84094 0.39798 0.0
H168 H 0.12637 0.7876 0.18772 0.0
H169 H 0.09296 0.78008 0.26968 0.0
H170 H 0.07863 0.85534 0.44965 0.0
H171 H 0.1005 0.80222 0.39845 0.0
H172 H 0.20456 0.00318 0.24052 0.0
H173 H 0.21941 0.95118 0.17974 0.0
H174 H 0.13985 0.03458 0.27976 0.0
H175 H 0.10469 0.02496 0.35988 0.0
C176 C 0.66388 0.60681 0.80443 0.0
C177 C 0.63896 0.63804 0.74007 0.0
C178 C 0.55852 0.62822 0.7913 0.0
C179 C 0.58463 0.60341 0.86291 0.0
N180 N 0.66401 0.57449 0.94339 0.0
N181 N 0.56552 0.68851 0.68558 0.0
C182 C 0.63792 0.5939 0.87108 0.0
C183 C 0.58717 0.65177 0.73755 0.0
N184 N 0.71154 0.58842 0.80066 0.0
N185 N 0.50615 0.62745 0.77203 0.0
H186 H 0.58575 0.7083 0.64714 0.0
H187 H 0.52927 0.70313 0.68771 0.0
H188 H 0.48325 0.60771 0.8062 0.0
H189 H 0.48581 0.64112 0.71617 0.0
H190 H 0.72936 0.56138 0.84098 0.0
H191 H 0.73143 0.59708 0.75265 0.0
H192 H 0.70379 0.57135 0.95622 0.0
H193 H 0.64613 0.5651 0.9934 0.0
C194 C 0.82455 0.11413 0.19039 0.0
C195 C 0.85762 0.14283 0.15013 0.0
C196 C 0.93192 0.11853 0.25414 0.0
C197 C 0.89909 0.08762 0.29184 0.0
N198 N 0.81387 0.0685 0.31403 0.0
N199 N 0.93909 0.18467 0.15642 0.0
C200 C 0.84514 0.0898 0.26588 0.0
C201 C 0.91011 0.14935 0.1868 0.0
N202 N 0.77406 0.10837 0.15444 0.0
N203 N 0.98397 0.11572 0.27803 0.0
H204 H 0.92441 0.2071 0.10608 0.0
H205 H 0.9761 0.19498 0.18565 0.0
H206 H 0.00174 0.09445 0.32777 0.0
H207 H 0.00993 0.13235 0.24566 0.0
H208 H 0.74927 0.08305 0.17503 0.0
H209 H 0.75751 0.12724 0.10082 0.0
H210 H 0.77415 0.07204 0.30266 0.0
H211 H 0.82836 0.05141 0.37055 0.0
C212 C 0.39437 0.36891 0.69914 0.0
C213 C 0.35068 0.39051 0.6497 0.0
C214 C 0.35323 0.46001 0.75431 0.0
C215 C 0.40198 0.44354 0.79534 0.0
N216 N 0.47075 0.3831 0.80516 0.0
N217 N 0.28961 0.45814 0.62655 0.0
C218 C 0.42275 0.39765 0.7684 0.0
C219 C 0.33013 0.4363 0.67664 0.0
N220 N 0.40875 0.32111 0.67938 0.0
N221 N 0.32832 0.49744 0.79104 0.0
H222 H 0.27018 0.44093 0.57079 0.0
H223 H 0.27738 0.49472 0.63754 0.0
H224 H 0.34312 0.51426 0.84977 0.0
H225 H 0.29075 0.50795 0.76794 0.0
H226 H 0.43705 0.30115 0.71762 0.0
H227 H 0.38911 0.29965 0.6282 0.0
H228 H 0.49013 0.35299 0.78232 0.0
H229 H 0.4931 0.40325 0.85517 0.0
C230 C 0.59295 0.64898 0.39976 0.0
C231 C 0.64567 0.64268 0.43352 0.0
C232 C 0.65677 0.59752 0.30323 0.0
C233 C 0.60288 0.59379 0.27903 0.0
N234 N 0.51846 0.61332 0.30776 0.0
N235 N 0.72779 0.60689 0.41944 0.0
C236 C 0.57045 0.61971 0.32711 0.0
C237 C 0.67797 0.61666 0.38521 0.0
N238 N 0.56451 0.68285 0.43722 0.0
N239 N 0.68745 0.58157 0.24807 0.0
H240 H 0.74465 0.61849 0.48043 0.0
H241 H 0.75117 0.58335 0.38993 0.0
H242 H 0.67235 0.56766 0.18735 0.0
H243 H 0.72706 0.58705 0.25928 0.0
H244 H 0.52703 0.69219 0.41107 0.0
H245 H 0.5803 0.70544 0.48974 0.0
H246 H 0.49359 0.62662 0.34664 0.0
H247 H 0.50024 0.59172 0.25582 0.0
C248 C 0.82518 0.1279 0.75484 0.0
C249 C 0.85166 0.12064 0.83902 0.0
C250 C 0.89625 0.05216 0.77989 0.0
C251 C 0.8861 0.07288 0.70035 0.0
N252 N 0.83642 0.13088 0.60893 0.0
N253 N 0.92702 0.0812 0.92097 0.0
C254 C 0.84879 0.1109 0.68633 0.0
C255 C 0.89082 0.08335 0.84975 0.0
N256 N 0.77718 0.14778 0.73995 0.0
N257 N 0.91395 0.00438 0.78884 0.0
H258 H 0.93249 0.11 0.96743 0.0
H259 H 0.95638 0.05463 0.92662 0.0
H260 H 0.91496 0.98094 0.73574 0.0
H261 H 0.92021 0.9876 0.84727 0.0
H262 H 0.75633 0.15113 0.67925 0.0
H263 H 0.75616 0.15439 0.78804 0.0
H264 H 0.81223 0.16184 0.59765 0.0
H265 H 0.85232 0.11709 0.55793 0.0
C266 C 0.38 0.35071 0.29751 0.0
C267 C 0.35353 0.38565 0.34252 0.0
C268 C 0.38667 0.45603 0.27291 0.0
C269 C 0.41253 0.42075 0.22732 0.0
N270 N 0.41921 0.33528 0.17475 0.0
N271 N 0.31956 0.46935 0.3556 0.0
C272 C 0.404 0.36827 0.23232 0.0
C273 C 0.35274 0.43768 0.32413 0.0
N274 N 0.38552 0.30157 0.32057 0.0
N275 N 0.39685 0.50662 0.2721 0.0
H276 H 0.29395 0.45681 0.39278 0.0
H277 H 0.31394 0.50669 0.33814 0.0
H278 H 0.42124 0.52204 0.23559 0.0
H279 H 0.38375 0.5332 0.31225 0.0
H280 H 0.40923 0.27622 0.29531 0.0
H281 H 0.37053 0.28717 0.3704 0.0
H282 H 0.41 0.29689 0.17092 0.0
H283 H 0.43609 0.34743 0.12514 0.0
C284 C 0.16768 0.89724 0.85184 0.0
C285 C 0.13838 0.8814 0.91243 0.0
C286 C 0.06129 0.91695 0.82961 0.0
C287 C 0.09019 0.93242 0.76908 0.0
N288 N 0.1666 0.92472 0.70933 0.0
N289 N 0.05478 0.86137 0.94282 0.0
C290 C 0.142 0.918 0.77562 0.0
C291 C 0.0843 0.88654 0.89609 0.0
N292 N 0.22002 0.89595 0.86924 0.0
N293 N 0.01217 0.93296 0.82532 0.0
H294 H 0.07016 0.83674 0.98957 0.0
H295 H 0.01485 0.86061 0.92917 0.0
H296 H -0.00648 0.95233 0.77406 0.0
H297 H -0.00841 0.92929 0.87411 0.0
H298 H 0.24319 0.91135 0.83065 0.0
H299 H 0.24066 0.88369 0.92585 0.0
H300 H 0.20291 0.91048 0.70677 0.0
H301 H 0.14828 0.9401 0.65332 0.0
loop_
_geom_bond_atom_site_label_1
_geom_bond_atom_site_label_2
_geom_bond_distance
_geom_bond_site_symmetry_2
_ccdc_geom_bond_type
H0 C5 0.929 . S
H1 C10 0.931 . S
H2 C8 0.930 . S
N3 N4 1.234 . S
N3 C7 1.453 . S
N4 N3 1.234 . S
C5 H0 0.929 . S
C5 C6 1.373 . S
C5 C7 1.368 1_556 S
C6 C5 1.373 . S
C6 C10 1.397 1_556 S
C7 N3 1.453 . S
C7 C5 1.368 1_554 S
C7 C8 1.373 . S
C8 H2 0.930 . S
C8 C7 1.373 . S
C8 C9 1.371 . S
C9 C8 1.371 . S
C9 C10 1.383 . S
C10 H1 0.931 . S
C10 C6 1.397 1_554 S
C10 C9 1.383 . S
H11 C16 0.929 . S
H12 C21 0.931 . S
H13 C19 0.930 . S
N14 N15 1.234 . S
N14 C18 1.453 . S
N15 N14 1.234 . S
C16 H11 0.929 . S
C16 C17 1.373 . S
C16 C18 1.368 . S
C17 C16 1.373 . S
C17 C21 1.397 . S
C18 N14 1.453 . S
C18 C16 1.368 . S
C18 C19 1.373 . S
C19 H13 0.930 . S
C19 C18 1.373 . S
C19 C20 1.371 . S
C20 C19 1.371 . S
C20 C21 1.383 . S
C21 H12 0.931 . S
C21 C17 1.397 . S
C21 C20 1.383 . S
H22 C27 0.929 . S
H23 C32 0.931 . S
H24 C30 0.930 . S
N25 N26 1.234 1_556 S
N25 C29 1.453 . S
N26 N25 1.234 1_554 S
C27 H22 0.929 . S
C27 C28 1.373 . S
C27 C29 1.368 . S
C28 C27 1.373 . S
C28 C32 1.387 1_556 S
C29 N25 1.453 . S
C29 C27 1.368 . S
C29 C30 1.373 1_556 S
C30 H24 0.930 . S
C30 C29 1.373 1_554 S
C30 C31 1.371 . S
C31 C30 1.371 . S
C31 C32 1.392 . S
C32 H23 0.931 . S
C32 C28 1.387 1_554 S
C32 C31 1.392 . S
H33 C38 0.929 . S
H34 C43 0.931 . S
H35 C41 0.930 . S
N36 N37 1.234 . S
N36 C40 1.453 . S
N37 N36 1.234 . S
C38 H33 0.929 . S
C38 C39 1.373 . S
C38 C40 1.368 . S
C39 C38 1.373 . S
C39 C43 1.397 . S
C40 N36 1.453 . S
C40 C38 1.368 . S
C40 C41 1.373 . S
C41 H35 0.930 . S
C41 C40 1.373 . S
C41 C42 1.371 . S
C42 C41 1.371 . S
C42 C43 1.383 . S
C43 H34 0.931 . S
C43 C39 1.397 . S
C43 C42 1.383 . S
O44 Mg45 1.990 . S
O44 C58 1.253 1_455 S
Mg45 O44 1.990 . S
Mg45 O48 2.180 . S
Mg45 O49 2.117 . S
Mg45 O63 2.030 . S
O46 Mg47 2.072 1_655 S
O46 C58 1.260 . S
Mg47 O46 2.072 1_455 S
Mg47 O48 2.099 . S
Mg47 O50 2.079 1_545 S
Mg47 O51 2.072 1_455 S
Mg47 O53 2.099 1_445 S
Mg47 O64 2.079 1_545 S
O48 Mg45 2.180 . S
O48 Mg47 2.099 . S
O48 C59 1.279 . S
O49 Mg45 2.117 . S
O49 C59 1.250 . S
O50 Mg47 2.079 1_565 S
O50 C60 1.264 . S
O51 Mg47 2.072 1_655 S
O51 C61 1.260 . S
Mg52 O53 2.180 . S
Mg52 O54 2.030 1_655 S
Mg52 O55 1.990 1_565 S
Mg52 O56 2.117 . S
O53 Mg47 2.099 1_665 S
O53 Mg52 2.180 . S
O53 C62 1.279 . S
O54 Mg52 2.030 1_455 S
O54 C60 1.248 . S
O55 Mg52 1.990 1_545 S
O55 C61 1.253 . S
O56 Mg52 2.117 . S
O56 C62 1.250 . S
C57 O63 1.248 1_565 S
C57 O64 1.264 . S
C58 O44 1.253 1_655 S
C58 O46 1.260 . S
C59 O48 1.279 . S
C59 O49 1.250 . S
C60 O50 1.264 . S
C60 O54 1.248 . S
C61 O51 1.260 . S
C61 O55 1.253 . S
C62 O53 1.279 . S
C62 O56 1.250 . S
O63 Mg45 2.030 . S
O63 C57 1.248 1_545 S
O64 Mg47 2.079 1_565 S
O64 C57 1.264 . S
O65 Mg66 1.990 . S
O65 C79 1.253 . S
Mg66 O65 1.990 . S
Mg66 O69 2.180 . S
Mg66 O70 2.117 . S
Mg66 O84 2.030 . S
O67 Mg68 2.072 . S
O67 C79 1.260 . S
Mg68 O67 2.072 . S
Mg68 O69 2.099 . S
Mg68 O71 2.079 1_554 S
Mg68 O72 2.072 1_554 S
Mg68 O74 2.099 . S
Mg68 O85 2.079 . S
O69 Mg66 2.180 . S
O69 Mg68 2.099 . S
O69 C80 1.279 . S
O70 Mg66 2.117 . S
O70 C80 1.250 . S
O71 Mg68 2.079 1_556 S
O71 C81 1.264 . S
O72 Mg68 2.072 1_556 S
O72 C82 1.260 . S
Mg73 O74 2.180 1_556 S
Mg73 O75 2.030 . S
Mg73 O76 1.990 . S
Mg73 O77 2.117 . S
O74 Mg68 2.099 . S
O74 Mg73 2.180 1_554 S
O74 C83 1.279 . S
O75 Mg73 2.030 . S
O75 C81 1.248 . S
O76 Mg73 1.990 . S
O76 C82 1.253 . S
O77 Mg73 2.117 . S
O77 C83 1.250 1_556 S
C78 O84 1.248 . S
C78 O85 1.264 . S
C79 O65 1.253 . S
C79 O67 1.260 . S
C80 O69 1.279 . S
C80 O70 1.250 . S
C81 O71 1.264 . S
C81 O75 1.248 . S
C82 O72 1.260 . S
C82 O76 1.253 . S
C83 O74 1.279 . S
C83 O77 1.250 1_554 S
O84 Mg66 2.030 . S
O84 C78 1.248 . S
O85 Mg68 2.079 . S
O85 C78 1.264 . S
C86 C87 1.363 . S
C86 C92 1.379 . S
C86 N94 1.356 . S
C87 C86 1.363 . S
C87 C93 1.363 . S
C88 C89 1.363 . S
C88 C93 1.379 . S
C88 N95 1.356 . S
C89 C88 1.363 . S
C89 C92 1.363 . S
N90 C92 1.356 . S
N90 H102 0.984 . S
N90 H103 0.985 . S
N91 C93 1.356 . S
N91 H96 0.984 . S
N91 H97 0.985 . S
C92 C86 1.379 . S
C92 C89 1.363 . S
C92 N90 1.356 . S
C93 C87 1.363 . S
C93 C88 1.379 . S
C93 N91 1.356 . S
N94 C86 1.356 . S
N94 H100 0.984 . S
N94 H101 0.984 . S
N95 C88 1.356 . S
N95 H98 0.984 . S
N95 H99 0.985 . S
H96 N91 0.984 . S
H97 N91 0.985 . S
H98 N95 0.984 . S
H99 N95 0.985 . S
H100 N94 0.984 . S
H101 N94 0.984 . S
H102 N90 0.984 . S
H103 N90 0.985 . S
C104 C105 1.363 . S
C104 C110 1.379 . S
C104 N112 1.356 1_554 S
C105 C104 1.363 . S
C105 C111 1.363 . S
C106 C107 1.363 . S
C106 C111 1.379 . S
C106 N113 1.356 . S
C107 C106 1.363 . S
C107 C110 1.363 . S
N108 C110 1.356 1_556 S
N108 H120 0.984 . S
N108 H121 0.985 . S
N109 C111 1.356 . S
N109 H114 0.984 . S
N109 H115 0.985 . S
C110 C104 1.379 . S
C110 C107 1.363 . S
C110 N108 1.356 1_554 S
C111 C105 1.363 . S
C111 C106 1.379 . S
C111 N109 1.356 . S
N112 C104 1.356 1_556 S
N112 H118 0.984 . S
N112 H119 0.984 1_556 S
N113 C106 1.356 . S
N113 H116 0.984 . S
N113 H117 0.985 . S
H114 N109 0.984 . S
H115 N109 0.985 . S
H116 N113 0.984 . S
H117 N113 0.985 . S
H118 N112 0.984 . S
H119 N112 0.984 1_554 S
H120 N108 0.984 . S
H121 N108 0.985 . S
C122 C123 1.363 . S
C122 C128 1.379 . S
C122 N130 1.356 . S
C123 C122 1.363 . S
C123 C129 1.363 . S
C124 C125 1.363 . S
C124 C129 1.379 . S
C124 N131 1.356 . S
C125 C124 1.363 . S
C125 C128 1.363 . S
N126 C128 1.356 . S
N126 H138 0.984 . S
N126 H139 0.985 . S
N127 C129 1.356 . S
N127 H132 0.984 . S
N127 H133 0.985 . S
C128 C122 1.379 . S
C128 C125 1.363 . S
C128 N126 1.356 . S
C129 C123 1.363 . S
C129 C124 1.379 . S
C129 N127 1.356 . S
N130 C122 1.356 . S
N130 H136 0.984 . S
N130 H137 0.984 . S
N131 C124 1.356 . S
N131 H134 0.984 . S
N131 H135 0.985 . S
H132 N127 0.984 . S
H133 N127 0.985 . S
H134 N131 0.984 . S
H135 N131 0.985 . S
H136 N130 0.984 . S
H137 N130 0.984 . S
H138 N126 0.984 . S
H139 N126 0.985 . S
C140 C141 1.363 1_556 S
C140 C146 1.379 . S
C140 N148 1.356 . S
C141 C140 1.363 1_554 S
C141 C147 1.363 . S
C142 C143 1.363 . S
C142 C147 1.379 . S
C142 N149 1.356 . S
C143 C142 1.363 . S
C143 C146 1.363 1_554 S
N144 C146 1.356 . S
N144 H156 0.984 . S
N144 H157 0.985 . S
N145 C147 1.356 . S
N145 H150 0.984 . S
N145 H151 0.985 . S
C146 C140 1.379 . S
C146 C143 1.363 1_556 S
C146 N144 1.356 . S
C147 C141 1.363 . S
C147 C142 1.379 . S
C147 N145 1.356 . S
N148 C140 1.356 . S
N148 H154 0.984 . S
N148 H155 0.984 . S
N149 C142 1.356 . S
N149 H152 0.984 . S
N149 H153 0.985 . S
H150 N145 0.984 . S
H151 N145 0.985 . S
H152 N149 0.984 . S
H153 N149 0.985 . S
H154 N148 0.984 . S
H155 N148 0.984 . S
H156 N144 0.984 . S
H157 N144 0.985 . S
C158 C159 1.363 . S
C158 C164 1.379 . S
C158 N166 1.356 . S
C159 C158 1.363 . S
C159 C165 1.363 . S
C160 C161 1.363 . S
C160 C165 1.379 . S
C160 N167 1.356 . S
C161 C160 1.363 . S
C161 C164 1.363 . S
N162 C164 1.356 1_545 S
N162 H174 0.984 . S
N162 H175 0.985 . S
N163 C165 1.356 . S
N163 H168 0.984 . S
N163 H169 0.985 . S
C164 C158 1.379 . S
C164 C161 1.363 . S
C164 N162 1.356 1_565 S
C165 C159 1.363 . S
C165 C160 1.379 . S
C165 N163 1.356 . S
N166 C158 1.356 . S
N166 H172 0.984 . S
N166 H173 0.984 . S
N167 C160 1.356 . S
N167 H170 0.984 . S
N167 H171 0.985 . S
H168 N163 0.984 . S
H169 N163 0.985 . S
H170 N167 0.984 . S
H171 N167 0.985 . S
H172 N166 0.984 . S
H173 N166 0.984 . S
H174 N162 0.984 . S
H175 N162 0.985 . S
C176 C177 1.363 . S
C176 C182 1.379 . S
C176 N184 1.356 . S
C177 C176 1.363 . S
C177 C183 1.363 . S
C178 C179 1.363 . S
C178 C183 1.379 . S
C178 N185 1.356 . S
C179 C178 1.363 . S
C179 C182 1.363 . S
N180 C182 1.356 . S
N180 H192 0.984 . S
N180 H193 0.985 . S
N181 C183 1.356 . S
N181 H186 0.984 . S
N181 H187 0.985 . S
C182 C176 1.379 . S
C182 C179 1.363 . S
C182 N180 1.356 . S
C183 C177 1.363 . S
C183 C178 1.379 . S
C183 N181 1.356 . S
N184 C176 1.356 . S
N184 H190 0.984 . S
N184 H191 0.984 . S
N185 C178 1.356 . S
N185 H188 0.984 . S
N185 H189 0.985 . S
H186 N181 0.984 . S
H187 N181 0.985 . S
H188 N185 0.984 . S
H189 N185 0.985 . S
H190 N184 0.984 . S
H191 N184 0.984 . S
H192 N180 0.984 . S
H193 N180 0.985 . S
C194 C195 1.363 . S
C194 C200 1.379 . S
C194 N202 1.356 . S
C195 C194 1.363 . S
C195 C201 1.363 . S
C196 C197 1.363 . S
C196 C201 1.379 . S
C196 N203 1.356 . S
C197 C196 1.363 . S
C197 C200 1.363 . S
N198 C200 1.356 . S
N198 H210 0.984 . S
N198 H211 0.985 . S
N199 C201 1.356 . S
N199 H204 0.984 . S
N199 H205 0.985 . S
C200 C194 1.379 . S
C200 C197 1.363 . S
C200 N198 1.356 . S
C201 C195 1.363 . S
C201 C196 1.379 . S
C201 N199 1.356 . S
N202 C194 1.356 . S
N202 H208 0.984 . S
N202 H209 0.984 . S
N203 C196 1.356 . S
N203 H206 0.984 1_655 S
N203 H207 0.985 1_655 S
H204 N199 0.984 . S
H205 N199 0.985 . S
H206 N203 0.984 1_455 S
H207 N203 0.985 1_455 S
H208 N202 0.984 . S
H209 N202 0.984 . S
H210 N198 0.984 . S
H211 N198 0.985 . S
C212 C213 1.363 . S
C212 C218 1.379 . S
C212 N220 1.356 . S
C213 C212 1.363 . S
C213 C219 1.363 . S
C214 C215 1.363 . S
C214 C219 1.379 . S
C214 N221 1.356 . S
C215 C214 1.363 . S
C215 C218 1.363 . S
N216 C218 1.356 . S
N216 H228 0.984 . S
N216 H229 0.985 . S
N217 C219 1.356 . S
N217 H222 0.984 . S
N217 H223 0.985 . S
C218 C212 1.379 . S
C218 C215 1.363 . S
C218 N216 1.356 . S
C219 C213 1.363 . S
C219 C214 1.379 . S
C219 N217 1.356 . S
N220 C212 1.356 . S
N220 H226 0.984 . S
N220 H227 0.984 . S
N221 C214 1.356 . S
N221 H224 0.984 . S
N221 H225 0.985 . S
H222 N217 0.984 . S
H223 N217 0.985 . S
H224 N221 0.984 . S
H225 N221 0.985 . S
H226 N220 0.984 . S
H227 N220 0.984 . S
H228 N216 0.984 . S
H229 N216 0.985 . S
C230 C231 1.363 . S
C230 C236 1.379 . S
C230 N238 1.356 . S
C231 C230 1.363 . S
C231 C237 1.363 . S
C232 C233 1.363 . S
C232 C237 1.379 . S
C232 N239 1.356 . S
C233 C232 1.363 . S
C233 C236 1.363 . S
N234 C236 1.356 . S
N234 H246 0.984 . S
N234 H247 0.985 . S
N235 C237 1.356 . S
N235 H240 0.984 . S
N235 H241 0.985 . S
C236 C230 1.379 . S
C236 C233 1.363 . S
C236 N234 1.356 . S
C237 C231 1.363 . S
C237 C232 1.379 . S
C237 N235 1.356 . S
N238 C230 1.356 . S
N238 H244 0.984 . S
N238 H245 0.984 . S
N239 C232 1.356 . S
N239 H242 0.984 . S
N239 H243 0.985 . S
H240 N235 0.984 . S
H241 N235 0.985 . S
H242 N239 0.984 . S
H243 N239 0.985 . S
H244 N238 0.984 . S
H245 N238 0.984 . S
H246 N234 0.984 . S
H247 N234 0.985 . S
C248 C249 1.363 . S
C248 C254 1.379 . S
C248 N256 1.356 . S
C249 C248 1.363 . S
C249 C255 1.363 . S
C250 C251 1.363 . S
C250 C255 1.379 . S
C250 N257 1.356 . S
C251 C250 1.363 . S
C251 C254 1.363 . S
N252 C254 1.356 . S
N252 H264 0.984 . S
N252 H265 0.985 . S
N253 C255 1.356 . S
N253 H258 0.984 . S
N253 H259 0.985 . S
C254 C248 1.379 . S
C254 C251 1.363 . S
C254 N252 1.356 . S
C255 C249 1.363 . S
C255 C250 1.379 . S
C255 N253 1.356 . S
N256 C248 1.356 . S
N256 H262 0.984 . S
N256 H263 0.984 . S
N257 C250 1.356 . S
N257 H260 0.984 . S
N257 H261 0.985 . S
H258 N253 0.984 . S
H259 N253 0.985 . S
H260 N257 0.984 . S
H261 N257 0.985 . S
H262 N256 0.984 . S
H263 N256 0.984 . S
H264 N252 0.984 . S
H265 N252 0.985 . S
C266 C267 1.363 . S
C266 C272 1.379 . S
C266 N274 1.356 . S
C267 C266 1.363 . S
C267 C273 1.363 . S
C268 C269 1.363 . S
C268 C273 1.379 . S
C268 N275 1.356 . S
C269 C268 1.363 . S
C269 C272 1.363 . S
N270 C272 1.356 . S
N270 H282 0.984 . S
N270 H283 0.985 . S
N271 C273 1.356 . S
N271 H276 0.984 . S
N271 H277 0.985 . S
C272 C266 1.379 . S
C272 C269 1.363 . S
C272 N270 1.356 . S
C273 C267 1.363 . S
C273 C268 1.379 . S
C273 N271 1.356 . S
N274 C266 1.356 . S
N274 H280 0.984 . S
N274 H281 0.984 . S
N275 C268 1.356 . S
N275 H278 0.984 . S
N275 H279 0.985 . S
H276 N271 0.984 . S
H277 N271 0.985 . S
H278 N275 0.984 . S
H279 N275 0.985 . S
H280 N274 0.984 . S
H281 N274 0.984 . S
H282 N270 0.984 . S
H283 N270 0.985 . S
C284 C285 1.363 . S
C284 C290 1.379 . S
C284 N292 1.356 . S
C285 C284 1.363 . S
C285 C291 1.363 . S
C286 C287 1.363 . S
C286 C291 1.379 . S
C286 N293 1.356 . S
C287 C286 1.363 . S
C287 C290 1.363 . S
N288 C290 1.356 . S
N288 H300 0.984 . S
N288 H301 0.985 . S
N289 C291 1.356 . S
N289 H294 0.984 1_556 S
N289 H295 0.985 1_556 S
C290 C284 1.379 . S
C290 C287 1.363 . S
C290 N288 1.356 . S
C291 C285 1.363 . S
C291 C286 1.379 . S
C291 N289 1.356 . S
N292 C284 1.356 . S
N292 H298 0.984 . S
N292 H299 0.984 . S
N293 C286 1.356 . S
N293 H296 0.984 1_565 S
N293 H297 0.985 1_565 S
H294 N289 0.984 1_554 S
H295 N289 0.985 1_554 S
H296 N293 0.984 1_545 S
H297 N293 0.985 1_545 S
H298 N292 0.984 . S
H299 N292 0.984 . S
H300 N288 0.984 . S
H301 N288 0.985 . S
C89 C59 1.264 . S
C87 N37 1.454 . S
C105 N4 1.495 . S
C107 C83 1.315 . S
C123 N15 1.561 . S
C125 C62 1.389 . S
C141 N26 1.563 . S
C143 C80 1.359 . S
C161 C60 1.501 . S
C159 C9 1.497 . S
C179 C82 1.523 . S
C177 C17 1.597 . S
C195 C31 1.585 . S
C197 C61 1.545 . S
C213 C42 1.504 . S
C215 C81 1.450 . S
C233 C79 1.470 . S
C231 C20 1.514 . S
C251 C58 1.455 . S
C249 C28 1.523 . S
C269 C78 1.417 . S
C267 C39 1.449 . S
C285 C6 1.449 . S
C287 C57 1.389 . S
