# Generated by pormake.
# Topology pyr, (3,6)-cn, num edge types: 1
# Building blocks:
#     Node 0, Type 0, BuildingBlock: PAMTOO_clean_linker_0, # of connection points: 3
#     Node 1, Type 0, BuildingBlock: PAMTOO_clean_linker_0, # of connection points: 3
#     Node 2, Type 0, BuildingBlock: PAMTOO_clean_linker_0, # of connection points: 3
#     Node 3, Type 0, BuildingBlock: PAMTOO_clean_linker_0, # of connection points: 3
#     Node 4, Type 0, BuildingBlock: PAMTOO_clean_linker_0, # of connection points: 3
#     Node 5, Type 0, BuildingBlock: PAMTOO_clean_linker_0, # of connection points: 3
#     Node 6, Type 0, BuildingBlock: PAMTOO_clean_linker_0, # of connection points: 3
#     Node 7, Type 0, BuildingBlock: PAMTOO_clean_linker_0, # of connection points: 3
#     Node 8, Type 1, BuildingBlock: CIFDUS_clean_sbu_1, # of connection points: 6
#     Node 9, Type 1, BuildingBlock: CIFDUS_clean_sbu_1, # of connection points: 6
#     Node 10, Type 1, BuildingBlock: CIFDUS_clean_sbu_1, # of connection points: 6
#     Node 11, Type 1, BuildingBlock: CIFDUS_clean_sbu_1, # of connection points: 6
#     Edge 12, Type (0, 1), BuildingBlock: XUDNAN_clean_linker_2, # of connection points: 2
#     Edge 13, Type (0, 1), BuildingBlock: XUDNAN_clean_linker_2, # of connection points: 2
#     Edge 14, Type (0, 1), BuildingBlock: XUDNAN_clean_linker_2, # of connection points: 2
#     Edge 15, Type (0, 1), BuildingBlock: XUDNAN_clean_linker_2, # of connection points: 2
#     Edge 16, Type (0, 1), BuildingBlock: XUDNAN_clean_linker_2, # of connection points: 2
#     Edge 17, Type (0, 1), BuildingBlock: XUDNAN_clean_linker_2, # of connection points: 2
#     Edge 18, Type (0, 1), BuildingBlock: XUDNAN_clean_linker_2, # of connection points: 2
#     Edge 19, Type (0, 1), BuildingBlock: XUDNAN_clean_linker_2, # of connection points: 2
#     Edge 20, Type (0, 1), BuildingBlock: XUDNAN_clean_linker_2, # of connection points: 2
#     Edge 21, Type (0, 1), BuildingBlock: XUDNAN_clean_linker_2, # of connection points: 2
#     Edge 22, Type (0, 1), BuildingBlock: XUDNAN_clean_linker_2, # of connection points: 2
#     Edge 23, Type (0, 1), BuildingBlock: XUDNAN_clean_linker_2, # of connection points: 2
#     Edge 24, Type (0, 1), BuildingBlock: XUDNAN_clean_linker_2, # of connection points: 2
#     Edge 25, Type (0, 1), BuildingBlock: XUDNAN_clean_linker_2, # of connection points: 2
#     Edge 26, Type (0, 1), BuildingBlock: XUDNAN_clean_linker_2, # of connection points: 2
#     Edge 27, Type (0, 1), BuildingBlock: XUDNAN_clean_linker_2, # of connection points: 2
#     Edge 28, Type (0, 1), BuildingBlock: XUDNAN_clean_linker_2, # of connection points: 2
#     Edge 29, Type (0, 1), BuildingBlock: XUDNAN_clean_linker_2, # of connection points: 2
#     Edge 30, Type (0, 1), BuildingBlock: XUDNAN_clean_linker_2, # of connection points: 2
#     Edge 31, Type (0, 1), BuildingBlock: XUDNAN_clean_linker_2, # of connection points: 2
#     Edge 32, Type (0, 1), BuildingBlock: XUDNAN_clean_linker_2, # of connection points: 2
#     Edge 33, Type (0, 1), BuildingBlock: XUDNAN_clean_linker_2, # of connection points: 2
#     Edge 34, Type (0, 1), BuildingBlock: XUDNAN_clean_linker_2, # of connection points: 2
#     Edge 35, Type (0, 1), BuildingBlock: XUDNAN_clean_linker_2, # of connection points: 2
# Relax obj value: 0.094
# Max RMSD: 0.205
# Mean RMSD: 0.144
data_MOF--net-pry--node1-CIFDUS_clean_sbu_1--node2-PAMTOO_clean_linker_0--edge1-XUDNAN_clean_linker_2
_symmetry_space_group_name_H-M    P1
_symmetry_Int_Tables_number       1
_symmetry_cell_setting            triclinic
loop_
_symmetry_equiv_pos_as_xyz
'x, y, z'
_cell_length_a     36.105595
_cell_length_b     36.009917
_cell_length_c     35.436082
_cell_angle_alpha  92.154957
_cell_angle_beta   92.575105
_cell_angle_gamma 98.044617
loop_
_atom_site_label
_atom_site_type_symbol
_atom_site_fract_x
_atom_site_fract_y
_atom_site_fract_z
_atom_type_partial_charge
H0 H 0.10694 0.17567 0.20381 0.0
H1 H 0.19679 0.1098 0.20775 0.0
H2 H 0.19 0.18764 0.11922 0.0
H3 H 0.21829 0.1102 0.09375 0.0
C4 C 0.23108 0.10527 0.12191 0.0
O5 O 0.22806 0.13584 0.14649 0.0
H6 H 0.21533 0.07944 0.1328 0.0
C7 C 0.13217 0.16856 0.19178 0.0
C8 C 0.14642 0.18717 0.15971 0.0
C9 C 0.15063 0.142 0.21051 0.0
C10 C 0.18173 0.12973 0.19363 0.0
C11 C 0.19521 0.14502 0.15977 0.0
C12 C 0.17776 0.1741 0.14338 0.0
H13 H 0.35584 0.96773 0.67762 0.0
H14 H 0.35361 0.88748 0.58322 0.0
H15 H 0.43339 0.88753 0.67592 0.0
H16 H 0.46175 0.86744 0.60296 0.0
C17 C 0.43609 0.85012 0.59001 0.0
O18 O 0.40584 0.85353 0.61196 0.0
H19 H 0.43016 0.85989 0.56126 0.0
C20 C 0.3671 0.9453 0.66282 0.0
C21 C 0.39717 0.93028 0.68034 0.0
C22 C 0.35089 0.93056 0.62727 0.0
C23 C 0.36641 0.90107 0.6093 0.0
C24 C 0.39642 0.88609 0.6264 0.0
C25 C 0.41167 0.90069 0.66185 0.0
H26 H 0.68546 0.34142 0.95143 0.0
H27 H 0.62896 0.3396 0.84084 0.0
H28 H 0.70269 0.43678 0.88251 0.0
H29 H 0.63337 0.45278 0.84293 0.0
C30 C 0.63084 0.42988 0.82055 0.0
O31 O 0.65773 0.40706 0.82685 0.0
H32 H 0.60245 0.41329 0.82114 0.0
C33 C 0.67822 0.35479 0.92583 0.0
C34 C 0.69612 0.39119 0.9205 0.0
C35 C 0.65412 0.33493 0.89713 0.0
C36 C 0.64605 0.35387 0.86432 0.0
C37 C 0.66252 0.39086 0.85994 0.0
C38 C 0.68768 0.40937 0.88776 0.0
H39 H 0.89435 0.67655 0.48965 0.0
H40 H 0.85917 0.59889 0.39568 0.0
H41 H 0.96578 0.66866 0.39639 0.0
H42 H 0.91423 0.55998 0.36538 0.0
C43 C 0.93279 0.58275 0.35233 0.0
O44 O 0.91925 0.61645 0.35809 0.0
H45 H 0.96139 0.58489 0.36606 0.0
C46 C 0.90041 0.66329 0.46311 0.0
C47 C 0.93367 0.67599 0.44577 0.0
C48 C 0.87319 0.63597 0.44529 0.0
C49 C 0.88027 0.61943 0.41032 0.0
C50 C 0.91396 0.63069 0.39306 0.0
C51 C 0.94058 0.65899 0.41072 0.0
H52 H 0.86363 0.92256 0.843 0.0
H53 H 0.86143 0.86766 0.94918 0.0
H54 H 0.94173 0.84633 0.8686 0.0
H55 H 0.87578 0.79087 0.93969 0.0
C56 C 0.90443 0.80019 0.95261 0.0
O57 O 0.92051 0.83301 0.93641 0.0
H58 H 0.90063 0.80693 0.98292 0.0
C59 C 0.87386 0.90319 0.86181 0.0
C60 C 0.90405 0.88495 0.85019 0.0
C61 C 0.85667 0.89698 0.89685 0.0
C62 C 0.87262 0.87267 0.92175 0.0
C63 C 0.90289 0.85378 0.91117 0.0
C64 C 0.91784 0.85988 0.87546 0.0
H65 H 0.72097 0.08689 0.36098 0.0
H66 H 0.64059 0.16507 0.3532 0.0
H67 H 0.71849 0.17171 0.44889 0.0
H68 H 0.63973 0.18171 0.46335 0.0
C69 C 0.6341 0.19926 0.43911 0.0
O70 O 0.66432 0.20258 0.41617 0.0
H71 H 0.60882 0.18471 0.42281 0.0
C72 C 0.7082 0.11005 0.3724 0.0
C73 C 0.72243 0.12684 0.40759 0.0
C74 C 0.67854 0.12311 0.35186 0.0
C75 C 0.66383 0.15444 0.36739 0.0
C76 C 0.67845 0.17216 0.40203 0.0
C77 C 0.70782 0.15839 0.4219 0.0
H78 H 0.36739 0.68923 0.0832 0.0
H79 H 0.35431 0.62613 0.18412 0.0
H80 H 0.43027 0.72879 0.1861 0.0
H81 H 0.46303 0.67443 0.21947 0.0
C82 C 0.43877 0.65482 0.22859 0.0
O83 O 0.40632 0.67053 0.22375 0.0
H84 H 0.43689 0.62832 0.21087 0.0
C85 C 0.37341 0.68624 0.11309 0.0
C86 C 0.39972 0.71319 0.13289 0.0
C87 C 0.35608 0.65485 0.13131 0.0
C88 C 0.3665 0.65034 0.16941 0.0
C89 C 0.39317 0.67703 0.18885 0.0
C90 C 0.40877 0.70896 0.17103 0.0
H91 H 0.08583 0.35252 0.69743 0.0
H92 H 0.15292 0.45799 0.67564 0.0
H93 H 0.14615 0.36555 0.59593 0.0
H94 H 0.21862 0.40849 0.64548 0.0
C95 C 0.21513 0.43474 0.63079 0.0
O96 O 0.17916 0.43308 0.61513 0.0
H97 H 0.22026 0.45807 0.65272 0.0
C98 C 0.10295 0.37055 0.6793 0.0
C99 C 0.11263 0.35532 0.64442 0.0
C100 C 0.11694 0.40804 0.69133 0.0
C101 C 0.13961 0.43002 0.66683 0.0
C102 C 0.15024 0.41461 0.63288 0.0
C103 C 0.13613 0.3777 0.62132 0.0
O104 O 0.97272 0.03616 0.52394 0.0
Mn105 Mn 0.02472 0.01623 0.53123 0.0
O106 O 0.95781 0.02717 0.46282 0.0
Mn107 Mn 0.98948 0.99181 0.45573 0.0
O108 O 0.07733 0.99846 0.5437 0.0
O109 O 0.04434 0.06289 0.56523 0.0
Mn110 Mn 0.05303 0.04565 0.61082 0.0
O111 O 0.99963 0.98243 0.57542 0.0
O112 O 0.09777 0.02856 0.60004 0.0
O113 O 0.04958 0.04623 0.48319 0.0
O114 O 0.03119 0.00893 0.43143 0.0
O115 O 0.0361 0.091 0.61757 0.0
O116 O 0.01953 0.01039 0.6309 0.0
C117 C 0.98305 0.94163 0.48627 0.0
C118 C 0.95165 0.04047 0.49493 0.0
C119 C 0.10256 0.0074 0.57113 0.0
C120 C 0.03736 0.09389 0.58154 0.0
C121 C 0.99962 0.98436 0.61193 0.0
C122 C 0.05241 0.03673 0.44735 0.0
O123 O 0.00888 0.97005 0.49545 0.0
O124 O 0.96341 0.94537 0.45552 0.0
O125 O 0.51973 0.01285 0.95866 0.0
Mn126 Mn 0.55056 0.01775 0.01066 0.0
O127 O 0.55363 0.97889 0.92785 0.0
Mn128 Mn 0.56272 0.95789 0.97397 0.0
O129 O 0.57702 0.02681 0.06583 0.0
O130 O 0.56198 0.07342 1.00198 0.0
Mn131 Mn 0.54057 0.09596 0.03789 0.0
O132 O 0.49719 0.02281 0.03594 0.0
O133 O 0.56208 0.08366 0.08306 0.0
O134 O 0.60674 0.0147 0.98811 0.0
O135 O 0.61145 0.95477 0.98494 0.0
O136 O 0.56318 0.13439 0.01186 0.0
O137 O 0.48989 0.08261 0.03036 0.0
C138 C 0.52706 0.92478 1.00469 0.0
C139 C 0.52813 0.99905 0.92729 0.0
C140 C 0.57705 0.05451 0.0904 0.0
C141 C 0.57255 0.10715 0.9911 0.0
C142 C 0.47646 0.04957 0.03783 0.0
C143 C 0.62759 0.98786 0.98608 0.0
O144 O 0.53882 0.95938 0.01864 0.0
O145 O 0.53376 0.91505 0.97048 0.0
O146 O 0.59307 0.55074 0.5199 0.0
Mn147 Mn 0.53792 0.5258 0.5211 0.0
O148 O 0.61283 0.52675 0.46646 0.0
Mn149 Mn 0.56648 0.50944 0.4429 0.0
O150 O 0.48218 0.50173 0.52411 0.0
O151 O 0.54675 0.52081 0.57621 0.0
Mn152 Mn 0.51417 0.54003 0.6026 0.0
O153 O 0.51973 0.57979 0.52947 0.0
O154 O 0.46794 0.51549 0.5842 0.0
O155 O 0.55378 0.47085 0.51237 0.0
O156 O 0.5521 0.45943 0.44944 0.0
O157 O 0.54534 0.52106 0.63723 0.0
O158 O 0.52402 0.58981 0.59237 0.0
C159 C 0.52976 0.55107 0.43819 0.0
C160 C 0.619 0.54518 0.4979 0.0
C161 C 0.45904 0.50175 0.5507 0.0
C162 C 0.56272 0.51319 0.60745 0.0
C163 C 0.51748 0.6009 0.55946 0.0
C164 C 0.55409 0.44811 0.48302 0.0
O165 O 0.53001 0.52847 0.46532 0.0
O166 O 0.54933 0.54248 0.41029 0.0
O167 O 0.9802 0.46856 0.02444 0.0
Mn168 Mn 0.03762 0.49033 0.02534 0.0
O169 O 0.96146 0.46429 0.96347 0.0
Mn170 Mn 1.00526 0.48807 0.94778 0.0
O171 O 0.09539 0.51111 0.02407 0.0
O172 O 0.02981 0.50264 0.08288 0.0
Mn173 Mn 0.07781 0.49843 0.09561 0.0
O174 O 0.05038 0.43573 0.03984 0.0
O175 O 0.11114 0.53683 0.08026 0.0
O176 O 0.02218 0.54569 0.01115 0.0
O177 O 0.0105 0.53902 0.94889 0.0
O178 O 0.06122 0.50847 0.14012 0.0
O179 O 0.08962 0.45001 0.09003 0.0
C180 C 0.05054 0.46452 0.93397 0.0
C181 C 0.95501 0.45954 0.99777 0.0
C182 C 0.11855 0.53243 0.04638 0.0
C183 C 0.03049 0.50935 0.11997 0.0
C184 C 0.07289 0.4258 0.06581 0.0
C185 C 0.01265 0.55931 0.97906 0.0
O186 O 0.04558 0.47453 0.96942 0.0
O187 O 0.02373 0.46615 0.90869 0.0
H188 H 0.13555 0.07128 0.24254 0.0
H189 H 0.14095 0.19056 0.26873 0.0
H190 H 0.12198 0.17742 0.33338 0.0
H191 H 0.05302 0.04376 0.29462 0.0
H192 H 0.06805 1.00113 0.31073 0.0
H193 H 0.08399 0.0199 0.26698 0.0
H194 H 0.15263 0.02052 0.29149 0.0
H195 H 0.13685 1.00212 0.3355 0.0
H196 H 0.16894 0.04525 0.33562 0.0
H197 H 0.10095 0.15137 0.39647 0.0
H198 H 0.07449 0.11401 0.44903 0.0
H199 H 0.08162 0.01189 0.38257 0.0
C200 C 0.13316 0.0946 0.26203 0.0
C201 C 0.14002 0.13212 0.25016 0.0
C202 C 0.13582 0.16162 0.27672 0.0
C203 C 0.12518 0.15445 0.31378 0.0
C204 C 0.11848 0.1174 0.3246 0.0
C205 C 0.12197 0.08787 0.29938 0.0
C206 C 0.11107 0.05059 0.31779 0.0
C207 C 0.07701 0.0275 0.29625 0.0
C208 C 0.14437 0.02831 0.32024 0.0
C209 C 0.10111 0.06386 0.35702 0.0
C210 C 0.10585 0.1025 0.36058 0.0
C211 C 0.0974 0.12102 0.39401 0.0
C212 C 0.08273 0.0996 0.42406 0.0
C213 C 0.07625 0.05992 0.42057 0.0
C214 C 0.08651 0.04217 0.38664 0.0
H215 H 0.45724 0.98166 0.70841 0.0
H216 H 0.36494 0.90174 0.74221 0.0
H217 H 0.38568 0.9154 0.80943 0.0
H218 H 0.52558 0.96109 0.77524 0.0
H219 H 0.54743 0.00888 0.78491 0.0
H220 H 0.52355 0.99548 0.73976 0.0
H221 H 0.48187 0.04774 0.74913 0.0
H222 H 0.50563 0.06124 0.79446 0.0
H223 H 0.45542 0.04913 0.79096 0.0
H224 H 0.41707 0.93601 0.87251 0.0
H225 H 0.46004 0.95828 0.92741 0.0
H226 H 0.53456 0.0231 0.85404 0.0
C227 C 0.44125 0.96756 0.73015 0.0
C228 C 0.40924 0.94094 0.72038 0.0
C229 C 0.3892 0.92254 0.74933 0.0
C230 C 0.40076 0.93018 0.78751 0.0
C231 C 0.43236 0.95656 0.7964 0.0
C232 C 0.45241 0.97503 0.76864 0.0
C233 C 0.48626 1.00097 0.78611 0.0
C234 C 0.52287 0.99097 0.77058 0.0
C235 C 0.48205 0.04221 0.77977 0.0
C236 C 0.48329 0.99251 0.8277 0.0
C237 C 0.45124 0.96774 0.83299 0.0
C238 C 0.44203 0.95569 0.86873 0.0
C239 C 0.46644 0.96871 0.89981 0.0
C240 C 0.50013 0.99294 0.89504 0.0
C241 C 0.50861 0.00512 0.85849 0.0
H242 H 0.60939 0.39499 0.75221 0.0
H243 H 0.66527 0.49988 0.80396 0.0
H244 H 0.67453 0.52532 0.74068 0.0
H245 H 0.66523 0.40075 0.66081 0.0
H246 H 0.62405 0.38015 0.63282 0.0
H247 H 0.63158 0.36602 0.68058 0.0
H248 H 0.56692 0.38334 0.69865 0.0
H249 H 0.55893 0.3951 0.65074 0.0
H250 H 0.55571 0.42935 0.68855 0.0
H251 H 0.66729 0.54313 0.67512 0.0
H252 H 0.62845 0.55753 0.62058 0.0
H253 H 0.5762 0.44229 0.60986 0.0
C254 C 0.62421 0.42304 0.74985 0.0
C255 C 0.63633 0.44575 0.78248 0.0
C256 C 0.6556 0.48229 0.779 0.0
C257 C 0.6616 0.49661 0.74322 0.0
C258 C 0.64897 0.47363 0.71127 0.0
C259 C 0.63036 0.43765 0.71435 0.0
C260 C 0.61333 0.42126 0.67656 0.0
C261 C 0.63483 0.3902 0.66183 0.0
C262 C 0.57125 0.40651 0.67879 0.0
C263 C 0.62041 0.45551 0.65297 0.0
C264 C 0.64378 0.48441 0.67263 0.0
C265 C 0.64975 0.52054 0.65917 0.0
C266 C 0.62792 0.52843 0.62765 0.0
C267 C 0.59929 0.50083 0.61178 0.0
C268 C 0.5987 0.46328 0.62132 0.0
H269 H 0.96257 0.52398 0.32242 0.0
H270 H 0.90744 0.61769 0.28827 0.0
H271 H 0.91511 0.6004 0.2212 0.0
H272 H 0.03128 0.53465 0.2576 0.0
H273 H 0.0326 0.48513 0.24962 0.0
H274 H 0.01758 0.5023 0.29376 0.0
H275 H 0.95548 0.45648 0.28378 0.0
H276 H 0.97019 0.4398 0.23905 0.0
H277 H 0.9263 0.45806 0.24139 0.0
H278 H 0.93822 0.57849 0.15802 0.0
H279 H 0.97702 0.55635 0.10789 0.0
H280 H 0.01219 0.47457 0.18312 0.0
C281 C 0.95149 0.54041 0.30073 0.0
C282 C 0.9347 0.57223 0.31069 0.0
C283 C 0.92069 0.59328 0.28155 0.0
C284 C 0.92465 0.58347 0.24324 0.0
C285 C 0.94206 0.55222 0.23442 0.0
C286 C 0.95502 0.5309 0.26252 0.0
C287 C 0.97599 0.50099 0.24632 0.0
C288 C 0.01675 0.50611 0.26278 0.0
C289 C 0.95576 0.46149 0.25302 0.0
C290 C 0.97405 0.50958 0.20482 0.0
C291 C 0.95405 0.53892 0.19816 0.0
C292 C 0.95312 0.55488 0.1627 0.0
C293 C 0.97489 0.54196 0.13416 0.0
C294 C 0.99715 0.51356 0.14156 0.0
C295 C 0.99478 0.49588 0.17651 0.0
H296 H 0.25759 0.05539 0.07156 0.0
H297 H 0.2972 0.13876 0.16121 0.0
H298 H 0.36187 0.12609 0.15331 0.0
H299 H 0.3265 0.99071 0.09601 0.0
H300 H 0.33222 0.97696 0.04746 0.0
H301 H 0.28822 0.99005 0.06145 0.0
H302 H 0.29182 0.04041 0.01109 0.0
H303 H 0.33548 0.02713 0.99671 0.0
H304 H 0.33285 0.0753 0.01082 0.0
H305 H 0.42244 0.10418 0.13682 0.0
H306 H 0.47604 0.08358 0.10579 0.0
H307 H 0.40059 0.01771 0.02204 0.0
C308 C 0.27994 0.07094 0.08956 0.0
C309 C 0.27184 0.09832 0.11701 0.0
C310 C 0.30207 0.11781 0.14 0.0
C311 C 0.3391 0.11056 0.13584 0.0
C312 C 0.34598 0.08342 0.10876 0.0
C313 C 0.31734 0.06408 0.08568 0.0
C314 C 0.33299 0.03742 0.05776 0.0
C315 C 0.31914 0.99635 0.06615 0.0
C316 C 0.32268 0.04559 0.01666 0.0
C317 C 0.37512 0.04671 0.06705 0.0
C318 C 0.38151 0.07205 0.09781 0.0
C319 C 0.41762 0.08439 0.11276 0.0
C320 C 0.44802 0.07206 0.09508 0.0
C321 C 0.44298 0.0484 0.06172 0.0
C322 C 0.40567 0.03493 0.04795 0.0
H323 H 0.2932 0.95743 0.66439 0.0
H324 H 0.32817 0.93236 0.55155 0.0
H325 H 0.26798 0.94667 0.52458 0.0
H326 H 0.19767 0.92218 0.65118 0.0
H327 H 0.18178 0.95971 0.67832 0.0
H328 H 0.22748 0.94701 0.68886 0.0
H329 H 0.25786 0.01553 0.68002 0.0
H330 H 0.21219 0.02854 0.66983 0.0
H331 H 0.24833 0.03773 0.63657 0.0
H332 H 0.20101 0.9612 0.51002 0.0
H333 H 0.13782 0.98112 0.50967 0.0
H334 H 0.15064 1.00121 0.63137 0.0
C335 C 0.28895 0.95561 0.63394 0.0
C336 C 0.3159 0.94312 0.61044 0.0
C337 C 0.308 0.94077 0.57064 0.0
C338 C 0.27382 0.94913 0.55486 0.0
C339 C 0.2478 0.96064 0.579 0.0
C340 C 0.25539 0.9646 0.61764 0.0
C341 C 0.22342 0.9786 0.6375 0.0
C342 C 0.20661 0.95017 0.66561 0.0
C343 C 0.23622 0.0174 0.65713 0.0
C344 C 0.19632 0.98117 0.60415 0.0
C345 C 0.21058 0.97054 0.57056 0.0
C346 C 0.18979 0.96992 0.5362 0.0
C347 C 0.15382 0.98105 0.53625 0.0
C348 C 0.13923 0.99297 0.57039 0.0
C349 C 0.16094 0.99265 0.60464 0.0
H350 H 0.76291 0.37393 0.90453 0.0
H351 H 0.70785 0.43859 0.98454 0.0
H352 H 0.76911 0.45862 0.0201 0.0
H353 H 0.82751 0.33995 0.96824 0.0
H354 H 0.865 0.34487 0.93606 0.0
H355 H 0.81707 0.3363 0.91787 0.0
H356 H 0.82746 0.39616 0.87887 0.0
H357 H 0.87562 0.40431 0.89616 0.0
H358 H 0.84631 0.44043 0.90245 0.0
H359 H 0.83921 0.47382 0.04382 0.0
H360 H 0.9089 0.48485 0.05027 0.0
H361 H 0.91318 0.40444 0.95718 0.0
C362 C 0.76383 0.39213 0.92974 0.0
C363 C 0.73122 0.40461 0.94233 0.0
C364 C 0.73296 0.42875 0.97492 0.0
C365 C 0.76746 0.44006 0.99516 0.0
C366 C 0.79936 0.42663 0.98225 0.0
C367 C 0.79756 0.40334 0.95004 0.0
C368 C 0.83533 0.39372 0.94051 0.0
C369 C 0.83625 0.35117 0.94071 0.0
C370 C 0.84685 0.40961 0.90227 0.0
C371 C 0.85888 0.4142 0.97299 0.0
C372 C 0.83819 0.43368 0.99663 0.0
C373 C 0.8555 0.45798 0.026 0.0
C374 C 0.89499 0.46363 0.02995 0.0
C375 C 0.91612 0.44469 1.00481 0.0
C376 C 0.89757 0.4184 0.97747 0.0
H377 H 0.83045 0.56727 0.45186 0.0
H378 H 0.83177 0.6867 0.47486 0.0
H379 H 0.77061 0.67417 0.50326 0.0
H380 H 0.73692 0.54848 0.42141 0.0
H381 H 0.7282 0.50315 0.44179 0.0
H382 H 0.77464 0.52121 0.42903 0.0
H383 H 0.79937 0.51276 0.49763 0.0
H384 H 0.75259 0.49547 0.5107 0.0
H385 H 0.77935 0.53506 0.53666 0.0
H386 H 0.70739 0.65002 0.52382 0.0
H387 H 0.64287 0.61644 0.52596 0.0
H388 H 0.68134 0.51337 0.4877 0.0
C389 C 0.81801 0.59067 0.46331 0.0
C390 C 0.83624 0.62783 0.462 0.0
C391 C 0.81884 0.65786 0.47668 0.0
C392 C 0.78413 0.65106 0.49295 0.0
C393 C 0.7671 0.6141 0.49434 0.0
C394 C 0.78322 0.58439 0.47957 0.0
C395 C 0.75711 0.54783 0.48073 0.0
C396 C 0.74871 0.52911 0.44087 0.0
C397 C 0.77307 0.52121 0.50806 0.0
C398 C 0.72307 0.56207 0.4962 0.0
C399 C 0.72985 0.60015 0.50522 0.0
C400 C 0.7018 0.62008 0.51746 0.0
C401 C 0.66536 0.60085 0.51881 0.0
C402 C 0.6576 0.56255 0.50706 0.0
C403 C 0.68696 0.54269 0.49712 0.0
H404 H 0.14695 0.22271 0.08822 0.0
H405 H 0.11165 0.23574 0.20334 0.0
H406 H 0.08157 0.28878 0.18582 0.0
H407 H 0.17303 0.32232 0.07908 0.0
H408 H 0.15782 0.32311 0.02998 0.0
H409 H 0.17226 0.28112 0.04834 0.0
H410 H 0.10879 0.24345 0.02473 0.0
H411 H 0.09401 0.28544 0.00654 0.0
H412 H 0.06594 0.25851 0.03949 0.0
H413 H 0.05422 0.34021 0.15884 0.0
H414 H 0.04354 0.39754 0.1275 0.0
H415 H 0.10345 0.36409 0.03129 0.0
C416 C 0.13265 0.23641 0.10975 0.0
C417 C 0.13013 0.2221 0.14698 0.0
C418 C 0.11207 0.24275 0.17398 0.0
C419 C 0.09502 0.27391 0.16445 0.0
C420 C 0.09694 0.28624 0.12786 0.0
C421 C 0.11617 0.26914 0.10099 0.0
C422 C 0.11696 0.29189 0.06504 0.0
C423 C 0.15744 0.30543 0.05503 0.0
C424 C 0.09514 0.26842 0.03198 0.0
C425 C 0.09659 0.32495 0.07696 0.0
C426 C 0.0841 0.3196 0.11289 0.0
C427 C 0.06403 0.34487 0.13077 0.0
C428 C 0.05783 0.3774 0.1125 0.0
C429 C 0.07213 0.38565 0.07674 0.0
C430 C 0.09139 0.35851 0.05826 0.0
H431 H 0.68749 0.28254 0.93717 0.0
H432 H 0.5901 0.2927 0.86335 0.0
H433 H 0.57079 0.22469 0.86506 0.0
H434 H 0.7037 0.18802 0.91041 0.0
H435 H 0.71211 0.17627 0.95877 0.0
H436 H 0.72355 0.22407 0.9451 0.0
H437 H 0.68168 0.24731 0.99616 0.0
H438 H 0.67194 0.20001 0.01097 0.0
H439 H 0.63386 0.22514 0.99775 0.0
H440 H 0.55806 0.15704 0.87962 0.0
H441 H 0.54263 0.10324 0.91981 0.0
H442 H 0.64401 0.13839 0.98881 0.0
C443 C 0.66194 0.27109 0.92131 0.0
C444 C 0.64096 0.29376 0.89946 0.0
C445 C 0.60782 0.27635 0.87921 0.0
C446 C 0.59652 0.23748 0.87993 0.0
C447 C 0.61816 0.21619 0.90153 0.0
C448 C 0.64948 0.23273 0.92283 0.0
C449 C 0.6636 0.2056 0.9497 0.0
C450 C 0.70309 0.19804 0.9404 0.0
C451 C 0.66267 0.22037 0.99106 0.0
C452 C 0.6348 0.17121 0.94077 0.0
C453 C 0.60964 0.17744 0.91184 0.0
C454 C 0.57788 0.15159 0.90185 0.0
C455 C 0.56965 0.12057 0.92436 0.0
C456 C 0.59239 0.11674 0.95705 0.0
C457 C 0.62699 0.14018 0.96314 0.0
H458 H 0.96295 0.73562 0.40645 0.0
H459 H 0.95348 0.69729 0.52056 0.0
H460 H 0.97373 0.76218 0.546 0.0
H461 H 0.04505 0.81098 0.42636 0.0
H462 H 0.02547 0.84086 0.39345 0.0
H463 H 0.01683 0.7906 0.38548 0.0
H464 H 0.94537 0.79335 0.38203 0.0
H465 H 0.95361 0.84331 0.39075 0.0
H466 H 0.92451 0.81432 0.42131 0.0
H467 H 0.9821 0.83431 0.55769 0.0
H468 H 0.9837 0.9035 0.55315 0.0
H469 H 0.99357 0.89126 0.43214 0.0
C470 C 0.96705 0.74033 0.4368 0.0
C471 C 0.95661 0.71128 0.46137 0.0
C472 C 0.96111 0.71918 0.50105 0.0
C473 C 0.97264 0.75598 0.51582 0.0
C474 C 0.98052 0.78446 0.49059 0.0
C475 C 0.97875 0.77668 0.45189 0.0
C476 C 0.98479 0.81211 0.43034 0.0
C477 C 0.02016 0.81372 0.40757 0.0
C478 C 0.95002 0.81598 0.40463 0.0
C479 C 0.98986 0.84109 0.46272 0.0
C480 C 0.987 0.82507 0.49744 0.0
C481 C 0.98571 0.84713 0.53072 0.0
C482 C 0.98684 0.88636 0.52809 0.0
C483 C 0.98941 0.90266 0.49249 0.0
C484 C 0.99219 0.87965 0.45991 0.0
H485 H 0.47295 0.8134 0.53543 0.0
H486 H 0.41716 0.79536 0.64072 0.0
H487 H 0.42592 0.72925 0.6368 0.0
H488 H 0.43955 0.71879 0.49032 0.0
H489 H 0.48347 0.71412 0.4697 0.0
H490 H 0.46962 0.75998 0.47703 0.0
H491 H 0.53142 0.78234 0.51624 0.0
H492 H 0.54559 0.73675 0.50868 0.0
H493 H 0.54393 0.75616 0.55614 0.0
H494 H 0.436 0.66595 0.62122 0.0
H495 H 0.46283 0.60943 0.60532 0.0
H496 H 0.52269 0.66584 0.51499 0.0
C497 C 0.46218 0.79524 0.55728 0.0
C498 C 0.44266 0.80937 0.58743 0.0
C499 C 0.43057 0.78518 0.61644 0.0
C500 C 0.4354 0.74741 0.61448 0.0
C501 C 0.45329 0.7341 0.58386 0.0
C502 C 0.46755 0.75714 0.55623 0.0
C503 C 0.48896 0.7354 0.52868 0.0
C504 C 0.46924 0.73189 0.48908 0.0
C505 C 0.52992 0.75376 0.52739 0.0
C506 C 0.48583 0.6972 0.5465 0.0
C507 C 0.46344 0.69723 0.57717 0.0
C508 C 0.45422 0.66572 0.59781 0.0
C509 C 0.46981 0.63368 0.58843 0.0
C510 C 0.49595 0.63331 0.55965 0.0
C511 C 0.50311 0.6652 0.53728 0.0
H512 H 0.90427 0.94803 0.8052 0.0
H513 H 0.9425 0.83871 0.80554 0.0
H514 H 0.96697 0.84936 0.74257 0.0
H515 H 0.87086 0.93908 0.7069 0.0
H516 H 0.88372 0.98832 0.69932 0.0
H517 H 0.87111 0.97317 0.74552 0.0
H518 H 0.93442 0.00714 0.77485 0.0
H519 H 0.94686 0.02299 0.72897 0.0
H520 H 0.97747 0.997 0.75558 0.0
H521 H 0.98865 0.87349 0.67704 0.0
H522 H 0.0072 0.90992 0.62106 0.0
H523 H 0.94812 0.99883 0.66147 0.0
C524 C 0.91685 0.92552 0.79229 0.0
C525 C 0.92054 0.89205 0.81159 0.0
C526 C 0.93919 0.86488 0.79272 0.0
C527 C 0.95297 0.87047 0.75628 0.0
C528 C 0.94756 0.90313 0.73796 0.0
C529 C 0.92984 0.93013 0.75556 0.0
C530 C 0.92692 0.96269 0.73002 0.0
C531 C 0.8857 0.96601 0.71985 0.0
C532 C 0.94767 0.99962 0.74845 0.0
C533 C 0.94636 0.95031 0.69551 0.0
C534 C 0.95809 0.91581 0.70035 0.0
C535 C 0.9787 0.90009 0.67281 0.0
C536 C 0.98852 0.92064 0.64049 0.0
C537 C 0.97755 0.95652 0.63554 0.0
C538 C 0.95544 0.97076 0.6633 0.0
H539 H 0.64432 0.15366 0.29077 0.0
H540 H 0.67726 0.04848 0.32712 0.0
H541 H 0.6569 0.01904 0.26454 0.0
H542 H 0.55899 0.10763 0.23878 0.0
H543 H 0.56212 0.14248 0.20344 0.0
H544 H 0.58011 0.15515 0.25112 0.0
H545 H 0.64482 0.18005 0.22592 0.0
H546 H 0.62712 0.16723 0.17827 0.0
H547 H 0.66816 0.14937 0.19674 0.0
H548 H 0.63418 1.00136 0.19436 0.0
H549 H 0.60754 0.99768 0.12796 0.0
H550 H 0.58618 0.11299 0.14249 0.0
C551 C 0.64686 0.12428 0.28629 0.0
C552 C 0.66347 0.1041 0.31447 0.0
C553 C 0.66613 0.06555 0.30615 0.0
C554 C 0.65415 0.04819 0.27055 0.0
C555 C 0.63851 0.0692 0.24344 0.0
C556 C 0.6342 0.10623 0.25135 0.0
C557 C 0.61536 0.12256 0.21817 0.0
C558 C 0.57687 0.13253 0.22849 0.0
C559 C 0.64038 0.15681 0.20395 0.0
C560 C 0.61122 0.08955 0.18982 0.0
C561 C 0.62439 0.05876 0.2046 0.0
C562 C 0.62354 0.02535 0.18268 0.0
C563 C 0.60852 0.02348 0.14491 0.0
C564 C 0.59458 0.05485 0.12954 0.0
C565 C 0.59631 0.08813 0.15278 0.0
H566 H 0.42526 0.58758 0.26218 0.0
H567 H 0.46598 0.70537 0.28602 0.0
H568 H 0.47816 0.69267 0.35336 0.0
H569 H 0.3829 0.56593 0.35392 0.0
H570 H 0.3995 0.52099 0.35472 0.0
H571 H 0.38793 0.54026 0.31019 0.0
H572 H 0.4544 0.53514 0.28713 0.0
H573 H 0.46521 0.51434 0.33069 0.0
H574 H 0.49474 0.55549 0.31651 0.0
H575 H 0.49836 0.66529 0.4127 0.0
H576 H 0.52889 0.62509 0.45575 0.0
H577 H 0.46795 0.52625 0.39746 0.0
C578 C 0.43591 0.61073 0.2819 0.0
C579 C 0.44481 0.64736 0.2694 0.0
C580 C 0.45916 0.67709 0.29549 0.0
C581 C 0.46575 0.67017 0.33369 0.0
C582 C 0.45712 0.6335 0.34524 0.0
C583 C 0.44256 0.60428 0.31999 0.0
C584 C 0.44093 0.56677 0.33786 0.0
C585 C 0.40038 0.54737 0.33927 0.0
C586 C 0.46527 0.5415 0.31683 0.0
C587 C 0.45762 0.57925 0.37697 0.0
C588 C 0.46669 0.61793 0.38085 0.0
C589 C 0.49003 0.63519 0.41089 0.0
C590 C 0.50687 0.61227 0.43567 0.0
C591 C 0.49953 0.57288 0.43035 0.0
C592 C 0.47224 0.55641 0.40294 0.0
H593 H 0.10685 0.36867 0.75722 0.0
H594 H 0.11643 0.4819 0.71643 0.0
H595 H 0.12014 0.50723 0.78195 0.0
H596 H 0.04196 0.38562 0.82543 0.0
H597 H 0.05911 0.35453 0.85869 0.0
H598 H 0.06404 0.34653 0.80896 0.0
H599 H 0.13556 0.34806 0.82251 0.0
H600 H 0.13078 0.35793 0.87221 0.0
H601 H 0.16248 0.38906 0.84594 0.0
H602 H 0.12426 0.52078 0.85244 0.0
H603 H 0.10125 0.52173 0.91667 0.0
H604 H 0.0767 0.40062 0.91019 0.0
C605 C 0.10942 0.39881 0.76158 0.0
C606 C 0.11292 0.42305 0.73091 0.0
C607 C 0.11574 0.46238 0.73896 0.0
C608 C 0.11794 0.47723 0.77631 0.0
C609 C 0.11626 0.45254 0.8057 0.0
C610 C 0.1103 0.41416 0.79865 0.0
C611 C 0.1031 0.39372 0.83481 0.0
C612 C 0.06477 0.36866 0.8318 0.0
C613 C 0.13487 0.37082 0.84442 0.0
C614 C 0.10393 0.42668 0.86302 0.0
C615 C 0.11405 0.46026 0.84599 0.0
C616 C 0.11614 0.49464 0.86596 0.0
C617 C 0.10389 0.49484 0.903 0.0
C618 C 0.08688 0.46126 0.91829 0.0
C619 C 0.09016 0.42662 0.89949 0.0
H620 H 0.82439 0.91028 0.96766 0.0
H621 H 0.80599 0.92512 0.84716 0.0
H622 H 0.75516 0.96012 0.86032 0.0
H623 H 0.72521 0.88946 0.9815 0.0
H624 H 0.72804 0.91137 0.02833 0.0
H625 H 0.7677 0.89213 0.01082 0.0
H626 H 0.80882 0.9564 0.02442 0.0
H627 H 0.76904 0.97601 0.04139 0.0
H628 H 0.79499 0.99768 1.00378 0.0
H629 H 0.70489 0.9951 0.88522 0.0
H630 H 0.65026 0.01217 0.91808 0.0
H631 H 0.69107 0.9663 0.02058 0.0
C632 C 0.8101 0.92086 0.94378 0.0
C633 C 0.82238 0.91614 0.90621 0.0
C634 C 0.80075 0.93005 0.87653 0.0
C635 C 0.77074 0.94992 0.8836 0.0
C636 C 0.76053 0.95503 0.92059 0.0
C637 C 0.77863 0.93977 0.95014 0.0
C638 C 0.75848 0.94537 0.98658 0.0
C639 C 0.74399 0.90732 1.00275 0.0
C640 C 0.78439 0.97034 0.01578 0.0
C641 C 0.72615 0.96556 0.97253 0.0
C642 C 0.72884 0.972 0.93456 0.0
C643 C 0.70258 0.99025 0.91503 0.0
C644 C 0.67182 1.00057 0.93414 0.0
C645 C 0.66664 0.99196 0.97235 0.0
C646 C 0.69478 0.97469 0.99181 0.0
H647 H 0.79095 0.16088 0.43947 0.0
H648 H 0.71927 0.0537 0.42463 0.0
H649 H 0.76789 0.02274 0.45662 0.0
H650 H 0.87365 0.12922 0.41815 0.0
H651 H 0.90362 0.15824 0.45299 0.0
H652 H 0.86103 0.17336 0.43521 0.0
H653 H 0.83948 0.17969 0.50359 0.0
H654 H 0.88209 0.16432 0.52158 0.0
H655 H 0.83729 0.13998 0.53329 0.0
H656 H 0.8249 1.00216 0.48477 0.0
H657 H 0.88975 0.99157 0.49976 0.0
H658 H 0.92796 0.11053 0.49324 0.0
C659 C 0.78529 0.13107 0.44389 0.0
C660 C 0.7512 0.10968 0.42979 0.0
C661 C 0.7451 0.07059 0.43523 0.0
C662 C 0.77245 0.05282 0.45368 0.0
C663 C 0.80593 0.07444 0.46675 0.0
C664 C 0.81268 0.11268 0.462 0.0
C665 C 0.8527 0.12838 0.47528 0.0
C666 C 0.874 0.14845 0.44349 0.0
C667 C 0.8529 0.15467 0.51052 0.0
C668 C 0.86809 0.09258 0.4854 0.0
C669 C 0.83996 0.06215 0.4819 0.0
C670 C 0.847 0.02582 0.48827 0.0
C671 C 0.8839 0.0201 0.4971 0.0
C672 C 0.91361 0.05032 0.49876 0.0
C673 C 0.90555 0.08719 0.49352 0.0
H674 H 0.30115 0.66919 0.08075 0.0
H675 H 0.34519 0.57781 0.13573 0.0
H676 H 0.29352 0.53299 0.10534 0.0
H677 H 0.21076 0.64291 0.09349 0.0
H678 H 0.19273 0.65598 0.04833 0.0
H679 H 0.23713 0.67899 0.06764 0.0
H680 H 0.26848 0.66022 0.00664 0.0
H681 H 0.2239 0.63672 0.9872 0.0
H682 H 0.26357 0.61154 0.99086 0.0
H683 H 0.23323 0.49986 0.07619 0.0
H684 H 0.16591 0.48303 0.05898 0.0
H685 H 0.16033 0.59617 0.02472 0.0
C686 C 0.30076 0.6396 0.08534 0.0
C687 C 0.32734 0.62707 0.11049 0.0
C688 C 0.32502 0.58819 0.11678 0.0
C689 C 0.29609 0.56242 0.09915 0.0
C690 C 0.27005 0.57587 0.07485 0.0
C691 C 0.27219 0.6136 0.06793 0.0
C692 C 0.23823 0.62166 0.04475 0.0
C693 C 0.21855 0.65161 0.06479 0.0
C694 C 0.2492 0.63323 1.005 0.0
C695 C 0.21484 0.58331 0.04292 0.0
C696 C 0.23457 0.55684 0.05863 0.0
C697 C 0.21792 0.52006 0.0629 0.0
C698 C 0.17976 0.51064 0.05269 0.0
C699 C 0.15853 0.53816 0.03949 0.0
C700 C 0.17649 0.57446 0.03323 0.0
H701 H 0.25657 0.50048 0.61292 0.0
H702 H 0.23862 0.38123 0.58437 0.0
H703 H 0.29497 0.38843 0.54652 0.0
H704 H 0.30213 0.53152 0.52091 0.0
H705 H 0.33411 0.56735 0.54699 0.0
H706 H 0.28727 0.55467 0.56241 0.0
H707 H 0.31444 0.54123 0.62863 0.0
H708 H 0.36104 0.55376 0.61346 0.0
H709 H 0.34765 0.50835 0.63245 0.0
H710 H 0.35979 0.40601 0.52464 0.0
H711 H 0.42686 0.43239 0.52172 0.0
H712 H 0.40236 0.53983 0.56486 0.0
C713 C 0.26373 0.47629 0.59727 0.0
C714 C 0.24361 0.44036 0.60129 0.0
C715 C 0.25384 0.40899 0.58124 0.0
C716 C 0.28566 0.41289 0.55964 0.0
C717 C 0.30636 0.44848 0.55788 0.0
C718 C 0.29543 0.47978 0.57577 0.0
C719 C 0.32513 0.51369 0.57455 0.0
C720 C 0.31133 0.54357 0.54972 0.0
C721 C 0.33781 0.53015 0.61464 0.0
C722 C 0.35562 0.49591 0.55599 0.0
C723 C 0.34399 0.4586 0.54537 0.0
C724 C 0.36891 0.43545 0.53174 0.0
C725 C 0.40686 0.45054 0.53008 0.0
C726 C 0.41921 0.48803 0.54273 0.0
C727 C 0.39312 0.51118 0.55446 0.0
H728 H 0.95163 0.77175 0.00759 0.0
H729 H 0.90722 0.75278 0.8916 0.0
H730 H 0.93135 0.69213 0.88843 0.0
H731 H 0.03865 0.72507 0.99102 0.0
H732 H 0.039 0.70566 0.03715 0.0
H733 H 0.0212 0.74943 0.03033 0.0
H734 H 0.95892 0.72174 0.05811 0.0
H735 H 0.97632 0.67775 0.06446 0.0
H736 H 0.93309 0.67882 0.03728 0.0
H737 H 0.95003 0.6319 0.89927 0.0
H738 H 0.97348 0.57595 0.91701 0.0
H739 H 0.01469 0.62867 0.02672 0.0
C740 C 0.94803 0.75521 0.9812 0.0
C741 C 0.92737 0.76735 0.94953 0.0
C742 C 0.92298 0.74457 0.91588 0.0
C743 C 0.93642 0.70984 0.91401 0.0
C744 C 0.95518 0.69811 0.9458 0.0
C745 C 0.96217 0.72024 0.97854 0.0
C746 C 0.98354 0.69967 0.0081 0.0
C747 C 0.02294 0.72124 0.0172 0.0
C748 C 0.96164 0.69418 0.04413 0.0
C749 C 0.9857 0.66183 0.9872 0.0
C750 C 0.96884 0.66249 0.95141 0.0
C751 C 0.96447 0.63154 0.92666 0.0
C752 C 0.97849 0.59933 0.93756 0.0
C753 C 0.99796 0.5968 0.97325 0.0
C754 C 1.00099 0.62899 0.99896 0.0
H755 H 0.40609 0.79011 0.14271 0.0
H756 H 0.44541 0.70011 0.07783 0.0
H757 H 0.48872 0.7464 0.04606 0.0
H758 H 0.40403 0.85225 0.06784 0.0
H759 H 0.42013 0.89462 0.0961 0.0
H760 H 0.39535 0.85459 0.11754 0.0
H761 H 0.45073 0.85559 0.16687 0.0
H762 H 0.47588 0.89546 0.14521 0.0
H763 H 0.49711 0.85348 0.15093 0.0
H764 H 0.52774 0.79942 0.02322 0.0
H765 H 0.55148 0.85841 0.99603 0.0
H766 H 0.48266 0.91793 0.06809 0.0
C767 C 0.42397 0.7805 0.12179 0.0
C768 C 0.42276 0.74181 0.11245 0.0
C769 C 0.44606 0.72973 0.08497 0.0
C770 C 0.47101 0.75572 0.06726 0.0
C771 C 0.47198 0.7936 0.07726 0.0
C772 C 0.44864 0.8063 0.10309 0.0
C773 C 0.4533 0.84902 0.10538 0.0
C774 C 0.41598 0.86346 0.09613 0.0
C775 C 0.47025 0.86429 0.14442 0.0
C776 C 0.48117 0.85801 0.07499 0.0
C777 C 0.4927 0.82534 0.06096 0.0
C778 C 0.51858 0.82517 0.03344 0.0
C779 C 0.53166 0.85902 0.01805 0.0
C780 C 0.51783 0.89269 0.02895 0.0
C781 C 0.49337 0.89261 0.059 0.0
H782 H 0.06842 0.316 0.58613 0.0
H783 H 0.14255 0.30282 0.68288 0.0
H784 H 0.14013 0.23556 0.66481 0.0
H785 H 0.00684 0.23226 0.59381 0.0
H786 H 0.99998 0.22065 0.54376 0.0
H787 H 0.01216 0.26884 0.56021 0.0
H788 H 0.06915 0.27499 0.51786 0.0
H789 H 0.0575 0.22636 0.50195 0.0
H790 H 0.10329 0.24332 0.52315 0.0
H791 H 0.13633 0.17269 0.63166 0.0
H792 H 0.10834 0.11008 0.60722 0.0
H793 H 0.02217 0.15842 0.5445 0.0
C794 C 0.08386 0.2987 0.60348 0.0
C795 C 0.10589 0.31436 0.63579 0.0
C796 C 0.12564 0.29116 0.65807 0.0
C797 C 0.12495 0.2532 0.64763 0.0
C798 C 0.10399 0.23875 0.61505 0.0
C799 C 0.08243 0.26018 0.59419 0.0
C800 C 0.05866 0.23591 0.56344 0.0
C801 C 0.01691 0.23961 0.5655 0.0
C802 C 0.07296 0.24575 0.52428 0.0
C803 C 0.06716 0.1971 0.57323 0.0
C804 C 0.09631 0.20035 0.60035 0.0
C805 C 0.11278 0.16963 0.61122 0.0
C806 C 0.09694 0.13418 0.59656 0.0
C807 C 0.06226 0.12918 0.57497 0.0
C808 C 0.04827 0.16123 0.5613 0.0
H809 H 0.60219 0.25232 0.39971 0.0
H810 H 0.64765 0.23192 0.511 0.0
H811 H 0.62951 0.29169 0.53588 0.0
H812 H 0.63132 0.35356 0.40486 0.0
H813 H 0.5898 0.36305 0.37898 0.0
H814 H 0.6074 0.31928 0.37045 0.0
H815 H 0.54264 0.28325 0.38487 0.0
H816 H 0.52511 0.32696 0.39408 0.0
H817 H 0.52276 0.2922 0.42953 0.0
H818 H 0.6047 0.35431 0.54873 0.0
H819 H 0.58045 0.41538 0.54655 0.0
H820 H 0.55032 0.39305 0.42712 0.0
C821 C 0.60857 0.26068 0.42922 0.0
C822 C 0.62616 0.23744 0.45348 0.0
C823 C 0.63413 0.24928 0.49195 0.0
C824 C 0.62378 0.28311 0.50635 0.0
C825 C 0.60559 0.30499 0.48191 0.0
C826 C 0.59845 0.29436 0.44403 0.0
C827 C 0.57894 0.32292 0.42354 0.0
C828 C 0.60332 0.34076 0.39264 0.0
C829 C 0.54005 0.30526 0.40705 0.0
C830 C 0.57587 0.35105 0.45577 0.0
C831 C 0.59136 0.34041 0.48928 0.0
C832 C 0.59243 0.36279 0.52257 0.0
C833 C 0.57827 0.39734 0.52121 0.0
C834 C 0.56324 0.40921 0.48683 0.0
C835 C 0.56144 0.38505 0.45404 0.0
loop_
_geom_bond_atom_site_label_1
_geom_bond_atom_site_label_2
_geom_bond_distance
_geom_bond_site_symmetry_2
_ccdc_geom_bond_type
H0 C7 0.929 . S
H1 C10 0.930 . S
H2 C12 0.929 . S
H3 C4 0.969 . S
C4 H3 0.969 . S
C4 O5 1.550 . S
C4 H6 0.973 . S
O5 C4 1.550 . S
O5 C11 1.412 . S
H6 C4 0.973 . S
C7 H0 0.929 . S
C7 C8 1.400 . S
C7 C9 1.364 . S
C8 C7 1.400 . S
C8 C12 1.377 . S
C9 C7 1.364 . S
C9 C10 1.374 . S
C10 H1 0.930 . S
C10 C9 1.374 . S
C10 C11 1.383 . S
C11 O5 1.412 . S
C11 C10 1.383 . S
C11 C12 1.394 . S
C12 H2 0.929 . S
C12 C8 1.377 . S
C12 C11 1.394 . S
H13 C20 0.929 . S
H14 C23 0.930 . S
H15 C25 0.929 . S
H16 C17 0.969 . S
C17 H16 0.969 . S
C17 O18 1.550 . S
C17 H19 0.973 . S
O18 C17 1.550 . S
O18 C24 1.412 . S
H19 C17 0.973 . S
C20 H13 0.929 . S
C20 C21 1.400 . S
C20 C22 1.364 . S
C21 C20 1.400 . S
C21 C25 1.377 . S
C22 C20 1.364 . S
C22 C23 1.374 . S
C23 H14 0.930 . S
C23 C22 1.374 . S
C23 C24 1.383 . S
C24 O18 1.412 . S
C24 C23 1.383 . S
C24 C25 1.394 . S
C25 H15 0.929 . S
C25 C21 1.377 . S
C25 C24 1.394 . S
H26 C33 0.929 . S
H27 C36 0.930 . S
H28 C38 0.929 . S
H29 C30 0.969 . S
C30 H29 0.969 . S
C30 O31 1.550 . S
C30 H32 0.973 . S
O31 C30 1.550 . S
O31 C37 1.412 . S
H32 C30 0.973 . S
C33 H26 0.929 . S
C33 C34 1.400 . S
C33 C35 1.364 . S
C34 C33 1.400 . S
C34 C38 1.377 . S
C35 C33 1.364 . S
C35 C36 1.374 . S
C36 H27 0.930 . S
C36 C35 1.374 . S
C36 C37 1.383 . S
C37 O31 1.412 . S
C37 C36 1.383 . S
C37 C38 1.394 . S
C38 H28 0.929 . S
C38 C34 1.377 . S
C38 C37 1.394 . S
H39 C46 0.929 . S
H40 C49 0.930 . S
H41 C51 0.929 . S
H42 C43 0.969 . S
C43 H42 0.969 . S
C43 O44 1.550 . S
C43 H45 0.973 . S
O44 C43 1.550 . S
O44 C50 1.412 . S
H45 C43 0.973 . S
C46 H39 0.929 . S
C46 C47 1.400 . S
C46 C48 1.364 . S
C47 C46 1.400 . S
C47 C51 1.377 . S
C48 C46 1.364 . S
C48 C49 1.374 . S
C49 H40 0.930 . S
C49 C48 1.374 . S
C49 C50 1.383 . S
C50 O44 1.412 . S
C50 C49 1.383 . S
C50 C51 1.394 . S
C51 H41 0.929 . S
C51 C47 1.377 . S
C51 C50 1.394 . S
H52 C59 0.929 . S
H53 C62 0.930 . S
H54 C64 0.929 . S
H55 C56 0.969 . S
C56 H55 0.969 . S
C56 O57 1.550 . S
C56 H58 0.973 . S
O57 C56 1.550 . S
O57 C63 1.412 . S
H58 C56 0.973 . S
C59 H52 0.929 . S
C59 C60 1.400 . S
C59 C61 1.364 . S
C60 C59 1.400 . S
C60 C64 1.377 . S
C61 C59 1.364 . S
C61 C62 1.374 . S
C62 H53 0.930 . S
C62 C61 1.374 . S
C62 C63 1.383 . S
C63 O57 1.412 . S
C63 C62 1.383 . S
C63 C64 1.394 . S
C64 H54 0.929 . S
C64 C60 1.377 . S
C64 C63 1.394 . S
H65 C72 0.929 . S
H66 C75 0.930 . S
H67 C77 0.929 . S
H68 C69 0.969 . S
C69 H68 0.969 . S
C69 O70 1.550 . S
C69 H71 0.973 . S
O70 C69 1.550 . S
O70 C76 1.412 . S
H71 C69 0.973 . S
C72 H65 0.929 . S
C72 C73 1.400 . S
C72 C74 1.364 . S
C73 C72 1.400 . S
C73 C77 1.377 . S
C74 C72 1.364 . S
C74 C75 1.374 . S
C75 H66 0.930 . S
C75 C74 1.374 . S
C75 C76 1.383 . S
C76 O70 1.412 . S
C76 C75 1.383 . S
C76 C77 1.394 . S
C77 H67 0.929 . S
C77 C73 1.377 . S
C77 C76 1.394 . S
H78 C85 0.929 . S
H79 C88 0.930 . S
H80 C90 0.929 . S
H81 C82 0.969 . S
C82 H81 0.969 . S
C82 O83 1.550 . S
C82 H84 0.973 . S
O83 C82 1.550 . S
O83 C89 1.412 . S
H84 C82 0.973 . S
C85 H78 0.929 . S
C85 C86 1.400 . S
C85 C87 1.364 . S
C86 C85 1.400 . S
C86 C90 1.377 . S
C87 C85 1.364 . S
C87 C88 1.374 . S
C88 H79 0.930 . S
C88 C87 1.374 . S
C88 C89 1.383 . S
C89 O83 1.412 . S
C89 C88 1.383 . S
C89 C90 1.394 . S
C90 H80 0.929 . S
C90 C86 1.377 . S
C90 C89 1.394 . S
H91 C98 0.929 . S
H92 C101 0.930 . S
H93 C103 0.929 . S
H94 C95 0.969 . S
C95 H94 0.969 . S
C95 O96 1.550 . S
C95 H97 0.973 . S
O96 C95 1.550 . S
O96 C102 1.412 . S
H97 C95 0.973 . S
C98 H91 0.929 . S
C98 C99 1.400 . S
C98 C100 1.364 . S
C99 C98 1.400 . S
C99 C103 1.377 . S
C100 C98 1.364 . S
C100 C101 1.374 . S
C101 H92 0.930 . S
C101 C100 1.374 . S
C101 C102 1.383 . S
C102 O96 1.412 . S
C102 C101 1.383 . S
C102 C103 1.394 . S
C103 H93 0.929 . S
C103 C99 1.377 . S
C103 C102 1.394 . S
O104 Mn105 2.163 1_655 S
O104 C118 1.244 . S
Mn105 O104 2.163 1_455 S
Mn105 O108 2.160 1_545 S
Mn105 O109 2.221 . S
Mn105 O111 2.163 1_445 S
Mn105 O113 2.160 . S
Mn105 O123 2.221 1_445 S
O106 Mn107 2.087 1_545 S
O106 C118 1.256 . S
Mn107 O106 2.087 1_565 S
Mn107 O114 2.107 1_565 S
Mn107 O123 2.290 . S
Mn107 O124 2.251 . S
O108 Mn105 2.160 1_565 S
O108 C119 1.239 . S
O109 Mn105 2.221 . S
O109 Mn110 2.290 . S
O109 C120 1.278 . S
Mn110 O109 2.290 . S
Mn110 O112 2.089 . S
Mn110 O115 2.251 . S
Mn110 O116 2.087 . S
O111 Mn105 2.163 1_665 S
O111 C121 1.244 . S
O112 Mn110 2.089 . S
O112 C119 1.256 1_545 S
O113 Mn105 2.160 . S
O113 C122 1.239 . S
O114 Mn107 2.107 1_545 S
O114 C122 1.230 1_655 S
O115 Mn110 2.251 . S
O115 C120 1.241 . S
O116 Mn110 2.087 . S
O116 C121 1.256 1_445 S
C117 O123 1.278 . S
C117 O124 1.241 . S
C118 O104 1.244 . S
C118 O106 1.256 . S
C119 O108 1.239 . S
C119 O112 1.256 1_565 S
C120 O109 1.278 . S
C120 O115 1.241 . S
C121 O111 1.244 . S
C121 O116 1.256 1_665 S
C122 O113 1.239 . S
C122 O114 1.230 1_455 S
O123 Mn105 2.221 1_665 S
O123 Mn107 2.290 . S
O123 C117 1.278 . S
O124 Mn107 2.251 . S
O124 C117 1.241 . S
O125 Mn126 2.163 1_556 S
O125 C139 1.244 1_545 S
Mn126 O125 2.163 1_554 S
Mn126 O129 2.160 . S
Mn126 O130 2.221 1_554 S
Mn126 O132 2.163 . S
Mn126 O134 2.160 1_554 S
Mn126 O144 2.221 1_545 S
O127 Mn128 2.087 . S
O127 C139 1.256 . S
Mn128 O127 2.087 . S
Mn128 O135 2.089 . S
Mn128 O144 2.290 1_556 S
Mn128 O145 2.251 1_556 S
O129 Mn126 2.160 . S
O129 C140 1.239 . S
O130 Mn126 2.221 1_556 S
O130 Mn131 2.290 1_556 S
O130 C141 1.278 . S
Mn131 O130 2.290 1_554 S
Mn131 O133 2.089 . S
Mn131 O136 2.251 1_554 S
Mn131 O137 2.087 . S
O132 Mn126 2.163 . S
O132 C142 1.244 . S
O133 Mn131 2.089 . S
O133 C140 1.256 . S
O134 Mn126 2.160 1_556 S
O134 C143 1.239 1_545 S
O135 Mn128 2.089 . S
O135 C143 1.256 . S
O136 Mn131 2.251 1_556 S
O136 C141 1.241 . S
O137 Mn131 2.087 . S
O137 C142 1.256 . S
C138 O144 1.278 . S
C138 O145 1.241 . S
C139 O125 1.244 1_565 S
C139 O127 1.256 . S
C140 O129 1.239 . S
C140 O133 1.256 . S
C141 O130 1.278 . S
C141 O136 1.241 . S
C142 O132 1.244 . S
C142 O137 1.256 . S
C143 O134 1.239 1_565 S
C143 O135 1.256 . S
O144 Mn126 2.221 1_565 S
O144 Mn128 2.290 1_554 S
O144 C138 1.278 . S
O145 Mn128 2.251 1_554 S
O145 C138 1.241 . S
O146 Mn147 2.163 . S
O146 C160 1.244 . S
Mn147 O146 2.163 . S
Mn147 O150 2.160 . S
Mn147 O151 2.221 . S
Mn147 O153 2.163 . S
Mn147 O155 2.160 . S
Mn147 O165 2.221 . S
O148 Mn149 2.087 . S
O148 C160 1.256 . S
Mn149 O148 2.087 . S
Mn149 O156 2.089 . S
Mn149 O165 2.290 . S
Mn149 O166 2.251 . S
O150 Mn147 2.160 . S
O150 C161 1.239 . S
O151 Mn147 2.221 . S
O151 Mn152 2.290 . S
O151 C162 1.278 . S
Mn152 O151 2.290 . S
Mn152 O154 2.089 . S
Mn152 O157 2.251 . S
Mn152 O158 2.087 . S
O153 Mn147 2.163 . S
O153 C163 1.244 . S
O154 Mn152 2.089 . S
O154 C161 1.256 . S
O155 Mn147 2.160 . S
O155 C164 1.239 . S
O156 Mn149 2.089 . S
O156 C164 1.256 . S
O157 Mn152 2.251 . S
O157 C162 1.241 . S
O158 Mn152 2.087 . S
O158 C163 1.256 . S
C159 O165 1.278 . S
C159 O166 1.241 . S
C160 O146 1.244 . S
C160 O148 1.256 . S
C161 O150 1.239 . S
C161 O154 1.256 . S
C162 O151 1.278 . S
C162 O157 1.241 . S
C163 O153 1.244 . S
C163 O158 1.256 . S
C164 O155 1.239 . S
C164 O156 1.256 . S
O165 Mn147 2.221 . S
O165 Mn149 2.290 . S
O165 C159 1.278 . S
O166 Mn149 2.251 . S
O166 C159 1.241 . S
O167 Mn168 2.163 1_655 S
O167 C181 1.244 1_554 S
Mn168 O167 2.163 1_455 S
Mn168 O171 2.160 . S
Mn168 O172 2.221 . S
Mn168 O174 2.163 . S
Mn168 O176 2.160 . S
Mn168 O186 2.221 1_554 S
O169 Mn170 2.087 . S
O169 C181 1.256 . S
Mn170 O169 2.087 . S
Mn170 O177 2.089 . S
Mn170 O186 2.290 1_655 S
Mn170 O187 2.251 1_655 S
O171 Mn168 2.160 . S
O171 C182 1.239 . S
O172 Mn168 2.221 . S
O172 Mn173 2.290 . S
O172 C183 1.286 . S
Mn173 O172 2.290 . S
Mn173 O175 2.089 . S
Mn173 O178 2.251 . S
Mn173 O179 2.087 . S
O174 Mn168 2.163 . S
O174 C184 1.244 . S
O175 Mn173 2.089 . S
O175 C182 1.256 . S
O176 Mn168 2.160 . S
O176 C185 1.239 1_554 S
O177 Mn170 2.089 . S
O177 C185 1.256 1_655 S
O178 Mn173 2.251 . S
O178 C183 1.244 . S
O179 Mn173 2.087 . S
O179 C184 1.256 . S
C180 O186 1.278 . S
C180 O187 1.241 . S
C181 O167 1.244 1_556 S
C181 O169 1.256 . S
C182 O171 1.239 . S
C182 O175 1.256 . S
C183 O172 1.286 . S
C183 O178 1.244 . S
C184 O174 1.244 . S
C184 O179 1.256 . S
C185 O176 1.239 1_556 S
C185 O177 1.256 1_455 S
O186 Mn168 2.221 1_556 S
O186 Mn170 2.290 1_455 S
O186 C180 1.278 . S
O187 Mn170 2.251 1_455 S
O187 C180 1.241 . S
H188 C200 0.930 . S
H189 C202 0.930 . S
H190 C203 0.930 . S
H191 C207 0.959 . S
H192 C207 0.959 1_565 S
H193 C207 0.963 . S
H194 C208 0.960 . S
H195 C208 0.961 . S
H196 C208 0.959 . S
H197 C211 0.929 . S
H198 C212 0.931 . S
H199 C214 0.930 . S
C200 H188 0.930 . S
C200 C201 1.399 . S
C200 C205 1.399 . S
C201 C200 1.399 . S
C201 C202 1.376 . S
C202 H189 0.930 . S
C202 C201 1.376 . S
C202 C203 1.388 . S
C203 H190 0.930 . S
C203 C202 1.388 . S
C203 C204 1.390 . S
C204 C203 1.390 . S
C204 C205 1.394 . S
C204 C210 1.465 . S
C205 C200 1.399 . S
C205 C204 1.394 . S
C205 C206 1.516 . S
C206 C205 1.516 . S
C206 C207 1.502 . S
C206 C208 1.561 . S
C206 C209 1.526 . S
C207 H191 0.959 . S
C207 H192 0.959 1_545 S
C207 H193 0.963 . S
C207 C206 1.502 . S
C208 H194 0.960 . S
C208 H195 0.961 . S
C208 H196 0.959 . S
C208 C206 1.561 . S
C209 C206 1.526 . S
C209 C210 1.396 . S
C209 C214 1.390 . S
C210 C204 1.465 . S
C210 C209 1.396 . S
C210 C211 1.399 . S
C211 H197 0.929 . S
C211 C210 1.399 . S
C211 C212 1.385 . S
C212 H198 0.931 . S
C212 C211 1.385 . S
C212 C213 1.389 . S
C213 C212 1.389 . S
C213 C214 1.387 . S
C214 H199 0.930 . S
C214 C209 1.390 . S
C214 C213 1.387 . S
H215 C227 0.930 . S
H216 C229 0.930 . S
H217 C230 0.930 . S
H218 C234 0.959 1_565 S
H219 C234 0.959 . S
H220 C234 0.961 . S
H221 C235 0.960 . S
H222 C235 0.961 . S
H223 C235 0.959 . S
H224 C238 0.929 . S
H225 C239 0.931 . S
H226 C241 0.939 . S
C227 H215 0.930 . S
C227 C228 1.399 . S
C227 C232 1.399 . S
C228 C227 1.399 . S
C228 C229 1.376 . S
C229 H216 0.930 . S
C229 C228 1.376 . S
C229 C230 1.388 . S
C230 H217 0.930 . S
C230 C229 1.388 . S
C230 C231 1.390 . S
C231 C230 1.390 . S
C231 C232 1.394 . S
C231 C237 1.465 . S
C232 C227 1.399 . S
C232 C231 1.394 . S
C232 C233 1.516 1_565 S
C233 C232 1.516 1_545 S
C233 C234 1.502 . S
C233 C235 1.561 . S
C233 C236 1.526 1_545 S
C234 H218 0.959 1_545 S
C234 H219 0.959 . S
C234 H220 0.961 . S
C234 C233 1.502 . S
C235 H221 0.960 . S
C235 H222 0.961 . S
C235 H223 0.959 . S
C235 C233 1.561 . S
C236 C233 1.526 1_565 S
C236 C237 1.396 . S
C236 C241 1.387 1_565 S
C237 C231 1.465 . S
C237 C236 1.396 . S
C237 C238 1.399 . S
C238 H224 0.929 . S
C238 C237 1.399 . S
C238 C239 1.385 . S
C239 H225 0.931 . S
C239 C238 1.385 . S
C239 C240 1.389 . S
C240 C239 1.389 . S
C240 C241 1.381 1_565 S
C241 H226 0.939 . S
C241 C236 1.387 1_545 S
C241 C240 1.381 1_545 S
H242 C254 0.930 . S
H243 C256 0.930 . S
H244 C257 0.930 . S
H245 C261 0.959 . S
H246 C261 0.959 . S
H247 C261 0.961 . S
H248 C262 0.960 . S
H249 C262 0.961 . S
H250 C262 0.959 . S
H251 C265 0.929 . S
H252 C266 0.931 . S
H253 C268 0.930 . S
C254 H242 0.930 . S
C254 C255 1.399 . S
C254 C259 1.399 . S
C255 C254 1.399 . S
C255 C256 1.376 . S
C256 H243 0.930 . S
C256 C255 1.376 . S
C256 C257 1.388 . S
C257 H244 0.930 . S
C257 C256 1.388 . S
C257 C258 1.390 . S
C258 C257 1.390 . S
C258 C259 1.394 . S
C258 C264 1.465 . S
C259 C254 1.399 . S
C259 C258 1.394 . S
C259 C260 1.516 . S
C260 C259 1.516 . S
C260 C261 1.502 . S
C260 C262 1.561 . S
C260 C263 1.526 . S
C261 H245 0.959 . S
C261 H246 0.959 . S
C261 H247 0.961 . S
C261 C260 1.502 . S
C262 H248 0.960 . S
C262 H249 0.961 . S
C262 H250 0.959 . S
C262 C260 1.561 . S
C263 C260 1.526 . S
C263 C264 1.396 . S
C263 C268 1.390 . S
C264 C258 1.465 . S
C264 C263 1.396 . S
C264 C265 1.399 . S
C265 H251 0.929 . S
C265 C264 1.399 . S
C265 C266 1.385 . S
C266 H252 0.931 . S
C266 C265 1.385 . S
C266 C267 1.389 . S
C267 C266 1.389 . S
C267 C268 1.387 . S
C268 H253 0.930 . S
C268 C263 1.390 . S
C268 C267 1.387 . S
H269 C281 0.930 . S
H270 C283 0.930 . S
H271 C284 0.930 . S
H272 C288 0.959 . S
H273 C288 0.959 . S
H274 C288 0.961 . S
H275 C289 0.960 . S
H276 C289 0.961 . S
H277 C289 0.959 . S
H278 C292 0.929 . S
H279 C293 0.931 . S
H280 C295 0.930 1_455 S
C281 H269 0.930 . S
C281 C282 1.399 . S
C281 C286 1.399 . S
C282 C281 1.399 . S
C282 C283 1.376 . S
C283 H270 0.930 . S
C283 C282 1.376 . S
C283 C284 1.388 . S
C284 H271 0.930 . S
C284 C283 1.388 . S
C284 C285 1.390 . S
C285 C284 1.390 . S
C285 C286 1.394 . S
C285 C291 1.465 . S
C286 C281 1.399 . S
C286 C285 1.394 . S
C286 C287 1.516 . S
C287 C286 1.516 . S
C287 C288 1.502 1_655 S
C287 C289 1.561 . S
C287 C290 1.526 . S
C288 H272 0.959 . S
C288 H273 0.959 . S
C288 H274 0.961 . S
C288 C287 1.502 1_455 S
C289 H275 0.960 . S
C289 H276 0.961 . S
C289 H277 0.959 . S
C289 C287 1.561 . S
C290 C287 1.526 . S
C290 C291 1.396 . S
C290 C295 1.390 . S
C291 C285 1.465 . S
C291 C290 1.396 . S
C291 C292 1.399 . S
C292 H278 0.929 . S
C292 C291 1.399 . S
C292 C293 1.385 . S
C293 H279 0.931 . S
C293 C292 1.385 . S
C293 C294 1.389 . S
C294 C293 1.389 . S
C294 C295 1.387 . S
C295 H280 0.930 1_655 S
C295 C290 1.390 . S
C295 C294 1.387 . S
H296 C308 0.930 . S
H297 C310 0.930 . S
H298 C311 0.930 . S
H299 C315 0.959 . S
H300 C315 0.959 . S
H301 C315 0.961 . S
H302 C316 0.960 . S
H303 C316 0.966 . S
H304 C316 0.959 . S
H305 C319 0.929 . S
H306 C320 0.931 . S
H307 C322 0.930 . S
C308 H296 0.930 . S
C308 C309 1.399 . S
C308 C313 1.399 . S
C309 C308 1.399 . S
C309 C310 1.376 . S
C310 H297 0.930 . S
C310 C309 1.376 . S
C310 C311 1.388 . S
C311 H298 0.930 . S
C311 C310 1.388 . S
C311 C312 1.390 . S
C312 C311 1.390 . S
C312 C313 1.394 . S
C312 C318 1.465 . S
C313 C308 1.399 . S
C313 C312 1.394 . S
C313 C314 1.516 . S
C314 C313 1.516 . S
C314 C315 1.502 1_545 S
C314 C316 1.561 . S
C314 C317 1.526 . S
C315 H299 0.959 . S
C315 H300 0.959 . S
C315 H301 0.961 . S
C315 C314 1.502 1_565 S
C316 H302 0.960 . S
C316 H303 0.966 . S
C316 H304 0.959 . S
C316 C314 1.561 . S
C317 C314 1.526 . S
C317 C318 1.396 . S
C317 C322 1.390 . S
C318 C312 1.465 . S
C318 C317 1.396 . S
C318 C319 1.399 . S
C319 H305 0.929 . S
C319 C318 1.399 . S
C319 C320 1.385 . S
C320 H306 0.931 . S
C320 C319 1.385 . S
C320 C321 1.389 . S
C321 C320 1.389 . S
C321 C322 1.387 . S
C322 H307 0.930 . S
C322 C317 1.390 . S
C322 C321 1.387 . S
H323 C335 0.930 . S
H324 C337 0.930 . S
H325 C338 0.930 . S
H326 C342 0.959 . S
H327 C342 0.959 . S
H328 C342 0.961 . S
H329 C343 0.960 . S
H330 C343 0.961 . S
H331 C343 0.959 . S
H332 C346 0.929 . S
H333 C347 0.931 . S
H334 C349 0.930 . S
C335 H323 0.930 . S
C335 C336 1.399 . S
C335 C340 1.399 . S
C336 C335 1.399 . S
C336 C337 1.376 . S
C337 H324 0.930 . S
C337 C336 1.376 . S
C337 C338 1.388 . S
C338 H325 0.930 . S
C338 C337 1.388 . S
C338 C339 1.390 . S
C339 C338 1.390 . S
C339 C340 1.394 . S
C339 C345 1.465 . S
C340 C335 1.399 . S
C340 C339 1.394 . S
C340 C341 1.516 . S
C341 C340 1.516 . S
C341 C342 1.502 . S
C341 C343 1.561 1_565 S
C341 C344 1.526 . S
C342 H326 0.959 . S
C342 H327 0.959 . S
C342 H328 0.961 . S
C342 C341 1.502 . S
C343 H329 0.960 . S
C343 H330 0.961 . S
C343 H331 0.959 . S
C343 C341 1.561 1_545 S
C344 C341 1.526 . S
C344 C345 1.396 . S
C344 C349 1.390 . S
C345 C339 1.465 . S
C345 C344 1.396 . S
C345 C346 1.399 . S
C346 H332 0.929 . S
C346 C345 1.399 . S
C346 C347 1.385 . S
C347 H333 0.931 . S
C347 C346 1.385 . S
C347 C348 1.389 . S
C348 C347 1.389 . S
C348 C349 1.387 . S
C349 H334 0.930 . S
C349 C344 1.390 . S
C349 C348 1.387 . S
H350 C362 0.930 . S
H351 C364 0.930 . S
H352 C365 0.930 . S
H353 C369 0.959 . S
H354 C369 0.959 . S
H355 C369 0.961 . S
H356 C370 0.960 . S
H357 C370 0.961 . S
H358 C370 0.959 . S
H359 C373 0.929 . S
H360 C374 0.931 . S
H361 C376 0.930 . S
C362 H350 0.930 . S
C362 C363 1.399 . S
C362 C367 1.399 . S
C363 C362 1.399 . S
C363 C364 1.376 . S
C364 H351 0.930 . S
C364 C363 1.376 . S
C364 C365 1.388 . S
C365 H352 0.930 . S
C365 C364 1.388 . S
C365 C366 1.390 . S
C366 C365 1.390 . S
C366 C367 1.394 . S
C366 C372 1.465 . S
C367 C362 1.399 . S
C367 C366 1.394 . S
C367 C368 1.516 . S
C368 C367 1.516 . S
C368 C369 1.502 . S
C368 C370 1.561 . S
C368 C371 1.526 . S
C369 H353 0.959 . S
C369 H354 0.959 . S
C369 H355 0.961 . S
C369 C368 1.502 . S
C370 H356 0.960 . S
C370 H357 0.961 . S
C370 H358 0.959 . S
C370 C368 1.561 . S
C371 C368 1.526 . S
C371 C372 1.396 . S
C371 C376 1.390 . S
C372 C366 1.465 . S
C372 C371 1.396 . S
C372 C373 1.399 1_556 S
C373 H359 0.929 . S
C373 C372 1.399 1_554 S
C373 C374 1.385 . S
C374 H360 0.931 . S
C374 C373 1.385 . S
C374 C375 1.389 1_554 S
C375 C374 1.389 1_556 S
C375 C376 1.387 . S
C376 H361 0.930 . S
C376 C371 1.390 . S
C376 C375 1.387 . S
H377 C389 0.930 . S
H378 C391 0.930 . S
H379 C392 0.930 . S
H380 C396 0.959 . S
H381 C396 0.959 . S
H382 C396 0.961 . S
H383 C397 0.960 . S
H384 C397 0.961 . S
H385 C397 0.959 . S
H386 C400 0.929 . S
H387 C401 0.931 . S
H388 C403 0.930 . S
C389 H377 0.930 . S
C389 C390 1.399 . S
C389 C394 1.399 . S
C390 C389 1.399 . S
C390 C391 1.376 . S
C391 H378 0.930 . S
C391 C390 1.376 . S
C391 C392 1.388 . S
C392 H379 0.930 . S
C392 C391 1.388 . S
C392 C393 1.390 . S
C393 C392 1.390 . S
C393 C394 1.394 . S
C393 C399 1.465 . S
C394 C389 1.399 . S
C394 C393 1.394 . S
C394 C395 1.516 . S
C395 C394 1.516 . S
C395 C396 1.502 . S
C395 C397 1.561 . S
C395 C398 1.526 . S
C396 H380 0.959 . S
C396 H381 0.959 . S
C396 H382 0.961 . S
C396 C395 1.502 . S
C397 H383 0.960 . S
C397 H384 0.961 . S
C397 H385 0.959 . S
C397 C395 1.561 . S
C398 C395 1.526 . S
C398 C399 1.396 . S
C398 C403 1.390 . S
C399 C393 1.465 . S
C399 C398 1.396 . S
C399 C400 1.399 . S
C400 H386 0.929 . S
C400 C399 1.399 . S
C400 C401 1.385 . S
C401 H387 0.931 . S
C401 C400 1.385 . S
C401 C402 1.389 . S
C402 C401 1.389 . S
C402 C403 1.387 . S
C403 H388 0.930 . S
C403 C398 1.390 . S
C403 C402 1.387 . S
H404 C416 0.930 . S
H405 C418 0.930 . S
H406 C419 0.930 . S
H407 C423 0.959 . S
H408 C423 0.959 . S
H409 C423 0.961 . S
H410 C424 0.960 . S
H411 C424 0.961 1_556 S
H412 C424 0.959 . S
H413 C427 0.929 . S
H414 C428 0.931 . S
H415 C430 0.930 . S
C416 H404 0.930 . S
C416 C417 1.399 . S
C416 C421 1.399 . S
C417 C416 1.399 . S
C417 C418 1.376 . S
C418 H405 0.930 . S
C418 C417 1.376 . S
C418 C419 1.388 . S
C419 H406 0.930 . S
C419 C418 1.388 . S
C419 C420 1.390 . S
C420 C419 1.390 . S
C420 C421 1.394 . S
C420 C426 1.465 . S
C421 C416 1.399 . S
C421 C420 1.394 . S
C421 C422 1.516 . S
C422 C421 1.516 . S
C422 C423 1.502 . S
C422 C424 1.561 . S
C422 C425 1.526 . S
C423 H407 0.959 . S
C423 H408 0.959 . S
C423 H409 0.961 . S
C423 C422 1.502 . S
C424 H410 0.960 . S
C424 H411 0.961 1_554 S
C424 H412 0.959 . S
C424 C422 1.561 . S
C425 C422 1.526 . S
C425 C426 1.396 . S
C425 C430 1.390 . S
C426 C420 1.465 . S
C426 C425 1.396 . S
C426 C427 1.399 . S
C427 H413 0.929 . S
C427 C426 1.399 . S
C427 C428 1.385 . S
C428 H414 0.931 . S
C428 C427 1.385 . S
C428 C429 1.389 . S
C429 C428 1.389 . S
C429 C430 1.387 . S
C430 H415 0.930 . S
C430 C425 1.390 . S
C430 C429 1.387 . S
H431 C443 0.930 . S
H432 C445 0.930 . S
H433 C446 0.930 . S
H434 C450 0.959 . S
H435 C450 0.959 . S
H436 C450 0.961 . S
H437 C451 0.960 . S
H438 C451 0.961 . S
H439 C451 0.959 . S
H440 C454 0.929 . S
H441 C455 0.931 . S
H442 C457 0.930 . S
C443 H431 0.930 . S
C443 C444 1.399 . S
C443 C448 1.399 . S
C444 C443 1.399 . S
C444 C445 1.376 . S
C445 H432 0.930 . S
C445 C444 1.376 . S
C445 C446 1.388 . S
C446 H433 0.930 . S
C446 C445 1.388 . S
C446 C447 1.390 . S
C447 C446 1.390 . S
C447 C448 1.394 . S
C447 C453 1.465 . S
C448 C443 1.399 . S
C448 C447 1.394 . S
C448 C449 1.516 . S
C449 C448 1.516 . S
C449 C450 1.502 . S
C449 C451 1.561 1_556 S
C449 C452 1.526 . S
C450 H434 0.959 . S
C450 H435 0.959 . S
C450 H436 0.961 . S
C450 C449 1.502 . S
C451 H437 0.960 . S
C451 H438 0.961 . S
C451 H439 0.959 . S
C451 C449 1.561 1_554 S
C452 C449 1.526 . S
C452 C453 1.396 . S
C452 C457 1.390 . S
C453 C447 1.465 . S
C453 C452 1.396 . S
C453 C454 1.399 . S
C454 H440 0.929 . S
C454 C453 1.399 . S
C454 C455 1.385 . S
C455 H441 0.931 . S
C455 C454 1.385 . S
C455 C456 1.389 . S
C456 C455 1.389 . S
C456 C457 1.387 . S
C457 H442 0.930 . S
C457 C452 1.390 . S
C457 C456 1.387 . S
H458 C470 0.930 . S
H459 C472 0.930 . S
H460 C473 0.930 . S
H461 C477 0.959 1_455 S
H462 C477 0.959 . S
H463 C477 0.961 . S
H464 C478 0.960 . S
H465 C478 0.961 . S
H466 C478 0.959 . S
H467 C481 0.929 . S
H468 C482 0.931 . S
H469 C484 0.930 . S
C470 H458 0.930 . S
C470 C471 1.399 . S
C470 C475 1.399 . S
C471 C470 1.399 . S
C471 C472 1.376 . S
C472 H459 0.930 . S
C472 C471 1.376 . S
C472 C473 1.388 . S
C473 H460 0.930 . S
C473 C472 1.388 . S
C473 C474 1.390 . S
C474 C473 1.390 . S
C474 C475 1.394 . S
C474 C480 1.465 . S
C475 C470 1.399 . S
C475 C474 1.394 . S
C475 C476 1.516 . S
C476 C475 1.516 . S
C476 C477 1.502 . S
C476 C478 1.561 . S
C476 C479 1.526 . S
C477 H461 0.959 1_655 S
C477 H462 0.959 . S
C477 H463 0.961 . S
C477 C476 1.502 . S
C478 H464 0.960 . S
C478 H465 0.961 . S
C478 H466 0.959 . S
C478 C476 1.561 . S
C479 C476 1.526 . S
C479 C480 1.396 . S
C479 C484 1.390 . S
C480 C474 1.465 . S
C480 C479 1.396 . S
C480 C481 1.399 . S
C481 H467 0.929 . S
C481 C480 1.399 . S
C481 C482 1.385 . S
C482 H468 0.931 . S
C482 C481 1.385 . S
C482 C483 1.389 . S
C483 C482 1.389 . S
C483 C484 1.387 . S
C484 H469 0.930 . S
C484 C479 1.390 . S
C484 C483 1.387 . S
H485 C497 0.930 . S
H486 C499 0.930 . S
H487 C500 0.930 . S
H488 C504 0.959 . S
H489 C504 0.959 . S
H490 C504 0.961 . S
H491 C505 0.960 . S
H492 C505 0.961 . S
H493 C505 0.959 . S
H494 C508 0.929 . S
H495 C509 0.931 . S
H496 C511 0.930 . S
C497 H485 0.930 . S
C497 C498 1.399 . S
C497 C502 1.399 . S
C498 C497 1.399 . S
C498 C499 1.376 . S
C499 H486 0.930 . S
C499 C498 1.376 . S
C499 C500 1.388 . S
C500 H487 0.930 . S
C500 C499 1.388 . S
C500 C501 1.390 . S
C501 C500 1.390 . S
C501 C502 1.394 . S
C501 C507 1.465 . S
C502 C497 1.399 . S
C502 C501 1.394 . S
C502 C503 1.516 . S
C503 C502 1.516 . S
C503 C504 1.502 . S
C503 C505 1.561 . S
C503 C506 1.526 . S
C504 H488 0.959 . S
C504 H489 0.959 . S
C504 H490 0.961 . S
C504 C503 1.502 . S
C505 H491 0.960 . S
C505 H492 0.961 . S
C505 H493 0.959 . S
C505 C503 1.561 . S
C506 C503 1.526 . S
C506 C507 1.396 . S
C506 C511 1.390 . S
C507 C501 1.465 . S
C507 C506 1.396 . S
C507 C508 1.399 . S
C508 H494 0.929 . S
C508 C507 1.399 . S
C508 C509 1.385 . S
C509 H495 0.931 . S
C509 C508 1.385 . S
C509 C510 1.389 . S
C510 C509 1.389 . S
C510 C511 1.387 . S
C511 H496 0.930 . S
C511 C506 1.390 . S
C511 C510 1.387 . S
H512 C524 0.930 . S
H513 C526 0.930 . S
H514 C527 0.930 . S
H515 C531 0.959 . S
H516 C531 0.959 . S
H517 C531 0.961 . S
H518 C532 0.960 . S
H519 C532 0.961 . S
H520 C532 0.959 . S
H521 C535 0.929 . S
H522 C536 0.931 . S
H523 C538 0.930 . S
C524 H512 0.930 . S
C524 C525 1.399 . S
C524 C529 1.399 . S
C525 C524 1.399 . S
C525 C526 1.376 . S
C526 H513 0.930 . S
C526 C525 1.376 . S
C526 C527 1.388 . S
C527 H514 0.930 . S
C527 C526 1.388 . S
C527 C528 1.390 . S
C528 C527 1.390 . S
C528 C529 1.394 . S
C528 C534 1.465 . S
C529 C524 1.399 . S
C529 C528 1.394 . S
C529 C530 1.516 . S
C530 C529 1.516 . S
C530 C531 1.502 . S
C530 C532 1.561 1_565 S
C530 C533 1.526 . S
C531 H515 0.959 . S
C531 H516 0.959 . S
C531 H517 0.961 . S
C531 C530 1.502 . S
C532 H518 0.960 . S
C532 H519 0.961 . S
C532 H520 0.959 . S
C532 C530 1.561 1_545 S
C533 C530 1.526 . S
C533 C534 1.396 . S
C533 C538 1.390 . S
C534 C528 1.465 . S
C534 C533 1.396 . S
C534 C535 1.399 1_655 S
C535 H521 0.929 . S
C535 C534 1.399 1_455 S
C535 C536 1.385 . S
C536 H522 0.931 . S
C536 C535 1.385 . S
C536 C537 1.389 1_455 S
C537 C536 1.389 1_655 S
C537 C538 1.387 . S
C538 H523 0.930 . S
C538 C533 1.390 . S
C538 C537 1.387 . S
H539 C551 0.930 . S
H540 C553 0.930 . S
H541 C554 0.930 . S
H542 C558 0.959 . S
H543 C558 0.959 . S
H544 C558 0.961 . S
H545 C559 0.960 . S
H546 C559 0.961 . S
H547 C559 0.959 . S
H548 C562 0.929 . S
H549 C563 0.931 . S
H550 C565 0.930 . S
C551 H539 0.930 . S
C551 C552 1.399 . S
C551 C556 1.399 . S
C552 C551 1.399 . S
C552 C553 1.376 . S
C553 H540 0.930 . S
C553 C552 1.376 . S
C553 C554 1.388 . S
C554 H541 0.930 . S
C554 C553 1.388 . S
C554 C555 1.390 . S
C555 C554 1.390 . S
C555 C556 1.394 . S
C555 C561 1.465 . S
C556 C551 1.399 . S
C556 C555 1.394 . S
C556 C557 1.516 . S
C557 C556 1.516 . S
C557 C558 1.502 . S
C557 C559 1.561 . S
C557 C560 1.526 . S
C558 H542 0.959 . S
C558 H543 0.959 . S
C558 H544 0.961 . S
C558 C557 1.502 . S
C559 H545 0.960 . S
C559 H546 0.961 . S
C559 H547 0.959 . S
C559 C557 1.561 . S
C560 C557 1.526 . S
C560 C561 1.396 . S
C560 C565 1.390 . S
C561 C555 1.465 . S
C561 C560 1.396 . S
C561 C562 1.399 . S
C562 H548 0.929 . S
C562 C561 1.399 . S
C562 C563 1.385 . S
C563 H549 0.931 . S
C563 C562 1.385 . S
C563 C564 1.389 . S
C564 C563 1.389 . S
C564 C565 1.387 . S
C565 H550 0.930 . S
C565 C560 1.390 . S
C565 C564 1.387 . S
H566 C578 0.930 . S
H567 C580 0.930 . S
H568 C581 0.930 . S
H569 C585 0.959 . S
H570 C585 0.959 . S
H571 C585 0.961 . S
H572 C586 0.960 . S
H573 C586 0.961 . S
H574 C586 0.959 . S
H575 C589 0.929 . S
H576 C590 0.931 . S
H577 C592 0.930 . S
C578 H566 0.930 . S
C578 C579 1.399 . S
C578 C583 1.399 . S
C579 C578 1.399 . S
C579 C580 1.376 . S
C580 H567 0.930 . S
C580 C579 1.376 . S
C580 C581 1.388 . S
C581 H568 0.930 . S
C581 C580 1.388 . S
C581 C582 1.390 . S
C582 C581 1.390 . S
C582 C583 1.394 . S
C582 C588 1.465 . S
C583 C578 1.399 . S
C583 C582 1.394 . S
C583 C584 1.516 . S
C584 C583 1.516 . S
C584 C585 1.502 . S
C584 C586 1.561 . S
C584 C587 1.526 . S
C585 H569 0.959 . S
C585 H570 0.959 . S
C585 H571 0.961 . S
C585 C584 1.502 . S
C586 H572 0.960 . S
C586 H573 0.961 . S
C586 H574 0.959 . S
C586 C584 1.561 . S
C587 C584 1.526 . S
C587 C588 1.396 . S
C587 C592 1.390 . S
C588 C582 1.465 . S
C588 C587 1.396 . S
C588 C589 1.399 . S
C589 H575 0.929 . S
C589 C588 1.399 . S
C589 C590 1.385 . S
C590 H576 0.931 . S
C590 C589 1.385 . S
C590 C591 1.389 . S
C591 C590 1.389 . S
C591 C592 1.387 . S
C592 H577 0.930 . S
C592 C587 1.390 . S
C592 C591 1.387 . S
H593 C605 0.930 . S
H594 C607 0.930 . S
H595 C608 0.930 . S
H596 C612 0.959 . S
H597 C612 0.959 . S
H598 C612 0.961 . S
H599 C613 0.960 . S
H600 C613 0.961 . S
H601 C613 0.959 . S
H602 C616 0.929 . S
H603 C617 0.931 . S
H604 C619 0.930 . S
C605 H593 0.930 . S
C605 C606 1.399 . S
C605 C610 1.399 . S
C606 C605 1.399 . S
C606 C607 1.376 . S
C607 H594 0.930 . S
C607 C606 1.376 . S
C607 C608 1.388 . S
C608 H595 0.930 . S
C608 C607 1.388 . S
C608 C609 1.390 . S
C609 C608 1.390 . S
C609 C610 1.394 . S
C609 C615 1.465 . S
C610 C605 1.399 . S
C610 C609 1.394 . S
C610 C611 1.516 . S
C611 C610 1.516 . S
C611 C612 1.502 . S
C611 C613 1.561 . S
C611 C614 1.526 . S
C612 H596 0.959 . S
C612 H597 0.959 . S
C612 H598 0.961 . S
C612 C611 1.502 . S
C613 H599 0.960 . S
C613 H600 0.961 . S
C613 H601 0.959 . S
C613 C611 1.561 . S
C614 C611 1.526 . S
C614 C615 1.396 . S
C614 C619 1.390 . S
C615 C609 1.465 . S
C615 C614 1.396 . S
C615 C616 1.399 . S
C616 H602 0.929 . S
C616 C615 1.399 . S
C616 C617 1.385 . S
C617 H603 0.931 . S
C617 C616 1.385 . S
C617 C618 1.389 . S
C618 C617 1.389 . S
C618 C619 1.387 . S
C619 H604 0.930 . S
C619 C614 1.390 . S
C619 C618 1.387 . S
H620 C632 0.930 . S
H621 C634 0.930 . S
H622 C635 0.930 . S
H623 C639 0.949 1_556 S
H624 C639 0.959 . S
H625 C639 0.961 . S
H626 C640 0.960 . S
H627 C640 0.961 . S
H628 C640 0.959 1_556 S
H629 C643 0.929 . S
H630 C644 0.931 . S
H631 C646 0.930 1_554 S
C632 H620 0.930 . S
C632 C633 1.399 . S
C632 C637 1.399 . S
C633 C632 1.399 . S
C633 C634 1.376 . S
C634 H621 0.930 . S
C634 C633 1.376 . S
C634 C635 1.388 . S
C635 H622 0.930 . S
C635 C634 1.388 . S
C635 C636 1.390 . S
C636 C635 1.390 . S
C636 C637 1.394 . S
C636 C642 1.465 . S
C637 C632 1.399 . S
C637 C636 1.394 . S
C637 C638 1.516 . S
C638 C637 1.516 . S
C638 C639 1.502 1_556 S
C638 C640 1.561 1_556 S
C638 C641 1.526 . S
C639 H623 0.949 1_554 S
C639 H624 0.959 . S
C639 H625 0.961 . S
C639 C638 1.502 1_554 S
C640 H626 0.960 . S
C640 H627 0.961 . S
C640 H628 0.959 1_554 S
C640 C638 1.561 1_554 S
C641 C638 1.526 . S
C641 C642 1.396 . S
C641 C646 1.390 . S
C642 C636 1.465 . S
C642 C641 1.396 . S
C642 C643 1.399 . S
C643 H629 0.929 . S
C643 C642 1.399 . S
C643 C644 1.385 . S
C644 H630 0.931 . S
C644 C643 1.385 . S
C644 C645 1.389 . S
C645 C644 1.389 . S
C645 C646 1.387 . S
C646 H631 0.930 1_556 S
C646 C641 1.390 . S
C646 C645 1.387 . S
H647 C659 0.930 . S
H648 C661 0.930 . S
H649 C662 0.930 . S
H650 C666 0.959 . S
H651 C666 0.959 . S
H652 C666 0.961 . S
H653 C667 0.960 . S
H654 C667 0.961 . S
H655 C667 0.959 . S
H656 C670 0.929 . S
H657 C671 0.931 . S
H658 C673 0.930 . S
C659 H647 0.930 . S
C659 C660 1.399 . S
C659 C664 1.399 . S
C660 C659 1.399 . S
C660 C661 1.376 . S
C661 H648 0.930 . S
C661 C660 1.376 . S
C661 C662 1.388 . S
C662 H649 0.930 . S
C662 C661 1.388 . S
C662 C663 1.390 . S
C663 C662 1.390 . S
C663 C664 1.394 . S
C663 C669 1.465 . S
C664 C659 1.399 . S
C664 C663 1.394 . S
C664 C665 1.516 . S
C665 C664 1.516 . S
C665 C666 1.502 . S
C665 C667 1.561 . S
C665 C668 1.526 . S
C666 H650 0.959 . S
C666 H651 0.959 . S
C666 H652 0.961 . S
C666 C665 1.502 . S
C667 H653 0.960 . S
C667 H654 0.961 . S
C667 H655 0.959 . S
C667 C665 1.561 . S
C668 C665 1.526 . S
C668 C669 1.396 . S
C668 C673 1.390 . S
C669 C663 1.465 . S
C669 C668 1.396 . S
C669 C670 1.399 . S
C670 H656 0.929 . S
C670 C669 1.399 . S
C670 C671 1.385 . S
C671 H657 0.931 . S
C671 C670 1.385 . S
C671 C672 1.389 . S
C672 C671 1.389 . S
C672 C673 1.387 . S
C673 H658 0.930 . S
C673 C668 1.390 . S
C673 C672 1.387 . S
H674 C686 0.930 . S
H675 C688 0.930 . S
H676 C689 0.930 . S
H677 C693 0.959 . S
H678 C693 0.959 . S
H679 C693 0.961 . S
H680 C694 0.960 . S
H681 C694 0.961 1_556 S
H682 C694 0.959 . S
H683 C697 0.929 . S
H684 C698 0.931 . S
H685 C700 0.930 . S
C686 H674 0.930 . S
C686 C687 1.399 . S
C686 C691 1.399 . S
C687 C686 1.399 . S
C687 C688 1.376 . S
C688 H675 0.930 . S
C688 C687 1.376 . S
C688 C689 1.388 . S
C689 H676 0.930 . S
C689 C688 1.388 . S
C689 C690 1.390 . S
C690 C689 1.390 . S
C690 C691 1.394 . S
C690 C696 1.465 . S
C691 C686 1.399 . S
C691 C690 1.394 . S
C691 C692 1.516 . S
C692 C691 1.516 . S
C692 C693 1.502 . S
C692 C694 1.561 . S
C692 C695 1.526 . S
C693 H677 0.959 . S
C693 H678 0.959 . S
C693 H679 0.961 . S
C693 C692 1.502 . S
C694 H680 0.960 . S
C694 H681 0.961 1_554 S
C694 H682 0.959 . S
C694 C692 1.561 . S
C695 C692 1.526 . S
C695 C696 1.396 . S
C695 C700 1.390 . S
C696 C690 1.465 . S
C696 C695 1.396 . S
C696 C697 1.399 . S
C697 H683 0.929 . S
C697 C696 1.399 . S
C697 C698 1.385 . S
C698 H684 0.931 . S
C698 C697 1.385 . S
C698 C699 1.389 . S
C699 C698 1.389 . S
C699 C700 1.387 . S
C700 H685 0.930 . S
C700 C695 1.390 . S
C700 C699 1.387 . S
H701 C713 0.930 . S
H702 C715 0.930 . S
H703 C716 0.930 . S
H704 C720 0.959 . S
H705 C720 0.959 . S
H706 C720 0.961 . S
H707 C721 0.960 . S
H708 C721 0.961 . S
H709 C721 0.959 . S
H710 C724 0.929 . S
H711 C725 0.931 . S
H712 C727 0.930 . S
C713 H701 0.930 . S
C713 C714 1.399 . S
C713 C718 1.399 . S
C714 C713 1.399 . S
C714 C715 1.376 . S
C715 H702 0.930 . S
C715 C714 1.376 . S
C715 C716 1.388 . S
C716 H703 0.930 . S
C716 C715 1.388 . S
C716 C717 1.390 . S
C717 C716 1.390 . S
C717 C718 1.394 . S
C717 C723 1.465 . S
C718 C713 1.399 . S
C718 C717 1.394 . S
C718 C719 1.516 . S
C719 C718 1.516 . S
C719 C720 1.502 . S
C719 C721 1.561 . S
C719 C722 1.526 . S
C720 H704 0.959 . S
C720 H705 0.959 . S
C720 H706 0.961 . S
C720 C719 1.502 . S
C721 H707 0.960 . S
C721 H708 0.961 . S
C721 H709 0.959 . S
C721 C719 1.561 . S
C722 C719 1.526 . S
C722 C723 1.396 . S
C722 C727 1.390 . S
C723 C717 1.465 . S
C723 C722 1.396 . S
C723 C724 1.399 . S
C724 H710 0.929 . S
C724 C723 1.399 . S
C724 C725 1.385 . S
C725 H711 0.931 . S
C725 C724 1.385 . S
C725 C726 1.389 . S
C726 C725 1.389 . S
C726 C727 1.387 . S
C727 H712 0.930 . S
C727 C722 1.390 . S
C727 C726 1.387 . S
H728 C740 0.930 . S
H729 C742 0.930 . S
H730 C743 0.930 . S
H731 C747 0.959 . S
H732 C747 0.959 . S
H733 C747 0.961 . S
H734 C748 0.960 . S
H735 C748 0.961 . S
H736 C748 0.959 . S
H737 C751 0.929 . S
H738 C752 0.931 . S
H739 C754 0.930 1_455 S
C740 H728 0.930 . S
C740 C741 1.399 . S
C740 C745 1.399 . S
C741 C740 1.399 . S
C741 C742 1.376 . S
C742 H729 0.930 . S
C742 C741 1.376 . S
C742 C743 1.388 . S
C743 H730 0.930 . S
C743 C742 1.388 . S
C743 C744 1.390 . S
C744 C743 1.390 . S
C744 C745 1.394 . S
C744 C750 1.465 . S
C745 C740 1.399 . S
C745 C744 1.394 . S
C745 C746 1.516 1_556 S
C746 C745 1.516 1_554 S
C746 C747 1.502 1_655 S
C746 C748 1.561 . S
C746 C749 1.526 1_554 S
C747 H731 0.959 . S
C747 H732 0.959 . S
C747 H733 0.961 . S
C747 C746 1.502 1_455 S
C748 H734 0.960 . S
C748 H735 0.961 . S
C748 H736 0.959 . S
C748 C746 1.561 . S
C749 C746 1.526 1_556 S
C749 C750 1.396 . S
C749 C754 1.390 1_556 S
C750 C744 1.465 . S
C750 C749 1.396 . S
C750 C751 1.399 . S
C751 H737 0.929 . S
C751 C750 1.399 . S
C751 C752 1.385 . S
C752 H738 0.931 . S
C752 C751 1.385 . S
C752 C753 1.389 . S
C753 C752 1.389 . S
C753 C754 1.387 1_556 S
C754 H739 0.930 1_655 S
C754 C749 1.390 1_554 S
C754 C753 1.387 1_554 S
H755 C767 0.930 . S
H756 C769 0.930 . S
H757 C770 0.930 . S
H758 C774 0.959 . S
H759 C774 0.959 . S
H760 C774 0.961 . S
H761 C775 0.960 . S
H762 C775 0.961 . S
H763 C775 0.959 . S
H764 C778 0.929 . S
H765 C779 0.931 1_556 S
H766 C781 0.930 . S
C767 H755 0.930 . S
C767 C768 1.399 . S
C767 C772 1.399 . S
C768 C767 1.399 . S
C768 C769 1.376 . S
C769 H756 0.930 . S
C769 C768 1.376 . S
C769 C770 1.388 . S
C770 H757 0.930 . S
C770 C769 1.388 . S
C770 C771 1.390 . S
C771 C770 1.390 . S
C771 C772 1.394 . S
C771 C777 1.465 . S
C772 C767 1.399 . S
C772 C771 1.394 . S
C772 C773 1.516 . S
C773 C772 1.516 . S
C773 C774 1.502 . S
C773 C775 1.561 . S
C773 C776 1.526 . S
C774 H758 0.959 . S
C774 H759 0.959 . S
C774 H760 0.961 . S
C774 C773 1.502 . S
C775 H761 0.960 . S
C775 H762 0.961 . S
C775 H763 0.959 . S
C775 C773 1.561 . S
C776 C773 1.526 . S
C776 C777 1.396 . S
C776 C781 1.390 . S
C777 C771 1.465 . S
C777 C776 1.396 . S
C777 C778 1.399 . S
C778 H764 0.929 . S
C778 C777 1.399 . S
C778 C779 1.385 . S
C779 H765 0.931 1_554 S
C779 C778 1.385 . S
C779 C780 1.389 . S
C780 C779 1.389 . S
C780 C781 1.387 . S
C781 H766 0.930 . S
C781 C776 1.390 . S
C781 C780 1.387 . S
H782 C794 0.930 . S
H783 C796 0.930 . S
H784 C797 0.930 . S
H785 C801 0.959 . S
H786 C801 0.959 . S
H787 C801 0.961 . S
H788 C802 0.960 . S
H789 C802 0.961 . S
H790 C802 0.959 . S
H791 C805 0.929 . S
H792 C806 0.931 . S
H793 C808 0.930 . S
C794 H782 0.930 . S
C794 C795 1.399 . S
C794 C799 1.399 . S
C795 C794 1.399 . S
C795 C796 1.376 . S
C796 H783 0.930 . S
C796 C795 1.376 . S
C796 C797 1.388 . S
C797 H784 0.930 . S
C797 C796 1.388 . S
C797 C798 1.390 . S
C798 C797 1.390 . S
C798 C799 1.394 . S
C798 C804 1.465 . S
C799 C794 1.399 . S
C799 C798 1.394 . S
C799 C800 1.516 . S
C800 C799 1.516 . S
C800 C801 1.502 . S
C800 C802 1.561 . S
C800 C803 1.526 . S
C801 H785 0.959 . S
C801 H786 0.959 . S
C801 H787 0.961 . S
C801 C800 1.502 . S
C802 H788 0.960 . S
C802 H789 0.961 . S
C802 H790 0.959 . S
C802 C800 1.561 . S
C803 C800 1.526 . S
C803 C804 1.396 . S
C803 C808 1.390 . S
C804 C798 1.465 . S
C804 C803 1.396 . S
C804 C805 1.399 . S
C805 H791 0.929 . S
C805 C804 1.399 . S
C805 C806 1.385 . S
C806 H792 0.931 . S
C806 C805 1.385 . S
C806 C807 1.389 . S
C807 C806 1.389 . S
C807 C808 1.387 . S
C808 H793 0.930 . S
C808 C803 1.390 . S
C808 C807 1.387 . S
H809 C821 0.930 . S
H810 C823 0.930 . S
H811 C824 0.930 . S
H812 C828 0.959 . S
H813 C828 0.959 . S
H814 C828 0.961 . S
H815 C829 0.960 . S
H816 C829 0.961 . S
H817 C829 0.959 . S
H818 C832 0.929 . S
H819 C833 0.931 . S
H820 C835 0.930 . S
C821 H809 0.930 . S
C821 C822 1.399 . S
C821 C826 1.399 . S
C822 C821 1.399 . S
C822 C823 1.376 . S
C823 H810 0.930 . S
C823 C822 1.376 . S
C823 C824 1.388 . S
C824 H811 0.930 . S
C824 C823 1.388 . S
C824 C825 1.390 . S
C825 C824 1.390 . S
C825 C826 1.394 . S
C825 C831 1.465 . S
C826 C821 1.399 . S
C826 C825 1.394 . S
C826 C827 1.516 . S
C827 C826 1.516 . S
C827 C828 1.502 . S
C827 C829 1.561 . S
C827 C830 1.526 . S
C828 H812 0.959 . S
C828 H813 0.959 . S
C828 H814 0.961 . S
C828 C827 1.502 . S
C829 H815 0.960 . S
C829 H816 0.961 . S
C829 H817 0.959 . S
C829 C827 1.561 . S
C830 C827 1.526 . S
C830 C831 1.396 . S
C830 C835 1.390 . S
C831 C825 1.465 . S
C831 C830 1.396 . S
C831 C832 1.399 . S
C832 H818 0.929 . S
C832 C831 1.399 . S
C832 C833 1.385 . S
C833 H819 0.931 . S
C833 C832 1.385 . S
C833 C834 1.389 . S
C834 C833 1.389 . S
C834 C835 1.387 . S
C835 H820 0.930 . S
C835 C830 1.390 . S
C835 C834 1.387 . S
C201 C9 1.940 . S
C213 C122 1.929 . S
C228 C21 1.504 . S
C240 C139 1.446 . S
C267 C162 0.962 . S
C255 C30 1.192 . S
C282 C43 1.391 . S
C294 C183 1.340 1_655 S
C321 C142 1.590 . S
C309 C4 1.650 . S
C348 C119 2.097 . S
C336 C22 2.138 . S
C375 C181 1.069 . S
C363 C34 1.097 . S
C402 C160 1.252 . S
C390 C48 1.238 . S
C417 C8 1.785 . S
C429 C184 1.684 . S
C456 C141 1.343 . S
C444 C35 1.646 . S
C471 C47 1.703 . S
C483 C117 1.561 . S
C498 C17 1.385 . S
C510 C163 1.328 . S
C537 C121 1.582 . S
C525 C60 1.632 . S
C552 C74 1.580 . S
C564 C140 1.574 . S
C579 C82 1.078 . S
C591 C159 0.950 . S
C606 C100 1.914 . S
C618 C180 1.518 . S
C633 C61 1.996 . S
C645 C143 1.960 . S
C672 C118 1.661 . S
C660 C73 1.772 . S
C699 C182 1.306 . S
C687 C87 1.380 . S
C726 C161 1.161 . S
C714 C95 1.118 . S
C741 C56 1.509 . S
C753 C185 1.543 1_655 S
C780 C138 1.228 . S
C768 C86 1.563 . S
C807 C120 1.176 . S
C795 C99 1.396 . S
C822 C69 1.338 . S
C834 C164 1.363 . S
