# Generated by pormake.
# Topology ssb, (4,4)-cn, num edge types: 1
# Building blocks:
#     Node 0, Type 0, BuildingBlock: AZAVOO_clean_linker_0, # of connection points: 4
#     Node 1, Type 0, BuildingBlock: AZAVOO_clean_linker_0, # of connection points: 4
#     Node 2, Type 0, BuildingBlock: AZAVOO_clean_linker_0, # of connection points: 4
#     Node 3, Type 0, BuildingBlock: AZAVOO_clean_linker_0, # of connection points: 4
#     Node 4, Type 0, BuildingBlock: AZAVOO_clean_linker_0, # of connection points: 4
#     Node 5, Type 0, BuildingBlock: AZAVOO_clean_linker_0, # of connection points: 4
#     Node 6, Type 0, BuildingBlock: AZAVOO_clean_linker_0, # of connection points: 4
#     Node 7, Type 0, BuildingBlock: AZAVOO_clean_linker_0, # of connection points: 4
#     Node 8, Type 1, BuildingBlock: NAWXER_clean_sbu_0, # of connection points: 4
#     Node 9, Type 1, BuildingBlock: NAWXER_clean_sbu_0, # of connection points: 4
#     Node 10, Type 1, BuildingBlock: NAWXER_clean_sbu_0, # of connection points: 4
#     Node 11, Type 1, BuildingBlock: NAWXER_clean_sbu_0, # of connection points: 4
#     Node 12, Type 1, BuildingBlock: NAWXER_clean_sbu_0, # of connection points: 4
#     Node 13, Type 1, BuildingBlock: NAWXER_clean_sbu_0, # of connection points: 4
#     Node 14, Type 1, BuildingBlock: NAWXER_clean_sbu_0, # of connection points: 4
#     Node 15, Type 1, BuildingBlock: NAWXER_clean_sbu_0, # of connection points: 4
#     Edge 16, Type (0, 1), BuildingBlock: XUDNAN_clean_linker_2, # of connection points: 2
#     Edge 17, Type (0, 1), BuildingBlock: XUDNAN_clean_linker_2, # of connection points: 2
#     Edge 18, Type (0, 1), BuildingBlock: XUDNAN_clean_linker_2, # of connection points: 2
#     Edge 19, Type (0, 1), BuildingBlock: XUDNAN_clean_linker_2, # of connection points: 2
#     Edge 20, Type (0, 1), BuildingBlock: XUDNAN_clean_linker_2, # of connection points: 2
#     Edge 21, Type (0, 1), BuildingBlock: XUDNAN_clean_linker_2, # of connection points: 2
#     Edge 22, Type (0, 1), BuildingBlock: XUDNAN_clean_linker_2, # of connection points: 2
#     Edge 23, Type (0, 1), BuildingBlock: XUDNAN_clean_linker_2, # of connection points: 2
#     Edge 24, Type (0, 1), BuildingBlock: XUDNAN_clean_linker_2, # of connection points: 2
#     Edge 25, Type (0, 1), BuildingBlock: XUDNAN_clean_linker_2, # of connection points: 2
#     Edge 26, Type (0, 1), BuildingBlock: XUDNAN_clean_linker_2, # of connection points: 2
#     Edge 27, Type (0, 1), BuildingBlock: XUDNAN_clean_linker_2, # of connection points: 2
#     Edge 28, Type (0, 1), BuildingBlock: XUDNAN_clean_linker_2, # of connection points: 2
#     Edge 29, Type (0, 1), BuildingBlock: XUDNAN_clean_linker_2, # of connection points: 2
#     Edge 30, Type (0, 1), BuildingBlock: XUDNAN_clean_linker_2, # of connection points: 2
#     Edge 31, Type (0, 1), BuildingBlock: XUDNAN_clean_linker_2, # of connection points: 2
#     Edge 32, Type (0, 1), BuildingBlock: XUDNAN_clean_linker_2, # of connection points: 2
#     Edge 33, Type (0, 1), BuildingBlock: XUDNAN_clean_linker_2, # of connection points: 2
#     Edge 34, Type (0, 1), BuildingBlock: XUDNAN_clean_linker_2, # of connection points: 2
#     Edge 35, Type (0, 1), BuildingBlock: XUDNAN_clean_linker_2, # of connection points: 2
#     Edge 36, Type (0, 1), BuildingBlock: XUDNAN_clean_linker_2, # of connection points: 2
#     Edge 37, Type (0, 1), BuildingBlock: XUDNAN_clean_linker_2, # of connection points: 2
#     Edge 38, Type (0, 1), BuildingBlock: XUDNAN_clean_linker_2, # of connection points: 2
#     Edge 39, Type (0, 1), BuildingBlock: XUDNAN_clean_linker_2, # of connection points: 2
#     Edge 40, Type (0, 1), BuildingBlock: XUDNAN_clean_linker_2, # of connection points: 2
#     Edge 41, Type (0, 1), BuildingBlock: XUDNAN_clean_linker_2, # of connection points: 2
#     Edge 42, Type (0, 1), BuildingBlock: XUDNAN_clean_linker_2, # of connection points: 2
#     Edge 43, Type (0, 1), BuildingBlock: XUDNAN_clean_linker_2, # of connection points: 2
#     Edge 44, Type (0, 1), BuildingBlock: XUDNAN_clean_linker_2, # of connection points: 2
#     Edge 45, Type (0, 1), BuildingBlock: XUDNAN_clean_linker_2, # of connection points: 2
#     Edge 46, Type (0, 1), BuildingBlock: XUDNAN_clean_linker_2, # of connection points: 2
#     Edge 47, Type (0, 1), BuildingBlock: XUDNAN_clean_linker_2, # of connection points: 2
# Relax obj value: 0.057
# Max RMSD: 0.288
# Mean RMSD: 0.112
data_MOF--net-ssb--node1-NAWXER_clean_sbu_0--node2-AZAVOO_clean_linker_0--edge1-XUDNAN_clean_linker_2
_symmetry_space_group_name_H-M    P1
_symmetry_Int_Tables_number       1
_symmetry_cell_setting            triclinic
loop_
_symmetry_equiv_pos_as_xyz
'x, y, z'
_cell_length_a     51.307291
_cell_length_b     52.999421
_cell_length_c     44.498328
_cell_angle_alpha  92.565549
_cell_angle_beta   89.931086
_cell_angle_gamma 89.997626
loop_
_atom_site_label
_atom_site_type_symbol
_atom_site_fract_x
_atom_site_fract_y
_atom_site_fract_z
_atom_type_partial_charge
H0 H 0.11915 0.50331 0.29482 0.0
H1 H 0.34168 0.44519 0.07918 0.0
H2 H 0.21811 0.41052 0.30972 0.0
H3 H 0.18766 0.39746 0.34833 0.0
H4 H 0.16332 0.3344 0.29001 0.0
H5 H 0.19414 0.34753 0.25158 0.0
H6 H 0.22069 0.45579 0.27291 0.0
H7 H 0.18234 0.48127 0.2865 0.0
H8 H 0.13324 0.42643 0.23908 0.0
H9 H 0.17184 0.40127 0.22538 0.0
H10 H 0.26537 0.46124 0.23876 0.0
H11 H 0.26959 0.50098 0.2135 0.0
H12 H 0.21609 0.47344 0.14462 0.0
H13 H 0.21132 0.43384 0.17083 0.0
H14 H 0.31117 0.42016 0.22067 0.0
H15 H 0.34288 0.43479 0.18416 0.0
H16 H 0.28633 0.42222 0.11306 0.0
H17 H 0.25497 0.40731 0.14974 0.0
H18 H 0.30931 0.36861 0.25564 0.0
H19 H 0.34806 0.34578 0.23644 0.0
H20 H 0.31123 0.33513 0.14968 0.0
H21 H 0.2722 0.35688 0.16919 0.0
H22 H 0.26135 0.37369 0.30587 0.0
H23 H 0.27277 0.33792 0.33605 0.0
H24 H 0.26281 0.28728 0.25814 0.0
H25 H 0.25069 0.32325 0.22809 0.0
O26 O 0.13407 0.49303 0.289 0.0
O27 O 0.10968 0.46423 0.26442 0.0
O28 O 0.35805 0.4452 0.13138 0.0
O29 O 0.32955 0.43945 0.09409 0.0
C30 C 0.22653 0.38822 0.25439 0.0
C31 C 0.22225 0.41118 0.24013 0.0
C32 C 0.24022 0.41926 0.21865 0.0
C33 C 0.26165 0.40384 0.21012 0.0
C34 C 0.26566 0.3806 0.22383 0.0
C35 C 0.24865 0.37324 0.24686 0.0
C36 C 0.20811 0.38011 0.27779 0.0
C37 C 0.20608 0.39397 0.30525 0.0
C38 C 0.18866 0.3865 0.32723 0.0
C39 C 0.17295 0.36498 0.32214 0.0
C40 C 0.17531 0.35093 0.2947 0.0
C41 C 0.19276 0.35845 0.2727 0.0
C42 C 0.19903 0.42684 0.24793 0.0
C43 C 0.20166 0.44946 0.26522 0.0
C44 C 0.17971 0.4639 0.27307 0.0
C45 C 0.15472 0.45591 0.26384 0.0
C46 C 0.1522 0.43316 0.24652 0.0
C47 C 0.17419 0.41876 0.23865 0.0
C48 C 0.23816 0.44474 0.2065 0.0
C49 C 0.25397 0.4641 0.21871 0.0
C50 C 0.25652 0.48666 0.2041 0.0
C51 C 0.24358 0.4901 0.17675 0.0
C52 C 0.22624 0.47134 0.16568 0.0
C53 C 0.22352 0.44875 0.18055 0.0
C54 C 0.2808 0.41275 0.18783 0.0
C55 C 0.30573 0.42054 0.19718 0.0
C56 C 0.32376 0.42891 0.1763 0.0
C57 C 0.31713 0.4297 0.14567 0.0
C58 C 0.29207 0.42189 0.13644 0.0
C59 C 0.27409 0.41344 0.15735 0.0
C60 C 0.28793 0.36438 0.2138 0.0
C61 C 0.30935 0.36076 0.23275 0.0
C62 C 0.33143 0.34786 0.22179 0.0
C63 C 0.33251 0.33895 0.19161 0.0
C64 C 0.31081 0.342 0.17298 0.0
C65 C 0.28859 0.35435 0.18409 0.0
C66 C 0.25503 0.35108 0.26482 0.0
C67 C 0.26126 0.35484 0.29539 0.0
C68 C 0.26778 0.33442 0.31259 0.0
C69 C 0.2686 0.30985 0.29944 0.0
C70 C 0.26246 0.30607 0.26877 0.0
C71 C 0.25552 0.32653 0.25163 0.0
C72 C 0.13142 0.47123 0.27237 0.0
C73 C 0.33621 0.4386 0.12339 0.0
H74 H 0.61745 0.17289 0.2759 0.0
H75 H 0.80708 0.26789 0.52944 0.0
H76 H 0.71976 0.26539 0.26843 0.0
H77 H 0.69452 0.27617 0.22403 0.0
H78 H 0.66151 0.34022 0.27409 0.0
H79 H 0.6865 0.32907 0.31846 0.0
H80 H 0.71597 0.22287 0.3074 0.0
H81 H 0.67932 0.1964 0.29033 0.0
H82 H 0.62564 0.25111 0.33051 0.0
H83 H 0.66254 0.27727 0.34765 0.0
H84 H 0.7471 0.2145 0.35237 0.0
H85 H 0.73993 0.17652 0.3806 0.0
H86 H 0.68955 0.21896 0.44214 0.0
H87 H 0.69668 0.25687 0.41341 0.0
H88 H 0.78452 0.24104 0.38379 0.0
H89 H 0.8073 0.23179 0.43031 0.0
H90 H 0.76694 0.29382 0.47652 0.0
H91 H 0.74405 0.30263 0.42991 0.0
H92 H 0.80639 0.28667 0.36126 0.0
H93 H 0.84213 0.31015 0.38441 0.0
H94 H 0.79022 0.37365 0.40248 0.0
H95 H 0.75406 0.34816 0.38365 0.0
H96 H 0.771 0.30349 0.28318 0.0
H97 H 0.78363 0.33853 0.25173 0.0
H98 H 0.74165 0.39066 0.31115 0.0
H99 H 0.72788 0.35545 0.34159 0.0
O100 O 0.63166 0.18359 0.28297 0.0
O101 O 0.60489 0.21234 0.30391 0.0
O102 O 0.81834 0.23924 0.48602 0.0
O103 O 0.79826 0.27105 0.51076 0.0
C104 C 0.72023 0.28991 0.32359 0.0
C105 C 0.71405 0.26794 0.33906 0.0
C106 C 0.72844 0.26176 0.36474 0.0
C107 C 0.74862 0.27795 0.37539 0.0
C108 C 0.7552 0.29977 0.3597 0.0
C109 C 0.74107 0.30562 0.33358 0.0
C110 C 0.70496 0.29645 0.29665 0.0
C111 C 0.70697 0.28166 0.26981 0.0
C112 C 0.69255 0.28784 0.24452 0.0
C113 C 0.67609 0.30909 0.24557 0.0
C114 C 0.67427 0.32394 0.27248 0.0
C115 C 0.68847 0.31757 0.29783 0.0
C116 C 0.69185 0.25183 0.32894 0.0
C117 C 0.69628 0.22897 0.31268 0.0
C118 C 0.67531 0.21396 0.30287 0.0
C119 C 0.64954 0.22162 0.30909 0.0
C120 C 0.64523 0.24463 0.32537 0.0
C121 C 0.66624 0.2596 0.3352 0.0
C122 C 0.72235 0.23841 0.38077 0.0
C123 C 0.73426 0.2155 0.37172 0.0
C124 C 0.7303 0.19388 0.38804 0.0
C125 C 0.71425 0.1947 0.41375 0.0
C126 C 0.7018 0.2176 0.4223 0.0
C127 C 0.70591 0.23929 0.40601 0.0
C128 C 0.76249 0.27235 0.40359 0.0
C129 C 0.78047 0.25245 0.40405 0.0
C130 C 0.79353 0.24729 0.43062 0.0
C131 C 0.78891 0.26205 0.45717 0.0
C132 C 0.77093 0.28206 0.45652 0.0
C133 C 0.75784 0.28715 0.42994 0.0
C134 C 0.77757 0.31575 0.37027 0.0
C135 C 0.80281 0.30566 0.37034 0.0
C136 C 0.82344 0.31947 0.38332 0.0
C137 C 0.81963 0.34425 0.39555 0.0
C138 C 0.7943 0.35458 0.39419 0.0
C139 C 0.77348 0.34025 0.38249 0.0
C140 C 0.74918 0.32703 0.3152 0.0
C141 C 0.76456 0.32247 0.28941 0.0
C142 C 0.77162 0.34238 0.27144 0.0
C143 C 0.7637 0.36716 0.27928 0.0
C144 C 0.74813 0.37169 0.30491 0.0
C145 C 0.74055 0.35169 0.32244 0.0
C146 C 0.62729 0.20565 0.29856 0.0
C147 C 0.80277 0.25668 0.48544 0.0
H148 H 0.67189 0.92943 0.33184 0.0
H149 H 0.67394 0.6769 0.16136 0.0
H150 H 0.78206 0.83941 0.31356 0.0
H151 H 0.7991 0.87096 0.35027 0.0
H152 H 0.77577 0.82398 0.42251 0.0
H153 H 0.75874 0.79238 0.38545 0.0
H154 H 0.72989 0.84393 0.27758 0.0
H155 H 0.70718 0.88314 0.29244 0.0
H156 H 0.68553 0.85133 0.37676 0.0
H157 H 0.70806 0.81212 0.36144 0.0
H158 H 0.72397 0.79907 0.22779 0.0
H159 H 0.68581 0.81078 0.19871 0.0
H160 H 0.63681 0.80159 0.27642 0.0
H161 H 0.67513 0.78883 0.30531 0.0
H162 H 0.76225 0.75675 0.22125 0.0
H163 H 0.74689 0.7301 0.17856 0.0
H164 H 0.68035 0.70795 0.23101 0.0
H165 H 0.6961 0.73443 0.27365 0.0
H166 H 0.8125 0.76032 0.27045 0.0
H167 H 0.83905 0.72666 0.24822 0.0
H168 H 0.77512 0.67434 0.25931 0.0
H169 H 0.75061 0.70744 0.28596 0.0
H170 H 0.81867 0.79687 0.31468 0.0
H171 H 0.85753 0.78761 0.34383 0.0
H172 H 0.81711 0.72569 0.38348 0.0
H173 H 0.7783 0.73493 0.35372 0.0
O174 O 0.6806 0.91369 0.32631 0.0
O175 O 0.67011 0.89651 0.36939 0.0
O176 O 0.71516 0.69935 0.15198 0.0
O177 O 0.68051 0.68751 0.17792 0.0
C178 C 0.7579 0.79553 0.32444 0.0
C179 C 0.73465 0.80153 0.30952 0.0
C180 C 0.72551 0.78552 0.28564 0.0
C181 C 0.7397 0.76361 0.27653 0.0
C182 C 0.76301 0.75762 0.29161 0.0
C183 C 0.77171 0.77333 0.31601 0.0
C184 C 0.76905 0.81381 0.34699 0.0
C185 C 0.78083 0.83589 0.33732 0.0
C186 C 0.79075 0.85372 0.35824 0.0
C187 C 0.7888 0.84981 0.38916 0.0
C188 C 0.77741 0.82741 0.39877 0.0
C189 C 0.76771 0.80943 0.37776 0.0
C190 C 0.72047 0.82517 0.31836 0.0
C191 C 0.72005 0.84542 0.29914 0.0
C192 C 0.70715 0.86782 0.30774 0.0
C193 C 0.69453 0.87037 0.33579 0.0
C194 C 0.69503 0.84999 0.355 0.0
C195 C 0.70789 0.82759 0.34633 0.0
C196 C 0.70221 0.7928 0.26848 0.0
C197 C 0.70496 0.7992 0.23843 0.0
C198 C 0.68324 0.80588 0.22191 0.0
C199 C 0.65852 0.8068 0.2354 0.0
C200 C 0.65576 0.8009 0.26567 0.0
C201 C 0.67751 0.79368 0.28208 0.0
C202 C 0.73038 0.74738 0.2506 0.0
C203 C 0.74445 0.746 0.22352 0.0
C204 C 0.73559 0.73083 0.19916 0.0
C205 C 0.71239 0.71687 0.20139 0.0
C206 C 0.69829 0.71842 0.22854 0.0
C207 C 0.70722 0.73355 0.25291 0.0
C208 C 0.77961 0.73638 0.28001 0.0
C209 C 0.80469 0.74133 0.26921 0.0
C210 C 0.81964 0.72204 0.25572 0.0
C211 C 0.80929 0.69757 0.25109 0.0
C212 C 0.78427 0.69261 0.26269 0.0
C213 C 0.76988 0.71169 0.27759 0.0
C214 C 0.79563 0.7668 0.33252 0.0
C215 C 0.81824 0.78131 0.32965 0.0
C216 C 0.84037 0.77597 0.34627 0.0
C217 C 0.84022 0.75609 0.36615 0.0
C218 C 0.81781 0.741 0.36818 0.0
C219 C 0.79564 0.74634 0.35143 0.0
C220 C 0.68098 0.89425 0.34495 0.0
C221 C 0.70286 0.70076 0.17555 0.0
H222 H 0.31656 0.0708 0.31245 0.0
H223 H 0.3044 0.82231 0.11451 0.0
H224 H 0.26235 0.94955 0.3426 0.0
H225 H 0.25117 0.98257 0.37956 0.0
H226 H 0.17448 0.98831 0.33978 0.0
H227 H 0.18709 0.95632 0.30095 0.0
H228 H 0.30052 0.96156 0.3014 0.0
H229 H 0.31424 0.00549 0.3097 0.0
H230 H 0.24336 0.03021 0.2675 0.0
H231 H 0.23004 0.98612 0.25899 0.0
H232 H 0.31639 0.92309 0.27188 0.0
H233 H 0.35526 0.91999 0.24023 0.0
H234 H 0.31069 0.94439 0.1647 0.0
H235 H 0.27159 0.94755 0.19667 0.0
H236 H 0.29811 0.87183 0.2548 0.0
H237 H 0.31933 0.84358 0.21722 0.0
H238 H 0.26672 0.86946 0.14928 0.0
H239 H 0.24599 0.89796 0.18703 0.0
H240 H 0.2525 0.85346 0.29326 0.0
H241 H 0.25812 0.81168 0.26871 0.0
H242 H 0.21128 0.83493 0.1941 0.0
H243 H 0.20487 0.87596 0.21951 0.0
H244 H 0.22832 0.9034 0.3481 0.0
H245 H 0.19506 0.88552 0.38052 0.0
H246 H 0.1447 0.87316 0.30369 0.0
H247 H 0.17744 0.89227 0.27152 0.0
O248 O 0.31089 0.05354 0.30861 0.0
O249 O 0.27416 0.06526 0.28672 0.0
O250 O 0.32639 0.82465 0.16391 0.0
O251 O 0.29679 0.83381 0.12959 0.0
C252 C 0.23534 0.93471 0.29302 0.0
C253 C 0.25566 0.94407 0.2749 0.0
C254 C 0.26717 0.92827 0.25241 0.0
C255 C 0.25746 0.90368 0.24667 0.0
C256 C 0.23658 0.89451 0.26388 0.0
C257 C 0.22573 0.9098 0.2876 0.0
C258 C 0.22574 0.95089 0.31879 0.0
C259 C 0.24303 0.95777 0.34205 0.0
C260 C 0.23635 0.97654 0.36352 0.0
C261 C 0.2118 0.98843 0.36286 0.0
C262 C 0.19374 0.98006 0.34072 0.0
C263 C 0.20074 0.96154 0.3187 0.0
C264 C 0.26449 0.97066 0.27915 0.0
C265 C 0.2882 0.97646 0.29349 0.0
C266 C 0.29589 0.00159 0.29843 0.0
C267 C 0.27993 0.02138 0.28919 0.0
C268 C 0.25615 0.01544 0.27482 0.0
C269 C 0.24851 0.99029 0.26988 0.0
C270 C 0.29124 0.93577 0.23665 0.0
C271 C 0.31529 0.92918 0.249 0.0
C272 C 0.3374 0.9272 0.23085 0.0
C273 C 0.33579 0.93186 0.20013 0.0
C274 C 0.31238 0.94099 0.18844 0.0
C275 C 0.29012 0.94288 0.20666 0.0
C276 C 0.27047 0.8868 0.2236 0.0
C277 C 0.29129 0.87142 0.23175 0.0
C278 C 0.30335 0.85533 0.21026 0.0
C279 C 0.29464 0.85419 0.18026 0.0
C280 C 0.27385 0.8698 0.17218 0.0
C281 C 0.26198 0.88609 0.19366 0.0
C282 C 0.22861 0.86785 0.25793 0.0
C283 C 0.24206 0.84893 0.27256 0.0
C284 C 0.2457 0.82521 0.25813 0.0
C285 C 0.23609 0.82026 0.22882 0.0
C286 C 0.21914 0.83796 0.21654 0.0
C287 C 0.21525 0.86153 0.23117 0.0
C288 C 0.20534 0.89932 0.30737 0.0
C289 C 0.20993 0.89732 0.3383 0.0
C290 C 0.19098 0.88707 0.3568 0.0
C291 C 0.16739 0.87802 0.34454 0.0
C292 C 0.16281 0.87994 0.31361 0.0
C293 C 0.1815 0.89075 0.29525 0.0
C294 C 0.28806 0.04806 0.2947 0.0
C295 C 0.307 0.83669 0.15751 0.0
H296 H 0.4477 0.97432 0.73742 0.0
H297 H 0.17558 0.95666 0.60403 0.0
H298 H 0.35272 0.86827 0.74725 0.0
H299 H 0.38474 0.85432 0.78382 0.0
H300 H 0.33884 0.88893 0.85598 0.0
H301 H 0.30686 0.90281 0.81919 0.0
H302 H 0.35693 0.91306 0.70241 0.0
H303 H 0.39811 0.9359 0.70919 0.0
H304 H 0.36948 0.96958 0.7932 0.0
H305 H 0.32829 0.94684 0.78595 0.0
H306 H 0.31294 0.91703 0.65834 0.0
H307 H 0.3239 0.95141 0.62546 0.0
H308 H 0.30711 0.00587 0.69807 0.0
H309 H 0.29615 0.97134 0.73077 0.0
H310 H 0.26382 0.87951 0.66088 0.0
H311 H 0.23317 0.88909 0.62086 0.0
H312 H 0.21283 0.95911 0.66887 0.0
H313 H 0.2433 0.94911 0.70892 0.0
H314 H 0.26546 0.83922 0.71008 0.0
H315 H 0.22678 0.81498 0.69497 0.0
H316 H 0.17797 0.87743 0.72594 0.0
H317 H 0.21695 0.90174 0.74036 0.0
H318 H 0.30667 0.83525 0.76175 0.0
H319 H 0.29459 0.80369 0.79791 0.0
H320 H 0.23285 0.85256 0.83189 0.0
H321 H 0.2453 0.88415 0.79599 0.0
O322 O 0.43123 0.96554 0.73513 0.0
O323 O 0.41563 0.98225 0.77822 0.0
O324 O 0.19871 0.91603 0.59595 0.0
O325 O 0.18791 0.95245 0.61946 0.0
C326 C 0.30847 0.89463 0.75843 0.0
C327 C 0.31469 0.91446 0.73951 0.0
C328 C 0.29719 0.92097 0.71667 0.0
C329 C 0.27375 0.90735 0.71244 0.0
C330 C 0.26753 0.88767 0.73163 0.0
C331 C 0.28458 0.88164 0.75506 0.0
C332 C 0.32766 0.88657 0.78071 0.0
C333 C 0.34965 0.87281 0.77098 0.0
C334 C 0.36772 0.86471 0.79181 0.0
C335 C 0.36413 0.87052 0.82261 0.0
C336 C 0.34206 0.88436 0.8323 0.0
C337 C 0.32384 0.89224 0.81144 0.0
C338 C 0.33964 0.92838 0.74364 0.0
C339 C 0.35956 0.92549 0.72217 0.0
C340 C 0.38308 0.9385 0.72615 0.0
C341 C 0.38709 0.95458 0.75174 0.0
C342 C 0.36703 0.95736 0.77324 0.0
C343 C 0.34351 0.94438 0.76918 0.0
C344 C 0.30371 0.94178 0.69682 0.0
C345 C 0.31164 0.9364 0.66707 0.0
C346 C 0.31804 0.956 0.64845 0.0
C347 C 0.31639 0.98128 0.65927 0.0
C348 C 0.30837 0.98657 0.68911 0.0
C349 C 0.3022 0.96694 0.70779 0.0
C350 C 0.25572 0.9136 0.68777 0.0
C351 C 0.25269 0.89689 0.6627 0.0
C352 C 0.2352 0.90242 0.63988 0.0
C353 C 0.22051 0.92487 0.64169 0.0
C354 C 0.22381 0.94167 0.66677 0.0
C355 C 0.24125 0.93605 0.68963 0.0
C356 C 0.24389 0.87225 0.72596 0.0
C357 C 0.24636 0.84745 0.71402 0.0
C358 C 0.22425 0.83359 0.70562 0.0
C359 C 0.19934 0.84436 0.70912 0.0
C360 C 0.19694 0.86879 0.72258 0.0
C361 C 0.21909 0.88266 0.73088 0.0
C362 C 0.27703 0.8621 0.77643 0.0
C363 C 0.29066 0.83919 0.77714 0.0
C364 C 0.28372 0.82121 0.79777 0.0
C365 C 0.26279 0.82569 0.81775 0.0
C366 C 0.24889 0.84848 0.81659 0.0
C367 C 0.25603 0.86655 0.7962 0.0
C368 C 0.41212 0.96832 0.75593 0.0
C369 C 0.20177 0.93076 0.6176 0.0
H370 H 0.25227 0.58237 0.77807 0.0
H371 H 0.23181 0.31243 0.62139 0.0
H372 H 0.34534 0.47485 0.77393 0.0
H373 H 0.35591 0.50904 0.81069 0.0
H374 H 0.31228 0.47116 0.87843 0.0
H375 H 0.30201 0.43678 0.84148 0.0
H376 H 0.29579 0.48679 0.72993 0.0
H377 H 0.28001 0.52965 0.74212 0.0
H378 H 0.24657 0.50415 0.82471 0.0
H379 H 0.26205 0.46134 0.81197 0.0
H380 H 0.27169 0.44106 0.68066 0.0
H381 H 0.2292 0.43927 0.65531 0.0
H382 H 0.19119 0.43286 0.74126 0.0
H383 H 0.23348 0.43377 0.76619 0.0
H384 H 0.31711 0.39614 0.67953 0.0
H385 H 0.30411 0.36642 0.63863 0.0
H386 H 0.23228 0.35169 0.68569 0.0
H387 H 0.24578 0.38102 0.72674 0.0
H388 H 0.36022 0.38403 0.72986 0.0
H389 H 0.37111 0.3455 0.70064 0.0
H390 H 0.29513 0.31511 0.72203 0.0
H391 H 0.28647 0.35195 0.75398 0.0
H392 H 0.36984 0.42645 0.7967 0.0
H393 H 0.39548 0.40811 0.83632 0.0
H394 H 0.338 0.34866 0.8424 0.0
H395 H 0.31116 0.36914 0.80624 0.0
O396 O 0.25793 0.56522 0.77341 0.0
O397 O 0.24143 0.55119 0.81579 0.0
O398 O 0.27427 0.33313 0.61355 0.0
O399 O 0.23696 0.32499 0.63669 0.0
C400 C 0.31182 0.43629 0.7812 0.0
C401 C 0.29117 0.44545 0.76349 0.0
C402 C 0.2807 0.43021 0.73971 0.0
C403 C 0.29195 0.40642 0.73245 0.0
C404 C 0.31177 0.39673 0.75095 0.0
C405 C 0.32119 0.4113 0.77609 0.0
C406 C 0.32297 0.45337 0.80512 0.0
C407 C 0.33883 0.47353 0.79698 0.0
C408 C 0.34482 0.49302 0.81796 0.0
C409 C 0.33474 0.49279 0.8473 0.0
C410 C 0.32014 0.47181 0.85588 0.0
C411 C 0.31445 0.45212 0.83495 0.0
C412 C 0.28025 0.47105 0.77018 0.0
C413 C 0.28487 0.49049 0.75051 0.0
C414 C 0.27592 0.51495 0.75759 0.0
C415 C 0.26216 0.52036 0.78448 0.0
C416 C 0.25719 0.50067 0.80388 0.0
C417 C 0.26605 0.47622 0.7967 0.0
C418 C 0.25573 0.4372 0.72525 0.0
C419 C 0.25411 0.44012 0.69406 0.0
C420 C 0.22984 0.43916 0.67963 0.0
C421 C 0.20696 0.43542 0.69629 0.0
C422 C 0.20855 0.43531 0.72782 0.0
C423 C 0.2327 0.43611 0.74214 0.0
C424 C 0.28236 0.39083 0.70604 0.0
C425 C 0.29843 0.38671 0.68077 0.0
C426 C 0.29099 0.36966 0.6575 0.0
C427 C 0.2672 0.35657 0.65897 0.0
C428 C 0.25075 0.36139 0.68388 0.0
C429 C 0.25831 0.3783 0.70726 0.0
C430 C 0.3222 0.37108 0.7432 0.0
C431 C 0.34661 0.36839 0.72936 0.0
C432 C 0.35243 0.34649 0.7119 0.0
C433 C 0.3335 0.32737 0.70708 0.0
C434 C 0.31046 0.32901 0.72443 0.0
C435 C 0.30525 0.35035 0.74289 0.0
C436 C 0.33837 0.39937 0.79853 0.0
C437 C 0.36258 0.40975 0.80709 0.0
C438 C 0.3775 0.39887 0.82952 0.0
C439 C 0.36897 0.37681 0.84324 0.0
C440 C 0.34513 0.36604 0.83355 0.0
C441 C 0.32985 0.37747 0.81213 0.0
C442 C 0.25316 0.54646 0.79226 0.0
C443 C 0.25976 0.33761 0.63495 0.0
H444 H 0.9362 0.36778 0.91595 0.0
H445 H 0.83014 0.22742 0.63451 0.0
H446 H 0.84103 0.26705 0.9052 0.0
H447 H 0.85088 0.29438 0.94911 0.0
H448 H 0.78308 0.33965 0.93065 0.0
H449 H 0.77563 0.31436 0.88489 0.0
H450 H 0.88117 0.28258 0.85691 0.0
H451 H 0.91061 0.31361 0.8811 0.0
H452 H 0.84914 0.36947 0.88141 0.0
H453 H 0.82008 0.33838 0.85672 0.0
H454 H 0.87843 0.25826 0.78997 0.0
H455 H 0.90925 0.27641 0.75465 0.0
H456 H 0.86315 0.34473 0.75535 0.0
H457 H 0.83278 0.32656 0.79068 0.0
H458 H 0.83651 0.21529 0.78298 0.0
H459 H 0.84385 0.19776 0.73185 0.0
H460 H 0.814 0.26657 0.69608 0.0
H461 H 0.80642 0.28371 0.74736 0.0
H462 H 0.79351 0.20268 0.8232 0.0
H463 H 0.77817 0.17218 0.78464 0.0
H464 H 0.74174 0.23244 0.73771 0.0
H465 H 0.7571 0.2629 0.77667 0.0
H466 H 0.77864 0.21998 0.87573 0.0
H467 H 0.73748 0.21035 0.90026 0.0
H468 H 0.70866 0.2845 0.87941 0.0
H469 H 0.74816 0.29193 0.85155 0.0
O470 O 0.92437 0.35593 0.90595 0.0
O471 O 0.89239 0.38417 0.90464 0.0
O472 O 0.84347 0.19928 0.67452 0.0
O473 O 0.82754 0.23394 0.65496 0.0
C474 C 0.80942 0.27979 0.8597 0.0
C475 C 0.83023 0.28887 0.84218 0.0
C476 C 0.83356 0.27978 0.81224 0.0
C477 C 0.81657 0.26122 0.79994 0.0
C478 C 0.795 0.25315 0.81689 0.0
C479 C 0.79105 0.26278 0.84657 0.0
C480 C 0.80762 0.28864 0.89168 0.0
C481 C 0.82772 0.2823 0.91135 0.0
C482 C 0.83336 0.29803 0.93651 0.0
C483 C 0.81835 0.31983 0.94281 0.0
C484 C 0.7957 0.32362 0.92574 0.0
C485 C 0.79078 0.30856 0.89994 0.0
C486 C 0.84848 0.30821 0.85523 0.0
C487 C 0.87421 0.3016 0.86196 0.0
C488 C 0.89092 0.31933 0.87591 0.0
C489 C 0.8822 0.34399 0.88331 0.0
C490 C 0.85648 0.35064 0.87606 0.0
C491 C 0.83983 0.33292 0.862 0.0
C492 C 0.85349 0.29117 0.79289 0.0
C493 C 0.87523 0.27723 0.78264 0.0
C494 C 0.89266 0.28755 0.76239 0.0
C495 C 0.88863 0.31201 0.75224 0.0
C496 C 0.86705 0.32602 0.7631 0.0
C497 C 0.84965 0.31568 0.78322 0.0
C498 C 0.82092 0.25072 0.76881 0.0
C499 C 0.83151 0.22649 0.76405 0.0
C500 C 0.83576 0.21658 0.73484 0.0
C501 C 0.82963 0.23082 0.70986 0.0
C502 C 0.81901 0.25513 0.71479 0.0
C503 C 0.81468 0.26498 0.74402 0.0
C504 C 0.77661 0.23493 0.80247 0.0
C505 C 0.78083 0.20909 0.80566 0.0
C506 C 0.7721 0.19169 0.78348 0.0
C507 C 0.75927 0.2001 0.75789 0.0
C508 C 0.75186 0.22558 0.75707 0.0
C509 C 0.76043 0.24294 0.77939 0.0
C510 C 0.7666 0.25693 0.86257 0.0
C511 C 0.76318 0.23391 0.87632 0.0
C512 C 0.73962 0.22863 0.89068 0.0
C513 C 0.71929 0.24663 0.89238 0.0
C514 C 0.72314 0.26968 0.87832 0.0
C515 C 0.74616 0.27438 0.86292 0.0
C516 C 0.89987 0.36264 0.89859 0.0
C517 C 0.83404 0.22033 0.67879 0.0
H518 H 0.90872 0.65864 0.78246 0.0
H519 H 0.68855 0.73818 0.99693 0.0
H520 H 0.85488 0.7831 0.81238 0.0
H521 H 0.88283 0.79429 0.77027 0.0
H522 H 0.81578 0.79379 0.71179 0.0
H523 H 0.78806 0.78129 0.75361 0.0
H524 H 0.85312 0.74075 0.84713 0.0
H525 H 0.8821 0.70769 0.82634 0.0
H526 H 0.82496 0.68853 0.75766 0.0
H527 H 0.79609 0.72155 0.7789 0.0
H528 H 0.82621 0.73628 0.89477 0.0
H529 H 0.83004 0.69646 0.91996 0.0
H530 H 0.76074 0.66911 0.87347 0.0
H531 H 0.75899 0.70792 0.84639 0.0
H532 H 0.78432 0.78979 0.91862 0.0
H533 H 0.76182 0.78485 0.96656 0.0
H534 H 0.70697 0.73377 0.92205 0.0
H535 H 0.72947 0.73913 0.87427 0.0
H536 H 0.77677 0.83927 0.86976 0.0
H537 H 0.74435 0.86885 0.89073 0.0
H538 H 0.68467 0.81181 0.87589 0.0
H539 H 0.71662 0.7839 0.85201 0.0
H540 H 0.81747 0.83447 0.82353 0.0
H541 H 0.81711 0.87025 0.79085 0.0
H542 H 0.74484 0.84328 0.7512 0.0
H543 H 0.74495 0.80798 0.78501 0.0
O544 O 0.89692 0.67154 0.79039 0.0
O545 O 0.86693 0.66247 0.75552 0.0
O546 O 0.72645 0.76693 9e-05 0.0
O547 O 0.69781 0.74048 0.97829 0.0
C548 C 0.80236 0.77631 0.81228 0.0
C549 C 0.80491 0.7534 0.82716 0.0
C550 C 0.79003 0.74922 0.85319 0.0
C551 C 0.7724 0.76796 0.86417 0.0
C552 C 0.76891 0.79049 0.84859 0.0
C553 C 0.78408 0.79476 0.82277 0.0
C554 C 0.81941 0.78138 0.78611 0.0
C555 C 0.84629 0.78488 0.79035 0.0
C556 C 0.86219 0.79139 0.76638 0.0
C557 C 0.85137 0.79504 0.73793 0.0
C558 C 0.8245 0.7913 0.73361 0.0
C559 C 0.80871 0.78417 0.75742 0.0
C560 C 0.82245 0.73332 0.81467 0.0
C561 C 0.84683 0.72923 0.82777 0.0
C562 C 0.86338 0.71041 0.81576 0.0
C563 C 0.85583 0.69542 0.79036 0.0
C564 C 0.83136 0.6997 0.77726 0.0
C565 C 0.81483 0.71851 0.78932 0.0
C566 C 0.7924 0.72496 0.86864 0.0
C567 C 0.81216 0.72143 0.88976 0.0
C568 C 0.81404 0.69867 0.90449 0.0
C569 C 0.7957 0.67914 0.89906 0.0
C570 C 0.77575 0.6831 0.87796 0.0
C571 C 0.77442 0.70553 0.86262 0.0
C572 C 0.75868 0.76462 0.8931 0.0
C573 C 0.76747 0.77751 0.91933 0.0
C574 C 0.75458 0.77465 0.94665 0.0
C575 C 0.73263 0.75883 0.94816 0.0
C576 C 0.72386 0.74601 0.92172 0.0
C577 C 0.73676 0.74892 0.89443 0.0
C578 C 0.74912 0.80932 0.85946 0.0
C579 C 0.75652 0.83352 0.87033 0.0
C580 C 0.73793 0.85028 0.88281 0.0
C581 C 0.71163 0.84293 0.88543 0.0
C582 C 0.7044 0.81872 0.87388 0.0
C583 C 0.72281 0.80239 0.86058 0.0
C584 C 0.78132 0.81857 0.80655 0.0
C585 C 0.80126 0.83663 0.80826 0.0
C586 C 0.80114 0.85691 0.78928 0.0
C587 C 0.78121 0.85942 0.76786 0.0
C588 C 0.76043 0.84205 0.76744 0.0
C589 C 0.76045 0.82184 0.78673 0.0
C590 C 0.87347 0.67547 0.77763 0.0
C591 C 0.71886 0.75573 0.97712 0.0
C592 C 0.9923 0.35637 0.57663 0.0
C593 C 0.04775 0.35371 0.48775 0.0
O594 O 0.99802 0.3784 0.56778 0.0
Zn595 Zn 0.01913 0.39482 0.53173 0.0
O596 O 0.00012 0.33688 0.56152 0.0
Zn597 Zn 0.01918 0.35459 0.53155 0.0
O598 O 0.04866 0.37316 0.55869 0.0
O599 O 0.04559 0.41436 0.55384 0.0
O600 O 0.03899 0.33523 0.50192 0.0
O601 O 0.04163 0.37634 0.4965 0.0
O602 O 0.99159 0.41205 0.51085 0.0
O603 O 0.98858 0.3705 0.5059 0.0
C604 C 0.05665 0.39564 0.5654 0.0
C605 C 0.98004 0.39246 0.50008 0.0
C606 C 0.78616 0.06279 0.60838 0.0
C607 C 0.79312 0.99417 0.5332 0.0
O608 O 0.80594 0.05681 0.59239 0.0
Zn609 Zn 0.79016 0.02871 0.57061 0.0
O610 O 0.76502 0.05004 0.60561 0.0
Zn611 Zn 0.75034 0.01879 0.57876 0.0
O612 O 0.74218 0.99428 0.60913 0.0
O613 O 0.78429 0.00138 0.60403 0.0
O614 O 0.77044 0.99565 0.54537 0.0
O615 O 0.81057 0.01017 0.54093 0.0
O616 O 0.76254 0.04773 0.54417 0.0
O617 O 0.72297 0.03528 0.55572 0.0
C618 C 0.76561 0.9897 0.61661 0.0
C619 C 0.73785 0.04911 0.5405 0.0
C620 C 0.98131 0.81823 0.57933 0.0
C621 C 0.04552 0.82154 0.49849 0.0
O622 O 0.98829 0.8373 0.56496 0.0
Zn623 Zn 0.01395 0.82032 0.53956 0.0
O624 O 0.99198 0.7967 0.57324 0.0
Zn625 Zn 0.0209 0.78101 0.54247 0.0
O626 O 0.04729 0.76901 0.56907 0.0
O627 O 0.04362 0.81053 0.57051 0.0
O628 O 0.04273 0.79917 0.50796 0.0
O629 O 0.03284 0.83974 0.51096 0.0
O630 O 0.98999 0.79583 0.51167 0.0
O631 O 0.00097 0.75631 0.51927 0.0
C632 C 0.05448 0.79052 0.57972 0.0
C633 C 0.98683 0.77208 0.50606 0.0
C634 C 0.29915 0.20036 0.54495 0.0
C635 C 0.25285 0.13648 0.4844 0.0
O636 O 0.31454 0.18847 0.52652 0.0
Zn637 Zn 0.31126 0.15788 0.49322 0.0
O638 O 0.27511 0.19481 0.54526 0.0
Zn639 Zn 0.27582 0.16888 0.51372 0.0
O640 O 0.29645 0.13859 0.53459 0.0
O641 O 0.33295 0.13218 0.50908 0.0
O642 O 0.24311 0.15301 0.50263 0.0
O643 O 0.27743 0.13622 0.47916 0.0
O644 O 0.32258 0.17222 0.45666 0.0
O645 O 0.28542 0.18833 0.47345 0.0
C646 C 0.31793 0.12648 0.53044 0.0
C647 C 0.30374 0.18742 0.45374 0.0
C648 C 0.48069 0.89312 0.06088 0.0
C649 C 0.55982 0.89521 0.99964 0.0
O650 O 0.49258 0.91281 0.05286 0.0
Zn651 Zn 0.52012 0.89505 0.0306 0.0
O652 O 0.48925 0.87122 0.05228 0.0
Zn653 Zn 0.52072 0.8549 0.02608 0.0
O654 O 0.53869 0.83542 0.05474 0.0
O655 O 0.53921 0.87641 0.06629 0.0
O656 O 0.55129 0.87284 0.00299 0.0
O657 O 0.54824 0.91397 0.01241 0.0
O658 O 0.49864 0.87834 0.99311 0.0
O659 O 0.50291 0.83687 0.99426 0.0
C660 C 0.54486 0.85371 0.07271 0.0
C661 C 0.4936 0.85608 0.98201 0.0
C662 C 0.28731 0.7065 0.05888 0.0
C663 C 0.3082 0.64482 0.97769 0.0
O664 O 0.30952 0.7014 0.04749 0.0
Zn665 Zn 0.2982 0.67713 0.01664 0.0
O666 O 0.26693 0.69579 0.04758 0.0
Zn667 Zn 0.25771 0.66841 0.01215 0.0
O668 O 0.24206 0.64154 0.0348 0.0
O669 O 0.28421 0.64703 0.04265 0.0
O670 O 0.28366 0.64659 0.98304 0.0
O671 O 0.32394 0.65959 0.99183 0.0
O672 O 0.27804 0.699 0.9851 0.0
O673 O 0.23685 0.68718 0.98432 0.0
C674 C 0.26303 0.63513 0.04772 0.0
C675 C 0.25492 0.7011 0.97465 0.0
C676 C 0.55563 0.26531 0.00268 0.0
C677 C 0.48662 0.28933 0.07297 0.0
O678 O 0.55297 0.28937 0.0051 0.0
Zn679 Zn 0.52822 0.31581 0.02964 0.0
O680 O 0.54051 0.25128 0.01708 0.0
Zn681 Zn 0.5205 0.27766 0.03729 0.0
O682 O 0.49651 0.29415 0.00311 0.0
O683 O 0.51071 0.33311 0.9983 0.0
O684 O 0.49495 0.26734 0.06559 0.0
O685 O 0.49692 0.30871 0.06128 0.0
O686 O 0.55279 0.33494 0.05456 0.0
O687 O 0.54874 0.29537 0.06706 0.0
C688 C 0.49503 0.31547 0.99055 0.0
C689 C 0.55923 0.31719 0.07133 0.0
C690 C 0.84885 0.55299 0.11853 0.0
C691 C 0.85322 0.47712 0.05502 0.0
O692 O 0.86906 0.54188 0.10812 0.0
Zn693 Zn 0.85084 0.51592 0.08591 0.0
O694 O 0.826 0.54485 0.11135 0.0
Zn695 Zn 0.80982 0.51432 0.0832 0.0
O696 O 0.78942 0.4957 0.11126 0.0
O697 O 0.83159 0.49598 0.1213 0.0
O698 O 0.82968 0.48447 0.0592 0.0
O699 O 0.87192 0.4898 0.06653 0.0
O700 O 0.83414 0.53726 0.05018 0.0
O701 O 0.79162 0.53112 0.05185 0.0
C702 C 0.80824 0.48943 0.12788 0.0
C703 C 0.81123 0.54127 0.03988 0.0
H704 H 0.14101 0.39598 0.3564 0.0
H705 H 0.16204 0.31721 0.34027 0.0
H706 H 0.13084 0.30523 0.37959 0.0
H707 H 0.13612 0.39411 0.43607 0.0
H708 H 0.10899 0.41569 0.43883 0.0
H709 H 0.132 0.41766 0.40847 0.0
H710 H 0.09431 0.41296 0.36984 0.0
H711 H 0.07117 0.41091 0.40011 0.0
H712 H 0.07273 0.38617 0.37102 0.0
H713 H 0.09817 0.30225 0.42212 0.0
H714 H 0.06713 0.30857 0.46438 0.0
H715 H 0.06864 0.38943 0.45248 0.0
C716 C 0.13918 0.3762 0.3612 0.0
C717 C 0.15397 0.35752 0.34529 0.0
C718 C 0.15067 0.33181 0.35195 0.0
C719 C 0.13309 0.32485 0.37431 0.0
C720 C 0.11895 0.34381 0.3897 0.0
C721 C 0.12182 0.36896 0.38338 0.0
C722 C 0.10485 0.3858 0.40351 0.0
C723 C 0.12149 0.4044 0.42287 0.0
C724 C 0.08456 0.39978 0.38501 0.0
C725 C 0.09213 0.36625 0.42241 0.0
C726 C 0.10037 0.34212 0.41407 0.0
C727 C 0.09151 0.32106 0.42876 0.0
C728 C 0.07389 0.32483 0.45272 0.0
C729 C 0.06544 0.34948 0.46175 0.0
C730 C 0.07465 0.37034 0.44615 0.0
H731 H 0.75264 0.16214 0.43012 0.0
H732 H 0.6697 0.17617 0.43955 0.0
H733 H 0.66569 0.13891 0.47096 0.0
H734 H 0.74926 0.09369 0.4257 0.0
H735 H 0.77875 0.09013 0.44708 0.0
H736 H 0.77458 0.11721 0.42451 0.0
H737 H 0.7829 0.14696 0.47137 0.0
H738 H 0.78716 0.11999 0.49403 0.0
H739 H 0.76328 0.1437 0.50461 0.0
H740 H 0.67146 0.09994 0.50277 0.0
H741 H 0.68686 0.06484 0.53332 0.0
H742 H 0.76577 0.07721 0.50197 0.0
C743 C 0.73353 0.15718 0.43835 0.0
C744 C 0.71144 0.17201 0.43215 0.0
C745 C 0.68692 0.16518 0.44409 0.0
C746 C 0.68444 0.14395 0.4618 0.0
C747 C 0.70666 0.12974 0.46745 0.0
C748 C 0.73074 0.1362 0.45608 0.0
C749 C 0.75187 0.11863 0.46628 0.0
C750 C 0.76434 0.10405 0.43928 0.0
C751 C 0.77251 0.13319 0.4852 0.0
C752 C 0.73603 0.1013 0.48531 0.0
C753 C 0.70996 0.1078 0.48567 0.0
C754 C 0.69184 0.09466 0.50249 0.0
C755 C 0.70072 0.07469 0.5197 0.0
C756 C 0.7275 0.06817 0.52007 0.0
C757 C 0.74514 0.08156 0.50223 0.0
H758 H 0.86763 0.79251 0.39714 0.0
H759 H 0.86338 0.71132 0.38061 0.0
H760 H 0.90097 0.70596 0.41472 0.0
H761 H 0.93737 0.79715 0.39871 0.0
H762 H 0.93737 0.82177 0.428 0.0
H763 H 0.91028 0.81874 0.40241 0.0
H764 H 0.87856 0.81563 0.44753 0.0
H765 H 0.90554 0.81861 0.47326 0.0
H766 H 0.88393 0.79186 0.4746 0.0
H767 H 0.93937 0.71011 0.45119 0.0
H768 H 0.97454 0.72335 0.48666 0.0
H769 H 0.95265 0.80175 0.47724 0.0
C770 C 0.87479 0.77359 0.40031 0.0
C771 C 0.86281 0.75234 0.38607 0.0
C772 C 0.8723 0.72785 0.39145 0.0
C773 C 0.89366 0.72465 0.41065 0.0
C774 C 0.90511 0.74613 0.42421 0.0
C775 C 0.89593 0.7701 0.41922 0.0
C776 C 0.91124 0.79018 0.43654 0.0
C777 C 0.92488 0.808 0.41513 0.0
C778 C 0.89377 0.80493 0.45933 0.0
C779 C 0.93061 0.77383 0.4521 0.0
C780 C 0.92688 0.74847 0.44485 0.0
C781 C 0.94248 0.72993 0.45697 0.0
C782 C 0.96238 0.73761 0.47706 0.0
C783 C 0.96637 0.76357 0.48466 0.0
C784 C 0.95023 0.78175 0.47187 0.0
H785 H 0.22985 0.998 0.42058 0.0
H786 H 0.1828 0.03075 0.35118 0.0
H787 H 0.18112 0.07083 0.38115 0.0
H788 H 0.2048 0.03628 0.48737 0.0
H789 H 0.23714 0.03939 0.5029 0.0
H790 H 0.22832 0.01137 0.48075 0.0
H791 H 0.26759 0.01843 0.44537 0.0
H792 H 0.27641 0.04641 0.46724 0.0
H793 H 0.27066 0.04812 0.42742 0.0
H794 H 0.19034 0.10942 0.41454 0.0
H795 H 0.2123 0.14298 0.44594 0.0
H796 H 0.25791 0.08617 0.48896 0.0
C797 C 0.21879 0.01338 0.41174 0.0
C798 C 0.20645 0.01094 0.38335 0.0
C799 C 0.19197 0.03168 0.37308 0.0
C800 C 0.19099 0.05469 0.38995 0.0
C801 C 0.20468 0.0568 0.41698 0.0
C802 C 0.21836 0.03664 0.42776 0.0
C803 C 0.23511 0.04469 0.45447 0.0
C804 C 0.22577 0.03219 0.48307 0.0
C805 C 0.26414 0.03909 0.44822 0.0
C806 C 0.22968 0.07274 0.45617 0.0
C807 C 0.21137 0.0793 0.43511 0.0
C808 C 0.20438 0.10445 0.43142 0.0
C809 C 0.21686 0.12335 0.44927 0.0
C810 C 0.2365 0.11689 0.46975 0.0
C811 C 0.24266 0.09136 0.47358 0.0
H812 H 0.1605 0.8653 0.677 0.0
H813 H 0.18691 0.79382 0.70988 0.0
H814 H 0.15117 0.77187 0.68201 0.0
H815 H 0.09029 0.85155 0.67947 0.0
H816 H 0.08425 0.86809 0.64565 0.0
H817 H 0.1105 0.87796 0.67033 0.0
H818 H 0.14295 0.87328 0.6257 0.0
H819 H 0.11692 0.86311 0.60097 0.0
H820 H 0.1453 0.84346 0.60473 0.0
H821 H 0.11448 0.75764 0.64689 0.0
H822 H 0.07907 0.75266 0.60929 0.0
H823 H 0.07721 0.83399 0.60128 0.0
C824 C 0.15834 0.84514 0.67917 0.0
C825 C 0.17633 0.83128 0.69579 0.0
C826 C 0.17334 0.80477 0.69716 0.0
C827 C 0.15307 0.79218 0.68153 0.0
C828 C 0.13598 0.80643 0.66485 0.0
C829 C 0.13831 0.83237 0.66386 0.0
C830 C 0.11842 0.84331 0.64316 0.0
C831 C 0.09976 0.86128 0.66071 0.0
C832 C 0.1317 0.85656 0.61711 0.0
C833 C 0.10474 0.81944 0.63221 0.0
C834 C 0.115 0.79833 0.64495 0.0
C835 C 0.10608 0.77408 0.63705 0.0
C836 C 0.08607 0.77142 0.61563 0.0
C837 C 0.07532 0.79293 0.60247 0.0
C838 C 0.08481 0.81716 0.61108 0.0
H839 H 0.30906 0.28043 0.69977 0.0
H840 H 0.36252 0.33028 0.65469 0.0
H841 H 0.36239 0.30121 0.61052 0.0
H842 H 0.32941 0.22034 0.66563 0.0
H843 H 0.29644 0.20905 0.66117 0.0
H844 H 0.30444 0.2312 0.69166 0.0
H845 H 0.2686 0.26158 0.67384 0.0
H846 H 0.26057 0.23966 0.64319 0.0
H847 H 0.26926 0.27174 0.63573 0.0
H848 H 0.35495 0.2676 0.56962 0.0
H849 H 0.33793 0.234 0.53445 0.0
H850 H 0.28397 0.21076 0.60299 0.0
C851 C 0.32084 0.28558 0.68087 0.0
C852 C 0.33605 0.30795 0.68161 0.0
C853 C 0.35134 0.31307 0.65588 0.0
C854 C 0.3512 0.29673 0.63021 0.0
C855 C 0.33524 0.27553 0.63008 0.0
C856 C 0.32011 0.27009 0.65461 0.0
C857 C 0.30231 0.24782 0.64754 0.0
C858 C 0.30854 0.2258 0.6677 0.0
C859 C 0.27348 0.25568 0.65023 0.0
C860 C 0.3098 0.24161 0.61515 0.0
C861 C 0.32923 0.25749 0.60568 0.0
C862 C 0.33967 0.25512 0.57675 0.0
C863 C 0.32992 0.23604 0.55697 0.0
C864 C 0.30952 0.2201 0.56601 0.0
C865 C 0.29936 0.22297 0.59545 0.0
H866 H 0.90944 0.28804 0.7017 0.0
H867 H 0.90738 0.3603 0.75165 0.0
H868 H 0.93394 0.37916 0.71223 0.0
H869 H 0.97656 0.29348 0.67491 0.0
H870 H 0.96946 0.27825 0.63881 0.0
H871 H 0.95096 0.27022 0.67147 0.0
H872 H 0.90819 0.28109 0.64397 0.0
H873 H 0.92655 0.28936 0.61133 0.0
H874 H 0.90441 0.31191 0.62895 0.0
H875 H 0.95859 0.39068 0.66673 0.0
H876 H 0.98207 0.3939 0.6188 0.0
H877 H 0.96956 0.31384 0.59872 0.0
C878 C 0.91499 0.30771 0.70462 0.0
C879 C 0.90628 0.32274 0.72971 0.0
C880 C 0.91355 0.34853 0.73243 0.0
C881 C 0.92872 0.35938 0.71025 0.0
C882 C 0.9366 0.34415 0.6856 0.0
C883 C 0.93021 0.31884 0.68273 0.0
C884 C 0.94086 0.30684 0.6537 0.0
C885 C 0.96064 0.28597 0.66012 0.0
C886 C 0.91868 0.29671 0.63329 0.0
C887 C 0.95405 0.32944 0.6406 0.0
C888 C 0.95126 0.35075 0.65938 0.0
C889 C 0.96109 0.37411 0.6519 0.0
C890 C 0.9743 0.37574 0.62454 0.0
C891 C 0.97769 0.35411 0.60501 0.0
C892 C 0.96741 0.33066 0.61324 0.0
H893 H 0.74191 0.88821 0.74336 0.0
H894 H 0.82533 0.87421 0.73904 0.0
H895 H 0.82981 0.9062 0.70112 0.0
H896 H 0.73385 0.89626 0.66336 0.0
H897 H 0.70969 0.9208 0.66816 0.0
H898 H 0.71275 0.89717 0.69582 0.0
H899 H 0.71906 0.93228 0.73754 0.0
H900 H 0.71607 0.95602 0.71001 0.0
H901 H 0.74453 0.95535 0.73367 0.0
H902 H 0.82595 0.93957 0.66446 0.0
H903 H 0.81381 0.97169 0.62903 0.0
H904 H 0.73242 0.96389 0.65419 0.0
C905 C 0.7611 0.89181 0.73437 0.0
C906 C 0.78334 0.8789 0.74476 0.0
C907 C 0.80808 0.88426 0.73228 0.0
C908 C 0.81083 0.90229 0.71047 0.0
C909 C 0.78866 0.91479 0.70101 0.0
C910 C 0.76423 0.90976 0.71232 0.0
C911 C 0.74362 0.92575 0.69764 0.0
C912 C 0.72381 0.90899 0.68021 0.0
C913 C 0.73002 0.9434 0.72112 0.0
C914 C 0.76038 0.94055 0.67642 0.0
C915 C 0.7863 0.93388 0.67897 0.0
C916 C 0.80572 0.94493 0.66217 0.0
C917 C 0.79855 0.96326 0.64211 0.0
C918 C 0.77211 0.97043 0.6387 0.0
C919 C 0.75276 0.95883 0.65617 0.0
H920 H 0.89614 0.77265 0.71687 0.0
H921 H 0.84405 0.83542 0.70284 0.0
H922 H 0.87254 0.84942 0.66175 0.0
H923 H 0.95652 0.80461 0.7021 0.0
H924 H 0.97107 0.77757 0.68263 0.0
H925 H 0.94707 0.77316 0.7115 0.0
H926 H 0.91914 0.74599 0.67388 0.0
H927 H 0.9431 0.75023 0.64495 0.0
H928 H 0.90962 0.75883 0.63869 0.0
H929 H 0.90752 0.85685 0.62279 0.0
H930 H 0.94391 0.85505 0.58618 0.0
H931 H 0.97157 0.78604 0.62432 0.0
C932 C 0.89087 0.78941 0.70519 0.0
C933 C 0.86807 0.80309 0.71298 0.0
C934 C 0.86146 0.8247 0.69702 0.0
C935 C 0.87756 0.83282 0.67382 0.0
C936 C 0.9 0.81893 0.66669 0.0
C937 C 0.90647 0.79752 0.6817 0.0
C938 C 0.93099 0.78532 0.6689 0.0
C939 C 0.95269 0.78517 0.6927 0.0
C940 C 0.92537 0.75851 0.65582 0.0
C941 C 0.93736 0.8032 0.64435 0.0
C942 C 0.91946 0.82265 0.64364 0.0
C943 C 0.92158 0.84165 0.62307 0.0
C944 C 0.94236 0.84053 0.60245 0.0
C945 C 0.96048 0.82036 0.60232 0.0
C946 C 0.95792 0.80161 0.62372 0.0
H947 H 0.28799 0.02412 0.6514 0.0
H948 H 0.35843 0.98512 0.62179 0.0
H949 H 0.36796 0.01937 0.58738 0.0
H950 H 0.26987 0.04505 0.57987 0.0
H951 H 0.25724 0.07499 0.59412 0.0
H952 H 0.25693 0.04817 0.61754 0.0
H953 H 0.28278 0.07379 0.65861 0.0
H954 H 0.2832 0.1007 0.63526 0.0
H955 H 0.31335 0.08815 0.64901 0.0
H956 H 0.36894 0.0573 0.55512 0.0
H957 H 0.36049 0.09512 0.52613 0.0
H958 H 0.28919 0.10888 0.57696 0.0
C959 C 0.30563 0.023 0.63801 0.0
C960 C 0.32257 0.00209 0.63931 0.0
C961 C 0.34516 0.00097 0.62097 0.0
C962 C 0.35079 0.02037 0.60153 0.0
C963 C 0.3336 0.04068 0.60069 0.0
C964 C 0.31144 0.04208 0.61839 0.0
C965 C 0.29548 0.06529 0.61224 0.0
C966 C 0.26828 0.05792 0.60022 0.0
C967 C 0.2936 0.08303 0.64046 0.0
C968 C 0.31202 0.07667 0.58817 0.0
C969 C 0.33402 0.06232 0.58194 0.0
C970 C 0.35185 0.06876 0.55992 0.0
C971 C 0.34689 0.09029 0.54359 0.0
C972 C 0.32422 0.10502 0.5493 0.0
C973 C 0.30678 0.09815 0.57214 0.0
H974 H 0.18234 0.45687 0.64814 0.0
H975 H 0.17672 0.39549 0.70926 0.0
H976 H 0.13723 0.38001 0.68323 0.0
H977 H 0.11189 0.46763 0.64196 0.0
H978 H 0.11332 0.47419 0.6026 0.0
H979 H 0.14089 0.48132 0.62657 0.0
H980 H 0.17048 0.45397 0.59093 0.0
H981 H 0.143 0.44671 0.56691 0.0
H982 H 0.1618 0.42153 0.58208 0.0
H983 H 0.10068 0.36928 0.64952 0.0
H984 H 0.06654 0.36502 0.61091 0.0
H985 H 0.09333 0.43396 0.57166 0.0
C986 C 0.17259 0.44033 0.65611 0.0
C987 C 0.18238 0.42759 0.68101 0.0
C988 C 0.16925 0.40588 0.6907 0.0
C989 C 0.1469 0.39682 0.67593 0.0
C990 C 0.13774 0.40972 0.65155 0.0
C991 C 0.14992 0.43111 0.64175 0.0
C992 C 0.13584 0.44107 0.61467 0.0
C993 C 0.12483 0.46763 0.62189 0.0
C994 C 0.15386 0.44079 0.58701 0.0
C995 C 0.11415 0.42169 0.61067 0.0
C996 C 0.11585 0.40377 0.63221 0.0
C997 C 0.09894 0.38329 0.63268 0.0
C998 C 0.0797 0.38099 0.61055 0.0
C999 C 0.07726 0.39918 0.58836 0.0
C1000 C 0.0946 0.41994 0.58857 0.0
H1001 H 0.74478 0.15027 0.75028 0.0
H1002 H 0.7761 0.21339 0.70301 0.0
H1003 H 0.78712 0.18481 0.65973 0.0
H1004 H 0.79101 0.10571 0.72767 0.0
H1005 H 0.76889 0.07947 0.72233 0.0
H1006 H 0.76105 0.10501 0.74883 0.0
H1007 H 0.71717 0.11239 0.72179 0.0
H1008 H 0.72452 0.0864 0.69567 0.0
H1009 H 0.71703 0.11704 0.6819 0.0
H1010 H 0.8008 0.14872 0.62522 0.0
H1011 H 0.8072 0.10826 0.59611 0.0
H1012 H 0.764 0.06913 0.6637 0.0
C1013 C 0.7533 0.1581 0.73046 0.0
C1014 C 0.75963 0.18398 0.72996 0.0
C1015 C 0.77088 0.19364 0.70375 0.0
C1016 C 0.77746 0.17753 0.67916 0.0
C1017 C 0.77213 0.15193 0.68095 0.0
C1018 C 0.75952 0.14235 0.70545 0.0
C1019 C 0.75604 0.11405 0.70157 0.0
C1020 C 0.77009 0.10026 0.72659 0.0
C1021 C 0.72696 0.10706 0.70013 0.0
C1022 C 0.76926 0.1092 0.67146 0.0
C1023 C 0.77876 0.13125 0.66017 0.0
C1024 C 0.79304 0.13136 0.6335 0.0
C1025 C 0.79687 0.10834 0.61736 0.0
C1026 C 0.78606 0.08582 0.62781 0.0
C1027 C 0.77234 0.08623 0.6553 0.0
H1028 H 0.87313 0.33865 0.38667 0.0
H1029 H 0.8167 0.38237 0.44046 0.0
H1030 H 0.85248 0.40444 0.46668 0.0
H1031 H 0.9123 0.32645 0.44862 0.0
H1032 H 0.94253 0.32676 0.42795 0.0
H1033 H 0.91275 0.3181 0.4089 0.0
H1034 H 0.92073 0.35301 0.37094 0.0
H1035 H 0.95049 0.36194 0.39011 0.0
H1036 H 0.92551 0.3852 0.38466 0.0
H1037 H 0.89461 0.42021 0.48993 0.0
H1038 H 0.93856 0.42328 0.51288 0.0
H1039 H 0.96631 0.36476 0.44965 0.0
C1040 C 0.86792 0.35277 0.4039 0.0
C1041 C 0.84154 0.35871 0.41073 0.0
C1042 C 0.83639 0.37776 0.43351 0.0
C1043 C 0.85672 0.39044 0.4489 0.0
C1044 C 0.88229 0.38369 0.44186 0.0
C1045 C 0.8879 0.36497 0.42025 0.0
C1046 C 0.91671 0.35871 0.41978 0.0
C1047 C 0.92133 0.33087 0.42674 0.0
C1048 C 0.92908 0.36511 0.38957 0.0
C1049 C 0.92631 0.3764 0.44503 0.0
C1050 C 0.90632 0.39127 0.45684 0.0
C1051 C 0.91043 0.40874 0.48078 0.0
C1052 C 0.93543 0.41048 0.49356 0.0
C1053 C 0.95566 0.39432 0.48288 0.0
C1054 C 0.95112 0.37742 0.45803 0.0
H1055 H 0.7605 0.86873 0.43662 0.0
H1056 H 0.83416 0.8772 0.3903 0.0
H1057 H 0.84471 0.91426 0.424 0.0
H1058 H 0.74593 0.93278 0.44428 0.0
H1059 H 0.73109 0.93137 0.4809 0.0
H1060 H 0.73077 0.90399 0.4555 0.0
H1061 H 0.75316 0.87752 0.49574 0.0
H1062 H 0.75329 0.90477 0.52145 0.0
H1063 H 0.78333 0.88847 0.51247 0.0
H1064 H 0.84562 0.95207 0.46091 0.0
H1065 H 0.83688 0.98732 0.49796 0.0
H1066 H 0.76211 0.95377 0.51856 0.0
C1067 C 0.77917 0.87796 0.43413 0.0
C1068 C 0.79667 0.87006 0.41117 0.0
C1069 C 0.82055 0.88305 0.40789 0.0
C1070 C 0.82671 0.90401 0.42693 0.0
C1071 C 0.80872 0.91167 0.44899 0.0
C1072 C 0.78548 0.89895 0.45271 0.0
C1073 C 0.76868 0.91184 0.47668 0.0
C1074 C 0.74259 0.92051 0.46354 0.0
C1075 C 0.76437 0.89462 0.50316 0.0
C1076 C 0.78587 0.93405 0.48557 0.0
C1077 C 0.80899 0.93357 0.46962 0.0
C1078 C 0.82765 0.95255 0.47368 0.0
C1079 C 0.8225 0.9725 0.49468 0.0
C1080 C 0.7988 0.97333 0.51106 0.0
C1081 C 0.78039 0.95377 0.50636 0.0
H1082 H 0.14489 0.89714 0.39667 0.0
H1083 H 0.14658 0.83107 0.33565 0.0
H1084 H 0.11556 0.80942 0.36847 0.0
H1085 H 0.14066 0.86485 0.46552 0.0
H1086 H 0.11833 0.88713 0.48334 0.0
H1087 H 0.14075 0.89736 0.4552 0.0
H1088 H 0.10223 0.91432 0.42437 0.0
H1089 H 0.07968 0.9042 0.45246 0.0
H1090 H 0.07574 0.89345 0.41372 0.0
H1091 H 0.08649 0.79422 0.40925 0.0
H1092 H 0.05793 0.78767 0.45294 0.0
H1093 H 0.07244 0.86469 0.48586 0.0
C1094 C 0.13865 0.87812 0.39031 0.0
C1095 C 0.14809 0.86565 0.36377 0.0
C1096 C 0.13941 0.8409 0.35586 0.0
C1097 C 0.12192 0.82847 0.3744 0.0
C1098 C 0.11302 0.84122 0.40051 0.0
C1099 C 0.12079 0.86561 0.40828 0.0
C1100 C 0.10775 0.87524 0.43718 0.0
C1101 C 0.12809 0.88151 0.46176 0.0
C1102 C 0.09031 0.89816 0.43158 0.0
C1103 C 0.09166 0.85235 0.4446 0.0
C1104 C 0.09523 0.83285 0.4233 0.0
C1105 C 0.08333 0.80943 0.4259 0.0
C1106 C 0.06723 0.80586 0.45084 0.0
C1107 C 0.06285 0.82572 0.47261 0.0
C1108 C 0.07518 0.84928 0.46933 0.0
H1109 H 0.2509 0.29887 0.3554 0.0
H1110 H 0.30411 0.27279 0.28483 0.0
H1111 H 0.319 0.23847 0.31665 0.0
H1112 H 0.29248 0.28756 0.41749 0.0
H1113 H 0.26662 0.27709 0.44139 0.0
H1114 H 0.25976 0.29915 0.4128 0.0
H1115 H 0.22436 0.26907 0.39015 0.0
H1116 H 0.231 0.24697 0.41877 0.0
H1117 H 0.23282 0.23686 0.3796 0.0
H1118 H 0.32955 0.20843 0.35725 0.0
H1119 H 0.33277 0.18282 0.40213 0.0
H1120 H 0.27169 0.22798 0.44554 0.0
C1121 C 0.26566 0.28589 0.34666 0.0
C1122 C 0.27642 0.28843 0.31772 0.0
C1123 C 0.29548 0.27098 0.30686 0.0
C1124 C 0.30415 0.25156 0.32482 0.0
C1125 C 0.29336 0.24977 0.35342 0.0
C1126 C 0.27433 0.2663 0.36414 0.0
C1127 C 0.26576 0.26019 0.39556 0.0
C1128 C 0.27151 0.28231 0.41814 0.0
C1129 C 0.23677 0.25283 0.39603 0.0
C1130 C 0.2831 0.23774 0.40098 0.0
C1131 C 0.29898 0.23212 0.37647 0.0
C1132 C 0.31709 0.21254 0.37649 0.0
C1133 C 0.31884 0.19817 0.40213 0.0
C1134 C 0.30243 0.20334 0.4273 0.0
C1135 C 0.28439 0.22345 0.42661 0.0
H1136 H 0.65846 0.84543 0.87577 0.0
H1137 H 0.71983 0.87786 0.93264 0.0
H1138 H 0.68691 0.90168 0.96235 0.0
H1139 H 0.61136 0.89831 0.88152 0.0
H1140 H 0.5841 0.87708 0.88428 0.0
H1141 H 0.61258 0.86738 0.86299 0.0
H1142 H 0.61704 0.82782 0.89485 0.0
H1143 H 0.58858 0.83731 0.91601 0.0
H1144 H 0.61881 0.83177 0.93525 0.0
H1145 H 0.64679 0.91824 0.98991 0.0
H1146 H 0.60382 0.92167 0.01544 0.0
H1147 H 0.56957 0.87404 0.94444 0.0
C1148 C 0.66524 0.8576 0.89429 0.0
C1149 C 0.69206 0.85964 0.90147 0.0
C1150 C 0.69964 0.87625 0.92585 0.0
C1151 C 0.68099 0.88987 0.94309 0.0
C1152 C 0.65473 0.88663 0.93595 0.0
C1153 C 0.6469 0.87069 0.91223 0.0
C1154 C 0.61762 0.86736 0.91184 0.0
C1155 C 0.60572 0.87819 0.88347 0.0
C1156 C 0.61008 0.83942 0.91468 0.0
C1157 C 0.61023 0.88314 0.93971 0.0
C1158 C 0.63175 0.89484 0.95279 0.0
C1159 C 0.62978 0.90943 0.97964 0.0
C1160 C 0.60534 0.9114 0.99392 0.0
C1161 C 0.58357 0.89828 0.98164 0.0
C1162 C 0.58597 0.88449 0.95395 0.0
H1163 H 0.29588 0.80024 0.85385 0.0
H1164 H 0.214 0.80893 0.83251 0.0
H1165 H 0.20258 0.77797 0.87046 0.0
H1166 H 0.29425 0.73349 0.86521 0.0
H1167 H 0.31717 0.73542 0.89589 0.0
H1168 H 0.31859 0.75804 0.86693 0.0
H1169 H 0.31463 0.79461 0.90735 0.0
H1170 H 0.31312 0.77211 0.93644 0.0
H1171 H 0.28751 0.79511 0.93319 0.0
H1172 H 0.20044 0.74532 0.91073 0.0
H1173 H 0.2078 0.71482 0.95047 0.0
H1174 H 0.29105 0.72862 0.94519 0.0
C1175 C 0.27556 0.79545 0.85694 0.0
C1176 C 0.25582 0.80688 0.84017 0.0
C1177 C 0.22941 0.80048 0.84528 0.0
C1178 C 0.22276 0.78286 0.86668 0.0
C1179 C 0.24274 0.77195 0.88287 0.0
C1180 C 0.26859 0.77809 0.87828 0.0
C1181 C 0.28639 0.76408 0.89886 0.0
C1182 C 0.3052 0.74673 0.88063 0.0
C1183 C 0.30128 0.78258 0.92022 0.0
C1184 C 0.26656 0.74899 0.91569 0.0
C1185 C 0.24148 0.75366 0.90617 0.0
C1186 C 0.22002 0.74158 0.9184 0.0
C1187 C 0.22437 0.72428 0.94093 0.0
C1188 C 0.24996 0.71937 0.95105 0.0
C1189 C 0.2712 0.732 0.93815 0.0
H1190 H 0.42264 0.3785 0.85356 0.0
H1191 H 0.3505 0.34923 0.89008 0.0
H1192 H 0.37543 0.32811 0.92846 0.0
H1193 H 0.46453 0.32661 0.86834 0.0
H1194 H 0.49171 0.34609 0.88035 0.0
H1195 H 0.46864 0.35752 0.85366 0.0
H1196 H 0.4601 0.39723 0.88836 0.0
H1197 H 0.48333 0.38605 0.91501 0.0
H1198 H 0.4505 0.39346 0.92689 0.0
H1199 H 0.40799 0.30871 0.96213 0.0
H1200 H 0.44554 0.29784 0.99375 0.0
H1201 H 0.49581 0.34436 0.94067 0.0
C1202 C 0.41185 0.36793 0.86965 0.0
C1203 C 0.38437 0.36514 0.86772 0.0
C1204 C 0.3715 0.35093 0.88969 0.0
C1205 C 0.3855 0.33897 0.912 0.0
C1206 C 0.41241 0.34184 0.91283 0.0
C1207 C 0.42543 0.35644 0.89274 0.0
C1208 C 0.4543 0.3579 0.90009 0.0
C1209 C 0.47076 0.34634 0.87406 0.0
C1210 C 0.46253 0.38529 0.90807 0.0
C1211 C 0.45538 0.34176 0.92738 0.0
C1212 C 0.43104 0.33227 0.93391 0.0
C1213 C 0.42711 0.31619 0.95742 0.0
C1214 C 0.44856 0.30999 0.97512 0.0
C1215 C 0.47347 0.32031 0.96964 0.0
C1216 C 0.47691 0.33634 0.94539 0.0
H1217 H 0.81434 0.37058 0.93553 0.0
H1218 H 0.84587 0.31617 0.99602 0.0
H1219 H 0.86438 0.3513 0.02768 0.0
H1220 H 0.86538 0.41777 0.9427 0.0
H1221 H 0.84233 0.44335 0.94184 0.0
H1222 H 0.83522 0.41361 0.92231 0.0
H1223 H 0.79163 0.41121 0.95222 0.0
H1224 H 0.7991 0.44078 0.97167 0.0
H1225 H 0.79247 0.41324 0.99276 0.0
H1226 H 0.87805 0.39298 0.0536 0.0
H1227 H 0.8797 0.43688 0.07539 0.0
H1228 H 0.8351 0.46255 8e-05 0.0
C1229 C 0.82474 0.36581 0.95564 0.0
C1230 C 0.82839 0.34048 0.96334 0.0
C1231 C 0.84294 0.33538 0.98945 0.0
C1232 C 0.85359 0.35521 0.00752 0.0
C1233 C 0.84944 0.37995 0.99918 0.0
C1234 C 0.835 0.38521 0.97407 0.0
C1235 C 0.83103 0.41323 0.97131 0.0
C1236 C 0.84428 0.42252 0.94284 0.0
C1237 C 0.80183 0.42 0.97206 0.0
C1238 C 0.8449 0.42303 0.99932 0.0
C1239 C 0.85613 0.40367 0.01468 0.0
C1240 C 0.86948 0.40827 0.04166 0.0
C1241 C 0.87051 0.43319 0.05373 0.0
C1242 C 0.85773 0.4528 0.03907 0.0
C1243 C 0.84528 0.44776 0.01134 0.0
H1244 H 0.64759 0.27702 0.20851 0.0
H1245 H 0.66932 0.35576 0.2225 0.0
H1246 H 0.64262 0.36656 0.17861 0.0
H1247 H 0.64783 0.27548 0.127 0.0
H1248 H 0.62005 0.25472 0.12376 0.0
H1249 H 0.64149 0.25328 0.15566 0.0
H1250 H 0.6022 0.26065 0.19168 0.0
H1251 H 0.58066 0.26215 0.15991 0.0
H1252 H 0.58174 0.28795 0.18768 0.0
H1253 H 0.61297 0.36863 0.1332 0.0
H1254 H 0.582 0.36194 0.091 0.0
H1255 H 0.57973 0.28186 0.10756 0.0
C1256 C 0.64699 0.29649 0.20211 0.0
C1257 C 0.66058 0.31555 0.21884 0.0
C1258 C 0.6589 0.34089 0.21011 0.0
C1259 C 0.6439 0.34718 0.18515 0.0
C1260 C 0.63064 0.32791 0.16922 0.0
C1261 C 0.63202 0.30309 0.17742 0.0
C1262 C 0.61537 0.28603 0.15716 0.0
C1263 C 0.63219 0.26621 0.13987 0.0
C1264 C 0.59371 0.27346 0.17519 0.0
C1265 C 0.60431 0.30511 0.13632 0.0
C1266 C 0.61343 0.32915 0.14349 0.0
C1267 C 0.60573 0.34987 0.12738 0.0
C1268 C 0.58815 0.34589 0.10343 0.0
C1269 C 0.57838 0.3214 0.09595 0.0
C1270 C 0.58676 0.30083 0.11266 0.0
H1271 H 0.80615 0.64548 0.25331 0.0
H1272 H 0.8441 0.70486 0.20478 0.0
H1273 H 0.86437 0.67288 0.17109 0.0
H1274 H 0.85514 0.59499 0.24069 0.0
H1275 H 0.83041 0.57126 0.23395 0.0
H1276 H 0.82396 0.59808 0.25922 0.0
H1277 H 0.78299 0.60876 0.22817 0.0
H1278 H 0.78931 0.58206 0.20288 0.0
H1279 H 0.78625 0.61315 0.18839 0.0
H1280 H 0.87727 0.63507 0.13919 0.0
H1281 H 0.8774 0.59487 0.10848 0.0
H1282 H 0.82545 0.56164 0.17256 0.0
C1283 C 0.8188 0.652 0.23583 0.0
C1284 C 0.82361 0.67801 0.2324 0.0
C1285 C 0.84063 0.68522 0.20905 0.0
C1286 C 0.85221 0.66712 0.18946 0.0
C1287 C 0.84632 0.64183 0.193 0.0
C1288 C 0.82974 0.63429 0.21538 0.0
C1289 C 0.82325 0.6065 0.2115 0.0
C1290 C 0.83383 0.59184 0.23791 0.0
C1291 C 0.79371 0.6024 0.20748 0.0
C1292 C 0.83801 0.59985 0.18282 0.0
C1293 C 0.85196 0.62027 0.1731 0.0
C1294 C 0.86661 0.61888 0.14667 0.0
C1295 C 0.8666 0.5961 0.12943 0.0
C1296 C 0.8514 0.57553 0.13838 0.0
C1297 C 0.8372 0.57729 0.16547 0.0
H1298 H 0.3665 0.95826 0.1612 0.0
H1299 H 0.35134 0.88355 0.19318 0.0
H1300 H 0.3855 0.86572 0.15953 0.0
H1301 H 0.38097 0.93859 0.08335 0.0
H1302 H 0.40696 0.96109 0.07947 0.0
H1303 H 0.3804 0.96815 0.10502 0.0
H1304 H 0.41321 0.97564 0.14872 0.0
H1305 H 0.43986 0.96863 0.1233 0.0
H1306 H 0.43623 0.95119 0.15691 0.0
H1307 H 0.42075 0.85586 0.12361 0.0
H1308 H 0.45748 0.85424 0.08828 0.0
H1309 H 0.4523 0.93549 0.07983 0.0
C1310 C 0.37045 0.93818 0.16089 0.0
C1311 C 0.35651 0.92218 0.17972 0.0
C1312 C 0.36206 0.89602 0.17901 0.0
C1313 C 0.3813 0.88574 0.15992 0.0
C1314 C 0.39494 0.90193 0.14183 0.0
C1315 C 0.39 0.92758 0.14216 0.0
C1316 C 0.40842 0.94067 0.12112 0.0
C1317 C 0.39328 0.95284 0.09573 0.0
C1318 C 0.42544 0.96018 0.13856 0.0
C1319 C 0.42449 0.91834 0.10915 0.0
C1320 C 0.41607 0.89621 0.12127 0.0
C1321 C 0.42757 0.87302 0.11391 0.0
C1322 C 0.44844 0.87234 0.09373 0.0
C1323 C 0.45784 0.89475 0.08122 0.0
C1324 C 0.44559 0.91807 0.08902 0.0
H1325 H 0.21102 0.5209 0.1448 0.0
H1326 H 0.29229 0.5077 0.1665 0.0
H1327 H 0.30521 0.54339 0.13644 0.0
H1328 H 0.22241 0.53756 0.06779 0.0
H1329 H 0.19768 0.56173 0.06813 0.0
H1330 H 0.19428 0.53524 0.09183 0.0
H1331 H 0.18969 0.56587 0.13855 0.0
H1332 H 0.19311 0.59245 0.115 0.0
H1333 H 0.2147 0.58911 0.14649 0.0
H1334 H 0.30987 0.57974 0.10504 0.0
H1335 H 0.30646 0.61543 0.07225 0.0
H1336 H 0.22229 0.60601 0.06864 0.0
C1337 C 0.23151 0.52557 0.14314 0.0
C1338 C 0.25062 0.5118 0.15846 0.0
C1339 C 0.27725 0.51839 0.15567 0.0
C1340 C 0.28483 0.5385 0.13845 0.0
C1341 C 0.26559 0.55183 0.12396 0.0
C1342 C 0.2395 0.54573 0.12592 0.0
C1343 C 0.22301 0.56333 0.10773 0.0
C1344 C 0.20849 0.54858 0.08236 0.0
C1345 C 0.20401 0.57859 0.12817 0.0
C1346 C 0.24402 0.58016 0.09528 0.0
C1347 C 0.26836 0.57306 0.10512 0.0
C1348 C 0.29095 0.58553 0.09712 0.0
C1349 C 0.28873 0.60587 0.07847 0.0
C1350 C 0.26407 0.61364 0.06783 0.0
C1351 C 0.24139 0.60054 0.07638 0.0
H1352 H 0.36058 0.35583 0.14487 0.0
H1353 H 0.35867 0.29739 0.20987 0.0
H1354 H 0.39841 0.27806 0.18674 0.0
H1355 H 0.38217 0.31777 0.0817 0.0
H1356 H 0.40312 0.34172 0.06729 0.0
H1357 H 0.37472 0.35072 0.08905 0.0
H1358 H 0.40356 0.37743 0.12615 0.0
H1359 H 0.43206 0.36859 0.10447 0.0
H1360 H 0.43082 0.36279 0.14405 0.0
H1361 H 0.43674 0.26395 0.15417 0.0
H1362 H 0.47304 0.25818 0.1178 0.0
H1363 H 0.45119 0.32774 0.07659 0.0
C1364 C 0.36861 0.33896 0.15416 0.0
C1365 C 0.35667 0.32784 0.17887 0.0
C1366 C 0.36771 0.30603 0.19088 0.0
C1367 C 0.39015 0.29497 0.17786 0.0
C1368 C 0.40139 0.30628 0.15326 0.0
C1369 C 0.39117 0.328 0.14182 0.0
C1370 C 0.40717 0.33678 0.11569 0.0
C1371 C 0.39081 0.33673 0.08672 0.0
C1372 C 0.41911 0.36294 0.12304 0.0
C1373 C 0.42785 0.31644 0.11391 0.0
C1374 C 0.42407 0.29888 0.13556 0.0
C1375 C 0.44007 0.27774 0.13736 0.0
C1376 C 0.46054 0.27457 0.11658 0.0
C1377 C 0.465 0.29265 0.09466 0.0
C1378 C 0.44846 0.31384 0.09344 0.0
H1379 H 0.75015 0.3768 0.22141 0.0
H1380 H 0.79658 0.40508 0.29688 0.0
H1381 H 0.81253 0.44006 0.2666 0.0
H1382 H 0.79486 0.39106 0.16286 0.0
H1383 H 0.77011 0.40078 0.13709 0.0
H1384 H 0.76245 0.37804 0.16465 0.0
H1385 H 0.7245 0.40633 0.18468 0.0
H1386 H 0.73203 0.42917 0.15715 0.0
H1387 H 0.73092 0.43871 0.19653 0.0
H1388 H 0.82571 0.46994 0.22697 0.0
H1389 H 0.83227 0.49522 0.18214 0.0
H1390 H 0.77431 0.44996 0.13369 0.0
C1391 C 0.76362 0.39047 0.23143 0.0
C1392 C 0.77235 0.38837 0.26129 0.0
C1393 C 0.78978 0.40654 0.27398 0.0
C1394 C 0.79892 0.42637 0.25696 0.0
C1395 C 0.79006 0.42794 0.22749 0.0
C1396 C 0.77252 0.41069 0.21494 0.0
C1397 C 0.76571 0.417 0.18297 0.0
C1398 C 0.77377 0.39544 0.16058 0.0
C1399 C 0.73656 0.42317 0.18018 0.0
C1400 C 0.78242 0.44027 0.17937 0.0
C1401 C 0.79652 0.44608 0.20522 0.0
C1402 C 0.8145 0.46582 0.20676 0.0
C1403 C 0.81815 0.48 0.18122 0.0
C1404 C 0.80355 0.47469 0.15474 0.0
C1405 C 0.78532 0.4547 0.15391 0.0
H1406 H 0.64274 0.78652 0.18135 0.0
H1407 H 0.62442 0.84497 0.24933 0.0
H1408 H 0.59051 0.86178 0.21605 0.0
H1409 H 0.63805 0.82326 0.11961 0.0
H1410 H 0.6233 0.79952 0.09484 0.0
H1411 H 0.64369 0.79024 0.12528 0.0
H1412 H 0.60627 0.76296 0.14572 0.0
H1413 H 0.58579 0.7719 0.11508 0.0
H1414 H 0.57489 0.77716 0.15338 0.0
H1415 H 0.56367 0.87555 0.17284 0.0
H1416 H 0.54207 0.88297 0.12445 0.0
H1417 H 0.57648 0.81418 0.08557 0.0
C1418 C 0.63114 0.80252 0.18939 0.0
C1419 C 0.63594 0.81454 0.21772 0.0
C1420 C 0.62066 0.83547 0.22771 0.0
C1421 C 0.6015 0.84513 0.20897 0.0
C1422 C 0.59773 0.83328 0.1807 0.0
C1423 C 0.61178 0.81215 0.17117 0.0
C1424 C 0.60489 0.80366 0.13927 0.0
C1425 C 0.62891 0.80422 0.11854 0.0
C1426 C 0.5922 0.77736 0.13832 0.0
C1427 C 0.58543 0.82386 0.13193 0.0
C1428 C 0.58157 0.84076 0.15612 0.0
C1429 C 0.56609 0.86217 0.15395 0.0
C1430 C 0.5541 0.86632 0.12636 0.0
C1431 C 0.55754 0.84902 0.1015 0.0
C1432 C 0.57321 0.82745 0.10443 0.0
H1433 H 0.21186 0.7908 0.18413 0.0
H1434 H 0.28673 0.80389 0.2276 0.0
H1435 H 0.30772 0.77565 0.18961 0.0
H1436 H 0.22349 0.72426 0.16055 0.0
H1437 H 0.20674 0.72723 0.1253 0.0
H1438 H 0.19717 0.74657 0.15778 0.0
H1439 H 0.20391 0.78666 0.12741 0.0
H1440 H 0.21392 0.76752 0.09499 0.0
H1441 H 0.23507 0.7921 0.11009 0.0
H1442 H 0.32161 0.74977 0.14377 0.0
H1443 H 0.3263 0.72379 0.09655 0.0
H1444 H 0.24262 0.72735 0.08293 0.0
C1445 C 0.2326 0.78746 0.18597 0.0
C1446 C 0.2475 0.79962 0.20909 0.0
C1447 C 0.27463 0.79454 0.2106 0.0
C1448 C 0.28688 0.77868 0.18887 0.0
C1449 C 0.27179 0.76786 0.16578 0.0
C1450 C 0.24517 0.77165 0.16445 0.0
C1451 C 0.23358 0.7583 0.13678 0.0
C1452 C 0.2141 0.73787 0.14564 0.0
C1453 C 0.22088 0.77728 0.1161 0.0
C1454 C 0.2579 0.74673 0.12259 0.0
C1455 C 0.27975 0.75258 0.13958 0.0
C1456 C 0.30459 0.74479 0.13044 0.0
C1457 C 0.30709 0.73018 0.10349 0.0
C1458 C 0.28484 0.72343 0.08611 0.0
C1459 C 0.25999 0.73202 0.09581 0.0
H1460 H 0.38642 0.90012 0.86698 0.0
H1461 H 0.38641 0.82395 0.82709 0.0
H1462 H 0.42029 0.8117 0.86329 0.0
H1463 H 0.45512 0.90417 0.87978 0.0
H1464 H 0.45191 0.92221 0.91491 0.0
H1465 H 0.42743 0.92466 0.88622 0.0
H1466 H 0.39168 0.91226 0.92409 0.0
H1467 H 0.41603 0.9099 0.95293 0.0
H1468 H 0.39506 0.8834 0.94369 0.0
H1469 H 0.45362 0.80791 0.90454 0.0
H1470 H 0.48442 0.813 0.9471 0.0
H1471 H 0.46284 0.89209 0.9584 0.0
C1472 C 0.39339 0.88081 0.86609 0.0
C1473 C 0.38384 0.86289 0.8445 0.0
C1474 C 0.39367 0.83791 0.84352 0.0
C1475 C 0.4128 0.83081 0.86396 0.0
C1476 C 0.42191 0.849 0.88495 0.0
C1477 C 0.41257 0.8735 0.88607 0.0
C1478 C 0.42577 0.88958 0.91044 0.0
C1479 C 0.44096 0.91144 0.89702 0.0
C1480 C 0.40595 0.89935 0.93419 0.0
C1481 C 0.44394 0.87029 0.92299 0.0
C1482 C 0.44141 0.84697 0.90811 0.0
C1483 C 0.45586 0.8261 0.91628 0.0
C1484 C 0.47327 0.82917 0.94045 0.0
C1485 C 0.47609 0.85296 0.95591 0.0
C1486 C 0.46131 0.87372 0.94685 0.0
H1487 H 0.29556 0.51702 0.87801 0.0
H1488 H 0.37869 0.52049 0.86114 0.0
H1489 H 0.38129 0.56045 0.89221 0.0
H1490 H 0.28365 0.58279 0.87333 0.0
H1491 H 0.25922 0.58402 0.90251 0.0
H1492 H 0.26429 0.55526 0.88018 0.0
H1493 H 0.27222 0.5308 0.92849 0.0
H1494 H 0.26688 0.5594 0.95103 0.0
H1495 H 0.2967 0.54188 0.95496 0.0
H1496 H 0.37431 0.60028 0.92544 0.0
H1497 H 0.35846 0.63631 0.95783 0.0
H1498 H 0.27972 0.60662 0.95083 0.0
C1499 C 0.3144 0.52594 0.88134 0.0
C1500 C 0.33701 0.51557 0.86762 0.0
C1501 C 0.36118 0.52816 0.87167 0.0
C1502 C 0.36282 0.55081 0.88922 0.0
C1503 C 0.34004 0.56067 0.90224 0.0
C1504 C 0.3163 0.54861 0.89845 0.0
C1505 C 0.29456 0.56335 0.914 0.0
C1506 C 0.27424 0.57186 0.89114 0.0
C1507 C 0.28185 0.54794 0.93858 0.0
C1508 C 0.30975 0.58555 0.9274 0.0
C1509 C 0.33596 0.58373 0.92046 0.0
C1510 C 0.35381 0.60192 0.93094 0.0
C1511 C 0.34463 0.62233 0.94927 0.0
C1512 C 0.31785 0.62438 0.95677 0.0
C1513 C 0.30029 0.60579 0.94536 0.0
H1514 H 0.67018 0.26715 0.88355 0.0
H1515 H 0.71158 0.21579 0.94043 0.0
H1516 H 0.67157 0.21013 0.96957 0.0
H1517 H 0.6404 0.29983 0.94436 0.0
H1518 H 0.61072 0.30625 0.92445 0.0
H1519 H 0.64084 0.30224 0.90408 0.0
H1520 H 0.61978 0.26671 0.8703 0.0
H1521 H 0.58959 0.27052 0.89074 0.0
H1522 H 0.60509 0.24 0.88743 0.0
H1523 H 0.62761 0.21205 0.99494 0.0
H1524 H 0.5859 0.22587 0.01833 0.0
H1525 H 0.57624 0.28092 0.95005 0.0
C1526 C 0.67124 0.25474 0.90212 0.0
C1527 C 0.69452 0.24183 0.90916 0.0
C1528 C 0.69415 0.22543 0.93357 0.0
C1529 C 0.67142 0.22216 0.95055 0.0
C1530 C 0.64921 0.23571 0.94333 0.0
C1531 C 0.64911 0.25198 0.91998 0.0
C1532 C 0.62399 0.26695 0.91928 0.0
C1533 C 0.62932 0.2955 0.92329 0.0
C1534 C 0.60871 0.26066 0.89021 0.0
C1535 C 0.6102 0.25698 0.94637 0.0
C1536 C 0.62469 0.23837 0.95936 0.0
C1537 C 0.61607 0.22654 0.9849 0.0
C1538 C 0.59235 0.23441 0.99794 0.0
C1539 C 0.578 0.25439 0.9859 0.0
C1540 C 0.58688 0.26554 0.95958 0.0
H1541 H 0.81554 0.67115 0.95611 0.0
H1542 H 0.77957 0.6314 0.87917 0.0
H1543 H 0.77922 0.59241 0.90691 0.0
H1544 H 0.8588 0.61898 0.97335 0.0
H1545 H 0.85691 0.62565 0.01338 0.0
H1546 H 0.85354 0.65089 0.98785 0.0
H1547 H 0.8091 0.66302 0.01213 0.0
H1548 H 0.81225 0.63774 0.03759 0.0
H1549 H 0.78386 0.63947 0.01395 0.0
H1550 H 0.77982 0.55811 0.9445 0.0
H1551 H 0.78635 0.53008 0.98702 0.0
H1552 H 0.82728 0.59019 0.03637 0.0
C1553 C 0.80797 0.65429 0.94464 0.0
C1554 C 0.7971 0.65492 0.91535 0.0
C1555 C 0.78719 0.63208 0.90185 0.0
C1556 C 0.78714 0.60958 0.91734 0.0
C1557 C 0.79767 0.60984 0.94616 0.0
C1558 C 0.8084 0.63146 0.95945 0.0
C1559 C 0.81926 0.62643 0.99032 0.0
C1560 C 0.84889 0.63074 0.99127 0.0
C1561 C 0.80528 0.64263 0.01495 0.0
C1562 C 0.81263 0.59867 0.99244 0.0
C1563 C 0.79984 0.58955 0.96688 0.0
C1564 C 0.79023 0.56492 0.96439 0.0
C1565 C 0.79394 0.54917 0.9886 0.0
C1566 C 0.80763 0.55794 0.01455 0.0
C1567 C 0.8172 0.58294 0.01641 0.0
loop_
_geom_bond_atom_site_label_1
_geom_bond_atom_site_label_2
_geom_bond_distance
_geom_bond_site_symmetry_2
_ccdc_geom_bond_type
H0 O26 0.856 . S
H1 O29 0.854 . S
H2 C37 0.930 . S
H3 C38 0.930 . S
H4 C40 0.930 . S
H5 C41 0.930 . S
H6 C43 0.931 . S
H7 C44 0.930 . S
H8 C46 0.930 . S
H9 C47 0.929 . S
H10 C49 0.930 . S
H11 C50 0.931 . S
H12 C52 0.930 . S
H13 C53 0.929 . S
H14 C55 0.931 . S
H15 C56 0.930 . S
H16 C58 0.930 . S
H17 C59 0.932 . S
H18 C61 0.930 . S
H19 C62 0.929 . S
H20 C64 0.931 . S
H21 C65 0.930 . S
H22 C67 0.929 . S
H23 C68 0.931 . S
H24 C70 0.930 . S
H25 C71 0.929 . S
O26 H0 0.856 . S
O26 C72 1.300 . S
O27 C72 1.209 . S
O28 C73 1.199 . S
O29 H1 0.854 . S
O29 C73 1.297 . S
C30 C31 1.404 . S
C30 C35 1.397 . S
C30 C36 1.492 . S
C31 C30 1.404 . S
C31 C32 1.396 . S
C31 C42 1.492 . S
C32 C31 1.396 . S
C32 C33 1.397 . S
C32 C48 1.509 . S
C33 C32 1.397 . S
C33 C34 1.412 . S
C33 C54 1.485 . S
C34 C33 1.412 . S
C34 C35 1.388 . S
C34 C60 1.490 . S
C35 C30 1.397 . S
C35 C34 1.388 . S
C35 C66 1.519 . S
C36 C30 1.492 . S
C36 C37 1.363 . S
C36 C41 1.390 . S
C37 H2 0.930 . S
C37 C36 1.363 . S
C37 C38 1.372 . S
C38 H3 0.930 . S
C38 C37 1.372 . S
C38 C39 1.383 . S
C39 C38 1.383 . S
C39 C40 1.395 . S
C40 H4 0.930 . S
C40 C39 1.395 . S
C40 C41 1.362 . S
C41 H5 0.930 . S
C41 C36 1.390 . S
C41 C40 1.362 . S
C42 C31 1.492 . S
C42 C43 1.377 . S
C42 C47 1.397 . S
C43 H6 0.931 . S
C43 C42 1.377 . S
C43 C44 1.376 . S
C44 H7 0.930 . S
C44 C43 1.376 . S
C44 C45 1.376 . S
C45 C44 1.376 . S
C45 C46 1.378 . S
C45 C72 1.486 . S
C46 H8 0.930 . S
C46 C45 1.378 . S
C46 C47 1.376 . S
C47 H9 0.929 . S
C47 C42 1.397 . S
C47 C46 1.376 . S
C48 C32 1.509 . S
C48 C49 1.391 . S
C48 C53 1.386 . S
C49 H10 0.930 . S
C49 C48 1.391 . S
C49 C50 1.375 . S
C50 H11 0.931 . S
C50 C49 1.375 . S
C50 C51 1.375 . S
C51 C50 1.375 . S
C51 C52 1.361 . S
C52 H12 0.930 . S
C52 C51 1.361 . S
C52 C53 1.399 . S
C53 H13 0.929 . S
C53 C48 1.386 . S
C53 C52 1.399 . S
C54 C33 1.485 . S
C54 C55 1.394 . S
C54 C59 1.360 . S
C55 H14 0.931 . S
C55 C54 1.394 . S
C55 C56 1.372 . S
C56 H15 0.930 . S
C56 C55 1.372 . S
C56 C57 1.397 . S
C57 C56 1.397 . S
C57 C58 1.390 . S
C57 C73 1.476 . S
C58 H16 0.930 . S
C58 C57 1.390 . S
C58 C59 1.366 . S
C59 H17 0.932 . S
C59 C54 1.360 . S
C59 C58 1.366 . S
C60 C34 1.490 . S
C60 C61 1.380 . S
C60 C65 1.386 . S
C61 H18 0.930 . S
C61 C60 1.380 . S
C61 C62 1.381 . S
C62 H19 0.929 . S
C62 C61 1.381 . S
C62 C63 1.371 . S
C63 C62 1.371 . S
C63 C64 1.380 . S
C64 H20 0.931 . S
C64 C63 1.380 . S
C64 C65 1.387 . S
C65 H21 0.930 . S
C65 C60 1.386 . S
C65 C64 1.387 . S
C66 C35 1.519 . S
C66 C67 1.377 . S
C66 C71 1.361 . S
C67 H22 0.929 . S
C67 C66 1.377 . S
C67 C68 1.386 . S
C68 H23 0.931 . S
C68 C67 1.386 . S
C68 C69 1.363 . S
C69 C68 1.363 . S
C69 C70 1.385 . S
C70 H24 0.930 . S
C70 C69 1.385 . S
C70 C71 1.396 . S
C71 H25 0.929 . S
C71 C66 1.361 . S
C71 C70 1.396 . S
C72 O26 1.300 . S
C72 O27 1.209 . S
C72 C45 1.486 . S
C73 O28 1.199 . S
C73 O29 1.297 . S
C73 C57 1.476 . S
H74 O100 0.856 . S
H75 O103 0.854 . S
H76 C111 0.930 . S
H77 C112 0.930 . S
H78 C114 0.930 . S
H79 C115 0.930 . S
H80 C117 0.931 . S
H81 C118 0.930 . S
H82 C120 0.930 . S
H83 C121 0.929 . S
H84 C123 0.930 . S
H85 C124 0.931 . S
H86 C126 0.930 . S
H87 C127 0.929 . S
H88 C129 0.931 . S
H89 C130 0.930 . S
H90 C132 0.930 . S
H91 C133 0.932 . S
H92 C135 0.930 . S
H93 C136 0.929 . S
H94 C138 0.931 . S
H95 C139 0.930 . S
H96 C141 0.929 . S
H97 C142 0.931 . S
H98 C144 0.930 . S
H99 C145 0.929 . S
O100 H74 0.856 . S
O100 C146 1.300 . S
O101 C146 1.209 . S
O102 C147 1.199 . S
O103 H75 0.854 . S
O103 C147 1.297 . S
C104 C105 1.404 . S
C104 C109 1.397 . S
C104 C110 1.492 . S
C105 C104 1.404 . S
C105 C106 1.396 . S
C105 C116 1.492 . S
C106 C105 1.396 . S
C106 C107 1.397 . S
C106 C122 1.509 . S
C107 C106 1.397 . S
C107 C108 1.412 . S
C107 C128 1.485 . S
C108 C107 1.412 . S
C108 C109 1.388 . S
C108 C134 1.490 . S
C109 C104 1.397 . S
C109 C108 1.388 . S
C109 C140 1.519 . S
C110 C104 1.492 . S
C110 C111 1.363 . S
C110 C115 1.390 . S
C111 H76 0.930 . S
C111 C110 1.363 . S
C111 C112 1.372 . S
C112 H77 0.930 . S
C112 C111 1.372 . S
C112 C113 1.383 . S
C113 C112 1.383 . S
C113 C114 1.395 . S
C114 H78 0.930 . S
C114 C113 1.395 . S
C114 C115 1.362 . S
C115 H79 0.930 . S
C115 C110 1.390 . S
C115 C114 1.362 . S
C116 C105 1.492 . S
C116 C117 1.377 . S
C116 C121 1.397 . S
C117 H80 0.931 . S
C117 C116 1.377 . S
C117 C118 1.376 . S
C118 H81 0.930 . S
C118 C117 1.376 . S
C118 C119 1.376 . S
C119 C118 1.376 . S
C119 C120 1.378 . S
C119 C146 1.486 . S
C120 H82 0.930 . S
C120 C119 1.378 . S
C120 C121 1.376 . S
C121 H83 0.929 . S
C121 C116 1.397 . S
C121 C120 1.376 . S
C122 C106 1.509 . S
C122 C123 1.391 . S
C122 C127 1.386 . S
C123 H84 0.930 . S
C123 C122 1.391 . S
C123 C124 1.375 . S
C124 H85 0.931 . S
C124 C123 1.375 . S
C124 C125 1.375 . S
C125 C124 1.375 . S
C125 C126 1.361 . S
C126 H86 0.930 . S
C126 C125 1.361 . S
C126 C127 1.399 . S
C127 H87 0.929 . S
C127 C122 1.386 . S
C127 C126 1.399 . S
C128 C107 1.485 . S
C128 C129 1.394 . S
C128 C133 1.360 . S
C129 H88 0.931 . S
C129 C128 1.394 . S
C129 C130 1.372 . S
C130 H89 0.930 . S
C130 C129 1.372 . S
C130 C131 1.397 . S
C131 C130 1.397 . S
C131 C132 1.390 . S
C131 C147 1.476 . S
C132 H90 0.930 . S
C132 C131 1.390 . S
C132 C133 1.366 . S
C133 H91 0.932 . S
C133 C128 1.360 . S
C133 C132 1.366 . S
C134 C108 1.490 . S
C134 C135 1.380 . S
C134 C139 1.386 . S
C135 H92 0.930 . S
C135 C134 1.380 . S
C135 C136 1.381 . S
C136 H93 0.929 . S
C136 C135 1.381 . S
C136 C137 1.371 . S
C137 C136 1.371 . S
C137 C138 1.380 . S
C138 H94 0.931 . S
C138 C137 1.380 . S
C138 C139 1.387 . S
C139 H95 0.930 . S
C139 C134 1.386 . S
C139 C138 1.387 . S
C140 C109 1.519 . S
C140 C141 1.377 . S
C140 C145 1.361 . S
C141 H96 0.929 . S
C141 C140 1.377 . S
C141 C142 1.386 . S
C142 H97 0.931 . S
C142 C141 1.386 . S
C142 C143 1.363 . S
C143 C142 1.363 . S
C143 C144 1.385 . S
C144 H98 0.930 . S
C144 C143 1.385 . S
C144 C145 1.396 . S
C145 H99 0.929 . S
C145 C140 1.361 . S
C145 C144 1.396 . S
C146 O100 1.300 . S
C146 O101 1.209 . S
C146 C119 1.486 . S
C147 O102 1.199 . S
C147 O103 1.297 . S
C147 C131 1.476 . S
H148 O174 0.856 . S
H149 O177 0.854 . S
H150 C185 0.930 . S
H151 C186 0.930 . S
H152 C188 0.930 . S
H153 C189 0.930 . S
H154 C191 0.931 . S
H155 C192 0.930 . S
H156 C194 0.930 . S
H157 C195 0.929 . S
H158 C197 0.930 . S
H159 C198 0.931 . S
H160 C200 0.930 . S
H161 C201 0.929 . S
H162 C203 0.931 . S
H163 C204 0.930 . S
H164 C206 0.930 . S
H165 C207 0.932 . S
H166 C209 0.930 . S
H167 C210 0.929 . S
H168 C212 0.931 . S
H169 C213 0.930 . S
H170 C215 0.929 . S
H171 C216 0.931 . S
H172 C218 0.930 . S
H173 C219 0.929 . S
O174 H148 0.856 . S
O174 C220 1.300 . S
O175 C220 1.209 . S
O176 C221 1.199 . S
O177 H149 0.854 . S
O177 C221 1.297 . S
C178 C179 1.404 . S
C178 C183 1.397 . S
C178 C184 1.492 . S
C179 C178 1.404 . S
C179 C180 1.396 . S
C179 C190 1.492 . S
C180 C179 1.396 . S
C180 C181 1.397 . S
C180 C196 1.509 . S
C181 C180 1.397 . S
C181 C182 1.412 . S
C181 C202 1.485 . S
C182 C181 1.412 . S
C182 C183 1.388 . S
C182 C208 1.490 . S
C183 C178 1.397 . S
C183 C182 1.388 . S
C183 C214 1.519 . S
C184 C178 1.492 . S
C184 C185 1.363 . S
C184 C189 1.390 . S
C185 H150 0.930 . S
C185 C184 1.363 . S
C185 C186 1.372 . S
C186 H151 0.930 . S
C186 C185 1.372 . S
C186 C187 1.383 . S
C187 C186 1.383 . S
C187 C188 1.395 . S
C188 H152 0.930 . S
C188 C187 1.395 . S
C188 C189 1.362 . S
C189 H153 0.930 . S
C189 C184 1.390 . S
C189 C188 1.362 . S
C190 C179 1.492 . S
C190 C191 1.377 . S
C190 C195 1.397 . S
C191 H154 0.931 . S
C191 C190 1.377 . S
C191 C192 1.376 . S
C192 H155 0.930 . S
C192 C191 1.376 . S
C192 C193 1.376 . S
C193 C192 1.376 . S
C193 C194 1.378 . S
C193 C220 1.486 . S
C194 H156 0.930 . S
C194 C193 1.378 . S
C194 C195 1.376 . S
C195 H157 0.929 . S
C195 C190 1.397 . S
C195 C194 1.376 . S
C196 C180 1.509 . S
C196 C197 1.391 . S
C196 C201 1.386 . S
C197 H158 0.930 . S
C197 C196 1.391 . S
C197 C198 1.375 . S
C198 H159 0.931 . S
C198 C197 1.375 . S
C198 C199 1.375 . S
C199 C198 1.375 . S
C199 C200 1.361 . S
C200 H160 0.930 . S
C200 C199 1.361 . S
C200 C201 1.399 . S
C201 H161 0.929 . S
C201 C196 1.386 . S
C201 C200 1.399 . S
C202 C181 1.485 . S
C202 C203 1.394 . S
C202 C207 1.360 . S
C203 H162 0.931 . S
C203 C202 1.394 . S
C203 C204 1.372 . S
C204 H163 0.930 . S
C204 C203 1.372 . S
C204 C205 1.397 . S
C205 C204 1.397 . S
C205 C206 1.390 . S
C205 C221 1.476 . S
C206 H164 0.930 . S
C206 C205 1.390 . S
C206 C207 1.366 . S
C207 H165 0.932 . S
C207 C202 1.360 . S
C207 C206 1.366 . S
C208 C182 1.490 . S
C208 C209 1.380 . S
C208 C213 1.386 . S
C209 H166 0.930 . S
C209 C208 1.380 . S
C209 C210 1.381 . S
C210 H167 0.929 . S
C210 C209 1.381 . S
C210 C211 1.371 . S
C211 C210 1.371 . S
C211 C212 1.380 . S
C212 H168 0.931 . S
C212 C211 1.380 . S
C212 C213 1.387 . S
C213 H169 0.930 . S
C213 C208 1.386 . S
C213 C212 1.387 . S
C214 C183 1.519 . S
C214 C215 1.377 . S
C214 C219 1.361 . S
C215 H170 0.929 . S
C215 C214 1.377 . S
C215 C216 1.386 . S
C216 H171 0.931 . S
C216 C215 1.386 . S
C216 C217 1.363 . S
C217 C216 1.363 . S
C217 C218 1.385 . S
C218 H172 0.930 . S
C218 C217 1.385 . S
C218 C219 1.396 . S
C219 H173 0.929 . S
C219 C214 1.361 . S
C219 C218 1.396 . S
C220 O174 1.300 . S
C220 O175 1.209 . S
C220 C193 1.486 . S
C221 O176 1.199 . S
C221 O177 1.297 . S
C221 C205 1.476 . S
H222 O248 0.856 . S
H223 O251 0.854 . S
H224 C259 0.930 . S
H225 C260 0.930 . S
H226 C262 0.930 . S
H227 C263 0.930 . S
H228 C265 0.931 . S
H229 C266 0.930 . S
H230 C268 0.930 . S
H231 C269 0.929 . S
H232 C271 0.930 . S
H233 C272 0.931 . S
H234 C274 0.930 . S
H235 C275 0.929 . S
H236 C277 0.931 . S
H237 C278 0.930 . S
H238 C280 0.930 . S
H239 C281 0.932 . S
H240 C283 0.930 . S
H241 C284 0.929 . S
H242 C286 0.931 . S
H243 C287 0.930 . S
H244 C289 0.929 . S
H245 C290 0.931 . S
H246 C292 0.930 . S
H247 C293 0.929 . S
O248 H222 0.856 . S
O248 C294 1.300 . S
O249 C294 1.209 . S
O250 C295 1.199 . S
O251 H223 0.854 . S
O251 C295 1.297 . S
C252 C253 1.404 . S
C252 C257 1.397 . S
C252 C258 1.492 . S
C253 C252 1.404 . S
C253 C254 1.396 . S
C253 C264 1.492 . S
C254 C253 1.396 . S
C254 C255 1.397 . S
C254 C270 1.509 . S
C255 C254 1.397 . S
C255 C256 1.412 . S
C255 C276 1.485 . S
C256 C255 1.412 . S
C256 C257 1.388 . S
C256 C282 1.490 . S
C257 C252 1.397 . S
C257 C256 1.388 . S
C257 C288 1.519 . S
C258 C252 1.492 . S
C258 C259 1.363 . S
C258 C263 1.390 . S
C259 H224 0.930 . S
C259 C258 1.363 . S
C259 C260 1.372 . S
C260 H225 0.930 . S
C260 C259 1.372 . S
C260 C261 1.383 . S
C261 C260 1.383 . S
C261 C262 1.395 . S
C262 H226 0.930 . S
C262 C261 1.395 . S
C262 C263 1.362 . S
C263 H227 0.930 . S
C263 C258 1.390 . S
C263 C262 1.362 . S
C264 C253 1.492 . S
C264 C265 1.377 . S
C264 C269 1.397 . S
C265 H228 0.931 . S
C265 C264 1.377 . S
C265 C266 1.376 . S
C266 H229 0.930 . S
C266 C265 1.376 . S
C266 C267 1.376 1_565 S
C267 C266 1.376 1_545 S
C267 C268 1.378 . S
C267 C294 1.486 . S
C268 H230 0.930 . S
C268 C267 1.378 . S
C268 C269 1.376 1_545 S
C269 H231 0.929 . S
C269 C264 1.397 . S
C269 C268 1.376 1_565 S
C270 C254 1.509 . S
C270 C271 1.391 . S
C270 C275 1.386 . S
C271 H232 0.930 . S
C271 C270 1.391 . S
C271 C272 1.375 . S
C272 H233 0.931 . S
C272 C271 1.375 . S
C272 C273 1.375 . S
C273 C272 1.375 . S
C273 C274 1.361 . S
C274 H234 0.930 . S
C274 C273 1.361 . S
C274 C275 1.399 . S
C275 H235 0.929 . S
C275 C270 1.386 . S
C275 C274 1.399 . S
C276 C255 1.485 . S
C276 C277 1.394 . S
C276 C281 1.360 . S
C277 H236 0.931 . S
C277 C276 1.394 . S
C277 C278 1.372 . S
C278 H237 0.930 . S
C278 C277 1.372 . S
C278 C279 1.397 . S
C279 C278 1.397 . S
C279 C280 1.390 . S
C279 C295 1.476 . S
C280 H238 0.930 . S
C280 C279 1.390 . S
C280 C281 1.366 . S
C281 H239 0.932 . S
C281 C276 1.360 . S
C281 C280 1.366 . S
C282 C256 1.490 . S
C282 C283 1.380 . S
C282 C287 1.386 . S
C283 H240 0.930 . S
C283 C282 1.380 . S
C283 C284 1.381 . S
C284 H241 0.929 . S
C284 C283 1.381 . S
C284 C285 1.371 . S
C285 C284 1.371 . S
C285 C286 1.380 . S
C286 H242 0.931 . S
C286 C285 1.380 . S
C286 C287 1.387 . S
C287 H243 0.930 . S
C287 C282 1.386 . S
C287 C286 1.387 . S
C288 C257 1.519 . S
C288 C289 1.377 . S
C288 C293 1.361 . S
C289 H244 0.929 . S
C289 C288 1.377 . S
C289 C290 1.386 . S
C290 H245 0.931 . S
C290 C289 1.386 . S
C290 C291 1.363 . S
C291 C290 1.363 . S
C291 C292 1.385 . S
C292 H246 0.930 . S
C292 C291 1.385 . S
C292 C293 1.396 . S
C293 H247 0.929 . S
C293 C288 1.361 . S
C293 C292 1.396 . S
C294 O248 1.300 . S
C294 O249 1.209 . S
C294 C267 1.486 . S
C295 O250 1.199 . S
C295 O251 1.297 . S
C295 C279 1.476 . S
H296 O322 0.856 . S
H297 O325 0.854 . S
H298 C333 0.930 . S
H299 C334 0.930 . S
H300 C336 0.930 . S
H301 C337 0.930 . S
H302 C339 0.931 . S
H303 C340 0.930 . S
H304 C342 0.930 . S
H305 C343 0.929 . S
H306 C345 0.930 . S
H307 C346 0.931 . S
H308 C348 0.930 . S
H309 C349 0.929 . S
H310 C351 0.931 . S
H311 C352 0.930 . S
H312 C354 0.930 . S
H313 C355 0.932 . S
H314 C357 0.930 . S
H315 C358 0.929 . S
H316 C360 0.931 . S
H317 C361 0.930 . S
H318 C363 0.929 . S
H319 C364 0.931 . S
H320 C366 0.930 . S
H321 C367 0.929 . S
O322 H296 0.856 . S
O322 C368 1.297 1_545 S
O323 C368 1.197 1_545 S
O324 C369 1.199 . S
O325 H297 0.854 . S
O325 C369 1.297 . S
C326 C327 1.404 . S
C326 C331 1.397 . S
C326 C332 1.492 . S
C327 C326 1.404 . S
C327 C328 1.396 . S
C327 C338 1.492 . S
C328 C327 1.396 . S
C328 C329 1.397 . S
C328 C344 1.509 . S
C329 C328 1.397 . S
C329 C330 1.412 . S
C329 C350 1.485 . S
C330 C329 1.412 . S
C330 C331 1.388 . S
C330 C356 1.490 . S
C331 C326 1.397 . S
C331 C330 1.388 . S
C331 C362 1.519 . S
C332 C326 1.492 . S
C332 C333 1.363 . S
C332 C337 1.390 . S
C333 H298 0.930 . S
C333 C332 1.363 . S
C333 C334 1.372 . S
C334 H299 0.930 . S
C334 C333 1.372 . S
C334 C335 1.383 . S
C335 C334 1.383 . S
C335 C336 1.395 . S
C336 H300 0.930 . S
C336 C335 1.395 . S
C336 C337 1.362 . S
C337 H301 0.930 . S
C337 C332 1.390 . S
C337 C336 1.362 . S
C338 C327 1.492 . S
C338 C339 1.377 . S
C338 C343 1.397 . S
C339 H302 0.931 . S
C339 C338 1.377 . S
C339 C340 1.376 . S
C340 H303 0.930 . S
C340 C339 1.376 . S
C340 C341 1.376 . S
C341 C340 1.376 . S
C341 C342 1.378 . S
C341 C368 1.502 . S
C342 H304 0.930 . S
C342 C341 1.378 . S
C342 C343 1.376 . S
C343 H305 0.929 . S
C343 C338 1.397 . S
C343 C342 1.376 . S
C344 C328 1.509 . S
C344 C345 1.391 . S
C344 C349 1.386 . S
C345 H306 0.930 . S
C345 C344 1.391 . S
C345 C346 1.375 . S
C346 H307 0.931 . S
C346 C345 1.375 . S
C346 C347 1.375 1_565 S
C347 C346 1.375 1_545 S
C347 C348 1.361 . S
C348 H308 0.930 . S
C348 C347 1.361 . S
C348 C349 1.399 1_545 S
C349 H309 0.929 . S
C349 C344 1.386 . S
C349 C348 1.399 1_565 S
C350 C329 1.485 . S
C350 C351 1.394 . S
C350 C355 1.360 . S
C351 H310 0.931 . S
C351 C350 1.394 . S
C351 C352 1.372 . S
C352 H311 0.930 . S
C352 C351 1.372 . S
C352 C353 1.397 . S
C353 C352 1.397 . S
C353 C354 1.390 . S
C353 C369 1.476 . S
C354 H312 0.930 . S
C354 C353 1.390 . S
C354 C355 1.366 . S
C355 H313 0.932 . S
C355 C350 1.360 . S
C355 C354 1.366 . S
C356 C330 1.490 . S
C356 C357 1.380 . S
C356 C361 1.386 . S
C357 H314 0.930 . S
C357 C356 1.380 . S
C357 C358 1.381 . S
C358 H315 0.929 . S
C358 C357 1.381 . S
C358 C359 1.371 . S
C359 C358 1.371 . S
C359 C360 1.380 . S
C360 H316 0.931 . S
C360 C359 1.380 . S
C360 C361 1.387 . S
C361 H317 0.930 . S
C361 C356 1.386 . S
C361 C360 1.387 . S
C362 C331 1.519 . S
C362 C363 1.377 . S
C362 C367 1.361 . S
C363 H318 0.929 . S
C363 C362 1.377 . S
C363 C364 1.386 . S
C364 H319 0.931 . S
C364 C363 1.386 . S
C364 C365 1.363 . S
C365 C364 1.363 . S
C365 C366 1.385 . S
C366 H320 0.930 . S
C366 C365 1.385 . S
C366 C367 1.396 . S
C367 H321 0.929 . S
C367 C362 1.361 . S
C367 C366 1.396 . S
C368 O322 1.297 1_565 S
C368 O323 1.197 1_565 S
C368 C341 1.502 . S
C369 O324 1.199 . S
C369 O325 1.297 . S
C369 C353 1.476 . S
H370 O396 0.856 . S
H371 O399 0.854 . S
H372 C407 0.930 . S
H373 C408 0.930 . S
H374 C410 0.930 . S
H375 C411 0.930 . S
H376 C413 0.931 . S
H377 C414 0.930 . S
H378 C416 0.930 . S
H379 C417 0.929 . S
H380 C419 0.930 . S
H381 C420 0.931 . S
H382 C422 0.930 . S
H383 C423 0.929 . S
H384 C425 0.931 . S
H385 C426 0.930 . S
H386 C428 0.930 . S
H387 C429 0.932 . S
H388 C431 0.930 . S
H389 C432 0.929 . S
H390 C434 0.931 . S
H391 C435 0.930 . S
H392 C437 0.929 . S
H393 C438 0.931 . S
H394 C440 0.930 . S
H395 C441 0.929 . S
O396 H370 0.856 . S
O396 C442 1.300 . S
O397 C442 1.209 . S
O398 C443 1.199 . S
O399 H371 0.854 . S
O399 C443 1.297 . S
C400 C401 1.404 . S
C400 C405 1.397 . S
C400 C406 1.492 . S
C401 C400 1.404 . S
C401 C402 1.396 . S
C401 C412 1.492 . S
C402 C401 1.396 . S
C402 C403 1.397 . S
C402 C418 1.509 . S
C403 C402 1.397 . S
C403 C404 1.412 . S
C403 C424 1.485 . S
C404 C403 1.412 . S
C404 C405 1.388 . S
C404 C430 1.490 . S
C405 C400 1.397 . S
C405 C404 1.388 . S
C405 C436 1.519 . S
C406 C400 1.492 . S
C406 C407 1.363 . S
C406 C411 1.390 . S
C407 H372 0.930 . S
C407 C406 1.363 . S
C407 C408 1.372 . S
C408 H373 0.930 . S
C408 C407 1.372 . S
C408 C409 1.383 . S
C409 C408 1.383 . S
C409 C410 1.395 . S
C410 H374 0.930 . S
C410 C409 1.395 . S
C410 C411 1.362 . S
C411 H375 0.930 . S
C411 C406 1.390 . S
C411 C410 1.362 . S
C412 C401 1.492 . S
C412 C413 1.377 . S
C412 C417 1.397 . S
C413 H376 0.931 . S
C413 C412 1.377 . S
C413 C414 1.376 . S
C414 H377 0.930 . S
C414 C413 1.376 . S
C414 C415 1.376 . S
C415 C414 1.376 . S
C415 C416 1.378 . S
C415 C442 1.486 . S
C416 H378 0.930 . S
C416 C415 1.378 . S
C416 C417 1.376 . S
C417 H379 0.929 . S
C417 C412 1.397 . S
C417 C416 1.376 . S
C418 C402 1.509 . S
C418 C419 1.391 . S
C418 C423 1.386 . S
C419 H380 0.930 . S
C419 C418 1.391 . S
C419 C420 1.375 . S
C420 H381 0.931 . S
C420 C419 1.375 . S
C420 C421 1.375 . S
C421 C420 1.375 . S
C421 C422 1.361 . S
C422 H382 0.930 . S
C422 C421 1.361 . S
C422 C423 1.399 . S
C423 H383 0.929 . S
C423 C418 1.386 . S
C423 C422 1.399 . S
C424 C403 1.485 . S
C424 C425 1.394 . S
C424 C429 1.360 . S
C425 H384 0.931 . S
C425 C424 1.394 . S
C425 C426 1.372 . S
C426 H385 0.930 . S
C426 C425 1.372 . S
C426 C427 1.397 . S
C427 C426 1.397 . S
C427 C428 1.390 . S
C427 C443 1.476 . S
C428 H386 0.930 . S
C428 C427 1.390 . S
C428 C429 1.366 . S
C429 H387 0.932 . S
C429 C424 1.360 . S
C429 C428 1.366 . S
C430 C404 1.490 . S
C430 C431 1.380 . S
C430 C435 1.386 . S
C431 H388 0.930 . S
C431 C430 1.380 . S
C431 C432 1.381 . S
C432 H389 0.929 . S
C432 C431 1.381 . S
C432 C433 1.371 . S
C433 C432 1.371 . S
C433 C434 1.380 . S
C434 H390 0.931 . S
C434 C433 1.380 . S
C434 C435 1.387 . S
C435 H391 0.930 . S
C435 C430 1.386 . S
C435 C434 1.387 . S
C436 C405 1.519 . S
C436 C437 1.377 . S
C436 C441 1.361 . S
C437 H392 0.929 . S
C437 C436 1.377 . S
C437 C438 1.386 . S
C438 H393 0.931 . S
C438 C437 1.386 . S
C438 C439 1.363 . S
C439 C438 1.363 . S
C439 C440 1.385 . S
C440 H394 0.930 . S
C440 C439 1.385 . S
C440 C441 1.396 . S
C441 H395 0.929 . S
C441 C436 1.361 . S
C441 C440 1.396 . S
C442 O396 1.300 . S
C442 O397 1.209 . S
C442 C415 1.486 . S
C443 O398 1.199 . S
C443 O399 1.297 . S
C443 C427 1.476 . S
H444 O470 0.856 . S
H445 O473 0.854 . S
H446 C481 0.930 . S
H447 C482 0.930 . S
H448 C484 0.930 . S
H449 C485 0.930 . S
H450 C487 0.931 . S
H451 C488 0.930 . S
H452 C490 0.930 . S
H453 C491 0.929 . S
H454 C493 0.930 . S
H455 C494 0.931 . S
H456 C496 0.930 . S
H457 C497 0.929 . S
H458 C499 0.931 . S
H459 C500 0.930 . S
H460 C502 0.930 . S
H461 C503 0.932 . S
H462 C505 0.930 . S
H463 C506 0.929 . S
H464 C508 0.931 . S
H465 C509 0.930 . S
H466 C511 0.929 . S
H467 C512 0.931 . S
H468 C514 0.930 . S
H469 C515 0.929 . S
O470 H444 0.856 . S
O470 C516 1.300 . S
O471 C516 1.209 . S
O472 C517 1.199 . S
O473 H445 0.854 . S
O473 C517 1.297 . S
C474 C475 1.404 . S
C474 C479 1.397 . S
C474 C480 1.492 . S
C475 C474 1.404 . S
C475 C476 1.396 . S
C475 C486 1.492 . S
C476 C475 1.396 . S
C476 C477 1.397 . S
C476 C492 1.509 . S
C477 C476 1.397 . S
C477 C478 1.412 . S
C477 C498 1.485 . S
C478 C477 1.412 . S
C478 C479 1.388 . S
C478 C504 1.490 . S
C479 C474 1.397 . S
C479 C478 1.388 . S
C479 C510 1.519 . S
C480 C474 1.492 . S
C480 C481 1.363 . S
C480 C485 1.390 . S
C481 H446 0.930 . S
C481 C480 1.363 . S
C481 C482 1.372 . S
C482 H447 0.930 . S
C482 C481 1.372 . S
C482 C483 1.383 . S
C483 C482 1.383 . S
C483 C484 1.395 . S
C484 H448 0.930 . S
C484 C483 1.395 . S
C484 C485 1.362 . S
C485 H449 0.930 . S
C485 C480 1.390 . S
C485 C484 1.362 . S
C486 C475 1.492 . S
C486 C487 1.377 . S
C486 C491 1.397 . S
C487 H450 0.931 . S
C487 C486 1.377 . S
C487 C488 1.376 . S
C488 H451 0.930 . S
C488 C487 1.376 . S
C488 C489 1.376 . S
C489 C488 1.376 . S
C489 C490 1.378 . S
C489 C516 1.486 . S
C490 H452 0.930 . S
C490 C489 1.378 . S
C490 C491 1.376 . S
C491 H453 0.929 . S
C491 C486 1.397 . S
C491 C490 1.376 . S
C492 C476 1.509 . S
C492 C493 1.391 . S
C492 C497 1.386 . S
C493 H454 0.930 . S
C493 C492 1.391 . S
C493 C494 1.375 . S
C494 H455 0.931 . S
C494 C493 1.375 . S
C494 C495 1.375 . S
C495 C494 1.375 . S
C495 C496 1.361 . S
C496 H456 0.930 . S
C496 C495 1.361 . S
C496 C497 1.399 . S
C497 H457 0.929 . S
C497 C492 1.386 . S
C497 C496 1.399 . S
C498 C477 1.485 . S
C498 C499 1.394 . S
C498 C503 1.360 . S
C499 H458 0.931 . S
C499 C498 1.394 . S
C499 C500 1.372 . S
C500 H459 0.930 . S
C500 C499 1.372 . S
C500 C501 1.397 . S
C501 C500 1.397 . S
C501 C502 1.390 . S
C501 C517 1.476 . S
C502 H460 0.930 . S
C502 C501 1.390 . S
C502 C503 1.366 . S
C503 H461 0.932 . S
C503 C498 1.360 . S
C503 C502 1.366 . S
C504 C478 1.490 . S
C504 C505 1.380 . S
C504 C509 1.386 . S
C505 H462 0.930 . S
C505 C504 1.380 . S
C505 C506 1.381 . S
C506 H463 0.929 . S
C506 C505 1.381 . S
C506 C507 1.371 . S
C507 C506 1.371 . S
C507 C508 1.380 . S
C508 H464 0.931 . S
C508 C507 1.380 . S
C508 C509 1.387 . S
C509 H465 0.930 . S
C509 C504 1.386 . S
C509 C508 1.387 . S
C510 C479 1.519 . S
C510 C511 1.377 . S
C510 C515 1.361 . S
C511 H466 0.929 . S
C511 C510 1.377 . S
C511 C512 1.386 . S
C512 H467 0.931 . S
C512 C511 1.386 . S
C512 C513 1.363 . S
C513 C512 1.363 . S
C513 C514 1.385 . S
C514 H468 0.930 . S
C514 C513 1.385 . S
C514 C515 1.396 . S
C515 H469 0.929 . S
C515 C510 1.361 . S
C515 C514 1.396 . S
C516 O470 1.300 . S
C516 O471 1.209 . S
C516 C489 1.486 . S
C517 O472 1.199 . S
C517 O473 1.297 . S
C517 C501 1.476 . S
H518 O544 0.856 . S
H519 O547 0.854 . S
H520 C555 0.930 . S
H521 C556 0.930 . S
H522 C558 0.930 . S
H523 C559 0.930 . S
H524 C561 0.931 . S
H525 C562 0.930 . S
H526 C564 0.930 . S
H527 C565 0.929 . S
H528 C567 0.930 . S
H529 C568 0.931 . S
H530 C570 0.930 . S
H531 C571 0.929 . S
H532 C573 0.931 . S
H533 C574 0.930 . S
H534 C576 0.930 . S
H535 C577 0.932 . S
H536 C579 0.930 . S
H537 C580 0.929 . S
H538 C582 0.931 . S
H539 C583 0.930 . S
H540 C585 0.929 . S
H541 C586 0.931 . S
H542 C588 0.930 . S
H543 C589 0.929 . S
O544 H518 0.856 . S
O544 C590 1.300 . S
O545 C590 1.209 . S
O546 C591 1.199 . S
O547 H519 0.854 . S
O547 C591 1.297 . S
C548 C549 1.404 . S
C548 C553 1.397 . S
C548 C554 1.492 . S
C549 C548 1.404 . S
C549 C550 1.396 . S
C549 C560 1.492 . S
C550 C549 1.396 . S
C550 C551 1.397 . S
C550 C566 1.509 . S
C551 C550 1.397 . S
C551 C552 1.412 . S
C551 C572 1.485 . S
C552 C551 1.412 . S
C552 C553 1.388 . S
C552 C578 1.490 . S
C553 C548 1.397 . S
C553 C552 1.388 . S
C553 C584 1.519 . S
C554 C548 1.492 . S
C554 C555 1.363 . S
C554 C559 1.390 . S
C555 H520 0.930 . S
C555 C554 1.363 . S
C555 C556 1.372 . S
C556 H521 0.930 . S
C556 C555 1.372 . S
C556 C557 1.383 . S
C557 C556 1.383 . S
C557 C558 1.395 . S
C558 H522 0.930 . S
C558 C557 1.395 . S
C558 C559 1.362 . S
C559 H523 0.930 . S
C559 C554 1.390 . S
C559 C558 1.362 . S
C560 C549 1.492 . S
C560 C561 1.377 . S
C560 C565 1.397 . S
C561 H524 0.931 . S
C561 C560 1.377 . S
C561 C562 1.376 . S
C562 H525 0.930 . S
C562 C561 1.376 . S
C562 C563 1.376 . S
C563 C562 1.376 . S
C563 C564 1.378 . S
C563 C590 1.486 . S
C564 H526 0.930 . S
C564 C563 1.378 . S
C564 C565 1.376 . S
C565 H527 0.929 . S
C565 C560 1.397 . S
C565 C564 1.376 . S
C566 C550 1.509 . S
C566 C567 1.391 . S
C566 C571 1.386 . S
C567 H528 0.930 . S
C567 C566 1.391 . S
C567 C568 1.375 . S
C568 H529 0.931 . S
C568 C567 1.375 . S
C568 C569 1.375 . S
C569 C568 1.375 . S
C569 C570 1.361 . S
C570 H530 0.930 . S
C570 C569 1.361 . S
C570 C571 1.399 . S
C571 H531 0.929 . S
C571 C566 1.386 . S
C571 C570 1.399 . S
C572 C551 1.485 . S
C572 C573 1.394 . S
C572 C577 1.360 . S
C573 H532 0.931 . S
C573 C572 1.394 . S
C573 C574 1.372 . S
C574 H533 0.930 . S
C574 C573 1.372 . S
C574 C575 1.397 . S
C575 C574 1.397 . S
C575 C576 1.390 . S
C575 C591 1.476 . S
C576 H534 0.930 . S
C576 C575 1.390 . S
C576 C577 1.366 . S
C577 H535 0.932 . S
C577 C572 1.360 . S
C577 C576 1.366 . S
C578 C552 1.490 . S
C578 C579 1.380 . S
C578 C583 1.386 . S
C579 H536 0.930 . S
C579 C578 1.380 . S
C579 C580 1.381 . S
C580 H537 0.929 . S
C580 C579 1.381 . S
C580 C581 1.371 . S
C581 C580 1.371 . S
C581 C582 1.380 . S
C582 H538 0.931 . S
C582 C581 1.380 . S
C582 C583 1.387 . S
C583 H539 0.930 . S
C583 C578 1.386 . S
C583 C582 1.387 . S
C584 C553 1.519 . S
C584 C585 1.377 . S
C584 C589 1.361 . S
C585 H540 0.929 . S
C585 C584 1.377 . S
C585 C586 1.386 . S
C586 H541 0.931 . S
C586 C585 1.386 . S
C586 C587 1.363 . S
C587 C586 1.363 . S
C587 C588 1.385 . S
C588 H542 0.930 . S
C588 C587 1.385 . S
C588 C589 1.396 . S
C589 H543 0.929 . S
C589 C584 1.361 . S
C589 C588 1.396 . S
C590 O544 1.300 . S
C590 O545 1.209 . S
C590 C563 1.486 . S
C591 O546 1.199 . S
C591 O547 1.297 . S
C591 C575 1.476 . S
C592 O594 1.247 . S
C592 O596 1.258 . S
C593 O600 1.247 . S
C593 O601 1.258 . S
O594 C592 1.247 . S
O594 Zn595 2.028 . S
Zn595 O594 2.028 . S
Zn595 O599 2.035 1_655 S
Zn595 O601 2.035 1_655 S
Zn595 O602 2.028 . S
O596 C592 1.258 . S
O596 Zn597 2.035 1_655 S
Zn597 O596 2.035 1_455 S
Zn597 O598 2.028 . S
Zn597 O600 2.028 . S
Zn597 O603 2.035 1_455 S
O598 Zn597 2.028 . S
O598 C604 1.247 . S
O599 Zn595 2.035 1_455 S
O599 C604 1.258 . S
O600 C593 1.247 . S
O600 Zn597 2.028 . S
O601 C593 1.258 . S
O601 Zn595 2.035 1_455 S
O602 Zn595 2.028 . S
O602 C605 1.247 . S
O603 Zn597 2.035 1_655 S
O603 C605 1.258 . S
C604 O598 1.247 . S
C604 O599 1.258 . S
C605 O602 1.247 . S
C605 O603 1.258 . S
C606 O608 1.247 . S
C606 O610 1.258 . S
C607 O614 1.247 . S
C607 O615 1.258 . S
O608 C606 1.247 . S
O608 Zn609 2.028 . S
Zn609 O608 2.028 . S
Zn609 O613 2.035 1_545 S
Zn609 O615 2.035 1_545 S
Zn609 O616 2.028 . S
O610 C606 1.258 . S
O610 Zn611 2.035 . S
Zn611 O610 2.035 . S
Zn611 O612 2.028 1_545 S
Zn611 O614 2.028 1_545 S
Zn611 O617 2.035 . S
O612 Zn611 2.028 1_565 S
O612 C618 1.247 . S
O613 Zn609 2.035 1_565 S
O613 C618 1.258 . S
O614 C607 1.247 . S
O614 Zn611 2.028 1_565 S
O615 C607 1.258 . S
O615 Zn609 2.035 1_565 S
O616 Zn609 2.028 . S
O616 C619 1.247 . S
O617 Zn611 2.035 . S
O617 C619 1.258 . S
C618 O612 1.247 . S
C618 O613 1.258 . S
C619 O616 1.247 . S
C619 O617 1.258 . S
C620 O622 1.247 . S
C620 O624 1.258 . S
C621 O628 1.247 . S
C621 O629 1.258 . S
O622 C620 1.247 . S
O622 Zn623 2.028 . S
Zn623 O622 2.028 . S
Zn623 O627 2.035 . S
Zn623 O629 2.035 . S
Zn623 O630 2.028 . S
O624 C620 1.258 . S
O624 Zn625 2.035 . S
Zn625 O624 2.035 . S
Zn625 O626 2.028 . S
Zn625 O628 2.028 . S
Zn625 O631 2.035 . S
O626 Zn625 2.028 . S
O626 C632 1.247 . S
O627 Zn623 2.035 . S
O627 C632 1.258 . S
O628 C621 1.247 . S
O628 Zn625 2.028 . S
O629 C621 1.258 . S
O629 Zn623 2.035 . S
O630 Zn623 2.028 . S
O630 C633 1.247 . S
O631 Zn625 2.035 . S
O631 C633 1.258 . S
C632 O626 1.247 . S
C632 O627 1.258 . S
C633 O630 1.247 . S
C633 O631 1.258 . S
C634 O636 1.247 . S
C634 O638 1.258 . S
C635 O642 1.247 . S
C635 O643 1.258 . S
O636 C634 1.247 . S
O636 Zn637 2.028 . S
Zn637 O636 2.028 . S
Zn637 O641 2.035 . S
Zn637 O643 2.035 . S
Zn637 O644 2.028 . S
O638 C634 1.258 . S
O638 Zn639 2.035 . S
Zn639 O638 2.035 . S
Zn639 O640 2.028 . S
Zn639 O642 2.028 . S
Zn639 O645 2.035 . S
O640 Zn639 2.028 . S
O640 C646 1.247 . S
O641 Zn637 2.035 . S
O641 C646 1.258 . S
O642 C635 1.247 . S
O642 Zn639 2.028 . S
O643 C635 1.258 . S
O643 Zn637 2.035 . S
O644 Zn637 2.028 . S
O644 C647 1.247 . S
O645 Zn639 2.035 . S
O645 C647 1.258 . S
C646 O640 1.247 . S
C646 O641 1.258 . S
C647 O644 1.247 . S
C647 O645 1.258 . S
C648 O650 1.247 . S
C648 O652 1.258 . S
C649 O656 1.247 . S
C649 O657 1.258 . S
O650 C648 1.247 . S
O650 Zn651 2.028 . S
Zn651 O650 2.028 . S
Zn651 O655 2.035 . S
Zn651 O657 2.035 1_554 S
Zn651 O658 2.028 1_554 S
O652 C648 1.258 . S
O652 Zn653 2.035 . S
Zn653 O652 2.035 . S
Zn653 O654 2.028 . S
Zn653 O656 2.028 1_554 S
Zn653 O659 2.035 1_554 S
O654 Zn653 2.028 . S
O654 C660 1.247 . S
O655 Zn651 2.035 . S
O655 C660 1.258 . S
O656 C649 1.247 . S
O656 Zn653 2.028 1_556 S
O657 C649 1.258 . S
O657 Zn651 2.035 1_556 S
O658 Zn651 2.028 1_556 S
O658 C661 1.247 . S
O659 Zn653 2.035 1_556 S
O659 C661 1.258 . S
C660 O654 1.247 . S
C660 O655 1.258 . S
C661 O658 1.247 . S
C661 O659 1.258 . S
C662 O664 1.247 . S
C662 O666 1.258 . S
C663 O670 1.247 . S
C663 O671 1.258 . S
O664 C662 1.247 . S
O664 Zn665 2.028 . S
Zn665 O664 2.028 . S
Zn665 O669 2.035 . S
Zn665 O671 2.035 1_554 S
Zn665 O672 2.028 1_554 S
O666 C662 1.258 . S
O666 Zn667 2.035 . S
Zn667 O666 2.035 . S
Zn667 O668 2.028 . S
Zn667 O670 2.028 1_554 S
Zn667 O673 2.035 1_554 S
O668 Zn667 2.028 . S
O668 C674 1.247 . S
O669 Zn665 2.035 . S
O669 C674 1.258 . S
O670 C663 1.247 . S
O670 Zn667 2.028 1_556 S
O671 C663 1.258 . S
O671 Zn665 2.035 1_556 S
O672 Zn665 2.028 1_556 S
O672 C675 1.247 . S
O673 Zn667 2.035 1_556 S
O673 C675 1.258 . S
C674 O668 1.247 . S
C674 O669 1.258 . S
C675 O672 1.247 . S
C675 O673 1.258 . S
C676 O678 1.248 . S
C676 O680 1.259 . S
C677 O684 1.247 . S
C677 O685 1.258 . S
O678 C676 1.248 . S
O678 Zn679 2.028 . S
Zn679 O678 2.028 . S
Zn679 O683 2.035 . S
Zn679 O685 2.035 . S
Zn679 O686 2.028 . S
O680 C676 1.259 . S
O680 Zn681 2.035 . S
Zn681 O680 2.035 . S
Zn681 O682 2.028 1_554 S
Zn681 O684 2.028 . S
Zn681 O687 2.035 . S
O682 Zn681 2.028 1_556 S
O682 C688 1.247 . S
O683 Zn679 2.035 . S
O683 C688 1.258 1_554 S
O684 C677 1.247 . S
O684 Zn681 2.028 . S
O685 C677 1.258 . S
O685 Zn679 2.035 . S
O686 Zn679 2.028 . S
O686 C689 1.247 . S
O687 Zn681 2.035 . S
O687 C689 1.258 . S
C688 O682 1.247 . S
C688 O683 1.258 1_556 S
C689 O686 1.247 . S
C689 O687 1.258 . S
C690 O692 1.247 . S
C690 O694 1.258 . S
C691 O698 1.247 . S
C691 O699 1.258 . S
O692 C690 1.247 . S
O692 Zn693 2.028 . S
Zn693 O692 2.028 . S
Zn693 O697 2.035 . S
Zn693 O699 2.035 . S
Zn693 O700 2.028 . S
O694 C690 1.258 . S
O694 Zn695 2.035 . S
Zn695 O694 2.035 . S
Zn695 O696 2.028 . S
Zn695 O698 2.028 . S
Zn695 O701 2.035 . S
O696 Zn695 2.028 . S
O696 C702 1.247 . S
O697 Zn693 2.035 . S
O697 C702 1.258 . S
O698 C691 1.247 . S
O698 Zn695 2.028 . S
O699 C691 1.258 . S
O699 Zn693 2.035 . S
O700 Zn693 2.028 . S
O700 C703 1.247 . S
O701 Zn695 2.035 . S
O701 C703 1.258 . S
C702 O696 1.247 . S
C702 O697 1.258 . S
C703 O700 1.247 . S
C703 O701 1.258 . S
H704 C716 0.930 . S
H705 C718 0.930 . S
H706 C719 0.930 . S
H707 C723 0.959 . S
H708 C723 0.959 . S
H709 C723 0.961 . S
H710 C724 0.960 . S
H711 C724 0.961 . S
H712 C724 0.959 . S
H713 C727 0.929 . S
H714 C728 0.931 . S
H715 C730 0.930 . S
C716 H704 0.930 . S
C716 C717 1.399 . S
C716 C721 1.399 . S
C717 C716 1.399 . S
C717 C718 1.376 . S
C718 H705 0.930 . S
C718 C717 1.376 . S
C718 C719 1.388 . S
C719 H706 0.930 . S
C719 C718 1.388 . S
C719 C720 1.390 . S
C720 C719 1.390 . S
C720 C721 1.394 . S
C720 C726 1.465 . S
C721 C716 1.399 . S
C721 C720 1.394 . S
C721 C722 1.516 . S
C722 C721 1.516 . S
C722 C723 1.502 . S
C722 C724 1.561 . S
C722 C725 1.526 . S
C723 H707 0.959 . S
C723 H708 0.959 . S
C723 H709 0.961 . S
C723 C722 1.502 . S
C724 H710 0.960 . S
C724 H711 0.961 . S
C724 H712 0.959 . S
C724 C722 1.561 . S
C725 C722 1.526 . S
C725 C726 1.396 . S
C725 C730 1.390 . S
C726 C720 1.465 . S
C726 C725 1.396 . S
C726 C727 1.399 . S
C727 H713 0.929 . S
C727 C726 1.399 . S
C727 C728 1.385 . S
C728 H714 0.931 . S
C728 C727 1.385 . S
C728 C729 1.389 . S
C729 C728 1.389 . S
C729 C730 1.387 . S
C730 H715 0.930 . S
C730 C725 1.390 . S
C730 C729 1.387 . S
H731 C743 0.930 . S
H732 C745 0.930 . S
H733 C746 0.930 . S
H734 C750 0.959 . S
H735 C750 0.959 . S
H736 C750 0.961 . S
H737 C751 0.960 . S
H738 C751 0.961 . S
H739 C751 0.959 . S
H740 C754 0.929 . S
H741 C755 0.931 . S
H742 C757 0.930 . S
C743 H731 0.930 . S
C743 C744 1.399 . S
C743 C748 1.399 . S
C744 C743 1.399 . S
C744 C745 1.376 . S
C745 H732 0.930 . S
C745 C744 1.376 . S
C745 C746 1.388 . S
C746 H733 0.930 . S
C746 C745 1.388 . S
C746 C747 1.390 . S
C747 C746 1.390 . S
C747 C748 1.394 . S
C747 C753 1.465 . S
C748 C743 1.399 . S
C748 C747 1.394 . S
C748 C749 1.516 . S
C749 C748 1.516 . S
C749 C750 1.502 . S
C749 C751 1.561 . S
C749 C752 1.526 . S
C750 H734 0.959 . S
C750 H735 0.959 . S
C750 H736 0.961 . S
C750 C749 1.502 . S
C751 H737 0.960 . S
C751 H738 0.961 . S
C751 H739 0.959 . S
C751 C749 1.561 . S
C752 C749 1.526 . S
C752 C753 1.396 . S
C752 C757 1.390 . S
C753 C747 1.465 . S
C753 C752 1.396 . S
C753 C754 1.399 . S
C754 H740 0.929 . S
C754 C753 1.399 . S
C754 C755 1.385 . S
C755 H741 0.931 . S
C755 C754 1.385 . S
C755 C756 1.389 . S
C756 C755 1.389 . S
C756 C757 1.387 . S
C757 H742 0.930 . S
C757 C752 1.390 . S
C757 C756 1.387 . S
H758 C770 0.930 . S
H759 C772 0.930 . S
H760 C773 0.930 . S
H761 C777 0.959 . S
H762 C777 0.959 . S
H763 C777 0.961 . S
H764 C778 0.960 . S
H765 C778 0.961 . S
H766 C778 0.959 . S
H767 C781 0.929 . S
H768 C782 0.931 . S
H769 C784 0.930 . S
C770 H758 0.930 . S
C770 C771 1.399 . S
C770 C775 1.399 . S
C771 C770 1.399 . S
C771 C772 1.376 . S
C772 H759 0.930 . S
C772 C771 1.376 . S
C772 C773 1.388 . S
C773 H760 0.930 . S
C773 C772 1.388 . S
C773 C774 1.390 . S
C774 C773 1.390 . S
C774 C775 1.394 . S
C774 C780 1.465 . S
C775 C770 1.399 . S
C775 C774 1.394 . S
C775 C776 1.516 . S
C776 C775 1.516 . S
C776 C777 1.502 . S
C776 C778 1.561 . S
C776 C779 1.526 . S
C777 H761 0.959 . S
C777 H762 0.959 . S
C777 H763 0.961 . S
C777 C776 1.502 . S
C778 H764 0.960 . S
C778 H765 0.961 . S
C778 H766 0.959 . S
C778 C776 1.561 . S
C779 C776 1.526 . S
C779 C780 1.396 . S
C779 C784 1.390 . S
C780 C774 1.465 . S
C780 C779 1.396 . S
C780 C781 1.399 . S
C781 H767 0.929 . S
C781 C780 1.399 . S
C781 C782 1.385 . S
C782 H768 0.931 . S
C782 C781 1.385 . S
C782 C783 1.389 . S
C783 C782 1.389 . S
C783 C784 1.387 . S
C784 H769 0.930 . S
C784 C779 1.390 . S
C784 C783 1.387 . S
H785 C797 0.930 1_565 S
H786 C799 0.930 . S
H787 C800 0.930 . S
H788 C804 0.959 . S
H789 C804 0.959 . S
H790 C804 0.961 . S
H791 C805 0.960 1_565 S
H792 C805 0.961 . S
H793 C805 0.959 . S
H794 C808 0.929 . S
H795 C809 0.931 . S
H796 C811 0.930 . S
C797 H785 0.930 1_545 S
C797 C798 1.399 1_545 S
C797 C802 1.399 . S
C798 C797 1.399 1_565 S
C798 C799 1.376 1_565 S
C799 H786 0.930 . S
C799 C798 1.376 1_545 S
C799 C800 1.388 . S
C800 H787 0.930 . S
C800 C799 1.388 . S
C800 C801 1.390 . S
C801 C800 1.390 . S
C801 C802 1.394 . S
C801 C807 1.465 . S
C802 C797 1.399 . S
C802 C801 1.394 . S
C802 C803 1.516 . S
C803 C802 1.516 . S
C803 C804 1.502 . S
C803 C805 1.561 . S
C803 C806 1.526 . S
C804 H788 0.959 . S
C804 H789 0.959 . S
C804 H790 0.961 . S
C804 C803 1.502 . S
C805 H791 0.960 1_545 S
C805 H792 0.961 . S
C805 H793 0.959 . S
C805 C803 1.561 . S
C806 C803 1.526 . S
C806 C807 1.396 . S
C806 C811 1.390 . S
C807 C801 1.465 . S
C807 C806 1.396 . S
C807 C808 1.399 . S
C808 H794 0.929 . S
C808 C807 1.399 . S
C808 C809 1.385 . S
C809 H795 0.931 . S
C809 C808 1.385 . S
C809 C810 1.389 . S
C810 C809 1.389 . S
C810 C811 1.387 . S
C811 H796 0.930 . S
C811 C806 1.390 . S
C811 C810 1.387 . S
H812 C824 0.930 . S
H813 C826 0.930 . S
H814 C827 0.930 . S
H815 C831 0.959 . S
H816 C831 0.959 . S
H817 C831 0.961 . S
H818 C832 0.960 . S
H819 C832 0.961 . S
H820 C832 0.959 . S
H821 C835 0.929 . S
H822 C836 0.931 . S
H823 C838 0.930 . S
C824 H812 0.930 . S
C824 C825 1.399 . S
C824 C829 1.399 . S
C825 C824 1.399 . S
C825 C826 1.376 . S
C826 H813 0.930 . S
C826 C825 1.376 . S
C826 C827 1.388 . S
C827 H814 0.930 . S
C827 C826 1.388 . S
C827 C828 1.390 . S
C828 C827 1.390 . S
C828 C829 1.394 . S
C828 C834 1.465 . S
C829 C824 1.399 . S
C829 C828 1.394 . S
C829 C830 1.516 . S
C830 C829 1.516 . S
C830 C831 1.502 . S
C830 C832 1.561 . S
C830 C833 1.526 . S
C831 H815 0.959 . S
C831 H816 0.959 . S
C831 H817 0.961 . S
C831 C830 1.502 . S
C832 H818 0.960 . S
C832 H819 0.961 . S
C832 H820 0.959 . S
C832 C830 1.561 . S
C833 C830 1.526 . S
C833 C834 1.396 . S
C833 C838 1.390 . S
C834 C828 1.465 . S
C834 C833 1.396 . S
C834 C835 1.399 . S
C835 H821 0.929 . S
C835 C834 1.399 . S
C835 C836 1.385 . S
C836 H822 0.931 . S
C836 C835 1.385 . S
C836 C837 1.389 . S
C837 C836 1.389 . S
C837 C838 1.387 . S
C838 H823 0.930 . S
C838 C833 1.390 . S
C838 C837 1.387 . S
H839 C851 0.930 . S
H840 C853 0.930 . S
H841 C854 0.930 . S
H842 C858 0.959 . S
H843 C858 0.959 . S
H844 C858 0.961 . S
H845 C859 0.960 . S
H846 C859 0.961 . S
H847 C859 0.959 . S
H848 C862 0.929 . S
H849 C863 0.931 . S
H850 C865 0.930 . S
C851 H839 0.930 . S
C851 C852 1.399 . S
C851 C856 1.399 . S
C852 C851 1.399 . S
C852 C853 1.376 . S
C853 H840 0.930 . S
C853 C852 1.376 . S
C853 C854 1.388 . S
C854 H841 0.930 . S
C854 C853 1.388 . S
C854 C855 1.390 . S
C855 C854 1.390 . S
C855 C856 1.394 . S
C855 C861 1.465 . S
C856 C851 1.399 . S
C856 C855 1.394 . S
C856 C857 1.516 . S
C857 C856 1.516 . S
C857 C858 1.502 . S
C857 C859 1.561 . S
C857 C860 1.526 . S
C858 H842 0.959 . S
C858 H843 0.959 . S
C858 H844 0.961 . S
C858 C857 1.502 . S
C859 H845 0.960 . S
C859 H846 0.961 . S
C859 H847 0.959 . S
C859 C857 1.561 . S
C860 C857 1.526 . S
C860 C861 1.396 . S
C860 C865 1.390 . S
C861 C855 1.465 . S
C861 C860 1.396 . S
C861 C862 1.399 . S
C862 H848 0.929 . S
C862 C861 1.399 . S
C862 C863 1.385 . S
C863 H849 0.931 . S
C863 C862 1.385 . S
C863 C864 1.389 . S
C864 C863 1.389 . S
C864 C865 1.387 . S
C865 H850 0.930 . S
C865 C860 1.390 . S
C865 C864 1.387 . S
H866 C878 0.930 . S
H867 C880 0.930 . S
H868 C881 0.930 . S
H869 C885 0.959 . S
H870 C885 0.959 . S
H871 C885 0.961 . S
H872 C886 0.960 . S
H873 C886 0.961 . S
H874 C886 0.959 . S
H875 C889 0.929 . S
H876 C890 0.931 . S
H877 C892 0.930 . S
C878 H866 0.930 . S
C878 C879 1.399 . S
C878 C883 1.399 . S
C879 C878 1.399 . S
C879 C880 1.376 . S
C880 H867 0.930 . S
C880 C879 1.376 . S
C880 C881 1.388 . S
C881 H868 0.930 . S
C881 C880 1.388 . S
C881 C882 1.390 . S
C882 C881 1.390 . S
C882 C883 1.394 . S
C882 C888 1.465 . S
C883 C878 1.399 . S
C883 C882 1.394 . S
C883 C884 1.516 . S
C884 C883 1.516 . S
C884 C885 1.502 . S
C884 C886 1.561 . S
C884 C887 1.526 . S
C885 H869 0.959 . S
C885 H870 0.959 . S
C885 H871 0.961 . S
C885 C884 1.502 . S
C886 H872 0.960 . S
C886 H873 0.961 . S
C886 H874 0.959 . S
C886 C884 1.561 . S
C887 C884 1.526 . S
C887 C888 1.396 . S
C887 C892 1.390 . S
C888 C882 1.465 . S
C888 C887 1.396 . S
C888 C889 1.399 . S
C889 H875 0.929 . S
C889 C888 1.399 . S
C889 C890 1.385 . S
C890 H876 0.931 . S
C890 C889 1.385 . S
C890 C891 1.389 . S
C891 C890 1.389 . S
C891 C892 1.387 . S
C892 H877 0.930 . S
C892 C887 1.390 . S
C892 C891 1.387 . S
H893 C905 0.930 . S
H894 C907 0.930 . S
H895 C908 0.930 . S
H896 C912 0.959 . S
H897 C912 0.959 . S
H898 C912 0.961 . S
H899 C913 0.960 . S
H900 C913 0.961 . S
H901 C913 0.959 . S
H902 C916 0.929 . S
H903 C917 0.931 . S
H904 C919 0.930 . S
C905 H893 0.930 . S
C905 C906 1.399 . S
C905 C910 1.399 . S
C906 C905 1.399 . S
C906 C907 1.376 . S
C907 H894 0.930 . S
C907 C906 1.376 . S
C907 C908 1.388 . S
C908 H895 0.930 . S
C908 C907 1.388 . S
C908 C909 1.390 . S
C909 C908 1.390 . S
C909 C910 1.394 . S
C909 C915 1.465 . S
C910 C905 1.399 . S
C910 C909 1.394 . S
C910 C911 1.516 . S
C911 C910 1.516 . S
C911 C912 1.502 . S
C911 C913 1.561 . S
C911 C914 1.526 . S
C912 H896 0.959 . S
C912 H897 0.959 . S
C912 H898 0.961 . S
C912 C911 1.502 . S
C913 H899 0.960 . S
C913 H900 0.961 . S
C913 H901 0.959 . S
C913 C911 1.561 . S
C914 C911 1.526 . S
C914 C915 1.396 . S
C914 C919 1.390 . S
C915 C909 1.465 . S
C915 C914 1.396 . S
C915 C916 1.399 . S
C916 H902 0.929 . S
C916 C915 1.399 . S
C916 C917 1.385 . S
C917 H903 0.931 . S
C917 C916 1.385 . S
C917 C918 1.389 . S
C918 C917 1.389 . S
C918 C919 1.387 . S
C919 H904 0.930 . S
C919 C914 1.390 . S
C919 C918 1.387 . S
H920 C932 0.930 . S
H921 C934 0.930 . S
H922 C935 0.930 . S
H923 C939 0.959 . S
H924 C939 0.959 . S
H925 C939 0.961 . S
H926 C940 0.960 . S
H927 C940 0.961 . S
H928 C940 0.959 . S
H929 C943 0.929 . S
H930 C944 0.931 . S
H931 C946 0.930 . S
C932 H920 0.930 . S
C932 C933 1.399 . S
C932 C937 1.399 . S
C933 C932 1.399 . S
C933 C934 1.376 . S
C934 H921 0.930 . S
C934 C933 1.376 . S
C934 C935 1.388 . S
C935 H922 0.930 . S
C935 C934 1.388 . S
C935 C936 1.390 . S
C936 C935 1.390 . S
C936 C937 1.394 . S
C936 C942 1.465 . S
C937 C932 1.399 . S
C937 C936 1.394 . S
C937 C938 1.516 . S
C938 C937 1.516 . S
C938 C939 1.502 . S
C938 C940 1.561 . S
C938 C941 1.526 . S
C939 H923 0.959 . S
C939 H924 0.959 . S
C939 H925 0.961 . S
C939 C938 1.502 . S
C940 H926 0.960 . S
C940 H927 0.961 . S
C940 H928 0.959 . S
C940 C938 1.561 . S
C941 C938 1.526 . S
C941 C942 1.396 . S
C941 C946 1.390 . S
C942 C936 1.465 . S
C942 C941 1.396 . S
C942 C943 1.399 . S
C943 H929 0.929 . S
C943 C942 1.399 . S
C943 C944 1.385 . S
C944 H930 0.931 . S
C944 C943 1.385 . S
C944 C945 1.389 . S
C945 C944 1.389 . S
C945 C946 1.387 . S
C946 H931 0.930 . S
C946 C941 1.390 . S
C946 C945 1.387 . S
H947 C959 0.930 . S
H948 C961 0.930 . S
H949 C962 0.930 . S
H950 C966 0.959 . S
H951 C966 0.959 . S
H952 C966 0.961 . S
H953 C967 0.960 . S
H954 C967 0.961 . S
H955 C967 0.959 . S
H956 C970 0.929 . S
H957 C971 0.931 . S
H958 C973 0.930 . S
C959 H947 0.930 . S
C959 C960 1.399 . S
C959 C964 1.399 . S
C960 C959 1.399 . S
C960 C961 1.376 . S
C961 H948 0.930 . S
C961 C960 1.376 . S
C961 C962 1.388 . S
C962 H949 0.930 . S
C962 C961 1.388 . S
C962 C963 1.390 . S
C963 C962 1.390 . S
C963 C964 1.394 . S
C963 C969 1.465 . S
C964 C959 1.399 . S
C964 C963 1.394 . S
C964 C965 1.516 . S
C965 C964 1.516 . S
C965 C966 1.502 . S
C965 C967 1.561 . S
C965 C968 1.526 . S
C966 H950 0.959 . S
C966 H951 0.959 . S
C966 H952 0.961 . S
C966 C965 1.502 . S
C967 H953 0.960 . S
C967 H954 0.961 . S
C967 H955 0.959 . S
C967 C965 1.561 . S
C968 C965 1.526 . S
C968 C969 1.396 . S
C968 C973 1.390 . S
C969 C963 1.465 . S
C969 C968 1.396 . S
C969 C970 1.399 . S
C970 H956 0.929 . S
C970 C969 1.399 . S
C970 C971 1.385 . S
C971 H957 0.931 . S
C971 C970 1.385 . S
C971 C972 1.389 . S
C972 C971 1.389 . S
C972 C973 1.387 . S
C973 H958 0.930 . S
C973 C968 1.390 . S
C973 C972 1.387 . S
H974 C986 0.930 . S
H975 C988 0.930 . S
H976 C989 0.930 . S
H977 C993 0.959 . S
H978 C993 0.959 . S
H979 C993 0.961 . S
H980 C994 0.960 . S
H981 C994 0.961 . S
H982 C994 0.959 . S
H983 C997 0.929 . S
H984 C998 0.931 . S
H985 C1000 0.930 . S
C986 H974 0.930 . S
C986 C987 1.399 . S
C986 C991 1.399 . S
C987 C986 1.399 . S
C987 C988 1.376 . S
C988 H975 0.930 . S
C988 C987 1.376 . S
C988 C989 1.388 . S
C989 H976 0.930 . S
C989 C988 1.388 . S
C989 C990 1.390 . S
C990 C989 1.390 . S
C990 C991 1.394 . S
C990 C996 1.465 . S
C991 C986 1.399 . S
C991 C990 1.394 . S
C991 C992 1.516 . S
C992 C991 1.516 . S
C992 C993 1.502 . S
C992 C994 1.561 . S
C992 C995 1.526 . S
C993 H977 0.959 . S
C993 H978 0.959 . S
C993 H979 0.961 . S
C993 C992 1.502 . S
C994 H980 0.960 . S
C994 H981 0.961 . S
C994 H982 0.959 . S
C994 C992 1.561 . S
C995 C992 1.526 . S
C995 C996 1.396 . S
C995 C1000 1.390 . S
C996 C990 1.465 . S
C996 C995 1.396 . S
C996 C997 1.399 . S
C997 H983 0.929 . S
C997 C996 1.399 . S
C997 C998 1.385 . S
C998 H984 0.931 . S
C998 C997 1.385 . S
C998 C999 1.389 . S
C999 C998 1.389 . S
C999 C1000 1.387 . S
C1000 H985 0.930 . S
C1000 C995 1.390 . S
C1000 C999 1.387 . S
H1001 C1013 0.930 . S
H1002 C1015 0.930 . S
H1003 C1016 0.930 . S
H1004 C1020 0.959 . S
H1005 C1020 0.959 . S
H1006 C1020 0.961 . S
H1007 C1021 0.960 . S
H1008 C1021 0.961 . S
H1009 C1021 0.959 . S
H1010 C1024 0.929 . S
H1011 C1025 0.931 . S
H1012 C1027 0.930 . S
C1013 H1001 0.930 . S
C1013 C1014 1.399 . S
C1013 C1018 1.399 . S
C1014 C1013 1.399 . S
C1014 C1015 1.376 . S
C1015 H1002 0.930 . S
C1015 C1014 1.376 . S
C1015 C1016 1.388 . S
C1016 H1003 0.930 . S
C1016 C1015 1.388 . S
C1016 C1017 1.390 . S
C1017 C1016 1.390 . S
C1017 C1018 1.394 . S
C1017 C1023 1.465 . S
C1018 C1013 1.399 . S
C1018 C1017 1.394 . S
C1018 C1019 1.516 . S
C1019 C1018 1.516 . S
C1019 C1020 1.502 . S
C1019 C1021 1.561 . S
C1019 C1022 1.526 . S
C1020 H1004 0.959 . S
C1020 H1005 0.959 . S
C1020 H1006 0.961 . S
C1020 C1019 1.502 . S
C1021 H1007 0.960 . S
C1021 H1008 0.961 . S
C1021 H1009 0.959 . S
C1021 C1019 1.561 . S
C1022 C1019 1.526 . S
C1022 C1023 1.396 . S
C1022 C1027 1.390 . S
C1023 C1017 1.465 . S
C1023 C1022 1.396 . S
C1023 C1024 1.399 . S
C1024 H1010 0.929 . S
C1024 C1023 1.399 . S
C1024 C1025 1.385 . S
C1025 H1011 0.931 . S
C1025 C1024 1.385 . S
C1025 C1026 1.389 . S
C1026 C1025 1.389 . S
C1026 C1027 1.387 . S
C1027 H1012 0.930 . S
C1027 C1022 1.390 . S
C1027 C1026 1.387 . S
H1028 C1040 0.930 . S
H1029 C1042 0.930 . S
H1030 C1043 0.930 . S
H1031 C1047 0.959 . S
H1032 C1047 0.959 . S
H1033 C1047 0.961 . S
H1034 C1048 0.960 . S
H1035 C1048 0.961 . S
H1036 C1048 0.959 . S
H1037 C1051 0.929 . S
H1038 C1052 0.931 . S
H1039 C1054 0.930 . S
C1040 H1028 0.930 . S
C1040 C1041 1.399 . S
C1040 C1045 1.399 . S
C1041 C1040 1.399 . S
C1041 C1042 1.376 . S
C1042 H1029 0.930 . S
C1042 C1041 1.376 . S
C1042 C1043 1.388 . S
C1043 H1030 0.930 . S
C1043 C1042 1.388 . S
C1043 C1044 1.390 . S
C1044 C1043 1.390 . S
C1044 C1045 1.394 . S
C1044 C1050 1.465 . S
C1045 C1040 1.399 . S
C1045 C1044 1.394 . S
C1045 C1046 1.516 . S
C1046 C1045 1.516 . S
C1046 C1047 1.502 . S
C1046 C1048 1.561 . S
C1046 C1049 1.526 . S
C1047 H1031 0.959 . S
C1047 H1032 0.959 . S
C1047 H1033 0.961 . S
C1047 C1046 1.502 . S
C1048 H1034 0.960 . S
C1048 H1035 0.961 . S
C1048 H1036 0.959 . S
C1048 C1046 1.561 . S
C1049 C1046 1.526 . S
C1049 C1050 1.396 . S
C1049 C1054 1.390 . S
C1050 C1044 1.465 . S
C1050 C1049 1.396 . S
C1050 C1051 1.399 . S
C1051 H1037 0.929 . S
C1051 C1050 1.399 . S
C1051 C1052 1.385 . S
C1052 H1038 0.931 . S
C1052 C1051 1.385 . S
C1052 C1053 1.389 . S
C1053 C1052 1.389 . S
C1053 C1054 1.387 . S
C1054 H1039 0.930 . S
C1054 C1049 1.390 . S
C1054 C1053 1.387 . S
H1055 C1067 0.930 . S
H1056 C1069 0.930 . S
H1057 C1070 0.930 . S
H1058 C1074 0.959 . S
H1059 C1074 0.959 . S
H1060 C1074 0.961 . S
H1061 C1075 0.960 . S
H1062 C1075 0.961 . S
H1063 C1075 0.959 . S
H1064 C1078 0.929 . S
H1065 C1079 0.931 . S
H1066 C1081 0.930 . S
C1067 H1055 0.930 . S
C1067 C1068 1.399 . S
C1067 C1072 1.399 . S
C1068 C1067 1.399 . S
C1068 C1069 1.376 . S
C1069 H1056 0.930 . S
C1069 C1068 1.376 . S
C1069 C1070 1.388 . S
C1070 H1057 0.930 . S
C1070 C1069 1.388 . S
C1070 C1071 1.390 . S
C1071 C1070 1.390 . S
C1071 C1072 1.394 . S
C1071 C1077 1.465 . S
C1072 C1067 1.399 . S
C1072 C1071 1.394 . S
C1072 C1073 1.516 . S
C1073 C1072 1.516 . S
C1073 C1074 1.502 . S
C1073 C1075 1.561 . S
C1073 C1076 1.526 . S
C1074 H1058 0.959 . S
C1074 H1059 0.959 . S
C1074 H1060 0.961 . S
C1074 C1073 1.502 . S
C1075 H1061 0.960 . S
C1075 H1062 0.961 . S
C1075 H1063 0.959 . S
C1075 C1073 1.561 . S
C1076 C1073 1.526 . S
C1076 C1077 1.396 . S
C1076 C1081 1.390 . S
C1077 C1071 1.465 . S
C1077 C1076 1.396 . S
C1077 C1078 1.399 . S
C1078 H1064 0.929 . S
C1078 C1077 1.399 . S
C1078 C1079 1.385 . S
C1079 H1065 0.931 . S
C1079 C1078 1.385 . S
C1079 C1080 1.389 . S
C1080 C1079 1.389 . S
C1080 C1081 1.387 . S
C1081 H1066 0.930 . S
C1081 C1076 1.390 . S
C1081 C1080 1.387 . S
H1082 C1094 0.930 . S
H1083 C1096 0.930 . S
H1084 C1097 0.930 . S
H1085 C1101 0.959 . S
H1086 C1101 0.959 . S
H1087 C1101 0.961 . S
H1088 C1102 0.960 . S
H1089 C1102 0.961 . S
H1090 C1102 0.959 . S
H1091 C1105 0.929 . S
H1092 C1106 0.931 . S
H1093 C1108 0.930 . S
C1094 H1082 0.930 . S
C1094 C1095 1.399 . S
C1094 C1099 1.399 . S
C1095 C1094 1.399 . S
C1095 C1096 1.376 . S
C1096 H1083 0.930 . S
C1096 C1095 1.376 . S
C1096 C1097 1.388 . S
C1097 H1084 0.930 . S
C1097 C1096 1.388 . S
C1097 C1098 1.390 . S
C1098 C1097 1.390 . S
C1098 C1099 1.394 . S
C1098 C1104 1.465 . S
C1099 C1094 1.399 . S
C1099 C1098 1.394 . S
C1099 C1100 1.516 . S
C1100 C1099 1.516 . S
C1100 C1101 1.502 . S
C1100 C1102 1.561 . S
C1100 C1103 1.526 . S
C1101 H1085 0.959 . S
C1101 H1086 0.959 . S
C1101 H1087 0.961 . S
C1101 C1100 1.502 . S
C1102 H1088 0.960 . S
C1102 H1089 0.961 . S
C1102 H1090 0.959 . S
C1102 C1100 1.561 . S
C1103 C1100 1.526 . S
C1103 C1104 1.396 . S
C1103 C1108 1.390 . S
C1104 C1098 1.465 . S
C1104 C1103 1.396 . S
C1104 C1105 1.399 . S
C1105 H1091 0.929 . S
C1105 C1104 1.399 . S
C1105 C1106 1.385 . S
C1106 H1092 0.931 . S
C1106 C1105 1.385 . S
C1106 C1107 1.389 . S
C1107 C1106 1.389 . S
C1107 C1108 1.387 . S
C1108 H1093 0.930 . S
C1108 C1103 1.390 . S
C1108 C1107 1.387 . S
H1109 C1121 0.930 . S
H1110 C1123 0.930 . S
H1111 C1124 0.930 . S
H1112 C1128 0.959 . S
H1113 C1128 0.959 . S
H1114 C1128 0.961 . S
H1115 C1129 0.960 . S
H1116 C1129 0.961 . S
H1117 C1129 0.959 . S
H1118 C1132 0.929 . S
H1119 C1133 0.931 . S
H1120 C1135 0.930 . S
C1121 H1109 0.930 . S
C1121 C1122 1.399 . S
C1121 C1126 1.399 . S
C1122 C1121 1.399 . S
C1122 C1123 1.376 . S
C1123 H1110 0.930 . S
C1123 C1122 1.376 . S
C1123 C1124 1.388 . S
C1124 H1111 0.930 . S
C1124 C1123 1.388 . S
C1124 C1125 1.390 . S
C1125 C1124 1.390 . S
C1125 C1126 1.394 . S
C1125 C1131 1.465 . S
C1126 C1121 1.399 . S
C1126 C1125 1.394 . S
C1126 C1127 1.516 . S
C1127 C1126 1.516 . S
C1127 C1128 1.502 . S
C1127 C1129 1.561 . S
C1127 C1130 1.526 . S
C1128 H1112 0.959 . S
C1128 H1113 0.959 . S
C1128 H1114 0.961 . S
C1128 C1127 1.502 . S
C1129 H1115 0.960 . S
C1129 H1116 0.961 . S
C1129 H1117 0.959 . S
C1129 C1127 1.561 . S
C1130 C1127 1.526 . S
C1130 C1131 1.396 . S
C1130 C1135 1.390 . S
C1131 C1125 1.465 . S
C1131 C1130 1.396 . S
C1131 C1132 1.399 . S
C1132 H1118 0.929 . S
C1132 C1131 1.399 . S
C1132 C1133 1.385 . S
C1133 H1119 0.931 . S
C1133 C1132 1.385 . S
C1133 C1134 1.389 . S
C1134 C1133 1.389 . S
C1134 C1135 1.387 . S
C1135 H1120 0.930 . S
C1135 C1130 1.390 . S
C1135 C1134 1.387 . S
H1136 C1148 0.930 . S
H1137 C1150 0.930 . S
H1138 C1151 0.930 . S
H1139 C1155 0.959 . S
H1140 C1155 0.959 . S
H1141 C1155 0.961 . S
H1142 C1156 0.960 . S
H1143 C1156 0.961 . S
H1144 C1156 0.959 . S
H1145 C1159 0.929 . S
H1146 C1160 0.931 1_554 S
H1147 C1162 0.930 . S
C1148 H1136 0.930 . S
C1148 C1149 1.399 . S
C1148 C1153 1.399 . S
C1149 C1148 1.399 . S
C1149 C1150 1.376 . S
C1150 H1137 0.930 . S
C1150 C1149 1.376 . S
C1150 C1151 1.388 . S
C1151 H1138 0.930 . S
C1151 C1150 1.388 . S
C1151 C1152 1.390 . S
C1152 C1151 1.390 . S
C1152 C1153 1.394 . S
C1152 C1158 1.465 . S
C1153 C1148 1.399 . S
C1153 C1152 1.394 . S
C1153 C1154 1.516 . S
C1154 C1153 1.516 . S
C1154 C1155 1.502 . S
C1154 C1156 1.561 . S
C1154 C1157 1.526 . S
C1155 H1139 0.959 . S
C1155 H1140 0.959 . S
C1155 H1141 0.961 . S
C1155 C1154 1.502 . S
C1156 H1142 0.960 . S
C1156 H1143 0.961 . S
C1156 H1144 0.959 . S
C1156 C1154 1.561 . S
C1157 C1154 1.526 . S
C1157 C1158 1.396 . S
C1157 C1162 1.390 . S
C1158 C1152 1.465 . S
C1158 C1157 1.396 . S
C1158 C1159 1.399 . S
C1159 H1145 0.929 . S
C1159 C1158 1.399 . S
C1159 C1160 1.385 . S
C1160 H1146 0.931 1_556 S
C1160 C1159 1.385 . S
C1160 C1161 1.389 . S
C1161 C1160 1.389 . S
C1161 C1162 1.387 . S
C1162 H1147 0.930 . S
C1162 C1157 1.390 . S
C1162 C1161 1.387 . S
H1163 C1175 0.930 . S
H1164 C1177 0.930 . S
H1165 C1178 0.930 . S
H1166 C1182 0.959 . S
H1167 C1182 0.959 . S
H1168 C1182 0.961 . S
H1169 C1183 0.960 . S
H1170 C1183 0.961 . S
H1171 C1183 0.959 . S
H1172 C1186 0.929 . S
H1173 C1187 0.931 . S
H1174 C1189 0.930 . S
C1175 H1163 0.930 . S
C1175 C1176 1.399 . S
C1175 C1180 1.399 . S
C1176 C1175 1.399 . S
C1176 C1177 1.376 . S
C1177 H1164 0.930 . S
C1177 C1176 1.376 . S
C1177 C1178 1.388 . S
C1178 H1165 0.930 . S
C1178 C1177 1.388 . S
C1178 C1179 1.390 . S
C1179 C1178 1.390 . S
C1179 C1180 1.394 . S
C1179 C1185 1.465 . S
C1180 C1175 1.399 . S
C1180 C1179 1.394 . S
C1180 C1181 1.516 . S
C1181 C1180 1.516 . S
C1181 C1182 1.502 . S
C1181 C1183 1.561 . S
C1181 C1184 1.526 . S
C1182 H1166 0.959 . S
C1182 H1167 0.959 . S
C1182 H1168 0.961 . S
C1182 C1181 1.502 . S
C1183 H1169 0.960 . S
C1183 H1170 0.961 . S
C1183 H1171 0.959 . S
C1183 C1181 1.561 . S
C1184 C1181 1.526 . S
C1184 C1185 1.396 . S
C1184 C1189 1.390 . S
C1185 C1179 1.465 . S
C1185 C1184 1.396 . S
C1185 C1186 1.399 . S
C1186 H1172 0.929 . S
C1186 C1185 1.399 . S
C1186 C1187 1.385 . S
C1187 H1173 0.931 . S
C1187 C1186 1.385 . S
C1187 C1188 1.389 . S
C1188 C1187 1.389 . S
C1188 C1189 1.387 . S
C1189 H1174 0.930 . S
C1189 C1184 1.390 . S
C1189 C1188 1.387 . S
H1190 C1202 0.930 . S
H1191 C1204 0.930 . S
H1192 C1205 0.930 . S
H1193 C1209 0.959 . S
H1194 C1209 0.959 . S
H1195 C1209 0.961 . S
H1196 C1210 0.960 . S
H1197 C1210 0.961 . S
H1198 C1210 0.959 . S
H1199 C1213 0.929 . S
H1200 C1214 0.931 . S
H1201 C1216 0.930 . S
C1202 H1190 0.930 . S
C1202 C1203 1.399 . S
C1202 C1207 1.399 . S
C1203 C1202 1.399 . S
C1203 C1204 1.376 . S
C1204 H1191 0.930 . S
C1204 C1203 1.376 . S
C1204 C1205 1.388 . S
C1205 H1192 0.930 . S
C1205 C1204 1.388 . S
C1205 C1206 1.390 . S
C1206 C1205 1.390 . S
C1206 C1207 1.394 . S
C1206 C1212 1.465 . S
C1207 C1202 1.399 . S
C1207 C1206 1.394 . S
C1207 C1208 1.516 . S
C1208 C1207 1.516 . S
C1208 C1209 1.502 . S
C1208 C1210 1.561 . S
C1208 C1211 1.526 . S
C1209 H1193 0.959 . S
C1209 H1194 0.959 . S
C1209 H1195 0.961 . S
C1209 C1208 1.502 . S
C1210 H1196 0.960 . S
C1210 H1197 0.961 . S
C1210 H1198 0.959 . S
C1210 C1208 1.561 . S
C1211 C1208 1.526 . S
C1211 C1212 1.396 . S
C1211 C1216 1.390 . S
C1212 C1206 1.465 . S
C1212 C1211 1.396 . S
C1212 C1213 1.399 . S
C1213 H1199 0.929 . S
C1213 C1212 1.399 . S
C1213 C1214 1.385 . S
C1214 H1200 0.931 . S
C1214 C1213 1.385 . S
C1214 C1215 1.389 . S
C1215 C1214 1.389 . S
C1215 C1216 1.387 . S
C1216 H1201 0.930 . S
C1216 C1211 1.390 . S
C1216 C1215 1.387 . S
H1217 C1229 0.930 . S
H1218 C1231 0.930 . S
H1219 C1232 0.930 . S
H1220 C1236 0.959 . S
H1221 C1236 0.959 . S
H1222 C1236 0.961 . S
H1223 C1237 0.960 . S
H1224 C1237 0.961 . S
H1225 C1237 0.959 . S
H1226 C1240 0.929 . S
H1227 C1241 0.931 . S
H1228 C1243 0.930 . S
C1229 H1217 0.930 . S
C1229 C1230 1.399 . S
C1229 C1234 1.399 . S
C1230 C1229 1.399 . S
C1230 C1231 1.376 . S
C1231 H1218 0.930 . S
C1231 C1230 1.376 . S
C1231 C1232 1.388 1_556 S
C1232 H1219 0.930 . S
C1232 C1231 1.388 1_554 S
C1232 C1233 1.390 . S
C1233 C1232 1.390 . S
C1233 C1234 1.394 1_554 S
C1233 C1239 1.465 . S
C1234 C1229 1.399 . S
C1234 C1233 1.394 1_556 S
C1234 C1235 1.516 . S
C1235 C1234 1.516 . S
C1235 C1236 1.502 . S
C1235 C1237 1.561 . S
C1235 C1238 1.526 1_556 S
C1236 H1220 0.959 . S
C1236 H1221 0.959 . S
C1236 H1222 0.961 . S
C1236 C1235 1.502 . S
C1237 H1223 0.960 . S
C1237 H1224 0.961 . S
C1237 H1225 0.959 . S
C1237 C1235 1.561 . S
C1238 C1235 1.526 1_554 S
C1238 C1239 1.396 . S
C1238 C1243 1.390 . S
C1239 C1233 1.465 . S
C1239 C1238 1.396 . S
C1239 C1240 1.399 . S
C1240 H1226 0.929 . S
C1240 C1239 1.399 . S
C1240 C1241 1.385 . S
C1241 H1227 0.931 . S
C1241 C1240 1.385 . S
C1241 C1242 1.389 . S
C1242 C1241 1.389 . S
C1242 C1243 1.387 . S
C1243 H1228 0.930 . S
C1243 C1238 1.390 . S
C1243 C1242 1.387 . S
H1244 C1256 0.930 . S
H1245 C1258 0.930 . S
H1246 C1259 0.930 . S
H1247 C1263 0.959 . S
H1248 C1263 0.959 . S
H1249 C1263 0.961 . S
H1250 C1264 0.960 . S
H1251 C1264 0.961 . S
H1252 C1264 0.959 . S
H1253 C1267 0.929 . S
H1254 C1268 0.931 . S
H1255 C1270 0.930 . S
C1256 H1244 0.930 . S
C1256 C1257 1.399 . S
C1256 C1261 1.399 . S
C1257 C1256 1.399 . S
C1257 C1258 1.376 . S
C1258 H1245 0.930 . S
C1258 C1257 1.376 . S
C1258 C1259 1.388 . S
C1259 H1246 0.930 . S
C1259 C1258 1.388 . S
C1259 C1260 1.390 . S
C1260 C1259 1.390 . S
C1260 C1261 1.394 . S
C1260 C1266 1.465 . S
C1261 C1256 1.399 . S
C1261 C1260 1.394 . S
C1261 C1262 1.516 . S
C1262 C1261 1.516 . S
C1262 C1263 1.502 . S
C1262 C1264 1.561 . S
C1262 C1265 1.526 . S
C1263 H1247 0.959 . S
C1263 H1248 0.959 . S
C1263 H1249 0.961 . S
C1263 C1262 1.502 . S
C1264 H1250 0.960 . S
C1264 H1251 0.961 . S
C1264 H1252 0.959 . S
C1264 C1262 1.561 . S
C1265 C1262 1.526 . S
C1265 C1266 1.396 . S
C1265 C1270 1.390 . S
C1266 C1260 1.465 . S
C1266 C1265 1.396 . S
C1266 C1267 1.399 . S
C1267 H1253 0.929 . S
C1267 C1266 1.399 . S
C1267 C1268 1.385 . S
C1268 H1254 0.931 . S
C1268 C1267 1.385 . S
C1268 C1269 1.389 . S
C1269 C1268 1.389 . S
C1269 C1270 1.387 . S
C1270 H1255 0.930 . S
C1270 C1265 1.390 . S
C1270 C1269 1.387 . S
H1271 C1283 0.930 . S
H1272 C1285 0.930 . S
H1273 C1286 0.930 . S
H1274 C1290 0.959 . S
H1275 C1290 0.959 . S
H1276 C1290 0.961 . S
H1277 C1291 0.960 . S
H1278 C1291 0.961 . S
H1279 C1291 0.959 . S
H1280 C1294 0.929 . S
H1281 C1295 0.931 . S
H1282 C1297 0.930 . S
C1283 H1271 0.930 . S
C1283 C1284 1.399 . S
C1283 C1288 1.399 . S
C1284 C1283 1.399 . S
C1284 C1285 1.376 . S
C1285 H1272 0.930 . S
C1285 C1284 1.376 . S
C1285 C1286 1.388 . S
C1286 H1273 0.930 . S
C1286 C1285 1.388 . S
C1286 C1287 1.390 . S
C1287 C1286 1.390 . S
C1287 C1288 1.394 . S
C1287 C1293 1.465 . S
C1288 C1283 1.399 . S
C1288 C1287 1.394 . S
C1288 C1289 1.516 . S
C1289 C1288 1.516 . S
C1289 C1290 1.502 . S
C1289 C1291 1.561 . S
C1289 C1292 1.526 . S
C1290 H1274 0.959 . S
C1290 H1275 0.959 . S
C1290 H1276 0.961 . S
C1290 C1289 1.502 . S
C1291 H1277 0.960 . S
C1291 H1278 0.961 . S
C1291 H1279 0.959 . S
C1291 C1289 1.561 . S
C1292 C1289 1.526 . S
C1292 C1293 1.396 . S
C1292 C1297 1.390 . S
C1293 C1287 1.465 . S
C1293 C1292 1.396 . S
C1293 C1294 1.399 . S
C1294 H1280 0.929 . S
C1294 C1293 1.399 . S
C1294 C1295 1.385 . S
C1295 H1281 0.931 . S
C1295 C1294 1.385 . S
C1295 C1296 1.389 . S
C1296 C1295 1.389 . S
C1296 C1297 1.387 . S
C1297 H1282 0.930 . S
C1297 C1292 1.390 . S
C1297 C1296 1.387 . S
H1298 C1310 0.930 . S
H1299 C1312 0.930 . S
H1300 C1313 0.930 . S
H1301 C1317 0.959 . S
H1302 C1317 0.959 . S
H1303 C1317 0.961 . S
H1304 C1318 0.960 1_545 S
H1305 C1318 0.961 1_545 S
H1306 C1318 0.959 . S
H1307 C1321 0.929 . S
H1308 C1322 0.931 . S
H1309 C1324 0.930 . S
C1310 H1298 0.930 . S
C1310 C1311 1.399 . S
C1310 C1315 1.399 . S
C1311 C1310 1.399 . S
C1311 C1312 1.376 . S
C1312 H1299 0.930 . S
C1312 C1311 1.376 . S
C1312 C1313 1.388 . S
C1313 H1300 0.930 . S
C1313 C1312 1.388 . S
C1313 C1314 1.390 . S
C1314 C1313 1.390 . S
C1314 C1315 1.394 . S
C1314 C1320 1.465 . S
C1315 C1310 1.399 . S
C1315 C1314 1.394 . S
C1315 C1316 1.516 . S
C1316 C1315 1.516 . S
C1316 C1317 1.502 . S
C1316 C1318 1.561 . S
C1316 C1319 1.526 . S
C1317 H1301 0.959 . S
C1317 H1302 0.959 . S
C1317 H1303 0.961 . S
C1317 C1316 1.502 . S
C1318 H1304 0.960 1_565 S
C1318 H1305 0.961 1_565 S
C1318 H1306 0.959 . S
C1318 C1316 1.561 . S
C1319 C1316 1.526 . S
C1319 C1320 1.396 . S
C1319 C1324 1.390 . S
C1320 C1314 1.465 . S
C1320 C1319 1.396 . S
C1320 C1321 1.399 . S
C1321 H1307 0.929 . S
C1321 C1320 1.399 . S
C1321 C1322 1.385 . S
C1322 H1308 0.931 . S
C1322 C1321 1.385 . S
C1322 C1323 1.389 . S
C1323 C1322 1.389 . S
C1323 C1324 1.387 . S
C1324 H1309 0.930 . S
C1324 C1319 1.390 . S
C1324 C1323 1.387 . S
H1325 C1337 0.930 . S
H1326 C1339 0.930 . S
H1327 C1340 0.930 . S
H1328 C1344 0.959 . S
H1329 C1344 0.959 . S
H1330 C1344 0.961 . S
H1331 C1345 0.960 . S
H1332 C1345 0.961 . S
H1333 C1345 0.959 . S
H1334 C1348 0.929 . S
H1335 C1349 0.931 . S
H1336 C1351 0.930 . S
C1337 H1325 0.930 . S
C1337 C1338 1.399 . S
C1337 C1342 1.399 . S
C1338 C1337 1.399 . S
C1338 C1339 1.376 . S
C1339 H1326 0.930 . S
C1339 C1338 1.376 . S
C1339 C1340 1.388 . S
C1340 H1327 0.930 . S
C1340 C1339 1.388 . S
C1340 C1341 1.390 . S
C1341 C1340 1.390 . S
C1341 C1342 1.394 . S
C1341 C1347 1.465 . S
C1342 C1337 1.399 . S
C1342 C1341 1.394 . S
C1342 C1343 1.516 . S
C1343 C1342 1.516 . S
C1343 C1344 1.502 . S
C1343 C1345 1.561 . S
C1343 C1346 1.526 . S
C1344 H1328 0.959 . S
C1344 H1329 0.959 . S
C1344 H1330 0.961 . S
C1344 C1343 1.502 . S
C1345 H1331 0.960 . S
C1345 H1332 0.961 . S
C1345 H1333 0.959 . S
C1345 C1343 1.561 . S
C1346 C1343 1.526 . S
C1346 C1347 1.396 . S
C1346 C1351 1.390 . S
C1347 C1341 1.465 . S
C1347 C1346 1.396 . S
C1347 C1348 1.399 . S
C1348 H1334 0.929 . S
C1348 C1347 1.399 . S
C1348 C1349 1.385 . S
C1349 H1335 0.931 . S
C1349 C1348 1.385 . S
C1349 C1350 1.389 . S
C1350 C1349 1.389 . S
C1350 C1351 1.387 . S
C1351 H1336 0.930 . S
C1351 C1346 1.390 . S
C1351 C1350 1.387 . S
H1352 C1364 0.930 . S
H1353 C1366 0.930 . S
H1354 C1367 0.930 . S
H1355 C1371 0.959 . S
H1356 C1371 0.959 . S
H1357 C1371 0.961 . S
H1358 C1372 0.960 . S
H1359 C1372 0.961 . S
H1360 C1372 0.959 . S
H1361 C1375 0.929 . S
H1362 C1376 0.931 . S
H1363 C1378 0.930 . S
C1364 H1352 0.930 . S
C1364 C1365 1.399 . S
C1364 C1369 1.399 . S
C1365 C1364 1.399 . S
C1365 C1366 1.376 . S
C1366 H1353 0.930 . S
C1366 C1365 1.376 . S
C1366 C1367 1.388 . S
C1367 H1354 0.930 . S
C1367 C1366 1.388 . S
C1367 C1368 1.390 . S
C1368 C1367 1.390 . S
C1368 C1369 1.394 . S
C1368 C1374 1.465 . S
C1369 C1364 1.399 . S
C1369 C1368 1.394 . S
C1369 C1370 1.516 . S
C1370 C1369 1.516 . S
C1370 C1371 1.502 . S
C1370 C1372 1.561 . S
C1370 C1373 1.526 . S
C1371 H1355 0.959 . S
C1371 H1356 0.959 . S
C1371 H1357 0.961 . S
C1371 C1370 1.502 . S
C1372 H1358 0.960 . S
C1372 H1359 0.961 . S
C1372 H1360 0.959 . S
C1372 C1370 1.561 . S
C1373 C1370 1.526 . S
C1373 C1374 1.396 . S
C1373 C1378 1.390 . S
C1374 C1368 1.465 . S
C1374 C1373 1.396 . S
C1374 C1375 1.399 . S
C1375 H1361 0.929 . S
C1375 C1374 1.399 . S
C1375 C1376 1.385 . S
C1376 H1362 0.931 . S
C1376 C1375 1.385 . S
C1376 C1377 1.389 . S
C1377 C1376 1.389 . S
C1377 C1378 1.387 . S
C1378 H1363 0.930 . S
C1378 C1373 1.390 . S
C1378 C1377 1.387 . S
H1379 C1391 0.930 . S
H1380 C1393 0.930 . S
H1381 C1394 0.930 . S
H1382 C1398 0.959 . S
H1383 C1398 0.959 . S
H1384 C1398 0.961 . S
H1385 C1399 0.960 . S
H1386 C1399 0.961 . S
H1387 C1399 0.959 . S
H1388 C1402 0.929 . S
H1389 C1403 0.931 . S
H1390 C1405 0.930 . S
C1391 H1379 0.930 . S
C1391 C1392 1.399 . S
C1391 C1396 1.399 . S
C1392 C1391 1.399 . S
C1392 C1393 1.376 . S
C1393 H1380 0.930 . S
C1393 C1392 1.376 . S
C1393 C1394 1.388 . S
C1394 H1381 0.930 . S
C1394 C1393 1.388 . S
C1394 C1395 1.390 . S
C1395 C1394 1.390 . S
C1395 C1396 1.394 . S
C1395 C1401 1.465 . S
C1396 C1391 1.399 . S
C1396 C1395 1.394 . S
C1396 C1397 1.516 . S
C1397 C1396 1.516 . S
C1397 C1398 1.502 . S
C1397 C1399 1.561 . S
C1397 C1400 1.526 . S
C1398 H1382 0.959 . S
C1398 H1383 0.959 . S
C1398 H1384 0.961 . S
C1398 C1397 1.502 . S
C1399 H1385 0.960 . S
C1399 H1386 0.961 . S
C1399 H1387 0.959 . S
C1399 C1397 1.561 . S
C1400 C1397 1.526 . S
C1400 C1401 1.396 . S
C1400 C1405 1.390 . S
C1401 C1395 1.465 . S
C1401 C1400 1.396 . S
C1401 C1402 1.399 . S
C1402 H1388 0.929 . S
C1402 C1401 1.399 . S
C1402 C1403 1.385 . S
C1403 H1389 0.931 . S
C1403 C1402 1.385 . S
C1403 C1404 1.389 . S
C1404 C1403 1.389 . S
C1404 C1405 1.387 . S
C1405 H1390 0.930 . S
C1405 C1400 1.390 . S
C1405 C1404 1.387 . S
H1406 C1418 0.930 . S
H1407 C1420 0.930 . S
H1408 C1421 0.930 . S
H1409 C1425 0.959 . S
H1410 C1425 0.959 . S
H1411 C1425 0.961 . S
H1412 C1426 0.960 . S
H1413 C1426 0.961 . S
H1414 C1426 0.959 . S
H1415 C1429 0.929 . S
H1416 C1430 0.931 . S
H1417 C1432 0.930 . S
C1418 H1406 0.930 . S
C1418 C1419 1.399 . S
C1418 C1423 1.399 . S
C1419 C1418 1.399 . S
C1419 C1420 1.376 . S
C1420 H1407 0.930 . S
C1420 C1419 1.376 . S
C1420 C1421 1.388 . S
C1421 H1408 0.930 . S
C1421 C1420 1.388 . S
C1421 C1422 1.390 . S
C1422 C1421 1.390 . S
C1422 C1423 1.394 . S
C1422 C1428 1.465 . S
C1423 C1418 1.399 . S
C1423 C1422 1.394 . S
C1423 C1424 1.516 . S
C1424 C1423 1.516 . S
C1424 C1425 1.502 . S
C1424 C1426 1.561 . S
C1424 C1427 1.526 . S
C1425 H1409 0.959 . S
C1425 H1410 0.959 . S
C1425 H1411 0.961 . S
C1425 C1424 1.502 . S
C1426 H1412 0.960 . S
C1426 H1413 0.961 . S
C1426 H1414 0.959 . S
C1426 C1424 1.561 . S
C1427 C1424 1.526 . S
C1427 C1428 1.396 . S
C1427 C1432 1.390 . S
C1428 C1422 1.465 . S
C1428 C1427 1.396 . S
C1428 C1429 1.399 . S
C1429 H1415 0.929 . S
C1429 C1428 1.399 . S
C1429 C1430 1.385 . S
C1430 H1416 0.931 . S
C1430 C1429 1.385 . S
C1430 C1431 1.389 . S
C1431 C1430 1.389 . S
C1431 C1432 1.387 . S
C1432 H1417 0.930 . S
C1432 C1427 1.390 . S
C1432 C1431 1.387 . S
H1433 C1445 0.930 . S
H1434 C1447 0.930 . S
H1435 C1448 0.930 . S
H1436 C1452 0.959 . S
H1437 C1452 0.959 . S
H1438 C1452 0.961 . S
H1439 C1453 0.960 . S
H1440 C1453 0.961 . S
H1441 C1453 0.959 . S
H1442 C1456 0.929 . S
H1443 C1457 0.931 . S
H1444 C1459 0.930 . S
C1445 H1433 0.930 . S
C1445 C1446 1.399 . S
C1445 C1450 1.399 . S
C1446 C1445 1.399 . S
C1446 C1447 1.376 . S
C1447 H1434 0.930 . S
C1447 C1446 1.376 . S
C1447 C1448 1.388 . S
C1448 H1435 0.930 . S
C1448 C1447 1.388 . S
C1448 C1449 1.390 . S
C1449 C1448 1.390 . S
C1449 C1450 1.394 . S
C1449 C1455 1.465 . S
C1450 C1445 1.399 . S
C1450 C1449 1.394 . S
C1450 C1451 1.516 . S
C1451 C1450 1.516 . S
C1451 C1452 1.502 . S
C1451 C1453 1.561 . S
C1451 C1454 1.526 . S
C1452 H1436 0.959 . S
C1452 H1437 0.959 . S
C1452 H1438 0.961 . S
C1452 C1451 1.502 . S
C1453 H1439 0.960 . S
C1453 H1440 0.961 . S
C1453 H1441 0.959 . S
C1453 C1451 1.561 . S
C1454 C1451 1.526 . S
C1454 C1455 1.396 . S
C1454 C1459 1.390 . S
C1455 C1449 1.465 . S
C1455 C1454 1.396 . S
C1455 C1456 1.399 . S
C1456 H1442 0.929 . S
C1456 C1455 1.399 . S
C1456 C1457 1.385 . S
C1457 H1443 0.931 . S
C1457 C1456 1.385 . S
C1457 C1458 1.389 . S
C1458 C1457 1.389 . S
C1458 C1459 1.387 . S
C1459 H1444 0.930 . S
C1459 C1454 1.390 . S
C1459 C1458 1.387 . S
H1460 C1472 0.930 . S
H1461 C1474 0.930 . S
H1462 C1475 0.930 . S
H1463 C1479 0.959 . S
H1464 C1479 0.959 . S
H1465 C1479 0.961 . S
H1466 C1480 0.960 . S
H1467 C1480 0.961 . S
H1468 C1480 0.959 . S
H1469 C1483 0.929 . S
H1470 C1484 0.931 . S
H1471 C1486 0.930 . S
C1472 H1460 0.930 . S
C1472 C1473 1.399 . S
C1472 C1477 1.399 . S
C1473 C1472 1.399 . S
C1473 C1474 1.376 . S
C1474 H1461 0.930 . S
C1474 C1473 1.376 . S
C1474 C1475 1.388 . S
C1475 H1462 0.930 . S
C1475 C1474 1.388 . S
C1475 C1476 1.390 . S
C1476 C1475 1.390 . S
C1476 C1477 1.394 . S
C1476 C1482 1.465 . S
C1477 C1472 1.399 . S
C1477 C1476 1.394 . S
C1477 C1478 1.516 . S
C1478 C1477 1.516 . S
C1478 C1479 1.502 . S
C1478 C1480 1.561 . S
C1478 C1481 1.526 . S
C1479 H1463 0.959 . S
C1479 H1464 0.959 . S
C1479 H1465 0.961 . S
C1479 C1478 1.502 . S
C1480 H1466 0.960 . S
C1480 H1467 0.961 . S
C1480 H1468 0.959 . S
C1480 C1478 1.561 . S
C1481 C1478 1.526 . S
C1481 C1482 1.396 . S
C1481 C1486 1.390 . S
C1482 C1476 1.465 . S
C1482 C1481 1.396 . S
C1482 C1483 1.399 . S
C1483 H1469 0.929 . S
C1483 C1482 1.399 . S
C1483 C1484 1.385 . S
C1484 H1470 0.931 . S
C1484 C1483 1.385 . S
C1484 C1485 1.389 . S
C1485 C1484 1.389 . S
C1485 C1486 1.387 . S
C1486 H1471 0.930 . S
C1486 C1481 1.390 . S
C1486 C1485 1.387 . S
H1487 C1499 0.930 . S
H1488 C1501 0.930 . S
H1489 C1502 0.930 . S
H1490 C1506 0.959 . S
H1491 C1506 0.959 . S
H1492 C1506 0.961 . S
H1493 C1507 0.960 . S
H1494 C1507 0.961 . S
H1495 C1507 0.959 . S
H1496 C1510 0.929 . S
H1497 C1511 0.931 . S
H1498 C1513 0.930 . S
C1499 H1487 0.930 . S
C1499 C1500 1.399 . S
C1499 C1504 1.399 . S
C1500 C1499 1.399 . S
C1500 C1501 1.376 . S
C1501 H1488 0.930 . S
C1501 C1500 1.376 . S
C1501 C1502 1.388 . S
C1502 H1489 0.930 . S
C1502 C1501 1.388 . S
C1502 C1503 1.390 . S
C1503 C1502 1.390 . S
C1503 C1504 1.394 . S
C1503 C1509 1.465 . S
C1504 C1499 1.399 . S
C1504 C1503 1.394 . S
C1504 C1505 1.516 . S
C1505 C1504 1.516 . S
C1505 C1506 1.502 . S
C1505 C1507 1.561 . S
C1505 C1508 1.526 . S
C1506 H1490 0.959 . S
C1506 H1491 0.959 . S
C1506 H1492 0.961 . S
C1506 C1505 1.502 . S
C1507 H1493 0.960 . S
C1507 H1494 0.961 . S
C1507 H1495 0.959 . S
C1507 C1505 1.561 . S
C1508 C1505 1.526 . S
C1508 C1509 1.396 . S
C1508 C1513 1.390 . S
C1509 C1503 1.465 . S
C1509 C1508 1.396 . S
C1509 C1510 1.399 . S
C1510 H1496 0.929 . S
C1510 C1509 1.399 . S
C1510 C1511 1.385 . S
C1511 H1497 0.931 . S
C1511 C1510 1.385 . S
C1511 C1512 1.389 . S
C1512 C1511 1.389 . S
C1512 C1513 1.387 . S
C1513 H1498 0.930 . S
C1513 C1508 1.390 . S
C1513 C1512 1.387 . S
H1514 C1526 0.930 . S
H1515 C1528 0.930 . S
H1516 C1529 0.930 . S
H1517 C1533 0.959 . S
H1518 C1533 0.959 . S
H1519 C1533 0.961 . S
H1520 C1534 0.960 . S
H1521 C1534 0.961 . S
H1522 C1534 0.959 . S
H1523 C1537 0.929 . S
H1524 C1538 0.931 1_554 S
H1525 C1540 0.930 . S
C1526 H1514 0.930 . S
C1526 C1527 1.399 . S
C1526 C1531 1.399 . S
C1527 C1526 1.399 . S
C1527 C1528 1.376 . S
C1528 H1515 0.930 . S
C1528 C1527 1.376 . S
C1528 C1529 1.388 . S
C1529 H1516 0.930 . S
C1529 C1528 1.388 . S
C1529 C1530 1.390 . S
C1530 C1529 1.390 . S
C1530 C1531 1.394 . S
C1530 C1536 1.465 . S
C1531 C1526 1.399 . S
C1531 C1530 1.394 . S
C1531 C1532 1.516 . S
C1532 C1531 1.516 . S
C1532 C1533 1.502 . S
C1532 C1534 1.561 . S
C1532 C1535 1.526 . S
C1533 H1517 0.959 . S
C1533 H1518 0.959 . S
C1533 H1519 0.961 . S
C1533 C1532 1.502 . S
C1534 H1520 0.960 . S
C1534 H1521 0.961 . S
C1534 H1522 0.959 . S
C1534 C1532 1.561 . S
C1535 C1532 1.526 . S
C1535 C1536 1.396 . S
C1535 C1540 1.390 . S
C1536 C1530 1.465 . S
C1536 C1535 1.396 . S
C1536 C1537 1.399 . S
C1537 H1523 0.929 . S
C1537 C1536 1.399 . S
C1537 C1538 1.385 . S
C1538 H1524 0.931 1_556 S
C1538 C1537 1.385 . S
C1538 C1539 1.389 . S
C1539 C1538 1.389 . S
C1539 C1540 1.387 . S
C1540 H1525 0.930 . S
C1540 C1535 1.390 . S
C1540 C1539 1.387 . S
H1541 C1553 0.930 . S
H1542 C1555 0.930 . S
H1543 C1556 0.930 . S
H1544 C1560 0.959 . S
H1545 C1560 0.959 . S
H1546 C1560 0.961 . S
H1547 C1561 0.960 . S
H1548 C1561 0.961 . S
H1549 C1561 0.959 . S
H1550 C1564 0.929 . S
H1551 C1565 0.931 . S
H1552 C1567 0.930 . S
C1553 H1541 0.930 . S
C1553 C1554 1.399 . S
C1553 C1558 1.399 . S
C1554 C1553 1.399 . S
C1554 C1555 1.376 . S
C1555 H1542 0.930 . S
C1555 C1554 1.376 . S
C1555 C1556 1.388 . S
C1556 H1543 0.930 . S
C1556 C1555 1.388 . S
C1556 C1557 1.390 . S
C1557 C1556 1.390 . S
C1557 C1558 1.394 . S
C1557 C1563 1.465 . S
C1558 C1553 1.399 . S
C1558 C1557 1.394 . S
C1558 C1559 1.516 1_556 S
C1559 C1558 1.516 1_554 S
C1559 C1560 1.502 . S
C1559 C1561 1.561 . S
C1559 C1562 1.526 . S
C1560 H1544 0.959 . S
C1560 H1545 0.959 . S
C1560 H1546 0.961 . S
C1560 C1559 1.502 . S
C1561 H1547 0.960 . S
C1561 H1548 0.961 . S
C1561 H1549 0.959 . S
C1561 C1559 1.561 . S
C1562 C1559 1.526 . S
C1562 C1563 1.396 1_554 S
C1562 C1567 1.390 . S
C1563 C1557 1.465 . S
C1563 C1562 1.396 1_556 S
C1563 C1564 1.399 . S
C1564 H1550 0.929 . S
C1564 C1563 1.399 . S
C1564 C1565 1.385 1_556 S
C1565 H1551 0.931 . S
C1565 C1564 1.385 1_554 S
C1565 C1566 1.389 . S
C1566 C1565 1.389 . S
C1566 C1567 1.387 . S
C1567 H1552 0.930 . S
C1567 C1562 1.390 . S
C1567 C1566 1.387 . S
C729 C593 1.669 . S
C717 C39 1.635 . S
C756 C619 1.652 . S
C744 C125 1.656 . S
C783 C633 2.199 1_655 S
C771 C217 2.088 . S
C810 C635 1.948 . S
C798 C261 1.798 . S
C825 C359 1.489 . S
C837 C632 1.514 . S
C864 C634 1.556 . S
C852 C433 1.385 . S
C891 C592 1.540 . S
C879 C495 1.550 . S
C918 C618 1.666 . S
C906 C587 1.711 . S
C945 C620 1.711 1_655 S
C933 C557 1.749 . S
C972 C646 1.118 . S
C960 C347 1.149 . S
C999 C604 1.100 . S
C987 C421 1.094 . S
C1026 C606 1.650 . S
C1014 C507 1.592 . S
C1053 C605 1.509 . S
C1041 C137 1.483 . S
C1080 C607 1.619 . S
C1068 C187 1.533 . S
C1107 C621 2.599 . S
C1095 C291 2.560 . S
C1134 C647 2.072 . S
C1122 C69 2.113 . S
C1161 C649 1.449 . S
C1149 C581 1.448 . S
C1176 C365 2.038 . S
C1188 C675 2.012 . S
C1203 C439 2.437 . S
C1215 C688 2.452 . S
C1230 C483 1.541 . S
C1242 C691 1.528 . S
C1257 C113 1.733 . S
C1269 C689 1.744 . S
C1284 C211 1.592 . S
C1296 C690 1.661 . S
C1311 C273 1.275 . S
C1323 C648 1.370 . S
C1350 C674 1.154 . S
C1338 C51 1.149 . S
C1377 C677 1.581 . S
C1365 C63 1.586 . S
C1392 C143 1.732 . S
C1404 C702 1.759 . S
C1419 C199 1.806 . S
C1431 C660 1.795 . S
C1446 C285 1.405 . S
C1458 C662 1.490 . S
C1485 C661 1.598 . S
C1473 C335 1.633 . S
C1512 C663 1.977 . S
C1500 C409 1.901 . S
C1527 C513 1.998 . S
C1539 C676 1.984 1_556 S
C1566 C703 1.613 . S
C1554 C569 1.644 . S
