# Generated by pormake.
# Topology ssb, (4,4)-cn, num edge types: 1
# Building blocks:
#     Node 0, Type 0, BuildingBlock: AZAVOO_clean_linker_0, # of connection points: 4
#     Node 1, Type 0, BuildingBlock: AZAVOO_clean_linker_0, # of connection points: 4
#     Node 2, Type 0, BuildingBlock: AZAVOO_clean_linker_0, # of connection points: 4
#     Node 3, Type 0, BuildingBlock: AZAVOO_clean_linker_0, # of connection points: 4
#     Node 4, Type 0, BuildingBlock: AZAVOO_clean_linker_0, # of connection points: 4
#     Node 5, Type 0, BuildingBlock: AZAVOO_clean_linker_0, # of connection points: 4
#     Node 6, Type 0, BuildingBlock: AZAVOO_clean_linker_0, # of connection points: 4
#     Node 7, Type 0, BuildingBlock: AZAVOO_clean_linker_0, # of connection points: 4
#     Node 8, Type 1, BuildingBlock: NAWXER_clean_sbu_0, # of connection points: 4
#     Node 9, Type 1, BuildingBlock: NAWXER_clean_sbu_0, # of connection points: 4
#     Node 10, Type 1, BuildingBlock: NAWXER_clean_sbu_0, # of connection points: 4
#     Node 11, Type 1, BuildingBlock: NAWXER_clean_sbu_0, # of connection points: 4
#     Node 12, Type 1, BuildingBlock: NAWXER_clean_sbu_0, # of connection points: 4
#     Node 13, Type 1, BuildingBlock: NAWXER_clean_sbu_0, # of connection points: 4
#     Node 14, Type 1, BuildingBlock: NAWXER_clean_sbu_0, # of connection points: 4
#     Node 15, Type 1, BuildingBlock: NAWXER_clean_sbu_0, # of connection points: 4
#     Edge 16, Type (0, 1), BuildingBlock: OJICUG_clean_linker_0, # of connection points: 2
#     Edge 17, Type (0, 1), BuildingBlock: OJICUG_clean_linker_0, # of connection points: 2
#     Edge 18, Type (0, 1), BuildingBlock: OJICUG_clean_linker_0, # of connection points: 2
#     Edge 19, Type (0, 1), BuildingBlock: OJICUG_clean_linker_0, # of connection points: 2
#     Edge 20, Type (0, 1), BuildingBlock: OJICUG_clean_linker_0, # of connection points: 2
#     Edge 21, Type (0, 1), BuildingBlock: OJICUG_clean_linker_0, # of connection points: 2
#     Edge 22, Type (0, 1), BuildingBlock: OJICUG_clean_linker_0, # of connection points: 2
#     Edge 23, Type (0, 1), BuildingBlock: OJICUG_clean_linker_0, # of connection points: 2
#     Edge 24, Type (0, 1), BuildingBlock: OJICUG_clean_linker_0, # of connection points: 2
#     Edge 25, Type (0, 1), BuildingBlock: OJICUG_clean_linker_0, # of connection points: 2
#     Edge 26, Type (0, 1), BuildingBlock: OJICUG_clean_linker_0, # of connection points: 2
#     Edge 27, Type (0, 1), BuildingBlock: OJICUG_clean_linker_0, # of connection points: 2
#     Edge 28, Type (0, 1), BuildingBlock: OJICUG_clean_linker_0, # of connection points: 2
#     Edge 29, Type (0, 1), BuildingBlock: OJICUG_clean_linker_0, # of connection points: 2
#     Edge 30, Type (0, 1), BuildingBlock: OJICUG_clean_linker_0, # of connection points: 2
#     Edge 31, Type (0, 1), BuildingBlock: OJICUG_clean_linker_0, # of connection points: 2
#     Edge 32, Type (0, 1), BuildingBlock: OJICUG_clean_linker_0, # of connection points: 2
#     Edge 33, Type (0, 1), BuildingBlock: OJICUG_clean_linker_0, # of connection points: 2
#     Edge 34, Type (0, 1), BuildingBlock: OJICUG_clean_linker_0, # of connection points: 2
#     Edge 35, Type (0, 1), BuildingBlock: OJICUG_clean_linker_0, # of connection points: 2
#     Edge 36, Type (0, 1), BuildingBlock: OJICUG_clean_linker_0, # of connection points: 2
#     Edge 37, Type (0, 1), BuildingBlock: OJICUG_clean_linker_0, # of connection points: 2
#     Edge 38, Type (0, 1), BuildingBlock: OJICUG_clean_linker_0, # of connection points: 2
#     Edge 39, Type (0, 1), BuildingBlock: OJICUG_clean_linker_0, # of connection points: 2
#     Edge 40, Type (0, 1), BuildingBlock: OJICUG_clean_linker_0, # of connection points: 2
#     Edge 41, Type (0, 1), BuildingBlock: OJICUG_clean_linker_0, # of connection points: 2
#     Edge 42, Type (0, 1), BuildingBlock: OJICUG_clean_linker_0, # of connection points: 2
#     Edge 43, Type (0, 1), BuildingBlock: OJICUG_clean_linker_0, # of connection points: 2
#     Edge 44, Type (0, 1), BuildingBlock: OJICUG_clean_linker_0, # of connection points: 2
#     Edge 45, Type (0, 1), BuildingBlock: OJICUG_clean_linker_0, # of connection points: 2
#     Edge 46, Type (0, 1), BuildingBlock: OJICUG_clean_linker_0, # of connection points: 2
#     Edge 47, Type (0, 1), BuildingBlock: OJICUG_clean_linker_0, # of connection points: 2
# Relax obj value: 0.065
# Max RMSD: 0.294
# Mean RMSD: 0.115
data_MOF--net-ssb--node1-NAWXER_clean_sbu_0--node2-AZAVOO_clean_linker_0--edge1-OJICUG_clean_linker_0
_symmetry_space_group_name_H-M    P1
_symmetry_Int_Tables_number       1
_symmetry_cell_setting            triclinic
loop_
_symmetry_equiv_pos_as_xyz
'x, y, z'
_cell_length_a     39.556074
_cell_length_b     40.817526
_cell_length_c     34.251118
_cell_angle_alpha  93.11332
_cell_angle_beta   89.998111
_cell_angle_gamma 89.97325
loop_
_atom_site_label
_atom_site_type_symbol
_atom_site_fract_x
_atom_site_fract_y
_atom_site_fract_z
_atom_type_partial_charge
H0 H 0.07605 0.5442 0.25756 0.0
H1 H 0.35911 0.41701 0.99064 0.0
H2 H 0.20828 0.44086 0.3052 0.0
H3 H 0.17141 0.4338 0.36066 0.0
H4 H 0.15636 0.33202 0.32191 0.0
H5 H 0.18993 0.34081 0.26382 0.0
H6 H 0.21086 0.48578 0.24502 0.0
H7 H 0.15944 0.51863 0.25367 0.0
H8 H 0.09945 0.43402 0.21655 0.0
H9 H 0.15117 0.40153 0.20751 0.0
H10 H 0.27548 0.48154 0.20095 0.0
H11 H 0.27261 0.53242 0.16721 0.0
H12 H 0.19179 0.4921 0.09439 0.0
H13 H 0.19409 0.44127 0.12989 0.0
H14 H 0.33102 0.42775 0.18312 0.0
H15 H 0.36925 0.43386 0.12784 0.0
H16 H 0.28907 0.40324 0.04816 0.0
H17 H 0.25127 0.39669 0.10379 0.0
H18 H 0.33265 0.37861 0.24496 0.0
H19 H 0.38514 0.3532 0.22053 0.0
H20 H 0.331 0.30964 0.12112 0.0
H21 H 0.27859 0.33425 0.14645 0.0
H22 H 0.27147 0.39327 0.31429 0.0
H23 H 0.28511 0.35691 0.36652 0.0
H24 H 0.27287 0.27279 0.28579 0.0
H25 H 0.25833 0.30939 0.23365 0.0
O26 O 0.09608 0.53078 0.25374 0.0
O27 O 0.06638 0.48653 0.23461 0.0
O28 O 0.38472 0.43081 0.05524 0.0
O29 O 0.34438 0.41521 0.013 0.0
C30 C 0.22345 0.39632 0.24572 0.0
C31 C 0.21594 0.4213 0.21987 0.0
C32 C 0.23815 0.42712 0.18882 0.0
C33 C 0.26586 0.406 0.18114 0.0
C34 C 0.27271 0.38026 0.20609 0.0
C35 C 0.25272 0.37659 0.2397 0.0
C36 C 0.20132 0.39157 0.28 0.0
C37 C 0.19625 0.4173 0.30816 0.0
C38 C 0.17569 0.4129 0.34047 0.0
C39 C 0.16084 0.38219 0.3463 0.0
C40 C 0.1666 0.35624 0.31827 0.0
C41 C 0.18619 0.36105 0.28517 0.0
C42 C 0.18476 0.44136 0.22524 0.0
C43 C 0.18662 0.47447 0.23837 0.0
C44 C 0.15719 0.49314 0.24349 0.0
C45 C 0.12532 0.47897 0.23573 0.0
C46 C 0.12358 0.44571 0.22273 0.0
C47 C 0.15306 0.42709 0.21755 0.0
C48 C 0.23524 0.45771 0.16759 0.0
C49 C 0.25711 0.48371 0.17775 0.0
C50 C 0.2555 0.51271 0.15826 0.0
C51 C 0.23231 0.51621 0.1276 0.0
C52 C 0.20983 0.49026 0.11795 0.0
C53 C 0.21125 0.46118 0.13792 0.0
C54 C 0.28847 0.41154 0.14744 0.0
C55 C 0.32179 0.42234 0.1537 0.0
C56 C 0.34355 0.42586 0.12207 0.0
C57 C 0.33225 0.41891 0.08354 0.0
C58 C 0.29861 0.40871 0.07742 0.0
C59 C 0.27693 0.40506 0.10911 0.0
C60 C 0.30197 0.35845 0.19726 0.0
C61 C 0.33194 0.36251 0.21877 0.0
C62 C 0.3619 0.34823 0.20457 0.0
C63 C 0.36227 0.3299 0.16855 0.0
C64 C 0.33154 0.32343 0.14904 0.0
C65 C 0.3016 0.33757 0.16336 0.0
C66 C 0.2636 0.35404 0.27016 0.0
C67 C 0.27178 0.367 0.30779 0.0
C68 C 0.27958 0.34623 0.33758 0.0
C69 C 0.27993 0.31204 0.33023 0.0
C70 C 0.27303 0.29907 0.29217 0.0
C71 C 0.26471 0.31991 0.26241 0.0
C72 C 0.09409 0.49886 0.24128 0.0
C73 C 0.35545 0.42207 0.04986 0.0
H74 H 0.58479 0.13684 0.27859 0.0
H75 H 0.83366 0.24377 0.59307 0.0
H76 H 0.71423 0.26026 0.26627 0.0
H77 H 0.68329 0.27113 0.20657 0.0
H78 H 0.63762 0.35655 0.26517 0.0
H79 H 0.66894 0.34547 0.32489 0.0
H80 H 0.71015 0.20565 0.32146 0.0
H81 H 0.66388 0.16939 0.2996 0.0
H82 H 0.59163 0.24323 0.34003 0.0
H83 H 0.6382 0.27913 0.36214 0.0
H84 H 0.76558 0.20574 0.37961 0.0
H85 H 0.76196 0.15454 0.41295 0.0
H86 H 0.67275 0.19047 0.47439 0.0
H87 H 0.67621 0.24163 0.43982 0.0
H88 H 0.8176 0.2593 0.40094 0.0
H89 H 0.8523 0.24543 0.45683 0.0
H90 H 0.76818 0.26832 0.53426 0.0
H91 H 0.73391 0.28256 0.47812 0.0
H92 H 0.81918 0.31267 0.34219 0.0
H93 H 0.87158 0.33843 0.36595 0.0
H94 H 0.82009 0.37462 0.47088 0.0
H95 H 0.76743 0.34945 0.4463 0.0
H96 H 0.77289 0.31111 0.27865 0.0
H97 H 0.78685 0.35523 0.2359 0.0
H98 H 0.74227 0.42594 0.31914 0.0
H99 H 0.72844 0.38135 0.36205 0.0
O100 O 0.6027 0.15153 0.28761 0.0
O101 O 0.56659 0.19032 0.30876 0.0
O102 O 0.86308 0.23812 0.52946 0.0
O103 O 0.82052 0.24925 0.57049 0.0
C104 C 0.71284 0.29516 0.33601 0.0
C105 C 0.70559 0.26692 0.35668 0.0
C106 C 0.72572 0.25926 0.389 0.0
C107 C 0.75227 0.2805 0.40157 0.0
C108 C 0.75956 0.3088 0.38096 0.0
C109 C 0.7401 0.31581 0.34785 0.0
C110 C 0.69353 0.30185 0.30003 0.0
C111 C 0.69737 0.28119 0.26628 0.0
C112 C 0.67969 0.28747 0.23221 0.0
C113 C 0.65785 0.31464 0.23116 0.0
C114 C 0.65446 0.33561 0.26491 0.0
C115 C 0.67212 0.32921 0.29909 0.0
C116 C 0.67748 0.24486 0.34369 0.0
C117 C 0.68431 0.21382 0.32586 0.0
C118 C 0.65782 0.19322 0.31326 0.0
C119 C 0.62404 0.20339 0.31813 0.0
C120 C 0.61735 0.23462 0.3359 0.0
C121 C 0.64387 0.25517 0.34855 0.0
C122 C 0.72135 0.22746 0.40758 0.0
C123 C 0.74509 0.20244 0.40003 0.0
C124 C 0.74305 0.17327 0.41928 0.0
C125 C 0.71733 0.16855 0.4468 0.0
C126 C 0.69276 0.19324 0.45324 0.0
C127 C 0.69476 0.22251 0.43372 0.0
C128 C 0.77336 0.27219 0.43556 0.0
C129 C 0.80682 0.26154 0.43003 0.0
C130 C 0.82653 0.25352 0.46199 0.0
C131 C 0.81301 0.25579 0.50006 0.0
C132 C 0.77938 0.26633 0.50538 0.0
C133 C 0.75975 0.27446 0.47339 0.0
C134 C 0.78944 0.32927 0.39242 0.0
C135 C 0.81893 0.32705 0.36971 0.0
C136 C 0.84893 0.34148 0.38355 0.0
C137 C 0.85009 0.3583 0.4205 0.0
C138 C 0.82 0.3621 0.44219 0.0
C139 C 0.78993 0.34765 0.42827 0.0
C140 C 0.74984 0.34314 0.32343 0.0
C141 C 0.7664 0.33616 0.28778 0.0
C142 C 0.77439 0.36136 0.26351 0.0
C143 C 0.76573 0.394 0.27431 0.0
C144 C 0.74908 0.40096 0.31009 0.0
C145 C 0.7414 0.37567 0.33465 0.0
C146 C 0.59597 0.18146 0.30461 0.0
C147 C 0.83381 0.24716 0.5341 0.0
H148 H 0.6202 0.94493 0.31876 0.0
H149 H 0.69489 0.63796 0.08025 0.0
H150 H 0.78071 0.86289 0.29953 0.0
H151 H 0.78924 0.90616 0.35102 0.0
H152 H 0.78444 0.8339 0.43834 0.0
H153 H 0.77471 0.79078 0.3868 0.0
H154 H 0.72022 0.85414 0.24846 0.0
H155 H 0.67957 0.89714 0.26798 0.0
H156 H 0.65896 0.84822 0.37431 0.0
H157 H 0.69934 0.80511 0.35412 0.0
H158 H 0.72621 0.80181 0.18465 0.0
H159 H 0.67488 0.81565 0.1492 0.0
H160 H 0.61377 0.77732 0.24068 0.0
H161 H 0.66551 0.76363 0.27637 0.0
H162 H 0.78787 0.75231 0.17646 0.0
H163 H 0.77574 0.71909 0.11652 0.0
H164 H 0.69356 0.67212 0.17519 0.0
H165 H 0.70607 0.70547 0.23506 0.0
H166 H 0.84724 0.75422 0.23527 0.0
H167 H 0.88493 0.70847 0.21549 0.0
H168 H 0.81115 0.64034 0.25709 0.0
H169 H 0.77443 0.68599 0.27738 0.0
H170 H 0.84616 0.81272 0.29655 0.0
H171 H 0.89575 0.81243 0.33925 0.0
H172 H 0.8564 0.72724 0.39362 0.0
H173 H 0.80704 0.72753 0.35038 0.0
O174 O 0.63598 0.92753 0.31147 0.0
O175 O 0.62643 0.90151 0.36579 0.0
O176 O 0.74054 0.67862 0.07414 0.0
O177 O 0.70071 0.65075 0.10392 0.0
C178 C 0.76824 0.79844 0.30845 0.0
C179 C 0.73738 0.8004 0.28803 0.0
C180 C 0.73042 0.77784 0.25636 0.0
C181 C 0.75405 0.7531 0.2454 0.0
C182 C 0.78421 0.75033 0.26704 0.0
C183 C 0.79134 0.77304 0.29836 0.0
C184 C 0.77672 0.82382 0.33953 0.0
C185 C 0.7817 0.85639 0.32976 0.0
C186 C 0.78676 0.88096 0.35903 0.0
C187 C 0.78755 0.87319 0.39844 0.0
C188 C 0.78431 0.84034 0.40807 0.0
C189 C 0.77863 0.81581 0.37878 0.0
C190 C 0.71247 0.82639 0.29972 0.0
C191 C 0.70665 0.85261 0.27577 0.0
C192 C 0.68354 0.87721 0.28709 0.0
C193 C 0.66598 0.87611 0.3227 0.0
C194 C 0.67201 0.8498 0.34668 0.0
C195 C 0.69505 0.82515 0.33525 0.0
C196 C 0.69943 0.78185 0.23298 0.0
C197 C 0.70178 0.79584 0.19667 0.0
C198 C 0.67256 0.80385 0.17665 0.0
C199 C 0.64061 0.79771 0.19254 0.0
C200 C 0.63822 0.78213 0.22795 0.0
C201 C 0.66758 0.77441 0.24825 0.0
C202 C 0.74788 0.73123 0.21006 0.0
C203 C 0.76749 0.73457 0.17642 0.0
C204 C 0.7604 0.71569 0.14218 0.0
C205 C 0.73356 0.69305 0.14102 0.0
C206 C 0.71436 0.68935 0.17507 0.0
C207 C 0.72144 0.70833 0.20929 0.0
C208 C 0.80806 0.72321 0.25731 0.0
C209 C 0.83967 0.72937 0.24066 0.0
C210 C 0.86112 0.70331 0.2295 0.0
C211 C 0.85119 0.6708 0.23496 0.0
C212 C 0.82002 0.66505 0.25325 0.0
C213 C 0.79869 0.69103 0.26431 0.0
C214 C 0.82304 0.77036 0.32079 0.0
C215 C 0.84858 0.79375 0.31731 0.0
C216 C 0.87673 0.79358 0.34173 0.0
C217 C 0.87968 0.77001 0.36999 0.0
C218 C 0.85487 0.74552 0.37192 0.0
C219 C 0.82668 0.74573 0.34744 0.0
C220 C 0.64159 0.9024 0.33475 0.0
C221 C 0.72529 0.67372 0.10432 0.0
H222 H 0.31089 0.13934 0.38358 0.0
H223 H 0.32606 0.83119 0.07069 0.0
H224 H 0.24302 0.96739 0.39375 0.0
H225 H 0.22599 0.01452 0.43608 0.0
H226 H 0.16862 0.05228 0.34121 0.0
H227 H 0.18474 0.00426 0.2993 0.0
H228 H 0.29692 0.99728 0.3568 0.0
H229 H 0.30944 0.05443 0.3769 0.0
H230 H 0.26021 0.08578 0.27252 0.0
H231 H 0.24745 0.02847 0.25307 0.0
H232 H 0.3421 0.96077 0.28636 0.0
H233 H 0.39086 0.96376 0.24251 0.0
H234 H 0.32368 0.98179 0.14671 0.0
H235 H 0.27513 0.97911 0.19075 0.0
H236 H 0.32535 0.89058 0.25618 0.0
H237 H 0.35331 0.85868 0.20282 0.0
H238 H 0.27143 0.88162 0.12522 0.0
H239 H 0.24408 0.91387 0.17868 0.0
H240 H 0.26934 0.85263 0.29553 0.0
H241 H 0.27182 0.8029 0.25257 0.0
H242 H 0.19213 0.84114 0.18169 0.0
H243 H 0.18948 0.89028 0.22524 0.0
H244 H 0.23464 0.90892 0.3802 0.0
H245 H 0.19255 0.89107 0.42706 0.0
H246 H 0.11561 0.89268 0.33788 0.0
H247 H 0.15765 0.91225 0.29144 0.0
O248 O 0.30684 0.11685 0.37435 0.0
O249 O 0.28374 0.1316 0.31877 0.0
O250 O 0.35843 0.83484 0.13245 0.0
O251 O 0.31583 0.84406 0.09213 0.0
C252 C 0.23365 0.96062 0.31484 0.0
C253 C 0.26044 0.97453 0.29381 0.0
C254 C 0.27649 0.95596 0.26348 0.0
C255 C 0.26571 0.92359 0.25383 0.0
C256 C 0.23953 0.90925 0.27539 0.0
C257 C 0.22395 0.92755 0.30669 0.0
C258 C 0.21481 0.98216 0.34356 0.0
C259 C 0.22503 0.98464 0.38281 0.0
C260 C 0.21542 0.01175 0.40691 0.0
C261 C 0.19608 0.03704 0.39178 0.0
C262 C 0.18341 0.03303 0.35353 0.0
C263 C 0.19249 0.00559 0.32969 0.0
C264 C 0.27127 0.00882 0.30355 0.0
C265 C 0.28914 0.01653 0.33817 0.0
C266 C 0.29617 0.04919 0.34962 0.0
C267 C 0.2857 0.0747 0.3264 0.0
C268 C 0.26862 0.06673 0.29109 0.0
C269 C 0.26146 0.03404 0.27979 0.0
C270 C 0.30516 0.9695 0.24159 0.0
C271 C 0.33807 0.96706 0.25638 0.0
C272 C 0.36587 0.96872 0.23131 0.0
C273 C 0.36089 0.9726 0.19121 0.0
C274 C 0.3281 0.97864 0.1775 0.0
C275 C 0.30042 0.97728 0.20261 0.0
C276 C 0.28263 0.90429 0.22129 0.0
C277 C 0.31359 0.88872 0.22759 0.0
C278 C 0.32946 0.87053 0.19708 0.0
C279 C 0.31454 0.86753 0.15976 0.0
C280 C 0.28357 0.88337 0.15359 0.0
C281 C 0.26785 0.90173 0.18406 0.0
C282 C 0.22929 0.87517 0.26351 0.0
C283 C 0.25101 0.84936 0.27214 0.0
C284 C 0.25291 0.82125 0.24697 0.0
C285 C 0.23297 0.81849 0.21289 0.0
C286 C 0.20795 0.84238 0.20752 0.0
C287 C 0.20607 0.87045 0.23276 0.0
C288 C 0.19914 0.91219 0.33254 0.0
C289 C 0.2087 0.90548 0.37075 0.0
C290 C 0.1847 0.89538 0.39747 0.0
C291 C 0.15087 0.89092 0.38611 0.0
C292 C 0.14157 0.89609 0.34728 0.0
C293 C 0.16552 0.90702 0.32075 0.0
C294 C 0.29207 0.10945 0.3394 0.0
C295 C 0.33105 0.84785 0.1274 0.0
H296 H 0.49514 0.00959 0.74756 0.0
H297 H 0.16673 0.95257 0.51937 0.0
H298 H 0.3665 0.85287 0.76315 0.0
H299 H 0.39791 0.84348 0.82336 0.0
H300 H 0.34273 0.9226 0.88328 0.0
H301 H 0.31146 0.93165 0.82314 0.0
H302 H 0.38876 0.91833 0.69385 0.0
H303 H 0.43917 0.95167 0.70808 0.0
H304 H 0.38357 0.00837 0.79704 0.0
H305 H 0.33334 0.97506 0.78222 0.0
H306 H 0.33018 0.9346 0.61882 0.0
H307 H 0.33428 0.98513 0.58312 0.0
H308 H 0.30351 0.04165 0.6875 0.0
H309 H 0.29766 0.99135 0.72185 0.0
H310 H 0.28152 0.86887 0.61651 0.0
H311 H 0.24792 0.87547 0.55745 0.0
H312 H 0.20259 0.96309 0.61147 0.0
H313 H 0.23608 0.95597 0.67052 0.0
H314 H 0.27304 0.81885 0.6777 0.0
H315 H 0.22423 0.78517 0.65728 0.0
H316 H 0.15779 0.86534 0.69397 0.0
H317 H 0.20648 0.89775 0.71601 0.0
H318 H 0.29842 0.81158 0.74385 0.0
H319 H 0.28268 0.77553 0.79618 0.0
H320 H 0.24086 0.85859 0.86291 0.0
H321 H 0.25507 0.8942 0.80981 0.0
O322 O 0.47493 0.99673 0.74238 0.0
O323 O 0.44523 0.02508 0.78784 0.0
O324 O 0.20436 0.9042 0.51599 0.0
O325 O 0.18039 0.94947 0.54232 0.0
C326 C 0.31801 0.89853 0.75282 0.0
C327 C 0.32722 0.92371 0.72826 0.0
C328 C 0.30799 0.92902 0.69443 0.0
C329 C 0.28122 0.90735 0.68373 0.0
C330 C 0.27249 0.88179 0.70824 0.0
C331 C 0.29003 0.87822 0.74355 0.0
C332 C 0.33741 0.89341 0.78879 0.0
C333 C 0.36139 0.86818 0.78933 0.0
C334 C 0.37896 0.86265 0.82369 0.0
C335 C 0.37276 0.88242 0.85781 0.0
C336 C 0.34826 0.90732 0.85721 0.0
C337 C 0.33059 0.91265 0.82297 0.0
C338 C 0.35759 0.94405 0.73732 0.0
C339 C 0.38759 0.93793 0.71644 0.0
C340 C 0.41631 0.95701 0.72463 0.0
C341 C 0.41545 0.98261 0.75382 0.0
C342 C 0.38517 0.98876 0.77452 0.0
C343 C 0.35648 0.96966 0.76626 0.0
C344 C 0.3136 0.95928 0.67296 0.0
C345 C 0.32448 0.95798 0.63387 0.0
C346 C 0.3271 0.98686 0.61367 0.0
C347 C 0.31896 0.01744 0.63236 0.0
C348 C 0.30939 0.01853 0.67196 0.0
C349 C 0.30641 0.9898 0.69183 0.0
C350 C 0.26134 0.91202 0.64767 0.0
C351 C 0.26433 0.88948 0.61549 0.0
C352 C 0.24512 0.89332 0.58181 0.0
C353 C 0.22256 0.91984 0.57971 0.0
C354 C 0.21972 0.94242 0.61207 0.0
C355 C 0.23889 0.93849 0.64578 0.0
C356 C 0.24311 0.86057 0.69844 0.0
C357 C 0.2478 0.82866 0.68212 0.0
C358 C 0.21993 0.80961 0.67022 0.0
C359 C 0.18699 0.82241 0.67407 0.0
C360 C 0.18261 0.85425 0.69137 0.0
C361 C 0.2104 0.87305 0.70362 0.0
C362 C 0.27756 0.85544 0.77283 0.0
C363 C 0.28492 0.82178 0.76919 0.0
C364 C 0.27609 0.80131 0.79908 0.0
C365 C 0.26056 0.81441 0.83339 0.0
C366 C 0.25275 0.84798 0.83668 0.0
C367 C 0.26082 0.86824 0.80643 0.0
C368 C 0.446 0.00282 0.76248 0.0
C369 C 0.20197 0.92392 0.54403 0.0
H370 H 0.23845 0.65542 0.80045 0.0
H371 H 0.18644 0.30863 0.60869 0.0
H372 H 0.35657 0.52216 0.77789 0.0
H373 H 0.36695 0.56993 0.82252 0.0
H374 H 0.33145 0.51555 0.91907 0.0
H375 H 0.32061 0.46791 0.87408 0.0
H376 H 0.29115 0.53175 0.73047 0.0
H377 H 0.27077 0.5871 0.7489 0.0
H378 H 0.23897 0.55407 0.861 0.0
H379 H 0.25899 0.49877 0.84194 0.0
H380 H 0.26537 0.4824 0.67541 0.0
H381 H 0.21231 0.47998 0.6381 0.0
H382 H 0.16006 0.44668 0.73917 0.0
H383 H 0.21293 0.44972 0.77646 0.0
H384 H 0.30499 0.41903 0.66031 0.0
H385 H 0.27772 0.38344 0.60978 0.0
H386 H 0.20786 0.34984 0.69611 0.0
H387 H 0.23574 0.38515 0.7464 0.0
H388 H 0.3647 0.39765 0.70287 0.0
H389 H 0.36205 0.34686 0.66215 0.0
H390 H 0.29369 0.30604 0.74506 0.0
H391 H 0.29527 0.35747 0.78447 0.0
H392 H 0.39835 0.45905 0.79685 0.0
H393 H 0.44012 0.44282 0.84448 0.0
H394 H 0.37308 0.36553 0.87853 0.0
H395 H 0.33037 0.38458 0.83447 0.0
O396 O 0.24549 0.63319 0.79332 0.0
O397 O 0.22994 0.61499 0.85065 0.0
O398 O 0.23432 0.34085 0.58484 0.0
O399 O 0.19751 0.32313 0.62799 0.0
C400 C 0.32092 0.46805 0.79433 0.0
C401 C 0.29139 0.47849 0.77487 0.0
C402 C 0.27549 0.45744 0.74676 0.0
C403 C 0.28912 0.42613 0.73753 0.0
C404 C 0.31775 0.41496 0.75782 0.0
C405 C 0.33351 0.43568 0.78703 0.0
C406 C 0.33751 0.49172 0.82271 0.0
C407 C 0.35234 0.5201 0.80892 0.0
C408 C 0.35813 0.54738 0.83436 0.0
C409 C 0.34965 0.54649 0.87409 0.0
C410 C 0.33842 0.51679 0.8886 0.0
C411 C 0.33226 0.48955 0.86299 0.0
C412 C 0.27658 0.51133 0.78489 0.0
C413 C 0.27936 0.53645 0.75877 0.0
C414 C 0.26787 0.56807 0.76947 0.0
C415 C 0.25337 0.57505 0.8065 0.0
C416 C 0.25005 0.54956 0.83229 0.0
C417 C 0.26143 0.51796 0.82148 0.0
C418 C 0.2429 0.46637 0.72865 0.0
C419 C 0.24214 0.47612 0.68999 0.0
C420 C 0.21192 0.4746 0.66872 0.0
C421 C 0.1823 0.46291 0.68578 0.0
C422 C 0.18262 0.45574 0.72544 0.0
C423 C 0.21268 0.45772 0.74681 0.0
C424 C 0.27245 0.40445 0.70696 0.0
C425 C 0.28386 0.40386 0.6682 0.0
C426 C 0.2682 0.38358 0.63943 0.0
C427 C 0.24059 0.36378 0.64892 0.0
C428 C 0.22904 0.36475 0.6878 0.0
C429 C 0.2449 0.38486 0.71658 0.0
C430 C 0.33021 0.38141 0.74672 0.0
C431 C 0.35077 0.37707 0.71346 0.0
C432 C 0.34891 0.34799 0.68992 0.0
C433 C 0.32674 0.32273 0.69969 0.0
C434 C 0.31024 0.32538 0.73611 0.0
C435 C 0.31183 0.35455 0.75933 0.0
C436 C 0.36111 0.42301 0.81185 0.0
C437 C 0.39269 0.43868 0.81476 0.0
C438 C 0.4168 0.42905 0.8419 0.0
C439 C 0.41024 0.4029 0.86612 0.0
C440 C 0.37907 0.38637 0.86159 0.0
C441 C 0.35469 0.39669 0.83542 0.0
C442 C 0.24214 0.60887 0.81827 0.0
C443 C 0.22402 0.34199 0.61854 0.0
H444 H 0.97105 0.42181 0.89826 0.0
H445 H 0.84383 0.15559 0.59379 0.0
H446 H 0.85871 0.28413 0.92466 0.0
H447 H 0.85986 0.32771 0.97541 0.0
H448 H 0.76527 0.36518 0.9321 0.0
H449 H 0.76656 0.32318 0.87871 0.0
H450 H 0.91255 0.29255 0.85913 0.0
H451 H 0.94579 0.34161 0.87726 0.0
H452 H 0.85874 0.40225 0.85594 0.0
H453 H 0.82598 0.35305 0.83728 0.0
H454 H 0.91615 0.24435 0.78646 0.0
H455 H 0.95699 0.26285 0.73835 0.0
H456 H 0.88746 0.33924 0.70802 0.0
H457 H 0.84736 0.32094 0.75637 0.0
H458 H 0.87105 0.18524 0.78486 0.0
H459 H 0.87916 0.1502 0.72523 0.0
H460 H 0.82164 0.21891 0.66003 0.0
H461 H 0.81373 0.25362 0.71987 0.0
H462 H 0.81826 0.17364 0.84245 0.0
H463 H 0.80381 0.12199 0.80658 0.0
H464 H 0.7404 0.17515 0.72912 0.0
H465 H 0.75542 0.22652 0.76456 0.0
H466 H 0.78065 0.23392 0.92209 0.0
H467 H 0.72418 0.23684 0.9525 0.0
H468 H 0.68276 0.27204 0.84591 0.0
H469 H 0.73879 0.2694 0.8161 0.0
O470 O 0.95756 0.40276 0.8906 0.0
O471 O 0.91197 0.43279 0.87953 0.0
O472 O 0.87 0.13413 0.65275 0.0
O473 O 0.84162 0.16925 0.61764 0.0
C474 C 0.81882 0.28098 0.86095 0.0
C475 C 0.84646 0.28933 0.83713 0.0
C476 C 0.85373 0.27014 0.80277 0.0
C477 C 0.83467 0.2418 0.79318 0.0
C478 C 0.8068 0.23385 0.81663 0.0
C479 C 0.79773 0.2543 0.84936 0.0
C480 C 0.81279 0.30069 0.89781 0.0
C481 C 0.83781 0.30133 0.92676 0.0
C482 C 0.83828 0.32635 0.95599 0.0
C483 C 0.813 0.35067 0.95765 0.0
C484 C 0.78584 0.34767 0.93101 0.0
C485 C 0.78603 0.32317 0.90092 0.0
C486 C 0.86684 0.31925 0.84712 0.0
C487 C 0.9008 0.31647 0.85818 0.0
C488 C 0.91967 0.34452 0.86863 0.0
C489 C 0.90489 0.37585 0.86819 0.0
C490 C 0.87089 0.37851 0.8567 0.0
C491 C 0.8521 0.35045 0.84612 0.0
C492 C 0.87904 0.28149 0.77484 0.0
C493 C 0.90999 0.26517 0.76947 0.0
C494 C 0.93312 0.27566 0.74197 0.0
C495 C 0.92547 0.30259 0.71959 0.0
C496 C 0.89437 0.31884 0.72532 0.0
C497 C 0.87138 0.30836 0.75273 0.0
C498 C 0.84185 0.22189 0.75655 0.0
C499 C 0.8605 0.19276 0.75757 0.0
C500 C 0.86499 0.17279 0.72352 0.0
C501 C 0.85094 0.18172 0.68786 0.0
C502 C 0.83279 0.2113 0.68694 0.0
C503 C 0.82833 0.23123 0.72101 0.0
C504 C 0.78773 0.20366 0.80611 0.0
C505 C 0.79988 0.17386 0.81901 0.0
C506 C 0.79198 0.14452 0.79828 0.0
C507 C 0.7714 0.14481 0.76492 0.0
C508 C 0.75614 0.17429 0.75494 0.0
C509 C 0.76442 0.20363 0.77534 0.0
C510 C 0.76371 0.25128 0.86686 0.0
C511 C 0.75919 0.24156 0.90517 0.0
C512 C 0.72702 0.24311 0.92235 0.0
C513 C 0.69924 0.25473 0.90148 0.0
C514 C 0.70377 0.26309 0.86263 0.0
C515 C 0.73568 0.26137 0.84551 0.0
C516 C 0.92489 0.40558 0.87973 0.0
C517 C 0.85487 0.1602 0.6518 0.0
H518 H 0.98504 0.67199 0.82917 0.0
H519 H 0.6591 0.69613 0.03775 0.0
H520 H 0.86351 0.81231 0.81916 0.0
H521 H 0.90325 0.82421 0.76685 0.0
H522 H 0.83677 0.77551 0.68219 0.0
H523 H 0.79698 0.76391 0.73476 0.0
H524 H 0.87088 0.75399 0.88224 0.0
H525 H 0.92334 0.72332 0.86996 0.0
H526 H 0.8807 0.67994 0.76296 0.0
H527 H 0.82826 0.71047 0.77585 0.0
H528 H 0.81069 0.74898 0.9467 0.0
H529 H 0.81431 0.70329 0.99019 0.0
H530 H 0.80008 0.63447 0.89149 0.0
H531 H 0.7946 0.68033 0.84823 0.0
H532 H 0.75743 0.80038 0.94624 0.0
H533 H 0.72535 0.78678 0.00422 0.0
H534 H 0.69118 0.69709 0.94372 0.0
H535 H 0.72289 0.71133 0.88564 0.0
H536 H 0.75223 0.84968 0.89059 0.0
H537 H 0.70281 0.87625 0.92152 0.0
H538 H 0.63885 0.80036 0.86838 0.0
H539 H 0.68864 0.77326 0.83934 0.0
H540 H 0.80131 0.85593 0.80815 0.0
H541 H 0.78251 0.89574 0.76196 0.0
H542 H 0.70075 0.83095 0.72502 0.0
H543 H 0.72061 0.79077 0.77044 0.0
O544 O 0.96406 0.68385 0.83348 0.0
O545 O 0.94103 0.66238 0.77866 0.0
O546 O 0.68756 0.75003 0.04372 0.0
O547 O 0.67094 0.70269 0.0147 0.0
C548 C 0.80461 0.77846 0.81296 0.0
C549 C 0.81407 0.75314 0.83751 0.0
C550 C 0.79336 0.7457 0.86946 0.0
C551 C 0.7637 0.76423 0.87749 0.0
C552 C 0.75428 0.78945 0.85298 0.0
C553 C 0.77411 0.79593 0.82003 0.0
C554 C 0.82741 0.78727 0.7807 0.0
C555 C 0.8574 0.80453 0.78925 0.0
C556 C 0.87996 0.8114 0.75937 0.0
C557 C 0.87311 0.80075 0.72046 0.0
C558 C 0.84279 0.78381 0.71195 0.0
C559 C 0.82001 0.77731 0.74182 0.0
C560 C 0.84585 0.73451 0.82988 0.0
C561 C 0.87292 0.73779 0.85622 0.0
C562 C 0.90286 0.72028 0.84909 0.0
C563 C 0.90624 0.6992 0.81544 0.0
C564 C 0.87897 0.696 0.78912 0.0
C565 C 0.84903 0.71347 0.79634 0.0
C566 C 0.80197 0.71804 0.89434 0.0
C567 C 0.8086 0.72406 0.93437 0.0
C568 C 0.81063 0.69805 0.95913 0.0
C569 C 0.80718 0.66558 0.94404 0.0
C570 C 0.80279 0.65939 0.90365 0.0
C571 C 0.79988 0.68549 0.87899 0.0
C572 C 0.74229 0.75696 0.91167 0.0
C573 C 0.74253 0.7781 0.94534 0.0
C574 C 0.72437 0.77015 0.97851 0.0
C575 C 0.70581 0.74075 0.97867 0.0
C576 C 0.70525 0.71987 0.94462 0.0
C577 C 0.72327 0.72796 0.91138 0.0
C578 C 0.72393 0.80947 0.86305 0.0
C579 C 0.72737 0.83935 0.88487 0.0
C580 C 0.69908 0.85452 0.90247 0.0
C581 C 0.6669 0.8401 0.89811 0.0
C582 C 0.66336 0.81166 0.87323 0.0
C583 C 0.69167 0.79631 0.85619 0.0
C584 C 0.76239 0.82046 0.79257 0.0
C585 C 0.77941 0.85034 0.79001 0.0
C586 C 0.76836 0.87318 0.76387 0.0
C587 C 0.73989 0.86667 0.73993 0.0
C588 C 0.72285 0.83666 0.74276 0.0
C589 C 0.73402 0.81379 0.76885 0.0
C590 C 0.93808 0.68066 0.80795 0.0
C591 C 0.68754 0.7316 0.01435 0.0
C592 C 0.00846 0.34579 0.59413 0.0
C593 C 0.07489 0.36812 0.48033 0.0
O594 O 0.0061 0.37587 0.58529 0.0
Zn595 Zn 0.02496 0.40647 0.54084 0.0
O596 O 0.02625 0.32584 0.57309 0.0
Zn597 Zn 0.04102 0.35671 0.53668 0.0
O598 O 0.07193 0.38952 0.57284 0.0
O599 O 0.05039 0.4394 0.57142 0.0
O600 O 0.07063 0.34086 0.49571 0.0
O601 O 0.05977 0.39398 0.49424 0.0
O602 O 0.98354 0.41881 0.51422 0.0
O603 O 0.99551 0.36619 0.50586 0.0
C604 C 0.07283 0.42011 0.58366 0.0
C605 C 0.9761 0.39045 0.49955 0.0
C606 C 0.76786 0.04479 0.64057 0.0
C607 C 0.77608 0.96902 0.52659 0.0
O608 O 0.79492 0.0336 0.62473 0.0
Zn609 Zn 0.77331 0.00688 0.58399 0.0
O610 O 0.73908 0.03624 0.6262 0.0
Zn611 Zn 0.71905 0.00546 0.57927 0.0
O612 O 0.69424 0.97269 0.60766 0.0
O613 O 0.74941 0.97168 0.61787 0.0
O614 O 0.74556 0.97677 0.53554 0.0
O615 O 0.80039 0.98032 0.54747 0.0
O616 O 0.75135 0.04342 0.54936 0.0
O617 O 0.69587 0.0376 0.54863 0.0
C618 C 0.71977 0.9609 0.62461 0.0
C619 C 0.72215 0.05293 0.53826 0.0
C620 C 0.97422 0.81976 0.60129 0.0
C621 C 0.0567 0.84791 0.50175 0.0
O622 O 0.9834 0.84826 0.59238 0.0
Zn623 Zn 0.01614 0.83473 0.55282 0.0
O624 O 0.98793 0.79443 0.58394 0.0
Zn625 Zn 0.02556 0.78387 0.53932 0.0
O626 O 0.06159 0.76184 0.56605 0.0
O627 O 0.05483 0.81378 0.58629 0.0
O628 O 0.05294 0.81689 0.50414 0.0
O629 O 0.04076 0.86758 0.5252 0.0
O630 O 0.98532 0.81183 0.50775 0.0
O631 O -0.00032 0.75952 0.50001 0.0
C632 C 0.0699 0.78622 0.58862 0.0
C633 C 0.98147 0.78346 0.49033 0.0
C634 C 0.28393 0.22958 0.57546 0.0
C635 C 0.2305 0.1532 0.47991 0.0
O636 O 0.30555 0.21582 0.55189 0.0
Zn637 Zn 0.30472 0.18089 0.50228 0.0
O638 O 0.25271 0.22316 0.57092 0.0
Zn639 Zn 0.25619 0.19238 0.52663 0.0
O640 O 0.28146 0.15187 0.55042 0.0
O641 O 0.33052 0.14386 0.52088 0.0
O642 O 0.21569 0.17038 0.50687 0.0
O643 O 0.26257 0.15538 0.47544 0.0
O644 O 0.3213 0.20516 0.45896 0.0
O645 O 0.27088 0.22172 0.47941 0.0
C646 C 0.30887 0.1354 0.54593 0.0
C647 C 0.29592 0.224 0.45592 0.0
C648 C 0.46827 0.92371 0.09063 0.0
C649 C 0.55681 0.88326 0.00029 0.0
O650 O 0.49287 0.94033 0.07828 0.0
Zn651 Zn 0.51389 0.90483 0.0465 0.0
O652 O 0.46619 0.89298 0.08116 0.0
Zn653 Zn 0.49316 0.8562 0.04748 0.0
O654 O 0.50933 0.82658 0.08549 0.0
O655 O 0.53518 0.87455 0.08883 0.0
O656 O 0.53634 0.86114 0.01099 0.0
O657 O 0.55303 0.91279 0.01353 0.0
O658 O 0.4759 0.89255 0.00365 0.0
O659 O 0.45962 0.84126 0.00993 0.0
C660 C 0.53172 0.84554 0.1008 0.0
C661 C 0.45741 0.86796 0.99259 0.0
C662 C 0.26717 0.73019 0.07997 0.0
C663 C 0.31237 0.65637 0.97534 0.0
O664 O 0.29786 0.72344 0.07208 0.0
Zn665 Zn 0.29087 0.69439 0.02642 0.0
O666 O 0.24379 0.71772 0.05783 0.0
Zn667 Zn 0.24052 0.68482 0.00664 0.0
O668 O 0.21525 0.64773 0.02561 0.0
O669 O 0.26695 0.65271 0.04937 0.0
O670 O 0.28013 0.65938 0.97429 0.0
O671 O 0.32943 0.67237 0.00147 0.0
O672 O 0.27353 0.72565 0.98211 0.0
O673 O 0.22142 0.71077 0.96632 0.0
C674 C 0.23889 0.6371 0.04672 0.0
C675 C 0.2469 0.72905 0.96134 0.0
C676 C 0.57692 0.28808 0.98599 0.0
C677 C 0.48217 0.30934 0.07479 0.0
O678 O 0.57493 0.31813 0.99863 0.0
Zn679 Zn 0.54358 0.34826 0.03607 0.0
O680 O 0.55481 0.26764 0.99615 0.0
Zn681 Zn 0.52824 0.29803 0.02924 0.0
O682 O 0.50417 0.33028 0.99002 0.0
O683 O 0.52567 0.37989 0.00104 0.0
O684 O 0.48962 0.28206 0.05711 0.0
O685 O 0.49998 0.33489 0.06899 0.0
O686 O 0.57458 0.36227 0.07787 0.0
O687 O 0.56233 0.30951 0.07668 0.0
C688 C 0.50551 0.36063 0.98223 0.0
C689 C 0.57801 0.33438 0.09231 0.0
C690 C 0.86842 0.55715 0.14595 0.0
C691 C 0.83557 0.46765 0.05594 0.0
O692 O 0.88826 0.53701 0.12809 0.0
Zn693 Zn 0.85271 0.5128 0.10031 0.0
O694 O 0.83643 0.55539 0.14051 0.0
Zn695 Zn 0.80094 0.52619 0.10734 0.0
O696 O 0.77368 0.50773 0.14759 0.0
O697 O 0.82626 0.48967 0.1462 0.0
O698 O 0.81003 0.48469 0.06789 0.0
O699 O 0.86517 0.47533 0.06746 0.0
O700 O 0.83445 0.54783 0.06015 0.0
O701 O 0.78095 0.55789 0.07476 0.0
C702 C 0.79653 0.4896 0.16112 0.0
C703 C 0.80679 0.5632 0.05398 0.0
C704 C 0.14552 0.39576 0.41672 0.0
C705 C 0.13941 0.37744 0.38135 0.0
H706 H 0.12919 0.40753 0.47551 0.0
C707 C 0.11226 0.35502 0.37971 0.0
H708 H 0.16667 0.4125 0.41983 0.0
C709 C 0.09184 0.35118 0.41242 0.0
C710 C 0.09751 0.37041 0.44686 0.0
H711 H 0.10615 0.3409 0.353 0.0
H712 H 0.07094 0.33402 0.4104 0.0
C713 C 0.12436 0.39272 0.44887 0.0
C714 C 0.74856 0.1271 0.48411 0.0
C715 C 0.71769 0.1388 0.47014 0.0
H716 H 0.77409 0.09122 0.51604 0.0
C717 C 0.68777 0.12201 0.47892 0.0
H718 H 0.77202 0.13978 0.47874 0.0
C719 C 0.68889 0.09392 0.50087 0.0
C720 C 0.71995 0.08221 0.51448 0.0
H721 H 0.66357 0.13032 0.46845 0.0
H722 H 0.66552 0.08144 0.50712 0.0
C723 C 0.74969 0.09923 0.50581 0.0
C724 C 0.92451 0.74526 0.41129 0.0
C725 C 0.90678 0.77295 0.39967 0.0
H726 H 0.9624 0.72679 0.44913 0.0
C727 C 0.91397 0.80378 0.41785 0.0
H728 H 0.91944 0.72121 0.39763 0.0
C729 C 0.93828 0.80697 0.4471 0.0
C730 C 0.95604 0.77938 0.45894 0.0
H731 H 0.90023 0.82546 0.41006 0.0
H732 H 0.94296 0.83116 0.46058 0.0
C733 C 0.94908 0.74847 0.44064 0.0
C734 C 0.20986 0.09639 0.39401 0.0
C735 C 0.19586 0.06973 0.41262 0.0
H736 H 0.23201 0.14419 0.40134 0.0
C737 C 0.18771 0.07338 0.45255 0.0
H738 H 0.2168 0.09406 0.36339 0.0
C739 C 0.19558 0.10255 0.47406 0.0
C740 C 0.21247 0.12792 0.45601 0.0
H741 H 0.17714 0.05304 0.46751 0.0
H742 H 0.19127 0.10407 0.50535 0.0
C743 C 0.21855 0.12506 0.41566 0.0
C744 C 0.12536 0.80812 0.67393 0.0
C745 C 0.15748 0.80447 0.65663 0.0
H746 H 0.07183 0.80483 0.66535 0.0
C747 C 0.1602 0.78758 0.61978 0.0
H748 H 0.1224 0.8201 0.70272 0.0
C749 C 0.13116 0.77771 0.59906 0.0
C750 C 0.09914 0.78506 0.61469 0.0
H751 H 0.18446 0.78446 0.60542 0.0
H752 H 0.13371 0.76742 0.56937 0.0
C753 C 0.09641 0.79898 0.65286 0.0
C754 C 0.28243 0.2879 0.66542 0.0
C755 C 0.3167 0.29669 0.66971 0.0
H756 H 0.24524 0.26039 0.6324 0.0
C757 C 0.34028 0.2826 0.64305 0.0
H758 H 0.26338 0.29869 0.68483 0.0
C759 C 0.32974 0.26061 0.61262 0.0
C760 C 0.29536 0.25239 0.60802 0.0
H761 H 0.36686 0.2887 0.64554 0.0
H762 H 0.34853 0.25033 0.59247 0.0
C763 C 0.2719 0.26613 0.63499 0.0
C764 C 0.95409 0.34705 0.68466 0.0
C765 C 0.94924 0.31344 0.68954 0.0
H766 H 0.97667 0.38358 0.65078 0.0
C767 C 0.9658 0.29043 0.6642 0.0
H768 H 0.94219 0.36536 0.7042 0.0
C769 C 0.98588 0.30088 0.63373 0.0
C770 C 0.98959 0.33451 0.62799 0.0
H771 H 0.96228 0.26435 0.66705 0.0
H772 H 0.99765 0.28261 0.61402 0.0
C773 C 0.97395 0.35748 0.65414 0.0
C774 C 0.71874 0.88061 0.67331 0.0
C775 C 0.7288 0.89087 0.71154 0.0
H776 H 0.70722 0.89524 0.61538 0.0
C777 C 0.73042 0.92467 0.72167 0.0
H778 H 0.71751 0.85477 0.66442 0.0
C779 C 0.72458 0.94758 0.69364 0.0
C780 C 0.7164 0.93725 0.6551 0.0
H781 H 0.73741 0.93347 0.75097 0.0
H782 H 0.72812 0.97342 0.70159 0.0
C783 C 0.71266 0.90368 0.64526 0.0
C784 C 0.9136 0.83695 0.68604 0.0
C785 C 0.89819 0.80616 0.68918 0.0
H786 H 0.94943 0.86558 0.65552 0.0
C787 C 0.90763 0.78016 0.6629 0.0
H788 H 0.90668 0.85747 0.70581 0.0
C789 C 0.93228 0.78467 0.63446 0.0
C790 C 0.94779 0.81542 0.63128 0.0
H791 H 0.89645 0.75608 0.66488 0.0
H792 H 0.93916 0.76399 0.6149 0.0
C793 C 0.93796 0.84161 0.65718 0.0
C794 C 0.29101 0.0701 0.61712 0.0
C795 C 0.31779 0.04791 0.61039 0.0
H796 H 0.26762 0.1148 0.60279 0.0
C797 C 0.34254 0.05505 0.58253 0.0
H798 H 0.27108 0.06514 0.63766 0.0
C799 C 0.34042 0.08385 0.56195 0.0
C800 C 0.31342 0.10586 0.56879 0.0
H801 H 0.36358 0.0385 0.5768 0.0
H802 H 0.35959 0.08863 0.54041 0.0
C803 C 0.28893 0.09862 0.5968 0.0
C804 C 0.14197 0.42049 0.65975 0.0
C805 C 0.15293 0.45322 0.66102 0.0
H806 H 0.10835 0.38448 0.63413 0.0
C807 C 0.13698 0.47549 0.63715 0.0
H808 H 0.15423 0.40274 0.67745 0.0
C809 C 0.11023 0.46512 0.61256 0.0
C810 C 0.09975 0.43214 0.61079 0.0
H811 H 0.14522 0.50081 0.63752 0.0
H812 H 0.09834 0.48265 0.59428 0.0
C813 C 0.11588 0.41002 0.63472 0.0
C814 C 0.80026 0.10137 0.72332 0.0
C815 C 0.77007 0.11606 0.73706 0.0
H816 H 0.82339 0.06742 0.68158 0.0
C817 C 0.73922 0.10581 0.72051 0.0
H818 H 0.82445 0.10929 0.73528 0.0
C819 C 0.7386 0.08195 0.68987 0.0
C820 C 0.76888 0.06816 0.67491 0.0
H821 H 0.71568 0.11687 0.73064 0.0
H822 H 0.71436 0.07502 0.67724 0.0
C823 C 0.7997 0.07766 0.69238 0.0
C824 C 0.91071 0.34689 0.43522 0.0
C825 C 0.8831 0.36854 0.43803 0.0
H826 H 0.96145 0.33694 0.4521 0.0
C827 C 0.88692 0.39869 0.45957 0.0
H828 H 0.90852 0.32326 0.41942 0.0
C829 C 0.91757 0.40664 0.47846 0.0
C830 C 0.94474 0.38437 0.47658 0.0
H831 H 0.86612 0.41593 0.46213 0.0
H832 H 0.91961 0.42969 0.4955 0.0
C833 C 0.94104 0.35465 0.45427 0.0
C834 C 0.81058 0.89954 0.46078 0.0
C835 C 0.78759 0.89963 0.42952 0.0
H836 H 0.82554 0.92239 0.51609 0.0
C837 C 0.76263 0.92401 0.42921 0.0
H838 H 0.83002 0.88086 0.46148 0.0
C839 C 0.75971 0.94712 0.46042 0.0
C840 C 0.78209 0.94668 0.49217 0.0
H841 H 0.74444 0.92435 0.40557 0.0
H842 H 0.7395 0.96504 0.46004 0.0
C843 C 0.80813 0.92326 0.49175 0.0
C844 C 0.1066 0.85215 0.40785 0.0
C845 C 0.1255 0.88092 0.41494 0.0
H846 H 0.07034 0.81898 0.43016 0.0
C847 C 0.12083 0.89953 0.45031 0.0
H848 H 0.1099 0.83736 0.38088 0.0
C849 C 0.09766 0.88945 0.47817 0.0
C850 C 0.07948 0.86013 0.47154 0.0
H851 H 0.13515 0.92185 0.45634 0.0
H852 H 0.0947 0.90406 0.50532 0.0
C853 C 0.08413 0.84163 0.43609 0.0
C854 C 0.26746 0.29531 0.39788 0.0
C855 C 0.28556 0.29009 0.36281 0.0
H856 H 0.25659 0.27855 0.45461 0.0
C857 C 0.30829 0.2636 0.35906 0.0
H858 H 0.24954 0.31533 0.40147 0.0
C859 C 0.3127 0.24268 0.38982 0.0
C860 C 0.29396 0.24753 0.42455 0.0
H861 H 0.32265 0.25912 0.33237 0.0
H862 H 0.33004 0.22221 0.386 0.0
C863 C 0.27143 0.27416 0.42825 0.0
C864 C 0.61645 0.82936 0.93935 0.0
C865 C 0.63799 0.85216 0.92277 0.0
H866 H 0.57442 0.82123 0.97632 0.0
C867 C 0.63263 0.88585 0.93188 0.0
H868 H 0.62032 0.80323 0.93409 0.0
C869 C 0.60624 0.89635 0.957 0.0
C870 C 0.58476 0.87332 0.97335 0.0
H871 H 0.64875 0.90408 0.91956 0.0
H872 H 0.60269 0.92237 0.96357 0.0
C873 C 0.59019 0.83977 0.96403 0.0
C874 C 0.27111 0.80127 0.9026 0.0
C875 C 0.25482 0.79366 0.86686 0.0
H876 H 0.28148 0.78658 0.96051 0.0
C877 C 0.23416 0.7657 0.86308 0.0
H878 H 0.28732 0.82264 0.90607 0.0
C879 C 0.2301 0.74549 0.89455 0.0
C880 C 0.2474 0.75248 0.92989 0.0
H881 H 0.22137 0.75941 0.83572 0.0
H882 H 0.21457 0.7237 0.8907 0.0
C883 C 0.26778 0.78067 0.93366 0.0
C884 C 0.4703 0.39759 0.89157 0.0
C885 C 0.43517 0.39324 0.89652 0.0
H886 H 0.52015 0.39129 0.91529 0.0
C887 C 0.42394 0.37932 0.93105 0.0
H888 H 0.48027 0.4077 0.86539 0.0
C889 C 0.44696 0.36887 0.9587 0.0
C890 C 0.48176 0.37312 0.95342 0.0
H891 H 0.39729 0.37651 0.9371 0.0
H892 H 0.43752 0.3577 0.98454 0.0
C893 C 0.49331 0.38803 0.92001 0.0
C894 C 0.80549 0.41126 0.97278 0.0
C895 C 0.81694 0.38051 0.98426 0.0
H896 H 0.80224 0.46301 0.98697 0.0
C897 C 0.83445 0.3791 0.01996 0.0
H898 H 0.7927 0.41373 0.94517 0.0
C899 C 0.84141 0.40769 0.04269 0.0
C900 C 0.82996 0.43805 0.0309 0.0
H901 H 0.84293 0.35596 0.03048 0.0
H902 H 0.85507 0.40602 0.06994 0.0
C903 C 0.81142 0.43966 0.99628 0.0
C904 C 0.62261 0.29359 0.17454 0.0
C905 C 0.63788 0.32024 0.19532 0.0
H906 H 0.59205 0.27715 0.12609 0.0
C907 C 0.63364 0.35192 0.18172 0.0
H908 H 0.6249 0.26895 0.18451 0.0
C909 C 0.61456 0.35674 0.14798 0.0
C910 C 0.5992 0.32997 0.12737 0.0
H911 H 0.64533 0.37293 0.19694 0.0
H912 H 0.61167 0.38138 0.13823 0.0
C913 C 0.60356 0.29838 0.14108 0.0
C914 C 0.87988 0.64379 0.17694 0.0
C915 C 0.8699 0.64268 0.21625 0.0
H916 H 0.88862 0.6159 0.12315 0.0
C917 C 0.87076 0.61246 0.2341 0.0
H918 H 0.87942 0.66662 0.16225 0.0
C919 C 0.87584 0.58341 0.21148 0.0
C920 C 0.88089 0.58444 0.17111 0.0
H921 H 0.86387 0.61097 0.26457 0.0
H922 H 0.87191 0.56017 0.22466 0.0
C923 C 0.88534 0.61473 0.15447 0.0
C924 C 0.42077 0.97702 0.16663 0.0
C925 C 0.38813 0.96353 0.16307 0.0
H926 H 0.47204 0.97549 0.14549 0.0
C927 C 0.382 0.93838 0.13438 0.0
H928 H 0.42609 0.99626 0.1888 0.0
C929 C 0.40808 0.92617 0.11054 0.0
C930 C 0.44086 0.93914 0.11433 0.0
H931 H 0.35724 0.92715 0.13145 0.0
H932 H 0.40264 0.90616 0.08938 0.0
C933 C 0.44692 0.96521 0.14194 0.0
C934 C 0.26421 0.56085 0.09682 0.0
C935 C 0.23299 0.54646 0.10521 0.0
H936 H 0.29033 0.60039 0.07229 0.0
C937 C 0.20313 0.56159 0.09277 0.0
H938 H 0.28777 0.54944 0.10478 0.0
C939 C 0.20462 0.59098 0.0733 0.0
C940 C 0.23597 0.60578 0.06631 0.0
H941 H 0.17865 0.55114 0.09884 0.0
H942 H 0.18133 0.60239 0.06442 0.0
C943 C 0.26567 0.59013 0.07797 0.0
C944 C 0.39957 0.29246 0.1264 0.0
C945 C 0.39471 0.3222 0.14841 0.0
H946 H 0.43133 0.26477 0.08589 0.0
C947 C 0.41978 0.3465 0.14773 0.0
H948 H 0.38066 0.27328 0.12644 0.0
C949 C 0.44847 0.34172 0.12464 0.0
C950 C 0.45291 0.31252 0.10155 0.0
H951 H 0.41654 0.36995 0.16367 0.0
H952 H 0.46682 0.3614 0.1242 0.0
C953 C 0.42855 0.28758 0.10328 0.0
C954 C 0.80626 0.4215 0.23082 0.0
C955 C 0.77406 0.4204 0.24788 0.0
H956 H 0.83864 0.4443 0.19055 0.0
C957 C 0.74963 0.44354 0.23795 0.0
H958 H 0.82569 0.4042 0.2383 0.0
C959 C 0.75696 0.4666 0.21031 0.0
C960 C 0.78896 0.46707 0.19244 0.0
H961 H 0.72452 0.44309 0.25055 0.0
H962 H 0.73741 0.48362 0.20245 0.0
C963 C 0.81367 0.4446 0.20356 0.0
C964 C 0.60864 0.8433 0.16519 0.0
C965 C 0.61023 0.81008 0.17333 0.0
H966 H 0.58216 0.88066 0.1368 0.0
C967 C 0.58378 0.78898 0.16124 0.0
H968 H 0.62856 0.86007 0.17485 0.0
C969 C 0.55706 0.80069 0.13905 0.0
C970 C 0.55642 0.83369 0.12914 0.0
H971 H 0.58458 0.76324 0.16745 0.0
H972 H 0.5377 0.78368 0.12845 0.0
C973 C 0.58196 0.85503 0.14353 0.0
C974 C 0.27537 0.78715 0.17091 0.0
C975 C 0.24137 0.79377 0.18065 0.0
H976 H 0.31017 0.7624 0.1316 0.0
C977 C 0.21592 0.77877 0.15725 0.0
H978 H 0.29571 0.79877 0.18767 0.0
C979 C 0.22427 0.75805 0.12473 0.0
C980 C 0.25829 0.75187 0.11474 0.0
H981 H 0.18949 0.78318 0.16394 0.0
H982 H 0.20401 0.74703 0.10729 0.0
C983 C 0.28372 0.7665 0.13842 0.0
C984 C 0.399 0.84705 0.90725 0.0
C985 C 0.39301 0.87832 0.8934 0.0
H986 H 0.42388 0.81916 0.95009 0.0
C987 C 0.40731 0.90594 0.91313 0.0
H988 H 0.38799 0.82541 0.89262 0.0
C989 C 0.42775 0.90241 0.94567 0.0
C990 C 0.43421 0.87118 0.95935 0.0
H991 H 0.40337 0.93028 0.90281 0.0
H992 H 0.43874 0.92425 0.95989 0.0
C993 C 0.41932 0.84352 0.94018 0.0
C994 C 0.32606 0.60274 0.8843 0.0
C995 C 0.34611 0.57749 0.89829 0.0
H996 H 0.29968 0.64767 0.89812 0.0
C997 C 0.35874 0.58069 0.93667 0.0
H998 H 0.3156 0.6007 0.85504 0.0
C999 C 0.35025 0.60815 0.96112 0.0
C1000 C 0.3283 0.63217 0.94774 0.0
H1001 H 0.37409 0.56144 0.94813 0.0
H1002 H 0.35884 0.60941 0.9912 0.0
C1003 C 0.31692 0.62959 0.90892 0.0
C1004 C 0.65017 0.23825 0.94297 0.0
C1005 C 0.66651 0.26174 0.92114 0.0
H1006 H 0.60806 0.22788 0.98 0.0
C1007 C 0.65196 0.29296 0.91894 0.0
H1008 H 0.66091 0.21398 0.94498 0.0
C1009 C 0.62224 0.30095 0.93906 0.0
C1010 C 0.60607 0.27777 0.96142 0.0
H1011 H 0.6642 0.31163 0.90261 0.0
H1012 H 0.61217 0.32555 0.93761 0.0
C1013 C 0.61989 0.2461 0.96265 0.0
C1014 C 0.83102 0.6137 0.96849 0.0
C1015 C 0.80638 0.63843 0.97083 0.0
H1016 H 0.85064 0.57052 0.99333 0.0
C1017 C 0.781 0.63752 0.99937 0.0
H1018 H 0.85076 0.61397 0.94659 0.0
C1019 C 0.7805 0.61247 0.02564 0.0
C1020 C 0.80575 0.58819 0.02423 0.0
H1021 H 0.76156 0.65624 0.00126 0.0
H1022 H 0.76082 0.61259 0.04763 0.0
C1023 C 0.83092 0.58895 0.99523 0.0
loop_
_geom_bond_atom_site_label_1
_geom_bond_atom_site_label_2
_geom_bond_distance
_geom_bond_site_symmetry_2
_ccdc_geom_bond_type
H0 O26 0.856 . S
H1 O29 0.854 . S
H2 C37 0.930 . S
H3 C38 0.930 . S
H4 C40 0.930 . S
H5 C41 0.930 . S
H6 C43 0.931 . S
H7 C44 0.930 . S
H8 C46 0.930 . S
H9 C47 0.929 . S
H10 C49 0.930 . S
H11 C50 0.931 . S
H12 C52 0.930 . S
H13 C53 0.929 . S
H14 C55 0.931 . S
H15 C56 0.930 . S
H16 C58 0.930 . S
H17 C59 0.932 . S
H18 C61 0.930 . S
H19 C62 0.929 . S
H20 C64 0.931 . S
H21 C65 0.930 . S
H22 C67 0.929 . S
H23 C68 0.931 . S
H24 C70 0.930 . S
H25 C71 0.929 . S
O26 H0 0.856 . S
O26 C72 1.300 . S
O27 C72 1.209 . S
O28 C73 1.199 . S
O29 H1 0.854 . S
O29 C73 1.297 . S
C30 C31 1.404 . S
C30 C35 1.397 . S
C30 C36 1.492 . S
C31 C30 1.404 . S
C31 C32 1.396 . S
C31 C42 1.492 . S
C32 C31 1.396 . S
C32 C33 1.397 . S
C32 C48 1.509 . S
C33 C32 1.397 . S
C33 C34 1.412 . S
C33 C54 1.485 . S
C34 C33 1.412 . S
C34 C35 1.388 . S
C34 C60 1.490 . S
C35 C30 1.397 . S
C35 C34 1.388 . S
C35 C66 1.519 . S
C36 C30 1.492 . S
C36 C37 1.363 . S
C36 C41 1.390 . S
C37 H2 0.930 . S
C37 C36 1.363 . S
C37 C38 1.372 . S
C38 H3 0.930 . S
C38 C37 1.372 . S
C38 C39 1.383 . S
C39 C38 1.383 . S
C39 C40 1.395 . S
C40 H4 0.930 . S
C40 C39 1.395 . S
C40 C41 1.362 . S
C41 H5 0.930 . S
C41 C36 1.390 . S
C41 C40 1.362 . S
C42 C31 1.492 . S
C42 C43 1.377 . S
C42 C47 1.397 . S
C43 H6 0.931 . S
C43 C42 1.377 . S
C43 C44 1.376 . S
C44 H7 0.930 . S
C44 C43 1.376 . S
C44 C45 1.376 . S
C45 C44 1.376 . S
C45 C46 1.378 . S
C45 C72 1.486 . S
C46 H8 0.930 . S
C46 C45 1.378 . S
C46 C47 1.376 . S
C47 H9 0.929 . S
C47 C42 1.397 . S
C47 C46 1.376 . S
C48 C32 1.509 . S
C48 C49 1.391 . S
C48 C53 1.386 . S
C49 H10 0.930 . S
C49 C48 1.391 . S
C49 C50 1.375 . S
C50 H11 0.931 . S
C50 C49 1.375 . S
C50 C51 1.375 . S
C51 C50 1.375 . S
C51 C52 1.361 . S
C52 H12 0.930 . S
C52 C51 1.361 . S
C52 C53 1.399 . S
C53 H13 0.929 . S
C53 C48 1.386 . S
C53 C52 1.399 . S
C54 C33 1.485 . S
C54 C55 1.394 . S
C54 C59 1.360 . S
C55 H14 0.931 . S
C55 C54 1.394 . S
C55 C56 1.372 . S
C56 H15 0.930 . S
C56 C55 1.372 . S
C56 C57 1.397 . S
C57 C56 1.397 . S
C57 C58 1.390 . S
C57 C73 1.476 . S
C58 H16 0.930 . S
C58 C57 1.390 . S
C58 C59 1.366 . S
C59 H17 0.932 . S
C59 C54 1.360 . S
C59 C58 1.366 . S
C60 C34 1.490 . S
C60 C61 1.380 . S
C60 C65 1.386 . S
C61 H18 0.930 . S
C61 C60 1.380 . S
C61 C62 1.381 . S
C62 H19 0.929 . S
C62 C61 1.381 . S
C62 C63 1.371 . S
C63 C62 1.371 . S
C63 C64 1.380 . S
C64 H20 0.931 . S
C64 C63 1.380 . S
C64 C65 1.387 . S
C65 H21 0.930 . S
C65 C60 1.386 . S
C65 C64 1.387 . S
C66 C35 1.519 . S
C66 C67 1.377 . S
C66 C71 1.361 . S
C67 H22 0.929 . S
C67 C66 1.377 . S
C67 C68 1.386 . S
C68 H23 0.931 . S
C68 C67 1.386 . S
C68 C69 1.363 . S
C69 C68 1.363 . S
C69 C70 1.385 . S
C70 H24 0.930 . S
C70 C69 1.385 . S
C70 C71 1.396 . S
C71 H25 0.929 . S
C71 C66 1.361 . S
C71 C70 1.396 . S
C72 O26 1.300 . S
C72 O27 1.209 . S
C72 C45 1.486 . S
C73 O28 1.199 . S
C73 O29 1.297 . S
C73 C57 1.476 . S
H74 O100 0.856 . S
H75 O103 0.854 . S
H76 C111 0.930 . S
H77 C112 0.930 . S
H78 C114 0.930 . S
H79 C115 0.930 . S
H80 C117 0.931 . S
H81 C118 0.930 . S
H82 C120 0.930 . S
H83 C121 0.929 . S
H84 C123 0.930 . S
H85 C124 0.931 . S
H86 C126 0.930 . S
H87 C127 0.929 . S
H88 C129 0.931 . S
H89 C130 0.930 . S
H90 C132 0.930 . S
H91 C133 0.932 . S
H92 C135 0.930 . S
H93 C136 0.929 . S
H94 C138 0.931 . S
H95 C139 0.930 . S
H96 C141 0.929 . S
H97 C142 0.931 . S
H98 C144 0.930 . S
H99 C145 0.929 . S
O100 H74 0.856 . S
O100 C146 1.300 . S
O101 C146 1.209 . S
O102 C147 1.199 . S
O103 H75 0.854 . S
O103 C147 1.297 . S
C104 C105 1.404 . S
C104 C109 1.397 . S
C104 C110 1.492 . S
C105 C104 1.404 . S
C105 C106 1.396 . S
C105 C116 1.492 . S
C106 C105 1.396 . S
C106 C107 1.397 . S
C106 C122 1.509 . S
C107 C106 1.397 . S
C107 C108 1.412 . S
C107 C128 1.485 . S
C108 C107 1.412 . S
C108 C109 1.388 . S
C108 C134 1.490 . S
C109 C104 1.397 . S
C109 C108 1.388 . S
C109 C140 1.519 . S
C110 C104 1.492 . S
C110 C111 1.363 . S
C110 C115 1.390 . S
C111 H76 0.930 . S
C111 C110 1.363 . S
C111 C112 1.372 . S
C112 H77 0.930 . S
C112 C111 1.372 . S
C112 C113 1.383 . S
C113 C112 1.383 . S
C113 C114 1.395 . S
C114 H78 0.930 . S
C114 C113 1.395 . S
C114 C115 1.362 . S
C115 H79 0.930 . S
C115 C110 1.390 . S
C115 C114 1.362 . S
C116 C105 1.492 . S
C116 C117 1.377 . S
C116 C121 1.397 . S
C117 H80 0.931 . S
C117 C116 1.377 . S
C117 C118 1.376 . S
C118 H81 0.930 . S
C118 C117 1.376 . S
C118 C119 1.376 . S
C119 C118 1.376 . S
C119 C120 1.378 . S
C119 C146 1.486 . S
C120 H82 0.930 . S
C120 C119 1.378 . S
C120 C121 1.376 . S
C121 H83 0.929 . S
C121 C116 1.397 . S
C121 C120 1.376 . S
C122 C106 1.509 . S
C122 C123 1.391 . S
C122 C127 1.386 . S
C123 H84 0.930 . S
C123 C122 1.391 . S
C123 C124 1.375 . S
C124 H85 0.931 . S
C124 C123 1.375 . S
C124 C125 1.375 . S
C125 C124 1.375 . S
C125 C126 1.361 . S
C126 H86 0.930 . S
C126 C125 1.361 . S
C126 C127 1.399 . S
C127 H87 0.929 . S
C127 C122 1.386 . S
C127 C126 1.399 . S
C128 C107 1.485 . S
C128 C129 1.394 . S
C128 C133 1.360 . S
C129 H88 0.931 . S
C129 C128 1.394 . S
C129 C130 1.372 . S
C130 H89 0.930 . S
C130 C129 1.372 . S
C130 C131 1.397 . S
C131 C130 1.397 . S
C131 C132 1.390 . S
C131 C147 1.476 . S
C132 H90 0.930 . S
C132 C131 1.390 . S
C132 C133 1.366 . S
C133 H91 0.932 . S
C133 C128 1.360 . S
C133 C132 1.366 . S
C134 C108 1.490 . S
C134 C135 1.380 . S
C134 C139 1.386 . S
C135 H92 0.930 . S
C135 C134 1.380 . S
C135 C136 1.381 . S
C136 H93 0.929 . S
C136 C135 1.381 . S
C136 C137 1.371 . S
C137 C136 1.371 . S
C137 C138 1.380 . S
C138 H94 0.931 . S
C138 C137 1.380 . S
C138 C139 1.387 . S
C139 H95 0.930 . S
C139 C134 1.386 . S
C139 C138 1.387 . S
C140 C109 1.519 . S
C140 C141 1.377 . S
C140 C145 1.361 . S
C141 H96 0.929 . S
C141 C140 1.377 . S
C141 C142 1.386 . S
C142 H97 0.931 . S
C142 C141 1.386 . S
C142 C143 1.363 . S
C143 C142 1.363 . S
C143 C144 1.385 . S
C144 H98 0.930 . S
C144 C143 1.385 . S
C144 C145 1.396 . S
C145 H99 0.929 . S
C145 C140 1.361 . S
C145 C144 1.396 . S
C146 O100 1.300 . S
C146 O101 1.209 . S
C146 C119 1.486 . S
C147 O102 1.199 . S
C147 O103 1.297 . S
C147 C131 1.476 . S
H148 O174 0.856 . S
H149 O177 0.854 . S
H150 C185 0.930 . S
H151 C186 0.930 . S
H152 C188 0.930 . S
H153 C189 0.930 . S
H154 C191 0.931 . S
H155 C192 0.930 . S
H156 C194 0.930 . S
H157 C195 0.929 . S
H158 C197 0.930 . S
H159 C198 0.931 . S
H160 C200 0.930 . S
H161 C201 0.929 . S
H162 C203 0.931 . S
H163 C204 0.930 . S
H164 C206 0.930 . S
H165 C207 0.932 . S
H166 C209 0.930 . S
H167 C210 0.929 . S
H168 C212 0.931 . S
H169 C213 0.930 . S
H170 C215 0.929 . S
H171 C216 0.931 . S
H172 C218 0.930 . S
H173 C219 0.929 . S
O174 H148 0.856 . S
O174 C220 1.300 . S
O175 C220 1.209 . S
O176 C221 1.199 . S
O177 H149 0.854 . S
O177 C221 1.297 . S
C178 C179 1.404 . S
C178 C183 1.397 . S
C178 C184 1.492 . S
C179 C178 1.404 . S
C179 C180 1.396 . S
C179 C190 1.492 . S
C180 C179 1.396 . S
C180 C181 1.397 . S
C180 C196 1.509 . S
C181 C180 1.397 . S
C181 C182 1.412 . S
C181 C202 1.485 . S
C182 C181 1.412 . S
C182 C183 1.388 . S
C182 C208 1.490 . S
C183 C178 1.397 . S
C183 C182 1.388 . S
C183 C214 1.519 . S
C184 C178 1.492 . S
C184 C185 1.363 . S
C184 C189 1.390 . S
C185 H150 0.930 . S
C185 C184 1.363 . S
C185 C186 1.372 . S
C186 H151 0.930 . S
C186 C185 1.372 . S
C186 C187 1.383 . S
C187 C186 1.383 . S
C187 C188 1.395 . S
C188 H152 0.930 . S
C188 C187 1.395 . S
C188 C189 1.362 . S
C189 H153 0.930 . S
C189 C184 1.390 . S
C189 C188 1.362 . S
C190 C179 1.492 . S
C190 C191 1.377 . S
C190 C195 1.397 . S
C191 H154 0.931 . S
C191 C190 1.377 . S
C191 C192 1.376 . S
C192 H155 0.930 . S
C192 C191 1.376 . S
C192 C193 1.376 . S
C193 C192 1.376 . S
C193 C194 1.378 . S
C193 C220 1.486 . S
C194 H156 0.930 . S
C194 C193 1.378 . S
C194 C195 1.376 . S
C195 H157 0.929 . S
C195 C190 1.397 . S
C195 C194 1.376 . S
C196 C180 1.509 . S
C196 C197 1.391 . S
C196 C201 1.386 . S
C197 H158 0.930 . S
C197 C196 1.391 . S
C197 C198 1.375 . S
C198 H159 0.931 . S
C198 C197 1.375 . S
C198 C199 1.375 . S
C199 C198 1.375 . S
C199 C200 1.361 . S
C200 H160 0.930 . S
C200 C199 1.361 . S
C200 C201 1.399 . S
C201 H161 0.929 . S
C201 C196 1.386 . S
C201 C200 1.399 . S
C202 C181 1.485 . S
C202 C203 1.394 . S
C202 C207 1.360 . S
C203 H162 0.931 . S
C203 C202 1.394 . S
C203 C204 1.372 . S
C204 H163 0.930 . S
C204 C203 1.372 . S
C204 C205 1.397 . S
C205 C204 1.397 . S
C205 C206 1.390 . S
C205 C221 1.476 . S
C206 H164 0.930 . S
C206 C205 1.390 . S
C206 C207 1.366 . S
C207 H165 0.932 . S
C207 C202 1.360 . S
C207 C206 1.366 . S
C208 C182 1.490 . S
C208 C209 1.380 . S
C208 C213 1.386 . S
C209 H166 0.930 . S
C209 C208 1.380 . S
C209 C210 1.381 . S
C210 H167 0.929 . S
C210 C209 1.381 . S
C210 C211 1.371 . S
C211 C210 1.371 . S
C211 C212 1.380 . S
C212 H168 0.931 . S
C212 C211 1.380 . S
C212 C213 1.387 . S
C213 H169 0.930 . S
C213 C208 1.386 . S
C213 C212 1.387 . S
C214 C183 1.519 . S
C214 C215 1.377 . S
C214 C219 1.361 . S
C215 H170 0.929 . S
C215 C214 1.377 . S
C215 C216 1.386 . S
C216 H171 0.931 . S
C216 C215 1.386 . S
C216 C217 1.363 . S
C217 C216 1.363 . S
C217 C218 1.385 . S
C218 H172 0.930 . S
C218 C217 1.385 . S
C218 C219 1.396 . S
C219 H173 0.929 . S
C219 C214 1.361 . S
C219 C218 1.396 . S
C220 O174 1.300 . S
C220 O175 1.209 . S
C220 C193 1.486 . S
C221 O176 1.199 . S
C221 O177 1.297 . S
C221 C205 1.476 . S
H222 O248 0.856 . S
H223 O251 0.854 . S
H224 C259 0.930 . S
H225 C260 0.930 . S
H226 C262 0.930 . S
H227 C263 0.930 . S
H228 C265 0.931 . S
H229 C266 0.930 . S
H230 C268 0.930 . S
H231 C269 0.929 . S
H232 C271 0.930 . S
H233 C272 0.931 . S
H234 C274 0.930 1_545 S
H235 C275 0.929 . S
H236 C277 0.931 . S
H237 C278 0.930 . S
H238 C280 0.930 . S
H239 C281 0.932 . S
H240 C283 0.930 . S
H241 C284 0.929 . S
H242 C286 0.931 . S
H243 C287 0.930 . S
H244 C289 0.929 . S
H245 C290 0.931 . S
H246 C292 0.930 . S
H247 C293 0.929 . S
O248 H222 0.856 . S
O248 C294 1.300 . S
O249 C294 1.209 . S
O250 C295 1.199 . S
O251 H223 0.854 . S
O251 C295 1.297 . S
C252 C253 1.404 . S
C252 C257 1.397 . S
C252 C258 1.492 . S
C253 C252 1.404 . S
C253 C254 1.396 . S
C253 C264 1.492 . S
C254 C253 1.396 . S
C254 C255 1.397 . S
C254 C270 1.509 . S
C255 C254 1.397 . S
C255 C256 1.412 . S
C255 C276 1.485 . S
C256 C255 1.412 . S
C256 C257 1.388 . S
C256 C282 1.490 . S
C257 C252 1.397 . S
C257 C256 1.388 . S
C257 C288 1.519 . S
C258 C252 1.492 . S
C258 C259 1.363 . S
C258 C263 1.390 . S
C259 H224 0.930 . S
C259 C258 1.363 . S
C259 C260 1.372 . S
C260 H225 0.930 . S
C260 C259 1.372 . S
C260 C261 1.383 1_565 S
C261 C260 1.383 1_545 S
C261 C262 1.395 . S
C262 H226 0.930 . S
C262 C261 1.395 . S
C262 C263 1.362 1_545 S
C263 H227 0.930 . S
C263 C258 1.390 . S
C263 C262 1.362 1_565 S
C264 C253 1.492 . S
C264 C265 1.377 . S
C264 C269 1.397 1_565 S
C265 H228 0.931 . S
C265 C264 1.377 . S
C265 C266 1.376 1_565 S
C266 H229 0.930 . S
C266 C265 1.376 1_545 S
C266 C267 1.376 . S
C267 C266 1.376 . S
C267 C268 1.378 . S
C267 C294 1.486 . S
C268 H230 0.930 . S
C268 C267 1.378 . S
C268 C269 1.376 . S
C269 H231 0.929 . S
C269 C264 1.397 1_545 S
C269 C268 1.376 . S
C270 C254 1.509 . S
C270 C271 1.391 . S
C270 C275 1.386 . S
C271 H232 0.930 . S
C271 C270 1.391 . S
C271 C272 1.375 . S
C272 H233 0.931 . S
C272 C271 1.375 . S
C272 C273 1.375 . S
C273 C272 1.375 . S
C273 C274 1.361 . S
C274 H234 0.930 1_565 S
C274 C273 1.361 . S
C274 C275 1.399 . S
C275 H235 0.929 . S
C275 C270 1.386 . S
C275 C274 1.399 . S
C276 C255 1.485 . S
C276 C277 1.394 . S
C276 C281 1.360 . S
C277 H236 0.931 . S
C277 C276 1.394 . S
C277 C278 1.372 . S
C278 H237 0.930 . S
C278 C277 1.372 . S
C278 C279 1.397 . S
C279 C278 1.397 . S
C279 C280 1.390 . S
C279 C295 1.476 . S
C280 H238 0.930 . S
C280 C279 1.390 . S
C280 C281 1.366 . S
C281 H239 0.932 . S
C281 C276 1.360 . S
C281 C280 1.366 . S
C282 C256 1.490 . S
C282 C283 1.380 . S
C282 C287 1.386 . S
C283 H240 0.930 . S
C283 C282 1.380 . S
C283 C284 1.381 . S
C284 H241 0.929 . S
C284 C283 1.381 . S
C284 C285 1.371 . S
C285 C284 1.371 . S
C285 C286 1.380 . S
C286 H242 0.931 . S
C286 C285 1.380 . S
C286 C287 1.387 . S
C287 H243 0.930 . S
C287 C282 1.386 . S
C287 C286 1.387 . S
C288 C257 1.519 . S
C288 C289 1.377 . S
C288 C293 1.361 . S
C289 H244 0.929 . S
C289 C288 1.377 . S
C289 C290 1.386 . S
C290 H245 0.931 . S
C290 C289 1.386 . S
C290 C291 1.363 . S
C291 C290 1.363 . S
C291 C292 1.385 . S
C292 H246 0.930 . S
C292 C291 1.385 . S
C292 C293 1.396 . S
C293 H247 0.929 . S
C293 C288 1.361 . S
C293 C292 1.396 . S
C294 O248 1.300 . S
C294 O249 1.209 . S
C294 C267 1.486 . S
C295 O250 1.199 . S
C295 O251 1.297 . S
C295 C279 1.476 . S
H296 O322 0.856 . S
H297 O325 0.854 . S
H298 C333 0.930 . S
H299 C334 0.930 . S
H300 C336 0.930 . S
H301 C337 0.930 . S
H302 C339 0.931 . S
H303 C340 0.930 . S
H304 C342 0.930 . S
H305 C343 0.929 . S
H306 C345 0.930 . S
H307 C346 0.931 . S
H308 C348 0.930 . S
H309 C349 0.929 . S
H310 C351 0.931 . S
H311 C352 0.930 . S
H312 C354 0.930 . S
H313 C355 0.932 . S
H314 C357 0.930 . S
H315 C358 0.929 . S
H316 C360 0.931 . S
H317 C361 0.930 . S
H318 C363 0.929 . S
H319 C364 0.931 . S
H320 C366 0.930 . S
H321 C367 0.929 . S
O322 H296 0.856 . S
O322 C368 1.300 . S
O323 C368 1.209 . S
O324 C369 1.199 . S
O325 H297 0.854 . S
O325 C369 1.297 . S
C326 C327 1.404 . S
C326 C331 1.397 . S
C326 C332 1.492 . S
C327 C326 1.404 . S
C327 C328 1.396 . S
C327 C338 1.492 . S
C328 C327 1.396 . S
C328 C329 1.397 . S
C328 C344 1.509 . S
C329 C328 1.397 . S
C329 C330 1.412 . S
C329 C350 1.485 . S
C330 C329 1.412 . S
C330 C331 1.388 . S
C330 C356 1.490 . S
C331 C326 1.397 . S
C331 C330 1.388 . S
C331 C362 1.519 . S
C332 C326 1.492 . S
C332 C333 1.363 . S
C332 C337 1.390 . S
C333 H298 0.930 . S
C333 C332 1.363 . S
C333 C334 1.372 . S
C334 H299 0.930 . S
C334 C333 1.372 . S
C334 C335 1.383 . S
C335 C334 1.383 . S
C335 C336 1.395 . S
C336 H300 0.930 . S
C336 C335 1.395 . S
C336 C337 1.362 . S
C337 H301 0.930 . S
C337 C332 1.390 . S
C337 C336 1.362 . S
C338 C327 1.492 . S
C338 C339 1.377 . S
C338 C343 1.397 . S
C339 H302 0.931 . S
C339 C338 1.377 . S
C339 C340 1.376 . S
C340 H303 0.930 . S
C340 C339 1.376 . S
C340 C341 1.376 1_565 S
C341 C340 1.376 1_545 S
C341 C342 1.378 . S
C341 C368 1.486 . S
C342 H304 0.930 . S
C342 C341 1.378 . S
C342 C343 1.376 1_545 S
C343 H305 0.929 . S
C343 C338 1.397 . S
C343 C342 1.376 1_565 S
C344 C328 1.509 . S
C344 C345 1.391 . S
C344 C349 1.386 1_565 S
C345 H306 0.930 . S
C345 C344 1.391 . S
C345 C346 1.375 1_565 S
C346 H307 0.931 . S
C346 C345 1.375 1_545 S
C346 C347 1.375 . S
C347 C346 1.375 . S
C347 C348 1.361 . S
C348 H308 0.930 . S
C348 C347 1.361 . S
C348 C349 1.399 . S
C349 H309 0.929 . S
C349 C344 1.386 1_545 S
C349 C348 1.399 . S
C350 C329 1.485 . S
C350 C351 1.394 . S
C350 C355 1.360 . S
C351 H310 0.931 . S
C351 C350 1.394 . S
C351 C352 1.372 . S
C352 H311 0.930 . S
C352 C351 1.372 . S
C352 C353 1.397 . S
C353 C352 1.397 . S
C353 C354 1.390 . S
C353 C369 1.476 . S
C354 H312 0.930 . S
C354 C353 1.390 . S
C354 C355 1.366 . S
C355 H313 0.932 . S
C355 C350 1.360 . S
C355 C354 1.366 . S
C356 C330 1.490 . S
C356 C357 1.380 . S
C356 C361 1.386 . S
C357 H314 0.930 . S
C357 C356 1.380 . S
C357 C358 1.381 . S
C358 H315 0.929 . S
C358 C357 1.381 . S
C358 C359 1.371 . S
C359 C358 1.371 . S
C359 C360 1.380 . S
C360 H316 0.931 . S
C360 C359 1.380 . S
C360 C361 1.387 . S
C361 H317 0.930 . S
C361 C356 1.386 . S
C361 C360 1.387 . S
C362 C331 1.519 . S
C362 C363 1.377 . S
C362 C367 1.361 . S
C363 H318 0.929 . S
C363 C362 1.377 . S
C363 C364 1.386 . S
C364 H319 0.931 . S
C364 C363 1.386 . S
C364 C365 1.363 . S
C365 C364 1.363 . S
C365 C366 1.385 . S
C366 H320 0.930 . S
C366 C365 1.385 . S
C366 C367 1.396 . S
C367 H321 0.929 . S
C367 C362 1.361 . S
C367 C366 1.396 . S
C368 O322 1.300 . S
C368 O323 1.209 . S
C368 C341 1.486 . S
C369 O324 1.199 . S
C369 O325 1.297 . S
C369 C353 1.476 . S
H370 O396 0.856 . S
H371 O399 0.854 . S
H372 C407 0.930 . S
H373 C408 0.930 . S
H374 C410 0.930 . S
H375 C411 0.930 . S
H376 C413 0.931 . S
H377 C414 0.930 . S
H378 C416 0.930 . S
H379 C417 0.929 . S
H380 C419 0.930 . S
H381 C420 0.931 . S
H382 C422 0.930 . S
H383 C423 0.929 . S
H384 C425 0.931 . S
H385 C426 0.930 . S
H386 C428 0.930 . S
H387 C429 0.932 . S
H388 C431 0.930 . S
H389 C432 0.929 . S
H390 C434 0.931 . S
H391 C435 0.930 . S
H392 C437 0.929 . S
H393 C438 0.931 . S
H394 C440 0.930 . S
H395 C441 0.929 . S
O396 H370 0.856 . S
O396 C442 1.300 . S
O397 C442 1.209 . S
O398 C443 1.199 . S
O399 H371 0.854 . S
O399 C443 1.297 . S
C400 C401 1.404 . S
C400 C405 1.397 . S
C400 C406 1.492 . S
C401 C400 1.404 . S
C401 C402 1.396 . S
C401 C412 1.492 . S
C402 C401 1.396 . S
C402 C403 1.397 . S
C402 C418 1.509 . S
C403 C402 1.397 . S
C403 C404 1.412 . S
C403 C424 1.485 . S
C404 C403 1.412 . S
C404 C405 1.388 . S
C404 C430 1.490 . S
C405 C400 1.397 . S
C405 C404 1.388 . S
C405 C436 1.519 . S
C406 C400 1.492 . S
C406 C407 1.363 . S
C406 C411 1.390 . S
C407 H372 0.930 . S
C407 C406 1.363 . S
C407 C408 1.372 . S
C408 H373 0.930 . S
C408 C407 1.372 . S
C408 C409 1.383 . S
C409 C408 1.383 . S
C409 C410 1.395 . S
C410 H374 0.930 . S
C410 C409 1.395 . S
C410 C411 1.362 . S
C411 H375 0.930 . S
C411 C406 1.390 . S
C411 C410 1.362 . S
C412 C401 1.492 . S
C412 C413 1.377 . S
C412 C417 1.397 . S
C413 H376 0.931 . S
C413 C412 1.377 . S
C413 C414 1.376 . S
C414 H377 0.930 . S
C414 C413 1.376 . S
C414 C415 1.376 . S
C415 C414 1.376 . S
C415 C416 1.378 . S
C415 C442 1.486 . S
C416 H378 0.930 . S
C416 C415 1.378 . S
C416 C417 1.376 . S
C417 H379 0.929 . S
C417 C412 1.397 . S
C417 C416 1.376 . S
C418 C402 1.509 . S
C418 C419 1.391 . S
C418 C423 1.386 . S
C419 H380 0.930 . S
C419 C418 1.391 . S
C419 C420 1.375 . S
C420 H381 0.931 . S
C420 C419 1.375 . S
C420 C421 1.375 . S
C421 C420 1.375 . S
C421 C422 1.361 . S
C422 H382 0.930 . S
C422 C421 1.361 . S
C422 C423 1.399 . S
C423 H383 0.929 . S
C423 C418 1.386 . S
C423 C422 1.399 . S
C424 C403 1.485 . S
C424 C425 1.394 . S
C424 C429 1.360 . S
C425 H384 0.931 . S
C425 C424 1.394 . S
C425 C426 1.372 . S
C426 H385 0.930 . S
C426 C425 1.372 . S
C426 C427 1.397 . S
C427 C426 1.397 . S
C427 C428 1.390 . S
C427 C443 1.476 . S
C428 H386 0.930 . S
C428 C427 1.390 . S
C428 C429 1.366 . S
C429 H387 0.932 . S
C429 C424 1.360 . S
C429 C428 1.366 . S
C430 C404 1.490 . S
C430 C431 1.380 . S
C430 C435 1.386 . S
C431 H388 0.930 . S
C431 C430 1.380 . S
C431 C432 1.381 . S
C432 H389 0.929 . S
C432 C431 1.381 . S
C432 C433 1.371 . S
C433 C432 1.371 . S
C433 C434 1.380 . S
C434 H390 0.931 . S
C434 C433 1.380 . S
C434 C435 1.387 . S
C435 H391 0.930 . S
C435 C430 1.386 . S
C435 C434 1.387 . S
C436 C405 1.519 . S
C436 C437 1.377 . S
C436 C441 1.361 . S
C437 H392 0.929 . S
C437 C436 1.377 . S
C437 C438 1.386 . S
C438 H393 0.931 . S
C438 C437 1.386 . S
C438 C439 1.363 . S
C439 C438 1.363 . S
C439 C440 1.385 . S
C440 H394 0.930 . S
C440 C439 1.385 . S
C440 C441 1.396 . S
C441 H395 0.929 . S
C441 C436 1.361 . S
C441 C440 1.396 . S
C442 O396 1.300 . S
C442 O397 1.209 . S
C442 C415 1.486 . S
C443 O398 1.199 . S
C443 O399 1.297 . S
C443 C427 1.476 . S
H444 O470 0.856 . S
H445 O473 0.854 . S
H446 C481 0.930 . S
H447 C482 0.930 . S
H448 C484 0.930 . S
H449 C485 0.930 . S
H450 C487 0.931 . S
H451 C488 0.930 . S
H452 C490 0.930 . S
H453 C491 0.929 . S
H454 C493 0.930 . S
H455 C494 0.931 . S
H456 C496 0.930 . S
H457 C497 0.929 . S
H458 C499 0.931 . S
H459 C500 0.930 . S
H460 C502 0.930 . S
H461 C503 0.932 . S
H462 C505 0.930 . S
H463 C506 0.929 . S
H464 C508 0.931 . S
H465 C509 0.930 . S
H466 C511 0.929 . S
H467 C512 0.931 . S
H468 C514 0.930 . S
H469 C515 0.929 . S
O470 H444 0.856 . S
O470 C516 1.300 . S
O471 C516 1.209 . S
O472 C517 1.199 . S
O473 H445 0.854 . S
O473 C517 1.297 . S
C474 C475 1.404 . S
C474 C479 1.397 . S
C474 C480 1.492 . S
C475 C474 1.404 . S
C475 C476 1.396 . S
C475 C486 1.492 . S
C476 C475 1.396 . S
C476 C477 1.397 . S
C476 C492 1.509 . S
C477 C476 1.397 . S
C477 C478 1.412 . S
C477 C498 1.485 . S
C478 C477 1.412 . S
C478 C479 1.388 . S
C478 C504 1.490 . S
C479 C474 1.397 . S
C479 C478 1.388 . S
C479 C510 1.519 . S
C480 C474 1.492 . S
C480 C481 1.363 . S
C480 C485 1.390 . S
C481 H446 0.930 . S
C481 C480 1.363 . S
C481 C482 1.372 . S
C482 H447 0.930 . S
C482 C481 1.372 . S
C482 C483 1.383 . S
C483 C482 1.383 . S
C483 C484 1.395 . S
C484 H448 0.930 . S
C484 C483 1.395 . S
C484 C485 1.362 . S
C485 H449 0.930 . S
C485 C480 1.390 . S
C485 C484 1.362 . S
C486 C475 1.492 . S
C486 C487 1.377 . S
C486 C491 1.397 . S
C487 H450 0.931 . S
C487 C486 1.377 . S
C487 C488 1.376 . S
C488 H451 0.930 . S
C488 C487 1.376 . S
C488 C489 1.376 . S
C489 C488 1.376 . S
C489 C490 1.378 . S
C489 C516 1.486 . S
C490 H452 0.930 . S
C490 C489 1.378 . S
C490 C491 1.376 . S
C491 H453 0.929 . S
C491 C486 1.397 . S
C491 C490 1.376 . S
C492 C476 1.509 . S
C492 C493 1.391 . S
C492 C497 1.386 . S
C493 H454 0.930 . S
C493 C492 1.391 . S
C493 C494 1.375 . S
C494 H455 0.931 . S
C494 C493 1.375 . S
C494 C495 1.375 . S
C495 C494 1.375 . S
C495 C496 1.361 . S
C496 H456 0.930 . S
C496 C495 1.361 . S
C496 C497 1.399 . S
C497 H457 0.929 . S
C497 C492 1.386 . S
C497 C496 1.399 . S
C498 C477 1.485 . S
C498 C499 1.394 . S
C498 C503 1.360 . S
C499 H458 0.931 . S
C499 C498 1.394 . S
C499 C500 1.372 . S
C500 H459 0.930 . S
C500 C499 1.372 . S
C500 C501 1.397 . S
C501 C500 1.397 . S
C501 C502 1.390 . S
C501 C517 1.476 . S
C502 H460 0.930 . S
C502 C501 1.390 . S
C502 C503 1.366 . S
C503 H461 0.932 . S
C503 C498 1.360 . S
C503 C502 1.366 . S
C504 C478 1.490 . S
C504 C505 1.380 . S
C504 C509 1.386 . S
C505 H462 0.930 . S
C505 C504 1.380 . S
C505 C506 1.381 . S
C506 H463 0.929 . S
C506 C505 1.381 . S
C506 C507 1.371 . S
C507 C506 1.371 . S
C507 C508 1.380 . S
C508 H464 0.931 . S
C508 C507 1.380 . S
C508 C509 1.387 . S
C509 H465 0.930 . S
C509 C504 1.386 . S
C509 C508 1.387 . S
C510 C479 1.519 . S
C510 C511 1.377 . S
C510 C515 1.361 . S
C511 H466 0.929 . S
C511 C510 1.377 . S
C511 C512 1.386 . S
C512 H467 0.931 . S
C512 C511 1.386 . S
C512 C513 1.363 . S
C513 C512 1.363 . S
C513 C514 1.385 . S
C514 H468 0.930 . S
C514 C513 1.385 . S
C514 C515 1.396 . S
C515 H469 0.929 . S
C515 C510 1.361 . S
C515 C514 1.396 . S
C516 O470 1.300 . S
C516 O471 1.209 . S
C516 C489 1.486 . S
C517 O472 1.199 . S
C517 O473 1.297 . S
C517 C501 1.476 . S
H518 O544 0.856 . S
H519 O547 0.854 . S
H520 C555 0.930 . S
H521 C556 0.930 . S
H522 C558 0.930 . S
H523 C559 0.930 . S
H524 C561 0.931 . S
H525 C562 0.930 . S
H526 C564 0.930 . S
H527 C565 0.929 . S
H528 C567 0.930 . S
H529 C568 0.931 . S
H530 C570 0.930 . S
H531 C571 0.929 . S
H532 C573 0.931 . S
H533 C574 0.930 1_554 S
H534 C576 0.930 . S
H535 C577 0.932 . S
H536 C579 0.930 . S
H537 C580 0.929 . S
H538 C582 0.931 . S
H539 C583 0.930 . S
H540 C585 0.929 . S
H541 C586 0.931 . S
H542 C588 0.930 . S
H543 C589 0.929 . S
O544 H518 0.856 . S
O544 C590 1.300 . S
O545 C590 1.209 . S
O546 C591 1.199 . S
O547 H519 0.854 . S
O547 C591 1.297 . S
C548 C549 1.404 . S
C548 C553 1.397 . S
C548 C554 1.492 . S
C549 C548 1.404 . S
C549 C550 1.396 . S
C549 C560 1.492 . S
C550 C549 1.396 . S
C550 C551 1.397 . S
C550 C566 1.509 . S
C551 C550 1.397 . S
C551 C552 1.412 . S
C551 C572 1.485 . S
C552 C551 1.412 . S
C552 C553 1.388 . S
C552 C578 1.490 . S
C553 C548 1.397 . S
C553 C552 1.388 . S
C553 C584 1.519 . S
C554 C548 1.492 . S
C554 C555 1.363 . S
C554 C559 1.390 . S
C555 H520 0.930 . S
C555 C554 1.363 . S
C555 C556 1.372 . S
C556 H521 0.930 . S
C556 C555 1.372 . S
C556 C557 1.383 . S
C557 C556 1.383 . S
C557 C558 1.395 . S
C558 H522 0.930 . S
C558 C557 1.395 . S
C558 C559 1.362 . S
C559 H523 0.930 . S
C559 C554 1.390 . S
C559 C558 1.362 . S
C560 C549 1.492 . S
C560 C561 1.377 . S
C560 C565 1.397 . S
C561 H524 0.931 . S
C561 C560 1.377 . S
C561 C562 1.376 . S
C562 H525 0.930 . S
C562 C561 1.376 . S
C562 C563 1.376 . S
C563 C562 1.376 . S
C563 C564 1.378 . S
C563 C590 1.486 . S
C564 H526 0.930 . S
C564 C563 1.378 . S
C564 C565 1.376 . S
C565 H527 0.929 . S
C565 C560 1.397 . S
C565 C564 1.376 . S
C566 C550 1.509 . S
C566 C567 1.391 . S
C566 C571 1.386 . S
C567 H528 0.930 . S
C567 C566 1.391 . S
C567 C568 1.375 . S
C568 H529 0.931 . S
C568 C567 1.375 . S
C568 C569 1.375 . S
C569 C568 1.375 . S
C569 C570 1.361 . S
C570 H530 0.930 . S
C570 C569 1.361 . S
C570 C571 1.399 . S
C571 H531 0.929 . S
C571 C566 1.386 . S
C571 C570 1.399 . S
C572 C551 1.485 . S
C572 C573 1.394 . S
C572 C577 1.360 . S
C573 H532 0.931 . S
C573 C572 1.394 . S
C573 C574 1.372 . S
C574 H533 0.930 1_556 S
C574 C573 1.372 . S
C574 C575 1.397 . S
C575 C574 1.397 . S
C575 C576 1.390 . S
C575 C591 1.476 1_556 S
C576 H534 0.930 . S
C576 C575 1.390 . S
C576 C577 1.366 . S
C577 H535 0.932 . S
C577 C572 1.360 . S
C577 C576 1.366 . S
C578 C552 1.490 . S
C578 C579 1.380 . S
C578 C583 1.386 . S
C579 H536 0.930 . S
C579 C578 1.380 . S
C579 C580 1.381 . S
C580 H537 0.929 . S
C580 C579 1.381 . S
C580 C581 1.371 . S
C581 C580 1.371 . S
C581 C582 1.380 . S
C582 H538 0.931 . S
C582 C581 1.380 . S
C582 C583 1.387 . S
C583 H539 0.930 . S
C583 C578 1.386 . S
C583 C582 1.387 . S
C584 C553 1.519 . S
C584 C585 1.377 . S
C584 C589 1.361 . S
C585 H540 0.929 . S
C585 C584 1.377 . S
C585 C586 1.386 . S
C586 H541 0.931 . S
C586 C585 1.386 . S
C586 C587 1.363 . S
C587 C586 1.363 . S
C587 C588 1.385 . S
C588 H542 0.930 . S
C588 C587 1.385 . S
C588 C589 1.396 . S
C589 H543 0.929 . S
C589 C584 1.361 . S
C589 C588 1.396 . S
C590 O544 1.300 . S
C590 O545 1.209 . S
C590 C563 1.486 . S
C591 O546 1.199 . S
C591 O547 1.297 . S
C591 C575 1.476 1_554 S
C592 O594 1.247 . S
C592 O596 1.258 . S
C593 O600 1.247 . S
C593 O601 1.258 . S
O594 C592 1.247 . S
O594 Zn595 2.028 . S
Zn595 O594 2.028 . S
Zn595 O599 2.035 1_655 S
Zn595 O601 2.035 1_655 S
Zn595 O602 2.028 . S
O596 C592 1.258 . S
O596 Zn597 2.035 1_655 S
Zn597 O596 2.035 1_455 S
Zn597 O598 2.028 . S
Zn597 O600 2.028 . S
Zn597 O603 2.035 1_455 S
O598 Zn597 2.028 . S
O598 C604 1.247 . S
O599 Zn595 2.035 1_455 S
O599 C604 1.258 . S
O600 C593 1.247 . S
O600 Zn597 2.028 . S
O601 C593 1.258 . S
O601 Zn595 2.035 1_455 S
O602 Zn595 2.028 . S
O602 C605 1.247 . S
O603 Zn597 2.035 1_655 S
O603 C605 1.258 . S
C604 O598 1.247 . S
C604 O599 1.258 . S
C605 O602 1.247 . S
C605 O603 1.258 . S
C606 O608 1.247 . S
C606 O610 1.258 . S
C607 O614 1.247 . S
C607 O615 1.258 . S
O608 C606 1.247 . S
O608 Zn609 2.028 . S
Zn609 O608 2.028 . S
Zn609 O613 2.035 1_545 S
Zn609 O615 2.035 1_545 S
Zn609 O616 2.028 . S
O610 C606 1.258 . S
O610 Zn611 2.035 . S
Zn611 O610 2.035 . S
Zn611 O612 2.028 1_545 S
Zn611 O614 2.028 1_545 S
Zn611 O617 2.035 . S
O612 Zn611 2.028 1_565 S
O612 C618 1.247 . S
O613 Zn609 2.035 1_565 S
O613 C618 1.258 . S
O614 C607 1.247 . S
O614 Zn611 2.028 1_565 S
O615 C607 1.258 . S
O615 Zn609 2.035 1_565 S
O616 Zn609 2.028 . S
O616 C619 1.247 . S
O617 Zn611 2.035 . S
O617 C619 1.258 . S
C618 O612 1.247 . S
C618 O613 1.258 . S
C619 O616 1.247 . S
C619 O617 1.258 . S
C620 O622 1.247 . S
C620 O624 1.258 . S
C621 O628 1.247 . S
C621 O629 1.258 . S
O622 C620 1.247 . S
O622 Zn623 2.028 . S
Zn623 O622 2.028 . S
Zn623 O627 2.035 . S
Zn623 O629 2.035 . S
Zn623 O630 2.028 . S
O624 C620 1.258 . S
O624 Zn625 2.035 . S
Zn625 O624 2.035 . S
Zn625 O626 2.028 . S
Zn625 O628 2.028 . S
Zn625 O631 2.035 . S
O626 Zn625 2.028 . S
O626 C632 1.247 . S
O627 Zn623 2.035 . S
O627 C632 1.258 . S
O628 C621 1.247 . S
O628 Zn625 2.028 . S
O629 C621 1.258 . S
O629 Zn623 2.035 . S
O630 Zn623 2.028 . S
O630 C633 1.242 1_455 S
O631 Zn625 2.035 . S
O631 C633 1.238 1_455 S
C632 O626 1.247 . S
C632 O627 1.258 . S
C633 O630 1.242 1_655 S
C633 O631 1.238 1_655 S
C634 O636 1.247 . S
C634 O638 1.258 . S
C635 O642 1.247 . S
C635 O643 1.258 . S
O636 C634 1.247 . S
O636 Zn637 2.028 . S
Zn637 O636 2.028 . S
Zn637 O641 2.035 . S
Zn637 O643 2.035 . S
Zn637 O644 2.028 . S
O638 C634 1.258 . S
O638 Zn639 2.035 . S
Zn639 O638 2.035 . S
Zn639 O640 2.028 . S
Zn639 O642 2.028 . S
Zn639 O645 2.035 . S
O640 Zn639 2.028 . S
O640 C646 1.247 . S
O641 Zn637 2.035 . S
O641 C646 1.258 . S
O642 C635 1.247 . S
O642 Zn639 2.028 . S
O643 C635 1.258 . S
O643 Zn637 2.035 . S
O644 Zn637 2.028 . S
O644 C647 1.247 . S
O645 Zn639 2.035 . S
O645 C647 1.258 . S
C646 O640 1.247 . S
C646 O641 1.258 . S
C647 O644 1.247 . S
C647 O645 1.258 . S
C648 O650 1.247 . S
C648 O652 1.258 . S
C649 O656 1.247 . S
C649 O657 1.258 . S
O650 C648 1.247 . S
O650 Zn651 2.028 . S
Zn651 O650 2.028 . S
Zn651 O655 2.035 . S
Zn651 O657 2.035 1_554 S
Zn651 O658 2.028 1_554 S
O652 C648 1.258 . S
O652 Zn653 2.035 . S
Zn653 O652 2.035 . S
Zn653 O654 2.028 . S
Zn653 O656 2.028 1_554 S
Zn653 O659 2.035 1_554 S
O654 Zn653 2.028 . S
O654 C660 1.247 . S
O655 Zn651 2.035 . S
O655 C660 1.258 . S
O656 C649 1.247 . S
O656 Zn653 2.028 1_556 S
O657 C649 1.258 . S
O657 Zn651 2.035 1_556 S
O658 Zn651 2.028 1_556 S
O658 C661 1.247 . S
O659 Zn653 2.035 1_556 S
O659 C661 1.258 . S
C660 O654 1.247 . S
C660 O655 1.258 . S
C661 O658 1.247 . S
C661 O659 1.258 . S
C662 O664 1.247 . S
C662 O666 1.258 . S
C663 O670 1.247 . S
C663 O671 1.258 . S
O664 C662 1.247 . S
O664 Zn665 2.028 . S
Zn665 O664 2.028 . S
Zn665 O669 2.035 . S
Zn665 O671 2.035 1_554 S
Zn665 O672 2.028 1_554 S
O666 C662 1.258 . S
O666 Zn667 2.035 . S
Zn667 O666 2.035 . S
Zn667 O668 2.028 . S
Zn667 O670 2.028 1_554 S
Zn667 O673 2.035 1_554 S
O668 Zn667 2.028 . S
O668 C674 1.247 . S
O669 Zn665 2.035 . S
O669 C674 1.258 . S
O670 C663 1.247 . S
O670 Zn667 2.028 1_556 S
O671 C663 1.258 . S
O671 Zn665 2.035 1_556 S
O672 Zn665 2.028 1_556 S
O672 C675 1.247 . S
O673 Zn667 2.035 1_556 S
O673 C675 1.258 . S
C674 O668 1.247 . S
C674 O669 1.258 . S
C675 O672 1.247 . S
C675 O673 1.258 . S
C676 O678 1.247 1_556 S
C676 O680 1.258 . S
C677 O684 1.247 . S
C677 O685 1.258 . S
O678 C676 1.247 1_554 S
O678 Zn679 2.028 . S
Zn679 O678 2.028 . S
Zn679 O683 2.035 1_554 S
Zn679 O685 2.035 . S
Zn679 O686 2.028 . S
O680 C676 1.258 . S
O680 Zn681 2.035 1_556 S
Zn681 O680 2.035 1_554 S
Zn681 O682 2.028 1_554 S
Zn681 O684 2.028 . S
Zn681 O687 2.035 . S
O682 Zn681 2.028 1_556 S
O682 C688 1.247 . S
O683 Zn679 2.035 1_556 S
O683 C688 1.258 . S
O684 C677 1.247 . S
O684 Zn681 2.028 . S
O685 C677 1.258 . S
O685 Zn679 2.035 . S
O686 Zn679 2.028 . S
O686 C689 1.247 . S
O687 Zn681 2.035 . S
O687 C689 1.258 . S
C688 O682 1.247 . S
C688 O683 1.258 . S
C689 O686 1.247 . S
C689 O687 1.258 . S
C690 O692 1.247 . S
C690 O694 1.258 . S
C691 O698 1.247 . S
C691 O699 1.258 . S
O692 C690 1.247 . S
O692 Zn693 2.028 . S
Zn693 O692 2.028 . S
Zn693 O697 2.035 . S
Zn693 O699 2.035 . S
Zn693 O700 2.028 . S
O694 C690 1.258 . S
O694 Zn695 2.035 . S
Zn695 O694 2.035 . S
Zn695 O696 2.028 . S
Zn695 O698 2.028 . S
Zn695 O701 2.035 . S
O696 Zn695 2.028 . S
O696 C702 1.247 . S
O697 Zn693 2.035 . S
O697 C702 1.258 . S
O698 C691 1.247 . S
O698 Zn695 2.028 . S
O699 C691 1.258 . S
O699 Zn693 2.035 . S
O700 Zn693 2.028 . S
O700 C703 1.247 . S
O701 Zn695 2.035 . S
O701 C703 1.258 . S
C702 O696 1.247 . S
C702 O697 1.258 . S
C703 O700 1.247 . S
C703 O701 1.258 . S
C704 C705 1.387 . S
C704 H708 0.950 . S
C704 C713 1.390 . S
C705 C704 1.387 . S
C705 C707 1.387 . S
H706 C713 0.950 . S
C707 C705 1.387 . S
C707 C709 1.390 . S
C707 H711 0.950 . S
H708 C704 0.950 . S
C709 C707 1.390 . S
C709 C710 1.387 . S
C709 H712 0.950 . S
C710 C709 1.387 . S
C710 C713 1.387 . S
H711 C707 0.950 . S
H712 C709 0.950 . S
C713 C704 1.390 . S
C713 H706 0.950 . S
C713 C710 1.387 . S
C714 C715 1.387 . S
C714 H718 0.950 . S
C714 C723 1.390 . S
C715 C714 1.387 . S
C715 C717 1.387 . S
H716 C723 0.950 . S
C717 C715 1.387 . S
C717 C719 1.390 . S
C717 H721 0.950 . S
H718 C714 0.950 . S
C719 C717 1.390 . S
C719 C720 1.387 . S
C719 H722 0.950 . S
C720 C719 1.387 . S
C720 C723 1.387 . S
H721 C717 0.950 . S
H722 C719 0.950 . S
C723 C714 1.390 . S
C723 H716 0.950 . S
C723 C720 1.387 . S
C724 C725 1.387 . S
C724 H728 0.950 . S
C724 C733 1.390 . S
C725 C724 1.387 . S
C725 C727 1.387 . S
H726 C733 0.950 . S
C727 C725 1.387 . S
C727 C729 1.390 . S
C727 H731 0.950 . S
H728 C724 0.950 . S
C729 C727 1.390 . S
C729 C730 1.387 . S
C729 H732 0.950 . S
C730 C729 1.387 . S
C730 C733 1.387 . S
H731 C727 0.950 . S
H732 C729 0.950 . S
C733 C724 1.390 . S
C733 H726 0.950 . S
C733 C730 1.387 . S
C734 C735 1.387 . S
C734 H738 0.950 . S
C734 C743 1.390 . S
C735 C734 1.387 . S
C735 C737 1.387 . S
H736 C743 0.950 . S
C737 C735 1.387 . S
C737 C739 1.390 . S
C737 H741 0.950 . S
H738 C734 0.950 . S
C739 C737 1.390 . S
C739 C740 1.387 . S
C739 H742 0.950 . S
C740 C739 1.387 . S
C740 C743 1.387 . S
H741 C737 0.950 . S
H742 C739 0.950 . S
C743 C734 1.390 . S
C743 H736 0.950 . S
C743 C740 1.387 . S
C744 C745 1.387 . S
C744 H748 0.950 . S
C744 C753 1.390 . S
C745 C744 1.387 . S
C745 C747 1.387 . S
H746 C753 0.950 . S
C747 C745 1.387 . S
C747 C749 1.390 . S
C747 H751 0.950 . S
H748 C744 0.950 . S
C749 C747 1.390 . S
C749 C750 1.387 . S
C749 H752 0.950 . S
C750 C749 1.387 . S
C750 C753 1.387 . S
H751 C747 0.950 . S
H752 C749 0.950 . S
C753 C744 1.390 . S
C753 H746 0.950 . S
C753 C750 1.387 . S
C754 C755 1.387 . S
C754 H758 0.950 . S
C754 C763 1.390 . S
C755 C754 1.387 . S
C755 C757 1.387 . S
H756 C763 0.950 . S
C757 C755 1.387 . S
C757 C759 1.390 . S
C757 H761 0.950 . S
H758 C754 0.950 . S
C759 C757 1.390 . S
C759 C760 1.387 . S
C759 H762 0.950 . S
C760 C759 1.387 . S
C760 C763 1.387 . S
H761 C757 0.950 . S
H762 C759 0.950 . S
C763 C754 1.390 . S
C763 H756 0.950 . S
C763 C760 1.387 . S
C764 C765 1.387 . S
C764 H768 0.950 . S
C764 C773 1.390 . S
C765 C764 1.387 . S
C765 C767 1.387 . S
H766 C773 0.950 . S
C767 C765 1.387 . S
C767 C769 1.390 . S
C767 H771 0.950 . S
H768 C764 0.950 . S
C769 C767 1.390 . S
C769 C770 1.387 . S
C769 H772 0.950 . S
C770 C769 1.387 . S
C770 C773 1.387 . S
H771 C767 0.950 . S
H772 C769 0.950 . S
C773 C764 1.390 . S
C773 H766 0.950 . S
C773 C770 1.387 . S
C774 C775 1.387 . S
C774 H778 0.950 . S
C774 C783 1.390 . S
C775 C774 1.387 . S
C775 C777 1.387 . S
H776 C783 0.950 . S
C777 C775 1.387 . S
C777 C779 1.390 . S
C777 H781 0.950 . S
H778 C774 0.950 . S
C779 C777 1.390 . S
C779 C780 1.387 . S
C779 H782 0.950 . S
C780 C779 1.387 . S
C780 C783 1.387 . S
H781 C777 0.950 . S
H782 C779 0.950 . S
C783 C774 1.390 . S
C783 H776 0.950 . S
C783 C780 1.387 . S
C784 C785 1.387 . S
C784 H788 0.950 . S
C784 C793 1.390 . S
C785 C784 1.387 . S
C785 C787 1.387 . S
H786 C793 0.950 . S
C787 C785 1.387 . S
C787 C789 1.390 . S
C787 H791 0.950 . S
H788 C784 0.950 . S
C789 C787 1.390 . S
C789 C790 1.387 . S
C789 H792 0.950 . S
C790 C789 1.387 . S
C790 C793 1.387 . S
H791 C787 0.950 . S
H792 C789 0.950 . S
C793 C784 1.390 . S
C793 H786 0.950 . S
C793 C790 1.387 . S
C794 C795 1.387 . S
C794 H798 0.950 . S
C794 C803 1.390 . S
C795 C794 1.387 . S
C795 C797 1.387 . S
H796 C803 0.950 . S
C797 C795 1.387 . S
C797 C799 1.390 . S
C797 H801 0.950 . S
H798 C794 0.950 . S
C799 C797 1.390 . S
C799 C800 1.387 . S
C799 H802 0.950 . S
C800 C799 1.387 . S
C800 C803 1.387 . S
H801 C797 0.950 . S
H802 C799 0.950 . S
C803 C794 1.390 . S
C803 H796 0.950 . S
C803 C800 1.387 . S
C804 C805 1.387 . S
C804 H808 0.950 . S
C804 C813 1.390 . S
C805 C804 1.387 . S
C805 C807 1.387 . S
H806 C813 0.950 . S
C807 C805 1.387 . S
C807 C809 1.390 . S
C807 H811 0.950 . S
H808 C804 0.950 . S
C809 C807 1.390 . S
C809 C810 1.387 . S
C809 H812 0.950 . S
C810 C809 1.387 . S
C810 C813 1.387 . S
H811 C807 0.950 . S
H812 C809 0.950 . S
C813 C804 1.390 . S
C813 H806 0.950 . S
C813 C810 1.387 . S
C814 C815 1.387 . S
C814 H818 0.950 . S
C814 C823 1.390 . S
C815 C814 1.387 . S
C815 C817 1.387 . S
H816 C823 0.950 . S
C817 C815 1.387 . S
C817 C819 1.390 . S
C817 H821 0.950 . S
H818 C814 0.950 . S
C819 C817 1.390 . S
C819 C820 1.387 . S
C819 H822 0.950 . S
C820 C819 1.387 . S
C820 C823 1.387 . S
H821 C817 0.950 . S
H822 C819 0.950 . S
C823 C814 1.390 . S
C823 H816 0.950 . S
C823 C820 1.387 . S
C824 C825 1.387 . S
C824 H828 0.950 . S
C824 C833 1.390 . S
C825 C824 1.387 . S
C825 C827 1.387 . S
H826 C833 0.950 . S
C827 C825 1.387 . S
C827 C829 1.390 . S
C827 H831 0.950 . S
H828 C824 0.950 . S
C829 C827 1.390 . S
C829 C830 1.387 . S
C829 H832 0.950 . S
C830 C829 1.387 . S
C830 C833 1.387 . S
H831 C827 0.950 . S
H832 C829 0.950 . S
C833 C824 1.390 . S
C833 H826 0.950 . S
C833 C830 1.387 . S
C834 C835 1.387 . S
C834 H838 0.950 . S
C834 C843 1.390 . S
C835 C834 1.387 . S
C835 C837 1.387 . S
H836 C843 0.950 . S
C837 C835 1.387 . S
C837 C839 1.390 . S
C837 H841 0.950 . S
H838 C834 0.950 . S
C839 C837 1.390 . S
C839 C840 1.387 . S
C839 H842 0.950 . S
C840 C839 1.387 . S
C840 C843 1.387 . S
H841 C837 0.950 . S
H842 C839 0.950 . S
C843 C834 1.390 . S
C843 H836 0.950 . S
C843 C840 1.387 . S
C844 C845 1.387 . S
C844 H848 0.950 . S
C844 C853 1.390 . S
C845 C844 1.387 . S
C845 C847 1.387 . S
H846 C853 0.950 . S
C847 C845 1.387 . S
C847 C849 1.390 . S
C847 H851 0.950 . S
H848 C844 0.950 . S
C849 C847 1.390 . S
C849 C850 1.387 . S
C849 H852 0.950 . S
C850 C849 1.387 . S
C850 C853 1.387 . S
H851 C847 0.950 . S
H852 C849 0.950 . S
C853 C844 1.390 . S
C853 H846 0.950 . S
C853 C850 1.387 . S
C854 C855 1.387 . S
C854 H858 0.950 . S
C854 C863 1.390 . S
C855 C854 1.387 . S
C855 C857 1.387 . S
H856 C863 0.950 . S
C857 C855 1.387 . S
C857 C859 1.390 . S
C857 H861 0.950 . S
H858 C854 0.950 . S
C859 C857 1.390 . S
C859 C860 1.387 . S
C859 H862 0.950 . S
C860 C859 1.387 . S
C860 C863 1.387 . S
H861 C857 0.950 . S
H862 C859 0.950 . S
C863 C854 1.390 . S
C863 H856 0.950 . S
C863 C860 1.387 . S
C864 C865 1.387 . S
C864 H868 0.950 . S
C864 C873 1.390 . S
C865 C864 1.387 . S
C865 C867 1.387 . S
H866 C873 0.950 . S
C867 C865 1.387 . S
C867 C869 1.390 . S
C867 H871 0.950 . S
H868 C864 0.950 . S
C869 C867 1.390 . S
C869 C870 1.387 . S
C869 H872 0.950 . S
C870 C869 1.387 . S
C870 C873 1.387 . S
H871 C867 0.950 . S
H872 C869 0.950 . S
C873 C864 1.390 . S
C873 H866 0.950 . S
C873 C870 1.387 . S
C874 C875 1.387 . S
C874 H878 0.950 . S
C874 C883 1.390 . S
C875 C874 1.387 . S
C875 C877 1.387 . S
H876 C883 0.950 . S
C877 C875 1.387 . S
C877 C879 1.390 . S
C877 H881 0.950 . S
H878 C874 0.950 . S
C879 C877 1.390 . S
C879 C880 1.387 . S
C879 H882 0.950 . S
C880 C879 1.387 . S
C880 C883 1.387 . S
H881 C877 0.950 . S
H882 C879 0.950 . S
C883 C874 1.390 . S
C883 H876 0.950 . S
C883 C880 1.387 . S
C884 C885 1.387 . S
C884 H888 0.950 . S
C884 C893 1.390 . S
C885 C884 1.387 . S
C885 C887 1.387 . S
H886 C893 0.950 . S
C887 C885 1.387 . S
C887 C889 1.390 . S
C887 H891 0.950 . S
H888 C884 0.950 . S
C889 C887 1.390 . S
C889 C890 1.387 . S
C889 H892 0.950 . S
C890 C889 1.387 . S
C890 C893 1.387 . S
H891 C887 0.950 . S
H892 C889 0.950 . S
C893 C884 1.390 . S
C893 H886 0.950 . S
C893 C890 1.387 . S
C894 C895 1.387 1_554 S
C894 H898 0.949 1_554 S
C894 C903 1.391 . S
C895 C894 1.387 1_556 S
C895 C897 1.387 1_556 S
H896 C903 0.950 . S
C897 C895 1.387 1_554 S
C897 C899 1.390 . S
C897 H901 0.950 . S
H898 C894 0.949 1_556 S
C899 C897 1.390 . S
C899 C900 1.387 . S
C899 H902 0.950 . S
C900 C899 1.387 . S
C900 C903 1.387 . S
H901 C897 0.950 . S
H902 C899 0.950 . S
C903 C894 1.391 . S
C903 H896 0.950 . S
C903 C900 1.387 . S
C904 C905 1.387 . S
C904 H908 0.950 . S
C904 C913 1.390 . S
C905 C904 1.387 . S
C905 C907 1.387 . S
H906 C913 0.950 . S
C907 C905 1.387 . S
C907 C909 1.390 . S
C907 H911 0.950 . S
H908 C904 0.950 . S
C909 C907 1.390 . S
C909 C910 1.387 . S
C909 H912 0.950 . S
C910 C909 1.387 . S
C910 C913 1.387 . S
H911 C907 0.950 . S
H912 C909 0.950 . S
C913 C904 1.390 . S
C913 H906 0.950 . S
C913 C910 1.387 . S
C914 C915 1.387 . S
C914 H918 0.950 . S
C914 C923 1.390 . S
C915 C914 1.387 . S
C915 C917 1.387 . S
H916 C923 0.950 . S
C917 C915 1.387 . S
C917 C919 1.390 . S
C917 H921 0.950 . S
H918 C914 0.950 . S
C919 C917 1.390 . S
C919 C920 1.387 . S
C919 H922 0.950 . S
C920 C919 1.387 . S
C920 C923 1.387 . S
H921 C917 0.950 . S
H922 C919 0.950 . S
C923 C914 1.390 . S
C923 H916 0.950 . S
C923 C920 1.387 . S
C924 C925 1.387 . S
C924 H928 0.950 . S
C924 C933 1.390 . S
C925 C924 1.387 . S
C925 C927 1.387 . S
H926 C933 0.950 . S
C927 C925 1.387 . S
C927 C929 1.390 . S
C927 H931 0.950 . S
H928 C924 0.950 . S
C929 C927 1.390 . S
C929 C930 1.387 . S
C929 H932 0.950 . S
C930 C929 1.387 . S
C930 C933 1.387 . S
H931 C927 0.950 . S
H932 C929 0.950 . S
C933 C924 1.390 . S
C933 H926 0.950 . S
C933 C930 1.387 . S
C934 C935 1.387 . S
C934 H938 0.950 . S
C934 C943 1.390 . S
C935 C934 1.387 . S
C935 C937 1.387 . S
H936 C943 0.950 . S
C937 C935 1.387 . S
C937 C939 1.390 . S
C937 H941 0.950 . S
H938 C934 0.950 . S
C939 C937 1.390 . S
C939 C940 1.387 . S
C939 H942 0.950 . S
C940 C939 1.387 . S
C940 C943 1.387 . S
H941 C937 0.950 . S
H942 C939 0.950 . S
C943 C934 1.390 . S
C943 H936 0.950 . S
C943 C940 1.387 . S
C944 C945 1.387 . S
C944 H948 0.950 . S
C944 C953 1.390 . S
C945 C944 1.387 . S
C945 C947 1.387 . S
H946 C953 0.950 . S
C947 C945 1.387 . S
C947 C949 1.390 . S
C947 H951 0.950 . S
H948 C944 0.950 . S
C949 C947 1.390 . S
C949 C950 1.387 . S
C949 H952 0.950 . S
C950 C949 1.387 . S
C950 C953 1.387 . S
H951 C947 0.950 . S
H952 C949 0.950 . S
C953 C944 1.390 . S
C953 H946 0.950 . S
C953 C950 1.387 . S
C954 C955 1.387 . S
C954 H958 0.950 . S
C954 C963 1.390 . S
C955 C954 1.387 . S
C955 C957 1.387 . S
H956 C963 0.950 . S
C957 C955 1.387 . S
C957 C959 1.390 . S
C957 H961 0.950 . S
H958 C954 0.950 . S
C959 C957 1.390 . S
C959 C960 1.387 . S
C959 H962 0.950 . S
C960 C959 1.387 . S
C960 C963 1.387 . S
H961 C957 0.950 . S
H962 C959 0.950 . S
C963 C954 1.390 . S
C963 H956 0.950 . S
C963 C960 1.387 . S
C964 C965 1.387 . S
C964 H968 0.950 . S
C964 C973 1.390 . S
C965 C964 1.387 . S
C965 C967 1.387 . S
H966 C973 0.950 . S
C967 C965 1.387 . S
C967 C969 1.390 . S
C967 H971 0.950 . S
H968 C964 0.950 . S
C969 C967 1.390 . S
C969 C970 1.387 . S
C969 H972 0.950 . S
C970 C969 1.387 . S
C970 C973 1.387 . S
H971 C967 0.950 . S
H972 C969 0.950 . S
C973 C964 1.390 . S
C973 H966 0.950 . S
C973 C970 1.387 . S
C974 C975 1.387 . S
C974 H978 0.950 . S
C974 C983 1.390 . S
C975 C974 1.387 . S
C975 C977 1.387 . S
H976 C983 0.950 . S
C977 C975 1.387 . S
C977 C979 1.390 . S
C977 H981 0.950 . S
H978 C974 0.950 . S
C979 C977 1.390 . S
C979 C980 1.387 . S
C979 H982 0.950 . S
C980 C979 1.387 . S
C980 C983 1.387 . S
H981 C977 0.950 . S
H982 C979 0.950 . S
C983 C974 1.390 . S
C983 H976 0.950 . S
C983 C980 1.387 . S
C984 C985 1.387 . S
C984 H988 0.950 . S
C984 C993 1.390 . S
C985 C984 1.387 . S
C985 C987 1.387 . S
H986 C993 0.950 . S
C987 C985 1.387 . S
C987 C989 1.390 . S
C987 H991 0.950 . S
H988 C984 0.950 . S
C989 C987 1.390 . S
C989 C990 1.387 . S
C989 H992 0.950 . S
C990 C989 1.387 . S
C990 C993 1.387 . S
H991 C987 0.950 . S
H992 C989 0.950 . S
C993 C984 1.390 . S
C993 H986 0.950 . S
C993 C990 1.387 . S
C994 C995 1.387 . S
C994 H998 0.950 . S
C994 C1003 1.390 . S
C995 C994 1.387 . S
C995 C997 1.387 . S
H996 C1003 0.950 . S
C997 C995 1.387 . S
C997 C999 1.390 . S
C997 H1001 0.950 . S
H998 C994 0.950 . S
C999 C997 1.390 . S
C999 C1000 1.387 . S
C999 H1002 0.950 . S
C1000 C999 1.387 . S
C1000 C1003 1.387 . S
H1001 C997 0.950 . S
H1002 C999 0.950 . S
C1003 C994 1.390 . S
C1003 H996 0.950 . S
C1003 C1000 1.387 . S
C1004 C1005 1.387 . S
C1004 H1008 0.950 . S
C1004 C1013 1.390 . S
C1005 C1004 1.387 . S
C1005 C1007 1.387 . S
H1006 C1013 0.950 . S
C1007 C1005 1.387 . S
C1007 C1009 1.390 . S
C1007 H1011 0.950 . S
H1008 C1004 0.950 . S
C1009 C1007 1.390 . S
C1009 C1010 1.387 . S
C1009 H1012 0.950 . S
C1010 C1009 1.387 . S
C1010 C1013 1.387 . S
H1011 C1007 0.950 . S
H1012 C1009 0.950 . S
C1013 C1004 1.390 . S
C1013 H1006 0.950 . S
C1013 C1010 1.387 . S
C1014 C1015 1.387 . S
C1014 H1018 0.950 . S
C1014 C1023 1.388 1_556 S
C1015 C1014 1.387 . S
C1015 C1017 1.387 1_556 S
H1016 C1023 0.949 1_556 S
C1017 C1015 1.387 1_554 S
C1017 C1019 1.390 . S
C1017 H1021 0.950 . S
H1018 C1014 0.950 . S
C1019 C1017 1.390 . S
C1019 C1020 1.387 . S
C1019 H1022 0.950 . S
C1020 C1019 1.387 . S
C1020 C1023 1.390 . S
H1021 C1017 0.950 . S
H1022 C1019 0.950 . S
C1023 C1014 1.388 1_554 S
C1023 H1016 0.949 1_554 S
C1023 C1020 1.390 . S
C710 C593 1.773 . S
C705 C39 1.705 . S
C720 C619 1.669 . S
C715 C125 1.644 . S
C730 C633 2.233 . S
C725 C217 2.075 . S
C740 C635 2.035 . S
C735 C261 1.884 . S
C745 C359 1.513 . S
C750 C632 1.548 . S
C760 C634 1.718 . S
C755 C433 1.531 . S
C770 C592 1.591 . S
C765 C495 1.632 . S
C780 C618 1.709 . S
C775 C587 1.725 . S
C790 C620 1.719 1_655 S
C785 C557 1.720 . S
C800 C646 1.190 . S
C795 C347 1.201 . S
C810 C604 1.220 . S
C805 C421 1.205 . S
C820 C606 1.654 . S
C815 C507 1.610 . S
C830 C605 1.553 . S
C825 C137 1.554 . S
C840 C607 1.696 . S
C835 C187 1.635 . S
C850 C621 2.578 . S
C845 C291 2.515 . S
C860 C647 2.057 . S
C855 C69 2.066 . S
C870 C649 1.475 . S
C865 C581 1.490 . S
C875 C365 1.995 . S
C880 C675 1.962 . S
C885 C439 2.390 . S
C890 C688 2.377 . S
C895 C483 1.548 . S
C900 C691 1.590 . S
C905 C113 1.731 . S
C910 C689 1.757 . S
C915 C211 1.634 . S
C920 C690 1.712 . S
C925 C273 1.453 . S
C930 C648 1.563 . S
C940 C674 1.260 . S
C935 C51 1.244 . S
C950 C677 1.670 . S
C945 C63 1.605 . S
C955 C143 1.788 . S
C960 C702 1.782 . S
C965 C199 1.909 . S
C970 C660 1.916 . S
C975 C285 1.517 . S
C980 C662 1.669 . S
C990 C661 1.690 . S
C985 C335 1.662 . S
C1000 C663 2.096 . S
C995 C409 1.928 . S
C1005 C513 1.931 . S
C1010 C676 1.949 . S
C1020 C703 1.635 . S
C1015 C569 1.635 . S
