# Generated by pormake.
# Topology ptr, (4,4)-cn, num edge types: 1
# Building blocks:
#     Node 0, Type 0, BuildingBlock: TATPOV_clean_sbu_0, # of connection points: 4
#     Node 1, Type 0, BuildingBlock: TATPOV_clean_sbu_0, # of connection points: 4
#     Node 2, Type 0, BuildingBlock: TATPOV_clean_sbu_0, # of connection points: 4
#     Node 3, Type 0, BuildingBlock: TATPOV_clean_sbu_0, # of connection points: 4
#     Node 4, Type 0, BuildingBlock: TATPOV_clean_sbu_0, # of connection points: 4
#     Node 5, Type 0, BuildingBlock: TATPOV_clean_sbu_0, # of connection points: 4
#     Node 6, Type 0, BuildingBlock: TATPOV_clean_sbu_0, # of connection points: 4
#     Node 7, Type 0, BuildingBlock: TATPOV_clean_sbu_0, # of connection points: 4
#     Node 8, Type 0, BuildingBlock: TATPOV_clean_sbu_0, # of connection points: 4
#     Node 9, Type 0, BuildingBlock: TATPOV_clean_sbu_0, # of connection points: 4
#     Node 10, Type 0, BuildingBlock: TATPOV_clean_sbu_0, # of connection points: 4
#     Node 11, Type 0, BuildingBlock: TATPOV_clean_sbu_0, # of connection points: 4
#     Node 12, Type 0, BuildingBlock: TATPOV_clean_sbu_0, # of connection points: 4
#     Node 13, Type 0, BuildingBlock: TATPOV_clean_sbu_0, # of connection points: 4
#     Node 14, Type 0, BuildingBlock: TATPOV_clean_sbu_0, # of connection points: 4
#     Node 15, Type 0, BuildingBlock: TATPOV_clean_sbu_0, # of connection points: 4
#     Node 16, Type 0, BuildingBlock: TATPOV_clean_sbu_0, # of connection points: 4
#     Node 17, Type 0, BuildingBlock: TATPOV_clean_sbu_0, # of connection points: 4
#     Node 18, Type 1, BuildingBlock: MUDLON_clean_linker_0, # of connection points: 4
#     Node 19, Type 1, BuildingBlock: MUDLON_clean_linker_0, # of connection points: 4
#     Node 20, Type 1, BuildingBlock: MUDLON_clean_linker_0, # of connection points: 4
#     Node 21, Type 1, BuildingBlock: MUDLON_clean_linker_0, # of connection points: 4
#     Node 22, Type 1, BuildingBlock: MUDLON_clean_linker_0, # of connection points: 4
#     Node 23, Type 1, BuildingBlock: MUDLON_clean_linker_0, # of connection points: 4
#     Node 24, Type 1, BuildingBlock: MUDLON_clean_linker_0, # of connection points: 4
#     Node 25, Type 1, BuildingBlock: MUDLON_clean_linker_0, # of connection points: 4
#     Node 26, Type 1, BuildingBlock: MUDLON_clean_linker_0, # of connection points: 4
#     Node 27, Type 1, BuildingBlock: MUDLON_clean_linker_0, # of connection points: 4
#     Node 28, Type 1, BuildingBlock: MUDLON_clean_linker_0, # of connection points: 4
#     Node 29, Type 1, BuildingBlock: MUDLON_clean_linker_0, # of connection points: 4
#     Node 30, Type 1, BuildingBlock: MUDLON_clean_linker_0, # of connection points: 4
#     Node 31, Type 1, BuildingBlock: MUDLON_clean_linker_0, # of connection points: 4
#     Node 32, Type 1, BuildingBlock: MUDLON_clean_linker_0, # of connection points: 4
#     Node 33, Type 1, BuildingBlock: MUDLON_clean_linker_0, # of connection points: 4
#     Node 34, Type 1, BuildingBlock: MUDLON_clean_linker_0, # of connection points: 4
#     Node 35, Type 1, BuildingBlock: MUDLON_clean_linker_0, # of connection points: 4
#     Edge 36, Type (0, 1), None
#     Edge 37, Type (0, 1), None
#     Edge 38, Type (0, 1), None
#     Edge 39, Type (0, 1), None
#     Edge 40, Type (0, 1), None
#     Edge 41, Type (0, 1), None
#     Edge 42, Type (0, 1), None
#     Edge 43, Type (0, 1), None
#     Edge 44, Type (0, 1), None
#     Edge 45, Type (0, 1), None
#     Edge 46, Type (0, 1), None
#     Edge 47, Type (0, 1), None
#     Edge 48, Type (0, 1), None
#     Edge 49, Type (0, 1), None
#     Edge 50, Type (0, 1), None
#     Edge 51, Type (0, 1), None
#     Edge 52, Type (0, 1), None
#     Edge 53, Type (0, 1), None
#     Edge 54, Type (0, 1), None
#     Edge 55, Type (0, 1), None
#     Edge 56, Type (0, 1), None
#     Edge 57, Type (0, 1), None
#     Edge 58, Type (0, 1), None
#     Edge 59, Type (0, 1), None
#     Edge 60, Type (0, 1), None
#     Edge 61, Type (0, 1), None
#     Edge 62, Type (0, 1), None
#     Edge 63, Type (0, 1), None
#     Edge 64, Type (0, 1), None
#     Edge 65, Type (0, 1), None
#     Edge 66, Type (0, 1), None
#     Edge 67, Type (0, 1), None
#     Edge 68, Type (0, 1), None
#     Edge 69, Type (0, 1), None
#     Edge 70, Type (0, 1), None
#     Edge 71, Type (0, 1), None
#     Edge 72, Type (0, 1), None
#     Edge 73, Type (0, 1), None
#     Edge 74, Type (0, 1), None
#     Edge 75, Type (0, 1), None
#     Edge 76, Type (0, 1), None
#     Edge 77, Type (0, 1), None
#     Edge 78, Type (0, 1), None
#     Edge 79, Type (0, 1), None
#     Edge 80, Type (0, 1), None
#     Edge 81, Type (0, 1), None
#     Edge 82, Type (0, 1), None
#     Edge 83, Type (0, 1), None
#     Edge 84, Type (0, 1), None
#     Edge 85, Type (0, 1), None
#     Edge 86, Type (0, 1), None
#     Edge 87, Type (0, 1), None
#     Edge 88, Type (0, 1), None
#     Edge 89, Type (0, 1), None
#     Edge 90, Type (0, 1), None
#     Edge 91, Type (0, 1), None
#     Edge 92, Type (0, 1), None
#     Edge 93, Type (0, 1), None
#     Edge 94, Type (0, 1), None
#     Edge 95, Type (0, 1), None
#     Edge 96, Type (0, 1), None
#     Edge 97, Type (0, 1), None
#     Edge 98, Type (0, 1), None
#     Edge 99, Type (0, 1), None
#     Edge 100, Type (0, 1), None
#     Edge 101, Type (0, 1), None
#     Edge 102, Type (0, 1), None
#     Edge 103, Type (0, 1), None
#     Edge 104, Type (0, 1), None
#     Edge 105, Type (0, 1), None
#     Edge 106, Type (0, 1), None
#     Edge 107, Type (0, 1), None
# Relax obj value: 0.057
# Max RMSD: 0.202
# Mean RMSD: 0.109
data_MOF--net-ptr--node1-TATPOV_clean_sbu_0--node2-MUDLON_clean_linker_0--edge1-none
_symmetry_space_group_name_H-M    P1
_symmetry_Int_Tables_number       1
_symmetry_cell_setting            triclinic
loop_
_symmetry_equiv_pos_as_xyz
'x, y, z'
_cell_length_a     62.896124
_cell_length_b     63.71181
_cell_length_c     35.565632
_cell_angle_alpha  89.653301
_cell_angle_beta   90.945662
_cell_angle_gamma 121.49522
loop_
_atom_site_label
_atom_site_type_symbol
_atom_site_fract_x
_atom_site_fract_y
_atom_site_fract_z
_atom_type_partial_charge
Zn0 Zn 0.95529 0.36305 0.00405 0.0
Zn1 Zn 0.00037 0.36661 0.01463 0.0
O2 O 0.97546 0.33213 0.99594 0.0
O3 O 0.93795 0.32642 0.99111 0.0
O4 O 0.02834 0.36252 0.03408 0.0
O5 O 0.95649 0.37541 0.0575 0.0
O6 O -0.00655 0.37976 0.0619 0.0
C7 C 0.9524 0.31825 0.98819 0.0
C8 C -0.00272 0.39583 0.95196 0.0
O9 O 0.01113 0.39015 0.97037 0.0
O10 O 0.97483 0.38731 0.96163 0.0
C11 C 0.01988 0.34419 0.05628 0.0
O12 O -0.00424 0.33104 0.06206 0.0
C13 C 0.97642 0.38216 0.07607 0.0
Zn14 Zn 0.6458 0.59528 0.01434 0.0
Zn15 Zn 0.64578 0.63755 0.02495 0.0
O16 O 0.67937 0.64702 1.00138 0.0
O17 O 0.68157 0.6138 0.99721 0.0
O18 O 0.6501 0.67004 0.04209 0.0
O19 O 0.63678 0.58472 0.06844 0.0
O20 O 0.63545 0.61831 0.07468 0.0
C21 C 0.69123 0.63668 0.99208 0.0
C22 C 0.61051 0.60228 0.96669 0.0
O23 O 0.61834 0.62242 0.98444 0.0
O24 O 0.61903 0.58857 0.97479 0.0
C25 C 0.66968 0.69085 0.03597 0.0
O26 O 0.68673 0.69203 0.01381 0.0
C27 C 0.63272 0.59857 0.08849 0.0
Zn28 Zn 0.33732 0.94191 0.03594 0.0
Zn29 Zn 0.34546 0.98723 0.0215 0.0
O30 O 0.31082 0.96794 0.04507 0.0
O31 O 0.30271 0.9304 0.05501 0.0
O32 O 0.34813 0.01848 1.00308 0.0
O33 O 0.34316 0.93695 0.98141 0.0
O34 O 0.35323 0.97529 0.97286 0.0
C35 C 0.29634 0.94621 0.05715 0.0
C36 C 0.37753 0.98327 0.08078 0.0
O37 O 0.37185 -0.00304 0.0625 0.0
O38 O 0.36637 0.96036 0.07363 0.0
C39 C 0.32878 0.01881 0.9931 0.0
O40 O 0.30667 -0.001 0.99768 0.0
C41 C 0.35119 0.95562 0.96041 0.0
Zn42 Zn 0.03357 0.63184 0.04072 0.0
Zn43 Zn -0.00593 0.63771 0.03152 0.0
O44 O 0.02306 0.67099 0.04985 0.0
O45 O 0.05626 0.66798 0.0542 0.0
O46 O 0.96866 0.6456 0.01239 0.0
O47 O 0.03048 0.61884 0.98758 0.0
O48 O -0.00254 0.62211 0.98374 0.0
C49 C 0.04611 0.68057 0.05785 0.0
C50 C 0.99105 0.60449 0.09333 0.0
O51 O 0.98026 0.61396 0.07571 0.0
O52 O 0.01228 0.60897 0.08306 0.0
C53 C 0.96943 0.66555 0.01928 0.0
O54 O 0.98459 0.68026 0.04577 0.0
C55 C 0.01165 0.6158 0.96924 0.0
Zn56 Zn 0.32464 0.38562 0.02985 0.0
Zn57 Zn 0.32914 0.34642 0.01484 0.0
O58 O 0.29443 0.33148 0.03751 0.0
O59 O 0.28927 0.36253 0.04766 0.0
O60 O 0.32898 0.31642 0.9965 0.0
O61 O 0.33191 0.39746 0.97578 0.0
O62 O 0.33727 0.36649 0.96613 0.0
C63 C 0.28107 0.33966 0.04912 0.0
C64 C 0.36337 0.3827 0.07381 0.0
O65 O 0.35621 0.36289 0.05551 0.0
O66 O 0.35331 0.39525 0.06738 0.0
C67 C 0.31031 0.30251 0.97542 0.0
O68 O 0.29346 0.30845 0.96911 0.0
C69 C 0.3376 0.38552 0.95407 0.0
Zn70 Zn 0.63581 0.02669 1.00066 0.0
Zn71 Zn 0.6405 0.98664 0.00568 0.0
O72 O 0.67286 0.01514 0.98416 0.0
O73 O 0.67138 0.04882 0.98345 0.0
O74 O 0.64971 0.96208 0.0244 0.0
O75 O 0.62574 0.02503 0.05466 0.0
O76 O 0.62633 0.99088 0.05443 0.0
C77 C 0.68299 0.03796 0.97691 0.0
C78 C 0.60305 0.98307 0.95056 0.0
O79 O 0.61373 0.97224 0.96414 0.0
O80 O 0.60919 0.0044 0.96206 0.0
C81 C 0.67193 0.96654 0.02316 0.0
O82 O 0.68838 0.98504 1.00287 0.0
C83 C 0.62161 0.00559 0.07101 0.0
Zn84 Zn 0.62038 0.69339 0.34019 0.0
Zn85 Zn 0.66383 0.69403 0.35209 0.0
O86 O 0.63718 0.65914 0.33719 0.0
O87 O 0.60141 0.65672 0.32741 0.0
O88 O 0.69103 0.68923 0.37173 0.0
O89 O 0.62234 0.70584 0.39403 0.0
O90 O 0.6591 0.70965 0.39819 0.0
C91 C 0.61425 0.64664 0.32777 0.0
C92 C 0.66279 0.72316 0.28748 0.0
O93 O 0.67523 0.71598 0.30631 0.0
O94 O 0.64088 0.71689 0.29728 0.0
C95 C 0.69271 0.67094 0.36236 0.0
O96 O 0.68062 0.65817 0.33226 0.0
C97 C 0.64244 0.71267 0.41216 0.0
Zn98 Zn 0.31359 0.9353 0.33751 0.0
Zn99 Zn 0.31782 0.97879 0.35299 0.0
O100 O 0.35126 0.98761 0.32946 0.0
O101 O 0.34888 0.95245 0.319 0.0
O102 O 0.32352 0.01124 0.3731 0.0
O103 O 0.30554 0.92334 0.39091 0.0
O104 O 0.30665 0.95787 0.4016 0.0
C105 C 0.36093 0.97572 0.31732 0.0
C106 C 0.28041 0.94637 0.29345 0.0
O107 O 0.29076 0.96664 0.31162 0.0
O108 O 0.28643 0.93057 0.30047 0.0
C109 C 0.34386 0.03179 0.36943 0.0
O110 O 0.3614 0.03298 0.3484 0.0
C111 C 0.30292 0.93723 0.41313 0.0
Zn112 Zn 0.00776 0.28937 0.37749 0.0
Zn113 Zn 0.01138 0.33342 0.36957 0.0
O114 O 0.97657 0.31014 0.39005 0.0
O115 O 0.97155 0.27336 0.39325 0.0
O116 O 0.00984 0.36267 0.35214 0.0
O117 O 0.01796 0.28902 0.32348 0.0
O118 O 0.02287 0.32573 0.32104 0.0
C119 C 0.96315 0.2874 0.39803 0.0
C120 C 0.04419 0.33059 0.42774 0.0
O121 O 0.03726 0.34397 0.41154 0.0
O122 O 0.03483 0.30828 0.41781 0.0
C123 C 0.99128 0.35718 0.33059 0.0
O124 O 0.9744 0.33384 0.32485 0.0
C125 C 0.0247 0.30877 0.30573 0.0
Zn126 Zn 0.72301 0.9805 0.36405 0.0
Zn127 Zn 0.67514 0.9683 0.34829 0.0
O128 O 0.69405 0.00342 0.36866 0.0
O129 O 0.73344 0.01562 0.37814 0.0
O130 O 0.64294 0.96476 0.33084 0.0
O131 O 0.7257 0.97128 0.30976 0.0
O132 O 0.68646 0.95991 0.30026 0.0
C133 C 0.71595 0.01995 0.37901 0.0
C134 C 0.68253 0.94229 0.41222 0.0
O135 O 0.66733 0.94444 0.39092 0.0
O136 O 0.70582 0.95483 0.4061 0.0
C137 C 0.64589 0.98299 0.31169 0.0
O138 O 0.66862 0.0016 0.30604 0.0
C139 C 0.70654 0.96223 0.28846 0.0
Zn140 Zn 0.01025 0.72858 0.36949 0.0
Zn141 Zn 0.00652 0.68402 0.36243 0.0
O142 O 0.97379 0.67794 0.38341 0.0
O143 O 0.97403 0.7125 0.38512 0.0
O144 O -0.00087 0.65043 0.34572 0.0
O145 O 0.02143 0.73814 0.31535 0.0
O146 O 0.0207 0.70331 0.31396 0.0
C147 C 0.96298 0.68955 0.39097 0.0
C148 C 0.0421 0.71795 0.42071 0.0
O149 O 0.03261 0.6971 0.40443 0.0
O150 O 0.0358 0.73314 0.41049 0.0
C151 C 0.97692 0.63225 0.34117 0.0
O152 O 0.95821 0.63425 0.352 0.0
C153 C 0.02555 0.72328 0.29821 0.0
Zn154 Zn 0.29934 0.36011 0.32824 0.0
Zn155 Zn 0.30162 0.31889 0.33644 0.0
O156 O 0.335 0.34608 0.31514 0.0
O157 O 0.33528 0.38066 0.31204 0.0
O158 O 0.30911 0.2936 0.35736 0.0
O159 O 0.28856 0.35968 0.38167 0.0
O160 O 0.28772 0.32482 0.38404 0.0
C161 C 0.34608 0.36884 0.30691 0.0
C162 C 0.26609 0.31648 0.27851 0.0
O163 O 0.27523 0.3048 0.29431 0.0
O164 O 0.27325 0.33832 0.28871 0.0
C165 C 0.32976 0.29494 0.35216 0.0
O166 O 0.34472 0.30981 0.32622 0.0
C167 C 0.28359 0.34035 0.39924 0.0
Zn168 Zn 0.2939 0.02677 0.67246 0.0
Zn169 Zn 0.3379 0.02851 0.68405 0.0
O170 O 0.31136 0.99381 0.66757 0.0
O171 O 0.27502 0.99029 0.65883 0.0
O172 O 0.36443 0.02293 0.70518 0.0
O173 O 0.29519 0.03885 0.72611 0.0
O174 O 0.33261 0.04413 0.72971 0.0
C175 C 0.28843 0.98085 0.65826 0.0
C176 C 0.33683 0.05813 0.62067 0.0
O177 O 0.34972 0.05118 0.63887 0.0
O178 O 0.3147 0.05098 0.63053 0.0
C179 C 0.36577 0.00454 0.69518 0.0
O180 O 0.35493 0.99321 0.66354 0.0
C181 C 0.3156 0.04657 0.7438 0.0
Zn182 Zn 0.97999 0.26975 0.67386 0.0
Zn183 Zn 0.98097 0.31219 0.68897 0.0
O184 O 0.01552 0.32349 0.66789 0.0
O185 O 0.01582 0.28972 0.65688 0.0
O186 O 0.98405 0.34355 0.70848 0.0
O187 O 0.97175 0.25808 0.72764 0.0
O188 O 0.97075 0.29161 0.73729 0.0
C189 C 0.02673 0.31298 0.65634 0.0
C190 C 0.94485 0.2779 0.62928 0.0
O191 O 0.95408 0.29813 0.64736 0.0
O192 O 0.95236 0.26323 0.63622 0.0
C193 C 0.0022 0.36509 0.70136 0.0
O194 O 0.01876 0.36789 0.67665 0.0
C195 C 0.96807 0.2715 0.74933 0.0
Zn196 Zn 0.66554 0.60372 0.70147 0.0
Zn197 Zn 0.67222 0.64896 0.69086 0.0
O198 O 0.63753 0.62814 0.71404 0.0
O199 O 0.63033 0.59056 0.71913 0.0
O200 O 0.67405 0.68018 0.67426 0.0
O201 O 0.67254 0.60088 0.64671 0.0
O202 O 0.68039 0.63869 0.64123 0.0
C203 C 0.62332 0.60574 0.72356 0.0
C204 C 0.70492 0.64447 0.74849 0.0
O205 O 0.69904 0.65832 0.73115 0.0
O206 O 0.69392 0.62169 0.74048 0.0
C207 C 0.65457 0.67972 0.66253 0.0
O208 O 0.63282 0.65915 0.66476 0.0
C209 C 0.6796 0.61999 0.6271 0.0
Zn210 Zn 0.3835 0.31591 0.69494 0.0
Zn211 Zn 0.33577 0.30341 0.67942 0.0
O212 O 0.35415 0.33805 0.70203 0.0
O213 O 0.39365 0.35057 0.71108 0.0
O214 O 0.30403 0.30048 0.66099 0.0
O215 O 0.38713 0.30774 0.64054 0.0
O216 O 0.34766 0.29556 0.63135 0.0
C217 C 0.37593 0.3545 0.71303 0.0
C218 C 0.34287 0.27647 0.74176 0.0
O219 O 0.3275 0.27869 0.72094 0.0
O220 O 0.36616 0.28939 0.73574 0.0
C221 C 0.30811 0.31885 0.64112 0.0
O222 O 0.33127 0.33669 0.63582 0.0
C223 C 0.36791 0.29836 0.61936 0.0
Zn224 Zn 0.66696 0.06004 0.68897 0.0
Zn225 Zn 0.6711 0.02055 0.67811 0.0
O226 O 0.63646 0.00667 0.70124 0.0
O227 O 0.63236 0.03861 0.70934 0.0
O228 O 0.67041 0.98974 0.66225 0.0
O229 O 0.67362 0.07033 0.63443 0.0
O230 O 0.67958 0.03949 0.62809 0.0
C231 C 0.62387 0.01578 0.71262 0.0
C232 C 0.7051 0.05825 0.73558 0.0
O233 O 0.69816 0.03793 0.71893 0.0
O234 O 0.69535 0.07074 0.72669 0.0
C235 C 0.6515 0.9754 0.64187 0.0
O236 O 0.63485 0.98149 0.63472 0.0
C237 C 0.67967 0.05803 0.61426 0.0
Zn238 Zn 0.98726 0.72444 0.68091 0.0
Zn239 Zn 0.97919 0.67872 0.6921 0.0
O240 O 0.01388 0.69875 0.66897 0.0
O241 O 0.02216 0.73662 0.66252 0.0
O242 O 0.97712 0.64737 0.70796 0.0
O243 O 0.98063 0.72751 0.73586 0.0
O244 O 0.97149 0.6893 0.7418 0.0
C245 C 0.02852 0.72089 0.65867 0.0
C246 C 0.94722 0.68402 0.63437 0.0
O247 O 0.95257 0.66985 0.65189 0.0
O248 O 0.95869 0.70685 0.6422 0.0
C249 C -0.00411 0.64996 0.72629 0.0
O250 O 0.01533 0.67225 0.73148 0.0
C251 C 0.97301 0.7084 0.7557 0.0
H252 H 0.21514 0.3213 0.1884 0.0
N253 N 0.2013 0.27943 0.14821 0.0
H254 H 0.24233 0.3365 0.24302 0.0
H255 H 0.22097 0.25679 0.18613 0.0
H256 H 0.24878 0.27216 0.24186 0.0
H257 H 0.22516 0.26474 0.1044 0.0
H258 H 0.25939 0.29014 0.06172 0.0
H259 H 0.21573 0.32613 0.12409 0.0
H260 H 0.24969 0.35146 0.08195 0.0
H261 H 0.17172 0.27205 0.20909 0.0
H262 H 0.17459 0.28281 0.08862 0.0
H263 H 0.13855 0.28077 0.21246 0.0
H264 H 0.14092 0.29103 0.0924 0.0
H265 H 0.07327 0.36119 0.2104 0.0
H266 H 0.05033 0.35247 0.26883 0.0
H267 H 0.02682 0.27566 0.25902 0.0
H268 H 0.04936 0.28455 0.19981 0.0
H269 H 0.03161 0.29512 0.13941 0.0
H270 H 0.00731 0.30155 0.09175 0.0
H271 H 0.0695 0.37539 0.07342 0.0
H272 H 0.09377 0.36874 0.12172 0.0
H273 H 0.12021 0.34379 0.20165 0.0
H274 H 0.14598 0.32554 0.19688 0.0
H275 H 0.09365 0.27264 0.1163 0.0
N276 N 0.07741 0.32995 0.16686 0.0
H277 H 0.06742 0.29036 0.12203 0.0
C278 C 0.2159 0.28776 0.18291 0.0
C279 C 0.22225 0.31031 0.1997 0.0
C280 C 0.23784 0.31897 0.23126 0.0
C281 C 0.24789 0.30561 0.24684 0.0
C282 C 0.24129 0.28286 0.2306 0.0
C283 C 0.22543 0.27406 0.19884 0.0
C284 C 0.21786 0.29335 0.11774 0.0
C285 C 0.23003 0.28346 0.09878 0.0
C286 C 0.24963 0.29805 0.0745 0.0
C287 C 0.2575 0.32296 0.06879 0.0
C288 C 0.24425 0.33242 0.08585 0.0
C289 C 0.22478 0.31789 0.11018 0.0
C290 C 0.17822 0.27982 0.14917 0.0
C291 C 0.16567 0.27661 0.18331 0.0
C292 C 0.14638 0.28126 0.18532 0.0
C293 C 0.13807 0.28765 0.15293 0.0
C294 C 0.14759 0.28686 0.11795 0.0
C295 C 0.16718 0.28254 0.11599 0.0
C296 C 0.06344 0.32374 0.20117 0.0
C297 C 0.06309 0.34248 0.22085 0.0
C298 C 0.04984 0.33739 0.25411 0.0
C299 C 0.03681 0.31334 0.2687 0.0
C300 C 0.03676 0.29437 0.24861 0.0
C301 C 0.04976 0.29946 0.21488 0.0
C302 C 0.06442 0.33162 0.13434 0.0
C303 C 0.04021 0.3125 0.12465 0.0
C304 C 0.02635 0.31625 0.09742 0.0
C305 C 0.03643 0.33911 0.07925 0.0
C306 C 0.06128 0.3576 0.08695 0.0
C307 C 0.07512 0.35386 0.11448 0.0
C308 C 0.0921 0.3188 0.16201 0.0
C309 C 0.11428 0.32824 0.18302 0.0
C310 C 0.12883 0.31771 0.18046 0.0
C311 C 0.12165 0.29766 0.15635 0.0
C312 C 0.09951 0.28813 0.13503 0.0
C313 C 0.0846 0.29838 0.13823 0.0
H314 H 0.72133 0.75576 0.19218 0.0
N315 N 0.69714 0.76776 0.14294 0.0
H316 H 0.70746 0.73725 0.25446 0.0
H317 H 0.65396 0.75729 0.1776 0.0
H318 H 0.6402 0.73927 0.23918 0.0
H319 H 0.64942 0.73003 0.12572 0.0
H320 H 0.63798 0.69711 0.08015 0.0
H321 H 0.72602 0.76584 0.09148 0.0
H322 H 0.71466 0.7335 0.04489 0.0
H323 H 0.73796 0.81188 0.14924 0.0
H324 H 0.66011 0.77528 0.1185 0.0
H325 H 0.74145 0.85173 0.14389 0.0
H326 H 0.66262 0.81478 0.11645 0.0
H327 H 0.74644 0.96915 0.17596 0.0
H328 H 0.74584 0.98238 0.24053 0.0
H329 H 0.66881 0.92383 0.24941 0.0
H330 H 0.67009 0.90978 0.18602 0.0
H331 H 0.66101 0.91786 0.12752 0.0
H332 H 0.645 0.93264 0.07775 0.0
H333 H 0.7188 0.97431 0.03088 0.0
H334 H 0.73468 0.95971 0.08137 0.0
H335 H 0.73479 0.91533 0.17971 0.0
H336 H 0.73131 0.87566 0.17783 0.0
H337 H 0.67613 0.85246 0.08826 0.0
N338 N 0.7098 0.93089 0.13869 0.0
H339 H 0.67817 0.89131 0.09224 0.0
C340 C 0.6888 0.75789 0.18007 0.0
C341 C 0.7037 0.75233 0.20256 0.0
C342 C 0.69578 0.74187 0.23814 0.0
C343 C 0.67271 0.73679 0.25186 0.0
C344 C 0.65811 0.74299 0.22963 0.0
C345 C 0.666 0.75335 0.19412 0.0
C346 C 0.68882 0.75015 0.11263 0.0
C347 C 0.66375 0.73106 0.10807 0.0
C348 C 0.65718 0.71224 0.08183 0.0
C349 C 0.67545 0.71249 0.0592 0.0
C350 C 0.70011 0.73263 0.06193 0.0
C351 C 0.70669 0.75115 0.08855 0.0
C352 C 0.69878 0.79072 0.13509 0.0
C353 C 0.72161 0.81255 0.14138 0.0
C354 C 0.72341 0.83527 0.13884 0.0
C355 C 0.70215 0.83662 0.13082 0.0
C356 C 0.67944 0.81463 0.12267 0.0
C357 C 0.67785 0.79191 0.12427 0.0
C358 C 0.70818 0.93896 0.17581 0.0
C359 C 0.72944 0.9593 0.19188 0.0
C360 C 0.72911 0.9667 0.22873 0.0
C361 C 0.70724 0.9542 0.24982 0.0
C362 C 0.68583 0.93397 0.23357 0.0
C363 C 0.68642 0.92611 0.19716 0.0
C364 C 0.6993 0.93824 0.1087 0.0
C365 C 0.6738 0.93031 0.1068 0.0
C366 C 0.66456 0.9385 0.07788 0.0
C367 C 0.6806 0.95474 0.05034 0.0
C368 C 0.70588 0.96183 0.0516 0.0
C369 C 0.71507 0.95366 0.08052 0.0
C370 C 0.70652 0.90662 0.13689 0.0
C371 C 0.7216 0.90158 0.16006 0.0
C372 C 0.71988 0.8789 0.15845 0.0
C373 C 0.70358 0.86072 0.13259 0.0
C374 C 0.68861 0.86575 0.109 0.0
C375 C 0.6899 0.88831 0.11123 0.0
H376 H 0.07682 0.71813 0.21164 0.0
N377 N 0.08676 0.75587 0.16781 0.0
H378 H 0.05026 0.70351 0.26668 0.0
H379 H 0.05702 0.77265 0.19184 0.0
H380 H 0.03108 0.75882 0.2481 0.0
H381 H 0.04588 0.7428 0.12387 0.0
H382 H 0.02891 0.71092 0.07531 0.0
H383 H 0.11004 0.73576 0.13672 0.0
H384 H 0.09326 0.70364 0.08841 0.0
H385 H 0.12676 0.78396 0.20974 0.0
H386 H 0.0818 0.78688 0.11947 0.0
H387 H 0.15432 0.82869 0.20738 0.0
H388 H 0.1098 0.8318 0.11626 0.0
H389 H 0.22692 0.89628 0.19889 0.0
H390 H 0.25205 0.90345 0.25508 0.0
H391 H 0.26941 0.97862 0.25937 0.0
H392 H 0.24394 0.9712 0.20211 0.0
H393 H 0.24702 0.9697 0.11777 0.0
H394 H 0.27933 0.97698 0.07293 0.0
H395 H 0.26311 0.90288 0.09105 0.0
H396 H 0.23104 0.8958 0.13524 0.0
H397 H 0.18736 0.90856 0.21808 0.0
H398 H 0.15081 0.86718 0.21874 0.0
H399 H 0.157 0.86071 0.09937 0.0
N400 N 0.22035 0.93 0.16046 0.0
H401 H 0.1936 0.90212 0.09829 0.0
C402 C 0.06926 0.74667 0.19814 0.0
C403 C 0.06655 0.7268 0.21914 0.0
C404 C 0.05131 0.71848 0.2505 0.0
C405 C 0.03874 0.73019 0.26197 0.0
C406 C 0.04069 0.74957 0.24009 0.0
C407 C 0.05556 0.75753 0.20805 0.0
C408 C 0.07902 0.74126 0.13408 0.0
C409 C 0.05662 0.73483 0.11535 0.0
C410 C 0.04696 0.71656 0.08762 0.0
C411 C 0.05946 0.70431 0.07847 0.0
C412 C 0.08304 0.71252 0.09488 0.0
C413 C 0.09267 0.73083 0.12252 0.0
C414 C 0.10258 0.78214 0.16455 0.0
C415 C 0.12294 0.79433 0.18937 0.0
C416 C 0.13845 0.81982 0.1882 0.0
C417 C 0.134 0.83363 0.16183 0.0
C418 C 0.11354 0.82149 0.13684 0.0
C419 C 0.09768 0.79587 0.13851 0.0
C420 C 0.23364 0.93334 0.19585 0.0
C421 C 0.23607 0.91435 0.21168 0.0
C422 C 0.25037 0.91845 0.24418 0.0
C423 C 0.26285 0.94166 0.26174 0.0
C424 C 0.25993 0.96049 0.24664 0.0
C425 C 0.24548 0.95633 0.21391 0.0
C426 C 0.23669 0.9324 0.13023 0.0
C427 C 0.25015 0.95493 0.11141 0.0
C428 C 0.26857 0.959 0.08578 0.0
C429 C 0.27395 0.94055 0.0786 0.0
C430 C 0.25955 0.91753 0.09598 0.0
C431 C 0.24126 0.91353 0.12162 0.0
C432 C 0.19555 0.9076 0.15905 0.0
C433 C 0.18124 0.89834 0.19191 0.0
C434 C 0.16008 0.87473 0.19232 0.0
C435 C 0.15194 0.86042 0.15946 0.0
C436 C 0.16343 0.87115 0.12535 0.0
C437 C 0.18476 0.89476 0.12499 0.0
H438 H 0.35308 0.26505 0.8673 0.0
N439 N 0.30554 0.22741 0.88213 0.0
H440 H 0.36893 0.28447 0.80695 0.0
H441 H 0.28099 0.21584 0.81651 0.0
H442 H 0.29654 0.23639 0.75566 0.0
H443 H 0.26986 0.2368 0.8926 0.0
H444 H 0.27147 0.26879 0.93209 0.0
H445 H 0.34269 0.25585 0.93349 0.0
H446 H 0.34467 0.28821 0.97303 0.0
H447 H 0.35072 0.23031 0.88868 0.0
H448 H 0.27168 0.18258 0.90511 0.0
H449 H 0.35666 0.19627 0.89852 0.0
H450 H 0.27769 0.14833 0.91851 0.0
H451 H 0.36783 0.10327 0.83384 0.0
H452 H 0.35945 0.08428 0.77131 0.0
H453 H 0.28224 0.03543 0.79991 0.0
H454 H 0.29101 0.05343 0.86292 0.0
H455 H 0.29495 0.05867 0.92922 0.0
H456 H 0.29192 0.02762 0.9734 0.0
H457 H 0.37094 0.05684 0.96234 0.0
H458 H 0.3735 0.08733 0.91753 0.0
H459 H 0.36593 0.13384 0.92377 0.0
H460 H 0.35809 0.16704 0.93426 0.0
H461 H 0.28451 0.12209 0.8841 0.0
N462 N 0.33627 0.09102 0.8899 0.0
H463 H 0.29174 0.0887 0.87712 0.0
C464 C 0.31583 0.2386 0.84636 0.0
C465 C 0.34074 0.25801 0.84304 0.0
C466 C 0.34982 0.26917 0.80835 0.0
C467 C 0.33402 0.26177 0.77649 0.0
C468 C 0.30917 0.2423 0.77971 0.0
C469 C 0.30027 0.23064 0.81433 0.0
C470 C 0.30607 0.244 0.90994 0.0
C471 C 0.28602 0.24766 0.91067 0.0
C472 C 0.28707 0.26604 0.93313 0.0
C473 C 0.30835 0.28126 0.95538 0.0
C474 C 0.32806 0.27684 0.95609 0.0
C475 C 0.32695 0.25835 0.93348 0.0
C476 C 0.31049 0.20884 0.89485 0.0
C477 C 0.3346 0.2126 0.89509 0.0
C478 C 0.33805 0.19295 0.90142 0.0
C479 C 0.3176 0.16921 0.90872 0.0
C480 C 0.29381 0.16608 0.91176 0.0
C481 C 0.29033 0.18567 0.90453 0.0
C482 C 0.33009 0.08021 0.85283 0.0
C483 C 0.3491 0.08856 0.82649 0.0
C484 C 0.34428 0.07769 0.79095 0.0
C485 C 0.32014 0.05856 0.78082 0.0
C486 C 0.30092 0.0504 0.8069 0.0
C487 C 0.30594 0.06079 0.84291 0.0
C488 C 0.33442 0.07492 0.91974 0.0
C489 C 0.31158 0.05842 0.93655 0.0
C490 C 0.30994 0.04079 0.96189 0.0
C491 C 0.33116 0.03963 0.97105 0.0
C492 C 0.35425 0.05721 0.95587 0.0
C493 C 0.35578 0.07459 0.93027 0.0
C494 C 0.32985 0.10906 0.89864 0.0
C495 C 0.34798 0.13114 0.91571 0.0
C496 C 0.34349 0.15015 0.92135 0.0
C497 C 0.32085 0.14764 0.90922 0.0
C498 C 0.30214 0.12486 0.8941 0.0
C499 C 0.30645 0.10566 0.88939 0.0
H500 H 0.73463 0.1004 0.84762 0.0
N501 N 0.76238 0.08103 0.87243 0.0
H502 H 0.71166 0.0914 0.78901 0.0
H503 H 0.7608 0.05245 0.81674 0.0
H504 H 0.73638 0.04218 0.75772 0.0
H505 H 0.74197 0.03664 0.90229 0.0
H506 H 0.70808 0.01773 0.94713 0.0
H507 H 0.74478 0.10541 0.91346 0.0
H508 H 0.71094 0.08671 0.95789 0.0
H509 H 0.77241 0.12869 0.86843 0.0
H510 H 0.80576 0.08503 0.88717 0.0
H511 H 0.81246 0.16593 0.87724 0.0
H512 H 0.84674 0.12277 0.89396 0.0
H513 H 0.93051 0.27414 0.85837 0.0
H514 H 0.94725 0.2891 0.79652 0.0
H515 H 0.96911 0.23524 0.78963 0.0
H516 H 0.95279 0.22063 0.85277 0.0
H517 H 0.96799 0.25958 0.94391 0.0
H518 H 0.97788 0.29452 0.98418 0.0
H519 H 0.90781 0.28746 0.95208 0.0
H520 H 0.89803 0.25248 0.91218 0.0
H521 H 0.8905 0.22763 0.8508 0.0
H522 H 0.85014 0.18982 0.84562 0.0
H523 H 0.87196 0.15736 0.93368 0.0
N524 N 0.92963 0.23587 0.89675 0.0
H525 H 0.91314 0.19516 0.93716 0.0
C526 C 0.75 0.07748 0.83646 0.0
C527 C 0.73606 0.08842 0.82788 0.0
C528 C 0.72266 0.08306 0.79414 0.0
C529 C 0.72223 0.0661 0.76855 0.0
C530 C 0.73643 0.05539 0.7768 0.0
C531 C 0.75035 0.06123 0.81039 0.0
C532 C 0.74585 0.07229 0.90402 0.0
C533 C 0.7357 0.04781 0.91513 0.0
C534 C 0.71633 0.03707 0.94085 0.0
C535 C 0.7066 0.05065 0.95589 0.0
C536 C 0.71789 0.07569 0.94667 0.0
C537 C 0.73736 0.08644 0.92102 0.0
C538 C 0.7859 0.10378 0.87742 0.0
C539 C 0.78824 0.12692 0.87444 0.0
C540 C 0.81143 0.14845 0.87909 0.0
C541 C 0.83293 0.14744 0.8861 0.0
C542 C 0.83055 0.12428 0.88914 0.0
C543 C 0.80722 0.1027 0.88499 0.0
C544 C 0.94068 0.24631 0.8608 0.0
C545 C 0.93932 0.26576 0.84425 0.0
C546 C 0.94887 0.27432 0.80855 0.0
C547 C 0.95953 0.26337 0.78814 0.0
C548 C 0.961 0.24405 0.80465 0.0
C549 C 0.95177 0.23573 0.8407 0.0
C550 C 0.93255 0.25357 0.92471 0.0
C551 C 0.95455 0.26524 0.94631 0.0
C552 C 0.96011 0.28519 0.96925 0.0
C553 C 0.94375 0.29399 0.97088 0.0
C554 C 0.92079 0.28115 0.95142 0.0
C555 C 0.91521 0.2611 0.92848 0.0
C556 C 0.90505 0.21409 0.89413 0.0
C557 C 0.88677 0.21239 0.86883 0.0
C558 C 0.86349 0.19075 0.8662 0.0
C559 C 0.85774 0.17048 0.88925 0.0
C560 C 0.87589 0.17244 0.91505 0.0
C561 C 0.89933 0.19403 0.91732 0.0
H562 H 0.76333 0.70824 0.82555 0.0
N563 N 0.7665 0.68195 0.88142 0.0
H564 H 0.73711 0.69279 0.76845 0.0
H565 H 0.7383 0.63368 0.85846 0.0
H566 H 0.71289 0.61829 0.80171 0.0
H567 H 0.7548 0.64062 0.92212 0.0
H568 H 0.72265 0.62152 0.96981 0.0
H569 H 0.74314 0.70141 0.9141 0.0
H570 H 0.71121 0.68269 0.96208 0.0
H571 H 0.80666 0.71975 0.91287 0.0
H572 H 0.78107 0.64992 0.85872 0.0
H573 H 0.84806 0.72555 0.92141 0.0
H574 H 0.82229 0.65614 0.8651 0.0
H575 H 0.97637 0.74372 0.87151 0.0
H576 H 0.99196 0.74547 0.80784 0.0
H577 H 0.93393 0.66957 0.78986 0.0
H578 H 0.91747 0.66848 0.85191 0.0
H579 H 0.92814 0.65884 0.90715 0.0
H580 H 0.94116 0.6418 0.95699 0.0
H581 H 0.97235 0.71002 0.01915 0.0
H582 H 0.95901 0.72709 0.96855 0.0
H583 H 0.92538 0.74019 0.89341 0.0
H584 H 0.88389 0.73447 0.88799 0.0
H585 H 0.85091 0.65659 0.90857 0.0
N586 N 0.93686 0.70602 0.90365 0.0
H587 H 0.89218 0.6623 0.91174 0.0
C588 C 0.75303 0.6723 0.84626 0.0
C589 C 0.7526 0.68862 0.8201 0.0
C590 C 0.7376 0.67975 0.78759 0.0
C591 C 0.72291 0.6543 0.78051 0.0
C592 C 0.72408 0.63802 0.8061 0.0
C593 C 0.73872 0.64686 0.83876 0.0
C594 C 0.75107 0.67234 0.91414 0.0
C595 C 0.7457 0.65014 0.9312 0.0
C596 C 0.72734 0.63926 0.9586 0.0
C597 C 0.71416 0.65045 0.96959 0.0
C598 C 0.72097 0.67355 0.95446 0.0
C599 C 0.73916 0.68428 0.92691 0.0
C600 C 0.79072 0.68467 0.88479 0.0
C601 C 0.81005 0.70583 0.90244 0.0
C602 C 0.83371 0.70915 0.90707 0.0
C603 C 0.83863 0.69136 0.89381 0.0
C604 C 0.81917 0.67008 0.87621 0.0
C605 C 0.79544 0.66663 0.87207 0.0
C606 C 0.94624 0.70585 0.86697 0.0
C607 C 0.96716 0.72747 0.85381 0.0
C608 C 0.97597 0.72846 0.81756 0.0
C609 C 0.96431 0.70755 0.79426 0.0
C610 C 0.94353 0.68581 0.80757 0.0
C611 C 0.93424 0.6851 0.84326 0.0
C612 C 0.94299 0.69461 0.93366 0.0
C613 C 0.93761 0.67025 0.93135 0.0
C614 C 0.94493 0.66034 0.96026 0.0
C615 C 0.95793 0.67456 0.99206 0.0
C616 C 0.96236 0.69853 0.99507 0.0
C617 C 0.95492 0.70839 0.96612 0.0
C618 C 0.91203 0.70187 0.90335 0.0
C619 C 0.90912 0.72194 0.89693 0.0
C620 C 0.88539 0.71862 0.89408 0.0
C621 C 0.86395 0.69504 0.8979 0.0
C622 C 0.86693 0.67495 0.90486 0.0
C623 C 0.89068 0.67825 0.90717 0.0
H624 H 0.67634 0.58688 0.50939 0.0
N625 N 0.7171 0.62446 0.47953 0.0
H626 H 0.66019 0.58418 0.57297 0.0
H627 H 0.73689 0.66074 0.5334 0.0
H628 H 0.71986 0.65879 0.59532 0.0
H629 H 0.72448 0.67121 0.4803 0.0
H630 H 0.71547 0.69097 0.42974 0.0
H631 H 0.69961 0.60685 0.41107 0.0
H632 H 0.69028 0.62673 0.35964 0.0
H633 H 0.7284 0.59018 0.49042 0.0
H634 H 0.76188 0.66813 0.4721 0.0
H635 H 0.76984 0.59574 0.49546 0.0
H636 H 0.80298 0.67363 0.47443 0.0
H637 H 0.88895 0.62085 0.55648 0.0
H638 H 0.9145 0.63587 0.61426 0.0
H639 H 0.94045 0.71071 0.58068 0.0
H640 H 0.91571 0.69576 0.52336 0.0
H641 H 0.90113 0.68972 0.46019 0.0
H642 H 0.93392 0.70769 0.41314 0.0
H643 H 0.9396 0.64294 0.4191 0.0
H644 H 0.90751 0.62569 0.46685 0.0
H645 H 0.84648 0.60977 0.4695 0.0
H646 H 0.80516 0.60421 0.46162 0.0
H647 H 0.83202 0.67433 0.51641 0.0
N648 N 0.88691 0.64754 0.5003 0.0
H649 H 0.87317 0.68037 0.52172 0.0
C650 C 0.70734 0.62418 0.5161 0.0
C651 C 0.68579 0.60266 0.52801 0.0
C652 C 0.67666 0.60111 0.56421 0.0
C653 C 0.68863 0.6214 0.58867 0.0
C654 C 0.71004 0.64306 0.57665 0.0
C655 C 0.71966 0.64426 0.54106 0.0
C656 C 0.71214 0.63707 0.44997 0.0
C657 C 0.71701 0.66115 0.45436 0.0
C658 C 0.71211 0.67269 0.42499 0.0
C659 C 0.70209 0.66045 0.39059 0.0
C660 C 0.69808 0.63675 0.38571 0.0
C661 C 0.70311 0.62524 0.41516 0.0
C662 C 0.74189 0.62853 0.48047 0.0
C663 C 0.74469 0.6084 0.48687 0.0
C664 C 0.76839 0.61163 0.48944 0.0
C665 C 0.78985 0.63515 0.48521 0.0
C666 C 0.78696 0.65531 0.47845 0.0
C667 C 0.76328 0.65212 0.47659 0.0
C668 C 0.90023 0.657 0.53557 0.0
C669 C 0.89994 0.64046 0.56199 0.0
C670 C 0.91452 0.64908 0.5949 0.0
C671 C 0.92949 0.6745 0.60208 0.0
C672 C 0.92903 0.69101 0.57621 0.0
C673 C 0.9148 0.68241 0.54317 0.0
C674 C 0.9024 0.65658 0.46764 0.0
C675 C 0.90925 0.67931 0.45098 0.0
C676 C 0.92789 0.6895 0.42388 0.0
C677 C 0.93965 0.67694 0.4127 0.0
C678 C 0.93108 0.65324 0.42709 0.0
C679 C 0.91277 0.6433 0.45446 0.0
C680 C 0.86291 0.6452 0.49661 0.0
C681 C 0.84335 0.62392 0.47962 0.0
C682 C 0.81973 0.62073 0.47543 0.0
C683 C 0.81513 0.63874 0.48861 0.0
C684 C 0.83488 0.6602 0.5054 0.0
C685 C 0.85857 0.66355 0.50894 0.0
H686 H 0.39514 0.09492 0.52546 0.0
N687 N 0.36996 0.10729 0.47873 0.0
H688 H 0.38171 0.0742 0.58649 0.0
H689 H 0.32679 0.09505 0.51531 0.0
H690 H 0.31356 0.07499 0.57552 0.0
H691 H 0.32261 0.06921 0.46079 0.0
H692 H 0.31176 0.03703 0.41417 0.0
H693 H 0.39945 0.10624 0.42741 0.0
H694 H 0.38871 0.07446 0.37998 0.0
H695 H 0.40891 0.15269 0.48486 0.0
H696 H 0.33064 0.11187 0.45603 0.0
H697 H 0.40956 0.19116 0.47922 0.0
H698 H 0.33028 0.14984 0.45411 0.0
H699 H 0.40709 0.30553 0.50602 0.0
H700 H 0.40641 0.31957 0.57002 0.0
H701 H 0.33103 0.25823 0.58232 0.0
H702 H 0.33251 0.24341 0.5196 0.0
H703 H 0.32235 0.25208 0.46214 0.0
H704 H 0.30478 0.26434 0.41115 0.0
H705 H 0.37669 0.30259 0.35791 0.0
H706 H 0.39425 0.29072 0.40976 0.0
H707 H 0.3997 0.25336 0.51105 0.0
H708 H 0.39875 0.21486 0.5111 0.0
H709 H 0.34022 0.1861 0.42596 0.0
N710 N 0.37142 0.26537 0.47094 0.0
H711 H 0.33963 0.22369 0.42866 0.0
C712 C 0.36215 0.09665 0.51564 0.0
C713 C 0.37744 0.09079 0.53658 0.0
C714 C 0.36976 0.07903 0.57143 0.0
C715 C 0.34654 0.07291 0.58593 0.0
C716 C 0.33158 0.07944 0.56533 0.0
C717 C 0.33921 0.09105 0.53058 0.0
C718 C 0.36206 0.08996 0.44807 0.0
C719 C 0.33712 0.07066 0.44308 0.0
C720 C 0.3309 0.05225 0.41627 0.0
C721 C 0.34941 0.05299 0.39364 0.0
C722 C 0.37398 0.07322 0.39702 0.0
C723 C 0.3802 0.09141 0.42409 0.0
C724 C 0.36974 0.12946 0.47172 0.0
C725 C 0.39182 0.15211 0.47754 0.0
C726 C 0.39199 0.17405 0.47485 0.0
C727 C 0.36981 0.17383 0.46724 0.0
C728 C 0.34781 0.151 0.45991 0.0
C729 C 0.34787 0.12909 0.46151 0.0
C730 C 0.36966 0.27388 0.50764 0.0
C731 C 0.39042 0.29525 0.52255 0.0
C732 C 0.39005 0.30313 0.55905 0.0
C733 C 0.36861 0.29008 0.58091 0.0
C734 C 0.34768 0.26881 0.56582 0.0
C735 C 0.34837 0.26049 0.52981 0.0
C736 C 0.35994 0.27116 0.44036 0.0
C737 C 0.33444 0.26327 0.4398 0.0
C738 C 0.32427 0.27002 0.41022 0.0
C739 C 0.33931 0.28454 0.38046 0.0
C740 C 0.36451 0.29139 0.38031 0.0
C741 C 0.37467 0.28481 0.41003 0.0
C742 C 0.36965 0.24175 0.47039 0.0
C743 C 0.38635 0.23862 0.49282 0.0
C744 C 0.38606 0.21659 0.49228 0.0
C745 C 0.3696 0.19718 0.46816 0.0
C746 C 0.35292 0.20032 0.44542 0.0
C747 C 0.35273 0.22217 0.44677 0.0
H748 H 0.72452 0.06099 0.51041 0.0
N749 N 0.7218 0.09652 0.46957 0.0
H750 H 0.70596 0.04452 0.57099 0.0
H751 H 0.69261 0.10672 0.50881 0.0
H752 H 0.67445 0.09069 0.5706 0.0
H753 H 0.68619 0.06864 0.41999 0.0
H754 H 0.68344 0.03611 0.38028 0.0
H755 H 0.75924 0.08683 0.45887 0.0
H756 H 0.7567 0.05458 0.41932 0.0
H757 H 0.76065 0.10902 0.51897 0.0
H758 H 0.73469 0.13701 0.43029 0.0
H759 H 0.79866 0.14927 0.52571 0.0
H760 H 0.77291 0.17764 0.43699 0.0
H761 H 0.89357 0.22695 0.53308 0.0
H762 H 0.92008 0.23542 0.58834 0.0
H763 H 0.92838 0.3069 0.59931 0.0
H764 H 0.90169 0.29819 0.54328 0.0
H765 H 0.90738 0.30099 0.46095 0.0
H766 H 0.94161 0.31354 0.41732 0.0
H767 H 0.93132 0.24103 0.42499 0.0
H768 H 0.89697 0.22863 0.46797 0.0
H769 H 0.85043 0.23026 0.55418 0.0
H770 H 0.81127 0.19146 0.54696 0.0
H771 H 0.81807 0.19744 0.42632 0.0
N772 N 0.88258 0.25877 0.49838 0.0
H773 H 0.85724 0.23639 0.43311 0.0
C774 C 0.70975 0.08506 0.50455 0.0
C775 C 0.71322 0.06729 0.52266 0.0
C776 C 0.70257 0.05784 0.55757 0.0
C777 C 0.68871 0.06628 0.57563 0.0
C778 C 0.68503 0.0838 0.55741 0.0
C779 C 0.69534 0.09296 0.52214 0.0
C780 C 0.7227 0.08012 0.44261 0.0
C781 C 0.70184 0.06597 0.41932 0.0
C782 C 0.70034 0.04741 0.39667 0.0
C783 C 0.71979 0.04262 0.3969 0.0
C784 C 0.74143 0.05783 0.41842 0.0
C785 C 0.74287 0.07635 0.44118 0.0
C786 C 0.74465 0.12005 0.47417 0.0
C787 C 0.76302 0.12386 0.50109 0.0
C788 C 0.78475 0.14694 0.50502 0.0
C789 C 0.78869 0.16664 0.48204 0.0
C790 C 0.77045 0.16276 0.45494 0.0
C791 C 0.74863 0.13966 0.45115 0.0
C792 C 0.89567 0.26204 0.53385 0.0
C793 C 0.90092 0.24439 0.5474 0.0
C794 C 0.91607 0.24926 0.57921 0.0
C795 C 0.92654 0.27194 0.59818 0.0
C796 C 0.92061 0.28924 0.58541 0.0
C797 C 0.90536 0.28432 0.55348 0.0
C798 C 0.89984 0.2641 0.46816 0.0
C799 C 0.91219 0.2877 0.45248 0.0
C800 C 0.93174 0.29479 0.42757 0.0
C801 C 0.93943 0.27836 0.41803 0.0
C802 C 0.926 0.25418 0.4319 0.0
C803 C 0.90643 0.24711 0.45676 0.0
C804 C 0.85862 0.23567 0.49433 0.0
C805 C 0.84417 0.22314 0.52601 0.0
C806 C 0.82149 0.2009 0.52196 0.0
C807 C 0.812 0.19101 0.48613 0.0
C808 C 0.82512 0.20438 0.45436 0.0
C809 C 0.84788 0.22658 0.45838 0.0
H810 H 0.93059 0.5698 0.18609 0.0
N811 N 0.95356 0.55577 0.23473 0.0
H812 H 0.94595 0.59042 0.12534 0.0
H813 H -0.00294 0.56657 0.20069 0.0
H814 H 0.01205 0.58636 0.14062 0.0
H815 H 0.92284 0.55702 0.28377 0.0
H816 H 0.93241 0.58923 0.33005 0.0
H817 H 0.00012 0.5955 0.25217 0.0
H818 H 0.00985 0.62745 0.29829 0.0
H819 H 0.99177 0.55596 0.27478 0.0
H820 H 0.92317 0.50945 0.21294 0.0
H821 H -0.00033 0.52261 0.27765 0.0
H822 H 0.9313 0.47581 0.21547 0.0
H823 H 0.0268 0.42333 0.17978 0.0
H824 H 0.01962 0.40476 0.11743 0.0
H825 H 0.94256 0.38478 0.12062 0.0
H826 H 0.94988 0.40304 0.18329 0.0
H827 H 0.95375 0.38058 0.2405 0.0
H828 H 0.95267 0.35172 0.28692 0.0
H829 H 0.02848 0.40524 0.3209 0.0
H830 H 0.02936 0.434 0.27394 0.0
H831 H 0.02282 0.47373 0.21646 0.0
H832 H 0.01135 0.5045 0.22631 0.0
H833 H 0.93711 0.44682 0.25679 0.0
N834 N -0.00574 0.42546 0.22327 0.0
H835 H 0.94882 0.41615 0.2469 0.0
C836 C 0.96244 0.56646 0.19804 0.0
C837 C 0.94827 0.57321 0.17599 0.0
C838 C 0.95705 0.58492 0.14132 0.0
C839 C 0.9802 0.58999 0.12803 0.0
C840 C -0.00593 0.58265 0.14978 0.0
C841 C 0.98544 0.57122 0.18441 0.0
C842 C 0.96055 0.57382 0.26425 0.0
C843 C 0.9419 0.57219 0.28724 0.0
C844 C 0.94744 0.59059 0.31366 0.0
C845 C 0.97189 0.61097 0.31773 0.0
C846 C 0.99085 0.61199 0.29597 0.0
C847 C 0.98524 0.59371 0.26934 0.0
C848 C 0.95674 0.53535 0.24333 0.0
C849 C 0.97803 0.5385 0.26247 0.0
C850 C 0.98271 0.51939 0.26391 0.0
C851 C 0.96628 0.49674 0.24634 0.0
C852 C 0.94423 0.49303 0.22942 0.0
C853 C 0.93958 0.51221 0.22792 0.0
C854 C 0.98911 0.41488 0.18606 0.0
C855 C 0.00841 0.415 0.1669 0.0
C856 C 0.00419 0.4043 0.13134 0.0
C857 C 0.98048 0.3933 0.11397 0.0
C858 C 0.96105 0.3932 0.13314 0.0
C859 C 0.96526 0.40374 0.16902 0.0
C860 C 0.99183 0.40931 0.25352 0.0
C861 C 0.96998 0.38625 0.25829 0.0
C862 C 0.96941 0.36977 0.2849 0.0
C863 C 0.9906 0.37611 0.30731 0.0
C864 C 0.01188 0.39979 0.30407 0.0
C865 C 0.01246 0.4162 0.27726 0.0
C866 C 0.98675 0.44279 0.23074 0.0
C867 C 0.00416 0.46782 0.22553 0.0
C868 C -0.0024 0.48531 0.23143 0.0
C869 C 0.97336 0.47804 0.24254 0.0
C870 C 0.95589 0.4529 0.24809 0.0
C871 C 0.96257 0.43538 0.24246 0.0
H872 H 0.61542 0.54959 0.19485 0.0
N873 N 0.59063 0.56487 0.2347 0.0
H874 H 0.63338 0.56341 0.13235 0.0
H875 H 0.59213 0.6024 0.19322 0.0
H876 H 0.61048 0.61663 0.1319 0.0
H877 H 0.56136 0.58474 0.24503 0.0
H878 H 0.57127 0.61934 0.28599 0.0
H879 H 0.62578 0.58451 0.28771 0.0
H880 H 0.63538 0.61858 0.32982 0.0
H881 H 0.55117 0.55741 0.19042 0.0
H882 H 0.57511 0.52319 0.27172 0.0
H883 H 0.51083 0.51912 0.18412 0.0
H884 H 0.53476 0.48461 0.26532 0.0
H885 H 0.41227 0.3686 0.15748 0.0
H886 H 0.38522 0.35802 0.10156 0.0
H887 H 0.38359 0.42447 0.11655 0.0
H888 H 0.41063 0.43486 0.17182 0.0
H889 H 0.40837 0.43246 0.23726 0.0
H890 H 0.37399 0.41627 0.28132 0.0
H891 H 0.3715 0.34717 0.28412 0.0
H892 H 0.40562 0.36345 0.23973 0.0
H893 H 0.45681 0.4384 0.14939 0.0
H894 H 0.49555 0.4773 0.15824 0.0
H895 H 0.49032 0.46668 0.27841 0.0
N896 N 0.42673 0.40636 0.20429 0.0
H897 H 0.45158 0.42755 0.27 0.0
C898 C 0.60264 0.57498 0.19919 0.0
C899 C 0.61453 0.56439 0.18133 0.0
C900 C 0.62471 0.57227 0.14564 0.0
C901 C 0.62341 0.59117 0.12722 0.0
C902 C 0.61199 0.60217 0.14545 0.0
C903 C 0.60147 0.59402 0.18083 0.0
C904 C 0.59334 0.58247 0.26262 0.0
C905 C 0.57733 0.59173 0.26383 0.0
C906 C 0.58291 0.61146 0.28755 0.0
C907 C 0.60444 0.6221 0.31058 0.0
C908 C 0.61897 0.6112 0.31181 0.0
C909 C 0.61355 0.59172 0.28784 0.0
C910 C 0.56619 0.54304 0.23153 0.0
C911 C 0.54773 0.54168 0.20701 0.0
C912 C 0.52471 0.51975 0.20329 0.0
C913 C 0.51969 0.49886 0.2241 0.0
C914 C 0.538 0.50047 0.24918 0.0
C915 C 0.56104 0.52238 0.25277 0.0
C916 C 0.41339 0.40237 0.16894 0.0
C917 C 0.40637 0.38102 0.14819 0.0
C918 C 0.39091 0.37502 0.11632 0.0
C919 C 0.38207 0.3903 0.10473 0.0
C920 C 0.3899 0.41219 0.12478 0.0
C921 C 0.40532 0.41814 0.15657 0.0
C922 C 0.40928 0.39891 0.23474 0.0
C923 C 0.40056 0.4139 0.24767 0.0
C924 C 0.38101 0.40468 0.27314 0.0
C925 C 0.36978 0.38031 0.28609 0.0
C926 C 0.37963 0.36598 0.27485 0.0
C927 C 0.39912 0.3752 0.24938 0.0
C928 C 0.44956 0.43034 0.20914 0.0
C929 C 0.46322 0.44452 0.1779 0.0
C930 C 0.48567 0.46688 0.18287 0.0
C931 C 0.49565 0.47532 0.21904 0.0
C932 C 0.48292 0.46078 0.25017 0.0
C933 C 0.46043 0.43846 0.24527 0.0
H934 H 0.58082 0.94961 0.16704 0.0
N935 N 0.57139 0.97664 0.21219 0.0
H936 H 0.60295 0.96179 0.10751 0.0
H937 H 0.59092 0.02167 0.17792 0.0
H938 H 0.61266 0.0339 0.11815 0.0
H939 H 0.61404 0.01878 0.23477 0.0
H940 H 0.64575 0.02106 0.27738 0.0
H941 H 0.5666 0.94128 0.25779 0.0
H942 H 0.59851 0.94338 0.30091 0.0
H943 H 0.52578 0.95375 0.18334 0.0
H944 H 0.57605 0.01548 0.25399 0.0
H945 H 0.49544 0.96676 0.18515 0.0
H946 H 0.5456 0.02817 0.25628 0.0
H947 H 0.41966 0.97428 0.18149 0.0
H948 H 0.39334 0.95901 0.12551 0.0
H949 H 0.402 0.03038 0.10912 0.0
H950 H 0.42847 0.04557 0.16597 0.0
H951 H 0.42112 0.04251 0.24969 0.0
H952 H 0.3872 0.02399 0.29492 0.0
H953 H 0.38768 0.95643 0.29095 0.0
H954 H 0.42145 0.97503 0.24626 0.0
H955 H 0.46741 0.01786 0.1543 0.0
H956 H 0.49945 0.00769 0.15819 0.0
H957 H 0.4989 0.01031 0.27921 0.0
N958 N 0.44055 0.02029 0.21276 0.0
H959 H 0.4662 0.02007 0.27588 0.0
C960 C 0.58382 0.98445 0.17658 0.0
C961 C 0.5877 0.968 0.15638 0.0
C962 C 0.6005 0.97509 0.12256 0.0
C963 C 0.60956 -0.00115 0.1081 0.0
C964 C 0.60586 0.01547 0.12851 0.0
C965 C 0.59326 0.00841 0.16259 0.0
C966 C 0.58795 0.97973 0.24295 0.0
C967 C 0.61015 0.00236 0.24976 0.0
C968 C 0.62836 0.0036 0.27404 0.0
C969 C 0.62477 0.98229 0.29192 0.0
C970 C 0.60182 0.96008 0.28736 0.0
C971 C 0.58358 0.95885 0.26291 0.0
C972 C 0.55314 0.98342 0.21843 0.0
C973 C 0.53007 0.96981 0.19973 0.0
C974 C 0.51291 0.97734 0.20057 0.0
C975 C 0.51841 -0.00144 0.22059 0.0
C976 C 0.54102 0.01172 0.24072 0.0
C977 C 0.55842 0.00438 0.2394 0.0
C978 C 0.42592 0.01115 0.17826 0.0
C979 C 0.41588 0.98668 0.16608 0.0
C980 C 0.40097 0.97801 0.1337 0.0
C981 C 0.39551 0.99345 0.11277 0.0
C982 C 0.40593 0.01803 0.1245 0.0
C983 C 0.42096 0.02674 0.15699 0.0
C984 C 0.42372 0.01024 0.24418 0.0
C985 C 0.41427 0.02393 0.25936 0.0
C986 C 0.39491 0.01329 0.28525 0.0
C987 C 0.38454 0.98862 0.29628 0.0
C988 C 0.39508 0.9754 0.28286 0.0
C989 C 0.41438 0.98602 0.25703 0.0
C990 C 0.4619 0.01704 0.21489 0.0
C991 C 0.47337 0.0156 0.18195 0.0
C992 C 0.49202 0.01004 0.18402 0.0
C993 C 0.50073 0.00716 0.21898 0.0
C994 C 0.49184 0.01171 0.25191 0.0
C995 C 0.47288 0.01697 0.24988 0.0
H996 H 0.34098 0.91893 0.84349 0.0
N997 N 0.3835 0.95236 0.81167 0.0
H998 H 0.327 0.91958 0.9075 0.0
H999 H 0.40881 0.98843 0.8647 0.0
H1000 H 0.39407 0.99008 0.92738 0.0
H1001 H 0.39562 0.00078 0.81316 0.0
H1002 H 0.38913 0.0228 0.76298 0.0
H1003 H 0.36403 0.93572 0.74358 0.0
H1004 H 0.35773 0.95798 0.6925 0.0
H1005 H 0.39203 0.91823 0.83854 0.0
H1006 H 0.42848 0.98868 0.78261 0.0
H1007 H 0.43099 0.91855 0.8385 0.0
H1008 H 0.46614 0.98788 0.77878 0.0
H1009 H 0.5709 0.93637 0.84126 0.0
H1010 H 0.59605 0.94753 0.89956 0.0
H1011 H 0.56855 0.99442 0.9307 0.0
H1012 H 0.54407 0.98365 0.87382 0.0
H1013 H 0.57815 0.00603 0.81785 0.0
H1014 H 0.60993 0.03109 0.77271 0.0
H1015 H 0.58916 0.96635 0.70658 0.0
H1016 H 0.55555 0.94117 0.75102 0.0
H1017 H 0.49961 0.91615 0.80954 0.0
H1018 H 0.45974 0.91425 0.80592 0.0
H1019 H 0.49942 0.9938 0.81191 0.0
N1020 N 0.54528 0.95608 0.81452 0.0
H1021 H 0.53824 0.99545 0.81195 0.0
C1022 C 0.37555 0.95388 0.84893 0.0
C1023 C 0.3526 0.93451 0.86171 0.0
C1024 C 0.34469 0.93487 0.89814 0.0
C1025 C 0.35934 0.95504 0.92198 0.0
C1026 C 0.38227 0.97453 0.90919 0.0
C1027 C 0.3906 0.9737 0.87332 0.0
C1028 C 0.37953 0.9661 0.78272 0.0
C1029 C 0.38706 0.99102 0.78733 0.0
C1030 C 0.38371 0.00385 0.75818 0.0
C1031 C 0.37295 0.99221 0.72366 0.0
C1032 C 0.36624 0.96759 0.71863 0.0
C1033 C 0.36948 0.95472 0.74792 0.0
C1034 C 0.40698 0.9533 0.81075 0.0
C1035 C 0.40831 0.93361 0.82588 0.0
C1036 C 0.43058 0.93369 0.82531 0.0
C1037 C 0.452 0.95326 0.80865 0.0
C1038 C 0.45044 0.97275 0.79286 0.0
C1039 C 0.42849 0.97307 0.7946 0.0
C1040 C 0.55563 0.95919 0.85228 0.0
C1041 C 0.56985 0.94856 0.8612 0.0
C1042 C 0.58419 0.95493 0.89449 0.0
C1043 C 0.58458 0.97216 0.91937 0.0
C1044 C 0.56897 0.98136 0.9118 0.0
C1045 C 0.55474 0.97505 0.87879 0.0
C1046 C 0.56385 0.97162 0.78738 0.0
C1047 C 0.57953 -0.00282 0.79297 0.0
C1048 C 0.59786 0.01157 0.76709 0.0
C1049 C 0.60174 0.00071 0.73585 0.0
C1050 C 0.58628 0.97519 0.73021 0.0
C1051 C 0.56723 0.96084 0.75555 0.0
C1052 C 0.52213 0.95578 0.81117 0.0
C1053 C 0.49954 0.93311 0.80949 0.0
C1054 C 0.47675 0.93211 0.80787 0.0
C1055 C 0.47608 0.95389 0.80869 0.0
C1056 C 0.49884 0.97657 0.81013 0.0
C1057 C 0.52145 0.97753 0.81054 0.0
H1058 H 0.95776 0.5793 0.86704 0.0
N1059 N 0.98694 0.57336 0.82111 0.0
H1060 H 0.968 0.59779 0.92978 0.0
H1061 H 0.03125 0.59019 0.85995 0.0
H1062 H 0.04146 0.60818 0.92293 0.0
H1063 H 0.02977 0.61709 0.80628 0.0
H1064 H 0.03328 0.64956 0.76553 0.0
H1065 H 0.95255 0.57032 0.77332 0.0
H1066 H 0.95583 0.60286 0.73219 0.0
H1067 H 0.95752 0.52524 0.82937 0.0
H1068 H 0.03036 0.58076 0.79101 0.0
H1069 H 0.96752 0.49351 0.81853 0.0
H1070 H 0.04043 0.54918 0.77962 0.0
H1071 H 0.98378 0.42978 0.84585 0.0
H1072 H 0.97233 0.41109 0.90735 0.0
H1073 H 0.04184 0.41274 0.91625 0.0
H1074 H 0.05347 0.43208 0.85402 0.0
H1075 H 0.05457 0.4431 0.7519 0.0
H1076 H 0.04458 0.41075 0.70572 0.0
H1077 H 0.97077 0.36687 0.75176 0.0
H1078 H 0.98069 0.39934 0.79704 0.0
H1079 H 0.98493 0.43911 0.77396 0.0
H1080 H 0.97623 0.47207 0.77002 0.0
H1081 H 0.04842 0.52249 0.82005 0.0
N1082 N 0.0263 0.44214 0.80737 0.0
H1083 H 0.05724 0.48939 0.82328 0.0
C1084 C -0.00654 0.583 0.85893 0.0
C1085 C 0.97599 0.58543 0.87925 0.0
C1086 C 0.98196 0.59612 0.91497 0.0
C1087 C 0.00558 0.60447 0.93134 0.0
C1088 C 0.02308 0.60183 0.91115 0.0
C1089 C 0.01718 0.5914 0.87512 0.0
C1090 C 0.99077 0.59129 0.79296 0.0
C1091 C 0.01369 0.61359 0.78963 0.0
C1092 C 0.01564 0.63222 0.76636 0.0
C1093 C -0.00527 0.6289 0.746 0.0
C1094 C 0.97225 0.60602 0.7476 0.0
C1095 C 0.97033 0.58742 0.77099 0.0
C1096 C -0.00693 0.55528 0.81112 0.0
C1097 C 0.97551 0.53048 0.81803 0.0
C1098 C 0.98123 0.51241 0.81159 0.0
C1099 C 0.00477 0.51884 0.79814 0.0
C1100 C 0.0222 0.54369 0.79026 0.0
C1101 C 0.01641 0.56177 0.79661 0.0
C1102 C 0.01965 0.43243 0.84508 0.0
C1103 C -0.00313 0.42662 0.86103 0.0
C1104 C 0.99028 0.41582 0.89646 0.0
C1105 C 0.00613 0.41033 0.91682 0.0
C1106 C 0.02923 0.41681 0.90141 0.0
C1107 C 0.03588 0.42775 0.86585 0.0
C1108 C 0.01873 0.42359 0.77845 0.0
C1109 C 0.03615 0.42663 0.75161 0.0
C1110 C 0.03034 0.40814 0.7252 0.0
C1111 C 0.00694 0.38609 0.72533 0.0
C1112 C 0.98903 0.38353 0.75109 0.0
C1113 C -0.00522 0.40212 0.77724 0.0
C1114 C 0.02189 0.46177 0.79903 0.0
C1115 C -0.0008 0.45732 0.78325 0.0
C1116 C -0.00589 0.47618 0.7813 0.0
C1117 C 0.01153 0.49982 0.79504 0.0
C1118 C 0.0347 0.50455 0.80889 0.0
C1119 C 0.03976 0.48567 0.81086 0.0
H1120 H 0.38011 0.38889 0.84711 0.0
N1121 N 0.38037 0.42758 0.81101 0.0
H1122 H 0.36147 0.37117 0.90702 0.0
H1123 H 0.35269 0.43833 0.85325 0.0
H1124 H 0.33442 0.42092 0.91449 0.0
H1125 H 0.34525 0.40127 0.75961 0.0
H1126 H 0.34318 0.37036 0.71667 0.0
H1127 H 0.41764 0.41785 0.79927 0.0
H1128 H 0.41585 0.38739 0.75636 0.0
H1129 H 0.4158 0.43828 0.86632 0.0
H1130 H 0.3984 0.46822 0.76972 0.0
H1131 H 0.45544 0.47643 0.87426 0.0
H1132 H 0.43915 0.50629 0.77605 0.0
H1133 H 0.5771 0.56081 0.85481 0.0
H1134 H 0.60196 0.56945 0.9115 0.0
H1135 H 0.58064 0.62055 0.94723 0.0
H1136 H 0.55453 0.6109 0.89006 0.0
H1137 H 0.57647 0.6243 0.80027 0.0
H1138 H 0.60816 0.63546 0.75248 0.0
H1139 H 0.58737 0.55935 0.7448 0.0
H1140 H 0.55588 0.54839 0.79181 0.0
H1141 H 0.53544 0.53309 0.85043 0.0
H1142 H 0.49418 0.49714 0.84557 0.0
H1143 H 0.46495 0.54268 0.81181 0.0
N1144 N 0.54933 0.58098 0.83372 0.0
H1145 H 0.50725 0.57904 0.81493 0.0
C1146 C 0.36762 0.41497 0.84509 0.0
C1147 C 0.36971 0.39574 0.86084 0.0
C1148 C 0.35905 0.38557 0.89545 0.0
C1149 C 0.34649 0.39465 0.91563 0.0
C1150 C 0.34399 0.41352 0.89967 0.0
C1151 C 0.35435 0.42344 0.86468 0.0
C1152 C 0.3814 0.41186 0.7828 0.0
C1153 C 0.36089 0.39861 0.75847 0.0
C1154 C 0.3598 0.38102 0.73394 0.0
C1155 C 0.37933 0.37634 0.73322 0.0
C1156 C 0.40057 0.39063 0.75603 0.0
C1157 C 0.40157 0.40811 0.78073 0.0
C1158 C 0.4038 0.4504 0.81749 0.0
C1159 C 0.42037 0.4531 0.84684 0.0
C1160 C 0.44334 0.47495 0.85109 0.0
C1161 C 0.45069 0.49446 0.82562 0.0
C1162 C 0.43402 0.49183 0.79653 0.0
C1163 C 0.4108 0.47005 0.79267 0.0
C1164 C 0.56347 0.58494 0.86821 0.0
C1165 C 0.57708 0.5734 0.87498 0.0
C1166 C 0.59148 0.57846 0.90764 0.0
C1167 C 0.59322 0.59563 0.93405 0.0
C1168 C 0.57961 0.60717 0.92747 0.0
C1169 C 0.56471 0.60168 0.89492 0.0
C1170 C 0.5639 0.58566 0.80024 0.0
C1171 C 0.5783 0.60996 0.78743 0.0
C1172 C 0.5964 0.61627 0.76011 0.0
C1173 C 0.60057 0.59833 0.74528 0.0
C1174 C 0.5848 0.57366 0.7559 0.0
C1175 C 0.56664 0.56736 0.78303 0.0
C1176 C 0.52468 0.55909 0.83289 0.0
C1177 C 0.52042 0.53567 0.84202 0.0
C1178 C 0.4965 0.51489 0.83953 0.0
C1179 C 0.47607 0.51691 0.82855 0.0
C1180 C 0.48027 0.54036 0.81991 0.0
C1181 C 0.50437 0.56118 0.82194 0.0
H1182 H 0.69264 0.93192 0.53837 0.0
N1183 N 0.6443 0.89688 0.55449 0.0
H1184 H 0.70884 0.94981 0.47723 0.0
H1185 H 0.61949 0.88515 0.48914 0.0
H1186 H 0.63545 0.90403 0.4275 0.0
H1187 H 0.60933 0.9074 0.5636 0.0
H1188 H 0.612 0.94084 0.60054 0.0
H1189 H 0.68206 0.92615 0.60439 0.0
H1190 H 0.68517 0.96008 0.64136 0.0
H1191 H 0.68773 0.8967 0.56338 0.0
H1192 H 0.60817 0.85314 0.57786 0.0
H1193 H 0.69064 0.86083 0.57349 0.0
H1194 H 0.61106 0.81711 0.59179 0.0
H1195 H 0.69486 0.76488 0.50653 0.0
H1196 H 0.68674 0.74774 0.44272 0.0
H1197 H 0.60832 0.70229 0.46691 0.0
H1198 H 0.61674 0.71846 0.53115 0.0
H1199 H 0.62041 0.71895 0.59736 0.0
H1200 H 0.61722 0.68739 0.64076 0.0
H1201 H 0.6969 0.71908 0.63455 0.0
H1202 H 0.69962 0.74996 0.59039 0.0
H1203 H 0.69431 0.79492 0.59593 0.0
H1204 H 0.68952 0.82994 0.60761 0.0
H1205 H 0.61535 0.78929 0.55789 0.0
N1206 N 0.66238 0.75306 0.56118 0.0
H1207 H 0.61955 0.75403 0.54998 0.0
C1208 C 0.65479 0.90689 0.51829 0.0
C1209 C 0.68012 0.92508 0.5143 0.0
C1210 C 0.68941 0.93532 0.47916 0.0
C1211 C 0.67345 0.92818 0.44749 0.0
C1212 C 0.64822 0.90975 0.45138 0.0
C1213 C 0.63906 0.89905 0.48646 0.0
C1214 C 0.64543 0.91437 0.58107 0.0
C1215 C 0.62571 0.91855 0.58112 0.0
C1216 C 0.62738 0.93776 0.60212 0.0
C1217 C 0.64896 0.95336 0.62355 0.0
C1218 C 0.66834 0.94846 0.625 0.0
C1219 C 0.6666 0.92908 0.60388 0.0
C1220 C 0.6475 0.87744 0.56852 0.0
C1221 C 0.67086 0.87952 0.56955 0.0
C1222 C 0.67254 0.8588 0.57601 0.0
C1223 C 0.65099 0.83566 0.58273 0.0
C1224 C 0.62797 0.8343 0.58536 0.0
C1225 C 0.62627 0.85494 0.57791 0.0
C1226 C 0.65649 0.74335 0.52342 0.0
C1227 C 0.67593 0.75132 0.49794 0.0
C1228 C 0.67125 0.74152 0.46163 0.0
C1229 C 0.64685 0.72387 0.44987 0.0
C1230 C 0.62722 0.71615 0.47513 0.0
C1231 C 0.63206 0.72547 0.51186 0.0
C1232 C 0.66023 0.73637 0.59024 0.0
C1233 C 0.63712 0.71906 0.60551 0.0
C1234 C 0.63539 0.70117 0.63044 0.0
C1235 C 0.65679 0.70063 0.64084 0.0
C1236 C 0.68007 0.71897 0.62717 0.0
C1237 C 0.68169 0.73657 0.6019 0.0
C1238 C 0.65769 0.77214 0.57106 0.0
C1239 C 0.67688 0.79355 0.58831 0.0
C1240 C 0.67414 0.81363 0.59458 0.0
C1241 C 0.65227 0.8129 0.58285 0.0
C1242 C 0.63247 0.79075 0.56762 0.0
C1243 C 0.635 0.77046 0.56236 0.0
H1244 H 0.2911 0.88778 0.51705 0.0
N1245 N 0.26673 0.90123 0.56151 0.0
H1246 H 0.30649 0.90258 0.45364 0.0
H1247 H 0.26415 0.93762 0.52246 0.0
H1248 H 0.28019 0.95293 0.46023 0.0
H1249 H 0.23582 0.91872 0.57533 0.0
H1250 H 0.24498 0.95256 0.61774 0.0
H1251 H 0.30266 0.9215 0.61328 0.0
H1252 H 0.31128 0.95438 0.65725 0.0
H1253 H 0.2244 0.88945 0.52143 0.0
H1254 H 0.25633 0.8612 0.59985 0.0
H1255 H 0.18554 0.84936 0.51975 0.0
H1256 H 0.21738 0.8209 0.59837 0.0
H1257 H 0.08547 0.69986 0.50985 0.0
H1258 H 0.05906 0.68997 0.45316 0.0
H1259 H 0.0642 0.76014 0.46236 0.0
H1260 H 0.09036 0.76973 0.51823 0.0
H1261 H 0.09449 0.77383 0.58323 0.0
H1262 H 0.06244 0.76549 0.62852 0.0
H1263 H 0.04524 0.69055 0.63897 0.0
H1264 H 0.07737 0.69909 0.5931 0.0
H1265 H 0.13296 0.76778 0.49328 0.0
H1266 H 0.17212 0.8067 0.49642 0.0
H1267 H 0.17296 0.80174 0.61737 0.0
N1268 N 0.10404 0.74 0.5531 0.0
H1269 H 0.13344 0.76263 0.61472 0.0
C1270 C 0.27672 0.91161 0.52505 0.0
C1271 C 0.2888 0.90211 0.50485 0.0
C1272 C 0.29752 0.91055 0.46864 0.0
C1273 C 0.29465 0.92902 0.45205 0.0
C1274 C 0.28291 0.93887 0.47243 0.0
C1275 C 0.27373 0.93006 0.50832 0.0
C1276 C 0.26917 0.91825 0.59024 0.0
C1277 C 0.25221 0.92627 0.59336 0.0
C1278 C 0.25735 0.9455 0.61792 0.0
C1279 C 0.27927 0.95667 0.64013 0.0
C1280 C 0.29467 0.94674 0.63971 0.0
C1281 C 0.28978 0.92792 0.6147 0.0
C1282 C 0.2433 0.87816 0.56065 0.0
C1283 C 0.22304 0.87461 0.53829 0.0
C1284 C 0.2009 0.85168 0.53722 0.0
C1285 C 0.19854 0.83201 0.55876 0.0
C1286 C 0.21865 0.83577 0.58165 0.0
C1287 C 0.24085 0.85866 0.58246 0.0
C1288 C 0.08986 0.73541 0.5184 0.0
C1289 C 0.08101 0.7131 0.49928 0.0
C1290 C 0.06595 0.70752 0.46696 0.0
C1291 C 0.05946 0.72424 0.45323 0.0
C1292 C 0.06874 0.74679 0.4721 0.0
C1293 C 0.08362 0.75227 0.50436 0.0
C1294 C 0.08814 0.73688 0.58433 0.0
C1295 C 0.08407 0.75568 0.59554 0.0
C1296 C 0.06579 0.75092 0.62172 0.0
C1297 C 0.05106 0.72728 0.6371 0.0
C1298 C 0.0562 0.70896 0.62762 0.0
C1299 C 0.07452 0.71376 0.60141 0.0
C1300 C 0.12841 0.76285 0.5541 0.0
C1301 C 0.14081 0.7751 0.52082 0.0
C1302 C 0.16352 0.79744 0.52245 0.0
C1303 C 0.17511 0.80766 0.55717 0.0
C1304 C 0.16416 0.79452 0.5902 0.0
C1305 C 0.14131 0.77223 0.58864 0.0
H1306 H 0.24113 0.2869 0.49723 0.0
N1307 N 0.23509 0.31647 0.54191 0.0
H1308 H 0.26241 0.29685 0.43706 0.0
H1309 H 0.25638 0.36102 0.50574 0.0
H1310 H 0.27729 0.37108 0.44516 0.0
H1311 H 0.27982 0.35703 0.56205 0.0
H1312 H 0.31081 0.35763 0.60445 0.0
H1313 H 0.22845 0.28071 0.58833 0.0
H1314 H 0.25961 0.28109 0.63126 0.0
H1315 H 0.18971 0.29731 0.51306 0.0
H1316 H 0.24317 0.35599 0.58573 0.0
H1317 H 0.16155 0.31284 0.51837 0.0
H1318 H 0.21475 0.37098 0.59177 0.0
H1319 H 0.09053 0.32128 0.52127 0.0
H1320 H 0.06323 0.30695 0.46644 0.0
H1321 H 0.0659 0.37614 0.46153 0.0
H1322 H 0.09349 0.39044 0.51734 0.0
H1323 H 0.08818 0.38448 0.59944 0.0
H1324 H 0.05297 0.36253 0.64176 0.0
H1325 H 0.05545 0.2965 0.62768 0.0
H1326 H 0.09058 0.31852 0.58598 0.0
H1327 H 0.13684 0.36791 0.49776 0.0
H1328 H 0.16881 0.3575 0.49682 0.0
H1329 H 0.16683 0.35146 0.6176 0.0
N1330 N 0.10882 0.36522 0.55819 0.0
H1331 H 0.13418 0.3613 0.61905 0.0
C1332 C 0.2468 0.32297 0.50566 0.0
C1333 C 0.24892 0.30526 0.48587 0.0
C1334 C 0.26124 0.31108 0.45166 0.0
C1335 C 0.27157 0.3348 0.43634 0.0
C1336 C 0.26949 0.35264 0.45619 0.0
C1337 C 0.25739 0.34685 0.49072 0.0
C1338 C 0.25182 0.31869 0.57191 0.0
C1339 C 0.275 0.34051 0.5776 0.0
C1340 C 0.29277 0.34079 0.60179 0.0
C1341 C 0.28776 0.31928 0.62069 0.0
C1342 C 0.264 0.29792 0.61695 0.0
C1343 C 0.2462 0.29767 0.59259 0.0
C1344 C 0.21849 0.32522 0.54894 0.0
C1345 C 0.19522 0.31329 0.5305 0.0
C1346 C 0.17929 0.32223 0.53337 0.0
C1347 C 0.18619 0.34313 0.55529 0.0
C1348 C 0.20912 0.3548 0.57476 0.0
C1349 C 0.22534 0.34612 0.57129 0.0
C1350 C 0.09408 0.35705 0.52366 0.0
C1351 C 0.08531 0.33345 0.50859 0.0
C1352 C 0.06973 0.3253 0.47693 0.0
C1353 C 0.06228 0.34036 0.4596 0.0
C1354 C 0.07135 0.3641 0.47418 0.0
C1355 C 0.08709 0.37232 0.50599 0.0
C1356 C 0.09195 0.35327 0.58914 0.0
C1357 C 0.08155 0.36548 0.60642 0.0
C1358 C 0.06136 0.35284 0.6305 0.0
C1359 C 0.05108 0.32761 0.6376 0.0
C1360 C 0.0627 0.31584 0.62253 0.0
C1361 C 0.08284 0.32847 0.59849 0.0
C1362 C 0.13057 0.36258 0.55815 0.0
C1363 C 0.14257 0.36378 0.52424 0.0
C1364 C 0.16117 0.35814 0.52358 0.0
C1365 C 0.16935 0.35267 0.55697 0.0
C1366 C 0.16016 0.3549 0.59138 0.0
C1367 C 0.14121 0.36019 0.59203 0.0
loop_
_geom_bond_atom_site_label_1
_geom_bond_atom_site_label_2
_geom_bond_distance
_geom_bond_site_symmetry_2
_ccdc_geom_bond_type
Zn0 O3 2.031 1_554 S
Zn0 O5 2.049 . S
Zn0 O10 2.067 1_554 S
Zn1 O2 1.962 1_455 S
Zn1 O4 1.986 . S
Zn1 O6 1.996 1_455 S
Zn1 O9 1.943 1_554 S
O2 Zn1 1.962 1_655 S
O2 C7 1.254 1_554 S
O3 Zn0 2.031 1_556 S
O3 C7 1.269 . S
O4 Zn1 1.986 . S
O4 C11 1.262 . S
O5 Zn0 2.049 . S
O5 C13 1.260 . S
O6 Zn1 1.996 1_655 S
O6 C13 1.257 . S
C7 O2 1.254 1_556 S
C7 O3 1.269 . S
C8 O9 1.249 . S
C8 O10 1.270 1_455 S
O9 Zn1 1.943 1_556 S
O9 C8 1.249 . S
O10 Zn0 2.067 1_556 S
O10 C8 1.270 1_655 S
C11 O4 1.262 . S
C11 O12 1.232 . S
O12 C11 1.232 . S
C13 O5 1.260 . S
C13 O6 1.257 . S
Zn14 O17 2.031 1_554 S
Zn14 O19 2.049 . S
Zn14 O24 2.067 1_554 S
Zn15 O16 1.962 . S
Zn15 O18 1.986 . S
Zn15 O20 1.996 . S
Zn15 O23 1.943 1_554 S
O16 Zn15 1.962 . S
O16 C21 1.254 1_554 S
O17 Zn14 2.031 1_556 S
O17 C21 1.269 . S
O18 Zn15 1.986 . S
O18 C25 1.262 . S
O19 Zn14 2.049 . S
O19 C27 1.260 . S
O20 Zn15 1.996 . S
O20 C27 1.257 . S
C21 O16 1.254 1_556 S
C21 O17 1.269 . S
C22 O23 1.249 . S
C22 O24 1.270 . S
O23 Zn15 1.943 1_556 S
O23 C22 1.249 . S
O24 Zn14 2.067 1_556 S
O24 C22 1.270 . S
C25 O18 1.262 . S
C25 O26 1.232 . S
O26 C25 1.232 . S
C27 O19 1.260 . S
C27 O20 1.257 . S
Zn28 O31 2.031 . S
Zn28 O33 2.049 1_554 S
Zn28 O38 2.067 . S
Zn29 O30 1.962 1_545 S
Zn29 O32 1.986 1_554 S
Zn29 O34 1.996 1_544 S
Zn29 O37 1.943 . S
O30 Zn29 1.962 1_565 S
O30 C35 1.254 . S
O31 Zn28 2.031 . S
O31 C35 1.269 . S
O32 Zn29 1.986 1_556 S
O32 C39 1.262 . S
O33 Zn28 2.049 1_556 S
O33 C41 1.260 . S
O34 Zn29 1.996 1_566 S
O34 C41 1.257 . S
C35 O30 1.254 . S
C35 O31 1.269 . S
C36 O37 1.249 . S
C36 O38 1.270 1_545 S
O37 Zn29 1.943 . S
O37 C36 1.249 . S
O38 Zn28 2.067 . S
O38 C36 1.270 1_565 S
C39 O32 1.262 . S
C39 O40 1.232 1_556 S
O40 C39 1.232 1_554 S
C41 O33 1.260 . S
C41 O34 1.257 . S
Zn42 O45 2.031 . S
Zn42 O47 2.049 1_554 S
Zn42 O52 2.067 . S
Zn43 O44 1.962 1_655 S
Zn43 O46 1.986 1_554 S
Zn43 O48 1.996 1_654 S
Zn43 O51 1.943 . S
O44 Zn43 1.962 1_455 S
O44 C49 1.254 . S
O45 Zn42 2.031 . S
O45 C49 1.269 . S
O46 Zn43 1.986 1_556 S
O46 C53 1.262 . S
O47 Zn42 2.049 1_556 S
O47 C55 1.260 . S
O48 Zn43 1.996 1_456 S
O48 C55 1.257 . S
C49 O44 1.254 . S
C49 O45 1.269 . S
C50 O51 1.249 . S
C50 O52 1.270 1_655 S
O51 Zn43 1.943 . S
O51 C50 1.249 . S
O52 Zn42 2.067 . S
O52 C50 1.270 1_455 S
C53 O46 1.262 . S
C53 O54 1.232 1_556 S
O54 C53 1.232 1_554 S
C55 O47 1.260 . S
C55 O48 1.257 . S
Zn56 O59 2.031 . S
Zn56 O61 2.049 1_554 S
Zn56 O66 2.067 . S
Zn57 O58 1.962 . S
Zn57 O60 1.986 1_554 S
Zn57 O62 1.996 1_554 S
Zn57 O65 1.943 . S
O58 Zn57 1.962 . S
O58 C63 1.254 . S
O59 Zn56 2.031 . S
O59 C63 1.269 . S
O60 Zn57 1.986 1_556 S
O60 C67 1.277 . S
O61 Zn56 2.049 1_556 S
O61 C69 1.260 . S
O62 Zn57 1.996 1_556 S
O62 C69 1.257 . S
C63 O58 1.254 . S
C63 O59 1.269 . S
C64 O65 1.249 . S
C64 O66 1.270 . S
O65 Zn57 1.943 . S
O65 C64 1.249 . S
O66 Zn56 2.067 . S
O66 C64 1.270 . S
C67 O60 1.277 . S
C67 O68 1.212 1_556 S
O68 C67 1.212 1_554 S
C69 O61 1.260 . S
C69 O62 1.257 . S
Zn70 O73 2.031 1_554 S
Zn70 O75 2.049 . S
Zn70 O80 2.067 1_554 S
Zn71 O72 1.962 1_565 S
Zn71 O74 1.986 . S
Zn71 O76 1.996 1_565 S
Zn71 O79 1.943 1_554 S
O72 Zn71 1.962 1_545 S
O72 C77 1.254 1_554 S
O73 Zn70 2.031 1_556 S
O73 C77 1.269 . S
O74 Zn71 1.986 . S
O74 C81 1.262 . S
O75 Zn70 2.049 . S
O75 C83 1.260 . S
O76 Zn71 1.996 1_545 S
O76 C83 1.257 . S
C77 O72 1.254 1_556 S
C77 O73 1.269 . S
C78 O79 1.249 . S
C78 O80 1.270 1_565 S
O79 Zn71 1.943 1_556 S
O79 C78 1.249 . S
O80 Zn70 2.067 1_556 S
O80 C78 1.270 1_545 S
C81 O74 1.262 . S
C81 O82 1.232 . S
O82 C81 1.232 . S
C83 O75 1.260 . S
C83 O76 1.257 . S
Zn84 O87 2.031 . S
Zn84 O89 2.049 . S
Zn84 O94 2.067 . S
Zn85 O86 1.962 . S
Zn85 O88 1.986 . S
Zn85 O90 1.996 . S
Zn85 O93 1.943 . S
O86 Zn85 1.962 . S
O86 C91 1.254 . S
O87 Zn84 2.031 . S
O87 C91 1.269 . S
O88 Zn85 1.986 . S
O88 C95 1.262 . S
O89 Zn84 2.049 . S
O89 C97 1.260 . S
O90 Zn85 1.996 . S
O90 C97 1.257 . S
C91 O86 1.254 . S
C91 O87 1.269 . S
C92 O93 1.249 . S
C92 O94 1.270 . S
O93 Zn85 1.943 . S
O93 C92 1.249 . S
O94 Zn84 2.067 . S
O94 C92 1.270 . S
C95 O88 1.262 . S
C95 O96 1.232 . S
O96 C95 1.232 . S
C97 O89 1.260 . S
C97 O90 1.257 . S
Zn98 O101 2.031 . S
Zn98 O103 2.049 . S
Zn98 O108 2.067 . S
Zn99 O100 1.962 . S
Zn99 O102 1.986 1_565 S
Zn99 O104 1.996 . S
Zn99 O107 1.943 . S
O100 Zn99 1.962 . S
O100 C105 1.254 . S
O101 Zn98 2.031 . S
O101 C105 1.269 . S
O102 Zn99 1.986 1_545 S
O102 C109 1.262 . S
O103 Zn98 2.049 . S
O103 C111 1.260 . S
O104 Zn99 1.996 . S
O104 C111 1.257 . S
C105 O100 1.254 . S
C105 O101 1.269 . S
C106 O107 1.249 . S
C106 O108 1.270 . S
O107 Zn99 1.943 . S
O107 C106 1.249 . S
O108 Zn98 2.067 . S
O108 C106 1.270 . S
C109 O102 1.262 . S
C109 O110 1.232 . S
O110 C109 1.232 . S
C111 O103 1.260 . S
C111 O104 1.257 . S
Zn112 O115 2.031 . S
Zn112 O117 2.049 . S
Zn112 O122 2.067 . S
Zn113 O114 1.962 1_455 S
Zn113 O116 1.986 . S
Zn113 O118 1.996 . S
Zn113 O121 1.943 . S
O114 Zn113 1.962 1_655 S
O114 C119 1.254 . S
O115 Zn112 2.031 . S
O115 C119 1.269 1_455 S
O116 Zn113 1.986 . S
O116 C123 1.262 . S
O117 Zn112 2.049 . S
O117 C125 1.260 . S
O118 Zn113 1.996 . S
O118 C125 1.257 . S
C119 O114 1.254 . S
C119 O115 1.269 1_655 S
C120 O121 1.249 . S
C120 O122 1.270 . S
O121 Zn113 1.943 . S
O121 C120 1.249 . S
O122 Zn112 2.067 . S
O122 C120 1.270 . S
C123 O116 1.262 . S
C123 O124 1.232 . S
O124 C123 1.232 . S
C125 O117 1.260 . S
C125 O118 1.257 . S
Zn126 O129 2.031 . S
Zn126 O131 2.049 . S
Zn126 O136 2.067 . S
Zn127 O128 1.962 1_565 S
Zn127 O130 1.986 . S
Zn127 O132 1.996 . S
Zn127 O135 1.943 . S
O128 Zn127 1.962 1_545 S
O128 C133 1.254 . S
O129 Zn126 2.031 . S
O129 C133 1.269 1_565 S
O130 Zn127 1.986 . S
O130 C137 1.262 . S
O131 Zn126 2.049 . S
O131 C139 1.260 . S
O132 Zn127 1.996 . S
O132 C139 1.257 . S
C133 O128 1.254 . S
C133 O129 1.269 1_545 S
C134 O135 1.249 . S
C134 O136 1.270 . S
O135 Zn127 1.943 . S
O135 C134 1.249 . S
O136 Zn126 2.067 . S
O136 C134 1.270 . S
C137 O130 1.262 . S
C137 O138 1.232 . S
O138 C137 1.232 . S
C139 O131 1.260 . S
C139 O132 1.257 . S
Zn140 O143 2.031 . S
Zn140 O145 2.049 . S
Zn140 O150 2.067 . S
Zn141 O142 1.962 1_455 S
Zn141 O144 1.986 . S
Zn141 O146 1.996 . S
Zn141 O149 1.943 . S
O142 Zn141 1.962 1_655 S
O142 C147 1.254 . S
O143 Zn140 2.031 . S
O143 C147 1.269 1_455 S
O144 Zn141 1.986 . S
O144 C151 1.262 . S
O145 Zn140 2.049 . S
O145 C153 1.260 . S
O146 Zn141 1.996 . S
O146 C153 1.257 . S
C147 O142 1.254 . S
C147 O143 1.269 1_655 S
C148 O149 1.249 . S
C148 O150 1.270 . S
O149 Zn141 1.943 . S
O149 C148 1.249 . S
O150 Zn140 2.067 . S
O150 C148 1.270 . S
C151 O144 1.262 . S
C151 O152 1.232 . S
O152 C151 1.232 . S
C153 O145 1.260 . S
C153 O146 1.257 . S
Zn154 O157 2.031 . S
Zn154 O159 2.049 . S
Zn154 O164 2.067 . S
Zn155 O156 1.962 . S
Zn155 O158 1.986 . S
Zn155 O160 1.996 . S
Zn155 O163 1.943 . S
O156 Zn155 1.962 . S
O156 C161 1.254 . S
O157 Zn154 2.031 . S
O157 C161 1.269 . S
O158 Zn155 1.986 . S
O158 C165 1.262 . S
O159 Zn154 2.049 . S
O159 C167 1.260 . S
O160 Zn155 1.996 . S
O160 C167 1.257 . S
C161 O156 1.254 . S
C161 O157 1.269 . S
C162 O163 1.249 . S
C162 O164 1.270 . S
O163 Zn155 1.943 . S
O163 C162 1.249 . S
O164 Zn154 2.067 . S
O164 C162 1.270 . S
C165 O158 1.262 . S
C165 O166 1.232 . S
O166 C165 1.232 . S
C167 O159 1.260 . S
C167 O160 1.257 . S
Zn168 O171 2.031 . S
Zn168 O173 2.049 . S
Zn168 O178 2.067 . S
Zn169 O170 1.962 1_545 S
Zn169 O172 1.986 . S
Zn169 O174 1.996 . S
Zn169 O177 1.943 . S
O170 Zn169 1.962 1_565 S
O170 C175 1.254 . S
O171 Zn168 2.031 . S
O171 C175 1.269 1_545 S
O172 Zn169 1.986 . S
O172 C179 1.262 . S
O173 Zn168 2.049 . S
O173 C181 1.260 . S
O174 Zn169 1.996 . S
O174 C181 1.257 . S
C175 O170 1.254 . S
C175 O171 1.269 1_565 S
C176 O177 1.249 . S
C176 O178 1.270 . S
O177 Zn169 1.943 . S
O177 C176 1.249 . S
O178 Zn168 2.067 . S
O178 C176 1.270 . S
C179 O172 1.262 . S
C179 O180 1.232 . S
O180 C179 1.232 . S
C181 O173 1.260 . S
C181 O174 1.257 . S
Zn182 O185 2.031 . S
Zn182 O187 2.049 . S
Zn182 O192 2.067 . S
Zn183 O184 1.962 1_655 S
Zn183 O186 1.986 . S
Zn183 O188 1.996 . S
Zn183 O191 1.943 . S
O184 Zn183 1.962 1_455 S
O184 C189 1.254 . S
O185 Zn182 2.031 . S
O185 C189 1.269 1_655 S
O186 Zn183 1.986 . S
O186 C193 1.262 . S
O187 Zn182 2.049 . S
O187 C195 1.260 . S
O188 Zn183 1.996 . S
O188 C195 1.257 . S
C189 O184 1.254 . S
C189 O185 1.269 1_455 S
C190 O191 1.249 . S
C190 O192 1.270 . S
O191 Zn183 1.943 . S
O191 C190 1.249 . S
O192 Zn182 2.067 . S
O192 C190 1.270 . S
C193 O186 1.262 . S
C193 O194 1.232 . S
O194 C193 1.232 . S
C195 O187 1.260 . S
C195 O188 1.257 . S
Zn196 O199 2.031 . S
Zn196 O201 2.049 . S
Zn196 O206 2.067 . S
Zn197 O198 1.962 . S
Zn197 O200 1.986 . S
Zn197 O202 1.996 . S
Zn197 O205 1.943 . S
O198 Zn197 1.962 . S
O198 C203 1.254 . S
O199 Zn196 2.031 . S
O199 C203 1.269 . S
O200 Zn197 1.986 . S
O200 C207 1.262 . S
O201 Zn196 2.049 . S
O201 C209 1.260 . S
O202 Zn197 1.996 . S
O202 C209 1.257 . S
C203 O198 1.254 . S
C203 O199 1.269 . S
C204 O205 1.249 . S
C204 O206 1.270 . S
O205 Zn197 1.943 . S
O205 C204 1.249 . S
O206 Zn196 2.067 . S
O206 C204 1.270 . S
C207 O200 1.262 . S
C207 O208 1.232 . S
O208 C207 1.232 . S
C209 O201 1.260 . S
C209 O202 1.257 . S
Zn210 O213 2.031 . S
Zn210 O215 2.049 . S
Zn210 O220 2.067 . S
Zn211 O212 1.962 . S
Zn211 O214 1.986 . S
Zn211 O216 1.996 . S
Zn211 O219 1.943 . S
O212 Zn211 1.962 . S
O212 C217 1.254 . S
O213 Zn210 2.031 . S
O213 C217 1.269 . S
O214 Zn211 1.986 . S
O214 C221 1.262 . S
O215 Zn210 2.049 . S
O215 C223 1.260 . S
O216 Zn211 1.996 . S
O216 C223 1.257 . S
C217 O212 1.254 . S
C217 O213 1.269 . S
C218 O219 1.249 . S
C218 O220 1.270 . S
O219 Zn211 1.943 . S
O219 C218 1.249 . S
O220 Zn210 2.067 . S
O220 C218 1.270 . S
C221 O214 1.262 . S
C221 O222 1.232 . S
O222 C221 1.232 . S
C223 O215 1.260 . S
C223 O216 1.257 . S
Zn224 O227 2.031 . S
Zn224 O229 2.049 . S
Zn224 O234 2.067 . S
Zn225 O226 1.962 . S
Zn225 O228 1.986 1_545 S
Zn225 O230 1.996 . S
Zn225 O233 1.943 . S
O226 Zn225 1.962 . S
O226 C231 1.254 . S
O227 Zn224 2.031 . S
O227 C231 1.269 . S
O228 Zn225 1.986 1_565 S
O228 C235 1.262 . S
O229 Zn224 2.049 . S
O229 C237 1.260 . S
O230 Zn225 1.996 . S
O230 C237 1.257 . S
C231 O226 1.254 . S
C231 O227 1.269 . S
C232 O233 1.249 . S
C232 O234 1.270 . S
O233 Zn225 1.943 . S
O233 C232 1.249 . S
O234 Zn224 2.067 . S
O234 C232 1.270 . S
C235 O228 1.262 . S
C235 O236 1.232 . S
O236 C235 1.232 . S
C237 O229 1.260 . S
C237 O230 1.257 . S
Zn238 O241 2.031 . S
Zn238 O243 2.049 . S
Zn238 O248 2.067 . S
Zn239 O240 1.962 1_655 S
Zn239 O242 1.986 . S
Zn239 O244 1.996 . S
Zn239 O247 1.943 . S
O240 Zn239 1.962 1_455 S
O240 C245 1.254 . S
O241 Zn238 2.031 . S
O241 C245 1.269 1_655 S
O242 Zn239 1.986 . S
O242 C249 1.262 . S
O243 Zn238 2.049 . S
O243 C251 1.260 . S
O244 Zn239 1.996 . S
O244 C251 1.257 . S
C245 O240 1.254 . S
C245 O241 1.269 1_455 S
C246 O247 1.249 . S
C246 O248 1.270 . S
O247 Zn239 1.943 . S
O247 C246 1.249 . S
O248 Zn238 2.067 . S
O248 C246 1.270 . S
C249 O242 1.262 . S
C249 O250 1.232 . S
O250 C249 1.232 . S
C251 O243 1.260 . S
C251 O244 1.257 . S
H252 C279 0.929 . S
N253 C278 1.433 . S
N253 C284 1.435 . S
N253 C290 1.423 . S
H254 C280 0.930 . S
H255 C283 0.931 . S
H256 C282 0.929 . S
H257 C285 0.930 . S
H258 C286 0.932 . S
H259 C289 0.929 . S
H260 C288 0.931 . S
H261 C291 0.929 . S
H262 C295 0.932 . S
H263 C292 0.931 . S
H264 C294 0.929 . S
H265 C297 0.929 . S
H266 C298 0.930 . S
H267 C300 0.929 . S
H268 C301 0.931 . S
H269 C303 0.930 . S
H270 C304 0.932 . S
H271 C306 0.931 . S
H272 C307 0.929 . S
H273 C309 0.929 . S
H274 C310 0.931 . S
H275 C312 0.929 . S
N276 C296 1.433 . S
N276 C302 1.435 . S
N276 C308 1.423 . S
H277 C313 0.932 . S
C278 N253 1.433 . S
C278 C279 1.363 . S
C278 C283 1.370 . S
C279 H252 0.929 . S
C279 C278 1.363 . S
C279 C280 1.385 . S
C280 H254 0.930 . S
C280 C279 1.385 . S
C280 C281 1.357 . S
C281 C280 1.357 . S
C281 C282 1.406 . S
C282 H256 0.929 . S
C282 C281 1.406 . S
C282 C283 1.391 . S
C283 H255 0.931 . S
C283 C278 1.370 . S
C283 C282 1.391 . S
C284 N253 1.435 . S
C284 C285 1.358 . S
C284 C289 1.371 . S
C285 H257 0.930 . S
C285 C284 1.358 . S
C285 C286 1.405 . S
C286 H258 0.932 . S
C286 C285 1.405 . S
C286 C287 1.383 . S
C287 C286 1.383 . S
C287 C288 1.393 . S
C288 H260 0.931 . S
C288 C287 1.393 . S
C288 C289 1.382 . S
C289 H259 0.929 . S
C289 C284 1.371 . S
C289 C288 1.382 . S
C290 N253 1.423 . S
C290 C291 1.362 . S
C290 C295 1.388 . S
C291 H261 0.929 . S
C291 C290 1.362 . S
C291 C292 1.376 . S
C292 H263 0.931 . S
C292 C291 1.376 . S
C292 C293 1.396 . S
C293 C292 1.396 . S
C293 C294 1.348 . S
C293 C311 1.472 . S
C294 H264 0.929 . S
C294 C293 1.348 . S
C294 C295 1.443 . S
C295 H262 0.932 . S
C295 C290 1.388 . S
C295 C294 1.443 . S
C296 N276 1.433 . S
C296 C297 1.363 . S
C296 C301 1.370 . S
C297 H265 0.929 . S
C297 C296 1.363 . S
C297 C298 1.385 . S
C298 H266 0.930 . S
C298 C297 1.385 . S
C298 C299 1.357 . S
C299 C298 1.357 . S
C299 C300 1.406 . S
C300 H267 0.929 . S
C300 C299 1.406 . S
C300 C301 1.391 . S
C301 H268 0.931 . S
C301 C296 1.370 . S
C301 C300 1.391 . S
C302 N276 1.435 . S
C302 C303 1.358 . S
C302 C307 1.371 . S
C303 H269 0.930 . S
C303 C302 1.358 . S
C303 C304 1.405 . S
C304 H270 0.932 . S
C304 C303 1.405 . S
C304 C305 1.383 . S
C305 C304 1.383 . S
C305 C306 1.393 . S
C306 H271 0.931 . S
C306 C305 1.393 . S
C306 C307 1.382 . S
C307 H272 0.929 . S
C307 C302 1.371 . S
C307 C306 1.382 . S
C308 N276 1.423 . S
C308 C309 1.362 . S
C308 C313 1.388 . S
C309 H273 0.929 . S
C309 C308 1.362 . S
C309 C310 1.376 . S
C310 H274 0.931 . S
C310 C309 1.376 . S
C310 C311 1.396 . S
C311 C293 1.472 . S
C311 C310 1.396 . S
C311 C312 1.348 . S
C312 H275 0.929 . S
C312 C311 1.348 . S
C312 C313 1.443 . S
C313 H277 0.932 . S
C313 C308 1.388 . S
C313 C312 1.443 . S
H314 C341 0.929 . S
N315 C340 1.433 . S
N315 C346 1.435 . S
N315 C352 1.423 . S
H316 C342 0.930 . S
H317 C345 0.931 . S
H318 C344 0.929 . S
H319 C347 0.930 . S
H320 C348 0.932 . S
H321 C351 0.929 . S
H322 C350 0.931 . S
H323 C353 0.929 . S
H324 C357 0.932 . S
H325 C354 0.931 . S
H326 C356 0.929 . S
H327 C359 0.929 . S
H328 C360 0.930 . S
H329 C362 0.929 . S
H330 C363 0.931 . S
H331 C365 0.930 . S
H332 C366 0.932 . S
H333 C368 0.931 . S
H334 C369 0.929 . S
H335 C371 0.929 . S
H336 C372 0.931 . S
H337 C374 0.929 . S
N338 C358 1.433 . S
N338 C364 1.435 . S
N338 C370 1.423 . S
H339 C375 0.932 . S
C340 N315 1.433 . S
C340 C341 1.363 . S
C340 C345 1.370 . S
C341 H314 0.929 . S
C341 C340 1.363 . S
C341 C342 1.385 . S
C342 H316 0.930 . S
C342 C341 1.385 . S
C342 C343 1.357 . S
C343 C342 1.357 . S
C343 C344 1.406 . S
C344 H318 0.929 . S
C344 C343 1.406 . S
C344 C345 1.391 . S
C345 H317 0.931 . S
C345 C340 1.370 . S
C345 C344 1.391 . S
C346 N315 1.435 . S
C346 C347 1.358 . S
C346 C351 1.371 . S
C347 H319 0.930 . S
C347 C346 1.358 . S
C347 C348 1.405 . S
C348 H320 0.932 . S
C348 C347 1.405 . S
C348 C349 1.383 . S
C349 C348 1.383 . S
C349 C350 1.393 . S
C350 H322 0.931 . S
C350 C349 1.393 . S
C350 C351 1.382 . S
C351 H321 0.929 . S
C351 C346 1.371 . S
C351 C350 1.382 . S
C352 N315 1.423 . S
C352 C353 1.362 . S
C352 C357 1.388 . S
C353 H323 0.929 . S
C353 C352 1.362 . S
C353 C354 1.376 . S
C354 H325 0.931 . S
C354 C353 1.376 . S
C354 C355 1.396 . S
C355 C354 1.396 . S
C355 C356 1.348 . S
C355 C373 1.472 . S
C356 H326 0.929 . S
C356 C355 1.348 . S
C356 C357 1.443 . S
C357 H324 0.932 . S
C357 C352 1.388 . S
C357 C356 1.443 . S
C358 N338 1.433 . S
C358 C359 1.363 . S
C358 C363 1.370 . S
C359 H327 0.929 . S
C359 C358 1.363 . S
C359 C360 1.385 . S
C360 H328 0.930 . S
C360 C359 1.385 . S
C360 C361 1.357 . S
C361 C360 1.357 . S
C361 C362 1.406 . S
C362 H329 0.929 . S
C362 C361 1.406 . S
C362 C363 1.391 . S
C363 H330 0.931 . S
C363 C358 1.370 . S
C363 C362 1.391 . S
C364 N338 1.435 . S
C364 C365 1.358 . S
C364 C369 1.371 . S
C365 H331 0.930 . S
C365 C364 1.358 . S
C365 C366 1.405 . S
C366 H332 0.932 . S
C366 C365 1.405 . S
C366 C367 1.383 . S
C367 C366 1.383 . S
C367 C368 1.393 . S
C368 H333 0.931 . S
C368 C367 1.393 . S
C368 C369 1.382 . S
C369 H334 0.929 . S
C369 C364 1.371 . S
C369 C368 1.382 . S
C370 N338 1.423 . S
C370 C371 1.362 . S
C370 C375 1.388 . S
C371 H335 0.929 . S
C371 C370 1.362 . S
C371 C372 1.376 . S
C372 H336 0.931 . S
C372 C371 1.376 . S
C372 C373 1.396 . S
C373 C355 1.472 . S
C373 C372 1.396 . S
C373 C374 1.348 . S
C374 H337 0.929 . S
C374 C373 1.348 . S
C374 C375 1.443 . S
C375 H339 0.932 . S
C375 C370 1.388 . S
C375 C374 1.443 . S
H376 C403 0.929 . S
N377 C402 1.433 . S
N377 C408 1.435 . S
N377 C414 1.423 . S
H378 C404 0.930 . S
H379 C407 0.931 . S
H380 C406 0.929 . S
H381 C409 0.930 . S
H382 C410 0.932 . S
H383 C413 0.929 . S
H384 C412 0.931 . S
H385 C415 0.929 . S
H386 C419 0.932 . S
H387 C416 0.931 . S
H388 C418 0.929 . S
H389 C421 0.929 . S
H390 C422 0.930 . S
H391 C424 0.929 . S
H392 C425 0.931 . S
H393 C427 0.930 . S
H394 C428 0.932 . S
H395 C430 0.931 . S
H396 C431 0.929 . S
H397 C433 0.929 . S
H398 C434 0.931 . S
H399 C436 0.929 . S
N400 C420 1.433 . S
N400 C426 1.435 . S
N400 C432 1.423 . S
H401 C437 0.932 . S
C402 N377 1.433 . S
C402 C403 1.363 . S
C402 C407 1.370 . S
C403 H376 0.929 . S
C403 C402 1.363 . S
C403 C404 1.385 . S
C404 H378 0.930 . S
C404 C403 1.385 . S
C404 C405 1.357 . S
C405 C404 1.357 . S
C405 C406 1.406 . S
C406 H380 0.929 . S
C406 C405 1.406 . S
C406 C407 1.391 . S
C407 H379 0.931 . S
C407 C402 1.370 . S
C407 C406 1.391 . S
C408 N377 1.435 . S
C408 C409 1.358 . S
C408 C413 1.371 . S
C409 H381 0.930 . S
C409 C408 1.358 . S
C409 C410 1.405 . S
C410 H382 0.932 . S
C410 C409 1.405 . S
C410 C411 1.383 . S
C411 C410 1.383 . S
C411 C412 1.393 . S
C412 H384 0.931 . S
C412 C411 1.393 . S
C412 C413 1.382 . S
C413 H383 0.929 . S
C413 C408 1.371 . S
C413 C412 1.382 . S
C414 N377 1.423 . S
C414 C415 1.362 . S
C414 C419 1.388 . S
C415 H385 0.929 . S
C415 C414 1.362 . S
C415 C416 1.376 . S
C416 H387 0.931 . S
C416 C415 1.376 . S
C416 C417 1.396 . S
C417 C416 1.396 . S
C417 C418 1.348 . S
C417 C435 1.472 . S
C418 H388 0.929 . S
C418 C417 1.348 . S
C418 C419 1.443 . S
C419 H386 0.932 . S
C419 C414 1.388 . S
C419 C418 1.443 . S
C420 N400 1.433 . S
C420 C421 1.363 . S
C420 C425 1.370 . S
C421 H389 0.929 . S
C421 C420 1.363 . S
C421 C422 1.385 . S
C422 H390 0.930 . S
C422 C421 1.385 . S
C422 C423 1.357 . S
C423 C422 1.357 . S
C423 C424 1.406 . S
C424 H391 0.929 . S
C424 C423 1.406 . S
C424 C425 1.391 . S
C425 H392 0.931 . S
C425 C420 1.370 . S
C425 C424 1.391 . S
C426 N400 1.435 . S
C426 C427 1.358 . S
C426 C431 1.371 . S
C427 H393 0.930 . S
C427 C426 1.358 . S
C427 C428 1.405 . S
C428 H394 0.932 . S
C428 C427 1.405 . S
C428 C429 1.383 . S
C429 C428 1.383 . S
C429 C430 1.393 . S
C430 H395 0.931 . S
C430 C429 1.393 . S
C430 C431 1.382 . S
C431 H396 0.929 . S
C431 C426 1.371 . S
C431 C430 1.382 . S
C432 N400 1.423 . S
C432 C433 1.362 . S
C432 C437 1.388 . S
C433 H397 0.929 . S
C433 C432 1.362 . S
C433 C434 1.376 . S
C434 H398 0.931 . S
C434 C433 1.376 . S
C434 C435 1.396 . S
C435 C417 1.472 . S
C435 C434 1.396 . S
C435 C436 1.348 . S
C436 H399 0.929 . S
C436 C435 1.348 . S
C436 C437 1.443 . S
C437 H401 0.932 . S
C437 C432 1.388 . S
C437 C436 1.443 . S
H438 C465 0.929 . S
N439 C464 1.433 . S
N439 C470 1.435 . S
N439 C476 1.423 . S
H440 C466 0.930 . S
H441 C469 0.931 . S
H442 C468 0.929 . S
H443 C471 0.930 . S
H444 C472 0.932 . S
H445 C475 0.929 . S
H446 C474 0.931 1_554 S
H447 C477 0.929 . S
H448 C481 0.932 . S
H449 C478 0.931 . S
H450 C480 0.929 . S
H451 C483 0.929 . S
H452 C484 0.930 . S
H453 C486 0.929 . S
H454 C487 0.931 . S
H455 C489 0.930 . S
H456 C490 0.932 . S
H457 C492 0.931 1_554 S
H458 C493 0.929 . S
H459 C495 0.929 . S
H460 C496 0.931 . S
H461 C498 0.929 . S
N462 C482 1.433 . S
N462 C488 1.435 . S
N462 C494 1.423 . S
H463 C499 0.932 . S
C464 N439 1.433 . S
C464 C465 1.363 . S
C464 C469 1.370 . S
C465 H438 0.929 . S
C465 C464 1.363 . S
C465 C466 1.385 . S
C466 H440 0.930 . S
C466 C465 1.385 . S
C466 C467 1.357 . S
C467 C466 1.357 . S
C467 C468 1.406 . S
C468 H442 0.929 . S
C468 C467 1.406 . S
C468 C469 1.391 . S
C469 H441 0.931 . S
C469 C464 1.370 . S
C469 C468 1.391 . S
C470 N439 1.435 . S
C470 C471 1.358 . S
C470 C475 1.371 . S
C471 H443 0.930 . S
C471 C470 1.358 . S
C471 C472 1.405 . S
C472 H444 0.932 . S
C472 C471 1.405 . S
C472 C473 1.383 . S
C473 C472 1.383 . S
C473 C474 1.393 . S
C474 H446 0.931 1_556 S
C474 C473 1.393 . S
C474 C475 1.382 . S
C475 H445 0.929 . S
C475 C470 1.371 . S
C475 C474 1.382 . S
C476 N439 1.423 . S
C476 C477 1.362 . S
C476 C481 1.388 . S
C477 H447 0.929 . S
C477 C476 1.362 . S
C477 C478 1.376 . S
C478 H449 0.931 . S
C478 C477 1.376 . S
C478 C479 1.396 . S
C479 C478 1.396 . S
C479 C480 1.348 . S
C479 C497 1.472 . S
C480 H450 0.929 . S
C480 C479 1.348 . S
C480 C481 1.443 . S
C481 H448 0.932 . S
C481 C476 1.388 . S
C481 C480 1.443 . S
C482 N462 1.433 . S
C482 C483 1.363 . S
C482 C487 1.370 . S
C483 H451 0.929 . S
C483 C482 1.363 . S
C483 C484 1.385 . S
C484 H452 0.930 . S
C484 C483 1.385 . S
C484 C485 1.357 . S
C485 C484 1.357 . S
C485 C486 1.406 . S
C486 H453 0.929 . S
C486 C485 1.406 . S
C486 C487 1.391 . S
C487 H454 0.931 . S
C487 C482 1.370 . S
C487 C486 1.391 . S
C488 N462 1.435 . S
C488 C489 1.358 . S
C488 C493 1.371 . S
C489 H455 0.930 . S
C489 C488 1.358 . S
C489 C490 1.405 . S
C490 H456 0.932 . S
C490 C489 1.405 . S
C490 C491 1.383 . S
C491 C490 1.383 . S
C491 C492 1.393 . S
C492 H457 0.931 1_556 S
C492 C491 1.393 . S
C492 C493 1.382 . S
C493 H458 0.929 . S
C493 C488 1.371 . S
C493 C492 1.382 . S
C494 N462 1.423 . S
C494 C495 1.362 . S
C494 C499 1.388 . S
C495 H459 0.929 . S
C495 C494 1.362 . S
C495 C496 1.376 . S
C496 H460 0.931 . S
C496 C495 1.376 . S
C496 C497 1.396 . S
C497 C479 1.472 . S
C497 C496 1.396 . S
C497 C498 1.348 . S
C498 H461 0.929 . S
C498 C497 1.348 . S
C498 C499 1.443 . S
C499 H463 0.932 . S
C499 C494 1.388 . S
C499 C498 1.443 . S
H500 C527 0.929 . S
N501 C526 1.433 . S
N501 C532 1.435 . S
N501 C538 1.423 . S
H502 C528 0.930 . S
H503 C531 0.931 . S
H504 C530 0.929 . S
H505 C533 0.930 . S
H506 C534 0.932 . S
H507 C537 0.929 . S
H508 C536 0.931 1_554 S
H509 C539 0.929 . S
H510 C543 0.932 . S
H511 C540 0.931 . S
H512 C542 0.929 . S
H513 C545 0.929 . S
H514 C546 0.930 . S
H515 C548 0.929 . S
H516 C549 0.931 . S
H517 C551 0.930 . S
H518 C552 0.932 . S
H519 C554 0.931 1_554 S
H520 C555 0.929 . S
H521 C557 0.929 . S
H522 C558 0.931 . S
H523 C560 0.929 . S
N524 C544 1.433 . S
N524 C550 1.435 . S
N524 C556 1.423 . S
H525 C561 0.932 . S
C526 N501 1.433 . S
C526 C527 1.363 . S
C526 C531 1.370 . S
C527 H500 0.929 . S
C527 C526 1.363 . S
C527 C528 1.385 . S
C528 H502 0.930 . S
C528 C527 1.385 . S
C528 C529 1.357 . S
C529 C528 1.357 . S
C529 C530 1.406 . S
C530 H504 0.929 . S
C530 C529 1.406 . S
C530 C531 1.391 . S
C531 H503 0.931 . S
C531 C526 1.370 . S
C531 C530 1.391 . S
C532 N501 1.435 . S
C532 C533 1.358 . S
C532 C537 1.371 . S
C533 H505 0.930 . S
C533 C532 1.358 . S
C533 C534 1.405 . S
C534 H506 0.932 . S
C534 C533 1.405 . S
C534 C535 1.383 . S
C535 C534 1.383 . S
C535 C536 1.393 . S
C536 H508 0.931 1_556 S
C536 C535 1.393 . S
C536 C537 1.382 . S
C537 H507 0.929 . S
C537 C532 1.371 . S
C537 C536 1.382 . S
C538 N501 1.423 . S
C538 C539 1.362 . S
C538 C543 1.388 . S
C539 H509 0.929 . S
C539 C538 1.362 . S
C539 C540 1.376 . S
C540 H511 0.931 . S
C540 C539 1.376 . S
C540 C541 1.396 . S
C541 C540 1.396 . S
C541 C542 1.348 . S
C541 C559 1.472 . S
C542 H512 0.929 . S
C542 C541 1.348 . S
C542 C543 1.443 . S
C543 H510 0.932 . S
C543 C538 1.388 . S
C543 C542 1.443 . S
C544 N524 1.433 . S
C544 C545 1.363 . S
C544 C549 1.370 . S
C545 H513 0.929 . S
C545 C544 1.363 . S
C545 C546 1.385 . S
C546 H514 0.930 . S
C546 C545 1.385 . S
C546 C547 1.357 . S
C547 C546 1.357 . S
C547 C548 1.406 . S
C548 H515 0.929 . S
C548 C547 1.406 . S
C548 C549 1.391 . S
C549 H516 0.931 . S
C549 C544 1.370 . S
C549 C548 1.391 . S
C550 N524 1.435 . S
C550 C551 1.358 . S
C550 C555 1.371 . S
C551 H517 0.930 . S
C551 C550 1.358 . S
C551 C552 1.405 . S
C552 H518 0.932 . S
C552 C551 1.405 . S
C552 C553 1.383 . S
C553 C552 1.383 . S
C553 C554 1.393 . S
C554 H519 0.931 1_556 S
C554 C553 1.393 . S
C554 C555 1.382 . S
C555 H520 0.929 . S
C555 C550 1.371 . S
C555 C554 1.382 . S
C556 N524 1.423 . S
C556 C557 1.362 . S
C556 C561 1.388 . S
C557 H521 0.929 . S
C557 C556 1.362 . S
C557 C558 1.376 . S
C558 H522 0.931 . S
C558 C557 1.376 . S
C558 C559 1.396 . S
C559 C541 1.472 . S
C559 C558 1.396 . S
C559 C560 1.348 . S
C560 H523 0.929 . S
C560 C559 1.348 . S
C560 C561 1.443 . S
C561 H525 0.932 . S
C561 C556 1.388 . S
C561 C560 1.443 . S
H562 C589 0.929 . S
N563 C588 1.433 . S
N563 C594 1.435 . S
N563 C600 1.423 . S
H564 C590 0.930 . S
H565 C593 0.931 . S
H566 C592 0.929 . S
H567 C595 0.930 . S
H568 C596 0.932 . S
H569 C599 0.929 . S
H570 C598 0.931 1_554 S
H571 C601 0.929 . S
H572 C605 0.932 . S
H573 C602 0.931 . S
H574 C604 0.929 . S
H575 C607 0.929 . S
H576 C608 0.930 . S
H577 C610 0.929 . S
H578 C611 0.931 . S
H579 C613 0.930 . S
H580 C614 0.932 . S
H581 C616 0.931 1_554 S
H582 C617 0.929 . S
H583 C619 0.929 . S
H584 C620 0.931 . S
H585 C622 0.929 . S
N586 C606 1.433 . S
N586 C612 1.435 . S
N586 C618 1.423 . S
H587 C623 0.932 . S
C588 N563 1.433 . S
C588 C589 1.363 . S
C588 C593 1.370 . S
C589 H562 0.929 . S
C589 C588 1.363 . S
C589 C590 1.385 . S
C590 H564 0.930 . S
C590 C589 1.385 . S
C590 C591 1.357 . S
C591 C590 1.357 . S
C591 C592 1.406 . S
C592 H566 0.929 . S
C592 C591 1.406 . S
C592 C593 1.391 . S
C593 H565 0.931 . S
C593 C588 1.370 . S
C593 C592 1.391 . S
C594 N563 1.435 . S
C594 C595 1.358 . S
C594 C599 1.371 . S
C595 H567 0.930 . S
C595 C594 1.358 . S
C595 C596 1.405 . S
C596 H568 0.932 . S
C596 C595 1.405 . S
C596 C597 1.383 . S
C597 C596 1.383 . S
C597 C598 1.393 . S
C598 H570 0.931 1_556 S
C598 C597 1.393 . S
C598 C599 1.382 . S
C599 H569 0.929 . S
C599 C594 1.371 . S
C599 C598 1.382 . S
C600 N563 1.423 . S
C600 C601 1.362 . S
C600 C605 1.388 . S
C601 H571 0.929 . S
C601 C600 1.362 . S
C601 C602 1.376 . S
C602 H573 0.931 . S
C602 C601 1.376 . S
C602 C603 1.396 . S
C603 C602 1.396 . S
C603 C604 1.348 . S
C603 C621 1.472 . S
C604 H574 0.929 . S
C604 C603 1.348 . S
C604 C605 1.443 . S
C605 H572 0.932 . S
C605 C600 1.388 . S
C605 C604 1.443 . S
C606 N586 1.433 . S
C606 C607 1.363 . S
C606 C611 1.370 . S
C607 H575 0.929 . S
C607 C606 1.363 . S
C607 C608 1.385 . S
C608 H576 0.930 . S
C608 C607 1.385 . S
C608 C609 1.357 . S
C609 C608 1.357 . S
C609 C610 1.406 . S
C610 H577 0.929 . S
C610 C609 1.406 . S
C610 C611 1.391 . S
C611 H578 0.931 . S
C611 C606 1.370 . S
C611 C610 1.391 . S
C612 N586 1.435 . S
C612 C613 1.358 . S
C612 C617 1.371 . S
C613 H579 0.930 . S
C613 C612 1.358 . S
C613 C614 1.405 . S
C614 H580 0.932 . S
C614 C613 1.405 . S
C614 C615 1.383 . S
C615 C614 1.383 . S
C615 C616 1.393 . S
C616 H581 0.931 1_556 S
C616 C615 1.393 . S
C616 C617 1.382 . S
C617 H582 0.929 . S
C617 C612 1.371 . S
C617 C616 1.382 . S
C618 N586 1.423 . S
C618 C619 1.362 . S
C618 C623 1.388 . S
C619 H583 0.929 . S
C619 C618 1.362 . S
C619 C620 1.376 . S
C620 H584 0.931 . S
C620 C619 1.376 . S
C620 C621 1.396 . S
C621 C603 1.472 . S
C621 C620 1.396 . S
C621 C622 1.348 . S
C622 H585 0.929 . S
C622 C621 1.348 . S
C622 C623 1.443 . S
C623 H587 0.932 . S
C623 C618 1.388 . S
C623 C622 1.443 . S
H624 C651 0.929 . S
N625 C650 1.433 . S
N625 C656 1.435 . S
N625 C662 1.423 . S
H626 C652 0.930 . S
H627 C655 0.931 . S
H628 C654 0.929 . S
H629 C657 0.930 . S
H630 C658 0.932 . S
H631 C661 0.929 . S
H632 C660 0.931 . S
H633 C663 0.929 . S
H634 C667 0.932 . S
H635 C664 0.931 . S
H636 C666 0.929 . S
H637 C669 0.929 . S
H638 C670 0.930 . S
H639 C672 0.929 . S
H640 C673 0.931 . S
H641 C675 0.930 . S
H642 C676 0.932 . S
H643 C678 0.931 . S
H644 C679 0.929 . S
H645 C681 0.929 . S
H646 C682 0.931 . S
H647 C684 0.929 . S
N648 C668 1.433 . S
N648 C674 1.435 . S
N648 C680 1.423 . S
H649 C685 0.932 . S
C650 N625 1.433 . S
C650 C651 1.363 . S
C650 C655 1.370 . S
C651 H624 0.929 . S
C651 C650 1.363 . S
C651 C652 1.385 . S
C652 H626 0.930 . S
C652 C651 1.385 . S
C652 C653 1.357 . S
C653 C652 1.357 . S
C653 C654 1.406 . S
C654 H628 0.929 . S
C654 C653 1.406 . S
C654 C655 1.391 . S
C655 H627 0.931 . S
C655 C650 1.370 . S
C655 C654 1.391 . S
C656 N625 1.435 . S
C656 C657 1.358 . S
C656 C661 1.371 . S
C657 H629 0.930 . S
C657 C656 1.358 . S
C657 C658 1.405 . S
C658 H630 0.932 . S
C658 C657 1.405 . S
C658 C659 1.383 . S
C659 C658 1.383 . S
C659 C660 1.393 . S
C660 H632 0.931 . S
C660 C659 1.393 . S
C660 C661 1.382 . S
C661 H631 0.929 . S
C661 C656 1.371 . S
C661 C660 1.382 . S
C662 N625 1.423 . S
C662 C663 1.362 . S
C662 C667 1.388 . S
C663 H633 0.929 . S
C663 C662 1.362 . S
C663 C664 1.376 . S
C664 H635 0.931 . S
C664 C663 1.376 . S
C664 C665 1.396 . S
C665 C664 1.396 . S
C665 C666 1.348 . S
C665 C683 1.472 . S
C666 H636 0.929 . S
C666 C665 1.348 . S
C666 C667 1.443 . S
C667 H634 0.932 . S
C667 C662 1.388 . S
C667 C666 1.443 . S
C668 N648 1.433 . S
C668 C669 1.363 . S
C668 C673 1.370 . S
C669 H637 0.929 . S
C669 C668 1.363 . S
C669 C670 1.385 . S
C670 H638 0.930 . S
C670 C669 1.385 . S
C670 C671 1.357 . S
C671 C670 1.357 . S
C671 C672 1.406 . S
C672 H639 0.929 . S
C672 C671 1.406 . S
C672 C673 1.391 . S
C673 H640 0.931 . S
C673 C668 1.370 . S
C673 C672 1.391 . S
C674 N648 1.435 . S
C674 C675 1.358 . S
C674 C679 1.371 . S
C675 H641 0.930 . S
C675 C674 1.358 . S
C675 C676 1.405 . S
C676 H642 0.932 . S
C676 C675 1.405 . S
C676 C677 1.383 . S
C677 C676 1.383 . S
C677 C678 1.393 . S
C678 H643 0.931 . S
C678 C677 1.393 . S
C678 C679 1.382 . S
C679 H644 0.929 . S
C679 C674 1.371 . S
C679 C678 1.382 . S
C680 N648 1.423 . S
C680 C681 1.362 . S
C680 C685 1.388 . S
C681 H645 0.929 . S
C681 C680 1.362 . S
C681 C682 1.376 . S
C682 H646 0.931 . S
C682 C681 1.376 . S
C682 C683 1.396 . S
C683 C665 1.472 . S
C683 C682 1.396 . S
C683 C684 1.348 . S
C684 H647 0.929 . S
C684 C683 1.348 . S
C684 C685 1.443 . S
C685 H649 0.932 . S
C685 C680 1.388 . S
C685 C684 1.443 . S
H686 C713 0.929 . S
N687 C712 1.433 . S
N687 C718 1.435 . S
N687 C724 1.423 . S
H688 C714 0.930 . S
H689 C717 0.931 . S
H690 C716 0.929 . S
H691 C719 0.930 . S
H692 C720 0.932 . S
H693 C723 0.929 . S
H694 C722 0.931 . S
H695 C725 0.929 . S
H696 C729 0.932 . S
H697 C726 0.931 . S
H698 C728 0.929 . S
H699 C731 0.929 . S
H700 C732 0.930 . S
H701 C734 0.929 . S
H702 C735 0.931 . S
H703 C737 0.930 . S
H704 C738 0.932 . S
H705 C740 0.931 . S
H706 C741 0.929 . S
H707 C743 0.929 . S
H708 C744 0.931 . S
H709 C746 0.929 . S
N710 C730 1.433 . S
N710 C736 1.435 . S
N710 C742 1.423 . S
H711 C747 0.932 . S
C712 N687 1.433 . S
C712 C713 1.363 . S
C712 C717 1.370 . S
C713 H686 0.929 . S
C713 C712 1.363 . S
C713 C714 1.385 . S
C714 H688 0.930 . S
C714 C713 1.385 . S
C714 C715 1.357 . S
C715 C714 1.357 . S
C715 C716 1.406 . S
C716 H690 0.929 . S
C716 C715 1.406 . S
C716 C717 1.391 . S
C717 H689 0.931 . S
C717 C712 1.370 . S
C717 C716 1.391 . S
C718 N687 1.435 . S
C718 C719 1.358 . S
C718 C723 1.371 . S
C719 H691 0.930 . S
C719 C718 1.358 . S
C719 C720 1.405 . S
C720 H692 0.932 . S
C720 C719 1.405 . S
C720 C721 1.383 . S
C721 C720 1.383 . S
C721 C722 1.393 . S
C722 H694 0.931 . S
C722 C721 1.393 . S
C722 C723 1.382 . S
C723 H693 0.929 . S
C723 C718 1.371 . S
C723 C722 1.382 . S
C724 N687 1.423 . S
C724 C725 1.362 . S
C724 C729 1.388 . S
C725 H695 0.929 . S
C725 C724 1.362 . S
C725 C726 1.376 . S
C726 H697 0.931 . S
C726 C725 1.376 . S
C726 C727 1.396 . S
C727 C726 1.396 . S
C727 C728 1.348 . S
C727 C745 1.472 . S
C728 H698 0.929 . S
C728 C727 1.348 . S
C728 C729 1.443 . S
C729 H696 0.932 . S
C729 C724 1.388 . S
C729 C728 1.443 . S
C730 N710 1.433 . S
C730 C731 1.363 . S
C730 C735 1.370 . S
C731 H699 0.929 . S
C731 C730 1.363 . S
C731 C732 1.385 . S
C732 H700 0.930 . S
C732 C731 1.385 . S
C732 C733 1.357 . S
C733 C732 1.357 . S
C733 C734 1.406 . S
C734 H701 0.929 . S
C734 C733 1.406 . S
C734 C735 1.391 . S
C735 H702 0.931 . S
C735 C730 1.370 . S
C735 C734 1.391 . S
C736 N710 1.435 . S
C736 C737 1.358 . S
C736 C741 1.371 . S
C737 H703 0.930 . S
C737 C736 1.358 . S
C737 C738 1.405 . S
C738 H704 0.932 . S
C738 C737 1.405 . S
C738 C739 1.383 . S
C739 C738 1.383 . S
C739 C740 1.393 . S
C740 H705 0.931 . S
C740 C739 1.393 . S
C740 C741 1.382 . S
C741 H706 0.929 . S
C741 C736 1.371 . S
C741 C740 1.382 . S
C742 N710 1.423 . S
C742 C743 1.362 . S
C742 C747 1.388 . S
C743 H707 0.929 . S
C743 C742 1.362 . S
C743 C744 1.376 . S
C744 H708 0.931 . S
C744 C743 1.376 . S
C744 C745 1.396 . S
C745 C727 1.472 . S
C745 C744 1.396 . S
C745 C746 1.348 . S
C746 H709 0.929 . S
C746 C745 1.348 . S
C746 C747 1.443 . S
C747 H711 0.932 . S
C747 C742 1.388 . S
C747 C746 1.443 . S
H748 C775 0.929 . S
N749 C774 1.433 . S
N749 C780 1.435 . S
N749 C786 1.423 . S
H750 C776 0.930 . S
H751 C779 0.931 . S
H752 C778 0.929 . S
H753 C781 0.930 . S
H754 C782 0.932 . S
H755 C785 0.929 . S
H756 C784 0.931 . S
H757 C787 0.929 . S
H758 C791 0.932 . S
H759 C788 0.931 . S
H760 C790 0.929 . S
H761 C793 0.929 . S
H762 C794 0.930 . S
H763 C796 0.929 . S
H764 C797 0.931 . S
H765 C799 0.930 . S
H766 C800 0.932 . S
H767 C802 0.931 . S
H768 C803 0.929 . S
H769 C805 0.929 . S
H770 C806 0.931 . S
H771 C808 0.929 . S
N772 C792 1.433 . S
N772 C798 1.435 . S
N772 C804 1.423 . S
H773 C809 0.932 . S
C774 N749 1.433 . S
C774 C775 1.363 . S
C774 C779 1.370 . S
C775 H748 0.929 . S
C775 C774 1.363 . S
C775 C776 1.385 . S
C776 H750 0.930 . S
C776 C775 1.385 . S
C776 C777 1.357 . S
C777 C776 1.357 . S
C777 C778 1.406 . S
C778 H752 0.929 . S
C778 C777 1.406 . S
C778 C779 1.391 . S
C779 H751 0.931 . S
C779 C774 1.370 . S
C779 C778 1.391 . S
C780 N749 1.435 . S
C780 C781 1.358 . S
C780 C785 1.371 . S
C781 H753 0.930 . S
C781 C780 1.358 . S
C781 C782 1.405 . S
C782 H754 0.932 . S
C782 C781 1.405 . S
C782 C783 1.383 . S
C783 C782 1.383 . S
C783 C784 1.393 . S
C784 H756 0.931 . S
C784 C783 1.393 . S
C784 C785 1.382 . S
C785 H755 0.929 . S
C785 C780 1.371 . S
C785 C784 1.382 . S
C786 N749 1.423 . S
C786 C787 1.362 . S
C786 C791 1.388 . S
C787 H757 0.929 . S
C787 C786 1.362 . S
C787 C788 1.376 . S
C788 H759 0.931 . S
C788 C787 1.376 . S
C788 C789 1.396 . S
C789 C788 1.396 . S
C789 C790 1.348 . S
C789 C807 1.472 . S
C790 H760 0.929 . S
C790 C789 1.348 . S
C790 C791 1.443 . S
C791 H758 0.932 . S
C791 C786 1.388 . S
C791 C790 1.443 . S
C792 N772 1.433 . S
C792 C793 1.363 . S
C792 C797 1.370 . S
C793 H761 0.929 . S
C793 C792 1.363 . S
C793 C794 1.385 . S
C794 H762 0.930 . S
C794 C793 1.385 . S
C794 C795 1.357 . S
C795 C794 1.357 . S
C795 C796 1.406 . S
C796 H763 0.929 . S
C796 C795 1.406 . S
C796 C797 1.391 . S
C797 H764 0.931 . S
C797 C792 1.370 . S
C797 C796 1.391 . S
C798 N772 1.435 . S
C798 C799 1.358 . S
C798 C803 1.371 . S
C799 H765 0.930 . S
C799 C798 1.358 . S
C799 C800 1.405 . S
C800 H766 0.932 . S
C800 C799 1.405 . S
C800 C801 1.383 . S
C801 C800 1.383 . S
C801 C802 1.393 . S
C802 H767 0.931 . S
C802 C801 1.393 . S
C802 C803 1.382 . S
C803 H768 0.929 . S
C803 C798 1.371 . S
C803 C802 1.382 . S
C804 N772 1.423 . S
C804 C805 1.362 . S
C804 C809 1.388 . S
C805 H769 0.929 . S
C805 C804 1.362 . S
C805 C806 1.376 . S
C806 H770 0.931 . S
C806 C805 1.376 . S
C806 C807 1.396 . S
C807 C789 1.472 . S
C807 C806 1.396 . S
C807 C808 1.348 . S
C808 H771 0.929 . S
C808 C807 1.348 . S
C808 C809 1.443 . S
C809 H773 0.932 . S
C809 C804 1.388 . S
C809 C808 1.443 . S
H810 C837 0.929 . S
N811 C836 1.433 . S
N811 C842 1.435 . S
N811 C848 1.423 . S
H812 C838 0.930 . S
H813 C841 0.931 . S
H814 C840 0.929 . S
H815 C843 0.930 . S
H816 C844 0.932 . S
H817 C847 0.929 . S
H818 C846 0.931 . S
H819 C849 0.929 . S
H820 C853 0.932 1_655 S
H821 C850 0.931 . S
H822 C852 0.929 . S
H823 C855 0.929 . S
H824 C856 0.930 . S
H825 C858 0.929 . S
H826 C859 0.931 . S
H827 C861 0.930 . S
H828 C862 0.932 . S
H829 C864 0.931 . S
H830 C865 0.929 . S
H831 C867 0.929 . S
H832 C868 0.931 . S
H833 C870 0.929 . S
N834 C854 1.433 . S
N834 C860 1.435 . S
N834 C866 1.423 . S
H835 C871 0.932 1_655 S
C836 N811 1.433 . S
C836 C837 1.363 . S
C836 C841 1.370 1_455 S
C837 H810 0.929 . S
C837 C836 1.363 . S
C837 C838 1.385 . S
C838 H812 0.930 . S
C838 C837 1.385 . S
C838 C839 1.357 1_455 S
C839 C838 1.357 1_655 S
C839 C840 1.406 . S
C840 H814 0.929 . S
C840 C839 1.406 . S
C840 C841 1.391 . S
C841 H813 0.931 . S
C841 C836 1.370 1_655 S
C841 C840 1.391 . S
C842 N811 1.435 . S
C842 C843 1.358 1_455 S
C842 C847 1.371 . S
C843 H815 0.930 . S
C843 C842 1.358 1_655 S
C843 C844 1.405 . S
C844 H816 0.932 . S
C844 C843 1.405 . S
C844 C845 1.383 1_655 S
C845 C844 1.383 1_455 S
C845 C846 1.393 . S
C846 H818 0.931 . S
C846 C845 1.393 . S
C846 C847 1.382 . S
C847 H817 0.929 . S
C847 C842 1.371 . S
C847 C846 1.382 . S
C848 N811 1.423 . S
C848 C849 1.362 . S
C848 C853 1.388 . S
C849 H819 0.929 . S
C849 C848 1.362 . S
C849 C850 1.376 . S
C850 H821 0.931 . S
C850 C849 1.376 . S
C850 C851 1.396 . S
C851 C850 1.396 . S
C851 C852 1.348 . S
C851 C869 1.472 . S
C852 H822 0.929 . S
C852 C851 1.348 . S
C852 C853 1.443 . S
C853 H820 0.932 1_455 S
C853 C848 1.388 . S
C853 C852 1.443 . S
C854 N834 1.433 . S
C854 C855 1.363 . S
C854 C859 1.370 1_455 S
C855 H823 0.929 . S
C855 C854 1.363 . S
C855 C856 1.385 . S
C856 H824 0.930 . S
C856 C855 1.385 . S
C856 C857 1.357 1_455 S
C857 C856 1.357 1_655 S
C857 C858 1.406 . S
C858 H825 0.929 . S
C858 C857 1.406 . S
C858 C859 1.391 . S
C859 H826 0.931 . S
C859 C854 1.370 1_655 S
C859 C858 1.391 . S
C860 N834 1.435 . S
C860 C861 1.358 1_455 S
C860 C865 1.371 . S
C861 H827 0.930 . S
C861 C860 1.358 1_655 S
C861 C862 1.405 . S
C862 H828 0.932 . S
C862 C861 1.405 . S
C862 C863 1.383 1_655 S
C863 C862 1.383 1_455 S
C863 C864 1.393 . S
C864 H829 0.931 . S
C864 C863 1.393 . S
C864 C865 1.382 . S
C865 H830 0.929 . S
C865 C860 1.371 . S
C865 C864 1.382 . S
C866 N834 1.423 . S
C866 C867 1.362 . S
C866 C871 1.388 . S
C867 H831 0.929 . S
C867 C866 1.362 . S
C867 C868 1.376 . S
C868 H832 0.931 . S
C868 C867 1.376 . S
C868 C869 1.396 . S
C869 C851 1.472 . S
C869 C868 1.396 . S
C869 C870 1.348 . S
C870 H833 0.929 . S
C870 C869 1.348 . S
C870 C871 1.443 . S
C871 H835 0.932 1_455 S
C871 C866 1.388 . S
C871 C870 1.443 . S
H872 C899 0.929 . S
N873 C898 1.433 . S
N873 C904 1.435 . S
N873 C910 1.423 . S
H874 C900 0.930 . S
H875 C903 0.931 . S
H876 C902 0.929 . S
H877 C905 0.930 . S
H878 C906 0.932 . S
H879 C909 0.929 . S
H880 C908 0.931 . S
H881 C911 0.929 . S
H882 C915 0.932 . S
H883 C912 0.931 . S
H884 C914 0.929 . S
H885 C917 0.929 . S
H886 C918 0.930 . S
H887 C920 0.929 . S
H888 C921 0.931 . S
H889 C923 0.930 . S
H890 C924 0.932 . S
H891 C926 0.931 . S
H892 C927 0.929 . S
H893 C929 0.929 . S
H894 C930 0.931 . S
H895 C932 0.929 . S
N896 C916 1.433 . S
N896 C922 1.435 . S
N896 C928 1.423 . S
H897 C933 0.932 . S
C898 N873 1.433 . S
C898 C899 1.363 . S
C898 C903 1.370 . S
C899 H872 0.929 . S
C899 C898 1.363 . S
C899 C900 1.385 . S
C900 H874 0.930 . S
C900 C899 1.385 . S
C900 C901 1.357 . S
C901 C900 1.357 . S
C901 C902 1.406 . S
C902 H876 0.929 . S
C902 C901 1.406 . S
C902 C903 1.391 . S
C903 H875 0.931 . S
C903 C898 1.370 . S
C903 C902 1.391 . S
C904 N873 1.435 . S
C904 C905 1.358 . S
C904 C909 1.371 . S
C905 H877 0.930 . S
C905 C904 1.358 . S
C905 C906 1.405 . S
C906 H878 0.932 . S
C906 C905 1.405 . S
C906 C907 1.383 . S
C907 C906 1.383 . S
C907 C908 1.393 . S
C908 H880 0.931 . S
C908 C907 1.393 . S
C908 C909 1.382 . S
C909 H879 0.929 . S
C909 C904 1.371 . S
C909 C908 1.382 . S
C910 N873 1.423 . S
C910 C911 1.362 . S
C910 C915 1.388 . S
C911 H881 0.929 . S
C911 C910 1.362 . S
C911 C912 1.376 . S
C912 H883 0.931 . S
C912 C911 1.376 . S
C912 C913 1.396 . S
C913 C912 1.396 . S
C913 C914 1.348 . S
C913 C931 1.472 . S
C914 H884 0.929 . S
C914 C913 1.348 . S
C914 C915 1.443 . S
C915 H882 0.932 . S
C915 C910 1.388 . S
C915 C914 1.443 . S
C916 N896 1.433 . S
C916 C917 1.363 . S
C916 C921 1.370 . S
C917 H885 0.929 . S
C917 C916 1.363 . S
C917 C918 1.385 . S
C918 H886 0.930 . S
C918 C917 1.385 . S
C918 C919 1.357 . S
C919 C918 1.357 . S
C919 C920 1.406 . S
C920 H887 0.929 . S
C920 C919 1.406 . S
C920 C921 1.391 . S
C921 H888 0.931 . S
C921 C916 1.370 . S
C921 C920 1.391 . S
C922 N896 1.435 . S
C922 C923 1.358 . S
C922 C927 1.371 . S
C923 H889 0.930 . S
C923 C922 1.358 . S
C923 C924 1.405 . S
C924 H890 0.932 . S
C924 C923 1.405 . S
C924 C925 1.383 . S
C925 C924 1.383 . S
C925 C926 1.393 . S
C926 H891 0.931 . S
C926 C925 1.393 . S
C926 C927 1.382 . S
C927 H892 0.929 . S
C927 C922 1.371 . S
C927 C926 1.382 . S
C928 N896 1.423 . S
C928 C929 1.362 . S
C928 C933 1.388 . S
C929 H893 0.929 . S
C929 C928 1.362 . S
C929 C930 1.376 . S
C930 H894 0.931 . S
C930 C929 1.376 . S
C930 C931 1.396 . S
C931 C913 1.472 . S
C931 C930 1.396 . S
C931 C932 1.348 . S
C932 H895 0.929 . S
C932 C931 1.348 . S
C932 C933 1.443 . S
C933 H897 0.932 . S
C933 C928 1.388 . S
C933 C932 1.443 . S
H934 C961 0.929 . S
N935 C960 1.433 . S
N935 C966 1.435 . S
N935 C972 1.423 . S
H936 C962 0.930 . S
H937 C965 0.931 . S
H938 C964 0.929 . S
H939 C967 0.930 . S
H940 C968 0.932 . S
H941 C971 0.929 . S
H942 C970 0.931 . S
H943 C973 0.929 . S
H944 C977 0.932 1_545 S
H945 C974 0.931 . S
H946 C976 0.929 . S
H947 C979 0.929 . S
H948 C980 0.930 . S
H949 C982 0.929 . S
H950 C983 0.931 . S
H951 C985 0.930 . S
H952 C986 0.932 . S
H953 C988 0.931 . S
H954 C989 0.929 . S
H955 C991 0.929 . S
H956 C992 0.931 . S
H957 C994 0.929 . S
N958 C978 1.433 . S
N958 C984 1.435 . S
N958 C990 1.423 . S
H959 C995 0.932 1_545 S
C960 N935 1.433 . S
C960 C961 1.363 . S
C960 C965 1.370 1_565 S
C961 H934 0.929 . S
C961 C960 1.363 . S
C961 C962 1.385 . S
C962 H936 0.930 . S
C962 C961 1.385 . S
C962 C963 1.357 1_565 S
C963 C962 1.357 1_545 S
C963 C964 1.406 . S
C964 H938 0.929 . S
C964 C963 1.406 . S
C964 C965 1.391 . S
C965 H937 0.931 . S
C965 C960 1.370 1_545 S
C965 C964 1.391 . S
C966 N935 1.435 . S
C966 C967 1.358 1_565 S
C966 C971 1.371 . S
C967 H939 0.930 . S
C967 C966 1.358 1_545 S
C967 C968 1.405 . S
C968 H940 0.932 . S
C968 C967 1.405 . S
C968 C969 1.383 1_545 S
C969 C968 1.383 1_565 S
C969 C970 1.393 . S
C970 H942 0.931 . S
C970 C969 1.393 . S
C970 C971 1.382 . S
C971 H941 0.929 . S
C971 C966 1.371 . S
C971 C970 1.382 . S
C972 N935 1.423 . S
C972 C973 1.362 . S
C972 C977 1.388 . S
C973 H943 0.929 . S
C973 C972 1.362 . S
C973 C974 1.376 . S
C974 H945 0.931 . S
C974 C973 1.376 . S
C974 C975 1.396 . S
C975 C974 1.396 . S
C975 C976 1.348 . S
C975 C993 1.472 . S
C976 H946 0.929 . S
C976 C975 1.348 . S
C976 C977 1.443 . S
C977 H944 0.932 1_565 S
C977 C972 1.388 . S
C977 C976 1.443 . S
C978 N958 1.433 . S
C978 C979 1.363 . S
C978 C983 1.370 1_565 S
C979 H947 0.929 . S
C979 C978 1.363 . S
C979 C980 1.385 . S
C980 H948 0.930 . S
C980 C979 1.385 . S
C980 C981 1.357 1_565 S
C981 C980 1.357 1_545 S
C981 C982 1.406 . S
C982 H949 0.929 . S
C982 C981 1.406 . S
C982 C983 1.391 . S
C983 H950 0.931 . S
C983 C978 1.370 1_545 S
C983 C982 1.391 . S
C984 N958 1.435 . S
C984 C985 1.358 1_565 S
C984 C989 1.371 . S
C985 H951 0.930 . S
C985 C984 1.358 1_545 S
C985 C986 1.405 . S
C986 H952 0.932 . S
C986 C985 1.405 . S
C986 C987 1.383 1_545 S
C987 C986 1.383 1_565 S
C987 C988 1.393 . S
C988 H953 0.931 . S
C988 C987 1.393 . S
C988 C989 1.382 . S
C989 H954 0.929 . S
C989 C984 1.371 . S
C989 C988 1.382 . S
C990 N958 1.423 . S
C990 C991 1.362 . S
C990 C995 1.388 . S
C991 H955 0.929 . S
C991 C990 1.362 . S
C991 C992 1.376 . S
C992 H956 0.931 . S
C992 C991 1.376 . S
C992 C993 1.396 . S
C993 C975 1.472 . S
C993 C992 1.396 . S
C993 C994 1.348 . S
C994 H957 0.929 . S
C994 C993 1.348 . S
C994 C995 1.443 . S
C995 H959 0.932 1_565 S
C995 C990 1.388 . S
C995 C994 1.443 . S
H996 C1023 0.929 . S
N997 C1022 1.433 . S
N997 C1028 1.435 . S
N997 C1034 1.423 . S
H998 C1024 0.930 . S
H999 C1027 0.931 . S
H1000 C1026 0.929 . S
H1001 C1029 0.930 . S
H1002 C1030 0.932 . S
H1003 C1033 0.929 . S
H1004 C1032 0.931 . S
H1005 C1035 0.929 . S
H1006 C1039 0.932 . S
H1007 C1036 0.931 . S
H1008 C1038 0.927 1_545 S
H1009 C1041 0.929 . S
H1010 C1042 0.930 . S
H1011 C1044 0.924 1_545 S
H1012 C1045 0.925 1_545 S
H1013 C1047 0.930 . S
H1014 C1048 0.932 . S
H1015 C1050 0.931 . S
H1016 C1051 0.929 . S
H1017 C1053 0.929 . S
H1018 C1054 0.931 . S
H1019 C1056 0.898 1_545 S
N1020 C1040 1.433 . S
N1020 C1046 1.435 . S
N1020 C1052 1.423 . S
H1021 C1057 0.932 . S
C1022 N997 1.433 . S
C1022 C1023 1.363 . S
C1022 C1027 1.370 1_565 S
C1023 H996 0.929 . S
C1023 C1022 1.363 . S
C1023 C1024 1.385 . S
C1024 H998 0.930 . S
C1024 C1023 1.385 . S
C1024 C1025 1.357 . S
C1025 C1024 1.357 . S
C1025 C1026 1.406 1_565 S
C1026 H1000 0.929 . S
C1026 C1025 1.406 1_545 S
C1026 C1027 1.391 . S
C1027 H999 0.931 . S
C1027 C1022 1.370 1_545 S
C1027 C1026 1.391 . S
C1028 N997 1.435 . S
C1028 C1029 1.358 1_565 S
C1028 C1033 1.371 . S
C1029 H1001 0.930 . S
C1029 C1028 1.358 1_545 S
C1029 C1030 1.405 . S
C1030 H1002 0.932 . S
C1030 C1029 1.405 . S
C1030 C1031 1.383 . S
C1031 C1030 1.383 . S
C1031 C1032 1.393 1_545 S
C1032 H1004 0.931 . S
C1032 C1031 1.393 1_565 S
C1032 C1033 1.382 . S
C1033 H1003 0.929 . S
C1033 C1028 1.371 . S
C1033 C1032 1.382 . S
C1034 N997 1.423 . S
C1034 C1035 1.362 . S
C1034 C1039 1.388 1_565 S
C1035 H1005 0.929 . S
C1035 C1034 1.362 . S
C1035 C1036 1.376 . S
C1036 H1007 0.931 . S
C1036 C1035 1.376 . S
C1036 C1037 1.396 . S
C1037 C1036 1.396 . S
C1037 C1038 1.355 . S
C1037 C1055 1.472 . S
C1038 H1008 0.927 1_565 S
C1038 C1037 1.355 . S
C1038 C1039 1.437 1_565 S
C1039 H1006 0.932 . S
C1039 C1034 1.388 1_545 S
C1039 C1038 1.437 1_545 S
C1040 N1020 1.433 . S
C1040 C1041 1.363 . S
C1040 C1045 1.375 . S
C1041 H1009 0.929 . S
C1041 C1040 1.363 . S
C1041 C1042 1.385 . S
C1042 H1010 0.930 . S
C1042 C1041 1.385 . S
C1042 C1043 1.357 . S
C1043 C1042 1.357 . S
C1043 C1044 1.414 . S
C1044 H1011 0.924 1_565 S
C1044 C1043 1.414 . S
C1044 C1045 1.391 . S
C1045 H1012 0.925 1_565 S
C1045 C1040 1.375 . S
C1045 C1044 1.391 . S
C1046 N1020 1.435 . S
C1046 C1047 1.358 1_565 S
C1046 C1051 1.371 . S
C1047 H1013 0.930 . S
C1047 C1046 1.358 1_545 S
C1047 C1048 1.405 . S
C1048 H1014 0.932 . S
C1048 C1047 1.405 . S
C1048 C1049 1.383 . S
C1049 C1048 1.383 . S
C1049 C1050 1.393 1_545 S
C1050 H1015 0.931 . S
C1050 C1049 1.393 1_565 S
C1050 C1051 1.382 . S
C1051 H1016 0.929 . S
C1051 C1046 1.371 . S
C1051 C1050 1.382 . S
C1052 N1020 1.423 . S
C1052 C1053 1.362 . S
C1052 C1057 1.388 1_565 S
C1053 H1017 0.929 . S
C1053 C1052 1.362 . S
C1053 C1054 1.376 . S
C1054 H1018 0.931 . S
C1054 C1053 1.376 . S
C1054 C1055 1.396 . S
C1055 C1037 1.472 . S
C1055 C1054 1.396 . S
C1055 C1056 1.359 . S
C1056 H1019 0.898 1_565 S
C1056 C1055 1.359 . S
C1056 C1057 1.462 1_565 S
C1057 H1021 0.932 . S
C1057 C1052 1.388 1_545 S
C1057 C1056 1.462 1_545 S
H1058 C1085 0.929 . S
N1059 C1084 1.433 . S
N1059 C1090 1.435 . S
N1059 C1096 1.423 . S
H1060 C1086 0.930 . S
H1061 C1089 0.931 . S
H1062 C1088 0.929 . S
H1063 C1091 0.930 . S
H1064 C1092 0.932 . S
H1065 C1095 0.929 . S
H1066 C1094 0.931 . S
H1067 C1097 0.929 . S
H1068 C1101 0.932 1_455 S
H1069 C1098 0.931 . S
H1070 C1100 0.929 . S
H1071 C1103 0.929 . S
H1072 C1104 0.930 . S
H1073 C1106 0.929 . S
H1074 C1107 0.931 . S
H1075 C1109 0.930 . S
H1076 C1110 0.932 . S
H1077 C1112 0.931 . S
H1078 C1113 0.929 . S
H1079 C1115 0.929 . S
H1080 C1116 0.931 . S
H1081 C1118 0.929 . S
N1082 C1102 1.433 . S
N1082 C1108 1.435 . S
N1082 C1114 1.423 . S
H1083 C1119 0.932 1_455 S
C1084 N1059 1.433 . S
C1084 C1085 1.363 . S
C1084 C1089 1.370 1_655 S
C1085 H1058 0.929 . S
C1085 C1084 1.363 . S
C1085 C1086 1.385 . S
C1086 H1060 0.930 . S
C1086 C1085 1.385 . S
C1086 C1087 1.357 1_655 S
C1087 C1086 1.357 1_455 S
C1087 C1088 1.406 . S
C1088 H1062 0.929 . S
C1088 C1087 1.406 . S
C1088 C1089 1.391 . S
C1089 H1061 0.931 . S
C1089 C1084 1.370 1_455 S
C1089 C1088 1.391 . S
C1090 N1059 1.435 . S
C1090 C1091 1.358 1_655 S
C1090 C1095 1.371 . S
C1091 H1063 0.930 . S
C1091 C1090 1.358 1_455 S
C1091 C1092 1.405 . S
C1092 H1064 0.932 . S
C1092 C1091 1.405 . S
C1092 C1093 1.383 1_455 S
C1093 C1092 1.383 1_655 S
C1093 C1094 1.393 . S
C1094 H1066 0.931 . S
C1094 C1093 1.393 . S
C1094 C1095 1.382 . S
C1095 H1065 0.929 . S
C1095 C1090 1.371 . S
C1095 C1094 1.382 . S
C1096 N1059 1.423 . S
C1096 C1097 1.362 . S
C1096 C1101 1.388 . S
C1097 H1067 0.929 . S
C1097 C1096 1.362 . S
C1097 C1098 1.376 . S
C1098 H1069 0.931 . S
C1098 C1097 1.376 . S
C1098 C1099 1.396 . S
C1099 C1098 1.396 . S
C1099 C1100 1.348 . S
C1099 C1117 1.472 . S
C1100 H1070 0.929 . S
C1100 C1099 1.348 . S
C1100 C1101 1.443 . S
C1101 H1068 0.932 1_655 S
C1101 C1096 1.388 . S
C1101 C1100 1.443 . S
C1102 N1082 1.433 . S
C1102 C1103 1.363 . S
C1102 C1107 1.370 1_655 S
C1103 H1071 0.929 . S
C1103 C1102 1.363 . S
C1103 C1104 1.385 . S
C1104 H1072 0.930 . S
C1104 C1103 1.385 . S
C1104 C1105 1.357 1_655 S
C1105 C1104 1.357 1_455 S
C1105 C1106 1.406 . S
C1106 H1073 0.929 . S
C1106 C1105 1.406 . S
C1106 C1107 1.391 . S
C1107 H1074 0.931 . S
C1107 C1102 1.370 1_455 S
C1107 C1106 1.391 . S
C1108 N1082 1.435 . S
C1108 C1109 1.358 1_655 S
C1108 C1113 1.371 . S
C1109 H1075 0.930 . S
C1109 C1108 1.358 1_455 S
C1109 C1110 1.405 . S
C1110 H1076 0.932 . S
C1110 C1109 1.405 . S
C1110 C1111 1.383 1_455 S
C1111 C1110 1.383 1_655 S
C1111 C1112 1.393 . S
C1112 H1077 0.931 . S
C1112 C1111 1.393 . S
C1112 C1113 1.382 . S
C1113 H1078 0.929 . S
C1113 C1108 1.371 . S
C1113 C1112 1.382 . S
C1114 N1082 1.423 . S
C1114 C1115 1.362 . S
C1114 C1119 1.388 . S
C1115 H1079 0.929 . S
C1115 C1114 1.362 . S
C1115 C1116 1.376 . S
C1116 H1080 0.931 . S
C1116 C1115 1.376 . S
C1116 C1117 1.396 . S
C1117 C1099 1.472 . S
C1117 C1116 1.396 . S
C1117 C1118 1.348 . S
C1118 H1081 0.929 . S
C1118 C1117 1.348 . S
C1118 C1119 1.443 . S
C1119 H1083 0.932 1_655 S
C1119 C1114 1.388 . S
C1119 C1118 1.443 . S
H1120 C1147 0.929 . S
N1121 C1146 1.433 . S
N1121 C1152 1.435 . S
N1121 C1158 1.423 . S
H1122 C1148 0.930 . S
H1123 C1151 0.931 . S
H1124 C1150 0.929 . S
H1125 C1153 0.930 . S
H1126 C1154 0.932 . S
H1127 C1157 0.929 . S
H1128 C1156 0.931 . S
H1129 C1159 0.929 . S
H1130 C1163 0.932 . S
H1131 C1160 0.931 . S
H1132 C1162 0.929 . S
H1133 C1165 0.929 . S
H1134 C1166 0.930 . S
H1135 C1168 0.929 . S
H1136 C1169 0.931 . S
H1137 C1171 0.930 . S
H1138 C1172 0.932 . S
H1139 C1174 0.931 . S
H1140 C1175 0.929 . S
H1141 C1177 0.929 . S
H1142 C1178 0.931 . S
H1143 C1180 0.929 . S
N1144 C1164 1.433 . S
N1144 C1170 1.435 . S
N1144 C1176 1.423 . S
H1145 C1181 0.932 . S
C1146 N1121 1.433 . S
C1146 C1147 1.363 . S
C1146 C1151 1.370 . S
C1147 H1120 0.929 . S
C1147 C1146 1.363 . S
C1147 C1148 1.385 . S
C1148 H1122 0.930 . S
C1148 C1147 1.385 . S
C1148 C1149 1.357 . S
C1149 C1148 1.357 . S
C1149 C1150 1.406 . S
C1150 H1124 0.929 . S
C1150 C1149 1.406 . S
C1150 C1151 1.391 . S
C1151 H1123 0.931 . S
C1151 C1146 1.370 . S
C1151 C1150 1.391 . S
C1152 N1121 1.435 . S
C1152 C1153 1.358 . S
C1152 C1157 1.371 . S
C1153 H1125 0.930 . S
C1153 C1152 1.358 . S
C1153 C1154 1.405 . S
C1154 H1126 0.932 . S
C1154 C1153 1.405 . S
C1154 C1155 1.383 . S
C1155 C1154 1.383 . S
C1155 C1156 1.393 . S
C1156 H1128 0.931 . S
C1156 C1155 1.393 . S
C1156 C1157 1.382 . S
C1157 H1127 0.929 . S
C1157 C1152 1.371 . S
C1157 C1156 1.382 . S
C1158 N1121 1.423 . S
C1158 C1159 1.362 . S
C1158 C1163 1.388 . S
C1159 H1129 0.929 . S
C1159 C1158 1.362 . S
C1159 C1160 1.376 . S
C1160 H1131 0.931 . S
C1160 C1159 1.376 . S
C1160 C1161 1.396 . S
C1161 C1160 1.396 . S
C1161 C1162 1.348 . S
C1161 C1179 1.472 . S
C1162 H1132 0.929 . S
C1162 C1161 1.348 . S
C1162 C1163 1.443 . S
C1163 H1130 0.932 . S
C1163 C1158 1.388 . S
C1163 C1162 1.443 . S
C1164 N1144 1.433 . S
C1164 C1165 1.363 . S
C1164 C1169 1.370 . S
C1165 H1133 0.929 . S
C1165 C1164 1.363 . S
C1165 C1166 1.385 . S
C1166 H1134 0.930 . S
C1166 C1165 1.385 . S
C1166 C1167 1.357 . S
C1167 C1166 1.357 . S
C1167 C1168 1.406 . S
C1168 H1135 0.929 . S
C1168 C1167 1.406 . S
C1168 C1169 1.391 . S
C1169 H1136 0.931 . S
C1169 C1164 1.370 . S
C1169 C1168 1.391 . S
C1170 N1144 1.435 . S
C1170 C1171 1.358 . S
C1170 C1175 1.371 . S
C1171 H1137 0.930 . S
C1171 C1170 1.358 . S
C1171 C1172 1.405 . S
C1172 H1138 0.932 . S
C1172 C1171 1.405 . S
C1172 C1173 1.383 . S
C1173 C1172 1.383 . S
C1173 C1174 1.393 . S
C1174 H1139 0.931 . S
C1174 C1173 1.393 . S
C1174 C1175 1.382 . S
C1175 H1140 0.929 . S
C1175 C1170 1.371 . S
C1175 C1174 1.382 . S
C1176 N1144 1.423 . S
C1176 C1177 1.362 . S
C1176 C1181 1.388 . S
C1177 H1141 0.929 . S
C1177 C1176 1.362 . S
C1177 C1178 1.376 . S
C1178 H1142 0.931 . S
C1178 C1177 1.376 . S
C1178 C1179 1.396 . S
C1179 C1161 1.472 . S
C1179 C1178 1.396 . S
C1179 C1180 1.348 . S
C1180 H1143 0.929 . S
C1180 C1179 1.348 . S
C1180 C1181 1.443 . S
C1181 H1145 0.932 . S
C1181 C1176 1.388 . S
C1181 C1180 1.443 . S
H1182 C1209 0.929 . S
N1183 C1208 1.433 . S
N1183 C1214 1.435 . S
N1183 C1220 1.423 . S
H1184 C1210 0.930 . S
H1185 C1213 0.931 . S
H1186 C1212 0.929 . S
H1187 C1215 0.930 . S
H1188 C1216 0.932 . S
H1189 C1219 0.929 . S
H1190 C1218 0.931 . S
H1191 C1221 0.929 . S
H1192 C1225 0.932 . S
H1193 C1222 0.931 . S
H1194 C1224 0.929 . S
H1195 C1227 0.929 . S
H1196 C1228 0.930 . S
H1197 C1230 0.929 . S
H1198 C1231 0.931 . S
H1199 C1233 0.930 . S
H1200 C1234 0.932 . S
H1201 C1236 0.931 . S
H1202 C1237 0.929 . S
H1203 C1239 0.929 . S
H1204 C1240 0.931 . S
H1205 C1242 0.929 . S
N1206 C1226 1.433 . S
N1206 C1232 1.435 . S
N1206 C1238 1.423 . S
H1207 C1243 0.932 . S
C1208 N1183 1.433 . S
C1208 C1209 1.363 . S
C1208 C1213 1.370 . S
C1209 H1182 0.929 . S
C1209 C1208 1.363 . S
C1209 C1210 1.385 . S
C1210 H1184 0.930 . S
C1210 C1209 1.385 . S
C1210 C1211 1.357 . S
C1211 C1210 1.357 . S
C1211 C1212 1.406 . S
C1212 H1186 0.929 . S
C1212 C1211 1.406 . S
C1212 C1213 1.391 . S
C1213 H1185 0.931 . S
C1213 C1208 1.370 . S
C1213 C1212 1.391 . S
C1214 N1183 1.435 . S
C1214 C1215 1.358 . S
C1214 C1219 1.371 . S
C1215 H1187 0.930 . S
C1215 C1214 1.358 . S
C1215 C1216 1.405 . S
C1216 H1188 0.932 . S
C1216 C1215 1.405 . S
C1216 C1217 1.383 . S
C1217 C1216 1.383 . S
C1217 C1218 1.393 . S
C1218 H1190 0.931 . S
C1218 C1217 1.393 . S
C1218 C1219 1.382 . S
C1219 H1189 0.929 . S
C1219 C1214 1.371 . S
C1219 C1218 1.382 . S
C1220 N1183 1.423 . S
C1220 C1221 1.362 . S
C1220 C1225 1.388 . S
C1221 H1191 0.929 . S
C1221 C1220 1.362 . S
C1221 C1222 1.376 . S
C1222 H1193 0.931 . S
C1222 C1221 1.376 . S
C1222 C1223 1.396 . S
C1223 C1222 1.396 . S
C1223 C1224 1.348 . S
C1223 C1241 1.472 . S
C1224 H1194 0.929 . S
C1224 C1223 1.348 . S
C1224 C1225 1.443 . S
C1225 H1192 0.932 . S
C1225 C1220 1.388 . S
C1225 C1224 1.443 . S
C1226 N1206 1.433 . S
C1226 C1227 1.363 . S
C1226 C1231 1.370 . S
C1227 H1195 0.929 . S
C1227 C1226 1.363 . S
C1227 C1228 1.385 . S
C1228 H1196 0.930 . S
C1228 C1227 1.385 . S
C1228 C1229 1.357 . S
C1229 C1228 1.357 . S
C1229 C1230 1.406 . S
C1230 H1197 0.929 . S
C1230 C1229 1.406 . S
C1230 C1231 1.391 . S
C1231 H1198 0.931 . S
C1231 C1226 1.370 . S
C1231 C1230 1.391 . S
C1232 N1206 1.435 . S
C1232 C1233 1.358 . S
C1232 C1237 1.371 . S
C1233 H1199 0.930 . S
C1233 C1232 1.358 . S
C1233 C1234 1.405 . S
C1234 H1200 0.932 . S
C1234 C1233 1.405 . S
C1234 C1235 1.383 . S
C1235 C1234 1.383 . S
C1235 C1236 1.393 . S
C1236 H1201 0.931 . S
C1236 C1235 1.393 . S
C1236 C1237 1.382 . S
C1237 H1202 0.929 . S
C1237 C1232 1.371 . S
C1237 C1236 1.382 . S
C1238 N1206 1.423 . S
C1238 C1239 1.362 . S
C1238 C1243 1.388 . S
C1239 H1203 0.929 . S
C1239 C1238 1.362 . S
C1239 C1240 1.376 . S
C1240 H1204 0.931 . S
C1240 C1239 1.376 . S
C1240 C1241 1.396 . S
C1241 C1223 1.472 . S
C1241 C1240 1.396 . S
C1241 C1242 1.348 . S
C1242 H1205 0.929 . S
C1242 C1241 1.348 . S
C1242 C1243 1.443 . S
C1243 H1207 0.932 . S
C1243 C1238 1.388 . S
C1243 C1242 1.443 . S
H1244 C1271 0.929 . S
N1245 C1270 1.433 . S
N1245 C1276 1.435 . S
N1245 C1282 1.423 . S
H1246 C1272 0.930 . S
H1247 C1275 0.931 . S
H1248 C1274 0.929 . S
H1249 C1277 0.930 . S
H1250 C1278 0.932 . S
H1251 C1281 0.929 . S
H1252 C1280 0.931 . S
H1253 C1283 0.929 . S
H1254 C1287 0.932 . S
H1255 C1284 0.931 . S
H1256 C1286 0.929 . S
H1257 C1289 0.929 . S
H1258 C1290 0.930 . S
H1259 C1292 0.929 . S
H1260 C1293 0.931 . S
H1261 C1295 0.930 . S
H1262 C1296 0.932 . S
H1263 C1298 0.931 . S
H1264 C1299 0.929 . S
H1265 C1301 0.929 . S
H1266 C1302 0.931 . S
H1267 C1304 0.929 . S
N1268 C1288 1.433 . S
N1268 C1294 1.435 . S
N1268 C1300 1.423 . S
H1269 C1305 0.932 . S
C1270 N1245 1.433 . S
C1270 C1271 1.363 . S
C1270 C1275 1.370 . S
C1271 H1244 0.929 . S
C1271 C1270 1.363 . S
C1271 C1272 1.385 . S
C1272 H1246 0.930 . S
C1272 C1271 1.385 . S
C1272 C1273 1.357 . S
C1273 C1272 1.357 . S
C1273 C1274 1.406 . S
C1274 H1248 0.929 . S
C1274 C1273 1.406 . S
C1274 C1275 1.391 . S
C1275 H1247 0.931 . S
C1275 C1270 1.370 . S
C1275 C1274 1.391 . S
C1276 N1245 1.435 . S
C1276 C1277 1.358 . S
C1276 C1281 1.371 . S
C1277 H1249 0.930 . S
C1277 C1276 1.358 . S
C1277 C1278 1.405 . S
C1278 H1250 0.932 . S
C1278 C1277 1.405 . S
C1278 C1279 1.383 . S
C1279 C1278 1.383 . S
C1279 C1280 1.393 . S
C1280 H1252 0.931 . S
C1280 C1279 1.393 . S
C1280 C1281 1.382 . S
C1281 H1251 0.929 . S
C1281 C1276 1.371 . S
C1281 C1280 1.382 . S
C1282 N1245 1.423 . S
C1282 C1283 1.362 . S
C1282 C1287 1.388 . S
C1283 H1253 0.929 . S
C1283 C1282 1.362 . S
C1283 C1284 1.376 . S
C1284 H1255 0.931 . S
C1284 C1283 1.376 . S
C1284 C1285 1.396 . S
C1285 C1284 1.396 . S
C1285 C1286 1.348 . S
C1285 C1303 1.472 . S
C1286 H1256 0.929 . S
C1286 C1285 1.348 . S
C1286 C1287 1.443 . S
C1287 H1254 0.932 . S
C1287 C1282 1.388 . S
C1287 C1286 1.443 . S
C1288 N1268 1.433 . S
C1288 C1289 1.363 . S
C1288 C1293 1.370 . S
C1289 H1257 0.929 . S
C1289 C1288 1.363 . S
C1289 C1290 1.385 . S
C1290 H1258 0.930 . S
C1290 C1289 1.385 . S
C1290 C1291 1.357 . S
C1291 C1290 1.357 . S
C1291 C1292 1.406 . S
C1292 H1259 0.929 . S
C1292 C1291 1.406 . S
C1292 C1293 1.391 . S
C1293 H1260 0.931 . S
C1293 C1288 1.370 . S
C1293 C1292 1.391 . S
C1294 N1268 1.435 . S
C1294 C1295 1.358 . S
C1294 C1299 1.371 . S
C1295 H1261 0.930 . S
C1295 C1294 1.358 . S
C1295 C1296 1.405 . S
C1296 H1262 0.932 . S
C1296 C1295 1.405 . S
C1296 C1297 1.383 . S
C1297 C1296 1.383 . S
C1297 C1298 1.393 . S
C1298 H1263 0.931 . S
C1298 C1297 1.393 . S
C1298 C1299 1.382 . S
C1299 H1264 0.929 . S
C1299 C1294 1.371 . S
C1299 C1298 1.382 . S
C1300 N1268 1.423 . S
C1300 C1301 1.362 . S
C1300 C1305 1.388 . S
C1301 H1265 0.929 . S
C1301 C1300 1.362 . S
C1301 C1302 1.376 . S
C1302 H1266 0.931 . S
C1302 C1301 1.376 . S
C1302 C1303 1.396 . S
C1303 C1285 1.472 . S
C1303 C1302 1.396 . S
C1303 C1304 1.348 . S
C1304 H1267 0.929 . S
C1304 C1303 1.348 . S
C1304 C1305 1.443 . S
C1305 H1269 0.932 . S
C1305 C1300 1.388 . S
C1305 C1304 1.443 . S
H1306 C1333 0.929 . S
N1307 C1332 1.433 . S
N1307 C1338 1.435 . S
N1307 C1344 1.423 . S
H1308 C1334 0.930 . S
H1309 C1337 0.931 . S
H1310 C1336 0.929 . S
H1311 C1339 0.930 . S
H1312 C1340 0.932 . S
H1313 C1343 0.929 . S
H1314 C1342 0.931 . S
H1315 C1345 0.929 . S
H1316 C1349 0.932 . S
H1317 C1346 0.931 . S
H1318 C1348 0.929 . S
H1319 C1351 0.929 . S
H1320 C1352 0.930 . S
H1321 C1354 0.929 . S
H1322 C1355 0.931 . S
H1323 C1357 0.930 . S
H1324 C1358 0.932 . S
H1325 C1360 0.931 . S
H1326 C1361 0.929 . S
H1327 C1363 0.929 . S
H1328 C1364 0.931 . S
H1329 C1366 0.929 . S
N1330 C1350 1.433 . S
N1330 C1356 1.435 . S
N1330 C1362 1.423 . S
H1331 C1367 0.932 . S
C1332 N1307 1.433 . S
C1332 C1333 1.363 . S
C1332 C1337 1.370 . S
C1333 H1306 0.929 . S
C1333 C1332 1.363 . S
C1333 C1334 1.385 . S
C1334 H1308 0.930 . S
C1334 C1333 1.385 . S
C1334 C1335 1.357 . S
C1335 C1334 1.357 . S
C1335 C1336 1.406 . S
C1336 H1310 0.929 . S
C1336 C1335 1.406 . S
C1336 C1337 1.391 . S
C1337 H1309 0.931 . S
C1337 C1332 1.370 . S
C1337 C1336 1.391 . S
C1338 N1307 1.435 . S
C1338 C1339 1.358 . S
C1338 C1343 1.371 . S
C1339 H1311 0.930 . S
C1339 C1338 1.358 . S
C1339 C1340 1.405 . S
C1340 H1312 0.932 . S
C1340 C1339 1.405 . S
C1340 C1341 1.383 . S
C1341 C1340 1.383 . S
C1341 C1342 1.393 . S
C1342 H1314 0.931 . S
C1342 C1341 1.393 . S
C1342 C1343 1.382 . S
C1343 H1313 0.929 . S
C1343 C1338 1.371 . S
C1343 C1342 1.382 . S
C1344 N1307 1.423 . S
C1344 C1345 1.362 . S
C1344 C1349 1.388 . S
C1345 H1315 0.929 . S
C1345 C1344 1.362 . S
C1345 C1346 1.376 . S
C1346 H1317 0.931 . S
C1346 C1345 1.376 . S
C1346 C1347 1.396 . S
C1347 C1346 1.396 . S
C1347 C1348 1.348 . S
C1347 C1365 1.472 . S
C1348 H1318 0.929 . S
C1348 C1347 1.348 . S
C1348 C1349 1.443 . S
C1349 H1316 0.932 . S
C1349 C1344 1.388 . S
C1349 C1348 1.443 . S
C1350 N1330 1.433 . S
C1350 C1351 1.363 . S
C1350 C1355 1.370 . S
C1351 H1319 0.929 . S
C1351 C1350 1.363 . S
C1351 C1352 1.385 . S
C1352 H1320 0.930 . S
C1352 C1351 1.385 . S
C1352 C1353 1.357 . S
C1353 C1352 1.357 . S
C1353 C1354 1.406 . S
C1354 H1321 0.929 . S
C1354 C1353 1.406 . S
C1354 C1355 1.391 . S
C1355 H1322 0.931 . S
C1355 C1350 1.370 . S
C1355 C1354 1.391 . S
C1356 N1330 1.435 . S
C1356 C1357 1.358 . S
C1356 C1361 1.371 . S
C1357 H1323 0.930 . S
C1357 C1356 1.358 . S
C1357 C1358 1.405 . S
C1358 H1324 0.932 . S
C1358 C1357 1.405 . S
C1358 C1359 1.383 . S
C1359 C1358 1.383 . S
C1359 C1360 1.393 . S
C1360 H1325 0.931 . S
C1360 C1359 1.393 . S
C1360 C1361 1.382 . S
C1361 H1326 0.929 . S
C1361 C1356 1.371 . S
C1361 C1360 1.382 . S
C1362 N1330 1.423 . S
C1362 C1363 1.362 . S
C1362 C1367 1.388 . S
C1363 H1327 0.929 . S
C1363 C1362 1.362 . S
C1363 C1364 1.376 . S
C1364 H1328 0.931 . S
C1364 C1363 1.376 . S
C1364 C1365 1.396 . S
C1365 C1347 1.472 . S
C1365 C1364 1.396 . S
C1365 C1366 1.348 . S
C1366 H1329 0.929 . S
C1366 C1365 1.348 . S
C1366 C1367 1.443 . S
C1367 H1331 0.932 . S
C1367 C1362 1.388 . S
C1367 C1366 1.443 . S
C13 C857 1.854 . S
C27 C901 1.730 . S
C981 C36 1.957 . S
C41 C1025 1.740 . S
C8 C1105 2.007 . S
C22 C1167 1.833 . S
C55 C1087 1.859 . S
C1149 C69 1.779 . S
C1043 C78 2.079 . S
C83 C963 1.765 . S
C839 C50 2.025 . S
C64 C919 1.882 . S
C97 C1229 1.885 . S
C111 C1273 1.775 . S
C1353 C120 2.064 . S
C125 C299 1.784 . S
C92 C343 2.347 . S
C106 C423 1.904 . S
C139 C361 1.917 . S
C153 C405 1.807 . S
C281 C162 2.063 . S
C1335 C167 1.798 . S
C1211 C134 2.212 . S
C1291 C148 1.973 . S
C181 C485 1.866 . S
C195 C547 1.803 . S
C204 C591 2.158 . S
C209 C653 1.825 . S
C715 C176 2.364 . S
C795 C190 1.906 . S
C733 C223 1.944 . S
C777 C237 1.811 . S
C246 C671 2.165 . S
C609 C251 1.802 . S
C218 C467 2.197 . S
C529 C232 1.909 . S
C305 C11 1.500 . S
C25 C349 1.627 . S
C429 C35 1.497 . S
C491 C39 1.649 . S
C553 C7 1.640 . S
C597 C21 1.790 . S
C53 C615 1.581 . S
C67 C473 1.506 . S
C77 C535 1.482 . S
C81 C367 1.767 . S
C411 C49 1.657 . S
C63 C287 1.694 . S
C659 C95 1.559 . S
C109 C721 1.630 . S
C119 C801 1.524 . S
C863 C123 1.336 . S
C91 C907 1.651 . S
C105 C987 1.455 . S
C137 C969 1.330 . S
C151 C845 1.177 . S
C925 C161 1.509 . S
C165 C739 1.771 . S
C133 C783 1.650 . S
C677 C147 1.801 . S
C1031 C179 1.466 . S
C193 C1111 1.159 . S
C203 C1173 1.436 . S
C1235 C207 1.645 . S
C1279 C175 1.723 . S
C189 C1359 1.694 . S
C221 C1341 1.482 . S
C235 C1217 1.515 . S
C1297 C245 1.581 . S
C1093 C249 1.313 . S
C1155 C217 1.585 . S
C231 C1049 1.644 . S
