# Generated by pormake.
# Topology ptr, (4,4)-cn, num edge types: 1
# Building blocks:
#     Node 0, Type 0, BuildingBlock: CEKHIL_clean_sbu_0, # of connection points: 4
#     Node 1, Type 0, BuildingBlock: CEKHIL_clean_sbu_0, # of connection points: 4
#     Node 2, Type 0, BuildingBlock: CEKHIL_clean_sbu_0, # of connection points: 4
#     Node 3, Type 0, BuildingBlock: CEKHIL_clean_sbu_0, # of connection points: 4
#     Node 4, Type 0, BuildingBlock: CEKHIL_clean_sbu_0, # of connection points: 4
#     Node 5, Type 0, BuildingBlock: CEKHIL_clean_sbu_0, # of connection points: 4
#     Node 6, Type 0, BuildingBlock: CEKHIL_clean_sbu_0, # of connection points: 4
#     Node 7, Type 0, BuildingBlock: CEKHIL_clean_sbu_0, # of connection points: 4
#     Node 8, Type 0, BuildingBlock: CEKHIL_clean_sbu_0, # of connection points: 4
#     Node 9, Type 0, BuildingBlock: CEKHIL_clean_sbu_0, # of connection points: 4
#     Node 10, Type 0, BuildingBlock: CEKHIL_clean_sbu_0, # of connection points: 4
#     Node 11, Type 0, BuildingBlock: CEKHIL_clean_sbu_0, # of connection points: 4
#     Node 12, Type 0, BuildingBlock: CEKHIL_clean_sbu_0, # of connection points: 4
#     Node 13, Type 0, BuildingBlock: CEKHIL_clean_sbu_0, # of connection points: 4
#     Node 14, Type 0, BuildingBlock: CEKHIL_clean_sbu_0, # of connection points: 4
#     Node 15, Type 0, BuildingBlock: CEKHIL_clean_sbu_0, # of connection points: 4
#     Node 16, Type 0, BuildingBlock: CEKHIL_clean_sbu_0, # of connection points: 4
#     Node 17, Type 0, BuildingBlock: CEKHIL_clean_sbu_0, # of connection points: 4
#     Node 18, Type 1, BuildingBlock: MUDLON_clean_linker_0, # of connection points: 4
#     Node 19, Type 1, BuildingBlock: MUDLON_clean_linker_0, # of connection points: 4
#     Node 20, Type 1, BuildingBlock: MUDLON_clean_linker_0, # of connection points: 4
#     Node 21, Type 1, BuildingBlock: MUDLON_clean_linker_0, # of connection points: 4
#     Node 22, Type 1, BuildingBlock: MUDLON_clean_linker_0, # of connection points: 4
#     Node 23, Type 1, BuildingBlock: MUDLON_clean_linker_0, # of connection points: 4
#     Node 24, Type 1, BuildingBlock: MUDLON_clean_linker_0, # of connection points: 4
#     Node 25, Type 1, BuildingBlock: MUDLON_clean_linker_0, # of connection points: 4
#     Node 26, Type 1, BuildingBlock: MUDLON_clean_linker_0, # of connection points: 4
#     Node 27, Type 1, BuildingBlock: MUDLON_clean_linker_0, # of connection points: 4
#     Node 28, Type 1, BuildingBlock: MUDLON_clean_linker_0, # of connection points: 4
#     Node 29, Type 1, BuildingBlock: MUDLON_clean_linker_0, # of connection points: 4
#     Node 30, Type 1, BuildingBlock: MUDLON_clean_linker_0, # of connection points: 4
#     Node 31, Type 1, BuildingBlock: MUDLON_clean_linker_0, # of connection points: 4
#     Node 32, Type 1, BuildingBlock: MUDLON_clean_linker_0, # of connection points: 4
#     Node 33, Type 1, BuildingBlock: MUDLON_clean_linker_0, # of connection points: 4
#     Node 34, Type 1, BuildingBlock: MUDLON_clean_linker_0, # of connection points: 4
#     Node 35, Type 1, BuildingBlock: MUDLON_clean_linker_0, # of connection points: 4
#     Edge 36, Type (0, 1), BuildingBlock: OJICUG_clean_linker_0, # of connection points: 2
#     Edge 37, Type (0, 1), BuildingBlock: OJICUG_clean_linker_0, # of connection points: 2
#     Edge 38, Type (0, 1), BuildingBlock: OJICUG_clean_linker_0, # of connection points: 2
#     Edge 39, Type (0, 1), BuildingBlock: OJICUG_clean_linker_0, # of connection points: 2
#     Edge 40, Type (0, 1), BuildingBlock: OJICUG_clean_linker_0, # of connection points: 2
#     Edge 41, Type (0, 1), BuildingBlock: OJICUG_clean_linker_0, # of connection points: 2
#     Edge 42, Type (0, 1), BuildingBlock: OJICUG_clean_linker_0, # of connection points: 2
#     Edge 43, Type (0, 1), BuildingBlock: OJICUG_clean_linker_0, # of connection points: 2
#     Edge 44, Type (0, 1), BuildingBlock: OJICUG_clean_linker_0, # of connection points: 2
#     Edge 45, Type (0, 1), BuildingBlock: OJICUG_clean_linker_0, # of connection points: 2
#     Edge 46, Type (0, 1), BuildingBlock: OJICUG_clean_linker_0, # of connection points: 2
#     Edge 47, Type (0, 1), BuildingBlock: OJICUG_clean_linker_0, # of connection points: 2
#     Edge 48, Type (0, 1), BuildingBlock: OJICUG_clean_linker_0, # of connection points: 2
#     Edge 49, Type (0, 1), BuildingBlock: OJICUG_clean_linker_0, # of connection points: 2
#     Edge 50, Type (0, 1), BuildingBlock: OJICUG_clean_linker_0, # of connection points: 2
#     Edge 51, Type (0, 1), BuildingBlock: OJICUG_clean_linker_0, # of connection points: 2
#     Edge 52, Type (0, 1), BuildingBlock: OJICUG_clean_linker_0, # of connection points: 2
#     Edge 53, Type (0, 1), BuildingBlock: OJICUG_clean_linker_0, # of connection points: 2
#     Edge 54, Type (0, 1), BuildingBlock: OJICUG_clean_linker_0, # of connection points: 2
#     Edge 55, Type (0, 1), BuildingBlock: OJICUG_clean_linker_0, # of connection points: 2
#     Edge 56, Type (0, 1), BuildingBlock: OJICUG_clean_linker_0, # of connection points: 2
#     Edge 57, Type (0, 1), BuildingBlock: OJICUG_clean_linker_0, # of connection points: 2
#     Edge 58, Type (0, 1), BuildingBlock: OJICUG_clean_linker_0, # of connection points: 2
#     Edge 59, Type (0, 1), BuildingBlock: OJICUG_clean_linker_0, # of connection points: 2
#     Edge 60, Type (0, 1), BuildingBlock: OJICUG_clean_linker_0, # of connection points: 2
#     Edge 61, Type (0, 1), BuildingBlock: OJICUG_clean_linker_0, # of connection points: 2
#     Edge 62, Type (0, 1), BuildingBlock: OJICUG_clean_linker_0, # of connection points: 2
#     Edge 63, Type (0, 1), BuildingBlock: OJICUG_clean_linker_0, # of connection points: 2
#     Edge 64, Type (0, 1), BuildingBlock: OJICUG_clean_linker_0, # of connection points: 2
#     Edge 65, Type (0, 1), BuildingBlock: OJICUG_clean_linker_0, # of connection points: 2
#     Edge 66, Type (0, 1), BuildingBlock: OJICUG_clean_linker_0, # of connection points: 2
#     Edge 67, Type (0, 1), BuildingBlock: OJICUG_clean_linker_0, # of connection points: 2
#     Edge 68, Type (0, 1), BuildingBlock: OJICUG_clean_linker_0, # of connection points: 2
#     Edge 69, Type (0, 1), BuildingBlock: OJICUG_clean_linker_0, # of connection points: 2
#     Edge 70, Type (0, 1), BuildingBlock: OJICUG_clean_linker_0, # of connection points: 2
#     Edge 71, Type (0, 1), BuildingBlock: OJICUG_clean_linker_0, # of connection points: 2
#     Edge 72, Type (0, 1), BuildingBlock: OJICUG_clean_linker_0, # of connection points: 2
#     Edge 73, Type (0, 1), BuildingBlock: OJICUG_clean_linker_0, # of connection points: 2
#     Edge 74, Type (0, 1), BuildingBlock: OJICUG_clean_linker_0, # of connection points: 2
#     Edge 75, Type (0, 1), BuildingBlock: OJICUG_clean_linker_0, # of connection points: 2
#     Edge 76, Type (0, 1), BuildingBlock: OJICUG_clean_linker_0, # of connection points: 2
#     Edge 77, Type (0, 1), BuildingBlock: OJICUG_clean_linker_0, # of connection points: 2
#     Edge 78, Type (0, 1), BuildingBlock: OJICUG_clean_linker_0, # of connection points: 2
#     Edge 79, Type (0, 1), BuildingBlock: OJICUG_clean_linker_0, # of connection points: 2
#     Edge 80, Type (0, 1), BuildingBlock: OJICUG_clean_linker_0, # of connection points: 2
#     Edge 81, Type (0, 1), BuildingBlock: OJICUG_clean_linker_0, # of connection points: 2
#     Edge 82, Type (0, 1), BuildingBlock: OJICUG_clean_linker_0, # of connection points: 2
#     Edge 83, Type (0, 1), BuildingBlock: OJICUG_clean_linker_0, # of connection points: 2
#     Edge 84, Type (0, 1), BuildingBlock: OJICUG_clean_linker_0, # of connection points: 2
#     Edge 85, Type (0, 1), BuildingBlock: OJICUG_clean_linker_0, # of connection points: 2
#     Edge 86, Type (0, 1), BuildingBlock: OJICUG_clean_linker_0, # of connection points: 2
#     Edge 87, Type (0, 1), BuildingBlock: OJICUG_clean_linker_0, # of connection points: 2
#     Edge 88, Type (0, 1), BuildingBlock: OJICUG_clean_linker_0, # of connection points: 2
#     Edge 89, Type (0, 1), BuildingBlock: OJICUG_clean_linker_0, # of connection points: 2
#     Edge 90, Type (0, 1), BuildingBlock: OJICUG_clean_linker_0, # of connection points: 2
#     Edge 91, Type (0, 1), BuildingBlock: OJICUG_clean_linker_0, # of connection points: 2
#     Edge 92, Type (0, 1), BuildingBlock: OJICUG_clean_linker_0, # of connection points: 2
#     Edge 93, Type (0, 1), BuildingBlock: OJICUG_clean_linker_0, # of connection points: 2
#     Edge 94, Type (0, 1), BuildingBlock: OJICUG_clean_linker_0, # of connection points: 2
#     Edge 95, Type (0, 1), BuildingBlock: OJICUG_clean_linker_0, # of connection points: 2
#     Edge 96, Type (0, 1), BuildingBlock: OJICUG_clean_linker_0, # of connection points: 2
#     Edge 97, Type (0, 1), BuildingBlock: OJICUG_clean_linker_0, # of connection points: 2
#     Edge 98, Type (0, 1), BuildingBlock: OJICUG_clean_linker_0, # of connection points: 2
#     Edge 99, Type (0, 1), BuildingBlock: OJICUG_clean_linker_0, # of connection points: 2
#     Edge 100, Type (0, 1), BuildingBlock: OJICUG_clean_linker_0, # of connection points: 2
#     Edge 101, Type (0, 1), BuildingBlock: OJICUG_clean_linker_0, # of connection points: 2
#     Edge 102, Type (0, 1), BuildingBlock: OJICUG_clean_linker_0, # of connection points: 2
#     Edge 103, Type (0, 1), BuildingBlock: OJICUG_clean_linker_0, # of connection points: 2
#     Edge 104, Type (0, 1), BuildingBlock: OJICUG_clean_linker_0, # of connection points: 2
#     Edge 105, Type (0, 1), BuildingBlock: OJICUG_clean_linker_0, # of connection points: 2
#     Edge 106, Type (0, 1), BuildingBlock: OJICUG_clean_linker_0, # of connection points: 2
#     Edge 107, Type (0, 1), BuildingBlock: OJICUG_clean_linker_0, # of connection points: 2
# Relax obj value: 0.032
# Max RMSD: 0.101
# Mean RMSD: 0.066
data_MOF--net-ptr--node1-CEKHIL_clean_sbu_0--node2-MUDLON_clean_linker_0--edge1-OJICUG_clean_linker_0
_symmetry_space_group_name_H-M    P1
_symmetry_Int_Tables_number       1
_symmetry_cell_setting            triclinic
loop_
_symmetry_equiv_pos_as_xyz
'x, y, z'
_cell_length_a     84.452706
_cell_length_b     83.557577
_cell_length_c     51.259208
_cell_angle_alpha  91.057242
_cell_angle_beta   89.466096
_cell_angle_gamma 120.98006
loop_
_atom_site_label
_atom_site_type_symbol
_atom_site_fract_x
_atom_site_fract_y
_atom_site_fract_z
_atom_type_partial_charge
Co0 Co 0.00143 0.35702 0.01814 0.0
O1 O 0.01018 0.34448 0.03913 0.0
O2 O 0.02833 0.37098 0.01884 0.0
C3 C 0.98072 0.33155 0.99539 0.0
O4 O 0.99662 0.37325 0.99396 0.0
Co5 Co 0.96082 0.34641 0.02593 0.0
O6 O 0.9661 0.3626 0.9954 0.0
C7 C 0.98833 0.37077 0.06465 0.0
C8 C 0.02678 0.35774 0.0337 0.0
C9 C 0.98221 0.3734 0.98621 0.0
O10 O 1.00093 0.37147 0.04964 0.0
O11 O 0.97106 0.36016 0.05998 0.0
O12 O 0.99801 0.34067 0.98875 0.0
O13 O 0.97685 0.33683 0.01724 0.0
Co14 Co 0.64877 0.6515 0.00921 0.0
O15 O 0.66708 0.665 0.98321 0.0
O16 O 0.66201 0.63876 0.0008 0.0
C17 C 0.65603 0.67679 0.03438 0.0
O18 O 0.63156 0.63426 0.03739 0.0
Co19 Co 0.61724 0.6597 0.0183 0.0
O20 O 0.61059 0.64233 0.04772 0.0
C21 C 0.61642 0.63806 0.9719 0.0
C22 C 0.67167 0.65245 0.98494 0.0
C23 C 0.61787 0.63242 0.0511 0.0
O24 O 0.62985 0.63686 0.98125 0.0
O25 O 0.6106 0.6481 0.98243 0.0
O26 O 0.66533 0.66841 0.03617 0.0
O27 O 0.64372 0.67059 0.01613 0.0
Co28 Co 0.35436 0.99569 0.00846 0.0
O29 O 0.34237 0.00342 0.98442 0.0
O30 O 0.36853 0.02259 0.00502 0.0
C31 C 0.32881 0.97647 0.03142 0.0
O32 O 0.37029 0.99287 0.03557 0.0
Co33 Co 0.34398 0.95437 0.00976 0.0
O34 O 0.35931 0.96233 0.04173 0.0
C35 C 0.36761 0.9783 0.96733 0.0
C36 C 0.35565 0.0204 0.98904 0.0
C37 C 0.37021 0.97946 0.04773 0.0
O38 O 0.36849 0.99257 0.97879 0.0
O39 O 0.35749 0.96163 0.97559 0.0
O40 O 0.33794 0.99432 0.0362 0.0
O41 O 0.33436 0.971 0.01142 0.0
Co42 Co 0.00241 0.64779 0.01031 0.0
O43 O 0.99625 0.66114 0.98655 0.0
O44 O 0.97585 0.63442 0.0046 0.0
C45 C 0.02137 0.67291 0.03521 0.0
O46 O 0.0039 0.63062 0.03667 0.0
Co47 Co 0.04293 0.6572 0.01329 0.0
O48 O 0.03378 0.63983 0.04302 0.0
C49 C 0.02003 0.63573 0.96842 0.0
C50 C 0.97913 0.64815 0.98945 0.0
C51 C 0.01668 0.6294 0.04836 0.0
O52 O 0.00571 0.63386 0.98028 0.0
O53 O 0.0365 0.64612 0.97708 0.0
O54 O 0.00363 0.66399 0.03892 0.0
O55 O 0.0269 0.66741 0.01526 0.0
Co56 Co 0.35853 0.34888 0.01761 0.0
O57 O 0.3403 0.33597 0.04417 0.0
O58 O 0.3455 0.36187 0.02528 0.0
C59 C 0.35111 0.32328 0.99329 0.0
O60 O 0.37546 0.36563 0.98872 0.0
Co61 Co 0.39013 0.34082 0.00821 0.0
O62 O 0.39618 0.35733 0.97795 0.0
C63 C 0.39189 0.36385 0.05367 0.0
C64 C 0.33583 0.34858 0.04167 0.0
C65 C 0.38886 0.36719 0.97456 0.0
O66 O 0.37767 0.364 0.04516 0.0
O67 O 0.39809 0.35424 0.0428 0.0
O68 O 0.34166 0.33148 0.99139 0.0
O69 O 0.36365 0.32974 0.01125 0.0
Co70 Co 0.64302 0.9996 0.01273 0.0
O71 O 0.65574 0.99254 0.03638 0.0
O72 O 0.63104 0.97259 0.01347 0.0
C73 C 0.66853 0.02172 0.99247 0.0
O74 O 0.62696 0.002 0.98547 0.0
Co75 Co 0.64903 0.03921 0.0164 0.0
O76 O 0.63677 0.03249 0.98179 0.0
C77 C 0.62517 0.01149 0.05494 0.0
C78 C 0.64385 0.97536 0.03004 0.0
C79 C 0.62705 0.01559 0.97385 0.0
O80 O 0.62658 0.99904 0.04179 0.0
O81 O 0.63422 0.02883 0.04928 0.0
O82 O 0.66105 0.00422 0.98586 0.0
O83 O 0.66147 0.02517 0.01279 0.0
Co84 Co 0.6676 0.68921 0.34767 0.0
O85 O 0.67275 0.67517 0.37179 0.0
O86 O 0.69394 0.70172 0.35418 0.0
C87 C 0.64845 0.66448 0.32227 0.0
O88 O 0.6678 0.70715 0.32104 0.0
Co89 Co 0.62828 0.68234 0.34146 0.0
O90 O 0.63888 0.70045 0.31281 0.0
C91 C 0.65046 0.70371 0.38708 0.0
C92 C 0.69006 0.68781 0.36926 0.0
C93 C 0.6562 0.70986 0.30868 0.0
O94 O 0.66442 0.70335 0.37753 0.0
O95 O 0.63445 0.69514 0.37652 0.0
O96 O 0.66623 0.67292 0.31922 0.0
O97 O 0.64277 0.6703 0.34174 0.0
Co98 Co 0.31834 0.98667 0.34561 0.0
O99 O 0.33739 0.99964 0.32016 0.0
O100 O 0.331 0.97316 0.33859 0.0
C101 C 0.32578 0.01244 0.36971 0.0
O102 O 0.30054 0.96991 0.3738 0.0
Co103 Co 0.28721 0.99552 0.35408 0.0
O104 O 0.2827 0.98133 0.38653 0.0
C105 C 0.28497 0.97151 0.30948 0.0
C106 C 0.34137 0.98671 0.32293 0.0
C107 C 0.2886 0.97018 0.38936 0.0
O108 O 0.29969 0.97204 0.31729 0.0
O109 O 0.2784 0.98068 0.32065 0.0
O110 O 0.33472 0.00377 0.37261 0.0
O111 O 0.31362 0.0061 0.35126 0.0
Co112 Co 0.02697 0.32962 0.33913 0.0
O113 O 0.01582 0.33823 0.31499 0.0
O114 O 0.04088 0.35666 0.33829 0.0
C115 C 1.00072 0.30902 0.35944 0.0
O116 O 0.04182 0.32584 0.36683 0.0
Co117 Co 0.01791 0.28884 0.33653 0.0
O118 O 0.03176 0.29526 0.36992 0.0
C119 C 0.04226 0.315 0.29692 0.0
C120 C 0.02869 0.35505 0.32145 0.0
C121 C 0.04175 0.31211 0.37796 0.0
O122 O 0.04269 0.32836 0.31036 0.0
O123 O 0.03181 0.29778 0.30265 0.0
O124 O 0.00928 0.32665 0.36569 0.0
O125 O 0.00722 0.3046 0.33937 0.0
Co126 Co 0.66856 0.98106 0.34139 0.0
O127 O 0.65955 0.99303 0.31933 0.0
O128 O 0.642 0.96571 0.33822 0.0
C129 C 0.68748 0.00667 0.36529 0.0
O130 O 0.67256 0.96489 0.36667 0.0
Co131 Co 0.70953 0.9923 0.34101 0.0
O132 O 0.70291 0.97612 0.37188 0.0
C133 C 0.68545 0.96877 0.29818 0.0
C134 C 0.64317 0.97881 0.32355 0.0
C135 C 0.68611 0.96487 0.37795 0.0
O136 O 0.67159 0.96779 0.3103 0.0
O137 O 0.7021 0.97885 0.30632 0.0
O138 O 0.66995 0.99683 0.37058 0.0
O139 O 0.69277 0.00169 0.34447 0.0
Co140 Co 0.02288 0.68036 0.35238 0.0
O141 O 0.00375 0.66685 0.37749 0.0
O142 O 0.00978 0.69337 0.35982 0.0
C143 C 0.01601 0.65524 0.32705 0.0
O144 O 0.04086 0.69774 0.32489 0.0
Co145 Co 0.05428 0.67185 0.34423 0.0
O146 O 0.06124 0.68892 0.31442 0.0
C147 C 0.05512 0.69405 0.39023 0.0
C148 C 0.99951 0.67962 0.37528 0.0
C149 C 0.05438 0.69921 0.31112 0.0
O150 O 0.04118 0.69456 0.3813 0.0
O151 O 0.0614 0.68453 0.37933 0.0
O152 O 0.00695 0.66383 0.3246 0.0
O153 O 0.02781 0.66112 0.34594 0.0
Co154 Co 0.31435 0.34014 0.35063 0.0
O155 O 0.32626 0.33272 0.37527 0.0
O156 O 0.30052 0.31323 0.35401 0.0
C157 C 0.34025 0.35968 0.32846 0.0
O158 O 0.29865 0.34255 0.32279 0.0
Co159 Co 0.32387 0.3811 0.34899 0.0
O160 O 0.3079 0.37281 0.3176 0.0
C161 C 0.30043 0.35709 0.39131 0.0
C162 C 0.31333 0.31563 0.37029 0.0
C163 C 0.29785 0.35564 0.31113 0.0
O164 O 0.29945 0.34288 0.3795 0.0
O165 O 0.31084 0.37386 0.38357 0.0
O166 O 0.33138 0.34183 0.32365 0.0
O167 O 0.33417 0.36502 0.34799 0.0
Co168 Co 0.33579 0.02569 0.67936 0.0
O169 O 0.34133 0.01184 0.70316 0.0
O170 O 0.36235 0.03771 0.68386 0.0
C171 C 0.31525 0.0006 0.65566 0.0
O172 O 0.33513 0.04317 0.65281 0.0
Co173 Co 0.29654 0.01949 0.67756 0.0
O174 O 0.30556 0.03453 0.64542 0.0
C175 C 0.32113 0.04127 0.72092 0.0
C176 C 0.35863 0.02403 0.69934 0.0
C177 C 0.32272 0.04442 0.64014 0.0
O178 O 0.33443 0.04096 0.70904 0.0
O179 O 0.30439 0.03213 0.71286 0.0
O180 O 0.33286 0.00853 0.65128 0.0
O181 O 0.31064 0.00708 0.67558 0.0
Co182 Co 0.97836 0.31982 0.67411 0.0
O183 O 0.99796 0.33357 0.64956 0.0
O184 O 0.99295 0.30807 0.66954 0.0
C185 C 0.98255 0.34494 0.69711 0.0
O186 O 0.9603 0.30259 0.70183 0.0
Co187 Co 0.94464 0.32543 0.67765 0.0
O188 O 0.93841 0.30991 0.70904 0.0
C189 C 0.94657 0.30237 0.6349 0.0
C190 C 0.00302 0.32156 0.65364 0.0
C191 C 0.94615 0.30071 0.71441 0.0
O192 O 0.9612 0.30381 0.64495 0.0
O193 O 0.93875 0.31094 0.64406 0.0
O194 O 0.99297 0.33805 0.70146 0.0
O195 O 0.97127 0.33761 0.67772 0.0
Co196 Co 0.69092 0.66463 0.67366 0.0
O197 O 0.67891 0.67275 0.65022 0.0
O198 O 0.70565 0.6915 0.66996 0.0
C199 C 0.66528 0.64588 0.69685 0.0
O200 O 0.70698 0.66174 0.70037 0.0
Co201 Co 0.68018 0.62336 0.67667 0.0
O202 O 0.69444 0.63142 0.70967 0.0
C203 C 0.70376 0.64638 0.63338 0.0
C204 C 0.69253 0.68957 0.65476 0.0
C205 C 0.70607 0.64861 0.71426 0.0
O206 O 0.70441 0.66086 0.64373 0.0
O207 O 0.69401 0.62998 0.64271 0.0
O208 O 0.67488 0.66372 0.70174 0.0
O209 O 0.67065 0.6401 0.677 0.0
Co210 Co 0.33647 0.31605 0.67563 0.0
O211 O 0.32915 0.3297 0.65414 0.0
O212 O 0.30983 0.30219 0.67144 0.0
C213 C 0.35588 0.34071 0.70088 0.0
O214 O 0.33879 0.29842 0.70018 0.0
Co215 Co 0.37683 0.32522 0.67633 0.0
O216 O 0.36879 0.30858 0.7068 0.0
C217 C 0.35285 0.30317 0.63246 0.0
C218 C 0.3123 0.31622 0.65767 0.0
C219 C 0.35176 0.29763 0.71197 0.0
O220 O 0.33915 0.30293 0.64404 0.0
O221 O 0.36937 0.31229 0.64132 0.0
O222 O 0.33824 0.33146 0.70552 0.0
O223 O 0.36109 0.33578 0.67995 0.0
Co224 Co 0.69055 0.01879 0.68472 0.0
O225 O 0.67112 0.00573 0.70954 0.0
O226 O 0.67748 0.03201 0.6907 0.0
C227 C 0.68408 0.99342 0.66028 0.0
O228 O 0.70895 0.03562 0.6573 0.0
Co229 Co 0.72202 0.01011 0.67979 0.0
O230 O 0.72947 0.0266 0.64915 0.0
C231 C 0.72156 0.03238 0.72456 0.0
C232 C 0.66704 0.01856 0.70648 0.0
C233 C 0.72266 0.03678 0.64442 0.0
O234 O 0.70845 0.03344 0.71377 0.0
O235 O 0.72771 0.02226 0.71535 0.0
O236 O 0.67501 0.00191 0.65698 0.0
O237 O 0.69551 0.99944 0.67967 0.0
Co238 Co 0.98051 0.67525 0.68243 0.0
O239 O 0.9933 0.66933 0.70761 0.0
O240 O 0.96762 0.64845 0.68746 0.0
C241 C 0.00599 0.69467 0.65949 0.0
O242 O 0.96399 0.6761 0.6543 0.0
Co243 Co 0.98845 0.71546 0.6777 0.0
O244 O 0.97467 0.70605 0.64447 0.0
C245 C 0.96558 0.69238 0.72125 0.0
C246 C 0.98085 0.65192 0.70365 0.0
C247 C 0.96408 0.68864 0.63993 0.0
O248 O 0.96575 0.67828 0.7111 0.0
O249 O 0.97474 0.7088 0.71181 0.0
O250 O 0.99746 0.67675 0.65552 0.0
O251 O 0.99973 0.70028 0.67849 0.0
H252 H 0.24886 0.36441 0.17001 0.0
N253 N 0.22714 0.33079 0.14499 0.0
H254 H 0.26424 0.36932 0.21152 0.0
H255 H 0.22152 0.30485 0.17919 0.0
H256 H 0.23596 0.30957 0.22206 0.0
H257 H 0.22988 0.30464 0.11895 0.0
H258 H 0.25549 0.30891 0.09121 0.0
H259 H 0.25549 0.3644 0.12678 0.0
H260 H 0.281 0.36872 0.09976 0.0
H261 H 0.23037 0.36488 0.13687 0.0
H262 H 0.19134 0.30584 0.1422 0.0
H263 H 0.20533 0.37066 0.1312 0.0
H264 H 0.16586 0.31158 0.13782 0.0
H265 H 0.11569 0.37574 0.16998 0.0
H266 H 0.0959 0.3653 0.20841 0.0
H267 H 0.08715 0.30986 0.19709 0.0
H268 H 0.10624 0.32036 0.1577 0.0
H269 H 0.09581 0.32509 0.11244 0.0
H270 H 0.07457 0.32538 0.08095 0.0
H271 H 0.10543 0.38575 0.08343 0.0
H272 H 0.12734 0.38519 0.11366 0.0
H273 H 0.15689 0.3767 0.15769 0.0
H274 H 0.18237 0.37088 0.15717 0.0
H275 H 0.1494 0.32085 0.1106 0.0
N276 N 0.1235 0.35562 0.13782 0.0
H277 H 0.12375 0.32642 0.11227 0.0
C278 C 0.23418 0.33418 0.17126 0.0
C279 C 0.24587 0.35233 0.18114 0.0
C280 C 0.25456 0.35512 0.20523 0.0
C281 C 0.2515 0.33984 0.22028 0.0
C282 C 0.23901 0.32169 0.21086 0.0
C283 C 0.23056 0.31893 0.18651 0.0
C284 C 0.24053 0.33406 0.12496 0.0
C285 C 0.24076 0.31866 0.1142 0.0
C286 C 0.25552 0.32114 0.09864 0.0
C287 C 0.27043 0.33918 0.09357 0.0
C288 C 0.26969 0.35465 0.10312 0.0
C289 C 0.25494 0.35214 0.1187 0.0
C290 C 0.2128 0.3348 0.13975 0.0
C291 C 0.21647 0.35307 0.13658 0.0
C292 C 0.20198 0.3564 0.13364 0.0
C293 C 0.18348 0.34162 0.13426 0.0
C294 C 0.17989 0.32331 0.13688 0.0
C295 C 0.19442 0.31999 0.13954 0.0
C296 C 0.11265 0.34897 0.16128 0.0
C297 C 0.10957 0.36138 0.17596 0.0
C298 C 0.09833 0.35536 0.19803 0.0
C299 C 0.09005 0.33674 0.20619 0.0
C300 C 0.09316 0.32425 0.19135 0.0
C301 C 0.10425 0.33027 0.16896 0.0
C302 C 0.11334 0.35518 0.11517 0.0
C303 C 0.09855 0.33836 0.10526 0.0
C304 C 0.08617 0.33859 0.08758 0.0
C305 C 0.08801 0.3556 0.08004 0.0
C306 C 0.10359 0.37238 0.08858 0.0
C307 C 0.11614 0.37212 0.10591 0.0
C308 C 0.13851 0.35221 0.13487 0.0
C309 C 0.15528 0.3646 0.14715 0.0
C310 C 0.16986 0.36127 0.14667 0.0
C311 C 0.16806 0.34544 0.13366 0.0
C312 C 0.15125 0.33309 0.12101 0.0
C313 C 0.13656 0.33637 0.12173 0.0
H314 H 0.71309 0.78576 0.17994 0.0
N315 N 0.68862 0.7876 0.14987 0.0
H316 H 0.7075 0.77034 0.22191 0.0
H317 H 0.65722 0.77434 0.17924 0.0
H318 H 0.65086 0.75747 0.2197 0.0
H319 H 0.65423 0.75632 0.14207 0.0
H320 H 0.64663 0.73032 0.11259 0.0
H321 H 0.71065 0.78482 0.11497 0.0
H322 H 0.703 0.75841 0.08521 0.0
H323 H 0.70882 0.82343 0.16331 0.0
H324 H 0.65752 0.78376 0.12555 0.0
H325 H 0.70121 0.84776 0.15852 0.0
H326 H 0.65041 0.80794 0.11954 0.0
H327 H 0.6877 0.91712 0.14929 0.0
H328 H 0.69579 0.93763 0.1876 0.0
H329 H 0.64238 0.89977 0.22127 0.0
H330 H 0.63425 0.87964 0.18238 0.0
H331 H 0.62339 0.88316 0.12444 0.0
H332 H 0.62032 0.90284 0.09258 0.0
H333 H 0.67789 0.92715 0.07228 0.0
H334 H 0.68084 0.90761 0.10426 0.0
H335 H 0.68906 0.89132 0.13097 0.0
H336 H 0.69765 0.86756 0.12998 0.0
H337 H 0.64066 0.82512 0.14404 0.0
N338 N 0.65433 0.8854 0.13973 0.0
H339 H 0.63217 0.84894 0.14346 0.0
C340 C 0.68556 0.78096 0.17628 0.0
C341 C 0.69964 0.77999 0.18899 0.0
C342 C 0.69628 0.7709 0.21281 0.0
C343 C 0.67857 0.76218 0.22417 0.0
C344 C 0.66474 0.76406 0.21193 0.0
C345 C 0.66827 0.77357 0.18847 0.0
C346 C 0.68311 0.7728 0.13061 0.0
C347 C 0.66499 0.75721 0.12954 0.0
C348 C 0.66058 0.74227 0.11256 0.0
C349 C 0.67421 0.74236 0.09662 0.0
C350 C 0.69225 0.75797 0.09741 0.0
C351 C 0.6966 0.77308 0.11419 0.0
C352 C 0.68391 0.80167 0.14496 0.0
C353 C 0.69607 0.82001 0.15367 0.0
C354 C 0.69175 0.83394 0.1507 0.0
C355 C 0.67513 0.82986 0.13867 0.0
C356 C 0.66316 0.81156 0.12936 0.0
C357 C 0.66736 0.7976 0.13267 0.0
C358 C 0.66027 0.89687 0.163 0.0
C359 C 0.67779 0.91315 0.16496 0.0
C360 C 0.68243 0.92486 0.18698 0.0
C361 C 0.66966 0.92046 0.20742 0.0
C362 C 0.6524 0.9038 0.20567 0.0
C363 C 0.64777 0.89218 0.18364 0.0
C364 C 0.65229 0.89396 0.11692 0.0
C365 C 0.63517 0.89234 0.11251 0.0
C366 C 0.63345 0.90358 0.09427 0.0
C367 C 0.64893 0.91674 0.08015 0.0
C368 C 0.66578 0.91735 0.08319 0.0
C369 C 0.66747 0.90607 0.10142 0.0
C370 C 0.65984 0.8718 0.13685 0.0
C371 C 0.67835 0.87688 0.13312 0.0
C372 C 0.68329 0.86324 0.13297 0.0
C373 C 0.66988 0.84434 0.13696 0.0
C374 C 0.65135 0.83941 0.14035 0.0
C375 C 0.64644 0.85299 0.14016 0.0
H376 H 0.1089 0.75511 0.17004 0.0
N377 N 0.1 0.7807 0.15453 0.0
H378 H 0.09872 0.73709 0.20962 0.0
H379 H 0.08298 0.78576 0.19489 0.0
H380 H 0.07335 0.76826 0.23558 0.0
H381 H 0.06719 0.77115 0.13561 0.0
H382 H 0.04869 0.74607 0.1042 0.0
H383 H 0.11234 0.76158 0.12466 0.0
H384 H 0.09378 0.73607 0.09427 0.0
H385 H 0.13376 0.78314 0.15346 0.0
H386 H 0.10687 0.81491 0.14738 0.0
H387 H 0.1637 0.81136 0.14724 0.0
H388 H 0.1368 0.84349 0.14291 0.0
H389 H 0.24417 0.89514 0.17456 0.0
H390 H 0.25879 0.91053 0.21576 0.0
H391 H 0.22947 0.94039 0.21469 0.0
H392 H 0.21422 0.92407 0.1742 0.0
H393 H 0.22732 0.92977 0.11756 0.0
H394 H 0.25303 0.94669 0.08731 0.0
H395 H 0.26911 0.9058 0.09795 0.0
H396 H 0.2429 0.88868 0.12789 0.0
H397 H 0.21444 0.86864 0.16856 0.0
H398 H 0.18549 0.83883 0.16854 0.0
H399 H 0.16194 0.86099 0.11598 0.0
N400 N 0.22042 0.90088 0.14611 0.0
H401 H 0.19064 0.89123 0.11777 0.0
C402 C 0.0966 0.77178 0.17942 0.0
C403 C 0.10137 0.75829 0.18428 0.0
C404 C 0.09558 0.748 0.20716 0.0
C405 C 0.08509 0.75111 0.22587 0.0
C406 C 0.08109 0.76523 0.22143 0.0
C407 C 0.08675 0.77539 0.19837 0.0
C408 C 0.09105 0.76821 0.13269 0.0
C409 C 0.07319 0.76382 0.12611 0.0
C410 C 0.06259 0.74933 0.10843 0.0
C411 C 0.06961 0.73878 0.09712 0.0
C412 C 0.08794 0.74392 0.10255 0.0
C413 C 0.09859 0.75854 0.12012 0.0
C414 C 0.11799 0.7969 0.15048 0.0
C415 C 0.13424 0.79616 0.1506 0.0
C416 C 0.15146 0.81244 0.14737 0.0
C417 C 0.15281 0.82983 0.14446 0.0
C418 C 0.13642 0.83039 0.14442 0.0
C419 C 0.11926 0.8141 0.14722 0.0
C420 C 0.22785 0.90827 0.1716 0.0
C421 C 0.24055 0.90463 0.18356 0.0
C422 C 0.24912 0.91369 0.20697 0.0
C423 C 0.2454 0.9268 0.21863 0.0
C424 C 0.23245 0.93014 0.20667 0.0
C425 C 0.22374 0.9209 0.18348 0.0
C426 C 0.23339 0.90818 0.12499 0.0
C427 C 0.23614 0.92425 0.11282 0.0
C428 C 0.25091 0.93395 0.0958 0.0
C429 C 0.26329 0.92776 0.09071 0.0
C430 C 0.2598 0.9109 0.10157 0.0
C431 C 0.24491 0.90115 0.11869 0.0
C432 C 0.20455 0.88234 0.14361 0.0
C433 C 0.20309 0.86714 0.15704 0.0
C434 C 0.18648 0.84993 0.15677 0.0
C435 C 0.17113 0.84747 0.1426 0.0
C436 C 0.17318 0.86244 0.12779 0.0
C437 C 0.18964 0.8797 0.12851 0.0
H438 H 0.355 0.24767 0.85527 0.0
N439 N 0.32192 0.21738 0.86913 0.0
H440 H 0.36164 0.26546 0.81547 0.0
H441 H 0.30009 0.20856 0.82745 0.0
H442 H 0.30682 0.22598 0.78679 0.0
H443 H 0.30131 0.23198 0.88105 0.0
H444 H 0.30829 0.25722 0.91177 0.0
H445 H 0.35057 0.23273 0.90451 0.0
H446 H 0.35674 0.25661 0.93728 0.0
H447 H 0.34959 0.21405 0.8444 0.0
H448 H 0.30757 0.19024 0.90408 0.0
H449 H 0.35763 0.19085 0.85217 0.0
H450 H 0.31666 0.16754 0.91344 0.0
H451 H 0.37743 0.11401 0.85392 0.0
H452 H 0.36898 0.09492 0.81415 0.0
H453 H 0.31303 0.08355 0.82151 0.0
H454 H 0.32132 0.10136 0.86206 0.0
H455 H 0.32478 0.09031 0.90719 0.0
H456 H 0.32446 0.06784 0.93711 0.0
H457 H 0.38413 0.10004 0.94028 0.0
H458 H 0.38415 0.12297 0.9114 0.0
H459 H 0.37893 0.15558 0.87885 0.0
H460 H 0.37205 0.18058 0.87877 0.0
H461 H 0.31523 0.14067 0.89858 0.0
N462 N 0.35557 0.11951 0.88542 0.0
H463 H 0.32279 0.11637 0.90098 0.0
C464 C 0.32696 0.22677 0.84436 0.0
C465 C 0.34445 0.24276 0.84036 0.0
C466 C 0.34827 0.25284 0.81743 0.0
C467 C 0.33475 0.24719 0.79788 0.0
C468 C 0.31746 0.23087 0.80159 0.0
C469 C 0.31364 0.22079 0.82464 0.0
C470 C 0.32519 0.23025 0.89055 0.0
C471 C 0.31331 0.2372 0.89353 0.0
C472 C 0.31733 0.25161 0.91135 0.0
C473 C 0.33315 0.25915 0.92733 0.0
C474 C 0.34467 0.2516 0.92505 0.0
C475 C 0.34095 0.23757 0.90656 0.0
C476 C 0.32771 0.20402 0.8736 0.0
C477 C 0.34214 0.20405 0.85949 0.0
C478 C 0.347 0.19073 0.86425 0.0
C479 C 0.33796 0.17724 0.88364 0.0
C480 C 0.32379 0.17743 0.89805 0.0
C481 C 0.31863 0.19051 0.89286 0.0
C482 C 0.35022 0.10948 0.86082 0.0
C483 C 0.36339 0.10747 0.84676 0.0
C484 C 0.3585 0.09662 0.82391 0.0
C485 C 0.34028 0.0877 0.81433 0.0
C486 C 0.32712 0.08993 0.82836 0.0
C487 C 0.33196 0.10047 0.85152 0.0
C488 C 0.35454 0.10847 0.90729 0.0
C489 C 0.33773 0.093 0.91522 0.0
C490 C 0.33762 0.07993 0.93198 0.0
C491 C 0.3543 0.08189 0.94074 0.0
C492 C 0.37101 0.09808 0.93415 0.0
C493 C 0.37107 0.11124 0.91764 0.0
C494 C 0.35138 0.13406 0.88932 0.0
C495 C 0.36511 0.1524 0.88374 0.0
C496 C 0.36103 0.1666 0.88332 0.0
C497 C 0.3429 0.16267 0.88787 0.0
C498 C 0.32936 0.14439 0.89497 0.0
C499 C 0.33362 0.1303 0.89606 0.0
H500 H 0.75218 0.10365 0.86363 0.0
N501 N 0.78064 0.10435 0.8896 0.0
H502 H 0.7381 0.08668 0.82324 0.0
H503 H 0.79369 0.08845 0.85759 0.0
H504 H 0.78056 0.0725 0.81596 0.0
H505 H 0.77322 0.07464 0.91652 0.0
H506 H 0.74652 0.05644 0.94468 0.0
H507 H 0.758 0.1162 0.90863 0.0
H508 H 0.73078 0.09777 0.93651 0.0
H509 H 0.78519 0.13522 0.86489 0.0
H510 H 0.80989 0.11621 0.92004 0.0
H511 H 0.81367 0.16572 0.8638 0.0
H512 H 0.838 0.14695 0.92047 0.0
H513 H 0.89052 0.24985 0.85767 0.0
H514 H 0.90139 0.26669 0.81703 0.0
H515 H 0.92836 0.23588 0.79752 0.0
H516 H 0.91787 0.21955 0.83907 0.0
H517 H 0.93078 0.23261 0.89815 0.0
H518 H 0.94933 0.25737 0.92998 0.0
H519 H 0.90667 0.27124 0.93511 0.0
H520 H 0.88804 0.24616 0.90378 0.0
H521 H 0.8656 0.22267 0.87689 0.0
H522 H 0.83558 0.19452 0.88415 0.0
H523 H 0.86256 0.16264 0.89116 0.0
N524 N 0.89927 0.22505 0.87672 0.0
H525 H 0.89245 0.19103 0.8852 0.0
C526 C 0.77379 0.09695 0.86385 0.0
C527 C 0.75845 0.09688 0.85336 0.0
C528 C 0.7505 0.08729 0.83 0.0
C529 C 0.75797 0.07789 0.81637 0.0
C530 C 0.77405 0.07904 0.82623 0.0
C531 C 0.78175 0.08835 0.84983 0.0
C532 C 0.76738 0.09653 0.91036 0.0
C533 C 0.76431 0.08002 0.92146 0.0
C534 C 0.749 0.06961 0.93731 0.0
C535 C 0.73639 0.07552 0.94227 0.0
C536 C 0.74027 0.09289 0.93291 0.0
C537 C 0.75574 0.10338 0.91699 0.0
C538 C 0.79565 0.12334 0.89216 0.0
C539 C 0.79661 0.13775 0.87722 0.0
C540 C 0.81291 0.15526 0.87677 0.0
C541 C 0.82835 0.15872 0.89161 0.0
C542 C 0.82665 0.14465 0.90814 0.0
C543 C 0.81053 0.12713 0.9082 0.0
C544 C 0.9034 0.23341 0.85138 0.0
C545 C 0.89855 0.24652 0.84457 0.0
C546 C 0.90476 0.25612 0.82115 0.0
C547 C 0.91583 0.25271 0.80391 0.0
C548 C 0.92012 0.23909 0.81046 0.0
C549 C 0.91399 0.22959 0.83401 0.0
C550 C 0.90818 0.23764 0.89841 0.0
C551 C 0.9253 0.24074 0.90661 0.0
C552 C 0.93589 0.25495 0.9246 0.0
C553 C 0.92957 0.26645 0.93467 0.0
C554 C 0.91188 0.2626 0.9277 0.0
C555 C 0.90124 0.24829 0.90965 0.0
C556 C 0.88129 0.20891 0.88079 0.0
C557 C 0.86506 0.20969 0.88037 0.0
C558 C 0.84785 0.1935 0.8843 0.0
C559 C 0.84657 0.17626 0.88849 0.0
C560 C 0.86293 0.17567 0.88871 0.0
C561 C 0.88005 0.19183 0.88504 0.0
H562 H 0.77284 0.70167 0.85146 0.0
N563 N 0.78114 0.67987 0.87755 0.0
H564 H 0.75618 0.69466 0.81015 0.0
H565 H 0.77192 0.6497 0.84553 0.0
H566 H 0.75589 0.64283 0.80373 0.0
H567 H 0.75154 0.64467 0.88558 0.0
H568 H 0.72551 0.63678 0.91469 0.0
H569 H 0.77958 0.70141 0.91479 0.0
H570 H 0.75369 0.69357 0.94429 0.0
H571 H 0.81598 0.70591 0.86956 0.0
H572 H 0.78163 0.64897 0.89405 0.0
H573 H 0.84339 0.70351 0.87448 0.0
H574 H 0.80899 0.64663 0.90014 0.0
H575 H 0.92374 0.70455 0.87124 0.0
H576 H 0.94039 0.70956 0.82996 0.0
H577 H 0.90173 0.65233 0.80688 0.0
H578 H 0.88571 0.64744 0.84862 0.0
H579 H 0.88948 0.6381 0.89447 0.0
H580 H 0.90781 0.63032 0.92285 0.0
H581 H 0.93502 0.6863 0.95544 0.0
H582 H 0.917 0.69395 0.92659 0.0
H583 H 0.89107 0.7006 0.90528 0.0
H584 H 0.86267 0.7017 0.90595 0.0
H585 H 0.8324 0.64491 0.87599 0.0
N586 N 0.89505 0.67266 0.88797 0.0
H587 H 0.86083 0.64382 0.87677 0.0
C588 C 0.77367 0.67632 0.85151 0.0
C589 C 0.76942 0.68896 0.84084 0.0
C590 C 0.75996 0.68494 0.81719 0.0
C591 C 0.7546 0.66812 0.8036 0.0
C592 C 0.75954 0.65577 0.81386 0.0
C593 C 0.76889 0.65976 0.83766 0.0
C594 C 0.76746 0.67375 0.89792 0.0
C595 C 0.75235 0.6553 0.89879 0.0
C596 C 0.73746 0.65078 0.91548 0.0
C597 C 0.73746 0.66463 0.93143 0.0
C598 C 0.7532 0.68269 0.93186 0.0
C599 C 0.76803 0.68717 0.91523 0.0
C600 C 0.79683 0.67777 0.88159 0.0
C601 C 0.81442 0.69296 0.87632 0.0
C602 C 0.83007 0.69158 0.87938 0.0
C603 C 0.82847 0.67491 0.88799 0.0
C604 C 0.81075 0.65963 0.8933 0.0
C605 C 0.79505 0.661 0.89002 0.0
C606 C 0.90354 0.67571 0.86277 0.0
C607 C 0.91884 0.69322 0.85706 0.0
C608 C 0.92824 0.69603 0.83345 0.0
C609 C 0.92243 0.68133 0.81507 0.0
C610 C 0.90675 0.66388 0.82072 0.0
C611 C 0.89745 0.66108 0.84442 0.0
C612 C 0.9021 0.66663 0.90845 0.0
C613 C 0.89904 0.64845 0.90829 0.0
C614 C 0.90947 0.64405 0.92453 0.0
C615 C 0.92305 0.65781 0.94102 0.0
C616 C 0.92486 0.67551 0.94261 0.0
C617 C 0.91451 0.67988 0.92637 0.0
C618 C 0.87795 0.67222 0.89082 0.0
C619 C 0.87819 0.68834 0.89934 0.0
C620 C 0.86199 0.68896 0.89941 0.0
C621 C 0.84525 0.67349 0.8906 0.0
C622 C 0.84497 0.65705 0.88305 0.0
C623 C 0.86121 0.65641 0.88328 0.0
H624 H 0.74593 0.63047 0.48613 0.0
N625 N 0.77447 0.66189 0.46809 0.0
H626 H 0.7292 0.62663 0.52698 0.0
H627 H 0.78432 0.68797 0.50643 0.0
H628 H 0.76822 0.68423 0.54785 0.0
H629 H 0.78109 0.69669 0.46005 0.0
H630 H 0.76219 0.70444 0.43292 0.0
H631 H 0.7507 0.63991 0.43152 0.0
H632 H 0.73204 0.64749 0.40391 0.0
H633 H 0.77821 0.63384 0.4506 0.0
H634 H 0.80892 0.69072 0.47864 0.0
H635 H 0.80655 0.63264 0.4492 0.0
H636 H 0.83731 0.68952 0.47864 0.0
H637 H 0.8968 0.63275 0.50326 0.0
H638 H 0.91376 0.64025 0.5444 0.0
H639 H 0.91356 0.69186 0.55003 0.0
H640 H 0.89733 0.68454 0.50839 0.0
H641 H 0.91794 0.68935 0.46813 0.0
H642 H 0.94449 0.69668 0.44043 0.0
H643 H 0.9165 0.63952 0.41235 0.0
H644 H 0.89013 0.63225 0.4405 0.0
H645 H 0.85345 0.62832 0.48477 0.0
H646 H 0.82609 0.63083 0.48016 0.0
H647 H 0.8605 0.68758 0.45401 0.0
N648 N 0.88832 0.65427 0.47673 0.0
H649 H 0.88785 0.68508 0.45971 0.0
C650 C 0.76636 0.6594 0.4935 0.0
C651 C 0.75095 0.64213 0.49978 0.0
C652 C 0.74147 0.63999 0.52315 0.0
C653 C 0.74732 0.65514 0.54074 0.0
C654 C 0.76316 0.67235 0.53461 0.0
C655 C 0.77254 0.67447 0.51112 0.0
C656 C 0.76714 0.66772 0.44774 0.0
C657 C 0.77077 0.6861 0.44721 0.0
C658 C 0.75996 0.69047 0.43174 0.0
C659 C 0.7454 0.67647 0.41668 0.0
C660 C 0.74292 0.65848 0.4157 0.0
C661 C 0.75367 0.65416 0.43117 0.0
C662 C 0.79154 0.66227 0.4649 0.0
C663 C 0.79117 0.6461 0.4563 0.0
C664 C 0.80735 0.64542 0.45579 0.0
C665 C 0.82423 0.66089 0.46423 0.0
C666 C 0.82463 0.67738 0.47186 0.0
C667 C 0.80841 0.67808 0.47209 0.0
C668 C 0.89575 0.65798 0.50281 0.0
C669 C 0.90017 0.64551 0.51369 0.0
C670 C 0.90981 0.64982 0.53724 0.0
C671 C 0.91517 0.66674 0.55051 0.0
C672 C 0.90996 0.67886 0.54012 0.0
C673 C 0.90047 0.6746 0.51641 0.0
C674 C 0.90207 0.66013 0.45647 0.0
C675 C 0.91728 0.67853 0.45547 0.0
C676 C 0.93248 0.68272 0.43961 0.0
C677 C 0.93272 0.6686 0.42459 0.0
C678 C 0.91686 0.65061 0.4241 0.0
C679 C 0.90172 0.64646 0.43993 0.0
C680 C 0.87263 0.65636 0.47244 0.0
C681 C 0.85503 0.64124 0.4779 0.0
C682 C 0.8394 0.6427 0.47504 0.0
C683 C 0.84101 0.65937 0.46645 0.0
C684 C 0.85873 0.67457 0.46084 0.0
C685 C 0.87442 0.67312 0.4639 0.0
H686 H 0.37875 0.11622 0.50923 0.0
N687 N 0.35694 0.12403 0.48227 0.0
H688 H 0.37127 0.09854 0.54941 0.0
H689 H 0.32724 0.11518 0.51404 0.0
H690 H 0.32005 0.09836 0.55488 0.0
H691 H 0.32286 0.09248 0.47567 0.0
H692 H 0.31535 0.06604 0.44678 0.0
H693 H 0.37876 0.12158 0.44665 0.0
H694 H 0.37132 0.09482 0.41774 0.0
H695 H 0.37679 0.15992 0.49575 0.0
H696 H 0.32582 0.11985 0.45761 0.0
H697 H 0.36887 0.18401 0.49063 0.0
H698 H 0.31839 0.14379 0.45135 0.0
H699 H 0.35523 0.25198 0.48355 0.0
H700 H 0.36326 0.27206 0.52225 0.0
H701 H 0.30917 0.23478 0.55445 0.0
H702 H 0.30112 0.21502 0.51514 0.0
H703 H 0.29067 0.21914 0.45823 0.0
H704 H 0.28791 0.24037 0.42896 0.0
H705 H 0.34562 0.26552 0.40898 0.0
H706 H 0.34824 0.24437 0.4383 0.0
H707 H 0.35631 0.22714 0.46291 0.0
H708 H 0.36513 0.20358 0.46163 0.0
H709 H 0.30831 0.1608 0.47589 0.0
N710 N 0.32156 0.22098 0.47279 0.0
H711 H 0.29958 0.18445 0.47578 0.0
C712 C 0.35367 0.11709 0.50858 0.0
C713 C 0.36611 0.1127 0.51947 0.0
C714 C 0.3618 0.10261 0.5425 0.0
C715 C 0.34493 0.09679 0.55533 0.0
C716 C 0.33297 0.10223 0.54524 0.0
C717 C 0.3372 0.11212 0.52201 0.0
C718 C 0.3514 0.10924 0.46304 0.0
C719 C 0.33344 0.09338 0.46269 0.0
C720 C 0.32914 0.07822 0.44618 0.0
C721 C 0.34276 0.07839 0.43009 0.0
C722 C 0.3606 0.09432 0.43009 0.0
C723 C 0.36482 0.10963 0.44635 0.0
C724 C 0.35208 0.13798 0.47721 0.0
C725 C 0.36405 0.15636 0.48595 0.0
C726 C 0.35955 0.17015 0.48279 0.0
C727 C 0.34294 0.16589 0.47058 0.0
C728 C 0.33114 0.14756 0.46126 0.0
C729 C 0.33553 0.13374 0.46471 0.0
C730 C 0.32749 0.23199 0.49649 0.0
C731 C 0.34516 0.24799 0.499 0.0
C732 C 0.34976 0.25947 0.52123 0.0
C733 C 0.33679 0.25513 0.54136 0.0
C734 C 0.31936 0.23874 0.5391 0.0
C735 C 0.31478 0.22733 0.51684 0.0
C736 C 0.31961 0.23018 0.45065 0.0
C737 C 0.30254 0.22882 0.44683 0.0
C738 C 0.30101 0.24098 0.43012 0.0
C739 C 0.31663 0.25484 0.41699 0.0
C740 C 0.33341 0.2552 0.41923 0.0
C741 C 0.3349 0.24298 0.4359 0.0
C742 C 0.32714 0.20749 0.46906 0.0
C743 C 0.34567 0.21268 0.46504 0.0
C744 C 0.35075 0.19915 0.46471 0.0
C745 C 0.33747 0.18021 0.46875 0.0
C746 C 0.31891 0.17513 0.47221 0.0
C747 C 0.31385 0.18862 0.47225 0.0
H748 H 0.77494 0.08743 0.49947 0.0
N749 N 0.76785 0.11433 0.48399 0.0
H750 H 0.76512 0.07041 0.53997 0.0
H751 H 0.75297 0.12158 0.52502 0.0
H752 H 0.74365 0.10502 0.56647 0.0
H753 H 0.73463 0.10468 0.4666 0.0
H754 H 0.71554 0.07964 0.43543 0.0
H755 H 0.77934 0.09467 0.45365 0.0
H756 H 0.76027 0.06932 0.42333 0.0
H757 H 0.80082 0.11512 0.48358 0.0
H758 H 0.77614 0.14874 0.47431 0.0
H759 H 0.83124 0.14218 0.47536 0.0
H760 H 0.80662 0.17626 0.46791 0.0
H761 H 0.91399 0.22625 0.49941 0.0
H762 H 0.92702 0.24202 0.5412 0.0
H763 H 0.89683 0.27078 0.53526 0.0
H764 H 0.88336 0.25428 0.49411 0.0
H765 H 0.89612 0.25825 0.43775 0.0
H766 H 0.92202 0.2754 0.40782 0.0
H767 H 0.94066 0.23705 0.42301 0.0
H768 H 0.91429 0.2197 0.45268 0.0
H769 H 0.88379 0.19901 0.49263 0.0
H770 H 0.85417 0.16989 0.49444 0.0
H771 H 0.83151 0.19187 0.43999 0.0
N772 N 0.89059 0.23084 0.46861 0.0
H773 H 0.86091 0.22148 0.44003 0.0
C774 C 0.76459 0.10578 0.50914 0.0
C775 C 0.76836 0.09157 0.51402 0.0
C776 C 0.76278 0.08186 0.5374 0.0
C777 C 0.75347 0.08624 0.55653 0.0
C778 C 0.75047 0.10103 0.55202 0.0
C779 C 0.75594 0.11065 0.5285 0.0
C780 C 0.75834 0.10156 0.46261 0.0
C781 C 0.7404 0.09726 0.45673 0.0
C782 C 0.72948 0.08282 0.43916 0.0
C783 C 0.73628 0.07227 0.42721 0.0
C784 C 0.75463 0.07722 0.43208 0.0
C785 C 0.76557 0.09175 0.44959 0.0
C786 C 0.78612 0.12988 0.47916 0.0
C787 C 0.8019 0.1283 0.47964 0.0
C788 C 0.8194 0.14393 0.47524 0.0
C789 C 0.82153 0.16152 0.47082 0.0
C790 C 0.80562 0.16295 0.47053 0.0
C791 C 0.78816 0.14727 0.47446 0.0
C792 C 0.89752 0.23898 0.49395 0.0
C793 C 0.90997 0.23571 0.5074 0.0
C794 C 0.91757 0.24491 0.53114 0.0
C795 C 0.91298 0.25768 0.54169 0.0
C796 C 0.90041 0.26078 0.52808 0.0
C797 C 0.89273 0.25146 0.50452 0.0
C798 C 0.9035 0.23793 0.44745 0.0
C799 C 0.90551 0.25327 0.43399 0.0
C800 C 0.92035 0.26309 0.41713 0.0
C801 C 0.93351 0.25773 0.4135 0.0
C802 C 0.93072 0.24146 0.42549 0.0
C803 C 0.91576 0.2316 0.44245 0.0
C804 C 0.87439 0.21254 0.46658 0.0
C805 C 0.87248 0.19754 0.48103 0.0
C806 C 0.85548 0.18076 0.48183 0.0
C807 C 0.84021 0.17852 0.46772 0.0
C808 C 0.8427 0.1932 0.4518 0.0
C809 C 0.85956 0.21007 0.45147 0.0
H810 H 0.02342 0.57648 0.18625 0.0
N811 N 0.98999 0.54922 0.20514 0.0
H812 H 0.0287 0.59443 0.14708 0.0
H813 H 0.96536 0.54325 0.16826 0.0
H814 H 0.97066 0.56067 0.12789 0.0
H815 H 0.96555 0.55696 0.22546 0.0
H816 H 0.97139 0.58191 0.25672 0.0
H817 H 0.02232 0.57154 0.23169 0.0
H818 H 0.02851 0.59694 0.262 0.0
H819 H 0.01032 0.54007 0.17127 0.0
H820 H 0.98509 0.52899 0.2478 0.0
H821 H 0.02092 0.51884 0.17931 0.0
H822 H 0.99622 0.50778 0.25596 0.0
H823 H 0.05064 0.44821 0.1911 0.0
H824 H 0.04042 0.42727 0.15309 0.0
H825 H 0.98579 0.41932 0.16108 0.0
H826 H 0.99588 0.43935 0.19983 0.0
H827 H 0.9993 0.42703 0.24337 0.0
H828 H 0.99868 0.40423 0.27269 0.0
H829 H 0.05827 0.43645 0.27749 0.0
H830 H 0.05862 0.45989 0.24923 0.0
H831 H 0.05102 0.49114 0.20622 0.0
H832 H 0.04266 0.5151 0.20444 0.0
H833 H 0.99069 0.47766 0.24194 0.0
N834 N 0.03039 0.45638 0.22212 0.0
H835 H 0.99941 0.45417 0.24443 0.0
C836 C 0.9939 0.55849 0.18029 0.0
C837 C 0.0118 0.5729 0.1737 0.0
C838 C 0.01483 0.58304 0.15101 0.0
C839 C 1.00011 0.57902 0.1342 0.0
C840 C 0.98228 0.56431 0.14052 0.0
C841 C 0.97925 0.55421 0.16339 0.0
C842 C 0.99342 0.5624 0.22615 0.0
C843 C 0.97921 0.56544 0.23381 0.0
C844 C 0.98265 0.57984 0.25141 0.0
C845 C 1.00049 0.59161 0.26161 0.0
C846 C 0.01458 0.58808 0.2547 0.0
C847 C 0.01109 0.57361 0.2372 0.0
C848 C 0.99738 0.53709 0.20942 0.0
C849 C 0.00739 0.53363 0.19017 0.0
C850 C 0.01356 0.52131 0.19475 0.0
C851 C 0.00975 0.51182 0.21847 0.0
C852 C 0.99946 0.51488 0.23748 0.0
C853 C 0.99323 0.52718 0.23289 0.0
C854 C 0.02421 0.4456 0.19814 0.0
C855 C 0.03653 0.44207 0.1844 0.0
C856 C 0.03063 0.43014 0.16262 0.0
C857 C 0.01224 0.42157 0.15386 0.0
C858 C 0.99997 0.42541 0.16742 0.0
C859 C 0.00582 0.43715 0.18947 0.0
C860 C 0.02908 0.44542 0.24433 0.0
C861 C 0.01218 0.42978 0.25175 0.0
C862 C 0.01189 0.41646 0.26814 0.0
C863 C 0.02846 0.41824 0.27699 0.0
C864 C 0.04523 0.43462 0.27119 0.0
C865 C 0.04547 0.44808 0.25507 0.0
C866 C 0.02594 0.47083 0.22531 0.0
C867 C 0.03801 0.4883 0.21456 0.0
C868 C 0.0331 0.50188 0.21331 0.0
C869 C 0.01586 0.49822 0.22267 0.0
C870 C 0.00412 0.48102 0.23467 0.0
C871 C 0.0091 0.46746 0.23603 0.0
H872 H 0.59006 0.54649 0.16859 0.0
N873 N 0.57319 0.5521 0.20882 0.0
H874 H 0.5997 0.56361 0.1275 0.0
H875 H 0.56455 0.57774 0.19247 0.0
H876 H 0.57461 0.59522 0.15253 0.0
H877 H 0.55867 0.56947 0.23763 0.0
H878 H 0.57619 0.59665 0.26648 0.0
H879 H 0.60676 0.56469 0.22747 0.0
H880 H 0.62415 0.59118 0.25728 0.0
H881 H 0.56634 0.52182 0.234 0.0
H882 H 0.53903 0.54627 0.19494 0.0
H883 H 0.53661 0.49327 0.24056 0.0
H884 H 0.50953 0.51749 0.19976 0.0
H885 H 0.44854 0.40038 0.20146 0.0
H886 H 0.43438 0.38476 0.16007 0.0
H887 H 0.42614 0.43015 0.14098 0.0
H888 H 0.44017 0.44553 0.18282 0.0
H889 H 0.42549 0.44052 0.22613 0.0
H890 H 0.39892 0.42509 0.25559 0.0
H891 H 0.42191 0.39442 0.28907 0.0
H892 H 0.44851 0.41003 0.25972 0.0
H893 H 0.48632 0.43786 0.21669 0.0
H894 H 0.51533 0.46769 0.21577 0.0
H895 H 0.48527 0.49644 0.22663 0.0
N896 N 0.45251 0.43191 0.22044 0.0
H897 H 0.45624 0.4664 0.22599 0.0
C898 C 0.57657 0.56072 0.18362 0.0
C899 C 0.58635 0.55685 0.16482 0.0
C900 C 0.592 0.56679 0.14153 0.0
C901 C 0.588 0.58087 0.13669 0.0
C902 C 0.5777 0.5843 0.15529 0.0
C903 C 0.57201 0.57433 0.1784 0.0
C904 C 0.58159 0.56528 0.23013 0.0
C905 C 0.57288 0.574 0.24215 0.0
C906 C 0.58291 0.58951 0.25871 0.0
C907 C 0.60172 0.59639 0.26371 0.0
C908 C 0.60986 0.58663 0.25323 0.0
C909 C 0.59991 0.57133 0.2365 0.0
C910 C 0.55511 0.53607 0.21354 0.0
C911 C 0.55393 0.52098 0.22675 0.0
C912 C 0.53691 0.50462 0.23025 0.0
C913 C 0.5206 0.50283 0.22021 0.0
C914 C 0.52171 0.5183 0.20789 0.0
C915 C 0.53875 0.53482 0.20481 0.0
C916 C 0.44541 0.42402 0.19506 0.0
C917 C 0.44383 0.40699 0.18816 0.0
C918 C 0.4358 0.39816 0.16449 0.0
C919 C 0.42917 0.40623 0.14717 0.0
C920 C 0.43096 0.42349 0.15401 0.0
C921 C 0.43905 0.43235 0.17779 0.0
C922 C 0.43902 0.42643 0.2409 0.0
C923 C 0.42516 0.431 0.24043 0.0
C924 C 0.40996 0.42215 0.25722 0.0
C925 C 0.40833 0.40846 0.27437 0.0
C926 C 0.42279 0.40483 0.27588 0.0
C927 C 0.43801 0.41379 0.25932 0.0
C928 C 0.4692 0.44988 0.22166 0.0
C929 C 0.48607 0.45064 0.21902 0.0
C930 C 0.50265 0.46775 0.21873 0.0
C931 C 0.50278 0.48462 0.2214 0.0
C932 C 0.48576 0.4838 0.22427 0.0
C933 C 0.4691 0.46659 0.22418 0.0
H934 H 0.55354 0.95016 0.18463 0.0
N935 N 0.54279 0.96982 0.21288 0.0
H936 H 0.57305 0.95994 0.1458 0.0
H937 H 0.5537 0.00188 0.1848 0.0
H938 H 0.57215 0.01121 0.1455 0.0
H939 H 0.5759 0.00142 0.22414 0.0
H940 H 0.59896 0.00365 0.2541 0.0
H941 H 0.53745 0.94575 0.25009 0.0
H942 H 0.55991 0.94837 0.28217 0.0
H943 H 0.50692 0.9461 0.20666 0.0
H944 H 0.54616 0.00266 0.23031 0.0
H945 H 0.48188 0.95249 0.21061 0.0
H946 H 0.52161 0.00982 0.23215 0.0
H947 H 0.41462 0.97219 0.19419 0.0
H948 H 0.39765 0.96704 0.15381 0.0
H949 H 0.43901 0.02216 0.12835 0.0
H950 H 0.4557 0.02742 0.1696 0.0
H951 H 0.43669 0.02898 0.22481 0.0
H952 H 0.41221 0.02433 0.25454 0.0
H953 H 0.40281 0.96979 0.27336 0.0
H954 H 0.42662 0.97423 0.24189 0.0
H955 H 0.44675 0.97539 0.18366 0.0
H956 H 0.46976 0.96692 0.188 0.0
H957 H 0.49562 0.00761 0.25062 0.0
N958 N 0.44579 0.00433 0.20982 0.0
H959 H 0.47304 0.01719 0.2447 0.0
C960 C 0.5519 0.97504 0.18775 0.0
C961 C 0.55734 0.96337 0.1759 0.0
C962 C 0.56848 0.96901 0.15364 0.0
C963 C 0.57432 0.98646 0.14247 0.0
C964 C 0.56827 0.99785 0.1538 0.0
C965 C 0.55736 0.99233 0.17628 0.0
C966 C 0.55505 0.97317 0.23443 0.0
C967 C 0.57222 0.98983 0.23688 0.0
C968 C 0.58543 0.99113 0.25437 0.0
C969 C 0.58159 0.97603 0.27047 0.0
C970 C 0.56372 0.96005 0.26955 0.0
C971 C 0.5507 0.9586 0.25152 0.0
C972 C 0.52838 0.97393 0.21764 0.0
C973 C 0.51009 0.95994 0.21263 0.0
C974 C 0.49583 0.96374 0.21462 0.0
C975 C 0.49962 0.98185 0.22108 0.0
C976 C 0.51797 0.99567 0.22728 0.0
C977 C 0.53215 0.99168 0.22597 0.0
C978 C 0.43647 1.00026 0.18492 0.0
C979 C 0.42009 0.98316 0.17994 0.0
C980 C 0.41047 0.98018 0.15667 0.0
C981 C 0.41698 0.99418 0.13777 0.0
C982 C 0.43353 0.01117 0.14261 0.0
C983 C 0.44316 0.01414 0.16599 0.0
C984 C 0.43363 0.00213 0.23125 0.0
C985 C 0.42957 0.01619 0.23577 0.0
C986 C 0.41555 0.01346 0.25296 0.0
C987 C 0.40539 0.99664 0.26663 0.0
C988 C 0.41005 0.9828 0.26295 0.0
C989 C 0.42391 0.98543 0.24524 0.0
C990 C 0.45808 0.99725 0.21375 0.0
C991 C 0.4572 0.98262 0.19845 0.0
C992 C 0.47046 0.97753 0.20118 0.0
C993 C 0.48476 0.98652 0.21968 0.0
C994 C 0.48514 0.00058 0.23574 0.0
C995 C 0.47209 0.00596 0.2326 0.0
H996 H 0.40569 0.96526 0.81577 0.0
N997 N 0.43793 0.99392 0.80122 0.0
H998 H 0.3891 0.96194 0.85652 0.0
H999 H 0.45009 0.01901 0.8416 0.0
H1000 H 0.43378 0.01575 0.883 0.0
H1001 H 0.44392 0.02908 0.79765 0.0
H1002 H 0.42717 0.03835 0.76858 0.0
H1003 H 0.41919 0.97541 0.75888 0.0
H1004 H 0.40271 0.98461 0.72942 0.0
H1005 H 0.44511 0.96907 0.82031 0.0
H1006 H 0.47094 0.02231 0.78243 0.0
H1007 H 0.47441 0.97028 0.82121 0.0
H1008 H 0.50022 0.02299 0.78111 0.0
H1009 H 0.56283 0.97025 0.83103 0.0
H1010 H 0.57879 0.97439 0.8724 0.0
H1011 H 0.58208 0.02738 0.88454 0.0
H1012 H 0.56717 0.02356 0.84274 0.0
H1013 H 0.58619 0.02969 0.79966 0.0
H1014 H 0.61283 0.03713 0.77174 0.0
H1015 H 0.5842 0.98036 0.74203 0.0
H1016 H 0.55796 0.97301 0.77043 0.0
H1017 H 0.52295 0.96602 0.80017 0.0
H1018 H 0.49449 0.96644 0.79589 0.0
H1019 H 0.52565 0.02672 0.80357 0.0
N1020 N 0.55672 0.99468 0.80769 0.0
H1021 H 0.55421 0.02603 0.80512 0.0
C1022 C 0.42904 0.99226 0.8259 0.0
C1023 C 0.41188 0.97625 0.83049 0.0
C1024 C 0.40251 0.97437 0.85381 0.0
C1025 C 0.41017 0.98853 0.87313 0.0
C1026 C 0.42744 0.00467 0.86844 0.0
C1027 C 0.43683 0.00652 0.84496 0.0
C1028 C 0.43256 0.00147 0.78045 0.0
C1029 C 0.4354 0.01957 0.78226 0.0
C1030 C 0.42586 0.02485 0.76562 0.0
C1031 C 0.4134 0.01206 0.74708 0.0
C1032 C 0.41202 0.99463 0.74381 0.0
C1033 C 0.4215 0.9894 0.76042 0.0
C1034 C 0.45574 0.99549 0.80127 0.0
C1035 C 0.45714 0.98096 0.81192 0.0
C1036 C 0.47394 0.98159 0.81204 0.0
C1037 C 0.4898 0.99656 0.80073 0.0
C1038 C 0.48842 0.01128 0.79018 0.0
C1039 C 0.47159 0.01085 0.7907 0.0
C1040 C 0.56365 0.99645 0.83381 0.0
C1041 C 0.56678 0.9826 0.8429 0.0
C1042 C 0.57585 0.98499 0.8666 0.0
C1043 C 0.58189 0.0013 0.88182 0.0
C1044 C 0.57799 0.01481 0.87313 0.0
C1045 C 0.56916 0.01252 0.84926 0.0
C1046 C 0.57024 0.0007 0.78723 0.0
C1047 C 0.5855 0.01904 0.78658 0.0
C1048 C 0.60069 0.02327 0.77061 0.0
C1049 C 0.60073 0.00921 0.75513 0.0
C1050 C 0.58471 0.99137 0.75416 0.0
C1051 C 0.56965 0.98718 0.77013 0.0
C1052 C 0.54054 0.99587 0.80377 0.0
C1053 C 0.52357 0.97929 0.80067 0.0
C1054 C 0.50729 0.97961 0.79856 0.0
C1055 C 0.50753 0.9966 0.80023 0.0
C1056 C 0.52477 0.01335 0.80227 0.0
C1057 C 0.54116 0.01299 0.80362 0.0
H1058 H 0.97705 0.56275 0.83108 0.0
N1059 N 0.00492 0.56512 0.80074 0.0
H1060 H 0.98057 0.57996 0.87149 0.0
H1061 H 0.03582 0.58567 0.82774 0.0
H1062 H 0.03948 0.60175 0.8695 0.0
H1063 H 0.02785 0.59093 0.76803 0.0
H1064 H 0.02115 0.61028 0.74042 0.0
H1065 H 0.97005 0.55713 0.78704 0.0
H1066 H 0.96334 0.57661 0.76014 0.0
H1067 H 0.97081 0.53352 0.80529 0.0
H1068 H 0.02884 0.55375 0.7968 0.0
H1069 H 0.96441 0.50179 0.80859 0.0
H1070 H 0.02295 0.52225 0.80256 0.0
H1071 H 0.95047 0.40625 0.85067 0.0
H1072 H 0.95333 0.39418 0.89226 0.0
H1073 H 0.01064 0.43823 0.89709 0.0
H1074 H 0.00753 0.45023 0.85511 0.0
H1075 H 0.00477 0.4267 0.81965 0.0
H1076 H 0.00666 0.40606 0.78788 0.0
H1077 H 0.96008 0.40174 0.7465 0.0
H1078 H 0.95709 0.42084 0.78046 0.0
H1079 H 0.95943 0.4506 0.84397 0.0
H1080 H 0.96625 0.48229 0.83725 0.0
H1081 H 0.01204 0.49248 0.78727 0.0
N1082 N 0.97681 0.43428 0.82406 0.0
H1083 H 0.00602 0.46129 0.79615 0.0
C1084 C 0.00629 0.57333 0.82613 0.0
C1085 C 0.99072 0.57137 0.83921 0.0
C1086 C 0.99277 0.58108 0.86262 0.0
C1087 C 0.01037 0.59254 0.87382 0.0
C1088 C 0.02577 0.5936 0.86121 0.0
C1089 C 0.02373 0.58424 0.8375 0.0
C1090 C 0.9996 0.57266 0.7798 0.0
C1091 C 0.01366 0.58734 0.76563 0.0
C1092 C 0.00981 0.59849 0.75014 0.0
C1093 C 0.99176 0.59522 0.74861 0.0
C1094 C 0.97738 0.5795 0.76094 0.0
C1095 C 0.98126 0.5683 0.77645 0.0
C1096 C 1.0003 0.54599 0.80006 0.0
C1097 C 0.98217 0.53112 0.80366 0.0
C1098 C 0.97861 0.51292 0.8062 0.0
C1099 C 0.99316 0.50924 0.80618 0.0
C1100 C 0.01128 0.52425 0.80223 0.0
C1101 C 0.01473 0.54234 0.79901 0.0
C1102 C 0.97869 0.42908 0.84997 0.0
C1103 C 0.96353 0.41347 0.86097 0.0
C1104 C 0.96523 0.40664 0.88472 0.0
C1105 C 0.98223 0.41529 0.898 0.0
C1106 C 0.99741 0.43123 0.88722 0.0
C1107 C 0.99563 0.43818 0.86344 0.0
C1108 C 0.98029 0.42478 0.80298 0.0
C1109 C 0.99484 0.42122 0.80392 0.0
C1110 C 0.99608 0.40952 0.78528 0.0
C1111 C 0.98328 0.4017 0.76461 0.0
C1112 C 0.96975 0.40672 0.76259 0.0
C1113 C 0.96814 0.4179 0.78177 0.0
C1114 C 0.98205 0.45348 0.8205 0.0
C1115 C 0.97108 0.45982 0.83184 0.0
C1116 C 0.97486 0.4779 0.82758 0.0
C1117 C 0.98953 0.49006 0.81124 0.0
C1118 C 1.00074 0.48373 0.80016 0.0
C1119 C 0.99721 0.46574 0.80504 0.0
H1120 H 0.44433 0.42512 0.8346 0.0
N1121 N 0.43448 0.44985 0.81857 0.0
H1122 H 0.43348 0.40623 0.87346 0.0
H1123 H 0.41562 0.45326 0.85804 0.0
H1124 H 0.40549 0.4351 0.89817 0.0
H1125 H 0.40085 0.43851 0.80093 0.0
H1126 H 0.38253 0.41274 0.77038 0.0
H1127 H 0.44738 0.43131 0.78896 0.0
H1128 H 0.42895 0.40496 0.75915 0.0
H1129 H 0.4663 0.46199 0.84817 0.0
H1130 H 0.44549 0.47273 0.77796 0.0
H1131 H 0.49595 0.48984 0.84128 0.0
H1132 H 0.47566 0.50032 0.77045 0.0
H1133 H 0.58133 0.5688 0.83064 0.0
H1134 H 0.59622 0.58446 0.87141 0.0
H1135 H 0.55534 0.60048 0.88273 0.0
H1136 H 0.54148 0.58595 0.84074 0.0
H1137 H 0.56302 0.60164 0.78194 0.0
H1138 H 0.58954 0.619 0.75312 0.0
H1139 H 0.60123 0.57446 0.75676 0.0
H1140 H 0.57434 0.557 0.78507 0.0
H1141 H 0.55169 0.53764 0.81772 0.0
H1142 H 0.52384 0.50647 0.81675 0.0
H1143 H 0.49231 0.53042 0.78944 0.0
N1144 N 0.55343 0.57037 0.80642 0.0
H1145 H 0.52031 0.5612 0.78957 0.0
C1146 C 0.43064 0.44054 0.84331 0.0
C1147 C 0.43588 0.42742 0.84834 0.0
C1148 C 0.4298 0.41674 0.87084 0.0
C1149 C 0.41852 0.41905 0.88906 0.0
C1150 C 0.41388 0.43269 0.88441 0.0
C1151 C 0.41983 0.44326 0.86169 0.0
C1152 C 0.42532 0.43668 0.79739 0.0
C1153 C 0.40714 0.43147 0.7914 0.0
C1154 C 0.39667 0.41662 0.7742 0.0
C1155 C 0.40416 0.40652 0.76276 0.0
C1156 C 0.42277 0.41243 0.76762 0.0
C1157 C 0.43329 0.42742 0.78476 0.0
C1158 C 0.45327 0.46481 0.81337 0.0
C1159 C 0.46803 0.46987 0.83081 0.0
C1160 C 0.48526 0.48596 0.8268 0.0
C1161 C 0.48827 0.49746 0.80537 0.0
C1162 C 0.47381 0.492 0.78742 0.0
C1163 C 0.45655 0.47605 0.79155 0.0
C1164 C 0.56054 0.57664 0.83238 0.0
C1165 C 0.57557 0.57566 0.84189 0.0
C1166 C 0.58398 0.58452 0.86546 0.0
C1167 C 0.57726 0.59413 0.88029 0.0
C1168 C 0.56134 0.59381 0.87151 0.0
C1169 C 0.55321 0.5853 0.84769 0.0
C1170 C 0.56676 0.57815 0.78569 0.0
C1171 C 0.57105 0.59545 0.77593 0.0
C1172 C 0.58631 0.60541 0.75976 0.0
C1173 C 0.59771 0.59827 0.75311 0.0
C1174 C 0.59272 0.58033 0.76154 0.0
C1175 C 0.57734 0.57033 0.77773 0.0
C1176 C 0.53798 0.55166 0.80352 0.0
C1177 C 0.53885 0.53603 0.81095 0.0
C1178 C 0.52286 0.51826 0.81063 0.0
C1179 C 0.50575 0.51586 0.80306 0.0
C1180 C 0.50521 0.53156 0.79491 0.0
C1181 C 0.52117 0.54922 0.79509 0.0
H1182 H 0.6948 0.91536 0.51934 0.0
N1183 N 0.66103 0.88871 0.53793 0.0
H1184 H 0.70053 0.93214 0.47881 0.0
H1185 H 0.63737 0.88024 0.49897 0.0
H1186 H 0.64311 0.89629 0.45741 0.0
H1187 H 0.63615 0.89581 0.55772 0.0
H1188 H 0.64127 0.92031 0.58936 0.0
H1189 H 0.69303 0.91106 0.56527 0.0
H1190 H 0.69849 0.93594 0.59602 0.0
H1191 H 0.69335 0.88837 0.53901 0.0
H1192 H 0.63434 0.85423 0.54753 0.0
H1193 H 0.69645 0.86156 0.54835 0.0
H1194 H 0.63702 0.82702 0.55509 0.0
H1195 H 0.69276 0.77708 0.52442 0.0
H1196 H 0.68971 0.76176 0.48221 0.0
H1197 H 0.63021 0.73309 0.48941 0.0
H1198 H 0.63359 0.74942 0.53091 0.0
H1199 H 0.64268 0.74332 0.58477 0.0
H1200 H 0.65142 0.72587 0.61254 0.0
H1201 H 0.70909 0.76725 0.60063 0.0
H1202 H 0.69988 0.78431 0.57186 0.0
H1203 H 0.6915 0.80436 0.53302 0.0
H1204 H 0.69181 0.83358 0.53061 0.0
H1205 H 0.64563 0.81199 0.58412 0.0
N1206 N 0.66472 0.77241 0.55613 0.0
H1207 H 0.64464 0.78227 0.58466 0.0
C1208 C 0.66555 0.89665 0.51231 0.0
C1209 C 0.68348 0.91095 0.50586 0.0
C1210 C 0.68676 0.92049 0.48245 0.0
C1211 C 0.67224 0.91577 0.46482 0.0
C1212 C 0.65454 0.90065 0.47072 0.0
C1213 C 0.65125 0.89129 0.49429 0.0
C1214 C 0.66413 0.9016 0.55905 0.0
C1215 C 0.64968 0.90433 0.56645 0.0
C1216 C 0.65271 0.91846 0.58429 0.0
C1217 C 0.67038 0.93029 0.59496 0.0
C1218 C 0.68469 0.92703 0.58833 0.0
C1219 C 0.6816 0.9128 0.57058 0.0
C1220 C 0.66356 0.87329 0.54297 0.0
C1221 C 0.68105 0.87511 0.54301 0.0
C1222 C 0.68277 0.85965 0.54807 0.0
C1223 C 0.66701 0.84201 0.55273 0.0
C1224 C 0.64955 0.84037 0.55238 0.0
C1225 C 0.64792 0.85586 0.54775 0.0
C1226 C 0.66334 0.76456 0.53048 0.0
C1227 C 0.6791 0.76782 0.51657 0.0
C1228 C 0.6773 0.75881 0.49259 0.0
C1229 C 0.6597 0.7461 0.48232 0.0
C1230 C 0.64398 0.74303 0.49636 0.0
C1231 C 0.64583 0.75225 0.52013 0.0
C1232 C 0.67059 0.76503 0.57644 0.0
C1233 C 0.65718 0.74885 0.58876 0.0
C1234 C 0.66227 0.73893 0.60472 0.0
C1235 C 0.68103 0.74509 0.60894 0.0
C1236 C 0.69453 0.76195 0.59756 0.0
C1237 C 0.68934 0.77183 0.58136 0.0
C1238 C 0.66772 0.79095 0.55858 0.0
C1239 C 0.68151 0.80593 0.54434 0.0
C1240 C 0.68176 0.82279 0.54318 0.0
C1241 C 0.66847 0.82513 0.5567 0.0
C1242 C 0.65569 0.81056 0.57268 0.0
C1243 C 0.65524 0.79363 0.57337 0.0
H1244 H 0.26916 0.8971 0.52007 0.0
N1245 N 0.23813 0.88821 0.54512 0.0
H1246 H 0.2812 0.91565 0.48057 0.0
H1247 H 0.21895 0.89825 0.51306 0.0
H1248 H 0.23046 0.91607 0.47329 0.0
H1249 H 0.22895 0.91453 0.55698 0.0
H1250 H 0.24588 0.94116 0.58694 0.0
H1251 H 0.26294 0.89259 0.58011 0.0
H1252 H 0.27993 0.91917 0.61015 0.0
H1253 H 0.2331 0.85433 0.54669 0.0
H1254 H 0.20372 0.88382 0.55111 0.0
H1255 H 0.20403 0.82467 0.5503 0.0
H1256 H 0.17442 0.85425 0.55279 0.0
H1257 H 0.1128 0.7318 0.53763 0.0
H1258 H 0.09701 0.71492 0.49767 0.0
H1259 H 0.09144 0.76139 0.47514 0.0
H1260 H 0.10711 0.77807 0.51559 0.0
H1261 H 0.09347 0.77504 0.55919 0.0
H1262 H 0.0664 0.76003 0.58791 0.0
H1263 H 0.08787 0.72842 0.62284 0.0
H1264 H 0.11483 0.74345 0.59408 0.0
H1265 H 0.15017 0.77424 0.52775 0.0
H1266 H 0.17841 0.80451 0.52555 0.0
H1267 H 0.15441 0.82781 0.57729 0.0
N1268 N 0.11947 0.76495 0.55399 0.0
H1269 H 0.12577 0.79778 0.57804 0.0
C1270 C 0.24319 0.89621 0.51955 0.0
C1271 C 0.26054 0.90091 0.50958 0.0
C1272 C 0.26736 0.91148 0.48699 0.0
C1273 C 0.25688 0.91754 0.47389 0.0
C1274 C 0.23905 0.91196 0.48319 0.0
C1275 C 0.23232 0.90152 0.50588 0.0
C1276 C 0.24475 0.90157 0.56635 0.0
C1277 C 0.23962 0.91508 0.56913 0.0
C1278 C 0.24933 0.93034 0.58623 0.0
C1279 C 0.26437 0.93233 0.60055 0.0
C1280 C 0.26855 0.91809 0.59906 0.0
C1281 C 0.2588 0.90286 0.58213 0.0
C1282 C 0.2206 0.87122 0.54812 0.0
C1283 C 0.2203 0.85434 0.54818 0.0
C1284 C 0.20362 0.8374 0.54997 0.0
C1285 C 0.18672 0.83693 0.55129 0.0
C1286 C 0.1871 0.85399 0.55189 0.0
C1287 C 0.20389 0.87099 0.55058 0.0
C1288 C 0.11118 0.75612 0.5294 0.0
C1289 C 0.10829 0.73836 0.52391 0.0
C1290 C 0.09932 0.72879 0.50108 0.0
C1291 C 0.09303 0.73685 0.48317 0.0
C1292 C 0.09597 0.75475 0.48867 0.0
C1293 C 0.105 0.76434 0.51163 0.0
C1294 C 0.10614 0.76028 0.57457 0.0
C1295 C 0.09261 0.76532 0.5736 0.0
C1296 C 0.07719 0.75677 0.59001 0.0
C1297 C 0.075 0.74293 0.60729 0.0
C1298 C 0.08918 0.73894 0.60948 0.0
C1299 C 0.10462 0.74759 0.59329 0.0
C1300 C 0.13562 0.78352 0.55275 0.0
C1301 C 0.15088 0.78594 0.53833 0.0
C1302 C 0.16716 0.80327 0.53741 0.0
C1303 C 0.16889 0.81868 0.55152 0.0
C1304 C 0.15357 0.81636 0.56591 0.0
C1305 C 0.13708 0.799 0.56644 0.0
H1306 H 0.23001 0.31372 0.52871 0.0
N1307 N 0.2286 0.3415 0.55517 0.0
H1308 H 0.24657 0.31701 0.488 0.0
H1309 H 0.24206 0.37025 0.52303 0.0
H1310 H 0.25763 0.37342 0.48134 0.0
H1311 H 0.26093 0.36498 0.57652 0.0
H1312 H 0.27924 0.35761 0.60455 0.0
H1313 H 0.21646 0.30773 0.57753 0.0
H1314 H 0.23429 0.30011 0.60715 0.0
H1315 H 0.19705 0.31471 0.53094 0.0
H1316 H 0.21833 0.35937 0.58812 0.0
H1317 H 0.167 0.31244 0.53261 0.0
H1318 H 0.18812 0.35654 0.59123 0.0
H1319 H 0.08268 0.30582 0.52955 0.0
H1320 H 0.06723 0.29888 0.48722 0.0
H1321 H 0.10687 0.35478 0.46219 0.0
H1322 H 0.12168 0.36171 0.50507 0.0
H1323 H 0.0985 0.36289 0.55481 0.0
H1324 H 0.07311 0.35828 0.58257 0.0
H1325 H 0.06784 0.30728 0.61105 0.0
H1326 H 0.09254 0.31151 0.58146 0.0
H1327 H 0.11164 0.3076 0.54773 0.0
H1328 H 0.13919 0.30542 0.5546 0.0
H1329 H 0.17187 0.36547 0.56431 0.0
N1330 N 0.11062 0.33978 0.54633 0.0
H1331 H 0.14422 0.36724 0.55842 0.0
C1332 C 0.23511 0.3419 0.529 0.0
C1333 C 0.23587 0.32671 0.51831 0.0
C1334 C 0.24528 0.32861 0.49489 0.0
C1335 C 0.2538 0.34563 0.48148 0.0
C1336 C 0.25179 0.36031 0.49144 0.0
C1337 C 0.24266 0.35848 0.51506 0.0
C1338 C 0.23739 0.33699 0.57524 0.0
C1339 C 0.25494 0.35089 0.58362 0.0
C1340 C 0.26533 0.34658 0.59981 0.0
C1341 C 0.25829 0.32822 0.60844 0.0
C1342 C 0.24029 0.31435 0.60072 0.0
C1343 C 0.22995 0.31869 0.5841 0.0
C1344 C 0.21001 0.33751 0.55907 0.0
C1345 C 0.19511 0.32374 0.5443 0.0
C1346 C 0.17786 0.32238 0.54545 0.0
C1347 C 0.17515 0.33457 0.5617 0.0
C1348 C 0.18978 0.3473 0.57791 0.0
C1349 C 0.20702 0.34883 0.57641 0.0
C1350 C 0.10322 0.33436 0.52038 0.0
C1351 C 0.08817 0.31645 0.51477 0.0
C1352 C 0.0794 0.31251 0.4905 0.0
C1353 C 0.08565 0.32636 0.47134 0.0
C1354 C 0.10141 0.34392 0.47664 0.0
C1355 C 0.11004 0.34786 0.50097 0.0
C1356 C 0.09759 0.33775 0.56625 0.0
C1357 C 0.09204 0.35089 0.5674 0.0
C1358 C 0.07751 0.34821 0.5835 0.0
C1359 C 0.0683 0.33242 0.59944 0.0
C1360 C 0.07433 0.31949 0.59888 0.0
C1361 C 0.0887 0.32202 0.58222 0.0
C1362 C 0.12596 0.33763 0.55282 0.0
C1363 C 0.1247 0.32019 0.55191 0.0
C1364 C 0.14051 0.31902 0.55559 0.0
C1365 C 0.15785 0.33526 0.56008 0.0
C1366 C 0.1588 0.35259 0.5615 0.0
C1367 C 0.14303 0.3537 0.558 0.0
C1368 C 0.01217 0.39934 0.08855 0.0
C1369 C 0.99428 0.38352 0.08765 0.0
H1370 H 0.0316 0.424 0.10941 0.0
C1371 C 0.9822 0.38035 0.10857 0.0
H1372 H 0.02176 0.40235 0.07259 0.0
C1373 C 0.98799 0.39264 0.13007 0.0
C1374 C 0.00591 0.40853 0.13093 0.0
H1375 H 0.96834 0.36825 0.10851 0.0
H1376 H 0.97849 0.38949 0.14616 0.0
C1377 C 0.01786 0.41174 0.10978 0.0
C1378 C 0.59185 0.61149 0.08046 0.0
C1379 C 0.60996 0.61814 0.07162 0.0
H1380 H 0.57049 0.59401 0.10702 0.0
C1381 C 0.62038 0.61134 0.08302 0.0
H1382 H 0.58332 0.61618 0.07176 0.0
C1383 C 0.61309 0.59879 0.10366 0.0
C1384 C 0.59516 0.59263 0.11307 0.0
H1385 H 0.63437 0.6162 0.07662 0.0
H1386 H 0.62177 0.59448 0.11283 0.0
C1387 C 0.5845 0.5988 0.10075 0.0
C1388 C 0.38602 0.96988 0.07945 0.0
C1389 C 0.38321 0.98385 0.06967 0.0
H1390 H 0.39922 0.96234 0.10794 0.0
C1391 C 0.39251 0.00168 0.08155 0.0
H1392 H 0.3793 0.95606 0.07058 0.0
C1393 C 0.40386 0.00523 0.10328 0.0
C1394 C 0.4062 0.99105 0.11348 0.0
H1395 H 0.39065 0.01275 0.07451 0.0
H1396 H 0.41031 0.01889 0.11259 0.0
C1397 C 0.39741 0.97346 0.10097 0.0
C1398 C 0.38874 0.99881 0.93181 0.0
C1399 C 0.37895 0.98122 0.94362 0.0
H1400 H 0.40614 0.01489 0.90019 0.0
C1401 C 0.38008 0.96633 0.93252 0.0
H1402 H 0.38819 0.0106 0.93982 0.0
C1403 C 0.39049 0.96885 0.91002 0.0
C1404 C 0.39998 0.9863 0.8979 0.0
H1405 H 0.37292 0.95264 0.94119 0.0
H1406 H 0.39113 0.95708 0.90214 0.0
C1407 C 0.39913 0.00131 0.90918 0.0
C1408 C 0.96961 0.39011 0.96215 0.0
C1409 C 0.98386 0.3863 0.96545 0.0
H1410 H 0.95823 0.40264 0.93876 0.0
C1411 C 0.99876 0.39396 0.94787 0.0
H1412 H 0.95808 0.38476 0.9756 0.0
C1413 C 0.99877 0.40422 0.9265 0.0
C1414 C 0.98391 0.40703 0.92248 0.0
H1415 H 0.00997 0.39132 0.94993 0.0
H1416 H 0.00993 0.40916 0.91247 0.0
C1417 C 0.96966 0.40036 0.941 0.0
C1418 C 0.60648 0.61034 0.94216 0.0
C1419 C 0.60682 0.62697 0.94829 0.0
H1420 H 0.59629 0.58651 0.91667 0.0
C1421 C 0.59745 0.63271 0.93203 0.0
H1422 H 0.61344 0.60547 0.95451 0.0
C1423 C 0.58798 0.6221 0.91004 0.0
C1424 C 0.5873 0.60525 0.904 0.0
H1425 H 0.59762 0.64556 0.93611 0.0
H1426 H 0.58143 0.62734 0.89758 0.0
C1427 C 0.59668 0.5995 0.9204 0.0
C1428 C 0.03118 0.63163 0.92491 0.0
C1429 C 0.01736 0.6249 0.94408 0.0
H1430 H 0.03955 0.62721 0.88743 0.0
C1431 C 1.00115 0.60753 0.94008 0.0
H1432 H 0.04375 0.64507 0.9274 0.0
C1433 C 0.99896 0.59693 0.91752 0.0
C1434 C 0.01275 0.60365 0.89814 0.0
H1435 H 0.99034 0.60191 0.95469 0.0
H1436 H 0.98654 0.58333 0.91555 0.0
C1437 C 0.02881 0.62126 0.90208 0.0
C1438 C 0.41471 0.38809 0.94494 0.0
C1439 C 0.39655 0.38124 0.95371 0.0
H1440 H 0.4361 0.40587 0.91865 0.0
C1441 C 0.38593 0.38771 0.94208 0.0
H1442 H 0.42338 0.38363 0.95381 0.0
C1443 C 0.39314 0.40025 0.92142 0.0
C1444 C 0.41121 0.40679 0.91223 0.0
H1445 H 0.37189 0.38266 0.9484 0.0
H1446 H 0.38432 0.40435 0.91216 0.0
C1447 C 0.42199 0.4008 0.92466 0.0
C1448 C 0.61872 0.02628 0.93381 0.0
C1449 C 0.61537 0.01166 0.95044 0.0
H1450 H 0.61125 0.03443 0.89906 0.0
C1451 C 0.60081 0.99351 0.94446 0.0
H1452 H 0.62995 0.0404 0.93764 0.0
C1453 C 0.58975 0.99012 0.92244 0.0
C1454 C 0.59315 0.00477 0.90577 0.0
H1455 H 0.5978 0.98197 0.95696 0.0
H1456 H 0.57844 0.97604 0.91864 0.0
C1457 C 0.60785 0.02286 0.91172 0.0
C1458 C 0.61328 0.018 0.09644 0.0
C1459 C 0.61213 0.00525 0.07722 0.0
H1460 H 0.60269 0.02207 0.13237 0.0
C1461 C 0.59828 0.98634 0.07937 0.0
H1462 H 0.62385 0.03264 0.09545 0.0
C1463 C 0.58587 0.98031 0.10023 0.0
C1464 C 0.58713 0.99299 0.1197 0.0
H1465 H 0.59686 0.97615 0.06474 0.0
H1466 H 0.57519 0.96571 0.10092 0.0
C1467 C 0.60102 0.01193 0.11753 0.0
C1468 C 0.02396 0.60969 0.07599 0.0
C1469 C 0.01156 0.61537 0.06898 0.0
H1470 H 0.0298 0.59332 0.10121 0.0
C1471 C 0.99471 0.60799 0.08243 0.0
H1472 H 0.03694 0.61486 0.06574 0.0
C1473 C 0.99073 0.5958 0.1032 0.0
C1474 C 0.00343 0.5906 0.11073 0.0
H1475 H 0.98488 0.61211 0.0775 0.0
H1476 H 0.97798 0.59101 0.11389 0.0
C1477 C 0.0199 0.59738 0.09644 0.0
C1478 C 0.39473 0.38494 0.09135 0.0
C1479 C 0.4017 0.37536 0.07705 0.0
H1480 H 0.39787 0.40212 0.12479 0.0
C1481 C 0.41819 0.37676 0.08541 0.0
H1482 H 0.38208 0.3842 0.08548 0.0
C1483 C 0.42728 0.38714 0.10774 0.0
C1484 C 0.42011 0.39635 0.1224 0.0
H1485 H 0.42412 0.36977 0.07477 0.0
H1486 H 0.43995 0.38791 0.11358 0.0
C1487 C 0.40384 0.39533 0.11379 0.0
C1488 C 0.64078 0.72091 0.41742 0.0
C1489 C 0.65306 0.71478 0.4112 0.0
H1490 H 0.63361 0.73613 0.44405 0.0
C1491 C 0.6678 0.71936 0.4282 0.0
H1492 H 0.62942 0.71782 0.40454 0.0
C1493 C 0.67 0.72956 0.45118 0.0
C1494 C 0.65768 0.73568 0.4575 0.0
H1495 H 0.67744 0.71475 0.42401 0.0
H1496 H 0.68116 0.73231 0.46424 0.0
C1497 C 0.64315 0.73135 0.44017 0.0
C1498 C 0.26955 0.95838 0.42988 0.0
C1499 C 0.28083 0.95671 0.411 0.0
H1500 H 0.2535 0.94765 0.46449 0.0
C1501 C 0.28419 0.94194 0.41289 0.0
H1502 H 0.26675 0.96964 0.42923 0.0
C1503 C 0.27631 0.92908 0.4331 0.0
C1504 C 0.26495 0.93075 0.45187 0.0
H1505 H 0.29275 0.94019 0.39863 0.0
H1506 H 0.27897 0.91772 0.43386 0.0
C1507 C 0.26178 0.94562 0.45004 0.0
C1508 C 0.06224 0.33359 0.41359 0.0
C1509 C 0.0536 0.31595 0.40119 0.0
H1510 H 0.07875 0.35056 0.44557 0.0
C1511 C 0.05608 0.30192 0.41155 0.0
H1512 H 0.06055 0.34469 0.40627 0.0
C1513 C 0.06677 0.30537 0.43395 0.0
C1514 C 0.07514 0.3229 0.44664 0.0
H1515 H 0.04974 0.2882 0.4024 0.0
H1516 H 0.06847 0.29428 0.44131 0.0
C1517 C 0.07281 0.33699 0.43608 0.0
C1518 C 0.05072 0.30736 0.25322 0.0
C1519 C 0.05473 0.32 0.27413 0.0
H1520 H 0.05839 0.30282 0.21508 0.0
C1521 C 0.07075 0.33775 0.27301 0.0
H1522 H 0.03843 0.29358 0.2535 0.0
C1523 C 0.0824 0.3429 0.25137 0.0
C1524 C 0.07816 0.33057 0.22996 0.0
H1525 H 0.0744 0.34771 0.28899 0.0
H1526 H 0.09477 0.35661 0.2515 0.0
C1527 C 0.06224 0.31264 0.23127 0.0
C1528 C 0.67754 0.72724 0.27195 0.0
C1529 C 0.6631 0.72438 0.28863 0.0
H1530 H 0.69329 0.74075 0.23805 0.0
C1531 C 0.65467 0.73494 0.28529 0.0
H1532 H 0.68418 0.71917 0.27406 0.0
C1533 C 0.66031 0.74786 0.26525 0.0
C1534 C 0.67414 0.75012 0.24752 0.0
H1535 H 0.64366 0.73317 0.29819 0.0
H1536 H 0.65361 0.75588 0.26354 0.0
C1537 C 0.68284 0.73978 0.25141 0.0
C1538 C 0.25608 0.95343 0.28314 0.0
C1539 C 0.27484 0.95952 0.28671 0.0
H1540 H 0.23196 0.93782 0.25963 0.0
C1541 C 0.28372 0.95414 0.2683 0.0
H1542 H 0.24875 0.95708 0.2972 0.0
C1543 C 0.27415 0.94335 0.24638 0.0
C1544 C 0.25541 0.93746 0.2426 0.0
H1545 H 0.29818 0.95865 0.27048 0.0
H1546 H 0.28161 0.94005 0.23208 0.0
C1547 C 0.24646 0.94243 0.2615 0.0
C1548 C 0.69561 0.95449 0.26319 0.0
C1549 C 0.68181 0.95716 0.27424 0.0
H1550 H 0.70255 0.94057 0.23379 0.0
C1551 C 0.6642 0.94807 0.26269 0.0
H1552 H 0.70931 0.96121 0.27164 0.0
C1553 C 0.66039 0.93638 0.24091 0.0
C1554 C 0.67404 0.93336 0.23019 0.0
H1555 H 0.65328 0.94992 0.2705 0.0
H1556 H 0.64672 0.92976 0.23238 0.0
C1557 C 0.69176 0.94269 0.24143 0.0
C1558 C 0.05239 0.72061 0.27929 0.0
C1559 C 0.06253 0.71346 0.29057 0.0
H1560 H 0.05135 0.73775 0.24967 0.0
C1561 C 0.08052 0.71968 0.28154 0.0
H1562 H 0.03848 0.71605 0.28579 0.0
C1563 C 0.08806 0.7324 0.26127 0.0
C1564 C 0.0777 0.73902 0.24918 0.0
H1565 H 0.08882 0.71467 0.29011 0.0
H1566 H 0.10199 0.73692 0.25495 0.0
C1567 C 0.05985 0.73316 0.25869 0.0
C1568 C 0.27925 0.33452 0.27396 0.0
C1569 C 0.28486 0.35073 0.28912 0.0
H1570 H 0.26481 0.3186 0.24004 0.0
C1571 C 0.27845 0.36267 0.28253 0.0
H1572 H 0.28403 0.32509 0.27853 0.0
C1573 C 0.26704 0.35873 0.26089 0.0
C1574 C 0.26204 0.34295 0.24492 0.0
H1575 H 0.28231 0.37513 0.29409 0.0
H1576 H 0.26228 0.3682 0.25657 0.0
C1577 C 0.2681 0.33075 0.25197 0.0
C1578 C 0.29292 0.36865 0.43224 0.0
C1579 C 0.28862 0.35396 0.41449 0.0
H1580 H 0.28578 0.37744 0.46745 0.0
C1581 C 0.27273 0.33644 0.41882 0.0
H1582 H 0.30514 0.38227 0.42962 0.0
C1583 C 0.26128 0.33375 0.44026 0.0
C1584 C 0.26559 0.34846 0.4581 0.0
H1585 H 0.26895 0.32486 0.40538 0.0
H1586 H 0.24894 0.32019 0.44264 0.0
C1587 C 0.28166 0.3659 0.45385 0.0
C1588 C 0.66503 0.94283 0.412 0.0
C1589 C 0.68213 0.95141 0.39907 0.0
H1590 H 0.64865 0.9253 0.44313 0.0
C1591 C 0.69562 0.94744 0.40703 0.0
H1592 H 0.65437 0.94566 0.40646 0.0
C1593 C 0.69221 0.93543 0.42775 0.0
C1594 C 0.67532 0.92728 0.44129 0.0
H1595 H 0.70887 0.95365 0.39728 0.0
H1596 H 0.7029 0.93263 0.43321 0.0
C1597 C 0.66171 0.93101 0.43296 0.0
C1598 C 0.08079 0.70593 0.4228 0.0
C1599 C 0.06475 0.70526 0.41389 0.0
H1600 H 0.10241 0.71668 0.45111 0.0
C1601 C 0.05832 0.71555 0.42762 0.0
H1602 H 0.0863 0.69836 0.41266 0.0
C1603 C 0.06762 0.72606 0.4499 0.0
C1604 C 0.0835 0.72647 0.45891 0.0
H1605 H 0.04604 0.71539 0.42129 0.0
H1606 H 0.06215 0.73355 0.46038 0.0
C1607 C 0.09004 0.7164 0.44496 0.0
C1608 C 0.34328 0.06921 0.74731 0.0
C1609 C 0.32566 0.0532 0.74456 0.0
H1610 H 0.36142 0.09302 0.77066 0.0
C1611 C 0.31266 0.04876 0.76456 0.0
H1612 H 0.35352 0.07314 0.73202 0.0
C1613 C 0.31736 0.05989 0.7872 0.0
C1614 C 0.33505 0.07595 0.79005 0.0
H1615 H 0.299 0.03642 0.763 0.0
H1616 H 0.30721 0.05564 0.80263 0.0
C1617 C 0.34785 0.08056 0.76961 0.0
C1618 C 0.94876 0.28146 0.74945 0.0
C1619 C 0.93822 0.28731 0.73608 0.0
H1620 H 0.95015 0.26628 0.78168 0.0
C1621 C 0.91996 0.28076 0.7442 0.0
H1622 H 0.96288 0.2863 0.7437 0.0
C1623 C 0.91257 0.26908 0.7656 0.0
C1624 C 0.92329 0.2638 0.77971 0.0
H1625 H 0.91134 0.28475 0.73408 0.0
H1626 H 0.89844 0.26431 0.77118 0.0
C1627 C 0.94141 0.2699 0.77114 0.0
C1628 C 0.71657 0.63989 0.75429 0.0
C1629 C 0.71903 0.65356 0.73643 0.0
H1630 H 0.72558 0.63378 0.78953 0.0
C1631 C 0.73376 0.67198 0.74026 0.0
H1632 H 0.70532 0.62558 0.75206 0.0
C1633 C 0.7456 0.67664 0.76165 0.0
C1634 C 0.74291 0.66302 0.7798 0.0
H1635 H 0.73616 0.68284 0.72679 0.0
H1636 H 0.75686 0.69094 0.76397 0.0
C1637 C 0.72831 0.64457 0.77573 0.0
C1638 C 0.72334 0.66551 0.59591 0.0
C1639 C 0.71506 0.64877 0.60983 0.0
H1640 H 0.73968 0.68054 0.56302 0.0
C1641 C 0.71779 0.6343 0.60115 0.0
H1642 H 0.72147 0.67692 0.60199 0.0
C1643 C 0.72847 0.63648 0.57904 0.0
C1644 C 0.73658 0.65313 0.5649 0.0
H1645 H 0.71179 0.62127 0.61154 0.0
H1646 H 0.73046 0.62513 0.57314 0.0
C1647 C 0.73391 0.66764 0.57365 0.0
C1648 C 0.31544 0.05674 0.60074 0.0
C1649 C 0.3285 0.05805 0.6188 0.0
H1650 H 0.31039 0.06753 0.56647 0.0
C1651 C 0.34698 0.07256 0.61632 0.0
H1652 H 0.3011 0.04567 0.60196 0.0
C1653 C 0.35228 0.08542 0.59617 0.0
C1654 C 0.33924 0.08395 0.57787 0.0
H1655 H 0.35736 0.07408 0.63005 0.0
H1656 H 0.36659 0.09654 0.595 0.0
C1657 C 0.32076 0.06943 0.58047 0.0
C1658 C 0.91924 0.28298 0.60636 0.0
C1659 C 0.93799 0.29004 0.61183 0.0
H1660 H 0.89655 0.26675 0.58067 0.0
C1661 C 0.94831 0.28553 0.59482 0.0
H1662 H 0.91081 0.28591 0.61933 0.0
C1663 C 0.94016 0.27475 0.57224 0.0
C1664 C 0.92148 0.26809 0.56645 0.0
H1665 H 0.96279 0.29078 0.59853 0.0
H1666 H 0.94865 0.27213 0.55898 0.0
C1667 C 0.91106 0.27204 0.58409 0.0
C1668 C 0.33165 0.28307 0.59647 0.0
C1669 C 0.34912 0.29165 0.6084 0.0
H1670 H 0.31421 0.26515 0.56581 0.0
C1671 C 0.36269 0.28848 0.59771 0.0
H1672 H 0.3209 0.2853 0.60402 0.0
C1673 C 0.35875 0.2767 0.57593 0.0
C1674 C 0.34118 0.26789 0.56428 0.0
H1675 H 0.37627 0.29478 0.60647 0.0
H1676 H 0.36936 0.2742 0.56856 0.0
C1677 C 0.32775 0.27138 0.57465 0.0
C1678 C 0.72127 0.05804 0.61174 0.0
C1679 C 0.73095 0.05039 0.62307 0.0
H1680 H 0.72059 0.07503 0.5816 0.0
C1681 C 0.74852 0.05549 0.61334 0.0
H1682 H 0.70768 0.05436 0.61873 0.0
C1683 C 0.75607 0.0676 0.59238 0.0
C1684 C 0.74615 0.07475 0.58038 0.0
H1685 H 0.75648 0.05006 0.62186 0.0
H1686 H 0.76967 0.07124 0.58547 0.0
C1687 C 0.72875 0.07001 0.59054 0.0
C1688 C 0.93694 0.66421 0.6139 0.0
C1689 C 0.95129 0.68285 0.61739 0.0
H1690 H 0.91394 0.64457 0.59054 0.0
C1691 C 0.95337 0.69611 0.59905 0.0
H1692 H 0.93487 0.65366 0.62773 0.0
C1693 C 0.94153 0.69089 0.57765 0.0
C1694 C 0.92717 0.67227 0.57407 0.0
H1695 H 0.96434 0.71058 0.60096 0.0
H1696 H 0.94396 0.70143 0.56359 0.0
C1697 C 0.92497 0.659 0.59252 0.0
C1698 C 0.95131 0.70361 0.75453 0.0
C1699 C 0.95426 0.68947 0.74495 0.0
H1700 H 0.93864 0.71201 0.78371 0.0
C1701 C 0.94633 0.67251 0.75833 0.0
H1702 H 0.95708 0.7168 0.74462 0.0
C1703 C 0.93591 0.66984 0.7809 0.0
C1704 C 0.93305 0.68401 0.79058 0.0
H1705 H 0.94838 0.66133 0.75161 0.0
H1706 H 0.93043 0.65678 0.79106 0.0
C1707 C 0.94079 0.70089 0.77703 0.0
C1708 C 0.32905 0.27417 0.74349 0.0
C1709 C 0.34687 0.28363 0.73261 0.0
H1710 H 0.31131 0.25546 0.77282 0.0
C1711 C 0.36027 0.28006 0.74227 0.0
H1712 H 0.31841 0.27661 0.73655 0.0
C1713 C 0.35613 0.26776 0.76279 0.0
C1714 C 0.33853 0.25882 0.77437 0.0
H1715 H 0.37408 0.2869 0.73414 0.0
H1716 H 0.36682 0.26539 0.76975 0.0
C1717 C 0.32495 0.26194 0.7642 0.0
C1718 C 0.73019 0.06026 0.75336 0.0
C1719 C 0.73045 0.04382 0.74825 0.0
H1720 H 0.73924 0.08429 0.7781 0.0
C1721 C 0.73976 0.03867 0.76559 0.0
H1722 H 0.72328 0.06469 0.74018 0.0
C1723 C 0.74857 0.04966 0.78764 0.0
C1724 C 0.74862 0.06631 0.79266 0.0
H1725 H 0.74007 0.02598 0.7623 0.0
H1726 H 0.75513 0.0449 0.80092 0.0
C1727 C 0.73931 0.07146 0.77518 0.0
C1728 C 0.06105 0.37046 0.03741 0.0
C1729 C 0.04279 0.35735 0.04442 0.0
H1730 H 0.08979 0.37995 0.04255 0.0
C1731 C 0.03961 0.34341 0.06221 0.0
H1732 H 0.06391 0.3813 0.02363 0.0
C1733 C 0.05426 0.34269 0.0731 0.0
C1734 C 0.07259 0.3558 0.06639 0.0
H1735 H 0.02572 0.33311 0.06818 0.0
H1736 H 0.05112 0.33213 0.08748 0.0
C1737 C 0.07584 0.36967 0.04827 0.0
C1738 C 0.64905 0.70103 0.05008 0.0
C1739 C 0.66042 0.69334 0.05058 0.0
H1740 H 0.64459 0.7227 0.06421 0.0
C1741 C 0.67645 0.702 0.06603 0.0
H1742 H 0.63664 0.69467 0.03828 0.0
C1743 C 0.6811 0.71813 0.08058 0.0
C1744 C 0.6697 0.72578 0.0802 0.0
H1745 H 0.68552 0.69642 0.06672 0.0
H1746 H 0.69346 0.72443 0.0925 0.0
C1747 C 0.65359 0.71705 0.06488 0.0
C1748 C 0.30258 0.94427 0.04178 0.0
C1749 C 0.3126 0.96358 0.04717 0.0
H1750 H 0.27897 0.91765 0.05137 0.0
C1751 C 0.30666 0.97077 0.06744 0.0
H1752 H 0.30689 0.93835 0.02629 0.0
C1753 C 0.29079 0.95903 0.0816 0.0
C1754 C 0.28047 0.93979 0.07589 0.0
H1755 H 0.31413 0.98555 0.07222 0.0
H1756 H 0.28659 0.96505 0.0971 0.0
C1757 C 0.28666 0.93244 0.05613 0.0
C1758 C 0.36803 0.05482 0.98501 0.0
C1759 C 0.35558 0.03632 0.97702 0.0
H1760 H 0.37708 0.08375 0.98046 0.0
C1761 C 0.34253 0.03296 0.95764 0.0
H1762 H 0.37815 0.05783 7e-05 0.0
C1763 C 0.34199 0.04771 0.94632 0.0
C1764 C 0.35438 0.06627 0.95421 0.0
H1765 H 0.33278 0.01887 0.95095 0.0
H1766 H 0.33209 0.04453 0.93087 0.0
C1767 C 0.3674 0.06965 0.97377 0.0
C1768 C 0.94852 0.30432 0.98764 0.0
C1769 C 0.96702 0.31537 0.97971 0.0
H1770 H 0.92202 0.27994 0.97961 0.0
C1771 C 0.97282 0.31049 0.95673 0.0
H1772 H 0.94369 0.3078 0.00527 0.0
C1773 C 0.96057 0.29469 0.94226 0.0
C1774 C 0.94218 0.28334 0.95036 0.0
H1775 H 0.98693 0.31878 0.94994 0.0
H1776 H 0.96553 0.29142 0.92457 0.0
C1777 C 0.93615 0.28843 0.97299 0.0
C1778 C 0.69854 0.67074 0.95574 0.0
C1779 C 0.68794 0.65468 0.97063 0.0
H1780 H 0.7223 0.68635 0.93183 0.0
C1781 C 0.6936 0.64158 0.97243 0.0
H1782 H 0.69458 0.6811 0.95386 0.0
C1783 C 0.7097 0.64466 0.95969 0.0
C1784 C 0.72045 0.66098 0.94528 0.0
H1785 H 0.68572 0.62909 0.98381 0.0
H1786 H 0.7139 0.63447 0.96144 0.0
C1787 C 0.71457 0.67386 0.94329 0.0
C1788 C 0.96923 0.66598 0.96279 0.0
C1789 C 0.96436 0.64979 0.97681 0.0
H1790 H 0.96008 0.68104 0.94061 0.0
C1791 C 0.94559 0.63593 0.97898 0.0
H1792 H 0.98354 0.67693 0.96061 0.0
C1793 C 0.93198 0.63835 0.96737 0.0
C1794 C 0.93697 0.65477 0.95378 0.0
H1795 H 0.94144 0.62331 0.98967 0.0
H1796 H 0.91759 0.62755 0.9693 0.0
C1797 C 0.95574 0.66844 0.95149 0.0
C1798 C 0.36077 0.30405 0.96761 0.0
C1799 C 0.34674 0.30677 0.97725 0.0
H1800 H 0.36769 0.28752 0.94336 0.0
C1801 C 0.3283 0.29356 0.9714 0.0
H1802 H 0.37512 0.31416 0.97184 0.0
C1803 C 0.32388 0.27781 0.95612 0.0
C1804 C 0.33787 0.27525 0.94544 0.0
H1805 H 0.31723 0.29526 0.97902 0.0
H1806 H 0.30943 0.26768 0.95278 0.0
C1807 C 0.35642 0.28862 0.9515 0.0
C1808 C 0.69465 0.05496 0.98741 0.0
C1809 C 0.68507 0.03621 0.97879 0.0
H1810 H 0.71862 0.08232 0.98252 0.0
C1811 C 0.69196 0.03095 0.95738 0.0
H1812 H 0.6896 0.0594 0.00382 0.0
C1813 C 0.7084 0.04389 0.94546 0.0
C1814 C 0.71841 0.06246 0.95456 0.0
H1815 H 0.68483 0.01668 0.95005 0.0
H1816 H 0.71339 0.03929 0.92912 0.0
C1817 C 0.7112 0.06804 0.97526 0.0
C1818 C 0.66079 0.96419 0.05635 0.0
C1819 C 0.64526 0.95997 0.04129 0.0
H1820 H 0.67408 0.95393 0.08024 0.0
C1821 C 0.63131 0.9412 0.03764 0.0
H1822 H 0.67183 0.9785 0.05948 0.0
C1823 C 0.63266 0.92698 0.04957 0.0
C1824 C 0.64807 0.9313 0.06509 0.0
H1825 H 0.61922 0.93753 0.02604 0.0
H1826 H 0.62158 0.91263 0.04687 0.0
C1827 C 0.66219 0.95005 0.06805 0.0
C1828 C 0.05264 0.70091 0.0443 0.0
C1829 C 0.03405 0.68928 0.05145 0.0
H1830 H 0.07839 0.72594 0.05272 0.0
C1831 C 0.02736 0.69389 0.07374 0.0
H1832 H 0.05814 0.69773 0.02712 0.0
C1833 C 0.03893 0.7099 0.08846 0.0
C1834 C 0.05745 0.72179 0.08114 0.0
H1835 H 0.01313 0.68514 0.07982 0.0
H1836 H 0.03335 0.71284 0.10577 0.0
C1837 C 0.06423 0.71704 0.05898 0.0
C1838 C 0.3129 0.35873 0.0499 0.0
C1839 C 0.31968 0.34696 0.05563 0.0
H1840 H 0.29178 0.36528 0.05696 0.0
C1841 C 0.31024 0.33278 0.07392 0.0
H1842 H 0.31981 0.3697 0.03574 0.0
C1843 C 0.29427 0.33026 0.08603 0.0
C1844 C 0.28727 0.34182 0.0801 0.0
H1845 H 0.31513 0.32351 0.07885 0.0
H1846 H 0.28752 0.31936 0.10031 0.0
C1847 C 0.29684 0.35619 0.06202 0.0
C1848 C 0.72339 0.69903 0.37918 0.0
C1849 C 0.7045 0.68567 0.38199 0.0
H1850 H 0.75128 0.70659 0.38787 0.0
C1851 C 0.69933 0.66959 0.39643 0.0
H1852 H 0.72779 0.71156 0.36813 0.0
C1853 C 0.71266 0.66672 0.40747 0.0
C1854 C 0.73155 0.67987 0.40443 0.0
H1855 H 0.68492 0.65904 0.39909 0.0
H1856 H 0.70813 0.65421 0.41866 0.0
C1857 C 0.73681 0.69619 0.39044 0.0
C1858 C 0.31819 0.03636 0.38467 0.0
C1859 C 0.3299 0.02906 0.38553 0.0
H1860 H 0.31313 0.05777 0.39812 0.0
C1861 C 0.34591 0.03816 0.40096 0.0
H1862 H 0.30576 0.02964 0.3729 0.0
C1863 C 0.35024 0.05437 0.41508 0.0
C1864 C 0.3385 0.06163 0.4143 0.0
H1865 H 0.35522 0.03288 0.40191 0.0
H1866 H 0.36263 0.06107 0.42695 0.0
C1867 C 0.32239 0.05242 0.39908 0.0
C1868 C 0.97465 0.27619 0.36747 0.0
C1869 C 0.98394 0.29539 0.37358 0.0
H1870 H 0.95124 0.24901 0.37545 0.0
C1871 C 0.97679 0.30184 0.3932 0.0
H1872 H 0.97991 0.27084 0.35247 0.0
C1873 C 0.96051 0.2895 0.40604 0.0
C1874 C 0.95098 0.27037 0.39972 0.0
H1875 H 0.98365 0.31652 0.39851 0.0
H1876 H 0.9554 0.29497 0.42109 0.0
C1877 C 0.95832 0.26372 0.38059 0.0
C1878 C 0.04121 0.38964 0.31971 0.0
C1879 C 0.02894 0.37142 0.31042 0.0
H1880 H 0.05043 0.41875 0.31697 0.0
C1881 C 0.01641 0.36877 0.2906 0.0
H1882 H 0.05096 0.3921 0.33508 0.0
C1883 C 0.01616 0.38392 0.28018 0.0
C1884 C 0.02834 0.4022 0.28942 0.0
H1885 H 0.00682 0.35493 0.2829 0.0
H1886 H 0.00665 0.38129 0.26439 0.0
C1887 C 0.0409 0.40489 0.30933 0.0
C1888 C 0.64259 0.64333 0.28408 0.0
C1889 C 0.63586 0.64784 0.3064 0.0
H1890 H 0.63703 0.62388 0.25289 0.0
C1891 C 0.61751 0.63571 0.31417 0.0
H1892 H 0.65663 0.65249 0.27747 0.0
C1893 C 0.60629 0.61902 0.30031 0.0
C1894 C 0.61321 0.61425 0.27834 0.0
H1895 H 0.61198 0.63883 0.33139 0.0
H1896 H 0.59237 0.60967 0.30718 0.0
C1897 C 0.63139 0.6268 0.27015 0.0
C1898 C 0.35792 0.97306 0.29912 0.0
C1899 C 0.35793 0.98849 0.31036 0.0
H1900 H 0.37263 0.96353 0.27568 0.0
C1901 C 0.37396 0.00617 0.30907 0.0
H1902 H 0.34566 0.95928 0.29995 0.0
C1903 C 0.38962 0.00856 0.2962 0.0
C1904 C 0.38946 0.99342 0.2834 0.0
H1905 H 0.37441 0.01823 0.31811 0.0
H1906 H 0.40179 0.02242 0.29602 0.0
C1907 C 0.37346 0.97553 0.28543 0.0
C1908 C 0.61166 0.96064 0.30383 0.0
C1909 C 0.62675 0.97778 0.31203 0.0
H1910 H 0.58598 0.94661 0.28346 0.0
C1911 C 0.62641 0.99418 0.30827 0.0
H1912 H 0.61168 0.94781 0.30641 0.0
C1913 C 0.61136 0.99352 0.29607 0.0
C1914 C 0.59653 0.97648 0.28651 0.0
H1915 H 0.63781 0.00757 0.3148 0.0
H1916 H 0.61153 0.00646 0.29391 0.0
C1917 C 0.59683 0.96 0.29087 0.0
C1918 C 1.00039 0.63414 0.28871 0.0
C1919 C 0.01246 0.6393 0.31002 0.0
H1920 H 0.9874 0.6153 0.25651 0.0
C1921 C 0.02066 0.62874 0.31536 0.0
H1922 H 0.99392 0.64207 0.28406 0.0
C1923 C 0.0167 0.61319 0.2998 0.0
C1924 C 0.00454 0.60795 0.2785 0.0
H1925 H 0.02995 0.63233 0.33176 0.0
H1926 H 0.02298 0.60514 0.3047 0.0
C1927 C 0.99652 0.61869 0.27307 0.0
C1928 C 0.36569 0.39201 0.31679 0.0
C1929 C 0.35731 0.37252 0.31418 0.0
H1930 H 0.38852 0.41885 0.30592 0.0
C1931 C 0.3657 0.36513 0.29825 0.0
H1932 H 0.35947 0.39806 0.32892 0.0
C1933 C 0.38229 0.37691 0.2856 0.0
C1934 C 0.39079 0.39636 0.28828 0.0
H1935 H 0.3596 0.35019 0.29583 0.0
H1936 H 0.38843 0.37077 0.27348 0.0
C1937 C 0.38224 0.40387 0.30369 0.0
C1938 C 0.29979 0.28125 0.37722 0.0
C1939 C 0.3139 0.29984 0.38185 0.0
H1940 H 0.28966 0.25231 0.38442 0.0
C1941 C 0.32906 0.30338 0.3973 0.0
H1942 H 0.28799 0.27808 0.36526 0.0
C1943 C 0.33008 0.28872 0.40803 0.0
C1944 C 0.31594 0.27012 0.40367 0.0
H1945 H 0.3402 0.31753 0.40122 0.0
H1946 H 0.34177 0.29203 0.42033 0.0
C1947 C 0.30076 0.26651 0.38814 0.0
C1948 C 0.69383 0.02749 0.40413 0.0
C1949 C 0.70024 0.02315 0.38129 0.0
H1950 H 0.70021 0.04617 0.43663 0.0
C1951 C 0.71865 0.035 0.37356 0.0
H1952 H 0.67973 0.01857 0.41066 0.0
C1953 C 0.73038 0.05103 0.38832 0.0
C1954 C 0.72392 0.05547 0.41109 0.0
H1955 H 0.72394 0.03203 0.35596 0.0
H1956 H 0.74443 0.06007 0.3817 0.0
C1957 C 0.70554 0.04342 0.41889 0.0
C1958 C 0.97766 0.69096 0.38588 0.0
C1959 C 0.98297 0.67765 0.38856 0.0
H1960 H 0.95744 0.69853 0.39509 0.0
C1961 C 0.97178 0.66165 0.40328 0.0
H1962 H 0.98599 0.70342 0.3746 0.0
C1963 C 0.95552 0.65881 0.41471 0.0
C1964 C 0.95 0.67192 0.41182 0.0
H1965 H 0.97546 0.65112 0.40583 0.0
H1966 H 0.94734 0.64638 0.42609 0.0
C1967 C 0.96134 0.68817 0.39755 0.0
C1968 C 0.39188 0.03554 0.71057 0.0
C1969 C 0.37307 0.02158 0.71137 0.0
H1970 H 0.4196 0.04355 0.72142 0.0
C1971 C 0.36787 0.00468 0.72363 0.0
H1972 H 0.39627 0.04871 0.70126 0.0
C1973 C 0.38108 0.00168 0.73472 0.0
C1974 C 0.39987 0.01554 0.73405 0.0
H1975 H 0.35352 0.99361 0.72461 0.0
H1976 H 0.37649 0.98855 0.74431 0.0
C1977 C 0.40519 0.0326 0.72207 0.0
C1978 C 0.96663 0.35976 0.71862 0.0
C1979 C 0.98291 0.3596 0.71388 0.0
H1980 H 0.95372 0.37236 0.73912 0.0
C1981 C 0.99948 0.37359 0.72512 0.0
H1982 H 0.95364 0.34905 0.71028 0.0
C1983 C 0.99979 0.38764 0.74076 0.0
C1984 C 0.98337 0.38761 0.74627 0.0
H1985 H 0.01227 0.37386 0.72141 0.0
H1986 H 0.01295 0.3985 0.74841 0.0
C1987 C 0.96678 0.37338 0.73496 0.0
C1988 C 0.63763 0.61424 0.70536 0.0
C1989 C 0.64854 0.63331 0.71196 0.0
H1990 H 0.61284 0.58815 0.71305 0.0
C1991 C 0.64292 0.64055 0.73255 0.0
H1992 H 0.64164 0.60827 0.68956 0.0
C1993 C 0.62652 0.6291 0.74591 0.0
C1994 C 0.61533 0.61011 0.739 0.0
H1995 H 0.65107 0.65516 0.73821 0.0
H1996 H 0.62264 0.63514 0.76177 0.0
C1997 C 0.62117 0.60272 0.71882 0.0
C1998 C 0.67753 0.70828 0.6547 0.0
C1999 C 0.6917 0.70564 0.64553 0.0
H2000 H 0.66373 0.72355 0.65155 0.0
C2001 C 0.70375 0.71737 0.62625 0.0
H2002 H 0.66818 0.69942 0.66976 0.0
C2003 C 0.7009 0.7309 0.61513 0.0
C2004 C 0.6861 0.73303 0.62344 0.0
H2005 H 0.71472 0.71543 0.61888 0.0
H2006 H 0.70969 0.73898 0.59914 0.0
C2007 C 0.67493 0.72201 0.64409 0.0
C2008 C 0.30834 0.9754 0.6231 0.0
C2009 C 0.30183 0.9837 0.64086 0.0
H2010 H 0.30159 0.95272 0.59667 0.0
C2011 C 0.2827 0.9752 0.64501 0.0
H2012 H 0.32299 0.9816 0.61941 0.0
C2013 C 0.27035 0.95854 0.63179 0.0
C2014 C 0.27701 0.95004 0.61459 0.0
H2015 H 0.27731 0.98131 0.65858 0.0
H2016 H 0.25567 0.95212 0.63536 0.0
C2017 C 0.2961 0.95875 0.61023 0.0
C2018 C 0.03507 0.34193 0.63761 0.0
C2019 C 0.01998 0.32389 0.6415 0.0
H2020 H 0.06244 0.35876 0.62309 0.0
C2021 C 0.02122 0.30848 0.63324 0.0
H2022 H 0.03458 0.35405 0.64428 0.0
C2023 C 0.03701 0.31114 0.62005 0.0
C2024 C 0.05207 0.32928 0.6155 0.0
H2025 H 0.00972 0.29442 0.63606 0.0
H2026 H 0.03709 0.29896 0.6127 0.0
C2027 C 0.05101 0.34459 0.62522 0.0
C2028 C 0.29697 0.33441 0.65242 0.0
C2029 C 0.29686 0.31778 0.64785 0.0
H2030 H 0.28421 0.35022 0.6452 0.0
C2031 C 0.28282 0.30362 0.63248 0.0
H2032 H 0.30756 0.34541 0.66456 0.0
C2033 C 0.26975 0.30662 0.6204 0.0
C2034 C 0.2703 0.32369 0.62402 0.0
H2035 H 0.28258 0.29069 0.62868 0.0
H2036 H 0.25982 0.29592 0.60728 0.0
C2037 C 0.28366 0.33719 0.64109 0.0
C2038 C 0.68935 0.96719 0.64917 0.0
C2039 C 0.68103 0.97756 0.64342 0.0
H2040 H 0.69223 0.94386 0.63876 0.0
C2041 C 0.66932 0.97238 0.62167 0.0
H2042 H 0.69839 0.97083 0.66589 0.0
C2043 C 0.6659 0.95707 0.60605 0.0
C2044 C 0.67402 0.9465 0.61188 0.0
H2045 H 0.66278 0.98017 0.61666 0.0
H2046 H 0.65704 0.95368 0.58917 0.0
C2047 C 0.68586 0.95178 0.63359 0.0
C2048 C 0.03161 0.69986 0.62987 0.0
C2049 C 0.02314 0.70738 0.64533 0.0
H2050 H 0.05468 0.70527 0.60602 0.0
C2051 C 0.03165 0.72689 0.6479 0.0
H2052 H 0.02541 0.6849 0.62748 0.0
C2053 C 0.04848 0.73863 0.63534 0.0
C2054 C 0.05714 0.73097 0.62052 0.0
H2055 H 0.02537 0.73304 0.65968 0.0
H2056 H 0.05488 0.75362 0.6376 0.0
C2057 C 0.04846 0.71151 0.61775 0.0
C2058 C 0.99781 0.642 0.73224 0.0
C2059 C 0.98268 0.63703 0.71584 0.0
H2060 H 0.01239 0.63279 0.75535 0.0
C2061 C 0.97022 0.61801 0.71038 0.0
H2062 H 0.00765 0.6565 0.73697 0.0
C2063 C 0.97304 0.60429 0.72093 0.0
C2064 C 0.98846 0.60939 0.73688 0.0
H2065 H 0.95845 0.61376 0.69774 0.0
H2066 H 0.96336 0.58973 0.71629 0.0
C2067 C 1.00066 0.62839 0.74259 0.0
C2068 C 0.36236 0.36095 0.74037 0.0
C2069 C 0.36875 0.35689 0.71728 0.0
H2070 H 0.36857 0.37951 0.77296 0.0
C2071 C 0.38713 0.36893 0.70953 0.0
H2072 H 0.34831 0.35186 0.74697 0.0
C2073 C 0.39875 0.38501 0.7243 0.0
C2074 C 0.39219 0.38931 0.74711 0.0
H2075 H 0.39241 0.36615 0.69176 0.0
H2076 H 0.41272 0.39429 0.71755 0.0
C2077 C 0.37395 0.37691 0.75514 0.0
C2078 C 0.63918 0.00123 0.73438 0.0
C2079 C 0.65061 0.01705 0.71948 0.0
H2080 H 0.6147 0.98651 0.75722 0.0
C2081 C 0.64572 0.03067 0.7166 0.0
H2082 H 0.64254 0.99048 0.73712 0.0
C2083 C 0.62956 0.02834 0.72824 0.0
C2084 C 0.61797 0.01224 0.74262 0.0
H2085 H 0.65427 0.04302 0.70522 0.0
H2086 H 0.62596 0.03892 0.72564 0.0
C2087 C 0.62309 0.99885 0.74574 0.0
loop_
_geom_bond_atom_site_label_1
_geom_bond_atom_site_label_2
_geom_bond_distance
_geom_bond_site_symmetry_2
_ccdc_geom_bond_type
Co0 O1 2.216 . S
Co0 O2 2.091 . S
Co0 O4 2.004 1_554 S
Co0 O10 2.021 . S
Co0 O12 2.137 1_454 S
Co0 O13 2.244 1_455 S
O1 Co0 2.216 . S
O1 C8 1.247 . S
O2 Co0 2.091 . S
O2 C8 1.261 . S
C3 O12 1.247 . S
C3 O13 1.272 1_556 S
O4 Co0 2.004 1_556 S
O4 C9 1.259 1_455 S
Co5 O6 2.061 1_554 S
Co5 O11 2.052 . S
Co5 O13 2.135 . S
O6 Co5 2.061 1_556 S
O6 C9 1.235 . S
C7 O10 1.238 1_655 S
C7 O11 1.241 . S
C8 O1 1.247 . S
C8 O2 1.261 . S
C9 O4 1.259 1_655 S
C9 O6 1.235 . S
O10 Co0 2.021 . S
O10 C7 1.238 1_455 S
O11 Co5 2.052 . S
O11 C7 1.241 . S
O12 Co0 2.137 1_656 S
O12 C3 1.247 . S
O13 Co0 2.244 1_655 S
O13 C3 1.272 1_554 S
O13 Co5 2.135 . S
Co14 O15 2.216 1_554 S
Co14 O16 2.091 . S
Co14 O18 2.004 . S
Co14 O24 2.021 1_554 S
Co14 O26 2.137 . S
Co14 O27 2.244 . S
O15 Co14 2.216 1_556 S
O15 C22 1.247 . S
O16 Co14 2.091 . S
O16 C22 1.261 1_554 S
C17 O26 1.247 . S
C17 O27 1.272 . S
O18 Co14 2.004 . S
O18 C23 1.259 . S
Co19 O20 2.061 . S
Co19 O25 2.052 1_554 S
Co19 O27 2.135 . S
O20 Co19 2.061 . S
O20 C23 1.235 . S
C21 O24 1.238 . S
C21 O25 1.241 . S
C22 O15 1.247 . S
C22 O16 1.261 1_556 S
C23 O18 1.259 . S
C23 O20 1.235 . S
O24 Co14 2.021 1_556 S
O24 C21 1.238 . S
O25 Co19 2.052 1_556 S
O25 C21 1.241 . S
O26 Co14 2.137 . S
O26 C17 1.247 . S
O27 Co14 2.244 . S
O27 C17 1.272 . S
O27 Co19 2.135 . S
Co28 O29 2.216 1_554 S
Co28 O30 2.091 . S
Co28 O32 2.004 . S
Co28 O38 2.021 1_554 S
Co28 O40 2.137 1_545 S
Co28 O41 2.244 1_545 S
O29 Co28 2.216 1_556 S
O29 C36 1.247 . S
O30 Co28 2.091 . S
O30 C36 1.261 1_554 S
C31 O40 1.247 . S
C31 O41 1.272 . S
O32 Co28 2.004 . S
O32 C37 1.259 . S
Co33 O34 2.061 . S
Co33 O39 2.052 1_554 S
Co33 O41 2.135 . S
O34 Co33 2.061 . S
O34 C37 1.235 1_565 S
C35 O38 1.238 1_565 S
C35 O39 1.241 . S
C36 O29 1.247 . S
C36 O30 1.261 1_556 S
C37 O32 1.259 . S
C37 O34 1.235 1_545 S
O38 Co28 2.021 1_556 S
O38 C35 1.238 1_545 S
O39 Co33 2.052 1_556 S
O39 C35 1.241 . S
O40 Co28 2.137 1_565 S
O40 C31 1.247 . S
O41 Co28 2.244 1_565 S
O41 C31 1.272 . S
O41 Co33 2.135 . S
Co42 O43 2.216 1_554 S
Co42 O44 2.091 . S
Co42 O46 2.004 . S
Co42 O52 2.021 1_554 S
Co42 O54 2.137 1_655 S
Co42 O55 2.244 1_655 S
O43 Co42 2.216 1_556 S
O43 C50 1.247 . S
O44 Co42 2.091 . S
O44 C50 1.261 1_554 S
C45 O54 1.247 . S
C45 O55 1.272 . S
O46 Co42 2.004 . S
O46 C51 1.259 1_655 S
Co47 O48 2.061 . S
Co47 O53 2.052 1_554 S
Co47 O55 2.135 . S
O48 Co47 2.061 . S
O48 C51 1.235 . S
C49 O52 1.238 1_455 S
C49 O53 1.241 . S
C50 O43 1.247 . S
C50 O44 1.261 1_556 S
C51 O46 1.259 1_455 S
C51 O48 1.235 . S
O52 Co42 2.021 1_556 S
O52 C49 1.238 1_655 S
O53 Co47 2.052 1_556 S
O53 C49 1.241 . S
O54 Co42 2.137 1_455 S
O54 C45 1.247 . S
O55 Co42 2.244 1_455 S
O55 C45 1.272 . S
O55 Co47 2.135 . S
Co56 O57 2.216 . S
Co56 O58 2.091 . S
Co56 O60 2.004 1_554 S
Co56 O66 2.021 . S
Co56 O68 2.137 1_554 S
Co56 O69 2.244 . S
O57 Co56 2.216 . S
O57 C64 1.247 . S
O58 Co56 2.091 . S
O58 C64 1.261 . S
C59 O68 1.247 . S
C59 O69 1.272 1_556 S
O60 Co56 2.004 1_556 S
O60 C65 1.259 . S
Co61 O62 2.061 1_554 S
Co61 O67 2.052 . S
Co61 O69 2.135 . S
O62 Co61 2.061 1_556 S
O62 C65 1.235 . S
C63 O66 1.238 . S
C63 O67 1.241 . S
C64 O57 1.247 . S
C64 O58 1.261 . S
C65 O60 1.259 . S
C65 O62 1.235 . S
O66 Co56 2.021 . S
O66 C63 1.238 . S
O67 Co61 2.052 . S
O67 C63 1.241 . S
O68 Co56 2.137 1_556 S
O68 C59 1.247 . S
O69 Co56 2.244 . S
O69 C59 1.272 1_554 S
O69 Co61 2.135 . S
Co70 O71 2.216 . S
Co70 O72 2.091 . S
Co70 O74 2.004 1_554 S
Co70 O80 2.021 . S
Co70 O82 2.137 1_564 S
Co70 O83 2.244 1_565 S
O71 Co70 2.216 . S
O71 C78 1.247 . S
O72 Co70 2.091 . S
O72 C78 1.261 . S
C73 O82 1.247 . S
C73 O83 1.272 1_556 S
O74 Co70 2.004 1_556 S
O74 C79 1.259 1_565 S
Co75 O76 2.061 1_554 S
Co75 O81 2.052 . S
Co75 O83 2.135 . S
O76 Co75 2.061 1_556 S
O76 C79 1.235 . S
C77 O80 1.238 1_545 S
C77 O81 1.241 . S
C78 O71 1.247 . S
C78 O72 1.261 . S
C79 O74 1.259 1_545 S
C79 O76 1.235 . S
O80 Co70 2.021 . S
O80 C77 1.238 1_565 S
O81 Co75 2.052 . S
O81 C77 1.241 . S
O82 Co70 2.137 1_546 S
O82 C73 1.247 . S
O83 Co70 2.244 1_545 S
O83 C73 1.272 1_554 S
O83 Co75 2.135 . S
Co84 O85 2.216 . S
Co84 O86 2.091 . S
Co84 O88 2.004 . S
Co84 O94 2.021 . S
Co84 O96 2.137 . S
Co84 O97 2.244 . S
O85 Co84 2.216 . S
O85 C92 1.247 . S
O86 Co84 2.091 . S
O86 C92 1.261 . S
C87 O96 1.247 . S
C87 O97 1.272 . S
O88 Co84 2.004 . S
O88 C93 1.259 . S
Co89 O90 2.061 . S
Co89 O95 2.052 . S
Co89 O97 2.135 . S
O90 Co89 2.061 . S
O90 C93 1.235 . S
C91 O94 1.238 . S
C91 O95 1.241 . S
C92 O85 1.247 . S
C92 O86 1.261 . S
C93 O88 1.259 . S
C93 O90 1.235 . S
O94 Co84 2.021 . S
O94 C91 1.238 . S
O95 Co89 2.052 . S
O95 C91 1.241 . S
O96 Co84 2.137 . S
O96 C87 1.247 . S
O97 Co84 2.244 . S
O97 C87 1.272 . S
O97 Co89 2.135 . S
Co98 O99 2.216 . S
Co98 O100 2.091 . S
Co98 O102 2.004 . S
Co98 O108 2.021 . S
Co98 O110 2.122 1_565 S
Co98 O111 2.244 . S
O99 Co98 2.216 . S
O99 C106 1.247 . S
O100 Co98 2.091 . S
O100 C106 1.261 . S
C101 O110 1.262 . S
C101 O111 1.272 1_545 S
O102 Co98 2.004 . S
O102 C107 1.259 . S
Co103 O104 2.061 . S
Co103 O109 2.052 . S
Co103 O111 2.135 . S
O104 Co103 2.061 . S
O104 C107 1.235 . S
C105 O108 1.238 . S
C105 O109 1.241 . S
C106 O99 1.247 . S
C106 O100 1.261 . S
C107 O102 1.259 . S
C107 O104 1.235 . S
O108 Co98 2.021 . S
O108 C105 1.238 . S
O109 Co103 2.052 . S
O109 C105 1.241 . S
O110 Co98 2.122 1_545 S
O110 C101 1.262 . S
O111 Co98 2.244 . S
O111 C101 1.272 1_565 S
O111 Co103 2.135 . S
Co112 O113 2.216 . S
Co112 O114 2.091 . S
Co112 O116 2.004 . S
Co112 O122 2.021 . S
Co112 O124 2.137 . S
Co112 O125 2.244 . S
O113 Co112 2.216 . S
O113 C120 1.247 . S
O114 Co112 2.091 . S
O114 C120 1.261 . S
C115 O124 1.247 1_655 S
C115 O125 1.272 1_655 S
O116 Co112 2.004 . S
O116 C121 1.259 . S
Co117 O118 2.061 . S
Co117 O123 2.052 . S
Co117 O125 2.135 . S
O118 Co117 2.061 . S
O118 C121 1.235 . S
C119 O122 1.238 . S
C119 O123 1.241 . S
C120 O113 1.247 . S
C120 O114 1.261 . S
C121 O116 1.259 . S
C121 O118 1.235 . S
O122 Co112 2.021 . S
O122 C119 1.238 . S
O123 Co117 2.052 . S
O123 C119 1.241 . S
O124 Co112 2.137 . S
O124 C115 1.247 1_455 S
O125 Co112 2.244 . S
O125 C115 1.272 1_455 S
O125 Co117 2.135 . S
Co126 O127 2.216 . S
Co126 O128 2.091 . S
Co126 O130 2.004 . S
Co126 O136 2.021 . S
Co126 O138 2.100 1_565 S
Co126 O139 2.244 . S
O127 Co126 2.216 . S
O127 C134 1.247 . S
O128 Co126 2.091 . S
O128 C134 1.261 . S
C129 O138 1.234 . S
C129 O139 1.272 1_545 S
O130 Co126 2.004 . S
O130 C135 1.259 . S
Co131 O132 2.061 . S
Co131 O137 2.052 . S
Co131 O139 2.135 . S
O132 Co131 2.061 . S
O132 C135 1.235 . S
C133 O136 1.238 . S
C133 O137 1.241 . S
C134 O127 1.247 . S
C134 O128 1.261 . S
C135 O130 1.259 . S
C135 O132 1.235 . S
O136 Co126 2.021 . S
O136 C133 1.238 . S
O137 Co131 2.052 . S
O137 C133 1.241 . S
O138 Co126 2.100 1_545 S
O138 C129 1.234 . S
O139 Co126 2.244 . S
O139 C129 1.272 1_565 S
O139 Co131 2.135 . S
Co140 O141 2.216 1_455 S
Co140 O142 2.091 1_455 S
Co140 O144 2.004 . S
Co140 O150 2.021 . S
Co140 O152 2.137 . S
Co140 O153 2.244 . S
O141 Co140 2.216 1_655 S
O141 C148 1.247 . S
O142 Co140 2.091 1_655 S
O142 C148 1.261 . S
C143 O152 1.247 . S
C143 O153 1.272 . S
O144 Co140 2.004 . S
O144 C149 1.259 . S
Co145 O146 2.061 . S
Co145 O151 2.052 . S
Co145 O153 2.135 . S
O146 Co145 2.061 . S
O146 C149 1.235 . S
C147 O150 1.238 . S
C147 O151 1.241 . S
C148 O141 1.247 . S
C148 O142 1.261 . S
C149 O144 1.259 . S
C149 O146 1.235 . S
O150 Co140 2.021 . S
O150 C147 1.238 . S
O151 Co145 2.052 . S
O151 C147 1.241 . S
O152 Co140 2.137 . S
O152 C143 1.247 . S
O153 Co140 2.244 . S
O153 C143 1.272 . S
O153 Co145 2.135 . S
Co154 O155 2.216 . S
Co154 O156 2.091 . S
Co154 O158 2.004 . S
Co154 O164 2.021 . S
Co154 O166 2.137 . S
Co154 O167 2.244 . S
O155 Co154 2.216 . S
O155 C162 1.247 . S
O156 Co154 2.091 . S
O156 C162 1.261 . S
C157 O166 1.247 . S
C157 O167 1.272 . S
O158 Co154 2.004 . S
O158 C163 1.259 . S
Co159 O160 2.061 . S
Co159 O165 2.052 . S
Co159 O167 2.135 . S
O160 Co159 2.061 . S
O160 C163 1.235 . S
C161 O164 1.238 . S
C161 O165 1.241 . S
C162 O155 1.247 . S
C162 O156 1.261 . S
C163 O158 1.259 . S
C163 O160 1.235 . S
O164 Co154 2.021 . S
O164 C161 1.238 . S
O165 Co159 2.052 . S
O165 C161 1.241 . S
O166 Co154 2.137 . S
O166 C157 1.247 . S
O167 Co154 2.244 . S
O167 C157 1.272 . S
O167 Co159 2.135 . S
Co168 O169 2.216 . S
Co168 O170 2.091 . S
Co168 O172 2.004 . S
Co168 O178 2.021 . S
Co168 O180 2.137 . S
Co168 O181 2.244 . S
O169 Co168 2.216 . S
O169 C176 1.247 . S
O170 Co168 2.091 . S
O170 C176 1.261 . S
C171 O180 1.247 1_565 S
C171 O181 1.272 1_565 S
O172 Co168 2.004 . S
O172 C177 1.259 . S
Co173 O174 2.061 . S
Co173 O179 2.052 . S
Co173 O181 2.135 . S
O174 Co173 2.061 . S
O174 C177 1.235 . S
C175 O178 1.238 . S
C175 O179 1.241 . S
C176 O169 1.247 . S
C176 O170 1.261 . S
C177 O172 1.259 . S
C177 O174 1.235 . S
O178 Co168 2.021 . S
O178 C175 1.238 . S
O179 Co173 2.052 . S
O179 C175 1.241 . S
O180 Co168 2.137 . S
O180 C171 1.247 1_545 S
O181 Co168 2.244 . S
O181 C171 1.272 1_545 S
O181 Co173 2.135 . S
Co182 O183 2.216 1_655 S
Co182 O184 2.091 1_655 S
Co182 O186 2.004 . S
Co182 O192 2.021 . S
Co182 O194 2.137 . S
Co182 O195 2.244 . S
O183 Co182 2.216 1_455 S
O183 C190 1.247 . S
O184 Co182 2.091 1_455 S
O184 C190 1.261 . S
C185 O194 1.247 . S
C185 O195 1.272 . S
O186 Co182 2.004 . S
O186 C191 1.259 . S
Co187 O188 2.061 . S
Co187 O193 2.052 . S
Co187 O195 2.135 . S
O188 Co187 2.061 . S
O188 C191 1.235 . S
C189 O192 1.238 . S
C189 O193 1.241 . S
C190 O183 1.247 . S
C190 O184 1.261 . S
C191 O186 1.259 . S
C191 O188 1.235 . S
O192 Co182 2.021 . S
O192 C189 1.238 . S
O193 Co187 2.052 . S
O193 C189 1.241 . S
O194 Co182 2.137 . S
O194 C185 1.247 . S
O195 Co182 2.244 . S
O195 C185 1.272 . S
O195 Co187 2.135 . S
Co196 O197 2.216 . S
Co196 O198 2.091 . S
Co196 O200 2.004 . S
Co196 O206 2.021 . S
Co196 O208 2.137 . S
Co196 O209 2.244 . S
O197 Co196 2.216 . S
O197 C204 1.247 . S
O198 Co196 2.091 . S
O198 C204 1.261 . S
C199 O208 1.247 . S
C199 O209 1.272 . S
O200 Co196 2.004 . S
O200 C205 1.259 . S
Co201 O202 2.061 . S
Co201 O207 2.052 . S
Co201 O209 2.135 . S
O202 Co201 2.061 . S
O202 C205 1.235 . S
C203 O206 1.238 . S
C203 O207 1.241 . S
C204 O197 1.247 . S
C204 O198 1.261 . S
C205 O200 1.259 . S
C205 O202 1.235 . S
O206 Co196 2.021 . S
O206 C203 1.238 . S
O207 Co201 2.052 . S
O207 C203 1.241 . S
O208 Co196 2.137 . S
O208 C199 1.247 . S
O209 Co196 2.244 . S
O209 C199 1.272 . S
O209 Co201 2.135 . S
Co210 O211 2.216 . S
Co210 O212 2.091 . S
Co210 O214 2.004 . S
Co210 O220 2.021 . S
Co210 O222 2.137 . S
Co210 O223 2.244 . S
O211 Co210 2.216 . S
O211 C218 1.247 . S
O212 Co210 2.091 . S
O212 C218 1.261 . S
C213 O222 1.247 . S
C213 O223 1.272 . S
O214 Co210 2.004 . S
O214 C219 1.259 . S
Co215 O216 2.061 . S
Co215 O221 2.052 . S
Co215 O223 2.135 . S
O216 Co215 2.061 . S
O216 C219 1.235 . S
C217 O220 1.238 . S
C217 O221 1.241 . S
C218 O211 1.247 . S
C218 O212 1.261 . S
C219 O214 1.259 . S
C219 O216 1.235 . S
O220 Co210 2.021 . S
O220 C217 1.238 . S
O221 Co215 2.052 . S
O221 C217 1.241 . S
O222 Co210 2.137 . S
O222 C213 1.247 . S
O223 Co210 2.244 . S
O223 C213 1.272 . S
O223 Co215 2.135 . S
Co224 O225 2.216 . S
Co224 O226 2.091 . S
Co224 O228 2.004 . S
Co224 O234 2.021 . S
Co224 O236 2.137 . S
Co224 O237 2.244 . S
O225 Co224 2.216 . S
O225 C232 1.247 . S
O226 Co224 2.091 . S
O226 C232 1.261 . S
C227 O236 1.247 1_565 S
C227 O237 1.272 1_565 S
O228 Co224 2.004 . S
O228 C233 1.259 . S
Co229 O230 2.061 . S
Co229 O235 2.052 . S
Co229 O237 2.135 . S
O230 Co229 2.061 . S
O230 C233 1.235 . S
C231 O234 1.238 . S
C231 O235 1.241 . S
C232 O225 1.247 . S
C232 O226 1.261 . S
C233 O228 1.259 . S
C233 O230 1.235 . S
O234 Co224 2.021 . S
O234 C231 1.238 . S
O235 Co229 2.052 . S
O235 C231 1.241 . S
O236 Co224 2.137 . S
O236 C227 1.247 1_545 S
O237 Co224 2.244 . S
O237 C227 1.272 1_545 S
O237 Co229 2.135 . S
Co238 O239 2.216 . S
Co238 O240 2.091 . S
Co238 O242 2.004 . S
Co238 O248 2.021 . S
Co238 O250 2.137 . S
Co238 O251 2.244 . S
O239 Co238 2.216 . S
O239 C246 1.247 . S
O240 Co238 2.091 . S
O240 C246 1.261 . S
C241 O250 1.247 1_455 S
C241 O251 1.272 1_455 S
O242 Co238 2.004 . S
O242 C247 1.259 . S
Co243 O244 2.061 . S
Co243 O249 2.052 . S
Co243 O251 2.135 . S
O244 Co243 2.061 . S
O244 C247 1.235 . S
C245 O248 1.238 . S
C245 O249 1.241 . S
C246 O239 1.247 . S
C246 O240 1.261 . S
C247 O242 1.259 . S
C247 O244 1.235 . S
O248 Co238 2.021 . S
O248 C245 1.238 . S
O249 Co243 2.052 . S
O249 C245 1.241 . S
O250 Co238 2.137 . S
O250 C241 1.247 1_655 S
O251 Co238 2.244 . S
O251 C241 1.272 1_655 S
O251 Co243 2.135 . S
H252 C279 0.929 . S
N253 C278 1.433 . S
N253 C284 1.435 . S
N253 C290 1.423 . S
H254 C280 0.930 . S
H255 C283 0.931 . S
H256 C282 0.929 . S
H257 C285 0.930 . S
H258 C286 0.932 . S
H259 C289 0.929 . S
H260 C288 0.931 . S
H261 C291 0.929 . S
H262 C295 0.932 . S
H263 C292 0.931 . S
H264 C294 0.929 . S
H265 C297 0.929 . S
H266 C298 0.930 . S
H267 C300 0.929 . S
H268 C301 0.931 . S
H269 C303 0.930 . S
H270 C304 0.932 . S
H271 C306 0.931 . S
H272 C307 0.929 . S
H273 C309 0.929 . S
H274 C310 0.931 . S
H275 C312 0.929 . S
N276 C296 1.433 . S
N276 C302 1.435 . S
N276 C308 1.423 . S
H277 C313 0.932 . S
C278 N253 1.433 . S
C278 C279 1.363 . S
C278 C283 1.370 . S
C279 H252 0.929 . S
C279 C278 1.363 . S
C279 C280 1.385 . S
C280 H254 0.930 . S
C280 C279 1.385 . S
C280 C281 1.357 . S
C281 C280 1.357 . S
C281 C282 1.406 . S
C282 H256 0.929 . S
C282 C281 1.406 . S
C282 C283 1.391 . S
C283 H255 0.931 . S
C283 C278 1.370 . S
C283 C282 1.391 . S
C284 N253 1.435 . S
C284 C285 1.358 . S
C284 C289 1.371 . S
C285 H257 0.930 . S
C285 C284 1.358 . S
C285 C286 1.405 . S
C286 H258 0.932 . S
C286 C285 1.405 . S
C286 C287 1.383 . S
C287 C286 1.383 . S
C287 C288 1.393 . S
C288 H260 0.931 . S
C288 C287 1.393 . S
C288 C289 1.382 . S
C289 H259 0.929 . S
C289 C284 1.371 . S
C289 C288 1.382 . S
C290 N253 1.423 . S
C290 C291 1.362 . S
C290 C295 1.388 . S
C291 H261 0.929 . S
C291 C290 1.362 . S
C291 C292 1.376 . S
C292 H263 0.931 . S
C292 C291 1.376 . S
C292 C293 1.396 . S
C293 C292 1.396 . S
C293 C294 1.348 . S
C293 C311 1.472 . S
C294 H264 0.929 . S
C294 C293 1.348 . S
C294 C295 1.443 . S
C295 H262 0.932 . S
C295 C290 1.388 . S
C295 C294 1.443 . S
C296 N276 1.433 . S
C296 C297 1.363 . S
C296 C301 1.370 . S
C297 H265 0.929 . S
C297 C296 1.363 . S
C297 C298 1.385 . S
C298 H266 0.930 . S
C298 C297 1.385 . S
C298 C299 1.357 . S
C299 C298 1.357 . S
C299 C300 1.406 . S
C300 H267 0.929 . S
C300 C299 1.406 . S
C300 C301 1.391 . S
C301 H268 0.931 . S
C301 C296 1.370 . S
C301 C300 1.391 . S
C302 N276 1.435 . S
C302 C303 1.358 . S
C302 C307 1.371 . S
C303 H269 0.930 . S
C303 C302 1.358 . S
C303 C304 1.405 . S
C304 H270 0.932 . S
C304 C303 1.405 . S
C304 C305 1.383 . S
C305 C304 1.383 . S
C305 C306 1.393 . S
C306 H271 0.931 . S
C306 C305 1.393 . S
C306 C307 1.382 . S
C307 H272 0.929 . S
C307 C302 1.371 . S
C307 C306 1.382 . S
C308 N276 1.423 . S
C308 C309 1.362 . S
C308 C313 1.388 . S
C309 H273 0.929 . S
C309 C308 1.362 . S
C309 C310 1.376 . S
C310 H274 0.931 . S
C310 C309 1.376 . S
C310 C311 1.396 . S
C311 C293 1.472 . S
C311 C310 1.396 . S
C311 C312 1.348 . S
C312 H275 0.929 . S
C312 C311 1.348 . S
C312 C313 1.443 . S
C313 H277 0.932 . S
C313 C308 1.388 . S
C313 C312 1.443 . S
H314 C341 0.929 . S
N315 C340 1.433 . S
N315 C346 1.435 . S
N315 C352 1.423 . S
H316 C342 0.930 . S
H317 C345 0.931 . S
H318 C344 0.929 . S
H319 C347 0.930 . S
H320 C348 0.932 . S
H321 C351 0.929 . S
H322 C350 0.931 . S
H323 C353 0.929 . S
H324 C357 0.932 . S
H325 C354 0.931 . S
H326 C356 0.929 . S
H327 C359 0.929 . S
H328 C360 0.930 . S
H329 C362 0.929 . S
H330 C363 0.931 . S
H331 C365 0.930 . S
H332 C366 0.932 . S
H333 C368 0.931 . S
H334 C369 0.929 . S
H335 C371 0.929 . S
H336 C372 0.931 . S
H337 C374 0.929 . S
N338 C358 1.433 . S
N338 C364 1.435 . S
N338 C370 1.423 . S
H339 C375 0.932 . S
C340 N315 1.433 . S
C340 C341 1.363 . S
C340 C345 1.370 . S
C341 H314 0.929 . S
C341 C340 1.363 . S
C341 C342 1.385 . S
C342 H316 0.930 . S
C342 C341 1.385 . S
C342 C343 1.357 . S
C343 C342 1.357 . S
C343 C344 1.406 . S
C344 H318 0.929 . S
C344 C343 1.406 . S
C344 C345 1.391 . S
C345 H317 0.931 . S
C345 C340 1.370 . S
C345 C344 1.391 . S
C346 N315 1.435 . S
C346 C347 1.358 . S
C346 C351 1.371 . S
C347 H319 0.930 . S
C347 C346 1.358 . S
C347 C348 1.405 . S
C348 H320 0.932 . S
C348 C347 1.405 . S
C348 C349 1.383 . S
C349 C348 1.383 . S
C349 C350 1.393 . S
C350 H322 0.931 . S
C350 C349 1.393 . S
C350 C351 1.382 . S
C351 H321 0.929 . S
C351 C346 1.371 . S
C351 C350 1.382 . S
C352 N315 1.423 . S
C352 C353 1.362 . S
C352 C357 1.388 . S
C353 H323 0.929 . S
C353 C352 1.362 . S
C353 C354 1.376 . S
C354 H325 0.931 . S
C354 C353 1.376 . S
C354 C355 1.396 . S
C355 C354 1.396 . S
C355 C356 1.348 . S
C355 C373 1.472 . S
C356 H326 0.929 . S
C356 C355 1.348 . S
C356 C357 1.443 . S
C357 H324 0.932 . S
C357 C352 1.388 . S
C357 C356 1.443 . S
C358 N338 1.433 . S
C358 C359 1.363 . S
C358 C363 1.370 . S
C359 H327 0.929 . S
C359 C358 1.363 . S
C359 C360 1.385 . S
C360 H328 0.930 . S
C360 C359 1.385 . S
C360 C361 1.357 . S
C361 C360 1.357 . S
C361 C362 1.406 . S
C362 H329 0.929 . S
C362 C361 1.406 . S
C362 C363 1.391 . S
C363 H330 0.931 . S
C363 C358 1.370 . S
C363 C362 1.391 . S
C364 N338 1.435 . S
C364 C365 1.358 . S
C364 C369 1.371 . S
C365 H331 0.930 . S
C365 C364 1.358 . S
C365 C366 1.405 . S
C366 H332 0.932 . S
C366 C365 1.405 . S
C366 C367 1.383 . S
C367 C366 1.383 . S
C367 C368 1.393 . S
C368 H333 0.931 . S
C368 C367 1.393 . S
C368 C369 1.382 . S
C369 H334 0.929 . S
C369 C364 1.371 . S
C369 C368 1.382 . S
C370 N338 1.423 . S
C370 C371 1.362 . S
C370 C375 1.388 . S
C371 H335 0.929 . S
C371 C370 1.362 . S
C371 C372 1.376 . S
C372 H336 0.931 . S
C372 C371 1.376 . S
C372 C373 1.396 . S
C373 C355 1.472 . S
C373 C372 1.396 . S
C373 C374 1.348 . S
C374 H337 0.929 . S
C374 C373 1.348 . S
C374 C375 1.443 . S
C375 H339 0.932 . S
C375 C370 1.388 . S
C375 C374 1.443 . S
H376 C403 0.929 . S
N377 C402 1.433 . S
N377 C408 1.435 . S
N377 C414 1.423 . S
H378 C404 0.930 . S
H379 C407 0.931 . S
H380 C406 0.929 . S
H381 C409 0.930 . S
H382 C410 0.932 . S
H383 C413 0.929 . S
H384 C412 0.931 . S
H385 C415 0.929 . S
H386 C419 0.932 . S
H387 C416 0.931 . S
H388 C418 0.929 . S
H389 C421 0.929 . S
H390 C422 0.930 . S
H391 C424 0.929 . S
H392 C425 0.931 . S
H393 C427 0.930 . S
H394 C428 0.932 . S
H395 C430 0.931 . S
H396 C431 0.929 . S
H397 C433 0.929 . S
H398 C434 0.931 . S
H399 C436 0.929 . S
N400 C420 1.433 . S
N400 C426 1.435 . S
N400 C432 1.423 . S
H401 C437 0.932 . S
C402 N377 1.433 . S
C402 C403 1.363 . S
C402 C407 1.370 . S
C403 H376 0.929 . S
C403 C402 1.363 . S
C403 C404 1.385 . S
C404 H378 0.930 . S
C404 C403 1.385 . S
C404 C405 1.357 . S
C405 C404 1.357 . S
C405 C406 1.406 . S
C406 H380 0.929 . S
C406 C405 1.406 . S
C406 C407 1.391 . S
C407 H379 0.931 . S
C407 C402 1.370 . S
C407 C406 1.391 . S
C408 N377 1.435 . S
C408 C409 1.358 . S
C408 C413 1.371 . S
C409 H381 0.930 . S
C409 C408 1.358 . S
C409 C410 1.405 . S
C410 H382 0.932 . S
C410 C409 1.405 . S
C410 C411 1.383 . S
C411 C410 1.383 . S
C411 C412 1.393 . S
C412 H384 0.931 . S
C412 C411 1.393 . S
C412 C413 1.382 . S
C413 H383 0.929 . S
C413 C408 1.371 . S
C413 C412 1.382 . S
C414 N377 1.423 . S
C414 C415 1.362 . S
C414 C419 1.388 . S
C415 H385 0.929 . S
C415 C414 1.362 . S
C415 C416 1.376 . S
C416 H387 0.931 . S
C416 C415 1.376 . S
C416 C417 1.396 . S
C417 C416 1.396 . S
C417 C418 1.348 . S
C417 C435 1.472 . S
C418 H388 0.929 . S
C418 C417 1.348 . S
C418 C419 1.443 . S
C419 H386 0.932 . S
C419 C414 1.388 . S
C419 C418 1.443 . S
C420 N400 1.433 . S
C420 C421 1.363 . S
C420 C425 1.370 . S
C421 H389 0.929 . S
C421 C420 1.363 . S
C421 C422 1.385 . S
C422 H390 0.930 . S
C422 C421 1.385 . S
C422 C423 1.357 . S
C423 C422 1.357 . S
C423 C424 1.406 . S
C424 H391 0.929 . S
C424 C423 1.406 . S
C424 C425 1.391 . S
C425 H392 0.931 . S
C425 C420 1.370 . S
C425 C424 1.391 . S
C426 N400 1.435 . S
C426 C427 1.358 . S
C426 C431 1.371 . S
C427 H393 0.930 . S
C427 C426 1.358 . S
C427 C428 1.405 . S
C428 H394 0.932 . S
C428 C427 1.405 . S
C428 C429 1.383 . S
C429 C428 1.383 . S
C429 C430 1.393 . S
C430 H395 0.931 . S
C430 C429 1.393 . S
C430 C431 1.382 . S
C431 H396 0.929 . S
C431 C426 1.371 . S
C431 C430 1.382 . S
C432 N400 1.423 . S
C432 C433 1.362 . S
C432 C437 1.388 . S
C433 H397 0.929 . S
C433 C432 1.362 . S
C433 C434 1.376 . S
C434 H398 0.931 . S
C434 C433 1.376 . S
C434 C435 1.396 . S
C435 C417 1.472 . S
C435 C434 1.396 . S
C435 C436 1.348 . S
C436 H399 0.929 . S
C436 C435 1.348 . S
C436 C437 1.443 . S
C437 H401 0.932 . S
C437 C432 1.388 . S
C437 C436 1.443 . S
H438 C465 0.929 . S
N439 C464 1.433 . S
N439 C470 1.435 . S
N439 C476 1.423 . S
H440 C466 0.930 . S
H441 C469 0.931 . S
H442 C468 0.929 . S
H443 C471 0.930 . S
H444 C472 0.932 . S
H445 C475 0.929 . S
H446 C474 0.931 . S
H447 C477 0.929 . S
H448 C481 0.932 . S
H449 C478 0.931 . S
H450 C480 0.929 . S
H451 C483 0.929 . S
H452 C484 0.930 . S
H453 C486 0.929 . S
H454 C487 0.931 . S
H455 C489 0.930 . S
H456 C490 0.932 . S
H457 C492 0.931 . S
H458 C493 0.929 . S
H459 C495 0.929 . S
H460 C496 0.931 . S
H461 C498 0.929 . S
N462 C482 1.433 . S
N462 C488 1.435 . S
N462 C494 1.423 . S
H463 C499 0.932 . S
C464 N439 1.433 . S
C464 C465 1.363 . S
C464 C469 1.370 . S
C465 H438 0.929 . S
C465 C464 1.363 . S
C465 C466 1.385 . S
C466 H440 0.930 . S
C466 C465 1.385 . S
C466 C467 1.357 . S
C467 C466 1.357 . S
C467 C468 1.406 . S
C468 H442 0.929 . S
C468 C467 1.406 . S
C468 C469 1.391 . S
C469 H441 0.931 . S
C469 C464 1.370 . S
C469 C468 1.391 . S
C470 N439 1.435 . S
C470 C471 1.358 . S
C470 C475 1.371 . S
C471 H443 0.930 . S
C471 C470 1.358 . S
C471 C472 1.405 . S
C472 H444 0.932 . S
C472 C471 1.405 . S
C472 C473 1.383 . S
C473 C472 1.383 . S
C473 C474 1.393 . S
C474 H446 0.931 . S
C474 C473 1.393 . S
C474 C475 1.382 . S
C475 H445 0.929 . S
C475 C470 1.371 . S
C475 C474 1.382 . S
C476 N439 1.423 . S
C476 C477 1.362 . S
C476 C481 1.388 . S
C477 H447 0.929 . S
C477 C476 1.362 . S
C477 C478 1.376 . S
C478 H449 0.931 . S
C478 C477 1.376 . S
C478 C479 1.396 . S
C479 C478 1.396 . S
C479 C480 1.348 . S
C479 C497 1.472 . S
C480 H450 0.929 . S
C480 C479 1.348 . S
C480 C481 1.443 . S
C481 H448 0.932 . S
C481 C476 1.388 . S
C481 C480 1.443 . S
C482 N462 1.433 . S
C482 C483 1.363 . S
C482 C487 1.370 . S
C483 H451 0.929 . S
C483 C482 1.363 . S
C483 C484 1.385 . S
C484 H452 0.930 . S
C484 C483 1.385 . S
C484 C485 1.357 . S
C485 C484 1.357 . S
C485 C486 1.406 . S
C486 H453 0.929 . S
C486 C485 1.406 . S
C486 C487 1.391 . S
C487 H454 0.931 . S
C487 C482 1.370 . S
C487 C486 1.391 . S
C488 N462 1.435 . S
C488 C489 1.358 . S
C488 C493 1.371 . S
C489 H455 0.930 . S
C489 C488 1.358 . S
C489 C490 1.405 . S
C490 H456 0.932 . S
C490 C489 1.405 . S
C490 C491 1.383 . S
C491 C490 1.383 . S
C491 C492 1.393 . S
C492 H457 0.931 . S
C492 C491 1.393 . S
C492 C493 1.382 . S
C493 H458 0.929 . S
C493 C488 1.371 . S
C493 C492 1.382 . S
C494 N462 1.423 . S
C494 C495 1.362 . S
C494 C499 1.388 . S
C495 H459 0.929 . S
C495 C494 1.362 . S
C495 C496 1.376 . S
C496 H460 0.931 . S
C496 C495 1.376 . S
C496 C497 1.396 . S
C497 C479 1.472 . S
C497 C496 1.396 . S
C497 C498 1.348 . S
C498 H461 0.929 . S
C498 C497 1.348 . S
C498 C499 1.443 . S
C499 H463 0.932 . S
C499 C494 1.388 . S
C499 C498 1.443 . S
H500 C527 0.929 . S
N501 C526 1.433 . S
N501 C532 1.435 . S
N501 C538 1.423 . S
H502 C528 0.930 . S
H503 C531 0.931 . S
H504 C530 0.929 . S
H505 C533 0.930 . S
H506 C534 0.932 . S
H507 C537 0.929 . S
H508 C536 0.931 . S
H509 C539 0.929 . S
H510 C543 0.932 . S
H511 C540 0.931 . S
H512 C542 0.929 . S
H513 C545 0.929 . S
H514 C546 0.930 . S
H515 C548 0.929 . S
H516 C549 0.931 . S
H517 C551 0.930 . S
H518 C552 0.932 . S
H519 C554 0.931 . S
H520 C555 0.929 . S
H521 C557 0.929 . S
H522 C558 0.931 . S
H523 C560 0.929 . S
N524 C544 1.433 . S
N524 C550 1.435 . S
N524 C556 1.423 . S
H525 C561 0.932 . S
C526 N501 1.433 . S
C526 C527 1.363 . S
C526 C531 1.370 . S
C527 H500 0.929 . S
C527 C526 1.363 . S
C527 C528 1.385 . S
C528 H502 0.930 . S
C528 C527 1.385 . S
C528 C529 1.357 . S
C529 C528 1.357 . S
C529 C530 1.406 . S
C530 H504 0.929 . S
C530 C529 1.406 . S
C530 C531 1.391 . S
C531 H503 0.931 . S
C531 C526 1.370 . S
C531 C530 1.391 . S
C532 N501 1.435 . S
C532 C533 1.358 . S
C532 C537 1.371 . S
C533 H505 0.930 . S
C533 C532 1.358 . S
C533 C534 1.405 . S
C534 H506 0.932 . S
C534 C533 1.405 . S
C534 C535 1.383 . S
C535 C534 1.383 . S
C535 C536 1.393 . S
C536 H508 0.931 . S
C536 C535 1.393 . S
C536 C537 1.382 . S
C537 H507 0.929 . S
C537 C532 1.371 . S
C537 C536 1.382 . S
C538 N501 1.423 . S
C538 C539 1.362 . S
C538 C543 1.388 . S
C539 H509 0.929 . S
C539 C538 1.362 . S
C539 C540 1.376 . S
C540 H511 0.931 . S
C540 C539 1.376 . S
C540 C541 1.396 . S
C541 C540 1.396 . S
C541 C542 1.348 . S
C541 C559 1.472 . S
C542 H512 0.929 . S
C542 C541 1.348 . S
C542 C543 1.443 . S
C543 H510 0.932 . S
C543 C538 1.388 . S
C543 C542 1.443 . S
C544 N524 1.433 . S
C544 C545 1.363 . S
C544 C549 1.370 . S
C545 H513 0.929 . S
C545 C544 1.363 . S
C545 C546 1.385 . S
C546 H514 0.930 . S
C546 C545 1.385 . S
C546 C547 1.357 . S
C547 C546 1.357 . S
C547 C548 1.406 . S
C548 H515 0.929 . S
C548 C547 1.406 . S
C548 C549 1.391 . S
C549 H516 0.931 . S
C549 C544 1.370 . S
C549 C548 1.391 . S
C550 N524 1.435 . S
C550 C551 1.358 . S
C550 C555 1.371 . S
C551 H517 0.930 . S
C551 C550 1.358 . S
C551 C552 1.405 . S
C552 H518 0.932 . S
C552 C551 1.405 . S
C552 C553 1.383 . S
C553 C552 1.383 . S
C553 C554 1.393 . S
C554 H519 0.931 . S
C554 C553 1.393 . S
C554 C555 1.382 . S
C555 H520 0.929 . S
C555 C550 1.371 . S
C555 C554 1.382 . S
C556 N524 1.423 . S
C556 C557 1.362 . S
C556 C561 1.388 . S
C557 H521 0.929 . S
C557 C556 1.362 . S
C557 C558 1.376 . S
C558 H522 0.931 . S
C558 C557 1.376 . S
C558 C559 1.396 . S
C559 C541 1.472 . S
C559 C558 1.396 . S
C559 C560 1.348 . S
C560 H523 0.929 . S
C560 C559 1.348 . S
C560 C561 1.443 . S
C561 H525 0.932 . S
C561 C556 1.388 . S
C561 C560 1.443 . S
H562 C589 0.929 . S
N563 C588 1.433 . S
N563 C594 1.435 . S
N563 C600 1.423 . S
H564 C590 0.930 . S
H565 C593 0.931 . S
H566 C592 0.929 . S
H567 C595 0.930 . S
H568 C596 0.932 . S
H569 C599 0.929 . S
H570 C598 0.931 . S
H571 C601 0.929 . S
H572 C605 0.932 . S
H573 C602 0.931 . S
H574 C604 0.929 . S
H575 C607 0.929 . S
H576 C608 0.930 . S
H577 C610 0.929 . S
H578 C611 0.931 . S
H579 C613 0.930 . S
H580 C614 0.932 . S
H581 C616 0.931 . S
H582 C617 0.929 . S
H583 C619 0.929 . S
H584 C620 0.931 . S
H585 C622 0.929 . S
N586 C606 1.433 . S
N586 C612 1.435 . S
N586 C618 1.423 . S
H587 C623 0.932 . S
C588 N563 1.433 . S
C588 C589 1.363 . S
C588 C593 1.370 . S
C589 H562 0.929 . S
C589 C588 1.363 . S
C589 C590 1.385 . S
C590 H564 0.930 . S
C590 C589 1.385 . S
C590 C591 1.357 . S
C591 C590 1.357 . S
C591 C592 1.406 . S
C592 H566 0.929 . S
C592 C591 1.406 . S
C592 C593 1.391 . S
C593 H565 0.931 . S
C593 C588 1.370 . S
C593 C592 1.391 . S
C594 N563 1.435 . S
C594 C595 1.358 . S
C594 C599 1.371 . S
C595 H567 0.930 . S
C595 C594 1.358 . S
C595 C596 1.405 . S
C596 H568 0.932 . S
C596 C595 1.405 . S
C596 C597 1.383 . S
C597 C596 1.383 . S
C597 C598 1.393 . S
C598 H570 0.931 . S
C598 C597 1.393 . S
C598 C599 1.382 . S
C599 H569 0.929 . S
C599 C594 1.371 . S
C599 C598 1.382 . S
C600 N563 1.423 . S
C600 C601 1.362 . S
C600 C605 1.388 . S
C601 H571 0.929 . S
C601 C600 1.362 . S
C601 C602 1.376 . S
C602 H573 0.931 . S
C602 C601 1.376 . S
C602 C603 1.396 . S
C603 C602 1.396 . S
C603 C604 1.348 . S
C603 C621 1.472 . S
C604 H574 0.929 . S
C604 C603 1.348 . S
C604 C605 1.443 . S
C605 H572 0.932 . S
C605 C600 1.388 . S
C605 C604 1.443 . S
C606 N586 1.433 . S
C606 C607 1.363 . S
C606 C611 1.370 . S
C607 H575 0.929 . S
C607 C606 1.363 . S
C607 C608 1.385 . S
C608 H576 0.930 . S
C608 C607 1.385 . S
C608 C609 1.357 . S
C609 C608 1.357 . S
C609 C610 1.406 . S
C610 H577 0.929 . S
C610 C609 1.406 . S
C610 C611 1.391 . S
C611 H578 0.931 . S
C611 C606 1.370 . S
C611 C610 1.391 . S
C612 N586 1.435 . S
C612 C613 1.358 . S
C612 C617 1.371 . S
C613 H579 0.930 . S
C613 C612 1.358 . S
C613 C614 1.405 . S
C614 H580 0.932 . S
C614 C613 1.405 . S
C614 C615 1.383 . S
C615 C614 1.383 . S
C615 C616 1.393 . S
C616 H581 0.931 . S
C616 C615 1.393 . S
C616 C617 1.382 . S
C617 H582 0.929 . S
C617 C612 1.371 . S
C617 C616 1.382 . S
C618 N586 1.423 . S
C618 C619 1.362 . S
C618 C623 1.388 . S
C619 H583 0.929 . S
C619 C618 1.362 . S
C619 C620 1.376 . S
C620 H584 0.931 . S
C620 C619 1.376 . S
C620 C621 1.396 . S
C621 C603 1.472 . S
C621 C620 1.396 . S
C621 C622 1.348 . S
C622 H585 0.929 . S
C622 C621 1.348 . S
C622 C623 1.443 . S
C623 H587 0.932 . S
C623 C618 1.388 . S
C623 C622 1.443 . S
H624 C651 0.929 . S
N625 C650 1.433 . S
N625 C656 1.435 . S
N625 C662 1.423 . S
H626 C652 0.930 . S
H627 C655 0.931 . S
H628 C654 0.929 . S
H629 C657 0.930 . S
H630 C658 0.932 . S
H631 C661 0.929 . S
H632 C660 0.931 . S
H633 C663 0.929 . S
H634 C667 0.932 . S
H635 C664 0.931 . S
H636 C666 0.929 . S
H637 C669 0.929 . S
H638 C670 0.930 . S
H639 C672 0.929 . S
H640 C673 0.931 . S
H641 C675 0.930 . S
H642 C676 0.932 . S
H643 C678 0.931 . S
H644 C679 0.929 . S
H645 C681 0.929 . S
H646 C682 0.931 . S
H647 C684 0.929 . S
N648 C668 1.433 . S
N648 C674 1.435 . S
N648 C680 1.423 . S
H649 C685 0.932 . S
C650 N625 1.433 . S
C650 C651 1.363 . S
C650 C655 1.370 . S
C651 H624 0.929 . S
C651 C650 1.363 . S
C651 C652 1.385 . S
C652 H626 0.930 . S
C652 C651 1.385 . S
C652 C653 1.357 . S
C653 C652 1.357 . S
C653 C654 1.406 . S
C654 H628 0.929 . S
C654 C653 1.406 . S
C654 C655 1.391 . S
C655 H627 0.931 . S
C655 C650 1.370 . S
C655 C654 1.391 . S
C656 N625 1.435 . S
C656 C657 1.358 . S
C656 C661 1.371 . S
C657 H629 0.930 . S
C657 C656 1.358 . S
C657 C658 1.405 . S
C658 H630 0.932 . S
C658 C657 1.405 . S
C658 C659 1.383 . S
C659 C658 1.383 . S
C659 C660 1.393 . S
C660 H632 0.931 . S
C660 C659 1.393 . S
C660 C661 1.382 . S
C661 H631 0.929 . S
C661 C656 1.371 . S
C661 C660 1.382 . S
C662 N625 1.423 . S
C662 C663 1.362 . S
C662 C667 1.388 . S
C663 H633 0.929 . S
C663 C662 1.362 . S
C663 C664 1.376 . S
C664 H635 0.931 . S
C664 C663 1.376 . S
C664 C665 1.396 . S
C665 C664 1.396 . S
C665 C666 1.348 . S
C665 C683 1.472 . S
C666 H636 0.929 . S
C666 C665 1.348 . S
C666 C667 1.443 . S
C667 H634 0.932 . S
C667 C662 1.388 . S
C667 C666 1.443 . S
C668 N648 1.433 . S
C668 C669 1.363 . S
C668 C673 1.370 . S
C669 H637 0.929 . S
C669 C668 1.363 . S
C669 C670 1.385 . S
C670 H638 0.930 . S
C670 C669 1.385 . S
C670 C671 1.357 . S
C671 C670 1.357 . S
C671 C672 1.406 . S
C672 H639 0.929 . S
C672 C671 1.406 . S
C672 C673 1.391 . S
C673 H640 0.931 . S
C673 C668 1.370 . S
C673 C672 1.391 . S
C674 N648 1.435 . S
C674 C675 1.358 . S
C674 C679 1.371 . S
C675 H641 0.930 . S
C675 C674 1.358 . S
C675 C676 1.405 . S
C676 H642 0.932 . S
C676 C675 1.405 . S
C676 C677 1.383 . S
C677 C676 1.383 . S
C677 C678 1.393 . S
C678 H643 0.931 . S
C678 C677 1.393 . S
C678 C679 1.382 . S
C679 H644 0.929 . S
C679 C674 1.371 . S
C679 C678 1.382 . S
C680 N648 1.423 . S
C680 C681 1.362 . S
C680 C685 1.388 . S
C681 H645 0.929 . S
C681 C680 1.362 . S
C681 C682 1.376 . S
C682 H646 0.931 . S
C682 C681 1.376 . S
C682 C683 1.396 . S
C683 C665 1.472 . S
C683 C682 1.396 . S
C683 C684 1.348 . S
C684 H647 0.929 . S
C684 C683 1.348 . S
C684 C685 1.443 . S
C685 H649 0.932 . S
C685 C680 1.388 . S
C685 C684 1.443 . S
H686 C713 0.929 . S
N687 C712 1.433 . S
N687 C718 1.435 . S
N687 C724 1.423 . S
H688 C714 0.930 . S
H689 C717 0.931 . S
H690 C716 0.929 . S
H691 C719 0.930 . S
H692 C720 0.932 . S
H693 C723 0.929 . S
H694 C722 0.931 . S
H695 C725 0.929 . S
H696 C729 0.932 . S
H697 C726 0.931 . S
H698 C728 0.929 . S
H699 C731 0.929 . S
H700 C732 0.930 . S
H701 C734 0.929 . S
H702 C735 0.931 . S
H703 C737 0.930 . S
H704 C738 0.932 . S
H705 C740 0.931 . S
H706 C741 0.929 . S
H707 C743 0.929 . S
H708 C744 0.931 . S
H709 C746 0.929 . S
N710 C730 1.433 . S
N710 C736 1.435 . S
N710 C742 1.423 . S
H711 C747 0.932 . S
C712 N687 1.433 . S
C712 C713 1.363 . S
C712 C717 1.370 . S
C713 H686 0.929 . S
C713 C712 1.363 . S
C713 C714 1.385 . S
C714 H688 0.930 . S
C714 C713 1.385 . S
C714 C715 1.357 . S
C715 C714 1.357 . S
C715 C716 1.406 . S
C716 H690 0.929 . S
C716 C715 1.406 . S
C716 C717 1.391 . S
C717 H689 0.931 . S
C717 C712 1.370 . S
C717 C716 1.391 . S
C718 N687 1.435 . S
C718 C719 1.358 . S
C718 C723 1.371 . S
C719 H691 0.930 . S
C719 C718 1.358 . S
C719 C720 1.405 . S
C720 H692 0.932 . S
C720 C719 1.405 . S
C720 C721 1.383 . S
C721 C720 1.383 . S
C721 C722 1.393 . S
C722 H694 0.931 . S
C722 C721 1.393 . S
C722 C723 1.382 . S
C723 H693 0.929 . S
C723 C718 1.371 . S
C723 C722 1.382 . S
C724 N687 1.423 . S
C724 C725 1.362 . S
C724 C729 1.388 . S
C725 H695 0.929 . S
C725 C724 1.362 . S
C725 C726 1.376 . S
C726 H697 0.931 . S
C726 C725 1.376 . S
C726 C727 1.396 . S
C727 C726 1.396 . S
C727 C728 1.348 . S
C727 C745 1.472 . S
C728 H698 0.929 . S
C728 C727 1.348 . S
C728 C729 1.443 . S
C729 H696 0.932 . S
C729 C724 1.388 . S
C729 C728 1.443 . S
C730 N710 1.433 . S
C730 C731 1.363 . S
C730 C735 1.370 . S
C731 H699 0.929 . S
C731 C730 1.363 . S
C731 C732 1.385 . S
C732 H700 0.930 . S
C732 C731 1.385 . S
C732 C733 1.357 . S
C733 C732 1.357 . S
C733 C734 1.406 . S
C734 H701 0.929 . S
C734 C733 1.406 . S
C734 C735 1.391 . S
C735 H702 0.931 . S
C735 C730 1.370 . S
C735 C734 1.391 . S
C736 N710 1.435 . S
C736 C737 1.358 . S
C736 C741 1.371 . S
C737 H703 0.930 . S
C737 C736 1.358 . S
C737 C738 1.405 . S
C738 H704 0.932 . S
C738 C737 1.405 . S
C738 C739 1.383 . S
C739 C738 1.383 . S
C739 C740 1.393 . S
C740 H705 0.931 . S
C740 C739 1.393 . S
C740 C741 1.382 . S
C741 H706 0.929 . S
C741 C736 1.371 . S
C741 C740 1.382 . S
C742 N710 1.423 . S
C742 C743 1.362 . S
C742 C747 1.388 . S
C743 H707 0.929 . S
C743 C742 1.362 . S
C743 C744 1.376 . S
C744 H708 0.931 . S
C744 C743 1.376 . S
C744 C745 1.396 . S
C745 C727 1.472 . S
C745 C744 1.396 . S
C745 C746 1.348 . S
C746 H709 0.929 . S
C746 C745 1.348 . S
C746 C747 1.443 . S
C747 H711 0.932 . S
C747 C742 1.388 . S
C747 C746 1.443 . S
H748 C775 0.929 . S
N749 C774 1.433 . S
N749 C780 1.435 . S
N749 C786 1.423 . S
H750 C776 0.930 . S
H751 C779 0.931 . S
H752 C778 0.929 . S
H753 C781 0.930 . S
H754 C782 0.932 . S
H755 C785 0.929 . S
H756 C784 0.931 . S
H757 C787 0.929 . S
H758 C791 0.932 . S
H759 C788 0.931 . S
H760 C790 0.929 . S
H761 C793 0.929 . S
H762 C794 0.930 . S
H763 C796 0.929 . S
H764 C797 0.931 . S
H765 C799 0.930 . S
H766 C800 0.932 . S
H767 C802 0.931 . S
H768 C803 0.929 . S
H769 C805 0.929 . S
H770 C806 0.931 . S
H771 C808 0.929 . S
N772 C792 1.433 . S
N772 C798 1.435 . S
N772 C804 1.423 . S
H773 C809 0.932 . S
C774 N749 1.433 . S
C774 C775 1.363 . S
C774 C779 1.370 . S
C775 H748 0.929 . S
C775 C774 1.363 . S
C775 C776 1.385 . S
C776 H750 0.930 . S
C776 C775 1.385 . S
C776 C777 1.357 . S
C777 C776 1.357 . S
C777 C778 1.406 . S
C778 H752 0.929 . S
C778 C777 1.406 . S
C778 C779 1.391 . S
C779 H751 0.931 . S
C779 C774 1.370 . S
C779 C778 1.391 . S
C780 N749 1.435 . S
C780 C781 1.358 . S
C780 C785 1.371 . S
C781 H753 0.930 . S
C781 C780 1.358 . S
C781 C782 1.405 . S
C782 H754 0.932 . S
C782 C781 1.405 . S
C782 C783 1.383 . S
C783 C782 1.383 . S
C783 C784 1.393 . S
C784 H756 0.931 . S
C784 C783 1.393 . S
C784 C785 1.382 . S
C785 H755 0.929 . S
C785 C780 1.371 . S
C785 C784 1.382 . S
C786 N749 1.423 . S
C786 C787 1.362 . S
C786 C791 1.388 . S
C787 H757 0.929 . S
C787 C786 1.362 . S
C787 C788 1.376 . S
C788 H759 0.931 . S
C788 C787 1.376 . S
C788 C789 1.396 . S
C789 C788 1.396 . S
C789 C790 1.348 . S
C789 C807 1.472 . S
C790 H760 0.929 . S
C790 C789 1.348 . S
C790 C791 1.443 . S
C791 H758 0.932 . S
C791 C786 1.388 . S
C791 C790 1.443 . S
C792 N772 1.433 . S
C792 C793 1.363 . S
C792 C797 1.370 . S
C793 H761 0.929 . S
C793 C792 1.363 . S
C793 C794 1.385 . S
C794 H762 0.930 . S
C794 C793 1.385 . S
C794 C795 1.357 . S
C795 C794 1.357 . S
C795 C796 1.406 . S
C796 H763 0.929 . S
C796 C795 1.406 . S
C796 C797 1.391 . S
C797 H764 0.931 . S
C797 C792 1.370 . S
C797 C796 1.391 . S
C798 N772 1.435 . S
C798 C799 1.358 . S
C798 C803 1.371 . S
C799 H765 0.930 . S
C799 C798 1.358 . S
C799 C800 1.405 . S
C800 H766 0.932 . S
C800 C799 1.405 . S
C800 C801 1.383 . S
C801 C800 1.383 . S
C801 C802 1.393 . S
C802 H767 0.931 . S
C802 C801 1.393 . S
C802 C803 1.382 . S
C803 H768 0.929 . S
C803 C798 1.371 . S
C803 C802 1.382 . S
C804 N772 1.423 . S
C804 C805 1.362 . S
C804 C809 1.388 . S
C805 H769 0.929 . S
C805 C804 1.362 . S
C805 C806 1.376 . S
C806 H770 0.931 . S
C806 C805 1.376 . S
C806 C807 1.396 . S
C807 C789 1.472 . S
C807 C806 1.396 . S
C807 C808 1.348 . S
C808 H771 0.929 . S
C808 C807 1.348 . S
C808 C809 1.443 . S
C809 H773 0.932 . S
C809 C804 1.388 . S
C809 C808 1.443 . S
H810 C837 0.929 . S
N811 C836 1.433 . S
N811 C842 1.435 . S
N811 C848 1.423 . S
H812 C838 0.930 . S
H813 C841 0.931 . S
H814 C840 0.929 . S
H815 C843 0.930 . S
H816 C844 0.932 . S
H817 C847 0.929 . S
H818 C846 0.931 . S
H819 C849 0.929 . S
H820 C853 0.932 1_655 S
H821 C850 0.931 . S
H822 C852 0.929 . S
H823 C855 0.929 . S
H824 C856 0.930 . S
H825 C858 0.929 . S
H826 C859 0.931 . S
H827 C861 0.930 . S
H828 C862 0.932 . S
H829 C864 0.931 . S
H830 C865 0.929 . S
H831 C867 0.929 . S
H832 C868 0.931 . S
H833 C870 0.929 . S
N834 C854 1.433 . S
N834 C860 1.435 . S
N834 C866 1.423 . S
H835 C871 0.932 1_655 S
C836 N811 1.433 . S
C836 C837 1.363 . S
C836 C841 1.370 1_455 S
C837 H810 0.929 . S
C837 C836 1.363 . S
C837 C838 1.385 . S
C838 H812 0.930 . S
C838 C837 1.385 . S
C838 C839 1.357 1_455 S
C839 C838 1.357 1_655 S
C839 C840 1.406 . S
C840 H814 0.929 . S
C840 C839 1.406 . S
C840 C841 1.391 . S
C841 H813 0.931 . S
C841 C836 1.370 1_655 S
C841 C840 1.391 . S
C842 N811 1.435 . S
C842 C843 1.358 1_455 S
C842 C847 1.371 . S
C843 H815 0.930 . S
C843 C842 1.358 1_655 S
C843 C844 1.405 . S
C844 H816 0.932 . S
C844 C843 1.405 . S
C844 C845 1.383 1_655 S
C845 C844 1.383 1_455 S
C845 C846 1.393 . S
C846 H818 0.931 . S
C846 C845 1.393 . S
C846 C847 1.382 . S
C847 H817 0.929 . S
C847 C842 1.371 . S
C847 C846 1.382 . S
C848 N811 1.423 . S
C848 C849 1.362 . S
C848 C853 1.388 . S
C849 H819 0.929 . S
C849 C848 1.362 . S
C849 C850 1.376 . S
C850 H821 0.931 . S
C850 C849 1.376 . S
C850 C851 1.396 . S
C851 C850 1.396 . S
C851 C852 1.348 . S
C851 C869 1.472 . S
C852 H822 0.929 . S
C852 C851 1.348 . S
C852 C853 1.443 . S
C853 H820 0.932 1_455 S
C853 C848 1.388 . S
C853 C852 1.443 . S
C854 N834 1.433 . S
C854 C855 1.363 . S
C854 C859 1.370 1_455 S
C855 H823 0.929 . S
C855 C854 1.363 . S
C855 C856 1.385 . S
C856 H824 0.930 . S
C856 C855 1.385 . S
C856 C857 1.357 1_455 S
C857 C856 1.357 1_655 S
C857 C858 1.406 . S
C858 H825 0.929 . S
C858 C857 1.406 . S
C858 C859 1.391 . S
C859 H826 0.931 . S
C859 C854 1.370 1_655 S
C859 C858 1.391 . S
C860 N834 1.435 . S
C860 C861 1.358 1_455 S
C860 C865 1.371 . S
C861 H827 0.930 . S
C861 C860 1.358 1_655 S
C861 C862 1.405 . S
C862 H828 0.932 . S
C862 C861 1.405 . S
C862 C863 1.383 1_655 S
C863 C862 1.383 1_455 S
C863 C864 1.393 . S
C864 H829 0.931 . S
C864 C863 1.393 . S
C864 C865 1.382 . S
C865 H830 0.929 . S
C865 C860 1.371 . S
C865 C864 1.382 . S
C866 N834 1.423 . S
C866 C867 1.362 . S
C866 C871 1.388 . S
C867 H831 0.929 . S
C867 C866 1.362 . S
C867 C868 1.376 . S
C868 H832 0.931 . S
C868 C867 1.376 . S
C868 C869 1.396 . S
C869 C851 1.472 . S
C869 C868 1.396 . S
C869 C870 1.348 . S
C870 H833 0.929 . S
C870 C869 1.348 . S
C870 C871 1.443 . S
C871 H835 0.932 1_455 S
C871 C866 1.388 . S
C871 C870 1.443 . S
H872 C899 0.929 . S
N873 C898 1.433 . S
N873 C904 1.435 . S
N873 C910 1.423 . S
H874 C900 0.930 . S
H875 C903 0.931 . S
H876 C902 0.929 . S
H877 C905 0.930 . S
H878 C906 0.932 . S
H879 C909 0.929 . S
H880 C908 0.931 . S
H881 C911 0.929 . S
H882 C915 0.932 . S
H883 C912 0.931 . S
H884 C914 0.929 . S
H885 C917 0.929 . S
H886 C918 0.930 . S
H887 C920 0.929 . S
H888 C921 0.931 . S
H889 C923 0.930 . S
H890 C924 0.932 . S
H891 C926 0.931 . S
H892 C927 0.929 . S
H893 C929 0.929 . S
H894 C930 0.931 . S
H895 C932 0.929 . S
N896 C916 1.433 . S
N896 C922 1.435 . S
N896 C928 1.423 . S
H897 C933 0.932 . S
C898 N873 1.433 . S
C898 C899 1.363 . S
C898 C903 1.370 . S
C899 H872 0.929 . S
C899 C898 1.363 . S
C899 C900 1.385 . S
C900 H874 0.930 . S
C900 C899 1.385 . S
C900 C901 1.357 . S
C901 C900 1.357 . S
C901 C902 1.406 . S
C902 H876 0.929 . S
C902 C901 1.406 . S
C902 C903 1.391 . S
C903 H875 0.931 . S
C903 C898 1.370 . S
C903 C902 1.391 . S
C904 N873 1.435 . S
C904 C905 1.358 . S
C904 C909 1.371 . S
C905 H877 0.930 . S
C905 C904 1.358 . S
C905 C906 1.405 . S
C906 H878 0.932 . S
C906 C905 1.405 . S
C906 C907 1.383 . S
C907 C906 1.383 . S
C907 C908 1.393 . S
C908 H880 0.931 . S
C908 C907 1.393 . S
C908 C909 1.382 . S
C909 H879 0.929 . S
C909 C904 1.371 . S
C909 C908 1.382 . S
C910 N873 1.423 . S
C910 C911 1.362 . S
C910 C915 1.388 . S
C911 H881 0.929 . S
C911 C910 1.362 . S
C911 C912 1.376 . S
C912 H883 0.931 . S
C912 C911 1.376 . S
C912 C913 1.396 . S
C913 C912 1.396 . S
C913 C914 1.348 . S
C913 C931 1.472 . S
C914 H884 0.929 . S
C914 C913 1.348 . S
C914 C915 1.443 . S
C915 H882 0.932 . S
C915 C910 1.388 . S
C915 C914 1.443 . S
C916 N896 1.433 . S
C916 C917 1.363 . S
C916 C921 1.370 . S
C917 H885 0.929 . S
C917 C916 1.363 . S
C917 C918 1.385 . S
C918 H886 0.930 . S
C918 C917 1.385 . S
C918 C919 1.357 . S
C919 C918 1.357 . S
C919 C920 1.406 . S
C920 H887 0.929 . S
C920 C919 1.406 . S
C920 C921 1.391 . S
C921 H888 0.931 . S
C921 C916 1.370 . S
C921 C920 1.391 . S
C922 N896 1.435 . S
C922 C923 1.358 . S
C922 C927 1.371 . S
C923 H889 0.930 . S
C923 C922 1.358 . S
C923 C924 1.405 . S
C924 H890 0.932 . S
C924 C923 1.405 . S
C924 C925 1.383 . S
C925 C924 1.383 . S
C925 C926 1.393 . S
C926 H891 0.931 . S
C926 C925 1.393 . S
C926 C927 1.382 . S
C927 H892 0.929 . S
C927 C922 1.371 . S
C927 C926 1.382 . S
C928 N896 1.423 . S
C928 C929 1.362 . S
C928 C933 1.388 . S
C929 H893 0.929 . S
C929 C928 1.362 . S
C929 C930 1.376 . S
C930 H894 0.931 . S
C930 C929 1.376 . S
C930 C931 1.396 . S
C931 C913 1.472 . S
C931 C930 1.396 . S
C931 C932 1.348 . S
C932 H895 0.929 . S
C932 C931 1.348 . S
C932 C933 1.443 . S
C933 H897 0.932 . S
C933 C928 1.388 . S
C933 C932 1.443 . S
H934 C961 0.929 . S
N935 C960 1.433 . S
N935 C966 1.435 . S
N935 C972 1.423 . S
H936 C962 0.930 . S
H937 C965 0.931 . S
H938 C964 0.929 . S
H939 C967 0.930 . S
H940 C968 0.932 . S
H941 C971 0.929 . S
H942 C970 0.931 . S
H943 C973 0.929 . S
H944 C977 0.932 1_545 S
H945 C974 0.931 . S
H946 C976 0.929 . S
H947 C979 0.929 . S
H948 C980 0.930 . S
H949 C982 0.929 . S
H950 C983 0.931 . S
H951 C985 0.930 . S
H952 C986 0.932 . S
H953 C988 0.931 . S
H954 C989 0.929 . S
H955 C991 0.929 . S
H956 C992 0.931 . S
H957 C994 0.929 . S
N958 C978 1.433 . S
N958 C984 1.435 . S
N958 C990 1.423 . S
H959 C995 0.932 1_545 S
C960 N935 1.433 . S
C960 C961 1.363 . S
C960 C965 1.370 1_565 S
C961 H934 0.929 . S
C961 C960 1.363 . S
C961 C962 1.385 . S
C962 H936 0.930 . S
C962 C961 1.385 . S
C962 C963 1.357 1_565 S
C963 C962 1.357 1_545 S
C963 C964 1.406 . S
C964 H938 0.929 . S
C964 C963 1.406 . S
C964 C965 1.391 . S
C965 H937 0.931 . S
C965 C960 1.370 1_545 S
C965 C964 1.391 . S
C966 N935 1.435 . S
C966 C967 1.358 1_565 S
C966 C971 1.371 . S
C967 H939 0.930 . S
C967 C966 1.358 1_545 S
C967 C968 1.405 . S
C968 H940 0.932 . S
C968 C967 1.405 . S
C968 C969 1.383 1_545 S
C969 C968 1.383 1_565 S
C969 C970 1.393 . S
C970 H942 0.931 . S
C970 C969 1.393 . S
C970 C971 1.382 . S
C971 H941 0.929 . S
C971 C966 1.371 . S
C971 C970 1.382 . S
C972 N935 1.423 . S
C972 C973 1.362 . S
C972 C977 1.388 . S
C973 H943 0.929 . S
C973 C972 1.362 . S
C973 C974 1.376 . S
C974 H945 0.931 . S
C974 C973 1.376 . S
C974 C975 1.396 . S
C975 C974 1.396 . S
C975 C976 1.348 . S
C975 C993 1.472 . S
C976 H946 0.929 . S
C976 C975 1.348 . S
C976 C977 1.443 . S
C977 H944 0.932 1_565 S
C977 C972 1.388 . S
C977 C976 1.443 . S
C978 N958 1.433 . S
C978 C979 1.363 . S
C978 C983 1.370 1_565 S
C979 H947 0.929 . S
C979 C978 1.363 . S
C979 C980 1.385 . S
C980 H948 0.930 . S
C980 C979 1.385 . S
C980 C981 1.357 1_565 S
C981 C980 1.357 1_545 S
C981 C982 1.406 . S
C982 H949 0.929 . S
C982 C981 1.406 . S
C982 C983 1.391 . S
C983 H950 0.931 . S
C983 C978 1.370 1_545 S
C983 C982 1.391 . S
C984 N958 1.435 . S
C984 C985 1.358 1_565 S
C984 C989 1.371 . S
C985 H951 0.930 . S
C985 C984 1.358 1_545 S
C985 C986 1.405 . S
C986 H952 0.932 . S
C986 C985 1.405 . S
C986 C987 1.383 1_545 S
C987 C986 1.383 1_565 S
C987 C988 1.393 . S
C988 H953 0.931 . S
C988 C987 1.393 . S
C988 C989 1.382 . S
C989 H954 0.929 . S
C989 C984 1.371 . S
C989 C988 1.382 . S
C990 N958 1.423 . S
C990 C991 1.362 . S
C990 C995 1.388 . S
C991 H955 0.929 . S
C991 C990 1.362 . S
C991 C992 1.376 . S
C992 H956 0.931 . S
C992 C991 1.376 . S
C992 C993 1.396 . S
C993 C975 1.472 . S
C993 C992 1.396 . S
C993 C994 1.348 . S
C994 H957 0.929 . S
C994 C993 1.348 . S
C994 C995 1.443 . S
C995 H959 0.932 1_565 S
C995 C990 1.388 . S
C995 C994 1.443 . S
H996 C1023 0.929 . S
N997 C1022 1.433 . S
N997 C1028 1.435 . S
N997 C1034 1.423 . S
H998 C1024 0.930 . S
H999 C1027 0.931 . S
H1000 C1026 0.929 . S
H1001 C1029 0.930 . S
H1002 C1030 0.932 . S
H1003 C1033 0.929 . S
H1004 C1032 0.931 . S
H1005 C1035 0.929 . S
H1006 C1039 0.932 . S
H1007 C1036 0.931 . S
H1008 C1038 0.918 1_545 S
H1009 C1041 0.929 . S
H1010 C1042 0.930 . S
H1011 C1044 0.929 . S
H1012 C1045 0.981 . S
H1013 C1047 0.930 . S
H1014 C1048 0.932 . S
H1015 C1050 0.931 . S
H1016 C1051 0.929 . S
H1017 C1053 0.929 . S
H1018 C1054 0.931 . S
H1019 C1056 0.880 1_545 S
N1020 C1040 1.433 . S
N1020 C1046 1.435 . S
N1020 C1052 1.423 . S
H1021 C1057 0.932 . S
C1022 N997 1.433 . S
C1022 C1023 1.363 . S
C1022 C1027 1.370 1_565 S
C1023 H996 0.929 . S
C1023 C1022 1.363 . S
C1023 C1024 1.385 . S
C1024 H998 0.930 . S
C1024 C1023 1.385 . S
C1024 C1025 1.357 . S
C1025 C1024 1.357 . S
C1025 C1026 1.406 1_565 S
C1026 H1000 0.929 . S
C1026 C1025 1.406 1_545 S
C1026 C1027 1.391 . S
C1027 H999 0.931 . S
C1027 C1022 1.370 1_545 S
C1027 C1026 1.391 . S
C1028 N997 1.435 . S
C1028 C1029 1.358 1_565 S
C1028 C1033 1.371 . S
C1029 H1001 0.930 . S
C1029 C1028 1.358 1_545 S
C1029 C1030 1.405 . S
C1030 H1002 0.932 . S
C1030 C1029 1.405 . S
C1030 C1031 1.383 . S
C1031 C1030 1.383 . S
C1031 C1032 1.393 1_545 S
C1032 H1004 0.931 . S
C1032 C1031 1.393 1_565 S
C1032 C1033 1.382 . S
C1033 H1003 0.929 . S
C1033 C1028 1.371 . S
C1033 C1032 1.382 . S
C1034 N997 1.423 . S
C1034 C1035 1.362 . S
C1034 C1039 1.388 1_565 S
C1035 H1005 0.929 . S
C1035 C1034 1.362 . S
C1035 C1036 1.376 . S
C1036 H1007 0.931 . S
C1036 C1035 1.376 . S
C1036 C1037 1.396 . S
C1037 C1036 1.396 . S
C1037 C1038 1.393 . S
C1037 C1055 1.472 . S
C1038 H1008 0.918 1_565 S
C1038 C1037 1.393 . S
C1038 C1039 1.410 1_565 S
C1039 H1006 0.932 . S
C1039 C1034 1.388 1_545 S
C1039 C1038 1.410 1_545 S
C1040 N1020 1.433 . S
C1040 C1041 1.363 . S
C1040 C1045 1.332 1_565 S
C1041 H1009 0.929 . S
C1041 C1040 1.363 . S
C1041 C1042 1.385 . S
C1042 H1010 0.930 . S
C1042 C1041 1.385 . S
C1042 C1043 1.357 . S
C1043 C1042 1.357 . S
C1043 C1044 1.406 1_565 S
C1044 H1011 0.929 . S
C1044 C1043 1.406 1_545 S
C1044 C1045 1.382 . S
C1045 H1012 0.981 . S
C1045 C1040 1.332 1_545 S
C1045 C1044 1.382 . S
C1046 N1020 1.435 . S
C1046 C1047 1.358 1_565 S
C1046 C1051 1.371 . S
C1047 H1013 0.930 . S
C1047 C1046 1.358 1_545 S
C1047 C1048 1.405 . S
C1048 H1014 0.932 . S
C1048 C1047 1.405 . S
C1048 C1049 1.383 . S
C1049 C1048 1.383 . S
C1049 C1050 1.393 1_545 S
C1050 H1015 0.931 . S
C1050 C1049 1.393 1_565 S
C1050 C1051 1.382 . S
C1051 H1016 0.929 . S
C1051 C1046 1.371 . S
C1051 C1050 1.382 . S
C1052 N1020 1.423 . S
C1052 C1053 1.362 . S
C1052 C1057 1.388 1_565 S
C1053 H1017 0.929 . S
C1053 C1052 1.362 . S
C1053 C1054 1.376 . S
C1054 H1018 0.931 . S
C1054 C1053 1.376 . S
C1054 C1055 1.396 . S
C1055 C1037 1.472 . S
C1055 C1054 1.396 . S
C1055 C1056 1.368 . S
C1056 H1019 0.880 1_565 S
C1056 C1055 1.368 . S
C1056 C1057 1.474 1_565 S
C1057 H1021 0.932 . S
C1057 C1052 1.388 1_545 S
C1057 C1056 1.474 1_545 S
H1058 C1085 0.929 . S
N1059 C1084 1.433 . S
N1059 C1090 1.435 . S
N1059 C1096 1.423 . S
H1060 C1086 0.930 . S
H1061 C1089 0.931 . S
H1062 C1088 0.929 . S
H1063 C1091 0.930 . S
H1064 C1092 0.932 . S
H1065 C1095 0.929 . S
H1066 C1094 0.931 . S
H1067 C1097 0.929 . S
H1068 C1101 0.932 1_455 S
H1069 C1098 0.931 . S
H1070 C1100 0.929 . S
H1071 C1103 0.929 . S
H1072 C1104 0.930 . S
H1073 C1106 0.929 . S
H1074 C1107 0.931 . S
H1075 C1109 0.930 . S
H1076 C1110 0.932 . S
H1077 C1112 0.931 . S
H1078 C1113 0.929 . S
H1079 C1115 0.929 . S
H1080 C1116 0.931 . S
H1081 C1118 0.929 . S
N1082 C1102 1.433 . S
N1082 C1108 1.435 . S
N1082 C1114 1.423 . S
H1083 C1119 0.932 1_455 S
C1084 N1059 1.433 . S
C1084 C1085 1.363 . S
C1084 C1089 1.370 1_655 S
C1085 H1058 0.929 . S
C1085 C1084 1.363 . S
C1085 C1086 1.385 . S
C1086 H1060 0.930 . S
C1086 C1085 1.385 . S
C1086 C1087 1.357 1_655 S
C1087 C1086 1.357 1_455 S
C1087 C1088 1.406 . S
C1088 H1062 0.929 . S
C1088 C1087 1.406 . S
C1088 C1089 1.391 . S
C1089 H1061 0.931 . S
C1089 C1084 1.370 1_455 S
C1089 C1088 1.391 . S
C1090 N1059 1.435 . S
C1090 C1091 1.358 1_655 S
C1090 C1095 1.371 . S
C1091 H1063 0.930 . S
C1091 C1090 1.358 1_455 S
C1091 C1092 1.405 . S
C1092 H1064 0.932 . S
C1092 C1091 1.405 . S
C1092 C1093 1.383 1_455 S
C1093 C1092 1.383 1_655 S
C1093 C1094 1.393 . S
C1094 H1066 0.931 . S
C1094 C1093 1.393 . S
C1094 C1095 1.382 . S
C1095 H1065 0.929 . S
C1095 C1090 1.371 . S
C1095 C1094 1.382 . S
C1096 N1059 1.423 . S
C1096 C1097 1.362 . S
C1096 C1101 1.388 . S
C1097 H1067 0.929 . S
C1097 C1096 1.362 . S
C1097 C1098 1.376 . S
C1098 H1069 0.931 . S
C1098 C1097 1.376 . S
C1098 C1099 1.396 . S
C1099 C1098 1.396 . S
C1099 C1100 1.348 . S
C1099 C1117 1.472 . S
C1100 H1070 0.929 . S
C1100 C1099 1.348 . S
C1100 C1101 1.443 . S
C1101 H1068 0.932 1_655 S
C1101 C1096 1.388 . S
C1101 C1100 1.443 . S
C1102 N1082 1.433 . S
C1102 C1103 1.363 . S
C1102 C1107 1.370 1_655 S
C1103 H1071 0.929 . S
C1103 C1102 1.363 . S
C1103 C1104 1.385 . S
C1104 H1072 0.930 . S
C1104 C1103 1.385 . S
C1104 C1105 1.357 1_655 S
C1105 C1104 1.357 1_455 S
C1105 C1106 1.406 . S
C1106 H1073 0.929 . S
C1106 C1105 1.406 . S
C1106 C1107 1.391 . S
C1107 H1074 0.931 . S
C1107 C1102 1.370 1_455 S
C1107 C1106 1.391 . S
C1108 N1082 1.435 . S
C1108 C1109 1.358 1_655 S
C1108 C1113 1.371 . S
C1109 H1075 0.930 . S
C1109 C1108 1.358 1_455 S
C1109 C1110 1.405 . S
C1110 H1076 0.932 . S
C1110 C1109 1.405 . S
C1110 C1111 1.383 1_455 S
C1111 C1110 1.383 1_655 S
C1111 C1112 1.393 . S
C1112 H1077 0.931 . S
C1112 C1111 1.393 . S
C1112 C1113 1.382 . S
C1113 H1078 0.929 . S
C1113 C1108 1.371 . S
C1113 C1112 1.382 . S
C1114 N1082 1.423 . S
C1114 C1115 1.362 . S
C1114 C1119 1.388 . S
C1115 H1079 0.929 . S
C1115 C1114 1.362 . S
C1115 C1116 1.376 . S
C1116 H1080 0.931 . S
C1116 C1115 1.376 . S
C1116 C1117 1.396 . S
C1117 C1099 1.472 . S
C1117 C1116 1.396 . S
C1117 C1118 1.348 . S
C1118 H1081 0.929 . S
C1118 C1117 1.348 . S
C1118 C1119 1.443 . S
C1119 H1083 0.932 1_655 S
C1119 C1114 1.388 . S
C1119 C1118 1.443 . S
H1120 C1147 0.929 . S
N1121 C1146 1.433 . S
N1121 C1152 1.435 . S
N1121 C1158 1.423 . S
H1122 C1148 0.930 . S
H1123 C1151 0.931 . S
H1124 C1150 0.929 . S
H1125 C1153 0.930 . S
H1126 C1154 0.932 . S
H1127 C1157 0.929 . S
H1128 C1156 0.931 . S
H1129 C1159 0.929 . S
H1130 C1163 0.932 . S
H1131 C1160 0.931 . S
H1132 C1162 0.929 . S
H1133 C1165 0.929 . S
H1134 C1166 0.930 . S
H1135 C1168 0.929 . S
H1136 C1169 0.931 . S
H1137 C1171 0.930 . S
H1138 C1172 0.932 . S
H1139 C1174 0.931 . S
H1140 C1175 0.929 . S
H1141 C1177 0.929 . S
H1142 C1178 0.931 . S
H1143 C1180 0.929 . S
N1144 C1164 1.433 . S
N1144 C1170 1.435 . S
N1144 C1176 1.423 . S
H1145 C1181 0.932 . S
C1146 N1121 1.433 . S
C1146 C1147 1.363 . S
C1146 C1151 1.370 . S
C1147 H1120 0.929 . S
C1147 C1146 1.363 . S
C1147 C1148 1.385 . S
C1148 H1122 0.930 . S
C1148 C1147 1.385 . S
C1148 C1149 1.357 . S
C1149 C1148 1.357 . S
C1149 C1150 1.406 . S
C1150 H1124 0.929 . S
C1150 C1149 1.406 . S
C1150 C1151 1.391 . S
C1151 H1123 0.931 . S
C1151 C1146 1.370 . S
C1151 C1150 1.391 . S
C1152 N1121 1.435 . S
C1152 C1153 1.358 . S
C1152 C1157 1.371 . S
C1153 H1125 0.930 . S
C1153 C1152 1.358 . S
C1153 C1154 1.405 . S
C1154 H1126 0.932 . S
C1154 C1153 1.405 . S
C1154 C1155 1.383 . S
C1155 C1154 1.383 . S
C1155 C1156 1.393 . S
C1156 H1128 0.931 . S
C1156 C1155 1.393 . S
C1156 C1157 1.382 . S
C1157 H1127 0.929 . S
C1157 C1152 1.371 . S
C1157 C1156 1.382 . S
C1158 N1121 1.423 . S
C1158 C1159 1.362 . S
C1158 C1163 1.388 . S
C1159 H1129 0.929 . S
C1159 C1158 1.362 . S
C1159 C1160 1.376 . S
C1160 H1131 0.931 . S
C1160 C1159 1.376 . S
C1160 C1161 1.396 . S
C1161 C1160 1.396 . S
C1161 C1162 1.348 . S
C1161 C1179 1.472 . S
C1162 H1132 0.929 . S
C1162 C1161 1.348 . S
C1162 C1163 1.443 . S
C1163 H1130 0.932 . S
C1163 C1158 1.388 . S
C1163 C1162 1.443 . S
C1164 N1144 1.433 . S
C1164 C1165 1.363 . S
C1164 C1169 1.370 . S
C1165 H1133 0.929 . S
C1165 C1164 1.363 . S
C1165 C1166 1.385 . S
C1166 H1134 0.930 . S
C1166 C1165 1.385 . S
C1166 C1167 1.357 . S
C1167 C1166 1.357 . S
C1167 C1168 1.406 . S
C1168 H1135 0.929 . S
C1168 C1167 1.406 . S
C1168 C1169 1.391 . S
C1169 H1136 0.931 . S
C1169 C1164 1.370 . S
C1169 C1168 1.391 . S
C1170 N1144 1.435 . S
C1170 C1171 1.358 . S
C1170 C1175 1.371 . S
C1171 H1137 0.930 . S
C1171 C1170 1.358 . S
C1171 C1172 1.405 . S
C1172 H1138 0.932 . S
C1172 C1171 1.405 . S
C1172 C1173 1.383 . S
C1173 C1172 1.383 . S
C1173 C1174 1.393 . S
C1174 H1139 0.931 . S
C1174 C1173 1.393 . S
C1174 C1175 1.382 . S
C1175 H1140 0.929 . S
C1175 C1170 1.371 . S
C1175 C1174 1.382 . S
C1176 N1144 1.423 . S
C1176 C1177 1.362 . S
C1176 C1181 1.388 . S
C1177 H1141 0.929 . S
C1177 C1176 1.362 . S
C1177 C1178 1.376 . S
C1178 H1142 0.931 . S
C1178 C1177 1.376 . S
C1178 C1179 1.396 . S
C1179 C1161 1.472 . S
C1179 C1178 1.396 . S
C1179 C1180 1.348 . S
C1180 H1143 0.929 . S
C1180 C1179 1.348 . S
C1180 C1181 1.443 . S
C1181 H1145 0.932 . S
C1181 C1176 1.388 . S
C1181 C1180 1.443 . S
H1182 C1209 0.929 . S
N1183 C1208 1.433 . S
N1183 C1214 1.435 . S
N1183 C1220 1.423 . S
H1184 C1210 0.930 . S
H1185 C1213 0.931 . S
H1186 C1212 0.929 . S
H1187 C1215 0.930 . S
H1188 C1216 0.932 . S
H1189 C1219 0.929 . S
H1190 C1218 0.931 . S
H1191 C1221 0.929 . S
H1192 C1225 0.932 . S
H1193 C1222 0.931 . S
H1194 C1224 0.929 . S
H1195 C1227 0.929 . S
H1196 C1228 0.930 . S
H1197 C1230 0.929 . S
H1198 C1231 0.931 . S
H1199 C1233 0.930 . S
H1200 C1234 0.932 . S
H1201 C1236 0.931 . S
H1202 C1237 0.929 . S
H1203 C1239 0.929 . S
H1204 C1240 0.931 . S
H1205 C1242 0.929 . S
N1206 C1226 1.433 . S
N1206 C1232 1.435 . S
N1206 C1238 1.423 . S
H1207 C1243 0.932 . S
C1208 N1183 1.433 . S
C1208 C1209 1.363 . S
C1208 C1213 1.370 . S
C1209 H1182 0.929 . S
C1209 C1208 1.363 . S
C1209 C1210 1.385 . S
C1210 H1184 0.930 . S
C1210 C1209 1.385 . S
C1210 C1211 1.357 . S
C1211 C1210 1.357 . S
C1211 C1212 1.406 . S
C1212 H1186 0.929 . S
C1212 C1211 1.406 . S
C1212 C1213 1.391 . S
C1213 H1185 0.931 . S
C1213 C1208 1.370 . S
C1213 C1212 1.391 . S
C1214 N1183 1.435 . S
C1214 C1215 1.358 . S
C1214 C1219 1.371 . S
C1215 H1187 0.930 . S
C1215 C1214 1.358 . S
C1215 C1216 1.405 . S
C1216 H1188 0.932 . S
C1216 C1215 1.405 . S
C1216 C1217 1.383 . S
C1217 C1216 1.383 . S
C1217 C1218 1.393 . S
C1218 H1190 0.931 . S
C1218 C1217 1.393 . S
C1218 C1219 1.382 . S
C1219 H1189 0.929 . S
C1219 C1214 1.371 . S
C1219 C1218 1.382 . S
C1220 N1183 1.423 . S
C1220 C1221 1.362 . S
C1220 C1225 1.388 . S
C1221 H1191 0.929 . S
C1221 C1220 1.362 . S
C1221 C1222 1.376 . S
C1222 H1193 0.931 . S
C1222 C1221 1.376 . S
C1222 C1223 1.396 . S
C1223 C1222 1.396 . S
C1223 C1224 1.348 . S
C1223 C1241 1.472 . S
C1224 H1194 0.929 . S
C1224 C1223 1.348 . S
C1224 C1225 1.443 . S
C1225 H1192 0.932 . S
C1225 C1220 1.388 . S
C1225 C1224 1.443 . S
C1226 N1206 1.433 . S
C1226 C1227 1.363 . S
C1226 C1231 1.370 . S
C1227 H1195 0.929 . S
C1227 C1226 1.363 . S
C1227 C1228 1.385 . S
C1228 H1196 0.930 . S
C1228 C1227 1.385 . S
C1228 C1229 1.357 . S
C1229 C1228 1.357 . S
C1229 C1230 1.406 . S
C1230 H1197 0.929 . S
C1230 C1229 1.406 . S
C1230 C1231 1.391 . S
C1231 H1198 0.931 . S
C1231 C1226 1.370 . S
C1231 C1230 1.391 . S
C1232 N1206 1.435 . S
C1232 C1233 1.358 . S
C1232 C1237 1.371 . S
C1233 H1199 0.930 . S
C1233 C1232 1.358 . S
C1233 C1234 1.405 . S
C1234 H1200 0.932 . S
C1234 C1233 1.405 . S
C1234 C1235 1.383 . S
C1235 C1234 1.383 . S
C1235 C1236 1.393 . S
C1236 H1201 0.931 . S
C1236 C1235 1.393 . S
C1236 C1237 1.382 . S
C1237 H1202 0.929 . S
C1237 C1232 1.371 . S
C1237 C1236 1.382 . S
C1238 N1206 1.423 . S
C1238 C1239 1.362 . S
C1238 C1243 1.388 . S
C1239 H1203 0.929 . S
C1239 C1238 1.362 . S
C1239 C1240 1.376 . S
C1240 H1204 0.931 . S
C1240 C1239 1.376 . S
C1240 C1241 1.396 . S
C1241 C1223 1.472 . S
C1241 C1240 1.396 . S
C1241 C1242 1.348 . S
C1242 H1205 0.929 . S
C1242 C1241 1.348 . S
C1242 C1243 1.443 . S
C1243 H1207 0.932 . S
C1243 C1238 1.388 . S
C1243 C1242 1.443 . S
H1244 C1271 0.929 . S
N1245 C1270 1.433 . S
N1245 C1276 1.435 . S
N1245 C1282 1.423 . S
H1246 C1272 0.930 . S
H1247 C1275 0.931 . S
H1248 C1274 0.929 . S
H1249 C1277 0.930 . S
H1250 C1278 0.932 . S
H1251 C1281 0.929 . S
H1252 C1280 0.931 . S
H1253 C1283 0.929 . S
H1254 C1287 0.932 . S
H1255 C1284 0.931 . S
H1256 C1286 0.929 . S
H1257 C1289 0.929 . S
H1258 C1290 0.930 . S
H1259 C1292 0.929 . S
H1260 C1293 0.931 . S
H1261 C1295 0.930 . S
H1262 C1296 0.932 . S
H1263 C1298 0.931 . S
H1264 C1299 0.929 . S
H1265 C1301 0.929 . S
H1266 C1302 0.931 . S
H1267 C1304 0.929 . S
N1268 C1288 1.433 . S
N1268 C1294 1.435 . S
N1268 C1300 1.423 . S
H1269 C1305 0.932 . S
C1270 N1245 1.433 . S
C1270 C1271 1.363 . S
C1270 C1275 1.370 . S
C1271 H1244 0.929 . S
C1271 C1270 1.363 . S
C1271 C1272 1.385 . S
C1272 H1246 0.930 . S
C1272 C1271 1.385 . S
C1272 C1273 1.357 . S
C1273 C1272 1.357 . S
C1273 C1274 1.406 . S
C1274 H1248 0.929 . S
C1274 C1273 1.406 . S
C1274 C1275 1.391 . S
C1275 H1247 0.931 . S
C1275 C1270 1.370 . S
C1275 C1274 1.391 . S
C1276 N1245 1.435 . S
C1276 C1277 1.358 . S
C1276 C1281 1.371 . S
C1277 H1249 0.930 . S
C1277 C1276 1.358 . S
C1277 C1278 1.405 . S
C1278 H1250 0.932 . S
C1278 C1277 1.405 . S
C1278 C1279 1.383 . S
C1279 C1278 1.383 . S
C1279 C1280 1.393 . S
C1280 H1252 0.931 . S
C1280 C1279 1.393 . S
C1280 C1281 1.382 . S
C1281 H1251 0.929 . S
C1281 C1276 1.371 . S
C1281 C1280 1.382 . S
C1282 N1245 1.423 . S
C1282 C1283 1.362 . S
C1282 C1287 1.388 . S
C1283 H1253 0.929 . S
C1283 C1282 1.362 . S
C1283 C1284 1.376 . S
C1284 H1255 0.931 . S
C1284 C1283 1.376 . S
C1284 C1285 1.396 . S
C1285 C1284 1.396 . S
C1285 C1286 1.348 . S
C1285 C1303 1.472 . S
C1286 H1256 0.929 . S
C1286 C1285 1.348 . S
C1286 C1287 1.443 . S
C1287 H1254 0.932 . S
C1287 C1282 1.388 . S
C1287 C1286 1.443 . S
C1288 N1268 1.433 . S
C1288 C1289 1.363 . S
C1288 C1293 1.370 . S
C1289 H1257 0.929 . S
C1289 C1288 1.363 . S
C1289 C1290 1.385 . S
C1290 H1258 0.930 . S
C1290 C1289 1.385 . S
C1290 C1291 1.357 . S
C1291 C1290 1.357 . S
C1291 C1292 1.406 . S
C1292 H1259 0.929 . S
C1292 C1291 1.406 . S
C1292 C1293 1.391 . S
C1293 H1260 0.931 . S
C1293 C1288 1.370 . S
C1293 C1292 1.391 . S
C1294 N1268 1.435 . S
C1294 C1295 1.358 . S
C1294 C1299 1.371 . S
C1295 H1261 0.930 . S
C1295 C1294 1.358 . S
C1295 C1296 1.405 . S
C1296 H1262 0.932 . S
C1296 C1295 1.405 . S
C1296 C1297 1.383 . S
C1297 C1296 1.383 . S
C1297 C1298 1.393 . S
C1298 H1263 0.931 . S
C1298 C1297 1.393 . S
C1298 C1299 1.382 . S
C1299 H1264 0.929 . S
C1299 C1294 1.371 . S
C1299 C1298 1.382 . S
C1300 N1268 1.423 . S
C1300 C1301 1.362 . S
C1300 C1305 1.388 . S
C1301 H1265 0.929 . S
C1301 C1300 1.362 . S
C1301 C1302 1.376 . S
C1302 H1266 0.931 . S
C1302 C1301 1.376 . S
C1302 C1303 1.396 . S
C1303 C1285 1.472 . S
C1303 C1302 1.396 . S
C1303 C1304 1.348 . S
C1304 H1267 0.929 . S
C1304 C1303 1.348 . S
C1304 C1305 1.443 . S
C1305 H1269 0.932 . S
C1305 C1300 1.388 . S
C1305 C1304 1.443 . S
H1306 C1333 0.929 . S
N1307 C1332 1.433 . S
N1307 C1338 1.435 . S
N1307 C1344 1.423 . S
H1308 C1334 0.930 . S
H1309 C1337 0.931 . S
H1310 C1336 0.929 . S
H1311 C1339 0.930 . S
H1312 C1340 0.932 . S
H1313 C1343 0.929 . S
H1314 C1342 0.931 . S
H1315 C1345 0.929 . S
H1316 C1349 0.932 . S
H1317 C1346 0.931 . S
H1318 C1348 0.929 . S
H1319 C1351 0.929 . S
H1320 C1352 0.930 . S
H1321 C1354 0.929 . S
H1322 C1355 0.931 . S
H1323 C1357 0.930 . S
H1324 C1358 0.932 . S
H1325 C1360 0.931 . S
H1326 C1361 0.929 . S
H1327 C1363 0.929 . S
H1328 C1364 0.931 . S
H1329 C1366 0.929 . S
N1330 C1350 1.433 . S
N1330 C1356 1.435 . S
N1330 C1362 1.423 . S
H1331 C1367 0.932 . S
C1332 N1307 1.433 . S
C1332 C1333 1.363 . S
C1332 C1337 1.370 . S
C1333 H1306 0.929 . S
C1333 C1332 1.363 . S
C1333 C1334 1.385 . S
C1334 H1308 0.930 . S
C1334 C1333 1.385 . S
C1334 C1335 1.357 . S
C1335 C1334 1.357 . S
C1335 C1336 1.406 . S
C1336 H1310 0.929 . S
C1336 C1335 1.406 . S
C1336 C1337 1.391 . S
C1337 H1309 0.931 . S
C1337 C1332 1.370 . S
C1337 C1336 1.391 . S
C1338 N1307 1.435 . S
C1338 C1339 1.358 . S
C1338 C1343 1.371 . S
C1339 H1311 0.930 . S
C1339 C1338 1.358 . S
C1339 C1340 1.405 . S
C1340 H1312 0.932 . S
C1340 C1339 1.405 . S
C1340 C1341 1.383 . S
C1341 C1340 1.383 . S
C1341 C1342 1.393 . S
C1342 H1314 0.931 . S
C1342 C1341 1.393 . S
C1342 C1343 1.382 . S
C1343 H1313 0.929 . S
C1343 C1338 1.371 . S
C1343 C1342 1.382 . S
C1344 N1307 1.423 . S
C1344 C1345 1.362 . S
C1344 C1349 1.388 . S
C1345 H1315 0.929 . S
C1345 C1344 1.362 . S
C1345 C1346 1.376 . S
C1346 H1317 0.931 . S
C1346 C1345 1.376 . S
C1346 C1347 1.396 . S
C1347 C1346 1.396 . S
C1347 C1348 1.348 . S
C1347 C1365 1.472 . S
C1348 H1318 0.929 . S
C1348 C1347 1.348 . S
C1348 C1349 1.443 . S
C1349 H1316 0.932 . S
C1349 C1344 1.388 . S
C1349 C1348 1.443 . S
C1350 N1330 1.433 . S
C1350 C1351 1.363 . S
C1350 C1355 1.370 . S
C1351 H1319 0.929 . S
C1351 C1350 1.363 . S
C1351 C1352 1.385 . S
C1352 H1320 0.930 . S
C1352 C1351 1.385 . S
C1352 C1353 1.357 . S
C1353 C1352 1.357 . S
C1353 C1354 1.406 . S
C1354 H1321 0.929 . S
C1354 C1353 1.406 . S
C1354 C1355 1.391 . S
C1355 H1322 0.931 . S
C1355 C1350 1.370 . S
C1355 C1354 1.391 . S
C1356 N1330 1.435 . S
C1356 C1357 1.358 . S
C1356 C1361 1.371 . S
C1357 H1323 0.930 . S
C1357 C1356 1.358 . S
C1357 C1358 1.405 . S
C1358 H1324 0.932 . S
C1358 C1357 1.405 . S
C1358 C1359 1.383 . S
C1359 C1358 1.383 . S
C1359 C1360 1.393 . S
C1360 H1325 0.931 . S
C1360 C1359 1.393 . S
C1360 C1361 1.382 . S
C1361 H1326 0.929 . S
C1361 C1356 1.371 . S
C1361 C1360 1.382 . S
C1362 N1330 1.423 . S
C1362 C1363 1.362 . S
C1362 C1367 1.388 . S
C1363 H1327 0.929 . S
C1363 C1362 1.362 . S
C1363 C1364 1.376 . S
C1364 H1328 0.931 . S
C1364 C1363 1.376 . S
C1364 C1365 1.396 . S
C1365 C1347 1.472 . S
C1365 C1364 1.396 . S
C1365 C1366 1.348 . S
C1366 H1329 0.929 . S
C1366 C1365 1.348 . S
C1366 C1367 1.443 . S
C1367 H1331 0.932 . S
C1367 C1362 1.388 . S
C1367 C1366 1.443 . S
C1368 C1369 1.387 1_455 S
C1368 H1372 0.950 . S
C1368 C1377 1.390 . S
C1369 C1368 1.387 1_655 S
C1369 C1371 1.387 . S
H1370 C1377 0.950 . S
C1371 C1369 1.387 . S
C1371 C1373 1.390 . S
C1371 H1375 0.950 . S
H1372 C1368 0.950 . S
C1373 C1371 1.390 . S
C1373 C1374 1.387 . S
C1373 H1376 0.950 . S
C1374 C1373 1.387 . S
C1374 C1377 1.387 1_655 S
H1375 C1371 0.950 . S
H1376 C1373 0.950 . S
C1377 C1368 1.390 . S
C1377 H1370 0.950 . S
C1377 C1374 1.387 1_455 S
C1378 C1379 1.387 . S
C1378 H1382 0.950 . S
C1378 C1387 1.390 . S
C1379 C1378 1.387 . S
C1379 C1381 1.387 . S
H1380 C1387 0.950 . S
C1381 C1379 1.387 . S
C1381 C1383 1.390 . S
C1381 H1385 0.950 . S
H1382 C1378 0.950 . S
C1383 C1381 1.390 . S
C1383 C1384 1.387 . S
C1383 H1386 0.950 . S
C1384 C1383 1.387 . S
C1384 C1387 1.387 . S
H1385 C1381 0.950 . S
H1386 C1383 0.950 . S
C1387 C1378 1.390 . S
C1387 H1380 0.950 . S
C1387 C1384 1.387 . S
C1388 C1389 1.387 1_565 S
C1388 H1392 0.950 . S
C1388 C1397 1.390 . S
C1389 C1388 1.387 1_545 S
C1389 C1391 1.387 . S
H1390 C1397 0.950 . S
C1391 C1389 1.387 . S
C1391 C1393 1.390 . S
C1391 H1395 0.950 . S
H1392 C1388 0.950 . S
C1393 C1391 1.390 . S
C1393 C1394 1.387 . S
C1393 H1396 0.950 . S
C1394 C1393 1.387 . S
C1394 C1397 1.387 1_545 S
H1395 C1391 0.950 . S
H1396 C1393 0.950 . S
C1397 C1388 1.390 . S
C1397 H1390 0.950 . S
C1397 C1394 1.387 1_565 S
C1398 C1399 1.357 1_545 S
C1398 H1402 0.950 . S
C1398 C1407 1.390 . S
C1399 C1398 1.357 1_565 S
C1399 C1401 1.441 . S
H1400 C1407 0.950 . S
C1401 C1399 1.441 . S
C1401 C1403 1.390 . S
C1401 H1405 0.950 . S
H1402 C1398 0.950 . S
C1403 C1401 1.390 . S
C1403 C1404 1.387 . S
C1403 H1406 0.950 . S
C1404 C1403 1.387 . S
C1404 C1407 1.387 1_565 S
H1405 C1401 0.950 . S
H1406 C1403 0.950 . S
C1407 C1398 1.390 . S
C1407 H1400 0.950 . S
C1407 C1404 1.387 1_545 S
C1408 C1409 1.387 1_655 S
C1408 H1412 0.950 . S
C1408 C1417 1.390 . S
C1409 C1408 1.387 1_455 S
C1409 C1411 1.387 . S
H1410 C1417 0.950 . S
C1411 C1409 1.387 . S
C1411 C1413 1.390 . S
C1411 H1415 0.950 . S
H1412 C1408 0.950 . S
C1413 C1411 1.390 . S
C1413 C1414 1.387 . S
C1413 H1416 0.950 . S
C1414 C1413 1.387 . S
C1414 C1417 1.387 1_455 S
H1415 C1411 0.950 . S
H1416 C1413 0.950 . S
C1417 C1408 1.390 . S
C1417 H1410 0.950 . S
C1417 C1414 1.387 1_655 S
C1418 C1419 1.387 . S
C1418 H1422 0.950 . S
C1418 C1427 1.390 . S
C1419 C1418 1.387 . S
C1419 C1421 1.387 . S
H1420 C1427 0.950 . S
C1421 C1419 1.387 . S
C1421 C1423 1.390 . S
C1421 H1425 0.950 . S
H1422 C1418 0.950 . S
C1423 C1421 1.390 . S
C1423 C1424 1.387 . S
C1423 H1426 0.950 . S
C1424 C1423 1.387 . S
C1424 C1427 1.387 . S
H1425 C1421 0.950 . S
H1426 C1423 0.950 . S
C1427 C1418 1.390 . S
C1427 H1420 0.950 . S
C1427 C1424 1.387 . S
C1428 C1429 1.387 . S
C1428 H1432 0.950 . S
C1428 C1437 1.390 . S
C1429 C1428 1.387 . S
C1429 C1431 1.387 1_455 S
H1430 C1437 0.950 . S
C1431 C1429 1.387 1_655 S
C1431 C1433 1.390 . S
C1431 H1435 0.950 . S
H1432 C1428 0.950 . S
C1433 C1431 1.390 . S
C1433 C1434 1.387 1_655 S
C1433 H1436 0.950 . S
C1434 C1433 1.387 1_455 S
C1434 C1437 1.387 . S
H1435 C1431 0.950 . S
H1436 C1433 0.950 . S
C1437 C1428 1.390 . S
C1437 H1430 0.950 . S
C1437 C1434 1.387 . S
C1438 C1439 1.387 . S
C1438 H1442 0.950 . S
C1438 C1447 1.390 . S
C1439 C1438 1.387 . S
C1439 C1441 1.387 . S
H1440 C1447 0.950 . S
C1441 C1439 1.387 . S
C1441 C1443 1.390 . S
C1441 H1445 0.950 . S
H1442 C1438 0.950 . S
C1443 C1441 1.390 . S
C1443 C1444 1.387 . S
C1443 H1446 0.950 . S
C1444 C1443 1.387 . S
C1444 C1447 1.387 . S
H1445 C1441 0.950 . S
H1446 C1443 0.950 . S
C1447 C1438 1.390 . S
C1447 H1440 0.950 . S
C1447 C1444 1.387 . S
C1448 C1449 1.387 1_545 S
C1448 H1452 0.950 . S
C1448 C1457 1.390 . S
C1449 C1448 1.387 1_565 S
C1449 C1451 1.387 . S
H1450 C1457 0.950 . S
C1451 C1449 1.387 . S
C1451 C1453 1.390 . S
C1451 H1455 0.950 . S
H1452 C1448 0.950 . S
C1453 C1451 1.390 . S
C1453 C1454 1.387 . S
C1453 H1456 0.950 . S
C1454 C1453 1.387 . S
C1454 C1457 1.387 1_565 S
H1455 C1451 0.950 . S
H1456 C1453 0.950 . S
C1457 C1448 1.390 . S
C1457 H1450 0.950 . S
C1457 C1454 1.387 1_545 S
C1458 C1459 1.387 . S
C1458 H1462 0.950 . S
C1458 C1467 1.390 . S
C1459 C1458 1.387 . S
C1459 C1461 1.387 1_545 S
H1460 C1467 0.950 . S
C1461 C1459 1.387 1_565 S
C1461 C1463 1.390 . S
C1461 H1465 0.950 . S
H1462 C1458 0.950 . S
C1463 C1461 1.390 . S
C1463 C1464 1.387 1_565 S
C1463 H1466 0.950 . S
C1464 C1463 1.387 1_545 S
C1464 C1467 1.387 . S
H1465 C1461 0.950 . S
H1466 C1463 0.950 . S
C1467 C1458 1.390 . S
C1467 H1460 0.950 . S
C1467 C1464 1.387 . S
C1468 C1469 1.387 1_455 S
C1468 H1472 0.950 . S
C1468 C1477 1.390 . S
C1469 C1468 1.387 1_655 S
C1469 C1471 1.387 . S
H1470 C1477 0.950 . S
C1471 C1469 1.387 . S
C1471 C1473 1.390 . S
C1471 H1475 0.950 . S
H1472 C1468 0.950 . S
C1473 C1471 1.390 . S
C1473 C1474 1.387 . S
C1473 H1476 0.950 . S
C1474 C1473 1.387 . S
C1474 C1477 1.387 1_655 S
H1475 C1471 0.950 . S
H1476 C1473 0.950 . S
C1477 C1468 1.390 . S
C1477 H1470 0.950 . S
C1477 C1474 1.387 1_455 S
C1478 C1479 1.387 . S
C1478 H1482 0.950 . S
C1478 C1487 1.390 . S
C1479 C1478 1.387 . S
C1479 C1481 1.387 . S
H1480 C1487 0.950 . S
C1481 C1479 1.387 . S
C1481 C1483 1.390 . S
C1481 H1485 0.950 . S
H1482 C1478 0.950 . S
C1483 C1481 1.390 . S
C1483 C1484 1.387 . S
C1483 H1486 0.950 . S
C1484 C1483 1.387 . S
C1484 C1487 1.387 . S
H1485 C1481 0.950 . S
H1486 C1483 0.950 . S
C1487 C1478 1.390 . S
C1487 H1480 0.950 . S
C1487 C1484 1.387 . S
C1488 C1489 1.387 . S
C1488 H1492 0.950 . S
C1488 C1497 1.390 . S
C1489 C1488 1.387 . S
C1489 C1491 1.387 . S
H1490 C1497 0.950 . S
C1491 C1489 1.387 . S
C1491 C1493 1.390 . S
C1491 H1495 0.950 . S
H1492 C1488 0.950 . S
C1493 C1491 1.390 . S
C1493 C1494 1.387 . S
C1493 H1496 0.950 . S
C1494 C1493 1.387 . S
C1494 C1497 1.387 . S
H1495 C1491 0.950 . S
H1496 C1493 0.950 . S
C1497 C1488 1.390 . S
C1497 H1490 0.950 . S
C1497 C1494 1.387 . S
C1498 C1499 1.387 . S
C1498 H1502 0.950 . S
C1498 C1507 1.390 . S
C1499 C1498 1.387 . S
C1499 C1501 1.387 . S
H1500 C1507 0.950 . S
C1501 C1499 1.387 . S
C1501 C1503 1.390 . S
C1501 H1505 0.950 . S
H1502 C1498 0.950 . S
C1503 C1501 1.390 . S
C1503 C1504 1.387 . S
C1503 H1506 0.950 . S
C1504 C1503 1.387 . S
C1504 C1507 1.387 . S
H1505 C1501 0.950 . S
H1506 C1503 0.950 . S
C1507 C1498 1.390 . S
C1507 H1500 0.950 . S
C1507 C1504 1.387 . S
C1508 C1509 1.387 . S
C1508 H1512 0.950 . S
C1508 C1517 1.390 . S
C1509 C1508 1.387 . S
C1509 C1511 1.387 . S
H1510 C1517 0.950 . S
C1511 C1509 1.387 . S
C1511 C1513 1.390 . S
C1511 H1515 0.950 . S
H1512 C1508 0.950 . S
C1513 C1511 1.390 . S
C1513 C1514 1.387 . S
C1513 H1516 0.950 . S
C1514 C1513 1.387 . S
C1514 C1517 1.387 . S
H1515 C1511 0.950 . S
H1516 C1513 0.950 . S
C1517 C1508 1.390 . S
C1517 H1510 0.950 . S
C1517 C1514 1.387 . S
C1518 C1519 1.387 . S
C1518 H1522 0.950 . S
C1518 C1527 1.390 . S
C1519 C1518 1.387 . S
C1519 C1521 1.387 . S
H1520 C1527 0.950 . S
C1521 C1519 1.387 . S
C1521 C1523 1.390 . S
C1521 H1525 0.950 . S
H1522 C1518 0.950 . S
C1523 C1521 1.390 . S
C1523 C1524 1.387 . S
C1523 H1526 0.950 . S
C1524 C1523 1.387 . S
C1524 C1527 1.387 . S
H1525 C1521 0.950 . S
H1526 C1523 0.950 . S
C1527 C1518 1.390 . S
C1527 H1520 0.950 . S
C1527 C1524 1.387 . S
C1528 C1529 1.387 . S
C1528 H1532 0.950 . S
C1528 C1537 1.390 . S
C1529 C1528 1.387 . S
C1529 C1531 1.387 . S
H1530 C1537 0.950 . S
C1531 C1529 1.387 . S
C1531 C1533 1.390 . S
C1531 H1535 0.950 . S
H1532 C1528 0.950 . S
C1533 C1531 1.390 . S
C1533 C1534 1.387 . S
C1533 H1536 0.950 . S
C1534 C1533 1.387 . S
C1534 C1537 1.387 . S
H1535 C1531 0.950 . S
H1536 C1533 0.950 . S
C1537 C1528 1.390 . S
C1537 H1530 0.950 . S
C1537 C1534 1.387 . S
C1538 C1539 1.387 . S
C1538 H1542 0.950 . S
C1538 C1547 1.390 . S
C1539 C1538 1.387 . S
C1539 C1541 1.387 . S
H1540 C1547 0.950 . S
C1541 C1539 1.387 . S
C1541 C1543 1.390 . S
C1541 H1545 0.950 . S
H1542 C1538 0.950 . S
C1543 C1541 1.390 . S
C1543 C1544 1.387 . S
C1543 H1546 0.950 . S
C1544 C1543 1.387 . S
C1544 C1547 1.387 . S
H1545 C1541 0.950 . S
H1546 C1543 0.950 . S
C1547 C1538 1.390 . S
C1547 H1540 0.950 . S
C1547 C1544 1.387 . S
C1548 C1549 1.387 . S
C1548 H1552 0.950 . S
C1548 C1557 1.390 . S
C1549 C1548 1.387 . S
C1549 C1551 1.387 . S
H1550 C1557 0.950 . S
C1551 C1549 1.387 . S
C1551 C1553 1.390 . S
C1551 H1555 0.950 . S
H1552 C1548 0.950 . S
C1553 C1551 1.390 . S
C1553 C1554 1.387 . S
C1553 H1556 0.950 . S
C1554 C1553 1.387 . S
C1554 C1557 1.387 . S
H1555 C1551 0.950 . S
H1556 C1553 0.950 . S
C1557 C1548 1.390 . S
C1557 H1550 0.950 . S
C1557 C1554 1.387 . S
C1558 C1559 1.387 . S
C1558 H1562 0.950 . S
C1558 C1567 1.390 . S
C1559 C1558 1.387 . S
C1559 C1561 1.387 . S
H1560 C1567 0.950 . S
C1561 C1559 1.387 . S
C1561 C1563 1.390 . S
C1561 H1565 0.950 . S
H1562 C1558 0.950 . S
C1563 C1561 1.390 . S
C1563 C1564 1.387 . S
C1563 H1566 0.950 . S
C1564 C1563 1.387 . S
C1564 C1567 1.387 . S
H1565 C1561 0.950 . S
H1566 C1563 0.950 . S
C1567 C1558 1.390 . S
C1567 H1560 0.950 . S
C1567 C1564 1.387 . S
C1568 C1569 1.387 . S
C1568 H1572 0.950 . S
C1568 C1577 1.390 . S
C1569 C1568 1.387 . S
C1569 C1571 1.387 . S
H1570 C1577 0.950 . S
C1571 C1569 1.387 . S
C1571 C1573 1.390 . S
C1571 H1575 0.950 . S
H1572 C1568 0.950 . S
C1573 C1571 1.390 . S
C1573 C1574 1.387 . S
C1573 H1576 0.950 . S
C1574 C1573 1.387 . S
C1574 C1577 1.387 . S
H1575 C1571 0.950 . S
H1576 C1573 0.950 . S
C1577 C1568 1.390 . S
C1577 H1570 0.950 . S
C1577 C1574 1.387 . S
C1578 C1579 1.387 . S
C1578 H1582 0.950 . S
C1578 C1587 1.390 . S
C1579 C1578 1.387 . S
C1579 C1581 1.387 . S
H1580 C1587 0.950 . S
C1581 C1579 1.387 . S
C1581 C1583 1.390 . S
C1581 H1585 0.950 . S
H1582 C1578 0.950 . S
C1583 C1581 1.390 . S
C1583 C1584 1.387 . S
C1583 H1586 0.950 . S
C1584 C1583 1.387 . S
C1584 C1587 1.387 . S
H1585 C1581 0.950 . S
H1586 C1583 0.950 . S
C1587 C1578 1.390 . S
C1587 H1580 0.950 . S
C1587 C1584 1.387 . S
C1588 C1589 1.387 . S
C1588 H1592 0.950 . S
C1588 C1597 1.390 . S
C1589 C1588 1.387 . S
C1589 C1591 1.387 . S
H1590 C1597 0.950 . S
C1591 C1589 1.387 . S
C1591 C1593 1.390 . S
C1591 H1595 0.950 . S
H1592 C1588 0.950 . S
C1593 C1591 1.390 . S
C1593 C1594 1.387 . S
C1593 H1596 0.950 . S
C1594 C1593 1.387 . S
C1594 C1597 1.387 . S
H1595 C1591 0.950 . S
H1596 C1593 0.950 . S
C1597 C1588 1.390 . S
C1597 H1590 0.950 . S
C1597 C1594 1.387 . S
C1598 C1599 1.387 . S
C1598 H1602 0.950 . S
C1598 C1607 1.390 . S
C1599 C1598 1.387 . S
C1599 C1601 1.387 . S
H1600 C1607 0.950 . S
C1601 C1599 1.387 . S
C1601 C1603 1.390 . S
C1601 H1605 0.950 . S
H1602 C1598 0.950 . S
C1603 C1601 1.390 . S
C1603 C1604 1.387 . S
C1603 H1606 0.950 . S
C1604 C1603 1.387 . S
C1604 C1607 1.387 . S
H1605 C1601 0.950 . S
H1606 C1603 0.950 . S
C1607 C1598 1.390 . S
C1607 H1600 0.950 . S
C1607 C1604 1.387 . S
C1608 C1609 1.387 . S
C1608 H1612 0.950 . S
C1608 C1617 1.390 . S
C1609 C1608 1.387 . S
C1609 C1611 1.387 . S
H1610 C1617 0.950 . S
C1611 C1609 1.387 . S
C1611 C1613 1.390 . S
C1611 H1615 0.950 . S
H1612 C1608 0.950 . S
C1613 C1611 1.390 . S
C1613 C1614 1.387 . S
C1613 H1616 0.950 . S
C1614 C1613 1.387 . S
C1614 C1617 1.387 . S
H1615 C1611 0.950 . S
H1616 C1613 0.950 . S
C1617 C1608 1.390 . S
C1617 H1610 0.950 . S
C1617 C1614 1.387 . S
C1618 C1619 1.387 . S
C1618 H1622 0.950 . S
C1618 C1627 1.390 . S
C1619 C1618 1.387 . S
C1619 C1621 1.387 . S
H1620 C1627 0.950 . S
C1621 C1619 1.387 . S
C1621 C1623 1.390 . S
C1621 H1625 0.950 . S
H1622 C1618 0.950 . S
C1623 C1621 1.390 . S
C1623 C1624 1.387 . S
C1623 H1626 0.950 . S
C1624 C1623 1.387 . S
C1624 C1627 1.387 . S
H1625 C1621 0.950 . S
H1626 C1623 0.950 . S
C1627 C1618 1.390 . S
C1627 H1620 0.950 . S
C1627 C1624 1.387 . S
C1628 C1629 1.387 . S
C1628 H1632 0.950 . S
C1628 C1637 1.390 . S
C1629 C1628 1.387 . S
C1629 C1631 1.387 . S
H1630 C1637 0.950 . S
C1631 C1629 1.387 . S
C1631 C1633 1.390 . S
C1631 H1635 0.950 . S
H1632 C1628 0.950 . S
C1633 C1631 1.390 . S
C1633 C1634 1.387 . S
C1633 H1636 0.950 . S
C1634 C1633 1.387 . S
C1634 C1637 1.387 . S
H1635 C1631 0.950 . S
H1636 C1633 0.950 . S
C1637 C1628 1.390 . S
C1637 H1630 0.950 . S
C1637 C1634 1.387 . S
C1638 C1639 1.387 . S
C1638 H1642 0.950 . S
C1638 C1647 1.390 . S
C1639 C1638 1.387 . S
C1639 C1641 1.387 . S
H1640 C1647 0.950 . S
C1641 C1639 1.387 . S
C1641 C1643 1.390 . S
C1641 H1645 0.950 . S
H1642 C1638 0.950 . S
C1643 C1641 1.390 . S
C1643 C1644 1.387 . S
C1643 H1646 0.950 . S
C1644 C1643 1.387 . S
C1644 C1647 1.387 . S
H1645 C1641 0.950 . S
H1646 C1643 0.950 . S
C1647 C1638 1.390 . S
C1647 H1640 0.950 . S
C1647 C1644 1.387 . S
C1648 C1649 1.387 . S
C1648 H1652 0.950 . S
C1648 C1657 1.390 . S
C1649 C1648 1.387 . S
C1649 C1651 1.387 . S
H1650 C1657 0.950 . S
C1651 C1649 1.387 . S
C1651 C1653 1.390 . S
C1651 H1655 0.950 . S
H1652 C1648 0.950 . S
C1653 C1651 1.390 . S
C1653 C1654 1.387 . S
C1653 H1656 0.950 . S
C1654 C1653 1.387 . S
C1654 C1657 1.387 . S
H1655 C1651 0.950 . S
H1656 C1653 0.950 . S
C1657 C1648 1.390 . S
C1657 H1650 0.950 . S
C1657 C1654 1.387 . S
C1658 C1659 1.387 . S
C1658 H1662 0.950 . S
C1658 C1667 1.390 . S
C1659 C1658 1.387 . S
C1659 C1661 1.387 . S
H1660 C1667 0.950 . S
C1661 C1659 1.387 . S
C1661 C1663 1.390 . S
C1661 H1665 0.950 . S
H1662 C1658 0.950 . S
C1663 C1661 1.390 . S
C1663 C1664 1.387 . S
C1663 H1666 0.950 . S
C1664 C1663 1.387 . S
C1664 C1667 1.387 . S
H1665 C1661 0.950 . S
H1666 C1663 0.950 . S
C1667 C1658 1.390 . S
C1667 H1660 0.950 . S
C1667 C1664 1.387 . S
C1668 C1669 1.387 . S
C1668 H1672 0.950 . S
C1668 C1677 1.390 . S
C1669 C1668 1.387 . S
C1669 C1671 1.387 . S
H1670 C1677 0.950 . S
C1671 C1669 1.387 . S
C1671 C1673 1.390 . S
C1671 H1675 0.950 . S
H1672 C1668 0.950 . S
C1673 C1671 1.390 . S
C1673 C1674 1.387 . S
C1673 H1676 0.950 . S
C1674 C1673 1.387 . S
C1674 C1677 1.387 . S
H1675 C1671 0.950 . S
H1676 C1673 0.950 . S
C1677 C1668 1.390 . S
C1677 H1670 0.950 . S
C1677 C1674 1.387 . S
C1678 C1679 1.387 . S
C1678 H1682 0.950 . S
C1678 C1687 1.390 . S
C1679 C1678 1.387 . S
C1679 C1681 1.387 . S
H1680 C1687 0.950 . S
C1681 C1679 1.387 . S
C1681 C1683 1.390 . S
C1681 H1685 0.950 . S
H1682 C1678 0.950 . S
C1683 C1681 1.390 . S
C1683 C1684 1.387 . S
C1683 H1686 0.950 . S
C1684 C1683 1.387 . S
C1684 C1687 1.387 . S
H1685 C1681 0.950 . S
H1686 C1683 0.950 . S
C1687 C1678 1.390 . S
C1687 H1680 0.950 . S
C1687 C1684 1.387 . S
C1688 C1689 1.387 . S
C1688 H1692 0.950 . S
C1688 C1697 1.390 . S
C1689 C1688 1.387 . S
C1689 C1691 1.387 . S
H1690 C1697 0.950 . S
C1691 C1689 1.387 . S
C1691 C1693 1.390 . S
C1691 H1695 0.950 . S
H1692 C1688 0.950 . S
C1693 C1691 1.390 . S
C1693 C1694 1.387 . S
C1693 H1696 0.950 . S
C1694 C1693 1.387 . S
C1694 C1697 1.387 . S
H1695 C1691 0.950 . S
H1696 C1693 0.950 . S
C1697 C1688 1.390 . S
C1697 H1690 0.950 . S
C1697 C1694 1.387 . S
C1698 C1699 1.387 . S
C1698 H1702 0.950 . S
C1698 C1707 1.390 . S
C1699 C1698 1.387 . S
C1699 C1701 1.387 . S
H1700 C1707 0.950 . S
C1701 C1699 1.387 . S
C1701 C1703 1.390 . S
C1701 H1705 0.950 . S
H1702 C1698 0.950 . S
C1703 C1701 1.390 . S
C1703 C1704 1.387 . S
C1703 H1706 0.950 . S
C1704 C1703 1.387 . S
C1704 C1707 1.387 . S
H1705 C1701 0.950 . S
H1706 C1703 0.950 . S
C1707 C1698 1.390 . S
C1707 H1700 0.950 . S
C1707 C1704 1.387 . S
C1708 C1709 1.387 . S
C1708 H1712 0.950 . S
C1708 C1717 1.390 . S
C1709 C1708 1.387 . S
C1709 C1711 1.387 . S
H1710 C1717 0.950 . S
C1711 C1709 1.387 . S
C1711 C1713 1.390 . S
C1711 H1715 0.950 . S
H1712 C1708 0.950 . S
C1713 C1711 1.390 . S
C1713 C1714 1.387 . S
C1713 H1716 0.950 . S
C1714 C1713 1.387 . S
C1714 C1717 1.387 . S
H1715 C1711 0.950 . S
H1716 C1713 0.950 . S
C1717 C1708 1.390 . S
C1717 H1710 0.950 . S
C1717 C1714 1.387 . S
C1718 C1719 1.387 . S
C1718 H1722 0.950 . S
C1718 C1727 1.390 . S
C1719 C1718 1.387 . S
C1719 C1721 1.387 . S
H1720 C1727 0.950 . S
C1721 C1719 1.387 . S
C1721 C1723 1.390 . S
C1721 H1725 0.950 . S
H1722 C1718 0.950 . S
C1723 C1721 1.390 . S
C1723 C1724 1.387 . S
C1723 H1726 0.950 . S
C1724 C1723 1.387 . S
C1724 C1727 1.387 . S
H1725 C1721 0.950 . S
H1726 C1723 0.950 . S
C1727 C1718 1.390 . S
C1727 H1720 0.950 . S
C1727 C1724 1.387 . S
C1728 C1729 1.387 . S
C1728 H1732 0.950 . S
C1728 C1737 1.390 . S
C1729 C1728 1.387 . S
C1729 C1731 1.387 . S
H1730 C1737 0.950 . S
C1731 C1729 1.387 . S
C1731 C1733 1.390 . S
C1731 H1735 0.950 . S
H1732 C1728 0.950 . S
C1733 C1731 1.390 . S
C1733 C1734 1.387 . S
C1733 H1736 0.950 . S
C1734 C1733 1.387 . S
C1734 C1737 1.387 . S
H1735 C1731 0.950 . S
H1736 C1733 0.950 . S
C1737 C1728 1.390 . S
C1737 H1730 0.950 . S
C1737 C1734 1.387 . S
C1738 C1739 1.387 . S
C1738 H1742 0.950 . S
C1738 C1747 1.390 . S
C1739 C1738 1.387 . S
C1739 C1741 1.387 . S
H1740 C1747 0.950 . S
C1741 C1739 1.387 . S
C1741 C1743 1.390 . S
C1741 H1745 0.950 . S
H1742 C1738 0.950 . S
C1743 C1741 1.390 . S
C1743 C1744 1.387 . S
C1743 H1746 0.950 . S
C1744 C1743 1.387 . S
C1744 C1747 1.387 . S
H1745 C1741 0.950 . S
H1746 C1743 0.950 . S
C1747 C1738 1.390 . S
C1747 H1740 0.950 . S
C1747 C1744 1.387 . S
C1748 C1749 1.387 . S
C1748 H1752 0.950 . S
C1748 C1757 1.390 . S
C1749 C1748 1.387 . S
C1749 C1751 1.387 . S
H1750 C1757 0.950 . S
C1751 C1749 1.387 . S
C1751 C1753 1.390 . S
C1751 H1755 0.950 . S
H1752 C1748 0.950 . S
C1753 C1751 1.390 . S
C1753 C1754 1.387 . S
C1753 H1756 0.950 . S
C1754 C1753 1.387 . S
C1754 C1757 1.387 . S
H1755 C1751 0.950 . S
H1756 C1753 0.950 . S
C1757 C1748 1.390 . S
C1757 H1750 0.950 . S
C1757 C1754 1.387 . S
C1758 C1759 1.379 1_554 S
C1758 H1762 0.964 . S
C1758 C1767 1.385 1_554 S
C1759 C1758 1.379 1_556 S
C1759 C1761 1.387 . S
H1760 C1767 0.950 1_554 S
C1761 C1759 1.387 . S
C1761 C1763 1.390 . S
C1761 H1765 0.950 . S
H1762 C1758 0.964 . S
C1763 C1761 1.390 . S
C1763 C1764 1.387 . S
C1763 H1766 0.950 . S
C1764 C1763 1.387 . S
C1764 C1767 1.387 . S
H1765 C1761 0.950 . S
H1766 C1763 0.950 . S
C1767 C1758 1.385 1_556 S
C1767 H1760 0.950 1_556 S
C1767 C1764 1.387 . S
C1768 C1769 1.387 . S
C1768 H1772 0.950 1_556 S
C1768 C1777 1.390 . S
C1769 C1768 1.387 . S
C1769 C1771 1.387 . S
H1770 C1777 0.950 . S
C1771 C1769 1.387 . S
C1771 C1773 1.390 . S
C1771 H1775 0.950 . S
H1772 C1768 0.950 1_554 S
C1773 C1771 1.390 . S
C1773 C1774 1.387 . S
C1773 H1776 0.950 . S
C1774 C1773 1.387 . S
C1774 C1777 1.387 . S
H1775 C1771 0.950 . S
H1776 C1773 0.950 . S
C1777 C1768 1.390 . S
C1777 H1770 0.950 . S
C1777 C1774 1.387 . S
C1778 C1779 1.387 . S
C1778 H1782 0.950 . S
C1778 C1787 1.390 . S
C1779 C1778 1.387 . S
C1779 C1781 1.387 . S
H1780 C1787 0.950 . S
C1781 C1779 1.387 . S
C1781 C1783 1.390 . S
C1781 H1785 0.950 1_556 S
H1782 C1778 0.950 . S
C1783 C1781 1.390 . S
C1783 C1784 1.387 . S
C1783 H1786 0.950 . S
C1784 C1783 1.387 . S
C1784 C1787 1.387 . S
H1785 C1781 0.950 1_554 S
H1786 C1783 0.950 . S
C1787 C1778 1.390 . S
C1787 H1780 0.950 . S
C1787 C1784 1.387 . S
C1788 C1789 1.387 . S
C1788 H1792 0.950 1_556 S
C1788 C1797 1.390 . S
C1789 C1788 1.387 . S
C1789 C1791 1.387 . S
H1790 C1797 0.947 . S
C1791 C1789 1.387 . S
C1791 C1793 1.390 . S
C1791 H1795 0.950 . S
H1792 C1788 0.950 1_554 S
C1793 C1791 1.390 . S
C1793 C1794 1.387 . S
C1793 H1796 0.950 . S
C1794 C1793 1.387 . S
C1794 C1797 1.387 . S
H1795 C1791 0.950 . S
H1796 C1793 0.950 . S
C1797 C1788 1.390 . S
C1797 H1790 0.947 . S
C1797 C1794 1.387 . S
C1798 C1799 1.387 . S
C1798 H1802 0.950 . S
C1798 C1807 1.390 . S
C1799 C1798 1.387 . S
C1799 C1801 1.393 . S
H1800 C1807 0.950 . S
C1801 C1799 1.393 . S
C1801 C1803 1.392 . S
C1801 H1805 0.943 1_556 S
H1802 C1798 0.950 . S
C1803 C1801 1.392 . S
C1803 C1804 1.387 . S
C1803 H1806 0.950 1_556 S
C1804 C1803 1.387 . S
C1804 C1807 1.387 . S
H1805 C1801 0.943 1_554 S
H1806 C1803 0.950 1_554 S
C1807 C1798 1.390 . S
C1807 H1800 0.950 . S
C1807 C1804 1.387 . S
C1808 C1809 1.387 1_554 S
C1808 H1812 0.950 . S
C1808 C1817 1.390 1_554 S
C1809 C1808 1.387 1_556 S
C1809 C1811 1.387 . S
H1810 C1817 0.950 1_554 S
C1811 C1809 1.387 . S
C1811 C1813 1.390 . S
C1811 H1815 0.950 . S
H1812 C1808 0.950 . S
C1813 C1811 1.390 . S
C1813 C1814 1.387 . S
C1813 H1816 0.950 . S
C1814 C1813 1.387 . S
C1814 C1817 1.387 . S
H1815 C1811 0.950 . S
H1816 C1813 0.950 . S
C1817 C1808 1.390 1_556 S
C1817 H1810 0.950 1_556 S
C1817 C1814 1.387 . S
C1818 C1819 1.387 . S
C1818 H1822 0.950 . S
C1818 C1827 1.390 . S
C1819 C1818 1.387 . S
C1819 C1821 1.387 . S
H1820 C1827 0.950 . S
C1821 C1819 1.387 . S
C1821 C1823 1.390 . S
C1821 H1825 0.950 . S
H1822 C1818 0.950 . S
C1823 C1821 1.390 . S
C1823 C1824 1.387 . S
C1823 H1826 0.950 . S
C1824 C1823 1.387 . S
C1824 C1827 1.387 . S
H1825 C1821 0.950 . S
H1826 C1823 0.950 . S
C1827 C1818 1.390 . S
C1827 H1820 0.950 . S
C1827 C1824 1.387 . S
C1828 C1829 1.387 . S
C1828 H1832 0.950 . S
C1828 C1837 1.390 . S
C1829 C1828 1.387 . S
C1829 C1831 1.387 . S
H1830 C1837 0.950 . S
C1831 C1829 1.387 . S
C1831 C1833 1.390 . S
C1831 H1835 0.950 . S
H1832 C1828 0.950 . S
C1833 C1831 1.390 . S
C1833 C1834 1.387 . S
C1833 H1836 0.950 . S
C1834 C1833 1.387 . S
C1834 C1837 1.387 . S
H1835 C1831 0.950 . S
H1836 C1833 0.950 . S
C1837 C1828 1.390 . S
C1837 H1830 0.950 . S
C1837 C1834 1.387 . S
C1838 C1839 1.387 . S
C1838 H1842 0.950 . S
C1838 C1847 1.390 . S
C1839 C1838 1.387 . S
C1839 C1841 1.387 . S
H1840 C1847 0.950 . S
C1841 C1839 1.387 . S
C1841 C1843 1.390 . S
C1841 H1845 0.950 . S
H1842 C1838 0.950 . S
C1843 C1841 1.390 . S
C1843 C1844 1.387 . S
C1843 H1846 0.950 . S
C1844 C1843 1.387 . S
C1844 C1847 1.387 . S
H1845 C1841 0.950 . S
H1846 C1843 0.950 . S
C1847 C1838 1.390 . S
C1847 H1840 0.950 . S
C1847 C1844 1.387 . S
C1848 C1849 1.387 . S
C1848 H1852 0.950 . S
C1848 C1857 1.390 . S
C1849 C1848 1.387 . S
C1849 C1851 1.387 . S
H1850 C1857 0.950 . S
C1851 C1849 1.387 . S
C1851 C1853 1.390 . S
C1851 H1855 0.950 . S
H1852 C1848 0.950 . S
C1853 C1851 1.390 . S
C1853 C1854 1.387 . S
C1853 H1856 0.950 . S
C1854 C1853 1.387 . S
C1854 C1857 1.387 . S
H1855 C1851 0.950 . S
H1856 C1853 0.950 . S
C1857 C1848 1.390 . S
C1857 H1850 0.950 . S
C1857 C1854 1.387 . S
C1858 C1859 1.387 . S
C1858 H1862 0.950 . S
C1858 C1867 1.390 . S
C1859 C1858 1.387 . S
C1859 C1861 1.387 . S
H1860 C1867 0.950 . S
C1861 C1859 1.387 . S
C1861 C1863 1.390 . S
C1861 H1865 0.950 . S
H1862 C1858 0.950 . S
C1863 C1861 1.390 . S
C1863 C1864 1.387 . S
C1863 H1866 0.950 . S
C1864 C1863 1.387 . S
C1864 C1867 1.387 . S
H1865 C1861 0.950 . S
H1866 C1863 0.950 . S
C1867 C1858 1.390 . S
C1867 H1860 0.950 . S
C1867 C1864 1.387 . S
C1868 C1869 1.387 . S
C1868 H1872 0.950 . S
C1868 C1877 1.390 . S
C1869 C1868 1.387 . S
C1869 C1871 1.387 . S
H1870 C1877 0.950 . S
C1871 C1869 1.387 . S
C1871 C1873 1.390 . S
C1871 H1875 0.950 . S
H1872 C1868 0.950 . S
C1873 C1871 1.390 . S
C1873 C1874 1.387 . S
C1873 H1876 0.950 . S
C1874 C1873 1.387 . S
C1874 C1877 1.387 . S
H1875 C1871 0.950 . S
H1876 C1873 0.950 . S
C1877 C1868 1.390 . S
C1877 H1870 0.950 . S
C1877 C1874 1.387 . S
C1878 C1879 1.387 . S
C1878 H1882 0.950 . S
C1878 C1887 1.390 . S
C1879 C1878 1.387 . S
C1879 C1881 1.387 . S
H1880 C1887 0.950 . S
C1881 C1879 1.387 . S
C1881 C1883 1.390 . S
C1881 H1885 0.950 . S
H1882 C1878 0.950 . S
C1883 C1881 1.390 . S
C1883 C1884 1.387 . S
C1883 H1886 0.950 . S
C1884 C1883 1.387 . S
C1884 C1887 1.387 . S
H1885 C1881 0.950 . S
H1886 C1883 0.950 . S
C1887 C1878 1.390 . S
C1887 H1880 0.950 . S
C1887 C1884 1.387 . S
C1888 C1889 1.387 . S
C1888 H1892 0.950 . S
C1888 C1897 1.390 . S
C1889 C1888 1.387 . S
C1889 C1891 1.387 . S
H1890 C1897 0.950 . S
C1891 C1889 1.387 . S
C1891 C1893 1.390 . S
C1891 H1895 0.950 . S
H1892 C1888 0.950 . S
C1893 C1891 1.390 . S
C1893 C1894 1.387 . S
C1893 H1896 0.950 . S
C1894 C1893 1.387 . S
C1894 C1897 1.387 . S
H1895 C1891 0.950 . S
H1896 C1893 0.950 . S
C1897 C1888 1.390 . S
C1897 H1890 0.950 . S
C1897 C1894 1.387 . S
C1898 C1899 1.387 . S
C1898 H1902 0.950 . S
C1898 C1907 1.390 . S
C1899 C1898 1.387 . S
C1899 C1901 1.387 1_565 S
H1900 C1907 0.950 . S
C1901 C1899 1.387 1_545 S
C1901 C1903 1.390 . S
C1901 H1905 0.950 . S
H1902 C1898 0.950 . S
C1903 C1901 1.390 . S
C1903 C1904 1.387 1_545 S
C1903 H1906 0.950 . S
C1904 C1903 1.387 1_565 S
C1904 C1907 1.387 . S
H1905 C1901 0.950 . S
H1906 C1903 0.950 . S
C1907 C1898 1.390 . S
C1907 H1900 0.950 . S
C1907 C1904 1.387 . S
C1908 C1909 1.387 . S
C1908 H1912 0.950 . S
C1908 C1917 1.390 . S
C1909 C1908 1.387 . S
C1909 C1911 1.387 . S
H1910 C1917 0.950 . S
C1911 C1909 1.387 . S
C1911 C1913 1.429 . S
C1911 H1915 0.950 1_565 S
H1912 C1908 0.950 . S
C1913 C1911 1.429 . S
C1913 C1914 1.400 . S
C1913 H1916 0.901 1_565 S
C1914 C1913 1.400 . S
C1914 C1917 1.387 . S
H1915 C1911 0.950 1_545 S
H1916 C1913 0.901 1_545 S
C1917 C1908 1.390 . S
C1917 H1910 0.950 . S
C1917 C1914 1.387 . S
C1918 C1919 1.387 . S
C1918 H1922 0.950 . S
C1918 C1927 1.390 . S
C1919 C1918 1.387 . S
C1919 C1921 1.387 . S
H1920 C1927 0.950 . S
C1921 C1919 1.387 . S
C1921 C1923 1.390 . S
C1921 H1925 0.950 . S
H1922 C1918 0.950 . S
C1923 C1921 1.390 . S
C1923 C1924 1.387 . S
C1923 H1926 0.950 . S
C1924 C1923 1.387 . S
C1924 C1927 1.387 . S
H1925 C1921 0.950 . S
H1926 C1923 0.950 . S
C1927 C1918 1.390 . S
C1927 H1920 0.950 . S
C1927 C1924 1.387 . S
C1928 C1929 1.387 . S
C1928 H1932 0.950 . S
C1928 C1937 1.390 . S
C1929 C1928 1.387 . S
C1929 C1931 1.387 . S
H1930 C1937 0.950 . S
C1931 C1929 1.387 . S
C1931 C1933 1.390 . S
C1931 H1935 0.950 . S
H1932 C1928 0.950 . S
C1933 C1931 1.390 . S
C1933 C1934 1.387 . S
C1933 H1936 0.950 . S
C1934 C1933 1.387 . S
C1934 C1937 1.387 . S
H1935 C1931 0.950 . S
H1936 C1933 0.950 . S
C1937 C1928 1.390 . S
C1937 H1930 0.950 . S
C1937 C1934 1.387 . S
C1938 C1939 1.387 . S
C1938 H1942 0.950 . S
C1938 C1947 1.390 . S
C1939 C1938 1.387 . S
C1939 C1941 1.387 . S
H1940 C1947 0.950 . S
C1941 C1939 1.387 . S
C1941 C1943 1.390 . S
C1941 H1945 0.950 . S
H1942 C1938 0.950 . S
C1943 C1941 1.390 . S
C1943 C1944 1.387 . S
C1943 H1946 0.950 . S
C1944 C1943 1.387 . S
C1944 C1947 1.387 . S
H1945 C1941 0.950 . S
H1946 C1943 0.950 . S
C1947 C1938 1.390 . S
C1947 H1940 0.950 . S
C1947 C1944 1.387 . S
C1948 C1949 1.387 . S
C1948 H1952 0.950 . S
C1948 C1957 1.390 . S
C1949 C1948 1.387 . S
C1949 C1951 1.387 . S
H1950 C1957 0.950 . S
C1951 C1949 1.387 . S
C1951 C1953 1.390 . S
C1951 H1955 0.950 . S
H1952 C1948 0.950 . S
C1953 C1951 1.390 . S
C1953 C1954 1.387 . S
C1953 H1956 0.950 . S
C1954 C1953 1.387 . S
C1954 C1957 1.387 . S
H1955 C1951 0.950 . S
H1956 C1953 0.950 . S
C1957 C1948 1.390 . S
C1957 H1950 0.950 . S
C1957 C1954 1.387 . S
C1958 C1959 1.387 . S
C1958 H1962 0.950 . S
C1958 C1967 1.390 . S
C1959 C1958 1.387 . S
C1959 C1961 1.387 . S
H1960 C1967 0.950 . S
C1961 C1959 1.387 . S
C1961 C1963 1.390 . S
C1961 H1965 0.950 . S
H1962 C1958 0.950 . S
C1963 C1961 1.390 . S
C1963 C1964 1.387 . S
C1963 H1966 0.950 . S
C1964 C1963 1.387 . S
C1964 C1967 1.387 . S
H1965 C1961 0.950 . S
H1966 C1963 0.950 . S
C1967 C1958 1.390 . S
C1967 H1960 0.950 . S
C1967 C1964 1.387 . S
C1968 C1969 1.387 . S
C1968 H1972 0.950 . S
C1968 C1977 1.390 . S
C1969 C1968 1.387 . S
C1969 C1971 1.324 1_545 S
H1970 C1977 0.950 . S
C1971 C1969 1.324 1_565 S
C1971 C1973 1.433 . S
C1971 H1975 0.973 . S
H1972 C1968 0.950 . S
C1973 C1971 1.433 . S
C1973 C1974 1.387 1_565 S
C1973 H1976 0.950 . S
C1974 C1973 1.387 1_545 S
C1974 C1977 1.387 . S
H1975 C1971 0.973 . S
H1976 C1973 0.950 . S
C1977 C1968 1.390 . S
C1977 H1970 0.950 . S
C1977 C1974 1.387 . S
C1978 C1979 1.387 . S
C1978 H1982 0.950 . S
C1978 C1987 1.390 . S
C1979 C1978 1.387 . S
C1979 C1981 1.391 1_655 S
H1980 C1987 0.950 . S
C1981 C1979 1.391 1_455 S
C1981 C1983 1.393 . S
C1981 H1985 0.944 . S
H1982 C1978 0.950 . S
C1983 C1981 1.393 . S
C1983 C1984 1.387 1_455 S
C1983 H1986 0.950 . S
C1984 C1983 1.387 1_655 S
C1984 C1987 1.387 . S
H1985 C1981 0.944 . S
H1986 C1983 0.950 . S
C1987 C1978 1.390 . S
C1987 H1980 0.950 . S
C1987 C1984 1.387 . S
C1988 C1989 1.387 . S
C1988 H1992 0.950 . S
C1988 C1997 1.390 . S
C1989 C1988 1.387 . S
C1989 C1991 1.387 . S
H1990 C1997 0.950 . S
C1991 C1989 1.387 . S
C1991 C1993 1.390 . S
C1991 H1995 0.950 . S
H1992 C1988 0.950 . S
C1993 C1991 1.390 . S
C1993 C1994 1.387 . S
C1993 H1996 0.950 . S
C1994 C1993 1.387 . S
C1994 C1997 1.387 . S
H1995 C1991 0.950 . S
H1996 C1993 0.950 . S
C1997 C1988 1.390 . S
C1997 H1990 0.950 . S
C1997 C1994 1.387 . S
C1998 C1999 1.387 . S
C1998 H2002 0.950 . S
C1998 C2007 1.390 . S
C1999 C1998 1.387 . S
C1999 C2001 1.387 . S
H2000 C2007 0.950 . S
C2001 C1999 1.387 . S
C2001 C2003 1.390 . S
C2001 H2005 0.950 . S
H2002 C1998 0.950 . S
C2003 C2001 1.390 . S
C2003 C2004 1.387 . S
C2003 H2006 0.950 . S
C2004 C2003 1.387 . S
C2004 C2007 1.387 . S
H2005 C2001 0.950 . S
H2006 C2003 0.950 . S
C2007 C1998 1.390 . S
C2007 H2000 0.950 . S
C2007 C2004 1.387 . S
C2008 C2009 1.387 . S
C2008 H2012 0.950 . S
C2008 C2017 1.390 . S
C2009 C2008 1.387 . S
C2009 C2011 1.387 . S
H2010 C2017 0.950 . S
C2011 C2009 1.387 . S
C2011 C2013 1.390 . S
C2011 H2015 0.950 . S
H2012 C2008 0.950 . S
C2013 C2011 1.390 . S
C2013 C2014 1.387 . S
C2013 H2016 0.950 . S
C2014 C2013 1.387 . S
C2014 C2017 1.387 . S
H2015 C2011 0.950 . S
H2016 C2013 0.950 . S
C2017 C2008 1.390 . S
C2017 H2010 0.950 . S
C2017 C2014 1.387 . S
C2018 C2019 1.387 . S
C2018 H2022 0.950 . S
C2018 C2027 1.390 . S
C2019 C2018 1.387 . S
C2019 C2021 1.387 . S
H2020 C2027 0.950 . S
C2021 C2019 1.387 . S
C2021 C2023 1.390 . S
C2021 H2025 0.950 . S
H2022 C2018 0.950 . S
C2023 C2021 1.390 . S
C2023 C2024 1.387 . S
C2023 H2026 0.950 . S
C2024 C2023 1.387 . S
C2024 C2027 1.387 . S
H2025 C2021 0.950 . S
H2026 C2023 0.950 . S
C2027 C2018 1.390 . S
C2027 H2020 0.950 . S
C2027 C2024 1.387 . S
C2028 C2029 1.387 . S
C2028 H2032 0.950 . S
C2028 C2037 1.390 . S
C2029 C2028 1.387 . S
C2029 C2031 1.387 . S
H2030 C2037 0.950 . S
C2031 C2029 1.387 . S
C2031 C2033 1.390 . S
C2031 H2035 0.950 . S
H2032 C2028 0.950 . S
C2033 C2031 1.390 . S
C2033 C2034 1.387 . S
C2033 H2036 0.950 . S
C2034 C2033 1.387 . S
C2034 C2037 1.387 . S
H2035 C2031 0.950 . S
H2036 C2033 0.950 . S
C2037 C2028 1.390 . S
C2037 H2030 0.950 . S
C2037 C2034 1.387 . S
C2038 C2039 1.387 . S
C2038 H2042 0.950 . S
C2038 C2047 1.390 . S
C2039 C2038 1.387 . S
C2039 C2041 1.387 . S
H2040 C2047 0.950 . S
C2041 C2039 1.387 . S
C2041 C2043 1.390 . S
C2041 H2045 0.950 . S
H2042 C2038 0.950 . S
C2043 C2041 1.390 . S
C2043 C2044 1.387 . S
C2043 H2046 0.950 . S
C2044 C2043 1.387 . S
C2044 C2047 1.387 . S
H2045 C2041 0.950 . S
H2046 C2043 0.950 . S
C2047 C2038 1.390 . S
C2047 H2040 0.950 . S
C2047 C2044 1.387 . S
C2048 C2049 1.387 . S
C2048 H2052 0.950 . S
C2048 C2057 1.390 . S
C2049 C2048 1.387 . S
C2049 C2051 1.387 . S
H2050 C2057 0.950 . S
C2051 C2049 1.387 . S
C2051 C2053 1.390 . S
C2051 H2055 0.950 . S
H2052 C2048 0.950 . S
C2053 C2051 1.390 . S
C2053 C2054 1.387 . S
C2053 H2056 0.950 . S
C2054 C2053 1.387 . S
C2054 C2057 1.387 . S
H2055 C2051 0.950 . S
H2056 C2053 0.950 . S
C2057 C2048 1.390 . S
C2057 H2050 0.950 . S
C2057 C2054 1.387 . S
C2058 C2059 1.387 . S
C2058 H2062 0.950 . S
C2058 C2067 1.390 . S
C2059 C2058 1.387 . S
C2059 C2061 1.387 . S
H2060 C2067 0.950 . S
C2061 C2059 1.387 . S
C2061 C2063 1.390 . S
C2061 H2065 0.950 . S
H2062 C2058 0.950 . S
C2063 C2061 1.390 . S
C2063 C2064 1.387 . S
C2063 H2066 0.950 . S
C2064 C2063 1.387 . S
C2064 C2067 1.387 . S
H2065 C2061 0.950 . S
H2066 C2063 0.950 . S
C2067 C2058 1.390 . S
C2067 H2060 0.950 . S
C2067 C2064 1.387 . S
C2068 C2069 1.387 . S
C2068 H2072 0.950 . S
C2068 C2077 1.390 . S
C2069 C2068 1.387 . S
C2069 C2071 1.387 . S
H2070 C2077 0.950 . S
C2071 C2069 1.387 . S
C2071 C2073 1.390 . S
C2071 H2075 0.950 . S
H2072 C2068 0.950 . S
C2073 C2071 1.390 . S
C2073 C2074 1.387 . S
C2073 H2076 0.950 . S
C2074 C2073 1.387 . S
C2074 C2077 1.387 . S
H2075 C2071 0.950 . S
H2076 C2073 0.950 . S
C2077 C2068 1.390 . S
C2077 H2070 0.950 . S
C2077 C2074 1.387 . S
C2078 C2079 1.389 1_565 S
C2078 H2082 0.947 . S
C2078 C2087 1.391 . S
C2079 C2078 1.389 1_545 S
C2079 C2081 1.387 . S
H2080 C2087 0.950 . S
C2081 C2079 1.387 . S
C2081 C2083 1.390 . S
C2081 H2085 0.950 . S
H2082 C2078 0.947 . S
C2083 C2081 1.390 . S
C2083 C2084 1.387 . S
C2083 H2086 0.950 . S
C2084 C2083 1.387 . S
C2084 C2087 1.387 1_545 S
H2085 C2081 0.950 . S
H2086 C2083 0.950 . S
C2087 C2078 1.391 . S
C2087 H2080 0.950 . S
C2087 C2084 1.387 1_565 S
C1369 C7 1.568 . S
C1374 C857 1.545 . S
C1379 C23 1.650 . S
C1384 C901 1.618 . S
C1394 C981 1.540 . S
C1389 C37 1.587 . S
C1399 C35 1.569 . S
C1404 C1025 1.581 . S
C1409 C9 1.607 1_455 S
C1414 C1105 1.559 . S
C1419 C21 1.625 . S
C1424 C1167 1.601 . S
C1429 C49 1.566 . S
C1434 C1087 1.542 . S
C1444 C1149 1.576 . S
C1439 C65 1.652 . S
C1454 C1043 1.577 . S
C1449 C79 1.608 1_565 S
C1459 C77 1.567 . S
C1464 C963 1.540 . S
C1474 C839 1.558 . S
C1469 C51 1.611 1_655 S
C1479 C63 1.621 . S
C1484 C919 1.640 . S
C1489 C91 1.660 . S
C1494 C1229 1.632 . S
C1499 C107 1.694 . S
C1504 C1273 1.662 . S
C1514 C1353 1.621 . S
C1509 C121 1.721 . S
C1519 C119 1.667 . S
C1524 C299 1.631 . S
C1529 C93 1.722 . S
C1534 C343 1.682 . S
C1539 C105 1.659 . S
C1544 C423 1.633 . S
C1549 C133 1.625 . S
C1554 C361 1.645 . S
C1559 C149 1.687 . S
C1564 C405 1.612 . S
C1574 C281 1.620 . S
C1569 C163 1.716 . S
C1584 C1335 1.661 . S
C1579 C161 1.695 . S
C1594 C1211 1.624 . S
C1589 C135 1.716 . S
C1604 C1291 1.697 . S
C1599 C147 1.670 . S
C1609 C175 1.628 . S
C1614 C485 1.600 . S
C1619 C191 1.681 . S
C1624 C547 1.604 . S
C1629 C205 1.712 . S
C1634 C591 1.670 . S
C1639 C203 1.695 . S
C1644 C653 1.719 . S
C1654 C715 1.685 . S
C1649 C177 1.724 . S
C1664 C795 1.652 . S
C1659 C189 1.674 . S
C1674 C733 1.685 . S
C1669 C217 1.664 . S
C1684 C777 1.622 . S
C1679 C233 1.701 . S
C1689 C247 1.722 . S
C1694 C671 1.677 . S
C1704 C609 1.686 . S
C1699 C245 1.664 . S
C1709 C219 1.716 . S
C1714 C467 1.628 . S
C1724 C529 1.632 . S
C1719 C231 1.658 . S
C1734 C305 1.508 . S
C1729 C8 1.598 . S
C1739 C17 1.568 . S
C1744 C349 1.495 . S
C1754 C429 1.506 . S
C1749 C31 1.594 . S
C1764 C491 1.515 . S
C1759 C36 1.607 . S
C1774 C553 1.488 . S
C1769 C3 1.583 . S
C1784 C597 1.511 . S
C1779 C22 1.582 . S
C1789 C50 1.599 . S
C1794 C615 1.540 . S
C1799 C59 1.560 . S
C1804 C473 1.466 . S
C1809 C73 1.579 . S
C1814 C535 1.493 . S
C1819 C78 1.622 . S
C1824 C367 1.559 . S
C1834 C411 1.492 . S
C1829 C45 1.585 . S
C1839 C64 1.584 . S
C1844 C287 1.485 . S
C1854 C659 1.532 . S
C1849 C92 1.599 . S
C1859 C101 1.620 . S
C1864 C721 1.545 . S
C1869 C115 1.625 . S
C1874 C801 1.527 . S
C1884 C863 1.439 . S
C1879 C120 1.509 . S
C1889 C87 1.579 . S
C1894 C907 1.507 . S
C1899 C106 1.474 . S
C1904 C987 1.403 . S
C1909 C134 1.486 . S
C1914 C969 1.414 . S
C1919 C143 1.500 . S
C1924 C845 1.423 . S
C1934 C925 1.515 . S
C1929 C157 1.582 . S
C1939 C162 1.608 . S
C1944 C739 1.538 . S
C1949 C129 1.628 . S
C1954 C783 1.524 . S
C1964 C677 1.552 . S
C1959 C148 1.627 . S
C1974 C1031 1.436 . S
C1969 C176 1.492 . S
C1979 C185 1.499 . S
C1984 C1111 1.421 . S
C1989 C199 1.580 . S
C1994 C1173 1.492 . S
C2004 C1235 1.505 . S
C1999 C204 1.598 . S
C2014 C1279 1.548 . S
C2009 C171 1.627 . S
C2019 C190 1.626 . S
C2024 C1359 1.526 . S
C2029 C218 1.600 . S
C2034 C1341 1.507 . S
C2039 C227 1.616 . S
C2044 C1217 1.518 . S
C2054 C1297 1.542 . S
C2049 C241 1.616 . S
C2064 C1093 1.434 . S
C2059 C246 1.504 . S
C2074 C1155 1.486 . S
C2069 C213 1.581 . S
C2079 C232 1.488 . S
C2084 C1049 1.425 . S
