# Generated by pormake.
# Topology pyr, (3,6)-cn, num edge types: 1
# Building blocks:
#     Node 0, Type 0, BuildingBlock: QEWDON_clean_linker_0, # of connection points: 3
#     Node 1, Type 0, BuildingBlock: QEWDON_clean_linker_0, # of connection points: 3
#     Node 2, Type 0, BuildingBlock: QEWDON_clean_linker_0, # of connection points: 3
#     Node 3, Type 0, BuildingBlock: QEWDON_clean_linker_0, # of connection points: 3
#     Node 4, Type 0, BuildingBlock: QEWDON_clean_linker_0, # of connection points: 3
#     Node 5, Type 0, BuildingBlock: QEWDON_clean_linker_0, # of connection points: 3
#     Node 6, Type 0, BuildingBlock: QEWDON_clean_linker_0, # of connection points: 3
#     Node 7, Type 0, BuildingBlock: QEWDON_clean_linker_0, # of connection points: 3
#     Node 8, Type 1, BuildingBlock: BETDAH_clean_sbu_0, # of connection points: 6
#     Node 9, Type 1, BuildingBlock: BETDAH_clean_sbu_0, # of connection points: 6
#     Node 10, Type 1, BuildingBlock: BETDAH_clean_sbu_0, # of connection points: 6
#     Node 11, Type 1, BuildingBlock: BETDAH_clean_sbu_0, # of connection points: 6
#     Edge 12, Type (0, 1), BuildingBlock: ZUJKAS_clean_linker_0, # of connection points: 2
#     Edge 13, Type (0, 1), BuildingBlock: ZUJKAS_clean_linker_0, # of connection points: 2
#     Edge 14, Type (0, 1), BuildingBlock: ZUJKAS_clean_linker_0, # of connection points: 2
#     Edge 15, Type (0, 1), BuildingBlock: ZUJKAS_clean_linker_0, # of connection points: 2
#     Edge 16, Type (0, 1), BuildingBlock: ZUJKAS_clean_linker_0, # of connection points: 2
#     Edge 17, Type (0, 1), BuildingBlock: ZUJKAS_clean_linker_0, # of connection points: 2
#     Edge 18, Type (0, 1), BuildingBlock: ZUJKAS_clean_linker_0, # of connection points: 2
#     Edge 19, Type (0, 1), BuildingBlock: ZUJKAS_clean_linker_0, # of connection points: 2
#     Edge 20, Type (0, 1), BuildingBlock: ZUJKAS_clean_linker_0, # of connection points: 2
#     Edge 21, Type (0, 1), BuildingBlock: ZUJKAS_clean_linker_0, # of connection points: 2
#     Edge 22, Type (0, 1), BuildingBlock: ZUJKAS_clean_linker_0, # of connection points: 2
#     Edge 23, Type (0, 1), BuildingBlock: ZUJKAS_clean_linker_0, # of connection points: 2
#     Edge 24, Type (0, 1), BuildingBlock: ZUJKAS_clean_linker_0, # of connection points: 2
#     Edge 25, Type (0, 1), BuildingBlock: ZUJKAS_clean_linker_0, # of connection points: 2
#     Edge 26, Type (0, 1), BuildingBlock: ZUJKAS_clean_linker_0, # of connection points: 2
#     Edge 27, Type (0, 1), BuildingBlock: ZUJKAS_clean_linker_0, # of connection points: 2
#     Edge 28, Type (0, 1), BuildingBlock: ZUJKAS_clean_linker_0, # of connection points: 2
#     Edge 29, Type (0, 1), BuildingBlock: ZUJKAS_clean_linker_0, # of connection points: 2
#     Edge 30, Type (0, 1), BuildingBlock: ZUJKAS_clean_linker_0, # of connection points: 2
#     Edge 31, Type (0, 1), BuildingBlock: ZUJKAS_clean_linker_0, # of connection points: 2
#     Edge 32, Type (0, 1), BuildingBlock: ZUJKAS_clean_linker_0, # of connection points: 2
#     Edge 33, Type (0, 1), BuildingBlock: ZUJKAS_clean_linker_0, # of connection points: 2
#     Edge 34, Type (0, 1), BuildingBlock: ZUJKAS_clean_linker_0, # of connection points: 2
#     Edge 35, Type (0, 1), BuildingBlock: ZUJKAS_clean_linker_0, # of connection points: 2
# Relax obj value: 0.144
# Max RMSD: 0.267
# Mean RMSD: 0.197
data_MOF--net-pyr--node1-BETDAH_clean_sbu_0--node2-QEWDON_clean_linker_0--edge1-ZUJKAS_clean_linker_0
_symmetry_space_group_name_H-M    P1
_symmetry_Int_Tables_number       1
_symmetry_cell_setting            triclinic
loop_
_symmetry_equiv_pos_as_xyz
'x, y, z'
_cell_length_a     49.620908
_cell_length_b     51.115072
_cell_length_c     49.476319
_cell_angle_alpha  91.658962
_cell_angle_beta   88.906724
_cell_angle_gamma 107.19747
loop_
_atom_site_label
_atom_site_type_symbol
_atom_site_fract_x
_atom_site_fract_y
_atom_site_fract_z
_atom_type_partial_charge
H0 H 0.39745 0.34869 0.20591 0.0
C1 C 0.38202 0.3431 0.22216 0.0
C2 C 0.37742 0.31776 0.23455 0.0
C3 C 0.36665 0.36112 0.23041 0.0
H4 H 0.35281 0.29041 0.26415 0.0
C5 C 0.3571 0.31039 0.25528 0.0
C6 C 0.34131 0.32797 0.26366 0.0
C7 C 0.34641 0.35339 0.25125 0.0
C8 C 0.37147 0.38784 0.21706 0.0
H9 H 0.33486 0.36737 0.25807 0.0
C10 C 0.34854 0.39725 0.21031 0.0
C11 C 0.35292 0.42244 0.19748 0.0
C12 C 0.399 0.40404 0.21089 0.0
H13 H 0.41708 0.39754 0.21611 0.0
C14 C 0.40351 0.42905 0.19824 0.0
H15 H 0.32724 0.3849 0.215 0.0
C16 C 0.38071 0.43822 0.19153 0.0
H17 H 0.38483 0.45748 0.18131 0.0
H18 H 0.4248 0.44136 0.19355 0.0
H19 H 0.23495 0.90095 0.7368 0.0
C20 C 0.25027 0.89386 0.72514 0.0
C21 C 0.27866 0.90176 0.73295 0.0
C22 C 0.24146 0.8764 0.70255 0.0
H23 H 0.31989 0.8976 0.72406 0.0
C24 C 0.29818 0.89245 0.71751 0.0
C25 C 0.28963 0.8751 0.69475 0.0
C26 C 0.2611 0.86705 0.68747 0.0
C27 C 0.21167 0.86792 0.6945 0.0
H28 H 0.25415 0.85371 0.66993 0.0
C29 C 0.19983 0.88722 0.68419 0.0
C30 C 0.17178 0.87924 0.67521 0.0
C31 C 0.19537 0.84045 0.69609 0.0
H32 H 0.20433 0.82529 0.70388 0.0
C33 C 0.16734 0.83244 0.68773 0.0
H34 H 0.21292 0.90822 0.68224 0.0
C35 C 0.15556 0.85165 0.67729 0.0
H36 H 0.13379 0.84493 0.6709 0.0
H37 H 0.15475 0.81124 0.68916 0.0
H38 H 0.69477 0.46082 0.91015 0.0
C39 C 0.68839 0.43936 0.91525 0.0
C40 C 0.70637 0.42891 0.93061 0.0
C41 C 0.66115 0.42277 0.90849 0.0
H42 H 0.71052 0.39298 0.95017 0.0
C43 C 0.69695 0.40136 0.93843 0.0
C44 C 0.67001 0.38449 0.93146 0.0
C45 C 0.65239 0.39526 0.91626 0.0
C46 C 0.64012 0.43495 0.89737 0.0
H47 H 0.63117 0.3826 0.91169 0.0
C48 C 0.64461 0.44908 0.87279 0.0
C49 C 0.62397 0.46045 0.86316 0.0
C50 C 0.615 0.43241 0.91209 0.0
H51 H 0.61117 0.42185 0.93111 0.0
C52 C 0.59473 0.44367 0.90269 0.0
H53 H 0.66389 0.45113 0.86127 0.0
C54 C 0.5991 0.45755 0.87845 0.0
H55 H 0.58273 0.46569 0.87142 0.0
H56 H 0.57546 0.44155 0.91422 0.0
H57 H 0.88648 0.78495 0.36257 0.0
C58 C 0.87154 0.77273 0.3769 0.0
C59 C 0.87204 0.78132 0.40427 0.0
C60 C 0.85078 0.74907 0.36775 0.0
H61 H 0.85091 0.77284 0.44308 0.0
C62 C 0.85158 0.76586 0.42224 0.0
C63 C 0.83088 0.74224 0.41329 0.0
C64 C 0.83078 0.73374 0.38612 0.0
C65 C 0.84677 0.74262 0.33854 0.0
H66 H 0.81409 0.71611 0.3789 0.0
C67 C 0.86487 0.73099 0.32341 0.0
C68 C 0.85878 0.72282 0.29617 0.0
C69 C 0.82324 0.74681 0.32611 0.0
H70 H 0.8091 0.7557 0.33749 0.0
C71 C 0.81761 0.73939 0.29902 0.0
H72 H 0.88282 0.72734 0.33304 0.0
C73 C 0.83512 0.72732 0.28417 0.0
H74 H 0.83018 0.7215 0.26319 0.0
H75 H 0.79943 0.74271 0.28959 0.0
H76 H 0.71459 0.79987 0.91781 0.0
C77 C 0.72496 0.81323 0.9017 0.0
C78 C 0.75233 0.81382 0.89338 0.0
C79 C 0.71078 0.82969 0.88923 0.0
H80 H 0.78681 0.8322 0.86637 0.0
C81 C 0.76536 0.83103 0.87232 0.0
C82 C 0.75141 0.84729 0.85929 0.0
C83 C 0.72419 0.84684 0.86817 0.0
C84 C 0.68153 0.82806 0.89769 0.0
H85 H 0.71304 0.85904 0.85813 0.0
C86 C 0.67402 0.85188 0.90479 0.0
C87 C 0.64637 0.85005 0.91374 0.0
C88 C 0.66108 0.8024 0.89917 0.0
H89 H 0.66634 0.78381 0.89365 0.0
C90 C 0.63361 0.80048 0.90759 0.0
H91 H 0.68977 0.8717 0.90369 0.0
C92 C 0.62628 0.82405 0.91493 0.0
H93 H 0.60499 0.82182 0.92214 0.0
H94 H 0.618 0.7806 0.90872 0.0
H95 H 0.75405 0.20526 0.53508 0.0
C96 C 0.74545 0.20629 0.51529 0.0
C97 C 0.75972 0.2008 0.4921 0.0
C98 C 0.72052 0.2137 0.51318 0.0
H99 H 0.75966 0.19825 0.4486 0.0
C100 C 0.74881 0.20274 0.46657 0.0
C101 C 0.72375 0.20988 0.46401 0.0
C102 C 0.70988 0.21571 0.48743 0.0
C103 C 0.70566 0.21909 0.53803 0.0
H104 H 0.69029 0.22081 0.48566 0.0
C105 C 0.69628 0.24244 0.54031 0.0
C106 C 0.68318 0.24825 0.56426 0.0
C107 C 0.70153 0.20132 0.5599 0.0
H108 H 0.70835 0.18305 0.55858 0.0
C109 C 0.68836 0.20687 0.58363 0.0
H110 H 0.70003 0.25655 0.52376 0.0
C111 C 0.67929 0.23022 0.58589 0.0
H112 H 0.66897 0.23402 0.60445 0.0
H113 H 0.68518 0.19303 0.60034 0.0
H114 H 0.41589 0.79015 0.26183 0.0
C115 C 0.39493 0.78098 0.25381 0.0
C116 C 0.38212 0.79671 0.23839 0.0
C117 C 0.38155 0.75295 0.25751 0.0
H118 H 0.34542 0.79584 0.21524 0.0
C119 C 0.35526 0.78407 0.22749 0.0
C120 C 0.34156 0.75604 0.23099 0.0
C121 C 0.35488 0.74071 0.24618 0.0
C122 C 0.39734 0.73535 0.26877 0.0
H123 H 0.34521 0.71884 0.24805 0.0
C124 C 0.40556 0.73744 0.29611 0.0
C125 C 0.42089 0.72038 0.30578 0.0
C126 C 0.40443 0.71615 0.25139 0.0
H127 H 0.39835 0.71427 0.23033 0.0
C128 C 0.41965 0.69942 0.26084 0.0
H129 H 0.40006 0.75214 0.30968 0.0
C130 C 0.42785 0.7015 0.28778 0.0
H131 H 0.43927 0.68791 0.29468 0.0
H132 H 0.42503 0.68471 0.24725 0.0
H133 H 0.23081 0.46217 0.76752 0.0
C134 C 0.21972 0.44478 0.7549 0.0
C135 C 0.22842 0.44254 0.72786 0.0
C136 C 0.19769 0.42388 0.76625 0.0
H137 H 0.22121 0.41686 0.69165 0.0
C138 C 0.21398 0.41943 0.71207 0.0
C139 C 0.19157 0.39855 0.72301 0.0
C140 C 0.18357 0.40107 0.75012 0.0
C141 C 0.19175 0.42392 0.79574 0.0
H142 H 0.16654 0.38502 0.75895 0.0
C143 C 0.18506 0.44598 0.80913 0.0
C144 C 0.18015 0.44553 0.83733 0.0
C145 C 0.19338 0.40153 0.81076 0.0
H146 H 0.19867 0.38444 0.80093 0.0
C147 C 0.18871 0.40113 0.83861 0.0
H148 H 0.18363 0.46329 0.79771 0.0
C149 C 0.18219 0.42295 0.85185 0.0
H150 H 0.17825 0.42197 0.87346 0.0
H151 H 0.19009 0.38381 0.84998 0.0
Ho152 Ho 0.0426 0.10698 0.52324 0.0
Ho153 Ho 0.02803 0.0834 0.58005 0.0
C154 C 0.06555 0.14535 0.57654 0.0
C155 C 0.04874 0.1348 0.47956 0.0
C156 C 0.07061 0.1575 0.46757 0.0
C157 C 0.06789 0.16426 0.44076 0.0
C158 C 0.08967 0.18405 0.4281 0.0
C159 C 0.11461 0.19742 0.44206 0.0
C160 C 0.11689 0.19107 0.46927 0.0
C161 C 0.09504 0.17122 0.48192 0.0
C162 C 0.0792 0.08272 0.54358 0.0
C163 C 1.00802 0.04457 0.5265 0.0
C164 C 0.01951 0.05529 0.62369 0.0
C165 C 0.99471 0.03814 0.63835 0.0
C166 C 0.9956 1.01333 0.64905 0.0
C167 C 0.97277 0.99738 0.66404 0.0
C168 C 0.94863 1.00605 0.66882 0.0
C169 C 0.94762 1.0307 0.65754 0.0
C170 C 0.97035 0.0465 0.64235 0.0
C171 C 0.99092 0.1069 0.5597 0.0
O172 O 0.05768 0.14441 0.55099 0.0
O173 O 0.06114 0.12272 0.59049 0.0
O174 O 0.05534 0.11198 0.48133 0.0
O175 O 0.03612 0.14064 0.50138 0.0
O176 O 0.07414 0.08291 0.51802 0.0
O177 O 0.06676 0.09736 0.55628 0.0
O178 O 0.01638 0.04601 0.55193 0.0
O179 O 0.01093 0.06695 0.51259 0.0
O180 O 0.02217 0.08149 0.62331 0.0
O181 O 0.0255 0.04563 0.60033 0.0
O182 O 0.99564 0.10629 0.58524 0.0
O183 O 1.00351 0.0925 0.54683 0.0
H184 H 0.04922 0.15367 0.42937 0.0
H185 H 0.08738 0.1881 0.40703 0.0
H186 H 0.13568 0.2012 0.48066 0.0
H187 H 0.09745 0.16615 0.50268 0.0
H188 H 0.0141 1.0064 0.646 0.0
H189 H 0.97409 0.97827 0.67194 0.0
H190 H 0.92958 0.03822 0.661 0.0
H191 H 0.96903 0.0655 0.63415 0.0
Ho192 Ho 0.55718 0.10197 0.09591 0.0
Ho193 Ho 0.49897 0.07865 0.07426 0.0
C194 C 0.50532 0.12074 0.12254 0.0
C195 C 0.6041 0.13368 0.11486 0.0
C196 C 0.61134 0.14749 0.14127 0.0
C197 C 0.63908 0.16324 0.14666 0.0
C198 C 0.64628 0.1748 0.17248 0.0
C199 C 0.62579 0.17067 0.19328 0.0
C200 C 0.5978 0.15551 0.18745 0.0
C201 C 0.59067 0.14397 0.1617 0.0
C202 C 0.52725 0.0544 0.11856 0.0
C203 C 0.55071 0.05911 0.04778 0.0
C204 C 0.45049 0.04902 0.0565 0.0
C205 C 0.4372 0.03852 0.03027 0.0
C206 C 0.43908 1.01366 1.01872 0.0
C207 C 0.42535 1.00344 0.9945 0.0
C208 C 0.40935 1.0178 0.98141 0.0
C209 C 0.40765 0.04272 0.99294 0.0
C210 C 0.42126 0.05286 1.01713 0.0
C211 C 0.52944 0.12612 0.05155 0.0
O212 O 0.53258 0.12787 0.11673 0.0
O213 O 0.48811 0.09801 0.11224 0.0
O214 O 0.59716 0.10697 0.11516 0.0
O215 O 0.58697 0.14242 0.10029 0.0
O216 O 0.55413 0.06125 0.11387 0.0
O217 O 0.51776 0.07382 0.11282 0.0
O218 O 0.52322 0.05287 0.05268 0.0
O219 O 0.56855 0.08096 0.05913 0.0
O220 O 0.45707 0.07548 0.06076 0.0
O221 O 0.46975 0.03864 0.06532 0.0
O222 O 0.50262 0.11967 0.05632 0.0
O223 O 0.53842 0.10643 0.05724 0.0
H224 H 0.65528 0.16607 0.1311 0.0
H225 H 0.66806 0.18611 0.17642 0.0
H226 H 0.58148 0.15225 0.20291 0.0
H227 H 0.56913 0.1318 0.15789 0.0
H228 H 0.45088 1.00191 0.02851 0.0
H229 H 0.42677 0.98399 0.98636 0.0
H230 H 0.39584 0.05449 0.98321 0.0
H231 H 0.41914 0.07194 0.02563 0.0
Ho232 Ho 0.53615 0.58511 0.56762 0.0
Ho233 Ho 0.53705 0.63132 0.60681 0.0
C234 C 0.55879 0.58413 0.62934 0.0
C235 C 0.54998 0.54849 0.5382 0.0
C236 C 0.56265 0.52643 0.54379 0.0
C237 C 0.59183 0.53086 0.54028 0.0
C238 C 0.60405 0.51036 0.54615 0.0
C239 C 0.58733 0.48493 0.55549 0.0
C240 C 0.55812 0.48041 0.55874 0.0
C241 C 0.5459 0.5009 0.5529 0.0
C242 C 0.4869 0.57992 0.59398 0.0
C243 C 0.51302 0.63164 0.54579 0.0
C244 C 0.52673 0.66972 0.63639 0.0
C245 C 0.51301 0.6912 0.63249 0.0
C246 C 0.48541 0.68488 0.62265 0.0
C247 C 0.47241 0.70547 0.6203 0.0
C248 C 0.48684 0.73281 0.62747 0.0
C249 C 0.51487 0.73916 0.63629 0.0
C250 C 0.52775 0.71852 0.63891 0.0
C251 C 0.58582 0.63551 0.5799 0.0
O252 O 0.55868 0.57526 0.60387 0.0
O253 O 0.54821 0.60421 0.63633 0.0
O254 O 0.52435 0.5454 0.54738 0.0
O255 O 0.56639 0.57359 0.54159 0.0
O256 O 0.4888 0.57257 0.56886 0.0
O257 O 0.51113 0.58838 0.60424 0.0
O258 O 0.51254 0.63989 0.57142 0.0
O259 O 0.52474 0.61243 0.53848 0.0
O260 O 0.55052 0.67272 0.6233 0.0
O261 O 0.51049 0.64433 0.63601 0.0
O262 O 0.58454 0.64202 0.6053 0.0
O263 O 0.56147 0.62797 0.5701 0.0
H264 H 0.60529 0.55026 0.53314 0.0
H265 H 0.62664 0.51453 0.5436 0.0
H266 H 0.54459 0.46084 0.5654 0.0
H267 H 0.52331 0.49668 0.55556 0.0
H268 H 0.47362 0.66399 0.61726 0.0
H269 H 0.45068 0.69972 0.61381 0.0
H270 H 0.52677 0.76004 0.64154 0.0
H271 H 0.54917 0.72386 0.64627 0.0
Ho272 Ho 0.03291 0.57176 0.06946 0.0
Ho273 Ho 0.03083 0.62868 0.05388 0.0
C274 C 0.08461 0.62637 0.08631 0.0
C275 C 0.04778 0.52786 0.07522 0.0
C276 C 0.07161 0.52085 0.0871 0.0
C277 C 0.0795 0.49854 0.0763 0.0
C278 C 0.10229 0.49165 0.08697 0.0
C279 C 0.11764 0.50696 0.10874 0.0
C280 C 0.10976 0.52953 0.11937 0.0
C281 C 0.08697 0.53644 0.1086 0.0
C282 C 1.00532 0.59611 0.10467 0.0
C283 C 0.97848 0.57427 0.0384 0.0
C284 C 0.01646 0.67259 0.04655 0.0
C285 C 0.99245 0.67944 0.03469 0.0
C286 C 0.9644 0.66405 0.04009 0.0
C287 C 0.94203 0.67124 0.02877 0.0
C288 C 0.94733 0.69375 1.01166 0.0
C289 C 0.97542 0.7089 1.00615 0.0
C290 C 0.99774 0.70184 1.01762 0.0
C291 C 0.05835 0.60395 1.01886 0.0
O292 O 0.07606 0.59947 0.08172 0.0
O293 O 0.06896 0.64216 0.07993 0.0
O294 O 0.03084 0.53566 0.09207 0.0
O295 O 0.05377 0.54282 0.05368 0.0
O296 O 0.99774 0.5699 0.09956 0.0
O297 O 0.02786 0.60763 0.09217 0.0
O298 O 0.98716 0.60113 0.0431 0.0
O299 O 0.99437 0.55846 0.04393 0.0
O300 O 0.03252 0.66373 0.0296 0.0
O301 O 0.01154 0.65899 0.06903 0.0
O302 O 0.0664 0.63011 0.02423 0.0
O303 O 0.03566 0.59277 0.03123 0.0
H304 H 0.06809 0.48649 0.05948 0.0
H305 H 0.1081 0.47452 0.07792 0.0
H306 H 0.12095 0.54163 0.13624 0.0
H307 H 0.08131 0.5539 0.11709 0.0
H308 H 0.95974 0.64652 0.05305 0.0
H309 H 0.9206 0.65905 0.03316 0.0
H310 H 0.98016 0.72653 0.99331 0.0
H311 H 0.0192 0.71397 1.01322 0.0
H312 H 0.3426 0.30075 0.31035 0.0
H313 H 0.30395 0.28304 0.34261 0.0
H314 H 0.25073 0.31851 0.29723 0.0
H315 H 0.2888 0.3353 0.26427 0.0
H316 H 0.27249 0.30907 0.37529 0.0
H317 H 0.20497 0.23786 0.29988 0.0
H318 H 0.24187 0.25488 0.29373 0.0
H319 H 0.21621 0.27306 0.29024 0.0
C320 C 0.32262 0.30465 0.30714 0.0
C321 C 0.31871 0.31919 0.28456 0.0
C322 C 0.30064 0.29471 0.32571 0.0
C323 C 0.27436 0.29908 0.32204 0.0
C324 C 0.27071 0.31449 0.30015 0.0
H325 H 0.11306 0.23627 0.40555 0.0
H326 H 0.15217 0.2638 0.37807 0.0
C327 C 0.29261 0.32434 0.2815 0.0
C328 C 0.25056 0.28678 0.34069 0.0
H329 H 0.18483 0.24075 0.34307 0.0
C330 C 0.25329 0.29416 0.36828 0.0
C331 C 0.22559 0.26728 0.33145 0.0
C332 C 0.22197 0.25756 0.30227 0.0
C333 C 0.23159 0.28264 0.3869 0.0
C334 C 0.20672 0.26306 0.37765 0.0
C335 C 0.20388 0.25593 0.35003 0.0
C336 C 0.18378 0.24871 0.3963 0.0
C337 C 0.23532 0.29166 0.41624 0.0
C338 C 0.18868 0.23127 0.41576 0.0
C339 C 0.16637 0.21538 0.43135 0.0
C340 C 0.1387 0.21653 0.42765 0.0
C341 C 0.13405 0.23466 0.40867 0.0
C342 C 0.15637 0.25051 0.39306 0.0
H343 H 0.25184 0.31166 0.41882 0.0
H344 H 0.21523 0.29339 0.42526 0.0
H345 H 0.24186 0.2762 0.42762 0.0
H346 H 0.20957 0.22914 0.41816 0.0
H347 H 0.17063 0.2013 0.44544 0.0
H348 H 0.25254 0.89463 0.78245 0.0
H349 H 0.27105 0.91732 0.82535 0.0
H350 H 0.34475 0.96707 0.78371 0.0
H351 H 0.3261 0.94493 0.74069 0.0
H352 H 0.32213 0.91518 0.8466 0.0
H353 H 0.32226 1.02271 0.83395 0.0
H354 H 0.30151 0.99469 0.81304 0.0
H355 H 0.33861 1.00921 0.8064 0.0
C356 C 0.2723 0.91094 0.78234 0.0
C357 C 0.2879 0.918 0.75823 0.0
C358 C 0.28292 0.92374 0.80686 0.0
C359 C 0.30915 0.94399 0.80765 0.0
C360 C 0.32426 0.9518 0.78349 0.0
H361 H 0.42782 0.99259 0.93829 0.0
H362 H 0.40246 0.9743 0.89667 0.0
C363 C 0.31371 0.93897 0.75898 0.0
C364 C 0.32195 0.95508 0.83391 0.0
H365 H 0.34921 1.01442 0.87048 0.0
C366 C 0.32784 0.93685 0.85194 0.0
C367 C 0.32923 0.98332 0.84083 0.0
C368 C 0.32237 1.00363 0.82267 0.0
C369 C 0.34146 0.94619 0.87648 0.0
C370 C 0.34966 0.97453 0.88295 0.0
C371 C 0.34313 0.99272 0.86527 0.0
C372 C 0.36504 0.98567 0.90804 0.0
C373 C 0.34688 0.92566 0.89534 0.0
C374 C 0.35251 0.99844 0.92796 0.0
C375 C 0.36685 1.00876 0.9518 0.0
C376 C 0.39412 1.00672 0.95605 0.0
C377 C 0.40669 0.9941 0.93587 0.0
C378 C 0.39228 0.98371 0.91206 0.0
H379 H 0.33357 0.90448 0.89047 0.0
H380 H 0.36932 0.92608 0.89348 0.0
H381 H 0.34277 0.93083 0.91669 0.0
H382 H 0.33148 1.00011 0.92519 0.0
H383 H 0.3564 1.01801 0.96707 0.0
H384 H 0.61524 0.50948 0.85356 0.0
H385 H 0.61196 0.52918 0.8098 0.0
H386 H 0.63652 0.46368 0.76953 0.0
H387 H 0.63931 0.44347 0.81354 0.0
H388 H 0.64989 0.54692 0.76664 0.0
H389 H 0.55941 0.4575 0.7364 0.0
H390 H 0.57207 0.46306 0.77066 0.0
H391 H 0.59142 0.45024 0.74514 0.0
C392 C 0.62024 0.4994 0.8354 0.0
C393 C 0.62721 0.47474 0.83697 0.0
C394 C 0.61843 0.51073 0.8104 0.0
C395 C 0.62342 0.49763 0.78633 0.0
C396 C 0.63204 0.47386 0.78783 0.0
H397 H 0.58013 0.5402 0.62425 0.0
H398 H 0.59922 0.51882 0.66008 0.0
C399 C 0.63396 0.46251 0.81297 0.0
C400 C 0.618 0.50837 0.75997 0.0
H401 H 0.57212 0.49453 0.70708 0.0
C402 C 0.63311 0.53534 0.75344 0.0
C403 C 0.59612 0.49325 0.7427 0.0
C404 C 0.57861 0.46447 0.74903 0.0
C405 C 0.62647 0.54782 0.73057 0.0
C406 C 0.60376 0.53314 0.714 0.0
C407 C 0.58947 0.50578 0.71982 0.0
C408 C 0.59308 0.54648 0.69193 0.0
C409 C 0.64369 0.57676 0.72451 0.0
C410 C 0.5829 0.56887 0.69795 0.0
C411 C 0.57194 0.58106 0.67762 0.0
C412 C 0.57073 0.57107 0.65072 0.0
C413 C 0.58081 0.54851 0.64471 0.0
C414 C 0.59174 0.53625 0.66516 0.0
H415 H 0.66508 0.58179 0.73338 0.0
H416 H 0.6459 0.58002 0.70239 0.0
H417 H 0.633 0.59122 0.73353 0.0
H418 H 0.58306 0.57672 0.71853 0.0
H419 H 0.56428 0.59828 0.6831 0.0
H420 H 0.91613 0.73948 0.28812 0.0
H421 H 0.94348 0.71901 0.25644 0.0
H422 H 0.86793 0.65411 0.23673 0.0
H423 H 0.84061 0.67479 0.26766 0.0
H424 H 0.95329 0.66892 0.25158 0.0
H425 H 0.89359 0.68445 0.16308 0.0
H426 H 0.89079 0.69992 0.19584 0.0
H427 H 0.871 0.66483 0.18863 0.0
C428 C 0.90552 0.72069 0.27719 0.0
C429 C 0.87623 0.70891 0.27999 0.0
C430 C 0.9211 0.70907 0.25907 0.0
C431 C 0.90759 0.68545 0.24362 0.0
C432 C 0.87865 0.67281 0.24773 0.0
H433 H 0.95488 0.57485 0.13042 0.0
H434 H 0.9325 0.59764 0.16458 0.0
C435 C 0.86309 0.68454 0.26552 0.0
C436 C 0.9234 0.67419 0.2228 0.0
H437 H 0.92268 0.65499 0.15595 0.0
C438 C 0.94677 0.66613 0.23064 0.0
C439 C 0.91506 0.67076 0.19535 0.0
C440 C 0.89143 0.68071 0.18514 0.0
C441 C 0.96134 0.65386 0.21195 0.0
C442 C 0.95228 0.64957 0.18485 0.0
C443 C 0.92934 0.6581 0.17686 0.0
C444 C 0.96611 0.63589 0.16449 0.0
C445 C 0.98592 0.64493 0.2213 0.0
C446 C 0.99222 0.65004 0.15299 0.0
C447 C 1.0049 0.63717 0.13334 0.0
C448 C 0.9917 0.60991 0.12501 0.0
C449 C 0.96553 0.59584 0.13653 0.0
C450 C 0.95275 0.60879 0.15602 0.0
H451 H 0.98871 0.64737 0.24355 0.0
H452 H 0.9829 0.62314 0.21535 0.0
H453 H 1.00556 0.65733 0.21127 0.0
H454 H 1.0027 0.67105 0.15915 0.0
H455 H 0.02512 0.64848 0.12481 0.0
H456 H 0.38601 0.30221 0.18263 0.0
H457 H 0.40974 0.26861 0.16741 0.0
H458 H 0.42832 0.25655 0.25016 0.0
H459 H 0.40398 0.28968 0.2655 0.0
H460 H 0.46292 0.26728 0.17216 0.0
H461 H 0.39099 0.17891 0.22501 0.0
H462 H 0.38333 0.21106 0.22213 0.0
H463 H 0.40755 0.20722 0.24724 0.0
C464 C 0.39529 0.29248 0.19755 0.0
C465 C 0.39303 0.29842 0.22525 0.0
C466 C 0.40877 0.27325 0.18885 0.0
C467 C 0.42036 0.25966 0.20767 0.0
C468 C 0.41886 0.26618 0.23532 0.0
H469 H 0.53427 0.16557 0.15294 0.0
H470 H 0.51499 0.19902 0.17638 0.0
C471 C 0.40509 0.28519 0.24405 0.0
C472 C 0.43405 0.2388 0.19818 0.0
H473 H 0.43116 0.17152 0.20333 0.0
C474 C 0.45602 0.24634 0.179 0.0
C475 C 0.42479 0.2114 0.2069 0.0
C476 C 0.4002 0.20154 0.22625 0.0
C477 C 0.46882 0.22724 0.1681 0.0
C478 C 0.45997 0.19998 0.17724 0.0
C479 C 0.43816 0.19249 0.19659 0.0
C480 C 0.47166 0.17848 0.16556 0.0
C481 C 0.49091 0.23624 0.14613 0.0
C482 C 0.45357 0.15505 0.15298 0.0
C483 C 0.46444 0.13566 0.14003 0.0
C484 C 0.49368 0.13939 0.13928 0.0
C485 C 0.51167 0.16225 0.15291 0.0
C486 C 0.50071 0.1815 0.16614 0.0
H487 H 0.48995 0.2554 0.13669 0.0
H488 H 0.51216 0.24023 0.15499 0.0
H489 H 0.48838 0.22012 0.13005 0.0
H490 H 0.43106 0.15219 0.1524 0.0
H491 H 0.44998 0.11829 0.12974 0.0
H492 H 0.17936 0.9327 0.69104 0.0
H493 H 0.16329 0.96702 0.66807 0.0
H494 H 0.1214 0.90617 0.60845 0.0
H495 H 0.13804 0.87181 0.63075 0.0
H496 H 0.17507 0.9797 0.6088 0.0
H497 H 0.06148 0.94529 0.63889 0.0
H498 H 0.08845 0.93725 0.65816 0.0
H499 H 0.07716 0.91954 0.62666 0.0
C500 C 0.16679 0.9266 0.673 0.0
C501 C 0.16006 0.89952 0.66268 0.0
C502 C 0.15754 0.94619 0.66002 0.0
C503 C 0.14114 0.939 0.63671 0.0
C504 C 0.13384 0.91195 0.62661 0.0
H505 H 0.09956 0.04389 0.51888 0.0
H506 H 0.11588 1.00898 0.54096 0.0
C507 C 0.14323 0.89234 0.63948 0.0
C508 C 0.13259 0.96011 0.62238 0.0
H509 H 0.07579 0.98204 0.60884 0.0
C510 C 0.15338 0.98025 0.60871 0.0
C511 C 0.10431 0.96065 0.62252 0.0
C512 C 0.08146 0.93967 0.63744 0.0
C513 C 0.14654 1.00102 0.59501 0.0
C514 C 0.11824 1.00149 0.59504 0.0
C515 C 0.09746 0.98141 0.6088 0.0
C516 C 0.10986 1.02321 0.58159 0.0
C517 C 0.16958 1.0226 0.58096 0.0
C518 C 0.10128 0.04266 0.59724 0.0
C519 C 0.09223 0.06263 0.58475 0.0
C520 C 0.09126 0.06319 0.55643 0.0
C521 C 0.10024 0.04393 0.54075 0.0
C522 C 0.10952 1.02404 0.55329 0.0
H523 H 0.19094 1.02167 0.58623 0.0
H524 H 0.16705 1.0196 0.55875 0.0
H525 H 0.16803 0.04335 0.58636 0.0
H526 H 0.10141 0.04225 0.61912 0.0
H527 H 0.08542 0.07727 0.59729 0.0
H528 H 0.72945 0.43077 0.98067 0.0
H529 H 0.77541 0.45907 0.99626 0.0
H530 H 0.79206 0.49721 0.91865 0.0
H531 H 0.74619 0.46813 0.90247 0.0
H532 H 0.83707 0.4817 0.93696 0.0
H533 H 0.79926 0.53986 1.01762 0.0
H534 H 0.78462 0.50352 1.02085 0.0
H535 H 0.77631 0.51996 0.99179 0.0
C536 C 0.7429 0.44502 0.96678 0.0
C537 C 0.73414 0.44701 0.94021 0.0
C538 C 0.76906 0.4615 0.97589 0.0
C539 C 0.78703 0.48062 0.95881 0.0
C540 C 0.77844 0.48275 0.93227 0.0
H541 H 0.94048 0.59991 1.02155 0.0
H542 H 0.89475 0.57888 1.00031 0.0
C543 C 0.75217 0.46622 0.92309 0.0
C544 C 0.81521 0.49744 0.96848 0.0
H545 H 0.84781 0.54085 1.01974 0.0
C546 C 0.83943 0.49487 0.95488 0.0
C547 C 0.81834 0.51498 0.99164 0.0
C548 C 0.79325 0.52 1.00616 0.0
C549 C 0.86661 0.50845 0.96445 0.0
C550 C 0.86967 0.52465 0.98855 0.0
C551 C 0.84549 0.52814 1.00149 0.0
C552 C 0.89767 0.5375 1.00108 0.0
C553 C 0.8918 0.50533 0.94859 0.0
C554 C 0.91437 0.52123 1.00899 0.0
C555 C 0.94053 0.53316 1.02109 0.0
C556 C 0.95051 0.56167 0.0258 0.0
C557 C 0.93355 0.57791 1.0182 0.0
C558 C 0.90736 0.56593 1.00604 0.0
H559 H 0.88648 0.49965 0.92708 0.0
H560 H 0.90963 0.52453 0.94939 0.0
H561 H 0.89887 0.48876 0.95737 0.0
H562 H 0.90705 0.49919 1.00603 0.0
H563 H 0.95287 0.51996 0.02683 0.0
H564 H 0.8152 0.68902 0.42928 0.0
H565 H 0.77588 0.66676 0.4597 0.0
H566 H 0.75364 0.74222 0.46716 0.0
H567 H 0.79374 0.76468 0.43816 0.0
H568 H 0.75031 0.72112 0.51395 0.0
H569 H 0.69471 0.63827 0.4422 0.0
H570 H 0.72972 0.63757 0.44952 0.0
H571 H 0.7246 0.66617 0.43211 0.0
C572 C 0.80184 0.70071 0.43756 0.0
C573 C 0.80737 0.72848 0.43155 0.0
C574 C 0.77926 0.68797 0.4547 0.0
C575 C 0.76135 0.70262 0.46535 0.0
C576 C 0.76707 0.73043 0.45926 0.0
H577 H 0.59136 0.64204 0.52555 0.0
H578 H 0.63514 0.65663 0.49913 0.0
C579 C 0.78994 0.74326 0.44269 0.0
C580 C 0.73686 0.68947 0.48317 0.0
H581 H 0.67588 0.63654 0.48661 0.0
C582 C 0.73403 0.70262 0.50794 0.0
C583 C 0.71544 0.66544 0.47528 0.0
C584 C 0.71607 0.65119 0.44822 0.0
C585 C 0.71015 0.69296 0.52463 0.0
C586 C 0.68901 0.66861 0.51702 0.0
C587 C 0.69217 0.65505 0.49258 0.0
C588 C 0.66253 0.65797 0.53307 0.0
C589 C 0.70734 0.70983 0.54951 0.0
C590 C 0.66317 0.65313 0.56085 0.0
C591 C 0.63815 0.64551 0.57611 0.0
C592 C 0.61205 0.64171 0.56366 0.0
C593 C 0.61126 0.64496 0.53565 0.0
C594 C 0.63628 0.65323 0.52053 0.0
H595 H 0.7209 0.73137 0.54808 0.0
H596 H 0.68519 0.71 0.55276 0.0
H597 H 0.71408 0.70099 0.56747 0.0
H598 H 0.68302 0.65565 0.57084 0.0
H599 H 0.63922 0.64269 0.59764 0.0
H600 H 0.30203 0.39213 0.17671 0.0
H601 H 0.26237 0.40828 0.16406 0.0
H602 H 0.30907 0.4907 0.18813 0.0
H603 H 0.34865 0.47471 0.20144 0.0
H604 H 0.23195 0.43855 0.19808 0.0
H605 H 0.28494 0.49578 0.10827 0.0
H606 H 0.29712 0.46969 0.12349 0.0
H607 H 0.30417 0.50298 0.13942 0.0
C608 C 0.3038 0.41365 0.17963 0.0
C609 C 0.32861 0.43213 0.19004 0.0
C610 C 0.28116 0.42285 0.17224 0.0
C611 C 0.28297 0.4507 0.17489 0.0
C612 C 0.30748 0.46918 0.18554 0.0
H613 H 0.16852 0.54109 0.12603 0.0
H614 H 0.20817 0.52819 0.14429 0.0
C615 C 0.3301 0.46 0.19305 0.0
C616 C 0.25912 0.46035 0.16652 0.0
H617 H 0.23947 0.49855 0.1195 0.0
C618 C 0.23353 0.45168 0.18092 0.0
C619 C 0.26141 0.47762 0.14425 0.0
C620 C 0.28828 0.48699 0.12776 0.0
C621 C 0.2101 0.45993 0.17369 0.0
C622 C 0.21216 0.47672 0.15102 0.0
C623 C 0.23792 0.48568 0.13685 0.0
C624 C 0.18764 0.48454 0.14109 0.0
C625 C 0.18352 0.4509 0.19065 0.0
C626 C 0.16301 0.4643 0.13308 0.0
C627 C 0.14022 0.47159 0.12293 0.0
C628 C 0.1417 0.49931 0.12023 0.0
C629 C 0.16648 0.51956 0.1282 0.0
C630 C 0.18924 0.51223 0.13847 0.0
H631 H 0.18803 0.44571 0.21141 0.0
H632 H 0.17269 0.46705 0.19213 0.0
H633 H 0.1689 0.43227 0.18119 0.0
H634 H 0.16151 0.44279 0.13436 0.0
H635 H 0.1214 0.45545 0.11727 0.0
H636 H 0.66926 0.36908 0.98373 0.0
H637 H 0.64827 0.32355 1.00201 0.0
H638 H 0.62586 0.29077 0.9214 0.0
H639 H 0.64567 0.33674 0.90326 0.0
H640 H 0.58365 0.27165 0.95267 0.0
H641 H 0.67573 0.25876 1.00526 0.0
H642 H 0.66827 0.28926 1.01738 0.0
H643 H 0.67876 0.28647 0.98256 0.0
C644 C 0.66021 0.35205 0.9699 0.0
C645 C 0.65926 0.35636 0.94207 0.0
C646 C 0.64837 0.32595 0.98034 0.0
C647 C 0.63601 0.3034 0.9631 0.0
C648 C 0.63538 0.3077 0.93518 0.0
H649 H 0.58139 0.13682 0.02706 0.0
H650 H 0.60753 0.17869 1.0038 0.0
C651 C 0.64672 0.33394 0.92479 0.0
C652 C 0.62202 0.27585 0.97437 0.0
H653 H 0.63036 0.22929 1.01925 0.0
C654 C 0.59407 0.26228 0.96697 0.0
C655 C 0.63559 0.26313 0.99265 0.0
C656 C 0.66634 0.27505 0.99966 0.0
C657 C 0.5791 0.23699 0.97791 0.0
C658 C 0.59195 0.22534 0.99777 0.0
C659 C 0.62023 0.23838 1.00446 0.0
C660 C 0.5763 0.19994 1.01207 0.0
C661 C 0.54979 0.22291 0.96764 0.0
C662 C 0.55035 0.19805 0.02501 0.0
C663 C 0.53521 0.17401 0.03778 0.0
C664 C 0.54604 0.1516 0.03855 0.0
C665 C 0.5725 0.15377 0.0266 0.0
C666 C 0.58744 0.17769 1.01336 0.0
H667 H 0.5472 0.22901 0.9467 0.0
H668 H 0.54492 0.20027 0.96782 0.0
H669 H 0.53415 0.22905 0.98069 0.0
H670 H 0.54174 0.2152 0.02528 0.0
H671 H 0.51507 0.17304 0.04722 0.0
H672 H 0.90244 0.79137 0.45089 0.0
H673 H 0.92862 0.83597 0.47045 0.0
H674 H 0.91192 0.87573 0.39971 0.0
H675 H 0.88563 0.83113 0.37999 0.0
H676 H 0.96796 0.89773 0.42032 0.0
H677 H 0.8859 0.8888 0.50036 0.0
H678 H 0.90069 0.86069 0.49815 0.0
H679 H 0.88036 0.86668 0.47059 0.0
C680 C 0.90458 0.80959 0.43938 0.0
C681 C 0.89174 0.80775 0.414 0.0
C682 C 0.91947 0.83505 0.45061 0.0
C683 C 0.92166 0.85918 0.43678 0.0
C684 C 0.91032 0.85734 0.41077 0.0
H685 H 0.98717 0.0335 0.4752 0.0
H686 H 0.96709 0.98868 0.45324 0.0
C687 C 0.89545 0.83184 0.39947 0.0
C688 C 0.93458 0.88633 0.45002 0.0
H689 H 0.92675 0.92689 0.50391 0.0
C690 C 0.95895 0.90418 0.43855 0.0
C691 C 0.92272 0.89468 0.47379 0.0
C692 C 0.89584 0.87686 0.48638 0.0
C693 C 0.97212 0.92999 0.45052 0.0
C694 C 0.96025 0.93832 0.47431 0.0
C695 C 0.93586 0.92044 0.48574 0.0
C696 C 0.9726 0.96558 0.48759 0.0
C697 C 0.99893 0.94786 0.43793 0.0
C698 C 0.98163 0.96752 0.51449 0.0
C699 C 0.99293 0.99314 0.52722 0.0
C700 C 0.99526 1.01736 0.51333 0.0
C701 C 0.98583 1.01531 0.48648 0.0
C702 C 0.97453 0.98968 0.47379 0.0
H703 H 1.00922 0.93581 0.42444 0.0
H704 H 0.99388 0.96355 0.4256 0.0
H705 H 0.01416 0.95861 0.4537 0.0
H706 H 0.98014 0.94917 0.52558 0.0
H707 H 0.99997 0.99393 0.5479 0.0
H708 H 0.28202 0.82261 0.67607 0.0
H709 H 0.31791 0.803 0.65741 0.0
H710 H 0.38 0.88235 0.66235 0.0
H711 H 0.34399 0.90242 0.68025 0.0
H712 H 0.3843 0.84834 0.61434 0.0
H713 H 0.37817 0.79612 0.71226 0.0
H714 H 0.34505 0.78984 0.69536 0.0
H715 H 0.36317 0.8238 0.70765 0.0
C716 C 0.3031 0.83607 0.67249 0.0
C717 C 0.31028 0.86401 0.67996 0.0
C718 C 0.32359 0.82479 0.66199 0.0
C719 C 0.35158 0.84121 0.65894 0.0
C720 C 0.35849 0.86939 0.66471 0.0
H721 H 0.4913 0.77416 0.66497 0.0
H722 H 0.46214 0.80488 0.6694 0.0
C723 C 0.33798 0.88073 0.67515 0.0
C724 C 0.37407 0.82845 0.65256 0.0
H725 H 0.40646 0.78442 0.67789 0.0
C726 C 0.3893 0.83441 0.62818 0.0
C727 C 0.38081 0.81079 0.671 0.0
C728 C 0.36616 0.80489 0.69816 0.0
C729 C 0.41076 0.82248 0.62144 0.0
C730 C 0.41673 0.804 0.63948 0.0
C731 C 0.40181 0.79856 0.66406 0.0
C732 C 0.43787 0.78938 0.63343 0.0
C733 C 0.42702 0.82997 0.59532 0.0
C734 C 0.43446 0.77103 0.61124 0.0
C735 C 0.45147 0.75365 0.60837 0.0
C736 C 0.47187 0.75406 0.62789 0.0
C737 C 0.47609 0.77345 0.64935 0.0
C738 C 0.4593 0.79096 0.65204 0.0
H739 H 0.42573 0.84987 0.58789 0.0
H740 H 0.44956 0.8312 0.59776 0.0
H741 H 0.41792 0.81398 0.57965 0.0
H742 H 0.41775 0.76914 0.59689 0.0
H743 H 0.44796 0.73926 0.59138 0.0
H744 H 0.78199 0.83296 0.81814 0.0
H745 H 0.81032 0.86234 0.78374 0.0
H746 H 0.78036 0.92923 0.81281 0.0
H747 H 0.75285 0.90016 0.84833 0.0
H748 H 0.79873 0.89067 0.74242 0.0
H749 H 0.86508 0.9619 0.81868 0.0
H750 H 0.84042 0.92959 0.82767 0.0
H751 H 0.82805 0.95845 0.82105 0.0
C752 C 0.7815 0.85397 0.81735 0.0
C753 C 0.76565 0.8644 0.83637 0.0
C754 C 0.79751 0.87067 0.79748 0.0
C755 C 0.79794 0.89815 0.79604 0.0
C756 C 0.78085 0.90825 0.81396 0.0
H757 H 0.89158 0.99719 0.66264 0.0
H758 H 0.85337 0.97268 0.69273 0.0
C759 C 0.7649 0.89154 0.83405 0.0
C760 C 0.81745 0.91618 0.77657 0.0
H761 H 0.87623 0.97146 0.77295 0.0
C762 C 0.81555 0.90849 0.74902 0.0
C763 C 0.8396 0.9392 0.78532 0.0
C764 C 0.84368 0.94772 0.8148 0.0
C765 C 0.83558 0.92276 0.73008 0.0
C766 C 0.85773 0.94576 0.73885 0.0
C767 C 0.85918 0.95387 0.76627 0.0
C768 C 0.88067 0.96074 0.72036 0.0
C769 C 0.83354 0.9123 0.70112 0.0
C770 C 0.90878 0.96278 0.72622 0.0
C771 C 0.93072 0.97724 0.7094 0.0
C772 C 0.92505 0.98998 0.68624 0.0
C773 C 0.89679 0.98785 0.68039 0.0
C774 C 0.87485 0.97353 0.69739 0.0
H775 H 0.81976 0.89082 0.69918 0.0
H776 H 0.82437 0.92522 0.68873 0.0
H777 H 0.8547 0.91332 0.69265 0.0
H778 H 0.91379 0.95319 0.74392 0.0
H779 H 0.95218 0.97887 0.71489 0.0
H780 H 0.70213 0.24853 0.44307 0.0
H781 H 0.68434 0.24919 0.39715 0.0
H782 H 0.70054 0.17232 0.37805 0.0
H783 H 0.7182 0.17151 0.42359 0.0
H784 H 0.72221 0.21295 0.33969 0.0
H785 H 0.60933 0.20075 0.36473 0.0
H786 H 0.63512 0.22821 0.38186 0.0
H787 H 0.63307 0.19335 0.38854 0.0
C788 C 0.70157 0.23166 0.42912 0.0
C789 C 0.71172 0.21006 0.43682 0.0
C790 C 0.69143 0.23206 0.40295 0.0
C791 C 0.69106 0.21074 0.38428 0.0
C792 C 0.7008 0.18903 0.39212 0.0
H793 H 0.60876 0.14305 0.23988 0.0
H794 H 0.62437 0.15761 0.28582 0.0
C795 C 0.71096 0.18865 0.41811 0.0
C796 C 0.68126 0.21095 0.35625 0.0
H797 H 0.62221 0.20263 0.31865 0.0
C798 C 0.70043 0.21105 0.33501 0.0
C799 C 0.65281 0.20835 0.35036 0.0
C800 C 0.63124 0.20746 0.37249 0.0
C801 C 0.69172 0.20754 0.30801 0.0
C802 C 0.66313 0.20437 0.30211 0.0
C803 C 0.64415 0.20525 0.32329 0.0
C804 C 0.65201 0.19717 0.27445 0.0
C805 C 0.71286 0.20579 0.2862 0.0
C806 C 0.66195 0.21484 0.25289 0.0
C807 C 0.65306 0.20653 0.2265 0.0
C808 C 0.63389 0.18053 0.22134 0.0
C809 C 0.62327 0.16333 0.24318 0.0
C810 C 0.63222 0.17159 0.26946 0.0
H811 H 0.73254 0.2034 0.29469 0.0
H812 H 0.70374 0.18827 0.27204 0.0
H813 H 0.71853 0.22484 0.27443 0.0
H814 H 0.67687 0.23486 0.25641 0.0
H815 H 0.66129 0.22038 0.21013 0.0
H816 H 0.38757 0.71751 0.35114 0.0
H817 H 0.39961 0.70984 0.39766 0.0
H818 H 0.48446 0.71542 0.37142 0.0
H819 H 0.47266 0.72337 0.32531 0.0
H820 H 0.41609 0.66532 0.41192 0.0
H821 H 0.49866 0.76015 0.44168 0.0
H822 H 0.47529 0.75861 0.41372 0.0
H823 H 0.50608 0.74708 0.40925 0.0
C824 C 0.409 0.71795 0.35554 0.0
C825 C 0.42917 0.72101 0.3346 0.0
C826 C 0.41582 0.71339 0.38207 0.0
C827 C 0.44304 0.71229 0.38816 0.0
C828 C 0.46351 0.71671 0.36745 0.0
H829 H 0.50579 0.6164 0.49242 0.0
H830 H 0.48598 0.6373 0.45718 0.0
C831 C 0.45668 0.72106 0.34102 0.0
C832 C 0.44941 0.70343 0.41512 0.0
H833 H 0.49845 0.71928 0.46533 0.0
C834 C 0.43377 0.67737 0.42385 0.0
C835 C 0.47228 0.71918 0.43094 0.0
C836 C 0.48885 0.74793 0.42357 0.0
C837 C 0.44142 0.66601 0.44698 0.0
C838 C 0.46556 0.68094 0.46162 0.0
C839 C 0.48016 0.70767 0.4539 0.0
C840 C 0.47716 0.6683 0.48358 0.0
C841 C 0.42394 0.63783 0.45522 0.0
C842 C 0.47931 0.67909 0.51017 0.0
C843 C 0.49068 0.6671 0.53055 0.0
C844 C 0.50046 0.64434 0.52458 0.0
C845 C 0.49844 0.63383 0.49785 0.0
C846 C 0.48695 0.64567 0.47763 0.0
H847 H 0.40217 0.63264 0.44721 0.0
H848 H 0.43384 0.62244 0.44691 0.0
H849 H 0.42274 0.63621 0.47757 0.0
H850 H 0.47206 0.69667 0.51517 0.0
H851 H 0.492 0.67581 0.55088 0.0
H852 H 0.13758 0.46711 0.82554 0.0
H853 H 0.11926 0.49796 0.8544 0.0
H854 H 0.18591 0.50463 0.91132 0.0
H855 H 0.20374 0.47332 0.8829 0.0
H856 H 0.13605 0.4911 0.93601 0.0
H857 H 0.14338 0.57919 0.87068 0.0
H858 H 0.12435 0.54696 0.8553 0.0
H859 H 0.16125 0.55388 0.86249 0.0
C860 C 0.14868 0.47576 0.84388 0.0
C861 C 0.17203 0.46782 0.85204 0.0
C862 C 0.13825 0.49343 0.86035 0.0
C863 C 0.1513 0.50383 0.885 0.0
C864 C 0.17543 0.49687 0.89245 0.0
H865 H 0.10917 0.6245 0.9933 0.0
H866 H 0.13216 0.60054 0.96083 0.0
C867 C 0.18564 0.47903 0.87619 0.0
C868 C 0.13847 0.51975 0.90429 0.0
H869 H 0.1153 0.57631 0.91092 0.0
C870 C 0.1317 0.50983 0.93053 0.0
C871 C 0.13299 0.54434 0.8973 0.0
C872 C 0.14112 0.55689 0.87 0.0
C873 C 0.11932 0.52354 0.94979 0.0
C874 C 0.11281 0.54752 0.94248 0.0
C875 C 0.12 0.55776 0.91642 0.0
C876 C 0.0986 0.56221 0.96167 0.0
C877 C 0.11377 0.5124 0.97796 0.0
C878 C 0.07194 0.54878 0.97264 0.0
C879 C 0.05891 0.56235 0.99127 0.0
C880 C 0.07216 0.58972 0.99909 0.0
C881 C 0.09855 0.60336 0.9877 0.0
C882 C 0.11165 0.58973 0.96912 0.0
H883 H 0.12711 0.49905 0.98244 0.0
H884 H 0.11777 0.52922 0.99345 0.0
H885 H 0.09137 0.4999 0.97974 0.0
H886 H 0.06117 0.52776 0.96674 0.0
H887 H 0.03839 0.55144 0.99946 0.0
H888 H 0.67762 0.89393 0.94415 0.0
H889 H 0.66258 0.93228 0.96302 0.0
H890 H 0.58223 0.90031 0.92391 0.0
H891 H 0.59722 0.86227 0.90444 0.0
H892 H 0.63834 0.97253 0.93523 0.0
H893 H 0.56606 0.90407 1.00825 0.0
H894 H 0.59489 0.89508 0.99155 0.0
H895 H 0.56328 0.89273 0.97337 0.0
C896 C 0.65698 0.89534 0.93907 0.0
C897 C 0.63853 0.87485 0.92297 0.0
C898 C 0.64839 0.9172 0.94998 0.0
C899 C 0.6212 0.91887 0.9451 0.0
C900 C 0.60317 0.89914 0.92817 0.0
H901 H 0.52035 1.01619 1.01604 0.0
H902 H 0.53808 0.98389 0.98905 0.0
C903 C 0.61175 0.87737 0.91718 0.0
C904 C 0.61108 0.94038 0.9588 0.0
H905 H 0.5652 0.94987 1.00769 0.0
C906 C 0.62239 0.96768 0.9511 0.0
C907 C 0.59023 0.93387 0.97942 0.0
C908 C 0.57795 0.9049 0.98888 0.0
C909 C 0.61299 0.98869 0.96324 0.0
C910 C 0.59224 0.9822 0.98404 0.0
C911 C 0.58102 0.95483 0.99169 0.0
C912 C 0.58198 1.00336 0.99851 0.0
C913 C 0.6249 1.01746 0.95322 0.0
C914 C 0.60076 1.02518 1.01273 0.0
C915 C 0.5907 0.04384 0.02803 0.0
C916 C 0.5616 0.04081 0.02974 0.0
C917 C 0.54288 1.01914 1.0152 0.0
C918 C 0.55298 1.00063 0.99975 0.0
H919 H 0.63372 1.01759 0.93239 0.0
H920 H 0.60855 1.02834 0.95334 0.0
H921 H 0.64225 1.02901 0.96666 0.0
H922 H 0.62313 1.02733 1.01267 0.0
H923 H 0.60568 0.06013 0.03917 0.0
H924 H 0.80905 0.21868 0.46317 0.0
H925 H 0.85164 0.20411 0.4673 0.0
H926 H 0.81152 0.14984 0.53103 0.0
H927 H 0.7688 0.16378 0.52665 0.0
H928 H 0.88501 0.20819 0.51377 0.0
H929 H 0.84078 0.10045 0.47816 0.0
H930 H 0.82392 0.12654 0.47196 0.0
H931 H 0.81964 0.11021 0.50415 0.0
C932 C 0.80925 0.20342 0.47784 0.0
C933 C 0.78562 0.19231 0.49457 0.0
C934 C 0.83357 0.19522 0.48023 0.0
C935 C 0.83447 0.17562 0.49916 0.0
C936 C 0.811 0.16464 0.51596 0.0
H937 H 0.96132 0.13675 0.58624 0.0
H938 H 0.92612 0.15579 0.56751 0.0
C939 C 0.78676 0.17285 0.51365 0.0
C940 C 0.86027 0.16728 0.50232 0.0
H941 H 0.88354 0.11091 0.50362 0.0
C942 C 0.88489 0.18701 0.51115 0.0
C943 C 0.86014 0.13974 0.4984 0.0
C944 C 0.83478 0.11805 0.48737 0.0
C945 C 0.90894 0.17957 0.51776 0.0
C946 C 0.90805 0.15168 0.5158 0.0
C947 C 0.88402 0.13224 0.50539 0.0
C948 C 0.93084 0.14186 0.52644 0.0
C949 C 0.93489 0.20153 0.52725 0.0
C950 C 0.94479 0.12736 0.50959 0.0
C951 C 0.96477 0.1163 0.52031 0.0
C952 C 0.97081 0.1194 0.54804 0.0
C953 C 0.95704 0.13414 0.56479 0.0
C954 C 0.93714 0.1452 0.55408 0.0
H955 H 0.93543 0.22192 0.51964 0.0
H956 H 0.93465 0.20284 0.54968 0.0
H957 H 0.95445 0.19679 0.52054 0.0
H958 H 0.94 0.12439 0.48825 0.0
H959 H 0.97516 0.105 0.507 0.0
H960 H 0.32703 0.76377 0.17933 0.0
H961 H 0.2831 0.74108 0.15593 0.0
H962 H 0.25148 0.69339 0.22642 0.0
H963 H 0.29511 0.71674 0.2504 0.0
H964 H 0.25977 0.68607 0.14363 0.0
H965 H 0.18716 0.72482 0.2092 0.0
H966 H 0.22499 0.73944 0.21021 0.0
H967 H 0.20826 0.7079 0.2269 0.0
C968 C 0.31056 0.74884 0.1901 0.0
C969 C 0.31452 0.74236 0.21692 0.0
C970 C 0.28554 0.73568 0.17657 0.0
C971 C 0.26383 0.71577 0.1895 0.0
C972 C 0.26772 0.70903 0.21618 0.0
H973 H 0.1213 0.60067 0.10604 0.0
H974 H 0.16476 0.62144 0.13108 0.0
C975 C 0.29279 0.72222 0.22977 0.0
C976 C 0.23743 0.7018 0.17474 0.0
H977 H 0.16619 0.69155 0.17552 0.0
C978 C 0.23929 0.68723 0.15061 0.0
C979 C 0.21077 0.70358 0.1837 0.0
C980 C 0.20756 0.71997 0.20878 0.0
C981 C 0.21524 0.67436 0.13524 0.0
C982 C 0.1885 0.67571 0.14447 0.0
C983 C 0.18666 0.69034 0.16857 0.0
C984 C 0.16228 0.66291 0.12899 0.0
C985 C 0.21879 0.66004 0.1089 0.0
C986 C 0.14612 0.67919 0.11987 0.0
C987 C 0.12116 0.66738 0.10571 0.0
C988 C 0.11171 0.63894 0.10044 0.0
C989 C 0.12798 0.62264 0.10957 0.0
C990 C 0.15294 0.63451 0.1238 0.0
H991 H 0.24098 0.66671 0.10144 0.0
H992 H 0.2128 0.63763 0.11198 0.0
H993 H 0.20499 0.66395 0.09307 0.0
H994 H 0.15287 0.70114 0.12368 0.0
H995 H 0.10921 0.68059 0.09907 0.0
H996 H 0.2374 0.46277 0.67652 0.0
H997 H 0.28162 0.49111 0.65688 0.0
H998 H 0.32165 0.49761 0.7344 0.0
H999 H 0.27808 0.46809 0.75385 0.0
H1000 H 0.31616 0.54294 0.66732 0.0
H1001 H 0.37248 0.46646 0.68708 0.0
H1002 H 0.33476 0.45888 0.69094 0.0
H1003 H 0.35782 0.47805 0.71688 0.0
C1004 C 0.25563 0.47012 0.6894 0.0
C1005 C 0.25416 0.46278 0.71673 0.0
C1006 C 0.28085 0.48652 0.67818 0.0
C1007 C 0.30515 0.49599 0.69401 0.0
C1008 C 0.30337 0.49 0.72162 0.0
H1009 H 0.48006 0.58109 0.64896 0.0
H1010 H 0.43586 0.56392 0.67476 0.0
C1011 C 0.27824 0.47341 0.73282 0.0
C1012 C 0.33251 0.51119 0.68135 0.0
H1013 H 0.39959 0.50836 0.66884 0.0
C1014 C 0.33442 0.53542 0.66771 0.0
C1015 C 0.35634 0.5013 0.68176 0.0
C1016 C 0.35528 0.47463 0.69471 0.0
C1017 C 0.35949 0.55 0.65452 0.0
C1018 C 0.38317 0.54 0.65484 0.0
C1019 C 0.38144 0.51607 0.66883 0.0
C1020 C 0.40944 0.553 0.63945 0.0
C1021 C 0.36051 0.57602 0.64036 0.0
C1022 C 0.40919 0.55266 0.61108 0.0
C1023 C 0.43435 0.56222 0.59635 0.0
C1024 C 0.46023 0.5723 0.60972 0.0
C1025 C 0.4604 0.57344 0.63814 0.0
C1026 C 0.43521 0.56365 0.65288 0.0
H1027 H 0.3434 0.58454 0.64755 0.0
H1028 H 0.38116 0.59178 0.6435 0.0
H1029 H 0.35789 0.5716 0.61832 0.0
H1030 H 0.38961 0.54412 0.60031 0.0
H1031 H 0.43361 0.56112 0.57447 0.0
H1032 H 0.75523 0.80478 0.94754 0.0
H1033 H 0.78451 0.78032 0.96914 0.0
H1034 H 0.81387 0.76062 0.89084 0.0
H1035 H 0.78432 0.78439 0.86905 0.0
H1036 H 0.78927 0.72008 0.95478 0.0
H1037 H 0.88443 0.80937 0.93937 0.0
H1038 H 0.84922 0.8128 0.94114 0.0
H1039 H 0.86079 0.79819 0.91136 0.0
C1040 C 0.76747 0.79475 0.9349 0.0
C1041 C 0.76771 0.7968 0.90659 0.0
C1042 C 0.78421 0.78088 0.94727 0.0
C1043 C 0.80142 0.76893 0.93152 0.0
C1044 C 0.80083 0.76992 0.90328 0.0
H1045 H 0.9422 0.70764 0.95957 0.0
H1046 H 0.90499 0.72386 0.94075 0.0
C1047 C 0.78409 0.78366 0.89091 0.0
C1048 C 0.82154 0.757 0.94442 0.0
H1049 H 0.89167 0.76956 0.95661 0.0
C1050 C 0.81166 0.73085 0.95539 0.0
C1051 C 0.85064 0.77118 0.94497 0.0
C1052 C 0.86208 0.79952 0.93375 0.0
C1053 C 0.8304 0.71817 0.9664 0.0
C1054 C 0.85962 0.73235 0.96688 0.0
C1055 C 0.86931 0.75867 0.95616 0.0
C1056 C 0.88076 0.72035 0.97802 0.0
C1057 C 0.81887 0.68943 0.97661 0.0
C1058 C 0.87943 0.71284 1.0052 0.0
C1059 C 0.90064 0.70344 1.01597 0.0
C1060 C 0.92376 0.70179 0.99985 0.0
C1061 C 0.92481 0.70898 0.97256 0.0
C1062 C 0.90352 0.71815 0.96177 0.0
H1063 H 0.79775 0.67886 0.96814 0.0
H1064 H 0.83332 0.67704 0.97143 0.0
H1065 H 0.81664 0.69029 0.99895 0.0
H1066 H 0.86245 0.715 1.0183 0.0
H1067 H 0.89947 0.69839 0.03716 0.0
H1068 H 0.36168 0.84101 0.23524 0.0
H1069 H 0.38564 0.88582 0.21644 0.0
H1070 H 0.46196 0.86247 0.20635 0.0
H1071 H 0.43793 0.81731 0.22404 0.0
H1072 H 0.43361 0.92793 0.23053 0.0
H1073 H 0.44776 0.88262 0.13 0.0
H1074 H 0.42504 0.86323 0.15592 0.0
H1075 H 0.46257 0.86901 0.15714 0.0
C1076 C 0.38358 0.8454 0.22905 0.0
C1077 C 0.39774 0.82536 0.23091 0.0
C1078 C 0.39729 0.8711 0.21843 0.0
C1079 C 0.42541 0.87729 0.2094 0.0
C1080 C 0.44007 0.85793 0.21262 0.0
H1081 H 0.54661 1.01229 0.13253 0.0
H1082 H 0.52077 0.97015 0.15509 0.0
C1083 C 0.42637 0.83221 0.22313 0.0
C1084 C 0.43912 0.90358 0.19581 0.0
H1085 H 0.47135 0.93 0.13677 0.0
C1086 C 0.44172 0.92841 0.20998 0.0
C1087 C 0.44949 0.90421 0.16889 0.0
C1088 C 0.44586 0.87837 0.15197 0.0
C1089 C 0.45521 0.95379 0.19826 0.0
C1090 C 0.46607 0.95433 0.17156 0.0
C1091 C 0.46311 0.92954 0.15728 0.0
C1092 C 0.48148 0.98032 0.15829 0.0
C1093 C 0.45846 0.97979 0.21477 0.0
C1094 C 0.46788 0.99996 0.15229 0.0
C1095 C 0.48263 1.02411 0.13928 0.0
C1096 C 0.5112 1.02896 0.13208 0.0
C1097 C 0.52464 1.00918 0.13794 0.0
C1098 C 0.50991 0.98508 0.15082 0.0
H1099 H 0.45417 0.9757 0.23661 0.0
H1100 H 0.48008 0.99404 0.21237 0.0
H1101 H 0.44333 0.99019 0.20753 0.0
H1102 H 0.44581 0.99648 0.15743 0.0
H1103 H 0.47171 0.03894 0.13485 0.0
H1104 H 0.17611 0.3944 0.66965 0.0
H1105 H 0.15424 0.35257 0.64294 0.0
H1106 H 0.1545 0.30388 0.71259 0.0
H1107 H 0.17651 0.34537 0.73928 0.0
H1108 H 0.1743 0.30723 0.63192 0.0
H1109 H 0.0724 0.27625 0.68793 0.0
H1110 H 0.09685 0.31025 0.69097 0.0
H1111 H 0.10261 0.28253 0.70928 0.0
C1112 C 0.17154 0.37477 0.67926 0.0
C1113 C 0.17781 0.37329 0.70671 0.0
C1114 C 0.15897 0.35091 0.664 0.0
C1115 C 0.15229 0.32514 0.6759 0.0
C1116 C 0.15882 0.32358 0.70316 0.0
H1117 H 0.08386 0.15523 0.6287 0.0
H1118 H 0.10551 0.19949 0.65109 0.0
C1119 C 0.17136 0.34736 0.71842 0.0
C1120 C 0.13914 0.29975 0.65977 0.0
H1121 H 0.08187 0.24279 0.65778 0.0
C1122 C 0.15397 0.29324 0.63738 0.0
C1123 C 0.11259 0.28156 0.66692 0.0
C1124 C 0.09503 0.28807 0.68992 0.0
C1125 C 0.14341 0.26854 0.62253 0.0
C1126 C 0.11714 0.2501 0.63006 0.0
C1127 C 0.10208 0.25688 0.65213 0.0
C1128 C 0.10509 0.22333 0.61577 0.0
C1129 C 0.16087 0.26197 0.59948 0.0
C1130 C 0.09762 0.22201 0.58843 0.0
C1131 C 0.08523 0.19667 0.57549 0.0
C1132 C 0.07996 0.17217 0.58972 0.0
C1133 C 0.08766 0.17363 0.61706 0.0
C1134 C 0.10001 0.19894 0.62995 0.0
H1135 H 0.18314 0.27509 0.60025 0.0
H1136 H 0.16056 0.24016 0.5997 0.0
H1137 H 0.15188 0.26548 0.58003 0.0
H1138 H 0.10088 0.2406 0.57722 0.0
H1139 H 0.07946 0.19633 0.55445 0.0
H1140 H 0.68962 0.28433 0.60731 0.0
H1141 H 0.67402 0.32554 0.6111 0.0
H1142 H 0.64096 0.31016 0.53029 0.0
H1143 H 0.65584 0.26866 0.52656 0.0
H1144 H 0.68926 0.37202 0.57736 0.0
H1145 H 0.57417 0.31936 0.57675 0.0
H1146 H 0.59994 0.30179 0.58339 0.0
H1147 H 0.59317 0.30898 0.54925 0.0
C1148 C 0.67872 0.28957 0.59049 0.0
C1149 C 0.6738 0.27319 0.56669 0.0
C1150 C 0.67001 0.31317 0.59262 0.0
C1151 C 0.65605 0.32061 0.57111 0.0
C1152 C 0.65133 0.30447 0.54727 0.0
H1153 H 0.62744 0.46982 0.52567 0.0
H1154 H 0.64605 0.43145 0.53326 0.0
C1155 C 0.66007 0.28094 0.54508 0.0
C1156 C 0.64674 0.3455 0.57326 0.0
H1157 H 0.58843 0.36746 0.56939 0.0
C1158 C 0.66721 0.37109 0.5759 0.0
C1159 C 0.61793 0.3441 0.5718 0.0
C1160 C 0.59498 0.31708 0.5704 0.0
C1161 C 0.65966 0.39547 0.57594 0.0
C1162 C 0.63098 0.39407 0.57294 0.0
C1163 C 0.61044 0.36845 0.57146 0.0
C1164 C 0.62182 0.41884 0.56996 0.0
C1165 C 0.6824 0.42247 0.57907 0.0
C1166 C 0.60191 0.42432 0.588 0.0
C1167 C 0.59121 0.44621 0.5837 0.0
C1168 C 0.6001 0.46288 0.56115 0.0
C1169 C 0.62049 0.45763 0.54343 0.0
C1170 C 0.63118 0.43574 0.54776 0.0
H1171 H 0.70139 0.41997 0.58892 0.0
H1172 H 0.68882 0.43103 0.55879 0.0
H1173 H 0.67466 0.43748 0.59118 0.0
H1174 H 0.59437 0.41141 0.6052 0.0
H1175 H 0.57581 0.44997 0.5979 0.0
loop_
_geom_bond_atom_site_label_1
_geom_bond_atom_site_label_2
_geom_bond_distance
_geom_bond_site_symmetry_2
_ccdc_geom_bond_type
H0 C1 0.949 . S
C1 H0 0.949 . S
C1 C2 1.395 . S
C1 C3 1.391 . S
C2 C1 1.395 . S
C2 C5 1.390 . S
C3 C1 1.391 . S
C3 C7 1.387 . S
C3 C8 1.491 . S
H4 C5 0.950 . S
C5 C2 1.390 . S
C5 H4 0.950 . S
C5 C6 1.378 . S
C6 C5 1.378 . S
C6 C7 1.409 . S
C7 C3 1.387 . S
C7 C6 1.409 . S
C7 H9 0.951 . S
C8 C3 1.491 . S
C8 C10 1.382 . S
C8 C12 1.404 . S
H9 C7 0.951 . S
C10 C8 1.382 . S
C10 C11 1.390 . S
C10 H15 0.949 . S
C11 C10 1.390 . S
C11 C16 1.399 . S
C12 C8 1.404 . S
C12 H13 0.950 . S
C12 C14 1.375 . S
H13 C12 0.950 . S
C14 C12 1.375 . S
C14 C16 1.382 . S
C14 H18 0.950 . S
H15 C10 0.949 . S
C16 C11 1.399 . S
C16 C14 1.382 . S
C16 H17 0.952 . S
H17 C16 0.952 . S
H18 C14 0.950 . S
H19 C20 0.949 . S
C20 H19 0.949 . S
C20 C21 1.395 . S
C20 C22 1.391 . S
C21 C20 1.395 . S
C21 C24 1.390 . S
C22 C20 1.391 . S
C22 C26 1.387 . S
C22 C27 1.491 . S
H23 C24 0.950 . S
C24 C21 1.390 . S
C24 H23 0.950 . S
C24 C25 1.378 . S
C25 C24 1.378 . S
C25 C26 1.409 . S
C26 C22 1.387 . S
C26 C25 1.409 . S
C26 H28 0.951 . S
C27 C22 1.491 . S
C27 C29 1.382 . S
C27 C31 1.404 . S
H28 C26 0.951 . S
C29 C27 1.382 . S
C29 C30 1.390 . S
C29 H34 0.949 . S
C30 C29 1.390 . S
C30 C35 1.399 . S
C31 C27 1.404 . S
C31 H32 0.950 . S
C31 C33 1.375 . S
H32 C31 0.950 . S
C33 C31 1.375 . S
C33 C35 1.382 . S
C33 H37 0.950 . S
H34 C29 0.949 . S
C35 C30 1.399 . S
C35 C33 1.382 . S
C35 H36 0.952 . S
H36 C35 0.952 . S
H37 C33 0.950 . S
H38 C39 0.949 . S
C39 H38 0.949 . S
C39 C40 1.395 . S
C39 C41 1.391 . S
C40 C39 1.395 . S
C40 C43 1.390 . S
C41 C39 1.391 . S
C41 C45 1.387 . S
C41 C46 1.491 . S
H42 C43 0.950 . S
C43 C40 1.390 . S
C43 H42 0.950 . S
C43 C44 1.378 . S
C44 C43 1.378 . S
C44 C45 1.409 . S
C45 C41 1.387 . S
C45 C44 1.409 . S
C45 H47 0.951 . S
C46 C41 1.491 . S
C46 C48 1.382 . S
C46 C50 1.404 . S
H47 C45 0.951 . S
C48 C46 1.382 . S
C48 C49 1.390 . S
C48 H53 0.949 . S
C49 C48 1.390 . S
C49 C54 1.399 . S
C50 C46 1.404 . S
C50 H51 0.950 . S
C50 C52 1.375 . S
H51 C50 0.950 . S
C52 C50 1.375 . S
C52 C54 1.382 . S
C52 H56 0.950 . S
H53 C48 0.949 . S
C54 C49 1.399 . S
C54 C52 1.382 . S
C54 H55 0.952 . S
H55 C54 0.952 . S
H56 C52 0.950 . S
H57 C58 0.949 . S
C58 H57 0.949 . S
C58 C59 1.395 . S
C58 C60 1.391 . S
C59 C58 1.395 . S
C59 C62 1.390 . S
C60 C58 1.391 . S
C60 C64 1.387 . S
C60 C65 1.491 . S
H61 C62 0.950 . S
C62 C59 1.390 . S
C62 H61 0.950 . S
C62 C63 1.378 . S
C63 C62 1.378 . S
C63 C64 1.409 . S
C64 C60 1.387 . S
C64 C63 1.409 . S
C64 H66 0.951 . S
C65 C60 1.491 . S
C65 C67 1.382 . S
C65 C69 1.404 . S
H66 C64 0.951 . S
C67 C65 1.382 . S
C67 C68 1.390 . S
C67 H72 0.949 . S
C68 C67 1.390 . S
C68 C73 1.399 . S
C69 C65 1.404 . S
C69 H70 0.950 . S
C69 C71 1.375 . S
H70 C69 0.950 . S
C71 C69 1.375 . S
C71 C73 1.382 . S
C71 H75 0.950 . S
H72 C67 0.949 . S
C73 C68 1.399 . S
C73 C71 1.382 . S
C73 H74 0.952 . S
H74 C73 0.952 . S
H75 C71 0.950 . S
H76 C77 0.949 . S
C77 H76 0.949 . S
C77 C78 1.395 . S
C77 C79 1.391 . S
C78 C77 1.395 . S
C78 C81 1.390 . S
C79 C77 1.391 . S
C79 C83 1.387 . S
C79 C84 1.491 . S
H80 C81 0.950 . S
C81 C78 1.390 . S
C81 H80 0.950 . S
C81 C82 1.378 . S
C82 C81 1.378 . S
C82 C83 1.409 . S
C83 C79 1.387 . S
C83 C82 1.409 . S
C83 H85 0.951 . S
C84 C79 1.491 . S
C84 C86 1.382 . S
C84 C88 1.404 . S
H85 C83 0.951 . S
C86 C84 1.382 . S
C86 C87 1.390 . S
C86 H91 0.949 . S
C87 C86 1.390 . S
C87 C92 1.399 . S
C88 C84 1.404 . S
C88 H89 0.950 . S
C88 C90 1.375 . S
H89 C88 0.950 . S
C90 C88 1.375 . S
C90 C92 1.382 . S
C90 H94 0.950 . S
H91 C86 0.949 . S
C92 C87 1.399 . S
C92 C90 1.382 . S
C92 H93 0.952 . S
H93 C92 0.952 . S
H94 C90 0.950 . S
H95 C96 0.949 . S
C96 H95 0.949 . S
C96 C97 1.395 . S
C96 C98 1.391 . S
C97 C96 1.395 . S
C97 C100 1.390 . S
C98 C96 1.391 . S
C98 C102 1.387 . S
C98 C103 1.491 . S
H99 C100 0.950 . S
C100 C97 1.390 . S
C100 H99 0.950 . S
C100 C101 1.378 . S
C101 C100 1.378 . S
C101 C102 1.409 . S
C102 C98 1.387 . S
C102 C101 1.409 . S
C102 H104 0.951 . S
C103 C98 1.491 . S
C103 C105 1.382 . S
C103 C107 1.404 . S
H104 C102 0.951 . S
C105 C103 1.382 . S
C105 C106 1.390 . S
C105 H110 0.949 . S
C106 C105 1.390 . S
C106 C111 1.399 . S
C107 C103 1.404 . S
C107 H108 0.950 . S
C107 C109 1.375 . S
H108 C107 0.950 . S
C109 C107 1.375 . S
C109 C111 1.382 . S
C109 H113 0.950 . S
H110 C105 0.949 . S
C111 C106 1.399 . S
C111 C109 1.382 . S
C111 H112 0.952 . S
H112 C111 0.952 . S
H113 C109 0.950 . S
H114 C115 0.949 . S
C115 H114 0.949 . S
C115 C116 1.395 . S
C115 C117 1.391 . S
C116 C115 1.395 . S
C116 C119 1.390 . S
C117 C115 1.391 . S
C117 C121 1.387 . S
C117 C122 1.491 . S
H118 C119 0.950 . S
C119 C116 1.390 . S
C119 H118 0.950 . S
C119 C120 1.378 . S
C120 C119 1.378 . S
C120 C121 1.409 . S
C121 C117 1.387 . S
C121 C120 1.409 . S
C121 H123 0.951 . S
C122 C117 1.491 . S
C122 C124 1.382 . S
C122 C126 1.404 . S
H123 C121 0.951 . S
C124 C122 1.382 . S
C124 C125 1.390 . S
C124 H129 0.949 . S
C125 C124 1.390 . S
C125 C130 1.399 . S
C126 C122 1.404 . S
C126 H127 0.950 . S
C126 C128 1.375 . S
H127 C126 0.950 . S
C128 C126 1.375 . S
C128 C130 1.382 . S
C128 H132 0.950 . S
H129 C124 0.949 . S
C130 C125 1.399 . S
C130 C128 1.382 . S
C130 H131 0.952 . S
H131 C130 0.952 . S
H132 C128 0.950 . S
H133 C134 0.949 . S
C134 H133 0.949 . S
C134 C135 1.395 . S
C134 C136 1.391 . S
C135 C134 1.395 . S
C135 C138 1.390 . S
C136 C134 1.391 . S
C136 C140 1.387 . S
C136 C141 1.491 . S
H137 C138 0.950 . S
C138 C135 1.390 . S
C138 H137 0.950 . S
C138 C139 1.378 . S
C139 C138 1.378 . S
C139 C140 1.409 . S
C140 C136 1.387 . S
C140 C139 1.409 . S
C140 H142 0.951 . S
C141 C136 1.491 . S
C141 C143 1.382 . S
C141 C145 1.404 . S
H142 C140 0.951 . S
C143 C141 1.382 . S
C143 C144 1.390 . S
C143 H148 0.949 . S
C144 C143 1.390 . S
C144 C149 1.399 . S
C145 C141 1.404 . S
C145 H146 0.950 . S
C145 C147 1.375 . S
H146 C145 0.950 . S
C147 C145 1.375 . S
C147 C149 1.382 . S
C147 H151 0.950 . S
H148 C143 0.949 . S
C149 C144 1.399 . S
C149 C147 1.382 . S
C149 H150 0.952 . S
H150 C149 0.952 . S
H151 C147 0.950 . S
Ho152 C155 2.811 . S
Ho152 O172 2.322 . S
Ho152 O174 2.378 . S
Ho152 O175 2.524 . S
Ho152 O176 2.381 . S
Ho152 O177 2.669 . S
Ho152 O179 2.346 . S
Ho152 O183 2.305 1_455 S
Ho153 C164 2.811 1_545 S
Ho153 O173 2.346 1_655 S
Ho153 O177 2.305 1_655 S
Ho153 O178 2.322 . S
Ho153 O180 2.378 . S
Ho153 O181 2.524 1_545 S
Ho153 O182 2.381 . S
Ho153 O183 2.669 . S
C154 O172 1.259 . S
C154 O173 1.268 . S
C155 Ho152 2.811 . S
C155 C156 1.488 . S
C155 O174 1.215 . S
C155 O175 1.289 . S
C156 C155 1.488 . S
C156 C157 1.348 . S
C156 C161 1.413 . S
C157 C156 1.348 . S
C157 C158 1.442 . S
C157 H184 0.930 . S
C158 C157 1.442 . S
C158 C159 1.381 . S
C158 H185 0.931 . S
C159 C158 1.381 . S
C159 C160 1.321 . S
C160 C159 1.321 . S
C160 C161 1.403 . S
C160 H186 0.934 . S
C161 C156 1.413 . S
C161 C160 1.403 . S
C161 H187 0.930 . S
C162 O176 1.275 . S
C162 O177 1.256 . S
C163 O178 1.259 1_565 S
C163 O179 1.268 1_665 S
C164 Ho153 2.811 1_565 S
C164 C165 1.488 . S
C164 O180 1.215 1_565 S
C164 O181 1.289 . S
C165 C164 1.488 . S
C165 C166 1.348 . S
C165 C170 1.413 . S
C166 C165 1.348 . S
C166 C167 1.442 . S
C166 H188 0.930 . S
C167 C166 1.442 . S
C167 C168 1.381 . S
C167 H189 0.931 . S
C168 C167 1.381 . S
C168 C169 1.321 . S
C169 C168 1.321 . S
C169 C170 1.403 . S
C169 H190 0.934 . S
C170 C165 1.413 . S
C170 C169 1.403 . S
C170 H191 0.930 . S
C171 O182 1.275 . S
C171 O183 1.256 . S
O172 Ho152 2.322 . S
O172 C154 1.259 . S
O173 Ho153 2.346 1_455 S
O173 C154 1.268 . S
O174 Ho152 2.378 . S
O174 C155 1.215 . S
O175 Ho152 2.524 . S
O175 C155 1.289 . S
O176 Ho152 2.381 . S
O176 C162 1.275 . S
O177 Ho152 2.669 . S
O177 Ho153 2.305 1_455 S
O177 C162 1.256 . S
O178 Ho153 2.322 . S
O178 C163 1.259 1_545 S
O179 Ho152 2.346 . S
O179 C163 1.268 1_445 S
O180 Ho153 2.378 . S
O180 C164 1.215 1_545 S
O181 Ho153 2.524 1_565 S
O181 C164 1.289 . S
O182 Ho153 2.381 . S
O182 C171 1.275 . S
O183 Ho152 2.305 1_655 S
O183 Ho153 2.669 . S
O183 C171 1.256 . S
H184 C157 0.930 . S
H185 C158 0.931 . S
H186 C160 0.934 . S
H187 C161 0.930 . S
H188 C166 0.930 . S
H189 C167 0.931 . S
H190 C169 0.934 . S
H191 C170 0.930 . S
Ho192 C195 2.811 . S
Ho192 O212 2.322 . S
Ho192 O214 2.378 . S
Ho192 O215 2.524 . S
Ho192 O216 2.381 . S
Ho192 O217 2.669 . S
Ho192 O219 2.346 . S
Ho192 O223 2.305 . S
Ho193 C204 2.828 . S
Ho193 O213 2.346 . S
Ho193 O217 2.305 . S
Ho193 O218 2.322 . S
Ho193 O220 2.378 . S
Ho193 O221 2.524 1_545 S
Ho193 O222 2.381 . S
Ho193 O223 2.669 . S
C194 O212 1.259 . S
C194 O213 1.268 . S
C195 Ho192 2.811 . S
C195 C196 1.488 . S
C195 O214 1.215 . S
C195 O215 1.289 . S
C196 C195 1.488 . S
C196 C197 1.348 . S
C196 C201 1.413 . S
C197 C196 1.348 . S
C197 C198 1.442 . S
C197 H224 0.930 . S
C198 C197 1.442 . S
C198 C199 1.381 . S
C198 H225 0.931 . S
C199 C198 1.381 . S
C199 C200 1.321 . S
C200 C199 1.321 . S
C200 C201 1.403 . S
C200 H226 0.934 . S
C201 C196 1.413 . S
C201 C200 1.403 . S
C201 H227 0.930 . S
C202 O216 1.275 1_565 S
C202 O217 1.256 1_565 S
C203 O218 1.259 . S
C203 O219 1.268 . S
C204 Ho193 2.828 . S
C204 C205 1.472 1_544 S
C204 O220 1.249 . S
C204 O221 1.271 1_545 S
C205 C204 1.472 1_566 S
C205 C206 1.348 . S
C205 C210 1.413 . S
C206 C205 1.348 . S
C206 C207 1.442 . S
C206 H228 0.930 . S
C207 C206 1.442 . S
C207 C208 1.381 . S
C207 H229 0.931 . S
C208 C207 1.381 . S
C208 C209 1.321 . S
C209 C208 1.321 . S
C209 C210 1.403 . S
C209 H230 0.934 . S
C210 C205 1.413 . S
C210 C209 1.403 . S
C210 H231 0.930 1_565 S
C211 O222 1.275 . S
C211 O223 1.256 . S
O212 Ho192 2.322 . S
O212 C194 1.259 . S
O213 Ho193 2.346 . S
O213 C194 1.268 . S
O214 Ho192 2.378 . S
O214 C195 1.215 . S
O215 Ho192 2.524 . S
O215 C195 1.289 . S
O216 Ho192 2.381 . S
O216 C202 1.275 1_545 S
O217 Ho192 2.669 . S
O217 Ho193 2.305 . S
O217 C202 1.256 1_545 S
O218 Ho193 2.322 . S
O218 C203 1.259 . S
O219 Ho192 2.346 . S
O219 C203 1.268 . S
O220 Ho193 2.378 . S
O220 C204 1.249 . S
O221 Ho193 2.524 1_565 S
O221 C204 1.271 1_565 S
O222 Ho193 2.381 . S
O222 C211 1.275 . S
O223 Ho192 2.305 . S
O223 Ho193 2.669 . S
O223 C211 1.256 . S
H224 C197 0.930 . S
H225 C198 0.931 . S
H226 C200 0.934 . S
H227 C201 0.930 . S
H228 C206 0.930 . S
H229 C207 0.931 . S
H230 C209 0.934 . S
H231 C210 0.930 1_545 S
Ho232 C235 2.811 . S
Ho232 O252 2.322 . S
Ho232 O254 2.378 . S
Ho232 O255 2.524 . S
Ho232 O256 2.381 . S
Ho232 O257 2.669 . S
Ho232 O259 2.346 . S
Ho232 O263 2.305 . S
Ho233 C244 2.811 . S
Ho233 O253 2.346 . S
Ho233 O257 2.305 . S
Ho233 O258 2.322 . S
Ho233 O260 2.378 . S
Ho233 O261 2.524 . S
Ho233 O262 2.381 . S
Ho233 O263 2.669 . S
C234 O252 1.259 . S
C234 O253 1.268 . S
C235 Ho232 2.811 . S
C235 C236 1.488 . S
C235 O254 1.215 . S
C235 O255 1.289 . S
C236 C235 1.488 . S
C236 C237 1.348 . S
C236 C241 1.413 . S
C237 C236 1.348 . S
C237 C238 1.442 . S
C237 H264 0.930 . S
C238 C237 1.442 . S
C238 C239 1.381 . S
C238 H265 0.931 . S
C239 C238 1.381 . S
C239 C240 1.321 . S
C240 C239 1.321 . S
C240 C241 1.403 . S
C240 H266 0.934 . S
C241 C236 1.413 . S
C241 C240 1.403 . S
C241 H267 0.930 . S
C242 O256 1.275 . S
C242 O257 1.256 . S
C243 O258 1.259 . S
C243 O259 1.268 . S
C244 Ho233 2.811 . S
C244 C245 1.488 . S
C244 O260 1.215 . S
C244 O261 1.289 . S
C245 C244 1.488 . S
C245 C246 1.348 . S
C245 C250 1.413 . S
C246 C245 1.348 . S
C246 C247 1.442 . S
C246 H268 0.930 . S
C247 C246 1.442 . S
C247 C248 1.381 . S
C247 H269 0.931 . S
C248 C247 1.381 . S
C248 C249 1.321 . S
C249 C248 1.321 . S
C249 C250 1.403 . S
C249 H270 0.934 . S
C250 C245 1.413 . S
C250 C249 1.403 . S
C250 H271 0.930 . S
C251 O262 1.275 . S
C251 O263 1.256 . S
O252 Ho232 2.322 . S
O252 C234 1.259 . S
O253 Ho233 2.346 . S
O253 C234 1.268 . S
O254 Ho232 2.378 . S
O254 C235 1.215 . S
O255 Ho232 2.524 . S
O255 C235 1.289 . S
O256 Ho232 2.381 . S
O256 C242 1.275 . S
O257 Ho232 2.669 . S
O257 Ho233 2.305 . S
O257 C242 1.256 . S
O258 Ho233 2.322 . S
O258 C243 1.259 . S
O259 Ho232 2.346 . S
O259 C243 1.268 . S
O260 Ho233 2.378 . S
O260 C244 1.215 . S
O261 Ho233 2.524 . S
O261 C244 1.289 . S
O262 Ho233 2.381 . S
O262 C251 1.275 . S
O263 Ho232 2.305 . S
O263 Ho233 2.669 . S
O263 C251 1.256 . S
H264 C237 0.930 . S
H265 C238 0.931 . S
H266 C240 0.934 . S
H267 C241 0.930 . S
H268 C246 0.930 . S
H269 C247 0.931 . S
H270 C249 0.934 . S
H271 C250 0.930 . S
Ho272 C275 2.811 . S
Ho272 O292 2.322 . S
Ho272 O294 2.378 . S
Ho272 O295 2.524 . S
Ho272 O296 2.381 . S
Ho272 O297 2.669 . S
Ho272 O299 2.346 1_455 S
Ho272 O303 2.305 1_554 S
Ho273 C284 2.810 1_455 S
Ho273 O293 2.346 1_556 S
Ho273 O297 2.305 1_556 S
Ho273 O298 2.342 . S
Ho273 O300 2.377 . S
Ho273 O301 2.523 1_455 S
Ho273 O302 2.380 . S
Ho273 O303 2.669 . S
C274 O292 1.259 . S
C274 O293 1.268 . S
C275 Ho272 2.811 . S
C275 C276 1.488 . S
C275 O294 1.215 . S
C275 O295 1.289 . S
C276 C275 1.488 . S
C276 C277 1.348 . S
C276 C281 1.413 . S
C277 C276 1.348 . S
C277 C278 1.442 . S
C277 H304 0.930 . S
C278 C277 1.442 . S
C278 C279 1.381 . S
C278 H305 0.931 . S
C279 C278 1.381 . S
C279 C280 1.321 . S
C280 C279 1.321 . S
C280 C281 1.403 . S
C280 H306 0.934 . S
C281 C276 1.413 . S
C281 C280 1.403 . S
C281 H307 0.930 . S
C282 O296 1.275 . S
C282 O297 1.256 . S
C283 O298 1.246 1_655 S
C283 O299 1.268 1_556 S
C284 Ho273 2.810 1_655 S
C284 C285 1.488 . S
C284 O300 1.215 1_655 S
C284 O301 1.318 . S
C285 C284 1.488 . S
C285 C286 1.348 . S
C285 C290 1.413 . S
C286 C285 1.348 . S
C286 C287 1.442 . S
C286 H308 0.930 . S
C287 C286 1.442 . S
C287 C288 1.381 . S
C287 H309 0.931 . S
C288 C287 1.381 . S
C288 C289 1.321 . S
C289 C288 1.321 . S
C289 C290 1.403 . S
C289 H310 0.934 . S
C290 C285 1.413 . S
C290 C289 1.403 . S
C290 H311 0.930 . S
C291 O302 1.275 . S
C291 O303 1.256 . S
O292 Ho272 2.322 . S
O292 C274 1.259 . S
O293 Ho273 2.346 1_554 S
O293 C274 1.268 . S
O294 Ho272 2.378 . S
O294 C275 1.215 . S
O295 Ho272 2.524 . S
O295 C275 1.289 . S
O296 Ho272 2.381 . S
O296 C282 1.275 . S
O297 Ho272 2.669 . S
O297 Ho273 2.305 1_554 S
O297 C282 1.256 . S
O298 Ho273 2.342 . S
O298 C283 1.246 1_455 S
O299 Ho272 2.346 1_655 S
O299 C283 1.268 1_554 S
O300 Ho273 2.377 . S
O300 C284 1.215 1_455 S
O301 Ho273 2.523 1_655 S
O301 C284 1.318 . S
O302 Ho273 2.380 . S
O302 C291 1.275 . S
O303 Ho272 2.305 1_556 S
O303 Ho273 2.669 . S
O303 C291 1.256 . S
H304 C277 0.930 . S
H305 C278 0.931 . S
H306 C280 0.934 . S
H307 C281 0.930 . S
H308 C286 0.930 . S
H309 C287 0.931 . S
H310 C289 0.934 . S
H311 C290 0.930 . S
H312 C320 0.929 . S
H313 C322 0.930 . S
H314 C324 0.930 . S
H315 C327 0.929 . S
H316 C330 0.930 . S
H317 C332 0.960 . S
H318 C332 0.960 . S
H319 C332 0.960 . S
C320 H312 0.929 . S
C320 C321 1.377 . S
C320 C322 1.384 . S
C321 C320 1.377 . S
C321 C327 1.390 . S
C322 H313 0.930 . S
C322 C320 1.384 . S
C322 C323 1.372 . S
C323 C322 1.372 . S
C323 C324 1.400 . S
C323 C328 1.490 . S
C324 H314 0.930 . S
C324 C323 1.400 . S
C324 C327 1.386 . S
H325 C341 0.930 . S
H326 C342 0.931 . S
C327 H315 0.929 . S
C327 C321 1.390 . S
C327 C324 1.386 . S
C328 C323 1.490 . S
C328 C330 1.395 . S
C328 C331 1.403 . S
H329 C335 0.930 . S
C330 H316 0.930 . S
C330 C328 1.395 . S
C330 C333 1.403 . S
C331 C328 1.403 . S
C331 C332 1.524 . S
C331 C335 1.400 . S
C332 H317 0.960 . S
C332 H318 0.960 . S
C332 H319 0.960 . S
C332 C331 1.524 . S
C333 C330 1.403 . S
C333 C334 1.392 . S
C333 C337 1.495 . S
C334 C333 1.392 . S
C334 C335 1.385 . S
C334 C336 1.478 . S
C335 H329 0.930 . S
C335 C331 1.400 . S
C335 C334 1.385 . S
C336 C334 1.478 . S
C336 C338 1.381 . S
C336 C342 1.383 . S
C337 C333 1.495 . S
C337 H343 0.959 . S
C337 H344 0.961 . S
C337 H345 0.960 . S
C338 C336 1.381 . S
C338 C339 1.394 . S
C338 H346 0.930 . S
C339 C338 1.394 . S
C339 C340 1.383 . S
C339 H347 0.929 . S
C340 C339 1.383 . S
C340 C341 1.377 . S
C341 H325 0.930 . S
C341 C340 1.377 . S
C341 C342 1.379 . S
C342 H326 0.931 . S
C342 C336 1.383 . S
C342 C341 1.379 . S
H343 C337 0.959 . S
H344 C337 0.961 . S
H345 C337 0.960 . S
H346 C338 0.930 . S
H347 C339 0.929 . S
H348 C356 0.929 . S
H349 C358 0.930 . S
H350 C360 0.930 . S
H351 C363 0.929 . S
H352 C366 0.930 . S
H353 C368 0.960 . S
H354 C368 0.960 . S
H355 C368 0.960 . S
C356 H348 0.929 . S
C356 C357 1.377 . S
C356 C358 1.384 . S
C357 C356 1.377 . S
C357 C363 1.390 . S
C358 H349 0.930 . S
C358 C356 1.384 . S
C358 C359 1.372 . S
C359 C358 1.372 . S
C359 C360 1.400 . S
C359 C364 1.490 . S
C360 H350 0.930 . S
C360 C359 1.400 . S
C360 C363 1.386 . S
H361 C377 0.930 . S
H362 C378 0.931 . S
C363 H351 0.929 . S
C363 C357 1.390 . S
C363 C360 1.386 . S
C364 C359 1.490 . S
C364 C366 1.395 . S
C364 C367 1.403 . S
H365 C371 0.930 . S
C366 H352 0.930 . S
C366 C364 1.395 . S
C366 C369 1.403 . S
C367 C364 1.403 . S
C367 C368 1.524 . S
C367 C371 1.400 . S
C368 H353 0.960 . S
C368 H354 0.960 . S
C368 H355 0.960 . S
C368 C367 1.524 . S
C369 C366 1.403 . S
C369 C370 1.392 . S
C369 C373 1.495 . S
C370 C369 1.392 . S
C370 C371 1.385 . S
C370 C372 1.478 . S
C371 H365 0.930 . S
C371 C367 1.400 . S
C371 C370 1.385 . S
C372 C370 1.478 . S
C372 C374 1.381 . S
C372 C378 1.383 . S
C373 C369 1.495 . S
C373 H379 0.959 . S
C373 H380 0.961 . S
C373 H381 0.960 . S
C374 C372 1.381 . S
C374 C375 1.394 . S
C374 H382 0.930 . S
C375 C374 1.394 . S
C375 C376 1.383 . S
C375 H383 0.929 . S
C376 C375 1.383 . S
C376 C377 1.377 . S
C377 H361 0.930 . S
C377 C376 1.377 . S
C377 C378 1.379 . S
C378 H362 0.931 . S
C378 C372 1.383 . S
C378 C377 1.379 . S
H379 C373 0.959 . S
H380 C373 0.961 . S
H381 C373 0.960 . S
H382 C374 0.930 . S
H383 C375 0.929 . S
H384 C392 0.929 . S
H385 C394 0.930 . S
H386 C396 0.930 . S
H387 C399 0.929 . S
H388 C402 0.930 . S
H389 C404 0.960 . S
H390 C404 0.960 . S
H391 C404 0.960 . S
C392 H384 0.929 . S
C392 C393 1.377 . S
C392 C394 1.384 . S
C393 C392 1.377 . S
C393 C399 1.390 . S
C394 H385 0.930 . S
C394 C392 1.384 . S
C394 C395 1.372 . S
C395 C394 1.372 . S
C395 C396 1.400 . S
C395 C400 1.490 . S
C396 H386 0.930 . S
C396 C395 1.400 . S
C396 C399 1.386 . S
H397 C413 0.930 . S
H398 C414 0.931 . S
C399 H387 0.929 . S
C399 C393 1.390 . S
C399 C396 1.386 . S
C400 C395 1.490 . S
C400 C402 1.395 . S
C400 C403 1.403 . S
H401 C407 0.930 . S
C402 H388 0.930 . S
C402 C400 1.395 . S
C402 C405 1.403 . S
C403 C400 1.403 . S
C403 C404 1.524 . S
C403 C407 1.400 . S
C404 H389 0.960 . S
C404 H390 0.960 . S
C404 H391 0.960 . S
C404 C403 1.524 . S
C405 C402 1.403 . S
C405 C406 1.392 . S
C405 C409 1.495 . S
C406 C405 1.392 . S
C406 C407 1.385 . S
C406 C408 1.478 . S
C407 H401 0.930 . S
C407 C403 1.400 . S
C407 C406 1.385 . S
C408 C406 1.478 . S
C408 C410 1.381 . S
C408 C414 1.383 . S
C409 C405 1.495 . S
C409 H415 0.959 . S
C409 H416 0.961 . S
C409 H417 0.960 . S
C410 C408 1.381 . S
C410 C411 1.394 . S
C410 H418 0.930 . S
C411 C410 1.394 . S
C411 C412 1.383 . S
C411 H419 0.929 . S
C412 C411 1.383 . S
C412 C413 1.377 . S
C413 H397 0.930 . S
C413 C412 1.377 . S
C413 C414 1.379 . S
C414 H398 0.931 . S
C414 C408 1.383 . S
C414 C413 1.379 . S
H415 C409 0.959 . S
H416 C409 0.961 . S
H417 C409 0.960 . S
H418 C410 0.930 . S
H419 C411 0.929 . S
H420 C428 0.929 . S
H421 C430 0.930 . S
H422 C432 0.930 . S
H423 C435 0.929 . S
H424 C438 0.930 . S
H425 C440 0.960 . S
H426 C440 0.960 . S
H427 C440 0.960 . S
C428 H420 0.929 . S
C428 C429 1.377 . S
C428 C430 1.384 . S
C429 C428 1.377 . S
C429 C435 1.390 . S
C430 H421 0.930 . S
C430 C428 1.384 . S
C430 C431 1.372 . S
C431 C430 1.372 . S
C431 C432 1.400 . S
C431 C436 1.490 . S
C432 H422 0.930 . S
C432 C431 1.400 . S
C432 C435 1.386 . S
H433 C449 0.930 . S
H434 C450 0.931 . S
C435 H423 0.929 . S
C435 C429 1.390 . S
C435 C432 1.386 . S
C436 C431 1.490 . S
C436 C438 1.395 . S
C436 C439 1.403 . S
H437 C443 0.930 . S
C438 H424 0.930 . S
C438 C436 1.395 . S
C438 C441 1.403 . S
C439 C436 1.403 . S
C439 C440 1.524 . S
C439 C443 1.400 . S
C440 H425 0.960 . S
C440 H426 0.960 . S
C440 H427 0.960 . S
C440 C439 1.524 . S
C441 C438 1.403 . S
C441 C442 1.392 . S
C441 C445 1.495 . S
C442 C441 1.392 . S
C442 C443 1.385 . S
C442 C444 1.478 . S
C443 H437 0.930 . S
C443 C439 1.400 . S
C443 C442 1.385 . S
C444 C442 1.478 . S
C444 C446 1.381 . S
C444 C450 1.383 . S
C445 C441 1.495 . S
C445 H451 0.958 1_655 S
C445 H452 0.961 . S
C445 H453 0.960 1_655 S
C446 C444 1.381 . S
C446 C447 1.394 1_655 S
C446 H454 0.930 1_655 S
C447 C446 1.394 1_455 S
C447 C448 1.383 1_455 S
C447 H455 0.929 . S
C448 C447 1.383 1_655 S
C448 C449 1.377 . S
C449 H433 0.930 . S
C449 C448 1.377 . S
C449 C450 1.379 . S
C450 H434 0.931 . S
C450 C444 1.383 . S
C450 C449 1.379 . S
H451 C445 0.958 1_455 S
H452 C445 0.961 . S
H453 C445 0.960 1_455 S
H454 C446 0.930 1_455 S
H455 C447 0.929 . S
H456 C464 0.929 . S
H457 C466 0.930 . S
H458 C468 0.930 . S
H459 C471 0.929 . S
H460 C474 0.930 . S
H461 C476 0.960 . S
H462 C476 0.960 . S
H463 C476 0.960 . S
C464 H456 0.929 . S
C464 C465 1.377 . S
C464 C466 1.384 . S
C465 C464 1.377 . S
C465 C471 1.390 . S
C466 H457 0.930 . S
C466 C464 1.384 . S
C466 C467 1.372 . S
C467 C466 1.372 . S
C467 C468 1.400 . S
C467 C472 1.490 . S
C468 H458 0.930 . S
C468 C467 1.400 . S
C468 C471 1.386 . S
H469 C485 0.930 . S
H470 C486 0.931 . S
C471 H459 0.929 . S
C471 C465 1.390 . S
C471 C468 1.386 . S
C472 C467 1.490 . S
C472 C474 1.395 . S
C472 C475 1.403 . S
H473 C479 0.930 . S
C474 H460 0.930 . S
C474 C472 1.395 . S
C474 C477 1.403 . S
C475 C472 1.403 . S
C475 C476 1.524 . S
C475 C479 1.400 . S
C476 H461 0.960 . S
C476 H462 0.960 . S
C476 H463 0.960 . S
C476 C475 1.524 . S
C477 C474 1.403 . S
C477 C478 1.392 . S
C477 C481 1.495 . S
C478 C477 1.392 . S
C478 C479 1.385 . S
C478 C480 1.478 . S
C479 H473 0.930 . S
C479 C475 1.400 . S
C479 C478 1.385 . S
C480 C478 1.478 . S
C480 C482 1.381 . S
C480 C486 1.383 . S
C481 C477 1.495 . S
C481 H487 0.959 . S
C481 H488 0.961 . S
C481 H489 0.960 . S
C482 C480 1.381 . S
C482 C483 1.394 . S
C482 H490 0.930 . S
C483 C482 1.394 . S
C483 C484 1.383 . S
C483 H491 0.929 . S
C484 C483 1.383 . S
C484 C485 1.377 . S
C485 H469 0.930 . S
C485 C484 1.377 . S
C485 C486 1.379 . S
C486 H470 0.931 . S
C486 C480 1.383 . S
C486 C485 1.379 . S
H487 C481 0.959 . S
H488 C481 0.961 . S
H489 C481 0.960 . S
H490 C482 0.930 . S
H491 C483 0.929 . S
H492 C500 0.929 . S
H493 C502 0.930 . S
H494 C504 0.930 . S
H495 C507 0.929 . S
H496 C510 0.930 . S
H497 C512 0.960 . S
H498 C512 0.960 . S
H499 C512 0.960 . S
C500 H492 0.929 . S
C500 C501 1.377 . S
C500 C502 1.384 . S
C501 C500 1.377 . S
C501 C507 1.390 . S
C502 H493 0.930 . S
C502 C500 1.384 . S
C502 C503 1.372 . S
C503 C502 1.372 . S
C503 C504 1.400 . S
C503 C508 1.490 . S
C504 H494 0.930 . S
C504 C503 1.400 . S
C504 C507 1.386 . S
H505 C521 0.930 . S
H506 C522 0.931 . S
C507 H495 0.929 . S
C507 C501 1.390 . S
C507 C504 1.386 . S
C508 C503 1.490 . S
C508 C510 1.395 . S
C508 C511 1.403 . S
H509 C515 0.930 . S
C510 H496 0.930 . S
C510 C508 1.395 . S
C510 C513 1.403 . S
C511 C508 1.403 . S
C511 C512 1.524 . S
C511 C515 1.400 . S
C512 H497 0.960 . S
C512 H498 0.960 . S
C512 H499 0.960 . S
C512 C511 1.524 . S
C513 C510 1.403 . S
C513 C514 1.392 . S
C513 C517 1.495 1_565 S
C514 C513 1.392 . S
C514 C515 1.385 . S
C514 C516 1.478 . S
C515 H509 0.930 . S
C515 C511 1.400 . S
C515 C514 1.385 . S
C516 C514 1.478 . S
C516 C518 1.381 1_565 S
C516 C522 1.383 . S
C517 C513 1.495 1_545 S
C517 H523 0.959 . S
C517 H524 0.961 . S
C517 H525 0.960 . S
C518 C516 1.381 1_545 S
C518 C519 1.394 . S
C518 H526 0.930 . S
C519 C518 1.394 . S
C519 C520 1.383 . S
C519 H527 0.929 . S
C520 C519 1.383 . S
C520 C521 1.377 1_545 S
C521 H505 0.930 . S
C521 C520 1.377 1_565 S
C521 C522 1.379 . S
C522 H506 0.931 . S
C522 C516 1.383 . S
C522 C521 1.379 . S
H523 C517 0.959 . S
H524 C517 0.961 . S
H525 C517 0.960 . S
H526 C518 0.930 . S
H527 C519 0.929 . S
H528 C536 0.929 . S
H529 C538 0.930 . S
H530 C540 0.930 . S
H531 C543 0.929 . S
H532 C546 0.930 . S
H533 C548 0.960 . S
H534 C548 0.960 . S
H535 C548 0.960 . S
C536 H528 0.929 . S
C536 C537 1.377 . S
C536 C538 1.384 . S
C537 C536 1.377 . S
C537 C543 1.390 . S
C538 H529 0.930 . S
C538 C536 1.384 . S
C538 C539 1.372 . S
C539 C538 1.372 . S
C539 C540 1.400 . S
C539 C544 1.490 . S
C540 H530 0.930 . S
C540 C539 1.400 . S
C540 C543 1.386 . S
H541 C557 0.930 . S
H542 C558 0.931 . S
C543 H531 0.929 . S
C543 C537 1.390 . S
C543 C540 1.386 . S
C544 C539 1.490 . S
C544 C546 1.395 . S
C544 C547 1.403 . S
H545 C551 0.930 . S
C546 H532 0.930 . S
C546 C544 1.395 . S
C546 C549 1.403 . S
C547 C544 1.403 . S
C547 C548 1.524 . S
C547 C551 1.400 . S
C548 H533 0.960 . S
C548 H534 0.960 . S
C548 H535 0.960 . S
C548 C547 1.524 . S
C549 C546 1.403 . S
C549 C550 1.392 . S
C549 C553 1.495 . S
C550 C549 1.392 . S
C550 C551 1.385 . S
C550 C552 1.478 . S
C551 H545 0.930 . S
C551 C547 1.400 . S
C551 C550 1.385 . S
C552 C550 1.478 . S
C552 C554 1.381 . S
C552 C558 1.383 . S
C553 C549 1.495 . S
C553 H559 0.959 . S
C553 H560 0.961 . S
C553 H561 0.960 . S
C554 C552 1.381 . S
C554 C555 1.394 . S
C554 H562 0.930 . S
C555 C554 1.394 . S
C555 C556 1.383 . S
C555 H563 0.929 1_556 S
C556 C555 1.383 . S
C556 C557 1.377 . S
C557 H541 0.930 . S
C557 C556 1.377 . S
C557 C558 1.379 . S
C558 H542 0.931 . S
C558 C552 1.383 . S
C558 C557 1.379 . S
H559 C553 0.959 . S
H560 C553 0.961 . S
H561 C553 0.960 . S
H562 C554 0.930 . S
H563 C555 0.929 1_554 S
H564 C572 0.929 . S
H565 C574 0.930 . S
H566 C576 0.930 . S
H567 C579 0.929 . S
H568 C582 0.930 . S
H569 C584 0.960 . S
H570 C584 0.960 . S
H571 C584 0.960 . S
C572 H564 0.929 . S
C572 C573 1.377 . S
C572 C574 1.384 . S
C573 C572 1.377 . S
C573 C579 1.390 . S
C574 H565 0.930 . S
C574 C572 1.384 . S
C574 C575 1.372 . S
C575 C574 1.372 . S
C575 C576 1.400 . S
C575 C580 1.490 . S
C576 H566 0.930 . S
C576 C575 1.400 . S
C576 C579 1.386 . S
H577 C593 0.930 . S
H578 C594 0.931 . S
C579 H567 0.929 . S
C579 C573 1.390 . S
C579 C576 1.386 . S
C580 C575 1.490 . S
C580 C582 1.395 . S
C580 C583 1.403 . S
H581 C587 0.930 . S
C582 H568 0.930 . S
C582 C580 1.395 . S
C582 C585 1.403 . S
C583 C580 1.403 . S
C583 C584 1.524 . S
C583 C587 1.400 . S
C584 H569 0.960 . S
C584 H570 0.960 . S
C584 H571 0.960 . S
C584 C583 1.524 . S
C585 C582 1.403 . S
C585 C586 1.392 . S
C585 C589 1.495 . S
C586 C585 1.392 . S
C586 C587 1.385 . S
C586 C588 1.478 . S
C587 H581 0.930 . S
C587 C583 1.400 . S
C587 C586 1.385 . S
C588 C586 1.478 . S
C588 C590 1.381 . S
C588 C594 1.383 . S
C589 C585 1.495 . S
C589 H595 0.959 . S
C589 H596 0.961 . S
C589 H597 0.960 . S
C590 C588 1.381 . S
C590 C591 1.394 . S
C590 H598 0.930 . S
C591 C590 1.394 . S
C591 C592 1.383 . S
C591 H599 0.929 . S
C592 C591 1.383 . S
C592 C593 1.377 . S
C593 H577 0.930 . S
C593 C592 1.377 . S
C593 C594 1.379 . S
C594 H578 0.931 . S
C594 C588 1.383 . S
C594 C593 1.379 . S
H595 C589 0.959 . S
H596 C589 0.961 . S
H597 C589 0.960 . S
H598 C590 0.930 . S
H599 C591 0.929 . S
H600 C608 0.929 . S
H601 C610 0.930 . S
H602 C612 0.930 . S
H603 C615 0.929 . S
H604 C618 0.930 . S
H605 C620 0.960 . S
H606 C620 0.960 . S
H607 C620 0.960 . S
C608 H600 0.929 . S
C608 C609 1.377 . S
C608 C610 1.384 . S
C609 C608 1.377 . S
C609 C615 1.390 . S
C610 H601 0.930 . S
C610 C608 1.384 . S
C610 C611 1.372 . S
C611 C610 1.372 . S
C611 C612 1.400 . S
C611 C616 1.490 . S
C612 H602 0.930 . S
C612 C611 1.400 . S
C612 C615 1.386 . S
H613 C629 0.930 . S
H614 C630 0.931 . S
C615 H603 0.929 . S
C615 C609 1.390 . S
C615 C612 1.386 . S
C616 C611 1.490 . S
C616 C618 1.395 . S
C616 C619 1.403 . S
H617 C623 0.930 . S
C618 H604 0.930 . S
C618 C616 1.395 . S
C618 C621 1.403 . S
C619 C616 1.403 . S
C619 C620 1.524 . S
C619 C623 1.400 . S
C620 H605 0.960 . S
C620 H606 0.960 . S
C620 H607 0.960 . S
C620 C619 1.524 . S
C621 C618 1.403 . S
C621 C622 1.392 . S
C621 C625 1.495 . S
C622 C621 1.392 . S
C622 C623 1.385 . S
C622 C624 1.478 . S
C623 H617 0.930 . S
C623 C619 1.400 . S
C623 C622 1.385 . S
C624 C622 1.478 . S
C624 C626 1.381 . S
C624 C630 1.383 . S
C625 C621 1.495 . S
C625 H631 0.959 . S
C625 H632 0.961 . S
C625 H633 0.960 . S
C626 C624 1.381 . S
C626 C627 1.394 . S
C626 H634 0.930 . S
C627 C626 1.394 . S
C627 C628 1.383 . S
C627 H635 0.929 . S
C628 C627 1.383 . S
C628 C629 1.377 . S
C629 H613 0.930 . S
C629 C628 1.377 . S
C629 C630 1.379 . S
C630 H614 0.931 . S
C630 C624 1.383 . S
C630 C629 1.379 . S
H631 C625 0.959 . S
H632 C625 0.961 . S
H633 C625 0.960 . S
H634 C626 0.930 . S
H635 C627 0.929 . S
H636 C644 0.929 . S
H637 C646 0.930 . S
H638 C648 0.930 . S
H639 C651 0.929 . S
H640 C654 0.930 . S
H641 C656 0.960 . S
H642 C656 0.960 . S
H643 C656 0.960 . S
C644 H636 0.929 . S
C644 C645 1.377 . S
C644 C646 1.384 . S
C645 C644 1.377 . S
C645 C651 1.390 . S
C646 H637 0.930 . S
C646 C644 1.384 . S
C646 C647 1.372 . S
C647 C646 1.372 . S
C647 C648 1.400 . S
C647 C652 1.490 . S
C648 H638 0.930 . S
C648 C647 1.400 . S
C648 C651 1.386 . S
H649 C665 0.932 . S
H650 C666 0.931 . S
C651 H639 0.929 . S
C651 C645 1.390 . S
C651 C648 1.386 . S
C652 C647 1.490 . S
C652 C654 1.395 . S
C652 C655 1.403 . S
H653 C659 0.930 . S
C654 H640 0.930 . S
C654 C652 1.395 . S
C654 C657 1.403 . S
C655 C652 1.403 . S
C655 C656 1.524 . S
C655 C659 1.400 . S
C656 H641 0.960 . S
C656 H642 0.960 . S
C656 H643 0.960 . S
C656 C655 1.524 . S
C657 C654 1.403 . S
C657 C658 1.392 . S
C657 C661 1.495 . S
C658 C657 1.392 . S
C658 C659 1.385 . S
C658 C660 1.478 1_556 S
C659 H653 0.930 . S
C659 C655 1.400 . S
C659 C658 1.385 . S
C660 C658 1.478 1_554 S
C660 C662 1.381 . S
C660 C666 1.383 1_554 S
C661 C657 1.495 . S
C661 H667 0.959 . S
C661 H668 0.961 . S
C661 H669 0.960 1_556 S
C662 C660 1.381 . S
C662 C663 1.394 . S
C662 H670 0.930 . S
C663 C662 1.394 . S
C663 C664 1.383 . S
C663 H671 0.929 . S
C664 C663 1.383 . S
C664 C665 1.372 1_554 S
C665 H649 0.932 . S
C665 C664 1.372 1_556 S
C665 C666 1.382 . S
C666 H650 0.931 . S
C666 C660 1.383 1_556 S
C666 C665 1.382 . S
H667 C661 0.959 . S
H668 C661 0.961 . S
H669 C661 0.960 1_554 S
H670 C662 0.930 . S
H671 C663 0.929 . S
H672 C680 0.929 . S
H673 C682 0.930 . S
H674 C684 0.930 . S
H675 C687 0.929 . S
H676 C690 0.930 . S
H677 C692 0.960 . S
H678 C692 0.960 . S
H679 C692 0.960 . S
C680 H672 0.929 . S
C680 C681 1.377 . S
C680 C682 1.384 . S
C681 C680 1.377 . S
C681 C687 1.390 . S
C682 H673 0.930 . S
C682 C680 1.384 . S
C682 C683 1.372 . S
C683 C682 1.372 . S
C683 C684 1.400 . S
C683 C688 1.490 . S
C684 H674 0.930 . S
C684 C683 1.400 . S
C684 C687 1.386 . S
H685 C701 0.930 . S
H686 C702 0.931 . S
C687 H675 0.929 . S
C687 C681 1.390 . S
C687 C684 1.386 . S
C688 C683 1.490 . S
C688 C690 1.395 . S
C688 C691 1.403 . S
H689 C695 0.930 . S
C690 H676 0.930 . S
C690 C688 1.395 . S
C690 C693 1.403 . S
C691 C688 1.403 . S
C691 C692 1.524 . S
C691 C695 1.400 . S
C692 H677 0.960 . S
C692 H678 0.960 . S
C692 H679 0.960 . S
C692 C691 1.524 . S
C693 C690 1.403 . S
C693 C694 1.392 . S
C693 C697 1.495 . S
C694 C693 1.392 . S
C694 C695 1.385 . S
C694 C696 1.478 . S
C695 H689 0.930 . S
C695 C691 1.400 . S
C695 C694 1.385 . S
C696 C694 1.478 . S
C696 C698 1.381 . S
C696 C702 1.383 . S
C697 C693 1.495 . S
C697 H703 0.959 . S
C697 H704 0.961 . S
C697 H705 0.960 . S
C698 C696 1.381 . S
C698 C699 1.394 . S
C698 H706 0.930 . S
C699 C698 1.394 . S
C699 C700 1.383 . S
C699 H707 0.923 1_655 S
C700 C699 1.383 . S
C700 C701 1.377 . S
C701 H685 0.930 . S
C701 C700 1.377 . S
C701 C702 1.379 . S
C702 H686 0.931 . S
C702 C696 1.383 . S
C702 C701 1.379 . S
H703 C697 0.959 . S
H704 C697 0.961 . S
H705 C697 0.960 . S
H706 C698 0.930 . S
H707 C699 0.923 1_455 S
H708 C716 0.929 . S
H709 C718 0.930 . S
H710 C720 0.930 . S
H711 C723 0.929 . S
H712 C726 0.930 . S
H713 C728 0.960 . S
H714 C728 0.960 . S
H715 C728 0.960 . S
C716 H708 0.929 . S
C716 C717 1.377 . S
C716 C718 1.384 . S
C717 C716 1.377 . S
C717 C723 1.390 . S
C718 H709 0.930 . S
C718 C716 1.384 . S
C718 C719 1.372 . S
C719 C718 1.372 . S
C719 C720 1.400 . S
C719 C724 1.490 . S
C720 H710 0.930 . S
C720 C719 1.400 . S
C720 C723 1.386 . S
H721 C737 0.930 . S
H722 C738 0.931 . S
C723 H711 0.929 . S
C723 C717 1.390 . S
C723 C720 1.386 . S
C724 C719 1.490 . S
C724 C726 1.395 . S
C724 C727 1.403 . S
H725 C731 0.930 . S
C726 H712 0.930 . S
C726 C724 1.395 . S
C726 C729 1.403 . S
C727 C724 1.403 . S
C727 C728 1.524 . S
C727 C731 1.400 . S
C728 H713 0.960 . S
C728 H714 0.960 . S
C728 H715 0.960 . S
C728 C727 1.524 . S
C729 C726 1.403 . S
C729 C730 1.392 . S
C729 C733 1.495 . S
C730 C729 1.392 . S
C730 C731 1.385 . S
C730 C732 1.478 . S
C731 H725 0.930 . S
C731 C727 1.400 . S
C731 C730 1.385 . S
C732 C730 1.478 . S
C732 C734 1.381 . S
C732 C738 1.383 . S
C733 C729 1.495 . S
C733 H739 0.959 . S
C733 H740 0.961 . S
C733 H741 0.960 . S
C734 C732 1.381 . S
C734 C735 1.394 . S
C734 H742 0.930 . S
C735 C734 1.394 . S
C735 C736 1.383 . S
C735 H743 0.929 . S
C736 C735 1.383 . S
C736 C737 1.377 . S
C737 H721 0.930 . S
C737 C736 1.377 . S
C737 C738 1.379 . S
C738 H722 0.931 . S
C738 C732 1.383 . S
C738 C737 1.379 . S
H739 C733 0.959 . S
H740 C733 0.961 . S
H741 C733 0.960 . S
H742 C734 0.930 . S
H743 C735 0.929 . S
H744 C752 0.929 . S
H745 C754 0.930 . S
H746 C756 0.930 . S
H747 C759 0.929 . S
H748 C762 0.930 . S
H749 C764 0.960 . S
H750 C764 0.960 . S
H751 C764 0.960 . S
C752 H744 0.929 . S
C752 C753 1.377 . S
C752 C754 1.384 . S
C753 C752 1.377 . S
C753 C759 1.390 . S
C754 H745 0.930 . S
C754 C752 1.384 . S
C754 C755 1.372 . S
C755 C754 1.372 . S
C755 C756 1.400 . S
C755 C760 1.490 . S
C756 H746 0.930 . S
C756 C755 1.400 . S
C756 C759 1.386 . S
H757 C773 0.930 . S
H758 C774 0.931 . S
C759 H747 0.929 . S
C759 C753 1.390 . S
C759 C756 1.386 . S
C760 C755 1.490 . S
C760 C762 1.395 . S
C760 C763 1.403 . S
H761 C767 0.930 . S
C762 H748 0.930 . S
C762 C760 1.395 . S
C762 C765 1.403 . S
C763 C760 1.403 . S
C763 C764 1.524 . S
C763 C767 1.400 . S
C764 H749 0.960 . S
C764 H750 0.960 . S
C764 H751 0.960 . S
C764 C763 1.524 . S
C765 C762 1.403 . S
C765 C766 1.392 . S
C765 C769 1.495 . S
C766 C765 1.392 . S
C766 C767 1.385 . S
C766 C768 1.478 . S
C767 H761 0.930 . S
C767 C763 1.400 . S
C767 C766 1.385 . S
C768 C766 1.478 . S
C768 C770 1.381 . S
C768 C774 1.383 . S
C769 C765 1.495 . S
C769 H775 0.959 . S
C769 H776 0.961 . S
C769 H777 0.960 . S
C770 C768 1.381 . S
C770 C771 1.394 . S
C770 H778 0.930 . S
C771 C770 1.394 . S
C771 C772 1.383 . S
C771 H779 0.929 . S
C772 C771 1.383 . S
C772 C773 1.377 . S
C773 H757 0.930 . S
C773 C772 1.377 . S
C773 C774 1.379 . S
C774 H758 0.931 . S
C774 C768 1.383 . S
C774 C773 1.379 . S
H775 C769 0.959 . S
H776 C769 0.961 . S
H777 C769 0.960 . S
H778 C770 0.930 . S
H779 C771 0.929 . S
H780 C788 0.929 . S
H781 C790 0.930 . S
H782 C792 0.930 . S
H783 C795 0.929 . S
H784 C798 0.930 . S
H785 C800 0.960 . S
H786 C800 0.960 . S
H787 C800 0.960 . S
C788 H780 0.929 . S
C788 C789 1.377 . S
C788 C790 1.384 . S
C789 C788 1.377 . S
C789 C795 1.390 . S
C790 H781 0.930 . S
C790 C788 1.384 . S
C790 C791 1.372 . S
C791 C790 1.372 . S
C791 C792 1.400 . S
C791 C796 1.490 . S
C792 H782 0.930 . S
C792 C791 1.400 . S
C792 C795 1.386 . S
H793 C809 0.930 . S
H794 C810 0.931 . S
C795 H783 0.929 . S
C795 C789 1.390 . S
C795 C792 1.386 . S
C796 C791 1.490 . S
C796 C798 1.395 . S
C796 C799 1.403 . S
H797 C803 0.930 . S
C798 H784 0.930 . S
C798 C796 1.395 . S
C798 C801 1.403 . S
C799 C796 1.403 . S
C799 C800 1.524 . S
C799 C803 1.400 . S
C800 H785 0.960 . S
C800 H786 0.960 . S
C800 H787 0.960 . S
C800 C799 1.524 . S
C801 C798 1.403 . S
C801 C802 1.392 . S
C801 C805 1.495 . S
C802 C801 1.392 . S
C802 C803 1.385 . S
C802 C804 1.478 . S
C803 H797 0.930 . S
C803 C799 1.400 . S
C803 C802 1.385 . S
C804 C802 1.478 . S
C804 C806 1.381 . S
C804 C810 1.383 . S
C805 C801 1.495 . S
C805 H811 0.959 . S
C805 H812 0.961 . S
C805 H813 0.960 . S
C806 C804 1.381 . S
C806 C807 1.394 . S
C806 H814 0.930 . S
C807 C806 1.394 . S
C807 C808 1.383 . S
C807 H815 0.929 . S
C808 C807 1.383 . S
C808 C809 1.377 . S
C809 H793 0.930 . S
C809 C808 1.377 . S
C809 C810 1.379 . S
C810 H794 0.931 . S
C810 C804 1.383 . S
C810 C809 1.379 . S
H811 C805 0.959 . S
H812 C805 0.961 . S
H813 C805 0.960 . S
H814 C806 0.930 . S
H815 C807 0.929 . S
H816 C824 0.929 . S
H817 C826 0.930 . S
H818 C828 0.930 . S
H819 C831 0.929 . S
H820 C834 0.930 . S
H821 C836 0.960 . S
H822 C836 0.960 . S
H823 C836 0.960 . S
C824 H816 0.929 . S
C824 C825 1.377 . S
C824 C826 1.384 . S
C825 C824 1.377 . S
C825 C831 1.390 . S
C826 H817 0.930 . S
C826 C824 1.384 . S
C826 C827 1.372 . S
C827 C826 1.372 . S
C827 C828 1.400 . S
C827 C832 1.490 . S
C828 H818 0.930 . S
C828 C827 1.400 . S
C828 C831 1.386 . S
H829 C845 0.930 . S
H830 C846 0.931 . S
C831 H819 0.929 . S
C831 C825 1.390 . S
C831 C828 1.386 . S
C832 C827 1.490 . S
C832 C834 1.395 . S
C832 C835 1.403 . S
H833 C839 0.930 . S
C834 H820 0.930 . S
C834 C832 1.395 . S
C834 C837 1.403 . S
C835 C832 1.403 . S
C835 C836 1.524 . S
C835 C839 1.400 . S
C836 H821 0.960 . S
C836 H822 0.960 . S
C836 H823 0.960 . S
C836 C835 1.524 . S
C837 C834 1.403 . S
C837 C838 1.392 . S
C837 C841 1.495 . S
C838 C837 1.392 . S
C838 C839 1.385 . S
C838 C840 1.478 . S
C839 H833 0.930 . S
C839 C835 1.400 . S
C839 C838 1.385 . S
C840 C838 1.478 . S
C840 C842 1.381 . S
C840 C846 1.383 . S
C841 C837 1.495 . S
C841 H847 0.959 . S
C841 H848 0.961 . S
C841 H849 0.960 . S
C842 C840 1.381 . S
C842 C843 1.394 . S
C842 H850 0.930 . S
C843 C842 1.394 . S
C843 C844 1.383 . S
C843 H851 0.929 . S
C844 C843 1.383 . S
C844 C845 1.377 . S
C845 H829 0.930 . S
C845 C844 1.377 . S
C845 C846 1.379 . S
C846 H830 0.931 . S
C846 C840 1.383 . S
C846 C845 1.379 . S
H847 C841 0.959 . S
H848 C841 0.961 . S
H849 C841 0.960 . S
H850 C842 0.930 . S
H851 C843 0.929 . S
H852 C860 0.929 . S
H853 C862 0.930 . S
H854 C864 0.930 . S
H855 C867 0.929 . S
H856 C870 0.930 . S
H857 C872 0.960 . S
H858 C872 0.960 . S
H859 C872 0.960 . S
C860 H852 0.929 . S
C860 C861 1.377 . S
C860 C862 1.384 . S
C861 C860 1.377 . S
C861 C867 1.390 . S
C862 H853 0.930 . S
C862 C860 1.384 . S
C862 C863 1.372 . S
C863 C862 1.372 . S
C863 C864 1.400 . S
C863 C868 1.490 . S
C864 H854 0.930 . S
C864 C863 1.400 . S
C864 C867 1.386 . S
H865 C881 0.930 . S
H866 C882 0.931 . S
C867 H855 0.929 . S
C867 C861 1.390 . S
C867 C864 1.386 . S
C868 C863 1.490 . S
C868 C870 1.395 . S
C868 C871 1.403 . S
H869 C875 0.930 . S
C870 H856 0.930 . S
C870 C868 1.395 . S
C870 C873 1.403 . S
C871 C868 1.403 . S
C871 C872 1.524 . S
C871 C875 1.400 . S
C872 H857 0.960 . S
C872 H858 0.960 . S
C872 H859 0.960 . S
C872 C871 1.524 . S
C873 C870 1.403 . S
C873 C874 1.392 . S
C873 C877 1.495 . S
C874 C873 1.392 . S
C874 C875 1.385 . S
C874 C876 1.478 . S
C875 H869 0.930 . S
C875 C871 1.400 . S
C875 C874 1.385 . S
C876 C874 1.478 . S
C876 C878 1.381 . S
C876 C882 1.383 . S
C877 C873 1.495 . S
C877 H883 0.959 . S
C877 H884 0.961 . S
C877 H885 0.960 . S
C878 C876 1.381 . S
C878 C879 1.394 . S
C878 H886 0.930 . S
C879 C878 1.394 . S
C879 C880 1.383 . S
C879 H887 0.929 . S
C880 C879 1.383 . S
C880 C881 1.377 . S
C881 H865 0.930 . S
C881 C880 1.377 . S
C881 C882 1.379 . S
C882 H866 0.931 . S
C882 C876 1.383 . S
C882 C881 1.379 . S
H883 C877 0.959 . S
H884 C877 0.961 . S
H885 C877 0.960 . S
H886 C878 0.930 . S
H887 C879 0.929 . S
H888 C896 0.929 . S
H889 C898 0.930 . S
H890 C900 0.930 . S
H891 C903 0.929 . S
H892 C906 0.930 . S
H893 C908 0.960 . S
H894 C908 0.960 . S
H895 C908 0.960 . S
C896 H888 0.929 . S
C896 C897 1.377 . S
C896 C898 1.384 . S
C897 C896 1.377 . S
C897 C903 1.390 . S
C898 H889 0.930 . S
C898 C896 1.384 . S
C898 C899 1.372 . S
C899 C898 1.372 . S
C899 C900 1.400 . S
C899 C904 1.490 . S
C900 H890 0.930 . S
C900 C899 1.400 . S
C900 C903 1.386 . S
H901 C917 0.930 . S
H902 C918 0.931 . S
C903 H891 0.929 . S
C903 C897 1.390 . S
C903 C900 1.386 . S
C904 C899 1.490 . S
C904 C906 1.395 . S
C904 C907 1.403 . S
H905 C911 0.930 . S
C906 H892 0.930 . S
C906 C904 1.395 . S
C906 C909 1.403 . S
C907 C904 1.403 . S
C907 C908 1.524 . S
C907 C911 1.400 . S
C908 H893 0.960 . S
C908 H894 0.960 . S
C908 H895 0.960 . S
C908 C907 1.524 . S
C909 C906 1.403 . S
C909 C910 1.392 . S
C909 C913 1.495 . S
C910 C909 1.392 . S
C910 C911 1.385 . S
C910 C912 1.478 . S
C911 H905 0.930 . S
C911 C907 1.400 . S
C911 C910 1.385 . S
C912 C910 1.478 . S
C912 C914 1.381 1_556 S
C912 C918 1.383 . S
C913 C909 1.495 . S
C913 H919 0.959 . S
C913 H920 0.961 . S
C913 H921 0.960 1_556 S
C914 C912 1.381 1_554 S
C914 C915 1.394 . S
C914 H922 0.930 . S
C915 C914 1.394 . S
C915 C916 1.383 . S
C915 H923 0.929 . S
C916 C915 1.383 . S
C916 C917 1.377 1_554 S
C917 H901 0.930 . S
C917 C916 1.377 1_556 S
C917 C918 1.379 . S
C918 H902 0.931 . S
C918 C912 1.383 . S
C918 C917 1.379 . S
H919 C913 0.959 . S
H920 C913 0.961 . S
H921 C913 0.960 1_554 S
H922 C914 0.930 . S
H923 C915 0.929 . S
H924 C932 0.929 . S
H925 C934 0.930 . S
H926 C936 0.930 . S
H927 C939 0.929 . S
H928 C942 0.930 . S
H929 C944 0.960 . S
H930 C944 0.960 . S
H931 C944 0.960 . S
C932 H924 0.929 . S
C932 C933 1.377 . S
C932 C934 1.384 . S
C933 C932 1.377 . S
C933 C939 1.390 . S
C934 H925 0.930 . S
C934 C932 1.384 . S
C934 C935 1.372 . S
C935 C934 1.372 . S
C935 C936 1.400 . S
C935 C940 1.490 . S
C936 H926 0.930 . S
C936 C935 1.400 . S
C936 C939 1.386 . S
H937 C953 0.930 . S
H938 C954 0.931 . S
C939 H927 0.929 . S
C939 C933 1.390 . S
C939 C936 1.386 . S
C940 C935 1.490 . S
C940 C942 1.395 . S
C940 C943 1.403 . S
H941 C947 0.930 . S
C942 H928 0.930 . S
C942 C940 1.395 . S
C942 C945 1.403 . S
C943 C940 1.403 . S
C943 C944 1.524 . S
C943 C947 1.400 . S
C944 H929 0.960 . S
C944 H930 0.960 . S
C944 H931 0.960 . S
C944 C943 1.524 . S
C945 C942 1.403 . S
C945 C946 1.392 . S
C945 C949 1.495 . S
C946 C945 1.392 . S
C946 C947 1.385 . S
C946 C948 1.478 . S
C947 H941 0.930 . S
C947 C943 1.400 . S
C947 C946 1.385 . S
C948 C946 1.478 . S
C948 C950 1.381 . S
C948 C954 1.383 . S
C949 C945 1.495 . S
C949 H955 0.959 . S
C949 H956 0.961 . S
C949 H957 0.960 . S
C950 C948 1.381 . S
C950 C951 1.394 . S
C950 H958 0.930 . S
C951 C950 1.394 . S
C951 C952 1.383 . S
C951 H959 0.929 . S
C952 C951 1.383 . S
C952 C953 1.377 . S
C953 H937 0.930 . S
C953 C952 1.377 . S
C953 C954 1.379 . S
C954 H938 0.931 . S
C954 C948 1.383 . S
C954 C953 1.379 . S
H955 C949 0.959 . S
H956 C949 0.961 . S
H957 C949 0.960 . S
H958 C950 0.930 . S
H959 C951 0.929 . S
H960 C968 0.929 . S
H961 C970 0.930 . S
H962 C972 0.930 . S
H963 C975 0.929 . S
H964 C978 0.930 . S
H965 C980 0.960 . S
H966 C980 0.960 . S
H967 C980 0.960 . S
C968 H960 0.929 . S
C968 C969 1.377 . S
C968 C970 1.384 . S
C969 C968 1.377 . S
C969 C975 1.390 . S
C970 H961 0.930 . S
C970 C968 1.384 . S
C970 C971 1.372 . S
C971 C970 1.372 . S
C971 C972 1.400 . S
C971 C976 1.490 . S
C972 H962 0.930 . S
C972 C971 1.400 . S
C972 C975 1.386 . S
H973 C989 0.930 . S
H974 C990 0.931 . S
C975 H963 0.929 . S
C975 C969 1.390 . S
C975 C972 1.386 . S
C976 C971 1.490 . S
C976 C978 1.395 . S
C976 C979 1.403 . S
H977 C983 0.930 . S
C978 H964 0.930 . S
C978 C976 1.395 . S
C978 C981 1.403 . S
C979 C976 1.403 . S
C979 C980 1.524 . S
C979 C983 1.400 . S
C980 H965 0.960 . S
C980 H966 0.960 . S
C980 H967 0.960 . S
C980 C979 1.524 . S
C981 C978 1.403 . S
C981 C982 1.392 . S
C981 C985 1.495 . S
C982 C981 1.392 . S
C982 C983 1.385 . S
C982 C984 1.478 . S
C983 H977 0.930 . S
C983 C979 1.400 . S
C983 C982 1.385 . S
C984 C982 1.478 . S
C984 C986 1.381 . S
C984 C990 1.383 . S
C985 C981 1.495 . S
C985 H991 0.959 . S
C985 H992 0.961 . S
C985 H993 0.960 . S
C986 C984 1.381 . S
C986 C987 1.394 . S
C986 H994 0.930 . S
C987 C986 1.394 . S
C987 C988 1.383 . S
C987 H995 0.929 . S
C988 C987 1.383 . S
C988 C989 1.377 . S
C989 H973 0.930 . S
C989 C988 1.377 . S
C989 C990 1.379 . S
C990 H974 0.931 . S
C990 C984 1.383 . S
C990 C989 1.379 . S
H991 C985 0.959 . S
H992 C985 0.961 . S
H993 C985 0.960 . S
H994 C986 0.930 . S
H995 C987 0.929 . S
H996 C1004 0.929 . S
H997 C1006 0.930 . S
H998 C1008 0.930 . S
H999 C1011 0.929 . S
H1000 C1014 0.930 . S
H1001 C1016 0.960 . S
H1002 C1016 0.960 . S
H1003 C1016 0.960 . S
C1004 H996 0.929 . S
C1004 C1005 1.377 . S
C1004 C1006 1.384 . S
C1005 C1004 1.377 . S
C1005 C1011 1.390 . S
C1006 H997 0.930 . S
C1006 C1004 1.384 . S
C1006 C1007 1.372 . S
C1007 C1006 1.372 . S
C1007 C1008 1.400 . S
C1007 C1012 1.490 . S
C1008 H998 0.930 . S
C1008 C1007 1.400 . S
C1008 C1011 1.386 . S
H1009 C1025 0.930 . S
H1010 C1026 0.931 . S
C1011 H999 0.929 . S
C1011 C1005 1.390 . S
C1011 C1008 1.386 . S
C1012 C1007 1.490 . S
C1012 C1014 1.395 . S
C1012 C1015 1.403 . S
H1013 C1019 0.930 . S
C1014 H1000 0.930 . S
C1014 C1012 1.395 . S
C1014 C1017 1.403 . S
C1015 C1012 1.403 . S
C1015 C1016 1.524 . S
C1015 C1019 1.400 . S
C1016 H1001 0.960 . S
C1016 H1002 0.960 . S
C1016 H1003 0.960 . S
C1016 C1015 1.524 . S
C1017 C1014 1.403 . S
C1017 C1018 1.392 . S
C1017 C1021 1.495 . S
C1018 C1017 1.392 . S
C1018 C1019 1.385 . S
C1018 C1020 1.478 . S
C1019 H1013 0.930 . S
C1019 C1015 1.400 . S
C1019 C1018 1.385 . S
C1020 C1018 1.478 . S
C1020 C1022 1.381 . S
C1020 C1026 1.383 . S
C1021 C1017 1.495 . S
C1021 H1027 0.959 . S
C1021 H1028 0.961 . S
C1021 H1029 0.960 . S
C1022 C1020 1.381 . S
C1022 C1023 1.394 . S
C1022 H1030 0.930 . S
C1023 C1022 1.394 . S
C1023 C1024 1.383 . S
C1023 H1031 0.929 . S
C1024 C1023 1.383 . S
C1024 C1025 1.377 . S
C1025 H1009 0.930 . S
C1025 C1024 1.377 . S
C1025 C1026 1.379 . S
C1026 H1010 0.931 . S
C1026 C1020 1.383 . S
C1026 C1025 1.379 . S
H1027 C1021 0.959 . S
H1028 C1021 0.961 . S
H1029 C1021 0.960 . S
H1030 C1022 0.930 . S
H1031 C1023 0.929 . S
H1032 C1040 0.929 . S
H1033 C1042 0.930 . S
H1034 C1044 0.930 . S
H1035 C1047 0.929 . S
H1036 C1050 0.930 . S
H1037 C1052 0.960 . S
H1038 C1052 0.960 . S
H1039 C1052 0.960 . S
C1040 H1032 0.929 . S
C1040 C1041 1.377 . S
C1040 C1042 1.384 . S
C1041 C1040 1.377 . S
C1041 C1047 1.390 . S
C1042 H1033 0.930 . S
C1042 C1040 1.384 . S
C1042 C1043 1.372 . S
C1043 C1042 1.372 . S
C1043 C1044 1.400 . S
C1043 C1048 1.490 . S
C1044 H1034 0.930 . S
C1044 C1043 1.400 . S
C1044 C1047 1.386 . S
H1045 C1061 0.930 . S
H1046 C1062 0.931 . S
C1047 H1035 0.929 . S
C1047 C1041 1.390 . S
C1047 C1044 1.386 . S
C1048 C1043 1.490 . S
C1048 C1050 1.395 . S
C1048 C1051 1.403 . S
H1049 C1055 0.930 . S
C1050 H1036 0.930 . S
C1050 C1048 1.395 . S
C1050 C1053 1.403 . S
C1051 C1048 1.403 . S
C1051 C1052 1.524 . S
C1051 C1055 1.400 . S
C1052 H1037 0.960 . S
C1052 H1038 0.960 . S
C1052 H1039 0.960 . S
C1052 C1051 1.524 . S
C1053 C1050 1.403 . S
C1053 C1054 1.392 . S
C1053 C1057 1.495 . S
C1054 C1053 1.392 . S
C1054 C1055 1.385 . S
C1054 C1056 1.478 . S
C1055 H1049 0.930 . S
C1055 C1051 1.400 . S
C1055 C1054 1.385 . S
C1056 C1054 1.478 . S
C1056 C1058 1.381 . S
C1056 C1062 1.383 . S
C1057 C1053 1.495 . S
C1057 H1063 0.959 . S
C1057 H1064 0.961 . S
C1057 H1065 0.960 . S
C1058 C1056 1.381 . S
C1058 C1059 1.394 . S
C1058 H1066 0.930 . S
C1059 C1058 1.394 . S
C1059 C1060 1.383 . S
C1059 H1067 0.929 . S
C1060 C1059 1.383 . S
C1060 C1061 1.377 . S
C1061 H1045 0.930 . S
C1061 C1060 1.377 . S
C1061 C1062 1.379 . S
C1062 H1046 0.931 . S
C1062 C1056 1.383 . S
C1062 C1061 1.379 . S
H1063 C1057 0.959 . S
H1064 C1057 0.961 . S
H1065 C1057 0.960 . S
H1066 C1058 0.930 . S
H1067 C1059 0.929 . S
H1068 C1076 0.929 . S
H1069 C1078 0.930 . S
H1070 C1080 0.930 . S
H1071 C1083 0.929 . S
H1072 C1086 0.930 . S
H1073 C1088 0.960 . S
H1074 C1088 0.960 . S
H1075 C1088 0.960 . S
C1076 H1068 0.929 . S
C1076 C1077 1.377 . S
C1076 C1078 1.384 . S
C1077 C1076 1.377 . S
C1077 C1083 1.390 . S
C1078 H1069 0.930 . S
C1078 C1076 1.384 . S
C1078 C1079 1.372 . S
C1079 C1078 1.372 . S
C1079 C1080 1.400 . S
C1079 C1084 1.490 . S
C1080 H1070 0.930 . S
C1080 C1079 1.400 . S
C1080 C1083 1.386 . S
H1081 C1097 0.930 . S
H1082 C1098 0.931 . S
C1083 H1071 0.929 . S
C1083 C1077 1.390 . S
C1083 C1080 1.386 . S
C1084 C1079 1.490 . S
C1084 C1086 1.395 . S
C1084 C1087 1.403 . S
H1085 C1091 0.930 . S
C1086 H1072 0.930 . S
C1086 C1084 1.395 . S
C1086 C1089 1.403 . S
C1087 C1084 1.403 . S
C1087 C1088 1.524 . S
C1087 C1091 1.400 . S
C1088 H1073 0.960 . S
C1088 H1074 0.960 . S
C1088 H1075 0.960 . S
C1088 C1087 1.524 . S
C1089 C1086 1.403 . S
C1089 C1090 1.392 . S
C1089 C1093 1.495 . S
C1090 C1089 1.392 . S
C1090 C1091 1.385 . S
C1090 C1092 1.478 . S
C1091 H1085 0.930 . S
C1091 C1087 1.400 . S
C1091 C1090 1.385 . S
C1092 C1090 1.478 . S
C1092 C1094 1.381 . S
C1092 C1098 1.383 . S
C1093 C1089 1.495 . S
C1093 H1099 0.959 . S
C1093 H1100 0.961 . S
C1093 H1101 0.960 . S
C1094 C1092 1.381 . S
C1094 C1095 1.394 . S
C1094 H1102 0.930 . S
C1095 C1094 1.394 . S
C1095 C1096 1.383 . S
C1095 H1103 0.929 . S
C1096 C1095 1.383 . S
C1096 C1097 1.377 . S
C1097 H1081 0.930 . S
C1097 C1096 1.377 . S
C1097 C1098 1.379 . S
C1098 H1082 0.931 . S
C1098 C1092 1.383 . S
C1098 C1097 1.379 . S
H1099 C1093 0.959 . S
H1100 C1093 0.961 . S
H1101 C1093 0.960 . S
H1102 C1094 0.930 . S
H1103 C1095 0.929 . S
H1104 C1112 0.929 . S
H1105 C1114 0.930 . S
H1106 C1116 0.930 . S
H1107 C1119 0.929 . S
H1108 C1122 0.930 . S
H1109 C1124 0.960 . S
H1110 C1124 0.960 . S
H1111 C1124 0.960 . S
C1112 H1104 0.929 . S
C1112 C1113 1.377 . S
C1112 C1114 1.384 . S
C1113 C1112 1.377 . S
C1113 C1119 1.390 . S
C1114 H1105 0.930 . S
C1114 C1112 1.384 . S
C1114 C1115 1.372 . S
C1115 C1114 1.372 . S
C1115 C1116 1.400 . S
C1115 C1120 1.490 . S
C1116 H1106 0.930 . S
C1116 C1115 1.400 . S
C1116 C1119 1.386 . S
H1117 C1133 0.930 . S
H1118 C1134 0.931 . S
C1119 H1107 0.929 . S
C1119 C1113 1.390 . S
C1119 C1116 1.386 . S
C1120 C1115 1.490 . S
C1120 C1122 1.395 . S
C1120 C1123 1.403 . S
H1121 C1127 0.930 . S
C1122 H1108 0.930 . S
C1122 C1120 1.395 . S
C1122 C1125 1.403 . S
C1123 C1120 1.403 . S
C1123 C1124 1.524 . S
C1123 C1127 1.400 . S
C1124 H1109 0.960 . S
C1124 H1110 0.960 . S
C1124 H1111 0.960 . S
C1124 C1123 1.524 . S
C1125 C1122 1.403 . S
C1125 C1126 1.392 . S
C1125 C1129 1.495 . S
C1126 C1125 1.392 . S
C1126 C1127 1.385 . S
C1126 C1128 1.478 . S
C1127 H1121 0.930 . S
C1127 C1123 1.400 . S
C1127 C1126 1.385 . S
C1128 C1126 1.478 . S
C1128 C1130 1.381 . S
C1128 C1134 1.383 . S
C1129 C1125 1.495 . S
C1129 H1135 0.959 . S
C1129 H1136 0.961 . S
C1129 H1137 0.960 . S
C1130 C1128 1.381 . S
C1130 C1131 1.394 . S
C1130 H1138 0.930 . S
C1131 C1130 1.394 . S
C1131 C1132 1.383 . S
C1131 H1139 0.929 . S
C1132 C1131 1.383 . S
C1132 C1133 1.377 . S
C1133 H1117 0.930 . S
C1133 C1132 1.377 . S
C1133 C1134 1.379 . S
C1134 H1118 0.931 . S
C1134 C1128 1.383 . S
C1134 C1133 1.379 . S
H1135 C1129 0.959 . S
H1136 C1129 0.961 . S
H1137 C1129 0.960 . S
H1138 C1130 0.930 . S
H1139 C1131 0.929 . S
H1140 C1148 0.929 . S
H1141 C1150 0.930 . S
H1142 C1152 0.930 . S
H1143 C1155 0.929 . S
H1144 C1158 0.930 . S
H1145 C1160 0.960 . S
H1146 C1160 0.960 . S
H1147 C1160 0.960 . S
C1148 H1140 0.929 . S
C1148 C1149 1.377 . S
C1148 C1150 1.384 . S
C1149 C1148 1.377 . S
C1149 C1155 1.390 . S
C1150 H1141 0.930 . S
C1150 C1148 1.384 . S
C1150 C1151 1.372 . S
C1151 C1150 1.372 . S
C1151 C1152 1.400 . S
C1151 C1156 1.490 . S
C1152 H1142 0.930 . S
C1152 C1151 1.400 . S
C1152 C1155 1.386 . S
H1153 C1169 0.930 . S
H1154 C1170 0.931 . S
C1155 H1143 0.929 . S
C1155 C1149 1.390 . S
C1155 C1152 1.386 . S
C1156 C1151 1.490 . S
C1156 C1158 1.395 . S
C1156 C1159 1.403 . S
H1157 C1163 0.930 . S
C1158 H1144 0.930 . S
C1158 C1156 1.395 . S
C1158 C1161 1.403 . S
C1159 C1156 1.403 . S
C1159 C1160 1.524 . S
C1159 C1163 1.400 . S
C1160 H1145 0.960 . S
C1160 H1146 0.960 . S
C1160 H1147 0.960 . S
C1160 C1159 1.524 . S
C1161 C1158 1.403 . S
C1161 C1162 1.392 . S
C1161 C1165 1.495 . S
C1162 C1161 1.392 . S
C1162 C1163 1.385 . S
C1162 C1164 1.478 . S
C1163 H1157 0.930 . S
C1163 C1159 1.400 . S
C1163 C1162 1.385 . S
C1164 C1162 1.478 . S
C1164 C1166 1.381 . S
C1164 C1170 1.383 . S
C1165 C1161 1.495 . S
C1165 H1171 0.959 . S
C1165 H1172 0.961 . S
C1165 H1173 0.960 . S
C1166 C1164 1.381 . S
C1166 C1167 1.394 . S
C1166 H1174 0.930 . S
C1167 C1166 1.394 . S
C1167 C1168 1.383 . S
C1167 H1175 0.929 . S
C1168 C1167 1.383 . S
C1168 C1169 1.377 . S
C1169 H1153 0.930 . S
C1169 C1168 1.377 . S
C1169 C1170 1.379 . S
C1170 H1154 0.931 . S
C1170 C1164 1.383 . S
C1170 C1169 1.379 . S
H1171 C1165 0.959 . S
H1172 C1165 0.961 . S
H1173 C1165 0.960 . S
H1174 C1166 0.930 . S
H1175 C1167 0.929 . S
C321 C6 1.216 . S
C340 C159 1.231 . S
C357 C21 1.542 . S
C376 C208 1.554 . S
C412 C234 1.696 . S
C393 C49 1.618 . S
C429 C68 1.943 . S
C448 C282 1.985 1_655 S
C484 C194 3.238 . S
C465 C2 3.152 . S
C520 C162 0.351 . S
C501 C30 0.490 . S
C556 C283 1.747 . S
C537 C40 1.800 . S
C592 C251 1.326 . S
C573 C63 1.328 . S
C609 C11 1.498 . S
C628 C279 1.629 . S
C664 C211 2.597 . S
C645 C44 2.684 . S
C681 C59 1.901 . S
C700 C163 1.892 . S
C717 C25 1.084 . S
C736 C248 1.083 . S
C772 C168 1.572 . S
C753 C82 1.557 . S
C789 C101 1.205 . S
C808 C199 1.209 . S
C825 C125 2.197 . S
C844 C243 2.305 . S
C861 C144 1.616 . S
C880 C291 1.715 . S
C897 C87 1.925 . S
C916 C203 2.040 1_565 S
C952 C171 1.971 . S
C933 C97 1.997 . S
C988 C274 1.577 . S
C969 C120 1.607 . S
C1024 C242 1.344 . S
C1005 C135 1.391 . S
C1041 C78 2.024 . S
C1060 C288 2.099 . S
C1096 C202 1.812 . S
C1077 C116 1.851 . S
C1132 C154 2.659 . S
C1113 C139 2.669 . S
C1149 C106 0.764 . S
C1168 C239 0.827 . S
