# Generated by pormake.
# Topology eea, (3,6)-cn, num edge types: 1
# Building blocks:
#     Node 0, Type 0, BuildingBlock: BETDAH_clean_linker_0, # of connection points: 3
#     Node 1, Type 0, BuildingBlock: BETDAH_clean_linker_0, # of connection points: 3
#     Node 2, Type 0, BuildingBlock: BETDAH_clean_linker_0, # of connection points: 3
#     Node 3, Type 0, BuildingBlock: BETDAH_clean_linker_0, # of connection points: 3
#     Node 4, Type 0, BuildingBlock: BETDAH_clean_linker_0, # of connection points: 3
#     Node 5, Type 0, BuildingBlock: BETDAH_clean_linker_0, # of connection points: 3
#     Node 6, Type 0, BuildingBlock: BETDAH_clean_linker_0, # of connection points: 3
#     Node 7, Type 0, BuildingBlock: BETDAH_clean_linker_0, # of connection points: 3
#     Node 8, Type 0, BuildingBlock: BETDAH_clean_linker_0, # of connection points: 3
#     Node 9, Type 0, BuildingBlock: BETDAH_clean_linker_0, # of connection points: 3
#     Node 10, Type 0, BuildingBlock: BETDAH_clean_linker_0, # of connection points: 3
#     Node 11, Type 0, BuildingBlock: BETDAH_clean_linker_0, # of connection points: 3
#     Node 12, Type 0, BuildingBlock: BETDAH_clean_linker_0, # of connection points: 3
#     Node 13, Type 0, BuildingBlock: BETDAH_clean_linker_0, # of connection points: 3
#     Node 14, Type 0, BuildingBlock: BETDAH_clean_linker_0, # of connection points: 3
#     Node 15, Type 0, BuildingBlock: BETDAH_clean_linker_0, # of connection points: 3
#     Node 16, Type 0, BuildingBlock: BETDAH_clean_linker_0, # of connection points: 3
#     Node 17, Type 0, BuildingBlock: BETDAH_clean_linker_0, # of connection points: 3
#     Node 18, Type 1, BuildingBlock: KUMBUR_clean_sbu_0, # of connection points: 6
#     Node 19, Type 1, BuildingBlock: KUMBUR_clean_sbu_0, # of connection points: 6
#     Node 20, Type 1, BuildingBlock: KUMBUR_clean_sbu_0, # of connection points: 6
#     Node 21, Type 1, BuildingBlock: KUMBUR_clean_sbu_0, # of connection points: 6
#     Node 22, Type 1, BuildingBlock: KUMBUR_clean_sbu_0, # of connection points: 6
#     Node 23, Type 1, BuildingBlock: KUMBUR_clean_sbu_0, # of connection points: 6
#     Node 24, Type 1, BuildingBlock: KUMBUR_clean_sbu_0, # of connection points: 6
#     Node 25, Type 1, BuildingBlock: KUMBUR_clean_sbu_0, # of connection points: 6
#     Node 26, Type 1, BuildingBlock: KUMBUR_clean_sbu_0, # of connection points: 6
#     Edge 27, Type (0, 1), BuildingBlock: CIFDUS_clean_linker_0, # of connection points: 2
#     Edge 28, Type (0, 1), BuildingBlock: CIFDUS_clean_linker_0, # of connection points: 2
#     Edge 29, Type (0, 1), BuildingBlock: CIFDUS_clean_linker_0, # of connection points: 2
#     Edge 30, Type (0, 1), BuildingBlock: CIFDUS_clean_linker_0, # of connection points: 2
#     Edge 31, Type (0, 1), BuildingBlock: CIFDUS_clean_linker_0, # of connection points: 2
#     Edge 32, Type (0, 1), BuildingBlock: CIFDUS_clean_linker_0, # of connection points: 2
#     Edge 33, Type (0, 1), BuildingBlock: CIFDUS_clean_linker_0, # of connection points: 2
#     Edge 34, Type (0, 1), BuildingBlock: CIFDUS_clean_linker_0, # of connection points: 2
#     Edge 35, Type (0, 1), BuildingBlock: CIFDUS_clean_linker_0, # of connection points: 2
#     Edge 36, Type (0, 1), BuildingBlock: CIFDUS_clean_linker_0, # of connection points: 2
#     Edge 37, Type (0, 1), BuildingBlock: CIFDUS_clean_linker_0, # of connection points: 2
#     Edge 38, Type (0, 1), BuildingBlock: CIFDUS_clean_linker_0, # of connection points: 2
#     Edge 39, Type (0, 1), BuildingBlock: CIFDUS_clean_linker_0, # of connection points: 2
#     Edge 40, Type (0, 1), BuildingBlock: CIFDUS_clean_linker_0, # of connection points: 2
#     Edge 41, Type (0, 1), BuildingBlock: CIFDUS_clean_linker_0, # of connection points: 2
#     Edge 42, Type (0, 1), BuildingBlock: CIFDUS_clean_linker_0, # of connection points: 2
#     Edge 43, Type (0, 1), BuildingBlock: CIFDUS_clean_linker_0, # of connection points: 2
#     Edge 44, Type (0, 1), BuildingBlock: CIFDUS_clean_linker_0, # of connection points: 2
#     Edge 45, Type (0, 1), BuildingBlock: CIFDUS_clean_linker_0, # of connection points: 2
#     Edge 46, Type (0, 1), BuildingBlock: CIFDUS_clean_linker_0, # of connection points: 2
#     Edge 47, Type (0, 1), BuildingBlock: CIFDUS_clean_linker_0, # of connection points: 2
#     Edge 48, Type (0, 1), BuildingBlock: CIFDUS_clean_linker_0, # of connection points: 2
#     Edge 49, Type (0, 1), BuildingBlock: CIFDUS_clean_linker_0, # of connection points: 2
#     Edge 50, Type (0, 1), BuildingBlock: CIFDUS_clean_linker_0, # of connection points: 2
#     Edge 51, Type (0, 1), BuildingBlock: CIFDUS_clean_linker_0, # of connection points: 2
#     Edge 52, Type (0, 1), BuildingBlock: CIFDUS_clean_linker_0, # of connection points: 2
#     Edge 53, Type (0, 1), BuildingBlock: CIFDUS_clean_linker_0, # of connection points: 2
#     Edge 54, Type (0, 1), BuildingBlock: CIFDUS_clean_linker_0, # of connection points: 2
#     Edge 55, Type (0, 1), BuildingBlock: CIFDUS_clean_linker_0, # of connection points: 2
#     Edge 56, Type (0, 1), BuildingBlock: CIFDUS_clean_linker_0, # of connection points: 2
#     Edge 57, Type (0, 1), BuildingBlock: CIFDUS_clean_linker_0, # of connection points: 2
#     Edge 58, Type (0, 1), BuildingBlock: CIFDUS_clean_linker_0, # of connection points: 2
#     Edge 59, Type (0, 1), BuildingBlock: CIFDUS_clean_linker_0, # of connection points: 2
#     Edge 60, Type (0, 1), BuildingBlock: CIFDUS_clean_linker_0, # of connection points: 2
#     Edge 61, Type (0, 1), BuildingBlock: CIFDUS_clean_linker_0, # of connection points: 2
#     Edge 62, Type (0, 1), BuildingBlock: CIFDUS_clean_linker_0, # of connection points: 2
#     Edge 63, Type (0, 1), BuildingBlock: CIFDUS_clean_linker_0, # of connection points: 2
#     Edge 64, Type (0, 1), BuildingBlock: CIFDUS_clean_linker_0, # of connection points: 2
#     Edge 65, Type (0, 1), BuildingBlock: CIFDUS_clean_linker_0, # of connection points: 2
#     Edge 66, Type (0, 1), BuildingBlock: CIFDUS_clean_linker_0, # of connection points: 2
#     Edge 67, Type (0, 1), BuildingBlock: CIFDUS_clean_linker_0, # of connection points: 2
#     Edge 68, Type (0, 1), BuildingBlock: CIFDUS_clean_linker_0, # of connection points: 2
#     Edge 69, Type (0, 1), BuildingBlock: CIFDUS_clean_linker_0, # of connection points: 2
#     Edge 70, Type (0, 1), BuildingBlock: CIFDUS_clean_linker_0, # of connection points: 2
#     Edge 71, Type (0, 1), BuildingBlock: CIFDUS_clean_linker_0, # of connection points: 2
#     Edge 72, Type (0, 1), BuildingBlock: CIFDUS_clean_linker_0, # of connection points: 2
#     Edge 73, Type (0, 1), BuildingBlock: CIFDUS_clean_linker_0, # of connection points: 2
#     Edge 74, Type (0, 1), BuildingBlock: CIFDUS_clean_linker_0, # of connection points: 2
#     Edge 75, Type (0, 1), BuildingBlock: CIFDUS_clean_linker_0, # of connection points: 2
#     Edge 76, Type (0, 1), BuildingBlock: CIFDUS_clean_linker_0, # of connection points: 2
#     Edge 77, Type (0, 1), BuildingBlock: CIFDUS_clean_linker_0, # of connection points: 2
#     Edge 78, Type (0, 1), BuildingBlock: CIFDUS_clean_linker_0, # of connection points: 2
#     Edge 79, Type (0, 1), BuildingBlock: CIFDUS_clean_linker_0, # of connection points: 2
#     Edge 80, Type (0, 1), BuildingBlock: CIFDUS_clean_linker_0, # of connection points: 2
# Relax obj value: 0.023
# Max RMSD: 0.171
# Mean RMSD: 0.123
data_MOF--net-eea--node1-KUMBUR_clean_sbu_0--node2-BETDAH_clean_linker_0--edge1-CIFDUS_clean_linker_0
_symmetry_space_group_name_H-M    P1
_symmetry_Int_Tables_number       1
_symmetry_cell_setting            triclinic
loop_
_symmetry_equiv_pos_as_xyz
'x, y, z'
_cell_length_a     47.559806
_cell_length_b     48.777438
_cell_length_c     59.397653
_cell_angle_alpha  89.986771
_cell_angle_beta   90.029584
_cell_angle_gamma 119.95128
loop_
_atom_site_label
_atom_site_type_symbol
_atom_site_fract_x
_atom_site_fract_y
_atom_site_fract_z
_atom_type_partial_charge
H0 H 0.24721 0.05937 0.44905 0.0
H1 H 0.25776 0.15106 0.43648 0.0
H2 H 0.23544 0.08541 0.38201 0.0
C3 C 0.24645 0.07622 0.43752 0.0
C4 C 0.23991 0.06836 0.41461 0.0
C5 C 0.25315 0.10602 0.44561 0.0
C6 C 0.2523 0.12793 0.43052 0.0
C7 C 0.24539 0.12014 0.40759 0.0
C8 C 0.23962 0.09066 0.39983 0.0
N9 N 0.24599 0.14184 0.3914 0.0
C10 C 0.24026 0.16666 0.39565 0.0
H11 H 0.95237 0.1978 0.44209 0.0
H12 H 0.87427 0.10192 0.43296 0.0
H13 H 0.94466 0.14851 0.38047 0.0
C14 C 0.93992 0.17663 0.43187 0.0
C15 C 0.95192 0.17646 0.41029 0.0
C16 C 0.9121 0.14985 0.4404 0.0
C17 C 0.89569 0.12269 0.42667 0.0
C18 C 0.90769 0.12226 0.40503 0.0
C19 C 0.93579 0.14899 0.39719 0.0
N20 N 0.89286 0.09559 0.39049 0.0
C21 C 0.86314 0.06808 0.39353 0.0
H22 H 0.83099 0.78248 0.44746 0.0
H23 H 0.91249 0.76932 0.43207 0.0
H24 H 0.86952 0.79827 0.38044 0.0
C25 C 0.8485 0.78273 0.43567 0.0
C26 C 0.84754 0.7914 0.4132 0.0
C27 C 0.87125 0.77387 0.44289 0.0
C28 C 0.89497 0.77624 0.42724 0.0
C29 C 0.89463 0.78542 0.40473 0.0
C30 C 0.87027 0.79198 0.39784 0.0
N31 N 0.91606 0.78528 0.38793 0.0
C32 C 0.94899 0.79478 0.39036 0.0
H33 H 0.07281 0.24493 0.59667 0.0
H34 H 0.15387 0.23052 0.60944 0.0
H35 H 0.07919 0.20434 0.65929 0.0
C36 C 0.08574 0.23718 0.6076 0.0
C37 C 0.07262 0.2247 0.62891 0.0
C38 C 0.11489 0.23917 0.60014 0.0
C39 C 0.13113 0.2286 0.61464 0.0
C40 C 0.1182 0.21595 0.63599 0.0
C41 C 0.08884 0.21373 0.64276 0.0
N42 N 0.13381 0.20537 0.65135 0.0
C43 C 0.16466 0.20891 0.64912 0.0
H44 H 0.7602 0.8219 0.5929 0.0
H45 H 0.75721 0.90637 0.60976 0.0
H46 H 0.77809 0.85723 0.66092 0.0
C47 C 0.76246 0.83921 0.60527 0.0
C48 C 0.77082 0.8368 0.62763 0.0
C49 C 0.75721 0.86407 0.59863 0.0
C50 C 0.76161 0.88739 0.6145 0.0
C51 C 0.76927 0.88478 0.63695 0.0
C52 C 0.77322 0.85935 0.64337 0.0
N53 N 0.77068 0.90575 0.65401 0.0
C54 C 0.7834 0.93811 0.65127 0.0
H55 H 0.18665 0.93523 0.59901 0.0
H56 H 0.09633 0.85089 0.6146 0.0
H57 H 0.14022 0.92593 0.66298 0.0
C58 C 0.16674 0.92189 0.61051 0.0
C59 C 0.16665 0.93485 0.6317 0.0
C60 C 0.14176 0.89149 0.60418 0.0
C61 C 0.11579 0.87418 0.61926 0.0
C62 C 0.11513 0.88712 0.64033 0.0
C63 C 0.14063 0.91699 0.64636 0.0
N64 N 0.08984 0.87113 0.65635 0.0
C65 C 0.06203 0.84167 0.65393 0.0
H66 H 0.90728 0.39154 0.77374 0.0
H67 H 0.93131 0.48814 0.76167 0.0
H68 H 0.8959 0.42105 0.70772 0.0
C69 C 0.90886 0.40978 0.76251 0.0
C70 C 0.89937 0.4022 0.73987 0.0
C71 C 0.92053 0.44076 0.77072 0.0
C72 C 0.92151 0.46394 0.75601 0.0
C73 C 0.91229 0.45656 0.73338 0.0
C74 C 0.90165 0.42599 0.72544 0.0
N75 N 0.91766 0.48041 0.7176 0.0
C76 C 0.90158 0.49756 0.71828 0.0
H77 H 0.60763 0.52819 0.77729 0.0
H78 H 0.53664 0.42924 0.77101 0.0
H79 H 0.61333 0.4736 0.7224 0.0
C80 C 0.59829 0.5059 0.76844 0.0
C81 C 0.61409 0.50445 0.74878 0.0
C82 C 0.57029 0.479 0.77665 0.0
C83 C 0.558 0.45016 0.76483 0.0
C84 C 0.57381 0.44822 0.74537 0.0
C85 C 0.60175 0.47527 0.73763 0.0
N86 N 0.56275 0.41961 0.73307 0.0
C87 C 0.53296 0.39194 0.73561 0.0
H88 H 0.49742 0.10522 0.77132 0.0
H89 H 0.59114 0.11373 0.76036 0.0
H90 H 0.55567 0.15779 0.71464 0.0
C91 C 0.51959 0.11428 0.76162 0.0
C92 C 0.52353 0.13243 0.74218 0.0
C93 C 0.54384 0.10743 0.76847 0.0
C94 C 0.5723 0.11879 0.75534 0.0
C95 C 0.5766 0.13718 0.73597 0.0
C96 C 0.55233 0.144 0.72974 0.0
N97 N 0.6048 0.14948 0.72217 0.0
C98 C 0.62999 0.14278 0.72384 0.0
H99 H 0.72146 0.56537 0.93598 0.0
H100 H 0.80577 0.55394 0.94225 0.0
H101 H 0.7344 0.52233 0.99501 0.0
C102 C 0.73562 0.5573 0.94523 0.0
C103 C 0.7243 0.54303 0.96638 0.0
C104 C 0.7648 0.56108 0.93594 0.0
C105 C 0.78331 0.55122 0.94888 0.0
C106 C 0.77234 0.53737 0.97032 0.0
C107 C 0.74279 0.5331 0.9786 0.0
N108 N 0.78977 0.52744 0.98455 0.0
C109 C 0.81869 0.52753 0.98032 0.0
H110 H 0.44452 0.16959 0.93561 0.0
H111 H 0.44243 0.25507 0.95139 0.0
H112 H 0.48386 0.21852 0.99811 0.0
C113 C 0.45034 0.18934 0.9467 0.0
C114 C 0.46674 0.19204 0.96712 0.0
C115 C 0.44086 0.2117 0.94086 0.0
C116 C 0.44895 0.23735 0.95558 0.0
C117 C 0.4643 0.23952 0.97621 0.0
C118 C 0.4727 0.21682 0.98187 0.0
N119 N 0.46993 0.26302 0.99245 0.0
C120 C 0.47576 0.2933 0.98768 0.0
H121 H 0.85068 0.26942 0.92679 0.0
H122 H 0.75772 0.18852 0.94301 0.0
H123 H 0.80367 0.26619 0.98933 0.0
C124 C 0.83025 0.2574 0.93813 0.0
C125 C 0.83039 0.27199 0.95858 0.0
C126 C 0.80437 0.22723 0.93227 0.0
C127 C 0.77781 0.21166 0.94724 0.0
C128 C 0.77751 0.22606 0.96775 0.0
C129 C 0.80385 0.25584 0.97322 0.0
N130 N 0.75197 0.21155 0.98386 0.0
C131 C 0.72192 0.18411 0.98131 0.0
H132 H 0.58295 0.73738 0.11773 0.0
H133 H 0.61606 0.83594 0.10425 0.0
H134 H 0.57526 0.76799 0.05119 0.0
C135 C 0.58642 0.75609 0.10626 0.0
C136 C 0.57651 0.74857 0.08364 0.0
C137 C 0.60081 0.78762 0.11409 0.0
C138 C 0.60421 0.81142 0.09897 0.0
C139 C 0.59474 0.8041 0.07641 0.0
C140 C 0.58137 0.77298 0.06886 0.0
N141 N 0.60147 0.82809 0.0604 0.0
C142 C 0.59144 0.8502 0.06285 0.0
H143 H 0.2865 0.85834 0.1095 0.0
H144 H 0.20827 0.76312 0.0974 0.0
H145 H 0.27826 0.8141 0.04555 0.0
C146 C 0.27411 0.83786 0.09863 0.0
C147 C 0.28606 0.83934 0.07677 0.0
C148 C 0.24618 0.81047 0.10649 0.0
C149 C 0.2299 0.78425 0.0918 0.0
C150 C 0.24173 0.78568 0.06977 0.0
C151 C 0.26966 0.81309 0.06261 0.0
N152 N 0.22616 0.76095 0.05369 0.0
C153 C 0.20124 0.73004 0.05722 0.0
H154 H 0.14929 0.41997 0.10059 0.0
H155 H 0.2489 0.44224 0.09666 0.0
H156 H 0.21007 0.4793 0.04719 0.0
C157 C 0.1726 0.43177 0.09213 0.0
C158 C 0.17614 0.44951 0.07264 0.0
C159 C 0.19846 0.42886 0.10097 0.0
C160 C 0.22894 0.44461 0.09015 0.0
C161 C 0.23323 0.46294 0.07065 0.0
C162 C 0.20684 0.46556 0.0623 0.0
N163 N 0.26336 0.47912 0.05881 0.0
C164 C 0.29 0.47446 0.06088 0.0
H165 H 0.39736 0.9106 0.25785 0.0
H166 H 0.47933 0.89671 0.26839 0.0
H167 H 0.40902 0.8749 0.32106 0.0
C168 C 0.41071 0.90283 0.26833 0.0
C169 C 0.39924 0.89191 0.29022 0.0
C170 C 0.43938 0.9045 0.25997 0.0
C171 C 0.4571 0.89528 0.2743 0.0
C172 C 0.44609 0.8845 0.29641 0.0
C173 C 0.41713 0.8827 0.30398 0.0
N174 N 0.46375 0.87672 0.3122 0.0
C175 C 0.4895 0.87111 0.30834 0.0
H176 H 0.08841 0.48597 0.26147 0.0
H177 H 0.11028 0.58215 0.27142 0.0
H178 H 0.15451 0.54332 0.31378 0.0
C179 C 0.1015 0.50826 0.27037 0.0
C180 C 0.12182 0.51107 0.28859 0.0
C181 C 0.09725 0.53381 0.26389 0.0
C182 C 0.11307 0.56224 0.27628 0.0
C183 C 0.13335 0.56532 0.29447 0.0
C184 C 0.13793 0.54003 0.30018 0.0
N185 N 0.15016 0.59354 0.30732 0.0
C186 C 0.14538 0.61939 0.30611 0.0
H187 H 0.52761 0.60543 0.26504 0.0
H188 H 0.43489 0.52164 0.2761 0.0
H189 H 0.47569 0.59413 0.3267 0.0
C190 C 0.50685 0.59143 0.27576 0.0
C191 C 0.50509 0.60343 0.29689 0.0
C192 C 0.4819 0.56186 0.26806 0.0
C193 C 0.45421 0.54446 0.28171 0.0
C194 C 0.45198 0.55641 0.30284 0.0
C195 C 0.47742 0.58563 0.3102 0.0
N196 N 0.42499 0.54006 0.31753 0.0
C197 C 0.39804 0.51022 0.31419 0.0
Tb198 Tb 0.49246 0.98491 0.98788 0.0
C199 C 0.55697 0.09411 0.05452 0.0
C200 C 0.61386 0.10989 0.05389 0.0
C201 C 0.59762 0.14917 0.06076 0.0
C202 C 0.58094 0.08651 0.05159 0.0
C203 C 0.56486 0.12535 0.05965 0.0
C204 C 0.62212 0.14143 0.05788 0.0
C205 C 0.50758 0.10645 0.06422 0.0
N206 N 0.52575 0.07034 0.05349 0.0
C207 C 0.50106 0.07579 0.05922 0.0
C208 C 0.53961 0.13144 0.06413 0.0
Tb209 Tb 0.51726 0.02143 0.04324 0.0
N210 N 0.57182 0.05577 0.04783 0.0
C211 C 0.59454 0.04638 0.04815 0.0
C212 C 0.63733 0.10065 0.0528 0.0
C213 C 0.62755 0.06866 0.05035 0.0
H214 H 0.4762 0.05669 0.05909 0.0
H215 H 0.64545 0.06114 0.04995 0.0
H216 H 0.64729 0.15983 0.05939 0.0
H217 H 0.48791 0.11079 0.06809 0.0
H218 H 0.5876 0.02187 0.04603 0.0
H219 H 0.36275 0.9394 0.98693 0.0
H220 H 0.6629 0.11786 0.05443 0.0
H221 H 0.5359 0.95333 0.96895 0.0
H222 H 0.41997 0.98018 0.99061 0.0
H223 H 0.52622 0.90144 0.95608 0.0
H224 H 0.60425 0.17342 0.06443 0.0
H225 H 0.34777 0.88437 0.97751 0.0
H226 H 0.36576 0.84549 0.96713 0.0
H227 H 0.54462 0.15514 0.06809 0.0
H228 H 0.41032 0.83514 0.95867 0.0
N229 N 0.43812 0.94885 0.98396 0.0
C230 C 0.41422 0.95647 0.98641 0.0
C231 C 0.37313 0.90226 0.97912 0.0
C232 C 0.39764 0.89491 0.97542 0.0
C233 C 0.38149 0.93329 0.98437 0.0
C234 C 0.43024 0.91908 0.97786 0.0
H235 H 0.47027 0.85597 0.95425 0.0
N236 N 0.4859 0.93762 0.97505 0.0
C237 C 0.50595 0.90438 0.96095 0.0
C238 C 0.45506 0.91323 0.97323 0.0
C239 C 0.51131 0.93388 0.96827 0.0
C240 C 0.47436 0.87876 0.95998 0.0
C241 C 0.44837 0.88309 0.96586 0.0
O242 O 0.51944 0.00198 0.95791 0.0
O243 O 0.5298 0.02205 1.00831 0.0
O244 O 0.51276 0.05472 0.02048 0.0
O245 O 0.47581 0.01876 0.99479 0.0
O246 O 0.54455 0.00256 0.984 0.0
O247 O 0.47358 0.99994 0.96148 0.0
O248 O 0.4918 0.01056 0.07405 0.0
O249 O 0.48042 0.98386 0.02309 0.0
O250 O 0.4978 0.95138 1.00911 0.0
O251 O 0.53168 0.98513 0.03746 0.0
O252 O 0.46498 0.00298 0.04703 0.0
O253 O 0.53269 0.00374 0.07009 0.0
C254 C 0.55476 0.02364 0.99952 0.0
C255 C 0.49014 0.99601 0.92448 0.0
C256 C 0.4946 0.00846 0.88411 0.0
C257 C 0.50045 0.01837 0.90685 0.0
C258 C 0.47806 0.97581 0.87946 0.0
C259 C 0.47357 0.96367 0.91931 0.0
C260 C 0.46759 0.95369 0.89692 0.0
C261 C 0.49081 0.04707 1.00431 0.0
C262 C 0.49786 0.00679 0.94807 0.0
C263 C 0.416 0.85855 0.96412 0.0
C264 C 0.39064 0.86444 0.96893 0.0
C265 C 0.45509 0.98095 0.03217 0.0
C266 C 0.5217 0.01453 0.10701 0.0
C267 C 0.5111 0.9941 0.12596 0.0
C268 C 0.52207 0.00616 0.14792 0.0
C269 C 0.54318 0.03896 0.15039 0.0
C270 C 0.54288 0.04696 0.11019 0.0
C271 C 0.55342 0.05904 0.13174 0.0
C272 C 0.51799 0.95779 0.02629 0.0
C273 C 0.51069 0.00209 0.08397 0.0
H274 H 0.51347 0.0434 0.91082 0.0
H275 H 0.4727 0.96732 0.86227 0.0
H276 H 0.46538 0.94614 0.93253 0.0
H277 H 0.45475 0.92865 0.89308 0.0
H278 H 0.49487 0.96897 0.12357 0.0
H279 H 0.5516 0.04929 0.16689 0.0
H280 H 0.55125 0.06298 0.09602 0.0
H281 H 0.56963 0.08418 0.13401 0.0
Tb282 Tb 0.02674 0.50823 0.98939 0.0
C283 C 0.91267 0.45949 0.05552 0.0
C284 C 0.89385 0.49721 0.05403 0.0
C285 C 0.85578 0.44197 0.0623 0.0
C286 C 0.91889 0.48988 0.0519 0.0
C287 C 0.88119 0.43519 0.0611 0.0
C288 C 0.86211 0.47297 0.05876 0.0
C289 C 0.90276 0.3999 0.0651 0.0
N290 N 0.93787 0.45397 0.05408 0.0
C291 C 0.93358 0.42484 0.05954 0.0
C292 C 0.87636 0.40499 0.06566 0.0
Tb293 Tb 0.98711 0.49591 0.04362 0.0
N294 N 0.94989 0.51254 0.04745 0.0
C295 C 0.95791 0.54365 0.04675 0.0
C296 C 0.90166 0.52879 0.05195 0.0
C297 C 0.93393 0.55216 0.04867 0.0
H298 H 0.95366 0.42046 0.05897 0.0
H299 H 0.94037 0.57676 0.04747 0.0
H300 H 0.84247 0.47806 0.06021 0.0
H301 H 0.89937 0.37674 0.0689 0.0
H302 H 0.9826 0.56208 0.04404 0.0
H303 H 0.06442 0.42025 0.98885 0.0
H304 H 0.88313 0.53544 0.05338 0.0
H305 H 0.06564 0.58285 0.9722 0.0
H306 H 0.02519 0.43899 0.99009 0.0
H307 H 0.12211 0.62415 0.96403 0.0
H308 H 0.83133 0.42358 0.06637 0.0
H309 H 0.12307 0.4585 0.98502 0.0
H310 H 0.16748 0.51494 0.97939 0.0
H311 H 0.85252 0.38564 0.06998 0.0
H312 H 0.18331 0.57068 0.97273 0.0
N313 N 0.06102 0.48784 0.98733 0.0
C314 C 0.05056 0.45614 0.98823 0.0
C315 C 0.1059 0.46695 0.98546 0.0
C316 C 0.1163 0.49917 0.98329 0.0
C317 C 0.07281 0.4453 0.98756 0.0
C318 C 0.09293 0.50887 0.9841 0.0
H319 H 0.16645 0.61163 0.96665 0.0
N320 N 0.07802 0.54755 0.98 0.0
C321 C 0.11676 0.60058 0.96871 0.0
C322 C 0.10181 0.53998 0.98041 0.0
C323 C 0.08478 0.57709 0.97324 0.0
C324 C 0.14173 0.59346 0.97028 0.0
C325 C 0.13433 0.56266 0.97575 0.0
O326 O 0.01928 0.52247 0.9575 0.0
O327 O 0.98808 0.50789 1.00852 0.0
O328 O 0.95256 0.45986 0.02083 0.0
O329 O 0.98798 0.45802 0.99458 0.0
O330 O 0.00844 0.54113 0.98389 0.0
O331 O 0.00884 0.47475 0.96316 0.0
O332 O 0.99973 0.48362 0.07446 0.0
O333 O 0.02653 0.49769 0.02445 0.0
O334 O 0.05947 0.54691 0.01195 0.0
O335 O 0.02253 0.54641 0.03804 0.0
O336 O 0.00688 0.46382 0.04825 0.0
O337 O 1.00204 0.5286 0.07033 0.0
C338 C 0.9862 0.53007 0.99901 0.0
C339 C 0.0253 0.49535 0.92657 0.0
C340 C 0.02022 0.48248 0.88641 0.0
C341 C 1.00606 0.48344 0.90705 0.0
C342 C 0.05387 0.49409 0.88557 0.0
C343 C 0.05877 0.50676 0.92523 0.0
C344 C 0.07294 0.50622 0.90483 0.0
C345 C 0.95897 0.44554 1.00438 0.0
C346 C 0.01022 0.49505 0.94832 0.0
C347 C 0.15809 0.55357 0.97602 0.0
C348 C 0.14908 0.52183 0.97979 0.0
C349 C 0.02967 0.47608 0.03356 0.0
C350 C 0.99214 0.50662 0.10706 0.0
C351 C 0.0117 0.50971 0.12574 0.0
C352 C 0.9996 0.50629 0.14787 0.0
C353 C 0.96747 0.49976 0.15088 0.0
C354 C 0.96024 0.50012 0.11048 0.0
C355 C 0.94804 0.49675 0.13231 0.0
C356 C 0.05144 0.56042 0.0282 0.0
C357 C 1.00548 0.50979 0.08424 0.0
H358 H 0.98012 0.47433 0.90802 0.0
H359 H 0.06549 0.49394 0.86992 0.0
H360 H 0.07394 0.51598 0.93992 0.0
H361 H 0.09881 0.5151 0.90397 0.0
H362 H 0.03646 0.51506 0.12298 0.0
H363 H 0.95713 0.49646 0.16757 0.0
H364 H 0.9448 0.49761 0.09635 0.0
H365 H 0.92334 0.4916 0.13485 0.0
Tb366 Tb 0.52666 0.50838 0.04925 0.0
C367 C 0.46921 0.56913 0.98627 0.0
C368 C 0.41163 0.53197 0.98579 0.0
C369 C 0.43119 0.58794 0.97989 0.0
C370 C 0.44394 0.53869 0.98834 0.0
C371 C 0.46332 0.59417 0.98162 0.0
C372 C 0.40535 0.55684 0.98197 0.0
C373 C 0.52124 0.62903 0.97916 0.0
N374 N 0.49973 0.57397 0.98792 0.0
C375 C 0.52576 0.60333 0.98364 0.0
C376 C 0.48987 0.62451 0.97839 0.0
Tb377 Tb 0.50517 0.53095 0.99659 0.0
N378 N 0.45117 0.51549 0.99207 0.0
C379 C 0.42692 0.48449 0.99181 0.0
C380 C 0.3867 0.50044 0.98673 0.0
C381 C 0.39444 0.47658 0.98946 0.0
H382 H 0.55017 0.60728 0.98434 0.0
H383 H 0.37539 0.45204 0.98988 0.0
H384 H 0.38068 0.55221 0.98017 0.0
H385 H 0.54197 0.6523 0.97633 0.0
H386 H 0.43206 0.46554 0.99403 0.0
H387 H 0.65701 0.58153 0.05656 0.0
H388 H 0.36153 0.49425 0.98495 0.0
H389 H 0.4782 0.43143 0.05826 0.0
H390 H 0.60091 0.57108 0.05404 0.0
H391 H 0.48359 0.38393 0.06242 0.0
H392 H 0.42611 0.60686 0.97651 0.0
H393 H 0.66799 0.537 0.0572 0.0
H394 H 0.64598 0.47812 0.05814 0.0
H395 H 0.48641 0.64442 0.97484 0.0
H396 H 0.59871 0.42423 0.05983 0.0
N397 N 0.57981 0.52094 0.05289 0.0
C398 C 0.60508 0.55131 0.05451 0.0
C399 C 0.64319 0.53222 0.05618 0.0
C400 C 0.61715 0.50117 0.05578 0.0
C401 C 0.63708 0.5574 0.05589 0.0
C402 C 0.5854 0.49632 0.05434 0.0
H403 H 0.53795 0.38884 0.06169 0.0
N404 N 0.52903 0.46299 0.05481 0.0
C405 C 0.50503 0.40695 0.06042 0.0
C406 C 0.55904 0.4662 0.0554 0.0
C407 C 0.50208 0.43396 0.05815 0.0
C408 C 0.53575 0.4098 0.05994 0.0
C409 C 0.56331 0.43977 0.05775 0.0
O410 O 0.50096 0.4922 0.0797 0.0
O411 O 0.49195 0.51607 0.03092 0.0
O412 O 0.51369 0.56776 0.02152 0.0
O413 O 0.54562 0.55974 0.04776 0.0
O414 O 0.47332 0.47915 0.05256 0.0
O415 O 0.5459 0.53651 0.07831 0.0
O416 O 0.53131 0.54627 0.96611 0.0
O417 O 0.54105 0.52532 0.01524 0.0
O418 O 0.52318 0.47564 0.02316 0.0
O419 O 0.48654 0.47928 0.99933 0.0
O420 O 0.55762 0.56272 0.99386 0.0
O421 O 0.48949 0.49981 0.96897 0.0
C422 C 0.46548 0.49468 0.03894 0.0
C423 C 0.53245 0.50855 0.11285 0.0
C424 C 0.5351 0.51168 0.15401 0.0
C425 C 0.52556 0.5187 0.13329 0.0
C426 C 0.55099 0.49388 0.15392 0.0
C427 C 0.54842 0.49097 0.11328 0.0
C428 C 0.55751 0.48359 0.1337 0.0
C429 C 0.53408 0.57715 0.0389 0.0
C430 C 0.52266 0.51618 0.09124 0.0
C431 C 0.59486 0.44424 0.05824 0.0
C432 C 0.62177 0.47492 0.05727 0.0
C433 C 0.56683 0.54843 1.00758 0.0
C434 C 0.50268 0.52234 0.93258 0.0
C435 C 0.51775 0.51627 0.91438 0.0
C436 C 0.50849 0.51745 0.89199 0.0
C437 C 0.48387 0.52495 0.8882 0.0
C438 C 0.47834 0.52989 0.92839 0.0
C439 C 0.46903 0.53117 0.90628 0.0
C440 C 0.50128 0.46414 1.00699 0.0
C441 C 0.51228 0.51991 0.95573 0.0
H442 H 0.51345 0.53253 0.13304 0.0
H443 H 0.55833 0.48783 0.16955 0.0
H444 H 0.55384 0.48288 0.09788 0.0
H445 H 0.56975 0.46992 0.13386 0.0
H446 H 0.53636 0.51015 0.91772 0.0
H447 H 0.47643 0.52651 0.87124 0.0
H448 H 0.46649 0.53463 0.94217 0.0
H449 H 0.45024 0.53705 0.90312 0.0
Tb450 Tb 0.16227 0.32161 0.32431 0.0
C451 C 0.22792 0.42317 0.39782 0.0
C452 C 0.28434 0.43834 0.39367 0.0
C453 C 0.26989 0.47631 0.40806 0.0
C454 C 0.2511 0.41584 0.39142 0.0
C455 C 0.2369 0.4531 0.40695 0.0
C456 C 0.29362 0.46894 0.40136 0.0
C457 C 0.18047 0.43346 0.41577 0.0
N458 N 0.1965 0.39994 0.39677 0.0
C459 C 0.17287 0.40416 0.40652 0.0
C460 C 0.21257 0.45826 0.4156 0.0
Tb461 Tb 0.18577 0.35271 0.38119 0.0
N462 N 0.24097 0.38583 0.38458 0.0
C463 C 0.26317 0.37607 0.38154 0.0
C464 C 0.30714 0.42901 0.38896 0.0
C465 C 0.29647 0.39758 0.38326 0.0
H466 H 0.14794 0.38522 0.40655 0.0
H467 H 0.31386 0.38987 0.38011 0.0
H468 H 0.31903 0.48669 0.40294 0.0
H469 H 0.16154 0.43691 0.42293 0.0
H470 H 0.25566 0.352 0.37702 0.0
H471 H 0.03408 0.28319 0.32202 0.0
H472 H 0.33292 0.44558 0.39036 0.0
H473 H 0.20272 0.28762 0.30478 0.0
H474 H 0.09212 0.32176 0.32618 0.0
H475 H 0.19025 0.2348 0.29131 0.0
H476 H 0.27733 0.49961 0.41476 0.0
H477 H 0.01622 0.22743 0.31269 0.0
H478 H 0.03129 0.18631 0.30257 0.0
H479 H 0.21843 0.48089 0.42283 0.0
H480 H 0.07384 0.17305 0.29422 0.0
N481 N 0.10754 0.28821 0.31996 0.0
C482 C 0.08496 0.29762 0.32207 0.0
C483 C 0.04186 0.24429 0.31454 0.0
C484 C 0.06515 0.23518 0.31115 0.0
C485 C 0.05186 0.27575 0.31974 0.0
C486 C 0.09817 0.25802 0.31391 0.0
H487 H 0.13328 0.19113 0.28966 0.0
N488 N 0.15335 0.27366 0.31144 0.0
C489 C 0.17081 0.23883 0.29651 0.0
C490 C 0.12192 0.25044 0.30949 0.0
C491 C 0.17778 0.26873 0.30412 0.0
C492 C 0.13862 0.21422 0.29565 0.0
C493 C 0.11363 0.21999 0.30181 0.0
O494 O 0.19039 0.33771 0.29477 0.0
O495 O 0.19826 0.35751 0.34592 0.0
O496 O 0.17771 0.38747 0.36295 0.0
O497 O 0.14901 0.3582 0.33109 0.0
O498 O 0.21469 0.34011 0.32126 0.0
O499 O 0.14466 0.33629 0.29686 0.0
O500 O 0.15944 0.33718 0.41166 0.0
O501 O 0.14902 0.31788 0.35941 0.0
O502 O 0.16526 0.28565 0.34425 0.0
O503 O 0.19931 0.31632 0.37341 0.0
O504 O 0.13374 0.3354 0.38463 0.0
O505 O 0.20144 0.33265 0.40614 0.0
C506 C 0.22386 0.36104 0.33692 0.0
C507 C 0.16212 0.32993 0.26064 0.0
C508 C 0.16875 0.33898 0.21971 0.0
C509 C 0.17367 0.35082 0.24204 0.0
C510 C 0.15272 0.30589 0.21665 0.0
C511 C 0.14519 0.29726 0.25677 0.0
C512 C 0.14078 0.28537 0.23497 0.0
C513 C 0.16003 0.38331 0.34451 0.0
C514 C 0.16926 0.34224 0.28397 0.0
C515 C 0.08077 0.19672 0.29987 0.0
C516 C 0.05654 0.20428 0.30459 0.0
C517 C 0.12377 0.31524 0.36845 0.0
C518 C 0.19082 0.34123 0.44368 0.0
C519 C 0.17357 0.32324 0.46269 0.0
C520 C 0.18407 0.33516 0.48463 0.0
C521 C 0.21196 0.36495 0.48729 0.0
C522 C 0.21882 0.37077 0.4469 0.0
C523 C 0.22928 0.3825 0.46855 0.0
C524 C 0.18474 0.2898 0.36142 0.0
C525 C 0.17942 0.32942 0.42061 0.0
H526 H 0.18617 0.37609 0.24504 0.0
H527 H 0.14949 0.29561 0.20005 0.0
H528 H 0.13569 0.28084 0.27056 0.0
H529 H 0.12821 0.26004 0.23226 0.0
H530 H 0.15184 0.30045 0.46044 0.0
H531 H 0.22038 0.37463 0.50396 0.0
H532 H 0.23267 0.38481 0.43269 0.0
H533 H 0.25083 0.40537 0.47082 0.0
Tb534 Tb 0.69081 0.83681 0.32392 0.0
C535 C 0.58601 0.80707 0.38927 0.0
C536 C 0.57358 0.84884 0.383 0.0
C537 C 0.53085 0.79664 0.39446 0.0
C538 C 0.59579 0.83768 0.38298 0.0
C539 C 0.55369 0.78642 0.39584 0.0
C540 C 0.5408 0.82785 0.38804 0.0
C541 C 0.57011 0.74905 0.40757 0.0
N542 N 0.60898 0.79847 0.39077 0.0
C543 C 0.60194 0.7706 0.40106 0.0
C544 C 0.54573 0.75675 0.40456 0.0
Tb545 Tb 0.66024 0.83499 0.379 0.0
N546 N 0.62769 0.85717 0.37849 0.0
C547 C 0.63947 0.88884 0.37542 0.0
C548 C 0.58525 0.88097 0.37885 0.0
C549 C 0.61846 0.90118 0.37554 0.0
H550 H 0.62071 0.76453 0.40342 0.0
H551 H 0.62786 0.92618 0.37274 0.0
H552 H 0.52323 0.83581 0.3878 0.0
H553 H 0.56443 0.72658 0.41496 0.0
H554 H 0.66498 0.90465 0.37248 0.0
H555 H 0.63958 0.73806 0.26629 0.0
H556 H 0.56901 0.89053 0.37875 0.0
H557 H 0.76458 0.87789 0.34622 0.0
H558 H 0.64105 0.78169 0.28841 0.0
H559 H 0.81465 0.87493 0.34752 0.0
H560 H 0.50577 0.781 0.39913 0.0
H561 H 0.68513 0.72732 0.26881 0.0
H562 H 0.74096 0.7436 0.28355 0.0
H563 H 0.52115 0.74015 0.40981 0.0
H564 H 0.78896 0.78137 0.30525 0.0
N565 N 0.68596 0.79412 0.3044 0.0
C566 C 0.66086 0.7769 0.2898 0.0
C567 C 0.68572 0.74625 0.2787 0.0
C568 C 0.71254 0.76565 0.2922 0.0
C569 C 0.65999 0.75226 0.27721 0.0
C570 C 0.71206 0.78997 0.30472 0.0
H571 H 0.81685 0.8307 0.32888 0.0
N572 N 0.738 0.83537 0.32732 0.0
C573 C 0.79357 0.8569 0.33872 0.0
C574 C 0.73911 0.81144 0.31652 0.0
C575 C 0.76501 0.85848 0.33792 0.0
C576 C 0.79471 0.83188 0.32822 0.0
C577 C 0.76739 0.80893 0.3167 0.0
O578 O 0.72718 0.87131 0.30326 0.0
O579 O 0.66147 0.85019 0.34439 0.0
O580 O 0.62519 0.79221 0.36053 0.0
O581 O 0.65754 0.7872 0.33313 0.0
O582 O 0.64249 0.82716 0.31431 0.0
O583 O 0.67791 0.84554 0.29182 0.0
O584 O 0.674 0.82491 0.41036 0.0
O585 O 0.69851 0.8339 0.35958 0.0
O586 O 0.71863 0.88511 0.33707 0.0
O587 O 0.70167 0.88279 0.3742 0.0
O588 O 0.67618 0.80061 0.38446 0.0
O589 O 0.67209 0.86741 0.40569 0.0
C590 C 0.63703 0.84006 0.3313 0.0
C591 C 0.71847 0.85501 0.26493 0.0
C592 C 0.70629 0.83138 0.22715 0.0
C593 C 0.69692 0.84154 0.24656 0.0
C594 C 0.73772 0.83546 0.22625 0.0
C595 C 0.7497 0.85871 0.26343 0.0
C596 C 0.75915 0.84901 0.24423 0.0
C597 C 0.63044 0.77561 0.34509 0.0
C598 C 0.70795 0.86379 0.28594 0.0
C599 C 0.76757 0.78388 0.30516 0.0
C600 C 0.7402 0.7623 0.29288 0.0
C601 C 0.69847 0.81065 0.3694 0.0
C602 C 0.66049 0.84476 0.44211 0.0
C603 C 0.67713 0.84518 0.46184 0.0
C604 C 0.66146 0.83862 0.48288 0.0
C605 C 0.62913 0.83192 0.48399 0.0
C606 C 0.62839 0.83857 0.44367 0.0
C607 C 0.61283 0.83214 0.46451 0.0
C608 C 0.72067 0.89817 0.35698 0.0
C609 C 0.67655 0.84986 0.42005 0.0
H610 H 0.67268 0.83826 0.24759 0.0
H611 H 0.74595 0.82848 0.21148 0.0
H612 H 0.76684 0.86884 0.27718 0.0
H613 H 0.78324 0.85195 0.24328 0.0
H614 H 0.70192 0.8499 0.46079 0.0
H615 H 0.61659 0.82675 0.5 0.0
H616 H 0.61531 0.83863 0.42883 0.0
H617 H 0.58801 0.8272 0.46554 0.0
Tb618 Tb 0.18905 0.8396 0.37895 0.0
C619 C 0.122 0.87535 0.30969 0.0
C620 C 0.06604 0.83363 0.31229 0.0
C621 C 0.07877 0.88692 0.30217 0.0
C622 C 0.09948 0.84434 0.31427 0.0
C623 C 0.11205 0.89684 0.30283 0.0
C624 C 0.05577 0.85532 0.30693 0.0
C625 C 0.16824 0.93475 0.29503 0.0
N626 N 0.15377 0.88369 0.31018 0.0
C627 C 0.17682 0.91243 0.30182 0.0
C628 C 0.13576 0.92712 0.29591 0.0
Tb629 Tb 0.16552 0.84571 0.32197 0.0
N630 N 0.1105 0.82417 0.31902 0.0
C631 C 0.08929 0.79237 0.32039 0.0
C632 C 0.0441 0.80129 0.31485 0.0
C633 C 0.05583 0.78049 0.31843 0.0
H634 H 0.20197 0.91846 0.30119 0.0
H635 H 0.03911 0.75535 0.31999 0.0
H636 H 0.03017 0.84767 0.30562 0.0
H637 H 0.18665 0.95779 0.2891 0.0
H638 H 0.09796 0.77607 0.3235 0.0
H639 H 0.31883 0.92156 0.37607 0.0
H640 H 0.01819 0.79206 0.31346 0.0
H641 H 0.15006 0.77016 0.40645 0.0
H642 H 0.26163 0.90689 0.37599 0.0
H643 H 0.16203 0.72888 0.41905 0.0
H644 H 0.07058 0.90316 0.29723 0.0
H645 H 0.33452 0.88077 0.38155 0.0
H646 H 0.31771 0.82441 0.39049 0.0
H647 H 0.12914 0.94436 0.29049 0.0
H648 H 0.27468 0.7714 0.40186 0.0
N649 N 0.2438 0.85733 0.38036 0.0
C650 C 0.26751 0.88844 0.37831 0.0
C651 C 0.30908 0.87399 0.38145 0.0
C652 C 0.28496 0.84266 0.38533 0.0
C653 C 0.30032 0.89707 0.37841 0.0
C654 C 0.25214 0.83503 0.3849 0.0
H655 H 0.21665 0.73579 0.41311 0.0
N656 N 0.19706 0.79961 0.3923 0.0
C657 C 0.18072 0.75004 0.41094 0.0
C658 C 0.22791 0.80507 0.39093 0.0
C659 C 0.17413 0.7736 0.40389 0.0
C660 C 0.21151 0.75395 0.40745 0.0
C661 C 0.23587 0.78216 0.39805 0.0
O662 O 0.1636 0.82693 0.40963 0.0
O663 O 0.14875 0.82849 0.35576 0.0
O664 O 0.17055 0.88594 0.34193 0.0
O665 O 0.20685 0.88884 0.36928 0.0
O666 O 0.14597 0.84268 0.38733 0.0
O667 O 0.20976 0.87027 0.40664 0.0
O668 O 0.19107 0.8584 0.29111 0.0
O669 O 0.20248 0.84562 0.34342 0.0
O670 O 0.1674 0.79179 0.36466 0.0
O671 O 0.15693 0.79746 0.32688 0.0
O672 O 0.21759 0.87898 0.31871 0.0
O673 O 0.14845 0.81316 0.29506 0.0
C674 C 0.13119 0.83462 0.36852 0.0
C675 C 0.19405 0.84713 0.44313 0.0
C676 C 0.18829 0.85068 0.48393 0.0
C677 C 0.18181 0.85603 0.46164 0.0
C678 C 0.20711 0.83612 0.4873 0.0
C679 C 0.21321 0.8332 0.44699 0.0
C680 C 0.21951 0.82758 0.46896 0.0
C681 C 0.19136 0.90101 0.35843 0.0
C682 C 0.18583 0.85197 0.42005 0.0
C683 C 0.26819 0.7889 0.39687 0.0
C684 C 0.29271 0.81911 0.39046 0.0
C685 C 0.22774 0.86723 0.3339 0.0
C686 C 0.16002 0.83465 0.25831 0.0
C687 C 0.17078 0.8251 0.23924 0.0
C688 C 0.15979 0.8268 0.21741 0.0
C689 C 0.13844 0.83879 0.21511 0.0
C690 C 0.13849 0.8461 0.25538 0.0
C691 C 0.12793 0.84829 0.23393 0.0
C692 C 0.15816 0.78063 0.34398 0.0
C693 C 0.17086 0.83209 0.28116 0.0
H694 H 0.16702 0.86684 0.45866 0.0
H695 H 0.21293 0.83202 0.50415 0.0
H696 H 0.22333 0.82668 0.43312 0.0
H697 H 0.23427 0.81673 0.47181 0.0
H698 H 0.18714 0.81588 0.24146 0.0
H699 H 0.13004 0.84116 0.19867 0.0
H700 H 0.12971 0.85326 0.26966 0.0
H701 H 0.11146 0.85738 0.23186 0.0
Tb702 Tb 0.82492 0.65576 0.66412 0.0
C703 C 0.88014 0.75973 0.73646 0.0
C704 C 0.93778 0.77872 0.73662 0.0
C705 C 0.91787 0.81431 0.74668 0.0
C706 C 0.90556 0.75437 0.73296 0.0
C707 C 0.88582 0.78954 0.74382 0.0
C708 C 0.94384 0.80891 0.74306 0.0
C709 C 0.8278 0.76734 0.74664 0.0
N710 N 0.84963 0.7351 0.73366 0.0
C711 C 0.82346 0.73817 0.73943 0.0
C712 C 0.85912 0.79326 0.74861 0.0
Tb713 Tb 0.84477 0.68851 0.72088 0.0
N714 N 0.89856 0.72482 0.72689 0.0
C715 C 0.92286 0.71759 0.72567 0.0
C716 C 0.96281 0.77179 0.73419 0.0
C717 C 0.95526 0.74098 0.72896 0.0
H718 H 0.79912 0.71839 0.73789 0.0
H719 H 0.97439 0.73521 0.72736 0.0
H720 H 0.96844 0.82802 0.74576 0.0
H721 H 0.80698 0.76981 0.75068 0.0
H722 H 0.91776 0.69408 0.72146 0.0
H723 H 0.69533 0.60951 0.65945 0.0
H724 H 0.98791 0.78985 0.73674 0.0
H725 H 0.86978 0.62594 0.64539 0.0
H726 H 0.75236 0.6508 0.66408 0.0
H727 H 0.86136 0.57424 0.63265 0.0
H728 H 0.9228 0.83749 0.75213 0.0
H729 H 0.68126 0.55445 0.65098 0.0
H730 H 0.70026 0.51587 0.64194 0.0
H731 H 0.86242 0.81579 0.75428 0.0
H732 H 0.74557 0.50621 0.63459 0.0
N733 N 0.77098 0.61952 0.65901 0.0
C734 C 0.74687 0.627 0.66034 0.0
C735 C 0.70647 0.57252 0.65303 0.0
C736 C 0.73133 0.5654 0.65031 0.0
C737 C 0.71433 0.60358 0.65775 0.0
C738 C 0.7637 0.58979 0.65329 0.0
H739 H 0.80584 0.52799 0.63077 0.0
N740 N 0.81957 0.60901 0.65134 0.0
C741 C 0.84077 0.5767 0.63739 0.0
C742 C 0.78895 0.58431 0.6493 0.0
C743 C 0.84543 0.606 0.64458 0.0
C744 C 0.8094 0.55063 0.63641 0.0
C745 C 0.78293 0.55437 0.64202 0.0
O746 O 0.85301 0.67273 0.63452 0.0
O747 O 0.85956 0.69228 0.68609 0.0
O748 O 0.84051 0.72282 0.69965 0.0
O749 O 0.80815 0.69004 0.67054 0.0
O750 O 0.87764 0.67618 0.66167 0.0
O751 O 0.80737 0.67119 0.63703 0.0
O752 O 0.8171 0.67281 0.75079 0.0
O753 O 0.81016 0.65169 0.69896 0.0
O754 O 0.83162 0.62222 0.68489 0.0
O755 O 0.86275 0.65554 0.71422 0.0
O756 O 0.79214 0.66865 0.72267 0.0
O757 O 0.86083 0.67079 0.74734 0.0
C758 C 0.8858 0.69651 0.67765 0.0
C759 C 0.8248 0.66668 0.60034 0.0
C760 C 0.82524 0.67735 0.55978 0.0
C761 C 0.83233 0.68834 0.58229 0.0
C762 C 0.81106 0.64474 0.55568 0.0
C763 C 0.8106 0.63431 0.59555 0.0
C764 C 0.80394 0.62349 0.5734 0.0
C765 C 0.8213 0.71706 0.68198 0.0
C766 C 0.83201 0.67778 0.62403 0.0
C767 C 0.75076 0.52951 0.63994 0.0
C768 C 0.72497 0.53502 0.64412 0.0
C769 C 0.78391 0.64782 0.70707 0.0
C770 C 0.84615 0.67725 0.78433 0.0
C771 C 0.83542 0.65581 0.80273 0.0
C772 C 0.84499 0.66696 0.82506 0.0
C773 C 0.86466 0.69977 0.8285 0.0
C774 C 0.86588 0.70968 0.78852 0.0
C775 C 0.8749 0.72082 0.81043 0.0
C776 C 0.85128 0.62895 0.70245 0.0
C777 C 0.83717 0.66596 0.7608 0.0
H778 H 0.843 0.7134 0.58574 0.0
H779 H 0.80521 0.63566 0.53864 0.0
H780 H 0.80458 0.61732 0.60894 0.0
H781 H 0.79294 0.59842 0.56995 0.0
H782 H 0.82033 0.63066 0.79965 0.0
H783 H 0.87203 0.70927 0.84532 0.0
H784 H 0.87441 0.72646 0.77485 0.0
H785 H 0.89005 0.74595 0.81343 0.0
Tb786 Tb 0.35896 0.16671 0.66381 0.0
C787 C 0.25131 0.13212 0.73337 0.0
C788 C 0.23773 0.1734 0.72898 0.0
C789 C 0.19647 0.12101 0.74127 0.0
C790 C 0.26032 0.16273 0.72765 0.0
C791 C 0.21952 0.11102 0.7408 0.0
C792 C 0.20556 0.15217 0.73533 0.0
C793 C 0.2366 0.07294 0.74863 0.0
N794 N 0.27436 0.12356 0.73281 0.0
C795 C 0.26785 0.09482 0.74123 0.0
C796 C 0.21219 0.0809 0.74812 0.0
Tb797 Tb 0.32447 0.16036 0.71944 0.0
N798 N 0.29163 0.18241 0.72166 0.0
C799 C 0.30245 0.21391 0.71829 0.0
C800 C 0.24833 0.20519 0.72434 0.0
C801 C 0.28095 0.22562 0.7193 0.0
H802 H 0.28648 0.08836 0.74163 0.0
H803 H 0.28955 0.25039 0.71602 0.0
H804 H 0.18775 0.15981 0.73622 0.0
H805 H 0.23139 0.04996 0.75472 0.0
H806 H 0.32741 0.23017 0.71413 0.0
H807 H 0.39628 0.07837 0.66641 0.0
H808 H 0.23173 0.21431 0.72506 0.0
H809 H 0.39449 0.23537 0.63724 0.0
H810 H 0.3572 0.09732 0.66676 0.0
H811 H 0.44973 0.27489 0.62469 0.0
H812 H 0.17181 0.10507 0.7467 0.0
H813 H 0.45482 0.11617 0.66124 0.0
H814 H 0.49882 0.17176 0.65233 0.0
H815 H 0.18805 0.06397 0.75395 0.0
H816 H 0.51359 0.22586 0.64082 0.0
N817 N 0.39306 0.14594 0.66259 0.0
C818 C 0.38253 0.11428 0.66437 0.0
C819 C 0.43772 0.12472 0.6614 0.0
C820 C 0.44804 0.15667 0.65771 0.0
C821 C 0.4047 0.10332 0.66421 0.0
C822 C 0.42475 0.16651 0.65819 0.0
H823 H 0.49518 0.2644 0.62982 0.0
N824 N 0.40897 0.20376 0.65045 0.0
C825 C 0.44546 0.2531 0.63251 0.0
C826 C 0.43306 0.19669 0.65184 0.0
C827 C 0.41423 0.23067 0.6396 0.0
C828 C 0.47108 0.24716 0.63552 0.0
C829 C 0.46486 0.21824 0.64471 0.0
O830 O 0.34488 0.17678 0.63262 0.0
O831 O 0.32206 0.16783 0.68402 0.0
O832 O 0.2884 0.11995 0.69993 0.0
O833 O 0.32075 0.1175 0.67123 0.0
O834 O 0.33901 0.19835 0.65781 0.0
O835 O 0.34266 0.13228 0.63818 0.0
O836 O 0.3393 0.14901 0.74978 0.0
O837 O 0.36216 0.1592 0.69954 0.0
O838 O 0.39342 0.20974 0.68154 0.0
O839 O 0.36304 0.20963 0.71269 0.0
O840 O 0.33919 0.12506 0.72368 0.0
O841 O 0.34143 0.19376 0.74581 0.0
C842 C 0.31799 0.18823 0.67379 0.0
C843 C 0.35471 0.1534 0.60127 0.0
C844 C 0.35262 0.15653 0.56023 0.0
C845 C 0.33775 0.15216 0.58149 0.0
C846 C 0.38455 0.16197 0.55911 0.0
C847 C 0.38638 0.15848 0.59964 0.0
C848 C 0.40119 0.16281 0.57869 0.0
C849 C 0.29332 0.1051 0.68298 0.0
C850 C 0.33961 0.15044 0.62348 0.0
C851 C 0.48885 0.20949 0.64588 0.0
C852 C 0.48044 0.1787 0.65241 0.0
C853 C 0.36196 0.13578 0.70893 0.0
C854 C 0.33385 0.17266 0.78272 0.0
C855 C 0.35511 0.17871 0.80097 0.0
C856 C 0.34388 0.17504 0.8234 0.0
C857 C 0.31084 0.16497 0.82705 0.0
C858 C 0.30127 0.16317 0.7869 0.0
C859 C 0.28986 0.15929 0.80895 0.0
C860 C 0.3886 0.22356 0.69914 0.0
C861 C 0.34588 0.1754 0.75951 0.0
H862 H 0.31328 0.14829 0.58266 0.0
H863 H 0.39649 0.16501 0.54303 0.0
H864 H 0.39969 0.15911 0.61453 0.0
H865 H 0.42566 0.16676 0.5776 0.0
H866 H 0.3804 0.18651 0.79762 0.0
H867 H 0.30096 0.16103 0.84392 0.0
H868 H 0.28462 0.15862 0.77316 0.0
H869 H 0.26457 0.15162 0.81204 0.0
Tb870 Tb 0.85977 0.16583 0.71124 0.0
C871 C 0.80702 0.2264 0.64617 0.0
C872 C 0.7489 0.19175 0.64709 0.0
C873 C 0.77132 0.24798 0.64011 0.0
C874 C 0.78064 0.1967 0.64913 0.0
C875 C 0.80282 0.25236 0.64116 0.0
C876 C 0.74437 0.21768 0.64307 0.0
C877 C 0.86093 0.28422 0.63672 0.0
N878 N 0.83691 0.22944 0.64712 0.0
C879 C 0.86377 0.25764 0.64159 0.0
C880 C 0.83035 0.28169 0.63677 0.0
Tb881 Tb 0.83945 0.18512 0.6567 0.0
N882 N 0.78619 0.17239 0.65289 0.0
C883 C 0.76077 0.14197 0.65314 0.0
C884 C 0.72278 0.16084 0.64861 0.0
C885 C 0.72878 0.1358 0.65132 0.0
H886 H 0.88755 0.25996 0.64167 0.0
H887 H 0.70878 0.11172 0.65214 0.0
H888 H 0.72017 0.21443 0.64169 0.0
H889 H 0.88233 0.30665 0.63295 0.0
H890 H 0.76476 0.12227 0.65541 0.0
H891 H 0.99052 0.23728 0.71718 0.0
H892 H 0.69799 0.156 0.64723 0.0
H893 H 0.80968 0.09098 0.7255 0.0
H894 H 0.93514 0.2278 0.71236 0.0
H895 H 0.8135 0.044 0.73571 0.0
H896 H 0.76754 0.26767 0.63649 0.0
H897 H 0.99983 0.1925 0.72443 0.0
H898 H 0.9763 0.13421 0.73145 0.0
H899 H 0.8282 0.30227 0.63291 0.0
H900 H 0.92808 0.08152 0.73648 0.0
N901 N 0.91255 0.17771 0.71625 0.0
C902 C 0.93846 0.20786 0.71559 0.0
C903 C 0.97529 0.18812 0.72234 0.0
C904 C 0.94866 0.15753 0.72415 0.0
C905 C 0.97012 0.21344 0.71829 0.0
C906 C 0.91726 0.15315 0.72116 0.0
H907 H 0.8672 0.04766 0.73826 0.0
N908 N 0.86075 0.12104 0.72169 0.0
C909 C 0.83534 0.06627 0.73238 0.0
C910 C 0.89036 0.12371 0.72397 0.0
C911 C 0.8333 0.09304 0.72664 0.0
C912 C 0.86568 0.06841 0.73376 0.0
C913 C 0.89374 0.09751 0.72987 0.0
O914 O 0.83196 0.15521 0.74085 0.0
O915 O 0.82604 0.173 0.69134 0.0
O916 O 0.84858 0.22352 0.68 0.0
O917 O 0.88107 0.21728 0.70658 0.0
O918 O 0.80656 0.13759 0.71426 0.0
O919 O 0.87949 0.19637 0.73918 0.0
O920 O 0.86413 0.19742 0.62559 0.0
O921 O 0.87376 0.17848 0.67646 0.0
O922 O 0.85211 0.12799 0.68811 0.0
O923 O 0.81934 0.13354 0.66133 0.0
O924 O 0.89228 0.21357 0.6531 0.0
O925 O 0.82034 0.15276 0.62983 0.0
C926 C 0.79934 0.15247 0.69963 0.0
C927 C 0.85983 0.17363 0.77522 0.0
C928 C 0.85239 0.17831 0.81565 0.0
C929 C 0.84867 0.18482 0.79301 0.0
C930 C 0.86758 0.16041 0.82006 0.0
C931 C 0.87496 0.15596 0.78008 0.0
C932 C 0.87878 0.14943 0.80241 0.0
C933 C 0.8693 0.23408 0.69709 0.0
C934 C 0.85415 0.1795 0.75176 0.0
C935 C 0.92493 0.10139 0.73212 0.0
C936 C 0.95237 0.13138 0.72926 0.0
C937 C 0.90015 0.19941 0.66789 0.0
C938 C 0.8312 0.17507 0.59339 0.0
C939 C 0.84065 0.1654 0.57381 0.0
C940 C 0.82919 0.16804 0.55242 0.0
C941 C 0.80847 0.18085 0.55105 0.0
C942 C 0.81049 0.18765 0.59146 0.0
C943 C 0.79927 0.19056 0.57042 0.0
C944 C 0.8311 0.11692 0.67123 0.0
C945 C 0.84263 0.17152 0.61572 0.0
H946 H 0.83664 0.19817 0.78917 0.0
H947 H 0.87136 0.15536 0.83719 0.0
H948 H 0.88362 0.14711 0.76667 0.0
H949 H 0.89053 0.1358 0.80606 0.0
H950 H 0.85646 0.15543 0.57528 0.0
H951 H 0.79969 0.18381 0.53492 0.0
H952 H 0.80292 0.19516 0.60619 0.0
H953 H 0.78338 0.20043 0.5691 0.0
H954 H 0.33862 0.84418 0.05452 0.0
H955 H 0.29856 0.90018 0.08013 0.0
H956 H 0.34603 0.94843 0.06661 0.0
H957 H 0.39979 0.97497 0.04873 0.0
H958 H 0.44196 0.91956 0.02602 0.0
H959 H 0.39265 0.87094 0.03643 0.0
C960 C 0.34022 0.86695 0.05699 0.0
C961 C 0.31512 0.86858 0.06842 0.0
C962 C 0.36784 0.8947 0.04941 0.0
C963 C 0.3177 0.89829 0.07168 0.0
C964 C 0.34475 0.92587 0.06382 0.0
C965 C 0.39798 0.95218 0.04581 0.0
C966 C 0.42421 0.95094 0.03595 0.0
C967 C 0.37007 0.92439 0.05283 0.0
C968 C 0.42186 0.9213 0.03281 0.0
C969 C 0.39372 0.89342 0.03906 0.0
H970 H 0.17074 0.49995 0.05672 0.0
H971 H 0.11559 0.39892 0.06677 0.0
H972 H 0.06619 0.39817 0.05484 0.0
H973 H 0.03754 0.42632 0.04358 0.0
H974 H 0.09179 0.52722 0.03392 0.0
H975 H 0.14216 0.52791 0.04331 0.0
C976 C 0.148 0.47774 0.05601 0.0
C977 C 0.14699 0.4496 0.06301 0.0
C978 C 0.11929 0.47744 0.0492 0.0
C979 C 0.11713 0.42106 0.06197 0.0
C980 C 0.08877 0.42055 0.05507 0.0
C981 C 0.06048 0.44839 0.04331 0.0
C982 C 0.06088 0.47652 0.03747 0.0
C983 C 0.08939 0.44862 0.04903 0.0
C984 C 0.09073 0.50505 0.03765 0.0
C985 C 0.11963 0.50549 0.04324 0.0
H986 H 0.59772 0.70696 0.09168 0.0
H987 H 0.5248 0.71677 0.05521 0.0
H988 H 0.50543 0.665 0.03775 0.0
H989 H 0.50988 0.61715 0.0323 0.0
H990 H 0.58302 0.60795 0.06924 0.0
H991 H 0.60122 0.65886 0.08705 0.0
C992 C 0.57724 0.69756 0.08021 0.0
C993 C 0.5628 0.71577 0.07478 0.0
C994 C 0.56631 0.66784 0.07014 0.0
C995 C 0.53659 0.70337 0.05955 0.0
C996 C 0.52545 0.67374 0.04956 0.0
C997 C 0.52991 0.62636 0.04414 0.0
C998 C 0.54508 0.60864 0.04921 0.0
C999 C 0.54035 0.65587 0.05454 0.0
C1000 C 0.57078 0.62089 0.06487 0.0
C1001 C 0.58128 0.65011 0.07517 0.0
H1002 H 0.82851 0.32033 0.98058 0.0
H1003 H 0.89563 0.29552 0.95087 0.0
H1004 H 0.94106 0.34713 0.96134 0.0
H1005 H 0.96219 0.39923 0.97998 0.0
H1006 H 0.89442 0.42211 1.01109 0.0
H1007 H 0.84929 0.37136 0.99951 0.0
C1008 C 0.85305 0.32592 0.97659 0.0
C1009 C 0.85834 0.30377 0.96488 0.0
C1010 C 0.87922 0.35545 0.98307 0.0
C1011 C 0.8905 0.31207 0.95952 0.0
C1012 C 0.91665 0.34159 0.96568 0.0
C1013 C 0.93754 0.39312 0.98415 0.0
C1014 C 0.93191 0.41454 0.99655 0.0
C1015 C 0.91136 0.3635 0.97754 0.0
C1016 C 0.89971 0.4061 1.00183 0.0
C1017 C 0.87373 0.37702 0.99512 0.0
H1018 H 0.70857 0.58817 0.97625 0.0
H1019 H 0.67059 0.48752 0.97852 0.0
H1020 H 0.61893 0.47959 0.99352 0.0
H1021 H 0.58312 0.50145 1.00354 0.0
H1022 H 0.62295 0.60253 1.00282 0.0
H1023 H 0.67508 0.61016 0.98995 0.0
C1024 C 0.68894 0.56453 0.98003 0.0
C1025 C 0.69317 0.53844 0.9759 0.0
C1026 C 0.65959 0.56024 0.98907 0.0
C1027 C 0.66778 0.50796 0.98134 0.0
C1028 C 0.63826 0.50343 0.98994 0.0
C1029 C 0.60349 0.52511 1.00119 0.0
C1030 C 0.59926 0.55146 1.00446 0.0
C1031 C 0.63367 0.52939 0.99365 0.0
C1032 C 0.62571 0.58193 1.00068 0.0
C1033 C 0.6555 0.58632 0.99316 0.0
H1034 H 0.43274 0.12762 0.96282 0.0
H1035 H 0.52374 0.2043 0.98699 0.0
H1036 H 0.53867 0.16657 1.00166 0.0
H1037 H 0.52573 0.11153 1.00806 0.0
H1038 H 0.4356 0.03516 0.98237 0.0
H1039 H 0.42076 0.07287 0.96789 0.0
C1040 C 0.45605 0.13611 0.97096 0.0
C1041 C 0.4769 0.16879 0.9739 0.0
C1042 C 0.46465 0.11426 0.97929 0.0
C1043 C 0.50692 0.17926 0.98477 0.0
C1044 C 0.51556 0.1577 0.99316 0.0
C1045 C 0.50277 0.10317 0.99942 0.0
C1046 C 0.4818 0.07051 0.99645 0.0
C1047 C 0.49449 0.1251 0.99072 0.0
C1048 C 0.4523 0.06013 0.98493 0.0
C1049 C 0.44374 0.0817 0.97657 0.0
H1050 H 0.70302 0.12195 0.9832 0.0
H1051 H 0.66766 0.18769 0.98608 0.0
H1052 H 0.61259 0.14425 0.99387 0.0
H1053 H 0.5741 0.08695 0.99925 0.0
H1054 H 0.60968 0.02137 0.99537 0.0
H1055 H 0.66475 0.06495 0.98867 0.0
C1056 C 0.68309 0.12658 0.98524 0.0
C1057 C 0.68906 0.15773 0.98367 0.0
C1058 C 0.65154 0.10146 0.98979 0.0
C1059 C 0.66335 0.16369 0.98681 0.0
C1060 C 0.63194 0.13891 0.99141 0.0
C1061 C 0.59407 0.08239 0.99736 0.0
C1062 C 0.58808 0.05111 0.99843 0.0
C1063 C 0.62569 0.10763 0.99297 0.0
C1064 C 0.61392 0.04536 0.99506 0.0
C1065 C 0.64537 0.07024 0.9911 0.0
H1066 H 0.8823 0.57264 0.98115 0.0
H1067 H 0.81712 0.47211 0.98502 0.0
H1068 H 0.86276 0.4635 0.99287 0.0
H1069 H 0.92163 0.48471 0.99844 0.0
H1070 H 0.98696 0.58516 0.99346 0.0
H1071 H 0.94126 0.59377 0.98628 0.0
C1072 C 0.87829 0.54887 0.98333 0.0
C1073 C 0.84659 0.52297 0.98206 0.0
C1074 C 0.90472 0.54415 0.98792 0.0
C1075 C 0.84148 0.49232 0.98546 0.0
C1076 C 0.86753 0.48742 0.99012 0.0
C1077 C 0.92572 0.50847 0.99618 0.0
C1078 C 0.95755 0.53439 0.99711 0.0
C1079 C 0.8993 0.51316 0.99149 0.0
C1080 C 0.9626 0.56494 0.99324 0.0
C1081 C 0.93649 0.56985 0.98901 0.0
H1082 H 0.43938 0.32059 0.97889 0.0
H1083 H 0.53521 0.33985 0.99725 0.0
H1084 H 0.55246 0.39564 1.0033 0.0
H1085 H 0.53912 0.43765 1.00622 0.0
H1086 H 0.44347 0.4196 0.98834 0.0
H1087 H 0.42736 0.36477 0.97871 0.0
C1088 C 0.46416 0.33729 0.98374 0.0
C1089 C 0.4862 0.32656 0.98754 0.0
C1090 C 0.47381 0.36935 0.98734 0.0
C1091 C 0.5181 0.34795 0.99407 0.0
C1092 C 0.52789 0.37973 0.99762 0.0
C1093 C 0.51479 0.4218 1.00006 0.0
C1094 C 0.49235 0.43245 0.99828 0.0
C1095 C 0.50576 0.3905 0.99476 0.0
C1096 C 0.46114 0.41187 0.98988 0.0
C1097 C 0.45189 0.3805 0.9845 0.0
H1098 H 0.13651 0.70047 0.06508 0.0
H1099 H 0.21354 0.68614 0.04086 0.0
H1100 H 0.17403 0.63215 0.02926 0.0
H1101 H 0.11734 0.5898 0.02447 0.0
H1102 H 0.04013 0.6035 0.04961 0.0
H1103 H 0.07965 0.65663 0.06233 0.0
C1104 C 0.14452 0.68518 0.0577 0.0
C1105 C 0.17774 0.69687 0.05405 0.0
C1106 C 0.12158 0.65417 0.05096 0.0
C1107 C 0.188 0.67727 0.0441 0.0
C1108 C 0.16543 0.64654 0.03731 0.0
C1109 C 0.10916 0.60443 0.03269 0.0
C1110 C 0.07575 0.59271 0.03586 0.0
C1111 C 0.13211 0.63487 0.04033 0.0
C1112 C 0.06565 0.61186 0.04688 0.0
C1113 C 0.08827 0.64232 0.0542 0.0
H1114 H 0.34987 0.52312 0.05255 0.0
H1115 H 0.29676 0.42258 0.06409 0.0
H1116 H 0.34638 0.4198 0.0579 0.0
H1117 H 0.40507 0.44613 0.04857 0.0
H1118 H 0.458 0.547 0.03816 0.0
H1119 H 0.40868 0.54958 0.04429 0.0
C1120 C 0.34933 0.50068 0.05393 0.0
C1121 C 0.31986 0.47311 0.059 0.0
C1122 C 0.37795 0.49934 0.05025 0.0
C1123 C 0.31927 0.44412 0.06045 0.0
C1124 C 0.34762 0.44256 0.05681 0.0
C1125 C 0.4057 0.46864 0.04756 0.0
C1126 C 0.43513 0.49619 0.04211 0.0
C1127 C 0.37711 0.46999 0.05156 0.0
C1128 C 0.43568 0.52527 0.04147 0.0
C1129 C 0.40741 0.5268 0.04524 0.0
H1130 H 0.54002 0.84147 0.0395 0.0
H1131 H 0.61758 0.90835 0.08176 0.0
H1132 H 0.60068 0.94777 0.07501 0.0
H1133 H 0.56562 0.96382 0.05515 0.0
H1134 H 0.48834 0.89625 0.01256 0.0
H1135 H 0.50336 0.85653 0.02127 0.0
C1136 C 0.55285 0.86458 0.04743 0.0
C1137 C 0.57974 0.87225 0.06114 0.0
C1138 C 0.54328 0.88703 0.04318 0.0
C1139 C 0.5966 0.90214 0.07125 0.0
C1140 C 0.58703 0.92461 0.0673 0.0
C1141 C 0.55194 0.94038 0.04786 0.0
C1142 C 0.52624 0.93333 0.03286 0.0
C1143 C 0.56069 0.91747 0.05299 0.0
C1144 C 0.50866 0.90267 0.02376 0.0
C1145 C 0.51709 0.87979 0.02883 0.0
H1146 H 1.00441 0.17983 0.38884 0.0
H1147 H 0.96472 0.2375 0.4116 0.0
H1148 H 0.01312 0.28504 0.39835 0.0
H1149 H 0.06799 0.31061 0.3823 0.0
H1150 H 0.10947 0.25359 0.36208 0.0
H1151 H 0.05897 0.20551 0.37154 0.0
C1152 C 1.00624 0.20278 0.39066 0.0
C1153 C 0.98106 0.20511 0.40136 0.0
C1154 C 0.03438 0.23014 0.38322 0.0
C1155 C 0.98394 0.23508 0.40376 0.0
C1156 C 0.01152 0.26226 0.39607 0.0
C1157 C 0.06571 0.28758 0.37963 0.0
C1158 C 0.09215 0.28569 0.37088 0.0
C1159 C 0.03706 0.26012 0.38605 0.0
C1160 C 0.08923 0.25578 0.36804 0.0
C1161 C 0.06042 0.22823 0.37376 0.0
H1162 H 0.79797 0.76109 0.38282 0.0
H1163 H 0.84181 0.84139 0.42741 0.0
H1164 H 0.80163 0.85629 0.41615 0.0
H1165 H 0.7524 0.84531 0.39469 0.0
H1166 H 0.70491 0.76186 0.35339 0.0
H1167 H 0.74775 0.74935 0.36203 0.0
C1168 C 0.79874 0.78192 0.38994 0.0
C1169 C 0.82296 0.80021 0.40588 0.0
C1170 C 0.77486 0.78981 0.38385 0.0
C1171 C 0.82342 0.82693 0.41517 0.0
C1172 C 0.80046 0.83546 0.4087 0.0
C1173 C 0.7519 0.82476 0.38727 0.0
C1174 C 0.72642 0.80535 0.37252 0.0
C1175 C 0.77592 0.81701 0.39316 0.0
C1176 C 0.72498 0.77781 0.36404 0.0
C1177 C 0.74934 0.77053 0.36915 0.0
H1178 H 0.19551 0.02915 0.38352 0.0
H1179 H 0.27344 0.03837 0.42601 0.0
H1180 H 0.26569 0.98806 0.41205 0.0
H1181 H 0.23689 0.94144 0.38803 0.0
H1182 H 0.15857 0.93148 0.34562 0.0
H1183 H 0.167 0.98244 0.35886 0.0
C1184 C 0.21097 0.02028 0.38959 0.0
C1185 C 0.23489 0.03753 0.40594 0.0
C1186 C 0.20654 0.99133 0.38135 0.0
C1187 C 0.25445 0.02542 0.41378 0.0
C1188 C 0.25022 0.99673 0.40566 0.0
C1189 C 0.2217 0.95039 0.38154 0.0
C1190 C 0.19736 0.93267 0.36558 0.0
C1191 C 0.22631 0.97946 0.3895 0.0
C1192 C 0.17789 0.94476 0.35755 0.0
C1193 C 0.18251 0.97384 0.36528 0.0
H1194 H 0.50136 0.64953 0.32082 0.0
H1195 H 0.57047 0.6268 0.2918 0.0
H1196 H 0.61512 0.67736 0.3047 0.0
H1197 H 0.63474 0.72809 0.32424 0.0
H1198 H 0.56573 0.75083 0.35328 0.0
H1199 H 0.52106 0.69962 0.34133 0.0
C1200 C 0.52616 0.65537 0.31755 0.0
C1201 C 0.53234 0.63426 0.30518 0.0
C1202 C 0.55186 0.68438 0.3253 0.0
C1203 C 0.56479 0.64269 0.30087 0.0
C1204 C 0.59043 0.67152 0.30843 0.0
C1205 C 0.60992 0.72192 0.32785 0.0
C1206 C 0.60366 0.74343 0.33949 0.0
C1207 C 0.58427 0.6926 0.32059 0.0
C1208 C 0.57135 0.7347 0.3445 0.0
C1209 C 0.54572 0.70548 0.33749 0.0
H1210 H 0.3451 0.84382 0.31108 0.0
H1211 H 0.38698 0.94069 0.28915 0.0
H1212 H 0.33899 0.94204 0.30218 0.0
H1213 H 0.28417 0.91544 0.31851 0.0
H1214 H 0.2396 0.81745 0.3378 0.0
H1215 H 0.28928 0.8168 0.32751 0.0
C1216 C 0.34374 0.86525 0.3093 0.0
C1217 C 0.36973 0.89213 0.29901 0.0
C1218 C 0.31552 0.86568 0.3165 0.0
C1219 C 0.36735 0.9196 0.29673 0.0
C1220 C 0.3399 0.92043 0.30427 0.0
C1221 C 0.28549 0.89402 0.3207 0.0
C1222 C 0.25854 0.86684 0.32965 0.0
C1223 C 0.31372 0.89358 0.31398 0.0
C1224 C 0.26032 0.83903 0.33173 0.0
C1225 C 0.28867 0.83859 0.32559 0.0
H1226 H 0.13018 0.49483 0.33121 0.0
H1227 H 0.1246 0.46647 0.26169 0.0
H1228 H 0.13434 0.42385 0.27303 0.0
H1229 H 0.14661 0.39586 0.30247 0.0
H1230 H 0.1565 0.42721 0.37134 0.0
H1231 H 0.144 0.46804 0.36034 0.0
C1232 C 0.13152 0.47972 0.31839 0.0
C1233 C 0.12669 0.4842 0.29554 0.0
C1234 C 0.13823 0.45587 0.32491 0.0
C1235 C 0.12767 0.46353 0.27942 0.0
C1236 C 0.13358 0.43924 0.28587 0.0
C1237 C 0.14588 0.4115 0.31513 0.0
C1238 C 0.15246 0.40829 0.33783 0.0
C1239 C 0.13912 0.43534 0.30855 0.0
C1240 C 0.15181 0.42913 0.35384 0.0
C1241 C 0.14449 0.45247 0.34752 0.0
H1242 H 0.34034 0.50142 0.32697 0.0
H1243 H 0.38935 0.45217 0.3048 0.0
H1244 H 0.33942 0.40112 0.31031 0.0
H1245 H 0.28197 0.37064 0.32234 0.0
H1246 H 0.23316 0.42059 0.3436 0.0
H1247 H 0.28267 0.47112 0.33783 0.0
C1248 C 0.33984 0.47944 0.32311 0.0
C1249 C 0.36808 0.48025 0.31527 0.0
C1250 C 0.31121 0.45037 0.32649 0.0
C1251 C 0.3676 0.45187 0.3106 0.0
C1252 C 0.33916 0.42278 0.31387 0.0
C1253 C 0.28232 0.39265 0.32576 0.0
C1254 C 0.2542 0.39182 0.33409 0.0
C1255 C 0.31087 0.42173 0.32198 0.0
C1256 C 0.25467 0.42046 0.33792 0.0
C1257 C 0.28296 0.44944 0.33441 0.0
H1258 H 0.55546 0.90802 0.3105 0.0
H1259 H 0.47719 0.81147 0.31278 0.0
H1260 H 0.51556 0.79335 0.32167 0.0
H1261 H 0.57158 0.80484 0.32912 0.0
H1262 H 0.65044 0.90081 0.32522 0.0
H1263 H 0.61214 0.91932 0.31666 0.0
C1264 C 0.54699 0.883 0.31258 0.0
C1265 C 0.51358 0.861 0.3106 0.0
C1266 C 0.56935 0.87272 0.31777 0.0
C1267 C 0.50283 0.82875 0.3138 0.0
C1268 C 0.52476 0.8184 0.31907 0.0
C1269 C 0.58021 0.82986 0.32677 0.0
C1270 C 0.6136 0.85166 0.32899 0.0
C1271 C 0.55805 0.84015 0.32128 0.0
C1272 C 0.6247 0.8838 0.32469 0.0
C1273 C 0.6028 0.89431 0.31952 0.0
H1274 H 0.12812 0.63918 0.34264 0.0
H1275 H 0.161 0.66423 0.27426 0.0
H1276 H 0.16574 0.71633 0.27947 0.0
H1277 H 0.16452 0.756 0.30457 0.0
H1278 H 0.13176 0.73063 0.37308 0.0
H1279 H 0.12311 0.6775 0.3669 0.0
C1280 C 0.13578 0.65596 0.32883 0.0
C1281 C 0.14405 0.64819 0.30809 0.0
C1282 C 0.13891 0.68588 0.33212 0.0
C1283 C 0.15431 0.66991 0.2903 0.0
C1284 C 0.15715 0.69966 0.29333 0.0
C1285 C 0.15509 0.7387 0.31806 0.0
C1286 C 0.14958 0.74751 0.33946 0.0
C1287 C 0.15009 0.70811 0.31432 0.0
C1288 C 0.13732 0.72482 0.35673 0.0
C1289 C 0.13204 0.69432 0.35312 0.0
H1290 H 0.83962 0.03787 0.355 0.0
H1291 H 0.82221 0.0303 0.42644 0.0
H1292 H 0.775 0.97699 0.42136 0.0
H1293 H 0.74034 0.93182 0.39645 0.0
H1294 H 0.75966 0.94001 0.32495 0.0
H1295 H 0.80431 0.99377 0.33016 0.0
C1296 C 0.82521 0.02456 0.3694 0.0
C1297 C 0.83398 0.03769 0.39101 0.0
C1298 C 0.79858 0.99404 0.36631 0.0
C1299 C 0.81558 0.02046 0.40964 0.0
C1300 C 0.78873 0.99005 0.40671 0.0
C1301 C 0.75412 0.94543 0.38197 0.0
C1302 C 0.74653 0.93166 0.36031 0.0
C1303 C 0.78019 0.97645 0.3851 0.0
C1304 C 0.76486 0.94975 0.34181 0.0
C1305 C 0.79049 0.98059 0.34476 0.0
H1306 H 0.97935 0.76043 0.38512 0.0
H1307 H 0.9961 0.85569 0.38718 0.0
H1308 H 0.05347 0.87645 0.37795 0.0
H1309 H 0.09948 0.86765 0.37004 0.0
H1310 H 0.08374 0.77282 0.37003 0.0
H1311 H 0.02574 0.75168 0.37744 0.0
C1312 C 0.99573 0.78573 0.38381 0.0
C1313 C 0.98367 0.80658 0.38723 0.0
C1314 C 0.02883 0.79751 0.37842 0.0
C1315 C 1.00496 0.83925 0.38505 0.0
C1316 C 0.03772 0.8511 0.37958 0.0
C1317 C 0.08308 0.84231 0.37105 0.0
C1318 C 0.09552 0.82168 0.36819 0.0
C1319 C 0.04996 0.83049 0.37616 0.0
C1320 C 0.07443 0.78903 0.37096 0.0
C1321 C 0.04135 0.77701 0.37555 0.0
H1322 H 0.19073 0.16417 0.37337 0.0
H1323 H 0.27291 0.22507 0.41468 0.0
H1324 H 0.26239 0.26903 0.40843 0.0
H1325 H 0.23129 0.29061 0.38924 0.0
H1326 H 0.14935 0.22856 0.34766 0.0
H1327 H 0.15839 0.18478 0.3558 0.0
C1328 C 0.20598 0.187 0.38125 0.0
C1329 C 0.23229 0.19159 0.39458 0.0
C1330 C 0.20008 0.21204 0.37724 0.0
C1331 C 0.25229 0.22115 0.40453 0.0
C1332 C 0.24637 0.24624 0.40084 0.0
C1333 C 0.21533 0.26748 0.38205 0.0
C1334 C 0.19005 0.26318 0.36747 0.0
C1335 C 0.22059 0.24209 0.38691 0.0
C1336 C 0.16949 0.23291 0.35847 0.0
C1337 C 0.17446 0.20768 0.36325 0.0
H1338 H 0.66983 0.51042 0.73008 0.0
H1339 H 0.62289 0.56419 0.74637 0.0
H1340 H 0.67014 0.6124 0.73299 0.0
H1341 H 0.72592 0.64006 0.71859 0.0
H1342 H 0.77383 0.58724 0.70301 0.0
H1343 H 0.72485 0.53791 0.71331 0.0
C1344 C 0.66973 0.53259 0.73045 0.0
C1345 C 0.64282 0.53356 0.73961 0.0
C1346 C 0.69712 0.56044 0.7226 0.0
C1347 C 0.64342 0.56269 0.74001 0.0
C1348 C 0.67037 0.59031 0.73216 0.0
C1349 C 0.7254 0.61763 0.71712 0.0
C1350 C 0.75326 0.61727 0.70965 0.0
C1351 C 0.6975 0.58956 0.72372 0.0
C1352 C 0.75251 0.58816 0.70816 0.0
C1353 C 0.72457 0.55995 0.71433 0.0
H1354 H 0.45899 0.09022 0.73882 0.0
H1355 H 0.52927 0.18839 0.72748 0.0
H1356 H 0.48619 0.19827 0.71456 0.0
H1357 H 0.42755 0.17928 0.70824 0.0
H1358 H 0.3582 0.08079 0.71949 0.0
H1359 H 0.40162 0.07087 0.7308 0.0
C1360 C 0.46487 0.11384 0.7337 0.0
C1361 C 0.49728 0.13856 0.7344 0.0
C1362 C 0.44003 0.11931 0.72621 0.0
C1363 C 0.50452 0.16889 0.72715 0.0
C1364 C 0.47987 0.17459 0.7198 0.0
C1365 C 0.42218 0.1556 0.71274 0.0
C1366 C 0.38979 0.13065 0.71266 0.0
C1367 C 0.44742 0.15002 0.71941 0.0
C1368 C 0.38301 0.10025 0.71918 0.0
C1369 C 0.4078 0.09457 0.72572 0.0
H1370 H 0.92616 0.36507 0.74766 0.0
H1371 H 0.84889 0.36739 0.71119 0.0
H1372 H 0.83348 0.31622 0.6941 0.0
H1373 H 0.84189 0.27079 0.68954 0.0
H1374 H 0.91884 0.26831 0.72648 0.0
H1375 H 0.93412 0.31934 0.74347 0.0
C1376 C 0.90565 0.35418 0.73623 0.0
C1377 C 0.88872 0.37006 0.73075 0.0
C1378 C 0.89692 0.32475 0.72645 0.0
C1379 C 0.86254 0.35581 0.71557 0.0
C1380 C 0.85366 0.32652 0.70581 0.0
C1381 C 0.8622 0.28151 0.70114 0.0
C1382 C 0.87928 0.26574 0.70656 0.0
C1383 C 0.87079 0.31085 0.71102 0.0
C1384 C 0.90523 0.27985 0.72192 0.0
C1385 C 0.91401 0.30908 0.73171 0.0
H1386 H 0.16384 0.97963 0.65811 0.0
H1387 H 0.23171 0.96148 0.62195 0.0
H1388 H 0.27635 0.01231 0.63425 0.0
H1389 H 0.29654 0.0616 0.65584 0.0
H1390 H 0.22912 0.07789 0.69417 0.0
H1391 H 0.18423 0.02759 0.6811 0.0
C1392 C 0.18838 0.98641 0.65312 0.0
C1393 C 0.19404 0.96641 0.63894 0.0
C1394 C 0.21423 0.0153 0.66088 0.0
C1395 C 0.22619 0.97637 0.63238 0.0
C1396 C 0.25192 0.0054 0.63964 0.0
C1397 C 0.27206 0.05415 0.66142 0.0
C1398 C 0.26635 0.07362 0.67602 0.0
C1399 C 0.24626 0.02501 0.65395 0.0
C1400 C 0.2344 0.06339 0.6831 0.0
C1401 C 0.20861 0.03464 0.67552 0.0
H1402 H 0.01756 0.17592 0.64793 0.0
H1403 H 0.0612 0.27394 0.62838 0.0
H1404 H 0.013 0.27519 0.64094 0.0
H1405 H 0.9576 0.24814 0.65581 0.0
H1406 H 0.91115 0.14901 0.67219 0.0
H1407 H 0.96122 0.14854 0.66321 0.0
C1408 C 0.01651 0.19756 0.64658 0.0
C1409 C 0.04295 0.22478 0.63708 0.0
C1410 C 0.98827 0.19796 0.6535 0.0
C1411 C 0.04111 0.25258 0.63532 0.0
C1412 C 0.0136 0.25336 0.64261 0.0
C1413 C 0.95861 0.22652 0.65771 0.0
C1414 C 0.93098 0.19892 0.66537 0.0
C1415 C 0.98694 0.22616 0.6515 0.0
C1416 C 0.93234 0.17086 0.66715 0.0
C1417 C 0.96091 0.17053 0.66169 0.0
H1418 H 0.81621 0.84031 0.6573 0.0
H1419 H 0.73857 0.77441 0.61428 0.0
H1420 H 0.74754 0.73174 0.62701 0.0
H1421 H 0.77667 0.71286 0.65106 0.0
H1422 H 0.85281 0.77895 0.69504 0.0
H1423 H 0.84436 0.82146 0.68173 0.0
C1424 C 0.8009 0.81656 0.65087 0.0
C1425 C 0.77665 0.81073 0.63487 0.0
C1426 C 0.80568 0.792 0.65862 0.0
C1427 C 0.7577 0.77983 0.62637 0.0
C1428 C 0.76262 0.75531 0.6338 0.0
C1429 C 0.79138 0.73654 0.65778 0.0
C1430 C 0.81518 0.74252 0.67419 0.0
C1431 C 0.78645 0.76108 0.65001 0.0
C1432 C 0.83401 0.77342 0.68264 0.0
C1433 C 0.82936 0.79789 0.67493 0.0
H1434 H 1.00514 0.83521 0.66678 0.0
H1435 H 0.05165 0.7826 0.64689 0.0
H1436 H 1.00118 0.73264 0.65394 0.0
H1437 H 0.94382 0.70413 0.66586 0.0
H1438 H 0.89681 0.75699 0.68396 0.0
H1439 H 0.9474 0.80659 0.67806 0.0
C1440 C 1.00397 0.81271 0.66378 0.0
C1441 C 0.03166 0.81227 0.65608 0.0
C1442 C 0.97498 0.78425 0.66798 0.0
C1443 C 0.03033 0.78326 0.65254 0.0
C1444 C 1.0016 0.7548 0.65671 0.0
C1445 C 0.94483 0.72657 0.66872 0.0
C1446 C 0.91686 0.72683 0.67614 0.0
C1447 C 0.97382 0.75502 0.66452 0.0
C1448 C 0.91818 0.75601 0.67915 0.0
C1449 C 0.94707 0.78445 0.67545 0.0
H1450 H 0.17392 0.16161 0.66232 0.0
H1451 H 0.22456 0.25894 0.64101 0.0
H1452 H 0.27693 0.26148 0.64728 0.0
H1453 H 0.30827 0.23577 0.65943 0.0
H1454 H 0.25642 0.13783 0.67945 0.0
H1455 H 0.20495 0.13574 0.67342 0.0
C1456 C 0.19649 0.18325 0.65885 0.0
C1457 C 0.19561 0.20996 0.651 0.0
C1458 C 0.22634 0.18449 0.66262 0.0
C1459 C 0.22482 0.23802 0.64682 0.0
C1460 C 0.2547 0.23947 0.65051 0.0
C1461 C 0.28564 0.21407 0.66258 0.0
C1462 C 0.28642 0.18734 0.67082 0.0
C1463 C 0.25578 0.21287 0.65854 0.0
C1464 C 0.25688 0.15915 0.67415 0.0
C1465 C 0.22722 0.15781 0.67039 0.0
H1466 H 0.75954 0.97504 0.637 0.0
H1467 H 0.83988 0.97628 0.67145 0.0
H1468 H 0.86262 0.03249 0.68025 0.0
H1469 H 0.85813 0.08034 0.67977 0.0
H1470 H 0.77776 0.07954 0.64536 0.0
H1471 H 0.75678 0.02435 0.63467 0.0
C1472 C 0.7823 0.98792 0.64607 0.0
C1473 C 0.7983 0.97198 0.65348 0.0
C1474 C 0.79507 0.02017 0.65119 0.0
C1475 C 0.82749 0.98844 0.66545 0.0
C1476 C 0.84036 0.02045 0.67057 0.0
C1477 C 0.836 0.06813 0.66995 0.0
C1478 C 0.81932 0.08399 0.66368 0.0
C1479 C 0.82409 0.03642 0.66383 0.0
C1480 C 0.79103 0.06792 0.65055 0.0
C1481 C 0.77896 0.0363 0.64443 0.0
H1482 H 0.49744 0.36745 0.69869 0.0
H1483 H 0.5041 0.34782 0.76852 0.0
H1484 H 0.45816 0.29372 0.76388 0.0
H1485 H 0.41813 0.2509 0.73895 0.0
H1486 H 0.4126 0.27174 0.66917 0.0
H1487 H 0.45598 0.32616 0.67457 0.0
C1488 C 0.48844 0.35138 0.71293 0.0
C1489 C 0.5037 0.36138 0.73392 0.0
C1490 C 0.46253 0.32037 0.70999 0.0
C1491 C 0.49233 0.3405 0.75225 0.0
C1492 C 0.46623 0.30959 0.74955 0.0
C1493 C 0.42637 0.26753 0.72504 0.0
C1494 C 0.41296 0.25709 0.70346 0.0
C1495 C 0.45141 0.29907 0.72838 0.0
C1496 C 0.42356 0.27883 0.68562 0.0
C1497 C 0.44808 0.3101 0.68879 0.0
H1498 H 0.69034 0.18901 0.71497 0.0
H1499 H 0.63274 0.08876 0.72682 0.0
H1500 H 0.68031 0.08274 0.71976 0.0
H1501 H 0.73837 0.10625 0.7096 0.0
H1502 H 0.79574 0.20688 0.69898 0.0
H1503 H 0.74847 0.2126 0.70586 0.0
C1504 C 0.68842 0.16593 0.71622 0.0
C1505 C 0.65842 0.13937 0.72161 0.0
C1506 C 0.71576 0.16274 0.71202 0.0
C1507 C 0.65583 0.10951 0.72293 0.0
C1508 C 0.68295 0.1061 0.71878 0.0
C1509 C 0.74036 0.12936 0.70868 0.0
C1510 C 0.77032 0.15593 0.70291 0.0
C1511 C 0.71302 0.13253 0.71317 0.0
C1512 C 0.77283 0.18587 0.70243 0.0
C1513 C 0.74579 0.18922 0.70666 0.0
H1514 H 0.91933 0.5538 0.73707 0.0
H1515 H 0.84984 0.48314 0.6922 0.0
H1516 H 0.82696 0.51727 0.68354 0.0
H1517 H 0.82842 0.56824 0.68774 0.0
H1518 H 0.89903 0.63906 0.73241 0.0
H1519 H 0.91938 0.60384 0.74235 0.0
C1520 C 0.89887 0.54584 0.72567 0.0
C1521 C 0.88597 0.51618 0.71537 0.0
C1522 C 0.88619 0.56569 0.72064 0.0
C1523 C 0.85979 0.50595 0.70043 0.0
C1524 C 0.84687 0.52547 0.69542 0.0
C1525 C 0.84839 0.57606 0.69952 0.0
C1526 C 0.86247 0.60657 0.70892 0.0
C1527 C 0.86018 0.55561 0.7052 0.0
C1528 C 0.88781 0.6159 0.72465 0.0
C1529 C 0.89955 0.59573 0.73042 0.0
H1530 H 0.50161 0.94482 0.24511 0.0
H1531 H 0.40262 0.89244 0.22171 0.0
H1532 H 0.41927 0.91736 0.1848 0.0
H1533 H 0.46144 0.95723 0.15966 0.0
H1534 H 0.56052 0.00856 0.18295 0.0
H1535 H 0.54443 0.98074 0.21886 0.0
C1536 C 0.48372 0.93836 0.23185 0.0
C1537 C 0.45074 0.917 0.23655 0.0
C1538 C 0.49346 0.95288 0.21045 0.0
C1539 C 0.42806 0.90927 0.21895 0.0
C1540 C 0.43758 0.92345 0.19769 0.0
C1541 C 0.47961 0.96193 0.17242 0.0
C1542 C 0.51214 0.98547 0.16853 0.0
C1543 C 0.47014 0.94581 0.19332 0.0
C1544 C 0.5352 0.99115 0.18548 0.0
C1545 C 0.52604 0.97513 0.20611 0.0
H1546 H 0.09399 0.50614 0.22326 0.0
H1547 H 0.05399 0.55515 0.25993 0.0
H1548 H 0.02098 0.55155 0.22735 0.0
H1549 H 1.00348 0.53464 0.18839 0.0
H1550 H 0.04215 0.48409 0.15212 0.0
H1551 H 0.07566 0.4883 0.18452 0.0
C1552 C 0.07779 0.51574 0.22423 0.0
C1553 C 0.07656 0.53091 0.2441 0.0
C1554 C 0.05871 0.51347 0.20543 0.0
C1555 C 0.05579 0.54369 0.24483 0.0
C1556 C 0.03676 0.5415 0.22622 0.0
C1557 C 0.01898 0.52425 0.1876 0.0
C1558 C 0.0202 0.50909 0.16772 0.0
C1559 C 0.03802 0.52647 0.20642 0.0
C1560 C 0.04097 0.4963 0.167 0.0
C1561 C 0.06001 0.49849 0.18561 0.0
H1562 H 0.53607 0.56394 0.25139 0.0
H1563 H 0.43608 0.53188 0.23485 0.0
H1564 H 0.44361 0.51421 0.19785 0.0
H1565 H 0.47926 0.50847 0.16987 0.0
H1566 H 0.57923 0.54142 0.1872 0.0
H1567 H 0.57123 0.55872 0.22393 0.0
C1568 C 0.51593 0.55334 0.23965 0.0
C1569 C 0.4856 0.5495 0.2459 0.0
C1570 C 0.52053 0.54357 0.21841 0.0
C1571 C 0.45962 0.53496 0.2306 0.0
C1572 C 0.464 0.52507 0.20935 0.0
C1573 C 0.49929 0.51969 0.18165 0.0
C1574 C 0.5298 0.52356 0.1758 0.0
C1575 C 0.49444 0.52941 0.20299 0.0
C1576 C 0.55546 0.53786 0.19134 0.0
C1577 C 0.55092 0.54781 0.21236 0.0
H1578 H 0.95849 0.42209 0.7925 0.0
H1579 H 0.91358 0.4794 0.80123 0.0
H1580 H 0.93871 0.49592 0.83843 0.0
H1581 H 0.97574 0.49595 0.86789 0.0
H1582 H 0.02074 0.43891 0.85827 0.0
H1583 H 0.9928 0.41997 0.8223 0.0
C1584 C 0.95364 0.43774 0.80267 0.0
C1585 C 0.93405 0.44939 0.79401 0.0
C1586 C 0.96829 0.44726 0.82395 0.0
C1587 C 0.92876 0.47026 0.80733 0.0
C1588 C 0.94304 0.47963 0.82867 0.0
C1589 C 0.979 0.47904 0.85802 0.0
C1590 C 1.00043 0.46898 0.86568 0.0
C1591 C 0.96317 0.46856 0.83707 0.0
C1592 C 1.00466 0.44726 0.85263 0.0
C1593 C 0.98868 0.43641 0.83207 0.0
H1594 H 0.5979 0.50939 0.81614 0.0
H1595 H 0.5051 0.45417 0.78351 0.0
H1596 H 0.47783 0.46031 0.81637 0.0
H1597 H 0.48038 0.48285 0.85395 0.0
H1598 H 0.57327 0.53861 0.88636 0.0
H1599 H 0.60033 0.53071 0.85412 0.0
C1600 C 0.57171 0.49878 0.81617 0.0
C1601 C 0.55364 0.48146 0.79725 0.0
C1602 C 0.55615 0.50253 0.83513 0.0
C1603 C 0.51964 0.4674 0.79784 0.0
C1604 C 0.50402 0.47107 0.8166 0.0
C1605 C 0.50656 0.4934 0.85393 0.0
C1606 C 0.52471 0.51144 0.8726 0.0
C1607 C 0.52203 0.48884 0.83526 0.0
C1608 C 0.5586 0.5244 0.87239 0.0
C1609 C 0.57414 0.52005 0.85387 0.0
H1610 H 0.52083 0.11203 0.80972 0.0
H1611 H 0.55555 0.05825 0.77335 0.0
H1612 H 0.5448 0.02396 0.80605 0.0
H1613 H 0.52348 0.00779 0.8445 0.0
H1614 H 0.48881 0.06149 0.88101 0.0
H1615 H 0.5018 0.09728 0.84891 0.0
C1616 C 0.52601 0.09277 0.80894 0.0
C1617 C 0.53885 0.08768 0.78898 0.0
C1618 C 0.51977 0.07309 0.82788 0.0
C1619 C 0.54591 0.06292 0.78847 0.0
C1620 C 0.53959 0.04316 0.80715 0.0
C1621 C 0.51874 0.02733 0.84544 0.0
C1622 C 0.50495 0.03174 0.86517 0.0
C1623 C 0.52622 0.04781 0.82687 0.0
C1624 C 0.49958 0.05758 0.86618 0.0
C1625 C 0.50681 0.07796 0.84774 0.0
H1626 H 0.11594 0.2896 0.5791 0.0
H1627 H 0.14403 0.21885 0.56959 0.0
H1628 H 0.16583 0.24065 0.53242 0.0
H1629 H 0.17831 0.28104 0.50269 0.0
H1630 H 0.15061 0.35178 0.51288 0.0
H1631 H 0.12642 0.32826 0.54925 0.0
C1632 C 0.1264 0.27859 0.56883 0.0
C1633 C 0.12825 0.25252 0.57733 0.0
C1634 C 0.13874 0.29114 0.54738 0.0
C1635 C 0.14261 0.23916 0.56377 0.0
C1636 C 0.15487 0.25148 0.54237 0.0
C1637 C 0.16642 0.29083 0.51276 0.0
C1638 C 0.16583 0.31784 0.50506 0.0
C1639 C 0.1532 0.27756 0.53399 0.0
C1640 C 0.15102 0.33081 0.51842 0.0
C1641 C 0.13739 0.31748 0.53926 0.0
H1642 H 0.70799 0.81495 0.57657 0.0
H1643 H 0.77859 0.91391 0.56923 0.0
H1644 H 0.75671 0.91438 0.53194 0.0
H1645 H 0.71583 0.88682 0.50191 0.0
H1646 H 0.64358 0.78871 0.51075 0.0
H1647 H 0.66796 0.78749 0.54675 0.0
C1648 C 0.71887 0.83653 0.56668 0.0
C1649 C 0.745 0.86431 0.5756 0.0
C1650 C 0.70581 0.83671 0.54549 0.0
C1651 C 0.75839 0.89225 0.56277 0.0
C1652 C 0.74593 0.89249 0.54143 0.0
C1653 C 0.70578 0.86517 0.51168 0.0
C1654 C 0.67811 0.83783 0.50375 0.0
C1655 C 0.71945 0.86491 0.53268 0.0
C1656 C 0.6649 0.80998 0.5166 0.0
C1657 C 0.67879 0.80931 0.53716 0.0
H1658 H 0.1587 0.91997 0.56284 0.0
H1659 H 0.13074 0.83162 0.59647 0.0
H1660 H 0.14072 0.8105 0.56196 0.0
H1661 H 0.16114 0.81842 0.52296 0.0
H1662 H 0.1897 0.90702 0.4895 0.0
H1663 H 0.17565 0.92661 0.52307 0.0
C1664 C 0.15468 0.89604 0.5626 0.0
C1665 C 0.1442 0.87753 0.58236 0.0
C1666 C 0.16075 0.88412 0.54271 0.0
C1667 C 0.13856 0.84636 0.58155 0.0
C1668 C 0.14451 0.83434 0.56184 0.0
C1669 C 0.16422 0.842 0.52299 0.0
C1670 C 0.17673 0.86128 0.50372 0.0
C1671 C 0.15621 0.8532 0.54244 0.0
C1672 C 0.17997 0.89156 0.50397 0.0
C1673 C 0.17212 0.90287 0.52325 0.0
H1674 H 0.63265 0.76338 0.13781 0.0
H1675 H 0.60053 0.83175 0.1428 0.0
H1676 H 0.62865 0.85016 0.1788 0.0
H1677 H 0.66578 0.84944 0.20764 0.0
H1678 H 0.69619 0.7798 0.20282 0.0
H1679 H 0.66491 0.75907 0.16828 0.0
C1680 C 0.6311 0.78182 0.14694 0.0
C1681 C 0.61462 0.79626 0.13734 0.0
C1682 C 0.64728 0.79229 0.1677 0.0
C1683 C 0.61348 0.82052 0.14946 0.0
C1684 C 0.62947 0.83101 0.17015 0.0
C1685 C 0.6651 0.82938 0.19925 0.0
C1686 C 0.68382 0.8166 0.20768 0.0
C1687 C 0.64699 0.81749 0.17924 0.0
C1688 C 0.68267 0.79062 0.19648 0.0
C1689 C 0.66466 0.77863 0.17673 0.0
H1690 H 0.18352 0.78861 0.1203 0.0
H1691 H 0.28175 0.83259 0.14522 0.0
H1692 H 0.26368 0.83966 0.18211 0.0
H1693 H 0.22063 0.83754 0.20654 0.0
H1694 H 0.12231 0.7928 0.1817 0.0
H1695 H 0.13969 0.78169 0.14591 0.0
C1696 C 0.20089 0.79916 0.13391 0.0
C1697 C 0.23405 0.81042 0.12977 0.0
C1698 C 0.19036 0.80337 0.15519 0.0
C1699 C 0.25616 0.82424 0.1477 0.0
C1700 C 0.24584 0.82824 0.16889 0.0
C1701 C 0.2029 0.82484 0.19347 0.0
C1702 C 0.17026 0.81653 0.19682 0.0
C1703 C 0.2131 0.81857 0.17272 0.0
C1704 C 0.14772 0.80017 0.17952 0.0
C1705 C 0.15761 0.79366 0.159 0.0
H1706 H 0.23213 0.44163 0.1411 0.0
H1707 H 0.14944 0.36865 0.10554 0.0
H1708 H 0.13264 0.3355 0.13903 0.0
H1709 H 0.13924 0.32813 0.17865 0.0
H1710 H 0.22316 0.39849 0.2148 0.0
H1711 H 0.24089 0.43209 0.18121 0.0
C1712 C 0.21078 0.41825 0.14065 0.0
C1713 C 0.19193 0.40776 0.12083 0.0
C1714 C 0.20103 0.39908 0.16022 0.0
C1715 C 0.16419 0.37746 0.12059 0.0
C1716 C 0.15449 0.35848 0.13977 0.0
C1717 C 0.16184 0.35046 0.17926 0.0
C1718 C 0.17981 0.36036 0.19946 0.0
C1719 C 0.1724 0.36921 0.15975 0.0
C1720 C 0.20842 0.39014 0.19974 0.0
C1721 C 0.21882 0.40931 0.18039 0.0
H1722 H 0.82658 0.60236 0.92068 0.0
H1723 H 0.72682 0.55177 0.89864 0.0
H1724 H 0.7426 0.57796 0.86212 0.0
H1725 H 0.78445 0.61805 0.83681 0.0
H1726 H 0.88413 0.6678 0.85886 0.0
H1727 H 0.86879 0.63886 0.89439 0.0
C1728 C 0.80829 0.59662 0.90782 0.0
C1729 C 0.7754 0.57533 0.91282 0.0
C1730 C 0.81754 0.61178 0.88661 0.0
C1731 C 0.75222 0.56857 0.89572 0.0
C1732 C 0.76125 0.58343 0.87464 0.0
C1733 C 0.80286 0.62211 0.84923 0.0
C1734 C 0.83541 0.64539 0.84512 0.0
C1735 C 0.79379 0.6055 0.86995 0.0
C1736 C 0.85885 0.65039 0.86159 0.0
C1737 C 0.85009 0.63382 0.88199 0.0
H1738 H 0.44519 0.18954 0.899 0.0
H1739 H 0.39083 0.22375 0.93622 0.0
H1740 H 0.35799 0.21733 0.90317 0.0
H1741 H 0.34373 0.20134 0.86398 0.0
H1742 H 0.39451 0.16299 0.82716 0.0
H1743 H 0.42965 0.17196 0.85962 0.0
C1744 C 0.42602 0.19538 0.89998 0.0
C1745 C 0.42097 0.2075 0.92022 0.0
C1746 C 0.4065 0.19097 0.8809 0.0
C1747 C 0.39607 0.21516 0.92088 0.0
C1748 C 0.37695 0.21122 0.90198 0.0
C1749 C 0.36218 0.19452 0.86303 0.0
C1750 C 0.36616 0.18134 0.843 0.0
C1751 C 0.38185 0.19906 0.88194 0.0
C1752 C 0.39095 0.17354 0.84213 0.0
C1753 C 0.41096 0.17843 0.86081 0.0
H1754 H 0.82473 0.25413 0.89071 0.0
H1755 H 0.78923 0.16566 0.92609 0.0
H1756 H 0.79909 0.14218 0.8928 0.0
H1757 H 0.82153 0.14788 0.85452 0.0
H1758 H 0.85864 0.23701 0.81973 0.0
H1759 H 0.84444 0.25898 0.85182 0.0
C1760 C 0.81908 0.22967 0.89115 0.0
C1761 C 0.80649 0.21183 0.91105 0.0
C1762 C 0.82532 0.21645 0.87205 0.0
C1763 C 0.79869 0.17995 0.91105 0.0
C1764 C 0.80462 0.16657 0.89205 0.0
C1765 C 0.82655 0.17213 0.85395 0.0
C1766 C 0.8414 0.19078 0.83469 0.0
C1767 C 0.81855 0.18478 0.87261 0.0
C1768 C 0.84706 0.22197 0.83416 0.0
C1769 C 0.83911 0.23465 0.8526 0.0
H1770 H 0.30638 0.15891 0.46106 0.0
H1771 H 0.22397 0.0717 0.48344 0.0
H1772 H 0.24592 0.08124 0.52171 0.0
H1773 H 0.29148 0.11156 0.54783 0.0
H1774 H 0.37486 0.19763 0.52488 0.0
H1775 H 0.3496 0.19157 0.48801 0.0
C1776 C 0.29287 0.14241 0.47445 0.0
C1777 C 0.26365 0.1146 0.46941 0.0
C1778 C 0.30606 0.14767 0.4963 0.0
C1779 C 0.24664 0.09318 0.48688 0.0
C1780 C 0.25921 0.0986 0.50875 0.0
C1781 C 0.30378 0.12929 0.53489 0.0
C1782 C 0.33512 0.15486 0.53903 0.0
C1783 C 0.28935 0.12532 0.51353 0.0
C1784 C 0.35091 0.17751 0.52201 0.0
C1785 C 0.33646 0.17408 0.50093 0.0
H1786 H 0.85001 0.12966 0.45458 0.0
H1787 H 0.94867 0.17277 0.47851 0.0
H1788 H 0.93162 0.18039 0.51561 0.0
H1789 H 0.88935 0.17848 0.54058 0.0
H1790 H 0.79063 0.13526 0.51674 0.0
H1791 H 0.80695 0.1239 0.48057 0.0
C1792 C 0.86767 0.14023 0.46802 0.0
C1793 C 0.90064 0.15095 0.46361 0.0
C1794 C 0.85773 0.1448 0.48938 0.0
C1795 C 0.92322 0.1648 0.48126 0.0
C1796 C 0.91349 0.1691 0.50255 0.0
C1797 C 0.87131 0.16608 0.52762 0.0
C1798 C 0.83886 0.15809 0.53137 0.0
C1799 C 0.8809 0.15977 0.50671 0.0
C1800 C 0.81589 0.14224 0.51423 0.0
C1801 C 0.82518 0.13561 0.49352 0.0
H1802 H 0.81646 0.73749 0.46806 0.0
H1803 H 0.92068 0.77984 0.47089 0.0
H1804 H 0.91623 0.75599 0.50788 0.0
H1805 H 0.8822 0.72067 0.53911 0.0
H1806 H 0.7784 0.67969 0.53573 0.0
H1807 H 0.78338 0.70633 0.49987 0.0
C1808 C 0.83844 0.74229 0.47683 0.0
C1809 C 0.86893 0.76068 0.46629 0.0
C1810 C 0.83577 0.72881 0.49831 0.0
C1811 C 0.89678 0.76551 0.47811 0.0
C1812 C 0.89429 0.75202 0.49947 0.0
C1813 C 0.86083 0.71827 0.53073 0.0
C1814 C 0.82994 0.69852 0.54025 0.0
C1815 C 0.86387 0.73334 0.50971 0.0
C1816 C 0.8024 0.69503 0.52892 0.0
C1817 C 0.80524 0.71008 0.5083 0.0
loop_
_geom_bond_atom_site_label_1
_geom_bond_atom_site_label_2
_geom_bond_distance
_geom_bond_site_symmetry_2
_ccdc_geom_bond_type
H0 C3 0.929 . S
H1 C6 0.929 . S
H2 C8 0.930 . S
C3 H0 0.929 . S
C3 C4 1.398 . S
C3 C5 1.396 . S
C4 C3 1.398 . S
C4 C8 1.407 . S
C5 C3 1.396 . S
C5 C6 1.394 . S
C6 H1 0.929 . S
C6 C5 1.394 . S
C6 C7 1.382 . S
C7 C6 1.382 . S
C7 C8 1.392 . S
C7 N9 1.420 . S
C8 H2 0.930 . S
C8 C4 1.407 . S
C8 C7 1.392 . S
N9 C7 1.420 . S
N9 C10 1.244 . S
C10 N9 1.244 . S
H11 C14 0.929 . S
H12 C17 0.929 . S
H13 C19 0.930 . S
C14 H11 0.929 . S
C14 C15 1.398 . S
C14 C16 1.396 . S
C15 C14 1.398 . S
C15 C19 1.407 . S
C16 C14 1.396 . S
C16 C17 1.394 . S
C17 H12 0.929 . S
C17 C16 1.394 . S
C17 C18 1.382 . S
C18 C17 1.382 . S
C18 C19 1.392 . S
C18 N20 1.420 . S
C19 H13 0.930 . S
C19 C15 1.407 . S
C19 C18 1.392 . S
N20 C18 1.420 . S
N20 C21 1.244 . S
C21 N20 1.244 . S
H22 C25 0.929 . S
H23 C28 0.929 . S
H24 C30 0.930 . S
C25 H22 0.929 . S
C25 C26 1.398 . S
C25 C27 1.396 . S
C26 C25 1.398 . S
C26 C30 1.407 . S
C27 C25 1.396 . S
C27 C28 1.394 . S
C28 H23 0.929 . S
C28 C27 1.394 . S
C28 C29 1.382 . S
C29 C28 1.382 . S
C29 C30 1.392 . S
C29 N31 1.420 . S
C30 H24 0.930 . S
C30 C26 1.407 . S
C30 C29 1.392 . S
N31 C29 1.420 . S
N31 C32 1.244 . S
C32 N31 1.244 . S
H33 C36 0.929 . S
H34 C39 0.929 . S
H35 C41 0.930 . S
C36 H33 0.929 . S
C36 C37 1.398 . S
C36 C38 1.396 . S
C37 C36 1.398 . S
C37 C41 1.407 . S
C38 C36 1.396 . S
C38 C39 1.394 . S
C39 H34 0.929 . S
C39 C38 1.394 . S
C39 C40 1.382 . S
C40 C39 1.382 . S
C40 C41 1.392 . S
C40 N42 1.420 . S
C41 H35 0.930 . S
C41 C37 1.407 . S
C41 C40 1.392 . S
N42 C40 1.420 . S
N42 C43 1.244 . S
C43 N42 1.244 . S
H44 C47 0.929 . S
H45 C50 0.929 . S
H46 C52 0.930 . S
C47 H44 0.929 . S
C47 C48 1.398 . S
C47 C49 1.396 . S
C48 C47 1.398 . S
C48 C52 1.407 . S
C49 C47 1.396 . S
C49 C50 1.394 . S
C50 H45 0.929 . S
C50 C49 1.394 . S
C50 C51 1.382 . S
C51 C50 1.382 . S
C51 C52 1.392 . S
C51 N53 1.420 . S
C52 H46 0.930 . S
C52 C48 1.407 . S
C52 C51 1.392 . S
N53 C51 1.420 . S
N53 C54 1.244 . S
C54 N53 1.244 . S
H55 C58 0.929 . S
H56 C61 0.929 . S
H57 C63 0.930 . S
C58 H55 0.929 . S
C58 C59 1.398 . S
C58 C60 1.396 . S
C59 C58 1.398 . S
C59 C63 1.407 . S
C60 C58 1.396 . S
C60 C61 1.394 . S
C61 H56 0.929 . S
C61 C60 1.394 . S
C61 C62 1.382 . S
C62 C61 1.382 . S
C62 C63 1.392 . S
C62 N64 1.420 . S
C63 H57 0.930 . S
C63 C59 1.407 . S
C63 C62 1.392 . S
N64 C62 1.420 . S
N64 C65 1.244 . S
C65 N64 1.244 . S
H66 C69 0.929 . S
H67 C72 0.929 . S
H68 C74 0.930 . S
C69 H66 0.929 . S
C69 C70 1.398 . S
C69 C71 1.396 . S
C70 C69 1.398 . S
C70 C74 1.407 . S
C71 C69 1.396 . S
C71 C72 1.394 . S
C72 H67 0.929 . S
C72 C71 1.394 . S
C72 C73 1.382 . S
C73 C72 1.382 . S
C73 C74 1.392 . S
C73 N75 1.420 . S
C74 H68 0.930 . S
C74 C70 1.407 . S
C74 C73 1.392 . S
N75 C73 1.420 . S
N75 C76 1.244 . S
C76 N75 1.244 . S
H77 C80 0.929 . S
H78 C83 0.929 . S
H79 C85 0.930 . S
C80 H77 0.929 . S
C80 C81 1.398 . S
C80 C82 1.396 . S
C81 C80 1.398 . S
C81 C85 1.407 . S
C82 C80 1.396 . S
C82 C83 1.394 . S
C83 H78 0.929 . S
C83 C82 1.394 . S
C83 C84 1.382 . S
C84 C83 1.382 . S
C84 C85 1.392 . S
C84 N86 1.420 . S
C85 H79 0.930 . S
C85 C81 1.407 . S
C85 C84 1.392 . S
N86 C84 1.420 . S
N86 C87 1.244 . S
C87 N86 1.244 . S
H88 C91 0.929 . S
H89 C94 0.929 . S
H90 C96 0.930 . S
C91 H88 0.929 . S
C91 C92 1.398 . S
C91 C93 1.396 . S
C92 C91 1.398 . S
C92 C96 1.407 . S
C93 C91 1.396 . S
C93 C94 1.394 . S
C94 H89 0.929 . S
C94 C93 1.394 . S
C94 C95 1.382 . S
C95 C94 1.382 . S
C95 C96 1.392 . S
C95 N97 1.420 . S
C96 H90 0.930 . S
C96 C92 1.407 . S
C96 C95 1.392 . S
N97 C95 1.420 . S
N97 C98 1.244 . S
C98 N97 1.244 . S
H99 C102 0.929 . S
H100 C105 0.929 . S
H101 C107 0.930 . S
C102 H99 0.929 . S
C102 C103 1.398 . S
C102 C104 1.396 . S
C103 C102 1.398 . S
C103 C107 1.407 . S
C104 C102 1.396 . S
C104 C105 1.394 . S
C105 H100 0.929 . S
C105 C104 1.394 . S
C105 C106 1.382 . S
C106 C105 1.382 . S
C106 C107 1.392 . S
C106 N108 1.420 . S
C107 H101 0.930 . S
C107 C103 1.407 . S
C107 C106 1.392 . S
N108 C106 1.420 . S
N108 C109 1.244 . S
C109 N108 1.244 . S
H110 C113 0.929 . S
H111 C116 0.929 . S
H112 C118 0.930 . S
C113 H110 0.929 . S
C113 C114 1.398 . S
C113 C115 1.396 . S
C114 C113 1.398 . S
C114 C118 1.407 . S
C115 C113 1.396 . S
C115 C116 1.394 . S
C116 H111 0.929 . S
C116 C115 1.394 . S
C116 C117 1.382 . S
C117 C116 1.382 . S
C117 C118 1.392 . S
C117 N119 1.420 . S
C118 H112 0.930 . S
C118 C114 1.407 . S
C118 C117 1.392 . S
N119 C117 1.420 . S
N119 C120 1.244 . S
C120 N119 1.244 . S
H121 C124 0.929 . S
H122 C127 0.929 . S
H123 C129 0.930 . S
C124 H121 0.929 . S
C124 C125 1.398 . S
C124 C126 1.396 . S
C125 C124 1.398 . S
C125 C129 1.407 . S
C126 C124 1.396 . S
C126 C127 1.394 . S
C127 H122 0.929 . S
C127 C126 1.394 . S
C127 C128 1.382 . S
C128 C127 1.382 . S
C128 C129 1.392 . S
C128 N130 1.420 . S
C129 H123 0.930 . S
C129 C125 1.407 . S
C129 C128 1.392 . S
N130 C128 1.420 . S
N130 C131 1.244 . S
C131 N130 1.244 . S
H132 C135 0.929 . S
H133 C138 0.929 . S
H134 C140 0.930 . S
C135 H132 0.929 . S
C135 C136 1.398 . S
C135 C137 1.396 . S
C136 C135 1.398 . S
C136 C140 1.407 . S
C137 C135 1.396 . S
C137 C138 1.394 . S
C138 H133 0.929 . S
C138 C137 1.394 . S
C138 C139 1.382 . S
C139 C138 1.382 . S
C139 C140 1.392 . S
C139 N141 1.420 . S
C140 H134 0.930 . S
C140 C136 1.407 . S
C140 C139 1.392 . S
N141 C139 1.420 . S
N141 C142 1.244 . S
C142 N141 1.244 . S
H143 C146 0.929 . S
H144 C149 0.929 . S
H145 C151 0.930 . S
C146 H143 0.929 . S
C146 C147 1.398 . S
C146 C148 1.396 . S
C147 C146 1.398 . S
C147 C151 1.407 . S
C148 C146 1.396 . S
C148 C149 1.394 . S
C149 H144 0.929 . S
C149 C148 1.394 . S
C149 C150 1.382 . S
C150 C149 1.382 . S
C150 C151 1.392 . S
C150 N152 1.420 . S
C151 H145 0.930 . S
C151 C147 1.407 . S
C151 C150 1.392 . S
N152 C150 1.420 . S
N152 C153 1.244 . S
C153 N152 1.244 . S
H154 C157 0.929 . S
H155 C160 0.929 . S
H156 C162 0.930 . S
C157 H154 0.929 . S
C157 C158 1.398 . S
C157 C159 1.396 . S
C158 C157 1.398 . S
C158 C162 1.407 . S
C159 C157 1.396 . S
C159 C160 1.394 . S
C160 H155 0.929 . S
C160 C159 1.394 . S
C160 C161 1.382 . S
C161 C160 1.382 . S
C161 C162 1.392 . S
C161 N163 1.420 . S
C162 H156 0.930 . S
C162 C158 1.407 . S
C162 C161 1.392 . S
N163 C161 1.420 . S
N163 C164 1.244 . S
C164 N163 1.244 . S
H165 C168 0.929 . S
H166 C171 0.929 . S
H167 C173 0.930 . S
C168 H165 0.929 . S
C168 C169 1.398 . S
C168 C170 1.396 . S
C169 C168 1.398 . S
C169 C173 1.407 . S
C170 C168 1.396 . S
C170 C171 1.394 . S
C171 H166 0.929 . S
C171 C170 1.394 . S
C171 C172 1.382 . S
C172 C171 1.382 . S
C172 C173 1.392 . S
C172 N174 1.420 . S
C173 H167 0.930 . S
C173 C169 1.407 . S
C173 C172 1.392 . S
N174 C172 1.420 . S
N174 C175 1.244 . S
C175 N174 1.244 . S
H176 C179 0.929 . S
H177 C182 0.929 . S
H178 C184 0.930 . S
C179 H176 0.929 . S
C179 C180 1.398 . S
C179 C181 1.396 . S
C180 C179 1.398 . S
C180 C184 1.407 . S
C181 C179 1.396 . S
C181 C182 1.394 . S
C182 H177 0.929 . S
C182 C181 1.394 . S
C182 C183 1.382 . S
C183 C182 1.382 . S
C183 C184 1.392 . S
C183 N185 1.420 . S
C184 H178 0.930 . S
C184 C180 1.407 . S
C184 C183 1.392 . S
N185 C183 1.420 . S
N185 C186 1.244 . S
C186 N185 1.244 . S
H187 C190 0.929 . S
H188 C193 0.929 . S
H189 C195 0.930 . S
C190 H187 0.929 . S
C190 C191 1.398 . S
C190 C192 1.396 . S
C191 C190 1.398 . S
C191 C195 1.407 . S
C192 C190 1.396 . S
C192 C193 1.394 . S
C193 H188 0.929 . S
C193 C192 1.394 . S
C193 C194 1.382 . S
C194 C193 1.382 . S
C194 C195 1.392 . S
C194 N196 1.420 . S
C195 H189 0.930 . S
C195 C191 1.407 . S
C195 C194 1.392 . S
N196 C194 1.420 . S
N196 C197 1.244 . S
C197 N196 1.244 . S
Tb198 N229 2.660 . S
Tb198 N236 2.600 . S
Tb198 O242 2.546 . S
Tb198 O243 2.610 1_566 S
Tb198 O245 2.320 1_565 S
Tb198 O246 2.552 1_565 S
Tb198 O247 2.413 1_565 S
Tb198 O249 2.362 1_556 S
Tb198 O250 2.421 . S
Tb198 C262 2.833 . S
C199 C202 1.432 . S
C199 C203 1.414 . S
C199 N206 1.359 . S
C200 C202 1.417 . S
C200 C204 1.432 . S
C200 C212 1.410 . S
C201 C203 1.444 . S
C201 C204 1.317 . S
C201 H224 0.929 . S
C202 C199 1.432 . S
C202 C200 1.417 . S
C202 N210 1.360 . S
C203 C199 1.414 . S
C203 C201 1.444 . S
C203 C208 1.385 . S
C204 C200 1.432 . S
C204 C201 1.317 . S
C204 H216 0.930 . S
C205 C207 1.392 . S
C205 C208 1.370 . S
C205 H217 0.931 . S
N206 C199 1.359 . S
N206 C207 1.327 . S
N206 Tb209 2.600 . S
C207 C205 1.392 . S
C207 N206 1.327 . S
C207 H214 0.930 . S
C208 C203 1.385 . S
C208 C205 1.370 . S
C208 H227 0.930 . S
Tb209 N206 2.600 . S
Tb209 N210 2.660 . S
Tb209 O243 2.362 . S
Tb209 O244 2.421 . S
Tb209 O248 2.546 . S
Tb209 O249 2.610 1_545 S
Tb209 O251 2.320 1_545 S
Tb209 O252 2.552 1_545 S
Tb209 O253 2.413 1_545 S
Tb209 C273 2.833 . S
N210 C202 1.360 . S
N210 Tb209 2.660 . S
N210 C211 1.305 . S
C211 N210 1.305 . S
C211 C213 1.407 . S
C211 H218 0.930 . S
C212 C200 1.410 . S
C212 C213 1.345 . S
C212 H220 0.930 . S
C213 C211 1.407 . S
C213 C212 1.345 . S
C213 H215 0.930 . S
H214 C207 0.930 . S
H215 C213 0.930 . S
H216 C204 0.930 . S
H217 C205 0.931 . S
H218 C211 0.930 . S
H219 C233 0.930 . S
H220 C212 0.930 . S
H221 C239 0.930 . S
H222 C230 0.930 . S
H223 C237 0.931 . S
H224 C201 0.929 . S
H225 C231 0.930 . S
H226 C264 0.930 . S
H227 C208 0.930 . S
H228 C263 0.929 . S
N229 Tb198 2.660 . S
N229 C230 1.305 . S
N229 C234 1.360 . S
C230 H222 0.930 . S
C230 N229 1.305 . S
C230 C233 1.407 . S
C231 H225 0.930 . S
C231 C232 1.410 . S
C231 C233 1.345 . S
C232 C231 1.410 . S
C232 C234 1.417 . S
C232 C264 1.432 . S
C233 H219 0.930 . S
C233 C230 1.407 . S
C233 C231 1.345 . S
C234 N229 1.360 . S
C234 C232 1.417 . S
C234 C238 1.432 . S
H235 C240 0.930 . S
N236 Tb198 2.600 . S
N236 C238 1.359 . S
N236 C239 1.327 . S
C237 H223 0.931 . S
C237 C239 1.392 . S
C237 C240 1.370 . S
C238 C234 1.432 . S
C238 N236 1.359 . S
C238 C241 1.414 . S
C239 H221 0.930 . S
C239 N236 1.327 . S
C239 C237 1.392 . S
C240 H235 0.930 . S
C240 C237 1.370 . S
C240 C241 1.385 . S
C241 C238 1.414 . S
C241 C240 1.385 . S
C241 C263 1.444 . S
O242 Tb198 2.546 . S
O242 C262 1.251 . S
O243 Tb198 2.610 1_544 S
O243 Tb209 2.362 . S
O243 C254 1.283 1_554 S
O244 Tb209 2.421 . S
O244 C261 1.219 1_554 S
O245 Tb198 2.320 1_545 S
O245 C261 1.290 . S
O246 Tb198 2.552 1_545 S
O246 C254 1.243 . S
O247 Tb198 2.413 1_545 S
O247 C262 1.256 1_545 S
O248 Tb209 2.546 . S
O248 C273 1.251 . S
O249 Tb198 2.362 1_554 S
O249 Tb209 2.610 1_565 S
O249 C265 1.283 . S
O250 Tb198 2.421 . S
O250 C272 1.262 1_556 S
O251 Tb209 2.320 1_565 S
O251 C272 1.260 . S
O252 Tb209 2.552 1_565 S
O252 C265 1.243 . S
O253 Tb209 2.413 1_565 S
O253 C273 1.256 1_565 S
C254 O243 1.283 1_556 S
C254 O246 1.243 . S
C255 C257 1.382 . S
C255 C259 1.393 1_545 S
C255 C262 1.500 1_545 S
C256 C257 1.400 . S
C256 C258 1.384 . S
C257 C255 1.382 . S
C257 C256 1.400 . S
C257 H274 0.930 . S
C258 C256 1.384 . S
C258 C260 1.392 1_545 S
C258 H275 0.931 . S
C259 C255 1.393 1_565 S
C259 C260 1.401 . S
C259 H276 0.930 . S
C260 C258 1.392 1_565 S
C260 C259 1.401 . S
C260 H277 0.930 . S
C261 O244 1.219 1_556 S
C261 O245 1.290 . S
C262 Tb198 2.833 . S
C262 O242 1.251 . S
C262 O247 1.256 1_565 S
C262 C255 1.500 1_565 S
C263 H228 0.929 . S
C263 C241 1.444 . S
C263 C264 1.317 . S
C264 H226 0.930 . S
C264 C232 1.432 . S
C264 C263 1.317 . S
C265 O249 1.283 . S
C265 O252 1.243 . S
C266 C267 1.385 . S
C266 C270 1.391 1_565 S
C266 C273 1.499 1_565 S
C267 C266 1.385 . S
C267 C268 1.400 . S
C267 H278 0.930 . S
C268 C267 1.400 . S
C268 C269 1.384 . S
C269 C268 1.384 . S
C269 C271 1.392 1_565 S
C269 H279 0.931 . S
C270 C266 1.391 1_545 S
C270 C271 1.401 . S
C270 H280 0.930 . S
C271 C269 1.392 1_545 S
C271 C270 1.401 . S
C271 H281 0.930 . S
C272 O250 1.262 1_554 S
C272 O251 1.260 . S
C273 Tb209 2.833 . S
C273 O248 1.251 . S
C273 O253 1.256 1_545 S
C273 C266 1.499 1_545 S
H274 C257 0.930 . S
H275 C258 0.931 . S
H276 C259 0.930 . S
H277 C260 0.930 . S
H278 C267 0.930 . S
H279 C269 0.931 . S
H280 C270 0.930 . S
H281 C271 0.930 . S
Tb282 N313 2.660 . S
Tb282 N320 2.600 . S
Tb282 O326 2.546 . S
Tb282 O327 2.610 1_456 S
Tb282 O329 2.320 1_455 S
Tb282 O330 2.552 1_455 S
Tb282 O331 2.409 1_455 S
Tb282 O333 2.362 1_556 S
Tb282 O334 2.421 . S
Tb282 C346 2.833 . S
C283 C286 1.432 . S
C283 C287 1.414 . S
C283 N290 1.359 . S
C284 C286 1.417 . S
C284 C288 1.432 . S
C284 C296 1.410 . S
C285 C287 1.444 . S
C285 C288 1.317 . S
C285 H308 0.929 . S
C286 C283 1.432 . S
C286 C284 1.417 . S
C286 N294 1.360 . S
C287 C283 1.414 . S
C287 C285 1.444 . S
C287 C292 1.385 . S
C288 C284 1.432 . S
C288 C285 1.317 . S
C288 H300 0.930 . S
C289 C291 1.392 . S
C289 C292 1.370 . S
C289 H301 0.931 . S
N290 C283 1.359 . S
N290 C291 1.327 . S
N290 Tb293 2.600 . S
C291 C289 1.392 . S
C291 N290 1.327 . S
C291 H298 0.930 . S
C292 C287 1.385 . S
C292 C289 1.370 . S
C292 H311 0.930 . S
Tb293 N290 2.600 . S
Tb293 N294 2.660 . S
Tb293 O327 2.362 . S
Tb293 O328 2.421 . S
Tb293 O332 2.546 . S
Tb293 O333 2.610 1_655 S
Tb293 O335 2.320 1_655 S
Tb293 O336 2.552 1_655 S
Tb293 O337 2.413 1_655 S
Tb293 C357 2.833 . S
N294 C286 1.360 . S
N294 Tb293 2.660 . S
N294 C295 1.305 . S
C295 N294 1.305 . S
C295 C297 1.407 . S
C295 H302 0.930 . S
C296 C284 1.410 . S
C296 C297 1.345 . S
C296 H304 0.930 . S
C297 C295 1.407 . S
C297 C296 1.345 . S
C297 H299 0.930 . S
H298 C291 0.930 . S
H299 C297 0.930 . S
H300 C288 0.930 . S
H301 C289 0.931 . S
H302 C295 0.930 . S
H303 C317 0.930 . S
H304 C296 0.930 . S
H305 C323 0.930 . S
H306 C314 0.930 . S
H307 C321 0.931 . S
H308 C285 0.929 . S
H309 C315 0.930 . S
H310 C348 0.930 . S
H311 C292 0.930 . S
H312 C347 0.929 . S
N313 Tb282 2.660 . S
N313 C314 1.305 . S
N313 C318 1.360 . S
C314 H306 0.930 . S
C314 N313 1.305 . S
C314 C317 1.407 . S
C315 H309 0.930 . S
C315 C316 1.410 . S
C315 C317 1.345 . S
C316 C315 1.410 . S
C316 C318 1.417 . S
C316 C348 1.432 . S
C317 H303 0.930 . S
C317 C314 1.407 . S
C317 C315 1.345 . S
C318 N313 1.360 . S
C318 C316 1.417 . S
C318 C322 1.432 . S
H319 C324 0.930 . S
N320 Tb282 2.600 . S
N320 C322 1.359 . S
N320 C323 1.327 . S
C321 H307 0.931 . S
C321 C323 1.392 . S
C321 C324 1.370 . S
C322 C318 1.432 . S
C322 N320 1.359 . S
C322 C325 1.414 . S
C323 H305 0.930 . S
C323 N320 1.327 . S
C323 C321 1.392 . S
C324 H319 0.930 . S
C324 C321 1.370 . S
C324 C325 1.385 . S
C325 C322 1.414 . S
C325 C324 1.385 . S
C325 C347 1.444 . S
O326 Tb282 2.546 . S
O326 C346 1.251 . S
O327 Tb282 2.610 1_654 S
O327 Tb293 2.362 . S
O327 C338 1.283 1_554 S
O328 Tb293 2.421 . S
O328 C345 1.262 1_554 S
O329 Tb282 2.320 1_655 S
O329 C345 1.260 . S
O330 Tb282 2.552 1_655 S
O330 C338 1.243 . S
O331 Tb282 2.409 1_655 S
O331 C346 1.258 1_655 S
O332 Tb293 2.546 . S
O332 C357 1.251 . S
O333 Tb282 2.362 1_554 S
O333 Tb293 2.610 1_455 S
O333 C349 1.283 . S
O334 Tb282 2.421 . S
O334 C356 1.262 1_556 S
O335 Tb293 2.320 1_455 S
O335 C356 1.260 . S
O336 Tb293 2.552 1_455 S
O336 C349 1.243 . S
O337 Tb293 2.413 1_455 S
O337 C357 1.256 1_455 S
C338 O327 1.283 1_556 S
C338 O330 1.243 . S
C339 C341 1.382 1_455 S
C339 C343 1.393 . S
C339 C346 1.500 . S
C340 C341 1.400 . S
C340 C342 1.384 . S
C341 C339 1.382 1_655 S
C341 C340 1.400 . S
C341 H358 0.930 . S
C342 C340 1.384 . S
C342 C344 1.392 1_655 S
C342 H359 0.931 . S
C343 C339 1.393 . S
C343 C344 1.401 . S
C343 H360 0.930 . S
C344 C342 1.392 1_455 S
C344 C343 1.401 . S
C344 H361 0.930 . S
C345 O328 1.262 1_556 S
C345 O329 1.260 . S
C346 Tb282 2.833 . S
C346 O326 1.251 . S
C346 O331 1.258 1_455 S
C346 C339 1.500 . S
C347 H312 0.929 . S
C347 C325 1.444 . S
C347 C348 1.317 . S
C348 H310 0.930 . S
C348 C316 1.432 . S
C348 C347 1.317 . S
C349 O333 1.283 . S
C349 O336 1.243 . S
C350 C351 1.382 . S
C350 C354 1.393 1_455 S
C350 C357 1.500 1_455 S
C351 C350 1.382 . S
C351 C352 1.400 . S
C351 H362 0.930 . S
C352 C351 1.400 . S
C352 C353 1.384 . S
C353 C352 1.384 . S
C353 C355 1.392 1_455 S
C353 H363 0.931 . S
C354 C350 1.393 1_655 S
C354 C355 1.401 . S
C354 H364 0.930 . S
C355 C353 1.392 1_655 S
C355 C354 1.401 . S
C355 H365 0.930 . S
C356 O334 1.262 1_554 S
C356 O335 1.260 . S
C357 Tb293 2.833 . S
C357 O332 1.251 . S
C357 O337 1.256 1_655 S
C357 C350 1.500 1_655 S
H358 C341 0.930 . S
H359 C342 0.931 . S
H360 C343 0.930 . S
H361 C344 0.930 . S
H362 C351 0.930 . S
H363 C353 0.931 . S
H364 C354 0.930 . S
H365 C355 0.930 . S
Tb366 N397 2.660 . S
Tb366 N404 2.600 . S
Tb366 O410 2.546 . S
Tb366 O411 2.610 . S
Tb366 O413 2.320 . S
Tb366 O414 2.552 . S
Tb366 O415 2.413 . S
Tb366 O417 2.362 . S
Tb366 O418 2.421 . S
Tb366 C430 2.833 . S
C367 C370 1.432 . S
C367 C371 1.414 . S
C367 N374 1.359 . S
C368 C370 1.417 . S
C368 C372 1.432 . S
C368 C380 1.410 . S
C369 C371 1.444 . S
C369 C372 1.317 . S
C369 H392 0.929 . S
C370 C367 1.432 . S
C370 C368 1.417 . S
C370 N378 1.360 . S
C371 C367 1.414 . S
C371 C369 1.444 . S
C371 C376 1.385 . S
C372 C368 1.432 . S
C372 C369 1.317 . S
C372 H384 0.930 . S
C373 C375 1.392 . S
C373 C376 1.370 . S
C373 H385 0.931 . S
N374 C367 1.359 . S
N374 C375 1.327 . S
N374 Tb377 2.600 . S
C375 C373 1.392 . S
C375 N374 1.327 . S
C375 H382 0.930 . S
C376 C371 1.385 . S
C376 C373 1.370 . S
C376 H395 0.930 . S
Tb377 N374 2.600 . S
Tb377 N378 2.660 . S
Tb377 O411 2.362 1_556 S
Tb377 O412 2.421 . S
Tb377 O416 2.546 . S
Tb377 O417 2.610 1_556 S
Tb377 O419 2.320 . S
Tb377 O420 2.552 . S
Tb377 O421 2.413 . S
Tb377 C441 2.833 . S
N378 C370 1.360 . S
N378 Tb377 2.660 . S
N378 C379 1.305 . S
C379 N378 1.305 . S
C379 C381 1.407 . S
C379 H386 0.930 . S
C380 C368 1.410 . S
C380 C381 1.345 . S
C380 H388 0.930 . S
C381 C379 1.407 . S
C381 C380 1.345 . S
C381 H383 0.930 . S
H382 C375 0.930 . S
H383 C381 0.930 . S
H384 C372 0.930 . S
H385 C373 0.931 . S
H386 C379 0.930 . S
H387 C401 0.930 . S
H388 C380 0.930 . S
H389 C407 0.930 . S
H390 C398 0.930 . S
H391 C405 0.931 . S
H392 C369 0.929 . S
H393 C399 0.930 . S
H394 C432 0.930 . S
H395 C376 0.930 . S
H396 C431 0.929 . S
N397 Tb366 2.660 . S
N397 C398 1.305 . S
N397 C402 1.360 . S
C398 H390 0.930 . S
C398 N397 1.305 . S
C398 C401 1.407 . S
C399 H393 0.930 . S
C399 C400 1.410 . S
C399 C401 1.345 . S
C400 C399 1.410 . S
C400 C402 1.417 . S
C400 C432 1.432 . S
C401 H387 0.930 . S
C401 C398 1.407 . S
C401 C399 1.345 . S
C402 N397 1.360 . S
C402 C400 1.417 . S
C402 C406 1.432 . S
H403 C408 0.930 . S
N404 Tb366 2.600 . S
N404 C406 1.359 . S
N404 C407 1.327 . S
C405 H391 0.931 . S
C405 C407 1.392 . S
C405 C408 1.370 . S
C406 C402 1.432 . S
C406 N404 1.359 . S
C406 C409 1.414 . S
C407 H389 0.930 . S
C407 N404 1.327 . S
C407 C405 1.392 . S
C408 H403 0.930 . S
C408 C405 1.370 . S
C408 C409 1.385 . S
C409 C406 1.414 . S
C409 C408 1.385 . S
C409 C431 1.444 . S
O410 Tb366 2.546 . S
O410 C430 1.251 . S
O411 Tb366 2.610 . S
O411 Tb377 2.362 1_554 S
O411 C422 1.283 . S
O412 Tb377 2.421 . S
O412 C429 1.262 1_556 S
O413 Tb366 2.320 . S
O413 C429 1.260 . S
O414 Tb366 2.552 . S
O414 C422 1.243 . S
O415 Tb366 2.413 . S
O415 C430 1.256 . S
O416 Tb377 2.546 . S
O416 C441 1.251 . S
O417 Tb366 2.362 . S
O417 Tb377 2.610 1_554 S
O417 C433 1.283 1_554 S
O418 Tb366 2.421 . S
O418 C440 1.247 1_554 S
O419 Tb377 2.320 . S
O419 C440 1.270 . S
O420 Tb377 2.552 . S
O420 C433 1.243 . S
O421 Tb377 2.413 . S
O421 C441 1.256 . S
C422 O411 1.283 . S
C422 O414 1.243 . S
C423 C425 1.382 . S
C423 C427 1.393 . S
C423 C430 1.500 . S
C424 C425 1.400 . S
C424 C426 1.384 . S
C425 C423 1.382 . S
C425 C424 1.400 . S
C425 H442 0.930 . S
C426 C424 1.384 . S
C426 C428 1.392 . S
C426 H443 0.931 . S
C427 C423 1.393 . S
C427 C428 1.401 . S
C427 H444 0.930 . S
C428 C426 1.392 . S
C428 C427 1.401 . S
C428 H445 0.930 . S
C429 O412 1.262 1_554 S
C429 O413 1.260 . S
C430 Tb366 2.833 . S
C430 O410 1.251 . S
C430 O415 1.256 . S
C430 C423 1.500 . S
C431 H396 0.929 . S
C431 C409 1.444 . S
C431 C432 1.317 . S
C432 H394 0.930 . S
C432 C400 1.432 . S
C432 C431 1.317 . S
C433 O417 1.283 1_556 S
C433 O420 1.243 . S
C434 C435 1.382 . S
C434 C438 1.393 . S
C434 C441 1.500 . S
C435 C434 1.382 . S
C435 C436 1.400 . S
C435 H446 0.930 . S
C436 C435 1.400 . S
C436 C437 1.384 . S
C437 C436 1.384 . S
C437 C439 1.392 . S
C437 H447 0.931 . S
C438 C434 1.393 . S
C438 C439 1.401 . S
C438 H448 0.930 . S
C439 C437 1.392 . S
C439 C438 1.401 . S
C439 H449 0.930 . S
C440 O418 1.247 1_556 S
C440 O419 1.270 . S
C441 Tb377 2.833 . S
C441 O416 1.251 . S
C441 O421 1.256 . S
C441 C434 1.500 . S
H442 C425 0.930 . S
H443 C426 0.931 . S
H444 C427 0.930 . S
H445 C428 0.930 . S
H446 C435 0.930 . S
H447 C437 0.931 . S
H448 C438 0.930 . S
H449 C439 0.930 . S
Tb450 N481 2.660 . S
Tb450 N488 2.600 . S
Tb450 O494 2.546 . S
Tb450 O495 2.610 . S
Tb450 O497 2.320 . S
Tb450 O498 2.552 . S
Tb450 O499 2.413 . S
Tb450 O501 2.362 . S
Tb450 O502 2.421 . S
Tb450 C514 2.833 . S
C451 C454 1.432 . S
C451 C455 1.414 . S
C451 N458 1.359 . S
C452 C454 1.417 . S
C452 C456 1.432 . S
C452 C464 1.410 . S
C453 C455 1.444 . S
C453 C456 1.317 . S
C453 H476 0.929 . S
C454 C451 1.432 . S
C454 C452 1.417 . S
C454 N462 1.360 . S
C455 C451 1.414 . S
C455 C453 1.444 . S
C455 C460 1.385 . S
C456 C452 1.432 . S
C456 C453 1.317 . S
C456 H468 0.930 . S
C457 C459 1.392 . S
C457 C460 1.370 . S
C457 H469 0.931 . S
N458 C451 1.359 . S
N458 C459 1.327 . S
N458 Tb461 2.600 . S
C459 C457 1.392 . S
C459 N458 1.327 . S
C459 H466 0.930 . S
C460 C455 1.385 . S
C460 C457 1.370 . S
C460 H479 0.930 . S
Tb461 N458 2.600 . S
Tb461 N462 2.660 . S
Tb461 O495 2.362 . S
Tb461 O496 2.421 . S
Tb461 O500 2.546 . S
Tb461 O501 2.610 . S
Tb461 O503 2.320 . S
Tb461 O504 2.552 . S
Tb461 O505 2.413 . S
Tb461 C525 2.833 . S
N462 C454 1.360 . S
N462 Tb461 2.660 . S
N462 C463 1.305 . S
C463 N462 1.305 . S
C463 C465 1.407 . S
C463 H470 0.930 . S
C464 C452 1.410 . S
C464 C465 1.345 . S
C464 H472 0.930 . S
C465 C463 1.407 . S
C465 C464 1.345 . S
C465 H467 0.930 . S
H466 C459 0.930 . S
H467 C465 0.930 . S
H468 C456 0.930 . S
H469 C457 0.931 . S
H470 C463 0.930 . S
H471 C485 0.930 . S
H472 C464 0.930 . S
H473 C491 0.930 . S
H474 C482 0.930 . S
H475 C489 0.931 . S
H476 C453 0.929 . S
H477 C483 0.955 . S
H478 C516 0.901 1_655 S
H479 C460 0.930 . S
H480 C515 0.929 . S
N481 Tb450 2.660 . S
N481 C482 1.305 . S
N481 C486 1.360 . S
C482 H474 0.930 . S
C482 N481 1.305 . S
C482 C485 1.407 . S
C483 H477 0.955 . S
C483 C484 1.386 1_655 S
C483 C485 1.344 1_655 S
C484 C483 1.386 1_455 S
C484 C486 1.417 . S
C484 C516 1.431 . S
C485 H471 0.930 . S
C485 C482 1.407 . S
C485 C483 1.344 1_455 S
C486 N481 1.360 . S
C486 C484 1.417 . S
C486 C490 1.432 . S
H487 C492 0.930 . S
N488 Tb450 2.600 . S
N488 C490 1.359 . S
N488 C491 1.327 . S
C489 H475 0.931 . S
C489 C491 1.392 . S
C489 C492 1.370 . S
C490 C486 1.432 . S
C490 N488 1.359 . S
C490 C493 1.414 . S
C491 H473 0.930 . S
C491 N488 1.327 . S
C491 C489 1.392 . S
C492 H487 0.930 . S
C492 C489 1.370 . S
C492 C493 1.385 . S
C493 C490 1.414 . S
C493 C492 1.385 . S
C493 C515 1.444 . S
O494 Tb450 2.546 . S
O494 C514 1.251 . S
O495 Tb450 2.610 . S
O495 Tb461 2.362 . S
O495 C506 1.283 . S
O496 Tb461 2.421 . S
O496 C513 1.262 . S
O497 Tb450 2.320 . S
O497 C513 1.260 . S
O498 Tb450 2.552 . S
O498 C506 1.243 . S
O499 Tb450 2.413 . S
O499 C514 1.256 . S
O500 Tb461 2.546 . S
O500 C525 1.251 . S
O501 Tb450 2.362 . S
O501 Tb461 2.610 . S
O501 C517 1.283 . S
O502 Tb450 2.421 . S
O502 C524 1.262 . S
O503 Tb461 2.320 . S
O503 C524 1.260 . S
O504 Tb461 2.552 . S
O504 C517 1.243 . S
O505 Tb461 2.413 . S
O505 C525 1.256 . S
C506 O495 1.283 . S
C506 O498 1.243 . S
C507 C509 1.382 . S
C507 C511 1.393 . S
C507 C514 1.500 . S
C508 C509 1.400 . S
C508 C510 1.384 . S
C509 C507 1.382 . S
C509 C508 1.400 . S
C509 H526 0.930 . S
C510 C508 1.384 . S
C510 C512 1.392 . S
C510 H527 0.931 . S
C511 C507 1.393 . S
C511 C512 1.401 . S
C511 H528 0.930 . S
C512 C510 1.392 . S
C512 C511 1.401 . S
C512 H529 0.930 . S
C513 O496 1.262 . S
C513 O497 1.260 . S
C514 Tb450 2.833 . S
C514 O494 1.251 . S
C514 O499 1.256 . S
C514 C507 1.500 . S
C515 H480 0.929 . S
C515 C493 1.444 . S
C515 C516 1.347 . S
C516 H478 0.901 1_455 S
C516 C484 1.431 . S
C516 C515 1.347 . S
C517 O501 1.283 . S
C517 O504 1.243 . S
C518 C519 1.382 . S
C518 C522 1.393 . S
C518 C525 1.500 . S
C519 C518 1.382 . S
C519 C520 1.400 . S
C519 H530 0.930 . S
C520 C519 1.400 . S
C520 C521 1.384 . S
C521 C520 1.384 . S
C521 C523 1.392 . S
C521 H531 0.931 . S
C522 C518 1.393 . S
C522 C523 1.401 . S
C522 H532 0.930 . S
C523 C521 1.392 . S
C523 C522 1.401 . S
C523 H533 0.930 . S
C524 O502 1.262 . S
C524 O503 1.260 . S
C525 Tb461 2.833 . S
C525 O500 1.251 . S
C525 O505 1.256 . S
C525 C518 1.500 . S
H526 C509 0.930 . S
H527 C510 0.931 . S
H528 C511 0.930 . S
H529 C512 0.930 . S
H530 C519 0.930 . S
H531 C521 0.931 . S
H532 C522 0.930 . S
H533 C523 0.930 . S
Tb534 N565 2.660 . S
Tb534 N572 2.600 . S
Tb534 O578 2.546 . S
Tb534 O579 2.610 . S
Tb534 O581 2.320 . S
Tb534 O582 2.552 . S
Tb534 O583 2.413 . S
Tb534 O585 2.362 . S
Tb534 O586 2.421 . S
Tb534 C598 2.833 . S
C535 C538 1.432 . S
C535 C539 1.414 . S
C535 N542 1.359 . S
C536 C538 1.417 . S
C536 C540 1.432 . S
C536 C548 1.410 . S
C537 C539 1.444 . S
C537 C540 1.317 . S
C537 H560 0.929 . S
C538 C535 1.432 . S
C538 C536 1.417 . S
C538 N546 1.360 . S
C539 C535 1.414 . S
C539 C537 1.444 . S
C539 C544 1.385 . S
C540 C536 1.432 . S
C540 C537 1.317 . S
C540 H552 0.930 . S
C541 C543 1.392 . S
C541 C544 1.370 . S
C541 H553 0.931 . S
N542 C535 1.359 . S
N542 C543 1.327 . S
N542 Tb545 2.600 . S
C543 C541 1.392 . S
C543 N542 1.327 . S
C543 H550 0.930 . S
C544 C539 1.385 . S
C544 C541 1.370 . S
C544 H563 0.930 . S
Tb545 N542 2.600 . S
Tb545 N546 2.660 . S
Tb545 O579 2.362 . S
Tb545 O580 2.421 . S
Tb545 O584 2.546 . S
Tb545 O585 2.610 . S
Tb545 O587 2.320 . S
Tb545 O588 2.552 . S
Tb545 O589 2.413 . S
Tb545 C609 2.833 . S
N546 C538 1.360 . S
N546 Tb545 2.660 . S
N546 C547 1.305 . S
C547 N546 1.305 . S
C547 C549 1.407 . S
C547 H554 0.930 . S
C548 C536 1.410 . S
C548 C549 1.345 . S
C548 H556 0.930 . S
C549 C547 1.407 . S
C549 C548 1.345 . S
C549 H551 0.930 . S
H550 C543 0.930 . S
H551 C549 0.930 . S
H552 C540 0.930 . S
H553 C541 0.931 . S
H554 C547 0.930 . S
H555 C569 0.930 . S
H556 C548 0.930 . S
H557 C575 0.930 . S
H558 C566 0.930 . S
H559 C573 0.931 . S
H560 C537 0.929 . S
H561 C567 0.930 . S
H562 C600 0.930 . S
H563 C544 0.930 . S
H564 C599 0.929 . S
N565 Tb534 2.660 . S
N565 C566 1.305 . S
N565 C570 1.360 . S
C566 H558 0.930 . S
C566 N565 1.305 . S
C566 C569 1.407 . S
C567 H561 0.930 . S
C567 C568 1.410 . S
C567 C569 1.345 . S
C568 C567 1.410 . S
C568 C570 1.417 . S
C568 C600 1.432 . S
C569 H555 0.930 . S
C569 C566 1.407 . S
C569 C567 1.345 . S
C570 N565 1.360 . S
C570 C568 1.417 . S
C570 C574 1.432 . S
H571 C576 0.930 . S
N572 Tb534 2.600 . S
N572 C574 1.359 . S
N572 C575 1.327 . S
C573 H559 0.931 . S
C573 C575 1.392 . S
C573 C576 1.370 . S
C574 C570 1.432 . S
C574 N572 1.359 . S
C574 C577 1.414 . S
C575 H557 0.930 . S
C575 N572 1.327 . S
C575 C573 1.392 . S
C576 H571 0.930 . S
C576 C573 1.370 . S
C576 C577 1.385 . S
C577 C574 1.414 . S
C577 C576 1.385 . S
C577 C599 1.444 . S
O578 Tb534 2.546 . S
O578 C598 1.251 . S
O579 Tb534 2.610 . S
O579 Tb545 2.362 . S
O579 C590 1.283 . S
O580 Tb545 2.421 . S
O580 C597 1.262 . S
O581 Tb534 2.320 . S
O581 C597 1.260 . S
O582 Tb534 2.552 . S
O582 C590 1.243 . S
O583 Tb534 2.413 . S
O583 C598 1.256 . S
O584 Tb545 2.546 . S
O584 C609 1.251 . S
O585 Tb534 2.362 . S
O585 Tb545 2.610 . S
O585 C601 1.283 . S
O586 Tb534 2.421 . S
O586 C608 1.262 . S
O587 Tb545 2.320 . S
O587 C608 1.260 . S
O588 Tb545 2.552 . S
O588 C601 1.243 . S
O589 Tb545 2.413 . S
O589 C609 1.256 . S
C590 O579 1.283 . S
C590 O582 1.243 . S
C591 C593 1.382 . S
C591 C595 1.393 . S
C591 C598 1.500 . S
C592 C593 1.400 . S
C592 C594 1.384 . S
C593 C591 1.382 . S
C593 C592 1.400 . S
C593 H610 0.930 . S
C594 C592 1.384 . S
C594 C596 1.392 . S
C594 H611 0.931 . S
C595 C591 1.393 . S
C595 C596 1.401 . S
C595 H612 0.930 . S
C596 C594 1.392 . S
C596 C595 1.401 . S
C596 H613 0.930 . S
C597 O580 1.262 . S
C597 O581 1.260 . S
C598 Tb534 2.833 . S
C598 O578 1.251 . S
C598 O583 1.256 . S
C598 C591 1.500 . S
C599 H564 0.929 . S
C599 C577 1.444 . S
C599 C600 1.317 . S
C600 H562 0.930 . S
C600 C568 1.432 . S
C600 C599 1.317 . S
C601 O585 1.283 . S
C601 O588 1.243 . S
C602 C603 1.382 . S
C602 C606 1.393 . S
C602 C609 1.500 . S
C603 C602 1.382 . S
C603 C604 1.400 . S
C603 H614 0.930 . S
C604 C603 1.400 . S
C604 C605 1.384 . S
C605 C604 1.384 . S
C605 C607 1.392 . S
C605 H615 0.931 . S
C606 C602 1.393 . S
C606 C607 1.401 . S
C606 H616 0.930 . S
C607 C605 1.392 . S
C607 C606 1.401 . S
C607 H617 0.930 . S
C608 O586 1.262 . S
C608 O587 1.260 . S
C609 Tb545 2.833 . S
C609 O584 1.251 . S
C609 O589 1.256 . S
C609 C602 1.500 . S
H610 C593 0.930 . S
H611 C594 0.931 . S
H612 C595 0.930 . S
H613 C596 0.930 . S
H614 C603 0.930 . S
H615 C605 0.931 . S
H616 C606 0.930 . S
H617 C607 0.930 . S
Tb618 N649 2.660 . S
Tb618 N656 2.600 . S
Tb618 O662 2.546 . S
Tb618 O663 2.610 . S
Tb618 O665 2.320 . S
Tb618 O666 2.552 . S
Tb618 O667 2.413 . S
Tb618 O669 2.362 . S
Tb618 O670 2.421 . S
Tb618 C682 2.833 . S
C619 C622 1.432 . S
C619 C623 1.414 . S
C619 N626 1.359 . S
C620 C622 1.417 . S
C620 C624 1.432 . S
C620 C632 1.410 . S
C621 C623 1.444 . S
C621 C624 1.317 . S
C621 H644 0.929 . S
C622 C619 1.432 . S
C622 C620 1.417 . S
C622 N630 1.360 . S
C623 C619 1.414 . S
C623 C621 1.444 . S
C623 C628 1.385 . S
C624 C620 1.432 . S
C624 C621 1.317 . S
C624 H636 0.930 . S
C625 C627 1.392 . S
C625 C628 1.370 . S
C625 H637 0.931 . S
N626 C619 1.359 . S
N626 C627 1.327 . S
N626 Tb629 2.600 . S
C627 C625 1.392 . S
C627 N626 1.327 . S
C627 H634 0.930 . S
C628 C623 1.385 . S
C628 C625 1.370 . S
C628 H647 0.930 . S
Tb629 N626 2.600 . S
Tb629 N630 2.660 . S
Tb629 O663 2.362 . S
Tb629 O664 2.421 . S
Tb629 O668 2.546 . S
Tb629 O669 2.610 . S
Tb629 O671 2.320 . S
Tb629 O672 2.552 . S
Tb629 O673 2.413 . S
Tb629 C693 2.833 . S
N630 C622 1.360 . S
N630 Tb629 2.660 . S
N630 C631 1.305 . S
C631 N630 1.305 . S
C631 C633 1.407 . S
C631 H638 0.930 . S
C632 C620 1.410 . S
C632 C633 1.345 . S
C632 H640 0.930 . S
C633 C631 1.407 . S
C633 C632 1.345 . S
C633 H635 0.930 . S
H634 C627 0.930 . S
H635 C633 0.930 . S
H636 C624 0.930 . S
H637 C625 0.931 . S
H638 C631 0.930 . S
H639 C653 0.930 . S
H640 C632 0.930 . S
H641 C659 0.930 . S
H642 C650 0.930 . S
H643 C657 0.931 . S
H644 C621 0.929 . S
H645 C651 0.930 . S
H646 C684 0.930 . S
H647 C628 0.930 . S
H648 C683 0.929 . S
N649 Tb618 2.660 . S
N649 C650 1.305 . S
N649 C654 1.360 . S
C650 H642 0.930 . S
C650 N649 1.305 . S
C650 C653 1.407 . S
C651 H645 0.930 . S
C651 C652 1.410 . S
C651 C653 1.345 . S
C652 C651 1.410 . S
C652 C654 1.417 . S
C652 C684 1.432 . S
C653 H639 0.930 . S
C653 C650 1.407 . S
C653 C651 1.345 . S
C654 N649 1.360 . S
C654 C652 1.417 . S
C654 C658 1.432 . S
H655 C660 0.930 . S
N656 Tb618 2.600 . S
N656 C658 1.359 . S
N656 C659 1.327 . S
C657 H643 0.931 . S
C657 C659 1.392 . S
C657 C660 1.370 . S
C658 C654 1.432 . S
C658 N656 1.359 . S
C658 C661 1.414 . S
C659 H641 0.930 . S
C659 N656 1.327 . S
C659 C657 1.392 . S
C660 H655 0.930 . S
C660 C657 1.370 . S
C660 C661 1.385 . S
C661 C658 1.414 . S
C661 C660 1.385 . S
C661 C683 1.444 . S
O662 Tb618 2.546 . S
O662 C682 1.251 . S
O663 Tb618 2.610 . S
O663 Tb629 2.362 . S
O663 C674 1.283 . S
O664 Tb629 2.421 . S
O664 C681 1.262 . S
O665 Tb618 2.320 . S
O665 C681 1.260 . S
O666 Tb618 2.552 . S
O666 C674 1.243 . S
O667 Tb618 2.413 . S
O667 C682 1.256 . S
O668 Tb629 2.546 . S
O668 C693 1.251 . S
O669 Tb618 2.362 . S
O669 Tb629 2.610 . S
O669 C685 1.283 . S
O670 Tb618 2.421 . S
O670 C692 1.262 . S
O671 Tb629 2.320 . S
O671 C692 1.260 . S
O672 Tb629 2.552 . S
O672 C685 1.243 . S
O673 Tb629 2.413 . S
O673 C693 1.256 . S
C674 O663 1.283 . S
C674 O666 1.243 . S
C675 C677 1.382 . S
C675 C679 1.393 . S
C675 C682 1.500 . S
C676 C677 1.400 . S
C676 C678 1.384 . S
C677 C675 1.382 . S
C677 C676 1.400 . S
C677 H694 0.930 . S
C678 C676 1.384 . S
C678 C680 1.392 . S
C678 H695 0.931 . S
C679 C675 1.393 . S
C679 C680 1.401 . S
C679 H696 0.930 . S
C680 C678 1.392 . S
C680 C679 1.401 . S
C680 H697 0.930 . S
C681 O664 1.262 . S
C681 O665 1.260 . S
C682 Tb618 2.833 . S
C682 O662 1.251 . S
C682 O667 1.256 . S
C682 C675 1.500 . S
C683 H648 0.929 . S
C683 C661 1.444 . S
C683 C684 1.317 . S
C684 H646 0.930 . S
C684 C652 1.432 . S
C684 C683 1.317 . S
C685 O669 1.283 . S
C685 O672 1.243 . S
C686 C687 1.382 . S
C686 C690 1.393 . S
C686 C693 1.500 . S
C687 C686 1.382 . S
C687 C688 1.400 . S
C687 H698 0.930 . S
C688 C687 1.400 . S
C688 C689 1.384 . S
C689 C688 1.384 . S
C689 C691 1.392 . S
C689 H699 0.931 . S
C690 C686 1.393 . S
C690 C691 1.401 . S
C690 H700 0.930 . S
C691 C689 1.392 . S
C691 C690 1.401 . S
C691 H701 0.930 . S
C692 O670 1.262 . S
C692 O671 1.260 . S
C693 Tb629 2.833 . S
C693 O668 1.251 . S
C693 O673 1.256 . S
C693 C686 1.500 . S
H694 C677 0.930 . S
H695 C678 0.931 . S
H696 C679 0.930 . S
H697 C680 0.930 . S
H698 C687 0.930 . S
H699 C689 0.931 . S
H700 C690 0.930 . S
H701 C691 0.930 . S
Tb702 N733 2.660 . S
Tb702 N740 2.600 . S
Tb702 O746 2.546 . S
Tb702 O747 2.610 . S
Tb702 O749 2.320 . S
Tb702 O750 2.552 . S
Tb702 O751 2.413 . S
Tb702 O753 2.362 . S
Tb702 O754 2.421 . S
Tb702 C766 2.833 . S
C703 C706 1.432 . S
C703 C707 1.414 . S
C703 N710 1.359 . S
C704 C706 1.417 . S
C704 C708 1.432 . S
C704 C716 1.410 . S
C705 C707 1.444 . S
C705 C708 1.317 . S
C705 H728 0.929 . S
C706 C703 1.432 . S
C706 C704 1.417 . S
C706 N714 1.360 . S
C707 C703 1.414 . S
C707 C705 1.444 . S
C707 C712 1.385 . S
C708 C704 1.432 . S
C708 C705 1.317 . S
C708 H720 0.930 . S
C709 C711 1.392 . S
C709 C712 1.370 . S
C709 H721 0.931 . S
N710 C703 1.359 . S
N710 C711 1.327 . S
N710 Tb713 2.600 . S
C711 C709 1.392 . S
C711 N710 1.327 . S
C711 H718 0.930 . S
C712 C707 1.385 . S
C712 C709 1.370 . S
C712 H731 0.930 . S
Tb713 N710 2.600 . S
Tb713 N714 2.660 . S
Tb713 O747 2.362 . S
Tb713 O748 2.421 . S
Tb713 O752 2.546 . S
Tb713 O753 2.610 . S
Tb713 O755 2.320 . S
Tb713 O756 2.552 . S
Tb713 O757 2.413 . S
Tb713 C777 2.833 . S
N714 C706 1.360 . S
N714 Tb713 2.660 . S
N714 C715 1.305 . S
C715 N714 1.305 . S
C715 C717 1.407 . S
C715 H722 0.930 . S
C716 C704 1.410 . S
C716 C717 1.345 . S
C716 H724 0.930 . S
C717 C715 1.407 . S
C717 C716 1.345 . S
C717 H719 0.930 . S
H718 C711 0.930 . S
H719 C717 0.930 . S
H720 C708 0.930 . S
H721 C709 0.931 . S
H722 C715 0.930 . S
H723 C737 0.930 . S
H724 C716 0.930 . S
H725 C743 0.930 . S
H726 C734 0.930 . S
H727 C741 0.931 . S
H728 C705 0.929 . S
H729 C735 0.930 . S
H730 C768 0.930 . S
H731 C712 0.930 . S
H732 C767 0.929 . S
N733 Tb702 2.660 . S
N733 C734 1.305 . S
N733 C738 1.360 . S
C734 H726 0.930 . S
C734 N733 1.305 . S
C734 C737 1.407 . S
C735 H729 0.930 . S
C735 C736 1.410 . S
C735 C737 1.345 . S
C736 C735 1.410 . S
C736 C738 1.417 . S
C736 C768 1.432 . S
C737 H723 0.930 . S
C737 C734 1.407 . S
C737 C735 1.345 . S
C738 N733 1.360 . S
C738 C736 1.417 . S
C738 C742 1.432 . S
H739 C744 0.930 . S
N740 Tb702 2.600 . S
N740 C742 1.359 . S
N740 C743 1.327 . S
C741 H727 0.931 . S
C741 C743 1.392 . S
C741 C744 1.370 . S
C742 C738 1.432 . S
C742 N740 1.359 . S
C742 C745 1.414 . S
C743 H725 0.930 . S
C743 N740 1.327 . S
C743 C741 1.392 . S
C744 H739 0.930 . S
C744 C741 1.370 . S
C744 C745 1.385 . S
C745 C742 1.414 . S
C745 C744 1.385 . S
C745 C767 1.444 . S
O746 Tb702 2.546 . S
O746 C766 1.251 . S
O747 Tb702 2.610 . S
O747 Tb713 2.362 . S
O747 C758 1.283 . S
O748 Tb713 2.421 . S
O748 C765 1.262 . S
O749 Tb702 2.320 . S
O749 C765 1.260 . S
O750 Tb702 2.552 . S
O750 C758 1.243 . S
O751 Tb702 2.413 . S
O751 C766 1.256 . S
O752 Tb713 2.546 . S
O752 C777 1.251 . S
O753 Tb702 2.362 . S
O753 Tb713 2.610 . S
O753 C769 1.283 . S
O754 Tb702 2.421 . S
O754 C776 1.262 . S
O755 Tb713 2.320 . S
O755 C776 1.260 . S
O756 Tb713 2.552 . S
O756 C769 1.243 . S
O757 Tb713 2.413 . S
O757 C777 1.256 . S
C758 O747 1.283 . S
C758 O750 1.243 . S
C759 C761 1.382 . S
C759 C763 1.393 . S
C759 C766 1.500 . S
C760 C761 1.400 . S
C760 C762 1.384 . S
C761 C759 1.382 . S
C761 C760 1.400 . S
C761 H778 0.930 . S
C762 C760 1.384 . S
C762 C764 1.392 . S
C762 H779 0.931 . S
C763 C759 1.393 . S
C763 C764 1.401 . S
C763 H780 0.930 . S
C764 C762 1.392 . S
C764 C763 1.401 . S
C764 H781 0.930 . S
C765 O748 1.262 . S
C765 O749 1.260 . S
C766 Tb702 2.833 . S
C766 O746 1.251 . S
C766 O751 1.256 . S
C766 C759 1.500 . S
C767 H732 0.929 . S
C767 C745 1.444 . S
C767 C768 1.317 . S
C768 H730 0.930 . S
C768 C736 1.432 . S
C768 C767 1.317 . S
C769 O753 1.283 . S
C769 O756 1.243 . S
C770 C771 1.382 . S
C770 C774 1.393 . S
C770 C777 1.500 . S
C771 C770 1.382 . S
C771 C772 1.400 . S
C771 H782 0.930 . S
C772 C771 1.400 . S
C772 C773 1.384 . S
C773 C772 1.384 . S
C773 C775 1.392 . S
C773 H783 0.931 . S
C774 C770 1.393 . S
C774 C775 1.401 . S
C774 H784 0.930 . S
C775 C773 1.392 . S
C775 C774 1.401 . S
C775 H785 0.930 . S
C776 O754 1.262 . S
C776 O755 1.260 . S
C777 Tb713 2.833 . S
C777 O752 1.251 . S
C777 O757 1.256 . S
C777 C770 1.500 . S
H778 C761 0.930 . S
H779 C762 0.931 . S
H780 C763 0.930 . S
H781 C764 0.930 . S
H782 C771 0.930 . S
H783 C773 0.931 . S
H784 C774 0.930 . S
H785 C775 0.930 . S
Tb786 N817 2.660 . S
Tb786 N824 2.600 . S
Tb786 O830 2.546 . S
Tb786 O831 2.610 . S
Tb786 O833 2.320 . S
Tb786 O834 2.552 . S
Tb786 O835 2.413 . S
Tb786 O837 2.362 . S
Tb786 O838 2.421 . S
Tb786 C850 2.833 . S
C787 C790 1.432 . S
C787 C791 1.414 . S
C787 N794 1.359 . S
C788 C790 1.417 . S
C788 C792 1.432 . S
C788 C800 1.410 . S
C789 C791 1.444 . S
C789 C792 1.317 . S
C789 H812 0.929 . S
C790 C787 1.432 . S
C790 C788 1.417 . S
C790 N798 1.360 . S
C791 C787 1.414 . S
C791 C789 1.444 . S
C791 C796 1.385 . S
C792 C788 1.432 . S
C792 C789 1.317 . S
C792 H804 0.930 . S
C793 C795 1.392 . S
C793 C796 1.370 . S
C793 H805 0.931 . S
N794 C787 1.359 . S
N794 C795 1.327 . S
N794 Tb797 2.600 . S
C795 C793 1.392 . S
C795 N794 1.327 . S
C795 H802 0.930 . S
C796 C791 1.385 . S
C796 C793 1.370 . S
C796 H815 0.930 . S
Tb797 N794 2.600 . S
Tb797 N798 2.660 . S
Tb797 O831 2.362 . S
Tb797 O832 2.421 . S
Tb797 O836 2.546 . S
Tb797 O837 2.610 . S
Tb797 O839 2.320 . S
Tb797 O840 2.552 . S
Tb797 O841 2.413 . S
Tb797 C861 2.833 . S
N798 C790 1.360 . S
N798 Tb797 2.660 . S
N798 C799 1.305 . S
C799 N798 1.305 . S
C799 C801 1.407 . S
C799 H806 0.930 . S
C800 C788 1.410 . S
C800 C801 1.345 . S
C800 H808 0.930 . S
C801 C799 1.407 . S
C801 C800 1.345 . S
C801 H803 0.930 . S
H802 C795 0.930 . S
H803 C801 0.930 . S
H804 C792 0.930 . S
H805 C793 0.931 . S
H806 C799 0.930 . S
H807 C821 0.930 . S
H808 C800 0.930 . S
H809 C827 0.930 . S
H810 C818 0.930 . S
H811 C825 0.931 . S
H812 C789 0.929 . S
H813 C819 0.930 . S
H814 C852 0.930 . S
H815 C796 0.930 . S
H816 C851 0.929 . S
N817 Tb786 2.660 . S
N817 C818 1.305 . S
N817 C822 1.360 . S
C818 H810 0.930 . S
C818 N817 1.305 . S
C818 C821 1.407 . S
C819 H813 0.930 . S
C819 C820 1.410 . S
C819 C821 1.345 . S
C820 C819 1.410 . S
C820 C822 1.417 . S
C820 C852 1.432 . S
C821 H807 0.930 . S
C821 C818 1.407 . S
C821 C819 1.345 . S
C822 N817 1.360 . S
C822 C820 1.417 . S
C822 C826 1.432 . S
H823 C828 0.930 . S
N824 Tb786 2.600 . S
N824 C826 1.359 . S
N824 C827 1.327 . S
C825 H811 0.931 . S
C825 C827 1.392 . S
C825 C828 1.370 . S
C826 C822 1.432 . S
C826 N824 1.359 . S
C826 C829 1.414 . S
C827 H809 0.930 . S
C827 N824 1.327 . S
C827 C825 1.392 . S
C828 H823 0.930 . S
C828 C825 1.370 . S
C828 C829 1.385 . S
C829 C826 1.414 . S
C829 C828 1.385 . S
C829 C851 1.444 . S
O830 Tb786 2.546 . S
O830 C850 1.251 . S
O831 Tb786 2.610 . S
O831 Tb797 2.362 . S
O831 C842 1.283 . S
O832 Tb797 2.421 . S
O832 C849 1.262 . S
O833 Tb786 2.320 . S
O833 C849 1.260 . S
O834 Tb786 2.552 . S
O834 C842 1.243 . S
O835 Tb786 2.413 . S
O835 C850 1.256 . S
O836 Tb797 2.546 . S
O836 C861 1.251 . S
O837 Tb786 2.362 . S
O837 Tb797 2.610 . S
O837 C853 1.283 . S
O838 Tb786 2.421 . S
O838 C860 1.262 . S
O839 Tb797 2.320 . S
O839 C860 1.260 . S
O840 Tb797 2.552 . S
O840 C853 1.243 . S
O841 Tb797 2.413 . S
O841 C861 1.256 . S
C842 O831 1.283 . S
C842 O834 1.243 . S
C843 C845 1.382 . S
C843 C847 1.393 . S
C843 C850 1.500 . S
C844 C845 1.400 . S
C844 C846 1.384 . S
C845 C843 1.382 . S
C845 C844 1.400 . S
C845 H862 0.930 . S
C846 C844 1.384 . S
C846 C848 1.392 . S
C846 H863 0.931 . S
C847 C843 1.393 . S
C847 C848 1.401 . S
C847 H864 0.930 . S
C848 C846 1.392 . S
C848 C847 1.401 . S
C848 H865 0.930 . S
C849 O832 1.262 . S
C849 O833 1.260 . S
C850 Tb786 2.833 . S
C850 O830 1.251 . S
C850 O835 1.256 . S
C850 C843 1.500 . S
C851 H816 0.929 . S
C851 C829 1.444 . S
C851 C852 1.317 . S
C852 H814 0.930 . S
C852 C820 1.432 . S
C852 C851 1.317 . S
C853 O837 1.283 . S
C853 O840 1.243 . S
C854 C855 1.382 . S
C854 C858 1.393 . S
C854 C861 1.500 . S
C855 C854 1.382 . S
C855 C856 1.400 . S
C855 H866 0.930 . S
C856 C855 1.400 . S
C856 C857 1.384 . S
C857 C856 1.384 . S
C857 C859 1.392 . S
C857 H867 0.931 . S
C858 C854 1.393 . S
C858 C859 1.401 . S
C858 H868 0.930 . S
C859 C857 1.392 . S
C859 C858 1.401 . S
C859 H869 0.930 . S
C860 O838 1.262 . S
C860 O839 1.260 . S
C861 Tb797 2.833 . S
C861 O836 1.251 . S
C861 O841 1.256 . S
C861 C854 1.500 . S
H862 C845 0.930 . S
H863 C846 0.931 . S
H864 C847 0.930 . S
H865 C848 0.930 . S
H866 C855 0.930 . S
H867 C857 0.931 . S
H868 C858 0.930 . S
H869 C859 0.930 . S
Tb870 N901 2.660 . S
Tb870 N908 2.600 . S
Tb870 O914 2.546 . S
Tb870 O915 2.610 . S
Tb870 O917 2.320 . S
Tb870 O918 2.552 . S
Tb870 O919 2.413 . S
Tb870 O921 2.362 . S
Tb870 O922 2.421 . S
Tb870 C934 2.833 . S
C871 C874 1.432 . S
C871 C875 1.414 . S
C871 N878 1.359 . S
C872 C874 1.417 . S
C872 C876 1.432 . S
C872 C884 1.410 . S
C873 C875 1.444 . S
C873 C876 1.317 . S
C873 H896 0.929 . S
C874 C871 1.432 . S
C874 C872 1.417 . S
C874 N882 1.360 . S
C875 C871 1.414 . S
C875 C873 1.444 . S
C875 C880 1.385 . S
C876 C872 1.432 . S
C876 C873 1.317 . S
C876 H888 0.930 . S
C877 C879 1.392 . S
C877 C880 1.370 . S
C877 H889 0.931 . S
N878 C871 1.359 . S
N878 C879 1.327 . S
N878 Tb881 2.600 . S
C879 C877 1.392 . S
C879 N878 1.327 . S
C879 H886 0.930 . S
C880 C875 1.385 . S
C880 C877 1.370 . S
C880 H899 0.930 . S
Tb881 N878 2.600 . S
Tb881 N882 2.660 . S
Tb881 O915 2.362 . S
Tb881 O916 2.421 . S
Tb881 O920 2.546 . S
Tb881 O921 2.610 . S
Tb881 O923 2.320 . S
Tb881 O924 2.552 . S
Tb881 O925 2.413 . S
Tb881 C945 2.833 . S
N882 C874 1.360 . S
N882 Tb881 2.660 . S
N882 C883 1.305 . S
C883 N882 1.305 . S
C883 C885 1.407 . S
C883 H890 0.930 . S
C884 C872 1.410 . S
C884 C885 1.345 . S
C884 H892 0.930 . S
C885 C883 1.407 . S
C885 C884 1.345 . S
C885 H887 0.930 . S
H886 C879 0.930 . S
H887 C885 0.930 . S
H888 C876 0.930 . S
H889 C877 0.931 . S
H890 C883 0.930 . S
H891 C905 0.931 1_455 S
H892 C884 0.930 . S
H893 C911 0.930 . S
H894 C902 0.930 . S
H895 C909 0.931 . S
H896 C873 0.929 . S
H897 C903 0.930 . S
H898 C936 0.930 . S
H899 C880 0.930 . S
H900 C935 0.926 1_455 S
N901 Tb870 2.660 . S
N901 C902 1.305 . S
N901 C906 1.360 . S
C902 H894 0.930 . S
C902 N901 1.305 . S
C902 C905 1.407 . S
C903 H897 0.930 . S
C903 C904 1.410 1_455 S
C903 C905 1.345 1_455 S
C904 C903 1.410 1_655 S
C904 C906 1.417 . S
C904 C936 1.432 1_655 S
C905 H891 0.931 1_655 S
C905 C902 1.407 . S
C905 C903 1.345 1_655 S
C906 N901 1.360 . S
C906 C904 1.417 . S
C906 C910 1.432 . S
H907 C912 0.930 . S
N908 Tb870 2.600 . S
N908 C910 1.359 . S
N908 C911 1.327 . S
C909 H895 0.931 . S
C909 C911 1.392 . S
C909 C912 1.370 . S
C910 C906 1.432 . S
C910 N908 1.359 . S
C910 C913 1.414 . S
C911 H893 0.930 . S
C911 N908 1.327 . S
C911 C909 1.392 . S
C912 H907 0.930 . S
C912 C909 1.370 . S
C912 C913 1.385 . S
C913 C910 1.414 . S
C913 C912 1.385 . S
C913 C935 1.444 . S
O914 Tb870 2.546 . S
O914 C934 1.251 . S
O915 Tb870 2.610 . S
O915 Tb881 2.362 . S
O915 C926 1.283 . S
O916 Tb881 2.421 . S
O916 C933 1.262 . S
O917 Tb870 2.320 . S
O917 C933 1.260 . S
O918 Tb870 2.552 . S
O918 C926 1.243 . S
O919 Tb870 2.413 . S
O919 C934 1.256 . S
O920 Tb881 2.546 . S
O920 C945 1.251 . S
O921 Tb870 2.362 . S
O921 Tb881 2.610 . S
O921 C937 1.283 . S
O922 Tb870 2.421 . S
O922 C944 1.262 . S
O923 Tb881 2.320 . S
O923 C944 1.260 . S
O924 Tb881 2.552 . S
O924 C937 1.243 . S
O925 Tb881 2.413 . S
O925 C945 1.256 . S
C926 O915 1.283 . S
C926 O918 1.243 . S
C927 C929 1.382 . S
C927 C931 1.393 . S
C927 C934 1.500 . S
C928 C929 1.400 . S
C928 C930 1.384 . S
C929 C927 1.382 . S
C929 C928 1.400 . S
C929 H946 0.930 . S
C930 C928 1.384 . S
C930 C932 1.392 . S
C930 H947 0.931 . S
C931 C927 1.393 . S
C931 C932 1.401 . S
C931 H948 0.930 . S
C932 C930 1.392 . S
C932 C931 1.401 . S
C932 H949 0.930 . S
C933 O916 1.262 . S
C933 O917 1.260 . S
C934 Tb870 2.833 . S
C934 O914 1.251 . S
C934 O919 1.256 . S
C934 C927 1.500 . S
C935 H900 0.926 1_655 S
C935 C913 1.444 . S
C935 C936 1.317 1_655 S
C936 H898 0.930 . S
C936 C904 1.432 1_455 S
C936 C935 1.317 1_455 S
C937 O921 1.283 . S
C937 O924 1.243 . S
C938 C939 1.382 . S
C938 C942 1.393 . S
C938 C945 1.500 . S
C939 C938 1.382 . S
C939 C940 1.400 . S
C939 H950 0.930 . S
C940 C939 1.400 . S
C940 C941 1.384 . S
C941 C940 1.384 . S
C941 C943 1.392 . S
C941 H951 0.931 . S
C942 C938 1.393 . S
C942 C943 1.401 . S
C942 H952 0.930 . S
C943 C941 1.392 . S
C943 C942 1.401 . S
C943 H953 0.930 . S
C944 O922 1.262 . S
C944 O923 1.260 . S
C945 Tb881 2.833 . S
C945 O920 1.251 . S
C945 O925 1.256 . S
C945 C938 1.500 . S
H946 C929 0.930 . S
H947 C930 0.931 . S
H948 C931 0.930 . S
H949 C932 0.930 . S
H950 C939 0.930 . S
H951 C941 0.931 . S
H952 C942 0.930 . S
H953 C943 0.930 . S
H954 C960 0.930 . S
H955 C963 0.930 . S
H956 C964 0.930 . S
H957 C965 0.930 . S
H958 C968 0.930 . S
H959 C969 0.930 . S
C960 H954 0.930 . S
C960 C961 1.355 . S
C960 C962 1.415 . S
C961 C960 1.355 . S
C961 C963 1.419 . S
C962 C960 1.415 . S
C962 C967 1.425 . S
C962 C969 1.409 . S
C963 H955 0.930 . S
C963 C961 1.419 . S
C963 C964 1.362 . S
C964 H956 0.930 . S
C964 C963 1.362 . S
C964 C967 1.409 . S
C965 H957 0.930 . S
C965 C966 1.355 . S
C965 C967 1.415 . S
C966 C965 1.355 . S
C966 C968 1.419 . S
C967 C962 1.425 . S
C967 C964 1.409 . S
C967 C965 1.415 . S
C968 H958 0.930 . S
C968 C966 1.419 . S
C968 C969 1.362 . S
C969 H959 0.930 . S
C969 C962 1.409 . S
C969 C968 1.362 . S
H970 C976 0.930 . S
H971 C979 0.930 . S
H972 C980 0.930 . S
H973 C981 0.930 . S
H974 C984 0.930 . S
H975 C985 0.930 . S
C976 H970 0.930 . S
C976 C977 1.355 . S
C976 C978 1.415 . S
C977 C976 1.355 . S
C977 C979 1.419 . S
C978 C976 1.415 . S
C978 C983 1.425 . S
C978 C985 1.409 . S
C979 H971 0.930 . S
C979 C977 1.419 . S
C979 C980 1.362 . S
C980 H972 0.930 . S
C980 C979 1.362 . S
C980 C983 1.409 . S
C981 H973 0.930 . S
C981 C982 1.355 . S
C981 C983 1.415 . S
C982 C981 1.355 . S
C982 C984 1.419 . S
C983 C978 1.425 . S
C983 C980 1.409 . S
C983 C981 1.415 . S
C984 H974 0.930 . S
C984 C982 1.419 . S
C984 C985 1.362 . S
C985 H975 0.930 . S
C985 C978 1.409 . S
C985 C984 1.362 . S
H986 C992 0.930 . S
H987 C995 0.930 . S
H988 C996 0.930 . S
H989 C997 0.930 . S
H990 C1000 0.930 . S
H991 C1001 0.930 . S
C992 H986 0.930 . S
C992 C993 1.355 . S
C992 C994 1.415 . S
C993 C992 1.355 . S
C993 C995 1.419 . S
C994 C992 1.415 . S
C994 C999 1.425 . S
C994 C1001 1.409 . S
C995 H987 0.930 . S
C995 C993 1.419 . S
C995 C996 1.362 . S
C996 H988 0.930 . S
C996 C995 1.362 . S
C996 C999 1.409 . S
C997 H989 0.930 . S
C997 C998 1.355 . S
C997 C999 1.415 . S
C998 C997 1.355 . S
C998 C1000 1.419 . S
C999 C994 1.425 . S
C999 C996 1.409 . S
C999 C997 1.415 . S
C1000 H990 0.930 . S
C1000 C998 1.419 . S
C1000 C1001 1.362 . S
C1001 H991 0.930 . S
C1001 C994 1.409 . S
C1001 C1000 1.362 . S
H1002 C1008 0.930 . S
H1003 C1011 0.930 . S
H1004 C1012 0.930 . S
H1005 C1013 0.930 . S
H1006 C1016 0.930 . S
H1007 C1017 0.930 . S
C1008 H1002 0.930 . S
C1008 C1009 1.355 . S
C1008 C1010 1.415 . S
C1009 C1008 1.355 . S
C1009 C1011 1.419 . S
C1010 C1008 1.415 . S
C1010 C1015 1.425 . S
C1010 C1017 1.409 . S
C1011 H1003 0.930 . S
C1011 C1009 1.419 . S
C1011 C1012 1.362 . S
C1012 H1004 0.930 . S
C1012 C1011 1.362 . S
C1012 C1015 1.409 . S
C1013 H1005 0.930 . S
C1013 C1014 1.355 . S
C1013 C1015 1.415 . S
C1014 C1013 1.355 . S
C1014 C1016 1.419 . S
C1015 C1010 1.425 . S
C1015 C1012 1.409 . S
C1015 C1013 1.415 . S
C1016 H1006 0.930 . S
C1016 C1014 1.419 . S
C1016 C1017 1.362 . S
C1017 H1007 0.930 . S
C1017 C1010 1.409 . S
C1017 C1016 1.362 . S
H1018 C1024 0.930 . S
H1019 C1027 0.930 . S
H1020 C1028 0.930 . S
H1021 C1029 0.930 . S
H1022 C1032 0.930 . S
H1023 C1033 0.930 . S
C1024 H1018 0.930 . S
C1024 C1025 1.355 . S
C1024 C1026 1.415 . S
C1025 C1024 1.355 . S
C1025 C1027 1.419 . S
C1026 C1024 1.415 . S
C1026 C1031 1.425 . S
C1026 C1033 1.409 1_556 S
C1027 H1019 0.930 . S
C1027 C1025 1.419 . S
C1027 C1028 1.362 . S
C1028 H1020 0.930 . S
C1028 C1027 1.362 . S
C1028 C1031 1.409 . S
C1029 H1021 0.930 . S
C1029 C1030 1.355 . S
C1029 C1031 1.415 . S
C1030 C1029 1.355 . S
C1030 C1032 1.419 1_556 S
C1031 C1026 1.425 . S
C1031 C1028 1.409 . S
C1031 C1029 1.415 . S
C1032 H1022 0.930 . S
C1032 C1030 1.419 1_554 S
C1032 C1033 1.362 . S
C1033 H1023 0.930 . S
C1033 C1026 1.409 1_554 S
C1033 C1032 1.362 . S
H1034 C1040 0.930 . S
H1035 C1043 0.930 . S
H1036 C1044 0.930 . S
H1037 C1045 0.927 1_554 S
H1038 C1048 0.930 . S
H1039 C1049 0.930 . S
C1040 H1034 0.930 . S
C1040 C1041 1.355 . S
C1040 C1042 1.415 . S
C1041 C1040 1.355 . S
C1041 C1043 1.419 . S
C1042 C1040 1.415 . S
C1042 C1047 1.425 . S
C1042 C1049 1.409 . S
C1043 H1035 0.930 . S
C1043 C1041 1.419 . S
C1043 C1044 1.362 1_556 S
C1044 H1036 0.930 . S
C1044 C1043 1.362 1_554 S
C1044 C1047 1.409 1_554 S
C1045 H1037 0.927 1_556 S
C1045 C1046 1.356 . S
C1045 C1047 1.416 . S
C1046 C1045 1.356 . S
C1046 C1048 1.419 . S
C1047 C1042 1.425 . S
C1047 C1044 1.409 1_556 S
C1047 C1045 1.416 . S
C1048 H1038 0.930 . S
C1048 C1046 1.419 . S
C1048 C1049 1.362 . S
C1049 H1039 0.930 . S
C1049 C1042 1.409 . S
C1049 C1048 1.362 . S
H1050 C1056 0.930 . S
H1051 C1059 0.930 . S
H1052 C1060 0.930 . S
H1053 C1061 0.930 . S
H1054 C1064 0.930 . S
H1055 C1065 0.930 . S
C1056 H1050 0.930 . S
C1056 C1057 1.355 . S
C1056 C1058 1.415 . S
C1057 C1056 1.355 . S
C1057 C1059 1.419 . S
C1058 C1056 1.415 . S
C1058 C1063 1.425 . S
C1058 C1065 1.409 . S
C1059 H1051 0.930 . S
C1059 C1057 1.419 . S
C1059 C1060 1.362 . S
C1060 H1052 0.930 . S
C1060 C1059 1.362 . S
C1060 C1063 1.409 . S
C1061 H1053 0.930 . S
C1061 C1062 1.355 . S
C1061 C1063 1.415 . S
C1062 C1061 1.355 . S
C1062 C1064 1.419 . S
C1063 C1058 1.425 . S
C1063 C1060 1.409 . S
C1063 C1061 1.415 . S
C1064 H1054 0.930 . S
C1064 C1062 1.419 . S
C1064 C1065 1.362 . S
C1065 H1055 0.930 . S
C1065 C1058 1.409 . S
C1065 C1064 1.362 . S
H1066 C1072 0.930 . S
H1067 C1075 0.930 . S
H1068 C1076 0.930 1_554 S
H1069 C1077 0.930 1_554 S
H1070 C1080 0.930 . S
H1071 C1081 0.930 . S
C1072 H1066 0.930 . S
C1072 C1073 1.355 . S
C1072 C1074 1.415 . S
C1073 C1072 1.355 . S
C1073 C1075 1.419 . S
C1074 C1072 1.415 . S
C1074 C1079 1.425 . S
C1074 C1081 1.409 . S
C1075 H1067 0.930 . S
C1075 C1073 1.419 . S
C1075 C1076 1.362 . S
C1076 H1068 0.930 1_556 S
C1076 C1075 1.362 . S
C1076 C1079 1.409 . S
C1077 H1069 0.930 1_556 S
C1077 C1078 1.355 . S
C1077 C1079 1.415 . S
C1078 C1077 1.355 . S
C1078 C1080 1.419 . S
C1079 C1074 1.425 . S
C1079 C1076 1.409 . S
C1079 C1077 1.415 . S
C1080 H1070 0.930 . S
C1080 C1078 1.419 . S
C1080 C1081 1.362 . S
C1081 H1071 0.930 . S
C1081 C1074 1.409 . S
C1081 C1080 1.362 . S
H1082 C1088 0.930 . S
H1083 C1091 0.936 . S
H1084 C1092 0.930 . S
H1085 C1093 0.930 . S
H1086 C1096 0.930 . S
H1087 C1097 0.930 . S
C1088 H1082 0.930 . S
C1088 C1089 1.355 . S
C1088 C1090 1.415 . S
C1089 C1088 1.355 . S
C1089 C1091 1.410 1_556 S
C1090 C1088 1.415 . S
C1090 C1095 1.425 . S
C1090 C1097 1.409 . S
C1091 H1083 0.936 . S
C1091 C1089 1.410 1_554 S
C1091 C1092 1.366 . S
C1092 H1084 0.930 . S
C1092 C1091 1.366 . S
C1092 C1095 1.409 1_554 S
C1093 H1085 0.930 . S
C1093 C1094 1.355 1_554 S
C1093 C1095 1.415 1_554 S
C1094 C1093 1.355 1_556 S
C1094 C1096 1.419 . S
C1095 C1090 1.425 . S
C1095 C1092 1.409 1_556 S
C1095 C1093 1.415 1_556 S
C1096 H1086 0.930 . S
C1096 C1094 1.419 . S
C1096 C1097 1.362 . S
C1097 H1087 0.930 . S
C1097 C1090 1.409 . S
C1097 C1096 1.362 . S
H1098 C1104 0.930 . S
H1099 C1107 0.930 . S
H1100 C1108 0.930 . S
H1101 C1109 0.930 . S
H1102 C1112 0.930 . S
H1103 C1113 0.930 . S
C1104 H1098 0.930 . S
C1104 C1105 1.355 . S
C1104 C1106 1.415 . S
C1105 C1104 1.355 . S
C1105 C1107 1.419 . S
C1106 C1104 1.415 . S
C1106 C1111 1.425 . S
C1106 C1113 1.409 . S
C1107 H1099 0.930 . S
C1107 C1105 1.419 . S
C1107 C1108 1.362 . S
C1108 H1100 0.930 . S
C1108 C1107 1.362 . S
C1108 C1111 1.409 . S
C1109 H1101 0.930 . S
C1109 C1110 1.355 . S
C1109 C1111 1.415 . S
C1110 C1109 1.355 . S
C1110 C1112 1.419 . S
C1111 C1106 1.425 . S
C1111 C1108 1.409 . S
C1111 C1109 1.415 . S
C1112 H1102 0.930 . S
C1112 C1110 1.419 . S
C1112 C1113 1.362 . S
C1113 H1103 0.930 . S
C1113 C1106 1.409 . S
C1113 C1112 1.362 . S
H1114 C1120 0.930 . S
H1115 C1123 0.930 . S
H1116 C1124 0.930 . S
H1117 C1125 0.930 . S
H1118 C1128 0.930 . S
H1119 C1129 0.930 . S
C1120 H1114 0.930 . S
C1120 C1121 1.355 . S
C1120 C1122 1.415 . S
C1121 C1120 1.355 . S
C1121 C1123 1.419 . S
C1122 C1120 1.415 . S
C1122 C1127 1.425 . S
C1122 C1129 1.409 . S
C1123 H1115 0.930 . S
C1123 C1121 1.419 . S
C1123 C1124 1.362 . S
C1124 H1116 0.930 . S
C1124 C1123 1.362 . S
C1124 C1127 1.409 . S
C1125 H1117 0.930 . S
C1125 C1126 1.355 . S
C1125 C1127 1.415 . S
C1126 C1125 1.355 . S
C1126 C1128 1.419 . S
C1127 C1122 1.425 . S
C1127 C1124 1.409 . S
C1127 C1125 1.415 . S
C1128 H1118 0.930 . S
C1128 C1126 1.419 . S
C1128 C1129 1.362 . S
C1129 H1119 0.930 . S
C1129 C1122 1.409 . S
C1129 C1128 1.362 . S
H1130 C1136 0.930 . S
H1131 C1139 0.930 . S
H1132 C1140 0.930 . S
H1133 C1141 0.930 . S
H1134 C1144 0.930 . S
H1135 C1145 0.930 . S
C1136 H1130 0.930 . S
C1136 C1137 1.355 . S
C1136 C1138 1.415 . S
C1137 C1136 1.355 . S
C1137 C1139 1.419 . S
C1138 C1136 1.415 . S
C1138 C1143 1.425 . S
C1138 C1145 1.409 . S
C1139 H1131 0.930 . S
C1139 C1137 1.419 . S
C1139 C1140 1.362 . S
C1140 H1132 0.930 . S
C1140 C1139 1.362 . S
C1140 C1143 1.409 . S
C1141 H1133 0.930 . S
C1141 C1142 1.355 . S
C1141 C1143 1.415 . S
C1142 C1141 1.355 . S
C1142 C1144 1.419 . S
C1143 C1138 1.425 . S
C1143 C1140 1.409 . S
C1143 C1141 1.415 . S
C1144 H1134 0.930 . S
C1144 C1142 1.419 . S
C1144 C1145 1.362 . S
C1145 H1135 0.930 . S
C1145 C1138 1.409 . S
C1145 C1144 1.362 . S
H1146 C1152 0.930 . S
H1147 C1155 0.930 . S
H1148 C1156 0.930 . S
H1149 C1157 0.930 . S
H1150 C1160 0.930 . S
H1151 C1161 0.930 . S
C1152 H1146 0.930 . S
C1152 C1153 1.355 . S
C1152 C1154 1.415 1_655 S
C1153 C1152 1.355 . S
C1153 C1155 1.419 . S
C1154 C1152 1.415 1_455 S
C1154 C1159 1.427 . S
C1154 C1161 1.409 . S
C1155 H1147 0.930 . S
C1155 C1153 1.419 . S
C1155 C1156 1.362 . S
C1156 H1148 0.930 . S
C1156 C1155 1.362 . S
C1156 C1159 1.405 1_655 S
C1157 H1149 0.930 . S
C1157 C1158 1.355 . S
C1157 C1159 1.416 . S
C1158 C1157 1.355 . S
C1158 C1160 1.419 . S
C1159 C1154 1.427 . S
C1159 C1156 1.405 1_455 S
C1159 C1157 1.416 . S
C1160 H1150 0.930 . S
C1160 C1158 1.419 . S
C1160 C1161 1.362 . S
C1161 H1151 0.930 . S
C1161 C1154 1.409 . S
C1161 C1160 1.362 . S
H1162 C1168 0.930 . S
H1163 C1171 0.930 . S
H1164 C1172 0.930 . S
H1165 C1173 0.930 . S
H1166 C1176 0.930 . S
H1167 C1177 0.930 . S
C1168 H1162 0.930 . S
C1168 C1169 1.355 . S
C1168 C1170 1.415 . S
C1169 C1168 1.355 . S
C1169 C1171 1.419 . S
C1170 C1168 1.415 . S
C1170 C1175 1.425 . S
C1170 C1177 1.409 . S
C1171 H1163 0.930 . S
C1171 C1169 1.419 . S
C1171 C1172 1.362 . S
C1172 H1164 0.930 . S
C1172 C1171 1.362 . S
C1172 C1175 1.409 . S
C1173 H1165 0.930 . S
C1173 C1174 1.355 . S
C1173 C1175 1.415 . S
C1174 C1173 1.355 . S
C1174 C1176 1.419 . S
C1175 C1170 1.425 . S
C1175 C1172 1.409 . S
C1175 C1173 1.415 . S
C1176 H1166 0.930 . S
C1176 C1174 1.419 . S
C1176 C1177 1.362 . S
C1177 H1167 0.930 . S
C1177 C1170 1.409 . S
C1177 C1176 1.362 . S
H1178 C1184 0.930 . S
H1179 C1187 0.930 . S
H1180 C1188 0.930 . S
H1181 C1189 0.930 . S
H1182 C1192 0.930 . S
H1183 C1193 0.930 . S
C1184 H1178 0.930 . S
C1184 C1185 1.355 . S
C1184 C1186 1.415 . S
C1185 C1184 1.355 . S
C1185 C1187 1.419 . S
C1186 C1184 1.415 . S
C1186 C1191 1.425 . S
C1186 C1193 1.409 1_545 S
C1187 H1179 0.930 . S
C1187 C1185 1.419 . S
C1187 C1188 1.362 . S
C1188 H1180 0.930 . S
C1188 C1187 1.362 . S
C1188 C1191 1.409 . S
C1189 H1181 0.930 . S
C1189 C1190 1.355 . S
C1189 C1191 1.415 1_565 S
C1190 C1189 1.355 . S
C1190 C1192 1.419 . S
C1191 C1186 1.425 . S
C1191 C1188 1.409 . S
C1191 C1189 1.415 1_545 S
C1192 H1182 0.930 . S
C1192 C1190 1.419 . S
C1192 C1193 1.362 . S
C1193 H1183 0.930 . S
C1193 C1186 1.409 1_565 S
C1193 C1192 1.362 . S
H1194 C1200 0.930 . S
H1195 C1203 0.930 . S
H1196 C1204 0.930 . S
H1197 C1205 0.930 . S
H1198 C1208 0.930 . S
H1199 C1209 0.930 . S
C1200 H1194 0.930 . S
C1200 C1201 1.355 . S
C1200 C1202 1.415 . S
C1201 C1200 1.355 . S
C1201 C1203 1.419 . S
C1202 C1200 1.415 . S
C1202 C1207 1.425 . S
C1202 C1209 1.409 . S
C1203 H1195 0.930 . S
C1203 C1201 1.419 . S
C1203 C1204 1.362 . S
C1204 H1196 0.930 . S
C1204 C1203 1.362 . S
C1204 C1207 1.409 . S
C1205 H1197 0.930 . S
C1205 C1206 1.355 . S
C1205 C1207 1.415 . S
C1206 C1205 1.355 . S
C1206 C1208 1.419 . S
C1207 C1202 1.425 . S
C1207 C1204 1.409 . S
C1207 C1205 1.415 . S
C1208 H1198 0.930 . S
C1208 C1206 1.419 . S
C1208 C1209 1.362 . S
C1209 H1199 0.930 . S
C1209 C1202 1.409 . S
C1209 C1208 1.362 . S
H1210 C1216 0.930 . S
H1211 C1219 0.930 . S
H1212 C1220 0.930 . S
H1213 C1221 0.930 . S
H1214 C1224 0.930 . S
H1215 C1225 0.930 . S
C1216 H1210 0.930 . S
C1216 C1217 1.355 . S
C1216 C1218 1.415 . S
C1217 C1216 1.355 . S
C1217 C1219 1.419 . S
C1218 C1216 1.415 . S
C1218 C1223 1.425 . S
C1218 C1225 1.409 . S
C1219 H1211 0.930 . S
C1219 C1217 1.419 . S
C1219 C1220 1.362 . S
C1220 H1212 0.930 . S
C1220 C1219 1.362 . S
C1220 C1223 1.409 . S
C1221 H1213 0.930 . S
C1221 C1222 1.355 . S
C1221 C1223 1.415 . S
C1222 C1221 1.355 . S
C1222 C1224 1.419 . S
C1223 C1218 1.425 . S
C1223 C1220 1.409 . S
C1223 C1221 1.415 . S
C1224 H1214 0.930 . S
C1224 C1222 1.419 . S
C1224 C1225 1.362 . S
C1225 H1215 0.930 . S
C1225 C1218 1.409 . S
C1225 C1224 1.362 . S
H1226 C1232 0.930 . S
H1227 C1235 0.930 . S
H1228 C1236 0.930 . S
H1229 C1237 0.930 . S
H1230 C1240 0.930 . S
H1231 C1241 0.930 . S
C1232 H1226 0.930 . S
C1232 C1233 1.355 . S
C1232 C1234 1.415 . S
C1233 C1232 1.355 . S
C1233 C1235 1.419 . S
C1234 C1232 1.415 . S
C1234 C1239 1.425 . S
C1234 C1241 1.409 . S
C1235 H1227 0.930 . S
C1235 C1233 1.419 . S
C1235 C1236 1.362 . S
C1236 H1228 0.930 . S
C1236 C1235 1.362 . S
C1236 C1239 1.409 . S
C1237 H1229 0.930 . S
C1237 C1238 1.355 . S
C1237 C1239 1.415 . S
C1238 C1237 1.355 . S
C1238 C1240 1.419 . S
C1239 C1234 1.425 . S
C1239 C1236 1.409 . S
C1239 C1237 1.415 . S
C1240 H1230 0.930 . S
C1240 C1238 1.419 . S
C1240 C1241 1.362 . S
C1241 H1231 0.930 . S
C1241 C1234 1.409 . S
C1241 C1240 1.362 . S
H1242 C1248 0.930 . S
H1243 C1251 0.930 . S
H1244 C1252 0.930 . S
H1245 C1253 0.930 . S
H1246 C1256 0.930 . S
H1247 C1257 0.930 . S
C1248 H1242 0.930 . S
C1248 C1249 1.355 . S
C1248 C1250 1.415 . S
C1249 C1248 1.355 . S
C1249 C1251 1.419 . S
C1250 C1248 1.415 . S
C1250 C1255 1.425 . S
C1250 C1257 1.409 . S
C1251 H1243 0.930 . S
C1251 C1249 1.419 . S
C1251 C1252 1.362 . S
C1252 H1244 0.930 . S
C1252 C1251 1.362 . S
C1252 C1255 1.409 . S
C1253 H1245 0.930 . S
C1253 C1254 1.355 . S
C1253 C1255 1.415 . S
C1254 C1253 1.355 . S
C1254 C1256 1.419 . S
C1255 C1250 1.425 . S
C1255 C1252 1.409 . S
C1255 C1253 1.415 . S
C1256 H1246 0.930 . S
C1256 C1254 1.419 . S
C1256 C1257 1.362 . S
C1257 H1247 0.930 . S
C1257 C1250 1.409 . S
C1257 C1256 1.362 . S
H1258 C1264 0.930 . S
H1259 C1267 0.930 . S
H1260 C1268 0.930 . S
H1261 C1269 0.930 . S
H1262 C1272 0.930 . S
H1263 C1273 0.930 . S
C1264 H1258 0.930 . S
C1264 C1265 1.355 . S
C1264 C1266 1.415 . S
C1265 C1264 1.355 . S
C1265 C1267 1.419 . S
C1266 C1264 1.415 . S
C1266 C1271 1.425 . S
C1266 C1273 1.409 . S
C1267 H1259 0.930 . S
C1267 C1265 1.419 . S
C1267 C1268 1.362 . S
C1268 H1260 0.930 . S
C1268 C1267 1.362 . S
C1268 C1271 1.409 . S
C1269 H1261 0.930 . S
C1269 C1270 1.355 . S
C1269 C1271 1.415 . S
C1270 C1269 1.355 . S
C1270 C1272 1.419 . S
C1271 C1266 1.425 . S
C1271 C1268 1.409 . S
C1271 C1269 1.415 . S
C1272 H1262 0.930 . S
C1272 C1270 1.419 . S
C1272 C1273 1.362 . S
C1273 H1263 0.930 . S
C1273 C1266 1.409 . S
C1273 C1272 1.362 . S
H1274 C1280 0.930 . S
H1275 C1283 0.930 . S
H1276 C1284 0.930 . S
H1277 C1285 0.930 . S
H1278 C1288 0.930 . S
H1279 C1289 0.930 . S
C1280 H1274 0.930 . S
C1280 C1281 1.355 . S
C1280 C1282 1.415 . S
C1281 C1280 1.355 . S
C1281 C1283 1.419 . S
C1282 C1280 1.415 . S
C1282 C1287 1.425 . S
C1282 C1289 1.409 . S
C1283 H1275 0.930 . S
C1283 C1281 1.419 . S
C1283 C1284 1.362 . S
C1284 H1276 0.930 . S
C1284 C1283 1.362 . S
C1284 C1287 1.409 . S
C1285 H1277 0.930 . S
C1285 C1286 1.355 . S
C1285 C1287 1.415 . S
C1286 C1285 1.355 . S
C1286 C1288 1.419 . S
C1287 C1282 1.425 . S
C1287 C1284 1.409 . S
C1287 C1285 1.415 . S
C1288 H1278 0.930 . S
C1288 C1286 1.419 . S
C1288 C1289 1.362 . S
C1289 H1279 0.930 . S
C1289 C1282 1.409 . S
C1289 C1288 1.362 . S
H1290 C1296 0.930 1_545 S
H1291 C1299 0.930 . S
H1292 C1300 0.930 . S
H1293 C1301 0.930 . S
H1294 C1304 0.930 . S
H1295 C1305 0.930 . S
C1296 H1290 0.930 1_565 S
C1296 C1297 1.355 1_565 S
C1296 C1298 1.415 . S
C1297 C1296 1.355 1_545 S
C1297 C1299 1.419 1_545 S
C1298 C1296 1.415 . S
C1298 C1303 1.425 . S
C1298 C1305 1.409 . S
C1299 H1291 0.930 . S
C1299 C1297 1.419 1_565 S
C1299 C1300 1.362 . S
C1300 H1292 0.930 . S
C1300 C1299 1.362 . S
C1300 C1303 1.409 . S
C1301 H1293 0.930 . S
C1301 C1302 1.355 . S
C1301 C1303 1.415 . S
C1302 C1301 1.355 . S
C1302 C1304 1.419 . S
C1303 C1298 1.425 . S
C1303 C1300 1.409 . S
C1303 C1301 1.415 . S
C1304 H1294 0.930 . S
C1304 C1302 1.419 . S
C1304 C1305 1.362 . S
C1305 H1295 0.930 . S
C1305 C1298 1.409 . S
C1305 C1304 1.362 . S
H1306 C1312 0.930 . S
H1307 C1315 0.930 . S
H1308 C1316 0.930 . S
H1309 C1317 0.930 . S
H1310 C1320 0.930 . S
H1311 C1321 0.930 . S
C1312 H1306 0.930 . S
C1312 C1313 1.355 . S
C1312 C1314 1.415 . S
C1313 C1312 1.355 . S
C1313 C1315 1.419 . S
C1314 C1312 1.415 . S
C1314 C1319 1.425 . S
C1314 C1321 1.409 . S
C1315 H1307 0.930 . S
C1315 C1313 1.419 . S
C1315 C1316 1.362 . S
C1316 H1308 0.930 . S
C1316 C1315 1.362 . S
C1316 C1319 1.409 . S
C1317 H1309 0.930 . S
C1317 C1318 1.355 . S
C1317 C1319 1.415 . S
C1318 C1317 1.355 . S
C1318 C1320 1.419 . S
C1319 C1314 1.425 . S
C1319 C1316 1.409 . S
C1319 C1317 1.415 . S
C1320 H1310 0.930 . S
C1320 C1318 1.419 . S
C1320 C1321 1.362 . S
C1321 H1311 0.930 . S
C1321 C1314 1.409 . S
C1321 C1320 1.362 . S
H1322 C1328 0.930 . S
H1323 C1331 0.930 . S
H1324 C1332 0.930 . S
H1325 C1333 0.930 . S
H1326 C1336 0.930 . S
H1327 C1337 0.930 . S
C1328 H1322 0.930 . S
C1328 C1329 1.355 . S
C1328 C1330 1.415 . S
C1329 C1328 1.355 . S
C1329 C1331 1.419 . S
C1330 C1328 1.415 . S
C1330 C1335 1.425 . S
C1330 C1337 1.409 . S
C1331 H1323 0.930 . S
C1331 C1329 1.419 . S
C1331 C1332 1.362 . S
C1332 H1324 0.930 . S
C1332 C1331 1.362 . S
C1332 C1335 1.409 . S
C1333 H1325 0.930 . S
C1333 C1334 1.355 . S
C1333 C1335 1.415 . S
C1334 C1333 1.355 . S
C1334 C1336 1.419 . S
C1335 C1330 1.425 . S
C1335 C1332 1.409 . S
C1335 C1333 1.415 . S
C1336 H1326 0.930 . S
C1336 C1334 1.419 . S
C1336 C1337 1.362 . S
C1337 H1327 0.930 . S
C1337 C1330 1.409 . S
C1337 C1336 1.362 . S
H1338 C1344 0.930 . S
H1339 C1347 0.930 . S
H1340 C1348 0.930 . S
H1341 C1349 0.930 . S
H1342 C1352 0.930 . S
H1343 C1353 0.930 . S
C1344 H1338 0.930 . S
C1344 C1345 1.355 . S
C1344 C1346 1.415 . S
C1345 C1344 1.355 . S
C1345 C1347 1.419 . S
C1346 C1344 1.415 . S
C1346 C1351 1.425 . S
C1346 C1353 1.409 . S
C1347 H1339 0.930 . S
C1347 C1345 1.419 . S
C1347 C1348 1.362 . S
C1348 H1340 0.930 . S
C1348 C1347 1.362 . S
C1348 C1351 1.409 . S
C1349 H1341 0.930 . S
C1349 C1350 1.355 . S
C1349 C1351 1.415 . S
C1350 C1349 1.355 . S
C1350 C1352 1.419 . S
C1351 C1346 1.425 . S
C1351 C1348 1.409 . S
C1351 C1349 1.415 . S
C1352 H1342 0.930 . S
C1352 C1350 1.419 . S
C1352 C1353 1.362 . S
C1353 H1343 0.930 . S
C1353 C1346 1.409 . S
C1353 C1352 1.362 . S
H1354 C1360 0.930 . S
H1355 C1363 0.930 . S
H1356 C1364 0.930 . S
H1357 C1365 0.930 . S
H1358 C1368 0.930 . S
H1359 C1369 0.930 . S
C1360 H1354 0.930 . S
C1360 C1361 1.355 . S
C1360 C1362 1.415 . S
C1361 C1360 1.355 . S
C1361 C1363 1.419 . S
C1362 C1360 1.415 . S
C1362 C1367 1.425 . S
C1362 C1369 1.409 . S
C1363 H1355 0.930 . S
C1363 C1361 1.419 . S
C1363 C1364 1.362 . S
C1364 H1356 0.930 . S
C1364 C1363 1.362 . S
C1364 C1367 1.409 . S
C1365 H1357 0.930 . S
C1365 C1366 1.355 . S
C1365 C1367 1.415 . S
C1366 C1365 1.355 . S
C1366 C1368 1.419 . S
C1367 C1362 1.425 . S
C1367 C1364 1.409 . S
C1367 C1365 1.415 . S
C1368 H1358 0.930 . S
C1368 C1366 1.419 . S
C1368 C1369 1.362 . S
C1369 H1359 0.930 . S
C1369 C1362 1.409 . S
C1369 C1368 1.362 . S
H1370 C1376 0.930 . S
H1371 C1379 0.930 . S
H1372 C1380 0.930 . S
H1373 C1381 0.930 . S
H1374 C1384 0.930 . S
H1375 C1385 0.930 . S
C1376 H1370 0.930 . S
C1376 C1377 1.355 . S
C1376 C1378 1.415 . S
C1377 C1376 1.355 . S
C1377 C1379 1.419 . S
C1378 C1376 1.415 . S
C1378 C1383 1.425 . S
C1378 C1385 1.409 . S
C1379 H1371 0.930 . S
C1379 C1377 1.419 . S
C1379 C1380 1.362 . S
C1380 H1372 0.930 . S
C1380 C1379 1.362 . S
C1380 C1383 1.409 . S
C1381 H1373 0.930 . S
C1381 C1382 1.355 . S
C1381 C1383 1.415 . S
C1382 C1381 1.355 . S
C1382 C1384 1.419 . S
C1383 C1378 1.425 . S
C1383 C1380 1.409 . S
C1383 C1381 1.415 . S
C1384 H1374 0.930 . S
C1384 C1382 1.419 . S
C1384 C1385 1.362 . S
C1385 H1375 0.930 . S
C1385 C1378 1.409 . S
C1385 C1384 1.362 . S
H1386 C1392 0.930 . S
H1387 C1395 0.930 . S
H1388 C1396 0.930 . S
H1389 C1397 0.930 . S
H1390 C1400 0.930 . S
H1391 C1401 0.930 . S
C1392 H1386 0.930 . S
C1392 C1393 1.355 . S
C1392 C1394 1.415 . S
C1393 C1392 1.355 . S
C1393 C1395 1.419 . S
C1394 C1392 1.415 . S
C1394 C1399 1.425 1_565 S
C1394 C1401 1.409 1_565 S
C1395 H1387 0.930 . S
C1395 C1393 1.419 . S
C1395 C1396 1.362 . S
C1396 H1388 0.930 . S
C1396 C1395 1.362 . S
C1396 C1399 1.409 1_565 S
C1397 H1389 0.930 . S
C1397 C1398 1.355 . S
C1397 C1399 1.415 . S
C1398 C1397 1.355 . S
C1398 C1400 1.419 . S
C1399 C1394 1.425 1_545 S
C1399 C1396 1.409 1_545 S
C1399 C1397 1.415 . S
C1400 H1390 0.930 . S
C1400 C1398 1.419 . S
C1400 C1401 1.362 . S
C1401 H1391 0.930 . S
C1401 C1394 1.409 1_545 S
C1401 C1400 1.362 . S
H1402 C1408 0.930 . S
H1403 C1411 0.930 . S
H1404 C1412 0.931 1_655 S
H1405 C1413 0.930 . S
H1406 C1416 0.930 . S
H1407 C1417 0.930 1_455 S
C1408 H1402 0.930 . S
C1408 C1409 1.355 . S
C1408 C1410 1.415 . S
C1409 C1408 1.355 . S
C1409 C1411 1.419 . S
C1410 C1408 1.415 . S
C1410 C1415 1.425 1_455 S
C1410 C1417 1.409 1_455 S
C1411 H1403 0.930 . S
C1411 C1409 1.419 . S
C1411 C1412 1.361 . S
C1412 H1404 0.931 1_455 S
C1412 C1411 1.361 . S
C1412 C1415 1.410 1_455 S
C1413 H1405 0.930 . S
C1413 C1414 1.355 . S
C1413 C1415 1.415 . S
C1414 C1413 1.355 . S
C1414 C1416 1.419 . S
C1415 C1410 1.425 1_655 S
C1415 C1412 1.410 1_655 S
C1415 C1413 1.415 . S
C1416 H1406 0.930 . S
C1416 C1414 1.419 . S
C1416 C1417 1.362 . S
C1417 H1407 0.930 1_655 S
C1417 C1410 1.409 1_655 S
C1417 C1416 1.362 . S
H1418 C1424 0.930 . S
H1419 C1427 0.930 . S
H1420 C1428 0.930 . S
H1421 C1429 0.930 . S
H1422 C1432 0.930 . S
H1423 C1433 0.930 . S
C1424 H1418 0.930 . S
C1424 C1425 1.355 . S
C1424 C1426 1.415 . S
C1425 C1424 1.355 . S
C1425 C1427 1.419 . S
C1426 C1424 1.415 . S
C1426 C1431 1.425 . S
C1426 C1433 1.409 . S
C1427 H1419 0.930 . S
C1427 C1425 1.419 . S
C1427 C1428 1.362 . S
C1428 H1420 0.930 . S
C1428 C1427 1.362 . S
C1428 C1431 1.409 . S
C1429 H1421 0.930 . S
C1429 C1430 1.355 . S
C1429 C1431 1.415 . S
C1430 C1429 1.355 . S
C1430 C1432 1.419 . S
C1431 C1426 1.425 . S
C1431 C1428 1.409 . S
C1431 C1429 1.415 . S
C1432 H1422 0.930 . S
C1432 C1430 1.419 . S
C1432 C1433 1.362 . S
C1433 H1423 0.930 . S
C1433 C1426 1.409 . S
C1433 C1432 1.362 . S
H1434 C1440 0.930 . S
H1435 C1443 0.951 . S
H1436 C1444 0.930 . S
H1437 C1445 0.930 . S
H1438 C1448 0.930 . S
H1439 C1449 0.930 . S
C1440 H1434 0.930 . S
C1440 C1441 1.355 1_655 S
C1440 C1442 1.415 . S
C1441 C1440 1.355 1_455 S
C1441 C1443 1.416 . S
C1442 C1440 1.415 . S
C1442 C1447 1.425 . S
C1442 C1449 1.409 . S
C1443 H1435 0.951 . S
C1443 C1441 1.416 . S
C1443 C1444 1.345 1_455 S
C1444 H1436 0.930 . S
C1444 C1443 1.345 1_655 S
C1444 C1447 1.409 . S
C1445 H1437 0.930 . S
C1445 C1446 1.355 . S
C1445 C1447 1.415 . S
C1446 C1445 1.355 . S
C1446 C1448 1.419 . S
C1447 C1442 1.425 . S
C1447 C1444 1.409 . S
C1447 C1445 1.415 . S
C1448 H1438 0.930 . S
C1448 C1446 1.419 . S
C1448 C1449 1.362 . S
C1449 H1439 0.930 . S
C1449 C1442 1.409 . S
C1449 C1448 1.362 . S
H1450 C1456 0.930 . S
H1451 C1459 0.930 . S
H1452 C1460 0.930 . S
H1453 C1461 0.930 . S
H1454 C1464 0.930 . S
H1455 C1465 0.930 . S
C1456 H1450 0.930 . S
C1456 C1457 1.355 . S
C1456 C1458 1.415 . S
C1457 C1456 1.355 . S
C1457 C1459 1.419 . S
C1458 C1456 1.415 . S
C1458 C1463 1.425 . S
C1458 C1465 1.409 . S
C1459 H1451 0.930 . S
C1459 C1457 1.419 . S
C1459 C1460 1.362 . S
C1460 H1452 0.930 . S
C1460 C1459 1.362 . S
C1460 C1463 1.409 . S
C1461 H1453 0.930 . S
C1461 C1462 1.355 . S
C1461 C1463 1.415 . S
C1462 C1461 1.355 . S
C1462 C1464 1.419 . S
C1463 C1458 1.425 . S
C1463 C1460 1.409 . S
C1463 C1461 1.415 . S
C1464 H1454 0.930 . S
C1464 C1462 1.419 . S
C1464 C1465 1.362 . S
C1465 H1455 0.930 . S
C1465 C1458 1.409 . S
C1465 C1464 1.362 . S
H1466 C1472 0.930 . S
H1467 C1475 0.919 1_565 S
H1468 C1476 0.930 . S
H1469 C1477 0.930 . S
H1470 C1480 0.930 . S
H1471 C1481 0.930 . S
C1472 H1466 0.930 . S
C1472 C1473 1.355 1_545 S
C1472 C1474 1.415 . S
C1473 C1472 1.355 1_565 S
C1473 C1475 1.419 1_565 S
C1474 C1472 1.415 . S
C1474 C1479 1.425 . S
C1474 C1481 1.409 . S
C1475 H1467 0.919 1_545 S
C1475 C1473 1.419 1_545 S
C1475 C1476 1.362 . S
C1476 H1468 0.930 . S
C1476 C1475 1.362 . S
C1476 C1479 1.409 . S
C1477 H1469 0.930 . S
C1477 C1478 1.355 . S
C1477 C1479 1.415 . S
C1478 C1477 1.355 . S
C1478 C1480 1.419 . S
C1479 C1474 1.425 . S
C1479 C1476 1.409 . S
C1479 C1477 1.415 . S
C1480 H1470 0.930 . S
C1480 C1478 1.419 . S
C1480 C1481 1.362 . S
C1481 H1471 0.930 . S
C1481 C1474 1.409 . S
C1481 C1480 1.362 . S
H1482 C1488 0.930 . S
H1483 C1491 0.930 . S
H1484 C1492 0.930 . S
H1485 C1493 0.930 . S
H1486 C1496 0.930 . S
H1487 C1497 0.930 . S
C1488 H1482 0.930 . S
C1488 C1489 1.355 . S
C1488 C1490 1.415 . S
C1489 C1488 1.355 . S
C1489 C1491 1.419 . S
C1490 C1488 1.415 . S
C1490 C1495 1.425 . S
C1490 C1497 1.409 . S
C1491 H1483 0.930 . S
C1491 C1489 1.419 . S
C1491 C1492 1.362 . S
C1492 H1484 0.930 . S
C1492 C1491 1.362 . S
C1492 C1495 1.409 . S
C1493 H1485 0.930 . S
C1493 C1494 1.355 . S
C1493 C1495 1.415 . S
C1494 C1493 1.355 . S
C1494 C1496 1.419 . S
C1495 C1490 1.425 . S
C1495 C1492 1.409 . S
C1495 C1493 1.415 . S
C1496 H1486 0.930 . S
C1496 C1494 1.419 . S
C1496 C1497 1.362 . S
C1497 H1487 0.930 . S
C1497 C1490 1.409 . S
C1497 C1496 1.362 . S
H1498 C1504 0.930 . S
H1499 C1507 0.930 . S
H1500 C1508 0.930 . S
H1501 C1509 0.930 . S
H1502 C1512 0.930 . S
H1503 C1513 0.930 . S
C1504 H1498 0.930 . S
C1504 C1505 1.355 . S
C1504 C1506 1.415 . S
C1505 C1504 1.355 . S
C1505 C1507 1.419 . S
C1506 C1504 1.415 . S
C1506 C1511 1.425 . S
C1506 C1513 1.409 . S
C1507 H1499 0.930 . S
C1507 C1505 1.419 . S
C1507 C1508 1.362 . S
C1508 H1500 0.930 . S
C1508 C1507 1.362 . S
C1508 C1511 1.409 . S
C1509 H1501 0.930 . S
C1509 C1510 1.355 . S
C1509 C1511 1.415 . S
C1510 C1509 1.355 . S
C1510 C1512 1.419 . S
C1511 C1506 1.425 . S
C1511 C1508 1.409 . S
C1511 C1509 1.415 . S
C1512 H1502 0.930 . S
C1512 C1510 1.419 . S
C1512 C1513 1.362 . S
C1513 H1503 0.930 . S
C1513 C1506 1.409 . S
C1513 C1512 1.362 . S
H1514 C1520 0.930 . S
H1515 C1523 0.930 . S
H1516 C1524 0.930 . S
H1517 C1525 0.930 . S
H1518 C1528 0.930 . S
H1519 C1529 0.930 . S
C1520 H1514 0.930 . S
C1520 C1521 1.355 . S
C1520 C1522 1.415 . S
C1521 C1520 1.355 . S
C1521 C1523 1.419 . S
C1522 C1520 1.415 . S
C1522 C1527 1.425 . S
C1522 C1529 1.409 . S
C1523 H1515 0.930 . S
C1523 C1521 1.419 . S
C1523 C1524 1.362 . S
C1524 H1516 0.930 . S
C1524 C1523 1.362 . S
C1524 C1527 1.409 . S
C1525 H1517 0.930 . S
C1525 C1526 1.355 . S
C1525 C1527 1.415 . S
C1526 C1525 1.355 . S
C1526 C1528 1.419 . S
C1527 C1522 1.425 . S
C1527 C1524 1.409 . S
C1527 C1525 1.415 . S
C1528 H1518 0.930 . S
C1528 C1526 1.419 . S
C1528 C1529 1.362 . S
C1529 H1519 0.930 . S
C1529 C1522 1.409 . S
C1529 C1528 1.362 . S
H1530 C1536 0.930 . S
H1531 C1539 0.930 . S
H1532 C1540 0.930 . S
H1533 C1541 0.930 . S
H1534 C1544 0.930 . S
H1535 C1545 0.930 . S
C1536 H1530 0.930 . S
C1536 C1537 1.355 . S
C1536 C1538 1.415 . S
C1537 C1536 1.355 . S
C1537 C1539 1.419 . S
C1538 C1536 1.415 . S
C1538 C1543 1.425 . S
C1538 C1545 1.409 . S
C1539 H1531 0.930 . S
C1539 C1537 1.419 . S
C1539 C1540 1.362 . S
C1540 H1532 0.930 . S
C1540 C1539 1.362 . S
C1540 C1543 1.409 . S
C1541 H1533 0.930 . S
C1541 C1542 1.355 . S
C1541 C1543 1.415 . S
C1542 C1541 1.355 . S
C1542 C1544 1.419 . S
C1543 C1538 1.425 . S
C1543 C1540 1.409 . S
C1543 C1541 1.415 . S
C1544 H1534 0.930 . S
C1544 C1542 1.419 . S
C1544 C1545 1.362 . S
C1545 H1535 0.930 . S
C1545 C1538 1.409 . S
C1545 C1544 1.362 . S
H1546 C1552 0.930 . S
H1547 C1555 0.930 . S
H1548 C1556 0.930 . S
H1549 C1557 0.930 . S
H1550 C1560 0.930 . S
H1551 C1561 0.930 . S
C1552 H1546 0.930 . S
C1552 C1553 1.355 . S
C1552 C1554 1.415 . S
C1553 C1552 1.355 . S
C1553 C1555 1.419 . S
C1554 C1552 1.415 . S
C1554 C1559 1.425 . S
C1554 C1561 1.409 . S
C1555 H1547 0.930 . S
C1555 C1553 1.419 . S
C1555 C1556 1.362 . S
C1556 H1548 0.930 . S
C1556 C1555 1.362 . S
C1556 C1559 1.409 . S
C1557 H1549 0.930 . S
C1557 C1558 1.355 . S
C1557 C1559 1.415 . S
C1558 C1557 1.355 . S
C1558 C1560 1.419 . S
C1559 C1554 1.425 . S
C1559 C1556 1.409 . S
C1559 C1557 1.415 . S
C1560 H1550 0.930 . S
C1560 C1558 1.419 . S
C1560 C1561 1.362 . S
C1561 H1551 0.930 . S
C1561 C1554 1.409 . S
C1561 C1560 1.362 . S
H1562 C1568 0.930 . S
H1563 C1571 0.930 . S
H1564 C1572 0.930 . S
H1565 C1573 0.930 . S
H1566 C1576 0.930 . S
H1567 C1577 0.930 . S
C1568 H1562 0.930 . S
C1568 C1569 1.355 . S
C1568 C1570 1.415 . S
C1569 C1568 1.355 . S
C1569 C1571 1.419 . S
C1570 C1568 1.415 . S
C1570 C1575 1.425 . S
C1570 C1577 1.409 . S
C1571 H1563 0.930 . S
C1571 C1569 1.419 . S
C1571 C1572 1.362 . S
C1572 H1564 0.930 . S
C1572 C1571 1.362 . S
C1572 C1575 1.409 . S
C1573 H1565 0.930 . S
C1573 C1574 1.355 . S
C1573 C1575 1.415 . S
C1574 C1573 1.355 . S
C1574 C1576 1.419 . S
C1575 C1570 1.425 . S
C1575 C1572 1.409 . S
C1575 C1573 1.415 . S
C1576 H1566 0.930 . S
C1576 C1574 1.419 . S
C1576 C1577 1.362 . S
C1577 H1567 0.930 . S
C1577 C1570 1.409 . S
C1577 C1576 1.362 . S
H1578 C1584 0.930 . S
H1579 C1587 0.930 . S
H1580 C1588 0.930 . S
H1581 C1589 0.930 . S
H1582 C1592 0.930 . S
H1583 C1593 0.930 . S
C1584 H1578 0.930 . S
C1584 C1585 1.355 . S
C1584 C1586 1.415 . S
C1585 C1584 1.355 . S
C1585 C1587 1.419 . S
C1586 C1584 1.415 . S
C1586 C1591 1.425 . S
C1586 C1593 1.409 . S
C1587 H1579 0.930 . S
C1587 C1585 1.419 . S
C1587 C1588 1.362 . S
C1588 H1580 0.930 . S
C1588 C1587 1.362 . S
C1588 C1591 1.409 . S
C1589 H1581 0.930 . S
C1589 C1590 1.355 . S
C1589 C1591 1.415 . S
C1590 C1589 1.355 . S
C1590 C1592 1.419 . S
C1591 C1586 1.425 . S
C1591 C1588 1.409 . S
C1591 C1589 1.415 . S
C1592 H1582 0.930 . S
C1592 C1590 1.419 . S
C1592 C1593 1.362 . S
C1593 H1583 0.930 . S
C1593 C1586 1.409 . S
C1593 C1592 1.362 . S
H1594 C1600 0.930 . S
H1595 C1603 0.930 . S
H1596 C1604 0.930 . S
H1597 C1605 0.930 . S
H1598 C1608 0.930 . S
H1599 C1609 0.930 . S
C1600 H1594 0.930 . S
C1600 C1601 1.355 . S
C1600 C1602 1.415 . S
C1601 C1600 1.355 . S
C1601 C1603 1.419 . S
C1602 C1600 1.415 . S
C1602 C1607 1.425 . S
C1602 C1609 1.409 . S
C1603 H1595 0.930 . S
C1603 C1601 1.419 . S
C1603 C1604 1.362 . S
C1604 H1596 0.930 . S
C1604 C1603 1.362 . S
C1604 C1607 1.409 . S
C1605 H1597 0.930 . S
C1605 C1606 1.355 . S
C1605 C1607 1.415 . S
C1606 C1605 1.355 . S
C1606 C1608 1.419 . S
C1607 C1602 1.425 . S
C1607 C1604 1.409 . S
C1607 C1605 1.415 . S
C1608 H1598 0.930 . S
C1608 C1606 1.419 . S
C1608 C1609 1.362 . S
C1609 H1599 0.930 . S
C1609 C1602 1.409 . S
C1609 C1608 1.362 . S
H1610 C1616 0.930 . S
H1611 C1619 0.930 . S
H1612 C1620 0.930 . S
H1613 C1621 0.930 . S
H1614 C1624 0.930 . S
H1615 C1625 0.930 . S
C1616 H1610 0.930 . S
C1616 C1617 1.355 . S
C1616 C1618 1.415 . S
C1617 C1616 1.355 . S
C1617 C1619 1.419 . S
C1618 C1616 1.415 . S
C1618 C1623 1.425 . S
C1618 C1625 1.409 . S
C1619 H1611 0.930 . S
C1619 C1617 1.419 . S
C1619 C1620 1.362 . S
C1620 H1612 0.930 . S
C1620 C1619 1.362 . S
C1620 C1623 1.409 . S
C1621 H1613 0.930 . S
C1621 C1622 1.355 . S
C1621 C1623 1.415 . S
C1622 C1621 1.355 . S
C1622 C1624 1.419 . S
C1623 C1618 1.425 . S
C1623 C1620 1.409 . S
C1623 C1621 1.415 . S
C1624 H1614 0.930 . S
C1624 C1622 1.419 . S
C1624 C1625 1.362 . S
C1625 H1615 0.930 . S
C1625 C1618 1.409 . S
C1625 C1624 1.362 . S
H1626 C1632 0.930 . S
H1627 C1635 0.930 . S
H1628 C1636 0.930 . S
H1629 C1637 0.930 . S
H1630 C1640 0.930 . S
H1631 C1641 0.930 . S
C1632 H1626 0.930 . S
C1632 C1633 1.355 . S
C1632 C1634 1.415 . S
C1633 C1632 1.355 . S
C1633 C1635 1.419 . S
C1634 C1632 1.415 . S
C1634 C1639 1.425 . S
C1634 C1641 1.409 . S
C1635 H1627 0.930 . S
C1635 C1633 1.419 . S
C1635 C1636 1.362 . S
C1636 H1628 0.930 . S
C1636 C1635 1.362 . S
C1636 C1639 1.409 . S
C1637 H1629 0.930 . S
C1637 C1638 1.355 . S
C1637 C1639 1.415 . S
C1638 C1637 1.355 . S
C1638 C1640 1.419 . S
C1639 C1634 1.425 . S
C1639 C1636 1.409 . S
C1639 C1637 1.415 . S
C1640 H1630 0.930 . S
C1640 C1638 1.419 . S
C1640 C1641 1.362 . S
C1641 H1631 0.930 . S
C1641 C1634 1.409 . S
C1641 C1640 1.362 . S
H1642 C1648 0.930 . S
H1643 C1651 0.930 . S
H1644 C1652 0.930 . S
H1645 C1653 0.930 . S
H1646 C1656 0.930 . S
H1647 C1657 0.930 . S
C1648 H1642 0.930 . S
C1648 C1649 1.355 . S
C1648 C1650 1.415 . S
C1649 C1648 1.355 . S
C1649 C1651 1.419 . S
C1650 C1648 1.415 . S
C1650 C1655 1.425 . S
C1650 C1657 1.409 . S
C1651 H1643 0.930 . S
C1651 C1649 1.419 . S
C1651 C1652 1.362 . S
C1652 H1644 0.930 . S
C1652 C1651 1.362 . S
C1652 C1655 1.409 . S
C1653 H1645 0.930 . S
C1653 C1654 1.355 . S
C1653 C1655 1.415 . S
C1654 C1653 1.355 . S
C1654 C1656 1.419 . S
C1655 C1650 1.425 . S
C1655 C1652 1.409 . S
C1655 C1653 1.415 . S
C1656 H1646 0.930 . S
C1656 C1654 1.419 . S
C1656 C1657 1.362 . S
C1657 H1647 0.930 . S
C1657 C1650 1.409 . S
C1657 C1656 1.362 . S
H1658 C1664 0.930 . S
H1659 C1667 0.930 . S
H1660 C1668 0.930 . S
H1661 C1669 0.930 . S
H1662 C1672 0.930 . S
H1663 C1673 0.930 . S
C1664 H1658 0.930 . S
C1664 C1665 1.355 . S
C1664 C1666 1.415 . S
C1665 C1664 1.355 . S
C1665 C1667 1.419 . S
C1666 C1664 1.415 . S
C1666 C1671 1.425 . S
C1666 C1673 1.409 . S
C1667 H1659 0.930 . S
C1667 C1665 1.419 . S
C1667 C1668 1.362 . S
C1668 H1660 0.930 . S
C1668 C1667 1.362 . S
C1668 C1671 1.409 . S
C1669 H1661 0.930 . S
C1669 C1670 1.355 . S
C1669 C1671 1.415 . S
C1670 C1669 1.355 . S
C1670 C1672 1.419 . S
C1671 C1666 1.425 . S
C1671 C1668 1.409 . S
C1671 C1669 1.415 . S
C1672 H1662 0.930 . S
C1672 C1670 1.419 . S
C1672 C1673 1.362 . S
C1673 H1663 0.930 . S
C1673 C1666 1.409 . S
C1673 C1672 1.362 . S
H1674 C1680 0.930 . S
H1675 C1683 0.930 . S
H1676 C1684 0.930 . S
H1677 C1685 0.930 . S
H1678 C1688 0.930 . S
H1679 C1689 0.930 . S
C1680 H1674 0.930 . S
C1680 C1681 1.355 . S
C1680 C1682 1.415 . S
C1681 C1680 1.355 . S
C1681 C1683 1.419 . S
C1682 C1680 1.415 . S
C1682 C1687 1.425 . S
C1682 C1689 1.409 . S
C1683 H1675 0.930 . S
C1683 C1681 1.419 . S
C1683 C1684 1.362 . S
C1684 H1676 0.930 . S
C1684 C1683 1.362 . S
C1684 C1687 1.409 . S
C1685 H1677 0.930 . S
C1685 C1686 1.355 . S
C1685 C1687 1.415 . S
C1686 C1685 1.355 . S
C1686 C1688 1.419 . S
C1687 C1682 1.425 . S
C1687 C1684 1.409 . S
C1687 C1685 1.415 . S
C1688 H1678 0.930 . S
C1688 C1686 1.419 . S
C1688 C1689 1.362 . S
C1689 H1679 0.930 . S
C1689 C1682 1.409 . S
C1689 C1688 1.362 . S
H1690 C1696 0.930 . S
H1691 C1699 0.930 . S
H1692 C1700 0.930 . S
H1693 C1701 0.930 . S
H1694 C1704 0.930 . S
H1695 C1705 0.930 . S
C1696 H1690 0.930 . S
C1696 C1697 1.355 . S
C1696 C1698 1.415 . S
C1697 C1696 1.355 . S
C1697 C1699 1.419 . S
C1698 C1696 1.415 . S
C1698 C1703 1.425 . S
C1698 C1705 1.409 . S
C1699 H1691 0.930 . S
C1699 C1697 1.419 . S
C1699 C1700 1.362 . S
C1700 H1692 0.930 . S
C1700 C1699 1.362 . S
C1700 C1703 1.409 . S
C1701 H1693 0.930 . S
C1701 C1702 1.355 . S
C1701 C1703 1.415 . S
C1702 C1701 1.355 . S
C1702 C1704 1.419 . S
C1703 C1698 1.425 . S
C1703 C1700 1.409 . S
C1703 C1701 1.415 . S
C1704 H1694 0.930 . S
C1704 C1702 1.419 . S
C1704 C1705 1.362 . S
C1705 H1695 0.930 . S
C1705 C1698 1.409 . S
C1705 C1704 1.362 . S
H1706 C1712 0.930 . S
H1707 C1715 0.930 . S
H1708 C1716 0.930 . S
H1709 C1717 0.930 . S
H1710 C1720 0.930 . S
H1711 C1721 0.930 . S
C1712 H1706 0.930 . S
C1712 C1713 1.355 . S
C1712 C1714 1.415 . S
C1713 C1712 1.355 . S
C1713 C1715 1.419 . S
C1714 C1712 1.415 . S
C1714 C1719 1.425 . S
C1714 C1721 1.409 . S
C1715 H1707 0.930 . S
C1715 C1713 1.419 . S
C1715 C1716 1.362 . S
C1716 H1708 0.930 . S
C1716 C1715 1.362 . S
C1716 C1719 1.409 . S
C1717 H1709 0.930 . S
C1717 C1718 1.355 . S
C1717 C1719 1.415 . S
C1718 C1717 1.355 . S
C1718 C1720 1.419 . S
C1719 C1714 1.425 . S
C1719 C1716 1.409 . S
C1719 C1717 1.415 . S
C1720 H1710 0.930 . S
C1720 C1718 1.419 . S
C1720 C1721 1.362 . S
C1721 H1711 0.930 . S
C1721 C1714 1.409 . S
C1721 C1720 1.362 . S
H1722 C1728 0.930 . S
H1723 C1731 0.930 . S
H1724 C1732 0.930 . S
H1725 C1733 0.930 . S
H1726 C1736 0.930 . S
H1727 C1737 0.930 . S
C1728 H1722 0.930 . S
C1728 C1729 1.355 . S
C1728 C1730 1.415 . S
C1729 C1728 1.355 . S
C1729 C1731 1.419 . S
C1730 C1728 1.415 . S
C1730 C1735 1.425 . S
C1730 C1737 1.409 . S
C1731 H1723 0.930 . S
C1731 C1729 1.419 . S
C1731 C1732 1.362 . S
C1732 H1724 0.930 . S
C1732 C1731 1.362 . S
C1732 C1735 1.409 . S
C1733 H1725 0.930 . S
C1733 C1734 1.355 . S
C1733 C1735 1.415 . S
C1734 C1733 1.355 . S
C1734 C1736 1.419 . S
C1735 C1730 1.425 . S
C1735 C1732 1.409 . S
C1735 C1733 1.415 . S
C1736 H1726 0.930 . S
C1736 C1734 1.419 . S
C1736 C1737 1.362 . S
C1737 H1727 0.930 . S
C1737 C1730 1.409 . S
C1737 C1736 1.362 . S
H1738 C1744 0.930 . S
H1739 C1747 0.930 . S
H1740 C1748 0.930 . S
H1741 C1749 0.930 . S
H1742 C1752 0.930 . S
H1743 C1753 0.930 . S
C1744 H1738 0.930 . S
C1744 C1745 1.355 . S
C1744 C1746 1.415 . S
C1745 C1744 1.355 . S
C1745 C1747 1.419 . S
C1746 C1744 1.415 . S
C1746 C1751 1.425 . S
C1746 C1753 1.409 . S
C1747 H1739 0.930 . S
C1747 C1745 1.419 . S
C1747 C1748 1.362 . S
C1748 H1740 0.930 . S
C1748 C1747 1.362 . S
C1748 C1751 1.409 . S
C1749 H1741 0.930 . S
C1749 C1750 1.355 . S
C1749 C1751 1.415 . S
C1750 C1749 1.355 . S
C1750 C1752 1.419 . S
C1751 C1746 1.425 . S
C1751 C1748 1.409 . S
C1751 C1749 1.415 . S
C1752 H1742 0.930 . S
C1752 C1750 1.419 . S
C1752 C1753 1.362 . S
C1753 H1743 0.930 . S
C1753 C1746 1.409 . S
C1753 C1752 1.362 . S
H1754 C1760 0.930 . S
H1755 C1763 0.930 . S
H1756 C1764 0.930 . S
H1757 C1765 0.930 . S
H1758 C1768 0.930 . S
H1759 C1769 0.930 . S
C1760 H1754 0.930 . S
C1760 C1761 1.355 . S
C1760 C1762 1.415 . S
C1761 C1760 1.355 . S
C1761 C1763 1.419 . S
C1762 C1760 1.415 . S
C1762 C1767 1.425 . S
C1762 C1769 1.409 . S
C1763 H1755 0.930 . S
C1763 C1761 1.419 . S
C1763 C1764 1.362 . S
C1764 H1756 0.930 . S
C1764 C1763 1.362 . S
C1764 C1767 1.409 . S
C1765 H1757 0.930 . S
C1765 C1766 1.355 . S
C1765 C1767 1.415 . S
C1766 C1765 1.355 . S
C1766 C1768 1.419 . S
C1767 C1762 1.425 . S
C1767 C1764 1.409 . S
C1767 C1765 1.415 . S
C1768 H1758 0.930 . S
C1768 C1766 1.419 . S
C1768 C1769 1.362 . S
C1769 H1759 0.930 . S
C1769 C1762 1.409 . S
C1769 C1768 1.362 . S
H1770 C1776 0.930 . S
H1771 C1779 0.930 . S
H1772 C1780 0.930 . S
H1773 C1781 0.930 . S
H1774 C1784 0.930 . S
H1775 C1785 0.930 . S
C1776 H1770 0.930 . S
C1776 C1777 1.355 . S
C1776 C1778 1.415 . S
C1777 C1776 1.355 . S
C1777 C1779 1.419 . S
C1778 C1776 1.415 . S
C1778 C1783 1.425 . S
C1778 C1785 1.409 . S
C1779 H1771 0.930 . S
C1779 C1777 1.419 . S
C1779 C1780 1.362 . S
C1780 H1772 0.930 . S
C1780 C1779 1.362 . S
C1780 C1783 1.409 . S
C1781 H1773 0.930 . S
C1781 C1782 1.355 . S
C1781 C1783 1.415 . S
C1782 C1781 1.355 . S
C1782 C1784 1.419 . S
C1783 C1778 1.425 . S
C1783 C1780 1.409 . S
C1783 C1781 1.415 . S
C1784 H1774 0.930 . S
C1784 C1782 1.419 . S
C1784 C1785 1.362 . S
C1785 H1775 0.930 . S
C1785 C1778 1.409 . S
C1785 C1784 1.362 . S
H1786 C1792 0.930 . S
H1787 C1795 0.930 . S
H1788 C1796 0.930 . S
H1789 C1797 0.930 . S
H1790 C1800 0.930 . S
H1791 C1801 0.930 . S
C1792 H1786 0.930 . S
C1792 C1793 1.355 . S
C1792 C1794 1.415 . S
C1793 C1792 1.355 . S
C1793 C1795 1.419 . S
C1794 C1792 1.415 . S
C1794 C1799 1.425 . S
C1794 C1801 1.409 . S
C1795 H1787 0.930 . S
C1795 C1793 1.419 . S
C1795 C1796 1.362 . S
C1796 H1788 0.930 . S
C1796 C1795 1.362 . S
C1796 C1799 1.409 . S
C1797 H1789 0.930 . S
C1797 C1798 1.355 . S
C1797 C1799 1.415 . S
C1798 C1797 1.355 . S
C1798 C1800 1.419 . S
C1799 C1794 1.425 . S
C1799 C1796 1.409 . S
C1799 C1797 1.415 . S
C1800 H1790 0.930 . S
C1800 C1798 1.419 . S
C1800 C1801 1.362 . S
C1801 H1791 0.930 . S
C1801 C1794 1.409 . S
C1801 C1800 1.362 . S
H1802 C1808 0.930 . S
H1803 C1811 0.930 . S
H1804 C1812 0.930 . S
H1805 C1813 0.930 . S
H1806 C1816 0.930 . S
H1807 C1817 0.930 . S
C1808 H1802 0.930 . S
C1808 C1809 1.355 . S
C1808 C1810 1.415 . S
C1809 C1808 1.355 . S
C1809 C1811 1.419 . S
C1810 C1808 1.415 . S
C1810 C1815 1.425 . S
C1810 C1817 1.409 . S
C1811 H1803 0.930 . S
C1811 C1809 1.419 . S
C1811 C1812 1.362 . S
C1812 H1804 0.930 . S
C1812 C1811 1.362 . S
C1812 C1815 1.409 . S
C1813 H1805 0.930 . S
C1813 C1814 1.355 . S
C1813 C1815 1.415 . S
C1814 C1813 1.355 . S
C1814 C1816 1.419 . S
C1815 C1810 1.425 . S
C1815 C1812 1.409 . S
C1815 C1813 1.415 . S
C1816 H1806 0.930 . S
C1816 C1814 1.419 . S
C1816 C1817 1.362 . S
C1817 H1807 0.930 . S
C1817 C1810 1.409 . S
C1817 C1816 1.362 . S
C961 C147 1.446 . S
C966 C265 1.416 . S
C977 C158 1.477 . S
C982 C349 1.414 . S
C993 C136 1.463 . S
C998 C429 1.437 . S
C1009 C125 1.424 . S
C1014 C345 1.445 . S
C1030 C433 1.420 . S
C1025 C103 1.438 . S
C1041 C114 1.428 . S
C1046 C261 1.433 . S
C1062 C254 1.435 . S
C1057 C131 1.490 . S
C1078 C338 1.429 . S
C1073 C109 1.535 . S
C1089 C120 1.537 . S
C1094 C440 1.490 . S
C1105 C153 1.488 . S
C1110 C356 1.418 . S
C1121 C164 1.481 . S
C1126 C422 1.439 . S
C1142 C272 1.399 . S
C1137 C142 1.452 . S
C1158 C517 1.385 . S
C1153 C15 1.455 . S
C1169 C26 1.492 . S
C1174 C601 1.418 . S
C1185 C4 1.437 . S
C1190 C681 1.448 . S
C1201 C191 1.427 . S
C1206 C597 1.448 . S
C1217 C169 1.444 . S
C1222 C685 1.354 . S
C1233 C180 1.409 . S
C1238 C513 1.393 . S
C1249 C197 1.510 . S
C1254 C506 1.460 . S
C1265 C175 1.507 . S
C1270 C590 1.483 . S
C1286 C692 1.457 . S
C1281 C186 1.494 . S
C1297 C21 1.474 . S
C1302 C608 1.417 . S
C1318 C674 1.395 . S
C1313 C32 1.476 1_455 S
C1329 C10 1.451 . S
C1334 C524 1.424 . S
C1350 C769 1.406 . S
C1345 C81 1.449 . S
C1361 C92 1.475 . S
C1366 C853 1.462 . S
C1382 C933 1.446 . S
C1377 C70 1.466 . S
C1398 C849 1.432 . S
C1393 C59 1.422 . S
C1414 C937 1.422 . S
C1409 C37 1.437 . S
C1425 C48 1.401 . S
C1430 C765 1.405 . S
C1441 C65 1.522 . S
C1446 C758 1.410 . S
C1457 C43 1.535 . S
C1462 C842 1.469 . S
C1478 C944 1.443 . S
C1473 C54 1.511 . S
C1489 C87 1.479 . S
C1494 C860 1.415 . S
C1505 C98 1.460 . S
C1510 C926 1.458 . S
C1521 C76 1.495 . S
C1526 C776 1.451 . S
C1537 C170 1.540 . S
C1542 C268 1.426 . S
C1558 C352 1.453 . S
C1553 C181 1.627 . S
C1569 C192 1.556 . S
C1574 C424 1.314 . S
C1585 C71 1.571 . S
C1590 C340 1.317 . S
C1601 C82 1.573 . S
C1606 C436 1.487 . S
C1622 C256 1.410 . S
C1617 C93 1.541 . S
C1633 C38 1.574 . S
C1638 C520 1.400 . S
C1649 C49 1.623 . S
C1654 C604 1.426 . S
C1665 C60 1.576 . S
C1670 C676 1.426 . S
C1681 C137 1.573 . S
C1686 C592 1.318 . S
C1702 C688 1.431 . S
C1697 C148 1.553 . S
C1713 C159 1.531 . S
C1718 C508 1.422 . S
C1729 C104 1.553 . S
C1734 C772 1.397 . S
C1745 C115 1.609 . S
C1750 C856 1.518 . S
C1766 C928 1.388 . S
C1761 C126 1.579 . S
C1777 C5 1.562 . S
C1782 C844 1.324 . S
C1793 C16 1.556 . S
C1798 C940 1.416 . S
C1809 C27 1.532 . S
C1814 C760 1.306 . S
