# Generated by pormake.
# Topology eea, (3,6)-cn, num edge types: 1
# Building blocks:
#     Node 0, Type 0, BuildingBlock: PAMTOO_clean_linker_0, # of connection points: 3
#     Node 1, Type 0, BuildingBlock: PAMTOO_clean_linker_0, # of connection points: 3
#     Node 2, Type 0, BuildingBlock: PAMTOO_clean_linker_0, # of connection points: 3
#     Node 3, Type 0, BuildingBlock: PAMTOO_clean_linker_0, # of connection points: 3
#     Node 4, Type 0, BuildingBlock: PAMTOO_clean_linker_0, # of connection points: 3
#     Node 5, Type 0, BuildingBlock: PAMTOO_clean_linker_0, # of connection points: 3
#     Node 6, Type 0, BuildingBlock: PAMTOO_clean_linker_0, # of connection points: 3
#     Node 7, Type 0, BuildingBlock: PAMTOO_clean_linker_0, # of connection points: 3
#     Node 8, Type 0, BuildingBlock: PAMTOO_clean_linker_0, # of connection points: 3
#     Node 9, Type 0, BuildingBlock: PAMTOO_clean_linker_0, # of connection points: 3
#     Node 10, Type 0, BuildingBlock: PAMTOO_clean_linker_0, # of connection points: 3
#     Node 11, Type 0, BuildingBlock: PAMTOO_clean_linker_0, # of connection points: 3
#     Node 12, Type 0, BuildingBlock: PAMTOO_clean_linker_0, # of connection points: 3
#     Node 13, Type 0, BuildingBlock: PAMTOO_clean_linker_0, # of connection points: 3
#     Node 14, Type 0, BuildingBlock: PAMTOO_clean_linker_0, # of connection points: 3
#     Node 15, Type 0, BuildingBlock: PAMTOO_clean_linker_0, # of connection points: 3
#     Node 16, Type 0, BuildingBlock: PAMTOO_clean_linker_0, # of connection points: 3
#     Node 17, Type 0, BuildingBlock: PAMTOO_clean_linker_0, # of connection points: 3
#     Node 18, Type 1, BuildingBlock: NUHQIS_clean_sbu_0, # of connection points: 6
#     Node 19, Type 1, BuildingBlock: NUHQIS_clean_sbu_0, # of connection points: 6
#     Node 20, Type 1, BuildingBlock: NUHQIS_clean_sbu_0, # of connection points: 6
#     Node 21, Type 1, BuildingBlock: NUHQIS_clean_sbu_0, # of connection points: 6
#     Node 22, Type 1, BuildingBlock: NUHQIS_clean_sbu_0, # of connection points: 6
#     Node 23, Type 1, BuildingBlock: NUHQIS_clean_sbu_0, # of connection points: 6
#     Node 24, Type 1, BuildingBlock: NUHQIS_clean_sbu_0, # of connection points: 6
#     Node 25, Type 1, BuildingBlock: NUHQIS_clean_sbu_0, # of connection points: 6
#     Node 26, Type 1, BuildingBlock: NUHQIS_clean_sbu_0, # of connection points: 6
#     Edge 27, Type (0, 1), BuildingBlock: EZIPEK_clean_linker_0, # of connection points: 2
#     Edge 28, Type (0, 1), BuildingBlock: EZIPEK_clean_linker_0, # of connection points: 2
#     Edge 29, Type (0, 1), BuildingBlock: EZIPEK_clean_linker_0, # of connection points: 2
#     Edge 30, Type (0, 1), BuildingBlock: EZIPEK_clean_linker_0, # of connection points: 2
#     Edge 31, Type (0, 1), BuildingBlock: EZIPEK_clean_linker_0, # of connection points: 2
#     Edge 32, Type (0, 1), BuildingBlock: EZIPEK_clean_linker_0, # of connection points: 2
#     Edge 33, Type (0, 1), BuildingBlock: EZIPEK_clean_linker_0, # of connection points: 2
#     Edge 34, Type (0, 1), BuildingBlock: EZIPEK_clean_linker_0, # of connection points: 2
#     Edge 35, Type (0, 1), BuildingBlock: EZIPEK_clean_linker_0, # of connection points: 2
#     Edge 36, Type (0, 1), BuildingBlock: EZIPEK_clean_linker_0, # of connection points: 2
#     Edge 37, Type (0, 1), BuildingBlock: EZIPEK_clean_linker_0, # of connection points: 2
#     Edge 38, Type (0, 1), BuildingBlock: EZIPEK_clean_linker_0, # of connection points: 2
#     Edge 39, Type (0, 1), BuildingBlock: EZIPEK_clean_linker_0, # of connection points: 2
#     Edge 40, Type (0, 1), BuildingBlock: EZIPEK_clean_linker_0, # of connection points: 2
#     Edge 41, Type (0, 1), BuildingBlock: EZIPEK_clean_linker_0, # of connection points: 2
#     Edge 42, Type (0, 1), BuildingBlock: EZIPEK_clean_linker_0, # of connection points: 2
#     Edge 43, Type (0, 1), BuildingBlock: EZIPEK_clean_linker_0, # of connection points: 2
#     Edge 44, Type (0, 1), BuildingBlock: EZIPEK_clean_linker_0, # of connection points: 2
#     Edge 45, Type (0, 1), BuildingBlock: EZIPEK_clean_linker_0, # of connection points: 2
#     Edge 46, Type (0, 1), BuildingBlock: EZIPEK_clean_linker_0, # of connection points: 2
#     Edge 47, Type (0, 1), BuildingBlock: EZIPEK_clean_linker_0, # of connection points: 2
#     Edge 48, Type (0, 1), BuildingBlock: EZIPEK_clean_linker_0, # of connection points: 2
#     Edge 49, Type (0, 1), BuildingBlock: EZIPEK_clean_linker_0, # of connection points: 2
#     Edge 50, Type (0, 1), BuildingBlock: EZIPEK_clean_linker_0, # of connection points: 2
#     Edge 51, Type (0, 1), BuildingBlock: EZIPEK_clean_linker_0, # of connection points: 2
#     Edge 52, Type (0, 1), BuildingBlock: EZIPEK_clean_linker_0, # of connection points: 2
#     Edge 53, Type (0, 1), BuildingBlock: EZIPEK_clean_linker_0, # of connection points: 2
#     Edge 54, Type (0, 1), BuildingBlock: EZIPEK_clean_linker_0, # of connection points: 2
#     Edge 55, Type (0, 1), BuildingBlock: EZIPEK_clean_linker_0, # of connection points: 2
#     Edge 56, Type (0, 1), BuildingBlock: EZIPEK_clean_linker_0, # of connection points: 2
#     Edge 57, Type (0, 1), BuildingBlock: EZIPEK_clean_linker_0, # of connection points: 2
#     Edge 58, Type (0, 1), BuildingBlock: EZIPEK_clean_linker_0, # of connection points: 2
#     Edge 59, Type (0, 1), BuildingBlock: EZIPEK_clean_linker_0, # of connection points: 2
#     Edge 60, Type (0, 1), BuildingBlock: EZIPEK_clean_linker_0, # of connection points: 2
#     Edge 61, Type (0, 1), BuildingBlock: EZIPEK_clean_linker_0, # of connection points: 2
#     Edge 62, Type (0, 1), BuildingBlock: EZIPEK_clean_linker_0, # of connection points: 2
#     Edge 63, Type (0, 1), BuildingBlock: EZIPEK_clean_linker_0, # of connection points: 2
#     Edge 64, Type (0, 1), BuildingBlock: EZIPEK_clean_linker_0, # of connection points: 2
#     Edge 65, Type (0, 1), BuildingBlock: EZIPEK_clean_linker_0, # of connection points: 2
#     Edge 66, Type (0, 1), BuildingBlock: EZIPEK_clean_linker_0, # of connection points: 2
#     Edge 67, Type (0, 1), BuildingBlock: EZIPEK_clean_linker_0, # of connection points: 2
#     Edge 68, Type (0, 1), BuildingBlock: EZIPEK_clean_linker_0, # of connection points: 2
#     Edge 69, Type (0, 1), BuildingBlock: EZIPEK_clean_linker_0, # of connection points: 2
#     Edge 70, Type (0, 1), BuildingBlock: EZIPEK_clean_linker_0, # of connection points: 2
#     Edge 71, Type (0, 1), BuildingBlock: EZIPEK_clean_linker_0, # of connection points: 2
#     Edge 72, Type (0, 1), BuildingBlock: EZIPEK_clean_linker_0, # of connection points: 2
#     Edge 73, Type (0, 1), BuildingBlock: EZIPEK_clean_linker_0, # of connection points: 2
#     Edge 74, Type (0, 1), BuildingBlock: EZIPEK_clean_linker_0, # of connection points: 2
#     Edge 75, Type (0, 1), BuildingBlock: EZIPEK_clean_linker_0, # of connection points: 2
#     Edge 76, Type (0, 1), BuildingBlock: EZIPEK_clean_linker_0, # of connection points: 2
#     Edge 77, Type (0, 1), BuildingBlock: EZIPEK_clean_linker_0, # of connection points: 2
#     Edge 78, Type (0, 1), BuildingBlock: EZIPEK_clean_linker_0, # of connection points: 2
#     Edge 79, Type (0, 1), BuildingBlock: EZIPEK_clean_linker_0, # of connection points: 2
#     Edge 80, Type (0, 1), BuildingBlock: EZIPEK_clean_linker_0, # of connection points: 2
# Relax obj value: 0.059
# Max RMSD: 0.227
# Mean RMSD: 0.162
data_MOF--net-eea--node1-NUHQIS_clean_sbu_0--node2-PAMTOO_clean_linker_0--edge1-EZIPEK_clean_linker_0
_symmetry_space_group_name_H-M    P1
_symmetry_Int_Tables_number       1
_symmetry_cell_setting            triclinic
loop_
_symmetry_equiv_pos_as_xyz
'x, y, z'
_cell_length_a     39.203909
_cell_length_b     39.89548
_cell_length_c     54.724513
_cell_angle_alpha  92.97123
_cell_angle_beta   92.85779
_cell_angle_gamma 119.93134
loop_
_atom_site_label
_atom_site_type_symbol
_atom_site_fract_x
_atom_site_fract_y
_atom_site_fract_z
_atom_type_partial_charge
H0 H 0.27298 0.06601 0.43245 0.0
H1 H 0.26701 0.17075 0.43989 0.0
H2 H 0.22667 0.09958 0.37134 0.0
H3 H 0.28181 0.1956 0.37465 0.0
C4 C 0.26325 0.19868 0.38819 0.0
O5 O 0.23584 0.16282 0.39499 0.0
H6 H 0.28453 0.21645 0.40419 0.0
C7 C 0.26593 0.08642 0.42453 0.0
C8 C 0.24924 0.07901 0.40023 0.0
C9 C 0.27264 0.11963 0.43884 0.0
C10 C 0.26233 0.14528 0.4288 0.0
C11 C 0.24639 0.13838 0.40437 0.0
C12 C 0.23996 0.10533 0.39004 0.0
H13 H 0.99023 0.22037 0.43477 0.0
H14 H 0.88933 0.10998 0.44544 0.0
H15 H 0.94109 0.12755 0.37655 0.0
H16 H 0.84159 0.08611 0.38488 0.0
C17 C 0.84493 0.06635 0.397 0.0
O18 O 0.8844 0.07774 0.4016 0.0
H19 H 0.83292 0.06998 0.41429 0.0
C20 C 0.96858 0.19083 0.42787 0.0
C21 C 0.9698 0.17654 0.40408 0.0
C22 C 0.93906 0.16707 0.44264 0.0
C23 C 0.91178 0.12861 0.43392 0.0
C24 C 0.91189 0.11456 0.40998 0.0
C25 C 0.94073 0.13862 0.39498 0.0
H26 H 0.82441 0.75522 0.43913 0.0
H27 H 0.93884 0.76458 0.44293 0.0
H28 H 0.90379 0.81046 0.38357 0.0
H29 H 0.94732 0.76778 0.36987 0.0
C30 C 0.96746 0.77686 0.38695 0.0
O31 O 0.96056 0.80048 0.40284 0.0
H32 H 0.95941 0.74906 0.39497 0.0
C33 C 0.85241 0.76432 0.43148 0.0
C34 C 0.86039 0.78331 0.40975 0.0
C35 C 0.88062 0.75769 0.44368 0.0
C36 C 0.91688 0.76956 0.4337 0.0
C37 C 0.92511 0.78826 0.41194 0.0
C38 C 0.89702 0.7954 0.40014 0.0
H39 H 0.06856 0.25934 0.58366 0.0
H40 H 0.16969 0.24516 0.57667 0.0
H41 H 0.10179 0.2052 0.63889 0.0
H42 H 0.19707 0.25456 0.64524 0.0
C43 C 0.2 0.23719 0.62984 0.0
O44 O 0.16342 0.21193 0.61761 0.0
H45 H 0.21888 0.25922 0.61752 0.0
C46 C 0.0881 0.24949 0.59069 0.0
C47 C 0.08098 0.2312 0.61267 0.0
C48 C 0.12016 0.25475 0.57762 0.0
C49 C 0.14501 0.24141 0.58667 0.0
C50 C 0.13888 0.2242 0.60894 0.0
C51 C 0.10687 0.21912 0.6219 0.0
H52 H 0.74003 0.79148 0.59464 0.0
H53 H 0.74689 0.90223 0.59254 0.0
H54 H 0.80515 0.88111 0.65243 0.0
H55 H 0.76174 0.93064 0.66204 0.0
C56 C 0.77146 0.94597 0.64519 0.0
O57 O 0.79249 0.93268 0.63242 0.0
H58 H 0.74341 0.93824 0.63429 0.0
C59 C 0.7468 0.81926 0.60321 0.0
C60 C 0.77199 0.83275 0.62501 0.0
C61 C 0.73238 0.84189 0.59259 0.0
C62 C 0.75112 0.88134 0.60195 0.0
C63 C 0.77634 0.89513 0.62361 0.0
C64 C 0.78566 0.87041 0.63563 0.0
H65 H 0.20874 0.94618 0.58501 0.0
H66 H 0.09268 0.84466 0.5751 0.0
H67 H 0.13026 0.91872 0.64249 0.0
H68 H 0.08826 0.82806 0.64411 0.0
C69 C 0.06475 0.82177 0.62943 0.0
O70 O 0.07255 0.85517 0.61872 0.0
H71 H 0.06629 0.80098 0.61581 0.0
C72 C 0.18065 0.92709 0.59204 0.0
C73 C 0.17287 0.93627 0.61537 0.0
C74 C 0.15188 0.89416 0.57739 0.0
C75 C 0.11522 0.87003 0.58637 0.0
C76 C 0.10776 0.87848 0.61005 0.0
C77 C 0.13649 0.91173 0.62447 0.0
H78 H 0.93539 0.39322 0.75942 0.0
H79 H 0.92533 0.49556 0.76693 0.0
H80 H 0.90005 0.43246 0.69614 0.0
H81 H 0.94471 0.52435 0.69971 0.0
C82 C 0.9273 0.52694 0.7143 0.0
O83 O 0.90029 0.49072 0.72083 0.0
H84 H 0.94981 0.54402 0.7299 0.0
C85 C 0.92861 0.41364 0.75124 0.0
C86 C 0.91659 0.40843 0.72602 0.0
C87 C 0.93286 0.44559 0.76587 0.0
C88 C 0.92296 0.47134 0.75555 0.0
C89 C 0.91112 0.46658 0.73045 0.0
C90 C 0.90902 0.43583 0.71558 0.0
H91 H 0.64932 0.54997 0.76735 0.0
H92 H 0.55005 0.43726 0.7756 0.0
H93 H 0.60841 0.45783 0.70912 0.0
H94 H 0.51365 0.41192 0.70726 0.0
C95 C 0.51271 0.39538 0.72316 0.0
O96 O 0.55052 0.40635 0.73252 0.0
H97 H 0.49752 0.40375 0.73676 0.0
C98 C 0.62929 0.52013 0.76017 0.0
C99 C 0.63315 0.5067 0.73675 0.0
C100 C 0.59904 0.49517 0.7741 0.0
C101 C 0.57342 0.4566 0.76488 0.0
C102 C 0.57646 0.44328 0.74143 0.0
C103 C 0.60611 0.46834 0.72728 0.0
H104 H 0.49484 0.09139 0.77393 0.0
H105 H 0.59914 0.08106 0.77558 0.0
H106 H 0.57086 0.12984 0.71495 0.0
H107 H 0.66813 0.13651 0.76055 0.0
C108 C 0.65947 0.14181 0.74212 0.0
O109 O 0.62203 0.11187 0.73391 0.0
H110 H 0.65945 0.16951 0.74537 0.0
C111 C 0.52125 0.09584 0.76574 0.0
C112 C 0.52967 0.11164 0.74298 0.0
C113 C 0.54619 0.08477 0.77765 0.0
C114 C 0.57992 0.08985 0.76665 0.0
C115 C 0.5893 0.10683 0.74431 0.0
C116 C 0.56407 0.11757 0.73247 0.0
H117 H 0.73647 0.6001 0.91644 0.0
H118 H 0.8359 0.58318 0.90982 0.0
H119 H 0.76738 0.54445 0.97186 0.0
H120 H 0.86496 0.593 0.9774 0.0
C121 C 0.86613 0.57472 0.96184 0.0
O122 O 0.82861 0.54989 0.9507 0.0
H123 H 0.88439 0.59598 0.94893 0.0
C124 C 0.75558 0.58989 0.92366 0.0
C125 C 0.74783 0.57152 0.94566 0.0
C126 C 0.78743 0.59428 0.91068 0.0
C127 C 0.81148 0.58017 0.91981 0.0
C128 C 0.80485 0.56302 0.94208 0.0
C129 C 0.77304 0.55867 0.95498 0.0
H130 H 0.41105 0.12111 0.93317 0.0
H131 H 0.44143 0.23758 0.92264 0.0
H132 H 0.46993 0.21273 0.99263 0.0
H133 H 0.43202 0.26497 0.99129 0.0
C134 C 0.44669 0.27932 0.97496 0.0
O135 O 0.47116 0.26579 0.96757 0.0
H136 H 0.42171 0.27048 0.96076 0.0
C137 C 0.42271 0.15048 0.94125 0.0
C138 C 0.4366 0.16098 0.96649 0.0
C139 C 0.42387 0.17778 0.92569 0.0
C140 C 0.44093 0.21659 0.9346 0.0
C141 C 0.45632 0.2283 0.95897 0.0
C142 C 0.45526 0.20111 0.97458 0.0
H143 H 0.86808 0.27718 0.914 0.0
H144 H 0.75195 0.17572 0.90412 0.0
H145 H 0.78899 0.25089 0.97103 0.0
H146 H 0.74832 0.16082 0.97296 0.0
C147 C 0.72399 0.15418 0.9588 0.0
O148 O 0.73147 0.18703 0.94749 0.0
H149 H 0.72418 0.13247 0.9453 0.0
C150 C 0.83982 0.25834 0.92093 0.0
C151 C 0.83182 0.2679 0.94408 0.0
C152 C 0.8112 0.22519 0.90639 0.0
C153 C 0.77437 0.20131 0.91528 0.0
C154 C 0.76667 0.21022 0.93879 0.0
C155 C 0.79532 0.24364 0.9531 0.0
H156 H 0.59746 0.72647 0.10091 0.0
H157 H 0.59149 0.83138 0.10681 0.0
H158 H 0.55407 0.75999 0.0384 0.0
H159 H 0.60119 0.8482 0.03567 0.0
C160 C 0.58824 0.85587 0.05106 0.0
O161 O 0.56162 0.82291 0.06136 0.0
H162 H 0.61411 0.8746 0.06445 0.0
C163 C 0.59045 0.74669 0.09267 0.0
C164 C 0.57476 0.73916 0.06812 0.0
C165 C 0.59702 0.78015 0.10664 0.0
C166 C 0.5871 0.80579 0.09601 0.0
C167 C 0.57202 0.79871 0.07135 0.0
C168 C 0.56627 0.76565 0.05735 0.0
H169 H 0.30772 0.88019 0.10031 0.0
H170 H 0.20793 0.76653 0.10579 0.0
H171 H 0.27217 0.78981 0.04159 0.0
H172 H 0.17667 0.7431 0.03665 0.0
C173 C 0.17466 0.72587 0.05236 0.0
O174 O 0.21196 0.73716 0.06293 0.0
H175 H 0.15801 0.73315 0.06545 0.0
C176 C 0.28808 0.85058 0.09257 0.0
C177 C 0.29396 0.83795 0.06953 0.0
C178 C 0.25695 0.82485 0.10567 0.0
C179 C 0.23198 0.78648 0.09573 0.0
C180 C 0.23697 0.77402 0.07251 0.0
C181 C 0.26797 0.79973 0.0594 0.0
H182 H 0.15715 0.42609 0.10375 0.0
H183 H 0.27268 0.43855 0.1137 0.0
H184 H 0.23829 0.47256 0.04788 0.0
H185 H 0.28102 0.41908 0.04819 0.0
C186 C 0.30495 0.44058 0.06181 0.0
O187 O 0.29529 0.46719 0.07146 0.0
H188 H 0.30616 0.42282 0.07647 0.0
C189 C 0.18564 0.43448 0.09702 0.0
C190 C 0.19444 0.45013 0.07423 0.0
C191 C 0.21369 0.4301 0.1113 0.0
C192 C 0.2508 0.44164 0.10271 0.0
C193 C 0.25947 0.4563 0.07966 0.0
C194 C 0.23127 0.46055 0.06546 0.0
H195 H 0.39782 0.93222 0.25333 0.0
H196 H 0.49777 0.91878 0.24046 0.0
H197 H 0.43667 0.87794 0.30527 0.0
H198 H 0.5409 0.93675 0.29807 0.0
C199 C 0.53597 0.91023 0.28719 0.0
O200 O 0.49603 0.88522 0.28089 0.0
H201 H 0.55094 0.92119 0.27025 0.0
C202 C 0.41828 0.92279 0.25923 0.0
C203 C 0.41323 0.90415 0.28095 0.0
C204 C 0.44877 0.92829 0.24466 0.0
C205 C 0.47451 0.91506 0.25185 0.0
C206 C 0.47096 0.89792 0.27408 0.0
C207 C 0.44027 0.89245 0.28859 0.0
H208 H 0.09032 0.46698 0.25574 0.0
H209 H 0.11144 0.58268 0.25038 0.0
H210 H 0.14821 0.55342 0.3173 0.0
H211 H 0.09279 0.59981 0.31165 0.0
C212 C 0.11514 0.61983 0.29998 0.0
O213 O 0.14197 0.6078 0.29572 0.0
H214 H 0.098 0.61729 0.28247 0.0
C215 C 0.10152 0.49625 0.26404 0.0
C216 C 0.12059 0.50714 0.28792 0.0
C217 C 0.09829 0.5235 0.25051 0.0
C218 C 0.11375 0.56153 0.26092 0.0
C219 C 0.13012 0.57183 0.28531 0.0
C220 C 0.13396 0.54481 0.29877 0.0
H221 H 0.54583 0.61442 0.24997 0.0
H222 H 0.42898 0.51439 0.24039 0.0
H223 H 0.46635 0.59074 0.30674 0.0
H224 H 0.42117 0.48814 0.29964 0.0
C225 C 0.39628 0.48944 0.29011 0.0
O226 O 0.40851 0.52657 0.28361 0.0
H227 H 0.38804 0.46951 0.27314 0.0
C228 C 0.51752 0.59617 0.25703 0.0
C229 C 0.50958 0.60695 0.27998 0.0
C230 C 0.48857 0.56303 0.24263 0.0
C231 C 0.45164 0.53984 0.25153 0.0
C232 C 0.44411 0.54911 0.27502 0.0
C233 C 0.47292 0.58282 0.28908 0.0
Tb234 Tb 0.49016 0.98695 0.98387 0.0
Eu235 Eu 0.51773 0.02602 0.04158 0.0
C236 C 0.52919 0.95677 0.02083 0.0
C237 C 0.43375 0.94893 0.02626 0.0
C238 C 0.48504 0.98209 0.91555 0.0
C239 C 0.5074 0.98275 0.87477 0.0
C240 C 0.49681 0.96556 0.89689 0.0
C241 C 0.48434 0.01638 0.91177 0.0
C242 C 0.49464 0.0334 0.88956 0.0
C243 C 0.50618 0.01666 0.87087 0.0
C244 C 0.474 0.96332 0.93876 0.0
O245 O 0.4887 0.04085 0.9857 0.0
O246 O 0.47477 0.04252 0.0257 0.0
O247 O 0.56083 0.07076 0.01849 0.0
O248 O 0.5537 0.02719 0.98674 0.0
C249 C 0.4747 0.05267 1.00333 0.0
O250 O 0.51372 0.05843 0.07367 0.0
O251 O 0.55335 0.03568 0.07601 0.0
O252 O 0.5473 0.99152 0.03256 0.0
O253 O 0.49969 0.94628 1.00406 0.0
O254 O 0.43651 0.95577 1.00291 0.0
O255 O 0.4634 0.968 0.04311 0.0
C256 C 0.57351 0.06178 0.99881 0.0
O257 O 0.50235 0.96353 0.95237 0.0
O258 O 0.45162 0.97121 0.95192 0.0
C259 C 0.52006 0.03433 0.11095 0.0
C260 C 0.48509 0.00277 0.15479 0.0
C261 C 0.5191 0.04024 0.15522 0.0
C262 C 0.53553 0.05608 0.13361 0.0
C263 C 0.48944 0.99577 0.11032 0.0
C264 C 0.47303 0.97992 0.13192 0.0
C265 C 0.53648 0.05153 0.08815 0.0
H266 H 0.51631 0.96946 0.86059 0.0
H267 H 0.49776 0.93928 0.89943 0.0
H268 H 0.47578 0.03002 0.92593 0.0
H269 H 0.49361 0.05961 0.88691 0.0
H270 H 0.53428 0.05772 0.17214 0.0
H271 H 0.56064 0.08532 0.13466 0.0
H272 H 0.47837 0.97767 0.09311 0.0
H273 H 0.45157 0.94934 0.13023 0.0
Tb274 Tb 0.03282 0.49277 0.98185 0.0
Eu275 Eu 0.9965 0.47937 0.03576 0.0
C276 C 0.06887 0.56134 0.02333 0.0
C277 C 0.07321 0.47359 0.02658 0.0
C278 C 0.03814 0.49188 0.91431 0.0
C279 C 0.03061 0.46617 0.87194 0.0
C280 C 0.04878 0.47408 0.8958 0.0
C281 C 1.00894 0.50161 0.90864 0.0
C282 C 0.9907 0.49363 0.88478 0.0
C283 C 1.00148 0.47588 0.86631 0.0
C284 C 0.05683 0.49884 0.93947 0.0
O285 O 0.97362 0.4424 0.97571 0.0
O286 O 0.96807 0.42102 0.01401 0.0
O287 O 0.9537 0.48618 0.0108 0.0
O288 O 0.99596 0.5198 0.98197 0.0
C289 C 0.95692 0.41485 0.99048 0.0
O290 O 0.97548 0.44236 0.06583 0.0
O291 O 0.97321 0.49561 0.06673 0.0
O292 O 0.03662 0.54396 0.03487 0.0
O293 O 0.07634 0.54307 1.00558 0.0
O294 O 0.06206 0.46722 1.00287 0.0
O295 O 0.05639 0.4854 0.04224 0.0
C296 C 0.96322 0.50899 0.99286 0.0
O297 O 0.05922 0.52771 0.95328 0.0
O298 O 0.0456 0.46804 0.95136 0.0
C299 C 0.98622 0.47579 0.10436 0.0
C300 C 0.02145 0.4896 0.15242 0.0
C301 C 0.98586 0.45512 0.14529 0.0
C302 C 0.9683 0.4483 0.12137 0.0
C303 C 0.02177 0.5104 0.11155 0.0
C304 C 0.03921 0.51733 0.13551 0.0
C305 C 0.96901 0.46661 0.07883 0.0
H306 H 0.03929 0.45257 0.85783 0.0
H307 H 0.07109 0.46623 0.89984 0.0
H308 H 1.00033 0.51542 0.92262 0.0
H309 H 0.96838 0.50145 0.88066 0.0
H310 H 0.97191 0.43348 0.15819 0.0
H311 H 0.94108 0.4213 0.11602 0.0
H312 H 0.03625 0.53177 0.09859 0.0
H313 H 0.06673 0.54406 0.14081 0.0
Tb314 Tb 0.54817 0.51667 0.03395 0.0
Eu315 Eu 0.51546 0.52509 0.9787 0.0
C316 C 0.51248 0.44607 0.99425 0.0
C317 C 0.60485 0.5412 0.99112 0.0
C318 C 0.55509 0.51979 0.10189 0.0
C319 C 0.57158 0.54613 0.14467 0.0
C320 C 0.58325 0.53959 0.12198 0.0
C321 C 0.51503 0.5067 0.10486 0.0
C322 C 0.5034 0.51336 0.12748 0.0
C323 C 0.5316 0.53305 0.14753 0.0
C324 C 0.56772 0.51305 0.07803 0.0
O325 O 0.56115 0.57671 0.03358 0.0
O326 O 0.51959 0.575 1.00162 0.0
O327 O 0.46543 0.51447 1.00118 0.0
O328 O 0.48443 0.49353 0.0351 0.0
C329 C 0.54277 0.59187 0.02178 0.0
O330 O 0.52145 0.56024 0.9482 0.0
O331 O 0.47948 0.49849 0.94394 0.0
O332 O 0.49573 0.46174 0.98143 0.0
O333 O 0.53989 0.46579 0.01227 0.0
O334 O 0.59603 0.52456 0.0118 0.0
O335 O 0.58126 0.55009 0.97893 0.0
C336 C 0.45841 0.4988 0.0222 0.0
O337 O 0.54122 0.48335 0.06364 0.0
O338 O 0.58719 0.54343 0.06593 0.0
C339 C 0.51507 0.52745 0.90969 0.0
C340 C 0.54936 0.52433 0.8662 0.0
C341 C 0.54903 0.55815 0.87419 0.0
C342 C 0.53182 0.5596 0.89569 0.0
C343 C 0.51604 0.49381 0.90182 0.0
C344 C 0.53295 0.49226 0.88021 0.0
C345 C 0.49839 0.53019 0.93285 0.0
H346 H 0.59369 0.56139 0.16 0.0
H347 H 0.61425 0.54993 0.12011 0.0
H348 H 0.49266 0.49116 0.08972 0.0
H349 H 0.47243 0.50305 0.1294 0.0
H350 H 0.56156 0.58314 0.86356 0.0
H351 H 0.53169 0.58593 0.90146 0.0
H352 H 0.50379 0.46868 0.91232 0.0
H353 H 0.53298 0.46593 0.87429 0.0
Tb354 Tb 0.16384 0.32658 0.31707 0.0
Eu355 Eu 0.18652 0.36783 0.37552 0.0
C356 C 0.20001 0.29604 0.35795 0.0
C357 C 0.10495 0.28587 0.357 0.0
C358 C 0.15983 0.32463 0.24848 0.0
C359 C 0.19849 0.3436 0.21298 0.0
C360 C 0.18985 0.32565 0.23493 0.0
C361 C 0.13841 0.34178 0.23943 0.0
C362 C 0.14715 0.35981 0.21748 0.0
C363 C 0.17718 0.36076 0.2041 0.0
C364 C 0.1508 0.30502 0.2716 0.0
O365 O 0.1351 0.36056 0.32254 0.0
O366 O 0.17852 0.40804 0.35164 0.0
O367 O 0.24297 0.40398 0.35838 0.0
O368 O 0.22227 0.37865 0.31782 0.0
C369 C 0.15237 0.39624 0.33264 0.0
O370 O 0.1664 0.38836 0.40647 0.0
O371 O 0.22157 0.38831 0.41089 0.0
O372 O 0.20559 0.32344 0.37474 0.0
O373 O 0.18274 0.2912 0.33577 0.0
O374 O 0.11729 0.28164 0.3358 0.0
O375 O 0.12391 0.31756 0.37209 0.0
C376 C 0.24934 0.40305 0.33508 0.0
O377 O 0.18085 0.3088 0.28536 0.0
O378 O 0.12549 0.30808 0.28476 0.0
C379 C 0.18206 0.3714 0.44448 0.0
C380 C 0.15829 0.33285 0.48764 0.0
C381 C 0.16019 0.36871 0.48556 0.0
C382 C 0.17206 0.38785 0.46415 0.0
C383 C 0.17942 0.33516 0.4464 0.0
C384 C 0.1678 0.31614 0.46783 0.0
C385 C 0.1946 0.39177 0.42195 0.0
H386 H 0.22164 0.34391 0.20282 0.0
H387 H 0.20659 0.31239 0.24126 0.0
H388 H 0.11493 0.34135 0.24927 0.0
H389 H 0.13031 0.3728 0.21082 0.0
H390 H 0.15293 0.38203 0.50063 0.0
H391 H 0.17359 0.41559 0.46299 0.0
H392 H 0.18662 0.32169 0.43138 0.0
H393 H 0.16651 0.28852 0.46906 0.0
Tb394 Tb 0.70353 0.83417 0.32136 0.0
Eu395 Eu 0.66309 0.81906 0.37446 0.0
C396 C 0.73834 0.90265 0.36428 0.0
C397 C 0.73973 0.81174 0.36568 0.0
C398 C 0.70695 0.82928 0.25413 0.0
C399 C 0.70305 0.80824 0.21113 0.0
C400 C 0.72196 0.81746 0.23488 0.0
C401 C 0.67235 0.83112 0.24943 0.0
C402 C 0.65361 0.82217 0.22569 0.0
C403 C 0.66899 0.81092 0.20637 0.0
C404 C 0.72749 0.83968 0.27896 0.0
O405 O 0.6645 0.77204 0.32268 0.0
O406 O 0.61855 0.77297 0.34613 0.0
O407 O 0.63351 0.84582 0.3537 0.0
O408 O 0.65164 0.84089 0.31477 0.0
C409 C 0.62835 0.75585 0.32913 0.0
O410 O 0.63428 0.77805 0.40182 0.0
O411 O 0.64478 0.83676 0.40728 0.0
O412 O 0.71708 0.87918 0.38049 0.0
O413 O 0.73578 0.89125 0.34098 0.0
O414 O 0.74748 0.83378 0.34731 0.0
O415 O 0.70529 0.79605 0.37482 0.0
C416 C 0.63147 0.84938 0.33006 0.0
O417 O 0.72677 0.86768 0.29179 0.0
O418 O 0.72036 0.81086 0.29201 0.0
C419 C 0.64523 0.8056 0.44264 0.0
C420 C 0.66751 0.81072 0.49287 0.0
C421 C 0.62792 0.78678 0.48366 0.0
C422 C 0.61689 0.78413 0.45867 0.0
C423 C 0.68496 0.82924 0.45177 0.0
C424 C 0.69608 0.83171 0.47679 0.0
C425 C 0.6325 0.80366 0.41668 0.0
H426 H 0.71523 0.79955 0.19639 0.0
H427 H 0.74846 0.81566 0.23819 0.0
H428 H 0.65999 0.83981 0.26405 0.0
H429 H 0.62732 0.8243 0.22232 0.0
H430 H 0.60553 0.77063 0.49591 0.0
H431 H 0.58612 0.7658 0.45192 0.0
H432 H 0.70714 0.84627 0.43966 0.0
H433 H 0.7267 0.85056 0.48369 0.0
Tb434 Tb 0.21517 0.85567 0.36896 0.0
Eu435 Eu 0.18473 0.86212 0.31288 0.0
C436 C 0.17866 0.78371 0.32927 0.0
C437 C 0.27135 0.87601 0.32646 0.0
C438 C 0.22322 0.85996 0.43659 0.0
C439 C 0.23536 0.8745 0.48085 0.0
C440 C 0.24792 0.8691 0.45825 0.0
C441 C 0.18594 0.85669 0.43774 0.0
C442 C 0.17324 0.86172 0.46032 0.0
C443 C 0.19784 0.87059 0.48201 0.0
C444 C 0.23588 0.85291 0.41297 0.0
O445 O 0.23473 0.91656 0.36502 0.0
O446 O 0.18649 0.91047 0.33673 0.0
O447 O 0.12947 0.83123 0.33265 0.0
O448 O 0.15817 0.85214 0.37231 0.0
C449 C 0.21362 0.93017 0.35487 0.0
O450 O 0.19305 0.89823 0.28254 0.0
O451 O 0.14727 0.83759 0.27848 0.0
O452 O 0.18608 0.80649 0.31142 0.0
O453 O 0.18237 0.79641 0.35238 0.0
O454 O 0.25899 0.85587 0.34563 0.0
O455 O 0.25102 0.88975 0.31553 0.0
C456 C 0.12679 0.8357 0.35633 0.0
O457 O 0.20906 0.82305 0.39891 0.0
O458 O 0.25491 0.88296 0.40058 0.0
C459 C 0.18239 0.86431 0.24378 0.0
C460 C 0.21211 0.85729 0.19915 0.0
C461 C 0.21002 0.89064 0.20578 0.0
C462 C 0.19509 0.89402 0.22789 0.0
C463 C 0.18527 0.83126 0.23732 0.0
C464 C 0.19984 0.82773 0.21512 0.0
C465 C 0.16777 0.86893 0.26735 0.0
H466 H 0.2547 0.88142 0.49746 0.0
H467 H 0.27676 0.87176 0.45769 0.0
H468 H 0.16648 0.84985 0.42124 0.0
H469 H 0.14423 0.85864 0.46089 0.0
H470 H 0.21943 0.91375 0.19367 0.0
H471 H 0.19351 0.9199 0.23261 0.0
H472 H 0.17632 0.80815 0.2494 0.0
H473 H 0.20135 0.80184 0.21031 0.0
Tb474 Tb 0.82593 0.6549 0.64822 0.0
Eu475 Eu 0.84933 0.69536 0.70583 0.0
C476 C 0.86243 0.6246 0.68749 0.0
C477 C 0.76826 0.61733 0.6899 0.0
C478 C 0.82184 0.64972 0.58014 0.0
C479 C 0.84662 0.65243 0.53991 0.0
C480 C 0.8358 0.63476 0.56188 0.0
C481 C 0.81927 0.68299 0.57612 0.0
C482 C 0.82968 0.70039 0.55405 0.0
C483 C 0.84331 0.68518 0.53572 0.0
C484 C 0.81053 0.63058 0.60324 0.0
O485 O 0.83009 0.71107 0.64721 0.0
O486 O 0.81343 0.71731 0.68594 0.0
O487 O 0.89685 0.73782 0.68388 0.0
O488 O 0.88983 0.69356 0.65249 0.0
C489 C 0.81683 0.72634 0.66314 0.0
O490 O 0.83138 0.71608 0.73765 0.0
O491 O 0.8881 0.71895 0.73992 0.0
O492 O 0.8764 0.65725 0.70156 0.0
O493 O 0.83628 0.61507 0.66859 0.0
O494 O 0.77126 0.62598 0.66688 0.0
O495 O 0.79773 0.63568 0.7068 0.0
C496 C 0.91019 0.72788 0.66489 0.0
O497 O 0.83888 0.63125 0.61713 0.0
O498 O 0.78745 0.6378 0.61614 0.0
C499 C 0.85254 0.70445 0.77562 0.0
C500 C 0.82977 0.66879 0.8198 0.0
C501 C 0.82859 0.70274 0.816 0.0
C502 C 0.8399 0.72042 0.79409 0.0
C503 C 0.85376 0.67046 0.77944 0.0
C504 C 0.84255 0.65283 0.80139 0.0
C505 C 0.86182 0.72217 0.75202 0.0
H506 H 0.85723 0.64036 0.52605 0.0
H507 H 0.83829 0.60934 0.56462 0.0
H508 H 0.80911 0.69554 0.58997 0.0
H509 H 0.82708 0.72573 0.55123 0.0
H510 H 0.81881 0.71546 0.82998 0.0
H511 H 0.83838 0.74638 0.79144 0.0
H512 H 0.86306 0.6574 0.7654 0.0
H513 H 0.84368 0.62665 0.804 0.0
Tb514 Tb 0.37127 0.16335 0.65468 0.0
Eu515 Eu 0.3341 0.14808 0.70852 0.0
C516 C 0.40633 0.23028 0.6967 0.0
C517 C 0.41061 0.14125 0.69857 0.0
C518 C 0.37707 0.1646 0.5873 0.0
C519 C 0.37299 0.18758 0.54763 0.0
C520 C 0.39051 0.19456 0.57159 0.0
C521 C 0.34561 0.12751 0.57872 0.0
C522 C 0.32842 0.12044 0.55468 0.0
C523 C 0.34206 0.15041 0.539 0.0
C524 C 0.39596 0.17262 0.61251 0.0
O525 O 0.31352 0.11107 0.64789 0.0
O526 O 0.30526 0.09004 0.68647 0.0
O527 O 0.29059 0.15365 0.68316 0.0
O528 O 0.33378 0.18956 0.65547 0.0
C529 C 0.29598 0.0837 0.6627 0.0
O530 O 0.30985 0.10942 0.73754 0.0
O531 O 0.31421 0.16581 0.74071 0.0
O532 O 0.37346 0.21281 0.70761 0.0
O533 O 0.41457 0.21207 0.6794 0.0
O534 O 0.4016 0.13834 0.67477 0.0
O535 O 0.39269 0.15097 0.71471 0.0
C536 C 0.30003 0.17684 0.66539 0.0
O537 O 0.39487 0.1997 0.62622 0.0
O538 O 0.3884 0.14259 0.6245 0.0
C539 C 0.32324 0.14052 0.7772 0.0
C540 C 0.35539 0.14834 0.8256 0.0
C541 C 0.31861 0.11599 0.81731 0.0
C542 C 0.30261 0.11218 0.79326 0.0
C543 C 0.36027 0.17272 0.78542 0.0
C544 C 0.37617 0.17668 0.80954 0.0
C545 C 0.30663 0.13481 0.75166 0.0
H546 H 0.38374 0.21102 0.53572 0.0
H547 H 0.41458 0.22337 0.57788 0.0
H548 H 0.33433 0.10391 0.5905 0.0
H549 H 0.30451 0.09162 0.54826 0.0
H550 H 0.30226 0.09391 0.82952 0.0
H551 H 0.27422 0.08696 0.78713 0.0
H552 H 0.37688 0.19466 0.77322 0.0
H553 H 0.40459 0.20182 0.81571 0.0
Tb554 Tb 0.88485 0.18817 0.70123 0.0
Eu555 Eu 0.85057 0.1881 0.64479 0.0
C556 C 0.84208 0.11252 0.66632 0.0
C557 C 0.93824 0.20261 0.65695 0.0
C558 C 0.89192 0.19355 0.76859 0.0
C559 C 0.90075 0.20766 0.81289 0.0
C560 C 0.91543 0.20345 0.79085 0.0
C561 C 0.85359 0.18803 0.76859 0.0
C562 C 0.83884 0.19198 0.7906 0.0
C563 C 0.86236 0.2019 0.81287 0.0
C564 C 0.90724 0.18901 0.74542 0.0
O565 O 0.87867 0.23918 0.69994 0.0
O566 O 0.89067 0.25024 0.65993 0.0
O567 O 0.80357 0.18484 0.66838 0.0
O568 O 0.82143 0.16456 0.70307 0.0
C569 C 0.89003 0.26263 0.68242 0.0
O570 O 0.84206 0.21778 0.61463 0.0
O571 O 0.82199 0.15645 0.60923 0.0
O572 O 0.82248 0.1267 0.65504 0.0
O573 O 0.87406 0.13494 0.68096 0.0
O574 O 0.93701 0.21147 0.68031 0.0
O575 O 0.90677 0.18688 0.64126 0.0
C576 C 0.79628 0.17076 0.68998 0.0
O577 O 0.88376 0.15742 0.73138 0.0
O578 O 0.92271 0.21939 0.7329 0.0
C579 C 0.84994 0.19319 0.57631 0.0
C580 C 0.88946 0.19571 0.5343 0.0
C581 C 0.84802 0.17454 0.53312 0.0
C582 C 0.82841 0.17329 0.55399 0.0
C583 C 0.89143 0.21506 0.57741 0.0
C584 C 0.91107 0.2166 0.55646 0.0
C585 C 0.82919 0.1876 0.59873 0.0
H586 H 0.91927 0.21538 0.82996 0.0
H587 H 0.94507 0.2079 0.79117 0.0
H588 H 0.83502 0.18056 0.75159 0.0
H589 H 0.80918 0.18747 0.79027 0.0
H590 H 0.83091 0.15835 0.51614 0.0
H591 H 0.79647 0.15593 0.55287 0.0
H592 H 0.90865 0.23015 0.59459 0.0
H593 H 0.94305 0.23314 0.55765 0.0
C594 C 0.32681 0.89263 0.04247 0.0
C595 C 0.32851 0.86448 0.05649 0.0
C596 C 0.39603 0.8867 0.04575 0.0
C597 C 0.39612 0.91789 0.03432 0.0
N598 N 0.3633 0.95353 0.02412 0.0
N599 N 0.3659 0.83721 0.07408 0.0
C600 C 0.36182 0.92149 0.03305 0.0
C601 C 0.36342 0.8621 0.05878 0.0
N602 N 0.29162 0.89148 0.03799 0.0
N603 N 0.42668 0.87992 0.0435 0.0
H604 H 0.34243 0.81817 0.08363 0.0
H605 H 0.3921 0.83748 0.07882 0.0
H606 H 0.45055 0.89676 0.03355 0.0
H607 H 0.42668 0.85549 0.04934 0.0
H608 H 0.28742 0.90854 0.02578 0.0
H609 H 0.26563 0.87117 0.04499 0.0
H610 H 0.34079 0.96005 0.0253 0.0
H611 H 0.38834 0.97535 0.01713 0.0
C612 C 0.16726 0.49333 0.06366 0.0
C613 C 0.16535 0.45696 0.06008 0.0
C614 C 0.10366 0.43132 0.03351 0.0
C615 C 0.1064 0.46826 0.03625 0.0
N616 N 0.14609 0.53674 0.04884 0.0
N617 N 0.13627 0.39354 0.03833 0.0
C618 C 0.13976 0.49995 0.0499 0.0
C619 C 0.13498 0.42667 0.0439 0.0
N620 N 0.19478 0.52131 0.08071 0.0
N621 N 0.07023 0.40015 0.02214 0.0
H622 H 0.15826 0.38886 0.04607 0.0
H623 H 0.11753 0.37208 0.02466 0.0
H624 H 0.0469 0.40245 0.01426 0.0
H625 H 0.06428 0.37163 0.02209 0.0
H626 H 0.19455 0.54653 0.08635 0.0
H627 H 0.21625 0.51811 0.09062 0.0
H628 H 0.17173 0.56153 0.05642 0.0
H629 H 0.12756 0.54287 0.03811 0.0
C630 C 0.59734 0.69864 0.04516 0.0
C631 C 0.56597 0.70253 0.05406 0.0
C632 C 0.51863 0.63441 0.04021 0.0
C633 C 0.55002 0.63053 0.03125 0.0
N634 N 0.61714 0.66003 0.02037 0.0
N635 N 0.49629 0.67656 0.0576 0.0
C636 C 0.58884 0.66299 0.03239 0.0
C637 C 0.52642 0.67117 0.05069 0.0
N638 N 0.63532 0.72894 0.04929 0.0
N639 N 0.48173 0.6025 0.03978 0.0
H640 H 0.50083 0.70205 0.06699 0.0
H641 H 0.46653 0.65671 0.05286 0.0
H642 H 0.47424 0.57554 0.03126 0.0
H643 H 0.45885 0.60185 0.04898 0.0
H644 H 0.66005 0.72662 0.04613 0.0
H645 H 0.64243 0.75628 0.05713 0.0
H646 H 0.64499 0.68345 0.01834 0.0
H647 H 0.6117 0.63453 0.01047 0.0
C648 C 0.86072 0.33921 0.95455 0.0
C649 C 0.8615 0.30469 0.95815 0.0
C650 C 0.92489 0.34203 0.98293 0.0
C651 C 0.92322 0.37649 0.98042 0.0
N652 N 0.88467 0.4061 0.969 0.0
N653 N 0.88979 0.27155 0.97915 0.0
C654 C 0.88974 0.37459 0.96766 0.0
C655 C 0.89213 0.30558 0.97352 0.0
N656 N 0.83279 0.33839 0.93812 0.0
N657 N 0.9586 0.34428 0.99304 0.0
H658 H 0.86656 0.24439 0.97212 0.0
H659 H 0.90899 0.27007 0.99233 0.0
H660 H 0.98335 0.37043 0.99975 0.0
H661 H 0.96334 0.32081 0.99289 0.0
H662 H 0.83378 0.36333 0.93239 0.0
H663 H 0.81004 0.3128 0.92883 0.0
H664 H 0.85902 0.40535 0.96214 0.0
H665 H 0.90436 0.43198 0.97928 0.0
C666 C 0.67405 0.535 0.94651 0.0
C667 C 0.71158 0.56331 0.95797 0.0
C668 C 0.67953 0.57457 0.99257 0.0
C669 C 0.64184 0.54863 0.98003 0.0
N670 N 0.60341 0.5085 0.9431 0.0
N671 N 0.75053 0.61376 0.99024 0.0
C672 C 0.6392 0.53028 0.95639 0.0
C673 C 0.71449 0.58395 0.98066 0.0
N674 N 0.67163 0.51129 0.92669 0.0
N675 N 0.68196 0.59068 0.01571 0.0
H676 H 0.77658 0.62144 0.98201 0.0
H677 H 0.75445 0.63281 1.00526 0.0
H678 H 0.65734 0.58719 0.02425 0.0
H679 H 0.70816 0.6059 0.02704 0.0
H680 H 0.64531 0.4872 0.91919 0.0
H681 H 0.69638 0.51332 0.91907 0.0
H682 H 0.6003 0.49916 0.92457 0.0
H683 H 0.5767 0.50193 0.94991 0.0
C684 C 0.41086 0.09024 0.97504 0.0
C685 C 0.43461 0.13033 0.98283 0.0
C686 C 0.47617 0.11621 0.01 0.0
C687 C 0.45863 0.07831 0.99782 0.0
N688 N 0.40561 0.02702 0.97071 0.0
N689 N 0.46228 0.1666 0.02218 0.0
C690 C 0.42451 0.06443 0.98109 0.0
C691 C 0.45993 0.13997 1.00457 0.0
N692 N 0.37365 0.07666 0.96426 0.0
N693 N 0.50885 0.13022 0.02623 0.0
H694 H 0.44264 0.1771 0.0212 0.0
H695 H 0.47814 0.17253 0.03925 0.0
H696 H 0.52227 0.11415 0.03066 0.0
H697 H 0.52423 0.15905 0.03371 0.0
H698 H 0.3532 0.0473 0.96005 0.0
H699 H 0.36211 0.09506 0.96217 0.0
H700 H 0.38362 0.01682 0.95623 0.0
H701 H 0.41312 0.00658 0.97588 0.0
C702 C 0.68164 0.13914 0.99505 0.0
C703 C 0.68394 0.13658 0.96928 0.0
C704 C 0.61171 0.09577 0.96378 0.0
C705 C 0.61103 0.09088 0.98933 0.0
N706 N 0.64748 0.10488 0.02914 0.0
N707 N 0.65016 0.11317 0.92856 0.0
C708 C 0.64646 0.11207 1.00505 0.0
C709 C 0.64861 0.11533 0.95345 0.0
N710 N 0.71251 0.16787 0.00996 0.0
N711 N 0.57713 0.08303 0.94953 0.0
H712 H 0.6759 0.12938 0.91995 0.0
H713 H 0.62612 0.09365 0.91647 0.0
H714 H 0.54966 0.07031 0.95667 0.0
H715 H 0.57592 0.08894 0.93129 0.0
H716 H 0.71092 0.17257 0.02868 0.0
H717 H 0.73748 0.19005 1.00313 0.0
H718 H 0.67369 0.11696 0.04052 0.0
H719 H 0.62311 0.08398 0.03714 0.0
C720 C 0.89239 0.54831 0.99472 0.0
C721 C 0.88614 0.55201 0.96949 0.0
C722 C 0.92289 0.51868 0.95947 0.0
C723 C 0.93601 0.52297 0.98471 0.0
N724 N 0.93794 0.54857 0.02615 0.0
N725 N 0.89545 0.53993 0.92724 0.0
C726 C 0.9219 0.53944 1.00233 0.0
C727 C 0.90129 0.53681 0.95165 0.0
N728 N 0.8694 0.55198 0.0114 0.0
N729 N 0.92926 0.49569 0.94313 0.0
H730 H 0.87736 0.55013 0.92041 0.0
H731 H 0.9102 0.53413 0.91382 0.0
H732 H 0.94349 0.48067 0.9483 0.0
H733 H 0.91691 0.48827 0.925 0.0
H734 H 0.87103 0.54657 0.02973 0.0
H735 H 0.8452 0.55507 1.00629 0.0
H736 H 0.93104 0.56395 0.03903 0.0
H737 H 0.96126 0.54479 0.03237 0.0
C738 C 0.47803 0.34716 0.95971 0.0
C739 C 0.46969 0.32338 0.97962 0.0
C740 C 0.48865 0.37968 0.00864 0.0
C741 C 0.49858 0.40401 0.98903 0.0
N742 N 0.51136 0.4121 0.94639 0.0
N743 N 0.48289 0.32093 0.02287 0.0
C744 C 0.49576 0.3881 0.96466 0.0
C745 C 0.48016 0.34089 1.00405 0.0
N746 N 0.46859 0.33075 0.93604 0.0
N747 N 0.48469 0.39256 0.03136 0.0
H748 H 0.47982 0.29347 0.02003 0.0
H749 H 0.49336 0.33372 0.04077 0.0
H750 H 0.48728 0.41963 0.03515 0.0
H751 H 0.47403 0.37453 0.04557 0.0
H752 H 0.4686 0.34572 0.921 0.0
H753 H 0.45907 0.30162 0.93139 0.0
H754 H 0.5144 0.40268 0.92896 0.0
H755 H 0.5246 0.44209 0.94924 0.0
C756 C 0.13565 0.65563 0.0634 0.0
C757 C 0.15198 0.68229 0.04519 0.0
C758 C 0.11369 0.62975 0.01292 0.0
C759 C 0.09833 0.60272 0.03092 0.0
N760 N 0.10388 0.58846 0.0728 0.0
N761 N 0.16853 0.69047 1.00313 0.0
C762 C 0.11193 0.6152 0.05607 0.0
C763 C 0.14488 0.66805 0.02009 0.0
N764 N 0.1424 0.66878 0.0877 0.0
N765 N 0.09725 0.61975 0.98919 0.0
H766 H 0.19377 0.71742 0.00792 0.0
H767 H 0.16614 0.68003 0.98489 0.0
H768 H 0.07269 0.59281 0.98333 0.0
H769 H 0.10523 0.63975 0.97603 0.0
H770 H 0.12694 0.6514 0.10135 0.0
H771 H 0.16207 0.69751 0.09422 0.0
H772 H 0.11638 0.59572 0.09089 0.0
H773 H 0.08806 0.55861 0.06803 0.0
C774 C 0.38056 0.48098 0.0672 0.0
C775 C 0.34511 0.46119 0.05127 0.0
C776 C 0.38383 0.46535 0.01658 0.0
C777 C 0.41947 0.48673 0.03211 0.0
N778 N 0.45135 0.52466 0.0708 0.0
N779 N 0.31594 0.44971 0.00953 0.0
C780 C 0.41777 0.4974 0.05705 0.0
C781 C 0.34761 0.45819 0.02554 0.0
N782 N 0.37892 0.4838 0.09206 0.0
N783 N 0.38391 0.44995 0.99371 0.0
H784 H 0.29007 0.44774 0.01524 0.0
H785 H 0.31749 0.45006 0.99058 0.0
H786 H 0.40921 0.4521 0.98686 0.0
H787 H 0.35802 0.43119 0.98271 0.0
H788 H 0.40354 0.4932 0.10455 0.0
H789 H 0.35272 0.4748 0.10036 0.0
H790 H 0.45117 0.53654 0.08816 0.0
H791 H 0.47905 0.53846 0.064 0.0
C792 C 0.56076 0.9005 0.06121 0.0
C793 C 0.56804 0.87823 0.04327 0.0
C794 C 0.54867 0.90655 0.01047 0.0
C795 C 0.54056 0.92815 0.02829 0.0
N796 N 0.52699 0.93594 0.07015 0.0
N797 N 0.55275 0.84879 1.00147 0.0
C798 C 0.54317 0.92234 0.05356 0.0
C799 C 0.55694 0.87765 0.01807 0.0
N800 N 0.57075 0.90109 0.08559 0.0
N801 N 0.55037 0.91468 0.98647 0.0
H802 H 0.55511 0.82515 1.00654 0.0
H803 H 0.5417 0.84559 0.98325 0.0
H804 H 0.54606 0.93664 0.98021 0.0
H805 H 0.56007 0.90227 0.97331 0.0
H806 H 0.57131 0.92096 0.09896 0.0
H807 H 0.58037 0.8831 0.09248 0.0
H808 H 0.52425 0.92906 0.08832 0.0
H809 H 0.51223 0.95053 0.0652 0.0
C810 C 0.03415 0.19512 0.38613 0.0
C811 C 1.00197 0.20154 0.38885 0.0
C812 C 0.03517 0.26075 0.36741 0.0
C813 C 0.06723 0.25417 0.36455 0.0
N814 N 0.09319 0.21064 0.36579 0.0
N815 N 0.96754 0.23516 0.37781 0.0
C816 C 0.06528 0.21976 0.37204 0.0
C817 C 1.00117 0.23279 0.37814 0.0
N818 N 0.03604 0.16678 0.39814 0.0
N819 N 0.03758 0.29412 0.36018 0.0
H820 H 0.94216 0.21507 0.38548 0.0
H821 H 0.96346 0.25495 0.36826 0.0
H822 H 0.06055 0.31375 0.35054 0.0
H823 H 0.01779 0.30326 0.36456 0.0
H824 H 0.06092 0.16373 0.39941 0.0
H825 H 1.01381 0.14798 0.40854 0.0
H826 H 0.09115 0.18409 0.36851 0.0
H827 H 0.11686 0.22827 0.35595 0.0
C828 C 0.81181 0.77385 0.37399 0.0
C829 C 0.8306 0.79164 0.39773 0.0
C830 C 0.78663 0.81855 0.40141 0.0
C831 C 0.77079 0.80447 0.37668 0.0
N832 N 0.77085 0.7715 0.33843 0.0
N833 N 0.84195 0.83823 0.43157 0.0
C834 C 0.78446 0.78327 0.36259 0.0
C835 C 0.81968 0.81604 0.41074 0.0
N836 N 0.81838 0.74633 0.36289 0.0
N837 N 0.76988 0.83383 0.41628 0.0
H838 H 0.86716 0.83822 0.43863 0.0
H839 H 0.83788 0.8596 0.44037 0.0
H840 H 0.74648 0.83754 0.41023 0.0
H841 H 0.77728 0.84013 0.43517 0.0
H842 H 0.80243 0.72927 0.34685 0.0
H843 H 0.83741 0.73798 0.37084 0.0
H844 H 0.78322 0.76024 0.32646 0.0
H845 H 0.74859 0.77499 0.32989 0.0
C846 C 0.20181 0.0084 0.38943 0.0
C847 C 0.23851 0.04179 0.38629 0.0
C848 C 0.25799 0.00243 0.36118 0.0
C849 C 0.22112 0.96897 0.3642 0.0
N850 N 0.15564 0.94023 0.37812 0.0
N851 N 0.29922 0.0728 0.36676 0.0
C852 C 0.19223 0.97207 0.37726 0.0
C853 C 0.26592 0.03946 0.37137 0.0
N854 N 0.17681 0.01124 0.40492 0.0
N855 N 0.28551 0.99859 0.34881 0.0
H856 H 0.30619 0.10021 0.3744 0.0
H857 H 0.31877 0.07392 0.35421 0.0
H858 H 0.27972 0.97248 0.33962 0.0
H859 H 0.31461 0.0207 0.34833 0.0
H860 H 0.1521 0.98747 0.41068 0.0
H861 H 0.18185 0.0376 0.41329 0.0
H862 H 0.13163 0.94133 0.38451 0.0
H863 H 0.14833 0.91256 0.37108 0.0
C864 C 0.55109 0.67959 0.28162 0.0
C865 C 0.539 0.64501 0.29343 0.0
C866 C 0.58318 0.68377 0.32991 0.0
C867 C 0.59824 0.71749 0.31686 0.0
N868 N 0.60322 0.74518 0.278 0.0
N869 N 0.54921 0.61339 0.32716 0.0
C870 C 0.5844 0.71468 0.29198 0.0
C871 C 0.55643 0.64682 0.31723 0.0
N872 N 0.52969 0.67942 0.26106 0.0
N873 N 0.59481 0.6869 0.35428 0.0
H874 H 0.5309 0.58587 0.31813 0.0
H875 H 0.56418 0.61299 0.34331 0.0
H876 H 0.61619 0.71301 0.3638 0.0
H877 H 0.58148 0.6641 0.36539 0.0
H878 H 0.53521 0.70464 0.25311 0.0
H879 H 0.5037 0.65479 0.25363 0.0
H880 H 0.59674 0.74294 0.25907 0.0
H881 H 0.62742 0.77178 0.28484 0.0
C882 C 0.33966 0.86782 0.28217 0.0
C883 C 0.3774 0.89432 0.29422 0.0
C884 C 0.3455 0.90457 0.32921 0.0
C885 C 0.30794 0.88167 0.31576 0.0
N886 N 0.27009 0.84653 0.27744 0.0
N887 N 0.41681 0.94168 0.32795 0.0
C888 C 0.30527 0.86484 0.29165 0.0
C889 C 0.38053 0.91348 0.31755 0.0
N890 N 0.33658 0.84444 0.26199 0.0
N891 N 0.34778 0.91841 0.35297 0.0
H892 H 0.44297 0.94902 0.31995 0.0
H893 H 0.42088 0.95985 0.34351 0.0
H894 H 0.32322 0.91492 0.36159 0.0
H895 H 0.37368 0.93135 0.36466 0.0
H896 H 0.30973 0.82169 0.25392 0.0
H897 H 0.36102 0.84507 0.2548 0.0
H898 H 0.26769 0.83844 0.25874 0.0
H899 H 0.24352 0.84169 0.2837 0.0
C900 C 0.11258 0.46476 0.32251 0.0
C901 C 0.12941 0.47981 0.30042 0.0
C902 C 0.15569 0.43575 0.29792 0.0
C903 C 0.1432 0.42407 0.32146 0.0
N904 N 0.1127 0.42973 0.35747 0.0
N905 N 0.17595 0.48708 0.27092 0.0
C906 C 0.12278 0.43953 0.33428 0.0
C907 C 0.15351 0.4674 0.2892 0.0
N908 N 0.08548 0.47301 0.33158 0.0
N909 N 0.16942 0.41666 0.28367 0.0
H910 H 0.17699 0.51192 0.26491 0.0
H911 H 0.19694 0.48148 0.26377 0.0
H912 H 0.17332 0.39427 0.28947 0.0
H913 H 0.17462 0.42155 0.26534 0.0
H914 H 0.06919 0.45975 0.34618 0.0
H915 H 0.07671 0.49069 0.32317 0.0
H916 H 0.10182 0.4434 0.36876 0.0
H917 H 0.11737 0.40941 0.36602 0.0
C918 C 0.32371 0.4691 0.29346 0.0
C919 C 0.35996 0.47471 0.30466 0.0
C920 C 0.32432 0.43608 0.33789 0.0
C921 C 0.28851 0.43174 0.32707 0.0
N922 N 0.25876 0.45819 0.30071 0.0
N923 N 0.39542 0.47698 0.34282 0.0
C924 C 0.28966 0.45266 0.30672 0.0
C925 C 0.3606 0.46256 0.3286 0.0
N926 N 0.32111 0.47822 0.26997 0.0
N927 N 0.32391 0.41375 0.35609 0.0
H928 H 0.42207 0.49933 0.33781 0.0
H929 H 0.39676 0.47073 0.36099 0.0
H930 H 0.29806 0.39304 0.36295 0.0
H931 H 0.34909 0.41333 0.36269 0.0
H932 H 0.29422 0.47063 0.2604 0.0
H933 H 0.34503 0.49053 0.25932 0.0
H934 H 0.25912 0.47566 0.28709 0.0
H935 H 0.23536 0.44955 0.31175 0.0
C936 C 0.55878 0.86011 0.28654 0.0
C937 C 0.55505 0.88959 0.29983 0.0
C938 C 0.60235 0.89362 0.33251 0.0
C939 C 0.60406 0.86233 0.32012 0.0
N940 N 0.57215 0.80743 0.28968 0.0
N941 N 0.56132 0.92175 0.3399 0.0
C942 C 0.57888 0.8431 0.29833 0.0
C943 C 0.57298 0.90237 0.32425 0.0
N944 N 0.54369 0.84848 0.2626 0.0
N945 N 0.62976 0.91643 0.3514 0.0
H946 H 0.53722 0.92532 0.33547 0.0
H947 H 0.57189 0.92919 0.35839 0.0
H948 H 0.65345 0.91298 0.35722 0.0
H949 H 0.63148 0.94161 0.35935 0.0
H950 H 0.54973 0.83037 0.25149 0.0
H951 H 0.52748 0.85884 0.25331 0.0
H952 H 0.5517 0.79074 0.27492 0.0
H953 H 0.58297 0.79246 0.29941 0.0
C954 C 0.12527 0.67408 0.33151 0.0
C955 C 0.13637 0.66231 0.3098 0.0
C956 C 0.1829 0.73076 0.3051 0.0
C957 C 0.16505 0.74201 0.32318 0.0
N958 N 0.11105 0.72182 0.34918 0.0
N959 N 0.17204 0.68172 0.27323 0.0
C960 C 0.13397 0.71301 0.33528 0.0
C961 C 0.16416 0.69128 0.29575 0.0
N962 N 0.10746 0.64891 0.34887 0.0
N963 N 0.21849 0.75722 0.29758 0.0
H964 H 0.15868 0.65343 0.26504 0.0
H965 H 0.18929 0.70261 0.26166 0.0
H966 H 0.2348 0.78557 0.30577 0.0
H967 H 0.23395 0.74957 0.28568 0.0
H968 H 0.10121 0.65763 0.36554 0.0
H969 H 0.10442 0.62141 0.3484 0.0
H970 H 0.08622 0.70065 0.35674 0.0
H971 H 0.11355 0.74911 0.35039 0.0
C972 C 0.81665 0.99431 0.40281 0.0
C973 C 0.82112 0.02366 0.38734 0.0
C974 C 0.76905 0.97384 0.35803 0.0
C975 C 0.76698 0.94424 0.37233 0.0
N976 N 0.79888 0.9271 0.40409 0.0
N977 N 0.81184 0.03802 0.34588 0.0
C978 C 0.79362 0.95464 0.39358 0.0
C979 C 0.80057 0.01251 0.36358 0.0
N980 N 0.83399 0.00396 0.42633 0.0
N981 N 0.74023 0.96568 0.33978 0.0
H982 H 0.83733 0.06528 0.34815 0.0
H983 H 0.79912 0.02991 0.32782 0.0
H984 H 0.71525 0.93828 0.33588 0.0
H985 H 0.73897 0.98724 0.33046 0.0
H986 H 0.82778 0.98342 0.43898 0.0
H987 H 0.85232 0.03246 0.43384 0.0
H988 H 0.82042 0.93361 0.41839 0.0
H989 H 0.78534 0.89857 0.39633 0.0
C990 C 0.03834 0.79133 0.39501 0.0
C991 C 1.01069 0.79753 0.38119 0.0
C992 C 0.06259 0.83664 0.35448 0.0
C993 C 0.08724 0.82365 0.36533 0.0
N994 N 0.096 0.78428 0.3944 0.0
N995 N 0.99753 0.82987 0.3491 0.0
C996 C 0.07459 0.80011 0.38534 0.0
C997 C 0.02322 0.82149 0.36137 0.0
N998 N 0.03055 0.77812 0.41777 0.0
N999 N 0.0774 0.86497 0.33856 0.0
H1000 H 0.97062 0.824 0.35543 0.0
H1001 H 1.00242 0.84184 0.33227 0.0
H1002 H 0.10618 0.87756 0.33345 0.0
H1003 H 0.06261 0.87878 0.33212 0.0
H1004 H 0.0513 0.77657 0.42959 0.0
H1005 H 1.00531 0.77336 0.42606 0.0
H1006 H 0.08575 0.76352 0.4071 0.0
H1007 H 0.1222 0.78884 0.38763 0.0
C1008 C 0.2425 0.22858 0.35456 0.0
C1009 C 0.24226 0.21973 0.37937 0.0
C1010 C 0.20468 0.25248 0.38783 0.0
C1011 C 0.21303 0.26841 0.3648 0.0
N1012 N 0.24769 0.27711 0.32812 0.0
N1013 N 0.22456 0.22589 0.42054 0.0
C1014 C 0.23398 0.25792 0.34857 0.0
C1015 C 0.22371 0.2324 0.3963 0.0
N1016 N 0.24941 0.20834 0.3365 0.0
N1017 N 0.17729 0.25489 0.40118 0.0
H1018 H 0.23646 0.20988 0.42769 0.0
H1019 H 0.21575 0.2388 0.43395 0.0
H1020 H 0.16106 0.26754 0.39511 0.0
H1021 H 0.16736 0.2404 0.4169 0.0
H1022 H 0.24705 0.21236 0.31794 0.0
H1023 H 0.25179 0.18398 0.33952 0.0
H1024 H 0.2661 0.27243 0.31706 0.0
H1025 H 0.24473 0.30072 0.32378 0.0
C1026 C 0.69725 0.52607 0.71813 0.0
C1027 C 0.66568 0.53297 0.72216 0.0
C1028 C 0.70032 0.59458 0.70339 0.0
C1029 C 0.73054 0.58641 0.69786 0.0
N1030 N 0.75389 0.5409 0.69538 0.0
N1031 N 0.63283 0.56911 0.71366 0.0
C1032 C 0.72766 0.55093 0.70373 0.0
C1033 C 0.66582 0.56576 0.71316 0.0
N1034 N 0.69935 0.49707 0.72913 0.0
N1035 N 0.70555 0.63065 0.7007 0.0
H1036 H 0.60691 0.54837 0.72051 0.0
H1037 H 0.62992 0.59046 0.70519 0.0
H1038 H 0.73096 0.65278 0.69431 0.0
H1039 H 0.68645 0.63964 0.7069 0.0
H1040 H 0.7239 0.49348 0.72911 0.0
H1041 H 0.67808 0.47858 0.74017 0.0
H1042 H 0.7512 0.51382 0.69707 0.0
H1043 H 0.77617 0.55831 0.68455 0.0
C1044 C 0.5069 0.15831 0.73206 0.0
C1045 C 0.50111 0.12021 0.72973 0.0
C1046 C 0.43953 0.09747 0.70346 0.0
C1047 C 0.44318 0.13466 0.70773 0.0
N1048 N 0.48057 0.20108 0.72536 0.0
N1049 N 0.46159 0.05277 0.71466 0.0
C1050 C 0.47704 0.16527 0.72181 0.0
C1051 C 0.46745 0.08965 0.71568 0.0
N1052 N 0.54136 0.18792 0.74376 0.0
N1053 N 0.40954 0.06964 0.68754 0.0
H1054 H 0.48231 0.04621 0.72218 0.0
H1055 H 0.43536 0.02818 0.70763 0.0
H1056 H 0.38767 0.07349 0.67894 0.0
H1057 H 0.4077 0.04364 0.68135 0.0
H1058 H 0.54969 0.21711 0.74411 0.0
H1059 H 0.5632 0.18359 0.7521 0.0
H1060 H 0.50126 0.22331 0.73793 0.0
H1061 H 0.46187 0.20852 0.71599 0.0
C1062 C 0.87506 0.34679 0.69794 0.0
C1063 C 0.91199 0.374 0.71085 0.0
C1064 C 0.93691 0.3296 0.70207 0.0
C1065 C 0.90057 0.30338 0.68845 0.0
N1066 N 0.8409 0.29319 0.6665 0.0
N1067 N 0.98157 0.39618 0.71825 0.0
C1068 C 0.87171 0.3142 0.68392 0.0
C1069 C 0.94413 0.36697 0.71068 0.0
N1070 N 0.84233 0.35008 0.70051 0.0
N1071 N 0.96411 0.31855 0.70731 0.0
H1072 H 0.98805 0.42434 0.72374 0.0
H1073 H 1.00651 0.39355 0.71658 0.0
H1074 H 0.96025 0.29178 0.70068 0.0
H1075 H 0.98917 0.3349 0.7195 0.0
H1076 H 0.81409 0.32869 0.69337 0.0
H1077 H 0.84245 0.37188 0.71191 0.0
H1078 H 0.82092 0.30196 0.66102 0.0
H1079 H 0.83752 0.26896 0.65602 0.0
C1080 C 0.20202 0.00779 0.62491 0.0
C1081 C 0.20227 0.97326 0.62941 0.0
C1082 C 0.2639 0.01072 0.65599 0.0
C1083 C 0.2628 0.04523 0.65234 0.0
N1084 N 0.22538 0.07485 0.63853 0.0
N1085 N 0.22884 0.94019 0.65219 0.0
C1086 C 0.23034 0.04328 0.63822 0.0
C1087 C 0.23175 0.97422 0.64597 0.0
N1088 N 0.17512 0.00682 0.60755 0.0
N1089 N 0.29649 0.01292 0.66793 0.0
H1090 H 0.20624 0.91302 0.64466 0.0
H1091 H 0.24689 0.93866 0.66617 0.0
H1092 H 0.32044 0.03891 0.67572 0.0
H1093 H 0.3012 0.9895 0.66861 0.0
H1094 H 0.17675 0.03168 0.60116 0.0
H1095 H 0.15258 0.98114 0.59822 0.0
H1096 H 0.20029 0.07415 0.63063 0.0
H1097 H 0.24438 0.10078 0.64898 0.0
C1098 C 1.01193 0.18563 0.62352 0.0
C1099 C 0.04544 0.22361 0.62554 0.0
C1100 C 1.00866 0.24831 0.64808 0.0
C1101 C 0.9762 0.20985 0.64764 0.0
N1102 N 0.94991 0.14097 0.63927 0.0
N1103 N 0.07851 0.28983 0.64341 0.0
C1104 C 0.97873 0.17823 0.63661 0.0
C1105 C 0.04466 0.25457 0.639 0.0
N1106 N 1.01118 0.15691 0.60833 0.0
N1107 N 1.00443 0.27905 0.65585 0.0
H1108 H 0.10527 0.29548 0.63688 0.0
H1109 H 0.08091 0.31233 0.65526 0.0
H1110 H 0.97828 0.27572 0.662 0.0
H1111 H 0.02553 0.30786 0.65414 0.0
H1112 H 0.98591 0.12993 0.60386 0.0
H1113 H 0.0349 0.16104 0.5985 0.0
H1114 H 0.95205 0.11672 0.63384 0.0
H1115 H 0.92551 0.13435 0.64907 0.0
C1116 C 0.82368 0.81469 0.63536 0.0
C1117 C 0.78437 0.80705 0.63638 0.0
C1118 C 0.76585 0.7454 0.65364 0.0
C1119 C 0.8059 0.75479 0.65489 0.0
N1120 N 0.8743 0.80145 0.65085 0.0
N1121 N 0.71982 0.76908 0.65082 0.0
C1122 C 0.83526 0.79039 0.6469 0.0
C1123 C 0.756 0.77362 0.64692 0.0
N1124 N 0.84949 0.8441 0.62248 0.0
N1125 N 0.73691 0.70873 0.65733 0.0
H1126 H 0.71159 0.78928 0.64622 0.0
H1127 H 0.69945 0.74722 0.66066 0.0
H1128 H 0.74293 0.68668 0.66074 0.0
H1129 H 0.70686 0.6991 0.65432 0.0
H1130 H 0.87707 0.84823 0.61876 0.0
H1131 H 0.84212 0.86242 0.61361 0.0
H1132 H 0.89722 0.82884 0.64775 0.0
H1133 H 0.88393 0.78456 0.65937 0.0
C1134 C 0.98956 0.78234 0.62183 0.0
C1135 C 0.02377 0.80293 0.63868 0.0
C1136 C 0.98328 0.77637 0.67302 0.0
C1137 C 0.94893 0.75618 0.65633 0.0
N1138 N 0.91825 0.75036 0.6157 0.0
N1139 N 0.04922 0.83196 0.68018 0.0
C1140 C 0.95171 0.76226 0.63094 0.0
C1141 C 0.01943 0.80399 0.66427 0.0
N1142 N 0.99307 0.78147 0.5971 0.0
N1143 N 0.98228 0.76782 0.69693 0.0
H1144 H 0.07483 0.85468 0.67429 0.0
H1145 H 0.04614 0.83557 0.69879 0.0
H1146 H 0.95707 0.74643 0.704 0.0
H1147 H 1.00763 0.77917 0.70905 0.0
H1148 H 0.96986 0.76265 0.58425 0.0
H1149 H 0.01959 0.79811 0.58935 0.0
H1150 H 0.91861 0.75738 0.59761 0.0
H1151 H 0.89009 0.73716 0.62182 0.0
C1152 C 0.23911 0.20259 0.62149 0.0
C1153 C 0.22053 0.21527 0.63838 0.0
C1154 C 0.25376 0.20255 0.67273 0.0
C1155 C 0.27164 0.18885 0.65602 0.0
N1156 N 0.27211 0.16569 0.6144 0.0
N1157 N 0.198 0.21132 0.67896 0.0
C1158 C 0.26168 0.18593 0.63032 0.0
C1159 C 0.22391 0.21011 0.66365 0.0
N1160 N 0.23558 0.20673 0.59701 0.0
N1161 N 0.26666 0.21058 0.69712 0.0
H1162 H 0.1738 0.21367 0.67264 0.0
H1163 H 0.19748 0.20473 0.69717 0.0
H1164 H 0.29015 0.20795 0.7045 0.0
H1165 H 0.25697 0.22408 0.70952 0.0
H1166 H 0.25276 0.2031 0.58438 0.0
H1167 H 0.21672 0.2155 0.58938 0.0
H1168 H 0.26224 0.15918 0.59582 0.0
H1169 H 0.28726 0.15178 0.62009 0.0
C1170 C 0.80174 0.01422 0.63089 0.0
C1171 C 0.7958 0.98991 0.6503 0.0
C1172 C 0.82197 0.04648 0.68037 0.0
C1173 C 0.82891 0.07084 0.66103 0.0
N1174 N 0.83747 0.07933 0.61801 0.0
N1175 N 0.81615 0.98644 0.69213 0.0
C1176 C 0.82243 0.05515 0.63628 0.0
C1177 C 0.81096 0.00709 0.67464 0.0
N1178 N 0.78714 0.99845 0.60734 0.0
N1179 N 0.8238 0.06014 0.70409 0.0
H1180 H 0.81195 0.95872 0.68817 0.0
H1181 H 0.82981 0.99886 0.70965 0.0
H1182 H 0.82992 0.0883 0.709 0.0
H1183 H 0.81515 0.04225 0.71846 0.0
H1184 H 0.78615 0.01461 0.59325 0.0
H1185 H 0.77392 0.96891 0.60203 0.0
H1186 H 0.83701 0.06946 0.59992 0.0
H1187 H 0.85439 0.10945 0.62141 0.0
C1188 C 0.48126 0.33648 0.69184 0.0
C1189 C 0.4892 0.35169 0.71676 0.0
C1190 C 0.44898 0.28532 0.72885 0.0
C1191 C 0.43505 0.27192 0.70384 0.0
N1192 N 0.43253 0.28729 0.66185 0.0
N1193 N 0.48116 0.3401 0.75963 0.0
C1194 C 0.44981 0.29814 0.68538 0.0
C1195 C 0.4733 0.32593 0.7355 0.0
N1196 N 0.50436 0.35801 0.67438 0.0
N1197 N 0.44062 0.25928 0.74609 0.0
H1198 H 0.50156 0.36888 0.76563 0.0
H1199 H 0.46608 0.32359 0.77369 0.0
H1200 H 0.42395 0.22932 0.74186 0.0
H1201 H 0.45339 0.26706 0.76412 0.0
H1202 H 0.50133 0.34678 0.65626 0.0
H1203 H 0.52977 0.38503 0.67863 0.0
H1204 H 0.44014 0.30669 0.64832 0.0
H1205 H 0.40758 0.26036 0.65659 0.0
C1206 C 0.70332 0.11782 0.72391 0.0
C1207 C 0.68976 0.14495 0.72448 0.0
C1208 C 0.74484 0.1881 0.70151 0.0
C1209 C 0.75803 0.1608 0.70024 0.0
N1210 N 0.74268 0.09479 0.704 0.0
N1211 N 0.68864 0.19715 0.70469 0.0
C1212 C 0.7351 0.12411 0.70958 0.0
C1213 C 0.70754 0.17723 0.71027 0.0
N1214 N 0.68642 0.08638 0.73734 0.0
N1215 N 0.7689 0.22532 0.69603 0.0
H1216 H 0.65991 0.18815 0.70909 0.0
H1217 H 0.69937 0.21924 0.69289 0.0
H1218 H 0.79772 0.23537 0.6916 0.0
H1219 H 0.7619 0.24717 0.69881 0.0
H1220 H 0.69845 0.06865 0.74023 0.0
H1221 H 0.6614 0.07901 0.74666 0.0
H1222 H 0.72471 0.06639 0.70834 0.0
H1223 H 0.76448 0.09776 0.69267 0.0
C1224 C 0.90013 0.55329 0.68182 0.0
C1225 C 0.90586 0.54835 0.70692 0.0
C1226 C 0.87309 0.58511 0.71801 0.0
C1227 C 0.87566 0.59691 0.69383 0.0
N1228 N 0.89742 0.5963 0.65332 0.0
N1229 N 0.89705 0.55977 0.74946 0.0
C1230 C 0.89058 0.58199 0.67582 0.0
C1231 C 0.89202 0.56425 0.72519 0.0
N1232 N 0.90223 0.52975 0.66365 0.0
N1233 N 0.85084 0.59202 0.73374 0.0
H1234 H 0.90772 0.54223 0.75567 0.0
H1235 H 0.89248 0.57521 0.76361 0.0
H1236 H 0.83506 0.60563 0.7288 0.0
H1237 H 0.84449 0.58057 0.7507 0.0
H1238 H 0.8952 0.53049 0.64514 0.0
H1239 H 0.90559 0.50608 0.66716 0.0
H1240 H 0.91192 0.58891 0.64051 0.0
H1241 H 0.89246 0.61851 0.64841 0.0
C1242 C 0.43106 0.92727 0.19965 0.0
C1243 C 0.45364 0.94837 0.22187 0.0
C1244 C 0.47966 0.00845 0.20141 0.0
C1245 C 0.46582 0.98629 0.17829 0.0
N1246 N 0.40369 0.93271 0.1606 0.0
N1247 N 0.49836 0.01023 0.24442 0.0
C1248 C 0.43422 0.94753 0.1785 0.0
C1249 C 0.47749 0.98938 0.22296 0.0
N1250 N 0.40691 0.88794 0.19857 0.0
N1251 N 0.48834 0.04616 0.20325 0.0
H1252 H 0.49681 0.99751 0.26083 0.0
H1253 H 0.51919 0.03977 0.24536 0.0
H1254 H 0.48304 0.05858 0.18824 0.0
H1255 H 0.49508 0.0628 0.21998 0.0
H1256 H 0.39298 0.87099 0.1821 0.0
H1257 H 0.40307 0.87212 0.21381 0.0
H1258 H 0.37806 0.9059 0.16098 0.0
H1259 H 0.40175 0.94997 0.14751 0.0
C1260 C 0.04025 0.50958 0.22183 0.0
C1261 C 0.07763 0.51226 0.22553 0.0
C1262 C 0.07532 0.49464 0.18173 0.0
C1263 C 0.04035 0.49661 0.17768 0.0
N1264 N 0.99244 0.51159 0.19312 0.0
N1265 N 0.13374 0.51285 0.20885 0.0
C1266 C 0.0235 0.50553 0.19754 0.0
C1267 C 0.096 0.50616 0.20545 0.0
N1268 N 0.02036 0.50998 0.24158 0.0
N1269 N 0.08818 0.48085 0.16307 0.0
H1270 H 0.14992 0.52152 0.22596 0.0
H1271 H 0.15021 0.51297 0.19447 0.0
H1272 H 0.07371 0.47204 0.14543 0.0
H1273 H 0.11107 0.4749 0.16558 0.0
H1274 H 0.99126 0.50409 0.24001 0.0
H1275 H 0.0316 0.51265 0.25971 0.0
H1276 H 0.98178 0.52239 0.20663 0.0
H1277 H 0.97939 0.50905 0.17552 0.0
C1278 C 0.50705 0.52407 0.21429 0.0
C1279 C 0.49704 0.5535 0.21784 0.0
C1280 C 0.51141 0.57071 0.17565 0.0
C1281 C 0.51914 0.53978 0.17165 0.0
N1282 N 0.51795 0.48281 0.18541 0.0
N1283 N 0.48265 0.60018 0.20101 0.0
C1284 C 0.51507 0.51519 0.19048 0.0
C1285 C 0.49716 0.57548 0.19822 0.0
N1286 N 0.51028 0.50559 0.23387 0.0
N1287 N 0.51886 0.59623 0.15816 0.0
H1288 H 0.47172 0.60415 0.21723 0.0
H1289 H 0.47818 0.61413 0.18668 0.0
H1290 H 0.52873 0.59333 0.14125 0.0
H1291 H 0.5182 0.6219 0.16105 0.0
H1292 H 0.52187 0.48712 0.23312 0.0
H1293 H 0.50406 0.51086 0.2515 0.0
H1294 H 0.51099 0.46141 0.19748 0.0
H1295 H 0.5243 0.47566 0.16828 0.0
C1296 C 0.92697 0.43037 0.81004 0.0
C1297 C 0.94991 0.45339 0.79176 0.0
C1298 C 1.00467 0.4936 0.82292 0.0
C1299 C 0.98317 0.46847 0.84078 0.0
N1300 N 0.92625 0.40994 0.85111 0.0
N1301 N 1.0128 0.50256 0.77974 0.0
C1302 C 0.9449 0.43599 0.83429 0.0
C1303 C 0.98939 0.48387 0.79791 0.0
N1304 N 0.88781 0.40392 0.80434 0.0
N1305 N 0.03924 0.52732 0.82999 0.0
H1306 H 1.00284 0.49619 0.76114 0.0
H1307 H 0.04303 0.52198 0.78287 0.0
H1308 H 0.05155 0.53536 0.84815 0.0
H1309 H 0.05398 0.5489 0.81827 0.0
H1310 H 0.86847 0.3891 0.81738 0.0
H1311 H 0.87379 0.39896 0.78673 0.0
H1312 H 0.90034 0.38344 0.84676 0.0
H1313 H 0.93827 0.41342 0.86913 0.0
C1314 C 0.55922 0.51645 0.79754 0.0
C1315 C 0.59129 0.50946 0.79756 0.0
C1316 C 0.60084 0.52043 0.8425 0.0
C1317 C 0.56525 0.52166 0.84253 0.0
N1318 N 0.50762 0.51603 0.82021 0.0
N1319 N 0.64158 0.50226 0.81971 0.0
C1320 C 0.5438 0.51877 0.82007 0.0
C1321 C 0.61212 0.51111 0.81995 0.0
N1322 N 0.54364 0.52101 0.7759 0.0
N1323 N 0.62413 0.52887 0.86394 0.0
H1324 H 0.65148 0.49665 0.80349 0.0
H1325 H 0.65448 0.4981 0.83548 0.0
H1326 H 0.61673 0.53589 0.88074 0.0
H1327 H 0.65225 0.53215 0.86481 0.0
H1328 H 0.52291 0.53006 0.77492 0.0
H1329 H 0.55423 0.51936 0.75902 0.0
H1330 H 0.48867 0.50939 0.80442 0.0
H1331 H 0.49484 0.51705 0.83628 0.0
C1332 C 0.55976 0.08846 0.82355 0.0
C1333 C 0.53642 0.0672 0.80154 0.0
C1334 C 0.49111 0.01482 0.82535 0.0
C1335 C 0.51653 0.03432 0.84701 0.0
N1336 N 0.57857 0.08659 0.86613 0.0
N1337 N 0.48398 0.00716 0.78084 0.0
C1338 C 0.55188 0.07033 0.84595 0.0
C1339 C 0.50321 0.0295 0.80226 0.0
N1340 N 0.58859 0.12643 0.82322 0.0
N1341 N 0.45472 0.98302 0.82693 0.0
H1342 H 0.4922 0.0167 0.76356 0.0
H1343 H 0.46228 0.97799 0.78019 0.0
H1344 H 0.44456 0.97162 0.84351 0.0
H1345 H 0.43323 0.97011 0.81215 0.0
H1346 H 0.60366 0.14466 0.83907 0.0
H1347 H 0.59515 0.1408 0.80723 0.0
H1348 H 0.60673 0.11057 0.86576 0.0
H1349 H 0.5739 0.07409 0.88279 0.0
C1350 C 0.16301 0.31245 0.5548 0.0
C1351 C 0.12866 0.27532 0.55472 0.0
C1352 C 0.11095 0.27839 0.51149 0.0
C1353 C 0.1476 0.31333 0.51088 0.0
N1354 N 0.21165 0.3602 0.53086 0.0
N1355 N 0.07256 0.22019 0.53214 0.0
C1356 C 0.17449 0.32948 0.53226 0.0
C1357 C 0.10323 0.25754 0.53283 0.0
N1358 N 0.18406 0.33203 0.57654 0.0
N1359 N 0.0831 0.26571 0.49194 0.0
H1360 H 0.06603 0.20392 0.54731 0.0
H1361 H 0.05562 0.20421 0.51604 0.0
H1362 H 0.08768 0.28027 0.47607 0.0
H1363 H 0.0543 0.24277 0.49227 0.0
H1364 H 0.20688 0.36084 0.57803 0.0
H1365 H 0.17632 0.32081 0.59349 0.0
H1366 H 0.23393 0.37041 0.54516 0.0
H1367 H 0.22145 0.37334 0.51468 0.0
C1368 C 0.68871 0.79006 0.55717 0.0
C1369 C 0.70219 0.82675 0.57023 0.0
C1370 C 0.68118 0.84769 0.53408 0.0
C1371 C 0.67826 0.81557 0.51969 0.0
N1372 N 0.67399 0.7528 0.51829 0.0
N1373 N 0.67855 0.87171 0.575 0.0
C1374 C 0.68054 0.78579 0.53143 0.0
C1375 C 0.68898 0.8506 0.55993 0.0
N1376 N 0.67683 0.75736 0.56896 0.0
N1377 N 0.67672 0.87549 0.52322 0.0
H1378 H 0.67883 0.86968 0.59396 0.0
H1379 H 0.66519 0.88689 0.56856 0.0
H1380 H 0.66929 0.87368 0.50443 0.0
H1381 H 0.68278 0.90143 0.53277 0.0
H1382 H 0.67435 0.75674 0.58787 0.0
H1383 H 0.67435 0.75674 0.58787 0.0
H1384 H 0.67594 0.73079 0.52664 0.0
H1385 H 0.66801 0.74823 0.49923 0.0
C1386 C 0.16684 0.85448 0.54718 0.0
C1387 C 0.16035 0.88598 0.55232 0.0
C1388 C 0.18034 0.90853 0.51185 0.0
C1389 C 0.18412 0.87552 0.50605 0.0
N1390 N 0.17292 0.8128 0.51603 0.0
N1391 N 0.15251 0.93805 0.53788 0.0
C1392 C 0.17495 0.84717 0.52308 0.0
C1393 C 0.16453 0.91152 0.53411 0.0
N1394 N 0.16693 0.83253 0.56554 0.0
N1395 N 0.1933 0.93777 0.49657 0.0
H1396 H 0.14027 0.94069 0.55386 0.0
H1397 H 0.15113 0.9548 0.52431 0.0
H1398 H 0.20542 0.93687 0.48018 0.0
H1399 H 0.19528 0.96438 0.50116 0.0
H1400 H 0.17589 0.81205 0.56351 0.0
H1401 H 0.16119 0.83695 0.58346 0.0
H1402 H 0.16232 0.78942 0.5268 0.0
H1403 H 0.17839 0.80627 0.49846 0.0
C1404 C 0.59343 0.76441 0.15068 0.0
C1405 C 0.61494 0.78853 0.13237 0.0
C1406 C 0.66978 0.82967 0.16325 0.0
C1407 C 0.65013 0.80319 0.18092 0.0
N1408 N 0.59607 0.74199 0.19069 0.0
N1409 N 0.67645 0.83984 0.12013 0.0
C1410 C 0.61267 0.76957 0.17444 0.0
C1411 C 0.65393 0.82004 0.13834 0.0
N1412 N 0.5543 0.73737 0.14558 0.0
N1413 N 0.70291 0.86463 0.17038 0.0
H1414 H 0.66619 0.8334 0.10158 0.0
H1415 H 0.70645 0.86025 0.12318 0.0
H1416 H 0.71527 0.87301 0.18852 0.0
H1417 H 0.71597 0.88676 0.15877 0.0
H1418 H 0.53608 0.72166 0.15888 0.0
H1419 H 0.53909 0.73307 0.12847 0.0
H1420 H 0.57089 0.71498 0.18607 0.0
H1421 H 0.60936 0.74467 0.20823 0.0
C1422 C 0.21525 0.84267 0.1301 0.0
C1423 C 0.24874 0.838 0.12941 0.0
C1424 C 0.26221 0.85315 0.17407 0.0
C1425 C 0.22574 0.85249 0.17503 0.0
N1426 N 0.16451 0.84099 0.15429 0.0
N1427 N 0.30221 0.83473 0.15072 0.0
C1428 C 0.20151 0.84599 0.15311 0.0
C1429 C 0.27194 0.84239 0.15138 0.0
N1430 N 0.19689 0.84448 0.10871 0.0
N1431 N 0.28787 0.86486 0.19471 0.0
H1432 H 0.31065 0.82746 0.13442 0.0
H1433 H 0.31713 0.8329 0.16641 0.0
H1434 H 0.28172 0.87305 0.2116 0.0
H1435 H 0.31655 0.86972 0.19464 0.0
H1436 H 0.17486 0.85184 0.10815 0.0
H1437 H 0.20628 0.84229 0.09149 0.0
H1438 H 0.14391 0.83185 0.13909 0.0
H1439 H 0.15292 0.84257 0.17077 0.0
C1440 C 0.18313 0.37149 0.13533 0.0
C1441 C 0.20381 0.41251 0.13513 0.0
C1442 C 0.2086 0.41978 0.18024 0.0
C1443 C 0.18573 0.37878 0.18034 0.0
N1444 N 0.14563 0.31574 0.15823 0.0
N1445 N 0.23132 0.47597 0.15668 0.0
C1446 C 0.17142 0.35466 0.15793 0.0
C1447 C 0.21513 0.43676 0.15741 0.0
N1448 N 0.17559 0.34864 0.11397 0.0
N1449 N 0.2251 0.44234 0.20194 0.0
H1450 H 0.23719 0.48943 0.14033 0.0
H1451 H 0.23622 0.49488 0.17201 0.0
H1452 H 0.22052 0.43098 0.219 0.0
H1453 H 0.2456 0.47192 0.20306 0.0
H1454 H 0.16478 0.31886 0.11326 0.0
H1455 H 0.1829 0.35983 0.09698 0.0
H1456 H 0.13068 0.29722 0.14248 0.0
H1457 H 0.13656 0.30232 0.17442 0.0
C1458 C 0.77271 0.5951 0.86534 0.0
C1459 C 0.79647 0.61425 0.8876 0.0
C1460 C 0.84316 0.66794 0.86518 0.0
C1461 C 0.81798 0.65016 0.84322 0.0
N1462 N 0.7553 0.60051 0.82314 0.0
N1463 N 0.84996 0.67208 0.90968 0.0
C1464 C 0.78169 0.61477 0.84352 0.0
C1465 C 0.83043 0.65167 0.88779 0.0
N1466 N 0.74249 0.55757 0.86482 0.0
N1467 N 0.87993 0.69955 0.86429 0.0
H1468 H 0.84138 0.66119 0.92663 0.0
H1469 H 0.87236 0.70106 0.91119 0.0
H1470 H 0.89045 0.71227 0.84809 0.0
H1471 H 0.9013 0.71115 0.87916 0.0
H1472 H 0.7272 0.54055 0.84863 0.0
H1473 H 0.73474 0.54229 0.88041 0.0
H1474 H 0.72661 0.57718 0.82303 0.0
H1475 H 0.76087 0.61405 0.80682 0.0
C1476 C 0.36851 0.16562 0.89526 0.0
C1477 C 0.40438 0.16571 0.90034 0.0
C1478 C 0.40453 0.14812 0.8568 0.0
C1479 C 0.37165 0.15316 0.85142 0.0
N1480 N 0.32554 0.17211 0.86498 0.0
N1481 N 0.45902 0.16073 0.88609 0.0
C1482 C 0.35433 0.16319 0.87051 0.0
C1483 C 0.42302 0.15772 0.88116 0.0
N1484 N 0.34766 0.1672 0.91416 0.0
N1485 N 0.41746 0.13334 0.83874 0.0
H1486 H 0.4731 0.16708 0.90378 0.0
H1487 H 0.47619 0.15959 0.87251 0.0
H1488 H 0.40458 0.126 0.8207 0.0
H1489 H 0.43865 0.12527 0.84203 0.0
H1490 H 0.31934 0.16324 0.91157 0.0
H1491 H 0.35704 0.16874 0.93257 0.0
H1492 H 0.31502 0.18386 0.87799 0.0
H1493 H 0.31448 0.17103 0.84704 0.0
C1494 C 0.82737 0.18531 0.87713 0.0
C1495 C 0.82022 0.21654 0.88159 0.0
C1496 C 0.84204 0.23902 0.84136 0.0
C1497 C 0.84677 0.2064 0.83626 0.0
N1498 N 0.83608 0.14417 0.84694 0.0
N1499 N 0.81241 0.26807 0.86617 0.0
C1500 C 0.83702 0.17818 0.85345 0.0
C1501 C 0.82497 0.24184 0.8631 0.0
N1502 N 0.82673 0.16355 0.89579 0.0
N1503 N 0.85535 0.2681 0.82596 0.0
H1504 H 0.79933 0.27061 0.88177 0.0
H1505 H 0.81148 0.28467 0.85235 0.0
H1506 H 0.86827 0.26727 0.8099 0.0
H1507 H 0.85674 0.29455 0.83013 0.0
H1508 H 0.83614 0.14335 0.89437 0.0
H1509 H 0.81981 0.1678 0.91341 0.0
H1510 H 0.82517 0.12081 0.85773 0.0
H1511 H 0.84288 0.13789 0.82972 0.0
C1512 C 0.33082 0.13907 0.46915 0.0
C1513 C 0.29034 0.12747 0.46452 0.0
C1514 C 0.28493 0.13487 0.50861 0.0
C1515 C 0.32425 0.14266 0.51333 0.0
N1516 N 0.38229 0.14502 0.49844 0.0
N1517 N 0.2268 0.10744 0.47969 0.0
C1518 C 0.3466 0.14278 0.49369 0.0
C1519 C 0.26675 0.12341 0.48422 0.0
N1520 N 0.35448 0.14773 0.45019 0.0
N1521 N 0.26542 0.13966 0.5273 0.0
H1522 H 0.21235 0.09841 0.46205 0.0
H1523 H 0.20758 0.09994 0.49351 0.0
H1524 H 0.27792 0.14843 0.5454 0.0
H1525 H 0.23829 0.13835 0.52451 0.0
H1526 H 0.38507 0.16038 0.45277 0.0
H1527 H 0.34405 0.14554 0.43192 0.0
H1528 H 0.39789 0.14105 0.48481 0.0
H1529 H 0.39471 0.14728 0.51618 0.0
C1530 C 0.91565 0.20442 0.46835 0.0
C1531 C 0.93477 0.1822 0.46698 0.0
C1532 C 0.92894 0.17288 0.51079 0.0
C1533 C 0.90972 0.19505 0.51216 0.0
N1534 N 0.89452 0.24052 0.49438 0.0
N1535 N 0.96907 0.15434 0.48757 0.0
C1536 C 0.90635 0.21371 0.49159 0.0
C1537 C 0.94466 0.16954 0.48852 0.0
N1538 N 0.90443 0.21482 0.44734 0.0
N1539 N 0.93016 0.15317 0.53022 0.0
H1540 H 0.98099 0.15171 0.47143 0.0
H1541 H 0.98043 0.14786 0.50306 0.0
H1542 H 0.91892 0.15469 0.54684 0.0
H1543 H 0.93973 0.13308 0.52931 0.0
H1544 H 0.88615 0.22682 0.44689 0.0
H1545 H 0.9112 0.20916 0.42998 0.0
H1546 H 0.89508 0.25789 0.48066 0.0
H1547 H 0.88772 0.24805 0.51125 0.0
C1548 C 0.89335 0.76036 0.48965 0.0
C1549 C 0.87214 0.73872 0.46719 0.0
C1550 C 0.8301 0.68303 0.48987 0.0
C1551 C 0.85368 0.70338 0.51201 0.0
N1552 N 0.91264 0.75858 0.53213 0.0
N1553 N 0.82559 0.67696 0.44537 0.0
C1554 C 0.88678 0.74126 0.51165 0.0
C1555 C 0.84203 0.69927 0.46715 0.0
N1556 N 0.9186 0.79949 0.49018 0.0
N1557 N 0.79541 0.6489 0.49062 0.0
H1558 H 0.8339 0.68767 0.42836 0.0
H1559 H 0.80651 0.64704 0.44424 0.0
H1560 H 0.78522 0.63629 0.5069 0.0
H1561 H 0.77496 0.63495 0.47542 0.0
H1562 H 0.93159 0.81741 0.50641 0.0
H1563 H 0.9238 0.81473 0.47458 0.0
H1564 H 0.93945 0.78441 0.53221 0.0
H1565 H 0.90913 0.74532 0.54848 0.0
loop_
_geom_bond_atom_site_label_1
_geom_bond_atom_site_label_2
_geom_bond_distance
_geom_bond_site_symmetry_2
_ccdc_geom_bond_type
H0 C7 0.929 . S
H1 C10 0.930 . S
H2 C12 0.929 . S
H3 C4 0.969 . S
C4 H3 0.969 . S
C4 O5 1.550 . S
C4 H6 0.973 . S
O5 C4 1.550 . S
O5 C11 1.412 . S
H6 C4 0.973 . S
C7 H0 0.929 . S
C7 C8 1.400 . S
C7 C9 1.364 . S
C8 C7 1.400 . S
C8 C12 1.377 . S
C9 C7 1.364 . S
C9 C10 1.374 . S
C10 H1 0.930 . S
C10 C9 1.374 . S
C10 C11 1.383 . S
C11 O5 1.412 . S
C11 C10 1.383 . S
C11 C12 1.394 . S
C12 H2 0.929 . S
C12 C8 1.377 . S
C12 C11 1.394 . S
H13 C20 0.929 . S
H14 C23 0.930 . S
H15 C25 0.929 . S
H16 C17 0.969 . S
C17 H16 0.969 . S
C17 O18 1.550 . S
C17 H19 0.973 . S
O18 C17 1.550 . S
O18 C24 1.412 . S
H19 C17 0.973 . S
C20 H13 0.929 . S
C20 C21 1.400 . S
C20 C22 1.364 . S
C21 C20 1.400 . S
C21 C25 1.377 . S
C22 C20 1.364 . S
C22 C23 1.374 . S
C23 H14 0.930 . S
C23 C22 1.374 . S
C23 C24 1.383 . S
C24 O18 1.412 . S
C24 C23 1.383 . S
C24 C25 1.394 . S
C25 H15 0.929 . S
C25 C21 1.377 . S
C25 C24 1.394 . S
H26 C33 0.929 . S
H27 C36 0.930 . S
H28 C38 0.929 . S
H29 C30 0.969 . S
C30 H29 0.969 . S
C30 O31 1.550 . S
C30 H32 0.973 . S
O31 C30 1.550 . S
O31 C37 1.412 . S
H32 C30 0.973 . S
C33 H26 0.929 . S
C33 C34 1.400 . S
C33 C35 1.364 . S
C34 C33 1.400 . S
C34 C38 1.377 . S
C35 C33 1.364 . S
C35 C36 1.374 . S
C36 H27 0.930 . S
C36 C35 1.374 . S
C36 C37 1.383 . S
C37 O31 1.412 . S
C37 C36 1.383 . S
C37 C38 1.394 . S
C38 H28 0.929 . S
C38 C34 1.377 . S
C38 C37 1.394 . S
H39 C46 0.929 . S
H40 C49 0.930 . S
H41 C51 0.929 . S
H42 C43 0.969 . S
C43 H42 0.969 . S
C43 O44 1.550 . S
C43 H45 0.973 . S
O44 C43 1.550 . S
O44 C50 1.412 . S
H45 C43 0.973 . S
C46 H39 0.929 . S
C46 C47 1.400 . S
C46 C48 1.364 . S
C47 C46 1.400 . S
C47 C51 1.377 . S
C48 C46 1.364 . S
C48 C49 1.374 . S
C49 H40 0.930 . S
C49 C48 1.374 . S
C49 C50 1.383 . S
C50 O44 1.412 . S
C50 C49 1.383 . S
C50 C51 1.394 . S
C51 H41 0.929 . S
C51 C47 1.377 . S
C51 C50 1.394 . S
H52 C59 0.929 . S
H53 C62 0.930 . S
H54 C64 0.929 . S
H55 C56 0.969 . S
C56 H55 0.969 . S
C56 O57 1.550 . S
C56 H58 0.973 . S
O57 C56 1.550 . S
O57 C63 1.412 . S
H58 C56 0.973 . S
C59 H52 0.929 . S
C59 C60 1.400 . S
C59 C61 1.364 . S
C60 C59 1.400 . S
C60 C64 1.377 . S
C61 C59 1.364 . S
C61 C62 1.374 . S
C62 H53 0.930 . S
C62 C61 1.374 . S
C62 C63 1.383 . S
C63 O57 1.412 . S
C63 C62 1.383 . S
C63 C64 1.394 . S
C64 H54 0.929 . S
C64 C60 1.377 . S
C64 C63 1.394 . S
H65 C72 0.929 . S
H66 C75 0.930 . S
H67 C77 0.929 . S
H68 C69 0.969 . S
C69 H68 0.969 . S
C69 O70 1.550 . S
C69 H71 0.973 . S
O70 C69 1.550 . S
O70 C76 1.412 . S
H71 C69 0.973 . S
C72 H65 0.929 . S
C72 C73 1.400 . S
C72 C74 1.364 . S
C73 C72 1.400 . S
C73 C77 1.377 . S
C74 C72 1.364 . S
C74 C75 1.374 . S
C75 H66 0.930 . S
C75 C74 1.374 . S
C75 C76 1.383 . S
C76 O70 1.412 . S
C76 C75 1.383 . S
C76 C77 1.394 . S
C77 H67 0.929 . S
C77 C73 1.377 . S
C77 C76 1.394 . S
H78 C85 0.929 . S
H79 C88 0.930 . S
H80 C90 0.929 . S
H81 C82 0.969 . S
C82 H81 0.969 . S
C82 O83 1.550 . S
C82 H84 0.973 . S
O83 C82 1.550 . S
O83 C89 1.412 . S
H84 C82 0.973 . S
C85 H78 0.929 . S
C85 C86 1.400 . S
C85 C87 1.364 . S
C86 C85 1.400 . S
C86 C90 1.377 . S
C87 C85 1.364 . S
C87 C88 1.374 . S
C88 H79 0.930 . S
C88 C87 1.374 . S
C88 C89 1.383 . S
C89 O83 1.412 . S
C89 C88 1.383 . S
C89 C90 1.394 . S
C90 H80 0.929 . S
C90 C86 1.377 . S
C90 C89 1.394 . S
H91 C98 0.929 . S
H92 C101 0.930 . S
H93 C103 0.929 . S
H94 C95 0.969 . S
C95 H94 0.969 . S
C95 O96 1.550 . S
C95 H97 0.973 . S
O96 C95 1.550 . S
O96 C102 1.412 . S
H97 C95 0.973 . S
C98 H91 0.929 . S
C98 C99 1.400 . S
C98 C100 1.364 . S
C99 C98 1.400 . S
C99 C103 1.377 . S
C100 C98 1.364 . S
C100 C101 1.374 . S
C101 H92 0.930 . S
C101 C100 1.374 . S
C101 C102 1.383 . S
C102 O96 1.412 . S
C102 C101 1.383 . S
C102 C103 1.394 . S
C103 H93 0.929 . S
C103 C99 1.377 . S
C103 C102 1.394 . S
H104 C111 0.929 . S
H105 C114 0.930 . S
H106 C116 0.929 . S
H107 C108 0.969 . S
C108 H107 0.969 . S
C108 O109 1.550 . S
C108 H110 0.973 . S
O109 C108 1.550 . S
O109 C115 1.412 . S
H110 C108 0.973 . S
C111 H104 0.929 . S
C111 C112 1.400 . S
C111 C113 1.364 . S
C112 C111 1.400 . S
C112 C116 1.377 . S
C113 C111 1.364 . S
C113 C114 1.374 . S
C114 H105 0.930 . S
C114 C113 1.374 . S
C114 C115 1.383 . S
C115 O109 1.412 . S
C115 C114 1.383 . S
C115 C116 1.394 . S
C116 H106 0.929 . S
C116 C112 1.377 . S
C116 C115 1.394 . S
H117 C124 0.929 . S
H118 C127 0.930 . S
H119 C129 0.929 . S
H120 C121 0.969 . S
C121 H120 0.969 . S
C121 O122 1.550 . S
C121 H123 0.973 . S
O122 C121 1.550 . S
O122 C128 1.412 . S
H123 C121 0.973 . S
C124 H117 0.929 . S
C124 C125 1.400 . S
C124 C126 1.364 . S
C125 C124 1.400 . S
C125 C129 1.377 . S
C126 C124 1.364 . S
C126 C127 1.374 . S
C127 H118 0.930 . S
C127 C126 1.374 . S
C127 C128 1.383 . S
C128 O122 1.412 . S
C128 C127 1.383 . S
C128 C129 1.394 . S
C129 H119 0.929 . S
C129 C125 1.377 . S
C129 C128 1.394 . S
H130 C137 0.929 . S
H131 C140 0.930 . S
H132 C142 0.929 1_554 S
H133 C134 0.969 . S
C134 H133 0.969 . S
C134 O135 1.550 . S
C134 H136 0.973 . S
O135 C134 1.550 . S
O135 C141 1.412 . S
H136 C134 0.973 . S
C137 H130 0.929 . S
C137 C138 1.400 . S
C137 C139 1.364 . S
C138 C137 1.400 . S
C138 C142 1.377 . S
C139 C137 1.364 . S
C139 C140 1.374 . S
C140 H131 0.930 . S
C140 C139 1.374 . S
C140 C141 1.383 . S
C141 O135 1.412 . S
C141 C140 1.383 . S
C141 C142 1.394 . S
C142 H132 0.929 1_556 S
C142 C138 1.377 . S
C142 C141 1.394 . S
H143 C150 0.929 . S
H144 C153 0.930 . S
H145 C155 0.929 . S
H146 C147 0.969 . S
C147 H146 0.969 . S
C147 O148 1.550 . S
C147 H149 0.973 . S
O148 C147 1.550 . S
O148 C154 1.412 . S
H149 C147 0.973 . S
C150 H143 0.929 . S
C150 C151 1.400 . S
C150 C152 1.364 . S
C151 C150 1.400 . S
C151 C155 1.377 . S
C152 C150 1.364 . S
C152 C153 1.374 . S
C153 H144 0.930 . S
C153 C152 1.374 . S
C153 C154 1.383 . S
C154 O148 1.412 . S
C154 C153 1.383 . S
C154 C155 1.394 . S
C155 H145 0.929 . S
C155 C151 1.377 . S
C155 C154 1.394 . S
H156 C163 0.929 . S
H157 C166 0.930 . S
H158 C168 0.929 . S
H159 C160 0.969 . S
C160 H159 0.969 . S
C160 O161 1.550 . S
C160 H162 0.973 . S
O161 C160 1.550 . S
O161 C167 1.412 . S
H162 C160 0.973 . S
C163 H156 0.929 . S
C163 C164 1.400 . S
C163 C165 1.364 . S
C164 C163 1.400 . S
C164 C168 1.377 . S
C165 C163 1.364 . S
C165 C166 1.374 . S
C166 H157 0.930 . S
C166 C165 1.374 . S
C166 C167 1.383 . S
C167 O161 1.412 . S
C167 C166 1.383 . S
C167 C168 1.394 . S
C168 H158 0.929 . S
C168 C164 1.377 . S
C168 C167 1.394 . S
H169 C176 0.929 . S
H170 C179 0.930 . S
H171 C181 0.929 . S
H172 C173 0.969 . S
C173 H172 0.969 . S
C173 O174 1.550 . S
C173 H175 0.973 . S
O174 C173 1.550 . S
O174 C180 1.412 . S
H175 C173 0.973 . S
C176 H169 0.929 . S
C176 C177 1.400 . S
C176 C178 1.364 . S
C177 C176 1.400 . S
C177 C181 1.377 . S
C178 C176 1.364 . S
C178 C179 1.374 . S
C179 H170 0.930 . S
C179 C178 1.374 . S
C179 C180 1.383 . S
C180 O174 1.412 . S
C180 C179 1.383 . S
C180 C181 1.394 . S
C181 H171 0.929 . S
C181 C177 1.377 . S
C181 C180 1.394 . S
H182 C189 0.929 . S
H183 C192 0.930 . S
H184 C194 0.929 . S
H185 C186 0.969 . S
C186 H185 0.969 . S
C186 O187 1.550 . S
C186 H188 0.973 . S
O187 C186 1.550 . S
O187 C193 1.412 . S
H188 C186 0.973 . S
C189 H182 0.929 . S
C189 C190 1.400 . S
C189 C191 1.364 . S
C190 C189 1.400 . S
C190 C194 1.377 . S
C191 C189 1.364 . S
C191 C192 1.374 . S
C192 H183 0.930 . S
C192 C191 1.374 . S
C192 C193 1.383 . S
C193 O187 1.412 . S
C193 C192 1.383 . S
C193 C194 1.394 . S
C194 H184 0.929 . S
C194 C190 1.377 . S
C194 C193 1.394 . S
H195 C202 0.929 . S
H196 C205 0.930 . S
H197 C207 0.929 . S
H198 C199 0.969 . S
C199 H198 0.969 . S
C199 O200 1.550 . S
C199 H201 0.973 . S
O200 C199 1.550 . S
O200 C206 1.412 . S
H201 C199 0.973 . S
C202 H195 0.929 . S
C202 C203 1.400 . S
C202 C204 1.364 . S
C203 C202 1.400 . S
C203 C207 1.377 . S
C204 C202 1.364 . S
C204 C205 1.374 . S
C205 H196 0.930 . S
C205 C204 1.374 . S
C205 C206 1.383 . S
C206 O200 1.412 . S
C206 C205 1.383 . S
C206 C207 1.394 . S
C207 H197 0.929 . S
C207 C203 1.377 . S
C207 C206 1.394 . S
H208 C215 0.929 . S
H209 C218 0.930 . S
H210 C220 0.929 . S
H211 C212 0.969 . S
C212 H211 0.969 . S
C212 O213 1.550 . S
C212 H214 0.973 . S
O213 C212 1.550 . S
O213 C219 1.412 . S
H214 C212 0.973 . S
C215 H208 0.929 . S
C215 C216 1.400 . S
C215 C217 1.364 . S
C216 C215 1.400 . S
C216 C220 1.377 . S
C217 C215 1.364 . S
C217 C218 1.374 . S
C218 H209 0.930 . S
C218 C217 1.374 . S
C218 C219 1.383 . S
C219 O213 1.412 . S
C219 C218 1.383 . S
C219 C220 1.394 . S
C220 H210 0.929 . S
C220 C216 1.377 . S
C220 C219 1.394 . S
H221 C228 0.929 . S
H222 C231 0.930 . S
H223 C233 0.929 . S
H224 C225 0.969 . S
C225 H224 0.969 . S
C225 O226 1.550 . S
C225 H227 0.973 . S
O226 C225 1.550 . S
O226 C232 1.412 . S
H227 C225 0.973 . S
C228 H221 0.929 . S
C228 C229 1.400 . S
C228 C230 1.364 . S
C229 C228 1.400 . S
C229 C233 1.377 . S
C230 C228 1.364 . S
C230 C231 1.374 . S
C231 H222 0.930 . S
C231 C230 1.374 . S
C231 C232 1.383 . S
C232 O226 1.412 . S
C232 C231 1.383 . S
C232 C233 1.394 . S
C233 H223 0.929 . S
C233 C229 1.377 . S
C233 C232 1.394 . S
Tb234 C244 2.825 1_565 S
Tb234 O245 2.347 1_565 S
Tb234 O248 2.366 1_565 S
Tb234 O253 2.418 . S
Tb234 O254 2.384 . S
Tb234 O257 2.479 . S
Tb234 O258 2.471 1_565 S
Eu235 O246 2.418 . S
Eu235 O247 2.384 . S
Eu235 O250 2.479 . S
Eu235 O251 2.471 1_545 S
Eu235 O252 2.347 1_545 S
Eu235 O255 2.366 1_545 S
Eu235 C265 2.825 . S
C236 O252 1.259 . S
C236 O253 1.265 1_554 S
C237 O254 1.255 1_554 S
C237 O255 1.265 . S
C238 C240 1.380 1_545 S
C238 C241 1.374 . S
C238 C244 1.507 . S
C239 C240 1.384 1_545 S
C239 C243 1.387 . S
C239 H266 0.930 1_545 S
C240 C238 1.380 1_565 S
C240 C239 1.384 1_565 S
C240 H267 0.931 . S
C241 C238 1.374 . S
C241 C242 1.390 . S
C241 H268 0.930 . S
C242 C241 1.390 . S
C242 C243 1.391 . S
C242 H269 0.930 . S
C243 C239 1.387 . S
C243 C242 1.391 . S
C244 Tb234 2.825 1_545 S
C244 C238 1.507 . S
C244 O257 1.238 1_545 S
C244 O258 1.247 . S
O245 Tb234 2.347 1_545 S
O245 C249 1.259 1_556 S
O246 Eu235 2.418 . S
O246 C249 1.265 . S
O247 Eu235 2.384 . S
O247 C256 1.255 1_554 S
O248 Tb234 2.366 1_545 S
O248 C256 1.265 . S
C249 O245 1.259 1_554 S
C249 O246 1.265 . S
O250 Eu235 2.479 . S
O250 C265 1.238 . S
O251 Eu235 2.471 1_565 S
O251 C265 1.247 1_565 S
O252 Eu235 2.347 1_565 S
O252 C236 1.259 . S
O253 Tb234 2.418 . S
O253 C236 1.265 1_556 S
O254 Tb234 2.384 . S
O254 C237 1.255 1_556 S
O255 Eu235 2.366 1_565 S
O255 C237 1.265 . S
C256 O247 1.255 1_556 S
C256 O248 1.265 . S
O257 Tb234 2.479 . S
O257 C244 1.238 1_565 S
O258 Tb234 2.471 1_545 S
O258 C244 1.247 . S
C259 C262 1.380 1_565 S
C259 C263 1.374 . S
C259 C265 1.507 1_565 S
C260 C261 1.387 1_565 S
C260 C264 1.391 . S
C261 C260 1.387 1_545 S
C261 C262 1.384 . S
C261 H270 0.930 . S
C262 C259 1.380 1_545 S
C262 C261 1.384 . S
C262 H271 0.931 . S
C263 C259 1.374 . S
C263 C264 1.390 . S
C263 H272 0.930 . S
C264 C260 1.391 . S
C264 C263 1.390 . S
C264 H273 0.930 . S
C265 Eu235 2.825 . S
C265 O250 1.238 . S
C265 O251 1.247 1_545 S
C265 C259 1.507 1_545 S
H266 C239 0.930 1_565 S
H267 C240 0.931 . S
H268 C241 0.930 . S
H269 C242 0.930 . S
H270 C261 0.930 . S
H271 C262 0.931 . S
H272 C263 0.930 . S
H273 C264 0.930 . S
Tb274 C284 2.825 . S
Tb274 O285 2.347 1_455 S
Tb274 O288 2.366 1_455 S
Tb274 O293 2.418 . S
Tb274 O294 2.350 1_556 S
Tb274 O297 2.479 . S
Tb274 O298 2.471 1_455 S
Eu275 O286 2.418 . S
Eu275 O287 2.384 . S
Eu275 O290 2.479 . S
Eu275 O291 2.471 1_655 S
Eu275 O292 2.347 1_655 S
Eu275 O295 2.366 1_655 S
Eu275 C305 2.825 1_655 S
C276 O292 1.259 . S
C276 O293 1.265 1_554 S
C277 O294 1.302 . S
C277 O295 1.265 . S
C278 C280 1.380 1_655 S
C278 C281 1.374 . S
C278 C284 1.507 1_655 S
C279 C280 1.384 1_655 S
C279 C283 1.387 . S
C279 H306 0.930 1_655 S
C280 C278 1.380 1_455 S
C280 C279 1.384 1_455 S
C280 H307 0.931 . S
C281 C278 1.374 . S
C281 C282 1.390 . S
C281 H308 0.930 . S
C282 C281 1.390 . S
C282 C283 1.391 . S
C282 H309 0.930 . S
C283 C279 1.387 . S
C283 C282 1.391 . S
C284 Tb274 2.825 . S
C284 C278 1.507 1_455 S
C284 O297 1.237 . S
C284 O298 1.247 1_455 S
O285 Tb274 2.347 1_655 S
O285 C289 1.259 . S
O286 Eu275 2.418 . S
O286 C289 1.265 1_554 S
O287 Eu275 2.384 . S
O287 C296 1.255 1_554 S
O288 Tb274 2.366 1_655 S
O288 C296 1.265 . S
C289 O285 1.259 . S
C289 O286 1.265 1_556 S
O290 Eu275 2.479 . S
O290 C305 1.238 1_655 S
O291 Eu275 2.471 1_455 S
O291 C305 1.247 . S
O292 Eu275 2.347 1_455 S
O292 C276 1.259 . S
O293 Tb274 2.418 . S
O293 C276 1.265 1_556 S
O294 Tb274 2.350 1_554 S
O294 C277 1.302 . S
O295 Eu275 2.366 1_455 S
O295 C277 1.265 . S
C296 O287 1.255 1_556 S
C296 O288 1.265 . S
O297 Tb274 2.479 . S
O297 C284 1.237 . S
O298 Tb274 2.471 1_655 S
O298 C284 1.247 1_655 S
C299 C302 1.380 1_455 S
C299 C303 1.374 . S
C299 C305 1.507 . S
C300 C301 1.387 . S
C300 C304 1.391 . S
C301 C300 1.387 . S
C301 C302 1.384 1_455 S
C301 H310 0.930 1_455 S
C302 C299 1.380 1_655 S
C302 C301 1.384 1_655 S
C302 H311 0.931 . S
C303 C299 1.374 . S
C303 C304 1.390 . S
C303 H312 0.930 . S
C304 C300 1.391 . S
C304 C303 1.390 . S
C304 H313 0.930 . S
C305 Eu275 2.825 1_455 S
C305 O290 1.238 1_455 S
C305 O291 1.247 . S
C305 C299 1.507 . S
H306 C279 0.930 1_455 S
H307 C280 0.931 . S
H308 C281 0.930 . S
H309 C282 0.930 . S
H310 C301 0.930 1_655 S
H311 C302 0.931 . S
H312 C303 0.930 . S
H313 C304 0.930 . S
Tb314 C324 2.825 . S
Tb314 O325 2.347 . S
Tb314 O328 2.366 . S
Tb314 O333 2.418 . S
Tb314 O334 2.384 . S
Tb314 O337 2.479 . S
Tb314 O338 2.471 . S
Eu315 O326 2.418 . S
Eu315 O327 2.384 1_556 S
Eu315 O330 2.479 . S
Eu315 O331 2.471 . S
Eu315 O332 2.347 . S
Eu315 O335 2.366 . S
Eu315 C345 2.825 . S
C316 O332 1.259 1_554 S
C316 O333 1.265 . S
C317 O334 1.255 1_556 S
C317 O335 1.265 . S
C318 C320 1.380 . S
C318 C321 1.374 . S
C318 C324 1.507 . S
C319 C320 1.384 . S
C319 C323 1.387 . S
C319 H346 0.930 . S
C320 C318 1.380 . S
C320 C319 1.384 . S
C320 H347 0.931 . S
C321 C318 1.374 . S
C321 C322 1.390 . S
C321 H348 0.930 . S
C322 C321 1.390 . S
C322 C323 1.391 . S
C322 H349 0.930 . S
C323 C319 1.387 . S
C323 C322 1.391 . S
C324 Tb314 2.825 . S
C324 C318 1.507 . S
C324 O337 1.238 . S
C324 O338 1.247 . S
O325 Tb314 2.347 . S
O325 C329 1.259 . S
O326 Eu315 2.418 . S
O326 C329 1.265 1_556 S
O327 Eu315 2.384 1_554 S
O327 C336 1.255 . S
O328 Tb314 2.366 . S
O328 C336 1.265 . S
C329 O325 1.259 . S
C329 O326 1.265 1_554 S
O330 Eu315 2.479 . S
O330 C345 1.238 . S
O331 Eu315 2.471 . S
O331 C345 1.247 . S
O332 Eu315 2.347 . S
O332 C316 1.259 1_556 S
O333 Tb314 2.418 . S
O333 C316 1.265 . S
O334 Tb314 2.384 . S
O334 C317 1.255 1_554 S
O335 Eu315 2.366 . S
O335 C317 1.265 . S
C336 O327 1.255 . S
C336 O328 1.265 . S
O337 Tb314 2.479 . S
O337 C324 1.238 . S
O338 Tb314 2.471 . S
O338 C324 1.247 . S
C339 C342 1.380 . S
C339 C343 1.374 . S
C339 C345 1.507 . S
C340 C341 1.387 . S
C340 C344 1.391 . S
C341 C340 1.387 . S
C341 C342 1.384 . S
C341 H350 0.930 . S
C342 C339 1.380 . S
C342 C341 1.384 . S
C342 H351 0.931 . S
C343 C339 1.374 . S
C343 C344 1.390 . S
C343 H352 0.930 . S
C344 C340 1.391 . S
C344 C343 1.390 . S
C344 H353 0.930 . S
C345 Eu315 2.825 . S
C345 O330 1.238 . S
C345 O331 1.247 . S
C345 C339 1.507 . S
H346 C319 0.930 . S
H347 C320 0.931 . S
H348 C321 0.930 . S
H349 C322 0.930 . S
H350 C341 0.930 . S
H351 C342 0.931 . S
H352 C343 0.930 . S
H353 C344 0.930 . S
Tb354 C364 2.825 . S
Tb354 O365 2.347 . S
Tb354 O368 2.366 . S
Tb354 O373 2.418 . S
Tb354 O374 2.384 . S
Tb354 O377 2.479 . S
Tb354 O378 2.471 . S
Eu355 O366 2.418 . S
Eu355 O367 2.384 . S
Eu355 O370 2.479 . S
Eu355 O371 2.471 . S
Eu355 O372 2.347 . S
Eu355 O375 2.366 . S
Eu355 C385 2.825 . S
C356 O372 1.259 . S
C356 O373 1.265 . S
C357 O374 1.255 . S
C357 O375 1.265 . S
C358 C360 1.380 . S
C358 C361 1.374 . S
C358 C364 1.507 . S
C359 C360 1.384 . S
C359 C363 1.387 . S
C359 H386 0.930 . S
C360 C358 1.380 . S
C360 C359 1.384 . S
C360 H387 0.931 . S
C361 C358 1.374 . S
C361 C362 1.390 . S
C361 H388 0.930 . S
C362 C361 1.390 . S
C362 C363 1.391 . S
C362 H389 0.930 . S
C363 C359 1.387 . S
C363 C362 1.391 . S
C364 Tb354 2.825 . S
C364 C358 1.507 . S
C364 O377 1.238 . S
C364 O378 1.247 . S
O365 Tb354 2.347 . S
O365 C369 1.259 . S
O366 Eu355 2.418 . S
O366 C369 1.265 . S
O367 Eu355 2.384 . S
O367 C376 1.255 . S
O368 Tb354 2.366 . S
O368 C376 1.265 . S
C369 O365 1.259 . S
C369 O366 1.265 . S
O370 Eu355 2.479 . S
O370 C385 1.238 . S
O371 Eu355 2.471 . S
O371 C385 1.247 . S
O372 Eu355 2.347 . S
O372 C356 1.259 . S
O373 Tb354 2.418 . S
O373 C356 1.265 . S
O374 Tb354 2.384 . S
O374 C357 1.255 . S
O375 Eu355 2.366 . S
O375 C357 1.265 . S
C376 O367 1.255 . S
C376 O368 1.265 . S
O377 Tb354 2.479 . S
O377 C364 1.238 . S
O378 Tb354 2.471 . S
O378 C364 1.247 . S
C379 C382 1.380 . S
C379 C383 1.374 . S
C379 C385 1.507 . S
C380 C381 1.387 . S
C380 C384 1.391 . S
C381 C380 1.387 . S
C381 C382 1.384 . S
C381 H390 0.930 . S
C382 C379 1.380 . S
C382 C381 1.384 . S
C382 H391 0.931 . S
C383 C379 1.374 . S
C383 C384 1.390 . S
C383 H392 0.930 . S
C384 C380 1.391 . S
C384 C383 1.390 . S
C384 H393 0.930 . S
C385 Eu355 2.825 . S
C385 O370 1.238 . S
C385 O371 1.247 . S
C385 C379 1.507 . S
H386 C359 0.930 . S
H387 C360 0.931 . S
H388 C361 0.930 . S
H389 C362 0.930 . S
H390 C381 0.930 . S
H391 C382 0.931 . S
H392 C383 0.930 . S
H393 C384 0.930 . S
Tb394 C404 2.825 . S
Tb394 O405 2.347 . S
Tb394 O408 2.366 . S
Tb394 O413 2.418 . S
Tb394 O414 2.384 . S
Tb394 O417 2.479 . S
Tb394 O418 2.471 . S
Eu395 O406 2.418 . S
Eu395 O407 2.384 . S
Eu395 O410 2.479 . S
Eu395 O411 2.471 . S
Eu395 O412 2.347 . S
Eu395 O415 2.366 . S
Eu395 C425 2.825 . S
C396 O412 1.259 . S
C396 O413 1.265 . S
C397 O414 1.255 . S
C397 O415 1.265 . S
C398 C400 1.380 . S
C398 C401 1.374 . S
C398 C404 1.507 . S
C399 C400 1.384 . S
C399 C403 1.387 . S
C399 H426 0.930 . S
C400 C398 1.380 . S
C400 C399 1.384 . S
C400 H427 0.931 . S
C401 C398 1.374 . S
C401 C402 1.390 . S
C401 H428 0.930 . S
C402 C401 1.390 . S
C402 C403 1.391 . S
C402 H429 0.930 . S
C403 C399 1.387 . S
C403 C402 1.391 . S
C404 Tb394 2.825 . S
C404 C398 1.507 . S
C404 O417 1.238 . S
C404 O418 1.247 . S
O405 Tb394 2.347 . S
O405 C409 1.259 . S
O406 Eu395 2.418 . S
O406 C409 1.265 . S
O407 Eu395 2.384 . S
O407 C416 1.255 . S
O408 Tb394 2.366 . S
O408 C416 1.265 . S
C409 O405 1.259 . S
C409 O406 1.265 . S
O410 Eu395 2.479 . S
O410 C425 1.238 . S
O411 Eu395 2.471 . S
O411 C425 1.247 . S
O412 Eu395 2.347 . S
O412 C396 1.259 . S
O413 Tb394 2.418 . S
O413 C396 1.265 . S
O414 Tb394 2.384 . S
O414 C397 1.255 . S
O415 Eu395 2.366 . S
O415 C397 1.265 . S
C416 O407 1.255 . S
C416 O408 1.265 . S
O417 Tb394 2.479 . S
O417 C404 1.238 . S
O418 Tb394 2.471 . S
O418 C404 1.247 . S
C419 C422 1.380 . S
C419 C423 1.374 . S
C419 C425 1.507 . S
C420 C421 1.387 . S
C420 C424 1.391 . S
C421 C420 1.387 . S
C421 C422 1.384 . S
C421 H430 0.930 . S
C422 C419 1.380 . S
C422 C421 1.384 . S
C422 H431 0.931 . S
C423 C419 1.374 . S
C423 C424 1.390 . S
C423 H432 0.930 . S
C424 C420 1.391 . S
C424 C423 1.390 . S
C424 H433 0.930 . S
C425 Eu395 2.825 . S
C425 O410 1.238 . S
C425 O411 1.247 . S
C425 C419 1.507 . S
H426 C399 0.930 . S
H427 C400 0.931 . S
H428 C401 0.930 . S
H429 C402 0.930 . S
H430 C421 0.930 . S
H431 C422 0.931 . S
H432 C423 0.930 . S
H433 C424 0.930 . S
Tb434 C444 2.825 . S
Tb434 O445 2.347 . S
Tb434 O448 2.366 . S
Tb434 O453 2.418 . S
Tb434 O454 2.384 . S
Tb434 O457 2.479 . S
Tb434 O458 2.471 . S
Eu435 O446 2.418 . S
Eu435 O447 2.384 . S
Eu435 O450 2.479 . S
Eu435 O451 2.471 . S
Eu435 O452 2.347 . S
Eu435 O455 2.366 . S
Eu435 C465 2.825 . S
C436 O452 1.259 . S
C436 O453 1.265 . S
C437 O454 1.255 . S
C437 O455 1.265 . S
C438 C440 1.380 . S
C438 C441 1.374 . S
C438 C444 1.507 . S
C439 C440 1.384 . S
C439 C443 1.387 . S
C439 H466 0.930 . S
C440 C438 1.380 . S
C440 C439 1.384 . S
C440 H467 0.931 . S
C441 C438 1.374 . S
C441 C442 1.390 . S
C441 H468 0.930 . S
C442 C441 1.390 . S
C442 C443 1.391 . S
C442 H469 0.930 . S
C443 C439 1.387 . S
C443 C442 1.391 . S
C444 Tb434 2.825 . S
C444 C438 1.507 . S
C444 O457 1.238 . S
C444 O458 1.247 . S
O445 Tb434 2.347 . S
O445 C449 1.259 . S
O446 Eu435 2.418 . S
O446 C449 1.265 . S
O447 Eu435 2.384 . S
O447 C456 1.255 . S
O448 Tb434 2.366 . S
O448 C456 1.265 . S
C449 O445 1.259 . S
C449 O446 1.265 . S
O450 Eu435 2.479 . S
O450 C465 1.238 . S
O451 Eu435 2.471 . S
O451 C465 1.247 . S
O452 Eu435 2.347 . S
O452 C436 1.259 . S
O453 Tb434 2.418 . S
O453 C436 1.265 . S
O454 Tb434 2.384 . S
O454 C437 1.255 . S
O455 Eu435 2.366 . S
O455 C437 1.265 . S
C456 O447 1.255 . S
C456 O448 1.265 . S
O457 Tb434 2.479 . S
O457 C444 1.238 . S
O458 Tb434 2.471 . S
O458 C444 1.247 . S
C459 C462 1.380 . S
C459 C463 1.374 . S
C459 C465 1.507 . S
C460 C461 1.387 . S
C460 C464 1.391 . S
C461 C460 1.387 . S
C461 C462 1.384 . S
C461 H470 0.930 . S
C462 C459 1.380 . S
C462 C461 1.384 . S
C462 H471 0.931 . S
C463 C459 1.374 . S
C463 C464 1.390 . S
C463 H472 0.930 . S
C464 C460 1.391 . S
C464 C463 1.390 . S
C464 H473 0.930 . S
C465 Eu435 2.825 . S
C465 O450 1.238 . S
C465 O451 1.247 . S
C465 C459 1.507 . S
H466 C439 0.930 . S
H467 C440 0.931 . S
H468 C441 0.930 . S
H469 C442 0.930 . S
H470 C461 0.930 . S
H471 C462 0.931 . S
H472 C463 0.930 . S
H473 C464 0.930 . S
Tb474 C484 2.825 . S
Tb474 O485 2.347 . S
Tb474 O488 2.366 . S
Tb474 O493 2.418 . S
Tb474 O494 2.384 . S
Tb474 O497 2.479 . S
Tb474 O498 2.471 . S
Eu475 O486 2.418 . S
Eu475 O487 2.384 . S
Eu475 O490 2.479 . S
Eu475 O491 2.471 . S
Eu475 O492 2.347 . S
Eu475 O495 2.366 . S
Eu475 C505 2.825 . S
C476 O492 1.259 . S
C476 O493 1.265 . S
C477 O494 1.255 . S
C477 O495 1.265 . S
C478 C480 1.380 . S
C478 C481 1.374 . S
C478 C484 1.507 . S
C479 C480 1.384 . S
C479 C483 1.387 . S
C479 H506 0.930 . S
C480 C478 1.380 . S
C480 C479 1.384 . S
C480 H507 0.931 . S
C481 C478 1.374 . S
C481 C482 1.390 . S
C481 H508 0.930 . S
C482 C481 1.390 . S
C482 C483 1.391 . S
C482 H509 0.930 . S
C483 C479 1.387 . S
C483 C482 1.391 . S
C484 Tb474 2.825 . S
C484 C478 1.507 . S
C484 O497 1.238 . S
C484 O498 1.247 . S
O485 Tb474 2.347 . S
O485 C489 1.259 . S
O486 Eu475 2.418 . S
O486 C489 1.265 . S
O487 Eu475 2.384 . S
O487 C496 1.255 . S
O488 Tb474 2.366 . S
O488 C496 1.265 . S
C489 O485 1.259 . S
C489 O486 1.265 . S
O490 Eu475 2.479 . S
O490 C505 1.238 . S
O491 Eu475 2.471 . S
O491 C505 1.247 . S
O492 Eu475 2.347 . S
O492 C476 1.259 . S
O493 Tb474 2.418 . S
O493 C476 1.265 . S
O494 Tb474 2.384 . S
O494 C477 1.255 . S
O495 Eu475 2.366 . S
O495 C477 1.265 . S
C496 O487 1.255 . S
C496 O488 1.265 . S
O497 Tb474 2.479 . S
O497 C484 1.238 . S
O498 Tb474 2.471 . S
O498 C484 1.247 . S
C499 C502 1.380 . S
C499 C503 1.374 . S
C499 C505 1.507 . S
C500 C501 1.387 . S
C500 C504 1.391 . S
C501 C500 1.387 . S
C501 C502 1.384 . S
C501 H510 0.930 . S
C502 C499 1.380 . S
C502 C501 1.384 . S
C502 H511 0.931 . S
C503 C499 1.374 . S
C503 C504 1.390 . S
C503 H512 0.930 . S
C504 C500 1.391 . S
C504 C503 1.390 . S
C504 H513 0.930 . S
C505 Eu475 2.825 . S
C505 O490 1.238 . S
C505 O491 1.247 . S
C505 C499 1.507 . S
H506 C479 0.930 . S
H507 C480 0.931 . S
H508 C481 0.930 . S
H509 C482 0.930 . S
H510 C501 0.930 . S
H511 C502 0.931 . S
H512 C503 0.930 . S
H513 C504 0.930 . S
Tb514 C524 2.825 . S
Tb514 O525 2.347 . S
Tb514 O528 2.366 . S
Tb514 O533 2.418 . S
Tb514 O534 2.384 . S
Tb514 O537 2.479 . S
Tb514 O538 2.471 . S
Eu515 O526 2.418 . S
Eu515 O527 2.384 . S
Eu515 O530 2.479 . S
Eu515 O531 2.471 . S
Eu515 O532 2.347 . S
Eu515 O535 2.366 . S
Eu515 C545 2.825 . S
C516 O532 1.259 . S
C516 O533 1.265 . S
C517 O534 1.255 . S
C517 O535 1.265 . S
C518 C520 1.380 . S
C518 C521 1.374 . S
C518 C524 1.507 . S
C519 C520 1.384 . S
C519 C523 1.387 . S
C519 H546 0.930 . S
C520 C518 1.380 . S
C520 C519 1.384 . S
C520 H547 0.931 . S
C521 C518 1.374 . S
C521 C522 1.390 . S
C521 H548 0.930 . S
C522 C521 1.390 . S
C522 C523 1.391 . S
C522 H549 0.930 . S
C523 C519 1.387 . S
C523 C522 1.391 . S
C524 Tb514 2.825 . S
C524 C518 1.507 . S
C524 O537 1.238 . S
C524 O538 1.247 . S
O525 Tb514 2.347 . S
O525 C529 1.259 . S
O526 Eu515 2.418 . S
O526 C529 1.265 . S
O527 Eu515 2.384 . S
O527 C536 1.255 . S
O528 Tb514 2.366 . S
O528 C536 1.265 . S
C529 O525 1.259 . S
C529 O526 1.265 . S
O530 Eu515 2.479 . S
O530 C545 1.238 . S
O531 Eu515 2.471 . S
O531 C545 1.247 . S
O532 Eu515 2.347 . S
O532 C516 1.259 . S
O533 Tb514 2.418 . S
O533 C516 1.265 . S
O534 Tb514 2.384 . S
O534 C517 1.255 . S
O535 Eu515 2.366 . S
O535 C517 1.265 . S
C536 O527 1.255 . S
C536 O528 1.265 . S
O537 Tb514 2.479 . S
O537 C524 1.238 . S
O538 Tb514 2.471 . S
O538 C524 1.247 . S
C539 C542 1.380 . S
C539 C543 1.374 . S
C539 C545 1.507 . S
C540 C541 1.387 . S
C540 C544 1.391 . S
C541 C540 1.387 . S
C541 C542 1.384 . S
C541 H550 0.930 . S
C542 C539 1.380 . S
C542 C541 1.384 . S
C542 H551 0.931 . S
C543 C539 1.374 . S
C543 C544 1.390 . S
C543 H552 0.930 . S
C544 C540 1.391 . S
C544 C543 1.390 . S
C544 H553 0.930 . S
C545 Eu515 2.825 . S
C545 O530 1.238 . S
C545 O531 1.247 . S
C545 C539 1.507 . S
H546 C519 0.930 . S
H547 C520 0.931 . S
H548 C521 0.930 . S
H549 C522 0.930 . S
H550 C541 0.930 . S
H551 C542 0.931 . S
H552 C543 0.930 . S
H553 C544 0.930 . S
Tb554 C564 2.825 . S
Tb554 O565 2.347 . S
Tb554 O568 2.366 . S
Tb554 O573 2.418 . S
Tb554 O574 2.384 . S
Tb554 O577 2.479 . S
Tb554 O578 2.471 . S
Eu555 O566 2.418 . S
Eu555 O567 2.384 . S
Eu555 O570 2.479 . S
Eu555 O571 2.471 . S
Eu555 O572 2.347 . S
Eu555 O575 2.366 . S
Eu555 C585 2.825 . S
C556 O572 1.259 . S
C556 O573 1.265 . S
C557 O574 1.255 . S
C557 O575 1.265 . S
C558 C560 1.380 . S
C558 C561 1.374 . S
C558 C564 1.507 . S
C559 C560 1.384 . S
C559 C563 1.387 . S
C559 H586 0.930 . S
C560 C558 1.380 . S
C560 C559 1.384 . S
C560 H587 0.931 . S
C561 C558 1.374 . S
C561 C562 1.390 . S
C561 H588 0.930 . S
C562 C561 1.390 . S
C562 C563 1.391 . S
C562 H589 0.930 . S
C563 C559 1.387 . S
C563 C562 1.391 . S
C564 Tb554 2.825 . S
C564 C558 1.507 . S
C564 O577 1.238 . S
C564 O578 1.247 . S
O565 Tb554 2.347 . S
O565 C569 1.259 . S
O566 Eu555 2.418 . S
O566 C569 1.265 . S
O567 Eu555 2.384 . S
O567 C576 1.255 . S
O568 Tb554 2.366 . S
O568 C576 1.265 . S
C569 O565 1.259 . S
C569 O566 1.265 . S
O570 Eu555 2.479 . S
O570 C585 1.238 . S
O571 Eu555 2.471 . S
O571 C585 1.247 . S
O572 Eu555 2.347 . S
O572 C556 1.259 . S
O573 Tb554 2.418 . S
O573 C556 1.265 . S
O574 Tb554 2.384 . S
O574 C557 1.255 . S
O575 Eu555 2.366 . S
O575 C557 1.265 . S
C576 O567 1.255 . S
C576 O568 1.265 . S
O577 Tb554 2.479 . S
O577 C564 1.238 . S
O578 Tb554 2.471 . S
O578 C564 1.247 . S
C579 C582 1.380 . S
C579 C583 1.374 . S
C579 C585 1.507 . S
C580 C581 1.387 . S
C580 C584 1.391 . S
C581 C580 1.387 . S
C581 C582 1.384 . S
C581 H590 0.930 . S
C582 C579 1.380 . S
C582 C581 1.384 . S
C582 H591 0.931 . S
C583 C579 1.374 . S
C583 C584 1.390 . S
C583 H592 0.930 . S
C584 C580 1.391 . S
C584 C583 1.390 . S
C584 H593 0.930 . S
C585 Eu555 2.825 . S
C585 O570 1.238 . S
C585 O571 1.247 . S
C585 C579 1.507 . S
H586 C559 0.930 . S
H587 C560 0.931 . S
H588 C561 0.930 . S
H589 C562 0.930 . S
H590 C581 0.930 . S
H591 C582 0.931 . S
H592 C583 0.930 . S
H593 C584 0.930 . S
C594 C595 1.363 . S
C594 C600 1.379 . S
C594 N602 1.356 . S
C595 C594 1.363 . S
C595 C601 1.363 . S
C596 C597 1.363 . S
C596 C601 1.379 . S
C596 N603 1.356 1_554 S
C597 C596 1.363 . S
C597 C600 1.363 . S
N598 C600 1.356 . S
N598 H610 0.984 . S
N598 H611 0.985 . S
N599 C601 1.356 . S
N599 H604 0.984 . S
N599 H605 0.985 1_554 S
C600 C594 1.379 . S
C600 C597 1.363 . S
C600 N598 1.356 . S
C601 C595 1.363 . S
C601 C596 1.379 . S
C601 N599 1.356 . S
N602 C594 1.356 . S
N602 H608 0.984 . S
N602 H609 0.984 . S
N603 C596 1.356 1_556 S
N603 H606 0.984 . S
N603 H607 0.985 . S
H604 N599 0.984 . S
H605 N599 0.985 1_556 S
H606 N603 0.984 . S
H607 N603 0.985 . S
H608 N602 0.984 . S
H609 N602 0.984 . S
H610 N598 0.984 . S
H611 N598 0.985 . S
C612 C613 1.363 . S
C612 C618 1.379 . S
C612 N620 1.356 . S
C613 C612 1.363 . S
C613 C619 1.363 . S
C614 C615 1.363 . S
C614 C619 1.379 . S
C614 N621 1.356 . S
C615 C614 1.363 . S
C615 C618 1.363 . S
N616 C618 1.356 . S
N616 H628 0.984 . S
N616 H629 0.985 . S
N617 C619 1.356 . S
N617 H622 0.984 . S
N617 H623 0.985 . S
C618 C612 1.379 . S
C618 C615 1.363 . S
C618 N616 1.356 . S
C619 C613 1.363 . S
C619 C614 1.379 . S
C619 N617 1.356 . S
N620 C612 1.356 . S
N620 H626 0.984 . S
N620 H627 0.984 . S
N621 C614 1.356 . S
N621 H624 0.984 . S
N621 H625 0.985 1_554 S
H622 N617 0.984 . S
H623 N617 0.985 . S
H624 N621 0.984 . S
H625 N621 0.985 1_556 S
H626 N620 0.984 . S
H627 N620 0.984 . S
H628 N616 0.984 . S
H629 N616 0.985 . S
C630 C631 1.363 . S
C630 C636 1.379 . S
C630 N638 1.356 . S
C631 C630 1.363 . S
C631 C637 1.363 . S
C632 C633 1.392 . S
C632 C637 1.381 . S
C632 N639 1.332 1_554 S
C633 C632 1.392 . S
C633 C636 1.363 . S
N634 C636 1.356 . S
N634 H646 0.984 . S
N634 H647 0.985 . S
N635 C637 1.356 1_556 S
N635 H640 0.998 . S
N635 H641 0.985 . S
C636 C630 1.379 . S
C636 C633 1.363 . S
C636 N634 1.356 . S
C637 C631 1.363 . S
C637 C632 1.381 . S
C637 N635 1.356 1_554 S
N638 C630 1.356 . S
N638 H644 0.984 . S
N638 H645 0.984 . S
N639 C632 1.332 1_556 S
N639 H642 0.984 . S
N639 H643 0.985 . S
H640 N635 0.998 . S
H641 N635 0.985 . S
H642 N639 0.984 . S
H643 N639 0.985 . S
H644 N638 0.984 . S
H645 N638 0.984 . S
H646 N634 0.984 . S
H647 N634 0.985 . S
C648 C649 1.363 . S
C648 C654 1.379 . S
C648 N656 1.370 . S
C649 C648 1.363 . S
C649 C655 1.363 . S
C650 C651 1.363 . S
C650 C655 1.379 . S
C650 N657 1.356 . S
C651 C650 1.363 . S
C651 C654 1.363 . S
N652 C654 1.356 1_554 S
N652 H664 0.984 . S
N652 H665 0.985 . S
N653 C655 1.356 . S
N653 H658 0.984 . S
N653 H659 0.985 . S
C654 C648 1.379 . S
C654 C651 1.363 . S
C654 N652 1.356 1_556 S
C655 C649 1.363 . S
C655 C650 1.379 . S
C655 N653 1.356 . S
N656 C648 1.370 . S
N656 H662 0.961 1_556 S
N656 H663 0.996 . S
N657 C650 1.356 . S
N657 H660 0.984 . S
N657 H661 0.985 . S
H658 N653 0.984 . S
H659 N653 0.985 . S
H660 N657 0.984 . S
H661 N657 0.985 . S
H662 N656 0.961 1_554 S
H663 N656 0.996 . S
H664 N652 0.984 . S
H665 N652 0.985 . S
C666 C667 1.363 . S
C666 C672 1.379 . S
C666 N674 1.356 . S
C667 C666 1.363 . S
C667 C673 1.363 . S
C668 C669 1.363 . S
C668 C673 1.379 . S
C668 N675 1.356 1_556 S
C669 C668 1.363 . S
C669 C672 1.363 . S
N670 C672 1.356 . S
N670 H682 0.984 . S
N670 H683 0.985 . S
N671 C673 1.356 . S
N671 H676 0.984 . S
N671 H677 0.985 . S
C672 C666 1.379 . S
C672 C669 1.363 . S
C672 N670 1.356 . S
C673 C667 1.363 . S
C673 C668 1.379 . S
C673 N671 1.356 . S
N674 C666 1.356 . S
N674 H680 0.984 . S
N674 H681 0.984 . S
N675 C668 1.356 1_554 S
N675 H678 0.984 . S
N675 H679 0.985 . S
H676 N671 0.984 . S
H677 N671 0.985 . S
H678 N675 0.984 . S
H679 N675 0.985 . S
H680 N674 0.984 . S
H681 N674 0.984 . S
H682 N670 0.984 . S
H683 N670 0.985 . S
C684 C685 1.363 . S
C684 C690 1.379 . S
C684 N692 1.356 . S
C685 C684 1.363 . S
C685 C691 1.363 1_556 S
C686 C687 1.363 1_554 S
C686 C691 1.379 . S
C686 N693 1.356 . S
C687 C686 1.363 1_556 S
C687 C690 1.363 . S
N688 C690 1.356 . S
N688 H700 0.984 . S
N688 H701 0.985 . S
N689 C691 1.356 . S
N689 H694 0.984 . S
N689 H695 0.985 . S
C690 C684 1.379 . S
C690 C687 1.363 . S
C690 N688 1.356 . S
C691 C685 1.363 1_554 S
C691 C686 1.379 . S
C691 N689 1.356 . S
N692 C684 1.356 . S
N692 H698 0.984 . S
N692 H699 0.984 . S
N693 C686 1.356 . S
N693 H696 0.984 . S
N693 H697 0.985 . S
H694 N689 0.984 . S
H695 N689 0.985 . S
H696 N693 0.984 . S
H697 N693 0.985 . S
H698 N692 0.984 . S
H699 N692 0.984 . S
H700 N688 0.984 . S
H701 N688 0.985 . S
C702 C703 1.363 . S
C702 C708 1.379 . S
C702 N710 1.356 . S
C703 C702 1.363 . S
C703 C709 1.363 . S
C704 C705 1.363 . S
C704 C709 1.379 . S
C704 N711 1.356 . S
C705 C704 1.363 . S
C705 C708 1.363 . S
N706 C708 1.356 1_554 S
N706 H718 0.984 . S
N706 H719 0.985 . S
N707 C709 1.356 . S
N707 H712 0.984 . S
N707 H713 0.985 . S
C708 C702 1.379 . S
C708 C705 1.363 . S
C708 N706 1.356 1_556 S
C709 C703 1.363 . S
C709 C704 1.379 . S
C709 N707 1.356 . S
N710 C702 1.356 . S
N710 H716 0.984 1_556 S
N710 H717 0.984 . S
N711 C704 1.356 . S
N711 H714 0.984 . S
N711 H715 0.985 . S
H712 N707 0.984 . S
H713 N707 0.985 . S
H714 N711 0.984 . S
H715 N711 0.985 . S
H716 N710 0.984 1_554 S
H717 N710 0.984 . S
H718 N706 0.984 . S
H719 N706 0.985 . S
C720 C721 1.363 . S
C720 C726 1.379 . S
C720 N728 1.356 . S
C721 C720 1.363 . S
C721 C727 1.363 . S
C722 C723 1.363 . S
C722 C727 1.379 . S
C722 N729 1.356 . S
C723 C722 1.363 . S
C723 C726 1.363 . S
N724 C726 1.356 . S
N724 H736 0.984 . S
N724 H737 0.985 . S
N725 C727 1.356 . S
N725 H730 0.984 . S
N725 H731 0.985 . S
C726 C720 1.379 . S
C726 C723 1.363 . S
C726 N724 1.356 . S
C727 C721 1.363 . S
C727 C722 1.379 . S
C727 N725 1.356 . S
N728 C720 1.356 . S
N728 H734 0.984 . S
N728 H735 0.984 . S
N729 C722 1.356 . S
N729 H732 0.984 . S
N729 H733 0.985 . S
H730 N725 0.984 . S
H731 N725 0.985 . S
H732 N729 0.984 . S
H733 N729 0.985 . S
H734 N728 0.984 . S
H735 N728 0.984 . S
H736 N724 0.984 . S
H737 N724 0.985 . S
C738 C739 1.363 . S
C738 C744 1.379 . S
C738 N746 1.356 . S
C739 C738 1.363 . S
C739 C745 1.363 1_556 S
C740 C741 1.363 1_554 S
C740 C745 1.379 . S
C740 N747 1.356 . S
C741 C740 1.363 1_556 S
C741 C744 1.363 . S
N742 C744 1.356 . S
N742 H754 0.984 . S
N742 H755 0.985 . S
N743 C745 1.356 . S
N743 H748 0.984 . S
N743 H749 0.985 . S
C744 C738 1.379 . S
C744 C741 1.363 . S
C744 N742 1.356 . S
C745 C739 1.363 1_554 S
C745 C740 1.379 . S
C745 N743 1.356 . S
N746 C738 1.356 . S
N746 H752 0.984 . S
N746 H753 0.984 . S
N747 C740 1.356 . S
N747 H750 0.984 . S
N747 H751 0.985 . S
H748 N743 0.984 . S
H749 N743 0.985 . S
H750 N747 0.984 . S
H751 N747 0.985 . S
H752 N746 0.984 . S
H753 N746 0.984 . S
H754 N742 0.984 . S
H755 N742 0.985 . S
C756 C757 1.363 . S
C756 C762 1.379 . S
C756 N764 1.356 . S
C757 C756 1.363 . S
C757 C763 1.363 . S
C758 C759 1.363 . S
C758 C763 1.379 . S
C758 N765 1.356 1_554 S
C759 C758 1.363 . S
C759 C762 1.363 . S
N760 C762 1.356 . S
N760 H772 0.984 . S
N760 H773 0.985 . S
N761 C763 1.356 1_556 S
N761 H766 0.976 1_556 S
N761 H767 0.985 . S
C762 C756 1.379 . S
C762 C759 1.363 . S
C762 N760 1.356 . S
C763 C757 1.363 . S
C763 C758 1.379 . S
C763 N761 1.356 1_554 S
N764 C756 1.356 . S
N764 H770 0.984 . S
N764 H771 0.984 . S
N765 C758 1.356 1_556 S
N765 H768 0.984 . S
N765 H769 0.985 . S
H766 N761 0.976 1_554 S
H767 N761 0.985 . S
H768 N765 0.984 . S
H769 N765 0.985 . S
H770 N764 0.984 . S
H771 N764 0.984 . S
H772 N760 0.984 . S
H773 N760 0.985 . S
C774 C775 1.363 . S
C774 C780 1.379 . S
C774 N782 1.356 . S
C775 C774 1.363 . S
C775 C781 1.363 . S
C776 C777 1.363 . S
C776 C781 1.379 . S
C776 N783 1.356 . S
C777 C776 1.363 . S
C777 C780 1.363 . S
N778 C780 1.356 . S
N778 H790 0.984 . S
N778 H791 0.985 . S
N779 C781 1.356 . S
N779 H784 0.984 . S
N779 H785 0.985 . S
C780 C774 1.379 . S
C780 C777 1.363 . S
C780 N778 1.356 . S
C781 C775 1.363 . S
C781 C776 1.379 . S
C781 N779 1.356 . S
N782 C774 1.356 . S
N782 H788 0.984 . S
N782 H789 0.984 . S
N783 C776 1.356 . S
N783 H786 0.984 . S
N783 H787 0.985 1_554 S
H784 N779 0.984 . S
H785 N779 0.985 . S
H786 N783 0.984 . S
H787 N783 0.985 1_556 S
H788 N782 0.984 . S
H789 N782 0.984 . S
H790 N778 0.984 . S
H791 N778 0.985 . S
C792 C793 1.363 . S
C792 C798 1.379 . S
C792 N800 1.356 . S
C793 C792 1.363 . S
C793 C799 1.390 . S
C794 C795 1.363 1_556 S
C794 C799 1.375 1_556 S
C794 N801 1.356 . S
C795 C794 1.363 1_554 S
C795 C798 1.363 . S
N796 C798 1.356 . S
N796 H808 0.984 . S
N796 H809 0.985 . S
N797 C799 1.341 1_556 S
N797 H802 0.984 . S
N797 H803 0.985 . S
C798 C792 1.379 . S
C798 C795 1.363 . S
C798 N796 1.356 . S
C799 C793 1.390 . S
C799 C794 1.375 1_554 S
C799 N797 1.341 1_554 S
N800 C792 1.356 . S
N800 H806 0.984 . S
N800 H807 0.984 . S
N801 C794 1.356 . S
N801 H804 0.984 . S
N801 H805 0.985 . S
H802 N797 0.984 . S
H803 N797 0.985 . S
H804 N801 0.984 . S
H805 N801 0.985 . S
H806 N800 0.984 . S
H807 N800 0.984 . S
H808 N796 0.984 . S
H809 N796 0.985 . S
C810 C811 1.363 . S
C810 C816 1.379 1_655 S
C810 N818 1.356 . S
C811 C810 1.363 . S
C811 C817 1.363 . S
C812 C813 1.363 . S
C812 C817 1.379 1_455 S
C812 N819 1.356 . S
C813 C812 1.363 . S
C813 C816 1.363 . S
N814 C816 1.356 . S
N814 H826 0.984 . S
N814 H827 0.985 . S
N815 C817 1.356 . S
N815 H820 0.984 . S
N815 H821 0.985 . S
C816 C810 1.379 1_455 S
C816 C813 1.363 . S
C816 N814 1.356 . S
C817 C811 1.363 . S
C817 C812 1.379 1_655 S
C817 N815 1.356 . S
N818 C810 1.356 . S
N818 H824 0.984 . S
N818 H825 0.984 . S
N819 C812 1.356 . S
N819 H822 0.984 . S
N819 H823 0.985 . S
H820 N815 0.984 . S
H821 N815 0.985 . S
H822 N819 0.984 . S
H823 N819 0.985 . S
H824 N818 0.984 . S
H825 N818 0.984 . S
H826 N814 0.984 . S
H827 N814 0.985 . S
C828 C829 1.363 . S
C828 C834 1.379 . S
C828 N836 1.356 . S
C829 C828 1.363 . S
C829 C835 1.363 . S
C830 C831 1.363 . S
C830 C835 1.379 . S
C830 N837 1.356 . S
C831 C830 1.363 . S
C831 C834 1.363 . S
N832 C834 1.356 . S
N832 H844 0.984 . S
N832 H845 0.985 . S
N833 C835 1.356 . S
N833 H838 0.984 . S
N833 H839 0.985 . S
C834 C828 1.379 . S
C834 C831 1.363 . S
C834 N832 1.356 . S
C835 C829 1.363 . S
C835 C830 1.379 . S
C835 N833 1.356 . S
N836 C828 1.356 . S
N836 H842 0.984 . S
N836 H843 0.984 . S
N837 C830 1.356 . S
N837 H840 0.984 . S
N837 H841 0.985 . S
H838 N833 0.984 . S
H839 N833 0.985 . S
H840 N837 0.984 . S
H841 N837 0.985 . S
H842 N836 0.984 . S
H843 N836 0.984 . S
H844 N832 0.984 . S
H845 N832 0.985 . S
C846 C847 1.363 . S
C846 C852 1.379 . S
C846 N854 1.356 . S
C847 C846 1.363 . S
C847 C853 1.363 . S
C848 C849 1.363 1_545 S
C848 C853 1.379 . S
C848 N855 1.356 1_545 S
C849 C848 1.363 1_565 S
C849 C852 1.363 1_565 S
N850 C852 1.356 1_565 S
N850 H862 0.984 . S
N850 H863 0.985 . S
N851 C853 1.356 . S
N851 H856 0.984 . S
N851 H857 0.985 . S
C852 C846 1.379 . S
C852 C849 1.363 1_545 S
C852 N850 1.356 1_545 S
C853 C847 1.363 . S
C853 C848 1.379 . S
C853 N851 1.356 . S
N854 C846 1.356 . S
N854 H860 0.984 . S
N854 H861 0.984 . S
N855 C848 1.356 1_565 S
N855 H858 0.984 . S
N855 H859 0.985 . S
H856 N851 0.984 . S
H857 N851 0.985 . S
H858 N855 0.984 . S
H859 N855 0.985 . S
H860 N854 0.984 . S
H861 N854 0.984 . S
H862 N850 0.984 . S
H863 N850 0.985 . S
C864 C865 1.363 . S
C864 C870 1.379 . S
C864 N872 1.356 . S
C865 C864 1.363 . S
C865 C871 1.363 . S
C866 C867 1.363 . S
C866 C871 1.379 . S
C866 N873 1.356 . S
C867 C866 1.363 . S
C867 C870 1.363 . S
N868 C870 1.356 . S
N868 H880 0.984 . S
N868 H881 0.985 . S
N869 C871 1.356 . S
N869 H874 0.984 . S
N869 H875 0.985 . S
C870 C864 1.379 . S
C870 C867 1.363 . S
C870 N868 1.356 . S
C871 C865 1.363 . S
C871 C866 1.379 . S
C871 N869 1.356 . S
N872 C864 1.356 . S
N872 H878 0.984 . S
N872 H879 0.984 . S
N873 C866 1.356 . S
N873 H876 0.984 . S
N873 H877 0.985 . S
H874 N869 0.984 . S
H875 N869 0.985 . S
H876 N873 0.984 . S
H877 N873 0.985 . S
H878 N872 0.984 . S
H879 N872 0.984 . S
H880 N868 0.984 . S
H881 N868 0.985 . S
C882 C883 1.363 . S
C882 C888 1.379 . S
C882 N890 1.356 . S
C883 C882 1.363 . S
C883 C889 1.363 . S
C884 C885 1.363 . S
C884 C889 1.379 . S
C884 N891 1.356 . S
C885 C884 1.363 . S
C885 C888 1.363 . S
N886 C888 1.356 . S
N886 H898 0.984 . S
N886 H899 0.985 . S
N887 C889 1.356 . S
N887 H892 0.984 . S
N887 H893 0.985 . S
C888 C882 1.379 . S
C888 C885 1.363 . S
C888 N886 1.356 . S
C889 C883 1.363 . S
C889 C884 1.379 . S
C889 N887 1.356 . S
N890 C882 1.356 . S
N890 H896 0.984 . S
N890 H897 0.984 . S
N891 C884 1.356 . S
N891 H894 0.984 . S
N891 H895 0.985 . S
H892 N887 0.984 . S
H893 N887 0.985 . S
H894 N891 0.984 . S
H895 N891 0.985 . S
H896 N890 0.984 . S
H897 N890 0.984 . S
H898 N886 0.984 . S
H899 N886 0.985 . S
C900 C901 1.363 . S
C900 C906 1.379 . S
C900 N908 1.356 . S
C901 C900 1.363 . S
C901 C907 1.363 . S
C902 C903 1.363 . S
C902 C907 1.379 . S
C902 N909 1.356 . S
C903 C902 1.363 . S
C903 C906 1.363 . S
N904 C906 1.356 . S
N904 H916 0.984 . S
N904 H917 0.985 . S
N905 C907 1.356 . S
N905 H910 0.984 . S
N905 H911 0.985 . S
C906 C900 1.379 . S
C906 C903 1.363 . S
C906 N904 1.356 . S
C907 C901 1.363 . S
C907 C902 1.379 . S
C907 N905 1.356 . S
N908 C900 1.356 . S
N908 H914 0.984 . S
N908 H915 0.984 . S
N909 C902 1.356 . S
N909 H912 0.984 . S
N909 H913 0.985 . S
H910 N905 0.984 . S
H911 N905 0.985 . S
H912 N909 0.984 . S
H913 N909 0.985 . S
H914 N908 0.984 . S
H915 N908 0.984 . S
H916 N904 0.984 . S
H917 N904 0.985 . S
C918 C919 1.363 . S
C918 C924 1.379 . S
C918 N926 1.356 . S
C919 C918 1.363 . S
C919 C925 1.363 . S
C920 C921 1.363 . S
C920 C925 1.379 . S
C920 N927 1.356 . S
C921 C920 1.363 . S
C921 C924 1.363 . S
N922 C924 1.356 . S
N922 H934 0.984 . S
N922 H935 0.985 . S
N923 C925 1.356 . S
N923 H928 0.984 . S
N923 H929 0.985 . S
C924 C918 1.379 . S
C924 C921 1.363 . S
C924 N922 1.356 . S
C925 C919 1.363 . S
C925 C920 1.379 . S
C925 N923 1.356 . S
N926 C918 1.356 . S
N926 H932 0.984 . S
N926 H933 0.984 . S
N927 C920 1.356 . S
N927 H930 0.984 . S
N927 H931 0.985 . S
H928 N923 0.984 . S
H929 N923 0.985 . S
H930 N927 0.984 . S
H931 N927 0.985 . S
H932 N926 0.984 . S
H933 N926 0.984 . S
H934 N922 0.984 . S
H935 N922 0.985 . S
C936 C937 1.363 . S
C936 C942 1.379 . S
C936 N944 1.356 . S
C937 C936 1.363 . S
C937 C943 1.363 . S
C938 C939 1.363 . S
C938 C943 1.379 . S
C938 N945 1.356 . S
C939 C938 1.363 . S
C939 C942 1.363 . S
N940 C942 1.356 . S
N940 H952 0.984 . S
N940 H953 0.985 . S
N941 C943 1.356 . S
N941 H946 0.984 . S
N941 H947 0.985 . S
C942 C936 1.379 . S
C942 C939 1.363 . S
C942 N940 1.356 . S
C943 C937 1.363 . S
C943 C938 1.379 . S
C943 N941 1.356 . S
N944 C936 1.356 . S
N944 H950 0.984 . S
N944 H951 0.984 . S
N945 C938 1.356 . S
N945 H948 0.984 . S
N945 H949 0.985 . S
H946 N941 0.984 . S
H947 N941 0.985 . S
H948 N945 0.984 . S
H949 N945 0.985 . S
H950 N944 0.984 . S
H951 N944 0.984 . S
H952 N940 0.984 . S
H953 N940 0.985 . S
C954 C955 1.363 . S
C954 C960 1.379 . S
C954 N962 1.356 . S
C955 C954 1.363 . S
C955 C961 1.363 . S
C956 C957 1.363 . S
C956 C961 1.379 . S
C956 N963 1.356 . S
C957 C956 1.363 . S
C957 C960 1.363 . S
N958 C960 1.356 . S
N958 H970 0.984 . S
N958 H971 0.985 . S
N959 C961 1.356 . S
N959 H964 0.984 . S
N959 H965 0.985 . S
C960 C954 1.379 . S
C960 C957 1.363 . S
C960 N958 1.356 . S
C961 C955 1.363 . S
C961 C956 1.379 . S
C961 N959 1.356 . S
N962 C954 1.356 . S
N962 H968 0.984 . S
N962 H969 0.984 . S
N963 C956 1.356 . S
N963 H966 0.984 . S
N963 H967 0.985 . S
H964 N959 0.984 . S
H965 N959 0.985 . S
H966 N963 0.984 . S
H967 N963 0.985 . S
H968 N962 0.984 . S
H969 N962 0.984 . S
H970 N958 0.984 . S
H971 N958 0.985 . S
C972 C973 1.363 1_565 S
C972 C978 1.379 . S
C972 N980 1.356 1_565 S
C973 C972 1.363 1_545 S
C973 C979 1.363 1_545 S
C974 C975 1.363 . S
C974 C979 1.379 . S
C974 N981 1.356 . S
C975 C974 1.363 . S
C975 C978 1.363 . S
N976 C978 1.356 . S
N976 H988 0.984 . S
N976 H989 0.985 . S
N977 C979 1.356 1_545 S
N977 H982 0.984 . S
N977 H983 0.985 . S
C978 C972 1.379 . S
C978 C975 1.363 . S
C978 N976 1.356 . S
C979 C973 1.363 1_565 S
C979 C974 1.379 . S
C979 N977 1.356 1_565 S
N980 C972 1.356 1_545 S
N980 H986 0.984 . S
N980 H987 0.984 . S
N981 C974 1.356 . S
N981 H984 0.984 . S
N981 H985 0.985 . S
H982 N977 0.984 . S
H983 N977 0.985 . S
H984 N981 0.984 . S
H985 N981 0.985 . S
H986 N980 0.984 . S
H987 N980 0.984 . S
H988 N976 0.984 . S
H989 N976 0.985 . S
C990 C991 1.363 . S
C990 C996 1.379 . S
C990 N998 1.356 . S
C991 C990 1.363 . S
C991 C997 1.363 . S
C992 C993 1.363 . S
C992 C997 1.379 . S
C992 N999 1.356 . S
C993 C992 1.363 . S
C993 C996 1.363 . S
N994 C996 1.356 . S
N994 H1006 0.984 . S
N994 H1007 0.985 . S
N995 C997 1.356 1_655 S
N995 H1000 0.984 . S
N995 H1001 0.985 . S
C996 C990 1.379 . S
C996 C993 1.363 . S
C996 N994 1.356 . S
C997 C991 1.363 . S
C997 C992 1.379 . S
C997 N995 1.356 1_455 S
N998 C990 1.356 . S
N998 H1004 0.984 . S
N998 H1005 0.984 . S
N999 C992 1.356 . S
N999 H1002 0.984 . S
N999 H1003 0.985 . S
H1000 N995 0.984 . S
H1001 N995 0.985 . S
H1002 N999 0.984 . S
H1003 N999 0.985 . S
H1004 N998 0.984 . S
H1005 N998 0.984 . S
H1006 N994 0.984 . S
H1007 N994 0.985 . S
C1008 C1009 1.363 . S
C1008 C1014 1.379 . S
C1008 N1016 1.356 . S
C1009 C1008 1.363 . S
C1009 C1015 1.363 . S
C1010 C1011 1.363 . S
C1010 C1015 1.379 . S
C1010 N1017 1.356 . S
C1011 C1010 1.363 . S
C1011 C1014 1.363 . S
N1012 C1014 1.356 . S
N1012 H1024 0.984 . S
N1012 H1025 0.985 . S
N1013 C1015 1.356 . S
N1013 H1018 0.984 . S
N1013 H1019 0.985 . S
C1014 C1008 1.379 . S
C1014 C1011 1.363 . S
C1014 N1012 1.356 . S
C1015 C1009 1.363 . S
C1015 C1010 1.379 . S
C1015 N1013 1.356 . S
N1016 C1008 1.356 . S
N1016 H1022 0.984 . S
N1016 H1023 0.984 . S
N1017 C1010 1.356 . S
N1017 H1020 0.984 . S
N1017 H1021 0.985 . S
H1018 N1013 0.984 . S
H1019 N1013 0.985 . S
H1020 N1017 0.984 . S
H1021 N1017 0.985 . S
H1022 N1016 0.984 . S
H1023 N1016 0.984 . S
H1024 N1012 0.984 . S
H1025 N1012 0.985 . S
C1026 C1027 1.363 . S
C1026 C1032 1.379 . S
C1026 N1034 1.356 . S
C1027 C1026 1.363 . S
C1027 C1033 1.363 . S
C1028 C1029 1.363 . S
C1028 C1033 1.379 . S
C1028 N1035 1.356 . S
C1029 C1028 1.363 . S
C1029 C1032 1.363 . S
N1030 C1032 1.356 . S
N1030 H1042 0.984 . S
N1030 H1043 0.985 . S
N1031 C1033 1.356 . S
N1031 H1036 0.984 . S
N1031 H1037 0.985 . S
C1032 C1026 1.379 . S
C1032 C1029 1.363 . S
C1032 N1030 1.356 . S
C1033 C1027 1.363 . S
C1033 C1028 1.379 . S
C1033 N1031 1.356 . S
N1034 C1026 1.356 . S
N1034 H1040 0.984 . S
N1034 H1041 0.984 . S
N1035 C1028 1.356 . S
N1035 H1038 0.984 . S
N1035 H1039 0.985 . S
H1036 N1031 0.984 . S
H1037 N1031 0.985 . S
H1038 N1035 0.984 . S
H1039 N1035 0.985 . S
H1040 N1034 0.984 . S
H1041 N1034 0.984 . S
H1042 N1030 0.984 . S
H1043 N1030 0.985 . S
C1044 C1045 1.363 . S
C1044 C1050 1.379 . S
C1044 N1052 1.356 . S
C1045 C1044 1.363 . S
C1045 C1051 1.363 . S
C1046 C1047 1.363 . S
C1046 C1051 1.379 . S
C1046 N1053 1.356 . S
C1047 C1046 1.363 . S
C1047 C1050 1.363 . S
N1048 C1050 1.356 . S
N1048 H1060 0.984 . S
N1048 H1061 0.985 . S
N1049 C1051 1.356 . S
N1049 H1054 0.984 . S
N1049 H1055 0.985 . S
C1050 C1044 1.379 . S
C1050 C1047 1.363 . S
C1050 N1048 1.356 . S
C1051 C1045 1.363 . S
C1051 C1046 1.379 . S
C1051 N1049 1.356 . S
N1052 C1044 1.356 . S
N1052 H1058 0.984 . S
N1052 H1059 0.984 . S
N1053 C1046 1.356 . S
N1053 H1056 0.984 . S
N1053 H1057 0.985 . S
H1054 N1049 0.984 . S
H1055 N1049 0.985 . S
H1056 N1053 0.984 . S
H1057 N1053 0.985 . S
H1058 N1052 0.984 . S
H1059 N1052 0.984 . S
H1060 N1048 0.984 . S
H1061 N1048 0.985 . S
C1062 C1063 1.363 . S
C1062 C1068 1.379 . S
C1062 N1070 1.356 . S
C1063 C1062 1.363 . S
C1063 C1069 1.363 . S
C1064 C1065 1.363 . S
C1064 C1069 1.379 . S
C1064 N1071 1.356 . S
C1065 C1064 1.363 . S
C1065 C1068 1.363 . S
N1066 C1068 1.356 . S
N1066 H1078 0.984 . S
N1066 H1079 0.985 . S
N1067 C1069 1.356 . S
N1067 H1072 0.984 . S
N1067 H1073 0.985 . S
C1068 C1062 1.379 . S
C1068 C1065 1.363 . S
C1068 N1066 1.356 . S
C1069 C1063 1.363 . S
C1069 C1064 1.379 . S
C1069 N1067 1.356 . S
N1070 C1062 1.356 . S
N1070 H1076 0.984 . S
N1070 H1077 0.984 . S
N1071 C1064 1.356 . S
N1071 H1074 0.984 . S
N1071 H1075 0.985 . S
H1072 N1067 0.984 . S
H1073 N1067 0.985 . S
H1074 N1071 0.984 . S
H1075 N1071 0.985 . S
H1076 N1070 0.984 . S
H1077 N1070 0.984 . S
H1078 N1066 0.984 . S
H1079 N1066 0.985 . S
C1080 C1081 1.363 . S
C1080 C1086 1.379 1_565 S
C1080 N1088 1.356 . S
C1081 C1080 1.363 . S
C1081 C1087 1.363 . S
C1082 C1083 1.363 . S
C1082 C1087 1.379 1_545 S
C1082 N1089 1.356 . S
C1083 C1082 1.363 . S
C1083 C1086 1.363 . S
N1084 C1086 1.356 . S
N1084 H1096 0.984 . S
N1084 H1097 0.985 . S
N1085 C1087 1.356 . S
N1085 H1090 0.984 . S
N1085 H1091 0.985 . S
C1086 C1080 1.379 1_545 S
C1086 C1083 1.363 . S
C1086 N1084 1.356 . S
C1087 C1081 1.363 . S
C1087 C1082 1.379 1_565 S
C1087 N1085 1.356 . S
N1088 C1080 1.356 . S
N1088 H1094 0.984 . S
N1088 H1095 0.984 . S
N1089 C1082 1.356 . S
N1089 H1092 0.984 . S
N1089 H1093 0.985 . S
H1090 N1085 0.984 . S
H1091 N1085 0.985 . S
H1092 N1089 0.984 . S
H1093 N1089 0.985 . S
H1094 N1088 0.984 . S
H1095 N1088 0.984 . S
H1096 N1084 0.984 . S
H1097 N1084 0.985 . S
C1098 C1099 1.363 . S
C1098 C1104 1.379 1_455 S
C1098 N1106 1.356 . S
C1099 C1098 1.363 . S
C1099 C1105 1.363 . S
C1100 C1101 1.363 1_455 S
C1100 C1105 1.379 . S
C1100 N1107 1.356 . S
C1101 C1100 1.363 1_655 S
C1101 C1104 1.363 . S
N1102 C1104 1.356 . S
N1102 H1114 0.984 . S
N1102 H1115 0.985 . S
N1103 C1105 1.356 . S
N1103 H1108 0.984 . S
N1103 H1109 0.985 . S
C1104 C1098 1.379 1_655 S
C1104 C1101 1.363 . S
C1104 N1102 1.356 . S
C1105 C1099 1.363 . S
C1105 C1100 1.379 . S
C1105 N1103 1.356 . S
N1106 C1098 1.356 . S
N1106 H1112 0.984 1_455 S
N1106 H1113 0.984 . S
N1107 C1100 1.356 . S
N1107 H1110 0.984 1_455 S
N1107 H1111 0.985 . S
H1108 N1103 0.984 . S
H1109 N1103 0.985 . S
H1110 N1107 0.984 1_655 S
H1111 N1107 0.985 . S
H1112 N1106 0.984 1_655 S
H1113 N1106 0.984 . S
H1114 N1102 0.984 . S
H1115 N1102 0.985 . S
C1116 C1117 1.363 . S
C1116 C1122 1.379 . S
C1116 N1124 1.356 . S
C1117 C1116 1.363 . S
C1117 C1123 1.363 . S
C1118 C1119 1.363 . S
C1118 C1123 1.379 . S
C1118 N1125 1.356 . S
C1119 C1118 1.363 . S
C1119 C1122 1.363 . S
N1120 C1122 1.356 . S
N1120 H1132 0.984 . S
N1120 H1133 0.985 . S
N1121 C1123 1.356 . S
N1121 H1126 0.984 . S
N1121 H1127 0.985 . S
C1122 C1116 1.379 . S
C1122 C1119 1.363 . S
C1122 N1120 1.356 . S
C1123 C1117 1.363 . S
C1123 C1118 1.379 . S
C1123 N1121 1.356 . S
N1124 C1116 1.356 . S
N1124 H1130 0.984 . S
N1124 H1131 0.984 . S
N1125 C1118 1.356 . S
N1125 H1128 0.984 . S
N1125 H1129 0.985 . S
H1126 N1121 0.984 . S
H1127 N1121 0.985 . S
H1128 N1125 0.984 . S
H1129 N1125 0.985 . S
H1130 N1124 0.984 . S
H1131 N1124 0.984 . S
H1132 N1120 0.984 . S
H1133 N1120 0.985 . S
C1134 C1135 1.390 . S
C1134 C1140 1.379 . S
C1134 N1142 1.356 . S
C1135 C1134 1.390 . S
C1135 C1141 1.371 . S
C1136 C1137 1.363 . S
C1136 C1141 1.379 . S
C1136 N1143 1.356 . S
C1137 C1136 1.363 . S
C1137 C1140 1.363 . S
N1138 C1140 1.356 . S
N1138 H1150 0.984 . S
N1138 H1151 0.985 . S
N1139 C1141 1.356 1_455 S
N1139 H1144 0.984 . S
N1139 H1145 0.985 . S
C1140 C1134 1.379 . S
C1140 C1137 1.363 . S
C1140 N1138 1.356 . S
C1141 C1135 1.371 . S
C1141 C1136 1.379 . S
C1141 N1139 1.356 1_655 S
N1142 C1134 1.356 . S
N1142 H1148 0.984 . S
N1142 H1149 0.984 1_655 S
N1143 C1136 1.356 . S
N1143 H1146 0.984 . S
N1143 H1147 0.985 . S
H1144 N1139 0.984 . S
H1145 N1139 0.985 . S
H1146 N1143 0.984 . S
H1147 N1143 0.985 . S
H1148 N1142 0.984 . S
H1149 N1142 0.984 1_455 S
H1150 N1138 0.984 . S
H1151 N1138 0.985 . S
C1152 C1153 1.363 . S
C1152 C1158 1.379 . S
C1152 N1160 1.356 . S
C1153 C1152 1.363 . S
C1153 C1159 1.363 . S
C1154 C1155 1.363 . S
C1154 C1159 1.379 . S
C1154 N1161 1.356 . S
C1155 C1154 1.363 . S
C1155 C1158 1.363 . S
N1156 C1158 1.356 . S
N1156 H1168 0.984 . S
N1156 H1169 0.985 . S
N1157 C1159 1.356 . S
N1157 H1162 0.984 . S
N1157 H1163 0.985 . S
C1158 C1152 1.379 . S
C1158 C1155 1.363 . S
C1158 N1156 1.356 . S
C1159 C1153 1.363 . S
C1159 C1154 1.379 . S
C1159 N1157 1.356 . S
N1160 C1152 1.356 . S
N1160 H1166 0.984 . S
N1160 H1167 0.984 . S
N1161 C1154 1.356 . S
N1161 H1164 0.984 . S
N1161 H1165 0.985 . S
H1162 N1157 0.984 . S
H1163 N1157 0.985 . S
H1164 N1161 0.984 . S
H1165 N1161 0.985 . S
H1166 N1160 0.984 . S
H1167 N1160 0.984 . S
H1168 N1156 0.984 . S
H1169 N1156 0.985 . S
C1170 C1171 1.363 . S
C1170 C1176 1.379 . S
C1170 N1178 1.356 1_545 S
C1171 C1170 1.363 . S
C1171 C1177 1.363 . S
C1172 C1173 1.363 . S
C1172 C1177 1.379 . S
C1172 N1179 1.356 . S
C1173 C1172 1.363 . S
C1173 C1176 1.363 . S
N1174 C1176 1.356 . S
N1174 H1186 0.984 . S
N1174 H1187 0.985 . S
N1175 C1177 1.356 1_565 S
N1175 H1180 0.984 . S
N1175 H1181 0.985 1_565 S
C1176 C1170 1.379 . S
C1176 C1173 1.363 . S
C1176 N1174 1.356 . S
C1177 C1171 1.363 . S
C1177 C1172 1.379 . S
C1177 N1175 1.356 1_545 S
N1178 C1170 1.356 1_565 S
N1178 H1184 0.984 . S
N1178 H1185 0.984 . S
N1179 C1172 1.356 . S
N1179 H1182 0.984 . S
N1179 H1183 0.985 . S
H1180 N1175 0.984 . S
H1181 N1175 0.985 1_545 S
H1182 N1179 0.984 . S
H1183 N1179 0.985 . S
H1184 N1178 0.984 . S
H1185 N1178 0.984 . S
H1186 N1174 0.984 . S
H1187 N1174 0.985 . S
C1188 C1189 1.363 . S
C1188 C1194 1.379 . S
C1188 N1196 1.356 . S
C1189 C1188 1.363 . S
C1189 C1195 1.363 . S
C1190 C1191 1.363 . S
C1190 C1195 1.379 . S
C1190 N1197 1.356 . S
C1191 C1190 1.363 . S
C1191 C1194 1.363 . S
N1192 C1194 1.356 . S
N1192 H1204 0.984 . S
N1192 H1205 0.985 . S
N1193 C1195 1.356 . S
N1193 H1198 0.984 . S
N1193 H1199 0.985 . S
C1194 C1188 1.379 . S
C1194 C1191 1.363 . S
C1194 N1192 1.356 . S
C1195 C1189 1.363 . S
C1195 C1190 1.379 . S
C1195 N1193 1.356 . S
N1196 C1188 1.356 . S
N1196 H1202 0.984 . S
N1196 H1203 0.984 . S
N1197 C1190 1.356 . S
N1197 H1200 0.984 . S
N1197 H1201 0.985 . S
H1198 N1193 0.984 . S
H1199 N1193 0.985 . S
H1200 N1197 0.984 . S
H1201 N1197 0.985 . S
H1202 N1196 0.984 . S
H1203 N1196 0.984 . S
H1204 N1192 0.984 . S
H1205 N1192 0.985 . S
C1206 C1207 1.363 . S
C1206 C1212 1.379 . S
C1206 N1214 1.356 . S
C1207 C1206 1.363 . S
C1207 C1213 1.363 . S
C1208 C1209 1.363 . S
C1208 C1213 1.379 . S
C1208 N1215 1.356 . S
C1209 C1208 1.363 . S
C1209 C1212 1.363 . S
N1210 C1212 1.356 . S
N1210 H1222 0.984 . S
N1210 H1223 0.985 . S
N1211 C1213 1.356 . S
N1211 H1216 0.984 . S
N1211 H1217 0.985 . S
C1212 C1206 1.379 . S
C1212 C1209 1.363 . S
C1212 N1210 1.356 . S
C1213 C1207 1.363 . S
C1213 C1208 1.379 . S
C1213 N1211 1.356 . S
N1214 C1206 1.356 . S
N1214 H1220 0.984 . S
N1214 H1221 0.984 . S
N1215 C1208 1.356 . S
N1215 H1218 0.984 . S
N1215 H1219 0.985 . S
H1216 N1211 0.984 . S
H1217 N1211 0.985 . S
H1218 N1215 0.984 . S
H1219 N1215 0.985 . S
H1220 N1214 0.984 . S
H1221 N1214 0.984 . S
H1222 N1210 0.984 . S
H1223 N1210 0.985 . S
C1224 C1225 1.363 . S
C1224 C1230 1.379 . S
C1224 N1232 1.356 . S
C1225 C1224 1.363 . S
C1225 C1231 1.363 . S
C1226 C1227 1.363 . S
C1226 C1231 1.379 . S
C1226 N1233 1.356 . S
C1227 C1226 1.363 . S
C1227 C1230 1.363 . S
N1228 C1230 1.356 . S
N1228 H1240 0.984 . S
N1228 H1241 0.985 . S
N1229 C1231 1.356 . S
N1229 H1234 0.984 . S
N1229 H1235 0.985 . S
C1230 C1224 1.379 . S
C1230 C1227 1.363 . S
C1230 N1228 1.356 . S
C1231 C1225 1.363 . S
C1231 C1226 1.379 . S
C1231 N1229 1.356 . S
N1232 C1224 1.356 . S
N1232 H1238 0.984 . S
N1232 H1239 0.984 . S
N1233 C1226 1.356 . S
N1233 H1236 0.984 . S
N1233 H1237 0.985 . S
H1234 N1229 0.984 . S
H1235 N1229 0.985 . S
H1236 N1233 0.984 . S
H1237 N1233 0.985 . S
H1238 N1232 0.984 . S
H1239 N1232 0.984 . S
H1240 N1228 0.984 . S
H1241 N1228 0.985 . S
C1242 C1243 1.363 . S
C1242 C1248 1.379 . S
C1242 N1250 1.356 . S
C1243 C1242 1.363 . S
C1243 C1249 1.363 . S
C1244 C1245 1.363 . S
C1244 C1249 1.379 . S
C1244 N1251 1.356 1_565 S
C1245 C1244 1.363 . S
C1245 C1248 1.363 . S
N1246 C1248 1.356 . S
N1246 H1258 0.984 . S
N1246 H1259 0.985 . S
N1247 C1249 1.356 . S
N1247 H1252 0.984 . S
N1247 H1253 0.985 1_565 S
C1248 C1242 1.379 . S
C1248 C1245 1.363 . S
C1248 N1246 1.356 . S
C1249 C1243 1.363 . S
C1249 C1244 1.379 . S
C1249 N1247 1.356 . S
N1250 C1242 1.356 . S
N1250 H1256 0.984 . S
N1250 H1257 0.984 . S
N1251 C1244 1.356 1_545 S
N1251 H1254 0.984 . S
N1251 H1255 0.985 . S
H1252 N1247 0.984 . S
H1253 N1247 0.985 1_545 S
H1254 N1251 0.984 . S
H1255 N1251 0.985 . S
H1256 N1250 0.984 . S
H1257 N1250 0.984 . S
H1258 N1246 0.984 . S
H1259 N1246 0.985 . S
C1260 C1261 1.363 . S
C1260 C1266 1.379 . S
C1260 N1268 1.356 . S
C1261 C1260 1.363 . S
C1261 C1267 1.363 . S
C1262 C1263 1.363 . S
C1262 C1267 1.379 . S
C1262 N1269 1.356 . S
C1263 C1262 1.363 . S
C1263 C1266 1.363 . S
N1264 C1266 1.356 . S
N1264 H1276 0.984 . S
N1264 H1277 0.985 . S
N1265 C1267 1.356 . S
N1265 H1270 0.984 . S
N1265 H1271 0.985 . S
C1266 C1260 1.379 . S
C1266 C1263 1.363 . S
C1266 N1264 1.356 . S
C1267 C1261 1.363 . S
C1267 C1262 1.379 . S
C1267 N1265 1.356 . S
N1268 C1260 1.356 . S
N1268 H1274 0.984 . S
N1268 H1275 0.984 . S
N1269 C1262 1.356 . S
N1269 H1272 0.984 . S
N1269 H1273 0.985 . S
H1270 N1265 0.984 . S
H1271 N1265 0.985 . S
H1272 N1269 0.984 . S
H1273 N1269 0.985 . S
H1274 N1268 0.984 . S
H1275 N1268 0.984 . S
H1276 N1264 0.984 . S
H1277 N1264 0.985 . S
C1278 C1279 1.363 . S
C1278 C1284 1.379 . S
C1278 N1286 1.356 . S
C1279 C1278 1.363 . S
C1279 C1285 1.363 . S
C1280 C1281 1.363 . S
C1280 C1285 1.379 . S
C1280 N1287 1.356 . S
C1281 C1280 1.363 . S
C1281 C1284 1.363 . S
N1282 C1284 1.356 . S
N1282 H1294 0.984 . S
N1282 H1295 0.985 . S
N1283 C1285 1.356 . S
N1283 H1288 0.984 . S
N1283 H1289 0.985 . S
C1284 C1278 1.379 . S
C1284 C1281 1.363 . S
C1284 N1282 1.356 . S
C1285 C1279 1.363 . S
C1285 C1280 1.379 . S
C1285 N1283 1.356 . S
N1286 C1278 1.356 . S
N1286 H1292 0.984 . S
N1286 H1293 0.984 . S
N1287 C1280 1.356 . S
N1287 H1290 0.984 . S
N1287 H1291 0.985 . S
H1288 N1283 0.984 . S
H1289 N1283 0.985 . S
H1290 N1287 0.984 . S
H1291 N1287 0.985 . S
H1292 N1286 0.984 . S
H1293 N1286 0.984 . S
H1294 N1282 0.984 . S
H1295 N1282 0.985 . S
C1296 C1297 1.363 . S
C1296 C1302 1.379 . S
C1296 N1304 1.356 . S
C1297 C1296 1.363 . S
C1297 C1303 1.363 . S
C1298 C1299 1.363 . S
C1298 C1303 1.379 . S
C1298 N1305 1.356 1_655 S
C1299 C1298 1.363 . S
C1299 C1302 1.363 . S
N1300 C1302 1.356 . S
N1300 H1312 0.984 . S
N1300 H1313 0.985 . S
N1301 C1303 1.356 1_455 S
N1301 H1306 0.984 1_455 S
N1301 H1307 0.985 . S
C1302 C1296 1.379 . S
C1302 C1299 1.363 . S
C1302 N1300 1.356 . S
C1303 C1297 1.363 . S
C1303 C1298 1.379 . S
C1303 N1301 1.356 1_655 S
N1304 C1296 1.356 . S
N1304 H1310 0.984 . S
N1304 H1311 0.984 . S
N1305 C1298 1.356 1_455 S
N1305 H1308 0.984 1_455 S
N1305 H1309 0.985 . S
H1306 N1301 0.984 1_655 S
H1307 N1301 0.985 . S
H1308 N1305 0.984 1_655 S
H1309 N1305 0.985 . S
H1310 N1304 0.984 . S
H1311 N1304 0.984 . S
H1312 N1300 0.984 . S
H1313 N1300 0.985 . S
C1314 C1315 1.363 . S
C1314 C1320 1.379 . S
C1314 N1322 1.356 . S
C1315 C1314 1.363 . S
C1315 C1321 1.363 . S
C1316 C1317 1.363 . S
C1316 C1321 1.379 . S
C1316 N1323 1.356 . S
C1317 C1316 1.363 . S
C1317 C1320 1.363 . S
N1318 C1320 1.356 . S
N1318 H1330 0.984 . S
N1318 H1331 0.985 . S
N1319 C1321 1.356 . S
N1319 H1324 0.984 . S
N1319 H1325 0.985 . S
C1320 C1314 1.379 . S
C1320 C1317 1.363 . S
C1320 N1318 1.356 . S
C1321 C1315 1.363 . S
C1321 C1316 1.379 . S
C1321 N1319 1.356 . S
N1322 C1314 1.356 . S
N1322 H1328 0.984 . S
N1322 H1329 0.984 . S
N1323 C1316 1.356 . S
N1323 H1326 0.984 . S
N1323 H1327 0.985 . S
H1324 N1319 0.984 . S
H1325 N1319 0.985 . S
H1326 N1323 0.984 . S
H1327 N1323 0.985 . S
H1328 N1322 0.984 . S
H1329 N1322 0.984 . S
H1330 N1318 0.984 . S
H1331 N1318 0.985 . S
C1332 C1333 1.363 . S
C1332 C1338 1.379 . S
C1332 N1340 1.356 . S
C1333 C1332 1.363 . S
C1333 C1339 1.363 . S
C1334 C1335 1.363 . S
C1334 C1339 1.379 . S
C1334 N1341 1.368 . S
C1335 C1334 1.363 . S
C1335 C1338 1.363 . S
N1336 C1338 1.356 . S
N1336 H1348 0.984 . S
N1336 H1349 0.985 . S
N1337 C1339 1.356 . S
N1337 H1342 0.984 . S
N1337 H1343 0.985 . S
C1338 C1332 1.379 . S
C1338 C1335 1.363 . S
C1338 N1336 1.356 . S
C1339 C1333 1.363 . S
C1339 C1334 1.379 . S
C1339 N1337 1.356 . S
N1340 C1332 1.356 . S
N1340 H1346 0.984 . S
N1340 H1347 0.984 . S
N1341 C1334 1.368 . S
N1341 H1344 0.985 . S
N1341 H1345 0.974 1_545 S
H1342 N1337 0.984 . S
H1343 N1337 0.985 . S
H1344 N1341 0.985 . S
H1345 N1341 0.974 1_565 S
H1346 N1340 0.984 . S
H1347 N1340 0.984 . S
H1348 N1336 0.984 . S
H1349 N1336 0.985 . S
C1350 C1351 1.363 . S
C1350 C1356 1.379 . S
C1350 N1358 1.356 . S
C1351 C1350 1.363 . S
C1351 C1357 1.363 . S
C1352 C1353 1.363 . S
C1352 C1357 1.379 . S
C1352 N1359 1.356 . S
C1353 C1352 1.363 . S
C1353 C1356 1.363 . S
N1354 C1356 1.356 . S
N1354 H1366 0.984 . S
N1354 H1367 0.985 . S
N1355 C1357 1.356 . S
N1355 H1360 0.984 . S
N1355 H1361 0.985 . S
C1356 C1350 1.379 . S
C1356 C1353 1.363 . S
C1356 N1354 1.356 . S
C1357 C1351 1.363 . S
C1357 C1352 1.379 . S
C1357 N1355 1.356 . S
N1358 C1350 1.356 . S
N1358 H1364 0.984 . S
N1358 H1365 0.984 . S
N1359 C1352 1.356 . S
N1359 H1362 0.984 . S
N1359 H1363 0.985 . S
H1360 N1355 0.984 . S
H1361 N1355 0.985 . S
H1362 N1359 0.984 . S
H1363 N1359 0.985 . S
H1364 N1358 0.984 . S
H1365 N1358 0.984 . S
H1366 N1354 0.984 . S
H1367 N1354 0.985 . S
C1368 C1369 1.363 . S
C1368 C1374 1.379 . S
C1368 N1376 1.356 . S
C1369 C1368 1.363 . S
C1369 C1375 1.363 . S
C1370 C1371 1.363 . S
C1370 C1375 1.379 . S
C1370 N1377 1.356 . S
C1371 C1370 1.363 . S
C1371 C1374 1.363 . S
N1372 C1374 1.356 . S
N1372 H1384 0.984 . S
N1372 H1385 0.985 . S
N1373 C1375 1.356 . S
N1373 H1378 0.984 . S
N1373 H1379 0.985 . S
C1374 C1368 1.379 . S
C1374 C1371 1.363 . S
C1374 N1372 1.356 . S
C1375 C1369 1.363 . S
C1375 C1370 1.379 . S
C1375 N1373 1.356 . S
N1376 C1368 1.356 . S
N1376 H1382 0.984 . S
N1376 H1383 0.984 . S
N1377 C1370 1.356 . S
N1377 H1380 0.984 . S
N1377 H1381 0.985 . S
H1378 N1373 0.984 . S
H1379 N1373 0.985 . S
H1380 N1377 0.984 . S
H1381 N1377 0.985 . S
H1382 N1376 0.984 . S
H1383 N1376 0.984 . S
H1384 N1372 0.984 . S
H1385 N1372 0.985 . S
C1386 C1387 1.363 . S
C1386 C1392 1.379 . S
C1386 N1394 1.356 . S
C1387 C1386 1.363 . S
C1387 C1393 1.363 . S
C1388 C1389 1.363 . S
C1388 C1393 1.379 . S
C1388 N1395 1.356 . S
C1389 C1388 1.363 . S
C1389 C1392 1.363 . S
N1390 C1392 1.356 . S
N1390 H1402 0.984 . S
N1390 H1403 0.985 . S
N1391 C1393 1.356 . S
N1391 H1396 0.984 . S
N1391 H1397 0.985 . S
C1392 C1386 1.379 . S
C1392 C1389 1.363 . S
C1392 N1390 1.356 . S
C1393 C1387 1.363 . S
C1393 C1388 1.379 . S
C1393 N1391 1.356 . S
N1394 C1386 1.356 . S
N1394 H1400 0.984 . S
N1394 H1401 0.984 . S
N1395 C1388 1.356 . S
N1395 H1398 0.984 . S
N1395 H1399 0.985 . S
H1396 N1391 0.984 . S
H1397 N1391 0.985 . S
H1398 N1395 0.984 . S
H1399 N1395 0.985 . S
H1400 N1394 0.984 . S
H1401 N1394 0.984 . S
H1402 N1390 0.984 . S
H1403 N1390 0.985 . S
C1404 C1405 1.363 . S
C1404 C1410 1.379 . S
C1404 N1412 1.356 . S
C1405 C1404 1.363 . S
C1405 C1411 1.363 . S
C1406 C1407 1.363 . S
C1406 C1411 1.379 . S
C1406 N1413 1.356 . S
C1407 C1406 1.363 . S
C1407 C1410 1.363 . S
N1408 C1410 1.356 . S
N1408 H1420 0.984 . S
N1408 H1421 0.985 . S
N1409 C1411 1.356 . S
N1409 H1414 0.984 . S
N1409 H1415 0.985 . S
C1410 C1404 1.379 . S
C1410 C1407 1.363 . S
C1410 N1408 1.356 . S
C1411 C1405 1.363 . S
C1411 C1406 1.379 . S
C1411 N1409 1.356 . S
N1412 C1404 1.356 . S
N1412 H1418 0.984 . S
N1412 H1419 0.984 . S
N1413 C1406 1.356 . S
N1413 H1416 0.984 . S
N1413 H1417 0.985 . S
H1414 N1409 0.984 . S
H1415 N1409 0.985 . S
H1416 N1413 0.984 . S
H1417 N1413 0.985 . S
H1418 N1412 0.984 . S
H1419 N1412 0.984 . S
H1420 N1408 0.984 . S
H1421 N1408 0.985 . S
C1422 C1423 1.363 . S
C1422 C1428 1.379 . S
C1422 N1430 1.356 . S
C1423 C1422 1.363 . S
C1423 C1429 1.363 . S
C1424 C1425 1.363 . S
C1424 C1429 1.379 . S
C1424 N1431 1.356 . S
C1425 C1424 1.363 . S
C1425 C1428 1.363 . S
N1426 C1428 1.356 . S
N1426 H1438 0.984 . S
N1426 H1439 0.985 . S
N1427 C1429 1.356 . S
N1427 H1432 0.984 . S
N1427 H1433 0.985 . S
C1428 C1422 1.379 . S
C1428 C1425 1.363 . S
C1428 N1426 1.356 . S
C1429 C1423 1.363 . S
C1429 C1424 1.379 . S
C1429 N1427 1.356 . S
N1430 C1422 1.356 . S
N1430 H1436 0.984 . S
N1430 H1437 0.984 . S
N1431 C1424 1.356 . S
N1431 H1434 0.984 . S
N1431 H1435 0.985 . S
H1432 N1427 0.984 . S
H1433 N1427 0.985 . S
H1434 N1431 0.984 . S
H1435 N1431 0.985 . S
H1436 N1430 0.984 . S
H1437 N1430 0.984 . S
H1438 N1426 0.984 . S
H1439 N1426 0.985 . S
C1440 C1441 1.363 . S
C1440 C1446 1.379 . S
C1440 N1448 1.356 . S
C1441 C1440 1.363 . S
C1441 C1447 1.363 . S
C1442 C1443 1.363 . S
C1442 C1447 1.379 . S
C1442 N1449 1.356 . S
C1443 C1442 1.363 . S
C1443 C1446 1.363 . S
N1444 C1446 1.356 . S
N1444 H1456 0.984 . S
N1444 H1457 0.985 . S
N1445 C1447 1.356 . S
N1445 H1450 0.984 . S
N1445 H1451 0.985 . S
C1446 C1440 1.379 . S
C1446 C1443 1.363 . S
C1446 N1444 1.356 . S
C1447 C1441 1.363 . S
C1447 C1442 1.379 . S
C1447 N1445 1.356 . S
N1448 C1440 1.356 . S
N1448 H1454 0.984 . S
N1448 H1455 0.984 . S
N1449 C1442 1.356 . S
N1449 H1452 0.984 . S
N1449 H1453 0.985 . S
H1450 N1445 0.984 . S
H1451 N1445 0.985 . S
H1452 N1449 0.984 . S
H1453 N1449 0.985 . S
H1454 N1448 0.984 . S
H1455 N1448 0.984 . S
H1456 N1444 0.984 . S
H1457 N1444 0.985 . S
C1458 C1459 1.363 . S
C1458 C1464 1.379 . S
C1458 N1466 1.356 . S
C1459 C1458 1.363 . S
C1459 C1465 1.363 . S
C1460 C1461 1.363 . S
C1460 C1465 1.379 . S
C1460 N1467 1.356 . S
C1461 C1460 1.363 . S
C1461 C1464 1.363 . S
N1462 C1464 1.356 . S
N1462 H1474 0.984 . S
N1462 H1475 0.985 . S
N1463 C1465 1.356 . S
N1463 H1468 0.984 . S
N1463 H1469 0.985 . S
C1464 C1458 1.379 . S
C1464 C1461 1.363 . S
C1464 N1462 1.356 . S
C1465 C1459 1.363 . S
C1465 C1460 1.379 . S
C1465 N1463 1.356 . S
N1466 C1458 1.356 . S
N1466 H1472 0.984 . S
N1466 H1473 0.984 . S
N1467 C1460 1.356 . S
N1467 H1470 0.984 . S
N1467 H1471 0.985 . S
H1468 N1463 0.984 . S
H1469 N1463 0.985 . S
H1470 N1467 0.984 . S
H1471 N1467 0.985 . S
H1472 N1466 0.984 . S
H1473 N1466 0.984 . S
H1474 N1462 0.984 . S
H1475 N1462 0.985 . S
C1476 C1477 1.363 . S
C1476 C1482 1.379 . S
C1476 N1484 1.356 . S
C1477 C1476 1.363 . S
C1477 C1483 1.363 . S
C1478 C1479 1.363 . S
C1478 C1483 1.379 . S
C1478 N1485 1.356 . S
C1479 C1478 1.363 . S
C1479 C1482 1.363 . S
N1480 C1482 1.356 . S
N1480 H1492 0.984 . S
N1480 H1493 0.985 . S
N1481 C1483 1.356 . S
N1481 H1486 0.984 . S
N1481 H1487 0.985 . S
C1482 C1476 1.379 . S
C1482 C1479 1.363 . S
C1482 N1480 1.356 . S
C1483 C1477 1.363 . S
C1483 C1478 1.379 . S
C1483 N1481 1.356 . S
N1484 C1476 1.356 . S
N1484 H1490 0.984 . S
N1484 H1491 0.984 . S
N1485 C1478 1.356 . S
N1485 H1488 0.984 . S
N1485 H1489 0.985 . S
H1486 N1481 0.984 . S
H1487 N1481 0.985 . S
H1488 N1485 0.984 . S
H1489 N1485 0.985 . S
H1490 N1484 0.984 . S
H1491 N1484 0.984 . S
H1492 N1480 0.984 . S
H1493 N1480 0.985 . S
C1494 C1495 1.363 . S
C1494 C1500 1.379 . S
C1494 N1502 1.356 . S
C1495 C1494 1.363 . S
C1495 C1501 1.363 . S
C1496 C1497 1.363 . S
C1496 C1501 1.379 . S
C1496 N1503 1.356 . S
C1497 C1496 1.363 . S
C1497 C1500 1.363 . S
N1498 C1500 1.356 . S
N1498 H1510 0.984 . S
N1498 H1511 0.985 . S
N1499 C1501 1.356 . S
N1499 H1504 0.984 . S
N1499 H1505 0.985 . S
C1500 C1494 1.379 . S
C1500 C1497 1.363 . S
C1500 N1498 1.356 . S
C1501 C1495 1.363 . S
C1501 C1496 1.379 . S
C1501 N1499 1.356 . S
N1502 C1494 1.356 . S
N1502 H1508 0.984 . S
N1502 H1509 0.984 . S
N1503 C1496 1.356 . S
N1503 H1506 0.984 . S
N1503 H1507 0.985 . S
H1504 N1499 0.984 . S
H1505 N1499 0.985 . S
H1506 N1503 0.984 . S
H1507 N1503 0.985 . S
H1508 N1502 0.984 . S
H1509 N1502 0.984 . S
H1510 N1498 0.984 . S
H1511 N1498 0.985 . S
C1512 C1513 1.363 . S
C1512 C1518 1.379 . S
C1512 N1520 1.356 . S
C1513 C1512 1.363 . S
C1513 C1519 1.363 . S
C1514 C1515 1.363 . S
C1514 C1519 1.379 . S
C1514 N1521 1.356 . S
C1515 C1514 1.363 . S
C1515 C1518 1.363 . S
N1516 C1518 1.356 . S
N1516 H1528 0.984 . S
N1516 H1529 0.985 . S
N1517 C1519 1.356 . S
N1517 H1522 0.984 . S
N1517 H1523 0.985 . S
C1518 C1512 1.379 . S
C1518 C1515 1.363 . S
C1518 N1516 1.356 . S
C1519 C1513 1.363 . S
C1519 C1514 1.379 . S
C1519 N1517 1.356 . S
N1520 C1512 1.356 . S
N1520 H1526 0.984 . S
N1520 H1527 0.984 . S
N1521 C1514 1.356 . S
N1521 H1524 0.984 . S
N1521 H1525 0.985 . S
H1522 N1517 0.984 . S
H1523 N1517 0.985 . S
H1524 N1521 0.984 . S
H1525 N1521 0.985 . S
H1526 N1520 0.984 . S
H1527 N1520 0.984 . S
H1528 N1516 0.984 . S
H1529 N1516 0.985 . S
C1530 C1531 1.363 . S
C1530 C1536 1.379 . S
C1530 N1538 1.356 . S
C1531 C1530 1.363 . S
C1531 C1537 1.363 . S
C1532 C1533 1.363 . S
C1532 C1537 1.379 . S
C1532 N1539 1.356 . S
C1533 C1532 1.363 . S
C1533 C1536 1.363 . S
N1534 C1536 1.356 . S
N1534 H1546 0.984 . S
N1534 H1547 0.985 . S
N1535 C1537 1.356 . S
N1535 H1540 0.984 . S
N1535 H1541 0.985 . S
C1536 C1530 1.379 . S
C1536 C1533 1.363 . S
C1536 N1534 1.356 . S
C1537 C1531 1.363 . S
C1537 C1532 1.379 . S
C1537 N1535 1.356 . S
N1538 C1530 1.356 . S
N1538 H1544 0.984 . S
N1538 H1545 0.984 . S
N1539 C1532 1.356 . S
N1539 H1542 0.984 . S
N1539 H1543 0.985 . S
H1540 N1535 0.984 . S
H1541 N1535 0.985 . S
H1542 N1539 0.984 . S
H1543 N1539 0.985 . S
H1544 N1538 0.984 . S
H1545 N1538 0.984 . S
H1546 N1534 0.984 . S
H1547 N1534 0.985 . S
C1548 C1549 1.363 . S
C1548 C1554 1.379 . S
C1548 N1556 1.356 . S
C1549 C1548 1.363 . S
C1549 C1555 1.363 . S
C1550 C1551 1.363 . S
C1550 C1555 1.379 . S
C1550 N1557 1.356 . S
C1551 C1550 1.363 . S
C1551 C1554 1.363 . S
N1552 C1554 1.356 . S
N1552 H1564 0.984 . S
N1552 H1565 0.985 . S
N1553 C1555 1.356 . S
N1553 H1558 0.984 . S
N1553 H1559 0.985 . S
C1554 C1548 1.379 . S
C1554 C1551 1.363 . S
C1554 N1552 1.356 . S
C1555 C1549 1.363 . S
C1555 C1550 1.379 . S
C1555 N1553 1.356 . S
N1556 C1548 1.356 . S
N1556 H1562 0.984 . S
N1556 H1563 0.984 . S
N1557 C1550 1.356 . S
N1557 H1560 0.984 . S
N1557 H1561 0.985 . S
H1558 N1553 0.984 . S
H1559 N1553 0.985 . S
H1560 N1557 0.984 . S
H1561 N1557 0.985 . S
H1562 N1556 0.984 . S
H1563 N1556 0.984 . S
H1564 N1552 0.984 . S
H1565 N1552 0.985 . S
C595 C177 1.653 . S
C597 C237 1.666 . S
C613 C190 1.750 . S
C615 C277 1.746 . S
C631 C164 1.588 . S
C633 C329 1.581 . S
C649 C151 1.492 . S
C651 C289 1.473 . S
C669 C317 1.520 . S
C667 C125 1.523 . S
C685 C138 1.403 . S
C687 C249 1.405 1_556 S
C705 C256 1.671 . S
C703 C147 1.651 . S
C723 C296 1.647 . S
C721 C121 1.592 . S
C739 C134 1.612 . S
C741 C316 1.672 1_556 S
C757 C173 1.492 . S
C759 C276 1.532 . S
C775 C186 1.475 . S
C777 C336 1.488 . S
C795 C236 1.526 . S
C793 C160 1.495 . S
C813 C357 1.666 . S
C811 C21 1.653 . S
C829 C34 1.750 . S
C831 C397 1.747 . S
C847 C8 1.588 . S
C849 C449 1.581 . S
C865 C229 1.493 . S
C867 C409 1.473 . S
C883 C203 1.522 . S
C885 C437 1.519 . S
C901 C216 1.403 . S
C903 C369 1.405 . S
C919 C225 1.651 . S
C921 C376 1.671 . S
C937 C199 1.593 . S
C939 C416 1.648 . S
C957 C436 1.672 . S
C955 C212 1.612 . S
C973 C17 1.491 . S
C975 C396 1.531 . S
C993 C456 1.488 . S
C991 C30 1.475 1_455 S
C1009 C4 1.495 . S
C1011 C356 1.526 . S
C1029 C477 1.666 . S
C1027 C99 1.653 . S
C1045 C112 1.750 . S
C1047 C517 1.746 . S
C1065 C569 1.581 . S
C1063 C86 1.588 . S
C1083 C529 1.473 . S
C1081 C73 1.493 . S
C1101 C557 1.519 . S
C1099 C47 1.522 . S
C1117 C60 1.403 . S
C1119 C489 1.405 . S
C1135 C69 1.620 1_655 S
C1137 C496 1.671 . S
C1153 C43 1.592 . S
C1155 C536 1.648 . S
C1173 C556 1.672 . S
C1171 C56 1.612 1_545 S
C1189 C95 1.492 . S
C1191 C516 1.532 . S
C1207 C108 1.475 . S
C1209 C576 1.488 . S
C1225 C82 1.495 . S
C1227 C476 1.526 . S
C1243 C204 1.598 . S
C1245 C260 1.560 . S
C1263 C300 1.867 . S
C1261 C217 1.915 . S
C1279 C230 1.553 . S
C1281 C323 1.571 . S
C1297 C87 1.729 . S
C1299 C283 1.724 . S
C1315 C100 1.678 . S
C1317 C340 1.653 . S
C1335 C243 1.370 . S
C1333 C113 1.363 . S
C1351 C48 1.598 . S
C1353 C380 1.560 . S
C1369 C61 1.915 . S
C1371 C420 1.867 . S
C1387 C74 1.553 . S
C1389 C443 1.571 . S
C1405 C165 1.729 . S
C1407 C403 1.724 . S
C1425 C460 1.653 . S
C1423 C178 1.679 . S
C1441 C191 1.363 . S
C1443 C363 1.370 . S
C1459 C126 1.598 . S
C1461 C500 1.560 . S
C1477 C139 1.915 . S
C1479 C540 1.867 . S
C1497 C563 1.571 . S
C1495 C152 1.553 . S
C1513 C9 1.729 . S
C1515 C523 1.724 . S
C1531 C22 1.678 . S
C1533 C580 1.653 . S
C1549 C35 1.363 . S
C1551 C483 1.370 . S
