# Generated by pormake.
# Topology zzz, (3,6)-cn, num edge types: 1
# Building blocks:
#     Node 0, Type 0, BuildingBlock: CUQRIR_clean_linker_1, # of connection points: 3
#     Node 1, Type 0, BuildingBlock: CUQRIR_clean_linker_1, # of connection points: 3
#     Node 2, Type 0, BuildingBlock: CUQRIR_clean_linker_1, # of connection points: 3
#     Node 3, Type 0, BuildingBlock: CUQRIR_clean_linker_1, # of connection points: 3
#     Node 4, Type 0, BuildingBlock: CUQRIR_clean_linker_1, # of connection points: 3
#     Node 5, Type 0, BuildingBlock: CUQRIR_clean_linker_1, # of connection points: 3
#     Node 6, Type 0, BuildingBlock: CUQRIR_clean_linker_1, # of connection points: 3
#     Node 7, Type 0, BuildingBlock: CUQRIR_clean_linker_1, # of connection points: 3
#     Node 8, Type 1, BuildingBlock: GEDQOX_clean_sbu_0, # of connection points: 6
#     Node 9, Type 1, BuildingBlock: GEDQOX_clean_sbu_0, # of connection points: 6
#     Node 10, Type 1, BuildingBlock: GEDQOX_clean_sbu_0, # of connection points: 6
#     Node 11, Type 1, BuildingBlock: GEDQOX_clean_sbu_0, # of connection points: 6
#     Edge 12, Type (0, 1), BuildingBlock: TEMPAE_clean_linker_10, # of connection points: 2
#     Edge 13, Type (0, 1), BuildingBlock: TEMPAE_clean_linker_10, # of connection points: 2
#     Edge 14, Type (0, 1), BuildingBlock: TEMPAE_clean_linker_10, # of connection points: 2
#     Edge 15, Type (0, 1), BuildingBlock: TEMPAE_clean_linker_10, # of connection points: 2
#     Edge 16, Type (0, 1), BuildingBlock: TEMPAE_clean_linker_10, # of connection points: 2
#     Edge 17, Type (0, 1), BuildingBlock: TEMPAE_clean_linker_10, # of connection points: 2
#     Edge 18, Type (0, 1), BuildingBlock: TEMPAE_clean_linker_10, # of connection points: 2
#     Edge 19, Type (0, 1), BuildingBlock: TEMPAE_clean_linker_10, # of connection points: 2
#     Edge 20, Type (0, 1), BuildingBlock: TEMPAE_clean_linker_10, # of connection points: 2
#     Edge 21, Type (0, 1), BuildingBlock: TEMPAE_clean_linker_10, # of connection points: 2
#     Edge 22, Type (0, 1), BuildingBlock: TEMPAE_clean_linker_10, # of connection points: 2
#     Edge 23, Type (0, 1), BuildingBlock: TEMPAE_clean_linker_10, # of connection points: 2
#     Edge 24, Type (0, 1), BuildingBlock: TEMPAE_clean_linker_10, # of connection points: 2
#     Edge 25, Type (0, 1), BuildingBlock: TEMPAE_clean_linker_10, # of connection points: 2
#     Edge 26, Type (0, 1), BuildingBlock: TEMPAE_clean_linker_10, # of connection points: 2
#     Edge 27, Type (0, 1), BuildingBlock: TEMPAE_clean_linker_10, # of connection points: 2
#     Edge 28, Type (0, 1), BuildingBlock: TEMPAE_clean_linker_10, # of connection points: 2
#     Edge 29, Type (0, 1), BuildingBlock: TEMPAE_clean_linker_10, # of connection points: 2
#     Edge 30, Type (0, 1), BuildingBlock: TEMPAE_clean_linker_10, # of connection points: 2
#     Edge 31, Type (0, 1), BuildingBlock: TEMPAE_clean_linker_10, # of connection points: 2
#     Edge 32, Type (0, 1), BuildingBlock: TEMPAE_clean_linker_10, # of connection points: 2
#     Edge 33, Type (0, 1), BuildingBlock: TEMPAE_clean_linker_10, # of connection points: 2
#     Edge 34, Type (0, 1), BuildingBlock: TEMPAE_clean_linker_10, # of connection points: 2
#     Edge 35, Type (0, 1), BuildingBlock: TEMPAE_clean_linker_10, # of connection points: 2
# Relax obj value: 0.125
# Max RMSD: 0.189
# Mean RMSD: 0.088
data_MOF--net-zzz--node1-GEDQOX_clean_sbu_0--node2-CUQRIR_clean_linker_1--edge1-TEMPAE_clean_linker_10
_symmetry_space_group_name_H-M    P1
_symmetry_Int_Tables_number       1
_symmetry_cell_setting            triclinic
loop_
_symmetry_equiv_pos_as_xyz
'x, y, z'
_cell_length_a     52.041728
_cell_length_b     50.809828
_cell_length_c     15.955157
_cell_angle_alpha  78.468654
_cell_angle_beta   89.471138
_cell_angle_gamma 100.53579
loop_
_atom_site_label
_atom_site_type_symbol
_atom_site_fract_x
_atom_site_fract_y
_atom_site_fract_z
_atom_type_partial_charge
C0 C 0.76981 0.56161 0.19628 0.0
N1 N 0.79503 0.55866 0.18929 0.0
N2 N 0.75627 0.55421 0.1296 0.0
C3 C 0.75797 0.56958 0.27166 0.0
C4 C 0.77431 0.54656 0.08207 0.0
N5 N 0.79777 0.54915 0.11858 0.0
C6 C 0.76964 0.53878 0.99658 0.0
H7 H 0.73701 0.55982 0.28301 0.0
H8 H 0.75948 0.5921 0.25841 0.0
H9 H 0.76857 0.56364 0.33041 0.0
H10 H 0.78784 0.54478 0.95502 0.0
H11 H 0.75409 0.54861 0.96361 0.0
H12 H 0.76334 0.51626 0.00653 0.0
C13 C 0.02935 0.75074 0.31762 0.0
N14 N 0.0328 0.77818 0.31369 0.0
N15 N 0.03489 0.74539 0.23965 0.0
C16 C 0.02195 0.72935 0.39785 0.0
C17 C 0.04157 0.77057 0.18851 0.0
N18 N 0.04039 0.79026 0.23333 0.0
C19 C 0.04766 0.77596 0.09353 0.0
H20 H 0.02854 0.73754 0.45511 0.0
H21 H 0.03048 0.71102 0.3954 0.0
H22 H 1.00033 0.72309 0.40366 0.0
H23 H 0.03778 0.7587 0.06544 0.0
H24 H 0.0691 0.77845 0.08192 0.0
H25 H 0.04152 0.79507 0.06077 0.0
C26 C 0.78329 0.99366 0.21932 0.0
N27 N 0.75877 0.99887 0.20985 0.0
N28 N 0.79661 0.99976 0.14243 0.0
C29 C 0.7944 0.98333 0.30353 0.0
C30 C 0.77949 0.00913 0.08605 0.0
N31 N 0.75652 0.00868 0.12703 0.0
C32 C 0.78544 0.01907 0.99135 0.0
H33 H 0.7867 0.99208 0.35481 0.0
H34 H 0.81608 0.98832 0.29998 0.0
H35 H 0.78827 0.96076 0.32076 0.0
H36 H 0.79996 1.00842 0.96791 0.0
H37 H 0.79388 0.04126 0.97864 0.0
H38 H 0.7674 0.01595 0.95522 0.0
C39 C 0.51729 0.80824 0.53097 0.0
N40 N 0.50916 0.78082 0.53788 0.0
N41 N 0.50913 0.82233 0.45737 0.0
C42 C 0.53218 0.8213 0.59676 0.0
C43 C 0.49614 0.80258 0.41963 0.0
N44 N 0.49602 0.77763 0.46845 0.0
C45 C 0.48528 0.80758 0.33181 0.0
H46 H 0.52792 0.84202 0.59489 0.0
H47 H 0.55343 0.82335 0.58237 0.0
H48 H 0.52728 0.80845 0.6618 0.0
H49 H 0.48594 0.79025 0.29967 0.0
H50 H 0.4963 0.82665 0.29083 0.0
H51 H 0.46455 0.8097 0.33836 0.0
C52 C 0.28935 0.51407 0.63933 0.0
N53 N 0.26435 0.51787 0.6447 0.0
N54 N 0.30319 0.52302 0.70307 0.0
C55 C 0.30013 0.50136 0.57268 0.0
C56 C 0.28571 0.53248 0.74722 0.0
N57 N 0.26214 0.52948 0.71145 0.0
C58 C 0.29163 0.54459 0.82514 0.0
H59 H 0.32161 0.50816 0.56244 0.0
H60 H 0.2906 0.50644 0.51112 0.0
H61 H 0.29594 0.4788 0.59476 0.0
H62 H 0.29657 0.56718 0.80491 0.0
H63 H 0.30849 0.53752 0.85837 0.0
H64 H 0.27428 0.53931 0.87045 0.0
C65 C 0.03678 0.32683 0.52871 0.0
N66 N 0.03462 0.29934 0.53584 0.0
N67 N 0.03095 0.33282 0.60551 0.0
C68 C 0.04514 0.34787 0.44827 0.0
C69 C 0.02534 0.30802 0.6592 0.0
N70 N 0.02752 0.28793 0.61702 0.0
C71 C 0.01775 0.30342 0.75298 0.0
H72 H 0.06623 0.35659 0.45054 0.0
H73 H 0.03412 0.36481 0.44393 0.0
H74 H 0.04231 0.33885 0.39051 0.0
H75 H 0.99624 0.30163 0.76051 0.0
H76 H 0.02735 0.32089 0.78067 0.0
H77 H 0.02299 0.2843 0.78925 0.0
C78 C 0.27835 0.07639 0.62132 0.0
N79 N 0.30226 0.06971 0.63294 0.0
N80 N 0.26303 0.0669 0.69401 0.0
C81 C 0.27027 0.093 0.54054 0.0
C82 C 0.27829 0.05401 0.74999 0.0
N83 N 0.30218 0.05573 0.71294 0.0
C84 C 0.26922 0.03852 0.83898 0.0
H85 H 0.25415 0.10337 0.55409 0.0
H86 H 0.26327 0.07915 0.49648 0.0
H87 H 0.28714 0.10843 0.50808 0.0
H88 H 0.24786 0.03039 0.84255 0.0
H89 H 0.27319 0.05265 0.88407 0.0
H90 H 0.27976 0.02136 0.85932 0.0
C91 C 0.53269 0.26786 0.33545 0.0
N92 N 0.54206 0.29503 0.32948 0.0
N93 N 0.53925 0.25313 0.41039 0.0
C94 C 0.5173 0.25564 0.26901 0.0
C95 C 0.55285 0.27215 0.44954 0.0
N96 N 0.55461 0.29738 0.40061 0.0
C97 C 0.56312 0.26641 0.538 0.0
H98 H 0.49617 0.25466 0.28279 0.0
H99 H 0.52048 0.23452 0.27092 0.0
H100 H 0.5228 0.2684 0.20415 0.0
H101 H 0.58473 0.27272 0.53375 0.0
H102 H 0.55796 0.2445 0.56948 0.0
H103 H 0.55525 0.27886 0.57825 0.0
Nd104 Nd 0.02239 0.02815 0.84017 0.0
Nd105 Nd 0.03881 0.049 1.00101 0.0
C106 C 0.00377 0.99729 0.72968 0.0
C107 C 0.0076 0.97217 0.69979 0.0
C108 C 0.00227 0.94601 0.75366 0.0
C109 C 0.00452 0.92257 0.72186 0.0
C110 C 0.01214 0.92461 0.63532 0.0
C111 C 0.01804 0.95093 0.58244 0.0
C112 C 0.01567 0.97426 0.61407 0.0
C113 C 0.07369 0.05448 0.83361 0.0
C114 C 0.04527 0.98789 0.9998 0.0
C115 C 0.05788 0.07991 0.11108 0.0
C116 C 0.05436 0.10528 0.13982 0.0
C117 C 0.07637 0.1232 0.15917 0.0
C118 C 0.07361 0.1465 0.19065 0.0
C119 C 0.04871 0.15256 0.20403 0.0
C120 C 0.02666 0.13475 0.18324 0.0
C121 C 0.02945 0.11147 0.15135 0.0
C122 C 0.98778 0.02211 0.00847 0.0
C123 C 0.01586 0.08893 0.83918 0.0
O124 O 0.99318 0.99452 0.80647 0.0
O125 O 0.02238 0.0189 0.70956 0.0
O126 O 0.05852 0.0571 0.76968 0.0
O127 O 0.06187 0.0378 0.8976 0.0
O128 O 0.03028 0.99025 0.93354 0.0
O129 O 0.05465 0.00908 0.03418 0.0
O130 O 0.06835 0.08268 0.03414 0.0
O131 O 0.03906 0.05849 0.13102 0.0
O132 O 0.00307 0.0198 0.07225 0.0
O133 O 0.99927 0.03903 0.94427 0.0
O134 O 0.02989 0.08683 0.90791 0.0
O135 O 0.0071 0.06787 0.80399 0.0
H136 H 0.996 0.94356 0.82013 0.0
H137 H 0.99964 0.90278 0.76476 0.0
H138 H 0.02457 0.95363 0.51613 0.0
H139 H 0.01995 0.99406 0.57089 0.0
H140 H 0.09579 0.11892 0.15121 0.0
H141 H 0.09105 0.15941 0.20669 0.0
H142 H 0.00719 0.13884 0.19139 0.0
H143 H 0.0121 0.09818 0.13649 0.0
Nd144 Nd 0.53073 0.01595 0.8725 0.0
Nd145 Nd 0.52778 0.06088 0.98267 0.0
C146 C 0.54298 0.9765 0.80331 0.0
C147 C 0.56426 0.97523 0.74244 0.0
C148 C 0.58593 0.96382 0.77241 0.0
C149 C 0.60694 0.96437 0.71629 0.0
C150 C 0.60672 0.97624 0.62874 0.0
C151 C 0.58468 0.98691 0.59841 0.0
C152 C 0.5637 0.98637 0.65446 0.0
C153 C 0.52719 0.06689 0.77964 0.0
C154 C 0.58525 0.05046 0.93498 0.0
C155 C 0.51803 0.10404 0.03642 0.0
C156 C 0.49873 0.10732 0.10102 0.0
C157 C 0.47491 0.1149 0.07505 0.0
C158 C 0.45523 0.11469 0.13561 0.0
C159 C 0.45895 0.1071 0.22374 0.0
C160 C 0.48329 0.10091 0.24978 0.0
C161 C 0.50295 0.10102 0.18919 0.0
C162 C 0.52076 0.00943 0.09036 0.0
C163 C 0.47492 0.02573 0.91886 0.0
O164 O 0.54981 0.9799 0.87981 0.0
O165 O 0.5255 0.99096 0.77292 0.0
O166 O 0.51685 0.04406 0.75853 0.0
O167 O 0.54064 0.06256 0.84513 0.0
O168 O 0.57376 0.03086 0.89694 0.0
O169 O 0.57225 0.06631 0.96811 0.0
O170 O 0.50836 0.09676 0.9671 0.0
O171 O 0.53703 0.09141 0.06506 0.0
O172 O 0.52054 0.03185 0.11695 0.0
O173 O 0.52405 0.01529 0.01026 0.0
O174 O 0.48718 0.04963 0.93173 0.0
O175 O 0.48738 1.00562 0.91427 0.0
H176 H 0.58685 0.95484 0.83962 0.0
H177 H 0.62341 0.95555 0.74158 0.0
H178 H 0.58391 0.99644 0.53162 0.0
H179 H 0.54729 0.99526 0.62884 0.0
H180 H 0.47108 0.12007 0.00769 0.0
H181 H 0.43669 0.1194 0.11316 0.0
H182 H 0.487 0.09551 0.31716 0.0
H183 H 0.52117 0.0954 0.21166 0.0
Nd184 Nd 0.51142 0.53939 0.01205 0.0
Nd185 Nd 0.54507 0.53839 0.85735 0.0
C186 C 0.47502 0.54482 0.12072 0.0
C187 C 0.46869 0.56799 0.15254 0.0
C188 C 0.44823 0.5641 0.21402 0.0
C189 C 0.4436 0.58608 0.24876 0.0
C190 C 0.4594 0.61212 0.22207 0.0
C191 C 0.47948 0.61588 0.15879 0.0
C192 C 0.48407 0.59399 0.12439 0.0
C193 C 0.56417 0.54753 0.0375 0.0
C194 C 0.5303 0.59673 0.86643 0.0
C195 C 0.58186 0.53174 0.75254 0.0
C196 C 0.58627 0.5082 0.71868 0.0
C197 C 0.60708 0.51062 0.65967 0.0
C198 C 0.61021 0.4882 0.62467 0.0
C199 C 0.5926 0.46316 0.6489 0.0
C200 C 0.57201 0.46088 0.70913 0.0
C201 C 0.56886 0.48323 0.74352 0.0
C202 C 0.49259 0.53051 0.8306 0.0
C203 C 0.52569 0.48096 1.00267 0.0
O204 O 0.47129 0.54523 0.03965 0.0
O205 O 0.49735 0.53815 0.14423 0.0
O206 O 0.54651 0.53397 0.09574 0.0
O207 O 0.55377 0.55778 0.97068 0.0
O208 O 0.51371 0.58329 0.93082 0.0
O209 O 0.54727 0.58473 0.83353 0.0
O210 O 0.58441 0.52959 0.83497 0.0
O211 O 0.56098 0.54123 0.72616 0.0
O212 O 0.51031 0.54315 0.77153 0.0
O213 O 0.50269 0.52023 0.89803 0.0
O214 O 0.54221 0.49432 0.93806 0.0
O215 O 0.50901 0.4931 0.03612 0.0
H216 H 0.43623 0.54404 0.23628 0.0
H217 H 0.42793 0.58266 0.29712 0.0
H218 H 0.49236 0.63552 0.13811 0.0
H219 H 0.50012 0.5972 0.07758 0.0
H220 H 0.62062 0.52988 0.63989 0.0
H221 H 0.62626 0.49044 0.5785 0.0
H222 H 0.5578 0.44206 0.72773 0.0
H223 H 0.55248 0.48118 0.78821 0.0
Nd224 Nd 0.026 0.56182 0.8326 0.0
Nd225 Nd 0.03471 0.51669 0.00462 0.0
C226 C 0.01211 0.60241 0.72368 0.0
C227 C 0.98994 0.60105 0.66685 0.0
C228 C 0.98858 0.62218 0.59638 0.0
C229 C 0.96743 0.61993 0.54251 0.0
C230 C 0.94729 0.59663 0.55911 0.0
C231 C 0.94898 0.57551 0.62944 0.0
C232 C 0.97014 0.57763 0.68219 0.0
C233 C 0.02282 0.50984 0.79618 0.0
C234 C 0.97531 0.52425 0.95514 0.0
C235 C 0.04743 0.47495 0.11168 0.0
C236 C 0.06714 0.47342 0.1781 0.0
C237 C 0.08774 0.45954 0.17027 0.0
C238 C 0.10843 0.46096 0.22566 0.0
C239 C 0.10886 0.47615 0.29049 0.0
C240 C 0.08765 0.48904 0.30065 0.0
C241 C 0.06708 0.4878 0.24488 0.0
C242 C 0.03802 0.56843 0.0421 0.0
C243 C 0.08536 0.5545 0.88144 0.0
O244 O 0.00558 0.59698 0.80579 0.0
O245 O 0.03083 0.59006 0.70549 0.0
O246 O 0.02012 0.53139 0.74042 0.0
O247 O 0.02631 0.5168 0.86744 0.0
O248 O 0.98499 0.54598 0.89543 0.0
O249 O 0.98985 0.50808 0.99982 0.0
O250 O 0.05691 0.48286 0.03236 0.0
O251 O 0.02726 0.48589 0.12619 0.0
O252 O 0.04079 0.54679 0.09748 0.0
O253 O 0.03426 0.56172 0.97047 0.0
O254 O 0.07579 0.53278 0.94158 0.0
O255 O 0.07076 0.57064 0.83688 0.0
H256 H 0.00382 0.64029 0.58295 0.0
H257 H 0.96664 0.6365 0.48864 0.0
H258 H 0.9341 0.55708 0.64299 0.0
H259 H 0.97113 0.5608 0.7349 0.0
H260 H 0.08828 0.44832 0.11942 0.0
H261 H 0.12433 0.45053 0.21684 0.0
H262 H 0.0875 0.5011 0.34941 0.0
H263 H 0.05161 0.49891 0.25246 0.0
C264 C 0.23066 0.0851 0.7669 0.0
C265 C 0.23648 0.06936 0.70926 0.0
C266 C 0.20462 0.08579 0.78839 0.0
C267 C 0.18409 0.06977 0.75276 0.0
C268 C 0.19004 0.05415 0.69331 0.0
C269 C 0.21627 0.05436 0.67167 0.0
C270 C 0.19909 0.10316 0.85043 0.0
C271 C 0.16873 0.03646 0.65497 0.0
C272 C 0.11792 0.04511 0.87202 0.0
C273 C 0.1024 0.06103 0.82075 0.0
C274 C 0.14476 0.04827 0.85194 0.0
C275 C 0.15638 0.06828 0.78017 0.0
C276 C 0.14106 0.08555 0.73148 0.0
C277 C 0.11413 0.08147 0.75177 0.0
C278 C 0.16035 0.02919 0.90472 0.0
C279 C 0.15289 0.10761 0.65605 0.0
H280 H 0.24659 0.09656 0.79569 0.0
H281 H 0.22112 0.04205 0.62778 0.0
H282 H 0.18539 0.11661 0.82293 0.0
H283 H 0.18948 0.08985 0.91035 0.0
H284 H 0.21719 0.11609 0.86679 0.0
H285 H 0.17667 0.02589 0.60886 0.0
H286 H 0.1571 0.0208 0.70667 0.0
H287 H 0.15515 0.04904 0.62144 0.0
H288 H 0.10884 0.0292 0.92523 0.0
H289 H 0.10211 0.0939 0.71247 0.0
H290 H 0.17793 0.04103 0.92787 0.0
H291 H 0.16726 0.01622 0.86429 0.0
H292 H 0.1487 0.01564 0.96084 0.0
H293 H 0.17082 0.12027 0.67439 0.0
H294 H 0.13902 0.12119 0.63091 0.0
H295 H 0.1587 0.09812 0.60375 0.0
C296 C 0.51168 0.2146 0.50768 0.0
C297 C 0.53237 0.22429 0.4461 0.0
C298 C 0.5087 0.18832 0.5601 0.0
C299 C 0.52698 0.17143 0.55076 0.0
C300 C 0.5471 0.18071 0.48527 0.0
C301 C 0.54962 0.20712 0.43409 0.0
C302 C 0.48693 0.17931 0.62867 0.0
C303 C 0.56682 0.16332 0.47227 0.0
C304 C 0.54031 0.11824 0.74312 0.0
C305 C 0.5263 0.09396 0.72462 0.0
C306 C 0.54031 0.14364 0.68783 0.0
C307 C 0.526 0.14476 0.61221 0.0
C308 C 0.51133 0.12032 0.59448 0.0
C309 C 0.51163 0.0953 0.65088 0.0
C310 C 0.55596 0.16926 0.70967 0.0
C311 C 0.4957 0.12049 0.51509 0.0
H312 H 0.4988 0.22828 0.51797 0.0
H313 H 0.56593 0.21502 0.38766 0.0
H314 H 0.47588 0.15868 0.62578 0.0
H315 H 0.49536 0.17788 0.69267 0.0
H316 H 0.47306 0.19373 0.62268 0.0
H317 H 0.57996 0.17257 0.41455 0.0
H318 H 0.57897 0.16066 0.52904 0.0
H319 H 0.55668 0.14267 0.46591 0.0
H320 H 0.55154 0.11735 0.80018 0.0
H321 H 0.50056 0.07663 0.63642 0.0
H322 H 0.54315 0.18435 0.71194 0.0
H323 H 0.57152 0.17883 0.65906 0.0
H324 H 0.56523 0.16511 0.77218 0.0
H325 H 0.48171 0.13465 0.51282 0.0
H326 H 0.48457 0.09986 0.51213 0.0
H327 H 0.50902 0.12805 0.45714 0.0
C328 C 0.33673 0.50471 0.79224 0.0
C329 C 0.3302 0.52256 0.72041 0.0
C330 C 0.36301 0.50479 0.81203 0.0
C331 C 0.38315 0.5231 0.75821 0.0
C332 C 0.37653 0.54092 0.68468 0.0
C333 C 0.35006 0.54046 0.66684 0.0
C334 C 0.36919 0.48559 0.8911 0.0
C335 C 0.39736 0.56069 0.62548 0.0
C336 C 0.44956 0.54371 0.84854 0.0
C337 C 0.46436 0.52712 0.81717 0.0
C338 C 0.42298 0.54225 0.83119 0.0
C339 C 0.41111 0.52408 0.77982 0.0
C340 C 0.42614 0.50731 0.74774 0.0
C341 C 0.45268 0.50912 0.76662 0.0
C342 C 0.40775 0.56057 0.8664 0.0
C343 C 0.41431 0.48782 0.69234 0.0
H344 H 0.32116 0.49093 0.83323 0.0
H345 H 0.34475 0.55425 0.61153 0.0
H346 H 0.38231 0.47242 0.87354 0.0
H347 H 0.37972 0.49752 0.93567 0.0
H348 H 0.3513 0.47229 0.92532 0.0
H349 H 0.38898 0.57256 0.5697 0.0
H350 H 0.40873 0.57524 0.66096 0.0
H351 H 0.41129 0.54945 0.60153 0.0
H352 H 0.45898 0.55843 0.88453 0.0
H353 H 0.46441 0.49669 0.74116 0.0
H354 H 0.38995 0.54817 0.90341 0.0
H355 H 0.4012 0.57502 0.81288 0.0
H356 H 0.41951 0.57255 0.90863 0.0
H357 H 0.39702 0.47348 0.72653 0.0
H358 H 0.42846 0.47575 0.67416 0.0
H359 H 0.40741 0.49941 0.63306 0.0
C360 C 0.00716 0.36322 0.6652 0.0
C361 C 0.03008 0.35901 0.62734 0.0
C362 C 0.00645 0.38721 0.69586 0.0
C363 C 0.02926 0.4078 0.68836 0.0
C364 C 0.05243 0.40385 0.64869 0.0
C365 C 0.05256 0.3795 0.61874 0.0
C366 C 0.98121 0.39053 0.7363 0.0
C367 C 0.07715 0.42526 0.63855 0.0
C368 C 0.01907 0.48027 0.68814 0.0
C369 C 0.02418 0.48314 0.77254 0.0
C370 C 0.02097 0.45615 0.66012 0.0
C371 C 0.02826 0.43399 0.71762 0.0
C372 C 0.03351 0.43668 0.80316 0.0
C373 C 0.03134 0.4612 0.82973 0.0
C374 C 0.01502 0.45437 0.56868 0.0
C375 C 0.04145 0.41365 0.86653 0.0
H376 H 0.98977 0.34742 0.67156 0.0
H377 H 0.07039 0.37612 0.59061 0.0
H378 H 0.98438 0.39387 0.80234 0.0
H379 H 0.97457 0.4088 0.69939 0.0
H380 H 0.96537 0.37241 0.73902 0.0
H381 H 0.09357 0.4191 0.60702 0.0
H382 H 0.07357 0.44486 0.59989 0.0
H383 H 0.08314 0.42915 0.70221 0.0
H384 H 0.01355 0.49709 0.64322 0.0
H385 H 0.03543 0.46327 0.89478 0.0
H386 H 0.99848 0.43724 0.56769 0.0
H387 H 0.03218 0.45005 0.53576 0.0
H388 H 0.00987 0.47351 0.53166 0.0
H389 H 0.02569 0.39525 0.87563 0.0
H390 H 0.04552 0.41909 0.92981 0.0
H391 H 0.05921 0.40808 0.84126 0.0
C392 C 0.84278 0.0206 0.14448 0.0
C393 C 0.82369 0.99986 0.12502 0.0
C394 C 0.86926 0.02218 0.12277 0.0
C395 C 0.87664 1.00249 0.08048 0.0
C396 C 0.85728 0.98128 0.06152 0.0
C397 C 0.83092 0.98026 0.08406 0.0
C398 C 0.88928 0.04511 0.14415 0.0
C399 C 0.8644 0.95992 0.01673 0.0
C400 C 0.94271 0.02504 0.95976 0.0
C401 C 0.95909 0.01396 0.02075 0.0
C402 C 0.91556 0.02048 0.9768 0.0
C403 C 0.90466 1.00432 0.05639 0.0
C404 C 0.921 0.9918 0.11596 0.0
C405 C 0.94805 0.99682 0.09744 0.0
C406 C 0.89875 0.03412 0.91157 0.0
C407 C 0.91009 0.97422 0.2011 0.0
H408 H 0.8368 0.03577 0.17556 0.0
H409 H 0.81582 0.9644 0.06892 0.0
H410 H 0.90404 0.03656 0.18553 0.0
H411 H 0.89982 0.05771 0.08463 0.0
H412 H 0.88029 0.05861 0.17761 0.0
H413 H 0.84705 0.9445 0.00814 0.0
H414 H 0.87388 0.96987 0.95287 0.0
H415 H 0.87873 0.94923 0.05388 0.0
H416 H 0.95121 0.03822 0.90024 0.0
H417 H 0.96068 0.98802 0.1444 0.0
H418 H 0.89102 0.05007 0.93705 0.0
H419 H 0.88169 0.01904 0.89913 0.0
H420 H 0.9098 0.04388 0.84992 0.0
H421 H 0.9029 0.9871 0.24126 0.0
H422 H 0.92496 0.96385 0.23656 0.0
H423 H 0.89318 0.95846 0.19176 0.0
C424 C 0.53774 0.86668 0.39667 0.0
C425 C 0.51279 0.85137 0.42336 0.0
C426 C 0.54085 0.89332 0.34598 0.0
C427 C 0.51842 0.90468 0.32105 0.0
C428 C 0.49329 0.88966 0.3518 0.0
C429 C 0.49084 0.8633 0.40274 0.0
C430 C 0.56802 0.90879 0.31592 0.0
C431 C 0.46884 0.90088 0.32755 0.0
C432 C 0.52219 0.98097 0.23642 0.0
C433 C 0.52085 0.98256 0.14772 0.0
C434 C 0.52239 0.95599 0.29316 0.0
C435 C 0.52088 0.9318 0.26077 0.0
C436 C 0.51989 0.93334 0.171 0.0
C437 C 0.52002 0.95874 0.11547 0.0
C438 C 0.5238 0.95544 0.38799 0.0
C439 C 0.51816 0.90805 0.13376 0.0
H440 H 0.55465 0.85725 0.41173 0.0
H441 H 0.47158 0.85128 0.42319 0.0
H442 H 0.57049 0.91109 0.24553 0.0
H443 H 0.57096 0.92966 0.32967 0.0
H444 H 0.58344 0.89822 0.34679 0.0
H445 H 0.45088 0.88713 0.35979 0.0
H446 H 0.47014 0.9212 0.34449 0.0
H447 H 0.46691 0.90374 0.25725 0.0
H448 H 0.52309 0.99936 0.26178 0.0
H449 H 0.5191 0.95989 0.04701 0.0
H450 H 0.54027 0.94572 0.41409 0.0
H451 H 0.50557 0.94294 0.42207 0.0
H452 H 0.52644 0.97624 0.40249 0.0
H453 H 0.5346 0.89754 0.15481 0.0
H454 H 0.51863 0.91279 0.06264 0.0
H455 H 0.49974 0.89352 0.15776 0.0
C456 C 0.71303 0.5312 0.09316 0.0
C457 C 0.729 0.55423 0.11335 0.0
C458 C 0.68647 0.5309 0.07719 0.0
C459 C 0.67542 0.55395 0.08379 0.0
C460 C 0.69147 0.57724 0.10452 0.0
C461 C 0.71813 0.57721 0.11796 0.0
C462 C 0.67019 0.50581 0.05394 0.0
C463 C 0.6804 0.60203 0.11383 0.0
C464 C 0.61077 0.56205 0.98026 0.0
C465 C 0.59268 0.55042 0.0492 0.0
C466 C 0.63778 0.56324 0.99033 0.0
C467 C 0.6469 0.55328 0.07189 0.0
C468 C 0.62868 0.54224 0.14219 0.0
C469 C 0.60181 0.54068 0.12976 0.0
C470 C 0.65648 0.57462 0.91337 0.0
C471 C 0.63755 0.5319 0.23057 0.0
H472 H 0.72131 0.51329 0.09071 0.0
H473 H 0.73055 0.59517 0.13227 0.0
H474 H 0.65466 0.49623 0.1046 0.0
H475 H 0.66033 0.51163 0.99349 0.0
H476 H 0.68211 0.49036 0.04593 0.0
H477 H 0.69546 0.61843 0.13059 0.0
H478 H 0.67177 0.61041 0.0533 0.0
H479 H 0.66445 0.59609 0.16448 0.0
H480 H 0.60381 0.56978 0.91803 0.0
H481 H 0.5879 0.53179 0.18342 0.0
H482 H 0.66769 0.5589 0.90252 0.0
H483 H 0.67085 0.59236 0.92508 0.0
H484 H 0.64625 0.58123 0.85425 0.0
H485 H 0.64745 0.51438 0.22979 0.0
H486 H 0.62102 0.52518 0.27926 0.0
H487 H 0.65198 0.54817 0.25052 0.0
C488 C 0.05725 0.71513 0.17383 0.0
C489 C 0.03492 0.71942 0.21507 0.0
C490 C 0.05721 0.69118 0.14217 0.0
C491 C 0.03425 0.67073 0.15201 0.0
C492 C 0.01165 0.6748 0.19475 0.0
C493 C 0.01228 0.69907 0.2258 0.0
C494 C 0.08188 0.68772 0.09851 0.0
C495 C 0.98679 0.65355 0.20733 0.0
C496 C 0.02989 0.61722 0.01025 0.0
C497 C 0.03734 0.5952 0.06625 0.0
C498 C 0.02833 0.64179 0.0374 0.0
C499 C 0.03456 0.64448 0.12227 0.0
C500 C 0.04219 0.62227 0.17853 0.0
C501 C 0.04341 0.59807 0.15001 0.0
C502 C 0.01998 0.66488 0.97539 0.0
C503 C 0.04926 0.62407 0.26912 0.0
H504 H 0.07479 0.73078 0.16599 0.0
H505 H 0.99492 0.70248 0.2568 0.0
H506 H 0.08876 0.66944 0.13434 0.0
H507 H 0.07785 0.6843 0.03298 0.0
H508 H 0.09788 0.7058 0.09394 0.0
H509 H 0.97072 0.66003 0.23968 0.0
H510 H 0.98025 0.64936 0.1445 0.0
H511 H 0.99044 0.63404 0.24638 0.0
H512 H 0.02504 0.61516 0.94573 0.0
H513 H 0.0492 0.58121 0.19401 0.0
H514 H 0.03583 0.68322 0.96485 0.0
H515 H 0.00258 0.67055 1.00273 0.0
H516 H 0.01517 0.65945 0.91254 0.0
H517 H 0.06606 0.64109 0.26829 0.0
H518 H 0.05452 0.60488 0.30525 0.0
H519 H 0.03261 0.62861 0.30409 0.0
C520 C 1.00071 0.24227 0.62823 0.0
C521 C 0.02263 0.25909 0.65173 0.0
C522 C 0.99679 0.21379 0.65603 0.0
C523 C 0.01553 0.2021 0.70724 0.0
C524 C 0.03788 0.21917 0.73027 0.0
C525 C 0.04102 0.24758 0.70276 0.0
C526 C 0.97287 0.19617 0.6299 0.0
C527 C 0.05882 0.2074 0.78179 0.0
C528 C 1.00063 0.13154 0.8496 0.0
C529 C 0.01135 0.11615 0.79977 0.0
C530 C 1.00038 0.15927 0.81788 0.0
C531 C 0.01212 0.17198 0.7359 0.0
C532 C 0.02237 0.15618 0.68453 0.0
C533 C 0.02147 0.12825 0.71682 0.0
C534 C 0.98878 0.17525 0.87381 0.0
C535 C 0.03633 0.1688 0.59866 0.0
H536 H 0.98686 0.25153 0.58743 0.0
H537 H 0.05821 0.26091 0.71862 0.0
H538 H 0.97877 0.18075 0.59707 0.0
H539 H 0.96066 0.18484 0.68781 0.0
H540 H 0.96081 0.20837 0.58661 0.0
H541 H 0.07494 0.22354 0.7944 0.0
H542 H 0.05024 0.19472 0.844 0.0
H543 H 0.06717 0.19386 0.74681 0.0
H544 H 0.99304 0.122 0.91424 0.0
H545 H 0.03035 0.11634 0.67942 0.0
H546 H 0.97526 0.18727 0.83709 0.0
H547 H 0.00461 0.18997 0.89487 0.0
H548 H 0.97794 0.16176 0.93159 0.0
H549 H 0.03035 0.18817 0.56821 0.0
H550 H 0.03292 0.15435 0.5543 0.0
H551 H 0.05769 0.17326 0.60777 0.0
C552 C 0.33662 0.02859 0.70948 0.0
C553 C 0.32375 0.04452 0.75141 0.0
C554 C 0.35966 0.02047 0.74065 0.0
C555 C 0.36954 0.02797 0.81665 0.0
C556 C 0.35545 0.04235 0.86249 0.0
C557 C 0.33286 0.05076 0.82861 0.0
C558 C 0.37427 1.00541 0.68954 0.0
C559 C 0.36523 0.05057 0.94407 0.0
C560 C 0.42822 1.00171 0.91975 0.0
C561 C 0.44807 0.02442 0.8904 0.0
C562 C 0.40233 1.00219 0.89547 0.0
C563 C 0.39671 0.0256 0.83924 0.0
C564 C 0.41712 0.04795 0.80662 0.0
C565 C 0.44244 0.04717 0.83336 0.0
C566 C 0.38092 0.97824 0.93236 0.0
C567 C 0.41217 0.0731 0.7452 0.0
H568 H 0.32912 0.02339 0.65056 0.0
H569 H 0.3229 0.06325 0.86045 0.0
H570 H 0.39433 0.01722 0.67113 0.0
H571 H 0.37627 0.9854 0.72931 0.0
H572 H 0.36428 1.00182 0.63047 0.0
H573 H 0.34998 0.05746 0.97901 0.0
H574 H 0.37176 0.03327 0.98706 0.0
H575 H 0.38234 0.0676 0.92854 0.0
H576 H 0.43275 0.98415 0.96382 0.0
H577 H 0.45799 0.06454 0.80943 0.0
H578 H 0.36935 0.97108 0.8805 0.0
H579 H 0.3673 0.98475 0.97459 0.0
H580 H 0.38875 0.96085 0.97021 0.0
H581 H 0.43061 0.08678 0.71654 0.0
H582 H 0.40118 0.08483 0.7795 0.0
H583 H 0.40004 0.06722 0.69277 0.0
C584 C 0.58996 0.33059 0.44268 0.0
C585 C 0.56352 0.32252 0.42823 0.0
C586 C 0.59864 0.3547 0.47245 0.0
C587 C 0.58024 0.37062 0.48885 0.0
C588 C 0.55356 0.36276 0.47201 0.0
C589 C 0.54554 0.33873 0.44161 0.0
C590 C 0.62728 0.36282 0.48809 0.0
C591 C 0.53331 0.37909 0.48935 0.0
C592 C 0.58979 0.41317 0.65837 0.0
C593 C 0.59433 0.43974 0.60843 0.0
C594 C 0.58656 0.39038 0.62009 0.0
C595 C 0.58825 0.39435 0.52974 0.0
C596 C 0.5948 0.4211 0.47913 0.0
C597 C 0.59767 0.44358 0.51921 0.0
C598 C 0.57962 0.36213 0.6762 0.0
C599 C 0.59694 0.42609 0.38257 0.0
H600 H 0.60369 0.31794 0.43079 0.0
H601 H 0.52512 0.33214 0.42999 0.0
H602 H 0.63479 0.38424 0.45458 0.0
H603 H 0.62987 0.36188 0.55749 0.0
H604 H 0.63928 0.34931 0.46603 0.0
H605 H 0.51387 0.37138 0.46615 0.0
H606 H 0.5312 0.37808 0.55925 0.0
H607 H 0.53962 0.40092 0.45809 0.0
H608 H 0.5877 0.4102 0.72749 0.0
H609 H 0.60104 0.4641 0.48033 0.0
H610 H 0.59254 0.34871 0.65914 0.0
H611 H 0.55922 0.35279 0.66563 0.0
H612 H 0.58123 0.36253 0.74535 0.0
H613 H 0.60734 0.41128 0.36075 0.0
H614 H 0.60731 0.44718 0.35414 0.0
H615 H 0.57703 0.42327 0.35753 0.0
C616 C 0.23727 0.56242 0.75146 0.0
C617 C 0.23829 0.53585 0.74172 0.0
C618 C 0.21366 0.56913 0.7759 0.0
C619 C 0.19056 0.54887 0.78896 0.0
C620 C 0.19161 0.52197 0.77918 0.0
C621 C 0.21557 0.51572 0.757 0.0
C622 C 0.21338 0.59788 0.78702 0.0
C623 C 0.16742 0.49978 0.79168 0.0
C624 C 0.13087 0.55143 0.92223 0.0
C625 C 0.11358 0.55885 0.85877 0.0
C626 C 0.15667 0.54998 0.90062 0.0
C627 C 0.16516 0.55545 0.81329 0.0
C628 C 0.14821 0.56436 0.74911 0.0
C629 C 0.12263 0.56627 0.77279 0.0
C630 C 0.17429 0.54096 0.97107 0.0
C631 C 0.15636 0.56977 0.65523 0.0
H632 H 0.25485 0.578 0.73843 0.0
H633 H 0.21656 0.49513 0.75026 0.0
H634 H 0.20046 0.60747 0.74022 0.0
H635 H 0.20527 0.59746 0.85194 0.0
H636 H 0.23322 0.6109 0.77799 0.0
H637 H 0.1712 0.48067 0.77435 0.0
H638 H 0.16015 0.49502 0.85961 0.0
H639 H 0.15159 0.50684 0.75224 0.0
H640 H 0.12389 0.54576 0.98884 0.0
H641 H 0.10918 0.57166 0.72359 0.0
H642 H 0.19388 0.55443 0.96089 0.0
H643 H 0.17707 0.51988 0.97014 0.0
H644 H 0.16603 0.5411 0.03542 0.0
H645 H 0.17572 0.58359 0.64226 0.0
H646 H 0.14194 0.579 0.61379 0.0
H647 H 0.15835 0.55024 0.63705 0.0
C648 C 0.02306 0.83267 0.20115 0.0
C649 C 0.04409 0.81917 0.19964 0.0
C650 C 0.02634 0.86097 0.1708 0.0
C651 C 0.0514 0.87604 0.13938 0.0
C652 C 0.07283 0.86243 0.13911 0.0
C653 C 0.06885 0.83399 0.16875 0.0
C654 C 0.0028 0.87453 0.16973 0.0
C655 C 0.09983 0.87791 0.10712 0.0
C656 C 0.04753 0.94101 0.98155 0.0
C657 C 0.05113 0.9605 0.03369 0.0
C658 C 0.04914 0.91374 0.01413 0.0
C659 C 0.05448 0.90566 0.10122 0.0
C660 C 0.05999 0.92557 0.15279 0.0
C661 C 0.05819 0.95287 0.11828 0.0
C662 C 0.04371 0.89335 0.95625 0.0
C663 C 0.06605 0.91808 0.24582 0.0
H664 H 0.004 0.8209 0.22539 0.0
H665 H 0.08504 0.82326 0.16907 0.0
H666 H 0.00755 0.8937 0.19435 0.0
H667 H 0.99691 0.88009 0.10281 0.0
H668 H 0.98584 0.86091 0.20841 0.0
H669 H 0.11457 0.86441 0.11365 0.0
H670 H 0.09953 0.88791 0.03871 0.0
H671 H 0.10606 0.89433 0.14331 0.0
H672 H 0.04262 0.94688 0.91538 0.0
H673 H 0.0611 0.96786 0.15872 0.0
H674 H 0.02487 0.87918 0.9772 0.0
H675 H 0.0592 0.88084 0.96045 0.0
H676 H 0.04253 0.90344 0.88822 0.0
H677 H 0.04762 0.91411 0.28552 0.0
H678 H 0.07946 0.93522 0.26541 0.0
H679 H 0.07497 0.89954 0.25993 0.0
C680 C 0.70944 0.99927 0.10452 0.0
C681 C 0.73359 0.01715 0.0895 0.0
C682 C 0.68654 1.0078 0.07412 0.0
C683 C 0.68807 0.0347 0.02573 0.0
C684 C 0.71257 0.05267 0.00874 0.0
C685 C 0.73508 0.04372 0.0417 0.0
C686 C 0.66073 0.9881 0.09442 0.0
C687 C 0.71493 0.08138 0.95684 0.0
C688 C 0.62891 0.0423 0.8941 0.0
C689 C 0.61345 0.05233 0.94824 0.0
C690 C 0.6541 0.0382 0.91573 0.0
C691 C 0.66381 0.04386 0.99403 0.0
C692 C 0.64896 0.05562 0.04632 0.0
C693 C 0.62397 0.05998 0.02226 0.0
C694 C 0.66956 0.0261 0.85758 0.0
C695 C 0.65851 0.06144 0.13107 0.0
H696 H 0.70853 0.9787 0.14125 0.0
H697 H 0.75383 0.05757 0.03156 0.0
H698 H 0.6466 0.99746 0.12564 0.0
H699 H 0.65224 0.98351 0.03427 0.0
H700 H 0.6628 0.96856 0.13727 0.0
H701 H 0.73558 0.09232 0.94613 0.0
H702 H 0.70627 0.08086 0.89375 0.0
H703 H 0.70379 0.09322 0.99021 0.0
H704 H 0.62086 0.03653 0.83649 0.0
H705 H 0.61198 0.06748 0.06468 0.0
H706 H 0.67028 1.00463 0.88809 0.0
H707 H 0.69002 0.03754 0.84729 0.0
H708 H 0.66077 0.02621 0.79432 0.0
H709 H 0.65835 0.04182 0.17676 0.0
H710 H 0.64607 0.07331 0.15943 0.0
H711 H 0.67897 0.07291 0.12357 0.0
C712 C 0.50501 0.73605 0.42891 0.0
C713 C 0.48701 0.75207 0.44359 0.0
C714 C 0.49686 0.71184 0.39963 0.0
C715 C 0.47001 0.70354 0.38572 0.0
C716 C 0.45159 0.71915 0.40427 0.0
C717 C 0.46041 0.74352 0.43232 0.0
C718 C 0.51714 0.69588 0.37978 0.0
C719 C 0.42277 0.71048 0.39229 0.0
C720 C 0.45977 0.66164 0.21487 0.0
C721 C 0.45665 0.63501 0.26391 0.0
C722 C 0.46264 0.6842 0.2541 0.0
C723 C 0.46186 0.67992 0.34455 0.0
C724 C 0.45639 0.65302 0.39448 0.0
C725 C 0.45402 0.6308 0.35344 0.0
C726 C 0.46848 0.71262 0.19866 0.0
C727 C 0.45501 0.64769 0.49115 0.0
H728 H 0.52556 0.74302 0.43806 0.0
H729 H 0.4467 0.7561 0.44497 0.0
H730 H 0.51141 0.67406 0.41188 0.0
H731 H 0.51844 0.69671 0.30979 0.0
H732 H 0.53684 0.70402 0.40033 0.0
H733 H 0.41081 0.72343 0.41761 0.0
H734 H 0.41931 0.71185 0.32319 0.0
H735 H 0.41593 0.68884 0.42493 0.0
H736 H 0.46122 0.6649 0.14559 0.0
H737 H 0.45169 0.61025 0.39175 0.0
H738 H 0.48889 0.72245 0.20718 0.0
H739 H 0.45539 0.72551 0.21812 0.0
H740 H 0.4662 0.7124 0.12962 0.0
H741 H 0.47514 0.65056 0.51452 0.0
H742 H 0.44492 0.62648 0.51938 0.0
H743 H 0.44471 0.66224 0.51486 0.0
C744 C 0.8446 0.56323 0.07607 0.0
C745 C 0.82174 0.54329 0.08736 0.0
C746 C 0.86868 0.55708 0.05456 0.0
C747 C 0.86976 0.53046 0.042 0.0
C748 C 0.84653 0.51044 0.05096 0.0
C749 C 0.82276 0.51708 0.07409 0.0
C750 C 0.89298 0.57902 0.04602 0.0
C751 C 0.84687 0.48194 0.0375 0.0
C752 C 0.93013 0.52785 0.912 0.0
C753 C 0.94698 0.51993 0.97639 0.0
C754 C 0.90434 0.52973 0.93212 0.0
C755 C 0.8953 0.52389 0.01896 0.0
C756 C 0.91173 0.51431 0.08399 0.0
C757 C 0.93739 0.51222 0.06179 0.0
C758 C 0.88738 0.53962 0.86071 0.0
C759 C 0.90291 0.50831 0.1774 0.0
H760 H 0.8436 0.58354 0.0858 0.0
H761 H 0.80502 0.50167 0.08388 0.0
H762 H 0.90819 0.57154 0.08764 0.0
H763 H 0.90117 0.58404 0.97906 0.0
H764 H 0.88902 0.59805 0.06344 0.0
H765 H 0.82697 0.46907 0.04387 0.0
H766 H 0.85557 0.48289 0.97296 0.0
H767 H 0.85932 0.47185 0.08496 0.0
H768 H 0.93745 0.53363 0.84581 0.0
H769 H 0.95048 0.50642 0.11175 0.0
H770 H 0.88442 0.56048 0.86393 0.0
H771 H 0.86781 0.52615 0.86786 0.0
H772 H 0.89626 0.54035 0.79648 0.0
H773 H 0.90146 0.52775 0.19709 0.0
H774 H 0.91671 0.49815 0.21923 0.0
H775 H 0.8832 0.49511 0.18808 0.0
C776 C 0.05797 0.26661 0.48743 0.0
C777 C 0.03969 0.28394 0.472 0.0
C778 C 0.05918 0.24656 0.43883 0.0
C779 C 0.04246 0.24446 0.3697 0.0
C780 C 0.02504 0.26314 0.35047 0.0
C781 C 0.02352 0.28229 0.40276 0.0
C782 C 0.07806 0.22733 0.46388 0.0
C783 C 0.00723 0.26221 0.27673 0.0
C784 C 0.06351 0.20185 0.21772 0.0
C785 C 0.04585 0.17685 0.24176 0.0
C786 C 0.06183 0.22434 0.25575 0.0
C787 C 0.04236 0.22185 0.32112 0.0
C788 C 0.0239 0.19694 0.34365 0.0
C789 C 0.02582 0.17495 0.30361 0.0
C790 C 0.08103 0.25079 0.22588 0.0
C791 C 0.00176 0.19301 0.40951 0.0
H792 H 0.07052 0.2679 0.54083 0.0
H793 H 0.009 0.29525 0.39164 0.0
H794 H 0.07053 0.20667 0.45133 0.0
H795 H 0.0968 0.23572 0.42617 0.0
H796 H 0.08232 0.2252 0.53279 0.0
H797 H 0.99852 0.28089 0.26048 0.0
H798 H 0.01805 0.25994 0.21909 0.0
H799 H 0.9911 0.24423 0.29407 0.0
H800 H 0.07868 0.20395 0.16856 0.0
H801 H 0.01193 0.15591 0.3229 0.0
H802 H 0.09544 0.25366 0.27555 0.0
H803 H 0.07074 0.26841 0.21601 0.0
H804 H 0.09187 0.25107 0.1653 0.0
H805 H 0.99824 0.17189 0.44865 0.0
H806 H 0.98356 0.19568 0.37582 0.0
H807 H 0.00515 0.20768 0.45295 0.0
C808 C 0.32345 0.0686 0.49555 0.0
C809 C 0.32451 0.07763 0.57288 0.0
C810 C 0.34553 0.07461 0.43892 0.0
C811 C 0.36911 0.09029 0.46002 0.0
C812 C 0.37002 0.09997 0.53748 0.0
C813 C 0.34769 0.09337 0.59327 0.0
C814 C 0.34382 0.06365 0.35751 0.0
C815 C 0.39455 0.11729 0.5613 0.0
C816 C 0.43219 0.08139 0.35639 0.0
C817 C 0.43697 0.10401 0.2877 0.0
C818 C 0.41046 0.07699 0.4137 0.0
C819 C 0.39303 0.09566 0.40236 0.0
C820 C 0.39806 0.1189 0.33454 0.0
C821 C 0.41994 0.12278 0.27801 0.0
C822 C 0.40591 0.05208 0.48563 0.0
C823 C 0.38006 0.13939 0.32073 0.0
H824 H 0.30548 0.05621 0.4808 0.0
H825 H 0.34827 0.10036 0.65322 0.0
H826 H 0.34947 0.08065 0.30125 0.0
H827 H 0.35775 0.0495 0.35802 0.0
H828 H 0.32384 0.05253 0.34931 0.0
H829 H 0.39257 0.12169 0.62628 0.0
H830 H 0.41149 0.10696 0.5588 0.0
H831 H 0.39907 0.13699 0.51431 0.0
H832 H 0.44501 0.06658 0.36392 0.0
H833 H 0.42367 0.14051 0.22587 0.0
H834 H 0.38654 0.03921 0.48072 0.0
H835 H 0.4057 0.05852 0.54798 0.0
H836 H 0.4212 0.03942 0.48548 0.0
H837 H 0.3603 0.12928 0.30644 0.0
H838 H 0.38728 0.15696 0.26721 0.0
H839 H 0.3779 0.14728 0.37989 0.0
C840 C 0.5148 0.32226 0.23357 0.0
C841 C 0.53942 0.31812 0.26219 0.0
C842 C 0.51173 0.34731 0.18128 0.0
C843 C 0.53361 0.36906 0.15977 0.0
C844 C 0.55864 0.36447 0.18583 0.0
C845 C 0.56127 0.3389 0.23452 0.0
C846 C 0.48482 0.35093 0.15277 0.0
C847 C 0.5824 0.38717 0.16798 0.0
C848 C 0.53306 0.43414 0.99084 0.0
C849 C 0.52654 0.45193 0.04101 0.0
C850 C 0.53441 0.4068 0.02782 0.0
C851 C 0.53013 0.39729 0.11763 0.0
C852 C 0.52378 0.41534 0.16847 0.0
C853 C 0.52157 0.44218 0.12939 0.0
C854 C 0.54051 0.38812 0.97087 0.0
C855 C 0.52003 0.40654 0.26466 0.0
H856 H 0.49779 0.30647 0.25548 0.0
H857 H 0.58036 0.33562 0.25574 0.0
H858 H 0.47705 0.36419 0.19019 0.0
H859 H 0.48571 0.36115 0.08419 0.0
H860 H 0.47091 0.33108 0.16209 0.0
H861 H 0.60065 0.37993 0.18905 0.0
H862 H 0.58483 0.39645 0.09866 0.0
H863 H 0.57972 0.40355 0.20219 0.0
H864 H 0.5368 0.44151 0.92244 0.0
H865 H 0.51681 0.4559 0.1687 0.0
H866 H 0.52523 0.36928 0.98143 0.0
H867 H 0.55942 0.38174 0.98739 0.0
H868 H 0.5417 0.39806 0.9019 0.0
H869 H 0.51723 0.4236 0.29571 0.0
H870 H 0.53724 0.39838 0.29161 0.0
H871 H 0.50271 0.38984 0.28164 0.0
C872 C 0.23517 0.48436 0.5795 0.0
C873 C 0.24362 0.51137 0.5886 0.0
C874 C 0.21331 0.47736 0.53177 0.0
C875 C 0.19964 0.49792 0.49246 0.0
C876 C 0.20834 0.52531 0.50106 0.0
C877 C 0.2303 0.53169 0.54875 0.0
C878 C 0.20456 0.44791 0.52469 0.0
C879 C 0.19432 0.54785 0.46052 0.0
C880 C 0.15738 0.48652 0.30501 0.0
C881 C 0.13208 0.48006 0.34369 0.0
C882 C 0.17952 0.492 0.35288 0.0
C883 C 0.17634 0.49091 0.44182 0.0
C884 C 0.15087 0.48391 0.48166 0.0
C885 C 0.12904 0.47863 0.43209 0.0
C886 C 0.20629 0.49958 0.30786 0.0
C887 C 0.14667 0.48243 0.57639 0.0
H888 H 0.24525 0.46864 0.61193 0.0
H889 H 0.23693 0.55254 0.55633 0.0
H890 H 0.18435 0.44022 0.5528 0.0
H891 H 0.20418 0.44633 0.45635 0.0
H892 H 0.21755 0.43448 0.55789 0.0
H893 H 0.20311 0.5679 0.47561 0.0
H894 H 0.19493 0.54988 0.38996 0.0
H895 H 0.17343 0.54273 0.483 0.0
H896 H 0.15987 0.48809 0.23654 0.0
H897 H 0.10956 0.47342 0.4625 0.0
H898 H 0.21908 0.48558 0.33875 0.0
H899 H 0.21558 0.52059 0.31345 0.0
H900 H 0.20549 0.49873 0.23886 0.0
H901 H 0.15758 0.46752 0.61346 0.0
H902 H 0.12567 0.47634 0.59789 0.0
H903 H 0.15445 0.50262 0.59196 0.0
C904 C 0.00651 0.79011 0.42645 0.0
C905 C 0.03046 0.79296 0.38154 0.0
C906 C 0.00269 0.80862 0.47878 0.0
C907 C 0.02312 0.83083 0.48478 0.0
C908 C 0.04771 0.83285 0.44262 0.0
C909 C 0.05115 0.81366 0.39306 0.0
C910 C 0.97633 0.8052 0.52381 0.0
C911 C 0.06995 0.85632 0.44521 0.0
C912 C 0.00638 0.89858 0.51518 0.0
C913 C 0.01359 0.89964 0.59936 0.0
C914 C 0.0088 0.87612 0.47839 0.0
C915 C 0.01825 0.85359 0.52686 0.0
C916 C 0.02462 0.85394 0.61292 0.0
C917 C 0.02239 0.87693 0.64788 0.0
C918 C 0.00153 0.87671 0.38682 0.0
C919 C 0.0342 0.83019 0.66771 0.0
H920 H 0.99041 0.77431 0.4171 0.0
H921 H 0.06973 0.81573 0.35883 0.0
H922 H 0.97859 0.80874 0.58999 0.0
H923 H 0.96544 0.82052 0.48905 0.0
H924 H 0.96444 0.7845 0.52654 0.0
H925 H 0.08761 0.85535 0.40716 0.0
H926 H 0.06372 0.87603 0.4198 0.0
H927 H 0.07529 0.85631 0.51232 0.0
H928 H 0.9988 0.91544 0.47746 0.0
H929 H 0.02814 0.87733 0.71277 0.0
H930 H 0.98377 0.86103 0.38508 0.0
H931 H 0.01745 0.87161 0.34995 0.0
H932 H 0.99757 0.89695 0.35445 0.0
H933 H 0.02082 0.81071 0.66499 0.0
H934 H 0.0357 0.83221 0.73564 0.0
H935 H 0.05377 0.82884 0.64271 0.0
C936 C 0.72954 0.97003 0.32845 0.0
C937 C 0.73879 0.9957 0.27619 0.0
C938 C 0.70847 0.96613 0.38811 0.0
C939 C 0.69631 0.98845 0.3949 0.0
C940 C 0.70588 0.01454 0.34271 0.0
C941 C 0.72718 0.01787 0.28452 0.0
C942 C 0.69885 0.93803 0.4425 0.0
C943 C 0.69343 0.03884 0.34753 0.0
C944 C 0.62618 0.97402 0.48594 0.0
C945 C 0.6297 0.97831 0.56968 0.0
C946 C 0.64767 0.97709 0.42858 0.0
C947 C 0.67336 0.98448 0.45567 0.0
C948 C 0.67708 0.98849 0.54032 0.0
C949 C 0.65523 0.98544 0.59617 0.0
C950 C 0.64289 0.97284 0.33857 0.0
C951 C 0.70415 0.99638 0.57158 0.0
H952 H 0.73836 0.95288 0.32074 0.0
H953 H 0.73455 0.03772 0.2441 0.0
H954 H 0.69886 0.93903 0.51132 0.0
H955 H 0.67837 0.93035 0.42787 0.0
H956 H 0.71105 0.9231 0.4317 0.0
H957 H 0.70234 0.05732 0.29931 0.0
H958 H 0.67218 0.034 0.33728 0.0
H959 H 0.69554 0.04362 0.41227 0.0
H960 H 0.60656 0.96819 0.46518 0.0
H961 H 0.65816 0.98925 0.66018 0.0
H962 H 0.65343 0.95699 0.32458 0.0
H963 H 0.65069 0.99206 0.29193 0.0
H964 H 0.62177 0.96654 0.32808 0.0
H965 H 0.71617 0.98105 0.56357 0.0
H966 H 0.70374 0.99799 0.63999 0.0
H967 H 0.71403 0.01634 0.53265 0.0
C968 C 0.53781 0.75483 0.63174 0.0
C969 C 0.51277 0.75828 0.60574 0.0
C970 C 0.54176 0.73009 0.68394 0.0
C971 C 0.52032 0.70795 0.70813 0.0
C972 C 0.49488 0.7119 0.68494 0.0
C973 C 0.49141 0.73718 0.6363 0.0
C974 C 0.56909 0.72718 0.70951 0.0
C975 C 0.47151 0.6888 0.70572 0.0
C976 C 0.53338 0.63515 0.73892 0.0
C977 C 0.52916 0.62566 0.82766 0.0
C978 C 0.53065 0.66182 0.69959 0.0
C979 C 0.52458 0.67999 0.75043 0.0
C980 C 0.52113 0.67078 0.84056 0.0
C981 C 0.52294 0.64358 0.87787 0.0
C982 C 0.53341 0.67024 0.60315 0.0
C983 C 0.51537 0.68959 0.89751 0.0
H984 H 0.55443 0.77093 0.60781 0.0
H985 H 0.47199 0.73994 0.6172 0.0
H986 H 0.56899 0.71731 0.77821 0.0
H987 H 0.57669 0.71388 0.67182 0.0
H988 H 0.58269 0.74725 0.69813 0.0
H989 H 0.45288 0.69559 0.6871 0.0
H990 H 0.47402 0.67246 0.67111 0.0
H991 H 0.46996 0.67962 0.77514 0.0
H992 H 0.53786 0.62131 0.69963 0.0
H993 H 0.51977 0.63641 0.94652 0.0
H994 H 0.55002 0.68763 0.58396 0.0
H995 H 0.5155 0.67733 0.57791 0.0
H996 H 0.5367 0.65329 0.5724 0.0
H997 H 0.53029 0.70873 0.88458 0.0
H998 H 0.51509 0.68 0.96658 0.0
H999 H 0.4961 0.6954 0.88326 0.0
C1000 C 0.83004 0.54458 0.28081 0.0
C1001 C 0.81555 0.56454 0.24674 0.0
C1002 C 0.85171 0.55075 0.32996 0.0
C1003 C 0.85873 0.57742 0.34676 0.0
C1004 C 0.84379 0.59752 0.31368 0.0
C1005 C 0.82241 0.59084 0.26374 0.0
C1006 C 0.86709 0.52871 0.36378 0.0
C1007 C 0.85059 0.62615 0.33023 0.0
C1008 C 0.89916 0.58433 0.54093 0.0
C1009 C 0.92455 0.59383 0.50367 0.0
C1010 C 0.87755 0.57947 0.49048 0.0
C1011 C 0.88137 0.58407 0.40039 0.0
C1012 C 0.90689 0.59421 0.3621 0.0
C1013 C 0.92817 0.59913 0.41422 0.0
C1014 C 0.85068 0.56891 0.53379 0.0
C1015 C 0.9118 0.59899 0.26635 0.0
H1016 H 0.82456 0.52423 0.26768 0.0
H1017 H 0.81134 0.60629 0.23617 0.0
H1018 H 0.88822 0.53617 0.34632 0.0
H1019 H 0.86494 0.52346 0.43472 0.0
H1020 H 0.86048 0.50982 0.33874 0.0
H1021 H 0.83678 0.63926 0.30102 0.0
H1022 H 0.8504 0.62547 0.40018 0.0
H1023 H 0.87067 0.63581 0.30391 0.0
H1024 H 0.89623 0.58052 0.61 0.0
H1025 H 0.94778 0.60622 0.38519 0.0
H1026 H 0.84276 0.54835 0.52111 0.0
H1027 H 0.83707 0.58256 0.50715 0.0
H1028 H 0.85089 0.56742 0.60421 0.0
H1029 H 0.90675 0.57927 0.24501 0.0
H1030 H 0.93252 0.60821 0.24617 0.0
H1031 H 0.89907 0.61264 0.23295 0.0
loop_
_geom_bond_atom_site_label_1
_geom_bond_atom_site_label_2
_geom_bond_distance
_geom_bond_site_symmetry_2
_ccdc_geom_bond_type
C0 N1 1.317 . S
C0 N2 1.348 1_554 S
C0 C3 1.485 . S
N1 C0 1.317 . S
N1 N5 1.370 1_554 S
N2 C0 1.348 1_556 S
N2 C4 1.346 . S
C3 C0 1.485 . S
C3 H7 0.960 . S
C3 H8 0.961 . S
C3 H9 0.960 . S
C4 N2 1.346 . S
C4 N5 1.307 . S
C4 C6 1.486 . S
N5 N1 1.370 1_556 S
N5 C4 1.307 . S
C6 C4 1.486 . S
C6 H10 0.960 . S
C6 H11 0.960 . S
C6 H12 0.959 . S
H7 C3 0.960 . S
H8 C3 0.961 . S
H9 C3 0.960 . S
H10 C6 0.960 . S
H11 C6 0.960 . S
H12 C6 0.959 . S
C13 N14 1.317 . S
C13 N15 1.348 . S
C13 C16 1.485 . S
N14 C13 1.317 . S
N14 N18 1.370 . S
N15 C13 1.348 . S
N15 C17 1.346 . S
C16 C13 1.485 . S
C16 H20 0.960 1_655 S
C16 H21 0.961 . S
C16 H22 0.960 . S
C17 N15 1.346 . S
C17 N18 1.307 . S
C17 C19 1.486 1_554 S
N18 N14 1.370 . S
N18 C17 1.307 . S
C19 C17 1.486 1_556 S
C19 H23 0.960 . S
C19 H24 0.960 1_655 S
C19 H25 0.959 . S
H20 C16 0.960 1_455 S
H21 C16 0.961 . S
H22 C16 0.960 . S
H23 C19 0.960 . S
H24 C19 0.960 1_455 S
H25 C19 0.959 . S
C26 N27 1.317 . S
C26 N28 1.348 . S
C26 C29 1.485 . S
N27 C26 1.317 . S
N27 N31 1.370 . S
N28 C26 1.348 . S
N28 C30 1.346 . S
C29 C26 1.485 . S
C29 H33 0.960 . S
C29 H34 0.961 . S
C29 H35 0.960 . S
C30 N28 1.346 . S
C30 N31 1.307 . S
C30 C32 1.486 1_554 S
N31 N27 1.370 . S
N31 C30 1.307 . S
C32 C30 1.486 1_556 S
C32 H36 0.960 . S
C32 H37 0.960 . S
C32 H38 0.959 . S
H33 C29 0.960 . S
H34 C29 0.961 . S
H35 C29 0.960 . S
H36 C32 0.960 . S
H37 C32 0.960 . S
H38 C32 0.959 . S
C39 N40 1.317 . S
C39 N41 1.348 . S
C39 C42 1.485 . S
N40 C39 1.317 . S
N40 N44 1.370 . S
N41 C39 1.348 . S
N41 C43 1.346 . S
C42 C39 1.485 . S
C42 H46 0.960 . S
C42 H47 0.961 . S
C42 H48 0.960 . S
C43 N41 1.346 . S
C43 N44 1.307 . S
C43 C45 1.486 . S
N44 N40 1.370 . S
N44 C43 1.307 . S
C45 C43 1.486 . S
C45 H49 0.960 . S
C45 H50 0.960 . S
C45 H51 0.959 . S
H46 C42 0.960 . S
H47 C42 0.961 . S
H48 C42 0.960 . S
H49 C45 0.960 . S
H50 C45 0.960 . S
H51 C45 0.959 . S
C52 N53 1.317 . S
C52 N54 1.348 . S
C52 C55 1.485 . S
N53 C52 1.317 . S
N53 N57 1.370 . S
N54 C52 1.348 . S
N54 C56 1.346 . S
C55 C52 1.485 . S
C55 H59 0.960 . S
C55 H60 0.961 . S
C55 H61 0.960 . S
C56 N54 1.346 . S
C56 N57 1.307 . S
C56 C58 1.486 1_556 S
N57 N53 1.370 . S
N57 C56 1.307 . S
C58 C56 1.486 1_554 S
C58 H62 0.960 . S
C58 H63 0.960 . S
C58 H64 0.959 . S
H59 C55 0.960 . S
H60 C55 0.961 . S
H61 C55 0.960 . S
H62 C58 0.960 . S
H63 C58 0.960 . S
H64 C58 0.959 . S
C65 N66 1.317 . S
C65 N67 1.348 . S
C65 C68 1.485 . S
N66 C65 1.317 . S
N66 N70 1.370 . S
N67 C65 1.348 . S
N67 C69 1.346 . S
C68 C65 1.485 . S
C68 H72 0.960 . S
C68 H73 0.961 . S
C68 H74 0.960 . S
C69 N67 1.346 . S
C69 N70 1.307 . S
C69 C71 1.486 . S
N70 N66 1.370 . S
N70 C69 1.307 . S
C71 C69 1.486 . S
C71 H75 0.960 . S
C71 H76 0.960 . S
C71 H77 0.959 . S
H72 C68 0.960 . S
H73 C68 0.961 . S
H74 C68 0.960 . S
H75 C71 0.960 . S
H76 C71 0.960 . S
H77 C71 0.959 . S
C78 N79 1.317 . S
C78 N80 1.348 . S
C78 C81 1.485 . S
N79 C78 1.317 . S
N79 N83 1.370 . S
N80 C78 1.348 . S
N80 C82 1.346 . S
C81 C78 1.485 . S
C81 H85 0.960 . S
C81 H86 0.961 . S
C81 H87 0.960 . S
C82 N80 1.346 . S
C82 N83 1.307 . S
C82 C84 1.486 . S
N83 N79 1.370 . S
N83 C82 1.307 . S
C84 C82 1.486 . S
C84 H88 0.960 . S
C84 H89 0.960 . S
C84 H90 0.959 . S
H85 C81 0.960 . S
H86 C81 0.961 . S
H87 C81 0.960 . S
H88 C84 0.960 . S
H89 C84 0.960 . S
H90 C84 0.959 . S
C91 N92 1.317 . S
C91 N93 1.348 . S
C91 C94 1.485 . S
N92 C91 1.317 . S
N92 N96 1.370 . S
N93 C91 1.348 . S
N93 C95 1.346 . S
C94 C91 1.485 . S
C94 H98 0.960 . S
C94 H99 0.961 . S
C94 H100 0.960 . S
C95 N93 1.346 . S
C95 N96 1.307 . S
C95 C97 1.486 . S
N96 N92 1.370 . S
N96 C95 1.307 . S
C97 C95 1.486 . S
C97 H101 0.960 . S
C97 H102 0.960 . S
C97 H103 0.959 . S
H98 C94 0.960 . S
H99 C94 0.961 . S
H100 C94 0.960 . S
H101 C97 0.960 . S
H102 C97 0.960 . S
H103 C97 0.959 . S
Nd104 C106 2.836 1_545 S
Nd104 O124 2.484 1_445 S
Nd104 O125 2.457 1_545 S
Nd104 O126 2.487 . S
Nd104 O127 2.682 . S
Nd104 O128 2.410 1_545 S
Nd104 O133 2.414 1_455 S
Nd104 O135 2.424 . S
Nd105 C115 2.836 . S
Nd105 O127 2.414 1_554 S
Nd105 O129 2.424 1_545 S
Nd105 O130 2.500 . S
Nd105 O131 2.492 . S
Nd105 O132 2.487 1_455 S
Nd105 O133 2.682 1_454 S
Nd105 O134 2.410 1_554 S
C106 Nd104 2.836 1_565 S
C106 C107 1.498 . S
C106 O124 1.229 1_455 S
C106 O125 1.257 . S
C107 C106 1.498 . S
C107 C108 1.366 1_455 S
C107 C112 1.407 . S
C108 C107 1.366 1_655 S
C108 C109 1.392 . S
C108 H136 0.930 . S
C109 C108 1.392 . S
C109 C110 1.398 1_655 S
C109 H137 0.929 . S
C110 C109 1.398 1_455 S
C110 C111 1.352 . S
C111 C110 1.352 . S
C111 C112 1.384 . S
C111 H138 0.930 . S
C112 C107 1.407 . S
C112 C111 1.384 . S
C112 H139 0.929 . S
C113 O126 1.241 . S
C113 O127 1.273 . S
C114 O128 1.251 . S
C114 O129 1.268 1_556 S
C115 Nd105 2.836 . S
C115 C116 1.498 . S
C115 O130 1.258 . S
C115 O131 1.239 . S
C116 C115 1.498 . S
C116 C117 1.366 . S
C116 C121 1.407 . S
C117 C116 1.366 . S
C117 C118 1.392 . S
C117 H140 0.930 . S
C118 C117 1.392 . S
C118 C119 1.398 . S
C118 H141 0.929 . S
C119 C118 1.398 . S
C119 C120 1.352 . S
C120 C119 1.352 . S
C120 C121 1.384 . S
C120 H142 0.930 . S
C121 C116 1.407 . S
C121 C120 1.384 . S
C121 H143 0.929 . S
C122 O132 1.241 1_556 S
C122 O133 1.273 . S
C123 O134 1.251 . S
C123 O135 1.268 . S
O124 Nd104 2.484 1_665 S
O124 C106 1.229 1_655 S
O125 Nd104 2.457 1_565 S
O125 C106 1.257 . S
O126 Nd104 2.487 . S
O126 C113 1.241 . S
O127 Nd104 2.682 . S
O127 Nd105 2.414 1_556 S
O127 C113 1.273 . S
O128 Nd104 2.410 1_565 S
O128 C114 1.251 . S
O129 Nd105 2.424 1_565 S
O129 C114 1.268 1_554 S
O130 Nd105 2.500 . S
O130 C115 1.258 . S
O131 Nd105 2.492 . S
O131 C115 1.239 . S
O132 Nd105 2.487 1_655 S
O132 C122 1.241 1_554 S
O133 Nd104 2.414 1_655 S
O133 Nd105 2.682 1_656 S
O133 C122 1.273 . S
O134 Nd105 2.410 1_556 S
O134 C123 1.251 . S
O135 Nd104 2.424 . S
O135 C123 1.268 . S
H136 C108 0.930 . S
H137 C109 0.929 . S
H138 C111 0.930 . S
H139 C112 0.929 . S
H140 C117 0.930 . S
H141 C118 0.929 . S
H142 C120 0.930 . S
H143 C121 0.929 . S
Nd144 C146 2.836 1_545 S
Nd144 O164 2.500 1_545 S
Nd144 O165 2.492 . S
Nd144 O166 2.487 . S
Nd144 O167 2.682 . S
Nd144 O168 2.410 . S
Nd144 O173 2.414 1_545 S
Nd144 O175 2.424 . S
Nd145 C155 2.836 . S
Nd145 O167 2.414 1_554 S
Nd145 O169 2.424 1_554 S
Nd145 O170 2.500 . S
Nd145 O171 2.492 . S
Nd145 O172 2.487 1_545 S
Nd145 O173 2.682 1_544 S
Nd145 O174 2.410 1_554 S
C146 Nd144 2.836 1_565 S
C146 C147 1.498 . S
C146 O164 1.258 . S
C146 O165 1.239 1_565 S
C147 C146 1.498 . S
C147 C148 1.366 . S
C147 C152 1.407 1_565 S
C148 C147 1.366 . S
C148 C149 1.392 . S
C148 H176 0.930 . S
C149 C148 1.392 . S
C149 C150 1.398 . S
C149 H177 0.929 . S
C150 C149 1.398 . S
C150 C151 1.352 . S
C151 C150 1.352 . S
C151 C152 1.384 1_565 S
C151 H178 0.928 1_565 S
C152 C147 1.407 1_545 S
C152 C151 1.384 1_545 S
C152 H179 0.929 . S
C153 O166 1.241 . S
C153 O167 1.273 . S
C154 O168 1.251 . S
C154 O169 1.268 . S
C155 Nd145 2.836 . S
C155 C156 1.498 . S
C155 O170 1.258 . S
C155 O171 1.239 . S
C156 C155 1.498 . S
C156 C157 1.366 . S
C156 C161 1.407 . S
C157 C156 1.366 . S
C157 C158 1.392 . S
C157 H180 0.930 . S
C158 C157 1.392 . S
C158 C159 1.398 . S
C158 H181 0.929 . S
C159 C158 1.398 . S
C159 C160 1.352 . S
C160 C159 1.352 . S
C160 C161 1.384 . S
C160 H182 0.930 . S
C161 C156 1.407 . S
C161 C160 1.384 . S
C161 H183 0.929 . S
C162 O172 1.241 . S
C162 O173 1.273 1_554 S
C163 O174 1.251 . S
C163 O175 1.268 . S
O164 Nd144 2.500 1_565 S
O164 C146 1.258 . S
O165 Nd144 2.492 . S
O165 C146 1.239 1_545 S
O166 Nd144 2.487 . S
O166 C153 1.241 . S
O167 Nd144 2.682 . S
O167 Nd145 2.414 1_556 S
O167 C153 1.273 . S
O168 Nd144 2.410 . S
O168 C154 1.251 . S
O169 Nd145 2.424 1_556 S
O169 C154 1.268 . S
O170 Nd145 2.500 . S
O170 C155 1.258 . S
O171 Nd145 2.492 . S
O171 C155 1.239 . S
O172 Nd145 2.487 1_565 S
O172 C162 1.241 . S
O173 Nd144 2.414 1_565 S
O173 Nd145 2.682 1_566 S
O173 C162 1.273 1_556 S
O174 Nd145 2.410 1_556 S
O174 C163 1.251 . S
O175 Nd144 2.424 . S
O175 C163 1.268 . S
H176 C148 0.930 . S
H177 C149 0.929 . S
H178 C151 0.928 1_545 S
H179 C152 0.929 . S
H180 C157 0.930 . S
H181 C158 0.929 . S
H182 C160 0.930 . S
H183 C161 0.929 . S
Nd184 C186 2.836 . S
Nd184 O204 2.500 . S
Nd184 O205 2.492 . S
Nd184 O206 2.487 . S
Nd184 O207 2.682 1_554 S
Nd184 O208 2.410 1_554 S
Nd184 O213 2.414 1_554 S
Nd184 O215 2.424 . S
Nd185 C195 2.836 . S
Nd185 O207 2.414 . S
Nd185 O209 2.424 . S
Nd185 O210 2.500 . S
Nd185 O211 2.492 . S
Nd185 O212 2.487 . S
Nd185 O213 2.682 . S
Nd185 O214 2.410 . S
C186 Nd184 2.836 . S
C186 C187 1.498 . S
C186 O204 1.258 . S
C186 O205 1.239 . S
C187 C186 1.498 . S
C187 C188 1.366 . S
C187 C192 1.407 . S
C188 C187 1.366 . S
C188 C189 1.392 . S
C188 H216 0.930 . S
C189 C188 1.392 . S
C189 C190 1.398 . S
C189 H217 0.929 . S
C190 C189 1.398 . S
C190 C191 1.352 . S
C191 C190 1.352 . S
C191 C192 1.384 . S
C191 H218 0.930 . S
C192 C187 1.407 . S
C192 C191 1.384 . S
C192 H219 0.929 . S
C193 O206 1.241 1_556 S
C193 O207 1.273 . S
C194 O208 1.251 . S
C194 O209 1.268 . S
C195 Nd185 2.836 . S
C195 C196 1.498 . S
C195 O210 1.258 . S
C195 O211 1.239 . S
C196 C195 1.498 . S
C196 C197 1.366 . S
C196 C201 1.407 . S
C197 C196 1.366 . S
C197 C198 1.392 . S
C197 H220 0.930 . S
C198 C197 1.392 . S
C198 C199 1.398 . S
C198 H221 0.929 . S
C199 C198 1.398 . S
C199 C200 1.352 . S
C200 C199 1.352 . S
C200 C201 1.384 . S
C200 H222 0.930 . S
C201 C196 1.407 . S
C201 C200 1.384 . S
C201 H223 0.929 . S
C202 O212 1.241 . S
C202 O213 1.273 . S
C203 O214 1.251 1_554 S
C203 O215 1.268 . S
O204 Nd184 2.500 . S
O204 C186 1.258 . S
O205 Nd184 2.492 . S
O205 C186 1.239 . S
O206 Nd184 2.487 . S
O206 C193 1.241 1_554 S
O207 Nd184 2.682 1_556 S
O207 Nd185 2.414 . S
O207 C193 1.273 . S
O208 Nd184 2.410 1_556 S
O208 C194 1.251 . S
O209 Nd185 2.424 . S
O209 C194 1.268 . S
O210 Nd185 2.500 . S
O210 C195 1.258 . S
O211 Nd185 2.492 . S
O211 C195 1.239 . S
O212 Nd185 2.487 . S
O212 C202 1.241 . S
O213 Nd184 2.414 1_556 S
O213 Nd185 2.682 . S
O213 C202 1.273 . S
O214 Nd185 2.410 . S
O214 C203 1.251 1_556 S
O215 Nd184 2.424 . S
O215 C203 1.268 . S
H216 C188 0.930 . S
H217 C189 0.929 . S
H218 C191 0.930 . S
H219 C192 0.929 . S
H220 C197 0.930 . S
H221 C198 0.929 . S
H222 C200 0.930 . S
H223 C201 0.929 . S
Nd224 C226 2.836 1_455 S
Nd224 O244 2.500 1_455 S
Nd224 O245 2.492 1_455 S
Nd224 O246 2.487 . S
Nd224 O247 2.682 . S
Nd224 O248 2.410 1_455 S
Nd224 O253 2.414 . S
Nd224 O255 2.424 . S
Nd225 C235 2.836 . S
Nd225 O247 2.414 1_554 S
Nd225 O249 2.424 1_455 S
Nd225 O250 2.500 . S
Nd225 O251 2.492 . S
Nd225 O252 2.487 . S
Nd225 O253 2.682 1_554 S
Nd225 O254 2.410 1_554 S
C226 Nd224 2.836 1_655 S
C226 C227 1.498 . S
C226 O244 1.258 . S
C226 O245 1.239 . S
C227 C226 1.498 . S
C227 C228 1.366 . S
C227 C232 1.407 . S
C228 C227 1.366 . S
C228 C229 1.392 . S
C228 H256 0.930 . S
C229 C228 1.392 . S
C229 C230 1.398 . S
C229 H257 0.929 . S
C230 C229 1.398 . S
C230 C231 1.352 . S
C231 C230 1.352 . S
C231 C232 1.384 . S
C231 H258 0.930 . S
C232 C227 1.407 . S
C232 C231 1.384 . S
C232 H259 0.929 . S
C233 O246 1.241 . S
C233 O247 1.273 . S
C234 O248 1.251 . S
C234 O249 1.268 1_556 S
C235 Nd225 2.836 . S
C235 C236 1.498 . S
C235 O250 1.258 . S
C235 O251 1.239 . S
C236 C235 1.498 . S
C236 C237 1.366 . S
C236 C241 1.407 . S
C237 C236 1.366 . S
C237 C238 1.392 . S
C237 H260 0.930 . S
C238 C237 1.392 . S
C238 C239 1.398 . S
C238 H261 0.929 . S
C239 C238 1.398 . S
C239 C240 1.352 . S
C240 C239 1.352 . S
C240 C241 1.384 . S
C240 H262 0.930 . S
C241 C236 1.407 . S
C241 C240 1.384 . S
C241 H263 0.929 . S
C242 O252 1.241 1_556 S
C242 O253 1.273 . S
C243 O254 1.251 . S
C243 O255 1.268 . S
O244 Nd224 2.500 1_655 S
O244 C226 1.258 . S
O245 Nd224 2.492 1_655 S
O245 C226 1.239 . S
O246 Nd224 2.487 . S
O246 C233 1.241 . S
O247 Nd224 2.682 . S
O247 Nd225 2.414 1_556 S
O247 C233 1.273 . S
O248 Nd224 2.410 1_655 S
O248 C234 1.251 . S
O249 Nd225 2.424 1_655 S
O249 C234 1.268 1_554 S
O250 Nd225 2.500 . S
O250 C235 1.258 . S
O251 Nd225 2.492 . S
O251 C235 1.239 . S
O252 Nd225 2.487 . S
O252 C242 1.241 1_554 S
O253 Nd224 2.414 . S
O253 Nd225 2.682 1_556 S
O253 C242 1.273 . S
O254 Nd225 2.410 1_556 S
O254 C243 1.251 . S
O255 Nd224 2.424 . S
O255 C243 1.268 . S
H256 C228 0.930 . S
H257 C229 0.929 . S
H258 C231 0.930 . S
H259 C232 0.929 . S
H260 C237 0.930 . S
H261 C238 0.929 . S
H262 C240 0.930 . S
H263 C241 0.929 . S
C264 C265 1.391 . S
C264 C266 1.394 . S
C264 H280 0.931 . S
C265 C264 1.391 . S
C265 C269 1.376 . S
C266 C264 1.394 . S
C266 C267 1.369 . S
C266 C270 1.531 . S
C267 C266 1.369 . S
C267 C268 1.410 . S
C267 C275 1.503 . S
C268 C267 1.410 . S
C268 C269 1.392 . S
C268 C271 1.511 . S
C269 C265 1.376 . S
C269 C268 1.392 . S
C269 H281 0.929 . S
C270 C266 1.531 . S
C270 H282 0.960 . S
C270 H283 0.962 1_556 S
C270 H284 0.960 1_556 S
C271 C268 1.511 . S
C271 H285 0.961 . S
C271 H286 0.961 . S
C271 H287 0.961 . S
C272 C273 1.370 . S
C272 C274 1.363 . S
C272 H288 0.931 . S
C273 C272 1.370 . S
C273 C277 1.408 . S
C274 C272 1.363 . S
C274 C275 1.370 . S
C274 C278 1.524 . S
C275 C267 1.503 . S
C275 C274 1.370 . S
C275 C276 1.403 . S
C276 C275 1.403 . S
C276 C277 1.404 . S
C276 C279 1.539 . S
C277 C273 1.408 . S
C277 C276 1.404 . S
C277 H289 0.930 . S
C278 C274 1.524 . S
C278 H290 0.956 . S
C278 H291 0.961 . S
C278 H292 0.961 . S
C279 C276 1.539 . S
C279 H293 0.958 . S
C279 H294 0.961 . S
C279 H295 0.960 . S
H280 C264 0.931 . S
H281 C269 0.929 . S
H282 C270 0.960 . S
H283 C270 0.962 1_554 S
H284 C270 0.960 1_554 S
H285 C271 0.961 . S
H286 C271 0.961 . S
H287 C271 0.961 . S
H288 C272 0.931 . S
H289 C277 0.930 . S
H290 C278 0.956 . S
H291 C278 0.961 . S
H292 C278 0.961 . S
H293 C279 0.958 . S
H294 C279 0.961 . S
H295 C279 0.960 . S
C296 C297 1.391 . S
C296 C298 1.394 . S
C296 H312 0.931 . S
C297 C296 1.391 . S
C297 C301 1.376 . S
C298 C296 1.394 . S
C298 C299 1.369 . S
C298 C302 1.531 . S
C299 C298 1.369 . S
C299 C300 1.410 . S
C299 C307 1.503 . S
C300 C299 1.410 . S
C300 C301 1.392 . S
C300 C303 1.511 . S
C301 C297 1.376 . S
C301 C300 1.392 . S
C301 H313 0.929 . S
C302 C298 1.531 . S
C302 H314 0.960 . S
C302 H315 0.962 . S
C302 H316 0.960 . S
C303 C300 1.511 . S
C303 H317 0.961 . S
C303 H318 0.961 . S
C303 H319 0.961 . S
C304 C305 1.370 . S
C304 C306 1.363 . S
C304 H320 0.931 . S
C305 C304 1.370 . S
C305 C309 1.408 . S
C306 C304 1.363 . S
C306 C307 1.370 . S
C306 C310 1.524 . S
C307 C299 1.503 . S
C307 C306 1.370 . S
C307 C308 1.403 . S
C308 C307 1.403 . S
C308 C309 1.404 . S
C308 C311 1.539 . S
C309 C305 1.408 . S
C309 C308 1.404 . S
C309 H321 0.930 . S
C310 C306 1.524 . S
C310 H322 0.956 . S
C310 H323 0.961 . S
C310 H324 0.961 . S
C311 C308 1.539 . S
C311 H325 0.958 . S
C311 H326 0.961 . S
C311 H327 0.960 . S
H312 C296 0.931 . S
H313 C301 0.929 . S
H314 C302 0.960 . S
H315 C302 0.962 . S
H316 C302 0.960 . S
H317 C303 0.961 . S
H318 C303 0.961 . S
H319 C303 0.961 . S
H320 C304 0.931 . S
H321 C309 0.930 . S
H322 C310 0.956 . S
H323 C310 0.961 . S
H324 C310 0.961 . S
H325 C311 0.958 . S
H326 C311 0.961 . S
H327 C311 0.960 . S
C328 C329 1.391 . S
C328 C330 1.394 . S
C328 H344 0.931 . S
C329 C328 1.391 . S
C329 C333 1.376 . S
C330 C328 1.394 . S
C330 C331 1.369 . S
C330 C334 1.531 1_556 S
C331 C330 1.369 . S
C331 C332 1.410 . S
C331 C339 1.503 . S
C332 C331 1.410 . S
C332 C333 1.392 . S
C332 C335 1.511 . S
C333 C329 1.376 . S
C333 C332 1.392 . S
C333 H345 0.929 . S
C334 C330 1.531 1_554 S
C334 H346 0.960 1_554 S
C334 H347 0.962 . S
C334 H348 0.960 . S
C335 C332 1.511 . S
C335 H349 0.961 . S
C335 H350 0.961 . S
C335 H351 0.961 . S
C336 C337 1.370 . S
C336 C338 1.363 . S
C336 H352 0.931 . S
C337 C336 1.370 . S
C337 C341 1.408 . S
C338 C336 1.363 . S
C338 C339 1.370 . S
C338 C342 1.524 . S
C339 C331 1.503 . S
C339 C338 1.370 . S
C339 C340 1.403 . S
C340 C339 1.403 . S
C340 C341 1.404 . S
C340 C343 1.539 . S
C341 C337 1.408 . S
C341 C340 1.404 . S
C341 H353 0.930 . S
C342 C338 1.524 . S
C342 H354 0.956 1_556 S
C342 H355 0.961 . S
C342 H356 0.961 . S
C343 C340 1.539 . S
C343 H357 0.958 . S
C343 H358 0.961 . S
C343 H359 0.960 . S
H344 C328 0.931 . S
H345 C333 0.929 . S
H346 C334 0.960 1_556 S
H347 C334 0.962 . S
H348 C334 0.960 . S
H349 C335 0.961 . S
H350 C335 0.961 . S
H351 C335 0.961 . S
H352 C336 0.931 . S
H353 C341 0.930 . S
H354 C342 0.956 1_554 S
H355 C342 0.961 . S
H356 C342 0.961 . S
H357 C343 0.958 . S
H358 C343 0.961 . S
H359 C343 0.960 . S
C360 C361 1.391 . S
C360 C362 1.394 . S
C360 H376 0.931 . S
C361 C360 1.391 . S
C361 C365 1.376 . S
C362 C360 1.394 . S
C362 C363 1.369 . S
C362 C366 1.531 . S
C363 C362 1.369 . S
C363 C364 1.410 . S
C363 C371 1.503 . S
C364 C363 1.410 . S
C364 C365 1.392 . S
C364 C367 1.511 . S
C365 C361 1.376 . S
C365 C364 1.392 . S
C365 H377 0.929 . S
C366 C362 1.531 . S
C366 H378 0.960 . S
C366 H379 0.962 . S
C366 H380 0.960 . S
C367 C364 1.511 . S
C367 H381 0.961 . S
C367 H382 0.961 . S
C367 H383 0.961 . S
C368 C369 1.370 . S
C368 C370 1.363 . S
C368 H384 0.954 . S
C369 C368 1.370 . S
C369 C373 1.408 . S
C370 C368 1.363 . S
C370 C371 1.370 . S
C370 C374 1.524 . S
C371 C363 1.503 . S
C371 C370 1.370 . S
C371 C372 1.403 . S
C372 C371 1.403 . S
C372 C373 1.404 . S
C372 C375 1.539 . S
C373 C369 1.408 . S
C373 C372 1.404 . S
C373 H385 0.930 . S
C374 C370 1.524 . S
C374 H386 0.956 1_455 S
C374 H387 0.961 . S
C374 H388 0.961 1_455 S
C375 C372 1.539 . S
C375 H389 0.958 . S
C375 H390 0.961 . S
C375 H391 0.960 . S
H376 C360 0.931 . S
H377 C365 0.929 . S
H378 C366 0.960 . S
H379 C366 0.962 . S
H380 C366 0.960 . S
H381 C367 0.961 . S
H382 C367 0.961 . S
H383 C367 0.961 . S
H384 C368 0.954 . S
H385 C373 0.930 . S
H386 C374 0.956 1_655 S
H387 C374 0.961 . S
H388 C374 0.961 1_655 S
H389 C375 0.958 . S
H390 C375 0.961 . S
H391 C375 0.960 . S
C392 C393 1.391 . S
C392 C394 1.394 . S
C392 H408 0.931 . S
C393 C392 1.391 . S
C393 C397 1.376 . S
C394 C392 1.394 . S
C394 C395 1.369 . S
C394 C398 1.531 1_565 S
C395 C394 1.369 . S
C395 C396 1.412 . S
C395 C403 1.503 . S
C396 C395 1.412 . S
C396 C397 1.393 . S
C396 C399 1.508 1_554 S
C397 C393 1.376 . S
C397 C396 1.393 . S
C397 H409 0.929 1_554 S
C398 C394 1.531 1_545 S
C398 H410 0.960 . S
C398 H411 0.962 . S
C398 H412 0.960 . S
C399 C396 1.508 1_556 S
C399 H413 0.961 . S
C399 H414 0.961 . S
C399 H415 0.961 1_556 S
C400 C401 1.370 . S
C400 C402 1.363 . S
C400 H416 0.931 . S
C401 C400 1.370 . S
C401 C405 1.408 1_546 S
C402 C400 1.363 . S
C402 C403 1.370 1_546 S
C402 C406 1.524 . S
C403 C395 1.503 . S
C403 C402 1.370 1_564 S
C403 C404 1.403 . S
C404 C403 1.403 . S
C404 C405 1.404 . S
C404 C407 1.539 . S
C405 C401 1.408 1_564 S
C405 C404 1.404 . S
C405 H417 0.930 . S
C406 C402 1.524 . S
C406 H418 0.956 . S
C406 H419 0.961 1_545 S
C406 H420 0.961 . S
C407 C404 1.539 . S
C407 H421 0.958 . S
C407 H422 0.961 . S
C407 H423 0.960 . S
H408 C392 0.931 . S
H409 C397 0.929 1_556 S
H410 C398 0.960 . S
H411 C398 0.962 . S
H412 C398 0.960 . S
H413 C399 0.961 . S
H414 C399 0.961 . S
H415 C399 0.961 1_554 S
H416 C400 0.931 . S
H417 C405 0.930 . S
H418 C406 0.956 . S
H419 C406 0.961 1_565 S
H420 C406 0.961 . S
H421 C407 0.958 . S
H422 C407 0.961 . S
H423 C407 0.960 . S
C424 C425 1.391 . S
C424 C426 1.394 . S
C424 H440 0.931 . S
C425 C424 1.391 . S
C425 C429 1.376 . S
C426 C424 1.394 . S
C426 C427 1.369 . S
C426 C430 1.531 . S
C427 C426 1.369 . S
C427 C428 1.410 . S
C427 C435 1.503 . S
C428 C427 1.410 . S
C428 C429 1.392 . S
C428 C431 1.511 . S
C429 C425 1.376 . S
C429 C428 1.392 . S
C429 H441 0.929 . S
C430 C426 1.531 . S
C430 H442 0.960 . S
C430 H443 0.962 . S
C430 H444 0.960 . S
C431 C428 1.511 . S
C431 H445 0.961 . S
C431 H446 0.961 . S
C431 H447 0.961 . S
C432 C433 1.370 . S
C432 C434 1.363 . S
C432 H448 0.931 . S
C433 C432 1.370 . S
C433 C437 1.408 . S
C434 C432 1.363 . S
C434 C435 1.370 . S
C434 C438 1.524 . S
C435 C427 1.503 . S
C435 C434 1.370 . S
C435 C436 1.403 . S
C436 C435 1.403 . S
C436 C437 1.404 . S
C436 C439 1.539 . S
C437 C433 1.408 . S
C437 C436 1.404 . S
C437 H449 0.930 . S
C438 C434 1.524 . S
C438 H450 0.956 . S
C438 H451 0.961 . S
C438 H452 0.961 . S
C439 C436 1.539 . S
C439 H453 0.958 . S
C439 H454 0.961 . S
C439 H455 0.960 . S
H440 C424 0.931 . S
H441 C429 0.929 . S
H442 C430 0.960 . S
H443 C430 0.962 . S
H444 C430 0.960 . S
H445 C431 0.961 . S
H446 C431 0.961 . S
H447 C431 0.961 . S
H448 C432 0.931 . S
H449 C437 0.930 . S
H450 C438 0.956 . S
H451 C438 0.961 . S
H452 C438 0.961 . S
H453 C439 0.958 . S
H454 C439 0.961 . S
H455 C439 0.960 . S
C456 C457 1.391 . S
C456 C458 1.394 . S
C456 H472 0.931 . S
C457 C456 1.391 . S
C457 C461 1.376 1_556 S
C458 C456 1.394 . S
C458 C459 1.369 . S
C458 C462 1.531 . S
C459 C458 1.369 . S
C459 C460 1.410 1_556 S
C459 C467 1.503 . S
C460 C459 1.410 1_554 S
C460 C461 1.392 . S
C460 C463 1.511 . S
C461 C457 1.376 1_554 S
C461 C460 1.392 . S
C461 H473 0.929 . S
C462 C458 1.531 . S
C462 H474 0.960 . S
C462 H475 0.962 . S
C462 H476 0.960 . S
C463 C460 1.511 . S
C463 H477 0.961 . S
C463 H478 0.961 . S
C463 H479 0.961 . S
C464 C465 1.370 . S
C464 C466 1.363 . S
C464 H480 0.931 . S
C465 C464 1.370 . S
C465 C469 1.408 . S
C466 C464 1.363 . S
C466 C467 1.370 . S
C466 C470 1.524 . S
C467 C459 1.503 . S
C467 C466 1.370 . S
C467 C468 1.403 . S
C468 C467 1.403 . S
C468 C469 1.404 . S
C468 C471 1.539 1_556 S
C469 C465 1.408 . S
C469 C468 1.404 . S
C469 H481 0.930 1_556 S
C470 C466 1.524 . S
C470 H482 0.956 . S
C470 H483 0.961 . S
C470 H484 0.961 . S
C471 C468 1.539 1_554 S
C471 H485 0.958 . S
C471 H486 0.961 . S
C471 H487 0.960 . S
H472 C456 0.931 . S
H473 C461 0.929 . S
H474 C462 0.960 . S
H475 C462 0.962 . S
H476 C462 0.960 . S
H477 C463 0.961 . S
H478 C463 0.961 . S
H479 C463 0.961 . S
H480 C464 0.931 . S
H481 C469 0.930 1_554 S
H482 C470 0.956 . S
H483 C470 0.961 . S
H484 C470 0.961 . S
H485 C471 0.958 . S
H486 C471 0.961 . S
H487 C471 0.960 . S
C488 C489 1.391 1_455 S
C488 C490 1.394 . S
C488 H504 0.931 . S
C489 C488 1.391 1_655 S
C489 C493 1.376 . S
C490 C488 1.394 . S
C490 C491 1.369 . S
C490 C494 1.531 . S
C491 C490 1.369 . S
C491 C492 1.410 1_455 S
C491 C499 1.503 . S
C492 C491 1.410 1_655 S
C492 C493 1.392 . S
C492 C495 1.511 1_554 S
C493 C489 1.376 . S
C493 C492 1.392 . S
C493 H505 0.929 . S
C494 C490 1.531 . S
C494 H506 0.960 . S
C494 H507 0.962 . S
C494 H508 0.960 . S
C495 C492 1.511 1_556 S
C495 H509 0.961 . S
C495 H510 0.961 . S
C495 H511 0.961 1_556 S
C496 C497 1.370 . S
C496 C498 1.363 . S
C496 H512 0.931 . S
C497 C496 1.370 . S
C497 C501 1.408 1_556 S
C498 C496 1.363 . S
C498 C499 1.370 1_556 S
C498 C502 1.524 . S
C499 C491 1.503 . S
C499 C498 1.370 1_554 S
C499 C500 1.403 . S
C500 C499 1.403 . S
C500 C501 1.404 . S
C500 C503 1.539 1_455 S
C501 C497 1.408 1_554 S
C501 C500 1.404 . S
C501 H513 0.930 . S
C502 C498 1.524 . S
C502 H514 0.956 . S
C502 H515 0.961 . S
C502 H516 0.961 . S
C503 C500 1.539 1_655 S
C503 H517 0.936 1_655 S
C503 H518 0.961 . S
C503 H519 0.960 . S
H504 C488 0.931 . S
H505 C493 0.929 . S
H506 C494 0.960 . S
H507 C494 0.962 . S
H508 C494 0.960 . S
H509 C495 0.961 . S
H510 C495 0.961 . S
H511 C495 0.961 1_554 S
H512 C496 0.931 . S
H513 C501 0.930 . S
H514 C502 0.956 . S
H515 C502 0.961 . S
H516 C502 0.961 . S
H517 C503 0.936 1_455 S
H518 C503 0.961 . S
H519 C503 0.960 . S
C520 C521 1.391 . S
C520 C522 1.394 . S
C520 H536 0.931 . S
C521 C520 1.391 . S
C521 C525 1.376 . S
C522 C520 1.394 . S
C522 C523 1.369 . S
C522 C526 1.531 . S
C523 C522 1.369 . S
C523 C524 1.410 . S
C523 C531 1.503 . S
C524 C523 1.410 . S
C524 C525 1.392 . S
C524 C527 1.511 . S
C525 C521 1.376 . S
C525 C524 1.392 . S
C525 H537 0.929 . S
C526 C522 1.531 . S
C526 H538 0.960 . S
C526 H539 0.962 1_455 S
C526 H540 0.960 1_455 S
C527 C524 1.511 . S
C527 H541 0.961 . S
C527 H542 0.961 . S
C527 H543 0.961 . S
C528 C529 1.370 . S
C528 C530 1.363 . S
C528 H544 0.931 . S
C529 C528 1.370 . S
C529 C533 1.408 . S
C530 C528 1.363 . S
C530 C531 1.370 . S
C530 C534 1.524 . S
C531 C523 1.503 . S
C531 C530 1.370 . S
C531 C532 1.403 . S
C532 C531 1.403 . S
C532 C533 1.404 . S
C532 C535 1.539 . S
C533 C529 1.408 . S
C533 C532 1.404 . S
C533 H545 0.930 . S
C534 C530 1.524 . S
C534 H546 0.956 . S
C534 H547 0.961 . S
C534 H548 0.961 1_556 S
C535 C532 1.539 . S
C535 H549 0.958 . S
C535 H550 0.961 . S
C535 H551 0.960 . S
H536 C520 0.931 . S
H537 C525 0.929 . S
H538 C526 0.960 . S
H539 C526 0.962 1_655 S
H540 C526 0.960 1_655 S
H541 C527 0.961 . S
H542 C527 0.961 . S
H543 C527 0.961 . S
H544 C528 0.931 . S
H545 C533 0.930 . S
H546 C534 0.956 . S
H547 C534 0.961 . S
H548 C534 0.961 1_554 S
H549 C535 0.958 . S
H550 C535 0.961 . S
H551 C535 0.960 . S
C552 C553 1.391 . S
C552 C554 1.394 . S
C552 H568 0.931 . S
C553 C552 1.391 . S
C553 C557 1.376 . S
C554 C552 1.394 . S
C554 C555 1.369 . S
C554 C558 1.531 . S
C555 C554 1.369 . S
C555 C556 1.410 . S
C555 C563 1.503 . S
C556 C555 1.410 . S
C556 C557 1.392 . S
C556 C559 1.511 . S
C557 C553 1.376 . S
C557 C556 1.392 . S
C557 H569 0.929 . S
C558 C554 1.531 . S
C558 H570 0.960 . S
C558 H571 0.962 . S
C558 H572 0.960 . S
C559 C556 1.511 . S
C559 H573 0.961 . S
C559 H574 0.961 . S
C559 H575 0.961 . S
C560 C561 1.370 . S
C560 C562 1.363 . S
C560 H576 0.931 . S
C561 C560 1.370 . S
C561 C565 1.408 . S
C562 C560 1.363 . S
C562 C563 1.370 . S
C562 C566 1.524 . S
C563 C555 1.503 . S
C563 C562 1.370 . S
C563 C564 1.403 . S
C564 C563 1.403 . S
C564 C565 1.404 . S
C564 C567 1.539 . S
C565 C561 1.408 . S
C565 C564 1.404 . S
C565 H577 0.930 . S
C566 C562 1.524 . S
C566 H578 0.956 . S
C566 H579 0.961 1_556 S
C566 H580 0.961 1_556 S
C567 C564 1.539 . S
C567 H581 0.958 . S
C567 H582 0.961 . S
C567 H583 0.960 . S
H568 C552 0.931 . S
H569 C557 0.929 . S
H570 C558 0.960 . S
H571 C558 0.962 . S
H572 C558 0.960 . S
H573 C559 0.961 . S
H574 C559 0.961 . S
H575 C559 0.961 . S
H576 C560 0.931 . S
H577 C565 0.930 . S
H578 C566 0.956 . S
H579 C566 0.961 1_554 S
H580 C566 0.961 1_554 S
H581 C567 0.958 . S
H582 C567 0.961 . S
H583 C567 0.960 . S
C584 C585 1.391 . S
C584 C586 1.394 . S
C584 H600 0.931 . S
C585 C584 1.391 . S
C585 C589 1.376 . S
C586 C584 1.394 . S
C586 C587 1.369 . S
C586 C590 1.531 . S
C587 C586 1.369 . S
C587 C588 1.410 . S
C587 C595 1.503 . S
C588 C587 1.410 . S
C588 C589 1.392 . S
C588 C591 1.511 . S
C589 C585 1.376 . S
C589 C588 1.392 . S
C589 H601 0.929 . S
C590 C586 1.531 . S
C590 H602 0.960 . S
C590 H603 0.962 . S
C590 H604 0.960 . S
C591 C588 1.511 . S
C591 H605 0.961 . S
C591 H606 0.961 . S
C591 H607 0.961 . S
C592 C593 1.370 . S
C592 C594 1.363 . S
C592 H608 0.931 . S
C593 C592 1.370 . S
C593 C597 1.408 . S
C594 C592 1.363 . S
C594 C595 1.370 . S
C594 C598 1.524 . S
C595 C587 1.503 . S
C595 C594 1.370 . S
C595 C596 1.403 . S
C596 C595 1.403 . S
C596 C597 1.404 . S
C596 C599 1.539 . S
C597 C593 1.408 . S
C597 C596 1.404 . S
C597 H609 0.930 . S
C598 C594 1.524 . S
C598 H610 0.956 . S
C598 H611 0.961 . S
C598 H612 0.961 . S
C599 C596 1.539 . S
C599 H613 0.958 . S
C599 H614 0.961 . S
C599 H615 0.960 . S
H600 C584 0.931 . S
H601 C589 0.929 . S
H602 C590 0.960 . S
H603 C590 0.962 . S
H604 C590 0.960 . S
H605 C591 0.961 . S
H606 C591 0.961 . S
H607 C591 0.961 . S
H608 C592 0.931 . S
H609 C597 0.930 . S
H610 C598 0.956 . S
H611 C598 0.961 . S
H612 C598 0.961 . S
H613 C599 0.958 . S
H614 C599 0.961 . S
H615 C599 0.960 . S
C616 C617 1.391 . S
C616 C618 1.394 . S
C616 H632 0.931 . S
C617 C616 1.391 . S
C617 C621 1.376 . S
C618 C616 1.394 . S
C618 C619 1.369 . S
C618 C622 1.531 . S
C619 C618 1.369 . S
C619 C620 1.410 . S
C619 C627 1.503 . S
C620 C619 1.410 . S
C620 C621 1.392 . S
C620 C623 1.511 . S
C621 C617 1.376 . S
C621 C620 1.392 . S
C621 H633 0.929 . S
C622 C618 1.531 . S
C622 H634 0.960 . S
C622 H635 0.962 . S
C622 H636 0.960 . S
C623 C620 1.511 . S
C623 H637 0.961 . S
C623 H638 0.961 . S
C623 H639 0.961 . S
C624 C625 1.370 . S
C624 C626 1.363 . S
C624 H640 0.931 1_556 S
C625 C624 1.370 . S
C625 C629 1.408 . S
C626 C624 1.363 . S
C626 C627 1.370 . S
C626 C630 1.524 1_556 S
C627 C619 1.503 . S
C627 C626 1.370 . S
C627 C628 1.403 . S
C628 C627 1.403 . S
C628 C629 1.404 . S
C628 C631 1.539 . S
C629 C625 1.408 . S
C629 C628 1.404 . S
C629 H641 0.930 . S
C630 C626 1.524 1_554 S
C630 H642 0.956 . S
C630 H643 0.961 . S
C630 H644 0.961 . S
C631 C628 1.539 . S
C631 H645 0.958 . S
C631 H646 0.961 . S
C631 H647 0.960 . S
H632 C616 0.931 . S
H633 C621 0.929 . S
H634 C622 0.960 . S
H635 C622 0.962 . S
H636 C622 0.960 . S
H637 C623 0.961 . S
H638 C623 0.961 . S
H639 C623 0.961 . S
H640 C624 0.931 1_554 S
H641 C629 0.930 . S
H642 C630 0.956 . S
H643 C630 0.961 . S
H644 C630 0.961 . S
H645 C631 0.958 . S
H646 C631 0.961 . S
H647 C631 0.960 . S
C648 C649 1.391 . S
C648 C650 1.394 . S
C648 H664 0.931 . S
C649 C648 1.391 . S
C649 C653 1.376 1_655 S
C650 C648 1.394 . S
C650 C651 1.369 1_655 S
C650 C654 1.531 . S
C651 C650 1.369 1_455 S
C651 C652 1.410 . S
C651 C659 1.503 . S
C652 C651 1.410 . S
C652 C653 1.392 . S
C652 C655 1.511 . S
C653 C649 1.376 1_455 S
C653 C652 1.392 . S
C653 H665 0.929 . S
C654 C650 1.531 . S
C654 H666 0.960 . S
C654 H667 0.962 1_554 S
C654 H668 0.960 . S
C655 C652 1.511 . S
C655 H669 0.961 . S
C655 H670 0.961 . S
C655 H671 0.961 . S
C656 C657 1.370 . S
C656 C658 1.363 . S
C656 H672 0.931 . S
C657 C656 1.370 . S
C657 C661 1.408 1_556 S
C658 C656 1.363 . S
C658 C659 1.370 1_556 S
C658 C662 1.524 . S
C659 C651 1.503 . S
C659 C658 1.370 1_554 S
C659 C660 1.403 . S
C660 C659 1.403 . S
C660 C661 1.404 . S
C660 C663 1.539 . S
C661 C657 1.408 1_554 S
C661 C660 1.404 . S
C661 H673 0.930 . S
C662 C658 1.524 . S
C662 H674 0.956 1_455 S
C662 H675 0.961 . S
C662 H676 0.961 . S
C663 C660 1.539 . S
C663 H677 0.958 1_455 S
C663 H678 0.961 . S
C663 H679 0.960 . S
H664 C648 0.931 . S
H665 C653 0.929 . S
H666 C654 0.960 . S
H667 C654 0.962 1_556 S
H668 C654 0.960 . S
H669 C655 0.961 . S
H670 C655 0.961 . S
H671 C655 0.961 . S
H672 C656 0.931 . S
H673 C661 0.930 . S
H674 C662 0.956 1_655 S
H675 C662 0.961 . S
H676 C662 0.961 . S
H677 C663 0.958 1_655 S
H678 C663 0.961 . S
H679 C663 0.960 . S
C680 C681 1.391 . S
C680 C682 1.394 . S
C680 H696 0.931 . S
C681 C680 1.391 . S
C681 C685 1.376 1_554 S
C682 C680 1.394 . S
C682 C683 1.369 . S
C682 C686 1.531 . S
C683 C682 1.369 . S
C683 C684 1.410 1_564 S
C683 C691 1.503 1_554 S
C684 C683 1.410 1_546 S
C684 C685 1.392 1_545 S
C684 C687 1.511 . S
C685 C681 1.376 1_556 S
C685 C684 1.392 1_565 S
C685 H697 0.929 . S
C686 C682 1.531 . S
C686 H698 0.960 . S
C686 H699 0.962 . S
C686 H700 0.960 . S
C687 C684 1.511 . S
C687 H701 0.961 . S
C687 H702 0.961 . S
C687 H703 0.961 . S
C688 C689 1.370 . S
C688 C690 1.363 1_545 S
C688 H704 0.923 1_545 S
C689 C688 1.370 . S
C689 C693 1.408 1_556 S
C690 C688 1.363 1_565 S
C690 C691 1.370 . S
C690 C694 1.524 . S
C691 C683 1.503 1_556 S
C691 C690 1.370 . S
C691 C692 1.403 1_566 S
C692 C691 1.403 1_544 S
C692 C693 1.404 . S
C692 C695 1.539 . S
C693 C689 1.408 1_554 S
C693 C692 1.404 . S
C693 H705 0.930 . S
C694 C690 1.524 . S
C694 H706 0.956 . S
C694 H707 0.961 . S
C694 H708 0.961 . S
C695 C692 1.539 . S
C695 H709 0.958 . S
C695 H710 0.961 . S
C695 H711 0.960 . S
H696 C680 0.931 . S
H697 C685 0.929 . S
H698 C686 0.960 . S
H699 C686 0.962 . S
H700 C686 0.960 . S
H701 C687 0.961 . S
H702 C687 0.961 . S
H703 C687 0.961 . S
H704 C688 0.923 1_565 S
H705 C693 0.930 . S
H706 C694 0.956 . S
H707 C694 0.961 . S
H708 C694 0.961 . S
H709 C695 0.958 . S
H710 C695 0.961 . S
H711 C695 0.960 . S
C712 C713 1.391 . S
C712 C714 1.394 . S
C712 H728 0.931 . S
C713 C712 1.391 . S
C713 C717 1.376 . S
C714 C712 1.394 . S
C714 C715 1.369 . S
C714 C718 1.531 . S
C715 C714 1.369 . S
C715 C716 1.410 . S
C715 C723 1.503 . S
C716 C715 1.410 . S
C716 C717 1.392 . S
C716 C719 1.511 . S
C717 C713 1.376 . S
C717 C716 1.392 . S
C717 H729 0.929 . S
C718 C714 1.531 . S
C718 H730 0.960 . S
C718 H731 0.962 . S
C718 H732 0.960 . S
C719 C716 1.511 . S
C719 H733 0.961 . S
C719 H734 0.961 . S
C719 H735 0.961 . S
C720 C721 1.370 . S
C720 C722 1.363 . S
C720 H736 0.931 . S
C721 C720 1.370 . S
C721 C725 1.408 . S
C722 C720 1.363 . S
C722 C723 1.370 . S
C722 C726 1.524 . S
C723 C715 1.503 . S
C723 C722 1.370 . S
C723 C724 1.403 . S
C724 C723 1.403 . S
C724 C725 1.404 . S
C724 C727 1.539 . S
C725 C721 1.408 . S
C725 C724 1.404 . S
C725 H737 0.930 . S
C726 C722 1.524 . S
C726 H738 0.956 . S
C726 H739 0.961 . S
C726 H740 0.961 . S
C727 C724 1.539 . S
C727 H741 0.958 . S
C727 H742 0.961 . S
C727 H743 0.960 . S
H728 C712 0.931 . S
H729 C717 0.929 . S
H730 C718 0.960 . S
H731 C718 0.962 . S
H732 C718 0.960 . S
H733 C719 0.961 . S
H734 C719 0.961 . S
H735 C719 0.961 . S
H736 C720 0.931 . S
H737 C725 0.930 . S
H738 C726 0.956 . S
H739 C726 0.961 . S
H740 C726 0.961 . S
H741 C727 0.958 . S
H742 C727 0.961 . S
H743 C727 0.960 . S
C744 C745 1.391 . S
C744 C746 1.394 . S
C744 H760 0.931 . S
C745 C744 1.391 . S
C745 C749 1.376 1_556 S
C746 C744 1.394 . S
C746 C747 1.369 . S
C746 C750 1.531 . S
C747 C746 1.369 . S
C747 C748 1.410 1_556 S
C747 C755 1.503 . S
C748 C747 1.410 1_554 S
C748 C749 1.392 . S
C748 C751 1.511 . S
C749 C745 1.376 1_554 S
C749 C748 1.392 . S
C749 H761 0.929 . S
C750 C746 1.531 . S
C750 H762 0.960 . S
C750 H763 0.962 . S
C750 H764 0.960 . S
C751 C748 1.511 . S
C751 H765 0.961 . S
C751 H766 0.961 . S
C751 H767 0.961 . S
C752 C753 1.370 . S
C752 C754 1.363 . S
C752 H768 0.931 . S
C753 C752 1.370 . S
C753 C757 1.408 . S
C754 C752 1.363 . S
C754 C755 1.370 . S
C754 C758 1.524 . S
C755 C747 1.503 . S
C755 C754 1.370 . S
C755 C756 1.403 . S
C756 C755 1.403 . S
C756 C757 1.404 . S
C756 C759 1.539 . S
C757 C753 1.408 . S
C757 C756 1.404 . S
C757 H769 0.930 . S
C758 C754 1.524 . S
C758 H770 0.956 . S
C758 H771 0.961 1_556 S
C758 H772 0.961 . S
C759 C756 1.539 . S
C759 H773 0.958 . S
C759 H774 0.961 . S
C759 H775 0.960 . S
H760 C744 0.931 . S
H761 C749 0.929 . S
H762 C750 0.960 . S
H763 C750 0.962 . S
H764 C750 0.960 . S
H765 C751 0.961 . S
H766 C751 0.961 . S
H767 C751 0.961 . S
H768 C752 0.931 . S
H769 C757 0.930 . S
H770 C758 0.956 . S
H771 C758 0.961 1_554 S
H772 C758 0.961 . S
H773 C759 0.958 . S
H774 C759 0.961 . S
H775 C759 0.960 . S
C776 C777 1.391 . S
C776 C778 1.394 . S
C776 H792 0.931 . S
C777 C776 1.391 . S
C777 C781 1.376 . S
C778 C776 1.394 . S
C778 C779 1.369 . S
C778 C782 1.531 . S
C779 C778 1.369 . S
C779 C780 1.410 . S
C779 C787 1.503 . S
C780 C779 1.410 . S
C780 C781 1.392 . S
C780 C783 1.511 . S
C781 C777 1.376 . S
C781 C780 1.392 . S
C781 H793 0.929 . S
C782 C778 1.531 . S
C782 H794 0.960 . S
C782 H795 0.962 . S
C782 H796 0.960 . S
C783 C780 1.511 . S
C783 H797 0.961 . S
C783 H798 0.961 . S
C783 H799 0.957 1_455 S
C784 C785 1.370 . S
C784 C786 1.363 . S
C784 H800 0.931 . S
C785 C784 1.370 . S
C785 C789 1.408 . S
C786 C784 1.363 . S
C786 C787 1.370 . S
C786 C790 1.524 . S
C787 C779 1.503 . S
C787 C786 1.370 . S
C787 C788 1.403 . S
C788 C787 1.403 . S
C788 C789 1.404 . S
C788 C791 1.539 . S
C789 C785 1.408 . S
C789 C788 1.404 . S
C789 H801 0.930 . S
C790 C786 1.524 . S
C790 H802 0.956 . S
C790 H803 0.961 . S
C790 H804 0.961 . S
C791 C788 1.539 . S
C791 H805 0.958 . S
C791 H806 0.961 . S
C791 H807 0.960 . S
H792 C776 0.931 . S
H793 C781 0.929 . S
H794 C782 0.960 . S
H795 C782 0.962 . S
H796 C782 0.960 . S
H797 C783 0.961 . S
H798 C783 0.961 . S
H799 C783 0.957 1_655 S
H800 C784 0.931 . S
H801 C789 0.930 . S
H802 C790 0.956 . S
H803 C790 0.961 . S
H804 C790 0.961 . S
H805 C791 0.958 . S
H806 C791 0.961 . S
H807 C791 0.960 . S
C808 C809 1.391 . S
C808 C810 1.394 . S
C808 H824 0.931 . S
C809 C808 1.391 . S
C809 C813 1.376 . S
C810 C808 1.394 . S
C810 C811 1.369 . S
C810 C814 1.531 . S
C811 C810 1.369 . S
C811 C812 1.410 . S
C811 C819 1.503 . S
C812 C811 1.410 . S
C812 C813 1.392 . S
C812 C815 1.511 . S
C813 C809 1.376 . S
C813 C812 1.392 . S
C813 H825 0.929 . S
C814 C810 1.531 . S
C814 H826 0.960 . S
C814 H827 0.962 . S
C814 H828 0.960 . S
C815 C812 1.511 . S
C815 H829 0.961 . S
C815 H830 0.961 . S
C815 H831 0.961 . S
C816 C817 1.370 . S
C816 C818 1.363 . S
C816 H832 0.931 . S
C817 C816 1.370 . S
C817 C821 1.408 . S
C818 C816 1.363 . S
C818 C819 1.370 . S
C818 C822 1.524 . S
C819 C811 1.503 . S
C819 C818 1.370 . S
C819 C820 1.403 . S
C820 C819 1.403 . S
C820 C821 1.404 . S
C820 C823 1.539 . S
C821 C817 1.408 . S
C821 C820 1.404 . S
C821 H833 0.930 . S
C822 C818 1.524 . S
C822 H834 0.956 . S
C822 H835 0.961 . S
C822 H836 0.961 . S
C823 C820 1.539 . S
C823 H837 0.958 . S
C823 H838 0.961 . S
C823 H839 0.960 . S
H824 C808 0.931 . S
H825 C813 0.929 . S
H826 C814 0.960 . S
H827 C814 0.962 . S
H828 C814 0.960 . S
H829 C815 0.961 . S
H830 C815 0.961 . S
H831 C815 0.961 . S
H832 C816 0.931 . S
H833 C821 0.930 . S
H834 C822 0.956 . S
H835 C822 0.961 . S
H836 C822 0.961 . S
H837 C823 0.958 . S
H838 C823 0.961 . S
H839 C823 0.960 . S
C840 C841 1.391 . S
C840 C842 1.394 . S
C840 H856 0.931 . S
C841 C840 1.391 . S
C841 C845 1.376 . S
C842 C840 1.394 . S
C842 C843 1.369 . S
C842 C846 1.531 . S
C843 C842 1.369 . S
C843 C844 1.410 . S
C843 C851 1.503 . S
C844 C843 1.410 . S
C844 C845 1.392 . S
C844 C847 1.511 . S
C845 C841 1.376 . S
C845 C844 1.392 . S
C845 H857 0.929 . S
C846 C842 1.531 . S
C846 H858 0.960 . S
C846 H859 0.962 . S
C846 H860 0.960 . S
C847 C844 1.511 . S
C847 H861 0.961 . S
C847 H862 0.961 . S
C847 H863 0.961 . S
C848 C849 1.370 . S
C848 C850 1.363 . S
C848 H864 0.931 1_554 S
C849 C848 1.370 . S
C849 C853 1.408 . S
C850 C848 1.363 . S
C850 C851 1.370 . S
C850 C854 1.524 . S
C851 C843 1.503 . S
C851 C850 1.370 . S
C851 C852 1.403 . S
C852 C851 1.403 . S
C852 C853 1.404 . S
C852 C855 1.539 . S
C853 C849 1.408 . S
C853 C852 1.404 . S
C853 H865 0.930 . S
C854 C850 1.524 . S
C854 H866 0.956 . S
C854 H867 0.961 . S
C854 H868 0.961 1_554 S
C855 C852 1.539 . S
C855 H869 0.958 . S
C855 H870 0.961 . S
C855 H871 0.960 . S
H856 C840 0.931 . S
H857 C845 0.929 . S
H858 C846 0.960 . S
H859 C846 0.962 . S
H860 C846 0.960 . S
H861 C847 0.961 . S
H862 C847 0.961 . S
H863 C847 0.961 . S
H864 C848 0.931 1_556 S
H865 C853 0.930 . S
H866 C854 0.956 . S
H867 C854 0.961 . S
H868 C854 0.961 1_556 S
H869 C855 0.958 . S
H870 C855 0.961 . S
H871 C855 0.960 . S
C872 C873 1.391 . S
C872 C874 1.394 . S
C872 H888 0.931 . S
C873 C872 1.391 . S
C873 C877 1.376 . S
C874 C872 1.394 . S
C874 C875 1.369 . S
C874 C878 1.531 . S
C875 C874 1.369 . S
C875 C876 1.410 . S
C875 C883 1.503 . S
C876 C875 1.410 . S
C876 C877 1.392 . S
C876 C879 1.511 . S
C877 C873 1.376 . S
C877 C876 1.392 . S
C877 H889 0.929 . S
C878 C874 1.531 . S
C878 H890 0.960 . S
C878 H891 0.962 . S
C878 H892 0.960 . S
C879 C876 1.511 . S
C879 H893 0.961 . S
C879 H894 0.961 . S
C879 H895 0.961 . S
C880 C881 1.370 . S
C880 C882 1.363 . S
C880 H896 0.931 . S
C881 C880 1.370 . S
C881 C885 1.408 . S
C882 C880 1.363 . S
C882 C883 1.370 . S
C882 C886 1.524 . S
C883 C875 1.503 . S
C883 C882 1.370 . S
C883 C884 1.403 . S
C884 C883 1.403 . S
C884 C885 1.404 . S
C884 C887 1.539 . S
C885 C881 1.408 . S
C885 C884 1.404 . S
C885 H897 0.930 . S
C886 C882 1.524 . S
C886 H898 0.956 . S
C886 H899 0.961 . S
C886 H900 0.961 . S
C887 C884 1.539 . S
C887 H901 0.958 . S
C887 H902 0.961 . S
C887 H903 0.960 . S
H888 C872 0.931 . S
H889 C877 0.929 . S
H890 C878 0.960 . S
H891 C878 0.962 . S
H892 C878 0.960 . S
H893 C879 0.961 . S
H894 C879 0.961 . S
H895 C879 0.961 . S
H896 C880 0.931 . S
H897 C885 0.930 . S
H898 C886 0.956 . S
H899 C886 0.961 . S
H900 C886 0.961 . S
H901 C887 0.958 . S
H902 C887 0.961 . S
H903 C887 0.960 . S
C904 C905 1.391 . S
C904 C906 1.394 . S
C904 H920 0.931 . S
C905 C904 1.391 . S
C905 C909 1.376 1_655 S
C906 C904 1.394 . S
C906 C907 1.369 . S
C906 C910 1.531 . S
C907 C906 1.369 . S
C907 C908 1.410 1_655 S
C907 C915 1.503 . S
C908 C907 1.410 1_455 S
C908 C909 1.392 . S
C908 C911 1.511 . S
C909 C905 1.376 1_455 S
C909 C908 1.392 . S
C909 H921 0.929 . S
C910 C906 1.531 . S
C910 H922 0.960 . S
C910 H923 0.962 . S
C910 H924 0.960 . S
C911 C908 1.511 . S
C911 H925 0.961 . S
C911 H926 0.961 . S
C911 H927 0.961 . S
C912 C913 1.371 . S
C912 C914 1.369 1_455 S
C912 H928 0.935 . S
C913 C912 1.371 . S
C913 C917 1.413 1_455 S
C914 C912 1.369 1_655 S
C914 C915 1.365 . S
C914 C918 1.525 . S
C915 C907 1.503 . S
C915 C914 1.365 . S
C915 C916 1.403 . S
C916 C915 1.403 . S
C916 C917 1.402 . S
C916 C919 1.539 . S
C917 C913 1.413 1_655 S
C917 C916 1.402 . S
C917 H929 0.929 . S
C918 C914 1.525 . S
C918 H930 0.981 . S
C918 H931 0.937 1_655 S
C918 H932 0.962 1_655 S
C919 C916 1.539 . S
C919 H933 0.958 . S
C919 H934 0.961 1_655 S
C919 H935 0.960 1_655 S
H920 C904 0.931 . S
H921 C909 0.929 . S
H922 C910 0.960 . S
H923 C910 0.962 . S
H924 C910 0.960 . S
H925 C911 0.961 . S
H926 C911 0.961 . S
H927 C911 0.961 . S
H928 C912 0.935 . S
H929 C917 0.929 . S
H930 C918 0.981 . S
H931 C918 0.937 1_455 S
H932 C918 0.962 1_455 S
H933 C919 0.958 . S
H934 C919 0.961 1_455 S
H935 C919 0.960 1_455 S
C936 C937 1.391 . S
C936 C938 1.394 . S
C936 H952 0.931 . S
C937 C936 1.391 . S
C937 C941 1.376 . S
C938 C936 1.394 . S
C938 C939 1.369 . S
C938 C942 1.531 . S
C939 C938 1.369 . S
C939 C940 1.410 . S
C939 C947 1.503 . S
C940 C939 1.410 . S
C940 C941 1.392 . S
C940 C943 1.511 . S
C941 C937 1.376 . S
C941 C940 1.392 . S
C941 H953 0.929 . S
C942 C938 1.531 . S
C942 H954 0.960 . S
C942 H955 0.962 . S
C942 H956 0.960 . S
C943 C940 1.511 . S
C943 H957 0.961 1_565 S
C943 H958 0.961 . S
C943 H959 0.961 . S
C944 C945 1.370 . S
C944 C946 1.363 . S
C944 H960 0.931 . S
C945 C944 1.370 . S
C945 C949 1.408 . S
C946 C944 1.363 . S
C946 C947 1.370 . S
C946 C950 1.524 . S
C947 C939 1.503 . S
C947 C946 1.370 . S
C947 C948 1.403 . S
C948 C947 1.403 . S
C948 C949 1.404 . S
C948 C951 1.539 . S
C949 C945 1.408 . S
C949 C948 1.404 . S
C949 H961 0.930 . S
C950 C946 1.524 . S
C950 H962 0.956 . S
C950 H963 0.961 1_565 S
C950 H964 0.961 1_565 S
C951 C948 1.539 . S
C951 H965 0.958 . S
C951 H966 0.961 . S
C951 H967 0.960 . S
H952 C936 0.931 . S
H953 C941 0.929 . S
H954 C942 0.960 . S
H955 C942 0.962 . S
H956 C942 0.960 . S
H957 C943 0.961 1_545 S
H958 C943 0.961 . S
H959 C943 0.961 . S
H960 C944 0.931 . S
H961 C949 0.930 . S
H962 C950 0.956 . S
H963 C950 0.961 1_545 S
H964 C950 0.961 1_545 S
H965 C951 0.958 . S
H966 C951 0.961 . S
H967 C951 0.960 . S
C968 C969 1.391 . S
C968 C970 1.394 . S
C968 H984 0.931 . S
C969 C968 1.391 . S
C969 C973 1.376 . S
C970 C968 1.394 . S
C970 C971 1.369 . S
C970 C974 1.531 . S
C971 C970 1.369 . S
C971 C972 1.410 . S
C971 C979 1.503 . S
C972 C971 1.410 . S
C972 C973 1.392 . S
C972 C975 1.511 . S
C973 C969 1.376 . S
C973 C972 1.392 . S
C973 H985 0.929 . S
C974 C970 1.531 . S
C974 H986 0.960 . S
C974 H987 0.962 . S
C974 H988 0.960 . S
C975 C972 1.511 . S
C975 H989 0.961 . S
C975 H990 0.961 . S
C975 H991 0.961 . S
C976 C977 1.370 . S
C976 C978 1.363 . S
C976 H992 0.931 . S
C977 C976 1.370 . S
C977 C981 1.408 . S
C978 C976 1.363 . S
C978 C979 1.370 . S
C978 C982 1.524 . S
C979 C971 1.503 . S
C979 C978 1.370 . S
C979 C980 1.403 . S
C980 C979 1.403 . S
C980 C981 1.404 . S
C980 C983 1.539 . S
C981 C977 1.408 . S
C981 C980 1.404 . S
C981 H993 0.930 . S
C982 C978 1.524 . S
C982 H994 0.956 . S
C982 H995 0.961 . S
C982 H996 0.961 . S
C983 C980 1.539 . S
C983 H997 0.958 . S
C983 H998 0.961 . S
C983 H999 0.960 . S
H984 C968 0.931 . S
H985 C973 0.929 . S
H986 C974 0.960 . S
H987 C974 0.962 . S
H988 C974 0.960 . S
H989 C975 0.961 . S
H990 C975 0.961 . S
H991 C975 0.961 . S
H992 C976 0.931 . S
H993 C981 0.930 . S
H994 C982 0.956 . S
H995 C982 0.961 . S
H996 C982 0.961 . S
H997 C983 0.958 . S
H998 C983 0.961 . S
H999 C983 0.960 . S
C1000 C1001 1.391 . S
C1000 C1002 1.394 . S
C1000 H1016 0.931 . S
C1001 C1000 1.391 . S
C1001 C1005 1.376 . S
C1002 C1000 1.394 . S
C1002 C1003 1.369 . S
C1002 C1006 1.531 . S
C1003 C1002 1.369 . S
C1003 C1004 1.410 . S
C1003 C1011 1.503 . S
C1004 C1003 1.410 . S
C1004 C1005 1.392 . S
C1004 C1007 1.511 . S
C1005 C1001 1.376 . S
C1005 C1004 1.392 . S
C1005 H1017 0.929 . S
C1006 C1002 1.531 . S
C1006 H1018 0.960 . S
C1006 H1019 0.962 . S
C1006 H1020 0.960 . S
C1007 C1004 1.511 . S
C1007 H1021 0.961 . S
C1007 H1022 0.961 . S
C1007 H1023 0.961 . S
C1008 C1009 1.370 . S
C1008 C1010 1.363 . S
C1008 H1024 0.931 . S
C1009 C1008 1.370 . S
C1009 C1013 1.408 . S
C1010 C1008 1.363 . S
C1010 C1011 1.370 . S
C1010 C1014 1.524 . S
C1011 C1003 1.503 . S
C1011 C1010 1.370 . S
C1011 C1012 1.403 . S
C1012 C1011 1.403 . S
C1012 C1013 1.404 . S
C1012 C1015 1.539 . S
C1013 C1009 1.408 . S
C1013 C1012 1.404 . S
C1013 H1025 0.930 . S
C1014 C1010 1.524 . S
C1014 H1026 0.956 . S
C1014 H1027 0.961 . S
C1014 H1028 0.961 . S
C1015 C1012 1.539 . S
C1015 H1029 0.958 . S
C1015 H1030 0.961 . S
C1015 H1031 0.960 . S
H1016 C1000 0.931 . S
H1017 C1005 0.929 . S
H1018 C1006 0.960 . S
H1019 C1006 0.962 . S
H1020 C1006 0.960 . S
H1021 C1007 0.961 . S
H1022 C1007 0.961 . S
H1023 C1007 0.961 . S
H1024 C1008 0.931 . S
H1025 C1013 0.930 . S
H1026 C1014 0.956 . S
H1027 C1014 0.961 . S
H1028 C1014 0.961 . S
H1029 C1015 0.958 . S
H1030 C1015 0.961 . S
H1031 C1015 0.960 . S
C265 N80 1.618 . S
C273 C113 1.575 . S
C305 C153 1.274 . S
C297 N93 1.373 . S
C337 C202 1.293 . S
C329 N54 1.343 . S
C369 C233 1.711 . S
C361 N67 1.800 . S
C401 C122 1.569 . S
C393 N28 1.615 . S
C425 N41 1.334 . S
C433 C162 1.295 . S
C457 N2 1.340 . S
C465 C193 1.303 . S
C489 N15 1.807 . S
C497 C242 1.697 . S
C529 C123 0.905 . S
C521 N70 0.865 . S
C561 C163 1.353 . S
C553 N83 1.306 . S
C593 C199 0.740 . S
C585 N96 0.738 . S
C617 N57 1.036 . S
C625 C243 1.079 . S
C649 N18 0.869 . S
C657 C114 0.904 . S
C689 C154 1.358 . S
C681 N31 1.282 . S
C721 C190 0.734 . S
C713 N44 0.761 . S
C745 N5 1.071 . S
C753 C234 1.078 . S
C777 N66 1.642 . S
C785 C119 1.656 . S
C809 N79 1.452 . S
C817 C159 1.438 . S
C849 C203 1.882 . S
C841 N92 1.810 . S
C881 C239 1.417 . S
C873 N53 1.442 . S
C905 N14 1.661 . S
C913 C110 1.660 . S
C945 C150 1.437 . S
C937 N27 1.444 . S
C977 C194 1.883 . S
C969 N40 1.846 . S
C1001 N1 1.423 . S
C1009 C230 1.430 . S
