# Generated by pormake.
# Topology wbl, (4,4)-cn, num edge types: 1
# Building blocks:
#     Node 0, Type 0, BuildingBlock: NAWXER_clean_linker_0, # of connection points: 4
#     Node 1, Type 0, BuildingBlock: NAWXER_clean_linker_0, # of connection points: 4
#     Node 2, Type 0, BuildingBlock: NAWXER_clean_linker_0, # of connection points: 4
#     Node 3, Type 0, BuildingBlock: NAWXER_clean_linker_0, # of connection points: 4
#     Node 4, Type 0, BuildingBlock: NAWXER_clean_linker_0, # of connection points: 4
#     Node 5, Type 0, BuildingBlock: NAWXER_clean_linker_0, # of connection points: 4
#     Node 6, Type 0, BuildingBlock: NAWXER_clean_linker_0, # of connection points: 4
#     Node 7, Type 0, BuildingBlock: NAWXER_clean_linker_0, # of connection points: 4
#     Node 8, Type 1, BuildingBlock: CEKHIL_clean_sbu_0, # of connection points: 4
#     Node 9, Type 1, BuildingBlock: CEKHIL_clean_sbu_0, # of connection points: 4
#     Node 10, Type 1, BuildingBlock: CEKHIL_clean_sbu_0, # of connection points: 4
#     Node 11, Type 1, BuildingBlock: CEKHIL_clean_sbu_0, # of connection points: 4
#     Node 12, Type 1, BuildingBlock: CEKHIL_clean_sbu_0, # of connection points: 4
#     Node 13, Type 1, BuildingBlock: CEKHIL_clean_sbu_0, # of connection points: 4
#     Node 14, Type 1, BuildingBlock: CEKHIL_clean_sbu_0, # of connection points: 4
#     Node 15, Type 1, BuildingBlock: CEKHIL_clean_sbu_0, # of connection points: 4
#     Edge 16, Type (0, 1), BuildingBlock: UVAHIK_clean_linker_0, # of connection points: 2
#     Edge 17, Type (0, 1), BuildingBlock: UVAHIK_clean_linker_0, # of connection points: 2
#     Edge 18, Type (0, 1), BuildingBlock: UVAHIK_clean_linker_0, # of connection points: 2
#     Edge 19, Type (0, 1), BuildingBlock: UVAHIK_clean_linker_0, # of connection points: 2
#     Edge 20, Type (0, 1), BuildingBlock: UVAHIK_clean_linker_0, # of connection points: 2
#     Edge 21, Type (0, 1), BuildingBlock: UVAHIK_clean_linker_0, # of connection points: 2
#     Edge 22, Type (0, 1), BuildingBlock: UVAHIK_clean_linker_0, # of connection points: 2
#     Edge 23, Type (0, 1), BuildingBlock: UVAHIK_clean_linker_0, # of connection points: 2
#     Edge 24, Type (0, 1), BuildingBlock: UVAHIK_clean_linker_0, # of connection points: 2
#     Edge 25, Type (0, 1), BuildingBlock: UVAHIK_clean_linker_0, # of connection points: 2
#     Edge 26, Type (0, 1), BuildingBlock: UVAHIK_clean_linker_0, # of connection points: 2
#     Edge 27, Type (0, 1), BuildingBlock: UVAHIK_clean_linker_0, # of connection points: 2
#     Edge 28, Type (0, 1), BuildingBlock: UVAHIK_clean_linker_0, # of connection points: 2
#     Edge 29, Type (0, 1), BuildingBlock: UVAHIK_clean_linker_0, # of connection points: 2
#     Edge 30, Type (0, 1), BuildingBlock: UVAHIK_clean_linker_0, # of connection points: 2
#     Edge 31, Type (0, 1), BuildingBlock: UVAHIK_clean_linker_0, # of connection points: 2
#     Edge 32, Type (0, 1), BuildingBlock: UVAHIK_clean_linker_0, # of connection points: 2
#     Edge 33, Type (0, 1), BuildingBlock: UVAHIK_clean_linker_0, # of connection points: 2
#     Edge 34, Type (0, 1), BuildingBlock: UVAHIK_clean_linker_0, # of connection points: 2
#     Edge 35, Type (0, 1), BuildingBlock: UVAHIK_clean_linker_0, # of connection points: 2
#     Edge 36, Type (0, 1), BuildingBlock: UVAHIK_clean_linker_0, # of connection points: 2
#     Edge 37, Type (0, 1), BuildingBlock: UVAHIK_clean_linker_0, # of connection points: 2
#     Edge 38, Type (0, 1), BuildingBlock: UVAHIK_clean_linker_0, # of connection points: 2
#     Edge 39, Type (0, 1), BuildingBlock: UVAHIK_clean_linker_0, # of connection points: 2
#     Edge 40, Type (0, 1), BuildingBlock: UVAHIK_clean_linker_0, # of connection points: 2
#     Edge 41, Type (0, 1), BuildingBlock: UVAHIK_clean_linker_0, # of connection points: 2
#     Edge 42, Type (0, 1), BuildingBlock: UVAHIK_clean_linker_0, # of connection points: 2
#     Edge 43, Type (0, 1), BuildingBlock: UVAHIK_clean_linker_0, # of connection points: 2
#     Edge 44, Type (0, 1), BuildingBlock: UVAHIK_clean_linker_0, # of connection points: 2
#     Edge 45, Type (0, 1), BuildingBlock: UVAHIK_clean_linker_0, # of connection points: 2
#     Edge 46, Type (0, 1), BuildingBlock: UVAHIK_clean_linker_0, # of connection points: 2
#     Edge 47, Type (0, 1), BuildingBlock: UVAHIK_clean_linker_0, # of connection points: 2
# Relax obj value: 0.169
# Max RMSD: 0.172
# Mean RMSD: 0.144
data_MOF--net-wbl--node1-CEKHIL_clean_sbu_0--node2-NAWXER_clean_linker_0--edge1-UVAHIK_clean_linker_0
_symmetry_space_group_name_H-M    P1
_symmetry_Int_Tables_number       1
_symmetry_cell_setting            triclinic
loop_
_symmetry_equiv_pos_as_xyz
'x, y, z'
_cell_length_a     55.450908
_cell_length_b     55.740509
_cell_length_c     97.373856
_cell_angle_alpha  90.286853
_cell_angle_beta   90.097207
_cell_angle_gamma 90.012241
loop_
_atom_site_label
_atom_site_type_symbol
_atom_site_fract_x
_atom_site_fract_y
_atom_site_fract_z
_atom_type_partial_charge
C0 C 0.09637 0.98676 0.35239 0.0
C1 C 0.10855 -0.00073 0.3629 0.0
C2 C 0.08348 -0.00079 0.34235 0.0
C3 C 0.08265 0.02439 0.34258 0.0
C4 C 0.10817 0.02451 0.36286 0.0
C5 C 0.09516 0.03692 0.35286 0.0
C6 C 0.06702 0.03761 0.33292 0.0
C7 C 0.12708 0.00644 0.30818 0.0
C8 C 0.11952 0.98783 0.29939 0.0
C9 C 0.11023 0.02161 0.31434 0.0
C10 C 0.08551 0.01841 0.31182 0.0
C11 C 0.09478 0.98485 0.29673 0.0
C12 C 0.07792 0.0002 0.30281 0.0
C13 C 0.06756 0.03399 0.31858 0.0
C14 C 0.99287 0.10667 0.29971 0.0
C15 C 0.98202 0.09312 0.28915 0.0
C16 C 0.01044 0.09646 0.30814 0.0
C17 C 0.01703 0.07228 0.30646 0.0
C18 C 0.99001 0.06947 0.28686 0.0
C19 C 0.00726 0.05916 0.29545 0.0
C20 C 0.03412 0.06049 0.31599 0.0
C21 C 0.97186 0.08026 0.34412 0.0
C22 C 0.97773 0.09846 0.35358 0.0
C23 C 0.98985 0.06964 0.33609 0.0
C24 C 0.01398 0.07692 0.33752 0.0
C25 C 0.00176 0.10623 0.35466 0.0
C26 C 0.01979 0.09533 0.34681 0.0
C27 C 0.03341 0.06381 0.33039 0.0
H28 H 0.09591 0.96734 0.35225 0.0
H29 H 0.07343 0.98912 0.33472 0.0
H30 H 0.11762 0.03471 0.37068 0.0
H31 H 0.09465 0.05635 0.35325 0.0
H32 H 0.14603 0.00904 0.31046 0.0
H33 H 0.11649 0.03581 0.32109 0.0
H34 H 0.08851 0.9708 0.28988 0.0
H35 H 0.05891 0.99757 0.30069 0.0
H36 H 0.98723 0.12491 0.30182 0.0
H37 H 0.01852 0.10741 0.31612 0.0
H38 H 0.98258 0.05871 0.27858 0.0
H39 H 0.01245 0.04065 0.29371 0.0
H40 H 0.95346 0.07393 0.34315 0.0
H41 H 0.98508 0.05517 0.32913 0.0
H42 H 0.00678 0.11999 0.36202 0.0
H43 H 0.03834 0.10098 0.34815 0.0
N44 N 0.05001 0.05242 0.33827 0.0
N45 N 0.05108 0.04551 0.31065 0.0
C46 C 0.94753 0.4769 0.60174 0.0
C47 C 0.96071 0.46177 0.6105 0.0
C48 C 0.95934 0.49384 0.59364 0.0
C49 C 0.98456 0.49592 0.59412 0.0
C50 C 0.98603 0.46367 0.61074 0.0
C51 C 0.9978 0.48074 0.60272 0.0
C52 C 0.99711 0.51458 0.58613 0.0
C53 C 0.97171 0.45991 0.55568 0.0
C54 C 0.95178 0.46783 0.54802 0.0
C55 C 0.98527 0.47611 0.56343 0.0
C56 C 0.97921 0.50053 0.56361 0.0
C57 C 0.94572 0.4923 0.54819 0.0
C58 C 0.95956 0.50861 0.55581 0.0
C59 C 0.99358 0.51754 0.57188 0.0
C60 C 0.07244 0.5855 0.55736 0.0
C61 C 0.06056 0.60387 0.55015 0.0
C62 C 0.05928 0.56816 0.56438 0.0
C63 C 0.03401 0.56864 0.56421 0.0
C64 C 0.03515 0.60391 0.54977 0.0
C65 C 0.02201 0.58627 0.55663 0.0
C66 C 0.02025 0.5509 0.57214 0.0
C67 C 0.04429 0.60628 0.60283 0.0
C68 C 0.06286 0.5983 0.6115 0.0
C69 C 0.03182 0.59005 0.59447 0.0
C70 C 0.03758 0.56552 0.59472 0.0
C71 C 0.06888 0.5738 0.61158 0.0
C72 C 0.05613 0.55749 0.60336 0.0
C73 C 0.02348 0.54824 0.58642 0.0
H74 H 0.92801 0.47627 0.60148 0.0
H75 H 0.94872 0.50574 0.58729 0.0
H76 H 0.99677 0.45209 0.61722 0.0
H77 H 0.01728 0.48207 0.60322 0.0
H78 H 0.97663 0.4411 0.5558 0.0
H79 H 0.00056 0.46959 0.56927 0.0
H80 H 0.9305 0.49881 0.54229 0.0
H81 H 0.95473 0.52744 0.5558 0.0
H82 H 0.09193 0.58452 0.55761 0.0
H83 H 0.06883 0.55437 0.57 0.0
H84 H 0.02535 0.61792 0.5445 0.0
H85 H 0.00248 0.58684 0.55639 0.0
H86 H 0.03931 0.62507 0.6026 0.0
H87 H 0.0173 0.59658 0.58804 0.0
H88 H 0.08294 0.56718 0.6183 0.0
H89 H 0.06071 0.53861 0.60375 0.0
N90 N 0.01195 0.53004 0.5929 0.0
N91 N 0.00529 0.5356 0.56536 0.0
C92 C 0.54899 0.44854 0.85192 0.0
C93 C 0.56245 0.46232 0.86133 0.0
C94 C 0.53207 0.45945 0.84333 0.0
C95 C 0.52848 0.48438 0.8439 0.0
C96 C 0.55885 0.48728 0.86182 0.0
C97 C 0.54193 0.49817 0.85325 0.0
C98 C 0.51027 0.49618 0.83513 0.0
C99 C 0.56863 0.47175 0.80681 0.0
C100 C 0.56197 0.45147 0.79906 0.0
C101 C 0.55127 0.48498 0.81387 0.0
C102 C 0.52694 0.47822 0.81328 0.0
C103 C 0.53758 0.44469 0.79846 0.0
C104 C 0.52011 0.45819 0.80541 0.0
C105 C 0.50877 0.49232 0.82083 0.0
C106 C 0.44489 0.57169 0.80231 0.0
C107 C 0.42696 0.55997 0.79453 0.0
C108 C 0.46096 0.55855 0.81036 0.0
C109 C 0.45958 0.53345 0.81066 0.0
C110 C 0.42617 0.5347 0.79461 0.0
C111 C 0.44254 0.52157 0.80248 0.0
C112 C 0.47586 0.51961 0.81957 0.0
C113 C 0.42009 0.55364 0.84701 0.0
C114 C 0.42932 0.56834 0.85758 0.0
C115 C 0.43546 0.53908 0.83923 0.0
C116 C 0.46049 0.53932 0.84161 0.0
C117 C 0.45436 0.56829 0.86001 0.0
C118 C 0.46971 0.554 0.85211 0.0
C119 C 0.47711 0.5233 0.83392 0.0
H120 H 0.551 0.42922 0.85147 0.0
H121 H 0.52146 0.44835 0.83645 0.0
H122 H 0.5691 0.49844 0.86885 0.0
H123 H 0.53943 0.51743 0.85387 0.0
H124 H 0.58734 0.47724 0.80751 0.0
H125 H 0.55683 0.50055 0.81978 0.0
H126 H 0.53204 0.42919 0.79249 0.0
H127 H 0.50136 0.45283 0.8048 0.0
H128 H 0.44647 0.59105 0.80228 0.0
H129 H 0.47438 0.56798 0.81643 0.0
H130 H 0.41244 0.52499 0.78895 0.0
H131 H 0.44134 0.50217 0.80256 0.0
H132 H 0.40095 0.55323 0.8448 0.0
H133 H 0.42765 0.52727 0.83157 0.0
H134 H 0.46214 0.57883 0.86826 0.0
H135 H 0.48887 0.55429 0.85431 0.0
N136 N 0.49442 0.51154 0.84112 0.0
N137 N 0.4916 0.50413 0.81355 0.0
C138 C 0.49787 0.92855 0.05746 0.0
C139 C 0.48013 0.93393 0.04762 0.0
C140 C 0.5091 0.94682 0.06488 0.0
C141 C 0.50274 0.97083 0.06267 0.0
C142 C 0.47403 0.95804 0.04524 0.0
C143 C 0.48547 0.97641 0.05263 0.0
C144 C 0.51444 0.98992 0.07081 0.0
C145 C 0.46386 0.95028 0.09878 0.0
C146 C 0.47516 0.93938 0.1101 0.0
C147 C 0.47636 0.96684 0.09071 0.0
C148 C 0.50055 0.97251 0.09366 0.0
C149 C 0.49919 0.94553 0.11316 0.0
C150 C 0.5117 0.96186 0.10504 0.0
C151 C 0.51437 0.98993 0.08532 0.0
C152 C 0.57346 0.07746 0.10022 0.0
C153 C 0.58776 0.06715 0.11057 0.0
C154 C 0.55875 0.06298 0.09192 0.0
C155 C 0.55815 0.03801 0.09387 0.0
C156 C 0.58687 0.0422 0.11252 0.0
C157 C 0.57216 0.02783 0.10431 0.0
C158 C 0.54265 0.02216 0.08542 0.0
C159 C 0.59937 0.05222 0.05793 0.0
C160 C 0.59008 0.06724 0.04766 0.0
C161 C 0.58404 0.03727 0.06537 0.0
C162 C 0.5591 0.03735 0.06281 0.0
C163 C 0.5652 0.0666 0.0448 0.0
C164 C 0.54988 0.05168 0.05227 0.0
C165 C 0.54266 0.02217 0.07092 0.0
H166 H 0.50275 0.91014 0.05963 0.0
H167 H 0.52267 0.94219 0.07243 0.0
H168 H 0.46053 0.96265 0.03765 0.0
H169 H 0.48054 0.9949 0.05072 0.0
H170 H 0.44538 0.94599 0.09612 0.0
H171 H 0.46704 0.97533 0.08225 0.0
H172 H 0.50831 0.93805 0.122 0.0
H173 H 0.53023 0.96611 0.10764 0.0
H174 H 0.57371 0.09665 0.09854 0.0
H175 H 0.54771 0.07127 0.08408 0.0
H176 H 0.59723 0.03376 0.12061 0.0
H177 H 0.57183 0.00865 0.10607 0.0
H178 H 0.6185 0.052 0.06021 0.0
H179 H 0.59167 0.02572 0.07317 0.0
H180 H 0.55744 0.07814 0.03704 0.0
H181 H 0.53073 0.05178 0.05004 0.0
N182 N 0.52842 0.00614 0.06414 0.0
N183 N 0.52858 0.00599 0.09203 0.0
C184 C 0.05894 0.58716 0.90126 0.0
C185 C 0.07342 0.57308 0.89256 0.0
C186 C 0.04252 0.57637 0.91017 0.0
C187 C 0.04052 0.55126 0.91071 0.0
C188 C 0.0716 0.54795 0.89323 0.0
C189 C 0.05525 0.53717 0.90219 0.0
C190 C 0.02176 0.53968 0.91922 0.0
C191 C 0.07288 0.573 0.94915 0.0
C192 C 0.06367 0.59393 0.95528 0.0
C193 C 0.05771 0.55751 0.94191 0.0
C194 C 0.03304 0.56262 0.94075 0.0
C195 C 0.03895 0.59906 0.95412 0.0
C196 C 0.02366 0.58329 0.94705 0.0
C197 C 0.01714 0.54623 0.93299 0.0
C198 C 0.94181 0.47301 0.94905 0.0
C199 C 0.92582 0.48772 0.95648 0.0
C200 C 0.96113 0.48302 0.94192 0.0
C201 C 0.96456 0.50798 0.94179 0.0
C202 C 0.93014 0.51259 0.95697 0.0
C203 C 0.94933 0.5226 0.9497 0.0
C204 C 0.98407 0.51895 0.93359 0.0
C205 C 0.93532 0.4855 0.90111 0.0
C206 C 0.94583 0.46531 0.89475 0.0
C207 C 0.94904 0.50041 0.90968 0.0
C208 C 0.97353 0.4955 0.91196 0.0
C209 C 0.97018 0.46002 0.89758 0.0
C210 C 0.98395 0.47517 0.90592 0.0
C211 C 0.98879 0.51233 0.91984 0.0
H212 H 0.05955 0.60656 0.90078 0.0
H213 H 0.0308 0.58772 0.91626 0.0
H214 H 0.08264 0.53662 0.88672 0.0
H215 H 0.0539 0.51778 0.90235 0.0
H216 H 0.09191 0.56875 0.94984 0.0
H217 H 0.06522 0.54149 0.93725 0.0
H218 H 0.03148 0.61505 0.95883 0.0
H219 H 0.00461 0.58742 0.94628 0.0
H220 H 0.93904 0.45381 0.94839 0.0
H221 H 0.97321 0.4712 0.93637 0.0
H222 H 0.91854 0.52439 0.96285 0.0
H223 H 0.95192 0.54187 0.94999 0.0
H224 H 0.91677 0.49039 0.89906 0.0
H225 H 0.94077 0.51623 0.91415 0.0
H226 H 0.97878 0.44435 0.89317 0.0
H227 H 0.00282 0.47107 0.90762 0.0
N228 N 0.00748 0.52286 0.9132 0.0
N229 N 0.9984 0.53576 0.93965 0.0
C230 C 0.43854 0.5478 0.15312 0.0
C231 C 0.449 0.56151 0.14261 0.0
C232 C 0.4528 0.53297 0.16133 0.0
C233 C 0.47787 0.53183 0.15934 0.0
C234 C 0.47413 0.56051 0.14075 0.0
C235 C 0.48838 0.54575 0.14899 0.0
C236 C 0.49297 0.51491 0.16727 0.0
C237 C 0.46653 0.56819 0.19844 0.0
C238 C 0.449 0.55866 0.20727 0.0
C239 C 0.48007 0.5531 0.18999 0.0
C240 C 0.4764 0.52823 0.1903 0.0
C241 C 0.44519 0.53377 0.20752 0.0
C242 C 0.45907 0.5186 0.19921 0.0
C243 C 0.49121 0.51227 0.18166 0.0
C244 C 0.5754 0.44865 0.19432 0.0
C245 C 0.56488 0.43109 0.20273 0.0
C246 C 0.56098 0.46506 0.1873 0.0
C247 C 0.53581 0.4643 0.18862 0.0
C248 C 0.53962 0.43078 0.20422 0.0
C249 C 0.52525 0.4474 0.19733 0.0
C250 C 0.52049 0.48113 0.1809 0.0
C251 C 0.54489 0.42669 0.14975 0.0
C252 C 0.56227 0.43567 0.14065 0.0
C253 C 0.5322 0.44224 0.15838 0.0
C254 C 0.53651 0.46704 0.15796 0.0
C255 C 0.56689 0.46046 0.14041 0.0
C256 C 0.55388 0.47607 0.1489 0.0
C257 C 0.52209 0.48354 0.16654 0.0
H258 H 0.41926 0.54822 0.15487 0.0
H259 H 0.44408 0.52189 0.16895 0.0
H260 H 0.48273 0.57049 0.13259 0.0
H261 H 0.50764 0.54496 0.14716 0.0
H262 H 0.46966 0.58736 0.19802 0.0
H263 H 0.49359 0.56083 0.18332 0.0
H264 H 0.43184 0.52608 0.21431 0.0
H265 H 0.45614 0.4994 0.19962 0.0
H266 H 0.59478 0.44977 0.19315 0.0
H267 H 0.56949 0.47836 0.18084 0.0
H268 H 0.53083 0.41731 0.21043 0.0
H269 H 0.50583 0.44662 0.19849 0.0
H270 H 0.54101 0.40765 0.15008 0.0
H271 H 0.51862 0.43496 0.16517 0.0
H272 H 0.58002 0.46781 0.13336 0.0
H273 H 0.55732 0.49518 0.14838 0.0
N274 N 0.5084 0.50043 0.16024 0.0
N275 N 0.505 0.49545 0.18796 0.0
C276 C 0.48726 0.94258 0.4045 0.0
C277 C 0.47291 0.95314 0.39427 0.0
C278 C 0.49979 0.95683 0.41394 0.0
C279 C 0.49799 0.98195 0.41345 0.0
C280 C 0.47088 0.97828 0.39391 0.0
C281 C 0.48345 0.99255 0.40336 0.0
C282 C 0.51255 0.99723 0.42277 0.0
C283 C 0.4588 0.95918 0.44847 0.0
C284 C 0.4687 0.94285 0.45787 0.0
C285 C 0.47343 0.97584 0.44188 0.0
C286 C 0.49835 0.97626 0.44437 0.0
C287 C 0.49354 0.94377 0.46072 0.0
C288 C 0.50825 0.96039 0.45401 0.0
C289 C 0.51396 0.99351 0.43711 0.0
C290 C 0.57645 0.07612 0.45552 0.0
C291 C 0.59481 0.06427 0.46284 0.0
C292 C 0.55947 0.06306 0.44796 0.0
C293 C 0.56035 0.03792 0.4477 0.0
C294 C 0.59499 0.03899 0.46291 0.0
C295 C 0.57775 0.02597 0.45553 0.0
C296 C 0.54385 0.02405 0.43884 0.0
C297 C 0.59933 0.05432 0.40981 0.0
C298 C 0.59 0.07098 0.40042 0.0
C299 C 0.58385 0.04098 0.41809 0.0
C300 C 0.55877 0.04407 0.41713 0.0
C301 C 0.56494 0.07462 0.39979 0.0
C302 C 0.54944 0.06108 0.40799 0.0
C303 C 0.5423 0.02789 0.42456 0.0
H304 H 0.48912 0.92326 0.40508 0.0
H305 H 0.51135 0.94822 0.42142 0.0
H306 H 0.46029 0.98698 0.38602 0.0
H307 H 0.48202 0.01189 0.40269 0.0
H308 H 0.43961 0.95939 0.44638 0.0
H309 H 0.46521 0.98847 0.43487 0.0
H310 H 0.50158 0.93148 0.46799 0.0
H311 H 0.52742 0.96061 0.45619 0.0
H312 H 0.57535 0.09551 0.45547 0.0
H313 H 0.54586 0.07259 0.44215 0.0
H314 H 0.609 0.02915 0.4682 0.0
H315 H 0.57868 0.00655 0.45544 0.0
H316 H 0.61857 0.05117 0.41047 0.0
H317 H 0.59144 0.02757 0.42485 0.0
H318 H 0.55726 0.08711 0.3925 0.0
H319 H 0.53013 0.06351 0.40699 0.0
N320 N 0.52667 0.0144 0.41706 0.0
N321 N 0.52971 0.00695 0.4446 0.0
C322 C 0.08926 0.97825 0.65674 0.0
C323 C 0.07859 0.96247 0.64721 0.0
C324 C 0.07513 0.99437 0.66422 0.0
C325 C 0.04998 0.99482 0.66247 0.0
C326 C 0.05339 0.9628 0.64555 0.0
C327 C 0.03925 0.97893 0.65306 0.0
C328 C 0.03502 0.01273 0.66979 0.0
C329 C 0.06221 0.96263 0.70191 0.0
C330 C 0.08134 0.97262 0.70948 0.0
C331 C 0.04769 0.97713 0.69371 0.0
C332 C 0.05194 0.00188 0.69305 0.0
C333 C 0.08551 0.99745 0.70889 0.0
C334 C 0.07066 0.01206 0.70086 0.0
C335 C 0.03698 0.01699 0.68406 0.0
C336 C 0.95408 0.08452 0.69424 0.0
C337 C 0.96489 0.10084 0.70341 0.0
C338 C 0.968 0.06726 0.68751 0.0
C339 C 0.99303 0.06623 0.68966 0.0
C340 C 0.98981 0.09922 0.70592 0.0
C341 C 0.00374 0.08199 0.69914 0.0
C342 C 0.00798 0.0483 0.68239 0.0
C343 C 0.98411 0.0984 0.64861 0.0
C344 C 0.96547 0.08854 0.6405 0.0
C345 C 0.99696 0.08411 0.65783 0.0
C346 C 0.99172 0.0596 0.65898 0.0
C347 C 0.95994 0.064 0.64203 0.0
C348 C 0.9732 0.04962 0.65101 0.0
C349 C 0.0062 0.04421 0.6681 0.0
H350 H 0.10861 0.97839 0.65829 0.0
H351 H 0.08395 0.00689 0.67113 0.0
H352 H 0.04466 0.95116 0.63812 0.0
H353 H 0.01991 0.97915 0.65144 0.0
H354 H 0.05877 0.9435 0.70213 0.0
H355 H 0.0332 0.96901 0.68784 0.0
H356 H 0.10012 0.00551 0.71469 0.0
H357 H 0.07411 0.03117 0.70047 0.0
H358 H 0.93485 0.08506 0.6923 0.0
H359 H 0.95915 0.05466 0.68067 0.0
H360 H 0.99867 0.11168 0.71285 0.0
H361 H 0.02298 0.08132 0.70107 0.0
H362 H 0.98935 0.11701 0.6476 0.0
H363 H 0.01143 0.09205 0.6638 0.0
H364 H 0.9454 0.05578 0.63627 0.0
H365 H 0.96886 0.03073 0.65182 0.0
N366 N 0.01965 0.02649 0.66234 0.0
N367 N 0.02345 0.03463 0.68984 0.0
Co368 Co 0.32293 0.68189 0.00542 0.0
O369 O 0.29531 0.66133 0.00402 0.0
O370 O 0.2951 0.70038 -0.00018 0.0
C371 C 0.33573 0.66779 0.02582 0.0
O372 O 0.34741 0.70911 0.00651 0.0
Co373 Co 0.37486 0.66093 0.00631 0.0
O374 O 0.38396 0.69402 0.01155 0.0
C375 C 0.34925 0.66438 0.97978 0.0
C376 C 0.2832 0.68032 0.00061 0.0
C377 C 0.36978 0.71172 0.00978 0.0
O378 O 0.33134 0.67505 0.98558 0.0
O379 O 0.36759 0.65644 0.98632 0.0
O380 O 0.3188 0.68388 0.02532 0.0
O381 O 0.34282 0.65946 0.01411 0.0
Co382 Co 0.35516 0.82927 0.24826 0.0
O383 O 0.33901 0.85969 0.24956 0.0
O384 O 0.32395 0.82504 0.25661 0.0
C385 C 0.36752 0.83354 0.22639 0.0
O386 O 0.36562 0.79423 0.24813 0.0
Co387 Co 0.41044 0.82595 0.24316 0.0
O388 O 0.40436 0.79113 0.24153 0.0
C389 C 0.39229 0.83951 0.27061 0.0
C390 C 0.3212 0.84802 0.25503 0.0
C391 C 0.38433 0.78174 0.24497 0.0
O392 O 0.37048 0.83498 0.26685 0.0
O393 O 0.41033 0.83854 0.26244 0.0
O394 O 0.34565 0.82648 0.22895 0.0
O395 O 0.3803 0.83962 0.23694 0.0
Co396 Co 0.19695 0.85318 0.50205 0.0
O397 O 0.16746 0.83505 0.50224 0.0
O398 O 0.20365 0.82062 0.50738 0.0
C399 C 0.19005 0.8712 0.48175 0.0
O400 O 0.23146 0.86551 0.50234 0.0
Co401 Co 0.19748 0.9088 0.50214 0.0
O402 O 0.23229 0.90511 0.49826 0.0
C403 C 0.18744 0.88274 0.52784 0.0
C404 C 0.18063 0.81692 0.50593 0.0
C405 C 0.24295 0.88511 0.50001 0.0
O406 O 0.19195 0.86259 0.52188 0.0
O407 O 0.18732 0.90286 0.52155 0.0
O408 O 0.19885 0.84959 0.48209 0.0
O409 O 0.18418 0.88035 0.49349 0.0
Co410 Co 0.17592 0.71606 0.75757 0.0
O411 O 0.15436 0.74292 0.75847 0.0
O412 O 0.19267 0.74486 0.7521 0.0
C413 C 0.1662 0.70012 0.77804 0.0
O414 O 0.20378 0.69256 0.7561 0.0
Co415 Co 0.15559 0.66398 0.757 0.0
O416 O 0.19009 0.65464 0.75789 0.0
C417 C 0.15052 0.69472 0.73282 0.0
C418 C 0.17242 0.75592 0.75443 0.0
C419 C 0.20722 0.66978 0.7568 0.0
O420 O 0.16596 0.70954 0.73791 0.0
O421 O 0.14183 0.67703 0.73951 0.0
O422 O 0.1813 0.71792 0.77742 0.0
O423 O 0.1558 0.69443 0.76662 0.0
Co424 Co 0.85753 0.20926 0.49358 0.0
O425 O 0.88036 0.23514 0.49378 0.0
O426 O 0.84218 0.23812 0.50028 0.0
C427 C 0.86652 0.19527 0.47249 0.0
O428 O 0.82854 0.18699 0.49418 0.0
Co429 Co 0.87527 0.15634 0.49201 0.0
O430 O 0.84036 0.14864 0.49118 0.0
C431 C 0.88211 0.18426 0.51732 0.0
C432 C 0.86293 0.24847 0.4984 0.0
C433 C 0.824 0.16446 0.49282 0.0
O434 O 0.86725 0.20019 0.5129 0.0
O435 O 0.88987 0.16692 0.5099 0.0
O436 O 0.85232 0.21366 0.47387 0.0
O437 O 0.87657 0.18771 0.48362 0.0
Co438 Co 0.82579 0.36178 0.74621 0.0
O439 O 0.80059 0.38506 0.74839 0.0
O440 O 0.7975 0.34659 0.75378 0.0
C441 C 0.83658 0.37239 0.72477 0.0
O442 O 0.84731 0.3323 0.74476 0.0
Co443 Co 0.87914 0.37755 0.74185 0.0
O444 O 0.88389 0.3433 0.73709 0.0
C445 C 0.8579 0.3793 0.76966 0.0
C446 C 0.7874 0.3676 0.75297 0.0
C447 C 0.86855 0.32724 0.74027 0.0
O448 O 0.8384 0.36926 0.76528 0.0
O449 O 0.87523 0.38549 0.76176 0.0
O450 O 0.81806 0.35851 0.72664 0.0
O451 O 0.84618 0.38114 0.73578 0.0
Co452 Co 0.67766 0.32476 0.99344 0.0
O453 O 0.65919 0.29579 0.9925 0.0
O454 O 0.69708 0.29814 -0.00019 0.0
C455 C 0.66727 0.33855 0.97257 0.0
O456 O 0.70256 0.35145 0.99497 0.0
Co457 Co 0.65108 0.37399 0.99278 0.0
O458 O 0.68428 0.3865 0.99019 0.0
C459 C 0.64928 0.34455 0.01763 0.0
C460 C 0.67821 0.28499 0.99716 0.0
C461 C 0.7032 0.37412 0.9925 0.0
O462 O 0.66607 0.33099 0.01282 0.0
O463 O 0.63898 0.36101 0.01064 0.0
O464 O 0.68426 0.32261 0.9737 0.0
O465 O 0.65573 0.34343 0.98372 0.0
Co466 Co 0.69867 0.18504 0.25868 0.0
O467 O 0.66997 0.20421 0.25764 0.0
O468 O 0.70631 0.21582 0.25086 0.0
C469 C 0.69255 0.17213 0.28026 0.0
O470 O 0.73259 0.17101 0.25873 0.0
Co471 Co 0.69631 0.12978 0.26273 0.0
O472 O 0.73152 0.13253 0.26549 0.0
C473 C 0.68716 0.1503 0.2353 0.0
C474 C 0.68359 0.22081 0.25247 0.0
C475 C 0.74311 0.15132 0.26211 0.0
O476 O 0.69211 0.17149 0.23977 0.0
O477 O 0.68668 0.13168 0.24293 0.0
O478 O 0.70196 0.19315 0.27816 0.0
O479 O 0.68542 0.16064 0.26945 0.0
C480 C 0.13413 0.94656 0.29332 0.0
C481 C 0.13749 0.97154 0.29309 0.0
C482 C 0.15182 0.93121 0.28805 0.0
C483 C 0.20451 0.92957 0.26504 0.0
H484 H 0.22638 0.87728 0.28805 0.0
C485 C 0.2967 0.88532 0.25734 0.0
C486 C 0.29869 0.86039 0.25895 0.0
C487 C 0.27533 0.89714 0.26069 0.0
C488 C 0.22023 0.89154 0.28139 0.0
H489 H 0.16148 0.00012 0.28679 0.0
H490 H 0.19238 0.97339 0.27762 0.0
H491 H 0.19141 0.901 0.295 0.0
H492 H 0.27988 0.82823 0.26535 0.0
H493 H 0.24235 0.84892 0.27114 0.0
H494 H 0.23342 0.92038 0.25151 0.0
C495 C 0.1761 0.96563 0.28183 0.0
C496 C 0.20021 0.90511 0.28537 0.0
C497 C 0.15854 0.98092 0.2872 0.0
C498 C 0.27889 0.84749 0.26405 0.0
C499 C 0.25743 0.85934 0.2674 0.0
C500 C 0.22442 0.91596 0.26103 0.0
C501 C 0.17304 0.94062 0.28233 0.0
C502 C 0.1925 0.92459 0.27738 0.0
C503 C 0.25541 0.88429 0.26569 0.0
C504 C 0.23285 0.89715 0.26931 0.0
H505 H 0.11811 0.93887 0.29789 0.0
H506 H 0.14896 0.91201 0.28849 0.0
H507 H 0.19868 0.94421 0.25856 0.0
H508 H 0.31167 0.89579 0.25348 0.0
H509 H 0.27454 0.91644 0.25952 0.0
C510 C 0.0666 0.63383 0.5312 0.0
C511 C 0.07459 0.62338 0.54352 0.0
C512 C 0.07902 0.65316 0.5255 0.0
C513 C 0.13708 0.68391 0.52444 0.0
H514 H 0.09949 0.74163 0.51869 0.0
C515 C 0.18163 0.77635 0.51669 0.0
C516 C 0.16976 0.79327 0.50848 0.0
C517 C 0.17065 0.75442 0.51965 0.0
C518 C 0.11026 0.72559 0.51992 0.0
H519 H 0.10222 0.62505 0.55937 0.0
H520 H 0.12424 0.65817 0.5491 0.0
H521 H 0.07939 0.70491 0.52569 0.0
H522 H 0.1377 0.80025 0.4964 0.0
H523 H 0.11898 0.76166 0.50102 0.0
H524 H 0.16794 0.70433 0.51849 0.0
C525 C 0.10835 0.65132 0.54391 0.0
C526 C 0.09869 0.70458 0.524 0.0
C527 C 0.09574 0.63227 0.54975 0.0
C528 C 0.1471 0.78762 0.50291 0.0
C529 C 0.13633 0.76554 0.50564 0.0
C530 C 0.14864 0.70482 0.52012 0.0
C531 C 0.09988 0.66214 0.53186 0.0
C532 C 0.11204 0.68368 0.52646 0.0
C533 C 0.14775 0.7488 0.51425 0.0
C534 C 0.13541 0.72605 0.518 0.0
H535 H 0.05069 0.62717 0.52597 0.0
H536 H 0.07228 0.66116 0.51613 0.0
H537 H 0.14769 0.6679 0.5262 0.0
H538 H 0.1991 0.78034 0.52115 0.0
H539 H 0.17987 0.74221 0.52649 0.0
C540 C 0.39932 0.59552 0.79254 0.0
C541 C 0.40836 0.57396 0.78699 0.0
C542 C 0.38033 0.60756 0.78616 0.0
C543 C 0.32662 0.59475 0.7674 0.0
H544 H 0.32381 0.663 0.76007 0.0
C545 C 0.23738 0.63803 0.7512 0.0
C546 C 0.23216 0.66068 0.75678 0.0
C547 C 0.26064 0.62861 0.75206 0.0
C548 C 0.32418 0.64395 0.76219 0.0
H549 H 0.40528 0.54903 0.76985 0.0
H550 H 0.37127 0.56956 0.75912 0.0
H551 H 0.36199 0.64472 0.76694 0.0
H552 H 0.24712 0.69154 0.76738 0.0
H553 H 0.28738 0.67466 0.76962 0.0
H554 H 0.28879 0.59389 0.7637 0.0
C555 C 0.37913 0.57706 0.76838 0.0
C556 C 0.3461 0.63352 0.766 0.0
C557 C 0.39844 0.56524 0.77461 0.0
C558 C 0.25073 0.67405 0.76293 0.0
C559 C 0.27388 0.66439 0.76411 0.0
C560 C 0.30464 0.60521 0.76388 0.0
C561 C 0.36971 0.5981 0.77423 0.0
C562 C 0.3474 0.60889 0.76877 0.0
C563 C 0.27908 0.64136 0.75888 0.0
C564 C 0.30301 0.63002 0.76139 0.0
H565 H 0.40614 0.60263 0.80216 0.0
H566 H 0.37312 0.62361 0.79095 0.0
H567 H 0.32714 0.57575 0.76969 0.0
H568 H 0.22341 0.62752 0.74621 0.0
H569 H 0.26403 0.61115 0.74755 0.0
C570 C 0.44251 0.91352 0.0392 0.0
C571 C 0.4678 0.91412 0.04024 0.0
C572 C 0.43086 0.8931 0.03404 0.0
C573 C 0.44109 0.82862 0.03199 0.0
H574 H 0.38601 0.82698 0.0074 0.0
C575 C 0.40487 0.73953 0.01178 0.0
C576 C 0.37977 0.73616 0.01149 0.0
C577 C 0.41464 0.76221 0.01407 0.0
C578 C 0.40123 0.82722 0.01439 0.0
H579 H 0.50076 0.8948 0.03567 0.0
H580 H 0.48048 0.85926 0.02666 0.0
H581 H 0.40498 0.86551 0.01316 0.0
H582 H 0.34519 0.75419 0.01298 0.0
H583 H 0.36239 0.79396 0.0173 0.0
H584 H 0.43731 0.79067 0.03352 0.0
C585 C 0.46963 0.87429 0.0301 0.0
C586 C 0.41209 0.84922 0.01764 0.0
C587 C 0.48123 0.89461 0.03524 0.0
C588 C 0.36462 0.7562 0.01316 0.0
C589 C 0.37446 0.77899 0.01557 0.0
C590 C 0.43022 0.80678 0.02882 0.0
C591 C 0.44433 0.87301 0.02986 0.0
C592 C 0.43232 0.85005 0.02635 0.0
C593 C 0.3996 0.78212 0.01628 0.0
C594 C 0.41036 0.80573 0.01986 0.0
H595 H 0.43173 0.9283 0.04304 0.0
H596 H 0.41133 0.89256 0.034 0.0
H597 H 0.45626 0.82876 0.03902 0.0
H598 H 0.4171 0.72458 0.0103 0.0
H599 H 0.43409 0.7641 0.0142 0.0
C600 C 0.08154 0.63462 0.95951 0.0
C601 C 0.0801 0.61017 0.96284 0.0
C602 C 0.09921 0.64918 0.96558 0.0
C603 C 0.14325 0.65172 0.99424 0.0
H604 H 0.18541 0.68278 0.96801 0.0
C605 C 0.24438 0.65818 0.00195 0.0
C606 C 0.25701 0.67886 0.99803 0.0
C607 C 0.21977 0.6561 -0.00062 0.0
C608 C 0.17355 0.67475 0.97553 0.0
H609 H 0.09482 0.58201 0.97557 0.0
H610 H 0.12548 0.60728 0.98622 0.0
H611 H 0.14611 0.66779 0.96053 0.0
H612 H 0.25375 0.71379 0.98851 0.0
H613 H 0.21041 0.70989 0.98372 0.0
H614 H 0.17122 0.65746 0.00905 0.0
C615 C 0.11308 0.61533 0.97897 0.0
C616 C 0.15104 0.66618 0.97125 0.0
C617 C 0.0957 0.60079 0.9728 0.0
C618 C 0.24443 0.69763 0.99163 0.0
C619 C 0.2197 0.69541 0.98888 0.0
C620 C 0.1657 0.66027 0.9985 0.0
C621 C 0.11538 0.63954 0.97522 0.0
C622 C 0.13617 0.65361 0.98043 0.0
C623 C 0.20718 0.67457 0.99273 0.0
C624 C 0.18151 0.67086 0.98905 0.0
H625 H 0.06971 0.64219 0.9518 0.0
H626 H 0.10058 0.66779 0.96253 0.0
H627 H 0.13194 0.6425 0.00158 0.0
H628 H 0.25354 0.64344 0.00695 0.0
H629 H 0.21073 0.63964 0.00224 0.0
C630 C 0.40974 0.57501 0.21593 0.0
C631 C 0.43507 0.57493 0.21624 0.0
C632 C 0.39685 0.59267 0.22309 0.0
C633 C 0.40337 0.64106 0.24927 0.0
H634 H 0.36317 0.67828 0.22468 0.0
C635 C 0.40425 0.74217 0.24801 0.0
C636 C 0.38307 0.75533 0.24568 0.0
C637 C 0.40376 0.71721 0.24808 0.0
C638 C 0.37375 0.66782 0.23185 0.0
H639 H 0.46677 0.59193 0.22489 0.0
H640 H 0.44447 0.62262 0.23738 0.0
H641 H 0.37486 0.63757 0.21826 0.0
H642 H 0.34459 0.75272 0.24196 0.0
H643 H 0.34391 0.70862 0.24164 0.0
H644 H 0.40374 0.67201 0.26236 0.0
C645 C 0.43443 0.60916 0.2317 0.0
C646 C 0.38044 0.64449 0.22818 0.0
C647 C 0.44724 0.59178 0.22444 0.0
C648 C 0.36119 0.74298 0.24377 0.0
C649 C 0.36078 0.71784 0.24359 0.0
C650 C 0.39673 0.66437 0.25291 0.0
C651 C 0.40914 0.61022 0.23081 0.0
C652 C 0.39642 0.63142 0.2365 0.0
C653 C 0.38214 0.70477 0.24566 0.0
C654 C 0.38297 0.6784 0.24388 0.0
H655 H 0.40001 0.56216 0.20964 0.0
H656 H 0.37738 0.59307 0.22225 0.0
H657 H 0.41532 0.63119 0.256 0.0
H658 H 0.42134 0.75116 0.24965 0.0
H659 H 0.42059 0.70764 0.24946 0.0
C660 C 0.4345 0.91375 0.45761 0.0
C661 C 0.45267 0.92573 0.46499 0.0
C662 C 0.41658 0.90107 0.46448 0.0
C663 C 0.3849 0.90551 0.49694 0.0
H664 H 0.34635 0.85505 0.48033 0.0
C665 C 0.28269 0.90612 0.49866 0.0
C666 C 0.26962 0.88458 0.49948 0.0
C667 C 0.30775 0.90583 0.49774 0.0
C668 C 0.35708 0.8688 0.48532 0.0
H669 H 0.46762 0.9321 0.48526 0.0
H670 H 0.43636 0.90961 0.49733 0.0
H671 H 0.38769 0.86134 0.47263 0.0
H672 H 0.2728 0.84578 0.50028 0.0
H673 H 0.31679 0.84535 0.49856 0.0
H674 H 0.35408 0.91346 0.50932 0.0
C675 C 0.43578 0.91037 0.48622 0.0
C676 C 0.3807 0.87255 0.48082 0.0
C677 C 0.45376 0.9231 0.47932 0.0
C678 C 0.28231 0.86271 0.49963 0.0
C679 C 0.30748 0.86243 0.49863 0.0
C680 C 0.36137 0.9017 0.50147 0.0
C681 C 0.41646 0.90005 0.47891 0.0
C682 C 0.39442 0.89173 0.4861 0.0
C683 C 0.32043 0.88401 0.49759 0.0
C684 C 0.34682 0.88413 0.49521 0.0
H685 H 0.43349 0.91514 0.44653 0.0
H686 H 0.40192 0.89355 0.45849 0.0
H687 H 0.39487 0.92049 0.50123 0.0
H688 H 0.27357 0.9233 0.49856 0.0
H689 H 0.31713 0.92276 0.49668 0.0
C690 C 0.12206 0.95664 0.71579 0.0
C691 C 0.09698 0.95683 0.71775 0.0
C692 C 0.13636 0.93938 0.72229 0.0
C693 C 0.13624 0.89389 0.7499 0.0
H694 H 0.1731 0.85504 0.72431 0.0
C695 C 0.14823 0.79335 0.7566 0.0
C696 C 0.16972 0.78205 0.75257 0.0
C697 C 0.14493 0.81782 0.75447 0.0
C698 C 0.16342 0.86596 0.7317 0.0
H699 H 0.06727 0.94033 0.72858 0.0
H700 H 0.09212 0.91037 0.74001 0.0
H701 H 0.15735 0.8938 0.71703 0.0
H702 H 0.20491 0.78763 0.74345 0.0
H703 H 0.19903 0.83066 0.7396 0.0
H704 H 0.14139 0.86561 0.76438 0.0
C705 C 0.10084 0.92344 0.73349 0.0
C706 C 0.1544 0.88818 0.72752 0.0
C707 C 0.08658 0.94043 0.72687 0.0
C708 C 0.18812 0.79587 0.74662 0.0
C709 C 0.18475 0.82045 0.7444 0.0
C710 C 0.14532 0.87175 0.75409 0.0
C711 C 0.12578 0.92235 0.73101 0.0
C712 C 0.13986 0.90186 0.7364 0.0
C713 C 0.16302 0.83163 0.74823 0.0
C714 C 0.15809 0.85709 0.74483 0.0
H715 H 0.13043 0.9691 0.70874 0.0
H716 H 0.15554 0.93894 0.72023 0.0
H717 H 0.12542 0.90428 0.75702 0.0
H718 H 0.13372 0.78323 0.76125 0.0
H719 H 0.12781 0.82575 0.75731 0.0
C720 C 0.59753 0.44984 0.78349 0.0
C721 C 0.58067 0.43771 0.79164 0.0
C722 C 0.61659 0.43744 0.77744 0.0
C723 C 0.6549 0.3856 0.78292 0.0
H724 H 0.67929 0.40256 0.74695 0.0
C725 C 0.74771 0.35305 0.76214 0.0
C726 C 0.76184 0.37153 0.75656 0.0
C727 C 0.72336 0.35702 0.76521 0.0
C728 C 0.67268 0.39761 0.75701 0.0
H729 H 0.56998 0.40307 0.79956 0.0
H730 H 0.60369 0.38122 0.78901 0.0
H731 H 0.63955 0.41659 0.75408 0.0
H732 H 0.76159 0.40858 0.74982 0.0
H733 H 0.71942 0.41547 0.7552 0.0
H734 H 0.6885 0.36742 0.78604 0.0
C735 C 0.60205 0.40034 0.78732 0.0
C736 C 0.64994 0.40559 0.76107 0.0
C737 C 0.58274 0.41277 0.79327 0.0
C738 C 0.75121 0.39396 0.7541 0.0
C739 C 0.72696 0.39785 0.75706 0.0
C740 C 0.67771 0.3776 0.77885 0.0
C741 C 0.61931 0.41264 0.77948 0.0
C742 C 0.64118 0.40039 0.77425 0.0
C743 C 0.71273 0.37944 0.7626 0.0
C744 C 0.68715 0.38428 0.76604 0.0
H745 H 0.59621 0.46905 0.78201 0.0
H746 H 0.62975 0.44748 0.77161 0.0
H747 H 0.64866 0.38143 0.79317 0.0
H748 H 0.75543 0.33556 0.76413 0.0
H749 H 0.71279 0.34251 0.76947 0.0
C750 C 0.60295 0.08843 0.02624 0.0
C751 C 0.60598 0.08434 0.04036 0.0
C752 C 0.61588 0.10656 0.01971 0.0
C753 C 0.6668 0.14927 0.02309 0.0
H754 H 0.6241 0.1914 0.00292 0.0
C755 C 0.68854 0.24881 0.01108 0.0
C756 C 0.67768 0.25897 -0.00053 0.0
C757 C 0.68407 0.22478 0.0144 0.0
C758 C 0.63655 0.17966 0.0082 0.0
H759 H 0.62586 0.09527 0.05856 0.0
H760 H 0.64844 0.12696 0.04713 0.0
H761 H 0.60888 0.15376 0.01155 0.0
H762 H 0.65575 0.25184 0.9815 0.0
H763 H 0.64905 0.20979 0.98679 0.0
H764 H 0.69444 0.17556 0.01986 0.0
C765 C 0.63621 0.11599 0.04109 0.0
C766 C 0.62773 0.15802 0.01319 0.0
C767 C 0.62324 0.09786 0.04764 0.0
C768 C 0.66398 0.24443 0.99064 0.0
C769 C 0.66001 0.2204 0.99375 0.0
C770 C 0.67576 0.17095 0.01796 0.0
C771 C 0.63213 0.12097 0.02716 0.0
C772 C 0.64263 0.14271 0.02083 0.0
C773 C 0.66904 0.21054 0.00599 0.0
C774 C 0.66062 0.18653 0.01057 0.0
H775 H 0.59016 0.07796 0.02029 0.0
H776 H 0.61267 0.10976 0.00889 0.0
H777 H 0.67871 0.13772 0.0289 0.0
H778 H 0.69914 0.25979 0.01804 0.0
H779 H 0.69125 0.21786 0.02393 0.0
C780 C 0.94168 0.08787 0.27795 0.0
C781 C 0.96119 0.1029 0.28132 0.0
C782 C 0.92097 0.0972 0.27188 0.0
C783 C 0.88529 0.15134 0.27142 0.0
H784 H 0.84763 0.11497 0.24496 0.0
C785 C 0.78405 0.17057 0.2603 0.0
C786 C 0.76973 0.14984 0.26148 0.0
C787 C 0.80923 0.16873 0.25967 0.0
C788 C 0.85801 0.12544 0.25228 0.0
H789 H 0.97454 0.13949 0.2803 0.0
H790 H 0.93781 0.15591 0.27004 0.0
H791 H 0.88985 0.10461 0.24882 0.0
H792 H 0.77063 0.11095 0.26267 0.0
H793 H 0.81417 0.10783 0.26161 0.0
H794 H 0.85302 0.17133 0.27539 0.0
C795 C 0.93877 0.13686 0.27211 0.0
C796 C 0.88214 0.11953 0.25447 0.0
C797 C 0.95971 0.12745 0.27806 0.0
C798 C 0.78105 0.12731 0.26183 0.0
C799 C 0.80604 0.12548 0.26106 0.0
C800 C 0.8611 0.15726 0.26922 0.0
C801 C 0.91909 0.12183 0.26915 0.0
C802 C 0.89569 0.13172 0.2645 0.0
C803 C 0.82041 0.14612 0.26 0.0
C804 C 0.84698 0.14363 0.26008 0.0
H805 H 0.94185 0.06902 0.28056 0.0
H806 H 0.90591 0.08524 0.26998 0.0
H807 H 0.89529 0.16097 0.27927 0.0
H808 H 0.77587 0.1882 0.25999 0.0
H809 H 0.81993 0.18492 0.25889 0.0
C810 C 0.91232 0.44907 0.54139 0.0
C811 C 0.93749 0.45035 0.53995 0.0
C812 C 0.89928 0.43083 0.5348 0.0
C813 C 0.90322 0.38494 0.5073 0.0
H814 H 0.8638 0.34604 0.53138 0.0
C815 C 0.88907 0.28481 0.49824 0.0
C816 C 0.86678 0.2742 0.50133 0.0
C817 C 0.89324 0.30894 0.5012 0.0
C818 C 0.87428 0.35695 0.52441 0.0
H819 H 0.96864 0.43459 0.53 0.0
H820 H 0.94598 0.40288 0.51848 0.0
H821 H 0.87897 0.38471 0.53946 0.0
H822 H 0.83118 0.28065 0.50975 0.0
H823 H 0.83854 0.32304 0.51502 0.0
H824 H 0.89927 0.35685 0.49242 0.0
C825 C 0.93624 0.41586 0.52466 0.0
C826 C 0.88296 0.37911 0.52904 0.0
C827 C 0.94926 0.43385 0.53135 0.0
C828 C 0.84857 0.28834 0.50729 0.0
C829 C 0.85279 0.31256 0.51033 0.0
C830 C 0.89449 0.36286 0.50266 0.0
C831 C 0.9112 0.41386 0.52652 0.0
C832 C 0.89824 0.39289 0.5207 0.0
C833 C 0.87523 0.32307 0.50736 0.0
C834 C 0.88069 0.34822 0.51135 0.0
H835 H 0.90288 0.46157 0.54802 0.0
H836 H 0.87998 0.42973 0.53637 0.0
H837 H 0.91461 0.39542 0.50057 0.0
H838 H 0.90348 0.27442 0.49363 0.0
H839 H 0.91088 0.31634 0.49902 0.0
C840 C 0.62581 0.06946 0.48156 0.0
C841 C 0.61464 0.07803 0.46955 0.0
C842 C 0.64644 0.08064 0.48678 0.0
C843 C 0.68264 0.13527 0.48715 0.0
H844 H 0.73784 0.09264 0.48706 0.0
C845 C 0.78041 0.17081 0.48743 0.0
C846 C 0.79869 0.15645 0.49303 0.0
C847 C 0.75672 0.16232 0.48668 0.0
C848 C 0.72266 0.10481 0.48752 0.0
H849 H 0.616 0.10595 0.45405 0.0
H850 H 0.6514 0.12588 0.46353 0.0
H851 H 0.69788 0.07651 0.48276 0.0
H852 H 0.80646 0.12268 0.503 0.0
H853 H 0.76504 0.10836 0.50243 0.0
H854 H 0.70722 0.16358 0.49212 0.0
C855 C 0.64415 0.11039 0.4688 0.0
C856 C 0.69974 0.0955 0.48497 0.0
C857 C 0.62379 0.09897 0.46341 0.0
C858 C 0.79273 0.13394 0.49842 0.0
C859 C 0.76898 0.1257 0.498 0.0
C860 C 0.70554 0.14457 0.49001 0.0
C861 C 0.65601 0.10092 0.48028 0.0
C862 C 0.67962 0.11069 0.48453 0.0
C863 C 0.75072 0.13949 0.4918 0.0
C864 C 0.72596 0.12951 0.48998 0.0
H865 H 0.61897 0.05376 0.48677 0.0
H866 H 0.65526 0.07315 0.49572 0.0
H867 H 0.66729 0.14729 0.48689 0.0
H868 H 0.78459 0.18822 0.48315 0.0
H869 H 0.74336 0.17336 0.48163 0.0
C870 C 0.93386 0.13331 0.70201 0.0
C871 C 0.95043 0.12016 0.70989 0.0
C872 C 0.92172 0.15287 0.70772 0.0
C873 C 0.92956 0.19807 0.73471 0.0
H874 H 0.86523 0.21715 0.7235 0.0
C875 C 0.85946 0.28308 0.74161 0.0
C876 C 0.87583 0.30178 0.73893 0.0
C877 C 0.86659 0.25912 0.74018 0.0
C878 C 0.88306 0.21192 0.72691 0.0
H879 H 0.96627 0.1163 0.73012 0.0
H880 H 0.94495 0.15048 0.74015 0.0
H881 H 0.88012 0.17723 0.7175 0.0
H882 H 0.91256 0.30983 0.73272 0.0
H883 H 0.92475 0.26831 0.73013 0.0
H884 H 0.93264 0.23278 0.74398 0.0
C885 C 0.94168 0.14591 0.72948 0.0
C886 C 0.89168 0.18916 0.72336 0.0
C887 C 0.9539 0.12638 0.72375 0.0
C888 C 0.89945 0.29596 0.7349 0.0
C889 C 0.90655 0.2721 0.73352 0.0
C890 C 0.92094 0.22075 0.73827 0.0
C891 C 0.92583 0.15967 0.72145 0.0
C892 C 0.91527 0.18225 0.72689 0.0
C893 C 0.89023 0.25341 0.73613 0.0
C894 C 0.89789 0.22818 0.73406 0.0
H895 H 0.93103 0.12912 0.69125 0.0
H896 H 0.90996 0.1633 0.70117 0.0
H897 H 0.94787 0.19341 0.73752 0.0
H898 H 0.84113 0.28693 0.74474 0.0
H899 H 0.85365 0.24506 0.7423 0.0
C900 C 0.90467 0.45447 0.96911 0.0
C901 C 0.90399 0.47729 0.96299 0.0
C902 C 0.88355 0.44381 0.974 0.0
C903 C 0.81778 0.44654 0.96871 0.0
H904 H 0.81488 0.40688 0.00129 0.0
C905 C 0.72795 0.41101 0.98872 0.0
C906 C 0.72688 0.38637 0.99169 0.0
C907 C 0.75006 0.42231 0.98668 0.0
C908 C 0.81553 0.41781 0.99213 0.0
H909 H 0.88058 0.50705 0.95766 0.0
H910 H 0.84413 0.48894 0.96665 0.0
H911 H 0.85275 0.42678 0.9952 0.0
H912 H 0.74843 0.35454 0.99545 0.0
H913 H 0.78719 0.37444 0.99183 0.0
H914 H 0.78069 0.4377 0.96562 0.0
C915 C 0.86086 0.47902 0.96738 0.0
C916 C 0.83717 0.42917 0.98863 0.0
C917 C 0.88189 0.48957 0.96241 0.0
C918 C 0.74858 0.37352 0.99313 0.0
C919 C 0.77078 0.38491 0.99112 0.0
C920 C 0.79622 0.43536 0.97224 0.0
C921 C 0.86133 0.45579 0.97294 0.0
C922 C 0.83848 0.44376 0.9769 0.0
C923 C 0.77167 0.4093 0.98758 0.0
C924 C 0.79481 0.42097 0.98401 0.0
H925 H 0.92145 0.44466 0.96993 0.0
H926 H 0.88454 0.42587 0.97817 0.0
H927 H 0.81829 0.4571 0.95941 0.0
H928 H 0.71167 0.42157 0.98765 0.0
H929 H 0.75024 0.44123 0.98419 0.0
C930 C 0.60015 0.40276 0.20273 0.0
C931 C 0.58003 0.4126 0.20952 0.0
C932 C 0.61332 0.38414 0.20866 0.0
C933 C 0.60471 0.33331 0.2307 0.0
H934 H 0.67444 0.33109 0.23355 0.0
C935 C 0.65175 0.25204 0.25455 0.0
C936 C 0.67351 0.24431 0.2487 0.0
C937 C 0.6417 0.274 0.25084 0.0
C938 C 0.65497 0.33128 0.23266 0.0
H939 H 0.55888 0.41135 0.22826 0.0
H940 H 0.58139 0.37818 0.23833 0.0
H941 H 0.65474 0.36737 0.22507 0.0
H942 H 0.70204 0.25343 0.23449 0.0
H943 H 0.68395 0.29135 0.22745 0.0
H944 H 0.60465 0.29708 0.23758 0.0
C945 C 0.58684 0.38499 0.22841 0.0
C946 C 0.64375 0.35211 0.2279 0.0
C947 C 0.57389 0.40384 0.22258 0.0
C948 C 0.68524 0.25905 0.23917 0.0
C949 C 0.67494 0.28085 0.23523 0.0
C950 C 0.61589 0.31239 0.23522 0.0
C951 C 0.60643 0.37477 0.22141 0.0
C952 C 0.61852 0.35326 0.22691 0.0
C953 C 0.65291 0.28852 0.24094 0.0
C954 C 0.64117 0.31108 0.2363 0.0
H955 H 0.60523 0.40879 0.19258 0.0
H956 H 0.62824 0.37636 0.20302 0.0
H957 H 0.58524 0.33365 0.22979 0.0
H958 H 0.64251 0.24116 0.26209 0.0
H959 H 0.62509 0.27953 0.25575 0.0
C960 C 0.13257 0.96445 0.3721 0.0
C961 C 0.12004 0.98606 0.37441 0.0
C962 C 0.1419 0.95137 0.38313 0.0
C963 C 0.13287 0.9434 0.42034 0.0
H964 H 0.19577 0.91298 0.41967 0.0
C965 C 0.1758 0.90744 0.46933 0.0
C966 C 0.18562 0.88424 0.46884 0.0
C967 C 0.16941 0.91923 0.45728 0.0
C968 C 0.17808 0.9212 0.41993 0.0
H969 H 0.10774 0.01088 0.39015 0.0
H970 H 0.12456 0.98856 0.40923 0.0
H971 H 0.18149 0.93491 0.39948 0.0
H972 H 0.19742 0.85555 0.45532 0.0
H973 H 0.18616 0.87631 0.43411 0.0
H974 H 0.12944 0.92999 0.44075 0.0
C975 C 0.12688 0.9815 0.39893 0.0
C976 C 0.1699 0.93372 0.40838 0.0
C977 C 0.11754 0.9945 0.38795 0.0
C978 C 0.18983 0.87341 0.456 0.0
C979 C 0.18346 0.8853 0.44388 0.0
C980 C 0.14105 0.93103 0.43184 0.0
C981 C 0.13883 0.9596 0.39669 0.0
C982 C 0.14733 0.94526 0.40856 0.0
C983 C 0.1727 0.90812 0.44444 0.0
C984 C 0.16386 0.9201 0.43184 0.0
H985 H 0.13502 0.95757 0.36178 0.0
H986 H 0.15094 0.93452 0.38107 0.0
H987 H 0.11513 0.95151 0.42069 0.0
H988 H 0.17253 0.91637 0.47906 0.0
H989 H 0.16159 0.93699 0.45802 0.0
C990 C 0.06094 0.62995 0.62967 0.0
C991 C 0.07486 0.61523 0.62107 0.0
C992 C 0.07197 0.64471 0.63945 0.0
C993 C 0.12919 0.6504 0.65896 0.0
H994 H 0.09715 0.70719 0.67313 0.0
C995 C 0.16153 0.69891 0.7081 0.0
C996 C 0.14374 0.69652 0.71825 0.0
C997 C 0.15565 0.69529 0.69424 0.0
C998 C 0.10647 0.69156 0.66913 0.0
H999 H 0.11121 0.60509 0.61545 0.0
H1000 H 0.1307 0.63158 0.63218 0.0
H1001 H 0.0828 0.68864 0.65186 0.0
H1002 H 0.10577 0.69034 0.72198 0.0
H1003 H 0.09533 0.68502 0.69777 0.0
H1004 H 0.15274 0.65343 0.67634 0.0
C1005 C 0.1112 0.63124 0.63172 0.0
C1006 C 0.09812 0.68073 0.65705 0.0
C1007 C 0.10009 0.61613 0.62208 0.0
C1008 C 0.11975 0.69231 0.71431 0.0
C1009 C 0.11379 0.68936 0.70048 0.0
C1010 C 0.13782 0.66155 0.67087 0.0
C1011 C 0.09727 0.64541 0.64073 0.0
C1012 C 0.10874 0.65941 0.6521 0.0
C1013 C 0.13181 0.68994 0.69038 0.0
C1014 C 0.126 0.6817 0.67631 0.0
H1015 H 0.04142 0.62937 0.6292 0.0
H1016 H 0.06051 0.65482 0.64636 0.0
H1017 H 0.13775 0.63391 0.65565 0.0
H1018 H 0.18019 0.70191 0.71093 0.0
H1019 H 0.16984 0.69574 0.68661 0.0
C1020 C 0.39043 0.57382 0.8706 0.0
C1021 C 0.41301 0.58281 0.86651 0.0
C1022 C 0.37635 0.58629 0.88017 0.0
C1023 C 0.37271 0.64431 0.89993 0.0
H1024 H 0.34513 0.60363 0.92803 0.0
C1025 C 0.37052 0.66521 0.95742 0.0
C1026 C 0.34919 0.66117 0.96478 0.0
C1027 C 0.3718 0.65966 0.94347 0.0
C1028 C 0.35225 0.61526 0.92012 0.0
H1029 H 0.43755 0.61294 0.86861 0.0
H1030 H 0.41394 0.6338 0.88578 0.0
H1031 H 0.3597 0.58572 0.90679 0.0
H1032 H 0.31222 0.64885 0.96339 0.0
H1033 H 0.31483 0.63797 0.93888 0.0
H1034 H 0.3671 0.67353 0.914 0.0
C1035 C 0.40669 0.61739 0.88145 0.0
C1036 C 0.36059 0.60503 0.90789 0.0
C1037 C 0.42056 0.60514 0.87174 0.0
C1038 C 0.32882 0.65221 0.95786 0.0
C1039 C 0.3303 0.64599 0.94392 0.0
C1040 C 0.3648 0.65444 0.91229 0.0
C1041 C 0.38463 0.60789 0.88605 0.0
C1042 C 0.37173 0.61931 0.89782 0.0
C1043 C 0.35194 0.64941 0.93669 0.0
C1044 C 0.35518 0.63987 0.92263 0.0
H1045 H 0.38399 0.55665 0.86686 0.0
H1046 H 0.35926 0.5786 0.88323 0.0
H1047 H 0.38051 0.65601 0.89229 0.0
H1048 H 0.38643 0.67218 0.96254 0.0
H1049 H 0.38875 0.66219 0.93815 0.0
C1050 C 0.47402 0.90271 0.12496 0.0
C1051 C 0.46192 0.92234 0.11907 0.0
C1052 C 0.46268 0.88849 0.13476 0.0
C1053 C 0.40535 0.86999 0.14981 0.0
H1054 H 0.44069 0.87065 0.18419 0.0
C1055 C 0.36182 0.84448 0.20179 0.0
C1056 C 0.37686 0.83635 0.21237 0.0
C1057 C 0.37163 0.85099 0.1891 0.0
C1058 C 0.43073 0.86961 0.17463 0.0
H1059 H 0.42779 0.9414 0.11835 0.0
H1060 H 0.40782 0.91602 0.13527 0.0
H1061 H 0.45846 0.88855 0.16398 0.0
H1062 H 0.41339 0.82654 0.21779 0.0
H1063 H 0.43033 0.83623 0.19548 0.0
H1064 H 0.37771 0.85071 0.16039 0.0
C1065 C 0.42616 0.91188 0.13228 0.0
C1066 C 0.44093 0.88009 0.16306 0.0
C1067 C 0.43763 0.92637 0.12258 0.0
C1068 C 0.4015 0.83314 0.20982 0.0
C1069 C 0.4112 0.83895 0.19706 0.0
C1070 C 0.39527 0.85901 0.16137 0.0
C1071 C 0.43886 0.89329 0.13874 0.0
C1072 C 0.42827 0.88061 0.15059 0.0
C1073 C 0.39661 0.84893 0.1867 0.0
C1074 C 0.40775 0.8589 0.174 0.0
H1075 H 0.49251 0.89866 0.12223 0.0
H1076 H 0.47273 0.87405 0.13951 0.0
H1077 H 0.3953 0.87015 0.14026 0.0
H1078 H 0.34273 0.84719 0.20358 0.0
H1079 H 0.35977 0.85875 0.18149 0.0
C1080 C 0.08935 0.5759 0.86859 0.0
C1081 C 0.08905 0.58463 0.88214 0.0
C1082 C 0.10242 0.58778 0.85845 0.0
C1083 C 0.12669 0.64746 0.8502 0.0
H1084 H 0.15585 0.61279 0.81985 0.0
C1085 C 0.1703 0.69502 0.80351 0.0
C1086 C 0.16188 0.68651 0.79077 0.0
C1087 C 0.16533 0.68236 0.81556 0.0
C1088 C 0.14782 0.6227 0.82828 0.0
H1089 H 0.103 0.61215 0.89581 0.0
H1090 H 0.12609 0.63284 0.87809 0.0
H1091 H 0.14068 0.59071 0.83961 0.0
H1092 H 0.14215 0.65789 0.78059 0.0
H1093 H 0.13373 0.63576 0.80152 0.0
H1094 H 0.13361 0.67942 0.83872 0.0
C1095 C 0.11585 0.61701 0.87527 0.0
C1096 C 0.13905 0.61008 0.83957 0.0
C1097 C 0.10267 0.60516 0.88542 0.0
C1098 C 0.14887 0.66492 0.79025 0.0
C1099 C 0.14419 0.65214 0.80223 0.0
C1100 C 0.13565 0.6601 0.83894 0.0
C1101 C 0.11561 0.60864 0.86161 0.0
C1102 C 0.12778 0.62225 0.8505 0.0
C1103 C 0.15218 0.66081 0.81502 0.0
C1104 C 0.14571 0.64778 0.82772 0.0
H1105 H 0.07872 0.56037 0.86567 0.0
H1106 H 0.1014 0.58106 0.84801 0.0
H1107 H 0.11791 0.65741 0.85835 0.0
H1108 H 0.18038 0.71163 0.8042 0.0
H1109 H 0.17176 0.68938 0.82529 0.0
C1110 C 0.41204 0.56561 0.12794 0.0
C1111 C 0.43368 0.57544 0.13299 0.0
C1112 C 0.39886 0.57743 0.1178 0.0
C1113 C 0.39154 0.63518 0.09947 0.0
H1114 H 0.37167 0.59386 0.06935 0.0
C1115 C 0.36403 0.64141 0.03868 0.0
C1116 C 0.34626 0.65934 0.03886 0.0
C1117 C 0.37333 0.63241 0.05092 0.0
C1118 C 0.37715 0.60565 0.07766 0.0
H1119 H 0.45768 0.60611 0.13188 0.0
H1120 H 0.43492 0.62649 0.11392 0.0
H1121 H 0.38965 0.57631 0.08974 0.0
H1122 H 0.32468 0.68236 0.05199 0.0
H1123 H 0.34103 0.66652 0.0735 0.0
H1124 H 0.37957 0.66461 0.08708 0.0
C1125 C 0.42807 0.60971 0.11789 0.0
C1126 C 0.38718 0.59557 0.08943 0.0
C1127 C 0.44126 0.59789 0.12807 0.0
C1128 C 0.33834 0.6685 0.05155 0.0
C1129 C 0.34775 0.65952 0.06384 0.0
C1130 C 0.38138 0.64529 0.08766 0.0
C1131 C 0.40703 0.59931 0.11242 0.0
C1132 C 0.39474 0.61021 0.10041 0.0
C1133 C 0.36511 0.64114 0.06364 0.0
C1134 C 0.37445 0.63062 0.07656 0.0
H1135 H 0.40575 0.54828 0.13141 0.0
H1136 H 0.38253 0.56912 0.11393 0.0
H1137 H 0.39703 0.6469 0.10781 0.0
H1138 H 0.3706 0.63408 0.02907 0.0
H1139 H 0.38701 0.61856 0.05043 0.0
C1140 C 0.43816 0.94303 0.37861 0.0
C1141 C 0.4616 0.93815 0.38339 0.0
C1142 C 0.42849 0.93008 0.36754 0.0
C1143 C 0.44869 0.89809 0.33695 0.0
H1144 H 0.38368 0.87262 0.33493 0.0
C1145 C 0.41994 0.84215 0.2907 0.0
C1146 C 0.39717 0.84668 0.28497 0.0
C1147 C 0.42595 0.85114 0.30363 0.0
C1148 C 0.4018 0.87984 0.3353 0.0
H1149 H 0.49303 0.91553 0.38049 0.0
H1150 H 0.47614 0.89293 0.3613 0.0
H1151 H 0.39749 0.89268 0.35599 0.0
H1152 H 0.36236 0.86322 0.28852 0.0
H1153 H 0.37313 0.87969 0.31108 0.0
H1154 H 0.45307 0.88606 0.3163 0.0
C1155 C 0.46527 0.9068 0.36607 0.0
C1156 C 0.40969 0.89125 0.34735 0.0
C1157 C 0.47485 0.9196 0.37715 0.0
C1158 C 0.38006 0.85947 0.29271 0.0
C1159 C 0.38622 0.86883 0.30564 0.0
C1160 C 0.4408 0.88693 0.32493 0.0
C1161 C 0.44219 0.9122 0.36098 0.0
C1162 C 0.43332 0.90026 0.34831 0.0
C1163 C 0.4095 0.86529 0.31107 0.0
C1164 C 0.41736 0.8774 0.32397 0.0
H1165 H 0.42744 0.95708 0.3833 0.0
H1166 H 0.41068 0.93466 0.36379 0.0
H1167 H 0.46681 0.90536 0.33727 0.0
H1168 H 0.43335 0.83196 0.28508 0.0
H1169 H 0.44376 0.8474 0.30767 0.0
C1170 C 0.08687 0.92335 0.63509 0.0
C1171 C 0.09381 0.94698 0.63831 0.0
C1172 C 0.10026 0.90965 0.62574 0.0
C1173 C 0.15856 0.90837 0.6066 0.0
H1174 H 0.12046 0.87783 0.57802 0.0
C1175 C 0.18667 0.90368 0.55047 0.0
C1176 C 0.18178 0.88302 0.54264 0.0
C1177 C 0.17942 0.90518 0.56413 0.0
C1178 C 0.13142 0.88575 0.58607 0.0
H1179 H 0.12044 0.97461 0.6344 0.0
H1180 H 0.14353 0.95099 0.6181 0.0
H1181 H 0.10074 0.89227 0.59881 0.0
H1182 H 0.16624 0.84733 0.5431 0.0
H1183 H 0.15286 0.85027 0.56708 0.0
H1184 H 0.18896 0.90324 0.59336 0.0
C1185 C 0.12812 0.94272 0.62299 0.0
C1186 C 0.12013 0.89403 0.598 0.0
C1187 C 0.11481 0.95634 0.63233 0.0
C1188 C 0.17025 0.86347 0.54891 0.0
C1189 C 0.16256 0.86516 0.56258 0.0
C1190 C 0.16978 0.90027 0.59462 0.0
C1191 C 0.12082 0.91935 0.6194 0.0
C1192 C 0.13343 0.9063 0.60816 0.0
C1193 C 0.16682 0.88619 0.57024 0.0
C1194 C 0.15616 0.88971 0.58403 0.0
H1195 H 0.07093 0.91554 0.63968 0.0
H1196 H 0.0943 0.89161 0.62332 0.0
H1197 H 0.16941 0.9172 0.61437 0.0
H1198 H 0.1957 0.91895 0.54594 0.0
H1199 H 0.18269 0.92172 0.56973 0.0
C1200 C 0.59423 0.43157 0.86683 0.0
C1201 C 0.5793 0.4506 0.87107 0.0
C1202 C 0.60924 0.41997 0.87626 0.0
C1203 C 0.63565 0.42666 0.91116 0.0
H1204 H 0.63425 0.3571 0.9116 0.0
C1205 C 0.64786 0.37214 0.95999 0.0
C1206 C 0.66246 0.35158 0.95971 0.0
C1207 C 0.64285 0.38456 0.94795 0.0
C1208 C 0.63522 0.3765 0.91145 0.0
H1209 H 0.56833 0.47224 0.88855 0.0
H1210 H 0.5943 0.45209 0.90492 0.0
H1211 H 0.6159 0.37861 0.89244 0.0
H1212 H 0.68332 0.32783 0.94663 0.0
H1213 H 0.67393 0.34941 0.92534 0.0
H1214 H 0.65385 0.42453 0.93052 0.0
C1215 C 0.59489 0.44642 0.89427 0.0
C1216 C 0.62473 0.38884 0.90048 0.0
C1217 C 0.57994 0.45797 0.88488 0.0
C1218 C 0.67203 0.34367 0.94712 0.0
C1219 C 0.66666 0.35594 0.93497 0.0
C1220 C 0.64595 0.41435 0.92214 0.0
C1221 C 0.60962 0.4272 0.89011 0.0
C1222 C 0.62413 0.41408 0.90046 0.0
C1223 C 0.65204 0.37653 0.93532 0.0
C1224 C 0.64514 0.3892 0.92259 0.0
H1225 H 0.59433 0.42567 0.85621 0.0
H1226 H 0.62052 0.40534 0.87272 0.0
H1227 H 0.636 0.44609 0.91129 0.0
H1228 H 0.64019 0.37868 0.96951 0.0
H1229 H 0.63121 0.40015 0.94847 0.0
C1230 C 0.62593 0.07412 0.12369 0.0
C1231 C 0.60286 0.0821 0.11984 0.0
C1232 C 0.63848 0.0855 0.13428 0.0
C1233 C 0.64305 0.13828 0.15682 0.0
H1234 H 0.65771 0.09099 0.18467 0.0
C1235 C 0.66721 0.16281 0.21337 0.0
C1236 C 0.68204 0.14682 0.22059 0.0
C1237 C 0.66014 0.15755 0.19987 0.0
C1238 C 0.65435 0.10449 0.17695 0.0
H1239 H 0.57573 0.10948 0.12329 0.0
H1240 H 0.59792 0.12957 0.14184 0.0
H1241 H 0.64171 0.07806 0.16273 0.0
H1242 H 0.70286 0.11407 0.21916 0.0
H1243 H 0.69184 0.10557 0.19549 0.0
H1244 H 0.65596 0.16477 0.17109 0.0
C1245 C 0.60616 0.11446 0.13663 0.0
C1246 C 0.64502 0.09702 0.16436 0.0
C1247 C 0.59349 0.10295 0.12603 0.0
C1248 C 0.69099 0.12642 0.21387 0.0
C1249 C 0.6845 0.12149 0.20033 0.0
C1250 C 0.65282 0.14581 0.16941 0.0
C1251 C 0.62831 0.1052 0.14119 0.0
C1252 C 0.63925 0.11377 0.15419 0.0
C1253 C 0.66824 0.13645 0.1933 0.0
C1254 C 0.65858 0.12896 0.17965 0.0
H1255 H 0.63384 0.05842 0.11889 0.0
H1256 H 0.65571 0.07826 0.13749 0.0
H1257 H 0.63865 0.15153 0.14911 0.0
H1258 H 0.66011 0.1787 0.21839 0.0
H1259 H 0.64753 0.16945 0.19483 0.0
C1260 C 0.94604 0.09176 0.37131 0.0
C1261 C 0.95943 0.10779 0.36326 0.0
C1262 C 0.93138 0.10033 0.3819 0.0
C1263 C 0.89903 0.15154 0.39602 0.0
H1264 H 0.92043 0.12828 0.43145 0.0
C1265 C 0.87167 0.19765 0.44707 0.0
C1266 C 0.87142 0.18395 0.4591 0.0
C1267 C 0.87896 0.18735 0.43462 0.0
C1268 C 0.91365 0.13461 0.42169 0.0
H1269 H 0.96697 0.14527 0.35936 0.0
H1270 H 0.94075 0.16032 0.37776 0.0
H1271 H 0.93808 0.11195 0.41065 0.0
H1272 H 0.87676 0.14847 0.4675 0.0
H1273 H 0.8879 0.13005 0.44575 0.0
H1274 H 0.87419 0.17387 0.40698 0.0
C1275 C 0.9418 0.14117 0.3759 0.0
C1276 C 0.92397 0.1253 0.40976 0.0
C1277 C 0.95685 0.13259 0.36547 0.0
C1278 C 0.87721 0.15951 0.45838 0.0
C1279 C 0.88381 0.14903 0.4459 0.0
C1280 C 0.88825 0.16052 0.40798 0.0
C1281 C 0.92951 0.12507 0.38444 0.0
C1282 C 0.91697 0.13387 0.39685 0.0
C1283 C 0.88557 0.16295 0.43391 0.0
C1284 C 0.89564 0.15238 0.42102 0.0
H1285 H 0.94789 0.07256 0.36989 0.0
H1286 H 0.92204 0.08761 0.38838 0.0
H1287 H 0.89334 0.15835 0.38613 0.0
H1288 H 0.86734 0.2166 0.4474 0.0
H1289 H 0.88031 0.1988 0.42571 0.0
C1290 C 0.95634 0.4426 0.63355 0.0
C1291 C 0.94805 0.44523 0.62 0.0
C1292 C 0.94371 0.42848 0.64286 0.0
C1293 C 0.88301 0.40721 0.65036 0.0
H1294 H 0.91683 0.3717 0.67861 0.0
C1295 C 0.83653 0.36786 0.69907 0.0
C1296 C 0.84788 0.37574 0.71121 0.0
C1297 C 0.84769 0.37121 0.68632 0.0
C1298 C 0.90712 0.38138 0.67072 0.0
H1299 H 0.92032 0.43435 0.6055 0.0
H1300 H 0.89798 0.40985 0.62193 0.0
H1301 H 0.93895 0.38629 0.65869 0.0
H1302 H 0.87977 0.3932 0.7195 0.0
H1303 H 0.89921 0.39863 0.69744 0.0
H1304 H 0.85133 0.40296 0.66273 0.0
C1305 C 0.91426 0.41887 0.62529 0.0
C1306 C 0.91976 0.38978 0.65935 0.0
C1307 C 0.92702 0.43295 0.61592 0.0
C1308 C 0.87057 0.38681 0.71037 0.0
C1309 C 0.88181 0.38979 0.69773 0.0
C1310 C 0.87031 0.39867 0.66174 0.0
C1311 C 0.92239 0.41667 0.63891 0.0
C1312 C 0.90807 0.40365 0.64935 0.0
C1313 C 0.87053 0.38206 0.68558 0.0
C1314 C 0.8825 0.38655 0.67227 0.0
H1315 H 0.97214 0.45217 0.63716 0.0
H1316 H 0.95018 0.4276 0.65335 0.0
H1317 H 0.87351 0.41793 0.64284 0.0
H1318 H 0.81901 0.3593 0.69943 0.0
H1319 H 0.8386 0.36519 0.67706 0.0
C1320 C 0.62234 0.06881 0.38268 0.0
C1321 C 0.60604 0.08273 0.39035 0.0
C1322 C 0.63552 0.07907 0.37203 0.0
C1323 C 0.65866 0.13436 0.35733 0.0
H1324 H 0.64693 0.1031 0.3223 0.0
C1325 C 0.68402 0.17756 0.30526 0.0
C1326 C 0.68883 0.16231 0.29409 0.0
C1327 C 0.6771 0.168 0.31792 0.0
C1328 C 0.65098 0.11182 0.33199 0.0
H1329 H 0.59159 0.11847 0.39338 0.0
H1330 H 0.61511 0.13659 0.37477 0.0
H1331 H 0.62977 0.08635 0.34303 0.0
H1332 H 0.69213 0.12529 0.28756 0.0
H1333 H 0.68159 0.10854 0.30974 0.0
H1334 H 0.68031 0.15961 0.34635 0.0
C1335 C 0.6175 0.11773 0.37703 0.0
C1336 C 0.64094 0.10225 0.34387 0.0
C1337 C 0.60398 0.10736 0.38757 0.0
C1338 C 0.68814 0.13742 0.29597 0.0
C1339 C 0.68185 0.12786 0.30868 0.0
C1340 C 0.66916 0.14374 0.34543 0.0
C1341 C 0.63291 0.1035 0.36896 0.0
C1342 C 0.64456 0.11348 0.35661 0.0
C1343 C 0.67537 0.14298 0.31969 0.0
C1344 C 0.66534 0.13264 0.33258 0.0
H1345 H 0.62411 0.04973 0.38451 0.0
H1346 H 0.64735 0.06778 0.36595 0.0
H1347 H 0.66171 0.14327 0.36709 0.0
H1348 H 0.68436 0.19686 0.30401 0.0
H1349 H 0.67207 0.18027 0.32607 0.0
C1350 C 0.94906 0.12825 0.63215 0.0
C1351 C 0.95268 0.10345 0.63007 0.0
C1352 C 0.93856 0.14237 0.62191 0.0
C1353 C 0.89922 0.14067 0.592 0.0
H1354 H 0.94011 0.18937 0.57579 0.0
C1355 C 0.91267 0.17685 0.53555 0.0
C1356 C 0.88947 0.18462 0.53188 0.0
C1357 C 0.91874 0.17353 0.54931 0.0
C1358 C 0.92833 0.17615 0.58038 0.0
H1359 H 0.94769 0.0743 0.6154 0.0
H1360 H 0.92837 0.09871 0.59798 0.0
H1361 H 0.95256 0.16984 0.59718 0.0
H1362 H 0.85468 0.19594 0.53967 0.0
H1363 H 0.8651 0.1892 0.56388 0.0
H1364 H 0.87539 0.14635 0.57498 0.0
C1365 C 0.9338 0.10711 0.60756 0.0
C1366 C 0.93539 0.16506 0.59259 0.0
C1367 C 0.94477 0.09311 0.61763 0.0
C1368 C 0.87274 0.19007 0.54226 0.0
C1369 C 0.87864 0.18615 0.55606 0.0
C1370 C 0.89192 0.1521 0.57995 0.0
C1371 C 0.9309 0.13188 0.60953 0.0
C1372 C 0.92128 0.14666 0.59822 0.0
C1373 C 0.90155 0.1774 0.55965 0.0
C1374 C 0.90682 0.16934 0.57379 0.0
H1375 H 0.95441 0.13687 0.64167 0.0
H1376 H 0.93643 0.16146 0.62363 0.0
H1377 H 0.88808 0.12652 0.59618 0.0
H1378 H 0.92589 0.17259 0.52773 0.0
H1379 H 0.93644 0.16654 0.55181 0.0
C1380 C 0.94393 0.44165 0.87282 0.0
C1381 C 0.93211 0.45081 0.88448 0.0
C1382 C 0.93123 0.42893 0.8628 0.0
C1383 C 0.87285 0.42412 0.84668 0.0
H1384 H 0.90224 0.36852 0.82943 0.0
C1385 C 0.84196 0.38427 0.79379 0.0
C1386 C 0.86146 0.38303 0.78458 0.0
C1387 C 0.84607 0.38836 0.80784 0.0
C1388 C 0.89364 0.38386 0.83422 0.0
H1389 H 0.89744 0.45335 0.89475 0.0
H1390 H 0.87506 0.43169 0.87685 0.0
H1391 H 0.91802 0.38339 0.85126 0.0
H1392 H 0.90051 0.38443 0.78297 0.0
H1393 H 0.90752 0.39129 0.8072 0.0
H1394 H 0.84936 0.42534 0.82915 0.0
C1395 C 0.8943 0.43431 0.87566 0.0
C1396 C 0.90267 0.39237 0.84669 0.0
C1397 C 0.90712 0.44681 0.88585 0.0
C1398 C 0.88503 0.38545 0.78973 0.0
C1399 C 0.8891 0.38913 0.80367 0.0
C1400 C 0.86379 0.41558 0.83414 0.0
C1401 C 0.9063 0.42525 0.86405 0.0
C1402 C 0.89309 0.41321 0.85272 0.0
C1403 C 0.86974 0.39071 0.81288 0.0
C1404 C 0.87488 0.39605 0.82751 0.0
H1405 H 0.96294 0.44489 0.87114 0.0
H1406 H 0.94087 0.42265 0.85381 0.0
H1407 H 0.86516 0.44025 0.85111 0.0
H1408 H 0.82359 0.38249 0.79011 0.0
H1409 H 0.83084 0.38962 0.81476 0.0
C1410 C 0.56059 0.40443 0.12227 0.0
C1411 C 0.57439 0.41943 0.1308 0.0
C1412 C 0.57166 0.39039 0.11219 0.0
C1413 C 0.62816 0.38738 0.09192 0.0
H1414 H 0.59754 0.32995 0.07751 0.0
C1415 C 0.66074 0.34062 0.04234 0.0
C1416 C 0.64275 0.3428 0.03224 0.0
C1417 C 0.65501 0.34392 0.05622 0.0
C1418 C 0.60645 0.34577 0.08157 0.0
H1419 H 0.61059 0.4308 0.13601 0.0
H1420 H 0.63022 0.40548 0.11879 0.0
H1421 H 0.58338 0.34736 0.09909 0.0
H1422 H 0.60458 0.34821 0.02866 0.0
H1423 H 0.59444 0.35302 0.05293 0.0
H1424 H 0.65117 0.38563 0.07429 0.0
C1425 C 0.61075 0.40508 0.11952 0.0
C1426 C 0.59821 0.35596 0.09383 0.0
C1427 C 0.59958 0.41951 0.12943 0.0
C1428 C 0.61874 0.34647 0.03628 0.0
C1429 C 0.61294 0.34912 0.05014 0.0
C1430 C 0.63672 0.37688 0.07982 0.0
C1431 C 0.5969 0.39067 0.11056 0.0
C1432 C 0.60832 0.37746 0.09889 0.0
C1433 C 0.63114 0.34871 0.06017 0.0
C1434 C 0.6254 0.35648 0.07431 0.0
H1435 H 0.5411 0.40427 0.12304 0.0
H1436 H 0.56024 0.38006 0.10535 0.0
H1437 H 0.63629 0.40406 0.0953 0.0
H1438 H 0.67941 0.33799 0.03945 0.0
H1439 H 0.66931 0.34362 0.06381 0.0
loop_
_geom_bond_atom_site_label_1
_geom_bond_atom_site_label_2
_geom_bond_distance
_geom_bond_site_symmetry_2
_ccdc_geom_bond_type
C0 C1 1.384 . S
C0 C2 1.384 . S
C0 H28 0.931 . S
C1 C0 1.384 . S
C1 C4 1.382 1_565 S
C2 C0 1.384 . S
C2 C3 1.381 1_565 S
C2 H29 0.930 . S
C3 C2 1.381 1_545 S
C3 C5 1.381 . S
C3 C6 1.487 . S
C4 C1 1.382 1_545 S
C4 C5 1.387 . S
C4 H30 0.930 . S
C5 C3 1.381 . S
C5 C4 1.387 . S
C5 H31 0.931 . S
C6 C3 1.487 . S
C6 C13 1.399 . S
C6 N44 1.343 . S
C7 C8 1.384 . S
C7 C9 1.384 1_565 S
C7 H32 0.931 . S
C8 C7 1.384 . S
C8 C11 1.382 . S
C9 C7 1.384 1_545 S
C9 C10 1.380 1_545 S
C9 H33 0.930 . S
C10 C9 1.380 1_565 S
C10 C12 1.390 . S
C10 C13 1.479 1_565 S
C11 C8 1.382 . S
C11 C12 1.387 . S
C11 H34 0.930 . S
C12 C10 1.390 . S
C12 C11 1.387 . S
C12 H35 0.931 . S
C13 C6 1.399 . S
C13 C10 1.479 1_545 S
C13 N45 1.343 . S
C14 C15 1.384 . S
C14 C16 1.384 . S
C14 H36 0.931 . S
C15 C14 1.384 . S
C15 C18 1.382 . S
C16 C14 1.384 . S
C16 C17 1.381 . S
C16 H37 0.930 1_655 S
C17 C16 1.381 . S
C17 C19 1.381 . S
C17 C20 1.487 1_655 S
C18 C15 1.382 . S
C18 C19 1.387 . S
C18 H38 0.930 . S
C19 C17 1.381 . S
C19 C18 1.387 . S
C19 H39 0.931 . S
C20 C17 1.487 1_455 S
C20 C27 1.399 . S
C20 N45 1.343 . S
C21 C22 1.384 . S
C21 C23 1.384 . S
C21 H40 0.931 . S
C22 C21 1.384 . S
C22 C25 1.382 . S
C23 C21 1.384 . S
C23 C24 1.389 . S
C23 H41 0.930 . S
C24 C23 1.389 . S
C24 C26 1.378 1_655 S
C24 C27 1.482 1_655 S
C25 C22 1.382 . S
C25 C26 1.387 1_655 S
C25 H42 0.945 . S
C26 C24 1.378 1_455 S
C26 C25 1.387 1_455 S
C26 H43 0.931 . S
C27 C20 1.399 . S
C27 C24 1.482 1_455 S
C27 N44 1.343 . S
H28 C0 0.931 . S
H29 C2 0.930 . S
H30 C4 0.930 . S
H31 C5 0.931 . S
H32 C7 0.931 . S
H33 C9 0.930 . S
H34 C11 0.930 . S
H35 C12 0.931 . S
H36 C14 0.931 . S
H37 C16 0.930 1_455 S
H38 C18 0.930 . S
H39 C19 0.931 . S
H40 C21 0.931 . S
H41 C23 0.930 . S
H42 C25 0.945 . S
H43 C26 0.931 . S
N44 C6 1.343 . S
N44 C27 1.343 . S
N45 C13 1.343 . S
N45 C20 1.343 . S
C46 C47 1.384 . S
C46 C48 1.384 . S
C46 H74 0.931 . S
C47 C46 1.384 . S
C47 C50 1.382 . S
C48 C46 1.384 . S
C48 C49 1.381 . S
C48 H75 0.930 . S
C49 C48 1.381 . S
C49 C51 1.381 . S
C49 C52 1.487 . S
C50 C47 1.382 . S
C50 C51 1.387 . S
C50 H76 0.930 . S
C51 C49 1.381 . S
C51 C50 1.387 . S
C51 H77 0.931 1_655 S
C52 C49 1.487 . S
C52 C59 1.399 . S
C52 N90 1.343 1_655 S
C53 C54 1.384 . S
C53 C55 1.384 . S
C53 H78 0.931 . S
C54 C53 1.384 . S
C54 C57 1.382 . S
C55 C53 1.384 . S
C55 C56 1.381 . S
C55 H79 0.930 . S
C56 C55 1.381 . S
C56 C58 1.381 . S
C56 C59 1.487 . S
C57 C54 1.382 . S
C57 C58 1.387 . S
C57 H80 0.930 . S
C58 C56 1.381 . S
C58 C57 1.387 . S
C58 H81 0.931 . S
C59 C52 1.399 . S
C59 C56 1.487 . S
C59 N91 1.343 1_655 S
C60 C61 1.384 . S
C60 C62 1.384 . S
C60 H82 0.931 . S
C61 C60 1.384 . S
C61 C64 1.382 . S
C62 C60 1.384 . S
C62 C63 1.381 . S
C62 H83 0.930 . S
C63 C62 1.381 . S
C63 C65 1.381 . S
C63 C66 1.487 . S
C64 C61 1.382 . S
C64 C65 1.387 . S
C64 H84 0.930 . S
C65 C63 1.381 . S
C65 C64 1.387 . S
C65 H85 0.931 . S
C66 C63 1.487 . S
C66 C73 1.399 . S
C66 N91 1.343 . S
C67 C68 1.384 . S
C67 C69 1.384 . S
C67 H86 0.931 . S
C68 C67 1.384 . S
C68 C71 1.382 . S
C69 C67 1.384 . S
C69 C70 1.381 . S
C69 H87 0.930 . S
C70 C69 1.381 . S
C70 C72 1.381 . S
C70 C73 1.487 . S
C71 C68 1.382 . S
C71 C72 1.387 . S
C71 H88 0.930 . S
C72 C70 1.381 . S
C72 C71 1.387 . S
C72 H89 0.931 . S
C73 C66 1.399 . S
C73 C70 1.487 . S
C73 N90 1.343 . S
H74 C46 0.931 . S
H75 C48 0.930 . S
H76 C50 0.930 . S
H77 C51 0.931 1_455 S
H78 C53 0.931 . S
H79 C55 0.930 . S
H80 C57 0.930 . S
H81 C58 0.931 . S
H82 C60 0.931 . S
H83 C62 0.930 . S
H84 C64 0.930 . S
H85 C65 0.931 . S
H86 C67 0.931 . S
H87 C69 0.930 . S
H88 C71 0.930 . S
H89 C72 0.931 . S
N90 C52 1.343 1_455 S
N90 C73 1.343 . S
N91 C59 1.343 1_455 S
N91 C66 1.343 . S
C92 C93 1.384 . S
C92 C94 1.384 . S
C92 H120 0.931 . S
C93 C92 1.384 . S
C93 C96 1.382 . S
C94 C92 1.384 . S
C94 C95 1.381 . S
C94 H121 0.930 . S
C95 C94 1.381 . S
C95 C97 1.381 . S
C95 C98 1.487 . S
C96 C93 1.382 . S
C96 C97 1.387 . S
C96 H122 0.930 . S
C97 C95 1.381 . S
C97 C96 1.387 . S
C97 H123 0.931 . S
C98 C95 1.487 . S
C98 C105 1.399 . S
C98 N136 1.343 . S
C99 C100 1.384 . S
C99 C101 1.384 . S
C99 H124 0.931 . S
C100 C99 1.384 . S
C100 C103 1.382 . S
C101 C99 1.384 . S
C101 C102 1.381 . S
C101 H125 0.930 . S
C102 C101 1.381 . S
C102 C104 1.381 . S
C102 C105 1.487 . S
C103 C100 1.382 . S
C103 C104 1.387 . S
C103 H126 0.930 . S
C104 C102 1.381 . S
C104 C103 1.387 . S
C104 H127 0.931 . S
C105 C98 1.399 . S
C105 C102 1.487 . S
C105 N137 1.343 . S
C106 C107 1.384 . S
C106 C108 1.384 . S
C106 H128 0.931 . S
C107 C106 1.384 . S
C107 C110 1.382 . S
C108 C106 1.384 . S
C108 C109 1.381 . S
C108 H129 0.930 . S
C109 C108 1.381 . S
C109 C111 1.381 . S
C109 C112 1.487 . S
C110 C107 1.382 . S
C110 C111 1.387 . S
C110 H130 0.930 . S
C111 C109 1.381 . S
C111 C110 1.387 . S
C111 H131 0.931 . S
C112 C109 1.487 . S
C112 C119 1.399 . S
C112 N137 1.343 . S
C113 C114 1.384 . S
C113 C115 1.384 . S
C113 H132 0.931 . S
C114 C113 1.384 . S
C114 C117 1.382 . S
C115 C113 1.384 . S
C115 C116 1.381 . S
C115 H133 0.930 . S
C116 C115 1.381 . S
C116 C118 1.381 . S
C116 C119 1.487 . S
C117 C114 1.382 . S
C117 C118 1.387 . S
C117 H134 0.930 . S
C118 C116 1.381 . S
C118 C117 1.387 . S
C118 H135 0.931 . S
C119 C112 1.399 . S
C119 C116 1.487 . S
C119 N136 1.343 . S
H120 C92 0.931 . S
H121 C94 0.930 . S
H122 C96 0.930 . S
H123 C97 0.931 . S
H124 C99 0.931 . S
H125 C101 0.930 . S
H126 C103 0.930 . S
H127 C104 0.931 . S
H128 C106 0.931 . S
H129 C108 0.930 . S
H130 C110 0.930 . S
H131 C111 0.931 . S
H132 C113 0.931 . S
H133 C115 0.930 . S
H134 C117 0.930 . S
H135 C118 0.931 . S
N136 C98 1.343 . S
N136 C119 1.343 . S
N137 C105 1.343 . S
N137 C112 1.343 . S
C138 C139 1.384 . S
C138 C140 1.384 . S
C138 H166 0.931 . S
C139 C138 1.384 . S
C139 C142 1.382 . S
C140 C138 1.384 . S
C140 C141 1.381 . S
C140 H167 0.930 . S
C141 C140 1.381 . S
C141 C143 1.381 . S
C141 C144 1.487 . S
C142 C139 1.382 . S
C142 C143 1.387 . S
C142 H168 0.930 . S
C143 C141 1.381 . S
C143 C142 1.387 . S
C143 H169 0.931 . S
C144 C141 1.487 . S
C144 C151 1.399 . S
C144 N182 1.343 1_565 S
C145 C146 1.384 . S
C145 C147 1.384 . S
C145 H170 0.931 . S
C146 C145 1.384 . S
C146 C149 1.382 . S
C147 C145 1.384 . S
C147 C148 1.381 . S
C147 H171 0.930 . S
C148 C147 1.381 . S
C148 C150 1.381 . S
C148 C151 1.487 . S
C149 C146 1.382 . S
C149 C150 1.387 . S
C149 H172 0.930 . S
C150 C148 1.381 . S
C150 C149 1.387 . S
C150 H173 0.931 . S
C151 C144 1.399 . S
C151 C148 1.487 . S
C151 N183 1.343 . S
C152 C153 1.384 . S
C152 C154 1.384 . S
C152 H174 0.931 . S
C153 C152 1.384 . S
C153 C156 1.382 . S
C154 C152 1.384 . S
C154 C155 1.381 . S
C154 H175 0.930 . S
C155 C154 1.381 . S
C155 C157 1.381 . S
C155 C158 1.487 . S
C156 C153 1.382 . S
C156 C157 1.387 . S
C156 H176 0.930 . S
C157 C155 1.381 . S
C157 C156 1.387 . S
C157 H177 0.931 . S
C158 C155 1.487 . S
C158 C165 1.399 . S
C158 N183 1.343 1_545 S
C159 C160 1.384 . S
C159 C161 1.384 . S
C159 H178 0.931 . S
C160 C159 1.384 . S
C160 C163 1.382 . S
C161 C159 1.384 . S
C161 C162 1.381 . S
C161 H179 0.930 . S
C162 C161 1.381 . S
C162 C164 1.381 . S
C162 C165 1.487 . S
C163 C160 1.382 . S
C163 C164 1.387 . S
C163 H180 0.930 . S
C164 C162 1.381 . S
C164 C163 1.387 . S
C164 H181 0.931 . S
C165 C158 1.399 . S
C165 C162 1.487 . S
C165 N182 1.343 . S
H166 C138 0.931 . S
H167 C140 0.930 . S
H168 C142 0.930 . S
H169 C143 0.931 . S
H170 C145 0.931 . S
H171 C147 0.930 . S
H172 C149 0.930 . S
H173 C150 0.931 . S
H174 C152 0.931 . S
H175 C154 0.930 . S
H176 C156 0.930 . S
H177 C157 0.931 . S
H178 C159 0.931 . S
H179 C161 0.930 . S
H180 C163 0.930 . S
H181 C164 0.931 . S
N182 C144 1.343 1_545 S
N182 C165 1.343 . S
N183 C151 1.343 . S
N183 C158 1.343 1_565 S
C184 C185 1.384 . S
C184 C186 1.384 . S
C184 H212 0.931 . S
C185 C184 1.384 . S
C185 C188 1.382 . S
C186 C184 1.384 . S
C186 C187 1.381 . S
C186 H213 0.930 . S
C187 C186 1.381 . S
C187 C189 1.381 . S
C187 C190 1.487 . S
C188 C185 1.382 . S
C188 C189 1.387 . S
C188 H214 0.930 . S
C189 C187 1.381 . S
C189 C188 1.387 . S
C189 H215 0.931 . S
C190 C187 1.487 . S
C190 C197 1.399 . S
C190 N228 1.343 . S
C191 C192 1.384 . S
C191 C193 1.384 . S
C191 H216 0.931 . S
C192 C191 1.384 . S
C192 C195 1.382 . S
C193 C191 1.384 . S
C193 C194 1.381 . S
C193 H217 0.930 . S
C194 C193 1.381 . S
C194 C196 1.381 . S
C194 C197 1.487 . S
C195 C192 1.382 . S
C195 C196 1.387 . S
C195 H218 0.930 . S
C196 C194 1.381 . S
C196 C195 1.387 . S
C196 H219 0.931 . S
C197 C190 1.399 . S
C197 C194 1.487 . S
C197 N229 1.338 1_455 S
C198 C199 1.384 . S
C198 C200 1.384 . S
C198 H220 0.931 . S
C199 C198 1.384 . S
C199 C202 1.382 . S
C200 C198 1.384 . S
C200 C201 1.381 . S
C200 H221 0.930 . S
C201 C200 1.381 . S
C201 C203 1.381 . S
C201 C204 1.487 . S
C202 C199 1.382 . S
C202 C203 1.387 . S
C202 H222 0.930 . S
C203 C201 1.381 . S
C203 C202 1.387 . S
C203 H223 0.931 . S
C204 C201 1.487 . S
C204 C211 1.399 . S
C204 N229 1.348 . S
C205 C206 1.384 . S
C205 C207 1.384 . S
C205 H224 0.931 . S
C206 C205 1.384 . S
C206 C209 1.382 . S
C207 C205 1.384 . S
C207 C208 1.381 . S
C207 H225 0.930 . S
C208 C207 1.381 . S
C208 C210 1.381 . S
C208 C211 1.487 . S
C209 C206 1.382 . S
C209 C210 1.387 . S
C209 H226 0.930 . S
C210 C208 1.381 . S
C210 C209 1.387 . S
C210 H227 0.931 . S
C211 C204 1.399 . S
C211 C208 1.487 . S
C211 N228 1.343 1_655 S
H212 C184 0.931 . S
H213 C186 0.930 . S
H214 C188 0.930 . S
H215 C189 0.931 . S
H216 C191 0.931 . S
H217 C193 0.930 . S
H218 C195 0.930 . S
H219 C196 0.931 . S
H220 C198 0.931 . S
H221 C200 0.930 . S
H222 C202 0.930 . S
H223 C203 0.931 . S
H224 C205 0.931 . S
H225 C207 0.930 . S
H226 C209 0.930 . S
H227 C210 0.931 . S
N228 C190 1.343 . S
N228 C211 1.343 1_455 S
N229 C197 1.338 1_655 S
N229 C204 1.348 . S
C230 C231 1.384 . S
C230 C232 1.384 . S
C230 H258 0.931 . S
C231 C230 1.384 . S
C231 C234 1.382 . S
C232 C230 1.384 . S
C232 C233 1.381 . S
C232 H259 0.930 . S
C233 C232 1.381 . S
C233 C235 1.381 . S
C233 C236 1.487 . S
C234 C231 1.382 . S
C234 C235 1.387 . S
C234 H260 0.930 . S
C235 C233 1.381 . S
C235 C234 1.387 . S
C235 H261 0.931 . S
C236 C233 1.487 . S
C236 C243 1.399 . S
C236 N274 1.343 . S
C237 C238 1.384 . S
C237 C239 1.384 . S
C237 H262 0.931 . S
C238 C237 1.384 . S
C238 C241 1.382 . S
C239 C237 1.384 . S
C239 C240 1.381 . S
C239 H263 0.930 . S
C240 C239 1.381 . S
C240 C242 1.381 . S
C240 C243 1.487 . S
C241 C238 1.382 . S
C241 C242 1.387 . S
C241 H264 0.930 . S
C242 C240 1.381 . S
C242 C241 1.387 . S
C242 H265 0.931 . S
C243 C236 1.399 . S
C243 C240 1.487 . S
C243 N275 1.343 . S
C244 C245 1.384 . S
C244 C246 1.384 . S
C244 H266 0.931 . S
C245 C244 1.384 . S
C245 C248 1.382 . S
C246 C244 1.384 . S
C246 C247 1.381 . S
C246 H267 0.930 . S
C247 C246 1.381 . S
C247 C249 1.381 . S
C247 C250 1.487 . S
C248 C245 1.382 . S
C248 C249 1.387 . S
C248 H268 0.930 . S
C249 C247 1.381 . S
C249 C248 1.387 . S
C249 H269 0.931 . S
C250 C247 1.487 . S
C250 C257 1.399 . S
C250 N275 1.343 . S
C251 C252 1.384 . S
C251 C253 1.384 . S
C251 H270 0.931 . S
C252 C251 1.384 . S
C252 C255 1.382 . S
C253 C251 1.384 . S
C253 C254 1.381 . S
C253 H271 0.930 . S
C254 C253 1.381 . S
C254 C256 1.381 . S
C254 C257 1.487 . S
C255 C252 1.382 . S
C255 C256 1.387 . S
C255 H272 0.930 . S
C256 C254 1.381 . S
C256 C255 1.387 . S
C256 H273 0.931 . S
C257 C250 1.399 . S
C257 C254 1.487 . S
C257 N274 1.343 . S
H258 C230 0.931 . S
H259 C232 0.930 . S
H260 C234 0.930 . S
H261 C235 0.931 . S
H262 C237 0.931 . S
H263 C239 0.930 . S
H264 C241 0.930 . S
H265 C242 0.931 . S
H266 C244 0.931 . S
H267 C246 0.930 . S
H268 C248 0.930 . S
H269 C249 0.931 . S
H270 C251 0.931 . S
H271 C253 0.930 . S
H272 C255 0.930 . S
H273 C256 0.931 . S
N274 C236 1.343 . S
N274 C257 1.343 . S
N275 C243 1.343 . S
N275 C250 1.343 . S
C276 C277 1.384 . S
C276 C278 1.384 . S
C276 H304 0.931 . S
C277 C276 1.384 . S
C277 C280 1.382 . S
C278 C276 1.384 . S
C278 C279 1.381 . S
C278 H305 0.930 . S
C279 C278 1.381 . S
C279 C281 1.381 . S
C279 C282 1.487 . S
C280 C277 1.382 . S
C280 C281 1.387 . S
C280 H306 0.930 . S
C281 C279 1.381 . S
C281 C280 1.387 . S
C281 H307 0.931 1_565 S
C282 C279 1.487 . S
C282 C289 1.399 . S
C282 N320 1.343 1_565 S
C283 C284 1.384 . S
C283 C285 1.384 . S
C283 H308 0.931 . S
C284 C283 1.384 . S
C284 C287 1.382 . S
C285 C283 1.384 . S
C285 C286 1.381 . S
C285 H309 0.930 . S
C286 C285 1.381 . S
C286 C288 1.381 . S
C286 C289 1.487 . S
C287 C284 1.382 . S
C287 C288 1.387 . S
C287 H310 0.930 . S
C288 C286 1.381 . S
C288 C287 1.387 . S
C288 H311 0.931 . S
C289 C282 1.399 . S
C289 C286 1.487 . S
C289 N321 1.343 1_565 S
C290 C291 1.384 . S
C290 C292 1.384 . S
C290 H312 0.931 . S
C291 C290 1.384 . S
C291 C294 1.382 . S
C292 C290 1.384 . S
C292 C293 1.381 . S
C292 H313 0.930 . S
C293 C292 1.381 . S
C293 C295 1.381 . S
C293 C296 1.487 . S
C294 C291 1.382 . S
C294 C295 1.387 . S
C294 H314 0.930 . S
C295 C293 1.381 . S
C295 C294 1.387 . S
C295 H315 0.931 . S
C296 C293 1.487 . S
C296 C303 1.399 . S
C296 N321 1.343 . S
C297 C298 1.384 . S
C297 C299 1.384 . S
C297 H316 0.931 . S
C298 C297 1.384 . S
C298 C301 1.382 . S
C299 C297 1.384 . S
C299 C300 1.381 . S
C299 H317 0.930 . S
C300 C299 1.381 . S
C300 C302 1.381 . S
C300 C303 1.487 . S
C301 C298 1.382 . S
C301 C302 1.387 . S
C301 H318 0.930 . S
C302 C300 1.381 . S
C302 C301 1.387 . S
C302 H319 0.931 . S
C303 C296 1.399 . S
C303 C300 1.487 . S
C303 N320 1.343 . S
H304 C276 0.931 . S
H305 C278 0.930 . S
H306 C280 0.930 . S
H307 C281 0.931 1_545 S
H308 C283 0.931 . S
H309 C285 0.930 . S
H310 C287 0.930 . S
H311 C288 0.931 . S
H312 C290 0.931 . S
H313 C292 0.930 . S
H314 C294 0.930 . S
H315 C295 0.931 . S
H316 C297 0.931 . S
H317 C299 0.930 . S
H318 C301 0.930 . S
H319 C302 0.931 . S
N320 C282 1.343 1_545 S
N320 C303 1.343 . S
N321 C289 1.343 1_545 S
N321 C296 1.343 . S
C322 C323 1.384 . S
C322 C324 1.399 . S
C322 H350 0.931 . S
C323 C322 1.384 . S
C323 C326 1.382 . S
C324 C322 1.399 . S
C324 C325 1.377 1_565 S
C324 H351 0.920 1_565 S
C325 C324 1.377 1_545 S
C325 C327 1.381 1_545 S
C325 C328 1.487 . S
C326 C323 1.382 . S
C326 C327 1.387 . S
C326 H352 0.930 . S
C327 C325 1.381 1_565 S
C327 C326 1.387 . S
C327 H353 0.931 . S
C328 C325 1.487 . S
C328 C335 1.399 . S
C328 N366 1.343 . S
C329 C330 1.384 . S
C329 C331 1.384 . S
C329 H354 0.931 . S
C330 C329 1.384 . S
C330 C333 1.382 . S
C331 C329 1.384 . S
C331 C332 1.381 1_565 S
C331 H355 0.930 . S
C332 C331 1.381 1_545 S
C332 C334 1.381 . S
C332 C335 1.487 . S
C333 C330 1.382 . S
C333 C334 1.387 1_565 S
C333 H356 0.930 1_565 S
C334 C332 1.381 . S
C334 C333 1.387 1_545 S
C334 H357 0.931 . S
C335 C328 1.399 . S
C335 C332 1.487 . S
C335 N367 1.343 . S
C336 C337 1.384 . S
C336 C338 1.384 . S
C336 H358 0.931 . S
C337 C336 1.384 . S
C337 C340 1.382 1_655 S
C338 C336 1.384 . S
C338 C339 1.381 1_655 S
C338 H359 0.930 . S
C339 C338 1.381 1_455 S
C339 C341 1.381 . S
C339 C342 1.487 . S
C340 C337 1.382 1_455 S
C340 C341 1.387 . S
C340 H360 0.930 . S
C341 C339 1.381 . S
C341 C340 1.387 . S
C341 H361 0.931 . S
C342 C339 1.487 . S
C342 C349 1.399 . S
C342 N367 1.343 . S
C343 C344 1.384 . S
C343 C345 1.384 1_655 S
C343 H362 0.931 . S
C344 C343 1.384 . S
C344 C347 1.382 . S
C345 C343 1.384 1_455 S
C345 C346 1.381 . S
C345 H363 0.930 . S
C346 C345 1.381 . S
C346 C348 1.381 1_455 S
C346 C349 1.487 . S
C347 C344 1.382 . S
C347 C348 1.387 . S
C347 H364 0.930 . S
C348 C346 1.381 1_655 S
C348 C347 1.387 . S
C348 H365 0.931 . S
C349 C342 1.399 . S
C349 C346 1.487 . S
C349 N366 1.343 . S
H350 C322 0.931 . S
H351 C324 0.920 1_545 S
H352 C326 0.930 . S
H353 C327 0.931 . S
H354 C329 0.931 . S
H355 C331 0.930 . S
H356 C333 0.930 1_545 S
H357 C334 0.931 . S
H358 C336 0.931 . S
H359 C338 0.930 . S
H360 C340 0.930 . S
H361 C341 0.931 . S
H362 C343 0.931 . S
H363 C345 0.930 . S
H364 C347 0.930 . S
H365 C348 0.931 . S
N366 C328 1.343 . S
N366 C349 1.343 . S
N367 C335 1.343 . S
N367 C342 1.343 . S
Co368 O369 2.216 . S
Co368 O370 2.091 . S
Co368 O372 2.004 . S
Co368 O378 2.021 1_554 S
Co368 O380 2.137 . S
Co368 O381 2.244 . S
O369 Co368 2.216 . S
O369 C376 1.247 . S
O370 Co368 2.091 . S
O370 C376 1.261 . S
C371 O380 1.247 . S
C371 O381 1.272 . S
O372 Co368 2.004 . S
O372 C377 1.259 . S
Co373 O374 2.061 . S
Co373 O379 2.052 1_554 S
Co373 O381 2.135 . S
O374 Co373 2.061 . S
O374 C377 1.235 . S
C375 O378 1.238 . S
C375 O379 1.241 . S
C376 O369 1.247 . S
C376 O370 1.261 . S
C377 O372 1.259 . S
C377 O374 1.235 . S
O378 Co368 2.021 1_556 S
O378 C375 1.238 . S
O379 Co373 2.052 1_556 S
O379 C375 1.241 . S
O380 Co368 2.137 . S
O380 C371 1.247 . S
O381 Co368 2.244 . S
O381 C371 1.272 . S
O381 Co373 2.135 . S
Co382 O383 2.216 . S
Co382 O384 2.091 . S
Co382 O386 2.004 . S
Co382 O392 2.021 . S
Co382 O394 2.137 . S
Co382 O395 2.244 . S
O383 Co382 2.216 . S
O383 C390 1.247 . S
O384 Co382 2.091 . S
O384 C390 1.261 . S
C385 O394 1.247 . S
C385 O395 1.272 . S
O386 Co382 2.004 . S
O386 C391 1.259 . S
Co387 O388 2.061 . S
Co387 O393 2.052 . S
Co387 O395 2.135 . S
O388 Co387 2.061 . S
O388 C391 1.235 . S
C389 O392 1.238 . S
C389 O393 1.241 . S
C390 O383 1.247 . S
C390 O384 1.261 . S
C391 O386 1.259 . S
C391 O388 1.235 . S
O392 Co382 2.021 . S
O392 C389 1.238 . S
O393 Co387 2.052 . S
O393 C389 1.241 . S
O394 Co382 2.137 . S
O394 C385 1.247 . S
O395 Co382 2.244 . S
O395 C385 1.272 . S
O395 Co387 2.135 . S
Co396 O397 2.216 . S
Co396 O398 2.091 . S
Co396 O400 2.004 . S
Co396 O406 2.021 . S
Co396 O408 2.137 . S
Co396 O409 2.244 . S
O397 Co396 2.216 . S
O397 C404 1.247 . S
O398 Co396 2.091 . S
O398 C404 1.261 . S
C399 O408 1.247 . S
C399 O409 1.272 . S
O400 Co396 2.004 . S
O400 C405 1.259 . S
Co401 O402 2.061 . S
Co401 O407 2.052 . S
Co401 O409 2.135 . S
O402 Co401 2.061 . S
O402 C405 1.235 . S
C403 O406 1.238 . S
C403 O407 1.241 . S
C404 O397 1.247 . S
C404 O398 1.261 . S
C405 O400 1.259 . S
C405 O402 1.235 . S
O406 Co396 2.021 . S
O406 C403 1.238 . S
O407 Co401 2.052 . S
O407 C403 1.241 . S
O408 Co396 2.137 . S
O408 C399 1.247 . S
O409 Co396 2.244 . S
O409 C399 1.272 . S
O409 Co401 2.135 . S
Co410 O411 2.216 . S
Co410 O412 2.091 . S
Co410 O414 2.004 . S
Co410 O420 2.021 . S
Co410 O422 2.137 . S
Co410 O423 2.244 . S
O411 Co410 2.216 . S
O411 C418 1.247 . S
O412 Co410 2.091 . S
O412 C418 1.261 . S
C413 O422 1.247 . S
C413 O423 1.272 . S
O414 Co410 2.004 . S
O414 C419 1.259 . S
Co415 O416 2.061 . S
Co415 O421 2.052 . S
Co415 O423 2.135 . S
O416 Co415 2.061 . S
O416 C419 1.235 . S
C417 O420 1.238 . S
C417 O421 1.241 . S
C418 O411 1.247 . S
C418 O412 1.261 . S
C419 O414 1.259 . S
C419 O416 1.235 . S
O420 Co410 2.021 . S
O420 C417 1.238 . S
O421 Co415 2.052 . S
O421 C417 1.241 . S
O422 Co410 2.137 . S
O422 C413 1.247 . S
O423 Co410 2.244 . S
O423 C413 1.272 . S
O423 Co415 2.135 . S
Co424 O425 2.216 . S
Co424 O426 2.091 . S
Co424 O428 2.004 . S
Co424 O434 2.021 . S
Co424 O436 2.137 . S
Co424 O437 2.244 . S
O425 Co424 2.216 . S
O425 C432 1.247 . S
O426 Co424 2.091 . S
O426 C432 1.261 . S
C427 O436 1.247 . S
C427 O437 1.272 . S
O428 Co424 2.004 . S
O428 C433 1.259 . S
Co429 O430 2.061 . S
Co429 O435 2.052 . S
Co429 O437 2.135 . S
O430 Co429 2.061 . S
O430 C433 1.235 . S
C431 O434 1.238 . S
C431 O435 1.241 . S
C432 O425 1.247 . S
C432 O426 1.261 . S
C433 O428 1.259 . S
C433 O430 1.235 . S
O434 Co424 2.021 . S
O434 C431 1.238 . S
O435 Co429 2.052 . S
O435 C431 1.241 . S
O436 Co424 2.137 . S
O436 C427 1.247 . S
O437 Co424 2.244 . S
O437 C427 1.272 . S
O437 Co429 2.135 . S
Co438 O439 2.216 . S
Co438 O440 2.091 . S
Co438 O442 2.004 . S
Co438 O448 2.021 . S
Co438 O450 2.137 . S
Co438 O451 2.244 . S
O439 Co438 2.216 . S
O439 C446 1.247 . S
O440 Co438 2.091 . S
O440 C446 1.261 . S
C441 O450 1.247 . S
C441 O451 1.272 . S
O442 Co438 2.004 . S
O442 C447 1.259 . S
Co443 O444 2.061 . S
Co443 O449 2.052 . S
Co443 O451 2.135 . S
O444 Co443 2.061 . S
O444 C447 1.235 . S
C445 O448 1.238 . S
C445 O449 1.241 . S
C446 O439 1.247 . S
C446 O440 1.261 . S
C447 O442 1.259 . S
C447 O444 1.235 . S
O448 Co438 2.021 . S
O448 C445 1.238 . S
O449 Co443 2.052 . S
O449 C445 1.241 . S
O450 Co438 2.137 . S
O450 C441 1.247 . S
O451 Co438 2.244 . S
O451 C441 1.272 . S
O451 Co443 2.135 . S
Co452 O453 2.216 1_556 S
Co452 O454 2.091 1_556 S
Co452 O456 2.004 . S
Co452 O462 2.021 1_556 S
Co452 O464 2.137 . S
Co452 O465 2.244 . S
O453 Co452 2.216 1_554 S
O453 C460 1.247 . S
O454 Co452 2.091 1_554 S
O454 C460 1.261 . S
C455 O464 1.247 . S
C455 O465 1.272 . S
O456 Co452 2.004 . S
O456 C461 1.259 . S
Co457 O458 2.061 . S
Co457 O463 2.052 1_556 S
Co457 O465 2.135 . S
O458 Co457 2.061 . S
O458 C461 1.235 . S
C459 O462 1.238 . S
C459 O463 1.241 . S
C460 O453 1.247 . S
C460 O454 1.261 . S
C461 O456 1.259 . S
C461 O458 1.235 . S
O462 Co452 2.021 1_554 S
O462 C459 1.238 . S
O463 Co457 2.052 1_554 S
O463 C459 1.241 . S
O464 Co452 2.137 . S
O464 C455 1.247 . S
O465 Co452 2.244 . S
O465 C455 1.272 . S
O465 Co457 2.135 . S
Co466 O467 2.216 . S
Co466 O468 2.091 . S
Co466 O470 2.004 . S
Co466 O476 2.021 . S
Co466 O478 2.137 . S
Co466 O479 2.244 . S
O467 Co466 2.216 . S
O467 C474 1.247 . S
O468 Co466 2.091 . S
O468 C474 1.261 . S
C469 O478 1.247 . S
C469 O479 1.272 . S
O470 Co466 2.004 . S
O470 C475 1.259 . S
Co471 O472 2.061 . S
Co471 O477 2.052 . S
Co471 O479 2.135 . S
O472 Co471 2.061 . S
O472 C475 1.235 . S
C473 O476 1.238 . S
C473 O477 1.241 . S
C474 O467 1.247 . S
C474 O468 1.261 . S
C475 O470 1.259 . S
C475 O472 1.235 . S
O476 Co466 2.021 . S
O476 C473 1.238 . S
O477 Co471 2.052 . S
O477 C473 1.241 . S
O478 Co466 2.137 . S
O478 C469 1.247 . S
O479 Co466 2.244 . S
O479 C469 1.272 . S
O479 Co471 2.135 . S
C480 C481 1.349 . S
C480 C482 1.327 . S
C480 H505 0.950 . S
C481 C480 1.349 . S
C481 C497 1.349 . S
C482 C480 1.327 . S
C482 C501 1.429 . S
C482 H506 0.950 . S
C483 C500 1.574 . S
C483 C502 1.368 . S
C483 H507 0.949 . S
H484 C488 0.949 . S
C485 C486 1.349 . S
C485 C487 1.327 . S
C485 H508 0.950 . S
C486 C485 1.349 . S
C486 C498 1.349 . S
C487 C485 1.327 . S
C487 C503 1.429 . S
C487 H509 0.950 . S
C488 H484 0.949 . S
C488 C496 1.574 . S
C488 C504 1.368 . S
H489 C497 0.950 . S
H490 C495 0.950 . S
H491 C496 0.949 . S
H492 C498 0.950 . S
H493 C499 0.950 . S
H494 C500 0.949 . S
C495 H490 0.950 . S
C495 C497 1.327 . S
C495 C501 1.429 . S
C496 C488 1.574 . S
C496 H491 0.949 . S
C496 C502 1.368 . S
C497 C481 1.349 . S
C497 H489 0.950 . S
C497 C495 1.327 . S
C498 C486 1.349 . S
C498 H492 0.950 . S
C498 C499 1.327 . S
C499 H493 0.950 . S
C499 C498 1.327 . S
C499 C503 1.429 . S
C500 C483 1.574 . S
C500 H494 0.949 . S
C500 C504 1.368 . S
C501 C482 1.429 . S
C501 C495 1.429 . S
C501 C502 1.523 . S
C502 C483 1.368 . S
C502 C496 1.368 . S
C502 C501 1.523 . S
C503 C487 1.429 . S
C503 C499 1.429 . S
C503 C504 1.523 . S
C504 C488 1.368 . S
C504 C500 1.368 . S
C504 C503 1.523 . S
H505 C480 0.950 . S
H506 C482 0.950 . S
H507 C483 0.949 . S
H508 C485 0.950 . S
H509 C487 0.950 . S
C510 C511 1.349 . S
C510 C512 1.327 . S
C510 H535 0.950 . S
C511 C510 1.349 . S
C511 C527 1.349 . S
C512 C510 1.327 . S
C512 C531 1.429 . S
C512 H536 0.950 . S
C513 C530 1.574 . S
C513 C532 1.368 . S
C513 H537 0.949 . S
H514 C518 0.949 . S
C515 C516 1.349 . S
C515 C517 1.327 . S
C515 H538 0.950 . S
C516 C515 1.349 . S
C516 C528 1.349 . S
C517 C515 1.327 . S
C517 C533 1.429 . S
C517 H539 0.950 . S
C518 H514 0.949 . S
C518 C526 1.574 . S
C518 C534 1.368 . S
H519 C527 0.950 . S
H520 C525 0.950 . S
H521 C526 0.949 . S
H522 C528 0.950 . S
H523 C529 0.950 . S
H524 C530 0.949 . S
C525 H520 0.950 . S
C525 C527 1.327 . S
C525 C531 1.429 . S
C526 C518 1.574 . S
C526 H521 0.949 . S
C526 C532 1.368 . S
C527 C511 1.349 . S
C527 H519 0.950 . S
C527 C525 1.327 . S
C528 C516 1.349 . S
C528 H522 0.950 . S
C528 C529 1.327 . S
C529 H523 0.950 . S
C529 C528 1.327 . S
C529 C533 1.429 . S
C530 C513 1.574 . S
C530 H524 0.949 . S
C530 C534 1.368 . S
C531 C512 1.429 . S
C531 C525 1.429 . S
C531 C532 1.523 . S
C532 C513 1.368 . S
C532 C526 1.368 . S
C532 C531 1.523 . S
C533 C517 1.429 . S
C533 C529 1.429 . S
C533 C534 1.523 . S
C534 C518 1.368 . S
C534 C530 1.368 . S
C534 C533 1.523 . S
H535 C510 0.950 . S
H536 C512 0.950 . S
H537 C513 0.949 . S
H538 C515 0.950 . S
H539 C517 0.950 . S
C540 C541 1.349 . S
C540 C542 1.327 . S
C540 H565 0.950 . S
C541 C540 1.349 . S
C541 C557 1.349 . S
C542 C540 1.327 . S
C542 C561 1.429 . S
C542 H566 0.950 . S
C543 C560 1.574 . S
C543 C562 1.368 . S
C543 H567 0.949 . S
H544 C548 0.949 . S
C545 C546 1.349 . S
C545 C547 1.327 . S
C545 H568 0.950 . S
C546 C545 1.349 . S
C546 C558 1.349 . S
C547 C545 1.327 . S
C547 C563 1.429 . S
C547 H569 0.950 . S
C548 H544 0.949 . S
C548 C556 1.574 . S
C548 C564 1.368 . S
H549 C557 0.950 . S
H550 C555 0.950 . S
H551 C556 0.949 . S
H552 C558 0.950 . S
H553 C559 0.950 . S
H554 C560 0.949 . S
C555 H550 0.950 . S
C555 C557 1.327 . S
C555 C561 1.429 . S
C556 C548 1.574 . S
C556 H551 0.949 . S
C556 C562 1.368 . S
C557 C541 1.349 . S
C557 H549 0.950 . S
C557 C555 1.327 . S
C558 C546 1.349 . S
C558 H552 0.950 . S
C558 C559 1.327 . S
C559 H553 0.950 . S
C559 C558 1.327 . S
C559 C563 1.429 . S
C560 C543 1.574 . S
C560 H554 0.949 . S
C560 C564 1.368 . S
C561 C542 1.429 . S
C561 C555 1.429 . S
C561 C562 1.523 . S
C562 C543 1.368 . S
C562 C556 1.368 . S
C562 C561 1.523 . S
C563 C547 1.429 . S
C563 C559 1.429 . S
C563 C564 1.523 . S
C564 C548 1.368 . S
C564 C560 1.368 . S
C564 C563 1.523 . S
H565 C540 0.950 . S
H566 C542 0.950 . S
H567 C543 0.949 . S
H568 C545 0.950 . S
H569 C547 0.950 . S
C570 C571 1.349 . S
C570 C572 1.327 . S
C570 H595 0.950 . S
C571 C570 1.349 . S
C571 C587 1.349 . S
C572 C570 1.327 . S
C572 C591 1.429 . S
C572 H596 0.950 . S
C573 C590 1.574 . S
C573 C592 1.368 . S
C573 H597 0.949 . S
H574 C578 0.949 . S
C575 C576 1.349 . S
C575 C577 1.327 . S
C575 H598 0.950 . S
C576 C575 1.349 . S
C576 C588 1.349 . S
C577 C575 1.327 . S
C577 C593 1.429 . S
C577 H599 0.950 . S
C578 H574 0.949 . S
C578 C586 1.574 . S
C578 C594 1.368 . S
H579 C587 0.950 . S
H580 C585 0.950 . S
H581 C586 0.949 . S
H582 C588 0.950 . S
H583 C589 0.950 . S
H584 C590 0.949 . S
C585 H580 0.950 . S
C585 C587 1.327 . S
C585 C591 1.429 . S
C586 C578 1.574 . S
C586 H581 0.949 . S
C586 C592 1.368 . S
C587 C571 1.349 . S
C587 H579 0.950 . S
C587 C585 1.327 . S
C588 C576 1.349 . S
C588 H582 0.950 . S
C588 C589 1.327 . S
C589 H583 0.950 . S
C589 C588 1.327 . S
C589 C593 1.429 . S
C590 C573 1.574 . S
C590 H584 0.949 . S
C590 C594 1.368 . S
C591 C572 1.429 . S
C591 C585 1.429 . S
C591 C592 1.523 . S
C592 C573 1.368 . S
C592 C586 1.368 . S
C592 C591 1.523 . S
C593 C577 1.429 . S
C593 C589 1.429 . S
C593 C594 1.523 . S
C594 C578 1.368 . S
C594 C590 1.368 . S
C594 C593 1.523 . S
H595 C570 0.950 . S
H596 C572 0.950 . S
H597 C573 0.949 . S
H598 C575 0.950 . S
H599 C577 0.950 . S
C600 C601 1.349 . S
C600 C602 1.327 . S
C600 H625 0.950 . S
C601 C600 1.349 . S
C601 C617 1.349 . S
C602 C600 1.327 . S
C602 C621 1.429 . S
C602 H626 0.950 . S
C603 C620 1.574 . S
C603 C622 1.368 . S
C603 H627 0.949 . S
H604 C608 0.949 . S
C605 C606 1.349 1_554 S
C605 C607 1.327 . S
C605 H628 0.950 . S
C606 C605 1.349 1_556 S
C606 C618 1.349 . S
C607 C605 1.327 . S
C607 C623 1.429 1_554 S
C607 H629 0.950 . S
C608 H604 0.949 . S
C608 C616 1.574 . S
C608 C624 1.368 . S
H609 C617 0.950 . S
H610 C615 0.950 . S
H611 C616 0.949 . S
H612 C618 0.950 . S
H613 C619 0.950 . S
H614 C620 0.949 1_554 S
C615 H610 0.950 . S
C615 C617 1.327 . S
C615 C621 1.429 . S
C616 C608 1.574 . S
C616 H611 0.949 . S
C616 C622 1.368 . S
C617 C601 1.349 . S
C617 H609 0.950 . S
C617 C615 1.327 . S
C618 C606 1.349 . S
C618 H612 0.950 . S
C618 C619 1.327 . S
C619 H613 0.950 . S
C619 C618 1.327 . S
C619 C623 1.429 . S
C620 C603 1.574 . S
C620 H614 0.949 1_556 S
C620 C624 1.368 . S
C621 C602 1.429 . S
C621 C615 1.429 . S
C621 C622 1.523 . S
C622 C603 1.368 . S
C622 C616 1.368 . S
C622 C621 1.523 . S
C623 C607 1.429 1_556 S
C623 C619 1.429 . S
C623 C624 1.523 . S
C624 C608 1.368 . S
C624 C620 1.368 . S
C624 C623 1.523 . S
H625 C600 0.950 . S
H626 C602 0.950 . S
H627 C603 0.949 . S
H628 C605 0.950 . S
H629 C607 0.950 . S
C630 C631 1.349 . S
C630 C632 1.327 . S
C630 H655 0.950 . S
C631 C630 1.349 . S
C631 C647 1.349 . S
C632 C630 1.327 . S
C632 C651 1.429 . S
C632 H656 0.950 . S
C633 C650 1.574 . S
C633 C652 1.368 . S
C633 H657 0.949 . S
H634 C638 0.949 . S
C635 C636 1.349 . S
C635 C637 1.327 . S
C635 H658 0.950 . S
C636 C635 1.349 . S
C636 C648 1.349 . S
C637 C635 1.327 . S
C637 C653 1.429 . S
C637 H659 0.950 . S
C638 H634 0.949 . S
C638 C646 1.574 . S
C638 C654 1.368 . S
H639 C647 0.950 . S
H640 C645 0.950 . S
H641 C646 0.949 . S
H642 C648 0.950 . S
H643 C649 0.950 . S
H644 C650 0.949 . S
C645 H640 0.950 . S
C645 C647 1.327 . S
C645 C651 1.429 . S
C646 C638 1.574 . S
C646 H641 0.949 . S
C646 C652 1.368 . S
C647 C631 1.349 . S
C647 H639 0.950 . S
C647 C645 1.327 . S
C648 C636 1.349 . S
C648 H642 0.950 . S
C648 C649 1.327 . S
C649 H643 0.950 . S
C649 C648 1.327 . S
C649 C653 1.429 . S
C650 C633 1.574 . S
C650 H644 0.949 . S
C650 C654 1.368 . S
C651 C632 1.429 . S
C651 C645 1.429 . S
C651 C652 1.523 . S
C652 C633 1.368 . S
C652 C646 1.368 . S
C652 C651 1.523 . S
C653 C637 1.429 . S
C653 C649 1.429 . S
C653 C654 1.523 . S
C654 C638 1.368 . S
C654 C650 1.368 . S
C654 C653 1.523 . S
H655 C630 0.950 . S
H656 C632 0.950 . S
H657 C633 0.949 . S
H658 C635 0.950 . S
H659 C637 0.950 . S
C660 C661 1.349 . S
C660 C662 1.327 . S
C660 H685 0.950 . S
C661 C660 1.349 . S
C661 C677 1.349 . S
C662 C660 1.327 . S
C662 C681 1.429 . S
C662 H686 0.950 . S
C663 C680 1.574 . S
C663 C682 1.368 . S
C663 H687 0.949 . S
H664 C668 0.949 . S
C665 C666 1.349 . S
C665 C667 1.327 . S
C665 H688 0.950 . S
C666 C665 1.349 . S
C666 C678 1.349 . S
C667 C665 1.327 . S
C667 C683 1.429 . S
C667 H689 0.950 . S
C668 H664 0.949 . S
C668 C676 1.574 . S
C668 C684 1.368 . S
H669 C677 0.950 . S
H670 C675 0.950 . S
H671 C676 0.949 . S
H672 C678 0.950 . S
H673 C679 0.950 . S
H674 C680 0.949 . S
C675 H670 0.950 . S
C675 C677 1.327 . S
C675 C681 1.429 . S
C676 C668 1.574 . S
C676 H671 0.949 . S
C676 C682 1.368 . S
C677 C661 1.349 . S
C677 H669 0.950 . S
C677 C675 1.327 . S
C678 C666 1.349 . S
C678 H672 0.950 . S
C678 C679 1.327 . S
C679 H673 0.950 . S
C679 C678 1.327 . S
C679 C683 1.429 . S
C680 C663 1.574 . S
C680 H674 0.949 . S
C680 C684 1.368 . S
C681 C662 1.429 . S
C681 C675 1.429 . S
C681 C682 1.523 . S
C682 C663 1.368 . S
C682 C676 1.368 . S
C682 C681 1.523 . S
C683 C667 1.429 . S
C683 C679 1.429 . S
C683 C684 1.523 . S
C684 C668 1.368 . S
C684 C680 1.368 . S
C684 C683 1.523 . S
H685 C660 0.950 . S
H686 C662 0.950 . S
H687 C663 0.949 . S
H688 C665 0.950 . S
H689 C667 0.950 . S
C690 C691 1.349 . S
C690 C692 1.327 . S
C690 H715 0.950 . S
C691 C690 1.349 . S
C691 C707 1.349 . S
C692 C690 1.327 . S
C692 C711 1.429 . S
C692 H716 0.950 . S
C693 C710 1.574 . S
C693 C712 1.368 . S
C693 H717 0.949 . S
H694 C698 0.949 . S
C695 C696 1.349 . S
C695 C697 1.327 . S
C695 H718 0.950 . S
C696 C695 1.349 . S
C696 C708 1.349 . S
C697 C695 1.327 . S
C697 C713 1.429 . S
C697 H719 0.950 . S
C698 H694 0.949 . S
C698 C706 1.574 . S
C698 C714 1.368 . S
H699 C707 0.950 . S
H700 C705 0.950 . S
H701 C706 0.949 . S
H702 C708 0.950 . S
H703 C709 0.950 . S
H704 C710 0.949 . S
C705 H700 0.950 . S
C705 C707 1.327 . S
C705 C711 1.429 . S
C706 C698 1.574 . S
C706 H701 0.949 . S
C706 C712 1.368 . S
C707 C691 1.349 . S
C707 H699 0.950 . S
C707 C705 1.327 . S
C708 C696 1.349 . S
C708 H702 0.950 . S
C708 C709 1.327 . S
C709 H703 0.950 . S
C709 C708 1.327 . S
C709 C713 1.429 . S
C710 C693 1.574 . S
C710 H704 0.949 . S
C710 C714 1.368 . S
C711 C692 1.429 . S
C711 C705 1.429 . S
C711 C712 1.523 . S
C712 C693 1.368 . S
C712 C706 1.368 . S
C712 C711 1.523 . S
C713 C697 1.429 . S
C713 C709 1.429 . S
C713 C714 1.523 . S
C714 C698 1.368 . S
C714 C710 1.368 . S
C714 C713 1.523 . S
H715 C690 0.950 . S
H716 C692 0.950 . S
H717 C693 0.949 . S
H718 C695 0.950 . S
H719 C697 0.950 . S
C720 C721 1.349 . S
C720 C722 1.327 . S
C720 H745 0.950 . S
C721 C720 1.349 . S
C721 C737 1.349 . S
C722 C720 1.327 . S
C722 C741 1.429 . S
C722 H746 0.950 . S
C723 C740 1.574 . S
C723 C742 1.368 . S
C723 H747 0.949 . S
H724 C728 0.949 . S
C725 C726 1.349 . S
C725 C727 1.327 . S
C725 H748 0.950 . S
C726 C725 1.349 . S
C726 C738 1.349 . S
C727 C725 1.327 . S
C727 C743 1.429 . S
C727 H749 0.950 . S
C728 H724 0.949 . S
C728 C736 1.574 . S
C728 C744 1.368 . S
H729 C737 0.950 . S
H730 C735 0.950 . S
H731 C736 0.949 . S
H732 C738 0.950 . S
H733 C739 0.950 . S
H734 C740 0.949 . S
C735 H730 0.950 . S
C735 C737 1.327 . S
C735 C741 1.429 . S
C736 C728 1.574 . S
C736 H731 0.949 . S
C736 C742 1.368 . S
C737 C721 1.349 . S
C737 H729 0.950 . S
C737 C735 1.327 . S
C738 C726 1.349 . S
C738 H732 0.950 . S
C738 C739 1.327 . S
C739 H733 0.950 . S
C739 C738 1.327 . S
C739 C743 1.429 . S
C740 C723 1.574 . S
C740 H734 0.949 . S
C740 C744 1.368 . S
C741 C722 1.429 . S
C741 C735 1.429 . S
C741 C742 1.523 . S
C742 C723 1.368 . S
C742 C736 1.368 . S
C742 C741 1.523 . S
C743 C727 1.429 . S
C743 C739 1.429 . S
C743 C744 1.523 . S
C744 C728 1.368 . S
C744 C740 1.368 . S
C744 C743 1.523 . S
H745 C720 0.950 . S
H746 C722 0.950 . S
H747 C723 0.949 . S
H748 C725 0.950 . S
H749 C727 0.950 . S
C750 C751 1.349 . S
C750 C752 1.327 . S
C750 H775 0.950 . S
C751 C750 1.349 . S
C751 C767 1.349 . S
C752 C750 1.327 . S
C752 C771 1.429 . S
C752 H776 0.950 . S
C753 C770 1.574 . S
C753 C772 1.368 . S
C753 H777 0.949 . S
H754 C758 0.949 . S
C755 C756 1.349 . S
C755 C757 1.327 . S
C755 H778 0.950 . S
C756 C755 1.349 . S
C756 C768 1.365 . S
C757 C755 1.327 . S
C757 C773 1.429 . S
C757 H779 0.950 . S
C758 H754 0.949 . S
C758 C766 1.574 . S
C758 C774 1.368 . S
H759 C767 0.950 . S
H760 C765 0.950 . S
H761 C766 0.949 . S
H762 C768 0.927 1_556 S
H763 C769 0.950 1_556 S
H764 C770 0.949 . S
C765 H760 0.950 . S
C765 C767 1.327 . S
C765 C771 1.429 . S
C766 C758 1.574 . S
C766 H761 0.949 . S
C766 C772 1.368 . S
C767 C751 1.349 . S
C767 H759 0.950 . S
C767 C765 1.327 . S
C768 C756 1.365 . S
C768 H762 0.927 1_554 S
C768 C769 1.335 . S
C769 H763 0.950 1_554 S
C769 C768 1.335 . S
C769 C773 1.429 . S
C770 C753 1.574 . S
C770 H764 0.949 . S
C770 C774 1.368 . S
C771 C752 1.429 . S
C771 C765 1.429 . S
C771 C772 1.523 . S
C772 C753 1.368 . S
C772 C766 1.368 . S
C772 C771 1.523 . S
C773 C757 1.429 . S
C773 C769 1.429 . S
C773 C774 1.523 . S
C774 C758 1.368 . S
C774 C770 1.368 . S
C774 C773 1.523 . S
H775 C750 0.950 . S
H776 C752 0.950 . S
H777 C753 0.949 . S
H778 C755 0.950 . S
H779 C757 0.950 . S
C780 C781 1.349 . S
C780 C782 1.327 . S
C780 H805 0.950 . S
C781 C780 1.349 . S
C781 C797 1.349 . S
C782 C780 1.327 . S
C782 C801 1.429 . S
C782 H806 0.950 . S
C783 C800 1.574 . S
C783 C802 1.368 . S
C783 H807 0.949 . S
H784 C788 0.949 . S
C785 C786 1.349 . S
C785 C787 1.327 . S
C785 H808 0.950 . S
C786 C785 1.349 . S
C786 C798 1.349 . S
C787 C785 1.327 . S
C787 C803 1.429 . S
C787 H809 0.950 . S
C788 H784 0.949 . S
C788 C796 1.574 . S
C788 C804 1.368 . S
H789 C797 0.950 . S
H790 C795 0.950 . S
H791 C796 0.949 . S
H792 C798 0.950 . S
H793 C799 0.950 . S
H794 C800 0.949 . S
C795 H790 0.950 . S
C795 C797 1.327 . S
C795 C801 1.429 . S
C796 C788 1.574 . S
C796 H791 0.949 . S
C796 C802 1.368 . S
C797 C781 1.349 . S
C797 H789 0.950 . S
C797 C795 1.327 . S
C798 C786 1.349 . S
C798 H792 0.950 . S
C798 C799 1.327 . S
C799 H793 0.950 . S
C799 C798 1.327 . S
C799 C803 1.429 . S
C800 C783 1.574 . S
C800 H794 0.949 . S
C800 C804 1.368 . S
C801 C782 1.429 . S
C801 C795 1.429 . S
C801 C802 1.523 . S
C802 C783 1.368 . S
C802 C796 1.368 . S
C802 C801 1.523 . S
C803 C787 1.429 . S
C803 C799 1.429 . S
C803 C804 1.523 . S
C804 C788 1.368 . S
C804 C800 1.368 . S
C804 C803 1.523 . S
H805 C780 0.950 . S
H806 C782 0.950 . S
H807 C783 0.949 . S
H808 C785 0.950 . S
H809 C787 0.950 . S
C810 C811 1.349 . S
C810 C812 1.327 . S
C810 H835 0.950 . S
C811 C810 1.349 . S
C811 C827 1.349 . S
C812 C810 1.327 . S
C812 C831 1.429 . S
C812 H836 0.950 . S
C813 C830 1.574 . S
C813 C832 1.368 . S
C813 H837 0.949 . S
H814 C818 0.949 . S
C815 C816 1.349 . S
C815 C817 1.327 . S
C815 H838 0.950 . S
C816 C815 1.349 . S
C816 C828 1.349 . S
C817 C815 1.327 . S
C817 C833 1.429 . S
C817 H839 0.950 . S
C818 H814 0.949 . S
C818 C826 1.574 . S
C818 C834 1.368 . S
H819 C827 0.950 . S
H820 C825 0.950 . S
H821 C826 0.949 . S
H822 C828 0.950 . S
H823 C829 0.950 . S
H824 C830 0.949 . S
C825 H820 0.950 . S
C825 C827 1.327 . S
C825 C831 1.429 . S
C826 C818 1.574 . S
C826 H821 0.949 . S
C826 C832 1.368 . S
C827 C811 1.349 . S
C827 H819 0.950 . S
C827 C825 1.327 . S
C828 C816 1.349 . S
C828 H822 0.950 . S
C828 C829 1.327 . S
C829 H823 0.950 . S
C829 C828 1.327 . S
C829 C833 1.429 . S
C830 C813 1.574 . S
C830 H824 0.949 . S
C830 C834 1.368 . S
C831 C812 1.429 . S
C831 C825 1.429 . S
C831 C832 1.523 . S
C832 C813 1.368 . S
C832 C826 1.368 . S
C832 C831 1.523 . S
C833 C817 1.429 . S
C833 C829 1.429 . S
C833 C834 1.523 . S
C834 C818 1.368 . S
C834 C830 1.368 . S
C834 C833 1.523 . S
H835 C810 0.950 . S
H836 C812 0.950 . S
H837 C813 0.949 . S
H838 C815 0.950 . S
H839 C817 0.950 . S
C840 C841 1.349 . S
C840 C842 1.327 . S
C840 H865 0.950 . S
C841 C840 1.349 . S
C841 C857 1.349 . S
C842 C840 1.327 . S
C842 C861 1.429 . S
C842 H866 0.950 . S
C843 C860 1.574 . S
C843 C862 1.368 . S
C843 H867 0.949 . S
H844 C848 0.949 . S
C845 C846 1.349 . S
C845 C847 1.327 . S
C845 H868 0.950 . S
C846 C845 1.349 . S
C846 C858 1.349 . S
C847 C845 1.327 . S
C847 C863 1.429 . S
C847 H869 0.950 . S
C848 H844 0.949 . S
C848 C856 1.574 . S
C848 C864 1.368 . S
H849 C857 0.950 . S
H850 C855 0.950 . S
H851 C856 0.949 . S
H852 C858 0.950 . S
H853 C859 0.950 . S
H854 C860 0.949 . S
C855 H850 0.950 . S
C855 C857 1.327 . S
C855 C861 1.429 . S
C856 C848 1.574 . S
C856 H851 0.949 . S
C856 C862 1.368 . S
C857 C841 1.349 . S
C857 H849 0.950 . S
C857 C855 1.327 . S
C858 C846 1.349 . S
C858 H852 0.950 . S
C858 C859 1.327 . S
C859 H853 0.950 . S
C859 C858 1.327 . S
C859 C863 1.429 . S
C860 C843 1.574 . S
C860 H854 0.949 . S
C860 C864 1.368 . S
C861 C842 1.429 . S
C861 C855 1.429 . S
C861 C862 1.523 . S
C862 C843 1.368 . S
C862 C856 1.368 . S
C862 C861 1.523 . S
C863 C847 1.429 . S
C863 C859 1.429 . S
C863 C864 1.523 . S
C864 C848 1.368 . S
C864 C860 1.368 . S
C864 C863 1.523 . S
H865 C840 0.950 . S
H866 C842 0.950 . S
H867 C843 0.949 . S
H868 C845 0.950 . S
H869 C847 0.950 . S
C870 C871 1.349 . S
C870 C872 1.327 . S
C870 H895 0.950 . S
C871 C870 1.349 . S
C871 C887 1.349 . S
C872 C870 1.327 . S
C872 C891 1.429 . S
C872 H896 0.950 . S
C873 C890 1.574 . S
C873 C892 1.368 . S
C873 H897 0.949 . S
H874 C878 0.949 . S
C875 C876 1.349 . S
C875 C877 1.327 . S
C875 H898 0.950 . S
C876 C875 1.349 . S
C876 C888 1.349 . S
C877 C875 1.327 . S
C877 C893 1.429 . S
C877 H899 0.950 . S
C878 H874 0.949 . S
C878 C886 1.574 . S
C878 C894 1.368 . S
H879 C887 0.950 . S
H880 C885 0.950 . S
H881 C886 0.949 . S
H882 C888 0.950 . S
H883 C889 0.950 . S
H884 C890 0.949 . S
C885 H880 0.950 . S
C885 C887 1.327 . S
C885 C891 1.429 . S
C886 C878 1.574 . S
C886 H881 0.949 . S
C886 C892 1.368 . S
C887 C871 1.349 . S
C887 H879 0.950 . S
C887 C885 1.327 . S
C888 C876 1.349 . S
C888 H882 0.950 . S
C888 C889 1.327 . S
C889 H883 0.950 . S
C889 C888 1.327 . S
C889 C893 1.429 . S
C890 C873 1.574 . S
C890 H884 0.949 . S
C890 C894 1.368 . S
C891 C872 1.429 . S
C891 C885 1.429 . S
C891 C892 1.523 . S
C892 C873 1.368 . S
C892 C886 1.368 . S
C892 C891 1.523 . S
C893 C877 1.429 . S
C893 C889 1.429 . S
C893 C894 1.523 . S
C894 C878 1.368 . S
C894 C890 1.368 . S
C894 C893 1.523 . S
H895 C870 0.950 . S
H896 C872 0.950 . S
H897 C873 0.949 . S
H898 C875 0.950 . S
H899 C877 0.950 . S
C900 C901 1.349 . S
C900 C902 1.327 . S
C900 H925 0.950 . S
C901 C900 1.349 . S
C901 C917 1.349 . S
C902 C900 1.327 . S
C902 C921 1.429 . S
C902 H926 0.950 . S
C903 C920 1.574 . S
C903 C922 1.368 . S
C903 H927 0.949 . S
H904 C908 0.949 . S
C905 C906 1.349 . S
C905 C907 1.327 . S
C905 H928 0.950 . S
C906 C905 1.349 . S
C906 C918 1.349 . S
C907 C905 1.327 . S
C907 C923 1.429 . S
C907 H929 0.950 . S
C908 H904 0.949 . S
C908 C916 1.574 . S
C908 C924 1.368 . S
H909 C917 0.950 . S
H910 C915 0.950 . S
H911 C916 0.949 . S
H912 C918 0.950 . S
H913 C919 0.950 . S
H914 C920 0.949 . S
C915 H910 0.950 . S
C915 C917 1.327 . S
C915 C921 1.429 . S
C916 C908 1.574 . S
C916 H911 0.949 . S
C916 C922 1.368 . S
C917 C901 1.349 . S
C917 H909 0.950 . S
C917 C915 1.327 . S
C918 C906 1.349 . S
C918 H912 0.950 . S
C918 C919 1.327 . S
C919 H913 0.950 . S
C919 C918 1.327 . S
C919 C923 1.429 . S
C920 C903 1.574 . S
C920 H914 0.949 . S
C920 C924 1.368 . S
C921 C902 1.429 . S
C921 C915 1.429 . S
C921 C922 1.523 . S
C922 C903 1.368 . S
C922 C916 1.368 . S
C922 C921 1.523 . S
C923 C907 1.429 . S
C923 C919 1.429 . S
C923 C924 1.523 . S
C924 C908 1.368 . S
C924 C920 1.368 . S
C924 C923 1.523 . S
H925 C900 0.950 . S
H926 C902 0.950 . S
H927 C903 0.949 . S
H928 C905 0.950 . S
H929 C907 0.950 . S
C930 C931 1.349 . S
C930 C932 1.327 . S
C930 H955 0.950 . S
C931 C930 1.349 . S
C931 C947 1.349 . S
C932 C930 1.327 . S
C932 C951 1.429 . S
C932 H956 0.950 . S
C933 C950 1.574 . S
C933 C952 1.368 . S
C933 H957 0.949 . S
H934 C938 0.949 . S
C935 C936 1.349 . S
C935 C937 1.327 . S
C935 H958 0.950 . S
C936 C935 1.349 . S
C936 C948 1.349 . S
C937 C935 1.327 . S
C937 C953 1.429 . S
C937 H959 0.950 . S
C938 H934 0.949 . S
C938 C946 1.574 . S
C938 C954 1.368 . S
H939 C947 0.950 . S
H940 C945 0.950 . S
H941 C946 0.949 . S
H942 C948 0.950 . S
H943 C949 0.950 . S
H944 C950 0.949 . S
C945 H940 0.950 . S
C945 C947 1.327 . S
C945 C951 1.429 . S
C946 C938 1.574 . S
C946 H941 0.949 . S
C946 C952 1.368 . S
C947 C931 1.349 . S
C947 H939 0.950 . S
C947 C945 1.327 . S
C948 C936 1.349 . S
C948 H942 0.950 . S
C948 C949 1.327 . S
C949 H943 0.950 . S
C949 C948 1.327 . S
C949 C953 1.429 . S
C950 C933 1.574 . S
C950 H944 0.949 . S
C950 C954 1.368 . S
C951 C932 1.429 . S
C951 C945 1.429 . S
C951 C952 1.523 . S
C952 C933 1.368 . S
C952 C946 1.368 . S
C952 C951 1.523 . S
C953 C937 1.429 . S
C953 C949 1.429 . S
C953 C954 1.523 . S
C954 C938 1.368 . S
C954 C950 1.368 . S
C954 C953 1.523 . S
H955 C930 0.950 . S
H956 C932 0.950 . S
H957 C933 0.949 . S
H958 C935 0.950 . S
H959 C937 0.950 . S
C960 C961 1.349 . S
C960 C962 1.327 . S
C960 H985 0.950 . S
C961 C960 1.349 . S
C961 C977 1.349 . S
C962 C960 1.327 . S
C962 C981 1.429 . S
C962 H986 0.950 . S
C963 C980 1.574 . S
C963 C982 1.368 . S
C963 H987 0.949 . S
H964 C968 0.949 . S
C965 C966 1.349 . S
C965 C967 1.327 . S
C965 H988 0.950 . S
C966 C965 1.349 . S
C966 C978 1.349 . S
C967 C965 1.327 . S
C967 C983 1.429 . S
C967 H989 0.950 . S
C968 H964 0.949 . S
C968 C976 1.574 . S
C968 C984 1.368 . S
H969 C977 0.950 . S
H970 C975 0.950 . S
H971 C976 0.949 . S
H972 C978 0.950 . S
H973 C979 0.950 . S
H974 C980 0.949 . S
C975 H970 0.950 . S
C975 C977 1.327 . S
C975 C981 1.429 . S
C976 C968 1.574 . S
C976 H971 0.949 . S
C976 C982 1.368 . S
C977 C961 1.349 . S
C977 H969 0.950 . S
C977 C975 1.327 . S
C978 C966 1.349 . S
C978 H972 0.950 . S
C978 C979 1.327 . S
C979 H973 0.950 . S
C979 C978 1.327 . S
C979 C983 1.429 . S
C980 C963 1.574 . S
C980 H974 0.949 . S
C980 C984 1.368 . S
C981 C962 1.429 . S
C981 C975 1.429 . S
C981 C982 1.523 . S
C982 C963 1.368 . S
C982 C976 1.368 . S
C982 C981 1.523 . S
C983 C967 1.429 . S
C983 C979 1.429 . S
C983 C984 1.523 . S
C984 C968 1.368 . S
C984 C980 1.368 . S
C984 C983 1.523 . S
H985 C960 0.950 . S
H986 C962 0.950 . S
H987 C963 0.949 . S
H988 C965 0.950 . S
H989 C967 0.950 . S
C990 C991 1.349 . S
C990 C992 1.327 . S
C990 H1015 0.950 . S
C991 C990 1.349 . S
C991 C1007 1.349 . S
C992 C990 1.327 . S
C992 C1011 1.429 . S
C992 H1016 0.950 . S
C993 C1010 1.574 . S
C993 C1012 1.368 . S
C993 H1017 0.949 . S
H994 C998 0.949 . S
C995 C996 1.349 . S
C995 C997 1.327 . S
C995 H1018 0.950 . S
C996 C995 1.349 . S
C996 C1008 1.349 . S
C997 C995 1.327 . S
C997 C1013 1.429 . S
C997 H1019 0.950 . S
C998 H994 0.949 . S
C998 C1006 1.574 . S
C998 C1014 1.368 . S
H999 C1007 0.950 . S
H1000 C1005 0.950 . S
H1001 C1006 0.949 . S
H1002 C1008 0.950 . S
H1003 C1009 0.950 . S
H1004 C1010 0.949 . S
C1005 H1000 0.950 . S
C1005 C1007 1.327 . S
C1005 C1011 1.429 . S
C1006 C998 1.574 . S
C1006 H1001 0.949 . S
C1006 C1012 1.368 . S
C1007 C991 1.349 . S
C1007 H999 0.950 . S
C1007 C1005 1.327 . S
C1008 C996 1.349 . S
C1008 H1002 0.950 . S
C1008 C1009 1.327 . S
C1009 H1003 0.950 . S
C1009 C1008 1.327 . S
C1009 C1013 1.429 . S
C1010 C993 1.574 . S
C1010 H1004 0.949 . S
C1010 C1014 1.368 . S
C1011 C992 1.429 . S
C1011 C1005 1.429 . S
C1011 C1012 1.523 . S
C1012 C993 1.368 . S
C1012 C1006 1.368 . S
C1012 C1011 1.523 . S
C1013 C997 1.429 . S
C1013 C1009 1.429 . S
C1013 C1014 1.523 . S
C1014 C998 1.368 . S
C1014 C1010 1.368 . S
C1014 C1013 1.523 . S
H1015 C990 0.950 . S
H1016 C992 0.950 . S
H1017 C993 0.949 . S
H1018 C995 0.950 . S
H1019 C997 0.950 . S
C1020 C1021 1.349 . S
C1020 C1022 1.327 . S
C1020 H1045 0.950 . S
C1021 C1020 1.349 . S
C1021 C1037 1.349 . S
C1022 C1020 1.327 . S
C1022 C1041 1.429 . S
C1022 H1046 0.950 . S
C1023 C1040 1.574 . S
C1023 C1042 1.368 . S
C1023 H1047 0.949 . S
H1024 C1028 0.949 . S
C1025 C1026 1.349 . S
C1025 C1027 1.327 . S
C1025 H1048 0.950 . S
C1026 C1025 1.349 . S
C1026 C1038 1.349 . S
C1027 C1025 1.327 . S
C1027 C1043 1.429 . S
C1027 H1049 0.950 . S
C1028 H1024 0.949 . S
C1028 C1036 1.574 . S
C1028 C1044 1.368 . S
H1029 C1037 0.950 . S
H1030 C1035 0.950 . S
H1031 C1036 0.949 . S
H1032 C1038 0.950 . S
H1033 C1039 0.950 . S
H1034 C1040 0.949 . S
C1035 H1030 0.950 . S
C1035 C1037 1.327 . S
C1035 C1041 1.429 . S
C1036 C1028 1.574 . S
C1036 H1031 0.949 . S
C1036 C1042 1.368 . S
C1037 C1021 1.349 . S
C1037 H1029 0.950 . S
C1037 C1035 1.327 . S
C1038 C1026 1.349 . S
C1038 H1032 0.950 . S
C1038 C1039 1.327 . S
C1039 H1033 0.950 . S
C1039 C1038 1.327 . S
C1039 C1043 1.429 . S
C1040 C1023 1.574 . S
C1040 H1034 0.949 . S
C1040 C1044 1.368 . S
C1041 C1022 1.429 . S
C1041 C1035 1.429 . S
C1041 C1042 1.523 . S
C1042 C1023 1.368 . S
C1042 C1036 1.368 . S
C1042 C1041 1.523 . S
C1043 C1027 1.429 . S
C1043 C1039 1.429 . S
C1043 C1044 1.523 . S
C1044 C1028 1.368 . S
C1044 C1040 1.368 . S
C1044 C1043 1.523 . S
H1045 C1020 0.950 . S
H1046 C1022 0.950 . S
H1047 C1023 0.949 . S
H1048 C1025 0.950 . S
H1049 C1027 0.950 . S
C1050 C1051 1.349 . S
C1050 C1052 1.327 . S
C1050 H1075 0.950 . S
C1051 C1050 1.349 . S
C1051 C1067 1.349 . S
C1052 C1050 1.327 . S
C1052 C1071 1.429 . S
C1052 H1076 0.950 . S
C1053 C1070 1.574 . S
C1053 C1072 1.368 . S
C1053 H1077 0.949 . S
H1054 C1058 0.949 . S
C1055 C1056 1.349 . S
C1055 C1057 1.327 . S
C1055 H1078 0.950 . S
C1056 C1055 1.349 . S
C1056 C1068 1.349 . S
C1057 C1055 1.327 . S
C1057 C1073 1.429 . S
C1057 H1079 0.950 . S
C1058 H1054 0.949 . S
C1058 C1066 1.574 . S
C1058 C1074 1.368 . S
H1059 C1067 0.950 . S
H1060 C1065 0.950 . S
H1061 C1066 0.949 . S
H1062 C1068 0.950 . S
H1063 C1069 0.950 . S
H1064 C1070 0.949 . S
C1065 H1060 0.950 . S
C1065 C1067 1.327 . S
C1065 C1071 1.429 . S
C1066 C1058 1.574 . S
C1066 H1061 0.949 . S
C1066 C1072 1.368 . S
C1067 C1051 1.349 . S
C1067 H1059 0.950 . S
C1067 C1065 1.327 . S
C1068 C1056 1.349 . S
C1068 H1062 0.950 . S
C1068 C1069 1.327 . S
C1069 H1063 0.950 . S
C1069 C1068 1.327 . S
C1069 C1073 1.429 . S
C1070 C1053 1.574 . S
C1070 H1064 0.949 . S
C1070 C1074 1.368 . S
C1071 C1052 1.429 . S
C1071 C1065 1.429 . S
C1071 C1072 1.523 . S
C1072 C1053 1.368 . S
C1072 C1066 1.368 . S
C1072 C1071 1.523 . S
C1073 C1057 1.429 . S
C1073 C1069 1.429 . S
C1073 C1074 1.523 . S
C1074 C1058 1.368 . S
C1074 C1070 1.368 . S
C1074 C1073 1.523 . S
H1075 C1050 0.950 . S
H1076 C1052 0.950 . S
H1077 C1053 0.949 . S
H1078 C1055 0.950 . S
H1079 C1057 0.950 . S
C1080 C1081 1.349 . S
C1080 C1082 1.327 . S
C1080 H1105 0.950 . S
C1081 C1080 1.349 . S
C1081 C1097 1.349 . S
C1082 C1080 1.327 . S
C1082 C1101 1.429 . S
C1082 H1106 0.950 . S
C1083 C1100 1.574 . S
C1083 C1102 1.368 . S
C1083 H1107 0.949 . S
H1084 C1088 0.949 . S
C1085 C1086 1.349 . S
C1085 C1087 1.327 . S
C1085 H1108 0.950 . S
C1086 C1085 1.349 . S
C1086 C1098 1.349 . S
C1087 C1085 1.327 . S
C1087 C1103 1.429 . S
C1087 H1109 0.950 . S
C1088 H1084 0.949 . S
C1088 C1096 1.574 . S
C1088 C1104 1.368 . S
H1089 C1097 0.950 . S
H1090 C1095 0.950 . S
H1091 C1096 0.949 . S
H1092 C1098 0.950 . S
H1093 C1099 0.950 . S
H1094 C1100 0.949 . S
C1095 H1090 0.950 . S
C1095 C1097 1.327 . S
C1095 C1101 1.429 . S
C1096 C1088 1.574 . S
C1096 H1091 0.949 . S
C1096 C1102 1.368 . S
C1097 C1081 1.349 . S
C1097 H1089 0.950 . S
C1097 C1095 1.327 . S
C1098 C1086 1.349 . S
C1098 H1092 0.950 . S
C1098 C1099 1.327 . S
C1099 H1093 0.950 . S
C1099 C1098 1.327 . S
C1099 C1103 1.429 . S
C1100 C1083 1.574 . S
C1100 H1094 0.949 . S
C1100 C1104 1.368 . S
C1101 C1082 1.429 . S
C1101 C1095 1.429 . S
C1101 C1102 1.523 . S
C1102 C1083 1.368 . S
C1102 C1096 1.368 . S
C1102 C1101 1.523 . S
C1103 C1087 1.429 . S
C1103 C1099 1.429 . S
C1103 C1104 1.523 . S
C1104 C1088 1.368 . S
C1104 C1100 1.368 . S
C1104 C1103 1.523 . S
H1105 C1080 0.950 . S
H1106 C1082 0.950 . S
H1107 C1083 0.949 . S
H1108 C1085 0.950 . S
H1109 C1087 0.950 . S
C1110 C1111 1.349 . S
C1110 C1112 1.327 . S
C1110 H1135 0.950 . S
C1111 C1110 1.349 . S
C1111 C1127 1.349 . S
C1112 C1110 1.327 . S
C1112 C1131 1.429 . S
C1112 H1136 0.950 . S
C1113 C1130 1.574 . S
C1113 C1132 1.368 . S
C1113 H1137 0.949 . S
H1114 C1118 0.949 . S
C1115 C1116 1.349 . S
C1115 C1117 1.327 . S
C1115 H1138 0.950 . S
C1116 C1115 1.349 . S
C1116 C1128 1.349 . S
C1117 C1115 1.327 . S
C1117 C1133 1.429 . S
C1117 H1139 0.950 . S
C1118 H1114 0.949 . S
C1118 C1126 1.574 . S
C1118 C1134 1.368 . S
H1119 C1127 0.950 . S
H1120 C1125 0.950 . S
H1121 C1126 0.949 . S
H1122 C1128 0.950 . S
H1123 C1129 0.950 . S
H1124 C1130 0.949 . S
C1125 H1120 0.950 . S
C1125 C1127 1.327 . S
C1125 C1131 1.429 . S
C1126 C1118 1.574 . S
C1126 H1121 0.949 . S
C1126 C1132 1.368 . S
C1127 C1111 1.349 . S
C1127 H1119 0.950 . S
C1127 C1125 1.327 . S
C1128 C1116 1.349 . S
C1128 H1122 0.950 . S
C1128 C1129 1.327 . S
C1129 H1123 0.950 . S
C1129 C1128 1.327 . S
C1129 C1133 1.429 . S
C1130 C1113 1.574 . S
C1130 H1124 0.949 . S
C1130 C1134 1.368 . S
C1131 C1112 1.429 . S
C1131 C1125 1.429 . S
C1131 C1132 1.523 . S
C1132 C1113 1.368 . S
C1132 C1126 1.368 . S
C1132 C1131 1.523 . S
C1133 C1117 1.429 . S
C1133 C1129 1.429 . S
C1133 C1134 1.523 . S
C1134 C1118 1.368 . S
C1134 C1130 1.368 . S
C1134 C1133 1.523 . S
H1135 C1110 0.950 . S
H1136 C1112 0.950 . S
H1137 C1113 0.949 . S
H1138 C1115 0.950 . S
H1139 C1117 0.950 . S
C1140 C1141 1.349 . S
C1140 C1142 1.327 . S
C1140 H1165 0.950 . S
C1141 C1140 1.349 . S
C1141 C1157 1.349 . S
C1142 C1140 1.327 . S
C1142 C1161 1.429 . S
C1142 H1166 0.950 . S
C1143 C1160 1.574 . S
C1143 C1162 1.368 . S
C1143 H1167 0.949 . S
H1144 C1148 0.949 . S
C1145 C1146 1.349 . S
C1145 C1147 1.327 . S
C1145 H1168 0.950 . S
C1146 C1145 1.349 . S
C1146 C1158 1.349 . S
C1147 C1145 1.327 . S
C1147 C1163 1.429 . S
C1147 H1169 0.950 . S
C1148 H1144 0.949 . S
C1148 C1156 1.574 . S
C1148 C1164 1.368 . S
H1149 C1157 0.950 . S
H1150 C1155 0.950 . S
H1151 C1156 0.949 . S
H1152 C1158 0.950 . S
H1153 C1159 0.950 . S
H1154 C1160 0.949 . S
C1155 H1150 0.950 . S
C1155 C1157 1.327 . S
C1155 C1161 1.429 . S
C1156 C1148 1.574 . S
C1156 H1151 0.949 . S
C1156 C1162 1.368 . S
C1157 C1141 1.349 . S
C1157 H1149 0.950 . S
C1157 C1155 1.327 . S
C1158 C1146 1.349 . S
C1158 H1152 0.950 . S
C1158 C1159 1.327 . S
C1159 H1153 0.950 . S
C1159 C1158 1.327 . S
C1159 C1163 1.429 . S
C1160 C1143 1.574 . S
C1160 H1154 0.949 . S
C1160 C1164 1.368 . S
C1161 C1142 1.429 . S
C1161 C1155 1.429 . S
C1161 C1162 1.523 . S
C1162 C1143 1.368 . S
C1162 C1156 1.368 . S
C1162 C1161 1.523 . S
C1163 C1147 1.429 . S
C1163 C1159 1.429 . S
C1163 C1164 1.523 . S
C1164 C1148 1.368 . S
C1164 C1160 1.368 . S
C1164 C1163 1.523 . S
H1165 C1140 0.950 . S
H1166 C1142 0.950 . S
H1167 C1143 0.949 . S
H1168 C1145 0.950 . S
H1169 C1147 0.950 . S
C1170 C1171 1.349 . S
C1170 C1172 1.327 . S
C1170 H1195 0.950 . S
C1171 C1170 1.349 . S
C1171 C1187 1.349 . S
C1172 C1170 1.327 . S
C1172 C1191 1.429 . S
C1172 H1196 0.950 . S
C1173 C1190 1.574 . S
C1173 C1192 1.368 . S
C1173 H1197 0.949 . S
H1174 C1178 0.949 . S
C1175 C1176 1.349 . S
C1175 C1177 1.327 . S
C1175 H1198 0.950 . S
C1176 C1175 1.349 . S
C1176 C1188 1.349 . S
C1177 C1175 1.327 . S
C1177 C1193 1.429 . S
C1177 H1199 0.950 . S
C1178 H1174 0.949 . S
C1178 C1186 1.574 . S
C1178 C1194 1.368 . S
H1179 C1187 0.950 . S
H1180 C1185 0.950 . S
H1181 C1186 0.949 . S
H1182 C1188 0.950 . S
H1183 C1189 0.950 . S
H1184 C1190 0.949 . S
C1185 H1180 0.950 . S
C1185 C1187 1.327 . S
C1185 C1191 1.429 . S
C1186 C1178 1.574 . S
C1186 H1181 0.949 . S
C1186 C1192 1.368 . S
C1187 C1171 1.349 . S
C1187 H1179 0.950 . S
C1187 C1185 1.327 . S
C1188 C1176 1.349 . S
C1188 H1182 0.950 . S
C1188 C1189 1.327 . S
C1189 H1183 0.950 . S
C1189 C1188 1.327 . S
C1189 C1193 1.429 . S
C1190 C1173 1.574 . S
C1190 H1184 0.949 . S
C1190 C1194 1.368 . S
C1191 C1172 1.429 . S
C1191 C1185 1.429 . S
C1191 C1192 1.523 . S
C1192 C1173 1.368 . S
C1192 C1186 1.368 . S
C1192 C1191 1.523 . S
C1193 C1177 1.429 . S
C1193 C1189 1.429 . S
C1193 C1194 1.523 . S
C1194 C1178 1.368 . S
C1194 C1190 1.368 . S
C1194 C1193 1.523 . S
H1195 C1170 0.950 . S
H1196 C1172 0.950 . S
H1197 C1173 0.949 . S
H1198 C1175 0.950 . S
H1199 C1177 0.950 . S
C1200 C1201 1.349 . S
C1200 C1202 1.327 . S
C1200 H1225 0.950 . S
C1201 C1200 1.349 . S
C1201 C1217 1.349 . S
C1202 C1200 1.327 . S
C1202 C1221 1.429 . S
C1202 H1226 0.950 . S
C1203 C1220 1.574 . S
C1203 C1222 1.368 . S
C1203 H1227 0.949 . S
H1204 C1208 0.949 . S
C1205 C1206 1.349 . S
C1205 C1207 1.327 . S
C1205 H1228 0.950 . S
C1206 C1205 1.349 . S
C1206 C1218 1.349 . S
C1207 C1205 1.327 . S
C1207 C1223 1.429 . S
C1207 H1229 0.950 . S
C1208 H1204 0.949 . S
C1208 C1216 1.574 . S
C1208 C1224 1.368 . S
H1209 C1217 0.950 . S
H1210 C1215 0.950 . S
H1211 C1216 0.949 . S
H1212 C1218 0.950 . S
H1213 C1219 0.950 . S
H1214 C1220 0.949 . S
C1215 H1210 0.950 . S
C1215 C1217 1.327 . S
C1215 C1221 1.429 . S
C1216 C1208 1.574 . S
C1216 H1211 0.949 . S
C1216 C1222 1.368 . S
C1217 C1201 1.349 . S
C1217 H1209 0.950 . S
C1217 C1215 1.327 . S
C1218 C1206 1.349 . S
C1218 H1212 0.950 . S
C1218 C1219 1.327 . S
C1219 H1213 0.950 . S
C1219 C1218 1.327 . S
C1219 C1223 1.429 . S
C1220 C1203 1.574 . S
C1220 H1214 0.949 . S
C1220 C1224 1.368 . S
C1221 C1202 1.429 . S
C1221 C1215 1.429 . S
C1221 C1222 1.523 . S
C1222 C1203 1.368 . S
C1222 C1216 1.368 . S
C1222 C1221 1.523 . S
C1223 C1207 1.429 . S
C1223 C1219 1.429 . S
C1223 C1224 1.523 . S
C1224 C1208 1.368 . S
C1224 C1220 1.368 . S
C1224 C1223 1.523 . S
H1225 C1200 0.950 . S
H1226 C1202 0.950 . S
H1227 C1203 0.949 . S
H1228 C1205 0.950 . S
H1229 C1207 0.950 . S
C1230 C1231 1.349 . S
C1230 C1232 1.327 . S
C1230 H1255 0.950 . S
C1231 C1230 1.349 . S
C1231 C1247 1.349 . S
C1232 C1230 1.327 . S
C1232 C1251 1.429 . S
C1232 H1256 0.950 . S
C1233 C1250 1.574 . S
C1233 C1252 1.368 . S
C1233 H1257 0.949 . S
H1234 C1238 0.949 . S
C1235 C1236 1.349 . S
C1235 C1237 1.327 . S
C1235 H1258 0.950 . S
C1236 C1235 1.349 . S
C1236 C1248 1.349 . S
C1237 C1235 1.327 . S
C1237 C1253 1.429 . S
C1237 H1259 0.950 . S
C1238 H1234 0.949 . S
C1238 C1246 1.574 . S
C1238 C1254 1.368 . S
H1239 C1247 0.950 . S
H1240 C1245 0.950 . S
H1241 C1246 0.949 . S
H1242 C1248 0.950 . S
H1243 C1249 0.950 . S
H1244 C1250 0.949 . S
C1245 H1240 0.950 . S
C1245 C1247 1.327 . S
C1245 C1251 1.429 . S
C1246 C1238 1.574 . S
C1246 H1241 0.949 . S
C1246 C1252 1.368 . S
C1247 C1231 1.349 . S
C1247 H1239 0.950 . S
C1247 C1245 1.327 . S
C1248 C1236 1.349 . S
C1248 H1242 0.950 . S
C1248 C1249 1.327 . S
C1249 H1243 0.950 . S
C1249 C1248 1.327 . S
C1249 C1253 1.429 . S
C1250 C1233 1.574 . S
C1250 H1244 0.949 . S
C1250 C1254 1.368 . S
C1251 C1232 1.429 . S
C1251 C1245 1.429 . S
C1251 C1252 1.523 . S
C1252 C1233 1.368 . S
C1252 C1246 1.368 . S
C1252 C1251 1.523 . S
C1253 C1237 1.429 . S
C1253 C1249 1.429 . S
C1253 C1254 1.523 . S
C1254 C1238 1.368 . S
C1254 C1250 1.368 . S
C1254 C1253 1.523 . S
H1255 C1230 0.950 . S
H1256 C1232 0.950 . S
H1257 C1233 0.949 . S
H1258 C1235 0.950 . S
H1259 C1237 0.950 . S
C1260 C1261 1.349 . S
C1260 C1262 1.327 . S
C1260 H1285 0.950 . S
C1261 C1260 1.349 . S
C1261 C1277 1.349 . S
C1262 C1260 1.327 . S
C1262 C1281 1.429 . S
C1262 H1286 0.950 . S
C1263 C1280 1.574 . S
C1263 C1282 1.368 . S
C1263 H1287 0.949 . S
H1264 C1268 0.949 . S
C1265 C1266 1.349 . S
C1265 C1267 1.327 . S
C1265 H1288 0.950 . S
C1266 C1265 1.349 . S
C1266 C1278 1.349 . S
C1267 C1265 1.327 . S
C1267 C1283 1.429 . S
C1267 H1289 0.950 . S
C1268 H1264 0.949 . S
C1268 C1276 1.574 . S
C1268 C1284 1.368 . S
H1269 C1277 0.950 . S
H1270 C1275 0.950 . S
H1271 C1276 0.949 . S
H1272 C1278 0.950 . S
H1273 C1279 0.950 . S
H1274 C1280 0.949 . S
C1275 H1270 0.950 . S
C1275 C1277 1.327 . S
C1275 C1281 1.429 . S
C1276 C1268 1.574 . S
C1276 H1271 0.949 . S
C1276 C1282 1.368 . S
C1277 C1261 1.349 . S
C1277 H1269 0.950 . S
C1277 C1275 1.327 . S
C1278 C1266 1.349 . S
C1278 H1272 0.950 . S
C1278 C1279 1.327 . S
C1279 H1273 0.950 . S
C1279 C1278 1.327 . S
C1279 C1283 1.429 . S
C1280 C1263 1.574 . S
C1280 H1274 0.949 . S
C1280 C1284 1.368 . S
C1281 C1262 1.429 . S
C1281 C1275 1.429 . S
C1281 C1282 1.523 . S
C1282 C1263 1.368 . S
C1282 C1276 1.368 . S
C1282 C1281 1.523 . S
C1283 C1267 1.429 . S
C1283 C1279 1.429 . S
C1283 C1284 1.523 . S
C1284 C1268 1.368 . S
C1284 C1280 1.368 . S
C1284 C1283 1.523 . S
H1285 C1260 0.950 . S
H1286 C1262 0.950 . S
H1287 C1263 0.949 . S
H1288 C1265 0.950 . S
H1289 C1267 0.950 . S
C1290 C1291 1.349 . S
C1290 C1292 1.327 . S
C1290 H1315 0.950 . S
C1291 C1290 1.349 . S
C1291 C1307 1.349 . S
C1292 C1290 1.327 . S
C1292 C1311 1.429 . S
C1292 H1316 0.950 . S
C1293 C1310 1.574 . S
C1293 C1312 1.368 . S
C1293 H1317 0.949 . S
H1294 C1298 0.949 . S
C1295 C1296 1.349 . S
C1295 C1297 1.327 . S
C1295 H1318 0.950 . S
C1296 C1295 1.349 . S
C1296 C1308 1.349 . S
C1297 C1295 1.327 . S
C1297 C1313 1.429 . S
C1297 H1319 0.950 . S
C1298 H1294 0.949 . S
C1298 C1306 1.574 . S
C1298 C1314 1.368 . S
H1299 C1307 0.950 . S
H1300 C1305 0.950 . S
H1301 C1306 0.949 . S
H1302 C1308 0.950 . S
H1303 C1309 0.950 . S
H1304 C1310 0.949 . S
C1305 H1300 0.950 . S
C1305 C1307 1.327 . S
C1305 C1311 1.429 . S
C1306 C1298 1.574 . S
C1306 H1301 0.949 . S
C1306 C1312 1.368 . S
C1307 C1291 1.349 . S
C1307 H1299 0.950 . S
C1307 C1305 1.327 . S
C1308 C1296 1.349 . S
C1308 H1302 0.950 . S
C1308 C1309 1.327 . S
C1309 H1303 0.950 . S
C1309 C1308 1.327 . S
C1309 C1313 1.429 . S
C1310 C1293 1.574 . S
C1310 H1304 0.949 . S
C1310 C1314 1.368 . S
C1311 C1292 1.429 . S
C1311 C1305 1.429 . S
C1311 C1312 1.523 . S
C1312 C1293 1.368 . S
C1312 C1306 1.368 . S
C1312 C1311 1.523 . S
C1313 C1297 1.429 . S
C1313 C1309 1.429 . S
C1313 C1314 1.523 . S
C1314 C1298 1.368 . S
C1314 C1310 1.368 . S
C1314 C1313 1.523 . S
H1315 C1290 0.950 . S
H1316 C1292 0.950 . S
H1317 C1293 0.949 . S
H1318 C1295 0.950 . S
H1319 C1297 0.950 . S
C1320 C1321 1.349 . S
C1320 C1322 1.327 . S
C1320 H1345 0.950 . S
C1321 C1320 1.349 . S
C1321 C1337 1.349 . S
C1322 C1320 1.327 . S
C1322 C1341 1.429 . S
C1322 H1346 0.950 . S
C1323 C1340 1.574 . S
C1323 C1342 1.368 . S
C1323 H1347 0.949 . S
H1324 C1328 0.949 . S
C1325 C1326 1.349 . S
C1325 C1327 1.327 . S
C1325 H1348 0.950 . S
C1326 C1325 1.349 . S
C1326 C1338 1.349 . S
C1327 C1325 1.327 . S
C1327 C1343 1.429 . S
C1327 H1349 0.950 . S
C1328 H1324 0.949 . S
C1328 C1336 1.574 . S
C1328 C1344 1.368 . S
H1329 C1337 0.950 . S
H1330 C1335 0.950 . S
H1331 C1336 0.949 . S
H1332 C1338 0.950 . S
H1333 C1339 0.950 . S
H1334 C1340 0.949 . S
C1335 H1330 0.950 . S
C1335 C1337 1.327 . S
C1335 C1341 1.429 . S
C1336 C1328 1.574 . S
C1336 H1331 0.949 . S
C1336 C1342 1.368 . S
C1337 C1321 1.349 . S
C1337 H1329 0.950 . S
C1337 C1335 1.327 . S
C1338 C1326 1.349 . S
C1338 H1332 0.950 . S
C1338 C1339 1.327 . S
C1339 H1333 0.950 . S
C1339 C1338 1.327 . S
C1339 C1343 1.429 . S
C1340 C1323 1.574 . S
C1340 H1334 0.949 . S
C1340 C1344 1.368 . S
C1341 C1322 1.429 . S
C1341 C1335 1.429 . S
C1341 C1342 1.523 . S
C1342 C1323 1.368 . S
C1342 C1336 1.368 . S
C1342 C1341 1.523 . S
C1343 C1327 1.429 . S
C1343 C1339 1.429 . S
C1343 C1344 1.523 . S
C1344 C1328 1.368 . S
C1344 C1340 1.368 . S
C1344 C1343 1.523 . S
H1345 C1320 0.950 . S
H1346 C1322 0.950 . S
H1347 C1323 0.949 . S
H1348 C1325 0.950 . S
H1349 C1327 0.950 . S
C1350 C1351 1.349 . S
C1350 C1352 1.327 . S
C1350 H1375 0.950 . S
C1351 C1350 1.349 . S
C1351 C1367 1.349 . S
C1352 C1350 1.327 . S
C1352 C1371 1.429 . S
C1352 H1376 0.950 . S
C1353 C1370 1.574 . S
C1353 C1372 1.368 . S
C1353 H1377 0.949 . S
H1354 C1358 0.949 . S
C1355 C1356 1.349 . S
C1355 C1357 1.327 . S
C1355 H1378 0.950 . S
C1356 C1355 1.349 . S
C1356 C1368 1.349 . S
C1357 C1355 1.327 . S
C1357 C1373 1.429 . S
C1357 H1379 0.950 . S
C1358 H1354 0.949 . S
C1358 C1366 1.574 . S
C1358 C1374 1.368 . S
H1359 C1367 0.950 . S
H1360 C1365 0.950 . S
H1361 C1366 0.949 . S
H1362 C1368 0.950 . S
H1363 C1369 0.950 . S
H1364 C1370 0.949 . S
C1365 H1360 0.950 . S
C1365 C1367 1.327 . S
C1365 C1371 1.429 . S
C1366 C1358 1.574 . S
C1366 H1361 0.949 . S
C1366 C1372 1.368 . S
C1367 C1351 1.349 . S
C1367 H1359 0.950 . S
C1367 C1365 1.327 . S
C1368 C1356 1.349 . S
C1368 H1362 0.950 . S
C1368 C1369 1.327 . S
C1369 H1363 0.950 . S
C1369 C1368 1.327 . S
C1369 C1373 1.429 . S
C1370 C1353 1.574 . S
C1370 H1364 0.949 . S
C1370 C1374 1.368 . S
C1371 C1352 1.429 . S
C1371 C1365 1.429 . S
C1371 C1372 1.523 . S
C1372 C1353 1.368 . S
C1372 C1366 1.368 . S
C1372 C1371 1.523 . S
C1373 C1357 1.429 . S
C1373 C1369 1.429 . S
C1373 C1374 1.523 . S
C1374 C1358 1.368 . S
C1374 C1370 1.368 . S
C1374 C1373 1.523 . S
H1375 C1350 0.950 . S
H1376 C1352 0.950 . S
H1377 C1353 0.949 . S
H1378 C1355 0.950 . S
H1379 C1357 0.950 . S
C1380 C1381 1.349 . S
C1380 C1382 1.327 . S
C1380 H1405 0.950 . S
C1381 C1380 1.349 . S
C1381 C1397 1.349 . S
C1382 C1380 1.327 . S
C1382 C1401 1.429 . S
C1382 H1406 0.950 . S
C1383 C1400 1.574 . S
C1383 C1402 1.368 . S
C1383 H1407 0.949 . S
H1384 C1388 0.949 . S
C1385 C1386 1.349 . S
C1385 C1387 1.327 . S
C1385 H1408 0.950 . S
C1386 C1385 1.349 . S
C1386 C1398 1.349 . S
C1387 C1385 1.327 . S
C1387 C1403 1.429 . S
C1387 H1409 0.950 . S
C1388 H1384 0.949 . S
C1388 C1396 1.574 . S
C1388 C1404 1.368 . S
H1389 C1397 0.950 . S
H1390 C1395 0.950 . S
H1391 C1396 0.949 . S
H1392 C1398 0.950 . S
H1393 C1399 0.950 . S
H1394 C1400 0.949 . S
C1395 H1390 0.950 . S
C1395 C1397 1.327 . S
C1395 C1401 1.429 . S
C1396 C1388 1.574 . S
C1396 H1391 0.949 . S
C1396 C1402 1.368 . S
C1397 C1381 1.349 . S
C1397 H1389 0.950 . S
C1397 C1395 1.327 . S
C1398 C1386 1.349 . S
C1398 H1392 0.950 . S
C1398 C1399 1.327 . S
C1399 H1393 0.950 . S
C1399 C1398 1.327 . S
C1399 C1403 1.429 . S
C1400 C1383 1.574 . S
C1400 H1394 0.949 . S
C1400 C1404 1.368 . S
C1401 C1382 1.429 . S
C1401 C1395 1.429 . S
C1401 C1402 1.523 . S
C1402 C1383 1.368 . S
C1402 C1396 1.368 . S
C1402 C1401 1.523 . S
C1403 C1387 1.429 . S
C1403 C1399 1.429 . S
C1403 C1404 1.523 . S
C1404 C1388 1.368 . S
C1404 C1400 1.368 . S
C1404 C1403 1.523 . S
H1405 C1380 0.950 . S
H1406 C1382 0.950 . S
H1407 C1383 0.949 . S
H1408 C1385 0.950 . S
H1409 C1387 0.950 . S
C1410 C1411 1.349 . S
C1410 C1412 1.327 . S
C1410 H1435 0.950 . S
C1411 C1410 1.349 . S
C1411 C1427 1.349 . S
C1412 C1410 1.327 . S
C1412 C1431 1.429 . S
C1412 H1436 0.950 . S
C1413 C1430 1.574 . S
C1413 C1432 1.368 . S
C1413 H1437 0.949 . S
H1414 C1418 0.949 . S
C1415 C1416 1.349 . S
C1415 C1417 1.327 . S
C1415 H1438 0.950 . S
C1416 C1415 1.349 . S
C1416 C1428 1.349 . S
C1417 C1415 1.327 . S
C1417 C1433 1.429 . S
C1417 H1439 0.950 . S
C1418 H1414 0.949 . S
C1418 C1426 1.574 . S
C1418 C1434 1.368 . S
H1419 C1427 0.950 . S
H1420 C1425 0.950 . S
H1421 C1426 0.949 . S
H1422 C1428 0.950 . S
H1423 C1429 0.950 . S
H1424 C1430 0.949 . S
C1425 H1420 0.950 . S
C1425 C1427 1.327 . S
C1425 C1431 1.429 . S
C1426 C1418 1.574 . S
C1426 H1421 0.949 . S
C1426 C1432 1.368 . S
C1427 C1411 1.349 . S
C1427 H1419 0.950 . S
C1427 C1425 1.327 . S
C1428 C1416 1.349 . S
C1428 H1422 0.950 . S
C1428 C1429 1.327 . S
C1429 H1423 0.950 . S
C1429 C1428 1.327 . S
C1429 C1433 1.429 . S
C1430 C1413 1.574 . S
C1430 H1424 0.949 . S
C1430 C1434 1.368 . S
C1431 C1412 1.429 . S
C1431 C1425 1.429 . S
C1431 C1432 1.523 . S
C1432 C1413 1.368 . S
C1432 C1426 1.368 . S
C1432 C1431 1.523 . S
C1433 C1417 1.429 . S
C1433 C1429 1.429 . S
C1433 C1434 1.523 . S
C1434 C1418 1.368 . S
C1434 C1430 1.368 . S
C1434 C1433 1.523 . S
H1435 C1410 0.950 . S
H1436 C1412 0.950 . S
H1437 C1413 0.949 . S
H1438 C1415 0.950 . S
H1439 C1417 0.950 . S
C486 C390 1.223 . S
C481 C8 1.200 . S
C516 C404 1.231 . S
C511 C61 1.208 . S
C546 C419 1.221 . S
C541 C107 1.230 . S
C571 C139 1.208 . S
C576 C377 1.198 . S
C601 C192 1.154 . S
C606 C376 1.176 1_556 S
C631 C238 1.154 . S
C636 C391 1.149 . S
C666 C405 1.211 . S
C661 C284 1.213 . S
C696 C418 1.218 . S
C691 C330 1.194 . S
C721 C100 1.159 . S
C726 C446 1.182 . S
C756 C460 1.232 . S
C751 C160 1.202 . S
C781 C15 1.157 . S
C786 C475 1.157 . S
C816 C432 1.154 . S
C811 C54 1.133 . S
C841 C291 1.215 . S
C846 C433 1.207 . S
C871 C337 1.228 . S
C876 C447 1.218 . S
C906 C461 1.218 . S
C901 C199 1.227 . S
C931 C245 1.228 . S
C936 C474 1.253 . S
C966 C399 1.703 . S
C961 C1 1.703 . S
C996 C417 1.660 . S
C991 C68 1.691 . S
C1021 C114 1.697 . S
C1026 C375 1.668 . S
C1051 C146 1.718 . S
C1056 C385 1.719 . S
C1081 C185 1.635 . S
C1086 C413 1.630 . S
C1116 C371 1.634 . S
C1111 C231 1.639 . S
C1146 C389 1.591 . S
C1141 C277 1.635 . S
C1176 C403 1.592 . S
C1171 C323 1.637 . S
C1206 C455 1.631 . S
C1201 C93 1.635 . S
C1236 C473 1.589 . S
C1231 C153 1.630 . S
C1261 C22 1.628 . S
C1266 C427 1.628 . S
C1296 C441 1.625 . S
C1291 C47 1.630 . S
C1326 C469 1.718 . S
C1321 C298 1.709 . S
C1351 C344 1.705 . S
C1356 C431 1.676 . S
C1386 C445 1.670 . S
C1381 C206 1.699 . S
C1416 C459 1.662 . S
C1411 C252 1.694 . S
