# Generated by pormake.
# Topology anh, (6,3)-cn, num edge types: 1
# Building blocks:
#     Node 0, Type 0, BuildingBlock: BETDAH_clean_sbu_0, # of connection points: 6
#     Node 1, Type 0, BuildingBlock: BETDAH_clean_sbu_0, # of connection points: 6
#     Node 2, Type 0, BuildingBlock: BETDAH_clean_sbu_0, # of connection points: 6
#     Node 3, Type 1, BuildingBlock: VETTIZ_charged_linker_0, # of connection points: 3
#     Node 4, Type 1, BuildingBlock: VETTIZ_charged_linker_0, # of connection points: 3
#     Node 5, Type 1, BuildingBlock: VETTIZ_charged_linker_0, # of connection points: 3
#     Node 6, Type 1, BuildingBlock: VETTIZ_charged_linker_0, # of connection points: 3
#     Node 7, Type 1, BuildingBlock: VETTIZ_charged_linker_0, # of connection points: 3
#     Node 8, Type 1, BuildingBlock: VETTIZ_charged_linker_0, # of connection points: 3
#     Edge 9, Type (0, 1), BuildingBlock: XIVTED_clean_linker_0, # of connection points: 2
#     Edge 10, Type (0, 1), BuildingBlock: XIVTED_clean_linker_0, # of connection points: 2
#     Edge 11, Type (0, 1), BuildingBlock: XIVTED_clean_linker_0, # of connection points: 2
#     Edge 12, Type (0, 1), BuildingBlock: XIVTED_clean_linker_0, # of connection points: 2
#     Edge 13, Type (0, 1), BuildingBlock: XIVTED_clean_linker_0, # of connection points: 2
#     Edge 14, Type (0, 1), BuildingBlock: XIVTED_clean_linker_0, # of connection points: 2
#     Edge 15, Type (0, 1), BuildingBlock: XIVTED_clean_linker_0, # of connection points: 2
#     Edge 16, Type (0, 1), BuildingBlock: XIVTED_clean_linker_0, # of connection points: 2
#     Edge 17, Type (0, 1), BuildingBlock: XIVTED_clean_linker_0, # of connection points: 2
#     Edge 18, Type (0, 1), BuildingBlock: XIVTED_clean_linker_0, # of connection points: 2
#     Edge 19, Type (0, 1), BuildingBlock: XIVTED_clean_linker_0, # of connection points: 2
#     Edge 20, Type (0, 1), BuildingBlock: XIVTED_clean_linker_0, # of connection points: 2
#     Edge 21, Type (0, 1), BuildingBlock: XIVTED_clean_linker_0, # of connection points: 2
#     Edge 22, Type (0, 1), BuildingBlock: XIVTED_clean_linker_0, # of connection points: 2
#     Edge 23, Type (0, 1), BuildingBlock: XIVTED_clean_linker_0, # of connection points: 2
#     Edge 24, Type (0, 1), BuildingBlock: XIVTED_clean_linker_0, # of connection points: 2
#     Edge 25, Type (0, 1), BuildingBlock: XIVTED_clean_linker_0, # of connection points: 2
#     Edge 26, Type (0, 1), BuildingBlock: XIVTED_clean_linker_0, # of connection points: 2
# Relax obj value: 0.185
# Max RMSD: 0.212
# Mean RMSD: 0.159
data_MOF--net-anh--node1-BETDAH_clean_sbu_0--node2-VETTIZ_charged_linker_0--edge1-XIVTED_clean_linker_0
_symmetry_space_group_name_H-M    P1
_symmetry_Int_Tables_number       1
_symmetry_cell_setting            triclinic
loop_
_symmetry_equiv_pos_as_xyz
'x, y, z'
_cell_length_a     35.955754
_cell_length_b     43.489952
_cell_length_c     66.733674
_cell_angle_alpha  92.477003
_cell_angle_beta   88.770123
_cell_angle_gamma 128.65963
loop_
_atom_site_label
_atom_site_type_symbol
_atom_site_fract_x
_atom_site_fract_y
_atom_site_fract_z
_atom_type_partial_charge
Ho0 Ho 0.11686 0.51683 0.14118 0.0
Ho1 Ho 1.05163 0.53343 0.15799 0.0
C2 C 0.15844 0.60806 0.15207 0.0
C3 C 0.18382 0.52186 0.12267 0.0
C4 C 0.23421 0.54699 0.12833 0.0
C5 C 0.26708 0.54763 0.11638 0.0
C6 C 0.31382 0.56816 0.12323 0.0
C7 C 0.32795 0.58795 0.14218 0.0
C8 C 0.29546 0.58893 0.15358 0.0
C9 C 0.24896 0.56872 0.14666 0.0
C10 C 0.10876 0.51542 0.18144 0.0
C11 C 1.00895 0.44261 0.14571 0.0
C12 C 0.98556 0.52533 0.17894 0.0
C13 C 0.93433 0.49147 0.1783 0.0
C14 C 0.91053 0.47171 0.19586 0.0
C15 C 0.86356 0.43661 0.1949 0.0
C16 C 0.83972 0.42067 0.17633 0.0
C17 C 0.86374 0.44079 0.15882 0.0
C18 C 0.9105 0.47557 0.15977 0.0
C19 C 1.06087 0.53651 0.11787 0.0
O20 O 0.16255 0.5837 0.14158 0.0
O21 O 0.11965 0.59479 0.16249 0.0
O22 O 0.15533 0.49436 0.1353 0.0
O23 O 0.16838 0.54063 0.1172 0.0
O24 O 0.11462 0.49301 0.17098 0.0
O25 O 0.11153 0.53925 0.17029 0.0
O26 O 1.00523 0.46677 0.15655 0.0
O27 O 1.04791 0.456 0.13538 0.0
O28 O 1.00318 0.54657 0.16294 0.0
O29 O 1.01259 0.51755 0.18579 0.0
O30 O 1.05387 0.55808 0.12861 0.0
O31 O 1.05786 0.51198 0.12861 0.0
H32 H 0.25616 0.53104 0.10219 0.0
H33 H 0.338 0.56647 0.11426 0.0
H34 H 0.30549 0.60398 0.16819 0.0
H35 H 0.22388 0.56863 0.15602 0.0
H36 H 0.9286 0.48301 0.21026 0.0
H37 H 0.84609 0.42183 0.20866 0.0
H38 H 0.84623 0.43003 0.14431 0.0
H39 H 0.92814 0.48961 0.14589 0.0
Ho40 Ho 0.62818 0.02566 0.48776 0.0
Ho41 Ho 0.56569 0.04703 0.4752 0.0
C42 C 0.51395 0.9563 0.47925 0.0
C43 C 0.66301 0.99656 0.50513 0.0
C44 C 0.65091 0.95745 0.50657 0.0
C45 C 0.6496 0.94409 0.52551 0.0
C46 C 0.63872 0.90739 0.52736 0.0
C47 C 0.62922 0.88335 0.51027 0.0
C48 C 0.63047 0.89674 0.49127 0.0
C49 C 0.64095 0.93337 0.48943 0.0
C50 C 0.62394 0.03194 0.44804 0.0
C51 C 0.68005 0.11659 0.48353 0.0
C52 C 0.53192 0.07728 0.45815 0.0
C53 C 0.54389 0.11635 0.4601 0.0
C54 C 0.52514 0.12733 0.44658 0.0
C55 C 0.53601 0.16435 0.44872 0.0
C56 C 0.56586 0.19098 0.46444 0.0
C57 C 0.58489 0.17978 0.47782 0.0
C58 C 0.57408 0.14289 0.47564 0.0
C59 C 0.57041 0.04141 0.51498 0.0
O60 O 0.55307 0.96736 0.48854 0.0
O61 O 0.51268 0.9818 0.46986 0.0
O62 O 0.67734 0.01287 0.4877 0.0
O63 O 0.63389 1.00117 0.51399 0.0
O64 O 0.66154 0.04155 0.45714 0.0
O65 O 0.58973 0.01676 0.46007 0.0
O66 O 0.64028 0.10527 0.47483 0.0
O67 O 0.68267 0.09127 0.49229 0.0
O68 O 0.51312 0.05603 0.47405 0.0
O69 O 0.56479 0.07646 0.45009 0.0
O70 O 0.53295 0.03217 0.50593 0.0
O71 O 0.60434 0.05619 0.50284 0.0
H72 H 0.65723 0.96218 0.53892 0.0
H73 H 0.63859 0.89811 0.54219 0.0
H74 H 0.62287 0.8787 0.47785 0.0
H75 H 0.64133 0.94281 0.47462 0.0
H76 H 0.50197 0.10723 0.43442 0.0
H77 H 0.5212 0.17215 0.43801 0.0
H78 H 0.60732 0.19914 0.4903 0.0
H79 H 0.58887 0.13487 0.48625 0.0
Ho80 Ho 0.62754 0.55274 0.82676 0.0
Ho81 Ho 0.56219 0.46674 0.83865 0.0
C82 C 0.51352 0.50795 0.83538 0.0
C83 C 0.66714 0.61861 0.80938 0.0
C84 C 0.66124 0.64896 0.80782 0.0
C85 C 0.68389 0.67522 0.79222 0.0
C86 C 0.68074 0.70545 0.79074 0.0
C87 C 0.655 0.7102 0.80495 0.0
C88 C 0.63141 0.68319 0.8204 0.0
C89 C 0.63451 0.65278 0.82183 0.0
C90 C 0.62442 0.54135 0.86625 0.0
C91 C 0.67626 0.5116 0.83006 0.0
C92 C 0.52629 0.401 0.85537 0.0
C93 C 0.53683 0.37335 0.85339 0.0
C94 C 0.51792 0.34326 0.86699 0.0
C95 C 0.52762 0.3167 0.8649 0.0
C96 C 0.55645 0.31986 0.84916 0.0
C97 C 0.57563 0.35046 0.8357 0.0
C98 C 0.56603 0.37697 0.83783 0.0
C99 C 0.56743 0.47785 0.79895 0.0
O100 O 0.5539 0.53748 0.82693 0.0
O101 O 0.51002 0.47894 0.84356 0.0
O102 O 0.68053 0.61607 0.82688 0.0
O103 O 0.63417 0.58414 0.80085 0.0
O104 O 0.66225 0.57 0.8572 0.0
O105 O 0.58947 0.52226 0.85433 0.0
O106 O 0.63591 0.48237 0.8386 0.0
O107 O 0.67987 0.54057 0.82179 0.0
O108 O 0.50798 0.40356 0.83942 0.0
O109 O 0.55995 0.43552 0.86365 0.0
O110 O 0.52939 0.44879 0.8077 0.0
O111 O 0.60134 0.49721 0.81132 0.0
H112 H 0.70438 0.67252 0.7812 0.0
H113 H 0.6984 0.72503 0.77837 0.0
H114 H 0.61144 0.68604 0.83163 0.0
H115 H 0.61661 0.63259 0.83397 0.0
H116 H 0.49557 0.34024 0.87917 0.0
H117 H 0.51275 0.29385 0.87568 0.0
H118 H 0.59729 0.3535 0.8232 0.0
H119 H 0.581 0.40009 0.82719 0.0
C120 C 0.70539 0.12975 0.16785 0.0
C121 C 0.74613 0.16509 0.17655 0.0
C122 C 0.75393 0.16781 0.19731 0.0
C123 C 0.68037 0.10161 0.20083 0.0
C124 C 0.67314 0.0981 0.18031 0.0
C125 C 0.6284 0.05754 0.17401 0.0
H126 H 0.4279 0.87944 0.20357 0.0
C127 C 0.64 0.06467 0.20981 0.0
C128 C 0.60918 0.03831 0.19422 0.0
H129 H 0.47165 0.91456 0.14261 0.0
H130 H 0.54329 0.97834 0.15478 0.0
H131 H 0.52697 0.90973 0.21871 0.0
H132 H 0.45537 0.95997 0.22104 0.0
H133 H 0.48446 0.97244 0.24424 0.0
H134 H 0.4397 0.92121 0.23687 0.0
H135 H 0.48029 0.89455 0.23622 0.0
H136 H 0.54192 0.93472 0.24213 0.0
C137 C 0.64307 0.03682 0.16067 0.0
C138 C 0.59436 0.06213 0.16351 0.0
C139 C 0.63 0.05568 0.28589 0.0
C140 C 0.59571 0.02595 0.29871 0.0
C141 C 0.5551 0.99031 0.29023 0.0
C142 C 0.54858 0.98438 0.26943 0.0
C143 C 0.58297 0.01435 0.2568 0.0
C144 C 0.62282 0.04926 0.26506 0.0
C145 C 0.65531 0.07779 0.24926 0.0
C146 C 0.62838 0.05407 0.23016 0.0
C147 C 0.58616 0.01709 0.23474 0.0
C148 C 0.70388 0.08609 0.25088 0.0
C149 C 0.65802 0.11469 0.25228 0.0
C150 C 0.45257 0.90094 0.19278 0.0
C151 C 0.44377 0.89224 0.17215 0.0
C152 C 0.47761 0.9207 0.15862 0.0
C153 C 0.51908 0.95762 0.16572 0.0
C154 C 0.52709 0.96583 0.18655 0.0
C155 C 0.49403 0.93727 0.19957 0.0
C156 C 0.50812 0.94945 0.22112 0.0
C157 C 0.55515 0.99021 0.21916 0.0
C158 C 0.56642 1.00029 0.19893 0.0
C159 C 0.51442 0.92065 0.2302 0.0
C160 C 0.47001 0.95066 0.23154 0.0
H161 H 0.72935 0.14075 0.22519 0.0
H162 H 0.69896 0.12692 0.15185 0.0
H163 H 0.59137 0.0827 0.17243 0.0
H164 H 0.55786 0.03412 0.16188 0.0
H165 H 0.6077 0.07419 0.14839 0.0
H166 H 0.67608 0.04323 0.16657 0.0
H167 H 0.65016 0.04711 0.14507 0.0
H168 H 0.6161 1.00444 0.16033 0.0
H169 H 0.66145 0.08352 0.29191 0.0
H170 H 0.52854 0.96665 0.2997 0.0
H171 H 0.51692 0.95654 0.26403 0.0
H172 H 0.69945 0.06045 0.2568 0.0
H173 H 0.72875 0.11193 0.26113 0.0
H174 H 0.72109 0.09082 0.23616 0.0
H175 H 0.6227 0.10614 0.25662 0.0
H176 H 0.66755 0.13132 0.23853 0.0
H177 H 0.68382 0.13485 0.26436 0.0
H178 H 0.78507 0.19477 0.20421 0.0
C179 C 0.72139 0.13643 0.20946 0.0
C180 C 0.59884 0.62094 0.53324 0.0
C181 C 0.59757 0.64759 0.5454 0.0
C182 C 0.60004 0.6469 0.5664 0.0
C183 C 0.60358 0.5932 0.56301 0.0
C184 C 0.60159 0.59387 0.54238 0.0
C185 C 0.60178 0.56242 0.53199 0.0
H186 H 0.61286 0.4129 0.54018 0.0
C187 C 0.6055 0.56149 0.5679 0.0
C188 C 0.60451 0.54319 0.54983 0.0
H189 H 0.59877 0.45516 0.48576 0.0
H190 H 0.59902 0.50386 0.5052 0.0
H191 H 0.68881 0.49891 0.56348 0.0
H192 H 0.53661 0.40995 0.56313 0.0
H193 H 0.55159 0.43074 0.58758 0.0
H194 H 0.57423 0.40586 0.57796 0.0
H195 H 0.65834 0.45099 0.57347 0.0
H196 H 0.66935 0.49134 0.58853 0.0
C197 C 0.64679 0.58291 0.51882 0.0
C198 C 0.5544 0.53367 0.5202 0.0
C199 C 0.6089 0.53487 0.64097 0.0
C200 C 0.60739 0.50575 0.65027 0.0
C201 C 0.6081 0.47863 0.63832 0.0
C202 C 0.60981 0.48022 0.61737 0.0
C203 C 0.61025 0.50897 0.60823 0.0
C204 C 0.60987 0.53569 0.62001 0.0
C205 C 0.60841 0.56306 0.6077 0.0
C206 C 0.60768 0.5482 0.58657 0.0
C207 C 0.60915 0.5168 0.587 0.0
C208 C 0.65471 0.60558 0.61206 0.0
C209 C 0.56169 0.55667 0.61268 0.0
C210 C 0.61059 0.43307 0.53242 0.0
C211 C 0.6066 0.43076 0.51145 0.0
C212 C 0.6021 0.45662 0.50193 0.0
C213 C 0.6023 0.48481 0.51324 0.0
C214 C 0.6063 0.48668 0.53428 0.0
C215 C 0.60997 0.46076 0.54346 0.0
C216 C 0.61115 0.46505 0.56591 0.0
C217 C 0.60871 0.49847 0.56881 0.0
C218 C 0.60617 0.51135 0.55028 0.0
C219 C 0.6592 0.47697 0.57341 0.0
C220 C 0.56641 0.42595 0.57422 0.0
H221 H 0.60482 0.62117 0.59128 0.0
H222 H 0.59685 0.6207 0.51705 0.0
H223 H 0.52445 0.52949 0.5285 0.0
H224 H 0.54373 0.50379 0.51814 0.0
H225 H 0.55651 0.54507 0.50529 0.0
H226 H 0.67827 0.60903 0.52703 0.0
H227 H 0.64217 0.59322 0.50485 0.0
H228 H 0.65638 0.56382 0.51477 0.0
H229 H 0.60767 0.55573 0.64979 0.0
H230 H 0.60728 0.45611 0.64523 0.0
H231 H 0.61022 0.45872 0.60912 0.0
H232 H 0.68544 0.60579 0.61439 0.0
H233 H 0.65117 0.61884 0.62583 0.0
H234 H 0.66543 0.6252 0.59948 0.0
H235 H 0.5327 0.52567 0.61668 0.0
H236 H 0.54722 0.56141 0.5998 0.0
H237 H 0.56685 0.57603 0.62558 0.0
H238 H 0.60007 0.66756 0.57608 0.0
C239 C 0.60311 0.62002 0.57523 0.0
C240 C 0.20238 0.51077 0.84356 0.0
C241 C 0.23481 0.50942 0.85463 0.0
C242 C 0.23347 0.51125 0.87566 0.0
C243 C 0.17002 0.51627 0.8748 0.0
C244 C 0.16978 0.51393 0.85407 0.0
C245 C 0.13079 0.51441 0.84569 0.0
H246 H 0.95323 0.52962 0.86967 0.0
C247 C 0.13403 0.52058 0.88167 0.0
C248 C 0.11036 0.51985 0.86479 0.0
H249 H 0.98199 0.50752 0.81011 0.0
H250 H 1.04888 0.5119 0.82321 0.0
H251 H 0.96107 0.47305 0.8914 0.0
H252 H 1.05875 0.59672 0.88133 0.0
H253 H 0.076 0.59246 0.90476 0.0
H254 H 1.01686 0.57749 0.90145 0.0
H255 H 0.95724 0.50861 0.90354 0.0
H256 H 0.99088 0.49555 0.91426 0.0
C257 C 0.09336 0.47447 0.83478 0.0
C258 C 0.15336 0.54934 0.83186 0.0
C259 C 0.11369 0.53154 0.95693 0.0
C260 C 0.08725 0.54015 0.96816 0.0
C261 C 1.06228 0.54981 0.95771 0.0
C262 C 1.06091 0.54834 0.93678 0.0
C263 C 0.08546 0.53782 0.92585 0.0
C264 C 0.11284 0.53124 0.93589 0.0
C265 C 0.14042 0.5246 0.92163 0.0
C266 C 0.12281 0.52612 0.90138 0.0
C267 C 0.08983 0.53287 0.90408 0.0
C268 C 0.12517 0.48312 0.92514 0.0
C269 C 0.19433 0.55913 0.92511 0.0
C270 C 0.97371 0.52562 0.85934 0.0
C271 C 0.96183 0.51776 0.83899 0.0
C272 C 0.99018 0.51342 0.826 0.0
C273 C 1.02865 0.51565 0.83362 0.0
C274 C 1.03899 0.52242 0.85441 0.0
C275 C 1.01153 0.52777 0.8666 0.0
C276 C 1.02566 0.53484 0.88813 0.0
C277 C 1.06481 0.53122 0.88745 0.0
C278 C 0.07395 0.52437 0.86772 0.0
C279 C 0.98168 0.50164 0.90012 0.0
C280 C 1.04504 0.57738 0.89441 0.0
H281 H 0.2031 0.51567 0.9017 0.0
H282 H 0.20203 0.50887 0.82733 0.0
H283 H 0.18273 0.57724 0.83981 0.0
H284 H 0.12718 0.55301 0.82702 0.0
H285 H 0.16828 0.54511 0.81825 0.0
H286 H 0.08136 0.44984 0.84463 0.0
H287 H 0.10851 0.47116 0.82094 0.0
H288 H 1.06137 0.47098 0.8306 0.0
H289 H 0.13399 0.52449 0.96421 0.0
H290 H 1.04345 0.55855 0.96564 0.0
H291 H 1.03996 0.55486 0.92999 0.0
H292 H 0.08614 0.46162 0.92774 0.0
H293 H 0.14352 0.48364 0.93848 0.0
H294 H 0.13178 0.47067 0.91209 0.0
H295 H 0.20053 0.58535 0.93262 0.0
H296 H 0.21424 0.57022 0.91087 0.0
H297 H 0.21103 0.55044 0.93469 0.0
H298 H 0.25752 0.51011 0.88449 0.0
C299 C 0.20173 0.51467 0.88568 0.0
C300 C 0.99878 0.42415 0.46131 0.0
C301 C 0.96273 0.38717 0.45214 0.0
C302 C 0.96111 0.38246 0.43114 0.0
C303 C 1.02942 0.45111 0.42839 0.0
C304 C 1.03182 0.45588 0.44908 0.0
C305 C 1.07205 0.49794 0.4558 0.0
H306 H 0.24535 0.68731 0.4286 0.0
C307 C 1.06687 0.48956 0.41982 0.0
C308 C 0.0922 0.51748 0.43574 0.0
H309 H 0.21111 0.64552 0.48887 0.0
H310 H 0.15049 0.57832 0.4758 0.0
H311 H 0.24665 0.62076 0.41102 0.0
H312 H 0.13975 0.63611 0.4118 0.0
H313 H 0.1374 0.61686 0.38778 0.0
H314 H 0.19157 0.66368 0.39625 0.0
H315 H 0.24807 0.65251 0.39418 0.0
H316 H 0.21699 0.60095 0.38788 0.0
C317 C 0.10834 0.49804 0.46786 0.0
C318 C 1.05067 0.51471 0.46779 0.0
C319 C 0.07986 0.50061 0.34395 0.0
C320 C 0.10936 0.53274 0.3315 0.0
C321 C 0.14375 0.57051 0.34034 0.0
C322 C 0.14859 0.57629 0.3612 0.0
C323 C 0.11872 0.544 0.37347 0.0
C324 C 0.08511 0.50696 0.36482 0.0
C325 C 1.05607 0.47633 0.38027 0.0
C326 C 0.07832 0.5011 0.39961 0.0
C327 C 0.11483 0.54057 0.39548 0.0
C328 C 1.06461 0.44559 0.37759 0.0
C329 C 1.00338 0.45923 0.37779 0.0
C330 C 0.22451 0.66377 0.43904 0.0
C331 C 0.23226 0.67165 0.45974 0.0
C332 C 0.20542 0.64005 0.47281 0.0
C333 C 0.17029 0.6012 0.4652 0.0
C334 C 0.16254 0.59398 0.44431 0.0
C335 C 0.19019 0.62519 0.43172 0.0
C336 C 0.17953 0.61279 0.40999 0.0
C337 C 0.14033 0.56895 0.41139 0.0
C338 C 0.12975 0.5577 0.43147 0.0
C339 C 0.22502 0.62236 0.40008 0.0
C340 C 0.1614 0.63348 0.40079 0.0
H341 H 0.99065 0.40842 0.40334 0.0
H342 H 1.00052 0.42836 0.47747 0.0
H343 H 1.01895 0.50732 0.45985 0.0
H344 H 0.07564 0.54709 0.46962 0.0
H345 H 1.03924 0.50213 0.4829 0.0
H346 H 0.11306 0.47701 0.46084 0.0
H347 H 0.09607 0.48913 0.48349 0.0
H348 H 0.1442 0.52694 0.46822 0.0
H349 H 1.05274 0.47128 0.33762 0.0
H350 H 0.16738 0.59566 0.3311 0.0
H351 H 0.17544 0.60579 0.36691 0.0
H352 H 0.10223 0.46007 0.37341 0.0
H353 H 1.04145 0.42326 0.36554 0.0
H354 H 1.05907 0.4304 0.39152 0.0
H355 H 1.00087 0.48133 0.37175 0.0
H356 H 0.98417 0.45128 0.39219 0.0
H357 H 0.98373 0.43306 0.36729 0.0
H358 H 0.93358 0.35416 0.4239 0.0
C359 C 0.99423 0.41407 0.41925 0.0
C360 C 0.619 0.93925 0.78275 0.0
C361 C 0.62629 0.91582 0.77095 0.0
C362 C 0.62755 0.91793 0.74993 0.0
C363 C 0.615 0.9665 0.75257 0.0
C364 C 0.61403 0.96475 0.77324 0.0
C365 C 0.60878 0.99362 0.78328 0.0
H366 H 0.59816 0.14302 0.77341 0.0
C367 C 0.60963 0.99614 0.74729 0.0
C368 C 0.60637 0.01254 0.7652 0.0
H369 H 0.59586 0.09347 0.82851 0.0
H370 H 0.598 0.04553 0.80957 0.0
H371 H 0.67522 0.13992 0.74953 0.0
H372 H 0.52249 0.06302 0.75198 0.0
H373 H 0.53586 0.05618 0.72758 0.0
H374 H 0.55481 0.10414 0.73592 0.0
H375 H 0.63915 0.15132 0.73972 0.0
H376 H 0.65327 0.12444 0.72478 0.0
C377 C 0.65377 0.02352 0.79627 0.0
C378 C 0.56172 0.97016 0.7952 0.0
C379 C 0.60176 0.01873 0.67383 0.0
C380 C 0.59477 0.04301 0.66434 0.0
C381 C 0.59109 0.06864 0.67614 0.0
C382 C 0.59403 0.06995 0.69708 0.0
C383 C 0.60036 0.04514 0.70641 0.0
C384 C 0.60401 0.02003 0.69482 0.0
C385 C 0.60927 0.99505 0.70741 0.0
C386 C 0.60755 0.00901 0.72844 0.0
C387 C 0.60279 0.03853 0.72771 0.0
C388 C 0.65838 1.00546 0.70278 0.0
C389 C 0.56596 0.95128 0.703 0.0
C390 C 0.5987 0.12212 0.78139 0.0
C391 C 0.59785 0.12236 0.8024 0.0
C392 C 0.59692 0.0939 0.81229 0.0
C393 C 0.59832 0.06629 0.80127 0.0
C394 C 0.60011 0.06697 0.78017 0.0
C395 C 0.59939 0.09421 0.77065 0.0
C396 C 0.59854 0.08953 0.74823 0.0
C397 C 0.60079 0.05596 0.74572 0.0
C398 C 0.60206 0.04287 0.76441 0.0
C399 C 0.64364 0.12828 0.73996 0.0
C400 C 0.55075 0.07787 0.74037 0.0
H401 H 0.62308 0.94306 0.72464 0.0
H402 H 0.61839 0.93844 0.79896 0.0
H403 H 0.53325 0.94248 0.7868 0.0
H404 H 0.54752 0.98635 0.79763 0.0
H405 H 0.56636 0.96197 0.80994 0.0
H406 H 0.68632 0.03222 0.78822 0.0
H407 H 0.65202 0.01059 0.8106 0.0
H408 H 0.65962 0.05129 0.79966 0.0
H409 H 0.60425 0.99846 0.66514 0.0
H410 H 0.58618 0.0879 0.66912 0.0
H411 H 0.59114 0.09021 0.70517 0.0
H412 H 0.68475 0.0365 0.69821 0.0
H413 H 0.65559 0.98622 0.69039 0.0
H414 H 0.67476 1.00363 0.71604 0.0
H415 H 0.53285 0.9479 0.70122 0.0
H416 H 0.5583 0.93192 0.71529 0.0
H417 H 0.57113 0.93981 0.68893 0.0
H418 H 0.63281 0.89994 0.74059 0.0
C419 C 0.62179 0.94295 0.7407 0.0
C420 C 0.53728 0.34702 0.13093 0.0
C421 C 0.55724 0.33006 0.12241 0.0
C422 C 0.56672 0.33402 0.10153 0.0
C423 C 0.54874 0.37906 0.09996 0.0
C424 C 0.53664 0.37333 0.11998 0.0
C425 C 0.53324 0.40375 0.12901 0.0
H426 H 0.55286 0.56662 0.11802 0.0
C427 C 0.55205 0.41294 0.09383 0.0
C428 C 0.54429 0.42811 0.11099 0.0
H429 H 0.52477 0.50502 0.17256 0.0
H430 H 0.52867 0.45815 0.15413 0.0
H431 H 0.6363 0.56291 0.10182 0.0
H432 H 0.48621 0.49465 0.09117 0.0
H433 H 0.50993 0.49375 0.06813 0.0
H434 H 0.529 0.54025 0.07916 0.0
H435 H 0.61087 0.58005 0.08777 0.0
H436 H 0.6273 0.55207 0.0759 0.0
C437 C 0.57187 0.42785 0.14575 0.0
C438 C 0.48165 0.38247 0.13632 0.0
C439 C 0.58441 0.45426 0.02104 0.0
C440 C 0.59093 0.48573 0.0117 0.0
C441 C 0.58754 0.51176 0.02321 0.0
C442 C 0.57835 0.50702 0.04373 0.0
C443 C 0.57277 0.47603 0.053 0.0
C444 C 0.57561 0.4501 0.04176 0.0
C445 C 0.57053 0.41996 0.05462 0.0
C446 C 0.56201 0.43118 0.07515 0.0
C447 C 0.56403 0.46433 0.07402 0.0
C448 C 0.61795 0.42612 0.05395 0.0
C449 C 0.52679 0.37848 0.04715 0.0
C450 C 0.54933 0.54407 0.12631 0.0
C451 C 0.53892 0.53998 0.14692 0.0
C452 C 0.53268 0.50892 0.1567 0.0
C453 C 0.53505 0.48173 0.14596 0.0
C454 C 0.54447 0.48591 0.12528 0.0
C455 C 0.55196 0.51699 0.1159 0.0
C456 C 0.56058 0.51659 0.09381 0.0
C457 C 0.55782 0.4804 0.09148 0.0
C458 C 0.54811 0.46245 0.10988 0.0
C459 C 0.61119 0.5549 0.0894 0.0
C460 C 0.5197 0.51133 0.08233 0.0
H461 H 0.57126 0.3608 0.07472 0.0
H462 H 0.52697 0.34371 0.14648 0.0
H463 H 0.45563 0.36004 0.12486 0.0
H464 H 0.47302 0.40263 0.13888 0.0
H465 H 0.47518 0.36708 0.15039 0.0
H466 H 0.60188 0.42689 0.14342 0.0
H467 H 0.55683 0.41628 0.16079 0.0
H468 H 0.58918 0.45964 0.14594 0.0
H469 H 0.58736 0.4341 0.01253 0.0
H470 H 0.59187 0.53588 0.01626 0.0
H471 H 0.57633 0.52795 0.05157 0.0
H472 H 0.64852 0.45667 0.04996 0.0
H473 H 0.61625 0.40571 0.04268 0.0
H474 H 0.62781 0.4224 0.06873 0.0
H475 H 0.49541 0.37757 0.04542 0.0
H476 H 0.51615 0.35537 0.05765 0.0
H477 H 0.53396 0.37052 0.03233 0.0
H478 H 0.58158 0.32151 0.09395 0.0
C479 C 0.56171 0.35779 0.09026 0.0
H480 H 0.34212 0.57294 0.17922 0.0
H481 H 0.58095 0.6181 0.14173 0.0
H482 H 0.41678 0.6331 0.12534 0.0
H483 H 0.47021 0.51748 0.17512 0.0
H484 H 0.54251 0.64802 0.14856 0.0
H485 H 0.41097 0.5788 0.18987 0.0
C486 C 0.37371 0.58874 0.16999 0.0
C487 C 0.3735 0.60174 0.15113 0.0
C488 C 0.52774 0.62001 0.15494 0.0
C489 C 0.45186 0.60824 0.16318 0.0
C490 C 0.54935 0.60272 0.15095 0.0
C491 C 0.52748 0.56429 0.157 0.0
C492 C 0.48452 0.59892 0.16531 0.0
C493 C 0.48795 0.54672 0.16972 0.0
C494 C 0.41287 0.59194 0.17606 0.0
C495 C 0.41526 0.62186 0.13975 0.0
N496 N 0.46705 0.56378 0.17305 0.0
N497 N 0.45255 0.62384 0.14578 0.0
H498 H 0.68251 0.17831 0.47407 0.0
H499 H 0.96641 0.3355 0.47209 0.0
H500 H 0.77361 0.15172 0.49264 0.0
H501 H 0.87211 0.36032 0.45672 0.0
H502 H 0.89755 0.27079 0.48377 0.0
H503 H 0.75207 0.24705 0.47132 0.0
C504 C 0.71717 0.18692 0.47767 0.0
C505 C 0.72216 0.15897 0.48341 0.0
C506 C 0.89201 0.29071 0.47826 0.0
C507 C 0.80258 0.23821 0.48015 0.0
C508 C 0.93131 0.3277 0.4718 0.0
C509 C 0.92467 0.35318 0.4637 0.0
C510 C 0.8459 0.27918 0.47635 0.0
C511 C 0.87855 0.34153 0.4631 0.0
C512 C 0.75701 0.22636 0.47614 0.0
C513 C 0.76808 0.17218 0.48808 0.0
N514 N 0.84091 0.30529 0.46915 0.0
N515 N 0.80659 0.21078 0.48614 0.0
H516 H 0.72724 0.78607 0.79482 0.0
H517 H 0.56903 0.85778 0.79771 0.0
H518 H 0.57927 0.7105 0.812 0.0
H519 H 0.69956 0.9137 0.76461 0.0
H520 H 0.57761 0.80937 0.80914 0.0
H521 H 0.7227 0.83876 0.78968 0.0
C522 C 0.6937 0.78046 0.79748 0.0
C523 C 0.65332 0.74342 0.8035 0.0
C524 C 0.60454 0.8325 0.79953 0.0
C525 C 0.64816 0.80418 0.79794 0.0
C526 C 0.59983 0.86018 0.79314 0.0
C527 C 0.6335 0.88948 0.78012 0.0
C528 C 0.64354 0.83464 0.79304 0.0
C529 C 0.67261 0.89129 0.7745 0.0
C530 C 0.69124 0.81071 0.79465 0.0
C531 C 0.61131 0.7385 0.80735 0.0
N532 N 0.67649 0.86422 0.78094 0.0
N533 N 0.6097 0.76845 0.80437 0.0
H534 H 0.76767 0.40066 0.20195 0.0
H535 H 0.58625 0.28435 0.11294 0.0
H536 H 0.79497 0.36 0.14776 0.0
H537 H 0.57658 0.34489 0.16358 0.0
H538 H 0.64593 0.28714 0.13147 0.0
H539 H 0.68285 0.35447 0.19443 0.0
C540 C 0.75585 0.38126 0.18875 0.0
C541 C 0.78868 0.38543 0.17502 0.0
C542 C 0.62955 0.29887 0.13857 0.0
C543 C 0.69155 0.33337 0.16597 0.0
C544 C 0.59575 0.29788 0.12786 0.0
C545 C 0.57809 0.31712 0.13575 0.0
C546 C 0.64507 0.31846 0.15745 0.0
C547 C 0.58951 0.3309 0.15597 0.0
C548 C 0.70725 0.35495 0.18438 0.0
C549 C 0.77095 0.35904 0.15828 0.0
N550 N 0.62294 0.33212 0.16582 0.0
N551 N 0.72364 0.33492 0.15389 0.0
H552 H 0.50278 0.89353 0.49511 0.0
H553 H 0.23865 0.7351 0.45081 0.0
H554 H 0.42679 0.92273 0.46249 0.0
H555 H 0.3094 0.70245 0.48447 0.0
H556 H 0.30534 0.80444 0.45769 0.0
H557 H 0.43149 0.82413 0.49354 0.0
C558 C 0.47116 0.88545 0.48767 0.0
C559 C 0.47101 0.91413 0.47881 0.0
C560 C 0.3063 0.78228 0.4638 0.0
C561 C 0.38919 0.83468 0.47705 0.0
C562 C 0.26809 0.74267 0.45993 0.0
C563 C 0.26867 0.71308 0.46703 0.0
C564 C 0.34589 0.79264 0.4747 0.0
C565 C 0.30756 0.72443 0.47882 0.0
C566 C 0.43042 0.84579 0.48682 0.0
C567 C 0.42886 0.90179 0.46944 0.0
N568 N 0.34497 0.76339 0.4821 0.0
N569 N 0.38988 0.86312 0.46876 0.0
H570 H 0.49458 0.23988 0.85464 0.0
H571 H 0.66053 0.20177 0.79907 0.0
H572 H 0.63899 0.33348 0.83707 0.0
H573 H 0.53383 0.11094 0.83047 0.0
H574 H 0.65393 0.25062 0.81375 0.0
H575 H 0.50847 0.1923 0.84703 0.0
C576 C 0.52942 0.25058 0.84946 0.0
C577 C 0.56549 0.29085 0.84629 0.0
C578 C 0.62785 0.22013 0.81769 0.0
C579 C 0.58127 0.23628 0.83722 0.0
C580 C 0.63163 0.19229 0.8093 0.0
C581 C 0.59758 0.15238 0.81356 0.0
C582 C 0.5892 0.20792 0.83016 0.0
C583 C 0.56088 0.14152 0.82692 0.0
C584 C 0.53723 0.2233 0.84504 0.0
C585 C 0.6097 0.30272 0.8393 0.0
N586 N 0.55722 0.16909 0.83455 0.0
N587 N 0.61615 0.27557 0.83483 0.0
H588 H 0.66428 0.85182 0.48818 0.0
H589 H 0.53959 0.6652 0.55723 0.0
H590 H 0.5701 0.82699 0.53723 0.0
H591 H 0.64772 0.69602 0.51394 0.0
H592 H 0.54175 0.71902 0.54625 0.0
H593 H 0.65049 0.79003 0.49376 0.0
C594 C 0.64028 0.83315 0.49996 0.0
C595 C 0.61865 0.84474 0.5124 0.0
C596 C 0.56482 0.71395 0.53901 0.0
C597 C 0.60285 0.7742 0.51888 0.0
C598 C 0.56362 0.68322 0.54529 0.0
C599 C 0.59407 0.67654 0.5367 0.0
C600 C 0.59684 0.73844 0.52403 0.0
C601 C 0.62373 0.70023 0.52098 0.0
C602 C 0.63261 0.79801 0.50319 0.0
C603 C 0.58815 0.81956 0.52752 0.0
N604 N 0.62479 0.73049 0.51529 0.0
N605 N 0.58133 0.78563 0.53037 0.0
H606 H 0.68056 0.45511 0.84393 0.0
H607 H 0.95625 0.56635 0.81604 0.0
H608 H 0.76682 0.56595 0.81445 0.0
H609 H 0.8694 0.45993 0.84893 0.0
H610 H 0.88649 0.56425 0.81226 0.0
H611 H 0.74793 0.45433 0.84331 0.0
C612 C 0.7136 0.47937 0.83728 0.0
C613 C 0.71758 0.51076 0.82931 0.0
C614 C 0.88246 0.54097 0.82002 0.0
C615 C 0.79596 0.50996 0.82852 0.0
C616 C 0.9222 0.54193 0.82194 0.0
C617 C 0.91857 0.51287 0.8325 0.0
C618 C 0.8386 0.51077 0.82876 0.0
C619 C 0.87376 0.48262 0.84041 0.0
C620 C 0.75229 0.47887 0.83692 0.0
C621 C 0.76174 0.54112 0.82084 0.0
N622 N 0.83592 0.48244 0.83845 0.0
N623 N 0.79901 0.54002 0.82072 0.0
H624 H 0.24556 0.64605 0.13387 0.0
H625 H 0.3531 0.85685 0.18468 0.0
H626 H 0.16511 0.66819 0.17175 0.0
H627 H 0.43377 0.83809 0.14487 0.0
H628 H 0.28244 0.78877 0.17798 0.0
H629 H 0.31328 0.71643 0.13599 0.0
C630 C 0.24194 0.66566 0.14257 0.0
C631 C 0.19939 0.65096 0.15272 0.0
C632 C 0.31536 0.79948 0.17052 0.0
C633 C 0.27717 0.73187 0.15518 0.0
C634 C 0.35573 0.83842 0.17431 0.0
C635 C 0.39946 0.85309 0.16541 0.0
C636 C 0.31855 0.77461 0.15782 0.0
C637 C 0.40072 0.82801 0.15198 0.0
C638 C 0.28073 0.70593 0.14374 0.0
C639 C 0.19708 0.67798 0.16373 0.0
N640 N 0.361 0.78984 0.14877 0.0
N641 N 0.23539 0.71696 0.16472 0.0
H642 H 0.64994 0.26221 0.47623 0.0
H643 H 0.54139 0.37663 0.48316 0.0
H644 H 0.50515 0.20846 0.45941 0.0
H645 H 0.66886 0.41518 0.5141 0.0
H646 H 0.53441 0.32058 0.46818 0.0
H647 H 0.66367 0.32388 0.48426 0.0
C648 C 0.62101 0.26332 0.47419 0.0
C649 C 0.57606 0.22977 0.4674 0.0
C650 C 0.56419 0.3416 0.47806 0.0
C651 C 0.59189 0.3007 0.47631 0.0
C652 C 0.56836 0.37367 0.48647 0.0
C653 C 0.60556 0.4003 0.49996 0.0
C654 C 0.59775 0.33648 0.48306 0.0
C655 C 0.63937 0.39502 0.50392 0.0
C656 C 0.62899 0.29865 0.47868 0.0
C657 C 0.54042 0.23349 0.46451 0.0
N658 N 0.63455 0.36365 0.49559 0.0
N659 N 0.54899 0.2682 0.46912 0.0
H660 H 0.50796 0.5653 0.82345 0.0
H661 H 0.23349 0.44621 0.85571 0.0
H662 H 0.4222 0.45029 0.84869 0.0
H663 H 0.31922 0.56467 0.83519 0.0
H664 H 0.30002 0.44503 0.84955 0.0
H665 H 0.43875 0.56417 0.82479 0.0
C666 C 0.47468 0.53972 0.82925 0.0
C667 C 0.47145 0.50786 0.83603 0.0
C668 C 0.30427 0.47113 0.846 0.0
C669 C 0.39123 0.50633 0.83746 0.0
C670 C 0.2659 0.47159 0.84926 0.0
C671 C 0.27015 0.50524 0.84553 0.0
C672 C 0.34807 0.50481 0.83913 0.0
C673 C 0.31378 0.53773 0.83781 0.0
C674 C 0.43501 0.53913 0.82998 0.0
C675 C 0.42694 0.47567 0.84335 0.0
N676 N 0.35099 0.53682 0.83501 0.0
N677 N 0.38898 0.47578 0.84385 0.0
H678 H 0.91649 0.40849 0.15458 0.0
H679 H 0.83512 0.19371 0.16455 0.0
H680 H 1.00712 0.37924 0.13627 0.0
H681 H 0.73617 0.21814 0.16377 0.0
H682 H 0.89802 0.26013 0.15274 0.0
H683 H 0.84988 0.33859 0.15709 0.0
C684 C 0.92234 0.38732 0.15091 0.0
C685 C 0.96766 0.39987 0.1453 0.0
C686 C 0.86232 0.2507 0.15468 0.0
C687 C 0.89116 0.31927 0.14838 0.0
C688 C 0.82643 0.21275 0.16127 0.0
C689 C 0.7804 0.20042 0.1648 0.0
C690 C 0.85234 0.27682 0.15213 0.0
C691 C 0.77107 0.22642 0.16088 0.0
C692 C 0.88411 0.34728 0.15228 0.0
C693 C 0.97285 0.37092 0.14064 0.0
N694 N 0.80687 0.26358 0.15503 0.0
N695 N 0.93523 0.332 0.14256 0.0
H696 H 1.04113 0.57117 0.09187 0.0
H697 H 0.15493 0.5552 0.99524 0.0
H698 H 0.09111 0.50337 0.09408 0.0
H699 H 1.01329 0.52102 0.99258 0.0
H700 H 0.14893 0.55303 0.03187 0.0
H701 H 1.04838 0.57146 0.05519 0.0
C702 C 1.05399 0.55665 0.08464 0.0
C703 C 1.06571 0.53732 0.09592 0.0
C704 C 0.11946 0.54617 0.02307 0.0
C705 C 0.07515 0.53849 0.05436 0.0
C706 C 0.12256 0.54711 0.00215 0.0
C707 C 0.08479 0.53873 0.99051 0.0
C708 C 0.07899 0.5379 0.0324 0.0
C709 C 1.04417 0.52912 0.00066 0.0
C710 C 1.058 0.55679 0.06381 0.0
C711 C 0.08206 0.51882 0.08586 0.0
N712 N 1.04266 0.52952 0.02099 0.0
N713 N 0.08682 0.52018 0.06558 0.0
H714 H 0.54547 0.00775 0.42659 0.0
H715 H 0.67744 0.05953 0.32058 0.0
H716 H 0.69411 0.06134 0.42016 0.0
H717 H 0.52842 1.0048 0.32726 0.0
H718 H 0.68567 0.06448 0.35711 0.0
H719 H 0.53965 0.00987 0.39029 0.0
C720 C 0.57691 0.02008 0.41751 0.0
C721 C 0.62027 0.03421 0.4263 0.0
C722 C 0.65121 0.05152 0.35058 0.0
C723 C 0.61397 0.0367 0.38481 0.0
C724 C 0.64656 0.04892 0.32972 0.0
C725 C 0.60209 0.03145 0.32083 0.0
C726 C 0.61111 0.03659 0.36265 0.0
C727 C 0.5632 0.01783 0.33345 0.0
C728 C 0.57361 0.0213 0.3968 0.0
C729 C 0.65996 0.04998 0.41391 0.0
N730 N 0.56857 0.02055 0.35369 0.0
N731 N 0.65583 0.05067 0.39377 0.0
H732 H 0.50109 0.42981 0.76997 0.0
H733 H 0.66015 0.56444 0.67908 0.0
H734 H 0.64576 0.5362 0.77836 0.0
H735 H 0.54414 0.43998 0.67143 0.0
H736 H 0.65052 0.55843 0.71558 0.0
H737 H 0.51112 0.43688 0.73362 0.0
C738 C 0.53488 0.45475 0.76414 0.0
C739 C 0.57265 0.48251 0.77711 0.0
C740 C 0.62734 0.53246 0.70588 0.0
C741 C 0.58424 0.4909 0.7357 0.0
C742 C 0.63269 0.5359 0.68512 0.0
C743 C 0.603 0.5026 0.67231 0.0
C744 C 0.5915 0.49562 0.71381 0.0
C745 C 0.56806 0.46625 0.68084 0.0
C746 C 0.54062 0.45868 0.74343 0.0
C747 C 0.61571 0.51427 0.76883 0.0
N748 N 0.56305 0.46376 0.70106 0.0
N749 N 0.62031 0.51772 0.74861 0.0
H750 H 0.64774 0.06255 0.53644 0.0
H751 H 0.52745 0.03768 0.64261 0.0
H752 H 0.50236 0.01811 0.54307 0.0
H753 H 0.65178 0.04421 0.6359 0.0
H754 H 0.52118 0.03609 0.60611 0.0
H755 H 0.6534 0.06121 0.57292 0.0
C756 C 0.61698 0.05233 0.54558 0.0
C757 C 0.57447 0.04029 0.5368 0.0
C758 C 0.54976 0.03774 0.61261 0.0
C759 C 0.58088 0.03927 0.57837 0.0
C760 C 0.5535 0.03889 0.63341 0.0
C761 C 0.59028 0.04122 0.64223 0.0
C762 C 0.58338 0.03942 0.60051 0.0
C763 C 0.62276 0.0422 0.62965 0.0
C764 C 0.62022 0.05158 0.56635 0.0
C765 C 0.53579 0.02763 0.54928 0.0
N766 N 0.61877 0.04158 0.60939 0.0
N767 N 0.53999 0.02766 0.56945 0.0
H768 H 0.69887 0.57744 0.89236 0.0
H769 H 0.66306 0.55401 0.99473 0.0
H770 H 0.54719 0.48428 0.88802 0.0
H771 H 0.54297 0.43343 0.97977 0.0
H772 H 0.6754 0.56792 0.95919 0.0
H773 H 0.69668 0.56291 0.92747 0.0
C774 C 0.66502 0.55409 0.89889 0.0
C775 C 0.62306 0.53233 0.88741 0.0
C776 C 0.6471 0.53812 0.96352 0.0
C777 C 0.62 0.51598 0.9277 0.0
C778 C 0.6398 0.53029 0.98385 0.0
C779 C 0.60199 0.49254 0.99011 0.0
C780 C 0.61621 0.50798 0.94929 0.0
C781 C 0.57276 0.46283 0.97547 0.0
C782 C 0.66371 0.54595 0.91898 0.0
C783 C 0.58027 0.50192 0.89646 0.0
N784 N 0.58007 0.47132 0.95569 0.0
N785 N 0.57981 0.49464 0.91613 0.0
H786 H 0.1067 0.56689 0.20512 0.0
H787 H 0.09723 0.47376 0.30793 0.0
H788 H 0.10312 0.46612 0.20762 0.0
H789 H 0.11076 0.57925 0.3047 0.0
H790 H 0.09341 0.46734 0.27125 0.0
H791 H 0.10281 0.56906 0.24168 0.0
C792 C 0.10495 0.54514 0.21341 0.0
C793 C 0.10538 0.51636 0.20343 0.0
C794 C 0.09709 0.49183 0.27858 0.0
C795 C 0.10105 0.51866 0.24523 0.0
C796 C 0.09899 0.49537 0.2995 0.0
C797 C 0.10466 0.52724 0.30936 0.0
C798 C 0.1007 0.52029 0.26746 0.0
C799 C 0.10719 0.55459 0.2977 0.0
C800 C 0.10277 0.54639 0.23427 0.0
C801 C 0.10305 0.48888 0.21482 0.0
N802 N 0.1053 0.55052 0.27739 0.0
N803 N 0.10108 0.49074 0.23516 0.0
loop_
_geom_bond_atom_site_label_1
_geom_bond_atom_site_label_2
_geom_bond_distance
_geom_bond_site_symmetry_2
_ccdc_geom_bond_type
Ho0 C3 2.811 . S
Ho0 O20 2.322 . S
Ho0 O22 2.378 . S
Ho0 O23 2.524 . S
Ho0 O24 2.381 . S
Ho0 O25 2.669 . S
Ho0 O27 2.346 1_455 S
Ho0 O31 2.305 . S
Ho1 C12 2.811 . S
Ho1 O21 2.346 1_655 S
Ho1 O25 2.305 1_655 S
Ho1 O26 2.322 . S
Ho1 O28 2.378 . S
Ho1 O29 2.524 . S
Ho1 O30 2.375 1_655 S
Ho1 O31 2.669 1_655 S
C2 O20 1.259 . S
C2 O21 1.268 . S
C3 Ho0 2.811 . S
C3 C4 1.488 . S
C3 O22 1.215 . S
C3 O23 1.289 . S
C4 C3 1.488 . S
C4 C5 1.348 . S
C4 C9 1.413 . S
C5 C4 1.348 . S
C5 C6 1.442 . S
C5 H32 0.930 . S
C6 C5 1.442 . S
C6 C7 1.381 . S
C6 H33 0.931 . S
C7 C6 1.381 . S
C7 C8 1.321 . S
C8 C7 1.321 . S
C8 C9 1.403 . S
C8 H34 0.934 . S
C9 C4 1.413 . S
C9 C8 1.403 . S
C9 H35 0.930 . S
C10 O24 1.275 . S
C10 O25 1.256 . S
C11 O26 1.259 . S
C11 O27 1.268 . S
C12 Ho1 2.811 . S
C12 C13 1.488 . S
C12 O28 1.215 . S
C12 O29 1.289 . S
C13 C12 1.488 . S
C13 C14 1.348 . S
C13 C18 1.413 . S
C14 C13 1.348 . S
C14 C15 1.442 . S
C14 H36 0.930 . S
C15 C14 1.442 . S
C15 C16 1.381 . S
C15 H37 0.931 . S
C16 C15 1.381 . S
C16 C17 1.321 . S
C17 C16 1.321 . S
C17 C18 1.403 . S
C17 H38 0.934 . S
C18 C13 1.413 . S
C18 C17 1.403 . S
C18 H39 0.930 . S
C19 O30 1.306 . S
C19 O31 1.256 . S
O20 Ho0 2.322 . S
O20 C2 1.259 . S
O21 Ho1 2.346 1_455 S
O21 C2 1.268 . S
O22 Ho0 2.378 . S
O22 C3 1.215 . S
O23 Ho0 2.524 . S
O23 C3 1.289 . S
O24 Ho0 2.381 . S
O24 C10 1.275 . S
O25 Ho0 2.669 . S
O25 Ho1 2.305 1_455 S
O25 C10 1.256 . S
O26 Ho1 2.322 . S
O26 C11 1.259 . S
O27 Ho0 2.346 1_655 S
O27 C11 1.268 . S
O28 Ho1 2.378 . S
O28 C12 1.215 . S
O29 Ho1 2.524 . S
O29 C12 1.289 . S
O30 Ho1 2.375 1_455 S
O30 C19 1.306 . S
O31 Ho0 2.305 . S
O31 Ho1 2.669 1_455 S
O31 C19 1.256 . S
H32 C5 0.930 . S
H33 C6 0.931 . S
H34 C8 0.934 . S
H35 C9 0.930 . S
H36 C14 0.930 . S
H37 C15 0.931 . S
H38 C17 0.934 . S
H39 C18 0.930 . S
Ho40 C43 2.811 . S
Ho40 O60 2.322 . S
Ho40 O62 2.378 . S
Ho40 O63 2.524 . S
Ho40 O64 2.381 . S
Ho40 O65 2.669 1_565 S
Ho40 O67 2.346 1_565 S
Ho40 O71 2.306 1_565 S
Ho41 C52 2.811 . S
Ho41 O61 2.346 1_545 S
Ho41 O65 2.305 . S
Ho41 O66 2.322 . S
Ho41 O68 2.378 . S
Ho41 O69 2.524 . S
Ho41 O70 2.381 . S
Ho41 O71 2.667 . S
C42 O60 1.259 . S
C42 O61 1.268 . S
C43 Ho40 2.811 . S
C43 C44 1.488 . S
C43 O62 1.215 . S
C43 O63 1.289 . S
C44 C43 1.488 . S
C44 C45 1.348 . S
C44 C49 1.413 . S
C45 C44 1.348 . S
C45 C46 1.442 . S
C45 H72 0.930 . S
C46 C45 1.442 . S
C46 C47 1.381 . S
C46 H73 0.931 . S
C47 C46 1.381 . S
C47 C48 1.321 . S
C48 C47 1.321 . S
C48 C49 1.403 . S
C48 H74 0.934 . S
C49 C44 1.413 . S
C49 C48 1.403 . S
C49 H75 0.930 . S
C50 O64 1.275 1_545 S
C50 O65 1.256 . S
C51 O66 1.259 . S
C51 O67 1.268 . S
C52 Ho41 2.811 . S
C52 C53 1.488 . S
C52 O68 1.215 . S
C52 O69 1.289 . S
C53 C52 1.488 . S
C53 C54 1.348 . S
C53 C58 1.413 . S
C54 C53 1.348 . S
C54 C55 1.442 . S
C54 H76 0.930 . S
C55 C54 1.442 . S
C55 C56 1.381 . S
C55 H77 0.931 . S
C56 C55 1.381 . S
C56 C57 1.321 . S
C57 C56 1.321 . S
C57 C58 1.403 . S
C57 H78 0.934 . S
C58 C53 1.413 . S
C58 C57 1.403 . S
C58 H79 0.930 . S
C59 O70 1.275 . S
C59 O71 1.255 . S
O60 Ho40 2.322 . S
O60 C42 1.259 . S
O61 Ho41 2.346 1_565 S
O61 C42 1.268 . S
O62 Ho40 2.378 . S
O62 C43 1.215 . S
O63 Ho40 2.524 . S
O63 C43 1.289 . S
O64 Ho40 2.381 . S
O64 C50 1.275 1_565 S
O65 Ho40 2.669 1_545 S
O65 Ho41 2.305 . S
O65 C50 1.256 . S
O66 Ho41 2.322 . S
O66 C51 1.259 . S
O67 Ho40 2.346 1_545 S
O67 C51 1.268 . S
O68 Ho41 2.378 . S
O68 C52 1.215 . S
O69 Ho41 2.524 . S
O69 C52 1.289 . S
O70 Ho41 2.381 . S
O70 C59 1.275 . S
O71 Ho40 2.306 1_545 S
O71 Ho41 2.667 . S
O71 C59 1.255 . S
H72 C45 0.930 . S
H73 C46 0.931 . S
H74 C48 0.934 . S
H75 C49 0.930 . S
H76 C54 0.930 . S
H77 C55 0.931 . S
H78 C57 0.934 . S
H79 C58 0.930 . S
Ho80 C83 2.811 . S
Ho80 O100 2.322 . S
Ho80 O102 2.378 . S
Ho80 O103 2.524 . S
Ho80 O104 2.381 . S
Ho80 O105 2.669 . S
Ho80 O107 2.346 . S
Ho80 O111 2.305 . S
Ho81 C92 2.811 . S
Ho81 O101 2.346 . S
Ho81 O105 2.305 . S
Ho81 O106 2.322 . S
Ho81 O108 2.378 . S
Ho81 O109 2.524 . S
Ho81 O110 2.381 . S
Ho81 O111 2.669 . S
C82 O100 1.259 . S
C82 O101 1.268 . S
C83 Ho80 2.811 . S
C83 C84 1.488 . S
C83 O102 1.215 . S
C83 O103 1.289 . S
C84 C83 1.488 . S
C84 C85 1.348 . S
C84 C89 1.413 . S
C85 C84 1.348 . S
C85 C86 1.442 . S
C85 H112 0.930 . S
C86 C85 1.442 . S
C86 C87 1.381 . S
C86 H113 0.931 . S
C87 C86 1.381 . S
C87 C88 1.321 . S
C88 C87 1.321 . S
C88 C89 1.403 . S
C88 H114 0.934 . S
C89 C84 1.413 . S
C89 C88 1.403 . S
C89 H115 0.930 . S
C90 O104 1.275 . S
C90 O105 1.256 . S
C91 O106 1.259 . S
C91 O107 1.268 . S
C92 Ho81 2.811 . S
C92 C93 1.488 . S
C92 O108 1.215 . S
C92 O109 1.289 . S
C93 C92 1.488 . S
C93 C94 1.348 . S
C93 C98 1.413 . S
C94 C93 1.348 . S
C94 C95 1.442 . S
C94 H116 0.930 . S
C95 C94 1.442 . S
C95 C96 1.381 . S
C95 H117 0.931 . S
C96 C95 1.381 . S
C96 C97 1.321 . S
C97 C96 1.321 . S
C97 C98 1.403 . S
C97 H118 0.934 . S
C98 C93 1.413 . S
C98 C97 1.403 . S
C98 H119 0.930 . S
C99 O110 1.275 . S
C99 O111 1.256 . S
O100 Ho80 2.322 . S
O100 C82 1.259 . S
O101 Ho81 2.346 . S
O101 C82 1.268 . S
O102 Ho80 2.378 . S
O102 C83 1.215 . S
O103 Ho80 2.524 . S
O103 C83 1.289 . S
O104 Ho80 2.381 . S
O104 C90 1.275 . S
O105 Ho80 2.669 . S
O105 Ho81 2.305 . S
O105 C90 1.256 . S
O106 Ho81 2.322 . S
O106 C91 1.259 . S
O107 Ho80 2.346 . S
O107 C91 1.268 . S
O108 Ho81 2.378 . S
O108 C92 1.215 . S
O109 Ho81 2.524 . S
O109 C92 1.289 . S
O110 Ho81 2.381 . S
O110 C99 1.275 . S
O111 Ho80 2.305 . S
O111 Ho81 2.669 . S
O111 C99 1.256 . S
H112 C85 0.930 . S
H113 C86 0.931 . S
H114 C88 0.934 . S
H115 C89 0.930 . S
H116 C94 0.930 . S
H117 C95 0.931 . S
H118 C97 0.934 . S
H119 C98 0.930 . S
C120 C121 1.391 . S
C120 C124 1.391 . S
C120 H162 0.948 . S
C121 C120 1.391 . S
C121 C122 1.391 . S
C122 C121 1.391 . S
C122 H178 0.947 . S
C122 C179 1.392 . S
C123 C124 1.391 . S
C123 C127 1.397 . S
C123 C179 1.419 . S
C124 C120 1.391 . S
C124 C123 1.391 . S
C124 C125 1.399 . S
C125 C124 1.399 . S
C125 C128 1.396 . S
C125 C137 1.453 . S
C125 C138 1.684 . S
H126 C150 0.948 . S
C127 C123 1.397 . S
C127 C128 1.394 . S
C127 C146 1.723 . S
C128 C125 1.396 . S
C128 C127 1.394 . S
C128 C158 1.723 1_545 S
H129 C152 0.947 . S
H130 C153 0.948 . S
H131 C159 0.982 . S
H132 C160 0.979 . S
H133 C160 0.980 . S
H134 C160 0.983 . S
H135 C159 0.979 . S
H136 C159 0.977 . S
C137 C125 1.453 . S
C137 H166 0.982 . S
C137 H167 0.979 . S
C137 H168 0.977 1_545 S
C138 C125 1.684 . S
C138 H163 0.979 . S
C138 H164 0.980 . S
C138 H165 0.983 . S
C139 C140 1.391 . S
C139 C144 1.391 . S
C139 H169 0.948 . S
C140 C139 1.391 . S
C140 C141 1.391 1_545 S
C141 C140 1.391 1_565 S
C141 C142 1.392 . S
C141 H170 0.947 . S
C142 C141 1.392 . S
C142 C143 1.419 1_565 S
C142 H171 0.948 . S
C143 C142 1.419 1_545 S
C143 C144 1.391 . S
C143 C147 1.397 . S
C144 C139 1.391 . S
C144 C143 1.391 . S
C144 C145 1.399 . S
C145 C144 1.399 . S
C145 C146 1.396 . S
C145 C148 1.453 . S
C145 C149 1.684 . S
C146 C127 1.723 . S
C146 C145 1.396 . S
C146 C147 1.394 . S
C147 C143 1.397 . S
C147 C146 1.394 . S
C147 C157 1.723 1_545 S
C148 C145 1.453 . S
C148 H172 0.982 . S
C148 H173 0.979 . S
C148 H174 0.977 . S
C149 C145 1.684 . S
C149 H175 0.979 . S
C149 H176 0.980 . S
C149 H177 0.983 . S
C150 H126 0.948 . S
C150 C151 1.391 . S
C150 C155 1.391 . S
C151 C150 1.391 . S
C151 C152 1.391 . S
C152 H129 0.947 . S
C152 C151 1.391 . S
C152 C153 1.392 . S
C153 H130 0.948 . S
C153 C152 1.392 . S
C153 C154 1.419 . S
C154 C153 1.419 . S
C154 C155 1.391 . S
C154 C158 1.397 . S
C155 C150 1.391 . S
C155 C154 1.391 . S
C155 C156 1.399 . S
C156 C155 1.399 . S
C156 C157 1.396 . S
C156 C159 1.453 . S
C156 C160 1.684 . S
C157 C147 1.723 1_565 S
C157 C156 1.396 . S
C157 C158 1.394 . S
C158 C128 1.723 1_565 S
C158 C154 1.397 . S
C158 C157 1.394 . S
C159 H131 0.982 . S
C159 H135 0.979 . S
C159 H136 0.977 . S
C159 C156 1.453 . S
C160 H132 0.979 . S
C160 H133 0.980 . S
C160 H134 0.983 . S
C160 C156 1.684 . S
H161 C179 0.948 . S
H162 C120 0.948 . S
H163 C138 0.979 . S
H164 C138 0.980 . S
H165 C138 0.983 . S
H166 C137 0.982 . S
H167 C137 0.979 . S
H168 C137 0.977 1_565 S
H169 C139 0.948 . S
H170 C141 0.947 . S
H171 C142 0.948 . S
H172 C148 0.982 . S
H173 C148 0.979 . S
H174 C148 0.977 . S
H175 C149 0.979 . S
H176 C149 0.980 . S
H177 C149 0.983 . S
H178 C122 0.947 . S
C179 C122 1.392 . S
C179 C123 1.419 . S
C179 H161 0.948 . S
C180 C181 1.391 . S
C180 C184 1.391 . S
C180 H222 0.948 . S
C181 C180 1.391 . S
C181 C182 1.391 . S
C182 C181 1.391 . S
C182 H238 0.947 . S
C182 C239 1.392 . S
C183 C184 1.391 . S
C183 C187 1.397 . S
C183 C239 1.419 . S
C184 C180 1.391 . S
C184 C183 1.391 . S
C184 C185 1.399 . S
C185 C184 1.399 . S
C185 C188 1.396 . S
C185 C197 1.453 . S
C185 C198 1.684 . S
H186 C210 0.948 . S
C187 C183 1.397 . S
C187 C188 1.394 . S
C187 C206 1.723 . S
C188 C185 1.396 . S
C188 C187 1.394 . S
C188 C218 1.723 . S
H189 C212 0.947 . S
H190 C213 0.948 . S
H191 C219 0.982 . S
H192 C220 0.979 . S
H193 C220 0.980 . S
H194 C220 0.983 . S
H195 C219 0.979 . S
H196 C219 0.977 . S
C197 C185 1.453 . S
C197 H226 0.982 . S
C197 H227 0.979 . S
C197 H228 0.977 . S
C198 C185 1.684 . S
C198 H223 0.979 . S
C198 H224 0.980 . S
C198 H225 0.983 . S
C199 C200 1.391 . S
C199 C204 1.391 . S
C199 H229 0.948 . S
C200 C199 1.391 . S
C200 C201 1.391 . S
C201 C200 1.391 . S
C201 C202 1.392 . S
C201 H230 0.947 . S
C202 C201 1.392 . S
C202 C203 1.419 . S
C202 H231 0.948 . S
C203 C202 1.419 . S
C203 C204 1.391 . S
C203 C207 1.397 . S
C204 C199 1.391 . S
C204 C203 1.391 . S
C204 C205 1.399 . S
C205 C204 1.399 . S
C205 C206 1.396 . S
C205 C208 1.453 . S
C205 C209 1.684 . S
C206 C187 1.723 . S
C206 C205 1.396 . S
C206 C207 1.394 . S
C207 C203 1.397 . S
C207 C206 1.394 . S
C207 C217 1.723 . S
C208 C205 1.453 . S
C208 H232 0.982 . S
C208 H233 0.979 . S
C208 H234 0.977 . S
C209 C205 1.684 . S
C209 H235 0.979 . S
C209 H236 0.980 . S
C209 H237 0.983 . S
C210 H186 0.948 . S
C210 C211 1.391 . S
C210 C215 1.391 . S
C211 C210 1.391 . S
C211 C212 1.391 . S
C212 H189 0.947 . S
C212 C211 1.391 . S
C212 C213 1.392 . S
C213 H190 0.948 . S
C213 C212 1.392 . S
C213 C214 1.419 . S
C214 C213 1.419 . S
C214 C215 1.391 . S
C214 C218 1.397 . S
C215 C210 1.391 . S
C215 C214 1.391 . S
C215 C216 1.399 . S
C216 C215 1.399 . S
C216 C217 1.396 . S
C216 C219 1.453 . S
C216 C220 1.684 . S
C217 C207 1.723 . S
C217 C216 1.396 . S
C217 C218 1.394 . S
C218 C188 1.723 . S
C218 C214 1.397 . S
C218 C217 1.394 . S
C219 H191 0.982 . S
C219 H195 0.979 . S
C219 H196 0.977 . S
C219 C216 1.453 . S
C220 H192 0.979 . S
C220 H193 0.980 . S
C220 H194 0.983 . S
C220 C216 1.684 . S
H221 C239 0.948 . S
H222 C180 0.948 . S
H223 C198 0.979 . S
H224 C198 0.980 . S
H225 C198 0.983 . S
H226 C197 0.982 . S
H227 C197 0.979 . S
H228 C197 0.977 . S
H229 C199 0.948 . S
H230 C201 0.947 . S
H231 C202 0.948 . S
H232 C208 0.982 . S
H233 C208 0.979 . S
H234 C208 0.977 . S
H235 C209 0.979 . S
H236 C209 0.980 . S
H237 C209 0.983 . S
H238 C182 0.947 . S
C239 C182 1.392 . S
C239 C183 1.419 . S
C239 H221 0.948 . S
C240 C241 1.391 . S
C240 C244 1.391 . S
C240 H282 0.948 . S
C241 C240 1.391 . S
C241 C242 1.391 . S
C242 C241 1.391 . S
C242 H298 0.947 . S
C242 C299 1.392 . S
C243 C244 1.391 . S
C243 C247 1.397 . S
C243 C299 1.419 . S
C244 C240 1.391 . S
C244 C243 1.391 . S
C244 C245 1.399 . S
C245 C244 1.399 . S
C245 C248 1.396 . S
C245 C257 1.453 . S
C245 C258 1.684 . S
H246 C270 0.948 . S
C247 C243 1.397 . S
C247 C248 1.394 . S
C247 C266 1.723 . S
C248 C245 1.396 . S
C248 C247 1.394 . S
C248 C278 1.723 . S
H249 C272 0.947 . S
H250 C273 0.926 1_455 S
H251 C279 0.982 . S
H252 C280 0.979 1_455 S
H253 C280 0.980 . S
H254 C280 0.983 . S
H255 C279 0.979 . S
H256 C279 0.977 . S
C257 C245 1.453 . S
C257 H286 0.982 . S
C257 H287 0.979 . S
C257 H288 0.977 . S
C258 C245 1.684 . S
C258 H283 0.979 . S
C258 H284 0.980 . S
C258 H285 0.983 . S
C259 C260 1.391 . S
C259 C264 1.391 . S
C259 H289 0.948 . S
C260 C259 1.391 . S
C260 C261 1.391 . S
C261 C260 1.391 . S
C261 C262 1.392 . S
C261 H290 0.947 1_455 S
C262 C261 1.392 . S
C262 C263 1.419 . S
C262 H291 0.948 1_455 S
C263 C262 1.419 . S
C263 C264 1.391 . S
C263 C267 1.397 . S
C264 C259 1.391 . S
C264 C263 1.391 . S
C264 C265 1.399 . S
C265 C264 1.399 . S
C265 C266 1.396 . S
C265 C268 1.453 . S
C265 C269 1.684 . S
C266 C247 1.723 . S
C266 C265 1.396 . S
C266 C267 1.394 . S
C267 C263 1.397 . S
C267 C266 1.394 . S
C267 C277 1.723 . S
C268 C265 1.453 . S
C268 H292 0.982 . S
C268 H293 0.979 . S
C268 H294 0.977 . S
C269 C265 1.684 . S
C269 H295 0.979 . S
C269 H296 0.980 . S
C269 H297 0.983 . S
C270 H246 0.948 . S
C270 C271 1.391 . S
C270 C275 1.391 . S
C271 C270 1.391 . S
C271 C272 1.391 . S
C272 H249 0.947 . S
C272 C271 1.391 . S
C272 C273 1.416 . S
C273 H250 0.926 1_655 S
C273 C272 1.416 . S
C273 C274 1.417 . S
C274 C273 1.417 . S
C274 C275 1.391 . S
C274 C278 1.397 1_655 S
C275 C270 1.391 . S
C275 C274 1.391 . S
C275 C276 1.399 . S
C276 C275 1.399 . S
C276 C277 1.396 1_655 S
C276 C279 1.453 . S
C276 C280 1.684 . S
C277 C267 1.723 . S
C277 C276 1.396 1_455 S
C277 C278 1.394 . S
C278 C248 1.723 . S
C278 C274 1.397 1_455 S
C278 C277 1.394 . S
C279 H251 0.982 . S
C279 H255 0.979 . S
C279 H256 0.977 . S
C279 C276 1.453 . S
C280 H252 0.979 1_655 S
C280 H253 0.980 . S
C280 H254 0.983 . S
C280 C276 1.684 . S
H281 C299 0.948 . S
H282 C240 0.948 . S
H283 C258 0.979 . S
H284 C258 0.980 . S
H285 C258 0.983 . S
H286 C257 0.982 . S
H287 C257 0.979 . S
H288 C257 0.977 . S
H289 C259 0.948 . S
H290 C261 0.947 1_655 S
H291 C262 0.948 1_655 S
H292 C268 0.982 . S
H293 C268 0.979 . S
H294 C268 0.977 . S
H295 C269 0.979 . S
H296 C269 0.980 . S
H297 C269 0.983 . S
H298 C242 0.947 . S
C299 C242 1.392 . S
C299 C243 1.419 . S
C299 H281 0.948 . S
C300 C301 1.391 . S
C300 C304 1.391 . S
C300 H342 0.948 . S
C301 C300 1.391 . S
C301 C302 1.391 . S
C302 C301 1.391 . S
C302 H358 0.947 . S
C302 C359 1.392 . S
C303 C304 1.391 . S
C303 C307 1.397 . S
C303 C359 1.419 . S
C304 C300 1.391 . S
C304 C303 1.391 . S
C304 C305 1.399 . S
C305 C304 1.399 . S
C305 C308 1.396 . S
C305 C317 1.453 . S
C305 C318 1.684 . S
H306 C330 0.948 . S
C307 C303 1.397 . S
C307 C308 1.394 . S
C307 C326 1.723 . S
C308 C305 1.396 . S
C308 C307 1.394 . S
C308 C338 1.723 1_655 S
H309 C332 0.947 . S
H310 C333 0.948 . S
H311 C339 0.982 . S
H312 C340 0.979 . S
H313 C340 0.980 . S
H314 C340 0.983 . S
H315 C339 0.979 . S
H316 C339 0.977 . S
C317 C305 1.453 . S
C317 H346 0.982 1_655 S
C317 H347 0.979 . S
C317 H348 0.977 1_655 S
C318 C305 1.684 . S
C318 H343 0.979 . S
C318 H344 0.980 . S
C318 H345 0.983 . S
C319 C320 1.391 1_655 S
C319 C324 1.391 . S
C319 H349 0.948 . S
C320 C319 1.391 1_455 S
C320 C321 1.391 . S
C321 C320 1.391 . S
C321 C322 1.392 . S
C321 H350 0.947 . S
C322 C321 1.392 . S
C322 C323 1.419 . S
C322 H351 0.948 . S
C323 C322 1.419 . S
C323 C324 1.391 1_455 S
C323 C327 1.397 . S
C324 C319 1.391 . S
C324 C323 1.391 1_655 S
C324 C325 1.399 . S
C325 C324 1.399 . S
C325 C326 1.396 . S
C325 C328 1.453 . S
C325 C329 1.684 . S
C326 C307 1.723 . S
C326 C325 1.396 . S
C326 C327 1.394 1_655 S
C327 C323 1.397 . S
C327 C326 1.394 1_455 S
C327 C337 1.723 . S
C328 C325 1.453 . S
C328 H352 0.982 . S
C328 H353 0.979 . S
C328 H354 0.977 . S
C329 C325 1.684 . S
C329 H355 0.979 . S
C329 H356 0.980 . S
C329 H357 0.983 . S
C330 H306 0.948 . S
C330 C331 1.391 . S
C330 C335 1.391 . S
C331 C330 1.391 . S
C331 C332 1.391 . S
C332 H309 0.947 . S
C332 C331 1.391 . S
C332 C333 1.392 . S
C333 H310 0.948 . S
C333 C332 1.392 . S
C333 C334 1.419 . S
C334 C333 1.419 . S
C334 C335 1.391 . S
C334 C338 1.397 . S
C335 C330 1.391 . S
C335 C334 1.391 . S
C335 C336 1.399 . S
C336 C335 1.399 . S
C336 C337 1.396 . S
C336 C339 1.453 . S
C336 C340 1.684 . S
C337 C327 1.723 . S
C337 C336 1.396 . S
C337 C338 1.394 . S
C338 C308 1.723 1_455 S
C338 C334 1.397 . S
C338 C337 1.394 . S
C339 H311 0.982 . S
C339 H315 0.979 . S
C339 H316 0.977 . S
C339 C336 1.453 . S
C340 H312 0.979 . S
C340 H313 0.980 . S
C340 H314 0.983 . S
C340 C336 1.684 . S
H341 C359 0.948 . S
H342 C300 0.948 . S
H343 C318 0.979 . S
H344 C318 0.980 . S
H345 C318 0.983 . S
H346 C317 0.982 1_455 S
H347 C317 0.979 . S
H348 C317 0.977 1_455 S
H349 C319 0.948 . S
H350 C321 0.947 . S
H351 C322 0.948 . S
H352 C328 0.982 . S
H353 C328 0.979 . S
H354 C328 0.977 . S
H355 C329 0.979 . S
H356 C329 0.980 . S
H357 C329 0.983 . S
H358 C302 0.947 . S
C359 C302 1.392 . S
C359 C303 1.419 . S
C359 H341 0.948 . S
C360 C361 1.391 . S
C360 C364 1.391 . S
C360 H402 0.948 . S
C361 C360 1.391 . S
C361 C362 1.391 . S
C362 C361 1.391 . S
C362 H418 0.947 . S
C362 C419 1.392 . S
C363 C364 1.391 . S
C363 C367 1.397 . S
C363 C419 1.419 . S
C364 C360 1.391 . S
C364 C363 1.391 . S
C364 C365 1.399 . S
C365 C364 1.399 . S
C365 C368 1.396 . S
C365 C377 1.453 1_565 S
C365 C378 1.684 . S
H366 C390 0.948 . S
C367 C363 1.397 . S
C367 C368 1.394 . S
C367 C386 1.723 . S
C368 C365 1.396 . S
C368 C367 1.394 . S
C368 C398 1.723 1_565 S
H369 C392 0.947 . S
H370 C393 0.948 . S
H371 C399 0.982 . S
H372 C400 0.979 . S
H373 C400 0.980 . S
H374 C400 0.983 . S
H375 C399 0.979 . S
H376 C399 0.977 . S
C377 C365 1.453 1_545 S
C377 H406 0.982 . S
C377 H407 0.979 1_545 S
C377 H408 0.977 . S
C378 C365 1.684 . S
C378 H403 0.979 . S
C378 H404 0.980 . S
C378 H405 0.983 . S
C379 C380 1.391 . S
C379 C384 1.391 . S
C379 H409 0.948 . S
C380 C379 1.391 . S
C380 C381 1.391 1_565 S
C381 C380 1.391 1_545 S
C381 C382 1.392 . S
C381 H410 0.947 . S
C382 C381 1.392 . S
C382 C383 1.419 . S
C382 H411 0.948 . S
C383 C382 1.419 . S
C383 C384 1.391 1_545 S
C383 C387 1.397 . S
C384 C379 1.391 . S
C384 C383 1.391 1_565 S
C384 C385 1.399 . S
C385 C384 1.399 . S
C385 C386 1.396 . S
C385 C388 1.453 . S
C385 C389 1.684 . S
C386 C367 1.723 . S
C386 C385 1.396 . S
C386 C387 1.394 1_565 S
C387 C383 1.397 . S
C387 C386 1.394 1_545 S
C387 C397 1.723 . S
C388 C385 1.453 . S
C388 H412 0.982 . S
C388 H413 0.979 . S
C388 H414 0.977 . S
C389 C385 1.684 . S
C389 H415 0.979 . S
C389 H416 0.980 . S
C389 H417 0.983 . S
C390 H366 0.948 . S
C390 C391 1.391 . S
C390 C395 1.391 . S
C391 C390 1.391 . S
C391 C392 1.391 . S
C392 H369 0.947 . S
C392 C391 1.391 . S
C392 C393 1.392 . S
C393 H370 0.948 . S
C393 C392 1.392 . S
C393 C394 1.419 . S
C394 C393 1.419 . S
C394 C395 1.391 . S
C394 C398 1.397 . S
C395 C390 1.391 . S
C395 C394 1.391 . S
C395 C396 1.399 . S
C396 C395 1.399 . S
C396 C397 1.396 . S
C396 C399 1.453 . S
C396 C400 1.684 . S
C397 C387 1.723 . S
C397 C396 1.396 . S
C397 C398 1.394 . S
C398 C368 1.723 1_545 S
C398 C394 1.397 . S
C398 C397 1.394 . S
C399 H371 0.982 . S
C399 H375 0.979 . S
C399 H376 0.977 . S
C399 C396 1.453 . S
C400 H372 0.979 . S
C400 H373 0.980 . S
C400 H374 0.983 . S
C400 C396 1.684 . S
H401 C419 0.948 . S
H402 C360 0.948 . S
H403 C378 0.979 . S
H404 C378 0.980 . S
H405 C378 0.983 . S
H406 C377 0.982 . S
H407 C377 0.979 1_565 S
H408 C377 0.977 . S
H409 C379 0.948 . S
H410 C381 0.947 . S
H411 C382 0.948 . S
H412 C388 0.982 . S
H413 C388 0.979 . S
H414 C388 0.977 . S
H415 C389 0.979 . S
H416 C389 0.980 . S
H417 C389 0.983 . S
H418 C362 0.947 . S
C419 C362 1.392 . S
C419 C363 1.419 . S
C419 H401 0.948 . S
C420 C421 1.391 . S
C420 C424 1.391 . S
C420 H462 0.948 . S
C421 C420 1.391 . S
C421 C422 1.391 . S
C422 C421 1.391 . S
C422 H478 0.947 . S
C422 C479 1.392 . S
C423 C424 1.391 . S
C423 C427 1.397 . S
C423 C479 1.419 . S
C424 C420 1.391 . S
C424 C423 1.391 . S
C424 C425 1.399 . S
C425 C424 1.399 . S
C425 C428 1.396 . S
C425 C437 1.453 . S
C425 C438 1.684 . S
H426 C450 0.948 . S
C427 C423 1.397 . S
C427 C428 1.394 . S
C427 C446 1.723 . S
C428 C425 1.396 . S
C428 C427 1.394 . S
C428 C458 1.723 . S
H429 C452 0.947 . S
H430 C453 0.948 . S
H431 C459 0.982 . S
H432 C460 0.979 . S
H433 C460 0.980 . S
H434 C460 0.983 . S
H435 C459 0.979 . S
H436 C459 0.977 . S
C437 C425 1.453 . S
C437 H466 0.982 . S
C437 H467 0.979 . S
C437 H468 0.977 . S
C438 C425 1.684 . S
C438 H463 0.979 . S
C438 H464 0.980 . S
C438 H465 0.983 . S
C439 C440 1.391 . S
C439 C444 1.391 . S
C439 H469 0.948 . S
C440 C439 1.391 . S
C440 C441 1.391 . S
C441 C440 1.391 . S
C441 C442 1.392 . S
C441 H470 0.947 . S
C442 C441 1.392 . S
C442 C443 1.419 . S
C442 H471 0.948 . S
C443 C442 1.419 . S
C443 C444 1.391 . S
C443 C447 1.397 . S
C444 C439 1.391 . S
C444 C443 1.391 . S
C444 C445 1.399 . S
C445 C444 1.399 . S
C445 C446 1.396 . S
C445 C448 1.453 . S
C445 C449 1.684 . S
C446 C427 1.723 . S
C446 C445 1.396 . S
C446 C447 1.394 . S
C447 C443 1.397 . S
C447 C446 1.394 . S
C447 C457 1.723 . S
C448 C445 1.453 . S
C448 H472 0.982 . S
C448 H473 0.979 . S
C448 H474 0.977 . S
C449 C445 1.684 . S
C449 H475 0.979 . S
C449 H476 0.980 . S
C449 H477 0.983 . S
C450 H426 0.948 . S
C450 C451 1.391 . S
C450 C455 1.391 . S
C451 C450 1.391 . S
C451 C452 1.391 . S
C452 H429 0.947 . S
C452 C451 1.391 . S
C452 C453 1.392 . S
C453 H430 0.948 . S
C453 C452 1.392 . S
C453 C454 1.419 . S
C454 C453 1.419 . S
C454 C455 1.391 . S
C454 C458 1.397 . S
C455 C450 1.391 . S
C455 C454 1.391 . S
C455 C456 1.399 . S
C456 C455 1.399 . S
C456 C457 1.396 . S
C456 C459 1.453 . S
C456 C460 1.684 . S
C457 C447 1.723 . S
C457 C456 1.396 . S
C457 C458 1.394 . S
C458 C428 1.723 . S
C458 C454 1.397 . S
C458 C457 1.394 . S
C459 H431 0.982 . S
C459 H435 0.979 . S
C459 H436 0.977 . S
C459 C456 1.453 . S
C460 H432 0.979 . S
C460 H433 0.980 . S
C460 H434 0.983 . S
C460 C456 1.684 . S
H461 C479 0.948 . S
H462 C420 0.948 . S
H463 C438 0.979 . S
H464 C438 0.980 . S
H465 C438 0.983 . S
H466 C437 0.982 . S
H467 C437 0.979 . S
H468 C437 0.977 . S
H469 C439 0.948 . S
H470 C441 0.947 . S
H471 C442 0.948 . S
H472 C448 0.982 . S
H473 C448 0.979 . S
H474 C448 0.977 . S
H475 C449 0.979 . S
H476 C449 0.980 . S
H477 C449 0.983 . S
H478 C422 0.947 . S
C479 C422 1.392 . S
C479 C423 1.419 . S
C479 H461 0.948 . S
H480 C486 0.930 . S
H481 C490 0.930 . S
H482 C495 0.929 . S
H483 C493 0.929 . S
H484 C488 0.929 . S
H485 C494 0.929 . S
C486 H480 0.930 . S
C486 C487 1.367 . S
C486 C494 1.378 . S
C487 C486 1.367 . S
C487 C495 1.433 . S
C488 H484 0.929 . S
C488 C490 1.378 . S
C488 C492 1.350 . S
C489 C492 1.463 . S
C489 C494 1.350 . S
C489 N497 1.427 . S
C490 H481 0.930 . S
C490 C488 1.378 . S
C490 C491 1.367 . S
C491 C490 1.367 . S
C491 C493 1.433 . S
C492 C488 1.350 . S
C492 C489 1.463 . S
C492 N496 1.427 . S
C493 H483 0.929 . S
C493 C491 1.433 . S
C493 N496 1.384 . S
C494 H485 0.929 . S
C494 C486 1.378 . S
C494 C489 1.350 . S
C495 H482 0.929 . S
C495 C487 1.433 . S
C495 N497 1.384 . S
N496 C492 1.427 . S
N496 C493 1.384 . S
N497 C489 1.427 . S
N497 C495 1.384 . S
H498 C504 0.930 . S
H499 C508 0.930 . S
H500 C513 0.929 . S
H501 C511 0.929 . S
H502 C506 0.929 . S
H503 C512 0.929 . S
C504 H498 0.930 . S
C504 C505 1.367 . S
C504 C512 1.378 . S
C505 C504 1.367 . S
C505 C513 1.433 . S
C506 H502 0.929 . S
C506 C508 1.378 . S
C506 C510 1.350 . S
C507 C510 1.463 . S
C507 C512 1.350 . S
C507 N515 1.427 . S
C508 H499 0.930 . S
C508 C506 1.378 . S
C508 C509 1.367 . S
C509 C508 1.367 . S
C509 C511 1.433 . S
C510 C506 1.350 . S
C510 C507 1.463 . S
C510 N514 1.427 . S
C511 H501 0.929 . S
C511 C509 1.433 . S
C511 N514 1.384 . S
C512 H503 0.929 . S
C512 C504 1.378 . S
C512 C507 1.350 . S
C513 H500 0.929 . S
C513 C505 1.433 . S
C513 N515 1.384 . S
N514 C510 1.427 . S
N514 C511 1.384 . S
N515 C507 1.427 . S
N515 C513 1.384 . S
H516 C522 0.930 . S
H517 C526 0.930 . S
H518 C531 0.929 . S
H519 C529 0.929 . S
H520 C524 0.929 . S
H521 C530 0.929 . S
C522 H516 0.930 . S
C522 C523 1.367 . S
C522 C530 1.378 . S
C523 C522 1.367 . S
C523 C531 1.433 . S
C524 H520 0.929 . S
C524 C526 1.378 . S
C524 C528 1.350 . S
C525 C528 1.463 . S
C525 C530 1.350 . S
C525 N533 1.427 . S
C526 H517 0.930 . S
C526 C524 1.378 . S
C526 C527 1.367 . S
C527 C526 1.367 . S
C527 C529 1.433 . S
C528 C524 1.350 . S
C528 C525 1.463 . S
C528 N532 1.427 . S
C529 H519 0.929 . S
C529 C527 1.433 . S
C529 N532 1.384 . S
C530 H521 0.929 . S
C530 C522 1.378 . S
C530 C525 1.350 . S
C531 H518 0.929 . S
C531 C523 1.433 . S
C531 N533 1.384 . S
N532 C528 1.427 . S
N532 C529 1.384 . S
N533 C525 1.427 . S
N533 C531 1.384 . S
H534 C540 0.930 . S
H535 C544 0.930 . S
H536 C549 0.929 . S
H537 C547 0.929 . S
H538 C542 0.929 . S
H539 C548 0.929 . S
C540 H534 0.930 . S
C540 C541 1.367 . S
C540 C548 1.378 . S
C541 C540 1.367 . S
C541 C549 1.433 . S
C542 H538 0.929 . S
C542 C544 1.378 . S
C542 C546 1.350 . S
C543 C546 1.463 . S
C543 C548 1.350 . S
C543 N551 1.427 . S
C544 H535 0.930 . S
C544 C542 1.378 . S
C544 C545 1.367 . S
C545 C544 1.367 . S
C545 C547 1.433 . S
C546 C542 1.350 . S
C546 C543 1.463 . S
C546 N550 1.427 . S
C547 H537 0.929 . S
C547 C545 1.433 . S
C547 N550 1.384 . S
C548 H539 0.929 . S
C548 C540 1.378 . S
C548 C543 1.350 . S
C549 H536 0.929 . S
C549 C541 1.433 . S
C549 N551 1.384 . S
N550 C546 1.427 . S
N550 C547 1.384 . S
N551 C543 1.427 . S
N551 C549 1.384 . S
H552 C558 0.930 . S
H553 C562 0.930 . S
H554 C567 0.929 . S
H555 C565 0.929 . S
H556 C560 0.929 . S
H557 C566 0.929 . S
C558 H552 0.930 . S
C558 C559 1.367 . S
C558 C566 1.378 . S
C559 C558 1.367 . S
C559 C567 1.433 . S
C560 H556 0.929 . S
C560 C562 1.378 . S
C560 C564 1.350 . S
C561 C564 1.463 . S
C561 C566 1.350 . S
C561 N569 1.427 . S
C562 H553 0.930 . S
C562 C560 1.378 . S
C562 C563 1.367 . S
C563 C562 1.367 . S
C563 C565 1.433 . S
C564 C560 1.350 . S
C564 C561 1.463 . S
C564 N568 1.427 . S
C565 H555 0.929 . S
C565 C563 1.433 . S
C565 N568 1.384 . S
C566 H557 0.929 . S
C566 C558 1.378 . S
C566 C561 1.350 . S
C567 H554 0.929 . S
C567 C559 1.433 . S
C567 N569 1.384 . S
N568 C564 1.427 . S
N568 C565 1.384 . S
N569 C561 1.427 . S
N569 C567 1.384 . S
H570 C576 0.930 . S
H571 C580 0.930 . S
H572 C585 0.929 . S
H573 C583 0.929 . S
H574 C578 0.929 . S
H575 C584 0.929 . S
C576 H570 0.930 . S
C576 C577 1.367 . S
C576 C584 1.378 . S
C577 C576 1.367 . S
C577 C585 1.433 . S
C578 H574 0.929 . S
C578 C580 1.378 . S
C578 C582 1.350 . S
C579 C582 1.463 . S
C579 C584 1.350 . S
C579 N587 1.427 . S
C580 H571 0.930 . S
C580 C578 1.378 . S
C580 C581 1.367 . S
C581 C580 1.367 . S
C581 C583 1.433 . S
C582 C578 1.350 . S
C582 C579 1.463 . S
C582 N586 1.427 . S
C583 H573 0.929 . S
C583 C581 1.433 . S
C583 N586 1.384 . S
C584 H575 0.929 . S
C584 C576 1.378 . S
C584 C579 1.350 . S
C585 H572 0.929 . S
C585 C577 1.433 . S
C585 N587 1.384 . S
N586 C582 1.427 . S
N586 C583 1.384 . S
N587 C579 1.427 . S
N587 C585 1.384 . S
H588 C594 0.930 . S
H589 C598 0.930 . S
H590 C603 0.929 . S
H591 C601 0.929 . S
H592 C596 0.929 . S
H593 C602 0.929 . S
C594 H588 0.930 . S
C594 C595 1.367 . S
C594 C602 1.378 . S
C595 C594 1.367 . S
C595 C603 1.433 . S
C596 H592 0.929 . S
C596 C598 1.378 . S
C596 C600 1.350 . S
C597 C600 1.463 . S
C597 C602 1.350 . S
C597 N605 1.427 . S
C598 H589 0.930 . S
C598 C596 1.378 . S
C598 C599 1.367 . S
C599 C598 1.367 . S
C599 C601 1.433 . S
C600 C596 1.350 . S
C600 C597 1.463 . S
C600 N604 1.427 . S
C601 H591 0.929 . S
C601 C599 1.433 . S
C601 N604 1.384 . S
C602 H593 0.929 . S
C602 C594 1.378 . S
C602 C597 1.350 . S
C603 H590 0.929 . S
C603 C595 1.433 . S
C603 N605 1.384 . S
N604 C600 1.427 . S
N604 C601 1.384 . S
N605 C597 1.427 . S
N605 C603 1.384 . S
H606 C612 0.930 . S
H607 C616 0.930 . S
H608 C621 0.929 . S
H609 C619 0.929 . S
H610 C614 0.929 . S
H611 C620 0.929 . S
C612 H606 0.930 . S
C612 C613 1.367 . S
C612 C620 1.378 . S
C613 C612 1.367 . S
C613 C621 1.433 . S
C614 H610 0.929 . S
C614 C616 1.378 . S
C614 C618 1.350 . S
C615 C618 1.463 . S
C615 C620 1.350 . S
C615 N623 1.427 . S
C616 H607 0.930 . S
C616 C614 1.378 . S
C616 C617 1.367 . S
C617 C616 1.367 . S
C617 C619 1.433 . S
C618 C614 1.350 . S
C618 C615 1.463 . S
C618 N622 1.427 . S
C619 H609 0.929 . S
C619 C617 1.433 . S
C619 N622 1.384 . S
C620 H611 0.929 . S
C620 C612 1.378 . S
C620 C615 1.350 . S
C621 H608 0.929 . S
C621 C613 1.433 . S
C621 N623 1.384 . S
N622 C618 1.427 . S
N622 C619 1.384 . S
N623 C615 1.427 . S
N623 C621 1.384 . S
H624 C630 0.930 . S
H625 C634 0.930 . S
H626 C639 0.929 . S
H627 C637 0.929 . S
H628 C632 0.929 . S
H629 C638 0.929 . S
C630 H624 0.930 . S
C630 C631 1.367 . S
C630 C638 1.378 . S
C631 C630 1.367 . S
C631 C639 1.433 . S
C632 H628 0.929 . S
C632 C634 1.378 . S
C632 C636 1.350 . S
C633 C636 1.463 . S
C633 C638 1.350 . S
C633 N641 1.427 . S
C634 H625 0.930 . S
C634 C632 1.378 . S
C634 C635 1.367 . S
C635 C634 1.367 . S
C635 C637 1.433 . S
C636 C632 1.350 . S
C636 C633 1.463 . S
C636 N640 1.427 . S
C637 H627 0.929 . S
C637 C635 1.433 . S
C637 N640 1.384 . S
C638 H629 0.929 . S
C638 C630 1.378 . S
C638 C633 1.350 . S
C639 H626 0.929 . S
C639 C631 1.433 . S
C639 N641 1.384 . S
N640 C636 1.427 . S
N640 C637 1.384 . S
N641 C633 1.427 . S
N641 C639 1.384 . S
H642 C648 0.930 . S
H643 C652 0.930 . S
H644 C657 0.929 . S
H645 C655 0.929 . S
H646 C650 0.929 . S
H647 C656 0.929 . S
C648 H642 0.930 . S
C648 C649 1.367 . S
C648 C656 1.378 . S
C649 C648 1.367 . S
C649 C657 1.433 . S
C650 H646 0.929 . S
C650 C652 1.378 . S
C650 C654 1.350 . S
C651 C654 1.463 . S
C651 C656 1.350 . S
C651 N659 1.427 . S
C652 H643 0.930 . S
C652 C650 1.378 . S
C652 C653 1.367 . S
C653 C652 1.367 . S
C653 C655 1.433 . S
C654 C650 1.350 . S
C654 C651 1.463 . S
C654 N658 1.427 . S
C655 H645 0.929 . S
C655 C653 1.433 . S
C655 N658 1.384 . S
C656 H647 0.929 . S
C656 C648 1.378 . S
C656 C651 1.350 . S
C657 H644 0.929 . S
C657 C649 1.433 . S
C657 N659 1.384 . S
N658 C654 1.427 . S
N658 C655 1.384 . S
N659 C651 1.427 . S
N659 C657 1.384 . S
H660 C666 0.930 . S
H661 C670 0.930 . S
H662 C675 0.929 . S
H663 C673 0.929 . S
H664 C668 0.929 . S
H665 C674 0.929 . S
C666 H660 0.930 . S
C666 C667 1.367 . S
C666 C674 1.378 . S
C667 C666 1.367 . S
C667 C675 1.433 . S
C668 H664 0.929 . S
C668 C670 1.378 . S
C668 C672 1.350 . S
C669 C672 1.463 . S
C669 C674 1.350 . S
C669 N677 1.427 . S
C670 H661 0.930 . S
C670 C668 1.378 . S
C670 C671 1.367 . S
C671 C670 1.367 . S
C671 C673 1.433 . S
C672 C668 1.350 . S
C672 C669 1.463 . S
C672 N676 1.427 . S
C673 H663 0.929 . S
C673 C671 1.433 . S
C673 N676 1.384 . S
C674 H665 0.929 . S
C674 C666 1.378 . S
C674 C669 1.350 . S
C675 H662 0.929 . S
C675 C667 1.433 . S
C675 N677 1.384 . S
N676 C672 1.427 . S
N676 C673 1.384 . S
N677 C669 1.427 . S
N677 C675 1.384 . S
H678 C684 0.930 . S
H679 C688 0.930 . S
H680 C693 0.929 . S
H681 C691 0.929 . S
H682 C686 0.929 . S
H683 C692 0.929 . S
C684 H678 0.930 . S
C684 C685 1.367 . S
C684 C692 1.378 . S
C685 C684 1.367 . S
C685 C693 1.433 . S
C686 H682 0.929 . S
C686 C688 1.378 . S
C686 C690 1.350 . S
C687 C690 1.463 . S
C687 C692 1.350 . S
C687 N695 1.427 . S
C688 H679 0.930 . S
C688 C686 1.378 . S
C688 C689 1.367 . S
C689 C688 1.367 . S
C689 C691 1.433 . S
C690 C686 1.350 . S
C690 C687 1.463 . S
C690 N694 1.427 . S
C691 H681 0.929 . S
C691 C689 1.433 . S
C691 N694 1.384 . S
C692 H683 0.929 . S
C692 C684 1.378 . S
C692 C687 1.350 . S
C693 H680 0.929 . S
C693 C685 1.433 . S
C693 N695 1.384 . S
N694 C690 1.427 . S
N694 C691 1.384 . S
N695 C687 1.427 . S
N695 C693 1.384 . S
H696 C702 0.930 . S
H697 C706 0.930 . S
H698 C711 0.929 . S
H699 C709 0.929 1_655 S
H700 C704 0.929 . S
H701 C710 0.929 . S
C702 H696 0.930 . S
C702 C703 1.367 1_655 S
C702 C710 1.378 . S
C703 C702 1.367 1_455 S
C703 C711 1.433 . S
C704 H700 0.929 . S
C704 C706 1.378 . S
C704 C708 1.350 . S
C705 C708 1.463 . S
C705 C710 1.350 1_455 S
C705 N713 1.427 . S
C706 H697 0.930 . S
C706 C704 1.378 . S
C706 C707 1.397 . S
C707 C706 1.397 . S
C707 C709 1.457 . S
C708 C704 1.350 . S
C708 C705 1.463 . S
C708 N712 1.419 1_455 S
C709 H699 0.929 1_455 S
C709 C707 1.457 . S
C709 N712 1.384 1_455 S
C710 H701 0.929 . S
C710 C702 1.378 . S
C710 C705 1.350 1_655 S
C711 H698 0.929 . S
C711 C703 1.433 . S
C711 N713 1.384 . S
N712 C708 1.419 1_655 S
N712 C709 1.384 1_655 S
N713 C705 1.427 . S
N713 C711 1.384 . S
H714 C720 0.930 . S
H715 C724 0.930 . S
H716 C729 0.929 . S
H717 C727 0.929 . S
H718 C722 0.929 . S
H719 C728 0.929 . S
C720 H714 0.930 . S
C720 C721 1.367 1_565 S
C720 C728 1.378 . S
C721 C720 1.367 1_545 S
C721 C729 1.433 . S
C722 H718 0.929 . S
C722 C724 1.378 . S
C722 C726 1.350 . S
C723 C726 1.463 . S
C723 C728 1.350 1_545 S
C723 N731 1.427 . S
C724 H715 0.930 . S
C724 C722 1.378 . S
C724 C725 1.367 . S
C725 C724 1.367 . S
C725 C727 1.433 1_545 S
C726 C722 1.350 . S
C726 C723 1.463 . S
C726 N730 1.427 1_545 S
C727 H717 0.929 . S
C727 C725 1.433 1_565 S
C727 N730 1.384 . S
C728 H719 0.929 . S
C728 C720 1.378 . S
C728 C723 1.350 1_565 S
C729 H716 0.929 . S
C729 C721 1.433 . S
C729 N731 1.384 . S
N730 C726 1.427 1_565 S
N730 C727 1.384 . S
N731 C723 1.427 . S
N731 C729 1.384 . S
H732 C738 0.930 . S
H733 C742 0.930 . S
H734 C747 0.929 . S
H735 C745 0.929 . S
H736 C740 0.929 . S
H737 C746 0.929 . S
C738 H732 0.930 . S
C738 C739 1.367 . S
C738 C746 1.378 . S
C739 C738 1.367 . S
C739 C747 1.433 . S
C740 H736 0.929 . S
C740 C742 1.378 . S
C740 C744 1.350 . S
C741 C744 1.463 . S
C741 C746 1.350 . S
C741 N749 1.427 . S
C742 H733 0.930 . S
C742 C740 1.378 . S
C742 C743 1.367 . S
C743 C742 1.367 . S
C743 C745 1.433 . S
C744 C740 1.350 . S
C744 C741 1.463 . S
C744 N748 1.427 . S
C745 H735 0.929 . S
C745 C743 1.433 . S
C745 N748 1.384 . S
C746 H737 0.929 . S
C746 C738 1.378 . S
C746 C741 1.350 . S
C747 H734 0.929 . S
C747 C739 1.433 . S
C747 N749 1.384 . S
N748 C744 1.427 . S
N748 C745 1.384 . S
N749 C741 1.427 . S
N749 C747 1.384 . S
H750 C756 0.930 . S
H751 C760 0.930 . S
H752 C765 0.929 . S
H753 C763 0.929 . S
H754 C758 0.929 . S
H755 C764 0.929 . S
C756 H750 0.930 . S
C756 C757 1.367 1_565 S
C756 C764 1.378 . S
C757 C756 1.367 1_545 S
C757 C765 1.433 . S
C758 H754 0.929 . S
C758 C760 1.378 . S
C758 C762 1.334 1_545 S
C759 C762 1.462 1_545 S
C759 C764 1.344 1_545 S
C759 N767 1.433 . S
C760 H751 0.930 . S
C760 C758 1.378 . S
C760 C761 1.367 1_545 S
C761 C760 1.367 1_565 S
C761 C763 1.433 . S
C762 C758 1.334 1_565 S
C762 C759 1.462 1_565 S
C762 N766 1.445 . S
C763 H753 0.929 . S
C763 C761 1.433 . S
C763 N766 1.384 . S
C764 H755 0.929 . S
C764 C756 1.378 . S
C764 C759 1.344 1_565 S
C765 H752 0.929 . S
C765 C757 1.433 . S
C765 N767 1.384 . S
N766 C762 1.445 . S
N766 C763 1.384 . S
N767 C759 1.433 . S
N767 C765 1.384 . S
H768 C774 0.930 . S
H769 C778 0.930 . S
H770 C783 0.929 . S
H771 C781 0.929 . S
H772 C776 0.929 . S
H773 C782 0.929 . S
C774 H768 0.930 . S
C774 C775 1.367 . S
C774 C782 1.378 . S
C775 C774 1.367 . S
C775 C783 1.433 . S
C776 H772 0.929 . S
C776 C778 1.378 . S
C776 C780 1.350 . S
C777 C780 1.463 . S
C777 C782 1.350 . S
C777 N785 1.427 . S
C778 H769 0.930 . S
C778 C776 1.378 . S
C778 C779 1.367 . S
C779 C778 1.367 . S
C779 C781 1.433 . S
C780 C776 1.350 . S
C780 C777 1.463 . S
C780 N784 1.427 . S
C781 H771 0.929 . S
C781 C779 1.433 . S
C781 N784 1.384 . S
C782 H773 0.929 . S
C782 C774 1.378 . S
C782 C777 1.350 . S
C783 H770 0.929 . S
C783 C775 1.433 . S
C783 N785 1.384 . S
N784 C780 1.427 . S
N784 C781 1.384 . S
N785 C777 1.427 . S
N785 C783 1.384 . S
H786 C792 0.930 1_655 S
H787 C796 0.930 . S
H788 C801 0.929 . S
H789 C799 0.929 . S
H790 C794 0.929 . S
H791 C800 0.933 . S
C792 H786 0.930 1_455 S
C792 C793 1.367 . S
C792 C800 1.377 1_455 S
C793 C792 1.367 . S
C793 C801 1.433 . S
C794 H790 0.929 . S
C794 C796 1.378 . S
C794 C798 1.350 . S
C795 C798 1.463 . S
C795 C800 1.346 1_455 S
C795 N803 1.427 . S
C796 H787 0.930 . S
C796 C794 1.378 . S
C796 C797 1.367 1_455 S
C797 C796 1.367 1_655 S
C797 C799 1.433 . S
C798 C794 1.350 . S
C798 C795 1.463 . S
C798 N802 1.427 1_455 S
C799 H789 0.929 . S
C799 C797 1.433 . S
C799 N802 1.384 . S
C800 H791 0.933 . S
C800 C792 1.377 1_655 S
C800 C795 1.346 1_655 S
C801 H788 0.929 . S
C801 C793 1.433 . S
C801 N803 1.384 . S
N802 C798 1.427 1_655 S
N802 C799 1.384 . S
N803 C795 1.427 . S
N803 C801 1.384 . S
C487 C7 0.602 . S
C491 C451 0.576 . S
C505 C51 1.932 . S
C509 C301 1.801 . S
C523 C87 1.230 . S
C527 C361 1.223 . S
C541 C16 0.425 . S
C545 C421 0.417 . S
C563 C331 2.047 . S
C559 C42 2.049 . S
C581 C391 1.337 . S
C577 C96 1.324 . S
C595 C47 1.216 . S
C599 C181 1.169 . S
C613 C91 3.118 . S
C617 C271 3.110 . S
C631 C2 2.078 . S
C635 C151 2.095 . S
C653 C211 1.318 . S
C649 C56 1.298 . S
C671 C241 2.861 . S
C667 C82 3.015 . S
C685 C11 1.923 . S
C689 C121 1.786 . S
C707 C260 1.699 1_554 S
C703 C19 1.713 . S
C721 C50 1.342 . S
C725 C140 1.356 . S
C739 C99 1.456 . S
C743 C200 1.484 . S
C761 C380 1.457 . S
C757 C59 1.459 . S
C779 C440 1.088 1_556 S
C775 C90 1.092 . S
C793 C10 1.341 . S
C797 C320 1.344 1_655 S
