# Generated by pormake.
# Topology pth, (4,4)-cn, num edge types: 1
# Building blocks:
#     Node 0, Type 0, BuildingBlock: QUQFOY_clean_sbu_3, # of connection points: 4
#     Node 1, Type 0, BuildingBlock: QUQFOY_clean_sbu_3, # of connection points: 4
#     Node 2, Type 0, BuildingBlock: QUQFOY_clean_sbu_3, # of connection points: 4
#     Node 3, Type 1, BuildingBlock: NAHDIM_clean_linker_0, # of connection points: 4
#     Node 4, Type 1, BuildingBlock: NAHDIM_clean_linker_0, # of connection points: 4
#     Node 5, Type 1, BuildingBlock: NAHDIM_clean_linker_0, # of connection points: 4
#     Edge 6, Type (0, 1), BuildingBlock: AJUNOK_clean_linker_0, # of connection points: 2
#     Edge 7, Type (0, 1), BuildingBlock: AJUNOK_clean_linker_0, # of connection points: 2
#     Edge 8, Type (0, 1), BuildingBlock: AJUNOK_clean_linker_0, # of connection points: 2
#     Edge 9, Type (0, 1), BuildingBlock: AJUNOK_clean_linker_0, # of connection points: 2
#     Edge 10, Type (0, 1), BuildingBlock: AJUNOK_clean_linker_0, # of connection points: 2
#     Edge 11, Type (0, 1), BuildingBlock: AJUNOK_clean_linker_0, # of connection points: 2
#     Edge 12, Type (0, 1), BuildingBlock: AJUNOK_clean_linker_0, # of connection points: 2
#     Edge 13, Type (0, 1), BuildingBlock: AJUNOK_clean_linker_0, # of connection points: 2
#     Edge 14, Type (0, 1), BuildingBlock: AJUNOK_clean_linker_0, # of connection points: 2
#     Edge 15, Type (0, 1), BuildingBlock: AJUNOK_clean_linker_0, # of connection points: 2
#     Edge 16, Type (0, 1), BuildingBlock: AJUNOK_clean_linker_0, # of connection points: 2
#     Edge 17, Type (0, 1), BuildingBlock: AJUNOK_clean_linker_0, # of connection points: 2
# Relax obj value: 0.008
# Max RMSD: 0.056
# Mean RMSD: 0.048
data_MOF--net-pth--node1-QUQFOY_clean_sbu_3--node2-NAHDIM_clean_linker_0--edge1-AJUNOK_clean_linker_0
_symmetry_space_group_name_H-M    P1
_symmetry_Int_Tables_number       1
_symmetry_cell_setting            triclinic
loop_
_symmetry_equiv_pos_as_xyz
'x, y, z'
_cell_length_a     26.01362
_cell_length_b     25.740586
_cell_length_c     67.71447
_cell_angle_alpha  89.72042
_cell_angle_beta   91.317247
_cell_angle_gamma 120.71586
loop_
_atom_site_label
_atom_site_type_symbol
_atom_site_fract_x
_atom_site_fract_y
_atom_site_fract_z
_atom_type_partial_charge
C0 C -0.00163 0.14863 0.09551 0.0
O1 O 0.97212 0.15505 0.08048 0.0
Cd2 Cd 0.95397 0.10079 0.04962 0.0
O3 O 0.01564 0.11048 0.09536 0.0
Cd4 Cd 0.01575 0.03687 0.07231 0.0
C5 C 0.10141 0.1501 0.04136 0.0
O6 O 0.92231 0.99615 0.05239 0.0
O7 O 0.99441 0.98604 0.04138 0.0
O8 O 0.97283 0.95299 0.09475 0.0
C9 C 0.94083 0.97399 0.03949 0.0
O10 O 0.05309 0.14844 0.03645 0.0
C11 C 0.0172 0.94519 0.09561 0.0
O12 O 0.10364 0.11755 0.05526 0.0
O13 O 0.06385 0.98316 0.08656 0.0
C14 C 0.1495 0.0392 0.42846 0.0
O15 O 0.18211 0.05389 0.41341 0.0
Cd16 Cd 0.15427 0.08342 0.38308 0.0
O17 O 0.1005 0.03896 0.42787 0.0
Cd18 Cd 0.03904 0.05738 0.40395 0.0
C19 C 0.02764 0.94862 0.37354 0.0
O20 O 0.11845 0.15138 0.38945 0.0
O21 O 0.0334 0.10576 0.37373 0.0
O22 O 0.01266 0.09264 0.43323 0.0
C23 C 0.0852 0.15206 0.37556 0.0
O24 O 0.07887 0.98863 0.36755 0.0
C25 C 0.95764 0.06906 0.4286 0.0
O26 O 0.00384 0.95908 0.38805 0.0
O27 O 0.93974 0.03894 0.41257 0.0
C28 C 0.96115 0.1357 0.71754 0.0
O29 O 0.95265 0.15231 0.73419 0.0
Cd30 Cd 0.98322 0.13422 0.76548 0.0
O31 O 0.98911 0.10696 0.71638 0.0
Cd32 Cd 0.04159 0.06947 0.73873 0.0
C33 C 0.91113 0.97819 0.76277 0.0
O34 O 0.08209 0.15904 0.75837 0.0
O35 O 0.1032 0.09472 0.77009 0.0
O36 O 0.1091 0.09205 0.71119 0.0
C37 C 0.10801 0.14605 0.77176 0.0
O38 O 0.91563 0.0257 0.77026 0.0
C39 C 0.11178 0.04429 0.71267 0.0
O40 O 0.9496 0.98166 0.75067 0.0
O41 O 0.08187 0.00818 0.72636 0.0
C42 C 0.84909 0.68732 0.33055 0.0
C43 C 0.91671 0.71467 0.33295 0.0
C44 C 0.96539 0.69076 0.30748 0.0
C45 C 0.02747 0.71809 0.3066 0.0
C46 C 0.05348 0.6885 0.29748 0.0
C47 C 0.01615 0.63089 0.28875 0.0
C48 C 0.95319 0.60272 0.28999 0.0
C49 C 0.9285 0.63317 0.29937 0.0
C50 C 0.12065 0.71947 0.29655 0.0
C51 C 0.912 0.5415 0.28074 0.0
C52 C 0.20642 0.36065 0.30715 0.0
C53 C 0.16411 0.35878 0.3229 0.0
C54 C 0.1074 0.39979 0.30584 0.0
C55 C 0.05135 0.38352 0.29771 0.0
C56 C 0.04102 0.42617 0.28841 0.0
C57 C 0.0883 0.48685 0.2872 0.0
C58 C 0.14509 0.50407 0.29565 0.0
C59 C 0.15417 0.46033 0.30494 0.0
C60 C 0.97976 0.40618 0.27964 0.0
C61 C 0.19633 0.56844 0.29452 0.0
C62 C 0.12177 0.42351 0.16084 0.0
C63 C 0.06563 0.40117 0.16925 0.0
C64 C 0.05171 0.44011 0.17912 0.0
C65 C 0.09531 0.50242 0.18084 0.0
C66 C 0.15111 0.52526 0.17171 0.0
C67 C 0.16325 0.48545 0.16157 0.0
C68 C 0.99071 0.41447 0.18792 0.0
C69 C 0.1984 0.59138 0.17308 0.0
C70 C 0.9205 0.80404 0.13804 0.0
C71 C 0.97224 0.79079 0.14451 0.0
C72 C 0.97367 0.70934 0.1636 0.0
C73 C 0.93684 0.6508 0.1705 0.0
C74 C 0.96086 0.61892 0.17978 0.0
C75 C 0.02356 0.64689 0.18248 0.0
C76 C 0.06137 0.70607 0.17536 0.0
C77 C 0.03603 0.73686 0.16594 0.0
C78 C 0.91911 0.55562 0.18696 0.0
C79 C 0.12837 0.73698 0.17804 0.0
C80 C 0.04246 0.60188 0.27708 0.0
C81 C 0.05823 0.56383 0.28681 0.0
C82 C 0.07853 0.53137 0.27632 0.0
C83 C 0.08374 0.53715 0.25557 0.0
C84 C 0.10359 0.50479 0.24457 0.0
C85 C 0.10491 0.50778 0.22406 0.0
C86 C 0.08614 0.54301 0.21374 0.0
C87 C 0.08327 0.54303 0.19285 0.0
C88 C 0.06502 0.57912 0.18307 0.0
C89 C 0.0488 0.6149 0.19363 0.0
C90 C 0.05081 0.61497 0.21452 0.0
C91 C 0.03388 0.6497 0.22559 0.0
C92 C 0.03215 0.64637 0.24609 0.0
C93 C 0.04758 0.60841 0.25634 0.0
C94 C 0.06743 0.5752 0.24553 0.0
C95 C 0.06882 0.57829 0.22459 0.0
C96 C 0.17924 0.32712 0.1601 0.0
C97 C 0.12155 0.32886 0.1574 0.0
O98 O 0.94138 0.72254 0.31449 0.0
O99 O 0.9466 0.73715 0.15497 0.0
O100 O 0.13708 0.38681 0.15167 0.0
O101 O 0.11378 0.35518 0.31411 0.0
H102 H 0.92513 0.68303 0.34184 0.0
H103 H 0.82873 0.64267 0.32303 0.0
H104 H 0.83891 0.7174 0.32159 0.0
H105 H 0.82827 0.68047 0.3452 0.0
H106 H 0.05536 0.76305 0.3128 0.0
H107 H 0.88043 0.61301 0.29983 0.0
H108 H 0.13602 0.68978 0.30296 0.0
H109 H 0.14349 0.76338 0.30462 0.0
H110 H 0.13427 0.7275 0.28089 0.0
H111 H 0.86441 0.52386 0.28428 0.0
H112 H 0.92492 0.50868 0.28593 0.0
H113 H 0.91635 0.54468 0.26445 0.0
H114 H 0.18793 0.40032 0.33223 0.0
H115 H 0.24614 0.36235 0.31429 0.0
H116 H 0.22229 0.40145 0.29787 0.0
H117 H 0.18344 0.32017 0.29736 0.0
H118 H 0.01559 0.33675 0.29853 0.0
H119 H 0.19784 0.47376 0.31122 0.0
H120 H 0.98284 0.41348 0.26343 0.0
H121 H 0.96238 0.4338 0.28593 0.0
H122 H 0.94725 0.35773 0.28245 0.0
H123 H 0.23757 0.57498 0.30211 0.0
H124 H 0.18351 0.59925 0.30133 0.0
H125 H 0.20623 0.58156 0.27881 0.0
H126 H 0.0993 0.31779 0.17194 0.0
H127 H 0.03256 0.35347 0.168 0.0
H128 H 0.20606 0.50224 0.15468 0.0
H129 H -0.00516 0.41366 0.20425 0.0
H130 H 0.95905 0.3677 0.18262 0.0
H131 H 0.97161 0.44338 0.18422 0.0
H132 H 0.24062 0.60141 0.16603 0.0
H133 H 0.20822 0.60586 0.18882 0.0
H134 H 0.18153 0.61865 0.16575 0.0
H135 H 0.00643 0.82829 0.15406 0.0
H136 H 0.94023 0.85343 0.14166 0.0
H137 H 0.89012 0.78623 0.15107 0.0
H138 H 0.88167 0.76699 0.10137 0.0
H139 H 0.88881 0.63005 0.16856 0.0
H140 H 0.06493 0.78238 0.16075 0.0
H141 H 0.9219 0.55479 0.20333 0.0
H142 H 0.93271 0.52425 0.18116 0.0
H143 H 0.87185 0.53871 0.18238 0.0
H144 H 0.15179 0.78286 0.17151 0.0
H145 H 0.14471 0.7093 0.17107 0.0
H146 H 0.14027 0.74077 0.19404 0.0
H147 H 0.05283 0.55792 0.30266 0.0
H148 H 0.11762 0.47614 0.25167 0.0
H149 H 0.12002 0.48139 0.21638 0.0
H150 H 0.0616 0.57789 0.16706 0.0
H151 H 0.02091 0.67922 0.21851 0.0
H152 H 0.01788 0.67346 0.25378 0.0
H153 H 0.20302 0.33677 0.14591 0.0
H154 H 0.16965 0.2823 0.1655 0.0
H155 H 0.20924 0.36178 0.17117 0.0
C156 C 0.21316 0.94684 0.64382 0.0
C157 C 0.25433 0.98776 0.66064 0.0
C158 C 0.35022 0.04523 0.64344 0.0
C159 C 0.38877 0.10079 0.63476 0.0
C160 C 0.4375 0.10942 0.62373 0.0
C161 C 0.44795 0.06104 0.62134 0.0
C162 C 0.41026 0.00511 0.63058 0.0
C163 C 0.36184 -0.00225 0.64159 0.0
C164 C 0.47707 0.16984 0.61424 0.0
C165 C 0.42048 0.95278 0.62841 0.0
C166 C 0.91508 0.23869 0.63338 0.0
C167 C 0.86697 0.20019 0.64825 0.0
C168 C 0.7691 0.13757 0.63149 0.0
C169 C 0.72469 0.07776 0.62759 0.0
C170 C 0.6689 0.06346 0.61946 0.0
C171 C 0.65757 0.11047 0.61496 0.0
C172 C 0.70223 0.17123 0.61885 0.0
C173 C 0.75777 0.18429 0.62697 0.0
C174 C 0.62235 -0.00186 0.61539 0.0
C175 C 0.69161 0.22232 0.61399 0.0
C176 C 0.70909 0.0919 0.48454 0.0
C177 C 0.68126 0.03945 0.49587 0.0
C178 C 0.63321 0.02747 0.5079 0.0
C179 C 0.61395 0.0699 0.50891 0.0
C180 C 0.64189 0.12273 0.49725 0.0
C181 C 0.68871 0.1326 0.48495 0.0
C182 C 0.60325 0.96965 0.51955 0.0
C183 C 0.62277 0.16902 0.49796 0.0
C184 C 0.11712 0.87954 0.50413 0.0
C185 C 0.18023 0.93203 0.50035 0.0
C186 C 0.27776 0.93951 0.50423 0.0
C187 C 0.30451 0.90518 0.50795 0.0
C188 C 0.36448 0.93255 0.51426 0.0
C189 C 0.39873 0.99611 0.5165 0.0
C190 C 0.37302 0.03155 0.51154 0.0
C191 C 0.31251 0.00285 0.50559 0.0
C192 C 0.39063 0.89338 0.51922 0.0
C193 C 0.40898 0.09956 0.51316 0.0
C194 C 0.49631 0.06817 0.6083 0.0
C195 C 0.55262 0.08641 0.61676 0.0
C196 C 0.60028 0.09597 0.60505 0.0
C197 C 0.59238 0.08892 0.58431 0.0
C198 C 0.64021 0.10121 0.57205 0.0
C199 C 0.63169 0.09287 0.55169 0.0
C200 C 0.57473 0.07052 0.54284 0.0
C201 C 0.56499 0.05936 0.52225 0.0
C202 C 0.50757 0.03655 0.51401 0.0
C203 C 0.45936 0.02456 0.52579 0.0
C204 C 0.46836 0.03615 0.54635 0.0
C205 C 0.4208 0.02492 0.55861 0.0
C206 C 0.42996 0.03606 0.57883 0.0
C207 C 0.48677 0.05767 0.58768 0.0
C208 C 0.53516 0.06868 0.57564 0.0
C209 C 0.52614 0.05873 0.55492 0.0
C210 C 0.84736 0.18995 0.48307 0.0
C211 C 0.81207 0.12125 0.48015 0.0
O212 O 0.30248 0.03973 0.65318 0.0
O213 O 0.21847 0.9096 0.49947 0.0
O214 O 0.75513 0.10317 0.47287 0.0
O215 O 0.82215 0.14779 0.63927 0.0
H216 H 0.27117 0.9627 0.66946 0.0
H217 H 0.23711 0.93137 0.63438 0.0
H218 H 0.19706 0.9713 0.63438 0.0
H219 H 0.17393 0.90615 0.64996 0.0
H220 H 0.37982 0.1373 0.63637 0.0
H221 H 0.33315 0.9547 0.64848 0.0
H222 H 0.5246 0.18692 0.61845 0.0
H223 H 0.46535 0.20406 0.61854 0.0
H224 H 0.47283 0.16447 0.59792 0.0
H225 H 0.38762 0.91231 0.63666 0.0
H226 H 0.46625 0.96629 0.63387 0.0
H227 H 0.41733 0.94045 0.61256 0.0
H228 H 0.84824 0.22747 0.65391 0.0
H229 H 0.95152 0.28015 0.64072 0.0
H230 H 0.89538 0.25261 0.62123 0.0
H231 H 0.93438 0.21313 0.62683 0.0
H232 H 0.73398 0.04211 0.63098 0.0
H233 H 0.79219 0.231 0.62936 0.0
H234 H 0.61322 0.99094 0.59923 0.0
H235 H 0.57977 0.98675 0.62246 0.0
H236 H 0.63675 0.9667 0.62089 0.0
H237 H 0.73036 0.26714 0.6183 0.0
H238 H 0.65147 0.21562 0.6217 0.0
H239 H 0.68264 0.22224 0.59787 0.0
H240 H 0.80898 0.09983 0.49477 0.0
H241 H 0.697 0.00783 0.49514 0.0
H242 H 0.7105 0.17276 0.47593 0.0
H243 H 0.61442 0.98019 0.5355 0.0
H244 H 0.61774 0.93778 0.515 0.0
H245 H 0.55387 0.94695 0.5177 0.0
H246 H 0.65226 0.20994 0.48926 0.0
H247 H 0.62303 0.18277 0.5135 0.0
H248 H 0.5763 0.14878 0.49198 0.0
H249 H 0.19337 0.96358 0.5132 0.0
H250 H 0.08556 0.89629 0.50558 0.0
H251 H 0.11703 0.85665 0.51809 0.0
H252 H 0.10125 0.84599 0.49184 0.0
H253 H 0.27748 0.85643 0.50653 0.0
H254 H 0.29263 0.02999 0.50216 0.0
H255 H 0.40612 0.90047 0.53492 0.0
H256 H 0.43015 0.90656 0.51 0.0
H257 H 0.3579 0.84457 0.51676 0.0
H258 H 0.38509 0.12093 0.50636 0.0
H259 H 0.45265 0.11729 0.50591 0.0
H260 H 0.41836 0.11306 0.52898 0.0
H261 H 0.55933 0.09286 0.63263 0.0
H262 H 0.68489 0.11767 0.57803 0.0
H263 H 0.67024 0.10345 0.54302 0.0
H264 H 0.50012 0.02709 0.49827 0.0
H265 H 0.37586 0.00752 0.55273 0.0
H266 H 0.39168 0.02672 0.58746 0.0
H267 H 0.85076 0.21309 0.46884 0.0
H268 H 0.89312 0.20512 0.48899 0.0
H269 H 0.82463 0.20347 0.49382 0.0
C270 C 0.69538 0.69489 0.76032 0.0
C271 C 0.70424 0.73774 0.77742 0.0
C272 C 0.66923 0.68721 0.80913 0.0
C273 C 0.63192 0.70927 0.81445 0.0
C274 C 0.5882 0.67987 0.8288 0.0
C275 C 0.58206 0.62773 0.83811 0.0
C276 C 0.62082 0.60654 0.83319 0.0
C277 C 0.66438 0.63707 0.8189 0.0
C278 C 0.54872 0.70459 0.8341 0.0
C279 C 0.61591 0.55134 0.84291 0.0
C280 C 0.1028 0.25929 0.85442 0.0
C281 C 0.16431 0.28202 0.84567 0.0
C282 C 0.25108 0.38502 0.84451 0.0
C283 C 0.29499 0.36858 0.84491 0.0
C284 C 0.35535 0.41206 0.84859 0.0
C285 C 0.37196 0.47301 0.85177 0.0
C286 C 0.32849 0.49028 0.84988 0.0
C287 C 0.2685 0.44591 0.84622 0.0
C288 C 0.401 0.39254 0.85003 0.0
C289 C 0.34499 0.55515 0.85272 0.0
C290 C 0.36094 0.41596 0.98273 0.0
C291 C 0.39263 0.39838 0.97077 0.0
C292 C 0.43531 0.4394 0.95772 0.0
C293 C 0.44519 0.49878 0.95633 0.0
C294 C 0.41396 0.51686 0.96877 0.0
C295 C 0.37279 0.47527 0.98209 0.0
C296 C 0.46915 0.41887 0.94527 0.0
C297 C 0.42322 0.57964 0.96779 0.0
C298 C 0.88319 0.9205 0.94812 0.0
C299 C 0.83229 0.88122 0.96201 0.0
C300 C 0.75744 0.77397 0.95469 0.0
C301 C 0.75183 0.71959 0.94849 0.0
C302 C 0.69598 0.66986 0.94309 0.0
C303 C 0.64469 0.6754 0.9435 0.0
C304 C 0.64943 0.72918 0.95074 0.0
C305 C 0.70566 0.77762 0.95661 0.0
C306 C 0.69212 0.61212 0.93637 0.0
C307 C 0.59522 0.73591 0.95191 0.0
C308 C 0.53523 0.59516 0.853 0.0
C309 C 0.47765 0.55199 0.84628 0.0
C310 C 0.4327 0.51699 0.85957 0.0
C311 C 0.4455 0.52383 0.88013 0.0
C312 C 0.40183 0.4877 0.89388 0.0
C313 C 0.41529 0.49363 0.91403 0.0
C314 C 0.47277 0.53628 0.92125 0.0
C315 C 0.4875 0.54143 0.94168 0.0
C316 C 0.54402 0.58663 0.94845 0.0
C317 C 0.58675 0.62651 0.93531 0.0
C318 C 0.57389 0.62019 0.91475 0.0
C319 C 0.61669 0.65815 0.90105 0.0
C320 C 0.60428 0.64997 0.88083 0.0
C321 C 0.548 0.60468 0.87353 0.0
C322 C 0.50333 0.56789 0.88711 0.0
C323 C 0.51666 0.57483 0.90772 0.0
C324 C 0.2234 0.34534 0.97845 0.0
C325 C 0.26566 0.32565 0.98723 0.0
O326 O 0.711 0.71369 0.79498 0.0
O327 O 0.81358 0.82104 0.95848 0.0
O328 O 0.31743 0.3756 -0.00546 0.0
O329 O 0.19166 0.34384 0.84288 0.0
H330 H 0.66278 0.74011 0.77722 0.0
H331 H 0.65198 0.65202 0.76184 0.0
H332 H 0.73123 0.68358 0.76035 0.0
H333 H 0.69459 0.7155 0.74594 0.0
H334 H 0.63731 0.74985 0.80767 0.0
H335 H 0.69409 0.62104 0.81495 0.0
H336 H 0.50143 0.67072 0.83028 0.0
H337 H 0.56109 0.74732 0.82628 0.0
H338 H 0.55168 0.71296 0.85028 0.0
H339 H 0.64712 0.53866 0.83664 0.0
H340 H 0.56949 0.51247 0.84117 0.0
H341 H 0.62594 0.56005 0.85898 0.0
H342 H 0.19034 0.27207 0.85675 0.0
H343 H 0.07998 0.20982 0.85701 0.0
H344 H 0.07437 0.26885 0.84432 0.0
H345 H 0.10788 0.28229 0.86878 0.0
H346 H 0.28239 0.32187 0.84276 0.0
H347 H 0.23445 0.4583 0.84545 0.0
H348 H 0.43979 0.42191 0.84071 0.0
H349 H 0.38211 0.34474 0.84536 0.0
H350 H 0.41786 0.39772 0.86554 0.0
H351 H 0.30709 0.56209 0.84903 0.0
H352 H 0.38335 0.58518 0.84333 0.0
H353 H 0.35922 0.5689 0.86834 0.0
H354 H 0.27697 0.30389 0.97526 0.0
H355 H 0.38386 0.35252 0.97167 0.0
H356 H 0.34803 0.48819 0.99154 0.0
H357 H 0.45186 0.41199 0.92979 0.0
H358 H 0.4642 0.37569 0.9506 0.0
H359 H 0.51746 0.45379 0.94524 0.0
H360 H 0.38938 0.5837 0.97628 0.0
H361 H 0.42123 0.59233 0.95221 0.0
H362 H 0.46823 0.61241 0.97399 0.0
H363 H 0.79652 0.8914 0.95851 0.0
H364 H 0.89938 0.96911 0.95074 0.0
H365 H 0.86688 0.90928 0.93253 0.0
H366 H 0.9212 0.91272 0.9503 0.0
H367 H 0.79179 0.71661 0.94755 0.0
H368 H 0.70823 0.81781 0.96251 0.0
H369 H 0.684 0.6069 0.92015 0.0
H370 H 0.65406 0.5725 0.94342 0.0
H371 H 0.73389 0.61181 0.9399 0.0
H372 H 0.60697 0.78208 0.95658 0.0
H373 H 0.56371 0.70306 0.96266 0.0
H374 H 0.57154 0.72561 0.93732 0.0
H375 H 0.46782 0.54529 0.83052 0.0
H376 H 0.35685 0.45386 0.88924 0.0
H377 H 0.38 0.46431 0.92387 0.0
H378 H 0.55491 0.59085 0.96414 0.0
H379 H 0.66066 0.69408 0.90576 0.0
H380 H 0.63927 0.67985 0.87098 0.0
H381 H 0.2124 0.36905 0.98978 0.0
H382 H 0.18129 0.30549 0.97281 0.0
H383 H 0.24482 0.37649 0.96591 0.0
C384 C 0.04574 0.25456 0.10774 0.0
C385 C 0.0187 0.19264 0.11196 0.0
C386 C 0.07685 0.29846 0.12246 0.0
C387 C 0.08052 0.28198 0.14211 0.0
H388 H 0.04626 0.26932 0.09269 0.0
H389 H 0.09985 0.34547 0.11818 0.0
S390 S 0.01102 0.1254 0.16107 0.0
N391 N 0.99405 0.11674 0.1372 0.0
N392 N 0.04984 0.19907 0.16517 0.0
C393 C 0.05022 0.22001 0.14667 0.0
C394 C 0.01997 0.17541 0.13156 0.0
C395 C 0.92619 0.08213 0.46181 0.0
C396 C 0.91707 0.07786 0.44121 0.0
C397 C 0.89059 0.09385 0.47408 0.0
C398 C 0.84498 0.10261 0.46625 0.0
H399 H 0.96133 0.07662 0.46851 0.0
H400 H 0.89969 0.09744 0.48987 0.0
S401 S 0.80618 0.10014 0.41295 0.0
N402 N 0.86039 0.08456 0.41334 0.0
N403 N 0.79501 0.10922 0.43627 0.0
C404 C 0.83601 0.09925 0.44556 0.0
C405 C 0.87149 0.08595 0.4331 0.0
C406 C 0.86349 0.866 0.76615 0.0
C407 C 0.85924 0.91816 0.76763 0.0
C408 C 0.8143 0.8085 0.76988 0.0
C409 C 0.75822 0.8006 0.77458 0.0
H410 H 0.90526 0.86958 0.76214 0.0
H411 H 0.82022 0.76996 0.76878 0.0
S412 S 0.72454 0.92303 0.78163 0.0
N413 N 0.79543 0.95856 0.77539 0.0
N414 N 0.70275 0.85053 0.78186 0.0
C415 C 0.75399 0.85263 0.77674 0.0
C416 C 0.80437 0.91128 0.77331 0.0
C417 C 0.06061 0.88386 0.10979 0.0
C418 C 0.01134 0.89003 0.10448 0.0
C419 C 0.05387 0.83273 0.12021 0.0
C420 C -0.00258 0.78364 0.12552 0.0
H421 H 0.10547 0.92121 0.10743 0.0
H422 H 0.09361 0.8353 0.12662 0.0
S423 S 0.82385 0.75413 0.12216 0.0
N424 N 0.89265 0.83878 0.11162 0.0
N425 N 0.88113 0.71723 0.12108 0.0
C426 C 0.94981 0.76756 0.1129 0.0
C427 C 0.95551 0.83944 0.10696 0.0
C428 C 0.15598 0.034 0.46506 0.0
C429 C 0.1653 0.01726 0.44638 0.0
C430 C 0.16383 0.00823 0.48228 0.0
C431 C 0.18019 0.96395 0.48144 0.0
H432 H 0.14148 0.0665 0.46635 0.0
H433 H 0.1551 0.02159 0.49637 0.0
S434 S 0.20736 0.90288 0.43578 0.0
N435 N 0.19164 0.95407 0.42783 0.0
N436 N 0.20385 0.90339 0.46008 0.0
C437 C 0.18975 0.94691 0.46274 0.0
C438 C 0.18315 0.97432 0.44524 0.0
C439 C 0.12868 0.23684 0.79122 0.0
C440 C 0.12983 0.18281 0.79014 0.0
C441 C 0.14179 0.26946 0.8089 0.0
C442 C 0.1575 0.24997 0.82622 0.0
H443 H 0.11564 0.2533 0.77843 0.0
H444 H 0.13797 0.30944 0.80912 0.0
S445 S 0.1703 0.11344 0.83123 0.0
N446 N 0.15036 0.11261 0.80784 0.0
N447 N 0.1753 0.17438 0.84115 0.0
C448 C 0.16075 0.19715 0.82527 0.0
C449 C 0.14716 0.16365 0.80721 0.0
C450 C 0.92077 0.19442 0.70074 0.0
C451 C 0.93903 0.15161 0.69944 0.0
C452 C 0.8987 0.21023 0.6842 0.0
C453 C 0.8933 0.18351 0.66564 0.0
H454 H 0.92355 0.21626 0.71469 0.0
H455 H 0.88518 0.24331 0.68604 0.0
S456 S 0.93547 0.06952 0.65402 0.0
N457 N 0.95118 0.08347 0.67785 0.0
N458 N 0.90881 0.11271 0.64675 0.0
C459 C 0.91197 0.14111 0.66399 0.0
C460 C 0.93496 0.12526 0.68087 0.0
C461 C 0.86578 0.95795 0.01281 0.0
C462 C 0.90576 0.94257 0.0215 0.0
C463 C 0.84043 0.93612 -0.00605 0.0
C464 C 0.85356 0.89755 0.98331 0.0
H465 H 0.85651 0.9895 0.02015 0.0
H466 H 0.81193 0.95112 0.98736 0.0
S467 S 0.95042 0.83867 0.00073 0.0
N468 N 0.95336 0.88262 0.01891 0.0
N469 N 0.90595 0.84172 0.98358 0.0
C470 C 0.8911 0.87949 0.99237 0.0
C471 C 0.91699 0.90186 0.01145 0.0
C472 C -0.00201 0.88565 0.34299 0.0
C473 C -0.00336 0.88904 0.36364 0.0
C474 C 0.97154 0.8298 0.33318 0.0
C475 C 0.94461 0.77506 0.34373 0.0
H476 H 0.01933 0.92657 0.33431 0.0
H477 H 0.97293 0.82982 0.31721 0.0
S478 S 0.92946 0.75988 0.39811 0.0
N479 N 0.96515 0.83355 0.39438 0.0
N480 N 0.91728 0.72823 0.37602 0.0
C481 C 0.94259 0.77805 0.36442 0.0
C482 C 0.96828 0.83504 0.37436 0.0
C483 C 0.16171 0.98628 0.70411 0.0
C484 C 0.14831 0.03137 0.69924 0.0
C485 C 0.19636 0.97327 0.69178 0.0
C486 C 0.21915 0.00486 0.67407 0.0
H487 H 0.14554 0.96086 0.71763 0.0
H488 H 0.20521 0.93796 0.69611 0.0
S489 S 0.1935 0.12428 0.6538 0.0
N490 N 0.15855 0.106 0.675 0.0
N491 N 0.22306 0.0811 0.65176 0.0
C492 C 0.20511 0.04929 0.66882 0.0
C493 C 0.17008 0.06278 0.68144 0.0
C494 C 0.1615 0.17467 0.0114 0.0
C495 C 0.15479 0.19151 0.0304 0.0
C496 C 0.2007 0.21795 -0.00187 0.0
C497 C 0.23416 0.27967 0.00334 0.0
H498 H 0.13344 0.12835 0.00635 0.0
H499 H 0.20217 0.20348 0.98326 0.0
S500 S 0.23268 0.34585 0.05179 0.0
N501 N 0.18534 0.27266 0.0542 0.0
N502 N 0.25868 0.35473 0.02924 0.0
C503 C 0.22931 0.29655 0.02267 0.0
C504 C 0.18971 0.25221 0.03621 0.0
C505 C 0.15345 0.26087 0.36725 0.0
C506 C 0.10645 0.20307 0.36164 0.0
C507 C 0.17206 0.31048 0.35466 0.0
C508 C 0.14451 0.30405 0.33597 0.0
H509 H 0.1752 0.26815 0.38164 0.0
H510 H 0.2078 0.35438 0.35968 0.0
S511 S 0.02427 0.16063 0.31335 0.0
N512 N 0.03583 0.14126 0.33555 0.0
N513 N 0.07153 0.23403 0.31178 0.0
C514 C 0.09929 0.24583 0.32984 0.0
C515 C 0.07993 0.19556 0.34273 0.0
loop_
_geom_bond_atom_site_label_1
_geom_bond_atom_site_label_2
_geom_bond_distance
_geom_bond_site_symmetry_2
_ccdc_geom_bond_type
C0 O1 1.306 1_455 S
C0 O3 1.160 . S
O1 C0 1.306 1_655 S
O1 Cd2 2.228 . S
Cd2 O1 2.228 . S
Cd2 O6 2.273 . S
Cd2 O10 2.277 1_655 S
O3 C0 1.160 . S
O3 Cd4 2.203 . S
Cd4 O3 2.203 . S
Cd4 O6 2.411 1_455 S
Cd4 O7 2.333 1_445 S
Cd4 O8 2.352 1_445 S
Cd4 O12 2.277 . S
Cd4 O13 2.356 1_545 S
C5 O10 1.209 . S
C5 O12 1.226 . S
O6 Cd2 2.273 . S
O6 Cd4 2.411 1_655 S
O6 C9 1.320 1_545 S
O7 Cd4 2.333 1_665 S
O7 C9 1.214 . S
O8 Cd4 2.352 1_665 S
O8 C11 1.258 1_655 S
C9 O6 1.320 1_565 S
C9 O7 1.214 . S
O10 Cd2 2.277 1_455 S
O10 C5 1.209 . S
C11 O8 1.258 1_455 S
C11 O13 1.282 . S
O12 Cd4 2.277 . S
O12 C5 1.226 . S
O13 Cd4 2.356 1_565 S
O13 C11 1.282 . S
C14 O15 1.306 . S
C14 O17 1.160 . S
O15 C14 1.306 . S
O15 Cd16 2.228 . S
Cd16 O15 2.228 . S
Cd16 O20 2.273 . S
Cd16 O24 2.277 . S
O17 C14 1.160 . S
O17 Cd18 2.203 . S
Cd18 O17 2.203 . S
Cd18 O20 2.411 . S
Cd18 O21 2.333 1_455 S
Cd18 O22 2.352 1_455 S
Cd18 O26 2.277 1_445 S
Cd18 O27 2.357 1_445 S
C19 O24 1.209 1_565 S
C19 O26 1.226 1_455 S
O20 Cd16 2.273 . S
O20 Cd18 2.411 . S
O20 C23 1.320 . S
O21 Cd18 2.333 1_655 S
O21 C23 1.214 1_655 S
O22 Cd18 2.352 1_655 S
O22 C25 1.258 . S
C23 O20 1.320 . S
C23 O21 1.214 1_455 S
O24 Cd16 2.277 . S
O24 C19 1.209 1_545 S
C25 O22 1.258 . S
C25 O27 1.278 1_545 S
O26 Cd18 2.277 1_665 S
O26 C19 1.226 1_655 S
O27 Cd18 2.357 1_665 S
O27 C25 1.278 1_565 S
C28 O29 1.306 . S
C28 O31 1.160 . S
O29 C28 1.306 . S
O29 Cd30 2.228 . S
Cd30 O29 2.228 . S
Cd30 O34 2.273 1_655 S
Cd30 O38 2.277 . S
O31 C28 1.160 . S
O31 Cd32 2.203 1_655 S
Cd32 O31 2.203 1_455 S
Cd32 O34 2.411 . S
Cd32 O35 2.333 . S
Cd32 O36 2.352 . S
Cd32 O40 2.277 1_445 S
Cd32 O41 2.356 . S
C33 O38 1.209 1_565 S
C33 O40 1.226 . S
O34 Cd30 2.273 1_455 S
O34 Cd32 2.411 . S
O34 C37 1.320 . S
O35 Cd32 2.333 . S
O35 C37 1.214 . S
O36 Cd32 2.352 . S
O36 C39 1.258 . S
C37 O34 1.320 . S
C37 O35 1.214 . S
O38 Cd30 2.277 . S
O38 C33 1.209 1_545 S
C39 O36 1.258 . S
C39 O41 1.282 . S
O40 Cd32 2.277 1_665 S
O40 C33 1.226 . S
O41 Cd32 2.356 . S
O41 C39 1.282 . S
C42 C43 1.560 1_655 S
C42 H103 0.959 . S
C42 H104 0.959 . S
C42 H105 0.960 . S
C43 C42 1.560 1_455 S
C43 O98 1.426 1_455 S
C43 H102 0.980 . S
C44 C45 1.407 . S
C44 C49 1.418 1_455 S
C44 O98 1.334 1_455 S
C45 C44 1.407 . S
C45 C46 1.360 . S
C45 H106 0.929 . S
C46 C45 1.360 . S
C46 C47 1.401 . S
C46 C50 1.527 . S
C47 C46 1.401 . S
C47 C48 1.405 1_455 S
C47 C80 1.587 . S
C48 C47 1.405 1_655 S
C48 C49 1.332 . S
C48 C51 1.496 . S
C49 C44 1.418 1_655 S
C49 C48 1.332 . S
C49 H107 0.929 . S
C50 C46 1.527 . S
C50 H108 0.959 . S
C50 H109 0.961 . S
C50 H110 0.961 . S
C51 C48 1.496 . S
C51 H111 0.960 . S
C51 H112 0.960 . S
C51 H113 0.961 . S
C52 C53 1.517 . S
C52 H115 0.961 . S
C52 H116 0.960 . S
C52 H117 0.959 . S
C53 C52 1.517 . S
C53 O101 1.468 . S
C53 H114 0.980 . S
C54 C55 1.349 . S
C54 C59 1.367 . S
C54 O101 1.408 . S
C55 C54 1.349 . S
C55 C56 1.407 . S
C55 H118 0.930 . S
C56 C55 1.407 . S
C56 C57 1.449 . S
C56 C60 1.535 1_455 S
C57 C56 1.449 . S
C57 C58 1.384 . S
C57 C82 1.553 . S
C58 C57 1.384 . S
C58 C59 1.364 . S
C58 C61 1.450 . S
C59 C54 1.367 . S
C59 C58 1.364 . S
C59 H119 0.931 . S
C60 C56 1.535 1_655 S
C60 H120 0.959 . S
C60 H121 0.961 . S
C60 H122 0.959 . S
C61 C58 1.450 . S
C61 H123 0.960 . S
C61 H124 0.960 . S
C61 H125 0.960 . S
C62 C63 1.309 . S
C62 C67 1.304 . S
C62 O100 1.435 . S
C63 C62 1.309 . S
C63 C64 1.476 . S
C63 H127 0.930 . S
C64 C63 1.476 . S
C64 C65 1.400 . S
C64 C68 1.567 1_455 S
C65 C64 1.400 . S
C65 C66 1.373 . S
C65 C87 1.432 . S
C66 C65 1.373 . S
C66 C67 1.339 . S
C66 C69 1.530 . S
C67 C62 1.304 . S
C67 C66 1.339 . S
C67 H128 0.930 . S
C68 C64 1.567 1_655 S
C68 H129 0.961 . S
C68 H130 0.960 . S
C68 H131 0.958 . S
C69 C66 1.530 . S
C69 H132 0.961 . S
C69 H133 0.960 . S
C69 H134 0.960 . S
C70 C71 1.530 1_655 S
C70 H136 0.961 1_655 S
C70 H137 0.961 . S
C70 H138 0.959 . S
C71 C70 1.530 1_455 S
C71 O99 1.412 1_455 S
C71 H135 0.980 . S
C72 C73 1.288 1_455 S
C72 C77 1.377 . S
C72 O99 1.393 1_455 S
C73 C72 1.288 1_655 S
C73 C74 1.369 . S
C73 H139 0.932 . S
C74 C73 1.369 . S
C74 C75 1.398 1_655 S
C74 C78 1.527 . S
C75 C74 1.398 1_455 S
C75 C76 1.380 . S
C75 C89 1.497 . S
C76 C75 1.380 . S
C76 C77 1.383 . S
C76 C79 1.603 . S
C77 C72 1.377 . S
C77 C76 1.383 . S
C77 H140 0.929 . S
C78 C74 1.527 . S
C78 H141 0.961 . S
C78 H142 0.959 . S
C78 H143 0.959 . S
C79 C76 1.603 . S
C79 H144 0.960 . S
C79 H145 0.962 . S
C79 H146 0.961 . S
C80 C47 1.587 . S
C80 C81 1.360 . S
C80 C93 1.412 . S
C81 C80 1.360 . S
C81 C82 1.365 . S
C81 H147 0.929 . S
C82 C57 1.553 . S
C82 C81 1.365 . S
C82 C83 1.404 . S
C83 C82 1.404 . S
C83 C84 1.395 . S
C83 C94 1.451 . S
C84 C83 1.395 . S
C84 C85 1.322 . S
C84 H148 0.930 . S
C85 C84 1.322 . S
C85 C86 1.459 . S
C85 H149 0.929 . S
C86 C85 1.459 . S
C86 C87 1.445 . S
C86 C95 1.395 . S
C87 C65 1.432 . S
C87 C86 1.445 . S
C87 C88 1.370 . S
C88 C87 1.370 . S
C88 C89 1.438 . S
C88 H150 0.930 . S
C89 C75 1.497 . S
C89 C88 1.438 . S
C89 C90 1.360 . S
C90 C89 1.360 . S
C90 C91 1.401 . S
C90 C95 1.446 . S
C91 C90 1.401 . S
C91 C92 1.347 . S
C91 H151 0.929 . S
C92 C91 1.347 . S
C92 C93 1.455 . S
C92 H152 0.930 . S
C93 C80 1.412 . S
C93 C92 1.455 . S
C93 C94 1.331 . S
C94 C83 1.451 . S
C94 C93 1.331 . S
C94 C95 1.497 . S
C95 C86 1.395 . S
C95 C90 1.446 . S
C95 C94 1.497 . S
C96 C97 1.582 . S
C96 H153 0.962 . S
C96 H154 0.959 . S
C96 H155 0.958 . S
C97 C96 1.582 . S
C97 O100 1.458 . S
C97 H126 0.980 . S
O98 C43 1.426 1_655 S
O98 C44 1.334 1_655 S
O99 C71 1.412 1_655 S
O99 C72 1.393 1_655 S
O100 C62 1.435 . S
O100 C97 1.458 . S
O101 C53 1.468 . S
O101 C54 1.408 . S
H102 C43 0.980 . S
H103 C42 0.959 . S
H104 C42 0.959 . S
H105 C42 0.960 . S
H106 C45 0.929 . S
H107 C49 0.929 . S
H108 C50 0.959 . S
H109 C50 0.961 . S
H110 C50 0.961 . S
H111 C51 0.960 . S
H112 C51 0.960 . S
H113 C51 0.961 . S
H114 C53 0.980 . S
H115 C52 0.961 . S
H116 C52 0.960 . S
H117 C52 0.959 . S
H118 C55 0.930 . S
H119 C59 0.931 . S
H120 C60 0.959 . S
H121 C60 0.961 . S
H122 C60 0.959 . S
H123 C61 0.960 . S
H124 C61 0.960 . S
H125 C61 0.960 . S
H126 C97 0.980 . S
H127 C63 0.930 . S
H128 C67 0.930 . S
H129 C68 0.961 . S
H130 C68 0.960 . S
H131 C68 0.958 . S
H132 C69 0.961 . S
H133 C69 0.960 . S
H134 C69 0.960 . S
H135 C71 0.980 . S
H136 C70 0.961 1_455 S
H137 C70 0.961 . S
H138 C70 0.959 . S
H139 C73 0.932 . S
H140 C77 0.929 . S
H141 C78 0.961 . S
H142 C78 0.959 . S
H143 C78 0.959 . S
H144 C79 0.960 . S
H145 C79 0.962 . S
H146 C79 0.961 . S
H147 C81 0.929 . S
H148 C84 0.930 . S
H149 C85 0.929 . S
H150 C88 0.930 . S
H151 C91 0.929 . S
H152 C92 0.930 . S
H153 C96 0.962 . S
H154 C96 0.959 . S
H155 C96 0.958 . S
C156 C157 1.560 1_565 S
C156 H217 0.959 . S
C156 H218 0.959 . S
C156 H219 0.960 1_565 S
C157 C156 1.560 1_545 S
C157 O212 1.426 . S
C157 H216 0.980 . S
C158 C159 1.407 . S
C158 C163 1.418 1_545 S
C158 O212 1.334 . S
C159 C158 1.407 . S
C159 C160 1.360 . S
C159 H220 0.929 . S
C160 C159 1.360 . S
C160 C161 1.401 . S
C160 C164 1.527 . S
C161 C160 1.401 . S
C161 C162 1.405 . S
C161 C194 1.587 . S
C162 C161 1.405 . S
C162 C163 1.332 1_545 S
C162 C165 1.496 1_545 S
C163 C158 1.418 1_565 S
C163 C162 1.332 1_565 S
C163 H221 0.929 . S
C164 C160 1.527 . S
C164 H222 0.959 . S
C164 H223 0.961 . S
C164 H224 0.961 . S
C165 C162 1.496 1_565 S
C165 H225 0.960 . S
C165 H226 0.960 . S
C165 H227 0.961 . S
C166 C167 1.517 . S
C166 H229 0.961 . S
C166 H230 0.960 . S
C166 H231 0.959 . S
C167 C166 1.517 . S
C167 O215 1.468 . S
C167 H228 0.980 . S
C168 C169 1.349 . S
C168 C173 1.367 . S
C168 O215 1.408 . S
C169 C168 1.349 . S
C169 C170 1.407 . S
C169 H232 0.930 . S
C170 C169 1.407 . S
C170 C171 1.449 . S
C170 C174 1.535 . S
C171 C170 1.449 . S
C171 C172 1.384 . S
C171 C196 1.553 . S
C172 C171 1.384 . S
C172 C173 1.364 . S
C172 C175 1.450 . S
C173 C168 1.367 . S
C173 C172 1.364 . S
C173 H233 0.931 . S
C174 C170 1.535 . S
C174 H234 0.959 . S
C174 H235 0.961 1_545 S
C174 H236 0.959 1_545 S
C175 C172 1.450 . S
C175 H237 0.960 . S
C175 H238 0.960 . S
C175 H239 0.960 . S
C176 C177 1.309 . S
C176 C181 1.304 . S
C176 O214 1.435 . S
C177 C176 1.309 . S
C177 C178 1.476 . S
C177 H241 0.930 . S
C178 C177 1.476 . S
C178 C179 1.400 . S
C178 C182 1.567 1_545 S
C179 C178 1.400 . S
C179 C180 1.373 . S
C179 C201 1.432 . S
C180 C179 1.373 . S
C180 C181 1.339 . S
C180 C183 1.530 . S
C181 C176 1.304 . S
C181 C180 1.339 . S
C181 H242 0.930 . S
C182 C178 1.567 1_565 S
C182 H243 0.961 . S
C182 H244 0.960 . S
C182 H245 0.958 . S
C183 C180 1.530 . S
C183 H246 0.961 . S
C183 H247 0.960 . S
C183 H248 0.960 . S
C184 C185 1.530 . S
C184 H250 0.961 . S
C184 H251 0.961 1_545 S
C184 H252 0.959 1_545 S
C185 C184 1.530 . S
C185 O213 1.412 . S
C185 H249 0.980 . S
C186 C187 1.288 1_545 S
C186 C191 1.377 . S
C186 O213 1.393 . S
C187 C186 1.288 1_565 S
C187 C188 1.369 . S
C187 H253 0.932 . S
C188 C187 1.369 . S
C188 C189 1.398 1_565 S
C188 C192 1.527 . S
C189 C188 1.398 1_545 S
C189 C190 1.380 . S
C189 C203 1.497 . S
C190 C189 1.380 . S
C190 C191 1.383 . S
C190 C193 1.603 . S
C191 C186 1.377 . S
C191 C190 1.383 . S
C191 H254 0.929 . S
C192 C188 1.527 . S
C192 H255 0.961 . S
C192 H256 0.959 . S
C192 H257 0.959 . S
C193 C190 1.603 . S
C193 H258 0.960 . S
C193 H259 0.962 . S
C193 H260 0.961 . S
C194 C161 1.587 . S
C194 C195 1.360 . S
C194 C207 1.412 . S
C195 C194 1.360 . S
C195 C196 1.365 . S
C195 H261 0.929 . S
C196 C171 1.553 . S
C196 C195 1.365 . S
C196 C197 1.404 . S
C197 C196 1.404 . S
C197 C198 1.395 . S
C197 C208 1.451 . S
C198 C197 1.395 . S
C198 C199 1.322 . S
C198 H262 0.930 . S
C199 C198 1.322 . S
C199 C200 1.459 . S
C199 H263 0.929 . S
C200 C199 1.459 . S
C200 C201 1.445 . S
C200 C209 1.395 . S
C201 C179 1.432 . S
C201 C200 1.445 . S
C201 C202 1.370 . S
C202 C201 1.370 . S
C202 C203 1.438 . S
C202 H264 0.930 . S
C203 C189 1.497 . S
C203 C202 1.438 . S
C203 C204 1.360 . S
C204 C203 1.360 . S
C204 C205 1.401 . S
C204 C209 1.446 . S
C205 C204 1.401 . S
C205 C206 1.347 . S
C205 H265 0.929 . S
C206 C205 1.347 . S
C206 C207 1.455 . S
C206 H266 0.930 . S
C207 C194 1.412 . S
C207 C206 1.455 . S
C207 C208 1.331 . S
C208 C197 1.451 . S
C208 C207 1.331 . S
C208 C209 1.497 . S
C209 C200 1.395 . S
C209 C204 1.446 . S
C209 C208 1.497 . S
C210 C211 1.582 . S
C210 H267 0.962 . S
C210 H268 0.959 . S
C210 H269 0.958 . S
C211 C210 1.582 . S
C211 O214 1.458 . S
C211 H240 0.980 . S
O212 C157 1.426 . S
O212 C158 1.334 . S
O213 C185 1.412 . S
O213 C186 1.393 . S
O214 C176 1.435 . S
O214 C211 1.458 . S
O215 C167 1.468 . S
O215 C168 1.408 . S
H216 C157 0.980 . S
H217 C156 0.959 . S
H218 C156 0.959 . S
H219 C156 0.960 1_545 S
H220 C159 0.929 . S
H221 C163 0.929 . S
H222 C164 0.959 . S
H223 C164 0.961 . S
H224 C164 0.961 . S
H225 C165 0.960 . S
H226 C165 0.960 . S
H227 C165 0.961 . S
H228 C167 0.980 . S
H229 C166 0.961 . S
H230 C166 0.960 . S
H231 C166 0.959 . S
H232 C169 0.930 . S
H233 C173 0.931 . S
H234 C174 0.959 . S
H235 C174 0.961 1_565 S
H236 C174 0.959 1_565 S
H237 C175 0.960 . S
H238 C175 0.960 . S
H239 C175 0.960 . S
H240 C211 0.980 . S
H241 C177 0.930 . S
H242 C181 0.930 . S
H243 C182 0.961 . S
H244 C182 0.960 . S
H245 C182 0.958 . S
H246 C183 0.961 . S
H247 C183 0.960 . S
H248 C183 0.960 . S
H249 C185 0.980 . S
H250 C184 0.961 . S
H251 C184 0.961 1_565 S
H252 C184 0.959 1_565 S
H253 C187 0.932 . S
H254 C191 0.929 . S
H255 C192 0.961 . S
H256 C192 0.959 . S
H257 C192 0.959 . S
H258 C193 0.960 . S
H259 C193 0.962 . S
H260 C193 0.961 . S
H261 C195 0.929 . S
H262 C198 0.930 . S
H263 C199 0.929 . S
H264 C202 0.930 . S
H265 C205 0.929 . S
H266 C206 0.930 . S
H267 C210 0.962 . S
H268 C210 0.959 . S
H269 C210 0.958 . S
C270 C271 1.560 . S
C270 H331 0.959 . S
C270 H332 0.959 . S
C270 H333 0.960 . S
C271 C270 1.560 . S
C271 O326 1.426 . S
C271 H330 0.980 . S
C272 C273 1.407 . S
C272 C277 1.418 . S
C272 O326 1.334 . S
C273 C272 1.407 . S
C273 C274 1.360 . S
C273 H334 0.929 . S
C274 C273 1.360 . S
C274 C275 1.401 . S
C274 C278 1.527 . S
C275 C274 1.401 . S
C275 C276 1.405 . S
C275 C308 1.587 . S
C276 C275 1.405 . S
C276 C277 1.332 . S
C276 C279 1.496 . S
C277 C272 1.418 . S
C277 C276 1.332 . S
C277 H335 0.929 . S
C278 C274 1.527 . S
C278 H336 0.959 . S
C278 H337 0.961 . S
C278 H338 0.961 . S
C279 C276 1.496 . S
C279 H339 0.960 . S
C279 H340 0.960 . S
C279 H341 0.961 . S
C280 C281 1.517 . S
C280 H343 0.961 . S
C280 H344 0.960 . S
C280 H345 0.959 . S
C281 C280 1.517 . S
C281 O329 1.468 . S
C281 H342 0.980 . S
C282 C283 1.349 . S
C282 C287 1.367 . S
C282 O329 1.408 . S
C283 C282 1.349 . S
C283 C284 1.407 . S
C283 H346 0.930 . S
C284 C283 1.407 . S
C284 C285 1.449 . S
C284 C288 1.535 . S
C285 C284 1.449 . S
C285 C286 1.384 . S
C285 C310 1.553 . S
C286 C285 1.384 . S
C286 C287 1.364 . S
C286 C289 1.450 . S
C287 C282 1.367 . S
C287 C286 1.364 . S
C287 H347 0.931 . S
C288 C284 1.535 . S
C288 H348 0.959 . S
C288 H349 0.961 . S
C288 H350 0.959 . S
C289 C286 1.450 . S
C289 H351 0.960 . S
C289 H352 0.960 . S
C289 H353 0.960 . S
C290 C291 1.309 . S
C290 C295 1.304 . S
C290 O328 1.435 . S
C291 C290 1.309 . S
C291 C292 1.476 . S
C291 H355 0.930 . S
C292 C291 1.476 . S
C292 C293 1.400 . S
C292 C296 1.567 . S
C293 C292 1.400 . S
C293 C294 1.373 . S
C293 C315 1.432 . S
C294 C293 1.373 . S
C294 C295 1.339 . S
C294 C297 1.530 . S
C295 C290 1.304 . S
C295 C294 1.339 . S
C295 H356 0.930 . S
C296 C292 1.567 . S
C296 H357 0.961 . S
C296 H358 0.960 . S
C296 H359 0.958 . S
C297 C294 1.530 . S
C297 H360 0.961 . S
C297 H361 0.960 . S
C297 H362 0.960 . S
C298 C299 1.530 1_554 S
C298 H364 0.961 . S
C298 H365 0.961 1_554 S
C298 H366 0.959 . S
C299 C298 1.530 1_556 S
C299 O327 1.412 . S
C299 H363 0.980 . S
C300 C301 1.288 . S
C300 C305 1.377 . S
C300 O327 1.393 . S
C301 C300 1.288 . S
C301 C302 1.369 . S
C301 H367 0.932 . S
C302 C301 1.369 . S
C302 C303 1.398 . S
C302 C306 1.527 . S
C303 C302 1.398 . S
C303 C304 1.380 . S
C303 C317 1.497 . S
C304 C303 1.380 . S
C304 C305 1.383 . S
C304 C307 1.603 . S
C305 C300 1.377 . S
C305 C304 1.383 . S
C305 H368 0.929 . S
C306 C302 1.527 . S
C306 H369 0.961 . S
C306 H370 0.959 . S
C306 H371 0.959 . S
C307 C304 1.603 . S
C307 H372 0.960 . S
C307 H373 0.962 . S
C307 H374 0.961 . S
C308 C275 1.587 . S
C308 C309 1.360 . S
C308 C321 1.412 . S
C309 C308 1.360 . S
C309 C310 1.365 . S
C309 H375 0.929 . S
C310 C285 1.553 . S
C310 C309 1.365 . S
C310 C311 1.404 . S
C311 C310 1.404 . S
C311 C312 1.395 . S
C311 C322 1.451 . S
C312 C311 1.395 . S
C312 C313 1.322 . S
C312 H376 0.930 . S
C313 C312 1.322 . S
C313 C314 1.459 . S
C313 H377 0.929 . S
C314 C313 1.459 . S
C314 C315 1.445 . S
C314 C323 1.395 . S
C315 C293 1.432 . S
C315 C314 1.445 . S
C315 C316 1.370 . S
C316 C315 1.370 . S
C316 C317 1.438 . S
C316 H378 0.930 . S
C317 C303 1.497 . S
C317 C316 1.438 . S
C317 C318 1.360 . S
C318 C317 1.360 . S
C318 C319 1.401 . S
C318 C323 1.446 . S
C319 C318 1.401 . S
C319 C320 1.347 . S
C319 H379 0.929 . S
C320 C319 1.347 . S
C320 C321 1.455 . S
C320 H380 0.930 . S
C321 C308 1.412 . S
C321 C320 1.455 . S
C321 C322 1.331 . S
C322 C311 1.451 . S
C322 C321 1.331 . S
C322 C323 1.497 . S
C323 C314 1.395 . S
C323 C318 1.446 . S
C323 C322 1.497 . S
C324 C325 1.597 . S
C324 H381 0.942 1_556 S
C324 H382 0.976 . S
C324 H383 0.946 1_556 S
C325 C324 1.597 . S
C325 O328 1.458 . S
C325 H354 0.980 . S
O326 C271 1.426 . S
O326 C272 1.334 . S
O327 C299 1.412 . S
O327 C300 1.393 . S
O328 C290 1.435 . S
O328 C325 1.458 . S
O329 C281 1.468 . S
O329 C282 1.408 . S
H330 C271 0.980 . S
H331 C270 0.959 . S
H332 C270 0.959 . S
H333 C270 0.960 . S
H334 C273 0.929 . S
H335 C277 0.929 . S
H336 C278 0.959 . S
H337 C278 0.961 . S
H338 C278 0.961 . S
H339 C279 0.960 . S
H340 C279 0.960 . S
H341 C279 0.961 . S
H342 C281 0.980 . S
H343 C280 0.961 . S
H344 C280 0.960 . S
H345 C280 0.959 . S
H346 C283 0.930 . S
H347 C287 0.931 . S
H348 C288 0.959 . S
H349 C288 0.961 . S
H350 C288 0.959 . S
H351 C289 0.960 . S
H352 C289 0.960 . S
H353 C289 0.960 . S
H354 C325 0.980 . S
H355 C291 0.930 . S
H356 C295 0.930 . S
H357 C296 0.961 . S
H358 C296 0.960 . S
H359 C296 0.958 . S
H360 C297 0.961 . S
H361 C297 0.960 . S
H362 C297 0.960 . S
H363 C299 0.980 . S
H364 C298 0.961 . S
H365 C298 0.961 1_556 S
H366 C298 0.959 . S
H367 C301 0.932 . S
H368 C305 0.929 . S
H369 C306 0.961 . S
H370 C306 0.959 . S
H371 C306 0.959 . S
H372 C307 0.960 . S
H373 C307 0.962 . S
H374 C307 0.961 . S
H375 C309 0.929 . S
H376 C312 0.930 . S
H377 C313 0.929 . S
H378 C316 0.930 . S
H379 C319 0.929 . S
H380 C320 0.930 . S
H381 C324 0.942 1_554 S
H382 C324 0.976 . S
H383 C324 0.946 1_554 S
C384 C385 1.369 . S
C384 C386 1.419 . S
C384 H388 0.930 . S
C385 C384 1.369 . S
C385 C394 1.429 . S
C386 C384 1.419 . S
C386 C387 1.363 . S
C386 H389 0.929 . S
C387 C386 1.363 . S
C387 C393 1.428 . S
H388 C384 0.930 . S
H389 C386 0.929 . S
S390 N391 1.613 . S
S390 N392 1.610 1_655 S
N391 S390 1.613 . S
N391 C394 1.350 1_655 S
N392 S390 1.610 1_455 S
N392 C393 1.351 . S
C393 C387 1.428 . S
C393 N392 1.351 . S
C393 C394 1.434 . S
C394 C385 1.429 . S
C394 N391 1.350 1_455 S
C394 C393 1.434 . S
C395 C396 1.369 . S
C395 C397 1.419 . S
C395 H399 0.930 . S
C396 C395 1.369 . S
C396 C405 1.429 . S
C397 C395 1.419 . S
C397 C398 1.363 . S
C397 H400 0.929 . S
C398 C397 1.363 . S
C398 C404 1.428 . S
H399 C395 0.930 . S
H400 C397 0.929 . S
S401 N402 1.613 . S
S401 N403 1.610 . S
N402 S401 1.613 . S
N402 C405 1.350 . S
N403 S401 1.610 . S
N403 C404 1.351 . S
C404 C398 1.428 . S
C404 N403 1.351 . S
C404 C405 1.434 . S
C405 C396 1.429 . S
C405 N402 1.350 . S
C405 C404 1.434 . S
C406 C407 1.369 . S
C406 C408 1.419 . S
C406 H410 0.930 . S
C407 C406 1.369 . S
C407 C416 1.429 . S
C408 C406 1.419 . S
C408 C409 1.363 . S
C408 H411 0.929 . S
C409 C408 1.363 . S
C409 C415 1.428 . S
H410 C406 0.930 . S
H411 C408 0.929 . S
S412 N413 1.613 . S
S412 N414 1.610 1_545 S
N413 S412 1.613 . S
N413 C416 1.350 1_545 S
N414 S412 1.610 1_565 S
N414 C415 1.351 . S
C415 C409 1.428 . S
C415 N414 1.351 . S
C415 C416 1.434 . S
C416 C407 1.429 . S
C416 N413 1.350 1_565 S
C416 C415 1.434 . S
C417 C418 1.369 . S
C417 C419 1.419 . S
C417 H421 0.930 . S
C418 C417 1.369 . S
C418 C427 1.429 1_455 S
C419 C417 1.419 . S
C419 C420 1.363 . S
C419 H422 0.929 . S
C420 C419 1.363 . S
C420 C426 1.428 1_455 S
H421 C417 0.930 . S
H422 C419 0.929 . S
S423 N424 1.613 . S
S423 N425 1.610 . S
N424 S423 1.613 . S
N424 C427 1.350 . S
N425 S423 1.610 . S
N425 C426 1.351 . S
C426 C420 1.428 1_655 S
C426 N425 1.351 . S
C426 C427 1.434 . S
C427 C418 1.429 1_655 S
C427 N424 1.350 . S
C427 C426 1.434 . S
C428 C429 1.369 . S
C428 C430 1.419 . S
C428 H432 0.930 . S
C429 C428 1.369 . S
C429 C438 1.429 . S
C430 C428 1.419 . S
C430 C431 1.363 . S
C430 H433 0.929 . S
C431 C430 1.363 . S
C431 C437 1.428 . S
H432 C428 0.930 . S
H433 C430 0.929 . S
S434 N435 1.613 . S
S434 N436 1.610 . S
N435 S434 1.613 . S
N435 C438 1.350 1_565 S
N436 S434 1.610 . S
N436 C437 1.351 1_565 S
C437 C431 1.428 . S
C437 N436 1.351 1_545 S
C437 C438 1.434 . S
C438 C429 1.429 . S
C438 N435 1.350 1_545 S
C438 C437 1.434 . S
C439 C440 1.369 . S
C439 C441 1.419 . S
C439 H443 0.930 . S
C440 C439 1.369 . S
C440 C449 1.429 . S
C441 C439 1.419 . S
C441 C442 1.363 . S
C441 H444 0.929 . S
C442 C441 1.363 . S
C442 C448 1.428 . S
H443 C439 0.930 . S
H444 C441 0.929 . S
S445 N446 1.613 . S
S445 N447 1.610 . S
N446 S445 1.613 . S
N446 C449 1.350 . S
N447 S445 1.610 . S
N447 C448 1.351 . S
C448 C442 1.428 . S
C448 N447 1.351 . S
C448 C449 1.434 . S
C449 C440 1.429 . S
C449 N446 1.350 . S
C449 C448 1.434 . S
C450 C451 1.369 . S
C450 C452 1.419 . S
C450 H454 0.930 . S
C451 C450 1.369 . S
C451 C460 1.429 . S
C452 C450 1.419 . S
C452 C453 1.363 . S
C452 H455 0.929 . S
C453 C452 1.363 . S
C453 C459 1.428 . S
H454 C450 0.930 . S
H455 C452 0.929 . S
S456 N457 1.613 . S
S456 N458 1.610 . S
N457 S456 1.613 . S
N457 C460 1.350 . S
N458 S456 1.610 . S
N458 C459 1.351 . S
C459 C453 1.428 . S
C459 N458 1.351 . S
C459 C460 1.434 . S
C460 C451 1.429 . S
C460 N457 1.350 . S
C460 C459 1.434 . S
C461 C462 1.369 . S
C461 C463 1.419 . S
C461 H465 0.930 . S
C462 C461 1.369 . S
C462 C471 1.429 . S
C463 C461 1.419 . S
C463 C464 1.363 . S
C463 H466 0.929 . S
C464 C463 1.363 . S
C464 C470 1.428 . S
H465 C461 0.930 . S
H466 C463 0.929 . S
S467 N468 1.613 . S
S467 N469 1.610 . S
N468 S467 1.613 . S
N468 C471 1.350 . S
N469 S467 1.610 . S
N469 C470 1.351 . S
C470 C464 1.428 . S
C470 N469 1.351 . S
C470 C471 1.434 . S
C471 C462 1.429 . S
C471 N468 1.350 . S
C471 C470 1.434 . S
C472 C473 1.369 . S
C472 C474 1.419 . S
C472 H476 0.930 . S
C473 C472 1.369 . S
C473 C482 1.429 . S
C474 C472 1.419 . S
C474 C475 1.363 . S
C474 H477 0.929 . S
C475 C474 1.363 . S
C475 C481 1.428 . S
H476 C472 0.930 . S
H477 C474 0.929 . S
S478 N479 1.613 . S
S478 N480 1.610 . S
N479 S478 1.613 . S
N479 C482 1.350 . S
N480 S478 1.610 . S
N480 C481 1.351 . S
C481 C475 1.428 . S
C481 N480 1.351 . S
C481 C482 1.434 . S
C482 C473 1.429 . S
C482 N479 1.350 . S
C482 C481 1.434 . S
C483 C484 1.369 . S
C483 C485 1.419 . S
C483 H487 0.930 . S
C484 C483 1.369 . S
C484 C493 1.429 . S
C485 C483 1.419 . S
C485 C486 1.363 . S
C485 H488 0.929 . S
C486 C485 1.363 . S
C486 C492 1.428 . S
H487 C483 0.930 . S
H488 C485 0.929 . S
S489 N490 1.613 . S
S489 N491 1.610 . S
N490 S489 1.613 . S
N490 C493 1.350 . S
N491 S489 1.610 . S
N491 C492 1.351 . S
C492 C486 1.428 . S
C492 N491 1.351 . S
C492 C493 1.434 . S
C493 C484 1.429 . S
C493 N490 1.350 . S
C493 C492 1.434 . S
C494 C495 1.369 . S
C494 C496 1.419 . S
C494 H498 0.930 . S
C495 C494 1.369 . S
C495 C504 1.429 . S
C496 C494 1.419 . S
C496 C497 1.363 . S
C496 H499 0.929 1_554 S
C497 C496 1.363 . S
C497 C503 1.428 . S
H498 C494 0.930 . S
H499 C496 0.929 1_556 S
S500 N501 1.613 . S
S500 N502 1.610 . S
N501 S500 1.613 . S
N501 C504 1.350 . S
N502 S500 1.610 . S
N502 C503 1.351 . S
C503 C497 1.428 . S
C503 N502 1.351 . S
C503 C504 1.434 . S
C504 C495 1.429 . S
C504 N501 1.350 . S
C504 C503 1.434 . S
C505 C506 1.369 . S
C505 C507 1.419 . S
C505 H509 0.930 . S
C506 C505 1.369 . S
C506 C515 1.429 . S
C507 C505 1.419 . S
C507 C508 1.363 . S
C507 H510 0.929 . S
C508 C507 1.363 . S
C508 C514 1.428 . S
H509 C505 0.930 . S
H510 C507 0.929 . S
S511 N512 1.613 . S
S511 N513 1.610 . S
N512 S511 1.613 . S
N512 C515 1.350 . S
N513 S511 1.610 . S
N513 C514 1.351 . S
C514 C508 1.428 . S
C514 N513 1.351 . S
C514 C515 1.434 . S
C515 C506 1.429 . S
C515 N512 1.350 . S
C515 C514 1.434 . S
C387 C97 1.158 . S
C385 C0 1.538 . S
C396 C25 1.566 . S
C398 C211 1.172 . S
C407 C33 1.380 . S
C409 C271 1.079 . S
C418 C11 1.396 . S
C420 C71 1.074 . S
C431 C185 1.122 . S
C429 C14 1.444 . S
C440 C37 1.539 . S
C442 C281 0.975 . S
C453 C167 0.907 . S
C451 C28 1.503 . S
C462 C9 1.484 . S
C464 C299 1.109 1_554 S
C475 C43 1.112 . S
C473 C19 1.399 . S
C486 C157 1.085 . S
C484 C39 1.362 . S
C497 C325 1.228 1_554 S
C495 C5 1.580 . S
C506 C23 1.559 . S
C508 C53 0.948 . S
