# Generated by pormake.
# Topology anh, (6,3)-cn, num edge types: 1
# Building blocks:
#     Node 0, Type 0, BuildingBlock: GEDQOX_clean_sbu_0, # of connection points: 6
#     Node 1, Type 0, BuildingBlock: GEDQOX_clean_sbu_0, # of connection points: 6
#     Node 2, Type 0, BuildingBlock: GEDQOX_clean_sbu_0, # of connection points: 6
#     Node 3, Type 1, BuildingBlock: ESEHIV_clean_linker_0, # of connection points: 3
#     Node 4, Type 1, BuildingBlock: ESEHIV_clean_linker_0, # of connection points: 3
#     Node 5, Type 1, BuildingBlock: ESEHIV_clean_linker_0, # of connection points: 3
#     Node 6, Type 1, BuildingBlock: ESEHIV_clean_linker_0, # of connection points: 3
#     Node 7, Type 1, BuildingBlock: ESEHIV_clean_linker_0, # of connection points: 3
#     Node 8, Type 1, BuildingBlock: ESEHIV_clean_linker_0, # of connection points: 3
#     Edge 9, Type (0, 1), BuildingBlock: CIFDUS_clean_linker_0, # of connection points: 2
#     Edge 10, Type (0, 1), BuildingBlock: CIFDUS_clean_linker_0, # of connection points: 2
#     Edge 11, Type (0, 1), BuildingBlock: CIFDUS_clean_linker_0, # of connection points: 2
#     Edge 12, Type (0, 1), BuildingBlock: CIFDUS_clean_linker_0, # of connection points: 2
#     Edge 13, Type (0, 1), BuildingBlock: CIFDUS_clean_linker_0, # of connection points: 2
#     Edge 14, Type (0, 1), BuildingBlock: CIFDUS_clean_linker_0, # of connection points: 2
#     Edge 15, Type (0, 1), BuildingBlock: CIFDUS_clean_linker_0, # of connection points: 2
#     Edge 16, Type (0, 1), BuildingBlock: CIFDUS_clean_linker_0, # of connection points: 2
#     Edge 17, Type (0, 1), BuildingBlock: CIFDUS_clean_linker_0, # of connection points: 2
#     Edge 18, Type (0, 1), BuildingBlock: CIFDUS_clean_linker_0, # of connection points: 2
#     Edge 19, Type (0, 1), BuildingBlock: CIFDUS_clean_linker_0, # of connection points: 2
#     Edge 20, Type (0, 1), BuildingBlock: CIFDUS_clean_linker_0, # of connection points: 2
#     Edge 21, Type (0, 1), BuildingBlock: CIFDUS_clean_linker_0, # of connection points: 2
#     Edge 22, Type (0, 1), BuildingBlock: CIFDUS_clean_linker_0, # of connection points: 2
#     Edge 23, Type (0, 1), BuildingBlock: CIFDUS_clean_linker_0, # of connection points: 2
#     Edge 24, Type (0, 1), BuildingBlock: CIFDUS_clean_linker_0, # of connection points: 2
#     Edge 25, Type (0, 1), BuildingBlock: CIFDUS_clean_linker_0, # of connection points: 2
#     Edge 26, Type (0, 1), BuildingBlock: CIFDUS_clean_linker_0, # of connection points: 2
# Relax obj value: 0.235
# Max RMSD: 0.239
# Mean RMSD: 0.172
data_MOF--net-anh--node1-GEDQOX_clean_sbu_0--node2-ESEHIV_clean_linker_0--edge1-CIFDUS_clean_linker_0
_symmetry_space_group_name_H-M    P1
_symmetry_Int_Tables_number       1
_symmetry_cell_setting            triclinic
loop_
_symmetry_equiv_pos_as_xyz
'x, y, z'
_cell_length_a     24.406409
_cell_length_b     23.58059
_cell_length_c     45.39014
_cell_angle_alpha  92.209671
_cell_angle_beta   90.42208
_cell_angle_gamma 99.539196
loop_
_atom_site_label
_atom_site_type_symbol
_atom_site_fract_x
_atom_site_fract_y
_atom_site_fract_z
_atom_type_partial_charge
Nd0 Nd 1.09807 0.59856 0.1395 0.0
Nd1 Nd 1.07806 0.46836 0.13834 0.0
C2 C 0.13738 0.70783 0.13086 0.0
C3 C 0.19197 0.74343 0.1374 0.0
C4 C 0.24122 0.72083 0.13301 0.0
C5 C 0.29194 0.75089 0.14381 0.0
C6 C 0.29444 0.80434 0.15895 0.0
C7 C 0.24565 0.82841 0.16185 0.0
C8 C 0.19477 0.79802 0.15127 0.0
C9 C 1.07976 0.55311 0.19398 0.0
C10 C 0.2085 0.52745 0.13855 0.0
C11 C 1.04672 0.35834 0.14918 0.0
C12 C 0.9992 0.32263 0.1626 0.0
C13 C 0.95309 0.34658 0.172 0.0
C14 C 0.90942 0.31291 0.18624 0.0
C15 C 0.91129 0.2548 0.19143 0.0
C16 C 0.95757 0.23103 0.18178 0.0
C17 C 1.00115 0.26473 0.16748 0.0
C18 C 1.1024 0.5168 0.08529 0.0
C19 C 0.96811 0.53655 0.13437 0.0
O20 O 0.13584 0.66715 0.11027 0.0
O21 O 0.10843 0.6907 0.15394 0.0
O22 O 1.06154 0.59882 0.18586 0.0
O23 O 0.10889 0.53458 0.17411 0.0
O24 O 0.18985 0.57725 0.13661 0.0
O25 O 0.1732 0.47912 0.1417 0.0
O26 O 1.07749 0.39505 0.16729 0.0
O27 O 1.03755 0.38026 0.1239 0.0
O28 O 0.12091 0.47105 0.09328 0.0
O29 O 1.06984 0.53242 0.10412 0.0
O30 O 0.98824 0.49028 0.14235 0.0
O31 O 1.00269 0.58449 0.12861 0.0
H32 H 0.2404 0.67906 0.12213 0.0
H33 H 0.32903 0.7317 0.14096 0.0
H34 H 0.24635 0.86937 0.17362 0.0
H35 H 0.15726 0.81609 0.155 0.0
H36 H 0.95121 0.39143 0.16871 0.0
H37 H 0.87469 0.33268 0.19369 0.0
H38 H 0.95993 0.18625 0.18509 0.0
H39 H 1.03663 0.24571 0.16046 0.0
Nd40 Nd 0.56053 0.96929 0.52639 0.0
Nd41 Nd 0.69034 1.00364 0.51669 0.0
C42 C 0.46046 0.93582 0.54761 0.0
C43 C 0.41227 0.8949 0.53572 0.0
C44 C 0.38225 0.85471 0.55408 0.0
C45 C 0.34109 0.81107 0.54221 0.0
C46 C 0.32948 0.80675 0.51171 0.0
C47 C 0.35839 0.84838 0.49359 0.0
C48 C 0.39945 0.89178 0.50542 0.0
C49 C 0.58145 0.97722 0.46674 0.0
C50 C 0.63508 0.8653 0.52185 0.0
C51 C 0.79331 0.02468 0.49721 0.0
C52 C 0.82981 0.07397 0.48437 0.0
C53 C 0.82314 0.08796 0.45485 0.0
C54 C 0.85745 0.13487 0.44308 0.0
C55 C 0.89921 0.16894 0.46052 0.0
C56 C 0.90605 0.15482 0.48997 0.0
C57 C 0.87192 0.10768 0.50171 0.0
C58 C 0.6547 1.01435 0.57351 0.0
C59 C 0.61689 0.10521 0.52151 0.0
O60 O 0.50361 0.91273 0.55484 0.0
O61 O 0.47409 0.98379 0.53376 0.0
O62 O 0.53211 0.96291 0.47725 0.0
O63 O 0.61588 0.98474 0.48773 0.0
O64 O 0.58468 0.87911 0.5222 0.0
O65 O 0.68078 0.90463 0.52076 0.0
O66 O 0.75114 0.99876 0.48109 0.0
O67 O 0.7808 0.03045 0.52504 0.0
O68 O 0.69501 0.04982 0.56242 0.0
O69 O 0.63706 0.97383 0.55519 0.0
O70 O 0.65866 0.08743 0.50744 0.0
O71 O 0.57902 0.06862 0.53522 0.0
H72 H 0.39186 0.85599 0.57746 0.0
H73 H 0.31986 0.77952 0.55675 0.0
H74 H 0.3498 0.847 0.4701 0.0
H75 H 0.42209 0.92199 0.49068 0.0
H76 H 0.79124 0.06292 0.44079 0.0
H77 H 0.85074 0.14496 0.42039 0.0
H78 H 0.93828 0.17977 0.50386 0.0
H79 H 0.87845 0.09767 0.52443 0.0
Nd80 Nd 0.53907 0.50715 0.82165 0.0
Nd81 Nd 0.65582 0.55281 0.84437 0.0
C82 C 0.4464 0.49141 0.78971 0.0
C83 C 0.41969 0.53177 0.77291 0.0
C84 C 0.36275 0.53169 0.77631 0.0
C85 C 0.34062 0.58129 0.77098 0.0
C86 C 0.37568 0.63177 0.76288 0.0
C87 C 0.4298 0.62781 0.75386 0.0
C88 C 0.45211 0.57816 0.75925 0.0
C89 C 0.55155 0.51659 0.88216 0.0
C90 C 0.5852 0.64723 0.82774 0.0
C91 C 0.74991 0.56687 0.87408 0.0
C92 C 0.79927 0.54056 0.86875 0.0
C93 C 0.83787 0.5391 0.89146 0.0
C94 C 0.88783 0.51996 0.88537 0.0
C95 C 0.89984 0.50265 0.85642 0.0
C96 C 0.85936 0.50044 0.83415 0.0
C97 C 0.80907 0.51877 0.84036 0.0
C98 C 0.64754 0.54706 0.78423 0.0
C99 C 0.61295 0.41097 0.83464 0.0
O100 O 0.49354 0.47986 0.77965 0.0
O101 O 0.4476 0.50111 0.81832 0.0
O102 O 0.51905 0.47409 0.86861 0.0
O103 O 0.57286 0.55261 0.86408 0.0
O104 O 0.55475 0.60414 0.81253 0.0
O105 O 0.62208 0.63748 0.84745 0.0
O106 O 0.70579 0.53178 0.88217 0.0
O107 O 0.73933 0.60209 0.85399 0.0
O108 O 0.68172 0.58611 0.79898 0.0
O109 O 0.62313 0.50974 0.80104 0.0
O110 O 0.6516 0.45387 0.84434 0.0
O111 O 0.56546 0.4196 0.82319 0.0
H112 H 0.33687 0.49605 0.78644 0.0
H113 H 0.29844 0.58271 0.77788 0.0
H114 H 0.45699 0.66576 0.7468 0.0
H115 H 0.49609 0.57877 0.75583 0.0
H116 H 0.83049 0.55515 0.91352 0.0
H117 H 0.91879 0.52291 0.90284 0.0
H118 H 0.86787 0.48751 0.81171 0.0
H119 H 0.77895 0.51861 0.82267 0.0
H120 H 0.50968 0.9645 0.2816 0.0
H121 H 0.65857 0.0887 0.29743 0.0
H122 H 0.59354 0.05052 0.20911 0.0
C123 C 0.54389 0.99496 0.27348 0.0
C124 C 0.54692 1.00433 0.2432 0.0
C125 C 0.58343 0.02564 0.29341 0.0
C126 C 0.62807 0.06427 0.28235 0.0
C127 C 0.63187 0.07364 0.25193 0.0
C128 C 0.59083 0.0438 0.23259 0.0
H129 H 0.60603 0.58056 0.60518 0.0
H130 H 0.58649 0.39634 0.60813 0.0
H131 H 0.5886 0.47641 0.52443 0.0
C132 C 0.60172 0.53861 0.59395 0.0
C133 C 0.59922 0.53491 0.56295 0.0
C134 C 0.59636 0.48894 0.61054 0.0
C135 C 0.58914 0.43496 0.59564 0.0
C136 C 0.58624 0.42967 0.56475 0.0
C137 C 0.59122 0.47996 0.54829 0.0
H138 H 0.1757 0.56053 0.94183 0.0
H139 H 0.30155 0.71067 0.93858 0.0
H140 H 0.23581 0.62011 0.85819 0.0
C141 C 0.20357 0.58996 0.92879 0.0
C142 C 0.2008 0.58479 0.89802 0.0
C143 C 0.23993 0.63447 0.94346 0.0
C144 C 0.27389 0.6758 0.92727 0.0
C145 C 0.27084 0.67189 0.89625 0.0
C146 C 0.23588 0.62506 0.88203 0.0
H147 H 1.03479 0.44591 0.3688 0.0
H148 H 0.15181 0.6031 0.37379 0.0
H149 H 0.12211 0.50181 0.45065 0.0
C150 C 1.06497 0.47622 0.38154 0.0
C151 C 1.07466 0.46751 0.41154 0.0
C152 C 1.09247 0.52512 0.36801 0.0
C153 C 0.13057 0.56533 0.38438 0.0
C154 C 0.14173 0.55716 0.41416 0.0
C155 C 0.11314 0.50851 0.42774 0.0
H156 H 0.62917 0.12866 0.7567 0.0
H157 H 0.61284 0.9443 0.74848 0.0
H158 H 0.6035 0.02844 0.83374 0.0
C159 C 0.6232 0.08683 0.76638 0.0
C160 C 0.6163 0.08395 0.79693 0.0
C161 C 0.62064 0.0367 0.74834 0.0
C162 C 0.61436 0.9834 0.76193 0.0
C163 C 0.60945 0.97972 0.79277 0.0
C164 C 0.60946 0.03047 0.81014 0.0
H165 H 0.49233 0.5187 0.06389 0.0
H166 H 0.66813 0.52227 0.05857 0.0
H167 H 0.59561 0.56447 0.14164 0.0
C168 C 0.53275 0.52496 0.07477 0.0
C169 C 0.53698 0.54143 0.10485 0.0
C170 C 0.57952 0.51889 0.058 0.0
C171 C 0.63222 0.52748 0.0717 0.0
C172 C 0.63943 0.54311 0.10196 0.0
C173 C 0.5912 0.55161 0.11847 0.0
H174 H 0.30479 0.61322 0.14303 0.0
H175 H 0.25214 0.43084 0.12575 0.0
H176 H 0.34753 0.41856 0.11745 0.0
H177 H 0.44625 0.45864 0.11167 0.0
H178 H 0.50307 0.63944 0.12909 0.0
H179 H 0.40763 0.65275 0.14116 0.0
C180 C 0.31411 0.57076 0.13758 0.0
C181 C 0.26978 0.52313 0.13501 0.0
C182 C 0.37067 0.56336 0.13303 0.0
C183 C 0.28406 0.4686 0.1281 0.0
C184 C 0.33919 0.4613 0.12326 0.0
C185 C 0.43819 0.50079 0.11896 0.0
C186 C 0.48279 0.54769 0.11996 0.0
C187 C 0.38287 0.50819 0.12539 0.0
C188 C 0.47053 0.60213 0.1288 0.0
C189 C 0.41542 0.60986 0.13528 0.0
H190 H 0.93102 0.27626 0.48587 0.0
H191 H 0.94879 0.17384 0.40675 0.0
H192 H 1.00596 0.25634 0.38514 0.0
H193 H 1.04991 0.35769 0.38838 0.0
H194 H 1.03012 0.46132 0.46684 0.0
H195 H 0.97627 0.37781 0.48935 0.0
C196 C 0.94789 0.27187 0.46402 0.0
C197 C 0.93543 0.21897 0.44792 0.0
C198 C 0.98066 0.31961 0.45166 0.0
C199 C 0.95708 0.21423 0.41947 0.0
C200 C 0.99003 0.26131 0.40715 0.0
C201 C 1.0335 0.36223 0.41033 0.0
C202 C 1.04398 0.41595 0.42579 0.0
C203 C 1.00172 0.3143 0.42295 0.0
C204 C 1.02333 0.42049 0.4545 0.0
C205 C 0.99212 0.3728 0.46732 0.0
H206 H 0.63185 0.74954 0.85624 0.0
H207 H 0.5304 0.67922 0.78117 0.0
H208 H 0.52252 0.77509 0.7662 0.0
H209 H 0.5486 0.87875 0.7724 0.0
H210 H 0.65875 0.95193 0.84377 0.0
H211 H 0.6581 0.85583 0.86259 0.0
C212 C 0.60776 0.75534 0.83675 0.0
C213 C 0.58051 0.70689 0.82019 0.0
C214 C 0.60508 0.81134 0.82757 0.0
C215 C 0.55026 0.71539 0.79477 0.0
C216 C 0.54618 0.7704 0.78601 0.0
C217 C 0.57286 0.87386 0.79198 0.0
C218 C 0.60434 0.92253 0.80633 0.0
C219 C 0.57398 0.81862 0.80199 0.0
C220 C 0.63395 0.91528 0.83227 0.0
C221 C 0.63401 0.86023 0.84291 0.0
H222 H 0.89719 0.62001 0.13832 0.0
H223 H 0.89595 0.43899 0.11956 0.0
H224 H 0.79633 0.42456 0.10991 0.0
H225 H 0.70849 0.46263 0.10442 0.0
H226 H 0.70521 0.64128 0.12592 0.0
H227 H 0.80558 0.65681 0.13712 0.0
C228 C 0.87516 0.57738 0.13219 0.0
C229 C 0.90548 0.53079 0.12954 0.0
C230 C 0.81613 0.56864 0.12729 0.0
C231 C 0.87496 0.47592 0.12189 0.0
C232 C 0.81742 0.46745 0.11629 0.0
C233 C 0.72939 0.50481 0.11218 0.0
C234 C 0.69831 0.55051 0.1146 0.0
C235 C 0.7874 0.51333 0.11873 0.0
C236 C 0.72706 0.60491 0.12433 0.0
C237 C 0.78497 0.61392 0.13044 0.0
H238 H 0.34099 0.74432 0.46133 0.0
H239 H 0.22746 0.75891 0.53255 0.0
H240 H 0.16061 0.68025 0.50977 0.0
H241 H 0.1326 0.61021 0.46808 0.0
H242 H 0.24614 0.59893 0.39654 0.0
H243 H 0.3145 0.6737 0.42081 0.0
C244 C 0.30142 0.73071 0.47178 0.0
C245 C 0.28908 0.75797 0.49846 0.0
C246 C 0.26308 0.68603 0.45844 0.0
C247 C 0.23817 0.7386 0.51207 0.0
C248 C 0.19981 0.69377 0.49898 0.0
C249 C 0.17259 0.62378 0.45805 0.0
C250 C 0.18421 0.59939 0.43048 0.0
C251 C 0.21161 0.66746 0.47201 0.0
C252 C 0.23601 0.61757 0.41759 0.0
C253 C 0.27514 0.66024 0.43146 0.0
H254 H 0.54045 0.31201 0.84083 0.0
H255 H 0.71351 0.37782 0.82678 0.0
H256 H 0.73202 0.27992 0.81766 0.0
H257 H 0.69606 0.17695 0.80715 0.0
H258 H 0.52389 0.11083 0.82269 0.0
H259 H 0.50791 0.20723 0.83841 0.0
C260 C 0.58232 0.30469 0.83622 0.0
C261 C 0.62537 0.35184 0.83396 0.0
C262 C 0.59272 0.24831 0.8313 0.0
C263 C 0.67968 0.34206 0.8285 0.0
C264 C 0.69024 0.28615 0.82318 0.0
C265 C 0.65558 0.18364 0.81491 0.0
C266 C 0.61114 0.13739 0.81387 0.0
C267 C 0.64676 0.23913 0.82365 0.0
C268 C 0.55867 0.14602 0.82367 0.0
C269 C 0.54945 0.20114 0.83231 0.0
H270 H 0.55782 0.76817 0.50982 0.0
H271 H 0.72436 0.82393 0.5439 0.0
H272 H 0.72985 0.72572 0.55726 0.0
H273 H 0.68426 0.6254 0.56359 0.0
H274 H 0.51956 0.56794 0.52798 0.0
H275 H 0.51662 0.66469 0.51058 0.0
C276 C 0.59562 0.75871 0.5198 0.0
C277 C 0.64049 0.80386 0.52601 0.0
C278 C 0.59878 0.70162 0.52722 0.0
C279 C 0.68923 0.7904 0.53874 0.0
C280 C 0.69233 0.73411 0.54655 0.0
C281 C 0.64829 0.63384 0.55138 0.0
C282 C 0.60224 0.58949 0.54697 0.0
C283 C 0.64701 0.68959 0.54145 0.0
C284 C 0.55575 0.60108 0.53131 0.0
C285 C 0.55391 0.6566 0.52163 0.0
H286 H 0.96925 0.43927 0.88196 0.0
H287 H 0.96072 0.56196 0.81476 0.0
H288 H 1.0613 0.58955 0.81648 0.0
H289 H 0.14397 0.59891 0.84755 0.0
H290 H 0.155 0.4757 0.9145 0.0
H291 H 1.06084 0.42788 0.90219 0.0
C292 C 0.98987 0.4702 0.86685 0.0
C293 C 0.95797 0.49979 0.84892 0.0
C294 C 1.04765 0.48712 0.86858 0.0
C295 C 0.98461 0.53901 0.82896 0.0
C296 C 1.04211 0.55534 0.83019 0.0
C297 C 0.12733 0.56008 0.85868 0.0
C298 C 0.15548 0.54316 0.88317 0.0
C299 C 1.07327 0.5328 0.85153 0.0
C300 C 0.13297 0.49183 0.89669 0.0
C301 C 1.07918 0.46417 0.88957 0.0
H302 H 0.34248 0.917 0.15796 0.0
H303 H 0.36295 0.75472 0.19359 0.0
H304 H 0.44461 0.80177 0.22179 0.0
H305 H 0.50698 0.89001 0.2386 0.0
H306 H 0.48769 0.05223 0.20267 0.0
H307 H 0.40907 1.00439 0.17219 0.0
C308 C 0.36507 0.89205 0.17182 0.0
C309 C 0.34667 0.83262 0.17381 0.0
C310 C 0.41204 0.91938 0.18797 0.0
C311 C 0.37661 0.8005 0.19153 0.0
C312 C 0.42308 0.82739 0.2078 0.0
C313 C 0.4856 0.91469 0.22397 0.0
C314 C 0.50264 0.97446 0.22296 0.0
C315 C 0.44066 0.88691 0.20652 0.0
C316 C 0.47531 1.00606 0.20367 0.0
C317 C 0.43024 0.9788 0.18639 0.0
H318 H 0.53372 0.1609 0.54257 0.0
H319 H 0.69727 0.19273 0.50485 0.0
H320 H 0.69947 0.29613 0.51114 0.0
H321 H 0.65865 0.37846 0.53152 0.0
H322 H 0.49602 0.34681 0.56968 0.0
H323 H 0.48931 0.2435 0.55856 0.0
C324 C 0.56967 0.19039 0.53548 0.0
C325 C 0.6154 0.16845 0.52349 0.0
C326 C 0.57077 0.2504 0.53911 0.0
C327 C 0.66138 0.20781 0.51425 0.0
C328 C 0.66278 0.26729 0.51784 0.0
C329 C 0.62112 0.34902 0.53649 0.0
C330 C 0.57759 0.37033 0.55106 0.0
C331 C 0.61815 0.28922 0.53068 0.0
C332 C 0.52973 0.33148 0.5581 0.0
C333 C 0.52615 0.27231 0.55203 0.0
H334 H 0.43746 0.69657 0.80404 0.0
H335 H 0.28559 0.68619 0.75395 0.0
H336 H 0.2425 0.72856 0.79591 0.0
H337 H 0.23785 0.72637 0.84966 0.0
H338 H 0.38328 0.70723 0.90009 0.0
H339 H 0.44017 0.72258 0.85624 0.0
C340 C 0.39628 0.70732 0.8016 0.0
C341 C 0.36409 0.68659 0.77638 0.0
C342 C 0.37012 0.72483 0.82688 0.0
C343 C 0.31077 0.70084 0.77339 0.0
C344 C 0.28587 0.72404 0.79766 0.0
C345 C 0.28256 0.72841 0.85116 0.0
C346 C 0.3061 0.7127 0.87745 0.0
C347 C 0.31331 0.72986 0.82521 0.0
C348 C 0.36402 0.71757 0.87985 0.0
C349 C 0.39635 0.72534 0.85458 0.0
H350 H 0.80042 0.25148 0.18308 0.0
H351 H 0.9186 0.17771 0.23424 0.0
H352 H 0.84265 0.11696 0.25851 0.0
H353 H 0.74236 0.08267 0.26411 0.0
H354 H 0.62476 0.15676 0.21274 0.0
H355 H 0.7007 0.22006 0.18996 0.0
C356 C 0.80957 0.22264 0.1998 0.0
C357 C 0.86509 0.21905 0.20676 0.0
C358 C 0.76577 0.18787 0.21365 0.0
C359 C 0.87621 0.18075 0.22817 0.0
C360 C 0.83282 0.14624 0.24219 0.0
C361 C 0.73348 0.11324 0.24821 0.0
C362 C 0.67813 0.11491 0.24001 0.0
C363 C 0.77741 0.14915 0.23496 0.0
C364 C 0.66711 0.15426 0.21915 0.0
C365 C 0.71046 0.19052 0.20616 0.0
H366 H 0.20478 0.52139 0.06195 0.0
H367 H 1.0557 0.59666 0.0573 0.0
H368 H 1.09385 0.65475 0.0164 0.0
H369 H 0.16299 0.67164 0.97737 0.0
H370 H 0.30987 0.59313 0.98048 0.0
H371 H 0.28097 0.55108 0.02754 0.0
C372 C 0.18088 0.55073 0.05198 0.0
C373 C 0.12695 0.55372 0.06182 0.0
C374 C 0.20329 0.58421 0.02869 0.0
C375 C 1.09689 0.59301 0.04953 0.0
C376 C 0.11881 0.62642 0.02634 0.0
C377 C 0.18991 0.64782 0.98925 0.0
C378 C 0.23853 0.63566 0.97584 0.0
C379 C 0.17125 0.62108 0.01521 0.0
C380 C 0.27278 0.60375 0.99082 0.0
C381 C 0.25555 0.57862 0.01732 0.0
H382 H 0.5065 0.98615 0.42444 0.0
H383 H 0.68201 0.99229 0.43877 0.0
H384 H 0.69897 1.00912 0.38639 0.0
H385 H 0.66258 0.01963 0.33606 0.0
H386 H 0.48667 1.01796 0.32355 0.0
H387 H 0.47117 1.00145 0.37556 0.0
C388 C 0.54851 0.99107 0.4161 0.0
C389 C 0.59299 0.98764 0.43535 0.0
C390 C 0.55774 1.00129 0.3862 0.0
C391 C 0.64719 0.99476 0.42435 0.0
C392 C 0.65679 1.00432 0.39439 0.0
C393 C 0.62098 1.01622 0.34479 0.0
C394 C 0.57577 1.01896 0.32569 0.0
C395 C 0.61226 1.00748 0.37505 0.0
C396 C 0.5221 1.01441 0.33746 0.0
C397 C 0.51314 1.00536 0.3673 0.0
H398 H 0.58162 0.46693 0.74904 0.0
H399 H 0.70505 0.62033 0.74651 0.0
H400 H 0.70015 0.61626 0.69275 0.0
H401 H 0.66215 0.56828 0.64642 0.0
H402 H 0.53369 0.41873 0.64886 0.0
H403 H 0.53924 0.42221 0.70256 0.0
C404 C 0.60694 0.49973 0.73671 0.0
C405 C 0.64352 0.54385 0.75172 0.0
C406 C 0.60324 0.49772 0.70574 0.0
C407 C 0.67661 0.58578 0.73545 0.0
C408 C 0.67381 0.58356 0.7047 0.0
C409 C 0.63473 0.53689 0.65863 0.0
C410 C 0.59799 0.493 0.64342 0.0
C411 C 0.63733 0.53969 0.68959 0.0
C412 C 0.56334 0.4523 0.65982 0.0
C413 C 0.56616 0.45443 0.69061 0.0
H414 H 0.61457 0.08689 0.61195 0.0
H415 H 0.68273 0.92976 0.60595 0.0
H416 H 0.68065 0.92377 0.65972 0.0
H417 H 0.66268 0.96534 0.70815 0.0
H418 H 0.58176 0.11529 0.71365 0.0
H419 H 0.58724 0.12291 0.66055 0.0
C420 C 0.62846 0.05124 0.62258 0.0
C421 C 0.64887 1.0089 0.60542 0.0
C422 C 0.62573 0.04732 0.65336 0.0
C423 C 0.66663 0.96259 0.61902 0.0
C424 C 0.66566 0.95935 0.64967 0.0
C425 C 0.64505 0.99911 0.69794 0.0
C426 C 0.62267 0.04012 0.71547 0.0
C427 C 0.64557 1.00169 0.66709 0.0
C428 C 0.60117 0.08406 0.70126 0.0
C429 C 0.60351 0.08814 0.67067 0.0
H430 H 0.50594 0.4474 0.92577 0.0
H431 H 0.62715 0.59816 0.91046 0.0
H432 H 0.65003 0.60922 0.96297 0.0
H433 H 0.63303 0.57884 0.01381 0.0
H434 H 0.50882 0.4313 0.0299 0.0
H435 H 0.48998 0.41594 0.97686 0.0
C436 C 0.5374 0.48253 0.93398 0.0
C437 C 0.56469 0.5219 0.91421 0.0
C438 C 0.54995 0.48919 0.96444 0.0
C439 C 0.60536 0.56729 0.92518 0.0
C440 C 0.6186 0.57366 0.95525 0.0
C441 C 0.60251 0.54281 0.00561 0.0
C442 C 0.57261 0.50606 0.02569 0.0
C443 C 0.59093 0.53515 0.97514 0.0
C444 C 0.5324 0.46014 0.01483 0.0
C445 C 0.52152 0.45145 0.98452 0.0
H446 H 1.0476 0.61068 0.24175 0.0
H447 H 0.11425 0.45832 0.21569 0.0
H448 H 0.11967 0.43335 0.26735 0.0
H449 H 0.11027 0.45808 0.32033 0.0
H450 H 1.0513 0.61487 0.34605 0.0
H451 H 1.03801 0.63514 0.29422 0.0
C452 C 1.06288 0.57176 0.24737 0.0
C453 C 1.08017 0.53616 0.22496 0.0
C454 C 1.06752 0.55877 0.2771 0.0
C455 C 1.10035 0.48616 0.23256 0.0
C456 C 1.10365 0.47201 0.26209 0.0
C457 C 1.09398 0.49627 0.31442 0.0
C458 C 1.08147 0.53491 0.33672 0.0
C459 C 1.08799 0.50838 0.28458 0.0
C460 C 1.06112 0.58471 0.32907 0.0
C461 C 1.05358 0.59625 0.29952 0.0
loop_
_geom_bond_atom_site_label_1
_geom_bond_atom_site_label_2
_geom_bond_distance
_geom_bond_site_symmetry_2
_ccdc_geom_bond_type
Nd0 C2 2.836 . S
Nd0 O20 2.500 . S
Nd0 O21 2.492 . S
Nd0 O22 2.487 . S
Nd0 O23 2.682 . S
Nd0 O24 2.410 . S
Nd0 O29 2.414 . S
Nd0 O31 2.424 1_455 S
Nd1 C11 2.836 . S
Nd1 O23 2.414 1_655 S
Nd1 O25 2.424 1_655 S
Nd1 O26 2.500 . S
Nd1 O27 2.492 . S
Nd1 O28 2.487 . S
Nd1 O29 2.682 1_655 S
Nd1 O30 2.410 . S
C2 Nd0 2.836 . S
C2 C3 1.498 . S
C2 O20 1.258 . S
C2 O21 1.239 . S
C3 C2 1.498 . S
C3 C4 1.366 . S
C3 C8 1.407 . S
C4 C3 1.366 . S
C4 C5 1.392 . S
C4 H32 0.930 . S
C5 C4 1.392 . S
C5 C6 1.398 . S
C5 H33 0.929 . S
C6 C5 1.398 . S
C6 C7 1.352 . S
C7 C6 1.352 . S
C7 C8 1.384 . S
C7 H34 0.930 . S
C8 C3 1.407 . S
C8 C7 1.384 . S
C8 H35 0.929 . S
C9 O22 1.241 . S
C9 O23 1.273 . S
C10 O24 1.251 . S
C10 O25 1.268 . S
C11 Nd1 2.836 . S
C11 C12 1.498 . S
C11 O26 1.258 . S
C11 O27 1.239 . S
C12 C11 1.498 . S
C12 C13 1.366 . S
C12 C17 1.407 . S
C13 C12 1.366 . S
C13 C14 1.392 . S
C13 H36 0.930 . S
C14 C13 1.392 . S
C14 C15 1.398 . S
C14 H37 0.929 . S
C15 C14 1.398 . S
C15 C16 1.352 . S
C16 C15 1.352 . S
C16 C17 1.384 . S
C16 H38 0.930 . S
C17 C12 1.407 . S
C17 C16 1.384 . S
C17 H39 0.929 . S
C18 O28 1.241 1_455 S
C18 O29 1.273 . S
C19 O30 1.251 . S
C19 O31 1.268 . S
O20 Nd0 2.500 . S
O20 C2 1.258 . S
O21 Nd0 2.492 . S
O21 C2 1.239 . S
O22 Nd0 2.487 . S
O22 C9 1.241 . S
O23 Nd0 2.682 . S
O23 Nd1 2.414 1_455 S
O23 C9 1.273 . S
O24 Nd0 2.410 . S
O24 C10 1.251 . S
O25 Nd1 2.424 1_455 S
O25 C10 1.268 . S
O26 Nd1 2.500 . S
O26 C11 1.258 . S
O27 Nd1 2.492 . S
O27 C11 1.239 . S
O28 Nd1 2.487 . S
O28 C18 1.241 1_655 S
O29 Nd0 2.414 . S
O29 Nd1 2.682 1_455 S
O29 C18 1.273 . S
O30 Nd1 2.410 . S
O30 C19 1.251 . S
O31 Nd0 2.424 1_655 S
O31 C19 1.268 . S
H32 C4 0.930 . S
H33 C5 0.929 . S
H34 C7 0.930 . S
H35 C8 0.929 . S
H36 C13 0.930 . S
H37 C14 0.929 . S
H38 C16 0.930 . S
H39 C17 0.929 . S
Nd40 C42 2.843 . S
Nd40 O60 2.507 . S
Nd40 O61 2.497 . S
Nd40 O62 2.487 . S
Nd40 O63 2.681 1_565 S
Nd40 O64 2.419 . S
Nd40 O69 2.415 1_565 S
Nd40 O71 2.415 1_565 S
Nd41 C51 2.836 . S
Nd41 O63 2.414 . S
Nd41 O65 2.424 1_545 S
Nd41 O66 2.500 . S
Nd41 O67 2.492 . S
Nd41 O68 2.487 . S
Nd41 O69 2.682 . S
Nd41 O70 2.410 . S
C42 Nd40 2.843 . S
C42 C43 1.498 . S
C42 O60 1.258 . S
C42 O61 1.239 . S
C43 C42 1.498 . S
C43 C44 1.366 . S
C43 C48 1.407 . S
C44 C43 1.366 . S
C44 C45 1.392 . S
C44 H72 0.930 . S
C45 C44 1.392 . S
C45 C46 1.398 . S
C45 H73 0.929 . S
C46 C45 1.398 . S
C46 C47 1.352 . S
C47 C46 1.352 . S
C47 C48 1.384 . S
C47 H74 0.930 . S
C48 C43 1.407 . S
C48 C47 1.384 . S
C48 H75 0.929 . S
C49 O62 1.241 1_545 S
C49 O63 1.273 . S
C50 O64 1.251 . S
C50 O65 1.268 . S
C51 Nd41 2.836 . S
C51 C52 1.498 . S
C51 O66 1.258 . S
C51 O67 1.239 . S
C52 C51 1.498 . S
C52 C53 1.366 . S
C52 C57 1.407 . S
C53 C52 1.366 . S
C53 C54 1.392 . S
C53 H76 0.930 . S
C54 C53 1.392 . S
C54 C55 1.398 . S
C54 H77 0.929 . S
C55 C54 1.398 . S
C55 C56 1.352 . S
C56 C55 1.352 . S
C56 C57 1.384 . S
C56 H78 0.930 . S
C57 C52 1.407 . S
C57 C56 1.384 . S
C57 H79 0.929 . S
C58 O68 1.241 . S
C58 O69 1.273 . S
C59 O70 1.251 . S
C59 O71 1.268 . S
O60 Nd40 2.507 . S
O60 C42 1.258 . S
O61 Nd40 2.497 . S
O61 C42 1.239 . S
O62 Nd40 2.487 . S
O62 C49 1.241 1_565 S
O63 Nd40 2.681 1_545 S
O63 Nd41 2.414 . S
O63 C49 1.273 . S
O64 Nd40 2.419 . S
O64 C50 1.251 . S
O65 Nd41 2.424 1_565 S
O65 C50 1.268 . S
O66 Nd41 2.500 . S
O66 C51 1.258 . S
O67 Nd41 2.492 . S
O67 C51 1.239 . S
O68 Nd41 2.487 . S
O68 C58 1.241 . S
O69 Nd40 2.415 1_545 S
O69 Nd41 2.682 . S
O69 C58 1.273 . S
O70 Nd41 2.410 . S
O70 C59 1.251 . S
O71 Nd40 2.415 1_545 S
O71 C59 1.268 . S
H72 C44 0.930 . S
H73 C45 0.929 . S
H74 C47 0.930 . S
H75 C48 0.929 . S
H76 C53 0.930 . S
H77 C54 0.929 . S
H78 C56 0.930 . S
H79 C57 0.929 . S
Nd80 C82 2.836 . S
Nd80 O100 2.500 . S
Nd80 O101 2.492 . S
Nd80 O102 2.487 . S
Nd80 O103 2.682 . S
Nd80 O104 2.410 . S
Nd80 O109 2.414 . S
Nd80 O111 2.424 . S
Nd81 C91 2.836 . S
Nd81 O103 2.414 . S
Nd81 O105 2.424 . S
Nd81 O106 2.500 . S
Nd81 O107 2.492 . S
Nd81 O108 2.487 . S
Nd81 O109 2.682 . S
Nd81 O110 2.410 . S
C82 Nd80 2.836 . S
C82 C83 1.498 . S
C82 O100 1.258 . S
C82 O101 1.239 . S
C83 C82 1.498 . S
C83 C84 1.366 . S
C83 C88 1.407 . S
C84 C83 1.366 . S
C84 C85 1.392 . S
C84 H112 0.930 . S
C85 C84 1.392 . S
C85 C86 1.398 . S
C85 H113 0.929 . S
C86 C85 1.398 . S
C86 C87 1.352 . S
C87 C86 1.352 . S
C87 C88 1.384 . S
C87 H114 0.930 . S
C88 C83 1.407 . S
C88 C87 1.384 . S
C88 H115 0.929 . S
C89 O102 1.241 . S
C89 O103 1.273 . S
C90 O104 1.251 . S
C90 O105 1.268 . S
C91 Nd81 2.836 . S
C91 C92 1.498 . S
C91 O106 1.258 . S
C91 O107 1.239 . S
C92 C91 1.498 . S
C92 C93 1.366 . S
C92 C97 1.407 . S
C93 C92 1.366 . S
C93 C94 1.392 . S
C93 H116 0.930 . S
C94 C93 1.392 . S
C94 C95 1.398 . S
C94 H117 0.929 . S
C95 C94 1.398 . S
C95 C96 1.352 . S
C96 C95 1.352 . S
C96 C97 1.384 . S
C96 H118 0.930 . S
C97 C92 1.407 . S
C97 C96 1.384 . S
C97 H119 0.929 . S
C98 O108 1.241 . S
C98 O109 1.273 . S
C99 O110 1.251 . S
C99 O111 1.268 . S
O100 Nd80 2.500 . S
O100 C82 1.258 . S
O101 Nd80 2.492 . S
O101 C82 1.239 . S
O102 Nd80 2.487 . S
O102 C89 1.241 . S
O103 Nd80 2.682 . S
O103 Nd81 2.414 . S
O103 C89 1.273 . S
O104 Nd80 2.410 . S
O104 C90 1.251 . S
O105 Nd81 2.424 . S
O105 C90 1.268 . S
O106 Nd81 2.500 . S
O106 C91 1.258 . S
O107 Nd81 2.492 . S
O107 C91 1.239 . S
O108 Nd81 2.487 . S
O108 C98 1.241 . S
O109 Nd80 2.414 . S
O109 Nd81 2.682 . S
O109 C98 1.273 . S
O110 Nd81 2.410 . S
O110 C99 1.251 . S
O111 Nd80 2.424 . S
O111 C99 1.268 . S
H112 C84 0.930 . S
H113 C85 0.929 . S
H114 C87 0.930 . S
H115 C88 0.929 . S
H116 C93 0.930 . S
H117 C94 0.929 . S
H118 C96 0.930 . S
H119 C97 0.929 . S
H120 C123 0.931 . S
H121 C126 0.928 . S
H122 C128 0.930 . S
C123 H120 0.931 . S
C123 C124 1.413 . S
C123 C125 1.360 1_565 S
C124 C123 1.413 . S
C124 C128 1.429 1_565 S
C125 C123 1.360 1_545 S
C125 C126 1.372 . S
C126 H121 0.928 . S
C126 C125 1.372 . S
C126 C127 1.404 . S
C127 C126 1.404 . S
C127 C128 1.391 . S
C128 H122 0.930 . S
C128 C124 1.429 1_545 S
C128 C127 1.391 . S
H129 C132 0.931 . S
H130 C135 0.928 . S
H131 C137 0.930 . S
C132 H129 0.931 . S
C132 C133 1.413 . S
C132 C134 1.360 . S
C133 C132 1.413 . S
C133 C137 1.429 . S
C134 C132 1.360 . S
C134 C135 1.372 . S
C135 H130 0.928 . S
C135 C134 1.372 . S
C135 C136 1.404 . S
C136 C135 1.404 . S
C136 C137 1.391 . S
C137 H131 0.930 . S
C137 C133 1.429 . S
C137 C136 1.391 . S
H138 C141 0.931 . S
H139 C144 0.928 . S
H140 C146 0.930 . S
C141 H138 0.931 . S
C141 C142 1.413 . S
C141 C143 1.360 1_655 S
C142 C141 1.413 . S
C142 C146 1.429 1_655 S
C143 C141 1.360 1_455 S
C143 C144 1.372 . S
C144 H139 0.928 . S
C144 C143 1.372 . S
C144 C145 1.404 . S
C145 C144 1.404 . S
C145 C146 1.391 . S
C146 H140 0.930 . S
C146 C142 1.429 1_455 S
C146 C145 1.391 . S
H147 C150 0.931 . S
H148 C153 0.928 . S
H149 C155 0.929 . S
C150 H147 0.931 . S
C150 C151 1.413 . S
C150 C152 1.360 1_655 S
C151 C150 1.413 . S
C151 C155 1.417 1_655 S
C152 C150 1.360 1_455 S
C152 C153 1.372 . S
C153 H148 0.928 . S
C153 C152 1.372 . S
C153 C154 1.404 . S
C154 C153 1.404 . S
C154 C155 1.404 . S
C155 H149 0.929 . S
C155 C151 1.417 1_455 S
C155 C154 1.404 . S
H156 C159 0.931 . S
H157 C162 0.928 . S
H158 C164 0.930 . S
C159 H156 0.931 . S
C159 C160 1.413 . S
C159 C161 1.360 . S
C160 C159 1.413 . S
C160 C164 1.429 . S
C161 C159 1.360 . S
C161 C162 1.372 1_545 S
C162 H157 0.928 . S
C162 C161 1.372 1_565 S
C162 C163 1.404 . S
C163 C162 1.404 . S
C163 C164 1.391 1_565 S
C164 H158 0.930 . S
C164 C160 1.429 . S
C164 C163 1.391 1_545 S
H165 C168 0.931 . S
H166 C171 0.928 . S
H167 C173 0.930 . S
C168 H165 0.931 . S
C168 C169 1.413 . S
C168 C170 1.360 . S
C169 C168 1.413 . S
C169 C173 1.429 . S
C170 C168 1.360 . S
C170 C171 1.372 . S
C171 H166 0.928 . S
C171 C170 1.372 . S
C171 C172 1.404 . S
C172 C171 1.404 . S
C172 C173 1.391 . S
C173 H167 0.930 . S
C173 C169 1.429 . S
C173 C172 1.391 . S
H174 C180 0.930 . S
H175 C183 0.930 . S
H176 C184 0.930 . S
H177 C185 0.930 . S
H178 C188 0.930 . S
H179 C189 0.930 . S
C180 H174 0.930 . S
C180 C181 1.355 . S
C180 C182 1.415 . S
C181 C180 1.355 . S
C181 C183 1.419 . S
C182 C180 1.415 . S
C182 C187 1.425 . S
C182 C189 1.409 . S
C183 H175 0.930 . S
C183 C181 1.419 . S
C183 C184 1.362 . S
C184 H176 0.930 . S
C184 C183 1.362 . S
C184 C187 1.409 . S
C185 H177 0.930 . S
C185 C186 1.355 . S
C185 C187 1.415 . S
C186 C185 1.355 . S
C186 C188 1.419 . S
C187 C182 1.425 . S
C187 C184 1.409 . S
C187 C185 1.415 . S
C188 H178 0.930 . S
C188 C186 1.419 . S
C188 C189 1.362 . S
C189 H179 0.930 . S
C189 C182 1.409 . S
C189 C188 1.362 . S
H190 C196 0.930 . S
H191 C199 0.930 . S
H192 C200 0.930 . S
H193 C201 0.930 . S
H194 C204 0.930 . S
H195 C205 0.930 . S
C196 H190 0.930 . S
C196 C197 1.355 . S
C196 C198 1.415 . S
C197 C196 1.355 . S
C197 C199 1.419 . S
C198 C196 1.415 . S
C198 C203 1.425 . S
C198 C205 1.409 . S
C199 H191 0.930 . S
C199 C197 1.419 . S
C199 C200 1.362 . S
C200 H192 0.930 . S
C200 C199 1.362 . S
C200 C203 1.409 . S
C201 H193 0.930 . S
C201 C202 1.355 . S
C201 C203 1.415 . S
C202 C201 1.355 . S
C202 C204 1.419 . S
C203 C198 1.425 . S
C203 C200 1.409 . S
C203 C201 1.415 . S
C204 H194 0.930 . S
C204 C202 1.419 . S
C204 C205 1.362 . S
C205 H195 0.930 . S
C205 C198 1.409 . S
C205 C204 1.362 . S
H206 C212 0.930 . S
H207 C215 0.930 . S
H208 C216 0.930 . S
H209 C217 0.930 . S
H210 C220 0.930 . S
H211 C221 0.930 . S
C212 H206 0.930 . S
C212 C213 1.355 . S
C212 C214 1.415 . S
C213 C212 1.355 . S
C213 C215 1.419 . S
C214 C212 1.415 . S
C214 C219 1.425 . S
C214 C221 1.409 . S
C215 H207 0.930 . S
C215 C213 1.419 . S
C215 C216 1.362 . S
C216 H208 0.930 . S
C216 C215 1.362 . S
C216 C219 1.409 . S
C217 H209 0.930 . S
C217 C218 1.355 . S
C217 C219 1.415 . S
C218 C217 1.355 . S
C218 C220 1.419 . S
C219 C214 1.425 . S
C219 C216 1.409 . S
C219 C217 1.415 . S
C220 H210 0.930 . S
C220 C218 1.419 . S
C220 C221 1.362 . S
C221 H211 0.930 . S
C221 C214 1.409 . S
C221 C220 1.362 . S
H222 C228 0.930 . S
H223 C231 0.930 . S
H224 C232 0.930 . S
H225 C233 0.930 . S
H226 C236 0.930 . S
H227 C237 0.930 . S
C228 H222 0.930 . S
C228 C229 1.355 . S
C228 C230 1.415 . S
C229 C228 1.355 . S
C229 C231 1.419 . S
C230 C228 1.415 . S
C230 C235 1.425 . S
C230 C237 1.409 . S
C231 H223 0.930 . S
C231 C229 1.419 . S
C231 C232 1.362 . S
C232 H224 0.930 . S
C232 C231 1.362 . S
C232 C235 1.409 . S
C233 H225 0.930 . S
C233 C234 1.355 . S
C233 C235 1.415 . S
C234 C233 1.355 . S
C234 C236 1.419 . S
C235 C230 1.425 . S
C235 C232 1.409 . S
C235 C233 1.415 . S
C236 H226 0.930 . S
C236 C234 1.419 . S
C236 C237 1.362 . S
C237 H227 0.930 . S
C237 C230 1.409 . S
C237 C236 1.362 . S
H238 C244 0.930 . S
H239 C247 0.930 . S
H240 C248 0.930 . S
H241 C249 0.930 . S
H242 C252 0.930 . S
H243 C253 0.930 . S
C244 H238 0.930 . S
C244 C245 1.355 . S
C244 C246 1.415 . S
C245 C244 1.355 . S
C245 C247 1.419 . S
C246 C244 1.415 . S
C246 C251 1.425 . S
C246 C253 1.409 . S
C247 H239 0.930 . S
C247 C245 1.419 . S
C247 C248 1.362 . S
C248 H240 0.930 . S
C248 C247 1.362 . S
C248 C251 1.409 . S
C249 H241 0.930 . S
C249 C250 1.355 . S
C249 C251 1.415 . S
C250 C249 1.355 . S
C250 C252 1.419 . S
C251 C246 1.425 . S
C251 C248 1.409 . S
C251 C249 1.415 . S
C252 H242 0.930 . S
C252 C250 1.419 . S
C252 C253 1.362 . S
C253 H243 0.930 . S
C253 C246 1.409 . S
C253 C252 1.362 . S
H254 C260 0.930 . S
H255 C263 0.930 . S
H256 C264 0.930 . S
H257 C265 0.930 . S
H258 C268 0.930 . S
H259 C269 0.930 . S
C260 H254 0.930 . S
C260 C261 1.355 . S
C260 C262 1.415 . S
C261 C260 1.355 . S
C261 C263 1.419 . S
C262 C260 1.415 . S
C262 C267 1.425 . S
C262 C269 1.409 . S
C263 H255 0.930 . S
C263 C261 1.419 . S
C263 C264 1.362 . S
C264 H256 0.930 . S
C264 C263 1.362 . S
C264 C267 1.409 . S
C265 H257 0.930 . S
C265 C266 1.355 . S
C265 C267 1.415 . S
C266 C265 1.355 . S
C266 C268 1.419 . S
C267 C262 1.425 . S
C267 C264 1.409 . S
C267 C265 1.415 . S
C268 H258 0.930 . S
C268 C266 1.419 . S
C268 C269 1.362 . S
C269 H259 0.930 . S
C269 C262 1.409 . S
C269 C268 1.362 . S
H270 C276 0.930 . S
H271 C279 0.930 . S
H272 C280 0.930 . S
H273 C281 0.930 . S
H274 C284 0.930 . S
H275 C285 0.930 . S
C276 H270 0.930 . S
C276 C277 1.355 . S
C276 C278 1.415 . S
C277 C276 1.355 . S
C277 C279 1.419 . S
C278 C276 1.415 . S
C278 C283 1.425 . S
C278 C285 1.409 . S
C279 H271 0.930 . S
C279 C277 1.419 . S
C279 C280 1.362 . S
C280 H272 0.930 . S
C280 C279 1.362 . S
C280 C283 1.409 . S
C281 H273 0.930 . S
C281 C282 1.355 . S
C281 C283 1.415 . S
C282 C281 1.355 . S
C282 C284 1.419 . S
C283 C278 1.425 . S
C283 C280 1.409 . S
C283 C281 1.415 . S
C284 H274 0.930 . S
C284 C282 1.419 . S
C284 C285 1.362 . S
C285 H275 0.930 . S
C285 C278 1.409 . S
C285 C284 1.362 . S
H286 C292 0.930 . S
H287 C295 0.930 . S
H288 C296 0.930 . S
H289 C297 0.930 . S
H290 C300 0.930 . S
H291 C301 0.930 . S
C292 H286 0.930 . S
C292 C293 1.355 . S
C292 C294 1.415 . S
C293 C292 1.355 . S
C293 C295 1.419 . S
C294 C292 1.415 . S
C294 C299 1.425 . S
C294 C301 1.409 . S
C295 H287 0.930 . S
C295 C293 1.419 . S
C295 C296 1.362 . S
C296 H288 0.930 . S
C296 C295 1.362 . S
C296 C299 1.409 . S
C297 H289 0.930 . S
C297 C298 1.355 . S
C297 C299 1.415 . S
C298 C297 1.355 . S
C298 C300 1.419 . S
C299 C294 1.425 . S
C299 C296 1.409 . S
C299 C297 1.415 . S
C300 H290 0.930 . S
C300 C298 1.419 . S
C300 C301 1.362 . S
C301 H291 0.930 . S
C301 C294 1.409 . S
C301 C300 1.362 . S
H302 C308 0.930 . S
H303 C311 0.930 . S
H304 C312 0.930 . S
H305 C313 0.930 . S
H306 C316 0.930 . S
H307 C317 0.930 . S
C308 H302 0.930 . S
C308 C309 1.355 . S
C308 C310 1.415 . S
C309 C308 1.355 . S
C309 C311 1.419 . S
C310 C308 1.415 . S
C310 C315 1.425 . S
C310 C317 1.409 . S
C311 H303 0.930 . S
C311 C309 1.419 . S
C311 C312 1.362 . S
C312 H304 0.930 . S
C312 C311 1.362 . S
C312 C315 1.409 . S
C313 H305 0.930 . S
C313 C314 1.355 . S
C313 C315 1.415 . S
C314 C313 1.355 . S
C314 C316 1.419 . S
C315 C310 1.425 . S
C315 C312 1.409 . S
C315 C313 1.415 . S
C316 H306 0.930 . S
C316 C314 1.419 . S
C316 C317 1.362 . S
C317 H307 0.930 . S
C317 C310 1.409 . S
C317 C316 1.362 . S
H318 C324 0.930 . S
H319 C327 0.930 . S
H320 C328 0.930 . S
H321 C329 0.930 . S
H322 C332 0.930 . S
H323 C333 0.930 . S
C324 H318 0.930 . S
C324 C325 1.355 . S
C324 C326 1.415 . S
C325 C324 1.355 . S
C325 C327 1.419 . S
C326 C324 1.415 . S
C326 C331 1.425 . S
C326 C333 1.409 . S
C327 H319 0.930 . S
C327 C325 1.419 . S
C327 C328 1.362 . S
C328 H320 0.930 . S
C328 C327 1.362 . S
C328 C331 1.409 . S
C329 H321 0.930 . S
C329 C330 1.355 . S
C329 C331 1.415 . S
C330 C329 1.355 . S
C330 C332 1.419 . S
C331 C326 1.425 . S
C331 C328 1.409 . S
C331 C329 1.415 . S
C332 H322 0.930 . S
C332 C330 1.419 . S
C332 C333 1.362 . S
C333 H323 0.930 . S
C333 C326 1.409 . S
C333 C332 1.362 . S
H334 C340 0.930 . S
H335 C343 0.930 . S
H336 C344 0.930 . S
H337 C345 0.930 . S
H338 C348 0.930 . S
H339 C349 0.930 . S
C340 H334 0.930 . S
C340 C341 1.355 . S
C340 C342 1.415 . S
C341 C340 1.355 . S
C341 C343 1.419 . S
C342 C340 1.415 . S
C342 C347 1.425 . S
C342 C349 1.409 . S
C343 H335 0.930 . S
C343 C341 1.419 . S
C343 C344 1.362 . S
C344 H336 0.930 . S
C344 C343 1.362 . S
C344 C347 1.409 . S
C345 H337 0.930 . S
C345 C346 1.355 . S
C345 C347 1.415 . S
C346 C345 1.355 . S
C346 C348 1.419 . S
C347 C342 1.425 . S
C347 C344 1.409 . S
C347 C345 1.415 . S
C348 H338 0.930 . S
C348 C346 1.419 . S
C348 C349 1.362 . S
C349 H339 0.930 . S
C349 C342 1.409 . S
C349 C348 1.362 . S
H350 C356 0.930 . S
H351 C359 0.930 . S
H352 C360 0.930 . S
H353 C361 0.930 . S
H354 C364 0.930 . S
H355 C365 0.930 . S
C356 H350 0.930 . S
C356 C357 1.355 . S
C356 C358 1.415 . S
C357 C356 1.355 . S
C357 C359 1.419 . S
C358 C356 1.415 . S
C358 C363 1.425 . S
C358 C365 1.409 . S
C359 H351 0.930 . S
C359 C357 1.419 . S
C359 C360 1.362 . S
C360 H352 0.930 . S
C360 C359 1.362 . S
C360 C363 1.409 . S
C361 H353 0.930 . S
C361 C362 1.355 . S
C361 C363 1.415 . S
C362 C361 1.355 . S
C362 C364 1.419 . S
C363 C358 1.425 . S
C363 C360 1.409 . S
C363 C361 1.415 . S
C364 H354 0.930 . S
C364 C362 1.419 . S
C364 C365 1.362 . S
C365 H355 0.930 . S
C365 C358 1.409 . S
C365 C364 1.362 . S
H366 C372 0.930 . S
H367 C375 0.930 . S
H368 C376 0.930 . S
H369 C377 0.930 1_655 S
H370 C380 0.930 . S
H371 C381 0.930 . S
C372 H366 0.930 . S
C372 C373 1.355 . S
C372 C374 1.415 . S
C373 C372 1.355 . S
C373 C375 1.419 1_455 S
C374 C372 1.415 . S
C374 C379 1.425 . S
C374 C381 1.409 . S
C375 H367 0.930 . S
C375 C373 1.419 1_655 S
C375 C376 1.362 . S
C376 H368 0.930 . S
C376 C375 1.362 . S
C376 C379 1.409 1_655 S
C377 H369 0.930 1_455 S
C377 C378 1.355 . S
C377 C379 1.415 1_556 S
C378 C377 1.355 . S
C378 C380 1.419 . S
C379 C374 1.425 . S
C379 C376 1.409 1_455 S
C379 C377 1.415 1_554 S
C380 H370 0.930 . S
C380 C378 1.419 . S
C380 C381 1.362 1_556 S
C381 H371 0.930 . S
C381 C374 1.409 . S
C381 C380 1.362 1_554 S
H382 C388 0.922 1_565 S
H383 C391 0.930 . S
H384 C392 0.930 . S
H385 C393 0.930 . S
H386 C396 0.930 . S
H387 C397 0.930 . S
C388 H382 0.922 1_545 S
C388 C389 1.359 . S
C388 C390 1.417 . S
C389 C388 1.359 . S
C389 C391 1.419 . S
C390 C388 1.417 . S
C390 C395 1.425 . S
C390 C397 1.409 1_545 S
C391 H383 0.930 . S
C391 C389 1.419 . S
C391 C392 1.362 . S
C392 H384 0.930 . S
C392 C391 1.362 . S
C392 C395 1.409 . S
C393 H385 0.930 . S
C393 C394 1.355 . S
C393 C395 1.415 . S
C394 C393 1.355 . S
C394 C396 1.419 1_545 S
C395 C390 1.425 . S
C395 C392 1.409 . S
C395 C393 1.415 . S
C396 H386 0.930 . S
C396 C394 1.419 1_565 S
C396 C397 1.362 . S
C397 H387 0.930 . S
C397 C390 1.409 1_565 S
C397 C396 1.362 . S
H398 C404 0.930 . S
H399 C407 0.930 . S
H400 C408 0.930 . S
H401 C409 0.930 . S
H402 C412 0.930 . S
H403 C413 0.930 . S
C404 H398 0.930 . S
C404 C405 1.355 . S
C404 C406 1.415 . S
C405 C404 1.355 . S
C405 C407 1.419 . S
C406 C404 1.415 . S
C406 C411 1.425 . S
C406 C413 1.409 . S
C407 H399 0.930 . S
C407 C405 1.419 . S
C407 C408 1.362 . S
C408 H400 0.930 . S
C408 C407 1.362 . S
C408 C411 1.409 . S
C409 H401 0.930 . S
C409 C410 1.355 . S
C409 C411 1.415 . S
C410 C409 1.355 . S
C410 C412 1.419 . S
C411 C406 1.425 . S
C411 C408 1.409 . S
C411 C409 1.415 . S
C412 H402 0.930 . S
C412 C410 1.419 . S
C412 C413 1.362 . S
C413 H403 0.930 . S
C413 C406 1.409 . S
C413 C412 1.362 . S
H414 C420 0.930 . S
H415 C423 0.930 . S
H416 C424 0.930 1_565 S
H417 C425 0.930 . S
H418 C428 0.930 . S
H419 C429 0.930 . S
C420 H414 0.930 . S
C420 C421 1.355 . S
C420 C422 1.415 . S
C421 C420 1.355 . S
C421 C423 1.419 . S
C422 C420 1.415 . S
C422 C427 1.425 . S
C422 C429 1.409 . S
C423 H415 0.930 . S
C423 C421 1.419 . S
C423 C424 1.362 . S
C424 H416 0.930 1_545 S
C424 C423 1.362 . S
C424 C427 1.409 . S
C425 H417 0.930 . S
C425 C426 1.355 1_565 S
C425 C427 1.415 1_565 S
C426 C425 1.355 1_545 S
C426 C428 1.419 . S
C427 C422 1.425 . S
C427 C424 1.409 . S
C427 C425 1.415 1_545 S
C428 H418 0.930 . S
C428 C426 1.419 . S
C428 C429 1.362 . S
C429 H419 0.930 . S
C429 C422 1.409 . S
C429 C428 1.362 . S
H430 C436 0.930 . S
H431 C439 0.930 . S
H432 C440 0.930 . S
H433 C441 0.930 . S
H434 C444 0.930 . S
H435 C445 0.930 . S
C436 H430 0.930 . S
C436 C437 1.355 . S
C436 C438 1.415 . S
C437 C436 1.355 . S
C437 C439 1.419 . S
C438 C436 1.415 . S
C438 C443 1.425 . S
C438 C445 1.409 . S
C439 H431 0.930 . S
C439 C437 1.419 . S
C439 C440 1.362 . S
C440 H432 0.930 . S
C440 C439 1.362 . S
C440 C443 1.409 . S
C441 H433 0.930 . S
C441 C442 1.355 . S
C441 C443 1.415 1_554 S
C442 C441 1.355 . S
C442 C444 1.419 . S
C443 C438 1.425 . S
C443 C440 1.409 . S
C443 C441 1.415 1_556 S
C444 H434 0.930 . S
C444 C442 1.419 . S
C444 C445 1.362 1_554 S
C445 H435 0.930 . S
C445 C438 1.409 . S
C445 C444 1.362 1_556 S
H446 C452 0.930 . S
H447 C455 0.930 . S
H448 C456 0.930 . S
H449 C457 0.930 . S
H450 C460 0.930 . S
H451 C461 0.930 . S
C452 H446 0.930 . S
C452 C453 1.355 1_655 S
C452 C454 1.415 . S
C453 C452 1.355 1_455 S
C453 C455 1.419 . S
C454 C452 1.415 . S
C454 C459 1.425 1_655 S
C454 C461 1.409 . S
C455 H447 0.930 . S
C455 C453 1.419 . S
C455 C456 1.362 . S
C456 H448 0.930 . S
C456 C455 1.362 . S
C456 C459 1.409 . S
C457 H449 0.930 . S
C457 C458 1.355 1_455 S
C457 C459 1.415 . S
C458 C457 1.355 1_655 S
C458 C460 1.419 . S
C459 C454 1.425 1_455 S
C459 C456 1.409 . S
C459 C457 1.415 . S
C460 H450 0.930 . S
C460 C458 1.419 . S
C460 C461 1.362 . S
C461 H451 0.930 . S
C461 C454 1.409 . S
C461 C460 1.362 . S
C181 C10 3.008 . S
C186 C169 2.982 . S
C197 C55 1.321 . S
C202 C151 1.407 . S
C213 C90 1.846 . S
C218 C163 1.837 . S
C229 C19 2.914 . S
C234 C172 2.934 . S
C250 C154 1.455 . S
C245 C46 1.392 . S
C266 C160 1.923 . S
C261 C99 1.913 . S
C277 C50 1.828 . S
C282 C133 1.813 . S
C293 C95 0.849 . S
C298 C142 0.914 . S
C309 C6 1.425 . S
C314 C124 1.446 . S
C330 C136 1.869 . S
C325 C59 1.850 . S
C346 C145 0.770 . S
C341 C86 0.843 . S
C357 C15 1.447 . S
C362 C127 1.544 . S
C378 C143 1.019 . S
C373 C18 1.043 . S
C389 C49 1.462 . S
C394 C125 1.472 . S
C405 C98 1.265 . S
C410 C134 1.336 . S
C426 C161 1.351 . S
C421 C58 1.265 . S
C442 C170 1.793 . S
C437 C89 1.691 . S
C453 C9 1.420 . S
C458 C152 1.500 1_655 S
