# Generated by pormake.
# Topology zzz, (3,6)-cn, num edge types: 1
# Building blocks:
#     Node 0, Type 0, BuildingBlock: CUQRIR_clean_linker_1, # of connection points: 3
#     Node 1, Type 0, BuildingBlock: CUQRIR_clean_linker_1, # of connection points: 3
#     Node 2, Type 0, BuildingBlock: CUQRIR_clean_linker_1, # of connection points: 3
#     Node 3, Type 0, BuildingBlock: CUQRIR_clean_linker_1, # of connection points: 3
#     Node 4, Type 0, BuildingBlock: CUQRIR_clean_linker_1, # of connection points: 3
#     Node 5, Type 0, BuildingBlock: CUQRIR_clean_linker_1, # of connection points: 3
#     Node 6, Type 0, BuildingBlock: CUQRIR_clean_linker_1, # of connection points: 3
#     Node 7, Type 0, BuildingBlock: CUQRIR_clean_linker_1, # of connection points: 3
#     Node 8, Type 1, BuildingBlock: KUMBUR_clean_sbu_1, # of connection points: 6
#     Node 9, Type 1, BuildingBlock: KUMBUR_clean_sbu_1, # of connection points: 6
#     Node 10, Type 1, BuildingBlock: KUMBUR_clean_sbu_1, # of connection points: 6
#     Node 11, Type 1, BuildingBlock: KUMBUR_clean_sbu_1, # of connection points: 6
#     Edge 12, Type (0, 1), BuildingBlock: KIFKEQ_clean_linker_1, # of connection points: 2
#     Edge 13, Type (0, 1), BuildingBlock: KIFKEQ_clean_linker_1, # of connection points: 2
#     Edge 14, Type (0, 1), BuildingBlock: KIFKEQ_clean_linker_1, # of connection points: 2
#     Edge 15, Type (0, 1), BuildingBlock: KIFKEQ_clean_linker_1, # of connection points: 2
#     Edge 16, Type (0, 1), BuildingBlock: KIFKEQ_clean_linker_1, # of connection points: 2
#     Edge 17, Type (0, 1), BuildingBlock: KIFKEQ_clean_linker_1, # of connection points: 2
#     Edge 18, Type (0, 1), BuildingBlock: KIFKEQ_clean_linker_1, # of connection points: 2
#     Edge 19, Type (0, 1), BuildingBlock: KIFKEQ_clean_linker_1, # of connection points: 2
#     Edge 20, Type (0, 1), BuildingBlock: KIFKEQ_clean_linker_1, # of connection points: 2
#     Edge 21, Type (0, 1), BuildingBlock: KIFKEQ_clean_linker_1, # of connection points: 2
#     Edge 22, Type (0, 1), BuildingBlock: KIFKEQ_clean_linker_1, # of connection points: 2
#     Edge 23, Type (0, 1), BuildingBlock: KIFKEQ_clean_linker_1, # of connection points: 2
#     Edge 24, Type (0, 1), BuildingBlock: KIFKEQ_clean_linker_1, # of connection points: 2
#     Edge 25, Type (0, 1), BuildingBlock: KIFKEQ_clean_linker_1, # of connection points: 2
#     Edge 26, Type (0, 1), BuildingBlock: KIFKEQ_clean_linker_1, # of connection points: 2
#     Edge 27, Type (0, 1), BuildingBlock: KIFKEQ_clean_linker_1, # of connection points: 2
#     Edge 28, Type (0, 1), BuildingBlock: KIFKEQ_clean_linker_1, # of connection points: 2
#     Edge 29, Type (0, 1), BuildingBlock: KIFKEQ_clean_linker_1, # of connection points: 2
#     Edge 30, Type (0, 1), BuildingBlock: KIFKEQ_clean_linker_1, # of connection points: 2
#     Edge 31, Type (0, 1), BuildingBlock: KIFKEQ_clean_linker_1, # of connection points: 2
#     Edge 32, Type (0, 1), BuildingBlock: KIFKEQ_clean_linker_1, # of connection points: 2
#     Edge 33, Type (0, 1), BuildingBlock: KIFKEQ_clean_linker_1, # of connection points: 2
#     Edge 34, Type (0, 1), BuildingBlock: KIFKEQ_clean_linker_1, # of connection points: 2
#     Edge 35, Type (0, 1), BuildingBlock: KIFKEQ_clean_linker_1, # of connection points: 2
# Relax obj value: 0.214
# Max RMSD: 0.112
# Mean RMSD: 0.089
data_MOF--net-zzz--node1-KUMBUR_clean_sbu_1--node2-CUQRIR_clean_linker_1--edge1-KIFKEQ_clean_linker_1
_symmetry_space_group_name_H-M    P1
_symmetry_Int_Tables_number       1
_symmetry_cell_setting            triclinic
loop_
_symmetry_equiv_pos_as_xyz
'x, y, z'
_cell_length_a     47.578018
_cell_length_b     47.605546
_cell_length_c     14.461943
_cell_angle_alpha  89.85898
_cell_angle_beta   89.918371
_cell_angle_gamma 90.347052
loop_
_atom_site_label
_atom_site_type_symbol
_atom_site_fract_x
_atom_site_fract_y
_atom_site_fract_z
_atom_type_partial_charge
C0 C 0.75599 0.54697 0.35305 0.0
N1 N 0.78334 0.5566 0.35353 0.0
N2 N 0.74165 0.556 0.27588 0.0
C3 C 0.74344 0.52864 0.4266 0.0
C4 C 0.76145 0.57091 0.22943 0.0
N5 N 0.78627 0.57145 0.27587 0.0
C6 C 0.75754 0.58191 0.13216 0.0
H7 H 0.74833 0.50641 0.41065 0.0
H8 H 0.72026 0.53103 0.42872 0.0
H9 H 0.75268 0.53377 0.49498 0.0
H10 H 0.75702 0.6052 0.13378 0.0
H11 H 0.73786 0.57427 0.09974 0.0
H12 H 0.77534 0.57547 0.08751 0.0
C13 C 1.01309 0.76195 0.33076 0.0
N14 N 1.00343 0.78917 0.3333 0.0
N15 N 1.00509 0.74839 0.25073 0.0
C16 C 0.02979 0.74854 0.40632 0.0
C17 C 0.99081 0.76858 0.2048 0.0
N18 N 0.98935 0.79268 0.2546 0.0
C19 C 0.98139 0.76581 0.10547 0.0
H20 H 0.05238 0.75333 0.39499 0.0
H21 H 0.02689 0.72539 0.40572 0.0
H22 H 0.0236 0.75718 0.47455 0.0
H23 H 0.95863 0.76064 0.10407 0.0
H24 H 0.99293 0.74901 0.06879 0.0
H25 H 0.9848 0.78571 0.0669 0.0
C26 C 0.79127 0.01911 0.27575 0.0
N27 N 0.76436 1.00924 0.28694 0.0
N28 N 0.80471 1.00602 0.20362 0.0
C29 C 0.80426 0.04153 0.33456 0.0
C30 C 0.78456 0.9882 0.17119 0.0
N31 N 0.76055 0.99004 0.22152 0.0
C32 C 0.78804 0.96962 0.08775 0.0
H33 H 0.80024 0.06228 0.30227 0.0
H34 H 0.82733 0.03857 0.33952 0.0
H35 H 0.79476 0.04143 0.4047 0.0
H36 H 0.76764 0.96281 0.05839 0.0
H37 H 0.79955 0.95042 0.10839 0.0
H38 H 0.80043 0.9806 0.03341 0.0
C39 C 0.53364 0.79759 0.29678 0.0
N40 N 0.5465 0.77262 0.31874 0.0
N41 N 0.54946 0.81348 0.23566 0.0
C42 C 0.50567 0.80628 0.33411 0.0
C43 C 0.57212 0.79672 0.22111 0.0
N44 N 0.5704 0.7725 0.27087 0.0
C45 C 0.59535 0.80327 0.15308 0.0
H46 H 0.48898 0.7987 0.28666 0.0
H47 H 0.50439 0.82951 0.33833 0.0
H48 H 0.50197 0.79679 0.40327 0.0
H49 H 0.61008 0.81864 0.18448 0.0
H50 H 0.58658 0.8127 0.08915 0.0
H51 H 0.6078 0.78451 0.13472 0.0
C52 C 0.29316 0.52154 0.13569 0.0
N53 N 0.26828 0.50768 0.11915 0.0
N54 N 0.31013 0.50678 0.19516 0.0
C55 C 0.30022 0.55001 0.09789 0.0
C56 C 0.29439 0.48363 0.21392 0.0
N57 N 0.2691 0.48432 0.17011 0.0
C58 C 0.30326 0.46095 0.28032 0.0
H59 H 0.32323 0.55389 0.09998 0.0
H60 H 0.28959 0.56611 0.14064 0.0
H61 H 0.29237 0.55203 0.02595 0.0
H62 H 0.3039 0.46963 0.35143 0.0
H63 H 0.32475 0.45377 0.26298 0.0
H64 H 0.28878 0.4426 0.27833 0.0
C65 C 0.03757 0.29635 0.13176 0.0
N66 N 0.05435 0.27509 0.09989 0.0
N67 N 0.05314 0.3186 0.16433 0.0
C68 C 1.00615 0.29496 0.13392 0.0
C69 C 0.07984 0.30983 0.15029 0.0
N70 N 0.08081 0.28316 0.1163 0.0
C71 C 0.10537 0.32688 0.17662 0.0
H72 H 0.99705 0.31621 0.1426 0.0
H73 H 0.99946 0.28154 0.1929 0.0
H74 H 0.99812 0.28517 0.0695 0.0
H75 H 0.10518 0.33093 0.25217 0.0
H76 H 0.10467 0.34756 0.14122 0.0
H77 H 0.12513 0.31616 0.15695 0.0
C78 C 0.2641 0.03898 0.13282 0.0
N79 N 0.29028 0.05016 0.11724 0.0
N80 N 0.25094 0.05192 0.20555 0.0
C81 C 0.25246 1.01405 0.08255 0.0
C82 C 0.2703 0.07115 0.23327 0.0
N83 N 0.29381 0.07017 0.18029 0.0
C84 C 0.26641 0.09069 0.31374 0.0
H85 H 0.22914 1.01424 0.08336 0.0
H86 H 0.25966 0.99466 0.11773 0.0
H87 H 0.26028 1.01372 1.01022 0.0
H88 H 0.27252 0.0797 0.37833 0.0
H89 H 0.24406 0.09693 0.32007 0.0
H90 H 0.27978 0.10974 0.30594 0.0
C91 C 0.51212 0.26237 0.10999 0.0
N92 N 0.50296 0.2898 0.10932 0.0
N93 N 0.50352 0.24818 0.1886 0.0
C94 C 0.52906 0.24945 0.03418 0.0
C95 C 0.48942 0.26827 0.23561 0.0
N96 N 0.48866 0.29286 0.18777 0.0
C97 C 0.47957 0.26487 0.33441 0.0
H98 H 0.52347 0.2589 0.96647 0.0
H99 H 0.52576 0.22636 0.03242 0.0
H100 H 0.55165 0.25373 0.04729 0.0
H101 H 0.49054 0.24747 0.37015 0.0
H102 H 0.45667 0.26032 0.33473 0.0
H103 H 0.48333 0.28434 0.37464 0.0
Tb104 Tb 1.00542 0.04754 0.6106 0.0
C105 C 0.08001 0.0662 0.93475 0.0
N106 N 0.08508 0.05372 0.8519 0.0
C107 C 0.12751 0.08063 0.83446 0.0
C108 C 0.09777 0.08764 0.96828 0.0
C109 C 0.10918 0.05953 0.80381 0.0
C110 C 0.12156 0.09504 0.91629 0.0
C111 C 0.05156 0.06898 0.07349 0.0
C112 C 0.05708 0.05704 0.98617 0.0
C113 C 0.06838 0.09132 0.10536 0.0
C114 C 0.09145 0.10061 0.0529 0.0
Tb115 Tb 0.05382 0.01971 0.80864 0.0
N116 N 0.04149 0.03513 0.95354 0.0
C117 C 0.03006 0.05734 0.12776 0.0
C118 C 0.02236 0.02214 1.01023 0.0
C119 C 1.01581 0.03345 0.09677 0.0
H120 H 0.11387 0.04826 0.74098 0.0
H121 H 1.0002 0.02336 0.14031 0.0
H122 H 0.94261 0.06585 0.68978 0.0
H123 H 0.03367 0.99197 0.29917 0.0
H124 H 1.01261 1.00257 0.99044 0.0
H125 H 0.02521 0.06582 0.19538 0.0
H126 H 0.04197 0.02194 0.43598 0.0
H127 H 0.14622 0.08574 0.79506 0.0
H128 H 0.06424 0.10098 0.17175 0.0
H129 H 0.10462 0.11741 0.07934 0.0
H130 H 0.89322 0.05129 0.66876 0.0
H131 H 0.13577 0.11141 0.93969 0.0
H132 H 0.98613 0.9727 0.26899 0.0
N133 N 0.95865 0.03688 0.59153 0.0
C134 C 0.95206 1.01872 0.5227 0.0
C135 C 0.9096 0.04163 0.62796 0.0
C136 C 0.92401 1.01069 0.50495 0.0
C137 C 0.93772 0.04938 0.64122 0.0
C138 C 0.90273 0.02189 0.56028 0.0
N139 N 0.99986 1.01861 0.48498 0.0
C140 C 0.02121 1.01346 0.42366 0.0
C141 C 0.96759 0.99263 0.38876 0.0
C142 C 0.9734 1.0097 0.46603 0.0
C143 C 0.98971 0.98571 0.32929 0.0
C144 C 1.01658 0.99652 0.34615 0.0
H145 H 0.8809 1.01625 0.54909 0.0
H146 H 0.89669 0.98607 0.41613 0.0
H147 H 0.93493 0.97034 0.31389 0.0
O148 O 0.0235 0.07142 0.50552 0.0
O149 O 1.01543 1.00184 0.60226 0.0
O150 O 0.02728 0.98586 0.74784 0.0
O151 O 0.98308 0.08264 0.55914 0.0
O152 O 0.05157 0.05376 0.59518 0.0
O153 O 0.07186 1.01663 0.66908 0.0
O154 O 0.07192 0.9977 0.91957 0.0
O155 O 0.05355 0.06533 0.76972 0.0
O156 O 1.00835 0.07482 0.73491 0.0
O157 O 0.08676 0.99155 0.78132 0.0
O158 O 1.00825 1.01007 0.82828 0.0
O159 O 0.98591 0.04587 0.75044 0.0
C160 C 0.02045 0.98103 0.66053 0.0
C161 C 1.01596 0.11871 0.51919 0.0
C162 C 0.05339 0.15087 0.47295 0.0
C163 C 0.04851 0.16678 0.55322 0.0
C164 C 1.01116 0.13476 0.59893 0.0
C165 C 0.02731 0.15886 0.61531 0.0
C166 C 0.03666 0.1272 0.45599 0.0
C167 C 0.07201 0.03529 0.60213 0.0
C168 C 1.0042 0.09043 0.5078 0.0
C169 C 0.91809 0.9926 0.43067 0.0
C170 C 0.93985 0.98366 0.3724 0.0
C171 C 0.03179 0.08221 0.77656 0.0
C172 C 0.07885 0.95166 0.87075 0.0
C173 C 0.04207 0.91618 0.88889 0.0
C174 C 0.06203 0.89526 0.86886 0.0
C175 C 0.09846 0.93078 0.85062 0.0
C176 C 0.05081 0.94423 0.88826 0.0
C177 C 0.08997 0.90261 0.84942 0.0
C178 C 0.98607 0.02628 0.81544 0.0
C179 C 0.08612 0.98152 0.86481 0.0
H180 H 0.0608 0.1855 0.56733 0.0
H181 H 0.99571 0.12825 0.64982 0.0
H182 H 0.02376 0.17111 0.67715 0.0
H183 H 0.04083 0.11431 0.39576 0.0
H184 H 0.0564 0.87321 0.87084 0.0
H185 H 0.12008 0.93626 0.8348 0.0
H186 H 0.0356 0.96057 0.90084 0.0
H187 H 0.10513 0.88639 0.83421 0.0
Tb188 Tb 0.53716 0.05743 0.79096 0.0
C189 C 0.53207 0.93824 0.65988 0.0
N190 N 0.54399 0.96112 0.61849 0.0
C191 C 0.58602 0.93492 0.58945 0.0
C192 C 0.54716 0.91307 0.67069 0.0
C193 C 0.57039 0.95958 0.58141 0.0
C194 C 0.57447 0.91164 0.63491 0.0
C195 C 0.49226 0.91768 0.74065 0.0
C196 C 0.50507 0.94073 0.6954 0.0
C197 C 0.50736 0.89267 0.75283 0.0
C198 C 0.53472 0.89036 0.71784 0.0
Tb199 Tb 0.51662 1.00046 0.61116 0.0
N200 N 0.4913 0.96556 0.68449 0.0
C201 C 0.46446 0.92025 0.77066 0.0
C202 C 0.46323 0.96688 0.70464 0.0
C203 C 0.4497 0.94473 0.75062 0.0
H204 H 0.5793 0.97717 0.54429 0.0
H205 H 0.42768 0.94634 0.76872 0.0
H206 H 0.47454 0.08074 0.85848 0.0
H207 H 0.62619 0.11165 0.63435 0.0
H208 H 0.45069 0.98445 0.68313 0.0
H209 H 0.45387 0.90306 0.80575 0.0
H210 H 0.60309 0.07339 0.71889 0.0
H211 H 0.60697 0.93387 0.56042 0.0
H212 H 0.49794 0.87488 0.78829 0.0
H213 H 0.54606 0.87091 0.7275 0.0
H214 H 0.44711 0.12424 0.84434 0.0
H215 H 0.58674 0.89265 0.64167 0.0
H216 H 0.60017 0.15515 0.59894 0.0
N217 N 0.5099 0.09687 0.78469 0.0
C218 C 0.5219 0.11982 0.74397 0.0
C219 C 0.46803 0.12319 0.8151 0.0
C220 C 0.50695 0.14513 0.73452 0.0
C221 C 0.48352 0.09841 0.82197 0.0
C222 C 0.4797 0.14659 0.77064 0.0
N223 N 0.56252 0.09239 0.71808 0.0
C224 C 0.59058 0.09104 0.69782 0.0
C225 C 0.56173 0.14045 0.66361 0.0
C226 C 0.54884 0.1173 0.70801 0.0
C227 C 0.58951 0.13787 0.63338 0.0
C228 C 0.60418 0.11327 0.65251 0.0
H229 H 0.46753 0.16568 0.76483 0.0
H230 H 0.50826 0.18752 0.67958 0.0
H231 H 0.55628 0.18349 0.61801 0.0
O232 O 0.57154 0.06092 0.88175 0.0
O233 O 0.51195 0.07024 0.66757 0.0
O234 O 0.52586 0.04242 0.54852 0.0
O235 O 0.53175 0.07871 0.91693 0.0
O236 O 0.57248 0.0344 0.72059 0.0
O237 O 0.5556 0.0232 0.57596 0.0
O238 O 0.48222 0.99649 0.52069 0.0
O239 O 0.54177 0.98786 0.73504 0.0
O240 O 0.5275 1.01556 0.85369 0.0
O241 O 0.52225 0.97931 0.48502 0.0
O242 O 0.48126 0.02353 0.68109 0.0
O243 O 0.49814 0.0348 0.8257 0.0
C244 C 0.51848 0.06736 0.57957 0.0
C245 C 0.55781 0.06027 0.04013 0.0
C246 C 0.57456 0.02414 0.14753 0.0
C247 C 0.55954 0.03744 0.21911 0.0
C248 C 0.5433 0.07316 0.11285 0.0
C249 C 0.5442 0.06178 0.20165 0.0
C250 C 0.57343 0.03593 0.058 0.0
C251 C 0.57678 0.02924 0.63128 0.0
C252 C 0.55663 0.07262 0.94646 0.0
C253 C 0.51948 0.16795 0.68821 0.0
C254 C 0.54678 0.16561 0.65273 0.0
C255 C 0.53482 0.9906 0.82273 0.0
C256 C 0.49564 0.99717 0.36203 0.0
C257 C 0.4787 0.03325 0.25471 0.0
C258 C 0.49313 0.01954 0.18259 0.0
C259 C 0.50951 0.98386 0.28876 0.0
C260 C 0.48024 0.02169 0.34452 0.0
C261 C 0.50822 0.99502 0.19969 0.0
C262 C 0.47697 0.02878 0.77033 0.0
C263 C 0.49722 0.98496 0.45586 0.0
H264 H 0.55924 0.02903 0.28866 0.0
H265 H 0.53114 0.092 0.10086 0.0
H266 H 0.53254 0.07159 0.25693 0.0
H267 H 0.58556 0.02689 1.00233 0.0
H268 H 0.49322 0.02776 0.11281 0.0
H269 H 0.52145 0.96488 0.30052 0.0
H270 H 0.46862 0.03104 0.40077 0.0
H271 H 0.51933 0.98485 0.14383 0.0
Tb272 Tb 0.55012 0.51977 0.64564 0.0
C273 C 0.45577 0.49913 0.89017 0.0
N274 N 0.45769 0.52064 0.82828 0.0
C275 C 0.41098 0.51002 0.77479 0.0
C276 C 0.43219 0.48103 0.89221 0.0
C277 C 0.43464 0.52761 0.77664 0.0
C278 C 0.41006 0.48619 0.83109 0.0
C279 C 0.47458 0.47586 0.02595 0.0
C280 C 0.47639 0.49676 0.95702 0.0
C281 C 0.45208 0.45664 0.02462 0.0
C282 C 0.43089 0.45925 0.95794 0.0
Tb283 Tb 0.49908 0.54605 0.83277 0.0
N284 N 0.49811 0.51542 0.95518 0.0
C285 C 0.49526 0.47517 0.09465 0.0
C286 C 0.51709 0.51627 0.02618 0.0
C287 C 0.51644 0.49562 0.09518 0.0
H288 H 0.43411 0.5469 0.73736 0.0
H289 H 0.53242 0.49531 0.14825 0.0
H290 H 0.60748 0.55423 0.71217 0.0
H291 H 0.50589 0.50369 0.30438 0.0
H292 H 0.53341 0.5321 0.02726 0.0
H293 H 0.49479 0.45927 0.14841 0.0
H294 H 0.51343 0.49275 0.46814 0.0
H295 H 0.39326 0.51518 0.73122 0.0
H296 H 0.45048 0.44018 0.07626 0.0
H297 H 0.41313 0.4449 0.95967 0.0
H298 H 0.64135 0.58784 0.64481 0.0
H299 H 0.39156 0.47281 0.83043 0.0
H300 H 0.53442 0.54083 0.22813 0.0
N301 N 0.58221 0.55175 0.59085 0.0
C302 C 0.57999 0.55876 0.50016 0.0
C303 C 0.62404 0.58002 0.60354 0.0
C304 C 0.59941 0.5773 0.45796 0.0
C305 C 0.60467 0.56104 0.64169 0.0
C306 C 0.62123 0.58845 0.51152 0.0
N307 N 0.54267 0.52622 0.49013 0.0
C308 C 0.52468 0.51022 0.43813 0.0
C309 C 0.55728 0.55117 0.35265 0.0
C310 C 0.55927 0.54581 0.44834 0.0
C311 C 0.53699 0.53673 0.30133 0.0
C312 C 0.52084 0.51589 0.34412 0.0
H313 H 0.63654 0.60279 0.48169 0.0
H314 H 0.61207 0.59702 0.329 0.0
H315 H 0.5755 0.57348 0.23675 0.0
O316 O 0.57331 0.49327 0.55827 0.0
O317 O 0.54857 0.56629 0.66965 0.0
O318 O 0.50318 0.57498 0.71124 0.0
O319 O 0.57779 0.49076 0.70589 0.0
O320 O 0.50465 0.51139 0.61618 0.0
O321 O 0.48158 0.54715 0.68967 0.0
O322 O 0.5051 0.58522 0.89477 0.0
O323 O 0.52187 0.5052 0.8455 0.0
O324 O 0.51896 0.4892 0.70094 0.0
O325 O 0.46679 0.56237 0.91756 0.0
O326 O 0.54373 0.55499 0.87143 0.0
O327 O 0.57047 0.52482 0.78248 0.0
C328 C 0.52643 0.58291 0.66777 0.0
C329 C 0.57412 0.44863 0.62648 0.0
C330 C 0.53762 0.41367 0.59566 0.0
C331 C 0.55539 0.39284 0.6325 0.0
C332 C 0.59148 0.42783 0.66332 0.0
C333 C 0.582 0.4 0.66674 0.0
C334 C 0.5472 0.44151 0.59534 0.0
C335 C 0.48289 0.52846 0.62226 0.0
C336 C 0.58235 0.47832 0.6275 0.0
C337 C 0.59725 0.58301 0.36298 0.0
C338 C 0.57636 0.56976 0.31045 0.0
C339 C 0.51843 0.4837 0.78978 0.0
C340 C 0.48471 0.5887 0.04342 0.0
C341 C 0.51429 0.60549 0.17072 0.0
C342 C 0.48978 0.60819 0.22531 0.0
C343 C 0.46074 0.59175 0.09857 0.0
C344 C 0.51125 0.59345 0.08244 0.0
C345 C 0.46342 0.60063 0.19009 0.0
C346 C 0.56748 0.54129 0.85524 0.0
C347 C 0.48209 0.58354 0.9431 0.0
H348 H 0.54929 0.37091 0.63249 0.0
H349 H 0.6121 0.43314 0.69 0.0
H350 H 0.59545 0.38384 0.69481 0.0
H351 H 0.53364 0.45799 0.57074 0.0
H352 H 0.49029 0.61726 0.29363 0.0
H353 H 0.44 0.58788 0.07037 0.0
H354 H 0.52934 0.58906 0.04066 0.0
H355 H 0.44482 0.60315 0.2324 0.0
Tb356 Tb 0.03754 0.55656 0.62412 0.0
C357 C 0.05246 0.47891 0.96467 0.0
N358 N 0.04809 0.47803 0.87169 0.0
C359 C 0.08524 0.44433 0.85651 0.0
C360 C 0.07414 0.46332 1.00663 0.0
C361 C 0.06371 0.4604 0.81777 0.0
C362 C 0.09065 0.44596 0.95114 0.0
C363 C 0.04006 0.49861 0.11355 0.0
C364 C 0.03556 0.49617 0.01752 0.0
C365 C 0.06188 0.48348 0.15547 0.0
C366 C 0.07879 0.46575 0.10222 0.0
Tb367 Tb 1.01286 0.50652 0.81731 0.0
N368 N 1.01474 0.5106 0.97467 0.0
C369 C 0.02258 0.51632 0.16448 0.0
C370 C 0.99713 0.52729 0.02462 0.0
C371 C 1.00087 0.53057 0.11988 0.0
H372 H 0.06023 0.45875 0.74462 0.0
H373 H 0.98707 0.54419 0.15864 0.0
H374 H 0.03869 0.62098 0.7212 0.0
H375 H 0.98013 0.52196 0.32089 0.0
H376 H 0.98028 0.53825 0.99108 0.0
H377 H 0.02565 0.51902 0.23812 0.0
H378 H 0.01918 0.5211 0.43335 0.0
H379 H 0.09777 0.43077 0.81311 0.0
H380 H 0.0658 0.4853 0.22901 0.0
H381 H 0.09544 0.45408 0.13557 0.0
H382 H 1.00604 0.66048 0.73782 0.0
H383 H 0.1075 0.43365 0.98068 0.0
H384 H 0.94412 0.55901 0.32977 0.0
N385 N 1.01047 0.59616 0.6404 0.0
C386 C 0.98814 0.59776 0.58169 0.0
C387 C 1.00026 0.64258 0.69579 0.0
C388 C 0.96941 0.62062 0.58504 0.0
C389 C 0.01834 0.61964 0.6886 0.0
C390 C 0.97516 0.64264 0.64609 0.0
N391 N 1.00445 0.55658 0.50853 0.0
C392 C 1.00348 0.53732 0.43812 0.0
C393 C 0.96297 0.57915 0.44883 0.0
C394 C 0.9853 0.57769 0.51264 0.0
C395 C 0.96113 0.55875 0.37954 0.0
C396 C 0.98152 0.53785 0.37399 0.0
H397 H 0.96135 0.6606 0.65069 0.0
H398 H 0.9316 0.63867 0.52688 0.0
H399 H 0.92565 0.60202 0.40885 0.0
O400 O 0.0484 0.57203 0.49326 0.0
O401 O 0.99703 0.53222 0.62093 0.0
O402 O 0.98133 0.5366 0.76508 0.0
O403 O 0.07389 0.5821 0.60889 0.0
O404 O 0.04824 0.51368 0.579 0.0
O405 O 0.02326 0.48579 0.68294 0.0
O406 O 0.98609 0.48121 0.89837 0.0
O407 O 0.05684 0.52112 0.8327 0.0
O408 O 0.07375 0.53382 0.68874 0.0
O409 O 0.98645 0.47754 0.74973 0.0
O410 O 1.00312 0.55127 0.84468 0.0
O411 O 0.03944 0.57335 0.76917 0.0
C412 C 0.97567 0.53659 0.67665 0.0
C413 C 0.09587 0.5775 0.46361 0.0
C414 C 0.12154 0.54482 0.36694 0.0
C415 C 0.13887 0.56713 0.33686 0.0
C416 C 0.11329 0.5995 0.43349 0.0
C417 C 0.13486 0.59425 0.3706 0.0
C418 C 0.10035 0.55004 0.43166 0.0
C419 C 0.0372 0.48922 0.60393 0.0
C420 C 0.07129 0.58391 0.52005 0.0
C421 C 0.94645 0.62153 0.5241 0.0
C422 C 0.94319 0.60079 0.45635 0.0
C423 C 0.078 0.52717 0.77691 0.0
C424 C 0.94271 0.47856 0.82222 0.0
C425 C 0.90597 0.51297 0.85272 0.0
C426 C 0.88633 0.49483 0.81033 0.0
C427 C 0.9231 0.46079 0.77984 0.0
C428 C 0.93406 0.5046 0.85576 0.0
C429 C 0.89498 0.46906 0.77353 0.0
C430 C 0.02105 0.57249 0.83812 0.0
C431 C 0.97276 0.47189 0.82574 0.0
H432 H 0.1558 0.5635 0.28822 0.0
H433 H 0.10985 0.62078 0.45717 0.0
H434 H 0.1483 0.61127 0.3472 0.0
H435 H 0.08681 0.53302 0.45456 0.0
H436 H 0.86424 0.49999 0.8076 0.0
H437 H 0.92954 0.44084 0.75122 0.0
H438 H 0.94968 0.51851 0.8842 0.0
H439 H 0.87974 0.45529 0.7411 0.0
H440 H 0.19718 0.05977 0.14462 0.0
H441 H 0.24474 0.03112 0.37855 0.0
H442 H 0.15346 0.05532 0.23514 0.0
H443 H 0.2017 0.02712 0.47002 0.0
H444 H 0.11863 1.00121 0.60039 0.0
H445 H 0.15984 1.00303 0.50102 0.0
H446 H 0.1255 0.07463 0.35777 0.0
H447 H 0.0837 0.07242 0.45709 0.0
C448 C 0.19823 0.05196 0.2149 0.0
C449 C 0.22455 0.04526 0.25346 0.0
C450 C 0.17313 0.0498 0.26777 0.0
C451 C 0.17344 0.0408 0.36127 0.0
C452 C 0.19993 0.03365 0.39855 0.0
C453 C 0.22487 0.03593 0.34593 0.0
C454 C 0.11966 1.01743 0.54784 0.0
C455 C 0.09742 0.03672 0.53822 0.0
C456 C 0.14368 1.0186 0.49048 0.0
C457 C 0.14674 0.03914 0.42038 0.0
C458 C 0.12427 0.05826 0.4097 0.0
C459 C 0.10015 0.05711 0.46752 0.0
H460 H 0.55232 0.21954 0.22843 0.0
H461 H 0.46237 0.21086 0.2322 0.0
H462 H 0.55649 0.17534 0.31712 0.0
H463 H 0.46623 0.16727 0.32113 0.0
H464 H 0.48019 0.11095 0.5794 0.0
H465 H 0.47765 0.15206 0.47768 0.0
H466 H 0.55011 0.12291 0.32759 0.0
H467 H 0.55236 0.08149 0.42955 0.0
C468 C 0.53344 0.20784 0.24553 0.0
C469 C 0.50698 0.21895 0.22116 0.0
C470 C 0.53575 0.18244 0.29764 0.0
C471 C 0.5117 0.16735 0.32896 0.0
C472 C 0.48539 0.17805 0.30098 0.0
C473 C 0.48313 0.20305 0.24821 0.0
C474 C 0.4956 0.11315 0.52465 0.0
C475 C 0.51644 0.09245 0.51364 0.0
C476 C 0.49406 0.13688 0.46524 0.0
C477 C 0.51359 0.1414 0.39258 0.0
C478 C 0.53465 0.12074 0.38219 0.0
C479 C 0.53583 0.09666 0.44065 0.0
H480 H 0.31798 0.54493 0.33335 0.0
H481 H 0.36188 0.48389 0.17069 0.0
H482 H 0.35936 0.5506 0.43272 0.0
H483 H 0.40372 0.48975 0.26752 0.0
H484 H 0.4656 0.48323 0.51332 0.0
H485 H 0.42592 0.48 0.40665 0.0
H486 H 0.40446 0.56599 0.46706 0.0
H487 H 0.44395 0.5689 0.57418 0.0
C488 C 0.33684 0.53334 0.31693 0.0
C489 C 0.33652 0.51437 0.24225 0.0
C490 C 0.36084 0.53643 0.37458 0.0
C491 C 0.38566 0.52057 0.36048 0.0
C492 C 0.38538 0.50215 0.2836 0.0
C493 C 0.36136 0.49905 0.22633 0.0
C494 C 0.45268 0.50163 0.50322 0.0
C495 C 0.45856 0.5264 0.55339 0.0
C496 C 0.4296 0.49981 0.4412 0.0
C497 C 0.41115 0.5227 0.42614 0.0
C498 C 0.4173 0.54752 0.4762 0.0
C499 C 0.44034 0.54929 0.53816 0.0
H500 H 0.03388 0.31899 0.34168 0.0
H501 H 0.05758 0.37409 0.11905 0.0
H502 H 0.0305 0.35915 0.44622 0.0
H503 H 0.05328 0.41474 0.22132 0.0
H504 H 0.06833 0.48303 0.44087 0.0
H505 H 0.07049 0.44293 0.33613 0.0
H506 H 1.01106 0.39817 0.50867 0.0
H507 H 1.01018 0.43759 0.61497 0.0
C508 C 0.03742 0.33988 0.31414 0.0
C509 C 0.04534 0.34306 0.22075 0.0
C510 C 0.03564 0.36328 0.3746 0.0
C511 C 0.04167 0.39112 0.34459 0.0
C512 C 0.04889 0.39416 0.24986 0.0
C513 C 0.05089 0.37069 0.18981 0.0
C514 C 0.05584 0.46459 0.45714 0.0
C515 C 0.03923 0.46406 0.53831 0.0
C516 C 0.05679 0.44133 0.39565 0.0
C517 C 0.04085 0.41644 0.41134 0.0
C518 C 0.0242 0.41614 0.49267 0.0
C519 C 0.02354 0.4392 0.55452 0.0
H520 H 0.83065 0.05516 0.15061 0.0
H521 H 0.84358 0.96599 0.16514 0.0
H522 H 0.87501 0.06072 0.06741 0.0
H523 H 0.88628 0.97061 0.07508 0.0
H524 H 0.97015 0.98202 0.93084 0.0
H525 H 0.93011 0.97847 0.0346 0.0
H526 H 0.90228 0.06037 0.94382 0.0
H527 H 0.94396 0.0648 0.8489 0.0
C528 C 0.84304 0.03667 0.13644 0.0
C529 C 0.83303 1.01007 0.16443 0.0
C530 C 0.86857 0.03968 0.08629 0.0
C531 C 0.88508 1.01614 0.06038 0.0
C532 C 0.87522 0.98966 0.092 0.0
C533 C 0.8501 0.98681 0.14351 0.0
C534 C 0.95573 0.9995 0.93406 0.0
C535 C 0.96068 0.02362 0.87947 0.0
C536 C 0.93205 0.99733 0.99337 0.0
C537 C 0.91165 1.01894 0.9995 0.0
C538 C 0.91687 0.04307 0.94441 0.0
C539 C 0.94089 0.04546 0.88707 0.0
H540 H 0.58501 0.85867 0.22333 0.0
H541 H 0.50244 0.83143 0.14033 0.0
H542 H 0.58111 0.90018 0.124 0.0
H543 H 0.49771 0.87435 0.04507 0.0
H544 H 0.49725 0.9743 0.96003 0.0
H545 H 0.49839 0.93265 0.06159 0.0
H546 H 0.57686 0.90794 0.93851 0.0
H547 H 0.57502 0.94881 0.83437 0.0
C548 C 0.56585 0.86148 0.18434 0.0
C549 C 0.54432 0.84087 0.18983 0.0
C550 C 0.56358 0.88558 0.12709 0.0
C551 C 0.53922 0.89093 0.07449 0.0
C552 C 0.5169 0.87124 0.08384 0.0
C553 C 0.51949 0.84657 0.13952 0.0
C554 C 0.51479 0.96002 0.95441 0.0
C555 C 0.53611 0.96538 0.88833 0.0
C556 C 0.51534 0.93586 1.01259 0.0
C557 C 0.53774 0.91648 1.0095 0.0
C558 C 0.55924 0.92214 0.94417 0.0
C559 C 0.5582 0.94574 0.88399 0.0
H560 H 0.69859 0.59281 0.26486 0.0
H561 H 0.72108 0.50825 0.19559 0.0
H562 H 0.65661 0.58923 0.16831 0.0
H563 H 0.6787 0.50391 0.09999 0.0
H564 H 0.61841 0.51307 0.85244 0.0
H565 H 0.65744 0.51494 0.96098 0.0
H566 H 0.61223 0.57507 0.12582 0.0
H567 H 0.57324 0.57298 0.01639 0.0
C568 C 0.69389 0.57292 0.23197 0.0
C569 C 0.71307 0.55056 0.24118 0.0
C570 C 0.6697 0.57084 0.17511 0.0
C571 C 0.66357 0.5463 0.12345 0.0
C572 C 0.68231 0.52349 0.13593 0.0
C573 C 0.70654 0.52564 0.19306 0.0
C574 C 0.61655 0.52674 0.91183 0.0
C575 C 0.59201 0.54301 0.92393 0.0
C576 C 0.63919 0.52764 0.97562 0.0
C577 C 0.63866 0.54495 0.05515 0.0
C578 C 0.61414 0.56137 0.06674 0.0
C579 C 0.59141 0.56025 1.00316 0.0
H580 H 0.05427 0.72141 0.20606 0.0
H581 H 0.96462 0.7107 0.20696 0.0
H582 H 0.05918 0.6782 0.11515 0.0
H583 H 0.96877 0.66879 0.11287 0.0
H584 H 0.97852 0.58644 0.96181 0.0
H585 H 0.97641 0.62445 0.07298 0.0
H586 H 0.05766 0.6542 0.97992 0.0
H587 H 0.06051 0.61452 0.8742 0.0
C588 C 0.03559 0.70944 0.18894 0.0
C589 C 1.00905 0.71955 0.21629 0.0
C590 C 0.03824 0.6847 0.13431 0.0
C591 C 1.01442 0.66911 0.10343 0.0
C592 C 0.988 0.67902 0.13437 0.0
C593 C 0.98547 0.7034 0.18946 0.0
C594 C 0.99629 0.60065 0.96603 0.0
C595 C 0.01977 0.59671 0.90773 0.0
C596 C 0.9949 0.62324 0.02971 0.0
C597 C 1.01671 0.64359 0.0376 0.0
C598 C 0.0403 0.63945 0.97916 0.0
C599 C 0.04185 0.61654 0.91653 0.0
H600 H 0.10577 0.24064 0.01733 0.0
H601 H 0.10401 0.28001 0.28562 0.0
H602 H 0.11892 0.19626 0.09095 0.0
H603 H 0.12033 0.23804 0.35589 0.0
H604 H 0.04894 0.15124 0.28511 0.0
H605 H 0.07933 0.17534 0.17713 0.0
H606 H 0.13833 0.19281 0.39697 0.0
H607 H 0.10735 0.16859 0.50638 0.0
C608 C 0.10921 0.24021 0.09107 0.0
C609 C 0.10176 0.26324 0.14626 0.0
C610 C 0.11746 0.21501 0.13296 0.0
C611 C 0.11921 0.2132 0.23 0.0
C612 C 0.11858 0.2382 0.28124 0.0
C613 C 0.10917 0.26275 0.2403 0.0
C614 C 0.06885 0.15931 0.3101 0.0
C615 C 0.07515 0.15933 0.40497 0.0
C616 C 0.08663 0.17287 0.24755 0.0
C617 C 0.11077 0.18709 0.27919 0.0
C618 C 0.11942 0.18278 0.37117 0.0
C619 C 0.10147 0.16941 0.43409 0.0
H620 H 0.32316 0.06354 0.33649 0.0
H621 H 0.32486 0.10432 0.07057 0.0
H622 H 0.37324 0.07235 0.35483 0.0
H623 H 0.3756 0.11247 0.08655 0.0
H624 H 0.45159 0.04626 0.09211 0.0
H625 H 0.40862 0.0722 0.07804 0.0
H626 H 0.41776 0.10178 0.35823 0.0
H627 H 0.46195 0.07651 0.37156 0.0
C628 C 0.33415 0.07555 0.28387 0.0
C629 C 0.32055 0.08282 0.20152 0.0
C630 C 0.36285 0.08069 0.29418 0.0
C631 C 0.37846 0.09282 0.22152 0.0
C632 C 0.36413 0.10291 0.14334 0.0
C633 C 0.33526 0.0981 0.13382 0.0
C634 C 0.44526 0.05888 0.1501 0.0
C635 C 0.45921 0.05715 0.23557 0.0
C636 C 0.4205 0.07414 0.14157 0.0
C637 C 0.40919 0.08801 0.21847 0.0
C638 C 0.42557 0.09041 0.29879 0.0
C639 C 0.45065 0.07545 0.30675 0.0
H640 H 0.5211 0.33859 0.20283 0.0
H641 H 0.43853 0.30599 0.26583 0.0
H642 H 0.51235 0.37916 0.29624 0.0
H643 H 0.43084 0.34574 0.37169 0.0
H644 H 0.50108 0.36954 0.63222 0.0
H645 H 0.46893 0.34906 0.52027 0.0
H646 H 0.47808 0.42209 0.34615 0.0
H647 H 0.51184 0.44146 0.45085 0.0
C648 C 0.50042 0.34089 0.23266 0.0
C649 C 0.48041 0.31938 0.22615 0.0
C650 C 0.49538 0.36411 0.28732 0.0
C651 C 0.47081 0.3656 0.341 0.0
C652 C 0.44975 0.34516 0.32993 0.0
C653 C 0.45428 0.32243 0.27061 0.0
C654 C 0.49588 0.38159 0.57111 0.0
C655 C 0.51064 0.40638 0.5487 0.0
C656 C 0.47663 0.37024 0.50843 0.0
C657 C 0.47208 0.38365 0.42321 0.0
C658 C 0.48168 0.41124 0.41104 0.0
C659 C 0.5015 0.42222 0.47178 0.0
H660 H 0.23056 0.45607 0.06619 0.0
H661 H 0.25098 0.48046 0.34483 0.0
H662 H 0.18155 0.4484 0.11279 0.0
H663 H 0.20347 0.47195 0.39251 0.0
H664 H 0.12903 0.49689 0.46856 0.0
H665 H 0.15657 0.45679 0.41667 0.0
H666 H 0.15356 0.48858 0.13696 0.0
H667 H 0.12546 0.52792 0.18915 0.0
C668 C 0.2248 0.45858 0.1381 0.0
C669 C 0.24419 0.46975 0.20133 0.0
C670 C 0.19685 0.45398 0.16511 0.0
C671 C 0.18814 0.46059 0.25569 0.0
C672 C 0.20893 0.4668 0.32189 0.0
C673 C 0.2365 0.47181 0.2946 0.0
C674 C 0.13314 0.49446 0.39532 0.0
C675 C 0.12687 0.51614 0.33296 0.0
C676 C 0.14885 0.47145 0.36539 0.0
C677 C 0.15912 0.47072 0.27394 0.0
C678 C 0.14716 0.48905 0.20869 0.0
C679 C 0.13137 0.51187 0.23841 0.0
H680 H 0.0196 0.84021 0.24866 0.0
H681 H 0.93919 0.80458 0.1748 0.0
H682 H 1.00951 0.88156 0.15967 0.0
H683 H 0.93042 0.84521 0.07322 0.0
H684 H 1.00827 0.87199 0.83414 0.0
H685 H 0.97198 0.85073 0.9305 0.0
H686 H 0.97208 0.92367 0.10609 0.0
H687 H 1.00918 0.94431 1.01534 0.0
C688 C 0.99912 0.84185 0.21695 0.0
C689 C 0.98019 0.81928 0.21869 0.0
C690 C 0.99326 0.86558 0.16525 0.0
C691 C 0.96909 0.86656 0.1096 0.0
C692 C 0.94897 0.84502 0.11653 0.0
C693 C 0.95421 0.82175 0.17312 0.0
C694 C 1.00002 0.88389 0.89173 0.0
C695 C 1.01316 0.90888 0.92057 0.0
C696 C 0.9785 0.87212 0.94516 0.0
C697 C 0.97056 0.88507 0.02828 0.0
C698 C 0.97848 0.91307 0.0433 0.0
C699 C 1.0003 0.92467 0.99134 0.0
H700 H 0.73015 0.95418 0.32649 0.0
H701 H 0.7301 1.00018 0.06994 0.0
H702 H 0.67941 0.94557 0.31102 0.0
H703 H 0.68007 0.99069 0.05148 0.0
H704 H 0.59193 0.98118 0.03107 0.0
H705 H 0.63682 0.95713 0.04391 0.0
H706 H 0.64534 0.98662 0.32428 0.0
H707 H 0.60172 1.01172 0.31042 0.0
C708 C 0.71939 0.96134 0.26497 0.0
C709 C 0.73366 0.97792 0.19951 0.0
C710 C 0.69055 0.9563 0.25579 0.0
C711 C 0.67583 0.96737 0.17997 0.0
C712 C 0.69089 0.98141 0.10981 0.0
C713 C 0.71949 0.98693 0.12017 0.0
C714 C 0.6032 0.98242 0.09591 0.0
C715 C 0.59429 1.00052 0.1671 0.0
C716 C 0.62867 0.96814 0.10359 0.0
C717 C 0.645 0.97096 0.18381 0.0
C718 C 0.6334 0.98444 0.26094 0.0
C719 C 0.60828 0.99914 0.25257 0.0
H720 H 0.57119 0.74581 0.10983 0.0
H721 H 0.60221 0.74163 0.38876 0.0
H722 H 0.57847 0.69628 0.09125 0.0
H723 H 0.60811 0.69065 0.37357 0.0
H724 H 0.53253 0.62365 0.34513 0.0
H725 H 0.5679 0.65926 0.37216 0.0
H726 H 0.59794 0.65064 0.09318 0.0
H727 H 0.56111 0.61866 0.06004 0.0
C728 C 0.58103 0.73431 0.16569 0.0
C729 C 0.5854 0.74711 0.25129 0.0
C730 C 0.58525 0.70569 0.1556 0.0
C731 C 0.5931 0.68913 0.23216 0.0
C732 C 0.60152 0.70272 0.31392 0.0
C733 C 0.598 0.73176 0.32287 0.0
C734 C 0.54619 0.62938 0.28832 0.0
C735 C 0.54169 0.61915 0.19799 0.0
C736 C 0.56726 0.6493 0.30525 0.0
C737 C 0.58431 0.65918 0.23267 0.0
C738 C 0.58412 0.64439 0.14932 0.0
C739 C 0.56247 0.62551 0.13072 0.0
H740 H 0.80285 0.61994 0.19125 0.0
H741 H 0.82847 0.53544 0.2564 0.0
H742 H 0.84087 0.62311 0.07533 0.0
H743 H 0.86756 0.53972 0.15231 0.0
H744 H 0.93166 0.53853 1.002 0.0
H745 H 0.91287 0.57342 0.1014 0.0
H746 H 0.83993 0.58046 0.92721 0.0
H747 H 0.86061 0.54778 0.81717 0.0
C748 C 0.81746 0.60274 0.18433 0.0
C749 C 0.81285 0.57742 0.23267 0.0
C750 C 0.83915 0.60466 0.11898 0.0
C751 C 0.85712 0.58179 0.10602 0.0
C752 C 0.85434 0.55793 0.16249 0.0
C753 C 0.8321 0.55554 0.22346 0.0
C754 C 0.91282 0.54879 0.97871 0.0
C755 C 0.89741 0.53925 0.90129 0.0
C756 C 0.90205 0.5692 0.0369 0.0
C757 C 0.87471 0.5788 0.02334 0.0
C758 C 0.86108 0.57299 0.93939 0.0
C759 C 0.8725 0.55341 0.87816 0.0
H760 H 0.0626 0.26151 0.91999 0.0
H761 H 0.02987 0.22733 0.17371 0.0
H762 H 0.05736 0.21548 0.84511 0.0
H763 H 0.02354 0.18119 0.098 0.0
H764 H 0.99236 0.10947 0.88505 0.0
H765 H 0.99593 0.15506 0.96451 0.0
H766 H 0.07969 0.16615 0.85672 0.0
H767 H 0.07637 0.12023 0.77991 0.0
C768 C 0.0536 0.24429 0.95936 0.0
C769 C 0.04646 0.24859 0.0531 0.0
C770 C 0.05088 0.2176 0.91655 0.0
C771 C 0.04013 0.19396 0.96459 0.0
C772 C 0.03179 0.19856 0.0576 0.0
C773 C 0.0352 0.22523 0.10128 0.0
C774 C 1.01162 0.12154 0.87835 0.0
C775 C 0.03407 0.11065 0.82545 0.0
C776 C 1.01375 0.14783 0.92468 0.0
C777 C 0.0381 0.16494 0.9179 0.0
C778 C 0.06044 0.15409 0.86409 0.0
C779 C 0.0586 0.12747 0.81998 0.0
H780 H 0.33107 1.01213 0.15347 0.0
H781 H 0.3022 0.06895 0.94387 0.0
H782 H 0.37385 1.00351 0.06481 0.0
H783 H 0.34563 0.06202 0.85605 0.0
H784 H 0.42462 0.03925 0.68923 0.0
H785 H 0.3783 0.0406 0.76385 0.0
H786 H 0.41661 1.01777 0.02358 0.0
H787 H 0.46227 1.01672 0.94919 0.0
C788 C 0.33365 0.02231 0.08695 0.0
C789 C 0.31269 0.04065 0.05504 0.0
C790 C 0.35871 1.01795 0.0362 0.0
C791 C 0.36433 0.03228 0.95188 0.0
C792 C 0.3427 0.05004 0.91898 0.0
C793 C 0.31744 0.05404 0.96937 0.0
C794 C 0.42309 0.03446 0.76231 0.0
C795 C 0.44764 0.02815 0.81271 0.0
C796 C 0.39631 0.03547 0.80603 0.0
C797 C 0.39285 0.02982 0.90191 0.0
C798 C 0.41751 0.02248 0.95057 0.0
C799 C 0.44415 0.02197 0.90746 0.0
H800 H 0.55204 0.31576 0.05297 0.0
H801 H 0.46245 0.31887 0.01835 0.0
H802 H 0.55669 0.36143 0.973 0.0
H803 H 0.46694 0.36386 0.9361 0.0
H804 H 0.48765 0.43747 0.72779 0.0
H805 H 0.48475 0.38973 0.79328 0.0
H806 H 0.54452 0.41305 1.00331 0.0
H807 H 0.54673 0.46087 0.93927 0.0
C808 C 0.53338 0.32555 0.02518 0.0
C809 C 0.50686 0.31284 0.04116 0.0
C810 C 0.53595 0.35222 0.98043 0.0
C811 C 0.5122 0.36708 0.94729 0.0
C812 C 0.4859 0.35353 0.95914 0.0
C813 C 0.48329 0.32734 1.00594 0.0
C814 C 0.50032 0.43246 0.78768 0.0
C815 C 0.51752 0.45353 0.82731 0.0
C816 C 0.49858 0.40487 0.82591 0.0
C817 C 0.51452 0.39675 0.90425 0.0
C818 C 0.53207 0.41781 0.94272 0.0
C819 C 0.53325 0.44555 0.90594 0.0
H820 H 0.22095 0.53482 0.17641 0.0
H821 H 0.25849 0.49767 0.93638 0.0
H822 H 0.17718 0.54182 0.09137 0.0
H823 H 0.21437 0.50334 0.85065 0.0
H824 H 0.13208 0.52739 0.69413 0.0
H825 H 0.17828 0.52574 0.77051 0.0
H826 H 0.13694 0.52384 0.03569 0.0
H827 H 0.09189 0.52609 0.96116 0.0
C828 C 0.22004 0.52866 0.10446 0.0
C829 C 0.24383 0.51636 0.06323 0.0
C830 C 0.19446 0.5321 0.05516 0.0
C831 C 0.19108 0.5229 0.96227 0.0
C832 C 0.21536 0.51118 0.92072 0.0
C833 C 0.24103 0.50797 0.97005 0.0
C834 C 0.13287 0.52668 0.76893 0.0
C835 C 0.1075 0.52662 0.82016 0.0
C836 C 0.15967 0.52553 0.81354 0.0
C837 C 0.1624 0.52454 0.91155 0.0
C838 C 0.13684 0.52479 0.96143 0.0
C839 C 0.11037 0.5258 0.91745 0.0
H840 H 0.05189 0.81209 0.40738 0.0
H841 H 0.96194 0.81941 0.41382 0.0
H842 H 0.05627 0.85677 0.49211 0.0
H843 H 0.96594 0.86361 0.49812 0.0
H844 H 0.9796 0.95799 0.54722 0.0
H845 H 0.97657 0.91131 0.47908 0.0
H846 H 0.05164 0.88718 0.6253 0.0
H847 H 0.05515 0.93481 0.68973 0.0
C848 C 0.03297 0.82264 0.42957 0.0
C849 C 1.00649 0.81153 0.40375 0.0
C850 C 0.03542 0.8487 0.47777 0.0
C851 C 1.01151 0.86491 0.50185 0.0
C852 C 0.98511 0.85281 0.47993 0.0
C853 C 0.98271 0.82689 0.43246 0.0
C854 C 0.99567 0.94296 0.56448 0.0
C855 C 0.0176 0.95082 0.62491 0.0
C856 C 0.99373 0.9156 0.52609 0.0
C857 C 1.01373 0.89446 0.54573 0.0
C858 C 0.03571 0.90232 0.60681 0.0
C859 C 0.03753 0.92979 0.64556 0.0
H860 H 0.72362 0.04742 0.25208 0.0
H861 H 0.75209 0.98959 0.4593 0.0
H862 H 0.68052 0.05538 0.33976 0.0
H863 H 0.70838 0.99603 0.54631 0.0
H864 H 0.59175 0.04133 0.45246 0.0
H865 H 0.63756 0.04034 0.37871 0.0
H866 H 0.6755 1.01747 0.63897 0.0
H867 H 0.62905 1.01868 0.71282 0.0
C868 C 0.72093 0.03691 0.31801 0.0
C869 C 0.74191 1.01853 0.34955 0.0
C870 C 0.69566 0.0409 0.36812 0.0
C871 C 0.68985 0.02616 0.4515 0.0
C872 C 0.71146 1.00832 0.4841 0.0
C873 C 0.7369 1.00464 0.43425 0.0
C874 C 0.60981 0.03605 0.49441 0.0
C875 C 0.60618 0.02984 0.58909 0.0
C876 C 0.63655 0.03562 0.45172 0.0
C877 C 0.66117 0.02835 0.50081 0.0
C878 C 0.65755 0.0226 0.59653 0.0
C879 C 0.63068 0.02351 0.6398 0.0
H880 H 0.51302 0.7278 0.27061 0.0
H881 H 0.56154 0.7607 0.49618 0.0
H882 H 0.50683 0.68305 0.35499 0.0
H883 H 0.55651 0.71578 0.57924 0.0
H884 H 0.5722 0.61883 0.63862 0.0
H885 H 0.57394 0.66493 0.56181 0.0
H886 H 0.48561 0.65836 0.50078 0.0
H887 H 0.48366 0.61276 0.58124 0.0
C888 C 0.52158 0.72592 0.33963 0.0
C889 C 0.53702 0.74869 0.3771 0.0
C890 C 0.51833 0.69993 0.38812 0.0
C891 C 0.53119 0.69508 0.47516 0.0
C892 C 0.54625 0.71809 0.51292 0.0
C893 C 0.54879 0.74427 0.46564 0.0
C894 C 0.55302 0.62713 0.60946 0.0
C895 C 0.52773 0.61153 0.61794 0.0
C896 C 0.55397 0.65394 0.5654 0.0
C897 C 0.52988 0.66619 0.52447 0.0
C898 C 0.50474 0.6502 0.53083 0.0
C899 C 0.5036 0.62382 0.5777 0.0
H900 H 0.81542 0.59656 0.43654 0.0
H901 H 0.80645 0.50693 0.41567 0.0
H902 H 0.85987 0.59085 0.51995 0.0
H903 H 0.85147 0.50097 0.49778 0.0
H904 H 0.95094 0.50538 0.53701 0.0
H905 H 0.90349 0.5088 0.47137 0.0
H906 H 0.88412 0.57482 0.66404 0.0
H907 H 0.93146 0.57081 0.73092 0.0
C908 C 0.82252 0.57551 0.452 0.0
C909 C 0.80654 0.5523 0.42035 0.0
C910 C 0.84836 0.57217 0.49974 0.0
C911 C 0.86002 0.54539 0.51648 0.0
C912 C 0.84372 0.52204 0.48657 0.0
C913 C 0.81743 0.5254 0.44051 0.0
C914 C 0.93651 0.52046 0.56627 0.0
C915 C 0.94549 0.53773 0.64008 0.0
C916 C 0.909 0.52238 0.52857 0.0
C917 C 0.88924 0.54213 0.56136 0.0
C918 C 0.8983 0.55937 0.63555 0.0
C919 C 0.92562 0.55697 0.67472 0.0
loop_
_geom_bond_atom_site_label_1
_geom_bond_atom_site_label_2
_geom_bond_distance
_geom_bond_site_symmetry_2
_ccdc_geom_bond_type
C0 N1 1.317 . S
C0 N2 1.348 . S
C0 C3 1.485 . S
N1 C0 1.317 . S
N1 N5 1.370 . S
N2 C0 1.348 . S
N2 C4 1.346 . S
C3 C0 1.485 . S
C3 H7 0.960 . S
C3 H8 0.961 . S
C3 H9 0.960 . S
C4 N2 1.346 . S
C4 N5 1.307 . S
C4 C6 1.486 . S
N5 N1 1.370 . S
N5 C4 1.307 . S
C6 C4 1.486 . S
C6 H10 0.960 . S
C6 H11 0.960 . S
C6 H12 0.959 . S
H7 C3 0.960 . S
H8 C3 0.961 . S
H9 C3 0.960 . S
H10 C6 0.960 . S
H11 C6 0.960 . S
H12 C6 0.959 . S
C13 N14 1.317 . S
C13 N15 1.348 . S
C13 C16 1.485 . S
N14 C13 1.317 . S
N14 N18 1.370 . S
N15 C13 1.348 . S
N15 C17 1.346 . S
C16 C13 1.485 . S
C16 H20 0.960 . S
C16 H21 0.961 . S
C16 H22 0.960 . S
C17 N15 1.346 . S
C17 N18 1.307 . S
C17 C19 1.486 . S
N18 N14 1.370 . S
N18 C17 1.307 . S
C19 C17 1.486 . S
C19 H23 0.960 . S
C19 H24 0.960 . S
C19 H25 0.959 . S
H20 C16 0.960 . S
H21 C16 0.961 . S
H22 C16 0.960 . S
H23 C19 0.960 . S
H24 C19 0.960 . S
H25 C19 0.959 . S
C26 N27 1.317 . S
C26 N28 1.348 . S
C26 C29 1.485 . S
N27 C26 1.317 . S
N27 N31 1.370 . S
N28 C26 1.348 . S
N28 C30 1.346 . S
C29 C26 1.485 . S
C29 H33 0.960 . S
C29 H34 0.961 . S
C29 H35 0.960 . S
C30 N28 1.346 . S
C30 N31 1.307 . S
C30 C32 1.486 . S
N31 N27 1.370 . S
N31 C30 1.307 . S
C32 C30 1.486 . S
C32 H36 0.960 . S
C32 H37 0.992 . S
C32 H38 0.959 . S
H33 C29 0.960 . S
H34 C29 0.961 . S
H35 C29 0.960 . S
H36 C32 0.960 . S
H37 C32 0.992 . S
H38 C32 0.959 . S
C39 N40 1.317 . S
C39 N41 1.348 . S
C39 C42 1.485 . S
N40 C39 1.317 . S
N40 N44 1.370 . S
N41 C39 1.348 . S
N41 C43 1.346 . S
C42 C39 1.485 . S
C42 H46 0.960 . S
C42 H47 0.961 . S
C42 H48 0.960 . S
C43 N41 1.346 . S
C43 N44 1.307 . S
C43 C45 1.486 . S
N44 N40 1.370 . S
N44 C43 1.307 . S
C45 C43 1.486 . S
C45 H49 0.960 . S
C45 H50 0.960 . S
C45 H51 0.959 . S
H46 C42 0.960 . S
H47 C42 0.961 . S
H48 C42 0.960 . S
H49 C45 0.960 . S
H50 C45 0.960 . S
H51 C45 0.959 . S
C52 N53 1.317 . S
C52 N54 1.348 1_556 S
C52 C55 1.485 . S
N53 C52 1.317 . S
N53 N57 1.370 1_556 S
N54 C52 1.348 1_554 S
N54 C56 1.346 . S
C55 C52 1.485 . S
C55 H59 0.960 . S
C55 H60 0.961 . S
C55 H61 0.960 . S
C56 N54 1.346 . S
C56 N57 1.307 . S
C56 C58 1.486 . S
N57 N53 1.370 1_554 S
N57 C56 1.307 . S
C58 C56 1.486 . S
C58 H62 0.960 . S
C58 H63 0.960 . S
C58 H64 0.959 . S
H59 C55 0.960 . S
H60 C55 0.961 . S
H61 C55 0.960 . S
H62 C58 0.960 . S
H63 C58 0.960 . S
H64 C58 0.959 . S
C65 N66 1.317 . S
C65 N67 1.348 1_556 S
C65 C68 1.485 . S
N66 C65 1.317 . S
N66 N70 1.368 1_556 S
N67 C65 1.348 1_554 S
N67 C69 1.346 . S
C68 C65 1.485 . S
C68 H72 0.960 . S
C68 H73 0.961 . S
C68 H74 0.960 . S
C69 N67 1.346 . S
C69 N70 1.307 . S
C69 C71 1.486 . S
N70 N66 1.368 1_554 S
N70 C69 1.307 . S
C71 C69 1.486 . S
C71 H75 0.960 . S
C71 H76 0.960 . S
C71 H77 0.959 . S
H72 C68 0.960 . S
H73 C68 0.961 . S
H74 C68 0.960 . S
H75 C71 0.960 . S
H76 C71 0.960 . S
H77 C71 0.959 . S
C78 N79 1.318 . S
C78 N80 1.348 1_556 S
C78 C81 1.485 . S
N79 C78 1.318 . S
N79 N83 1.358 1_556 S
N80 C78 1.348 1_554 S
N80 C82 1.346 . S
C81 C78 1.485 . S
C81 H85 0.960 . S
C81 H86 0.961 . S
C81 H87 0.960 . S
C82 N80 1.346 . S
C82 N83 1.307 . S
C82 C84 1.486 . S
N83 N79 1.358 1_554 S
N83 C82 1.307 . S
C84 C82 1.486 . S
C84 H88 0.960 . S
C84 H89 0.960 . S
C84 H90 0.959 . S
H85 C81 0.960 . S
H86 C81 0.961 . S
H87 C81 0.960 . S
H88 C84 0.960 . S
H89 C84 0.960 . S
H90 C84 0.959 . S
C91 N92 1.317 . S
C91 N93 1.348 1_556 S
C91 C94 1.485 . S
N92 C91 1.317 . S
N92 N96 1.370 1_556 S
N93 C91 1.348 1_554 S
N93 C95 1.346 . S
C94 C91 1.485 . S
C94 H98 0.960 . S
C94 H99 0.961 . S
C94 H100 0.960 . S
C95 N93 1.346 . S
C95 N96 1.307 . S
C95 C97 1.486 . S
N96 N92 1.370 1_554 S
N96 C95 1.307 . S
C97 C95 1.486 . S
C97 H101 0.960 . S
C97 H102 0.960 . S
C97 H103 0.959 . S
H98 C94 0.960 . S
H99 C94 0.961 . S
H100 C94 0.960 . S
H101 C97 0.960 . S
H102 C97 0.960 . S
H103 C97 0.959 . S
Tb104 N133 2.617 . S
Tb104 N139 2.572 . S
Tb104 O148 2.466 . S
Tb104 O149 2.387 1_545 S
Tb104 O151 2.428 . S
Tb104 O152 2.308 1_655 S
Tb104 O156 2.349 1_655 S
Tb104 O159 2.393 . S
Tb104 C168 2.802 . S
C105 N106 1.379 . S
C105 C108 1.416 . S
C105 C112 1.424 . S
N106 C105 1.379 . S
N106 C109 1.334 . S
N106 Tb115 2.617 1_545 S
C107 C109 1.390 . S
C107 C110 1.339 . S
C107 H127 0.930 . S
C108 C105 1.416 . S
C108 C110 1.416 . S
C108 C114 1.448 1_556 S
C109 N106 1.334 . S
C109 C107 1.390 . S
C109 H120 0.930 1_545 S
C110 C107 1.339 . S
C110 C108 1.416 . S
C110 H131 0.930 . S
C111 C112 1.413 1_554 S
C111 C113 1.427 . S
C111 C117 1.416 . S
C112 C105 1.424 . S
C112 C111 1.413 1_556 S
C112 N116 1.361 . S
C113 C111 1.427 . S
C113 C114 1.328 . S
C113 H128 0.929 . S
C114 C108 1.448 1_554 S
C114 C113 1.328 . S
C114 H129 0.930 . S
Tb115 N106 2.617 1_565 S
Tb115 N116 2.572 1_565 S
Tb115 O150 2.349 . S
Tb115 O153 2.393 . S
Tb115 O154 2.465 . S
Tb115 O155 2.387 1_565 S
Tb115 O157 2.428 . S
Tb115 O158 2.308 1_465 S
Tb115 C179 2.802 . S
N116 C112 1.361 . S
N116 Tb115 2.572 1_545 S
N116 C118 1.340 1_556 S
C117 C111 1.416 . S
C117 C119 1.332 . S
C117 H125 0.931 . S
C118 N116 1.340 1_554 S
C118 C119 1.407 . S
C118 H124 0.930 1_454 S
C119 C117 1.332 . S
C119 C118 1.407 . S
C119 H121 0.931 1_455 S
H120 C109 0.930 1_565 S
H121 C119 0.931 1_655 S
H122 C137 0.930 . S
H123 C144 0.929 . S
H124 C118 0.930 1_656 S
H125 C117 0.931 . S
H126 C140 0.930 . S
H127 C107 0.930 . S
H128 C113 0.929 . S
H129 C114 0.930 . S
H130 C135 0.930 . S
H131 C110 0.930 . S
H132 C143 0.931 . S
N133 Tb104 2.617 . S
N133 C134 1.379 . S
N133 C137 1.334 . S
C134 N133 1.379 . S
C134 C136 1.416 1_545 S
C134 C142 1.423 1_545 S
C135 H130 0.930 . S
C135 C137 1.390 . S
C135 C138 1.339 1_545 S
C136 C134 1.416 1_565 S
C136 C138 1.416 . S
C136 C169 1.448 . S
C137 H122 0.930 . S
C137 N133 1.334 . S
C137 C135 1.390 . S
C138 C135 1.339 1_565 S
C138 C136 1.416 . S
C138 H145 0.930 . S
N139 Tb104 2.572 . S
N139 C140 1.340 1_655 S
N139 C142 1.360 1_545 S
C140 H126 0.930 . S
C140 N139 1.340 1_455 S
C140 C144 1.407 1_545 S
C141 C142 1.414 . S
C141 C143 1.416 . S
C141 C170 1.427 . S
C142 C134 1.423 1_565 S
C142 N139 1.360 1_565 S
C142 C141 1.414 . S
C143 H132 0.931 . S
C143 C141 1.416 . S
C143 C144 1.332 1_655 S
C144 H123 0.929 . S
C144 C140 1.407 1_565 S
C144 C143 1.332 1_455 S
H145 C138 0.930 . S
H146 C169 0.930 . S
H147 C170 0.929 . S
O148 Tb104 2.466 . S
O148 C168 1.267 . S
O149 Tb104 2.387 1_565 S
O149 C160 1.264 . S
O150 Tb115 2.349 . S
O150 C160 1.243 1_455 S
O151 Tb104 2.428 . S
O151 C168 1.256 . S
O152 Tb104 2.308 1_455 S
O152 C167 1.266 . S
O153 Tb115 2.393 . S
O153 C167 1.248 1_565 S
O154 Tb115 2.465 . S
O154 C179 1.264 . S
O155 Tb115 2.387 1_545 S
O155 C171 1.264 . S
O156 Tb104 2.349 1_455 S
O156 C171 1.243 . S
O157 Tb115 2.428 . S
O157 C179 1.256 . S
O158 Tb115 2.308 1_645 S
O158 C178 1.266 . S
O159 Tb104 2.393 . S
O159 C178 1.248 . S
C160 O149 1.264 . S
C160 O150 1.243 1_655 S
C161 C164 1.399 . S
C161 C166 1.383 . S
C161 C168 1.496 . S
C162 C163 1.399 . S
C162 C166 1.389 . S
C163 C162 1.399 . S
C163 C165 1.380 . S
C163 H180 0.929 . S
C164 C161 1.399 . S
C164 C165 1.392 . S
C164 H181 0.929 . S
C165 C163 1.380 . S
C165 C164 1.392 . S
C165 H182 0.929 . S
C166 C161 1.383 . S
C166 C162 1.389 . S
C166 H183 0.931 1_655 S
C167 O152 1.266 . S
C167 O153 1.248 1_545 S
C168 Tb104 2.802 . S
C168 O148 1.267 . S
C168 O151 1.256 . S
C168 C161 1.496 . S
C169 C136 1.448 . S
C169 H146 0.930 . S
C169 C170 1.328 . S
C170 C141 1.427 . S
C170 H147 0.929 . S
C170 C169 1.328 . S
C171 O155 1.264 . S
C171 O156 1.243 . S
C172 C175 1.399 . S
C172 C176 1.383 . S
C172 C179 1.496 . S
C173 C174 1.399 . S
C173 C176 1.389 1_554 S
C174 C173 1.399 . S
C174 C177 1.380 1_554 S
C174 H184 0.929 . S
C175 C172 1.399 . S
C175 C177 1.392 . S
C175 H185 0.929 . S
C176 C172 1.383 . S
C176 C173 1.389 1_556 S
C176 H186 0.931 . S
C177 C174 1.380 1_556 S
C177 C175 1.392 . S
C177 H187 0.929 . S
C178 O158 1.266 . S
C178 O159 1.248 . S
C179 Tb115 2.802 . S
C179 O154 1.264 . S
C179 O157 1.256 . S
C179 C172 1.496 . S
H180 C163 0.929 . S
H181 C164 0.929 . S
H182 C165 0.929 . S
H183 C166 0.931 1_455 S
H184 C174 0.929 . S
H185 C175 0.929 . S
H186 C176 0.931 . S
H187 C177 0.929 . S
Tb188 N217 2.617 . S
Tb188 N223 2.572 . S
Tb188 O232 2.465 . S
Tb188 O233 2.387 . S
Tb188 O235 2.428 . S
Tb188 O236 2.308 . S
Tb188 O240 2.349 1_545 S
Tb188 O243 2.393 . S
Tb188 C252 2.802 . S
C189 N190 1.379 . S
C189 C192 1.416 . S
C189 C196 1.424 . S
N190 C189 1.379 . S
N190 C193 1.334 . S
N190 Tb199 2.617 . S
C191 C193 1.390 . S
C191 C194 1.339 . S
C191 H211 0.930 . S
C192 C189 1.416 . S
C192 C194 1.416 . S
C192 C198 1.448 . S
C193 N190 1.334 . S
C193 C191 1.390 . S
C193 H204 0.930 . S
C194 C191 1.339 . S
C194 C192 1.416 . S
C194 H215 0.930 . S
C195 C196 1.413 . S
C195 C197 1.427 . S
C195 C201 1.416 . S
C196 C189 1.424 . S
C196 C195 1.413 . S
C196 N200 1.361 . S
C197 C195 1.427 . S
C197 C198 1.328 . S
C197 H212 0.929 . S
C198 C192 1.448 . S
C198 C197 1.328 . S
C198 H213 0.930 . S
Tb199 N190 2.617 . S
Tb199 N200 2.572 . S
Tb199 O234 2.349 1_565 S
Tb199 O237 2.393 . S
Tb199 O238 2.465 . S
Tb199 O239 2.387 . S
Tb199 O241 2.428 . S
Tb199 O242 2.308 1_565 S
Tb199 C263 2.802 . S
N200 C196 1.361 . S
N200 Tb199 2.572 . S
N200 C202 1.340 . S
C201 C195 1.416 . S
C201 C203 1.332 . S
C201 H209 0.931 . S
C202 N200 1.340 . S
C202 C203 1.407 . S
C202 H208 0.930 . S
C203 C201 1.332 . S
C203 C202 1.407 . S
C203 H205 0.929 . S
H204 C193 0.930 . S
H205 C203 0.929 . S
H206 C221 0.930 . S
H207 C228 0.929 . S
H208 C202 0.930 . S
H209 C201 0.931 . S
H210 C224 0.930 . S
H211 C191 0.930 . S
H212 C197 0.929 . S
H213 C198 0.930 . S
H214 C219 0.930 . S
H215 C194 0.930 . S
H216 C227 0.931 . S
N217 Tb188 2.617 . S
N217 C218 1.379 . S
N217 C221 1.334 . S
C218 N217 1.379 . S
C218 C220 1.416 . S
C218 C226 1.424 . S
C219 H214 0.930 . S
C219 C221 1.390 . S
C219 C222 1.339 . S
C220 C218 1.416 . S
C220 C222 1.416 . S
C220 C253 1.448 . S
C221 H206 0.930 . S
C221 N217 1.334 . S
C221 C219 1.390 . S
C222 C219 1.339 . S
C222 C220 1.416 . S
C222 H229 0.930 . S
N223 Tb188 2.572 . S
N223 C224 1.340 . S
N223 C226 1.361 . S
C224 H210 0.930 . S
C224 N223 1.340 . S
C224 C228 1.407 . S
C225 C226 1.413 . S
C225 C227 1.416 . S
C225 C254 1.427 . S
C226 C218 1.424 . S
C226 N223 1.361 . S
C226 C225 1.413 . S
C227 H216 0.931 . S
C227 C225 1.416 . S
C227 C228 1.332 . S
C228 H207 0.929 . S
C228 C224 1.407 . S
C228 C227 1.332 . S
H229 C222 0.930 . S
H230 C253 0.930 . S
H231 C254 0.929 . S
O232 Tb188 2.465 . S
O232 C252 1.264 . S
O233 Tb188 2.387 . S
O233 C244 1.264 . S
O234 Tb199 2.349 1_545 S
O234 C244 1.243 . S
O235 Tb188 2.428 . S
O235 C252 1.256 . S
O236 Tb188 2.308 . S
O236 C251 1.266 . S
O237 Tb199 2.393 . S
O237 C251 1.248 1_565 S
O238 Tb199 2.465 . S
O238 C263 1.264 . S
O239 Tb199 2.387 . S
O239 C255 1.264 . S
O240 Tb188 2.349 1_565 S
O240 C255 1.243 . S
O241 Tb199 2.428 . S
O241 C263 1.256 . S
O242 Tb199 2.308 1_545 S
O242 C262 1.266 . S
O243 Tb188 2.393 . S
O243 C262 1.248 . S
C244 O233 1.264 . S
C244 O234 1.243 . S
C245 C248 1.399 . S
C245 C250 1.383 . S
C245 C252 1.496 1_554 S
C246 C247 1.399 . S
C246 C250 1.389 . S
C247 C246 1.399 . S
C247 C249 1.380 . S
C247 H264 0.929 . S
C248 C245 1.399 . S
C248 C249 1.392 . S
C248 H265 0.929 . S
C249 C247 1.380 . S
C249 C248 1.392 . S
C249 H266 0.929 . S
C250 C245 1.383 . S
C250 C246 1.389 . S
C250 H267 0.931 1_554 S
C251 O236 1.266 . S
C251 O237 1.248 1_545 S
C252 Tb188 2.802 . S
C252 O232 1.264 . S
C252 O235 1.256 . S
C252 C245 1.496 1_556 S
C253 C220 1.448 . S
C253 H230 0.930 . S
C253 C254 1.328 . S
C254 C225 1.427 . S
C254 H231 0.929 . S
C254 C253 1.328 . S
C255 O239 1.264 . S
C255 O240 1.243 . S
C256 C259 1.399 . S
C256 C260 1.383 1_565 S
C256 C263 1.496 . S
C257 C258 1.399 1_545 S
C257 C260 1.389 . S
C258 C257 1.399 1_565 S
C258 C261 1.380 . S
C258 H268 0.929 . S
C259 C256 1.399 . S
C259 C261 1.392 . S
C259 H269 0.929 . S
C260 C256 1.383 1_545 S
C260 C257 1.389 . S
C260 H270 0.931 . S
C261 C258 1.380 . S
C261 C259 1.392 . S
C261 H271 0.929 . S
C262 O242 1.266 . S
C262 O243 1.248 . S
C263 Tb199 2.802 . S
C263 O238 1.264 . S
C263 O241 1.256 . S
C263 C256 1.496 . S
H264 C247 0.929 . S
H265 C248 0.929 . S
H266 C249 0.929 . S
H267 C250 0.931 1_556 S
H268 C258 0.929 . S
H269 C259 0.929 . S
H270 C260 0.931 . S
H271 C261 0.929 . S
Tb272 N301 2.617 . S
Tb272 N307 2.572 . S
Tb272 O316 2.465 . S
Tb272 O317 2.387 . S
Tb272 O319 2.428 . S
Tb272 O320 2.308 . S
Tb272 O324 2.349 . S
Tb272 O327 2.393 . S
Tb272 C336 2.802 . S
C273 N274 1.379 . S
C273 C276 1.416 . S
C273 C280 1.424 . S
N274 C273 1.379 . S
N274 C277 1.334 . S
N274 Tb283 2.617 . S
C275 C277 1.390 . S
C275 C278 1.339 . S
C275 H295 0.930 . S
C276 C273 1.416 . S
C276 C278 1.416 . S
C276 C282 1.448 1_556 S
C277 N274 1.334 . S
C277 C275 1.390 . S
C277 H288 0.930 . S
C278 C275 1.339 . S
C278 C276 1.416 . S
C278 H299 0.930 . S
C279 C280 1.413 1_554 S
C279 C281 1.427 . S
C279 C285 1.416 . S
C280 C273 1.424 . S
C280 C279 1.413 1_556 S
C280 N284 1.361 . S
C281 C279 1.427 . S
C281 C282 1.328 . S
C281 H296 0.929 . S
C282 C276 1.448 1_554 S
C282 C281 1.328 . S
C282 H297 0.930 . S
Tb283 N274 2.617 . S
Tb283 N284 2.572 . S
Tb283 O318 2.349 . S
Tb283 O321 2.393 . S
Tb283 O322 2.465 . S
Tb283 O323 2.387 . S
Tb283 O325 2.428 . S
Tb283 O326 2.308 . S
Tb283 C347 2.802 . S
N284 C280 1.361 . S
N284 Tb283 2.572 . S
N284 C286 1.340 1_556 S
C285 C279 1.416 . S
C285 C287 1.332 . S
C285 H293 0.931 . S
C286 N284 1.340 1_554 S
C286 C287 1.407 . S
C286 H292 0.930 1_554 S
C287 C285 1.332 . S
C287 C286 1.407 . S
C287 H289 0.929 . S
H288 C277 0.930 . S
H289 C287 0.929 . S
H290 C305 0.930 . S
H291 C312 0.929 . S
H292 C286 0.930 1_556 S
H293 C285 0.931 . S
H294 C308 0.930 . S
H295 C275 0.930 . S
H296 C281 0.929 . S
H297 C282 0.930 . S
H298 C303 0.930 . S
H299 C278 0.930 . S
H300 C311 0.931 . S
N301 Tb272 2.617 . S
N301 C302 1.379 . S
N301 C305 1.334 . S
C302 N301 1.379 . S
C302 C304 1.416 . S
C302 C310 1.424 . S
C303 H298 0.930 . S
C303 C305 1.390 . S
C303 C306 1.339 . S
C304 C302 1.416 . S
C304 C306 1.416 . S
C304 C337 1.448 . S
C305 H290 0.930 . S
C305 N301 1.334 . S
C305 C303 1.390 . S
C306 C303 1.339 . S
C306 C304 1.416 . S
C306 H313 0.930 . S
N307 Tb272 2.572 . S
N307 C308 1.340 . S
N307 C310 1.361 . S
C308 H294 0.930 . S
C308 N307 1.340 . S
C308 C312 1.407 . S
C309 C310 1.413 . S
C309 C311 1.416 . S
C309 C338 1.427 . S
C310 C302 1.424 . S
C310 N307 1.361 . S
C310 C309 1.413 . S
C311 H300 0.931 . S
C311 C309 1.416 . S
C311 C312 1.332 . S
C312 H291 0.929 . S
C312 C308 1.407 . S
C312 C311 1.332 . S
H313 C306 0.930 . S
H314 C337 0.930 . S
H315 C338 0.929 . S
O316 Tb272 2.465 . S
O316 C336 1.264 . S
O317 Tb272 2.387 . S
O317 C328 1.264 . S
O318 Tb283 2.349 . S
O318 C328 1.243 . S
O319 Tb272 2.428 . S
O319 C336 1.256 . S
O320 Tb272 2.308 . S
O320 C335 1.266 . S
O321 Tb283 2.393 . S
O321 C335 1.248 . S
O322 Tb283 2.465 . S
O322 C347 1.264 . S
O323 Tb283 2.387 . S
O323 C339 1.264 . S
O324 Tb272 2.349 . S
O324 C339 1.243 . S
O325 Tb283 2.428 . S
O325 C347 1.256 . S
O326 Tb283 2.308 . S
O326 C346 1.266 . S
O327 Tb272 2.393 . S
O327 C346 1.248 . S
C328 O317 1.264 . S
C328 O318 1.243 . S
C329 C332 1.399 . S
C329 C334 1.383 . S
C329 C336 1.496 . S
C330 C331 1.399 . S
C330 C334 1.389 . S
C331 C330 1.399 . S
C331 C333 1.380 . S
C331 H348 0.929 . S
C332 C329 1.399 . S
C332 C333 1.392 . S
C332 H349 0.929 . S
C333 C331 1.380 . S
C333 C332 1.392 . S
C333 H350 0.929 . S
C334 C329 1.383 . S
C334 C330 1.389 . S
C334 H351 0.931 . S
C335 O320 1.266 . S
C335 O321 1.248 . S
C336 Tb272 2.802 . S
C336 O316 1.264 . S
C336 O319 1.256 . S
C336 C329 1.496 . S
C337 C304 1.448 . S
C337 H314 0.930 . S
C337 C338 1.328 . S
C338 C309 1.427 . S
C338 H315 0.929 . S
C338 C337 1.328 . S
C339 O323 1.264 . S
C339 O324 1.243 . S
C340 C343 1.399 . S
C340 C344 1.383 . S
C340 C347 1.496 . S
C341 C342 1.399 . S
C341 C344 1.389 1_554 S
C342 C341 1.399 . S
C342 C345 1.380 1_554 S
C342 H352 0.929 . S
C343 C340 1.399 . S
C343 C345 1.392 . S
C343 H353 0.929 . S
C344 C340 1.383 . S
C344 C341 1.389 1_556 S
C344 H354 0.931 . S
C345 C342 1.380 1_556 S
C345 C343 1.392 . S
C345 H355 0.929 . S
C346 O326 1.266 . S
C346 O327 1.248 . S
C347 Tb283 2.802 . S
C347 O322 1.264 . S
C347 O325 1.256 . S
C347 C340 1.496 . S
H348 C331 0.929 . S
H349 C332 0.929 . S
H350 C333 0.929 . S
H351 C334 0.931 . S
H352 C342 0.929 . S
H353 C343 0.929 . S
H354 C344 0.931 . S
H355 C345 0.929 . S
Tb356 N385 2.617 . S
Tb356 N391 2.572 . S
Tb356 O400 2.465 . S
Tb356 O401 2.387 1_455 S
Tb356 O403 2.428 . S
Tb356 O404 2.308 . S
Tb356 O408 2.349 . S
Tb356 O411 2.393 . S
Tb356 C420 2.802 . S
C357 N358 1.379 . S
C357 C360 1.416 . S
C357 C364 1.424 . S
N358 C357 1.379 . S
N358 C361 1.334 1_455 S
N358 Tb367 2.617 1_455 S
C359 C361 1.389 1_455 S
C359 C362 1.339 . S
C359 H379 0.930 . S
C360 C357 1.416 . S
C360 C362 1.416 . S
C360 C366 1.448 1_556 S
C361 N358 1.334 1_655 S
C361 C359 1.389 1_655 S
C361 H372 0.931 . S
C362 C359 1.339 . S
C362 C360 1.416 . S
C362 H383 0.930 . S
C363 C364 1.413 1_554 S
C363 C365 1.427 . S
C363 C369 1.416 . S
C364 C357 1.424 . S
C364 C363 1.413 1_556 S
C364 N368 1.361 . S
C365 C363 1.427 . S
C365 C366 1.328 . S
C365 H380 0.929 . S
C366 C360 1.448 1_554 S
C366 C365 1.328 . S
C366 H381 0.930 . S
Tb367 N358 2.617 1_655 S
Tb367 N368 2.572 1_655 S
Tb367 O402 2.349 . S
Tb367 O405 2.393 . S
Tb367 O406 2.465 . S
Tb367 O407 2.387 1_655 S
Tb367 O409 2.428 . S
Tb367 O410 2.308 1_655 S
Tb367 C431 2.802 . S
N368 C364 1.361 . S
N368 Tb367 2.572 1_455 S
N368 C370 1.340 1_556 S
C369 C363 1.416 . S
C369 C371 1.332 . S
C369 H377 0.931 . S
C370 N368 1.340 1_554 S
C370 C371 1.407 . S
C370 H376 0.930 1_554 S
C371 C369 1.332 . S
C371 C370 1.407 . S
C371 H373 0.929 . S
H372 C361 0.931 . S
H373 C371 0.929 . S
H374 C389 0.930 . S
H375 C396 0.929 . S
H376 C370 0.930 1_556 S
H377 C369 0.931 . S
H378 C392 0.930 . S
H379 C359 0.930 . S
H380 C365 0.929 . S
H381 C366 0.930 . S
H382 C387 0.930 . S
H383 C362 0.930 . S
H384 C395 0.931 . S
N385 Tb356 2.617 . S
N385 C386 1.379 . S
N385 C389 1.334 . S
C386 N385 1.379 . S
C386 C388 1.416 1_455 S
C386 C394 1.424 1_455 S
C387 H382 0.930 . S
C387 C389 1.390 . S
C387 C390 1.339 1_455 S
C388 C386 1.416 1_655 S
C388 C390 1.416 . S
C388 C421 1.448 . S
C389 H374 0.930 . S
C389 N385 1.334 . S
C389 C387 1.390 . S
C390 C387 1.339 1_655 S
C390 C388 1.416 . S
C390 H397 0.930 . S
N391 Tb356 2.572 . S
N391 C392 1.340 . S
N391 C394 1.361 1_455 S
C392 H378 0.930 . S
C392 N391 1.340 . S
C392 C396 1.407 1_455 S
C393 C394 1.413 . S
C393 C395 1.416 . S
C393 C422 1.427 . S
C394 C386 1.424 1_655 S
C394 N391 1.361 1_655 S
C394 C393 1.413 . S
C395 H384 0.931 . S
C395 C393 1.416 . S
C395 C396 1.332 . S
C396 H375 0.929 . S
C396 C392 1.407 1_655 S
C396 C395 1.332 . S
H397 C390 0.930 . S
H398 C421 0.930 . S
H399 C422 0.929 . S
O400 Tb356 2.465 . S
O400 C420 1.264 . S
O401 Tb356 2.387 1_655 S
O401 C412 1.264 . S
O402 Tb367 2.349 . S
O402 C412 1.243 . S
O403 Tb356 2.428 . S
O403 C420 1.256 . S
O404 Tb356 2.308 . S
O404 C419 1.266 . S
O405 Tb367 2.393 . S
O405 C419 1.248 1_655 S
O406 Tb367 2.465 . S
O406 C431 1.264 . S
O407 Tb367 2.387 1_455 S
O407 C423 1.264 . S
O408 Tb356 2.349 . S
O408 C423 1.243 . S
O409 Tb367 2.428 . S
O409 C431 1.256 . S
O410 Tb367 2.308 1_455 S
O410 C430 1.266 . S
O411 Tb356 2.393 . S
O411 C430 1.248 . S
C412 O401 1.264 . S
C412 O402 1.243 . S
C413 C416 1.399 . S
C413 C418 1.383 . S
C413 C420 1.496 . S
C414 C415 1.399 . S
C414 C418 1.389 . S
C415 C414 1.399 . S
C415 C417 1.380 . S
C415 H432 0.929 . S
C416 C413 1.399 . S
C416 C417 1.392 . S
C416 H433 0.929 . S
C417 C415 1.380 . S
C417 C416 1.392 . S
C417 H434 0.929 . S
C418 C413 1.383 . S
C418 C414 1.389 . S
C418 H435 0.931 . S
C419 O404 1.266 . S
C419 O405 1.248 1_455 S
C420 Tb356 2.802 . S
C420 O400 1.264 . S
C420 O403 1.256 . S
C420 C413 1.496 . S
C421 C388 1.448 . S
C421 H398 0.930 . S
C421 C422 1.328 . S
C422 C393 1.427 . S
C422 H399 0.929 . S
C422 C421 1.328 . S
C423 O407 1.264 . S
C423 O408 1.243 . S
C424 C427 1.399 . S
C424 C428 1.383 . S
C424 C431 1.496 . S
C425 C426 1.399 . S
C425 C428 1.389 1_554 S
C426 C425 1.399 . S
C426 C429 1.380 1_554 S
C426 H436 0.929 . S
C427 C424 1.399 . S
C427 C429 1.392 . S
C427 H437 0.929 . S
C428 C424 1.383 . S
C428 C425 1.389 1_556 S
C428 H438 0.931 . S
C429 C426 1.380 1_556 S
C429 C427 1.392 . S
C429 H439 0.929 . S
C430 O410 1.266 . S
C430 O411 1.248 . S
C431 Tb367 2.802 . S
C431 O406 1.264 . S
C431 O409 1.256 . S
C431 C424 1.496 . S
H432 C415 0.929 . S
H433 C416 0.929 . S
H434 C417 0.929 . S
H435 C418 0.931 . S
H436 C426 0.929 . S
H437 C427 0.929 . S
H438 C428 0.931 . S
H439 C429 0.929 . S
H440 C448 0.950 . S
H441 C453 0.950 . S
H442 C450 0.950 . S
H443 C452 0.950 . S
H444 C454 0.950 1_565 S
H445 C456 0.950 1_565 S
H446 C458 0.950 . S
H447 C459 0.950 . S
C448 H440 0.950 . S
C448 C449 1.386 . S
C448 C450 1.391 . S
C449 C448 1.386 . S
C449 C453 1.393 . S
C450 H442 0.950 . S
C450 C448 1.391 . S
C450 C451 1.400 . S
C451 C450 1.400 . S
C451 C452 1.398 . S
C451 C457 1.491 . S
C452 H443 0.950 . S
C452 C451 1.398 . S
C452 C453 1.391 . S
C453 H441 0.950 . S
C453 C449 1.393 . S
C453 C452 1.391 . S
C454 H444 0.950 1_545 S
C454 C455 1.386 . S
C454 C456 1.391 . S
C455 C454 1.386 . S
C455 C459 1.393 . S
C456 H445 0.950 1_545 S
C456 C454 1.391 . S
C456 C457 1.400 . S
C457 C451 1.491 . S
C457 C456 1.400 . S
C457 C458 1.398 . S
C458 H446 0.950 . S
C458 C457 1.398 . S
C458 C459 1.391 . S
C459 H447 0.950 . S
C459 C455 1.393 . S
C459 C458 1.391 . S
H460 C468 0.950 . S
H461 C473 0.950 . S
H462 C470 0.950 . S
H463 C472 0.950 . S
H464 C474 0.950 . S
H465 C476 0.950 . S
H466 C478 0.950 . S
H467 C479 0.950 . S
C468 H460 0.950 . S
C468 C469 1.386 . S
C468 C470 1.391 . S
C469 C468 1.386 . S
C469 C473 1.393 . S
C470 H462 0.950 . S
C470 C468 1.391 . S
C470 C471 1.400 . S
C471 C470 1.400 . S
C471 C472 1.398 . S
C471 C477 1.491 . S
C472 H463 0.950 . S
C472 C471 1.398 . S
C472 C473 1.391 . S
C473 H461 0.950 . S
C473 C469 1.393 . S
C473 C472 1.391 . S
C474 H464 0.950 . S
C474 C475 1.386 . S
C474 C476 1.391 . S
C475 C474 1.386 . S
C475 C479 1.393 . S
C476 H465 0.950 . S
C476 C474 1.391 . S
C476 C477 1.400 . S
C477 C471 1.491 . S
C477 C476 1.400 . S
C477 C478 1.398 . S
C478 H466 0.950 . S
C478 C477 1.398 . S
C478 C479 1.391 . S
C479 H467 0.950 . S
C479 C475 1.393 . S
C479 C478 1.391 . S
H480 C488 0.950 . S
H481 C493 0.950 . S
H482 C490 0.950 . S
H483 C492 0.950 . S
H484 C494 0.950 . S
H485 C496 0.950 . S
H486 C498 0.950 . S
H487 C499 0.950 . S
C488 H480 0.950 . S
C488 C489 1.386 . S
C488 C490 1.391 . S
C489 C488 1.386 . S
C489 C493 1.393 . S
C490 H482 0.950 . S
C490 C488 1.391 . S
C490 C491 1.400 . S
C491 C490 1.400 . S
C491 C492 1.398 . S
C491 C497 1.491 . S
C492 H483 0.950 . S
C492 C491 1.398 . S
C492 C493 1.391 . S
C493 H481 0.950 . S
C493 C489 1.393 . S
C493 C492 1.391 . S
C494 H484 0.950 . S
C494 C495 1.386 . S
C494 C496 1.391 . S
C495 C494 1.386 . S
C495 C499 1.393 . S
C496 H485 0.950 . S
C496 C494 1.391 . S
C496 C497 1.400 . S
C497 C491 1.491 . S
C497 C496 1.400 . S
C497 C498 1.398 . S
C498 H486 0.950 . S
C498 C497 1.398 . S
C498 C499 1.391 . S
C499 H487 0.950 . S
C499 C495 1.393 . S
C499 C498 1.391 . S
H500 C508 0.950 . S
H501 C513 0.950 . S
H502 C510 0.950 . S
H503 C512 0.950 . S
H504 C514 0.950 . S
H505 C516 0.950 . S
H506 C518 0.950 . S
H507 C519 0.950 . S
C508 H500 0.950 . S
C508 C509 1.386 . S
C508 C510 1.391 . S
C509 C508 1.386 . S
C509 C513 1.393 . S
C510 H502 0.950 . S
C510 C508 1.391 . S
C510 C511 1.400 . S
C511 C510 1.400 . S
C511 C512 1.398 . S
C511 C517 1.491 . S
C512 H503 0.950 . S
C512 C511 1.398 . S
C512 C513 1.391 . S
C513 H501 0.950 . S
C513 C509 1.393 . S
C513 C512 1.391 . S
C514 H504 0.950 . S
C514 C515 1.386 . S
C514 C516 1.391 . S
C515 C514 1.386 . S
C515 C519 1.393 . S
C516 H505 0.950 . S
C516 C514 1.391 . S
C516 C517 1.400 . S
C517 C511 1.491 . S
C517 C516 1.400 . S
C517 C518 1.398 . S
C518 H506 0.950 . S
C518 C517 1.398 . S
C518 C519 1.391 . S
C519 H507 0.950 . S
C519 C515 1.393 . S
C519 C518 1.391 . S
H520 C528 0.950 . S
H521 C533 0.950 . S
H522 C530 0.950 . S
H523 C532 0.950 . S
H524 C534 0.950 . S
H525 C536 0.950 . S
H526 C538 0.950 1_554 S
H527 C539 0.950 . S
C528 H520 0.950 . S
C528 C529 1.386 1_545 S
C528 C530 1.391 . S
C529 C528 1.386 1_565 S
C529 C533 1.393 . S
C530 H522 0.950 . S
C530 C528 1.391 . S
C530 C531 1.400 1_545 S
C531 C530 1.400 1_565 S
C531 C532 1.398 . S
C531 C537 1.491 . S
C532 H523 0.950 . S
C532 C531 1.398 . S
C532 C533 1.391 . S
C533 H521 0.950 . S
C533 C529 1.393 . S
C533 C532 1.391 . S
C534 H524 0.950 . S
C534 C535 1.386 1_565 S
C534 C536 1.391 1_556 S
C535 C534 1.386 1_545 S
C535 C539 1.393 . S
C536 H525 0.950 . S
C536 C534 1.391 1_554 S
C536 C537 1.400 . S
C537 C531 1.491 . S
C537 C536 1.400 . S
C537 C538 1.398 1_564 S
C538 H526 0.950 1_556 S
C538 C537 1.398 1_546 S
C538 C539 1.391 . S
C539 H527 0.950 . S
C539 C535 1.393 . S
C539 C538 1.391 . S
H540 C548 0.950 . S
H541 C553 0.950 . S
H542 C550 0.950 . S
H543 C552 0.950 . S
H544 C554 0.950 . S
H545 C556 0.950 . S
H546 C558 0.950 . S
H547 C559 0.950 . S
C548 H540 0.950 . S
C548 C549 1.386 . S
C548 C550 1.391 . S
C549 C548 1.386 . S
C549 C553 1.393 . S
C550 H542 0.950 . S
C550 C548 1.391 . S
C550 C551 1.400 . S
C551 C550 1.400 . S
C551 C552 1.398 . S
C551 C557 1.491 . S
C552 H543 0.950 . S
C552 C551 1.398 . S
C552 C553 1.391 . S
C553 H541 0.950 . S
C553 C549 1.393 . S
C553 C552 1.391 . S
C554 H544 0.950 . S
C554 C555 1.386 . S
C554 C556 1.391 1_556 S
C555 C554 1.386 . S
C555 C559 1.393 . S
C556 H545 0.950 . S
C556 C554 1.391 1_554 S
C556 C557 1.400 . S
C557 C551 1.491 . S
C557 C556 1.400 . S
C557 C558 1.398 1_554 S
C558 H546 0.950 . S
C558 C557 1.398 1_556 S
C558 C559 1.391 . S
C559 H547 0.950 . S
C559 C555 1.393 . S
C559 C558 1.391 . S
H560 C568 0.950 . S
H561 C573 0.950 . S
H562 C570 0.950 . S
H563 C572 0.950 . S
H564 C574 0.950 . S
H565 C576 0.950 . S
H566 C578 0.950 . S
H567 C579 0.950 . S
C568 H560 0.950 . S
C568 C569 1.386 . S
C568 C570 1.391 . S
C569 C568 1.386 . S
C569 C573 1.393 . S
C570 H562 0.950 . S
C570 C568 1.391 . S
C570 C571 1.400 . S
C571 C570 1.400 . S
C571 C572 1.398 . S
C571 C577 1.491 . S
C572 H563 0.950 . S
C572 C571 1.398 . S
C572 C573 1.391 . S
C573 H561 0.950 . S
C573 C569 1.393 . S
C573 C572 1.391 . S
C574 H564 0.950 . S
C574 C575 1.386 . S
C574 C576 1.391 . S
C575 C574 1.386 . S
C575 C579 1.393 . S
C576 H565 0.950 . S
C576 C574 1.391 . S
C576 C577 1.400 1_556 S
C577 C571 1.491 . S
C577 C576 1.400 1_554 S
C577 C578 1.398 . S
C578 H566 0.950 . S
C578 C577 1.398 . S
C578 C579 1.391 1_554 S
C579 H567 0.950 . S
C579 C575 1.393 . S
C579 C578 1.391 1_556 S
H580 C588 0.950 . S
H581 C593 0.950 . S
H582 C590 0.950 . S
H583 C592 0.950 . S
H584 C594 0.950 . S
H585 C596 0.950 . S
H586 C598 0.950 . S
H587 C599 0.950 . S
C588 H580 0.950 . S
C588 C589 1.386 1_455 S
C588 C590 1.391 . S
C589 C588 1.386 1_655 S
C589 C593 1.393 . S
C590 H582 0.950 . S
C590 C588 1.391 . S
C590 C591 1.400 1_455 S
C591 C590 1.400 1_655 S
C591 C592 1.398 . S
C591 C597 1.491 . S
C592 H583 0.950 . S
C592 C591 1.398 . S
C592 C593 1.391 . S
C593 H581 0.950 . S
C593 C589 1.393 . S
C593 C592 1.391 . S
C594 H584 0.950 . S
C594 C595 1.385 . S
C594 C596 1.391 . S
C595 C594 1.385 . S
C595 C599 1.393 1_655 S
C596 H585 0.950 . S
C596 C594 1.391 . S
C596 C597 1.400 1_556 S
C597 C591 1.491 . S
C597 C596 1.400 1_554 S
C597 C598 1.398 1_655 S
C598 H586 0.950 . S
C598 C597 1.398 1_455 S
C598 C599 1.391 1_554 S
C599 H587 0.950 . S
C599 C595 1.393 1_455 S
C599 C598 1.391 1_556 S
H600 C608 0.950 . S
H601 C613 0.950 1_655 S
H602 C610 0.950 . S
H603 C612 0.950 1_655 S
H604 C614 0.950 . S
H605 C616 0.950 . S
H606 C618 0.950 . S
H607 C619 0.950 . S
C608 H600 0.950 . S
C608 C609 1.386 . S
C608 C610 1.391 . S
C609 C608 1.386 . S
C609 C613 1.393 . S
C610 H602 0.950 . S
C610 C608 1.391 . S
C610 C611 1.400 . S
C611 C610 1.400 . S
C611 C612 1.398 . S
C611 C617 1.491 . S
C612 H603 0.950 1_455 S
C612 C611 1.398 . S
C612 C613 1.391 . S
C613 H601 0.950 1_455 S
C613 C609 1.393 . S
C613 C612 1.391 . S
C614 H604 0.950 . S
C614 C615 1.386 1_655 S
C614 C616 1.391 . S
C615 C614 1.386 1_455 S
C615 C619 1.393 . S
C616 H605 0.950 . S
C616 C614 1.391 . S
C616 C617 1.400 1_655 S
C617 C611 1.491 . S
C617 C616 1.400 1_455 S
C617 C618 1.398 . S
C618 H606 0.950 . S
C618 C617 1.398 . S
C618 C619 1.391 . S
C619 H607 0.950 . S
C619 C615 1.393 . S
C619 C618 1.391 . S
H620 C628 0.950 . S
H621 C633 0.950 . S
H622 C630 0.950 . S
H623 C632 0.950 . S
H624 C634 0.950 . S
H625 C636 0.950 . S
H626 C638 0.950 1_565 S
H627 C639 0.950 . S
C628 H620 0.950 . S
C628 C629 1.386 . S
C628 C630 1.391 . S
C629 C628 1.386 . S
C629 C633 1.393 . S
C630 H622 0.950 . S
C630 C628 1.391 . S
C630 C631 1.400 . S
C631 C630 1.400 . S
C631 C632 1.398 . S
C631 C637 1.491 . S
C632 H623 0.950 . S
C632 C631 1.398 . S
C632 C633 1.391 . S
C633 H621 0.950 . S
C633 C629 1.393 . S
C633 C632 1.391 . S
C634 H624 0.950 . S
C634 C635 1.386 . S
C634 C636 1.391 . S
C635 C634 1.386 . S
C635 C639 1.393 1_545 S
C636 H625 0.950 . S
C636 C634 1.391 . S
C636 C637 1.400 . S
C637 C631 1.491 . S
C637 C636 1.400 . S
C637 C638 1.398 . S
C638 H626 0.950 1_545 S
C638 C637 1.398 . S
C638 C639 1.391 1_545 S
C639 H627 0.950 . S
C639 C635 1.393 1_565 S
C639 C638 1.391 1_565 S
H640 C648 0.950 . S
H641 C653 0.950 . S
H642 C650 0.950 . S
H643 C652 0.950 . S
H644 C654 0.950 . S
H645 C656 0.950 . S
H646 C658 0.950 . S
H647 C659 0.950 . S
C648 H640 0.950 . S
C648 C649 1.386 . S
C648 C650 1.391 . S
C649 C648 1.386 . S
C649 C653 1.393 . S
C650 H642 0.950 . S
C650 C648 1.391 . S
C650 C651 1.400 . S
C651 C650 1.400 . S
C651 C652 1.398 . S
C651 C657 1.491 . S
C652 H643 0.950 . S
C652 C651 1.398 . S
C652 C653 1.391 . S
C653 H641 0.950 . S
C653 C649 1.393 . S
C653 C652 1.391 . S
C654 H644 0.950 . S
C654 C655 1.386 . S
C654 C656 1.391 . S
C655 C654 1.386 . S
C655 C659 1.393 . S
C656 H645 0.950 . S
C656 C654 1.391 . S
C656 C657 1.400 . S
C657 C651 1.491 . S
C657 C656 1.400 . S
C657 C658 1.398 . S
C658 H646 0.950 . S
C658 C657 1.398 . S
C658 C659 1.391 . S
C659 H647 0.950 . S
C659 C655 1.393 . S
C659 C658 1.391 . S
H660 C668 0.950 . S
H661 C673 0.950 . S
H662 C670 0.950 . S
H663 C672 0.950 . S
H664 C674 0.950 . S
H665 C676 0.950 . S
H666 C678 0.950 . S
H667 C679 0.950 . S
C668 H660 0.950 . S
C668 C669 1.386 . S
C668 C670 1.391 . S
C669 C668 1.386 . S
C669 C673 1.393 . S
C670 H662 0.950 . S
C670 C668 1.391 . S
C670 C671 1.400 . S
C671 C670 1.400 . S
C671 C672 1.398 . S
C671 C677 1.491 . S
C672 H663 0.950 . S
C672 C671 1.398 . S
C672 C673 1.391 . S
C673 H661 0.950 . S
C673 C669 1.393 . S
C673 C672 1.391 . S
C674 H664 0.950 . S
C674 C675 1.386 . S
C674 C676 1.391 . S
C675 C674 1.386 . S
C675 C679 1.393 . S
C676 H665 0.950 . S
C676 C674 1.391 . S
C676 C677 1.400 . S
C677 C671 1.491 . S
C677 C676 1.400 . S
C677 C678 1.398 . S
C678 H666 0.950 . S
C678 C677 1.398 . S
C678 C679 1.391 . S
C679 H667 0.950 . S
C679 C675 1.393 . S
C679 C678 1.391 . S
H680 C688 0.950 . S
H681 C693 0.950 . S
H682 C690 0.950 . S
H683 C692 0.950 . S
H684 C694 0.950 . S
H685 C696 0.950 . S
H686 C698 0.950 . S
H687 C699 0.950 . S
C688 H680 0.950 . S
C688 C689 1.386 1_455 S
C688 C690 1.391 . S
C689 C688 1.386 1_655 S
C689 C693 1.393 . S
C690 H682 0.950 . S
C690 C688 1.391 . S
C690 C691 1.400 1_455 S
C691 C690 1.400 1_655 S
C691 C692 1.398 . S
C691 C697 1.491 1_655 S
C692 H683 0.950 . S
C692 C691 1.398 . S
C692 C693 1.391 . S
C693 H681 0.950 . S
C693 C689 1.393 . S
C693 C692 1.391 . S
C694 H684 0.950 . S
C694 C695 1.386 1_655 S
C694 C696 1.391 . S
C695 C694 1.386 1_455 S
C695 C699 1.393 . S
C696 H685 0.950 . S
C696 C694 1.391 . S
C696 C697 1.400 1_655 S
C697 C691 1.491 1_455 S
C697 C696 1.400 1_455 S
C697 C698 1.398 . S
C698 H686 0.950 . S
C698 C697 1.398 . S
C698 C699 1.391 . S
C699 H687 0.950 . S
C699 C695 1.393 . S
C699 C698 1.391 . S
H700 C708 0.950 . S
H701 C713 0.950 . S
H702 C710 0.950 . S
H703 C712 0.950 . S
H704 C714 0.950 . S
H705 C716 0.950 . S
H706 C718 0.950 . S
H707 C719 0.950 1_556 S
C708 H700 0.950 . S
C708 C709 1.386 . S
C708 C710 1.391 . S
C709 C708 1.386 . S
C709 C713 1.393 1_565 S
C710 H702 0.950 . S
C710 C708 1.391 . S
C710 C711 1.400 . S
C711 C710 1.400 . S
C711 C712 1.398 1_565 S
C711 C717 1.491 1_565 S
C712 H703 0.950 . S
C712 C711 1.398 1_545 S
C712 C713 1.391 . S
C713 H701 0.950 . S
C713 C709 1.393 1_545 S
C713 C712 1.391 . S
C714 H704 0.950 . S
C714 C715 1.386 . S
C714 C716 1.391 . S
C715 C714 1.386 . S
C715 C719 1.393 1_545 S
C716 H705 0.950 . S
C716 C714 1.391 . S
C716 C717 1.400 . S
C717 C711 1.491 1_545 S
C717 C716 1.400 . S
C717 C718 1.398 1_545 S
C718 H706 0.950 . S
C718 C717 1.398 1_565 S
C718 C719 1.391 . S
C719 H707 0.950 1_554 S
C719 C715 1.393 1_565 S
C719 C718 1.391 . S
H720 C728 0.950 . S
H721 C733 0.950 . S
H722 C730 0.950 . S
H723 C732 0.950 . S
H724 C734 0.950 . S
H725 C736 0.950 . S
H726 C738 0.950 . S
H727 C739 0.950 . S
C728 H720 0.950 . S
C728 C729 1.386 . S
C728 C730 1.391 . S
C729 C728 1.386 . S
C729 C733 1.393 . S
C730 H722 0.950 . S
C730 C728 1.391 . S
C730 C731 1.400 . S
C731 C730 1.400 . S
C731 C732 1.398 . S
C731 C737 1.491 . S
C732 H723 0.950 . S
C732 C731 1.398 . S
C732 C733 1.391 . S
C733 H721 0.950 . S
C733 C729 1.393 . S
C733 C732 1.391 . S
C734 H724 0.950 . S
C734 C735 1.386 . S
C734 C736 1.391 . S
C735 C734 1.386 . S
C735 C739 1.393 . S
C736 H725 0.950 . S
C736 C734 1.391 . S
C736 C737 1.400 . S
C737 C731 1.491 . S
C737 C736 1.400 . S
C737 C738 1.398 . S
C738 H726 0.950 . S
C738 C737 1.398 . S
C738 C739 1.391 . S
C739 H727 0.950 . S
C739 C735 1.393 . S
C739 C738 1.391 . S
H740 C748 0.950 . S
H741 C753 0.950 . S
H742 C750 0.950 . S
H743 C752 0.950 . S
H744 C754 0.950 . S
H745 C756 0.950 . S
H746 C758 0.950 . S
H747 C759 0.950 1_556 S
C748 H740 0.950 . S
C748 C749 1.386 . S
C748 C750 1.391 . S
C749 C748 1.386 . S
C749 C753 1.393 . S
C750 H742 0.950 . S
C750 C748 1.391 . S
C750 C751 1.400 . S
C751 C750 1.400 . S
C751 C752 1.398 . S
C751 C757 1.491 . S
C752 H743 0.950 . S
C752 C751 1.398 . S
C752 C753 1.391 . S
C753 H741 0.950 . S
C753 C749 1.393 . S
C753 C752 1.391 . S
C754 H744 0.950 . S
C754 C755 1.386 . S
C754 C756 1.391 . S
C755 C754 1.386 . S
C755 C759 1.393 . S
C756 H745 0.950 . S
C756 C754 1.391 . S
C756 C757 1.400 . S
C757 C751 1.491 . S
C757 C756 1.400 . S
C757 C758 1.398 . S
C758 H746 0.950 . S
C758 C757 1.398 . S
C758 C759 1.391 . S
C759 H747 0.950 1_554 S
C759 C755 1.393 . S
C759 C758 1.391 . S
H760 C768 0.950 . S
H761 C773 0.950 1_655 S
H762 C770 0.950 . S
H763 C772 0.950 1_655 S
H764 C774 0.945 1_655 S
H765 C776 0.950 1_655 S
H766 C778 0.950 . S
H767 C779 0.950 . S
C768 H760 0.950 . S
C768 C769 1.386 . S
C768 C770 1.391 . S
C769 C768 1.386 . S
C769 C773 1.393 . S
C770 H762 0.950 . S
C770 C768 1.391 . S
C770 C771 1.400 . S
C771 C770 1.400 . S
C771 C772 1.398 . S
C771 C777 1.491 . S
C772 H763 0.950 1_455 S
C772 C771 1.398 . S
C772 C773 1.391 . S
C773 H761 0.950 1_455 S
C773 C769 1.393 . S
C773 C772 1.391 . S
C774 H764 0.945 1_455 S
C774 C775 1.390 . S
C774 C776 1.392 . S
C775 C774 1.390 . S
C775 C779 1.393 . S
C776 H765 0.950 1_455 S
C776 C774 1.392 . S
C776 C777 1.400 . S
C777 C771 1.491 . S
C777 C776 1.400 . S
C777 C778 1.398 . S
C778 H766 0.950 . S
C778 C777 1.398 . S
C778 C779 1.391 . S
C779 H767 0.950 . S
C779 C775 1.393 . S
C779 C778 1.391 . S
H780 C788 0.950 1_554 S
H781 C793 0.950 . S
H782 C790 0.950 1_554 S
H783 C792 0.950 . S
H784 C794 0.950 . S
H785 C796 0.950 . S
H786 C798 0.950 . S
H787 C799 0.950 . S
C788 H780 0.950 1_556 S
C788 C789 1.386 . S
C788 C790 1.391 . S
C789 C788 1.386 . S
C789 C793 1.393 . S
C790 H782 0.950 1_556 S
C790 C788 1.391 . S
C790 C791 1.400 . S
C791 C790 1.400 . S
C791 C792 1.398 . S
C791 C797 1.491 . S
C792 H783 0.950 . S
C792 C791 1.398 . S
C792 C793 1.391 . S
C793 H781 0.950 . S
C793 C789 1.393 . S
C793 C792 1.391 . S
C794 H784 0.950 . S
C794 C795 1.386 . S
C794 C796 1.391 . S
C795 C794 1.386 . S
C795 C799 1.393 . S
C796 H785 0.950 . S
C796 C794 1.391 . S
C796 C797 1.400 . S
C797 C791 1.491 . S
C797 C796 1.400 . S
C797 C798 1.398 . S
C798 H786 0.950 . S
C798 C797 1.398 . S
C798 C799 1.391 . S
C799 H787 0.950 . S
C799 C795 1.393 . S
C799 C798 1.391 . S
H800 C808 0.950 1_554 S
H801 C813 0.950 . S
H802 C810 0.950 1_554 S
H803 C812 0.950 . S
H804 C814 0.950 . S
H805 C816 0.950 . S
H806 C818 0.950 . S
H807 C819 0.950 . S
C808 H800 0.950 1_556 S
C808 C809 1.386 . S
C808 C810 1.391 . S
C809 C808 1.386 . S
C809 C813 1.393 . S
C810 H802 0.950 1_556 S
C810 C808 1.391 . S
C810 C811 1.400 . S
C811 C810 1.400 . S
C811 C812 1.398 . S
C811 C817 1.491 . S
C812 H803 0.950 . S
C812 C811 1.398 . S
C812 C813 1.391 . S
C813 H801 0.950 . S
C813 C809 1.393 . S
C813 C812 1.391 . S
C814 H804 0.950 . S
C814 C815 1.386 . S
C814 C816 1.391 . S
C815 C814 1.386 . S
C815 C819 1.393 . S
C816 H805 0.950 . S
C816 C814 1.391 . S
C816 C817 1.400 . S
C817 C811 1.491 . S
C817 C816 1.400 . S
C817 C818 1.398 . S
C818 H806 0.950 . S
C818 C817 1.398 . S
C818 C819 1.391 . S
C819 H807 0.950 . S
C819 C815 1.393 . S
C819 C818 1.391 . S
H820 C828 0.950 . S
H821 C833 0.950 . S
H822 C830 0.950 1_554 S
H823 C832 0.950 . S
H824 C834 0.950 . S
H825 C836 0.950 . S
H826 C838 0.950 . S
H827 C839 0.950 . S
C828 H820 0.950 . S
C828 C829 1.386 1_554 S
C828 C830 1.391 1_554 S
C829 C828 1.386 1_556 S
C829 C833 1.393 . S
C830 H822 0.950 1_556 S
C830 C828 1.391 1_556 S
C830 C831 1.400 . S
C831 C830 1.400 . S
C831 C832 1.398 . S
C831 C837 1.491 . S
C832 H823 0.950 . S
C832 C831 1.398 . S
C832 C833 1.391 . S
C833 H821 0.950 . S
C833 C829 1.393 . S
C833 C832 1.391 . S
C834 H824 0.950 . S
C834 C835 1.386 . S
C834 C836 1.391 . S
C835 C834 1.386 . S
C835 C839 1.393 . S
C836 H825 0.950 . S
C836 C834 1.391 . S
C836 C837 1.400 . S
C837 C831 1.491 . S
C837 C836 1.400 . S
C837 C838 1.398 . S
C838 H826 0.950 . S
C838 C837 1.398 . S
C838 C839 1.391 . S
C839 H827 0.950 . S
C839 C835 1.393 . S
C839 C838 1.391 . S
H840 C848 0.950 . S
H841 C853 0.950 . S
H842 C850 0.940 1_455 S
H843 C852 0.950 . S
H844 C854 0.950 . S
H845 C856 0.950 . S
H846 C858 0.944 1_455 S
H847 C859 0.940 1_455 S
C848 H840 0.950 . S
C848 C849 1.386 . S
C848 C850 1.391 . S
C849 C848 1.386 . S
C849 C853 1.393 . S
C850 H842 0.940 1_655 S
C850 C848 1.391 . S
C850 C851 1.400 . S
C851 C850 1.400 . S
C851 C852 1.398 . S
C851 C857 1.491 . S
C852 H843 0.950 . S
C852 C851 1.398 . S
C852 C853 1.391 . S
C853 H841 0.950 . S
C853 C849 1.393 . S
C853 C852 1.391 . S
C854 H844 0.950 . S
C854 C855 1.386 . S
C854 C856 1.391 . S
C855 C854 1.386 . S
C855 C859 1.401 . S
C856 H845 0.950 . S
C856 C854 1.391 . S
C856 C857 1.400 . S
C857 C851 1.491 . S
C857 C856 1.400 . S
C857 C858 1.398 . S
C858 H846 0.944 1_655 S
C858 C857 1.398 . S
C858 C859 1.394 . S
C859 H847 0.940 1_655 S
C859 C855 1.401 . S
C859 C858 1.394 . S
H860 C868 0.950 . S
H861 C873 0.950 . S
H862 C870 0.950 . S
H863 C872 0.950 . S
H864 C874 0.950 . S
H865 C876 0.950 . S
H866 C878 0.950 . S
H867 C879 0.950 . S
C868 H860 0.950 . S
C868 C869 1.386 1_545 S
C868 C870 1.391 . S
C869 C868 1.386 1_565 S
C869 C873 1.393 . S
C870 H862 0.950 . S
C870 C868 1.391 . S
C870 C871 1.400 1_545 S
C871 C870 1.400 1_565 S
C871 C872 1.398 . S
C871 C877 1.491 . S
C872 H863 0.950 . S
C872 C871 1.398 . S
C872 C873 1.391 . S
C873 H861 0.950 . S
C873 C869 1.393 . S
C873 C872 1.391 . S
C874 H864 0.950 . S
C874 C875 1.386 . S
C874 C876 1.391 . S
C875 C874 1.386 . S
C875 C879 1.393 1_565 S
C876 H865 0.950 . S
C876 C874 1.391 . S
C876 C877 1.400 . S
C877 C871 1.491 . S
C877 C876 1.400 . S
C877 C878 1.398 1_565 S
C878 H866 0.950 . S
C878 C877 1.398 1_545 S
C878 C879 1.391 . S
C879 H867 0.950 . S
C879 C875 1.393 1_545 S
C879 C878 1.391 . S
H880 C888 0.950 . S
H881 C893 0.950 . S
H882 C890 0.950 . S
H883 C892 0.950 . S
H884 C894 0.950 . S
H885 C896 0.950 . S
H886 C898 0.950 . S
H887 C899 0.950 . S
C888 H880 0.950 . S
C888 C889 1.386 . S
C888 C890 1.391 . S
C889 C888 1.386 . S
C889 C893 1.393 . S
C890 H882 0.950 . S
C890 C888 1.391 . S
C890 C891 1.400 . S
C891 C890 1.400 . S
C891 C892 1.398 . S
C891 C897 1.491 . S
C892 H883 0.950 . S
C892 C891 1.398 . S
C892 C893 1.391 . S
C893 H881 0.950 . S
C893 C889 1.393 . S
C893 C892 1.391 . S
C894 H884 0.950 . S
C894 C895 1.386 . S
C894 C896 1.391 . S
C895 C894 1.386 . S
C895 C899 1.393 . S
C896 H885 0.950 . S
C896 C894 1.391 . S
C896 C897 1.400 . S
C897 C891 1.491 . S
C897 C896 1.400 . S
C897 C898 1.398 . S
C898 H886 0.950 . S
C898 C897 1.398 . S
C898 C899 1.391 . S
C899 H887 0.950 . S
C899 C895 1.393 . S
C899 C898 1.391 . S
H900 C908 0.950 . S
H901 C913 0.950 . S
H902 C910 0.950 . S
H903 C912 0.950 . S
H904 C914 0.950 . S
H905 C916 0.950 . S
H906 C918 0.950 . S
H907 C919 0.950 . S
C908 H900 0.950 . S
C908 C909 1.386 . S
C908 C910 1.391 . S
C909 C908 1.386 . S
C909 C913 1.393 . S
C910 H902 0.950 . S
C910 C908 1.391 . S
C910 C911 1.400 . S
C911 C910 1.400 . S
C911 C912 1.398 . S
C911 C917 1.491 . S
C912 H903 0.950 . S
C912 C911 1.398 . S
C912 C913 1.391 . S
C913 H901 0.950 . S
C913 C909 1.393 . S
C913 C912 1.391 . S
C914 H904 0.950 . S
C914 C915 1.386 . S
C914 C916 1.391 . S
C915 C914 1.386 . S
C915 C919 1.393 . S
C916 H905 0.950 . S
C916 C914 1.391 . S
C916 C917 1.400 . S
C917 C911 1.491 . S
C917 C916 1.400 . S
C917 C918 1.398 . S
C918 H906 0.950 . S
C918 C917 1.398 . S
C918 C919 1.391 . S
C919 H907 0.950 . S
C919 C915 1.393 . S
C919 C918 1.391 . S
C449 N80 1.946 . S
C455 C167 2.004 . S
C475 C244 2.018 . S
C469 N93 1.928 . S
C495 C335 1.997 . S
C489 N54 1.918 . S
C515 C419 1.986 . S
C509 N67 1.925 . S
C535 C178 2.009 . S
C529 N28 1.952 . S
C549 N41 1.935 . S
C555 C255 2.017 . S
C569 N2 1.926 . S
C575 C346 1.994 . S
C589 N15 1.934 . S
C595 C430 1.988 1_655 S
C615 C162 0.607 1_455 S
C609 N70 0.509 . S
C635 C257 0.596 . S
C629 N83 0.494 . S
C655 C330 0.543 . S
C649 N96 0.543 . S
C669 N57 0.517 . S
C675 C414 0.549 . S
C689 N18 0.518 . S
C695 C173 0.582 . S
C715 C246 0.597 . S
C709 N31 0.511 . S
C735 C341 0.574 . S
C729 N44 0.523 . S
C749 N5 0.521 . S
C755 C425 0.531 . S
C769 N66 2.006 . S
C775 C171 2.084 . S
C789 N79 2.024 . S
C795 C262 2.092 . S
C815 C339 2.106 . S
C809 N92 2.032 . S
C835 C423 2.109 . S
C829 N53 2.033 . S
C849 N14 2.018 . S
C855 C160 2.086 . S
C875 C251 2.096 1_565 S
C869 N27 2.013 . S
C895 C328 2.099 . S
C889 N40 2.025 . S
C909 N1 2.050 . S
C915 C412 2.113 . S
