# Generated by pormake.
# Topology tbo, (3,4)-cn, num edge types: 1
# Building blocks:
#     Node 0, Type 0, BuildingBlock: MIDCAF_clean_linker_0, # of connection points: 3
#     Node 1, Type 0, BuildingBlock: MIDCAF_clean_linker_0, # of connection points: 3
#     Node 2, Type 0, BuildingBlock: MIDCAF_clean_linker_0, # of connection points: 3
#     Node 3, Type 0, BuildingBlock: MIDCAF_clean_linker_0, # of connection points: 3
#     Node 4, Type 0, BuildingBlock: MIDCAF_clean_linker_0, # of connection points: 3
#     Node 5, Type 0, BuildingBlock: MIDCAF_clean_linker_0, # of connection points: 3
#     Node 6, Type 0, BuildingBlock: MIDCAF_clean_linker_0, # of connection points: 3
#     Node 7, Type 0, BuildingBlock: MIDCAF_clean_linker_0, # of connection points: 3
#     Node 8, Type 0, BuildingBlock: MIDCAF_clean_linker_0, # of connection points: 3
#     Node 9, Type 0, BuildingBlock: MIDCAF_clean_linker_0, # of connection points: 3
#     Node 10, Type 0, BuildingBlock: MIDCAF_clean_linker_0, # of connection points: 3
#     Node 11, Type 0, BuildingBlock: MIDCAF_clean_linker_0, # of connection points: 3
#     Node 12, Type 0, BuildingBlock: MIDCAF_clean_linker_0, # of connection points: 3
#     Node 13, Type 0, BuildingBlock: MIDCAF_clean_linker_0, # of connection points: 3
#     Node 14, Type 0, BuildingBlock: MIDCAF_clean_linker_0, # of connection points: 3
#     Node 15, Type 0, BuildingBlock: MIDCAF_clean_linker_0, # of connection points: 3
#     Node 16, Type 0, BuildingBlock: MIDCAF_clean_linker_0, # of connection points: 3
#     Node 17, Type 0, BuildingBlock: MIDCAF_clean_linker_0, # of connection points: 3
#     Node 18, Type 0, BuildingBlock: MIDCAF_clean_linker_0, # of connection points: 3
#     Node 19, Type 0, BuildingBlock: MIDCAF_clean_linker_0, # of connection points: 3
#     Node 20, Type 0, BuildingBlock: MIDCAF_clean_linker_0, # of connection points: 3
#     Node 21, Type 0, BuildingBlock: MIDCAF_clean_linker_0, # of connection points: 3
#     Node 22, Type 0, BuildingBlock: MIDCAF_clean_linker_0, # of connection points: 3
#     Node 23, Type 0, BuildingBlock: MIDCAF_clean_linker_0, # of connection points: 3
#     Node 24, Type 0, BuildingBlock: MIDCAF_clean_linker_0, # of connection points: 3
#     Node 25, Type 0, BuildingBlock: MIDCAF_clean_linker_0, # of connection points: 3
#     Node 26, Type 0, BuildingBlock: MIDCAF_clean_linker_0, # of connection points: 3
#     Node 27, Type 0, BuildingBlock: MIDCAF_clean_linker_0, # of connection points: 3
#     Node 28, Type 0, BuildingBlock: MIDCAF_clean_linker_0, # of connection points: 3
#     Node 29, Type 0, BuildingBlock: MIDCAF_clean_linker_0, # of connection points: 3
#     Node 30, Type 0, BuildingBlock: MIDCAF_clean_linker_0, # of connection points: 3
#     Node 31, Type 0, BuildingBlock: MIDCAF_clean_linker_0, # of connection points: 3
#     Node 32, Type 1, BuildingBlock: ESEHIV_clean_sbu_0, # of connection points: 4
#     Node 33, Type 1, BuildingBlock: ESEHIV_clean_sbu_0, # of connection points: 4
#     Node 34, Type 1, BuildingBlock: ESEHIV_clean_sbu_0, # of connection points: 4
#     Node 35, Type 1, BuildingBlock: ESEHIV_clean_sbu_0, # of connection points: 4
#     Node 36, Type 1, BuildingBlock: ESEHIV_clean_sbu_0, # of connection points: 4
#     Node 37, Type 1, BuildingBlock: ESEHIV_clean_sbu_0, # of connection points: 4
#     Node 38, Type 1, BuildingBlock: ESEHIV_clean_sbu_0, # of connection points: 4
#     Node 39, Type 1, BuildingBlock: ESEHIV_clean_sbu_0, # of connection points: 4
#     Node 40, Type 1, BuildingBlock: ESEHIV_clean_sbu_0, # of connection points: 4
#     Node 41, Type 1, BuildingBlock: ESEHIV_clean_sbu_0, # of connection points: 4
#     Node 42, Type 1, BuildingBlock: ESEHIV_clean_sbu_0, # of connection points: 4
#     Node 43, Type 1, BuildingBlock: ESEHIV_clean_sbu_0, # of connection points: 4
#     Node 44, Type 1, BuildingBlock: ESEHIV_clean_sbu_0, # of connection points: 4
#     Node 45, Type 1, BuildingBlock: ESEHIV_clean_sbu_0, # of connection points: 4
#     Node 46, Type 1, BuildingBlock: ESEHIV_clean_sbu_0, # of connection points: 4
#     Node 47, Type 1, BuildingBlock: ESEHIV_clean_sbu_0, # of connection points: 4
#     Node 48, Type 1, BuildingBlock: ESEHIV_clean_sbu_0, # of connection points: 4
#     Node 49, Type 1, BuildingBlock: ESEHIV_clean_sbu_0, # of connection points: 4
#     Node 50, Type 1, BuildingBlock: ESEHIV_clean_sbu_0, # of connection points: 4
#     Node 51, Type 1, BuildingBlock: ESEHIV_clean_sbu_0, # of connection points: 4
#     Node 52, Type 1, BuildingBlock: ESEHIV_clean_sbu_0, # of connection points: 4
#     Node 53, Type 1, BuildingBlock: ESEHIV_clean_sbu_0, # of connection points: 4
#     Node 54, Type 1, BuildingBlock: ESEHIV_clean_sbu_0, # of connection points: 4
#     Node 55, Type 1, BuildingBlock: ESEHIV_clean_sbu_0, # of connection points: 4
#     Edge 56, Type (0, 1), BuildingBlock: EZIPEK_clean_linker_0, # of connection points: 2
#     Edge 57, Type (0, 1), BuildingBlock: EZIPEK_clean_linker_0, # of connection points: 2
#     Edge 58, Type (0, 1), BuildingBlock: EZIPEK_clean_linker_0, # of connection points: 2
#     Edge 59, Type (0, 1), BuildingBlock: EZIPEK_clean_linker_0, # of connection points: 2
#     Edge 60, Type (0, 1), BuildingBlock: EZIPEK_clean_linker_0, # of connection points: 2
#     Edge 61, Type (0, 1), BuildingBlock: EZIPEK_clean_linker_0, # of connection points: 2
#     Edge 62, Type (0, 1), BuildingBlock: EZIPEK_clean_linker_0, # of connection points: 2
#     Edge 63, Type (0, 1), BuildingBlock: EZIPEK_clean_linker_0, # of connection points: 2
#     Edge 64, Type (0, 1), BuildingBlock: EZIPEK_clean_linker_0, # of connection points: 2
#     Edge 65, Type (0, 1), BuildingBlock: EZIPEK_clean_linker_0, # of connection points: 2
#     Edge 66, Type (0, 1), BuildingBlock: EZIPEK_clean_linker_0, # of connection points: 2
#     Edge 67, Type (0, 1), BuildingBlock: EZIPEK_clean_linker_0, # of connection points: 2
#     Edge 68, Type (0, 1), BuildingBlock: EZIPEK_clean_linker_0, # of connection points: 2
#     Edge 69, Type (0, 1), BuildingBlock: EZIPEK_clean_linker_0, # of connection points: 2
#     Edge 70, Type (0, 1), BuildingBlock: EZIPEK_clean_linker_0, # of connection points: 2
#     Edge 71, Type (0, 1), BuildingBlock: EZIPEK_clean_linker_0, # of connection points: 2
#     Edge 72, Type (0, 1), BuildingBlock: EZIPEK_clean_linker_0, # of connection points: 2
#     Edge 73, Type (0, 1), BuildingBlock: EZIPEK_clean_linker_0, # of connection points: 2
#     Edge 74, Type (0, 1), BuildingBlock: EZIPEK_clean_linker_0, # of connection points: 2
#     Edge 75, Type (0, 1), BuildingBlock: EZIPEK_clean_linker_0, # of connection points: 2
#     Edge 76, Type (0, 1), BuildingBlock: EZIPEK_clean_linker_0, # of connection points: 2
#     Edge 77, Type (0, 1), BuildingBlock: EZIPEK_clean_linker_0, # of connection points: 2
#     Edge 78, Type (0, 1), BuildingBlock: EZIPEK_clean_linker_0, # of connection points: 2
#     Edge 79, Type (0, 1), BuildingBlock: EZIPEK_clean_linker_0, # of connection points: 2
#     Edge 80, Type (0, 1), BuildingBlock: EZIPEK_clean_linker_0, # of connection points: 2
#     Edge 81, Type (0, 1), BuildingBlock: EZIPEK_clean_linker_0, # of connection points: 2
#     Edge 82, Type (0, 1), BuildingBlock: EZIPEK_clean_linker_0, # of connection points: 2
#     Edge 83, Type (0, 1), BuildingBlock: EZIPEK_clean_linker_0, # of connection points: 2
#     Edge 84, Type (0, 1), BuildingBlock: EZIPEK_clean_linker_0, # of connection points: 2
#     Edge 85, Type (0, 1), BuildingBlock: EZIPEK_clean_linker_0, # of connection points: 2
#     Edge 86, Type (0, 1), BuildingBlock: EZIPEK_clean_linker_0, # of connection points: 2
#     Edge 87, Type (0, 1), BuildingBlock: EZIPEK_clean_linker_0, # of connection points: 2
#     Edge 88, Type (0, 1), BuildingBlock: EZIPEK_clean_linker_0, # of connection points: 2
#     Edge 89, Type (0, 1), BuildingBlock: EZIPEK_clean_linker_0, # of connection points: 2
#     Edge 90, Type (0, 1), BuildingBlock: EZIPEK_clean_linker_0, # of connection points: 2
#     Edge 91, Type (0, 1), BuildingBlock: EZIPEK_clean_linker_0, # of connection points: 2
#     Edge 92, Type (0, 1), BuildingBlock: EZIPEK_clean_linker_0, # of connection points: 2
#     Edge 93, Type (0, 1), BuildingBlock: EZIPEK_clean_linker_0, # of connection points: 2
#     Edge 94, Type (0, 1), BuildingBlock: EZIPEK_clean_linker_0, # of connection points: 2
#     Edge 95, Type (0, 1), BuildingBlock: EZIPEK_clean_linker_0, # of connection points: 2
#     Edge 96, Type (0, 1), BuildingBlock: EZIPEK_clean_linker_0, # of connection points: 2
#     Edge 97, Type (0, 1), BuildingBlock: EZIPEK_clean_linker_0, # of connection points: 2
#     Edge 98, Type (0, 1), BuildingBlock: EZIPEK_clean_linker_0, # of connection points: 2
#     Edge 99, Type (0, 1), BuildingBlock: EZIPEK_clean_linker_0, # of connection points: 2
#     Edge 100, Type (0, 1), BuildingBlock: EZIPEK_clean_linker_0, # of connection points: 2
#     Edge 101, Type (0, 1), BuildingBlock: EZIPEK_clean_linker_0, # of connection points: 2
#     Edge 102, Type (0, 1), BuildingBlock: EZIPEK_clean_linker_0, # of connection points: 2
#     Edge 103, Type (0, 1), BuildingBlock: EZIPEK_clean_linker_0, # of connection points: 2
#     Edge 104, Type (0, 1), BuildingBlock: EZIPEK_clean_linker_0, # of connection points: 2
#     Edge 105, Type (0, 1), BuildingBlock: EZIPEK_clean_linker_0, # of connection points: 2
#     Edge 106, Type (0, 1), BuildingBlock: EZIPEK_clean_linker_0, # of connection points: 2
#     Edge 107, Type (0, 1), BuildingBlock: EZIPEK_clean_linker_0, # of connection points: 2
#     Edge 108, Type (0, 1), BuildingBlock: EZIPEK_clean_linker_0, # of connection points: 2
#     Edge 109, Type (0, 1), BuildingBlock: EZIPEK_clean_linker_0, # of connection points: 2
#     Edge 110, Type (0, 1), BuildingBlock: EZIPEK_clean_linker_0, # of connection points: 2
#     Edge 111, Type (0, 1), BuildingBlock: EZIPEK_clean_linker_0, # of connection points: 2
#     Edge 112, Type (0, 1), BuildingBlock: EZIPEK_clean_linker_0, # of connection points: 2
#     Edge 113, Type (0, 1), BuildingBlock: EZIPEK_clean_linker_0, # of connection points: 2
#     Edge 114, Type (0, 1), BuildingBlock: EZIPEK_clean_linker_0, # of connection points: 2
#     Edge 115, Type (0, 1), BuildingBlock: EZIPEK_clean_linker_0, # of connection points: 2
#     Edge 116, Type (0, 1), BuildingBlock: EZIPEK_clean_linker_0, # of connection points: 2
#     Edge 117, Type (0, 1), BuildingBlock: EZIPEK_clean_linker_0, # of connection points: 2
#     Edge 118, Type (0, 1), BuildingBlock: EZIPEK_clean_linker_0, # of connection points: 2
#     Edge 119, Type (0, 1), BuildingBlock: EZIPEK_clean_linker_0, # of connection points: 2
#     Edge 120, Type (0, 1), BuildingBlock: EZIPEK_clean_linker_0, # of connection points: 2
#     Edge 121, Type (0, 1), BuildingBlock: EZIPEK_clean_linker_0, # of connection points: 2
#     Edge 122, Type (0, 1), BuildingBlock: EZIPEK_clean_linker_0, # of connection points: 2
#     Edge 123, Type (0, 1), BuildingBlock: EZIPEK_clean_linker_0, # of connection points: 2
#     Edge 124, Type (0, 1), BuildingBlock: EZIPEK_clean_linker_0, # of connection points: 2
#     Edge 125, Type (0, 1), BuildingBlock: EZIPEK_clean_linker_0, # of connection points: 2
#     Edge 126, Type (0, 1), BuildingBlock: EZIPEK_clean_linker_0, # of connection points: 2
#     Edge 127, Type (0, 1), BuildingBlock: EZIPEK_clean_linker_0, # of connection points: 2
#     Edge 128, Type (0, 1), BuildingBlock: EZIPEK_clean_linker_0, # of connection points: 2
#     Edge 129, Type (0, 1), BuildingBlock: EZIPEK_clean_linker_0, # of connection points: 2
#     Edge 130, Type (0, 1), BuildingBlock: EZIPEK_clean_linker_0, # of connection points: 2
#     Edge 131, Type (0, 1), BuildingBlock: EZIPEK_clean_linker_0, # of connection points: 2
#     Edge 132, Type (0, 1), BuildingBlock: EZIPEK_clean_linker_0, # of connection points: 2
#     Edge 133, Type (0, 1), BuildingBlock: EZIPEK_clean_linker_0, # of connection points: 2
#     Edge 134, Type (0, 1), BuildingBlock: EZIPEK_clean_linker_0, # of connection points: 2
#     Edge 135, Type (0, 1), BuildingBlock: EZIPEK_clean_linker_0, # of connection points: 2
#     Edge 136, Type (0, 1), BuildingBlock: EZIPEK_clean_linker_0, # of connection points: 2
#     Edge 137, Type (0, 1), BuildingBlock: EZIPEK_clean_linker_0, # of connection points: 2
#     Edge 138, Type (0, 1), BuildingBlock: EZIPEK_clean_linker_0, # of connection points: 2
#     Edge 139, Type (0, 1), BuildingBlock: EZIPEK_clean_linker_0, # of connection points: 2
#     Edge 140, Type (0, 1), BuildingBlock: EZIPEK_clean_linker_0, # of connection points: 2
#     Edge 141, Type (0, 1), BuildingBlock: EZIPEK_clean_linker_0, # of connection points: 2
#     Edge 142, Type (0, 1), BuildingBlock: EZIPEK_clean_linker_0, # of connection points: 2
#     Edge 143, Type (0, 1), BuildingBlock: EZIPEK_clean_linker_0, # of connection points: 2
#     Edge 144, Type (0, 1), BuildingBlock: EZIPEK_clean_linker_0, # of connection points: 2
#     Edge 145, Type (0, 1), BuildingBlock: EZIPEK_clean_linker_0, # of connection points: 2
#     Edge 146, Type (0, 1), BuildingBlock: EZIPEK_clean_linker_0, # of connection points: 2
#     Edge 147, Type (0, 1), BuildingBlock: EZIPEK_clean_linker_0, # of connection points: 2
#     Edge 148, Type (0, 1), BuildingBlock: EZIPEK_clean_linker_0, # of connection points: 2
#     Edge 149, Type (0, 1), BuildingBlock: EZIPEK_clean_linker_0, # of connection points: 2
#     Edge 150, Type (0, 1), BuildingBlock: EZIPEK_clean_linker_0, # of connection points: 2
#     Edge 151, Type (0, 1), BuildingBlock: EZIPEK_clean_linker_0, # of connection points: 2
# Relax obj value: 0.003
# Max RMSD: 0.125
# Mean RMSD: 0.049
data_MOF--net-tbo--node1-ESEHIV_clean_sbu_0--node2-MIDCAF_clean_linker_0--edge1-EZIPEK_clean_linker_0
_symmetry_space_group_name_H-M    P1
_symmetry_Int_Tables_number       1
_symmetry_cell_setting            triclinic
loop_
_symmetry_equiv_pos_as_xyz
'x, y, z'
_cell_length_a     70.369863
_cell_length_b     70.314201
_cell_length_c     70.388761
_cell_angle_alpha  90.064052
_cell_angle_beta   92.606514
_cell_angle_gamma 90.765048
loop_
_atom_site_label
_atom_site_type_symbol
_atom_site_fract_x
_atom_site_fract_y
_atom_site_fract_z
_atom_type_partial_charge
C0 C 0.12471 0.23745 0.17924 0.0
C1 C 0.10809 0.22719 0.18375 0.0
C2 C 0.11075 0.20814 0.18984 0.0
C3 C 0.12816 0.19901 0.18813 0.0
H4 H 0.16127 0.15267 0.20548 0.0
H5 H 0.16923 0.12267 0.22117 0.0
H6 H 0.22178 0.12095 0.19216 0.0
H7 H 0.214 0.15103 0.17623 0.0
H8 H 0.21573 0.18133 0.13649 0.0
H9 H 0.23136 0.19611 0.10944 0.0
H10 H 0.20338 0.24891 0.12025 0.0
H11 H 0.18801 0.23461 0.14707 0.0
H12 H 0.1541 0.23667 0.17293 0.0
H13 H 0.12495 0.25264 0.1774 0.0
H14 H 0.09957 0.2 0.19615 0.0
H15 H 0.12925 0.18415 0.19202 0.0
N16 N 0.16604 0.18201 0.18479 0.0
N17 N 0.19353 0.18074 0.16695 0.0
N18 N 0.17306 0.20669 0.16394 0.0
C19 C 0.18213 0.17283 0.18013 0.0
C20 C 0.189 0.19779 0.15882 0.0
C21 C 0.1615 0.199 0.17678 0.0
C22 C 0.187 0.15439 0.18951 0.0
C23 C 0.17457 0.14601 0.20237 0.0
C24 C 0.17907 0.12883 0.21142 0.0
C25 C 0.19612 0.11967 0.20792 0.0
C26 C 0.20857 0.12788 0.19511 0.0
C27 C 0.20407 0.14506 0.18598 0.0
C28 C 0.20045 0.20669 0.14388 0.0
C29 C 0.21315 0.19616 0.13327 0.0
C30 C 0.22201 0.20453 0.11778 0.0
C31 C 0.21831 0.22353 0.11278 0.0
C32 C 0.20629 0.23421 0.1238 0.0
C33 C 0.19749 0.22593 0.13914 0.0
C34 C 0.14373 0.20885 0.18103 0.0
C35 C 0.142 0.22833 0.1773 0.0
C36 C 0.81653 0.11819 0.21471 0.0
C37 C 0.8274 0.10874 0.22893 0.0
C38 C 0.84603 0.11495 0.23341 0.0
C39 C 0.85368 0.13057 0.22406 0.0
H40 H 0.82069 0.16876 0.15412 0.0
H41 H 0.80675 0.18417 0.12557 0.0
H42 H 0.84422 0.23253 0.13514 0.0
H43 H 0.85837 0.2173 0.16345 0.0
H44 H 0.89185 0.21598 0.19551 0.0
H45 H 0.92213 0.22823 0.20941 0.0
H46 H 0.93134 0.17507 0.23861 0.0
H47 H 0.901 0.16275 0.2251 0.0
H48 H 0.81547 0.14108 0.19451 0.0
H49 H 0.80209 0.11352 0.21107 0.0
H50 H 0.85463 0.10778 0.2443 0.0
H51 H 0.86811 0.13498 0.22807 0.0
N52 N 0.84219 0.16626 0.18571 0.0
N53 N 0.86666 0.1894 0.18576 0.0
N54 N 0.86776 0.16494 0.20824 0.0
C55 C 0.84998 0.18223 0.17802 0.0
C56 C 0.87566 0.18079 0.20084 0.0
C57 C 0.85107 0.15757 0.20093 0.0
C58 C 0.84073 0.19171 0.16113 0.0
C59 C 0.82592 0.18271 0.15023 0.0
C60 C 0.81794 0.19147 0.13389 0.0
C61 C 0.82447 0.20948 0.12824 0.0
C62 C 0.839 0.21863 0.13923 0.0
C63 C 0.84708 0.20984 0.15543 0.0
C64 C 0.89396 0.18838 0.20918 0.0
C65 C 0.90027 0.20689 0.20492 0.0
C66 C 0.91752 0.21394 0.2129 0.0
C67 C 0.92887 0.20256 0.2251 0.0
C68 C 0.92269 0.18409 0.22935 0.0
C69 C 0.90534 0.17711 0.22157 0.0
C70 C 0.84285 0.14038 0.20996 0.0
C71 C 0.82421 0.13389 0.20525 0.0
C72 C 0.84322 0.8062 0.14019 0.0
C73 C 0.82905 0.81337 0.1276 0.0
C74 C 0.82055 0.83071 0.13177 0.0
C75 C 0.82625 0.8409 0.14818 0.0
H76 H 0.80994 0.88509 0.1819 0.0
H77 H 0.79109 0.91185 0.19251 0.0
H78 H 0.83205 0.92229 0.23881 0.0
H79 H 0.851 0.89566 0.22847 0.0
H80 H 0.89123 0.81908 0.19945 0.0
H81 H 0.92007 0.81027 0.21792 0.0
H82 H 0.91629 0.86098 0.25184 0.0
H83 H 0.88735 0.86999 0.23357 0.0
H84 H 0.86019 0.81066 0.16591 0.0
H85 H 0.84993 0.79283 0.13717 0.0
H86 H 0.80959 0.83646 0.12219 0.0
H87 H 0.81948 0.85432 0.15083 0.0
N88 N 0.83734 0.86078 0.18308 0.0
N89 N 0.8592 0.8662 0.20872 0.0
N90 N 0.86313 0.84032 0.18825 0.0
C91 C 0.84319 0.87133 0.19852 0.0
C92 C 0.86928 0.85073 0.20371 0.0
C93 C 0.8472 0.84526 0.17782 0.0
C94 C 0.83204 0.88808 0.20435 0.0
C95 C 0.81506 0.89312 0.19428 0.0
C96 C 0.80426 0.90846 0.20025 0.0
C97 C 0.81025 0.91909 0.21635 0.0
C98 C 0.82726 0.91431 0.22627 0.0
C99 C 0.83805 0.89902 0.22034 0.0
C100 C 0.88685 0.84529 0.21496 0.0
C101 C 0.89646 0.82842 0.21082 0.0
C102 C 0.91296 0.82332 0.22136 0.0
C103 C 0.92028 0.83499 0.23621 0.0
C104 C 0.91084 0.85181 0.24042 0.0
C105 C 0.89427 0.8569 0.22994 0.0
C106 C 0.84073 0.83402 0.16072 0.0
C107 C 0.84908 0.81647 0.15656 0.0
C108 C 0.11728 0.83634 0.21744 0.0
C109 C 0.10823 0.81965 0.21044 0.0
C110 C 0.11388 0.8118 0.19334 0.0
C111 C 0.12866 0.82019 0.18359 0.0
H112 H 0.16336 0.80609 0.14413 0.0
H113 H 0.17348 0.78755 0.11722 0.0
H114 H 0.21607 0.8301 0.10592 0.0
H115 H 0.20609 0.84901 0.133 0.0
H116 H 0.2176 0.87368 0.18337 0.0
H117 H 0.23387 0.90343 0.19329 0.0
H118 H 0.1798 0.9316 0.19343 0.0
H119 H 0.16345 0.90154 0.18477 0.0
H120 H 0.13911 0.85744 0.21358 0.0
H121 H 0.11307 0.84259 0.23065 0.0
H122 H 0.10704 0.79896 0.18772 0.0
H123 H 0.13276 0.8135 0.17056 0.0
N124 N 0.16171 0.83451 0.16614 0.0
N125 N 0.1862 0.85694 0.1628 0.0
N126 N 0.16373 0.86108 0.18628 0.0
C127 C 0.17723 0.84052 0.15702 0.0
C128 C 0.17947 0.86733 0.17737 0.0
C129 C 0.15484 0.84449 0.18076 0.0
C130 C 0.18389 0.82915 0.14082 0.0
C131 C 0.17491 0.81163 0.13602 0.0
C132 C 0.18063 0.80095 0.12061 0.0
C133 C 0.19544 0.8075 0.10962 0.0
C134 C 0.20456 0.82487 0.11428 0.0
C135 C 0.19886 0.83562 0.12978 0.0
C136 C 0.18927 0.88531 0.18338 0.0
C137 C 0.20921 0.88622 0.18566 0.0
C138 C 0.21851 0.90321 0.19129 0.0
C139 C 0.20812 0.91988 0.19403 0.0
C140 C 0.18817 0.91899 0.19147 0.0
C141 C 0.17882 0.90181 0.18655 0.0
C142 C 0.1382 0.83667 0.19071 0.0
C143 C 0.13214 0.8448 0.20765 0.0
C144 C 0.11764 0.81314 0.83613 0.0
C145 C 0.10628 0.82475 0.82413 0.0
C146 C 0.11137 0.84391 0.82198 0.0
C147 C 0.12792 0.85123 0.83112 0.0
H148 H 0.16811 0.88822 0.81697 0.0
H149 H 0.18215 0.91441 0.79951 0.0
H150 H 0.23063 0.9155 0.83915 0.0
H151 H 0.21677 0.88912 0.8569 0.0
H152 H 0.21867 0.85905 0.88955 0.0
H153 H 0.2361 0.84579 0.91712 0.0
H154 H 0.19164 0.8039 0.92345 0.0
H155 H 0.17392 0.81702 0.89573 0.0
H156 H 0.14292 0.81121 0.85436 0.0
H157 H 0.11382 0.79831 0.83805 0.0
H158 H 0.10271 0.85311 0.81291 0.0
H159 H 0.13158 0.86604 0.82883 0.0
N160 N 0.166 0.8626 0.84226 0.0
N161 N 0.19198 0.86242 0.86413 0.0
N162 N 0.1674 0.8396 0.8664 0.0
C163 C 0.18289 0.87018 0.84864 0.0
C164 C 0.18439 0.84719 0.87319 0.0
C165 C 0.15809 0.84741 0.85091 0.0
C166 C 0.19131 0.88647 0.8384 0.0
C167 C 0.18175 0.89397 0.82211 0.0
C168 C 0.18971 0.90895 0.81206 0.0
C169 C 0.20737 0.91678 0.81807 0.0
C170 C 0.21696 0.90955 0.83435 0.0
C171 C 0.20901 0.8945 0.84445 0.0
C172 C 0.1948 0.8391 0.89024 0.0
C173 C 0.21246 0.84704 0.89674 0.0
C174 C 0.2225 0.83952 0.91257 0.0
C175 C 0.21517 0.8239 0.92232 0.0
C176 C 0.19752 0.816 0.9161 0.0
C177 C 0.18743 0.82351 0.90022 0.0
C178 C 0.13969 0.83962 0.84283 0.0
C179 C 0.13418 0.82054 0.84552 0.0
C180 C 0.16049 0.20932 0.83359 0.0
C181 C 0.15298 0.20052 0.81694 0.0
C182 C 0.1622 0.18464 0.80979 0.0
C183 C 0.17868 0.17765 0.81915 0.0
H184 H 0.22016 0.13651 0.81519 0.0
H185 H 0.23693 0.10918 0.80277 0.0
H186 H 0.27633 0.1109 0.85142 0.0
H187 H 0.2598 0.13823 0.86402 0.0
H188 H 0.2605 0.17287 0.89136 0.0
H189 H 0.27427 0.18913 0.91961 0.0
H190 H 0.22705 0.22751 0.91857 0.0
H191 H 0.21308 0.21148 0.89027 0.0
H192 H 0.18233 0.20952 0.85578 0.0
H193 H 0.15357 0.22159 0.83934 0.0
H194 H 0.15661 0.17764 0.79697 0.0
H195 H 0.18541 0.16536 0.81322 0.0
N196 N 0.21275 0.16343 0.83909 0.0
N197 N 0.23594 0.16559 0.86402 0.0
N198 N 0.21132 0.18773 0.86188 0.0
C199 C 0.22878 0.15662 0.8481 0.0
C200 C 0.22736 0.18113 0.87104 0.0
C201 C 0.20388 0.17898 0.84588 0.0
C202 C 0.23859 0.13969 0.84062 0.0
C203 C 0.23233 0.13108 0.82333 0.0
C204 C 0.24189 0.11544 0.8162 0.0
C205 C 0.25781 0.10802 0.82622 0.0
C206 C 0.26402 0.1164 0.84352 0.0
C207 C 0.25453 0.13207 0.85065 0.0
C208 C 0.23563 0.19084 0.88841 0.0
C209 C 0.25295 0.18474 0.89709 0.0
C210 C 0.26089 0.194 0.91326 0.0
C211 C 0.25167 0.20949 0.92112 0.0
C212 C 0.23436 0.21556 0.91267 0.0
C213 C 0.22642 0.20637 0.89647 0.0
C214 C 0.18632 0.1864 0.83589 0.0
C215 C 0.17697 0.20236 0.84296 0.0
C216 C 0.88846 0.14896 0.81051 0.0
C217 C 0.8716 0.13918 0.81443 0.0
C218 C 0.86136 0.14468 0.83012 0.0
C219 C 0.86777 0.15994 0.84162 0.0
H220 H 0.86045 0.18594 0.89331 0.0
H221 H 0.8426 0.19441 0.92095 0.0
H222 H 0.8714 0.24885 0.92422 0.0
H223 H 0.88962 0.24047 0.89655 0.0
H224 H 0.92872 0.24475 0.87183 0.0
H225 H 0.95538 0.26402 0.86069 0.0
H226 H 0.95808 0.22806 0.81133 0.0
H227 H 0.93171 0.20873 0.82219 0.0
H228 H 0.90781 0.17164 0.81837 0.0
H229 H 0.89649 0.14493 0.7984 0.0
H230 H 0.84827 0.13732 0.8333 0.0
H231 H 0.85941 0.16395 0.85349 0.0
N232 N 0.88161 0.19178 0.865 0.0
N233 N 0.90212 0.21814 0.86998 0.0
N234 N 0.90585 0.19775 0.84402 0.0
C235 C 0.8871 0.20736 0.87549 0.0
C236 C 0.91162 0.21338 0.85424 0.0
C237 C 0.89089 0.18686 0.84925 0.0
C238 C 0.87654 0.21251 0.89261 0.0
C239 C 0.8631 0.19973 0.89986 0.0
C240 C 0.85287 0.20451 0.91571 0.0
C241 C 0.85571 0.22221 0.92466 0.0
C242 C 0.86907 0.23507 0.91755 0.0
C243 C 0.87947 0.23023 0.90174 0.0
C244 C 0.92796 0.22513 0.84794 0.0
C245 C 0.935 0.24088 0.85864 0.0
C246 C 0.95026 0.2519 0.85234 0.0
C247 C 0.95869 0.24739 0.83523 0.0
C248 C 0.95179 0.23171 0.8246 0.0
C249 C 0.93665 0.22068 0.83088 0.0
C250 C 0.8845 0.17008 0.83757 0.0
C251 C 0.89485 0.16427 0.82194 0.0
C252 C 0.80089 0.85571 0.89967 0.0
C253 C 0.80952 0.84148 0.91089 0.0
C254 C 0.82676 0.8338 0.90559 0.0
C255 C 0.83559 0.84053 0.88956 0.0
H256 H 0.87497 0.82638 0.85385 0.0
H257 H 0.90225 0.80847 0.8443 0.0
H258 H 0.9174 0.85349 0.80617 0.0
H259 H 0.88977 0.87186 0.81562 0.0
H260 H 0.86283 0.91466 0.82185 0.0
H261 H 0.85153 0.94534 0.80934 0.0
H262 H 0.79447 0.93074 0.82444 0.0
H263 H 0.80566 0.90047 0.83738 0.0
H264 H 0.80309 0.87387 0.87541 0.0
H265 H 0.78749 0.86168 0.90353 0.0
H266 H 0.83355 0.82273 0.91407 0.0
H267 H 0.84906 0.83445 0.8861 0.0
N268 N 0.85315 0.85419 0.85614 0.0
N269 N 0.85759 0.87803 0.8334 0.0
N270 N 0.83191 0.87938 0.85367 0.0
C271 C 0.86323 0.86138 0.84175 0.0
C272 C 0.84179 0.88703 0.83931 0.0
C273 C 0.83757 0.86303 0.86223 0.0
C274 C 0.88006 0.85071 0.83554 0.0
C275 C 0.884 0.83267 0.84343 0.0
C276 C 0.89963 0.8223 0.838 0.0
C277 C 0.91181 0.82966 0.8246 0.0
C278 C 0.90811 0.84761 0.81659 0.0
C279 C 0.89231 0.85806 0.82199 0.0
C280 C 0.83516 0.90513 0.83061 0.0
C281 C 0.84789 0.91799 0.82244 0.0
C282 C 0.84147 0.93555 0.81542 0.0
C283 C 0.82217 0.94038 0.81609 0.0
C284 C 0.80943 0.9274 0.82394 0.0
C285 C 0.81587 0.91007 0.83127 0.0
C286 C 0.82741 0.85523 0.87854 0.0
C287 C 0.80985 0.86264 0.88366 0.0
C288 C 0.11174 0.71414 0.68769 0.0
C289 C 0.1134 0.71625 0.7076 0.0
C290 C 0.13161 0.71618 0.71666 0.0
C291 C 0.14775 0.71344 0.70614 0.0
H292 H 0.18754 0.66573 0.70352 0.0
H293 H 0.20826 0.63942 0.71333 0.0
H294 H 0.24288 0.64993 0.66541 0.0
H295 H 0.22244 0.6762 0.65543 0.0
H296 H 0.21091 0.70433 0.6258 0.0
H297 H 0.22152 0.72249 0.59887 0.0
H298 H 0.17754 0.76345 0.60661 0.0
H299 H 0.16665 0.74528 0.63409 0.0
H300 H 0.12634 0.71032 0.66181 0.0
H301 H 0.09786 0.71409 0.68039 0.0
H302 H 0.13328 0.71788 0.73194 0.0
H303 H 0.16158 0.71292 0.71353 0.0
N304 N 0.17498 0.69328 0.6819 0.0
N305 N 0.19424 0.69859 0.6562 0.0
N306 N 0.16691 0.71687 0.6593 0.0
C307 C 0.19055 0.68878 0.6722 0.0
C308 C 0.18269 0.71266 0.64963 0.0
C309 C 0.16308 0.7072 0.67552 0.0
C310 C 0.20325 0.67313 0.67865 0.0
C311 C 0.19958 0.66252 0.69507 0.0
C312 C 0.21137 0.64749 0.70071 0.0
C313 C 0.22701 0.6428 0.69005 0.0
C314 C 0.23084 0.65338 0.67379 0.0
C315 C 0.21911 0.6684 0.66814 0.0
C316 C 0.18795 0.72337 0.63233 0.0
C317 C 0.20333 0.71715 0.6219 0.0
C318 C 0.20946 0.72751 0.60641 0.0
C319 C 0.20044 0.74435 0.60086 0.0
C320 C 0.18474 0.75049 0.61078 0.0
C321 C 0.17853 0.74007 0.62643 0.0
C322 C 0.14609 0.71142 0.68627 0.0
C323 C 0.12798 0.71208 0.67709 0.0
C324 C 0.85033 0.61622 0.70711 0.0
C325 C 0.83183 0.60982 0.70179 0.0
C326 C 0.82089 0.62028 0.68852 0.0
C327 C 0.82823 0.63684 0.6806 0.0
H328 H 0.81916 0.66883 0.63424 0.0
H329 H 0.80094 0.68189 0.60695 0.0
H330 H 0.83987 0.72963 0.60552 0.0
H331 H 0.85827 0.7168 0.63277 0.0
H332 H 0.89044 0.72108 0.66379 0.0
H333 H 0.91671 0.74008 0.678 0.0
H334 H 0.92522 0.69813 0.72199 0.0
H335 H 0.89884 0.67888 0.70797 0.0
H336 H 0.87195 0.63767 0.70366 0.0
H337 H 0.85898 0.60829 0.71738 0.0
H338 H 0.80659 0.61558 0.68427 0.0
H339 H 0.81927 0.64451 0.6704 0.0
N340 N 0.84492 0.66809 0.66123 0.0
N341 N 0.86627 0.69379 0.66053 0.0
N342 N 0.86971 0.67076 0.6846 0.0
C343 C 0.85085 0.68431 0.65284 0.0
C344 C 0.87583 0.6872 0.67637 0.0
C345 C 0.85416 0.66115 0.67703 0.0
C346 C 0.84019 0.6918 0.63582 0.0
C347 C 0.82396 0.68207 0.62812 0.0
C348 C 0.81351 0.68946 0.61251 0.0
C349 C 0.81909 0.70669 0.60435 0.0
C350 C 0.83539 0.71629 0.61171 0.0
C351 C 0.84586 0.70893 0.6273 0.0
C352 C 0.89237 0.69836 0.68473 0.0
C353 C 0.89787 0.71574 0.67645 0.0
C354 C 0.91292 0.72669 0.68452 0.0
C355 C 0.92287 0.72051 0.70102 0.0
C356 C 0.91769 0.70311 0.70922 0.0
C357 C 0.90259 0.69213 0.70118 0.0
C358 C 0.84671 0.6435 0.68588 0.0
C359 C 0.85768 0.63302 0.69932 0.0
C360 C 0.84336 0.33212 0.6184 0.0
C361 C 0.82511 0.33969 0.6154 0.0
C362 C 0.81836 0.35242 0.62881 0.0
C363 C 0.82962 0.35741 0.64503 0.0
H364 H 0.83621 0.39904 0.68731 0.0
H365 H 0.82532 0.42347 0.70895 0.0
H366 H 0.86593 0.40486 0.75242 0.0
H367 H 0.87716 0.38047 0.73086 0.0
H368 H 0.90385 0.32161 0.66609 0.0
H369 H 0.93291 0.30424 0.67496 0.0
H370 H 0.93777 0.33447 0.72824 0.0
H371 H 0.90887 0.35197 0.71962 0.0
H372 H 0.86852 0.33073 0.63665 0.0
H373 H 0.84879 0.32222 0.60823 0.0
H374 H 0.8043 0.35837 0.62678 0.0
H375 H 0.82387 0.36717 0.65514 0.0
N376 N 0.8538 0.36831 0.6779 0.0
N377 N 0.88015 0.36276 0.69866 0.0
N378 N 0.87578 0.34486 0.67059 0.0
C379 C 0.86403 0.37259 0.69426 0.0
C380 C 0.88619 0.34891 0.68693 0.0
C381 C 0.85951 0.35446 0.66597 0.0
C382 C 0.85758 0.3877 0.70729 0.0
C383 C 0.84292 0.40012 0.70143 0.0
C384 C 0.83671 0.41417 0.71375 0.0
C385 C 0.8449 0.41602 0.73222 0.0
C386 C 0.85953 0.40372 0.73817 0.0
C387 C 0.8659 0.38978 0.72579 0.0
C388 C 0.9039 0.33827 0.6921 0.0
C389 C 0.91106 0.32462 0.6797 0.0
C390 C 0.92769 0.31466 0.68472 0.0
C391 C 0.93746 0.3181 0.70224 0.0
C392 C 0.93042 0.33164 0.71465 0.0
C393 C 0.91387 0.34164 0.70965 0.0
C394 C 0.84784 0.34964 0.64832 0.0
C395 C 0.85458 0.33698 0.63471 0.0
C396 C 0.13259 0.36708 0.73705 0.0
C397 C 0.12646 0.34897 0.73079 0.0
C398 C 0.13638 0.33984 0.71659 0.0
C399 C 0.1522 0.34864 0.7088 0.0
H400 H 0.18399 0.37407 0.64906 0.0
H401 H 0.19942 0.36389 0.62017 0.0
H402 H 0.25035 0.35084 0.65383 0.0
H403 H 0.23529 0.3622 0.68249 0.0
H404 H 0.23361 0.41735 0.70185 0.0
H405 H 0.24676 0.44691 0.71546 0.0
H406 H 0.19824 0.45207 0.75017 0.0
H407 H 0.18482 0.42232 0.73671 0.0
H408 H 0.1529 0.38978 0.73461 0.0
H409 H 0.12506 0.37441 0.74791 0.0
H410 H 0.13183 0.32588 0.71153 0.0
H411 H 0.15954 0.34114 0.69793 0.0
N412 N 0.18376 0.3685 0.69166 0.0
N413 N 0.20775 0.39206 0.69377 0.0
N414 N 0.1837 0.39166 0.71576 0.0
C415 C 0.19982 0.37652 0.68494 0.0
C416 C 0.1997 0.39985 0.70911 0.0
C417 C 0.1757 0.3759 0.70725 0.0
C418 C 0.20848 0.36881 0.6679 0.0
C419 C 0.19844 0.36895 0.65021 0.0
C420 C 0.20727 0.36318 0.63375 0.0
C421 C 0.22608 0.35658 0.63477 0.0
C422 C 0.23588 0.35593 0.65263 0.0
C423 C 0.22728 0.36234 0.66898 0.0
C424 C 0.20808 0.4174 0.7181 0.0
C425 C 0.22569 0.42464 0.71243 0.0
C426 C 0.23328 0.44153 0.72021 0.0
C427 C 0.22345 0.45161 0.73377 0.0
C428 C 0.20601 0.44442 0.73973 0.0
C429 C 0.19841 0.42742 0.732 0.0
C430 C 0.15855 0.36674 0.71514 0.0
C431 C 0.14852 0.37584 0.72939 0.0
C432 C 0.11742 0.29671 0.34908 0.0
C433 C 0.10918 0.30126 0.33118 0.0
C434 C 0.11802 0.3149 0.31991 0.0
C435 C 0.13472 0.32415 0.32656 0.0
H436 H 0.17125 0.36574 0.31294 0.0
H437 H 0.18257 0.39234 0.2942 0.0
H438 H 0.22303 0.40777 0.33952 0.0
H439 H 0.21182 0.38096 0.35865 0.0
H440 H 0.21543 0.35088 0.3961 0.0
H441 H 0.22924 0.34073 0.42707 0.0
H442 H 0.18626 0.2968 0.43014 0.0
H443 H 0.17235 0.30665 0.39944 0.0
H444 H 0.14006 0.30226 0.36972 0.0
H445 H 0.11068 0.2863 0.35799 0.0
H446 H 0.11177 0.31863 0.30609 0.0
H447 H 0.14104 0.33477 0.31758 0.0
N448 N 0.16758 0.34499 0.34207 0.0
N449 N 0.19137 0.35011 0.36611 0.0
N450 N 0.16855 0.32572 0.3691 0.0
C451 C 0.18312 0.35498 0.34888 0.0
C452 C 0.18411 0.33538 0.3763 0.0
C453 C 0.16019 0.33038 0.35205 0.0
C454 C 0.19057 0.3711 0.33744 0.0
C455 C 0.18258 0.37469 0.31907 0.0
C456 C 0.18903 0.38993 0.30824 0.0
C457 C 0.20358 0.40203 0.31547 0.0
C458 C 0.21175 0.39856 0.33371 0.0
C459 C 0.20533 0.38321 0.3446 0.0
C460 C 0.19276 0.32962 0.39513 0.0
C461 C 0.2089 0.33907 0.40333 0.0
C462 C 0.21681 0.3333 0.42102 0.0
C463 C 0.20878 0.31798 0.43081 0.0
C464 C 0.19268 0.3086 0.42278 0.0
C465 C 0.18478 0.31432 0.40516 0.0
C466 C 0.14293 0.31992 0.34464 0.0
C467 C 0.13418 0.30591 0.35574 0.0
C468 C 0.14454 0.70641 0.3455 0.0
C469 C 0.13363 0.6993 0.32989 0.0
C470 C 0.13928 0.68248 0.32105 0.0
C471 C 0.15566 0.67289 0.32785 0.0
H472 H 0.19276 0.62456 0.32025 0.0
H473 H 0.20632 0.59689 0.30637 0.0
H474 H 0.25639 0.6039 0.34357 0.0
H475 H 0.24274 0.63132 0.35738 0.0
H476 H 0.24348 0.66005 0.39212 0.0
H477 H 0.25892 0.67463 0.42063 0.0
H478 H 0.20925 0.70846 0.42833 0.0
H479 H 0.19374 0.69422 0.39995 0.0
H480 H 0.16869 0.70294 0.36445 0.0
H481 H 0.14044 0.71936 0.3525 0.0
H482 H 0.13101 0.67678 0.30895 0.0
H483 H 0.15966 0.65994 0.32082 0.0
N484 N 0.19143 0.65481 0.34262 0.0
N485 N 0.21584 0.65339 0.36658 0.0
N486 N 0.19244 0.67656 0.36797 0.0
C487 C 0.20753 0.64644 0.35011 0.0
C488 C 0.20833 0.66838 0.37565 0.0
C489 C 0.18387 0.67005 0.35151 0.0
C490 C 0.21602 0.62962 0.34086 0.0
C491 C 0.20634 0.61964 0.32604 0.0
C492 C 0.21403 0.60308 0.31849 0.0
C493 C 0.23124 0.59521 0.32612 0.0
C494 C 0.24187 0.60692 0.33921 0.0
C495 C 0.2342 0.62338 0.34684 0.0
C496 C 0.2174 0.67606 0.39359 0.0
C497 C 0.23574 0.67044 0.39998 0.0
C498 C 0.24459 0.6787 0.41628 0.0
C499 C 0.23517 0.69255 0.42656 0.0
C500 C 0.21669 0.69773 0.4206 0.0
C501 C 0.20791 0.68962 0.40429 0.0
C502 C 0.16657 0.67995 0.34366 0.0
C503 C 0.16074 0.69689 0.35231 0.0
C504 C 0.83195 0.63626 0.32385 0.0
C505 C 0.81503 0.63235 0.33297 0.0
C506 C 0.80982 0.64406 0.34794 0.0
C507 C 0.82138 0.65957 0.35365 0.0
H508 H 0.82682 0.70014 0.39395 0.0
H509 H 0.81782 0.71869 0.42134 0.0
H510 H 0.86463 0.75754 0.41342 0.0
H511 H 0.87394 0.73903 0.38583 0.0
H512 H 0.90119 0.73128 0.35121 0.0
H513 H 0.92996 0.73885 0.33434 0.0
H514 H 0.92246 0.68752 0.30125 0.0
H515 H 0.89354 0.67974 0.31792 0.0
H516 H 0.85643 0.65441 0.32211 0.0
H517 H 0.83616 0.62732 0.31226 0.0
H518 H 0.79679 0.64121 0.35512 0.0
H519 H 0.81692 0.66838 0.36522 0.0
N520 N 0.84581 0.6912 0.36536 0.0
N521 N 0.8725 0.71087 0.36142 0.0
N522 N 0.86645 0.68481 0.34102 0.0
C523 C 0.85665 0.70648 0.37101 0.0
C524 C 0.87753 0.70009 0.34639 0.0
C525 C 0.85054 0.68029 0.35042 0.0
C526 C 0.85116 0.71803 0.38759 0.0
C527 C 0.83526 0.71263 0.3979 0.0
C528 C 0.83005 0.72321 0.4136 0.0
C529 C 0.84054 0.73945 0.41933 0.0
C530 C 0.85636 0.74503 0.40913 0.0
C531 C 0.86164 0.73441 0.3934 0.0
C532 C 0.89496 0.70486 0.336 0.0
C533 C 0.90556 0.72156 0.34034 0.0
C534 C 0.92201 0.72596 0.33069 0.0
C535 C 0.92827 0.71376 0.31656 0.0
C536 C 0.9178 0.69712 0.31209 0.0
C537 C 0.90127 0.69273 0.32167 0.0
C538 C 0.83836 0.66368 0.34446 0.0
C539 C 0.8435 0.65177 0.3295 0.0
C540 C 0.82662 0.34663 0.41941 0.0
C541 C 0.83118 0.32734 0.42188 0.0
C542 C 0.84379 0.31899 0.40957 0.0
C543 C 0.85155 0.32962 0.39495 0.0
H544 H 0.89775 0.32951 0.36021 0.0
H545 H 0.92464 0.31737 0.34294 0.0
H546 H 0.92092 0.36516 0.30476 0.0
H547 H 0.8943 0.37745 0.32169 0.0
H548 H 0.86486 0.40479 0.32313 0.0
H549 H 0.85185 0.43354 0.30919 0.0
H550 H 0.8115 0.4367 0.35324 0.0
H551 H 0.82449 0.40736 0.36766 0.0
H552 H 0.8302 0.37199 0.4029 0.0
H553 H 0.81686 0.35334 0.42873 0.0
H554 H 0.84742 0.30413 0.41111 0.0
H555 H 0.86109 0.32259 0.38564 0.0
N556 N 0.86994 0.35269 0.36724 0.0
N557 N 0.8693 0.37838 0.34629 0.0
N558 N 0.84677 0.37638 0.36975 0.0
C559 C 0.87736 0.36201 0.35235 0.0
C560 C 0.8541 0.38576 0.35469 0.0
C561 C 0.8547 0.35974 0.37608 0.0
C562 C 0.8938 0.35446 0.34238 0.0
C563 C 0.90266 0.33746 0.34817 0.0
C564 C 0.918 0.33051 0.33836 0.0
C565 C 0.92464 0.34043 0.32264 0.0
C566 C 0.91593 0.35736 0.31688 0.0
C567 C 0.90069 0.36433 0.32663 0.0
C568 C 0.84577 0.4036 0.34667 0.0
C569 C 0.85324 0.41143 0.33008 0.0
C570 C 0.84583 0.42796 0.32197 0.0
C571 C 0.83079 0.43722 0.33017 0.0
C572 C 0.82318 0.42969 0.34674 0.0
C573 C 0.8306 0.41294 0.35493 0.0
C574 C 0.84669 0.34883 0.39209 0.0
C575 C 0.83417 0.35724 0.40457 0.0
C576 C 0.64473 0.23032 0.66858 0.0
C577 C 0.63512 0.22509 0.68484 0.0
C578 C 0.64147 0.20946 0.6956 0.0
C579 C 0.65731 0.19925 0.69028 0.0
H580 H 0.70276 0.16622 0.7138 0.0
H581 H 0.71709 0.14232 0.73516 0.0
H582 H 0.74242 0.1156 0.6875 0.0
H583 H 0.72872 0.13978 0.66616 0.0
H584 H 0.74723 0.18801 0.64205 0.0
H585 H 0.76389 0.20092 0.61489 0.0
H586 H 0.71001 0.21426 0.58679 0.0
H587 H 0.69336 0.20217 0.61418 0.0
H588 H 0.6677 0.22453 0.6506 0.0
H589 H 0.63998 0.24235 0.66011 0.0
H590 H 0.63418 0.20523 0.70819 0.0
H591 H 0.66185 0.18731 0.69898 0.0
N592 N 0.69136 0.1798 0.6801 0.0
N593 N 0.71594 0.17473 0.65927 0.0
N594 N 0.69305 0.19803 0.65234 0.0
C595 C 0.70711 0.17014 0.67551 0.0
C596 C 0.70896 0.18865 0.64761 0.0
C597 C 0.68418 0.19374 0.6686 0.0
C598 C 0.71477 0.15501 0.68829 0.0
C599 C 0.71126 0.15516 0.70783 0.0
C600 C 0.71936 0.14147 0.72007 0.0
C601 C 0.73075 0.12713 0.71292 0.0
C602 C 0.73363 0.12651 0.6933 0.0
C603 C 0.7259 0.14042 0.68115 0.0
C604 C 0.71899 0.19425 0.63032 0.0
C605 C 0.73894 0.19346 0.62996 0.0
C606 C 0.74849 0.20078 0.61444 0.0
C607 C 0.73822 0.20857 0.59879 0.0
C608 C 0.71823 0.20833 0.59869 0.0
C609 C 0.70874 0.20151 0.61439 0.0
C610 C 0.66711 0.20443 0.67401 0.0
C611 C 0.66055 0.22008 0.66319 0.0
C612 C 0.35081 0.11847 0.704 0.0
C613 C 0.33359 0.11268 0.69482 0.0
C614 C 0.32568 0.1237 0.68 0.0
C615 C 0.33473 0.14047 0.67453 0.0
H616 H 0.33336 0.17967 0.6332 0.0
H617 H 0.31634 0.19762 0.60835 0.0
H618 H 0.34811 0.24823 0.62487 0.0
H619 H 0.36552 0.2303 0.64994 0.0
H620 H 0.40354 0.22313 0.68026 0.0
H621 H 0.43203 0.23431 0.69858 0.0
H622 H 0.43478 0.18092 0.72844 0.0
H623 H 0.40641 0.16956 0.71037 0.0
H624 H 0.37307 0.13955 0.70605 0.0
H625 H 0.35706 0.11009 0.71552 0.0
H626 H 0.31237 0.1194 0.67281 0.0
H627 H 0.3281 0.14872 0.66313 0.0
N628 N 0.35289 0.17547 0.66424 0.0
N629 N 0.37653 0.19907 0.66888 0.0
N630 N 0.377 0.1715 0.6878 0.0
C631 C 0.36047 0.19249 0.65929 0.0
C632 C 0.38495 0.18853 0.68315 0.0
C633 C 0.36095 0.16489 0.67844 0.0
C634 C 0.35083 0.20354 0.6437 0.0
C635 C 0.33683 0.19462 0.63165 0.0
C636 C 0.32704 0.20483 0.61738 0.0
C637 C 0.33088 0.22422 0.6149 0.0
C638 C 0.34492 0.23324 0.62669 0.0
C639 C 0.35489 0.22297 0.64093 0.0
C640 C 0.40254 0.19543 0.6938 0.0
C641 C 0.41021 0.2137 0.69064 0.0
C642 C 0.42651 0.22013 0.70109 0.0
C643 C 0.43551 0.20841 0.7148 0.0
C644 C 0.42807 0.19014 0.71787 0.0
C645 C 0.41178 0.18372 0.70751 0.0
C646 C 0.35188 0.1466 0.68385 0.0
C647 C 0.3599 0.13531 0.69857 0.0
C648 C 0.34271 0.80991 0.65305 0.0
C649 C 0.33459 0.82167 0.63885 0.0
C650 C 0.33407 0.84138 0.64203 0.0
C651 C 0.34223 0.8493 0.65878 0.0
H652 H 0.33516 0.8907 0.70338 0.0
H653 H 0.32537 0.92075 0.71703 0.0
H654 H 0.37876 0.92524 0.74928 0.0
H655 H 0.38876 0.89496 0.73583 0.0
H656 H 0.42461 0.86279 0.71626 0.0
H657 H 0.45499 0.84688 0.72325 0.0
H658 H 0.42566 0.79266 0.72429 0.0
H659 H 0.39546 0.8084 0.71626 0.0
H660 H 0.35814 0.80854 0.67997 0.0
H661 H 0.34311 0.79466 0.65095 0.0
H662 H 0.32781 0.8507 0.63128 0.0
H663 H 0.34215 0.8646 0.66056 0.0
N664 N 0.35766 0.86337 0.69606 0.0
N665 N 0.38492 0.86321 0.71662 0.0
N666 N 0.37844 0.8376 0.69576 0.0
C667 C 0.36864 0.87185 0.71017 0.0
C668 C 0.38978 0.84602 0.70951 0.0
C669 C 0.36247 0.84625 0.68881 0.0
C670 C 0.36281 0.8903 0.71844 0.0
C671 C 0.3449 0.89798 0.71338 0.0
C672 C 0.33921 0.91516 0.72121 0.0
C673 C 0.35128 0.92516 0.73424 0.0
C674 C 0.36919 0.91767 0.73934 0.0
C675 C 0.37487 0.90036 0.73159 0.0
C676 C 0.40774 0.8368 0.71578 0.0
C677 C 0.42467 0.8475 0.71814 0.0
C678 C 0.44201 0.83842 0.72203 0.0
C679 C 0.44261 0.81856 0.72423 0.0
C680 C 0.42556 0.80796 0.72254 0.0
C681 C 0.40833 0.81696 0.71802 0.0
C682 C 0.35141 0.83768 0.67248 0.0
C683 C 0.35129 0.81787 0.66959 0.0
C684 C 0.64228 0.85646 0.74678 0.0
C685 C 0.63333 0.83916 0.74149 0.0
C686 C 0.63968 0.82927 0.72572 0.0
C687 C 0.6547 0.83649 0.71539 0.0
H688 H 0.73038 0.86793 0.66254 0.0
H689 H 0.74105 0.85259 0.63412 0.0
H690 H 0.69804 0.80889 0.63879 0.0
H691 H 0.68686 0.82435 0.66761 0.0
H692 H 0.74015 0.89408 0.69887 0.0
H693 H 0.75507 0.92494 0.69946 0.0
H694 H 0.70377 0.94899 0.72015 0.0
H695 H 0.6888 0.9179 0.71915 0.0
H696 H 0.6639 0.87714 0.74086 0.0
H697 H 0.63751 0.86438 0.75884 0.0
H698 H 0.63291 0.81594 0.72134 0.0
H699 H 0.65913 0.82841 0.70329 0.0
N700 N 0.68606 0.85123 0.69441 0.0
N701 N 0.7092 0.87456 0.6893 0.0
N702 N 0.68834 0.87856 0.71395 0.0
C703 C 0.7008 0.85779 0.68427 0.0
C704 C 0.70323 0.88505 0.70394 0.0
C705 C 0.67979 0.86145 0.70937 0.0
C706 C 0.70761 0.84746 0.66745 0.0
C707 C 0.72307 0.85504 0.65772 0.0
C708 C 0.72927 0.8463 0.6414 0.0
C709 C 0.7203 0.82972 0.63436 0.0
C710 C 0.7051 0.82175 0.64407 0.0
C711 C 0.69877 0.83059 0.66051 0.0
C712 C 0.71283 0.90368 0.70777 0.0
C713 C 0.73181 0.90615 0.70294 0.0
C714 C 0.74022 0.9242 0.70271 0.0
C715 C 0.72969 0.94074 0.70615 0.0
C716 C 0.71166 0.93769 0.71405 0.0
C717 C 0.70315 0.91947 0.71438 0.0
C718 C 0.66375 0.85388 0.72052 0.0
C719 C 0.65733 0.86375 0.73642 0.0
C720 C 0.58975 0.80777 0.35738 0.0
C721 C 0.58237 0.81283 0.33926 0.0
C722 C 0.59311 0.82494 0.32791 0.0
C723 C 0.61095 0.83185 0.33453 0.0
H724 H 0.6499 0.88008 0.33044 0.0
H725 H 0.66619 0.90847 0.31829 0.0
H726 H 0.7166 0.89477 0.35225 0.0
H727 H 0.70079 0.86664 0.36437 0.0
H728 H 0.70273 0.8265 0.38633 0.0
H729 H 0.71981 0.81719 0.41507 0.0
H730 H 0.6667 0.80273 0.44011 0.0
H731 H 0.64966 0.81232 0.41129 0.0
H732 H 0.61302 0.81021 0.37793 0.0
H733 H 0.58163 0.79857 0.36641 0.0
H734 H 0.58763 0.82906 0.3139 0.0
H735 H 0.61889 0.84109 0.32538 0.0
N736 N 0.64652 0.84833 0.35076 0.0
N737 N 0.67314 0.84507 0.37162 0.0
N738 N 0.64687 0.82467 0.37448 0.0
C739 C 0.66426 0.85428 0.35691 0.0
C740 C 0.66467 0.83035 0.38047 0.0
C741 C 0.63777 0.83343 0.35945 0.0
C742 C 0.67395 0.87101 0.34845 0.0
C743 C 0.66448 0.88304 0.33524 0.0
C744 C 0.67372 0.89929 0.32833 0.0
C745 C 0.69255 0.9037 0.33449 0.0
C746 C 0.70206 0.89164 0.34742 0.0
C747 C 0.69291 0.87551 0.3543 0.0
C748 C 0.67476 0.82156 0.39705 0.0
C749 C 0.69465 0.82197 0.39831 0.0
C750 C 0.70445 0.8171 0.4152 0.0
C751 C 0.69474 0.81309 0.43194 0.0
C752 C 0.67493 0.80927 0.42936 0.0
C753 C 0.665 0.81397 0.41228 0.0
C754 C 0.61854 0.82662 0.35259 0.0
C755 C 0.6077 0.81448 0.36392 0.0
C756 C 0.61397 0.21093 0.31891 0.0
C757 C 0.60399 0.19998 0.30497 0.0
C758 C 0.61091 0.18211 0.3001 0.0
C759 C 0.62762 0.17527 0.30907 0.0
H760 H 0.66801 0.13612 0.30338 0.0
H761 H 0.68074 0.10676 0.29105 0.0
H762 H 0.72082 0.10407 0.33903 0.0
H763 H 0.70821 0.13374 0.35168 0.0
H764 H 0.70774 0.17037 0.38361 0.0
H765 H 0.72084 0.18855 0.41121 0.0
H766 H 0.6825 0.23427 0.3975 0.0
H767 H 0.66928 0.21643 0.37019 0.0
H768 H 0.63785 0.21286 0.33873 0.0
H769 H 0.60876 0.22474 0.3229 0.0
H770 H 0.6033 0.17342 0.28947 0.0
H771 H 0.63254 0.16136 0.30507 0.0
N772 N 0.66297 0.16243 0.32711 0.0
N773 N 0.6868 0.16465 0.35155 0.0
N774 N 0.66317 0.18791 0.34844 0.0
C775 C 0.67882 0.15527 0.33607 0.0
C776 C 0.679 0.1811 0.35779 0.0
C777 C 0.65504 0.17867 0.33315 0.0
C778 C 0.68703 0.13741 0.32864 0.0
C779 C 0.67954 0.12941 0.31144 0.0
C780 C 0.6868 0.11258 0.30427 0.0
C781 C 0.70168 0.10327 0.31412 0.0
C782 C 0.7093 0.11111 0.33124 0.0
C783 C 0.70209 0.12807 0.33842 0.0
C784 C 0.6874 0.19184 0.37457 0.0
C785 C 0.70208 0.18428 0.38645 0.0
C786 C 0.70956 0.19462 0.40227 0.0
C787 C 0.70259 0.21274 0.4064 0.0
C788 C 0.68803 0.22031 0.39459 0.0
C789 C 0.6805 0.21 0.37894 0.0
C790 C 0.63759 0.18612 0.32323 0.0
C791 C 0.63057 0.20408 0.32797 0.0
C792 C 0.34258 0.13881 0.31584 0.0
C793 C 0.32509 0.13041 0.31997 0.0
C794 C 0.31493 0.13773 0.33502 0.0
C795 C 0.32215 0.15333 0.34571 0.0
H796 H 0.32221 0.18759 0.40304 0.0
H797 H 0.31108 0.20433 0.43127 0.0
H798 H 0.33559 0.25673 0.4114 0.0
H799 H 0.34659 0.24039 0.38353 0.0
H800 H 0.39046 0.23245 0.37373 0.0
H801 H 0.4203 0.24737 0.36518 0.0
H802 H 0.42559 0.20643 0.32021 0.0
H803 H 0.39553 0.19117 0.3286 0.0
H804 H 0.36336 0.16037 0.32274 0.0
H805 H 0.35065 0.13336 0.30432 0.0
H806 H 0.30138 0.13141 0.33842 0.0
H807 H 0.31395 0.15871 0.35716 0.0
N808 N 0.33786 0.18692 0.36669 0.0
N809 N 0.36212 0.21 0.3707 0.0
N810 N 0.3646 0.18641 0.34767 0.0
C811 C 0.34518 0.20274 0.37578 0.0
C812 C 0.37199 0.202 0.35683 0.0
C813 C 0.34756 0.17873 0.35241 0.0
C814 C 0.3354 0.21262 0.39114 0.0
C815 C 0.32482 0.20274 0.40454 0.0
C816 C 0.31859 0.21224 0.42069 0.0
C817 C 0.32274 0.23172 0.42346 0.0
C818 C 0.33238 0.24171 0.40959 0.0
C819 C 0.33865 0.23229 0.39366 0.0
C820 C 0.39047 0.21059 0.35179 0.0
C821 C 0.39789 0.22648 0.36203 0.0
C822 C 0.41498 0.23506 0.35722 0.0
C823 C 0.42503 0.22798 0.34211 0.0
C824 C 0.41794 0.21203 0.33195 0.0
C825 C 0.40078 0.20337 0.33676 0.0
C826 C 0.33971 0.16187 0.34156 0.0
C827 C 0.34981 0.1543 0.32648 0.0
C828 C 0.29289 0.85523 0.40917 0.0
C829 C 0.30478 0.84214 0.4187 0.0
C830 C 0.3227 0.83843 0.41165 0.0
C831 C 0.32864 0.84756 0.39526 0.0
H832 H 0.36666 0.84229 0.35257 0.0
H833 H 0.39417 0.83068 0.33621 0.0
H834 H 0.38728 0.87506 0.29443 0.0
H835 H 0.35968 0.88687 0.3106 0.0
H836 H 0.32254 0.91296 0.31113 0.0
H837 H 0.30655 0.94182 0.30006 0.0
H838 H 0.2767 0.94449 0.35209 0.0
H839 H 0.29241 0.91546 0.36328 0.0
H840 H 0.28937 0.87454 0.38583 0.0
H841 H 0.27894 0.85815 0.41431 0.0
H842 H 0.33204 0.8283 0.41877 0.0
H843 H 0.34253 0.84431 0.39019 0.0
N844 N 0.33833 0.86399 0.35898 0.0
N845 N 0.33437 0.8881 0.33618 0.0
N846 N 0.3136 0.88579 0.36125 0.0
C847 C 0.34408 0.87272 0.34293 0.0
C848 C 0.31913 0.89475 0.34528 0.0
C849 C 0.32308 0.8704 0.36819 0.0
C850 C 0.36084 0.86557 0.33295 0.0
C851 C 0.37091 0.84964 0.3399 0.0
C852 C 0.38667 0.84294 0.33058 0.0
C853 C 0.39273 0.852 0.31413 0.0
C854 C 0.38279 0.86787 0.30711 0.0
C855 C 0.36701 0.87459 0.31641 0.0
C856 C 0.30886 0.91185 0.33815 0.0
C857 C 0.31249 0.91955 0.32021 0.0
C858 C 0.30331 0.93602 0.31381 0.0
C859 C 0.29038 0.94521 0.32522 0.0
C860 C 0.28651 0.9375 0.34302 0.0
C861 C 0.29556 0.92092 0.34938 0.0
C862 C 0.31681 0.86074 0.38566 0.0
C863 C 0.2989 0.86455 0.39289 0.0
C864 C 0.60905 0.74293 0.19163 0.0
C865 C 0.60024 0.73361 0.20648 0.0
C866 C 0.60842 0.71703 0.21421 0.0
C867 C 0.62517 0.70982 0.20699 0.0
H868 H 0.7047 0.67012 0.1658 0.0
H869 H 0.72337 0.64374 0.17854 0.0
H870 H 0.69173 0.64423 0.2295 0.0
H871 H 0.6727 0.67086 0.21685 0.0
H872 H 0.70221 0.70263 0.13684 0.0
H873 H 0.71461 0.71948 0.10956 0.0
H874 H 0.67528 0.76494 0.11743 0.0
H875 H 0.66258 0.74824 0.14469 0.0
H876 H 0.63194 0.74346 0.17289 0.0
H877 H 0.60297 0.75575 0.18552 0.0
H878 H 0.60179 0.70967 0.22574 0.0
H879 H 0.63111 0.69696 0.2131 0.0
N880 N 0.66068 0.69606 0.19087 0.0
N881 N 0.683 0.69861 0.16711 0.0
N882 N 0.65834 0.72042 0.1681 0.0
C883 C 0.67654 0.6895 0.18263 0.0
C884 C 0.67403 0.71408 0.15978 0.0
C885 C 0.65146 0.71159 0.18356 0.0
C886 C 0.68715 0.67277 0.19032 0.0
C887 C 0.70157 0.6647 0.17973 0.0
C888 C 0.7123 0.64955 0.18694 0.0
C889 C 0.70897 0.64211 0.20494 0.0
C890 C 0.69449 0.64985 0.21555 0.0
C891 C 0.68362 0.66502 0.20828 0.0
C892 C 0.68139 0.72407 0.14302 0.0
C893 C 0.69612 0.71618 0.1328 0.0
C894 C 0.70321 0.72574 0.11718 0.0
C895 C 0.69579 0.74336 0.11156 0.0
C896 C 0.68109 0.7513 0.1216 0.0
C897 C 0.67388 0.7417 0.13716 0.0
C898 C 0.63397 0.71909 0.19192 0.0
C899 C 0.62567 0.7358 0.18443 0.0
C900 C 0.32565 0.61772 0.19343 0.0
C901 C 0.3057 0.61654 0.19362 0.0
C902 C 0.29508 0.63277 0.18866 0.0
C903 C 0.30425 0.64974 0.18356 0.0
H904 H 0.30521 0.69275 0.13733 0.0
H905 H 0.29508 0.71315 0.11062 0.0
H906 H 0.34289 0.75075 0.12289 0.0
H907 H 0.35319 0.73062 0.14959 0.0
H908 H 0.37828 0.72532 0.18627 0.0
H909 H 0.40655 0.73524 0.20524 0.0
H910 H 0.40812 0.68062 0.23289 0.0
H911 H 0.37957 0.67045 0.21403 0.0
H912 H 0.35022 0.63536 0.18933 0.0
H913 H 0.33418 0.60544 0.19715 0.0
H914 H 0.27969 0.63228 0.1888 0.0
H915 H 0.29575 0.66204 0.17987 0.0
N916 N 0.32739 0.68086 0.16564 0.0
N917 N 0.35254 0.70239 0.1725 0.0
N918 N 0.35014 0.67436 0.19025 0.0
C919 C 0.33669 0.69745 0.16176 0.0
C920 C 0.35935 0.69105 0.1868 0.0
C921 C 0.33412 0.66922 0.17983 0.0
C922 C 0.33006 0.70994 0.14572 0.0
C923 C 0.3136 0.70535 0.13442 0.0
C924 C 0.30777 0.71699 0.11912 0.0
C925 C 0.3183 0.73339 0.11474 0.0
C926 C 0.33463 0.73811 0.126 0.0
C927 C 0.34044 0.72654 0.1413 0.0
C928 C 0.37656 0.69703 0.19854 0.0
C929 C 0.38452 0.71534 0.19638 0.0
C930 C 0.40068 0.72111 0.20727 0.0
C931 C 0.40935 0.70872 0.22054 0.0
C932 C 0.40154 0.69043 0.22282 0.0
C933 C 0.38524 0.68466 0.21198 0.0
C934 C 0.32423 0.65102 0.18397 0.0
C935 C 0.33481 0.63483 0.18898 0.0
C936 C 0.35325 0.32212 0.12169 0.0
C937 C 0.33706 0.32996 0.11265 0.0
C938 C 0.32869 0.34591 0.12076 0.0
C939 C 0.33644 0.35387 0.13775 0.0
H940 H 0.32884 0.3952 0.18114 0.0
H941 H 0.31599 0.42296 0.19695 0.0
H942 H 0.36384 0.4235 0.23735 0.0
H943 H 0.3768 0.39569 0.22182 0.0
H944 H 0.40397 0.35771 0.2242 0.0
H945 H 0.43287 0.3419 0.23656 0.0
H946 H 0.4371 0.31245 0.18322 0.0
H947 H 0.4083 0.32785 0.17082 0.0
H948 H 0.37351 0.32349 0.14507 0.0
H949 H 0.3599 0.30984 0.11564 0.0
H950 H 0.31616 0.35215 0.11393 0.0
H951 H 0.3297 0.36616 0.14368 0.0
N952 N 0.35371 0.36927 0.17386 0.0
N953 N 0.37826 0.36816 0.19771 0.0
N954 N 0.37751 0.34638 0.17253 0.0
C955 C 0.36209 0.37637 0.19033 0.0
C956 C 0.38605 0.35315 0.18883 0.0
C957 C 0.36141 0.35419 0.16488 0.0
C958 C 0.35392 0.39309 0.20012 0.0
C959 C 0.33664 0.40111 0.19343 0.0
C960 C 0.32923 0.41699 0.20248 0.0
C961 C 0.3389 0.42527 0.21839 0.0
C962 C 0.35608 0.4173 0.22518 0.0
C963 C 0.36347 0.40137 0.2162 0.0
C964 C 0.40373 0.34406 0.19653 0.0
C965 C 0.41104 0.34788 0.2151 0.0
C966 C 0.4275 0.33883 0.2222 0.0
C967 C 0.43702 0.32595 0.2108 0.0
C968 C 0.42988 0.32224 0.19225 0.0
C969 C 0.41339 0.33111 0.18522 0.0
C970 C 0.35273 0.34603 0.14689 0.0
C971 C 0.36099 0.33003 0.13857 0.0
C972 C 0.63756 0.35894 0.23072 0.0
C973 C 0.62812 0.34266 0.22355 0.0
C974 C 0.6344 0.33391 0.20707 0.0
C975 C 0.64996 0.34155 0.19776 0.0
H976 H 0.68876 0.33179 0.15612 0.0
H977 H 0.70234 0.31584 0.12921 0.0
H978 H 0.74044 0.36342 0.12175 0.0
H979 H 0.72697 0.37969 0.14886 0.0
H980 H 0.72851 0.41406 0.1827 0.0
H981 H 0.74023 0.44405 0.19736 0.0
H982 H 0.69452 0.44235 0.23602 0.0
H983 H 0.68268 0.41282 0.22173 0.0
H984 H 0.65985 0.37924 0.22746 0.0
H985 H 0.63288 0.36582 0.24344 0.0
H986 H 0.62721 0.32128 0.2014 0.0
H987 H 0.65448 0.33464 0.185 0.0
N988 N 0.68338 0.35837 0.17994 0.0
N989 N 0.70534 0.38383 0.17794 0.0
N990 N 0.68276 0.38371 0.20136 0.0
C991 C 0.69829 0.36674 0.17127 0.0
C992 C 0.69751 0.39239 0.19307 0.0
C993 C 0.67557 0.36682 0.19505 0.0
C994 C 0.70671 0.35712 0.15477 0.0
C995 C 0.70001 0.33899 0.14885 0.0
C996 C 0.70776 0.32979 0.13343 0.0
C997 C 0.72234 0.33846 0.1235 0.0
C998 C 0.72915 0.35652 0.12925 0.0
C999 C 0.72143 0.36577 0.14477 0.0
C1000 C 0.7047 0.41088 0.20102 0.0
C1001 C 0.72091 0.42011 0.19425 0.0
C1002 C 0.72761 0.43721 0.20259 0.0
C1003 C 0.71821 0.44528 0.21778 0.0
C1004 C 0.70195 0.43629 0.22435 0.0
C1005 C 0.69526 0.41933 0.21609 0.0
C1006 C 0.65937 0.35807 0.20482 0.0
C1007 C 0.65298 0.36658 0.22148 0.0
C1008 C 0.62817 0.29087 0.84687 0.0
C1009 C 0.62045 0.29516 0.82867 0.0
C1010 C 0.62955 0.30885 0.81767 0.0
C1011 C 0.64591 0.31838 0.82482 0.0
H1012 H 0.68103 0.36253 0.81252 0.0
H1013 H 0.69295 0.38963 0.79462 0.0
H1014 H 0.73276 0.40353 0.84099 0.0
H1015 H 0.72107 0.37637 0.85912 0.0
H1016 H 0.724 0.34879 0.89516 0.0
H1017 H 0.74034 0.33873 0.92487 0.0
H1018 H 0.70338 0.28953 0.92694 0.0
H1019 H 0.68683 0.2994 0.89733 0.0
H1020 H 0.65012 0.29691 0.86824 0.0
H1021 H 0.62126 0.28045 0.85563 0.0
H1022 H 0.62374 0.31243 0.80362 0.0
H1023 H 0.65238 0.32902 0.81597 0.0
N1024 N 0.6775 0.34036 0.84127 0.0
N1025 N 0.70117 0.34564 0.86529 0.0
N1026 N 0.67918 0.32046 0.86799 0.0
C1027 C 0.69275 0.35065 0.84826 0.0
C1028 C 0.69452 0.33053 0.87525 0.0
C1029 C 0.67057 0.32527 0.851 0.0
C1030 C 0.70006 0.36717 0.83735 0.0
C1031 C 0.69232 0.37129 0.819 0.0
C1032 C 0.69911 0.38678 0.8087 0.0
C1033 C 0.71369 0.39854 0.8165 0.0
C1034 C 0.72147 0.39458 0.83475 0.0
C1035 C 0.71476 0.37903 0.84507 0.0
C1036 C 0.70407 0.3249 0.8937 0.0
C1037 C 0.71922 0.33588 0.90193 0.0
C1038 C 0.72857 0.3302 0.91896 0.0
C1039 C 0.72302 0.31343 0.92808 0.0
C1040 C 0.70781 0.30256 0.92012 0.0
C1041 C 0.69839 0.30825 0.90315 0.0
C1042 C 0.65361 0.31442 0.84319 0.0
C1043 C 0.64465 0.30036 0.85405 0.0
C1044 C 0.65708 0.69424 0.84695 0.0
C1045 C 0.64959 0.68542 0.83032 0.0
C1046 C 0.6581 0.66885 0.82381 0.0
C1047 C 0.67398 0.66128 0.83372 0.0
H1048 H 0.70656 0.61035 0.843 0.0
H1049 H 0.72201 0.58322 0.82869 0.0
H1050 H 0.77648 0.60314 0.85177 0.0
H1051 H 0.76102 0.63006 0.86672 0.0
H1052 H 0.75435 0.6556 0.9079 0.0
H1053 H 0.76771 0.67257 0.936 0.0
H1054 H 0.72363 0.71432 0.92977 0.0
H1055 H 0.7101 0.69759 0.9018 0.0
H1056 H 0.67842 0.69398 0.86959 0.0
H1057 H 0.65068 0.70704 0.85219 0.0
H1058 H 0.65249 0.66183 0.811 0.0
H1059 H 0.68025 0.64854 0.82823 0.0
N1060 N 0.70728 0.64642 0.85437 0.0
N1061 N 0.73109 0.64907 0.87877 0.0
N1062 N 0.70678 0.67158 0.87619 0.0
C1063 C 0.72335 0.63965 0.86332 0.0
C1064 C 0.7228 0.665 0.88539 0.0
C1065 C 0.69893 0.66244 0.86064 0.0
C1066 C 0.73258 0.62245 0.85589 0.0
C1067 C 0.7218 0.60885 0.84525 0.0
C1068 C 0.73059 0.59327 0.83715 0.0
C1069 C 0.7504 0.59116 0.83913 0.0
C1070 C 0.76117 0.60443 0.85016 0.0
C1071 C 0.75231 0.61982 0.85864 0.0
C1072 C 0.73111 0.67519 0.90247 0.0
C1073 C 0.74746 0.66839 0.91246 0.0
C1074 C 0.75514 0.67805 0.92854 0.0
C1075 C 0.74667 0.69471 0.93489 0.0
C1076 C 0.73038 0.7015 0.92505 0.0
C1077 C 0.72268 0.69188 0.90903 0.0
C1078 C 0.6817 0.67015 0.85036 0.0
C1079 C 0.67296 0.68671 0.85687 0.0
C1080 C 0.37042 0.6442 0.80725 0.0
C1081 C 0.35506 0.63396 0.81448 0.0
C1082 C 0.34917 0.63812 0.83271 0.0
C1083 C 0.35829 0.65244 0.84353 0.0
H1084 H 0.35245 0.6785 0.89094 0.0
H1085 H 0.33253 0.68806 0.91644 0.0
H1086 H 0.36484 0.74025 0.92358 0.0
H1087 H 0.38513 0.73087 0.89756 0.0
H1088 H 0.43019 0.72542 0.87662 0.0
H1089 H 0.461 0.73925 0.86856 0.0
H1090 H 0.45493 0.71408 0.81275 0.0
H1091 H 0.42437 0.69998 0.82067 0.0
H1092 H 0.39135 0.66642 0.8122 0.0
H1093 H 0.37514 0.64111 0.79315 0.0
H1094 H 0.33737 0.63034 0.83851 0.0
H1095 H 0.3532 0.65525 0.85754 0.0
N1096 N 0.37385 0.68429 0.86387 0.0
N1097 N 0.39745 0.70746 0.87034 0.0
N1098 N 0.39879 0.68773 0.84329 0.0
C1099 C 0.38103 0.69852 0.87509 0.0
C1100 C 0.40648 0.70208 0.85442 0.0
C1101 C 0.38244 0.67872 0.84804 0.0
C1102 C 0.37037 0.70402 0.89198 0.0
C1103 C 0.35552 0.69204 0.89786 0.0
C1104 C 0.34406 0.69742 0.9125 0.0
C1105 C 0.34715 0.71485 0.92175 0.0
C1106 C 0.36228 0.72671 0.91651 0.0
C1107 C 0.37385 0.72131 0.9017 0.0
C1108 C 0.42473 0.71146 0.84934 0.0
C1109 C 0.43531 0.72292 0.86256 0.0
C1110 C 0.45294 0.73087 0.858 0.0
C1111 C 0.46026 0.72776 0.84003 0.0
C1112 C 0.44955 0.71671 0.82668 0.0
C1113 C 0.43207 0.7086 0.83129 0.0
C1114 C 0.37358 0.663 0.83639 0.0
C1115 C 0.37967 0.65859 0.81815 0.0
C1116 C 0.32759 0.35961 0.8972 0.0
C1117 C 0.33517 0.34512 0.90875 0.0
C1118 C 0.35254 0.337 0.90427 0.0
C1119 C 0.36215 0.34327 0.88837 0.0
H1120 H 0.40797 0.32998 0.85158 0.0
H1121 H 0.43559 0.31473 0.83788 0.0
H1122 H 0.43513 0.3565 0.79315 0.0
H1123 H 0.40802 0.37172 0.80638 0.0
H1124 H 0.37643 0.39782 0.79917 0.0
H1125 H 0.36711 0.42654 0.78202 0.0
H1126 H 0.33356 0.44365 0.82865 0.0
H1127 H 0.34273 0.41467 0.84613 0.0
H1128 H 0.33089 0.37721 0.87283 0.0
H1129 H 0.3142 0.36603 0.90044 0.0
H1130 H 0.35859 0.32577 0.91307 0.0
H1131 H 0.37551 0.33672 0.88527 0.0
N1132 N 0.38009 0.35543 0.85346 0.0
N1133 N 0.38218 0.37739 0.82863 0.0
N1134 N 0.35829 0.38052 0.85033 0.0
C1135 C 0.38892 0.36177 0.83777 0.0
C1136 C 0.367 0.38687 0.83469 0.0
C1137 C 0.36467 0.36477 0.8598 0.0
C1138 C 0.40566 0.3521 0.83015 0.0
C1139 C 0.41377 0.33592 0.83885 0.0
C1140 C 0.42953 0.3272 0.83108 0.0
C1141 C 0.43732 0.33457 0.81454 0.0
C1142 C 0.42931 0.35065 0.80592 0.0
C1143 C 0.41373 0.35932 0.8136 0.0
C1144 C 0.3604 0.40395 0.82412 0.0
C1145 C 0.36703 0.4076 0.80587 0.0
C1146 C 0.36172 0.42398 0.79599 0.0
C1147 C 0.34976 0.43713 0.80414 0.0
C1148 C 0.34285 0.43357 0.82221 0.0
C1149 C 0.34806 0.41702 0.83212 0.0
C1150 C 0.35463 0.35789 0.87673 0.0
C1151 C 0.33722 0.36598 0.88141 0.0
Cu1152 Cu 0.28412 0.2814 0.01314 0.0
N1153 N 0.28416 0.30252 0.99699 0.0
N1154 N 0.29359 0.32071 0.97314 0.0
C1155 C 0.29659 0.30465 0.98313 0.0
C1156 C 0.27881 0.32923 0.98102 0.0
C1157 C 0.27302 0.31796 0.99585 0.0
O1158 O 0.28667 0.25936 0.99667 0.0
C1159 C 0.30037 0.29993 0.04388 0.0
O1160 O 0.28499 0.30992 0.04033 0.0
H1161 H 0.3076 0.29456 0.98037 0.0
H1162 H 0.26156 0.32086 1.00509 0.0
N1163 N 0.26179 0.2773 0.02599 0.0
N1164 N 0.24352 0.26474 0.04793 0.0
C1165 C 0.26073 0.26481 0.04039 0.0
C1166 C 0.24448 0.28526 0.02419 0.0
C1167 C 0.23314 0.27752 0.03784 0.0
C1168 C 0.27324 0.25793 0.98392 0.0
O1169 O 0.25967 0.27058 0.98338 0.0
H1170 H 0.27246 0.25607 0.0454 0.0
H1171 H 0.2404 0.29593 0.01381 0.0
O1172 O 0.30383 0.28592 0.03306 0.0
H1173 H 0.27267 0.34255 0.97633 0.0
H1174 H 0.21853 0.28107 0.04029 0.0
Cu1175 Cu 0.77183 0.25606 0.02567 0.0
N1176 N 0.75447 0.27049 0.04114 0.0
N1177 N 0.74268 0.2901 0.06252 0.0
C1178 C 0.75828 0.28521 0.05315 0.0
C1179 C 0.72865 0.27823 0.05602 0.0
C1180 C 0.73596 0.26615 0.04287 0.0
O1181 O 0.7823 0.24247 0.04953 0.0
C1182 C 0.76362 0.28491 0.99584 0.0
O1183 O 0.776 0.29561 1.00561 0.0
H1184 H 0.77216 0.29184 0.05538 0.0
H1185 H 0.72844 0.25469 0.03538 0.0
N1186 N 0.7888 0.24104 1.01033 0.0
N1187 N 0.80916 0.23192 0.9888 0.0
C1188 C 0.80081 0.24686 0.99703 0.0
C1189 C 0.7898 0.22193 0.0106 0.0
C1190 C 0.80235 0.21627 0.99731 0.0
C1191 C 0.79485 0.24949 0.06117 0.0
O1192 O 0.80203 0.26648 0.05806 0.0
H1193 H 0.80308 0.26157 0.99313 0.0
H1194 H 0.78159 0.21276 0.01955 0.0
O1195 O 0.75996 0.26812 1.00148 0.0
H1196 H 0.71423 0.27813 0.06076 0.0
H1197 H 0.80578 0.20178 0.9937 0.0
Cu1198 Cu 0.78197 0.77119 0.02286 0.0
N1199 N 0.79216 0.78919 1.00672 0.0
N1200 N 0.79725 0.80758 0.9817 0.0
C1201 C 0.78406 0.79828 0.99163 0.0
C1202 C 0.8141 0.80442 0.99088 0.0
C1203 C 0.81092 0.79298 1.00623 0.0
O1204 O 0.7802 0.74719 1.00895 0.0
C1205 C 0.79822 0.78684 0.05547 0.0
O1206 O 0.7888 0.80136 0.04833 0.0
H1207 H 0.76913 0.79721 0.98732 0.0
H1208 H 0.82165 0.78682 0.01572 0.0
N1209 N 0.75779 0.77722 0.03032 0.0
N1210 N 0.73291 0.77568 0.04863 0.0
C1211 C 0.74905 0.76735 0.04378 0.0
C1212 C 0.74675 0.79237 0.02645 0.0
C1213 C 0.73124 0.79144 0.03783 0.0
C1214 C 0.76771 0.74647 0.99525 0.0
O1215 O 0.75667 0.76112 0.99201 0.0
H1216 H 0.75494 0.75483 0.05063 0.0
H1217 H 0.75019 0.80373 0.01679 0.0
O1218 O 0.79792 0.77116 0.0463 0.0
H1219 H 0.82778 0.80926 0.9862 0.0
H1220 H 0.72017 0.80189 0.0388 0.0
Cu1221 Cu 0.26639 0.76258 0.01376 0.0
N1222 N 0.24333 0.75893 0.02536 0.0
N1223 N 0.22147 0.76533 0.04628 0.0
C1224 C 0.23763 0.77114 0.03858 0.0
C1225 C 0.2164 0.74889 0.03743 0.0
C1226 C 0.23002 0.74495 0.0244 0.0
O1227 O 0.28543 0.76213 0.03475 0.0
C1228 C 0.25033 0.78208 0.98417 0.0
O1229 O 0.24166 0.76544 0.98293 0.0
H1230 H 0.24538 0.78395 0.04275 0.0
H1231 H 0.23033 0.73263 0.01524 0.0
N1232 N 0.27344 0.74299 0.99778 0.0
N1233 N 0.29115 0.7288 0.97663 0.0
C1234 C 0.28711 0.74526 0.98518 0.0
C1235 C 0.26882 0.72433 0.99733 0.0
C1236 C 0.27975 0.71551 0.98413 0.0
C1237 C 0.28848 0.7738 0.04839 0.0
O1238 O 0.2815 0.79101 0.04729 0.0
H1239 H 0.29443 0.75862 0.98281 0.0
H1240 H 0.25882 0.71748 1.00641 0.0
O1241 O 0.26301 0.78493 0.99751 0.0
H1242 H 0.20415 0.74018 0.04057 0.0
H1243 H 0.27973 0.7005 0.98068 0.0
Cu1244 Cu 0.01822 0.27209 0.26105 0.0
N1245 N 0.02764 0.27264 0.23681 0.0
N1246 N 0.04502 0.26471 0.21244 0.0
C1247 C 0.0433 0.2637 0.23139 0.0
C1248 C 0.02996 0.27465 0.20562 0.0
C1249 C 0.01924 0.2796 0.22077 0.0
O1250 O 0.03967 0.2694 0.27898 0.0
C1251 C 1.00011 0.23656 0.25323 0.0
O1252 O 0.01674 0.23125 0.24753 0.0
H1253 H 0.05273 0.25584 0.24098 0.0
H1254 H 1.00584 0.28699 0.22007 0.0
N1255 N 1.00642 0.29484 0.26632 0.0
N1256 N 0.98635 0.31475 0.27921 0.0
C1257 C 0.9914 0.2965 0.27731 0.0
C1258 C 1.01102 0.31267 0.26107 0.0
C1259 C 0.99854 0.32508 0.26903 0.0
C1260 C 0.03852 0.27258 0.29665 0.0
O1261 O 0.02174 0.27445 0.30383 0.0
H1262 H 0.98441 0.28459 0.28394 0.0
H1263 H 0.02271 0.31635 0.25225 0.0
O1264 O 0.99858 0.25258 0.26132 0.0
H1265 H 0.02667 0.27753 0.19074 0.0
H1266 H 0.99845 0.3404 0.26761 0.0
Cu1267 Cu 0.75863 1.0062 0.27741 0.0
N1268 N 0.78027 0.0218 0.27987 0.0
N1269 N 0.79948 0.04565 0.27193 0.0
C1270 C 0.78483 0.03424 0.26626 0.0
C1271 C 0.8045 0.04026 0.28982 0.0
C1272 C 0.79252 0.02546 0.29474 0.0
O1273 O 0.73777 0.0242 0.27667 0.0
C1274 C 0.77793 0.98138 0.25547 0.0
O1275 O 0.79073 0.98525 0.26913 0.0
H1276 H 0.77699 0.03547 0.25273 0.0
H1277 H 0.79223 0.01849 0.30841 0.0
N1278 N 0.75496 0.98956 0.29765 0.0
N1279 N 0.74056 0.96576 0.31259 0.0
C1280 C 0.73834 0.9804 0.30038 0.0
C1281 C 0.76806 0.98056 0.30876 0.0
C1282 C 0.75917 0.96584 0.31803 0.0
C1283 C 0.73746 0.03421 0.29182 0.0
O1284 O 0.74944 0.03033 0.3061 0.0
H1285 H 0.72523 0.98339 0.29237 0.0
H1286 H 0.78319 0.98349 0.30895 0.0
O1287 O 0.76187 0.98967 0.25544 0.0
H1288 H 0.8155 0.047 0.29883 0.0
H1289 H 0.76598 0.95536 0.3272 0.0
Cu1290 Cu 0.02618 0.76731 0.27837 0.0
N1291 N 0.01226 0.78944 0.28201 0.0
N1292 N 0.98848 0.80956 0.27596 0.0
C1293 C 0.99768 0.7942 0.26997 0.0
C1294 C 0.99763 0.81495 0.29237 0.0
C1295 C 0.01243 0.80249 0.29606 0.0
O1296 O 1.00678 0.74722 0.2766 0.0
C1297 C 0.05272 0.78591 0.2583 0.0
O1298 O 0.05384 0.79506 0.2746 0.0
H1299 H 0.99354 0.78618 0.25728 0.0
H1300 H 0.02224 0.80274 0.30831 0.0
N1301 N 0.04392 0.76073 0.29795 0.0
N1302 N 0.06845 0.74557 0.31209 0.0
C1303 C 0.05783 0.74796 0.29587 0.0
C1304 C 0.04575 0.76645 0.31623 0.0
C1305 C 0.06094 0.75711 0.32499 0.0
C1306 C 0.99732 0.74587 0.29161 0.0
O1307 O 1.0023 0.75659 0.30634 0.0
H1308 H 0.06005 0.74046 0.28274 0.0
H1309 H 0.03658 0.77644 0.32286 0.0
O1310 O 0.04084 0.77213 0.25604 0.0
H1311 H 0.99362 0.82673 0.30119 0.0
H1312 H 0.066 0.75855 0.33968 0.0
Cu1313 Cu 0.25643 0.03121 0.25533 0.0
N1314 N 0.27928 0.04475 0.26009 0.0
N1315 N 0.29881 0.06678 0.27355 0.0
C1316 C 0.28063 0.06089 0.27049 0.0
C1317 C 0.30942 0.05399 0.26463 0.0
C1318 C 0.29729 0.04037 0.25628 0.0
O1319 O 0.23752 0.05096 0.25154 0.0
C1320 C 0.26085 0.0151 0.29261 0.0
O1321 O 0.26623 0.0321 0.29862 0.0
H1322 H 0.26854 0.0678 0.27636 0.0
H1323 H 0.30135 0.02783 0.24862 0.0
N1324 N 0.25579 0.01616 0.23329 0.0
N1325 N 0.24521 0.99152 0.21528 0.0
C1326 C 0.25099 0.99749 0.23291 0.0
C1327 C 0.25342 0.02209 0.21518 0.0
C1328 C 0.24685 1.00695 0.20406 0.0
C1329 C 0.22135 0.04906 0.24286 0.0
O1330 O 0.21425 0.03196 0.23949 0.0
H1331 H 0.24991 0.9889 0.24558 0.0
H1332 H 0.25457 0.03676 0.21071 0.0
O1333 O 0.25356 0.01303 0.27586 0.0
H1334 H 0.3248 0.05421 0.26462 0.0
H1335 H 0.24236 1.00754 0.18916 0.0
Cu1336 Cu 0.01289 0.76683 0.76956 0.0
N1337 N 0.02676 0.74435 0.76801 0.0
N1338 N 0.04867 0.72717 0.75383 0.0
C1339 C 0.04413 0.74434 0.7607 0.0
C1340 C 0.03372 0.71569 0.75728 0.0
C1341 C 0.02023 0.72631 0.76608 0.0
O1342 O 0.03167 0.78745 0.77288 0.0
C1343 C 0.98149 0.75534 0.74785 0.0
O1344 O 0.97904 0.74594 0.76365 0.0
H1345 H 0.05228 0.75714 0.75826 0.0
H1346 H 1.00597 0.72162 0.76897 0.0
N1347 N 0.9972 0.76913 0.79015 0.0
N1348 N 0.97412 0.78166 0.80665 0.0
C1349 C 0.98432 0.78305 0.79102 0.0
C1350 C 0.99513 0.75854 0.80587 0.0
C1351 C 0.98078 0.76629 0.81614 0.0
C1352 C 0.04206 0.78569 0.78812 0.0
O1353 O 0.03898 0.77112 0.79929 0.0
H1354 H 0.9822 0.7938 0.78016 0.0
H1355 H 1.00323 0.74597 0.80942 0.0
O1356 O 0.99577 0.76669 0.74683 0.0
H1357 H 0.03204 0.70113 0.75239 0.0
H1358 H 0.97542 0.76094 0.82931 0.0
Cu1359 Cu 0.28258 0.0124 0.76435 0.0
N1360 N 0.28472 0.02472 0.74109 0.0
N1361 N 0.29425 0.04612 0.72016 0.0
C1362 C 0.29627 0.03968 0.73808 0.0
C1363 C 0.281 0.03482 0.71133 0.0
C1364 C 0.27517 0.02148 0.72434 0.0
O1365 O 0.28053 0.03186 0.7839 0.0
C1366 C 0.3191 0.99544 0.76074 0.0
O1367 O 0.32536 0.01245 0.75627 0.0
H1368 H 0.30595 0.04583 0.74878 0.0
H1369 H 0.26454 1.0104 0.72184 0.0
N1370 N 0.25984 0.9987 0.76466 0.0
N1371 N 0.23872 0.97749 0.77447 0.0
C1372 C 0.2571 0.98305 0.7752 0.0
C1373 C 0.24257 1.00323 0.75708 0.0
C1374 C 0.22943 0.99005 0.76311 0.0
C1375 C 0.29283 0.04406 0.79005 0.0
O1376 O 0.31063 0.04274 0.7854 0.0
H1377 H 0.26819 0.97634 0.78388 0.0
H1378 H 0.23963 0.01565 0.74844 0.0
O1379 O 0.30248 0.99343 0.76692 0.0
H1380 H 0.27576 0.03633 0.69672 0.0
H1381 H 0.21422 0.99002 0.76001 0.0
Cu1382 Cu 0.04673 0.27048 0.76776 0.0
N1383 N 0.03056 0.27099 0.74579 0.0
N1384 N 1.00581 0.27904 0.72658 0.0
C1385 C 0.01541 0.2824 0.74325 0.0
C1386 C 0.01519 0.265 0.71814 0.0
C1387 C 0.03055 0.26009 0.73003 0.0
O1388 O 0.03014 0.26928 0.78919 0.0
C1389 C 0.06167 0.30789 0.75983 0.0
O1390 O 0.04402 0.31306 0.75623 0.0
H1391 H 0.01138 0.2929 0.75345 0.0
H1392 H 0.04083 0.2492 0.72744 0.0
N1393 N 0.0614 0.24842 0.76925 0.0
N1394 N 0.08483 0.22893 0.7787 0.0
C1395 C 0.07851 0.24696 0.77859 0.0
C1396 C 0.05676 0.23064 0.76338 0.0
C1397 C 0.07125 0.21858 0.76915 0.0
C1398 C 0.02007 0.28237 0.7959 0.0
O1399 O 0.02252 0.30007 0.79048 0.0
H1400 H 0.08591 0.25876 0.78566 0.0
H1401 H 0.0435 0.22663 0.75597 0.0
O1402 O 0.06509 0.29146 0.76663 0.0
H1403 H 0.01113 0.25872 0.70448 0.0
H1404 H 0.0716 0.20334 0.767 0.0
Cu1405 Cu 0.79697 0.04154 0.75697 0.0
N1406 N 0.81862 0.05744 0.75632 0.0
N1407 N 0.84017 0.07937 0.7662 0.0
C1408 C 0.82585 0.06778 0.77118 0.0
C1409 C 0.84251 0.07594 0.74762 0.0
C1410 C 0.82928 0.06224 0.74158 0.0
O1411 O 0.774 0.05706 0.75731 0.0
C1412 C 0.79193 1.01028 0.78339 0.0
O1413 O 0.77365 1.01028 0.77873 0.0
H1414 H 0.82008 0.06753 0.78518 0.0
H1415 H 0.82712 0.0568 0.72728 0.0
N1416 N 0.79257 0.02763 0.73444 0.0
N1417 N 0.77649 1.00694 0.7154 0.0
C1418 C 0.78324 1.01074 0.73321 0.0
C1419 C 0.79156 0.03471 0.71664 0.0
C1420 C 0.7817 0.02192 0.70484 0.0
C1421 C 0.77388 0.07471 0.7614 0.0
O1422 O 0.78805 0.08213 0.77178 0.0
H1423 H 0.77981 1.00216 0.74529 0.0
H1424 H 0.79592 0.04897 0.71287 0.0
O1425 O 0.8027 0.02338 0.77735 0.0
H1426 H 0.85248 0.08339 0.73892 0.0
H1427 H 0.77742 0.02408 0.69004 0.0
Cu1428 Cu 0.27461 0.7828 0.51886 0.0
N1429 N 0.29435 0.79111 0.53598 0.0
N1430 N 0.3099 0.79957 0.56318 0.0
C1431 C 0.29602 0.7884 0.555 0.0
C1432 C 0.31727 0.80957 0.54894 0.0
C1433 C 0.30761 0.80447 0.53229 0.0
O1434 O 0.25091 0.78282 0.53227 0.0
C1435 C 0.28915 0.79878 0.48626 0.0
O1436 O 0.30357 0.78811 0.49173 0.0
H1437 H 0.28659 0.77941 0.56286 0.0
H1438 H 0.30936 0.81118 0.51869 0.0
N1439 N 0.2778 0.75827 0.50935 0.0
N1440 N 0.27135 0.73456 0.48882 0.0
C1441 C 0.26418 0.74895 0.49882 0.0
C1442 C 0.29406 0.74906 0.50641 0.0
C1443 C 0.29011 0.73444 0.49364 0.0
C1444 C 0.24833 0.76904 0.54367 0.0
O1445 O 0.2611 0.75563 0.54528 0.0
H1446 H 0.24972 0.7539 0.49688 0.0
H1447 H 0.30801 0.75371 0.51176 0.0
O1448 O 0.27452 0.79918 0.49637 0.0
H1449 H 0.3282 0.8205 0.55067 0.0
H1450 H 0.30038 0.72529 0.48736 0.0
Cu1451 Cu 0.77015 0.77787 0.52118 0.0
N1452 N 0.79211 0.78163 0.50755 0.0
N1453 N 0.81267 0.77667 0.48491 0.0
C1454 C 0.79498 0.77326 0.49073 0.0
C1455 C 0.82139 0.7876 0.49849 0.0
C1456 C 0.80865 0.79062 0.51253 0.0
O1457 O 0.74881 0.77905 0.50271 0.0
C1458 C 0.78649 0.75383 0.54688 0.0
O1459 O 0.79707 0.76921 0.5494 0.0
H1460 H 0.78457 0.76417 0.48327 0.0
H1461 H 0.8116 0.79806 0.52579 0.0
N1462 N 0.76695 0.79614 0.54013 0.0
N1463 N 0.75601 0.80923 0.56626 0.0
C1464 C 0.75455 0.79446 0.55408 0.0
C1465 C 0.77638 0.81269 0.54354 0.0
C1466 C 0.76965 0.8208 0.55975 0.0
C1467 C 0.74502 0.79576 0.49687 0.0
O1468 O 0.75483 0.81019 0.50427 0.0
H1469 H 0.74481 0.78254 0.55541 0.0
H1470 H 0.78733 0.81851 0.53488 0.0
O1471 O 0.77287 0.75379 0.53433 0.0
H1472 H 0.83608 0.79236 0.49858 0.0
H1473 H 0.77436 0.8341 0.56627 0.0
Cu1474 Cu 0.77037 0.27633 0.50844 0.0
N1475 N 0.74908 0.2741 0.49133 0.0
N1476 N 0.73016 0.26133 0.4681 0.0
C1477 C 0.7446 0.25835 0.48096 0.0
C1478 C 0.72507 0.27956 0.47058 0.0
C1479 C 0.73675 0.28741 0.48497 0.0
O1480 O 0.79257 0.28281 0.4936 0.0
C1481 C 0.77654 0.25065 0.54025 0.0
O1482 O 0.78866 0.26339 0.54732 0.0
H1483 H 0.75248 0.24525 0.48209 0.0
H1484 H 0.73691 0.30205 0.48969 0.0
N1485 N 0.7689 0.29674 0.52566 0.0
N1486 N 0.77821 0.31558 0.55011 0.0
C1487 C 0.78362 0.30289 0.53713 0.0
C1488 C 0.75371 0.30639 0.53128 0.0
C1489 C 0.75942 0.31798 0.54646 0.0
C1490 C 0.79397 0.27854 0.47612 0.0
O1491 O 0.78265 0.26542 0.46841 0.0
H1492 H 0.79787 0.29732 0.53672 0.0
H1493 H 0.7393 0.30422 0.52563 0.0
O1494 O 0.76971 0.2526 0.52328 0.0
H1495 H 0.71435 0.28689 0.46196 0.0
H1496 H 0.75031 0.32656 0.5549 0.0
Cu1497 Cu 0.27393 0.29078 0.5303 0.0
N1498 N 0.27301 0.31345 0.54431 0.0
N1499 N 0.26295 0.33273 0.56702 0.0
C1500 C 0.26554 0.31457 0.56156 0.0
C1501 C 0.26921 0.34353 0.55269 0.0
C1502 C 0.2755 0.3316 0.53874 0.0
O1503 O 0.27797 0.27019 0.5485 0.0
C1504 C 0.25111 0.30145 0.49986 0.0
O1505 O 0.26534 0.31361 0.499 0.0
H1506 H 0.26087 0.30231 0.56944 0.0
H1507 H 0.28062 0.33591 0.52512 0.0
N1508 N 0.29383 0.28898 0.51376 0.0
N1509 N 0.30874 0.2771 0.48922 0.0
C1510 C 0.29447 0.27471 0.50107 0.0
C1511 C 0.30836 0.30082 0.50992 0.0
C1512 C 0.31765 0.29346 0.49465 0.0
C1513 C 0.29376 0.27165 0.5581 0.0
O1514 O 0.30506 0.28623 0.55504 0.0
H1515 H 0.28418 0.26313 0.50007 0.0
H1516 H 0.31152 0.31412 0.51719 0.0
O1517 O 0.25108 0.2894 0.51344 0.0
H1518 H 0.26862 0.35889 0.55209 0.0
H1519 H 0.32952 0.29989 0.48767 0.0
Cu1520 Cu 0.78069 0.50326 0.76691 0.0
N1521 N 0.7805 0.521 0.74696 0.0
N1522 N 0.79082 0.54502 0.72918 0.0
C1523 C 0.79572 0.53135 0.74182 0.0
C1524 C 0.77187 0.54312 0.72596 0.0
C1525 C 0.76552 0.52825 0.73693 0.0
O1526 O 0.77864 0.51719 0.79089 0.0
C1527 C 0.80929 0.4749 0.77505 0.0
O1528 O 0.80444 0.47507 0.79285 0.0
H1529 H 0.80992 0.52969 0.74812 0.0
H1530 H 0.75087 0.52397 0.73848 0.0
N1531 N 0.75982 0.48646 0.7654 0.0
N1532 N 0.74113 0.4622 0.77365 0.0
C1533 C 0.75583 0.47375 0.77903 0.0
C1534 C 0.74722 0.48268 0.75084 0.0
C1535 C 0.73556 0.46774 0.75596 0.0
C1536 C 0.78622 0.5335 0.79414 0.0
O1537 O 0.7989 0.54011 0.78266 0.0
H1538 H 0.76391 0.4726 0.79243 0.0
H1539 H 0.74697 0.48975 0.73721 0.0
O1540 O 0.80249 0.48716 0.76346 0.0
H1541 H 0.76314 0.55254 0.71723 0.0
H1542 H 0.72434 0.46102 0.74721 0.0
Cu1543 Cu 0.29435 0.54634 0.7543 0.0
N1544 N 0.31452 0.52965 0.75313 0.0
N1545 N 0.33166 0.50455 0.76182 0.0
C1546 C 0.31749 0.51607 0.76627 0.0
C1547 C 0.33819 0.51115 0.74534 0.0
C1548 C 0.32756 0.52684 0.74 0.0
O1549 O 0.27236 0.53046 0.75982 0.0
C1550 C 0.31627 0.57556 0.76906 0.0
O1551 O 0.32427 0.57274 0.75282 0.0
H1552 H 0.30904 0.51433 0.77861 0.0
H1553 H 0.32897 0.53524 0.72728 0.0
N1554 N 0.28863 0.55909 0.7316 0.0
N1555 N 0.27474 0.58041 0.71241 0.0
C1556 C 0.2778 0.57468 0.73049 0.0
C1557 C 0.29249 0.55476 0.71353 0.0
C1558 C 0.28391 0.56801 0.70158 0.0
C1559 C 0.26881 0.51749 0.74743 0.0
O1560 O 0.2793 0.51657 0.73251 0.0
H1561 H 0.27188 0.58145 0.74267 0.0
H1562 H 0.30043 0.54255 0.70925 0.0
O1563 O 0.30192 0.5654 0.77323 0.0
H1564 H 0.34938 0.50475 0.73754 0.0
H1565 H 0.28398 0.5683 0.68621 0.0
Cu1566 Cu 0.2649 0.50516 0.25676 0.0
N1567 N 0.24422 0.48828 0.25723 0.0
N1568 N 0.22653 0.46447 0.26824 0.0
C1569 C 0.24333 0.47385 0.26976 0.0
C1570 C 0.21634 0.47326 0.25421 0.0
C1571 C 0.22733 0.48804 0.24741 0.0
O1572 O 0.28646 0.48789 0.25644 0.0
C1573 C 0.26897 0.53743 0.28343 0.0
O1574 O 0.28392 0.5437 0.27472 0.0
H1575 H 0.25465 0.47055 0.28012 0.0
H1576 H 0.22318 0.4981 0.23643 0.0
N1577 N 0.26504 0.51981 0.23435 0.0
N1578 N 0.27307 0.54431 0.21581 0.0
C1579 C 0.26677 0.53892 0.23288 0.0
C1580 C 0.26962 0.51303 0.21729 0.0
C1581 C 0.27469 0.52805 0.20589 0.0
C1582 C 0.30282 0.49155 0.25021 0.0
O1583 O 0.30818 0.50934 0.24796 0.0
H1584 H 0.2651 0.54867 0.24451 0.0
H1585 H 0.27105 0.49809 0.21403 0.0
O1586 O 0.26152 0.52133 0.279 0.0
H1587 H 0.20192 0.46946 0.2495 0.0
H1588 H 0.28051 0.52702 0.19196 0.0
Cu1589 Cu 0.76986 0.54148 0.27021 0.0
N1590 N 0.79167 0.52685 0.27431 0.0
N1591 N 0.80892 0.50354 0.28749 0.0
C1592 C 0.7923 0.51276 0.28724 0.0
C1593 C 0.81936 0.51216 0.27432 0.0
C1594 C 0.80864 0.52666 0.26618 0.0
O1595 O 0.74953 0.52293 0.2655 0.0
C1596 C 0.7831 0.56928 0.29335 0.0
O1597 O 0.79612 0.56807 0.28063 0.0
H1598 H 0.78065 0.50913 0.29614 0.0
H1599 H 0.8129 0.53618 0.25507 0.0
N1600 N 0.76909 0.55795 0.24934 0.0
N1601 N 0.75756 0.58147 0.23118 0.0
C1602 C 0.7551 0.57067 0.24664 0.0
C1603 C 0.78079 0.56075 0.23494 0.0
C1604 C 0.77368 0.57538 0.22367 0.0
C1605 C 0.75237 0.5128 0.25087 0.0
O1606 O 0.76726 0.51649 0.24084 0.0
H1607 H 0.74342 0.57214 0.256 0.0
H1608 H 0.79357 0.55285 0.23277 0.0
O1609 O 0.76876 0.55799 0.29223 0.0
H1610 H 0.83352 0.50808 0.2707 0.0
H1611 H 0.77983 0.58116 0.21106 0.0
Cu1612 Cu 0.53342 0.26644 0.75411 0.0
N1613 N 0.5209 0.28882 0.76009 0.0
N1614 N 0.50023 0.30789 0.77346 0.0
C1615 C 0.50657 0.29002 0.77205 0.0
C1616 C 0.51094 0.31853 0.76204 0.0
C1617 C 0.52378 0.30668 0.75381 0.0
O1618 O 0.51387 0.24743 0.74694 0.0
C1619 C 0.55069 0.26562 0.79192 0.0
O1620 O 0.53376 0.26881 0.79825 0.0
H1621 H 0.50091 0.2781 0.77972 0.0
H1622 H 0.53442 0.31079 0.74393 0.0
N1623 N 0.54777 0.26956 0.73267 0.0
N1624 N 0.57038 0.2637 0.71234 0.0
C1625 C 0.564 0.26028 0.72977 0.0
C1626 C 0.54372 0.27914 0.71645 0.0
C1627 C 0.55775 0.27555 0.70382 0.0
C1628 C 0.5016 0.23964 0.75728 0.0
O1629 O 0.50312 0.24157 0.77585 0.0
H1630 H 0.57065 0.25065 0.73997 0.0
H1631 H 0.53115 0.28758 0.71377 0.0
O1632 O 0.55236 0.26128 0.77453 0.0
H1633 H 0.50945 0.33367 0.75976 0.0
H1634 H 0.55836 0.28072 0.68938 0.0
Cu1635 Cu 0.55215 0.76491 0.78075 0.0
N1636 N 0.56434 0.74144 0.78147 0.0
N1637 N 0.58534 0.71927 0.79029 0.0
C1638 C 0.58073 0.73777 0.79135 0.0
C1639 C 0.57143 0.71091 0.77931 0.0
C1640 C 0.55843 0.72469 0.77385 0.0
O1641 O 0.57234 0.78431 0.78058 0.0
C1642 C 0.53384 0.75455 0.81507 0.0
O1643 O 0.5499 0.74652 0.82062 0.0
H1644 H 0.58885 0.74833 0.7996 0.0
H1645 H 0.54538 0.72256 0.76535 0.0
N1646 N 0.5376 0.76819 0.7582 0.0
N1647 N 0.51362 0.78034 0.7404 0.0
C1648 C 0.5192 0.77328 0.75754 0.0
C1649 C 0.54381 0.77181 0.74074 0.0
C1650 C 0.52901 0.77937 0.72971 0.0
C1651 C 0.56975 0.80187 0.77707 0.0
O1652 O 0.55257 0.80883 0.77776 0.0
H1653 H 0.51058 0.77361 0.76989 0.0
H1654 H 0.55847 0.77077 0.73689 0.0
O1655 O 0.53339 0.76522 0.80045 0.0
H1656 H 0.57056 0.69591 0.77585 0.0
H1657 H 0.52986 0.78499 0.71546 0.0
Cu1658 Cu 0.49262 0.77867 0.26843 0.0
N1659 N 0.47954 0.80161 0.26927 0.0
N1660 N 0.45773 0.8225 0.27745 0.0
C1661 C 0.46302 0.80415 0.27785 0.0
C1662 C 0.47133 0.83193 0.26823 0.0
C1663 C 0.48482 0.81896 0.26319 0.0
O1664 O 0.47328 0.75865 0.2662 0.0
C1665 C 0.50974 0.78716 0.30523 0.0
O1666 O 0.49323 0.79399 0.30963 0.0
H1667 H 0.45532 0.79288 0.28477 0.0
H1668 H 0.49781 0.82202 0.25605 0.0
N1669 N 0.50742 0.77713 0.24716 0.0
N1670 N 0.53124 0.76804 0.22952 0.0
C1671 C 0.52416 0.76807 0.24696 0.0
C1672 C 0.5038 0.78306 0.22919 0.0
C1673 C 0.51856 0.77745 0.21822 0.0
C1674 C 0.47616 0.74232 0.25917 0.0
O1675 O 0.49366 0.73681 0.25683 0.0
H1676 H 0.53084 0.76125 0.25928 0.0
H1677 H 0.49116 0.79056 0.22436 0.0
O1678 O 0.51111 0.77793 0.28981 0.0
H1679 H 0.47166 0.84712 0.26577 0.0
H1680 H 0.51979 0.77979 0.20312 0.0
Cu1681 Cu 0.5251 0.27731 0.27508 0.0
N1682 N 0.51416 0.27475 0.29846 0.0
N1683 N 0.49321 0.26524 0.31931 0.0
C1684 C 0.49766 0.26547 0.30094 0.0
C1685 C 0.50733 0.27484 0.32888 0.0
C1686 C 0.52039 0.28066 0.31589 0.0
O1687 O 0.50412 0.28068 0.2566 0.0
C1688 C 0.53714 0.23874 0.27596 0.0
O1689 O 0.51929 0.23407 0.27847 0.0
H1690 H 0.48907 0.25894 0.2895 0.0
H1691 H 0.53348 0.28855 0.31891 0.0
N1692 N 0.54083 0.29868 0.2745 0.0
N1693 N 0.56424 0.31741 0.26498 0.0
C1694 C 0.55666 0.29977 0.26455 0.0
C1695 C 0.53835 0.31624 0.28155 0.0
C1696 C 0.55289 0.32792 0.27564 0.0
C1697 C 0.50561 0.28991 0.24121 0.0
O1698 O 0.52254 0.29426 0.23526 0.0
H1699 H 0.56208 0.28806 0.25648 0.0
H1700 H 0.52646 0.32038 0.28978 0.0
O1701 O 0.54152 0.25579 0.2719 0.0
H1702 H 0.50812 0.27735 0.34407 0.0
H1703 H 0.55469 0.343 0.2784 0.0
C1704 C 0.24084 0.24668 0.09814 0.0
C1705 C 0.22637 0.2325 0.09569 0.0
C1706 C 0.22508 0.23818 0.06123 0.0
C1707 C 0.23783 0.25376 0.06403 0.0
N1708 N 0.2563 0.27449 0.08503 0.0
N1709 N 0.20307 0.21602 0.07525 0.0
C1710 C 0.24539 0.25839 0.08247 0.0
C1711 C 0.2181 0.22849 0.07729 0.0
N1712 N 0.25038 0.24869 0.11538 0.0
N1713 N 0.22007 0.23241 0.04314 0.0
H1714 H 0.19768 0.20847 0.0866 0.0
H1715 H 0.19508 0.21414 0.06256 0.0
H1716 H 0.22504 0.2393 0.03118 0.0
H1717 H 0.21236 0.21997 0.03999 0.0
H1718 H 0.26229 0.25749 0.11765 0.0
H1719 H 0.24741 0.24025 0.1271 0.0
H1720 H 0.26082 0.27977 0.09833 0.0
H1721 H 0.25958 0.28347 0.07383 0.0
C1722 C 0.79767 0.22599 0.11007 0.0
C1723 C 0.81643 0.21875 0.1106 0.0
C1724 C 0.82108 0.23172 0.07867 0.0
C1725 C 0.80199 0.23813 0.0778 0.0
N1726 N 0.77085 0.23767 0.09089 0.0
N1727 N 0.84465 0.21128 0.09409 0.0
C1728 C 0.78987 0.23404 0.09292 0.0
C1729 C 0.82778 0.22067 0.09451 0.0
N1730 N 0.7876 0.22599 0.12623 0.0
N1731 N 0.83281 0.23611 0.06429 0.0
H1732 H 0.84987 0.20285 0.10529 0.0
H1733 H 0.85269 0.2104 0.08207 0.0
H1734 H 0.8281 0.24278 0.05175 0.0
H1735 H 0.84744 0.23402 0.06516 0.0
H1736 H 0.77478 0.23305 0.12737 0.0
H1737 H 0.79281 0.22033 0.1391 0.0
H1738 H 0.761 0.2331 0.10055 0.0
H1739 H 0.76458 0.24389 0.07877 0.0
C1740 C 0.83337 0.80719 0.09295 0.0
C1741 C 0.82338 0.80323 0.10958 0.0
C1742 C 0.80049 0.78319 0.0909 0.0
C1743 C 0.80889 0.7894 0.07401 0.0
N1744 N 0.83305 0.80737 0.05847 0.0
N1745 N 0.79756 0.78763 0.12492 0.0
C1746 C 0.82543 0.80122 0.07493 0.0
C1747 C 0.8071 0.79104 0.10874 0.0
N1748 N 0.85046 0.81671 0.09443 0.0
N1749 N 0.78609 0.76994 0.0898 0.0
H1750 H 0.80248 0.7925 0.13828 0.0
H1751 H 0.78437 0.78079 0.1251 0.0
H1752 H 0.78083 0.76418 0.07692 0.0
H1753 H 0.78024 0.76357 0.10156 0.0
H1754 H 0.85946 0.81837 0.08321 0.0
H1755 H 0.85642 0.82178 0.10733 0.0
H1756 H 0.84349 0.81794 0.05788 0.0
H1757 H 0.82824 0.80243 0.04512 0.0
C1758 C 0.19435 0.80043 0.07454 0.0
C1759 C 0.20138 0.79598 0.09323 0.0
C1760 C 0.21863 0.76884 0.08084 0.0
C1761 C 0.21298 0.77435 0.06211 0.0
N1762 N 0.19698 0.79578 0.04052 0.0
N1763 N 0.22142 0.77717 0.11436 0.0
C1764 C 0.20117 0.79023 0.05881 0.0
C1765 C 0.21376 0.78041 0.09646 0.0
N1766 N 0.18086 0.81412 0.07193 0.0
N1767 N 0.22872 0.75253 0.08355 0.0
H1768 H 0.21807 0.78527 0.12614 0.0
H1769 H 0.23203 0.76734 0.11746 0.0
H1770 H 0.23306 0.74425 0.07228 0.0
H1771 H 0.23181 0.74652 0.09681 0.0
H1772 H 0.17374 0.81677 0.05894 0.0
H1773 H 0.17578 0.82206 0.0831 0.0
H1774 H 0.19028 0.80846 0.0369 0.0
H1775 H 0.20119 0.78802 0.02882 0.0
C1776 C 0.24122 0.80263 0.93533 0.0
C1777 C 0.22628 0.81542 0.93873 0.0
C1778 C 0.23018 0.80944 0.97312 0.0
C1779 C 0.24501 0.7966 0.96966 0.0
N1780 N 0.26761 0.78412 0.94851 0.0
N1781 N 0.20919 0.83417 0.96079 0.0
C1782 C 0.25152 0.7943 0.95104 0.0
C1783 C 0.22163 0.81986 0.95765 0.0
N1784 N 0.24498 0.79778 0.91707 0.0
N1785 N 0.22369 0.81097 0.99106 0.0
H1786 H 0.20253 0.84187 0.94977 0.0
H1787 H 0.20656 0.83941 0.97424 0.0
H1788 H 0.23021 0.80419 1.00277 0.0
H1789 H 0.2114 0.81818 0.99424 0.0
H1790 H 0.25415 0.78694 0.91361 0.0
H1791 H 0.23793 0.80373 0.90521 0.0
H1792 H 0.27421 0.78312 0.93561 0.0
H1793 H 0.27542 0.77807 0.95986 0.0
C1794 C 0.27363 0.23457 0.93582 0.0
C1795 C 0.26015 0.21962 0.93814 0.0
C1796 C 0.25895 0.22714 0.97213 0.0
C1797 C 0.27205 0.24235 0.96969 0.0
N1798 N 0.29515 0.25802 0.95085 0.0
N1799 N 0.24316 0.19886 0.95884 0.0
C1800 C 0.28054 0.24514 0.95203 0.0
C1801 C 0.25388 0.21497 0.95647 0.0
N1802 N 0.27912 0.23918 0.918 0.0
N1803 N 0.2508 0.22489 0.98927 0.0
H1804 H 0.23903 0.18981 0.94759 0.0
H1805 H 0.23957 0.19362 0.97204 0.0
H1806 H 0.25501 0.23292 1.00125 0.0
H1807 H 0.23941 0.21569 0.99149 0.0
H1808 H 0.28713 0.25125 0.91496 0.0
H1809 H 0.27473 0.23146 0.90588 0.0
H1810 H 0.30309 0.25985 0.93885 0.0
H1811 H 0.30048 0.26577 0.9626 0.0
C1812 C 0.82437 0.23035 0.93819 0.0
C1813 C 0.84418 0.22723 0.94121 0.0
C1814 C 0.84104 0.2313 0.97563 0.0
C1815 C 0.82106 0.23203 0.97267 0.0
N1816 N 0.79326 0.2299 0.95168 0.0
N1817 N 0.87136 0.22305 0.9629 0.0
C1818 C 0.8126 0.23104 0.95407 0.0
C1819 C 0.85259 0.22745 0.95997 0.0
N1820 N 0.81689 0.23303 0.92014 0.0
N1821 N 0.84886 0.23426 0.99352 0.0
H1822 H 0.88024 0.22012 0.95183 0.0
H1823 H 0.87786 0.22099 0.9763 0.0
H1824 H 0.84054 0.2367 1.00516 0.0
H1825 H 0.86341 0.23573 0.99657 0.0
H1826 H 0.80293 0.2372 0.91715 0.0
H1827 H 0.82514 0.2328 0.9082 0.0
H1828 H 0.78616 0.22699 0.93868 0.0
H1829 H 0.7843 0.23054 0.96307 0.0
C1830 C 0.7938 0.81564 0.92896 0.0
C1831 C 0.80105 0.83452 0.92856 0.0
C1832 C 0.79854 0.83687 0.96304 0.0
C1833 C 0.79493 0.81708 0.96371 0.0
N1834 N 0.78979 0.78708 0.94765 0.0
N1835 N 0.81074 0.8634 0.94513 0.0
C1836 C 0.79232 0.80634 0.94674 0.0
C1837 C 0.80316 0.84541 0.94554 0.0
N1838 N 0.78852 0.80664 0.91229 0.0
N1839 N 0.79778 0.84728 0.97936 0.0
H1840 H 0.81417 0.87022 0.93258 0.0
H1841 H 0.81467 0.8712 0.9573 0.0
H1842 H 0.79447 0.84106 0.99229 0.0
H1843 H 0.79868 0.86207 0.97977 0.0
H1844 H 0.78162 0.79345 0.91165 0.0
H1845 H 0.78946 0.81325 0.89909 0.0
H1846 H 0.79003 0.77814 0.93587 0.0
H1847 H 0.78868 0.77982 0.96045 0.0
C1848 C 0.07216 0.2262 0.18875 0.0
C1849 C 0.08874 0.23665 0.18434 0.0
C1850 C 0.07299 0.26608 0.19254 0.0
C1851 C 0.05891 0.25529 0.20155 0.0
N1852 N 0.04345 0.22503 0.2064 0.0
N1853 N 0.0946 0.26553 0.16704 0.0
C1854 C 0.05789 0.23529 0.19897 0.0
C1855 C 0.0865 0.25653 0.18183 0.0
N1856 N 0.06886 0.20869 0.18081 0.0
N1857 N 0.0738 0.28536 0.19457 0.0
H1858 H 0.1014 0.2579 0.15663 0.0
H1859 H 0.09207 0.27974 0.16365 0.0
H1860 H 0.06412 0.29281 0.20244 0.0
H1861 H 0.08495 0.2936 0.18958 0.0
H1862 H 0.05623 0.201 0.18208 0.0
H1863 H 0.0779 0.20314 0.17088 0.0
H1864 H 0.04319 0.21021 0.20682 0.0
H1865 H 0.0322 0.23145 0.21293 0.0
C1866 C 0.82444 0.07358 0.23468 0.0
C1867 C 0.81939 0.09241 0.23952 0.0
C1868 C 0.8004 0.08012 0.26533 0.0
C1869 C 0.8067 0.06154 0.26145 0.0
N1870 N 0.82594 0.04034 0.24412 0.0
N1871 N 0.8045 0.11409 0.26069 0.0
C1872 C 0.81906 0.05821 0.24654 0.0
C1873 C 0.80785 0.09582 0.25518 0.0
N1874 N 0.83398 0.07041 0.2185 0.0
N1875 N 0.78682 0.08257 0.27835 0.0
H1876 H 0.8094 0.12595 0.25338 0.0
H1877 H 0.79799 0.11755 0.27319 0.0
H1878 H 0.78131 0.07132 0.28613 0.0
H1879 H 0.77999 0.09539 0.28045 0.0
H1880 H 0.83652 0.05694 0.21313 0.0
H1881 H 0.83817 0.08136 0.20956 0.0
H1882 H 0.83645 0.03707 0.23475 0.0
H1883 H 0.82203 0.02889 0.25259 0.0
C1884 C 0.9365 0.81722 0.26327 0.0
C1885 C 0.93788 0.82947 0.24735 0.0
C1886 C 0.9727 0.83064 0.25232 0.0
C1887 C 0.97135 0.81726 0.2672 0.0
N1888 N 0.95274 0.79633 0.28606 0.0
N1889 N 0.95702 0.84702 0.22567 0.0
C1890 C 0.95342 0.81022 0.27254 0.0
C1891 C 0.95594 0.83606 0.24163 0.0
N1892 N 0.91899 0.81253 0.26968 0.0
N1893 N 0.99013 0.83819 0.24862 0.0
H1894 H 0.94503 0.85162 0.21781 0.0
H1895 H 0.96971 0.85076 0.21953 0.0
H1896 H 1.00256 0.83409 0.25609 0.0
H1897 H 0.99226 0.84928 0.23914 0.0
H1898 H 0.91694 0.80523 0.28229 0.0
H1899 H 0.90632 0.81709 0.26301 0.0
H1900 H 0.9404 0.78892 0.28927 0.0
H1901 H 0.96491 0.79132 0.29333 0.0
C1902 C 0.23216 0.94635 0.18815 0.0
C1903 C 0.21806 0.93823 0.19968 0.0
C1904 C 0.22026 0.96667 0.22 0.0
C1905 C 0.2361 0.97349 0.21008 0.0
N1906 N 0.25955 0.96753 0.18705 0.0
N1907 N 0.20236 0.93897 0.22951 0.0
C1908 C 0.24276 0.96264 0.19481 0.0
C1909 C 0.2132 0.94788 0.2165 0.0
N1910 N 0.23489 0.93912 0.17048 0.0
N1911 N 0.21123 0.97843 0.23199 0.0
H1912 H 0.19761 0.92492 0.22796 0.0
H1913 H 0.19991 0.94485 0.24277 0.0
H1914 H 0.21498 0.99272 0.23377 0.0
H1915 H 0.19861 0.97461 0.2383 0.0
H1916 H 0.24372 0.94563 0.16086 0.0
H1917 H 0.22684 0.92782 0.16465 0.0
H1918 H 0.266 0.95912 0.17706 0.0
H1919 H 0.26797 0.97895 0.19207 0.0
C1920 C 0.09014 0.81089 0.79441 0.0
C1921 C 0.08902 0.8169 0.81363 0.0
C1922 C 0.05502 0.80847 0.81263 0.0
C1923 C 0.05683 0.79991 0.79456 0.0
N1924 N 0.07555 0.79345 0.76758 0.0
N1925 N 0.07067 0.82152 0.84131 0.0
C1926 C 0.07415 0.80157 0.78509 0.0
C1927 C 0.07146 0.81588 0.82276 0.0
N1928 N 0.10651 0.81417 0.7851 0.0
N1929 N 0.03736 0.80977 0.81984 0.0
H1930 H 0.08222 0.8277 0.84894 0.0
H1931 H 0.05895 0.81914 0.84954 0.0
H1932 H 0.02508 0.80483 0.81242 0.0
H1933 H 0.03456 0.81724 0.83215 0.0
H1934 H 0.10772 0.81207 0.77057 0.0
H1935 H 0.11875 0.82014 0.79169 0.0
H1936 H 0.08831 0.79167 0.76093 0.0
H1937 H 0.06378 0.78802 0.75977 0.0
C1938 C 0.28083 0.0952 0.80333 0.0
C1939 C 0.26833 0.09182 0.81822 0.0
C1940 C 0.27577 0.0578 0.8174 0.0
C1941 C 0.2862 0.06081 0.80083 0.0
N1942 N 0.29637 0.08234 0.77633 0.0
N1943 N 0.25234 0.06979 0.8385 0.0
C1944 C 0.28832 0.07953 0.79343 0.0
C1945 C 0.26544 0.07308 0.82509 0.0
N1946 N 0.28578 0.11346 0.79878 0.0
N1947 N 0.27616 0.04041 0.82607 0.0
H1948 H 0.24474 0.08065 0.84466 0.0
H1949 H 0.24797 0.05623 0.84251 0.0
H1950 H 0.28389 0.02904 0.82101 0.0
H1951 H 0.27041 0.03775 0.83919 0.0
H1952 H 0.29647 0.11681 0.78954 0.0
H1953 H 0.28042 0.12531 0.80556 0.0
H1954 H 0.29605 0.09527 0.76914 0.0
H1955 H 0.302 0.07145 0.76844 0.0
C1956 C 0.97015 0.2729 0.81354 0.0
C1957 C 0.97442 0.25924 0.82783 0.0
C1958 C 1.00854 0.26561 0.82475 0.0
C1959 C 1.00432 0.27684 0.80838 0.0
N1960 N 0.98072 0.28987 0.78605 0.0
N1961 N 0.99754 0.24179 0.84682 0.0
C1962 C 0.98502 0.28043 0.80263 0.0
C1963 C 0.9936 0.25551 0.83353 0.0
N1964 N 0.9518 0.27868 0.81042 0.0
N1965 N 0.02684 0.26491 0.83209 0.0
H1966 H 0.98696 0.23458 0.85397 0.0
H1967 H 0.01116 0.23675 0.84995 0.0
H1968 H 0.03799 0.27247 0.82618 0.0
H1969 H 0.03067 0.25842 0.84496 0.0
H1970 H 0.948 0.29006 0.80165 0.0
H1971 H 0.94054 0.27326 0.818 0.0
H1972 H 0.96703 0.29051 0.77985 0.0
H1973 H 0.9909 0.29598 0.77765 0.0
C1974 C 0.80719 0.9726 0.81998 0.0
C1975 C 0.81506 0.95873 0.80801 0.0
C1976 C 0.81072 0.98022 0.78082 0.0
C1977 C 0.80065 0.99305 0.79223 0.0
N1978 N 0.78754 1.00058 0.82232 0.0
N1979 N 0.82042 0.94774 0.77623 0.0
C1980 C 0.79829 0.98893 0.81172 0.0
C1981 C 0.81579 0.96211 0.78821 0.0
N1982 N 0.80888 0.97055 0.83929 0.0
N1983 N 0.81573 0.98531 0.76298 0.0
H1984 H 0.82373 0.93406 0.78092 0.0
H1985 H 0.81905 0.94879 0.76147 0.0
H1986 H 0.81256 0.9984 0.75688 0.0
H1987 H 0.8248 0.97728 0.75497 0.0
H1988 H 0.80513 0.98105 0.84882 0.0
H1989 H 0.81568 0.95904 0.84585 0.0
H1990 H 0.7835 0.99721 0.83597 0.0
H1991 H 0.78159 0.01311 0.81697 0.0
C1992 C 0.19989 0.0842 0.20647 0.0
C1993 C 0.20078 0.10119 0.21734 0.0
C1994 C 0.21026 0.08276 0.24577 0.0
C1995 C 0.21221 0.0663 0.23432 0.0
N1996 N 0.2117 0.05243 0.20271 0.0
N1997 N 0.20886 0.11718 0.247 0.0
C1998 C 0.20759 0.06721 0.2144 0.0
C1999 C 0.20643 0.10061 0.23694 0.0
N2000 N 0.19141 0.0842 0.18861 0.0
N2001 N 0.2116 0.08121 0.26513 0.0
H2002 H 0.20619 0.13052 0.24106 0.0
H2003 H 0.21499 0.11782 0.26073 0.0
H2004 H 0.21385 0.06827 0.27206 0.0
H2005 H 0.20854 0.09229 0.27429 0.0
H2006 H 0.18846 0.07181 0.18083 0.0
H2007 H 0.18564 0.09637 0.18229 0.0
H2008 H 0.2108 0.05339 0.18793 0.0
H2009 H 0.21769 0.03977 0.20747 0.0
C2010 C 0.21373 0.95159 0.81308 0.0
C2011 C 0.21581 0.93249 0.80705 0.0
C2012 C 0.23161 0.94345 0.77864 0.0
C2013 C 0.23059 0.96236 0.78528 0.0
N2014 N 0.2234 0.98467 0.80969 0.0
N2015 N 0.22873 0.90976 0.78561 0.0
C2016 C 0.22237 0.9665 0.80276 0.0
C2017 C 0.22532 0.92827 0.79021 0.0
N2018 N 0.20306 0.95548 0.82834 0.0
N2019 N 0.23826 0.94018 0.76101 0.0
H2020 H 0.22418 0.89829 0.7937 0.0
H2021 H 0.23721 0.90573 0.7746 0.0
H2022 H 0.24314 0.95114 0.75243 0.0
H2023 H 0.23773 0.92697 0.75432 0.0
H2024 H 0.19929 0.96915 0.83223 0.0
H2025 H 0.19681 0.94489 0.83645 0.0
H2026 H 0.21952 0.98842 0.82327 0.0
H2027 H 0.22947 0.99586 0.80226 0.0
C2028 C 0.1173 0.20393 0.8145 0.0
C2029 C 0.13535 0.20791 0.80703 0.0
C2030 C 0.11972 0.22478 0.78013 0.0
C2031 C 0.1019 0.22193 0.78832 0.0
N2032 N 0.0837 0.21153 0.81447 0.0
N2033 N 0.15417 0.22431 0.78424 0.0
C2034 C 0.1007 0.21223 0.80585 0.0
C2035 C 0.13668 0.21895 0.79022 0.0
N2036 N 0.11598 0.19174 0.82953 0.0
N2037 N 0.12026 0.23262 0.76242 0.0
H2038 H 0.16687 0.22021 0.79119 0.0
H2039 H 0.15615 0.23395 0.77327 0.0
H2040 H 0.10803 0.23712 0.75487 0.0
H2041 H 0.13247 0.23339 0.75464 0.0
H2042 H 0.10311 0.18667 0.83438 0.0
H2043 H 0.12781 0.18548 0.83629 0.0
H2044 H 0.08211 0.20644 0.82819 0.0
H2045 H 0.07137 0.21752 0.8084 0.0
C2046 C 0.87038 0.10478 0.80416 0.0
C2047 C 0.8641 0.12376 0.80153 0.0
C2048 C 0.8418 0.11324 0.7757 0.0
C2049 C 0.84875 0.09449 0.77766 0.0
N2050 N 0.87088 0.07245 0.79174 0.0
N2051 N 0.84603 0.14676 0.78315 0.0
C2052 C 0.86343 0.09029 0.79134 0.0
C2053 C 0.85044 0.12819 0.78679 0.0
N2054 N 0.88259 0.10059 0.81918 0.0
N2055 N 0.82641 0.11653 0.7637 0.0
H2056 H 0.85177 0.15809 0.7912 0.0
H2057 H 0.8378 0.15113 0.77133 0.0
H2058 H 0.82002 0.10587 0.75526 0.0
H2059 H 0.81914 0.12932 0.76309 0.0
H2060 H 0.88629 0.08682 0.82311 0.0
H2061 H 0.88823 0.11093 0.82856 0.0
H2062 H 0.88281 0.06866 0.80009 0.0
H2063 H 0.8658 0.06166 0.78258 0.0
C2064 C 0.94621 0.82045 0.82915 0.0
C2065 C 0.92835 0.81819 0.81908 0.0
C2066 C 0.94051 0.79079 0.80191 0.0
C2067 C 0.95854 0.79364 0.81131 0.0
N2068 N 0.97973 0.81232 0.83165 0.0
N2069 N 0.90902 0.80309 0.7941 0.0
C2070 C 0.9617 0.80881 0.82434 0.0
C2071 C 0.92566 0.80389 0.8049 0.0
N2072 N 0.94816 0.83339 0.84365 0.0
N2073 N 0.93757 0.77517 0.79053 0.0
H2074 H 0.8978 0.81234 0.79608 0.0
H2075 H 0.90677 0.79428 0.7823 0.0
H2076 H 0.94828 0.76545 0.78811 0.0
H2077 H 0.92435 0.77105 0.78456 0.0
H2078 H 0.96007 0.83434 0.85294 0.0
H2079 H 0.93732 0.84257 0.84715 0.0
H2080 H 0.98362 0.8243 0.83968 0.0
H2081 H 0.99118 0.80375 0.82855 0.0
C2082 C 0.78772 0.93083 0.24011 0.0
C2083 C 0.79828 0.93451 0.22382 0.0
C2084 C 0.7892 0.96815 0.22492 0.0
C2085 C 0.78147 0.96497 0.24289 0.0
N2086 N 0.77425 0.94357 0.2684 0.0
N2087 N 0.80946 0.9565 0.20046 0.0
C2088 C 0.78072 0.94632 0.25059 0.0
C2089 C 0.79887 0.9531 0.21593 0.0
N2090 N 0.78434 0.91246 0.2455 0.0
N2091 N 0.78751 0.98566 0.21665 0.0
H2092 H 0.81638 0.94575 0.19338 0.0
H2093 H 0.81227 0.97003 0.19522 0.0
H2094 H 0.78068 0.99688 0.22312 0.0
H2095 H 0.7914 0.98865 0.20287 0.0
H2096 H 0.77516 0.90873 0.25612 0.0
H2097 H 0.78933 0.90079 0.23813 0.0
H2098 H 0.77551 0.9308 0.27581 0.0
H2099 H 0.76865 0.9545 0.27634 0.0
C2100 C 0.07427 0.81632 0.21997 0.0
C2101 C 0.09331 0.80986 0.22134 0.0
C2102 C 0.08383 0.78419 0.24276 0.0
C2103 C 0.06543 0.79208 0.24321 0.0
N2104 N 0.04296 0.81599 0.23321 0.0
N2105 N 0.11685 0.78864 0.23499 0.0
C2106 C 0.06055 0.80816 0.23194 0.0
C2107 C 0.09824 0.79393 0.23288 0.0
N2108 N 0.06927 0.83001 0.20697 0.0
N2109 N 0.08745 0.76735 0.25182 0.0
H2110 H 0.12777 0.7953 0.22787 0.0
H2111 H 0.12177 0.77857 0.2448 0.0
H2112 H 0.07714 0.75998 0.25918 0.0
H2113 H 0.09999 0.75983 0.25072 0.0
H2114 H 0.05529 0.83401 0.20383 0.0
H2115 H 0.07903 0.83647 0.19821 0.0
H2116 H 0.0392 0.82904 0.22728 0.0
H2117 H 0.03228 0.80979 0.24106 0.0
C2118 C 0.96233 0.21332 0.22009 0.0
C2119 C 0.94763 0.20983 0.23278 0.0
C2120 C 0.96881 0.22058 0.25945 0.0
C2121 C 0.9825 0.22638 0.24637 0.0
N2122 N 0.98989 0.23259 0.21369 0.0
N2123 N 0.93576 0.21257 0.26429 0.0
C2124 C 0.9787 0.22383 0.22652 0.0
C2125 C 0.95057 0.21404 0.25245 0.0
N2126 N 0.9608 0.20641 0.20192 0.0
N2127 N 0.97337 0.22098 0.27853 0.0
H2128 H 0.92216 0.208 0.25967 0.0
H2129 H 0.93652 0.21738 0.27831 0.0
H2130 H 0.98664 0.22558 0.28409 0.0
H2131 H 0.96468 0.21517 0.28868 0.0
H2132 H 0.97198 0.20695 0.19271 0.0
H2133 H 0.94909 0.19842 0.19671 0.0
H2134 H 0.98659 0.23266 0.19911 0.0
H2135 H 1.00116 0.24168 0.21767 0.0
C2136 C 0.20483 0.74827 0.566 0.0
C2137 C 0.20812 0.75532 0.58475 0.0
C2138 C 0.23229 0.77754 0.57338 0.0
C2139 C 0.23162 0.76779 0.55574 0.0
N2140 N 0.21673 0.74488 0.5343 0.0
N2141 N 0.22447 0.77702 0.60662 0.0
C2142 C 0.21746 0.75367 0.55165 0.0
C2143 C 0.22141 0.7704 0.58846 0.0
N2144 N 0.1897 0.73629 0.56211 0.0
N2145 N 0.24362 0.79336 0.57572 0.0
H2146 H 0.21641 0.77248 0.61788 0.0
H2147 H 0.23553 0.78631 0.61079 0.0
H2148 H 0.25165 0.79876 0.56481 0.0
H2149 H 0.24375 0.80209 0.58768 0.0
H2150 H 0.18551 0.73166 0.54849 0.0
H2151 H 0.18029 0.73224 0.57246 0.0
H2152 H 0.20836 0.73291 0.53101 0.0
H2153 H 0.22512 0.74933 0.52325 0.0
C2154 C 0.81393 0.71346 0.56957 0.0
C2155 C 0.80766 0.71518 0.58836 0.0
C2156 C 0.78223 0.7364 0.57705 0.0
C2157 C 0.79063 0.7373 0.55919 0.0
N2158 N 0.81378 0.72658 0.53763 0.0
N2159 N 0.78601 0.72817 0.61045 0.0
C2160 C 0.80611 0.72552 0.5551 0.0
C2161 C 0.7916 0.72635 0.59219 0.0
N2162 N 0.82735 0.70031 0.56569 0.0
N2163 N 0.76541 0.74537 0.57947 0.0
H2164 H 0.79229 0.72073 0.62185 0.0
H2165 H 0.7759 0.73784 0.61456 0.0
H2166 H 0.75832 0.75271 0.56845 0.0
H2167 H 0.75763 0.74415 0.59164 0.0
H2168 H 0.83145 0.69716 0.55203 0.0
H2169 H 0.83337 0.69138 0.57608 0.0
H2170 H 0.82648 0.72021 0.53431 0.0
H2171 H 0.80763 0.73453 0.5265 0.0
C2172 C 0.80185 0.31655 0.5994 0.0
C2173 C 0.81273 0.33369 0.59857 0.0
C2174 C 0.80082 0.33869 0.56553 0.0
C2175 C 0.78944 0.32202 0.56664 0.0
N2176 N 0.77748 0.29583 0.58459 0.0
N2177 N 0.82149 0.36212 0.5818 0.0
C2178 C 0.78951 0.31117 0.58361 0.0
C2179 C 0.81188 0.34508 0.58187 0.0
N2180 N 0.80363 0.30527 0.61519 0.0
N2181 N 0.80128 0.34808 0.54857 0.0
H2182 H 0.83023 0.36688 0.59325 0.0
H2183 H 0.82011 0.37206 0.57091 0.0
H2184 H 0.79287 0.34388 0.53666 0.0
H2185 H 0.81057 0.35929 0.54589 0.0
H2186 H 0.7978 0.29165 0.61609 0.0
H2187 H 0.81187 0.30911 0.62731 0.0
H2188 H 0.77516 0.2882 0.59694 0.0
H2189 H 0.76883 0.29128 0.57303 0.0
C2190 C 0.25269 0.3597 0.61182 0.0
C2191 C 0.23558 0.35056 0.61714 0.0
C2192 C 0.23518 0.33201 0.58757 0.0
C2193 C 0.25358 0.33908 0.58374 0.0
N2194 N 0.2815 0.35686 0.59452 0.0
N2195 N 0.21293 0.32473 0.6118 0.0
C2196 C 0.26281 0.35217 0.59652 0.0
C2197 C 0.22749 0.33575 0.6055 0.0
N2198 N 0.25894 0.376 0.62081 0.0
N2199 N 0.22465 0.32245 0.57378 0.0
H2200 H 0.20741 0.32642 0.62518 0.0
H2201 H 0.20778 0.31266 0.60454 0.0
H2202 H 0.22931 0.32058 0.56006 0.0
H2203 H 0.2105 0.31842 0.5753 0.0
H2204 H 0.27035 0.38413 0.61626 0.0
H2205 H 0.25152 0.38249 0.6315 0.0
H2206 H 0.28945 0.36496 0.6045 0.0
H2207 H 0.28955 0.35099 0.58396 0.0
C2208 C 0.22899 0.2955 0.45068 0.0
C2209 C 0.2172 0.31175 0.44957 0.0
C2210 C 0.22393 0.31816 0.48352 0.0
C2211 C 0.23602 0.30217 0.48451 0.0
N2212 N 0.2465 0.27304 0.4708 0.0
N2213 N 0.19985 0.33589 0.4655 0.0
C2214 C 0.23725 0.28991 0.46865 0.0
C2215 C 0.2135 0.32223 0.46622 0.0
N2216 N 0.23304 0.28599 0.43443 0.0
N2217 N 0.22304 0.32981 0.49901 0.0
H2218 H 0.19208 0.33932 0.45302 0.0
H2219 H 0.19513 0.34281 0.47745 0.0
H2220 H 0.22957 0.3265 0.51218 0.0
H2221 H 0.21651 0.34301 0.49867 0.0
H2222 H 0.24315 0.27536 0.43391 0.0
H2223 H 0.22719 0.28959 0.42106 0.0
H2224 H 0.24671 0.26265 0.46028 0.0
H2225 H 0.25258 0.26869 0.48384 0.0
C2226 C 0.25107 0.72203 0.43984 0.0
C2227 C 0.24511 0.70294 0.44263 0.0
C2228 C 0.25743 0.70451 0.47583 0.0
C2229 C 0.26187 0.72405 0.47342 0.0
N2230 N 0.25965 0.75236 0.45415 0.0
N2231 N 0.24044 0.67641 0.46362 0.0
C2232 C 0.2577 0.7331 0.45572 0.0
C2233 C 0.24776 0.69422 0.46073 0.0
N2234 N 0.25102 0.72941 0.42186 0.0
N2235 N 0.26248 0.69588 0.49265 0.0
H2236 H 0.23343 0.66847 0.45284 0.0
H2237 H 0.24014 0.66996 0.47691 0.0
H2238 H 0.26856 0.70338 0.50425 0.0
H2239 H 0.26161 0.68126 0.49481 0.0
H2240 H 0.25721 0.74249 0.41867 0.0
H2241 H 0.24642 0.72172 0.4098 0.0
H2242 H 0.25481 0.76 0.44226 0.0
H2243 H 0.26454 0.76103 0.46533 0.0
C2244 C 0.84044 0.74367 0.45474 0.0
C2245 C 0.83492 0.75032 0.43629 0.0
C2246 C 0.81702 0.77613 0.45037 0.0
C2247 C 0.82102 0.76835 0.46861 0.0
N2248 N 0.83457 0.74383 0.48848 0.0
N2249 N 0.81693 0.7719 0.41611 0.0
C2250 C 0.83232 0.75193 0.4709 0.0
C2251 C 0.82301 0.76639 0.43397 0.0
N2252 N 0.85365 0.72965 0.45676 0.0
N2253 N 0.80769 0.79301 0.44891 0.0
H2254 H 0.82139 0.76537 0.40379 0.0
H2255 H 0.80665 0.78217 0.41342 0.0
H2256 H 0.80308 0.80022 0.46079 0.0
H2257 H 0.80572 0.80056 0.43629 0.0
H2258 H 0.85971 0.72545 0.46983 0.0
H2259 H 0.85974 0.72318 0.44521 0.0
H2260 H 0.84085 0.73069 0.49092 0.0
H2261 H 0.82888 0.74968 0.50056 0.0
C2262 C 0.80196 0.31186 0.43471 0.0
C2263 C 0.82184 0.31548 0.43652 0.0
C2264 C 0.82392 0.29438 0.46449 0.0
C2265 C 0.80385 0.29199 0.46335 0.0
N2266 N 0.7736 0.30347 0.45095 0.0
N2267 N 0.85129 0.31305 0.45522 0.0
C2268 C 0.79282 0.3022 0.44949 0.0
C2269 C 0.83272 0.30755 0.45205 0.0
N2270 N 0.79183 0.31695 0.41851 0.0
N2271 N 0.83459 0.2837 0.47705 0.0
H2272 H 0.85807 0.32282 0.44658 0.0
H2273 H 0.85945 0.30926 0.4673 0.0
H2274 H 0.82853 0.2742 0.4865 0.0
H2275 H 0.84938 0.28323 0.47718 0.0
H2276 H 0.77771 0.3128 0.41571 0.0
H2277 H 0.79798 0.32363 0.40703 0.0
H2278 H 0.7651 0.31222 0.44228 0.0
H2279 H 0.76649 0.29751 0.4622 0.0
C2280 C 0.08363 0.73386 0.71545 0.0
C2281 C 0.09612 0.71844 0.71902 0.0
C2282 C 0.07744 0.70905 0.74626 0.0
C2283 C 0.06409 0.72337 0.74152 0.0
N2284 N 0.05166 0.74542 0.71808 0.0
N2285 N 0.10196 0.68855 0.73506 0.0
C2286 C 0.06634 0.73459 0.72503 0.0
C2287 C 0.09216 0.70517 0.73363 0.0
N2288 N 0.08858 0.74829 0.70359 0.0
N2289 N 0.07649 0.69966 0.76315 0.0
H2290 H 0.11229 0.68481 0.72563 0.0
H2291 H 0.09844 0.67765 0.74434 0.0
H2292 H 0.06609 0.70246 0.77284 0.0
H2293 H 0.08698 0.69042 0.76826 0.0
H2294 H 0.08072 0.76069 0.702 0.0
H2295 H 0.1015 0.74882 0.69692 0.0
H2296 H 0.05198 0.75263 0.70516 0.0
H2297 H 0.03837 0.74532 0.72405 0.0
C2298 C 0.82276 0.57508 0.69944 0.0
C2299 C 0.82346 0.59229 0.71011 0.0
C2300 C 0.80345 0.57774 0.73399 0.0
C2301 C 0.80263 0.56066 0.72325 0.0
N2302 N 0.81315 0.54167 0.69762 0.0
N2303 N 0.81688 0.60953 0.73863 0.0
C2304 C 0.81287 0.55893 0.70652 0.0
C2305 C 0.81459 0.59343 0.7278 0.0
N2306 N 0.83119 0.57443 0.68233 0.0
N2307 N 0.79305 0.57899 0.74984 0.0
H2308 H 0.8244 0.62151 0.73426 0.0
H2309 H 0.81238 0.6108 0.75244 0.0
H2310 H 0.78548 0.56744 0.75501 0.0
H2311 H 0.79114 0.59146 0.75743 0.0
H2312 H 0.82966 0.56315 0.6728 0.0
H2313 H 0.83934 0.58567 0.67723 0.0
H2314 H 0.82155 0.53863 0.68625 0.0
H2315 H 0.80563 0.52986 0.70242 0.0
C2316 C 0.97301 0.31407 0.70174 0.0
C2317 C 0.95508 0.30746 0.70776 0.0
C2318 C 0.97086 0.28214 0.72639 0.0
C2319 C 0.98862 0.28824 0.71972 0.0
N2320 N 1.00699 0.30853 0.70004 0.0
N2321 N 0.93638 0.28396 0.72375 0.0
C2322 C 0.98977 0.30377 0.70702 0.0
C2323 C 0.95385 0.29112 0.71954 0.0
N2324 N 0.97402 0.33055 0.6915 0.0
N2325 N 0.97043 0.26795 0.73962 0.0
H2326 H 0.92366 0.29032 0.71918 0.0
H2327 H 0.93432 0.27107 0.73064 0.0
H2328 H 0.98257 0.2606 0.74421 0.0
H2329 H 0.95839 0.26415 0.74686 0.0
H2330 H 0.9867 0.33729 0.68823 0.0
H2331 H 0.96203 0.33822 0.6871 0.0
H2332 H 1.00884 0.31844 0.6893 0.0
H2333 H 0.01952 0.30166 0.70433 0.0
C2334 C 0.22722 0.48707 0.731 0.0
C2335 C 0.23144 0.47005 0.74108 0.0
C2336 C 0.25661 0.48661 0.76016 0.0
C2337 C 0.25333 0.50318 0.74908 0.0
N2338 N 0.23286 0.52115 0.72789 0.0
N2339 N 0.24662 0.4544 0.76798 0.0
C2340 C 0.23762 0.50403 0.73584 0.0
C2341 C 0.24494 0.47014 0.75667 0.0
N2342 N 0.21392 0.48673 0.71622 0.0
N2343 N 0.27153 0.48638 0.77325 0.0
H2344 H 0.23837 0.44212 0.76557 0.0
H2345 H 0.25506 0.45389 0.78049 0.0
H2346 H 0.27942 0.49859 0.77689 0.0
H2347 H 0.27644 0.47419 0.78014 0.0
H2348 H 0.21161 0.49797 0.70684 0.0
H2349 H 0.20558 0.47473 0.71277 0.0
H2350 H 0.22076 0.52331 0.71915 0.0
H2351 H 0.24031 0.53369 0.73144 0.0
C2352 C 0.0742 0.30425 0.32444 0.0
C2353 C 0.09059 0.29278 0.32456 0.0
C2354 C 0.07159 0.26658 0.31008 0.0
C2355 C 0.05594 0.27899 0.30761 0.0
N2356 N 0.04371 0.31095 0.30902 0.0
N2357 N 0.10566 0.26356 0.31613 0.0
C2358 C 0.05751 0.29814 0.31403 0.0
C2359 C 0.08949 0.274 0.31713 0.0
N2360 N 0.07455 0.32098 0.33439 0.0
N2361 N 0.06922 0.24767 0.30597 0.0
H2362 H 0.11894 0.26845 0.32138 0.0
H2363 H 0.10618 0.25064 0.30894 0.0
H2364 H 0.05626 0.24186 0.30083 0.0
H2365 H 0.07951 0.23753 0.30918 0.0
H2366 H 0.06242 0.32895 0.33641 0.0
H2367 H 0.08657 0.32593 0.34219 0.0
H2368 H 0.04516 0.3255 0.31158 0.0
H2369 H 0.03166 0.30746 0.30054 0.0
C2370 C 0.25684 0.56894 0.32559 0.0
C2371 C 0.23901 0.57631 0.31893 0.0
C2372 C 0.23912 0.5544 0.29188 0.0
C2373 C 0.25862 0.55033 0.29616 0.0
N2374 N 0.28601 0.5533 0.31796 0.0
N2375 N 0.20976 0.5625 0.30593 0.0
C2376 C 0.2675 0.5575 0.31327 0.0
C2377 C 0.2289 0.56524 0.3049 0.0
N2378 N 0.26182 0.56977 0.34453 0.0
N2379 N 0.23035 0.54871 0.27508 0.0
H2380 H 0.20246 0.56738 0.31753 0.0
H2381 H 0.20195 0.55313 0.29702 0.0
H2382 H 0.23724 0.5414 0.26457 0.0
H2383 H 0.21664 0.55298 0.27091 0.0
H2384 H 0.27379 0.56317 0.3506 0.0
H2385 H 0.25233 0.57453 0.35442 0.0
H2386 H 0.29369 0.55992 0.32919 0.0
H2387 H 0.29395 0.54403 0.31001 0.0
C2388 C 0.94547 0.7304 0.29063 0.0
C2389 C 0.94614 0.71842 0.30686 0.0
C2390 C 0.98104 0.71881 0.30703 0.0
C2391 C 0.98033 0.7333 0.29307 0.0
N2392 N 0.96229 0.75259 0.27073 0.0
N2393 N 0.96423 0.70057 0.33044 0.0
C2394 C 0.96266 0.73872 0.2843 0.0
C2395 C 0.96386 0.71217 0.31485 0.0
N2396 N 0.92835 0.73385 0.28139 0.0
N2397 N 0.99827 0.7115 0.31274 0.0
H2398 H 0.95193 0.69491 0.3361 0.0
H2399 H 0.97658 0.69723 0.33835 0.0
H2400 H 1.01095 0.71611 0.30698 0.0
H2401 H 0.99993 0.69987 0.32175 0.0
H2402 H 0.92689 0.74103 0.26851 0.0
H2403 H 0.91554 0.7282 0.28592 0.0
H2404 H 0.94993 0.75903 0.26541 0.0
H2405 H 0.97462 0.7582 0.26515 0.0
C2406 C 0.83115 0.4728 0.32607 0.0
C2407 C 0.82321 0.45475 0.32086 0.0
C2408 C 0.80626 0.46902 0.29326 0.0
C2409 C 0.81378 0.48708 0.29876 0.0
N2410 N 0.8305 0.50711 0.32167 0.0
N2411 N 0.80085 0.43594 0.30164 0.0
C2412 C 0.82539 0.48923 0.31558 0.0
C2413 C 0.80997 0.45297 0.30511 0.0
N2414 N 0.84463 0.4741 0.34063 0.0
N2415 N 0.79613 0.46723 0.27631 0.0
H2416 H 0.80337 0.42391 0.31 0.0
H2417 H 0.78973 0.43405 0.29153 0.0
H2418 H 0.79328 0.4788 0.26741 0.0
H2419 H 0.79167 0.45426 0.2704 0.0
H2420 H 0.85257 0.48639 0.34379 0.0
H2421 H 0.84864 0.4625 0.34905 0.0
H2422 H 0.83736 0.51001 0.33478 0.0
H2423 H 0.8266 0.51929 0.31406 0.0
C2424 C 0.25756 0.63027 0.7047 0.0
C2425 C 0.23937 0.62664 0.69575 0.0
C2426 C 0.24437 0.5923 0.69857 0.0
C2427 C 0.26302 0.59597 0.70614 0.0
N2428 N 0.28859 0.61779 0.71423 0.0
N2429 N 0.21642 0.60448 0.68149 0.0
C2430 C 0.26996 0.61481 0.70858 0.0
C2431 C 0.23302 0.60771 0.69193 0.0
N2432 N 0.2627 0.64841 0.70998 0.0
N2433 N 0.23733 0.5741 0.69841 0.0
H2434 H 0.20766 0.61541 0.67649 0.0
H2435 H 0.21204 0.59111 0.67652 0.0
H2436 H 0.24539 0.56255 0.70318 0.0
H2437 H 0.22317 0.57059 0.69498 0.0
H2438 H 0.27492 0.65176 0.71826 0.0
H2439 H 0.25399 0.66008 0.70732 0.0
H2440 H 0.29521 0.63112 0.71462 0.0
H2441 H 0.29789 0.60662 0.71713 0.0
C2442 C 0.22279 0.41518 0.289 0.0
C2443 C 0.21007 0.41837 0.30376 0.0
C2444 C 0.20911 0.45235 0.29557 0.0
C2445 C 0.2206 0.44885 0.27998 0.0
N2446 N 0.23683 0.42712 0.2603 0.0
N2447 N 0.18925 0.43936 0.31987 0.0
C2448 C 0.22704 0.43028 0.2763 0.0
C2449 C 0.20273 0.43682 0.30674 0.0
N2450 N 0.23113 0.39783 0.28744 0.0
N2451 N 0.20481 0.47068 0.29998 0.0
H2452 H 0.18453 0.42843 0.32856 0.0
H2453 H 0.1818 0.45192 0.32132 0.0
H2454 H 0.20916 0.48224 0.29189 0.0
H2455 H 0.19821 0.47458 0.3123 0.0
H2456 H 0.24193 0.39504 0.27826 0.0
H2457 H 0.22824 0.38646 0.29641 0.0
H2458 H 0.24043 0.41368 0.25556 0.0
H2459 H 0.2402 0.43802 0.25093 0.0
C2460 C 0.0983 0.7048 0.33044 0.0
C2461 C 0.11623 0.70973 0.32319 0.0
C2462 C 0.10235 0.73822 0.30817 0.0
C2463 C 0.08441 0.73307 0.31511 0.0
N2464 N 0.06417 0.7101 0.32956 0.0
N2465 N 0.13479 0.72904 0.3025 0.0
C2466 C 0.08207 0.71591 0.32527 0.0
C2467 C 0.11806 0.7258 0.31116 0.0
N2468 N 0.09695 0.6899 0.34279 0.0
N2469 N 0.10443 0.7554 0.29941 0.0
H2470 H 0.14657 0.72029 0.30454 0.0
H2471 H 0.1366 0.73941 0.29218 0.0
H2472 H 0.09314 0.7647 0.29706 0.0
H2473 H 0.11746 0.76106 0.2956 0.0
H2474 H 0.08488 0.68686 0.3503 0.0
H2475 H 0.10837 0.68109 0.3464 0.0
H2476 H 0.06104 0.69686 0.33532 0.0
H2477 H 0.05213 0.71804 0.32589 0.0
C2478 C 0.78808 0.61868 0.31235 0.0
C2479 C 0.80282 0.61596 0.32651 0.0
C2480 C 0.79945 0.58137 0.32311 0.0
C2481 C 0.78568 0.58415 0.3081 0.0
N2482 N 0.76317 0.60434 0.29167 0.0
N2483 N 0.8192 0.59532 0.34886 0.0
C2484 C 0.77864 0.60251 0.30395 0.0
C2485 C 0.80732 0.59743 0.33312 0.0
N2486 N 0.78387 0.63666 0.30627 0.0
N2487 N 0.80565 0.56339 0.32702 0.0
H2488 H 0.82526 0.60689 0.35633 0.0
H2489 H 0.82191 0.58232 0.35541 0.0
H2490 H 0.79937 0.55136 0.32051 0.0
H2491 H 0.81728 0.56036 0.33612 0.0
H2492 H 0.77488 0.63962 0.29454 0.0
H2493 H 0.79014 0.64881 0.3125 0.0
H2494 H 0.75631 0.61713 0.28892 0.0
H2495 H 0.75616 0.59258 0.28543 0.0
C2496 C 0.95967 0.33715 0.31842 0.0
C2497 C 0.94066 0.33316 0.31189 0.0
C2498 C 0.95203 0.31872 0.28289 0.0
C2499 C 0.97098 0.32156 0.29 0.0
N2500 N 0.99321 0.33086 0.31529 0.0
N2501 N 0.91847 0.31793 0.2894 0.0
C2502 C 0.97491 0.33009 0.30799 0.0
C2503 C 0.93675 0.32328 0.29452 0.0
N2504 N 0.96311 0.34813 0.33429 0.0
N2505 N 0.94879 0.31217 0.26473 0.0
H2506 H 0.90691 0.32118 0.29754 0.0
H2507 H 0.91486 0.30907 0.27791 0.0
H2508 H 0.95982 0.30883 0.25594 0.0
H2509 H 0.93539 0.31149 0.25785 0.0
H2510 H 0.97655 0.35331 0.33861 0.0
H2511 H 0.95231 0.35319 0.34253 0.0
H2512 H 0.99698 0.335 0.32917 0.0
H2513 H 1.00462 0.32603 0.30777 0.0
C2514 C 0.82075 0.42603 0.75539 0.0
C2515 C 0.83742 0.43035 0.74555 0.0
C2516 C 0.83737 0.46317 0.75771 0.0
C2517 C 0.82044 0.45899 0.76727 0.0
N2518 N 0.7976 0.4357 0.77783 0.0
N2519 N 0.86354 0.45164 0.7396 0.0
C2520 C 0.81273 0.44014 0.76706 0.0
C2521 C 0.84637 0.44851 0.74748 0.0
N2522 N 0.81208 0.4086 0.75286 0.0
N2523 N 0.84459 0.48134 0.75814 0.0
H2524 H 0.87019 0.44142 0.73156 0.0
H2525 H 0.87187 0.46382 0.74192 0.0
H2526 H 0.83929 0.49198 0.76669 0.0
H2527 H 0.85538 0.48615 0.74967 0.0
H2528 H 0.79855 0.40526 0.75734 0.0
H2529 H 0.81802 0.39758 0.74529 0.0
H2530 H 0.7931 0.42183 0.78046 0.0
H2531 H 0.79001 0.44568 0.7852 0.0
C2532 C 0.09268 0.33691 0.72705 0.0
C2533 C 0.10941 0.3396 0.73879 0.0
C2534 C 0.09348 0.32442 0.76533 0.0
C2535 C 0.07771 0.31962 0.75287 0.0
N2536 N 0.06438 0.31774 0.72058 0.0
N2537 N 0.12688 0.33342 0.7684 0.0
C2538 C 0.07779 0.32499 0.73338 0.0
C2539 C 0.11012 0.33273 0.75779 0.0
N2540 N 0.09083 0.34604 0.70994 0.0
N2541 N 0.09238 0.32153 0.78444 0.0
H2542 H 0.13939 0.33925 0.76336 0.0
H2543 H 0.12879 0.32677 0.78154 0.0
H2544 H 0.08033 0.31575 0.79048 0.0
H2545 H 0.10264 0.32648 0.79445 0.0
H2546 H 0.07815 0.34617 0.70171 0.0
H2547 H 0.10136 0.35503 0.70487 0.0
H2548 H 0.06501 0.31964 0.70595 0.0
H2549 H 0.05377 0.30811 0.72422 0.0
C2550 C 0.95765 0.7287 0.70638 0.0
C2551 C 0.93841 0.73249 0.71011 0.0
C2552 C 0.94895 0.75731 0.73296 0.0
C2553 C 0.96794 0.75125 0.73159 0.0
N2554 N 0.99089 0.73143 0.71717 0.0
N2555 N 0.91534 0.75035 0.72679 0.0
C2556 C 0.9725 0.73727 0.71805 0.0
C2557 C 0.93393 0.74703 0.72315 0.0
N2558 N 0.96166 0.7169 0.69169 0.0
N2559 N 0.94542 0.77289 0.74381 0.0
H2560 H 0.90397 0.74341 0.71958 0.0
H2561 H 0.91111 0.75917 0.73766 0.0
H2562 H 0.95633 0.78061 0.75097 0.0
H2563 H 0.93215 0.77916 0.74442 0.0
H2564 H 0.97532 0.71489 0.68704 0.0
H2565 H 0.95109 0.71021 0.68311 0.0
H2566 H 0.99494 0.71965 0.70944 0.0
H2567 H 1.00212 0.73799 0.72495 0.0
C2568 C 0.76024 0.20901 0.57104 0.0
C2569 C 0.74822 0.21879 0.58341 0.0
C2570 C 0.75191 0.24772 0.56456 0.0
C2571 C 0.76587 0.23883 0.55384 0.0
N2572 N 0.78474 0.21139 0.54779 0.0
N2573 N 0.73662 0.24885 0.59451 0.0
C2574 C 0.77047 0.21954 0.55734 0.0
C2575 C 0.74518 0.23855 0.58089 0.0
N2576 N 0.76135 0.18965 0.57192 0.0
N2577 N 0.74454 0.26473 0.55882 0.0
H2578 H 0.7322 0.24293 0.60718 0.0
H2579 H 0.73584 0.26364 0.59417 0.0
H2580 H 0.74856 0.27149 0.54647 0.0
H2581 H 0.73305 0.27099 0.56512 0.0
H2582 H 0.76839 0.18154 0.56211 0.0
H2583 H 0.75386 0.18152 0.58153 0.0
H2584 H 0.79019 0.19804 0.5511 0.0
H2585 H 0.79195 0.21858 0.53726 0.0
C2586 C 0.30233 0.24302 0.60356 0.0
C2587 C 0.32019 0.23498 0.59975 0.0
C2588 C 0.31723 0.24657 0.56688 0.0
C2589 C 0.30069 0.25665 0.57141 0.0
N2590 N 0.27749 0.26514 0.59392 0.0
N2591 N 0.34526 0.22952 0.57826 0.0
C2592 C 0.29306 0.25484 0.58964 0.0
C2593 C 0.32776 0.23677 0.58148 0.0
N2594 N 0.2942 0.23922 0.62045 0.0
N2595 N 0.32256 0.2461 0.54844 0.0
H2596 H 0.35309 0.22168 0.58838 0.0
H2597 H 0.35262 0.2322 0.56603 0.0
H2598 H 0.3149 0.2529 0.53742 0.0
H2599 H 0.33341 0.23766 0.54368 0.0
H2600 H 0.28034 0.24285 0.62336 0.0
H2601 H 0.3009 0.23127 0.63125 0.0
H2602 H 0.27259 0.2665 0.60758 0.0
H2603 H 0.26985 0.27313 0.58381 0.0
C2604 C 0.30806 0.81539 0.61431 0.0
C2605 C 0.32753 0.81362 0.62018 0.0
C2606 C 0.33347 0.79785 0.58994 0.0
C2607 C 0.31489 0.80234 0.58308 0.0
N2608 N 0.28533 0.81819 0.58761 0.0
N2609 N 0.35958 0.80567 0.61222 0.0
C2610 C 0.30229 0.81171 0.59501 0.0
C2611 C 0.34047 0.80533 0.60771 0.0
N2612 N 0.29506 0.82037 0.6272 0.0
N2613 N 0.34438 0.7864 0.57934 0.0
H2614 H 0.36549 0.81166 0.62471 0.0
H2615 H 0.36974 0.80161 0.60276 0.0
H2616 H 0.33942 0.78073 0.56629 0.0
H2617 H 0.35744 0.78109 0.58427 0.0
H2618 H 0.28044 0.82016 0.62411 0.0
H2619 H 0.29879 0.8229 0.64151 0.0
H2620 H 0.27638 0.8268 0.59515 0.0
H2621 H 0.28103 0.81644 0.57335 0.0
C2622 C 0.7429 0.80891 0.61748 0.0
C2623 C 0.72706 0.82123 0.61655 0.0
C2624 C 0.72924 0.82392 0.58195 0.0
C2625 C 0.74536 0.8121 0.58299 0.0
N2626 N 0.76592 0.79074 0.60041 0.0
N2627 N 0.70288 0.83779 0.59807 0.0
C2628 C 0.7516 0.80368 0.60039 0.0
C2629 C 0.71945 0.82782 0.59877 0.0
N2630 N 0.75003 0.80288 0.63482 0.0
N2631 N 0.72374 0.83179 0.56487 0.0
H2632 H 0.69552 0.84098 0.61019 0.0
H2633 H 0.69563 0.8418 0.58554 0.0
H2634 H 0.7303 0.82851 0.55229 0.0
H2635 H 0.71334 0.8421 0.56313 0.0
H2636 H 0.76273 0.79561 0.63687 0.0
H2637 H 0.74346 0.8058 0.64748 0.0
H2638 H 0.77014 0.78258 0.61213 0.0
H2639 H 0.77297 0.78731 0.58816 0.0
C2640 C 0.72486 0.81929 0.45263 0.0
C2641 C 0.70598 0.81195 0.45101 0.0
C2642 C 0.71187 0.79531 0.48141 0.0
C2643 C 0.73162 0.79942 0.48044 0.0
N2644 N 0.75722 0.81325 0.46306 0.0
N2645 N 0.68068 0.80684 0.47241 0.0
C2646 C 0.73819 0.81085 0.46547 0.0
C2647 C 0.69887 0.80341 0.46763 0.0
N2648 N 0.72938 0.83593 0.44383 0.0
N2649 N 0.70537 0.78424 0.49571 0.0
H2650 H 0.6728 0.81762 0.46578 0.0
H2651 H 0.67497 0.80207 0.48497 0.0
H2652 H 0.71423 0.77891 0.50665 0.0
H2653 H 0.69135 0.77927 0.49584 0.0
H2654 H 0.74255 0.84276 0.44595 0.0
H2655 H 0.71906 0.84401 0.43654 0.0
H2656 H 0.76248 0.82028 0.45131 0.0
H2657 H 0.76761 0.80649 0.47157 0.0
C2658 C 0.72657 0.23637 0.42041 0.0
C2659 C 0.7106 0.22419 0.42288 0.0
C2660 C 0.70871 0.23549 0.45588 0.0
C2661 C 0.72369 0.24863 0.4529 0.0
N2662 N 0.7462 0.26285 0.43244 0.0
N2663 N 0.6856 0.21266 0.44231 0.0
C2664 C 0.73248 0.24935 0.43518 0.0
C2665 C 0.70147 0.22383 0.4405 0.0
N2666 N 0.73619 0.23533 0.40399 0.0
N2667 N 0.70168 0.23409 0.4736 0.0
H2668 H 0.6804 0.20341 0.43164 0.0
H2669 H 0.677 0.21313 0.45393 0.0
H2670 H 0.70647 0.24286 0.48484 0.0
H2671 H 0.69202 0.22365 0.47755 0.0
H2672 H 0.74904 0.24233 0.40191 0.0
H2673 H 0.73197 0.22638 0.3927 0.0
H2674 H 0.75197 0.26574 0.41939 0.0
H2675 H 0.75111 0.27208 0.4432 0.0
C2676 C 0.30253 0.25473 0.44064 0.0
C2677 C 0.31795 0.2419 0.44117 0.0
C2678 C 0.32633 0.25145 0.47414 0.0
C2679 C 0.31213 0.26548 0.47288 0.0
N2680 N 0.2879 0.28214 0.45481 0.0
N2681 N 0.34587 0.22924 0.45757 0.0
C2682 C 0.30049 0.26753 0.45609 0.0
C2683 C 0.33018 0.24049 0.45775 0.0
N2684 N 0.28967 0.25438 0.42549 0.0
N2685 N 0.33582 0.2484 0.4912 0.0
H2686 H 0.34897 0.22072 0.44601 0.0
H2687 H 0.35648 0.22923 0.46837 0.0
H2688 H 0.33345 0.25653 0.50326 0.0
H2689 H 0.34495 0.23708 0.4938 0.0
H2690 H 0.27711 0.26205 0.42495 0.0
H2691 H 0.29078 0.24513 0.414 0.0
H2692 H 0.2802 0.28572 0.44238 0.0
H2693 H 0.28613 0.29163 0.46597 0.0
C2694 C 0.29675 0.84102 0.45336 0.0
C2695 C 0.29832 0.8316 0.43565 0.0
C2696 C 0.29344 0.80083 0.45104 0.0
C2697 C 0.2906 0.81021 0.4686 0.0
N2698 N 0.28694 0.83953 0.48594 0.0
N2699 N 0.29313 0.80329 0.41672 0.0
C2700 C 0.29119 0.83043 0.46952 0.0
C2701 C 0.29507 0.81173 0.43423 0.0
N2702 N 0.30167 0.85985 0.45502 0.0
N2703 N 0.2953 0.78151 0.45039 0.0
H2704 H 0.294 0.81088 0.40406 0.0
H2705 H 0.28873 0.78919 0.41473 0.0
H2706 H 0.29413 0.77273 0.46218 0.0
H2707 H 0.2996 0.77428 0.43843 0.0
H2708 H 0.30301 0.86702 0.46797 0.0
H2709 H 0.30594 0.86804 0.4436 0.0
H2710 H 0.28498 0.85415 0.48679 0.0
H2711 H 0.28411 0.83242 0.49849 0.0
C2712 C 0.59973 0.2293 0.68536 0.0
C2713 C 0.61835 0.23595 0.69075 0.0
C2714 C 0.60491 0.26255 0.70812 0.0
C2715 C 0.58646 0.25492 0.70415 0.0
N2716 N 0.5659 0.23038 0.69082 0.0
N2717 N 0.63907 0.25791 0.70833 0.0
C2718 C 0.58376 0.23815 0.69315 0.0
C2719 C 0.62107 0.2524 0.70235 0.0
N2720 N 0.59738 0.21472 0.67255 0.0
N2721 N 0.60681 0.27968 0.71722 0.0
H2722 H 0.65123 0.25107 0.70403 0.0
H2723 H 0.64203 0.26852 0.71839 0.0
H2724 H 0.59512 0.28715 0.72176 0.0
H2725 H 0.61963 0.28713 0.7191 0.0
H2726 H 0.58423 0.21042 0.66654 0.0
H2727 H 0.60878 0.20774 0.6668 0.0
H2728 H 0.56304 0.21709 0.68475 0.0
H2729 H 0.55395 0.23677 0.69614 0.0
C2730 C 0.32826 0.07727 0.69408 0.0
C2731 C 0.32336 0.0954 0.70114 0.0
C2732 C 0.29756 0.08092 0.71863 0.0
C2733 C 0.30342 0.06275 0.7128 0.0
N2734 N 0.32542 0.04294 0.69719 0.0
N2735 N 0.3051 0.11455 0.72193 0.0
C2736 C 0.31904 0.06073 0.70105 0.0
C2737 C 0.30846 0.09726 0.71392 0.0
N2738 N 0.34145 0.07595 0.68048 0.0
N2739 N 0.28125 0.08246 0.7283 0.0
H2740 H 0.31262 0.1269 0.71861 0.0
H2741 H 0.29586 0.11648 0.7329 0.0
H2742 H 0.27301 0.07065 0.73184 0.0
H2743 H 0.27505 0.09537 0.73149 0.0
H2744 H 0.34424 0.0634 0.67332 0.0
H2745 H 0.34876 0.08775 0.67536 0.0
H2746 H 0.33797 0.04035 0.6904 0.0
H2747 H 0.31874 0.03063 0.70201 0.0
C2748 C 0.46757 0.79498 0.71526 0.0
C2749 C 0.46113 0.80882 0.72816 0.0
C2750 C 0.49105 0.80601 0.74705 0.0
C2751 C 0.49617 0.7903 0.73582 0.0
N2752 N 0.48778 0.76777 0.71103 0.0
N2753 N 0.46529 0.82445 0.75871 0.0
C2754 C 0.484 0.7842 0.72038 0.0
C2755 C 0.47246 0.81348 0.74476 0.0
N2756 N 0.45851 0.79262 0.69782 0.0
N2757 N 0.50424 0.81438 0.75929 0.0
H2758 H 0.45146 0.82962 0.75798 0.0
H2759 H 0.47241 0.82671 0.77185 0.0
H2760 H 0.51835 0.81007 0.76032 0.0
H2761 H 0.50174 0.82692 0.76662 0.0
H2762 H 0.46371 0.784 0.68723 0.0
H2763 H 0.4469 0.80073 0.6932 0.0
H2764 H 0.47839 0.7616 0.70086 0.0
H2765 H 0.49948 0.75939 0.71473 0.0
C2766 C 0.7556 0.96237 0.69282 0.0
C2767 C 0.73866 0.96039 0.70296 0.0
C2768 C 0.74413 0.99255 0.71567 0.0
C2769 C 0.76315 0.992 0.70983 0.0
N2770 N 0.78699 0.97677 0.69197 0.0
N2771 N 0.71227 0.98069 0.70873 0.0
C2772 C 0.76881 0.97715 0.69789 0.0
C2773 C 0.73131 0.97743 0.71038 0.0
N2774 N 0.75787 0.95168 0.67692 0.0
N2775 N 0.73819 1.00761 0.72598 0.0
H2776 H 0.70322 0.97196 0.70028 0.0
H2777 H 0.70617 0.99346 0.71262 0.0
H2778 H 0.7467 0.01963 0.72877 0.0
H2779 H 0.72511 1.00766 0.73237 0.0
H2780 H 0.76915 0.95367 0.66799 0.0
H2781 H 0.74709 0.9426 0.67148 0.0
H2782 H 0.79239 0.96518 0.68481 0.0
H2783 H 0.79698 0.98744 0.69548 0.0
C2784 C 0.54831 0.819 0.3291 0.0
C2785 C 0.5632 0.80583 0.3322 0.0
C2786 C 0.54148 0.77992 0.32145 0.0
C2787 C 0.52755 0.79347 0.31581 0.0
N2788 N 0.51988 0.82659 0.31035 0.0
N2789 N 0.57487 0.77394 0.32872 0.0
C2790 C 0.53145 0.81321 0.31869 0.0
C2791 C 0.56003 0.78629 0.32776 0.0
N2792 N 0.55014 0.83702 0.33629 0.0
N2793 N 0.53688 0.76098 0.32117 0.0
H2794 H 0.5887 0.77805 0.33302 0.0
H2795 H 0.57383 0.76001 0.32368 0.0
H2796 H 0.52335 0.75586 0.31695 0.0
H2797 H 0.54584 0.75055 0.32685 0.0
H2798 H 0.53895 0.84659 0.33608 0.0
H2799 H 0.5622 0.84174 0.34419 0.0
H2800 H 0.52325 0.84106 0.31046 0.0
H2801 H 0.50806 0.82326 0.30148 0.0
C2802 C 0.70208 0.06748 0.31307 0.0
C2803 C 0.70913 0.08517 0.30646 0.0
C2804 C 0.73006 0.06837 0.28519 0.0
C2805 C 0.72495 0.05088 0.29375 0.0
N2806 N 0.70632 0.03333 0.31576 0.0
N2807 N 0.73029 0.10289 0.28689 0.0
C2808 C 0.71085 0.05031 0.30754 0.0
C2809 C 0.7231 0.08573 0.29251 0.0
N2810 N 0.68682 0.06714 0.32443 0.0
N2811 N 0.7417 0.06833 0.27016 0.0
H2812 H 0.7253 0.11587 0.29169 0.0
H2813 H 0.74199 0.10438 0.27847 0.0
H2814 H 0.74726 0.05591 0.2647 0.0
H2815 H 0.74465 0.08031 0.26209 0.0
H2816 H 0.6797 0.05473 0.3282 0.0
H2817 H 0.6803 0.07945 0.32904 0.0
H2818 H 0.69806 0.03207 0.3276 0.0
H2819 H 0.71151 0.02038 0.31109 0.0
C2820 C 0.4416 0.25482 0.32596 0.0
C2821 C 0.44277 0.23776 0.33668 0.0
C2822 C 0.47759 0.2392 0.33651 0.0
C2823 C 0.47638 0.25671 0.32664 0.0
N2824 N 0.45801 0.28302 0.31488 0.0
N2825 N 0.46155 0.21512 0.35482 0.0
C2826 C 0.45856 0.26506 0.32225 0.0
C2827 C 0.4607 0.23034 0.34275 0.0
N2828 N 0.42432 0.2609 0.31885 0.0
N2829 N 0.49485 0.23075 0.33922 0.0
H2830 H 0.44945 0.20811 0.35944 0.0
H2831 H 0.47413 0.21028 0.36136 0.0
H2832 H 0.50747 0.23717 0.33519 0.0
H2833 H 0.49658 0.21696 0.34432 0.0
H2834 H 0.42269 0.2721 0.30929 0.0
H2835 H 0.41156 0.25381 0.32136 0.0
H2836 H 0.4456 0.2908 0.31296 0.0
H2837 H 0.47033 0.29082 0.31224 0.0
C2838 C 0.29417 0.97976 0.31758 0.0
C2839 C 0.28203 0.96364 0.31891 0.0
C2840 C 0.25509 0.98267 0.30672 0.0
C2841 C 0.26784 0.99786 0.30287 0.0
N2842 N 0.3005 1.00856 0.30039 0.0
N2843 N 0.25121 0.94889 0.31278 0.0
C2844 C 0.28765 0.9959 0.30729 0.0
C2845 C 0.26249 0.96487 0.31305 0.0
N2846 N 0.31195 0.97972 0.32624 0.0
N2847 N 0.23592 0.98537 0.30463 0.0
H2848 H 0.25612 0.93565 0.31732 0.0
H2849 H 0.23744 0.94844 0.3067 0.0
H2850 H 0.23008 0.99827 0.30016 0.0
H2851 H 0.22585 0.97548 0.30894 0.0
H2852 H 0.32065 0.99182 0.32728 0.0
H2853 H 0.3172 0.96819 0.33407 0.0
H2854 H 0.31516 1.00664 0.30167 0.0
H2855 H 0.29666 0.01974 0.2914 0.0
C2856 C 0.76139 0.11466 0.72709 0.0
C2857 C 0.74125 0.11383 0.72604 0.0
C2858 C 0.74208 0.0879 0.74959 0.0
C2859 C 0.7622 0.08761 0.74898 0.0
N2860 N 0.79004 0.09672 0.73215 0.0
N2861 N 0.71223 0.09766 0.73405 0.0
C2862 C 0.77159 0.09987 0.73633 0.0
C2863 C 0.73148 0.0999 0.73672 0.0
N2864 N 0.77089 0.12984 0.71972 0.0
N2865 N 0.73317 0.07701 0.76264 0.0
H2866 H 0.7041 0.10603 0.72464 0.0
H2867 H 0.70456 0.08655 0.73996 0.0
H2868 H 0.74055 0.0679 0.77196 0.0
H2869 H 0.71875 0.07804 0.76515 0.0
H2870 H 0.78554 0.13188 0.7218 0.0
H2871 H 0.76397 0.14138 0.71335 0.0
H2872 H 0.79696 0.10417 0.72163 0.0
H2873 H 0.79765 0.08518 0.73754 0.0
C2874 C 0.70507 0.93705 0.3396 0.0
C2875 C 0.70269 0.92089 0.32755 0.0
C2876 C 0.7224 0.93631 0.30397 0.0
C2877 C 0.72663 0.95135 0.317 0.0
N2878 N 0.72274 0.96628 0.34717 0.0
N2879 N 0.71011 0.90419 0.29895 0.0
C2880 C 0.71807 0.95181 0.33479 0.0
C2881 C 0.71148 0.92034 0.30981 0.0
N2882 N 0.69464 0.93834 0.35546 0.0
N2883 N 0.72874 0.9374 0.28596 0.0
H2884 H 0.70191 0.89238 0.30253 0.0
H2885 H 0.71803 0.90194 0.28704 0.0
H2886 H 0.7369 0.94879 0.28134 0.0
H2887 H 0.72465 0.92793 0.27511 0.0
H2888 H 0.69437 0.95039 0.36402 0.0
H2889 H 0.68501 0.92777 0.3593 0.0
H2890 H 0.71877 0.96661 0.36123 0.0
H2891 H 0.7315 0.97768 0.34355 0.0
C2892 C 0.56976 0.20822 0.30765 0.0
C2893 C 0.58579 0.2071 0.29627 0.0
C2894 C 0.56755 0.22204 0.26987 0.0
C2895 C 0.55274 0.22588 0.2823 0.0
N2896 N 0.54154 0.22562 0.31435 0.0
N2897 N 0.60078 0.21427 0.26693 0.0
C2898 C 0.55416 0.21957 0.3015 0.0
C2899 C 0.58488 0.2142 0.27738 0.0
N2900 N 0.56945 0.1984 0.32439 0.0
N2901 N 0.56494 0.22571 0.25088 0.0
H2902 H 0.61367 0.20856 0.27189 0.0
H2903 H 0.6016 0.2212 0.25392 0.0
H2904 H 0.55233 0.23131 0.245 0.0
H2905 H 0.57445 0.2216 0.24079 0.0
H2906 H 0.55736 0.19718 0.33234 0.0
H2907 H 0.58066 0.18989 0.32932 0.0
H2908 H 0.54326 0.22313 0.32891 0.0
H2909 H 0.53043 0.2348 0.31092 0.0
C2910 C 0.32008 0.09509 0.31515 0.0
C2911 C 0.31757 0.11395 0.30833 0.0
C2912 C 0.30391 0.10139 0.27798 0.0
C2913 C 0.30539 0.08267 0.28522 0.0
N2914 N 0.3119 0.06158 0.31142 0.0
N2915 N 0.30477 0.13535 0.28444 0.0
C2916 C 0.31267 0.0795 0.30403 0.0
C2917 C 0.30881 0.11718 0.29005 0.0
N2918 N 0.33004 0.09208 0.33198 0.0
N2919 N 0.2983 0.10392 0.25933 0.0
H2920 H 0.30824 0.14722 0.29287 0.0
H2921 H 0.29673 0.13865 0.27214 0.0
H2922 H 0.29456 0.09255 0.25032 0.0
H2923 H 0.29867 0.11698 0.25242 0.0
H2924 H 0.3342 0.07869 0.33674 0.0
H2925 H 0.33536 0.10313 0.34067 0.0
H2926 H 0.31506 0.05844 0.32565 0.0
H2927 H 0.30662 0.04997 0.30353 0.0
C2928 C 0.40695 0.83403 0.2873 0.0
C2929 C 0.40958 0.84485 0.30431 0.0
C2930 C 0.44409 0.84009 0.30391 0.0
C2931 C 0.44154 0.83044 0.28631 0.0
N2932 N 0.42135 0.82033 0.25975 0.0
N2933 N 0.43069 0.86077 0.32732 0.0
C2934 C 0.42315 0.82802 0.27758 0.0
C2935 C 0.42819 0.84863 0.3122 0.0
N2936 N 0.38898 0.82896 0.28082 0.0
N2937 N 0.46166 0.84047 0.31299 0.0
H2938 H 0.41939 0.86723 0.33379 0.0
H2939 H 0.44396 0.86566 0.3325 0.0
H2940 H 0.47351 0.83433 0.3072 0.0
H2941 H 0.46423 0.84548 0.3268 0.0
H2942 H 0.38613 0.81945 0.26967 0.0
H2943 H 0.37679 0.83318 0.28749 0.0
H2944 H 0.40862 0.81983 0.25163 0.0
H2945 H 0.43304 0.81574 0.25246 0.0
C2946 C 0.33969 0.94547 0.761 0.0
C2947 C 0.34518 0.94382 0.74189 0.0
C2948 C 0.33351 0.97592 0.73514 0.0
C2949 C 0.32929 0.97819 0.7546 0.0
N2950 N 0.33168 0.9665 0.78676 0.0
N2951 N 0.35167 0.95909 0.7122 0.0
C2952 C 0.33341 0.96336 0.76776 0.0
C2953 C 0.34352 0.9596 0.72945 0.0
N2954 N 0.3397 0.92979 0.77245 0.0
N2955 N 0.32681 0.98856 0.72177 0.0
H2956 H 0.35921 0.9474 0.70759 0.0
H2957 H 0.3526 0.97092 0.70337 0.0
H2958 H 0.31844 1.00015 0.7249 0.0
H2959 H 0.32778 0.98639 0.7072 0.0
H2960 H 0.33383 0.92959 0.78577 0.0
H2961 H 0.34424 0.9165 0.76806 0.0
H2962 H 0.33624 0.95693 0.79724 0.0
H2963 H 0.32728 0.97946 0.79216 0.0
C2964 C 0.61965 0.82191 0.76948 0.0
C2965 C 0.61678 0.83155 0.75188 0.0
C2966 C 0.58301 0.82215 0.75088 0.0
C2967 C 0.58555 0.81339 0.76907 0.0
N2968 N 0.60545 0.80844 0.79735 0.0
N2969 N 0.59502 0.84469 0.72815 0.0
C2970 C 0.60365 0.81432 0.77886 0.0
C2971 C 0.5982 0.83291 0.74337 0.0
N2972 N 0.63772 0.81941 0.77691 0.0
N2973 N 0.56659 0.81918 0.74007 0.0
H2974 H 0.60582 0.85271 0.72219 0.0
H2975 H 0.58146 0.84791 0.72263 0.0
H2976 H 0.55518 0.81101 0.74447 0.0
H2977 H 0.56496 0.8233 0.72589 0.0
H2978 H 0.64095 0.81064 0.78849 0.0
H2979 H 0.64971 0.82503 0.77063 0.0
H2980 H 0.61779 0.81044 0.80589 0.0
H2981 H 0.59399 0.80317 0.80474 0.0
C2982 C 0.47096 0.20957 0.7223 0.0
C2983 C 0.45239 0.2155 0.72646 0.0
C2984 C 0.46591 0.23708 0.75111 0.0
C2985 C 0.48447 0.23028 0.74784 0.0
N2986 N 0.50414 0.20729 0.73299 0.0
N2987 N 0.43184 0.23172 0.74743 0.0
C2988 C 0.48683 0.2157 0.73418 0.0
C2989 C 0.44978 0.22825 0.7417 0.0
N2990 N 0.47349 0.19853 0.70664 0.0
N2991 N 0.46365 0.25274 0.76227 0.0
H2992 H 0.41964 0.22571 0.74075 0.0
H2993 H 0.42914 0.23914 0.75981 0.0
H2994 H 0.47491 0.25999 0.7692 0.0
H2995 H 0.45072 0.25963 0.76329 0.0
H2996 H 0.4868 0.1955 0.7016 0.0
H2997 H 0.46221 0.19359 0.69776 0.0
H2998 H 0.50636 0.19534 0.72468 0.0
H2999 H 0.51593 0.21113 0.74174 0.0
C3000 C 0.69598 0.75069 0.0767 0.0
C3001 C 0.7039 0.75369 0.09539 0.0
C3002 C 0.72847 0.77472 0.08301 0.0
C3003 C 0.72178 0.77007 0.06431 0.0
N3004 N 0.70033 0.75318 0.04271 0.0
N3005 N 0.72791 0.76778 0.11676 0.0
C3006 C 0.70569 0.75809 0.06097 0.0
C3007 C 0.72014 0.76565 0.0987 0.0
N3008 N 0.6792 0.74081 0.07407 0.0
N3009 N 0.7428 0.78791 0.08558 0.0
H3010 H 0.72176 0.76192 0.12867 0.0
H3011 H 0.74092 0.7745 0.11997 0.0
H3012 H 0.74922 0.79453 0.07422 0.0
H3013 H 0.74749 0.7933 0.09877 0.0
H3014 H 0.67171 0.73962 0.06102 0.0
H3015 H 0.67198 0.73481 0.08526 0.0
H3016 H 0.69004 0.74287 0.03911 0.0
H3017 H 0.70703 0.75882 0.031 0.0
C3018 C 0.32132 0.74471 0.08095 0.0
C3019 C 0.31206 0.74571 0.09841 0.0
C3020 C 0.28816 0.76694 0.0838 0.0
C3021 C 0.29779 0.76651 0.06641 0.0
N3022 N 0.32601 0.75881 0.05002 0.0
N3023 N 0.28968 0.76131 0.11785 0.0
C3024 C 0.31517 0.75656 0.06551 0.0
C3025 C 0.29647 0.75803 0.10027 0.0
N3026 N 0.33553 0.73191 0.07885 0.0
N3027 N 0.27047 0.77466 0.08441 0.0
H3028 H 0.29527 0.75485 0.13017 0.0
H3029 H 0.27976 0.77175 0.12049 0.0
H3030 H 0.26339 0.78093 0.07281 0.0
H3031 H 0.26201 0.77346 0.09612 0.0
H3032 H 0.34133 0.72893 0.06584 0.0
H3033 H 0.34058 0.72315 0.08986 0.0
H3034 H 0.33966 0.75341 0.04923 0.0
H3035 H 0.32213 0.76775 0.03872 0.0
C3036 C 0.31784 0.30436 0.09528 0.0
C3037 C 0.32898 0.32132 0.09464 0.0
C3038 C 0.32378 0.32251 0.05992 0.0
C3039 C 0.31294 0.30537 0.06055 0.0
N3040 N 0.30275 0.27791 0.07793 0.0
N3041 N 0.34574 0.34456 0.07635 0.0
C3042 C 0.31105 0.29558 0.07797 0.0
C3043 C 0.33292 0.3298 0.07692 0.0
N3044 N 0.31306 0.2971 0.11247 0.0
N3045 N 0.32489 0.33206 0.04308 0.0
H3046 H 0.35251 0.3504 0.08854 0.0
H3047 H 0.35079 0.3501 0.06381 0.0
H3048 H 0.31941 0.32651 0.03017 0.0
H3049 H 0.33045 0.34579 0.04197 0.0
H3050 H 0.30324 0.28607 0.11398 0.0
H3051 H 0.31782 0.30307 0.12543 0.0
H3052 H 0.30242 0.2692 0.08986 0.0
H3053 H 0.2976 0.2712 0.06549 0.0
C3054 C 0.72297 0.33163 0.08834 0.0
C3055 C 0.73036 0.32828 0.10713 0.0
C3056 C 0.74838 0.30114 0.09583 0.0
C3057 C 0.74084 0.30436 0.07709 0.0
N3058 N 0.72462 0.32466 0.05458 0.0
N3059 N 0.75314 0.31279 0.12823 0.0
C3060 C 0.72931 0.32034 0.0731 0.0
C3061 C 0.74412 0.31398 0.11067 0.0
N3062 N 0.70933 0.34508 0.08521 0.0
N3063 N 0.75875 0.28521 0.09957 0.0
H3064 H 0.75019 0.32188 0.13942 0.0
H3065 H 0.7646 0.30393 0.13131 0.0
H3066 H 0.76245 0.27586 0.08894 0.0
H3067 H 0.76276 0.28065 0.11322 0.0
H3068 H 0.70179 0.34681 0.07228 0.0
H3069 H 0.70476 0.35394 0.09594 0.0
H3070 H 0.71762 0.33698 0.0503 0.0
H3071 H 0.72928 0.31656 0.0433 0.0
C3072 C 0.72887 0.31313 0.96373 0.0
C3073 C 0.73375 0.30666 0.94549 0.0
C3074 C 0.75753 0.28536 0.96024 0.0
C3075 C 0.75345 0.29256 0.97848 0.0
N3076 N 0.73655 0.31447 0.99774 0.0
N3077 N 0.75447 0.28894 0.92593 0.0
C3078 C 0.73955 0.30687 0.98024 0.0
C3079 C 0.74858 0.29341 0.94363 0.0
N3080 N 0.71362 0.3248 0.96525 0.0
N3081 N 0.7698 0.2706 0.95878 0.0
H3082 H 0.74802 0.29421 0.91342 0.0
H3083 H 0.76664 0.28119 0.92356 0.0
H3084 H 0.77731 0.26492 0.97045 0.0
H3085 H 0.77161 0.26313 0.94624 0.0
H3086 H 0.70787 0.32844 0.97809 0.0
H3087 H 0.70581 0.32998 0.95345 0.0
H3088 H 0.72831 0.32639 0.99986 0.0
H3089 H 0.74317 0.30945 1.01028 0.0
C3090 C 0.74524 0.7039 0.96929 0.0
C3091 C 0.75464 0.70523 0.95191 0.0
C3092 C 0.77684 0.72903 0.96619 0.0
C3093 C 0.76555 0.72985 0.98233 0.0
N3094 N 0.73902 0.71845 0.99967 0.0
N3095 N 0.77894 0.71945 0.93322 0.0
C3096 C 0.74987 0.71721 0.9841 0.0
C3097 C 0.77054 0.71769 0.95028 0.0
N3098 N 0.73201 0.68978 0.97162 0.0
N3099 N 0.79349 0.73927 0.96608 0.0
H3100 H 0.7749 0.71122 0.92134 0.0
H3101 H 0.78906 0.72987 0.93039 0.0
H3102 H 0.7983 0.74781 0.97748 0.0
H3103 H 0.80329 0.73809 0.95552 0.0
H3104 H 0.72585 0.68687 0.98448 0.0
H3105 H 0.72833 0.67985 0.961 0.0
H3106 H 0.72604 0.71139 1.00085 0.0
H3107 H 0.74267 0.72733 0.0112 0.0
C3108 C 0.3166 0.72967 0.93072 0.0
C3109 C 0.33383 0.72059 0.93647 0.0
C3110 C 0.32349 0.71878 0.96926 0.0
C3111 C 0.3056 0.72606 0.96309 0.0
N3112 N 0.28418 0.73734 0.93828 0.0
N3113 N 0.35354 0.70533 0.96068 0.0
C3114 C 0.30195 0.73134 0.9439 0.0
C3115 C 0.3373 0.71491 0.95565 0.0
N3116 N 0.31438 0.73681 0.9127 0.0
N3117 N 0.32735 0.71609 0.98826 0.0
H3118 H 0.36429 0.70297 0.95126 0.0
H3119 H 0.35599 0.69887 0.97384 0.0
H3120 H 0.31738 0.71872 0.99844 0.0
H3121 H 0.34071 0.71262 0.99408 0.0
H3122 H 0.30298 0.74513 0.90806 0.0
H3123 H 0.32475 0.7356 0.90265 0.0
H3124 H 0.27977 0.73977 0.92419 0.0
H3125 H 0.27329 0.73873 0.94775 0.0
C3126 C 0.31167 0.323 0.9236 0.0
C3127 C 0.32478 0.3385 0.92555 0.0
C3128 C 0.31789 0.34151 0.95933 0.0
C3129 C 0.30387 0.32698 0.957 0.0
N3130 N 0.28572 0.30507 0.93707 0.0
N3131 N 0.33928 0.36382 0.94452 0.0
C3132 C 0.30034 0.318 0.93915 0.0
C3133 C 0.32758 0.34814 0.94324 0.0
N3134 N 0.31027 0.31294 0.90694 0.0
N3135 N 0.32232 0.34843 0.97715 0.0
H3136 H 0.34719 0.36863 0.93325 0.0
H3137 H 0.34036 0.37275 0.95633 0.0
H3138 H 0.31534 0.34382 0.98911 0.0
H3139 H 0.33372 0.35764 0.98038 0.0
H3140 H 0.30252 0.30031 0.90516 0.0
H3141 H 0.31791 0.31656 0.89509 0.0
H3142 H 0.28105 0.29913 0.92412 0.0
H3143 H 0.27726 0.30121 0.94828 0.0
C3144 C 0.58335 0.75795 0.22545 0.0
C3145 C 0.58239 0.74149 0.21371 0.0
C3146 C 0.54751 0.74163 0.21406 0.0
C3147 C 0.54849 0.75908 0.22413 0.0
N3148 N 0.5668 0.78513 0.23775 0.0
N3149 N 0.56369 0.71869 0.19497 0.0
C3150 C 0.5663 0.76755 0.22944 0.0
C3151 C 0.56448 0.73354 0.20756 0.0
N3152 N 0.60057 0.76413 0.23306 0.0
N3153 N 0.53032 0.73257 0.21124 0.0
H3154 H 0.57581 0.71217 0.19015 0.0
H3155 H 0.55111 0.71364 0.1883 0.0
H3156 H 0.51772 0.73825 0.21587 0.0
H3157 H 0.52872 0.71887 0.20574 0.0
H3158 H 0.60211 0.7749 0.24319 0.0
H3159 H 0.61331 0.7574 0.23042 0.0
H3160 H 0.57923 0.79309 0.2403 0.0
H3161 H 0.55448 0.79243 0.24076 0.0
C3162 C 0.30086 0.59072 0.21789 0.0
C3163 C 0.29617 0.59846 0.19966 0.0
C3164 C 0.27371 0.57176 0.19364 0.0
C3165 C 0.28051 0.56282 0.21062 0.0
N3166 N 0.30448 0.56189 0.23621 0.0
N3167 N 0.28046 0.5942 0.16866 0.0
C3168 C 0.29514 0.57179 0.22207 0.0
C3169 C 0.28315 0.58843 0.18709 0.0
N3170 N 0.31039 0.60156 0.23143 0.0
N3171 N 0.25796 0.56455 0.18401 0.0
H3172 H 0.28758 0.60586 0.16307 0.0
H3173 H 0.27257 0.58632 0.15845 0.0
H3174 H 0.25054 0.55265 0.18875 0.0
H3175 H 0.25124 0.57143 0.17251 0.0
H3176 H 0.31262 0.59708 0.24546 0.0
H3177 H 0.31419 0.61575 0.22922 0.0
H3178 H 0.31639 0.5673 0.24387 0.0
H3179 H 0.30186 0.54752 0.2387 0.0
C3180 C 0.4716 0.32753 0.22138 0.0
C3181 C 0.45472 0.31655 0.21812 0.0
C3182 C 0.47215 0.28764 0.22709 0.0
C3183 C 0.48838 0.29894 0.23242 0.0
N3184 N 0.50176 0.33031 0.23897 0.0
N3185 N 0.43799 0.28657 0.2208 0.0
C3186 C 0.48769 0.31908 0.23068 0.0
C3187 C 0.45473 0.29668 0.22176 0.0
N3188 N 0.47245 0.34594 0.21522 0.0
N3189 N 0.47351 0.26827 0.22659 0.0
H3190 H 0.42492 0.29272 0.21716 0.0
H3191 H 0.43681 0.2725 0.22525 0.0
H3192 H 0.48612 0.26119 0.23013 0.0
H3193 H 0.46272 0.25936 0.22098 0.0
H3194 H 0.48505 0.35391 0.21542 0.0
H3195 H 0.46101 0.35264 0.20821 0.0
H3196 H 0.5009 0.34507 0.23975 0.0
H3197 H 0.5133 0.32493 0.24693 0.0
C3198 C 0.72074 0.48094 0.21924 0.0
C3199 C 0.72546 0.46301 0.22724 0.0
C3200 C 0.74239 0.47885 0.25424 0.0
C3201 C 0.73992 0.49656 0.24492 0.0
N3202 N 0.72714 0.51497 0.21863 0.0
N3203 N 0.74178 0.44444 0.25155 0.0
C3204 C 0.72904 0.49776 0.2275 0.0
C3205 C 0.73641 0.46183 0.24464 0.0
N3206 N 0.70807 0.48188 0.20396 0.0
N3207 N 0.75052 0.47836 0.27223 0.0
H3208 H 0.73755 0.43166 0.245 0.0
H3209 H 0.75154 0.44262 0.26293 0.0
H3210 H 0.75505 0.4906 0.27956 0.0
H3211 H 0.75125 0.46614 0.28056 0.0
H3212 H 0.7025 0.49453 0.19863 0.0
H3213 H 0.70201 0.46982 0.19735 0.0
H3214 H 0.72152 0.51662 0.20481 0.0
H3215 H 0.73195 0.52769 0.22494 0.0
C3216 C 0.58567 0.29797 0.82013 0.0
C3217 C 0.60205 0.28648 0.82141 0.0
C3218 C 0.58354 0.25997 0.80667 0.0
C3219 C 0.56799 0.27234 0.80312 0.0
N3220 N 0.55616 0.30453 0.80277 0.0
N3221 N 0.61739 0.25702 0.81432 0.0
C3222 C 0.56947 0.2917 0.80899 0.0
C3223 C 0.6012 0.26753 0.81436 0.0
N3224 N 0.58553 0.3149 0.82969 0.0
N3225 N 0.5813 0.24097 0.803 0.0
H3226 H 0.63046 0.262 0.82003 0.0
H3227 H 0.61819 0.24395 0.80747 0.0
H3228 H 0.56856 0.23505 0.79742 0.0
H3229 H 0.59143 0.2309 0.80697 0.0
H3230 H 0.5733 0.32294 0.83085 0.0
H3231 H 0.59714 0.31997 0.83805 0.0
H3232 H 0.55768 0.31914 0.80499 0.0
H3233 H 0.54465 0.30101 0.79358 0.0
C3234 C 0.76962 0.56088 0.83739 0.0
C3235 C 0.75989 0.57612 0.82808 0.0
C3236 C 0.76458 0.56108 0.79732 0.0
C3237 C 0.77638 0.54724 0.80629 0.0
N3238 N 0.79165 0.5347 0.83477 0.0
N3239 N 0.75214 0.59283 0.79882 0.0
C3240 C 0.77934 0.54732 0.82635 0.0
C3241 C 0.75853 0.57682 0.80793 0.0
N3242 N 0.769 0.55899 0.85667 0.0
N3243 N 0.75844 0.5588 0.77877 0.0
H3244 H 0.74818 0.60502 0.80601 0.0
H3245 H 0.75272 0.59471 0.78417 0.0
H3246 H 0.76194 0.54702 0.77074 0.0
H3247 H 0.74831 0.56748 0.77205 0.0
H3248 H 0.77419 0.5472 0.86408 0.0
H3249 H 0.76188 0.5685 0.86512 0.0
H3250 H 0.79601 0.53531 0.8491 0.0
H3251 H 0.79848 0.52432 0.82708 0.0
C3252 C 0.4831 0.75482 0.8327 0.0
C3253 C 0.4796 0.73506 0.83535 0.0
C3254 C 0.51119 0.72812 0.8239 0.0
C3255 C 0.5155 0.74794 0.82296 0.0
N3256 N 0.50661 0.78014 0.82984 0.0
N3257 N 0.49223 0.70342 0.83806 0.0
C3258 C 0.50174 0.7613 0.82837 0.0
C3259 C 0.49428 0.7219 0.83244 0.0
N3260 N 0.46848 0.76733 0.83356 0.0
N3261 N 0.52243 0.71518 0.81544 0.0
H3262 H 0.48016 0.69834 0.84461 0.0
H3263 H 0.50327 0.69369 0.83803 0.0
H3264 H 0.53419 0.71894 0.80774 0.0
H3265 H 0.51878 0.70081 0.81412 0.0
H3266 H 0.46966 0.78158 0.8297 0.0
H3267 H 0.45468 0.76315 0.83663 0.0
H3268 H 0.49784 0.79031 0.8355 0.0
H3269 H 0.52017 0.78532 0.82709 0.0
C3270 C 0.32849 0.45491 0.78103 0.0
C3271 C 0.34482 0.45477 0.79362 0.0
C3272 C 0.35237 0.48776 0.78517 0.0
C3273 C 0.33682 0.48743 0.77174 0.0
N3274 N 0.3112 0.47076 0.75503 0.0
N3275 N 0.37348 0.47002 0.8066 0.0
C3276 C 0.32517 0.47098 0.76917 0.0
C3277 C 0.35712 0.47093 0.7954 0.0
N3278 N 0.31603 0.4398 0.78071 0.0
N3279 N 0.36212 0.50445 0.78849 0.0
H3280 H 0.37704 0.45819 0.8149 0.0
H3281 H 0.38407 0.4805 0.80692 0.0
H3282 H 0.35905 0.51685 0.78088 0.0
H3283 H 0.37236 0.50642 0.79948 0.0
H3284 H 0.30286 0.43975 0.77336 0.0
H3285 H 0.31826 0.42762 0.78891 0.0
H3286 H 0.30316 0.45875 0.75108 0.0
H3287 H 0.30848 0.48244 0.74624 0.0
C3288 C 0.7376 0.63058 0.22415 0.0
C3289 C 0.72101 0.62634 0.21257 0.0
C3290 C 0.72942 0.59252 0.21235 0.0
C3291 C 0.74547 0.59669 0.22456 0.0
N3292 N 0.76376 0.61862 0.24432 0.0
N3293 N 0.69961 0.60328 0.1975 0.0
C3294 C 0.74924 0.61546 0.2311 0.0
C3295 C 0.71648 0.60727 0.20719 0.0
N3296 N 0.7425 0.64912 0.22802 0.0
N3297 N 0.72687 0.57444 0.20549 0.0
H3298 H 0.68993 0.61378 0.19337 0.0
H3299 H 0.69452 0.58958 0.19464 0.0
H3300 H 0.736 0.5634 0.20941 0.0
H3301 H 0.71656 0.57055 0.1951 0.0
H3302 H 0.75542 0.65334 0.23458 0.0
H3303 H 0.73407 0.66053 0.2236 0.0
H3304 H 0.76615 0.63151 0.25138 0.0
H3305 H 0.77277 0.60783 0.24921 0.0
C3306 C 0.7128 0.43329 0.80782 0.0
C3307 C 0.72082 0.41504 0.80546 0.0
C3308 C 0.74124 0.42784 0.78095 0.0
C3309 C 0.73401 0.44622 0.78413 0.0
N3310 N 0.71453 0.46726 0.80137 0.0
N3311 N 0.74405 0.39507 0.79151 0.0
C3312 C 0.72023 0.44915 0.79782 0.0
C3313 C 0.73542 0.41234 0.79245 0.0
N3314 N 0.69777 0.4353 0.81929 0.0
N3315 N 0.75347 0.42529 0.76667 0.0
H3316 H 0.73989 0.38332 0.79944 0.0
H3317 H 0.75609 0.3926 0.78388 0.0
H3318 H 0.75849 0.43654 0.75856 0.0
H3319 H 0.75786 0.41204 0.7621 0.0
H3320 H 0.68995 0.44769 0.82021 0.0
H3321 H 0.69227 0.4241 0.82715 0.0
H3322 H 0.70603 0.47092 0.81249 0.0
H3323 H 0.71928 0.47895 0.79371 0.0
C3324 C 0.61429 0.69074 0.82625 0.0
C3325 C 0.63288 0.69368 0.81963 0.0
C3326 C 0.61956 0.71191 0.79249 0.0
C3327 C 0.60129 0.71023 0.79996 0.0
N3328 N 0.58122 0.70041 0.8249 0.0
N3329 N 0.65372 0.70886 0.7978 0.0
C3330 C 0.59864 0.70023 0.8171 0.0
C3331 C 0.63566 0.70473 0.80306 0.0
N3332 N 0.61158 0.6785 0.84099 0.0
N3333 N 0.62133 0.72005 0.77504 0.0
H3334 H 0.66583 0.70372 0.80507 0.0
H3335 H 0.65683 0.71845 0.78709 0.0
H3336 H 0.60973 0.72554 0.76719 0.0
H3337 H 0.63386 0.72011 0.76773 0.0
H3338 H 0.59823 0.6742 0.84526 0.0
H3339 H 0.62273 0.67143 0.84811 0.0
H3340 H 0.57865 0.69515 0.83837 0.0
H3341 H 0.56953 0.70715 0.81839 0.0
C3342 C 0.33036 0.62419 0.78929 0.0
C3343 C 0.34476 0.61896 0.80301 0.0
C3344 C 0.33748 0.58515 0.797 0.0
C3345 C 0.32438 0.59041 0.78208 0.0
N3346 N 0.30914 0.61455 0.76275 0.0
N3347 N 0.36357 0.59482 0.81884 0.0
C3348 C 0.32101 0.60984 0.77789 0.0
C3349 C 0.34868 0.59951 0.80665 0.0
N3350 N 0.32527 0.64284 0.78756 0.0
N3351 N 0.33915 0.56642 0.80194 0.0
H3352 H 0.37199 0.60496 0.82621 0.0
H3353 H 0.36854 0.58104 0.82066 0.0
H3354 H 0.33151 0.55553 0.79486 0.0
H3355 H 0.34698 0.56171 0.81388 0.0
H3356 H 0.3135 0.64738 0.77938 0.0
H3357 H 0.33203 0.65378 0.79539 0.0
H3358 H 0.30788 0.62829 0.75739 0.0
H3359 H 0.30118 0.60447 0.75482 0.0
C3360 C 0.4726 0.33104 0.81165 0.0
C3361 C 0.45375 0.32563 0.80565 0.0
C3362 C 0.46573 0.30916 0.77799 0.0
C3363 C 0.48456 0.31396 0.78434 0.0
N3364 N 0.50648 0.32649 0.80844 0.0
N3365 N 0.43242 0.30678 0.78533 0.0
C3366 C 0.48815 0.32404 0.80158 0.0
C3367 C 0.45035 0.31377 0.7895 0.0
N3368 N 0.47554 0.34338 0.82655 0.0
N3369 N 0.4626 0.30093 0.76052 0.0
H3370 H 0.42085 0.30997 0.79347 0.0
H3371 H 0.42928 0.29659 0.77487 0.0
H3372 H 0.47363 0.29758 0.75175 0.0
H3373 H 0.44914 0.29874 0.75408 0.0
H3374 H 0.48869 0.3496 0.83028 0.0
H3375 H 0.46454 0.34827 0.83463 0.0
H3376 H 0.51017 0.33197 0.82187 0.0
H3377 H 0.51806 0.32171 0.80113 0.0
C3378 C 0.32358 0.44189 0.24569 0.0
C3379 C 0.33133 0.44275 0.22743 0.0
C3380 C 0.32097 0.47584 0.22409 0.0
C3381 C 0.31431 0.4755 0.24294 0.0
N3382 N 0.31357 0.45941 0.27314 0.0
N3383 N 0.3418 0.46198 0.2015 0.0
C3384 C 0.31692 0.45886 0.25418 0.0
C3385 C 0.33144 0.4602 0.21738 0.0
N3386 N 0.32187 0.42477 0.25466 0.0
N3387 N 0.31629 0.4904 0.21197 0.0
H3388 H 0.34971 0.45089 0.19618 0.0
H3389 H 0.34409 0.47495 0.19478 0.0
H3390 H 0.30819 0.50196 0.21566 0.0
H3391 H 0.31887 0.49008 0.19752 0.0
H3392 H 0.31441 0.42293 0.26699 0.0
H3393 H 0.32653 0.41206 0.24893 0.0
H3394 H 0.31692 0.44832 0.28246 0.0
H3395 H 0.30932 0.47172 0.27996 0.0
C3396 C 0.59283 0.34004 0.22698 0.0
C3397 C 0.6115 0.33508 0.23349 0.0
C3398 C 0.59883 0.3197 0.26157 0.0
C3399 C 0.58019 0.3238 0.25455 0.0
N3400 N 0.55886 0.33485 0.22949 0.0
N3401 N 0.63239 0.31794 0.25527 0.0
C3402 C 0.57702 0.33314 0.23692 0.0
C3403 C 0.61454 0.32422 0.25032 0.0
N3404 N 0.59027 0.35184 0.21167 0.0
N3405 N 0.60138 0.31192 0.27926 0.0
H3406 H 0.64421 0.32106 0.24734 0.0
H3407 H 0.63532 0.30847 0.26634 0.0
H3408 H 0.59 0.30842 0.28766 0.0
H3409 H 0.61462 0.3102 0.28619 0.0
H3410 H 0.57723 0.3577 0.20752 0.0
H3411 H 0.60148 0.35684 0.20376 0.0
H3412 H 0.55554 0.33968 0.21578 0.0
H3413 H 0.54704 0.33004 0.23661 0.0
C3414 C 0.42679 0.71988 0.25087 0.0
C3415 C 0.42711 0.71491 0.23132 0.0
C3416 C 0.45953 0.72785 0.23005 0.0
C3417 C 0.45979 0.73166 0.24992 0.0
N3418 N 0.44505 0.72794 0.27995 0.0
N3419 N 0.44534 0.70973 0.20366 0.0
C3420 C 0.44382 0.72663 0.26056 0.0
C3421 C 0.44403 0.71742 0.22139 0.0
N3422 N 0.41007 0.71892 0.25998 0.0
N3423 N 0.4733 0.73538 0.21907 0.0
H3424 H 0.43428 0.70191 0.1969 0.0
H3425 H 0.458 0.70945 0.19655 0.0
H3426 H 0.48432 0.74414 0.22443 0.0
H3427 H 0.47263 0.73468 0.20427 0.0
H3428 H 0.40845 0.72438 0.27356 0.0
H3429 H 0.39737 0.71394 0.25342 0.0
H3430 H 0.43458 0.72275 0.28864 0.0
H3431 H 0.45735 0.73266 0.28745 0.0
loop_
_geom_bond_atom_site_label_1
_geom_bond_atom_site_label_2
_geom_bond_distance
_geom_bond_site_symmetry_2
_ccdc_geom_bond_type
C0 C1 1.384 . S
C0 H13 0.947 . S
C0 C35 1.382 . S
C1 C0 1.384 . S
C1 C2 1.378 . S
C2 C1 1.378 . S
C2 C3 1.378 . S
C2 H14 0.952 . S
C3 C2 1.378 . S
C3 H15 0.950 . S
C3 C34 1.383 . S
H4 C23 0.947 . S
H5 C24 0.946 . S
H6 C26 0.953 . S
H7 C27 0.945 . S
H8 C29 0.952 . S
H9 C30 0.949 . S
H10 C32 0.950 . S
H11 C33 0.948 . S
H12 C35 0.951 . S
H13 C0 0.947 . S
H14 C2 0.952 . S
H15 C3 0.950 . S
N16 C19 1.382 . S
N16 C21 1.363 . S
N17 C19 1.371 . S
N17 C20 1.372 . S
N18 C20 1.361 . S
N18 C21 1.377 . S
C19 N16 1.382 . S
C19 N17 1.371 . S
C19 C22 1.480 . S
C20 N17 1.372 . S
C20 N18 1.361 . S
C20 C28 1.457 . S
C21 N16 1.363 . S
C21 N18 1.377 . S
C21 C34 1.479 . S
C22 C19 1.480 . S
C22 C23 1.383 . S
C22 C27 1.385 . S
C23 H4 0.947 . S
C23 C22 1.383 . S
C23 C24 1.388 . S
C24 H5 0.946 . S
C24 C23 1.388 . S
C24 C25 1.384 . S
C25 C24 1.384 . S
C25 C26 1.377 . S
C26 H6 0.953 . S
C26 C25 1.377 . S
C26 C27 1.369 . S
C27 H7 0.945 . S
C27 C22 1.385 . S
C27 C26 1.369 . S
C28 C20 1.457 . S
C28 C29 1.372 . S
C28 C33 1.364 . S
C29 H8 0.952 . S
C29 C28 1.372 . S
C29 C30 1.389 . S
C30 H9 0.949 . S
C30 C29 1.389 . S
C30 C31 1.387 . S
C31 C30 1.387 . S
C31 C32 1.372 . S
C32 H10 0.950 . S
C32 C31 1.372 . S
C32 C33 1.379 . S
C33 H11 0.948 . S
C33 C28 1.364 . S
C33 C32 1.379 . S
C34 C3 1.383 . S
C34 C21 1.479 . S
C34 C35 1.398 . S
C35 C0 1.382 . S
C35 H12 0.951 . S
C35 C34 1.398 . S
C36 C37 1.384 . S
C36 H49 0.947 . S
C36 C71 1.382 . S
C37 C36 1.384 . S
C37 C38 1.378 . S
C38 C37 1.378 . S
C38 C39 1.378 . S
C38 H50 0.952 . S
C39 C38 1.378 . S
C39 H51 0.950 . S
C39 C70 1.383 . S
H40 C59 0.947 . S
H41 C60 0.946 . S
H42 C62 0.953 . S
H43 C63 0.945 . S
H44 C65 0.952 . S
H45 C66 0.949 . S
H46 C68 0.950 . S
H47 C69 0.948 . S
H48 C71 0.951 . S
H49 C36 0.947 . S
H50 C38 0.952 . S
H51 C39 0.950 . S
N52 C55 1.382 . S
N52 C57 1.363 . S
N53 C55 1.371 . S
N53 C56 1.372 . S
N54 C56 1.361 . S
N54 C57 1.377 . S
C55 N52 1.382 . S
C55 N53 1.371 . S
C55 C58 1.480 . S
C56 N53 1.372 . S
C56 N54 1.361 . S
C56 C64 1.457 . S
C57 N52 1.363 . S
C57 N54 1.377 . S
C57 C70 1.479 . S
C58 C55 1.480 . S
C58 C59 1.383 . S
C58 C63 1.385 . S
C59 H40 0.947 . S
C59 C58 1.383 . S
C59 C60 1.388 . S
C60 H41 0.946 . S
C60 C59 1.388 . S
C60 C61 1.384 . S
C61 C60 1.384 . S
C61 C62 1.377 . S
C62 H42 0.953 . S
C62 C61 1.377 . S
C62 C63 1.369 . S
C63 H43 0.945 . S
C63 C58 1.385 . S
C63 C62 1.369 . S
C64 C56 1.457 . S
C64 C65 1.372 . S
C64 C69 1.364 . S
C65 H44 0.952 . S
C65 C64 1.372 . S
C65 C66 1.389 . S
C66 H45 0.949 . S
C66 C65 1.389 . S
C66 C67 1.387 . S
C67 C66 1.387 . S
C67 C68 1.372 . S
C68 H46 0.950 . S
C68 C67 1.372 . S
C68 C69 1.379 . S
C69 H47 0.948 . S
C69 C64 1.364 . S
C69 C68 1.379 . S
C70 C39 1.383 . S
C70 C57 1.479 . S
C70 C71 1.398 . S
C71 C36 1.382 . S
C71 H48 0.951 . S
C71 C70 1.398 . S
C72 C73 1.384 . S
C72 H85 0.947 . S
C72 C107 1.382 . S
C73 C72 1.384 . S
C73 C74 1.378 . S
C74 C73 1.378 . S
C74 C75 1.378 . S
C74 H86 0.952 . S
C75 C74 1.378 . S
C75 H87 0.950 . S
C75 C106 1.383 . S
H76 C95 0.947 . S
H77 C96 0.946 . S
H78 C98 0.953 . S
H79 C99 0.945 . S
H80 C101 0.952 . S
H81 C102 0.949 . S
H82 C104 0.950 . S
H83 C105 0.948 . S
H84 C107 0.951 . S
H85 C72 0.947 . S
H86 C74 0.952 . S
H87 C75 0.950 . S
N88 C91 1.382 . S
N88 C93 1.363 . S
N89 C91 1.371 . S
N89 C92 1.372 . S
N90 C92 1.361 . S
N90 C93 1.377 . S
C91 N88 1.382 . S
C91 N89 1.371 . S
C91 C94 1.480 . S
C92 N89 1.372 . S
C92 N90 1.361 . S
C92 C100 1.457 . S
C93 N88 1.363 . S
C93 N90 1.377 . S
C93 C106 1.479 . S
C94 C91 1.480 . S
C94 C95 1.383 . S
C94 C99 1.385 . S
C95 H76 0.947 . S
C95 C94 1.383 . S
C95 C96 1.388 . S
C96 H77 0.946 . S
C96 C95 1.388 . S
C96 C97 1.384 . S
C97 C96 1.384 . S
C97 C98 1.377 . S
C98 H78 0.953 . S
C98 C97 1.377 . S
C98 C99 1.369 . S
C99 H79 0.945 . S
C99 C94 1.385 . S
C99 C98 1.369 . S
C100 C92 1.457 . S
C100 C101 1.372 . S
C100 C105 1.364 . S
C101 H80 0.952 . S
C101 C100 1.372 . S
C101 C102 1.389 . S
C102 H81 0.949 . S
C102 C101 1.389 . S
C102 C103 1.387 . S
C103 C102 1.387 . S
C103 C104 1.372 . S
C104 H82 0.950 . S
C104 C103 1.372 . S
C104 C105 1.379 . S
C105 H83 0.948 . S
C105 C100 1.364 . S
C105 C104 1.379 . S
C106 C75 1.383 . S
C106 C93 1.479 . S
C106 C107 1.398 . S
C107 C72 1.382 . S
C107 H84 0.951 . S
C107 C106 1.398 . S
C108 C109 1.384 . S
C108 H121 0.947 . S
C108 C143 1.382 . S
C109 C108 1.384 . S
C109 C110 1.378 . S
C110 C109 1.378 . S
C110 C111 1.378 . S
C110 H122 0.952 . S
C111 C110 1.378 . S
C111 H123 0.950 . S
C111 C142 1.383 . S
H112 C131 0.947 . S
H113 C132 0.946 . S
H114 C134 0.953 . S
H115 C135 0.945 . S
H116 C137 0.952 . S
H117 C138 0.949 . S
H118 C140 0.950 . S
H119 C141 0.948 . S
H120 C143 0.951 . S
H121 C108 0.947 . S
H122 C110 0.952 . S
H123 C111 0.950 . S
N124 C127 1.382 . S
N124 C129 1.363 . S
N125 C127 1.371 . S
N125 C128 1.372 . S
N126 C128 1.361 . S
N126 C129 1.377 . S
C127 N124 1.382 . S
C127 N125 1.371 . S
C127 C130 1.480 . S
C128 N125 1.372 . S
C128 N126 1.361 . S
C128 C136 1.457 . S
C129 N124 1.363 . S
C129 N126 1.377 . S
C129 C142 1.479 . S
C130 C127 1.480 . S
C130 C131 1.383 . S
C130 C135 1.385 . S
C131 H112 0.947 . S
C131 C130 1.383 . S
C131 C132 1.388 . S
C132 H113 0.946 . S
C132 C131 1.388 . S
C132 C133 1.384 . S
C133 C132 1.384 . S
C133 C134 1.377 . S
C134 H114 0.953 . S
C134 C133 1.377 . S
C134 C135 1.369 . S
C135 H115 0.945 . S
C135 C130 1.385 . S
C135 C134 1.369 . S
C136 C128 1.457 . S
C136 C137 1.372 . S
C136 C141 1.364 . S
C137 H116 0.952 . S
C137 C136 1.372 . S
C137 C138 1.389 . S
C138 H117 0.949 . S
C138 C137 1.389 . S
C138 C139 1.387 . S
C139 C138 1.387 . S
C139 C140 1.372 . S
C140 H118 0.950 . S
C140 C139 1.372 . S
C140 C141 1.379 . S
C141 H119 0.948 . S
C141 C136 1.364 . S
C141 C140 1.379 . S
C142 C111 1.383 . S
C142 C129 1.479 . S
C142 C143 1.398 . S
C143 C108 1.382 . S
C143 H120 0.951 . S
C143 C142 1.398 . S
C144 C145 1.384 . S
C144 H157 0.947 . S
C144 C179 1.382 . S
C145 C144 1.384 . S
C145 C146 1.378 . S
C146 C145 1.378 . S
C146 C147 1.378 . S
C146 H158 0.952 . S
C147 C146 1.378 . S
C147 H159 0.950 . S
C147 C178 1.383 . S
H148 C167 0.947 . S
H149 C168 0.946 . S
H150 C170 0.953 . S
H151 C171 0.945 . S
H152 C173 0.952 . S
H153 C174 0.949 . S
H154 C176 0.950 . S
H155 C177 0.948 . S
H156 C179 0.951 . S
H157 C144 0.947 . S
H158 C146 0.952 . S
H159 C147 0.950 . S
N160 C163 1.382 . S
N160 C165 1.363 . S
N161 C163 1.371 . S
N161 C164 1.372 . S
N162 C164 1.361 . S
N162 C165 1.377 . S
C163 N160 1.382 . S
C163 N161 1.371 . S
C163 C166 1.480 . S
C164 N161 1.372 . S
C164 N162 1.361 . S
C164 C172 1.457 . S
C165 N160 1.363 . S
C165 N162 1.377 . S
C165 C178 1.479 . S
C166 C163 1.480 . S
C166 C167 1.383 . S
C166 C171 1.385 . S
C167 H148 0.947 . S
C167 C166 1.383 . S
C167 C168 1.388 . S
C168 H149 0.946 . S
C168 C167 1.388 . S
C168 C169 1.384 . S
C169 C168 1.384 . S
C169 C170 1.377 . S
C170 H150 0.953 . S
C170 C169 1.377 . S
C170 C171 1.369 . S
C171 H151 0.945 . S
C171 C166 1.385 . S
C171 C170 1.369 . S
C172 C164 1.457 . S
C172 C173 1.372 . S
C172 C177 1.364 . S
C173 H152 0.952 . S
C173 C172 1.372 . S
C173 C174 1.389 . S
C174 H153 0.949 . S
C174 C173 1.389 . S
C174 C175 1.387 . S
C175 C174 1.387 . S
C175 C176 1.372 . S
C176 H154 0.950 . S
C176 C175 1.372 . S
C176 C177 1.379 . S
C177 H155 0.948 . S
C177 C172 1.364 . S
C177 C176 1.379 . S
C178 C147 1.383 . S
C178 C165 1.479 . S
C178 C179 1.398 . S
C179 C144 1.382 . S
C179 H156 0.951 . S
C179 C178 1.398 . S
C180 C181 1.384 . S
C180 H193 0.947 . S
C180 C215 1.382 . S
C181 C180 1.384 . S
C181 C182 1.378 . S
C182 C181 1.378 . S
C182 C183 1.378 . S
C182 H194 0.952 . S
C183 C182 1.378 . S
C183 H195 0.950 . S
C183 C214 1.383 . S
H184 C203 0.947 . S
H185 C204 0.946 . S
H186 C206 0.953 . S
H187 C207 0.945 . S
H188 C209 0.952 . S
H189 C210 0.949 . S
H190 C212 0.950 . S
H191 C213 0.948 . S
H192 C215 0.951 . S
H193 C180 0.947 . S
H194 C182 0.952 . S
H195 C183 0.950 . S
N196 C199 1.382 . S
N196 C201 1.363 . S
N197 C199 1.371 . S
N197 C200 1.372 . S
N198 C200 1.361 . S
N198 C201 1.377 . S
C199 N196 1.382 . S
C199 N197 1.371 . S
C199 C202 1.480 . S
C200 N197 1.372 . S
C200 N198 1.361 . S
C200 C208 1.457 . S
C201 N196 1.363 . S
C201 N198 1.377 . S
C201 C214 1.479 . S
C202 C199 1.480 . S
C202 C203 1.383 . S
C202 C207 1.385 . S
C203 H184 0.947 . S
C203 C202 1.383 . S
C203 C204 1.388 . S
C204 H185 0.946 . S
C204 C203 1.388 . S
C204 C205 1.384 . S
C205 C204 1.384 . S
C205 C206 1.377 . S
C206 H186 0.953 . S
C206 C205 1.377 . S
C206 C207 1.369 . S
C207 H187 0.945 . S
C207 C202 1.385 . S
C207 C206 1.369 . S
C208 C200 1.457 . S
C208 C209 1.372 . S
C208 C213 1.364 . S
C209 H188 0.952 . S
C209 C208 1.372 . S
C209 C210 1.389 . S
C210 H189 0.949 . S
C210 C209 1.389 . S
C210 C211 1.387 . S
C211 C210 1.387 . S
C211 C212 1.372 . S
C212 H190 0.950 . S
C212 C211 1.372 . S
C212 C213 1.379 . S
C213 H191 0.948 . S
C213 C208 1.364 . S
C213 C212 1.379 . S
C214 C183 1.383 . S
C214 C201 1.479 . S
C214 C215 1.398 . S
C215 C180 1.382 . S
C215 H192 0.951 . S
C215 C214 1.398 . S
C216 C217 1.384 . S
C216 H229 0.947 . S
C216 C251 1.382 . S
C217 C216 1.384 . S
C217 C218 1.378 . S
C218 C217 1.378 . S
C218 C219 1.378 . S
C218 H230 0.952 . S
C219 C218 1.378 . S
C219 H231 0.950 . S
C219 C250 1.383 . S
H220 C239 0.947 . S
H221 C240 0.946 . S
H222 C242 0.953 . S
H223 C243 0.945 . S
H224 C245 0.952 . S
H225 C246 0.949 . S
H226 C248 0.950 . S
H227 C249 0.948 . S
H228 C251 0.951 . S
H229 C216 0.947 . S
H230 C218 0.952 . S
H231 C219 0.950 . S
N232 C235 1.382 . S
N232 C237 1.363 . S
N233 C235 1.371 . S
N233 C236 1.372 . S
N234 C236 1.361 . S
N234 C237 1.377 . S
C235 N232 1.382 . S
C235 N233 1.371 . S
C235 C238 1.480 . S
C236 N233 1.372 . S
C236 N234 1.361 . S
C236 C244 1.457 . S
C237 N232 1.363 . S
C237 N234 1.377 . S
C237 C250 1.479 . S
C238 C235 1.480 . S
C238 C239 1.383 . S
C238 C243 1.385 . S
C239 H220 0.947 . S
C239 C238 1.383 . S
C239 C240 1.388 . S
C240 H221 0.946 . S
C240 C239 1.388 . S
C240 C241 1.384 . S
C241 C240 1.384 . S
C241 C242 1.377 . S
C242 H222 0.953 . S
C242 C241 1.377 . S
C242 C243 1.369 . S
C243 H223 0.945 . S
C243 C238 1.385 . S
C243 C242 1.369 . S
C244 C236 1.457 . S
C244 C245 1.372 . S
C244 C249 1.364 . S
C245 H224 0.952 . S
C245 C244 1.372 . S
C245 C246 1.389 . S
C246 H225 0.949 . S
C246 C245 1.389 . S
C246 C247 1.387 . S
C247 C246 1.387 . S
C247 C248 1.372 . S
C248 H226 0.950 . S
C248 C247 1.372 . S
C248 C249 1.379 . S
C249 H227 0.948 . S
C249 C244 1.364 . S
C249 C248 1.379 . S
C250 C219 1.383 . S
C250 C237 1.479 . S
C250 C251 1.398 . S
C251 C216 1.382 . S
C251 H228 0.951 . S
C251 C250 1.398 . S
C252 C253 1.384 . S
C252 H265 0.947 . S
C252 C287 1.382 . S
C253 C252 1.384 . S
C253 C254 1.378 . S
C254 C253 1.378 . S
C254 C255 1.378 . S
C254 H266 0.952 . S
C255 C254 1.378 . S
C255 H267 0.950 . S
C255 C286 1.383 . S
H256 C275 0.947 . S
H257 C276 0.946 . S
H258 C278 0.953 . S
H259 C279 0.945 . S
H260 C281 0.952 . S
H261 C282 0.949 . S
H262 C284 0.950 . S
H263 C285 0.948 . S
H264 C287 0.951 . S
H265 C252 0.947 . S
H266 C254 0.952 . S
H267 C255 0.950 . S
N268 C271 1.382 . S
N268 C273 1.363 . S
N269 C271 1.371 . S
N269 C272 1.372 . S
N270 C272 1.361 . S
N270 C273 1.377 . S
C271 N268 1.382 . S
C271 N269 1.371 . S
C271 C274 1.480 . S
C272 N269 1.372 . S
C272 N270 1.361 . S
C272 C280 1.457 . S
C273 N268 1.363 . S
C273 N270 1.377 . S
C273 C286 1.479 . S
C274 C271 1.480 . S
C274 C275 1.383 . S
C274 C279 1.385 . S
C275 H256 0.947 . S
C275 C274 1.383 . S
C275 C276 1.388 . S
C276 H257 0.946 . S
C276 C275 1.388 . S
C276 C277 1.384 . S
C277 C276 1.384 . S
C277 C278 1.377 . S
C278 H258 0.953 . S
C278 C277 1.377 . S
C278 C279 1.369 . S
C279 H259 0.945 . S
C279 C274 1.385 . S
C279 C278 1.369 . S
C280 C272 1.457 . S
C280 C281 1.372 . S
C280 C285 1.364 . S
C281 H260 0.952 . S
C281 C280 1.372 . S
C281 C282 1.389 . S
C282 H261 0.949 . S
C282 C281 1.389 . S
C282 C283 1.387 . S
C283 C282 1.387 . S
C283 C284 1.372 . S
C284 H262 0.950 . S
C284 C283 1.372 . S
C284 C285 1.379 . S
C285 H263 0.948 . S
C285 C280 1.364 . S
C285 C284 1.379 . S
C286 C255 1.383 . S
C286 C273 1.479 . S
C286 C287 1.398 . S
C287 C252 1.382 . S
C287 H264 0.951 . S
C287 C286 1.398 . S
C288 C289 1.384 . S
C288 H301 0.947 . S
C288 C323 1.382 . S
C289 C288 1.384 . S
C289 C290 1.378 . S
C290 C289 1.378 . S
C290 C291 1.378 . S
C290 H302 0.952 . S
C291 C290 1.378 . S
C291 H303 0.950 . S
C291 C322 1.383 . S
H292 C311 0.947 . S
H293 C312 0.946 . S
H294 C314 0.953 . S
H295 C315 0.945 . S
H296 C317 0.952 . S
H297 C318 0.949 . S
H298 C320 0.950 . S
H299 C321 0.948 . S
H300 C323 0.951 . S
H301 C288 0.947 . S
H302 C290 0.952 . S
H303 C291 0.950 . S
N304 C307 1.382 . S
N304 C309 1.363 . S
N305 C307 1.371 . S
N305 C308 1.372 . S
N306 C308 1.361 . S
N306 C309 1.377 . S
C307 N304 1.382 . S
C307 N305 1.371 . S
C307 C310 1.480 . S
C308 N305 1.372 . S
C308 N306 1.361 . S
C308 C316 1.457 . S
C309 N304 1.363 . S
C309 N306 1.377 . S
C309 C322 1.479 . S
C310 C307 1.480 . S
C310 C311 1.383 . S
C310 C315 1.385 . S
C311 H292 0.947 . S
C311 C310 1.383 . S
C311 C312 1.388 . S
C312 H293 0.946 . S
C312 C311 1.388 . S
C312 C313 1.384 . S
C313 C312 1.384 . S
C313 C314 1.377 . S
C314 H294 0.953 . S
C314 C313 1.377 . S
C314 C315 1.369 . S
C315 H295 0.945 . S
C315 C310 1.385 . S
C315 C314 1.369 . S
C316 C308 1.457 . S
C316 C317 1.372 . S
C316 C321 1.364 . S
C317 H296 0.952 . S
C317 C316 1.372 . S
C317 C318 1.389 . S
C318 H297 0.949 . S
C318 C317 1.389 . S
C318 C319 1.387 . S
C319 C318 1.387 . S
C319 C320 1.372 . S
C320 H298 0.950 . S
C320 C319 1.372 . S
C320 C321 1.379 . S
C321 H299 0.948 . S
C321 C316 1.364 . S
C321 C320 1.379 . S
C322 C291 1.383 . S
C322 C309 1.479 . S
C322 C323 1.398 . S
C323 C288 1.382 . S
C323 H300 0.951 . S
C323 C322 1.398 . S
C324 C325 1.384 . S
C324 H337 0.947 . S
C324 C359 1.382 . S
C325 C324 1.384 . S
C325 C326 1.378 . S
C326 C325 1.378 . S
C326 C327 1.378 . S
C326 H338 0.952 . S
C327 C326 1.378 . S
C327 H339 0.950 . S
C327 C358 1.383 . S
H328 C347 0.947 . S
H329 C348 0.946 . S
H330 C350 0.953 . S
H331 C351 0.945 . S
H332 C353 0.952 . S
H333 C354 0.949 . S
H334 C356 0.950 . S
H335 C357 0.948 . S
H336 C359 0.951 . S
H337 C324 0.947 . S
H338 C326 0.952 . S
H339 C327 0.950 . S
N340 C343 1.382 . S
N340 C345 1.363 . S
N341 C343 1.371 . S
N341 C344 1.372 . S
N342 C344 1.361 . S
N342 C345 1.377 . S
C343 N340 1.382 . S
C343 N341 1.371 . S
C343 C346 1.480 . S
C344 N341 1.372 . S
C344 N342 1.361 . S
C344 C352 1.457 . S
C345 N340 1.363 . S
C345 N342 1.377 . S
C345 C358 1.479 . S
C346 C343 1.480 . S
C346 C347 1.383 . S
C346 C351 1.385 . S
C347 H328 0.947 . S
C347 C346 1.383 . S
C347 C348 1.388 . S
C348 H329 0.946 . S
C348 C347 1.388 . S
C348 C349 1.384 . S
C349 C348 1.384 . S
C349 C350 1.377 . S
C350 H330 0.953 . S
C350 C349 1.377 . S
C350 C351 1.369 . S
C351 H331 0.945 . S
C351 C346 1.385 . S
C351 C350 1.369 . S
C352 C344 1.457 . S
C352 C353 1.372 . S
C352 C357 1.364 . S
C353 H332 0.952 . S
C353 C352 1.372 . S
C353 C354 1.389 . S
C354 H333 0.949 . S
C354 C353 1.389 . S
C354 C355 1.387 . S
C355 C354 1.387 . S
C355 C356 1.372 . S
C356 H334 0.950 . S
C356 C355 1.372 . S
C356 C357 1.379 . S
C357 H335 0.948 . S
C357 C352 1.364 . S
C357 C356 1.379 . S
C358 C327 1.383 . S
C358 C345 1.479 . S
C358 C359 1.398 . S
C359 C324 1.382 . S
C359 H336 0.951 . S
C359 C358 1.398 . S
C360 C361 1.384 . S
C360 H373 0.947 . S
C360 C395 1.382 . S
C361 C360 1.384 . S
C361 C362 1.378 . S
C362 C361 1.378 . S
C362 C363 1.378 . S
C362 H374 0.952 . S
C363 C362 1.378 . S
C363 H375 0.950 . S
C363 C394 1.383 . S
H364 C383 0.947 . S
H365 C384 0.946 . S
H366 C386 0.953 . S
H367 C387 0.945 . S
H368 C389 0.952 . S
H369 C390 0.949 . S
H370 C392 0.950 . S
H371 C393 0.948 . S
H372 C395 0.951 . S
H373 C360 0.947 . S
H374 C362 0.952 . S
H375 C363 0.950 . S
N376 C379 1.382 . S
N376 C381 1.363 . S
N377 C379 1.371 . S
N377 C380 1.372 . S
N378 C380 1.361 . S
N378 C381 1.377 . S
C379 N376 1.382 . S
C379 N377 1.371 . S
C379 C382 1.480 . S
C380 N377 1.372 . S
C380 N378 1.361 . S
C380 C388 1.457 . S
C381 N376 1.363 . S
C381 N378 1.377 . S
C381 C394 1.479 . S
C382 C379 1.480 . S
C382 C383 1.383 . S
C382 C387 1.385 . S
C383 H364 0.947 . S
C383 C382 1.383 . S
C383 C384 1.388 . S
C384 H365 0.946 . S
C384 C383 1.388 . S
C384 C385 1.384 . S
C385 C384 1.384 . S
C385 C386 1.377 . S
C386 H366 0.953 . S
C386 C385 1.377 . S
C386 C387 1.369 . S
C387 H367 0.945 . S
C387 C382 1.385 . S
C387 C386 1.369 . S
C388 C380 1.457 . S
C388 C389 1.372 . S
C388 C393 1.364 . S
C389 H368 0.952 . S
C389 C388 1.372 . S
C389 C390 1.389 . S
C390 H369 0.949 . S
C390 C389 1.389 . S
C390 C391 1.387 . S
C391 C390 1.387 . S
C391 C392 1.372 . S
C392 H370 0.950 . S
C392 C391 1.372 . S
C392 C393 1.379 . S
C393 H371 0.948 . S
C393 C388 1.364 . S
C393 C392 1.379 . S
C394 C363 1.383 . S
C394 C381 1.479 . S
C394 C395 1.398 . S
C395 C360 1.382 . S
C395 H372 0.951 . S
C395 C394 1.398 . S
C396 C397 1.384 . S
C396 H409 0.947 . S
C396 C431 1.382 . S
C397 C396 1.384 . S
C397 C398 1.378 . S
C398 C397 1.378 . S
C398 C399 1.378 . S
C398 H410 0.952 . S
C399 C398 1.378 . S
C399 H411 0.950 . S
C399 C430 1.383 . S
H400 C419 0.947 . S
H401 C420 0.946 . S
H402 C422 0.953 . S
H403 C423 0.945 . S
H404 C425 0.952 . S
H405 C426 0.949 . S
H406 C428 0.950 . S
H407 C429 0.948 . S
H408 C431 0.951 . S
H409 C396 0.947 . S
H410 C398 0.952 . S
H411 C399 0.950 . S
N412 C415 1.382 . S
N412 C417 1.363 . S
N413 C415 1.371 . S
N413 C416 1.372 . S
N414 C416 1.361 . S
N414 C417 1.377 . S
C415 N412 1.382 . S
C415 N413 1.371 . S
C415 C418 1.480 . S
C416 N413 1.372 . S
C416 N414 1.361 . S
C416 C424 1.457 . S
C417 N412 1.363 . S
C417 N414 1.377 . S
C417 C430 1.479 . S
C418 C415 1.480 . S
C418 C419 1.383 . S
C418 C423 1.385 . S
C419 H400 0.947 . S
C419 C418 1.383 . S
C419 C420 1.388 . S
C420 H401 0.946 . S
C420 C419 1.388 . S
C420 C421 1.384 . S
C421 C420 1.384 . S
C421 C422 1.377 . S
C422 H402 0.953 . S
C422 C421 1.377 . S
C422 C423 1.369 . S
C423 H403 0.945 . S
C423 C418 1.385 . S
C423 C422 1.369 . S
C424 C416 1.457 . S
C424 C425 1.372 . S
C424 C429 1.364 . S
C425 H404 0.952 . S
C425 C424 1.372 . S
C425 C426 1.389 . S
C426 H405 0.949 . S
C426 C425 1.389 . S
C426 C427 1.387 . S
C427 C426 1.387 . S
C427 C428 1.372 . S
C428 H406 0.950 . S
C428 C427 1.372 . S
C428 C429 1.379 . S
C429 H407 0.948 . S
C429 C424 1.364 . S
C429 C428 1.379 . S
C430 C399 1.383 . S
C430 C417 1.479 . S
C430 C431 1.398 . S
C431 C396 1.382 . S
C431 H408 0.951 . S
C431 C430 1.398 . S
C432 C433 1.384 . S
C432 H445 0.947 . S
C432 C467 1.382 . S
C433 C432 1.384 . S
C433 C434 1.378 . S
C434 C433 1.378 . S
C434 C435 1.378 . S
C434 H446 0.952 . S
C435 C434 1.378 . S
C435 H447 0.950 . S
C435 C466 1.383 . S
H436 C455 0.947 . S
H437 C456 0.946 . S
H438 C458 0.953 . S
H439 C459 0.945 . S
H440 C461 0.952 . S
H441 C462 0.949 . S
H442 C464 0.950 . S
H443 C465 0.948 . S
H444 C467 0.951 . S
H445 C432 0.947 . S
H446 C434 0.952 . S
H447 C435 0.950 . S
N448 C451 1.382 . S
N448 C453 1.363 . S
N449 C451 1.371 . S
N449 C452 1.372 . S
N450 C452 1.361 . S
N450 C453 1.377 . S
C451 N448 1.382 . S
C451 N449 1.371 . S
C451 C454 1.480 . S
C452 N449 1.372 . S
C452 N450 1.361 . S
C452 C460 1.457 . S
C453 N448 1.363 . S
C453 N450 1.377 . S
C453 C466 1.479 . S
C454 C451 1.480 . S
C454 C455 1.383 . S
C454 C459 1.385 . S
C455 H436 0.947 . S
C455 C454 1.383 . S
C455 C456 1.388 . S
C456 H437 0.946 . S
C456 C455 1.388 . S
C456 C457 1.384 . S
C457 C456 1.384 . S
C457 C458 1.377 . S
C458 H438 0.953 . S
C458 C457 1.377 . S
C458 C459 1.369 . S
C459 H439 0.945 . S
C459 C454 1.385 . S
C459 C458 1.369 . S
C460 C452 1.457 . S
C460 C461 1.372 . S
C460 C465 1.364 . S
C461 H440 0.952 . S
C461 C460 1.372 . S
C461 C462 1.389 . S
C462 H441 0.949 . S
C462 C461 1.389 . S
C462 C463 1.387 . S
C463 C462 1.387 . S
C463 C464 1.372 . S
C464 H442 0.950 . S
C464 C463 1.372 . S
C464 C465 1.379 . S
C465 H443 0.948 . S
C465 C460 1.364 . S
C465 C464 1.379 . S
C466 C435 1.383 . S
C466 C453 1.479 . S
C466 C467 1.398 . S
C467 C432 1.382 . S
C467 H444 0.951 . S
C467 C466 1.398 . S
C468 C469 1.384 . S
C468 H481 0.947 . S
C468 C503 1.382 . S
C469 C468 1.384 . S
C469 C470 1.378 . S
C470 C469 1.378 . S
C470 C471 1.378 . S
C470 H482 0.952 . S
C471 C470 1.378 . S
C471 H483 0.950 . S
C471 C502 1.383 . S
H472 C491 0.947 . S
H473 C492 0.946 . S
H474 C494 0.953 . S
H475 C495 0.945 . S
H476 C497 0.952 . S
H477 C498 0.949 . S
H478 C500 0.950 . S
H479 C501 0.948 . S
H480 C503 0.951 . S
H481 C468 0.947 . S
H482 C470 0.952 . S
H483 C471 0.950 . S
N484 C487 1.382 . S
N484 C489 1.363 . S
N485 C487 1.371 . S
N485 C488 1.372 . S
N486 C488 1.361 . S
N486 C489 1.377 . S
C487 N484 1.382 . S
C487 N485 1.371 . S
C487 C490 1.480 . S
C488 N485 1.372 . S
C488 N486 1.361 . S
C488 C496 1.457 . S
C489 N484 1.363 . S
C489 N486 1.377 . S
C489 C502 1.479 . S
C490 C487 1.480 . S
C490 C491 1.383 . S
C490 C495 1.385 . S
C491 H472 0.947 . S
C491 C490 1.383 . S
C491 C492 1.388 . S
C492 H473 0.946 . S
C492 C491 1.388 . S
C492 C493 1.384 . S
C493 C492 1.384 . S
C493 C494 1.377 . S
C494 H474 0.953 . S
C494 C493 1.377 . S
C494 C495 1.369 . S
C495 H475 0.945 . S
C495 C490 1.385 . S
C495 C494 1.369 . S
C496 C488 1.457 . S
C496 C497 1.372 . S
C496 C501 1.364 . S
C497 H476 0.952 . S
C497 C496 1.372 . S
C497 C498 1.389 . S
C498 H477 0.949 . S
C498 C497 1.389 . S
C498 C499 1.387 . S
C499 C498 1.387 . S
C499 C500 1.372 . S
C500 H478 0.950 . S
C500 C499 1.372 . S
C500 C501 1.379 . S
C501 H479 0.948 . S
C501 C496 1.364 . S
C501 C500 1.379 . S
C502 C471 1.383 . S
C502 C489 1.479 . S
C502 C503 1.398 . S
C503 C468 1.382 . S
C503 H480 0.951 . S
C503 C502 1.398 . S
C504 C505 1.384 . S
C504 H517 0.947 . S
C504 C539 1.382 . S
C505 C504 1.384 . S
C505 C506 1.378 . S
C506 C505 1.378 . S
C506 C507 1.378 . S
C506 H518 0.952 . S
C507 C506 1.378 . S
C507 H519 0.950 . S
C507 C538 1.383 . S
H508 C527 0.947 . S
H509 C528 0.946 . S
H510 C530 0.953 . S
H511 C531 0.945 . S
H512 C533 0.952 . S
H513 C534 0.949 . S
H514 C536 0.950 . S
H515 C537 0.948 . S
H516 C539 0.951 . S
H517 C504 0.947 . S
H518 C506 0.952 . S
H519 C507 0.950 . S
N520 C523 1.382 . S
N520 C525 1.363 . S
N521 C523 1.371 . S
N521 C524 1.372 . S
N522 C524 1.361 . S
N522 C525 1.377 . S
C523 N520 1.382 . S
C523 N521 1.371 . S
C523 C526 1.480 . S
C524 N521 1.372 . S
C524 N522 1.361 . S
C524 C532 1.457 . S
C525 N520 1.363 . S
C525 N522 1.377 . S
C525 C538 1.479 . S
C526 C523 1.480 . S
C526 C527 1.383 . S
C526 C531 1.385 . S
C527 H508 0.947 . S
C527 C526 1.383 . S
C527 C528 1.388 . S
C528 H509 0.946 . S
C528 C527 1.388 . S
C528 C529 1.384 . S
C529 C528 1.384 . S
C529 C530 1.377 . S
C530 H510 0.953 . S
C530 C529 1.377 . S
C530 C531 1.369 . S
C531 H511 0.945 . S
C531 C526 1.385 . S
C531 C530 1.369 . S
C532 C524 1.457 . S
C532 C533 1.372 . S
C532 C537 1.364 . S
C533 H512 0.952 . S
C533 C532 1.372 . S
C533 C534 1.389 . S
C534 H513 0.949 . S
C534 C533 1.389 . S
C534 C535 1.387 . S
C535 C534 1.387 . S
C535 C536 1.372 . S
C536 H514 0.950 . S
C536 C535 1.372 . S
C536 C537 1.379 . S
C537 H515 0.948 . S
C537 C532 1.364 . S
C537 C536 1.379 . S
C538 C507 1.383 . S
C538 C525 1.479 . S
C538 C539 1.398 . S
C539 C504 1.382 . S
C539 H516 0.951 . S
C539 C538 1.398 . S
C540 C541 1.384 . S
C540 H553 0.947 . S
C540 C575 1.382 . S
C541 C540 1.384 . S
C541 C542 1.378 . S
C542 C541 1.378 . S
C542 C543 1.378 . S
C542 H554 0.952 . S
C543 C542 1.378 . S
C543 H555 0.950 . S
C543 C574 1.383 . S
H544 C563 0.947 . S
H545 C564 0.946 . S
H546 C566 0.953 . S
H547 C567 0.945 . S
H548 C569 0.952 . S
H549 C570 0.949 . S
H550 C572 0.950 . S
H551 C573 0.948 . S
H552 C575 0.951 . S
H553 C540 0.947 . S
H554 C542 0.952 . S
H555 C543 0.950 . S
N556 C559 1.382 . S
N556 C561 1.363 . S
N557 C559 1.371 . S
N557 C560 1.372 . S
N558 C560 1.361 . S
N558 C561 1.377 . S
C559 N556 1.382 . S
C559 N557 1.371 . S
C559 C562 1.480 . S
C560 N557 1.372 . S
C560 N558 1.361 . S
C560 C568 1.457 . S
C561 N556 1.363 . S
C561 N558 1.377 . S
C561 C574 1.479 . S
C562 C559 1.480 . S
C562 C563 1.383 . S
C562 C567 1.385 . S
C563 H544 0.947 . S
C563 C562 1.383 . S
C563 C564 1.388 . S
C564 H545 0.946 . S
C564 C563 1.388 . S
C564 C565 1.384 . S
C565 C564 1.384 . S
C565 C566 1.377 . S
C566 H546 0.953 . S
C566 C565 1.377 . S
C566 C567 1.369 . S
C567 H547 0.945 . S
C567 C562 1.385 . S
C567 C566 1.369 . S
C568 C560 1.457 . S
C568 C569 1.372 . S
C568 C573 1.364 . S
C569 H548 0.952 . S
C569 C568 1.372 . S
C569 C570 1.389 . S
C570 H549 0.949 . S
C570 C569 1.389 . S
C570 C571 1.387 . S
C571 C570 1.387 . S
C571 C572 1.372 . S
C572 H550 0.950 . S
C572 C571 1.372 . S
C572 C573 1.379 . S
C573 H551 0.948 . S
C573 C568 1.364 . S
C573 C572 1.379 . S
C574 C543 1.383 . S
C574 C561 1.479 . S
C574 C575 1.398 . S
C575 C540 1.382 . S
C575 H552 0.951 . S
C575 C574 1.398 . S
C576 C577 1.384 . S
C576 H589 0.947 . S
C576 C611 1.382 . S
C577 C576 1.384 . S
C577 C578 1.378 . S
C578 C577 1.378 . S
C578 C579 1.378 . S
C578 H590 0.952 . S
C579 C578 1.378 . S
C579 H591 0.950 . S
C579 C610 1.383 . S
H580 C599 0.947 . S
H581 C600 0.946 . S
H582 C602 0.953 . S
H583 C603 0.945 . S
H584 C605 0.952 . S
H585 C606 0.949 . S
H586 C608 0.950 . S
H587 C609 0.948 . S
H588 C611 0.951 . S
H589 C576 0.947 . S
H590 C578 0.952 . S
H591 C579 0.950 . S
N592 C595 1.382 . S
N592 C597 1.363 . S
N593 C595 1.371 . S
N593 C596 1.372 . S
N594 C596 1.361 . S
N594 C597 1.377 . S
C595 N592 1.382 . S
C595 N593 1.371 . S
C595 C598 1.480 . S
C596 N593 1.372 . S
C596 N594 1.361 . S
C596 C604 1.457 . S
C597 N592 1.363 . S
C597 N594 1.377 . S
C597 C610 1.479 . S
C598 C595 1.480 . S
C598 C599 1.383 . S
C598 C603 1.385 . S
C599 H580 0.947 . S
C599 C598 1.383 . S
C599 C600 1.388 . S
C600 H581 0.946 . S
C600 C599 1.388 . S
C600 C601 1.384 . S
C601 C600 1.384 . S
C601 C602 1.377 . S
C602 H582 0.953 . S
C602 C601 1.377 . S
C602 C603 1.369 . S
C603 H583 0.945 . S
C603 C598 1.385 . S
C603 C602 1.369 . S
C604 C596 1.457 . S
C604 C605 1.372 . S
C604 C609 1.364 . S
C605 H584 0.952 . S
C605 C604 1.372 . S
C605 C606 1.389 . S
C606 H585 0.949 . S
C606 C605 1.389 . S
C606 C607 1.387 . S
C607 C606 1.387 . S
C607 C608 1.372 . S
C608 H586 0.950 . S
C608 C607 1.372 . S
C608 C609 1.379 . S
C609 H587 0.948 . S
C609 C604 1.364 . S
C609 C608 1.379 . S
C610 C579 1.383 . S
C610 C597 1.479 . S
C610 C611 1.398 . S
C611 C576 1.382 . S
C611 H588 0.951 . S
C611 C610 1.398 . S
C612 C613 1.384 . S
C612 H625 0.947 . S
C612 C647 1.382 . S
C613 C612 1.384 . S
C613 C614 1.378 . S
C614 C613 1.378 . S
C614 C615 1.378 . S
C614 H626 0.952 . S
C615 C614 1.378 . S
C615 H627 0.950 . S
C615 C646 1.383 . S
H616 C635 0.947 . S
H617 C636 0.946 . S
H618 C638 0.953 . S
H619 C639 0.945 . S
H620 C641 0.952 . S
H621 C642 0.949 . S
H622 C644 0.950 . S
H623 C645 0.948 . S
H624 C647 0.951 . S
H625 C612 0.947 . S
H626 C614 0.952 . S
H627 C615 0.950 . S
N628 C631 1.382 . S
N628 C633 1.363 . S
N629 C631 1.371 . S
N629 C632 1.372 . S
N630 C632 1.361 . S
N630 C633 1.377 . S
C631 N628 1.382 . S
C631 N629 1.371 . S
C631 C634 1.480 . S
C632 N629 1.372 . S
C632 N630 1.361 . S
C632 C640 1.457 . S
C633 N628 1.363 . S
C633 N630 1.377 . S
C633 C646 1.479 . S
C634 C631 1.480 . S
C634 C635 1.383 . S
C634 C639 1.385 . S
C635 H616 0.947 . S
C635 C634 1.383 . S
C635 C636 1.388 . S
C636 H617 0.946 . S
C636 C635 1.388 . S
C636 C637 1.384 . S
C637 C636 1.384 . S
C637 C638 1.377 . S
C638 H618 0.953 . S
C638 C637 1.377 . S
C638 C639 1.369 . S
C639 H619 0.945 . S
C639 C634 1.385 . S
C639 C638 1.369 . S
C640 C632 1.457 . S
C640 C641 1.372 . S
C640 C645 1.364 . S
C641 H620 0.952 . S
C641 C640 1.372 . S
C641 C642 1.389 . S
C642 H621 0.949 . S
C642 C641 1.389 . S
C642 C643 1.387 . S
C643 C642 1.387 . S
C643 C644 1.372 . S
C644 H622 0.950 . S
C644 C643 1.372 . S
C644 C645 1.379 . S
C645 H623 0.948 . S
C645 C640 1.364 . S
C645 C644 1.379 . S
C646 C615 1.383 . S
C646 C633 1.479 . S
C646 C647 1.398 . S
C647 C612 1.382 . S
C647 H624 0.951 . S
C647 C646 1.398 . S
C648 C649 1.384 . S
C648 H661 0.947 . S
C648 C683 1.382 . S
C649 C648 1.384 . S
C649 C650 1.378 . S
C650 C649 1.378 . S
C650 C651 1.378 . S
C650 H662 0.952 . S
C651 C650 1.378 . S
C651 H663 0.950 . S
C651 C682 1.383 . S
H652 C671 0.947 . S
H653 C672 0.946 . S
H654 C674 0.953 . S
H655 C675 0.945 . S
H656 C677 0.952 . S
H657 C678 0.949 . S
H658 C680 0.950 . S
H659 C681 0.948 . S
H660 C683 0.951 . S
H661 C648 0.947 . S
H662 C650 0.952 . S
H663 C651 0.950 . S
N664 C667 1.382 . S
N664 C669 1.363 . S
N665 C667 1.371 . S
N665 C668 1.372 . S
N666 C668 1.361 . S
N666 C669 1.377 . S
C667 N664 1.382 . S
C667 N665 1.371 . S
C667 C670 1.480 . S
C668 N665 1.372 . S
C668 N666 1.361 . S
C668 C676 1.457 . S
C669 N664 1.363 . S
C669 N666 1.377 . S
C669 C682 1.479 . S
C670 C667 1.480 . S
C670 C671 1.383 . S
C670 C675 1.385 . S
C671 H652 0.947 . S
C671 C670 1.383 . S
C671 C672 1.388 . S
C672 H653 0.946 . S
C672 C671 1.388 . S
C672 C673 1.384 . S
C673 C672 1.384 . S
C673 C674 1.377 . S
C674 H654 0.953 . S
C674 C673 1.377 . S
C674 C675 1.369 . S
C675 H655 0.945 . S
C675 C670 1.385 . S
C675 C674 1.369 . S
C676 C668 1.457 . S
C676 C677 1.372 . S
C676 C681 1.364 . S
C677 H656 0.952 . S
C677 C676 1.372 . S
C677 C678 1.389 . S
C678 H657 0.949 . S
C678 C677 1.389 . S
C678 C679 1.387 . S
C679 C678 1.387 . S
C679 C680 1.372 . S
C680 H658 0.950 . S
C680 C679 1.372 . S
C680 C681 1.379 . S
C681 H659 0.948 . S
C681 C676 1.364 . S
C681 C680 1.379 . S
C682 C651 1.383 . S
C682 C669 1.479 . S
C682 C683 1.398 . S
C683 C648 1.382 . S
C683 H660 0.951 . S
C683 C682 1.398 . S
C684 C685 1.384 . S
C684 H697 0.947 . S
C684 C719 1.382 . S
C685 C684 1.384 . S
C685 C686 1.378 . S
C686 C685 1.378 . S
C686 C687 1.378 . S
C686 H698 0.952 . S
C687 C686 1.378 . S
C687 H699 0.950 . S
C687 C718 1.383 . S
H688 C707 0.947 . S
H689 C708 0.946 . S
H690 C710 0.953 . S
H691 C711 0.945 . S
H692 C713 0.952 . S
H693 C714 0.949 . S
H694 C716 0.950 . S
H695 C717 0.948 . S
H696 C719 0.951 . S
H697 C684 0.947 . S
H698 C686 0.952 . S
H699 C687 0.950 . S
N700 C703 1.382 . S
N700 C705 1.363 . S
N701 C703 1.371 . S
N701 C704 1.372 . S
N702 C704 1.361 . S
N702 C705 1.377 . S
C703 N700 1.382 . S
C703 N701 1.371 . S
C703 C706 1.480 . S
C704 N701 1.372 . S
C704 N702 1.361 . S
C704 C712 1.457 . S
C705 N700 1.363 . S
C705 N702 1.377 . S
C705 C718 1.479 . S
C706 C703 1.480 . S
C706 C707 1.383 . S
C706 C711 1.385 . S
C707 H688 0.947 . S
C707 C706 1.383 . S
C707 C708 1.388 . S
C708 H689 0.946 . S
C708 C707 1.388 . S
C708 C709 1.384 . S
C709 C708 1.384 . S
C709 C710 1.377 . S
C710 H690 0.953 . S
C710 C709 1.377 . S
C710 C711 1.369 . S
C711 H691 0.945 . S
C711 C706 1.385 . S
C711 C710 1.369 . S
C712 C704 1.457 . S
C712 C713 1.372 . S
C712 C717 1.364 . S
C713 H692 0.952 . S
C713 C712 1.372 . S
C713 C714 1.389 . S
C714 H693 0.949 . S
C714 C713 1.389 . S
C714 C715 1.387 . S
C715 C714 1.387 . S
C715 C716 1.372 . S
C716 H694 0.950 . S
C716 C715 1.372 . S
C716 C717 1.379 . S
C717 H695 0.948 . S
C717 C712 1.364 . S
C717 C716 1.379 . S
C718 C687 1.383 . S
C718 C705 1.479 . S
C718 C719 1.398 . S
C719 C684 1.382 . S
C719 H696 0.951 . S
C719 C718 1.398 . S
C720 C721 1.384 . S
C720 H733 0.947 . S
C720 C755 1.382 . S
C721 C720 1.384 . S
C721 C722 1.378 . S
C722 C721 1.378 . S
C722 C723 1.378 . S
C722 H734 0.952 . S
C723 C722 1.378 . S
C723 H735 0.950 . S
C723 C754 1.383 . S
H724 C743 0.947 . S
H725 C744 0.946 . S
H726 C746 0.953 . S
H727 C747 0.945 . S
H728 C749 0.952 . S
H729 C750 0.949 . S
H730 C752 0.950 . S
H731 C753 0.948 . S
H732 C755 0.951 . S
H733 C720 0.947 . S
H734 C722 0.952 . S
H735 C723 0.950 . S
N736 C739 1.382 . S
N736 C741 1.363 . S
N737 C739 1.371 . S
N737 C740 1.372 . S
N738 C740 1.361 . S
N738 C741 1.377 . S
C739 N736 1.382 . S
C739 N737 1.371 . S
C739 C742 1.480 . S
C740 N737 1.372 . S
C740 N738 1.361 . S
C740 C748 1.457 . S
C741 N736 1.363 . S
C741 N738 1.377 . S
C741 C754 1.479 . S
C742 C739 1.480 . S
C742 C743 1.383 . S
C742 C747 1.385 . S
C743 H724 0.947 . S
C743 C742 1.383 . S
C743 C744 1.388 . S
C744 H725 0.946 . S
C744 C743 1.388 . S
C744 C745 1.384 . S
C745 C744 1.384 . S
C745 C746 1.377 . S
C746 H726 0.953 . S
C746 C745 1.377 . S
C746 C747 1.369 . S
C747 H727 0.945 . S
C747 C742 1.385 . S
C747 C746 1.369 . S
C748 C740 1.457 . S
C748 C749 1.372 . S
C748 C753 1.364 . S
C749 H728 0.952 . S
C749 C748 1.372 . S
C749 C750 1.389 . S
C750 H729 0.949 . S
C750 C749 1.389 . S
C750 C751 1.387 . S
C751 C750 1.387 . S
C751 C752 1.372 . S
C752 H730 0.950 . S
C752 C751 1.372 . S
C752 C753 1.379 . S
C753 H731 0.948 . S
C753 C748 1.364 . S
C753 C752 1.379 . S
C754 C723 1.383 . S
C754 C741 1.479 . S
C754 C755 1.398 . S
C755 C720 1.382 . S
C755 H732 0.951 . S
C755 C754 1.398 . S
C756 C757 1.384 . S
C756 H769 0.947 . S
C756 C791 1.382 . S
C757 C756 1.384 . S
C757 C758 1.378 . S
C758 C757 1.378 . S
C758 C759 1.378 . S
C758 H770 0.952 . S
C759 C758 1.378 . S
C759 H771 0.950 . S
C759 C790 1.383 . S
H760 C779 0.947 . S
H761 C780 0.946 . S
H762 C782 0.953 . S
H763 C783 0.945 . S
H764 C785 0.952 . S
H765 C786 0.949 . S
H766 C788 0.950 . S
H767 C789 0.948 . S
H768 C791 0.951 . S
H769 C756 0.947 . S
H770 C758 0.952 . S
H771 C759 0.950 . S
N772 C775 1.382 . S
N772 C777 1.363 . S
N773 C775 1.371 . S
N773 C776 1.372 . S
N774 C776 1.361 . S
N774 C777 1.377 . S
C775 N772 1.382 . S
C775 N773 1.371 . S
C775 C778 1.480 . S
C776 N773 1.372 . S
C776 N774 1.361 . S
C776 C784 1.457 . S
C777 N772 1.363 . S
C777 N774 1.377 . S
C777 C790 1.479 . S
C778 C775 1.480 . S
C778 C779 1.383 . S
C778 C783 1.385 . S
C779 H760 0.947 . S
C779 C778 1.383 . S
C779 C780 1.388 . S
C780 H761 0.946 . S
C780 C779 1.388 . S
C780 C781 1.384 . S
C781 C780 1.384 . S
C781 C782 1.377 . S
C782 H762 0.953 . S
C782 C781 1.377 . S
C782 C783 1.369 . S
C783 H763 0.945 . S
C783 C778 1.385 . S
C783 C782 1.369 . S
C784 C776 1.457 . S
C784 C785 1.372 . S
C784 C789 1.364 . S
C785 H764 0.952 . S
C785 C784 1.372 . S
C785 C786 1.389 . S
C786 H765 0.949 . S
C786 C785 1.389 . S
C786 C787 1.387 . S
C787 C786 1.387 . S
C787 C788 1.372 . S
C788 H766 0.950 . S
C788 C787 1.372 . S
C788 C789 1.379 . S
C789 H767 0.948 . S
C789 C784 1.364 . S
C789 C788 1.379 . S
C790 C759 1.383 . S
C790 C777 1.479 . S
C790 C791 1.398 . S
C791 C756 1.382 . S
C791 H768 0.951 . S
C791 C790 1.398 . S
C792 C793 1.384 . S
C792 H805 0.947 . S
C792 C827 1.382 . S
C793 C792 1.384 . S
C793 C794 1.378 . S
C794 C793 1.378 . S
C794 C795 1.378 . S
C794 H806 0.952 . S
C795 C794 1.378 . S
C795 H807 0.950 . S
C795 C826 1.383 . S
H796 C815 0.947 . S
H797 C816 0.946 . S
H798 C818 0.953 . S
H799 C819 0.945 . S
H800 C821 0.952 . S
H801 C822 0.949 . S
H802 C824 0.950 . S
H803 C825 0.948 . S
H804 C827 0.951 . S
H805 C792 0.947 . S
H806 C794 0.952 . S
H807 C795 0.950 . S
N808 C811 1.382 . S
N808 C813 1.363 . S
N809 C811 1.371 . S
N809 C812 1.372 . S
N810 C812 1.361 . S
N810 C813 1.377 . S
C811 N808 1.382 . S
C811 N809 1.371 . S
C811 C814 1.480 . S
C812 N809 1.372 . S
C812 N810 1.361 . S
C812 C820 1.457 . S
C813 N808 1.363 . S
C813 N810 1.377 . S
C813 C826 1.479 . S
C814 C811 1.480 . S
C814 C815 1.383 . S
C814 C819 1.385 . S
C815 H796 0.947 . S
C815 C814 1.383 . S
C815 C816 1.388 . S
C816 H797 0.946 . S
C816 C815 1.388 . S
C816 C817 1.384 . S
C817 C816 1.384 . S
C817 C818 1.377 . S
C818 H798 0.953 . S
C818 C817 1.377 . S
C818 C819 1.369 . S
C819 H799 0.945 . S
C819 C814 1.385 . S
C819 C818 1.369 . S
C820 C812 1.457 . S
C820 C821 1.372 . S
C820 C825 1.364 . S
C821 H800 0.952 . S
C821 C820 1.372 . S
C821 C822 1.389 . S
C822 H801 0.949 . S
C822 C821 1.389 . S
C822 C823 1.387 . S
C823 C822 1.387 . S
C823 C824 1.372 . S
C824 H802 0.950 . S
C824 C823 1.372 . S
C824 C825 1.379 . S
C825 H803 0.948 . S
C825 C820 1.364 . S
C825 C824 1.379 . S
C826 C795 1.383 . S
C826 C813 1.479 . S
C826 C827 1.398 . S
C827 C792 1.382 . S
C827 H804 0.951 . S
C827 C826 1.398 . S
C828 C829 1.384 . S
C828 H841 0.947 . S
C828 C863 1.382 . S
C829 C828 1.384 . S
C829 C830 1.378 . S
C830 C829 1.378 . S
C830 C831 1.378 . S
C830 H842 0.952 . S
C831 C830 1.378 . S
C831 H843 0.950 . S
C831 C862 1.383 . S
H832 C851 0.947 . S
H833 C852 0.946 . S
H834 C854 0.953 . S
H835 C855 0.945 . S
H836 C857 0.952 . S
H837 C858 0.949 . S
H838 C860 0.950 . S
H839 C861 0.948 . S
H840 C863 0.951 . S
H841 C828 0.947 . S
H842 C830 0.952 . S
H843 C831 0.950 . S
N844 C847 1.382 . S
N844 C849 1.363 . S
N845 C847 1.371 . S
N845 C848 1.372 . S
N846 C848 1.361 . S
N846 C849 1.377 . S
C847 N844 1.382 . S
C847 N845 1.371 . S
C847 C850 1.480 . S
C848 N845 1.372 . S
C848 N846 1.361 . S
C848 C856 1.457 . S
C849 N844 1.363 . S
C849 N846 1.377 . S
C849 C862 1.479 . S
C850 C847 1.480 . S
C850 C851 1.383 . S
C850 C855 1.385 . S
C851 H832 0.947 . S
C851 C850 1.383 . S
C851 C852 1.388 . S
C852 H833 0.946 . S
C852 C851 1.388 . S
C852 C853 1.384 . S
C853 C852 1.384 . S
C853 C854 1.377 . S
C854 H834 0.953 . S
C854 C853 1.377 . S
C854 C855 1.369 . S
C855 H835 0.945 . S
C855 C850 1.385 . S
C855 C854 1.369 . S
C856 C848 1.457 . S
C856 C857 1.372 . S
C856 C861 1.364 . S
C857 H836 0.952 . S
C857 C856 1.372 . S
C857 C858 1.389 . S
C858 H837 0.949 . S
C858 C857 1.389 . S
C858 C859 1.387 . S
C859 C858 1.387 . S
C859 C860 1.372 . S
C860 H838 0.950 . S
C860 C859 1.372 . S
C860 C861 1.379 . S
C861 H839 0.948 . S
C861 C856 1.364 . S
C861 C860 1.379 . S
C862 C831 1.383 . S
C862 C849 1.479 . S
C862 C863 1.398 . S
C863 C828 1.382 . S
C863 H840 0.951 . S
C863 C862 1.398 . S
C864 C865 1.384 . S
C864 H877 0.947 . S
C864 C899 1.382 . S
C865 C864 1.384 . S
C865 C866 1.378 . S
C866 C865 1.378 . S
C866 C867 1.378 . S
C866 H878 0.952 . S
C867 C866 1.378 . S
C867 H879 0.950 . S
C867 C898 1.383 . S
H868 C887 0.947 . S
H869 C888 0.946 . S
H870 C890 0.953 . S
H871 C891 0.945 . S
H872 C893 0.952 . S
H873 C894 0.949 . S
H874 C896 0.950 . S
H875 C897 0.948 . S
H876 C899 0.951 . S
H877 C864 0.947 . S
H878 C866 0.952 . S
H879 C867 0.950 . S
N880 C883 1.382 . S
N880 C885 1.363 . S
N881 C883 1.371 . S
N881 C884 1.372 . S
N882 C884 1.361 . S
N882 C885 1.377 . S
C883 N880 1.382 . S
C883 N881 1.371 . S
C883 C886 1.480 . S
C884 N881 1.372 . S
C884 N882 1.361 . S
C884 C892 1.457 . S
C885 N880 1.363 . S
C885 N882 1.377 . S
C885 C898 1.479 . S
C886 C883 1.480 . S
C886 C887 1.383 . S
C886 C891 1.385 . S
C887 H868 0.947 . S
C887 C886 1.383 . S
C887 C888 1.388 . S
C888 H869 0.946 . S
C888 C887 1.388 . S
C888 C889 1.384 . S
C889 C888 1.384 . S
C889 C890 1.377 . S
C890 H870 0.953 . S
C890 C889 1.377 . S
C890 C891 1.369 . S
C891 H871 0.945 . S
C891 C886 1.385 . S
C891 C890 1.369 . S
C892 C884 1.457 . S
C892 C893 1.372 . S
C892 C897 1.364 . S
C893 H872 0.952 . S
C893 C892 1.372 . S
C893 C894 1.389 . S
C894 H873 0.949 . S
C894 C893 1.389 . S
C894 C895 1.387 . S
C895 C894 1.387 . S
C895 C896 1.372 . S
C896 H874 0.950 . S
C896 C895 1.372 . S
C896 C897 1.379 . S
C897 H875 0.948 . S
C897 C892 1.364 . S
C897 C896 1.379 . S
C898 C867 1.383 . S
C898 C885 1.479 . S
C898 C899 1.398 . S
C899 C864 1.382 . S
C899 H876 0.951 . S
C899 C898 1.398 . S
C900 C901 1.384 . S
C900 H913 0.947 . S
C900 C935 1.382 . S
C901 C900 1.384 . S
C901 C902 1.378 . S
C902 C901 1.378 . S
C902 C903 1.378 . S
C902 H914 0.952 . S
C903 C902 1.378 . S
C903 H915 0.950 . S
C903 C934 1.383 . S
H904 C923 0.947 . S
H905 C924 0.946 . S
H906 C926 0.953 . S
H907 C927 0.945 . S
H908 C929 0.952 . S
H909 C930 0.949 . S
H910 C932 0.950 . S
H911 C933 0.948 . S
H912 C935 0.951 . S
H913 C900 0.947 . S
H914 C902 0.952 . S
H915 C903 0.950 . S
N916 C919 1.382 . S
N916 C921 1.363 . S
N917 C919 1.371 . S
N917 C920 1.372 . S
N918 C920 1.361 . S
N918 C921 1.377 . S
C919 N916 1.382 . S
C919 N917 1.371 . S
C919 C922 1.480 . S
C920 N917 1.372 . S
C920 N918 1.361 . S
C920 C928 1.457 . S
C921 N916 1.363 . S
C921 N918 1.377 . S
C921 C934 1.479 . S
C922 C919 1.480 . S
C922 C923 1.383 . S
C922 C927 1.385 . S
C923 H904 0.947 . S
C923 C922 1.383 . S
C923 C924 1.388 . S
C924 H905 0.946 . S
C924 C923 1.388 . S
C924 C925 1.384 . S
C925 C924 1.384 . S
C925 C926 1.377 . S
C926 H906 0.953 . S
C926 C925 1.377 . S
C926 C927 1.369 . S
C927 H907 0.945 . S
C927 C922 1.385 . S
C927 C926 1.369 . S
C928 C920 1.457 . S
C928 C929 1.372 . S
C928 C933 1.364 . S
C929 H908 0.952 . S
C929 C928 1.372 . S
C929 C930 1.389 . S
C930 H909 0.949 . S
C930 C929 1.389 . S
C930 C931 1.387 . S
C931 C930 1.387 . S
C931 C932 1.372 . S
C932 H910 0.950 . S
C932 C931 1.372 . S
C932 C933 1.379 . S
C933 H911 0.948 . S
C933 C928 1.364 . S
C933 C932 1.379 . S
C934 C903 1.383 . S
C934 C921 1.479 . S
C934 C935 1.398 . S
C935 C900 1.382 . S
C935 H912 0.951 . S
C935 C934 1.398 . S
C936 C937 1.384 . S
C936 H949 0.947 . S
C936 C971 1.382 . S
C937 C936 1.384 . S
C937 C938 1.378 . S
C938 C937 1.378 . S
C938 C939 1.378 . S
C938 H950 0.952 . S
C939 C938 1.378 . S
C939 H951 0.950 . S
C939 C970 1.383 . S
H940 C959 0.947 . S
H941 C960 0.946 . S
H942 C962 0.953 . S
H943 C963 0.945 . S
H944 C965 0.952 . S
H945 C966 0.949 . S
H946 C968 0.950 . S
H947 C969 0.948 . S
H948 C971 0.951 . S
H949 C936 0.947 . S
H950 C938 0.952 . S
H951 C939 0.950 . S
N952 C955 1.382 . S
N952 C957 1.363 . S
N953 C955 1.371 . S
N953 C956 1.372 . S
N954 C956 1.361 . S
N954 C957 1.377 . S
C955 N952 1.382 . S
C955 N953 1.371 . S
C955 C958 1.480 . S
C956 N953 1.372 . S
C956 N954 1.361 . S
C956 C964 1.457 . S
C957 N952 1.363 . S
C957 N954 1.377 . S
C957 C970 1.479 . S
C958 C955 1.480 . S
C958 C959 1.383 . S
C958 C963 1.385 . S
C959 H940 0.947 . S
C959 C958 1.383 . S
C959 C960 1.388 . S
C960 H941 0.946 . S
C960 C959 1.388 . S
C960 C961 1.384 . S
C961 C960 1.384 . S
C961 C962 1.377 . S
C962 H942 0.953 . S
C962 C961 1.377 . S
C962 C963 1.369 . S
C963 H943 0.945 . S
C963 C958 1.385 . S
C963 C962 1.369 . S
C964 C956 1.457 . S
C964 C965 1.372 . S
C964 C969 1.364 . S
C965 H944 0.952 . S
C965 C964 1.372 . S
C965 C966 1.389 . S
C966 H945 0.949 . S
C966 C965 1.389 . S
C966 C967 1.387 . S
C967 C966 1.387 . S
C967 C968 1.372 . S
C968 H946 0.950 . S
C968 C967 1.372 . S
C968 C969 1.379 . S
C969 H947 0.948 . S
C969 C964 1.364 . S
C969 C968 1.379 . S
C970 C939 1.383 . S
C970 C957 1.479 . S
C970 C971 1.398 . S
C971 C936 1.382 . S
C971 H948 0.951 . S
C971 C970 1.398 . S
C972 C973 1.384 . S
C972 H985 0.947 . S
C972 C1007 1.382 . S
C973 C972 1.384 . S
C973 C974 1.378 . S
C974 C973 1.378 . S
C974 C975 1.378 . S
C974 H986 0.952 . S
C975 C974 1.378 . S
C975 H987 0.950 . S
C975 C1006 1.383 . S
H976 C995 0.947 . S
H977 C996 0.946 . S
H978 C998 0.953 . S
H979 C999 0.945 . S
H980 C1001 0.952 . S
H981 C1002 0.949 . S
H982 C1004 0.950 . S
H983 C1005 0.948 . S
H984 C1007 0.951 . S
H985 C972 0.947 . S
H986 C974 0.952 . S
H987 C975 0.950 . S
N988 C991 1.382 . S
N988 C993 1.363 . S
N989 C991 1.371 . S
N989 C992 1.372 . S
N990 C992 1.361 . S
N990 C993 1.377 . S
C991 N988 1.382 . S
C991 N989 1.371 . S
C991 C994 1.480 . S
C992 N989 1.372 . S
C992 N990 1.361 . S
C992 C1000 1.457 . S
C993 N988 1.363 . S
C993 N990 1.377 . S
C993 C1006 1.479 . S
C994 C991 1.480 . S
C994 C995 1.383 . S
C994 C999 1.385 . S
C995 H976 0.947 . S
C995 C994 1.383 . S
C995 C996 1.388 . S
C996 H977 0.946 . S
C996 C995 1.388 . S
C996 C997 1.384 . S
C997 C996 1.384 . S
C997 C998 1.377 . S
C998 H978 0.953 . S
C998 C997 1.377 . S
C998 C999 1.369 . S
C999 H979 0.945 . S
C999 C994 1.385 . S
C999 C998 1.369 . S
C1000 C992 1.457 . S
C1000 C1001 1.372 . S
C1000 C1005 1.364 . S
C1001 H980 0.952 . S
C1001 C1000 1.372 . S
C1001 C1002 1.389 . S
C1002 H981 0.949 . S
C1002 C1001 1.389 . S
C1002 C1003 1.387 . S
C1003 C1002 1.387 . S
C1003 C1004 1.372 . S
C1004 H982 0.950 . S
C1004 C1003 1.372 . S
C1004 C1005 1.379 . S
C1005 H983 0.948 . S
C1005 C1000 1.364 . S
C1005 C1004 1.379 . S
C1006 C975 1.383 . S
C1006 C993 1.479 . S
C1006 C1007 1.398 . S
C1007 C972 1.382 . S
C1007 H984 0.951 . S
C1007 C1006 1.398 . S
C1008 C1009 1.384 . S
C1008 H1021 0.947 . S
C1008 C1043 1.382 . S
C1009 C1008 1.384 . S
C1009 C1010 1.378 . S
C1010 C1009 1.378 . S
C1010 C1011 1.378 . S
C1010 H1022 0.952 . S
C1011 C1010 1.378 . S
C1011 H1023 0.950 . S
C1011 C1042 1.383 . S
H1012 C1031 0.947 . S
H1013 C1032 0.946 . S
H1014 C1034 0.953 . S
H1015 C1035 0.945 . S
H1016 C1037 0.952 . S
H1017 C1038 0.949 . S
H1018 C1040 0.950 . S
H1019 C1041 0.948 . S
H1020 C1043 0.951 . S
H1021 C1008 0.947 . S
H1022 C1010 0.952 . S
H1023 C1011 0.950 . S
N1024 C1027 1.382 . S
N1024 C1029 1.363 . S
N1025 C1027 1.371 . S
N1025 C1028 1.372 . S
N1026 C1028 1.361 . S
N1026 C1029 1.377 . S
C1027 N1024 1.382 . S
C1027 N1025 1.371 . S
C1027 C1030 1.480 . S
C1028 N1025 1.372 . S
C1028 N1026 1.361 . S
C1028 C1036 1.457 . S
C1029 N1024 1.363 . S
C1029 N1026 1.377 . S
C1029 C1042 1.479 . S
C1030 C1027 1.480 . S
C1030 C1031 1.383 . S
C1030 C1035 1.385 . S
C1031 H1012 0.947 . S
C1031 C1030 1.383 . S
C1031 C1032 1.388 . S
C1032 H1013 0.946 . S
C1032 C1031 1.388 . S
C1032 C1033 1.384 . S
C1033 C1032 1.384 . S
C1033 C1034 1.377 . S
C1034 H1014 0.953 . S
C1034 C1033 1.377 . S
C1034 C1035 1.369 . S
C1035 H1015 0.945 . S
C1035 C1030 1.385 . S
C1035 C1034 1.369 . S
C1036 C1028 1.457 . S
C1036 C1037 1.372 . S
C1036 C1041 1.364 . S
C1037 H1016 0.952 . S
C1037 C1036 1.372 . S
C1037 C1038 1.389 . S
C1038 H1017 0.949 . S
C1038 C1037 1.389 . S
C1038 C1039 1.387 . S
C1039 C1038 1.387 . S
C1039 C1040 1.372 . S
C1040 H1018 0.950 . S
C1040 C1039 1.372 . S
C1040 C1041 1.379 . S
C1041 H1019 0.948 . S
C1041 C1036 1.364 . S
C1041 C1040 1.379 . S
C1042 C1011 1.383 . S
C1042 C1029 1.479 . S
C1042 C1043 1.398 . S
C1043 C1008 1.382 . S
C1043 H1020 0.951 . S
C1043 C1042 1.398 . S
C1044 C1045 1.384 . S
C1044 H1057 0.947 . S
C1044 C1079 1.382 . S
C1045 C1044 1.384 . S
C1045 C1046 1.378 . S
C1046 C1045 1.378 . S
C1046 C1047 1.378 . S
C1046 H1058 0.952 . S
C1047 C1046 1.378 . S
C1047 H1059 0.950 . S
C1047 C1078 1.383 . S
H1048 C1067 0.947 . S
H1049 C1068 0.946 . S
H1050 C1070 0.953 . S
H1051 C1071 0.945 . S
H1052 C1073 0.952 . S
H1053 C1074 0.949 . S
H1054 C1076 0.950 . S
H1055 C1077 0.948 . S
H1056 C1079 0.951 . S
H1057 C1044 0.947 . S
H1058 C1046 0.952 . S
H1059 C1047 0.950 . S
N1060 C1063 1.382 . S
N1060 C1065 1.363 . S
N1061 C1063 1.371 . S
N1061 C1064 1.372 . S
N1062 C1064 1.361 . S
N1062 C1065 1.377 . S
C1063 N1060 1.382 . S
C1063 N1061 1.371 . S
C1063 C1066 1.480 . S
C1064 N1061 1.372 . S
C1064 N1062 1.361 . S
C1064 C1072 1.457 . S
C1065 N1060 1.363 . S
C1065 N1062 1.377 . S
C1065 C1078 1.479 . S
C1066 C1063 1.480 . S
C1066 C1067 1.383 . S
C1066 C1071 1.385 . S
C1067 H1048 0.947 . S
C1067 C1066 1.383 . S
C1067 C1068 1.388 . S
C1068 H1049 0.946 . S
C1068 C1067 1.388 . S
C1068 C1069 1.384 . S
C1069 C1068 1.384 . S
C1069 C1070 1.377 . S
C1070 H1050 0.953 . S
C1070 C1069 1.377 . S
C1070 C1071 1.369 . S
C1071 H1051 0.945 . S
C1071 C1066 1.385 . S
C1071 C1070 1.369 . S
C1072 C1064 1.457 . S
C1072 C1073 1.372 . S
C1072 C1077 1.364 . S
C1073 H1052 0.952 . S
C1073 C1072 1.372 . S
C1073 C1074 1.389 . S
C1074 H1053 0.949 . S
C1074 C1073 1.389 . S
C1074 C1075 1.387 . S
C1075 C1074 1.387 . S
C1075 C1076 1.372 . S
C1076 H1054 0.950 . S
C1076 C1075 1.372 . S
C1076 C1077 1.379 . S
C1077 H1055 0.948 . S
C1077 C1072 1.364 . S
C1077 C1076 1.379 . S
C1078 C1047 1.383 . S
C1078 C1065 1.479 . S
C1078 C1079 1.398 . S
C1079 C1044 1.382 . S
C1079 H1056 0.951 . S
C1079 C1078 1.398 . S
C1080 C1081 1.384 . S
C1080 H1093 0.947 . S
C1080 C1115 1.382 . S
C1081 C1080 1.384 . S
C1081 C1082 1.378 . S
C1082 C1081 1.378 . S
C1082 C1083 1.378 . S
C1082 H1094 0.952 . S
C1083 C1082 1.378 . S
C1083 H1095 0.950 . S
C1083 C1114 1.383 . S
H1084 C1103 0.947 . S
H1085 C1104 0.946 . S
H1086 C1106 0.953 . S
H1087 C1107 0.945 . S
H1088 C1109 0.952 . S
H1089 C1110 0.949 . S
H1090 C1112 0.950 . S
H1091 C1113 0.948 . S
H1092 C1115 0.951 . S
H1093 C1080 0.947 . S
H1094 C1082 0.952 . S
H1095 C1083 0.950 . S
N1096 C1099 1.382 . S
N1096 C1101 1.363 . S
N1097 C1099 1.371 . S
N1097 C1100 1.372 . S
N1098 C1100 1.361 . S
N1098 C1101 1.377 . S
C1099 N1096 1.382 . S
C1099 N1097 1.371 . S
C1099 C1102 1.480 . S
C1100 N1097 1.372 . S
C1100 N1098 1.361 . S
C1100 C1108 1.457 . S
C1101 N1096 1.363 . S
C1101 N1098 1.377 . S
C1101 C1114 1.479 . S
C1102 C1099 1.480 . S
C1102 C1103 1.383 . S
C1102 C1107 1.385 . S
C1103 H1084 0.947 . S
C1103 C1102 1.383 . S
C1103 C1104 1.388 . S
C1104 H1085 0.946 . S
C1104 C1103 1.388 . S
C1104 C1105 1.384 . S
C1105 C1104 1.384 . S
C1105 C1106 1.377 . S
C1106 H1086 0.953 . S
C1106 C1105 1.377 . S
C1106 C1107 1.369 . S
C1107 H1087 0.945 . S
C1107 C1102 1.385 . S
C1107 C1106 1.369 . S
C1108 C1100 1.457 . S
C1108 C1109 1.372 . S
C1108 C1113 1.364 . S
C1109 H1088 0.952 . S
C1109 C1108 1.372 . S
C1109 C1110 1.389 . S
C1110 H1089 0.949 . S
C1110 C1109 1.389 . S
C1110 C1111 1.387 . S
C1111 C1110 1.387 . S
C1111 C1112 1.372 . S
C1112 H1090 0.950 . S
C1112 C1111 1.372 . S
C1112 C1113 1.379 . S
C1113 H1091 0.948 . S
C1113 C1108 1.364 . S
C1113 C1112 1.379 . S
C1114 C1083 1.383 . S
C1114 C1101 1.479 . S
C1114 C1115 1.398 . S
C1115 C1080 1.382 . S
C1115 H1092 0.951 . S
C1115 C1114 1.398 . S
C1116 C1117 1.384 . S
C1116 H1129 0.947 . S
C1116 C1151 1.382 . S
C1117 C1116 1.384 . S
C1117 C1118 1.378 . S
C1118 C1117 1.378 . S
C1118 C1119 1.378 . S
C1118 H1130 0.952 . S
C1119 C1118 1.378 . S
C1119 H1131 0.950 . S
C1119 C1150 1.383 . S
H1120 C1139 0.947 . S
H1121 C1140 0.946 . S
H1122 C1142 0.953 . S
H1123 C1143 0.945 . S
H1124 C1145 0.952 . S
H1125 C1146 0.949 . S
H1126 C1148 0.950 . S
H1127 C1149 0.948 . S
H1128 C1151 0.951 . S
H1129 C1116 0.947 . S
H1130 C1118 0.952 . S
H1131 C1119 0.950 . S
N1132 C1135 1.382 . S
N1132 C1137 1.363 . S
N1133 C1135 1.371 . S
N1133 C1136 1.372 . S
N1134 C1136 1.361 . S
N1134 C1137 1.377 . S
C1135 N1132 1.382 . S
C1135 N1133 1.371 . S
C1135 C1138 1.480 . S
C1136 N1133 1.372 . S
C1136 N1134 1.361 . S
C1136 C1144 1.457 . S
C1137 N1132 1.363 . S
C1137 N1134 1.377 . S
C1137 C1150 1.479 . S
C1138 C1135 1.480 . S
C1138 C1139 1.383 . S
C1138 C1143 1.385 . S
C1139 H1120 0.947 . S
C1139 C1138 1.383 . S
C1139 C1140 1.388 . S
C1140 H1121 0.946 . S
C1140 C1139 1.388 . S
C1140 C1141 1.384 . S
C1141 C1140 1.384 . S
C1141 C1142 1.377 . S
C1142 H1122 0.953 . S
C1142 C1141 1.377 . S
C1142 C1143 1.369 . S
C1143 H1123 0.945 . S
C1143 C1138 1.385 . S
C1143 C1142 1.369 . S
C1144 C1136 1.457 . S
C1144 C1145 1.372 . S
C1144 C1149 1.364 . S
C1145 H1124 0.952 . S
C1145 C1144 1.372 . S
C1145 C1146 1.389 . S
C1146 H1125 0.949 . S
C1146 C1145 1.389 . S
C1146 C1147 1.387 . S
C1147 C1146 1.387 . S
C1147 C1148 1.372 . S
C1148 H1126 0.950 . S
C1148 C1147 1.372 . S
C1148 C1149 1.379 . S
C1149 H1127 0.948 . S
C1149 C1144 1.364 . S
C1149 C1148 1.379 . S
C1150 C1119 1.383 . S
C1150 C1137 1.479 . S
C1150 C1151 1.398 . S
C1151 C1116 1.382 . S
C1151 H1128 0.951 . S
C1151 C1150 1.398 . S
Cu1152 N1153 1.999 . S
Cu1152 O1158 1.974 1_554 S
Cu1152 N1163 1.985 . S
Cu1152 O1172 1.959 . S
N1153 Cu1152 1.999 . S
N1153 C1155 1.263 1_554 S
N1153 C1157 1.389 . S
N1154 C1155 1.358 . S
N1154 C1156 1.400 . S
C1155 N1153 1.263 1_556 S
C1155 N1154 1.358 . S
C1155 H1161 0.930 . S
C1156 N1154 1.400 . S
C1156 C1157 1.351 1_556 S
C1156 H1173 0.930 . S
C1157 N1153 1.389 . S
C1157 C1156 1.351 1_554 S
C1157 H1162 0.930 . S
O1158 Cu1152 1.974 1_556 S
O1158 C1168 1.282 . S
C1159 O1160 1.261 . S
C1159 O1172 1.251 . S
O1160 C1159 1.261 . S
H1161 C1155 0.930 . S
H1162 C1157 0.930 . S
N1163 Cu1152 1.985 . S
N1163 C1165 1.335 . S
N1163 C1166 1.390 . S
N1164 C1165 1.345 . S
N1164 C1167 1.336 . S
C1165 N1163 1.335 . S
C1165 N1164 1.345 . S
C1165 H1170 0.930 . S
C1166 N1163 1.390 . S
C1166 C1167 1.346 . S
C1166 H1171 0.930 . S
C1167 N1164 1.336 . S
C1167 C1166 1.346 . S
C1167 H1174 0.929 . S
C1168 O1158 1.282 . S
C1168 O1169 1.216 . S
O1169 C1168 1.216 . S
H1170 C1165 0.930 . S
H1171 C1166 0.930 . S
O1172 Cu1152 1.959 . S
O1172 C1159 1.251 . S
H1173 C1156 0.930 . S
H1174 C1167 0.929 . S
Cu1175 N1176 1.999 . S
Cu1175 O1181 1.974 . S
Cu1175 N1186 1.985 1_554 S
Cu1175 O1195 1.959 1_554 S
N1176 Cu1175 1.999 . S
N1176 C1178 1.263 . S
N1176 C1180 1.389 . S
N1177 C1178 1.358 . S
N1177 C1179 1.400 . S
C1178 N1176 1.263 . S
C1178 N1177 1.358 . S
C1178 H1184 0.930 . S
C1179 N1177 1.400 . S
C1179 C1180 1.351 . S
C1179 H1196 0.930 . S
C1180 N1176 1.389 . S
C1180 C1179 1.351 . S
C1180 H1185 0.930 . S
O1181 Cu1175 1.974 . S
O1181 C1191 1.282 . S
C1182 O1183 1.261 . S
C1182 O1195 1.251 . S
O1183 C1182 1.261 . S
H1184 C1178 0.930 . S
H1185 C1180 0.930 . S
N1186 Cu1175 1.985 1_556 S
N1186 C1188 1.335 . S
N1186 C1189 1.390 . S
N1187 C1188 1.345 . S
N1187 C1190 1.336 . S
C1188 N1186 1.335 . S
C1188 N1187 1.345 . S
C1188 H1193 0.930 . S
C1189 N1186 1.390 . S
C1189 C1190 1.346 . S
C1189 H1194 0.930 1_556 S
C1190 N1187 1.336 . S
C1190 C1189 1.346 . S
C1190 H1197 0.929 . S
C1191 O1181 1.282 . S
C1191 O1192 1.216 . S
O1192 C1191 1.216 . S
H1193 C1188 0.930 . S
H1194 C1189 0.930 1_554 S
O1195 Cu1175 1.959 1_556 S
O1195 C1182 1.251 . S
H1196 C1179 0.930 . S
H1197 C1190 0.929 . S
Cu1198 N1199 1.999 1_554 S
Cu1198 O1204 1.974 1_554 S
Cu1198 N1209 1.985 . S
Cu1198 O1218 1.959 . S
N1199 Cu1198 1.999 1_556 S
N1199 C1201 1.263 . S
N1199 C1203 1.389 . S
N1200 C1201 1.358 . S
N1200 C1202 1.400 . S
C1201 N1199 1.263 . S
C1201 N1200 1.358 . S
C1201 H1207 0.930 . S
C1202 N1200 1.400 . S
C1202 C1203 1.351 . S
C1202 H1219 0.930 . S
C1203 N1199 1.389 . S
C1203 C1202 1.351 . S
C1203 H1208 0.962 . S
O1204 Cu1198 1.974 1_556 S
O1204 C1214 1.282 . S
C1205 O1206 1.261 . S
C1205 O1218 1.251 . S
O1206 C1205 1.261 . S
H1207 C1201 0.930 . S
H1208 C1203 0.962 . S
N1209 Cu1198 1.985 . S
N1209 C1211 1.335 . S
N1209 C1212 1.390 . S
N1210 C1211 1.345 . S
N1210 C1213 1.336 . S
C1211 N1209 1.335 . S
C1211 N1210 1.345 . S
C1211 H1216 0.930 . S
C1212 N1209 1.390 . S
C1212 C1213 1.346 . S
C1212 H1217 0.937 . S
C1213 N1210 1.336 . S
C1213 C1212 1.346 . S
C1213 H1220 0.929 . S
C1214 O1204 1.282 . S
C1214 O1215 1.216 . S
O1215 C1214 1.216 . S
H1216 C1211 0.930 . S
H1217 C1212 0.937 . S
O1218 Cu1198 1.959 . S
O1218 C1205 1.251 . S
H1219 C1202 0.930 . S
H1220 C1213 0.929 . S
Cu1221 N1222 2.005 . S
Cu1221 O1227 1.980 . S
Cu1221 N1232 1.980 1_554 S
Cu1221 O1241 1.953 1_554 S
N1222 Cu1221 2.005 . S
N1222 C1224 1.263 . S
N1222 C1226 1.389 . S
N1223 C1224 1.358 . S
N1223 C1225 1.400 . S
C1224 N1222 1.263 . S
C1224 N1223 1.358 . S
C1224 H1230 0.930 . S
C1225 N1223 1.400 . S
C1225 C1226 1.351 . S
C1225 H1242 0.930 . S
C1226 N1222 1.389 . S
C1226 C1225 1.351 . S
C1226 H1231 0.930 . S
O1227 Cu1221 1.980 . S
O1227 C1237 1.282 . S
C1228 O1229 1.261 . S
C1228 O1241 1.251 . S
O1229 C1228 1.261 . S
H1230 C1224 0.930 . S
H1231 C1226 0.930 . S
N1232 Cu1221 1.980 1_556 S
N1232 C1234 1.335 . S
N1232 C1235 1.390 . S
N1233 C1234 1.345 . S
N1233 C1236 1.336 . S
C1234 N1232 1.335 . S
C1234 N1233 1.345 . S
C1234 H1239 0.930 . S
C1235 N1232 1.390 . S
C1235 C1236 1.346 . S
C1235 H1240 0.877 1_556 S
C1236 N1233 1.336 . S
C1236 C1235 1.346 . S
C1236 H1243 0.929 . S
C1237 O1227 1.282 . S
C1237 O1238 1.216 . S
O1238 C1237 1.216 . S
H1239 C1234 0.930 . S
H1240 C1235 0.877 1_554 S
O1241 Cu1221 1.953 1_556 S
O1241 C1228 1.251 . S
H1242 C1225 0.930 . S
H1243 C1236 0.929 . S
Cu1244 N1245 1.999 . S
Cu1244 O1250 1.974 . S
Cu1244 N1255 1.985 1_455 S
Cu1244 O1264 1.959 1_455 S
N1245 Cu1244 1.999 . S
N1245 C1247 1.263 . S
N1245 C1249 1.389 . S
N1246 C1247 1.358 . S
N1246 C1248 1.400 . S
C1247 N1245 1.263 . S
C1247 N1246 1.358 . S
C1247 H1253 0.930 . S
C1248 N1246 1.400 . S
C1248 C1249 1.351 . S
C1248 H1265 0.930 . S
C1249 N1245 1.389 . S
C1249 C1248 1.351 . S
C1249 H1254 0.930 . S
O1250 Cu1244 1.974 . S
O1250 C1260 1.282 . S
C1251 O1252 1.261 . S
C1251 O1264 1.251 . S
O1252 C1251 1.261 . S
H1253 C1247 0.930 . S
H1254 C1249 0.930 . S
N1255 Cu1244 1.985 1_655 S
N1255 C1257 1.335 . S
N1255 C1258 1.390 1_655 S
N1256 C1257 1.345 . S
N1256 C1259 1.336 . S
C1257 N1255 1.335 . S
C1257 N1256 1.345 . S
C1257 H1262 0.930 . S
C1258 N1255 1.390 1_455 S
C1258 C1259 1.346 1_455 S
C1258 H1263 0.930 . S
C1259 N1256 1.336 . S
C1259 C1258 1.346 1_655 S
C1259 H1266 0.929 . S
C1260 O1250 1.282 . S
C1260 O1261 1.216 . S
O1261 C1260 1.216 . S
H1262 C1257 0.930 . S
H1263 C1258 0.930 . S
O1264 Cu1244 1.959 1_655 S
O1264 C1251 1.251 . S
H1265 C1248 0.930 . S
H1266 C1259 0.929 . S
Cu1267 N1268 1.999 . S
Cu1267 O1273 1.974 . S
Cu1267 N1278 1.985 1_545 S
Cu1267 O1287 1.959 1_545 S
N1268 Cu1267 1.999 . S
N1268 C1270 1.263 . S
N1268 C1272 1.389 . S
N1269 C1270 1.358 . S
N1269 C1271 1.400 . S
C1270 N1268 1.263 . S
C1270 N1269 1.358 . S
C1270 H1276 0.930 . S
C1271 N1269 1.400 . S
C1271 C1272 1.351 . S
C1271 H1288 0.930 . S
C1272 N1268 1.389 . S
C1272 C1271 1.351 . S
C1272 H1277 0.930 . S
O1273 Cu1267 1.974 . S
O1273 C1283 1.282 . S
C1274 O1275 1.261 . S
C1274 O1287 1.251 . S
O1275 C1274 1.261 . S
H1276 C1270 0.930 . S
H1277 C1272 0.930 . S
N1278 Cu1267 1.985 1_565 S
N1278 C1280 1.335 . S
N1278 C1281 1.390 . S
N1279 C1280 1.345 . S
N1279 C1282 1.336 . S
C1280 N1278 1.335 . S
C1280 N1279 1.345 . S
C1280 H1285 0.930 . S
C1281 N1278 1.390 . S
C1281 C1282 1.346 . S
C1281 H1286 0.930 1_565 S
C1282 N1279 1.336 . S
C1282 C1281 1.346 . S
C1282 H1289 0.929 . S
C1283 O1273 1.282 . S
C1283 O1284 1.216 . S
O1284 C1283 1.216 . S
H1285 C1280 0.930 . S
H1286 C1281 0.930 1_545 S
O1287 Cu1267 1.959 1_565 S
O1287 C1274 1.251 . S
H1288 C1271 0.930 . S
H1289 C1282 0.929 . S
Cu1290 N1291 2.001 . S
Cu1290 O1296 1.975 . S
Cu1290 N1301 1.984 1_655 S
Cu1290 O1310 1.958 1_655 S
N1291 Cu1290 2.001 . S
N1291 C1293 1.263 . S
N1291 C1295 1.389 . S
N1292 C1293 1.358 . S
N1292 C1294 1.400 . S
C1293 N1291 1.263 . S
C1293 N1292 1.358 . S
C1293 H1299 0.930 . S
C1294 N1292 1.400 . S
C1294 C1295 1.351 . S
C1294 H1311 0.930 . S
C1295 N1291 1.389 . S
C1295 C1294 1.351 . S
C1295 H1300 0.930 . S
O1296 Cu1290 1.975 . S
O1296 C1306 1.282 . S
C1297 O1298 1.261 . S
C1297 O1310 1.251 . S
O1298 C1297 1.261 . S
H1299 C1293 0.930 . S
H1300 C1295 0.930 . S
N1301 Cu1290 1.984 1_455 S
N1301 C1303 1.335 . S
N1301 C1304 1.390 . S
N1302 C1303 1.345 . S
N1302 C1305 1.336 . S
C1303 N1301 1.335 . S
C1303 N1302 1.345 . S
C1303 H1308 0.930 . S
C1304 N1301 1.390 . S
C1304 C1305 1.346 . S
C1304 H1309 0.930 . S
C1305 N1302 1.336 . S
C1305 C1304 1.346 . S
C1305 H1312 0.929 . S
C1306 O1296 1.282 . S
C1306 O1307 1.216 . S
O1307 C1306 1.216 . S
H1308 C1303 0.930 . S
H1309 C1304 0.930 . S
O1310 Cu1290 1.958 1_455 S
O1310 C1297 1.251 . S
H1311 C1294 0.930 . S
H1312 C1305 0.929 . S
Cu1313 N1314 1.984 1_565 S
Cu1313 O1319 1.955 1_565 S
Cu1313 N1324 1.999 . S
Cu1313 O1333 1.978 . S
N1314 Cu1313 1.984 1_545 S
N1314 C1316 1.263 . S
N1314 C1318 1.389 . S
N1315 C1316 1.358 . S
N1315 C1317 1.400 . S
C1316 N1314 1.263 . S
C1316 N1315 1.358 . S
C1316 H1322 0.930 . S
C1317 N1315 1.400 . S
C1317 C1318 1.351 . S
C1317 H1334 0.930 . S
C1318 N1314 1.389 . S
C1318 C1317 1.351 . S
C1318 H1323 0.930 . S
O1319 Cu1313 1.955 1_545 S
O1319 C1329 1.282 . S
C1320 O1321 1.261 . S
C1320 O1333 1.251 . S
O1321 C1320 1.261 . S
H1322 C1316 0.930 . S
H1323 C1318 0.930 . S
N1324 Cu1313 1.999 . S
N1324 C1326 1.335 . S
N1324 C1327 1.390 . S
N1325 C1326 1.345 . S
N1325 C1328 1.336 . S
C1326 N1324 1.335 . S
C1326 N1325 1.345 . S
C1326 H1331 0.930 . S
C1327 N1324 1.390 . S
C1327 C1328 1.346 . S
C1327 H1332 0.930 . S
C1328 N1325 1.336 . S
C1328 C1327 1.346 . S
C1328 H1335 0.929 . S
C1329 O1319 1.282 . S
C1329 O1330 1.216 . S
O1330 C1329 1.216 . S
H1331 C1326 0.930 . S
H1332 C1327 0.930 . S
O1333 Cu1313 1.978 . S
O1333 C1320 1.251 . S
H1334 C1317 0.930 . S
H1335 C1328 0.929 . S
Cu1336 N1337 1.999 . S
Cu1336 O1342 1.974 . S
Cu1336 N1347 1.985 1_455 S
Cu1336 O1356 1.959 1_455 S
N1337 Cu1336 1.999 . S
N1337 C1339 1.263 . S
N1337 C1341 1.389 . S
N1338 C1339 1.358 . S
N1338 C1340 1.400 . S
C1339 N1337 1.263 . S
C1339 N1338 1.358 . S
C1339 H1345 0.930 . S
C1340 N1338 1.400 . S
C1340 C1341 1.351 . S
C1340 H1357 0.930 . S
C1341 N1337 1.389 . S
C1341 C1340 1.351 . S
C1341 H1346 0.930 . S
O1342 Cu1336 1.974 . S
O1342 C1352 1.282 . S
C1343 O1344 1.261 . S
C1343 O1356 1.251 . S
O1344 C1343 1.261 . S
H1345 C1339 0.930 . S
H1346 C1341 0.930 . S
N1347 Cu1336 1.985 1_655 S
N1347 C1349 1.335 . S
N1347 C1350 1.387 1_655 S
N1348 C1349 1.345 . S
N1348 C1351 1.336 . S
C1349 N1347 1.335 . S
C1349 N1348 1.345 . S
C1349 H1354 0.930 . S
C1350 N1347 1.387 1_455 S
C1350 C1351 1.330 1_455 S
C1350 H1355 0.947 . S
C1351 N1348 1.336 . S
C1351 C1350 1.330 1_655 S
C1351 H1358 0.929 . S
C1352 O1342 1.282 . S
C1352 O1353 1.216 . S
O1353 C1352 1.216 . S
H1354 C1349 0.930 . S
H1355 C1350 0.947 . S
O1356 Cu1336 1.959 1_655 S
O1356 C1343 1.251 . S
H1357 C1340 0.930 . S
H1358 C1351 0.929 . S
Cu1359 N1360 1.999 . S
Cu1359 O1365 1.974 . S
Cu1359 N1370 1.985 1_545 S
Cu1359 O1379 1.959 1_545 S
N1360 Cu1359 1.999 . S
N1360 C1362 1.263 . S
N1360 C1364 1.389 . S
N1361 C1362 1.358 . S
N1361 C1363 1.400 . S
C1362 N1360 1.263 . S
C1362 N1361 1.358 . S
C1362 H1368 0.930 . S
C1363 N1361 1.400 . S
C1363 C1364 1.351 . S
C1363 H1380 0.930 . S
C1364 N1360 1.389 . S
C1364 C1363 1.351 . S
C1364 H1369 0.930 . S
O1365 Cu1359 1.974 . S
O1365 C1375 1.282 . S
C1366 O1367 1.261 . S
C1366 O1379 1.251 . S
O1367 C1366 1.261 . S
H1368 C1362 0.930 . S
H1369 C1364 0.930 . S
N1370 Cu1359 1.985 1_565 S
N1370 C1372 1.335 . S
N1370 C1373 1.390 1_565 S
N1371 C1372 1.345 . S
N1371 C1374 1.336 . S
C1372 N1370 1.335 . S
C1372 N1371 1.345 . S
C1372 H1377 0.930 . S
C1373 N1370 1.390 1_545 S
C1373 C1374 1.346 1_545 S
C1373 H1378 0.930 . S
C1374 N1371 1.336 . S
C1374 C1373 1.346 1_565 S
C1374 H1381 0.929 . S
C1375 O1365 1.282 . S
C1375 O1376 1.216 . S
O1376 C1375 1.216 . S
H1377 C1372 0.930 . S
H1378 C1373 0.930 . S
O1379 Cu1359 1.959 1_565 S
O1379 C1366 1.251 . S
H1380 C1363 0.930 . S
H1381 C1374 0.929 . S
Cu1382 N1383 1.999 . S
Cu1382 O1388 1.974 . S
Cu1382 N1393 1.985 . S
Cu1382 O1402 1.959 . S
N1383 Cu1382 1.999 . S
N1383 C1385 1.263 1_455 S
N1383 C1387 1.389 . S
N1384 C1385 1.358 . S
N1384 C1386 1.400 . S
C1385 N1383 1.263 1_655 S
C1385 N1384 1.358 . S
C1385 H1391 0.930 . S
C1386 N1384 1.400 . S
C1386 C1387 1.351 1_655 S
C1386 H1403 0.930 . S
C1387 N1383 1.389 . S
C1387 C1386 1.351 1_455 S
C1387 H1392 0.930 . S
O1388 Cu1382 1.974 . S
O1388 C1398 1.282 1_455 S
C1389 O1390 1.261 . S
C1389 O1402 1.251 . S
O1390 C1389 1.261 . S
H1391 C1385 0.930 . S
H1392 C1387 0.930 . S
N1393 Cu1382 1.985 . S
N1393 C1395 1.335 . S
N1393 C1396 1.390 . S
N1394 C1395 1.345 . S
N1394 C1397 1.336 . S
C1395 N1393 1.335 . S
C1395 N1394 1.345 . S
C1395 H1400 0.930 . S
C1396 N1393 1.390 . S
C1396 C1397 1.346 . S
C1396 H1401 0.930 . S
C1397 N1394 1.336 . S
C1397 C1396 1.346 . S
C1397 H1404 0.929 . S
C1398 O1388 1.282 1_655 S
C1398 O1399 1.216 1_655 S
O1399 C1398 1.216 1_455 S
H1400 C1395 0.930 . S
H1401 C1396 0.930 . S
O1402 Cu1382 1.959 . S
O1402 C1389 1.251 . S
H1403 C1386 0.930 . S
H1404 C1397 0.929 . S
Cu1405 N1406 1.999 . S
Cu1405 O1411 1.974 . S
Cu1405 N1416 1.985 . S
Cu1405 O1425 1.959 1_545 S
N1406 Cu1405 1.999 . S
N1406 C1408 1.263 . S
N1406 C1410 1.389 . S
N1407 C1408 1.358 . S
N1407 C1409 1.400 . S
C1408 N1406 1.263 . S
C1408 N1407 1.358 . S
C1408 H1414 0.930 . S
C1409 N1407 1.400 . S
C1409 C1410 1.351 . S
C1409 H1426 0.930 . S
C1410 N1406 1.389 . S
C1410 C1409 1.351 . S
C1410 H1415 0.930 . S
O1411 Cu1405 1.974 . S
O1411 C1421 1.282 . S
C1412 O1413 1.246 1_565 S
C1412 O1425 1.251 . S
O1413 C1412 1.246 1_545 S
H1414 C1408 0.930 . S
H1415 C1410 0.930 . S
N1416 Cu1405 1.985 . S
N1416 C1418 1.335 1_545 S
N1416 C1419 1.390 . S
N1417 C1418 1.345 . S
N1417 C1420 1.336 . S
C1418 N1416 1.335 1_565 S
C1418 N1417 1.345 . S
C1418 H1423 0.930 . S
C1419 N1416 1.390 . S
C1419 C1420 1.346 1_545 S
C1419 H1424 0.930 . S
C1420 N1417 1.336 . S
C1420 C1419 1.346 1_565 S
C1420 H1427 0.929 . S
C1421 O1411 1.282 . S
C1421 O1422 1.216 . S
O1422 C1421 1.216 . S
H1423 C1418 0.930 . S
H1424 C1419 0.930 . S
O1425 Cu1405 1.959 1_565 S
O1425 C1412 1.251 . S
H1426 C1409 0.930 . S
H1427 C1420 0.929 . S
Cu1428 N1429 1.999 . S
Cu1428 O1434 1.974 . S
Cu1428 N1439 1.985 . S
Cu1428 O1448 1.959 . S
N1429 Cu1428 1.999 . S
N1429 C1431 1.263 . S
N1429 C1433 1.389 . S
N1430 C1431 1.358 . S
N1430 C1432 1.400 . S
C1431 N1429 1.263 . S
C1431 N1430 1.358 . S
C1431 H1437 0.930 . S
C1432 N1430 1.400 . S
C1432 C1433 1.351 . S
C1432 H1449 0.930 . S
C1433 N1429 1.389 . S
C1433 C1432 1.351 . S
C1433 H1438 0.930 . S
O1434 Cu1428 1.974 . S
O1434 C1444 1.282 . S
C1435 O1436 1.261 . S
C1435 O1448 1.251 . S
O1436 C1435 1.261 . S
H1437 C1431 0.930 . S
H1438 C1433 0.930 . S
N1439 Cu1428 1.985 . S
N1439 C1441 1.335 . S
N1439 C1442 1.390 . S
N1440 C1441 1.345 . S
N1440 C1443 1.336 . S
C1441 N1439 1.335 . S
C1441 N1440 1.345 . S
C1441 H1446 0.930 . S
C1442 N1439 1.390 . S
C1442 C1443 1.346 . S
C1442 H1447 0.930 . S
C1443 N1440 1.336 . S
C1443 C1442 1.346 . S
C1443 H1450 0.929 . S
C1444 O1434 1.282 . S
C1444 O1445 1.216 . S
O1445 C1444 1.216 . S
H1446 C1441 0.930 . S
H1447 C1442 0.930 . S
O1448 Cu1428 1.959 . S
O1448 C1435 1.251 . S
H1449 C1432 0.930 . S
H1450 C1443 0.929 . S
Cu1451 N1452 1.999 . S
Cu1451 O1457 1.974 . S
Cu1451 N1462 1.985 . S
Cu1451 O1471 1.959 . S
N1452 Cu1451 1.999 . S
N1452 C1454 1.263 . S
N1452 C1456 1.389 . S
N1453 C1454 1.358 . S
N1453 C1455 1.400 . S
C1454 N1452 1.263 . S
C1454 N1453 1.358 . S
C1454 H1460 0.930 . S
C1455 N1453 1.400 . S
C1455 C1456 1.351 . S
C1455 H1472 0.930 . S
C1456 N1452 1.389 . S
C1456 C1455 1.351 . S
C1456 H1461 0.930 . S
O1457 Cu1451 1.974 . S
O1457 C1467 1.282 . S
C1458 O1459 1.261 . S
C1458 O1471 1.251 . S
O1459 C1458 1.261 . S
H1460 C1454 0.930 . S
H1461 C1456 0.930 . S
N1462 Cu1451 1.985 . S
N1462 C1464 1.335 . S
N1462 C1465 1.390 . S
N1463 C1464 1.345 . S
N1463 C1466 1.336 . S
C1464 N1462 1.335 . S
C1464 N1463 1.345 . S
C1464 H1469 0.930 . S
C1465 N1462 1.390 . S
C1465 C1466 1.346 . S
C1465 H1470 0.930 . S
C1466 N1463 1.336 . S
C1466 C1465 1.346 . S
C1466 H1473 0.929 . S
C1467 O1457 1.282 . S
C1467 O1468 1.216 . S
O1468 C1467 1.216 . S
H1469 C1464 0.930 . S
H1470 C1465 0.930 . S
O1471 Cu1451 1.959 . S
O1471 C1458 1.251 . S
H1472 C1455 0.930 . S
H1473 C1466 0.929 . S
Cu1474 N1475 1.999 . S
Cu1474 O1480 1.974 . S
Cu1474 N1485 1.985 . S
Cu1474 O1494 1.959 . S
N1475 Cu1474 1.999 . S
N1475 C1477 1.263 . S
N1475 C1479 1.389 . S
N1476 C1477 1.358 . S
N1476 C1478 1.400 . S
C1477 N1475 1.263 . S
C1477 N1476 1.358 . S
C1477 H1483 0.930 . S
C1478 N1476 1.400 . S
C1478 C1479 1.351 . S
C1478 H1495 0.930 . S
C1479 N1475 1.389 . S
C1479 C1478 1.351 . S
C1479 H1484 0.930 . S
O1480 Cu1474 1.974 . S
O1480 C1490 1.282 . S
C1481 O1482 1.261 . S
C1481 O1494 1.251 . S
O1482 C1481 1.261 . S
H1483 C1477 0.930 . S
H1484 C1479 0.930 . S
N1485 Cu1474 1.985 . S
N1485 C1487 1.335 . S
N1485 C1488 1.390 . S
N1486 C1487 1.345 . S
N1486 C1489 1.336 . S
C1487 N1485 1.335 . S
C1487 N1486 1.345 . S
C1487 H1492 0.930 . S
C1488 N1485 1.390 . S
C1488 C1489 1.346 . S
C1488 H1493 0.930 . S
C1489 N1486 1.336 . S
C1489 C1488 1.346 . S
C1489 H1496 0.929 . S
C1490 O1480 1.282 . S
C1490 O1491 1.216 . S
O1491 C1490 1.216 . S
H1492 C1487 0.930 . S
H1493 C1488 0.930 . S
O1494 Cu1474 1.959 . S
O1494 C1481 1.251 . S
H1495 C1478 0.930 . S
H1496 C1489 0.929 . S
Cu1497 N1498 1.999 . S
Cu1497 O1503 1.974 . S
Cu1497 N1508 1.985 . S
Cu1497 O1517 1.959 . S
N1498 Cu1497 1.999 . S
N1498 C1500 1.263 . S
N1498 C1502 1.389 . S
N1499 C1500 1.358 . S
N1499 C1501 1.400 . S
C1500 N1498 1.263 . S
C1500 N1499 1.358 . S
C1500 H1506 0.930 . S
C1501 N1499 1.400 . S
C1501 C1502 1.351 . S
C1501 H1518 0.930 . S
C1502 N1498 1.389 . S
C1502 C1501 1.351 . S
C1502 H1507 0.930 . S
O1503 Cu1497 1.974 . S
O1503 C1513 1.282 . S
C1504 O1505 1.261 . S
C1504 O1517 1.251 . S
O1505 C1504 1.261 . S
H1506 C1500 0.930 . S
H1507 C1502 0.930 . S
N1508 Cu1497 1.985 . S
N1508 C1510 1.335 . S
N1508 C1511 1.390 . S
N1509 C1510 1.345 . S
N1509 C1512 1.336 . S
C1510 N1508 1.335 . S
C1510 N1509 1.345 . S
C1510 H1515 0.930 . S
C1511 N1508 1.390 . S
C1511 C1512 1.346 . S
C1511 H1516 0.930 . S
C1512 N1509 1.336 . S
C1512 C1511 1.346 . S
C1512 H1519 0.929 . S
C1513 O1503 1.282 . S
C1513 O1514 1.216 . S
O1514 C1513 1.216 . S
H1515 C1510 0.930 . S
H1516 C1511 0.930 . S
O1517 Cu1497 1.959 . S
O1517 C1504 1.251 . S
H1518 C1501 0.930 . S
H1519 C1512 0.929 . S
Cu1520 N1521 1.999 . S
Cu1520 O1526 1.974 . S
Cu1520 N1531 1.985 . S
Cu1520 O1540 1.959 . S
N1521 Cu1520 1.999 . S
N1521 C1523 1.263 . S
N1521 C1525 1.389 . S
N1522 C1523 1.358 . S
N1522 C1524 1.400 . S
C1523 N1521 1.263 . S
C1523 N1522 1.358 . S
C1523 H1529 0.930 . S
C1524 N1522 1.400 . S
C1524 C1525 1.351 . S
C1524 H1541 0.930 . S
C1525 N1521 1.389 . S
C1525 C1524 1.351 . S
C1525 H1530 0.930 . S
O1526 Cu1520 1.974 . S
O1526 C1536 1.282 . S
C1527 O1528 1.261 . S
C1527 O1540 1.251 . S
O1528 C1527 1.261 . S
H1529 C1523 0.930 . S
H1530 C1525 0.930 . S
N1531 Cu1520 1.985 . S
N1531 C1533 1.335 . S
N1531 C1534 1.390 . S
N1532 C1533 1.345 . S
N1532 C1535 1.336 . S
C1533 N1531 1.335 . S
C1533 N1532 1.345 . S
C1533 H1538 0.930 . S
C1534 N1531 1.390 . S
C1534 C1535 1.346 . S
C1534 H1539 0.930 . S
C1535 N1532 1.336 . S
C1535 C1534 1.346 . S
C1535 H1542 0.929 . S
C1536 O1526 1.282 . S
C1536 O1537 1.216 . S
O1537 C1536 1.216 . S
H1538 C1533 0.930 . S
H1539 C1534 0.930 . S
O1540 Cu1520 1.959 . S
O1540 C1527 1.251 . S
H1541 C1524 0.930 . S
H1542 C1535 0.929 . S
Cu1543 N1544 1.999 . S
Cu1543 O1549 1.974 . S
Cu1543 N1554 1.985 . S
Cu1543 O1563 1.959 . S
N1544 Cu1543 1.999 . S
N1544 C1546 1.263 . S
N1544 C1548 1.389 . S
N1545 C1546 1.358 . S
N1545 C1547 1.400 . S
C1546 N1544 1.263 . S
C1546 N1545 1.358 . S
C1546 H1552 0.930 . S
C1547 N1545 1.400 . S
C1547 C1548 1.351 . S
C1547 H1564 0.930 . S
C1548 N1544 1.389 . S
C1548 C1547 1.351 . S
C1548 H1553 0.930 . S
O1549 Cu1543 1.974 . S
O1549 C1559 1.282 . S
C1550 O1551 1.261 . S
C1550 O1563 1.251 . S
O1551 C1550 1.261 . S
H1552 C1546 0.930 . S
H1553 C1548 0.930 . S
N1554 Cu1543 1.985 . S
N1554 C1556 1.335 . S
N1554 C1557 1.390 . S
N1555 C1556 1.345 . S
N1555 C1558 1.336 . S
C1556 N1554 1.335 . S
C1556 N1555 1.345 . S
C1556 H1561 0.930 . S
C1557 N1554 1.390 . S
C1557 C1558 1.346 . S
C1557 H1562 0.930 . S
C1558 N1555 1.336 . S
C1558 C1557 1.346 . S
C1558 H1565 0.929 . S
C1559 O1549 1.282 . S
C1559 O1560 1.216 . S
O1560 C1559 1.216 . S
H1561 C1556 0.930 . S
H1562 C1557 0.930 . S
O1563 Cu1543 1.959 . S
O1563 C1550 1.251 . S
H1564 C1547 0.930 . S
H1565 C1558 0.929 . S
Cu1566 N1567 1.999 . S
Cu1566 O1572 1.974 . S
Cu1566 N1577 1.985 . S
Cu1566 O1586 1.959 . S
N1567 Cu1566 1.999 . S
N1567 C1569 1.263 . S
N1567 C1571 1.389 . S
N1568 C1569 1.358 . S
N1568 C1570 1.400 . S
C1569 N1567 1.263 . S
C1569 N1568 1.358 . S
C1569 H1575 0.930 . S
C1570 N1568 1.400 . S
C1570 C1571 1.351 . S
C1570 H1587 0.930 . S
C1571 N1567 1.389 . S
C1571 C1570 1.351 . S
C1571 H1576 0.930 . S
O1572 Cu1566 1.974 . S
O1572 C1582 1.282 . S
C1573 O1574 1.261 . S
C1573 O1586 1.251 . S
O1574 C1573 1.261 . S
H1575 C1569 0.930 . S
H1576 C1571 0.930 . S
N1577 Cu1566 1.985 . S
N1577 C1579 1.335 . S
N1577 C1580 1.390 . S
N1578 C1579 1.345 . S
N1578 C1581 1.336 . S
C1579 N1577 1.335 . S
C1579 N1578 1.345 . S
C1579 H1584 0.930 . S
C1580 N1577 1.390 . S
C1580 C1581 1.346 . S
C1580 H1585 0.930 . S
C1581 N1578 1.336 . S
C1581 C1580 1.346 . S
C1581 H1588 0.929 . S
C1582 O1572 1.282 . S
C1582 O1583 1.216 . S
O1583 C1582 1.216 . S
H1584 C1579 0.930 . S
H1585 C1580 0.930 . S
O1586 Cu1566 1.959 . S
O1586 C1573 1.251 . S
H1587 C1570 0.930 . S
H1588 C1581 0.929 . S
Cu1589 N1590 1.999 . S
Cu1589 O1595 1.974 . S
Cu1589 N1600 1.985 . S
Cu1589 O1609 1.959 . S
N1590 Cu1589 1.999 . S
N1590 C1592 1.263 . S
N1590 C1594 1.389 . S
N1591 C1592 1.358 . S
N1591 C1593 1.400 . S
C1592 N1590 1.263 . S
C1592 N1591 1.358 . S
C1592 H1598 0.930 . S
C1593 N1591 1.400 . S
C1593 C1594 1.351 . S
C1593 H1610 0.930 . S
C1594 N1590 1.389 . S
C1594 C1593 1.351 . S
C1594 H1599 0.930 . S
O1595 Cu1589 1.974 . S
O1595 C1605 1.282 . S
C1596 O1597 1.261 . S
C1596 O1609 1.251 . S
O1597 C1596 1.261 . S
H1598 C1592 0.930 . S
H1599 C1594 0.930 . S
N1600 Cu1589 1.985 . S
N1600 C1602 1.335 . S
N1600 C1603 1.390 . S
N1601 C1602 1.345 . S
N1601 C1604 1.336 . S
C1602 N1600 1.335 . S
C1602 N1601 1.345 . S
C1602 H1607 0.930 . S
C1603 N1600 1.390 . S
C1603 C1604 1.346 . S
C1603 H1608 0.930 . S
C1604 N1601 1.336 . S
C1604 C1603 1.346 . S
C1604 H1611 0.929 . S
C1605 O1595 1.282 . S
C1605 O1606 1.216 . S
O1606 C1605 1.216 . S
H1607 C1602 0.930 . S
H1608 C1603 0.930 . S
O1609 Cu1589 1.959 . S
O1609 C1596 1.251 . S
H1610 C1593 0.930 . S
H1611 C1604 0.929 . S
Cu1612 N1613 1.999 . S
Cu1612 O1618 1.974 . S
Cu1612 N1623 1.985 . S
Cu1612 O1632 1.959 . S
N1613 Cu1612 1.999 . S
N1613 C1615 1.263 . S
N1613 C1617 1.389 . S
N1614 C1615 1.358 . S
N1614 C1616 1.400 . S
C1615 N1613 1.263 . S
C1615 N1614 1.358 . S
C1615 H1621 0.930 . S
C1616 N1614 1.400 . S
C1616 C1617 1.351 . S
C1616 H1633 0.930 . S
C1617 N1613 1.389 . S
C1617 C1616 1.351 . S
C1617 H1622 0.930 . S
O1618 Cu1612 1.974 . S
O1618 C1628 1.282 . S
C1619 O1620 1.261 . S
C1619 O1632 1.251 . S
O1620 C1619 1.261 . S
H1621 C1615 0.930 . S
H1622 C1617 0.930 . S
N1623 Cu1612 1.985 . S
N1623 C1625 1.335 . S
N1623 C1626 1.390 . S
N1624 C1625 1.345 . S
N1624 C1627 1.336 . S
C1625 N1623 1.335 . S
C1625 N1624 1.345 . S
C1625 H1630 0.930 . S
C1626 N1623 1.390 . S
C1626 C1627 1.346 . S
C1626 H1631 0.930 . S
C1627 N1624 1.336 . S
C1627 C1626 1.346 . S
C1627 H1634 0.929 . S
C1628 O1618 1.282 . S
C1628 O1629 1.216 . S
O1629 C1628 1.216 . S
H1630 C1625 0.930 . S
H1631 C1626 0.930 . S
O1632 Cu1612 1.959 . S
O1632 C1619 1.251 . S
H1633 C1616 0.930 . S
H1634 C1627 0.929 . S
Cu1635 N1636 1.999 . S
Cu1635 O1641 1.974 . S
Cu1635 N1646 1.985 . S
Cu1635 O1655 1.959 . S
N1636 Cu1635 1.999 . S
N1636 C1638 1.263 . S
N1636 C1640 1.389 . S
N1637 C1638 1.358 . S
N1637 C1639 1.400 . S
C1638 N1636 1.263 . S
C1638 N1637 1.358 . S
C1638 H1644 0.930 . S
C1639 N1637 1.400 . S
C1639 C1640 1.351 . S
C1639 H1656 0.930 . S
C1640 N1636 1.389 . S
C1640 C1639 1.351 . S
C1640 H1645 0.930 . S
O1641 Cu1635 1.974 . S
O1641 C1651 1.282 . S
C1642 O1643 1.261 . S
C1642 O1655 1.251 . S
O1643 C1642 1.261 . S
H1644 C1638 0.930 . S
H1645 C1640 0.930 . S
N1646 Cu1635 1.985 . S
N1646 C1648 1.335 . S
N1646 C1649 1.390 . S
N1647 C1648 1.345 . S
N1647 C1650 1.336 . S
C1648 N1646 1.335 . S
C1648 N1647 1.345 . S
C1648 H1653 0.930 . S
C1649 N1646 1.390 . S
C1649 C1650 1.346 . S
C1649 H1654 0.930 . S
C1650 N1647 1.336 . S
C1650 C1649 1.346 . S
C1650 H1657 0.929 . S
C1651 O1641 1.282 . S
C1651 O1652 1.216 . S
O1652 C1651 1.216 . S
H1653 C1648 0.930 . S
H1654 C1649 0.930 . S
O1655 Cu1635 1.959 . S
O1655 C1642 1.251 . S
H1656 C1639 0.930 . S
H1657 C1650 0.929 . S
Cu1658 N1659 1.999 . S
Cu1658 O1664 1.974 . S
Cu1658 N1669 1.985 . S
Cu1658 O1678 1.959 . S
N1659 Cu1658 1.999 . S
N1659 C1661 1.263 . S
N1659 C1663 1.389 . S
N1660 C1661 1.358 . S
N1660 C1662 1.400 . S
C1661 N1659 1.263 . S
C1661 N1660 1.358 . S
C1661 H1667 0.930 . S
C1662 N1660 1.400 . S
C1662 C1663 1.351 . S
C1662 H1679 0.930 . S
C1663 N1659 1.389 . S
C1663 C1662 1.351 . S
C1663 H1668 0.930 . S
O1664 Cu1658 1.974 . S
O1664 C1674 1.282 . S
C1665 O1666 1.261 . S
C1665 O1678 1.251 . S
O1666 C1665 1.261 . S
H1667 C1661 0.930 . S
H1668 C1663 0.930 . S
N1669 Cu1658 1.985 . S
N1669 C1671 1.335 . S
N1669 C1672 1.390 . S
N1670 C1671 1.345 . S
N1670 C1673 1.336 . S
C1671 N1669 1.335 . S
C1671 N1670 1.345 . S
C1671 H1676 0.930 . S
C1672 N1669 1.390 . S
C1672 C1673 1.346 . S
C1672 H1677 0.930 . S
C1673 N1670 1.336 . S
C1673 C1672 1.346 . S
C1673 H1680 0.929 . S
C1674 O1664 1.282 . S
C1674 O1675 1.216 . S
O1675 C1674 1.216 . S
H1676 C1671 0.930 . S
H1677 C1672 0.930 . S
O1678 Cu1658 1.959 . S
O1678 C1665 1.251 . S
H1679 C1662 0.930 . S
H1680 C1673 0.929 . S
Cu1681 N1682 1.999 . S
Cu1681 O1687 1.974 . S
Cu1681 N1692 1.985 . S
Cu1681 O1701 1.959 . S
N1682 Cu1681 1.999 . S
N1682 C1684 1.263 . S
N1682 C1686 1.389 . S
N1683 C1684 1.358 . S
N1683 C1685 1.400 . S
C1684 N1682 1.263 . S
C1684 N1683 1.358 . S
C1684 H1690 0.930 . S
C1685 N1683 1.400 . S
C1685 C1686 1.351 . S
C1685 H1702 0.930 . S
C1686 N1682 1.389 . S
C1686 C1685 1.351 . S
C1686 H1691 0.930 . S
O1687 Cu1681 1.974 . S
O1687 C1697 1.282 . S
C1688 O1689 1.261 . S
C1688 O1701 1.251 . S
O1689 C1688 1.261 . S
H1690 C1684 0.930 . S
H1691 C1686 0.930 . S
N1692 Cu1681 1.985 . S
N1692 C1694 1.335 . S
N1692 C1695 1.390 . S
N1693 C1694 1.345 . S
N1693 C1696 1.336 . S
C1694 N1692 1.335 . S
C1694 N1693 1.345 . S
C1694 H1699 0.930 . S
C1695 N1692 1.390 . S
C1695 C1696 1.346 . S
C1695 H1700 0.930 . S
C1696 N1693 1.336 . S
C1696 C1695 1.346 . S
C1696 H1703 0.929 . S
C1697 O1687 1.282 . S
C1697 O1698 1.216 . S
O1698 C1697 1.216 . S
H1699 C1694 0.930 . S
H1700 C1695 0.930 . S
O1701 Cu1681 1.959 . S
O1701 C1688 1.251 . S
H1702 C1685 0.930 . S
H1703 C1696 0.929 . S
C1704 C1705 1.363 . S
C1704 C1710 1.379 . S
C1704 N1712 1.356 . S
C1705 C1704 1.363 . S
C1705 C1711 1.363 . S
C1706 C1707 1.363 . S
C1706 C1711 1.379 . S
C1706 N1713 1.356 . S
C1707 C1706 1.363 . S
C1707 C1710 1.363 . S
N1708 C1710 1.356 . S
N1708 H1720 0.984 . S
N1708 H1721 0.985 . S
N1709 C1711 1.356 . S
N1709 H1714 0.984 . S
N1709 H1715 0.985 . S
C1710 C1704 1.379 . S
C1710 C1707 1.363 . S
C1710 N1708 1.356 . S
C1711 C1705 1.363 . S
C1711 C1706 1.379 . S
C1711 N1709 1.356 . S
N1712 C1704 1.356 . S
N1712 H1718 0.984 . S
N1712 H1719 0.984 . S
N1713 C1706 1.356 . S
N1713 H1716 0.984 . S
N1713 H1717 0.985 . S
H1714 N1709 0.984 . S
H1715 N1709 0.985 . S
H1716 N1713 0.984 . S
H1717 N1713 0.985 . S
H1718 N1712 0.984 . S
H1719 N1712 0.984 . S
H1720 N1708 0.984 . S
H1721 N1708 0.985 . S
C1722 C1723 1.363 . S
C1722 C1728 1.379 . S
C1722 N1730 1.356 . S
C1723 C1722 1.363 . S
C1723 C1729 1.363 . S
C1724 C1725 1.363 . S
C1724 C1729 1.379 . S
C1724 N1731 1.356 . S
C1725 C1724 1.363 . S
C1725 C1728 1.363 . S
N1726 C1728 1.356 . S
N1726 H1738 0.984 . S
N1726 H1739 0.985 . S
N1727 C1729 1.356 . S
N1727 H1732 0.984 . S
N1727 H1733 0.985 . S
C1728 C1722 1.379 . S
C1728 C1725 1.363 . S
C1728 N1726 1.356 . S
C1729 C1723 1.363 . S
C1729 C1724 1.379 . S
C1729 N1727 1.356 . S
N1730 C1722 1.356 . S
N1730 H1736 0.984 . S
N1730 H1737 0.984 . S
N1731 C1724 1.356 . S
N1731 H1734 0.984 . S
N1731 H1735 0.985 . S
H1732 N1727 0.984 . S
H1733 N1727 0.985 . S
H1734 N1731 0.984 . S
H1735 N1731 0.985 . S
H1736 N1730 0.984 . S
H1737 N1730 0.984 . S
H1738 N1726 0.984 . S
H1739 N1726 0.985 . S
C1740 C1741 1.363 . S
C1740 C1746 1.379 . S
C1740 N1748 1.356 . S
C1741 C1740 1.363 . S
C1741 C1747 1.363 . S
C1742 C1743 1.363 . S
C1742 C1747 1.379 . S
C1742 N1749 1.356 . S
C1743 C1742 1.363 . S
C1743 C1746 1.363 . S
N1744 C1746 1.356 . S
N1744 H1756 0.984 . S
N1744 H1757 0.985 . S
N1745 C1747 1.356 . S
N1745 H1750 0.984 . S
N1745 H1751 0.985 . S
C1746 C1740 1.379 . S
C1746 C1743 1.363 . S
C1746 N1744 1.356 . S
C1747 C1741 1.363 . S
C1747 C1742 1.379 . S
C1747 N1745 1.356 . S
N1748 C1740 1.356 . S
N1748 H1754 0.984 . S
N1748 H1755 0.984 . S
N1749 C1742 1.356 . S
N1749 H1752 0.984 . S
N1749 H1753 0.985 . S
H1750 N1745 0.984 . S
H1751 N1745 0.985 . S
H1752 N1749 0.984 . S
H1753 N1749 0.985 . S
H1754 N1748 0.984 . S
H1755 N1748 0.984 . S
H1756 N1744 0.984 . S
H1757 N1744 0.985 . S
C1758 C1759 1.363 . S
C1758 C1764 1.379 . S
C1758 N1766 1.356 . S
C1759 C1758 1.363 . S
C1759 C1765 1.363 . S
C1760 C1761 1.363 . S
C1760 C1765 1.379 . S
C1760 N1767 1.356 . S
C1761 C1760 1.363 . S
C1761 C1764 1.363 . S
N1762 C1764 1.356 . S
N1762 H1774 0.984 . S
N1762 H1775 0.985 . S
N1763 C1765 1.356 . S
N1763 H1768 0.984 . S
N1763 H1769 0.985 . S
C1764 C1758 1.379 . S
C1764 C1761 1.363 . S
C1764 N1762 1.356 . S
C1765 C1759 1.363 . S
C1765 C1760 1.379 . S
C1765 N1763 1.356 . S
N1766 C1758 1.356 . S
N1766 H1772 0.984 . S
N1766 H1773 0.984 . S
N1767 C1760 1.356 . S
N1767 H1770 0.984 . S
N1767 H1771 0.985 . S
H1768 N1763 0.984 . S
H1769 N1763 0.985 . S
H1770 N1767 0.984 . S
H1771 N1767 0.985 . S
H1772 N1766 0.984 . S
H1773 N1766 0.984 . S
H1774 N1762 0.984 . S
H1775 N1762 0.985 . S
C1776 C1777 1.363 . S
C1776 C1782 1.379 . S
C1776 N1784 1.356 . S
C1777 C1776 1.363 . S
C1777 C1783 1.363 . S
C1778 C1779 1.363 . S
C1778 C1783 1.379 . S
C1778 N1785 1.356 . S
C1779 C1778 1.363 . S
C1779 C1782 1.363 . S
N1780 C1782 1.356 . S
N1780 H1792 0.984 . S
N1780 H1793 0.985 . S
N1781 C1783 1.356 . S
N1781 H1786 0.984 . S
N1781 H1787 0.985 . S
C1782 C1776 1.379 . S
C1782 C1779 1.363 . S
C1782 N1780 1.356 . S
C1783 C1777 1.363 . S
C1783 C1778 1.379 . S
C1783 N1781 1.356 . S
N1784 C1776 1.356 . S
N1784 H1790 0.984 . S
N1784 H1791 0.984 . S
N1785 C1778 1.356 . S
N1785 H1788 0.984 . S
N1785 H1789 0.985 . S
H1786 N1781 0.984 . S
H1787 N1781 0.985 . S
H1788 N1785 0.984 . S
H1789 N1785 0.985 . S
H1790 N1784 0.984 . S
H1791 N1784 0.984 . S
H1792 N1780 0.984 . S
H1793 N1780 0.985 . S
C1794 C1795 1.363 . S
C1794 C1800 1.379 . S
C1794 N1802 1.356 . S
C1795 C1794 1.363 . S
C1795 C1801 1.363 . S
C1796 C1797 1.363 . S
C1796 C1801 1.379 . S
C1796 N1803 1.356 . S
C1797 C1796 1.363 . S
C1797 C1800 1.363 . S
N1798 C1800 1.356 . S
N1798 H1810 0.984 . S
N1798 H1811 0.985 . S
N1799 C1801 1.356 . S
N1799 H1804 0.984 . S
N1799 H1805 0.985 . S
C1800 C1794 1.379 . S
C1800 C1797 1.363 . S
C1800 N1798 1.356 . S
C1801 C1795 1.363 . S
C1801 C1796 1.379 . S
C1801 N1799 1.356 . S
N1802 C1794 1.356 . S
N1802 H1808 0.984 . S
N1802 H1809 0.984 . S
N1803 C1796 1.356 . S
N1803 H1806 0.984 . S
N1803 H1807 0.985 . S
H1804 N1799 0.984 . S
H1805 N1799 0.985 . S
H1806 N1803 0.984 . S
H1807 N1803 0.985 . S
H1808 N1802 0.984 . S
H1809 N1802 0.984 . S
H1810 N1798 0.984 . S
H1811 N1798 0.985 . S
C1812 C1813 1.363 . S
C1812 C1818 1.379 . S
C1812 N1820 1.356 . S
C1813 C1812 1.363 . S
C1813 C1819 1.363 . S
C1814 C1815 1.363 . S
C1814 C1819 1.379 . S
C1814 N1821 1.356 . S
C1815 C1814 1.363 . S
C1815 C1818 1.363 . S
N1816 C1818 1.356 . S
N1816 H1828 0.984 . S
N1816 H1829 0.985 . S
N1817 C1819 1.356 . S
N1817 H1822 0.984 . S
N1817 H1823 0.985 . S
C1818 C1812 1.379 . S
C1818 C1815 1.363 . S
C1818 N1816 1.356 . S
C1819 C1813 1.363 . S
C1819 C1814 1.379 . S
C1819 N1817 1.356 . S
N1820 C1812 1.356 . S
N1820 H1826 0.984 . S
N1820 H1827 0.984 . S
N1821 C1814 1.356 . S
N1821 H1824 0.984 . S
N1821 H1825 0.985 . S
H1822 N1817 0.984 . S
H1823 N1817 0.985 . S
H1824 N1821 0.984 . S
H1825 N1821 0.985 . S
H1826 N1820 0.984 . S
H1827 N1820 0.984 . S
H1828 N1816 0.984 . S
H1829 N1816 0.985 . S
C1830 C1831 1.363 . S
C1830 C1836 1.379 . S
C1830 N1838 1.356 . S
C1831 C1830 1.363 . S
C1831 C1837 1.363 . S
C1832 C1833 1.363 . S
C1832 C1837 1.379 . S
C1832 N1839 1.356 . S
C1833 C1832 1.363 . S
C1833 C1836 1.363 . S
N1834 C1836 1.356 . S
N1834 H1846 0.984 . S
N1834 H1847 0.985 . S
N1835 C1837 1.356 . S
N1835 H1840 0.984 . S
N1835 H1841 0.985 . S
C1836 C1830 1.379 . S
C1836 C1833 1.363 . S
C1836 N1834 1.356 . S
C1837 C1831 1.363 . S
C1837 C1832 1.379 . S
C1837 N1835 1.356 . S
N1838 C1830 1.356 . S
N1838 H1844 0.984 . S
N1838 H1845 0.984 . S
N1839 C1832 1.356 . S
N1839 H1842 0.984 . S
N1839 H1843 0.985 . S
H1840 N1835 0.984 . S
H1841 N1835 0.985 . S
H1842 N1839 0.984 . S
H1843 N1839 0.985 . S
H1844 N1838 0.984 . S
H1845 N1838 0.984 . S
H1846 N1834 0.984 . S
H1847 N1834 0.985 . S
C1848 C1849 1.363 . S
C1848 C1854 1.379 . S
C1848 N1856 1.356 . S
C1849 C1848 1.363 . S
C1849 C1855 1.363 . S
C1850 C1851 1.363 . S
C1850 C1855 1.379 . S
C1850 N1857 1.356 . S
C1851 C1850 1.363 . S
C1851 C1854 1.363 . S
N1852 C1854 1.356 . S
N1852 H1864 0.984 . S
N1852 H1865 0.985 . S
N1853 C1855 1.356 . S
N1853 H1858 0.984 . S
N1853 H1859 0.985 . S
C1854 C1848 1.379 . S
C1854 C1851 1.363 . S
C1854 N1852 1.356 . S
C1855 C1849 1.363 . S
C1855 C1850 1.379 . S
C1855 N1853 1.356 . S
N1856 C1848 1.356 . S
N1856 H1862 0.984 . S
N1856 H1863 0.984 . S
N1857 C1850 1.356 . S
N1857 H1860 0.984 . S
N1857 H1861 0.985 . S
H1858 N1853 0.984 . S
H1859 N1853 0.985 . S
H1860 N1857 0.984 . S
H1861 N1857 0.985 . S
H1862 N1856 0.984 . S
H1863 N1856 0.984 . S
H1864 N1852 0.984 . S
H1865 N1852 0.985 . S
C1866 C1867 1.363 . S
C1866 C1872 1.379 . S
C1866 N1874 1.356 . S
C1867 C1866 1.363 . S
C1867 C1873 1.363 . S
C1868 C1869 1.363 . S
C1868 C1873 1.379 . S
C1868 N1875 1.356 . S
C1869 C1868 1.363 . S
C1869 C1872 1.363 . S
N1870 C1872 1.356 . S
N1870 H1882 0.984 . S
N1870 H1883 0.985 . S
N1871 C1873 1.356 . S
N1871 H1876 0.984 . S
N1871 H1877 0.985 . S
C1872 C1866 1.379 . S
C1872 C1869 1.363 . S
C1872 N1870 1.356 . S
C1873 C1867 1.363 . S
C1873 C1868 1.379 . S
C1873 N1871 1.356 . S
N1874 C1866 1.356 . S
N1874 H1880 0.984 . S
N1874 H1881 0.984 . S
N1875 C1868 1.356 . S
N1875 H1878 0.984 . S
N1875 H1879 0.985 . S
H1876 N1871 0.984 . S
H1877 N1871 0.985 . S
H1878 N1875 0.984 . S
H1879 N1875 0.985 . S
H1880 N1874 0.984 . S
H1881 N1874 0.984 . S
H1882 N1870 0.984 . S
H1883 N1870 0.985 . S
C1884 C1885 1.363 . S
C1884 C1890 1.379 . S
C1884 N1892 1.356 . S
C1885 C1884 1.363 . S
C1885 C1891 1.363 . S
C1886 C1887 1.363 . S
C1886 C1891 1.379 . S
C1886 N1893 1.356 . S
C1887 C1886 1.363 . S
C1887 C1890 1.363 . S
N1888 C1890 1.356 . S
N1888 H1900 0.984 . S
N1888 H1901 0.985 . S
N1889 C1891 1.356 . S
N1889 H1894 0.984 . S
N1889 H1895 0.985 . S
C1890 C1884 1.379 . S
C1890 C1887 1.363 . S
C1890 N1888 1.356 . S
C1891 C1885 1.363 . S
C1891 C1886 1.379 . S
C1891 N1889 1.356 . S
N1892 C1884 1.356 . S
N1892 H1898 0.984 . S
N1892 H1899 0.984 . S
N1893 C1886 1.356 . S
N1893 H1896 0.984 . S
N1893 H1897 0.985 . S
H1894 N1889 0.984 . S
H1895 N1889 0.985 . S
H1896 N1893 0.984 . S
H1897 N1893 0.985 . S
H1898 N1892 0.984 . S
H1899 N1892 0.984 . S
H1900 N1888 0.984 . S
H1901 N1888 0.985 . S
C1902 C1903 1.363 . S
C1902 C1908 1.379 . S
C1902 N1910 1.356 . S
C1903 C1902 1.363 . S
C1903 C1909 1.363 . S
C1904 C1905 1.363 . S
C1904 C1909 1.379 . S
C1904 N1911 1.356 . S
C1905 C1904 1.363 . S
C1905 C1908 1.363 . S
N1906 C1908 1.356 . S
N1906 H1918 0.984 . S
N1906 H1919 0.985 . S
N1907 C1909 1.356 . S
N1907 H1912 0.984 . S
N1907 H1913 0.985 . S
C1908 C1902 1.379 . S
C1908 C1905 1.363 . S
C1908 N1906 1.356 . S
C1909 C1903 1.363 . S
C1909 C1904 1.379 . S
C1909 N1907 1.356 . S
N1910 C1902 1.356 . S
N1910 H1916 0.984 . S
N1910 H1917 0.984 . S
N1911 C1904 1.356 . S
N1911 H1914 0.984 . S
N1911 H1915 0.985 . S
H1912 N1907 0.984 . S
H1913 N1907 0.985 . S
H1914 N1911 0.984 . S
H1915 N1911 0.985 . S
H1916 N1910 0.984 . S
H1917 N1910 0.984 . S
H1918 N1906 0.984 . S
H1919 N1906 0.985 . S
C1920 C1921 1.363 . S
C1920 C1926 1.379 . S
C1920 N1928 1.356 . S
C1921 C1920 1.363 . S
C1921 C1927 1.363 . S
C1922 C1923 1.363 . S
C1922 C1927 1.379 . S
C1922 N1929 1.356 . S
C1923 C1922 1.363 . S
C1923 C1926 1.363 . S
N1924 C1926 1.356 . S
N1924 H1936 0.984 . S
N1924 H1937 0.985 . S
N1925 C1927 1.356 . S
N1925 H1930 0.984 . S
N1925 H1931 0.985 . S
C1926 C1920 1.379 . S
C1926 C1923 1.363 . S
C1926 N1924 1.356 . S
C1927 C1921 1.363 . S
C1927 C1922 1.379 . S
C1927 N1925 1.356 . S
N1928 C1920 1.356 . S
N1928 H1934 0.984 . S
N1928 H1935 0.984 . S
N1929 C1922 1.356 . S
N1929 H1932 0.984 . S
N1929 H1933 0.985 . S
H1930 N1925 0.984 . S
H1931 N1925 0.985 . S
H1932 N1929 0.984 . S
H1933 N1929 0.985 . S
H1934 N1928 0.984 . S
H1935 N1928 0.984 . S
H1936 N1924 0.984 . S
H1937 N1924 0.985 . S
C1938 C1939 1.363 . S
C1938 C1944 1.379 . S
C1938 N1946 1.356 . S
C1939 C1938 1.363 . S
C1939 C1945 1.363 . S
C1940 C1941 1.363 . S
C1940 C1945 1.379 . S
C1940 N1947 1.356 . S
C1941 C1940 1.363 . S
C1941 C1944 1.363 . S
N1942 C1944 1.356 . S
N1942 H1954 0.984 . S
N1942 H1955 0.985 . S
N1943 C1945 1.356 . S
N1943 H1948 0.984 . S
N1943 H1949 0.985 . S
C1944 C1938 1.379 . S
C1944 C1941 1.363 . S
C1944 N1942 1.356 . S
C1945 C1939 1.363 . S
C1945 C1940 1.379 . S
C1945 N1943 1.356 . S
N1946 C1938 1.356 . S
N1946 H1952 0.984 . S
N1946 H1953 0.984 . S
N1947 C1940 1.356 . S
N1947 H1950 0.984 . S
N1947 H1951 0.985 . S
H1948 N1943 0.984 . S
H1949 N1943 0.985 . S
H1950 N1947 0.984 . S
H1951 N1947 0.985 . S
H1952 N1946 0.984 . S
H1953 N1946 0.984 . S
H1954 N1942 0.984 . S
H1955 N1942 0.985 . S
C1956 C1957 1.363 . S
C1956 C1962 1.379 . S
C1956 N1964 1.356 . S
C1957 C1956 1.363 . S
C1957 C1963 1.363 . S
C1958 C1959 1.363 . S
C1958 C1963 1.379 . S
C1958 N1965 1.326 1_655 S
C1959 C1958 1.363 . S
C1959 C1962 1.363 . S
N1960 C1962 1.356 . S
N1960 H1972 0.984 . S
N1960 H1973 0.985 . S
N1961 C1963 1.356 . S
N1961 H1966 0.984 . S
N1961 H1967 0.985 . S
C1962 C1956 1.379 . S
C1962 C1959 1.363 . S
C1962 N1960 1.356 . S
C1963 C1957 1.363 . S
C1963 C1958 1.379 . S
C1963 N1961 1.356 . S
N1964 C1956 1.356 . S
N1964 H1970 0.984 . S
N1964 H1971 0.984 . S
N1965 C1958 1.326 1_455 S
N1965 H1968 1.002 . S
N1965 H1969 0.998 . S
H1966 N1961 0.984 . S
H1967 N1961 0.985 . S
H1968 N1965 1.002 . S
H1969 N1965 0.998 . S
H1970 N1964 0.984 . S
H1971 N1964 0.984 . S
H1972 N1960 0.984 . S
H1973 N1960 0.985 . S
C1974 C1975 1.363 . S
C1974 C1980 1.379 . S
C1974 N1982 1.356 . S
C1975 C1974 1.363 . S
C1975 C1981 1.363 . S
C1976 C1977 1.363 . S
C1976 C1981 1.379 . S
C1976 N1983 1.356 . S
C1977 C1976 1.363 . S
C1977 C1980 1.363 . S
N1978 C1980 1.356 . S
N1978 H1990 0.984 . S
N1978 H1991 0.985 . S
N1979 C1981 1.356 . S
N1979 H1984 0.984 . S
N1979 H1985 0.985 . S
C1980 C1974 1.379 . S
C1980 C1977 1.363 . S
C1980 N1978 1.356 . S
C1981 C1975 1.363 . S
C1981 C1976 1.379 . S
C1981 N1979 1.356 . S
N1982 C1974 1.356 . S
N1982 H1988 0.984 . S
N1982 H1989 0.984 . S
N1983 C1976 1.356 . S
N1983 H1986 0.984 . S
N1983 H1987 0.985 . S
H1984 N1979 0.984 . S
H1985 N1979 0.985 . S
H1986 N1983 0.984 . S
H1987 N1983 0.985 . S
H1988 N1982 0.984 . S
H1989 N1982 0.984 . S
H1990 N1978 0.984 . S
H1991 N1978 0.985 . S
C1992 C1993 1.363 . S
C1992 C1998 1.379 . S
C1992 N2000 1.356 . S
C1993 C1992 1.363 . S
C1993 C1999 1.363 . S
C1994 C1995 1.363 . S
C1994 C1999 1.379 . S
C1994 N2001 1.356 . S
C1995 C1994 1.363 . S
C1995 C1998 1.363 . S
N1996 C1998 1.356 . S
N1996 H2008 0.984 . S
N1996 H2009 0.985 . S
N1997 C1999 1.356 . S
N1997 H2002 0.984 . S
N1997 H2003 0.985 . S
C1998 C1992 1.379 . S
C1998 C1995 1.363 . S
C1998 N1996 1.356 . S
C1999 C1993 1.363 . S
C1999 C1994 1.379 . S
C1999 N1997 1.356 . S
N2000 C1992 1.356 . S
N2000 H2006 0.984 . S
N2000 H2007 0.984 . S
N2001 C1994 1.356 . S
N2001 H2004 0.984 . S
N2001 H2005 0.985 . S
H2002 N1997 0.984 . S
H2003 N1997 0.985 . S
H2004 N2001 0.984 . S
H2005 N2001 0.985 . S
H2006 N2000 0.984 . S
H2007 N2000 0.984 . S
H2008 N1996 0.984 . S
H2009 N1996 0.985 . S
C2010 C2011 1.363 . S
C2010 C2016 1.379 . S
C2010 N2018 1.356 . S
C2011 C2010 1.363 . S
C2011 C2017 1.363 . S
C2012 C2013 1.363 . S
C2012 C2017 1.379 . S
C2012 N2019 1.356 . S
C2013 C2012 1.363 . S
C2013 C2016 1.363 . S
N2014 C2016 1.356 . S
N2014 H2026 0.984 . S
N2014 H2027 0.985 . S
N2015 C2017 1.356 . S
N2015 H2020 0.984 . S
N2015 H2021 0.985 . S
C2016 C2010 1.379 . S
C2016 C2013 1.363 . S
C2016 N2014 1.356 . S
C2017 C2011 1.363 . S
C2017 C2012 1.379 . S
C2017 N2015 1.356 . S
N2018 C2010 1.356 . S
N2018 H2024 0.984 . S
N2018 H2025 0.984 . S
N2019 C2012 1.356 . S
N2019 H2022 0.984 . S
N2019 H2023 0.985 . S
H2020 N2015 0.984 . S
H2021 N2015 0.985 . S
H2022 N2019 0.984 . S
H2023 N2019 0.985 . S
H2024 N2018 0.984 . S
H2025 N2018 0.984 . S
H2026 N2014 0.984 . S
H2027 N2014 0.985 . S
C2028 C2029 1.363 . S
C2028 C2034 1.379 . S
C2028 N2036 1.356 . S
C2029 C2028 1.363 . S
C2029 C2035 1.363 . S
C2030 C2031 1.363 . S
C2030 C2035 1.379 . S
C2030 N2037 1.356 . S
C2031 C2030 1.363 . S
C2031 C2034 1.363 . S
N2032 C2034 1.356 . S
N2032 H2044 0.984 . S
N2032 H2045 0.985 . S
N2033 C2035 1.356 . S
N2033 H2038 0.984 . S
N2033 H2039 0.985 . S
C2034 C2028 1.379 . S
C2034 C2031 1.363 . S
C2034 N2032 1.356 . S
C2035 C2029 1.363 . S
C2035 C2030 1.379 . S
C2035 N2033 1.356 . S
N2036 C2028 1.356 . S
N2036 H2042 0.984 . S
N2036 H2043 0.984 . S
N2037 C2030 1.356 . S
N2037 H2040 0.984 . S
N2037 H2041 0.985 . S
H2038 N2033 0.984 . S
H2039 N2033 0.985 . S
H2040 N2037 0.984 . S
H2041 N2037 0.985 . S
H2042 N2036 0.984 . S
H2043 N2036 0.984 . S
H2044 N2032 0.984 . S
H2045 N2032 0.985 . S
C2046 C2047 1.363 . S
C2046 C2052 1.379 . S
C2046 N2054 1.356 . S
C2047 C2046 1.363 . S
C2047 C2053 1.363 . S
C2048 C2049 1.363 . S
C2048 C2053 1.379 . S
C2048 N2055 1.356 . S
C2049 C2048 1.363 . S
C2049 C2052 1.363 . S
N2050 C2052 1.356 . S
N2050 H2062 0.984 . S
N2050 H2063 0.985 . S
N2051 C2053 1.356 . S
N2051 H2056 0.984 . S
N2051 H2057 0.985 . S
C2052 C2046 1.379 . S
C2052 C2049 1.363 . S
C2052 N2050 1.356 . S
C2053 C2047 1.363 . S
C2053 C2048 1.379 . S
C2053 N2051 1.356 . S
N2054 C2046 1.356 . S
N2054 H2060 0.984 . S
N2054 H2061 0.984 . S
N2055 C2048 1.356 . S
N2055 H2058 0.984 . S
N2055 H2059 0.985 . S
H2056 N2051 0.984 . S
H2057 N2051 0.985 . S
H2058 N2055 0.984 . S
H2059 N2055 0.985 . S
H2060 N2054 0.984 . S
H2061 N2054 0.984 . S
H2062 N2050 0.984 . S
H2063 N2050 0.985 . S
C2064 C2065 1.363 . S
C2064 C2070 1.379 . S
C2064 N2072 1.356 . S
C2065 C2064 1.363 . S
C2065 C2071 1.363 . S
C2066 C2067 1.363 . S
C2066 C2071 1.379 . S
C2066 N2073 1.356 . S
C2067 C2066 1.363 . S
C2067 C2070 1.363 . S
N2068 C2070 1.356 . S
N2068 H2080 0.984 . S
N2068 H2081 0.985 . S
N2069 C2071 1.356 . S
N2069 H2074 0.984 . S
N2069 H2075 0.985 . S
C2070 C2064 1.379 . S
C2070 C2067 1.363 . S
C2070 N2068 1.356 . S
C2071 C2065 1.363 . S
C2071 C2066 1.379 . S
C2071 N2069 1.356 . S
N2072 C2064 1.356 . S
N2072 H2078 0.984 . S
N2072 H2079 0.984 . S
N2073 C2066 1.356 . S
N2073 H2076 0.984 . S
N2073 H2077 0.985 . S
H2074 N2069 0.984 . S
H2075 N2069 0.985 . S
H2076 N2073 0.984 . S
H2077 N2073 0.985 . S
H2078 N2072 0.984 . S
H2079 N2072 0.984 . S
H2080 N2068 0.984 . S
H2081 N2068 0.985 . S
C2082 C2083 1.363 . S
C2082 C2088 1.379 . S
C2082 N2090 1.356 . S
C2083 C2082 1.363 . S
C2083 C2089 1.363 . S
C2084 C2085 1.363 . S
C2084 C2089 1.379 . S
C2084 N2091 1.356 . S
C2085 C2084 1.363 . S
C2085 C2088 1.363 . S
N2086 C2088 1.356 . S
N2086 H2098 0.984 . S
N2086 H2099 0.985 . S
N2087 C2089 1.356 . S
N2087 H2092 0.984 . S
N2087 H2093 0.985 . S
C2088 C2082 1.379 . S
C2088 C2085 1.363 . S
C2088 N2086 1.356 . S
C2089 C2083 1.363 . S
C2089 C2084 1.379 . S
C2089 N2087 1.356 . S
N2090 C2082 1.356 . S
N2090 H2096 0.984 . S
N2090 H2097 0.984 . S
N2091 C2084 1.356 . S
N2091 H2094 0.984 . S
N2091 H2095 0.985 . S
H2092 N2087 0.984 . S
H2093 N2087 0.985 . S
H2094 N2091 0.984 . S
H2095 N2091 0.985 . S
H2096 N2090 0.984 . S
H2097 N2090 0.984 . S
H2098 N2086 0.984 . S
H2099 N2086 0.985 . S
C2100 C2101 1.363 . S
C2100 C2106 1.379 . S
C2100 N2108 1.356 . S
C2101 C2100 1.363 . S
C2101 C2107 1.363 . S
C2102 C2103 1.363 . S
C2102 C2107 1.379 . S
C2102 N2109 1.356 . S
C2103 C2102 1.363 . S
C2103 C2106 1.363 . S
N2104 C2106 1.356 . S
N2104 H2116 0.984 . S
N2104 H2117 0.985 . S
N2105 C2107 1.356 . S
N2105 H2110 0.984 . S
N2105 H2111 0.985 . S
C2106 C2100 1.379 . S
C2106 C2103 1.363 . S
C2106 N2104 1.356 . S
C2107 C2101 1.363 . S
C2107 C2102 1.379 . S
C2107 N2105 1.356 . S
N2108 C2100 1.356 . S
N2108 H2114 0.984 . S
N2108 H2115 0.984 . S
N2109 C2102 1.356 . S
N2109 H2112 0.984 . S
N2109 H2113 0.985 . S
H2110 N2105 0.984 . S
H2111 N2105 0.985 . S
H2112 N2109 0.984 . S
H2113 N2109 0.985 . S
H2114 N2108 0.984 . S
H2115 N2108 0.984 . S
H2116 N2104 0.984 . S
H2117 N2104 0.985 . S
C2118 C2119 1.363 . S
C2118 C2124 1.379 . S
C2118 N2126 1.356 . S
C2119 C2118 1.363 . S
C2119 C2125 1.363 . S
C2120 C2121 1.363 . S
C2120 C2125 1.379 . S
C2120 N2127 1.356 . S
C2121 C2120 1.363 . S
C2121 C2124 1.363 . S
N2122 C2124 1.356 . S
N2122 H2134 0.984 . S
N2122 H2135 0.985 . S
N2123 C2125 1.356 . S
N2123 H2128 0.984 . S
N2123 H2129 0.985 . S
C2124 C2118 1.379 . S
C2124 C2121 1.363 . S
C2124 N2122 1.356 . S
C2125 C2119 1.363 . S
C2125 C2120 1.379 . S
C2125 N2123 1.356 . S
N2126 C2118 1.356 . S
N2126 H2132 0.984 . S
N2126 H2133 0.984 . S
N2127 C2120 1.356 . S
N2127 H2130 0.984 . S
N2127 H2131 0.985 . S
H2128 N2123 0.984 . S
H2129 N2123 0.985 . S
H2130 N2127 0.984 . S
H2131 N2127 0.985 . S
H2132 N2126 0.984 . S
H2133 N2126 0.984 . S
H2134 N2122 0.984 . S
H2135 N2122 0.985 . S
C2136 C2137 1.363 . S
C2136 C2142 1.379 . S
C2136 N2144 1.356 . S
C2137 C2136 1.363 . S
C2137 C2143 1.363 . S
C2138 C2139 1.363 . S
C2138 C2143 1.379 . S
C2138 N2145 1.356 . S
C2139 C2138 1.363 . S
C2139 C2142 1.363 . S
N2140 C2142 1.356 . S
N2140 H2152 0.984 . S
N2140 H2153 0.985 . S
N2141 C2143 1.356 . S
N2141 H2146 0.984 . S
N2141 H2147 0.985 . S
C2142 C2136 1.379 . S
C2142 C2139 1.363 . S
C2142 N2140 1.356 . S
C2143 C2137 1.363 . S
C2143 C2138 1.379 . S
C2143 N2141 1.356 . S
N2144 C2136 1.356 . S
N2144 H2150 0.984 . S
N2144 H2151 0.984 . S
N2145 C2138 1.356 . S
N2145 H2148 0.984 . S
N2145 H2149 0.985 . S
H2146 N2141 0.984 . S
H2147 N2141 0.985 . S
H2148 N2145 0.984 . S
H2149 N2145 0.985 . S
H2150 N2144 0.984 . S
H2151 N2144 0.984 . S
H2152 N2140 0.984 . S
H2153 N2140 0.985 . S
C2154 C2155 1.363 . S
C2154 C2160 1.379 . S
C2154 N2162 1.356 . S
C2155 C2154 1.363 . S
C2155 C2161 1.363 . S
C2156 C2157 1.363 . S
C2156 C2161 1.379 . S
C2156 N2163 1.356 . S
C2157 C2156 1.363 . S
C2157 C2160 1.363 . S
N2158 C2160 1.356 . S
N2158 H2170 0.984 . S
N2158 H2171 0.985 . S
N2159 C2161 1.356 . S
N2159 H2164 0.984 . S
N2159 H2165 0.985 . S
C2160 C2154 1.379 . S
C2160 C2157 1.363 . S
C2160 N2158 1.356 . S
C2161 C2155 1.363 . S
C2161 C2156 1.379 . S
C2161 N2159 1.356 . S
N2162 C2154 1.356 . S
N2162 H2168 0.984 . S
N2162 H2169 0.984 . S
N2163 C2156 1.356 . S
N2163 H2166 0.984 . S
N2163 H2167 0.985 . S
H2164 N2159 0.984 . S
H2165 N2159 0.985 . S
H2166 N2163 0.984 . S
H2167 N2163 0.985 . S
H2168 N2162 0.984 . S
H2169 N2162 0.984 . S
H2170 N2158 0.984 . S
H2171 N2158 0.985 . S
C2172 C2173 1.363 . S
C2172 C2178 1.379 . S
C2172 N2180 1.356 . S
C2173 C2172 1.363 . S
C2173 C2179 1.363 . S
C2174 C2175 1.363 . S
C2174 C2179 1.379 . S
C2174 N2181 1.356 . S
C2175 C2174 1.363 . S
C2175 C2178 1.363 . S
N2176 C2178 1.356 . S
N2176 H2188 0.984 . S
N2176 H2189 0.985 . S
N2177 C2179 1.356 . S
N2177 H2182 0.984 . S
N2177 H2183 0.985 . S
C2178 C2172 1.379 . S
C2178 C2175 1.363 . S
C2178 N2176 1.356 . S
C2179 C2173 1.363 . S
C2179 C2174 1.379 . S
C2179 N2177 1.356 . S
N2180 C2172 1.356 . S
N2180 H2186 0.984 . S
N2180 H2187 0.984 . S
N2181 C2174 1.356 . S
N2181 H2184 0.984 . S
N2181 H2185 0.985 . S
H2182 N2177 0.984 . S
H2183 N2177 0.985 . S
H2184 N2181 0.984 . S
H2185 N2181 0.985 . S
H2186 N2180 0.984 . S
H2187 N2180 0.984 . S
H2188 N2176 0.984 . S
H2189 N2176 0.985 . S
C2190 C2191 1.363 . S
C2190 C2196 1.379 . S
C2190 N2198 1.356 . S
C2191 C2190 1.363 . S
C2191 C2197 1.363 . S
C2192 C2193 1.363 . S
C2192 C2197 1.379 . S
C2192 N2199 1.356 . S
C2193 C2192 1.363 . S
C2193 C2196 1.363 . S
N2194 C2196 1.356 . S
N2194 H2206 0.984 . S
N2194 H2207 0.985 . S
N2195 C2197 1.356 . S
N2195 H2200 0.984 . S
N2195 H2201 0.985 . S
C2196 C2190 1.379 . S
C2196 C2193 1.363 . S
C2196 N2194 1.356 . S
C2197 C2191 1.363 . S
C2197 C2192 1.379 . S
C2197 N2195 1.356 . S
N2198 C2190 1.356 . S
N2198 H2204 0.984 . S
N2198 H2205 0.984 . S
N2199 C2192 1.356 . S
N2199 H2202 0.984 . S
N2199 H2203 0.985 . S
H2200 N2195 0.984 . S
H2201 N2195 0.985 . S
H2202 N2199 0.984 . S
H2203 N2199 0.985 . S
H2204 N2198 0.984 . S
H2205 N2198 0.984 . S
H2206 N2194 0.984 . S
H2207 N2194 0.985 . S
C2208 C2209 1.363 . S
C2208 C2214 1.379 . S
C2208 N2216 1.356 . S
C2209 C2208 1.363 . S
C2209 C2215 1.363 . S
C2210 C2211 1.363 . S
C2210 C2215 1.379 . S
C2210 N2217 1.356 . S
C2211 C2210 1.363 . S
C2211 C2214 1.363 . S
N2212 C2214 1.356 . S
N2212 H2224 0.984 . S
N2212 H2225 0.985 . S
N2213 C2215 1.356 . S
N2213 H2218 0.984 . S
N2213 H2219 0.985 . S
C2214 C2208 1.379 . S
C2214 C2211 1.363 . S
C2214 N2212 1.356 . S
C2215 C2209 1.363 . S
C2215 C2210 1.379 . S
C2215 N2213 1.356 . S
N2216 C2208 1.356 . S
N2216 H2222 0.984 . S
N2216 H2223 0.984 . S
N2217 C2210 1.356 . S
N2217 H2220 0.984 . S
N2217 H2221 0.985 . S
H2218 N2213 0.984 . S
H2219 N2213 0.985 . S
H2220 N2217 0.984 . S
H2221 N2217 0.985 . S
H2222 N2216 0.984 . S
H2223 N2216 0.984 . S
H2224 N2212 0.984 . S
H2225 N2212 0.985 . S
C2226 C2227 1.363 . S
C2226 C2232 1.379 . S
C2226 N2234 1.356 . S
C2227 C2226 1.363 . S
C2227 C2233 1.363 . S
C2228 C2229 1.363 . S
C2228 C2233 1.379 . S
C2228 N2235 1.356 . S
C2229 C2228 1.363 . S
C2229 C2232 1.363 . S
N2230 C2232 1.356 . S
N2230 H2242 0.984 . S
N2230 H2243 0.985 . S
N2231 C2233 1.356 . S
N2231 H2236 0.984 . S
N2231 H2237 0.985 . S
C2232 C2226 1.379 . S
C2232 C2229 1.363 . S
C2232 N2230 1.356 . S
C2233 C2227 1.363 . S
C2233 C2228 1.379 . S
C2233 N2231 1.356 . S
N2234 C2226 1.356 . S
N2234 H2240 0.984 . S
N2234 H2241 0.984 . S
N2235 C2228 1.356 . S
N2235 H2238 0.984 . S
N2235 H2239 0.985 . S
H2236 N2231 0.984 . S
H2237 N2231 0.985 . S
H2238 N2235 0.984 . S
H2239 N2235 0.985 . S
H2240 N2234 0.984 . S
H2241 N2234 0.984 . S
H2242 N2230 0.984 . S
H2243 N2230 0.985 . S
C2244 C2245 1.363 . S
C2244 C2250 1.379 . S
C2244 N2252 1.356 . S
C2245 C2244 1.363 . S
C2245 C2251 1.363 . S
C2246 C2247 1.363 . S
C2246 C2251 1.379 . S
C2246 N2253 1.356 . S
C2247 C2246 1.363 . S
C2247 C2250 1.363 . S
N2248 C2250 1.356 . S
N2248 H2260 0.984 . S
N2248 H2261 0.985 . S
N2249 C2251 1.356 . S
N2249 H2254 0.984 . S
N2249 H2255 0.985 . S
C2250 C2244 1.379 . S
C2250 C2247 1.363 . S
C2250 N2248 1.356 . S
C2251 C2245 1.363 . S
C2251 C2246 1.379 . S
C2251 N2249 1.356 . S
N2252 C2244 1.356 . S
N2252 H2258 0.984 . S
N2252 H2259 0.984 . S
N2253 C2246 1.356 . S
N2253 H2256 0.984 . S
N2253 H2257 0.985 . S
H2254 N2249 0.984 . S
H2255 N2249 0.985 . S
H2256 N2253 0.984 . S
H2257 N2253 0.985 . S
H2258 N2252 0.984 . S
H2259 N2252 0.984 . S
H2260 N2248 0.984 . S
H2261 N2248 0.985 . S
C2262 C2263 1.363 . S
C2262 C2268 1.379 . S
C2262 N2270 1.356 . S
C2263 C2262 1.363 . S
C2263 C2269 1.363 . S
C2264 C2265 1.363 . S
C2264 C2269 1.379 . S
C2264 N2271 1.356 . S
C2265 C2264 1.363 . S
C2265 C2268 1.363 . S
N2266 C2268 1.356 . S
N2266 H2278 0.984 . S
N2266 H2279 0.985 . S
N2267 C2269 1.356 . S
N2267 H2272 0.984 . S
N2267 H2273 0.985 . S
C2268 C2262 1.379 . S
C2268 C2265 1.363 . S
C2268 N2266 1.356 . S
C2269 C2263 1.363 . S
C2269 C2264 1.379 . S
C2269 N2267 1.356 . S
N2270 C2262 1.356 . S
N2270 H2276 0.984 . S
N2270 H2277 0.984 . S
N2271 C2264 1.356 . S
N2271 H2274 0.984 . S
N2271 H2275 0.985 . S
H2272 N2267 0.984 . S
H2273 N2267 0.985 . S
H2274 N2271 0.984 . S
H2275 N2271 0.985 . S
H2276 N2270 0.984 . S
H2277 N2270 0.984 . S
H2278 N2266 0.984 . S
H2279 N2266 0.985 . S
C2280 C2281 1.363 . S
C2280 C2286 1.379 . S
C2280 N2288 1.356 . S
C2281 C2280 1.363 . S
C2281 C2287 1.363 . S
C2282 C2283 1.363 . S
C2282 C2287 1.379 . S
C2282 N2289 1.356 . S
C2283 C2282 1.363 . S
C2283 C2286 1.363 . S
N2284 C2286 1.356 . S
N2284 H2296 0.984 . S
N2284 H2297 0.985 . S
N2285 C2287 1.356 . S
N2285 H2290 0.984 . S
N2285 H2291 0.985 . S
C2286 C2280 1.379 . S
C2286 C2283 1.363 . S
C2286 N2284 1.356 . S
C2287 C2281 1.363 . S
C2287 C2282 1.379 . S
C2287 N2285 1.356 . S
N2288 C2280 1.356 . S
N2288 H2294 0.984 . S
N2288 H2295 0.984 . S
N2289 C2282 1.356 . S
N2289 H2292 0.984 . S
N2289 H2293 0.985 . S
H2290 N2285 0.984 . S
H2291 N2285 0.985 . S
H2292 N2289 0.984 . S
H2293 N2289 0.985 . S
H2294 N2288 0.984 . S
H2295 N2288 0.984 . S
H2296 N2284 0.984 . S
H2297 N2284 0.985 . S
C2298 C2299 1.363 . S
C2298 C2304 1.379 . S
C2298 N2306 1.356 . S
C2299 C2298 1.363 . S
C2299 C2305 1.363 . S
C2300 C2301 1.363 . S
C2300 C2305 1.379 . S
C2300 N2307 1.356 . S
C2301 C2300 1.363 . S
C2301 C2304 1.363 . S
N2302 C2304 1.356 . S
N2302 H2314 0.984 . S
N2302 H2315 0.985 . S
N2303 C2305 1.356 . S
N2303 H2308 0.984 . S
N2303 H2309 0.985 . S
C2304 C2298 1.379 . S
C2304 C2301 1.363 . S
C2304 N2302 1.356 . S
C2305 C2299 1.363 . S
C2305 C2300 1.379 . S
C2305 N2303 1.356 . S
N2306 C2298 1.356 . S
N2306 H2312 0.984 . S
N2306 H2313 0.984 . S
N2307 C2300 1.356 . S
N2307 H2310 0.984 . S
N2307 H2311 0.985 . S
H2308 N2303 0.984 . S
H2309 N2303 0.985 . S
H2310 N2307 0.984 . S
H2311 N2307 0.985 . S
H2312 N2306 0.984 . S
H2313 N2306 0.984 . S
H2314 N2302 0.984 . S
H2315 N2302 0.985 . S
C2316 C2317 1.363 . S
C2316 C2322 1.379 . S
C2316 N2324 1.356 . S
C2317 C2316 1.363 . S
C2317 C2323 1.363 . S
C2318 C2319 1.363 . S
C2318 C2323 1.379 . S
C2318 N2325 1.356 . S
C2319 C2318 1.363 . S
C2319 C2322 1.363 . S
N2320 C2322 1.356 . S
N2320 H2332 0.984 . S
N2320 H2333 0.985 . S
N2321 C2323 1.356 . S
N2321 H2326 0.984 . S
N2321 H2327 0.985 . S
C2322 C2316 1.379 . S
C2322 C2319 1.363 . S
C2322 N2320 1.356 . S
C2323 C2317 1.363 . S
C2323 C2318 1.379 . S
C2323 N2321 1.356 . S
N2324 C2316 1.356 . S
N2324 H2330 0.984 . S
N2324 H2331 0.984 . S
N2325 C2318 1.356 . S
N2325 H2328 0.984 . S
N2325 H2329 0.985 . S
H2326 N2321 0.984 . S
H2327 N2321 0.985 . S
H2328 N2325 0.984 . S
H2329 N2325 0.985 . S
H2330 N2324 0.984 . S
H2331 N2324 0.984 . S
H2332 N2320 0.984 . S
H2333 N2320 0.985 . S
C2334 C2335 1.363 . S
C2334 C2340 1.379 . S
C2334 N2342 1.356 . S
C2335 C2334 1.363 . S
C2335 C2341 1.363 . S
C2336 C2337 1.363 . S
C2336 C2341 1.379 . S
C2336 N2343 1.356 . S
C2337 C2336 1.363 . S
C2337 C2340 1.363 . S
N2338 C2340 1.356 . S
N2338 H2350 0.984 . S
N2338 H2351 0.985 . S
N2339 C2341 1.356 . S
N2339 H2344 0.984 . S
N2339 H2345 0.985 . S
C2340 C2334 1.379 . S
C2340 C2337 1.363 . S
C2340 N2338 1.356 . S
C2341 C2335 1.363 . S
C2341 C2336 1.379 . S
C2341 N2339 1.356 . S
N2342 C2334 1.356 . S
N2342 H2348 0.984 . S
N2342 H2349 0.984 . S
N2343 C2336 1.356 . S
N2343 H2346 0.984 . S
N2343 H2347 0.985 . S
H2344 N2339 0.984 . S
H2345 N2339 0.985 . S
H2346 N2343 0.984 . S
H2347 N2343 0.985 . S
H2348 N2342 0.984 . S
H2349 N2342 0.984 . S
H2350 N2338 0.984 . S
H2351 N2338 0.985 . S
C2352 C2353 1.363 . S
C2352 C2358 1.379 . S
C2352 N2360 1.356 . S
C2353 C2352 1.363 . S
C2353 C2359 1.363 . S
C2354 C2355 1.363 . S
C2354 C2359 1.379 . S
C2354 N2361 1.356 . S
C2355 C2354 1.363 . S
C2355 C2358 1.363 . S
N2356 C2358 1.356 . S
N2356 H2368 0.984 . S
N2356 H2369 0.985 . S
N2357 C2359 1.356 . S
N2357 H2362 0.984 . S
N2357 H2363 0.985 . S
C2358 C2352 1.379 . S
C2358 C2355 1.363 . S
C2358 N2356 1.356 . S
C2359 C2353 1.363 . S
C2359 C2354 1.379 . S
C2359 N2357 1.356 . S
N2360 C2352 1.356 . S
N2360 H2366 0.984 . S
N2360 H2367 0.984 . S
N2361 C2354 1.356 . S
N2361 H2364 0.984 . S
N2361 H2365 0.985 . S
H2362 N2357 0.984 . S
H2363 N2357 0.985 . S
H2364 N2361 0.984 . S
H2365 N2361 0.985 . S
H2366 N2360 0.984 . S
H2367 N2360 0.984 . S
H2368 N2356 0.984 . S
H2369 N2356 0.985 . S
C2370 C2371 1.363 . S
C2370 C2376 1.379 . S
C2370 N2378 1.356 . S
C2371 C2370 1.363 . S
C2371 C2377 1.363 . S
C2372 C2373 1.363 . S
C2372 C2377 1.379 . S
C2372 N2379 1.356 . S
C2373 C2372 1.363 . S
C2373 C2376 1.363 . S
N2374 C2376 1.356 . S
N2374 H2386 0.984 . S
N2374 H2387 0.985 . S
N2375 C2377 1.356 . S
N2375 H2380 0.984 . S
N2375 H2381 0.985 . S
C2376 C2370 1.379 . S
C2376 C2373 1.363 . S
C2376 N2374 1.356 . S
C2377 C2371 1.363 . S
C2377 C2372 1.379 . S
C2377 N2375 1.356 . S
N2378 C2370 1.356 . S
N2378 H2384 0.984 . S
N2378 H2385 0.984 . S
N2379 C2372 1.356 . S
N2379 H2382 0.984 . S
N2379 H2383 0.985 . S
H2380 N2375 0.984 . S
H2381 N2375 0.985 . S
H2382 N2379 0.984 . S
H2383 N2379 0.985 . S
H2384 N2378 0.984 . S
H2385 N2378 0.984 . S
H2386 N2374 0.984 . S
H2387 N2374 0.985 . S
C2388 C2389 1.363 . S
C2388 C2394 1.379 . S
C2388 N2396 1.356 . S
C2389 C2388 1.363 . S
C2389 C2395 1.363 . S
C2390 C2391 1.363 . S
C2390 C2395 1.379 . S
C2390 N2397 1.356 . S
C2391 C2390 1.363 . S
C2391 C2394 1.363 . S
N2392 C2394 1.356 . S
N2392 H2404 0.984 . S
N2392 H2405 0.985 . S
N2393 C2395 1.356 . S
N2393 H2398 0.984 . S
N2393 H2399 0.985 . S
C2394 C2388 1.379 . S
C2394 C2391 1.363 . S
C2394 N2392 1.356 . S
C2395 C2389 1.363 . S
C2395 C2390 1.379 . S
C2395 N2393 1.356 . S
N2396 C2388 1.356 . S
N2396 H2402 0.984 . S
N2396 H2403 0.984 . S
N2397 C2390 1.356 . S
N2397 H2400 0.984 . S
N2397 H2401 0.985 . S
H2398 N2393 0.984 . S
H2399 N2393 0.985 . S
H2400 N2397 0.984 . S
H2401 N2397 0.985 . S
H2402 N2396 0.984 . S
H2403 N2396 0.984 . S
H2404 N2392 0.984 . S
H2405 N2392 0.985 . S
C2406 C2407 1.363 . S
C2406 C2412 1.379 . S
C2406 N2414 1.356 . S
C2407 C2406 1.363 . S
C2407 C2413 1.363 . S
C2408 C2409 1.363 . S
C2408 C2413 1.379 . S
C2408 N2415 1.356 . S
C2409 C2408 1.363 . S
C2409 C2412 1.363 . S
N2410 C2412 1.356 . S
N2410 H2422 0.984 . S
N2410 H2423 0.985 . S
N2411 C2413 1.356 . S
N2411 H2416 0.984 . S
N2411 H2417 0.985 . S
C2412 C2406 1.379 . S
C2412 C2409 1.363 . S
C2412 N2410 1.356 . S
C2413 C2407 1.363 . S
C2413 C2408 1.379 . S
C2413 N2411 1.356 . S
N2414 C2406 1.356 . S
N2414 H2420 0.984 . S
N2414 H2421 0.984 . S
N2415 C2408 1.356 . S
N2415 H2418 0.984 . S
N2415 H2419 0.985 . S
H2416 N2411 0.984 . S
H2417 N2411 0.985 . S
H2418 N2415 0.984 . S
H2419 N2415 0.985 . S
H2420 N2414 0.984 . S
H2421 N2414 0.984 . S
H2422 N2410 0.984 . S
H2423 N2410 0.985 . S
C2424 C2425 1.363 . S
C2424 C2430 1.379 . S
C2424 N2432 1.356 . S
C2425 C2424 1.363 . S
C2425 C2431 1.363 . S
C2426 C2427 1.363 . S
C2426 C2431 1.379 . S
C2426 N2433 1.356 . S
C2427 C2426 1.363 . S
C2427 C2430 1.363 . S
N2428 C2430 1.356 . S
N2428 H2440 0.984 . S
N2428 H2441 0.985 . S
N2429 C2431 1.356 . S
N2429 H2434 0.984 . S
N2429 H2435 0.985 . S
C2430 C2424 1.379 . S
C2430 C2427 1.363 . S
C2430 N2428 1.356 . S
C2431 C2425 1.363 . S
C2431 C2426 1.379 . S
C2431 N2429 1.356 . S
N2432 C2424 1.356 . S
N2432 H2438 0.984 . S
N2432 H2439 0.984 . S
N2433 C2426 1.356 . S
N2433 H2436 0.984 . S
N2433 H2437 0.985 . S
H2434 N2429 0.984 . S
H2435 N2429 0.985 . S
H2436 N2433 0.984 . S
H2437 N2433 0.985 . S
H2438 N2432 0.984 . S
H2439 N2432 0.984 . S
H2440 N2428 0.984 . S
H2441 N2428 0.985 . S
C2442 C2443 1.363 . S
C2442 C2448 1.379 . S
C2442 N2450 1.356 . S
C2443 C2442 1.363 . S
C2443 C2449 1.363 . S
C2444 C2445 1.363 . S
C2444 C2449 1.379 . S
C2444 N2451 1.356 . S
C2445 C2444 1.363 . S
C2445 C2448 1.363 . S
N2446 C2448 1.356 . S
N2446 H2458 0.984 . S
N2446 H2459 0.985 . S
N2447 C2449 1.356 . S
N2447 H2452 0.984 . S
N2447 H2453 0.985 . S
C2448 C2442 1.379 . S
C2448 C2445 1.363 . S
C2448 N2446 1.356 . S
C2449 C2443 1.363 . S
C2449 C2444 1.379 . S
C2449 N2447 1.356 . S
N2450 C2442 1.356 . S
N2450 H2456 0.984 . S
N2450 H2457 0.984 . S
N2451 C2444 1.356 . S
N2451 H2454 0.984 . S
N2451 H2455 0.985 . S
H2452 N2447 0.984 . S
H2453 N2447 0.985 . S
H2454 N2451 0.984 . S
H2455 N2451 0.985 . S
H2456 N2450 0.984 . S
H2457 N2450 0.984 . S
H2458 N2446 0.984 . S
H2459 N2446 0.985 . S
C2460 C2461 1.363 . S
C2460 C2466 1.379 . S
C2460 N2468 1.356 . S
C2461 C2460 1.363 . S
C2461 C2467 1.363 . S
C2462 C2463 1.363 . S
C2462 C2467 1.379 . S
C2462 N2469 1.356 . S
C2463 C2462 1.363 . S
C2463 C2466 1.363 . S
N2464 C2466 1.356 . S
N2464 H2476 0.984 . S
N2464 H2477 0.985 . S
N2465 C2467 1.356 . S
N2465 H2470 0.984 . S
N2465 H2471 0.985 . S
C2466 C2460 1.379 . S
C2466 C2463 1.363 . S
C2466 N2464 1.356 . S
C2467 C2461 1.363 . S
C2467 C2462 1.379 . S
C2467 N2465 1.356 . S
N2468 C2460 1.356 . S
N2468 H2474 0.984 . S
N2468 H2475 0.984 . S
N2469 C2462 1.356 . S
N2469 H2472 0.984 . S
N2469 H2473 0.985 . S
H2470 N2465 0.984 . S
H2471 N2465 0.985 . S
H2472 N2469 0.984 . S
H2473 N2469 0.985 . S
H2474 N2468 0.984 . S
H2475 N2468 0.984 . S
H2476 N2464 0.984 . S
H2477 N2464 0.985 . S
C2478 C2479 1.363 . S
C2478 C2484 1.379 . S
C2478 N2486 1.356 . S
C2479 C2478 1.363 . S
C2479 C2485 1.363 . S
C2480 C2481 1.363 . S
C2480 C2485 1.379 . S
C2480 N2487 1.356 . S
C2481 C2480 1.363 . S
C2481 C2484 1.363 . S
N2482 C2484 1.356 . S
N2482 H2494 0.984 . S
N2482 H2495 0.985 . S
N2483 C2485 1.356 . S
N2483 H2488 0.984 . S
N2483 H2489 0.985 . S
C2484 C2478 1.379 . S
C2484 C2481 1.363 . S
C2484 N2482 1.356 . S
C2485 C2479 1.363 . S
C2485 C2480 1.379 . S
C2485 N2483 1.356 . S
N2486 C2478 1.356 . S
N2486 H2492 0.984 . S
N2486 H2493 0.984 . S
N2487 C2480 1.356 . S
N2487 H2490 0.984 . S
N2487 H2491 0.985 . S
H2488 N2483 0.984 . S
H2489 N2483 0.985 . S
H2490 N2487 0.984 . S
H2491 N2487 0.985 . S
H2492 N2486 0.984 . S
H2493 N2486 0.984 . S
H2494 N2482 0.984 . S
H2495 N2482 0.985 . S
C2496 C2497 1.363 . S
C2496 C2502 1.379 . S
C2496 N2504 1.356 . S
C2497 C2496 1.363 . S
C2497 C2503 1.363 . S
C2498 C2499 1.363 . S
C2498 C2503 1.379 . S
C2498 N2505 1.356 . S
C2499 C2498 1.363 . S
C2499 C2502 1.363 . S
N2500 C2502 1.356 . S
N2500 H2512 0.984 . S
N2500 H2513 0.985 . S
N2501 C2503 1.356 . S
N2501 H2506 0.984 . S
N2501 H2507 0.985 . S
C2502 C2496 1.379 . S
C2502 C2499 1.363 . S
C2502 N2500 1.356 . S
C2503 C2497 1.363 . S
C2503 C2498 1.379 . S
C2503 N2501 1.356 . S
N2504 C2496 1.356 . S
N2504 H2510 0.984 . S
N2504 H2511 0.984 . S
N2505 C2498 1.356 . S
N2505 H2508 0.984 . S
N2505 H2509 0.985 . S
H2506 N2501 0.984 . S
H2507 N2501 0.985 . S
H2508 N2505 0.984 . S
H2509 N2505 0.985 . S
H2510 N2504 0.984 . S
H2511 N2504 0.984 . S
H2512 N2500 0.984 . S
H2513 N2500 0.985 . S
C2514 C2515 1.363 . S
C2514 C2520 1.379 . S
C2514 N2522 1.356 . S
C2515 C2514 1.363 . S
C2515 C2521 1.363 . S
C2516 C2517 1.363 . S
C2516 C2521 1.379 . S
C2516 N2523 1.356 . S
C2517 C2516 1.363 . S
C2517 C2520 1.363 . S
N2518 C2520 1.356 . S
N2518 H2530 0.984 . S
N2518 H2531 0.985 . S
N2519 C2521 1.356 . S
N2519 H2524 0.984 . S
N2519 H2525 0.985 . S
C2520 C2514 1.379 . S
C2520 C2517 1.363 . S
C2520 N2518 1.356 . S
C2521 C2515 1.363 . S
C2521 C2516 1.379 . S
C2521 N2519 1.356 . S
N2522 C2514 1.356 . S
N2522 H2528 0.984 . S
N2522 H2529 0.984 . S
N2523 C2516 1.356 . S
N2523 H2526 0.984 . S
N2523 H2527 0.985 . S
H2524 N2519 0.984 . S
H2525 N2519 0.985 . S
H2526 N2523 0.984 . S
H2527 N2523 0.985 . S
H2528 N2522 0.984 . S
H2529 N2522 0.984 . S
H2530 N2518 0.984 . S
H2531 N2518 0.985 . S
C2532 C2533 1.363 . S
C2532 C2538 1.379 . S
C2532 N2540 1.356 . S
C2533 C2532 1.363 . S
C2533 C2539 1.363 . S
C2534 C2535 1.363 . S
C2534 C2539 1.379 . S
C2534 N2541 1.356 . S
C2535 C2534 1.363 . S
C2535 C2538 1.363 . S
N2536 C2538 1.356 . S
N2536 H2548 0.984 . S
N2536 H2549 0.985 . S
N2537 C2539 1.356 . S
N2537 H2542 0.984 . S
N2537 H2543 0.985 . S
C2538 C2532 1.379 . S
C2538 C2535 1.363 . S
C2538 N2536 1.356 . S
C2539 C2533 1.363 . S
C2539 C2534 1.379 . S
C2539 N2537 1.356 . S
N2540 C2532 1.356 . S
N2540 H2546 0.984 . S
N2540 H2547 0.984 . S
N2541 C2534 1.356 . S
N2541 H2544 0.984 . S
N2541 H2545 0.985 . S
H2542 N2537 0.984 . S
H2543 N2537 0.985 . S
H2544 N2541 0.984 . S
H2545 N2541 0.985 . S
H2546 N2540 0.984 . S
H2547 N2540 0.984 . S
H2548 N2536 0.984 . S
H2549 N2536 0.985 . S
C2550 C2551 1.363 . S
C2550 C2556 1.379 . S
C2550 N2558 1.356 . S
C2551 C2550 1.363 . S
C2551 C2557 1.363 . S
C2552 C2553 1.363 . S
C2552 C2557 1.379 . S
C2552 N2559 1.356 . S
C2553 C2552 1.363 . S
C2553 C2556 1.363 . S
N2554 C2556 1.356 . S
N2554 H2566 0.984 . S
N2554 H2567 0.985 . S
N2555 C2557 1.356 . S
N2555 H2560 0.984 . S
N2555 H2561 0.985 . S
C2556 C2550 1.379 . S
C2556 C2553 1.363 . S
C2556 N2554 1.356 . S
C2557 C2551 1.363 . S
C2557 C2552 1.379 . S
C2557 N2555 1.356 . S
N2558 C2550 1.356 . S
N2558 H2564 0.984 . S
N2558 H2565 0.984 . S
N2559 C2552 1.356 . S
N2559 H2562 0.984 . S
N2559 H2563 0.985 . S
H2560 N2555 0.984 . S
H2561 N2555 0.985 . S
H2562 N2559 0.984 . S
H2563 N2559 0.985 . S
H2564 N2558 0.984 . S
H2565 N2558 0.984 . S
H2566 N2554 0.984 . S
H2567 N2554 0.985 . S
C2568 C2569 1.363 . S
C2568 C2574 1.379 . S
C2568 N2576 1.356 . S
C2569 C2568 1.363 . S
C2569 C2575 1.363 . S
C2570 C2571 1.363 . S
C2570 C2575 1.379 . S
C2570 N2577 1.356 . S
C2571 C2570 1.363 . S
C2571 C2574 1.363 . S
N2572 C2574 1.356 . S
N2572 H2584 0.984 . S
N2572 H2585 0.985 . S
N2573 C2575 1.356 . S
N2573 H2578 0.984 . S
N2573 H2579 0.985 . S
C2574 C2568 1.379 . S
C2574 C2571 1.363 . S
C2574 N2572 1.356 . S
C2575 C2569 1.363 . S
C2575 C2570 1.379 . S
C2575 N2573 1.356 . S
N2576 C2568 1.356 . S
N2576 H2582 0.984 . S
N2576 H2583 0.984 . S
N2577 C2570 1.356 . S
N2577 H2580 0.984 . S
N2577 H2581 0.985 . S
H2578 N2573 0.984 . S
H2579 N2573 0.985 . S
H2580 N2577 0.984 . S
H2581 N2577 0.985 . S
H2582 N2576 0.984 . S
H2583 N2576 0.984 . S
H2584 N2572 0.984 . S
H2585 N2572 0.985 . S
C2586 C2587 1.363 . S
C2586 C2592 1.379 . S
C2586 N2594 1.356 . S
C2587 C2586 1.363 . S
C2587 C2593 1.363 . S
C2588 C2589 1.363 . S
C2588 C2593 1.379 . S
C2588 N2595 1.356 . S
C2589 C2588 1.363 . S
C2589 C2592 1.363 . S
N2590 C2592 1.356 . S
N2590 H2602 0.984 . S
N2590 H2603 0.985 . S
N2591 C2593 1.356 . S
N2591 H2596 0.984 . S
N2591 H2597 0.985 . S
C2592 C2586 1.379 . S
C2592 C2589 1.363 . S
C2592 N2590 1.356 . S
C2593 C2587 1.363 . S
C2593 C2588 1.379 . S
C2593 N2591 1.356 . S
N2594 C2586 1.356 . S
N2594 H2600 0.984 . S
N2594 H2601 0.984 . S
N2595 C2588 1.356 . S
N2595 H2598 0.984 . S
N2595 H2599 0.985 . S
H2596 N2591 0.984 . S
H2597 N2591 0.985 . S
H2598 N2595 0.984 . S
H2599 N2595 0.985 . S
H2600 N2594 0.984 . S
H2601 N2594 0.984 . S
H2602 N2590 0.984 . S
H2603 N2590 0.985 . S
C2604 C2605 1.363 . S
C2604 C2610 1.379 . S
C2604 N2612 1.356 . S
C2605 C2604 1.363 . S
C2605 C2611 1.363 . S
C2606 C2607 1.363 . S
C2606 C2611 1.379 . S
C2606 N2613 1.356 . S
C2607 C2606 1.363 . S
C2607 C2610 1.363 . S
N2608 C2610 1.356 . S
N2608 H2620 0.984 . S
N2608 H2621 0.985 . S
N2609 C2611 1.356 . S
N2609 H2614 0.984 . S
N2609 H2615 0.985 . S
C2610 C2604 1.379 . S
C2610 C2607 1.363 . S
C2610 N2608 1.356 . S
C2611 C2605 1.363 . S
C2611 C2606 1.379 . S
C2611 N2609 1.356 . S
N2612 C2604 1.356 . S
N2612 H2618 0.984 . S
N2612 H2619 0.984 . S
N2613 C2606 1.356 . S
N2613 H2616 0.984 . S
N2613 H2617 0.985 . S
H2614 N2609 0.984 . S
H2615 N2609 0.985 . S
H2616 N2613 0.984 . S
H2617 N2613 0.985 . S
H2618 N2612 0.984 . S
H2619 N2612 0.984 . S
H2620 N2608 0.984 . S
H2621 N2608 0.985 . S
C2622 C2623 1.363 . S
C2622 C2628 1.379 . S
C2622 N2630 1.356 . S
C2623 C2622 1.363 . S
C2623 C2629 1.363 . S
C2624 C2625 1.363 . S
C2624 C2629 1.379 . S
C2624 N2631 1.356 . S
C2625 C2624 1.363 . S
C2625 C2628 1.363 . S
N2626 C2628 1.356 . S
N2626 H2638 0.984 . S
N2626 H2639 0.985 . S
N2627 C2629 1.356 . S
N2627 H2632 0.984 . S
N2627 H2633 0.985 . S
C2628 C2622 1.379 . S
C2628 C2625 1.363 . S
C2628 N2626 1.356 . S
C2629 C2623 1.363 . S
C2629 C2624 1.379 . S
C2629 N2627 1.356 . S
N2630 C2622 1.356 . S
N2630 H2636 0.984 . S
N2630 H2637 0.984 . S
N2631 C2624 1.356 . S
N2631 H2634 0.984 . S
N2631 H2635 0.985 . S
H2632 N2627 0.984 . S
H2633 N2627 0.985 . S
H2634 N2631 0.984 . S
H2635 N2631 0.985 . S
H2636 N2630 0.984 . S
H2637 N2630 0.984 . S
H2638 N2626 0.984 . S
H2639 N2626 0.985 . S
C2640 C2641 1.363 . S
C2640 C2646 1.379 . S
C2640 N2648 1.356 . S
C2641 C2640 1.363 . S
C2641 C2647 1.363 . S
C2642 C2643 1.363 . S
C2642 C2647 1.379 . S
C2642 N2649 1.356 . S
C2643 C2642 1.363 . S
C2643 C2646 1.363 . S
N2644 C2646 1.356 . S
N2644 H2656 0.984 . S
N2644 H2657 0.985 . S
N2645 C2647 1.356 . S
N2645 H2650 0.984 . S
N2645 H2651 0.985 . S
C2646 C2640 1.379 . S
C2646 C2643 1.363 . S
C2646 N2644 1.356 . S
C2647 C2641 1.363 . S
C2647 C2642 1.379 . S
C2647 N2645 1.356 . S
N2648 C2640 1.356 . S
N2648 H2654 0.984 . S
N2648 H2655 0.984 . S
N2649 C2642 1.356 . S
N2649 H2652 0.984 . S
N2649 H2653 0.985 . S
H2650 N2645 0.984 . S
H2651 N2645 0.985 . S
H2652 N2649 0.984 . S
H2653 N2649 0.985 . S
H2654 N2648 0.984 . S
H2655 N2648 0.984 . S
H2656 N2644 0.984 . S
H2657 N2644 0.985 . S
C2658 C2659 1.363 . S
C2658 C2664 1.379 . S
C2658 N2666 1.356 . S
C2659 C2658 1.363 . S
C2659 C2665 1.363 . S
C2660 C2661 1.363 . S
C2660 C2665 1.379 . S
C2660 N2667 1.356 . S
C2661 C2660 1.363 . S
C2661 C2664 1.363 . S
N2662 C2664 1.356 . S
N2662 H2674 0.984 . S
N2662 H2675 0.985 . S
N2663 C2665 1.356 . S
N2663 H2668 0.984 . S
N2663 H2669 0.985 . S
C2664 C2658 1.379 . S
C2664 C2661 1.363 . S
C2664 N2662 1.356 . S
C2665 C2659 1.363 . S
C2665 C2660 1.379 . S
C2665 N2663 1.356 . S
N2666 C2658 1.356 . S
N2666 H2672 0.984 . S
N2666 H2673 0.984 . S
N2667 C2660 1.356 . S
N2667 H2670 0.984 . S
N2667 H2671 0.985 . S
H2668 N2663 0.984 . S
H2669 N2663 0.985 . S
H2670 N2667 0.984 . S
H2671 N2667 0.985 . S
H2672 N2666 0.984 . S
H2673 N2666 0.984 . S
H2674 N2662 0.984 . S
H2675 N2662 0.985 . S
C2676 C2677 1.363 . S
C2676 C2682 1.379 . S
C2676 N2684 1.356 . S
C2677 C2676 1.363 . S
C2677 C2683 1.363 . S
C2678 C2679 1.363 . S
C2678 C2683 1.379 . S
C2678 N2685 1.356 . S
C2679 C2678 1.363 . S
C2679 C2682 1.363 . S
N2680 C2682 1.356 . S
N2680 H2692 0.984 . S
N2680 H2693 0.985 . S
N2681 C2683 1.356 . S
N2681 H2686 0.984 . S
N2681 H2687 0.985 . S
C2682 C2676 1.379 . S
C2682 C2679 1.363 . S
C2682 N2680 1.356 . S
C2683 C2677 1.363 . S
C2683 C2678 1.379 . S
C2683 N2681 1.356 . S
N2684 C2676 1.356 . S
N2684 H2690 0.984 . S
N2684 H2691 0.984 . S
N2685 C2678 1.356 . S
N2685 H2688 0.984 . S
N2685 H2689 0.985 . S
H2686 N2681 0.984 . S
H2687 N2681 0.985 . S
H2688 N2685 0.984 . S
H2689 N2685 0.985 . S
H2690 N2684 0.984 . S
H2691 N2684 0.984 . S
H2692 N2680 0.984 . S
H2693 N2680 0.985 . S
C2694 C2695 1.363 . S
C2694 C2700 1.379 . S
C2694 N2702 1.356 . S
C2695 C2694 1.363 . S
C2695 C2701 1.363 . S
C2696 C2697 1.363 . S
C2696 C2701 1.379 . S
C2696 N2703 1.356 . S
C2697 C2696 1.363 . S
C2697 C2700 1.363 . S
N2698 C2700 1.356 . S
N2698 H2710 0.984 . S
N2698 H2711 0.985 . S
N2699 C2701 1.356 . S
N2699 H2704 0.984 . S
N2699 H2705 0.985 . S
C2700 C2694 1.379 . S
C2700 C2697 1.363 . S
C2700 N2698 1.356 . S
C2701 C2695 1.363 . S
C2701 C2696 1.379 . S
C2701 N2699 1.356 . S
N2702 C2694 1.356 . S
N2702 H2708 0.984 . S
N2702 H2709 0.984 . S
N2703 C2696 1.356 . S
N2703 H2706 0.984 . S
N2703 H2707 0.985 . S
H2704 N2699 0.984 . S
H2705 N2699 0.985 . S
H2706 N2703 0.984 . S
H2707 N2703 0.985 . S
H2708 N2702 0.984 . S
H2709 N2702 0.984 . S
H2710 N2698 0.984 . S
H2711 N2698 0.985 . S
C2712 C2713 1.363 . S
C2712 C2718 1.379 . S
C2712 N2720 1.356 . S
C2713 C2712 1.363 . S
C2713 C2719 1.363 . S
C2714 C2715 1.363 . S
C2714 C2719 1.379 . S
C2714 N2721 1.356 . S
C2715 C2714 1.363 . S
C2715 C2718 1.363 . S
N2716 C2718 1.356 . S
N2716 H2728 0.984 . S
N2716 H2729 0.985 . S
N2717 C2719 1.356 . S
N2717 H2722 0.984 . S
N2717 H2723 0.985 . S
C2718 C2712 1.379 . S
C2718 C2715 1.363 . S
C2718 N2716 1.356 . S
C2719 C2713 1.363 . S
C2719 C2714 1.379 . S
C2719 N2717 1.356 . S
N2720 C2712 1.356 . S
N2720 H2726 0.984 . S
N2720 H2727 0.984 . S
N2721 C2714 1.356 . S
N2721 H2724 0.984 . S
N2721 H2725 0.985 . S
H2722 N2717 0.984 . S
H2723 N2717 0.985 . S
H2724 N2721 0.984 . S
H2725 N2721 0.985 . S
H2726 N2720 0.984 . S
H2727 N2720 0.984 . S
H2728 N2716 0.984 . S
H2729 N2716 0.985 . S
C2730 C2731 1.363 . S
C2730 C2736 1.379 . S
C2730 N2738 1.356 . S
C2731 C2730 1.363 . S
C2731 C2737 1.363 . S
C2732 C2733 1.363 . S
C2732 C2737 1.379 . S
C2732 N2739 1.356 . S
C2733 C2732 1.363 . S
C2733 C2736 1.363 . S
N2734 C2736 1.356 . S
N2734 H2746 0.984 . S
N2734 H2747 0.985 . S
N2735 C2737 1.356 . S
N2735 H2740 0.984 . S
N2735 H2741 0.985 . S
C2736 C2730 1.379 . S
C2736 C2733 1.363 . S
C2736 N2734 1.356 . S
C2737 C2731 1.363 . S
C2737 C2732 1.379 . S
C2737 N2735 1.356 . S
N2738 C2730 1.356 . S
N2738 H2744 0.984 . S
N2738 H2745 0.984 . S
N2739 C2732 1.356 . S
N2739 H2742 0.984 . S
N2739 H2743 0.985 . S
H2740 N2735 0.984 . S
H2741 N2735 0.985 . S
H2742 N2739 0.984 . S
H2743 N2739 0.985 . S
H2744 N2738 0.984 . S
H2745 N2738 0.984 . S
H2746 N2734 0.984 . S
H2747 N2734 0.985 . S
C2748 C2749 1.363 . S
C2748 C2754 1.379 . S
C2748 N2756 1.356 . S
C2749 C2748 1.363 . S
C2749 C2755 1.363 . S
C2750 C2751 1.363 . S
C2750 C2755 1.379 . S
C2750 N2757 1.356 . S
C2751 C2750 1.363 . S
C2751 C2754 1.363 . S
N2752 C2754 1.356 . S
N2752 H2764 0.984 . S
N2752 H2765 0.985 . S
N2753 C2755 1.356 . S
N2753 H2758 0.984 . S
N2753 H2759 0.985 . S
C2754 C2748 1.379 . S
C2754 C2751 1.363 . S
C2754 N2752 1.356 . S
C2755 C2749 1.363 . S
C2755 C2750 1.379 . S
C2755 N2753 1.356 . S
N2756 C2748 1.356 . S
N2756 H2762 0.984 . S
N2756 H2763 0.984 . S
N2757 C2750 1.356 . S
N2757 H2760 0.984 . S
N2757 H2761 0.985 . S
H2758 N2753 0.984 . S
H2759 N2753 0.985 . S
H2760 N2757 0.984 . S
H2761 N2757 0.985 . S
H2762 N2756 0.984 . S
H2763 N2756 0.984 . S
H2764 N2752 0.984 . S
H2765 N2752 0.985 . S
C2766 C2767 1.363 . S
C2766 C2772 1.379 . S
C2766 N2774 1.356 . S
C2767 C2766 1.363 . S
C2767 C2773 1.363 . S
C2768 C2769 1.363 . S
C2768 C2773 1.379 . S
C2768 N2775 1.356 . S
C2769 C2768 1.363 . S
C2769 C2772 1.363 . S
N2770 C2772 1.356 . S
N2770 H2782 0.984 . S
N2770 H2783 0.985 . S
N2771 C2773 1.356 . S
N2771 H2776 0.984 . S
N2771 H2777 0.985 . S
C2772 C2766 1.379 . S
C2772 C2769 1.363 . S
C2772 N2770 1.356 . S
C2773 C2767 1.363 . S
C2773 C2768 1.379 . S
C2773 N2771 1.356 . S
N2774 C2766 1.356 . S
N2774 H2780 0.984 . S
N2774 H2781 0.984 . S
N2775 C2768 1.356 . S
N2775 H2778 0.984 . S
N2775 H2779 0.985 . S
H2776 N2771 0.984 . S
H2777 N2771 0.985 . S
H2778 N2775 0.984 . S
H2779 N2775 0.985 . S
H2780 N2774 0.984 . S
H2781 N2774 0.984 . S
H2782 N2770 0.984 . S
H2783 N2770 0.985 . S
C2784 C2785 1.363 . S
C2784 C2790 1.379 . S
C2784 N2792 1.356 . S
C2785 C2784 1.363 . S
C2785 C2791 1.363 . S
C2786 C2787 1.363 . S
C2786 C2791 1.379 . S
C2786 N2793 1.356 . S
C2787 C2786 1.363 . S
C2787 C2790 1.363 . S
N2788 C2790 1.356 . S
N2788 H2800 0.984 . S
N2788 H2801 0.985 . S
N2789 C2791 1.356 . S
N2789 H2794 0.984 . S
N2789 H2795 0.985 . S
C2790 C2784 1.379 . S
C2790 C2787 1.363 . S
C2790 N2788 1.356 . S
C2791 C2785 1.363 . S
C2791 C2786 1.379 . S
C2791 N2789 1.356 . S
N2792 C2784 1.356 . S
N2792 H2798 0.984 . S
N2792 H2799 0.984 . S
N2793 C2786 1.356 . S
N2793 H2796 0.984 . S
N2793 H2797 0.985 . S
H2794 N2789 0.984 . S
H2795 N2789 0.985 . S
H2796 N2793 0.984 . S
H2797 N2793 0.985 . S
H2798 N2792 0.984 . S
H2799 N2792 0.984 . S
H2800 N2788 0.984 . S
H2801 N2788 0.985 . S
C2802 C2803 1.363 . S
C2802 C2808 1.379 . S
C2802 N2810 1.356 . S
C2803 C2802 1.363 . S
C2803 C2809 1.363 . S
C2804 C2805 1.363 . S
C2804 C2809 1.379 . S
C2804 N2811 1.356 . S
C2805 C2804 1.363 . S
C2805 C2808 1.363 . S
N2806 C2808 1.356 . S
N2806 H2818 0.984 . S
N2806 H2819 0.985 . S
N2807 C2809 1.356 . S
N2807 H2812 0.984 . S
N2807 H2813 0.985 . S
C2808 C2802 1.379 . S
C2808 C2805 1.363 . S
C2808 N2806 1.356 . S
C2809 C2803 1.363 . S
C2809 C2804 1.379 . S
C2809 N2807 1.356 . S
N2810 C2802 1.356 . S
N2810 H2816 0.984 . S
N2810 H2817 0.984 . S
N2811 C2804 1.356 . S
N2811 H2814 0.984 . S
N2811 H2815 0.985 . S
H2812 N2807 0.984 . S
H2813 N2807 0.985 . S
H2814 N2811 0.984 . S
H2815 N2811 0.985 . S
H2816 N2810 0.984 . S
H2817 N2810 0.984 . S
H2818 N2806 0.984 . S
H2819 N2806 0.985 . S
C2820 C2821 1.363 . S
C2820 C2826 1.379 . S
C2820 N2828 1.356 . S
C2821 C2820 1.363 . S
C2821 C2827 1.363 . S
C2822 C2823 1.363 . S
C2822 C2827 1.379 . S
C2822 N2829 1.356 . S
C2823 C2822 1.363 . S
C2823 C2826 1.363 . S
N2824 C2826 1.356 . S
N2824 H2836 0.984 . S
N2824 H2837 0.985 . S
N2825 C2827 1.356 . S
N2825 H2830 0.984 . S
N2825 H2831 0.985 . S
C2826 C2820 1.379 . S
C2826 C2823 1.363 . S
C2826 N2824 1.356 . S
C2827 C2821 1.363 . S
C2827 C2822 1.379 . S
C2827 N2825 1.356 . S
N2828 C2820 1.356 . S
N2828 H2834 0.984 . S
N2828 H2835 0.984 . S
N2829 C2822 1.356 . S
N2829 H2832 0.984 . S
N2829 H2833 0.985 . S
H2830 N2825 0.984 . S
H2831 N2825 0.985 . S
H2832 N2829 0.984 . S
H2833 N2829 0.985 . S
H2834 N2828 0.984 . S
H2835 N2828 0.984 . S
H2836 N2824 0.984 . S
H2837 N2824 0.985 . S
C2838 C2839 1.363 . S
C2838 C2844 1.379 . S
C2838 N2846 1.356 . S
C2839 C2838 1.363 . S
C2839 C2845 1.363 . S
C2840 C2841 1.363 . S
C2840 C2845 1.379 . S
C2840 N2847 1.356 . S
C2841 C2840 1.363 . S
C2841 C2844 1.363 . S
N2842 C2844 1.356 . S
N2842 H2854 0.984 . S
N2842 H2855 0.985 . S
N2843 C2845 1.356 . S
N2843 H2848 0.984 . S
N2843 H2849 0.985 . S
C2844 C2838 1.379 . S
C2844 C2841 1.363 . S
C2844 N2842 1.356 . S
C2845 C2839 1.363 . S
C2845 C2840 1.379 . S
C2845 N2843 1.356 . S
N2846 C2838 1.356 . S
N2846 H2852 0.984 . S
N2846 H2853 0.984 . S
N2847 C2840 1.356 . S
N2847 H2850 0.984 . S
N2847 H2851 0.985 . S
H2848 N2843 0.984 . S
H2849 N2843 0.985 . S
H2850 N2847 0.984 . S
H2851 N2847 0.985 . S
H2852 N2846 0.984 . S
H2853 N2846 0.984 . S
H2854 N2842 0.984 . S
H2855 N2842 0.985 . S
C2856 C2857 1.363 . S
C2856 C2862 1.379 . S
C2856 N2864 1.356 . S
C2857 C2856 1.363 . S
C2857 C2863 1.363 . S
C2858 C2859 1.363 . S
C2858 C2863 1.379 . S
C2858 N2865 1.356 . S
C2859 C2858 1.363 . S
C2859 C2862 1.363 . S
N2860 C2862 1.356 . S
N2860 H2872 0.984 . S
N2860 H2873 0.985 . S
N2861 C2863 1.356 . S
N2861 H2866 0.984 . S
N2861 H2867 0.985 . S
C2862 C2856 1.379 . S
C2862 C2859 1.363 . S
C2862 N2860 1.356 . S
C2863 C2857 1.363 . S
C2863 C2858 1.379 . S
C2863 N2861 1.356 . S
N2864 C2856 1.356 . S
N2864 H2870 0.984 . S
N2864 H2871 0.984 . S
N2865 C2858 1.356 . S
N2865 H2868 0.984 . S
N2865 H2869 0.985 . S
H2866 N2861 0.984 . S
H2867 N2861 0.985 . S
H2868 N2865 0.984 . S
H2869 N2865 0.985 . S
H2870 N2864 0.984 . S
H2871 N2864 0.984 . S
H2872 N2860 0.984 . S
H2873 N2860 0.985 . S
C2874 C2875 1.363 . S
C2874 C2880 1.379 . S
C2874 N2882 1.356 . S
C2875 C2874 1.363 . S
C2875 C2881 1.363 . S
C2876 C2877 1.363 . S
C2876 C2881 1.379 . S
C2876 N2883 1.356 . S
C2877 C2876 1.363 . S
C2877 C2880 1.363 . S
N2878 C2880 1.356 . S
N2878 H2890 0.984 . S
N2878 H2891 0.985 . S
N2879 C2881 1.356 . S
N2879 H2884 0.984 . S
N2879 H2885 0.985 . S
C2880 C2874 1.379 . S
C2880 C2877 1.363 . S
C2880 N2878 1.356 . S
C2881 C2875 1.363 . S
C2881 C2876 1.379 . S
C2881 N2879 1.356 . S
N2882 C2874 1.356 . S
N2882 H2888 0.984 . S
N2882 H2889 0.984 . S
N2883 C2876 1.356 . S
N2883 H2886 0.984 . S
N2883 H2887 0.985 . S
H2884 N2879 0.984 . S
H2885 N2879 0.985 . S
H2886 N2883 0.984 . S
H2887 N2883 0.985 . S
H2888 N2882 0.984 . S
H2889 N2882 0.984 . S
H2890 N2878 0.984 . S
H2891 N2878 0.985 . S
C2892 C2893 1.363 . S
C2892 C2898 1.379 . S
C2892 N2900 1.356 . S
C2893 C2892 1.363 . S
C2893 C2899 1.363 . S
C2894 C2895 1.363 . S
C2894 C2899 1.379 . S
C2894 N2901 1.356 . S
C2895 C2894 1.363 . S
C2895 C2898 1.363 . S
N2896 C2898 1.356 . S
N2896 H2908 0.984 . S
N2896 H2909 0.985 . S
N2897 C2899 1.356 . S
N2897 H2902 0.984 . S
N2897 H2903 0.985 . S
C2898 C2892 1.379 . S
C2898 C2895 1.363 . S
C2898 N2896 1.356 . S
C2899 C2893 1.363 . S
C2899 C2894 1.379 . S
C2899 N2897 1.356 . S
N2900 C2892 1.356 . S
N2900 H2906 0.984 . S
N2900 H2907 0.984 . S
N2901 C2894 1.356 . S
N2901 H2904 0.984 . S
N2901 H2905 0.985 . S
H2902 N2897 0.984 . S
H2903 N2897 0.985 . S
H2904 N2901 0.984 . S
H2905 N2901 0.985 . S
H2906 N2900 0.984 . S
H2907 N2900 0.984 . S
H2908 N2896 0.984 . S
H2909 N2896 0.985 . S
C2910 C2911 1.363 . S
C2910 C2916 1.379 . S
C2910 N2918 1.356 . S
C2911 C2910 1.363 . S
C2911 C2917 1.363 . S
C2912 C2913 1.363 . S
C2912 C2917 1.379 . S
C2912 N2919 1.356 . S
C2913 C2912 1.363 . S
C2913 C2916 1.363 . S
N2914 C2916 1.356 . S
N2914 H2926 0.984 . S
N2914 H2927 0.985 . S
N2915 C2917 1.356 . S
N2915 H2920 0.984 . S
N2915 H2921 0.985 . S
C2916 C2910 1.379 . S
C2916 C2913 1.363 . S
C2916 N2914 1.356 . S
C2917 C2911 1.363 . S
C2917 C2912 1.379 . S
C2917 N2915 1.356 . S
N2918 C2910 1.356 . S
N2918 H2924 0.984 . S
N2918 H2925 0.984 . S
N2919 C2912 1.356 . S
N2919 H2922 0.984 . S
N2919 H2923 0.985 . S
H2920 N2915 0.984 . S
H2921 N2915 0.985 . S
H2922 N2919 0.984 . S
H2923 N2919 0.985 . S
H2924 N2918 0.984 . S
H2925 N2918 0.984 . S
H2926 N2914 0.984 . S
H2927 N2914 0.985 . S
C2928 C2929 1.363 . S
C2928 C2934 1.379 . S
C2928 N2936 1.356 . S
C2929 C2928 1.363 . S
C2929 C2935 1.363 . S
C2930 C2931 1.363 . S
C2930 C2935 1.379 . S
C2930 N2937 1.356 . S
C2931 C2930 1.363 . S
C2931 C2934 1.363 . S
N2932 C2934 1.356 . S
N2932 H2944 0.984 . S
N2932 H2945 0.985 . S
N2933 C2935 1.356 . S
N2933 H2938 0.984 . S
N2933 H2939 0.985 . S
C2934 C2928 1.379 . S
C2934 C2931 1.363 . S
C2934 N2932 1.356 . S
C2935 C2929 1.363 . S
C2935 C2930 1.379 . S
C2935 N2933 1.356 . S
N2936 C2928 1.356 . S
N2936 H2942 0.984 . S
N2936 H2943 0.984 . S
N2937 C2930 1.356 . S
N2937 H2940 0.984 . S
N2937 H2941 0.985 . S
H2938 N2933 0.984 . S
H2939 N2933 0.985 . S
H2940 N2937 0.984 . S
H2941 N2937 0.985 . S
H2942 N2936 0.984 . S
H2943 N2936 0.984 . S
H2944 N2932 0.984 . S
H2945 N2932 0.985 . S
C2946 C2947 1.363 . S
C2946 C2952 1.379 . S
C2946 N2954 1.356 . S
C2947 C2946 1.363 . S
C2947 C2953 1.363 . S
C2948 C2949 1.363 . S
C2948 C2953 1.379 . S
C2948 N2955 1.356 . S
C2949 C2948 1.363 . S
C2949 C2952 1.363 . S
N2950 C2952 1.356 . S
N2950 H2962 0.984 . S
N2950 H2963 0.985 . S
N2951 C2953 1.356 . S
N2951 H2956 0.984 . S
N2951 H2957 0.985 . S
C2952 C2946 1.379 . S
C2952 C2949 1.363 . S
C2952 N2950 1.356 . S
C2953 C2947 1.363 . S
C2953 C2948 1.379 . S
C2953 N2951 1.356 . S
N2954 C2946 1.356 . S
N2954 H2960 0.984 . S
N2954 H2961 0.984 . S
N2955 C2948 1.356 . S
N2955 H2958 0.982 . S
N2955 H2959 0.995 . S
H2956 N2951 0.984 . S
H2957 N2951 0.985 . S
H2958 N2955 0.982 . S
H2959 N2955 0.995 . S
H2960 N2954 0.984 . S
H2961 N2954 0.984 . S
H2962 N2950 0.984 . S
H2963 N2950 0.985 . S
C2964 C2965 1.363 . S
C2964 C2970 1.379 . S
C2964 N2972 1.356 . S
C2965 C2964 1.363 . S
C2965 C2971 1.363 . S
C2966 C2967 1.363 . S
C2966 C2971 1.379 . S
C2966 N2973 1.356 . S
C2967 C2966 1.363 . S
C2967 C2970 1.363 . S
N2968 C2970 1.356 . S
N2968 H2980 0.984 . S
N2968 H2981 0.985 . S
N2969 C2971 1.356 . S
N2969 H2974 0.984 . S
N2969 H2975 0.985 . S
C2970 C2964 1.379 . S
C2970 C2967 1.363 . S
C2970 N2968 1.356 . S
C2971 C2965 1.363 . S
C2971 C2966 1.379 . S
C2971 N2969 1.356 . S
N2972 C2964 1.356 . S
N2972 H2978 0.984 . S
N2972 H2979 0.984 . S
N2973 C2966 1.356 . S
N2973 H2976 0.984 . S
N2973 H2977 0.985 . S
H2974 N2969 0.984 . S
H2975 N2969 0.985 . S
H2976 N2973 0.984 . S
H2977 N2973 0.985 . S
H2978 N2972 0.984 . S
H2979 N2972 0.984 . S
H2980 N2968 0.984 . S
H2981 N2968 0.985 . S
C2982 C2983 1.363 . S
C2982 C2988 1.379 . S
C2982 N2990 1.356 . S
C2983 C2982 1.363 . S
C2983 C2989 1.363 . S
C2984 C2985 1.363 . S
C2984 C2989 1.379 . S
C2984 N2991 1.356 . S
C2985 C2984 1.363 . S
C2985 C2988 1.363 . S
N2986 C2988 1.356 . S
N2986 H2998 0.984 . S
N2986 H2999 0.985 . S
N2987 C2989 1.356 . S
N2987 H2992 0.984 . S
N2987 H2993 0.985 . S
C2988 C2982 1.379 . S
C2988 C2985 1.363 . S
C2988 N2986 1.356 . S
C2989 C2983 1.363 . S
C2989 C2984 1.379 . S
C2989 N2987 1.356 . S
N2990 C2982 1.356 . S
N2990 H2996 0.984 . S
N2990 H2997 0.984 . S
N2991 C2984 1.356 . S
N2991 H2994 0.984 . S
N2991 H2995 0.985 . S
H2992 N2987 0.984 . S
H2993 N2987 0.985 . S
H2994 N2991 0.984 . S
H2995 N2991 0.985 . S
H2996 N2990 0.984 . S
H2997 N2990 0.984 . S
H2998 N2986 0.984 . S
H2999 N2986 0.985 . S
C3000 C3001 1.363 . S
C3000 C3006 1.379 . S
C3000 N3008 1.356 . S
C3001 C3000 1.363 . S
C3001 C3007 1.363 . S
C3002 C3003 1.363 . S
C3002 C3007 1.379 . S
C3002 N3009 1.356 . S
C3003 C3002 1.363 . S
C3003 C3006 1.363 . S
N3004 C3006 1.356 . S
N3004 H3016 0.984 . S
N3004 H3017 0.985 . S
N3005 C3007 1.356 . S
N3005 H3010 0.984 . S
N3005 H3011 0.985 . S
C3006 C3000 1.379 . S
C3006 C3003 1.363 . S
C3006 N3004 1.356 . S
C3007 C3001 1.363 . S
C3007 C3002 1.379 . S
C3007 N3005 1.356 . S
N3008 C3000 1.356 . S
N3008 H3014 0.984 . S
N3008 H3015 0.984 . S
N3009 C3002 1.356 . S
N3009 H3012 0.984 . S
N3009 H3013 0.985 . S
H3010 N3005 0.984 . S
H3011 N3005 0.985 . S
H3012 N3009 0.984 . S
H3013 N3009 0.985 . S
H3014 N3008 0.984 . S
H3015 N3008 0.984 . S
H3016 N3004 0.984 . S
H3017 N3004 0.985 . S
C3018 C3019 1.363 . S
C3018 C3024 1.379 . S
C3018 N3026 1.356 . S
C3019 C3018 1.363 . S
C3019 C3025 1.363 . S
C3020 C3021 1.363 . S
C3020 C3025 1.379 . S
C3020 N3027 1.356 . S
C3021 C3020 1.363 . S
C3021 C3024 1.363 . S
N3022 C3024 1.356 . S
N3022 H3034 0.984 . S
N3022 H3035 0.985 . S
N3023 C3025 1.356 . S
N3023 H3028 0.984 . S
N3023 H3029 0.985 . S
C3024 C3018 1.379 . S
C3024 C3021 1.363 . S
C3024 N3022 1.356 . S
C3025 C3019 1.363 . S
C3025 C3020 1.379 . S
C3025 N3023 1.356 . S
N3026 C3018 1.356 . S
N3026 H3032 0.984 . S
N3026 H3033 0.984 . S
N3027 C3020 1.356 . S
N3027 H3030 0.984 . S
N3027 H3031 0.985 . S
H3028 N3023 0.984 . S
H3029 N3023 0.985 . S
H3030 N3027 0.984 . S
H3031 N3027 0.985 . S
H3032 N3026 0.984 . S
H3033 N3026 0.984 . S
H3034 N3022 0.984 . S
H3035 N3022 0.985 . S
C3036 C3037 1.363 . S
C3036 C3042 1.379 . S
C3036 N3044 1.356 . S
C3037 C3036 1.363 . S
C3037 C3043 1.363 . S
C3038 C3039 1.363 . S
C3038 C3043 1.379 . S
C3038 N3045 1.356 . S
C3039 C3038 1.363 . S
C3039 C3042 1.363 . S
N3040 C3042 1.356 . S
N3040 H3052 0.984 . S
N3040 H3053 0.985 . S
N3041 C3043 1.356 . S
N3041 H3046 0.984 . S
N3041 H3047 0.985 . S
C3042 C3036 1.379 . S
C3042 C3039 1.363 . S
C3042 N3040 1.356 . S
C3043 C3037 1.363 . S
C3043 C3038 1.379 . S
C3043 N3041 1.356 . S
N3044 C3036 1.356 . S
N3044 H3050 0.984 . S
N3044 H3051 0.984 . S
N3045 C3038 1.356 . S
N3045 H3048 0.984 . S
N3045 H3049 0.985 . S
H3046 N3041 0.984 . S
H3047 N3041 0.985 . S
H3048 N3045 0.984 . S
H3049 N3045 0.985 . S
H3050 N3044 0.984 . S
H3051 N3044 0.984 . S
H3052 N3040 0.984 . S
H3053 N3040 0.985 . S
C3054 C3055 1.363 . S
C3054 C3060 1.379 . S
C3054 N3062 1.356 . S
C3055 C3054 1.363 . S
C3055 C3061 1.363 . S
C3056 C3057 1.363 . S
C3056 C3061 1.379 . S
C3056 N3063 1.356 . S
C3057 C3056 1.363 . S
C3057 C3060 1.363 . S
N3058 C3060 1.356 . S
N3058 H3070 0.984 . S
N3058 H3071 0.985 . S
N3059 C3061 1.356 . S
N3059 H3064 0.984 . S
N3059 H3065 0.985 . S
C3060 C3054 1.379 . S
C3060 C3057 1.363 . S
C3060 N3058 1.356 . S
C3061 C3055 1.363 . S
C3061 C3056 1.379 . S
C3061 N3059 1.356 . S
N3062 C3054 1.356 . S
N3062 H3068 0.984 . S
N3062 H3069 0.984 . S
N3063 C3056 1.356 . S
N3063 H3066 0.984 . S
N3063 H3067 0.985 . S
H3064 N3059 0.984 . S
H3065 N3059 0.985 . S
H3066 N3063 0.984 . S
H3067 N3063 0.985 . S
H3068 N3062 0.984 . S
H3069 N3062 0.984 . S
H3070 N3058 0.984 . S
H3071 N3058 0.985 . S
C3072 C3073 1.363 . S
C3072 C3078 1.379 . S
C3072 N3080 1.356 . S
C3073 C3072 1.363 . S
C3073 C3079 1.363 . S
C3074 C3075 1.363 . S
C3074 C3079 1.379 . S
C3074 N3081 1.356 . S
C3075 C3074 1.363 . S
C3075 C3078 1.363 . S
N3076 C3078 1.356 . S
N3076 H3088 0.984 . S
N3076 H3089 0.985 . S
N3077 C3079 1.356 . S
N3077 H3082 0.984 . S
N3077 H3083 0.985 . S
C3078 C3072 1.379 . S
C3078 C3075 1.363 . S
C3078 N3076 1.356 . S
C3079 C3073 1.363 . S
C3079 C3074 1.379 . S
C3079 N3077 1.356 . S
N3080 C3072 1.356 . S
N3080 H3086 0.984 . S
N3080 H3087 0.984 . S
N3081 C3074 1.356 . S
N3081 H3084 0.984 . S
N3081 H3085 0.985 . S
H3082 N3077 0.984 . S
H3083 N3077 0.985 . S
H3084 N3081 0.984 . S
H3085 N3081 0.985 . S
H3086 N3080 0.984 . S
H3087 N3080 0.984 . S
H3088 N3076 0.984 . S
H3089 N3076 0.985 . S
C3090 C3091 1.363 . S
C3090 C3096 1.379 . S
C3090 N3098 1.356 . S
C3091 C3090 1.363 . S
C3091 C3097 1.363 . S
C3092 C3093 1.363 . S
C3092 C3097 1.379 . S
C3092 N3099 1.356 . S
C3093 C3092 1.363 . S
C3093 C3096 1.363 . S
N3094 C3096 1.356 . S
N3094 H3106 0.984 . S
N3094 H3107 0.985 . S
N3095 C3097 1.356 . S
N3095 H3100 0.984 . S
N3095 H3101 0.985 . S
C3096 C3090 1.379 . S
C3096 C3093 1.363 . S
C3096 N3094 1.356 . S
C3097 C3091 1.363 . S
C3097 C3092 1.379 . S
C3097 N3095 1.356 . S
N3098 C3090 1.356 . S
N3098 H3104 0.984 . S
N3098 H3105 0.984 . S
N3099 C3092 1.356 . S
N3099 H3102 0.984 . S
N3099 H3103 0.985 . S
H3100 N3095 0.984 . S
H3101 N3095 0.985 . S
H3102 N3099 0.984 . S
H3103 N3099 0.985 . S
H3104 N3098 0.984 . S
H3105 N3098 0.984 . S
H3106 N3094 0.984 . S
H3107 N3094 0.985 . S
C3108 C3109 1.363 . S
C3108 C3114 1.379 . S
C3108 N3116 1.356 . S
C3109 C3108 1.363 . S
C3109 C3115 1.363 . S
C3110 C3111 1.363 . S
C3110 C3115 1.379 . S
C3110 N3117 1.356 . S
C3111 C3110 1.363 . S
C3111 C3114 1.363 . S
N3112 C3114 1.356 . S
N3112 H3124 0.984 . S
N3112 H3125 0.985 . S
N3113 C3115 1.356 . S
N3113 H3118 0.984 . S
N3113 H3119 0.985 . S
C3114 C3108 1.379 . S
C3114 C3111 1.363 . S
C3114 N3112 1.356 . S
C3115 C3109 1.363 . S
C3115 C3110 1.379 . S
C3115 N3113 1.356 . S
N3116 C3108 1.356 . S
N3116 H3122 0.984 . S
N3116 H3123 0.984 . S
N3117 C3110 1.356 . S
N3117 H3120 0.984 . S
N3117 H3121 0.985 . S
H3118 N3113 0.984 . S
H3119 N3113 0.985 . S
H3120 N3117 0.984 . S
H3121 N3117 0.985 . S
H3122 N3116 0.984 . S
H3123 N3116 0.984 . S
H3124 N3112 0.984 . S
H3125 N3112 0.985 . S
C3126 C3127 1.363 . S
C3126 C3132 1.379 . S
C3126 N3134 1.356 . S
C3127 C3126 1.363 . S
C3127 C3133 1.363 . S
C3128 C3129 1.363 . S
C3128 C3133 1.379 . S
C3128 N3135 1.356 . S
C3129 C3128 1.363 . S
C3129 C3132 1.363 . S
N3130 C3132 1.356 . S
N3130 H3142 0.984 . S
N3130 H3143 0.985 . S
N3131 C3133 1.356 . S
N3131 H3136 0.984 . S
N3131 H3137 0.985 . S
C3132 C3126 1.379 . S
C3132 C3129 1.363 . S
C3132 N3130 1.356 . S
C3133 C3127 1.363 . S
C3133 C3128 1.379 . S
C3133 N3131 1.356 . S
N3134 C3126 1.356 . S
N3134 H3140 0.984 . S
N3134 H3141 0.984 . S
N3135 C3128 1.356 . S
N3135 H3138 0.984 . S
N3135 H3139 0.985 . S
H3136 N3131 0.984 . S
H3137 N3131 0.985 . S
H3138 N3135 0.984 . S
H3139 N3135 0.985 . S
H3140 N3134 0.984 . S
H3141 N3134 0.984 . S
H3142 N3130 0.984 . S
H3143 N3130 0.985 . S
C3144 C3145 1.363 . S
C3144 C3150 1.379 . S
C3144 N3152 1.356 . S
C3145 C3144 1.363 . S
C3145 C3151 1.363 . S
C3146 C3147 1.363 . S
C3146 C3151 1.379 . S
C3146 N3153 1.356 . S
C3147 C3146 1.363 . S
C3147 C3150 1.363 . S
N3148 C3150 1.356 . S
N3148 H3160 0.984 . S
N3148 H3161 0.985 . S
N3149 C3151 1.356 . S
N3149 H3154 0.984 . S
N3149 H3155 0.985 . S
C3150 C3144 1.379 . S
C3150 C3147 1.363 . S
C3150 N3148 1.356 . S
C3151 C3145 1.363 . S
C3151 C3146 1.379 . S
C3151 N3149 1.356 . S
N3152 C3144 1.356 . S
N3152 H3158 0.984 . S
N3152 H3159 0.984 . S
N3153 C3146 1.356 . S
N3153 H3156 0.984 . S
N3153 H3157 0.985 . S
H3154 N3149 0.984 . S
H3155 N3149 0.985 . S
H3156 N3153 0.984 . S
H3157 N3153 0.985 . S
H3158 N3152 0.984 . S
H3159 N3152 0.984 . S
H3160 N3148 0.984 . S
H3161 N3148 0.985 . S
C3162 C3163 1.363 . S
C3162 C3168 1.379 . S
C3162 N3170 1.356 . S
C3163 C3162 1.363 . S
C3163 C3169 1.363 . S
C3164 C3165 1.363 . S
C3164 C3169 1.379 . S
C3164 N3171 1.356 . S
C3165 C3164 1.363 . S
C3165 C3168 1.363 . S
N3166 C3168 1.356 . S
N3166 H3178 0.984 . S
N3166 H3179 0.985 . S
N3167 C3169 1.356 . S
N3167 H3172 0.984 . S
N3167 H3173 0.985 . S
C3168 C3162 1.379 . S
C3168 C3165 1.363 . S
C3168 N3166 1.356 . S
C3169 C3163 1.363 . S
C3169 C3164 1.379 . S
C3169 N3167 1.356 . S
N3170 C3162 1.356 . S
N3170 H3176 0.984 . S
N3170 H3177 0.984 . S
N3171 C3164 1.356 . S
N3171 H3174 0.984 . S
N3171 H3175 0.985 . S
H3172 N3167 0.984 . S
H3173 N3167 0.985 . S
H3174 N3171 0.984 . S
H3175 N3171 0.985 . S
H3176 N3170 0.984 . S
H3177 N3170 0.984 . S
H3178 N3166 0.984 . S
H3179 N3166 0.985 . S
C3180 C3181 1.363 . S
C3180 C3186 1.379 . S
C3180 N3188 1.356 . S
C3181 C3180 1.363 . S
C3181 C3187 1.363 . S
C3182 C3183 1.363 . S
C3182 C3187 1.379 . S
C3182 N3189 1.356 . S
C3183 C3182 1.363 . S
C3183 C3186 1.363 . S
N3184 C3186 1.356 . S
N3184 H3196 0.984 . S
N3184 H3197 0.985 . S
N3185 C3187 1.356 . S
N3185 H3190 0.984 . S
N3185 H3191 0.985 . S
C3186 C3180 1.379 . S
C3186 C3183 1.363 . S
C3186 N3184 1.356 . S
C3187 C3181 1.363 . S
C3187 C3182 1.379 . S
C3187 N3185 1.356 . S
N3188 C3180 1.356 . S
N3188 H3194 0.984 . S
N3188 H3195 0.984 . S
N3189 C3182 1.356 . S
N3189 H3192 0.984 . S
N3189 H3193 0.985 . S
H3190 N3185 0.984 . S
H3191 N3185 0.985 . S
H3192 N3189 0.984 . S
H3193 N3189 0.985 . S
H3194 N3188 0.984 . S
H3195 N3188 0.984 . S
H3196 N3184 0.984 . S
H3197 N3184 0.985 . S
C3198 C3199 1.363 . S
C3198 C3204 1.379 . S
C3198 N3206 1.356 . S
C3199 C3198 1.363 . S
C3199 C3205 1.363 . S
C3200 C3201 1.363 . S
C3200 C3205 1.379 . S
C3200 N3207 1.356 . S
C3201 C3200 1.363 . S
C3201 C3204 1.363 . S
N3202 C3204 1.356 . S
N3202 H3214 0.984 . S
N3202 H3215 0.985 . S
N3203 C3205 1.356 . S
N3203 H3208 0.984 . S
N3203 H3209 0.985 . S
C3204 C3198 1.379 . S
C3204 C3201 1.363 . S
C3204 N3202 1.356 . S
C3205 C3199 1.363 . S
C3205 C3200 1.379 . S
C3205 N3203 1.356 . S
N3206 C3198 1.356 . S
N3206 H3212 0.984 . S
N3206 H3213 0.984 . S
N3207 C3200 1.356 . S
N3207 H3210 0.984 . S
N3207 H3211 0.985 . S
H3208 N3203 0.984 . S
H3209 N3203 0.985 . S
H3210 N3207 0.984 . S
H3211 N3207 0.985 . S
H3212 N3206 0.984 . S
H3213 N3206 0.984 . S
H3214 N3202 0.984 . S
H3215 N3202 0.985 . S
C3216 C3217 1.363 . S
C3216 C3222 1.379 . S
C3216 N3224 1.356 . S
C3217 C3216 1.363 . S
C3217 C3223 1.363 . S
C3218 C3219 1.363 . S
C3218 C3223 1.379 . S
C3218 N3225 1.356 . S
C3219 C3218 1.363 . S
C3219 C3222 1.363 . S
N3220 C3222 1.356 . S
N3220 H3232 0.984 . S
N3220 H3233 0.985 . S
N3221 C3223 1.356 . S
N3221 H3226 0.984 . S
N3221 H3227 0.985 . S
C3222 C3216 1.379 . S
C3222 C3219 1.363 . S
C3222 N3220 1.356 . S
C3223 C3217 1.363 . S
C3223 C3218 1.379 . S
C3223 N3221 1.356 . S
N3224 C3216 1.356 . S
N3224 H3230 0.984 . S
N3224 H3231 0.984 . S
N3225 C3218 1.356 . S
N3225 H3228 0.984 . S
N3225 H3229 0.985 . S
H3226 N3221 0.984 . S
H3227 N3221 0.985 . S
H3228 N3225 0.984 . S
H3229 N3225 0.985 . S
H3230 N3224 0.984 . S
H3231 N3224 0.984 . S
H3232 N3220 0.984 . S
H3233 N3220 0.985 . S
C3234 C3235 1.363 . S
C3234 C3240 1.379 . S
C3234 N3242 1.356 . S
C3235 C3234 1.363 . S
C3235 C3241 1.363 . S
C3236 C3237 1.363 . S
C3236 C3241 1.379 . S
C3236 N3243 1.356 . S
C3237 C3236 1.363 . S
C3237 C3240 1.363 . S
N3238 C3240 1.356 . S
N3238 H3250 0.984 . S
N3238 H3251 0.985 . S
N3239 C3241 1.356 . S
N3239 H3244 0.984 . S
N3239 H3245 0.985 . S
C3240 C3234 1.379 . S
C3240 C3237 1.363 . S
C3240 N3238 1.356 . S
C3241 C3235 1.363 . S
C3241 C3236 1.379 . S
C3241 N3239 1.356 . S
N3242 C3234 1.356 . S
N3242 H3248 0.984 . S
N3242 H3249 0.984 . S
N3243 C3236 1.356 . S
N3243 H3246 0.984 . S
N3243 H3247 0.985 . S
H3244 N3239 0.984 . S
H3245 N3239 0.985 . S
H3246 N3243 0.984 . S
H3247 N3243 0.985 . S
H3248 N3242 0.984 . S
H3249 N3242 0.984 . S
H3250 N3238 0.984 . S
H3251 N3238 0.985 . S
C3252 C3253 1.363 . S
C3252 C3258 1.379 . S
C3252 N3260 1.356 . S
C3253 C3252 1.363 . S
C3253 C3259 1.363 . S
C3254 C3255 1.363 . S
C3254 C3259 1.379 . S
C3254 N3261 1.356 . S
C3255 C3254 1.363 . S
C3255 C3258 1.363 . S
N3256 C3258 1.356 . S
N3256 H3268 0.984 . S
N3256 H3269 0.985 . S
N3257 C3259 1.356 . S
N3257 H3262 0.984 . S
N3257 H3263 0.985 . S
C3258 C3252 1.379 . S
C3258 C3255 1.363 . S
C3258 N3256 1.356 . S
C3259 C3253 1.363 . S
C3259 C3254 1.379 . S
C3259 N3257 1.356 . S
N3260 C3252 1.356 . S
N3260 H3266 0.984 . S
N3260 H3267 0.984 . S
N3261 C3254 1.356 . S
N3261 H3264 0.984 . S
N3261 H3265 0.985 . S
H3262 N3257 0.984 . S
H3263 N3257 0.985 . S
H3264 N3261 0.984 . S
H3265 N3261 0.985 . S
H3266 N3260 0.984 . S
H3267 N3260 0.984 . S
H3268 N3256 0.984 . S
H3269 N3256 0.985 . S
C3270 C3271 1.363 . S
C3270 C3276 1.379 . S
C3270 N3278 1.356 . S
C3271 C3270 1.363 . S
C3271 C3277 1.363 . S
C3272 C3273 1.363 . S
C3272 C3277 1.379 . S
C3272 N3279 1.356 . S
C3273 C3272 1.363 . S
C3273 C3276 1.363 . S
N3274 C3276 1.356 . S
N3274 H3286 0.984 . S
N3274 H3287 0.985 . S
N3275 C3277 1.356 . S
N3275 H3280 0.984 . S
N3275 H3281 0.985 . S
C3276 C3270 1.379 . S
C3276 C3273 1.363 . S
C3276 N3274 1.356 . S
C3277 C3271 1.363 . S
C3277 C3272 1.379 . S
C3277 N3275 1.356 . S
N3278 C3270 1.356 . S
N3278 H3284 0.984 . S
N3278 H3285 0.984 . S
N3279 C3272 1.356 . S
N3279 H3282 0.984 . S
N3279 H3283 0.985 . S
H3280 N3275 0.984 . S
H3281 N3275 0.985 . S
H3282 N3279 0.984 . S
H3283 N3279 0.985 . S
H3284 N3278 0.984 . S
H3285 N3278 0.984 . S
H3286 N3274 0.984 . S
H3287 N3274 0.985 . S
C3288 C3289 1.363 . S
C3288 C3294 1.379 . S
C3288 N3296 1.356 . S
C3289 C3288 1.363 . S
C3289 C3295 1.363 . S
C3290 C3291 1.363 . S
C3290 C3295 1.379 . S
C3290 N3297 1.356 . S
C3291 C3290 1.363 . S
C3291 C3294 1.363 . S
N3292 C3294 1.356 . S
N3292 H3304 0.984 . S
N3292 H3305 0.985 . S
N3293 C3295 1.356 . S
N3293 H3298 0.984 . S
N3293 H3299 0.985 . S
C3294 C3288 1.379 . S
C3294 C3291 1.363 . S
C3294 N3292 1.356 . S
C3295 C3289 1.363 . S
C3295 C3290 1.379 . S
C3295 N3293 1.356 . S
N3296 C3288 1.356 . S
N3296 H3302 0.984 . S
N3296 H3303 0.984 . S
N3297 C3290 1.356 . S
N3297 H3300 0.984 . S
N3297 H3301 0.985 . S
H3298 N3293 0.984 . S
H3299 N3293 0.985 . S
H3300 N3297 0.984 . S
H3301 N3297 0.985 . S
H3302 N3296 0.984 . S
H3303 N3296 0.984 . S
H3304 N3292 0.984 . S
H3305 N3292 0.985 . S
C3306 C3307 1.363 . S
C3306 C3312 1.379 . S
C3306 N3314 1.356 . S
C3307 C3306 1.363 . S
C3307 C3313 1.363 . S
C3308 C3309 1.363 . S
C3308 C3313 1.379 . S
C3308 N3315 1.356 . S
C3309 C3308 1.363 . S
C3309 C3312 1.363 . S
N3310 C3312 1.356 . S
N3310 H3322 0.984 . S
N3310 H3323 0.985 . S
N3311 C3313 1.356 . S
N3311 H3316 0.984 . S
N3311 H3317 0.985 . S
C3312 C3306 1.379 . S
C3312 C3309 1.363 . S
C3312 N3310 1.356 . S
C3313 C3307 1.363 . S
C3313 C3308 1.379 . S
C3313 N3311 1.356 . S
N3314 C3306 1.356 . S
N3314 H3320 0.984 . S
N3314 H3321 0.984 . S
N3315 C3308 1.356 . S
N3315 H3318 0.984 . S
N3315 H3319 0.985 . S
H3316 N3311 0.984 . S
H3317 N3311 0.985 . S
H3318 N3315 0.984 . S
H3319 N3315 0.985 . S
H3320 N3314 0.984 . S
H3321 N3314 0.984 . S
H3322 N3310 0.984 . S
H3323 N3310 0.985 . S
C3324 C3325 1.363 . S
C3324 C3330 1.379 . S
C3324 N3332 1.356 . S
C3325 C3324 1.363 . S
C3325 C3331 1.363 . S
C3326 C3327 1.363 . S
C3326 C3331 1.379 . S
C3326 N3333 1.356 . S
C3327 C3326 1.363 . S
C3327 C3330 1.363 . S
N3328 C3330 1.356 . S
N3328 H3340 0.984 . S
N3328 H3341 0.985 . S
N3329 C3331 1.356 . S
N3329 H3334 0.984 . S
N3329 H3335 0.985 . S
C3330 C3324 1.379 . S
C3330 C3327 1.363 . S
C3330 N3328 1.356 . S
C3331 C3325 1.363 . S
C3331 C3326 1.379 . S
C3331 N3329 1.356 . S
N3332 C3324 1.356 . S
N3332 H3338 0.984 . S
N3332 H3339 0.984 . S
N3333 C3326 1.356 . S
N3333 H3336 0.984 . S
N3333 H3337 0.985 . S
H3334 N3329 0.984 . S
H3335 N3329 0.985 . S
H3336 N3333 0.984 . S
H3337 N3333 0.985 . S
H3338 N3332 0.984 . S
H3339 N3332 0.984 . S
H3340 N3328 0.984 . S
H3341 N3328 0.985 . S
C3342 C3343 1.363 . S
C3342 C3348 1.379 . S
C3342 N3350 1.356 . S
C3343 C3342 1.363 . S
C3343 C3349 1.363 . S
C3344 C3345 1.363 . S
C3344 C3349 1.379 . S
C3344 N3351 1.356 . S
C3345 C3344 1.363 . S
C3345 C3348 1.363 . S
N3346 C3348 1.356 . S
N3346 H3358 0.984 . S
N3346 H3359 0.985 . S
N3347 C3349 1.356 . S
N3347 H3352 0.984 . S
N3347 H3353 0.985 . S
C3348 C3342 1.379 . S
C3348 C3345 1.363 . S
C3348 N3346 1.356 . S
C3349 C3343 1.363 . S
C3349 C3344 1.379 . S
C3349 N3347 1.356 . S
N3350 C3342 1.356 . S
N3350 H3356 0.984 . S
N3350 H3357 0.984 . S
N3351 C3344 1.356 . S
N3351 H3354 0.984 . S
N3351 H3355 0.985 . S
H3352 N3347 0.984 . S
H3353 N3347 0.985 . S
H3354 N3351 0.984 . S
H3355 N3351 0.985 . S
H3356 N3350 0.984 . S
H3357 N3350 0.984 . S
H3358 N3346 0.984 . S
H3359 N3346 0.985 . S
C3360 C3361 1.363 . S
C3360 C3366 1.379 . S
C3360 N3368 1.356 . S
C3361 C3360 1.363 . S
C3361 C3367 1.363 . S
C3362 C3363 1.363 . S
C3362 C3367 1.379 . S
C3362 N3369 1.356 . S
C3363 C3362 1.363 . S
C3363 C3366 1.363 . S
N3364 C3366 1.356 . S
N3364 H3376 0.984 . S
N3364 H3377 0.985 . S
N3365 C3367 1.356 . S
N3365 H3370 0.984 . S
N3365 H3371 0.985 . S
C3366 C3360 1.379 . S
C3366 C3363 1.363 . S
C3366 N3364 1.356 . S
C3367 C3361 1.363 . S
C3367 C3362 1.379 . S
C3367 N3365 1.356 . S
N3368 C3360 1.356 . S
N3368 H3374 0.984 . S
N3368 H3375 0.984 . S
N3369 C3362 1.356 . S
N3369 H3372 0.984 . S
N3369 H3373 0.985 . S
H3370 N3365 0.984 . S
H3371 N3365 0.985 . S
H3372 N3369 0.984 . S
H3373 N3369 0.985 . S
H3374 N3368 0.984 . S
H3375 N3368 0.984 . S
H3376 N3364 0.984 . S
H3377 N3364 0.985 . S
C3378 C3379 1.363 . S
C3378 C3384 1.379 . S
C3378 N3386 1.356 . S
C3379 C3378 1.363 . S
C3379 C3385 1.363 . S
C3380 C3381 1.363 . S
C3380 C3385 1.379 . S
C3380 N3387 1.356 . S
C3381 C3380 1.363 . S
C3381 C3384 1.363 . S
N3382 C3384 1.356 . S
N3382 H3394 0.984 . S
N3382 H3395 0.985 . S
N3383 C3385 1.356 . S
N3383 H3388 0.984 . S
N3383 H3389 0.985 . S
C3384 C3378 1.379 . S
C3384 C3381 1.363 . S
C3384 N3382 1.356 . S
C3385 C3379 1.363 . S
C3385 C3380 1.379 . S
C3385 N3383 1.356 . S
N3386 C3378 1.356 . S
N3386 H3392 0.984 . S
N3386 H3393 0.984 . S
N3387 C3380 1.356 . S
N3387 H3390 0.984 . S
N3387 H3391 0.985 . S
H3388 N3383 0.984 . S
H3389 N3383 0.985 . S
H3390 N3387 0.984 . S
H3391 N3387 0.985 . S
H3392 N3386 0.984 . S
H3393 N3386 0.984 . S
H3394 N3382 0.984 . S
H3395 N3382 0.985 . S
C3396 C3397 1.363 . S
C3396 C3402 1.379 . S
C3396 N3404 1.356 . S
C3397 C3396 1.363 . S
C3397 C3403 1.363 . S
C3398 C3399 1.363 . S
C3398 C3403 1.379 . S
C3398 N3405 1.356 . S
C3399 C3398 1.363 . S
C3399 C3402 1.363 . S
N3400 C3402 1.356 . S
N3400 H3412 0.984 . S
N3400 H3413 0.985 . S
N3401 C3403 1.356 . S
N3401 H3406 0.984 . S
N3401 H3407 0.985 . S
C3402 C3396 1.379 . S
C3402 C3399 1.363 . S
C3402 N3400 1.356 . S
C3403 C3397 1.363 . S
C3403 C3398 1.379 . S
C3403 N3401 1.356 . S
N3404 C3396 1.356 . S
N3404 H3410 0.984 . S
N3404 H3411 0.984 . S
N3405 C3398 1.356 . S
N3405 H3408 0.984 . S
N3405 H3409 0.985 . S
H3406 N3401 0.984 . S
H3407 N3401 0.985 . S
H3408 N3405 0.984 . S
H3409 N3405 0.985 . S
H3410 N3404 0.984 . S
H3411 N3404 0.984 . S
H3412 N3400 0.984 . S
H3413 N3400 0.985 . S
C3414 C3415 1.363 . S
C3414 C3420 1.379 . S
C3414 N3422 1.356 . S
C3415 C3414 1.363 . S
C3415 C3421 1.363 . S
C3416 C3417 1.363 . S
C3416 C3421 1.379 . S
C3416 N3423 1.356 . S
C3417 C3416 1.363 . S
C3417 C3420 1.363 . S
N3418 C3420 1.356 . S
N3418 H3430 0.984 . S
N3418 H3431 0.985 . S
N3419 C3421 1.356 . S
N3419 H3424 0.984 . S
N3419 H3425 0.985 . S
C3420 C3414 1.379 . S
C3420 C3417 1.363 . S
C3420 N3418 1.356 . S
C3421 C3415 1.363 . S
C3421 C3416 1.379 . S
C3421 N3419 1.356 . S
N3422 C3414 1.356 . S
N3422 H3428 0.984 . S
N3422 H3429 0.984 . S
N3423 C3416 1.356 . S
N3423 H3426 0.984 . S
N3423 H3427 0.985 . S
H3424 N3419 0.984 . S
H3425 N3419 0.985 . S
H3426 N3423 0.984 . S
H3427 N3423 0.985 . S
H3428 N3422 0.984 . S
H3429 N3422 0.984 . S
H3430 N3418 0.984 . S
H3431 N3418 0.985 . S
C1707 N1164 1.460 . S
C1705 C31 1.504 . S
C1725 C1191 1.594 . S
C1723 C61 1.595 . S
C1741 C73 1.524 . S
C1743 C1205 1.518 . S
C1761 N1223 1.450 . S
C1759 C133 1.479 . S
C1777 C175 1.576 . S
C1779 C1228 1.581 . S
C1795 C211 1.516 . S
C1797 C1168 1.525 . S
C1813 C241 1.437 . S
C1815 N1187 1.399 . S
C1833 N1200 1.456 . S
C1831 C253 1.495 . S
C1851 N1246 1.411 . S
C1849 C1 1.445 . S
C1867 C37 1.532 . S
C1869 N1269 1.507 . S
C1885 C103 1.586 . S
C1887 N1292 1.578 . S
C1905 N1325 1.425 . S
C1903 C139 1.470 . S
C1921 C145 1.544 . S
C1923 C1352 1.537 . S
C1941 C1375 1.578 . S
C1939 C205 1.578 . S
C1957 C247 1.518 . S
C1959 C1398 1.527 . S
C1977 C1412 1.447 . S
C1975 C283 1.452 . S
C1993 C25 1.449 . S
C1995 C1329 1.454 . S
C2011 C169 1.479 . S
C2013 N1371 1.448 . S
C2031 N1394 1.441 . S
C2029 C181 1.486 . S
C2047 C217 1.484 . S
C2049 N1407 1.454 . S
C2067 N1348 1.413 . S
C2065 C277 1.466 . S
C2085 C1274 1.665 . S
C2083 C97 1.667 . S
C2101 C109 1.524 . S
C2103 C1297 1.525 . S
C2121 C1251 1.604 . S
C2119 C67 1.605 . S
C2139 C1444 1.466 . S
C2137 C319 1.460 . S
C2155 C349 1.602 . S
C2157 C1458 1.600 . S
C2173 C361 1.516 . S
C2175 N1486 1.461 . S
C2193 N1499 1.437 . S
C2191 C421 1.466 . S
C2209 C463 1.589 . S
C2211 C1504 1.594 . S
C2227 C499 1.515 . S
C2229 N1440 1.463 . S
C2245 C529 1.526 . S
C2247 N1453 1.505 . S
C2263 C541 1.461 . S
C2265 C1490 1.453 . S
C2283 N1338 1.421 . S
C2281 C289 1.447 . S
C2299 C325 1.514 . S
C2301 N1522 1.465 . S
C2319 N1384 1.462 . S
C2317 C391 1.488 . S
C2335 C427 1.534 . S
C2337 C1559 1.545 . S
C2353 C433 1.581 . S
C2355 C1260 1.583 . S
C2373 C1573 1.604 . S
C2371 C493 1.605 . S
C2389 C535 1.547 . S
C2391 C1306 1.551 . S
C2409 N1591 1.404 . S
C2407 C571 1.445 . S
C2425 C313 1.465 . S
C2427 N1555 1.427 . S
C2445 N1568 1.481 . S
C2443 C457 1.511 . S
C2461 C469 1.490 . S
C2463 N1302 1.438 . S
C2481 C1596 1.447 . S
C2479 C505 1.442 . S
C2497 C565 1.442 . S
C2499 N1256 1.399 . S
C2515 C385 1.572 . S
C2517 C1527 1.572 . S
C2533 C397 1.567 . S
C2535 C1389 1.569 . S
C2551 C355 1.594 . S
C2553 C1343 1.598 . S
C2569 C607 1.521 . S
C2571 C1481 1.529 . S
C2589 C1513 1.541 . S
C2587 C637 1.548 . S
C2605 C649 1.487 . S
C2607 N1430 1.446 . S
C2623 C709 1.455 . S
C2625 N1463 1.421 . S
C2641 C751 1.590 . S
C2643 C1467 1.592 . S
C2659 C787 1.553 . S
C2661 N1476 1.532 . S
C2679 N1509 1.371 . S
C2677 C817 1.410 . S
C2695 C829 1.500 . S
C2697 C1435 1.499 . S
C2715 N1624 1.432 . S
C2713 C577 1.471 . S
C2731 C613 1.470 . S
C2733 N1361 1.437 . S
C2751 N1647 1.395 . S
C2749 C679 1.454 . S
C2767 C715 1.515 . S
C2769 N1417 1.472 . S
C2785 C721 1.550 . S
C2787 C1665 1.555 . S
C2803 C781 1.665 . S
C2805 C1283 1.666 . S
C2823 N1683 1.400 . S
C2821 C823 1.432 . S
C2839 C859 1.493 . S
C2841 C1320 1.493 . S
C2859 C1421 1.502 . S
C2857 C601 1.495 . S
C2877 N1279 1.482 . S
C2875 C745 1.530 . S
C2893 C757 1.580 . S
C2895 C1688 1.576 . S
C2911 C793 1.404 . S
C2913 N1315 1.365 . S
C2931 N1660 1.475 . S
C2929 C853 1.500 . S
C2949 C1366 1.580 . S
C2947 C673 1.578 . S
C2967 C1651 1.579 . S
C2965 C685 1.576 . S
C2985 C1628 1.574 . S
C2983 C643 1.566 . S
C3001 C895 1.416 . S
C3003 N1210 1.377 . S
C3019 C925 1.565 . S
C3021 C1237 1.559 . S
C3039 C1159 1.549 . S
C3037 C937 1.550 . S
C3057 N1177 1.389 . S
C3055 C997 1.417 . S
C3075 C1182 1.600 . S
C3073 C1039 1.601 . S
C3093 C1214 1.553 . S
C3091 C1075 1.539 . S
C3111 N1233 1.496 . S
C3109 C1105 1.541 . S
C3127 C1117 1.525 . S
C3129 N1154 1.493 . S
C3145 C865 1.392 . S
C3147 N1670 1.353 . S
C3165 N1578 1.460 . S
C3163 C901 1.494 . S
C3183 C1697 1.611 . S
C3181 C967 1.599 . S
C3201 C1605 1.406 . S
C3199 C1003 1.401 . S
C3217 C1009 1.575 . S
C3219 C1619 1.577 . S
C3237 C1536 1.589 . S
C3235 C1069 1.593 . S
C3255 C1642 1.652 . S
C3253 C1111 1.648 . S
C3271 C1147 1.501 . S
C3273 N1545 1.446 . S
C3291 N1601 1.357 . S
C3289 C889 1.390 . S
C3309 N1532 1.451 . S
C3307 C1033 1.480 . S
C3327 N1637 1.408 . S
C3325 C1045 1.435 . S
C3343 C1081 1.512 . S
C3345 C1550 1.519 . S
C3361 C1141 1.456 . S
C3363 N1614 1.417 . S
C3379 C961 1.666 . S
C3381 C1582 1.665 . S
C3397 C973 1.442 . S
C3399 N1693 1.407 . S
C3417 C1674 1.551 . S
C3415 C931 1.551 . S
