# Generated by pormake.
# Topology rtl, (3,6)-cn, num edge types: 1
# Building blocks:
#     Node 0, Type 0, BuildingBlock: KAKCAD_clean_linker_0, # of connection points: 3
#     Node 1, Type 0, BuildingBlock: KAKCAD_clean_linker_0, # of connection points: 3
#     Node 2, Type 0, BuildingBlock: KAKCAD_clean_linker_0, # of connection points: 3
#     Node 3, Type 0, BuildingBlock: KAKCAD_clean_linker_0, # of connection points: 3
#     Node 4, Type 1, BuildingBlock: CIFDUS_clean_sbu_1, # of connection points: 6
#     Node 5, Type 1, BuildingBlock: CIFDUS_clean_sbu_1, # of connection points: 6
#     Edge 6, Type (0, 1), BuildingBlock: XUDNAN_clean_linker_2, # of connection points: 2
#     Edge 7, Type (0, 1), BuildingBlock: XUDNAN_clean_linker_2, # of connection points: 2
#     Edge 8, Type (0, 1), BuildingBlock: XUDNAN_clean_linker_2, # of connection points: 2
#     Edge 9, Type (0, 1), BuildingBlock: XUDNAN_clean_linker_2, # of connection points: 2
#     Edge 10, Type (0, 1), BuildingBlock: XUDNAN_clean_linker_2, # of connection points: 2
#     Edge 11, Type (0, 1), BuildingBlock: XUDNAN_clean_linker_2, # of connection points: 2
#     Edge 12, Type (0, 1), BuildingBlock: XUDNAN_clean_linker_2, # of connection points: 2
#     Edge 13, Type (0, 1), BuildingBlock: XUDNAN_clean_linker_2, # of connection points: 2
#     Edge 14, Type (0, 1), BuildingBlock: XUDNAN_clean_linker_2, # of connection points: 2
#     Edge 15, Type (0, 1), BuildingBlock: XUDNAN_clean_linker_2, # of connection points: 2
#     Edge 16, Type (0, 1), BuildingBlock: XUDNAN_clean_linker_2, # of connection points: 2
#     Edge 17, Type (0, 1), BuildingBlock: XUDNAN_clean_linker_2, # of connection points: 2
# Relax obj value: 0.028
# Max RMSD: 0.063
# Mean RMSD: 0.048
data_MOF--net-rtl--node1-CIFDUS_clean_sbu_1--node2-KAKCAD_clean_linker_0--edge1-XUDNAN_clean_linker_2
_symmetry_space_group_name_H-M    P1
_symmetry_Int_Tables_number       1
_symmetry_cell_setting            triclinic
loop_
_symmetry_equiv_pos_as_xyz
'x, y, z'
_cell_length_a     37.469116
_cell_length_b     42.472782
_cell_length_c     29.56466
_cell_angle_alpha  89.921229
_cell_angle_beta   97.624256
_cell_angle_gamma 90.148975
loop_
_atom_site_label
_atom_site_type_symbol
_atom_site_fract_x
_atom_site_fract_y
_atom_site_fract_z
_atom_type_partial_charge
C0 C 0.20651 0.89563 0.9314 0.0
C1 C 0.19595 0.92651 0.91939 0.0
C2 C 0.22653 0.88926 0.97359 0.0
C3 C 0.23626 0.91359 0.00505 0.0
C4 C 0.22603 0.94463 0.99299 0.0
C5 C 0.20633 0.9511 0.95023 0.0
C6 C 0.25622 0.90579 0.05053 0.0
C7 C 0.2854 0.88495 0.05335 0.0
C8 C 0.30073 0.87207 0.09534 0.0
C9 C 0.28877 0.88378 0.13535 0.0
C10 C 0.25992 0.90537 0.1339 0.0
C11 C 0.24366 0.91594 0.09076 0.0
C12 C 0.24531 0.91486 0.17708 0.0
C13 C 0.2507 0.89563 0.21624 0.0
C14 C 0.22535 0.94279 0.17982 0.0
C15 C 0.21037 0.95042 0.21952 0.0
C16 C 0.21607 0.9311 0.25869 0.0
C17 C 0.32588 0.84419 0.09691 0.0
C18 C 0.32576 0.8244 0.05858 0.0
C19 C 0.3479 0.83519 0.13738 0.0
C20 C 0.36642 0.80646 0.14036 0.0
C21 C 0.36495 0.78627 0.10242 0.0
C22 C 0.34563 0.79658 0.06099 0.0
C23 C 0.2376 0.90414 0.25642 0.0
H24 H 0.19905 0.8763 0.90815 0.0
H25 H 0.23369 0.86507 0.98205 0.0
H26 H 0.23326 0.96381 0.01658 0.0
H27 H 0.19836 0.97512 0.94176 0.0
H28 H 0.29523 0.87824 0.02198 0.0
H29 H 0.22 0.93073 0.08785 0.0
H30 H 0.30132 0.87532 0.16784 0.0
H31 H 0.26459 0.87338 0.21654 0.0
H32 H 0.22096 0.95894 0.15134 0.0
H33 H 0.19396 0.97134 0.21873 0.0
H34 H 0.30931 0.8293 0.02654 0.0
H35 H 0.35058 0.84977 0.16755 0.0
H36 H 0.24461 0.88895 0.28554 0.0
H37 H 0.34493 0.78291 0.03006 0.0
H38 H 0.38096 0.79986 0.17305 0.0
C39 C 0.69401 0.62957 0.74285 0.0
C40 C 0.68985 0.59658 0.74193 0.0
C41 C 0.70846 0.64532 0.70774 0.0
C42 C 0.71882 0.62847 0.67076 0.0
C43 C 0.71561 0.59548 0.67051 0.0
C44 C 0.70144 0.57976 0.70564 0.0
C45 C 0.73167 0.64499 0.63153 0.0
C46 C 0.75635 0.67009 0.63824 0.0
C47 C 0.76935 0.68453 0.60084 0.0
C48 C 0.75735 0.67371 0.55644 0.0
C49 C 0.73149 0.64948 0.5488 0.0
C50 C 0.71889 0.63544 0.5868 0.0
C51 C 0.71651 0.63958 0.50144 0.0
C52 C 0.71245 0.66145 0.46534 0.0
C53 C 0.70466 0.60845 0.4922 0.0
C54 C 0.68775 0.5999 0.44892 0.0
C55 C 0.68306 0.62196 0.41303 0.0
C56 C 0.79506 0.71133 0.60769 0.0
C57 C 0.7872 0.73795 0.63271 0.0
C58 C 0.8268 0.7111 0.58734 0.0
C59 C 0.84983 0.73719 0.591 0.0
C60 C 0.84128 0.76466 0.61411 0.0
C61 C 0.80986 0.7644 0.63557 0.0
C62 C 0.69649 0.65266 0.42174 0.0
H63 H 0.68504 0.64342 0.7699 0.0
H64 H 0.71036 0.67076 0.70877 0.0
H65 H 0.72401 0.58174 0.64295 0.0
H66 H 0.69954 0.55433 0.70422 0.0
H67 H 0.76618 0.67788 0.67254 0.0
H68 H 0.69815 0.61751 0.5818 0.0
H69 H 0.76791 0.68464 0.52786 0.0
H70 H 0.72072 0.68573 0.47075 0.0
H71 H 0.70803 0.59055 0.5185 0.0
H72 H 0.67761 0.57609 0.44421 0.0
H73 H 0.76275 0.73878 0.64853 0.0
H74 H 0.83375 0.6907 0.56836 0.0
H75 H 0.69446 0.67024 0.39501 0.0
H76 H 0.80189 0.78502 0.65319 0.0
H77 H 0.87422 0.7358 0.57518 0.0
C78 C 0.79622 0.14285 0.17217 0.0
C79 C 0.83184 0.13196 0.17905 0.0
C80 C 0.77953 0.15008 0.12818 0.0
C81 C 0.79838 0.14723 0.09013 0.0
C82 C 0.83417 0.13631 0.09745 0.0
C83 C 0.85051 0.12847 0.14124 0.0
C84 C 0.78145 0.15661 0.04334 0.0
C85 C 0.75676 0.18171 0.03731 0.0
C86 C 0.74269 0.19207 0.99349 0.0
C87 C 0.75364 0.17742 0.95513 0.0
C88 C 0.77772 0.15188 0.96004 0.0
C89 C 0.79101 0.14143 1.00429 0.0
C90 C 0.78979 0.13684 0.91903 0.0
C91 C 0.76581 0.13299 0.87856 0.0
C92 C 0.82574 0.12713 0.9195 0.0
C93 C 0.83754 0.11462 0.8803 0.0
C94 C 0.81376 0.11163 0.83952 0.0
C95 C 0.71722 0.21887 0.98788 0.0
C96 C 0.68495 0.21772 0.0072 0.0
C97 C 0.72519 0.24588 0.96359 0.0
C98 C 0.70156 0.27151 0.9593 0.0
C99 C 0.66912 0.27023 0.97822 0.0
C100 C 0.6609 0.24305 1.00195 0.0
C101 C 0.77765 0.12063 0.83933 0.0
H102 H 0.78109 0.1453 0.20075 0.0
H103 H 0.75176 0.1577 0.12412 0.0
H104 H 0.85004 0.13441 0.06955 0.0
H105 H 0.87811 0.12026 0.1457 0.0
H106 H 0.74938 0.19421 0.06659 0.0
H107 H 0.80869 0.12121 0.00825 0.0
H108 H 0.7435 0.18619 0.92145 0.0
H109 H 0.73777 0.13955 0.87711 0.0
H110 H 0.84517 0.13009 0.94975 0.0
H111 H 0.86565 0.10833 0.88158 0.0
H112 H 0.67824 0.19712 0.02605 0.0
H113 H 0.75002 0.24733 0.94862 0.0
H114 H 0.75847 0.11816 0.80874 0.0
H115 H 0.63617 0.24165 0.01714 0.0
H116 H 0.70846 0.29226 0.94093 0.0
C117 C 0.25492 0.44069 0.3445 0.0
C118 C 0.29196 0.4399 0.34095 0.0
C119 C 0.24179 0.428 0.38297 0.0
C120 C 0.26563 0.41507 0.41889 0.0
C121 C 0.30265 0.41464 0.41539 0.0
C122 C 0.31562 0.42667 0.37672 0.0
C123 C 0.25252 0.40208 0.46034 0.0
C124 C 0.22719 0.37743 0.45717 0.0
C125 C 0.21878 0.3622 0.49684 0.0
C126 C 0.2346 0.37305 0.53994 0.0
C127 C 0.25967 0.39778 0.54344 0.0
C128 C 0.26845 0.41211 0.50355 0.0
C129 C 0.28049 0.40616 0.58794 0.0
C130 C 0.2638 0.41777 0.62441 0.0
C131 C 0.31804 0.40351 0.59315 0.0
C132 C 0.33877 0.41345 0.63313 0.0
C133 C 0.32262 0.42707 0.66874 0.0
C134 C 0.19753 0.33247 0.49307 0.0
C135 C 0.16505 0.32988 0.46335 0.0
C136 C 0.21104 0.30571 0.51757 0.0
C137 C 0.19305 0.27687 0.51173 0.0
C138 C 0.16089 0.27415 0.48169 0.0
C139 C 0.14664 0.30102 0.45813 0.0
C140 C 0.28477 0.42833 0.66456 0.0
H141 H 0.23615 0.45064 0.31723 0.0
H142 H 0.21314 0.42862 0.38497 0.0
H143 H 0.32158 0.40463 0.44247 0.0
H144 H 0.3443 0.42586 0.37488 0.0
H145 H 0.21614 0.36862 0.42383 0.0
H146 H 0.28855 0.43068 0.50614 0.0
H147 H 0.22885 0.36119 0.57067 0.0
H148 H 0.23476 0.41981 0.62111 0.0
H149 H 0.33147 0.39407 0.56586 0.0
H150 H 0.36774 0.41111 0.63566 0.0
H151 H 0.15404 0.35014 0.44406 0.0
H152 H 0.23619 0.30681 0.54029 0.0
H153 H 0.27149 0.43861 0.69136 0.0
H154 H 0.12182 0.29948 0.43484 0.0
H155 H 0.2044 0.25657 0.53061 0.0
O156 O 0.98204 0.04267 0.48895 0.0
Mn157 Mn 0.01107 0.01925 0.54602 0.0
O158 O 0.96198 0.00518 0.44004 0.0
Mn159 Mn 0.99104 0.97646 0.47163 0.0
O160 O 0.04012 0.99744 0.60404 0.0
O161 O 0.03346 0.06224 0.562 0.0
Mn162 Mn 0.03646 0.06623 0.62182 0.0
O163 O 0.96809 0.02949 0.58278 0.0
O164 O 0.06784 0.03597 0.64713 0.0
O165 O 0.05594 0.00999 0.51123 0.0
O166 O 0.03701 0.97452 0.45806 0.0
O167 O 0.05403 0.10323 0.60265 0.0
O168 O 0.9903 0.06422 0.63709 0.0
C169 C 0.97282 0.9471 0.51832 0.0
C170 C 0.96355 0.03374 0.45142 0.0
C171 C 0.06297 0.00702 0.63771 0.0
C172 C 0.04748 0.09033 0.56273 0.0
C173 C 0.9648 0.04739 0.61713 0.0
C174 C 0.06158 0.99157 0.47852 0.0
O175 O 0.98733 0.97468 0.53148 0.0
O176 O 0.97051 0.93962 0.4755 0.0
O177 O 0.53214 0.53364 0.10469 0.0
Mn178 Mn 0.49965 0.5156 0.04706 0.0
O179 O 0.5512 0.49317 0.15006 0.0
Mn180 Mn 0.52061 0.46457 0.11788 0.0
O181 O 0.46789 0.49871 0.98766 0.0
O182 O 0.47904 0.56089 0.03701 0.0
Mn183 Mn 0.492 0.56816 0.98243 0.0
O184 O 0.54253 0.52147 0.00808 0.0
O185 O 0.46898 0.54028 0.9407 0.0
O186 O 0.45689 0.50705 0.08614 0.0
O187 O 0.47381 0.46492 0.12972 0.0
O188 O 0.46916 0.60362 0.99231 0.0
O189 O 0.54106 0.57063 0.98424 0.0
C190 C 0.53453 0.44336 0.05858 0.0
C191 C 0.55111 0.52234 0.14045 0.0
C192 C 0.46045 0.51192 0.94825 0.0
C193 C 0.466 0.58957 0.03058 0.0
C194 C 0.55712 0.54462 0.9896 0.0
C195 C 0.45066 0.48564 0.11519 0.0
O196 O 0.5203 0.47136 0.0588 0.0
O197 O 0.53918 0.42874 0.09738 0.0
H198 H 0.0919 0.25851 0.49416 0.0
H199 H 0.19046 0.21948 0.45662 0.0
H200 H 0.16369 0.16616 0.4544 0.0
H201 H 0.07895 0.202 0.57149 0.0
H202 H 0.03049 0.20075 0.55993 0.0
H203 H 0.05417 0.23589 0.54792 0.0
H204 H 0.02324 0.23415 0.46413 0.0
H205 H 0.9999 0.19848 0.47591 0.0
H206 H 0.02731 0.19941 0.43024 0.0
H207 H 0.13043 0.11666 0.46831 0.0
H208 H 0.0973 0.07621 0.50658 0.0
H209 H 0.02075 0.14674 0.53619 0.0
C210 C 0.10721 0.2388 0.48382 0.0
C211 C 0.14297 0.24301 0.47486 0.0
C212 C 0.16286 0.21665 0.46319 0.0
C213 C 0.14776 0.18633 0.46148 0.0
C214 C 0.11264 0.1827 0.47147 0.0
C215 C 0.09262 0.20828 0.48255 0.0
C216 C 0.05785 0.19764 0.49881 0.0
C217 C 0.05526 0.20976 0.5474 0.0
C218 C 0.02514 0.20805 0.46526 0.0
C219 C 0.06245 0.16218 0.49777 0.0
C220 C 0.09359 0.15394 0.48034 0.0
C221 C 0.10548 0.12273 0.48083 0.0
C222 C 0.08626 0.09974 0.50208 0.0
C223 C 0.05597 0.10831 0.52302 0.0
C224 C 0.04302 0.1395 0.51871 0.0
H225 H 0.34468 0.73329 0.05096 0.0
H226 H 0.42457 0.76553 0.16157 0.0
H227 H 0.45154 0.7126 0.16628 0.0
H228 H 0.33509 0.65297 0.08293 0.0
H229 H 0.33425 0.63865 0.02541 0.0
H230 H 0.31796 0.67759 0.03525 0.0
H231 H 0.3623 0.70194 0.98442 0.0
H232 H 0.37777 0.66307 0.97328 0.0
H233 H 0.40954 0.69273 0.99628 0.0
H234 H 0.47364 0.65663 0.15348 0.0
H235 H 0.49291 0.6081 0.11708 0.0
H236 H 0.40052 0.61486 0.01338 0.0
C237 C 0.368 0.72981 0.07616 0.0
C238 C 0.38202 0.75422 0.106 0.0
C239 C 0.41235 0.74746 0.13881 0.0
C240 C 0.42807 0.71731 0.14173 0.0
C241 C 0.41354 0.69408 0.11137 0.0
C242 C 0.38455 0.70035 0.0787 0.0
C243 C 0.37669 0.67319 0.04595 0.0
C244 C 0.33874 0.65981 0.04752 0.0
C245 C 0.3819 0.68333 0.99713 0.0
C246 C 0.40544 0.65024 0.06559 0.0
C247 C 0.42638 0.66245 0.10359 0.0
C248 C 0.45696 0.64663 0.12431 0.0
C249 C 0.46748 0.61875 0.10398 0.0
C250 C 0.44762 0.60729 0.06336 0.0
C251 C 0.41533 0.62243 0.04553 0.0
H252 H 0.87861 0.78468 0.54555 0.0
H253 H 0.85473 0.81177 0.67983 0.0
H254 H 0.88894 0.86126 0.67431 0.0
H255 H 0.97051 0.8145 0.55964 0.0
H256 H 0.96692 0.82627 0.50062 0.0
H257 H 0.94133 0.79315 0.51682 0.0
H258 H 0.88246 0.81933 0.47838 0.0
H259 H 0.90781 0.85253 0.46224 0.0
H260 H 0.87131 0.85847 0.49532 0.0
H261 H 0.92393 0.91134 0.64905 0.0
H262 H 0.95478 0.95259 0.60771 0.0
H263 H 0.95871 0.88671 0.49638 0.0
C264 C 0.8812 0.80032 0.57466 0.0
C265 C 0.86382 0.79385 0.6132 0.0
C266 C 0.86725 0.81609 0.64947 0.0
C267 C 0.88696 0.84427 0.64685 0.0
C268 C 0.90362 0.84979 0.60806 0.0
C269 C 0.90111 0.828 0.57299 0.0
C270 C 0.92034 0.83905 0.53429 0.0
C271 C 0.95164 0.81693 0.52748 0.0
C272 C 0.89391 0.84256 0.48998 0.0
C273 C 0.93389 0.87061 0.55257 0.0
C274 C 0.92411 0.87698 0.59495 0.0
C275 C 0.93207 0.90625 0.61605 0.0
C276 C 0.94972 0.92955 0.59255 0.0
C277 C 0.95913 0.92315 0.54864 0.0
C278 C 0.95189 0.89286 0.52972 0.0
H279 H 0.6837 0.33001 0.00875 0.0
H280 H 0.59837 0.27126 0.94096 0.0
H281 H 0.55605 0.31621 0.93827 0.0
H282 H 0.6301 0.36536 0.08137 0.0
H283 H 0.65243 0.40305 0.08256 0.0
H284 H 0.67644 0.36798 0.07139 0.0
H285 H 0.69145 0.39283 0.99593 0.0
H286 H 0.66662 0.42777 0.00651 0.0
H287 H 0.65542 0.40635 0.95393 0.0
H288 H 0.52161 0.36562 0.95119 0.0
H289 H 0.49672 0.41119 0.98856 0.0
H290 H 0.60408 0.43753 0.0486 0.0
C291 C 0.65633 0.32699 0.99221 0.0
C292 C 0.64431 0.2975 0.97425 0.0
C293 C 0.60804 0.29387 0.95445 0.0
C294 C 0.58397 0.31932 0.95248 0.0
C295 C 0.59658 0.34821 0.9707 0.0
C296 C 0.63187 0.35199 0.9907 0.0
C297 C 0.63749 0.38375 0.01374 0.0
C298 C 0.64981 0.37979 0.06529 0.0
C299 C 0.66434 0.40386 0.99116 0.0
C300 C 0.59973 0.39711 1.00443 0.0
C301 C 0.57662 0.37657 0.97869 0.0
C302 C 0.53961 0.38226 0.9703 0.0
C303 C 0.52566 0.40851 0.991 0.0
C304 C 0.54867 0.42849 0.01988 0.0
C305 C 0.58622 0.42351 0.02473 0.0
H306 H 0.18844 0.98819 0.28778 0.0
H307 H 0.20174 0.88939 0.32654 0.0
H308 H 0.17702 0.90013 0.39657 0.0
H309 H 0.19927 0.02299 0.40301 0.0
H310 H 0.16276 0.05036 0.38914 0.0
H311 H 0.18895 0.03767 0.34554 0.0
H312 H 0.13098 0.01868 0.29521 0.0
H313 H 0.10471 0.03197 0.33811 0.0
H314 H 0.10115 0.99168 0.31887 0.0
H315 H 0.14801 0.91922 0.46069 0.0
H316 H 0.10275 0.94196 0.50424 0.0
H317 H 0.09791 0.02578 0.42017 0.0
C318 C 0.18655 0.96861 0.31068 0.0
C319 C 0.19932 0.93808 0.30129 0.0
C320 C 0.195 0.91352 0.33297 0.0
C321 C 0.18046 0.91926 0.37331 0.0
C322 C 0.16895 0.94949 0.38158 0.0
C323 C 0.17063 0.97357 0.35057 0.0
C324 C 0.15077 1.00246 0.36445 0.0
C325 C 0.17701 0.03001 0.37622 0.0
C326 C 0.12008 0.01172 0.32694 0.0
C327 C 0.13649 0.99021 0.40698 0.0
C328 C 0.14887 0.96006 0.4172 0.0
C329 C 0.13846 0.94295 0.45347 0.0
C330 C 0.11309 0.95621 0.47842 0.0
C331 C 0.09778 0.98593 0.46642 0.0
C332 C 0.11041 0.00361 0.43119 0.0
H333 H 0.69514 0.60972 0.83411 0.0
H334 H 0.6436 0.54609 0.73038 0.0
H335 H 0.61313 0.5192 0.78838 0.0
H336 H 0.70335 0.55191 0.93005 0.0
H337 H 0.69355 0.58127 0.97056 0.0
H338 H 0.71626 0.59231 0.92278 0.0
H339 H 0.66706 0.63399 0.89784 0.0
H340 H 0.64469 0.62347 0.94582 0.0
H341 H 0.62043 0.62204 0.88894 0.0
H342 H 0.58493 0.50133 0.85621 0.0
H343 H 0.55361 0.49989 0.92454 0.0
H344 H 0.61849 0.57822 0.98219 0.0
C345 C 0.67767 0.58999 0.82355 0.0
C346 C 0.67237 0.5798 0.77759 0.0
C347 C 0.64912 0.55386 0.76548 0.0
C348 C 0.63159 0.53839 0.79824 0.0
C349 C 0.63748 0.54902 0.84316 0.0
C350 C 0.65966 0.57445 0.85575 0.0
C351 C 0.65852 0.58323 0.9052 0.0
C352 C 0.6951 0.57681 0.93384 0.0
C353 C 0.64695 0.61772 0.90967 0.0
C354 C 0.63024 0.56031 0.91744 0.0
C355 C 0.61977 0.53977 0.88186 0.0
C356 C 0.59326 0.51701 0.8845 0.0
C357 C 0.57586 0.51613 0.92367 0.0
C358 C 0.5842 0.53857 0.95887 0.0
C359 C 0.61237 0.56034 0.95622 0.0
H360 H 0.86612 0.07732 0.20539 0.0
H361 H 0.83721 0.16789 0.25688 0.0
H362 H 0.86923 0.15426 0.33343 0.0
H363 H 0.85394 0.03358 0.30657 0.0
H364 H 0.8906 0.00715 0.3008 0.0
H365 H 0.86583 0.02476 0.25084 0.0
H366 H 0.92538 0.04706 0.22765 0.0
H367 H 0.95026 0.02963 0.27768 0.0
H368 H 0.95396 0.07128 0.26744 0.0
H369 H 0.90731 0.12987 0.40505 0.0
H370 H 0.94212 0.09573 0.46378 0.0
H371 H 0.94279 0.02215 0.36214 0.0
C372 C 0.86666 0.09433 0.23275 0.0
C373 C 0.84956 0.12371 0.22535 0.0
C374 C 0.8502 0.14518 0.2621 0.0
C375 C 0.86844 0.1377 0.30552 0.0
C376 C 0.88543 0.10852 0.31161 0.0
C377 C 0.88419 0.0871 0.27614 0.0
C378 C 0.90328 0.05694 0.29119 0.0
C379 C 0.87683 0.02897 0.28712 0.0
C380 C 0.93511 0.0509 0.2644 0.0
C381 C 0.91605 0.06479 0.34044 0.0
C382 C 0.90581 0.09456 0.35206 0.0
C383 C 0.91524 0.10642 0.39625 0.0
C384 C 0.9351 0.08701 0.42934 0.0
C385 C 0.94488 0.05616 0.41783 0.0
C386 C 0.93544 0.04543 0.37257 0.0
H387 H 0.31531 0.42659 0.76188 0.0
H388 H 0.38243 0.46223 0.66392 0.0
H389 H 0.42594 0.48209 0.72636 0.0
H390 H 0.33155 0.4944 0.83907 0.0
H391 H 0.33182 0.47129 0.89031 0.0
H392 H 0.30555 0.45857 0.83803 0.0
H393 H 0.33842 0.40492 0.84508 0.0
H394 H 0.3653 0.4177 0.89696 0.0
H395 H 0.38687 0.40397 0.84971 0.0
H396 H 0.46417 0.49462 0.79599 0.0
H397 H 0.49084 0.51126 0.87223 0.0
H398 H 0.39869 0.4738 0.92977 0.0
C399 C 0.33906 0.43877 0.75372 0.0
C400 C 0.34605 0.44173 0.70782 0.0
C401 C 0.37713 0.45837 0.69863 0.0
C402 C 0.40203 0.46991 0.73391 0.0
C403 C 0.39532 0.46534 0.77852 0.0
C404 C 0.36429 0.45109 0.78892 0.0
C405 C 0.3636 0.45121 0.84042 0.0
C406 C 0.33121 0.47 0.85268 0.0
C407 C 0.36354 0.41743 0.85914 0.0
C408 C 0.39909 0.46782 0.85682 0.0
C409 C 0.41698 0.4749 0.82007 0.0
C410 C 0.45036 0.48957 0.82509 0.0
C411 C 0.46538 0.49873 0.86864 0.0
C412 C 0.44687 0.49388 0.90685 0.0
C413 C 0.41361 0.47741 0.90124 0.0
H414 H 0.67902 0.56378 0.36983 0.0
H415 H 0.64081 0.66023 0.35231 0.0
H416 H 0.60781 0.64621 0.27771 0.0
H417 H 0.68653 0.54655 0.25201 0.0
H418 H 0.66925 0.50705 0.25491 0.0
H419 H 0.69312 0.52516 0.30517 0.0
H420 H 0.63868 0.51497 0.34897 0.0
H421 H 0.61479 0.49665 0.29898 0.0
H422 H 0.59479 0.52917 0.3255 0.0
H423 H 0.57763 0.62158 0.20499 0.0
H424 H 0.54836 0.58694 0.14384 0.0
H425 H 0.6013 0.50606 0.21275 0.0
C426 C 0.66368 0.5821 0.35071 0.0
C427 C 0.66332 0.61337 0.36731 0.0
C428 C 0.64283 0.63635 0.34028 0.0
C429 C 0.62361 0.62858 0.29778 0.0
C430 C 0.62455 0.59761 0.28276 0.0
C431 C 0.64369 0.57464 0.30866 0.0
C432 C 0.63821 0.54265 0.28622 0.0
C433 C 0.67391 0.5296 0.27384 0.0
C434 C 0.62056 0.51951 0.31673 0.0
C435 C 0.61277 0.55124 0.24387 0.0
C436 C 0.60565 0.58312 0.2421 0.0
C437 C 0.58285 0.59653 0.20613 0.0
C438 C 0.56627 0.57668 0.17156 0.0
C439 C 0.57196 0.54375 0.17372 0.0
C440 C 0.59608 0.53111 0.2101 0.0
H441 H 0.86168 0.06376 0.82967 0.0
H442 H 0.79673 0.13526 0.75306 0.0
H443 H 0.82143 0.11956 0.68318 0.0
H444 H 0.93914 0.0756 0.77989 0.0
H445 H 0.95175 0.03469 0.77899 0.0
H446 H 0.92499 0.04846 0.82103 0.0
H447 H 0.87642 0.00645 0.79427 0.0
H448 H 0.90298 0.99282 0.75161 0.0
H449 H 0.8571 0.00513 0.73512 0.0
H450 H 0.85804 0.10017 0.62349 0.0
H451 H 0.90662 0.08127 0.58113 0.0
H452 H 0.9484 0.02337 0.6965 0.0
C453 C 0.85232 0.07588 0.79809 0.0
C454 C 0.82696 0.10058 0.79688 0.0
C455 C 0.81551 0.11582 0.75477 0.0
C456 C 0.82944 0.10709 0.71483 0.0
C457 C 0.85459 0.08282 0.7173 0.0
C458 C 0.8659 0.06741 0.75788 0.0
C459 C 0.89531 0.04388 0.75221 0.0
C460 C 0.92983 0.05112 0.78494 0.0
C461 C 0.88216 0.01006 0.7587 0.0
C462 C 0.90026 0.0498 0.70287 0.0
C463 C 0.87579 0.07168 0.68288 0.0
C464 C 0.87675 0.08246 0.63841 0.0
C465 C 0.90413 0.0714 0.61439 0.0
C466 C 0.93025 0.05009 0.63511 0.0
C467 C 0.92778 0.03869 0.67942 0.0
H468 H 0.33357 0.40854 0.28749 0.0
H469 H 0.28356 0.49896 0.30296 0.0
H470 H 0.3134 0.52044 0.23924 0.0
H471 H 0.41694 0.43591 0.26678 0.0
H472 H 0.42359 0.40615 0.22533 0.0
H473 H 0.39546 0.39798 0.26867 0.0
H474 H 0.34267 0.38353 0.20618 0.0
H475 H 0.37068 0.39183 0.16252 0.0
H476 H 0.32805 0.41154 0.16172 0.0
H477 H 0.35564 0.53304 0.17863 0.0
H478 H 0.40414 0.53465 0.12871 0.0
H479 H 0.42186 0.43472 0.15173 0.0
C480 C 0.32847 0.43273 0.27693 0.0
C481 C 0.30635 0.45215 0.29994 0.0
C482 C 0.30024 0.48368 0.28535 0.0
C483 C 0.31711 0.49603 0.24928 0.0
C484 C 0.33937 0.47631 0.22766 0.0
C485 C 0.34454 0.44516 0.24075 0.0
C486 C 0.37065 0.42894 0.21384 0.0
C487 C 0.4036 0.41654 0.24555 0.0
C488 C 0.35188 0.40239 0.18431 0.0
C489 C 0.38058 0.45601 0.1847 0.0
C490 C 0.36226 0.4832 0.19257 0.0
C491 C 0.3696 0.51168 0.17164 0.0
C492 C 0.39701 0.5124 0.14308 0.0
C493 C 0.41673 0.48483 0.13609 0.0
C494 C 0.40726 0.45625 0.1561 0.0
H495 H 0.20628 0.96942 0.85247 0.0
H496 H 0.13332 0.89675 0.88777 0.0
H497 H 0.09449 0.90517 0.81445 0.0
H498 H 0.14134 0.02206 0.7992 0.0
H499 H 0.16699 0.03349 0.75436 0.0
H500 H 0.18984 0.02026 0.80834 0.0
H501 H 0.22252 0.97763 0.76666 0.0
H502 H 0.19925 0.99045 0.71249 0.0
H503 H 0.19642 0.94991 0.72974 0.0
H504 H 0.06211 0.92306 0.73875 0.0
H505 H 0.03632 0.95239 0.66957 0.0
H506 H 0.13052 0.01287 0.68332 0.0
C507 C 0.18213 0.95533 0.8446 0.0
C508 C 0.17275 0.93238 0.87557 0.0
C509 C 0.14108 0.91423 0.86417 0.0
C510 C 0.11894 0.91878 0.82262 0.0
C511 C 0.12909 0.94129 0.79247 0.0
C512 C 0.15993 0.95929 0.80291 0.0
C513 C 0.16415 0.9825 0.76504 0.0
C514 C 0.16563 0.01659 0.78281 0.0
C515 C 0.19757 0.97465 0.74214 0.0
C516 C 0.12986 0.97595 0.73304 0.0
C517 C 0.11046 0.95153 0.74882 0.0
C518 C 0.07725 0.94197 0.72571 0.0
C519 C 0.06294 0.95853 0.68624 0.0
C520 C 0.0816 0.98461 0.67098 0.0
C521 C 0.11589 0.99276 0.69405 0.0
loop_
_geom_bond_atom_site_label_1
_geom_bond_atom_site_label_2
_geom_bond_distance
_geom_bond_site_symmetry_2
_ccdc_geom_bond_type
C0 C1 1.386 . S
C0 C2 1.397 . S
C0 H24 0.931 . S
C1 C0 1.386 . S
C1 C5 1.397 . S
C2 C0 1.397 . S
C2 C3 1.384 1_556 S
C2 H25 0.930 . S
C3 C2 1.384 1_554 S
C3 C4 1.377 1_554 S
C3 C6 1.481 . S
C4 C3 1.377 1_556 S
C4 C5 1.389 . S
C4 H26 0.929 1_556 S
C5 C1 1.397 . S
C5 C4 1.389 . S
C5 H27 0.931 . S
C6 C3 1.481 . S
C6 C7 1.387 . S
C6 C11 1.390 . S
C7 C6 1.387 . S
C7 C8 1.401 . S
C7 H28 0.930 . S
C8 C7 1.401 . S
C8 C9 1.376 . S
C8 C17 1.511 . S
C9 C8 1.376 . S
C9 C10 1.392 . S
C9 H30 0.931 . S
C10 C9 1.392 . S
C10 C11 1.361 . S
C10 C12 1.500 . S
C11 C6 1.390 . S
C11 C10 1.361 . S
C11 H29 0.931 . S
C12 C10 1.500 . S
C12 C13 1.371 . S
C12 C14 1.365 . S
C13 C12 1.371 . S
C13 C23 1.386 . S
C13 H31 0.931 . S
C14 C12 1.365 . S
C14 C15 1.409 . S
C14 H32 0.929 . S
C15 C14 1.409 . S
C15 C16 1.380 . S
C15 H33 0.930 . S
C16 C15 1.380 . S
C16 C23 1.357 . S
C17 C8 1.511 . S
C17 C18 1.341 . S
C17 C19 1.371 . S
C18 C17 1.341 . S
C18 C22 1.394 . S
C18 H34 0.930 . S
C19 C17 1.371 . S
C19 C20 1.392 . S
C19 H35 0.931 . S
C20 C19 1.392 . S
C20 C21 1.331 . S
C20 H38 0.932 . S
C21 C20 1.331 . S
C21 C22 1.336 . S
C22 C18 1.394 . S
C22 C21 1.336 . S
C22 H37 0.929 . S
C23 C13 1.386 . S
C23 C16 1.357 . S
C23 H36 0.928 . S
H24 C0 0.931 . S
H25 C2 0.930 . S
H26 C4 0.929 1_554 S
H27 C5 0.931 . S
H28 C7 0.930 . S
H29 C11 0.931 . S
H30 C9 0.931 . S
H31 C13 0.931 . S
H32 C14 0.929 . S
H33 C15 0.930 . S
H34 C18 0.930 . S
H35 C19 0.931 . S
H36 C23 0.928 . S
H37 C22 0.929 . S
H38 C20 0.932 . S
C39 C40 1.386 . S
C39 C41 1.397 . S
C39 H63 0.931 . S
C40 C39 1.386 . S
C40 C44 1.397 . S
C41 C39 1.397 . S
C41 C42 1.384 . S
C41 H64 0.930 . S
C42 C41 1.384 . S
C42 C43 1.377 . S
C42 C45 1.481 . S
C43 C42 1.377 . S
C43 C44 1.389 . S
C43 H65 0.929 . S
C44 C40 1.397 . S
C44 C43 1.389 . S
C44 H66 0.931 . S
C45 C42 1.481 . S
C45 C46 1.387 . S
C45 C50 1.390 . S
C46 C45 1.387 . S
C46 C47 1.401 . S
C46 H67 0.930 . S
C47 C46 1.401 . S
C47 C48 1.376 . S
C47 C56 1.511 . S
C48 C47 1.376 . S
C48 C49 1.392 . S
C48 H69 0.931 . S
C49 C48 1.392 . S
C49 C50 1.361 . S
C49 C51 1.500 . S
C50 C45 1.390 . S
C50 C49 1.361 . S
C50 H68 0.931 . S
C51 C49 1.500 . S
C51 C52 1.371 . S
C51 C53 1.365 . S
C52 C51 1.371 . S
C52 C62 1.386 . S
C52 H70 0.931 . S
C53 C51 1.365 . S
C53 C54 1.409 . S
C53 H71 0.929 . S
C54 C53 1.409 . S
C54 C55 1.380 . S
C54 H72 0.930 . S
C55 C54 1.380 . S
C55 C62 1.357 . S
C56 C47 1.511 . S
C56 C57 1.341 . S
C56 C58 1.371 . S
C57 C56 1.341 . S
C57 C61 1.394 . S
C57 H73 0.930 . S
C58 C56 1.371 . S
C58 C59 1.392 . S
C58 H74 0.931 . S
C59 C58 1.392 . S
C59 C60 1.331 . S
C59 H77 0.932 . S
C60 C59 1.331 . S
C60 C61 1.336 . S
C61 C57 1.394 . S
C61 C60 1.336 . S
C61 H76 0.929 . S
C62 C52 1.386 . S
C62 C55 1.357 . S
C62 H75 0.928 . S
H63 C39 0.931 . S
H64 C41 0.930 . S
H65 C43 0.929 . S
H66 C44 0.931 . S
H67 C46 0.930 . S
H68 C50 0.931 . S
H69 C48 0.931 . S
H70 C52 0.931 . S
H71 C53 0.929 . S
H72 C54 0.930 . S
H73 C57 0.930 . S
H74 C58 0.931 . S
H75 C62 0.928 . S
H76 C61 0.929 . S
H77 C59 0.932 . S
C78 C79 1.386 . S
C78 C80 1.397 . S
C78 H102 0.931 . S
C79 C78 1.386 . S
C79 C83 1.397 . S
C80 C78 1.397 . S
C80 C81 1.384 . S
C80 H103 0.930 . S
C81 C80 1.384 . S
C81 C82 1.377 . S
C81 C84 1.481 . S
C82 C81 1.377 . S
C82 C83 1.389 . S
C82 H104 0.929 . S
C83 C79 1.397 . S
C83 C82 1.389 . S
C83 H105 0.931 . S
C84 C81 1.481 . S
C84 C85 1.387 . S
C84 C89 1.390 . S
C85 C84 1.387 . S
C85 C86 1.401 1_554 S
C85 H106 0.930 . S
C86 C85 1.401 1_556 S
C86 C87 1.376 . S
C86 C95 1.511 . S
C87 C86 1.376 . S
C87 C88 1.392 . S
C87 H108 0.931 . S
C88 C87 1.392 . S
C88 C89 1.361 1_556 S
C88 C90 1.500 . S
C89 C84 1.390 . S
C89 C88 1.361 1_554 S
C89 H107 0.931 . S
C90 C88 1.500 . S
C90 C91 1.371 . S
C90 C92 1.365 . S
C91 C90 1.371 . S
C91 C101 1.386 . S
C91 H109 0.931 . S
C92 C90 1.365 . S
C92 C93 1.409 . S
C92 H110 0.929 . S
C93 C92 1.409 . S
C93 C94 1.380 . S
C93 H111 0.930 . S
C94 C93 1.380 . S
C94 C101 1.357 . S
C95 C86 1.511 . S
C95 C96 1.341 1_556 S
C95 C97 1.371 . S
C96 C95 1.341 1_554 S
C96 C100 1.394 . S
C96 H112 0.930 . S
C97 C95 1.371 . S
C97 C98 1.392 . S
C97 H113 0.931 . S
C98 C97 1.392 . S
C98 C99 1.331 . S
C98 H116 0.932 . S
C99 C98 1.331 . S
C99 C100 1.336 1_556 S
C100 C96 1.394 . S
C100 C99 1.336 1_554 S
C100 H115 0.929 . S
C101 C91 1.386 . S
C101 C94 1.357 . S
C101 H114 0.928 . S
H102 C78 0.931 . S
H103 C80 0.930 . S
H104 C82 0.929 . S
H105 C83 0.931 . S
H106 C85 0.930 . S
H107 C89 0.931 . S
H108 C87 0.931 . S
H109 C91 0.931 . S
H110 C92 0.929 . S
H111 C93 0.930 . S
H112 C96 0.930 . S
H113 C97 0.931 . S
H114 C101 0.928 . S
H115 C100 0.929 . S
H116 C98 0.932 . S
C117 C118 1.386 . S
C117 C119 1.397 . S
C117 H141 0.931 . S
C118 C117 1.386 . S
C118 C122 1.397 . S
C119 C117 1.397 . S
C119 C120 1.384 . S
C119 H142 0.930 . S
C120 C119 1.384 . S
C120 C121 1.377 . S
C120 C123 1.481 . S
C121 C120 1.377 . S
C121 C122 1.389 . S
C121 H143 0.929 . S
C122 C118 1.397 . S
C122 C121 1.389 . S
C122 H144 0.931 . S
C123 C120 1.481 . S
C123 C124 1.387 . S
C123 C128 1.390 . S
C124 C123 1.387 . S
C124 C125 1.401 . S
C124 H145 0.930 . S
C125 C124 1.401 . S
C125 C126 1.376 . S
C125 C134 1.511 . S
C126 C125 1.376 . S
C126 C127 1.392 . S
C126 H147 0.931 . S
C127 C126 1.392 . S
C127 C128 1.361 . S
C127 C129 1.500 . S
C128 C123 1.390 . S
C128 C127 1.361 . S
C128 H146 0.931 . S
C129 C127 1.500 . S
C129 C130 1.371 . S
C129 C131 1.365 . S
C130 C129 1.371 . S
C130 C140 1.386 . S
C130 H148 0.931 . S
C131 C129 1.365 . S
C131 C132 1.409 . S
C131 H149 0.929 . S
C132 C131 1.409 . S
C132 C133 1.380 . S
C132 H150 0.930 . S
C133 C132 1.380 . S
C133 C140 1.357 . S
C134 C125 1.511 . S
C134 C135 1.341 . S
C134 C136 1.371 . S
C135 C134 1.341 . S
C135 C139 1.394 . S
C135 H151 0.930 . S
C136 C134 1.371 . S
C136 C137 1.392 . S
C136 H152 0.931 . S
C137 C136 1.392 . S
C137 C138 1.331 . S
C137 H155 0.932 . S
C138 C137 1.331 . S
C138 C139 1.336 . S
C139 C135 1.394 . S
C139 C138 1.336 . S
C139 H154 0.929 . S
C140 C130 1.386 . S
C140 C133 1.357 . S
C140 H153 0.928 . S
H141 C117 0.931 . S
H142 C119 0.930 . S
H143 C121 0.929 . S
H144 C122 0.931 . S
H145 C124 0.930 . S
H146 C128 0.931 . S
H147 C126 0.931 . S
H148 C130 0.931 . S
H149 C131 0.929 . S
H150 C132 0.930 . S
H151 C135 0.930 . S
H152 C136 0.931 . S
H153 C140 0.928 . S
H154 C139 0.929 . S
H155 C137 0.932 . S
O156 Mn157 2.163 1_655 S
O156 C170 1.244 . S
Mn157 O156 2.163 1_455 S
Mn157 O160 2.160 1_545 S
Mn157 O161 2.221 . S
Mn157 O163 2.163 1_455 S
Mn157 O165 2.160 1_545 S
Mn157 O175 2.221 1_445 S
O158 Mn159 2.087 1_545 S
O158 C170 1.256 . S
Mn159 O158 2.087 1_565 S
Mn159 O166 2.089 1_655 S
Mn159 O175 2.290 . S
Mn159 O176 2.251 . S
O160 Mn157 2.160 1_565 S
O160 C171 1.239 . S
O161 Mn157 2.221 . S
O161 Mn162 2.290 . S
O161 C172 1.278 . S
Mn162 O161 2.290 . S
Mn162 O164 2.089 . S
Mn162 O167 2.251 . S
Mn162 O168 2.087 1_455 S
O163 Mn157 2.163 1_655 S
O163 C173 1.244 . S
O164 Mn162 2.089 . S
O164 C171 1.256 1_545 S
O165 Mn157 2.160 1_565 S
O165 C174 1.239 . S
O166 Mn159 2.089 1_455 S
O166 C174 1.256 . S
O167 Mn162 2.251 . S
O167 C172 1.241 . S
O168 Mn162 2.087 1_655 S
O168 C173 1.256 . S
C169 O175 1.278 . S
C169 O176 1.241 . S
C170 O156 1.244 . S
C170 O158 1.256 . S
C171 O160 1.239 . S
C171 O164 1.256 1_565 S
C172 O161 1.278 . S
C172 O167 1.241 . S
C173 O163 1.244 . S
C173 O168 1.256 . S
C174 O165 1.239 . S
C174 O166 1.256 . S
O175 Mn157 2.221 1_665 S
O175 Mn159 2.290 . S
O175 C169 1.278 . S
O176 Mn159 2.251 . S
O176 C169 1.241 . S
O177 Mn178 2.163 . S
O177 C191 1.244 . S
Mn178 O177 2.163 . S
Mn178 O181 2.160 1_554 S
Mn178 O182 2.221 . S
Mn178 O184 2.163 1_554 S
Mn178 O186 2.160 . S
Mn178 O196 2.221 . S
O179 Mn180 2.087 . S
O179 C191 1.256 . S
Mn180 O179 2.087 . S
Mn180 O187 2.089 . S
Mn180 O196 2.290 . S
Mn180 O197 2.251 . S
O181 Mn178 2.160 1_556 S
O181 C192 1.239 . S
O182 Mn178 2.221 . S
O182 Mn183 2.290 1_554 S
O182 C193 1.278 . S
Mn183 O182 2.290 1_556 S
Mn183 O185 2.089 . S
Mn183 O188 2.251 1_556 S
Mn183 O189 2.087 . S
O184 Mn178 2.163 1_556 S
O184 C194 1.244 . S
O185 Mn183 2.089 . S
O185 C192 1.256 . S
O186 Mn178 2.160 . S
O186 C195 1.239 . S
O187 Mn180 2.089 . S
O187 C195 1.256 . S
O188 Mn183 2.251 1_554 S
O188 C193 1.241 . S
O189 Mn183 2.087 . S
O189 C194 1.256 . S
C190 O196 1.278 . S
C190 O197 1.241 . S
C191 O177 1.244 . S
C191 O179 1.256 . S
C192 O181 1.239 . S
C192 O185 1.256 . S
C193 O182 1.278 . S
C193 O188 1.241 . S
C194 O184 1.244 . S
C194 O189 1.256 . S
C195 O186 1.239 . S
C195 O187 1.256 . S
O196 Mn178 2.221 . S
O196 Mn180 2.290 . S
O196 C190 1.278 . S
O197 Mn180 2.251 . S
O197 C190 1.241 . S
H198 C210 0.930 . S
H199 C212 0.930 . S
H200 C213 0.930 . S
H201 C217 0.959 . S
H202 C217 0.940 1_655 S
H203 C217 0.961 . S
H204 C218 0.960 . S
H205 C218 0.961 1_655 S
H206 C218 0.959 . S
H207 C221 0.929 . S
H208 C222 0.931 . S
H209 C224 0.930 . S
C210 H198 0.930 . S
C210 C211 1.399 . S
C210 C215 1.399 . S
C211 C210 1.399 . S
C211 C212 1.376 . S
C212 H199 0.930 . S
C212 C211 1.376 . S
C212 C213 1.388 . S
C213 H200 0.930 . S
C213 C212 1.388 . S
C213 C214 1.390 . S
C214 C213 1.390 . S
C214 C215 1.394 . S
C214 C220 1.465 . S
C215 C210 1.399 . S
C215 C214 1.394 . S
C215 C216 1.516 . S
C216 C215 1.516 . S
C216 C217 1.502 . S
C216 C218 1.561 . S
C216 C219 1.526 . S
C217 H201 0.959 . S
C217 H202 0.940 1_455 S
C217 H203 0.961 . S
C217 C216 1.502 . S
C218 H204 0.960 . S
C218 H205 0.961 1_455 S
C218 H206 0.959 . S
C218 C216 1.561 . S
C219 C216 1.526 . S
C219 C220 1.396 . S
C219 C224 1.390 . S
C220 C214 1.465 . S
C220 C219 1.396 . S
C220 C221 1.399 . S
C221 H207 0.929 . S
C221 C220 1.399 . S
C221 C222 1.385 . S
C222 H208 0.931 . S
C222 C221 1.385 . S
C222 C223 1.389 . S
C223 C222 1.389 . S
C223 C224 1.387 . S
C224 H209 0.930 . S
C224 C219 1.390 . S
C224 C223 1.387 . S
H225 C237 0.930 . S
H226 C239 0.930 . S
H227 C240 0.930 . S
H228 C244 0.959 . S
H229 C244 0.959 1_556 S
H230 C244 0.961 1_556 S
H231 C245 0.960 . S
H232 C245 0.961 . S
H233 C245 0.959 . S
H234 C248 0.929 . S
H235 C249 0.931 . S
H236 C251 0.930 . S
C237 H225 0.930 . S
C237 C238 1.399 . S
C237 C242 1.399 . S
C238 C237 1.399 . S
C238 C239 1.376 . S
C239 H226 0.930 . S
C239 C238 1.376 . S
C239 C240 1.388 . S
C240 H227 0.930 . S
C240 C239 1.388 . S
C240 C241 1.390 . S
C241 C240 1.390 . S
C241 C242 1.394 . S
C241 C247 1.465 . S
C242 C237 1.399 . S
C242 C241 1.394 . S
C242 C243 1.516 . S
C243 C242 1.516 . S
C243 C244 1.502 . S
C243 C245 1.561 1_554 S
C243 C246 1.526 . S
C244 H228 0.959 . S
C244 H229 0.959 1_554 S
C244 H230 0.961 1_554 S
C244 C243 1.502 . S
C245 H231 0.960 . S
C245 H232 0.961 . S
C245 H233 0.959 . S
C245 C243 1.561 1_556 S
C246 C243 1.526 . S
C246 C247 1.396 . S
C246 C251 1.390 . S
C247 C241 1.465 . S
C247 C246 1.396 . S
C247 C248 1.399 . S
C248 H234 0.929 . S
C248 C247 1.399 . S
C248 C249 1.385 . S
C249 H235 0.931 . S
C249 C248 1.385 . S
C249 C250 1.389 . S
C250 C249 1.389 . S
C250 C251 1.387 . S
C251 H236 0.930 . S
C251 C246 1.390 . S
C251 C250 1.387 . S
H252 C264 0.930 . S
H253 C266 0.930 . S
H254 C267 0.930 . S
H255 C271 0.959 . S
H256 C271 0.959 . S
H257 C271 0.961 . S
H258 C272 0.960 . S
H259 C272 0.961 . S
H260 C272 0.959 . S
H261 C275 0.929 . S
H262 C276 0.931 . S
H263 C278 0.930 . S
C264 H252 0.930 . S
C264 C265 1.399 . S
C264 C269 1.399 . S
C265 C264 1.399 . S
C265 C266 1.376 . S
C266 H253 0.930 . S
C266 C265 1.376 . S
C266 C267 1.388 . S
C267 H254 0.930 . S
C267 C266 1.388 . S
C267 C268 1.390 . S
C268 C267 1.390 . S
C268 C269 1.394 . S
C268 C274 1.465 . S
C269 C264 1.399 . S
C269 C268 1.394 . S
C269 C270 1.516 . S
C270 C269 1.516 . S
C270 C271 1.502 . S
C270 C272 1.561 . S
C270 C273 1.526 . S
C271 H255 0.959 . S
C271 H256 0.959 . S
C271 H257 0.961 . S
C271 C270 1.502 . S
C272 H258 0.960 . S
C272 H259 0.961 . S
C272 H260 0.959 . S
C272 C270 1.561 . S
C273 C270 1.526 . S
C273 C274 1.396 . S
C273 C278 1.390 . S
C274 C268 1.465 . S
C274 C273 1.396 . S
C274 C275 1.399 . S
C275 H261 0.929 . S
C275 C274 1.399 . S
C275 C276 1.385 . S
C276 H262 0.931 . S
C276 C275 1.385 . S
C276 C277 1.389 . S
C277 C276 1.389 . S
C277 C278 1.387 . S
C278 H263 0.930 . S
C278 C273 1.390 . S
C278 C277 1.387 . S
H279 C291 0.930 . S
H280 C293 0.930 . S
H281 C294 0.930 . S
H282 C298 0.959 . S
H283 C298 0.959 . S
H284 C298 0.961 . S
H285 C299 0.960 . S
H286 C299 0.963 . S
H287 C299 0.952 1_556 S
H288 C302 0.929 . S
H289 C303 0.931 . S
H290 C305 0.930 . S
C291 H279 0.930 . S
C291 C292 1.399 1_554 S
C291 C296 1.399 . S
C292 C291 1.399 1_556 S
C292 C293 1.376 . S
C293 H280 0.930 . S
C293 C292 1.376 . S
C293 C294 1.388 . S
C294 H281 0.930 . S
C294 C293 1.388 . S
C294 C295 1.390 . S
C295 C294 1.390 . S
C295 C296 1.394 1_556 S
C295 C301 1.465 . S
C296 C291 1.399 . S
C296 C295 1.394 1_554 S
C296 C297 1.516 . S
C297 C296 1.516 . S
C297 C298 1.502 . S
C297 C299 1.566 . S
C297 C300 1.526 . S
C298 H282 0.959 . S
C298 H283 0.959 . S
C298 H284 0.961 . S
C298 C297 1.502 . S
C299 H285 0.960 . S
C299 H286 0.963 . S
C299 H287 0.952 1_554 S
C299 C297 1.566 . S
C300 C297 1.526 . S
C300 C301 1.396 1_554 S
C300 C305 1.390 . S
C301 C295 1.465 . S
C301 C300 1.396 1_556 S
C301 C302 1.399 . S
C302 H288 0.929 . S
C302 C301 1.399 . S
C302 C303 1.385 . S
C303 H289 0.931 . S
C303 C302 1.385 . S
C303 C304 1.389 1_556 S
C304 C303 1.389 1_554 S
C304 C305 1.387 . S
C305 H290 0.930 . S
C305 C300 1.390 . S
C305 C304 1.387 . S
H306 C318 0.930 . S
H307 C320 0.930 . S
H308 C321 0.930 . S
H309 C325 0.959 . S
H310 C325 0.959 . S
H311 C325 0.961 . S
H312 C326 0.960 . S
H313 C326 0.961 . S
H314 C326 0.959 . S
H315 C329 0.929 . S
H316 C330 0.931 . S
H317 C332 0.930 1_545 S
C318 H306 0.930 . S
C318 C319 1.399 . S
C318 C323 1.399 . S
C319 C318 1.399 . S
C319 C320 1.376 . S
C320 H307 0.930 . S
C320 C319 1.376 . S
C320 C321 1.388 . S
C321 H308 0.930 . S
C321 C320 1.388 . S
C321 C322 1.390 . S
C322 C321 1.390 . S
C322 C323 1.394 . S
C322 C328 1.465 . S
C323 C318 1.399 . S
C323 C322 1.394 . S
C323 C324 1.516 1_565 S
C324 C323 1.516 1_545 S
C324 C325 1.502 . S
C324 C326 1.561 . S
C324 C327 1.526 1_545 S
C325 H309 0.959 . S
C325 H310 0.959 . S
C325 H311 0.961 . S
C325 C324 1.502 . S
C326 H312 0.960 . S
C326 H313 0.961 . S
C326 H314 0.959 . S
C326 C324 1.561 . S
C327 C324 1.526 1_565 S
C327 C328 1.396 . S
C327 C332 1.390 . S
C328 C322 1.465 . S
C328 C327 1.396 . S
C328 C329 1.399 . S
C329 H315 0.929 . S
C329 C328 1.399 . S
C329 C330 1.385 . S
C330 H316 0.931 . S
C330 C329 1.385 . S
C330 C331 1.389 . S
C331 C330 1.389 . S
C331 C332 1.387 . S
C332 H317 0.930 1_565 S
C332 C327 1.390 . S
C332 C331 1.387 . S
H333 C345 0.930 . S
H334 C347 0.930 . S
H335 C348 0.930 . S
H336 C352 0.959 . S
H337 C352 0.959 . S
H338 C352 0.961 . S
H339 C353 0.960 . S
H340 C353 0.961 . S
H341 C353 0.959 . S
H342 C356 0.929 . S
H343 C357 0.931 . S
H344 C359 0.930 . S
C345 H333 0.930 . S
C345 C346 1.399 . S
C345 C350 1.399 . S
C346 C345 1.399 . S
C346 C347 1.376 . S
C347 H334 0.930 . S
C347 C346 1.376 . S
C347 C348 1.388 . S
C348 H335 0.930 . S
C348 C347 1.388 . S
C348 C349 1.390 . S
C349 C348 1.390 . S
C349 C350 1.394 . S
C349 C355 1.465 . S
C350 C345 1.399 . S
C350 C349 1.394 . S
C350 C351 1.516 . S
C351 C350 1.516 . S
C351 C352 1.502 . S
C351 C353 1.561 . S
C351 C354 1.526 . S
C352 H336 0.959 . S
C352 H337 0.959 . S
C352 H338 0.961 . S
C352 C351 1.502 . S
C353 H339 0.960 . S
C353 H340 0.961 . S
C353 H341 0.959 . S
C353 C351 1.561 . S
C354 C351 1.526 . S
C354 C355 1.396 . S
C354 C359 1.390 . S
C355 C349 1.465 . S
C355 C354 1.396 . S
C355 C356 1.399 . S
C356 H342 0.929 . S
C356 C355 1.399 . S
C356 C357 1.385 . S
C357 H343 0.931 . S
C357 C356 1.385 . S
C357 C358 1.389 . S
C358 C357 1.389 . S
C358 C359 1.387 . S
C359 H344 0.930 . S
C359 C354 1.390 . S
C359 C358 1.387 . S
H360 C372 0.930 . S
H361 C374 0.930 . S
H362 C375 0.930 . S
H363 C379 0.959 . S
H364 C379 0.959 1_565 S
H365 C379 0.961 1_565 S
H366 C380 0.960 . S
H367 C380 0.961 . S
H368 C380 0.959 . S
H369 C383 0.929 . S
H370 C384 0.931 . S
H371 C386 0.930 . S
C372 H360 0.930 . S
C372 C373 1.399 . S
C372 C377 1.399 . S
C373 C372 1.399 . S
C373 C374 1.376 . S
C374 H361 0.930 . S
C374 C373 1.376 . S
C374 C375 1.388 . S
C375 H362 0.930 . S
C375 C374 1.388 . S
C375 C376 1.390 . S
C376 C375 1.390 . S
C376 C377 1.394 . S
C376 C382 1.465 . S
C377 C372 1.399 . S
C377 C376 1.394 . S
C377 C378 1.516 . S
C378 C377 1.516 . S
C378 C379 1.502 . S
C378 C380 1.561 . S
C378 C381 1.526 . S
C379 H363 0.959 . S
C379 H364 0.959 1_545 S
C379 H365 0.961 1_545 S
C379 C378 1.502 . S
C380 H366 0.960 . S
C380 H367 0.961 . S
C380 H368 0.959 . S
C380 C378 1.561 . S
C381 C378 1.526 . S
C381 C382 1.396 . S
C381 C386 1.390 . S
C382 C376 1.465 . S
C382 C381 1.396 . S
C382 C383 1.399 . S
C383 H369 0.929 . S
C383 C382 1.399 . S
C383 C384 1.385 . S
C384 H370 0.931 . S
C384 C383 1.385 . S
C384 C385 1.389 . S
C385 C384 1.389 . S
C385 C386 1.387 . S
C386 H371 0.930 . S
C386 C381 1.390 . S
C386 C385 1.387 . S
H387 C399 0.930 . S
H388 C401 0.930 . S
H389 C402 0.930 . S
H390 C406 0.959 . S
H391 C406 0.959 . S
H392 C406 0.961 . S
H393 C407 0.960 . S
H394 C407 0.961 . S
H395 C407 0.959 . S
H396 C410 0.929 . S
H397 C411 0.931 . S
H398 C413 0.930 . S
C399 H387 0.930 . S
C399 C400 1.399 . S
C399 C404 1.399 . S
C400 C399 1.399 . S
C400 C401 1.376 . S
C401 H388 0.930 . S
C401 C400 1.376 . S
C401 C402 1.388 . S
C402 H389 0.930 . S
C402 C401 1.388 . S
C402 C403 1.390 . S
C403 C402 1.390 . S
C403 C404 1.394 . S
C403 C409 1.465 . S
C404 C399 1.399 . S
C404 C403 1.394 . S
C404 C405 1.516 . S
C405 C404 1.516 . S
C405 C406 1.502 . S
C405 C407 1.561 . S
C405 C408 1.526 . S
C406 H390 0.959 . S
C406 H391 0.959 . S
C406 H392 0.961 . S
C406 C405 1.502 . S
C407 H393 0.960 . S
C407 H394 0.961 . S
C407 H395 0.959 . S
C407 C405 1.561 . S
C408 C405 1.526 . S
C408 C409 1.396 . S
C408 C413 1.390 . S
C409 C403 1.465 . S
C409 C408 1.396 . S
C409 C410 1.399 . S
C410 H396 0.929 . S
C410 C409 1.399 . S
C410 C411 1.385 . S
C411 H397 0.931 . S
C411 C410 1.385 . S
C411 C412 1.389 . S
C412 C411 1.389 . S
C412 C413 1.387 . S
C413 H398 0.930 . S
C413 C408 1.390 . S
C413 C412 1.387 . S
H414 C426 0.930 . S
H415 C428 0.930 . S
H416 C429 0.930 . S
H417 C433 0.959 . S
H418 C433 0.959 . S
H419 C433 0.961 . S
H420 C434 0.960 . S
H421 C434 0.961 . S
H422 C434 0.959 . S
H423 C437 0.929 . S
H424 C438 0.931 . S
H425 C440 0.930 . S
C426 H414 0.930 . S
C426 C427 1.399 . S
C426 C431 1.399 . S
C427 C426 1.399 . S
C427 C428 1.376 . S
C428 H415 0.930 . S
C428 C427 1.376 . S
C428 C429 1.388 . S
C429 H416 0.930 . S
C429 C428 1.388 . S
C429 C430 1.390 . S
C430 C429 1.390 . S
C430 C431 1.394 . S
C430 C436 1.465 . S
C431 C426 1.399 . S
C431 C430 1.394 . S
C431 C432 1.516 . S
C432 C431 1.516 . S
C432 C433 1.502 . S
C432 C434 1.561 . S
C432 C435 1.526 . S
C433 H417 0.959 . S
C433 H418 0.959 . S
C433 H419 0.961 . S
C433 C432 1.502 . S
C434 H420 0.960 . S
C434 H421 0.961 . S
C434 H422 0.959 . S
C434 C432 1.561 . S
C435 C432 1.526 . S
C435 C436 1.396 . S
C435 C440 1.390 . S
C436 C430 1.465 . S
C436 C435 1.396 . S
C436 C437 1.399 . S
C437 H423 0.929 . S
C437 C436 1.399 . S
C437 C438 1.385 . S
C438 H424 0.931 . S
C438 C437 1.385 . S
C438 C439 1.389 . S
C439 C438 1.389 . S
C439 C440 1.387 . S
C440 H425 0.930 . S
C440 C435 1.390 . S
C440 C439 1.387 . S
H441 C453 0.930 . S
H442 C455 0.930 . S
H443 C456 0.930 . S
H444 C460 0.959 . S
H445 C460 0.959 1_565 S
H446 C460 0.961 . S
H447 C461 0.960 . S
H448 C461 0.961 1_565 S
H449 C461 0.959 . S
H450 C464 0.929 . S
H451 C465 0.931 . S
H452 C467 0.930 . S
C453 H441 0.930 . S
C453 C454 1.399 . S
C453 C458 1.399 . S
C454 C453 1.399 . S
C454 C455 1.376 . S
C455 H442 0.930 . S
C455 C454 1.376 . S
C455 C456 1.388 . S
C456 H443 0.930 . S
C456 C455 1.388 . S
C456 C457 1.390 . S
C457 C456 1.390 . S
C457 C458 1.394 . S
C457 C463 1.465 . S
C458 C453 1.399 . S
C458 C457 1.394 . S
C458 C459 1.516 . S
C459 C458 1.516 . S
C459 C460 1.502 . S
C459 C461 1.561 . S
C459 C462 1.526 . S
C460 H444 0.959 . S
C460 H445 0.959 1_545 S
C460 H446 0.961 . S
C460 C459 1.502 . S
C461 H447 0.960 . S
C461 H448 0.961 1_545 S
C461 H449 0.959 . S
C461 C459 1.561 . S
C462 C459 1.526 . S
C462 C463 1.396 . S
C462 C467 1.390 . S
C463 C457 1.465 . S
C463 C462 1.396 . S
C463 C464 1.399 . S
C464 H450 0.929 . S
C464 C463 1.399 . S
C464 C465 1.385 . S
C465 H451 0.931 . S
C465 C464 1.385 . S
C465 C466 1.389 . S
C466 C465 1.389 . S
C466 C467 1.387 . S
C467 H452 0.930 . S
C467 C462 1.390 . S
C467 C466 1.387 . S
H468 C480 0.930 . S
H469 C482 0.930 . S
H470 C483 0.930 . S
H471 C487 0.959 . S
H472 C487 0.959 . S
H473 C487 0.961 . S
H474 C488 0.960 . S
H475 C488 0.961 . S
H476 C488 0.959 . S
H477 C491 0.929 . S
H478 C492 0.931 . S
H479 C494 0.930 . S
C480 H468 0.930 . S
C480 C481 1.399 . S
C480 C485 1.399 . S
C481 C480 1.399 . S
C481 C482 1.376 . S
C482 H469 0.930 . S
C482 C481 1.376 . S
C482 C483 1.388 . S
C483 H470 0.930 . S
C483 C482 1.388 . S
C483 C484 1.390 . S
C484 C483 1.390 . S
C484 C485 1.394 . S
C484 C490 1.465 . S
C485 C480 1.399 . S
C485 C484 1.394 . S
C485 C486 1.516 . S
C486 C485 1.516 . S
C486 C487 1.502 . S
C486 C488 1.561 . S
C486 C489 1.526 . S
C487 H471 0.959 . S
C487 H472 0.959 . S
C487 H473 0.961 . S
C487 C486 1.502 . S
C488 H474 0.960 . S
C488 H475 0.961 . S
C488 H476 0.959 . S
C488 C486 1.561 . S
C489 C486 1.526 . S
C489 C490 1.396 . S
C489 C494 1.390 . S
C490 C484 1.465 . S
C490 C489 1.396 . S
C490 C491 1.399 . S
C491 H477 0.929 . S
C491 C490 1.399 . S
C491 C492 1.385 . S
C492 H478 0.931 . S
C492 C491 1.385 . S
C492 C493 1.389 . S
C493 C492 1.389 . S
C493 C494 1.387 . S
C494 H479 0.930 . S
C494 C489 1.390 . S
C494 C493 1.387 . S
H495 C507 0.930 . S
H496 C509 0.930 . S
H497 C510 0.930 . S
H498 C514 0.959 . S
H499 C514 0.959 . S
H500 C514 0.961 . S
H501 C515 0.960 . S
H502 C515 0.961 . S
H503 C515 0.959 . S
H504 C518 0.929 . S
H505 C519 0.931 . S
H506 C521 0.930 . S
C507 H495 0.930 . S
C507 C508 1.399 . S
C507 C512 1.399 . S
C508 C507 1.399 . S
C508 C509 1.376 . S
C509 H496 0.930 . S
C509 C508 1.376 . S
C509 C510 1.388 . S
C510 H497 0.930 . S
C510 C509 1.388 . S
C510 C511 1.390 . S
C511 C510 1.390 . S
C511 C512 1.394 . S
C511 C517 1.465 . S
C512 C507 1.399 . S
C512 C511 1.394 . S
C512 C513 1.516 . S
C513 C512 1.516 . S
C513 C514 1.502 1_565 S
C513 C515 1.561 . S
C513 C516 1.526 . S
C514 H498 0.959 . S
C514 H499 0.959 . S
C514 H500 0.961 . S
C514 C513 1.502 1_545 S
C515 H501 0.960 . S
C515 H502 0.961 . S
C515 H503 0.959 . S
C515 C513 1.561 . S
C516 C513 1.526 . S
C516 C517 1.396 . S
C516 C521 1.390 . S
C517 C511 1.465 . S
C517 C516 1.396 . S
C517 C518 1.399 . S
C518 H504 0.929 . S
C518 C517 1.399 . S
C518 C519 1.385 . S
C519 H505 0.931 . S
C519 C518 1.385 . S
C519 C520 1.389 . S
C520 C519 1.389 . S
C520 C521 1.387 . S
C521 H506 0.930 . S
C521 C516 1.390 . S
C521 C520 1.387 . S
C223 C172 1.375 . S
C211 C138 1.503 . S
C238 C21 1.537 . S
C250 C193 1.403 . S
C265 C60 1.656 . S
C277 C169 1.537 . S
C292 C99 1.693 . S
C304 C190 1.504 . S
C331 C174 1.617 . S
C319 C16 1.602 . S
C358 C194 1.551 . S
C346 C40 1.573 . S
C373 C79 1.556 . S
C385 C170 1.550 . S
C400 C133 1.594 . S
C412 C192 1.526 . S
C439 C191 1.550 . S
C427 C55 1.552 . S
C466 C173 1.555 . S
C454 C94 1.603 . S
C493 C195 1.651 . S
C481 C118 1.649 . S
C508 C1 1.579 . S
C520 C171 1.567 . S
