# Generated by pormake.
# Topology rtl, (3,6)-cn, num edge types: 1
# Building blocks:
#     Node 0, Type 0, BuildingBlock: CUQRIR_clean_linker_1, # of connection points: 3
#     Node 1, Type 0, BuildingBlock: CUQRIR_clean_linker_1, # of connection points: 3
#     Node 2, Type 0, BuildingBlock: CUQRIR_clean_linker_1, # of connection points: 3
#     Node 3, Type 0, BuildingBlock: CUQRIR_clean_linker_1, # of connection points: 3
#     Node 4, Type 1, BuildingBlock: FUNLAD_clean_sbu_0, # of connection points: 6
#     Node 5, Type 1, BuildingBlock: FUNLAD_clean_sbu_0, # of connection points: 6
#     Edge 6, Type (0, 1), BuildingBlock: TEMPAE_clean_linker_10, # of connection points: 2
#     Edge 7, Type (0, 1), BuildingBlock: TEMPAE_clean_linker_10, # of connection points: 2
#     Edge 8, Type (0, 1), BuildingBlock: TEMPAE_clean_linker_10, # of connection points: 2
#     Edge 9, Type (0, 1), BuildingBlock: TEMPAE_clean_linker_10, # of connection points: 2
#     Edge 10, Type (0, 1), BuildingBlock: TEMPAE_clean_linker_10, # of connection points: 2
#     Edge 11, Type (0, 1), BuildingBlock: TEMPAE_clean_linker_10, # of connection points: 2
#     Edge 12, Type (0, 1), BuildingBlock: TEMPAE_clean_linker_10, # of connection points: 2
#     Edge 13, Type (0, 1), BuildingBlock: TEMPAE_clean_linker_10, # of connection points: 2
#     Edge 14, Type (0, 1), BuildingBlock: TEMPAE_clean_linker_10, # of connection points: 2
#     Edge 15, Type (0, 1), BuildingBlock: TEMPAE_clean_linker_10, # of connection points: 2
#     Edge 16, Type (0, 1), BuildingBlock: TEMPAE_clean_linker_10, # of connection points: 2
#     Edge 17, Type (0, 1), BuildingBlock: TEMPAE_clean_linker_10, # of connection points: 2
# Relax obj value: 0.002
# Max RMSD: 0.038
# Mean RMSD: 0.032
data_MOF--net-rtl--node1-FUNLAD_clean_sbu_0--node2-CUQRIR_clean_linker_1--edge1-TEMPAE_clean_linker_10
_symmetry_space_group_name_H-M    P1
_symmetry_Int_Tables_number       1
_symmetry_cell_setting            triclinic
loop_
_symmetry_equiv_pos_as_xyz
'x, y, z'
_cell_length_a     38.393863
_cell_length_b     38.387239
_cell_length_c     19.325562
_cell_angle_alpha  90.001708
_cell_angle_beta   91.023744
_cell_angle_gamma 90.053735
loop_
_atom_site_label
_atom_site_type_symbol
_atom_site_fract_x
_atom_site_fract_y
_atom_site_fract_z
_atom_type_partial_charge
C0 C 0.19304 0.81217 0.95935 0.0
N1 N 0.16844 0.83513 0.9797 0.0
N2 N 0.2074 0.79559 0.01463 0.0
C3 C 0.20543 0.80826 0.88625 0.0
C4 C 0.19095 0.80943 0.06952 0.0
N5 N 0.16753 0.83384 0.04851 0.0
C6 C 0.19544 0.79668 0.14283 0.0
H7 H 0.1904 0.78718 0.86016 0.0
H8 H 0.23343 0.80116 0.88575 0.0
H9 H 0.20154 0.83273 0.85656 0.0
H10 H 0.21654 0.81177 0.16892 0.0
H11 H 0.20282 0.76874 0.1438 0.0
H12 H 0.17112 0.80016 0.17222 0.0
C13 C 0.69007 0.69444 0.57365 0.0
N14 N 0.66629 0.67025 0.55294 0.0
N15 N 0.70445 0.71005 0.51828 0.0
C16 C 0.69917 0.7031 0.64783 0.0
C17 C 0.68849 0.69488 0.46309 0.0
N18 N 0.66487 0.67098 0.48404 0.0
C19 C 0.69626 0.70325 0.38876 0.0
H20 H 0.70816 0.73039 0.65344 0.0
H21 H 0.7207 0.6859 0.66577 0.0
H22 H 0.67647 0.69897 0.6816 0.0
H23 H 0.69274 0.6799 0.35551 0.0
H24 H 0.72309 0.71327 0.3829 0.0
H25 H 0.67804 0.72379 0.37025 0.0
C26 C 0.81069 0.19229 0.05751 0.0
N27 N 0.83399 0.16808 0.0368 0.0
N28 N 0.79406 0.20674 1.00231 0.0
C29 C 0.80651 0.20425 0.13113 0.0
C30 C 0.80823 0.19078 0.94712 0.0
N31 N 0.83287 0.16754 0.96789 0.0
C32 C 0.79561 0.19554 0.87351 0.0
H33 H 0.78552 0.18889 0.15544 0.0
H34 H 0.79914 0.23218 0.13289 0.0
H35 H 0.83095 0.20044 0.16169 0.0
H36 H 0.81054 0.21693 0.84929 0.0
H37 H 0.7676 0.20265 0.87172 0.0
H38 H 0.7994 0.17143 0.84291 0.0
C39 C 0.31358 0.30682 0.4513 0.0
N40 N 0.33699 0.33123 0.47261 0.0
N41 N 0.29775 0.29227 0.50618 0.0
C42 C 0.30584 0.29738 0.37692 0.0
C43 C 0.31196 0.30879 0.56168 0.0
N44 N 0.33552 0.3329 0.54134 0.0
C45 C 0.30287 0.30117 0.63568 0.0
H46 H 0.3091 0.32032 0.3427 0.0
H47 H 0.2791 0.287 0.3698 0.0
H48 H 0.32426 0.27681 0.36072 0.0
H49 H 0.29394 0.27396 0.64228 0.0
H50 H 0.2813 0.31858 0.6511 0.0
H51 H 0.32555 0.30586 0.67083 0.0
C52 C 0.03553 0.96499 0.4073 0.0
N53 N 0.05928 0.05877 0.50884 0.0
C54 C 0.09287 0.0491 0.49836 0.0
C55 C 0.1193 0.07408 0.4973 0.0
C56 C 0.11112 0.10922 0.5083 0.0
C57 C 0.07636 0.11849 0.5197 0.0
C58 C 0.05065 0.09273 0.5192 0.0
Zn59 Zn 0.02123 0.02153 0.50862 0.0
C60 C 0.96602 0.03664 0.4038 0.0
N61 N 0.94251 0.94381 0.50755 0.0
C62 C 0.95129 0.91009 0.52079 0.0
C63 C 0.9088 0.95321 0.49505 0.0
C64 C 0.88238 0.92819 0.49528 0.0
C65 C 0.89072 0.89335 0.50969 0.0
C66 C 0.92562 0.88435 0.5227 0.0
Zn67 Zn 0.98052 0.98109 0.50768 0.0
O68 O 0.04535 0.99538 0.42505 0.0
C69 C 0.0363 0.96652 0.61253 0.0
O70 O 0.00996 0.95096 0.43753 0.0
H71 H 0.90233 0.98019 0.48524 0.0
H72 H 0.09922 0.02194 0.49081 0.0
H73 H 0.97825 0.90313 0.53007 0.0
O74 O 0.05058 0.99191 0.58178 0.0
O75 O 0.0059 0.95686 0.59381 0.0
H76 H 0.02376 0.09989 0.52692 0.0
O77 O 0.95137 0.01152 0.57777 0.0
O78 O 0.99604 0.0467 0.59211 0.0
O79 O 0.95619 0.00635 0.42158 0.0
O80 O 0.9916 0.05086 0.43547 0.0
C81 C 0.9656 0.03718 0.60877 0.0
H82 H 0.14591 0.06598 0.48891 0.0
H83 H 0.0691 0.14542 0.52785 0.0
H84 H 0.85566 0.93607 0.48551 0.0
H85 H 0.93299 0.85763 0.53345 0.0
C86 C 0.46539 0.46634 0.90872 0.0
N87 N 0.55894 0.44352 0.01315 0.0
C88 C 0.54926 0.40941 0.01262 0.0
C89 C 0.57442 0.3832 0.01113 0.0
C90 C 0.60985 0.3922 0.01089 0.0
C91 C 0.61913 0.42758 0.01213 0.0
C92 C 0.59311 0.45295 0.0129 0.0
Zn93 Zn 0.5214 0.48114 0.01319 0.0
C94 C 0.53606 0.5373 0.91204 0.0
N95 N 0.4429 0.55906 0.01246 0.0
C96 C 0.40872 0.54964 0.01068 0.0
C97 C 0.45259 0.59316 0.01461 0.0
C98 C 0.42742 0.61937 0.01473 0.0
C99 C 0.39198 0.61038 0.01333 0.0
C100 C 0.3827 0.57501 0.01143 0.0
Zn101 Zn 0.48046 0.52145 0.01242 0.0
O102 O 0.49142 0.45236 0.93923 0.0
C103 C 0.46585 0.46528 0.11357 0.0
O104 O 0.45534 0.49639 0.9273 0.0
H105 H 0.4799 0.60006 0.01645 0.0
H106 H 0.52196 0.40249 0.01322 0.0
H107 H 0.40161 0.52239 0.00865 0.0
O108 O 0.4961 0.45574 0.09589 0.0
O109 O 0.45151 0.49115 0.08354 0.0
H110 H 0.60021 0.48022 0.01293 0.0
O111 O 0.50611 0.54591 0.0976 0.0
O112 O 0.55068 0.51059 0.08721 0.0
O113 O 0.51008 0.55108 0.94127 0.0
O114 O 0.54615 0.50713 0.93049 0.0
C115 C 0.53635 0.53619 0.11712 0.0
H116 H 0.56626 0.35618 0.01091 0.0
H117 H 0.6462 0.43553 0.01136 0.0
H118 H 0.43559 0.64637 0.01689 0.0
H119 H 0.35562 0.56708 0.00965 0.0
C120 C 0.23791 0.27339 0.47958 0.0
C121 C 0.27125 0.26587 0.50568 0.0
C122 C 0.21174 0.24787 0.47863 0.0
C123 C 0.21906 0.21438 0.50601 0.0
C124 C 0.25276 0.20685 0.53302 0.0
C125 C 0.27862 0.23268 0.53176 0.0
C126 C 0.17633 0.2567 0.44825 0.0
C127 C 0.2614 0.17168 0.56372 0.0
C128 C 0.14214 0.15977 0.56261 0.0
C129 C 0.13874 0.13609 0.50775 0.0
C130 C 0.16845 0.18516 0.5631 0.0
C131 C 0.19139 0.18728 0.50668 0.0
C132 C 0.18783 0.1636 0.45082 0.0
C133 C 0.16172 0.13803 0.45237 0.0
C134 C 0.17187 0.20955 0.62417 0.0
C135 C 0.21138 0.16548 0.38918 0.0
H136 H 0.23253 0.29928 0.45976 0.0
H137 H 0.30461 0.22719 0.55164 0.0
H138 H 0.16946 0.23812 0.40618 0.0
H139 H 0.15623 0.25412 0.48844 0.0
H140 H 0.17528 0.28359 0.42707 0.0
H141 H 0.28866 0.17031 0.58382 0.0
H142 H 0.24352 0.16584 0.60671 0.0
H143 H 0.25757 0.15105 0.52412 0.0
H144 H 0.12453 0.15802 0.60571 0.0
H145 H 0.15885 0.11986 0.40968 0.0
H146 H 0.16845 0.23688 0.60679 0.0
H147 H 0.19837 0.20744 0.64766 0.0
H148 H 0.15245 0.20393 0.66462 0.0
H149 H 0.20948 0.19163 0.36493 0.0
H150 H 0.20478 0.1455 0.34947 0.0
H151 H 0.23889 0.16178 0.40609 0.0
C152 C 0.26358 0.77253 0.05732 0.0
C153 C 0.23386 0.76908 0.01488 0.0
C154 C 0.28952 0.74682 0.05827 0.0
C155 C 0.28574 0.71724 0.01496 0.0
C156 C 0.25578 0.71378 0.97167 0.0
C157 C 0.23006 0.73969 0.97256 0.0
C158 C 0.32096 0.75129 0.1055 0.0
C159 C 0.25093 0.68277 0.92442 0.0
C160 C 0.3671 0.6666 0.96964 0.0
C161 C 0.36482 0.63779 0.01389 0.0
C162 C 0.34147 0.69263 0.96929 0.0
C163 C 0.31312 0.68991 0.01484 0.0
C164 C 0.31083 0.66099 0.06 0.0
C165 C 0.33663 0.63515 0.05869 0.0
C166 C 0.34456 0.72287 0.9198 0.0
C167 C 0.28121 0.65743 0.10989 0.0
H168 H 0.26653 0.79553 0.08937 0.0
H169 H 0.2068 0.73698 0.94046 0.0
H170 H 0.32334 0.72866 0.14097 0.0
H171 H 0.34499 0.75217 0.07452 0.0
H172 H 0.31956 0.77546 0.13697 0.0
H173 H 0.22644 0.68436 0.89308 0.0
H174 H 0.27319 0.68081 0.88881 0.0
H175 H 0.25046 0.65844 0.95536 0.0
H176 H 0.3887 0.66849 0.93446 0.0
H177 H 0.33504 0.61307 0.09349 0.0
H178 H 0.34558 0.74774 0.94901 0.0
H179 H 0.32125 0.72393 0.88509 0.0
H180 H 0.36814 0.72103 0.88753 0.0
H181 H 0.2805 0.68047 0.14452 0.0
H182 H 0.2835 0.63359 0.14223 0.0
H183 H 0.256 0.65657 0.08098 0.0
C184 C 0.76432 0.72828 0.49441 0.0
C185 C 0.73108 0.7363 0.51806 0.0
C186 C 0.79042 0.75382 0.4924 0.0
C187 C 0.78314 0.78791 0.51618 0.0
C188 C 0.74961 0.79591 0.54113 0.0
C189 C 0.72381 0.77 0.54101 0.0
C190 C 0.82564 0.74442 0.46435 0.0
C191 C 0.74104 0.83175 0.56804 0.0
C192 C 0.86039 0.84441 0.56881 0.0
C193 C 0.86309 0.8665 0.51146 0.0
C194 C 0.83416 0.81899 0.57147 0.0
C195 C 0.8106 0.81519 0.51475 0.0
C196 C 0.81343 0.8373 0.45646 0.0
C197 C 0.83947 0.86297 0.45583 0.0
C198 C 0.83154 0.79634 0.63506 0.0
C199 C 0.78919 0.8336 0.39448 0.0
H200 H 0.76961 0.70201 0.47697 0.0
H201 H 0.69789 0.77588 0.55898 0.0
H202 H 0.83191 0.76173 0.42029 0.0
H203 H 0.84611 0.74845 0.50478 0.0
H204 H 0.82677 0.71694 0.4465 0.0
H205 H 0.71404 0.83337 0.58756 0.0
H206 H 0.75946 0.83892 0.61061 0.0
H207 H 0.74409 0.85133 0.52638 0.0
H208 H 0.87851 0.84741 0.61209 0.0
H209 H 0.84179 0.87992 0.41128 0.0
H210 H 0.83502 0.76859 0.62084 0.0
H211 H 0.80524 0.79889 0.65744 0.0
H212 H 0.85132 0.80325 0.67543 0.0
H213 H 0.79104 0.80685 0.37308 0.0
H214 H 0.7952 0.85253 0.35288 0.0
H215 H 0.76184 0.83753 0.41026 0.0
C216 C 0.73803 0.22897 0.04345 0.0
C217 C 0.76742 0.23308 1.00244 0.0
C218 C 0.71217 0.25472 0.04523 0.0
C219 C 0.71569 0.28504 1.00417 0.0
C220 C 0.7452 0.28908 0.96198 0.0
C221 C 0.77086 0.26309 0.96202 0.0
C222 C 0.68121 0.24958 0.09123 0.0
C223 C 0.74973 0.32088 0.91707 0.0
C224 C 0.63396 0.33706 0.96218 0.0
C225 C 0.63699 0.36481 0.00909 0.0
C226 C 0.65952 0.31103 0.95966 0.0
C227 C 0.68857 0.31261 0.00571 0.0
C228 C 0.69168 0.34049 0.0534 0.0
C229 C 0.66593 0.36638 0.05424 0.0
C230 C 0.65555 0.28193 0.90752 0.0
C231 C 0.72208 0.34282 0.10388 0.0
H232 H 0.73532 0.20548 0.07396 0.0
H233 H 0.79387 0.26628 0.93098 0.0
H234 H 0.67955 0.27141 0.12864 0.0
H235 H 0.6568 0.24972 0.05963 0.0
H236 H 0.68265 0.22471 0.12056 0.0
H237 H 0.77371 0.31956 0.88586 0.0
H238 H 0.72693 0.32381 0.88144 0.0
H239 H 0.751 0.3446 0.94981 0.0
H240 H 0.61179 0.33602 0.9267 0.0
H241 H 0.66812 0.38763 0.09102 0.0
H242 H 0.65459 0.25646 0.93455 0.0
H243 H 0.67845 0.28138 0.87332 0.0
H244 H 0.63161 0.28471 0.87486 0.0
H245 H 0.72305 0.31914 0.13679 0.0
H246 H 0.72051 0.36605 0.13794 0.0
H247 H 0.74687 0.34396 0.07537 0.0
C248 C 0.16344 0.87302 0.14838 0.0
C249 C 0.14708 0.85558 0.09307 0.0
C250 C 0.14409 0.89144 0.19698 0.0
C251 C 0.10748 0.89373 0.18844 0.0
C252 C 0.09094 0.87776 0.1304 0.0
C253 C 0.11092 0.85826 0.08398 0.0
C254 C 0.16277 0.90746 0.25867 0.0
C255 C 0.05214 0.88068 0.11809 0.0
C256 C 0.05603 0.91029 0.35135 0.0
C257 C 0.05296 0.94663 0.35045 0.0
C258 C 0.07331 0.89266 0.29835 0.0
C259 C 0.08671 0.91177 0.24199 0.0
C260 C 0.08242 0.94838 0.23959 0.0
C261 C 0.06615 0.96546 0.29455 0.0
C262 C 0.07825 0.85373 0.30386 0.0
C263 C 0.09529 0.96954 0.17931 0.0
H264 H 0.1915 0.87143 0.1544 0.0
H265 H 0.09828 0.84461 0.04137 0.0
H266 H 0.15808 0.93595 0.26003 0.0
H267 H 0.15241 0.89636 0.30719 0.0
H268 H 0.19133 0.90289 0.25797 0.0
H269 H 0.04401 0.8705 0.06645 0.0
H270 H 0.03825 0.86579 0.15832 0.0
H271 H 0.04377 0.90826 0.12215 0.0
H272 H 0.04583 0.89575 0.39463 0.0
H273 H 0.06328 0.99355 0.29331 0.0
H274 H 0.10648 0.84753 0.3059 0.0
H275 H 0.06701 0.84064 0.25744 0.0
H276 H 0.06592 0.84268 0.35058 0.0
H277 H 0.12416 0.96898 0.17866 0.0
H278 H 0.08672 0.99714 0.18183 0.0
H279 H 0.08574 0.95809 0.12975 0.0
C280 C 0.66347 0.62882 0.64975 0.0
C281 C 0.64646 0.6478 0.59735 0.0
C282 C 0.64463 0.61003 0.69872 0.0
C283 C 0.60784 0.60882 0.69315 0.0
C284 C 0.59059 0.62612 0.63753 0.0
C285 C 0.61011 0.646 0.59096 0.0
C286 C 0.66407 0.59261 0.75788 0.0
C287 C 0.55153 0.62429 0.62813 0.0
C288 C 0.56567 0.5371 0.7983 0.0
C289 C 0.55368 0.5557 0.85553 0.0
C290 C 0.58195 0.55428 0.74345 0.0
C291 C 0.5876 0.59069 0.74743 0.0
C292 C 0.57558 0.60954 0.80538 0.0
C293 C 0.55813 0.59187 0.85815 0.0
C294 C 0.59319 0.53349 0.6814 0.0
C295 C 0.58203 0.64819 0.8126 0.0
H296 H 0.69164 0.62952 0.6534 0.0
H297 H 0.59697 0.66072 0.55044 0.0
H298 H 0.65513 0.60335 0.80785 0.0
H299 H 0.65847 0.56428 0.75819 0.0
H300 H 0.6927 0.59635 0.75494 0.0
H301 H 0.5427 0.63531 0.57764 0.0
H302 H 0.54249 0.59688 0.6315 0.0
H303 H 0.53886 0.63902 0.67012 0.0
H304 H 0.56171 0.50915 0.79586 0.0
H305 H 0.54887 0.6062 0.90253 0.0
H306 H 0.62201 0.53344 0.67854 0.0
H307 H 0.58299 0.54567 0.63305 0.0
H308 H 0.58401 0.50606 0.6834 0.0
H309 H 0.61046 0.65347 0.81227 0.0
H310 H 0.57122 0.65894 0.86108 0.0
H311 H 0.57017 0.66229 0.76803 0.0
C312 C 0.83808 0.12779 0.13515 0.0
C313 C 0.85443 0.14576 0.08169 0.0
C314 C 0.85744 0.10911 0.18469 0.0
C315 C 0.89408 0.1071 0.17893 0.0
C316 C 0.91061 0.12347 0.12249 0.0
C317 C 0.8906 0.14323 0.07513 0.0
C318 C 0.83876 0.09269 0.24464 0.0
C319 C 0.94943 0.12081 0.11306 0.0
C320 C 0.94519 0.09105 0.346 0.0
C321 C 0.94857 0.05474 0.34545 0.0
C322 C 0.92793 0.1085 0.29154 0.0
C323 C 0.91489 0.08924 0.2341 0.0
C324 C 0.91952 0.05266 0.23213 0.0
C325 C 0.93573 0.03575 0.28852 0.0
C326 C 0.92261 0.14738 0.29659 0.0
C327 C 0.90707 0.03138 0.17079 0.0
H328 H 0.81001 0.12927 0.13915 0.0
H329 H 0.90323 0.15726 0.0339 0.0
H330 H 0.84385 0.06428 0.24623 0.0
H331 H 0.84879 0.10386 0.2941 0.0
H332 H 0.81015 0.09687 0.24153 0.0
H333 H 0.95748 0.13086 0.06184 0.0
H334 H 0.96316 0.13602 0.15402 0.0
H335 H 0.95806 0.09333 0.11819 0.0
H336 H 0.95513 0.1057 0.39008 0.0
H337 H 0.93887 0.00769 0.28761 0.0
H338 H 0.89432 0.15333 0.2961 0.0
H339 H 0.93396 0.16057 0.25119 0.0
H340 H 0.93462 0.15855 0.34441 0.0
H341 H 0.8782 0.03161 0.16773 0.0
H342 H 0.91594 0.00388 0.174 0.0
H343 H 0.91663 0.04296 0.12204 0.0
C344 C 0.39158 0.3577 0.58254 0.0
C345 C 0.35523 0.35602 0.58601 0.0
C346 C 0.41101 0.3779 0.6301 0.0
C347 C 0.39363 0.39565 0.68377 0.0
C348 C 0.35682 0.39471 0.6861 0.0
C349 C 0.33809 0.37559 0.63615 0.0
C350 C 0.45011 0.37943 0.62408 0.0
C351 C 0.33724 0.41261 0.74312 0.0
C352 C 0.44271 0.41212 0.85309 0.0
C353 C 0.44765 0.44823 0.8508 0.0
C354 C 0.42527 0.39466 0.79885 0.0
C355 C 0.41376 0.41362 0.73981 0.0
C356 C 0.41986 0.44996 0.73629 0.0
C357 C 0.43612 0.46697 0.79255 0.0
C358 C 0.4183 0.35609 0.80559 0.0
C359 C 0.40921 0.47084 0.67317 0.0
H360 H 0.40481 0.34255 0.5437 0.0
H361 H 0.30991 0.37497 0.63747 0.0
H362 H 0.45939 0.40674 0.62846 0.0
H363 H 0.46248 0.36448 0.66701 0.0
H364 H 0.45902 0.36842 0.57427 0.0
H365 H 0.30858 0.40936 0.73729 0.0
H366 H 0.34559 0.4018 0.79403 0.0
H367 H 0.34332 0.44084 0.74385 0.0
H368 H 0.45164 0.3977 0.89828 0.0
H369 H 0.44046 0.49486 0.79045 0.0
H370 H 0.43038 0.34179 0.76233 0.0
H371 H 0.38983 0.35113 0.80233 0.0
H372 H 0.42858 0.34528 0.85521 0.0
H373 H 0.41961 0.45854 0.62584 0.0
H374 H 0.41863 0.49818 0.67605 0.0
H375 H 0.38043 0.47114 0.66752 0.0
C376 C 0.62269 0.66621 0.38736 0.0
C377 C 0.64261 0.65014 0.43964 0.0
C378 C 0.60448 0.64647 0.33763 0.0
C379 C 0.60488 0.60967 0.34226 0.0
C380 C 0.623 0.59332 0.39793 0.0
C381 C 0.64224 0.61378 0.44534 0.0
C382 C 0.58608 0.66501 0.27853 0.0
C383 C 0.62286 0.55424 0.40634 0.0
C384 C 0.53504 0.56477 0.23276 0.0
C385 C 0.55412 0.55384 0.17557 0.0
C386 C 0.55154 0.58144 0.28912 0.0
C387 C 0.58769 0.58857 0.28676 0.0
C388 C 0.60705 0.57748 0.229 0.0
C389 C 0.59011 0.5596 0.17464 0.0
C390 C 0.53027 0.59164 0.35089 0.0
C391 C 0.64541 0.58551 0.22354 0.0
H392 H 0.62233 0.69437 0.38426 0.0
H393 H 0.65769 0.60139 0.48581 0.0
H394 H 0.59722 0.65658 0.22864 0.0
H395 H 0.55805 0.65805 0.27711 0.0
H396 H 0.58843 0.69379 0.28251 0.0
H397 H 0.63402 0.54606 0.45723 0.0
H398 H 0.59591 0.54396 0.40125 0.0
H399 H 0.63839 0.54215 0.3649 0.0
H400 H 0.50725 0.55978 0.23385 0.0
H401 H 0.60479 0.55113 0.13028 0.0
H402 H 0.52868 0.62042 0.35449 0.0
H403 H 0.54304 0.5822 0.39933 0.0
H404 H 0.50337 0.58099 0.34779 0.0
H405 H 0.6495 0.61413 0.22482 0.0
H406 H 0.65667 0.57506 0.17522 0.0
H407 H 0.65993 0.57433 0.26838 0.0
C408 C 0.87231 0.16446 0.86948 0.0
C409 C 0.85501 0.14762 0.92319 0.0
C410 C 0.89114 0.1456 0.82071 0.0
C411 C 0.894 0.10901 0.82751 0.0
C412 C 0.87819 0.092 0.88403 0.0
C413 C 0.85826 0.11148 0.93057 0.0
C414 C 0.90692 0.16475 0.76057 0.0
C415 C 0.8817 0.0532 0.89453 0.0
C416 C 0.91093 0.05791 0.66312 0.0
C417 C 0.94729 0.05501 0.66519 0.0
C418 C 0.89322 0.07514 0.71603 0.0
C419 C 0.91226 0.08868 0.77349 0.0
C420 C 0.94892 0.08472 0.7769 0.0
C421 C 0.96608 0.06848 0.72201 0.0
C422 C 0.85424 0.07974 0.70942 0.0
C423 C 0.97 0.09776 0.83834 0.0
H424 H 0.8703 0.19251 0.8648 0.0
H425 H 0.84472 0.09844 0.97192 0.0
H426 H 0.93544 0.16037 0.75985 0.0
H427 H 0.89588 0.15451 0.71114 0.0
H428 H 0.90204 0.19325 0.76269 0.0
H429 H 0.87168 0.04474 0.94543 0.0
H430 H 0.86699 0.03924 0.85314 0.0
H431 H 0.9094 0.04526 0.89098 0.0
H432 H 0.89642 0.0475 0.61913 0.0
H433 H 0.99419 0.06574 0.72413 0.0
H434 H 0.84775 0.10791 0.70892 0.0
H435 H 0.84127 0.06805 0.75468 0.0
H436 H 0.8433 0.06762 0.66156 0.0
H437 H 0.96885 0.1266 0.84054 0.0
H438 H 0.99776 0.08976 0.83605 0.0
H439 H 0.95888 0.08775 0.8871 0.0
C440 C 0.35927 0.38817 0.43325 0.0
C441 C 0.35904 0.35177 0.42877 0.0
C442 C 0.37855 0.4083 0.38673 0.0
C443 C 0.39687 0.39156 0.33307 0.0
C444 C 0.39731 0.35473 0.32957 0.0
C445 C 0.37904 0.33534 0.37849 0.0
C446 C 0.37861 0.44744 0.39396 0.0
C447 C 0.41589 0.33579 0.27253 0.0
C448 C 0.41213 0.44112 0.16607 0.0
C449 C 0.44805 0.44721 0.17019 0.0
C450 C 0.3951 0.42315 0.21897 0.0
C451 C 0.41427 0.41231 0.27852 0.0
C452 C 0.45037 0.41963 0.28395 0.0
C453 C 0.46698 0.43638 0.22899 0.0
C454 C 0.35681 0.41488 0.21021 0.0
C455 C 0.47142 0.40971 0.34769 0.0
H456 H 0.34373 0.40086 0.47212 0.0
H457 H 0.37952 0.30715 0.37635 0.0
H458 H 0.40559 0.4577 0.39131 0.0
H459 H 0.36343 0.45921 0.35058 0.0
H460 H 0.36706 0.45602 0.44344 0.0
H461 H 0.41352 0.30703 0.2771 0.0
H462 H 0.40493 0.34387 0.22149 0.0
H463 H 0.44392 0.34274 0.27329 0.0
H464 H 0.39757 0.44951 0.12045 0.0
H465 H 0.49472 0.44161 0.23252 0.0
H466 H 0.342 0.42633 0.25336 0.0
H467 H 0.35284 0.38625 0.212 0.0
H468 H 0.34577 0.4249 0.16056 0.0
H469 H 0.45858 0.41956 0.39482 0.0
H470 H 0.49839 0.42017 0.34652 0.0
H471 H 0.47281 0.38095 0.3522 0.0
C472 C 0.12861 0.83895 0.87929 0.0
C473 C 0.14608 0.85539 0.93448 0.0
C474 C 0.10984 0.85819 0.82971 0.0
C475 C 0.10722 0.89476 0.83712 0.0
C476 C 0.12311 0.91135 0.89518 0.0
C477 C 0.14297 0.89149 0.94261 0.0
C478 C 0.09394 0.83946 0.76804 0.0
C479 C 0.11982 0.9501 0.90631 0.0
C480 C 0.09086 0.94619 0.67179 0.0
C481 C 0.0545 0.94908 0.67084 0.0
C482 C 0.10841 0.929 0.72621 0.0
C483 C 0.0892 0.91548 0.7821 0.0
C484 C 0.05255 0.91955 0.78259 0.0
C485 C 0.03556 0.93576 0.72627 0.0
C486 C 0.14739 0.92431 0.72273 0.0
C487 C 0.03129 0.90653 0.84229 0.0
H488 H 0.13052 0.81093 0.87404 0.0
H489 H 0.15662 0.9042 0.98519 0.0
H490 H 0.06545 0.8441 0.76529 0.0
H491 H 0.10511 0.84984 0.71963 0.0
H492 H 0.09857 0.81091 0.76996 0.0
H493 H 0.12964 0.95816 0.95833 0.0
H494 H 0.13487 0.9642 0.86664 0.0
H495 H 0.09221 0.9583 0.9004 0.0
H496 H 0.10549 0.9565 0.62889 0.0
H497 H 0.00745 0.93849 0.72606 0.0
H498 H 0.15377 0.89611 0.7221 0.0
H499 H 0.16027 0.93568 0.76931 0.0
H500 H 0.15851 0.93666 0.67605 0.0
H501 H 0.03203 0.87767 0.84401 0.0
H502 H 0.00365 0.91493 0.83815 0.0
H503 H 0.04253 0.91615 0.89205 0.0
loop_
_geom_bond_atom_site_label_1
_geom_bond_atom_site_label_2
_geom_bond_distance
_geom_bond_site_symmetry_2
_ccdc_geom_bond_type
C0 N1 1.317 . S
C0 N2 1.348 1_556 S
C0 C3 1.485 . S
N1 C0 1.317 . S
N1 N5 1.370 1_556 S
N2 C0 1.348 1_554 S
N2 C4 1.346 . S
C3 C0 1.485 . S
C3 H7 0.960 . S
C3 H8 0.961 . S
C3 H9 0.960 . S
C4 N2 1.346 . S
C4 N5 1.307 . S
C4 C6 1.486 . S
N5 N1 1.370 1_554 S
N5 C4 1.307 . S
C6 C4 1.486 . S
C6 H10 0.960 . S
C6 H11 0.960 . S
C6 H12 0.959 . S
H7 C3 0.960 . S
H8 C3 0.961 . S
H9 C3 0.960 . S
H10 C6 0.960 . S
H11 C6 0.960 . S
H12 C6 0.959 . S
C13 N14 1.317 . S
C13 N15 1.348 . S
C13 C16 1.485 . S
N14 C13 1.317 . S
N14 N18 1.370 . S
N15 C13 1.348 . S
N15 C17 1.346 . S
C16 C13 1.485 . S
C16 H20 0.960 . S
C16 H21 0.961 . S
C16 H22 0.960 . S
C17 N15 1.346 . S
C17 N18 1.307 . S
C17 C19 1.486 . S
N18 N14 1.370 . S
N18 C17 1.307 . S
C19 C17 1.486 . S
C19 H23 0.960 . S
C19 H24 0.960 . S
C19 H25 0.959 . S
H20 C16 0.960 . S
H21 C16 0.961 . S
H22 C16 0.960 . S
H23 C19 0.960 . S
H24 C19 0.960 . S
H25 C19 0.959 . S
C26 N27 1.317 . S
C26 N28 1.348 . S
C26 C29 1.485 . S
N27 C26 1.317 . S
N27 N31 1.370 1_554 S
N28 C26 1.348 . S
N28 C30 1.346 1_554 S
C29 C26 1.485 . S
C29 H33 0.960 . S
C29 H34 0.961 . S
C29 H35 0.960 . S
C30 N28 1.346 1_556 S
C30 N31 1.307 . S
C30 C32 1.486 . S
N31 N27 1.370 1_556 S
N31 C30 1.307 . S
C32 C30 1.486 . S
C32 H36 0.960 . S
C32 H37 0.960 . S
C32 H38 0.959 . S
H33 C29 0.960 . S
H34 C29 0.961 . S
H35 C29 0.960 . S
H36 C32 0.960 . S
H37 C32 0.960 . S
H38 C32 0.959 . S
C39 N40 1.317 . S
C39 N41 1.348 . S
C39 C42 1.485 . S
N40 C39 1.317 . S
N40 N44 1.370 . S
N41 C39 1.348 . S
N41 C43 1.346 . S
C42 C39 1.485 . S
C42 H46 0.960 . S
C42 H47 0.961 . S
C42 H48 0.960 . S
C43 N41 1.346 . S
C43 N44 1.307 . S
C43 C45 1.486 . S
N44 N40 1.370 . S
N44 C43 1.307 . S
C45 C43 1.486 . S
C45 H49 0.960 . S
C45 H50 0.960 . S
C45 H51 0.959 . S
H46 C42 0.960 . S
H47 C42 0.961 . S
H48 C42 0.960 . S
H49 C45 0.960 . S
H50 C45 0.960 . S
H51 C45 0.959 . S
C52 O68 1.251 . S
C52 O70 1.254 . S
N53 C54 1.333 . S
N53 C58 1.307 . S
N53 Zn59 2.020 . S
C54 N53 1.333 . S
C54 C55 1.379 . S
C54 H72 0.952 . S
C55 C54 1.379 . S
C55 C56 1.390 . S
C55 H82 0.949 . S
C56 C55 1.390 . S
C56 C57 1.357 . S
C57 C56 1.357 . S
C57 C58 1.370 . S
C57 H83 0.950 . S
C58 N53 1.307 . S
C58 C57 1.370 . S
C58 H76 0.948 . S
Zn59 N53 2.020 . S
Zn59 O68 2.039 1_545 S
Zn59 O74 2.034 1_545 S
Zn59 O78 2.025 1_455 S
Zn59 O80 2.024 1_455 S
C60 O79 1.246 . S
C60 O80 1.249 . S
N61 C62 1.307 . S
N61 C63 1.333 . S
N61 Zn67 2.020 . S
C62 N61 1.307 . S
C62 C66 1.370 . S
C62 H73 0.948 . S
C63 N61 1.333 . S
C63 C64 1.379 . S
C63 H71 0.952 . S
C64 C63 1.379 . S
C64 C65 1.390 . S
C64 H84 0.949 . S
C65 C64 1.390 . S
C65 C66 1.357 . S
C66 C62 1.370 . S
C66 C65 1.357 . S
C66 H85 0.950 . S
Zn67 N61 2.020 . S
Zn67 O70 2.025 1_655 S
Zn67 O75 2.024 1_655 S
Zn67 O77 2.039 1_565 S
Zn67 O79 2.034 1_565 S
O68 C52 1.251 . S
O68 Zn59 2.039 1_565 S
C69 O74 1.246 . S
C69 O75 1.249 . S
O70 C52 1.254 . S
O70 Zn67 2.025 1_455 S
H71 C63 0.952 . S
H72 C54 0.952 . S
H73 C62 0.948 . S
O74 Zn59 2.034 1_565 S
O74 C69 1.246 . S
O75 Zn67 2.024 1_455 S
O75 C69 1.249 . S
H76 C58 0.948 . S
O77 Zn67 2.039 1_545 S
O77 C81 1.251 . S
O78 Zn59 2.025 1_655 S
O78 C81 1.254 . S
O79 C60 1.246 . S
O79 Zn67 2.034 1_545 S
O80 Zn59 2.024 1_655 S
O80 C60 1.249 . S
C81 O77 1.251 . S
C81 O78 1.254 . S
H82 C55 0.949 . S
H83 C57 0.950 . S
H84 C64 0.949 . S
H85 C66 0.950 . S
C86 O102 1.251 . S
C86 O104 1.254 . S
N87 C88 1.333 1_554 S
N87 C92 1.307 . S
N87 Zn93 2.020 . S
C88 N87 1.333 1_556 S
C88 C89 1.379 . S
C88 H106 0.952 . S
C89 C88 1.379 . S
C89 C90 1.390 1_556 S
C89 H116 0.949 . S
C90 C89 1.390 1_554 S
C90 C91 1.357 . S
C91 C90 1.357 . S
C91 C92 1.370 . S
C91 H117 0.950 . S
C92 N87 1.307 . S
C92 C91 1.370 . S
C92 H110 0.948 . S
Zn93 N87 2.020 . S
Zn93 O102 2.039 1_554 S
Zn93 O108 2.034 . S
Zn93 O112 2.025 . S
Zn93 O114 2.024 1_554 S
C94 O113 1.246 . S
C94 O114 1.249 . S
N95 C96 1.307 1_554 S
N95 C97 1.333 . S
N95 Zn101 2.020 . S
C96 N95 1.307 1_556 S
C96 C100 1.370 . S
C96 H107 0.948 . S
C97 N95 1.333 . S
C97 C98 1.379 . S
C97 H105 0.952 . S
C98 C97 1.379 . S
C98 C99 1.390 . S
C98 H118 0.949 . S
C99 C98 1.390 . S
C99 C100 1.357 1_554 S
C100 C96 1.370 . S
C100 C99 1.357 1_556 S
C100 H119 0.950 . S
Zn101 N95 2.020 . S
Zn101 O104 2.025 1_554 S
Zn101 O109 2.024 . S
Zn101 O111 2.039 . S
Zn101 O113 2.034 1_554 S
O102 C86 1.251 . S
O102 Zn93 2.039 1_556 S
C103 O108 1.246 . S
C103 O109 1.249 . S
O104 C86 1.254 . S
O104 Zn101 2.025 1_556 S
H105 C97 0.952 . S
H106 C88 0.952 . S
H107 C96 0.948 . S
O108 Zn93 2.034 . S
O108 C103 1.246 . S
O109 Zn101 2.024 . S
O109 C103 1.249 . S
H110 C92 0.948 . S
O111 Zn101 2.039 . S
O111 C115 1.251 . S
O112 Zn93 2.025 . S
O112 C115 1.254 . S
O113 C94 1.246 . S
O113 Zn101 2.034 1_556 S
O114 Zn93 2.024 1_556 S
O114 C94 1.249 . S
C115 O111 1.251 . S
C115 O112 1.254 . S
H116 C89 0.949 . S
H117 C91 0.950 . S
H118 C98 0.949 . S
H119 C100 0.950 . S
C120 C121 1.391 . S
C120 C122 1.394 . S
C120 H136 0.931 . S
C121 C120 1.391 . S
C121 C125 1.376 . S
C122 C120 1.394 . S
C122 C123 1.369 . S
C122 C126 1.531 . S
C123 C122 1.369 . S
C123 C124 1.410 . S
C123 C131 1.503 . S
C124 C123 1.410 . S
C124 C125 1.392 . S
C124 C127 1.511 . S
C125 C121 1.376 . S
C125 C124 1.392 . S
C125 H137 0.929 . S
C126 C122 1.531 . S
C126 H138 0.960 . S
C126 H139 0.962 . S
C126 H140 0.960 . S
C127 C124 1.511 . S
C127 H141 0.961 . S
C127 H142 0.961 . S
C127 H143 0.961 . S
C128 C129 1.370 . S
C128 C130 1.363 . S
C128 H144 0.931 . S
C129 C128 1.370 . S
C129 C133 1.408 . S
C130 C128 1.363 . S
C130 C131 1.370 . S
C130 C134 1.524 . S
C131 C123 1.503 . S
C131 C130 1.370 . S
C131 C132 1.403 . S
C132 C131 1.403 . S
C132 C133 1.404 . S
C132 C135 1.539 . S
C133 C129 1.408 . S
C133 C132 1.404 . S
C133 H145 0.930 . S
C134 C130 1.524 . S
C134 H146 0.956 . S
C134 H147 0.961 . S
C134 H148 0.961 . S
C135 C132 1.539 . S
C135 H149 0.958 . S
C135 H150 0.961 . S
C135 H151 0.960 . S
H136 C120 0.931 . S
H137 C125 0.929 . S
H138 C126 0.960 . S
H139 C126 0.962 . S
H140 C126 0.960 . S
H141 C127 0.961 . S
H142 C127 0.961 . S
H143 C127 0.961 . S
H144 C128 0.931 . S
H145 C133 0.930 . S
H146 C134 0.956 . S
H147 C134 0.961 . S
H148 C134 0.961 . S
H149 C135 0.958 . S
H150 C135 0.961 . S
H151 C135 0.960 . S
C152 C153 1.391 . S
C152 C154 1.394 . S
C152 H168 0.931 . S
C153 C152 1.391 . S
C153 C157 1.376 1_554 S
C154 C152 1.394 . S
C154 C155 1.369 . S
C154 C158 1.531 . S
C155 C154 1.369 . S
C155 C156 1.410 1_554 S
C155 C163 1.503 . S
C156 C155 1.410 1_556 S
C156 C157 1.392 . S
C156 C159 1.511 . S
C157 C153 1.376 1_556 S
C157 C156 1.392 . S
C157 H169 0.929 . S
C158 C154 1.531 . S
C158 H170 0.960 . S
C158 H171 0.962 . S
C158 H172 0.960 . S
C159 C156 1.511 . S
C159 H173 0.961 . S
C159 H174 0.961 . S
C159 H175 0.961 . S
C160 C161 1.370 . S
C160 C162 1.363 . S
C160 H176 0.931 . S
C161 C160 1.370 . S
C161 C165 1.408 . S
C162 C160 1.363 . S
C162 C163 1.370 . S
C162 C166 1.524 . S
C163 C155 1.503 . S
C163 C162 1.370 . S
C163 C164 1.403 . S
C164 C163 1.403 . S
C164 C165 1.404 . S
C164 C167 1.539 1_554 S
C165 C161 1.408 . S
C165 C164 1.404 . S
C165 H177 0.930 1_554 S
C166 C162 1.524 . S
C166 H178 0.956 . S
C166 H179 0.961 1_554 S
C166 H180 0.961 . S
C167 C164 1.539 1_556 S
C167 H181 0.958 1_556 S
C167 H182 0.961 . S
C167 H183 0.960 . S
H168 C152 0.931 . S
H169 C157 0.929 . S
H170 C158 0.960 . S
H171 C158 0.962 . S
H172 C158 0.960 . S
H173 C159 0.961 . S
H174 C159 0.961 . S
H175 C159 0.961 . S
H176 C160 0.931 . S
H177 C165 0.930 1_556 S
H178 C166 0.956 . S
H179 C166 0.961 1_556 S
H180 C166 0.961 . S
H181 C167 0.958 1_554 S
H182 C167 0.961 . S
H183 C167 0.960 . S
C184 C185 1.391 . S
C184 C186 1.394 . S
C184 H200 0.931 . S
C185 C184 1.391 . S
C185 C189 1.376 . S
C186 C184 1.394 . S
C186 C187 1.369 . S
C186 C190 1.531 . S
C187 C186 1.369 . S
C187 C188 1.410 . S
C187 C195 1.503 . S
C188 C187 1.410 . S
C188 C189 1.392 . S
C188 C191 1.511 . S
C189 C185 1.376 . S
C189 C188 1.392 . S
C189 H201 0.929 . S
C190 C186 1.531 . S
C190 H202 0.960 . S
C190 H203 0.962 . S
C190 H204 0.960 . S
C191 C188 1.511 . S
C191 H205 0.961 . S
C191 H206 0.961 . S
C191 H207 0.961 . S
C192 C193 1.370 . S
C192 C194 1.363 . S
C192 H208 0.931 . S
C193 C192 1.370 . S
C193 C197 1.408 . S
C194 C192 1.363 . S
C194 C195 1.370 . S
C194 C198 1.524 . S
C195 C187 1.503 . S
C195 C194 1.370 . S
C195 C196 1.403 . S
C196 C195 1.403 . S
C196 C197 1.404 . S
C196 C199 1.539 . S
C197 C193 1.408 . S
C197 C196 1.404 . S
C197 H209 0.930 . S
C198 C194 1.524 . S
C198 H210 0.956 . S
C198 H211 0.961 . S
C198 H212 0.961 . S
C199 C196 1.539 . S
C199 H213 0.958 . S
C199 H214 0.961 . S
C199 H215 0.960 . S
H200 C184 0.931 . S
H201 C189 0.929 . S
H202 C190 0.960 . S
H203 C190 0.962 . S
H204 C190 0.960 . S
H205 C191 0.961 . S
H206 C191 0.961 . S
H207 C191 0.961 . S
H208 C192 0.931 . S
H209 C197 0.930 . S
H210 C198 0.956 . S
H211 C198 0.961 . S
H212 C198 0.961 . S
H213 C199 0.958 . S
H214 C199 0.961 . S
H215 C199 0.960 . S
C216 C217 1.391 . S
C216 C218 1.394 . S
C216 H232 0.931 . S
C217 C216 1.391 . S
C217 C221 1.376 1_554 S
C218 C216 1.394 . S
C218 C219 1.369 . S
C218 C222 1.531 . S
C219 C218 1.369 . S
C219 C220 1.410 1_554 S
C219 C227 1.503 . S
C220 C219 1.410 1_556 S
C220 C221 1.392 . S
C220 C223 1.511 . S
C221 C217 1.376 1_556 S
C221 C220 1.392 . S
C221 H233 0.929 . S
C222 C218 1.531 . S
C222 H234 0.960 . S
C222 H235 0.962 . S
C222 H236 0.960 . S
C223 C220 1.511 . S
C223 H237 0.961 . S
C223 H238 0.961 . S
C223 H239 0.961 . S
C224 C225 1.370 1_556 S
C224 C226 1.363 . S
C224 H240 0.931 . S
C225 C224 1.370 1_554 S
C225 C229 1.408 . S
C226 C224 1.363 . S
C226 C227 1.370 1_556 S
C226 C230 1.524 . S
C227 C219 1.503 . S
C227 C226 1.370 1_554 S
C227 C228 1.403 . S
C228 C227 1.403 . S
C228 C229 1.404 . S
C228 C231 1.539 . S
C229 C225 1.408 . S
C229 C228 1.404 . S
C229 H241 0.930 . S
C230 C226 1.524 . S
C230 H242 0.956 . S
C230 H243 0.961 . S
C230 H244 0.961 . S
C231 C228 1.539 . S
C231 H245 0.958 . S
C231 H246 0.961 . S
C231 H247 0.960 . S
H232 C216 0.931 . S
H233 C221 0.929 . S
H234 C222 0.960 . S
H235 C222 0.962 . S
H236 C222 0.960 . S
H237 C223 0.961 . S
H238 C223 0.961 . S
H239 C223 0.961 . S
H240 C224 0.931 . S
H241 C229 0.930 . S
H242 C230 0.956 . S
H243 C230 0.961 . S
H244 C230 0.961 . S
H245 C231 0.958 . S
H246 C231 0.961 . S
H247 C231 0.960 . S
C248 C249 1.391 . S
C248 C250 1.394 . S
C248 H264 0.931 . S
C249 C248 1.391 . S
C249 C253 1.376 . S
C250 C248 1.394 . S
C250 C251 1.369 . S
C250 C254 1.531 . S
C251 C250 1.369 . S
C251 C252 1.410 . S
C251 C259 1.503 . S
C252 C251 1.410 . S
C252 C253 1.392 . S
C252 C255 1.511 . S
C253 C249 1.376 . S
C253 C252 1.392 . S
C253 H265 0.929 . S
C254 C250 1.531 . S
C254 H266 0.960 . S
C254 H267 0.962 . S
C254 H268 0.960 . S
C255 C252 1.511 . S
C255 H269 0.961 . S
C255 H270 0.961 . S
C255 H271 0.961 . S
C256 C257 1.370 . S
C256 C258 1.363 . S
C256 H272 0.931 . S
C257 C256 1.370 . S
C257 C261 1.408 . S
C258 C256 1.363 . S
C258 C259 1.370 . S
C258 C262 1.524 . S
C259 C251 1.503 . S
C259 C258 1.370 . S
C259 C260 1.403 . S
C260 C259 1.403 . S
C260 C261 1.404 . S
C260 C263 1.539 . S
C261 C257 1.408 . S
C261 C260 1.404 . S
C261 H273 0.930 . S
C262 C258 1.524 . S
C262 H274 0.956 . S
C262 H275 0.961 . S
C262 H276 0.961 . S
C263 C260 1.539 . S
C263 H277 0.958 . S
C263 H278 0.961 . S
C263 H279 0.960 . S
H264 C248 0.931 . S
H265 C253 0.929 . S
H266 C254 0.960 . S
H267 C254 0.962 . S
H268 C254 0.960 . S
H269 C255 0.961 . S
H270 C255 0.961 . S
H271 C255 0.961 . S
H272 C256 0.931 . S
H273 C261 0.930 . S
H274 C262 0.956 . S
H275 C262 0.961 . S
H276 C262 0.961 . S
H277 C263 0.958 . S
H278 C263 0.961 . S
H279 C263 0.960 . S
C280 C281 1.391 . S
C280 C282 1.394 . S
C280 H296 0.931 . S
C281 C280 1.391 . S
C281 C285 1.376 . S
C282 C280 1.394 . S
C282 C283 1.369 . S
C282 C286 1.531 . S
C283 C282 1.369 . S
C283 C284 1.410 . S
C283 C291 1.503 . S
C284 C283 1.410 . S
C284 C285 1.392 . S
C284 C287 1.511 . S
C285 C281 1.376 . S
C285 C284 1.392 . S
C285 H297 0.929 . S
C286 C282 1.531 . S
C286 H298 0.960 . S
C286 H299 0.962 . S
C286 H300 0.960 . S
C287 C284 1.511 . S
C287 H301 0.961 . S
C287 H302 0.961 . S
C287 H303 0.961 . S
C288 C289 1.370 . S
C288 C290 1.363 . S
C288 H304 0.931 . S
C289 C288 1.370 . S
C289 C293 1.408 . S
C290 C288 1.363 . S
C290 C291 1.370 . S
C290 C294 1.524 . S
C291 C283 1.503 . S
C291 C290 1.370 . S
C291 C292 1.403 . S
C292 C291 1.403 . S
C292 C293 1.404 . S
C292 C295 1.539 . S
C293 C289 1.408 . S
C293 C292 1.404 . S
C293 H305 0.930 . S
C294 C290 1.524 . S
C294 H306 0.956 . S
C294 H307 0.961 . S
C294 H308 0.961 . S
C295 C292 1.539 . S
C295 H309 0.958 . S
C295 H310 0.961 . S
C295 H311 0.960 . S
H296 C280 0.931 . S
H297 C285 0.929 . S
H298 C286 0.960 . S
H299 C286 0.962 . S
H300 C286 0.960 . S
H301 C287 0.961 . S
H302 C287 0.961 . S
H303 C287 0.961 . S
H304 C288 0.931 . S
H305 C293 0.930 . S
H306 C294 0.956 . S
H307 C294 0.961 . S
H308 C294 0.961 . S
H309 C295 0.958 . S
H310 C295 0.961 . S
H311 C295 0.960 . S
C312 C313 1.391 . S
C312 C314 1.394 . S
C312 H328 0.931 . S
C313 C312 1.391 . S
C313 C317 1.376 . S
C314 C312 1.394 . S
C314 C315 1.369 . S
C314 C318 1.531 . S
C315 C314 1.369 . S
C315 C316 1.410 . S
C315 C323 1.503 . S
C316 C315 1.410 . S
C316 C317 1.392 . S
C316 C319 1.511 . S
C317 C313 1.376 . S
C317 C316 1.392 . S
C317 H329 0.929 . S
C318 C314 1.531 . S
C318 H330 0.960 . S
C318 H331 0.962 . S
C318 H332 0.960 . S
C319 C316 1.511 . S
C319 H333 0.961 . S
C319 H334 0.961 . S
C319 H335 0.961 . S
C320 C321 1.370 . S
C320 C322 1.363 . S
C320 H336 0.931 . S
C321 C320 1.370 . S
C321 C325 1.408 . S
C322 C320 1.363 . S
C322 C323 1.370 . S
C322 C326 1.524 . S
C323 C315 1.503 . S
C323 C322 1.370 . S
C323 C324 1.403 . S
C324 C323 1.403 . S
C324 C325 1.404 . S
C324 C327 1.539 . S
C325 C321 1.408 . S
C325 C324 1.404 . S
C325 H337 0.930 . S
C326 C322 1.524 . S
C326 H338 0.956 . S
C326 H339 0.961 . S
C326 H340 0.961 . S
C327 C324 1.539 . S
C327 H341 0.958 . S
C327 H342 0.961 . S
C327 H343 0.960 . S
H328 C312 0.931 . S
H329 C317 0.929 . S
H330 C318 0.960 . S
H331 C318 0.962 . S
H332 C318 0.960 . S
H333 C319 0.961 . S
H334 C319 0.961 . S
H335 C319 0.961 . S
H336 C320 0.931 . S
H337 C325 0.930 . S
H338 C326 0.956 . S
H339 C326 0.961 . S
H340 C326 0.961 . S
H341 C327 0.958 . S
H342 C327 0.961 . S
H343 C327 0.960 . S
C344 C345 1.391 . S
C344 C346 1.394 . S
C344 H360 0.931 . S
C345 C344 1.391 . S
C345 C349 1.376 . S
C346 C344 1.394 . S
C346 C347 1.369 . S
C346 C350 1.531 . S
C347 C346 1.369 . S
C347 C348 1.410 . S
C347 C355 1.503 . S
C348 C347 1.410 . S
C348 C349 1.392 . S
C348 C351 1.511 . S
C349 C345 1.376 . S
C349 C348 1.392 . S
C349 H361 0.929 . S
C350 C346 1.531 . S
C350 H362 0.960 . S
C350 H363 0.962 . S
C350 H364 0.960 . S
C351 C348 1.511 . S
C351 H365 0.961 . S
C351 H366 0.961 . S
C351 H367 0.961 . S
C352 C353 1.370 . S
C352 C354 1.363 . S
C352 H368 0.931 . S
C353 C352 1.370 . S
C353 C357 1.408 . S
C354 C352 1.363 . S
C354 C355 1.370 . S
C354 C358 1.524 . S
C355 C347 1.503 . S
C355 C354 1.370 . S
C355 C356 1.403 . S
C356 C355 1.403 . S
C356 C357 1.404 . S
C356 C359 1.539 . S
C357 C353 1.408 . S
C357 C356 1.404 . S
C357 H369 0.930 . S
C358 C354 1.524 . S
C358 H370 0.956 . S
C358 H371 0.961 . S
C358 H372 0.961 . S
C359 C356 1.539 . S
C359 H373 0.958 . S
C359 H374 0.961 . S
C359 H375 0.960 . S
H360 C344 0.931 . S
H361 C349 0.929 . S
H362 C350 0.960 . S
H363 C350 0.962 . S
H364 C350 0.960 . S
H365 C351 0.961 . S
H366 C351 0.961 . S
H367 C351 0.961 . S
H368 C352 0.931 . S
H369 C357 0.930 . S
H370 C358 0.956 . S
H371 C358 0.961 . S
H372 C358 0.961 . S
H373 C359 0.958 . S
H374 C359 0.961 . S
H375 C359 0.960 . S
C376 C377 1.391 . S
C376 C378 1.394 . S
C376 H392 0.931 . S
C377 C376 1.391 . S
C377 C381 1.376 . S
C378 C376 1.394 . S
C378 C379 1.369 . S
C378 C382 1.531 . S
C379 C378 1.369 . S
C379 C380 1.410 . S
C379 C387 1.503 . S
C380 C379 1.410 . S
C380 C381 1.392 . S
C380 C383 1.511 . S
C381 C377 1.376 . S
C381 C380 1.392 . S
C381 H393 0.929 . S
C382 C378 1.531 . S
C382 H394 0.960 . S
C382 H395 0.962 . S
C382 H396 0.960 . S
C383 C380 1.511 . S
C383 H397 0.961 . S
C383 H398 0.961 . S
C383 H399 0.961 . S
C384 C385 1.370 . S
C384 C386 1.363 . S
C384 H400 0.931 . S
C385 C384 1.370 . S
C385 C389 1.408 . S
C386 C384 1.363 . S
C386 C387 1.370 . S
C386 C390 1.524 . S
C387 C379 1.503 . S
C387 C386 1.370 . S
C387 C388 1.403 . S
C388 C387 1.403 . S
C388 C389 1.404 . S
C388 C391 1.539 . S
C389 C385 1.408 . S
C389 C388 1.404 . S
C389 H401 0.930 . S
C390 C386 1.524 . S
C390 H402 0.956 . S
C390 H403 0.961 . S
C390 H404 0.961 . S
C391 C388 1.539 . S
C391 H405 0.958 . S
C391 H406 0.961 . S
C391 H407 0.960 . S
H392 C376 0.931 . S
H393 C381 0.929 . S
H394 C382 0.960 . S
H395 C382 0.962 . S
H396 C382 0.960 . S
H397 C383 0.961 . S
H398 C383 0.961 . S
H399 C383 0.961 . S
H400 C384 0.931 . S
H401 C389 0.930 . S
H402 C390 0.956 . S
H403 C390 0.961 . S
H404 C390 0.961 . S
H405 C391 0.958 . S
H406 C391 0.961 . S
H407 C391 0.960 . S
C408 C409 1.391 . S
C408 C410 1.394 . S
C408 H424 0.931 . S
C409 C408 1.391 . S
C409 C413 1.376 . S
C410 C408 1.394 . S
C410 C411 1.369 . S
C410 C414 1.531 . S
C411 C410 1.369 . S
C411 C412 1.410 . S
C411 C419 1.503 . S
C412 C411 1.410 . S
C412 C413 1.392 . S
C412 C415 1.511 . S
C413 C409 1.376 . S
C413 C412 1.392 . S
C413 H425 0.929 . S
C414 C410 1.531 . S
C414 H426 0.960 . S
C414 H427 0.962 . S
C414 H428 0.960 . S
C415 C412 1.511 . S
C415 H429 0.961 . S
C415 H430 0.961 . S
C415 H431 0.961 . S
C416 C417 1.370 . S
C416 C418 1.363 . S
C416 H432 0.931 . S
C417 C416 1.370 . S
C417 C421 1.408 . S
C418 C416 1.363 . S
C418 C419 1.370 . S
C418 C422 1.524 . S
C419 C411 1.503 . S
C419 C418 1.370 . S
C419 C420 1.403 . S
C420 C419 1.403 . S
C420 C421 1.404 . S
C420 C423 1.539 . S
C421 C417 1.408 . S
C421 C420 1.404 . S
C421 H433 0.930 . S
C422 C418 1.524 . S
C422 H434 0.956 . S
C422 H435 0.961 . S
C422 H436 0.961 . S
C423 C420 1.539 . S
C423 H437 0.958 . S
C423 H438 0.961 . S
C423 H439 0.960 . S
H424 C408 0.931 . S
H425 C413 0.929 . S
H426 C414 0.960 . S
H427 C414 0.962 . S
H428 C414 0.960 . S
H429 C415 0.961 . S
H430 C415 0.961 . S
H431 C415 0.961 . S
H432 C416 0.931 . S
H433 C421 0.930 . S
H434 C422 0.956 . S
H435 C422 0.961 . S
H436 C422 0.961 . S
H437 C423 0.958 . S
H438 C423 0.961 . S
H439 C423 0.960 . S
C440 C441 1.391 . S
C440 C442 1.394 . S
C440 H456 0.931 . S
C441 C440 1.391 . S
C441 C445 1.376 . S
C442 C440 1.394 . S
C442 C443 1.369 . S
C442 C446 1.531 . S
C443 C442 1.369 . S
C443 C444 1.410 . S
C443 C451 1.503 . S
C444 C443 1.410 . S
C444 C445 1.392 . S
C444 C447 1.511 . S
C445 C441 1.376 . S
C445 C444 1.392 . S
C445 H457 0.929 . S
C446 C442 1.531 . S
C446 H458 0.960 . S
C446 H459 0.962 . S
C446 H460 0.960 . S
C447 C444 1.511 . S
C447 H461 0.961 . S
C447 H462 0.961 . S
C447 H463 0.961 . S
C448 C449 1.370 . S
C448 C450 1.363 . S
C448 H464 0.931 . S
C449 C448 1.370 . S
C449 C453 1.408 . S
C450 C448 1.363 . S
C450 C451 1.370 . S
C450 C454 1.524 . S
C451 C443 1.503 . S
C451 C450 1.370 . S
C451 C452 1.403 . S
C452 C451 1.403 . S
C452 C453 1.404 . S
C452 C455 1.539 . S
C453 C449 1.408 . S
C453 C452 1.404 . S
C453 H465 0.930 . S
C454 C450 1.524 . S
C454 H466 0.956 . S
C454 H467 0.961 . S
C454 H468 0.961 . S
C455 C452 1.539 . S
C455 H469 0.958 . S
C455 H470 0.961 . S
C455 H471 0.960 . S
H456 C440 0.931 . S
H457 C445 0.929 . S
H458 C446 0.960 . S
H459 C446 0.962 . S
H460 C446 0.960 . S
H461 C447 0.961 . S
H462 C447 0.961 . S
H463 C447 0.961 . S
H464 C448 0.931 . S
H465 C453 0.930 . S
H466 C454 0.956 . S
H467 C454 0.961 . S
H468 C454 0.961 . S
H469 C455 0.958 . S
H470 C455 0.961 . S
H471 C455 0.960 . S
C472 C473 1.391 . S
C472 C474 1.394 . S
C472 H488 0.931 . S
C473 C472 1.391 . S
C473 C477 1.376 . S
C474 C472 1.394 . S
C474 C475 1.369 . S
C474 C478 1.531 . S
C475 C474 1.369 . S
C475 C476 1.410 . S
C475 C483 1.503 . S
C476 C475 1.410 . S
C476 C477 1.392 . S
C476 C479 1.511 . S
C477 C473 1.376 . S
C477 C476 1.392 . S
C477 H489 0.929 . S
C478 C474 1.531 . S
C478 H490 0.960 . S
C478 H491 0.962 . S
C478 H492 0.960 . S
C479 C476 1.511 . S
C479 H493 0.961 . S
C479 H494 0.961 . S
C479 H495 0.961 . S
C480 C481 1.370 . S
C480 C482 1.363 . S
C480 H496 0.931 . S
C481 C480 1.370 . S
C481 C485 1.408 . S
C482 C480 1.363 . S
C482 C483 1.370 . S
C482 C486 1.524 . S
C483 C475 1.503 . S
C483 C482 1.370 . S
C483 C484 1.403 . S
C484 C483 1.403 . S
C484 C485 1.404 . S
C484 C487 1.539 . S
C485 C481 1.408 . S
C485 C484 1.404 . S
C485 H497 0.930 . S
C486 C482 1.524 . S
C486 H498 0.956 . S
C486 H499 0.961 . S
C486 H500 0.961 . S
C487 C484 1.539 . S
C487 H501 0.958 . S
C487 H502 0.961 . S
C487 H503 0.960 . S
H488 C472 0.931 . S
H489 C477 0.929 . S
H490 C478 0.960 . S
H491 C478 0.962 . S
H492 C478 0.960 . S
H493 C479 0.961 . S
H494 C479 0.961 . S
H495 C479 0.961 . S
H496 C480 0.931 . S
H497 C485 0.930 . S
H498 C486 0.956 . S
H499 C486 0.961 . S
H500 C486 0.961 . S
H501 C487 0.958 . S
H502 C487 0.961 . S
H503 C487 0.960 . S
C129 C56 1.514 . S
C121 N41 1.508 . S
C153 N2 1.511 . S
C161 C99 1.510 . S
C185 N15 1.514 . S
C193 C65 1.513 . S
C217 N28 1.504 . S
C225 C90 1.511 . S
C257 C52 1.519 . S
C249 N5 1.519 . S
C289 C94 1.514 . S
C281 N14 1.506 . S
C313 N27 1.518 . S
C321 C60 1.518 . S
C345 N44 1.515 . S
C353 C86 1.518 . S
C385 C115 1.516 . S
C377 N18 1.496 . S
C417 C81 1.518 . S
C409 N31 1.507 . S
C449 C103 1.518 . S
C441 N40 1.519 . S
C473 N1 1.509 . S
C481 C69 1.513 . S
