# Generated by pormake.
# Topology rtl, (3,6)-cn, num edge types: 1
# Building blocks:
#     Node 0, Type 0, BuildingBlock: BETDIP_clean_linker_0, # of connection points: 3
#     Node 1, Type 0, BuildingBlock: BETDIP_clean_linker_0, # of connection points: 3
#     Node 2, Type 0, BuildingBlock: BETDIP_clean_linker_0, # of connection points: 3
#     Node 3, Type 0, BuildingBlock: BETDIP_clean_linker_0, # of connection points: 3
#     Node 4, Type 1, BuildingBlock: KUMBUR_clean_sbu_1, # of connection points: 6
#     Node 5, Type 1, BuildingBlock: KUMBUR_clean_sbu_1, # of connection points: 6
#     Edge 6, Type (0, 1), BuildingBlock: KIFKEQ_clean_linker_1, # of connection points: 2
#     Edge 7, Type (0, 1), BuildingBlock: KIFKEQ_clean_linker_1, # of connection points: 2
#     Edge 8, Type (0, 1), BuildingBlock: KIFKEQ_clean_linker_1, # of connection points: 2
#     Edge 9, Type (0, 1), BuildingBlock: KIFKEQ_clean_linker_1, # of connection points: 2
#     Edge 10, Type (0, 1), BuildingBlock: KIFKEQ_clean_linker_1, # of connection points: 2
#     Edge 11, Type (0, 1), BuildingBlock: KIFKEQ_clean_linker_1, # of connection points: 2
#     Edge 12, Type (0, 1), BuildingBlock: KIFKEQ_clean_linker_1, # of connection points: 2
#     Edge 13, Type (0, 1), BuildingBlock: KIFKEQ_clean_linker_1, # of connection points: 2
#     Edge 14, Type (0, 1), BuildingBlock: KIFKEQ_clean_linker_1, # of connection points: 2
#     Edge 15, Type (0, 1), BuildingBlock: KIFKEQ_clean_linker_1, # of connection points: 2
#     Edge 16, Type (0, 1), BuildingBlock: KIFKEQ_clean_linker_1, # of connection points: 2
#     Edge 17, Type (0, 1), BuildingBlock: KIFKEQ_clean_linker_1, # of connection points: 2
# Relax obj value: 0.052
# Max RMSD: 0.218
# Mean RMSD: 0.160
data_MOF--net-rtl--node1-KUMBUR_clean_sbu_1--node2-BETDIP_clean_linker_0--edge1-KIFKEQ_clean_linker_1
_symmetry_space_group_name_H-M    P1
_symmetry_Int_Tables_number       1
_symmetry_cell_setting            triclinic
loop_
_symmetry_equiv_pos_as_xyz
'x, y, z'
_cell_length_a     35.657943
_cell_length_b     35.642437
_cell_length_c     27.331041
_cell_angle_alpha  78.613597
_cell_angle_beta   99.851795
_cell_angle_gamma 91.143883
loop_
_atom_site_label
_atom_site_type_symbol
_atom_site_fract_x
_atom_site_fract_y
_atom_site_fract_z
_atom_type_partial_charge
H0 H 0.2234 0.81807 0.94564 0.0
H1 H 0.2265 0.79995 0.10682 0.0
H2 H 0.15271 0.8868 1.00641 0.0
H3 H 0.28462 0.77204 0.10941 0.0
C4 C 0.28275 0.76085 0.0749 0.0
C5 C 0.21367 0.82566 0.97794 0.0
C6 C 0.18656 0.85497 0.97042 0.0
C7 C 0.22911 0.80641 0.02678 0.0
C8 C 0.2161 0.81572 0.06898 0.0
C9 C 0.18784 0.84435 0.06173 0.0
C10 C 0.17404 0.86435 0.01238 0.0
N11 N 0.25647 0.77702 0.03097 0.0
H12 H 0.71389 0.72922 0.72167 0.0
H13 H 0.72667 0.71266 0.57351 0.0
H14 H 0.64193 0.65058 0.64952 0.0
H15 H 0.78628 0.73079 0.59789 0.0
C16 C 0.78227 0.75428 0.61653 0.0
C17 C 0.70528 0.7153 0.68977 0.0
C18 C 0.67557 0.68863 0.69073 0.0
C19 C 0.72408 0.7241 0.64774 0.0
C20 C 0.71271 0.70598 0.60622 0.0
C21 C 0.68332 0.67906 0.60664 0.0
C22 C 0.66478 0.67105 0.64887 0.0
N23 N 0.75364 0.75177 0.64761 0.0
H24 H 0.80631 0.21878 0.98011 0.0
H25 H 0.8054 0.194 0.14076 0.0
H26 H 0.89387 0.14729 0.08141 0.0
H27 H 0.7441 0.21076 0.11769 0.0
C28 C 0.74327 0.23362 0.08473 0.0
C29 C 0.81851 0.20423 0.01804 0.0
C30 C 0.85236 0.18275 0.02604 0.0
C31 C 0.80088 0.2081 0.05898 0.0
C32 C 0.81751 0.19003 0.10845 0.0
C33 C 0.85117 0.16814 0.11684 0.0
C34 C 0.86819 0.16458 0.07537 0.0
N35 N 0.7681 0.23235 0.04947 0.0
H36 H 0.32418 0.30986 0.36728 0.0
H37 H 0.31602 0.32328 0.51843 0.0
H38 H 0.39665 0.38883 0.43777 0.0
H39 H 0.29898 0.2616 0.52702 0.0
C40 C 0.28101 0.25999 0.49117 0.0
C41 C 0.33357 0.32315 0.3996 0.0
C42 C 0.36225 0.35076 0.39755 0.0
C43 C 0.31779 0.31173 0.44389 0.0
C44 C 0.32953 0.32998 0.48527 0.0
C45 C 0.35771 0.35819 0.48328 0.0
C46 C 0.37435 0.36773 0.43954 0.0
N47 N 0.28976 0.28252 0.44544 0.0
Tb48 Tb 0.04793 0.98306 0.52117 0.0
C49 C 0.92357 0.10863 0.52388 0.0
N50 N 0.96209 0.10786 0.53063 0.0
C51 C 0.96167 0.17045 0.47826 0.0
C52 C 0.90229 0.13968 0.49204 0.0
C53 C 0.98146 0.13903 0.51053 0.0
C54 C 0.92189 0.17053 0.46833 0.0
C55 C 0.86577 0.07905 0.54689 0.0
C56 C 0.90569 0.07885 0.5508 0.0
C57 C 0.84411 0.10889 0.51327 0.0
C58 C 0.86236 0.13921 0.48592 0.0
Tb59 Tb 0.99173 0.05487 0.58267 0.0
N60 N 0.92774 0.05117 0.58367 0.0
C61 C 0.84906 0.05008 0.57831 0.0
C62 C 0.91183 0.0247 0.61721 0.0
C63 C 0.87228 0.02315 0.61425 0.0
H64 H 1.01219 0.13916 0.51837 0.0
H65 H 0.85979 1.00155 0.64014 0.0
H66 H 0.99558 0.90312 0.53936 0.0
H67 H 0.19645 1.00565 0.58566 0.0
H68 H 0.92966 1.00492 0.64662 0.0
H69 H 0.81848 0.04914 0.57649 0.0
H70 H 0.13331 0.02093 0.53195 0.0
H71 H 0.9771 0.19461 0.46123 0.0
H72 H 0.81336 0.10939 0.50931 0.0
H73 H 0.84541 0.16256 0.46115 0.0
H74 H 0.999 0.84274 0.60143 0.0
H75 H 0.90661 0.19494 0.44347 0.0
H76 H 0.20578 0.94637 0.65146 0.0
N77 N 0.04836 0.92378 0.57298 0.0
C78 C 0.08164 0.91351 0.60527 0.0
C79 C 0.02218 0.86275 0.60369 0.0
C80 C 0.08568 0.87832 0.64009 0.0
C81 C 0.01982 0.89774 0.56941 0.0
C82 C 0.05495 0.85331 0.63992 0.0
N83 N 0.10719 0.97154 0.56831 0.0
C84 C 0.13715 0.99519 0.56079 0.0
C85 C 0.14768 0.92788 0.63358 0.0
C86 C 0.1123 0.9378 0.60207 0.0
C87 C 0.17811 0.95291 0.62794 0.0
C88 C 0.17292 0.98649 0.59095 0.0
H89 H 0.05684 0.82603 0.66612 0.0
H90 H 0.12393 0.84217 0.70044 0.0
H91 H 0.17823 0.88562 0.69475 0.0
O92 O 0.07153 0.99606 0.45423 0.0
O93 O 0.0679 1.00267 0.59252 0.0
O94 O 0.01529 1.00124 0.62872 0.0
O95 O 0.05924 0.93827 0.48573 0.0
O96 O 0.06344 0.04313 0.49943 0.0
O97 O 0.04597 0.07486 0.55952 0.0
O98 O 0.97459 0.08098 0.63912 0.0
O99 O 0.98623 0.06575 0.49983 0.0
O100 O 0.99418 1.00757 0.47634 0.0
O101 O 0.03422 0.07741 0.6312 0.0
O102 O 0.97543 0.99405 0.59333 0.0
O103 O 0.9872 0.97068 0.52391 0.0
C104 C 0.05114 0.99267 0.63205 0.0
C105 C 0.05239 0.95472 0.39743 0.0
C106 C 0.05776 0.93649 0.31724 0.0
C107 C 0.01807 0.94148 0.30235 0.0
C108 C 1.01289 0.95913 0.38195 0.0
C109 C 0.99591 0.95276 0.3345 0.0
C110 C 0.07475 0.94328 0.36514 0.0
C111 C 0.06609 0.07172 0.52407 0.0
C112 C 0.07026 0.96089 0.44774 0.0
C113 C 0.12046 0.86885 0.67297 0.0
C114 C 0.15143 0.89353 0.66963 0.0
C115 C 0.98132 0.04309 0.46674 0.0
C116 C 0.02179 0.10905 0.69764 0.0
C117 C 1.00872 0.13382 0.77031 0.0
C118 C 0.04659 0.1461 0.77868 0.0
C119 C 0.0595 0.12158 0.70685 0.0
C120 C 0.99631 0.11559 0.72924 0.0
C121 C 0.0717 0.14009 0.74702 0.0
C122 C 0.96698 0.97165 0.56 0.0
C123 C 1.00972 0.0889 0.65545 0.0
H124 H 1.00397 0.93596 0.26615 0.0
H125 H 0.99515 0.96725 0.40666 0.0
H126 H 0.9654 0.95622 0.32276 0.0
H127 H 0.10527 0.93988 0.37725 0.0
H128 H 0.05674 0.1606 0.80962 0.0
H129 H 0.07965 0.11711 0.68296 0.0
H130 H 0.96727 0.10571 0.72275 0.0
H131 H 0.10077 0.14972 0.75375 0.0
Tb132 Tb 0.48568 0.4969 0.99986 0.0
C133 C 0.62349 0.59178 0.04687 0.0
N134 N 0.61936 0.55424 0.06663 0.0
C135 C 0.6802 0.53963 0.0483 0.0
C136 C 0.65549 0.60462 0.02474 0.0
C137 C 0.64767 0.52826 0.0694 0.0
C138 C 0.68392 0.5779 0.02528 0.0
C139 C 0.59882 0.65659 0.03 0.0
C140 C 0.59549 0.61719 0.04937 0.0
C141 C 0.62975 0.66951 1.00574 0.0
C142 C 0.65809 0.64356 1.00319 0.0
Tb143 Tb 0.5653 0.53806 0.0993 0.0
N144 N 0.56624 0.6035 0.07346 0.0
C145 C 0.57174 0.68189 0.03723 0.0
C146 C 0.54208 0.62857 0.08492 0.0
C147 C 0.54374 0.66788 0.06578 0.0
H148 H 0.64481 0.4987 0.08716 0.0
H149 H 0.52383 0.68741 0.07389 0.0
H150 H 0.41628 0.56299 0.95761 0.0
H151 H 0.47213 0.34577 0.07085 0.0
H152 H 0.52188 0.61872 0.10967 0.0
H153 H 0.57323 0.71239 0.02295 0.0
H154 H 0.50184 0.40358 0.02731 0.0
H155 H 0.70228 0.51888 0.04964 0.0
H156 H 0.63254 0.69962 0.99006 0.0
H157 H 0.68216 0.65399 0.98528 0.0
H158 H 0.35298 0.57486 0.97728 0.0
H159 H 0.70899 0.58659 0.00866 0.0
H160 H 0.41215 0.35199 0.10311 0.0
N161 N 0.42464 0.50936 0.00891 0.0
C162 C 0.40752 0.48056 0.037 0.0
C163 C 0.36827 0.5484 0.99507 0.0
C164 C 0.3709 0.48531 0.04794 0.0
C165 C 0.40441 0.54186 0.98468 0.0
C166 C 0.35181 0.52035 0.02793 0.0
N167 N 0.45953 0.4416 0.03643 0.0
C168 C 0.47552 0.40624 0.04105 0.0
C169 C 0.40738 0.41328 0.07554 0.0
C170 C 0.42529 0.44513 0.05045 0.0
C171 C 0.42497 0.37725 0.08393 0.0
C172 C 0.45883 0.37362 0.06571 0.0
H173 H 0.32364 0.52526 0.03545 0.0
H174 H 0.32604 0.45759 0.08576 0.0
H175 H 0.35813 0.3944 0.11015 0.0
O176 O 0.50449 0.47887 0.93919 0.0
O177 O 0.50068 0.46736 0.07943 0.0
O178 O 0.51391 0.51378 0.12678 0.0
O179 O 0.4453 0.48932 0.93685 0.0
O180 O 0.5424 0.46917 0.01516 0.0
O181 O 0.57437 0.47826 0.09423 0.0
O182 O 0.58745 0.56409 0.16094 0.0
O183 O 0.57197 0.5368 0.02102 0.0
O184 O 0.51308 0.55095 0.97371 0.0
O185 O 0.59926 0.50503 0.16289 0.0
O186 O 0.50607 0.55722 0.09151 0.0
O187 O 0.48051 0.55698 0.008 0.0
C188 C 0.49767 0.48149 0.11933 0.0
C189 C 0.4671 0.5003 0.85901 0.0
C190 C 0.45043 0.49813 0.76907 0.0
C191 C 0.45921 0.53723 0.75723 0.0
C192 C 0.47556 0.53922 0.84643 0.0
C193 C 0.47173 0.55752 0.7957 0.0
C194 C 0.45462 0.47989 0.8204 0.0
C195 C 0.56928 0.46016 0.05573 0.0
C196 C 0.47067 0.48054 0.91211 0.0
C197 C 0.3539 0.45437 0.07619 0.0
C198 C 0.37212 0.41835 0.08994 0.0
C199 C 0.55014 0.5551 0.98006 0.0
C200 C 0.59084 0.52183 0.23972 0.0
C201 C 0.59405 0.53485 0.32504 0.0
C202 C 0.5718 0.50224 0.33688 0.0
C203 C 0.56804 0.48994 0.25229 0.0
C204 C 0.60345 0.54433 0.27602 0.0
C205 C 0.55872 0.48025 0.30064 0.0
C206 C 0.4808 0.56933 0.05047 0.0
C207 C 0.60143 0.53205 0.18891 0.0
H208 H 0.45585 0.55235 0.71823 0.0
H209 H 0.48493 0.55543 0.87574 0.0
H210 H 0.47825 0.5876 0.78615 0.0
H211 H 0.44854 0.44969 0.83048 0.0
H212 H 0.56475 0.49331 0.37439 0.0
H213 H 0.55754 0.47236 0.2249 0.0
H214 H 0.62016 0.56946 0.26563 0.0
H215 H 0.54145 0.45542 0.31017 0.0
H216 H 0.23085 0.24124 0.41062 0.0
H217 H 0.25869 0.21746 0.57382 0.0
H218 H 0.17752 0.19672 0.41515 0.0
H219 H 0.20596 0.1731 0.57842 0.0
H220 H 0.08586 0.13075 0.57351 0.0
H221 H 0.13625 0.17668 0.56193 0.0
H222 H 0.16401 0.12653 0.44095 0.0
H223 H 0.11291 0.08036 0.45201 0.0
C224 C 0.22562 0.22649 0.44738 0.0
C225 C 0.24881 0.23293 0.49195 0.0
C226 C 0.19522 0.20087 0.44998 0.0
C227 C 0.18726 0.18156 0.49717 0.0
C228 C 0.21081 0.18794 0.54149 0.0
C229 C 0.24118 0.2132 0.53887 0.0
C230 C 0.10236 0.12946 0.54408 0.0
C231 C 0.0953 0.10144 0.51396 0.0
C232 C 0.13152 0.15579 0.53768 0.0
C233 C 0.1545 0.15506 0.50091 0.0
C234 C 0.14674 0.12797 0.46952 0.0
C235 C 0.11754 0.10138 0.47605 0.0
H236 H 0.34488 0.73404 0.14478 0.0
H237 H 0.28487 0.72288 0.99727 0.0
H238 H 0.39349 0.68867 0.13841 0.0
H239 H 0.33256 0.67682 0.99141 0.0
H240 H 0.4517 0.57725 0.13338 0.0
H241 H 0.40345 0.62265 0.13931 0.0
H242 H 0.39748 0.67215 0.98043 0.0
H243 H 0.44527 0.62572 0.97447 0.0
C244 C 0.34198 0.72163 0.11121 0.0
C245 C 0.31122 0.73213 0.07156 0.0
C246 C 0.36969 0.69552 0.10757 0.0
C247 C 0.36706 0.67909 0.06427 0.0
C248 C 0.33594 0.68938 0.02486 0.0
C249 C 0.3084 0.71564 0.02841 0.0
C250 C 0.43996 0.59774 0.09968 0.0
C251 C 0.4518 0.59758 0.05328 0.0
C252 C 0.41249 0.624 0.10314 0.0
C253 C 0.39645 0.65114 0.06037 0.0
C254 C 0.40869 0.65125 0.01397 0.0
C255 C 0.4361 0.62474 0.01049 0.0
H256 H 0.78622 0.81873 0.65939 0.0
H257 H 0.83615 0.76492 0.55711 0.0
H258 H 0.82893 0.87308 0.64495 0.0
H259 H 0.87893 0.81871 0.54305 0.0
H260 H 0.92415 0.93702 0.48918 0.0
H261 H 0.87786 0.88616 0.50278 0.0
H262 H 0.89716 0.88842 0.66254 0.0
H263 H 0.94358 0.93898 0.64891 0.0
C264 C 0.80634 0.81848 0.63393 0.0
C265 C 0.80787 0.78757 0.60933 0.0
C266 C 0.8309 0.84953 0.62577 0.0
C267 C 0.85727 0.85041 0.59259 0.0
C268 C 0.85862 0.81937 0.56816 0.0
C269 C 0.83429 0.78838 0.5765 0.0
C270 C 0.91831 0.92678 0.52713 0.0
C271 C 0.93727 0.94233 0.56784 0.0
C272 C 0.89191 0.89753 0.53501 0.0
C273 C 0.88376 0.8831 0.58381 0.0
C274 C 0.90226 0.8992 0.62436 0.0
C275 C 0.9288 0.92832 0.6165 0.0
H276 H 0.72803 0.29468 1.00459 0.0
H277 H 0.6984 0.24607 0.1504 0.0
H278 H 0.68542 0.34921 0.99703 0.0
H279 H 0.65567 0.30046 0.14279 0.0
H280 H 0.62071 0.42483 0.13728 0.0
H281 H 0.66193 0.36997 0.14278 0.0
H282 H 0.61614 0.36452 0.98758 0.0
H283 H 0.57495 0.41965 0.98169 0.0
C284 C 0.71229 0.29556 0.03491 0.0
C285 C 0.71656 0.2662 0.07822 0.0
C286 C 0.68776 0.32669 0.03047 0.0
C287 C 0.66731 0.32922 0.06941 0.0
C288 C 0.6714 0.2996 0.11244 0.0
C289 C 0.69565 0.26837 0.11668 0.0
C290 C 0.61936 0.41205 0.10422 0.0
C291 C 0.59442 0.42675 0.05903 0.0
C292 C 0.64287 0.38042 0.10753 0.0
C293 C 0.64223 0.36285 0.06566 0.0
C294 C 0.6175 0.37764 0.02036 0.0
C295 C 0.59375 0.40912 0.01713 0.0
H296 H 0.22447 0.85613 0.15468 0.0
H297 H 0.11281 0.85198 0.06523 0.0
H298 H 0.19562 0.8782 0.21973 0.0
H299 H 0.0843 0.87391 0.12941 0.0
H300 H 0.0512 0.96045 0.21487 0.0
H301 H 0.08463 0.9359 0.15706 0.0
H302 H 0.15066 0.8594 0.28325 0.0
H303 H 0.11675 0.88381 0.34154 0.0
C304 C 0.19382 0.8594 0.14929 0.0
C305 C 0.17096 0.85301 0.10447 0.0
C306 C 0.17732 0.87207 0.18639 0.0
C307 C 0.13776 0.87858 0.17914 0.0
C308 C 0.11494 0.87021 0.13551 0.0
C309 C 0.13129 0.85756 0.09877 0.0
C310 C 0.07272 0.93829 0.23042 0.0
C311 C 0.08087 0.92374 0.28281 0.0
C312 C 0.09192 0.92423 0.19725 0.0
C313 C 0.11988 0.89527 0.21551 0.0
C314 C 0.1293 0.88176 0.26807 0.0
C315 C 0.10992 0.89581 0.30141 0.0
H316 H 0.59937 0.67996 0.69238 0.0
H317 H 0.70856 0.6705 0.79091 0.0
H318 H 0.569 0.65054 0.76358 0.0
H319 H 0.67794 0.64218 0.86288 0.0
H320 H 0.61924 0.54293 0.95604 0.0
H321 H 0.64961 0.58071 0.8896 0.0
H322 H 0.55101 0.65598 0.84322 0.0
H323 H 0.52072 0.61789 0.91021 0.0
C324 C 0.61682 0.67214 0.72951 0.0
C325 C 0.65649 0.67716 0.73582 0.0
C326 C 0.59933 0.65553 0.77048 0.0
C327 C 0.62102 0.64352 0.81897 0.0
C328 C 0.66044 0.65045 0.82586 0.0
C329 C 0.67796 0.66715 0.78477 0.0
C330 C 0.60426 0.56781 0.93201 0.0
C331 C 0.56779 0.57768 0.9386 0.0
C332 C 0.62172 0.5896 0.89398 0.0
C333 C 0.60297 0.62168 0.86118 0.0
C334 C 0.56623 0.63135 0.86757 0.0
C335 C 0.54881 0.60954 0.90583 0.0
H336 H 0.92657 0.16653 0.15826 0.0
H337 H 0.81681 0.1278 0.19286 0.0
H338 H 0.95696 0.13443 0.24237 0.0
H339 H 0.84728 0.09533 0.27719 0.0
H340 H 0.91179 0.078 0.44096 0.0
H341 H 0.88006 0.10884 0.35677 0.0
H342 H 0.97157 0.07067 0.29227 0.0
H343 H 1.00424 0.04205 0.37735 0.0
C344 C 0.90896 0.15087 0.18376 0.0
C345 C 0.86929 0.14954 0.16884 0.0
C346 C 0.9264 0.13236 0.23193 0.0
C347 C 0.90461 0.11204 0.26641 0.0
C348 C 0.86486 0.11105 0.25172 0.0
C349 C 0.84738 0.12966 0.20346 0.0
C350 C 0.92539 0.07706 0.40887 0.0
C351 C 0.96076 0.05864 0.41556 0.0
C352 C 0.9069 0.09398 0.36049 0.0
C353 C 0.92339 0.09251 0.31771 0.0
C354 C 0.95839 0.07292 0.32447 0.0
C355 C 0.97688 0.05612 0.37299 0.0
H356 H 0.37211 0.43437 0.47848 0.0
H357 H 0.37011 0.32772 0.58538 0.0
H358 H 0.3944 0.46715 0.54792 0.0
H359 H 0.39215 0.36079 0.65515 0.0
H360 H 0.39459 0.44399 0.76658 0.0
H361 H 0.37169 0.40951 0.69873 0.0
H362 H 0.45214 0.46916 0.61063 0.0
H363 H 0.47535 0.50329 0.67853 0.0
C364 C 0.37667 0.41783 0.51681 0.0
C365 C 0.36964 0.37829 0.52625 0.0
C366 C 0.38944 0.43667 0.55664 0.0
C367 C 0.39537 0.41655 0.60707 0.0
C368 C 0.38758 0.37717 0.61674 0.0
C369 C 0.3749 0.35824 0.57677 0.0
C370 C 0.40773 0.44944 0.73301 0.0
C371 C 0.43678 0.47656 0.72804 0.0
C372 C 0.39454 0.42968 0.69408 0.0
C373 C 0.40995 0.43671 0.64916 0.0
C374 C 0.43919 0.46356 0.64438 0.0
C375 C 0.45247 0.48318 0.68332 0.0
H376 H 0.66196 0.60424 0.61114 0.0
H377 H 0.67953 0.70732 0.50426 0.0
H378 H 0.63994 0.57187 0.54122 0.0
H379 H 0.65943 0.67371 0.43443 0.0
H380 H 0.66184 0.57312 0.34005 0.0
H381 H 0.68387 0.61007 0.40564 0.0
H382 H 0.57972 0.58585 0.46532 0.0
H383 H 0.55646 0.55085 0.39844 0.0
C384 C 0.66102 0.62016 0.57286 0.0
C385 C 0.67208 0.65873 0.5636 0.0
C386 C 0.64866 0.60142 0.53286 0.0
C387 C 0.64784 0.62041 0.48261 0.0
C388 C 0.65998 0.65846 0.47299 0.0
C389 C 0.67167 0.67757 0.51306 0.0
C390 C 0.64318 0.57626 0.36637 0.0
C391 C 0.60737 0.55855 0.3639 0.0
C392 C 0.65597 0.59728 0.40407 0.0
C393 C 0.63357 0.60046 0.44059 0.0
C394 C 0.59771 0.58336 0.43789 0.0
C395 C 0.58458 0.56303 0.39973 0.0
H396 H 0.92659 0.19722 0.02103 0.0
H397 H 0.82341 0.16136 0.93615 0.0
H398 H 0.9621 0.18609 0.95665 0.0
H399 H 0.85923 0.14904 0.87173 0.0
H400 H 0.93563 0.16264 0.74668 0.0
H401 H 0.89554 0.17676 0.80546 0.0
H402 H 0.98355 0.13088 0.9316 0.0
H403 H 0.02348 0.1177 0.87311 0.0
C404 C 0.91155 0.18696 0.98839 0.0
C405 C 0.8724 0.17974 0.98374 0.0
C406 C 0.93189 0.18032 0.95164 0.0
C407 C 0.9137 0.16587 0.9095 0.0
C408 C 0.87411 0.16022 0.90366 0.0
C409 C 0.85359 0.16723 0.94045 0.0
C410 C 0.94611 0.15535 0.78703 0.0
C411 C 0.98284 0.13957 0.80537 0.0
C412 C 0.9232 0.1634 0.82068 0.0
C413 C 0.93658 0.15559 0.87323 0.0
C414 C 0.97274 0.13835 0.89134 0.0
C415 C 0.99561 0.13061 0.85786 0.0
H416 H 0.32819 0.38839 0.30427 0.0
H417 H 0.43618 0.34228 0.38903 0.0
H418 H 0.35983 0.41816 0.23331 0.0
H419 H 0.4677 0.37126 0.318 0.0
H420 H 0.50217 0.40502 0.15829 0.0
H421 H 0.46711 0.36894 0.22182 0.0
H422 H 0.41083 0.47327 0.22923 0.0
H423 H 0.44637 0.50926 0.16644 0.0
C424 C 0.3585 0.38386 0.30707 0.0
C425 C 0.37982 0.36297 0.35176 0.0
C426 C 0.37661 0.40108 0.26681 0.0
C427 C 0.4162 0.39707 0.27035 0.0
C428 C 0.43714 0.37456 0.31416 0.0
C429 C 0.41917 0.35801 0.35469 0.0
C430 C 0.48227 0.4201 0.17362 0.0
C431 C 0.477 0.45985 0.15789 0.0
C432 C 0.46229 0.39954 0.20985 0.0
C433 C 0.43614 0.41832 0.23018 0.0
C434 C 0.43053 0.45805 0.21379 0.0
C435 C 0.45111 0.47868 0.17838 0.0
H436 H 0.15555 0.82328 0.89002 0.0
H437 H 0.18043 0.93194 0.93473 0.0
H438 H 0.12444 0.85669 0.80611 0.0
H439 H 0.14959 0.96531 0.85077 0.0
H440 H 0.12342 1.0064 0.67482 0.0
H441 H 0.15919 0.97238 0.75575 0.0
H442 H 0.06261 0.9 0.77849 0.0
H443 H 0.02677 0.9344 0.69811 0.0
C444 C 0.15476 0.85429 0.88159 0.0
C445 C 0.17021 0.87512 0.91869 0.0
C446 C 0.13683 0.87332 0.83388 0.0
C447 C 0.13462 0.91347 0.82228 0.0
C448 C 0.15114 0.93432 0.85882 0.0
C449 C 0.16852 0.91529 0.90678 0.0
C450 C 0.10997 0.98328 0.69738 0.0
C451 C 0.07252 0.97289 0.68073 0.0
C452 C 0.13031 0.96394 0.74347 0.0
C453 C 0.1136 0.93358 0.77305 0.0
C454 C 0.07616 0.92313 0.7561 0.0
C455 C 0.05561 0.94295 0.71056 0.0
loop_
_geom_bond_atom_site_label_1
_geom_bond_atom_site_label_2
_geom_bond_distance
_geom_bond_site_symmetry_2
_ccdc_geom_bond_type
H0 C5 0.930 . S
H1 C8 0.930 . S
H2 C10 0.930 . S
H3 C4 1.016 . S
C4 H3 1.016 . S
C4 N11 1.286 . S
C5 H0 0.930 . S
C5 C6 1.397 . S
C5 C7 1.361 1_556 S
C6 C5 1.397 . S
C6 C10 1.390 1_556 S
C7 C5 1.361 1_554 S
C7 C8 1.393 . S
C7 N11 1.413 . S
C8 H1 0.930 . S
C8 C7 1.393 . S
C8 C9 1.399 . S
C9 C8 1.399 . S
C9 C10 1.381 . S
C10 H2 0.930 . S
C10 C6 1.390 1_554 S
C10 C9 1.381 . S
N11 C4 1.286 . S
N11 C7 1.413 . S
H12 C17 0.930 . S
H13 C20 0.930 . S
H14 C22 0.930 . S
H15 C16 1.016 . S
C16 H15 1.016 . S
C16 N23 1.286 . S
C17 H12 0.930 . S
C17 C18 1.397 . S
C17 C19 1.361 . S
C18 C17 1.397 . S
C18 C22 1.390 . S
C19 C17 1.361 . S
C19 C20 1.393 . S
C19 N23 1.413 . S
C20 H13 0.930 . S
C20 C19 1.393 . S
C20 C21 1.399 . S
C21 C20 1.399 . S
C21 C22 1.381 . S
C22 H14 0.930 . S
C22 C18 1.390 . S
C22 C21 1.381 . S
N23 C16 1.286 . S
N23 C19 1.413 . S
H24 C29 0.930 1_556 S
H25 C32 0.930 . S
H26 C34 0.930 . S
H27 C28 1.016 . S
C28 H27 1.016 . S
C28 N35 1.286 . S
C29 H24 0.930 1_554 S
C29 C30 1.397 . S
C29 C31 1.361 . S
C30 C29 1.397 . S
C30 C34 1.390 . S
C31 C29 1.361 . S
C31 C32 1.393 . S
C31 N35 1.413 . S
C32 H25 0.930 . S
C32 C31 1.393 . S
C32 C33 1.399 . S
C33 C32 1.399 . S
C33 C34 1.381 . S
C34 H26 0.930 . S
C34 C30 1.390 . S
C34 C33 1.381 . S
N35 C28 1.286 . S
N35 C31 1.413 . S
H36 C41 0.930 . S
H37 C44 0.930 . S
H38 C46 0.930 . S
H39 C40 1.016 . S
C40 H39 1.016 . S
C40 N47 1.286 . S
C41 H36 0.930 . S
C41 C42 1.397 . S
C41 C43 1.361 . S
C42 C41 1.397 . S
C42 C46 1.390 . S
C43 C41 1.361 . S
C43 C44 1.393 . S
C43 N47 1.413 . S
C44 H37 0.930 . S
C44 C43 1.393 . S
C44 C45 1.399 . S
C45 C44 1.399 . S
C45 C46 1.381 . S
C46 H38 0.930 . S
C46 C42 1.390 . S
C46 C45 1.381 . S
N47 C40 1.286 . S
N47 C43 1.413 . S
Tb48 N77 2.617 . S
Tb48 N83 2.572 . S
Tb48 O92 2.465 . S
Tb48 O93 2.387 . S
Tb48 O95 2.428 . S
Tb48 O96 2.308 1_565 S
Tb48 O100 2.349 1_465 S
Tb48 O103 2.393 1_455 S
Tb48 C112 2.802 . S
C49 N50 1.379 . S
C49 C52 1.416 . S
C49 C56 1.424 . S
N50 C49 1.379 . S
N50 C53 1.334 1_655 S
N50 Tb59 2.617 . S
C51 C53 1.390 . S
C51 C54 1.339 1_455 S
C51 H71 0.930 . S
C52 C49 1.416 . S
C52 C54 1.416 . S
C52 C58 1.448 . S
C53 N50 1.334 1_455 S
C53 C51 1.390 . S
C53 H64 0.930 . S
C54 C51 1.339 1_655 S
C54 C52 1.416 . S
C54 H75 0.930 . S
C55 C56 1.413 . S
C55 C57 1.427 . S
C55 C61 1.416 . S
C56 C49 1.424 . S
C56 C55 1.413 . S
C56 N60 1.361 . S
C57 C55 1.427 . S
C57 C58 1.328 . S
C57 H72 0.929 . S
C58 C52 1.448 . S
C58 C57 1.328 . S
C58 H73 0.930 . S
Tb59 N50 2.617 . S
Tb59 N60 2.572 . S
Tb59 O94 2.349 1_655 S
Tb59 O97 2.393 1_655 S
Tb59 O98 2.465 . S
Tb59 O99 2.387 . S
Tb59 O101 2.428 . S
Tb59 O102 2.308 1_545 S
Tb59 C123 2.802 . S
N60 C56 1.361 . S
N60 Tb59 2.572 . S
N60 C62 1.340 . S
C61 C55 1.416 . S
C61 C63 1.332 . S
C61 H69 0.931 . S
C62 N60 1.340 . S
C62 C63 1.407 . S
C62 H68 0.930 . S
C63 C61 1.332 . S
C63 C62 1.407 . S
C63 H65 0.929 . S
H64 C53 0.930 . S
H65 C63 0.929 . S
H66 C81 0.930 1_655 S
H67 C88 0.929 . S
H68 C62 0.930 . S
H69 C61 0.931 . S
H70 C84 0.930 . S
H71 C51 0.930 . S
H72 C57 0.929 . S
H73 C58 0.930 . S
H74 C79 0.930 1_655 S
H75 C54 0.930 . S
H76 C87 0.931 . S
N77 Tb48 2.617 . S
N77 C78 1.379 . S
N77 C81 1.334 . S
C78 N77 1.379 . S
C78 C80 1.416 . S
C78 C86 1.424 . S
C79 H74 0.930 1_455 S
C79 C81 1.390 . S
C79 C82 1.339 . S
C80 C78 1.416 . S
C80 C82 1.416 . S
C80 C113 1.448 . S
C81 H66 0.930 1_455 S
C81 N77 1.334 . S
C81 C79 1.390 . S
C82 C79 1.339 . S
C82 C80 1.416 . S
C82 H89 0.930 . S
N83 Tb48 2.572 . S
N83 C84 1.340 . S
N83 C86 1.361 . S
C84 H70 0.930 . S
C84 N83 1.340 . S
C84 C88 1.407 . S
C85 C86 1.413 . S
C85 C87 1.416 . S
C85 C114 1.427 . S
C86 C78 1.424 . S
C86 N83 1.361 . S
C86 C85 1.413 . S
C87 H76 0.931 . S
C87 C85 1.416 . S
C87 C88 1.332 . S
C88 H67 0.929 . S
C88 C84 1.407 . S
C88 C87 1.332 . S
H89 C82 0.930 . S
H90 C113 0.930 . S
H91 C114 0.929 . S
O92 Tb48 2.465 . S
O92 C112 1.264 . S
O93 Tb48 2.387 . S
O93 C104 1.264 . S
O94 Tb59 2.349 1_455 S
O94 C104 1.243 1_545 S
O95 Tb48 2.428 . S
O95 C112 1.256 . S
O96 Tb48 2.308 1_545 S
O96 C111 1.266 . S
O97 Tb59 2.393 1_455 S
O97 C111 1.248 . S
O98 Tb59 2.465 . S
O98 C123 1.264 . S
O99 Tb59 2.387 . S
O99 C115 1.264 . S
O100 Tb48 2.349 1_645 S
O100 C115 1.243 . S
O101 Tb59 2.428 . S
O101 C123 1.256 . S
O102 Tb59 2.308 1_565 S
O102 C122 1.266 . S
O103 Tb48 2.393 1_655 S
O103 C122 1.248 . S
C104 O93 1.264 . S
C104 O94 1.243 1_565 S
C105 C108 1.399 . S
C105 C110 1.383 . S
C105 C112 1.496 . S
C106 C107 1.399 . S
C106 C110 1.389 . S
C107 C106 1.399 . S
C107 C109 1.380 . S
C107 H124 0.929 . S
C108 C105 1.399 . S
C108 C109 1.392 . S
C108 H125 0.929 . S
C109 C107 1.380 . S
C109 C108 1.392 . S
C109 H126 0.929 . S
C110 C105 1.383 . S
C110 C106 1.389 . S
C110 H127 0.931 . S
C111 O96 1.266 . S
C111 O97 1.248 . S
C112 Tb48 2.802 . S
C112 O92 1.264 . S
C112 O95 1.256 . S
C112 C105 1.496 . S
C113 C80 1.448 . S
C113 H90 0.930 . S
C113 C114 1.328 . S
C114 C85 1.427 . S
C114 H91 0.929 . S
C114 C113 1.328 . S
C115 O99 1.264 . S
C115 O100 1.243 . S
C116 C119 1.399 . S
C116 C120 1.383 . S
C116 C123 1.496 . S
C117 C118 1.399 . S
C117 C120 1.389 . S
C118 C117 1.399 . S
C118 C121 1.380 . S
C118 H128 0.929 . S
C119 C116 1.399 . S
C119 C121 1.392 . S
C119 H129 0.929 . S
C120 C116 1.383 . S
C120 C117 1.389 . S
C120 H130 0.931 . S
C121 C118 1.380 . S
C121 C119 1.392 . S
C121 H131 0.929 . S
C122 O102 1.266 . S
C122 O103 1.248 . S
C123 Tb59 2.802 . S
C123 O98 1.264 . S
C123 O101 1.256 . S
C123 C116 1.496 . S
H124 C107 0.929 . S
H125 C108 0.929 . S
H126 C109 0.929 . S
H127 C110 0.931 . S
H128 C118 0.929 . S
H129 C119 0.929 . S
H130 C120 0.931 . S
H131 C121 0.929 . S
Tb132 N161 2.616 1_556 S
Tb132 N167 2.571 1_556 S
Tb132 O176 2.469 . S
Tb132 O177 2.382 1_556 S
Tb132 O179 2.432 . S
Tb132 O180 2.307 1_556 S
Tb132 O184 2.351 . S
Tb132 O187 2.391 1_556 S
Tb132 C196 2.807 . S
C133 N134 1.379 . S
C133 C136 1.416 . S
C133 C140 1.424 . S
N134 C133 1.379 . S
N134 C137 1.334 . S
N134 Tb143 2.617 . S
C135 C137 1.390 . S
C135 C138 1.339 . S
C135 H155 0.930 . S
C136 C133 1.416 . S
C136 C138 1.416 . S
C136 C142 1.448 . S
C137 N134 1.334 . S
C137 C135 1.390 . S
C137 H148 0.930 . S
C138 C135 1.339 . S
C138 C136 1.416 . S
C138 H159 0.930 . S
C139 C140 1.413 . S
C139 C141 1.427 . S
C139 C145 1.416 . S
C140 C133 1.424 . S
C140 C139 1.413 . S
C140 N144 1.361 . S
C141 C139 1.427 . S
C141 C142 1.328 . S
C141 H156 0.929 . S
C142 C136 1.448 . S
C142 C141 1.328 . S
C142 H157 0.930 . S
Tb143 N134 2.617 . S
Tb143 N144 2.572 . S
Tb143 O178 2.349 . S
Tb143 O181 2.393 . S
Tb143 O182 2.465 . S
Tb143 O183 2.387 . S
Tb143 O185 2.428 . S
Tb143 O186 2.308 . S
Tb143 C207 2.802 . S
N144 C140 1.361 . S
N144 Tb143 2.572 . S
N144 C146 1.340 . S
C145 C139 1.416 . S
C145 C147 1.332 . S
C145 H153 0.931 . S
C146 N144 1.340 . S
C146 C147 1.407 . S
C146 H152 0.930 . S
C147 C145 1.332 . S
C147 C146 1.407 . S
C147 H149 0.929 . S
H148 C137 0.930 . S
H149 C147 0.929 . S
H150 C165 0.930 . S
H151 C172 0.929 . S
H152 C146 0.930 . S
H153 C145 0.931 . S
H154 C168 0.930 . S
H155 C135 0.930 . S
H156 C141 0.929 . S
H157 C142 0.930 . S
H158 C163 0.930 . S
H159 C138 0.930 . S
H160 C171 0.931 . S
N161 Tb132 2.616 1_554 S
N161 C162 1.379 . S
N161 C165 1.334 1_554 S
C162 N161 1.379 . S
C162 C164 1.416 . S
C162 C170 1.424 . S
C163 H158 0.930 . S
C163 C165 1.392 . S
C163 C166 1.337 1_556 S
C164 C162 1.416 . S
C164 C166 1.416 . S
C164 C197 1.448 . S
C165 H150 0.930 . S
C165 N161 1.334 1_556 S
C165 C163 1.392 . S
C166 C163 1.337 1_554 S
C166 C164 1.416 . S
C166 H173 0.930 . S
N167 Tb132 2.571 1_554 S
N167 C168 1.340 . S
N167 C170 1.361 . S
C168 H154 0.930 . S
C168 N167 1.340 . S
C168 C172 1.407 . S
C169 C170 1.413 . S
C169 C171 1.416 . S
C169 C198 1.427 . S
C170 C162 1.424 . S
C170 N167 1.361 . S
C170 C169 1.413 . S
C171 H160 0.931 . S
C171 C169 1.416 . S
C171 C172 1.332 . S
C172 H151 0.929 . S
C172 C168 1.407 . S
C172 C171 1.332 . S
H173 C166 0.930 . S
H174 C197 0.930 . S
H175 C198 0.929 . S
O176 Tb132 2.469 . S
O176 C196 1.264 . S
O177 Tb132 2.382 1_554 S
O177 C188 1.264 . S
O178 Tb143 2.349 . S
O178 C188 1.243 . S
O179 Tb132 2.432 . S
O179 C196 1.256 . S
O180 Tb132 2.307 1_554 S
O180 C195 1.266 . S
O181 Tb143 2.393 . S
O181 C195 1.248 . S
O182 Tb143 2.465 . S
O182 C207 1.264 . S
O183 Tb143 2.387 . S
O183 C199 1.264 1_554 S
O184 Tb132 2.351 . S
O184 C199 1.243 . S
O185 Tb143 2.428 . S
O185 C207 1.256 . S
O186 Tb143 2.308 . S
O186 C206 1.266 . S
O187 Tb132 2.391 1_554 S
O187 C206 1.248 . S
C188 O177 1.264 . S
C188 O178 1.243 . S
C189 C192 1.399 . S
C189 C194 1.383 . S
C189 C196 1.496 . S
C190 C191 1.399 . S
C190 C194 1.389 . S
C191 C190 1.399 . S
C191 C193 1.380 . S
C191 H208 0.929 . S
C192 C189 1.399 . S
C192 C193 1.392 . S
C192 H209 0.929 . S
C193 C191 1.380 . S
C193 C192 1.392 . S
C193 H210 0.929 . S
C194 C189 1.383 . S
C194 C190 1.389 . S
C194 H211 0.931 . S
C195 O180 1.266 . S
C195 O181 1.248 . S
C196 Tb132 2.807 . S
C196 O176 1.264 . S
C196 O179 1.256 . S
C196 C189 1.496 . S
C197 C164 1.448 . S
C197 H174 0.930 . S
C197 C198 1.328 . S
C198 C169 1.427 . S
C198 H175 0.929 . S
C198 C197 1.328 . S
C199 O183 1.264 1_556 S
C199 O184 1.243 . S
C200 C203 1.399 . S
C200 C204 1.383 . S
C200 C207 1.496 . S
C201 C202 1.399 . S
C201 C204 1.389 . S
C202 C201 1.399 . S
C202 C205 1.380 . S
C202 H212 0.929 . S
C203 C200 1.399 . S
C203 C205 1.392 . S
C203 H213 0.929 . S
C204 C200 1.383 . S
C204 C201 1.389 . S
C204 H214 0.931 . S
C205 C202 1.380 . S
C205 C203 1.392 . S
C205 H215 0.929 . S
C206 O186 1.266 . S
C206 O187 1.248 . S
C207 Tb143 2.802 . S
C207 O182 1.264 . S
C207 O185 1.256 . S
C207 C200 1.496 . S
H208 C191 0.929 . S
H209 C192 0.929 . S
H210 C193 0.929 . S
H211 C194 0.931 . S
H212 C202 0.929 . S
H213 C203 0.929 . S
H214 C204 0.931 . S
H215 C205 0.929 . S
H216 C224 0.950 . S
H217 C229 0.950 . S
H218 C226 0.950 . S
H219 C228 0.950 . S
H220 C230 0.950 . S
H221 C232 0.950 . S
H222 C234 0.950 . S
H223 C235 0.950 . S
C224 H216 0.950 . S
C224 C225 1.386 . S
C224 C226 1.391 . S
C225 C224 1.386 . S
C225 C229 1.393 . S
C226 H218 0.950 . S
C226 C224 1.391 . S
C226 C227 1.400 . S
C227 C226 1.400 . S
C227 C228 1.398 . S
C227 C233 1.491 . S
C228 H219 0.950 . S
C228 C227 1.398 . S
C228 C229 1.391 . S
C229 H217 0.950 . S
C229 C225 1.393 . S
C229 C228 1.391 . S
C230 H220 0.950 . S
C230 C231 1.386 . S
C230 C232 1.391 . S
C231 C230 1.386 . S
C231 C235 1.393 . S
C232 H221 0.950 . S
C232 C230 1.391 . S
C232 C233 1.400 . S
C233 C227 1.491 . S
C233 C232 1.400 . S
C233 C234 1.398 . S
C234 H222 0.950 . S
C234 C233 1.398 . S
C234 C235 1.391 . S
C235 H223 0.950 . S
C235 C231 1.393 . S
C235 C234 1.391 . S
H236 C244 0.950 . S
H237 C249 0.950 . S
H238 C246 0.950 . S
H239 C248 0.950 . S
H240 C250 0.950 . S
H241 C252 0.950 . S
H242 C254 0.950 . S
H243 C255 0.950 . S
C244 H236 0.950 . S
C244 C245 1.386 . S
C244 C246 1.391 . S
C245 C244 1.386 . S
C245 C249 1.393 . S
C246 H238 0.950 . S
C246 C244 1.391 . S
C246 C247 1.400 . S
C247 C246 1.400 . S
C247 C248 1.398 . S
C247 C253 1.491 . S
C248 H239 0.950 . S
C248 C247 1.398 . S
C248 C249 1.391 . S
C249 H237 0.950 . S
C249 C245 1.393 . S
C249 C248 1.391 . S
C250 H240 0.950 . S
C250 C251 1.386 . S
C250 C252 1.391 . S
C251 C250 1.386 . S
C251 C255 1.393 . S
C252 H241 0.950 . S
C252 C250 1.391 . S
C252 C253 1.400 . S
C253 C247 1.491 . S
C253 C252 1.400 . S
C253 C254 1.398 . S
C254 H242 0.950 . S
C254 C253 1.398 . S
C254 C255 1.391 . S
C255 H243 0.950 . S
C255 C251 1.393 . S
C255 C254 1.391 . S
H256 C264 0.950 . S
H257 C269 0.950 . S
H258 C266 0.950 . S
H259 C268 0.950 . S
H260 C270 0.950 . S
H261 C272 0.950 . S
H262 C274 0.950 . S
H263 C275 0.950 . S
C264 H256 0.950 . S
C264 C265 1.386 . S
C264 C266 1.391 . S
C265 C264 1.386 . S
C265 C269 1.393 . S
C266 H258 0.950 . S
C266 C264 1.391 . S
C266 C267 1.400 . S
C267 C266 1.400 . S
C267 C268 1.398 . S
C267 C273 1.491 . S
C268 H259 0.950 . S
C268 C267 1.398 . S
C268 C269 1.391 . S
C269 H257 0.950 . S
C269 C265 1.393 . S
C269 C268 1.391 . S
C270 H260 0.950 . S
C270 C271 1.386 . S
C270 C272 1.391 . S
C271 C270 1.386 . S
C271 C275 1.393 . S
C272 H261 0.950 . S
C272 C270 1.391 . S
C272 C273 1.400 . S
C273 C267 1.491 . S
C273 C272 1.400 . S
C273 C274 1.398 . S
C274 H262 0.950 . S
C274 C273 1.398 . S
C274 C275 1.391 . S
C275 H263 0.950 . S
C275 C271 1.393 . S
C275 C274 1.391 . S
H276 C284 0.950 1_556 S
H277 C289 0.950 . S
H278 C286 0.950 1_556 S
H279 C288 0.950 . S
H280 C290 0.950 . S
H281 C292 0.950 . S
H282 C294 0.950 1_556 S
H283 C295 0.950 1_556 S
C284 H276 0.950 1_554 S
C284 C285 1.386 . S
C284 C286 1.391 . S
C285 C284 1.386 . S
C285 C289 1.393 . S
C286 H278 0.950 1_554 S
C286 C284 1.391 . S
C286 C287 1.400 . S
C287 C286 1.400 . S
C287 C288 1.398 . S
C287 C293 1.491 . S
C288 H279 0.950 . S
C288 C287 1.398 . S
C288 C289 1.391 . S
C289 H277 0.950 . S
C289 C285 1.393 . S
C289 C288 1.391 . S
C290 H280 0.950 . S
C290 C291 1.386 . S
C290 C292 1.391 . S
C291 C290 1.386 . S
C291 C295 1.393 . S
C292 H281 0.950 . S
C292 C290 1.391 . S
C292 C293 1.400 . S
C293 C287 1.491 . S
C293 C292 1.400 . S
C293 C294 1.398 . S
C294 H282 0.950 1_554 S
C294 C293 1.398 . S
C294 C295 1.391 . S
C295 H283 0.950 1_554 S
C295 C291 1.393 . S
C295 C294 1.391 . S
H296 C304 0.950 . S
H297 C309 0.950 . S
H298 C306 0.950 . S
H299 C308 0.950 . S
H300 C310 0.950 . S
H301 C312 0.950 . S
H302 C314 0.950 . S
H303 C315 0.950 . S
C304 H296 0.950 . S
C304 C305 1.386 . S
C304 C306 1.391 . S
C305 C304 1.386 . S
C305 C309 1.393 . S
C306 H298 0.950 . S
C306 C304 1.391 . S
C306 C307 1.400 . S
C307 C306 1.400 . S
C307 C308 1.398 . S
C307 C313 1.491 . S
C308 H299 0.950 . S
C308 C307 1.398 . S
C308 C309 1.391 . S
C309 H297 0.950 . S
C309 C305 1.393 . S
C309 C308 1.391 . S
C310 H300 0.950 . S
C310 C311 1.386 . S
C310 C312 1.391 . S
C311 C310 1.386 . S
C311 C315 1.393 . S
C312 H301 0.950 . S
C312 C310 1.391 . S
C312 C313 1.400 . S
C313 C307 1.491 . S
C313 C312 1.400 . S
C313 C314 1.398 . S
C314 H302 0.950 . S
C314 C313 1.398 . S
C314 C315 1.391 . S
C315 H303 0.950 . S
C315 C311 1.393 . S
C315 C314 1.391 . S
H316 C324 0.950 . S
H317 C329 0.950 . S
H318 C326 0.950 . S
H319 C328 0.950 . S
H320 C330 0.950 . S
H321 C332 0.950 . S
H322 C334 0.950 . S
H323 C335 0.950 . S
C324 H316 0.950 . S
C324 C325 1.386 . S
C324 C326 1.391 . S
C325 C324 1.386 . S
C325 C329 1.393 . S
C326 H318 0.950 . S
C326 C324 1.391 . S
C326 C327 1.400 . S
C327 C326 1.400 . S
C327 C328 1.398 . S
C327 C333 1.491 . S
C328 H319 0.950 . S
C328 C327 1.398 . S
C328 C329 1.391 . S
C329 H317 0.950 . S
C329 C325 1.393 . S
C329 C328 1.391 . S
C330 H320 0.950 . S
C330 C331 1.386 . S
C330 C332 1.391 . S
C331 C330 1.386 . S
C331 C335 1.393 . S
C332 H321 0.950 . S
C332 C330 1.391 . S
C332 C333 1.400 . S
C333 C327 1.491 . S
C333 C332 1.400 . S
C333 C334 1.398 . S
C334 H322 0.950 . S
C334 C333 1.398 . S
C334 C335 1.391 . S
C335 H323 0.950 . S
C335 C331 1.393 . S
C335 C334 1.391 . S
H336 C344 0.950 . S
H337 C349 0.950 . S
H338 C346 0.950 . S
H339 C348 0.950 . S
H340 C350 0.950 . S
H341 C352 0.950 . S
H342 C354 0.950 . S
H343 C355 0.950 . S
C344 H336 0.950 . S
C344 C345 1.386 . S
C344 C346 1.391 . S
C345 C344 1.386 . S
C345 C349 1.393 . S
C346 H338 0.950 . S
C346 C344 1.391 . S
C346 C347 1.400 . S
C347 C346 1.400 . S
C347 C348 1.398 . S
C347 C353 1.491 . S
C348 H339 0.950 . S
C348 C347 1.398 . S
C348 C349 1.391 . S
C349 H337 0.950 . S
C349 C345 1.393 . S
C349 C348 1.391 . S
C350 H340 0.950 . S
C350 C351 1.386 . S
C350 C352 1.391 . S
C351 C350 1.386 . S
C351 C355 1.393 . S
C352 H341 0.950 . S
C352 C350 1.391 . S
C352 C353 1.400 . S
C353 C347 1.491 . S
C353 C352 1.400 . S
C353 C354 1.398 . S
C354 H342 0.950 . S
C354 C353 1.398 . S
C354 C355 1.391 . S
C355 H343 0.950 . S
C355 C351 1.393 . S
C355 C354 1.391 . S
H356 C364 0.950 . S
H357 C369 0.950 . S
H358 C366 0.950 . S
H359 C368 0.950 . S
H360 C370 0.950 . S
H361 C372 0.950 . S
H362 C374 0.950 . S
H363 C375 0.950 . S
C364 H356 0.950 . S
C364 C365 1.386 . S
C364 C366 1.391 . S
C365 C364 1.386 . S
C365 C369 1.393 . S
C366 H358 0.950 . S
C366 C364 1.391 . S
C366 C367 1.400 . S
C367 C366 1.400 . S
C367 C368 1.398 . S
C367 C373 1.491 . S
C368 H359 0.950 . S
C368 C367 1.398 . S
C368 C369 1.391 . S
C369 H357 0.950 . S
C369 C365 1.393 . S
C369 C368 1.391 . S
C370 H360 0.950 . S
C370 C371 1.386 . S
C370 C372 1.391 . S
C371 C370 1.386 . S
C371 C375 1.393 . S
C372 H361 0.950 . S
C372 C370 1.391 . S
C372 C373 1.400 . S
C373 C367 1.491 . S
C373 C372 1.400 . S
C373 C374 1.398 . S
C374 H362 0.950 . S
C374 C373 1.398 . S
C374 C375 1.391 . S
C375 H363 0.950 . S
C375 C371 1.393 . S
C375 C374 1.391 . S
H376 C384 0.950 . S
H377 C389 0.950 . S
H378 C386 0.950 . S
H379 C388 0.950 . S
H380 C390 0.950 . S
H381 C392 0.950 . S
H382 C394 0.950 . S
H383 C395 0.950 . S
C384 H376 0.950 . S
C384 C385 1.386 . S
C384 C386 1.391 . S
C385 C384 1.386 . S
C385 C389 1.393 . S
C386 H378 0.950 . S
C386 C384 1.391 . S
C386 C387 1.400 . S
C387 C386 1.400 . S
C387 C388 1.398 . S
C387 C393 1.491 . S
C388 H379 0.950 . S
C388 C387 1.398 . S
C388 C389 1.391 . S
C389 H377 0.950 . S
C389 C385 1.393 . S
C389 C388 1.391 . S
C390 H380 0.950 . S
C390 C391 1.386 . S
C390 C392 1.391 . S
C391 C390 1.386 . S
C391 C395 1.393 . S
C392 H381 0.950 . S
C392 C390 1.391 . S
C392 C393 1.400 . S
C393 C387 1.491 . S
C393 C392 1.400 . S
C393 C394 1.398 . S
C394 H382 0.950 . S
C394 C393 1.398 . S
C394 C395 1.391 . S
C395 H383 0.950 . S
C395 C391 1.393 . S
C395 C394 1.391 . S
H396 C404 0.950 1_554 S
H397 C409 0.950 . S
H398 C406 0.950 . S
H399 C408 0.950 . S
H400 C410 0.950 . S
H401 C412 0.950 . S
H402 C414 0.950 . S
H403 C415 0.950 . S
C404 H396 0.950 1_556 S
C404 C405 1.386 . S
C404 C406 1.391 . S
C405 C404 1.386 . S
C405 C409 1.393 . S
C406 H398 0.950 . S
C406 C404 1.391 . S
C406 C407 1.400 . S
C407 C406 1.400 . S
C407 C408 1.398 . S
C407 C413 1.491 . S
C408 H399 0.950 . S
C408 C407 1.398 . S
C408 C409 1.391 . S
C409 H397 0.950 . S
C409 C405 1.393 . S
C409 C408 1.391 . S
C410 H400 0.950 . S
C410 C411 1.386 . S
C410 C412 1.391 . S
C411 C410 1.386 . S
C411 C415 1.393 . S
C412 H401 0.950 . S
C412 C410 1.391 . S
C412 C413 1.400 . S
C413 C407 1.491 . S
C413 C412 1.400 . S
C413 C414 1.398 . S
C414 H402 0.950 . S
C414 C413 1.398 . S
C414 C415 1.391 . S
C415 H403 0.950 . S
C415 C411 1.393 . S
C415 C414 1.391 . S
H416 C424 0.950 . S
H417 C429 0.950 . S
H418 C426 0.950 . S
H419 C428 0.950 . S
H420 C430 0.950 . S
H421 C432 0.950 . S
H422 C434 0.950 . S
H423 C435 0.950 . S
C424 H416 0.950 . S
C424 C425 1.386 . S
C424 C426 1.391 . S
C425 C424 1.386 . S
C425 C429 1.393 . S
C426 H418 0.950 . S
C426 C424 1.391 . S
C426 C427 1.400 . S
C427 C426 1.400 . S
C427 C428 1.398 . S
C427 C433 1.491 . S
C428 H419 0.950 . S
C428 C427 1.398 . S
C428 C429 1.391 . S
C429 H417 0.950 . S
C429 C425 1.393 . S
C429 C428 1.391 . S
C430 H420 0.950 . S
C430 C431 1.386 . S
C430 C432 1.391 . S
C431 C430 1.386 . S
C431 C435 1.393 . S
C432 H421 0.950 . S
C432 C430 1.391 . S
C432 C433 1.400 . S
C433 C427 1.491 . S
C433 C432 1.400 . S
C433 C434 1.398 . S
C434 H422 0.950 . S
C434 C433 1.398 . S
C434 C435 1.391 . S
C435 H423 0.950 . S
C435 C431 1.393 . S
C435 C434 1.391 . S
H436 C444 0.950 . S
H437 C449 0.950 . S
H438 C446 0.950 . S
H439 C448 0.950 . S
H440 C450 0.950 . S
H441 C452 0.950 . S
H442 C454 0.950 . S
H443 C455 0.950 . S
C444 H436 0.950 . S
C444 C445 1.386 . S
C444 C446 1.391 . S
C445 C444 1.386 . S
C445 C449 1.393 . S
C446 H438 0.950 . S
C446 C444 1.391 . S
C446 C447 1.400 . S
C447 C446 1.400 . S
C447 C448 1.398 . S
C447 C453 1.491 . S
C448 H439 0.950 . S
C448 C447 1.398 . S
C448 C449 1.391 . S
C449 H437 0.950 . S
C449 C445 1.393 . S
C449 C448 1.391 . S
C450 H440 0.950 . S
C450 C451 1.386 . S
C450 C452 1.391 . S
C451 C450 1.386 . S
C451 C455 1.393 . S
C452 H441 0.950 . S
C452 C450 1.391 . S
C452 C453 1.400 . S
C453 C447 1.491 . S
C453 C452 1.400 . S
C453 C454 1.398 . S
C454 H442 0.950 . S
C454 C453 1.398 . S
C454 C455 1.391 . S
C455 H443 0.950 . S
C455 C451 1.393 . S
C455 C454 1.391 . S
C231 C111 1.650 . S
C225 C40 1.665 . S
C245 C4 1.662 . S
C251 C206 1.639 . S
C265 C16 1.661 . S
C271 C122 1.665 . S
C285 C28 1.635 . S
C291 C195 1.625 . S
C311 C106 1.427 . S
C305 C9 1.603 . S
C331 C199 1.711 . S
C325 C18 1.705 . S
C345 C33 1.635 . S
C351 C115 1.655 . S
C365 C45 1.607 . S
C371 C190 1.456 . S
C391 C201 1.382 . S
C385 C21 1.569 . S
C411 C117 1.367 . S
C405 C30 1.568 1_556 S
C431 C188 1.641 . S
C425 C42 1.624 . S
C445 C6 1.584 . S
C451 C104 1.592 . S
