# Generated by pormake.
# Topology ssa, (4,4)-cn, num edge types: 1
# Building blocks:
#     Node 0, Type 0, BuildingBlock: KOZSID_clean_sbu_0, # of connection points: 4
#     Node 1, Type 0, BuildingBlock: KOZSID_clean_sbu_0, # of connection points: 4
#     Node 2, Type 0, BuildingBlock: KOZSID_clean_sbu_0, # of connection points: 4
#     Node 3, Type 0, BuildingBlock: KOZSID_clean_sbu_0, # of connection points: 4
#     Node 4, Type 0, BuildingBlock: KOZSID_clean_sbu_0, # of connection points: 4
#     Node 5, Type 0, BuildingBlock: KOZSID_clean_sbu_0, # of connection points: 4
#     Node 6, Type 1, BuildingBlock: NAWXER_clean_linker_0, # of connection points: 4
#     Node 7, Type 1, BuildingBlock: NAWXER_clean_linker_0, # of connection points: 4
#     Node 8, Type 1, BuildingBlock: NAWXER_clean_linker_0, # of connection points: 4
#     Node 9, Type 1, BuildingBlock: NAWXER_clean_linker_0, # of connection points: 4
#     Node 10, Type 1, BuildingBlock: NAWXER_clean_linker_0, # of connection points: 4
#     Node 11, Type 1, BuildingBlock: NAWXER_clean_linker_0, # of connection points: 4
#     Edge 12, Type (0, 1), None
#     Edge 13, Type (0, 1), None
#     Edge 14, Type (0, 1), None
#     Edge 15, Type (0, 1), None
#     Edge 16, Type (0, 1), None
#     Edge 17, Type (0, 1), None
#     Edge 18, Type (0, 1), None
#     Edge 19, Type (0, 1), None
#     Edge 20, Type (0, 1), None
#     Edge 21, Type (0, 1), None
#     Edge 22, Type (0, 1), None
#     Edge 23, Type (0, 1), None
#     Edge 24, Type (0, 1), None
#     Edge 25, Type (0, 1), None
#     Edge 26, Type (0, 1), None
#     Edge 27, Type (0, 1), None
#     Edge 28, Type (0, 1), None
#     Edge 29, Type (0, 1), None
#     Edge 30, Type (0, 1), None
#     Edge 31, Type (0, 1), None
#     Edge 32, Type (0, 1), None
#     Edge 33, Type (0, 1), None
#     Edge 34, Type (0, 1), None
#     Edge 35, Type (0, 1), None
# Relax obj value: 0.010
# Max RMSD: 0.030
# Mean RMSD: 0.015
data_MOF--net-ssa--node1-KOZSID_clean_sbu_0--node2-NAWXER_clean_linker_0--edge1-none
_symmetry_space_group_name_H-M    P1
_symmetry_Int_Tables_number       1
_symmetry_cell_setting            triclinic
loop_
_symmetry_equiv_pos_as_xyz
'x, y, z'
_cell_length_a     36.187322
_cell_length_b     37.643516
_cell_length_c     25.728665
_cell_angle_alpha  86.200553
_cell_angle_beta   89.839303
_cell_angle_gamma 123.77196
loop_
_atom_site_label
_atom_site_type_symbol
_atom_site_fract_x
_atom_site_fract_y
_atom_site_fract_z
_atom_type_partial_charge
C0 C 0.92551 0.5137 0.00324 0.0
C1 C 0.88623 0.50169 0.02956 0.0
C2 C 0.88265 0.47771 0.07391 0.0
C3 C 0.91977 0.47641 0.0721 0.0
N4 N 0.94735 0.49899 0.02983 0.0
Co5 Co 0.00306 0.50298 0.009 0.0
N6 N 0.99377 0.46133 0.06884 0.0
C7 C 0.95945 0.44102 0.10493 0.0
C8 C 0.96344 0.41603 0.1427 0.0
C9 C 0.00302 0.42123 0.13054 0.0
C10 C 0.02093 0.44926 0.08595 0.0
N11 N 0.05887 0.50717 0.98813 0.0
C12 C 0.07951 0.49034 0.01281 0.0
C13 C 0.11887 0.50264 0.98633 0.0
C14 C 0.12369 0.52881 0.94386 0.0
C15 C 0.08722 0.53103 0.94685 0.0
N16 N 0.01216 0.54427 0.94887 0.0
C17 C 0.04665 0.56501 0.91309 0.0
C18 C 0.04208 0.58907 0.87454 0.0
C19 C 0.00168 0.58242 0.88555 0.0
C20 C 0.98402 0.55457 0.93031 0.0
N21 N 0.03813 0.55132 0.05424 0.0
C22 C 0.08906 0.61804 0.12005 0.0
C23 C 0.10192 0.62264 0.06746 0.0
C24 C 0.07648 0.58899 0.03566 0.0
C25 C 0.05018 0.57978 0.13901 0.0
C26 C 0.02519 0.54745 0.10565 0.0
N27 N 0.96766 0.45479 0.96404 0.0
C28 C 0.95311 0.4263 0.87917 0.0
C29 C 0.91084 0.39134 0.89705 0.0
C30 C 0.89871 0.38776 0.94971 0.0
C31 C 0.92728 0.41937 0.9821 0.0
C32 C 0.98085 0.45731 0.91312 0.0
H33 H 0.91543 0.41485 0.02142 0.0
H34 H 0.01237 0.48358 0.89707 0.0
H35 H 0.08874 0.59407 0.99635 0.0
H36 H 0.9956 0.51957 0.12266 0.0
C37 C 0.92642 0.44959 0.1052 0.0
C38 C 0.93899 0.53598 0.95124 0.0
C39 C 0.06501 0.46552 0.06324 0.0
C40 C 0.08031 0.55748 0.91367 0.0
H41 H 0.86185 0.50811 0.01691 0.0
H42 H 0.855 0.46112 0.10248 0.0
H43 H 0.94118 0.39768 0.1763 0.0
H44 H 0.0178 0.40716 0.15281 0.0
H45 H 0.14238 0.49465 0.99748 0.0
H46 H 0.15132 0.54549 0.91526 0.0
H47 H 0.06438 0.60745 0.84097 0.0
H48 H 0.9861 0.59513 0.86219 0.0
H49 H 0.13207 0.65175 0.05117 0.0
H50 H 0.03871 0.575 0.17941 0.0
H51 H 0.96431 0.43052 0.83879 0.0
H52 H 0.86699 0.36069 0.96608 0.0
C53 C 0.56074 0.01858 0.59945 0.0
C54 C 0.55992 0.00024 0.64839 0.0
C55 C 0.52034 0.96121 0.65434 0.0
C56 C 0.49946 0.95786 0.60877 0.0
N57 N 0.52369 0.99208 0.57362 0.0
Co58 Co 0.50514 0.00149 0.50326 0.0
N59 N 0.44407 0.94768 0.5155 0.0
C60 C 0.42767 0.92086 0.5595 0.0
C61 C 0.38442 0.8869 0.55679 0.0
C62 C 0.37265 0.89193 0.50789 0.0
C63 C 0.40975 0.92858 0.4832 0.0
N64 N 0.4869 0.01037 0.43234 0.0
C65 C 0.44943 0.98416 0.40679 0.0
C66 C 0.45234 0.00087 0.35597 0.0
C67 C 0.49279 0.03887 0.34924 0.0
C68 C 0.5125 0.04308 0.3958 0.0
N69 N 0.56593 0.05599 0.49177 0.0
C70 C 0.58178 0.08382 0.4487 0.0
C71 C 0.62307 0.12024 0.45365 0.0
C72 C 0.63395 0.116 0.50331 0.0
C73 C 0.5986 0.07687 0.52582 0.0
N74 N 0.5262 0.96837 0.4722 0.0
C75 C 0.54518 0.91644 0.42046 0.0
C76 C 0.56184 0.95818 0.40033 0.0
C77 C 0.55245 0.98366 0.42701 0.0
C78 C 0.52095 0.90167 0.46798 0.0
C79 C 0.51206 0.92806 0.49318 0.0
N80 N 0.48406 0.03446 0.5343 0.0
C81 C 0.48274 0.09806 0.53335 0.0
C82 C 0.46606 0.08743 0.58493 0.0
C83 C 0.45608 0.04891 0.60981 0.0
C84 C 0.46454 0.02272 0.58364 0.0
C85 C 0.49159 0.07129 0.50888 0.0
H86 H 0.45626 0.99378 0.60481 0.0
H87 H 0.50578 0.0817 0.47009 0.0
H88 H 0.56571 0.01512 0.40952 0.0
H89 H 0.49251 0.91457 0.52871 0.0
C90 C 0.45489 0.92636 0.60091 0.0
C91 C 0.59613 0.06225 0.5806 0.0
C92 C 0.41145 0.94243 0.42822 0.0
C93 C 0.55582 0.07626 0.40556 0.0
H94 H 0.58465 0.01437 0.6775 0.0
H95 H 0.50732 0.939 0.68888 0.0
H96 H 0.36429 0.86085 0.58626 0.0
H97 H 0.34072 0.87037 0.49172 0.0
H98 H 0.42842 0.98674 0.32612 0.0
H99 H 0.50675 0.06021 0.314 0.0
H100 H 0.64219 0.14747 0.42527 0.0
H101 H 0.66388 0.13982 0.52129 0.0
H102 H 0.58097 0.97067 0.36348 0.0
H103 H 0.50758 0.86936 0.48471 0.0
H104 H 0.49076 0.12778 0.51284 0.0
H105 H 0.44263 0.03948 0.64974 0.0
C106 C 0.58743 0.55323 0.9233 0.0
C107 C 0.60347 0.5812 0.87862 0.0
C108 C 0.57216 0.58964 0.86698 0.0
C109 C 0.53896 0.56644 0.90508 0.0
N110 N 0.54765 0.54448 0.94113 0.0
Co111 Co 0.50688 0.50346 1.00043 0.0
N112 N 0.45795 0.51059 0.97882 0.0
C113 C 0.45887 0.53505 0.93718 0.0
C114 C 0.42121 0.53533 0.93412 0.0
C115 C 0.39504 0.5103 0.97695 0.0
C116 C 0.41838 0.49619 0.00371 0.0
N117 N 0.46613 0.46239 0.05971 0.0
C118 C 0.42583 0.45277 0.07684 0.0
C119 C 0.40982 0.42474 0.12149 0.0
C120 C 0.44159 0.41707 0.13372 0.0
C121 C 0.47503 0.44075 0.096 0.0
N122 N 0.55582 0.49631 0.02197 0.0
C123 C 0.55511 0.47219 0.06386 0.0
C124 C 0.59256 0.47151 0.06652 0.0
C125 C 0.61828 0.49581 0.02309 0.0
C126 C 0.59491 0.50992 0.99641 0.0
N127 N 0.52859 0.5513 0.04601 0.0
C128 C 0.5432 0.61217 0.11539 0.0
C129 C 0.54516 0.57727 0.1321 0.0
C130 C 0.53796 0.54748 0.09692 0.0
C131 C 0.53728 0.61788 0.06262 0.0
C132 C 0.53055 0.58755 0.02882 0.0
N133 N 0.48516 0.45567 0.95492 0.0
C134 C 0.47623 0.38901 0.93841 0.0
C135 C 0.47029 0.39473 0.88565 0.0
C136 C 0.46846 0.4297 0.86889 0.0
C137 C 0.47579 0.45954 0.90404 0.0
C138 C 0.48313 0.41941 0.97217 0.0
H139 H 0.47524 0.48618 0.88867 0.0
H140 H 0.48821 0.41358 0.01167 0.0
H141 H 0.53865 0.52094 0.1123 0.0
H142 H 0.52558 0.59346 0.98932 0.0
C143 C 0.49726 0.5606 0.90464 0.0
C144 C 0.60948 0.53333 0.94509 0.0
C145 C 0.40308 0.47176 0.05439 0.0
C146 C 0.51679 0.44674 0.09652 0.0
H147 H 0.63382 0.59287 0.85571 0.0
H148 H 0.57251 0.60861 0.83323 0.0
H149 H 0.41444 0.55314 0.90544 0.0
H150 H 0.36308 0.5043 0.98825 0.0
H151 H 0.37908 0.41239 0.14389 0.0
H152 H 0.44124 0.39807 0.16744 0.0
H153 H 0.59933 0.45369 0.09517 0.0
H154 H 0.64985 0.50117 0.01126 0.0
H155 H 0.55021 0.57186 0.17258 0.0
H156 H 0.53694 0.64527 0.04759 0.0
H157 H 0.4765 0.36158 0.95345 0.0
H158 H 0.46342 0.4351 0.82841 0.0
C159 C 0.90968 0.40921 0.52385 0.0
C160 C 0.86749 0.38263 0.50537 0.0
C161 C 0.86713 0.40156 0.45848 0.0
C162 C 0.9089 0.43842 0.45115 0.0
N163 N 0.93615 0.444 0.49012 0.0
Co164 Co 0.99893 0.49409 0.49635 0.0
N165 N 0.99667 0.52487 0.4306 0.0
C166 C 0.96274 0.50906 0.39776 0.0
C167 C 0.97467 0.53072 0.34941 0.0
C168 C 0.01843 0.56269 0.35182 0.0
C169 C 0.03021 0.56068 0.40276 0.0
N170 N 0.06209 0.5436 0.5018 0.0
C171 C 0.08903 0.57531 0.46453 0.0
C172 C 0.13334 0.59056 0.47188 0.0
C173 C 0.1348 0.57265 0.5189 0.0
C174 C 0.09125 0.54499 0.53584 0.0
N175 N 1.00104 0.46386 0.56249 0.0
C176 C 0.03587 0.4779 0.59358 0.0
C177 C 0.02651 0.45189 0.6383 0.0
C178 C 0.98275 0.41956 0.6362 0.0
C179 C 0.96809 0.42781 0.59001 0.0
N180 N 0.02148 0.46666 0.45402 0.0
C181 C 0.07152 0.45313 0.38387 0.0
C182 C 0.0813 0.45763 0.43644 0.0
C183 C 0.05544 0.46334 0.47079 0.0
C184 C 0.03262 0.44948 0.36872 0.0
C185 C 0.00778 0.4555 0.40456 0.0
N186 N 0.97654 0.52103 0.53865 0.0
C187 C 0.97069 0.54224 0.62342 0.0
C188 C 0.92862 0.53368 0.61309 0.0
C189 C 0.91386 0.52399 0.56249 0.0
C190 C 0.93842 0.51832 0.52594 0.0
C191 C 0.99431 0.53635 0.58544 0.0
H192 H 0.92495 0.50958 0.48844 0.0
H193 H 0.02581 0.54211 0.59547 0.0
H194 H 0.0646 0.46638 0.51023 0.0
H195 H 0.97851 0.45222 0.39071 0.0
C196 C 0.9228 0.46947 0.40964 0.0
C197 C 0.9224 0.40096 0.57454 0.0
C198 C 0.07345 0.59265 0.42348 0.0
C199 C 0.07711 0.51524 0.57899 0.0
H200 H 0.8396 0.35307 0.52434 0.0
H201 H 0.8394 0.39036 0.43337 0.0
H202 H 0.95493 0.52215 0.31524 0.0
H203 H 0.03957 0.5836 0.31871 0.0
H204 H 0.16191 0.61202 0.44572 0.0
H205 H 0.16395 0.57704 0.53684 0.0
H206 H 0.04875 0.45614 0.66894 0.0
H207 H 0.96364 0.39311 0.66557 0.0
H208 H 0.10962 0.45799 0.4508 0.0
H209 H 0.02254 0.4442 0.32885 0.0
H210 H 0.98429 0.55108 0.66142 0.0
H211 H 0.88263 0.51927 0.55158 0.0
C212 C 0.44111 0.98925 0.10493 0.0
C213 C 0.44271 0.00904 0.14931 0.0
C214 C 0.48399 0.04622 0.14818 0.0
C215 C 0.50503 0.04709 0.10325 0.0
N216 N 0.47942 0.01301 0.07511 0.0
Co217 Co 0.49725 0.00036 0.00838 0.0
N218 N 0.55919 0.05266 0.00951 0.0
C219 C 0.57675 0.08018 0.04734 0.0
C220 C 0.62009 0.11361 0.03631 0.0
C221 C 0.63042 0.10766 0.98798 0.0
C222 C 0.59249 0.07098 0.9722 0.0
N223 N 0.51507 0.98832 0.94101 0.0
C224 C 0.55194 0.01403 0.90917 0.0
C225 C 0.54923 0.99566 0.86306 0.0
C226 C 0.50907 0.95721 0.86559 0.0
C227 C 0.48944 0.95444 0.91262 0.0
N228 N 0.43534 0.94763 0.00766 0.0
C229 C 0.41892 0.91856 0.9715 0.0
C230 C 0.37619 0.88424 0.9832 0.0
C231 C 0.36483 0.89133 0.03012 0.0
C232 C 0.40143 0.92988 0.04432 0.0
N233 N 0.47941 0.03458 0.96763 0.0
C234 C 0.46686 0.08887 0.90046 0.0
C235 C 0.45011 0.04679 0.88916 0.0
C236 C 0.45612 0.02024 0.92343 0.0
C237 C 0.48731 0.10212 0.94784 0.0
C238 C 0.49341 0.07483 0.98038 0.0
N239 N 0.5153 0.96608 0.04909 0.0
C240 C 0.51404 0.90131 0.06357 0.0
C241 C 0.53221 0.91294 0.11231 0.0
C242 C 0.54371 0.95263 0.12768 0.0
C243 C 0.53547 0.97861 0.09555 0.0
C244 C 0.50579 0.92799 0.03304 0.0
H245 H 0.54485 0.00821 0.10984 0.0
H246 H 0.49098 0.91663 0.99702 0.0
H247 H 0.44289 0.98866 0.91244 0.0
H248 H 0.51062 0.08742 0.0149 0.0
C249 C 0.55011 0.07685 0.08931 0.0
C250 C 0.40358 0.94676 0.09453 0.0
C251 C 0.58823 0.05725 0.9196 0.0
C252 C 0.44525 0.9231 0.92849 0.0
H253 H 0.41717 0.99705 0.18014 0.0
H254 H 0.49767 0.06896 0.17771 0.0
H255 H 0.64088 0.14038 0.05935 0.0
H256 H 0.66158 0.12897 0.96575 0.0
H257 H 0.57275 0.00918 0.82992 0.0
H258 H 0.49484 0.93509 0.83543 0.0
H259 H 0.35622 0.85662 0.96111 0.0
H260 H 0.33361 0.86977 0.05205 0.0
H261 H 0.43382 0.03465 0.85321 0.0
H262 H 0.49937 0.13377 0.95965 0.0
H263 H 0.50574 0.87148 0.04901 0.0
H264 H 0.5578 0.96324 0.16509 0.0
C265 C 0.52921 0.59318 0.49209 0.0
C266 C 0.5203 0.61979 0.51598 0.0
C267 C 0.49166 0.59588 0.55768 0.0
C268 C 0.48476 0.55624 0.55677 0.0
N269 N 0.50815 0.55371 0.51774 0.0
Co270 Co 0.50597 0.50169 0.49925 0.0
N271 N 0.45904 0.46487 0.55574 0.0
C272 C 0.43942 0.47688 0.58869 0.0
C273 C 0.41064 0.44493 0.62556 0.0
C274 C 0.41287 0.41083 0.61644 0.0
C275 C 0.44299 0.42412 0.57441 0.0
N276 N 0.50386 0.44968 0.48088 0.0
C277 C 0.48319 0.41039 0.50693 0.0
C278 C 0.49226 0.38381 0.48331 0.0
C279 C 0.52063 0.40757 0.44134 0.0
C280 C 0.52723 0.44711 0.44185 0.0
N281 N 0.55285 0.53852 0.4427 0.0
C282 C 0.57225 0.52642 0.40952 0.0
C283 C 0.60098 0.55837 0.37262 0.0
C284 C 0.59899 0.59256 0.38198 0.0
C285 C 0.56906 0.57935 0.42419 0.0
N286 N 0.5524 0.5137 0.54951 0.0
C287 C 0.6124 0.52027 0.624 0.0
C288 C 0.61679 0.51318 0.57243 0.0
C289 C 0.58688 0.51027 0.53613 0.0
C290 C 0.57871 0.52602 0.63715 0.0
C291 C 0.54933 0.52268 0.59954 0.0
N292 N 0.45952 0.4896 0.44893 0.0
C293 C 0.4326 0.47581 0.36164 0.0
C294 C 0.39869 0.48129 0.37451 0.0
C295 C 0.39467 0.48926 0.4258 0.0
C296 C 0.42505 0.49313 0.46205 0.0
C297 C 0.46235 0.47998 0.39917 0.0
H298 H 0.42039 0.4997 0.50019 0.0
H299 H 0.48787 0.47616 0.38661 0.0
H300 H 0.59185 0.50437 0.49773 0.0
H301 H 0.52382 0.52651 0.61223 0.0
C302 C 0.4529 0.51968 0.5881 0.0
C303 C 0.55407 0.60528 0.44237 0.0
C304 C 0.45853 0.39852 0.55677 0.0
C305 C 0.5589 0.48364 0.41028 0.0
H306 H 0.53181 0.65247 0.50321 0.0
H307 H 0.47593 0.60558 0.58384 0.0
H308 H 0.3922 0.44694 0.65711 0.0
H309 H 0.39591 0.38029 0.63945 0.0
H310 H 0.48107 0.35127 0.49644 0.0
H311 H 0.53645 0.39788 0.4153 0.0
H312 H 0.61934 0.55633 0.34099 0.0
H313 H 0.61608 0.62317 0.3591 0.0
H314 H 0.64316 0.50967 0.56003 0.0
H315 H 0.57413 0.53176 0.67662 0.0
H316 H 0.43704 0.46954 0.3224 0.0
H317 H 0.3682 0.49266 0.43807 0.0
C318 C 0.37863 0.50184 0.11964 0.0
C319 C 0.36747 0.47007 0.08558 0.0
C320 C 0.34543 0.50013 0.14992 0.0
C321 C 0.30052 0.46628 0.14709 0.0
C322 C 0.32266 0.43683 0.08161 0.0
C323 C 0.28938 0.43509 0.11195 0.0
C324 C 0.26512 0.46367 0.17992 0.0
C325 C 0.34993 0.44802 0.29881 0.0
C326 C 0.36805 0.47952 0.3349 0.0
C327 C 0.31863 0.44495 0.26418 0.0
C328 C 0.30538 0.47362 0.26483 0.0
C329 C 0.35568 0.50892 0.33408 0.0
C330 C 0.32454 0.50583 0.29968 0.0
C331 C 0.2682 0.46791 0.23417 0.0
C332 C 0.08855 0.42721 0.30488 0.0
C333 C 0.10323 0.45505 0.34512 0.0
C334 C 0.11929 0.42962 0.26904 0.0
C335 C 0.16515 0.46052 0.27223 0.0
C336 C 0.14904 0.48592 0.34794 0.0
C337 C 0.17954 0.48854 0.31206 0.0
C338 C 0.19905 0.46205 0.23773 0.0
C339 C 0.12047 0.49205 0.13228 0.0
C340 C 0.09761 0.46269 0.09487 0.0
C341 C 0.15254 0.4909 0.16097 0.0
C342 C 0.16177 0.45986 0.15331 0.0
C343 C 0.10705 0.43201 0.08648 0.0
C344 C 0.13912 0.43075 0.11536 0.0
C345 C 0.19635 0.45909 0.18319 0.0
H346 H 0.41308 0.52793 0.12279 0.0
H347 H 0.35489 0.52535 0.17545 0.0
H348 H 0.31352 0.41218 0.05526 0.0
H349 H 0.255 0.40897 0.10864 0.0
H350 H 0.35862 0.42474 0.29871 0.0
H351 H 0.30362 0.41927 0.2384 0.0
H352 H 0.36973 0.53413 0.36054 0.0
H353 H 0.31478 0.52827 0.30089 0.0
H354 H 0.05346 0.40294 0.3019 0.0
H355 H 0.10727 0.40674 0.2397 0.0
H356 H 0.16138 0.5084 0.3778 0.0
H357 H 0.21465 0.51258 0.31558 0.0
H358 H 0.11393 0.51628 0.1387 0.0
H359 H 0.17053 0.51467 0.18871 0.0
H360 H 0.08987 0.40935 0.05735 0.0
H361 H 0.14608 0.40692 0.10828 0.0
N362 N 0.2292 0.45938 0.15648 0.0
N363 N 0.23505 0.46674 0.2606 0.0
C364 C 0.89378 0.3442 0.82295 0.0
C365 C 0.87909 0.35906 0.86152 0.0
C366 C 0.86329 0.31244 0.79149 0.0
C367 C 0.8175 0.29523 0.79744 0.0
C368 C 0.83328 0.34201 0.86692 0.0
C369 C 0.80292 0.31034 0.83557 0.0
C370 C 0.78418 0.25968 0.7668 0.0
C371 C 0.86587 0.37156 0.64844 0.0
C372 C 0.88871 0.36479 0.61054 0.0
C373 C 0.83371 0.3373 0.68221 0.0
C374 C 0.82451 0.296 0.67883 0.0
C375 C 0.87943 0.32367 0.60671 0.0
C376 C 0.84734 0.28941 0.6405 0.0
C377 C 0.78894 0.25901 0.71237 0.0
C378 C 0.61294 0.10742 0.65576 0.0
C379 C 0.62782 0.09242 0.61778 0.0
C380 C 0.643 0.13768 0.68888 0.0
C381 C 0.68847 0.15326 0.6848 0.0
C382 C 0.67293 0.10706 0.61454 0.0
C383 C 0.70305 0.13752 0.64737 0.0
C384 C 0.72162 0.18903 0.71515 0.0
C385 C 0.64833 0.08395 0.84922 0.0
C386 C 0.61816 0.08905 0.87661 0.0
C387 C 0.67879 0.11591 0.8118 0.0
C388 C 0.68018 0.15378 0.80242 0.0
C389 C 0.61876 0.12644 0.86591 0.0
C390 C 0.64996 0.15883 0.82957 0.0
C391 C 0.71644 0.19012 0.76926 0.0
H392 H 0.92867 0.35615 0.81808 0.0
H393 H 0.87546 0.30062 0.76341 0.0
H394 H 0.82075 0.35316 0.89549 0.0
H395 H 0.76785 0.29762 0.84112 0.0
H396 H 0.87262 0.40321 0.65145 0.0
H397 H 0.81554 0.34295 0.71028 0.0
H398 H 0.89686 0.31813 0.57742 0.0
H399 H 0.84034 0.25774 0.63677 0.0
H400 H 0.57825 0.09659 0.65877 0.0
H401 H 0.63092 0.15011 0.71616 0.0
H402 H 0.685 0.09564 0.58574 0.0
H403 H 0.73793 0.14925 0.64309 0.0
H404 H 0.64915 0.05584 0.85783 0.0
H405 H 0.70255 0.11195 0.79189 0.0
H406 H 0.59594 0.13107 0.88691 0.0
H407 H 0.65101 0.18812 0.8232 0.0
N408 N 0.74782 0.22522 0.79296 0.0
N409 N 0.75776 0.22362 0.68886 0.0
C410 C 0.57692 0.65817 0.19072 0.0
C411 C 0.54478 0.64127 0.15274 0.0
C412 C 0.57903 0.68722 0.22396 0.0
C413 C 0.54844 0.69909 0.22031 0.0
C414 C 0.51386 0.65266 0.14992 0.0
C415 C 0.51574 0.68126 0.18322 0.0
C416 C 0.55211 0.73282 0.25088 0.0
C417 C 0.52343 0.62678 0.36975 0.0
C418 C 0.55634 0.63863 0.40609 0.0
C419 C 0.52426 0.65806 0.33643 0.0
C420 C 0.55844 0.7016 0.33853 0.0
C421 C 0.59029 0.68198 0.40872 0.0
C422 C 0.59119 0.71333 0.37529 0.0
C423 C 0.55846 0.73511 0.30507 0.0
C424 C 0.51711 0.86364 0.35377 0.0
C425 C 0.54923 0.88701 0.38979 0.0
C426 C 0.51954 0.83464 0.32536 0.0
C427 C 0.55469 0.82911 0.33174 0.0
C428 C 0.58382 0.88098 0.39734 0.0
C429 C 0.58645 0.85207 0.36855 0.0
C430 C 0.55697 0.79794 0.30192 0.0
C431 C 0.57397 0.89889 0.17981 0.0
C432 C 0.53759 0.88325 0.1474 0.0
C433 C 0.5783 0.87065 0.21316 0.0
C434 C 0.54639 0.82632 0.21453 0.0
C435 C 0.50573 0.83876 0.14923 0.0
C436 C 0.51037 0.81063 0.18203 0.0
C437 C 0.551 0.79565 0.24777 0.0
H438 H 0.60126 0.65002 0.19354 0.0
H439 H 0.60529 0.7013 0.25131 0.0
H440 H 0.48819 0.63951 0.12174 0.0
H441 H 0.49177 0.68986 0.17957 0.0
H442 H 0.49673 0.59338 0.36778 0.0
H443 H 0.49775 0.64825 0.30971 0.0
H444 H 0.61573 0.6915 0.43691 0.0
H445 H 0.61746 0.74674 0.37808 0.0
H446 H 0.48979 0.86746 0.34815 0.0
H447 H 0.49354 0.81611 0.29888 0.0
H448 H 0.6086 0.89851 0.42549 0.0
H449 H 0.61341 0.84782 0.37477 0.0
H450 H 0.59949 0.93287 0.17888 0.0
H451 H 0.60684 0.88332 0.23724 0.0
H452 H 0.47679 0.82554 0.12579 0.0
H453 H 0.48541 0.77649 0.18253 0.0
N454 N 0.5486 0.76319 0.22463 0.0
N455 N 0.56088 0.76775 0.32846 0.0
C456 C 0.91529 0.56241 0.69261 0.0
C457 C 0.89891 0.53219 0.6549 0.0
C458 C 0.88615 0.56124 0.73006 0.0
C459 C 0.8402 0.5295 0.73082 0.0
C460 C 0.85315 0.4998 0.65708 0.0
C461 C 0.82427 0.49864 0.69425 0.0
C462 C 0.80739 0.53074 0.76433 0.0
C463 C 0.88645 0.50672 0.8792 0.0
C464 C 0.90606 0.53614 0.91732 0.0
C465 C 0.8561 0.50724 0.84616 0.0
C466 C 0.84552 0.53774 0.85018 0.0
C467 C 0.89544 0.56639 0.92178 0.0
C468 C 0.86522 0.56704 0.88863 0.0
C469 C 0.81089 0.53671 0.81831 0.0
C470 C 0.63117 0.50125 0.87939 0.0
C471 C 0.64389 0.53357 0.91313 0.0
C472 C 0.66332 0.50129 0.84897 0.0
C473 C 0.70874 0.53402 0.85131 0.0
C474 C 0.68915 0.56579 0.91643 0.0
C475 C 0.72136 0.56588 0.88596 0.0
C476 C 0.74325 0.53436 0.81931 0.0
C477 C 0.66148 0.55226 0.69961 0.0
C478 C 0.64243 0.52081 0.66356 0.0
C479 C 0.6922 0.55414 0.73424 0.0
C480 C 0.7038 0.52418 0.73386 0.0
C481 C 0.65335 0.49034 0.66424 0.0
C482 C 0.68383 0.49215 0.69882 0.0
C483 C 0.73979 0.52814 0.76556 0.0
H484 H 0.95033 0.58782 0.69206 0.0
H485 H 0.89931 0.58605 0.757 0.0
H486 H 0.83943 0.47527 0.62971 0.0
H487 H 0.78905 0.47382 0.69385 0.0
H488 H 0.89434 0.48311 0.87539 0.0
H489 H 0.84022 0.48316 0.81837 0.0
H490 H 0.91052 0.58944 0.95089 0.0
H491 H 0.85715 0.59045 0.89307 0.0
H492 H 0.59636 0.4759 0.87677 0.0
H493 H 0.65267 0.47553 0.82393 0.0
H494 H 0.69949 0.59084 0.94253 0.0
H495 H 0.75613 0.59114 0.88899 0.0
H496 H 0.65394 0.57636 0.69969 0.0
H497 H 0.70797 0.57984 0.75997 0.0
H498 H 0.63862 0.46525 0.63761 0.0
H499 H 0.69231 0.46875 0.69771 0.0
N500 N 0.77186 0.52653 0.74057 0.0
N501 N 0.77882 0.53861 0.84342 0.0
C502 C 0.12971 0.64402 0.20252 0.0
C503 C 0.11598 0.65272 0.15505 0.0
C504 C 0.1563 0.67698 0.23472 0.0
C505 C 0.16821 0.71907 0.22123 0.0
C506 C 0.12853 0.69481 0.14101 0.0
C507 C 0.15415 0.72753 0.17381 0.0
C508 C 0.19987 0.75545 0.25218 0.0
C509 C 0.08785 0.65668 0.36141 0.0
C510 C 0.10159 0.63981 0.40194 0.0
C511 C 0.11893 0.69455 0.33127 0.0
C512 C 0.16406 0.71748 0.34272 0.0
C513 C 0.1437 0.6695 0.42098 0.0
C514 C 0.17521 0.70667 0.3906 0.0
C515 C 0.19957 0.75382 0.30758 0.0
C516 C 0.34855 0.92315 0.36863 0.0
C517 C 0.37606 0.91252 0.39371 0.0
C518 C 0.31482 0.8943 0.3373 0.0
C519 C 0.30743 0.85402 0.33179 0.0
C520 C 0.36895 0.87243 0.38731 0.0
C521 C 0.33453 0.84322 0.35726 0.0
C522 C 0.26971 0.82171 0.30271 0.0
C523 C 0.38116 0.90079 0.17837 0.0
C524 C 0.36998 0.91884 0.13704 0.0
C525 C 0.3487 0.87159 0.21626 0.0
C526 C 0.3047 0.86038 0.21352 0.0
C527 C 0.32649 0.90878 0.13513 0.0
C528 C 0.29399 0.87947 0.17286 0.0
C529 C 0.26855 0.82465 0.24797 0.0
H530 H 0.12104 0.61195 0.21391 0.0
H531 H 0.16835 0.66961 0.2695 0.0
H532 H 0.11835 0.70239 0.10469 0.0
H533 H 0.16352 0.75973 0.16173 0.0
H534 H 0.05343 0.64141 0.3524 0.0
H535 H 0.10774 0.70527 0.29859 0.0
H536 H 0.15335 0.66466 0.45893 0.0
H537 H 0.20862 0.72629 0.40421 0.0
H538 H 0.35297 0.95361 0.37365 0.0
H539 H 0.29381 0.90293 0.31852 0.0
H540 H 0.38966 0.8635 0.4063 0.0
H541 H 0.32907 0.81213 0.35375 0.0
H542 H 0.41462 0.90815 0.18021 0.0
H543 H 0.35756 0.85627 0.24604 0.0
H544 H 0.31742 0.92257 0.10351 0.0
H545 H 0.26015 0.87085 0.16961 0.0
N546 N 0.23389 0.79135 0.22501 0.0
N547 N 0.23504 0.78677 0.33024 0.0
C548 C 0.42842 0.10498 0.83007 0.0
C549 C 0.46464 0.11923 0.86255 0.0
C550 C 0.427 0.13389 0.79443 0.0
C551 C 0.4615 0.17755 0.79107 0.0
C552 C 0.4994 0.16303 0.85812 0.0
C553 C 0.49748 0.19189 0.82334 0.0
C554 C 0.45942 0.20914 0.75645 0.0
C555 C 0.49113 0.13696 0.65524 0.0
C556 C 0.46273 0.11785 0.61439 0.0
C557 C 0.48883 0.16608 0.68347 0.0
C558 C 0.45687 0.17543 0.67275 0.0
C559 C 0.43191 0.12821 0.60202 0.0
C560 C 0.4289 0.15672 0.63116 0.0
C561 C 0.45479 0.20699 0.70205 0.0
C562 C 0.48941 0.37812 0.63027 0.0
C563 C 0.45666 0.36566 0.59355 0.0
C564 C 0.48858 0.34731 0.66455 0.0
C565 C 0.45456 0.30366 0.663 0.0
C566 C 0.42289 0.3222 0.59151 0.0
C567 C 0.42199 0.29134 0.62587 0.0
C568 C 0.45447 0.2705 0.69728 0.0
C569 C 0.4364 0.34868 0.81042 0.0
C570 C 0.4686 0.36558 0.84834 0.0
C571 C 0.43406 0.31941 0.77739 0.0
C572 C 0.46444 0.30731 0.78129 0.0
C573 C 0.49942 0.35408 0.85122 0.0
C574 C 0.49728 0.32523 0.81819 0.0
C575 C 0.4602 0.27301 0.75153 0.0
H576 H 0.40075 0.07168 0.83275 0.0
H577 H 0.39857 0.12238 0.77034 0.0
H578 H 0.52843 0.17517 0.88122 0.0
H579 H 0.52445 0.22552 0.82121 0.0
H580 H 0.51576 0.12996 0.66459 0.0
H581 H 0.51274 0.18181 0.71301 0.0
H582 H 0.40996 0.11393 0.57029 0.0
H583 H 0.40464 0.16407 0.62131 0.0
H584 H 0.51592 0.41163 0.63187 0.0
H585 H 0.51494 0.35754 0.69157 0.0
H586 H 0.39753 0.31223 0.56313 0.0
H587 H 0.39583 0.25783 0.62353 0.0
H588 H 0.41216 0.35696 0.80754 0.0
H589 H 0.40774 0.30527 0.75012 0.0
H590 H 0.52515 0.36727 0.87933 0.0
H591 H 0.52107 0.31641 0.82198 0.0
N592 N 0.46233 0.24215 0.77875 0.0
N593 N 0.45192 0.23753 0.6747 0.0
loop_
_geom_bond_atom_site_label_1
_geom_bond_atom_site_label_2
_geom_bond_distance
_geom_bond_site_symmetry_2
_ccdc_geom_bond_type
C0 C1 1.444 1_556 S
C0 N4 1.376 1_556 S
C0 C38 1.389 . S
C1 C0 1.444 1_554 S
C1 C2 1.339 . S
C1 H41 0.952 1_554 S
C2 C1 1.339 . S
C2 C3 1.439 . S
C2 H42 0.950 . S
C3 C2 1.439 . S
C3 N4 1.374 . S
C3 C37 1.395 . S
N4 C0 1.376 1_554 S
N4 C3 1.374 . S
N4 Co5 2.010 1_655 S
Co5 N4 2.010 1_455 S
Co5 N6 2.002 1_455 S
Co5 N11 2.007 1_554 S
Co5 N16 1.987 1_554 S
Co5 N21 2.288 . S
Co5 N27 2.277 1_454 S
N6 Co5 2.002 1_655 S
N6 C7 1.376 . S
N6 C10 1.383 1_655 S
C7 N6 1.376 . S
C7 C8 1.446 . S
C7 C37 1.391 . S
C8 C7 1.446 . S
C8 C9 1.339 1_655 S
C8 H43 0.949 . S
C9 C8 1.339 1_455 S
C9 C10 1.439 . S
C9 H44 0.950 . S
C10 N6 1.383 1_455 S
C10 C9 1.439 . S
C10 C39 1.392 . S
N11 Co5 2.007 1_556 S
N11 C12 1.376 1_556 S
N11 C15 1.374 . S
C12 N11 1.376 1_554 S
C12 C13 1.450 . S
C12 C39 1.389 . S
C13 C12 1.450 . S
C13 C14 1.324 1_554 S
C13 H45 0.960 . S
C14 C13 1.324 1_556 S
C14 C15 1.439 . S
C14 H46 0.950 . S
C15 N11 1.374 . S
C15 C14 1.439 . S
C15 C40 1.395 . S
N16 Co5 1.987 1_556 S
N16 C17 1.376 . S
N16 C20 1.383 1_455 S
C17 N16 1.376 . S
C17 C18 1.446 . S
C17 C40 1.391 . S
C18 C17 1.446 . S
C18 C19 1.339 1_455 S
C18 H47 0.949 . S
C19 C18 1.339 1_655 S
C19 C20 1.439 . S
C19 H48 0.950 . S
C20 N16 1.383 1_655 S
C20 C19 1.439 . S
C20 C38 1.392 . S
N21 Co5 2.288 . S
N21 C24 1.332 . S
N21 C26 1.332 . S
C22 C23 1.386 . S
C22 C25 1.388 . S
C23 C22 1.386 . S
C23 C24 1.382 . S
C23 H49 0.950 . S
C24 N21 1.332 . S
C24 C23 1.382 . S
C24 H35 0.952 1_554 S
C25 C22 1.388 . S
C25 C26 1.382 . S
C25 H50 0.950 . S
C26 N21 1.332 . S
C26 C25 1.382 . S
C26 H36 0.948 . S
N27 Co5 2.277 1_656 S
N27 C31 1.332 . S
N27 C32 1.332 . S
C28 C29 1.388 . S
C28 C32 1.382 . S
C28 H51 0.950 . S
C29 C28 1.388 . S
C29 C30 1.386 . S
C30 C29 1.386 . S
C30 C31 1.382 . S
C30 H52 0.950 . S
C31 N27 1.332 . S
C31 C30 1.382 . S
C31 H33 0.952 1_556 S
C32 N27 1.332 . S
C32 C28 1.382 . S
C32 H34 0.948 . S
H33 C31 0.952 1_554 S
H34 C32 0.948 . S
H35 C24 0.952 1_556 S
H36 C26 0.948 . S
C37 C3 1.395 . S
C37 C7 1.391 . S
C38 C0 1.389 . S
C38 C20 1.392 . S
C39 C10 1.392 . S
C39 C12 1.389 . S
C40 C15 1.395 . S
C40 C17 1.391 . S
H41 C1 0.952 1_556 S
H42 C2 0.950 . S
H43 C8 0.949 . S
H44 C9 0.950 . S
H45 C13 0.960 . S
H46 C14 0.950 . S
H47 C18 0.949 . S
H48 C19 0.950 . S
H49 C23 0.950 . S
H50 C25 0.950 . S
H51 C28 0.950 . S
H52 C30 0.950 . S
C53 C54 1.443 . S
C53 N57 1.376 1_545 S
C53 C91 1.389 . S
C54 C53 1.443 . S
C54 C55 1.340 1_545 S
C54 H94 0.951 . S
C55 C54 1.340 1_565 S
C55 C56 1.439 . S
C55 H95 0.950 . S
C56 C55 1.439 . S
C56 N57 1.374 . S
C56 C90 1.395 . S
N57 C53 1.376 1_565 S
N57 C56 1.374 . S
N57 Co58 2.008 1_565 S
Co58 N57 2.008 1_545 S
Co58 N59 1.995 1_545 S
Co58 N64 2.008 . S
Co58 N69 1.995 . S
Co58 N74 2.282 1_545 S
Co58 N80 2.282 . S
N59 Co58 1.995 1_565 S
N59 C60 1.376 . S
N59 C63 1.383 . S
C60 N59 1.376 . S
C60 C61 1.446 . S
C60 C90 1.391 . S
C61 C60 1.446 . S
C61 C62 1.339 . S
C61 H96 0.949 . S
C62 C61 1.339 . S
C62 C63 1.439 . S
C62 H97 0.950 . S
C63 N59 1.383 . S
C63 C62 1.439 . S
C63 C92 1.392 . S
N64 Co58 2.008 . S
N64 C65 1.376 1_545 S
N64 C68 1.374 . S
C65 N64 1.376 1_565 S
C65 C66 1.443 . S
C65 C92 1.389 . S
C66 C65 1.443 . S
C66 C67 1.340 1_565 S
C66 H98 0.951 . S
C67 C66 1.340 1_545 S
C67 C68 1.439 . S
C67 H99 0.950 . S
C68 N64 1.374 . S
C68 C67 1.439 . S
C68 C93 1.395 . S
N69 Co58 1.995 . S
N69 C70 1.376 . S
N69 C73 1.383 . S
C70 N69 1.376 . S
C70 C71 1.446 . S
C70 C93 1.391 . S
C71 C70 1.446 . S
C71 C72 1.339 . S
C71 H100 0.949 . S
C72 C71 1.339 . S
C72 C73 1.439 . S
C72 H101 0.950 . S
C73 N69 1.383 . S
C73 C72 1.439 . S
C73 C91 1.392 . S
N74 Co58 2.282 1_565 S
N74 C77 1.332 . S
N74 C79 1.332 . S
C75 C76 1.386 . S
C75 C78 1.388 . S
C76 C75 1.386 . S
C76 C77 1.382 . S
C76 H102 0.950 . S
C77 N74 1.332 . S
C77 C76 1.382 . S
C77 H88 0.952 1_565 S
C78 C75 1.388 . S
C78 C79 1.382 . S
C78 H103 0.950 . S
C79 N74 1.332 . S
C79 C78 1.382 . S
C79 H89 0.948 . S
N80 Co58 2.282 . S
N80 C84 1.332 . S
N80 C85 1.332 . S
C81 C82 1.388 . S
C81 C85 1.382 . S
C81 H104 0.950 . S
C82 C81 1.388 . S
C82 C83 1.386 . S
C83 C82 1.386 . S
C83 C84 1.382 . S
C83 H105 0.950 . S
C84 N80 1.332 . S
C84 C83 1.382 . S
C84 H86 0.952 1_545 S
C85 N80 1.332 . S
C85 C81 1.382 . S
C85 H87 0.948 . S
H86 C84 0.952 1_565 S
H87 C85 0.948 . S
H88 C77 0.952 1_545 S
H89 C79 0.948 . S
C90 C56 1.395 . S
C90 C60 1.391 . S
C91 C53 1.389 . S
C91 C73 1.392 . S
C92 C63 1.392 . S
C92 C65 1.389 . S
C93 C68 1.395 . S
C93 C70 1.391 . S
H94 C54 0.951 . S
H95 C55 0.950 . S
H96 C61 0.949 . S
H97 C62 0.950 . S
H98 C66 0.951 . S
H99 C67 0.950 . S
H100 C71 0.949 . S
H101 C72 0.950 . S
H102 C76 0.950 . S
H103 C78 0.950 . S
H104 C81 0.950 . S
H105 C83 0.950 . S
C106 C107 1.443 . S
C106 N110 1.376 . S
C106 C144 1.389 . S
C107 C106 1.443 . S
C107 C108 1.340 . S
C107 H147 0.951 . S
C108 C107 1.340 . S
C108 C109 1.439 . S
C108 H148 0.950 . S
C109 C108 1.439 . S
C109 N110 1.374 . S
C109 C143 1.395 . S
N110 C106 1.376 . S
N110 C109 1.374 . S
N110 Co111 2.000 1_556 S
Co111 N110 2.000 1_554 S
Co111 N112 1.993 1_554 S
Co111 N117 2.016 . S
Co111 N122 1.997 . S
Co111 N127 2.288 . S
Co111 N133 2.277 1_554 S
N112 Co111 1.993 1_556 S
N112 C113 1.376 . S
N112 C116 1.383 1_556 S
C113 N112 1.376 . S
C113 C114 1.446 . S
C113 C143 1.391 . S
C114 C113 1.446 . S
C114 C115 1.339 . S
C114 H149 0.949 . S
C115 C114 1.339 . S
C115 C116 1.439 1_556 S
C115 H150 0.950 1_556 S
C116 N112 1.383 1_554 S
C116 C115 1.439 1_554 S
C116 C145 1.392 . S
N117 Co111 2.016 . S
N117 C118 1.376 . S
N117 C121 1.374 . S
C118 N117 1.376 . S
C118 C119 1.443 . S
C118 C145 1.389 . S
C119 C118 1.443 . S
C119 C120 1.340 . S
C119 H151 0.951 . S
C120 C119 1.340 . S
C120 C121 1.439 . S
C120 H152 0.950 . S
C121 N117 1.374 . S
C121 C120 1.439 . S
C121 C146 1.395 . S
N122 Co111 1.997 . S
N122 C123 1.376 . S
N122 C126 1.383 1_554 S
C123 N122 1.376 . S
C123 C124 1.446 . S
C123 C146 1.391 . S
C124 C123 1.446 . S
C124 C125 1.339 . S
C124 H153 0.949 . S
C125 C124 1.339 . S
C125 C126 1.439 1_554 S
C125 H154 0.950 1_554 S
C126 N122 1.383 1_556 S
C126 C125 1.439 1_556 S
C126 C144 1.392 . S
N127 Co111 2.288 . S
N127 C130 1.332 . S
N127 C132 1.332 . S
C128 C129 1.386 . S
C128 C131 1.388 . S
C129 C128 1.386 . S
C129 C130 1.382 . S
C129 H155 0.950 . S
C130 N127 1.332 . S
C130 C129 1.382 . S
C130 H141 0.952 . S
C131 C128 1.388 . S
C131 C132 1.382 . S
C131 H156 0.950 . S
C132 N127 1.332 . S
C132 C131 1.382 . S
C132 H142 0.948 . S
N133 Co111 2.277 1_556 S
N133 C137 1.332 . S
N133 C138 1.332 . S
C134 C135 1.388 . S
C134 C138 1.382 . S
C134 H157 0.950 . S
C135 C134 1.388 . S
C135 C136 1.386 . S
C136 C135 1.386 . S
C136 C137 1.382 . S
C136 H158 0.950 . S
C137 N133 1.332 . S
C137 C136 1.382 . S
C137 H139 0.952 . S
C138 N133 1.332 . S
C138 C134 1.382 . S
C138 H140 0.963 . S
H139 C137 0.952 . S
H140 C138 0.963 . S
H141 C130 0.952 . S
H142 C132 0.948 . S
C143 C109 1.395 . S
C143 C113 1.391 . S
C144 C106 1.389 . S
C144 C126 1.392 . S
C145 C116 1.392 . S
C145 C118 1.389 . S
C146 C121 1.395 . S
C146 C123 1.391 . S
H147 C107 0.951 . S
H148 C108 0.950 . S
H149 C114 0.949 . S
H150 C115 0.950 1_554 S
H151 C119 0.951 . S
H152 C120 0.950 . S
H153 C124 0.949 . S
H154 C125 0.950 1_556 S
H155 C129 0.950 . S
H156 C131 0.950 . S
H157 C134 0.950 . S
H158 C136 0.950 . S
C159 C160 1.443 . S
C159 N163 1.376 . S
C159 C197 1.389 . S
C160 C159 1.443 . S
C160 C161 1.340 . S
C160 H200 0.951 . S
C161 C160 1.340 . S
C161 C162 1.439 . S
C161 H201 0.950 . S
C162 C161 1.439 . S
C162 N163 1.374 . S
C162 C196 1.395 . S
N163 C159 1.376 . S
N163 C162 1.374 . S
N163 Co164 2.008 1_655 S
Co164 N163 2.008 1_455 S
Co164 N165 1.995 1_455 S
Co164 N170 2.008 . S
Co164 N175 1.995 . S
Co164 N180 2.282 . S
Co164 N186 2.282 1_455 S
N165 Co164 1.995 1_655 S
N165 C166 1.376 . S
N165 C169 1.383 1_655 S
C166 N165 1.376 . S
C166 C167 1.446 . S
C166 C196 1.391 . S
C167 C166 1.446 . S
C167 C168 1.339 1_655 S
C167 H202 0.949 . S
C168 C167 1.339 1_455 S
C168 C169 1.439 . S
C168 H203 0.950 . S
C169 N165 1.383 1_455 S
C169 C168 1.439 . S
C169 C198 1.392 . S
N170 Co164 2.008 . S
N170 C171 1.376 . S
N170 C174 1.374 . S
C171 N170 1.376 . S
C171 C172 1.443 . S
C171 C198 1.389 . S
C172 C171 1.443 . S
C172 C173 1.340 . S
C172 H204 0.951 . S
C173 C172 1.340 . S
C173 C174 1.439 . S
C173 H205 0.950 . S
C174 N170 1.374 . S
C174 C173 1.439 . S
C174 C199 1.395 . S
N175 Co164 1.995 . S
N175 C176 1.376 . S
N175 C179 1.383 1_455 S
C176 N175 1.376 . S
C176 C177 1.446 . S
C176 C199 1.391 . S
C177 C176 1.446 . S
C177 C178 1.339 1_455 S
C177 H206 0.949 . S
C178 C177 1.339 1_655 S
C178 C179 1.439 . S
C178 H207 0.950 . S
C179 N175 1.383 1_655 S
C179 C178 1.439 . S
C179 C197 1.392 . S
N180 Co164 2.282 . S
N180 C183 1.332 . S
N180 C185 1.332 . S
C181 C182 1.386 . S
C181 C184 1.388 . S
C182 C181 1.386 . S
C182 C183 1.382 . S
C182 H208 0.950 . S
C183 N180 1.332 . S
C183 C182 1.382 . S
C183 H194 0.952 . S
C184 C181 1.388 . S
C184 C185 1.382 . S
C184 H209 0.950 . S
C185 N180 1.332 . S
C185 C184 1.382 . S
C185 H195 0.948 . S
N186 Co164 2.282 1_655 S
N186 C190 1.332 . S
N186 C191 1.332 . S
C187 C188 1.388 . S
C187 C191 1.382 . S
C187 H210 0.950 . S
C188 C187 1.388 . S
C188 C189 1.386 . S
C189 C188 1.386 . S
C189 C190 1.382 . S
C189 H211 0.950 . S
C190 N186 1.332 . S
C190 C189 1.382 . S
C190 H192 0.952 . S
C191 N186 1.332 . S
C191 C187 1.382 . S
C191 H193 0.948 . S
H192 C190 0.952 . S
H193 C191 0.948 . S
H194 C183 0.952 . S
H195 C185 0.948 . S
C196 C162 1.395 . S
C196 C166 1.391 . S
C197 C159 1.389 . S
C197 C179 1.392 . S
C198 C169 1.392 . S
C198 C171 1.389 . S
C199 C174 1.395 . S
C199 C176 1.391 . S
H200 C160 0.951 . S
H201 C161 0.950 . S
H202 C167 0.949 . S
H203 C168 0.950 . S
H204 C172 0.951 . S
H205 C173 0.950 . S
H206 C177 0.949 . S
H207 C178 0.950 . S
H208 C182 0.950 . S
H209 C184 0.950 . S
H210 C187 0.950 . S
H211 C189 0.950 . S
C212 C213 1.443 . S
C212 N216 1.376 1_565 S
C212 C250 1.389 . S
C213 C212 1.443 . S
C213 C214 1.340 1_565 S
C213 H253 0.951 . S
C214 C213 1.340 1_545 S
C214 C215 1.439 . S
C214 H254 0.950 . S
C215 C214 1.439 . S
C215 N216 1.374 . S
C215 C249 1.395 . S
N216 C212 1.376 1_545 S
N216 C215 1.374 . S
N216 Co217 2.017 . S
Co217 N216 2.017 . S
Co217 N218 1.996 . S
Co217 N223 1.999 1_544 S
Co217 N228 1.993 1_544 S
Co217 N233 2.278 1_554 S
Co217 N239 2.287 1_545 S
N218 Co217 1.996 . S
N218 C219 1.376 . S
N218 C222 1.383 1_554 S
C219 N218 1.376 . S
C219 C220 1.446 . S
C219 C249 1.391 . S
C220 C219 1.446 . S
C220 C221 1.339 1_554 S
C220 H255 0.949 . S
C221 C220 1.339 1_556 S
C221 C222 1.439 . S
C221 H256 0.950 . S
C222 N218 1.383 1_556 S
C222 C221 1.439 . S
C222 C251 1.392 . S
N223 Co217 1.999 1_566 S
N223 C224 1.376 1_565 S
N223 C227 1.374 . S
C224 N223 1.376 1_545 S
C224 C225 1.443 . S
C224 C251 1.389 . S
C225 C224 1.443 . S
C225 C226 1.340 1_545 S
C225 H257 0.951 . S
C226 C225 1.340 1_565 S
C226 C227 1.439 . S
C226 H258 0.950 . S
C227 N223 1.374 . S
C227 C226 1.439 . S
C227 C252 1.395 . S
N228 Co217 1.993 1_566 S
N228 C229 1.376 . S
N228 C232 1.383 1_556 S
C229 N228 1.376 . S
C229 C230 1.446 . S
C229 C252 1.391 . S
C230 C229 1.446 . S
C230 C231 1.339 1_556 S
C230 H259 0.949 . S
C231 C230 1.339 1_554 S
C231 C232 1.439 . S
C231 H260 0.950 . S
C232 N228 1.383 1_554 S
C232 C231 1.439 . S
C232 C250 1.392 . S
N233 Co217 2.278 1_556 S
N233 C236 1.332 . S
N233 C238 1.332 . S
C234 C235 1.386 . S
C234 C237 1.388 . S
C235 C234 1.386 . S
C235 C236 1.382 . S
C235 H261 0.950 . S
C236 N233 1.332 . S
C236 C235 1.382 . S
C236 H247 0.952 1_545 S
C237 C234 1.388 . S
C237 C238 1.382 . S
C237 H262 0.950 . S
C238 N233 1.332 . S
C238 C237 1.382 . S
C238 H248 0.948 . S
N239 Co217 2.287 1_565 S
N239 C243 1.332 . S
N239 C244 1.332 . S
C240 C241 1.388 . S
C240 C244 1.382 . S
C240 H263 0.950 . S
C241 C240 1.388 . S
C241 C242 1.386 . S
C242 C241 1.386 . S
C242 C243 1.382 . S
C242 H264 0.950 . S
C243 N239 1.332 . S
C243 C242 1.382 . S
C243 H245 0.952 1_565 S
C244 N239 1.332 . S
C244 C240 1.382 . S
C244 H246 0.948 . S
H245 C243 0.952 1_545 S
H246 C244 0.948 . S
H247 C236 0.952 1_565 S
H248 C238 0.948 . S
C249 C215 1.395 . S
C249 C219 1.391 . S
C250 C212 1.389 . S
C250 C232 1.392 . S
C251 C222 1.392 . S
C251 C224 1.389 . S
C252 C227 1.395 . S
C252 C229 1.391 . S
H253 C213 0.951 . S
H254 C214 0.950 . S
H255 C220 0.949 . S
H256 C221 0.950 . S
H257 C225 0.951 . S
H258 C226 0.950 . S
H259 C230 0.949 . S
H260 C231 0.950 . S
H261 C235 0.950 . S
H262 C237 0.950 . S
H263 C240 0.950 . S
H264 C242 0.950 . S
C265 C266 1.443 . S
C265 N269 1.376 . S
C265 C303 1.389 . S
C266 C265 1.443 . S
C266 C267 1.340 . S
C266 H306 0.951 . S
C267 C266 1.340 . S
C267 C268 1.439 . S
C267 H307 0.950 . S
C268 C267 1.439 . S
C268 N269 1.374 . S
C268 C302 1.395 . S
N269 C265 1.376 . S
N269 C268 1.374 . S
N269 Co270 2.008 . S
Co270 N269 2.008 . S
Co270 N271 1.995 . S
Co270 N276 2.008 . S
Co270 N281 1.995 . S
Co270 N286 2.282 . S
Co270 N292 2.282 . S
N271 Co270 1.995 . S
N271 C272 1.376 . S
N271 C275 1.383 . S
C272 N271 1.376 . S
C272 C273 1.446 . S
C272 C302 1.391 . S
C273 C272 1.446 . S
C273 C274 1.339 . S
C273 H308 0.949 . S
C274 C273 1.339 . S
C274 C275 1.439 . S
C274 H309 0.950 . S
C275 N271 1.383 . S
C275 C274 1.439 . S
C275 C304 1.392 . S
N276 Co270 2.008 . S
N276 C277 1.376 . S
N276 C280 1.374 . S
C277 N276 1.376 . S
C277 C278 1.443 . S
C277 C304 1.389 . S
C278 C277 1.443 . S
C278 C279 1.340 . S
C278 H310 0.951 . S
C279 C278 1.340 . S
C279 C280 1.439 . S
C279 H311 0.950 . S
C280 N276 1.374 . S
C280 C279 1.439 . S
C280 C305 1.395 . S
N281 Co270 1.995 . S
N281 C282 1.376 . S
N281 C285 1.383 . S
C282 N281 1.376 . S
C282 C283 1.446 . S
C282 C305 1.391 . S
C283 C282 1.446 . S
C283 C284 1.339 . S
C283 H312 0.949 . S
C284 C283 1.339 . S
C284 C285 1.439 . S
C284 H313 0.950 . S
C285 N281 1.383 . S
C285 C284 1.439 . S
C285 C303 1.392 . S
N286 Co270 2.282 . S
N286 C289 1.332 . S
N286 C291 1.332 . S
C287 C288 1.386 . S
C287 C290 1.388 . S
C288 C287 1.386 . S
C288 C289 1.382 . S
C288 H314 0.950 . S
C289 N286 1.332 . S
C289 C288 1.382 . S
C289 H300 0.952 . S
C290 C287 1.388 . S
C290 C291 1.382 . S
C290 H315 0.950 . S
C291 N286 1.332 . S
C291 C290 1.382 . S
C291 H301 0.948 . S
N292 Co270 2.282 . S
N292 C296 1.332 . S
N292 C297 1.332 . S
C293 C294 1.388 . S
C293 C297 1.382 . S
C293 H316 0.950 . S
C294 C293 1.388 . S
C294 C295 1.386 . S
C295 C294 1.386 . S
C295 C296 1.382 . S
C295 H317 0.950 . S
C296 N292 1.332 . S
C296 C295 1.382 . S
C296 H298 0.952 . S
C297 N292 1.332 . S
C297 C293 1.382 . S
C297 H299 0.948 . S
H298 C296 0.952 . S
H299 C297 0.948 . S
H300 C289 0.952 . S
H301 C291 0.948 . S
C302 C268 1.395 . S
C302 C272 1.391 . S
C303 C265 1.389 . S
C303 C285 1.392 . S
C304 C275 1.392 . S
C304 C277 1.389 . S
C305 C280 1.395 . S
C305 C282 1.391 . S
H306 C266 0.951 . S
H307 C267 0.950 . S
H308 C273 0.949 . S
H309 C274 0.950 . S
H310 C278 0.951 . S
H311 C279 0.950 . S
H312 C283 0.949 . S
H313 C284 0.950 . S
H314 C288 0.950 . S
H315 C290 0.950 . S
H316 C293 0.950 . S
H317 C295 0.950 . S
C318 C319 1.384 . S
C318 C320 1.384 . S
C318 H346 0.931 . S
C319 C318 1.384 . S
C319 C322 1.382 . S
C320 C318 1.384 . S
C320 C321 1.381 . S
C320 H347 0.930 . S
C321 C320 1.381 . S
C321 C323 1.381 . S
C321 C324 1.487 . S
C322 C319 1.382 . S
C322 C323 1.387 . S
C322 H348 0.930 . S
C323 C321 1.381 . S
C323 C322 1.387 . S
C323 H349 0.931 . S
C324 C321 1.487 . S
C324 C331 1.399 . S
C324 N362 1.343 . S
C325 C326 1.384 . S
C325 C327 1.384 . S
C325 H350 0.931 . S
C326 C325 1.384 . S
C326 C329 1.382 . S
C327 C325 1.384 . S
C327 C328 1.381 . S
C327 H351 0.930 . S
C328 C327 1.381 . S
C328 C330 1.381 . S
C328 C331 1.487 . S
C329 C326 1.382 . S
C329 C330 1.387 . S
C329 H352 0.930 . S
C330 C328 1.381 . S
C330 C329 1.387 . S
C330 H353 0.931 . S
C331 C324 1.399 . S
C331 C328 1.487 . S
C331 N363 1.343 . S
C332 C333 1.384 . S
C332 C334 1.384 . S
C332 H354 0.931 . S
C333 C332 1.384 . S
C333 C336 1.382 . S
C334 C332 1.384 . S
C334 C335 1.381 . S
C334 H355 0.930 . S
C335 C334 1.381 . S
C335 C337 1.381 . S
C335 C338 1.487 . S
C336 C333 1.382 . S
C336 C337 1.387 . S
C336 H356 0.930 . S
C337 C335 1.381 . S
C337 C336 1.387 . S
C337 H357 0.931 . S
C338 C335 1.487 . S
C338 C345 1.399 . S
C338 N363 1.343 . S
C339 C340 1.384 . S
C339 C341 1.384 . S
C339 H358 0.931 . S
C340 C339 1.384 . S
C340 C343 1.382 . S
C341 C339 1.384 . S
C341 C342 1.381 . S
C341 H359 0.930 . S
C342 C341 1.381 . S
C342 C344 1.381 . S
C342 C345 1.487 . S
C343 C340 1.382 . S
C343 C344 1.387 . S
C343 H360 0.930 . S
C344 C342 1.381 . S
C344 C343 1.387 . S
C344 H361 0.931 . S
C345 C338 1.399 . S
C345 C342 1.487 . S
C345 N362 1.343 . S
H346 C318 0.931 . S
H347 C320 0.930 . S
H348 C322 0.930 . S
H349 C323 0.931 . S
H350 C325 0.931 . S
H351 C327 0.930 . S
H352 C329 0.930 . S
H353 C330 0.931 . S
H354 C332 0.931 . S
H355 C334 0.930 . S
H356 C336 0.930 . S
H357 C337 0.931 . S
H358 C339 0.931 . S
H359 C341 0.930 . S
H360 C343 0.930 . S
H361 C344 0.931 . S
N362 C324 1.343 . S
N362 C345 1.343 . S
N363 C331 1.343 . S
N363 C338 1.343 . S
C364 C365 1.384 . S
C364 C366 1.384 . S
C364 H392 0.931 . S
C365 C364 1.384 . S
C365 C368 1.382 . S
C366 C364 1.384 . S
C366 C367 1.381 . S
C366 H393 0.930 . S
C367 C366 1.381 . S
C367 C369 1.381 . S
C367 C370 1.487 . S
C368 C365 1.382 . S
C368 C369 1.387 . S
C368 H394 0.930 . S
C369 C367 1.381 . S
C369 C368 1.387 . S
C369 H395 0.931 . S
C370 C367 1.487 . S
C370 C377 1.399 . S
C370 N408 1.343 . S
C371 C372 1.384 . S
C371 C373 1.384 . S
C371 H396 0.931 . S
C372 C371 1.384 . S
C372 C375 1.382 . S
C373 C371 1.384 . S
C373 C374 1.381 . S
C373 H397 0.930 . S
C374 C373 1.381 . S
C374 C376 1.381 . S
C374 C377 1.487 . S
C375 C372 1.382 . S
C375 C376 1.387 . S
C375 H398 0.930 . S
C376 C374 1.381 . S
C376 C375 1.387 . S
C376 H399 0.931 . S
C377 C370 1.399 . S
C377 C374 1.487 . S
C377 N409 1.343 . S
C378 C379 1.384 . S
C378 C380 1.384 . S
C378 H400 0.931 . S
C379 C378 1.384 . S
C379 C382 1.382 . S
C380 C378 1.384 . S
C380 C381 1.381 . S
C380 H401 0.930 . S
C381 C380 1.381 . S
C381 C383 1.381 . S
C381 C384 1.487 . S
C382 C379 1.382 . S
C382 C383 1.387 . S
C382 H402 0.930 . S
C383 C381 1.381 . S
C383 C382 1.387 . S
C383 H403 0.931 . S
C384 C381 1.487 . S
C384 C391 1.399 . S
C384 N409 1.343 . S
C385 C386 1.384 . S
C385 C387 1.384 . S
C385 H404 0.931 . S
C386 C385 1.384 . S
C386 C389 1.382 . S
C387 C385 1.384 . S
C387 C388 1.381 . S
C387 H405 0.930 . S
C388 C387 1.381 . S
C388 C390 1.381 . S
C388 C391 1.487 . S
C389 C386 1.382 . S
C389 C390 1.387 . S
C389 H406 0.930 . S
C390 C388 1.381 . S
C390 C389 1.387 . S
C390 H407 0.931 . S
C391 C384 1.399 . S
C391 C388 1.487 . S
C391 N408 1.343 . S
H392 C364 0.931 . S
H393 C366 0.930 . S
H394 C368 0.930 . S
H395 C369 0.931 . S
H396 C371 0.931 . S
H397 C373 0.930 . S
H398 C375 0.930 . S
H399 C376 0.931 . S
H400 C378 0.931 . S
H401 C380 0.930 . S
H402 C382 0.930 . S
H403 C383 0.931 . S
H404 C385 0.931 . S
H405 C387 0.930 . S
H406 C389 0.930 . S
H407 C390 0.931 . S
N408 C370 1.343 . S
N408 C391 1.343 . S
N409 C377 1.343 . S
N409 C384 1.343 . S
C410 C411 1.384 . S
C410 C412 1.384 . S
C410 H438 0.931 . S
C411 C410 1.384 . S
C411 C414 1.382 . S
C412 C410 1.384 . S
C412 C413 1.381 . S
C412 H439 0.930 . S
C413 C412 1.381 . S
C413 C415 1.381 . S
C413 C416 1.487 . S
C414 C411 1.382 . S
C414 C415 1.387 . S
C414 H440 0.930 . S
C415 C413 1.381 . S
C415 C414 1.387 . S
C415 H441 0.931 . S
C416 C413 1.487 . S
C416 C423 1.399 . S
C416 N454 1.343 . S
C417 C418 1.384 . S
C417 C419 1.384 . S
C417 H442 0.931 . S
C418 C417 1.384 . S
C418 C421 1.382 . S
C419 C417 1.384 . S
C419 C420 1.381 . S
C419 H443 0.930 . S
C420 C419 1.381 . S
C420 C422 1.381 . S
C420 C423 1.487 . S
C421 C418 1.382 . S
C421 C422 1.387 . S
C421 H444 0.930 . S
C422 C420 1.381 . S
C422 C421 1.387 . S
C422 H445 0.931 . S
C423 C416 1.399 . S
C423 C420 1.487 . S
C423 N455 1.343 . S
C424 C425 1.384 . S
C424 C426 1.384 . S
C424 H446 0.931 . S
C425 C424 1.384 . S
C425 C428 1.382 . S
C426 C424 1.384 . S
C426 C427 1.381 . S
C426 H447 0.930 . S
C427 C426 1.381 . S
C427 C429 1.381 . S
C427 C430 1.487 . S
C428 C425 1.382 . S
C428 C429 1.387 . S
C428 H448 0.930 . S
C429 C427 1.381 . S
C429 C428 1.387 . S
C429 H449 0.931 . S
C430 C427 1.487 . S
C430 C437 1.399 . S
C430 N455 1.343 . S
C431 C432 1.384 . S
C431 C433 1.384 . S
C431 H450 0.931 . S
C432 C431 1.384 . S
C432 C435 1.382 . S
C433 C431 1.384 . S
C433 C434 1.381 . S
C433 H451 0.930 . S
C434 C433 1.381 . S
C434 C436 1.381 . S
C434 C437 1.487 . S
C435 C432 1.382 . S
C435 C436 1.387 . S
C435 H452 0.930 . S
C436 C434 1.381 . S
C436 C435 1.387 . S
C436 H453 0.931 . S
C437 C430 1.399 . S
C437 C434 1.487 . S
C437 N454 1.343 . S
H438 C410 0.931 . S
H439 C412 0.930 . S
H440 C414 0.930 . S
H441 C415 0.931 . S
H442 C417 0.931 . S
H443 C419 0.930 . S
H444 C421 0.930 . S
H445 C422 0.931 . S
H446 C424 0.931 . S
H447 C426 0.930 . S
H448 C428 0.930 . S
H449 C429 0.931 . S
H450 C431 0.931 . S
H451 C433 0.930 . S
H452 C435 0.930 . S
H453 C436 0.931 . S
N454 C416 1.343 . S
N454 C437 1.343 . S
N455 C423 1.343 . S
N455 C430 1.343 . S
C456 C457 1.384 . S
C456 C458 1.384 . S
C456 H484 0.931 . S
C457 C456 1.384 . S
C457 C460 1.382 . S
C458 C456 1.384 . S
C458 C459 1.381 . S
C458 H485 0.930 . S
C459 C458 1.381 . S
C459 C461 1.381 . S
C459 C462 1.487 . S
C460 C457 1.382 . S
C460 C461 1.387 . S
C460 H486 0.930 . S
C461 C459 1.381 . S
C461 C460 1.387 . S
C461 H487 0.931 . S
C462 C459 1.487 . S
C462 C469 1.399 . S
C462 N500 1.343 . S
C463 C464 1.384 . S
C463 C465 1.384 . S
C463 H488 0.931 . S
C464 C463 1.384 . S
C464 C467 1.382 . S
C465 C463 1.384 . S
C465 C466 1.381 . S
C465 H489 0.930 . S
C466 C465 1.381 . S
C466 C468 1.381 . S
C466 C469 1.487 . S
C467 C464 1.382 . S
C467 C468 1.387 . S
C467 H490 0.930 . S
C468 C466 1.381 . S
C468 C467 1.387 . S
C468 H491 0.931 . S
C469 C462 1.399 . S
C469 C466 1.487 . S
C469 N501 1.343 . S
C470 C471 1.384 . S
C470 C472 1.384 . S
C470 H492 0.931 . S
C471 C470 1.384 . S
C471 C474 1.382 . S
C472 C470 1.384 . S
C472 C473 1.381 . S
C472 H493 0.930 . S
C473 C472 1.381 . S
C473 C475 1.381 . S
C473 C476 1.487 . S
C474 C471 1.382 . S
C474 C475 1.387 . S
C474 H494 0.930 . S
C475 C473 1.381 . S
C475 C474 1.387 . S
C475 H495 0.931 . S
C476 C473 1.487 . S
C476 C483 1.399 . S
C476 N501 1.343 . S
C477 C478 1.384 . S
C477 C479 1.384 . S
C477 H496 0.931 . S
C478 C477 1.384 . S
C478 C481 1.382 . S
C479 C477 1.384 . S
C479 C480 1.381 . S
C479 H497 0.930 . S
C480 C479 1.381 . S
C480 C482 1.381 . S
C480 C483 1.487 . S
C481 C478 1.382 . S
C481 C482 1.387 . S
C481 H498 0.930 . S
C482 C480 1.381 . S
C482 C481 1.387 . S
C482 H499 0.931 . S
C483 C476 1.399 . S
C483 C480 1.487 . S
C483 N500 1.343 . S
H484 C456 0.931 . S
H485 C458 0.930 . S
H486 C460 0.930 . S
H487 C461 0.931 . S
H488 C463 0.931 . S
H489 C465 0.930 . S
H490 C467 0.930 . S
H491 C468 0.931 . S
H492 C470 0.931 . S
H493 C472 0.930 . S
H494 C474 0.930 . S
H495 C475 0.931 . S
H496 C477 0.931 . S
H497 C479 0.930 . S
H498 C481 0.930 . S
H499 C482 0.931 . S
N500 C462 1.343 . S
N500 C483 1.343 . S
N501 C469 1.343 . S
N501 C476 1.343 . S
C502 C503 1.384 . S
C502 C504 1.384 . S
C502 H530 0.931 . S
C503 C502 1.384 . S
C503 C506 1.382 . S
C504 C502 1.384 . S
C504 C505 1.381 . S
C504 H531 0.930 . S
C505 C504 1.381 . S
C505 C507 1.381 . S
C505 C508 1.487 . S
C506 C503 1.382 . S
C506 C507 1.387 . S
C506 H532 0.930 . S
C507 C505 1.381 . S
C507 C506 1.387 . S
C507 H533 0.931 . S
C508 C505 1.487 . S
C508 C515 1.399 . S
C508 N546 1.343 . S
C509 C510 1.384 . S
C509 C511 1.384 . S
C509 H534 0.931 . S
C510 C509 1.384 . S
C510 C513 1.382 . S
C511 C509 1.384 . S
C511 C512 1.381 . S
C511 H535 0.930 . S
C512 C511 1.381 . S
C512 C514 1.381 . S
C512 C515 1.487 . S
C513 C510 1.382 . S
C513 C514 1.387 . S
C513 H536 0.930 . S
C514 C512 1.381 . S
C514 C513 1.387 . S
C514 H537 0.931 . S
C515 C508 1.399 . S
C515 C512 1.487 . S
C515 N547 1.343 . S
C516 C517 1.384 . S
C516 C518 1.384 . S
C516 H538 0.931 . S
C517 C516 1.384 . S
C517 C520 1.382 . S
C518 C516 1.384 . S
C518 C519 1.381 . S
C518 H539 0.930 . S
C519 C518 1.381 . S
C519 C521 1.381 . S
C519 C522 1.487 . S
C520 C517 1.382 . S
C520 C521 1.387 . S
C520 H540 0.930 . S
C521 C519 1.381 . S
C521 C520 1.387 . S
C521 H541 0.931 . S
C522 C519 1.487 . S
C522 C529 1.399 . S
C522 N547 1.343 . S
C523 C524 1.384 . S
C523 C525 1.384 . S
C523 H542 0.931 . S
C524 C523 1.384 . S
C524 C527 1.382 . S
C525 C523 1.384 . S
C525 C526 1.381 . S
C525 H543 0.930 . S
C526 C525 1.381 . S
C526 C528 1.381 . S
C526 C529 1.487 . S
C527 C524 1.382 . S
C527 C528 1.387 . S
C527 H544 0.930 . S
C528 C526 1.381 . S
C528 C527 1.387 . S
C528 H545 0.931 . S
C529 C522 1.399 . S
C529 C526 1.487 . S
C529 N546 1.343 . S
H530 C502 0.931 . S
H531 C504 0.930 . S
H532 C506 0.930 . S
H533 C507 0.931 . S
H534 C509 0.931 . S
H535 C511 0.930 . S
H536 C513 0.930 . S
H537 C514 0.931 . S
H538 C516 0.931 . S
H539 C518 0.930 . S
H540 C520 0.930 . S
H541 C521 0.931 . S
H542 C523 0.931 . S
H543 C525 0.930 . S
H544 C527 0.930 . S
H545 C528 0.931 . S
N546 C508 1.343 . S
N546 C529 1.343 . S
N547 C515 1.343 . S
N547 C522 1.343 . S
C548 C549 1.384 . S
C548 C550 1.384 . S
C548 H576 0.931 . S
C549 C548 1.384 . S
C549 C552 1.382 . S
C550 C548 1.384 . S
C550 C551 1.381 . S
C550 H577 0.930 . S
C551 C550 1.381 . S
C551 C553 1.381 . S
C551 C554 1.487 . S
C552 C549 1.382 . S
C552 C553 1.387 . S
C552 H578 0.930 . S
C553 C551 1.381 . S
C553 C552 1.387 . S
C553 H579 0.931 . S
C554 C551 1.487 . S
C554 C561 1.399 . S
C554 N592 1.343 . S
C555 C556 1.384 . S
C555 C557 1.384 . S
C555 H580 0.931 . S
C556 C555 1.384 . S
C556 C559 1.382 . S
C557 C555 1.384 . S
C557 C558 1.381 . S
C557 H581 0.930 . S
C558 C557 1.381 . S
C558 C560 1.381 . S
C558 C561 1.487 . S
C559 C556 1.382 . S
C559 C560 1.387 . S
C559 H582 0.930 . S
C560 C558 1.381 . S
C560 C559 1.387 . S
C560 H583 0.931 . S
C561 C554 1.399 . S
C561 C558 1.487 . S
C561 N593 1.343 . S
C562 C563 1.384 . S
C562 C564 1.384 . S
C562 H584 0.931 . S
C563 C562 1.384 . S
C563 C566 1.382 . S
C564 C562 1.384 . S
C564 C565 1.381 . S
C564 H585 0.930 . S
C565 C564 1.381 . S
C565 C567 1.381 . S
C565 C568 1.487 . S
C566 C563 1.382 . S
C566 C567 1.387 . S
C566 H586 0.930 . S
C567 C565 1.381 . S
C567 C566 1.387 . S
C567 H587 0.931 . S
C568 C565 1.487 . S
C568 C575 1.399 . S
C568 N593 1.343 . S
C569 C570 1.384 . S
C569 C571 1.384 . S
C569 H588 0.931 . S
C570 C569 1.384 . S
C570 C573 1.382 . S
C571 C569 1.384 . S
C571 C572 1.381 . S
C571 H589 0.930 . S
C572 C571 1.381 . S
C572 C574 1.381 . S
C572 C575 1.487 . S
C573 C570 1.382 . S
C573 C574 1.387 . S
C573 H590 0.930 . S
C574 C572 1.381 . S
C574 C573 1.387 . S
C574 H591 0.931 . S
C575 C568 1.399 . S
C575 C572 1.487 . S
C575 N592 1.343 . S
H576 C548 0.931 . S
H577 C550 0.930 . S
H578 C552 0.930 . S
H579 C553 0.931 . S
H580 C555 0.931 . S
H581 C557 0.930 . S
H582 C559 0.930 . S
H583 C560 0.931 . S
H584 C562 0.931 . S
H585 C564 0.930 . S
H586 C566 0.930 . S
H587 C567 0.931 . S
H588 C569 0.931 . S
H589 C571 0.930 . S
H590 C573 0.930 . S
H591 C574 0.931 . S
N592 C554 1.343 . S
N592 C575 1.343 . S
N593 C561 1.343 . S
N593 C568 1.343 . S
C39 C340 2.306 . S
C91 C379 2.116 . S
C411 C128 1.948 . S
C457 C188 1.833 . S
C524 C250 2.063 . S
C563 C304 2.347 . S
C75 C425 2.112 . S
C144 C471 2.258 . S
C510 C198 2.062 . S
C549 C234 1.922 . S
C294 C326 1.777 . S
C365 C29 1.751 . S
C464 C38 2.306 . S
C92 C517 2.072 . S
C570 C135 1.948 . S
C181 C333 1.833 . S
C251 C386 2.017 . S
C303 C418 2.347 . S
C82 C556 2.112 . S
C319 C145 2.258 . S
C197 C372 2.108 . S
C241 C432 1.922 . S
C287 C478 1.777 . S
C22 C503 1.796 . S
