# Generated by pormake.
# Topology ptr, (4,4)-cn, num edge types: 1
# Building blocks:
#     Node 0, Type 0, BuildingBlock: CEKHIL_clean_sbu_0, # of connection points: 4
#     Node 1, Type 0, BuildingBlock: CEKHIL_clean_sbu_0, # of connection points: 4
#     Node 2, Type 0, BuildingBlock: CEKHIL_clean_sbu_0, # of connection points: 4
#     Node 3, Type 0, BuildingBlock: CEKHIL_clean_sbu_0, # of connection points: 4
#     Node 4, Type 0, BuildingBlock: CEKHIL_clean_sbu_0, # of connection points: 4
#     Node 5, Type 0, BuildingBlock: CEKHIL_clean_sbu_0, # of connection points: 4
#     Node 6, Type 0, BuildingBlock: CEKHIL_clean_sbu_0, # of connection points: 4
#     Node 7, Type 0, BuildingBlock: CEKHIL_clean_sbu_0, # of connection points: 4
#     Node 8, Type 0, BuildingBlock: CEKHIL_clean_sbu_0, # of connection points: 4
#     Node 9, Type 0, BuildingBlock: CEKHIL_clean_sbu_0, # of connection points: 4
#     Node 10, Type 0, BuildingBlock: CEKHIL_clean_sbu_0, # of connection points: 4
#     Node 11, Type 0, BuildingBlock: CEKHIL_clean_sbu_0, # of connection points: 4
#     Node 12, Type 0, BuildingBlock: CEKHIL_clean_sbu_0, # of connection points: 4
#     Node 13, Type 0, BuildingBlock: CEKHIL_clean_sbu_0, # of connection points: 4
#     Node 14, Type 0, BuildingBlock: CEKHIL_clean_sbu_0, # of connection points: 4
#     Node 15, Type 0, BuildingBlock: CEKHIL_clean_sbu_0, # of connection points: 4
#     Node 16, Type 0, BuildingBlock: CEKHIL_clean_sbu_0, # of connection points: 4
#     Node 17, Type 0, BuildingBlock: CEKHIL_clean_sbu_0, # of connection points: 4
#     Node 18, Type 1, BuildingBlock: GIZVER_clean_linker_0, # of connection points: 4
#     Node 19, Type 1, BuildingBlock: GIZVER_clean_linker_0, # of connection points: 4
#     Node 20, Type 1, BuildingBlock: GIZVER_clean_linker_0, # of connection points: 4
#     Node 21, Type 1, BuildingBlock: GIZVER_clean_linker_0, # of connection points: 4
#     Node 22, Type 1, BuildingBlock: GIZVER_clean_linker_0, # of connection points: 4
#     Node 23, Type 1, BuildingBlock: GIZVER_clean_linker_0, # of connection points: 4
#     Node 24, Type 1, BuildingBlock: GIZVER_clean_linker_0, # of connection points: 4
#     Node 25, Type 1, BuildingBlock: GIZVER_clean_linker_0, # of connection points: 4
#     Node 26, Type 1, BuildingBlock: GIZVER_clean_linker_0, # of connection points: 4
#     Node 27, Type 1, BuildingBlock: GIZVER_clean_linker_0, # of connection points: 4
#     Node 28, Type 1, BuildingBlock: GIZVER_clean_linker_0, # of connection points: 4
#     Node 29, Type 1, BuildingBlock: GIZVER_clean_linker_0, # of connection points: 4
#     Node 30, Type 1, BuildingBlock: GIZVER_clean_linker_0, # of connection points: 4
#     Node 31, Type 1, BuildingBlock: GIZVER_clean_linker_0, # of connection points: 4
#     Node 32, Type 1, BuildingBlock: GIZVER_clean_linker_0, # of connection points: 4
#     Node 33, Type 1, BuildingBlock: GIZVER_clean_linker_0, # of connection points: 4
#     Node 34, Type 1, BuildingBlock: GIZVER_clean_linker_0, # of connection points: 4
#     Node 35, Type 1, BuildingBlock: GIZVER_clean_linker_0, # of connection points: 4
#     Edge 36, Type (0, 1), BuildingBlock: TEMPAE_clean_linker_10, # of connection points: 2
#     Edge 37, Type (0, 1), BuildingBlock: TEMPAE_clean_linker_10, # of connection points: 2
#     Edge 38, Type (0, 1), BuildingBlock: TEMPAE_clean_linker_10, # of connection points: 2
#     Edge 39, Type (0, 1), BuildingBlock: TEMPAE_clean_linker_10, # of connection points: 2
#     Edge 40, Type (0, 1), BuildingBlock: TEMPAE_clean_linker_10, # of connection points: 2
#     Edge 41, Type (0, 1), BuildingBlock: TEMPAE_clean_linker_10, # of connection points: 2
#     Edge 42, Type (0, 1), BuildingBlock: TEMPAE_clean_linker_10, # of connection points: 2
#     Edge 43, Type (0, 1), BuildingBlock: TEMPAE_clean_linker_10, # of connection points: 2
#     Edge 44, Type (0, 1), BuildingBlock: TEMPAE_clean_linker_10, # of connection points: 2
#     Edge 45, Type (0, 1), BuildingBlock: TEMPAE_clean_linker_10, # of connection points: 2
#     Edge 46, Type (0, 1), BuildingBlock: TEMPAE_clean_linker_10, # of connection points: 2
#     Edge 47, Type (0, 1), BuildingBlock: TEMPAE_clean_linker_10, # of connection points: 2
#     Edge 48, Type (0, 1), BuildingBlock: TEMPAE_clean_linker_10, # of connection points: 2
#     Edge 49, Type (0, 1), BuildingBlock: TEMPAE_clean_linker_10, # of connection points: 2
#     Edge 50, Type (0, 1), BuildingBlock: TEMPAE_clean_linker_10, # of connection points: 2
#     Edge 51, Type (0, 1), BuildingBlock: TEMPAE_clean_linker_10, # of connection points: 2
#     Edge 52, Type (0, 1), BuildingBlock: TEMPAE_clean_linker_10, # of connection points: 2
#     Edge 53, Type (0, 1), BuildingBlock: TEMPAE_clean_linker_10, # of connection points: 2
#     Edge 54, Type (0, 1), BuildingBlock: TEMPAE_clean_linker_10, # of connection points: 2
#     Edge 55, Type (0, 1), BuildingBlock: TEMPAE_clean_linker_10, # of connection points: 2
#     Edge 56, Type (0, 1), BuildingBlock: TEMPAE_clean_linker_10, # of connection points: 2
#     Edge 57, Type (0, 1), BuildingBlock: TEMPAE_clean_linker_10, # of connection points: 2
#     Edge 58, Type (0, 1), BuildingBlock: TEMPAE_clean_linker_10, # of connection points: 2
#     Edge 59, Type (0, 1), BuildingBlock: TEMPAE_clean_linker_10, # of connection points: 2
#     Edge 60, Type (0, 1), BuildingBlock: TEMPAE_clean_linker_10, # of connection points: 2
#     Edge 61, Type (0, 1), BuildingBlock: TEMPAE_clean_linker_10, # of connection points: 2
#     Edge 62, Type (0, 1), BuildingBlock: TEMPAE_clean_linker_10, # of connection points: 2
#     Edge 63, Type (0, 1), BuildingBlock: TEMPAE_clean_linker_10, # of connection points: 2
#     Edge 64, Type (0, 1), BuildingBlock: TEMPAE_clean_linker_10, # of connection points: 2
#     Edge 65, Type (0, 1), BuildingBlock: TEMPAE_clean_linker_10, # of connection points: 2
#     Edge 66, Type (0, 1), BuildingBlock: TEMPAE_clean_linker_10, # of connection points: 2
#     Edge 67, Type (0, 1), BuildingBlock: TEMPAE_clean_linker_10, # of connection points: 2
#     Edge 68, Type (0, 1), BuildingBlock: TEMPAE_clean_linker_10, # of connection points: 2
#     Edge 69, Type (0, 1), BuildingBlock: TEMPAE_clean_linker_10, # of connection points: 2
#     Edge 70, Type (0, 1), BuildingBlock: TEMPAE_clean_linker_10, # of connection points: 2
#     Edge 71, Type (0, 1), BuildingBlock: TEMPAE_clean_linker_10, # of connection points: 2
#     Edge 72, Type (0, 1), BuildingBlock: TEMPAE_clean_linker_10, # of connection points: 2
#     Edge 73, Type (0, 1), BuildingBlock: TEMPAE_clean_linker_10, # of connection points: 2
#     Edge 74, Type (0, 1), BuildingBlock: TEMPAE_clean_linker_10, # of connection points: 2
#     Edge 75, Type (0, 1), BuildingBlock: TEMPAE_clean_linker_10, # of connection points: 2
#     Edge 76, Type (0, 1), BuildingBlock: TEMPAE_clean_linker_10, # of connection points: 2
#     Edge 77, Type (0, 1), BuildingBlock: TEMPAE_clean_linker_10, # of connection points: 2
#     Edge 78, Type (0, 1), BuildingBlock: TEMPAE_clean_linker_10, # of connection points: 2
#     Edge 79, Type (0, 1), BuildingBlock: TEMPAE_clean_linker_10, # of connection points: 2
#     Edge 80, Type (0, 1), BuildingBlock: TEMPAE_clean_linker_10, # of connection points: 2
#     Edge 81, Type (0, 1), BuildingBlock: TEMPAE_clean_linker_10, # of connection points: 2
#     Edge 82, Type (0, 1), BuildingBlock: TEMPAE_clean_linker_10, # of connection points: 2
#     Edge 83, Type (0, 1), BuildingBlock: TEMPAE_clean_linker_10, # of connection points: 2
#     Edge 84, Type (0, 1), BuildingBlock: TEMPAE_clean_linker_10, # of connection points: 2
#     Edge 85, Type (0, 1), BuildingBlock: TEMPAE_clean_linker_10, # of connection points: 2
#     Edge 86, Type (0, 1), BuildingBlock: TEMPAE_clean_linker_10, # of connection points: 2
#     Edge 87, Type (0, 1), BuildingBlock: TEMPAE_clean_linker_10, # of connection points: 2
#     Edge 88, Type (0, 1), BuildingBlock: TEMPAE_clean_linker_10, # of connection points: 2
#     Edge 89, Type (0, 1), BuildingBlock: TEMPAE_clean_linker_10, # of connection points: 2
#     Edge 90, Type (0, 1), BuildingBlock: TEMPAE_clean_linker_10, # of connection points: 2
#     Edge 91, Type (0, 1), BuildingBlock: TEMPAE_clean_linker_10, # of connection points: 2
#     Edge 92, Type (0, 1), BuildingBlock: TEMPAE_clean_linker_10, # of connection points: 2
#     Edge 93, Type (0, 1), BuildingBlock: TEMPAE_clean_linker_10, # of connection points: 2
#     Edge 94, Type (0, 1), BuildingBlock: TEMPAE_clean_linker_10, # of connection points: 2
#     Edge 95, Type (0, 1), BuildingBlock: TEMPAE_clean_linker_10, # of connection points: 2
#     Edge 96, Type (0, 1), BuildingBlock: TEMPAE_clean_linker_10, # of connection points: 2
#     Edge 97, Type (0, 1), BuildingBlock: TEMPAE_clean_linker_10, # of connection points: 2
#     Edge 98, Type (0, 1), BuildingBlock: TEMPAE_clean_linker_10, # of connection points: 2
#     Edge 99, Type (0, 1), BuildingBlock: TEMPAE_clean_linker_10, # of connection points: 2
#     Edge 100, Type (0, 1), BuildingBlock: TEMPAE_clean_linker_10, # of connection points: 2
#     Edge 101, Type (0, 1), BuildingBlock: TEMPAE_clean_linker_10, # of connection points: 2
#     Edge 102, Type (0, 1), BuildingBlock: TEMPAE_clean_linker_10, # of connection points: 2
#     Edge 103, Type (0, 1), BuildingBlock: TEMPAE_clean_linker_10, # of connection points: 2
#     Edge 104, Type (0, 1), BuildingBlock: TEMPAE_clean_linker_10, # of connection points: 2
#     Edge 105, Type (0, 1), BuildingBlock: TEMPAE_clean_linker_10, # of connection points: 2
#     Edge 106, Type (0, 1), BuildingBlock: TEMPAE_clean_linker_10, # of connection points: 2
#     Edge 107, Type (0, 1), BuildingBlock: TEMPAE_clean_linker_10, # of connection points: 2
# Relax obj value: 0.048
# Max RMSD: 0.106
# Mean RMSD: 0.077
data_MOF--net-ptr--node1-CEKHIL_clean_sbu_0--node2-GIZVER_clean_linker_0--edge1-TEMPAE_clean_linker_10
_symmetry_space_group_name_H-M    P1
_symmetry_Int_Tables_number       1
_symmetry_cell_setting            triclinic
loop_
_symmetry_equiv_pos_as_xyz
'x, y, z'
_cell_length_a     80.930788
_cell_length_b     80.004964
_cell_length_c     49.783154
_cell_angle_alpha  91.251894
_cell_angle_beta   89.761151
_cell_angle_gamma 120.96077
loop_
_atom_site_label
_atom_site_type_symbol
_atom_site_fract_x
_atom_site_fract_y
_atom_site_fract_z
_atom_type_partial_charge
Co0 Co 0.01336 0.36833 0.01355 0.0
O1 O 0.02563 0.36003 0.03869 0.0
O2 O 0.04093 0.38258 0.00819 0.0
C3 C 0.98965 0.33796 0.00141 0.0
O4 O 0.00628 0.38065 0.98373 0.0
Co5 Co 0.97117 0.35885 0.01886 0.0
O6 O 0.97444 0.36892 0.98205 0.0
C7 C 1.00245 0.39148 0.05095 0.0
C8 C 0.04181 0.37235 0.02745 0.0
C9 C 0.99131 0.37934 0.97262 0.0
O10 O 0.01532 0.38867 0.04011 0.0
O11 O 0.98437 0.3808 0.04595 0.0
O12 O 0.0065 0.34564 0.99029 0.0
O13 O 0.98795 0.3483 0.02022 0.0
Co14 Co 0.64536 0.64735 -0.00235 0.0
O15 O 0.66797 0.65631 0.97582 0.0
O16 O 0.65872 0.634 0.00708 0.0
C17 C 0.6499 0.67702 0.00846 0.0
O18 O 0.62347 0.63463 0.02441 0.0
Co19 Co 0.61259 0.65479 0.98144 0.0
O20 O 0.59986 0.64056 0.01454 0.0
C21 C 0.61656 0.62444 0.95284 0.0
C22 C 0.67109 0.64424 0.98871 0.0
C23 C 0.60696 0.63278 0.02897 0.0
O24 O 0.62933 0.6264 0.96998 0.0
O25 O 0.60969 0.63571 0.95238 0.0
O26 O 0.65893 0.67019 0.02159 0.0
O27 O 0.63997 0.66663 0.98792 0.0
Co28 Co 0.35939 0.00303 0.00696 0.0
O29 O 0.35059 0.01694 0.98595 0.0
O30 O 0.37281 0.03032 0.01803 0.0
C31 C 0.32985 0.97726 0.01595 0.0
O32 O 0.37208 0.99362 0.03297 0.0
Co33 Co 0.35124 0.96194 0.98888 0.0
O34 O 0.36156 0.96186 0.02503 0.0
C35 C 0.38166 0.99713 0.96233 0.0
C36 C 0.36265 0.03245 -0.00026 0.0
C37 C 0.37121 0.97761 0.03883 0.0
O38 O 0.37989 0.00824 0.9797 0.0
O39 O 0.37048 0.97858 0.96103 0.0
O40 O 0.33692 0.99326 0.03036 0.0
O41 O 0.34002 0.9779 0.99556 0.0
Co42 Co 0.99409 0.6342 0.00962 0.0
O43 O 0.98114 0.64235 0.98571 0.0
O44 O 0.96692 0.62147 0.01847 0.0
C45 C 0.0195 0.66441 0.0183 0.0
O46 O 1.00283 0.62257 0.03833 0.0
Co47 Co 0.03467 0.64128 0.99564 0.0
O48 O 0.03423 0.63267 0.03292 0.0
C49 C 1.00004 0.60949 0.96823 0.0
C50 C 0.96547 0.63102 -0.00132 0.0
C51 C 0.01857 0.62376 0.04599 0.0
O52 O 0.989 0.61212 0.98416 0.0
O53 O 0.01839 0.62067 0.96786 0.0
O54 O 1.00358 0.65801 0.03158 0.0
O55 O 0.01909 0.6531 -0.00088 0.0
Co56 Co 0.35953 0.36628 -0.00084 0.0
O57 O 0.33769 0.35582 0.02245 0.0
O58 O 0.34344 0.37698 0.9906 0.0
C59 C 0.35718 0.33738 0.98989 0.0
O60 O 0.38046 0.38001 0.97112 0.0
Co61 Co 0.39503 0.36293 0.01378 0.0
O62 O 0.40431 0.37377 0.97763 0.0
C63 C 0.38832 0.39162 0.04231 0.0
C64 C 0.33241 0.3664 0.01 0.0
C65 C 0.3964 0.38125 0.9643 0.0
O66 O 0.37491 0.38838 0.02553 0.0
O67 O 0.39663 0.38166 0.0427 0.0
O68 O 0.34695 0.34265 0.9764 0.0
O69 O 0.36735 0.34896 0.0094 0.0
Co70 Co 0.64963 0.0106 0.01285 0.0
O71 O 0.66145 0.9992 0.03308 0.0
O72 O 0.63673 0.98276 0.00514 0.0
C73 C 0.67762 0.0365 -0.001 0.0
O74 O 0.63429 0.01741 0.98749 0.0
Co75 Co 0.65638 0.05134 0.02885 0.0
O76 O 0.64072 0.04791 0.99642 0.0
C77 C 0.62898 0.01722 0.05977 0.0
C78 C 0.64913 0.98269 0.02164 0.0
C79 C 0.63218 0.03198 0.98277 0.0
O80 O 0.63088 0.00591 0.04285 0.0
O81 O 0.63919 0.03583 0.05905 0.0
O82 O 0.67021 0.01974 0.98642 0.0
O83 O 0.66883 0.03667 0.02062 0.0
Co84 Co 0.67445 0.6972 0.33873 0.0
O85 O 0.68527 0.68569 0.36084 0.0
O86 O 0.70215 0.71062 0.33411 0.0
C87 C 0.64971 0.66832 0.32346 0.0
O88 O 0.6686 0.71254 0.31212 0.0
Co89 Co 0.63309 0.68961 0.34705 0.0
O90 O 0.63712 0.70272 0.31221 0.0
C91 C 0.66493 0.71733 0.38316 0.0
C92 C 0.70185 0.69829 0.35097 0.0
C93 C 0.65401 0.71292 0.3027 0.0
O94 O 0.6774 0.716 0.36855 0.0
O95 O 0.64671 0.70685 0.37918 0.0
O96 O 0.6665 0.67597 0.31212 0.0
O97 O 0.6487 0.67778 0.34405 0.0
Co98 Co 0.31367 0.97798 0.33308 0.0
O99 O 0.33558 0.98594 0.3101 0.0
O100 O 0.32612 0.96351 0.3412 0.0
C101 C 0.31996 0.00822 0.34445 0.0
O102 O 0.29243 0.96616 0.36092 0.0
Co103 Co 0.28189 0.98744 0.31942 0.0
O104 O 0.2697 0.97373 0.35307 0.0
C105 C 0.28335 0.95604 0.28954 0.0
C106 C 0.33826 0.97336 0.3224 0.0
C107 C 0.27651 0.96532 0.3667 0.0
O108 O 0.29632 0.95737 0.30579 0.0
O109 O 0.27723 0.96795 0.29002 0.0
O110 O 0.32864 1.00069 0.35684 0.0
O111 O 0.30926 0.99809 0.32428 0.0
Co112 Co 0.02669 0.33602 0.34656 0.0
O113 O 0.01841 0.34881 0.32217 0.0
O114 O 0.04102 0.3639 0.35339 0.0
C115 C 0.99668 0.31182 0.3576 0.0
O116 O 0.03917 0.32852 0.37568 0.0
Co117 Co 0.01697 0.29323 0.33852 0.0
O118 O 0.02692 0.29616 0.37573 0.0
C119 C 0.04882 0.32506 0.30771 0.0
C120 C 0.03091 0.36509 0.33412 0.0
C121 C 0.03759 0.31316 0.38595 0.0
O122 O 0.04661 0.33809 0.3201 0.0
O123 O 0.03779 0.30672 0.3112 0.0
O124 O 0.00433 0.32884 0.36955 0.0
O125 O 0.00677 0.31038 0.3386 0.0
Co126 Co 0.65772 0.96948 0.34172 0.0
O127 O 0.64338 0.97731 0.32013 0.0
O128 O 0.6308 0.95566 0.35233 0.0
C129 C 0.68273 0.99989 0.35062 0.0
O130 O 0.66829 0.9581 0.36826 0.0
Co131 Co 0.69801 0.97838 0.32255 0.0
O132 O 0.69888 0.96751 0.35762 0.0
C133 C 0.66294 0.94665 0.29643 0.0
C134 C 0.62827 0.96523 0.33354 0.0
C135 C 0.68423 0.95861 0.37275 0.0
O136 O 0.65246 0.94813 0.3147 0.0
O137 O 0.68108 0.95864 0.29438 0.0
O138 O 0.66719 0.99273 0.36494 0.0
O139 O 0.68201 0.98928 0.33025 0.0
Co140 Co 0.02669 0.7014 0.34046 0.0
O141 O 0.00412 0.69103 0.36233 0.0
O142 O 0.01114 0.71245 0.33043 0.0
C143 C 0.02455 0.67256 0.33126 0.0
O144 O 0.04856 0.7149 0.3136 0.0
Co145 Co 0.06121 0.69746 0.35902 0.0
O146 O 0.07208 0.70888 0.32365 0.0
C147 C 0.05407 0.72642 0.38541 0.0
C148 C 0.99941 0.70181 0.34922 0.0
C149 C 0.06491 0.71636 0.30871 0.0
O150 O 0.04145 0.72338 0.36737 0.0
O151 O 0.062 0.71617 0.38725 0.0
O152 O 0.01464 0.67797 0.31729 0.0
O153 O 0.03389 0.68376 0.35154 0.0
Co154 Co 0.31517 0.33943 0.34862 0.0
O155 O 0.32671 0.32871 0.37088 0.0
O156 O 0.30167 0.3113 0.34378 0.0
C157 C 0.34326 0.36395 0.3328 0.0
O158 O 0.29996 0.34534 0.32163 0.0
Co159 Co 0.32312 0.38132 0.35993 0.0
O160 O 0.30687 0.37629 0.32763 0.0
C161 C 0.29569 0.34927 0.39393 0.0
C162 C 0.31411 0.31178 0.36072 0.0
C163 C 0.29799 0.35978 0.3154 0.0
O164 O 0.29686 0.33688 0.37827 0.0
O165 O 0.30635 0.36775 0.39146 0.0
O166 O 0.33555 0.3465 0.32228 0.0
O167 O 0.33478 0.36568 0.35379 0.0
Co168 Co 0.34008 0.02962 0.6812 0.0
O169 O 0.35284 0.02039 0.70377 0.0
O170 O 0.36749 0.04358 0.67393 0.0
C171 C 0.31546 0.99986 0.6685 0.0
O172 O 0.33188 0.04268 0.65394 0.0
Co173 Co 0.29872 0.02067 0.6944 0.0
O174 O 0.30142 0.03533 0.66145 0.0
C175 C 0.33187 0.05064 0.72607 0.0
C176 C 0.36874 0.03285 0.69213 0.0
C177 C 0.31706 0.04396 0.64826 0.0
O178 O 0.34366 0.04963 0.7096 0.0
O179 O 0.3136 0.03899 0.72495 0.0
O180 O 0.33193 0.00746 0.65633 0.0
O181 O 0.31491 0.00966 0.68905 0.0
Co182 Co 0.97848 0.31002 0.66912 0.0
O183 O 1.00056 0.318 0.64655 0.0
O184 O 0.99199 0.29696 0.67942 0.0
C185 C 0.98333 0.34007 0.67787 0.0
O186 O 0.95709 0.29856 0.69679 0.0
Co187 Co 0.94566 0.31716 0.65176 0.0
O188 O 0.93358 0.30446 0.68604 0.0
C189 C 0.94896 0.28565 0.6258 0.0
C190 C 0.00395 0.30643 0.66024 0.0
C191 C 0.94075 0.29715 0.70125 0.0
O192 O 0.96176 0.28801 0.64316 0.0
O193 O 0.94241 0.29713 0.62398 0.0
O194 O 0.99262 0.33371 0.69138 0.0
O195 O 0.97305 0.329 0.658 0.0
Co196 Co 0.69591 0.67307 0.67366 0.0
O197 O 0.68721 0.68628 0.65093 0.0
O198 O 0.7084 0.70041 0.68415 0.0
C199 C 0.66639 0.64687 0.6817 0.0
O200 O 0.70828 0.66455 0.70144 0.0
Co201 Co 0.68936 0.63223 0.65787 0.0
O202 O 0.69884 0.63293 0.69492 0.0
C203 C 0.72031 0.66751 0.63205 0.0
C204 C 0.69856 0.70202 0.66484 0.0
C205 C 0.70776 0.64891 0.70839 0.0
O206 O 0.71744 0.6786 0.64807 0.0
O207 O 0.70962 0.64889 0.63113 0.0
O208 O 0.67269 0.66299 0.69561 0.0
O209 O 0.6773 0.6476 0.66223 0.0
Co210 Co 0.32622 0.30122 0.67856 0.0
O211 O 0.31275 0.31028 0.65739 0.0
O212 O 0.29952 0.28902 0.68997 0.0
C213 C 0.35263 0.33084 0.68681 0.0
O214 O 0.33597 0.28884 0.70474 0.0
Co215 Co 0.3652 0.30724 0.65777 0.0
O216 O 0.36582 0.29625 0.69285 0.0
C217 C 0.32875 0.27686 0.63296 0.0
C218 C 0.29756 0.29899 0.67123 0.0
C219 C 0.35142 0.28827 0.70859 0.0
O220 O 0.31917 0.27929 0.65171 0.0
O221 O 0.34698 0.28791 0.63017 0.0
O222 O 0.33735 0.32475 0.70148 0.0
O223 O 0.35082 0.31979 0.66641 0.0
Co224 Co 0.69341 0.02682 0.67487 0.0
O225 O 0.67147 0.01819 0.69772 0.0
O226 O 0.6798 0.04012 0.66614 0.0
C227 C 0.68816 0.99685 0.66478 0.0
O228 O 0.71477 0.03897 0.64714 0.0
Co229 Co 0.72608 0.01903 0.6899 0.0
O230 O 0.73695 0.03062 0.65458 0.0
C231 C 0.72264 0.04953 0.71897 0.0
C232 C 0.66794 0.03005 0.68513 0.0
C233 C 0.73035 0.03921 0.64085 0.0
O234 O 0.71011 0.04804 0.70178 0.0
O235 O 0.72912 0.03793 0.71943 0.0
O236 O 0.6792 0.0037 0.65154 0.0
O237 O 0.69864 0.00751 0.68476 0.0
Co238 Co 0.9811 0.67334 0.68277 0.0
O239 O 0.99241 0.6639 0.70775 0.0
O240 O 0.96758 0.64514 0.68091 0.0
C241 C 0.00951 0.69679 0.66624 0.0
O242 O 0.966 0.67739 0.65335 0.0
Co243 Co 0.98885 0.71556 0.6856 0.0
O244 O 0.97683 0.70931 0.64943 0.0
C245 C 0.95979 0.68577 0.72143 0.0
C246 C 0.97992 0.64652 0.69876 0.0
C247 C 0.96636 0.69167 0.6413 0.0
O248 O 0.96268 0.67263 0.71092 0.0
O249 O 0.96927 0.70371 0.71488 0.0
O250 O 1.00174 0.67887 0.65754 0.0
O251 O 1.00067 0.6998 0.68569 0.0
H252 H 0.15607 0.34043 0.17013 0.0
H253 H 0.16326 0.35657 0.08698 0.0
H254 H 0.13263 0.37388 0.14037 0.0
H255 H 0.16426 0.32327 0.13658 0.0
H256 H 0.16702 0.32972 0.1022 0.0
H257 H 0.19111 0.34374 0.16988 0.0
H258 H 0.24735 0.36795 0.13504 0.0
H259 H 0.19839 0.3516 0.08437 0.0
C260 C 0.15468 0.34861 0.15411 0.0
C261 C 0.14372 0.35747 0.15826 0.0
C262 C 0.16218 0.34857 0.12851 0.0
C263 C 0.15868 0.35765 0.10711 0.0
C264 C 0.14814 0.367 0.11135 0.0
C265 C 0.14144 0.36741 0.13719 0.0
C266 C 0.17076 0.33594 0.12302 0.0
C267 C 0.19239 0.34689 0.12682 0.0
C268 C 0.20047 0.3489 0.15259 0.0
C269 C 0.22044 0.35682 0.15586 0.0
C270 C 0.23217 0.36299 0.13303 0.0
C271 C 0.22447 0.36142 0.10728 0.0
C272 C 0.20453 0.35341 0.10429 0.0
H273 H 0.67682 0.82531 0.16162 0.0
H274 H 0.66146 0.81479 0.0774 0.0
H275 H 0.65115 0.76745 0.12749 0.0
H276 H 0.68987 0.8524 0.12968 0.0
H277 H 0.68329 0.84774 0.09491 0.0
H278 H 0.65707 0.8402 0.1612 0.0
H279 H 0.63267 0.87423 0.13765 0.0
H280 H 0.66945 0.86624 0.08336 0.0
C281 C 0.6702 0.81528 0.14468 0.0
C282 C 0.66396 0.79546 0.14759 0.0
C283 C 0.66888 0.82235 0.11948 0.0
C284 C 0.66157 0.80938 0.09713 0.0
C285 C 0.65514 0.78954 0.10005 0.0
C286 C 0.6559 0.78274 0.12538 0.0
C287 C 0.67749 0.84402 0.11562 0.0
C288 C 0.66327 0.85071 0.12062 0.0
C289 C 0.6545 0.84804 0.14593 0.0
C290 C 0.64363 0.8567 0.1524 0.0
C291 C 0.64093 0.8674 0.13277 0.0
C292 C 0.65066 0.87158 0.1082 0.0
C293 C 0.66146 0.86276 0.10195 0.0
H294 H 0.16747 0.79823 0.15754 0.0
H295 H 0.16171 0.7915 0.07136 0.0
H296 H 0.1114 0.76952 0.12035 0.0
H297 H 0.1933 0.79948 0.12759 0.0
H298 H 0.1919 0.801 0.09218 0.0
H299 H 0.20094 0.82796 0.15787 0.0
H300 H 0.23639 0.88357 0.12172 0.0
H301 H 0.20506 0.83239 0.07147 0.0
C302 C 0.15856 0.79421 0.13961 0.0
C303 C 0.13837 0.78371 0.14198 0.0
C304 C 0.16721 0.79773 0.11405 0.0
C305 C 0.15535 0.79042 0.09094 0.0
C306 C 0.13522 0.78034 0.09326 0.0
C307 C 0.12698 0.77795 0.11864 0.0
C308 C 0.18864 0.80575 0.11165 0.0
C309 C 0.2005 0.82775 0.11434 0.0
C310 C 0.20595 0.83675 0.14007 0.0
C311 C 0.21921 0.85683 0.14273 0.0
C312 C 0.22602 0.86805 0.1197 0.0
C313 C 0.22111 0.85941 0.09409 0.0
C314 C 0.20827 0.83923 0.09131 0.0
H315 H 0.37809 0.20858 0.85583 0.0
H316 H 0.37756 0.21399 0.94212 0.0
H317 H 0.34781 0.23381 0.89331 0.0
H318 H 0.40223 0.20725 0.88484 0.0
H319 H 0.40069 0.20785 0.92048 0.0
H320 H 0.37945 0.17679 0.85839 0.0
H321 H 0.36268 0.12396 0.90005 0.0
H322 H 0.38508 0.17782 0.94472 0.0
C323 C 0.37258 0.21188 0.87379 0.0
C324 C 0.36205 0.22133 0.87157 0.0
C325 C 0.37772 0.20851 0.89935 0.0
C326 C 0.37229 0.21489 0.92254 0.0
C327 C 0.36141 0.22391 0.92032 0.0
C328 C 0.35556 0.22611 0.89495 0.0
C329 C 0.3919 0.20163 0.90181 0.0
C330 C 0.38217 0.17966 0.9017 0.0
C331 C 0.37707 0.16914 0.87703 0.0
C332 C 0.37047 0.14912 0.8763 0.0
C333 C 0.36782 0.13946 0.90046 0.0
C334 C 0.37315 0.14964 0.92505 0.0
C335 C 0.38028 0.16977 0.92577 0.0
H336 H 0.8543 0.18976 0.84895 0.0
H337 H 0.86501 0.1981 0.93444 0.0
H338 H 0.89154 0.24702 0.88241 0.0
H339 H 0.85142 0.16282 0.88063 0.0
H340 H 0.84939 0.16585 0.91578 0.0
H341 H 0.82617 0.16091 0.84867 0.0
H342 H 0.76929 0.13053 0.88147 0.0
H343 H 0.81832 0.15605 0.93441 0.0
C344 C 0.86058 0.19931 0.86636 0.0
C345 C 0.87244 0.21947 0.86275 0.0
C346 C 0.85742 0.19144 0.89227 0.0
C347 C 0.8667 0.20401 0.91456 0.0
C348 C 0.87879 0.22415 0.91106 0.0
C349 C 0.88136 0.23163 0.88523 0.0
C350 C 0.84631 0.16957 0.89573 0.0
C351 C 0.82478 0.16051 0.89198 0.0
C352 C 0.81679 0.15663 0.86589 0.0
C353 C 0.79673 0.14613 0.86186 0.0
C354 C 0.78472 0.1398 0.88435 0.0
C355 C 0.79227 0.1433 0.91051 0.0
C356 C 0.81237 0.15381 0.91429 0.0
H357 H 0.83419 0.63661 0.84717 0.0
H358 H 0.8289 0.61637 0.92807 0.0
H359 H 0.88471 0.65025 0.89314 0.0
H360 H 0.8042 0.60602 0.8642 0.0
H361 H 0.80112 0.60216 0.89933 0.0
H362 H 0.80165 0.63245 0.84333 0.0
H363 H 0.76452 0.64743 0.88607 0.0
H364 H 0.78971 0.6195 0.92727 0.0
C365 C 0.84085 0.63636 0.86586 0.0
C366 C 0.86104 0.64533 0.86761 0.0
C367 C 0.82909 0.6261 0.88772 0.0
C368 C 0.83777 0.62499 0.91158 0.0
C369 C 0.85787 0.63412 0.91363 0.0
C370 C 0.8693 0.64435 0.89182 0.0
C371 C 0.80746 0.61376 0.88407 0.0
C372 C 0.79758 0.62547 0.88539 0.0
C373 C 0.79511 0.63348 0.86183 0.0
C374 C 0.78324 0.6416 0.86174 0.0
C375 C 0.77458 0.64229 0.88587 0.0
C376 C 0.77702 0.63463 0.90945 0.0
C377 C 0.78857 0.62626 0.9093 0.0
H378 H 0.83273 0.68056 0.50383 0.0
H379 H 0.81503 0.67761 0.42162 0.0
H380 H 0.80099 0.70766 0.48142 0.0
H381 H 0.82703 0.65319 0.46728 0.0
H382 H 0.83029 0.66042 0.43326 0.0
H383 H 0.8541 0.66701 0.49925 0.0
H384 H 0.91074 0.69601 0.46528 0.0
H385 H 0.86229 0.68523 0.41685 0.0
C386 C 0.82641 0.68495 0.48844 0.0
C387 C 0.81698 0.69497 0.49589 0.0
C388 C 0.82652 0.67938 0.46141 0.0
C389 C 0.8164 0.68333 0.44194 0.0
C390 C 0.80669 0.69313 0.44921 0.0
C391 C 0.8083 0.69997 0.4758 0.0
C392 C 0.83422 0.66615 0.45428 0.0
C393 C 0.85582 0.67591 0.45805 0.0
C394 C 0.86359 0.67449 0.48266 0.0
C395 C 0.8834 0.6815 0.48521 0.0
C396 C 0.89547 0.69072 0.46341 0.0
C397 C 0.88808 0.69213 0.43874 0.0
C398 C 0.8682 0.68474 0.43612 0.0
H399 H 0.33376 0.15136 0.50423 0.0
H400 H 0.3292 0.14391 0.41792 0.0
H401 H 0.31466 0.09523 0.46772 0.0
H402 H 0.35151 0.17971 0.47318 0.0
H403 H 0.34684 0.17619 0.43787 0.0
H404 H 0.31775 0.16744 0.50186 0.0
H405 H 0.29502 0.2024 0.47628 0.0
H406 H 0.33308 0.19444 0.42466 0.0
C407 C 0.32958 0.142 0.48645 0.0
C408 C 0.3228 0.12204 0.48917 0.0
C409 C 0.33133 0.14998 0.46081 0.0
C410 C 0.32711 0.13784 0.43775 0.0
C411 C 0.32092 0.11803 0.44031 0.0
C412 C 0.31864 0.11034 0.46594 0.0
C413 C 0.33991 0.17175 0.45787 0.0
C414 C 0.32545 0.17833 0.46159 0.0
C415 C 0.31584 0.17546 0.48626 0.0
C416 C 0.3051 0.18438 0.49196 0.0
C417 C 0.30317 0.19536 0.47203 0.0
C418 C 0.31369 0.19974 0.44814 0.0
C419 C 0.32445 0.19074 0.44268 0.0
H420 H 0.83186 0.12673 0.49139 0.0
H421 H 0.82515 0.12648 0.40553 0.0
H422 H 0.77541 0.09972 0.45592 0.0
H423 H 0.85746 0.13043 0.45754 0.0
H424 H 0.85591 0.13629 0.42377 0.0
H425 H 0.86194 0.15474 0.49565 0.0
H426 H 0.90158 0.21364 0.47369 0.0
H427 H 0.87247 0.16981 0.4119 0.0
C428 C 0.82279 0.12402 0.47397 0.0
C429 C 0.80266 0.113 0.47676 0.0
C430 C 0.83116 0.12972 0.44834 0.0
C431 C 0.81901 0.1238 0.42549 0.0
C432 C 0.79891 0.11302 0.42828 0.0
C433 C 0.79096 0.10858 0.45395 0.0
C434 C 0.85266 0.13847 0.44486 0.0
C435 C 0.86452 0.15989 0.45279 0.0
C436 C 0.8683 0.16553 0.48019 0.0
C437 C 0.88159 0.18491 0.48759 0.0
C438 C 0.89084 0.19876 0.4678 0.0
C439 C 0.8878 0.19347 0.4406 0.0
C440 C 0.87433 0.17408 0.43298 0.0
H441 H 0.04293 0.54024 0.19026 0.0
H442 H 0.04888 0.55208 0.2757 0.0
H443 H 0.02026 0.5732 0.22723 0.0
H444 H 0.06933 0.54053 0.21866 0.0
H445 H 0.06777 0.54062 0.25432 0.0
H446 H 0.04085 0.51108 0.19224 0.0
H447 H 0.02769 0.45725 0.22774 0.0
H448 H 0.05504 0.51 0.27542 0.0
C449 C 0.0396 0.54581 0.20815 0.0
C450 C 0.02984 0.55607 0.20564 0.0
C451 C 0.04604 0.5437 0.23351 0.0
C452 C 0.04298 0.55245 0.25637 0.0
C453 C 0.03341 0.5628 0.25397 0.0
C454 C 0.02661 0.56417 0.22887 0.0
C455 C 0.05895 0.53518 0.23557 0.0
C456 C 0.04812 0.51307 0.23439 0.0
C457 C 0.04025 0.50307 0.20977 0.0
C458 C 0.03256 0.48286 0.20726 0.0
C459 C 0.03268 0.47267 0.2297 0.0
C460 C 0.04065 0.48228 0.25418 0.0
C461 C 0.04824 0.50247 0.25668 0.0
H462 H 0.51909 0.52034 0.17041 0.0
H463 H 0.52439 0.52743 0.25674 0.0
H464 H 0.55409 0.57712 0.2065 0.0
H465 H 0.51088 0.4922 0.20103 0.0
H466 H 0.51 0.49531 0.23653 0.0
H467 H 0.48743 0.50121 0.17324 0.0
H468 H 0.4301 0.46573 0.2024 0.0
H469 H 0.47815 0.477 0.25204 0.0
C470 C 0.52418 0.52964 0.18824 0.0
C471 C 0.53608 0.54988 0.18545 0.0
C472 C 0.51917 0.5214 0.21396 0.0
C473 C 0.52732 0.53362 0.23691 0.0
C474 C 0.53984 0.55376 0.23417 0.0
C475 C 0.54381 0.56166 0.20854 0.0
C476 C 0.50688 0.49949 0.21685 0.0
C477 C 0.48543 0.4917 0.21404 0.0
C478 C 0.47788 0.49342 0.1895 0.0
C479 C 0.45793 0.48379 0.18489 0.0
C480 C 0.44551 0.47318 0.20575 0.0
C481 C 0.45247 0.46997 0.22967 0.0
C482 C 0.47254 0.4797 0.23399 0.0
H483 H 0.49887 0.95651 0.17498 0.0
H484 H 0.48905 0.94342 0.25914 0.0
H485 H 0.54676 0.97593 0.22946 0.0
H486 H 0.46757 0.93049 0.19105 0.0
H487 H 0.46336 0.92559 0.22587 0.0
H488 H 0.46448 0.95667 0.17077 0.0
H489 H 0.42682 0.97093 0.21358 0.0
H490 H 0.45206 0.94292 0.25448 0.0
C491 C 0.50446 0.95827 0.19525 0.0
C492 C 0.52445 0.96724 0.19956 0.0
C493 C 0.49153 0.95005 0.2168 0.0
C494 C 0.49884 0.95086 0.24279 0.0
C495 C 0.51879 0.96032 0.24729 0.0
C496 C 0.53137 0.96901 0.22586 0.0
C497 C 0.47011 0.93763 0.21129 0.0
C498 C 0.46003 0.94915 0.21267 0.0
C499 C 0.45771 0.95738 0.18922 0.0
C500 C 0.44581 0.96548 0.18925 0.0
C501 C 0.43687 0.96578 0.21331 0.0
C502 C 0.43924 0.95795 0.23677 0.0
C503 C 0.4509 0.94972 0.23657 0.0
H504 H 0.4971 0.01676 0.83534 0.0
H505 H 0.49398 0.02308 0.75008 0.0
H506 H 0.46502 0.04145 0.80466 0.0
H507 H 0.50042 0.99495 0.80094 0.0
H508 H 0.50349 1.00117 0.76647 0.0
H509 H 0.52662 0.01647 0.83492 0.0
H510 H 0.58334 0.04028 0.80214 0.0
H511 H 0.53509 0.02241 0.74932 0.0
C512 C 0.49274 0.02212 0.81866 0.0
C513 C 0.48118 0.03029 0.82341 0.0
C514 C 0.49762 0.01963 0.79228 0.0
C515 C 0.49101 0.02569 0.77049 0.0
C516 C 0.47963 0.03407 0.775 0.0
C517 C 0.47502 0.03641 0.80143 0.0
C518 C 0.50687 0.00754 0.78723 0.0
C519 C 0.52847 0.01885 0.79171 0.0
C520 C 0.5362 0.02144 0.81787 0.0
C521 C 0.55612 0.02957 0.82191 0.0
C522 C 0.56818 0.03524 0.79943 0.0
C523 C 0.56085 0.03291 0.77328 0.0
C524 C 0.54095 0.02483 0.76952 0.0
H525 H 0.01075 0.48787 0.82886 0.0
H526 H 0.99412 0.478 0.7451 0.0
H527 H 0.98452 0.43025 0.79381 0.0
H528 H 0.02338 0.51519 0.79714 0.0
H529 H 0.01552 0.51084 0.76285 0.0
H530 H 0.99121 0.50213 0.83111 0.0
H531 H 0.96611 0.53642 0.8128 0.0
H532 H 1.00205 0.5302 0.75488 0.0
C533 C 0.00384 0.47796 0.81188 0.0
C534 C 0.99759 0.45812 0.81435 0.0
C535 C 1.0021 0.48523 0.7871 0.0
C536 C 0.99452 0.47243 0.76458 0.0
C537 C 0.98816 0.45257 0.76703 0.0
C538 C 0.98926 0.44557 0.79205 0.0
C539 C 0.01051 0.50692 0.78388 0.0
C540 C 0.99649 0.51356 0.79097 0.0
C541 C 0.9883 0.51028 0.81678 0.0
C542 C 0.97752 0.5187 0.82497 0.0
C543 C 0.97437 0.52984 0.80662 0.0
C544 C 0.98372 0.53482 0.78179 0.0
C545 C 0.99439 0.52618 0.77374 0.0
H546 H 0.50517 0.47061 0.82099 0.0
H547 H 0.49726 0.45561 0.73641 0.0
H548 H 0.44822 0.43671 0.78704 0.0
H549 H 0.52989 0.46708 0.79066 0.0
H550 H 0.52838 0.46896 0.75538 0.0
H551 H 0.53793 0.49539 0.82169 0.0
H552 H 0.57411 0.5512 0.78663 0.0
H553 H 0.54212 0.50068 0.73537 0.0
C554 C 0.49581 0.46444 0.80359 0.0
C555 C 0.47568 0.45427 0.80706 0.0
C556 C 0.50383 0.46556 0.77797 0.0
C557 C 0.4914 0.45607 0.75585 0.0
C558 C 0.47135 0.44599 0.75916 0.0
C559 C 0.4637 0.4456 0.78451 0.0
C560 C 0.52527 0.47361 0.77505 0.0
C561 C 0.53741 0.49559 0.77816 0.0
C562 C 0.54299 0.50431 0.80404 0.0
C563 C 0.55642 0.52431 0.80708 0.0
C564 C 0.56357 0.53574 0.7843 0.0
C565 C 0.55862 0.5274 0.75853 0.0
C566 C 0.54541 0.5073 0.75534 0.0
H567 H 0.71151 0.87646 0.51414 0.0
H568 H 0.70981 0.87731 0.60068 0.0
H569 H 0.68038 0.89932 0.55549 0.0
H570 H 0.73425 0.8721 0.54071 0.0
H571 H 0.7345 0.87399 0.57643 0.0
H572 H 0.71097 0.84098 0.51704 0.0
H573 H 0.69297 0.7893 0.56236 0.0
H574 H 0.71862 0.84493 0.60313 0.0
C575 C 0.70582 0.87888 0.5326 0.0
C576 C 0.69515 0.88828 0.53182 0.0
C577 C 0.71071 0.87431 0.55747 0.0
C578 C 0.70484 0.87929 0.58148 0.0
C579 C 0.6938 0.8882 0.58071 0.0
C580 C 0.68832 0.89177 0.55591 0.0
C581 C 0.7248 0.86725 0.55866 0.0
C582 C 0.71473 0.84531 0.56007 0.0
C583 C 0.70873 0.83392 0.53616 0.0
C584 C 0.70135 0.81375 0.53678 0.0
C585 C 0.69878 0.8049 0.56164 0.0
C586 C 0.70513 0.81598 0.58548 0.0
C587 C 0.71308 0.83623 0.58478 0.0
H588 H 0.18851 0.85483 0.5092 0.0
H589 H 0.1915 0.86044 0.5957 0.0
H590 H 0.22314 0.91098 0.54747 0.0
H591 H 0.17936 0.82621 0.53847 0.0
H592 H 0.17846 0.82869 0.57411 0.0
H593 H 0.15611 0.83665 0.51208 0.0
H594 H 0.09868 0.80028 0.54056 0.0
H595 H 0.14654 0.80935 0.58875 0.0
C596 C 0.19338 0.86387 0.52729 0.0
C597 C 0.20558 0.88415 0.52522 0.0
C598 C 0.1877 0.8552 0.55266 0.0
C599 C 0.19512 0.867 0.5761 0.0
C600 C 0.20774 0.88719 0.57418 0.0
C601 C 0.21269 0.89552 0.54881 0.0
C602 C 0.17538 0.83324 0.5547 0.0
C603 C 0.15397 0.8256 0.55201 0.0
C604 C 0.14651 0.82831 0.52804 0.0
C605 C 0.12657 0.81901 0.52356 0.0
C606 C 0.11409 0.80759 0.54389 0.0
C607 C 0.12099 0.80332 0.56696 0.0
C608 C 0.14102 0.81282 0.57129 0.0
H609 H 0.16934 0.29642 0.51588 0.0
H610 H 0.16096 0.28456 0.60045 0.0
H611 H 0.21812 0.31559 0.56861 0.0
H612 H 0.1381 0.27148 0.53306 0.0
H613 H 0.13467 0.26648 0.56791 0.0
H614 H 0.13572 0.29859 0.51429 0.0
H615 H 0.09873 0.3127 0.55922 0.0
H616 H 0.12336 0.28313 0.59748 0.0
C617 C 0.1753 0.29837 0.53595 0.0
C618 C 0.19534 0.30697 0.53948 0.0
C619 C 0.16275 0.2907 0.55801 0.0
C620 C 0.17048 0.29165 0.58372 0.0
C621 C 0.19047 0.30073 0.58748 0.0
C622 C 0.2027 0.30895 0.56556 0.0
C623 C 0.14121 0.27856 0.55338 0.0
C624 C 0.13141 0.29033 0.55588 0.0
C625 C 0.12912 0.29911 0.53302 0.0
C626 C 0.11734 0.30733 0.53389 0.0
C627 C 0.10871 0.30746 0.55833 0.0
C628 C 0.11099 0.29904 0.58124 0.0
C629 C 0.12235 0.29048 0.58008 0.0
C630 C 0.99897 0.41835 0.07038 0.0
C631 C 0.00851 0.40788 0.07019 0.0
C632 C 1.00321 0.43288 0.08998 0.0
C633 C 0.01688 0.43653 0.11031 0.0
C634 C 0.02704 0.42643 0.10967 0.0
C635 C 0.02292 0.41238 0.0893 0.0
C636 C 0.99254 0.44377 0.08947 0.0
C637 C 0.04149 0.4297 0.13131 0.0
C638 C 0.03774 0.48051 0.1579 0.0
C639 C 0.02646 0.47241 0.18082 0.0
C640 C 0.03416 0.46931 0.13417 0.0
C641 C 0.01925 0.44947 0.13365 0.0
C642 C 0.00717 0.44156 0.15619 0.0
C643 C 0.01074 0.45322 0.17933 0.0
C644 C 0.04694 0.47841 0.11019 0.0
C645 C 0.99114 0.42044 0.15648 0.0
H646 H 0.988 0.41503 0.0553 0.0
H647 H 0.03025 0.40422 0.08913 0.0
H648 H 0.98225 0.43912 0.10638 0.0
H649 H 1.00276 0.45968 0.09211 0.0
H650 H 0.98436 0.44109 0.07042 0.0
H651 H 0.04881 0.42138 0.12719 0.0
H652 H 0.05258 0.44541 0.13327 0.0
H653 H 0.03409 0.42516 0.15093 0.0
H654 H 0.04999 0.49528 0.15887 0.0
H655 H 1.00172 0.44701 0.19678 0.0
H656 H 0.03816 0.47465 0.09153 0.0
H657 H 0.05669 0.47258 0.10774 0.0
H658 H 0.05589 0.49453 0.1124 0.0
H659 H 0.98119 0.41705 0.13924 0.0
H660 H 0.98268 0.41673 0.17532 0.0
H661 H 0.99731 0.41089 0.15435 0.0
C662 C 0.575 0.60841 0.04749 0.0
C663 C 0.59507 0.61989 0.05069 0.0
C664 C 0.56351 0.5952 0.06717 0.0
C665 C 0.57226 0.59389 0.09094 0.0
C666 C 0.59251 0.60558 0.09436 0.0
C667 C 0.60372 0.61823 0.07397 0.0
C668 C 0.54204 0.58258 0.06248 0.0
C669 C 0.60232 0.60497 0.11975 0.0
C670 C 0.54363 0.57734 0.15515 0.0
C671 C 0.54194 0.55917 0.15881 0.0
C672 C 0.55296 0.58853 0.13274 0.0
C673 C 0.56022 0.5811 0.11294 0.0
C674 C 0.5571 0.56207 0.1153 0.0
C675 C 0.54815 0.55136 0.13839 0.0
C676 C 0.55613 0.60882 0.13118 0.0
C677 C 0.56412 0.55342 0.09413 0.0
H678 H 0.56832 0.60941 0.02924 0.0
H679 H 0.61924 0.62708 0.07642 0.0
H680 H 0.53743 0.56698 0.0645 0.0
H681 H 0.53423 0.58602 0.07789 0.0
H682 H 0.53764 0.58462 0.04229 0.0
H683 H 0.61818 0.6151 0.11933 0.0
H684 H 0.59645 0.60888 0.13737 0.0
H685 H 0.59937 0.58998 0.12273 0.0
H686 H 0.53845 0.58325 0.17059 0.0
H687 H 0.54694 0.53737 0.14106 0.0
H688 H 0.55093 0.61078 0.11161 0.0
H689 H 0.57179 0.61971 0.13259 0.0
H690 H 0.54871 0.61202 0.14754 0.0
H691 H 0.56006 0.55554 0.07377 0.0
H692 H 0.55818 0.5376 0.09696 0.0
H693 H 0.58007 0.56098 0.09502 0.0
C694 C 0.37604 0.96451 0.08113 0.0
C695 C 0.38369 0.97798 0.06053 0.0
C696 C 0.38808 0.9642 0.10112 0.0
C697 C 0.40831 0.97711 0.09968 0.0
C698 C 0.41608 0.99056 0.07857 0.0
C699 C 0.40361 0.99108 0.05951 0.0
C700 C 0.37915 0.95009 0.12379 0.0
C701 C 0.43755 0.00402 0.07571 0.0
C702 C 0.43613 0.98632 0.16484 0.0
C703 C 0.44029 0.97128 0.16403 0.0
C704 C 0.42622 0.98879 0.14371 0.0
C705 C 0.42118 0.97656 0.12052 0.0
C706 C 0.42712 0.96274 0.11833 0.0
C707 C 0.43634 0.96004 0.14026 0.0
C708 C 0.41989 0.00348 0.14714 0.0
C709 C 0.42275 0.95 0.09343 0.0
H710 H 0.36062 0.95437 0.08174 0.0
H711 H 0.40948 1.00126 0.04319 0.0
H712 H 0.38415 0.93952 0.12316 0.0
H713 H 0.38381 0.95807 0.14341 0.0
H714 H 0.36316 0.94185 0.1228 0.0
H715 H 0.44127 0.01344 0.05796 0.0
H716 H 0.44365 0.01347 0.09395 0.0
H717 H 0.44463 0.9953 0.07373 0.0
H718 H 0.43964 0.99552 0.18274 0.0
H719 H 0.4394 0.94836 0.13926 0.0
H720 H 0.40394 0.99569 0.14838 0.0
H721 H 0.42415 0.01306 0.12955 0.0
H722 H 0.42606 0.01273 0.16558 0.0
H723 H 0.40715 0.93887 0.09264 0.0
H724 H 0.43096 0.94235 0.09309 0.0
H725 H 0.42619 0.9588 0.07509 0.0
C726 C 0.39568 1.0008 0.91685 0.0
C727 C 0.39829 0.00581 0.94422 0.0
C728 C 0.41155 0.00728 0.89978 0.0
C729 C 0.43047 0.01837 0.91064 0.0
C730 C 0.43314 0.02366 0.9383 0.0
C731 C 0.41695 0.01755 0.95473 0.0
C732 C 0.40805 0.00188 0.87022 0.0
C733 C 0.45302 0.03493 0.95076 0.0
C734 C 0.46538 0.01296 0.86587 0.0
C735 C 0.47265 0.02967 0.85026 0.0
C736 C 0.45293 0.00994 0.88738 0.0
C737 C 0.44723 0.02368 0.89292 0.0
C738 C 0.45583 0.04134 0.87882 0.0
C739 C 0.46874 0.04428 0.85804 0.0
C740 C 0.44464 0.99125 0.90268 0.0
C741 C 0.45004 0.0563 0.88387 0.0
H742 H 0.3812 0.9917 0.90885 0.0
H743 H 0.41888 0.0211 0.97607 0.0
H744 H 0.41623 0.0151 0.85798 0.0
H745 H 0.41327 0.99186 0.86486 0.0
H746 H 0.39255 0.99464 0.86467 0.0
H747 H 0.4527 0.03936 0.97197 0.0
H748 H 0.45966 0.02576 0.95019 0.0
H749 H 0.46248 0.04817 0.93916 0.0
H750 H 0.46822 1.00153 0.86017 0.0
H751 H 0.47473 0.0575 0.84659 0.0
H752 H 0.42956 0.98113 0.89599 0.0
H753 H 0.44438 0.99412 0.92454 0.0
H754 H 0.45298 0.98389 0.89936 0.0
H755 H 0.43526 0.05058 0.87583 0.0
H756 H 0.45991 0.07031 0.874 0.0
H757 H 0.44974 0.05918 0.90569 0.0
C758 C 0.01157 0.40925 0.94595 0.0
C759 C 0.99397 0.3918 0.9495 0.0
C760 C 0.01383 0.42201 0.92541 0.0
C761 C 0.99826 0.41702 0.90768 0.0
C762 C 0.98056 0.39929 0.91092 0.0
C763 C 0.97857 0.38699 0.93195 0.0
C764 C 0.03282 0.44091 0.92283 0.0
C765 C 0.96376 0.39322 0.89203 0.0
C766 C 0.99499 0.45388 0.86442 0.0
C767 C 1.00052 0.45014 0.83936 0.0
C768 C 0.99507 0.44388 0.88729 0.0
C769 C 1.00065 0.42976 0.88485 0.0
C770 C 0.00726 0.42679 0.8599 0.0
C771 C 0.00733 0.43717 0.8376 0.0
C772 C 0.98833 0.44774 0.91374 0.0
C773 C 0.01328 0.41186 0.85634 0.0
H774 H 0.02345 0.41319 0.95968 0.0
H775 H 0.96496 0.37353 0.93457 0.0
H776 H 0.03927 0.44132 0.90298 0.0
H777 H 0.03046 0.4534 0.92392 0.0
H778 H 0.0433 0.44294 0.93878 0.0
H779 H 0.951 0.37896 0.89728 0.0
H780 H 0.95955 0.4044 0.89241 0.0
H781 H 0.96801 0.39213 0.87114 0.0
H782 H 0.98978 0.46393 0.86589 0.0
H783 H 0.01209 0.4346 0.81838 0.0
H784 H 0.99863 0.45003 0.93007 0.0
H785 H 0.97421 0.43487 0.91894 0.0
H786 H 0.98669 0.46068 0.91308 0.0
H787 H 0.02441 0.41441 0.87146 0.0
H788 H 0.01908 0.41212 0.83598 0.0
H789 H 1.00069 0.39706 0.85957 0.0
C790 C 0.60069 0.609 0.90911 0.0
C791 C 0.60848 0.60778 0.93354 0.0
C792 C 0.59187 0.59303 0.89114 0.0
C793 C 0.59048 0.57526 0.898 0.0
C794 C 0.59824 0.57388 0.9227 0.0
C795 C 0.60736 0.59027 0.94011 0.0
C796 C 0.58419 0.59526 0.86468 0.0
C797 C 0.59673 0.55508 0.93081 0.0
C798 C 0.55318 0.53353 0.85439 0.0
C799 C 0.5648 0.53354 0.8335 0.0
C800 C 0.56149 0.54596 0.877 0.0
C801 C 0.58177 0.55865 0.87837 0.0
C802 C 0.59356 0.55736 0.85839 0.0
C803 C 0.58491 0.54471 0.83629 0.0
C804 C 0.54851 0.54664 0.89828 0.0
C805 C 0.6152 0.57064 0.85894 0.0
H806 H 0.60158 0.62254 0.90393 0.0
H807 H 0.61314 0.58921 0.95918 0.0
H808 H 0.59137 0.59229 0.84777 0.0
H809 H 0.56853 0.58449 0.86292 0.0
H810 H 0.58649 0.61009 0.86242 0.0
H811 H 0.60318 0.5563 0.95095 0.0
H812 H 0.58137 0.54323 0.93107 0.0
H813 H 0.60409 0.55069 0.91589 0.0
H814 H 0.53763 0.5248 0.85225 0.0
H815 H 0.59388 0.54443 0.82024 0.0
H816 H 0.54761 0.55989 0.89581 0.0
H817 H 0.55445 0.54749 0.91865 0.0
H818 H 0.5337 0.53369 0.8969 0.0
H819 H 0.61893 0.58571 0.85443 0.0
H820 H 0.62237 0.56603 0.84393 0.0
H821 H 0.62114 0.57106 0.87914 0.0
C822 C 0.97971 0.57354 0.96113 0.0
C823 C 0.99144 0.59208 0.9505 0.0
C824 C 0.97364 0.55664 0.94514 0.0
C825 C 0.9791 0.55851 0.91781 0.0
C826 C 0.99008 0.57732 0.90673 0.0
C827 C 0.99642 0.59388 0.92338 0.0
C828 C 0.96247 0.53697 0.95797 0.0
C829 C 0.99571 0.58003 0.87745 0.0
C830 C 0.98858 0.52641 0.87271 0.0
C831 C 0.97363 0.52046 0.85385 0.0
C832 C 0.98911 0.53658 0.89631 0.0
C833 C 0.9746 0.5412 0.90067 0.0
C834 C 0.95798 0.53245 0.88404 0.0
C835 C 0.95751 0.52175 0.86105 0.0
C836 C 0.00654 0.54468 0.91451 0.0
C837 C 0.94199 0.53667 0.8882 0.0
H838 H 0.97612 0.57224 0.9823 0.0
H839 H 0.00547 0.60828 0.91528 0.0
H840 H 0.95135 0.5259 0.9441 0.0
H841 H 0.97254 0.53196 0.96305 0.0
H842 H 0.9554 0.53767 0.97678 0.0
H843 H 1.00262 0.5955 0.87153 0.0
H844 H 0.00597 0.57499 0.87346 0.0
H845 H 0.98284 0.57114 0.86444 0.0
H846 H 1.001 0.52525 0.86773 0.0
H847 H 0.94554 0.5165 0.84703 0.0
H848 H 1.0024 0.5443 0.93587 0.0
H849 H 0.01678 0.56012 0.90954 0.0
H850 H 0.0141 0.53644 0.91206 0.0
H851 H 0.9389 0.53703 0.90986 0.0
H852 H 0.92854 0.52569 0.87764 0.0
H853 H 0.94653 0.55122 0.88009 0.0
C854 C 0.4081 0.38585 0.91718 0.0
C855 C 0.40737 0.39388 0.94204 0.0
C856 C 0.41981 0.39787 0.89656 0.0
C857 C 0.43137 0.41831 0.9013 0.0
C858 C 0.43056 0.42642 0.92649 0.0
C859 C 0.41842 0.41407 0.94652 0.0
C860 C 0.41999 0.38869 0.86982 0.0
C861 C 0.44289 0.44802 0.93251 0.0
C862 C 0.47394 0.44281 0.85408 0.0
C863 C 0.4667 0.44954 0.83416 0.0
C864 C 0.46308 0.43371 0.87701 0.0
C865 C 0.44444 0.43103 0.87989 0.0
C866 C 0.43769 0.43908 0.86089 0.0
C867 C 0.44901 0.44845 0.83846 0.0
C868 C 0.47102 0.42579 0.89722 0.0
C869 C 0.41791 0.43652 0.86312 0.0
H870 H 0.3996 0.37017 0.91397 0.0
H871 H 0.41794 0.42013 0.96602 0.0
H872 H 0.41649 0.39556 0.85341 0.0
H873 H 0.43461 0.39124 0.86592 0.0
H874 H 0.40953 0.37274 0.869 0.0
H875 H 0.44019 0.45206 0.95286 0.0
H876 H 0.45834 0.45263 0.9311 0.0
H877 H 0.44013 0.45633 0.91744 0.0
H878 H 0.4875 0.44343 0.85094 0.0
H879 H 0.44346 0.45392 0.82338 0.0
H880 H 0.46311 0.40964 0.89539 0.0
H881 H 0.46894 0.42966 0.91798 0.0
H882 H 0.4866 0.43138 0.89415 0.0
H883 H 0.40681 0.42094 0.85957 0.0
H884 H 0.41561 0.44534 0.84832 0.0
H885 H 0.41562 0.44065 0.8836 0.0
C886 C 0.60788 0.03905 0.96423 0.0
C887 C 0.6189 0.03018 0.96106 0.0
C888 C 0.59564 0.03814 0.94363 0.0
C889 C 0.59487 0.02868 0.91891 0.0
C890 C 0.60575 0.01943 0.91574 0.0
C891 C 0.61742 0.02004 0.93705 0.0
C892 C 0.58381 0.04762 0.94814 0.0
C893 C 0.60567 0.00958 0.88949 0.0
C894 C 0.55538 0.01499 0.86664 0.0
C895 C 0.56458 0.03055 0.84891 0.0
C896 C 0.56474 0.01452 0.89013 0.0
C897 C 0.58388 0.02974 0.8957 0.0
C898 C 0.59291 0.04584 0.87849 0.0
C899 C 0.58305 0.0462 0.85564 0.0
C900 C 0.5544 0.99739 0.90845 0.0
C901 C 0.61337 0.06231 0.8835 0.0
H902 H 0.60878 0.04666 0.98296 0.0
H903 H 0.62596 0.01321 0.93456 0.0
H904 H 0.58909 0.0604 0.93505 0.0
H905 H 0.56852 0.03727 0.94264 0.0
H906 H 0.58453 0.0526 0.96934 0.0
H907 H 0.61449 0.00261 0.89052 0.0
H908 H 0.59072 0.9983 0.8837 0.0
H909 H 0.61143 0.02045 0.87333 0.0
H910 H 0.5412 0.00275 0.86162 0.0
H911 H 0.59012 0.05851 0.84244 0.0
H912 H 0.55567 0.00253 0.92965 0.0
H913 H 0.56116 0.98836 0.90714 0.0
H914 H 0.53888 0.98804 0.90313 0.0
H915 H 0.61467 0.06903 0.90368 0.0
H916 H 0.61825 0.07385 0.86829 0.0
H917 H 0.62324 0.05653 0.88312 0.0
C918 C 0.59733 0.98973 0.07579 0.0
C919 C 0.6134 0.00851 0.07995 0.0
C920 C 0.58172 0.98208 0.09361 0.0
C921 C 0.58234 0.99334 0.11635 0.0
C922 C 0.59867 0.01215 0.1209 0.0
C923 C 0.61391 0.01955 0.10258 0.0
C924 C 0.56447 0.96203 0.08796 0.0
C925 C 0.60009 0.02446 0.14523 0.0
C926 C 0.53719 0.98274 0.15468 0.0
C927 C 0.53823 0.97279 0.17684 0.0
C928 C 0.55109 0.98895 0.13425 0.0
C929 C 0.56638 0.98522 0.13618 0.0
C930 C 0.56707 0.9746 0.15803 0.0
C931 C 0.5529 0.96834 0.17783 0.0
C932 C 0.54973 0.99998 0.11099 0.0
C933 C 0.58315 0.97038 0.16099 0.0
H934 H 0.59671 0.98119 0.05821 0.0
H935 H 0.62629 0.03405 0.10601 0.0
H936 H 0.56235 0.95229 0.10481 0.0
H937 H 0.55126 0.9629 0.08642 0.0
H938 H 0.56604 0.95532 0.06909 0.0
H939 H 0.61376 0.0388 0.14582 0.0
H940 H 0.58786 0.02703 0.14532 0.0
H941 H 0.59913 0.01664 0.16384 0.0
H942 H 0.52586 0.98614 0.1537 0.0
H943 H 0.55347 0.96008 0.19441 0.0
H944 H 0.55059 0.99331 0.09166 0.0
H945 H 0.56206 0.01523 0.11176 0.0
H946 H 0.53614 1.00026 0.11121 0.0
H947 H 0.58391 0.96254 0.14283 0.0
H948 H 0.58129 0.96149 0.17884 0.0
H949 H 0.59717 0.98428 0.16294 0.0
C950 C 0.00762 0.59191 0.06682 0.0
C951 C 0.01801 0.61229 0.06898 0.0
C952 C 0.0084 0.58056 0.08733 0.0
C953 C 0.01938 0.58988 0.11086 0.0
C954 C 0.02948 0.61052 0.11335 0.0
C955 C 0.02898 0.62152 0.09208 0.0
C956 C 0.99796 0.55868 0.08351 0.0
C957 C 0.04089 0.62099 0.13842 0.0
C958 C 0.0088 0.56252 0.17598 0.0
C959 C 0.02519 0.56091 0.17897 0.0
C960 C 0.00642 0.57141 0.15355 0.0
C961 C 0.02035 0.57816 0.13298 0.0
C962 C 0.03598 0.57495 0.13463 0.0
C963 C 0.03836 0.5666 0.15776 0.0
C964 C 0.98968 0.57476 0.15281 0.0
C965 C 0.05078 0.58131 0.11264 0.0
H966 H 0.99941 0.58489 0.04861 0.0
H967 H 0.03708 0.63731 0.09352 0.0
H968 H 0.00845 0.55369 0.08435 0.0
H969 H 0.98755 0.5515 0.09999 0.0
H970 H 0.99005 0.55372 0.06403 0.0
H971 H 0.04704 0.637 0.13775 0.0
H972 H 0.03155 0.61533 0.15634 0.0
H973 H 0.05287 0.61822 0.14104 0.0
H974 H 0.99826 0.55771 0.19192 0.0
H975 H 0.05113 0.56556 0.15977 0.0
H976 H 0.98174 0.56937 0.13345 0.0
H977 H 0.9952 0.59064 0.15436 0.0
H978 H 0.97942 0.56747 0.16946 0.0
H979 H 0.04361 0.57664 0.09265 0.0
H980 H 0.06034 0.57528 0.11505 0.0
H981 H 0.05983 0.59745 0.1129 0.0
C982 C 0.40032 0.42678 0.05159 0.0
C983 C 0.39559 0.40846 0.06098 0.0
C984 C 0.41027 0.44355 0.06817 0.0
C985 C 0.41511 0.44172 0.09479 0.0
C986 C 0.4091 0.42298 0.1048 0.0
C987 C 0.39971 0.40662 0.0876 0.0
C988 C 0.41669 0.4632 0.05649 0.0
C989 C 0.41344 0.42027 0.13334 0.0
C990 C 0.45845 0.47578 0.13622 0.0
C991 C 0.44981 0.48056 0.15714 0.0
C992 C 0.44781 0.46533 0.11335 0.0
C993 C 0.42801 0.45913 0.11178 0.0
C994 C 0.42009 0.46645 0.1307 0.0
C995 C 0.43126 0.47747 0.15296 0.0
C996 C 0.4571 0.45868 0.09277 0.0
C997 C 0.39914 0.46053 0.12948 0.0
H998 H 0.39727 0.42815 0.03083 0.0
H999 H 0.39591 0.39239 0.09479 0.0
H1000 H 0.41623 0.47333 0.07163 0.0
H1001 H 0.43181 0.46978 0.04969 0.0
H1002 H 0.40768 0.46191 0.03889 0.0
H1003 H 0.40597 0.40465 0.13873 0.0
H1004 H 0.42919 0.42655 0.1359 0.0
H1005 H 0.40904 0.42804 0.14769 0.0
H1006 H 0.47282 0.47822 0.13881 0.0
H1007 H 0.42473 0.48186 0.16848 0.0
H1008 H 0.45212 0.45907 0.07219 0.0
H1009 H 0.45293 0.4434 0.0967 0.0
H1010 H 0.47307 0.46786 0.09362 0.0
H1011 H 0.39434 0.45994 0.10847 0.0
H1012 H 0.39638 0.4707 0.14149 0.0
H1013 H 0.39026 0.44573 0.13777 0.0
C1014 C 0.68977 0.74955 0.40328 0.0
C1015 C 0.67177 0.73232 0.4049 0.0
C1016 C 0.69567 0.76447 0.42289 0.0
C1017 C 0.68344 0.76187 0.44482 0.0
C1018 C 0.66537 0.74439 0.4467 0.0
C1019 C 0.65969 0.72991 0.42659 0.0
C1020 C 0.71491 0.78305 0.42008 0.0
C1021 C 0.65212 0.74086 0.47013 0.0
C1022 C 0.70437 0.78842 0.51095 0.0
C1023 C 0.69822 0.80194 0.51183 0.0
C1024 C 0.70012 0.77568 0.48892 0.0
C1025 C 0.68988 0.7768 0.4668 0.0
C1026 C 0.68461 0.79118 0.46676 0.0
C1027 C 0.68877 0.80357 0.48941 0.0
C1028 C 0.70585 0.76046 0.4899 0.0
C1029 C 0.67398 0.793 0.44323 0.0
H1030 H 0.69904 0.75157 0.38635 0.0
H1031 H 0.64579 0.71658 0.42796 0.0
H1032 H 0.71292 0.79578 0.42032 0.0
H1033 H 0.72439 0.78498 0.43736 0.0
H1034 H 0.72235 0.78312 0.40124 0.0
H1035 H 0.63849 0.72653 0.46845 0.0
H1036 H 0.65949 0.74142 0.48917 0.0
H1037 H 0.64853 0.75249 0.4715 0.0
H1038 H 0.71227 0.78752 0.52785 0.0
H1039 H 0.6841 0.81407 0.48992 0.0
H1040 H 0.71438 0.76133 0.47194 0.0
H1041 H 0.69273 0.74569 0.48965 0.0
H1042 H 0.71445 0.76208 0.50815 0.0
H1043 H 0.68138 0.79353 0.42417 0.0
H1044 H 0.67282 0.80622 0.44503 0.0
H1045 H 0.65924 0.78 0.44191 0.0
C1046 C 0.24478 0.94204 0.38682 0.0
C1047 C 0.26493 0.95289 0.38897 0.0
C1048 C 0.23351 0.92928 0.40706 0.0
C1049 C 0.2426 0.92783 0.43036 0.0
C1050 C 0.26297 0.93892 0.43274 0.0
C1051 C 0.27391 0.95109 0.41178 0.0
C1052 C 0.2119 0.91726 0.40344 0.0
C1053 C 0.27316 0.93817 0.45761 0.0
C1054 C 0.21483 0.91238 0.49544 0.0
C1055 C 0.21225 0.8938 0.49887 0.0
C1056 C 0.22435 0.92343 0.47299 0.0
C1057 C 0.23085 0.91547 0.45288 0.0
C1058 C 0.227 0.89616 0.45513 0.0
C1059 C 0.21793 0.88561 0.47828 0.0
C1060 C 0.22835 0.94404 0.47156 0.0
C1061 C 0.23319 0.88696 0.43364 0.0
H1062 H 0.23783 0.94316 0.36894 0.0
H1063 H 0.2895 0.95947 0.41343 0.0
H1064 H 0.2068 0.90157 0.40562 0.0
H1065 H 0.20479 0.92127 0.41927 0.0
H1066 H 0.20716 0.91932 0.3835 0.0
H1067 H 0.28906 0.94786 0.45642 0.0
H1068 H 0.26799 0.94259 0.47554 0.0
H1069 H 0.26978 0.92304 0.46069 0.0
H1070 H 0.21002 0.91862 0.51092 0.0
H1071 H 0.21609 0.87132 0.48073 0.0
H1072 H 0.22274 0.9461 0.45242 0.0
H1073 H 0.24414 0.95444 0.47199 0.0
H1074 H 0.22179 0.94783 0.48849 0.0
H1075 H 0.22878 0.889 0.41348 0.0
H1076 H 0.22698 0.87112 0.43669 0.0
H1077 H 0.24913 0.89418 0.43377 0.0
C1078 C 0.07041 0.32946 0.40628 0.0
C1079 C 0.05072 0.31553 0.40808 0.0
C1080 C 0.08367 0.33031 0.4252 0.0
C1081 C 0.07693 0.31736 0.44693 0.0
C1082 C 0.05691 0.30382 0.44942 0.0
C1083 C 0.04408 0.30278 0.42961 0.0
C1084 C 0.10491 0.34445 0.42126 0.0
C1085 C 0.04905 0.29023 0.4728 0.0
C1086 C 0.107 0.30175 0.48529 0.0
C1087 C 0.1113 0.31305 0.50907 0.0
C1088 C 0.09705 0.30405 0.46399 0.0
C1089 C 0.09071 0.31753 0.46683 0.0
C1090 C 0.09617 0.32991 0.4899 0.0
C1091 C 0.10679 0.32784 0.51039 0.0
C1092 C 0.09224 0.29116 0.43916 0.0
C1093 C 0.08948 0.34426 0.494 0.0
H1094 H 0.07556 0.33908 0.38929 0.0
H1095 H 0.02885 0.29199 0.4309 0.0
H1096 H 0.11142 0.35363 0.43962 0.0
H1097 H 0.11235 0.33621 0.41763 0.0
H1098 H 0.10772 0.35413 0.40402 0.0
H1099 H 0.03304 0.28172 0.47294 0.0
H1100 H 0.0543 0.27987 0.47188 0.0
H1101 H 0.05429 0.29864 0.49205 0.0
H1102 H 0.11029 0.29024 0.48387 0.0
H1103 H 0.11056 0.3371 0.52827 0.0
H1104 H 0.09499 0.29978 0.42077 0.0
H1105 H 0.07672 0.27978 0.43917 0.0
H1106 H 0.10074 0.28381 0.43816 0.0
H1107 H 0.09248 0.35329 0.47601 0.0
H1108 H 0.09644 0.35407 0.51176 0.0
H1109 H 0.07364 0.33614 0.49696 0.0
C1110 C 0.06962 0.31757 0.27878 0.0
C1111 C 0.06507 0.33127 0.28875 0.0
C1112 C 0.0843 0.32271 0.25999 0.0
C1113 C 0.09472 0.34204 0.25076 0.0
C1114 C 0.09078 0.35617 0.26149 0.0
C1115 C 0.07601 0.35063 0.28042 0.0
C1116 C 0.08801 0.30718 0.24905 0.0
C1117 C 0.10158 0.37692 0.25206 0.0
C1118 C 0.13933 0.35645 0.20851 0.0
C1119 C 0.13165 0.35359 0.1825 0.0
C1120 C 0.12759 0.35311 0.23113 0.0
C1121 C 0.1078 0.34665 0.22746 0.0
C1122 C 0.10004 0.34358 0.2012 0.0
C1123 C 0.112 0.34698 0.17914 0.0
C1124 C 0.13629 0.35644 0.25889 0.0
C1125 C 0.07898 0.33646 0.19631 0.0
H1126 H 0.0615 0.30263 0.28534 0.0
H1127 H 0.07272 0.36136 0.28813 0.0
H1128 H 0.08339 0.30392 0.22767 0.0
H1129 H 0.10363 0.3124 0.24982 0.0
H1130 H 0.08012 0.29343 0.26032 0.0
H1131 H 0.09836 0.38661 0.26444 0.0
H1132 H 0.11734 0.38281 0.25265 0.0
H1133 H 0.09756 0.37729 0.23089 0.0
H1134 H 0.1545 0.36151 0.21112 0.0
H1135 H 0.10589 0.34428 0.15905 0.0
H1136 H 0.129 0.34264 0.27008 0.0
H1137 H 0.13402 0.36715 0.27031 0.0
H1138 H 0.15198 0.36188 0.25834 0.0
H1139 H 0.0699 0.32183 0.20501 0.0
H1140 H 0.0754 0.33545 0.17459 0.0
H1141 H 0.07506 0.34642 0.20643 0.0
C1142 C 0.67485 0.7442 0.27901 0.0
C1143 C 0.65714 0.72666 0.28109 0.0
C1144 C 0.6777 0.75781 0.25941 0.0
C1145 C 0.66266 0.75353 0.24102 0.0
C1146 C 0.64479 0.73578 0.24297 0.0
C1147 C 0.64217 0.72269 0.26318 0.0
C1148 C 0.6968 0.77673 0.25836 0.0
C1149 C 0.62855 0.73042 0.22332 0.0
C1150 C 0.66064 0.79111 0.19769 0.0
C1151 C 0.66672 0.78763 0.17291 0.0
C1152 C 0.66027 0.78091 0.22062 0.0
C1153 C 0.6659 0.76682 0.21849 0.0
C1154 C 0.67319 0.76422 0.1939 0.0
C1155 C 0.67375 0.77483 0.17158 0.0
C1156 C 0.65292 0.78448 0.24673 0.0
C1157 C 0.67926 0.74931 0.1906 0.0
H1158 H 0.68638 0.74747 0.29307 0.0
H1159 H 0.62848 0.70914 0.26469 0.0
H1160 H 0.70412 0.77744 0.23916 0.0
H1161 H 0.69448 0.78924 0.25902 0.0
H1162 H 0.70654 0.77843 0.27522 0.0
H1163 H 0.6155 0.71616 0.22774 0.0
H1164 H 0.6246 0.7418 0.22376 0.0
H1165 H 0.63329 0.72969 0.2026 0.0
H1166 H 0.6553 0.80106 0.19885 0.0
H1167 H 0.67894 0.77246 0.15261 0.0
H1168 H 0.66258 0.78613 0.26363 0.0
H1169 H 0.63847 0.77175 0.25094 0.0
H1170 H 0.65173 0.79769 0.24613 0.0
H1171 H 0.68991 0.75155 0.20633 0.0
H1172 H 0.68566 0.74991 0.1706 0.0
H1173 H 0.66654 0.73446 0.19303 0.0
C1174 C 0.27304 0.92175 0.27549 0.0
C1175 C 0.27422 0.93947 0.27008 0.0
C1176 C 0.26322 0.90558 0.25785 0.0
C1177 C 0.25479 0.90737 0.23406 0.0
C1178 C 0.25611 0.92529 0.22844 0.0
C1179 C 0.26565 0.94104 0.24663 0.0
C1180 C 0.26183 0.8866 0.26465 0.0
C1181 C 0.2477 0.92795 0.20296 0.0
C1182 C 0.24817 0.87771 0.1709 0.0
C1183 C 0.22802 0.8663 0.1689 0.0
C1184 C 0.25717 0.89023 0.193 0.0
C1185 C 0.24573 0.89112 0.21387 0.0
C1186 C 0.22545 0.87829 0.21316 0.0
C1187 C 0.21677 0.866 0.1905 0.0
C1188 C 0.27879 0.9037 0.19279 0.0
C1189 C 0.21285 0.87855 0.23538 0.0
H1190 H 0.27942 0.92039 0.2938 0.0
H1191 H 0.26657 0.95472 0.24232 0.0
H1192 H 0.2465 0.87466 0.26467 0.0
H1193 H 0.26924 0.88272 0.24914 0.0
H1194 H 0.26834 0.88733 0.28457 0.0
H1195 H 0.24982 0.94278 0.20177 0.0
H1196 H 0.25453 0.92541 0.1852 0.0
H1197 H 0.23204 0.91711 0.20172 0.0
H1198 H 0.25688 0.87762 0.15434 0.0
H1199 H 0.2012 0.85709 0.18899 0.0
H1200 H 0.2852 0.90365 0.2124 0.0
H1201 H 0.28226 0.91885 0.18947 0.0
H1202 H 0.28572 0.89963 0.1767 0.0
H1203 H 0.21918 0.87909 0.25533 0.0
H1204 H 0.19804 0.86558 0.23419 0.0
H1205 H 0.21184 0.89182 0.2339 0.0
C1206 C 0.64194 0.91084 0.28782 0.0
C1207 C 0.65416 0.92957 0.278 0.0
C1208 C 0.63606 0.89421 0.27131 0.0
C1209 C 0.64225 0.89653 0.24429 0.0
C1210 C 0.65357 0.91552 0.23392 0.0
C1211 C 0.65964 0.93179 0.25104 0.0
C1212 C 0.62436 0.87431 0.28333 0.0
C1213 C 0.66001 0.91871 0.20497 0.0
C1214 C 0.65336 0.86493 0.2006 0.0
C1215 C 0.63903 0.859 0.18075 0.0
C1216 C 0.65311 0.87499 0.22387 0.0
C1217 C 0.63845 0.87952 0.22695 0.0
C1218 C 0.62245 0.87095 0.20916 0.0
C1219 C 0.62276 0.86042 0.18646 0.0
C1220 C 0.66994 0.88301 0.24321 0.0
C1221 C 0.60632 0.8751 0.21195 0.0
H1222 H 0.6379 0.90915 0.30882 0.0
H1223 H 0.66901 0.94631 0.24348 0.0
H1224 H 0.61355 0.86358 0.26881 0.0
H1225 H 0.63413 0.86902 0.28881 0.0
H1226 H 0.61682 0.87474 0.3018 0.0
H1227 H 0.6671 0.93429 0.19951 0.0
H1228 H 0.67038 0.91373 0.20151 0.0
H1229 H 0.64753 0.91004 0.19127 0.0
H1230 H 0.6659 0.86373 0.19674 0.0
H1231 H 0.61127 0.85522 0.17166 0.0
H1232 H 0.66506 0.88227 0.26424 0.0
H1233 H 0.6802 0.89856 0.23883 0.0
H1234 H 0.67773 0.87497 0.24139 0.0
H1235 H 0.60249 0.87526 0.23332 0.0
H1236 H 0.59325 0.86418 0.2006 0.0
H1237 H 0.61111 0.88971 0.20386 0.0
C1238 C 0.0697 0.73701 0.26865 0.0
C1239 C 0.07637 0.72777 0.28535 0.0
C1240 C 0.08057 0.74786 0.24663 0.0
C1241 C 0.09853 0.7495 0.24114 0.0
C1242 C 0.10554 0.74059 0.25822 0.0
C1243 C 0.0944 0.72984 0.28005 0.0
C1244 C 0.07259 0.75711 0.22878 0.0
C1245 C 0.12456 0.74188 0.25298 0.0
C1246 C 0.11484 0.75549 0.16881 0.0
C1247 C 0.12882 0.77543 0.16795 0.0
C1248 C 0.10484 0.74703 0.19239 0.0
C1249 C 0.10903 0.75871 0.216 0.0
C1250 C 0.12339 0.7788 0.21553 0.0
C1251 C 0.13321 0.78695 0.19145 0.0
C1252 C 0.08979 0.72554 0.19199 0.0
C1253 C 0.12827 0.79164 0.2404 0.0
H1254 H 0.05589 0.73566 0.27262 0.0
H1255 H 0.09982 0.72291 0.29284 0.0
H1256 H 0.08343 0.77276 0.2262 0.0
H1257 H 0.06935 0.74999 0.20855 0.0
H1258 H 0.0592 0.75583 0.23695 0.0
H1259 H 0.12867 0.73545 0.26932 0.0
H1260 H 0.12366 0.73406 0.23386 0.0
H1261 H 0.13617 0.75731 0.25076 0.0
H1262 H 0.11173 0.74639 0.15088 0.0
H1263 H 0.14404 0.80233 0.19085 0.0
H1264 H 0.07566 0.72337 0.19824 0.0
H1265 H 0.09378 0.71786 0.20652 0.0
H1266 H 0.08805 0.7186 0.17179 0.0
H1267 H 0.11525 0.79159 0.24759 0.0
H1268 H 0.13981 0.80693 0.23676 0.0
H1269 H 0.13304 0.78584 0.25676 0.0
C1270 C 0.28286 0.34685 0.27004 0.0
C1271 C 0.2843 0.35719 0.29384 0.0
C1272 C 0.27099 0.34586 0.24872 0.0
C1273 C 0.25989 0.3549 0.25171 0.0
C1274 C 0.26056 0.36442 0.27632 0.0
C1275 C 0.27299 0.36573 0.2969 0.0
C1276 C 0.27101 0.33594 0.2226 0.0
C1277 C 0.24853 0.3737 0.28068 0.0
C1278 C 0.24788 0.37277 0.18893 0.0
C1279 C 0.22929 0.35729 0.18235 0.0
C1280 C 0.25791 0.37212 0.21139 0.0
C1281 C 0.24894 0.3559 0.2284 0.0
C1282 C 0.22975 0.34076 0.2229 0.0
C1283 C 0.22021 0.34152 0.19978 0.0
C1284 C 0.2784 0.38854 0.21636 0.0
C1285 C 0.21948 0.3235 0.24102 0.0
H1286 H 0.29163 0.34028 0.26767 0.0
H1287 H 0.27387 0.37348 0.31549 0.0
H1288 H 0.25608 0.32474 0.21661 0.0
H1289 H 0.27696 0.34682 0.20644 0.0
H1290 H 0.27974 0.32888 0.22389 0.0
H1291 H 0.24905 0.37857 0.3019 0.0
H1292 H 0.2538 0.38653 0.26769 0.0
H1293 H 0.23329 0.36327 0.27497 0.0
H1294 H 0.25487 0.38524 0.17601 0.0
H1295 H 0.20594 0.3294 0.19486 0.0
H1296 H 0.28822 0.38269 0.21627 0.0
H1297 H 0.27967 0.39541 0.23643 0.0
H1298 H 0.28337 0.39998 0.20099 0.0
H1299 H 0.22649 0.3147 0.23983 0.0
H1300 H 0.20403 0.31396 0.23548 0.0
H1301 H 0.22051 0.32852 0.26224 0.0
C1302 C 0.26406 0.32335 0.41245 0.0
C1303 C 0.28057 0.34202 0.41485 0.0
C1304 C 0.24903 0.31694 0.43115 0.0
C1305 C 0.25071 0.32935 0.45304 0.0
C1306 C 0.26745 0.34809 0.45575 0.0
C1307 C 0.28208 0.35424 0.43655 0.0
C1308 C 0.23132 0.29694 0.42741 0.0
C1309 C 0.27001 0.3616 0.47913 0.0
C1310 C 0.20714 0.32115 0.49361 0.0
C1311 C 0.20861 0.31181 0.5162 0.0
C1312 C 0.22039 0.32644 0.47241 0.0
C1313 C 0.23551 0.32243 0.47401 0.0
C1314 C 0.2367 0.31253 0.49641 0.0
C1315 C 0.22313 0.30713 0.51695 0.0
C1316 C 0.21849 0.3367 0.4486 0.0
C1317 C 0.25263 0.30806 0.49907 0.0
H1318 H 0.26266 0.31389 0.39559 0.0
H1319 H 0.2948 0.36866 0.43862 0.0
H1320 H 0.2297 0.28781 0.44482 0.0
H1321 H 0.21826 0.29813 0.42656 0.0
H1322 H 0.23192 0.28936 0.40879 0.0
H1323 H 0.28381 0.37577 0.4782 0.0
H1324 H 0.25797 0.36446 0.47952 0.0
H1325 H 0.26965 0.3546 0.4983 0.0
H1326 H 0.19594 0.32474 0.49278 0.0
H1327 H 0.22403 0.29931 0.53385 0.0
H1328 H 0.21843 0.32911 0.42964 0.0
H1329 H 0.23107 0.35178 0.44795 0.0
H1330 H 0.20514 0.33741 0.44937 0.0
H1331 H 0.25246 0.2992 0.48151 0.0
H1332 H 0.25137 0.30005 0.51765 0.0
H1333 H 0.26683 0.32183 0.49937 0.0
C1334 C 0.70255 0.94749 0.40027 0.0
C1335 C 0.68548 0.94759 0.39558 0.0
C1336 C 0.70392 0.93672 0.42109 0.0
C1337 C 0.68787 0.92575 0.43782 0.0
C1338 C 0.67054 0.92561 0.43314 0.0
C1339 C 0.66954 0.93652 0.41209 0.0
C1340 C 0.7227 0.93737 0.4255 0.0
C1341 C 0.65315 0.9142 0.45068 0.0
C1342 C 0.68756 0.88733 0.48243 0.0
C1343 C 0.69372 0.89756 0.50706 0.0
C1344 C 0.68548 0.89625 0.45961 0.0
C1345 C 0.68979 0.91583 0.46157 0.0
C1346 C 0.69637 0.92626 0.48629 0.0
C1347 C 0.69836 0.91707 0.50858 0.0
C1348 C 0.67854 0.88474 0.4335 0.0
C1349 C 0.70128 0.94717 0.48929 0.0
H1350 H 0.71496 0.95588 0.38764 0.0
H1351 H 0.65625 0.93636 0.40862 0.0
H1352 H 0.72891 0.9443 0.44536 0.0
H1353 H 0.72017 0.92236 0.42569 0.0
H1354 H 0.73347 0.94567 0.40978 0.0
H1355 H 0.64043 0.9147 0.44352 0.0
H1356 H 0.64928 0.89875 0.45128 0.0
H1357 H 0.65657 0.92016 0.47158 0.0
H1358 H 0.68402 0.8723 0.48117 0.0
H1359 H 0.70361 0.92523 0.52739 0.0
H1360 H 0.68931 0.89232 0.41753 0.0
H1361 H 0.66496 0.88374 0.42697 0.0
H1362 H 0.67595 0.86975 0.4352 0.0
H1363 H 0.71302 0.95648 0.47531 0.0
H1364 H 0.70593 0.95311 0.51006 0.0
H1365 H 0.68859 0.94827 0.48392 0.0
C1366 C 0.0659 0.76171 0.39338 0.0
C1367 C 0.06126 0.74359 0.4035 0.0
C1368 C 0.07625 0.77885 0.40916 0.0
C1369 C 0.08166 0.77763 0.43572 0.0
C1370 C 0.0756 0.75912 0.4466 0.0
C1371 C 0.06574 0.74236 0.43019 0.0
C1372 C 0.08254 0.79821 0.39663 0.0
C1373 C 0.08051 0.75705 0.47514 0.0
C1374 C 0.12632 0.81163 0.47461 0.0
C1375 C 0.11836 0.81674 0.49607 0.0
C1376 C 0.11502 0.80114 0.4522 0.0
C1377 C 0.0953 0.79538 0.45164 0.0
C1378 C 0.08819 0.80332 0.47089 0.0
C1379 C 0.1 0.81429 0.49272 0.0
C1380 C 0.12345 0.79385 0.4312 0.0
C1381 C 0.06741 0.798 0.47064 0.0
H1382 H 0.06257 0.76265 0.37259 0.0
H1383 H 0.062 0.7283 0.43801 0.0
H1384 H 0.083 0.80895 0.41155 0.0
H1385 H 0.09727 0.80423 0.3885 0.0
H1386 H 0.07283 0.79659 0.37977 0.0
H1387 H 0.07301 0.74159 0.48128 0.0
H1388 H 0.09627 0.7632 0.47708 0.0
H1389 H 0.07656 0.7653 0.48932 0.0
H1390 H 0.14058 0.81368 0.47658 0.0
H1391 H 0.09401 0.81891 0.50875 0.0
H1392 H 0.11804 0.7941 0.41087 0.0
H1393 H 0.11904 0.77853 0.43539 0.0
H1394 H 0.13945 0.80271 0.43124 0.0
H1395 H 0.06208 0.79702 0.44983 0.0
H1396 H 0.06537 0.80874 0.48245 0.0
H1397 H 0.05844 0.78349 0.47974 0.0
C1398 C 0.32876 0.06443 0.76983 0.0
C1399 C 0.33944 0.06654 0.74659 0.0
C1400 C 0.33508 0.07961 0.78897 0.0
C1401 C 0.35237 0.0975 0.78458 0.0
C1402 C 0.36317 0.09982 0.76106 0.0
C1403 C 0.35667 0.08421 0.74242 0.0
C1404 C 0.32336 0.0764 0.81411 0.0
C1405 C 0.38153 0.11878 0.75558 0.0
C1406 C 0.35733 0.13896 0.82924 0.0
C1407 C 0.36808 0.13826 0.85069 0.0
C1408 C 0.35305 0.12655 0.80658 0.0
C1409 C 0.35959 0.11316 0.80564 0.0
C1410 C 0.37143 0.11331 0.82653 0.0
C1411 C 0.37569 0.12599 0.84862 0.0
C1412 C 0.34068 0.12703 0.78437 0.0
C1413 C 0.3786 0.0992 0.82645 0.0
H1414 H 0.31546 0.05078 0.77319 0.0
H1415 H 0.36485 0.08599 0.72431 0.0
H1416 H 0.33221 0.07812 0.83209 0.0
H1417 H 0.31907 0.08749 0.81591 0.0
H1418 H 0.31015 0.06169 0.8143 0.0
H1419 H 0.38779 0.11851 0.73579 0.0
H1420 H 0.37871 0.13096 0.7561 0.0
H1421 H 0.39237 0.12191 0.77149 0.0
H1422 H 0.35156 0.14853 0.83072 0.0
H1423 H 0.38448 0.12581 0.86487 0.0
H1424 H 0.32613 0.11375 0.78503 0.0
H1425 H 0.34689 0.12705 0.76445 0.0
H1426 H 0.33911 0.14001 0.78621 0.0
H1427 H 0.3662 0.08411 0.82846 0.0
H1428 H 0.38893 0.10229 0.84314 0.0
H1429 H 0.38574 0.09972 0.80716 0.0
C1430 C 0.90892 0.27448 0.72177 0.0
C1431 C 0.92909 0.2853 0.72394 0.0
C1432 C 0.89758 0.26218 0.74236 0.0
C1433 C 0.90662 0.2611 0.76598 0.0
C1434 C 0.92698 0.27219 0.76841 0.0
C1435 C 0.93799 0.28395 0.74716 0.0
C1436 C 0.87597 0.25018 0.73875 0.0
C1437 C 0.93713 0.27178 0.79356 0.0
C1438 C 0.87961 0.2465 0.8317 0.0
C1439 C 0.87745 0.22815 0.83565 0.0
C1440 C 0.8885 0.25711 0.80866 0.0
C1441 C 0.89485 0.24894 0.78863 0.0
C1442 C 0.8912 0.22973 0.79136 0.0
C1443 C 0.88269 0.21961 0.815 0.0
C1444 C 0.89225 0.2776 0.80667 0.0
C1445 C 0.89726 0.22031 0.77004 0.0
H1446 H 0.902 0.27524 0.70361 0.0
H1447 H 0.95358 0.2923 0.74886 0.0
H1448 H 0.87088 0.23449 0.74097 0.0
H1449 H 0.86886 0.2542 0.75455 0.0
H1450 H 0.87124 0.25221 0.71879 0.0
H1451 H 0.95302 0.28153 0.79244 0.0
H1452 H 0.93185 0.27632 0.81123 0.0
H1453 H 0.93382 0.25672 0.79702 0.0
H1454 H 0.87522 0.25301 0.84736 0.0
H1455 H 0.88116 0.20549 0.81789 0.0
H1456 H 0.88693 0.27949 0.78715 0.0
H1457 H 0.90801 0.28815 0.8076 0.0
H1458 H 0.88529 0.28132 0.82311 0.0
H1459 H 0.89285 0.22223 0.74981 0.0
H1460 H 0.89098 0.20449 0.77334 0.0
H1461 H 0.91319 0.22745 0.77016 0.0
C1462 C 0.71258 0.63717 0.75197 0.0
C1463 C 0.72015 0.65017 0.73082 0.0
C1464 C 0.72464 0.63767 0.77257 0.0
C1465 C 0.74481 0.65092 0.77123 0.0
C1466 C 0.75248 0.66396 0.74966 0.0
C1467 C 0.73998 0.66367 0.72995 0.0
C1468 C 0.71582 0.62399 0.79572 0.0
C1469 C 0.77392 0.67775 0.74693 0.0
C1470 C 0.7728 0.66156 0.83655 0.0
C1471 C 0.77733 0.64678 0.83632 0.0
C1472 C 0.76267 0.66345 0.8152 0.0
C1473 C 0.75777 0.65091 0.79238 0.0
C1474 C 0.76403 0.63733 0.79076 0.0
C1475 C 0.77345 0.6352 0.8129 0.0
C1476 C 0.75599 0.6779 0.818 0.0
C1477 C 0.75981 0.62427 0.76625 0.0
H1478 H 0.69722 0.62673 0.75246 0.0
H1479 H 0.74579 0.67349 0.71323 0.0
H1480 H 0.72098 0.61355 0.79574 0.0
H1481 H 0.72038 0.63233 0.81507 0.0
H1482 H 0.69982 0.61557 0.79469 0.0
H1483 H 0.77753 0.68701 0.729 0.0
H1484 H 0.7798 0.68736 0.76505 0.0
H1485 H 0.78128 0.66929 0.74531 0.0
H1486 H 0.77626 0.67104 0.85414 0.0
H1487 H 0.77674 0.62368 0.81232 0.0
H1488 H 0.74003 0.66988 0.81938 0.0
H1489 H 0.76 0.68715 0.80008 0.0
H1490 H 0.76212 0.6875 0.83615 0.0
H1491 H 0.74425 0.61301 0.76554 0.0
H1492 H 0.76817 0.61677 0.76637 0.0
H1493 H 0.7632 0.63279 0.74765 0.0
C1494 C 0.75595 0.68684 0.62752 0.0
C1495 C 0.73769 0.6763 0.61538 0.0
C1496 C 0.77271 0.69264 0.61246 0.0
C1497 C 0.77107 0.68822 0.58455 0.0
C1498 C 0.75261 0.67842 0.57207 0.0
C1499 C 0.73611 0.67224 0.58776 0.0
C1500 C 0.79199 0.70246 0.6267 0.0
C1501 C 0.7502 0.67392 0.54221 0.0
C1502 C 0.81025 0.71231 0.53296 0.0
C1503 C 0.81195 0.69641 0.52434 0.0
C1504 C 0.79819 0.71057 0.5544 0.0
C1505 C 0.78828 0.69279 0.56819 0.0
C1506 C 0.79246 0.67795 0.56239 0.0
C1507 C 0.80411 0.67984 0.54032 0.0
C1508 C 0.79426 0.72682 0.55993 0.0
C1509 C 0.7829 0.65913 0.57748 0.0
H1510 H 0.75704 0.68961 0.64906 0.0
H1511 H 0.72193 0.66399 0.57853 0.0
H1512 H 0.79697 0.69193 0.62828 0.0
H1513 H 0.80301 0.71501 0.61523 0.0
H1514 H 0.79118 0.70763 0.6473 0.0
H1515 H 0.73509 0.66787 0.53533 0.0
H1516 H 0.75966 0.68731 0.53085 0.0
H1517 H 0.75455 0.66316 0.53712 0.0
H1518 H 0.81674 0.7254 0.52117 0.0
H1519 H 0.80539 0.66749 0.53408 0.0
H1520 H 0.79324 0.72901 0.5818 0.0
H1521 H 0.78022 0.72288 0.55064 0.0
H1522 H 0.80559 0.7408 0.55139 0.0
H1523 H 0.78241 0.66195 0.59931 0.0
H1524 H 0.79049 0.65096 0.57448 0.0
H1525 H 0.76783 0.64976 0.5702 0.0
C1526 C 0.32952 0.0591 0.60359 0.0
C1527 C 0.31848 0.05687 0.62646 0.0
C1528 C 0.33053 0.07107 0.58263 0.0
C1529 C 0.32075 0.08151 0.58504 0.0
C1530 C 0.31021 0.07987 0.60858 0.0
C1531 C 0.30896 0.06734 0.62881 0.0
C1532 C 0.34153 0.07207 0.55756 0.0
C1533 C 0.30007 0.09117 0.61226 0.0
C1534 C 0.33549 0.12239 0.5355 0.0
C1535 C 0.32104 0.11308 0.51577 0.0
C1536 C 0.33521 0.11258 0.55879 0.0
C1537 C 0.32036 0.09293 0.56209 0.0
C1538 C 0.30532 0.0838 0.54282 0.0
C1539 C 0.30567 0.09408 0.52021 0.0
C1540 C 0.35117 0.123 0.57935 0.0
C1541 C 0.28929 0.06282 0.54539 0.0
H1542 H 0.33691 0.05104 0.60177 0.0
H1543 H 0.30069 0.06591 0.64671 0.0
H1544 H 0.33157 0.06653 0.54 0.0
H1545 H 0.35268 0.08741 0.5536 0.0
H1546 H 0.34865 0.06339 0.55907 0.0
H1547 H 0.29396 0.08962 0.6327 0.0
H1548 H 0.31021 0.10687 0.60867 0.0
H1549 H 0.28818 0.08598 0.59735 0.0
H1550 H 0.34746 0.13701 0.53224 0.0
H1551 H 0.29418 0.08694 0.5054 0.0
H1552 H 0.36049 0.11658 0.57902 0.0
H1553 H 0.3451 0.12112 0.59984 0.0
H1554 H 0.36029 0.13884 0.57548 0.0
H1555 H 0.29542 0.0532 0.54537 0.0
H1556 H 0.27855 0.05795 0.52878 0.0
H1557 H 0.28172 0.06083 0.56473 0.0
C1558 C 0.93582 0.26924 0.58161 0.0
C1559 C 0.94008 0.26803 0.60842 0.0
C1560 C 0.92562 0.25241 0.5654 0.0
C1561 C 0.91896 0.23388 0.5766 0.0
C1562 C 0.92337 0.23259 0.60368 0.0
C1563 C 0.93415 0.24977 0.61922 0.0
C1564 C 0.92175 0.25449 0.53634 0.0
C1565 C 0.91609 0.21311 0.61648 0.0
C1566 C 0.87822 0.19624 0.53303 0.0
C1567 C 0.88839 0.19101 0.51544 0.0
C1568 C 0.88755 0.20862 0.55533 0.0
C1569 C 0.90751 0.2161 0.55949 0.0
C1570 C 0.91719 0.20908 0.54337 0.0
C1571 C 0.90742 0.19648 0.52157 0.0
C1572 C 0.8766 0.21531 0.57263 0.0
C1573 C 0.93844 0.21672 0.54692 0.0
H1574 H 0.94043 0.28341 0.57335 0.0
H1575 H 0.93719 0.24888 0.64016 0.0
H1576 H 0.92697 0.24691 0.52298 0.0
H1577 H 0.90602 0.24756 0.53284 0.0
H1578 H 0.92885 0.26998 0.53044 0.0
H1579 H 0.92211 0.21464 0.63701 0.0
H1580 H 0.90015 0.20533 0.61778 0.0
H1581 H 0.91976 0.20384 0.60398 0.0
H1582 H 0.86353 0.19208 0.52807 0.0
H1583 H 0.91525 0.19247 0.50769 0.0
H1584 H 0.88026 0.23009 0.56661 0.0
H1585 H 0.88067 0.21623 0.5941 0.0
H1586 H 0.86077 0.20538 0.57045 0.0
H1587 H 0.94678 0.23162 0.53877 0.0
H1588 H 0.9429 0.20737 0.53618 0.0
H1589 H 0.94233 0.21775 0.56847 0.0
C1590 C 0.32395 0.26112 0.58789 0.0
C1591 C 0.31873 0.25962 0.61491 0.0
C1592 C 0.3168 0.24448 0.57122 0.0
C1593 C 0.30461 0.22582 0.58213 0.0
C1594 C 0.29856 0.22429 0.60914 0.0
C1595 C 0.30557 0.24131 0.62521 0.0
C1596 C 0.32316 0.24686 0.54224 0.0
C1597 C 0.28584 0.20476 0.62172 0.0
C1598 C 0.28433 0.18914 0.52509 0.0
C1599 C 0.30019 0.18688 0.52008 0.0
C1600 C 0.28427 0.20012 0.54742 0.0
C1601 C 0.30006 0.20826 0.56555 0.0
C1602 C 0.31409 0.20278 0.56332 0.0
C1603 C 0.31412 0.1923 0.54042 0.0
C1604 C 0.26875 0.2052 0.54939 0.0
C1605 C 0.33062 0.2103 0.58308 0.0
H1606 H 0.33402 0.27532 0.57994 0.0
H1607 H 0.30168 0.24016 0.64624 0.0
H1608 H 0.33287 0.24103 0.53917 0.0
H1609 H 0.31053 0.23849 0.52866 0.0
H1610 H 0.33096 0.26236 0.53627 0.0
H1611 H 0.27828 0.20605 0.63962 0.0
H1612 H 0.27498 0.19407 0.60722 0.0
H1613 H 0.2949 0.19887 0.62832 0.0
H1614 H 0.27307 0.18429 0.50998 0.0
H1615 H 0.32634 0.19045 0.53718 0.0
H1616 H 0.27413 0.21973 0.54061 0.0
H1617 H 0.26496 0.20601 0.57062 0.0
H1618 H 0.25553 0.19442 0.53819 0.0
H1619 H 0.34146 0.22567 0.57856 0.0
H1620 H 0.33781 0.20164 0.58192 0.0
H1621 H 0.32559 0.20998 0.60393 0.0
C1622 C 0.75929 0.05229 0.61107 0.0
C1623 C 0.74164 0.05075 0.61748 0.0
C1624 C 0.7704 0.06353 0.58951 0.0
C1625 C 0.76371 0.07344 0.57386 0.0
C1626 C 0.74603 0.07214 0.58034 0.0
C1627 C 0.73522 0.06082 0.60205 0.0
C1628 C 0.78913 0.06449 0.58317 0.0
C1629 C 0.73835 0.08239 0.56398 0.0
C1630 C 0.79827 0.11336 0.52692 0.0
C1631 C 0.79356 0.10316 0.50223 0.0
C1632 C 0.78876 0.10388 0.55058 0.0
C1633 C 0.77436 0.0838 0.54938 0.0
C1634 C 0.76995 0.07341 0.52456 0.0
C1635 C 0.77966 0.08317 0.50141 0.0
C1636 C 0.79389 0.11538 0.57676 0.0
C1637 C 0.75481 0.05197 0.52235 0.0
H1638 H 0.7645 0.0447 0.62289 0.0
H1639 H 0.72168 0.05984 0.60684 0.0
H1640 H 0.78809 0.05767 0.56312 0.0
H1641 H 0.80105 0.0799 0.58232 0.0
H1642 H 0.79289 0.05692 0.59825 0.0
H1643 H 0.72492 0.08082 0.57251 0.0
H1644 H 0.74932 0.09814 0.56286 0.0
H1645 H 0.7353 0.07634 0.54312 0.0
H1646 H 0.80905 0.12877 0.52761 0.0
H1647 H 0.77631 0.07508 0.48247 0.0
H1648 H 0.79827 0.10841 0.59193 0.0
H1649 H 0.78108 0.1154 0.58474 0.0
H1650 H 0.80577 0.13072 0.57448 0.0
H1651 H 0.75862 0.04352 0.5357 0.0
H1652 H 0.75314 0.04604 0.5015 0.0
H1653 H 0.74068 0.04961 0.52905 0.0
C1654 C 0.9362 0.66933 0.61489 0.0
C1655 C 0.95313 0.68759 0.61827 0.0
C1656 C 0.9228 0.666 0.59446 0.0
C1657 C 0.92658 0.68118 0.57677 0.0
C1658 C 0.94385 0.69948 0.57976 0.0
C1659 C 0.95682 0.70249 0.60053 0.0
C1660 C 0.90448 0.64635 0.59204 0.0
C1661 C 0.94865 0.71595 0.561 0.0
C1662 C 0.90479 0.6717 0.50695 0.0
C1663 C 0.89183 0.67835 0.50969 0.0
C1664 C 0.91546 0.67156 0.52894 0.0
C1665 C 0.91295 0.67799 0.55448 0.0
C1666 C 0.89885 0.68335 0.55782 0.0
C1667 C 0.88844 0.6835 0.53531 0.0
C1668 C 0.9303 0.66572 0.52441 0.0
C1669 C 0.89555 0.69001 0.58484 0.0
H1670 H 0.93315 0.6578 0.62868 0.0
H1671 H 0.9699 0.7166 0.60289 0.0
H1672 H 0.89182 0.64812 0.59435 0.0
H1673 H 0.90341 0.63979 0.57179 0.0
H1674 H 0.90369 0.63607 0.60735 0.0
H1675 H 0.96274 0.72924 0.56593 0.0
H1676 H 0.94908 0.71129 0.53998 0.0
H1677 H 0.93728 0.71977 0.56197 0.0
H1678 H 0.90713 0.66726 0.48725 0.0
H1679 H 0.87839 0.68857 0.53754 0.0
H1680 H 0.92877 0.65501 0.53948 0.0
H1681 H 0.94496 0.67873 0.52691 0.0
H1682 H 0.92914 0.65929 0.504 0.0
H1683 H 0.8941 0.67977 0.60063 0.0
H1684 H 0.88246 0.6912 0.58486 0.0
H1685 H 0.90816 0.70451 0.59028 0.0
C1686 C 0.93962 0.66474 0.75901 0.0
C1687 C 0.94426 0.67993 0.74138 0.0
C1688 C 0.92527 0.65963 0.77851 0.0
C1689 C 0.91496 0.66957 0.77981 0.0
C1690 C 0.91919 0.68448 0.76145 0.0
C1691 C 0.93397 0.68967 0.74273 0.0
C1692 C 0.92146 0.64393 0.79812 0.0
C1693 C 0.90817 0.69502 0.76164 0.0
C1694 C 0.86796 0.64391 0.81854 0.0
C1695 C 0.87364 0.65358 0.84368 0.0
C1696 C 0.88101 0.64953 0.79713 0.0
C1697 C 0.90032 0.66488 0.80112 0.0
C1698 C 0.90589 0.67528 0.82599 0.0
C1699 C 0.89242 0.66972 0.84676 0.0
C1700 C 0.87436 0.63848 0.77062 0.0
C1701 C 0.92635 0.69165 0.83117 0.0
H1702 H 0.94757 0.65721 0.75804 0.0
H1703 H 0.93733 0.70123 0.72883 0.0
H1704 H 0.92411 0.65004 0.81895 0.0
H1705 H 0.90615 0.63204 0.7968 0.0
H1706 H 0.93071 0.6376 0.79442 0.0
H1707 H 0.9124 0.70539 0.74491 0.0
H1708 H 0.89247 0.68436 0.76008 0.0
H1709 H 0.91073 0.70325 0.78091 0.0
H1710 H 0.85358 0.63134 0.8159 0.0
H1711 H 0.89685 0.67757 0.86588 0.0
H1712 H 0.88121 0.62962 0.76752 0.0
H1713 H 0.87884 0.64876 0.75378 0.0
H1714 H 0.85847 0.62858 0.7697 0.0
H1715 H 0.93624 0.6859 0.82969 0.0
H1716 H 0.92821 0.69865 0.85134 0.0
H1717 H 0.93082 0.70295 0.81575 0.0
C1718 C 0.36898 0.27602 0.73555 0.0
C1719 C 0.35243 0.2772 0.73153 0.0
C1720 C 0.37022 0.26545 0.75677 0.0
C1721 C 0.35456 0.2558 0.77456 0.0
C1722 C 0.33768 0.25661 0.77043 0.0
C1723 C 0.3368 0.26729 0.74898 0.0
C1724 C 0.38853 0.26507 0.76056 0.0
C1725 C 0.32072 0.24659 0.78908 0.0
C1726 C 0.35353 0.2185 0.82226 0.0
C1727 C 0.36078 0.22978 0.84592 0.0
C1728 C 0.35136 0.22671 0.79872 0.0
C1729 C 0.35668 0.24661 0.799 0.0
C1730 C 0.36441 0.25809 0.82273 0.0
C1731 C 0.36646 0.24959 0.84574 0.0
C1732 C 0.34317 0.21408 0.77369 0.0
C1733 C 0.37042 0.27938 0.82395 0.0
H1734 H 0.38113 0.28348 0.72218 0.0
H1735 H 0.3239 0.26796 0.746 0.0
H1736 H 0.39572 0.27281 0.77962 0.0
H1737 H 0.38518 0.24982 0.7621 0.0
H1738 H 0.39881 0.27207 0.74384 0.0
H1739 H 0.30814 0.2474 0.78204 0.0
H1740 H 0.31627 0.23104 0.791 0.0
H1741 H 0.32493 0.25347 0.80943 0.0
H1742 H 0.34919 0.20322 0.82235 0.0
H1743 H 0.37249 0.2585 0.86385 0.0
H1744 H 0.35343 0.22056 0.75685 0.0
H1745 H 0.32966 0.2134 0.76765 0.0
H1746 H 0.34004 0.199 0.7766 0.0
H1747 H 0.38178 0.28756 0.80891 0.0
H1748 H 0.37601 0.2862 0.8441 0.0
H1749 H 0.35798 0.281 0.81888 0.0
C1750 C 0.73375 0.06342 0.76483 0.0
C1751 C 0.73128 0.06625 0.73789 0.0
C1752 C 0.74421 0.07935 0.78249 0.0
C1753 C 0.753 0.09853 0.77262 0.0
C1754 C 0.7501 0.10147 0.74552 0.0
C1755 C 0.73899 0.08521 0.7285 0.0
C1756 C 0.74645 0.07559 0.81148 0.0
C1757 C 0.75964 0.12163 0.73408 0.0
C1758 C 0.76986 0.13638 0.82871 0.0
C1759 C 0.78795 0.13885 0.83472 0.0
C1760 C 0.7587 0.12436 0.80713 0.0
C1761 C 0.76612 0.1152 0.7906 0.0
C1762 C 0.78533 0.11971 0.79441 0.0
C1763 C 0.79594 0.13127 0.81666 0.0
C1764 C 0.73827 0.1199 0.80384 0.0
C1765 C 0.79404 0.11082 0.77651 0.0
H1766 H 0.72773 0.04871 0.77198 0.0
H1767 H 0.73726 0.0873 0.70747 0.0
H1768 H 0.76166 0.08008 0.81559 0.0
H1769 H 0.74278 0.08437 0.82507 0.0
H1770 H 0.73715 0.05997 0.81648 0.0
H1771 H 0.75367 0.12161 0.71401 0.0
H1772 H 0.75802 0.13182 0.74774 0.0
H1773 H 0.77531 0.12735 0.73198 0.0
H1774 H 0.76381 0.14269 0.8421 0.0
H1775 H 0.80988 0.13304 0.82094 0.0
H1776 H 0.72821 0.10516 0.8116 0.0
H1777 H 0.73464 0.11979 0.78237 0.0
H1778 H 0.73582 0.13058 0.81506 0.0
H1779 H 0.78796 0.09532 0.7817 0.0
H1780 H 0.80996 0.1185 0.7789 0.0
H1781 H 0.79051 0.1112 0.75511 0.0
C1782 C 0.06123 0.36583 0.05973 0.0
C1783 C 0.0602 0.37409 0.03573 0.0
C1784 C 0.07829 0.36676 0.06765 0.0
C1785 C 0.09473 0.37593 0.05098 0.0
C1786 C 0.09381 0.3843 0.02668 0.0
C1787 C 0.07657 0.3834 0.01942 0.0
C1788 C 0.0787 0.35786 0.09394 0.0
C1789 C 0.11092 0.39394 0.00824 0.0
C1790 C 0.13959 0.38989 0.09126 0.0
C1791 C 0.14018 0.37269 0.08887 0.0
C1792 C 0.12593 0.39204 0.07695 0.0
C1793 C 0.11276 0.37674 0.05955 0.0
C1794 C 0.11504 0.36055 0.05438 0.0
C1795 C 0.12873 0.35868 0.0692 0.0
C1796 C 0.12413 0.4096 0.08302 0.0
C1797 C 0.10161 0.34411 0.03551 0.0
H1798 H 0.04865 0.35867 0.07245 0.0
H1799 H 0.07582 0.38968 0.00073 0.0
H1800 H 0.08189 0.34609 0.09021 0.0
H1801 H 0.09032 0.36904 0.10716 0.0
H1802 H 0.06482 0.35165 0.10483 0.0
H1803 H 0.108 0.40007 0.9903 0.0
H1804 H 0.12357 0.40584 0.01918 0.0
H1805 H 0.11491 0.38319 0.00141 0.0
H1806 H 0.14855 0.40081 0.10634 0.0
H1807 H 0.12904 0.34532 0.06731 0.0
H1808 H 0.11179 0.40536 0.09671 0.0
H1809 H 0.12124 0.4151 0.06444 0.0
H1810 H 0.13733 0.42162 0.0929 0.0
H1811 H 0.08762 0.33486 0.04562 0.0
H1812 H 0.10755 0.33478 0.02958 0.0
H1813 H 0.09873 0.34983 0.01713 0.0
C1814 C 0.65849 0.70405 0.04188 0.0
C1815 C 0.65001 0.69485 0.01728 0.0
C1816 C 0.65815 0.7206 0.05094 0.0
C1817 C 0.64927 0.72825 0.03486 0.0
C1818 C 0.64105 0.71928 0.00972 0.0
C1819 C 0.64142 0.7026 0.00129 0.0
C1820 C 0.667 0.72968 0.07799 0.0
C1821 C 0.63166 0.72714 0.99195 0.0
C1822 C 0.6339 0.75728 0.07772 0.0
C1823 C 0.65039 0.77594 0.0768 0.0
C1824 C 0.63253 0.74178 0.06221 0.0
C1825 C 0.64799 0.74513 0.04527 0.0
C1826 C 0.6636 0.76441 0.04191 0.0
C1827 C 0.66463 0.77965 0.0578 0.0
C1828 C 0.61555 0.72151 0.06629 0.0
C1829 C 0.6802 0.76866 0.0237 0.0
H1830 H 0.66514 0.69813 0.05432 0.0
H1831 H 0.63493 0.69559 0.98216 0.0
H1832 H 0.67827 0.74523 0.0757 0.0
H1833 H 0.65583 0.7292 0.0915 0.0
H1834 H 0.67359 0.72214 0.08781 0.0
H1835 H 0.62698 0.7192 0.97228 0.0
H1836 H 0.61888 0.72593 0.00214 0.0
H1837 H 0.64178 0.74283 0.98831 0.0
H1838 H 0.62289 0.75445 0.09244 0.0
H1839 H 0.67746 0.79405 0.05721 0.0
H1840 H 0.62014 0.71325 0.07876 0.0
H1841 H 0.61021 0.71349 0.04681 0.0
H1842 H 0.60349 0.72177 0.07662 0.0
H1843 H 0.68955 0.76419 0.0336 0.0
H1844 H 0.68911 0.78442 0.01929 0.0
H1845 H 0.67496 0.76024 0.00448 0.0
C1846 C 0.30166 0.94445 0.00371 0.0
C1847 C 0.31207 0.95904 0.02329 0.0
C1848 C 0.28499 0.92684 0.01042 0.0
C1849 C 0.27895 0.92354 0.0375 0.0
C1850 C 0.28943 0.93829 0.05733 0.0
C1851 C 0.30571 0.95597 0.04991 0.0
C1852 C 0.27393 0.91174 0.98861 0.0
C1853 C 0.28373 0.93521 0.08655 0.0
C1854 C 0.22923 0.88595 0.06208 0.0
C1855 C 0.23263 0.87164 0.07163 0.0
C1856 C 0.24372 0.90222 0.04865 0.0
C1857 C 0.26217 0.90445 0.04556 0.0
C1858 C 0.26513 0.88926 0.05342 0.0
C1859 C 0.25024 0.87295 0.06616 0.0
C1860 C 0.23977 0.91777 0.03987 0.0
C1861 C 0.28461 0.89112 0.05095 0.0
H1862 H 0.30647 0.94686 0.98305 0.0
H1863 H 0.3138 0.96718 0.0651 0.0
H1864 H 0.27441 0.89838 0.99226 0.0
H1865 H 0.25855 0.90755 0.98891 0.0
H1866 H 0.27979 0.91705 0.96831 0.0
H1867 H 0.29352 0.94803 0.09951 0.0
H1868 H 0.26884 0.93227 0.08887 0.0
H1869 H 0.28388 0.92229 0.09388 0.0
H1870 H 0.21575 0.88512 0.06686 0.0
H1871 H 0.25299 0.86211 0.07422 0.0
H1872 H 0.246 0.92316 0.01978 0.0
H1873 H 0.24667 0.93035 0.05426 0.0
H1874 H 0.22408 0.91234 0.03911 0.0
H1875 H 0.29056 0.89586 0.03058 0.0
H1876 H 0.28396 0.87721 0.05509 0.0
H1877 H 0.2948 0.90242 0.06551 0.0
C1878 C 0.37169 0.06648 0.01397 0.0
C1879 C 0.36493 0.05163 0.99415 0.0
C1880 C 0.37358 0.0846 0.00859 0.0
C1881 C 0.36916 0.0881 0.98257 0.0
C1882 C 0.3625 0.07316 0.96246 0.0
C1883 C 0.36021 0.05506 0.96863 0.0
C1884 C 0.38016 0.09994 0.03072 0.0
C1885 C 0.35804 0.07635 0.93423 0.0
C1886 C 0.35707 0.12573 0.9613 0.0
C1887 C 0.37408 0.13901 0.94832 0.0
C1888 C 0.35587 0.11009 0.97537 0.0
C1889 C 0.37188 0.10742 0.97563 0.0
C1890 C 0.38961 0.12186 0.96463 0.0
C1891 C 0.39051 0.13759 0.9513 0.0
C1892 C 0.33688 0.09538 0.98751 0.0
C1893 C 0.40696 0.11953 0.96396 0.0
H1894 H 0.37519 0.0638 0.03381 0.0
H1895 H 0.35509 0.04367 0.9532 0.0
H1896 H 0.39384 0.11315 0.02503 0.0
H1897 H 0.36932 0.10435 0.03367 0.0
H1898 H 0.38242 0.09473 0.05009 0.0
H1899 H 0.35358 0.06345 0.92076 0.0
H1900 H 0.3463 0.07964 0.93458 0.0
H1901 H 0.3709 0.08907 0.92553 0.0
H1902 H 0.34427 0.12664 0.95856 0.0
H1903 H 0.40353 0.14764 0.94069 0.0
H1904 H 0.33914 0.09031 0.00697 0.0
H1905 H 0.32931 0.08247 0.97377 0.0
H1906 H 0.32739 0.10148 0.99074 0.0
H1907 H 0.40918 0.11466 0.98358 0.0
H1908 H 0.42031 0.13331 0.95874 0.0
H1909 H 0.40455 0.10819 0.94864 0.0
C1910 C 0.95709 0.30904 0.00919 0.0
C1911 C 0.97298 0.31915 0.99227 0.0
C1912 C 0.94063 0.29164 0.0005 0.0
C1913 C 0.9399 0.2845 0.97402 0.0
C1914 C 0.95612 0.29443 0.95708 0.0
C1915 C 0.97257 0.31154 0.96655 0.0
C1916 C 0.92386 0.28122 0.01936 0.0
C1917 C 0.95579 0.28741 0.92857 0.0
C1918 C 0.90324 0.23374 0.94779 0.0
C1919 C 0.89088 0.23762 0.93312 0.0
C1920 C 0.9186 0.24861 0.96294 0.0
C1921 C 0.92169 0.26772 0.96306 0.0
C1922 C 0.90824 0.27123 0.95017 0.0
C1923 C 0.89289 0.25607 0.93559 0.0
C1924 C 0.93233 0.24418 0.97707 0.0
C1925 C 0.91096 0.29137 0.94976 0.0
H1926 H 0.95747 0.31478 0.02925 0.0
H1927 H 0.98484 0.31935 0.95345 0.0
H1928 H 0.91155 0.28239 0.01212 0.0
H1929 H 0.91896 0.26548 0.01977 0.0
H1930 H 0.92755 0.28738 0.04017 0.0
H1931 H 0.96981 0.29636 0.91834 0.0
H1932 H 0.95219 0.27203 0.92833 0.0
H1933 H 0.94443 0.28793 0.91685 0.0
H1934 H 0.90179 0.21952 0.94582 0.0
H1935 H 0.88321 0.259 0.92444 0.0
H1936 H 0.9362 0.25127 0.99732 0.0
H1937 H 0.94583 0.25007 0.96538 0.0
H1938 H 0.92613 0.22825 0.97916 0.0
H1939 H 0.91341 0.29775 0.97038 0.0
H1940 H 0.89836 0.29129 0.94081 0.0
H1941 H 0.92391 0.30107 0.93781 0.0
C1942 C 0.69458 0.63385 0.00048 0.0
C1943 C 0.68772 0.64201 0.98216 0.0
C1944 C 0.71039 0.63173 0.99415 0.0
C1945 C 0.71916 0.63745 0.96868 0.0
C1946 C 0.7122 0.64564 0.95013 0.0
C1947 C 0.69674 0.64802 0.95723 0.0
C1948 C 0.71771 0.62341 0.01465 0.0
C1949 C 0.72088 0.65162 0.92252 0.0
C1950 C 0.76899 0.64933 0.94799 0.0
C1951 C 0.76456 0.63282 0.93225 0.0
C1952 C 0.75457 0.65025 0.9626 0.0
C1953 C 0.73526 0.6345 0.96064 0.0
C1954 C 0.73113 0.61714 0.94668 0.0
C1955 C 0.74591 0.61648 0.93277 0.0
C1956 C 0.7597 0.66883 0.97784 0.0
C1957 C 0.71077 0.60009 0.9437 0.0
H1958 H 0.68773 0.62933 0.01987 0.0
H1959 H 0.69143 0.65425 0.94295 0.0
H1960 H 0.71623 0.60964 0.00672 0.0
H1961 H 0.73327 0.63371 0.01864 0.0
H1962 H 0.70983 0.62042 0.03394 0.0
H1963 H 0.71353 0.65738 0.9103 0.0
H1964 H 0.73635 0.66302 0.92434 0.0
H1965 H 0.71998 0.63895 0.91155 0.0
H1966 H 0.78337 0.66208 0.94717 0.0
H1967 H 0.74247 0.60388 0.92008 0.0
H1968 H 0.7518 0.66561 0.9971 0.0
H1969 H 0.75547 0.67754 0.96572 0.0
H1970 H 0.77541 0.67785 0.98208 0.0
H1971 H 0.70311 0.59685 0.96315 0.0
H1972 H 0.71037 0.58675 0.93601 0.0
H1973 H 0.70276 0.60382 0.92934 0.0
C1974 C 0.94502 0.63445 0.96477 0.0
C1975 C 0.947 0.62918 0.99069 0.0
C1976 C 0.92804 0.63355 0.9566 0.0
C1977 C 0.91269 0.62759 0.97497 0.0
C1978 C 0.91453 0.62215 0.00119 0.0
C1979 C 0.93164 0.62282 0.00869 0.0
C1980 C 0.92663 0.63916 0.92826 0.0
C1981 C 0.89863 0.61609 0.02145 0.0
C1982 C 0.88124 0.64666 0.95176 0.0
C1983 C 0.86742 0.63076 0.93633 0.0
C1984 C 0.89492 0.64518 0.96711 0.0
C1985 C 0.89504 0.62753 0.96633 0.0
C1986 C 0.88001 0.61094 0.95268 0.0
C1987 C 0.86627 0.61275 0.93793 0.0
C1988 C 0.9104 0.6631 0.98185 0.0
C1989 C 0.87967 0.59191 0.95105 0.0
H1990 H 0.95679 0.63923 0.9507 0.0
H1991 H 0.93318 0.61885 0.0288 0.0
H1992 H 0.91368 0.62713 0.91798 0.0
H1993 H 0.92503 0.65213 0.92874 0.0
H1994 H 0.9395 0.64259 0.91612 0.0
H1995 H 0.90191 0.61146 0.04059 0.0
H1996 H 0.89641 0.62845 0.02584 0.0
H1997 H 0.88487 0.60392 0.01314 0.0
H1998 H 0.88219 0.66064 0.95025 0.0
H1999 H 0.85576 0.60056 0.92561 0.0
H2000 H 0.92387 0.66969 0.96998 0.0
H2001 H 0.91359 0.65927 0.00167 0.0
H2002 H 0.90622 0.67422 0.98494 0.0
H2003 H 0.89082 0.59329 0.9367 0.0
H2004 H 0.86546 0.57967 0.944 0.0
H2005 H 0.88309 0.58828 0.97084 0.0
C2006 C 0.35421 0.31165 0.95769 0.0
C2007 C 0.35692 0.31912 0.984 0.0
C2008 C 0.35467 0.29464 0.95185 0.0
C2009 C 0.3572 0.28455 0.97302 0.0
C2010 C 0.35926 0.29172 -0.00023 0.0
C2011 C 0.35946 0.30915 0.00488 0.0
C2012 C 0.3529 0.28774 0.92293 0.0
C2013 C 0.36128 0.28101 0.02293 0.0
C2014 C 0.34268 0.23332 0.95026 0.0
C2015 C 0.36051 0.23602 0.94239 0.0
C2016 C 0.3415 0.24855 0.96285 0.0
C2017 C 0.35849 0.26699 0.96671 0.0
C2018 C 0.37665 0.26918 0.96091 0.0
C2019 C 0.37743 0.25353 0.94913 0.0
C2020 C 0.32193 0.24541 0.96969 0.0
C2021 C 0.3951 0.28864 0.96424 0.0
H2022 H 0.35231 0.31942 0.94158 0.0
H2023 H 0.36132 0.31484 0.02532 0.0
H2024 H 0.36577 0.28695 0.91727 0.0
H2025 H 0.34014 0.27285 0.92039 0.0
H2026 H 0.35147 0.2975 0.90882 0.0
H2027 H 0.36144 0.28781 0.04269 0.0
H2028 H 0.34921 0.26562 0.02256 0.0
H2029 H 0.37482 0.28077 0.02098 0.0
H2030 H 0.32959 0.21984 0.9447 0.0
H2031 H 0.39117 0.25572 0.94249 0.0
H2032 H 0.31742 0.25196 0.95406 0.0
H2033 H 0.32239 0.2526 0.98922 0.0
H2034 H 0.31084 0.22965 0.97067 0.0
H2035 H 0.39561 0.29867 0.94875 0.0
H2036 H 0.40806 0.28733 0.96202 0.0
H2037 H 0.39573 0.29542 0.98416 0.0
C2038 C 0.70237 0.05424 0.9639 0.0
C2039 C 0.69535 0.05402 0.98973 0.0
C2040 C 0.71928 0.07063 0.95487 0.0
C2041 C 0.72962 0.08713 0.97224 0.0
C2042 C 0.72271 0.08692 -0.00152 0.0
C2043 C 0.70555 0.07041 0.00683 0.0
C2044 C 0.72599 0.07035 0.92658 0.0
C2045 C 0.73348 0.10408 0.01769 0.0
C2046 C 0.78085 0.12009 0.94849 0.0
C2047 C 0.77863 0.13311 0.9327 0.0
C2048 C 0.76536 0.10591 0.96344 0.0
C2049 C 0.74728 0.10471 0.96232 0.0
C2050 C 0.74557 0.11902 0.94846 0.0
C2051 C 0.76132 0.13313 0.93399 0.0
C2052 C 0.76789 0.09118 0.97843 0.0
C2053 C 0.72661 0.11832 0.9467 0.0
H2054 H 0.69453 0.04162 0.9506 0.0
H2055 H 0.70025 0.07026 0.02692 0.0
H2056 H 0.7268 0.08251 0.91517 0.0
H2057 H 0.74068 0.07253 0.92705 0.0
H2058 H 0.71626 0.05643 0.91558 0.0
H2059 H 0.72649 0.10141 0.03766 0.0
H2060 H 0.74846 0.10736 0.02046 0.0
H2061 H 0.73437 0.11723 0.00923 0.0
H2062 H 0.79415 0.11992 0.94744 0.0
H2063 H 0.75963 0.14328 0.92191 0.0
H2064 H 0.76088 0.07714 0.96691 0.0
H2065 H 0.7609 0.08842 -0.00163 0.0
H2066 H 0.78335 0.09604 0.98131 0.0
H2067 H 0.71654 0.10583 0.93351 0.0
H2068 H 0.7283 0.13187 0.93831 0.0
H2069 H 0.71987 0.11605 0.96676 0.0
C2070 C 0.63219 0.94695 0.03047 0.0
C2071 C 0.64938 0.96481 0.02758 0.0
C2072 C 0.63239 0.9306 0.03995 0.0
C2073 C 0.65025 0.93207 0.04578 0.0
C2074 C 0.66766 0.9497 0.04079 0.0
C2075 C 0.667 0.96596 0.03227 0.0
C2076 C 0.6135 0.91228 0.04569 0.0
C2077 C 0.68701 0.95178 0.0459 0.0
C2078 C 0.65257 0.90368 0.10408 0.0
C2079 C 0.65132 0.88719 0.09137 0.0
C2080 C 0.65183 0.91801 0.08946 0.0
C2081 C 0.65073 0.91649 0.06109 0.0
C2082 C 0.65043 0.90043 0.04787 0.0
C2083 C 0.65053 0.88584 0.06319 0.0
C2084 C 0.65208 0.93475 0.10455 0.0
C2085 C 0.64997 0.89869 0.01762 0.0
H2086 H 0.61856 0.94608 0.02693 0.0
H2087 H 0.68033 0.97974 0.02969 0.0
H2088 H 0.61338 0.89928 0.03725 0.0
H2089 H 0.61169 0.9105 0.06776 0.0
H2090 H 0.601 0.91268 0.03734 0.0
H2091 H 0.69894 0.96504 0.03663 0.0
H2092 H 0.68977 0.95278 0.06786 0.0
H2093 H 0.68721 0.93882 0.03792 0.0
H2094 H 0.65409 0.90544 0.12574 0.0
H2095 H 0.64972 0.87329 0.05313 0.0
H2096 H 0.6395 0.93586 0.0985 0.0
H2097 H 0.66525 0.94869 0.0995 0.0
H2098 H 0.65174 0.93311 0.12668 0.0
H2099 H 0.63648 0.89725 0.00975 0.0
H2100 H 0.65083 0.88594 0.01037 0.0
H2101 H 0.66215 0.91211 0.0091 0.0
C2102 C 0.05041 0.69374 0.00496 0.0
C2103 C 0.03717 0.68309 0.02508 0.0
C2104 C 0.06739 0.71149 0.01108 0.0
C2105 C 0.07153 0.7183 0.0381 0.0
C2106 C 0.05817 0.70751 0.05849 0.0
C2107 C 0.04098 0.6902 0.05163 0.0
C2108 C 0.08091 0.72291 0.9887 0.0
C2109 C 0.06225 0.71399 0.08767 0.0
C2110 C 0.12237 0.75063 0.06467 0.0
C2111 C 0.1224 0.76775 0.07123 0.0
C2112 C 0.1063 0.73472 0.05219 0.0
C2113 C 0.09012 0.73622 0.04553 0.0
C2114 C 0.091 0.75425 0.04948 0.0
C2115 C 0.10703 0.76974 0.06277 0.0
C2116 C 0.10588 0.71569 0.04886 0.0
C2117 C 0.07436 0.75669 0.04179 0.0
H2118 H 0.04734 0.68831 0.98434 0.0
H2119 H 0.03078 0.68189 0.06719 0.0
H2120 H 0.08393 0.7381 0.98932 0.0
H2121 H 0.09487 0.72366 0.9914 0.0
H2122 H 0.07495 0.7163 0.96858 0.0
H2123 H 0.05058 0.70372 0.1011 0.0
H2124 H 0.07597 0.71525 0.0941 0.0
H2125 H 0.06398 0.72861 0.09036 0.0
H2126 H 0.13409 0.74897 0.07178 0.0
H2127 H 0.10698 0.78291 0.06821 0.0
H2128 H 0.10053 0.70915 0.02858 0.0
H2129 H 0.09582 0.7052 0.0637 0.0
H2130 H 0.12032 0.71754 0.05201 0.0
H2131 H 0.06836 0.74973 0.02187 0.0
H2132 H 0.07871 0.77231 0.0412 0.0
H2133 H 0.06269 0.74945 0.05673 0.0
C2134 C 0.30605 0.35771 0.04265 0.0
C2135 C 0.31503 0.36669 0.01865 0.0
C2136 C 0.29005 0.35824 0.05226 0.0
C2137 C 0.28257 0.36779 0.03735 0.0
C2138 C 0.29121 0.37647 0.0127 0.0
C2139 C 0.3075 0.37598 0.00371 0.0
C2140 C 0.28144 0.34892 0.0788 0.0
C2141 C 0.28343 0.38648 0.99607 0.0
C2142 C 0.23287 0.35195 0.06333 0.0
C2143 C 0.2374 0.36598 0.08383 0.0
C2144 C 0.24714 0.35347 0.04564 0.0
C2145 C 0.26633 0.36928 0.0488 0.0
C2146 C 0.27039 0.38457 0.06743 0.0
C2147 C 0.25583 0.38277 0.08463 0.0
C2148 C 0.2421 0.33708 0.02561 0.0
C2149 C 0.29059 0.40172 0.07151 0.0
H2150 H 0.31176 0.35052 0.05435 0.0
H2151 H 0.31433 0.38285 0.98507 0.0
H2152 H 0.28227 0.36007 0.0933 0.0
H2153 H 0.266 0.33766 0.07604 0.0
H2154 H 0.28892 0.34198 0.08779 0.0
H2155 H 0.29054 0.39079 0.9762 0.0
H2156 H 0.26768 0.37677 0.99287 0.0
H2157 H 0.28567 0.39975 0.00695 0.0
H2158 H 0.21864 0.33895 0.06257 0.0
H2159 H 0.25927 0.3938 0.1002 0.0
H2160 H 0.24656 0.3272 0.0338 0.0
H2161 H 0.24984 0.34277 0.00644 0.0
H2162 H 0.22636 0.32841 0.02142 0.0
H2163 H 0.29923 0.39697 0.08275 0.0
H2164 H 0.29074 0.41382 0.08312 0.0
H2165 H 0.29775 0.40731 0.05198 0.0
C2166 C 0.71866 0.6805 0.36133 0.0
C2167 C 0.7194 0.69827 0.35875 0.0
C2168 C 0.73448 0.67987 0.37141 0.0
C2169 C 0.75113 0.69738 0.38022 0.0
C2170 C 0.75223 0.71546 0.37657 0.0
C2171 C 0.73641 0.7157 0.36539 0.0
C2172 C 0.73291 0.66034 0.37409 0.0
C2173 C 0.76941 0.73439 0.38646 0.0
C2174 C 0.77536 0.69152 0.44112 0.0
C2175 C 0.79267 0.69403 0.43068 0.0
C2176 C 0.76219 0.69318 0.42503 0.0
C2177 C 0.76571 0.6964 0.39725 0.0
C2178 C 0.78267 0.69811 0.38613 0.0
C2179 C 0.79609 0.69715 0.40305 0.0
C2180 C 0.74443 0.69144 0.43794 0.0
C2181 C 0.78652 0.7008 0.3564 0.0
H2182 H 0.70553 0.66703 0.35584 0.0
H2183 H 0.7369 0.72942 0.36345 0.0
H2184 H 0.74646 0.66116 0.36772 0.0
H2185 H 0.73051 0.65605 0.39544 0.0
H2186 H 0.72076 0.64874 0.36196 0.0
H2187 H 0.76909 0.74727 0.3793 0.0
H2188 H 0.76956 0.73483 0.40877 0.0
H2189 H 0.78302 0.73548 0.37984 0.0
H2190 H 0.77194 0.68812 0.4621 0.0
H2191 H 0.80928 0.69896 0.39467 0.0
H2192 H 0.73135 0.67818 0.43006 0.0
H2193 H 0.74314 0.70417 0.43292 0.0
H2194 H 0.74466 0.69055 0.46017 0.0
H2195 H 0.77436 0.68867 0.34497 0.0
H2196 H 0.80006 0.7013 0.35075 0.0
H2197 H 0.78752 0.71451 0.35016 0.0
C2198 C 0.32848 0.03429 0.37947 0.0
C2199 C 0.32099 0.02637 0.35393 0.0
C2200 C 0.32841 0.05081 0.38937 0.0
C2201 C 0.32095 0.05981 0.37316 0.0
C2202 C 0.31407 0.05232 0.34694 0.0
C2203 C 0.31401 0.03557 0.33772 0.0
C2204 C 0.33573 0.05823 0.41757 0.0
C2205 C 0.30635 0.06172 0.32891 0.0
C2206 C 0.30237 0.08645 0.4152 0.0
C2207 C 0.31871 0.10523 0.41697 0.0
C2208 C 0.30239 0.07178 0.39934 0.0
C2209 C 0.31911 0.07609 0.38468 0.0
C2210 C 0.33487 0.09555 0.38417 0.0
C2211 C 0.33451 0.10994 0.40045 0.0
C2212 C 0.28524 0.05128 0.40044 0.0
C2213 C 0.35279 0.10082 0.36835 0.0
H2214 H 0.33389 0.02724 0.39205 0.0
H2215 H 0.30836 0.02959 0.31785 0.0
H2216 H 0.34719 0.07385 0.41732 0.0
H2217 H 0.32384 0.05708 0.43013 0.0
H2218 H 0.34161 0.04997 0.42724 0.0
H2219 H 0.30336 0.05533 0.3082 0.0
H2220 H 0.2928 0.05983 0.33734 0.0
H2221 H 0.31678 0.07762 0.32789 0.0
H2222 H 0.29014 0.08285 0.42795 0.0
H2223 H 0.34721 0.12442 0.40194 0.0
H2224 H 0.28915 0.04215 0.41217 0.0
H2225 H 0.28101 0.04464 0.37998 0.0
H2226 H 0.2726 0.05081 0.41005 0.0
H2227 H 0.36128 0.09564 0.379 0.0
H2228 H 0.36204 0.11682 0.36595 0.0
H2229 H 0.34901 0.09362 0.34817 0.0
C2230 C 0.97001 0.27734 0.35058 0.0
C2231 C 0.97851 0.29452 0.36643 0.0
C2232 C 0.95357 0.26027 0.3592 0.0
C2233 C 0.94551 0.26028 0.38446 0.0
C2234 C 0.9536 0.27779 0.40014 0.0
C2235 C 0.96997 0.29475 0.39087 0.0
C2236 C 0.94531 0.24201 0.34175 0.0
C2237 C 0.94551 0.27838 0.42729 0.0
C2238 C 0.89617 0.21856 0.40548 0.0
C2239 C 0.90148 0.20789 0.4215 0.0
C2240 C 0.91029 0.23533 0.39235 0.0
C2241 C 0.93006 0.24158 0.39577 0.0
C2242 C 0.93529 0.23026 0.41104 0.0
C2243 C 0.92094 0.21354 0.42359 0.0
C2244 C 0.90414 0.24686 0.37594 0.0
C2245 C 0.95615 0.23636 0.41535 0.0
H2246 H 0.97642 0.2771 0.33151 0.0
H2247 H 0.97643 0.30799 0.40317 0.0
H2248 H 0.94784 0.23117 0.35148 0.0
H2249 H 0.9295 0.23532 0.33943 0.0
H2250 H 0.9519 0.24493 0.32148 0.0
H2251 H 0.95246 0.2934 0.43604 0.0
H2252 H 0.92977 0.27239 0.4257 0.0
H2253 H 0.94771 0.2691 0.44135 0.0
H2254 H 0.88113 0.21435 0.40432 0.0
H2255 H 0.92499 0.20539 0.43636 0.0
H2256 H 0.91127 0.25016 0.35607 0.0
H2257 H 0.90868 0.26099 0.38635 0.0
H2258 H 0.88828 0.23898 0.37279 0.0
H2259 H 0.96344 0.23838 0.39576 0.0
H2260 H 0.95772 0.22553 0.42691 0.0
H2261 H 0.96376 0.25057 0.42645 0.0
C2262 C 0.02549 0.38542 0.30196 0.0
C2263 C 0.03342 0.38403 0.32619 0.0
C2264 C 0.02785 0.40324 0.29392 0.0
C2265 C 0.03815 0.42009 0.31071 0.0
C2266 C 0.04594 0.41872 0.33541 0.0
C2267 C 0.04363 0.40074 0.34275 0.0
C2268 C 0.01954 0.40408 0.26721 0.0
C2269 C 0.05673 0.43624 0.35403 0.0
C2270 C 0.05797 0.46704 0.27256 0.0
C2271 C 0.04298 0.47086 0.27518 0.0
C2272 C 0.05724 0.45128 0.28556 0.0
C2273 C 0.04117 0.43914 0.3017 0.0
C2274 C 0.02681 0.44401 0.30622 0.0
C2275 C 0.02777 0.45972 0.29261 0.0
C2276 C 0.07276 0.44657 0.27988 0.0
C2277 C 0.00961 0.43169 0.32364 0.0
H2278 H 0.01762 0.3726 0.28903 0.0
H2279 H 0.04969 0.39974 0.3616 0.0
H2280 H 0.00918 0.40911 0.27026 0.0
H2281 H 0.0312 0.41477 0.25418 0.0
H2282 H 0.012 0.38971 0.25647 0.0
H2283 H 0.06127 0.43262 0.37298 0.0
H2284 H 0.06973 0.44777 0.34388 0.0
H2285 H 0.04755 0.44243 0.35906 0.0
H2286 H 0.06947 0.47541 0.25854 0.0
H2287 H 0.01598 0.46244 0.29413 0.0
H2288 H 0.06681 0.43335 0.26666 0.0
H2289 H 0.07773 0.44334 0.29874 0.0
H2290 H 0.08539 0.45868 0.26978 0.0
H2291 H 0.99966 0.41778 0.31284 0.0
H2292 H 1.00158 0.43915 0.32874 0.0
H2293 H 0.01416 0.42802 0.34253 0.0
C2294 C 0.61722 0.63944 0.33157 0.0
C2295 C 0.63275 0.6498 0.31414 0.0
C2296 C 0.60075 0.62197 0.3232 0.0
C2297 C 0.5996 0.61495 0.29657 0.0
C2298 C 0.61538 0.62521 0.27898 0.0
C2299 C 0.63188 0.64244 0.2881 0.0
C2300 C 0.58444 0.61122 0.34269 0.0
C2301 C 0.61459 0.6183 0.25028 0.0
C2302 C 0.56394 0.56367 0.27117 0.0
C2303 C 0.55096 0.5669 0.25697 0.0
C2304 C 0.57919 0.57891 0.286 0.0
C2305 C 0.58147 0.5977 0.28631 0.0
C2306 C 0.56729 0.60044 0.27413 0.0
C2307 C 0.55211 0.58493 0.25978 0.0
C2308 C 0.59374 0.57529 0.29934 0.0
C2309 C 0.56913 0.62021 0.27399 0.0
H2310 H 0.61796 0.64497 0.35188 0.0
H2311 H 0.64388 0.65042 0.27463 0.0
H2312 H 0.5716 0.61156 0.33583 0.0
H2313 H 0.58029 0.59569 0.34338 0.0
H2314 H 0.58829 0.61767 0.36334 0.0
H2315 H 0.62821 0.62769 0.23939 0.0
H2316 H 0.61165 0.60314 0.24981 0.0
H2317 H 0.60261 0.6182 0.23936 0.0
H2318 H 0.56315 0.54977 0.26882 0.0
H2319 H 0.54202 0.58737 0.24878 0.0
H2320 H 0.59784 0.5825 0.3195 0.0
H2321 H 0.607 0.58159 0.28705 0.0
H2322 H 0.58816 0.55947 0.30146 0.0
H2323 H 0.57212 0.6268 0.29453 0.0
H2324 H 0.55592 0.61943 0.26611 0.0
H2325 H 0.58144 0.63011 0.26118 0.0
C2326 C 0.35993 0.96024 0.33165 0.0
C2327 C 0.35416 0.97018 0.31478 0.0
C2328 C 0.37491 0.95707 0.32421 0.0
C2329 C 0.38401 0.96363 0.29909 0.0
C2330 C 0.37824 0.97372 0.28206 0.0
C2331 C 0.36354 0.97703 0.29023 0.0
C2332 C 0.38094 0.94663 0.34309 0.0
C2333 C 0.38734 0.98073 0.2549 0.0
C2334 C 0.43256 0.9722 0.27722 0.0
C2335 C 0.42691 0.95622 0.2597 0.0
C2336 C 0.41884 0.97386 0.2926 0.0
C2337 C 0.39905 0.95944 0.28969 0.0
C2338 C 0.39358 0.94246 0.27377 0.0
C2339 C 0.40764 0.94103 0.25904 0.0
C2340 C 0.42534 0.99197 0.30982 0.0
C2341 C 0.37269 0.92683 0.2698 0.0
H2342 H 0.3528 0.95505 0.35074 0.0
H2343 H 0.35911 0.98466 0.27707 0.0
H2344 H 0.37806 0.93268 0.33365 0.0
H2345 H 0.39667 0.95557 0.34711 0.0
H2346 H 0.37321 0.94345 0.36253 0.0
H2347 H 0.38112 0.98823 0.24403 0.0
H2348 H 0.40308 0.99096 0.25728 0.0
H2349 H 0.38533 0.96819 0.24228 0.0
H2350 H 0.44744 0.98409 0.27731 0.0
H2351 H 0.40329 0.92888 0.24501 0.0
H2352 H 0.41737 0.98834 0.32905 0.0
H2353 H 0.42229 0.00212 0.29914 0.0
H2354 H 0.44104 0.99963 0.31426 0.0
H2355 H 0.36497 0.92305 0.28921 0.0
H2356 H 0.37106 0.91337 0.26028 0.0
H2357 H 0.3656 0.93236 0.25663 0.0
C2358 C 0.59445 0.95618 0.34565 0.0
C2359 C 0.60919 0.96232 0.32664 0.0
C2360 C 0.57673 0.95449 0.33895 0.0
C2361 C 0.57363 0.9586 0.31251 0.0
C2362 C 0.58836 0.96431 0.29315 0.0
C2363 C 0.60597 0.96631 0.30056 0.0
C2364 C 0.56155 0.94882 0.36025 0.0
C2365 C 0.58561 0.96844 0.26452 0.0
C2366 C 0.52641 0.94049 0.2763 0.0
C2367 C 0.52715 0.95814 0.27235 0.0
C2368 C 0.5404 0.93986 0.2921 0.0
C2369 C 0.55524 0.95726 0.30446 0.0
C2370 C 0.55439 0.97449 0.30346 0.0
C2371 C 0.54048 0.9748 0.28704 0.0
C2372 C 0.54075 0.92119 0.2924 0.0
C2373 C 0.56957 0.99323 0.31695 0.0
H2374 H 0.59697 0.95321 0.36589 0.0
H2375 H 0.61726 0.9709 0.28573 0.0
H2376 H 0.55939 0.96122 0.36459 0.0
H2377 H 0.54755 0.93642 0.35302 0.0
H2378 H 0.5656 0.94473 0.37925 0.0
H2379 H 0.59815 0.97177 0.25166 0.0
H2380 H 0.57256 0.95571 0.25551 0.0
H2381 H 0.58344 0.98105 0.26423 0.0
H2382 H 0.51626 0.92768 0.26459 0.0
H2383 H 0.54115 0.98849 0.28375 0.0
H2384 H 0.54509 0.91889 0.31244 0.0
H2385 H 0.55151 0.9221 0.27767 0.0
H2386 H 0.5265 0.90833 0.28686 0.0
H2387 H 0.5735 0.99044 0.33697 0.0
H2388 H 0.56463 0.00382 0.31937 0.0
H2389 H 0.58276 1.0 0.3045 0.0
C2390 C 0.03093 0.64625 0.34338 0.0
C2391 C 0.0257 0.65519 0.324 0.0
C2392 C 0.03216 0.62977 0.33677 0.0
C2393 C 0.02861 0.62244 0.30997 0.0
C2394 C 0.02338 0.63149 0.29031 0.0
C2395 C 0.02173 0.6476 0.29767 0.0
C2396 C 0.03724 0.6202 0.35839 0.0
C2397 C 0.01984 0.62436 0.26136 0.0
C2398 C 0.04993 0.59388 0.27985 0.0
C2399 C 0.03338 0.57552 0.27581 0.0
C2400 C 0.04886 0.6091 0.29265 0.0
C2401 C 0.03084 0.60566 0.30199 0.0
C2402 C 0.01447 0.58657 0.3003 0.0
C2403 C 0.01587 0.57176 0.28679 0.0
C2404 C 0.0666 0.62926 0.29362 0.0
C2405 C 0.99511 0.58216 0.31066 0.0
H2406 H 0.03385 0.65202 0.36384 0.0
H2407 H 0.01778 0.65456 0.28263 0.0
H2408 H 0.02601 0.60451 0.35934 0.0
H2409 H 0.05103 0.62102 0.35352 0.0
H2410 H 0.03868 0.62712 0.37851 0.0
H2411 H 0.01626 0.63325 0.24848 0.0
H2412 H 0.03283 0.6248 0.25317 0.0
H2413 H 0.00781 0.60899 0.26005 0.0
H2414 H 0.06335 0.59684 0.27076 0.0
H2415 H 1.00302 0.55761 0.28319 0.0
H2416 H 0.06845 0.63619 0.31379 0.0
H2417 H 0.06492 0.63855 0.27895 0.0
H2418 H 0.07988 0.62903 0.28864 0.0
H2419 H 0.99666 0.58926 0.33065 0.0
H2420 H 0.9849 0.56623 0.31231 0.0
H2421 H 0.98879 0.58805 0.29672 0.0
C2422 C 0.37637 0.37805 0.31467 0.0
C2423 C 0.361 0.38047 0.32204 0.0
C2424 C 0.39315 0.3934 0.30344 0.0
C2425 C 0.39414 0.41123 0.2983 0.0
C2426 C 0.37873 0.41382 0.30626 0.0
C2427 C 0.36249 0.3985 0.31859 0.0
C2428 C 0.40952 0.39026 0.29626 0.0
C2429 C 0.37884 0.43228 0.3002 0.0
C2430 C 0.44053 0.45657 0.27605 0.0
C2431 C 0.43847 0.45457 0.24798 0.0
C2432 C 0.42653 0.44229 0.29285 0.0
C2433 C 0.40989 0.42599 0.2813 0.0
C2434 C 0.408 0.42373 0.25304 0.0
C2435 C 0.42251 0.43766 0.23688 0.0
C2436 C 0.42946 0.44471 0.32291 0.0
C2437 C 0.39041 0.40678 0.23972 0.0
H2438 H 0.37527 0.36414 0.31775 0.0
H2439 H 0.35053 0.40028 0.3243 0.0
H2440 H 0.40998 0.38853 0.27416 0.0
H2441 H 0.42352 0.40309 0.30267 0.0
H2442 H 0.40793 0.37705 0.30568 0.0
H2443 H 0.36636 0.43249 0.30919 0.0
H2444 H 0.39231 0.44522 0.30782 0.0
H2445 H 0.3784 0.43366 0.27811 0.0
H2446 H 0.45286 0.46941 0.28489 0.0
H2447 H 0.42115 0.43533 0.21528 0.0
H2448 H 0.42751 0.43113 0.33154 0.0
H2449 H 0.4185 0.44737 0.33212 0.0
H2450 H 0.44399 0.45703 0.32862 0.0
H2451 H 0.38942 0.39287 0.24479 0.0
H2452 H 0.39066 0.40784 0.21749 0.0
H2453 H 0.37715 0.40611 0.24724 0.0
C2454 C 0.2972 0.27623 0.37083 0.0
C2455 C 0.31437 0.29411 0.36794 0.0
C2456 C 0.29742 0.25996 0.38055 0.0
C2457 C 0.31527 0.26148 0.38658 0.0
C2458 C 0.33268 0.27917 0.38179 0.0
C2459 C 0.332 0.29537 0.37304 0.0
C2460 C 0.27852 0.24158 0.38611 0.0
C2461 C 0.35203 0.28129 0.38711 0.0
C2462 C 0.31682 0.23238 0.44446 0.0
C2463 C 0.31531 0.21584 0.43151 0.0
C2464 C 0.31655 0.24704 0.43005 0.0
C2465 C 0.3157 0.24579 0.40167 0.0
C2466 C 0.31532 0.22977 0.38822 0.0
C2467 C 0.31493 0.21484 0.40332 0.0
C2468 C 0.31685 0.26373 0.44537 0.0
C2469 C 0.31516 0.22835 0.35795 0.0
H2470 H 0.28357 0.27528 0.36689 0.0
H2471 H 0.34532 0.30914 0.3704 0.0
H2472 H 0.27837 0.22868 0.3772 0.0
H2473 H 0.27677 0.23952 0.40813 0.0
H2474 H 0.266 0.24209 0.37807 0.0
H2475 H 0.364 0.29466 0.37811 0.0
H2476 H 0.35462 0.28209 0.40909 0.0
H2477 H 0.35234 0.26843 0.37896 0.0
H2478 H 0.31803 0.23383 0.46618 0.0
H2479 H 0.31397 0.20227 0.39311 0.0
H2480 H 0.30429 0.26489 0.43941 0.0
H2481 H 0.33004 0.27768 0.44044 0.0
H2482 H 0.31649 0.26195 0.46748 0.0
H2483 H 0.3016 0.22665 0.34994 0.0
H2484 H 0.31639 0.21583 0.35056 0.0
H2485 H 0.32723 0.24197 0.34971 0.0
C2486 C 0.70489 0.02457 0.38457 0.0
C2487 C 0.70037 0.01853 0.35766 0.0
C2488 C 0.7221 0.04178 0.39164 0.0
C2489 C 0.73473 0.0536 0.3712 0.0
C2490 C 0.72983 0.0479 0.3439 0.0
C2491 C 0.71287 0.0302 0.33747 0.0
C2492 C 0.727 0.04705 0.42105 0.0
C2493 C 0.74252 0.06044 0.32155 0.0
C2494 C 0.77029 0.10391 0.39943 0.0
C2495 C 0.78596 0.10176 0.4056 0.0
C2496 C 0.75411 0.08901 0.3856 0.0
C2497 C 0.75341 0.07137 0.37878 0.0
C2498 C 0.7699 0.06987 0.38302 0.0
C2499 C 0.78609 0.08524 0.39609 0.0
C2500 C 0.73714 0.0915 0.38052 0.0
C2501 C 0.76969 0.05123 0.37662 0.0
H2502 H 0.69525 0.01548 0.40017 0.0
H2503 H 0.70923 0.0256 0.3166 0.0
H2504 H 0.74103 0.04836 0.42574 0.0
H2505 H 0.72854 0.0614 0.42571 0.0
H2506 H 0.71587 0.03606 0.43442 0.0
H2507 H 0.73593 0.0547 0.3014 0.0
H2508 H 0.7454 0.07552 0.32418 0.0
H2509 H 0.75663 0.06129 0.32229 0.0
H2510 H 0.77011 0.1166 0.40714 0.0
H2511 H 0.79806 0.08344 0.40141 0.0
H2512 H 0.72594 0.08353 0.39583 0.0
H2513 H 0.7306 0.08534 0.36049 0.0
H2514 H 0.74134 0.10708 0.38167 0.0
H2515 H 0.7602 0.03993 0.39105 0.0
H2516 H 0.78431 0.05323 0.37799 0.0
H2517 H 0.76379 0.0456 0.35618 0.0
C2518 C 0.97514 0.71205 0.34104 0.0
C2519 C 0.98176 0.70213 0.3564 0.0
C2520 C 0.95854 0.71246 0.34859 0.0
C2521 C 0.94859 0.70298 0.37221 0.0
C2522 C 0.95518 0.69282 0.38756 0.0
C2523 C 0.97155 0.69244 0.37939 0.0
C2524 C 0.9518 0.72322 0.33156 0.0
C2525 C 0.94515 0.68259 0.41303 0.0
C2526 C 0.91946 0.71571 0.41807 0.0
C2527 C 0.90126 0.69875 0.41542 0.0
C2528 C 0.9348 0.71854 0.40169 0.0
C2529 C 0.93176 0.7041 0.38212 0.0
C2530 C 0.91279 0.68836 0.37693 0.0
C2531 C 0.89771 0.68582 0.39376 0.0
C2532 C 0.9547 0.73563 0.40789 0.0
C2533 C 0.90881 0.67287 0.35585 0.0
H2534 H 0.98293 0.71951 0.32319 0.0
H2535 H 0.97653 0.68474 0.39142 0.0
H2536 H 0.9362 0.71382 0.32689 0.0
H2537 H 0.95374 0.73623 0.34285 0.0
H2538 H 0.95985 0.72807 0.31242 0.0
H2539 H 0.95208 0.67527 0.42254 0.0
H2540 H 0.94525 0.69325 0.42778 0.0
H2541 H 0.92987 0.67147 0.40861 0.0
H2542 H 0.92217 0.7258 0.4347 0.0
H2543 H 0.88365 0.67268 0.39164 0.0
H2544 H 0.96288 0.74186 0.3892 0.0
H2545 H 0.96276 0.73059 0.41996 0.0
H2546 H 0.95413 0.74731 0.41957 0.0
H2547 H 0.91755 0.67939 0.33764 0.0
H2548 H 0.89332 0.66443 0.35005 0.0
H2549 H 0.91278 0.66258 0.36396 0.0
C2550 C 0.38877 0.02684 0.7238 0.0
C2551 C 0.38727 0.03457 0.69958 0.0
C2552 C 0.40605 0.02817 0.73153 0.0
C2553 C 0.42222 0.03715 0.71437 0.0
C2554 C 0.42075 0.04475 0.68966 0.0
C2555 C 0.40331 0.04356 0.68266 0.0
C2556 C 0.40704 0.02014 0.7583 0.0
C2557 C 0.43754 0.05407 0.67064 0.0
C2558 C 0.46809 0.05433 0.754 0.0
C2559 C 0.46959 0.03762 0.75286 0.0
C2560 C 0.45369 0.05515 0.73957 0.0
C2561 C 0.44069 0.03899 0.7232 0.0
C2562 C 0.44368 0.02312 0.71941 0.0
C2563 C 0.45807 0.02257 0.73443 0.0
C2564 C 0.45108 0.07235 0.74432 0.0
C2565 C 0.43046 0.00582 0.70162 0.0
H2566 H 0.37645 0.01994 0.73701 0.0
H2567 H 0.40216 0.04941 0.6638 0.0
H2568 H 0.4107 0.00865 0.75524 0.0
H2569 H 0.41858 0.03188 0.77101 0.0
H2570 H 0.39324 0.01382 0.7694 0.0
H2571 H 0.43389 0.05874 0.65183 0.0
H2572 H 0.44993 0.06697 0.68052 0.0
H2573 H 0.4423 0.04366 0.66538 0.0
H2574 H 0.47714 0.0661 0.76803 0.0
H2575 H 0.4591 0.00959 0.73348 0.0
H2576 H 0.4386 0.06801 0.75778 0.0
H2577 H 0.44794 0.0771 0.72523 0.0
H2578 H 0.46401 0.08493 0.75389 0.0
H2579 H 0.41671 0.99652 0.71223 0.0
H2580 H 0.43691 0.99681 0.69647 0.0
H2581 H 0.42702 0.01058 0.68277 0.0
C2582 C 0.99185 0.36766 0.71022 0.0
C2583 C 0.98334 0.358 0.68586 0.0
C2584 C 0.99132 0.38421 0.71866 0.0
C2585 C 0.98223 0.39143 0.70218 0.0
C2586 C 0.97402 0.38203 0.67723 0.0
C2587 C 0.97456 0.36532 0.66944 0.0
C2588 C 1.00015 0.39374 0.74554 0.0
C2589 C 0.96443 0.38943 0.65901 0.0
C2590 C 0.96666 0.4205 0.74447 0.0
C2591 C 0.98316 0.43915 0.74352 0.0
C2592 C 0.96527 0.40497 0.72898 0.0
C2593 C 0.98071 0.4083 0.71202 0.0
C2594 C 0.99625 0.42759 0.70846 0.0
C2595 C 0.99731 0.44286 0.72436 0.0
C2596 C 0.94837 0.38469 0.73328 0.0
C2597 C 0.01281 0.43183 0.69018 0.0
H2598 H 0.99865 0.36207 0.72299 0.0
H2599 H 0.96805 0.35796 0.65049 0.0
H2600 H 0.01129 0.40929 0.74287 0.0
H2601 H 0.98893 0.39331 0.75889 0.0
H2602 H 0.00688 0.38647 0.75575 0.0
H2603 H 0.96 0.38134 0.63943 0.0
H2604 H 0.95147 0.38798 0.66892 0.0
H2605 H 0.97432 0.40514 0.65521 0.0
H2606 H 0.95572 0.41766 0.75931 0.0
H2607 H 0.01014 0.45725 0.72371 0.0
H2608 H 0.953 0.37663 0.7461 0.0
H2609 H 0.94312 0.37647 0.71393 0.0
H2610 H 0.93623 0.38496 0.74335 0.0
H2611 H 0.02236 0.42769 0.70022 0.0
H2612 H 0.0215 0.44755 0.6854 0.0
H2613 H 0.00755 0.42316 0.67115 0.0
C2614 C 0.63905 0.61355 0.66933 0.0
C2615 C 0.64871 0.62846 0.68878 0.0
C2616 C 0.62254 0.59575 0.67586 0.0
C2617 C 0.61591 0.59256 0.70268 0.0
C2618 C 0.6256 0.60765 0.72237 0.0
C2619 C 0.64172 0.62551 0.71509 0.0
C2620 C 0.61232 0.58029 0.65416 0.0
C2621 C 0.61929 0.60473 0.75135 0.0
C2622 C 0.56628 0.55348 0.72587 0.0
C2623 C 0.57031 0.53983 0.7363 0.0
C2624 C 0.58062 0.57002 0.71267 0.0
C2625 C 0.5995 0.5732 0.71072 0.0
C2626 C 0.60317 0.55868 0.71956 0.0
C2627 C 0.58845 0.54209 0.73203 0.0
C2628 C 0.57594 0.58483 0.70285 0.0
C2629 C 0.62312 0.56156 0.71835 0.0
H2630 H 0.64434 0.61586 0.64889 0.0
H2631 H 0.64922 0.63696 0.73019 0.0
H2632 H 0.61346 0.56737 0.65848 0.0
H2633 H 0.59676 0.57537 0.65381 0.0
H2634 H 0.61839 0.58558 0.63394 0.0
H2635 H 0.6284 0.61787 0.7642 0.0
H2636 H 0.60412 0.6011 0.75276 0.0
H2637 H 0.61994 0.59228 0.75951 0.0
H2638 H 0.55238 0.55195 0.72975 0.0
H2639 H 0.59167 0.53177 0.74079 0.0
H2640 H 0.58249 0.59027 0.68293 0.0
H2641 H 0.58203 0.59751 0.71707 0.0
H2642 H 0.56014 0.57868 0.70128 0.0
H2643 H 0.62936 0.56617 0.69809 0.0
H2644 H 0.62313 0.5481 0.72337 0.0
H2645 H 0.6327 0.57332 0.73286 0.0
C2646 C 0.69589 0.72386 0.63251 0.0
C2647 C 0.70035 0.72088 0.65846 0.0
C2648 C 0.69763 0.74161 0.62569 0.0
C2649 C 0.70347 0.75664 0.64552 0.0
C2650 C 0.70769 0.7536 0.67193 0.0
C2651 C 0.70635 0.73583 0.678 0.0
C2652 C 0.69339 0.74433 0.59709 0.0
C2653 C 0.71343 0.76904 0.69375 0.0
C2654 C 0.72329 0.80561 0.61321 0.0
C2655 C 0.70638 0.80603 0.60935 0.0
C2656 C 0.723 0.79041 0.62721 0.0
C2657 C 0.70541 0.77552 0.63796 0.0
C2658 C 0.68885 0.77725 0.63685 0.0
C2659 C 0.68946 0.79236 0.62214 0.0
C2660 C 0.74093 0.78907 0.6275 0.0
C2661 C 0.66996 0.76204 0.6487 0.0
H2662 H 0.69135 0.71239 0.61731 0.0
H2663 H 0.70965 0.73349 0.69816 0.0
H2664 H 0.6812 0.74695 0.59668 0.0
H2665 H 0.70609 0.75731 0.58857 0.0
H2666 H 0.68967 0.73147 0.5839 0.0
H2667 H 0.71587 0.76429 0.71339 0.0
H2668 H 0.72679 0.78259 0.68807 0.0
H2669 H 0.70201 0.77271 0.69616 0.0
H2670 H 0.73626 0.81595 0.60278 0.0
H2671 H 0.67631 0.79251 0.61874 0.0
H2672 H 0.7393 0.77787 0.61244 0.0
H2673 H 0.74313 0.78453 0.6474 0.0
H2674 H 0.75399 0.80316 0.62248 0.0
H2675 H 0.66305 0.74898 0.63515 0.0
H2676 H 0.65988 0.76749 0.6512 0.0
H2677 H 0.67228 0.75742 0.66848 0.0
C2678 C 0.2977 0.97396 0.63331 0.0
C2679 C 0.29828 0.9815 0.65916 0.0
C2680 C 0.28118 0.95696 0.62382 0.0
C2681 C 0.26498 0.94707 0.64079 0.0
C2682 C 0.26574 0.95427 0.66724 0.0
C2683 C 0.28233 0.97154 0.67602 0.0
C2684 C 0.28086 0.94989 0.59533 0.0
C2685 C 0.24893 0.94391 0.68607 0.0
C2686 C 0.21903 0.91797 0.60048 0.0
C2687 C 0.21788 0.89992 0.5978 0.0
C2688 C 0.23349 0.93311 0.61624 0.0
C2689 C 0.24693 0.93 0.62993 0.0
C2690 C 0.24445 0.91112 0.62975 0.0
C2691 C 0.22994 0.89625 0.61353 0.0
C2692 C 0.23555 0.95297 0.61587 0.0
C2693 C 0.25821 0.9071 0.64461 0.0
H2694 H 0.31001 0.98162 0.62024 0.0
H2695 H 0.28281 0.97724 0.69615 0.0
H2696 H 0.27766 0.93464 0.59524 0.0
H2697 H 0.26925 0.94999 0.58368 0.0
H2698 H 0.29476 0.95904 0.58491 0.0
H2699 H 0.25245 0.95041 0.70672 0.0
H2700 H 0.23647 0.9446 0.67838 0.0
H2701 H 0.24436 0.92827 0.68707 0.0
H2702 H 0.20961 0.92073 0.58836 0.0
H2703 H 0.22913 0.88233 0.61137 0.0
H2704 H 0.24818 0.96284 0.60351 0.0
H2705 H 0.23813 0.95949 0.63642 0.0
H2706 H 0.22259 0.95235 0.60729 0.0
H2707 H 0.27189 0.91317 0.63332 0.0
H2708 H 0.25222 0.89121 0.64684 0.0
H2709 H 0.26168 0.91424 0.66483 0.0
C2710 C 0.02934 0.30971 0.62862 0.0
C2711 C 0.0205 0.30402 0.65372 0.0
C2712 C 0.04491 0.30747 0.62165 0.0
C2713 C 0.05214 0.2997 0.64046 0.0
C2714 C 0.04344 0.29416 0.66602 0.0
C2715 C 0.02755 0.29618 0.67225 0.0
C2716 C 0.05351 0.31329 0.59398 0.0
C2717 C 0.05101 0.28623 0.68676 0.0
C2718 C 0.08012 0.27996 0.60493 0.0
C2719 C 0.09849 0.29671 0.60427 0.0
C2720 C 0.06506 0.28007 0.61889 0.0
C2721 C 0.06863 0.29729 0.63273 0.0
C2722 C 0.08772 0.31346 0.63463 0.0
C2723 C 0.10241 0.31307 0.62001 0.0
C2724 C 0.04495 0.26257 0.61602 0.0
C2725 C 0.09227 0.33193 0.64969 0.0
H2726 H 0.02389 0.31568 0.61416 0.0
H2727 H 0.02084 0.29188 0.69176 0.0
H2728 H 0.06888 0.32499 0.59567 0.0
H2729 H 0.05296 0.30067 0.58334 0.0
H2730 H 0.04587 0.3186 0.58149 0.0
H2731 H 0.04285 0.28287 0.70584 0.0
H2732 H 0.0502 0.27275 0.67886 0.0
H2733 H 0.06641 0.29697 0.69111 0.0
H2734 H 0.07704 0.26747 0.59226 0.0
H2735 H 0.11657 0.32613 0.6191 0.0
H2736 H 0.03671 0.26576 0.60132 0.0
H2737 H 0.0372 0.25933 0.6354 0.0
H2738 H 0.04506 0.24939 0.60879 0.0
H2739 H 0.08765 0.34026 0.63744 0.0
H2740 H 0.10795 0.34137 0.65393 0.0
H2741 H 0.08435 0.32857 0.66894 0.0
C2742 C 0.26466 0.29245 0.68421 0.0
C2743 C 0.27893 0.29733 0.66476 0.0
C2744 C 0.24745 0.29198 0.67789 0.0
C2745 C 0.24436 0.29601 0.65139 0.0
C2746 C 0.25859 0.30041 0.6316 0.0
C2747 C 0.27573 0.30125 0.63864 0.0
C2748 C 0.23285 0.2877 0.69963 0.0
C2749 C 0.2558 0.30438 0.60291 0.0
C2750 C 0.1971 0.28021 0.61666 0.0
C2751 C 0.19906 0.29837 0.6122 0.0
C2752 C 0.21077 0.27878 0.63214 0.0
C2753 C 0.22652 0.2959 0.6437 0.0
C2754 C 0.22699 0.31381 0.64221 0.0
C2755 C 0.21338 0.31489 0.6261 0.0
C2756 C 0.20971 0.25941 0.63296 0.0
C2757 C 0.24318 0.33231 0.65488 0.0
H2758 H 0.26718 0.28956 0.70449 0.0
H2759 H 0.28666 0.30485 0.62348 0.0
H2760 H 0.23182 0.30083 0.70369 0.0
H2761 H 0.21835 0.27584 0.69298 0.0
H2762 H 0.2367 0.28347 0.71865 0.0
H2763 H 0.26784 0.30659 0.58971 0.0
H2764 H 0.24218 0.29205 0.59449 0.0
H2765 H 0.25469 0.31762 0.6023 0.0
H2766 H 0.18617 0.26748 0.60557 0.0
H2767 H 0.21496 0.32896 0.62246 0.0
H2768 H 0.21401 0.25706 0.65299 0.0
H2769 H 0.21985 0.25925 0.61801 0.0
H2770 H 0.195 0.24708 0.62801 0.0
H2771 H 0.24707 0.3295 0.67492 0.0
H2772 H 0.2393 0.34372 0.65708 0.0
H2773 H 0.25612 0.33805 0.64199 0.0
C2774 C 0.68504 0.97258 0.62992 0.0
C2775 C 0.68722 0.97853 0.65694 0.0
C2776 C 0.68543 0.95585 0.62205 0.0
C2777 C 0.68737 0.94446 0.64184 0.0
C2778 C 0.68873 0.94998 0.6693 0.0
C2779 C 0.68903 0.9672 0.67649 0.0
C2780 C 0.6844 0.95072 0.59246 0.0
C2781 C 0.69008 0.93784 0.691 0.0
C2782 C 0.67399 0.89516 0.61219 0.0
C2783 C 0.69212 0.89864 0.60434 0.0
C2784 C 0.67227 0.90929 0.62709 0.0
C2785 C 0.68904 0.92746 0.63333 0.0
C2786 C 0.70743 0.93027 0.62753 0.0
C2787 C 0.70874 0.91566 0.61338 0.0
C2788 C 0.65244 0.90544 0.63385 0.0
C2789 C 0.72568 0.94952 0.63336 0.0
H2790 H 0.68374 0.98143 0.61484 0.0
H2791 H 0.69051 0.97175 0.69746 0.0
H2792 H 0.69748 0.9504 0.58652 0.0
H2793 H 0.67179 0.93596 0.5883 0.0
H2794 H 0.68322 0.96126 0.57966 0.0
H2795 H 0.68919 0.94313 0.71146 0.0
H2796 H 0.67833 0.9224 0.68846 0.0
H2797 H 0.70391 0.93817 0.68936 0.0
H2798 H 0.66115 0.88205 0.60492 0.0
H2799 H 0.72272 0.91846 0.60683 0.0
H2800 H 0.64817 0.91285 0.61924 0.0
H2801 H 0.65231 0.91133 0.65419 0.0
H2802 H 0.6415 0.8896 0.63297 0.0
H2803 H 0.72655 0.96059 0.61943 0.0
H2804 H 0.73878 0.94851 0.63075 0.0
H2805 H 0.72564 0.95481 0.65411 0.0
C2806 C 0.04235 0.70951 0.64751 0.0
C2807 C 0.02745 0.71269 0.65488 0.0
C2808 C 0.05949 0.7245 0.63651 0.0
C2809 C 0.06134 0.74276 0.63164 0.0
C2810 C 0.04635 0.74606 0.63937 0.0
C2811 C 0.02975 0.73108 0.65145 0.0
C2812 C 0.07542 0.72063 0.62954 0.0
C2813 C 0.0474 0.76503 0.6336 0.0
C2814 C 0.10859 0.78816 0.61229 0.0
C2815 C 0.10693 0.78714 0.58418 0.0
C2816 C 0.09428 0.77335 0.62814 0.0
C2817 C 0.07775 0.75754 0.61557 0.0
C2818 C 0.07639 0.75614 0.58722 0.0
C2819 C 0.09119 0.77061 0.57199 0.0
C2820 C 0.09663 0.77484 0.6583 0.0
C2821 C 0.05895 0.73975 0.57286 0.0
H2822 H 0.04066 0.69534 0.65061 0.0
H2823 H 0.0182 0.7335 0.65719 0.0
H2824 H 0.07632 0.71943 0.60742 0.0
H2825 H 0.08953 0.73291 0.63676 0.0
H2826 H 0.07302 0.70693 0.63839 0.0
H2827 H 0.03485 0.76552 0.64175 0.0
H2828 H 0.06077 0.77748 0.64233 0.0
H2829 H 0.04789 0.76702 0.61156 0.0
H2830 H 0.12077 0.8007 0.62192 0.0
H2831 H 0.09017 0.76911 0.55027 0.0
H2832 H 0.09375 0.76076 0.66632 0.0
H2833 H 0.08601 0.77805 0.66745 0.0
H2834 H 0.11131 0.7865 0.66472 0.0
H2835 H 0.05725 0.72551 0.57785 0.0
H2836 H 0.05991 0.74117 0.55067 0.0
H2837 H 0.04573 0.73949 0.57962 0.0
C2838 C 0.96361 0.61132 0.71053 0.0
C2839 C 0.98058 0.62934 0.7074 0.0
C2840 C 0.96422 0.59523 0.72012 0.0
C2841 C 0.98227 0.59708 0.72567 0.0
C2842 C 0.99947 0.61501 0.72106 0.0
C2843 C 0.9984 0.63103 0.7125 0.0
C2844 C 0.94555 0.5766 0.72566 0.0
C2845 C 0.01902 0.61746 0.72588 0.0
C2846 C 0.98533 0.56692 0.78084 0.0
C2847 C 0.98416 0.55096 0.76658 0.0
C2848 C 0.98433 0.58167 0.76776 0.0
C2849 C 0.98315 0.58118 0.73942 0.0
C2850 C 0.983 0.56574 0.72463 0.0
C2851 C 0.98327 0.55065 0.73841 0.0
C2852 C 0.98431 0.59768 0.78445 0.0
C2853 C 0.98253 0.56515 0.69433 0.0
H2854 H 0.94984 0.61003 0.70654 0.0
H2855 H 0.01155 0.64491 0.70962 0.0
H2856 H 0.94539 0.564 0.71565 0.0
H2857 H 0.94426 0.57399 0.74758 0.0
H2858 H 0.93278 0.5771 0.71873 0.0
H2859 H 0.03085 0.6313 0.7177 0.0
H2860 H 0.02153 0.61746 0.74776 0.0
H2861 H 0.01969 0.6051 0.71656 0.0
H2862 H 0.98696 0.56793 0.80252 0.0
H2863 H 0.98253 0.53853 0.72716 0.0
H2864 H 0.97156 0.59873 0.77924 0.0
H2865 H 0.99732 0.61193 0.78006 0.0
H2866 H 0.98408 0.59523 0.80637 0.0
H2867 H 0.96891 0.56372 0.68705 0.0
H2868 H 0.98366 0.55284 0.68578 0.0
H2869 H 0.99454 0.57901 0.68653 0.0
C2870 C 0.38484 0.35849 0.67348 0.0
C2871 C 0.37105 0.34886 0.69346 0.0
C2872 C 0.4024 0.37568 0.67952 0.0
C2873 C 0.40644 0.38304 0.70631 0.0
C2874 C 0.39258 0.37325 0.72657 0.0
C2875 C 0.37494 0.35643 0.71981 0.0
C2876 C 0.41657 0.38601 0.65728 0.0
C2877 C 0.39648 0.38037 0.75551 0.0
C2878 C 0.45718 0.41462 0.73388 0.0
C2879 C 0.458 0.43237 0.73834 0.0
C2880 C 0.4409 0.39865 0.72182 0.0
C2881 C 0.42529 0.40069 0.71361 0.0
C2882 C 0.42692 0.41917 0.71575 0.0
C2883 C 0.44317 0.43475 0.72853 0.0
C2884 C 0.43965 0.37916 0.72037 0.0
C2885 C 0.41087 0.42211 0.70655 0.0
H2886 H 0.38178 0.35273 0.65302 0.0
H2887 H 0.36433 0.34894 0.73529 0.0
H2888 H 0.4201 0.40135 0.65646 0.0
H2889 H 0.43021 0.38638 0.66135 0.0
H2890 H 0.41091 0.37884 0.63732 0.0
H2891 H 0.38438 0.37082 0.76892 0.0
H2892 H 0.40974 0.38104 0.76282 0.0
H2893 H 0.39896 0.39535 0.75715 0.0
H2894 H 0.46849 0.41271 0.74204 0.0
H2895 H 0.44373 0.44843 0.73238 0.0
H2896 H 0.4344 0.37208 0.70032 0.0
H2897 H 0.42915 0.36939 0.73542 0.0
H2898 H 0.45377 0.38051 0.7245 0.0
H2899 H 0.40515 0.41486 0.68668 0.0
H2900 H 0.41572 0.43782 0.70511 0.0
H2901 H 0.39885 0.41544 0.72106 0.0
C2902 C 0.64205 0.02444 0.7172 0.0
C2903 C 0.65134 0.03205 0.69282 0.0
C2904 C 0.62642 0.02616 0.72545 0.0
C2905 C 0.61963 0.03548 0.7087 0.0
C2906 C 0.62872 0.04296 0.68381 0.0
C2907 C 0.64463 0.04131 0.67623 0.0
C2908 C 0.61735 0.01818 0.75235 0.0
C2909 C 0.62166 0.05268 0.66527 0.0
C2910 C 0.56968 0.02161 0.73132 0.0
C2911 C 0.57407 0.03647 0.75045 0.0
C2912 C 0.58417 0.02214 0.71505 0.0
C2913 C 0.60343 0.03779 0.71825 0.0
C2914 C 0.60743 0.05387 0.73527 0.0
C2915 C 0.59265 0.05306 0.75104 0.0
C2916 C 0.57919 0.00491 0.69666 0.0
C2917 C 0.6277 0.07087 0.73936 0.0
H2918 H 0.64719 0.01733 0.73017 0.0
H2919 H 0.65169 0.0471 0.65727 0.0
H2920 H 0.61821 0.03005 0.76537 0.0
H2921 H 0.60188 0.00701 0.74958 0.0
H2922 H 0.62446 0.01147 0.76301 0.0
H2923 H 0.62979 0.05702 0.64615 0.0
H2924 H 0.60615 0.04268 0.66057 0.0
H2925 H 0.62304 0.06585 0.67532 0.0
H2926 H 0.55535 0.00875 0.73073 0.0
H2927 H 0.59601 0.06472 0.76553 0.0
H2928 H 0.58323 0.99522 0.70659 0.0
H2929 H 0.58732 0.00971 0.6776 0.0
H2930 H 0.56352 0.9963 0.69194 0.0
H2931 H 0.63581 0.06638 0.75233 0.0
H2932 H 0.62791 0.08357 0.74921 0.0
H2933 H 0.63539 0.07549 0.71997 0.0
loop_
_geom_bond_atom_site_label_1
_geom_bond_atom_site_label_2
_geom_bond_distance
_geom_bond_site_symmetry_2
_ccdc_geom_bond_type
Co0 O1 2.216 . S
Co0 O2 2.091 . S
Co0 O4 2.004 1_554 S
Co0 O10 2.021 . S
Co0 O12 2.137 1_454 S
Co0 O13 2.244 1_455 S
O1 Co0 2.216 . S
O1 C8 1.247 . S
O2 Co0 2.091 . S
O2 C8 1.261 . S
C3 O12 1.247 . S
C3 O13 1.272 1_556 S
O4 Co0 2.004 1_556 S
O4 C9 1.259 1_455 S
Co5 O6 2.061 1_554 S
Co5 O11 2.052 . S
Co5 O13 2.135 . S
O6 Co5 2.061 1_556 S
O6 C9 1.235 . S
C7 O10 1.238 1_655 S
C7 O11 1.241 . S
C8 O1 1.247 . S
C8 O2 1.261 . S
C9 O4 1.259 1_655 S
C9 O6 1.235 . S
O10 Co0 2.021 . S
O10 C7 1.238 1_455 S
O11 Co5 2.052 . S
O11 C7 1.241 . S
O12 Co0 2.137 1_656 S
O12 C3 1.247 . S
O13 Co0 2.244 1_655 S
O13 C3 1.272 1_554 S
O13 Co5 2.135 . S
Co14 O15 2.216 1_554 S
Co14 O16 2.091 . S
Co14 O18 2.004 . S
Co14 O24 2.021 1_554 S
Co14 O26 2.137 . S
Co14 O27 2.244 . S
O15 Co14 2.216 1_556 S
O15 C22 1.247 . S
O16 Co14 2.091 . S
O16 C22 1.261 1_554 S
C17 O26 1.247 . S
C17 O27 1.272 . S
O18 Co14 2.004 . S
O18 C23 1.259 . S
Co19 O20 2.061 . S
Co19 O25 2.052 1_554 S
Co19 O27 2.135 . S
O20 Co19 2.061 . S
O20 C23 1.235 . S
C21 O24 1.238 . S
C21 O25 1.241 . S
C22 O15 1.247 . S
C22 O16 1.261 1_556 S
C23 O18 1.259 . S
C23 O20 1.235 . S
O24 Co14 2.021 1_556 S
O24 C21 1.238 . S
O25 Co19 2.052 1_556 S
O25 C21 1.241 . S
O26 Co14 2.137 . S
O26 C17 1.247 . S
O27 Co14 2.244 . S
O27 C17 1.272 . S
O27 Co19 2.135 . S
Co28 O29 2.216 1_554 S
Co28 O30 2.091 . S
Co28 O32 2.004 . S
Co28 O38 2.021 1_554 S
Co28 O40 2.137 1_545 S
Co28 O41 2.244 1_545 S
O29 Co28 2.216 1_556 S
O29 C36 1.247 . S
O30 Co28 2.091 . S
O30 C36 1.261 1_554 S
C31 O40 1.247 . S
C31 O41 1.272 . S
O32 Co28 2.004 . S
O32 C37 1.259 . S
Co33 O34 2.061 . S
Co33 O39 2.052 1_554 S
Co33 O41 2.135 . S
O34 Co33 2.061 . S
O34 C37 1.235 1_565 S
C35 O38 1.238 1_565 S
C35 O39 1.241 . S
C36 O29 1.247 . S
C36 O30 1.261 1_556 S
C37 O32 1.259 . S
C37 O34 1.235 1_545 S
O38 Co28 2.021 1_556 S
O38 C35 1.238 1_545 S
O39 Co33 2.052 1_556 S
O39 C35 1.241 . S
O40 Co28 2.137 1_565 S
O40 C31 1.247 . S
O41 Co28 2.244 1_565 S
O41 C31 1.272 . S
O41 Co33 2.135 . S
Co42 O43 2.216 1_554 S
Co42 O44 2.091 . S
Co42 O46 2.004 . S
Co42 O52 2.021 1_554 S
Co42 O54 2.137 1_655 S
Co42 O55 2.244 1_655 S
O43 Co42 2.216 1_556 S
O43 C50 1.247 . S
O44 Co42 2.091 . S
O44 C50 1.261 1_554 S
C45 O54 1.247 . S
C45 O55 1.272 . S
O46 Co42 2.004 . S
O46 C51 1.259 1_655 S
Co47 O48 2.061 . S
Co47 O53 2.052 1_554 S
Co47 O55 2.135 . S
O48 Co47 2.061 . S
O48 C51 1.235 . S
C49 O52 1.238 1_455 S
C49 O53 1.241 . S
C50 O43 1.247 . S
C50 O44 1.261 1_556 S
C51 O46 1.259 1_455 S
C51 O48 1.235 . S
O52 Co42 2.021 1_556 S
O52 C49 1.238 1_655 S
O53 Co47 2.052 1_556 S
O53 C49 1.241 . S
O54 Co42 2.137 1_455 S
O54 C45 1.247 . S
O55 Co42 2.244 1_455 S
O55 C45 1.272 . S
O55 Co47 2.135 . S
Co56 O57 2.216 . S
Co56 O58 2.091 . S
Co56 O60 2.004 1_554 S
Co56 O66 2.021 . S
Co56 O68 2.137 1_554 S
Co56 O69 2.244 . S
O57 Co56 2.216 . S
O57 C64 1.247 . S
O58 Co56 2.091 . S
O58 C64 1.261 . S
C59 O68 1.247 . S
C59 O69 1.272 1_556 S
O60 Co56 2.004 1_556 S
O60 C65 1.259 . S
Co61 O62 2.061 1_554 S
Co61 O67 2.052 . S
Co61 O69 2.135 . S
O62 Co61 2.061 1_556 S
O62 C65 1.235 . S
C63 O66 1.238 . S
C63 O67 1.241 . S
C64 O57 1.247 . S
C64 O58 1.261 . S
C65 O60 1.259 . S
C65 O62 1.235 . S
O66 Co56 2.021 . S
O66 C63 1.238 . S
O67 Co61 2.052 . S
O67 C63 1.241 . S
O68 Co56 2.137 1_556 S
O68 C59 1.247 . S
O69 Co56 2.244 . S
O69 C59 1.272 1_554 S
O69 Co61 2.135 . S
Co70 O71 2.216 . S
Co70 O72 2.091 . S
Co70 O74 2.004 1_554 S
Co70 O80 2.021 . S
Co70 O82 2.137 1_564 S
Co70 O83 2.244 1_565 S
O71 Co70 2.216 . S
O71 C78 1.247 . S
O72 Co70 2.091 . S
O72 C78 1.261 . S
C73 O82 1.247 . S
C73 O83 1.272 1_556 S
O74 Co70 2.004 1_556 S
O74 C79 1.259 1_565 S
Co75 O76 2.061 1_554 S
Co75 O81 2.052 . S
Co75 O83 2.135 . S
O76 Co75 2.061 1_556 S
O76 C79 1.235 . S
C77 O80 1.238 1_545 S
C77 O81 1.241 . S
C78 O71 1.247 . S
C78 O72 1.261 . S
C79 O74 1.259 1_545 S
C79 O76 1.235 . S
O80 Co70 2.021 . S
O80 C77 1.238 1_565 S
O81 Co75 2.052 . S
O81 C77 1.241 . S
O82 Co70 2.137 1_546 S
O82 C73 1.247 . S
O83 Co70 2.244 1_545 S
O83 C73 1.272 1_554 S
O83 Co75 2.135 . S
Co84 O85 2.216 . S
Co84 O86 2.091 . S
Co84 O88 2.004 . S
Co84 O94 2.021 . S
Co84 O96 2.137 . S
Co84 O97 2.244 . S
O85 Co84 2.216 . S
O85 C92 1.247 . S
O86 Co84 2.091 . S
O86 C92 1.261 . S
C87 O96 1.247 . S
C87 O97 1.272 . S
O88 Co84 2.004 . S
O88 C93 1.259 . S
Co89 O90 2.061 . S
Co89 O95 2.052 . S
Co89 O97 2.135 . S
O90 Co89 2.061 . S
O90 C93 1.235 . S
C91 O94 1.238 . S
C91 O95 1.241 . S
C92 O85 1.247 . S
C92 O86 1.261 . S
C93 O88 1.259 . S
C93 O90 1.235 . S
O94 Co84 2.021 . S
O94 C91 1.238 . S
O95 Co89 2.052 . S
O95 C91 1.241 . S
O96 Co84 2.137 . S
O96 C87 1.247 . S
O97 Co84 2.244 . S
O97 C87 1.272 . S
O97 Co89 2.135 . S
Co98 O99 2.220 . S
Co98 O100 2.091 . S
Co98 O102 2.004 . S
Co98 O108 2.021 . S
Co98 O110 2.137 1_565 S
Co98 O111 2.244 1_565 S
O99 Co98 2.220 . S
O99 C106 1.264 . S
O100 Co98 2.091 . S
O100 C106 1.261 . S
C101 O110 1.247 . S
C101 O111 1.272 . S
O102 Co98 2.004 . S
O102 C107 1.259 . S
Co103 O104 2.061 . S
Co103 O109 2.052 . S
Co103 O111 2.135 1_565 S
O104 Co103 2.061 . S
O104 C107 1.235 . S
C105 O108 1.238 . S
C105 O109 1.241 . S
C106 O99 1.264 . S
C106 O100 1.261 . S
C107 O102 1.259 . S
C107 O104 1.235 . S
O108 Co98 2.021 . S
O108 C105 1.238 . S
O109 Co103 2.052 . S
O109 C105 1.241 . S
O110 Co98 2.137 1_545 S
O110 C101 1.247 . S
O111 Co98 2.244 1_545 S
O111 C101 1.272 . S
O111 Co103 2.135 1_545 S
Co112 O113 2.216 . S
Co112 O114 2.091 . S
Co112 O116 2.004 . S
Co112 O122 2.021 . S
Co112 O124 2.137 1_455 S
Co112 O125 2.244 1_455 S
O113 Co112 2.216 . S
O113 C120 1.247 . S
O114 Co112 2.091 . S
O114 C120 1.261 . S
C115 O124 1.247 . S
C115 O125 1.271 . S
O116 Co112 2.004 . S
O116 C121 1.259 . S
Co117 O118 2.061 . S
Co117 O123 2.052 . S
Co117 O125 2.135 1_455 S
O118 Co117 2.061 . S
O118 C121 1.235 . S
C119 O122 1.238 . S
C119 O123 1.241 . S
C120 O113 1.247 . S
C120 O114 1.261 . S
C121 O116 1.259 . S
C121 O118 1.235 . S
O122 Co112 2.021 . S
O122 C119 1.238 . S
O123 Co117 2.052 . S
O123 C119 1.241 . S
O124 Co112 2.137 1_655 S
O124 C115 1.247 . S
O125 Co112 2.244 1_655 S
O125 C115 1.271 . S
O125 Co117 2.135 1_655 S
Co126 O127 2.225 . S
Co126 O128 2.091 . S
Co126 O130 2.004 . S
Co126 O136 2.021 . S
Co126 O138 2.137 1_565 S
Co126 O139 2.244 1_565 S
O127 Co126 2.225 . S
O127 C134 1.247 . S
O128 Co126 2.091 . S
O128 C134 1.261 . S
C129 O138 1.247 . S
C129 O139 1.272 . S
O130 Co126 2.004 . S
O130 C135 1.259 . S
Co131 O132 2.061 . S
Co131 O137 2.052 . S
Co131 O139 2.135 1_565 S
O132 Co131 2.061 . S
O132 C135 1.235 . S
C133 O136 1.238 . S
C133 O137 1.241 . S
C134 O127 1.247 . S
C134 O128 1.261 . S
C135 O130 1.259 . S
C135 O132 1.235 . S
O136 Co126 2.021 . S
O136 C133 1.238 . S
O137 Co131 2.052 . S
O137 C133 1.241 . S
O138 Co126 2.137 1_545 S
O138 C129 1.247 . S
O139 Co126 2.244 1_545 S
O139 C129 1.272 . S
O139 Co131 2.135 1_545 S
Co140 O141 2.216 1_455 S
Co140 O142 2.091 1_455 S
Co140 O144 2.004 . S
Co140 O150 2.021 . S
Co140 O152 2.137 1_455 S
Co140 O153 2.244 . S
O141 Co140 2.216 1_655 S
O141 C148 1.247 . S
O142 Co140 2.091 1_655 S
O142 C148 1.261 . S
C143 O152 1.247 1_455 S
C143 O153 1.272 . S
O144 Co140 2.004 . S
O144 C149 1.259 . S
Co145 O146 2.061 . S
Co145 O151 2.052 . S
Co145 O153 2.135 . S
O146 Co145 2.061 . S
O146 C149 1.235 . S
C147 O150 1.238 . S
C147 O151 1.241 . S
C148 O141 1.247 . S
C148 O142 1.261 . S
C149 O144 1.259 . S
C149 O146 1.235 . S
O150 Co140 2.021 . S
O150 C147 1.238 . S
O151 Co145 2.052 . S
O151 C147 1.241 . S
O152 Co140 2.137 1_655 S
O152 C143 1.247 1_655 S
O153 Co140 2.244 . S
O153 C143 1.272 . S
O153 Co145 2.135 . S
Co154 O155 2.216 . S
Co154 O156 2.091 . S
Co154 O158 2.004 . S
Co154 O164 2.021 . S
Co154 O166 2.137 . S
Co154 O167 2.244 . S
O155 Co154 2.216 . S
O155 C162 1.247 . S
O156 Co154 2.091 . S
O156 C162 1.261 . S
C157 O166 1.247 . S
C157 O167 1.272 . S
O158 Co154 2.004 . S
O158 C163 1.259 . S
Co159 O160 2.061 . S
Co159 O165 2.052 . S
Co159 O167 2.135 . S
O160 Co159 2.061 . S
O160 C163 1.235 . S
C161 O164 1.238 . S
C161 O165 1.241 . S
C162 O155 1.247 . S
C162 O156 1.261 . S
C163 O158 1.259 . S
C163 O160 1.235 . S
O164 Co154 2.021 . S
O164 C161 1.238 . S
O165 Co159 2.052 . S
O165 C161 1.241 . S
O166 Co154 2.137 . S
O166 C157 1.247 . S
O167 Co154 2.244 . S
O167 C157 1.272 . S
O167 Co159 2.135 . S
Co168 O169 2.216 . S
Co168 O170 2.091 . S
Co168 O172 2.004 . S
Co168 O178 2.021 . S
Co168 O180 2.137 1_545 S
Co168 O181 2.244 1_545 S
O169 Co168 2.216 . S
O169 C176 1.247 . S
O170 Co168 2.091 . S
O170 C176 1.261 . S
C171 O180 1.247 . S
C171 O181 1.272 . S
O172 Co168 2.004 . S
O172 C177 1.259 . S
Co173 O174 2.061 . S
Co173 O179 2.052 . S
Co173 O181 2.135 1_545 S
O174 Co173 2.061 . S
O174 C177 1.235 . S
C175 O178 1.238 . S
C175 O179 1.241 . S
C176 O169 1.247 . S
C176 O170 1.261 . S
C177 O172 1.259 . S
C177 O174 1.235 . S
O178 Co168 2.021 . S
O178 C175 1.238 . S
O179 Co173 2.052 . S
O179 C175 1.241 . S
O180 Co168 2.137 1_565 S
O180 C171 1.247 . S
O181 Co168 2.244 1_565 S
O181 C171 1.272 . S
O181 Co173 2.135 1_565 S
Co182 O183 2.216 1_655 S
Co182 O184 2.091 1_655 S
Co182 O186 2.004 . S
Co182 O192 2.021 . S
Co182 O194 2.137 1_655 S
Co182 O195 2.244 . S
O183 Co182 2.216 1_455 S
O183 C190 1.247 . S
O184 Co182 2.091 1_455 S
O184 C190 1.261 . S
C185 O194 1.247 1_655 S
C185 O195 1.272 . S
O186 Co182 2.004 . S
O186 C191 1.259 . S
Co187 O188 2.061 . S
Co187 O193 2.052 . S
Co187 O195 2.135 . S
O188 Co187 2.061 . S
O188 C191 1.235 . S
C189 O192 1.238 . S
C189 O193 1.241 . S
C190 O183 1.247 . S
C190 O184 1.261 . S
C191 O186 1.259 . S
C191 O188 1.235 . S
O192 Co182 2.021 . S
O192 C189 1.238 . S
O193 Co187 2.052 . S
O193 C189 1.241 . S
O194 Co182 2.137 1_455 S
O194 C185 1.247 1_455 S
O195 Co182 2.244 . S
O195 C185 1.272 . S
O195 Co187 2.135 . S
Co196 O197 2.216 . S
Co196 O198 2.091 . S
Co196 O200 2.004 . S
Co196 O206 2.021 . S
Co196 O208 2.137 . S
Co196 O209 2.244 . S
O197 Co196 2.216 . S
O197 C204 1.247 . S
O198 Co196 2.091 . S
O198 C204 1.261 . S
C199 O208 1.247 . S
C199 O209 1.272 . S
O200 Co196 2.004 . S
O200 C205 1.259 . S
Co201 O202 2.061 . S
Co201 O207 2.052 . S
Co201 O209 2.135 . S
O202 Co201 2.061 . S
O202 C205 1.235 . S
C203 O206 1.238 . S
C203 O207 1.241 . S
C204 O197 1.247 . S
C204 O198 1.261 . S
C205 O200 1.259 . S
C205 O202 1.235 . S
O206 Co196 2.021 . S
O206 C203 1.238 . S
O207 Co201 2.052 . S
O207 C203 1.241 . S
O208 Co196 2.137 . S
O208 C199 1.247 . S
O209 Co196 2.244 . S
O209 C199 1.272 . S
O209 Co201 2.135 . S
Co210 O211 2.216 . S
Co210 O212 2.091 . S
Co210 O214 2.004 . S
Co210 O220 2.021 . S
Co210 O222 2.137 . S
Co210 O223 2.244 . S
O211 Co210 2.216 . S
O211 C218 1.247 . S
O212 Co210 2.091 . S
O212 C218 1.261 . S
C213 O222 1.247 . S
C213 O223 1.272 . S
O214 Co210 2.004 . S
O214 C219 1.259 . S
Co215 O216 2.061 . S
Co215 O221 2.052 . S
Co215 O223 2.135 . S
O216 Co215 2.061 . S
O216 C219 1.235 . S
C217 O220 1.238 . S
C217 O221 1.241 . S
C218 O211 1.247 . S
C218 O212 1.261 . S
C219 O214 1.259 . S
C219 O216 1.235 . S
O220 Co210 2.021 . S
O220 C217 1.238 . S
O221 Co215 2.052 . S
O221 C217 1.241 . S
O222 Co210 2.137 . S
O222 C213 1.247 . S
O223 Co210 2.244 . S
O223 C213 1.272 . S
O223 Co215 2.135 . S
Co224 O225 2.216 . S
Co224 O226 2.091 . S
Co224 O228 2.004 . S
Co224 O234 2.021 . S
Co224 O236 2.137 1_545 S
Co224 O237 2.244 1_545 S
O225 Co224 2.216 . S
O225 C232 1.247 . S
O226 Co224 2.091 . S
O226 C232 1.261 . S
C227 O236 1.247 . S
C227 O237 1.272 . S
O228 Co224 2.004 . S
O228 C233 1.259 . S
Co229 O230 2.061 . S
Co229 O235 2.052 . S
Co229 O237 2.135 1_545 S
O230 Co229 2.061 . S
O230 C233 1.235 . S
C231 O234 1.238 . S
C231 O235 1.241 . S
C232 O225 1.247 . S
C232 O226 1.261 . S
C233 O228 1.259 . S
C233 O230 1.235 . S
O234 Co224 2.021 . S
O234 C231 1.238 . S
O235 Co229 2.052 . S
O235 C231 1.241 . S
O236 Co224 2.137 1_565 S
O236 C227 1.247 . S
O237 Co224 2.244 1_565 S
O237 C227 1.272 . S
O237 Co229 2.135 1_565 S
Co238 O239 2.216 . S
Co238 O240 2.091 . S
Co238 O242 2.004 . S
Co238 O248 2.021 . S
Co238 O250 2.137 1_655 S
Co238 O251 2.245 . S
O239 Co238 2.216 . S
O239 C246 1.247 . S
O240 Co238 2.091 . S
O240 C246 1.261 . S
C241 O250 1.247 . S
C241 O251 1.267 1_455 S
O242 Co238 2.004 . S
O242 C247 1.259 . S
Co243 O244 2.061 . S
Co243 O249 2.052 . S
Co243 O251 2.140 . S
O244 Co243 2.061 . S
O244 C247 1.235 . S
C245 O248 1.238 . S
C245 O249 1.241 . S
C246 O239 1.247 . S
C246 O240 1.261 . S
C247 O242 1.259 . S
C247 O244 1.235 . S
O248 Co238 2.021 . S
O248 C245 1.238 . S
O249 Co243 2.052 . S
O249 C245 1.241 . S
O250 Co238 2.137 1_455 S
O250 C241 1.247 . S
O251 Co238 2.245 . S
O251 C241 1.267 1_655 S
O251 Co243 2.140 . S
H252 C260 0.930 . S
H253 C263 0.930 . S
H254 C265 0.930 . S
H255 C266 0.970 . S
H256 C266 0.970 . S
H257 C268 0.930 . S
H258 C270 0.930 . S
H259 C272 0.930 . S
C260 H252 0.930 . S
C260 C261 1.382 . S
C260 C262 1.426 . S
C261 C260 1.382 . S
C261 C265 1.389 . S
C262 C260 1.426 . S
C262 C263 1.375 . S
C262 C266 1.532 . S
C263 H253 0.930 . S
C263 C262 1.375 . S
C263 C264 1.416 . S
C264 C263 1.416 . S
C264 C265 1.371 . S
C265 H254 0.930 . S
C265 C261 1.389 . S
C265 C264 1.371 . S
C266 H255 0.970 . S
C266 H256 0.970 . S
C266 C262 1.532 . S
C266 C267 1.499 . S
C267 C266 1.499 . S
C267 C268 1.370 . S
C267 C272 1.415 . S
C268 H257 0.930 . S
C268 C267 1.370 . S
C268 C269 1.407 . S
C269 C268 1.407 . S
C269 C270 1.365 . S
C270 H258 0.930 . S
C270 C269 1.365 . S
C270 C271 1.393 . S
C271 C270 1.393 . S
C271 C272 1.387 . S
C272 H259 0.930 . S
C272 C267 1.415 . S
C272 C271 1.387 . S
H273 C281 0.930 . S
H274 C284 0.930 . S
H275 C286 0.930 . S
H276 C287 0.970 . S
H277 C287 0.970 . S
H278 C289 0.930 . S
H279 C291 0.930 . S
H280 C293 0.930 . S
C281 H273 0.930 . S
C281 C282 1.382 . S
C281 C283 1.426 . S
C282 C281 1.382 . S
C282 C286 1.389 . S
C283 C281 1.426 . S
C283 C284 1.375 . S
C283 C287 1.532 . S
C284 H274 0.930 . S
C284 C283 1.375 . S
C284 C285 1.416 . S
C285 C284 1.416 . S
C285 C286 1.371 . S
C286 H275 0.930 . S
C286 C282 1.389 . S
C286 C285 1.371 . S
C287 H276 0.970 . S
C287 H277 0.970 . S
C287 C283 1.532 . S
C287 C288 1.499 . S
C288 C287 1.499 . S
C288 C289 1.370 . S
C288 C293 1.415 . S
C289 H278 0.930 . S
C289 C288 1.370 . S
C289 C290 1.407 . S
C290 C289 1.407 . S
C290 C291 1.365 . S
C291 H279 0.930 . S
C291 C290 1.365 . S
C291 C292 1.393 . S
C292 C291 1.393 . S
C292 C293 1.387 . S
C293 H280 0.930 . S
C293 C288 1.415 . S
C293 C292 1.387 . S
H294 C302 0.930 . S
H295 C305 0.930 . S
H296 C307 0.930 . S
H297 C308 0.970 . S
H298 C308 0.970 . S
H299 C310 0.930 . S
H300 C312 0.930 . S
H301 C314 0.930 . S
C302 H294 0.930 . S
C302 C303 1.382 . S
C302 C304 1.426 . S
C303 C302 1.382 . S
C303 C307 1.389 . S
C304 C302 1.426 . S
C304 C305 1.375 . S
C304 C308 1.532 . S
C305 H295 0.930 . S
C305 C304 1.375 . S
C305 C306 1.416 . S
C306 C305 1.416 . S
C306 C307 1.371 . S
C307 H296 0.930 . S
C307 C303 1.389 . S
C307 C306 1.371 . S
C308 H297 0.970 . S
C308 H298 0.970 . S
C308 C304 1.532 . S
C308 C309 1.499 . S
C309 C308 1.499 . S
C309 C310 1.370 . S
C309 C314 1.415 . S
C310 H299 0.930 . S
C310 C309 1.370 . S
C310 C311 1.407 . S
C311 C310 1.407 . S
C311 C312 1.365 . S
C312 H300 0.930 . S
C312 C311 1.365 . S
C312 C313 1.393 . S
C313 C312 1.393 . S
C313 C314 1.387 . S
C314 H301 0.930 . S
C314 C309 1.415 . S
C314 C313 1.387 . S
H315 C323 0.930 . S
H316 C326 0.930 . S
H317 C328 0.930 . S
H318 C329 0.970 . S
H319 C329 0.970 . S
H320 C331 0.930 . S
H321 C333 0.930 . S
H322 C335 0.930 . S
C323 H315 0.930 . S
C323 C324 1.382 . S
C323 C325 1.426 . S
C324 C323 1.382 . S
C324 C328 1.389 . S
C325 C323 1.426 . S
C325 C326 1.375 . S
C325 C329 1.532 . S
C326 H316 0.930 . S
C326 C325 1.375 . S
C326 C327 1.416 . S
C327 C326 1.416 . S
C327 C328 1.371 . S
C328 H317 0.930 . S
C328 C324 1.389 . S
C328 C327 1.371 . S
C329 H318 0.970 . S
C329 H319 0.970 . S
C329 C325 1.532 . S
C329 C330 1.499 . S
C330 C329 1.499 . S
C330 C331 1.370 . S
C330 C335 1.415 . S
C331 H320 0.930 . S
C331 C330 1.370 . S
C331 C332 1.407 . S
C332 C331 1.407 . S
C332 C333 1.365 . S
C333 H321 0.930 . S
C333 C332 1.365 . S
C333 C334 1.393 . S
C334 C333 1.393 . S
C334 C335 1.387 . S
C335 H322 0.930 . S
C335 C330 1.415 . S
C335 C334 1.387 . S
H336 C344 0.930 . S
H337 C347 0.930 . S
H338 C349 0.930 . S
H339 C350 0.970 . S
H340 C350 0.970 . S
H341 C352 0.930 . S
H342 C354 0.930 . S
H343 C356 0.930 . S
C344 H336 0.930 . S
C344 C345 1.382 . S
C344 C346 1.426 . S
C345 C344 1.382 . S
C345 C349 1.389 . S
C346 C344 1.426 . S
C346 C347 1.375 . S
C346 C350 1.532 . S
C347 H337 0.930 . S
C347 C346 1.375 . S
C347 C348 1.416 . S
C348 C347 1.416 . S
C348 C349 1.371 . S
C349 H338 0.930 . S
C349 C345 1.389 . S
C349 C348 1.371 . S
C350 H339 0.970 . S
C350 H340 0.970 . S
C350 C346 1.532 . S
C350 C351 1.499 . S
C351 C350 1.499 . S
C351 C352 1.370 . S
C351 C356 1.415 . S
C352 H341 0.930 . S
C352 C351 1.370 . S
C352 C353 1.407 . S
C353 C352 1.407 . S
C353 C354 1.365 . S
C354 H342 0.930 . S
C354 C353 1.365 . S
C354 C355 1.393 . S
C355 C354 1.393 . S
C355 C356 1.387 . S
C356 H343 0.930 . S
C356 C351 1.415 . S
C356 C355 1.387 . S
H357 C365 0.930 . S
H358 C368 0.930 . S
H359 C370 0.930 . S
H360 C371 0.970 . S
H361 C371 0.970 . S
H362 C373 0.930 . S
H363 C375 0.930 . S
H364 C377 0.930 . S
C365 H357 0.930 . S
C365 C366 1.382 . S
C365 C367 1.426 . S
C366 C365 1.382 . S
C366 C370 1.389 . S
C367 C365 1.426 . S
C367 C368 1.375 . S
C367 C371 1.532 . S
C368 H358 0.930 . S
C368 C367 1.375 . S
C368 C369 1.416 . S
C369 C368 1.416 . S
C369 C370 1.371 . S
C370 H359 0.930 . S
C370 C366 1.389 . S
C370 C369 1.371 . S
C371 H360 0.970 . S
C371 H361 0.970 . S
C371 C367 1.532 . S
C371 C372 1.499 . S
C372 C371 1.499 . S
C372 C373 1.370 . S
C372 C377 1.415 . S
C373 H362 0.930 . S
C373 C372 1.370 . S
C373 C374 1.407 . S
C374 C373 1.407 . S
C374 C375 1.365 . S
C375 H363 0.930 . S
C375 C374 1.365 . S
C375 C376 1.393 . S
C376 C375 1.393 . S
C376 C377 1.387 . S
C377 H364 0.930 . S
C377 C372 1.415 . S
C377 C376 1.387 . S
H378 C386 0.930 . S
H379 C389 0.930 . S
H380 C391 0.930 . S
H381 C392 0.970 . S
H382 C392 0.970 . S
H383 C394 0.930 . S
H384 C396 0.930 . S
H385 C398 0.930 . S
C386 H378 0.930 . S
C386 C387 1.382 . S
C386 C388 1.426 . S
C387 C386 1.382 . S
C387 C391 1.389 . S
C388 C386 1.426 . S
C388 C389 1.375 . S
C388 C392 1.532 . S
C389 H379 0.930 . S
C389 C388 1.375 . S
C389 C390 1.416 . S
C390 C389 1.416 . S
C390 C391 1.371 . S
C391 H380 0.930 . S
C391 C387 1.389 . S
C391 C390 1.371 . S
C392 H381 0.970 . S
C392 H382 0.970 . S
C392 C388 1.532 . S
C392 C393 1.499 . S
C393 C392 1.499 . S
C393 C394 1.370 . S
C393 C398 1.415 . S
C394 H383 0.930 . S
C394 C393 1.370 . S
C394 C395 1.407 . S
C395 C394 1.407 . S
C395 C396 1.365 . S
C396 H384 0.930 . S
C396 C395 1.365 . S
C396 C397 1.393 . S
C397 C396 1.393 . S
C397 C398 1.387 . S
C398 H385 0.930 . S
C398 C393 1.415 . S
C398 C397 1.387 . S
H399 C407 0.930 . S
H400 C410 0.930 . S
H401 C412 0.930 . S
H402 C413 0.970 . S
H403 C413 0.970 . S
H404 C415 0.930 . S
H405 C417 0.930 . S
H406 C419 0.930 . S
C407 H399 0.930 . S
C407 C408 1.382 . S
C407 C409 1.426 . S
C408 C407 1.382 . S
C408 C412 1.389 . S
C409 C407 1.426 . S
C409 C410 1.375 . S
C409 C413 1.532 . S
C410 H400 0.930 . S
C410 C409 1.375 . S
C410 C411 1.416 . S
C411 C410 1.416 . S
C411 C412 1.371 . S
C412 H401 0.930 . S
C412 C408 1.389 . S
C412 C411 1.371 . S
C413 H402 0.970 . S
C413 H403 0.970 . S
C413 C409 1.532 . S
C413 C414 1.499 . S
C414 C413 1.499 . S
C414 C415 1.370 . S
C414 C419 1.415 . S
C415 H404 0.930 . S
C415 C414 1.370 . S
C415 C416 1.407 . S
C416 C415 1.407 . S
C416 C417 1.365 . S
C417 H405 0.930 . S
C417 C416 1.365 . S
C417 C418 1.393 . S
C418 C417 1.393 . S
C418 C419 1.387 . S
C419 H406 0.930 . S
C419 C414 1.415 . S
C419 C418 1.387 . S
H420 C428 0.930 . S
H421 C431 0.930 . S
H422 C433 0.930 . S
H423 C434 0.970 . S
H424 C434 0.970 . S
H425 C436 0.930 . S
H426 C438 0.930 . S
H427 C440 0.930 . S
C428 H420 0.930 . S
C428 C429 1.382 . S
C428 C430 1.426 . S
C429 C428 1.382 . S
C429 C433 1.389 . S
C430 C428 1.426 . S
C430 C431 1.375 . S
C430 C434 1.532 . S
C431 H421 0.930 . S
C431 C430 1.375 . S
C431 C432 1.416 . S
C432 C431 1.416 . S
C432 C433 1.371 . S
C433 H422 0.930 . S
C433 C429 1.389 . S
C433 C432 1.371 . S
C434 H423 0.970 . S
C434 H424 0.970 . S
C434 C430 1.532 . S
C434 C435 1.499 . S
C435 C434 1.499 . S
C435 C436 1.370 . S
C435 C440 1.415 . S
C436 H425 0.930 . S
C436 C435 1.370 . S
C436 C437 1.407 . S
C437 C436 1.407 . S
C437 C438 1.365 . S
C438 H426 0.930 . S
C438 C437 1.365 . S
C438 C439 1.393 . S
C439 C438 1.393 . S
C439 C440 1.387 . S
C440 H427 0.930 . S
C440 C435 1.415 . S
C440 C439 1.387 . S
H441 C449 0.930 . S
H442 C452 0.930 . S
H443 C454 0.930 . S
H444 C455 0.970 . S
H445 C455 0.970 . S
H446 C457 0.930 . S
H447 C459 0.930 . S
H448 C461 0.930 . S
C449 H441 0.930 . S
C449 C450 1.382 . S
C449 C451 1.426 . S
C450 C449 1.382 . S
C450 C454 1.389 1_455 S
C451 C449 1.426 . S
C451 C452 1.375 . S
C451 C455 1.532 . S
C452 H442 0.930 . S
C452 C451 1.375 . S
C452 C453 1.416 . S
C453 C452 1.416 . S
C453 C454 1.371 1_455 S
C454 H443 0.930 . S
C454 C450 1.389 1_655 S
C454 C453 1.371 1_655 S
C455 H444 0.970 . S
C455 H445 0.970 . S
C455 C451 1.532 . S
C455 C456 1.499 . S
C456 C455 1.499 . S
C456 C457 1.370 . S
C456 C461 1.415 . S
C457 H446 0.930 . S
C457 C456 1.370 . S
C457 C458 1.411 . S
C458 C457 1.411 . S
C458 C459 1.372 1_455 S
C459 H447 0.930 . S
C459 C458 1.372 1_655 S
C459 C460 1.393 1_655 S
C460 C459 1.393 1_455 S
C460 C461 1.387 . S
C461 H448 0.930 . S
C461 C456 1.415 . S
C461 C460 1.387 . S
H462 C470 0.930 . S
H463 C473 0.930 . S
H464 C475 0.930 . S
H465 C476 0.970 . S
H466 C476 0.970 . S
H467 C478 0.930 . S
H468 C480 0.930 . S
H469 C482 0.930 . S
C470 H462 0.930 . S
C470 C471 1.382 . S
C470 C472 1.426 . S
C471 C470 1.382 . S
C471 C475 1.389 . S
C472 C470 1.426 . S
C472 C473 1.375 . S
C472 C476 1.532 . S
C473 H463 0.930 . S
C473 C472 1.375 . S
C473 C474 1.416 . S
C474 C473 1.416 . S
C474 C475 1.371 . S
C475 H464 0.930 . S
C475 C471 1.389 . S
C475 C474 1.371 . S
C476 H465 0.970 . S
C476 H466 0.970 . S
C476 C472 1.532 . S
C476 C477 1.499 . S
C477 C476 1.499 . S
C477 C478 1.370 . S
C477 C482 1.415 . S
C478 H467 0.930 . S
C478 C477 1.370 . S
C478 C479 1.407 . S
C479 C478 1.407 . S
C479 C480 1.365 . S
C480 H468 0.930 . S
C480 C479 1.365 . S
C480 C481 1.393 . S
C481 C480 1.393 . S
C481 C482 1.387 . S
C482 H469 0.930 . S
C482 C477 1.415 . S
C482 C481 1.387 . S
H483 C491 0.930 . S
H484 C494 0.930 . S
H485 C496 0.930 . S
H486 C497 0.970 . S
H487 C497 0.970 . S
H488 C499 0.930 . S
H489 C501 0.930 . S
H490 C503 0.930 . S
C491 H483 0.930 . S
C491 C492 1.382 . S
C491 C493 1.426 . S
C492 C491 1.382 . S
C492 C496 1.389 1_565 S
C493 C491 1.426 . S
C493 C494 1.375 . S
C493 C497 1.532 . S
C494 H484 0.930 . S
C494 C493 1.375 . S
C494 C495 1.416 . S
C495 C494 1.416 . S
C495 C496 1.371 1_565 S
C496 H485 0.930 . S
C496 C492 1.389 1_545 S
C496 C495 1.371 1_545 S
C497 H486 0.970 . S
C497 H487 0.970 . S
C497 C493 1.532 . S
C497 C498 1.499 . S
C498 C497 1.499 . S
C498 C499 1.370 . S
C498 C503 1.415 . S
C499 H488 0.930 . S
C499 C498 1.370 . S
C499 C500 1.435 . S
C500 C499 1.435 . S
C500 C501 1.354 1_565 S
C501 H489 0.930 . S
C501 C500 1.354 1_545 S
C501 C502 1.393 1_545 S
C502 C501 1.393 1_565 S
C502 C503 1.387 . S
C503 H490 0.930 . S
C503 C498 1.415 . S
C503 C502 1.387 . S
H504 C512 0.930 . S
H505 C515 0.930 . S
H506 C517 0.930 . S
H507 C518 0.970 . S
H508 C518 0.970 . S
H509 C520 0.930 . S
H510 C522 0.930 . S
H511 C524 0.930 . S
C512 H504 0.930 . S
C512 C513 1.382 . S
C512 C514 1.426 . S
C513 C512 1.382 . S
C513 C517 1.389 1_565 S
C514 C512 1.426 . S
C514 C515 1.375 . S
C514 C518 1.532 . S
C515 H505 0.930 . S
C515 C514 1.375 . S
C515 C516 1.416 . S
C516 C515 1.416 . S
C516 C517 1.371 1_565 S
C517 H506 0.930 . S
C517 C513 1.389 1_545 S
C517 C516 1.371 1_545 S
C518 H507 0.970 . S
C518 H508 0.970 . S
C518 C514 1.532 . S
C518 C519 1.499 . S
C519 C518 1.499 . S
C519 C520 1.370 . S
C519 C524 1.415 . S
C520 H509 0.930 . S
C520 C519 1.370 . S
C520 C521 1.407 . S
C521 C520 1.407 . S
C521 C522 1.365 1_565 S
C522 H510 0.930 . S
C522 C521 1.365 1_545 S
C522 C523 1.393 1_545 S
C523 C522 1.393 1_565 S
C523 C524 1.387 . S
C524 H511 0.930 . S
C524 C519 1.415 . S
C524 C523 1.387 . S
H525 C533 0.930 . S
H526 C536 0.930 . S
H527 C538 0.930 . S
H528 C539 0.970 . S
H529 C539 0.970 . S
H530 C541 0.930 . S
H531 C543 0.930 . S
H532 C545 0.930 . S
C533 H525 0.930 . S
C533 C534 1.382 . S
C533 C535 1.426 . S
C534 C533 1.382 . S
C534 C538 1.389 1_455 S
C535 C533 1.426 . S
C535 C536 1.375 . S
C535 C539 1.532 . S
C536 H526 0.930 . S
C536 C535 1.375 . S
C536 C537 1.416 . S
C537 C536 1.416 . S
C537 C538 1.371 1_455 S
C538 H527 0.930 . S
C538 C534 1.389 1_655 S
C538 C537 1.371 1_655 S
C539 H528 0.970 . S
C539 H529 0.970 . S
C539 C535 1.532 . S
C539 C540 1.499 . S
C540 C539 1.499 . S
C540 C541 1.370 . S
C540 C545 1.415 . S
C541 H530 0.930 . S
C541 C540 1.370 . S
C541 C542 1.407 . S
C542 C541 1.407 . S
C542 C543 1.365 1_455 S
C543 H531 0.930 . S
C543 C542 1.365 1_655 S
C543 C544 1.393 1_655 S
C544 C543 1.393 1_455 S
C544 C545 1.387 . S
C545 H532 0.930 . S
C545 C540 1.415 . S
C545 C544 1.387 . S
H546 C554 0.930 . S
H547 C557 0.930 . S
H548 C559 0.930 . S
H549 C560 0.970 . S
H550 C560 0.970 . S
H551 C562 0.930 . S
H552 C564 0.930 . S
H553 C566 0.930 . S
C554 H546 0.930 . S
C554 C555 1.382 . S
C554 C556 1.426 . S
C555 C554 1.382 . S
C555 C559 1.389 . S
C556 C554 1.426 . S
C556 C557 1.375 . S
C556 C560 1.532 . S
C557 H547 0.930 . S
C557 C556 1.375 . S
C557 C558 1.416 . S
C558 C557 1.416 . S
C558 C559 1.371 . S
C559 H548 0.930 . S
C559 C555 1.389 . S
C559 C558 1.371 . S
C560 H549 0.970 . S
C560 H550 0.970 . S
C560 C556 1.532 . S
C560 C561 1.499 . S
C561 C560 1.499 . S
C561 C562 1.370 . S
C561 C566 1.415 . S
C562 H551 0.930 . S
C562 C561 1.370 . S
C562 C563 1.407 . S
C563 C562 1.407 . S
C563 C564 1.365 . S
C564 H552 0.930 . S
C564 C563 1.365 . S
C564 C565 1.393 . S
C565 C564 1.393 . S
C565 C566 1.387 . S
C566 H553 0.930 . S
C566 C561 1.415 . S
C566 C565 1.387 . S
H567 C575 0.930 . S
H568 C578 0.930 . S
H569 C580 0.930 . S
H570 C581 0.970 . S
H571 C581 0.970 . S
H572 C583 0.930 . S
H573 C585 0.930 . S
H574 C587 0.930 . S
C575 H567 0.930 . S
C575 C576 1.382 . S
C575 C577 1.426 . S
C576 C575 1.382 . S
C576 C580 1.389 . S
C577 C575 1.426 . S
C577 C578 1.375 . S
C577 C581 1.532 . S
C578 H568 0.930 . S
C578 C577 1.375 . S
C578 C579 1.416 . S
C579 C578 1.416 . S
C579 C580 1.371 . S
C580 H569 0.930 . S
C580 C576 1.389 . S
C580 C579 1.371 . S
C581 H570 0.970 . S
C581 H571 0.970 . S
C581 C577 1.532 . S
C581 C582 1.499 . S
C582 C581 1.499 . S
C582 C583 1.370 . S
C582 C587 1.415 . S
C583 H572 0.930 . S
C583 C582 1.370 . S
C583 C584 1.407 . S
C584 C583 1.407 . S
C584 C585 1.365 . S
C585 H573 0.930 . S
C585 C584 1.365 . S
C585 C586 1.393 . S
C586 C585 1.393 . S
C586 C587 1.387 . S
C587 H574 0.930 . S
C587 C582 1.415 . S
C587 C586 1.387 . S
H588 C596 0.930 . S
H589 C599 0.930 . S
H590 C601 0.930 . S
H591 C602 0.970 . S
H592 C602 0.970 . S
H593 C604 0.930 . S
H594 C606 0.930 . S
H595 C608 0.930 . S
C596 H588 0.930 . S
C596 C597 1.382 . S
C596 C598 1.426 . S
C597 C596 1.382 . S
C597 C601 1.389 . S
C598 C596 1.426 . S
C598 C599 1.375 . S
C598 C602 1.532 . S
C599 H589 0.930 . S
C599 C598 1.375 . S
C599 C600 1.416 . S
C600 C599 1.416 . S
C600 C601 1.371 . S
C601 H590 0.930 . S
C601 C597 1.389 . S
C601 C600 1.371 . S
C602 H591 0.970 . S
C602 H592 0.970 . S
C602 C598 1.532 . S
C602 C603 1.499 . S
C603 C602 1.499 . S
C603 C604 1.370 . S
C603 C608 1.415 . S
C604 H593 0.930 . S
C604 C603 1.370 . S
C604 C605 1.407 . S
C605 C604 1.407 . S
C605 C606 1.365 . S
C606 H594 0.930 . S
C606 C605 1.365 . S
C606 C607 1.393 . S
C607 C606 1.393 . S
C607 C608 1.387 . S
C608 H595 0.930 . S
C608 C603 1.415 . S
C608 C607 1.387 . S
H609 C617 0.930 . S
H610 C620 0.930 . S
H611 C622 0.930 . S
H612 C623 0.970 . S
H613 C623 0.970 . S
H614 C625 0.930 . S
H615 C627 0.930 . S
H616 C629 0.930 . S
C617 H609 0.930 . S
C617 C618 1.382 . S
C617 C619 1.426 . S
C618 C617 1.382 . S
C618 C622 1.389 . S
C619 C617 1.426 . S
C619 C620 1.375 . S
C619 C623 1.532 . S
C620 H610 0.930 . S
C620 C619 1.375 . S
C620 C621 1.416 . S
C621 C620 1.416 . S
C621 C622 1.371 . S
C622 H611 0.930 . S
C622 C618 1.389 . S
C622 C621 1.371 . S
C623 H612 0.970 . S
C623 H613 0.970 . S
C623 C619 1.532 . S
C623 C624 1.499 . S
C624 C623 1.499 . S
C624 C625 1.370 . S
C624 C629 1.415 . S
C625 H614 0.930 . S
C625 C624 1.370 . S
C625 C626 1.407 . S
C626 C625 1.407 . S
C626 C627 1.365 . S
C627 H615 0.930 . S
C627 C626 1.365 . S
C627 C628 1.393 . S
C628 C627 1.393 . S
C628 C629 1.387 . S
C629 H616 0.930 . S
C629 C624 1.415 . S
C629 C628 1.387 . S
C630 C631 1.391 . S
C630 C632 1.394 . S
C630 H646 0.931 . S
C631 C630 1.391 . S
C631 C635 1.379 . S
C632 C630 1.394 . S
C632 C633 1.369 . S
C632 C636 1.531 . S
C633 C632 1.369 . S
C633 C634 1.410 . S
C633 C641 1.503 . S
C634 C633 1.410 . S
C634 C635 1.400 . S
C634 C637 1.511 1_655 S
C635 C631 1.379 . S
C635 C634 1.400 . S
C635 H647 0.918 1_655 S
C636 C632 1.531 . S
C636 H648 0.960 . S
C636 H649 0.962 . S
C636 H650 0.960 . S
C637 C634 1.511 1_455 S
C637 H651 0.961 . S
C637 H652 0.961 . S
C637 H653 0.961 1_455 S
C638 C639 1.370 1_455 S
C638 C640 1.363 . S
C638 H654 0.931 . S
C639 C638 1.370 1_655 S
C639 C643 1.408 . S
C640 C638 1.363 . S
C640 C641 1.370 1_455 S
C640 C644 1.524 . S
C641 C633 1.503 . S
C641 C640 1.370 1_655 S
C641 C642 1.403 . S
C642 C641 1.403 . S
C642 C643 1.404 . S
C642 C645 1.539 . S
C643 C639 1.408 . S
C643 C642 1.404 . S
C643 H655 0.930 . S
C644 C640 1.524 . S
C644 H656 0.956 . S
C644 H657 0.961 . S
C644 H658 0.961 . S
C645 C642 1.539 . S
C645 H659 0.958 . S
C645 H660 0.961 . S
C645 H661 0.960 . S
H646 C630 0.931 . S
H647 C635 0.918 1_455 S
H648 C636 0.960 . S
H649 C636 0.962 . S
H650 C636 0.960 . S
H651 C637 0.961 . S
H652 C637 0.961 . S
H653 C637 0.961 1_655 S
H654 C638 0.931 . S
H655 C643 0.930 . S
H656 C644 0.956 . S
H657 C644 0.961 . S
H658 C644 0.961 . S
H659 C645 0.958 . S
H660 C645 0.961 . S
H661 C645 0.960 . S
C662 C663 1.391 . S
C662 C664 1.394 . S
C662 H678 0.931 . S
C663 C662 1.391 . S
C663 C667 1.376 . S
C664 C662 1.394 . S
C664 C665 1.369 . S
C664 C668 1.531 . S
C665 C664 1.369 . S
C665 C666 1.410 . S
C665 C673 1.503 . S
C666 C665 1.410 . S
C666 C667 1.392 . S
C666 C669 1.511 . S
C667 C663 1.376 . S
C667 C666 1.392 . S
C667 H679 0.929 . S
C668 C664 1.531 . S
C668 H680 0.960 . S
C668 H681 0.962 . S
C668 H682 0.960 . S
C669 C666 1.511 . S
C669 H683 0.961 . S
C669 H684 0.961 . S
C669 H685 0.961 . S
C670 C671 1.370 . S
C670 C672 1.363 . S
C670 H686 0.931 . S
C671 C670 1.370 . S
C671 C675 1.408 . S
C672 C670 1.363 . S
C672 C673 1.370 . S
C672 C676 1.524 . S
C673 C665 1.503 . S
C673 C672 1.370 . S
C673 C674 1.403 . S
C674 C673 1.403 . S
C674 C675 1.404 . S
C674 C677 1.539 . S
C675 C671 1.408 . S
C675 C674 1.404 . S
C675 H687 0.930 . S
C676 C672 1.524 . S
C676 H688 0.956 . S
C676 H689 0.961 . S
C676 H690 0.961 . S
C677 C674 1.539 . S
C677 H691 0.958 . S
C677 H692 0.961 . S
C677 H693 0.960 . S
H678 C662 0.931 . S
H679 C667 0.929 . S
H680 C668 0.960 . S
H681 C668 0.962 . S
H682 C668 0.960 . S
H683 C669 0.961 . S
H684 C669 0.961 . S
H685 C669 0.961 . S
H686 C670 0.931 . S
H687 C675 0.930 . S
H688 C676 0.956 . S
H689 C676 0.961 . S
H690 C676 0.961 . S
H691 C677 0.958 . S
H692 C677 0.961 . S
H693 C677 0.960 . S
C694 C695 1.391 1_565 S
C694 C696 1.394 . S
C694 H710 0.931 . S
C695 C694 1.391 1_545 S
C695 C699 1.376 . S
C696 C694 1.394 . S
C696 C697 1.370 1_565 S
C696 C700 1.531 . S
C697 C696 1.370 1_545 S
C697 C698 1.411 . S
C697 C705 1.501 . S
C698 C697 1.411 . S
C698 C699 1.392 . S
C698 C701 1.511 . S
C699 C695 1.376 . S
C699 C698 1.392 . S
C699 H711 0.929 . S
C700 C696 1.531 . S
C700 H712 0.960 . S
C700 H713 0.962 . S
C700 H714 0.960 . S
C701 C698 1.511 . S
C701 H715 0.961 . S
C701 H716 0.961 . S
C701 H717 0.961 . S
C702 C703 1.370 . S
C702 C704 1.363 . S
C702 H718 0.931 . S
C703 C702 1.370 . S
C703 C707 1.408 1_545 S
C704 C702 1.363 . S
C704 C705 1.370 . S
C704 C708 1.524 . S
C705 C697 1.501 . S
C705 C704 1.370 . S
C705 C706 1.403 1_545 S
C706 C705 1.403 1_565 S
C706 C707 1.404 . S
C706 C709 1.539 . S
C707 C703 1.408 1_565 S
C707 C706 1.404 . S
C707 H719 0.930 . S
C708 C704 1.524 . S
C708 H720 0.956 . S
C708 H721 0.961 . S
C708 H722 0.961 . S
C709 C706 1.539 . S
C709 H723 0.958 . S
C709 H724 0.961 . S
C709 H725 0.960 . S
H710 C694 0.931 . S
H711 C699 0.929 . S
H712 C700 0.960 . S
H713 C700 0.962 . S
H714 C700 0.960 . S
H715 C701 0.961 . S
H716 C701 0.961 . S
H717 C701 0.961 . S
H718 C702 0.931 . S
H719 C707 0.930 . S
H720 C708 0.956 . S
H721 C708 0.961 . S
H722 C708 0.961 . S
H723 C709 0.958 . S
H724 C709 0.961 . S
H725 C709 0.960 . S
C726 C727 1.391 . S
C726 C728 1.394 . S
C726 H742 0.931 . S
C727 C726 1.391 . S
C727 C731 1.376 1_545 S
C728 C726 1.394 . S
C728 C729 1.369 . S
C728 C732 1.531 . S
C729 C728 1.369 . S
C729 C730 1.398 1_545 S
C729 C737 1.503 . S
C730 C729 1.398 1_565 S
C730 C731 1.377 . S
C730 C733 1.539 . S
C731 C727 1.376 1_565 S
C731 C730 1.377 . S
C731 H743 0.929 . S
C732 C728 1.531 . S
C732 H744 0.960 . S
C732 H745 0.977 . S
C732 H746 0.960 . S
C733 C730 1.539 . S
C733 H747 0.961 . S
C733 H748 0.961 . S
C733 H749 0.961 1_565 S
C734 C735 1.370 . S
C734 C736 1.363 . S
C734 H750 0.931 . S
C735 C734 1.370 . S
C735 C739 1.408 1_565 S
C736 C734 1.363 . S
C736 C737 1.370 1_565 S
C736 C740 1.524 . S
C737 C729 1.503 . S
C737 C736 1.370 1_545 S
C737 C738 1.403 . S
C738 C737 1.403 . S
C738 C739 1.404 . S
C738 C741 1.539 . S
C739 C735 1.408 1_545 S
C739 C738 1.404 . S
C739 H751 0.930 . S
C740 C736 1.524 . S
C740 H752 0.956 . S
C740 H753 0.961 . S
C740 H754 0.961 . S
C741 C738 1.539 . S
C741 H755 0.958 . S
C741 H756 0.961 . S
C741 H757 0.960 . S
H742 C726 0.931 . S
H743 C731 0.929 . S
H744 C732 0.960 . S
H745 C732 0.977 . S
H746 C732 0.960 . S
H747 C733 0.961 . S
H748 C733 0.961 . S
H749 C733 0.961 1_545 S
H750 C734 0.931 . S
H751 C739 0.930 . S
H752 C740 0.956 . S
H753 C740 0.961 . S
H754 C740 0.961 . S
H755 C741 0.958 . S
H756 C741 0.961 . S
H757 C741 0.960 . S
C758 C759 1.436 . S
C758 C760 1.394 . S
C758 H774 0.931 . S
C759 C758 1.436 . S
C759 C763 1.304 1_455 S
C760 C758 1.394 . S
C760 C761 1.398 . S
C760 C764 1.531 . S
C761 C760 1.398 . S
C761 C762 1.391 1_455 S
C761 C769 1.492 . S
C762 C761 1.391 1_655 S
C762 C763 1.392 . S
C762 C765 1.511 . S
C763 C759 1.304 1_655 S
C763 C762 1.392 . S
C763 H775 0.929 . S
C764 C760 1.531 . S
C764 H776 0.960 . S
C764 H777 0.962 . S
C764 H778 0.960 . S
C765 C762 1.511 . S
C765 H779 0.961 . S
C765 H780 0.961 . S
C765 H781 0.961 . S
C766 C767 1.370 . S
C766 C768 1.363 . S
C766 H782 0.931 . S
C767 C766 1.370 . S
C767 C771 1.408 1_455 S
C768 C766 1.363 . S
C768 C769 1.370 . S
C768 C772 1.524 . S
C769 C761 1.492 . S
C769 C768 1.370 . S
C769 C770 1.403 1_455 S
C770 C769 1.403 1_655 S
C770 C771 1.404 . S
C770 C773 1.539 . S
C771 C767 1.408 1_655 S
C771 C770 1.404 . S
C771 H783 0.930 . S
C772 C768 1.524 . S
C772 H784 0.956 . S
C772 H785 0.961 . S
C772 H786 0.961 . S
C773 C770 1.539 . S
C773 H787 0.958 . S
C773 H788 0.961 . S
C773 H789 0.960 . S
H774 C758 0.931 . S
H775 C763 0.929 . S
H776 C764 0.960 . S
H777 C764 0.962 . S
H778 C764 0.960 . S
H779 C765 0.961 . S
H780 C765 0.961 . S
H781 C765 0.961 . S
H782 C766 0.931 . S
H783 C771 0.930 . S
H784 C772 0.956 . S
H785 C772 0.961 . S
H786 C772 0.961 . S
H787 C773 0.958 . S
H788 C773 0.961 . S
H789 C773 0.960 . S
C790 C791 1.391 . S
C790 C792 1.394 . S
C790 H806 0.931 . S
C791 C790 1.391 . S
C791 C795 1.376 . S
C792 C790 1.394 . S
C792 C793 1.369 . S
C792 C796 1.531 . S
C793 C792 1.369 . S
C793 C794 1.410 . S
C793 C801 1.503 . S
C794 C793 1.410 . S
C794 C795 1.392 . S
C794 C797 1.511 . S
C795 C791 1.376 . S
C795 C794 1.392 . S
C795 H807 0.929 . S
C796 C792 1.531 . S
C796 H808 0.960 . S
C796 H809 0.962 . S
C796 H810 0.960 . S
C797 C794 1.511 . S
C797 H811 0.961 . S
C797 H812 0.961 . S
C797 H813 0.961 . S
C798 C799 1.370 . S
C798 C800 1.363 . S
C798 H814 0.931 . S
C799 C798 1.370 . S
C799 C803 1.408 . S
C800 C798 1.363 . S
C800 C801 1.370 . S
C800 C804 1.524 . S
C801 C793 1.503 . S
C801 C800 1.370 . S
C801 C802 1.403 . S
C802 C801 1.403 . S
C802 C803 1.404 . S
C802 C805 1.539 . S
C803 C799 1.408 . S
C803 C802 1.404 . S
C803 H815 0.930 . S
C804 C800 1.524 . S
C804 H816 0.956 . S
C804 H817 0.961 . S
C804 H818 0.961 . S
C805 C802 1.539 . S
C805 H819 0.958 . S
C805 H820 0.961 . S
C805 H821 0.960 . S
H806 C790 0.931 . S
H807 C795 0.929 . S
H808 C796 0.960 . S
H809 C796 0.962 . S
H810 C796 0.960 . S
H811 C797 0.961 . S
H812 C797 0.961 . S
H813 C797 0.961 . S
H814 C798 0.931 . S
H815 C803 0.930 . S
H816 C804 0.956 . S
H817 C804 0.961 . S
H818 C804 0.961 . S
H819 C805 0.958 . S
H820 C805 0.961 . S
H821 C805 0.960 . S
C822 C823 1.402 . S
C822 C824 1.394 . S
C822 H838 0.931 . S
C823 C822 1.402 . S
C823 C827 1.370 1_455 S
C824 C822 1.394 . S
C824 C825 1.369 1_455 S
C824 C828 1.531 . S
C825 C824 1.369 1_655 S
C825 C826 1.410 . S
C825 C833 1.503 . S
C826 C825 1.410 . S
C826 C827 1.392 . S
C826 C829 1.511 . S
C827 C823 1.370 1_655 S
C827 C826 1.392 . S
C827 H839 0.929 . S
C828 C824 1.531 . S
C828 H840 0.964 . S
C828 H841 0.962 . S
C828 H842 0.960 . S
C829 C826 1.511 . S
C829 H843 0.961 . S
C829 H844 0.961 . S
C829 H845 0.961 . S
C830 C831 1.367 1_455 S
C830 C832 1.363 . S
C830 H846 0.931 . S
C831 C830 1.367 1_655 S
C831 C835 1.415 . S
C832 C830 1.363 . S
C832 C833 1.370 1_455 S
C832 C836 1.524 . S
C833 C825 1.503 . S
C833 C832 1.370 1_655 S
C833 C834 1.403 . S
C834 C833 1.403 . S
C834 C835 1.404 . S
C834 C837 1.539 . S
C835 C831 1.415 . S
C835 C834 1.404 . S
C835 H847 0.930 . S
C836 C832 1.524 . S
C836 H848 0.956 . S
C836 H849 0.961 . S
C836 H850 0.961 . S
C837 C834 1.539 . S
C837 H851 0.958 . S
C837 H852 0.961 . S
C837 H853 0.960 . S
H838 C822 0.931 . S
H839 C827 0.929 . S
H840 C828 0.964 . S
H841 C828 0.962 . S
H842 C828 0.960 . S
H843 C829 0.961 . S
H844 C829 0.961 . S
H845 C829 0.961 . S
H846 C830 0.931 . S
H847 C835 0.930 . S
H848 C836 0.956 . S
H849 C836 0.961 . S
H850 C836 0.961 . S
H851 C837 0.958 . S
H852 C837 0.961 . S
H853 C837 0.960 . S
C854 C855 1.391 . S
C854 C856 1.394 . S
C854 H870 0.931 . S
C855 C854 1.391 . S
C855 C859 1.376 . S
C856 C854 1.394 . S
C856 C857 1.369 . S
C856 C860 1.531 . S
C857 C856 1.369 . S
C857 C858 1.410 . S
C857 C865 1.503 . S
C858 C857 1.410 . S
C858 C859 1.392 . S
C858 C861 1.511 . S
C859 C855 1.376 . S
C859 C858 1.392 . S
C859 H871 0.929 . S
C860 C856 1.531 . S
C860 H872 0.960 . S
C860 H873 0.962 . S
C860 H874 0.960 . S
C861 C858 1.511 . S
C861 H875 0.961 . S
C861 H876 0.961 . S
C861 H877 0.961 . S
C862 C863 1.370 . S
C862 C864 1.363 . S
C862 H878 0.931 . S
C863 C862 1.370 . S
C863 C867 1.408 . S
C864 C862 1.363 . S
C864 C865 1.370 . S
C864 C868 1.524 . S
C865 C857 1.503 . S
C865 C864 1.370 . S
C865 C866 1.403 . S
C866 C865 1.403 . S
C866 C867 1.404 . S
C866 C869 1.539 . S
C867 C863 1.408 . S
C867 C866 1.404 . S
C867 H879 0.930 . S
C868 C864 1.524 . S
C868 H880 0.956 . S
C868 H881 0.961 . S
C868 H882 0.961 . S
C869 C866 1.539 . S
C869 H883 0.958 . S
C869 H884 0.961 . S
C869 H885 0.960 . S
H870 C854 0.931 . S
H871 C859 0.929 . S
H872 C860 0.960 . S
H873 C860 0.962 . S
H874 C860 0.960 . S
H875 C861 0.961 . S
H876 C861 0.961 . S
H877 C861 0.961 . S
H878 C862 0.931 . S
H879 C867 0.930 . S
H880 C868 0.956 . S
H881 C868 0.961 . S
H882 C868 0.961 . S
H883 C869 0.958 . S
H884 C869 0.961 . S
H885 C869 0.960 . S
C886 C887 1.399 . S
C886 C888 1.394 . S
C886 H902 0.931 . S
C887 C886 1.399 . S
C887 C891 1.376 . S
C888 C886 1.394 . S
C888 C889 1.369 . S
C888 C892 1.531 . S
C889 C888 1.369 . S
C889 C890 1.410 . S
C889 C897 1.503 . S
C890 C889 1.410 . S
C890 C891 1.406 . S
C890 C893 1.511 . S
C891 C887 1.376 . S
C891 C890 1.406 . S
C891 H903 0.893 1_545 S
C892 C888 1.531 . S
C892 H904 0.960 . S
C892 H905 0.962 1_545 S
C892 H906 0.960 . S
C893 C890 1.511 . S
C893 H907 0.961 1_545 S
C893 H908 0.961 1_545 S
C893 H909 0.961 . S
C894 C895 1.370 1_565 S
C894 C896 1.363 . S
C894 H910 0.931 . S
C895 C894 1.370 1_545 S
C895 C899 1.408 . S
C896 C894 1.363 . S
C896 C897 1.370 1_565 S
C896 C900 1.524 . S
C897 C889 1.503 . S
C897 C896 1.370 1_545 S
C897 C898 1.403 . S
C898 C897 1.403 . S
C898 C899 1.404 . S
C898 C901 1.539 . S
C899 C895 1.408 . S
C899 C898 1.404 . S
C899 H911 0.930 . S
C900 C896 1.524 . S
C900 H912 0.956 . S
C900 H913 0.961 . S
C900 H914 0.961 . S
C901 C898 1.539 . S
C901 H915 0.958 . S
C901 H916 0.961 . S
C901 H917 0.960 . S
H902 C886 0.931 . S
H903 C891 0.893 1_565 S
H904 C892 0.960 . S
H905 C892 0.962 1_565 S
H906 C892 0.960 . S
H907 C893 0.961 1_565 S
H908 C893 0.961 1_565 S
H909 C893 0.961 . S
H910 C894 0.931 . S
H911 C899 0.930 . S
H912 C900 0.956 . S
H913 C900 0.961 . S
H914 C900 0.961 . S
H915 C901 0.958 . S
H916 C901 0.961 . S
H917 C901 0.960 . S
C918 C919 1.391 1_565 S
C918 C920 1.394 . S
C918 H934 0.931 . S
C919 C918 1.391 1_545 S
C919 C923 1.376 . S
C920 C918 1.394 . S
C920 C921 1.369 1_565 S
C920 C924 1.531 . S
C921 C920 1.369 1_545 S
C921 C922 1.410 . S
C921 C929 1.503 . S
C922 C921 1.410 . S
C922 C923 1.392 . S
C922 C925 1.511 . S
C923 C919 1.376 . S
C923 C922 1.392 . S
C923 H935 0.929 . S
C924 C920 1.531 . S
C924 H936 0.960 . S
C924 H937 0.962 . S
C924 H938 0.960 . S
C925 C922 1.511 . S
C925 H939 0.961 . S
C925 H940 0.961 . S
C925 H941 0.961 . S
C926 C927 1.375 1_565 S
C926 C928 1.387 . S
C926 H942 0.909 . S
C927 C926 1.375 1_545 S
C927 C931 1.385 . S
C928 C926 1.387 . S
C928 C929 1.372 1_565 S
C928 C932 1.524 . S
C929 C921 1.503 . S
C929 C928 1.372 1_545 S
C929 C930 1.403 . S
C930 C929 1.403 . S
C930 C931 1.404 . S
C930 C933 1.539 . S
C931 C927 1.385 . S
C931 C930 1.404 . S
C931 H943 0.930 . S
C932 C928 1.524 . S
C932 H944 0.956 . S
C932 H945 0.961 1_565 S
C932 H946 0.961 . S
C933 C930 1.539 . S
C933 H947 0.958 1_545 S
C933 H948 0.961 . S
C933 H949 0.960 . S
H934 C918 0.931 . S
H935 C923 0.929 . S
H936 C924 0.960 . S
H937 C924 0.962 . S
H938 C924 0.960 . S
H939 C925 0.961 . S
H940 C925 0.961 . S
H941 C925 0.961 . S
H942 C926 0.909 . S
H943 C931 0.930 . S
H944 C932 0.956 . S
H945 C932 0.961 1_545 S
H946 C932 0.961 . S
H947 C933 0.958 1_565 S
H948 C933 0.961 . S
H949 C933 0.960 . S
C950 C951 1.391 1_655 S
C950 C952 1.394 . S
C950 H966 0.931 . S
C951 C950 1.391 1_455 S
C951 C955 1.376 . S
C952 C950 1.394 . S
C952 C953 1.369 1_655 S
C952 C956 1.531 . S
C953 C952 1.369 1_455 S
C953 C954 1.410 . S
C953 C961 1.503 . S
C954 C953 1.410 . S
C954 C955 1.392 . S
C954 C957 1.511 . S
C955 C951 1.376 . S
C955 C954 1.392 . S
C955 H967 0.929 . S
C956 C952 1.531 . S
C956 H968 0.960 . S
C956 H969 0.962 . S
C956 H970 0.960 . S
C957 C954 1.511 . S
C957 H971 0.961 . S
C957 H972 0.961 . S
C957 H973 0.961 . S
C958 C959 1.373 . S
C958 C960 1.363 . S
C958 H974 0.931 . S
C959 C958 1.373 . S
C959 C963 1.407 1_655 S
C960 C958 1.363 . S
C960 C961 1.370 1_655 S
C960 C964 1.524 . S
C961 C953 1.503 . S
C961 C960 1.370 1_455 S
C961 C962 1.403 . S
C962 C961 1.403 . S
C962 C963 1.404 . S
C962 C965 1.539 . S
C963 C959 1.407 1_455 S
C963 C962 1.404 . S
C963 H975 0.930 . S
C964 C960 1.524 . S
C964 H976 0.956 . S
C964 H977 0.961 . S
C964 H978 0.961 . S
C965 C962 1.539 . S
C965 H979 0.958 . S
C965 H980 0.961 . S
C965 H981 0.960 . S
H966 C950 0.931 . S
H967 C955 0.929 . S
H968 C956 0.960 . S
H969 C956 0.962 . S
H970 C956 0.960 . S
H971 C957 0.961 . S
H972 C957 0.961 . S
H973 C957 0.961 . S
H974 C958 0.931 . S
H975 C963 0.930 . S
H976 C964 0.956 . S
H977 C964 0.961 . S
H978 C964 0.961 . S
H979 C965 0.958 . S
H980 C965 0.961 . S
H981 C965 0.960 . S
C982 C983 1.391 . S
C982 C984 1.394 . S
C982 H998 0.931 . S
C983 C982 1.391 . S
C983 C987 1.376 . S
C984 C982 1.394 . S
C984 C985 1.369 . S
C984 C988 1.531 . S
C985 C984 1.369 . S
C985 C986 1.410 . S
C985 C993 1.503 . S
C986 C985 1.410 . S
C986 C987 1.392 . S
C986 C989 1.511 . S
C987 C983 1.376 . S
C987 C986 1.392 . S
C987 H999 0.929 . S
C988 C984 1.531 . S
C988 H1000 0.960 . S
C988 H1001 0.962 . S
C988 H1002 0.960 . S
C989 C986 1.511 . S
C989 H1003 0.961 . S
C989 H1004 0.961 . S
C989 H1005 0.961 . S
C990 C991 1.370 . S
C990 C992 1.363 . S
C990 H1006 0.931 . S
C991 C990 1.370 . S
C991 C995 1.408 . S
C992 C990 1.363 . S
C992 C993 1.370 . S
C992 C996 1.524 . S
C993 C985 1.503 . S
C993 C992 1.370 . S
C993 C994 1.403 . S
C994 C993 1.403 . S
C994 C995 1.404 . S
C994 C997 1.539 . S
C995 C991 1.408 . S
C995 C994 1.404 . S
C995 H1007 0.930 . S
C996 C992 1.524 . S
C996 H1008 0.956 . S
C996 H1009 0.961 . S
C996 H1010 0.961 . S
C997 C994 1.539 . S
C997 H1011 0.958 . S
C997 H1012 0.961 . S
C997 H1013 0.960 . S
H998 C982 0.931 . S
H999 C987 0.929 . S
H1000 C988 0.960 . S
H1001 C988 0.962 . S
H1002 C988 0.960 . S
H1003 C989 0.961 . S
H1004 C989 0.961 . S
H1005 C989 0.961 . S
H1006 C990 0.931 . S
H1007 C995 0.930 . S
H1008 C996 0.956 . S
H1009 C996 0.961 . S
H1010 C996 0.961 . S
H1011 C997 0.958 . S
H1012 C997 0.961 . S
H1013 C997 0.960 . S
C1014 C1015 1.391 . S
C1014 C1016 1.394 . S
C1014 H1030 0.931 . S
C1015 C1014 1.391 . S
C1015 C1019 1.376 . S
C1016 C1014 1.394 . S
C1016 C1017 1.369 . S
C1016 C1020 1.531 . S
C1017 C1016 1.369 . S
C1017 C1018 1.410 . S
C1017 C1025 1.503 . S
C1018 C1017 1.410 . S
C1018 C1019 1.392 . S
C1018 C1021 1.511 . S
C1019 C1015 1.376 . S
C1019 C1018 1.392 . S
C1019 H1031 0.929 . S
C1020 C1016 1.531 . S
C1020 H1032 0.960 . S
C1020 H1033 0.962 . S
C1020 H1034 0.960 . S
C1021 C1018 1.511 . S
C1021 H1035 0.961 . S
C1021 H1036 0.961 . S
C1021 H1037 0.961 . S
C1022 C1023 1.370 . S
C1022 C1024 1.363 . S
C1022 H1038 0.931 . S
C1023 C1022 1.370 . S
C1023 C1027 1.408 . S
C1024 C1022 1.363 . S
C1024 C1025 1.370 . S
C1024 C1028 1.524 . S
C1025 C1017 1.503 . S
C1025 C1024 1.370 . S
C1025 C1026 1.403 . S
C1026 C1025 1.403 . S
C1026 C1027 1.404 . S
C1026 C1029 1.539 . S
C1027 C1023 1.408 . S
C1027 C1026 1.404 . S
C1027 H1039 0.930 . S
C1028 C1024 1.524 . S
C1028 H1040 0.956 . S
C1028 H1041 0.961 . S
C1028 H1042 0.961 . S
C1029 C1026 1.539 . S
C1029 H1043 0.958 . S
C1029 H1044 0.961 . S
C1029 H1045 0.960 . S
H1030 C1014 0.931 . S
H1031 C1019 0.929 . S
H1032 C1020 0.960 . S
H1033 C1020 0.962 . S
H1034 C1020 0.960 . S
H1035 C1021 0.961 . S
H1036 C1021 0.961 . S
H1037 C1021 0.961 . S
H1038 C1022 0.931 . S
H1039 C1027 0.930 . S
H1040 C1028 0.956 . S
H1041 C1028 0.961 . S
H1042 C1028 0.961 . S
H1043 C1029 0.958 . S
H1044 C1029 0.961 . S
H1045 C1029 0.960 . S
C1046 C1047 1.391 . S
C1046 C1048 1.394 . S
C1046 H1062 0.931 . S
C1047 C1046 1.391 . S
C1047 C1051 1.376 . S
C1048 C1046 1.394 . S
C1048 C1049 1.369 . S
C1048 C1052 1.531 . S
C1049 C1048 1.369 . S
C1049 C1050 1.410 . S
C1049 C1057 1.503 . S
C1050 C1049 1.410 . S
C1050 C1051 1.392 . S
C1050 C1053 1.511 . S
C1051 C1047 1.376 . S
C1051 C1050 1.392 . S
C1051 H1063 0.929 . S
C1052 C1048 1.531 . S
C1052 H1064 0.960 . S
C1052 H1065 0.962 . S
C1052 H1066 0.960 . S
C1053 C1050 1.511 . S
C1053 H1067 0.961 . S
C1053 H1068 0.961 . S
C1053 H1069 0.961 . S
C1054 C1055 1.370 . S
C1054 C1056 1.363 . S
C1054 H1070 0.931 . S
C1055 C1054 1.370 . S
C1055 C1059 1.408 . S
C1056 C1054 1.363 . S
C1056 C1057 1.370 . S
C1056 C1060 1.524 . S
C1057 C1049 1.503 . S
C1057 C1056 1.370 . S
C1057 C1058 1.403 . S
C1058 C1057 1.403 . S
C1058 C1059 1.404 . S
C1058 C1061 1.539 . S
C1059 C1055 1.408 . S
C1059 C1058 1.404 . S
C1059 H1071 0.930 . S
C1060 C1056 1.524 . S
C1060 H1072 0.956 . S
C1060 H1073 0.961 . S
C1060 H1074 0.961 . S
C1061 C1058 1.539 . S
C1061 H1075 0.958 . S
C1061 H1076 0.961 . S
C1061 H1077 0.960 . S
H1062 C1046 0.931 . S
H1063 C1051 0.929 . S
H1064 C1052 0.960 . S
H1065 C1052 0.962 . S
H1066 C1052 0.960 . S
H1067 C1053 0.961 . S
H1068 C1053 0.961 . S
H1069 C1053 0.961 . S
H1070 C1054 0.931 . S
H1071 C1059 0.930 . S
H1072 C1060 0.956 . S
H1073 C1060 0.961 . S
H1074 C1060 0.961 . S
H1075 C1061 0.958 . S
H1076 C1061 0.961 . S
H1077 C1061 0.960 . S
C1078 C1079 1.391 . S
C1078 C1080 1.394 . S
C1078 H1094 0.931 . S
C1079 C1078 1.391 . S
C1079 C1083 1.376 . S
C1080 C1078 1.394 . S
C1080 C1081 1.369 . S
C1080 C1084 1.531 . S
C1081 C1080 1.369 . S
C1081 C1082 1.410 . S
C1081 C1089 1.503 . S
C1082 C1081 1.410 . S
C1082 C1083 1.392 . S
C1082 C1085 1.511 . S
C1083 C1079 1.376 . S
C1083 C1082 1.392 . S
C1083 H1095 0.929 . S
C1084 C1080 1.531 . S
C1084 H1096 0.960 . S
C1084 H1097 0.962 . S
C1084 H1098 0.960 . S
C1085 C1082 1.511 . S
C1085 H1099 0.961 . S
C1085 H1100 0.961 . S
C1085 H1101 0.961 . S
C1086 C1087 1.370 . S
C1086 C1088 1.363 . S
C1086 H1102 0.931 . S
C1087 C1086 1.370 . S
C1087 C1091 1.408 . S
C1088 C1086 1.363 . S
C1088 C1089 1.370 . S
C1088 C1092 1.524 . S
C1089 C1081 1.503 . S
C1089 C1088 1.370 . S
C1089 C1090 1.403 . S
C1090 C1089 1.403 . S
C1090 C1091 1.404 . S
C1090 C1093 1.539 . S
C1091 C1087 1.408 . S
C1091 C1090 1.404 . S
C1091 H1103 0.930 . S
C1092 C1088 1.524 . S
C1092 H1104 0.956 . S
C1092 H1105 0.961 . S
C1092 H1106 0.961 . S
C1093 C1090 1.539 . S
C1093 H1107 0.958 . S
C1093 H1108 0.961 . S
C1093 H1109 0.960 . S
H1094 C1078 0.931 . S
H1095 C1083 0.929 . S
H1096 C1084 0.960 . S
H1097 C1084 0.962 . S
H1098 C1084 0.960 . S
H1099 C1085 0.961 . S
H1100 C1085 0.961 . S
H1101 C1085 0.961 . S
H1102 C1086 0.931 . S
H1103 C1091 0.930 . S
H1104 C1092 0.956 . S
H1105 C1092 0.961 . S
H1106 C1092 0.961 . S
H1107 C1093 0.958 . S
H1108 C1093 0.961 . S
H1109 C1093 0.960 . S
C1110 C1111 1.391 . S
C1110 C1112 1.394 . S
C1110 H1126 0.931 . S
C1111 C1110 1.391 . S
C1111 C1115 1.376 . S
C1112 C1110 1.394 . S
C1112 C1113 1.369 . S
C1112 C1116 1.531 . S
C1113 C1112 1.369 . S
C1113 C1114 1.410 . S
C1113 C1121 1.503 . S
C1114 C1113 1.410 . S
C1114 C1115 1.392 . S
C1114 C1117 1.511 . S
C1115 C1111 1.376 . S
C1115 C1114 1.392 . S
C1115 H1127 0.929 . S
C1116 C1112 1.531 . S
C1116 H1128 0.960 . S
C1116 H1129 0.962 . S
C1116 H1130 0.960 . S
C1117 C1114 1.511 . S
C1117 H1131 0.961 . S
C1117 H1132 0.961 . S
C1117 H1133 0.961 . S
C1118 C1119 1.370 . S
C1118 C1120 1.363 . S
C1118 H1134 0.931 . S
C1119 C1118 1.370 . S
C1119 C1123 1.408 . S
C1120 C1118 1.363 . S
C1120 C1121 1.370 . S
C1120 C1124 1.524 . S
C1121 C1113 1.503 . S
C1121 C1120 1.370 . S
C1121 C1122 1.403 . S
C1122 C1121 1.403 . S
C1122 C1123 1.404 . S
C1122 C1125 1.539 . S
C1123 C1119 1.408 . S
C1123 C1122 1.404 . S
C1123 H1135 0.930 . S
C1124 C1120 1.524 . S
C1124 H1136 0.956 . S
C1124 H1137 0.961 . S
C1124 H1138 0.961 . S
C1125 C1122 1.539 . S
C1125 H1139 0.958 . S
C1125 H1140 0.961 . S
C1125 H1141 0.960 . S
H1126 C1110 0.931 . S
H1127 C1115 0.929 . S
H1128 C1116 0.960 . S
H1129 C1116 0.962 . S
H1130 C1116 0.960 . S
H1131 C1117 0.961 . S
H1132 C1117 0.961 . S
H1133 C1117 0.961 . S
H1134 C1118 0.931 . S
H1135 C1123 0.930 . S
H1136 C1124 0.956 . S
H1137 C1124 0.961 . S
H1138 C1124 0.961 . S
H1139 C1125 0.958 . S
H1140 C1125 0.961 . S
H1141 C1125 0.960 . S
C1142 C1143 1.391 . S
C1142 C1144 1.394 . S
C1142 H1158 0.931 . S
C1143 C1142 1.391 . S
C1143 C1147 1.376 . S
C1144 C1142 1.394 . S
C1144 C1145 1.369 . S
C1144 C1148 1.531 . S
C1145 C1144 1.369 . S
C1145 C1146 1.410 . S
C1145 C1153 1.503 . S
C1146 C1145 1.410 . S
C1146 C1147 1.392 . S
C1146 C1149 1.511 . S
C1147 C1143 1.376 . S
C1147 C1146 1.392 . S
C1147 H1159 0.929 . S
C1148 C1144 1.531 . S
C1148 H1160 0.960 . S
C1148 H1161 0.962 . S
C1148 H1162 0.960 . S
C1149 C1146 1.511 . S
C1149 H1163 0.961 . S
C1149 H1164 0.961 . S
C1149 H1165 0.961 . S
C1150 C1151 1.370 . S
C1150 C1152 1.363 . S
C1150 H1166 0.931 . S
C1151 C1150 1.370 . S
C1151 C1155 1.408 . S
C1152 C1150 1.363 . S
C1152 C1153 1.370 . S
C1152 C1156 1.524 . S
C1153 C1145 1.503 . S
C1153 C1152 1.370 . S
C1153 C1154 1.403 . S
C1154 C1153 1.403 . S
C1154 C1155 1.404 . S
C1154 C1157 1.539 . S
C1155 C1151 1.408 . S
C1155 C1154 1.404 . S
C1155 H1167 0.930 . S
C1156 C1152 1.524 . S
C1156 H1168 0.956 . S
C1156 H1169 0.961 . S
C1156 H1170 0.961 . S
C1157 C1154 1.539 . S
C1157 H1171 0.958 . S
C1157 H1172 0.961 . S
C1157 H1173 0.960 . S
H1158 C1142 0.931 . S
H1159 C1147 0.929 . S
H1160 C1148 0.960 . S
H1161 C1148 0.962 . S
H1162 C1148 0.960 . S
H1163 C1149 0.961 . S
H1164 C1149 0.961 . S
H1165 C1149 0.961 . S
H1166 C1150 0.931 . S
H1167 C1155 0.930 . S
H1168 C1156 0.956 . S
H1169 C1156 0.961 . S
H1170 C1156 0.961 . S
H1171 C1157 0.958 . S
H1172 C1157 0.961 . S
H1173 C1157 0.960 . S
C1174 C1175 1.391 . S
C1174 C1176 1.394 . S
C1174 H1190 0.931 . S
C1175 C1174 1.391 . S
C1175 C1179 1.376 . S
C1176 C1174 1.394 . S
C1176 C1177 1.369 . S
C1176 C1180 1.531 . S
C1177 C1176 1.369 . S
C1177 C1178 1.410 . S
C1177 C1185 1.503 . S
C1178 C1177 1.410 . S
C1178 C1179 1.392 . S
C1178 C1181 1.511 . S
C1179 C1175 1.376 . S
C1179 C1178 1.392 . S
C1179 H1191 0.929 . S
C1180 C1176 1.531 . S
C1180 H1192 0.960 . S
C1180 H1193 0.962 . S
C1180 H1194 0.960 . S
C1181 C1178 1.511 . S
C1181 H1195 0.961 . S
C1181 H1196 0.961 . S
C1181 H1197 0.961 . S
C1182 C1183 1.370 . S
C1182 C1184 1.363 . S
C1182 H1198 0.931 . S
C1183 C1182 1.370 . S
C1183 C1187 1.408 . S
C1184 C1182 1.363 . S
C1184 C1185 1.370 . S
C1184 C1188 1.524 . S
C1185 C1177 1.503 . S
C1185 C1184 1.370 . S
C1185 C1186 1.403 . S
C1186 C1185 1.403 . S
C1186 C1187 1.404 . S
C1186 C1189 1.539 . S
C1187 C1183 1.408 . S
C1187 C1186 1.404 . S
C1187 H1199 0.930 . S
C1188 C1184 1.524 . S
C1188 H1200 0.956 . S
C1188 H1201 0.961 . S
C1188 H1202 0.961 . S
C1189 C1186 1.539 . S
C1189 H1203 0.958 . S
C1189 H1204 0.961 . S
C1189 H1205 0.960 . S
H1190 C1174 0.931 . S
H1191 C1179 0.929 . S
H1192 C1180 0.960 . S
H1193 C1180 0.962 . S
H1194 C1180 0.960 . S
H1195 C1181 0.961 . S
H1196 C1181 0.961 . S
H1197 C1181 0.961 . S
H1198 C1182 0.931 . S
H1199 C1187 0.930 . S
H1200 C1188 0.956 . S
H1201 C1188 0.961 . S
H1202 C1188 0.961 . S
H1203 C1189 0.958 . S
H1204 C1189 0.961 . S
H1205 C1189 0.960 . S
C1206 C1207 1.391 . S
C1206 C1208 1.394 . S
C1206 H1222 0.931 . S
C1207 C1206 1.391 . S
C1207 C1211 1.376 . S
C1208 C1206 1.394 . S
C1208 C1209 1.369 . S
C1208 C1212 1.531 . S
C1209 C1208 1.369 . S
C1209 C1210 1.410 . S
C1209 C1217 1.503 . S
C1210 C1209 1.410 . S
C1210 C1211 1.392 . S
C1210 C1213 1.511 . S
C1211 C1207 1.376 . S
C1211 C1210 1.392 . S
C1211 H1223 0.929 . S
C1212 C1208 1.531 . S
C1212 H1224 0.960 . S
C1212 H1225 0.962 . S
C1212 H1226 0.960 . S
C1213 C1210 1.511 . S
C1213 H1227 0.961 . S
C1213 H1228 0.961 . S
C1213 H1229 0.961 . S
C1214 C1215 1.370 . S
C1214 C1216 1.363 . S
C1214 H1230 0.931 . S
C1215 C1214 1.370 . S
C1215 C1219 1.408 . S
C1216 C1214 1.363 . S
C1216 C1217 1.370 . S
C1216 C1220 1.524 . S
C1217 C1209 1.503 . S
C1217 C1216 1.370 . S
C1217 C1218 1.403 . S
C1218 C1217 1.403 . S
C1218 C1219 1.404 . S
C1218 C1221 1.539 . S
C1219 C1215 1.408 . S
C1219 C1218 1.404 . S
C1219 H1231 0.930 . S
C1220 C1216 1.524 . S
C1220 H1232 0.956 . S
C1220 H1233 0.961 . S
C1220 H1234 0.961 . S
C1221 C1218 1.539 . S
C1221 H1235 0.958 . S
C1221 H1236 0.961 . S
C1221 H1237 0.960 . S
H1222 C1206 0.931 . S
H1223 C1211 0.929 . S
H1224 C1212 0.960 . S
H1225 C1212 0.962 . S
H1226 C1212 0.960 . S
H1227 C1213 0.961 . S
H1228 C1213 0.961 . S
H1229 C1213 0.961 . S
H1230 C1214 0.931 . S
H1231 C1219 0.930 . S
H1232 C1220 0.956 . S
H1233 C1220 0.961 . S
H1234 C1220 0.961 . S
H1235 C1221 0.958 . S
H1236 C1221 0.961 . S
H1237 C1221 0.960 . S
C1238 C1239 1.391 . S
C1238 C1240 1.394 . S
C1238 H1254 0.931 . S
C1239 C1238 1.391 . S
C1239 C1243 1.376 . S
C1240 C1238 1.394 . S
C1240 C1241 1.369 . S
C1240 C1244 1.531 . S
C1241 C1240 1.369 . S
C1241 C1242 1.410 . S
C1241 C1249 1.503 . S
C1242 C1241 1.410 . S
C1242 C1243 1.392 . S
C1242 C1245 1.511 . S
C1243 C1239 1.376 . S
C1243 C1242 1.392 . S
C1243 H1255 0.929 . S
C1244 C1240 1.531 . S
C1244 H1256 0.960 . S
C1244 H1257 0.962 . S
C1244 H1258 0.960 . S
C1245 C1242 1.511 . S
C1245 H1259 0.961 . S
C1245 H1260 0.961 . S
C1245 H1261 0.961 . S
C1246 C1247 1.370 . S
C1246 C1248 1.363 . S
C1246 H1262 0.931 . S
C1247 C1246 1.370 . S
C1247 C1251 1.408 . S
C1248 C1246 1.363 . S
C1248 C1249 1.370 . S
C1248 C1252 1.524 . S
C1249 C1241 1.503 . S
C1249 C1248 1.370 . S
C1249 C1250 1.403 . S
C1250 C1249 1.403 . S
C1250 C1251 1.404 . S
C1250 C1253 1.539 . S
C1251 C1247 1.408 . S
C1251 C1250 1.404 . S
C1251 H1263 0.930 . S
C1252 C1248 1.524 . S
C1252 H1264 0.956 . S
C1252 H1265 0.961 . S
C1252 H1266 0.961 . S
C1253 C1250 1.539 . S
C1253 H1267 0.958 . S
C1253 H1268 0.961 . S
C1253 H1269 0.960 . S
H1254 C1238 0.931 . S
H1255 C1243 0.929 . S
H1256 C1244 0.960 . S
H1257 C1244 0.962 . S
H1258 C1244 0.960 . S
H1259 C1245 0.961 . S
H1260 C1245 0.961 . S
H1261 C1245 0.961 . S
H1262 C1246 0.931 . S
H1263 C1251 0.930 . S
H1264 C1252 0.956 . S
H1265 C1252 0.961 . S
H1266 C1252 0.961 . S
H1267 C1253 0.958 . S
H1268 C1253 0.961 . S
H1269 C1253 0.960 . S
C1270 C1271 1.391 . S
C1270 C1272 1.394 . S
C1270 H1286 0.931 . S
C1271 C1270 1.391 . S
C1271 C1275 1.376 . S
C1272 C1270 1.394 . S
C1272 C1273 1.369 . S
C1272 C1276 1.531 . S
C1273 C1272 1.369 . S
C1273 C1274 1.410 . S
C1273 C1281 1.503 . S
C1274 C1273 1.410 . S
C1274 C1275 1.392 . S
C1274 C1277 1.511 . S
C1275 C1271 1.376 . S
C1275 C1274 1.392 . S
C1275 H1287 0.929 . S
C1276 C1272 1.531 . S
C1276 H1288 0.960 . S
C1276 H1289 0.962 . S
C1276 H1290 0.960 . S
C1277 C1274 1.511 . S
C1277 H1291 0.961 . S
C1277 H1292 0.961 . S
C1277 H1293 0.961 . S
C1278 C1279 1.370 . S
C1278 C1280 1.363 . S
C1278 H1294 0.931 . S
C1279 C1278 1.370 . S
C1279 C1283 1.408 . S
C1280 C1278 1.363 . S
C1280 C1281 1.370 . S
C1280 C1284 1.524 . S
C1281 C1273 1.503 . S
C1281 C1280 1.370 . S
C1281 C1282 1.403 . S
C1282 C1281 1.403 . S
C1282 C1283 1.404 . S
C1282 C1285 1.539 . S
C1283 C1279 1.408 . S
C1283 C1282 1.404 . S
C1283 H1295 0.930 . S
C1284 C1280 1.524 . S
C1284 H1296 0.956 . S
C1284 H1297 0.961 . S
C1284 H1298 0.961 . S
C1285 C1282 1.539 . S
C1285 H1299 0.958 . S
C1285 H1300 0.961 . S
C1285 H1301 0.960 . S
H1286 C1270 0.931 . S
H1287 C1275 0.929 . S
H1288 C1276 0.960 . S
H1289 C1276 0.962 . S
H1290 C1276 0.960 . S
H1291 C1277 0.961 . S
H1292 C1277 0.961 . S
H1293 C1277 0.961 . S
H1294 C1278 0.931 . S
H1295 C1283 0.930 . S
H1296 C1284 0.956 . S
H1297 C1284 0.961 . S
H1298 C1284 0.961 . S
H1299 C1285 0.958 . S
H1300 C1285 0.961 . S
H1301 C1285 0.960 . S
C1302 C1303 1.391 . S
C1302 C1304 1.394 . S
C1302 H1318 0.931 . S
C1303 C1302 1.391 . S
C1303 C1307 1.376 . S
C1304 C1302 1.394 . S
C1304 C1305 1.369 . S
C1304 C1308 1.531 . S
C1305 C1304 1.369 . S
C1305 C1306 1.410 . S
C1305 C1313 1.503 . S
C1306 C1305 1.410 . S
C1306 C1307 1.392 . S
C1306 C1309 1.511 . S
C1307 C1303 1.376 . S
C1307 C1306 1.392 . S
C1307 H1319 0.929 . S
C1308 C1304 1.531 . S
C1308 H1320 0.960 . S
C1308 H1321 0.962 . S
C1308 H1322 0.960 . S
C1309 C1306 1.511 . S
C1309 H1323 0.961 . S
C1309 H1324 0.961 . S
C1309 H1325 0.961 . S
C1310 C1311 1.370 . S
C1310 C1312 1.363 . S
C1310 H1326 0.931 . S
C1311 C1310 1.370 . S
C1311 C1315 1.408 . S
C1312 C1310 1.363 . S
C1312 C1313 1.370 . S
C1312 C1316 1.524 . S
C1313 C1305 1.503 . S
C1313 C1312 1.370 . S
C1313 C1314 1.403 . S
C1314 C1313 1.403 . S
C1314 C1315 1.404 . S
C1314 C1317 1.539 . S
C1315 C1311 1.408 . S
C1315 C1314 1.404 . S
C1315 H1327 0.930 . S
C1316 C1312 1.524 . S
C1316 H1328 0.956 . S
C1316 H1329 0.961 . S
C1316 H1330 0.961 . S
C1317 C1314 1.539 . S
C1317 H1331 0.958 . S
C1317 H1332 0.961 . S
C1317 H1333 0.960 . S
H1318 C1302 0.931 . S
H1319 C1307 0.929 . S
H1320 C1308 0.960 . S
H1321 C1308 0.962 . S
H1322 C1308 0.960 . S
H1323 C1309 0.961 . S
H1324 C1309 0.961 . S
H1325 C1309 0.961 . S
H1326 C1310 0.931 . S
H1327 C1315 0.930 . S
H1328 C1316 0.956 . S
H1329 C1316 0.961 . S
H1330 C1316 0.961 . S
H1331 C1317 0.958 . S
H1332 C1317 0.961 . S
H1333 C1317 0.960 . S
C1334 C1335 1.391 . S
C1334 C1336 1.394 . S
C1334 H1350 0.931 . S
C1335 C1334 1.391 . S
C1335 C1339 1.376 . S
C1336 C1334 1.394 . S
C1336 C1337 1.369 . S
C1336 C1340 1.531 . S
C1337 C1336 1.369 . S
C1337 C1338 1.410 . S
C1337 C1345 1.503 . S
C1338 C1337 1.410 . S
C1338 C1339 1.392 . S
C1338 C1341 1.511 . S
C1339 C1335 1.376 . S
C1339 C1338 1.392 . S
C1339 H1351 0.929 . S
C1340 C1336 1.531 . S
C1340 H1352 0.960 . S
C1340 H1353 0.962 . S
C1340 H1354 0.960 . S
C1341 C1338 1.511 . S
C1341 H1355 0.961 . S
C1341 H1356 0.961 . S
C1341 H1357 0.961 . S
C1342 C1343 1.370 . S
C1342 C1344 1.363 . S
C1342 H1358 0.931 . S
C1343 C1342 1.370 . S
C1343 C1347 1.408 . S
C1344 C1342 1.363 . S
C1344 C1345 1.370 . S
C1344 C1348 1.524 . S
C1345 C1337 1.503 . S
C1345 C1344 1.370 . S
C1345 C1346 1.403 . S
C1346 C1345 1.403 . S
C1346 C1347 1.404 . S
C1346 C1349 1.539 . S
C1347 C1343 1.408 . S
C1347 C1346 1.404 . S
C1347 H1359 0.930 . S
C1348 C1344 1.524 . S
C1348 H1360 0.956 . S
C1348 H1361 0.961 . S
C1348 H1362 0.961 . S
C1349 C1346 1.539 . S
C1349 H1363 0.958 . S
C1349 H1364 0.961 . S
C1349 H1365 0.960 . S
H1350 C1334 0.931 . S
H1351 C1339 0.929 . S
H1352 C1340 0.960 . S
H1353 C1340 0.962 . S
H1354 C1340 0.960 . S
H1355 C1341 0.961 . S
H1356 C1341 0.961 . S
H1357 C1341 0.961 . S
H1358 C1342 0.931 . S
H1359 C1347 0.930 . S
H1360 C1348 0.956 . S
H1361 C1348 0.961 . S
H1362 C1348 0.961 . S
H1363 C1349 0.958 . S
H1364 C1349 0.961 . S
H1365 C1349 0.960 . S
C1366 C1367 1.391 . S
C1366 C1368 1.394 . S
C1366 H1382 0.931 . S
C1367 C1366 1.391 . S
C1367 C1371 1.376 . S
C1368 C1366 1.394 . S
C1368 C1369 1.369 . S
C1368 C1372 1.531 . S
C1369 C1368 1.369 . S
C1369 C1370 1.410 . S
C1369 C1377 1.503 . S
C1370 C1369 1.410 . S
C1370 C1371 1.392 . S
C1370 C1373 1.511 . S
C1371 C1367 1.376 . S
C1371 C1370 1.392 . S
C1371 H1383 0.929 . S
C1372 C1368 1.531 . S
C1372 H1384 0.960 . S
C1372 H1385 0.962 . S
C1372 H1386 0.960 . S
C1373 C1370 1.511 . S
C1373 H1387 0.961 . S
C1373 H1388 0.961 . S
C1373 H1389 0.961 . S
C1374 C1375 1.370 . S
C1374 C1376 1.363 . S
C1374 H1390 0.931 . S
C1375 C1374 1.370 . S
C1375 C1379 1.408 . S
C1376 C1374 1.363 . S
C1376 C1377 1.370 . S
C1376 C1380 1.524 . S
C1377 C1369 1.503 . S
C1377 C1376 1.370 . S
C1377 C1378 1.403 . S
C1378 C1377 1.403 . S
C1378 C1379 1.404 . S
C1378 C1381 1.539 . S
C1379 C1375 1.408 . S
C1379 C1378 1.404 . S
C1379 H1391 0.930 . S
C1380 C1376 1.524 . S
C1380 H1392 0.956 . S
C1380 H1393 0.961 . S
C1380 H1394 0.961 . S
C1381 C1378 1.539 . S
C1381 H1395 0.958 . S
C1381 H1396 0.961 . S
C1381 H1397 0.960 . S
H1382 C1366 0.931 . S
H1383 C1371 0.929 . S
H1384 C1372 0.960 . S
H1385 C1372 0.962 . S
H1386 C1372 0.960 . S
H1387 C1373 0.961 . S
H1388 C1373 0.961 . S
H1389 C1373 0.961 . S
H1390 C1374 0.931 . S
H1391 C1379 0.930 . S
H1392 C1380 0.956 . S
H1393 C1380 0.961 . S
H1394 C1380 0.961 . S
H1395 C1381 0.958 . S
H1396 C1381 0.961 . S
H1397 C1381 0.960 . S
C1398 C1399 1.391 . S
C1398 C1400 1.394 . S
C1398 H1414 0.931 . S
C1399 C1398 1.391 . S
C1399 C1403 1.376 . S
C1400 C1398 1.394 . S
C1400 C1401 1.369 . S
C1400 C1404 1.531 . S
C1401 C1400 1.369 . S
C1401 C1402 1.410 . S
C1401 C1409 1.503 . S
C1402 C1401 1.410 . S
C1402 C1403 1.392 . S
C1402 C1405 1.511 . S
C1403 C1399 1.376 . S
C1403 C1402 1.392 . S
C1403 H1415 0.929 . S
C1404 C1400 1.531 . S
C1404 H1416 0.960 . S
C1404 H1417 0.962 . S
C1404 H1418 0.960 . S
C1405 C1402 1.511 . S
C1405 H1419 0.961 . S
C1405 H1420 0.961 . S
C1405 H1421 0.961 . S
C1406 C1407 1.370 . S
C1406 C1408 1.363 . S
C1406 H1422 0.931 . S
C1407 C1406 1.370 . S
C1407 C1411 1.408 . S
C1408 C1406 1.363 . S
C1408 C1409 1.370 . S
C1408 C1412 1.524 . S
C1409 C1401 1.503 . S
C1409 C1408 1.370 . S
C1409 C1410 1.403 . S
C1410 C1409 1.403 . S
C1410 C1411 1.404 . S
C1410 C1413 1.539 . S
C1411 C1407 1.408 . S
C1411 C1410 1.404 . S
C1411 H1423 0.930 . S
C1412 C1408 1.524 . S
C1412 H1424 0.956 . S
C1412 H1425 0.961 . S
C1412 H1426 0.961 . S
C1413 C1410 1.539 . S
C1413 H1427 0.958 . S
C1413 H1428 0.961 . S
C1413 H1429 0.960 . S
H1414 C1398 0.931 . S
H1415 C1403 0.929 . S
H1416 C1404 0.960 . S
H1417 C1404 0.962 . S
H1418 C1404 0.960 . S
H1419 C1405 0.961 . S
H1420 C1405 0.961 . S
H1421 C1405 0.961 . S
H1422 C1406 0.931 . S
H1423 C1411 0.930 . S
H1424 C1412 0.956 . S
H1425 C1412 0.961 . S
H1426 C1412 0.961 . S
H1427 C1413 0.958 . S
H1428 C1413 0.961 . S
H1429 C1413 0.960 . S
C1430 C1431 1.391 . S
C1430 C1432 1.394 . S
C1430 H1446 0.931 . S
C1431 C1430 1.391 . S
C1431 C1435 1.376 . S
C1432 C1430 1.394 . S
C1432 C1433 1.369 . S
C1432 C1436 1.531 . S
C1433 C1432 1.369 . S
C1433 C1434 1.410 . S
C1433 C1441 1.503 . S
C1434 C1433 1.410 . S
C1434 C1435 1.392 . S
C1434 C1437 1.511 . S
C1435 C1431 1.376 . S
C1435 C1434 1.392 . S
C1435 H1447 0.929 . S
C1436 C1432 1.531 . S
C1436 H1448 0.960 . S
C1436 H1449 0.962 . S
C1436 H1450 0.960 . S
C1437 C1434 1.511 . S
C1437 H1451 0.961 . S
C1437 H1452 0.961 . S
C1437 H1453 0.961 . S
C1438 C1439 1.370 . S
C1438 C1440 1.363 . S
C1438 H1454 0.931 . S
C1439 C1438 1.370 . S
C1439 C1443 1.408 . S
C1440 C1438 1.363 . S
C1440 C1441 1.370 . S
C1440 C1444 1.524 . S
C1441 C1433 1.503 . S
C1441 C1440 1.370 . S
C1441 C1442 1.403 . S
C1442 C1441 1.403 . S
C1442 C1443 1.404 . S
C1442 C1445 1.539 . S
C1443 C1439 1.408 . S
C1443 C1442 1.404 . S
C1443 H1455 0.930 . S
C1444 C1440 1.524 . S
C1444 H1456 0.956 . S
C1444 H1457 0.961 . S
C1444 H1458 0.961 . S
C1445 C1442 1.539 . S
C1445 H1459 0.958 . S
C1445 H1460 0.961 . S
C1445 H1461 0.960 . S
H1446 C1430 0.931 . S
H1447 C1435 0.929 . S
H1448 C1436 0.960 . S
H1449 C1436 0.962 . S
H1450 C1436 0.960 . S
H1451 C1437 0.961 . S
H1452 C1437 0.961 . S
H1453 C1437 0.961 . S
H1454 C1438 0.931 . S
H1455 C1443 0.930 . S
H1456 C1444 0.956 . S
H1457 C1444 0.961 . S
H1458 C1444 0.961 . S
H1459 C1445 0.958 . S
H1460 C1445 0.961 . S
H1461 C1445 0.960 . S
C1462 C1463 1.391 . S
C1462 C1464 1.394 . S
C1462 H1478 0.931 . S
C1463 C1462 1.391 . S
C1463 C1467 1.376 . S
C1464 C1462 1.394 . S
C1464 C1465 1.369 . S
C1464 C1468 1.531 . S
C1465 C1464 1.369 . S
C1465 C1466 1.410 . S
C1465 C1473 1.503 . S
C1466 C1465 1.410 . S
C1466 C1467 1.392 . S
C1466 C1469 1.511 . S
C1467 C1463 1.376 . S
C1467 C1466 1.392 . S
C1467 H1479 0.929 . S
C1468 C1464 1.531 . S
C1468 H1480 0.960 . S
C1468 H1481 0.962 . S
C1468 H1482 0.960 . S
C1469 C1466 1.511 . S
C1469 H1483 0.961 . S
C1469 H1484 0.961 . S
C1469 H1485 0.961 . S
C1470 C1471 1.370 . S
C1470 C1472 1.363 . S
C1470 H1486 0.931 . S
C1471 C1470 1.370 . S
C1471 C1475 1.408 . S
C1472 C1470 1.363 . S
C1472 C1473 1.370 . S
C1472 C1476 1.524 . S
C1473 C1465 1.503 . S
C1473 C1472 1.370 . S
C1473 C1474 1.403 . S
C1474 C1473 1.403 . S
C1474 C1475 1.404 . S
C1474 C1477 1.539 . S
C1475 C1471 1.408 . S
C1475 C1474 1.404 . S
C1475 H1487 0.930 . S
C1476 C1472 1.524 . S
C1476 H1488 0.956 . S
C1476 H1489 0.961 . S
C1476 H1490 0.961 . S
C1477 C1474 1.539 . S
C1477 H1491 0.958 . S
C1477 H1492 0.961 . S
C1477 H1493 0.960 . S
H1478 C1462 0.931 . S
H1479 C1467 0.929 . S
H1480 C1468 0.960 . S
H1481 C1468 0.962 . S
H1482 C1468 0.960 . S
H1483 C1469 0.961 . S
H1484 C1469 0.961 . S
H1485 C1469 0.961 . S
H1486 C1470 0.931 . S
H1487 C1475 0.930 . S
H1488 C1476 0.956 . S
H1489 C1476 0.961 . S
H1490 C1476 0.961 . S
H1491 C1477 0.958 . S
H1492 C1477 0.961 . S
H1493 C1477 0.960 . S
C1494 C1495 1.391 . S
C1494 C1496 1.394 . S
C1494 H1510 0.931 . S
C1495 C1494 1.391 . S
C1495 C1499 1.376 . S
C1496 C1494 1.394 . S
C1496 C1497 1.369 . S
C1496 C1500 1.531 . S
C1497 C1496 1.369 . S
C1497 C1498 1.410 . S
C1497 C1505 1.503 . S
C1498 C1497 1.410 . S
C1498 C1499 1.392 . S
C1498 C1501 1.511 . S
C1499 C1495 1.376 . S
C1499 C1498 1.392 . S
C1499 H1511 0.929 . S
C1500 C1496 1.531 . S
C1500 H1512 0.960 . S
C1500 H1513 0.962 . S
C1500 H1514 0.960 . S
C1501 C1498 1.511 . S
C1501 H1515 0.961 . S
C1501 H1516 0.961 . S
C1501 H1517 0.961 . S
C1502 C1503 1.370 . S
C1502 C1504 1.363 . S
C1502 H1518 0.931 . S
C1503 C1502 1.370 . S
C1503 C1507 1.408 . S
C1504 C1502 1.363 . S
C1504 C1505 1.370 . S
C1504 C1508 1.524 . S
C1505 C1497 1.503 . S
C1505 C1504 1.370 . S
C1505 C1506 1.403 . S
C1506 C1505 1.403 . S
C1506 C1507 1.404 . S
C1506 C1509 1.539 . S
C1507 C1503 1.408 . S
C1507 C1506 1.404 . S
C1507 H1519 0.930 . S
C1508 C1504 1.524 . S
C1508 H1520 0.956 . S
C1508 H1521 0.961 . S
C1508 H1522 0.961 . S
C1509 C1506 1.539 . S
C1509 H1523 0.958 . S
C1509 H1524 0.961 . S
C1509 H1525 0.960 . S
H1510 C1494 0.931 . S
H1511 C1499 0.929 . S
H1512 C1500 0.960 . S
H1513 C1500 0.962 . S
H1514 C1500 0.960 . S
H1515 C1501 0.961 . S
H1516 C1501 0.961 . S
H1517 C1501 0.961 . S
H1518 C1502 0.931 . S
H1519 C1507 0.930 . S
H1520 C1508 0.956 . S
H1521 C1508 0.961 . S
H1522 C1508 0.961 . S
H1523 C1509 0.958 . S
H1524 C1509 0.961 . S
H1525 C1509 0.960 . S
C1526 C1527 1.391 . S
C1526 C1528 1.394 . S
C1526 H1542 0.931 . S
C1527 C1526 1.391 . S
C1527 C1531 1.376 . S
C1528 C1526 1.394 . S
C1528 C1529 1.369 . S
C1528 C1532 1.531 . S
C1529 C1528 1.369 . S
C1529 C1530 1.410 . S
C1529 C1537 1.503 . S
C1530 C1529 1.410 . S
C1530 C1531 1.392 . S
C1530 C1533 1.511 . S
C1531 C1527 1.376 . S
C1531 C1530 1.392 . S
C1531 H1543 0.929 . S
C1532 C1528 1.531 . S
C1532 H1544 0.960 . S
C1532 H1545 0.962 . S
C1532 H1546 0.960 . S
C1533 C1530 1.511 . S
C1533 H1547 0.961 . S
C1533 H1548 0.961 . S
C1533 H1549 0.961 . S
C1534 C1535 1.370 . S
C1534 C1536 1.363 . S
C1534 H1550 0.931 . S
C1535 C1534 1.370 . S
C1535 C1539 1.408 . S
C1536 C1534 1.363 . S
C1536 C1537 1.370 . S
C1536 C1540 1.524 . S
C1537 C1529 1.503 . S
C1537 C1536 1.370 . S
C1537 C1538 1.403 . S
C1538 C1537 1.403 . S
C1538 C1539 1.404 . S
C1538 C1541 1.539 . S
C1539 C1535 1.408 . S
C1539 C1538 1.404 . S
C1539 H1551 0.930 . S
C1540 C1536 1.524 . S
C1540 H1552 0.956 . S
C1540 H1553 0.961 . S
C1540 H1554 0.961 . S
C1541 C1538 1.539 . S
C1541 H1555 0.958 . S
C1541 H1556 0.961 . S
C1541 H1557 0.960 . S
H1542 C1526 0.931 . S
H1543 C1531 0.929 . S
H1544 C1532 0.960 . S
H1545 C1532 0.962 . S
H1546 C1532 0.960 . S
H1547 C1533 0.961 . S
H1548 C1533 0.961 . S
H1549 C1533 0.961 . S
H1550 C1534 0.931 . S
H1551 C1539 0.930 . S
H1552 C1540 0.956 . S
H1553 C1540 0.961 . S
H1554 C1540 0.961 . S
H1555 C1541 0.958 . S
H1556 C1541 0.961 . S
H1557 C1541 0.960 . S
C1558 C1559 1.391 . S
C1558 C1560 1.394 . S
C1558 H1574 0.931 . S
C1559 C1558 1.391 . S
C1559 C1563 1.376 . S
C1560 C1558 1.394 . S
C1560 C1561 1.369 . S
C1560 C1564 1.531 . S
C1561 C1560 1.369 . S
C1561 C1562 1.410 . S
C1561 C1569 1.503 . S
C1562 C1561 1.410 . S
C1562 C1563 1.392 . S
C1562 C1565 1.511 . S
C1563 C1559 1.376 . S
C1563 C1562 1.392 . S
C1563 H1575 0.929 . S
C1564 C1560 1.531 . S
C1564 H1576 0.960 . S
C1564 H1577 0.962 . S
C1564 H1578 0.960 . S
C1565 C1562 1.511 . S
C1565 H1579 0.961 . S
C1565 H1580 0.961 . S
C1565 H1581 0.961 . S
C1566 C1567 1.370 . S
C1566 C1568 1.363 . S
C1566 H1582 0.931 . S
C1567 C1566 1.370 . S
C1567 C1571 1.408 . S
C1568 C1566 1.363 . S
C1568 C1569 1.370 . S
C1568 C1572 1.524 . S
C1569 C1561 1.503 . S
C1569 C1568 1.370 . S
C1569 C1570 1.403 . S
C1570 C1569 1.403 . S
C1570 C1571 1.404 . S
C1570 C1573 1.539 . S
C1571 C1567 1.408 . S
C1571 C1570 1.404 . S
C1571 H1583 0.930 . S
C1572 C1568 1.524 . S
C1572 H1584 0.956 . S
C1572 H1585 0.961 . S
C1572 H1586 0.961 . S
C1573 C1570 1.539 . S
C1573 H1587 0.958 . S
C1573 H1588 0.961 . S
C1573 H1589 0.960 . S
H1574 C1558 0.931 . S
H1575 C1563 0.929 . S
H1576 C1564 0.960 . S
H1577 C1564 0.962 . S
H1578 C1564 0.960 . S
H1579 C1565 0.961 . S
H1580 C1565 0.961 . S
H1581 C1565 0.961 . S
H1582 C1566 0.931 . S
H1583 C1571 0.930 . S
H1584 C1572 0.956 . S
H1585 C1572 0.961 . S
H1586 C1572 0.961 . S
H1587 C1573 0.958 . S
H1588 C1573 0.961 . S
H1589 C1573 0.960 . S
C1590 C1591 1.391 . S
C1590 C1592 1.394 . S
C1590 H1606 0.931 . S
C1591 C1590 1.391 . S
C1591 C1595 1.376 . S
C1592 C1590 1.394 . S
C1592 C1593 1.369 . S
C1592 C1596 1.531 . S
C1593 C1592 1.369 . S
C1593 C1594 1.410 . S
C1593 C1601 1.503 . S
C1594 C1593 1.410 . S
C1594 C1595 1.392 . S
C1594 C1597 1.511 . S
C1595 C1591 1.376 . S
C1595 C1594 1.392 . S
C1595 H1607 0.929 . S
C1596 C1592 1.531 . S
C1596 H1608 0.960 . S
C1596 H1609 0.962 . S
C1596 H1610 0.960 . S
C1597 C1594 1.511 . S
C1597 H1611 0.961 . S
C1597 H1612 0.961 . S
C1597 H1613 0.961 . S
C1598 C1599 1.370 . S
C1598 C1600 1.363 . S
C1598 H1614 0.931 . S
C1599 C1598 1.370 . S
C1599 C1603 1.408 . S
C1600 C1598 1.363 . S
C1600 C1601 1.370 . S
C1600 C1604 1.524 . S
C1601 C1593 1.503 . S
C1601 C1600 1.370 . S
C1601 C1602 1.403 . S
C1602 C1601 1.403 . S
C1602 C1603 1.404 . S
C1602 C1605 1.539 . S
C1603 C1599 1.408 . S
C1603 C1602 1.404 . S
C1603 H1615 0.930 . S
C1604 C1600 1.524 . S
C1604 H1616 0.956 . S
C1604 H1617 0.961 . S
C1604 H1618 0.961 . S
C1605 C1602 1.539 . S
C1605 H1619 0.958 . S
C1605 H1620 0.961 . S
C1605 H1621 0.960 . S
H1606 C1590 0.931 . S
H1607 C1595 0.929 . S
H1608 C1596 0.960 . S
H1609 C1596 0.962 . S
H1610 C1596 0.960 . S
H1611 C1597 0.961 . S
H1612 C1597 0.961 . S
H1613 C1597 0.961 . S
H1614 C1598 0.931 . S
H1615 C1603 0.930 . S
H1616 C1604 0.956 . S
H1617 C1604 0.961 . S
H1618 C1604 0.961 . S
H1619 C1605 0.958 . S
H1620 C1605 0.961 . S
H1621 C1605 0.960 . S
C1622 C1623 1.391 . S
C1622 C1624 1.394 . S
C1622 H1638 0.931 . S
C1623 C1622 1.391 . S
C1623 C1627 1.376 . S
C1624 C1622 1.394 . S
C1624 C1625 1.369 . S
C1624 C1628 1.531 . S
C1625 C1624 1.369 . S
C1625 C1626 1.410 . S
C1625 C1633 1.503 . S
C1626 C1625 1.410 . S
C1626 C1627 1.392 . S
C1626 C1629 1.511 . S
C1627 C1623 1.376 . S
C1627 C1626 1.392 . S
C1627 H1639 0.929 . S
C1628 C1624 1.531 . S
C1628 H1640 0.960 . S
C1628 H1641 0.962 . S
C1628 H1642 0.960 . S
C1629 C1626 1.511 . S
C1629 H1643 0.961 . S
C1629 H1644 0.961 . S
C1629 H1645 0.961 . S
C1630 C1631 1.370 . S
C1630 C1632 1.363 . S
C1630 H1646 0.931 . S
C1631 C1630 1.370 . S
C1631 C1635 1.408 . S
C1632 C1630 1.363 . S
C1632 C1633 1.370 . S
C1632 C1636 1.524 . S
C1633 C1625 1.503 . S
C1633 C1632 1.370 . S
C1633 C1634 1.403 . S
C1634 C1633 1.403 . S
C1634 C1635 1.404 . S
C1634 C1637 1.539 . S
C1635 C1631 1.408 . S
C1635 C1634 1.404 . S
C1635 H1647 0.930 . S
C1636 C1632 1.524 . S
C1636 H1648 0.956 . S
C1636 H1649 0.961 . S
C1636 H1650 0.961 . S
C1637 C1634 1.539 . S
C1637 H1651 0.958 . S
C1637 H1652 0.961 . S
C1637 H1653 0.960 . S
H1638 C1622 0.931 . S
H1639 C1627 0.929 . S
H1640 C1628 0.960 . S
H1641 C1628 0.962 . S
H1642 C1628 0.960 . S
H1643 C1629 0.961 . S
H1644 C1629 0.961 . S
H1645 C1629 0.961 . S
H1646 C1630 0.931 . S
H1647 C1635 0.930 . S
H1648 C1636 0.956 . S
H1649 C1636 0.961 . S
H1650 C1636 0.961 . S
H1651 C1637 0.958 . S
H1652 C1637 0.961 . S
H1653 C1637 0.960 . S
C1654 C1655 1.391 . S
C1654 C1656 1.394 . S
C1654 H1670 0.931 . S
C1655 C1654 1.391 . S
C1655 C1659 1.376 . S
C1656 C1654 1.394 . S
C1656 C1657 1.369 . S
C1656 C1660 1.531 . S
C1657 C1656 1.369 . S
C1657 C1658 1.410 . S
C1657 C1665 1.503 . S
C1658 C1657 1.410 . S
C1658 C1659 1.392 . S
C1658 C1661 1.511 . S
C1659 C1655 1.376 . S
C1659 C1658 1.392 . S
C1659 H1671 0.929 . S
C1660 C1656 1.531 . S
C1660 H1672 0.960 . S
C1660 H1673 0.962 . S
C1660 H1674 0.960 . S
C1661 C1658 1.511 . S
C1661 H1675 0.961 . S
C1661 H1676 0.961 . S
C1661 H1677 0.961 . S
C1662 C1663 1.370 . S
C1662 C1664 1.363 . S
C1662 H1678 0.931 . S
C1663 C1662 1.370 . S
C1663 C1667 1.408 . S
C1664 C1662 1.363 . S
C1664 C1665 1.370 . S
C1664 C1668 1.524 . S
C1665 C1657 1.503 . S
C1665 C1664 1.370 . S
C1665 C1666 1.403 . S
C1666 C1665 1.403 . S
C1666 C1667 1.404 . S
C1666 C1669 1.539 . S
C1667 C1663 1.408 . S
C1667 C1666 1.404 . S
C1667 H1679 0.930 . S
C1668 C1664 1.524 . S
C1668 H1680 0.956 . S
C1668 H1681 0.961 . S
C1668 H1682 0.961 . S
C1669 C1666 1.539 . S
C1669 H1683 0.958 . S
C1669 H1684 0.961 . S
C1669 H1685 0.960 . S
H1670 C1654 0.931 . S
H1671 C1659 0.929 . S
H1672 C1660 0.960 . S
H1673 C1660 0.962 . S
H1674 C1660 0.960 . S
H1675 C1661 0.961 . S
H1676 C1661 0.961 . S
H1677 C1661 0.961 . S
H1678 C1662 0.931 . S
H1679 C1667 0.930 . S
H1680 C1668 0.956 . S
H1681 C1668 0.961 . S
H1682 C1668 0.961 . S
H1683 C1669 0.958 . S
H1684 C1669 0.961 . S
H1685 C1669 0.960 . S
C1686 C1687 1.391 . S
C1686 C1688 1.394 . S
C1686 H1702 0.931 . S
C1687 C1686 1.391 . S
C1687 C1691 1.376 . S
C1688 C1686 1.394 . S
C1688 C1689 1.369 . S
C1688 C1692 1.531 . S
C1689 C1688 1.369 . S
C1689 C1690 1.410 . S
C1689 C1697 1.503 . S
C1690 C1689 1.410 . S
C1690 C1691 1.392 . S
C1690 C1693 1.511 . S
C1691 C1687 1.376 . S
C1691 C1690 1.392 . S
C1691 H1703 0.929 . S
C1692 C1688 1.531 . S
C1692 H1704 0.960 . S
C1692 H1705 0.962 . S
C1692 H1706 0.960 . S
C1693 C1690 1.511 . S
C1693 H1707 0.961 . S
C1693 H1708 0.961 . S
C1693 H1709 0.961 . S
C1694 C1695 1.370 . S
C1694 C1696 1.363 . S
C1694 H1710 0.931 . S
C1695 C1694 1.370 . S
C1695 C1699 1.408 . S
C1696 C1694 1.363 . S
C1696 C1697 1.370 . S
C1696 C1700 1.524 . S
C1697 C1689 1.503 . S
C1697 C1696 1.370 . S
C1697 C1698 1.403 . S
C1698 C1697 1.403 . S
C1698 C1699 1.404 . S
C1698 C1701 1.539 . S
C1699 C1695 1.408 . S
C1699 C1698 1.404 . S
C1699 H1711 0.930 . S
C1700 C1696 1.524 . S
C1700 H1712 0.956 . S
C1700 H1713 0.961 . S
C1700 H1714 0.961 . S
C1701 C1698 1.539 . S
C1701 H1715 0.958 . S
C1701 H1716 0.961 . S
C1701 H1717 0.960 . S
H1702 C1686 0.931 . S
H1703 C1691 0.929 . S
H1704 C1692 0.960 . S
H1705 C1692 0.962 . S
H1706 C1692 0.960 . S
H1707 C1693 0.961 . S
H1708 C1693 0.961 . S
H1709 C1693 0.961 . S
H1710 C1694 0.931 . S
H1711 C1699 0.930 . S
H1712 C1700 0.956 . S
H1713 C1700 0.961 . S
H1714 C1700 0.961 . S
H1715 C1701 0.958 . S
H1716 C1701 0.961 . S
H1717 C1701 0.960 . S
C1718 C1719 1.391 . S
C1718 C1720 1.394 . S
C1718 H1734 0.931 . S
C1719 C1718 1.391 . S
C1719 C1723 1.376 . S
C1720 C1718 1.394 . S
C1720 C1721 1.369 . S
C1720 C1724 1.531 . S
C1721 C1720 1.369 . S
C1721 C1722 1.410 . S
C1721 C1729 1.503 . S
C1722 C1721 1.410 . S
C1722 C1723 1.392 . S
C1722 C1725 1.511 . S
C1723 C1719 1.376 . S
C1723 C1722 1.392 . S
C1723 H1735 0.929 . S
C1724 C1720 1.531 . S
C1724 H1736 0.960 . S
C1724 H1737 0.962 . S
C1724 H1738 0.960 . S
C1725 C1722 1.511 . S
C1725 H1739 0.961 . S
C1725 H1740 0.961 . S
C1725 H1741 0.961 . S
C1726 C1727 1.370 . S
C1726 C1728 1.363 . S
C1726 H1742 0.931 . S
C1727 C1726 1.370 . S
C1727 C1731 1.408 . S
C1728 C1726 1.363 . S
C1728 C1729 1.370 . S
C1728 C1732 1.524 . S
C1729 C1721 1.503 . S
C1729 C1728 1.370 . S
C1729 C1730 1.403 . S
C1730 C1729 1.403 . S
C1730 C1731 1.404 . S
C1730 C1733 1.539 . S
C1731 C1727 1.408 . S
C1731 C1730 1.404 . S
C1731 H1743 0.930 . S
C1732 C1728 1.524 . S
C1732 H1744 0.956 . S
C1732 H1745 0.961 . S
C1732 H1746 0.961 . S
C1733 C1730 1.539 . S
C1733 H1747 0.958 . S
C1733 H1748 0.961 . S
C1733 H1749 0.960 . S
H1734 C1718 0.931 . S
H1735 C1723 0.929 . S
H1736 C1724 0.960 . S
H1737 C1724 0.962 . S
H1738 C1724 0.960 . S
H1739 C1725 0.961 . S
H1740 C1725 0.961 . S
H1741 C1725 0.961 . S
H1742 C1726 0.931 . S
H1743 C1731 0.930 . S
H1744 C1732 0.956 . S
H1745 C1732 0.961 . S
H1746 C1732 0.961 . S
H1747 C1733 0.958 . S
H1748 C1733 0.961 . S
H1749 C1733 0.960 . S
C1750 C1751 1.391 . S
C1750 C1752 1.394 . S
C1750 H1766 0.931 . S
C1751 C1750 1.391 . S
C1751 C1755 1.376 . S
C1752 C1750 1.394 . S
C1752 C1753 1.369 . S
C1752 C1756 1.531 . S
C1753 C1752 1.369 . S
C1753 C1754 1.410 . S
C1753 C1761 1.503 . S
C1754 C1753 1.410 . S
C1754 C1755 1.392 . S
C1754 C1757 1.511 . S
C1755 C1751 1.376 . S
C1755 C1754 1.392 . S
C1755 H1767 0.929 . S
C1756 C1752 1.531 . S
C1756 H1768 0.960 . S
C1756 H1769 0.962 . S
C1756 H1770 0.960 . S
C1757 C1754 1.511 . S
C1757 H1771 0.961 . S
C1757 H1772 0.961 . S
C1757 H1773 0.961 . S
C1758 C1759 1.370 . S
C1758 C1760 1.363 . S
C1758 H1774 0.931 . S
C1759 C1758 1.370 . S
C1759 C1763 1.408 . S
C1760 C1758 1.363 . S
C1760 C1761 1.370 . S
C1760 C1764 1.524 . S
C1761 C1753 1.503 . S
C1761 C1760 1.370 . S
C1761 C1762 1.403 . S
C1762 C1761 1.403 . S
C1762 C1763 1.404 . S
C1762 C1765 1.539 . S
C1763 C1759 1.408 . S
C1763 C1762 1.404 . S
C1763 H1775 0.930 . S
C1764 C1760 1.524 . S
C1764 H1776 0.956 . S
C1764 H1777 0.961 . S
C1764 H1778 0.961 . S
C1765 C1762 1.539 . S
C1765 H1779 0.958 . S
C1765 H1780 0.961 . S
C1765 H1781 0.960 . S
H1766 C1750 0.931 . S
H1767 C1755 0.929 . S
H1768 C1756 0.960 . S
H1769 C1756 0.962 . S
H1770 C1756 0.960 . S
H1771 C1757 0.961 . S
H1772 C1757 0.961 . S
H1773 C1757 0.961 . S
H1774 C1758 0.931 . S
H1775 C1763 0.930 . S
H1776 C1764 0.956 . S
H1777 C1764 0.961 . S
H1778 C1764 0.961 . S
H1779 C1765 0.958 . S
H1780 C1765 0.961 . S
H1781 C1765 0.960 . S
C1782 C1783 1.391 . S
C1782 C1784 1.394 . S
C1782 H1798 0.931 . S
C1783 C1782 1.391 . S
C1783 C1787 1.376 . S
C1784 C1782 1.394 . S
C1784 C1785 1.369 . S
C1784 C1788 1.531 . S
C1785 C1784 1.369 . S
C1785 C1786 1.410 . S
C1785 C1793 1.503 . S
C1786 C1785 1.410 . S
C1786 C1787 1.392 . S
C1786 C1789 1.511 . S
C1787 C1783 1.376 . S
C1787 C1786 1.392 . S
C1787 H1799 0.929 . S
C1788 C1784 1.531 . S
C1788 H1800 0.960 . S
C1788 H1801 0.962 . S
C1788 H1802 0.960 . S
C1789 C1786 1.511 . S
C1789 H1803 0.961 . S
C1789 H1804 0.961 . S
C1789 H1805 0.961 . S
C1790 C1791 1.370 . S
C1790 C1792 1.363 . S
C1790 H1806 0.931 . S
C1791 C1790 1.370 . S
C1791 C1795 1.408 . S
C1792 C1790 1.363 . S
C1792 C1793 1.370 . S
C1792 C1796 1.524 . S
C1793 C1785 1.503 . S
C1793 C1792 1.370 . S
C1793 C1794 1.403 . S
C1794 C1793 1.403 . S
C1794 C1795 1.404 . S
C1794 C1797 1.539 . S
C1795 C1791 1.408 . S
C1795 C1794 1.404 . S
C1795 H1807 0.930 . S
C1796 C1792 1.524 . S
C1796 H1808 0.956 . S
C1796 H1809 0.961 . S
C1796 H1810 0.961 . S
C1797 C1794 1.539 . S
C1797 H1811 0.958 . S
C1797 H1812 0.961 . S
C1797 H1813 0.960 . S
H1798 C1782 0.931 . S
H1799 C1787 0.929 . S
H1800 C1788 0.960 . S
H1801 C1788 0.962 . S
H1802 C1788 0.960 . S
H1803 C1789 0.961 . S
H1804 C1789 0.961 . S
H1805 C1789 0.961 . S
H1806 C1790 0.931 . S
H1807 C1795 0.930 . S
H1808 C1796 0.956 . S
H1809 C1796 0.961 . S
H1810 C1796 0.961 . S
H1811 C1797 0.958 . S
H1812 C1797 0.961 . S
H1813 C1797 0.960 . S
C1814 C1815 1.391 . S
C1814 C1816 1.394 . S
C1814 H1830 0.931 . S
C1815 C1814 1.391 . S
C1815 C1819 1.376 . S
C1816 C1814 1.394 . S
C1816 C1817 1.369 . S
C1816 C1820 1.531 . S
C1817 C1816 1.369 . S
C1817 C1818 1.410 . S
C1817 C1825 1.503 . S
C1818 C1817 1.410 . S
C1818 C1819 1.392 . S
C1818 C1821 1.511 . S
C1819 C1815 1.376 . S
C1819 C1818 1.392 . S
C1819 H1831 0.929 . S
C1820 C1816 1.531 . S
C1820 H1832 0.960 . S
C1820 H1833 0.962 . S
C1820 H1834 0.960 . S
C1821 C1818 1.511 . S
C1821 H1835 0.961 . S
C1821 H1836 0.961 . S
C1821 H1837 0.961 . S
C1822 C1823 1.370 . S
C1822 C1824 1.363 . S
C1822 H1838 0.931 . S
C1823 C1822 1.370 . S
C1823 C1827 1.408 . S
C1824 C1822 1.363 . S
C1824 C1825 1.370 . S
C1824 C1828 1.524 . S
C1825 C1817 1.503 . S
C1825 C1824 1.370 . S
C1825 C1826 1.403 . S
C1826 C1825 1.403 . S
C1826 C1827 1.404 . S
C1826 C1829 1.539 . S
C1827 C1823 1.408 . S
C1827 C1826 1.404 . S
C1827 H1839 0.930 . S
C1828 C1824 1.524 . S
C1828 H1840 0.956 . S
C1828 H1841 0.961 . S
C1828 H1842 0.961 . S
C1829 C1826 1.539 . S
C1829 H1843 0.958 . S
C1829 H1844 0.961 . S
C1829 H1845 0.960 . S
H1830 C1814 0.931 . S
H1831 C1819 0.929 . S
H1832 C1820 0.960 . S
H1833 C1820 0.962 . S
H1834 C1820 0.960 . S
H1835 C1821 0.961 . S
H1836 C1821 0.961 . S
H1837 C1821 0.961 . S
H1838 C1822 0.931 . S
H1839 C1827 0.930 . S
H1840 C1828 0.956 . S
H1841 C1828 0.961 . S
H1842 C1828 0.961 . S
H1843 C1829 0.958 . S
H1844 C1829 0.961 . S
H1845 C1829 0.960 . S
C1846 C1847 1.391 . S
C1846 C1848 1.394 . S
C1846 H1862 0.931 . S
C1847 C1846 1.391 . S
C1847 C1851 1.376 . S
C1848 C1846 1.394 . S
C1848 C1849 1.369 . S
C1848 C1852 1.531 . S
C1849 C1848 1.369 . S
C1849 C1850 1.410 . S
C1849 C1857 1.503 . S
C1850 C1849 1.410 . S
C1850 C1851 1.392 . S
C1850 C1853 1.511 . S
C1851 C1847 1.376 . S
C1851 C1850 1.392 . S
C1851 H1863 0.929 . S
C1852 C1848 1.531 . S
C1852 H1864 0.960 . S
C1852 H1865 0.962 . S
C1852 H1866 0.960 . S
C1853 C1850 1.511 . S
C1853 H1867 0.961 . S
C1853 H1868 0.961 . S
C1853 H1869 0.961 . S
C1854 C1855 1.370 . S
C1854 C1856 1.363 . S
C1854 H1870 0.931 . S
C1855 C1854 1.370 . S
C1855 C1859 1.408 . S
C1856 C1854 1.363 . S
C1856 C1857 1.370 . S
C1856 C1860 1.524 . S
C1857 C1849 1.503 . S
C1857 C1856 1.370 . S
C1857 C1858 1.403 . S
C1858 C1857 1.403 . S
C1858 C1859 1.404 . S
C1858 C1861 1.539 . S
C1859 C1855 1.408 . S
C1859 C1858 1.404 . S
C1859 H1871 0.930 . S
C1860 C1856 1.524 . S
C1860 H1872 0.956 . S
C1860 H1873 0.961 . S
C1860 H1874 0.961 . S
C1861 C1858 1.539 . S
C1861 H1875 0.958 . S
C1861 H1876 0.961 . S
C1861 H1877 0.960 . S
H1862 C1846 0.931 . S
H1863 C1851 0.929 . S
H1864 C1852 0.960 . S
H1865 C1852 0.962 . S
H1866 C1852 0.960 . S
H1867 C1853 0.961 . S
H1868 C1853 0.961 . S
H1869 C1853 0.961 . S
H1870 C1854 0.931 . S
H1871 C1859 0.930 . S
H1872 C1860 0.956 . S
H1873 C1860 0.961 . S
H1874 C1860 0.961 . S
H1875 C1861 0.958 . S
H1876 C1861 0.961 . S
H1877 C1861 0.960 . S
C1878 C1879 1.391 . S
C1878 C1880 1.394 . S
C1878 H1894 0.931 1_556 S
C1879 C1878 1.391 . S
C1879 C1883 1.376 . S
C1880 C1878 1.394 . S
C1880 C1881 1.369 . S
C1880 C1884 1.531 1_556 S
C1881 C1880 1.369 . S
C1881 C1882 1.410 . S
C1881 C1889 1.503 . S
C1882 C1881 1.410 . S
C1882 C1883 1.392 . S
C1882 C1885 1.511 . S
C1883 C1879 1.376 . S
C1883 C1882 1.392 . S
C1883 H1895 0.929 . S
C1884 C1880 1.531 1_554 S
C1884 H1896 0.960 1_554 S
C1884 H1897 0.961 1_554 S
C1884 H1898 0.960 . S
C1885 C1882 1.511 . S
C1885 H1899 0.961 . S
C1885 H1900 0.961 . S
C1885 H1901 0.961 . S
C1886 C1887 1.370 . S
C1886 C1888 1.363 . S
C1886 H1902 0.931 . S
C1887 C1886 1.370 . S
C1887 C1891 1.408 . S
C1888 C1886 1.363 . S
C1888 C1889 1.370 . S
C1888 C1892 1.524 . S
C1889 C1881 1.503 . S
C1889 C1888 1.370 . S
C1889 C1890 1.403 . S
C1890 C1889 1.403 . S
C1890 C1891 1.404 . S
C1890 C1893 1.539 . S
C1891 C1887 1.408 . S
C1891 C1890 1.404 . S
C1891 H1903 0.930 . S
C1892 C1888 1.524 . S
C1892 H1904 0.956 . S
C1892 H1905 0.961 . S
C1892 H1906 0.961 . S
C1893 C1890 1.539 . S
C1893 H1907 0.958 . S
C1893 H1908 0.961 . S
C1893 H1909 0.960 . S
H1894 C1878 0.931 1_554 S
H1895 C1883 0.929 . S
H1896 C1884 0.960 1_556 S
H1897 C1884 0.961 1_556 S
H1898 C1884 0.960 . S
H1899 C1885 0.961 . S
H1900 C1885 0.961 . S
H1901 C1885 0.961 . S
H1902 C1886 0.931 . S
H1903 C1891 0.930 . S
H1904 C1892 0.956 . S
H1905 C1892 0.961 . S
H1906 C1892 0.961 . S
H1907 C1893 0.958 . S
H1908 C1893 0.961 . S
H1909 C1893 0.960 . S
C1910 C1911 1.391 . S
C1910 C1912 1.394 . S
C1910 H1926 0.910 1_556 S
C1911 C1910 1.391 . S
C1911 C1915 1.376 . S
C1912 C1910 1.394 . S
C1912 C1913 1.369 . S
C1912 C1916 1.531 . S
C1913 C1912 1.369 . S
C1913 C1914 1.410 . S
C1913 C1921 1.503 . S
C1914 C1913 1.410 . S
C1914 C1915 1.392 . S
C1914 C1917 1.511 . S
C1915 C1911 1.376 . S
C1915 C1914 1.392 . S
C1915 H1927 0.929 . S
C1916 C1912 1.531 . S
C1916 H1928 0.960 . S
C1916 H1929 0.962 . S
C1916 H1930 0.960 1_556 S
C1917 C1914 1.511 . S
C1917 H1931 0.961 . S
C1917 H1932 0.961 . S
C1917 H1933 0.961 . S
C1918 C1919 1.370 . S
C1918 C1920 1.363 . S
C1918 H1934 0.931 . S
C1919 C1918 1.370 . S
C1919 C1923 1.408 . S
C1920 C1918 1.363 . S
C1920 C1921 1.370 . S
C1920 C1924 1.524 . S
C1921 C1913 1.503 . S
C1921 C1920 1.370 . S
C1921 C1922 1.403 . S
C1922 C1921 1.403 . S
C1922 C1923 1.404 . S
C1922 C1925 1.539 . S
C1923 C1919 1.408 . S
C1923 C1922 1.404 . S
C1923 H1935 0.930 . S
C1924 C1920 1.524 . S
C1924 H1936 0.956 . S
C1924 H1937 0.961 . S
C1924 H1938 0.961 . S
C1925 C1922 1.539 . S
C1925 H1939 0.958 1_556 S
C1925 H1940 0.961 . S
C1925 H1941 0.960 . S
H1926 C1910 0.910 1_554 S
H1927 C1915 0.929 . S
H1928 C1916 0.960 . S
H1929 C1916 0.962 . S
H1930 C1916 0.960 1_554 S
H1931 C1917 0.961 . S
H1932 C1917 0.961 . S
H1933 C1917 0.961 . S
H1934 C1918 0.931 . S
H1935 C1923 0.930 . S
H1936 C1924 0.956 . S
H1937 C1924 0.961 . S
H1938 C1924 0.961 . S
H1939 C1925 0.958 1_554 S
H1940 C1925 0.961 . S
H1941 C1925 0.960 . S
C1942 C1943 1.391 . S
C1942 C1944 1.394 . S
C1942 H1958 0.964 . S
C1943 C1942 1.391 . S
C1943 C1947 1.376 . S
C1944 C1942 1.394 . S
C1944 C1945 1.369 . S
C1944 C1948 1.531 . S
C1945 C1944 1.369 . S
C1945 C1946 1.410 . S
C1945 C1953 1.503 . S
C1946 C1945 1.410 . S
C1946 C1947 1.392 . S
C1946 C1949 1.511 . S
C1947 C1943 1.376 . S
C1947 C1946 1.392 . S
C1947 H1959 0.929 . S
C1948 C1944 1.531 . S
C1948 H1960 0.960 . S
C1948 H1961 0.962 . S
C1948 H1962 0.960 . S
C1949 C1946 1.511 . S
C1949 H1963 0.961 . S
C1949 H1964 0.961 . S
C1949 H1965 0.961 . S
C1950 C1951 1.370 . S
C1950 C1952 1.363 . S
C1950 H1966 0.931 . S
C1951 C1950 1.370 . S
C1951 C1955 1.408 . S
C1952 C1950 1.363 . S
C1952 C1953 1.370 . S
C1952 C1956 1.524 . S
C1953 C1945 1.503 . S
C1953 C1952 1.370 . S
C1953 C1954 1.403 . S
C1954 C1953 1.403 . S
C1954 C1955 1.404 . S
C1954 C1957 1.539 . S
C1955 C1951 1.408 . S
C1955 C1954 1.404 . S
C1955 H1967 0.930 . S
C1956 C1952 1.524 . S
C1956 H1968 0.956 . S
C1956 H1969 0.961 . S
C1956 H1970 0.961 . S
C1957 C1954 1.539 . S
C1957 H1971 0.958 . S
C1957 H1972 0.961 . S
C1957 H1973 0.960 . S
H1958 C1942 0.964 . S
H1959 C1947 0.929 . S
H1960 C1948 0.960 . S
H1961 C1948 0.962 . S
H1962 C1948 0.960 . S
H1963 C1949 0.961 . S
H1964 C1949 0.961 . S
H1965 C1949 0.961 . S
H1966 C1950 0.931 . S
H1967 C1955 0.930 . S
H1968 C1956 0.956 . S
H1969 C1956 0.961 . S
H1970 C1956 0.961 . S
H1971 C1957 0.958 . S
H1972 C1957 0.961 . S
H1973 C1957 0.960 . S
C1974 C1975 1.391 . S
C1974 C1976 1.394 . S
C1974 H1990 0.931 . S
C1975 C1974 1.391 . S
C1975 C1979 1.376 . S
C1976 C1974 1.394 . S
C1976 C1977 1.369 . S
C1976 C1980 1.531 . S
C1977 C1976 1.369 . S
C1977 C1978 1.410 . S
C1977 C1985 1.503 . S
C1978 C1977 1.410 . S
C1978 C1979 1.392 . S
C1978 C1981 1.511 . S
C1979 C1975 1.376 . S
C1979 C1978 1.392 . S
C1979 H1991 0.929 . S
C1980 C1976 1.531 . S
C1980 H1992 0.960 . S
C1980 H1993 0.962 . S
C1980 H1994 0.960 . S
C1981 C1978 1.511 . S
C1981 H1995 0.961 . S
C1981 H1996 0.961 . S
C1981 H1997 0.961 . S
C1982 C1983 1.370 . S
C1982 C1984 1.363 . S
C1982 H1998 0.931 . S
C1983 C1982 1.370 . S
C1983 C1987 1.408 . S
C1984 C1982 1.363 . S
C1984 C1985 1.370 . S
C1984 C1988 1.524 . S
C1985 C1977 1.503 . S
C1985 C1984 1.370 . S
C1985 C1986 1.403 . S
C1986 C1985 1.403 . S
C1986 C1987 1.404 . S
C1986 C1989 1.539 . S
C1987 C1983 1.408 . S
C1987 C1986 1.404 . S
C1987 H1999 0.930 . S
C1988 C1984 1.524 . S
C1988 H2000 0.956 . S
C1988 H2001 0.961 . S
C1988 H2002 0.961 . S
C1989 C1986 1.539 . S
C1989 H2003 0.958 . S
C1989 H2004 0.961 . S
C1989 H2005 0.960 . S
H1990 C1974 0.931 . S
H1991 C1979 0.929 . S
H1992 C1980 0.960 . S
H1993 C1980 0.962 . S
H1994 C1980 0.960 . S
H1995 C1981 0.961 . S
H1996 C1981 0.961 . S
H1997 C1981 0.961 . S
H1998 C1982 0.931 . S
H1999 C1987 0.930 . S
H2000 C1988 0.956 . S
H2001 C1988 0.961 . S
H2002 C1988 0.961 . S
H2003 C1989 0.958 . S
H2004 C1989 0.961 . S
H2005 C1989 0.960 . S
C2006 C2007 1.391 . S
C2006 C2008 1.394 . S
C2006 H2022 0.931 . S
C2007 C2006 1.391 . S
C2007 C2011 1.376 . S
C2008 C2006 1.394 . S
C2008 C2009 1.369 . S
C2008 C2012 1.531 . S
C2009 C2008 1.369 . S
C2009 C2010 1.410 . S
C2009 C2017 1.503 . S
C2010 C2009 1.410 . S
C2010 C2011 1.392 . S
C2010 C2013 1.511 . S
C2011 C2007 1.376 . S
C2011 C2010 1.392 . S
C2011 H2023 0.929 . S
C2012 C2008 1.531 . S
C2012 H2024 0.960 . S
C2012 H2025 0.962 . S
C2012 H2026 0.960 . S
C2013 C2010 1.511 . S
C2013 H2027 0.961 . S
C2013 H2028 0.961 . S
C2013 H2029 0.961 . S
C2014 C2015 1.370 . S
C2014 C2016 1.363 . S
C2014 H2030 0.931 . S
C2015 C2014 1.370 . S
C2015 C2019 1.408 . S
C2016 C2014 1.363 . S
C2016 C2017 1.370 . S
C2016 C2020 1.524 . S
C2017 C2009 1.503 . S
C2017 C2016 1.370 . S
C2017 C2018 1.403 . S
C2018 C2017 1.403 . S
C2018 C2019 1.404 . S
C2018 C2021 1.539 . S
C2019 C2015 1.408 . S
C2019 C2018 1.404 . S
C2019 H2031 0.930 . S
C2020 C2016 1.524 . S
C2020 H2032 0.956 . S
C2020 H2033 0.961 . S
C2020 H2034 0.961 . S
C2021 C2018 1.539 . S
C2021 H2035 0.958 . S
C2021 H2036 0.961 . S
C2021 H2037 0.960 . S
H2022 C2006 0.931 . S
H2023 C2011 0.929 . S
H2024 C2012 0.960 . S
H2025 C2012 0.962 . S
H2026 C2012 0.960 . S
H2027 C2013 0.961 . S
H2028 C2013 0.961 . S
H2029 C2013 0.961 . S
H2030 C2014 0.931 . S
H2031 C2019 0.930 . S
H2032 C2020 0.956 . S
H2033 C2020 0.961 . S
H2034 C2020 0.961 . S
H2035 C2021 0.958 . S
H2036 C2021 0.961 . S
H2037 C2021 0.960 . S
C2038 C2039 1.391 . S
C2038 C2040 1.394 . S
C2038 H2054 0.931 . S
C2039 C2038 1.391 . S
C2039 C2043 1.376 . S
C2040 C2038 1.394 . S
C2040 C2041 1.369 . S
C2040 C2044 1.531 . S
C2041 C2040 1.369 . S
C2041 C2042 1.410 . S
C2041 C2049 1.503 . S
C2042 C2041 1.410 . S
C2042 C2043 1.392 . S
C2042 C2045 1.511 1_556 S
C2043 C2039 1.376 . S
C2043 C2042 1.392 . S
C2043 H2055 0.929 1_556 S
C2044 C2040 1.531 . S
C2044 H2056 0.960 . S
C2044 H2057 0.962 . S
C2044 H2058 0.960 . S
C2045 C2042 1.511 1_554 S
C2045 H2059 0.961 . S
C2045 H2060 0.961 1_554 S
C2045 H2061 0.961 . S
C2046 C2047 1.370 . S
C2046 C2048 1.363 . S
C2046 H2062 0.931 . S
C2047 C2046 1.370 . S
C2047 C2051 1.408 . S
C2048 C2046 1.363 . S
C2048 C2049 1.370 . S
C2048 C2052 1.524 . S
C2049 C2041 1.503 . S
C2049 C2048 1.370 . S
C2049 C2050 1.403 . S
C2050 C2049 1.403 . S
C2050 C2051 1.404 . S
C2050 C2053 1.539 . S
C2051 C2047 1.408 . S
C2051 C2050 1.404 . S
C2051 H2063 0.930 . S
C2052 C2048 1.524 . S
C2052 H2064 0.956 . S
C2052 H2065 0.961 . S
C2052 H2066 0.961 . S
C2053 C2050 1.539 . S
C2053 H2067 0.958 . S
C2053 H2068 0.961 . S
C2053 H2069 0.960 . S
H2054 C2038 0.931 . S
H2055 C2043 0.929 1_554 S
H2056 C2044 0.960 . S
H2057 C2044 0.962 . S
H2058 C2044 0.960 . S
H2059 C2045 0.961 . S
H2060 C2045 0.961 1_556 S
H2061 C2045 0.961 . S
H2062 C2046 0.931 . S
H2063 C2051 0.930 . S
H2064 C2052 0.956 . S
H2065 C2052 0.961 . S
H2066 C2052 0.961 . S
H2067 C2053 0.958 . S
H2068 C2053 0.961 . S
H2069 C2053 0.960 . S
C2070 C2071 1.391 . S
C2070 C2072 1.394 . S
C2070 H2086 0.931 . S
C2071 C2070 1.391 . S
C2071 C2075 1.376 . S
C2072 C2070 1.394 . S
C2072 C2073 1.369 . S
C2072 C2076 1.531 . S
C2073 C2072 1.369 . S
C2073 C2074 1.410 . S
C2073 C2081 1.503 . S
C2074 C2073 1.410 . S
C2074 C2075 1.392 . S
C2074 C2077 1.511 . S
C2075 C2071 1.376 . S
C2075 C2074 1.392 . S
C2075 H2087 0.929 . S
C2076 C2072 1.531 . S
C2076 H2088 0.960 . S
C2076 H2089 0.962 . S
C2076 H2090 0.960 . S
C2077 C2074 1.511 . S
C2077 H2091 0.961 . S
C2077 H2092 0.961 . S
C2077 H2093 0.961 . S
C2078 C2079 1.370 . S
C2078 C2080 1.363 . S
C2078 H2094 0.931 . S
C2079 C2078 1.370 . S
C2079 C2083 1.408 . S
C2080 C2078 1.363 . S
C2080 C2081 1.370 . S
C2080 C2084 1.524 . S
C2081 C2073 1.503 . S
C2081 C2080 1.370 . S
C2081 C2082 1.403 . S
C2082 C2081 1.403 . S
C2082 C2083 1.404 . S
C2082 C2085 1.539 . S
C2083 C2079 1.408 . S
C2083 C2082 1.404 . S
C2083 H2095 0.930 . S
C2084 C2080 1.524 . S
C2084 H2096 0.956 . S
C2084 H2097 0.961 . S
C2084 H2098 0.961 . S
C2085 C2082 1.539 . S
C2085 H2099 0.958 . S
C2085 H2100 0.961 . S
C2085 H2101 0.960 . S
H2086 C2070 0.931 . S
H2087 C2075 0.929 . S
H2088 C2076 0.960 . S
H2089 C2076 0.962 . S
H2090 C2076 0.960 . S
H2091 C2077 0.961 . S
H2092 C2077 0.961 . S
H2093 C2077 0.961 . S
H2094 C2078 0.931 . S
H2095 C2083 0.930 . S
H2096 C2084 0.956 . S
H2097 C2084 0.961 . S
H2098 C2084 0.961 . S
H2099 C2085 0.958 . S
H2100 C2085 0.961 . S
H2101 C2085 0.960 . S
C2102 C2103 1.391 . S
C2102 C2104 1.394 . S
C2102 H2118 0.931 . S
C2103 C2102 1.391 . S
C2103 C2107 1.376 . S
C2104 C2102 1.394 . S
C2104 C2105 1.369 . S
C2104 C2108 1.531 . S
C2105 C2104 1.369 . S
C2105 C2106 1.410 . S
C2105 C2113 1.503 . S
C2106 C2105 1.410 . S
C2106 C2107 1.392 . S
C2106 C2109 1.511 . S
C2107 C2103 1.376 . S
C2107 C2106 1.392 . S
C2107 H2119 0.929 . S
C2108 C2104 1.531 . S
C2108 H2120 0.960 . S
C2108 H2121 0.962 . S
C2108 H2122 0.960 . S
C2109 C2106 1.511 . S
C2109 H2123 0.961 . S
C2109 H2124 0.961 . S
C2109 H2125 0.961 . S
C2110 C2111 1.370 . S
C2110 C2112 1.363 . S
C2110 H2126 0.931 . S
C2111 C2110 1.370 . S
C2111 C2115 1.408 . S
C2112 C2110 1.363 . S
C2112 C2113 1.370 . S
C2112 C2116 1.524 . S
C2113 C2105 1.503 . S
C2113 C2112 1.370 . S
C2113 C2114 1.403 . S
C2114 C2113 1.403 . S
C2114 C2115 1.404 . S
C2114 C2117 1.539 . S
C2115 C2111 1.408 . S
C2115 C2114 1.404 . S
C2115 H2127 0.930 . S
C2116 C2112 1.524 . S
C2116 H2128 0.956 . S
C2116 H2129 0.961 . S
C2116 H2130 0.961 . S
C2117 C2114 1.539 . S
C2117 H2131 0.958 . S
C2117 H2132 0.961 . S
C2117 H2133 0.960 . S
H2118 C2102 0.931 . S
H2119 C2107 0.929 . S
H2120 C2108 0.960 . S
H2121 C2108 0.962 . S
H2122 C2108 0.960 . S
H2123 C2109 0.961 . S
H2124 C2109 0.961 . S
H2125 C2109 0.961 . S
H2126 C2110 0.931 . S
H2127 C2115 0.930 . S
H2128 C2116 0.956 . S
H2129 C2116 0.961 . S
H2130 C2116 0.961 . S
H2131 C2117 0.958 . S
H2132 C2117 0.961 . S
H2133 C2117 0.960 . S
C2134 C2135 1.391 . S
C2134 C2136 1.394 . S
C2134 H2150 0.931 . S
C2135 C2134 1.391 . S
C2135 C2139 1.376 . S
C2136 C2134 1.394 . S
C2136 C2137 1.369 . S
C2136 C2140 1.531 . S
C2137 C2136 1.369 . S
C2137 C2138 1.410 . S
C2137 C2145 1.503 . S
C2138 C2137 1.410 . S
C2138 C2139 1.392 . S
C2138 C2141 1.511 . S
C2139 C2135 1.376 . S
C2139 C2138 1.392 . S
C2139 H2151 0.929 . S
C2140 C2136 1.531 . S
C2140 H2152 0.960 . S
C2140 H2153 0.962 . S
C2140 H2154 0.960 . S
C2141 C2138 1.511 . S
C2141 H2155 0.961 . S
C2141 H2156 0.961 . S
C2141 H2157 0.961 . S
C2142 C2143 1.370 . S
C2142 C2144 1.363 . S
C2142 H2158 0.931 . S
C2143 C2142 1.370 . S
C2143 C2147 1.408 . S
C2144 C2142 1.363 . S
C2144 C2145 1.370 . S
C2144 C2148 1.524 . S
C2145 C2137 1.503 . S
C2145 C2144 1.370 . S
C2145 C2146 1.403 . S
C2146 C2145 1.403 . S
C2146 C2147 1.404 . S
C2146 C2149 1.539 . S
C2147 C2143 1.408 . S
C2147 C2146 1.404 . S
C2147 H2159 0.930 . S
C2148 C2144 1.524 . S
C2148 H2160 0.956 . S
C2148 H2161 0.961 . S
C2148 H2162 0.961 . S
C2149 C2146 1.539 . S
C2149 H2163 0.958 . S
C2149 H2164 0.961 . S
C2149 H2165 0.960 . S
H2150 C2134 0.931 . S
H2151 C2139 0.929 . S
H2152 C2140 0.960 . S
H2153 C2140 0.962 . S
H2154 C2140 0.960 . S
H2155 C2141 0.961 . S
H2156 C2141 0.961 . S
H2157 C2141 0.961 . S
H2158 C2142 0.931 . S
H2159 C2147 0.930 . S
H2160 C2148 0.956 . S
H2161 C2148 0.961 . S
H2162 C2148 0.961 . S
H2163 C2149 0.958 . S
H2164 C2149 0.961 . S
H2165 C2149 0.960 . S
C2166 C2167 1.391 . S
C2166 C2168 1.394 . S
C2166 H2182 0.931 . S
C2167 C2166 1.391 . S
C2167 C2171 1.376 . S
C2168 C2166 1.394 . S
C2168 C2169 1.369 . S
C2168 C2172 1.531 . S
C2169 C2168 1.369 . S
C2169 C2170 1.410 . S
C2169 C2177 1.503 . S
C2170 C2169 1.410 . S
C2170 C2171 1.392 . S
C2170 C2173 1.511 . S
C2171 C2167 1.376 . S
C2171 C2170 1.392 . S
C2171 H2183 0.929 . S
C2172 C2168 1.531 . S
C2172 H2184 0.960 . S
C2172 H2185 0.962 . S
C2172 H2186 0.960 . S
C2173 C2170 1.511 . S
C2173 H2187 0.961 . S
C2173 H2188 0.961 . S
C2173 H2189 0.961 . S
C2174 C2175 1.370 . S
C2174 C2176 1.363 . S
C2174 H2190 0.931 . S
C2175 C2174 1.370 . S
C2175 C2179 1.408 . S
C2176 C2174 1.363 . S
C2176 C2177 1.370 . S
C2176 C2180 1.524 . S
C2177 C2169 1.503 . S
C2177 C2176 1.370 . S
C2177 C2178 1.403 . S
C2178 C2177 1.403 . S
C2178 C2179 1.404 . S
C2178 C2181 1.539 . S
C2179 C2175 1.408 . S
C2179 C2178 1.404 . S
C2179 H2191 0.930 . S
C2180 C2176 1.524 . S
C2180 H2192 0.956 . S
C2180 H2193 0.961 . S
C2180 H2194 0.961 . S
C2181 C2178 1.539 . S
C2181 H2195 0.958 . S
C2181 H2196 0.961 . S
C2181 H2197 0.960 . S
H2182 C2166 0.931 . S
H2183 C2171 0.929 . S
H2184 C2172 0.960 . S
H2185 C2172 0.962 . S
H2186 C2172 0.960 . S
H2187 C2173 0.961 . S
H2188 C2173 0.961 . S
H2189 C2173 0.961 . S
H2190 C2174 0.931 . S
H2191 C2179 0.930 . S
H2192 C2180 0.956 . S
H2193 C2180 0.961 . S
H2194 C2180 0.961 . S
H2195 C2181 0.958 . S
H2196 C2181 0.961 . S
H2197 C2181 0.960 . S
C2198 C2199 1.391 . S
C2198 C2200 1.394 . S
C2198 H2214 0.931 . S
C2199 C2198 1.391 . S
C2199 C2203 1.376 . S
C2200 C2198 1.394 . S
C2200 C2201 1.369 . S
C2200 C2204 1.531 . S
C2201 C2200 1.369 . S
C2201 C2202 1.410 . S
C2201 C2209 1.503 . S
C2202 C2201 1.410 . S
C2202 C2203 1.392 . S
C2202 C2205 1.511 . S
C2203 C2199 1.376 . S
C2203 C2202 1.392 . S
C2203 H2215 0.929 . S
C2204 C2200 1.531 . S
C2204 H2216 0.960 . S
C2204 H2217 0.962 . S
C2204 H2218 0.960 . S
C2205 C2202 1.511 . S
C2205 H2219 0.961 . S
C2205 H2220 0.961 . S
C2205 H2221 0.961 . S
C2206 C2207 1.370 . S
C2206 C2208 1.363 . S
C2206 H2222 0.931 . S
C2207 C2206 1.370 . S
C2207 C2211 1.408 . S
C2208 C2206 1.363 . S
C2208 C2209 1.370 . S
C2208 C2212 1.524 . S
C2209 C2201 1.503 . S
C2209 C2208 1.370 . S
C2209 C2210 1.403 . S
C2210 C2209 1.403 . S
C2210 C2211 1.404 . S
C2210 C2213 1.539 . S
C2211 C2207 1.408 . S
C2211 C2210 1.404 . S
C2211 H2223 0.930 . S
C2212 C2208 1.524 . S
C2212 H2224 0.956 . S
C2212 H2225 0.961 . S
C2212 H2226 0.961 . S
C2213 C2210 1.539 . S
C2213 H2227 0.958 . S
C2213 H2228 0.961 . S
C2213 H2229 0.960 . S
H2214 C2198 0.931 . S
H2215 C2203 0.929 . S
H2216 C2204 0.960 . S
H2217 C2204 0.962 . S
H2218 C2204 0.960 . S
H2219 C2205 0.961 . S
H2220 C2205 0.961 . S
H2221 C2205 0.961 . S
H2222 C2206 0.931 . S
H2223 C2211 0.930 . S
H2224 C2212 0.956 . S
H2225 C2212 0.961 . S
H2226 C2212 0.961 . S
H2227 C2213 0.958 . S
H2228 C2213 0.961 . S
H2229 C2213 0.960 . S
C2230 C2231 1.391 . S
C2230 C2232 1.394 . S
C2230 H2246 0.931 . S
C2231 C2230 1.391 . S
C2231 C2235 1.376 . S
C2232 C2230 1.394 . S
C2232 C2233 1.369 . S
C2232 C2236 1.531 . S
C2233 C2232 1.369 . S
C2233 C2234 1.410 . S
C2233 C2241 1.503 . S
C2234 C2233 1.410 . S
C2234 C2235 1.392 . S
C2234 C2237 1.511 . S
C2235 C2231 1.376 . S
C2235 C2234 1.392 . S
C2235 H2247 0.929 . S
C2236 C2232 1.531 . S
C2236 H2248 0.960 . S
C2236 H2249 0.962 . S
C2236 H2250 0.960 . S
C2237 C2234 1.511 . S
C2237 H2251 0.961 . S
C2237 H2252 0.961 . S
C2237 H2253 0.961 . S
C2238 C2239 1.370 . S
C2238 C2240 1.363 . S
C2238 H2254 0.931 . S
C2239 C2238 1.370 . S
C2239 C2243 1.408 . S
C2240 C2238 1.363 . S
C2240 C2241 1.370 . S
C2240 C2244 1.524 . S
C2241 C2233 1.503 . S
C2241 C2240 1.370 . S
C2241 C2242 1.403 . S
C2242 C2241 1.403 . S
C2242 C2243 1.404 . S
C2242 C2245 1.539 . S
C2243 C2239 1.408 . S
C2243 C2242 1.404 . S
C2243 H2255 0.930 . S
C2244 C2240 1.524 . S
C2244 H2256 0.956 . S
C2244 H2257 0.961 . S
C2244 H2258 0.961 . S
C2245 C2242 1.539 . S
C2245 H2259 0.958 . S
C2245 H2260 0.961 . S
C2245 H2261 0.960 . S
H2246 C2230 0.931 . S
H2247 C2235 0.929 . S
H2248 C2236 0.960 . S
H2249 C2236 0.962 . S
H2250 C2236 0.960 . S
H2251 C2237 0.961 . S
H2252 C2237 0.961 . S
H2253 C2237 0.961 . S
H2254 C2238 0.931 . S
H2255 C2243 0.930 . S
H2256 C2244 0.956 . S
H2257 C2244 0.961 . S
H2258 C2244 0.961 . S
H2259 C2245 0.958 . S
H2260 C2245 0.961 . S
H2261 C2245 0.960 . S
C2262 C2263 1.391 1_655 S
C2262 C2264 1.394 . S
C2262 H2278 0.931 . S
C2263 C2262 1.391 1_455 S
C2263 C2267 1.376 . S
C2264 C2262 1.394 . S
C2264 C2265 1.369 1_655 S
C2264 C2268 1.531 . S
C2265 C2264 1.369 1_455 S
C2265 C2266 1.410 . S
C2265 C2273 1.503 . S
C2266 C2265 1.410 . S
C2266 C2267 1.392 . S
C2266 C2269 1.511 . S
C2267 C2263 1.376 . S
C2267 C2266 1.392 . S
C2267 H2279 0.929 . S
C2268 C2264 1.531 . S
C2268 H2280 0.960 . S
C2268 H2281 0.962 . S
C2268 H2282 0.960 . S
C2269 C2266 1.511 . S
C2269 H2283 0.961 . S
C2269 H2284 0.961 . S
C2269 H2285 0.961 . S
C2270 C2271 1.369 . S
C2270 C2272 1.365 . S
C2270 H2286 0.930 1_455 S
C2271 C2270 1.369 . S
C2271 C2275 1.408 . S
C2272 C2270 1.365 . S
C2272 C2273 1.370 . S
C2272 C2276 1.524 1_455 S
C2273 C2265 1.503 . S
C2273 C2272 1.370 . S
C2273 C2274 1.403 . S
C2274 C2273 1.403 . S
C2274 C2275 1.404 . S
C2274 C2277 1.539 . S
C2275 C2271 1.408 . S
C2275 C2274 1.404 . S
C2275 H2287 0.930 . S
C2276 C2272 1.524 1_655 S
C2276 H2288 0.956 . S
C2276 H2289 0.961 1_655 S
C2276 H2290 0.961 . S
C2277 C2274 1.539 . S
C2277 H2291 0.958 . S
C2277 H2292 0.961 . S
C2277 H2293 0.960 . S
H2278 C2262 0.931 . S
H2279 C2267 0.929 . S
H2280 C2268 0.960 . S
H2281 C2268 0.962 . S
H2282 C2268 0.960 . S
H2283 C2269 0.961 . S
H2284 C2269 0.961 . S
H2285 C2269 0.961 . S
H2286 C2270 0.930 1_655 S
H2287 C2275 0.930 . S
H2288 C2276 0.956 . S
H2289 C2276 0.961 1_455 S
H2290 C2276 0.961 . S
H2291 C2277 0.958 . S
H2292 C2277 0.961 . S
H2293 C2277 0.960 . S
C2294 C2295 1.391 . S
C2294 C2296 1.394 . S
C2294 H2310 0.931 . S
C2295 C2294 1.391 . S
C2295 C2299 1.376 . S
C2296 C2294 1.394 . S
C2296 C2297 1.369 . S
C2296 C2300 1.531 . S
C2297 C2296 1.369 . S
C2297 C2298 1.410 . S
C2297 C2305 1.503 . S
C2298 C2297 1.410 . S
C2298 C2299 1.392 . S
C2298 C2301 1.511 . S
C2299 C2295 1.376 . S
C2299 C2298 1.392 . S
C2299 H2311 0.929 . S
C2300 C2296 1.531 . S
C2300 H2312 0.960 . S
C2300 H2313 0.962 . S
C2300 H2314 0.960 . S
C2301 C2298 1.511 . S
C2301 H2315 0.961 . S
C2301 H2316 0.961 . S
C2301 H2317 0.961 . S
C2302 C2303 1.370 . S
C2302 C2304 1.363 . S
C2302 H2318 0.931 . S
C2303 C2302 1.370 . S
C2303 C2307 1.408 . S
C2304 C2302 1.363 . S
C2304 C2305 1.370 . S
C2304 C2308 1.524 . S
C2305 C2297 1.503 . S
C2305 C2304 1.370 . S
C2305 C2306 1.403 . S
C2306 C2305 1.403 . S
C2306 C2307 1.404 . S
C2306 C2309 1.539 . S
C2307 C2303 1.408 . S
C2307 C2306 1.404 . S
C2307 H2319 0.930 . S
C2308 C2304 1.524 . S
C2308 H2320 0.956 . S
C2308 H2321 0.961 . S
C2308 H2322 0.961 . S
C2309 C2306 1.539 . S
C2309 H2323 0.958 . S
C2309 H2324 0.961 . S
C2309 H2325 0.960 . S
H2310 C2294 0.931 . S
H2311 C2299 0.929 . S
H2312 C2300 0.960 . S
H2313 C2300 0.962 . S
H2314 C2300 0.960 . S
H2315 C2301 0.961 . S
H2316 C2301 0.961 . S
H2317 C2301 0.961 . S
H2318 C2302 0.931 . S
H2319 C2307 0.930 . S
H2320 C2308 0.956 . S
H2321 C2308 0.961 . S
H2322 C2308 0.961 . S
H2323 C2309 0.958 . S
H2324 C2309 0.961 . S
H2325 C2309 0.960 . S
C2326 C2327 1.391 . S
C2326 C2328 1.394 . S
C2326 H2342 0.931 . S
C2327 C2326 1.391 . S
C2327 C2331 1.376 1_565 S
C2328 C2326 1.394 . S
C2328 C2329 1.369 . S
C2328 C2332 1.531 . S
C2329 C2328 1.369 . S
C2329 C2330 1.410 1_565 S
C2329 C2337 1.503 . S
C2330 C2329 1.410 1_545 S
C2330 C2331 1.392 . S
C2330 C2333 1.511 . S
C2331 C2327 1.376 1_545 S
C2331 C2330 1.392 . S
C2331 H2343 0.929 . S
C2332 C2328 1.531 . S
C2332 H2344 0.960 . S
C2332 H2345 0.962 . S
C2332 H2346 0.960 . S
C2333 C2330 1.511 . S
C2333 H2347 0.961 . S
C2333 H2348 0.961 . S
C2333 H2349 0.961 . S
C2334 C2335 1.370 . S
C2334 C2336 1.363 . S
C2334 H2350 0.931 . S
C2335 C2334 1.370 . S
C2335 C2339 1.408 . S
C2336 C2334 1.363 . S
C2336 C2337 1.370 . S
C2336 C2340 1.524 . S
C2337 C2329 1.503 . S
C2337 C2336 1.370 . S
C2337 C2338 1.403 . S
C2338 C2337 1.403 . S
C2338 C2339 1.404 . S
C2338 C2341 1.539 . S
C2339 C2335 1.408 . S
C2339 C2338 1.404 . S
C2339 H2351 0.930 . S
C2340 C2336 1.524 . S
C2340 H2352 0.956 . S
C2340 H2353 0.961 1_565 S
C2340 H2354 0.961 . S
C2341 C2338 1.539 . S
C2341 H2355 0.958 . S
C2341 H2356 0.961 1_565 S
C2341 H2357 0.960 1_565 S
H2342 C2326 0.931 . S
H2343 C2331 0.929 . S
H2344 C2332 0.960 . S
H2345 C2332 0.962 . S
H2346 C2332 0.960 . S
H2347 C2333 0.961 . S
H2348 C2333 0.961 . S
H2349 C2333 0.961 . S
H2350 C2334 0.931 . S
H2351 C2339 0.930 . S
H2352 C2340 0.956 . S
H2353 C2340 0.961 1_545 S
H2354 C2340 0.961 . S
H2355 C2341 0.958 . S
H2356 C2341 0.961 1_545 S
H2357 C2341 0.960 1_545 S
C2358 C2359 1.391 1_545 S
C2358 C2360 1.394 . S
C2358 H2374 0.931 . S
C2359 C2358 1.391 1_565 S
C2359 C2363 1.376 . S
C2360 C2358 1.394 . S
C2360 C2361 1.369 1_545 S
C2360 C2364 1.531 . S
C2361 C2360 1.369 1_565 S
C2361 C2362 1.410 . S
C2361 C2369 1.503 . S
C2362 C2361 1.410 . S
C2362 C2363 1.392 . S
C2362 C2365 1.511 . S
C2363 C2359 1.376 . S
C2363 C2362 1.392 . S
C2363 H2375 0.929 . S
C2364 C2360 1.531 . S
C2364 H2376 0.960 . S
C2364 H2377 0.962 . S
C2364 H2378 0.960 . S
C2365 C2362 1.511 . S
C2365 H2379 0.961 . S
C2365 H2380 0.961 . S
C2365 H2381 0.961 . S
C2366 C2367 1.412 . S
C2366 C2368 1.363 . S
C2366 H2382 0.931 . S
C2367 C2366 1.412 . S
C2367 C2371 1.401 1_565 S
C2368 C2366 1.363 . S
C2368 C2369 1.370 . S
C2368 C2372 1.524 . S
C2369 C2361 1.503 . S
C2369 C2368 1.370 . S
C2369 C2370 1.403 1_565 S
C2370 C2369 1.403 1_545 S
C2370 C2371 1.404 . S
C2370 C2373 1.539 . S
C2371 C2367 1.401 1_545 S
C2371 C2370 1.404 . S
C2371 H2383 0.930 . S
C2372 C2368 1.524 . S
C2372 H2384 0.956 . S
C2372 H2385 0.961 . S
C2372 H2386 0.961 . S
C2373 C2370 1.539 . S
C2373 H2387 0.958 . S
C2373 H2388 0.961 . S
C2373 H2389 0.960 . S
H2374 C2358 0.931 . S
H2375 C2363 0.929 . S
H2376 C2364 0.960 . S
H2377 C2364 0.962 . S
H2378 C2364 0.960 . S
H2379 C2365 0.961 . S
H2380 C2365 0.961 . S
H2381 C2365 0.961 . S
H2382 C2366 0.931 . S
H2383 C2371 0.930 . S
H2384 C2372 0.956 . S
H2385 C2372 0.961 . S
H2386 C2372 0.961 . S
H2387 C2373 0.958 . S
H2388 C2373 0.961 . S
H2389 C2373 0.960 . S
C2390 C2391 1.391 1_655 S
C2390 C2392 1.394 . S
C2390 H2406 0.931 . S
C2391 C2390 1.391 1_455 S
C2391 C2395 1.376 . S
C2392 C2390 1.394 . S
C2392 C2393 1.337 1_655 S
C2392 C2396 1.531 . S
C2393 C2392 1.337 1_455 S
C2393 C2394 1.419 . S
C2393 C2401 1.513 . S
C2394 C2393 1.419 . S
C2394 C2395 1.392 . S
C2394 C2397 1.511 . S
C2395 C2391 1.376 . S
C2395 C2394 1.392 . S
C2395 H2407 0.929 . S
C2396 C2392 1.531 . S
C2396 H2408 0.960 . S
C2396 H2409 0.962 . S
C2396 H2410 0.960 . S
C2397 C2394 1.511 . S
C2397 H2411 0.961 . S
C2397 H2412 0.961 . S
C2397 H2413 0.961 . S
C2398 C2399 1.380 . S
C2398 C2400 1.363 . S
C2398 H2414 0.931 . S
C2399 C2398 1.380 . S
C2399 C2403 1.388 1_455 S
C2400 C2398 1.363 . S
C2400 C2401 1.411 . S
C2400 C2404 1.524 . S
C2401 C2393 1.513 . S
C2401 C2400 1.411 . S
C2401 C2402 1.383 1_455 S
C2402 C2401 1.383 1_655 S
C2402 C2403 1.404 . S
C2402 C2405 1.539 . S
C2403 C2399 1.388 1_655 S
C2403 C2402 1.404 . S
C2403 H2415 0.930 . S
C2404 C2400 1.524 . S
C2404 H2416 0.956 . S
C2404 H2417 0.961 . S
C2404 H2418 0.961 . S
C2405 C2402 1.539 . S
C2405 H2419 0.958 . S
C2405 H2420 0.961 . S
C2405 H2421 0.960 . S
H2406 C2390 0.931 . S
H2407 C2395 0.929 . S
H2408 C2396 0.960 . S
H2409 C2396 0.962 . S
H2410 C2396 0.960 . S
H2411 C2397 0.961 . S
H2412 C2397 0.961 . S
H2413 C2397 0.961 . S
H2414 C2398 0.931 . S
H2415 C2403 0.930 . S
H2416 C2404 0.956 . S
H2417 C2404 0.961 . S
H2418 C2404 0.961 . S
H2419 C2405 0.958 . S
H2420 C2405 0.961 . S
H2421 C2405 0.960 . S
C2422 C2423 1.391 . S
C2422 C2424 1.394 . S
C2422 H2438 0.931 . S
C2423 C2422 1.391 . S
C2423 C2427 1.376 . S
C2424 C2422 1.394 . S
C2424 C2425 1.369 . S
C2424 C2428 1.531 . S
C2425 C2424 1.369 . S
C2425 C2426 1.410 . S
C2425 C2433 1.503 . S
C2426 C2425 1.410 . S
C2426 C2427 1.392 . S
C2426 C2429 1.511 . S
C2427 C2423 1.376 . S
C2427 C2426 1.392 . S
C2427 H2439 0.929 . S
C2428 C2424 1.531 . S
C2428 H2440 0.960 . S
C2428 H2441 0.962 . S
C2428 H2442 0.960 . S
C2429 C2426 1.511 . S
C2429 H2443 0.961 . S
C2429 H2444 0.961 . S
C2429 H2445 0.961 . S
C2430 C2431 1.370 . S
C2430 C2432 1.363 . S
C2430 H2446 0.931 . S
C2431 C2430 1.370 . S
C2431 C2435 1.408 . S
C2432 C2430 1.363 . S
C2432 C2433 1.370 . S
C2432 C2436 1.524 . S
C2433 C2425 1.503 . S
C2433 C2432 1.370 . S
C2433 C2434 1.403 . S
C2434 C2433 1.403 . S
C2434 C2435 1.404 . S
C2434 C2437 1.539 . S
C2435 C2431 1.408 . S
C2435 C2434 1.404 . S
C2435 H2447 0.930 . S
C2436 C2432 1.524 . S
C2436 H2448 0.956 . S
C2436 H2449 0.961 . S
C2436 H2450 0.961 . S
C2437 C2434 1.539 . S
C2437 H2451 0.958 . S
C2437 H2452 0.961 . S
C2437 H2453 0.960 . S
H2438 C2422 0.931 . S
H2439 C2427 0.929 . S
H2440 C2428 0.960 . S
H2441 C2428 0.962 . S
H2442 C2428 0.960 . S
H2443 C2429 0.961 . S
H2444 C2429 0.961 . S
H2445 C2429 0.961 . S
H2446 C2430 0.931 . S
H2447 C2435 0.930 . S
H2448 C2436 0.956 . S
H2449 C2436 0.961 . S
H2450 C2436 0.961 . S
H2451 C2437 0.958 . S
H2452 C2437 0.961 . S
H2453 C2437 0.960 . S
C2454 C2455 1.391 . S
C2454 C2456 1.394 . S
C2454 H2470 0.931 . S
C2455 C2454 1.391 . S
C2455 C2459 1.376 . S
C2456 C2454 1.394 . S
C2456 C2457 1.369 . S
C2456 C2460 1.531 . S
C2457 C2456 1.369 . S
C2457 C2458 1.410 . S
C2457 C2465 1.503 . S
C2458 C2457 1.410 . S
C2458 C2459 1.392 . S
C2458 C2461 1.511 . S
C2459 C2455 1.376 . S
C2459 C2458 1.392 . S
C2459 H2471 0.929 . S
C2460 C2456 1.531 . S
C2460 H2472 0.960 . S
C2460 H2473 0.962 . S
C2460 H2474 0.960 . S
C2461 C2458 1.511 . S
C2461 H2475 0.961 . S
C2461 H2476 0.961 . S
C2461 H2477 0.961 . S
C2462 C2463 1.370 . S
C2462 C2464 1.363 . S
C2462 H2478 0.931 . S
C2463 C2462 1.370 . S
C2463 C2467 1.408 . S
C2464 C2462 1.363 . S
C2464 C2465 1.370 . S
C2464 C2468 1.524 . S
C2465 C2457 1.503 . S
C2465 C2464 1.370 . S
C2465 C2466 1.403 . S
C2466 C2465 1.403 . S
C2466 C2467 1.404 . S
C2466 C2469 1.539 . S
C2467 C2463 1.408 . S
C2467 C2466 1.404 . S
C2467 H2479 0.930 . S
C2468 C2464 1.524 . S
C2468 H2480 0.956 . S
C2468 H2481 0.961 . S
C2468 H2482 0.961 . S
C2469 C2466 1.539 . S
C2469 H2483 0.958 . S
C2469 H2484 0.961 . S
C2469 H2485 0.960 . S
H2470 C2454 0.931 . S
H2471 C2459 0.929 . S
H2472 C2460 0.960 . S
H2473 C2460 0.962 . S
H2474 C2460 0.960 . S
H2475 C2461 0.961 . S
H2476 C2461 0.961 . S
H2477 C2461 0.961 . S
H2478 C2462 0.931 . S
H2479 C2467 0.930 . S
H2480 C2468 0.956 . S
H2481 C2468 0.961 . S
H2482 C2468 0.961 . S
H2483 C2469 0.958 . S
H2484 C2469 0.961 . S
H2485 C2469 0.960 . S
C2486 C2487 1.391 . S
C2486 C2488 1.394 . S
C2486 H2502 0.931 . S
C2487 C2486 1.391 . S
C2487 C2491 1.376 . S
C2488 C2486 1.394 . S
C2488 C2489 1.369 . S
C2488 C2492 1.531 . S
C2489 C2488 1.369 . S
C2489 C2490 1.410 . S
C2489 C2497 1.503 . S
C2490 C2489 1.410 . S
C2490 C2491 1.392 . S
C2490 C2493 1.511 . S
C2491 C2487 1.376 . S
C2491 C2490 1.392 . S
C2491 H2503 0.929 . S
C2492 C2488 1.531 . S
C2492 H2504 0.960 . S
C2492 H2505 0.962 . S
C2492 H2506 0.960 . S
C2493 C2490 1.511 . S
C2493 H2507 0.961 . S
C2493 H2508 0.961 . S
C2493 H2509 0.961 . S
C2494 C2495 1.370 . S
C2494 C2496 1.363 . S
C2494 H2510 0.931 . S
C2495 C2494 1.370 . S
C2495 C2499 1.408 . S
C2496 C2494 1.363 . S
C2496 C2497 1.370 . S
C2496 C2500 1.524 . S
C2497 C2489 1.503 . S
C2497 C2496 1.370 . S
C2497 C2498 1.403 . S
C2498 C2497 1.403 . S
C2498 C2499 1.404 . S
C2498 C2501 1.539 . S
C2499 C2495 1.408 . S
C2499 C2498 1.404 . S
C2499 H2511 0.930 . S
C2500 C2496 1.524 . S
C2500 H2512 0.956 . S
C2500 H2513 0.961 . S
C2500 H2514 0.961 . S
C2501 C2498 1.539 . S
C2501 H2515 0.958 . S
C2501 H2516 0.961 . S
C2501 H2517 0.960 . S
H2502 C2486 0.931 . S
H2503 C2491 0.929 . S
H2504 C2492 0.960 . S
H2505 C2492 0.962 . S
H2506 C2492 0.960 . S
H2507 C2493 0.961 . S
H2508 C2493 0.961 . S
H2509 C2493 0.961 . S
H2510 C2494 0.931 . S
H2511 C2499 0.930 . S
H2512 C2500 0.956 . S
H2513 C2500 0.961 . S
H2514 C2500 0.961 . S
H2515 C2501 0.958 . S
H2516 C2501 0.961 . S
H2517 C2501 0.960 . S
C2518 C2519 1.391 . S
C2518 C2520 1.394 . S
C2518 H2534 0.931 . S
C2519 C2518 1.391 . S
C2519 C2523 1.376 . S
C2520 C2518 1.394 . S
C2520 C2521 1.369 . S
C2520 C2524 1.531 . S
C2521 C2520 1.369 . S
C2521 C2522 1.410 . S
C2521 C2529 1.503 . S
C2522 C2521 1.410 . S
C2522 C2523 1.392 . S
C2522 C2525 1.511 . S
C2523 C2519 1.376 . S
C2523 C2522 1.392 . S
C2523 H2535 0.929 . S
C2524 C2520 1.531 . S
C2524 H2536 0.960 . S
C2524 H2537 0.962 . S
C2524 H2538 0.960 . S
C2525 C2522 1.511 . S
C2525 H2539 0.961 . S
C2525 H2540 0.961 . S
C2525 H2541 0.961 . S
C2526 C2527 1.370 . S
C2526 C2528 1.363 . S
C2526 H2542 0.931 . S
C2527 C2526 1.370 . S
C2527 C2531 1.408 . S
C2528 C2526 1.363 . S
C2528 C2529 1.370 . S
C2528 C2532 1.524 . S
C2529 C2521 1.503 . S
C2529 C2528 1.370 . S
C2529 C2530 1.403 . S
C2530 C2529 1.403 . S
C2530 C2531 1.404 . S
C2530 C2533 1.539 . S
C2531 C2527 1.408 . S
C2531 C2530 1.404 . S
C2531 H2543 0.930 . S
C2532 C2528 1.524 . S
C2532 H2544 0.956 . S
C2532 H2545 0.961 . S
C2532 H2546 0.961 . S
C2533 C2530 1.539 . S
C2533 H2547 0.958 . S
C2533 H2548 0.961 . S
C2533 H2549 0.960 . S
H2534 C2518 0.931 . S
H2535 C2523 0.929 . S
H2536 C2524 0.960 . S
H2537 C2524 0.962 . S
H2538 C2524 0.960 . S
H2539 C2525 0.961 . S
H2540 C2525 0.961 . S
H2541 C2525 0.961 . S
H2542 C2526 0.931 . S
H2543 C2531 0.930 . S
H2544 C2532 0.956 . S
H2545 C2532 0.961 . S
H2546 C2532 0.961 . S
H2547 C2533 0.958 . S
H2548 C2533 0.961 . S
H2549 C2533 0.960 . S
C2550 C2551 1.391 . S
C2550 C2552 1.394 . S
C2550 H2566 0.931 . S
C2551 C2550 1.391 . S
C2551 C2555 1.376 . S
C2552 C2550 1.394 . S
C2552 C2553 1.369 . S
C2552 C2556 1.531 . S
C2553 C2552 1.369 . S
C2553 C2554 1.410 . S
C2553 C2561 1.503 . S
C2554 C2553 1.410 . S
C2554 C2555 1.392 . S
C2554 C2557 1.511 . S
C2555 C2551 1.376 . S
C2555 C2554 1.392 . S
C2555 H2567 0.929 . S
C2556 C2552 1.531 . S
C2556 H2568 0.960 1_545 S
C2556 H2569 0.962 . S
C2556 H2570 0.960 1_545 S
C2557 C2554 1.511 . S
C2557 H2571 0.961 . S
C2557 H2572 0.961 . S
C2557 H2573 0.961 1_545 S
C2558 C2559 1.370 . S
C2558 C2560 1.363 . S
C2558 H2574 0.931 . S
C2559 C2558 1.370 . S
C2559 C2563 1.408 1_545 S
C2560 C2558 1.363 . S
C2560 C2561 1.370 . S
C2560 C2564 1.524 . S
C2561 C2553 1.503 . S
C2561 C2560 1.370 . S
C2561 C2562 1.403 1_545 S
C2562 C2561 1.403 1_565 S
C2562 C2563 1.404 . S
C2562 C2565 1.539 . S
C2563 C2559 1.408 1_565 S
C2563 C2562 1.404 . S
C2563 H2575 0.930 . S
C2564 C2560 1.524 . S
C2564 H2576 0.956 . S
C2564 H2577 0.961 . S
C2564 H2578 0.961 . S
C2565 C2562 1.539 . S
C2565 H2579 0.958 . S
C2565 H2580 0.961 . S
C2565 H2581 0.960 . S
H2566 C2550 0.931 . S
H2567 C2555 0.929 . S
H2568 C2556 0.960 1_565 S
H2569 C2556 0.962 . S
H2570 C2556 0.960 1_565 S
H2571 C2557 0.961 . S
H2572 C2557 0.961 . S
H2573 C2557 0.961 1_565 S
H2574 C2558 0.931 . S
H2575 C2563 0.930 . S
H2576 C2564 0.956 . S
H2577 C2564 0.961 . S
H2578 C2564 0.961 . S
H2579 C2565 0.958 . S
H2580 C2565 0.961 . S
H2581 C2565 0.960 . S
C2582 C2583 1.391 . S
C2582 C2584 1.394 . S
C2582 H2598 0.931 . S
C2583 C2582 1.391 . S
C2583 C2587 1.376 1_655 S
C2584 C2582 1.394 . S
C2584 C2585 1.369 . S
C2584 C2588 1.531 . S
C2585 C2584 1.369 . S
C2585 C2586 1.410 1_655 S
C2585 C2593 1.503 . S
C2586 C2585 1.410 1_455 S
C2586 C2587 1.392 . S
C2586 C2589 1.511 . S
C2587 C2583 1.376 1_455 S
C2587 C2586 1.392 . S
C2587 H2599 0.929 . S
C2588 C2584 1.531 . S
C2588 H2600 0.960 . S
C2588 H2601 0.962 . S
C2588 H2602 0.960 . S
C2589 C2586 1.511 . S
C2589 H2603 0.961 . S
C2589 H2604 0.961 . S
C2589 H2605 0.961 . S
C2590 C2591 1.370 . S
C2590 C2592 1.363 . S
C2590 H2606 0.931 . S
C2591 C2590 1.370 . S
C2591 C2595 1.437 . S
C2592 C2590 1.363 . S
C2592 C2593 1.370 . S
C2592 C2596 1.524 . S
C2593 C2585 1.503 . S
C2593 C2592 1.370 . S
C2593 C2594 1.403 . S
C2594 C2593 1.403 . S
C2594 C2595 1.379 . S
C2594 C2597 1.539 1_655 S
C2595 C2591 1.437 . S
C2595 C2594 1.379 . S
C2595 H2607 0.929 1_655 S
C2596 C2592 1.524 . S
C2596 H2608 0.956 . S
C2596 H2609 1.010 . S
C2596 H2610 0.961 . S
C2597 C2594 1.539 1_455 S
C2597 H2611 0.958 1_455 S
C2597 H2612 0.961 . S
C2597 H2613 0.960 . S
H2598 C2582 0.931 . S
H2599 C2587 0.929 . S
H2600 C2588 0.960 . S
H2601 C2588 0.962 . S
H2602 C2588 0.960 . S
H2603 C2589 0.961 . S
H2604 C2589 0.961 . S
H2605 C2589 0.961 . S
H2606 C2590 0.931 . S
H2607 C2595 0.929 1_455 S
H2608 C2596 0.956 . S
H2609 C2596 1.010 . S
H2610 C2596 0.961 . S
H2611 C2597 0.958 1_655 S
H2612 C2597 0.961 . S
H2613 C2597 0.960 . S
C2614 C2615 1.391 . S
C2614 C2616 1.394 . S
C2614 H2630 0.931 . S
C2615 C2614 1.391 . S
C2615 C2619 1.376 . S
C2616 C2614 1.394 . S
C2616 C2617 1.369 . S
C2616 C2620 1.531 . S
C2617 C2616 1.369 . S
C2617 C2618 1.410 . S
C2617 C2625 1.503 . S
C2618 C2617 1.410 . S
C2618 C2619 1.392 . S
C2618 C2621 1.511 . S
C2619 C2615 1.376 . S
C2619 C2618 1.392 . S
C2619 H2631 0.929 . S
C2620 C2616 1.531 . S
C2620 H2632 0.960 . S
C2620 H2633 0.962 . S
C2620 H2634 0.960 . S
C2621 C2618 1.511 . S
C2621 H2635 0.961 . S
C2621 H2636 0.961 . S
C2621 H2637 0.961 . S
C2622 C2623 1.370 . S
C2622 C2624 1.363 . S
C2622 H2638 0.931 . S
C2623 C2622 1.370 . S
C2623 C2627 1.408 . S
C2624 C2622 1.363 . S
C2624 C2625 1.370 . S
C2624 C2628 1.524 . S
C2625 C2617 1.503 . S
C2625 C2624 1.370 . S
C2625 C2626 1.403 . S
C2626 C2625 1.403 . S
C2626 C2627 1.404 . S
C2626 C2629 1.539 . S
C2627 C2623 1.408 . S
C2627 C2626 1.404 . S
C2627 H2639 0.930 . S
C2628 C2624 1.524 . S
C2628 H2640 0.956 . S
C2628 H2641 0.961 . S
C2628 H2642 0.961 . S
C2629 C2626 1.539 . S
C2629 H2643 0.958 . S
C2629 H2644 0.961 . S
C2629 H2645 0.960 . S
H2630 C2614 0.931 . S
H2631 C2619 0.929 . S
H2632 C2620 0.960 . S
H2633 C2620 0.962 . S
H2634 C2620 0.960 . S
H2635 C2621 0.961 . S
H2636 C2621 0.961 . S
H2637 C2621 0.961 . S
H2638 C2622 0.931 . S
H2639 C2627 0.930 . S
H2640 C2628 0.956 . S
H2641 C2628 0.961 . S
H2642 C2628 0.961 . S
H2643 C2629 0.958 . S
H2644 C2629 0.961 . S
H2645 C2629 0.960 . S
C2646 C2647 1.391 . S
C2646 C2648 1.394 . S
C2646 H2662 0.931 . S
C2647 C2646 1.391 . S
C2647 C2651 1.376 . S
C2648 C2646 1.394 . S
C2648 C2649 1.369 . S
C2648 C2652 1.531 . S
C2649 C2648 1.369 . S
C2649 C2650 1.410 . S
C2649 C2657 1.503 . S
C2650 C2649 1.410 . S
C2650 C2651 1.392 . S
C2650 C2653 1.511 . S
C2651 C2647 1.376 . S
C2651 C2650 1.392 . S
C2651 H2663 0.929 . S
C2652 C2648 1.531 . S
C2652 H2664 0.960 . S
C2652 H2665 0.962 . S
C2652 H2666 0.960 . S
C2653 C2650 1.511 . S
C2653 H2667 0.961 . S
C2653 H2668 0.961 . S
C2653 H2669 0.961 . S
C2654 C2655 1.370 . S
C2654 C2656 1.363 . S
C2654 H2670 0.931 . S
C2655 C2654 1.370 . S
C2655 C2659 1.408 . S
C2656 C2654 1.363 . S
C2656 C2657 1.370 . S
C2656 C2660 1.524 . S
C2657 C2649 1.503 . S
C2657 C2656 1.370 . S
C2657 C2658 1.403 . S
C2658 C2657 1.403 . S
C2658 C2659 1.404 . S
C2658 C2661 1.539 . S
C2659 C2655 1.408 . S
C2659 C2658 1.404 . S
C2659 H2671 0.930 . S
C2660 C2656 1.524 . S
C2660 H2672 0.956 . S
C2660 H2673 0.961 . S
C2660 H2674 0.961 . S
C2661 C2658 1.539 . S
C2661 H2675 0.958 . S
C2661 H2676 0.961 . S
C2661 H2677 0.960 . S
H2662 C2646 0.931 . S
H2663 C2651 0.929 . S
H2664 C2652 0.960 . S
H2665 C2652 0.962 . S
H2666 C2652 0.960 . S
H2667 C2653 0.961 . S
H2668 C2653 0.961 . S
H2669 C2653 0.961 . S
H2670 C2654 0.931 . S
H2671 C2659 0.930 . S
H2672 C2660 0.956 . S
H2673 C2660 0.961 . S
H2674 C2660 0.961 . S
H2675 C2661 0.958 . S
H2676 C2661 0.961 . S
H2677 C2661 0.960 . S
C2678 C2679 1.391 . S
C2678 C2680 1.394 . S
C2678 H2694 0.931 . S
C2679 C2678 1.391 . S
C2679 C2683 1.376 . S
C2680 C2678 1.394 . S
C2680 C2681 1.369 . S
C2680 C2684 1.531 . S
C2681 C2680 1.369 . S
C2681 C2682 1.410 . S
C2681 C2689 1.503 . S
C2682 C2681 1.410 . S
C2682 C2683 1.392 . S
C2682 C2685 1.511 . S
C2683 C2679 1.376 . S
C2683 C2682 1.392 . S
C2683 H2695 0.929 . S
C2684 C2680 1.531 . S
C2684 H2696 0.960 . S
C2684 H2697 0.962 . S
C2684 H2698 0.960 . S
C2685 C2682 1.511 . S
C2685 H2699 0.961 . S
C2685 H2700 0.961 . S
C2685 H2701 0.961 . S
C2686 C2687 1.370 . S
C2686 C2688 1.363 . S
C2686 H2702 0.931 . S
C2687 C2686 1.370 . S
C2687 C2691 1.408 . S
C2688 C2686 1.363 . S
C2688 C2689 1.370 . S
C2688 C2692 1.524 . S
C2689 C2681 1.503 . S
C2689 C2688 1.370 . S
C2689 C2690 1.403 . S
C2690 C2689 1.403 . S
C2690 C2691 1.404 . S
C2690 C2693 1.539 . S
C2691 C2687 1.408 . S
C2691 C2690 1.404 . S
C2691 H2703 0.930 . S
C2692 C2688 1.524 . S
C2692 H2704 0.956 . S
C2692 H2705 0.961 . S
C2692 H2706 0.961 . S
C2693 C2690 1.539 . S
C2693 H2707 0.958 . S
C2693 H2708 0.961 . S
C2693 H2709 0.960 . S
H2694 C2678 0.931 . S
H2695 C2683 0.929 . S
H2696 C2684 0.960 . S
H2697 C2684 0.962 . S
H2698 C2684 0.960 . S
H2699 C2685 0.961 . S
H2700 C2685 0.961 . S
H2701 C2685 0.961 . S
H2702 C2686 0.931 . S
H2703 C2691 0.930 . S
H2704 C2692 0.956 . S
H2705 C2692 0.961 . S
H2706 C2692 0.961 . S
H2707 C2693 0.958 . S
H2708 C2693 0.961 . S
H2709 C2693 0.960 . S
C2710 C2711 1.391 . S
C2710 C2712 1.394 . S
C2710 H2726 0.931 . S
C2711 C2710 1.391 . S
C2711 C2715 1.376 . S
C2712 C2710 1.394 . S
C2712 C2713 1.369 . S
C2712 C2716 1.531 . S
C2713 C2712 1.369 . S
C2713 C2714 1.410 . S
C2713 C2721 1.503 . S
C2714 C2713 1.410 . S
C2714 C2715 1.392 . S
C2714 C2717 1.511 . S
C2715 C2711 1.376 . S
C2715 C2714 1.392 . S
C2715 H2727 0.929 . S
C2716 C2712 1.531 . S
C2716 H2728 0.960 . S
C2716 H2729 0.962 . S
C2716 H2730 0.960 . S
C2717 C2714 1.511 . S
C2717 H2731 0.961 . S
C2717 H2732 0.961 . S
C2717 H2733 0.961 . S
C2718 C2719 1.370 . S
C2718 C2720 1.363 . S
C2718 H2734 0.931 . S
C2719 C2718 1.370 . S
C2719 C2723 1.408 . S
C2720 C2718 1.363 . S
C2720 C2721 1.370 . S
C2720 C2724 1.524 . S
C2721 C2713 1.503 . S
C2721 C2720 1.370 . S
C2721 C2722 1.403 . S
C2722 C2721 1.403 . S
C2722 C2723 1.404 . S
C2722 C2725 1.539 . S
C2723 C2719 1.408 . S
C2723 C2722 1.404 . S
C2723 H2735 0.930 . S
C2724 C2720 1.524 . S
C2724 H2736 0.956 . S
C2724 H2737 0.961 . S
C2724 H2738 0.961 . S
C2725 C2722 1.539 . S
C2725 H2739 0.958 . S
C2725 H2740 0.961 . S
C2725 H2741 0.960 . S
H2726 C2710 0.931 . S
H2727 C2715 0.929 . S
H2728 C2716 0.960 . S
H2729 C2716 0.962 . S
H2730 C2716 0.960 . S
H2731 C2717 0.961 . S
H2732 C2717 0.961 . S
H2733 C2717 0.961 . S
H2734 C2718 0.931 . S
H2735 C2723 0.930 . S
H2736 C2724 0.956 . S
H2737 C2724 0.961 . S
H2738 C2724 0.961 . S
H2739 C2725 0.958 . S
H2740 C2725 0.961 . S
H2741 C2725 0.960 . S
C2742 C2743 1.391 . S
C2742 C2744 1.394 . S
C2742 H2758 0.931 . S
C2743 C2742 1.391 . S
C2743 C2747 1.376 . S
C2744 C2742 1.394 . S
C2744 C2745 1.369 . S
C2744 C2748 1.531 . S
C2745 C2744 1.369 . S
C2745 C2746 1.410 . S
C2745 C2753 1.503 . S
C2746 C2745 1.410 . S
C2746 C2747 1.392 . S
C2746 C2749 1.511 . S
C2747 C2743 1.376 . S
C2747 C2746 1.392 . S
C2747 H2759 0.929 . S
C2748 C2744 1.531 . S
C2748 H2760 0.960 . S
C2748 H2761 0.962 . S
C2748 H2762 0.960 . S
C2749 C2746 1.511 . S
C2749 H2763 0.961 . S
C2749 H2764 0.961 . S
C2749 H2765 0.961 . S
C2750 C2751 1.370 . S
C2750 C2752 1.363 . S
C2750 H2766 0.931 . S
C2751 C2750 1.370 . S
C2751 C2755 1.408 . S
C2752 C2750 1.363 . S
C2752 C2753 1.370 . S
C2752 C2756 1.524 . S
C2753 C2745 1.503 . S
C2753 C2752 1.370 . S
C2753 C2754 1.403 . S
C2754 C2753 1.403 . S
C2754 C2755 1.404 . S
C2754 C2757 1.539 . S
C2755 C2751 1.408 . S
C2755 C2754 1.404 . S
C2755 H2767 0.930 . S
C2756 C2752 1.524 . S
C2756 H2768 0.956 . S
C2756 H2769 0.961 . S
C2756 H2770 0.961 . S
C2757 C2754 1.539 . S
C2757 H2771 0.958 . S
C2757 H2772 0.961 . S
C2757 H2773 0.960 . S
H2758 C2742 0.931 . S
H2759 C2747 0.929 . S
H2760 C2748 0.960 . S
H2761 C2748 0.962 . S
H2762 C2748 0.960 . S
H2763 C2749 0.961 . S
H2764 C2749 0.961 . S
H2765 C2749 0.961 . S
H2766 C2750 0.931 . S
H2767 C2755 0.930 . S
H2768 C2756 0.956 . S
H2769 C2756 0.961 . S
H2770 C2756 0.961 . S
H2771 C2757 0.958 . S
H2772 C2757 0.961 . S
H2773 C2757 0.960 . S
C2774 C2775 1.391 . S
C2774 C2776 1.394 . S
C2774 H2790 0.931 . S
C2775 C2774 1.391 . S
C2775 C2779 1.376 . S
C2776 C2774 1.394 . S
C2776 C2777 1.369 . S
C2776 C2780 1.531 . S
C2777 C2776 1.369 . S
C2777 C2778 1.410 . S
C2777 C2785 1.503 . S
C2778 C2777 1.410 . S
C2778 C2779 1.392 . S
C2778 C2781 1.511 . S
C2779 C2775 1.376 . S
C2779 C2778 1.392 . S
C2779 H2791 0.929 . S
C2780 C2776 1.531 . S
C2780 H2792 0.960 . S
C2780 H2793 0.962 . S
C2780 H2794 0.960 . S
C2781 C2778 1.511 . S
C2781 H2795 0.961 . S
C2781 H2796 0.961 . S
C2781 H2797 0.961 . S
C2782 C2783 1.370 . S
C2782 C2784 1.363 . S
C2782 H2798 0.931 . S
C2783 C2782 1.370 . S
C2783 C2787 1.408 . S
C2784 C2782 1.363 . S
C2784 C2785 1.370 . S
C2784 C2788 1.524 . S
C2785 C2777 1.503 . S
C2785 C2784 1.370 . S
C2785 C2786 1.403 . S
C2786 C2785 1.403 . S
C2786 C2787 1.404 . S
C2786 C2789 1.539 . S
C2787 C2783 1.408 . S
C2787 C2786 1.404 . S
C2787 H2799 0.930 . S
C2788 C2784 1.524 . S
C2788 H2800 0.956 . S
C2788 H2801 0.961 . S
C2788 H2802 0.961 . S
C2789 C2786 1.539 . S
C2789 H2803 0.958 . S
C2789 H2804 0.961 . S
C2789 H2805 0.960 . S
H2790 C2774 0.931 . S
H2791 C2779 0.929 . S
H2792 C2780 0.960 . S
H2793 C2780 0.962 . S
H2794 C2780 0.960 . S
H2795 C2781 0.961 . S
H2796 C2781 0.961 . S
H2797 C2781 0.961 . S
H2798 C2782 0.931 . S
H2799 C2787 0.930 . S
H2800 C2788 0.956 . S
H2801 C2788 0.961 . S
H2802 C2788 0.961 . S
H2803 C2789 0.958 . S
H2804 C2789 0.961 . S
H2805 C2789 0.960 . S
C2806 C2807 1.391 . S
C2806 C2808 1.394 . S
C2806 H2822 0.931 . S
C2807 C2806 1.391 . S
C2807 C2811 1.376 . S
C2808 C2806 1.394 . S
C2808 C2809 1.369 . S
C2808 C2812 1.531 . S
C2809 C2808 1.369 . S
C2809 C2810 1.410 . S
C2809 C2817 1.503 . S
C2810 C2809 1.410 . S
C2810 C2811 1.392 . S
C2810 C2813 1.511 . S
C2811 C2807 1.376 . S
C2811 C2810 1.392 . S
C2811 H2823 0.929 . S
C2812 C2808 1.531 . S
C2812 H2824 0.960 . S
C2812 H2825 0.962 . S
C2812 H2826 0.960 . S
C2813 C2810 1.511 . S
C2813 H2827 0.961 . S
C2813 H2828 0.961 . S
C2813 H2829 0.961 . S
C2814 C2815 1.370 . S
C2814 C2816 1.363 . S
C2814 H2830 0.931 . S
C2815 C2814 1.370 . S
C2815 C2819 1.408 . S
C2816 C2814 1.363 . S
C2816 C2817 1.370 . S
C2816 C2820 1.524 . S
C2817 C2809 1.503 . S
C2817 C2816 1.370 . S
C2817 C2818 1.403 . S
C2818 C2817 1.403 . S
C2818 C2819 1.404 . S
C2818 C2821 1.539 . S
C2819 C2815 1.408 . S
C2819 C2818 1.404 . S
C2819 H2831 0.930 . S
C2820 C2816 1.524 . S
C2820 H2832 0.956 . S
C2820 H2833 0.961 . S
C2820 H2834 0.961 . S
C2821 C2818 1.539 . S
C2821 H2835 0.958 . S
C2821 H2836 0.961 . S
C2821 H2837 0.960 . S
H2822 C2806 0.931 . S
H2823 C2811 0.929 . S
H2824 C2812 0.960 . S
H2825 C2812 0.962 . S
H2826 C2812 0.960 . S
H2827 C2813 0.961 . S
H2828 C2813 0.961 . S
H2829 C2813 0.961 . S
H2830 C2814 0.931 . S
H2831 C2819 0.930 . S
H2832 C2820 0.956 . S
H2833 C2820 0.961 . S
H2834 C2820 0.961 . S
H2835 C2821 0.958 . S
H2836 C2821 0.961 . S
H2837 C2821 0.960 . S
C2838 C2839 1.391 . S
C2838 C2840 1.394 . S
C2838 H2854 0.931 . S
C2839 C2838 1.391 . S
C2839 C2843 1.376 1_655 S
C2840 C2838 1.394 . S
C2840 C2841 1.369 . S
C2840 C2844 1.531 . S
C2841 C2840 1.369 . S
C2841 C2842 1.410 1_655 S
C2841 C2849 1.503 . S
C2842 C2841 1.410 1_455 S
C2842 C2843 1.392 . S
C2842 C2845 1.511 . S
C2843 C2839 1.376 1_455 S
C2843 C2842 1.392 . S
C2843 H2855 0.929 . S
C2844 C2840 1.531 . S
C2844 H2856 0.960 . S
C2844 H2857 0.962 . S
C2844 H2858 0.960 . S
C2845 C2842 1.511 . S
C2845 H2859 0.961 . S
C2845 H2860 0.961 . S
C2845 H2861 0.961 . S
C2846 C2847 1.370 . S
C2846 C2848 1.363 . S
C2846 H2862 0.931 . S
C2847 C2846 1.370 . S
C2847 C2851 1.408 . S
C2848 C2846 1.363 . S
C2848 C2849 1.370 . S
C2848 C2852 1.524 . S
C2849 C2841 1.503 . S
C2849 C2848 1.370 . S
C2849 C2850 1.403 . S
C2850 C2849 1.403 . S
C2850 C2851 1.404 . S
C2850 C2853 1.539 . S
C2851 C2847 1.408 . S
C2851 C2850 1.404 . S
C2851 H2863 0.930 . S
C2852 C2848 1.524 . S
C2852 H2864 0.956 . S
C2852 H2865 0.961 1_655 S
C2852 H2866 0.975 . S
C2853 C2850 1.539 . S
C2853 H2867 0.958 . S
C2853 H2868 0.911 1_655 S
C2853 H2869 0.960 . S
H2854 C2838 0.931 . S
H2855 C2843 0.929 . S
H2856 C2844 0.960 . S
H2857 C2844 0.962 . S
H2858 C2844 0.960 . S
H2859 C2845 0.961 . S
H2860 C2845 0.961 . S
H2861 C2845 0.961 . S
H2862 C2846 0.931 . S
H2863 C2851 0.930 . S
H2864 C2852 0.956 . S
H2865 C2852 0.961 1_455 S
H2866 C2852 0.975 . S
H2867 C2853 0.958 . S
H2868 C2853 0.911 1_455 S
H2869 C2853 0.960 . S
C2870 C2871 1.391 . S
C2870 C2872 1.394 . S
C2870 H2886 0.931 . S
C2871 C2870 1.391 . S
C2871 C2875 1.376 . S
C2872 C2870 1.394 . S
C2872 C2873 1.369 . S
C2872 C2876 1.531 . S
C2873 C2872 1.369 . S
C2873 C2874 1.410 . S
C2873 C2881 1.503 . S
C2874 C2873 1.410 . S
C2874 C2875 1.392 . S
C2874 C2877 1.511 . S
C2875 C2871 1.376 . S
C2875 C2874 1.392 . S
C2875 H2887 0.929 . S
C2876 C2872 1.531 . S
C2876 H2888 0.960 . S
C2876 H2889 0.962 . S
C2876 H2890 0.960 . S
C2877 C2874 1.511 . S
C2877 H2891 0.961 . S
C2877 H2892 0.961 . S
C2877 H2893 0.961 . S
C2878 C2879 1.370 . S
C2878 C2880 1.363 . S
C2878 H2894 0.931 . S
C2879 C2878 1.370 . S
C2879 C2883 1.408 . S
C2880 C2878 1.363 . S
C2880 C2881 1.370 . S
C2880 C2884 1.524 . S
C2881 C2873 1.503 . S
C2881 C2880 1.370 . S
C2881 C2882 1.403 . S
C2882 C2881 1.403 . S
C2882 C2883 1.404 . S
C2882 C2885 1.539 . S
C2883 C2879 1.408 . S
C2883 C2882 1.404 . S
C2883 H2895 0.930 . S
C2884 C2880 1.524 . S
C2884 H2896 0.956 . S
C2884 H2897 0.961 . S
C2884 H2898 0.961 . S
C2885 C2882 1.539 . S
C2885 H2899 0.958 . S
C2885 H2900 0.961 . S
C2885 H2901 0.960 . S
H2886 C2870 0.931 . S
H2887 C2875 0.929 . S
H2888 C2876 0.960 . S
H2889 C2876 0.962 . S
H2890 C2876 0.960 . S
H2891 C2877 0.961 . S
H2892 C2877 0.961 . S
H2893 C2877 0.961 . S
H2894 C2878 0.931 . S
H2895 C2883 0.930 . S
H2896 C2884 0.956 . S
H2897 C2884 0.961 . S
H2898 C2884 0.961 . S
H2899 C2885 0.958 . S
H2900 C2885 0.961 . S
H2901 C2885 0.960 . S
C2902 C2903 1.391 . S
C2902 C2904 1.394 . S
C2902 H2918 0.931 . S
C2903 C2902 1.391 . S
C2903 C2907 1.376 . S
C2904 C2902 1.394 . S
C2904 C2905 1.369 . S
C2904 C2908 1.531 . S
C2905 C2904 1.369 . S
C2905 C2906 1.410 . S
C2905 C2913 1.503 . S
C2906 C2905 1.410 . S
C2906 C2907 1.392 . S
C2906 C2909 1.511 1_545 S
C2907 C2903 1.376 . S
C2907 C2906 1.392 . S
C2907 H2919 0.936 . S
C2908 C2904 1.531 . S
C2908 H2920 0.960 . S
C2908 H2921 0.962 . S
C2908 H2922 0.960 . S
C2909 C2906 1.511 1_565 S
C2909 H2923 0.961 . S
C2909 H2924 0.961 . S
C2909 H2925 0.961 1_565 S
C2910 C2911 1.370 1_565 S
C2910 C2912 1.363 . S
C2910 H2926 0.931 . S
C2911 C2910 1.370 1_545 S
C2911 C2915 1.408 . S
C2912 C2910 1.363 . S
C2912 C2913 1.370 1_565 S
C2912 C2916 1.524 . S
C2913 C2905 1.503 . S
C2913 C2912 1.370 1_545 S
C2913 C2914 1.403 . S
C2914 C2913 1.403 . S
C2914 C2915 1.404 . S
C2914 C2917 1.539 . S
C2915 C2911 1.408 . S
C2915 C2914 1.404 . S
C2915 H2927 0.930 . S
C2916 C2912 1.524 . S
C2916 H2928 0.956 . S
C2916 H2929 0.961 . S
C2916 H2930 0.961 . S
C2917 C2914 1.539 . S
C2917 H2931 0.958 . S
C2917 H2932 0.961 . S
C2917 H2933 0.960 . S
H2918 C2902 0.931 . S
H2919 C2907 0.936 . S
H2920 C2908 0.960 . S
H2921 C2908 0.962 . S
H2922 C2908 0.960 . S
H2923 C2909 0.961 . S
H2924 C2909 0.961 . S
H2925 C2909 0.961 1_545 S
H2926 C2910 0.931 . S
H2927 C2915 0.930 . S
H2928 C2916 0.956 . S
H2929 C2916 0.961 . S
H2930 C2916 0.961 . S
H2931 C2917 0.958 . S
H2932 C2917 0.961 . S
H2933 C2917 0.960 . S
C631 C7 1.502 . S
C639 C458 1.505 1_655 S
C663 C23 1.573 . S
C671 C471 1.555 . S
C703 C500 1.470 1_545 S
C695 C37 1.506 . S
C727 C35 1.516 1_545 S
C735 C513 1.512 . S
C759 C9 1.561 1_455 S
C767 C534 1.521 . S
C791 C21 1.565 . S
C799 C563 1.492 . S
C823 C49 1.514 . S
C831 C542 1.494 1_655 S
C863 C555 1.515 . S
C855 C65 1.569 . S
C895 C521 1.506 1_545 S
C887 C79 1.508 . S
C919 C77 1.515 . S
C927 C492 1.480 1_545 S
C959 C450 1.502 1_655 S
C951 C51 1.512 . S
C983 C63 1.534 . S
C991 C479 1.537 . S
C1015 C91 1.560 . S
C1023 C584 1.560 . S
C1047 C107 1.611 . S
C1055 C597 1.588 . S
C1087 C626 1.533 . S
C1079 C121 1.626 . S
C1111 C119 1.586 . S
C1119 C261 1.573 . S
C1143 C93 1.632 . S
C1151 C282 1.593 . S
C1175 C105 1.541 . S
C1183 C311 1.537 . S
C1207 C133 1.531 . S
C1215 C290 1.545 . S
C1239 C149 1.561 . S
C1247 C303 1.529 . S
C1279 C269 1.570 . S
C1271 C163 1.583 . S
C1311 C618 1.536 . S
C1303 C161 1.605 . S
C1343 C576 1.527 . S
C1335 C135 1.604 . S
C1375 C605 1.578 . S
C1367 C147 1.574 . S
C1399 C175 1.567 . S
C1407 C332 1.499 . S
C1431 C191 1.596 . S
C1439 C345 1.574 . S
C1463 C205 1.591 . S
C1471 C374 1.534 . S
C1495 C203 1.587 . S
C1503 C387 1.610 . S
C1535 C408 1.600 . S
C1527 C177 1.610 . S
C1567 C437 1.534 . S
C1559 C189 1.601 . S
C1599 C416 1.576 . S
C1591 C217 1.561 . S
C1631 C429 1.529 . S
C1623 C233 1.600 . S
C1655 C247 1.576 . S
C1663 C395 1.572 . S
C1695 C366 1.513 . S
C1687 C245 1.547 . S
C1719 C219 1.605 . S
C1727 C324 1.530 . S
C1759 C353 1.551 . S
C1751 C231 1.538 . S
C1791 C264 1.424 . S
C1783 C8 1.529 . S
C1815 C17 1.469 . S
C1823 C285 1.352 . S
C1855 C313 1.413 . S
C1847 C31 1.529 . S
C1887 C334 1.413 . S
C1879 C36 1.523 . S
C1919 C348 1.420 . S
C1911 C3 1.512 . S
C1951 C376 1.347 . S
C1943 C22 1.480 . S
C1975 C50 1.551 . S
C1983 C369 1.374 . S
C2007 C59 1.488 . S
C2015 C327 1.309 . S
C2039 C73 1.531 . S
C2047 C355 1.460 . S
C2071 C78 1.552 . S
C2079 C292 1.496 . S
C2111 C306 1.384 . S
C2103 C45 1.519 . S
C2135 C64 1.500 . S
C2143 C271 1.419 . S
C2175 C390 1.438 . S
C2167 C92 1.517 . S
C2199 C101 1.547 . S
C2207 C411 1.420 . S
C2231 C115 1.562 . S
C2239 C439 1.439 . S
C2271 C460 1.394 . S
C2263 C120 1.458 . S
C2295 C87 1.517 . S
C2303 C474 1.422 . S
C2327 C106 1.455 . S
C2335 C502 1.353 . S
C2359 C134 1.486 . S
C2367 C495 1.328 . S
C2391 C143 1.466 . S
C2399 C453 1.347 . S
C2431 C481 1.443 . S
C2423 C157 1.536 . S
C2455 C162 1.527 . S
C2463 C418 1.465 . S
C2487 C129 1.580 . S
C2495 C432 1.413 . S
C2527 C397 1.470 . S
C2519 C148 1.564 . S
C2559 C516 1.355 1_545 S
C2551 C176 1.481 . S
C2583 C185 1.460 . S
C2591 C537 1.324 1_655 S
C2615 C199 1.526 . S
C2623 C565 1.417 . S
C2655 C586 1.394 . S
C2647 C204 1.515 . S
C2687 C600 1.428 . S
C2679 C171 1.559 . S
C2711 C190 1.538 . S
C2719 C628 1.443 . S
C2743 C218 1.547 . S
C2751 C621 1.385 . S
C2775 C227 1.561 . S
C2783 C579 1.381 . S
C2815 C607 1.471 . S
C2807 C241 1.570 . S
C2847 C544 1.402 1_655 S
C2839 C246 1.459 . S
C2879 C558 1.388 . S
C2871 C213 1.527 . S
C2903 C232 1.449 . S
C2911 C523 1.391 1_545 S
