# Generated by pormake.
# Topology zzz, (3,6)-cn, num edge types: 1
# Building blocks:
#     Node 0, Type 0, BuildingBlock: MIDCAF_clean_linker_0, # of connection points: 3
#     Node 1, Type 0, BuildingBlock: MIDCAF_clean_linker_0, # of connection points: 3
#     Node 2, Type 0, BuildingBlock: MIDCAF_clean_linker_0, # of connection points: 3
#     Node 3, Type 0, BuildingBlock: MIDCAF_clean_linker_0, # of connection points: 3
#     Node 4, Type 0, BuildingBlock: MIDCAF_clean_linker_0, # of connection points: 3
#     Node 5, Type 0, BuildingBlock: MIDCAF_clean_linker_0, # of connection points: 3
#     Node 6, Type 0, BuildingBlock: MIDCAF_clean_linker_0, # of connection points: 3
#     Node 7, Type 0, BuildingBlock: MIDCAF_clean_linker_0, # of connection points: 3
#     Node 8, Type 1, BuildingBlock: MIFKUJ_clean_sbu_0, # of connection points: 6
#     Node 9, Type 1, BuildingBlock: MIFKUJ_clean_sbu_0, # of connection points: 6
#     Node 10, Type 1, BuildingBlock: MIFKUJ_clean_sbu_0, # of connection points: 6
#     Node 11, Type 1, BuildingBlock: MIFKUJ_clean_sbu_0, # of connection points: 6
#     Edge 12, Type (0, 1), BuildingBlock: UVAHIK_clean_linker_0, # of connection points: 2
#     Edge 13, Type (0, 1), BuildingBlock: UVAHIK_clean_linker_0, # of connection points: 2
#     Edge 14, Type (0, 1), BuildingBlock: UVAHIK_clean_linker_0, # of connection points: 2
#     Edge 15, Type (0, 1), BuildingBlock: UVAHIK_clean_linker_0, # of connection points: 2
#     Edge 16, Type (0, 1), BuildingBlock: UVAHIK_clean_linker_0, # of connection points: 2
#     Edge 17, Type (0, 1), BuildingBlock: UVAHIK_clean_linker_0, # of connection points: 2
#     Edge 18, Type (0, 1), BuildingBlock: UVAHIK_clean_linker_0, # of connection points: 2
#     Edge 19, Type (0, 1), BuildingBlock: UVAHIK_clean_linker_0, # of connection points: 2
#     Edge 20, Type (0, 1), BuildingBlock: UVAHIK_clean_linker_0, # of connection points: 2
#     Edge 21, Type (0, 1), BuildingBlock: UVAHIK_clean_linker_0, # of connection points: 2
#     Edge 22, Type (0, 1), BuildingBlock: UVAHIK_clean_linker_0, # of connection points: 2
#     Edge 23, Type (0, 1), BuildingBlock: UVAHIK_clean_linker_0, # of connection points: 2
#     Edge 24, Type (0, 1), BuildingBlock: UVAHIK_clean_linker_0, # of connection points: 2
#     Edge 25, Type (0, 1), BuildingBlock: UVAHIK_clean_linker_0, # of connection points: 2
#     Edge 26, Type (0, 1), BuildingBlock: UVAHIK_clean_linker_0, # of connection points: 2
#     Edge 27, Type (0, 1), BuildingBlock: UVAHIK_clean_linker_0, # of connection points: 2
#     Edge 28, Type (0, 1), BuildingBlock: UVAHIK_clean_linker_0, # of connection points: 2
#     Edge 29, Type (0, 1), BuildingBlock: UVAHIK_clean_linker_0, # of connection points: 2
#     Edge 30, Type (0, 1), BuildingBlock: UVAHIK_clean_linker_0, # of connection points: 2
#     Edge 31, Type (0, 1), BuildingBlock: UVAHIK_clean_linker_0, # of connection points: 2
#     Edge 32, Type (0, 1), BuildingBlock: UVAHIK_clean_linker_0, # of connection points: 2
#     Edge 33, Type (0, 1), BuildingBlock: UVAHIK_clean_linker_0, # of connection points: 2
#     Edge 34, Type (0, 1), BuildingBlock: UVAHIK_clean_linker_0, # of connection points: 2
#     Edge 35, Type (0, 1), BuildingBlock: UVAHIK_clean_linker_0, # of connection points: 2
# Relax obj value: 0.305
# Max RMSD: 0.218
# Mean RMSD: 0.194
data_MOF--net-zzz--node1-MIFKUJ_clean_sbu_0--node2-MIDCAF_clean_linker_0--edge1-UVAHIK_clean_linker_0
_symmetry_space_group_name_H-M    P1
_symmetry_Int_Tables_number       1
_symmetry_cell_setting            triclinic
loop_
_symmetry_equiv_pos_as_xyz
'x, y, z'
_cell_length_a     69.95661
_cell_length_b     71.872543
_cell_length_c     26.038113
_cell_angle_alpha  89.171583
_cell_angle_beta   89.622468
_cell_angle_gamma 90.825585
loop_
_atom_site_label
_atom_site_type_symbol
_atom_site_fract_x
_atom_site_fract_y
_atom_site_fract_z
_atom_type_partial_charge
C0 C 0.78683 0.59992 0.18732 0.0
C1 C 0.78463 0.5831 0.21492 0.0
C2 C 0.76879 0.57148 0.2044 0.0
C3 C 0.75657 0.57575 0.16338 0.0
H4 H 0.69378 0.59013 0.07403 0.0
H5 H 0.66135 0.58468 0.03961 0.0
H6 H 0.686 0.56965 0.89395 0.0
H7 H 0.71772 0.57464 0.92744 0.0
H8 H 0.75248 0.59838 0.88818 0.0
H9 H 0.77611 0.59406 0.82041 0.0
H10 H 0.82114 0.59622 0.93312 0.0
H11 H 0.79778 0.60101 0.00028 0.0
H12 H 0.77767 0.61658 0.12375 0.0
H13 H 0.79865 0.60933 0.19527 0.0
H14 H 0.76674 0.55844 0.22519 0.0
H15 H 0.74551 0.56581 0.15306 0.0
N16 N 0.73368 0.58844 0.06903 0.0
N17 N 0.74065 0.59326 0.98129 0.0
N18 N 0.76456 0.5978 0.0416 0.0
C19 C 0.72788 0.58867 0.019 0.0
C20 C 0.75895 0.5978 0.99202 0.0
C21 C 0.75214 0.59328 0.08028 0.0
C22 C 0.7083 0.58319 0.00322 0.0
C23 C 0.69217 0.58539 0.03499 0.0
C24 C 0.67369 0.58237 0.01532 0.0
C25 C 0.67129 0.57726 0.96377 0.0
C26 C 0.68745 0.5741 0.93336 0.0
C27 C 0.70566 0.57695 0.95277 0.0
C28 C 0.7732 0.59961 0.94992 0.0
C29 C 0.76747 0.59841 0.89833 0.0
C30 C 0.78099 0.59585 0.85944 0.0
C31 C 0.80047 0.59446 0.8714 0.0
C32 C 0.80628 0.59736 0.92232 0.0
C33 C 0.79281 0.59998 0.9611 0.0
C34 C 0.76008 0.59167 0.13259 0.0
C35 C 0.77472 0.60414 0.14664 0.0
C36 C 0.01329 0.78453 0.21689 0.0
C37 C 0.00074 0.77879 0.25641 0.0
C38 C 0.9903 0.76205 0.25154 0.0
C39 C 0.99197 0.75154 0.20677 0.0
H40 H 0.98524 0.69502 0.11324 0.0
H41 H 0.98334 0.66223 0.08639 0.0
H42 H 0.02263 0.67474 0.96182 0.0
H43 H 0.02409 0.70719 0.98715 0.0
H44 H 0.00739 0.74607 0.92305 0.0
H45 H 0.00577 0.7679 0.84987 0.0
H46 H 0.99032 0.81177 0.95308 0.0
H47 H 0.99197 0.79038 0.02548 0.0
H48 H 0.02369 0.77962 0.14106 0.0
H49 H 0.02131 0.79749 0.21953 0.0
H50 H 0.98048 0.75745 0.28161 0.0
H51 H 0.98332 0.73903 0.20276 0.0
N52 N 0.00327 0.73072 0.10894 0.0
N53 N 0.0026 0.73526 0.01918 0.0
N54 N 0.00197 0.76087 0.07313 0.0
C55 C 0.00342 0.72363 0.06069 0.0
C56 C 0.00161 0.75388 0.02514 0.0
C57 C 0.00285 0.74949 0.11501 0.0
C58 C 0.0047 0.70353 0.05194 0.0
C59 C 0.99377 0.69056 0.08092 0.0
C60 C 0.99265 0.67193 0.06567 0.0
C61 C 0.00296 0.66617 0.02243 0.0
C62 C 0.01477 0.67892 0.99568 0.0
C63 C 0.01551 0.69746 0.01001 0.0
C64 C -4e-05 0.76653 0.98018 0.0
C65 C 0.00349 0.76035 0.92994 0.0
C66 C 0.00255 0.77276 0.8881 0.0
C67 C 0.9977 0.79139 0.8959 0.0
C68 C 0.99371 0.79738 0.94586 0.0
C69 C 0.99489 0.78514 0.98748 0.0
C70 C 0.00363 0.75802 0.16601 0.0
C71 C 0.01458 0.77436 0.17198 0.0
C72 C 0.71254 0.90782 0.21815 0.0
C73 C 0.71659 0.92363 0.24751 0.0
C74 C 0.73348 0.93394 0.23651 0.0
C75 C 0.7452 0.92933 0.1947 0.0
H76 H 0.80822 0.91636 0.10661 0.0
H77 H 0.84055 0.92285 0.07086 0.0
H78 H 0.81551 0.93901 0.92632 0.0
H79 H 0.78385 0.93306 0.9612 0.0
H80 H 0.75348 0.90439 0.92152 0.0
H81 H 0.73123 0.90683 0.85035 0.0
H82 H 0.68381 0.90134 0.95682 0.0
H83 H 0.70588 0.89878 0.0279 0.0
H84 H 0.71989 0.89166 0.15297 0.0
H85 H 0.69965 0.89961 0.22501 0.0
H86 H 0.73718 0.94605 0.25884 0.0
H87 H 0.75742 0.93818 0.18526 0.0
N88 N 0.76746 0.91791 0.10112 0.0
N89 N 0.76267 0.91089 0.01425 0.0
N90 N 0.7378 0.90608 0.07285 0.0
C91 C 0.77428 0.91709 0.05194 0.0
C92 C 0.7445 0.90537 0.02404 0.0
C93 C 0.7491 0.91216 0.11168 0.0
C94 C 0.79355 0.92387 0.03644 0.0
C95 C 0.80972 0.92169 0.06766 0.0
C96 C 0.82812 0.92527 0.04724 0.0
C97 C 0.83034 0.93097 0.9956 0.0
C98 C 0.81413 0.93424 0.96589 0.0
C99 C 0.796 0.93084 0.98604 0.0
C100 C 0.73144 0.90187 0.98068 0.0
C101 C 0.73831 0.90319 0.92974 0.0
C102 C 0.72561 0.90459 0.88884 0.0
C103 C 0.70584 0.90455 0.89811 0.0
C104 C 0.699 0.9013 0.94839 0.0
C105 C 0.71168 0.89996 0.9893 0.0
C106 C 0.74013 0.91444 0.16293 0.0
C107 C 0.72412 0.90332 0.17645 0.0
C108 C 0.44827 0.69954 0.96269 0.0
C109 C 0.45263 0.70455 0.91157 0.0
C110 C 0.4579 0.72303 0.89971 0.0
C111 C 0.45852 0.73633 0.93831 0.0
H112 H 0.45684 0.79022 0.95727 0.0
H113 H 0.45677 0.822 0.92762 0.0
H114 H 0.45786 0.84107 0.08399 0.0
H115 H 0.4578 0.80849 0.11502 0.0
H116 H 0.48063 0.76216 0.19393 0.0
H117 H 0.48634 0.7438 0.27258 0.0
H118 H 0.43697 0.70934 0.23928 0.0
H119 H 0.43147 0.7275 0.16153 0.0
H120 H 0.44566 0.70838 0.04033 0.0
H121 H 0.44449 0.68528 0.97296 0.0
H122 H 0.46135 0.72722 0.86056 0.0
H123 H 0.46258 0.7505 0.92797 0.0
N124 N 0.45604 0.76363 0.01835 0.0
N125 N 0.45678 0.77139 0.10568 0.0
N126 N 0.45437 0.74008 0.08062 0.0
C127 C 0.45685 0.77679 0.0552 0.0
C128 C 0.4554 0.75292 0.11828 0.0
C129 C 0.45485 0.74533 0.03053 0.0
C130 C 0.45724 0.79665 0.03881 0.0
C131 C 0.45692 0.80098 0.98596 0.0
C132 C 0.45671 0.8193 0.96869 0.0
C133 C 0.45689 0.83397 0.00351 0.0
C134 C 0.45752 0.82992 0.05646 0.0
C135 C 0.45754 0.81133 0.07408 0.0
C136 C 0.45567 0.74613 0.17185 0.0
C137 C 0.47063 0.75111 0.20478 0.0
C138 C 0.47399 0.74051 0.24939 0.0
C139 C 0.46223 0.72499 0.26188 0.0
C140 C 0.44622 0.72125 0.23119 0.0
C141 C 0.44307 0.73162 0.1865 0.0
C142 C 0.45413 0.73131 0.98957 0.0
C143 C 0.44909 0.71274 0.00132 0.0
C144 C 0.20408 0.40487 0.00252 0.0
C145 C 0.21105 0.41854 0.9679 0.0
C146 C 0.22925 0.42651 0.97639 0.0
C147 C 0.23994 0.42129 0.01967 0.0
H148 H 0.29456 0.42711 0.11002 0.0
H149 H 0.32627 0.43633 0.14129 0.0
H150 H 0.31879 0.39869 0.27124 0.0
H151 H 0.28807 0.38907 0.23907 0.0
H152 H 0.24566 0.40783 0.29346 0.0
H153 H 0.22262 0.4163 0.35932 0.0
H154 H 0.17648 0.39675 0.26416 0.0
H155 H 0.19941 0.3885 0.19755 0.0
H156 H 0.20832 0.38978 0.0725 0.0
H157 H 0.19002 0.39865 0.99762 0.0
H158 H 0.23499 0.43706 0.95023 0.0
H159 H 0.2536 0.42809 0.02635 0.0
N160 N 0.26074 0.40718 0.1133 0.0
N161 N 0.25631 0.40048 0.20129 0.0
N162 N 0.23002 0.40071 0.14691 0.0
C163 C 0.2682 0.40452 0.16116 0.0
C164 C 0.23726 0.39859 0.19466 0.0
C165 C 0.24153 0.40488 0.10601 0.0
C166 C 0.28872 0.40755 0.17241 0.0
C167 C 0.30005 0.42044 0.14434 0.0
C168 C 0.31811 0.42587 0.16266 0.0
C169 C 0.32511 0.41845 0.20923 0.0
C170 C 0.31418 0.40462 0.23501 0.0
C171 C 0.29634 0.3992 0.21675 0.0
C172 C 0.22428 0.39798 0.23965 0.0
C173 C 0.23068 0.40469 0.28715 0.0
C174 C 0.21753 0.40956 0.32496 0.0
C175 C 0.19787 0.40741 0.31623 0.0
C176 C 0.19161 0.39852 0.27164 0.0
C177 C 0.20473 0.39392 0.23342 0.0
C178 C 0.2324 0.40829 0.05555 0.0
C179 C 0.21456 0.39987 0.04574 0.0
C180 C 0.02035 0.22126 0.96279 0.0
C181 C 0.00694 0.2254 0.9246 0.0
C182 C 0.99501 0.2408 0.93077 0.0
C183 C 0.99593 0.25134 0.9756 0.0
H184 H 0.0182 0.30949 0.07943 0.0
H185 H 0.01778 0.34118 0.11345 0.0
H186 H 0.9723 0.32473 0.21823 0.0
H187 H 0.97304 0.2932 0.18517 0.0
H188 H 0.99746 0.25708 0.25742 0.0
H189 H 0.99658 0.23497 0.32962 0.0
H190 H 0.01715 0.19198 0.22997 0.0
H191 H 0.01827 0.21386 0.15847 0.0
H192 H 0.03077 0.22729 0.03778 0.0
H193 H 0.02953 0.20932 0.95937 0.0
H194 H 0.98451 0.24421 0.90185 0.0
H195 H 0.98603 0.26263 0.98061 0.0
N196 N 0.00219 0.27265 0.07295 0.0
N197 N 0.00143 0.26782 0.16253 0.0
N198 N 0.00887 0.24325 0.10863 0.0
C199 C -0.00046 0.27931 0.12111 0.0
C200 C 0.00621 0.2498 0.15667 0.0
C201 C 0.0068 0.25448 0.0667 0.0
C202 C 0.99571 0.29903 0.13002 0.0
C203 C 0.00768 0.31292 0.10839 0.0
C204 C 0.00753 0.33094 0.12804 0.0
C205 C 0.99511 0.3353 0.16865 0.0
C206 C 0.98192 0.32178 0.1867 0.0
C207 C 0.98237 0.30375 0.16791 0.0
C208 C 0.00766 0.23717 0.20187 0.0
C209 C 0.00207 0.24297 0.25111 0.0
C210 C 0.00155 0.23034 0.29251 0.0
C211 C 0.00677 0.21176 0.28549 0.0
C212 C 0.0133 0.20627 0.23692 0.0
C213 C 0.01373 0.2188 0.19565 0.0
C214 C 0.00844 0.24628 0.01527 0.0
C215 C 0.02098 0.23148 0.00782 0.0
C216 C 0.28447 0.10055 0.96239 0.0
C217 C 0.28137 0.083 0.94071 0.0
C218 C 0.26554 0.07218 0.95773 0.0
C219 C 0.25366 0.07846 0.9974 0.0
H220 H 0.19719 0.07563 0.08355 0.0
H221 H 0.16638 0.06471 0.11888 0.0
H222 H 0.17317 0.10224 0.24602 0.0
H223 H 0.20295 0.11354 0.21002 0.0
H224 H 0.2461 0.1057 0.25916 0.0
H225 H 0.27012 0.09701 0.32203 0.0
H226 H 0.3148 0.11164 0.21348 0.0
H227 H 0.29097 0.12036 0.15014 0.0
H228 H 0.27635 0.11978 0.0202 0.0
H229 H 0.29664 0.10914 0.95069 0.0
H230 H 0.26277 0.05861 0.94159 0.0
H231 H 0.24218 0.06947 0.01162 0.0
N232 N 0.22986 0.09632 0.08157 0.0
N233 N 0.23448 0.10671 0.16587 0.0
N234 N 0.26006 0.1071 0.10818 0.0
C235 C 0.22264 0.10003 0.12915 0.0
C236 C 0.25318 0.11024 0.15593 0.0
C237 C 0.24862 0.10028 0.07077 0.0
C238 C 0.20266 0.09529 0.14422 0.0
C239 C 0.19178 0.08184 0.11828 0.0
C240 C 0.17422 0.07546 0.13885 0.0
C241 C 0.16726 0.08246 0.1856 0.0
C242 C 0.17776 0.09665 0.20965 0.0
C243 C 0.19509 0.10302 0.18915 0.0
C244 C 0.26665 0.11294 0.19883 0.0
C245 C 0.26102 0.10798 0.24932 0.0
C246 C 0.27475 0.1031 0.28563 0.0
C247 C 0.29413 0.10337 0.27185 0.0
C248 C 0.29983 0.11126 0.22454 0.0
C249 C 0.28616 0.11611 0.18823 0.0
C250 C 0.25767 0.09547 0.02127 0.0
C251 C 0.27287 0.10664 0.00237 0.0
C252 C 0.55206 0.30196 0.23359 0.0
C253 C 0.5491 0.296 0.28449 0.0
C254 C 0.54843 0.27695 0.29642 0.0
C255 C 0.54992 0.26395 0.25713 0.0
H256 H 0.53545 0.21221 0.2286 0.0
H257 H 0.5323 0.18016 0.25653 0.0
H258 H 0.54394 0.16178 0.10271 0.0
H259 H 0.54752 0.19453 0.0736 0.0
H260 H 0.52802 0.23896 0.99202 0.0
H261 H 0.52276 0.25678 0.91213 0.0
H262 H 0.5647 0.29762 0.96001 0.0
H263 H 0.56999 0.27994 0.03813 0.0
H264 H 0.55536 0.29421 0.15539 0.0
H265 H 0.55259 0.31668 0.22393 0.0
H266 H 0.54607 0.27217 0.33563 0.0
H267 H 0.54875 0.24929 0.26707 0.0
N268 N 0.54808 0.23817 0.17313 0.0
N269 N 0.5462 0.23197 0.08485 0.0
N270 N 0.552 0.26241 0.1136 0.0
C271 C 0.54563 0.22581 0.13469 0.0
C272 C 0.54957 0.25039 0.07432 0.0
C273 C 0.55124 0.25644 0.1631 0.0
C274 C 0.54206 0.20602 0.14884 0.0
C275 C 0.53743 0.20152 0.20023 0.0
C276 C 0.53558 0.18313 0.21646 0.0
C277 C 0.53818 0.16867 0.18189 0.0
C278 C 0.54201 0.17285 0.12995 0.0
C279 C 0.544 0.19151 0.11344 0.0
C280 C 0.54928 0.25817 0.02144 0.0
C281 C 0.5365 0.25144 0.98441 0.0
C282 C 0.53338 0.26172 0.93898 0.0
C283 C 0.54323 0.27869 0.9297 0.0
C284 C 0.55702 0.28453 0.96526 0.0
C285 C 0.55997 0.27444 0.01045 0.0
C286 C 0.55208 0.26991 0.20552 0.0
C287 C 0.55362 0.28907 0.19447 0.0
Zn288 Zn 0.00379 0.02023 0.61754 0.0
Zn289 Zn 0.99466 0.98421 0.56053 0.0
C290 C 0.9952 0.04981 0.68154 0.0
O291 O 0.97826 0.04227 0.67391 0.0
C292 C 0.0024 0.95182 0.50704 0.0
O293 O 0.01944 0.95721 0.52235 0.0
O294 O 0.98865 0.03214 0.56121 0.0
O295 O 0.02837 0.01074 0.58682 0.0
O296 O 0.01293 0.00029 0.5195 0.0
C297 C -0.00134 0.04404 0.53617 0.0
O298 O 0.01673 0.04641 0.54803 0.0
O299 O 0.00981 0.04206 0.66254 0.0
C300 C 0.99819 0.96031 0.64168 0.0
O301 O 0.98057 0.95779 0.62592 0.0
O302 O 0.00882 0.97228 0.6188 0.0
O303 O 0.97024 0.99441 0.59132 0.0
O304 O 0.98664 0.00325 0.65858 0.0
O305 O 0.9882 0.96215 0.51628 0.0
C306 C 0.02818 0.00659 0.53949 0.0
C307 C 0.97104 -0.00248 0.63929 0.0
Zn308 Zn 0.4688 0.00563 0.58937 0.0
Zn309 Zn 0.52749 0.00122 0.60124 0.0
C310 C 0.44845 0.01681 0.67977 0.0
O311 O 0.45163 -0.0007 0.69143 0.0
C312 C 0.55347 -0.00347 0.51438 0.0
O313 O 0.55211 0.01474 0.51184 0.0
O314 O 0.44852 0.00105 0.53842 0.0
O315 O 0.49243 0.01443 0.54848 0.0
O316 O 0.51928 0.02622 0.57621 0.0
C317 C 0.44461 0.01596 0.51455 0.0
O318 O 0.45395 0.03134 0.52569 0.0
O319 O 0.45621 0.02379 0.63926 0.0
C320 C 0.54758 0.98842 0.68194 0.0
O321 O 0.53921 0.97362 0.66277 0.0
O322 O 0.54467 0.00414 0.66107 0.0
O323 O 0.50455 0.98608 0.62397 0.0
O324 O 0.47353 0.98142 0.62507 0.0
O325 O 0.54338 0.98758 0.54757 0.0
C326 C 0.50319 0.02861 0.55495 0.0
C327 C 0.49009 0.97649 0.63839 0.0
Zn328 Zn 0.49383 0.4815 0.62213 0.0
Zn329 Zn 0.4996 0.51814 0.56008 0.0
C330 C 0.50679 0.45212 0.68255 0.0
O331 O 0.52256 0.46131 0.66998 0.0
C332 C 0.488 0.54794 0.50055 0.0
O333 O 0.47192 0.53987 0.51575 0.0
O334 O 0.50925 0.47144 0.56398 0.0
O335 O 0.46815 0.48879 0.59344 0.0
O336 O 0.4823 0.50017 0.52373 0.0
C337 C 0.50031 0.45853 0.54107 0.0
O338 O 0.48274 0.45427 0.55545 0.0
O339 O 0.49085 0.45872 0.66834 0.0
C340 C 0.49371 0.5434 0.63708 0.0
O341 O 0.51159 0.54682 0.62407 0.0
O342 O 0.48466 0.53017 0.61592 0.0
O343 O 0.52481 0.5103 0.59108 0.0
O344 O 0.50964 0.50012 0.6604 0.0
O345 O 0.50369 0.54013 0.51167 0.0
C346 C 0.46767 0.49292 0.54576 0.0
C347 C 0.52447 0.50739 0.63944 0.0
Zn348 Zn 0.01945 0.49107 0.62609 0.0
Zn349 Zn 0.97657 0.51051 0.57086 0.0
C350 C 0.04826 0.48794 0.69958 0.0
O351 O 0.04975 0.50543 0.68464 0.0
C352 C 0.94086 0.51459 0.5192 0.0
O353 O 0.93735 0.49905 0.54484 0.0
O354 O 0.04007 0.49442 0.57422 0.0
O355 O -0.00027 0.47363 0.59517 0.0
O356 O 0.9906 0.49165 0.53096 0.0
C357 C 0.0415 0.5017 0.52972 0.0
O358 O 0.02661 0.50908 0.50729 0.0
O359 O 0.03449 0.4781 0.6824 0.0
C360 C 0.96005 0.50387 0.67394 0.0
O361 O 0.97533 0.51224 0.69182 0.0
O362 O 0.95975 0.4992 0.62707 0.0
O363 O 0.99201 0.53145 0.59955 0.0
O364 O 0.0131 0.51694 0.64874 0.0
O365 O 0.95738 0.52219 0.5219 0.0
C366 C 0.99675 0.47619 0.54751 0.0
C367 C 0.00449 0.53162 0.63474 0.0
C368 C 0.13841 0.08515 0.24315 0.0
C369 C 0.15022 0.07409 0.21235 0.0
C370 C 0.12486 0.07696 0.27628 0.0
C371 C 0.09374 0.03833 0.30334 0.0
H372 H 0.10581 0.04468 0.44727 0.0
C373 C 0.04753 0.00225 0.45992 0.0
C374 C 0.04449 0.0118 0.50579 0.0
C375 C 0.06142 0.0085 0.4247 0.0
C376 C 0.10195 0.04298 0.40742 0.0
H377 H 0.15584 0.04569 0.18979 0.0
H378 H 0.13137 0.03153 0.24597 0.0
H379 H 0.12625 0.05914 0.38145 0.0
H380 H 0.05402 0.03497 0.55184 0.0
H381 H 0.07728 0.04666 0.48932 0.0
H382 H 0.06893 0.0231 0.32843 0.0
C383 C 0.13308 0.04654 0.24493 0.0
C384 C 0.11378 0.05118 0.36978 0.0
C385 C 0.14697 0.0547 0.2125 0.0
C386 C 0.05606 0.02733 0.51672 0.0
C387 C 0.06954 0.03395 0.4808 0.0
C388 C 0.0816 0.0305 0.34094 0.0
C389 C 0.12243 0.05758 0.27825 0.0
C390 C 0.10976 0.04889 0.31755 0.0
C391 C 0.07221 0.02481 0.43378 0.0
C392 C 0.08552 0.03268 0.39364 0.0
H393 H 0.1401 0.10015 0.24309 0.0
H394 H 0.11656 0.08572 0.30126 0.0
H395 H 0.09038 0.03649 0.26316 0.0
H396 H 0.03897 0.99006 0.45094 0.0
H397 H 0.06344 0.00065 0.38998 0.0
C398 C 0.52075 0.13847 0.19433 0.0
C399 C 0.53709 0.14951 0.20248 0.0
C400 C 0.51665 0.12327 0.22702 0.0
C401 C 0.5363 0.09491 0.33588 0.0
H402 H 0.48334 0.09329 0.38144 0.0
C403 C 0.51349 0.0605 0.52635 0.0
C404 C 0.50201 0.04458 0.51872 0.0
C405 C 0.5159 0.07379 0.48714 0.0
C406 C 0.49814 0.09365 0.3689 0.0
H407 H 0.56271 0.15274 0.24767 0.0
H408 H 0.55566 0.12653 0.30475 0.0
H409 H 0.49271 0.11319 0.30827 0.0
H410 H 0.48321 0.03071 0.46481 0.0
H411 H 0.48667 0.05448 0.39756 0.0
H412 H 0.54175 0.07599 0.3982 0.0
C413 C 0.546 0.1292 0.27325 0.0
C414 C 0.50351 0.10481 0.32664 0.0
C415 C 0.55011 0.14424 0.24051 0.0
C416 C 0.49178 0.04299 0.47259 0.0
C417 C 0.49388 0.0565 0.4338 0.0
C418 C 0.53098 0.08408 0.37862 0.0
C419 C 0.52878 0.11905 0.26846 0.0
C420 C 0.5227 0.10568 0.30979 0.0
C421 C 0.50657 0.07155 0.44006 0.0
C422 C 0.51192 0.08347 0.39561 0.0
H423 H 0.51045 0.14245 0.16546 0.0
H424 H 0.50348 0.11547 0.2215 0.0
H425 H 0.55111 0.09495 0.32358 0.0
H426 H 0.52149 0.06214 0.56153 0.0
H427 H 0.52567 0.08541 0.49272 0.0
C428 C 0.35405 0.41475 0.26522 0.0
C429 C 0.34257 0.4262 0.23426 0.0
C430 C 0.36806 0.42244 0.29679 0.0
C431 C 0.38148 0.46769 0.35642 0.0
H432 H 0.42579 0.43998 0.4003 0.0
C433 C 0.44747 0.49641 0.46772 0.0
C434 C 0.45131 0.48698 0.51409 0.0
C435 C 0.43336 0.48976 0.4347 0.0
C436 C 0.41338 0.44777 0.3885 0.0
H437 H 0.33804 0.45475 0.20953 0.0
H438 H 0.36335 0.468 0.26152 0.0
H439 H 0.40477 0.42706 0.33516 0.0
H440 H 0.4431 0.46348 0.56296 0.0
H441 H 0.41888 0.45142 0.50389 0.0
H442 H 0.39091 0.48879 0.40845 0.0
C443 C 0.36088 0.4531 0.26347 0.0
C444 C 0.40125 0.44038 0.35131 0.0
C445 C 0.34657 0.44543 0.23265 0.0
C446 C 0.44041 0.47105 0.52752 0.0
C447 C 0.42665 0.46411 0.49377 0.0
C448 C 0.3939 0.47525 0.39273 0.0
C449 C 0.37138 0.4418 0.2974 0.0
C450 C 0.385 0.45014 0.33497 0.0
C451 C 0.42319 0.47332 0.4469 0.0
C452 C 0.40982 0.46527 0.40933 0.0
H453 H 0.35176 0.39982 0.26662 0.0
H454 H 0.37566 0.41316 0.3223 0.0
H455 H 0.36895 0.4755 0.346 0.0
H456 H 0.45561 0.50877 0.45654 0.0
H457 H 0.43091 0.49705 0.39867 0.0
C458 C 0.98173 0.36303 0.21252 0.0
C459 C 0.99764 0.35266 0.19774 0.0
C460 C 0.98373 0.37734 0.24787 0.0
C461 C 0.01336 0.3911 0.3561 0.0
H462 H 0.98764 0.43825 0.34101 0.0
C463 C -0.00023 0.44267 0.52281 0.0
C464 C 0.00113 0.46169 0.50993 0.0
C465 C 0.00177 0.42927 0.48461 0.0
C466 C 0.99507 0.42522 0.34566 0.0
H467 H 0.02819 0.34939 0.20702 0.0
H468 H 0.0317 0.37449 0.2688 0.0
H469 H 0.98649 0.41601 0.27141 0.0
H470 H 0.00727 0.48159 0.44838 0.0
H471 H 0.01117 0.45837 0.38253 0.0
H472 H 0.02182 0.40034 0.43071 0.0
C473 C 0.0177 0.37151 0.25311 0.0
C474 C 0.99426 0.41244 0.30595 0.0
C475 C 0.01573 0.35735 0.21728 0.0
C476 C 0.00573 0.46704 0.45921 0.0
C477 C 0.00792 0.45374 0.42143 0.0
C478 C 0.01407 0.40387 0.39612 0.0
C479 C 0.00165 0.38137 0.26953 0.0
C480 C 0.00334 0.39525 0.31078 0.0
C481 C 0.00532 0.43476 0.43326 0.0
C482 C 0.00494 0.42108 0.39121 0.0
H483 H 0.96763 0.35962 0.19809 0.0
H484 H 0.9711 0.38468 0.26 0.0
H485 H 0.0203 0.37782 0.36104 0.0
H486 H 0.9963 0.4382 0.56172 0.0
H487 H -0.00032 0.41472 0.49481 0.0
C488 C 0.86165 0.94764 0.98262 0.0
C489 C 0.84919 0.93295 0.97023 0.0
C490 C 0.87676 0.95258 0.94933 0.0
C491 C 0.8866 0.95215 0.81206 0.0
H492 H 0.93763 0.96855 0.8487 0.0
C493 C 0.94236 0.97731 0.65986 0.0
C494 C 0.95544 0.99127 0.67425 0.0
C495 C 0.92968 0.96943 0.69613 0.0
C496 C 0.92333 0.96428 0.83787 0.0
H497 H 0.84345 0.91094 0.91633 0.0
H498 H 0.86993 0.91938 0.85861 0.0
H499 H 0.9165 0.95497 0.91456 0.0
H500 H 0.96451 0.00893 0.7366 0.0
H501 H 0.94183 -0.00408 0.79893 0.0
H502 H 0.89301 0.96198 0.73594 0.0
C503 C 0.86793 0.92727 0.89334 0.0
C504 C 0.91131 0.95637 0.87562 0.0
C505 C 0.85293 0.92234 0.92652 0.0
C506 C 0.95478 -0.00201 0.72458 0.0
C507 C 0.94191 0.99037 0.7605 0.0
C508 C 0.89851 0.96025 0.77446 0.0
C509 C 0.87948 0.94292 0.90325 0.0
C510 C 0.89281 0.95029 0.86311 0.0
C511 C 0.92958 0.97561 0.74723 0.0
C512 C 0.91699 0.96656 0.78692 0.0
H513 H 0.85886 0.95611 0.01583 0.0
H514 H 0.88544 0.96474 0.95783 0.0
H515 H 0.87227 0.94786 0.80145 0.0
H516 H 0.94257 0.97182 0.62134 0.0
H517 H 0.92048 0.95803 0.68448 0.0
C518 C 0.44555 0.85802 0.9418 0.0
C519 C 0.45767 0.8532 0.98254 0.0
C520 C 0.44999 0.87324 0.91003 0.0
C521 C 0.4769 0.91573 0.88766 0.0
H522 H 0.48552 0.89594 0.75158 0.0
C523 C 0.50235 0.96308 0.72008 0.0
C524 C 0.49192 0.96086 0.67469 0.0
C525 C 0.50113 0.9496 0.7592 0.0
C526 C 0.48309 0.90172 0.78922 0.0
H527 H 0.48248 0.86174 0.02608 0.0
H528 H 0.48998 0.8889 0.97084 0.0
H529 H 0.475 0.87519 0.82138 0.0
H530 H 0.47245 0.9429 0.63358 0.0
H531 H 0.47007 0.91943 0.70178 0.0
H532 H 0.48419 0.94243 0.8551 0.0
C533 C 0.47727 0.88063 0.96325 0.0
C534 C 0.47708 0.88985 0.82907 0.0
C535 C 0.47292 0.8652 0.99492 0.0
C536 C 0.4808 0.94473 0.66809 0.0
C537 C 0.47954 0.93128 0.70711 0.0
C538 C 0.48269 0.92771 0.84749 0.0
C539 C 0.46644 0.88404 0.91899 0.0
C540 C 0.47362 0.89682 0.8783 0.0
C541 C 0.48926 0.93381 0.7537 0.0
C542 C 0.48552 0.92086 0.79761 0.0
H543 H 0.43354 0.8491 0.93194 0.0
H544 H 0.44129 0.87584 0.87646 0.0
H545 H 0.47436 0.92132 0.92547 0.0
H546 H 0.51044 0.97575 0.72674 0.0
H547 H 0.50891 0.95188 0.79443 0.0
C548 C 0.64889 0.58466 0.89291 0.0
C549 C 0.65229 0.57534 0.9397 0.0
C550 C 0.63325 0.57976 0.86284 0.0
C551 C 0.58766 0.55336 0.85882 0.0
H552 H 0.60372 0.54277 0.71945 0.0
C553 C 0.54067 0.50963 0.72439 0.0
C554 C 0.53985 0.51492 0.67229 0.0
C555 C 0.55392 0.51794 0.75705 0.0
C556 C 0.59885 0.54591 0.75789 0.0
H557 H 0.64126 0.55469 0.99386 0.0
H558 H 0.61363 0.54608 0.94119 0.0
H559 H 0.62619 0.55713 0.77831 0.0
H560 H 0.55266 0.53277 0.6133 0.0
H561 H 0.57558 0.54757 0.6705 0.0
H562 H 0.56028 0.54219 0.83838 0.0
C563 C 0.62312 0.55719 0.92782 0.0
C564 C 0.61176 0.55415 0.79169 0.0
C565 C 0.63886 0.56212 0.95804 0.0
C566 C 0.55298 0.52833 0.65321 0.0
C567 C 0.56614 0.5368 0.68605 0.0
C568 C 0.57467 0.54525 0.82485 0.0
C569 C 0.62066 0.56542 0.87893 0.0
C570 C 0.60636 0.55782 0.84264 0.0
C571 C 0.5666 0.53187 0.73857 0.0
C572 C 0.58018 0.54121 0.77411 0.0
H573 H 0.65898 0.59505 0.87825 0.0
H574 H 0.63149 0.58662 0.82588 0.0
H575 H 0.58306 0.55619 0.89771 0.0
H576 H 0.53089 0.49917 0.74017 0.0
H577 H 0.55419 0.51342 0.79689 0.0
C578 C 0.01527 0.63564 0.99552 0.0
C579 C -0.00012 0.6478 -0.00029 0.0
C580 C 0.01488 0.62158 0.95918 0.0
C581 C 0.98498 0.59803 0.86105 0.0
H582 H 0.03305 0.59773 0.78573 0.0
C583 C 0.99194 0.56163 0.66734 0.0
C584 C 0.00646 0.54831 0.66671 0.0
C585 C 0.99152 0.57501 0.70561 0.0
C586 C 0.01958 0.59766 0.80647 0.0
H587 H 0.97153 0.65418 0.97268 0.0
H588 H 0.97086 0.62979 0.9085 0.0
H589 H 0.03039 0.61601 0.86337 0.0
H590 H 0.03291 0.53971 0.7024 0.0
H591 H 0.03228 0.56322 0.76873 0.0
H592 H 0.97416 0.57983 0.80331 0.0
C593 C 0.9831 0.63079 0.9336 0.0
C594 C 0.01807 0.60795 0.85125 0.0
C595 C 0.98341 0.64471 0.9705 0.0
C596 C 0.02144 0.54966 0.70221 0.0
C597 C 0.02111 0.56316 0.7401 0.0
C598 C 0.98646 0.58784 0.81597 0.0
C599 C -0.00073 0.61974 0.92577 0.0
C600 C 0.00082 0.60812 0.87936 0.0
C601 C 0.00576 0.57545 0.74333 0.0
C602 C 0.00381 0.58748 0.78852 0.0
H603 H 0.02815 0.63794 0.01758 0.0
H604 H 0.02733 0.61292 0.95503 0.0
H605 H 0.97152 0.59783 0.88185 0.0
H606 H 0.98023 0.561 0.64038 0.0
H607 H 0.9797 0.58457 0.70688 0.0
C608 C 0.01632 0.18284 0.33243 0.0
C609 C 0.00335 0.19742 0.32609 0.0
C610 C 0.01087 0.16671 0.35933 0.0
C611 C 0.98103 0.14276 0.44957 0.0
H612 H 0.98137 0.10294 0.35028 0.0
C613 C 0.97333 0.06677 0.51523 0.0
C614 C 0.98996 0.05741 0.50088 0.0
C615 C 0.96844 0.0833 0.48987 0.0
C616 C 0.98094 0.11393 0.37829 0.0
H617 H 0.97539 0.20746 0.34805 0.0
H618 H 0.96609 0.17923 0.39638 0.0
H619 H 0.98777 0.13497 0.32189 0.0
H620 H 0.01339 0.05652 0.44641 0.0
H621 H 0.00467 0.08493 0.40125 0.0
H622 H 0.97555 0.12155 0.50661 0.0
C623 C 0.98029 0.1803 0.37966 0.0
C624 C 0.98466 0.13218 0.36213 0.0
C625 C 0.98568 0.19644 0.35226 0.0
C626 C 0.00048 0.06357 0.45786 0.0
C627 C 0.99542 0.07981 0.43201 0.0
C628 C 0.97744 0.1244 0.46592 0.0
C629 C 0.9925 0.16503 0.38091 0.0
C630 C 0.98547 0.14656 0.39791 0.0
C631 C 0.97995 0.09034 0.4494 0.0
C632 C 0.97818 0.10975 0.43064 0.0
H633 H 0.03019 0.18339 0.31368 0.0
H634 H 0.02058 0.15511 0.3607 0.0
H635 H 0.98152 0.15375 0.47759 0.0
H636 H 0.96515 0.06226 0.54875 0.0
H637 H 0.95639 0.09113 0.50376 0.0
C638 C 0.31164 0.07398 0.27261 0.0
C639 C 0.3071 0.09046 0.29777 0.0
C640 C 0.32388 0.06125 0.2951 0.0
C641 C 0.34734 0.04766 0.41627 0.0
H642 H 0.38709 0.0306 0.32429 0.0
C643 C 0.41147 0.00673 0.49087 0.0
C644 C 0.42835 0.01685 0.47978 0.0
C645 C 0.39478 0.01064 0.46392 0.0
C646 C 0.37591 0.03501 0.35019 0.0
H647 H 0.31089 0.10645 0.36675 0.0
H648 H 0.3332 0.08432 0.40607 0.0
H649 H 0.36089 0.04874 0.29002 0.0
H650 H 0.44178 0.03754 0.42968 0.0
H651 H 0.41283 0.04404 0.38171 0.0
H652 H 0.36316 0.03476 0.47688 0.0
C653 C 0.327 0.08114 0.36915 0.0
C654 C 0.36087 0.04535 0.33068 0.0
C655 C 0.31447 0.09387 0.34667 0.0
C656 C 0.42883 0.02969 0.43888 0.0
C657 C 0.41232 0.0333 0.41132 0.0
C658 C 0.36241 0.03724 0.43581 0.0
C659 C 0.33202 0.06483 0.34309 0.0
C660 C 0.34671 0.05221 0.36369 0.0
C661 C 0.395 0.02435 0.42496 0.0
C662 C 0.3771 0.03136 0.40306 0.0
H663 H 0.30568 0.07097 0.23526 0.0
H664 H 0.32713 0.04866 0.2746 0.0
H665 H 0.33647 0.05255 0.44243 0.0
H666 H 0.41086 -0.0032 0.52256 0.0
H667 H 0.38156 0.00356 0.47488 0.0
C668 C 0.5274 0.31895 0.32182 0.0
C669 C 0.54504 0.31001 0.32332 0.0
C670 C 0.52482 0.33538 0.34841 0.0
C671 C 0.54298 0.36684 0.44617 0.0
H672 H 0.52315 0.40466 0.35361 0.0
C673 C 0.52924 0.44146 0.51316 0.0
C674 C 0.5101 0.44629 0.50525 0.0
C675 C 0.537 0.42644 0.48709 0.0
C676 C 0.52878 0.39427 0.37979 0.0
H677 H 0.57335 0.31006 0.35622 0.0
H678 H 0.56879 0.33904 0.40365 0.0
H679 H 0.52848 0.37334 0.32242 0.0
H680 H 0.48457 0.44061 0.46125 0.0
H681 H 0.49816 0.41473 0.41498 0.0
H682 H 0.54264 0.38773 0.50405 0.0
C683 C 0.55701 0.33332 0.38187 0.0
C684 C 0.5317 0.37635 0.36211 0.0
C685 C 0.5596 0.3168 0.35502 0.0
C686 C 0.49936 0.43704 0.46797 0.0
C687 C 0.50718 0.42229 0.44141 0.0
C688 C 0.53997 0.38483 0.464 0.0
C689 C 0.53991 0.34316 0.37665 0.0
C690 C 0.53831 0.36236 0.39547 0.0
C691 C 0.52579 0.41637 0.45221 0.0
C692 C 0.53237 0.39856 0.43123 0.0
H693 H 0.51603 0.31383 0.29745 0.0
H694 H 0.51136 0.34254 0.34471 0.0
H695 H 0.54816 0.35627 0.47247 0.0
H696 H 0.53772 0.44838 0.54207 0.0
H697 H 0.55144 0.42221 0.49569 0.0
C698 C 0.16742 0.40922 0.36699 0.0
C699 C 0.18407 0.41783 0.34715 0.0
C700 C 0.15306 0.41997 0.38874 0.0
C701 C 0.13224 0.46542 0.3759 0.0
H702 H 0.10968 0.45592 0.51025 0.0
C703 C 0.05981 0.49401 0.45046 0.0
C704 C 0.05959 0.49918 0.50219 0.0
C705 C 0.0764 0.48661 0.42907 0.0
C706 C 0.11595 0.45879 0.47275 0.0
H707 H 0.19899 0.44418 0.33476 0.0
H708 H 0.17375 0.46294 0.372 0.0
H709 H 0.13602 0.43671 0.48077 0.0
H710 H 0.07668 0.50263 0.57063 0.0
H711 H 0.10562 0.49001 0.53312 0.0
H712 H 0.11189 0.4873 0.36754 0.0
C713 C 0.17192 0.44795 0.37128 0.0
C714 C 0.13086 0.44772 0.45587 0.0
C715 C 0.18639 0.43722 0.35059 0.0
C716 C 0.07652 0.49854 0.53072 0.0
C717 C 0.09301 0.49123 0.50945 0.0
C718 C 0.1171 0.47633 0.39248 0.0
C719 C 0.15502 0.43945 0.38962 0.0
C720 C 0.13917 0.45102 0.40746 0.0
C721 C 0.09282 0.48439 0.45932 0.0
C722 C 0.10895 0.47317 0.44121 0.0
H723 H 0.16533 0.3943 0.36433 0.0
H724 H 0.14008 0.41317 0.40276 0.0
H725 H 0.13839 0.46807 0.33816 0.0
H726 H 0.04683 0.49424 0.42798 0.0
H727 H 0.07597 0.48141 0.39025 0.0
C728 C 0.01539 0.80793 0.82491 0.0
C729 C 0.9985 0.80537 0.85385 0.0
C730 C 0.01866 0.82459 0.79759 0.0
C731 C 0.00817 0.87227 0.81887 0.0
H732 H 0.02301 0.88376 0.67822 0.0
C733 C 0.99372 0.94074 0.71912 0.0
C734 C 0.00579 0.94723 0.6795 0.0
C735 C 0.99812 0.9246 0.7463 0.0
C736 C 0.01942 0.88071 0.71802 0.0
H737 H 0.97074 0.81676 0.87127 0.0
H738 H 0.97647 0.84583 0.82368 0.0
H739 H 0.01831 0.85122 0.70553 0.0
H740 H 0.03265 0.94322 0.63965 0.0
H741 H 0.04036 0.9146 0.68719 0.0
H742 H 0.00883 0.90158 0.83148 0.0
C743 C 0.9873 0.8352 0.82298 0.0
C744 C 0.01654 0.86215 0.73332 0.0
C745 C 0.984 0.8186 0.84995 0.0
C746 C 0.02323 0.93842 0.67043 0.0
C747 C 0.02752 0.92202 0.69719 0.0
C748 C 0.01122 0.89072 0.80381 0.0
C749 C 0.00507 0.83873 0.79924 0.0
C750 C 0.01018 0.85791 0.78334 0.0
C751 C 0.01454 0.91455 0.7337 0.0
C752 C 0.01615 0.89518 0.75276 0.0
H753 H 0.02676 0.79789 0.82731 0.0
H754 H 0.0324 0.82703 0.77906 0.0
H755 H 0.00374 0.86921 0.85809 0.0
H756 H 0.9802 0.94742 0.72659 0.0
H757 H 0.98777 0.91916 0.77399 0.0
C758 C 0.67419 0.9031 0.85439 0.0
C759 C 0.69251 0.91114 0.85821 0.0
C760 C 0.65985 0.91242 0.8281 0.0
C761 C 0.64673 0.96041 0.80286 0.0
H762 H 0.60356 0.93718 0.73535 0.0
C763 C 0.58011 -0.00381 0.71347 0.0
C764 C 0.56303 0.98583 0.71876 0.0
C765 C 0.5969 0.98949 0.73522 0.0
C766 C 0.61548 0.94379 0.75465 0.0
H767 H 0.71076 0.93424 0.83299 0.0
H768 H 0.68574 0.95031 0.78606 0.0
H769 H 0.63226 0.91926 0.75073 0.0
H770 H 0.54913 0.9623 0.75705 0.0
H771 H 0.57835 0.95084 0.79605 0.0
H772 H 0.62972 0.985 0.80653 0.0
C773 C 0.6824 0.93702 0.80439 0.0
C774 C 0.63192 0.93358 0.76306 0.0
C775 C 0.69676 0.92768 0.83069 0.0
C776 C 0.56228 0.97028 0.7518 0.0
C777 C 0.57896 0.96371 0.77384 0.0
C778 C 0.63025 0.9707 0.79404 0.0
C779 C 0.66361 0.92993 0.80513 0.0
C780 C 0.64753 0.94162 0.78838 0.0
C781 C 0.59656 0.9725 0.76253 0.0
C782 C 0.61434 0.96226 0.77116 0.0
H783 H 0.67063 0.89024 0.87473 0.0
H784 H 0.64549 0.90658 0.82932 0.0
H785 H 0.65848 0.96692 0.82303 0.0
H786 H 0.58093 0.0083 0.68821 0.0
H787 H 0.61033 -0.00343 0.72645 0.0
C788 C 0.46774 0.68815 0.83782 0.0
C789 C 0.45215 0.69024 0.87141 0.0
C790 C 0.46844 0.67289 0.80522 0.0
C791 C 0.45177 0.6249 0.80495 0.0
H792 H 0.47282 0.62425 0.66685 0.0
C793 C 0.48889 0.56224 0.71464 0.0
C794 C 0.48341 0.55762 0.66479 0.0
C795 C 0.48154 0.57805 0.7376 0.0
C796 C 0.4667 0.6243 0.70519 0.0
H797 H 0.42435 0.67914 0.89413 0.0
H798 H 0.42554 0.65251 0.83709 0.0
H799 H 0.46625 0.65411 0.70731 0.0
H800 H 0.46631 0.56551 0.59921 0.0
H801 H 0.45381 0.59362 0.63894 0.0
H802 H 0.4529 0.59515 0.80359 0.0
C803 C 0.43738 0.66241 0.83672 0.0
C804 C 0.46308 0.64132 0.72837 0.0
C805 C 0.4367 0.67759 0.86932 0.0
C806 C 0.47031 0.56871 0.63827 0.0
C807 C 0.46335 0.5848 0.66067 0.0
C808 C 0.45561 0.60794 0.78207 0.0
C809 C 0.45353 0.65955 0.80572 0.0
C810 C 0.45576 0.64175 0.77869 0.0
C811 C 0.46913 0.5897 0.71022 0.0
C812 C 0.46331 0.60752 0.73232 0.0
H813 H 0.47985 0.6977 0.83884 0.0
H814 H 0.48112 0.67096 0.78193 0.0
H815 H 0.44637 0.62482 0.84405 0.0
H816 H 0.49928 0.55395 0.73508 0.0
H817 H 0.4863 0.58169 0.77572 0.0
C818 C 0.83347 0.59366 0.83366 0.0
C819 C 0.81438 0.58738 0.83338 0.0
C820 C 0.84753 0.58395 0.80749 0.0
C821 C 0.8564 0.53615 0.76542 0.0
H822 H 0.90438 0.55852 0.71939 0.0
C823 C 0.92437 0.50072 0.67693 0.0
C824 C 0.94153 0.50634 0.70053 0.0
C825 C 0.90695 0.5082 0.69234 0.0
C826 C 0.89102 0.55214 0.73221 0.0
H827 H 0.79479 0.56703 0.80106 0.0
H828 H 0.81922 0.55064 0.75345 0.0
H829 H 0.87719 0.57835 0.73674 0.0
H830 H 0.95348 0.52224 0.76328 0.0
H831 H 0.92308 0.53527 0.78979 0.0
H832 H 0.87048 0.50985 0.75983 0.0
C833 C 0.82343 0.56267 0.77548 0.0
C834 C 0.87547 0.56345 0.74219 0.0
C835 C 0.80937 0.57228 0.80215 0.0
C836 C 0.94061 0.51779 0.74377 0.0
C837 C 0.92325 0.52535 0.75884 0.0
C838 C 0.87193 0.52478 0.75449 0.0
C839 C 0.84278 0.56788 0.77979 0.0
C840 C 0.85814 0.55567 0.76054 0.0
C841 C 0.90651 0.52134 0.73153 0.0
C842 C 0.88949 0.53279 0.7394 0.0
H843 H 0.83774 0.60546 0.85654 0.0
H844 H 0.86227 0.5884 0.81192 0.0
H845 H 0.84336 0.52966 0.77998 0.0
H846 H 0.92454 0.4917 0.64398 0.0
H847 H 0.89412 0.50486 0.67105 0.0
C848 C 0.98579 0.20358 0.87678 0.0
C849 C 0.00388 0.21196 0.88283 0.0
C850 C 0.98375 0.1875 0.84763 0.0
C851 C 0.00708 0.15669 0.75447 0.0
H852 H 0.98316 0.11714 0.83624 0.0
C853 C 0.01351 0.07901 0.70219 0.0
C854 C 0.99674 0.06809 0.7066 0.0
C855 C 0.01411 0.09707 0.72159 0.0
C856 C 0.98965 0.12804 0.81254 0.0
H857 H 0.03362 0.21127 0.85946 0.0
H858 H 0.03 0.18335 0.80759 0.0
H859 H 0.98333 0.14888 0.86769 0.0
H860 H 0.96768 0.06729 0.73622 0.0
H861 H 0.96873 0.09866 0.76997 0.0
H862 H 0.01343 0.13578 0.6993 0.0
C863 C 0.01745 0.18907 0.82574 0.0
C864 C 0.98969 0.14625 0.8305 0.0
C865 C 0.01954 0.205 0.85544 0.0
C866 C 0.98082 0.07537 0.73212 0.0
C867 C 0.98145 0.09334 0.75169 0.0
C868 C 0.00693 0.13845 0.73627 0.0
C869 C -0.00028 0.17968 0.82354 0.0
C870 C 0.99846 0.16075 0.8018 0.0
C871 C 0.998 0.10451 0.74608 0.0
C872 C 0.99829 0.1239 0.76526 0.0
H873 H 0.97352 0.20859 0.89777 0.0
H874 H 0.96987 0.18066 0.84599 0.0
H875 H 0.0139 0.16762 0.73155 0.0
H876 H 0.026 0.07381 0.68259 0.0
H877 H 0.02718 0.10522 0.71732 0.0
C878 C 0.30357 0.05774 0.914 0.0
C879 C 0.29595 0.07546 0.90495 0.0
C880 C 0.31968 0.05193 0.88672 0.0
C881 C 0.34991 0.06031 0.77187 0.0
H882 H 0.39056 0.04225 0.85901 0.0
C883 C 0.42493 0.04297 0.689 0.0
C884 C 0.43334 0.02672 0.70861 0.0
C885 C 0.40866 0.05034 0.71281 0.0
C886 C 0.37934 0.04703 0.83385 0.0
H887 H 0.29845 0.10046 0.85768 0.0
H888 H 0.32643 0.09017 0.80941 0.0
H889 H 0.36011 0.05065 0.89712 0.0
H890 H 0.43169 0.00599 0.76997 0.0
H891 H 0.40355 0.01848 0.81047 0.0
H892 H 0.36896 0.05623 0.70835 0.0
C893 C 0.32005 0.08086 0.83797 0.0
C894 C 0.36184 0.05185 0.85582 0.0
C895 C 0.30407 0.08676 0.86572 0.0
C896 C 0.42564 0.01853 0.75369 0.0
C897 C 0.40945 0.02581 0.77724 0.0
C898 C 0.36737 0.05523 0.74969 0.0
C899 C 0.3284 0.06363 0.84934 0.0
C900 C 0.34687 0.05842 0.82513 0.0
C901 C 0.40048 0.04163 0.75676 0.0
C902 C 0.38231 0.04836 0.78036 0.0
H903 H 0.29775 0.04875 0.94418 0.0
H904 H 0.32566 0.03847 0.89586 0.0
H905 H 0.33861 0.06532 0.74724 0.0
H906 H 0.43045 0.04961 0.65425 0.0
H907 H 0.40237 0.06272 0.69635 0.0
C908 C 0.51841 0.29545 0.87786 0.0
C909 C 0.53778 0.29168 0.88733 0.0
C910 C 0.5133 0.31111 0.84854 0.0
C911 C 0.53058 0.35768 0.83285 0.0
H912 H 0.49706 0.36421 0.71619 0.0
C913 C 0.52574 0.42778 0.72742 0.0
C914 C 0.50807 0.43367 0.70833 0.0
C915 C 0.52773 0.40993 0.74825 0.0
C916 C 0.5062 0.36261 0.74932 0.0
H917 H 0.5669 0.30002 0.86801 0.0
H918 H 0.55796 0.32751 0.81817 0.0
H919 H 0.5036 0.33271 0.74911 0.0
H920 H 0.4785 0.42544 0.69661 0.0
H921 H 0.48192 0.39415 0.73387 0.0
H922 H 0.53298 0.3873 0.83448 0.0
C923 C 0.54677 0.31849 0.83388 0.0
C924 C 0.51002 0.34461 0.76782 0.0
C925 C 0.55186 0.30278 0.86252 0.0
C926 C 0.49229 0.42135 0.7113 0.0
C927 C 0.49429 0.40337 0.73216 0.0
C928 C 0.5266 0.37557 0.81495 0.0
C929 C 0.52749 0.32325 0.82861 0.0
C930 C 0.52257 0.34203 0.80911 0.0
C931 C 0.51209 0.39743 0.75075 0.0
C932 C 0.51469 0.37831 0.77229 0.0
H933 H 0.50719 0.28723 0.89647 0.0
H934 H 0.49833 0.3145 0.84487 0.0
H935 H 0.53995 0.35605 0.86554 0.0
H936 H 0.53823 0.43687 0.72563 0.0
H937 H 0.54172 0.4058 0.76135 0.0
C938 C 0.18732 0.41262 0.89795 0.0
C939 C 0.19833 0.42532 0.92626 0.0
C940 C 0.17249 0.4188 0.86659 0.0
C941 C 0.15037 0.46086 0.80781 0.0
H942 H 0.1033 0.43232 0.82708 0.0
C943 C 0.0775 0.49118 0.75336 0.0
C944 C 0.06414 0.47955 0.72896 0.0
C945 C 0.09405 0.48389 0.77499 0.0
C946 C 0.11635 0.44034 0.82064 0.0
H947 H 0.20323 0.45458 0.9411 0.0
H948 H 0.17732 0.46541 0.88646 0.0
H949 H 0.13284 0.42105 0.86448 0.0
H950 H 0.05746 0.45098 0.70952 0.0
H951 H 0.08651 0.43818 0.74721 0.0
H952 H 0.13378 0.48028 0.76455 0.0
C953 C 0.18018 0.45065 0.88824 0.0
C954 C 0.13335 0.43385 0.842 0.0
C955 C 0.19509 0.44445 0.91954 0.0
C956 C 0.06739 0.46029 0.72843 0.0
C957 C 0.08407 0.45298 0.74994 0.0
C958 C 0.13336 0.46735 0.78643 0.0
C959 C 0.16824 0.43783 0.86287 0.0
C960 C 0.15056 0.44412 0.83638 0.0
C961 C 0.09779 0.46476 0.7726 0.0
C962 C 0.11606 0.45731 0.79319 0.0
H963 H 0.18969 0.3978 0.90172 0.0
H964 H 0.16394 0.40857 0.84652 0.0
H965 H 0.16338 0.469 0.80203 0.0
H966 H 0.07536 0.50606 0.75482 0.0
H967 H 0.10402 0.49332 0.79329 0.0
C968 C 0.01259 0.7987 0.32747 0.0
C969 C 0.9972 0.79166 0.29903 0.0
C970 C 0.01018 0.81407 0.35893 0.0
C971 C 0.98195 0.8561 0.36206 0.0
H972 H 0.00772 0.86424 0.49133 0.0
C973 C 0.98198 0.92726 0.46545 0.0
C974 C -0.00025 0.93312 0.48482 0.0
C975 C 0.97951 0.90917 0.447 0.0
C976 C 0.0005 0.8622 0.45512 0.0
H977 H 0.96706 0.79444 0.28287 0.0
H978 H 0.9628 0.82148 0.33783 0.0
H979 H 0.00664 0.83306 0.45519 0.0
H980 H 0.02886 0.9246 0.49979 0.0
H981 H 0.02457 0.89328 0.46756 0.0
H982 H 0.97637 0.88533 0.36105 0.0
C983 C 0.97671 0.81508 0.33589 0.0
C984 C -0.00017 0.84434 0.43458 0.0
C985 C 0.97908 0.79952 0.30496 0.0
C986 C 0.01498 0.92058 0.48504 0.0
C987 C 0.01248 0.90253 0.46705 0.0
C988 C 0.98266 0.87397 0.38255 0.0
C989 C 0.99238 0.82288 0.36189 0.0
C990 C 0.99087 0.84116 0.38733 0.0
C991 C 0.9947 0.89655 0.44808 0.0
C992 C 0.9923 0.8773 0.42877 0.0
H993 H 0.02672 0.79291 0.32315 0.0
H994 H 0.02256 0.81981 0.37819 0.0
H995 H 0.97519 0.85416 0.32517 0.0
H996 H 0.96996 0.93659 0.46486 0.0
H997 H 0.96562 0.90497 0.43274 0.0
C998 C 0.69082 0.91792 0.31457 0.0
C999 C 0.70194 0.93046 0.28442 0.0
C1000 C 0.67482 0.92404 0.34191 0.0
C1001 C 0.63929 0.96117 0.33537 0.0
H1002 H 0.62491 0.94531 0.47334 0.0
C1003 C 0.57971 -0.00266 0.44825 0.0
C1004 C 0.56833 0.98704 0.48346 0.0
C1005 C 0.59508 0.98915 0.42301 0.0
C1006 C 0.62852 0.94965 0.43444 0.0
H1007 H 0.70541 0.95949 0.26185 0.0
H1008 H 0.67783 0.97015 0.31013 0.0
H1009 H 0.65437 0.93386 0.43471 0.0
H1010 H 0.56382 0.95968 0.51801 0.0
H1011 H 0.5905 0.94524 0.47315 0.0
H1012 H 0.6135 0.97674 0.33441 0.0
C1013 C 0.6813 0.95552 0.31192 0.0
C1014 C 0.64549 0.94314 0.41244 0.0
C1015 C 0.69731 0.94943 0.28482 0.0
C1016 C 0.57232 0.96807 0.49129 0.0
C1017 C 0.58774 0.95983 0.46589 0.0
C1018 C 0.62231 0.96753 0.3571 0.0
C1019 C 0.66952 0.94283 0.33951 0.0
C1020 C 0.65124 0.9491 0.36295 0.0
C1021 C 0.59953 0.97035 0.43196 0.0
C1022 C 0.61682 0.96215 0.40731 0.0
H1023 H 0.6941 0.90324 0.31568 0.0
H1024 H 0.66609 0.91391 0.36292 0.0
H1025 H 0.64303 0.96564 0.29664 0.0
H1026 H 0.5771 0.01197 0.44113 0.0
H1027 H 0.60389 -0.00218 0.39776 0.0
C1028 C 0.45411 0.70201 0.33262 0.0
C1029 C 0.46795 0.71101 0.30133 0.0
C1030 C 0.45869 0.6861 0.36123 0.0
C1031 C 0.4921 0.64719 0.35601 0.0
H1032 H 0.46884 0.63334 0.48684 0.0
C1033 C 0.50425 0.57577 0.45849 0.0
C1034 C 0.48759 0.56692 0.4777 0.0
C1035 C 0.50368 0.59418 0.44005 0.0
C1036 C 0.4754 0.63701 0.45019 0.0
H1037 H 0.49779 0.71102 0.27819 0.0
H1038 H 0.50589 0.68351 0.329 0.0
H1039 H 0.46505 0.66489 0.45268 0.0
H1040 H 0.45726 0.57045 0.49238 0.0
H1041 H 0.45635 0.60234 0.46054 0.0
H1042 H 0.50216 0.61919 0.35321 0.0
C1043 C 0.49139 0.68857 0.33071 0.0
C1044 C 0.47323 0.65507 0.43065 0.0
C1045 C 0.48681 0.70451 0.30218 0.0
C1046 C 0.47037 0.57679 0.47771 0.0
C1047 C 0.46986 0.59517 0.45993 0.0
C1048 C 0.49432 0.62914 0.37567 0.0
C1049 C 0.47724 0.67881 0.35917 0.0
C1050 C 0.48127 0.6603 0.38287 0.0
C1051 C 0.48651 0.60414 0.4412 0.0
C1052 C 0.48568 0.62375 0.4225 0.0
H1053 H 0.43948 0.70677 0.33307 0.0
H1054 H 0.4474 0.67893 0.38256 0.0
H1055 H 0.49823 0.65063 0.31871 0.0
H1056 H 0.51773 0.56855 0.4581 0.0
H1057 H 0.51675 0.60076 0.42588 0.0
C1058 C 0.81924 0.57799 0.23222 0.0
C1059 C 0.80017 0.57687 0.24953 0.0
C1060 C 0.83416 0.57213 0.26354 0.0
C1061 C 0.84487 0.54225 0.37569 0.0
H1062 H 0.89248 0.5706 0.37576 0.0
C1063 C 0.90641 0.52178 0.50965 0.0
C1064 C 0.9252 0.52352 0.49077 0.0
C1065 C 0.8912 0.52943 0.48256 0.0
C1066 C 0.87939 0.56238 0.3758 0.0
H1067 H 0.78176 0.56855 0.31319 0.0
H1068 H 0.80799 0.55848 0.36876 0.0
H1069 H 0.86569 0.58161 0.32496 0.0
H1070 H 0.94295 0.5348 0.42916 0.0
H1071 H 0.91626 0.54754 0.38022 0.0
H1072 H 0.85859 0.52282 0.42558 0.0
C1073 C 0.81134 0.56376 0.33054 0.0
C1074 C 0.86398 0.56873 0.34673 0.0
C1075 C 0.79632 0.56955 0.29888 0.0
C1076 C 0.92858 0.53335 0.44458 0.0
C1077 C 0.91326 0.54071 0.41677 0.0
C1078 C 0.8603 0.53584 0.40452 0.0
C1079 C 0.83045 0.56503 0.31322 0.0
C1080 C 0.84655 0.5587 0.34608 0.0
C1081 C 0.89432 0.5387 0.43522 0.0
C1082 C 0.87782 0.54578 0.40491 0.0
H1083 H 0.82262 0.58315 0.19388 0.0
H1084 H 0.84861 0.57287 0.2484 0.0
H1085 H 0.83178 0.53402 0.3755 0.0
H1086 H 0.90346 0.51455 0.54573 0.0
H1087 H 0.87697 0.52805 0.49886 0.0
loop_
_geom_bond_atom_site_label_1
_geom_bond_atom_site_label_2
_geom_bond_distance
_geom_bond_site_symmetry_2
_ccdc_geom_bond_type
C0 C1 1.384 . S
C0 H13 0.947 . S
C0 C35 1.382 . S
C1 C0 1.384 . S
C1 C2 1.378 . S
C2 C1 1.378 . S
C2 C3 1.378 . S
C2 H14 0.952 . S
C3 C2 1.378 . S
C3 H15 0.950 . S
C3 C34 1.383 . S
H4 C23 0.947 . S
H5 C24 0.946 . S
H6 C26 0.953 . S
H7 C27 0.945 . S
H8 C29 0.952 . S
H9 C30 0.949 . S
H10 C32 0.950 . S
H11 C33 0.948 . S
H12 C35 0.951 . S
H13 C0 0.947 . S
H14 C2 0.952 . S
H15 C3 0.950 . S
N16 C19 1.382 1_554 S
N16 C21 1.363 . S
N17 C19 1.371 . S
N17 C20 1.372 . S
N18 C20 1.361 1_554 S
N18 C21 1.377 . S
C19 N16 1.382 1_556 S
C19 N17 1.371 . S
C19 C22 1.480 . S
C20 N17 1.372 . S
C20 N18 1.361 1_556 S
C20 C28 1.457 . S
C21 N16 1.363 . S
C21 N18 1.377 . S
C21 C34 1.479 . S
C22 C19 1.480 . S
C22 C23 1.383 1_556 S
C22 C27 1.385 . S
C23 H4 0.947 . S
C23 C22 1.383 1_554 S
C23 C24 1.388 . S
C24 H5 0.946 . S
C24 C23 1.388 . S
C24 C25 1.384 1_554 S
C25 C24 1.384 1_556 S
C25 C26 1.377 . S
C26 H6 0.953 . S
C26 C25 1.377 . S
C26 C27 1.369 . S
C27 H7 0.945 . S
C27 C22 1.385 . S
C27 C26 1.369 . S
C28 C20 1.457 . S
C28 C29 1.372 . S
C28 C33 1.364 . S
C29 H8 0.952 . S
C29 C28 1.372 . S
C29 C30 1.389 . S
C30 H9 0.949 . S
C30 C29 1.389 . S
C30 C31 1.387 . S
C31 C30 1.387 . S
C31 C32 1.372 . S
C32 H10 0.950 . S
C32 C31 1.372 . S
C32 C33 1.379 . S
C33 H11 0.948 . S
C33 C28 1.364 . S
C33 C32 1.379 . S
C34 C3 1.383 . S
C34 C21 1.479 . S
C34 C35 1.398 . S
C35 C0 1.382 . S
C35 H12 0.951 . S
C35 C34 1.398 . S
C36 C37 1.383 1_655 S
C36 H49 0.948 . S
C36 C71 1.382 1_655 S
C37 C36 1.383 1_455 S
C37 C38 1.378 . S
C38 C37 1.378 . S
C38 C39 1.378 . S
C38 H50 0.952 . S
C39 C38 1.378 . S
C39 H51 0.950 . S
C39 C70 1.383 . S
H40 C59 0.947 . S
H41 C60 0.951 . S
H42 C62 0.953 . S
H43 C63 0.945 . S
H44 C65 0.949 1_655 S
H45 C66 0.956 . S
H46 C68 0.950 . S
H47 C69 0.948 1_554 S
H48 C71 0.952 1_655 S
H49 C36 0.948 . S
H50 C38 0.952 . S
H51 C39 0.950 . S
N52 C55 1.382 . S
N52 C57 1.363 . S
N53 C55 1.371 1_556 S
N53 C56 1.372 . S
N54 C56 1.361 1_554 S
N54 C57 1.377 . S
C55 N52 1.382 . S
C55 N53 1.371 1_554 S
C55 C58 1.480 . S
C56 N53 1.372 . S
C56 N54 1.361 1_556 S
C56 C64 1.457 . S
C57 N52 1.363 . S
C57 N54 1.377 . S
C57 C70 1.479 . S
C58 C55 1.480 . S
C58 C59 1.383 . S
C58 C63 1.385 1_554 S
C59 H40 0.947 . S
C59 C58 1.383 . S
C59 C60 1.386 1_455 S
C60 H41 0.951 . S
C60 C59 1.386 1_655 S
C60 C61 1.381 1_654 S
C61 C60 1.381 1_456 S
C61 C62 1.377 . S
C62 H42 0.953 . S
C62 C61 1.377 . S
C62 C63 1.369 . S
C63 H43 0.945 . S
C63 C58 1.385 1_556 S
C63 C62 1.369 . S
C64 C56 1.457 . S
C64 C65 1.376 . S
C64 C69 1.364 . S
C65 H44 0.949 1_455 S
C65 C64 1.376 . S
C65 C66 1.386 1_455 S
C66 H45 0.956 . S
C66 C65 1.386 1_655 S
C66 C67 1.383 1_655 S
C67 C66 1.383 1_455 S
C67 C68 1.372 . S
C68 H46 0.950 . S
C68 C67 1.372 . S
C68 C69 1.379 . S
C69 H47 0.948 1_556 S
C69 C64 1.364 . S
C69 C68 1.379 . S
C70 C39 1.383 . S
C70 C57 1.479 . S
C70 C71 1.398 . S
C71 C36 1.382 1_455 S
C71 H48 0.952 1_455 S
C71 C70 1.398 . S
C72 C73 1.384 . S
C72 H85 0.947 . S
C72 C107 1.382 . S
C73 C72 1.384 . S
C73 C74 1.378 . S
C74 C73 1.378 . S
C74 C75 1.378 . S
C74 H86 0.952 . S
C75 C74 1.378 . S
C75 H87 0.950 . S
C75 C106 1.383 . S
H76 C95 0.947 . S
H77 C96 0.946 . S
H78 C98 0.953 . S
H79 C99 0.945 . S
H80 C101 0.952 . S
H81 C102 0.949 . S
H82 C104 0.950 . S
H83 C105 0.948 1_554 S
H84 C107 0.951 . S
H85 C72 0.947 . S
H86 C74 0.952 . S
H87 C75 0.950 . S
N88 C91 1.382 . S
N88 C93 1.363 . S
N89 C91 1.371 1_556 S
N89 C92 1.372 . S
N90 C92 1.361 1_554 S
N90 C93 1.377 . S
C91 N88 1.382 . S
C91 N89 1.371 1_554 S
C91 C94 1.480 . S
C92 N89 1.372 . S
C92 N90 1.361 1_556 S
C92 C100 1.457 . S
C93 N88 1.363 . S
C93 N90 1.377 . S
C93 C106 1.479 . S
C94 C91 1.480 . S
C94 C95 1.383 . S
C94 C99 1.385 1_554 S
C95 H76 0.947 . S
C95 C94 1.383 . S
C95 C96 1.388 . S
C96 H77 0.946 . S
C96 C95 1.388 . S
C96 C97 1.384 1_554 S
C97 C96 1.384 1_556 S
C97 C98 1.377 . S
C98 H78 0.953 . S
C98 C97 1.377 . S
C98 C99 1.369 . S
C99 H79 0.945 . S
C99 C94 1.385 1_556 S
C99 C98 1.369 . S
C100 C92 1.457 . S
C100 C101 1.372 . S
C100 C105 1.364 . S
C101 H80 0.952 . S
C101 C100 1.372 . S
C101 C102 1.389 . S
C102 H81 0.949 . S
C102 C101 1.389 . S
C102 C103 1.387 . S
C103 C102 1.387 . S
C103 C104 1.372 . S
C104 H82 0.950 . S
C104 C103 1.372 . S
C104 C105 1.379 . S
C105 H83 0.948 1_556 S
C105 C100 1.364 . S
C105 C104 1.379 . S
C106 C75 1.383 . S
C106 C93 1.479 . S
C106 C107 1.398 . S
C107 C72 1.382 . S
C107 H84 0.951 . S
C107 C106 1.398 . S
C108 C109 1.384 . S
C108 H121 0.947 . S
C108 C143 1.382 . S
C109 C108 1.384 . S
C109 C110 1.378 . S
C110 C109 1.378 . S
C110 C111 1.378 . S
C110 H122 0.952 . S
C111 C110 1.378 . S
C111 H123 0.950 . S
C111 C142 1.383 . S
H112 C131 0.947 . S
H113 C132 0.946 . S
H114 C134 0.953 . S
H115 C135 0.945 . S
H116 C137 0.952 . S
H117 C138 0.949 . S
H118 C140 0.950 . S
H119 C141 0.948 . S
H120 C143 0.951 1_554 S
H121 C108 0.947 . S
H122 C110 0.952 . S
H123 C111 0.950 . S
N124 C127 1.382 1_556 S
N124 C129 1.363 1_556 S
N125 C127 1.371 . S
N125 C128 1.372 . S
N126 C128 1.361 . S
N126 C129 1.377 . S
C127 N124 1.382 1_554 S
C127 N125 1.371 . S
C127 C130 1.480 . S
C128 N125 1.372 . S
C128 N126 1.361 . S
C128 C136 1.457 . S
C129 N124 1.363 1_554 S
C129 N126 1.377 . S
C129 C142 1.479 1_554 S
C130 C127 1.480 . S
C130 C131 1.383 1_554 S
C130 C135 1.385 . S
C131 H112 0.947 . S
C131 C130 1.383 1_556 S
C131 C132 1.388 . S
C132 H113 0.946 . S
C132 C131 1.388 . S
C132 C133 1.384 . S
C133 C132 1.384 . S
C133 C134 1.377 1_556 S
C134 H114 0.953 . S
C134 C133 1.377 1_554 S
C134 C135 1.369 . S
C135 H115 0.945 . S
C135 C130 1.385 . S
C135 C134 1.369 . S
C136 C128 1.457 . S
C136 C137 1.372 . S
C136 C141 1.364 . S
C137 H116 0.952 . S
C137 C136 1.372 . S
C137 C138 1.389 . S
C138 H117 0.949 . S
C138 C137 1.389 . S
C138 C139 1.387 . S
C139 C138 1.387 . S
C139 C140 1.372 . S
C140 H118 0.950 . S
C140 C139 1.372 . S
C140 C141 1.379 . S
C141 H119 0.948 . S
C141 C136 1.364 . S
C141 C140 1.379 . S
C142 C111 1.383 . S
C142 C129 1.479 1_556 S
C142 C143 1.398 . S
C143 C108 1.382 . S
C143 H120 0.951 1_556 S
C143 C142 1.398 . S
C144 C145 1.384 1_554 S
C144 H157 0.947 . S
C144 C179 1.382 . S
C145 C144 1.384 1_556 S
C145 C146 1.378 . S
C146 C145 1.378 . S
C146 C147 1.378 1_556 S
C146 H158 0.952 . S
C147 C146 1.378 1_554 S
C147 H159 0.950 . S
C147 C178 1.383 . S
H148 C167 0.947 . S
H149 C168 0.946 . S
H150 C170 0.953 . S
H151 C171 0.945 . S
H152 C173 0.952 . S
H153 C174 0.949 . S
H154 C176 0.950 . S
H155 C177 0.948 . S
H156 C179 0.951 . S
H157 C144 0.947 . S
H158 C146 0.952 . S
H159 C147 0.950 . S
N160 C163 1.382 . S
N160 C165 1.363 . S
N161 C163 1.371 . S
N161 C164 1.372 . S
N162 C164 1.361 . S
N162 C165 1.377 . S
C163 N160 1.382 . S
C163 N161 1.371 . S
C163 C166 1.480 . S
C164 N161 1.372 . S
C164 N162 1.361 . S
C164 C172 1.457 . S
C165 N160 1.363 . S
C165 N162 1.377 . S
C165 C178 1.479 . S
C166 C163 1.480 . S
C166 C167 1.383 . S
C166 C171 1.385 . S
C167 H148 0.947 . S
C167 C166 1.383 . S
C167 C168 1.388 . S
C168 H149 0.946 . S
C168 C167 1.388 . S
C168 C169 1.384 . S
C169 C168 1.384 . S
C169 C170 1.377 . S
C170 H150 0.953 . S
C170 C169 1.377 . S
C170 C171 1.369 . S
C171 H151 0.945 . S
C171 C166 1.385 . S
C171 C170 1.369 . S
C172 C164 1.457 . S
C172 C173 1.372 . S
C172 C177 1.364 . S
C173 H152 0.952 . S
C173 C172 1.372 . S
C173 C174 1.389 . S
C174 H153 0.949 . S
C174 C173 1.389 . S
C174 C175 1.387 . S
C175 C174 1.387 . S
C175 C176 1.372 . S
C176 H154 0.950 . S
C176 C175 1.372 . S
C176 C177 1.379 . S
C177 H155 0.948 . S
C177 C172 1.364 . S
C177 C176 1.379 . S
C178 C147 1.383 . S
C178 C165 1.479 . S
C178 C179 1.398 . S
C179 C144 1.382 . S
C179 H156 0.951 . S
C179 C178 1.398 . S
C180 C181 1.384 . S
C180 H193 0.948 1_455 S
C180 C215 1.382 1_556 S
C181 C180 1.384 . S
C181 C182 1.378 . S
C182 C181 1.378 . S
C182 C183 1.378 1_556 S
C182 H194 0.952 . S
C183 C182 1.378 1_554 S
C183 H195 0.950 . S
C183 C214 1.383 . S
H184 C203 0.947 . S
H185 C204 0.949 . S
H186 C206 0.953 . S
H187 C207 0.945 . S
H188 C209 0.947 1_655 S
H189 C210 0.954 . S
H190 C212 0.950 . S
H191 C213 0.948 . S
H192 C215 0.950 1_655 S
H193 C180 0.948 1_655 S
H194 C182 0.952 . S
H195 C183 0.950 . S
N196 C199 1.382 . S
N196 C201 1.363 . S
N197 C199 1.371 . S
N197 C200 1.372 . S
N198 C200 1.361 . S
N198 C201 1.377 . S
C199 N196 1.382 . S
C199 N197 1.371 . S
C199 C202 1.480 . S
C200 N197 1.372 . S
C200 N198 1.361 . S
C200 C208 1.457 . S
C201 N196 1.363 . S
C201 N198 1.377 . S
C201 C214 1.479 . S
C202 C199 1.480 . S
C202 C203 1.383 . S
C202 C207 1.385 . S
C203 H184 0.947 . S
C203 C202 1.383 . S
C203 C204 1.387 1_455 S
C204 H185 0.949 . S
C204 C203 1.387 1_655 S
C204 C205 1.383 1_655 S
C205 C204 1.383 1_455 S
C205 C206 1.377 . S
C206 H186 0.953 . S
C206 C205 1.377 . S
C206 C207 1.369 . S
C207 H187 0.945 . S
C207 C202 1.385 . S
C207 C206 1.369 . S
C208 C200 1.457 . S
C208 C209 1.379 . S
C208 C213 1.364 . S
C209 H188 0.947 1_455 S
C209 C208 1.379 . S
C209 C210 1.387 1_455 S
C210 H189 0.954 . S
C210 C209 1.387 1_655 S
C210 C211 1.383 1_655 S
C211 C210 1.383 1_455 S
C211 C212 1.372 . S
C212 H190 0.950 . S
C212 C211 1.372 . S
C212 C213 1.379 . S
C213 H191 0.948 . S
C213 C208 1.364 . S
C213 C212 1.379 . S
C214 C183 1.383 . S
C214 C201 1.479 . S
C214 C215 1.399 . S
C215 C180 1.382 1_554 S
C215 H192 0.950 1_455 S
C215 C214 1.399 . S
C216 C217 1.384 . S
C216 H229 0.947 . S
C216 C251 1.382 1_556 S
C217 C216 1.384 . S
C217 C218 1.378 . S
C218 C217 1.378 . S
C218 C219 1.378 1_556 S
C218 H230 0.952 . S
C219 C218 1.378 1_554 S
C219 H231 0.950 . S
C219 C250 1.383 . S
H220 C239 0.947 . S
H221 C240 0.946 . S
H222 C242 0.953 . S
H223 C243 0.945 . S
H224 C245 0.952 . S
H225 C246 0.949 . S
H226 C248 0.950 . S
H227 C249 0.948 . S
H228 C251 0.951 . S
H229 C216 0.947 . S
H230 C218 0.952 . S
H231 C219 0.950 . S
N232 C235 1.382 . S
N232 C237 1.363 . S
N233 C235 1.371 . S
N233 C236 1.372 . S
N234 C236 1.361 . S
N234 C237 1.377 . S
C235 N232 1.382 . S
C235 N233 1.371 . S
C235 C238 1.480 . S
C236 N233 1.372 . S
C236 N234 1.361 . S
C236 C244 1.457 . S
C237 N232 1.363 . S
C237 N234 1.377 . S
C237 C250 1.479 . S
C238 C235 1.480 . S
C238 C239 1.383 . S
C238 C243 1.385 . S
C239 H220 0.947 . S
C239 C238 1.383 . S
C239 C240 1.388 . S
C240 H221 0.946 . S
C240 C239 1.388 . S
C240 C241 1.384 . S
C241 C240 1.384 . S
C241 C242 1.377 . S
C242 H222 0.953 . S
C242 C241 1.377 . S
C242 C243 1.369 . S
C243 H223 0.945 . S
C243 C238 1.385 . S
C243 C242 1.369 . S
C244 C236 1.457 . S
C244 C245 1.372 . S
C244 C249 1.364 . S
C245 H224 0.952 . S
C245 C244 1.372 . S
C245 C246 1.389 . S
C246 H225 0.949 . S
C246 C245 1.389 . S
C246 C247 1.387 . S
C247 C246 1.387 . S
C247 C248 1.372 . S
C248 H226 0.950 . S
C248 C247 1.372 . S
C248 C249 1.379 . S
C249 H227 0.948 . S
C249 C244 1.364 . S
C249 C248 1.379 . S
C250 C219 1.383 . S
C250 C237 1.479 . S
C250 C251 1.398 . S
C251 C216 1.382 1_554 S
C251 H228 0.951 . S
C251 C250 1.398 . S
C252 C253 1.384 . S
C252 H265 0.947 . S
C252 C287 1.382 . S
C253 C252 1.384 . S
C253 C254 1.378 . S
C254 C253 1.378 . S
C254 C255 1.378 . S
C254 H266 0.952 . S
C255 C254 1.378 . S
C255 H267 0.950 . S
C255 C286 1.383 . S
H256 C275 0.947 . S
H257 C276 0.946 . S
H258 C278 0.953 . S
H259 C279 0.945 . S
H260 C281 0.952 . S
H261 C282 0.949 . S
H262 C284 0.950 . S
H263 C285 0.948 . S
H264 C287 0.951 . S
H265 C252 0.947 . S
H266 C254 0.952 . S
H267 C255 0.950 . S
N268 C271 1.382 . S
N268 C273 1.363 . S
N269 C271 1.371 . S
N269 C272 1.372 . S
N270 C272 1.361 . S
N270 C273 1.377 . S
C271 N268 1.382 . S
C271 N269 1.371 . S
C271 C274 1.480 . S
C272 N269 1.372 . S
C272 N270 1.361 . S
C272 C280 1.457 . S
C273 N268 1.363 . S
C273 N270 1.377 . S
C273 C286 1.479 . S
C274 C271 1.480 . S
C274 C275 1.383 . S
C274 C279 1.385 . S
C275 H256 0.947 . S
C275 C274 1.383 . S
C275 C276 1.388 . S
C276 H257 0.946 . S
C276 C275 1.388 . S
C276 C277 1.384 . S
C277 C276 1.384 . S
C277 C278 1.377 . S
C278 H258 0.953 . S
C278 C277 1.377 . S
C278 C279 1.369 . S
C279 H259 0.945 . S
C279 C274 1.385 . S
C279 C278 1.369 . S
C280 C272 1.457 . S
C280 C281 1.372 . S
C280 C285 1.364 . S
C281 H260 0.952 . S
C281 C280 1.372 . S
C281 C282 1.389 1_554 S
C282 H261 0.949 . S
C282 C281 1.389 1_556 S
C282 C283 1.387 . S
C283 C282 1.387 . S
C283 C284 1.372 . S
C284 H262 0.950 . S
C284 C283 1.372 . S
C284 C285 1.379 1_556 S
C285 H263 0.948 . S
C285 C280 1.364 . S
C285 C284 1.379 1_554 S
C286 C255 1.383 . S
C286 C273 1.479 . S
C286 C287 1.398 . S
C287 C252 1.382 . S
C287 H264 0.951 . S
C287 C286 1.398 . S
Zn288 O294 1.969 . S
Zn288 O295 1.965 1_655 S
Zn288 O299 2.024 1_655 S
Zn288 O304 1.969 . S
Zn289 O296 1.969 . S
Zn289 O302 1.969 . S
Zn289 O303 1.965 1_455 S
Zn289 O305 2.024 1_455 S
C290 O291 1.229 1_455 S
C290 O299 1.058 . S
O291 C290 1.229 1_655 S
C292 O293 1.229 1_655 S
C292 O305 1.058 . S
O293 C292 1.229 1_455 S
O294 Zn288 1.969 . S
O294 C297 1.267 . S
O295 Zn288 1.965 1_455 S
O295 C306 1.260 . S
O296 Zn289 1.969 . S
O296 C306 1.258 1_565 S
C297 O294 1.267 . S
C297 O298 1.228 1_655 S
O298 C297 1.228 1_455 S
O299 Zn288 2.024 1_455 S
O299 C290 1.058 . S
C300 O301 1.228 1_455 S
C300 O302 1.267 . S
O301 C300 1.228 1_655 S
O302 Zn289 1.969 . S
O302 C300 1.267 . S
O303 Zn289 1.965 1_655 S
O303 C307 1.260 1_565 S
O304 Zn288 1.969 . S
O304 C307 1.258 . S
O305 Zn289 2.024 1_655 S
O305 C292 1.058 . S
C306 O295 1.260 . S
C306 O296 1.258 1_545 S
C307 O303 1.260 1_545 S
C307 O304 1.258 . S
Zn308 O314 1.969 . S
Zn308 O315 1.965 . S
Zn308 O319 2.024 . S
Zn308 O324 1.969 1_545 S
Zn309 O316 1.983 . S
Zn309 O322 1.974 . S
Zn309 O323 1.960 1_545 S
Zn309 O325 2.014 1_545 S
C310 O311 1.229 . S
C310 O319 1.058 . S
O311 C310 1.229 . S
C312 O313 1.235 . S
C312 O325 1.058 . S
O313 C312 1.235 . S
O314 Zn308 1.969 . S
O314 C317 1.267 . S
O315 Zn308 1.965 . S
O315 C326 1.260 . S
O316 Zn309 1.983 . S
O316 C326 1.258 . S
C317 O314 1.267 . S
C317 O318 1.228 . S
O318 C317 1.228 . S
O319 Zn308 2.024 . S
O319 C310 1.058 . S
C320 O321 1.228 . S
C320 O322 1.267 1_565 S
O321 C320 1.228 . S
O322 Zn309 1.974 . S
O322 C320 1.267 1_545 S
O323 Zn309 1.960 1_565 S
O323 C327 1.260 . S
O324 Zn308 1.969 1_565 S
O324 C327 1.258 . S
O325 Zn309 2.014 1_565 S
O325 C312 1.058 . S
C326 O315 1.260 . S
C326 O316 1.258 . S
C327 O323 1.260 . S
C327 O324 1.258 . S
Zn328 O334 1.969 . S
Zn328 O335 1.965 . S
Zn328 O339 2.024 . S
Zn328 O344 1.969 . S
Zn329 O336 1.969 . S
Zn329 O342 1.969 . S
Zn329 O343 1.965 . S
Zn329 O345 2.024 . S
C330 O331 1.229 . S
C330 O339 1.058 . S
O331 C330 1.229 . S
C332 O333 1.229 . S
C332 O345 1.058 . S
O333 C332 1.229 . S
O334 Zn328 1.969 . S
O334 C337 1.267 . S
O335 Zn328 1.965 . S
O335 C346 1.260 . S
O336 Zn329 1.969 . S
O336 C346 1.258 . S
C337 O334 1.267 . S
C337 O338 1.228 . S
O338 C337 1.228 . S
O339 Zn328 2.024 . S
O339 C330 1.058 . S
C340 O341 1.228 . S
C340 O342 1.267 . S
O341 C340 1.228 . S
O342 Zn329 1.969 . S
O342 C340 1.267 . S
O343 Zn329 1.965 . S
O343 C347 1.260 . S
O344 Zn328 1.969 . S
O344 C347 1.258 . S
O345 Zn329 2.024 . S
O345 C332 1.058 . S
C346 O335 1.260 . S
C346 O336 1.258 . S
C347 O343 1.260 . S
C347 O344 1.258 . S
Zn348 O354 1.969 . S
Zn348 O355 1.965 . S
Zn348 O359 2.024 . S
Zn348 O364 1.969 . S
Zn349 O356 1.969 . S
Zn349 O362 1.969 . S
Zn349 O363 1.965 . S
Zn349 O365 2.024 . S
C350 O351 1.229 . S
C350 O359 1.058 . S
O351 C350 1.229 . S
C352 O353 1.229 . S
C352 O365 1.058 . S
O353 C352 1.229 . S
O354 Zn348 1.969 . S
O354 C357 1.267 . S
O355 Zn348 1.965 . S
O355 C366 1.260 1_455 S
O356 Zn349 1.969 . S
O356 C366 1.258 . S
C357 O354 1.267 . S
C357 O358 1.228 . S
O358 C357 1.228 . S
O359 Zn348 2.024 . S
O359 C350 1.058 . S
C360 O361 1.228 . S
C360 O362 1.267 . S
O361 C360 1.228 . S
O362 Zn349 1.969 . S
O362 C360 1.267 . S
O363 Zn349 1.965 . S
O363 C367 1.260 1_655 S
O364 Zn348 1.969 . S
O364 C367 1.258 . S
O365 Zn349 2.024 . S
O365 C352 1.058 . S
C366 O355 1.260 1_655 S
C366 O356 1.258 . S
C367 O363 1.260 1_455 S
C367 O364 1.258 . S
C368 C369 1.349 . S
C368 C370 1.327 . S
C368 H393 0.950 . S
C369 C368 1.349 . S
C369 C385 1.349 . S
C370 C368 1.327 . S
C370 C389 1.429 . S
C370 H394 0.950 . S
C371 C388 1.574 . S
C371 C390 1.368 . S
C371 H395 0.949 . S
H372 C376 0.949 . S
C373 C374 1.349 . S
C373 C375 1.327 . S
C373 H396 0.950 1_545 S
C374 C373 1.349 . S
C374 C386 1.349 . S
C375 C373 1.327 . S
C375 C391 1.429 . S
C375 H397 0.950 . S
C376 H372 0.949 . S
C376 C384 1.574 . S
C376 C392 1.368 . S
H377 C385 0.950 . S
H378 C383 0.950 . S
H379 C384 0.949 . S
H380 C386 0.950 . S
H381 C387 0.950 . S
H382 C388 0.949 . S
C383 H378 0.950 . S
C383 C385 1.327 . S
C383 C389 1.429 . S
C384 C376 1.574 . S
C384 H379 0.949 . S
C384 C390 1.368 . S
C385 C369 1.349 . S
C385 H377 0.950 . S
C385 C383 1.327 . S
C386 C374 1.349 . S
C386 H380 0.950 . S
C386 C387 1.327 . S
C387 H381 0.950 . S
C387 C386 1.327 . S
C387 C391 1.429 . S
C388 C371 1.574 . S
C388 H382 0.949 . S
C388 C392 1.368 . S
C389 C370 1.429 . S
C389 C383 1.429 . S
C389 C390 1.523 . S
C390 C371 1.368 . S
C390 C384 1.368 . S
C390 C389 1.523 . S
C391 C375 1.429 . S
C391 C387 1.429 . S
C391 C392 1.523 . S
C392 C376 1.368 . S
C392 C388 1.368 . S
C392 C391 1.523 . S
H393 C368 0.950 . S
H394 C370 0.950 . S
H395 C371 0.949 . S
H396 C373 0.950 1_565 S
H397 C375 0.950 . S
C398 C399 1.349 . S
C398 C400 1.327 . S
C398 H423 0.950 . S
C399 C398 1.349 . S
C399 C415 1.349 . S
C400 C398 1.327 . S
C400 C419 1.429 . S
C400 H424 0.950 . S
C401 C418 1.574 . S
C401 C420 1.368 . S
C401 H425 0.949 . S
H402 C406 0.949 . S
C403 C404 1.349 . S
C403 C405 1.327 . S
C403 H426 0.950 . S
C404 C403 1.349 . S
C404 C416 1.349 . S
C405 C403 1.327 . S
C405 C421 1.429 . S
C405 H427 0.950 . S
C406 H402 0.949 . S
C406 C414 1.574 . S
C406 C422 1.368 . S
H407 C415 0.950 . S
H408 C413 0.950 . S
H409 C414 0.949 . S
H410 C416 0.950 . S
H411 C417 0.950 . S
H412 C418 0.949 . S
C413 H408 0.950 . S
C413 C415 1.327 . S
C413 C419 1.429 . S
C414 C406 1.574 . S
C414 H409 0.949 . S
C414 C420 1.368 . S
C415 C399 1.349 . S
C415 H407 0.950 . S
C415 C413 1.327 . S
C416 C404 1.349 . S
C416 H410 0.950 . S
C416 C417 1.327 . S
C417 H411 0.950 . S
C417 C416 1.327 . S
C417 C421 1.429 . S
C418 C401 1.574 . S
C418 H412 0.949 . S
C418 C422 1.368 . S
C419 C400 1.429 . S
C419 C413 1.429 . S
C419 C420 1.523 . S
C420 C401 1.368 . S
C420 C414 1.368 . S
C420 C419 1.523 . S
C421 C405 1.429 . S
C421 C417 1.429 . S
C421 C422 1.523 . S
C422 C406 1.368 . S
C422 C418 1.368 . S
C422 C421 1.523 . S
H423 C398 0.950 . S
H424 C400 0.950 . S
H425 C401 0.949 . S
H426 C403 0.950 . S
H427 C405 0.950 . S
C428 C429 1.349 . S
C428 C430 1.327 . S
C428 H453 0.950 . S
C429 C428 1.349 . S
C429 C445 1.349 . S
C430 C428 1.327 . S
C430 C449 1.429 . S
C430 H454 0.950 . S
C431 C448 1.574 . S
C431 C450 1.368 . S
C431 H455 0.949 . S
H432 C436 0.949 . S
C433 C434 1.349 . S
C433 C435 1.327 . S
C433 H456 0.950 . S
C434 C433 1.349 . S
C434 C446 1.349 . S
C435 C433 1.327 . S
C435 C451 1.429 . S
C435 H457 0.950 . S
C436 H432 0.949 . S
C436 C444 1.574 . S
C436 C452 1.368 . S
H437 C445 0.950 . S
H438 C443 0.950 . S
H439 C444 0.949 . S
H440 C446 0.950 . S
H441 C447 0.950 . S
H442 C448 0.949 . S
C443 H438 0.950 . S
C443 C445 1.327 . S
C443 C449 1.429 . S
C444 C436 1.574 . S
C444 H439 0.949 . S
C444 C450 1.368 . S
C445 C429 1.349 . S
C445 H437 0.950 . S
C445 C443 1.327 . S
C446 C434 1.349 . S
C446 H440 0.950 . S
C446 C447 1.327 . S
C447 H441 0.950 . S
C447 C446 1.327 . S
C447 C451 1.429 . S
C448 C431 1.574 . S
C448 H442 0.949 . S
C448 C452 1.368 . S
C449 C430 1.429 . S
C449 C443 1.429 . S
C449 C450 1.523 . S
C450 C431 1.368 . S
C450 C444 1.368 . S
C450 C449 1.523 . S
C451 C435 1.429 . S
C451 C447 1.429 . S
C451 C452 1.523 . S
C452 C436 1.368 . S
C452 C448 1.368 . S
C452 C451 1.523 . S
H453 C428 0.950 . S
H454 C430 0.950 . S
H455 C431 0.949 . S
H456 C433 0.950 . S
H457 C435 0.950 . S
C458 C459 1.351 . S
C458 C460 1.327 . S
C458 H483 0.950 . S
C459 C458 1.351 . S
C459 C475 1.347 1_655 S
C460 C458 1.327 . S
C460 C479 1.429 . S
C460 H484 0.950 . S
C461 C478 1.574 . S
C461 C480 1.368 1_455 S
C461 H485 0.949 . S
H462 C466 0.949 . S
C463 C464 1.349 1_455 S
C463 C465 1.327 . S
C463 H486 0.950 . S
C464 C463 1.349 1_655 S
C464 C476 1.349 . S
C465 C463 1.327 . S
C465 C481 1.429 1_455 S
C465 H487 0.950 . S
C466 H462 0.949 . S
C466 C474 1.574 . S
C466 C482 1.368 . S
H467 C475 0.950 . S
H468 C473 0.950 . S
H469 C474 0.949 . S
H470 C476 0.950 . S
H471 C477 0.950 . S
H472 C478 0.949 . S
C473 H468 0.950 . S
C473 C475 1.327 . S
C473 C479 1.429 1_455 S
C474 C466 1.574 . S
C474 H469 0.949 . S
C474 C480 1.368 . S
C475 C459 1.347 1_455 S
C475 H467 0.950 . S
C475 C473 1.327 . S
C476 C464 1.349 . S
C476 H470 0.950 . S
C476 C477 1.327 . S
C477 H471 0.950 . S
C477 C476 1.327 . S
C477 C481 1.429 . S
C478 C461 1.574 . S
C478 H472 0.949 . S
C478 C482 1.368 1_455 S
C479 C460 1.429 . S
C479 C473 1.429 1_655 S
C479 C480 1.523 . S
C480 C461 1.368 1_655 S
C480 C474 1.368 . S
C480 C479 1.523 . S
C481 C465 1.429 1_655 S
C481 C477 1.429 . S
C481 C482 1.523 . S
C482 C466 1.368 . S
C482 C478 1.368 1_655 S
C482 C481 1.523 . S
H483 C458 0.950 . S
H484 C460 0.950 . S
H485 C461 0.949 . S
H486 C463 0.950 . S
H487 C465 0.950 . S
C488 C489 1.349 . S
C488 C490 1.327 . S
C488 H513 0.950 . S
C489 C488 1.349 . S
C489 C505 1.349 . S
C490 C488 1.327 . S
C490 C509 1.429 . S
C490 H514 0.950 . S
C491 C508 1.574 . S
C491 C510 1.368 . S
C491 H515 0.949 . S
H492 C496 0.949 . S
C493 C494 1.349 . S
C493 C495 1.327 . S
C493 H516 0.950 . S
C494 C493 1.349 . S
C494 C506 1.359 . S
C495 C493 1.327 . S
C495 C511 1.429 . S
C495 H517 0.950 . S
C496 H492 0.949 . S
C496 C504 1.574 . S
C496 C512 1.368 . S
H497 C505 0.950 . S
H498 C503 0.950 . S
H499 C504 0.949 . S
H500 C506 0.930 1_545 S
H501 C507 0.950 . S
H502 C508 0.949 . S
C503 H498 0.950 . S
C503 C505 1.327 . S
C503 C509 1.429 . S
C504 C496 1.574 . S
C504 H499 0.949 . S
C504 C510 1.368 . S
C505 C489 1.349 . S
C505 H497 0.950 . S
C505 C503 1.327 . S
C506 C494 1.359 . S
C506 H500 0.930 1_565 S
C506 C507 1.337 . S
C507 H501 0.950 . S
C507 C506 1.337 . S
C507 C511 1.429 . S
C508 C491 1.574 . S
C508 H502 0.949 . S
C508 C512 1.368 . S
C509 C490 1.429 . S
C509 C503 1.429 . S
C509 C510 1.523 . S
C510 C491 1.368 . S
C510 C504 1.368 . S
C510 C509 1.523 . S
C511 C495 1.429 . S
C511 C507 1.429 . S
C511 C512 1.523 . S
C512 C496 1.368 . S
C512 C508 1.368 . S
C512 C511 1.523 . S
H513 C488 0.950 . S
H514 C490 0.950 . S
H515 C491 0.949 . S
H516 C493 0.950 . S
H517 C495 0.950 . S
C518 C519 1.349 . S
C518 C520 1.327 . S
C518 H543 0.950 . S
C519 C518 1.349 . S
C519 C535 1.349 . S
C520 C518 1.327 . S
C520 C539 1.429 . S
C520 H544 0.950 . S
C521 C538 1.574 . S
C521 C540 1.368 . S
C521 H545 0.949 . S
H522 C526 0.949 . S
C523 C524 1.349 . S
C523 C525 1.327 . S
C523 H546 0.950 . S
C524 C523 1.349 . S
C524 C536 1.349 . S
C525 C523 1.327 . S
C525 C541 1.429 . S
C525 H547 0.950 . S
C526 H522 0.949 . S
C526 C534 1.574 . S
C526 C542 1.368 . S
H527 C535 0.950 1_554 S
H528 C533 0.950 . S
H529 C534 0.949 . S
H530 C536 0.950 . S
H531 C537 0.950 . S
H532 C538 0.949 . S
C533 H528 0.950 . S
C533 C535 1.327 . S
C533 C539 1.429 . S
C534 C526 1.574 . S
C534 H529 0.949 . S
C534 C540 1.368 . S
C535 C519 1.349 . S
C535 H527 0.950 1_556 S
C535 C533 1.327 . S
C536 C524 1.349 . S
C536 H530 0.950 . S
C536 C537 1.327 . S
C537 H531 0.950 . S
C537 C536 1.327 . S
C537 C541 1.429 . S
C538 C521 1.574 . S
C538 H532 0.949 . S
C538 C542 1.368 . S
C539 C520 1.429 . S
C539 C533 1.429 . S
C539 C540 1.523 . S
C540 C521 1.368 . S
C540 C534 1.368 . S
C540 C539 1.523 . S
C541 C525 1.429 . S
C541 C537 1.429 . S
C541 C542 1.523 . S
C542 C526 1.368 . S
C542 C538 1.368 . S
C542 C541 1.523 . S
H543 C518 0.950 . S
H544 C520 0.950 . S
H545 C521 0.949 . S
H546 C523 0.950 . S
H547 C525 0.950 . S
C548 C549 1.349 . S
C548 C550 1.327 . S
C548 H573 0.950 . S
C549 C548 1.349 . S
C549 C565 1.349 . S
C550 C548 1.327 . S
C550 C569 1.429 . S
C550 H574 0.950 . S
C551 C568 1.574 . S
C551 C570 1.368 . S
C551 H575 0.949 . S
H552 C556 0.949 . S
C553 C554 1.349 . S
C553 C555 1.327 . S
C553 H576 0.950 . S
C554 C553 1.349 . S
C554 C566 1.349 . S
C555 C553 1.327 . S
C555 C571 1.429 . S
C555 H577 0.950 . S
C556 H552 0.949 . S
C556 C564 1.574 . S
C556 C572 1.368 . S
H557 C565 0.950 . S
H558 C563 0.950 . S
H559 C564 0.949 . S
H560 C566 0.950 . S
H561 C567 0.950 . S
H562 C568 0.949 . S
C563 H558 0.950 . S
C563 C565 1.327 . S
C563 C569 1.429 . S
C564 C556 1.574 . S
C564 H559 0.949 . S
C564 C570 1.368 . S
C565 C549 1.349 . S
C565 H557 0.950 . S
C565 C563 1.327 . S
C566 C554 1.349 . S
C566 H560 0.950 . S
C566 C567 1.327 . S
C567 H561 0.950 . S
C567 C566 1.327 . S
C567 C571 1.429 . S
C568 C551 1.574 . S
C568 H562 0.949 . S
C568 C572 1.368 . S
C569 C550 1.429 . S
C569 C563 1.429 . S
C569 C570 1.523 . S
C570 C551 1.368 . S
C570 C564 1.368 . S
C570 C569 1.523 . S
C571 C555 1.429 . S
C571 C567 1.429 . S
C571 C572 1.523 . S
C572 C556 1.368 . S
C572 C568 1.368 . S
C572 C571 1.523 . S
H573 C548 0.950 . S
H574 C550 0.950 . S
H575 C551 0.949 . S
H576 C553 0.950 . S
H577 C555 0.950 . S
C578 C579 1.352 . S
C578 C580 1.327 . S
C578 H603 0.950 . S
C579 C578 1.352 . S
C579 C595 1.346 1_455 S
C580 C578 1.327 . S
C580 C599 1.429 . S
C580 H604 0.950 . S
C581 C598 1.574 . S
C581 C600 1.368 1_655 S
C581 H605 0.949 . S
H582 C586 0.949 . S
C583 C584 1.349 1_655 S
C583 C585 1.327 . S
C583 H606 0.950 . S
C584 C583 1.349 1_455 S
C584 C596 1.349 . S
C585 C583 1.327 . S
C585 C601 1.429 1_655 S
C585 H607 0.950 . S
C586 H582 0.949 . S
C586 C594 1.574 . S
C586 C602 1.368 . S
H587 C595 0.950 . S
H588 C593 0.950 . S
H589 C594 0.949 . S
H590 C596 0.950 . S
H591 C597 0.950 . S
H592 C598 0.949 . S
C593 H588 0.950 . S
C593 C595 1.327 . S
C593 C599 1.429 1_655 S
C594 C586 1.574 . S
C594 H589 0.949 . S
C594 C600 1.368 . S
C595 C579 1.346 1_655 S
C595 H587 0.950 . S
C595 C593 1.327 . S
C596 C584 1.349 . S
C596 H590 0.950 . S
C596 C597 1.327 . S
C597 H591 0.950 . S
C597 C596 1.327 . S
C597 C601 1.429 . S
C598 C581 1.574 . S
C598 H592 0.949 . S
C598 C602 1.368 1_655 S
C599 C580 1.429 . S
C599 C593 1.429 1_455 S
C599 C600 1.523 . S
C600 C581 1.368 1_455 S
C600 C594 1.368 . S
C600 C599 1.523 . S
C601 C585 1.429 1_455 S
C601 C597 1.429 . S
C601 C602 1.523 . S
C602 C586 1.368 . S
C602 C598 1.368 1_455 S
C602 C601 1.523 . S
H603 C578 0.950 . S
H604 C580 0.950 . S
H605 C581 0.949 . S
H606 C583 0.950 . S
H607 C585 0.950 . S
C608 C609 1.365 . S
C608 C610 1.327 . S
C608 H633 0.950 . S
C609 C608 1.365 . S
C609 C625 1.331 1_455 S
C610 C608 1.327 . S
C610 C629 1.429 1_455 S
C610 H634 0.950 . S
C611 C628 1.574 . S
C611 C630 1.368 . S
C611 H635 0.949 . S
H612 C616 0.949 . S
C613 C614 1.349 . S
C613 C615 1.327 . S
C613 H636 0.950 . S
C614 C613 1.349 . S
C614 C626 1.349 . S
C615 C613 1.327 . S
C615 C631 1.429 . S
C615 H637 0.950 . S
C616 H612 0.949 . S
C616 C624 1.574 . S
C616 C632 1.368 1_455 S
H617 C625 0.950 . S
H618 C623 0.950 . S
H619 C624 0.949 . S
H620 C626 0.945 1_455 S
H621 C627 0.950 1_455 S
H622 C628 0.949 . S
C623 H618 0.950 . S
C623 C625 1.327 . S
C623 C629 1.429 . S
C624 C616 1.574 . S
C624 H619 0.949 . S
C624 C630 1.368 1_455 S
C625 C609 1.331 1_655 S
C625 H617 0.950 . S
C625 C623 1.327 . S
C626 C614 1.349 . S
C626 H620 0.945 1_655 S
C626 C627 1.327 . S
C627 H621 0.950 1_655 S
C627 C626 1.327 . S
C627 C631 1.429 . S
C628 C611 1.574 . S
C628 H622 0.949 . S
C628 C632 1.368 . S
C629 C610 1.429 1_655 S
C629 C623 1.429 . S
C629 C630 1.523 . S
C630 C611 1.368 . S
C630 C624 1.368 1_655 S
C630 C629 1.523 . S
C631 C615 1.429 . S
C631 C627 1.429 . S
C631 C632 1.523 . S
C632 C616 1.368 1_655 S
C632 C628 1.368 . S
C632 C631 1.523 . S
H633 C608 0.950 . S
H634 C610 0.950 . S
H635 C611 0.949 . S
H636 C613 0.950 . S
H637 C615 0.950 . S
C638 C639 1.349 . S
C638 C640 1.327 . S
C638 H663 0.950 . S
C639 C638 1.349 . S
C639 C655 1.349 . S
C640 C638 1.327 . S
C640 C659 1.429 . S
C640 H664 0.950 . S
C641 C658 1.574 . S
C641 C660 1.368 . S
C641 H665 0.949 . S
H642 C646 0.949 . S
C643 C644 1.349 . S
C643 C645 1.327 . S
C643 H666 0.950 . S
C644 C643 1.349 . S
C644 C656 1.349 . S
C645 C643 1.327 . S
C645 C661 1.429 . S
C645 H667 0.950 . S
C646 H642 0.949 . S
C646 C654 1.574 . S
C646 C662 1.368 . S
H647 C655 0.950 . S
H648 C653 0.950 . S
H649 C654 0.949 . S
H650 C656 0.950 . S
H651 C657 0.950 . S
H652 C658 0.949 . S
C653 H648 0.950 . S
C653 C655 1.327 . S
C653 C659 1.429 . S
C654 C646 1.574 . S
C654 H649 0.949 . S
C654 C660 1.368 . S
C655 C639 1.349 . S
C655 H647 0.950 . S
C655 C653 1.327 . S
C656 C644 1.349 . S
C656 H650 0.950 . S
C656 C657 1.327 . S
C657 H651 0.950 . S
C657 C656 1.327 . S
C657 C661 1.429 . S
C658 C641 1.574 . S
C658 H652 0.949 . S
C658 C662 1.368 . S
C659 C640 1.429 . S
C659 C653 1.429 . S
C659 C660 1.523 . S
C660 C641 1.368 . S
C660 C654 1.368 . S
C660 C659 1.523 . S
C661 C645 1.429 . S
C661 C657 1.429 . S
C661 C662 1.523 . S
C662 C646 1.368 . S
C662 C658 1.368 . S
C662 C661 1.523 . S
H663 C638 0.950 . S
H664 C640 0.950 . S
H665 C641 0.949 . S
H666 C643 0.950 . S
H667 C645 0.950 . S
C668 C669 1.349 . S
C668 C670 1.327 . S
C668 H693 0.950 . S
C669 C668 1.349 . S
C669 C685 1.349 . S
C670 C668 1.327 . S
C670 C689 1.429 . S
C670 H694 0.950 . S
C671 C688 1.574 . S
C671 C690 1.368 . S
C671 H695 0.949 . S
H672 C676 0.949 . S
C673 C674 1.349 . S
C673 C675 1.327 . S
C673 H696 0.950 . S
C674 C673 1.349 . S
C674 C686 1.349 . S
C675 C673 1.327 . S
C675 C691 1.429 . S
C675 H697 0.950 . S
C676 H672 0.949 . S
C676 C684 1.574 . S
C676 C692 1.368 . S
H677 C685 0.950 . S
H678 C683 0.950 . S
H679 C684 0.949 . S
H680 C686 0.950 . S
H681 C687 0.950 . S
H682 C688 0.949 . S
C683 H678 0.950 . S
C683 C685 1.327 . S
C683 C689 1.429 . S
C684 C676 1.574 . S
C684 H679 0.949 . S
C684 C690 1.368 . S
C685 C669 1.349 . S
C685 H677 0.950 . S
C685 C683 1.327 . S
C686 C674 1.349 . S
C686 H680 0.950 . S
C686 C687 1.327 . S
C687 H681 0.950 . S
C687 C686 1.327 . S
C687 C691 1.429 . S
C688 C671 1.574 . S
C688 H682 0.949 . S
C688 C692 1.368 . S
C689 C670 1.429 . S
C689 C683 1.429 . S
C689 C690 1.523 . S
C690 C671 1.368 . S
C690 C684 1.368 . S
C690 C689 1.523 . S
C691 C675 1.429 . S
C691 C687 1.429 . S
C691 C692 1.523 . S
C692 C676 1.368 . S
C692 C688 1.368 . S
C692 C691 1.523 . S
H693 C668 0.950 . S
H694 C670 0.950 . S
H695 C671 0.949 . S
H696 C673 0.950 . S
H697 C675 0.950 . S
C698 C699 1.349 . S
C698 C700 1.327 . S
C698 H723 0.950 . S
C699 C698 1.349 . S
C699 C715 1.349 . S
C700 C698 1.327 . S
C700 C719 1.429 . S
C700 H724 0.950 . S
C701 C718 1.574 . S
C701 C720 1.368 . S
C701 H725 0.949 . S
H702 C706 0.949 . S
C703 C704 1.349 . S
C703 C705 1.327 . S
C703 H726 0.950 . S
C704 C703 1.349 . S
C704 C716 1.349 . S
C705 C703 1.327 . S
C705 C721 1.429 . S
C705 H727 0.950 . S
C706 H702 0.949 . S
C706 C714 1.574 . S
C706 C722 1.368 . S
H707 C715 0.950 . S
H708 C713 0.950 . S
H709 C714 0.949 . S
H710 C716 0.950 . S
H711 C717 0.950 . S
H712 C718 0.949 . S
C713 H708 0.950 . S
C713 C715 1.327 . S
C713 C719 1.429 . S
C714 C706 1.574 . S
C714 H709 0.949 . S
C714 C720 1.368 . S
C715 C699 1.349 . S
C715 H707 0.950 . S
C715 C713 1.327 . S
C716 C704 1.349 . S
C716 H710 0.950 . S
C716 C717 1.327 . S
C717 H711 0.950 . S
C717 C716 1.327 . S
C717 C721 1.429 . S
C718 C701 1.574 . S
C718 H712 0.949 . S
C718 C722 1.368 . S
C719 C700 1.429 . S
C719 C713 1.429 . S
C719 C720 1.523 . S
C720 C701 1.368 . S
C720 C714 1.368 . S
C720 C719 1.523 . S
C721 C705 1.429 . S
C721 C717 1.429 . S
C721 C722 1.523 . S
C722 C706 1.368 . S
C722 C718 1.368 . S
C722 C721 1.523 . S
H723 C698 0.950 . S
H724 C700 0.950 . S
H725 C701 0.949 . S
H726 C703 0.950 . S
H727 C705 0.950 . S
C728 C729 1.324 1_455 S
C728 C730 1.327 . S
C728 H753 0.950 . S
C729 C728 1.324 1_655 S
C729 C745 1.372 . S
C730 C728 1.327 . S
C730 C749 1.429 . S
C730 H754 0.950 . S
C731 C748 1.574 . S
C731 C750 1.368 1_655 S
C731 H755 0.949 . S
H732 C736 0.949 . S
C733 C734 1.349 . S
C733 C735 1.324 1_455 S
C733 H756 0.950 1_455 S
C734 C733 1.349 . S
C734 C746 1.349 . S
C735 C733 1.324 1_655 S
C735 C751 1.404 1_655 S
C735 H757 0.981 . S
C736 H732 0.949 . S
C736 C744 1.574 . S
C736 C752 1.368 . S
H737 C745 0.950 . S
H738 C743 0.950 . S
H739 C744 0.949 . S
H740 C746 0.950 . S
H741 C747 0.950 . S
H742 C748 0.949 . S
C743 H738 0.950 . S
C743 C745 1.327 . S
C743 C749 1.429 1_655 S
C744 C736 1.574 . S
C744 H739 0.949 . S
C744 C750 1.368 . S
C745 C729 1.372 . S
C745 H737 0.950 . S
C745 C743 1.327 . S
C746 C734 1.349 . S
C746 H740 0.950 . S
C746 C747 1.327 . S
C747 H741 0.950 . S
C747 C746 1.327 . S
C747 C751 1.429 . S
C748 C731 1.574 . S
C748 H742 0.949 . S
C748 C752 1.368 1_655 S
C749 C730 1.429 . S
C749 C743 1.429 1_455 S
C749 C750 1.523 . S
C750 C731 1.368 1_455 S
C750 C744 1.368 . S
C750 C749 1.523 . S
C751 C735 1.404 1_455 S
C751 C747 1.429 . S
C751 C752 1.523 . S
C752 C736 1.368 . S
C752 C748 1.368 1_455 S
C752 C751 1.523 . S
H753 C728 0.950 . S
H754 C730 0.950 . S
H755 C731 0.949 . S
H756 C733 0.950 1_655 S
H757 C735 0.981 . S
C758 C759 1.349 . S
C758 C760 1.327 . S
C758 H783 0.950 . S
C759 C758 1.349 . S
C759 C775 1.349 . S
C760 C758 1.327 . S
C760 C779 1.429 . S
C760 H784 0.950 . S
C761 C778 1.574 . S
C761 C780 1.368 . S
C761 H785 0.949 . S
H762 C766 0.949 . S
C763 C764 1.349 1_545 S
C763 C765 1.332 . S
C763 H786 0.950 . S
C764 C763 1.349 1_565 S
C764 C776 1.349 . S
C765 C763 1.332 . S
C765 C781 1.417 1_545 S
C765 H787 0.956 . S
C766 H762 0.949 . S
C766 C774 1.574 . S
C766 C782 1.368 . S
H767 C775 0.950 . S
H768 C773 0.950 . S
H769 C774 0.949 . S
H770 C776 0.950 . S
H771 C777 0.950 . S
H772 C778 0.949 . S
C773 H768 0.950 . S
C773 C775 1.327 . S
C773 C779 1.429 . S
C774 C766 1.574 . S
C774 H769 0.949 . S
C774 C780 1.368 . S
C775 C759 1.349 . S
C775 H767 0.950 . S
C775 C773 1.327 . S
C776 C764 1.349 . S
C776 H770 0.950 . S
C776 C777 1.327 . S
C777 H771 0.950 . S
C777 C776 1.327 . S
C777 C781 1.429 . S
C778 C761 1.574 . S
C778 H772 0.949 . S
C778 C782 1.368 . S
C779 C760 1.429 . S
C779 C773 1.429 . S
C779 C780 1.523 . S
C780 C761 1.368 . S
C780 C774 1.368 . S
C780 C779 1.523 . S
C781 C765 1.417 1_565 S
C781 C777 1.429 . S
C781 C782 1.523 . S
C782 C766 1.368 . S
C782 C778 1.368 . S
C782 C781 1.523 . S
H783 C758 0.950 . S
H784 C760 0.950 . S
H785 C761 0.949 . S
H786 C763 0.950 . S
H787 C765 0.956 . S
C788 C789 1.349 . S
C788 C790 1.327 . S
C788 H813 0.950 . S
C789 C788 1.349 . S
C789 C805 1.349 . S
C790 C788 1.327 . S
C790 C809 1.429 . S
C790 H814 0.950 . S
C791 C808 1.574 . S
C791 C810 1.368 . S
C791 H815 0.949 . S
H792 C796 0.949 . S
C793 C794 1.349 . S
C793 C795 1.327 . S
C793 H816 0.950 . S
C794 C793 1.349 . S
C794 C806 1.349 . S
C795 C793 1.327 . S
C795 C811 1.429 . S
C795 H817 0.950 . S
C796 H792 0.949 . S
C796 C804 1.574 . S
C796 C812 1.368 . S
H797 C805 0.950 . S
H798 C803 0.950 . S
H799 C804 0.949 . S
H800 C806 0.950 . S
H801 C807 0.950 . S
H802 C808 0.949 . S
C803 H798 0.950 . S
C803 C805 1.327 . S
C803 C809 1.429 . S
C804 C796 1.574 . S
C804 H799 0.949 . S
C804 C810 1.368 . S
C805 C789 1.349 . S
C805 H797 0.950 . S
C805 C803 1.327 . S
C806 C794 1.349 . S
C806 H800 0.950 . S
C806 C807 1.327 . S
C807 H801 0.950 . S
C807 C806 1.327 . S
C807 C811 1.429 . S
C808 C791 1.574 . S
C808 H802 0.949 . S
C808 C812 1.368 . S
C809 C790 1.429 . S
C809 C803 1.429 . S
C809 C810 1.523 . S
C810 C791 1.368 . S
C810 C804 1.368 . S
C810 C809 1.523 . S
C811 C795 1.429 . S
C811 C807 1.429 . S
C811 C812 1.523 . S
C812 C796 1.368 . S
C812 C808 1.368 . S
C812 C811 1.523 . S
H813 C788 0.950 . S
H814 C790 0.950 . S
H815 C791 0.949 . S
H816 C793 0.950 . S
H817 C795 0.950 . S
C818 C819 1.349 . S
C818 C820 1.327 . S
C818 H843 0.950 . S
C819 C818 1.349 . S
C819 C835 1.349 . S
C820 C818 1.327 . S
C820 C839 1.429 . S
C820 H844 0.950 . S
C821 C838 1.574 . S
C821 C840 1.368 . S
C821 H845 0.949 . S
H822 C826 0.949 . S
C823 C824 1.349 . S
C823 C825 1.327 . S
C823 H846 0.950 . S
C824 C823 1.349 . S
C824 C836 1.349 . S
C825 C823 1.327 . S
C825 C841 1.429 . S
C825 H847 0.950 . S
C826 H822 0.949 . S
C826 C834 1.574 . S
C826 C842 1.368 . S
H827 C835 0.950 . S
H828 C833 0.950 . S
H829 C834 0.949 . S
H830 C836 0.950 . S
H831 C837 0.950 . S
H832 C838 0.949 . S
C833 H828 0.950 . S
C833 C835 1.327 . S
C833 C839 1.429 . S
C834 C826 1.574 . S
C834 H829 0.949 . S
C834 C840 1.368 . S
C835 C819 1.349 . S
C835 H827 0.950 . S
C835 C833 1.327 . S
C836 C824 1.349 . S
C836 H830 0.950 . S
C836 C837 1.327 . S
C837 H831 0.950 . S
C837 C836 1.327 . S
C837 C841 1.429 . S
C838 C821 1.574 . S
C838 H832 0.949 . S
C838 C842 1.368 . S
C839 C820 1.429 . S
C839 C833 1.429 . S
C839 C840 1.523 . S
C840 C821 1.368 . S
C840 C834 1.368 . S
C840 C839 1.523 . S
C841 C825 1.429 . S
C841 C837 1.429 . S
C841 C842 1.523 . S
C842 C826 1.368 . S
C842 C838 1.368 . S
C842 C841 1.523 . S
H843 C818 0.950 . S
H844 C820 0.950 . S
H845 C821 0.949 . S
H846 C823 0.950 . S
H847 C825 0.950 . S
C848 C849 1.330 1_655 S
C848 C850 1.327 . S
C848 H873 0.950 . S
C849 C848 1.330 1_455 S
C849 C865 1.370 . S
C850 C848 1.327 . S
C850 C869 1.429 1_655 S
C850 H874 0.950 . S
C851 C868 1.574 . S
C851 C870 1.368 . S
C851 H875 0.949 . S
H852 C856 0.949 . S
C853 C854 1.349 . S
C853 C855 1.327 . S
C853 H876 0.950 . S
C854 C853 1.349 . S
C854 C866 1.349 1_455 S
C855 C853 1.327 . S
C855 C871 1.429 . S
C855 H877 0.950 . S
C856 H852 0.949 . S
C856 C864 1.574 . S
C856 C872 1.368 1_655 S
H857 C865 0.950 . S
H858 C863 0.950 . S
H859 C864 0.949 . S
H860 C866 0.950 . S
H861 C867 0.950 . S
H862 C868 0.949 . S
C863 H858 0.950 . S
C863 C865 1.327 . S
C863 C869 1.429 . S
C864 C856 1.574 . S
C864 H859 0.949 . S
C864 C870 1.368 1_655 S
C865 C849 1.370 . S
C865 H857 0.950 . S
C865 C863 1.327 . S
C866 C854 1.349 1_655 S
C866 H860 0.950 . S
C866 C867 1.327 . S
C867 H861 0.950 . S
C867 C866 1.327 . S
C867 C871 1.429 1_655 S
C868 C851 1.574 . S
C868 H862 0.949 . S
C868 C872 1.368 . S
C869 C850 1.429 1_455 S
C869 C863 1.429 . S
C869 C870 1.523 . S
C870 C851 1.368 . S
C870 C864 1.368 1_455 S
C870 C869 1.523 . S
C871 C855 1.429 . S
C871 C867 1.429 1_455 S
C871 C872 1.523 . S
C872 C856 1.368 1_455 S
C872 C868 1.368 . S
C872 C871 1.523 . S
H873 C848 0.950 . S
H874 C850 0.950 . S
H875 C851 0.949 . S
H876 C853 0.950 . S
H877 C855 0.950 . S
C878 C879 1.349 . S
C878 C880 1.327 . S
C878 H903 0.950 . S
C879 C878 1.349 . S
C879 C895 1.349 . S
C880 C878 1.327 . S
C880 C899 1.429 . S
C880 H904 0.950 . S
C881 C898 1.574 . S
C881 C900 1.368 . S
C881 H905 0.949 . S
H882 C886 0.949 . S
C883 C884 1.349 . S
C883 C885 1.327 . S
C883 H906 0.950 . S
C884 C883 1.349 . S
C884 C896 1.349 . S
C885 C883 1.327 . S
C885 C901 1.429 . S
C885 H907 0.950 . S
C886 H882 0.949 . S
C886 C894 1.574 . S
C886 C902 1.368 . S
H887 C895 0.950 . S
H888 C893 0.950 . S
H889 C894 0.949 . S
H890 C896 0.950 . S
H891 C897 0.950 . S
H892 C898 0.949 . S
C893 H888 0.950 . S
C893 C895 1.327 . S
C893 C899 1.429 . S
C894 C886 1.574 . S
C894 H889 0.949 . S
C894 C900 1.368 . S
C895 C879 1.349 . S
C895 H887 0.950 . S
C895 C893 1.327 . S
C896 C884 1.349 . S
C896 H890 0.950 . S
C896 C897 1.327 . S
C897 H891 0.950 . S
C897 C896 1.327 . S
C897 C901 1.429 . S
C898 C881 1.574 . S
C898 H892 0.949 . S
C898 C902 1.368 . S
C899 C880 1.429 . S
C899 C893 1.429 . S
C899 C900 1.523 . S
C900 C881 1.368 . S
C900 C894 1.368 . S
C900 C899 1.523 . S
C901 C885 1.429 . S
C901 C897 1.429 . S
C901 C902 1.523 . S
C902 C886 1.368 . S
C902 C898 1.368 . S
C902 C901 1.523 . S
H903 C878 0.950 . S
H904 C880 0.950 . S
H905 C881 0.949 . S
H906 C883 0.950 . S
H907 C885 0.950 . S
C908 C909 1.349 . S
C908 C910 1.327 . S
C908 H933 0.950 . S
C909 C908 1.349 . S
C909 C925 1.349 . S
C910 C908 1.327 . S
C910 C929 1.429 . S
C910 H934 0.950 . S
C911 C928 1.574 . S
C911 C930 1.368 . S
C911 H935 0.949 . S
H912 C916 0.949 . S
C913 C914 1.349 . S
C913 C915 1.327 . S
C913 H936 0.950 . S
C914 C913 1.349 . S
C914 C926 1.349 . S
C915 C913 1.327 . S
C915 C931 1.429 . S
C915 H937 0.950 . S
C916 H912 0.949 . S
C916 C924 1.574 . S
C916 C932 1.368 . S
H917 C925 0.950 . S
H918 C923 0.950 . S
H919 C924 0.949 . S
H920 C926 0.950 . S
H921 C927 0.950 . S
H922 C928 0.949 . S
C923 H918 0.950 . S
C923 C925 1.327 . S
C923 C929 1.429 . S
C924 C916 1.574 . S
C924 H919 0.949 . S
C924 C930 1.368 . S
C925 C909 1.349 . S
C925 H917 0.950 . S
C925 C923 1.327 . S
C926 C914 1.349 . S
C926 H920 0.950 . S
C926 C927 1.327 . S
C927 H921 0.950 . S
C927 C926 1.327 . S
C927 C931 1.429 . S
C928 C911 1.574 . S
C928 H922 0.949 . S
C928 C932 1.368 . S
C929 C910 1.429 . S
C929 C923 1.429 . S
C929 C930 1.523 . S
C930 C911 1.368 . S
C930 C924 1.368 . S
C930 C929 1.523 . S
C931 C915 1.429 . S
C931 C927 1.429 . S
C931 C932 1.523 . S
C932 C916 1.368 . S
C932 C928 1.368 . S
C932 C931 1.523 . S
H933 C908 0.950 . S
H934 C910 0.950 . S
H935 C911 0.949 . S
H936 C913 0.950 . S
H937 C915 0.950 . S
C938 C939 1.349 . S
C938 C940 1.327 . S
C938 H963 0.950 . S
C939 C938 1.349 . S
C939 C955 1.349 . S
C940 C938 1.327 . S
C940 C959 1.429 . S
C940 H964 0.950 . S
C941 C958 1.574 . S
C941 C960 1.368 . S
C941 H965 0.949 . S
H942 C946 0.949 . S
C943 C944 1.349 . S
C943 C945 1.327 . S
C943 H966 0.950 . S
C944 C943 1.349 . S
C944 C956 1.349 . S
C945 C943 1.327 . S
C945 C961 1.429 . S
C945 H967 0.950 . S
C946 H942 0.949 . S
C946 C954 1.574 . S
C946 C962 1.368 . S
H947 C955 0.950 . S
H948 C953 0.950 . S
H949 C954 0.949 . S
H950 C956 0.950 . S
H951 C957 0.950 . S
H952 C958 0.949 . S
C953 H948 0.950 . S
C953 C955 1.327 . S
C953 C959 1.429 . S
C954 C946 1.574 . S
C954 H949 0.949 . S
C954 C960 1.368 . S
C955 C939 1.349 . S
C955 H947 0.950 . S
C955 C953 1.327 . S
C956 C944 1.349 . S
C956 H950 0.950 . S
C956 C957 1.327 . S
C957 H951 0.950 . S
C957 C956 1.327 . S
C957 C961 1.429 . S
C958 C941 1.574 . S
C958 H952 0.949 . S
C958 C962 1.368 . S
C959 C940 1.429 . S
C959 C953 1.429 . S
C959 C960 1.523 . S
C960 C941 1.368 . S
C960 C954 1.368 . S
C960 C959 1.523 . S
C961 C945 1.429 . S
C961 C957 1.429 . S
C961 C962 1.523 . S
C962 C946 1.368 . S
C962 C958 1.368 . S
C962 C961 1.523 . S
H963 C938 0.950 . S
H964 C940 0.950 . S
H965 C941 0.949 . S
H966 C943 0.950 . S
H967 C945 0.950 . S
C968 C969 1.326 1_455 S
C968 C970 1.327 . S
C968 H993 0.950 . S
C969 C968 1.326 1_655 S
C969 C985 1.374 . S
C970 C968 1.327 . S
C970 C989 1.429 1_455 S
C970 H994 0.950 . S
C971 C988 1.574 . S
C971 C990 1.368 . S
C971 H995 0.949 . S
H972 C976 0.949 . S
C973 C974 1.349 . S
C973 C975 1.327 . S
C973 H996 0.950 . S
C974 C973 1.349 . S
C974 C986 1.349 1_655 S
C975 C973 1.327 . S
C975 C991 1.429 . S
C975 H997 0.950 . S
C976 H972 0.949 . S
C976 C984 1.574 . S
C976 C992 1.368 1_455 S
H977 C985 0.950 . S
H978 C983 0.950 . S
H979 C984 0.949 . S
H980 C986 0.950 . S
H981 C987 0.950 . S
H982 C988 0.949 . S
C983 H978 0.950 . S
C983 C985 1.327 . S
C983 C989 1.429 . S
C984 C976 1.574 . S
C984 H979 0.949 . S
C984 C990 1.368 1_455 S
C985 C969 1.374 . S
C985 H977 0.950 . S
C985 C983 1.327 . S
C986 C974 1.349 1_455 S
C986 H980 0.950 . S
C986 C987 1.327 . S
C987 H981 0.950 . S
C987 C986 1.327 . S
C987 C991 1.429 1_455 S
C988 C971 1.574 . S
C988 H982 0.949 . S
C988 C992 1.368 . S
C989 C970 1.429 1_655 S
C989 C983 1.429 . S
C989 C990 1.523 . S
C990 C971 1.368 . S
C990 C984 1.368 1_655 S
C990 C989 1.523 . S
C991 C975 1.429 . S
C991 C987 1.429 1_655 S
C991 C992 1.523 . S
C992 C976 1.368 1_655 S
C992 C988 1.368 . S
C992 C991 1.523 . S
H993 C968 0.950 . S
H994 C970 0.950 . S
H995 C971 0.949 . S
H996 C973 0.950 . S
H997 C975 0.950 . S
C998 C999 1.349 . S
C998 C1000 1.327 . S
C998 H1023 0.950 . S
C999 C998 1.349 . S
C999 C1015 1.349 . S
C1000 C998 1.327 . S
C1000 C1019 1.429 . S
C1000 H1024 0.950 . S
C1001 C1018 1.574 . S
C1001 C1020 1.368 . S
C1001 H1025 0.949 . S
H1002 C1006 0.949 . S
C1003 C1004 1.349 . S
C1003 C1005 1.327 . S
C1003 H1026 0.950 1_565 S
C1004 C1003 1.349 . S
C1004 C1016 1.349 . S
C1005 C1003 1.327 . S
C1005 C1021 1.429 . S
C1005 H1027 0.950 . S
C1006 H1002 0.949 . S
C1006 C1014 1.574 . S
C1006 C1022 1.368 . S
H1007 C1015 0.950 . S
H1008 C1013 0.950 . S
H1009 C1014 0.949 . S
H1010 C1016 0.950 . S
H1011 C1017 0.950 . S
H1012 C1018 0.949 . S
C1013 H1008 0.950 . S
C1013 C1015 1.327 . S
C1013 C1019 1.429 . S
C1014 C1006 1.574 . S
C1014 H1009 0.949 . S
C1014 C1020 1.368 . S
C1015 C999 1.349 . S
C1015 H1007 0.950 . S
C1015 C1013 1.327 . S
C1016 C1004 1.349 . S
C1016 H1010 0.950 . S
C1016 C1017 1.327 . S
C1017 H1011 0.950 . S
C1017 C1016 1.327 . S
C1017 C1021 1.429 . S
C1018 C1001 1.574 . S
C1018 H1012 0.949 . S
C1018 C1022 1.368 . S
C1019 C1000 1.429 . S
C1019 C1013 1.429 . S
C1019 C1020 1.523 . S
C1020 C1001 1.368 . S
C1020 C1014 1.368 . S
C1020 C1019 1.523 . S
C1021 C1005 1.429 . S
C1021 C1017 1.429 . S
C1021 C1022 1.523 . S
C1022 C1006 1.368 . S
C1022 C1018 1.368 . S
C1022 C1021 1.523 . S
H1023 C998 0.950 . S
H1024 C1000 0.950 . S
H1025 C1001 0.949 . S
H1026 C1003 0.950 1_545 S
H1027 C1005 0.950 . S
C1028 C1029 1.349 . S
C1028 C1030 1.327 . S
C1028 H1053 0.950 . S
C1029 C1028 1.349 . S
C1029 C1045 1.349 . S
C1030 C1028 1.327 . S
C1030 C1049 1.429 . S
C1030 H1054 0.950 . S
C1031 C1048 1.574 . S
C1031 C1050 1.368 . S
C1031 H1055 0.949 . S
H1032 C1036 0.949 . S
C1033 C1034 1.349 . S
C1033 C1035 1.327 . S
C1033 H1056 0.950 . S
C1034 C1033 1.349 . S
C1034 C1046 1.349 . S
C1035 C1033 1.327 . S
C1035 C1051 1.429 . S
C1035 H1057 0.950 . S
C1036 H1032 0.949 . S
C1036 C1044 1.574 . S
C1036 C1052 1.368 . S
H1037 C1045 0.950 . S
H1038 C1043 0.950 . S
H1039 C1044 0.949 . S
H1040 C1046 0.950 . S
H1041 C1047 0.950 . S
H1042 C1048 0.949 . S
C1043 H1038 0.950 . S
C1043 C1045 1.327 . S
C1043 C1049 1.429 . S
C1044 C1036 1.574 . S
C1044 H1039 0.949 . S
C1044 C1050 1.368 . S
C1045 C1029 1.349 . S
C1045 H1037 0.950 . S
C1045 C1043 1.327 . S
C1046 C1034 1.349 . S
C1046 H1040 0.950 . S
C1046 C1047 1.327 . S
C1047 H1041 0.950 . S
C1047 C1046 1.327 . S
C1047 C1051 1.429 . S
C1048 C1031 1.574 . S
C1048 H1042 0.949 . S
C1048 C1052 1.368 . S
C1049 C1030 1.429 . S
C1049 C1043 1.429 . S
C1049 C1050 1.523 . S
C1050 C1031 1.368 . S
C1050 C1044 1.368 . S
C1050 C1049 1.523 . S
C1051 C1035 1.429 . S
C1051 C1047 1.429 . S
C1051 C1052 1.523 . S
C1052 C1036 1.368 . S
C1052 C1048 1.368 . S
C1052 C1051 1.523 . S
H1053 C1028 0.950 . S
H1054 C1030 0.950 . S
H1055 C1031 0.949 . S
H1056 C1033 0.950 . S
H1057 C1035 0.950 . S
C1058 C1059 1.349 . S
C1058 C1060 1.327 . S
C1058 H1083 0.950 . S
C1059 C1058 1.349 . S
C1059 C1075 1.349 . S
C1060 C1058 1.327 . S
C1060 C1079 1.429 . S
C1060 H1084 0.950 . S
C1061 C1078 1.574 . S
C1061 C1080 1.368 . S
C1061 H1085 0.949 . S
H1062 C1066 0.949 . S
C1063 C1064 1.349 . S
C1063 C1065 1.327 . S
C1063 H1086 0.950 . S
C1064 C1063 1.349 . S
C1064 C1076 1.349 . S
C1065 C1063 1.327 . S
C1065 C1081 1.429 . S
C1065 H1087 0.950 . S
C1066 H1062 0.949 . S
C1066 C1074 1.574 . S
C1066 C1082 1.368 . S
H1067 C1075 0.950 . S
H1068 C1073 0.950 . S
H1069 C1074 0.949 . S
H1070 C1076 0.950 . S
H1071 C1077 0.950 . S
H1072 C1078 0.949 . S
C1073 H1068 0.950 . S
C1073 C1075 1.327 . S
C1073 C1079 1.429 . S
C1074 C1066 1.574 . S
C1074 H1069 0.949 . S
C1074 C1080 1.368 . S
C1075 C1059 1.349 . S
C1075 H1067 0.950 . S
C1075 C1073 1.327 . S
C1076 C1064 1.349 . S
C1076 H1070 0.950 . S
C1076 C1077 1.327 . S
C1077 H1071 0.950 . S
C1077 C1076 1.327 . S
C1077 C1081 1.429 . S
C1078 C1061 1.574 . S
C1078 H1072 0.949 . S
C1078 C1082 1.368 . S
C1079 C1060 1.429 . S
C1079 C1073 1.429 . S
C1079 C1080 1.523 . S
C1080 C1061 1.368 . S
C1080 C1074 1.368 . S
C1080 C1079 1.523 . S
C1081 C1065 1.429 . S
C1081 C1077 1.429 . S
C1081 C1082 1.523 . S
C1082 C1066 1.368 . S
C1082 C1078 1.368 . S
C1082 C1081 1.523 . S
H1083 C1058 0.950 . S
H1084 C1060 0.950 . S
H1085 C1061 0.949 . S
H1086 C1063 0.950 . S
H1087 C1065 0.950 . S
C369 C241 1.736 . S
C374 C306 1.756 . S
C404 C326 1.445 . S
C399 C277 1.480 . S
C434 C346 1.722 . S
C429 C169 1.700 . S
C464 C366 1.415 . S
C459 C205 1.408 1_655 S
C494 C307 1.762 1_565 S
C489 C97 1.692 . S
C519 C133 1.459 . S
C524 C327 1.445 . S
C549 C25 1.651 . S
C554 C347 1.722 . S
C579 C61 1.407 . S
C584 C367 1.416 . S
C614 C297 0.490 . S
C609 C211 0.383 . S
C644 C317 0.610 . S
C639 C247 0.568 . S
C674 C337 0.499 . S
C669 C253 0.422 . S
C699 C175 0.523 . S
C704 C357 0.591 . S
C729 C67 0.382 1_655 S
C734 C300 0.480 . S
C764 C320 0.610 . S
C759 C103 0.602 . S
C794 C340 0.499 . S
C789 C109 0.441 . S
C819 C31 0.576 . S
C824 C360 0.598 . S
C849 C181 1.967 . S
C854 C290 1.921 . S
C879 C217 2.022 . S
C884 C310 1.968 . S
C914 C330 1.817 . S
C909 C283 1.836 . S
C944 C350 2.098 . S
C939 C145 2.150 . S
C969 C37 1.967 1_655 S
C974 C292 1.923 . S
C1004 C312 1.968 . S
C999 C73 1.992 . S
C1034 C332 1.817 . S
C1029 C139 1.807 . S
C1059 C1 2.121 . S
C1064 C352 2.102 . S
