# Generated by pormake.
# Topology pth, (4,4)-cn, num edge types: 1
# Building blocks:
#     Node 0, Type 0, BuildingBlock: AZAVOO_clean_sbu_0, # of connection points: 4
#     Node 1, Type 0, BuildingBlock: AZAVOO_clean_sbu_0, # of connection points: 4
#     Node 2, Type 0, BuildingBlock: AZAVOO_clean_sbu_0, # of connection points: 4
#     Node 3, Type 1, BuildingBlock: MIFKUJ_clean_linker_1, # of connection points: 4
#     Node 4, Type 1, BuildingBlock: MIFKUJ_clean_linker_1, # of connection points: 4
#     Node 5, Type 1, BuildingBlock: MIFKUJ_clean_linker_1, # of connection points: 4
#     Edge 6, Type (0, 1), BuildingBlock: ZUJKAS_clean_linker_0, # of connection points: 2
#     Edge 7, Type (0, 1), BuildingBlock: ZUJKAS_clean_linker_0, # of connection points: 2
#     Edge 8, Type (0, 1), BuildingBlock: ZUJKAS_clean_linker_0, # of connection points: 2
#     Edge 9, Type (0, 1), BuildingBlock: ZUJKAS_clean_linker_0, # of connection points: 2
#     Edge 10, Type (0, 1), BuildingBlock: ZUJKAS_clean_linker_0, # of connection points: 2
#     Edge 11, Type (0, 1), BuildingBlock: ZUJKAS_clean_linker_0, # of connection points: 2
#     Edge 12, Type (0, 1), BuildingBlock: ZUJKAS_clean_linker_0, # of connection points: 2
#     Edge 13, Type (0, 1), BuildingBlock: ZUJKAS_clean_linker_0, # of connection points: 2
#     Edge 14, Type (0, 1), BuildingBlock: ZUJKAS_clean_linker_0, # of connection points: 2
#     Edge 15, Type (0, 1), BuildingBlock: ZUJKAS_clean_linker_0, # of connection points: 2
#     Edge 16, Type (0, 1), BuildingBlock: ZUJKAS_clean_linker_0, # of connection points: 2
#     Edge 17, Type (0, 1), BuildingBlock: ZUJKAS_clean_linker_0, # of connection points: 2
# Relax obj value: 0.066
# Max RMSD: 0.210
# Mean RMSD: 0.113
data_MOF--net-pth--node1-AZAVOO_clean_sbu_0--node2-MIFKUJ_clean_linker_1--edge1-ZUJKAS_clean_linker_0
_symmetry_space_group_name_H-M    P1
_symmetry_Int_Tables_number       1
_symmetry_cell_setting            triclinic
loop_
_symmetry_equiv_pos_as_xyz
'x, y, z'
_cell_length_a     36.582867
_cell_length_b     37.233782
_cell_length_c     78.170541
_cell_angle_alpha  90.826213
_cell_angle_beta   92.419052
_cell_angle_gamma 121.71185
loop_
_atom_site_label
_atom_site_type_symbol
_atom_site_fract_x
_atom_site_fract_y
_atom_site_fract_z
_atom_type_partial_charge
Mg0 Mg 0.09151 0.05434 0.04236 0.0
O1 O 0.03116 0.01006 0.0252 0.0
O2 O 0.01815 0.0495 0.00766 0.0
Mg3 Mg 0.07093 0.11873 0.01309 0.0
C4 C 0.00861 0.01365 0.0132 0.0
C5 C 0.07021 0.96653 0.05424 0.0
O6 O 0.07379 0.96238 0.03778 0.0
O7 O 0.05344 0.07469 0.05772 0.0
O8 O 0.04563 0.11649 0.03967 0.0
O9 O 0.13336 0.05106 0.02306 0.0
O10 O 0.11296 0.09746 0.02323 0.0
C11 C 0.04043 0.09969 0.0542 0.0
C12 C 0.13199 0.08131 0.01573 0.0
O13 O 0.07569 0.00105 0.06021 0.0
Mg14 Mg 0.96567 0.0014 0.36299 0.0
O15 O 0.02204 0.0203 0.38241 0.0
O16 O 0.03227 0.07455 0.39898 0.0
Mg17 Mg 0.98142 0.08958 0.39039 0.0
C18 C 0.0424 0.04784 0.39464 0.0
C19 C 0.95899 0.93692 0.33576 0.0
O20 O 0.92158 0.93351 0.33302 0.0
O21 O 0.00753 0.05953 0.34775 0.0
O22 O 0.01294 0.11113 0.36473 0.0
O23 O 0.9193 0.95758 0.38163 0.0
O24 O 0.93963 0.02461 0.37963 0.0
C25 C 0.02073 0.09838 0.35087 0.0
C26 C 0.91798 0.98974 0.38728 0.0
O27 O 0.98508 0.96256 0.34754 0.0
Mg28 Mg 0.99562 0.98817 0.69805 0.0
O29 O 0.04052 0.04417 0.71651 0.0
O30 O 0.00082 0.05192 0.73542 0.0
Mg31 Mg 0.93036 0.00164 0.72868 0.0
C32 C 0.03717 0.06316 0.72951 0.0
C33 C 0.04915 0.98061 0.67036 0.0
O34 O 0.0165 0.9414 0.67054 0.0
O35 O 0.97421 0.02784 0.6842 0.0
O36 O 0.93324 0.03321 0.70327 0.0
O37 O -0.0008 0.94373 0.716 0.0
O38 O 0.95045 0.96166 0.7164 0.0
C39 C 0.94974 0.04076 0.68867 0.0
C40 C 0.9667 0.94139 0.72312 0.0
O41 O 0.0503 0.00828 0.68044 0.0
H42 H 0.06138 0.47557 0.16613 0.0
H43 H 0.04819 0.41197 0.15059 0.0
H44 H 0.95392 0.33436 0.18642 0.0
H45 H 0.9666 0.39801 0.20175 0.0
H46 H 0.01476 0.50711 0.1719 0.0
H47 H 0.09217 0.46534 0.20626 0.0
H48 H 0.10551 0.41598 0.22138 0.0
H49 H 0.00814 0.39394 0.2564 0.0
H50 H 0.99464 0.44314 0.24112 0.0
H51 H 0.97446 0.54275 0.23557 0.0
H52 H 0.97281 0.59922 0.25115 0.0
H53 H 0.0866 0.69227 0.22675 0.0
H54 H 0.08835 0.63537 0.21129 0.0
H55 H 0.0405 0.52409 0.23514 0.0
H56 H 0.96967 0.57535 0.19566 0.0
H57 H 0.96909 0.629 0.178 0.0
H58 H 0.07671 0.64273 0.15146 0.0
H59 H 0.07741 0.58965 0.16917 0.0
C60 C 0.01533 0.4416 0.1852 0.0
C61 C 0.03764 0.44488 0.17056 0.0
C62 C 0.03006 0.40855 0.1617 0.0
C63 C 7e-05 0.36828 0.16734 0.0
C64 C 0.97757 0.36501 0.18193 0.0
C65 C 0.98486 0.40135 0.19069 0.0
C66 C 0.02361 0.48018 0.19472 0.0
C67 C 0.02093 0.51105 0.1857 0.0
C68 C 0.03257 0.48585 0.21267 0.0
C69 C 0.042 0.45751 0.22244 0.0
C70 C 0.07355 0.44974 0.21715 0.0
C71 C 0.08114 0.42152 0.22578 0.0
C72 C 0.05774 0.40098 0.24001 0.0
C73 C 0.02694 0.40962 0.24556 0.0
C74 C 0.01916 0.43767 0.23685 0.0
C75 C 0.03131 0.58495 0.22221 0.0
C76 C -0.00079 0.57531 0.23367 0.0
C77 C -0.00188 0.60757 0.24245 0.0
C78 C 0.02937 0.65012 0.24004 0.0
C79 C 0.06222 0.65974 0.22888 0.0
C80 C 0.06313 0.62736 0.22 0.0
C81 C 0.03038 0.55028 0.21234 0.0
C82 C 0.03452 0.52013 0.22133 0.0
C83 C 0.02488 0.5464 0.19425 0.0
C84 C 0.02384 0.57878 0.18381 0.0
C85 C 0.99336 0.59025 0.18615 0.0
C86 C 0.99303 0.62082 0.17605 0.0
C87 C 0.02273 0.63987 0.16331 0.0
C88 C 0.05302 0.62815 0.161 0.0
C89 C 0.05353 0.59793 0.17114 0.0
H90 H 0.61103 0.09891 0.49648 0.0
H91 H 0.65909 0.08237 0.48223 0.0
H92 H 0.61819 0.97499 0.51398 0.0
H93 H 0.5709 0.99211 0.52828 0.0
H94 H 0.5237 0.05278 0.49873 0.0
H95 H 0.64671 0.11916 0.53734 0.0
H96 H 0.70747 0.12581 0.55466 0.0
H97 H 0.61872 0.02266 0.58489 0.0
H98 H 0.55819 0.01559 0.56731 0.0
H99 H 0.44396 0.00433 0.56111 0.0
H100 H 0.38471 0.00037 0.57602 0.0
H101 H 0.40626 0.11285 0.55166 0.0
H102 H 0.46631 0.1171 0.53697 0.0
H103 H 0.53022 0.06748 0.56218 0.0
H104 H 0.40832 0.99732 0.51924 0.0
H105 H 0.34941 0.99524 0.50219 0.0
H106 H 0.44049 0.11375 0.48055 0.0
H107 H 0.49918 0.11581 0.49775 0.0
C108 C 0.58781 0.04703 0.51354 0.0
C109 C 0.6125 0.07184 0.50033 0.0
C110 C 0.6398 0.06224 0.49218 0.0
C111 C 0.64254 0.02739 0.497 0.0
C112 C 0.61746 0.00246 0.51017 0.0
C113 C 0.59032 0.01215 0.51832 0.0
C114 C 0.55875 0.05682 0.52228 0.0
C115 C 0.52563 0.05682 0.51257 0.0
C116 C 0.56129 0.06226 0.54031 0.0
C117 C 0.59798 0.06669 0.55098 0.0
C118 C 0.64041 0.09783 0.54764 0.0
C119 C 0.67504 0.1018 0.5576 0.0
C120 C 0.66781 0.07464 0.57106 0.0
C121 C 0.62528 0.04364 0.57444 0.0
C122 C 0.59068 0.03982 0.56452 0.0
C123 C 0.45931 0.06084 0.54788 0.0
C124 C 0.43607 0.02826 0.55905 0.0
C125 C 0.40199 0.02582 0.56742 0.0
C126 C 0.39063 0.0561 0.56488 0.0
C127 C 0.41441 0.08918 0.55389 0.0
C128 C 0.4485 0.0915 0.54544 0.0
C129 C 0.49437 0.06189 0.53868 0.0
C130 C 0.52873 0.06409 0.54832 0.0
C131 C 0.49334 0.05919 0.52059 0.0
C132 C 0.45793 0.05689 0.50981 0.0
C133 C 0.41551 0.02279 0.5108 0.0
C134 C 0.38199 0.02153 0.501 0.0
C135 C 0.39041 0.05442 0.49011 0.0
C136 C 0.43305 0.08824 0.48899 0.0
C137 C 0.46657 0.08931 0.4987 0.0
H138 H 0.51345 0.43637 0.83541 0.0
H139 H 0.45386 0.38384 0.81618 0.0
H140 H 0.37058 0.42136 0.83697 0.0
H141 H 0.42989 0.47283 0.85639 0.0
H142 H 0.55322 0.52276 0.83993 0.0
H143 H 0.47773 0.40238 0.87228 0.0
H144 H 0.41825 0.34176 0.88536 0.0
H145 H 0.39141 0.42567 0.9132 0.0
H146 H 0.45081 0.48628 0.89995 0.0
H147 H 0.56391 0.60199 0.90399 0.0
H148 H 0.6177 0.65915 0.92354 0.0
H149 H 0.71338 0.63232 0.90825 0.0
H150 H 0.65919 0.57466 0.88894 0.0
H151 H 0.53373 0.51599 0.9025 0.0
H152 H 0.61216 0.63713 0.86704 0.0
H153 H 0.676 0.69397 0.8543 0.0
H154 H 0.70118 0.60208 0.83268 0.0
H155 H 0.63809 0.54562 0.84588 0.0
C156 C 0.47587 0.45804 0.84744 0.0
C157 C 0.48237 0.43334 0.83571 0.0
C158 C 0.44832 0.40347 0.8247 0.0
C159 C 0.40731 0.39813 0.82513 0.0
C160 C 0.40143 0.42395 0.83656 0.0
C161 C 0.43534 0.45355 0.84761 0.0
C162 C 0.51101 0.48805 0.85982 0.0
C163 C 0.54923 0.52093 0.85362 0.0
C164 C 0.5058 0.48563 0.87766 0.0
C165 C 0.46851 0.44885 0.88505 0.0
C166 C 0.45858 0.40769 0.88097 0.0
C167 C 0.42458 0.37306 0.88843 0.0
C168 C 0.40026 0.37903 0.90029 0.0
C169 C 0.40994 0.42021 0.90423 0.0
C170 C 0.4438 0.45482 0.89667 0.0
C171 C 0.60772 0.58442 0.89493 0.0
C172 C 0.5964 0.60823 0.90498 0.0
C173 C 0.62719 0.64102 0.91603 0.0
C174 C 0.66977 0.65031 0.91734 0.0
C175 C 0.68075 0.62567 0.9076 0.0
C176 C 0.64996 0.59297 0.89648 0.0
C177 C 0.57538 0.55129 0.88258 0.0
C178 C 0.5377 0.51771 0.8888 0.0
C179 C 0.58154 0.55258 0.86481 0.0
C180 C 0.62061 0.58724 0.85747 0.0
C181 C 0.63182 0.62936 0.85976 0.0
C182 C 0.66813 0.66174 0.85239 0.0
C183 C 0.69367 0.6525 0.84252 0.0
C184 C 0.68258 0.6103 0.84044 0.0
C185 C 0.64629 0.57797 0.84781 0.0
H186 H 0.01127 0.15353 0.05149 0.0
H187 H 0.99094 0.18307 0.07449 0.0
H188 H 0.00623 0.10468 0.11055 0.0
H189 H 0.02781 0.07541 0.08758 0.0
H190 H 0.92756 0.15011 0.09803 0.0
H191 H 0.09177 0.22403 0.13007 0.0
H192 H 0.07923 0.20017 0.10872 0.0
H193 H 0.06194 0.16751 0.12694 0.0
C194 C 0.00995 0.1421 0.06425 0.0
C195 C 0.02195 0.1126 0.06773 0.0
C196 C -0.00189 0.15896 0.07739 0.0
C197 C -0.00212 0.14665 0.09426 0.0
C198 C 0.0071 0.11522 0.09766 0.0
H199 H 0.9954 0.29876 0.18084 0.0
H200 H 0.98722 0.23713 0.16515 0.0
C201 C 0.01921 0.0984 0.08449 0.0
C202 C 0.99124 0.16951 0.10823 0.0
H203 H 0.04553 0.24314 0.14096 0.0
C204 C 0.95304 0.16991 0.10762 0.0
C205 C 0.02456 0.19529 0.12073 0.0
C206 C 0.06685 0.19715 0.12168 0.0
C207 C 0.94808 0.19688 0.11866 0.0
C208 C 0.98233 0.22429 0.13048 0.0
C209 C 0.01939 0.22201 0.13184 0.0
C210 C 0.98265 0.2589 0.14011 0.0
C211 C 0.90677 0.19675 0.11726 0.0
C212 C 0.98293 0.29144 0.13117 0.0
C213 C 0.98782 0.3266 0.14005 0.0
C214 C 0.99255 0.32986 0.15803 0.0
C215 C 0.99139 0.29682 0.16698 0.0
C216 C 0.98681 0.26173 0.15807 0.0
H217 H 0.87963 0.16614 0.11168 0.0
H218 H 0.89827 0.20292 0.12999 0.0
H219 H 0.91087 0.22201 0.10872 0.0
H220 H 0.98064 0.29022 0.11729 0.0
H221 H 0.98828 0.35145 0.13283 0.0
H222 H 0.87305 0.92307 0.40813 0.0
H223 H 0.82756 0.91885 0.43124 0.0
H224 H 0.85986 0.04604 0.42224 0.0
H225 H 0.90501 0.05061 0.39945 0.0
H226 H 0.86201 0.02958 0.45709 0.0
H227 H 0.71001 0.90744 0.42153 0.0
H228 H 0.7512 0.89541 0.42534 0.0
H229 H 0.76024 0.93657 0.41123 0.0
C230 C 0.87067 0.95019 0.41121 0.0
C231 C 0.8927 0.9872 0.40197 0.0
C232 C 0.84461 0.94768 0.42435 0.0
C233 C 0.84016 0.98204 0.42832 0.0
C234 C 0.86303 0.01924 0.41942 0.0
H235 H 0.65562 0.02958 0.46278 0.0
H236 H 0.70352 0.01348 0.44832 0.0
C237 C 0.88892 0.02179 0.40638 0.0
C238 C 0.81037 0.97959 0.44112 0.0
H239 H 0.70366 0.9385 0.44659 0.0
C240 C 0.82736 0.00913 0.45504 0.0
C241 C 0.76525 0.95303 0.43825 0.0
C242 C 0.74532 0.92142 0.42325 0.0
C243 C 0.80044 0.01449 0.46564 0.0
C244 C 0.75533 0.98903 0.46237 0.0
C245 C 0.7383 0.95791 0.44902 0.0
C246 C 0.72554 0.99727 0.47138 0.0
C247 C 0.82053 0.04913 0.47954 0.0
C248 C 0.72187 0.9932 0.48913 0.0
C249 C 0.69495 0.003 0.49748 0.0
C250 C 0.671 0.01671 0.48819 0.0
C251 C 0.67421 0.01991 0.47036 0.0
C252 C 0.7012 0.01027 0.46205 0.0
H253 H 0.85565 0.07083 0.4783 0.0
H254 H 0.80499 0.06796 0.47924 0.0
H255 H 0.81578 0.03482 0.49223 0.0
H256 H 0.73996 0.98267 0.49652 0.0
H257 H 0.6934 0.00045 0.51125 0.0
H258 H 0.89553 0.92712 0.73878 0.0
H259 H 0.86046 0.88033 0.76201 0.0
H260 H 0.95905 0.84989 0.76484 0.0
H261 H 0.99506 0.89739 0.74147 0.0
H262 H 0.83553 0.78834 0.75791 0.0
H263 H 0.93818 0.87767 0.81651 0.0
H264 H 0.93537 0.90469 0.79794 0.0
H265 H 0.96286 0.8767 0.79713 0.0
C266 C 0.91044 0.91129 0.74451 0.0
C267 C 0.94818 0.91606 0.73828 0.0
C268 C 0.89023 0.88447 0.75778 0.0
C269 C 0.90737 0.86199 0.76513 0.0
C270 C 0.94571 0.86744 0.75938 0.0
H271 H 0.77363 0.66447 0.8391 0.0
H272 H 0.83009 0.71547 0.82119 0.0
C273 C 0.96607 0.8944 0.74602 0.0
C274 C 0.88238 0.83002 0.77763 0.0
H275 H 0.87324 0.81334 0.82048 0.0
C276 C 0.84401 0.79346 0.77158 0.0
C277 C 0.89383 0.83697 0.79537 0.0
C278 C 0.93474 0.87611 0.80228 0.0
C279 C 0.81589 0.76419 0.78291 0.0
C280 C 0.82623 0.77208 0.80072 0.0
C281 C 0.8655 0.80769 0.80678 0.0
C282 C 0.79495 0.74478 0.81306 0.0
C283 C 0.77475 0.72546 0.7758 0.0
C284 C 0.75723 0.74532 0.81465 0.0
C285 C 0.725 0.71629 0.82474 0.0
C286 C 0.72998 0.6862 0.83342 0.0
C287 C 0.7687 0.68695 0.83237 0.0
C288 C 0.80104 0.71616 0.82228 0.0
H289 H 0.77594 0.71939 0.76193 0.0
H290 H 0.76818 0.69713 0.78282 0.0
H291 H 0.74748 0.73009 0.77742 0.0
H292 H 0.75215 0.76734 0.80761 0.0
H293 H 0.69543 0.71628 0.82514 0.0
H294 H 0.06229 0.89113 0.04594 0.0
H295 H 0.04986 0.83506 0.06519 0.0
H296 H 0.04561 0.90749 0.10774 0.0
H297 H 0.05786 0.96376 0.08861 0.0
H298 H 0.10437 0.84624 0.09499 0.0
H299 H 0.93571 0.788 0.11079 0.0
H300 H 0.95942 0.81877 0.0923 0.0
H301 H 0.97289 0.84415 0.11327 0.0
C302 C 0.05839 0.89505 0.05937 0.0
C303 C 0.0611 0.93192 0.06575 0.0
C304 C 0.05129 0.86298 0.07033 0.0
C305 C 0.04638 0.86702 0.08782 0.0
C306 C 0.04864 0.90354 0.09422 0.0
H307 H 0.01568 0.70678 0.17317 0.0
H308 H 0.02061 0.76241 0.15513 0.0
C309 C 0.05589 0.93573 0.08328 0.0
C310 C 0.04121 0.83395 0.09947 0.0
H311 H 0.97111 0.75875 0.12563 0.0
C312 C 0.07523 0.82702 0.10167 0.0
C313 C 0.00329 0.80933 0.10825 0.0
C314 C 0.96552 0.81505 0.106 0.0
C315 C 0.07242 0.79609 0.11249 0.0
C316 C 0.03415 0.77081 0.12102 0.0
C317 C 0.00032 0.77813 0.11902 0.0
C318 C 0.02848 0.73601 0.13174 0.0
C319 C 0.11071 0.79118 0.11489 0.0
C320 C 0.03003 0.70225 0.12444 0.0
C321 C 0.02728 0.67062 0.13466 0.0
C322 C 0.02252 0.67195 0.15237 0.0
C323 C 0.0192 0.70489 0.15955 0.0
C324 C 0.02215 0.7367 0.1493 0.0
H325 H 0.14093 0.82005 0.11143 0.0
H326 H 0.11488 0.78422 0.12835 0.0
H327 H 0.10561 0.76451 0.10646 0.0
H328 H 0.03383 0.70061 0.11083 0.0
H329 H 0.02904 0.64515 0.12871 0.0
H330 H 0.10065 0.10784 0.41831 0.0
H331 H 0.16072 0.10917 0.43387 0.0
H332 H 0.12593 0.99083 0.40852 0.0
H333 H 0.06643 0.98965 0.39258 0.0
H334 H 0.15959 0.05342 0.45615 0.0
H335 H 0.25283 0.06258 0.40047 0.0
H336 H 0.20874 0.07127 0.3988 0.0
H337 H 0.19837 0.01838 0.39881 0.0
C338 C 0.10586 0.08217 0.41596 0.0
C339 C 0.07883 0.04875 0.40411 0.0
C340 C 0.14022 0.083 0.42487 0.0
C341 C 0.14823 0.05048 0.42213 0.0
C342 C 0.12101 0.0168 0.4105 0.0
H343 H 0.32384 0.98813 0.47125 0.0
H344 H 0.26456 0.98713 0.45489 0.0
C345 C 0.08683 0.01608 0.40148 0.0
C346 C 0.18426 0.05119 0.43187 0.0
H347 H 0.2757 0.04929 0.42734 0.0
C348 C 0.1851 0.05277 0.44985 0.0
C349 C 0.21754 0.05039 0.42361 0.0
C350 C 0.21967 0.05098 0.40437 0.0
C351 C 0.21803 0.05294 0.45979 0.0
C352 C 0.2509 0.05164 0.45152 0.0
C353 C 0.25017 0.05006 0.43357 0.0
C354 C 0.28664 0.05238 0.46134 0.0
C355 C 0.21728 0.05395 0.47907 0.0
C356 C 0.31863 0.08953 0.47019 0.0
C357 C 0.3525 0.09025 0.47947 0.0
C358 C 0.35475 0.05374 0.48008 0.0
C359 C 0.32264 0.01658 0.47114 0.0
C360 C 0.28897 0.016 0.46174 0.0
H361 H 0.18614 0.04809 0.48341 0.0
H362 H 0.22328 0.02995 0.48446 0.0
H363 H 0.24334 0.08545 0.48435 0.0
H364 H 0.31738 0.11795 0.4699 0.0
H365 H 0.3766 0.1192 0.48636 0.0
H366 H 0.11922 0.10369 0.71856 0.0
H367 H 0.18431 0.16271 0.73301 0.0
H368 H 0.11005 0.16254 0.77445 0.0
H369 H 0.04467 0.10424 0.75997 0.0
H370 H 0.16566 0.24209 0.76385 0.0
H371 H 0.25069 0.15632 0.77453 0.0
H372 H 0.23436 0.15621 0.75254 0.0
H373 H 0.19426 0.12956 0.76791 0.0
C374 C 0.1167 0.11612 0.73077 0.0
C375 C 0.07671 0.09907 0.73814 0.0
C376 C 0.15401 0.14971 0.73905 0.0
C377 C 0.15211 0.16649 0.75494 0.0
C378 C 0.11222 0.14991 0.76222 0.0
H379 H 0.32389 0.34645 0.83352 0.0
H380 H 0.26313 0.29255 0.81529 0.0
C381 C 0.07488 0.11655 0.75392 0.0
C382 C 0.19146 0.20172 0.76395 0.0
H383 H 0.28963 0.22933 0.78238 0.0
C384 C 0.19277 0.23931 0.76789 0.0
C385 C 0.22682 0.198 0.76918 0.0
C386 C 0.22648 0.15775 0.76598 0.0
C387 C 0.22842 0.27322 0.77699 0.0
C388 C 0.26345 0.26927 0.78235 0.0
C389 C 0.26264 0.23213 0.77815 0.0
C390 C 0.30028 0.3026 0.79312 0.0
C391 C 0.22844 0.31306 0.78083 0.0
C392 C 0.34132 0.32563 0.78669 0.0
C393 C 0.37614 0.35684 0.79702 0.0
C394 C 0.37048 0.36519 0.81401 0.0
C395 C 0.32925 0.34154 0.8204 0.0
C396 C 0.2945 0.3106 0.81004 0.0
H397 H 0.20368 0.31461 0.77271 0.0
H398 H 0.22143 0.31397 0.79445 0.0
H399 H 0.26049 0.34146 0.77885 0.0
H400 H 0.34629 0.31967 0.77364 0.0
H401 H 0.40734 0.37473 0.79164 0.0
H402 H 0.95001 0.03572 0.65377 0.0
H403 H 0.91294 0.05605 0.63309 0.0
H404 H 0.88123 0.11188 0.67414 0.0
H405 H 0.917 0.09036 0.69495 0.0
H406 H 0.81165 0.0547 0.65618 0.0
H407 H 0.9304 0.16022 0.61094 0.0
H408 H 0.93067 0.11251 0.61323 0.0
H409 H 0.9462 0.14894 0.63139 0.0
C410 C 0.93622 0.0534 0.65835 0.0
C411 C 0.93594 0.06099 0.676 0.0
C412 C 0.91525 0.06528 0.64648 0.0
C413 C 0.89449 0.08573 0.65205 0.0
C414 C 0.89701 0.0961 0.66957 0.0
H415 H 0.73908 0.14717 0.58461 0.0
H416 H 0.7967 0.15313 0.60398 0.0
C417 C 0.9174 0.08373 0.68145 0.0
C418 C 0.86471 0.09019 0.6401 0.0
H419 H 0.85557 0.12477 0.60084 0.0
C420 C 0.8215 0.07063 0.64421 0.0
C421 C 0.87751 0.11111 0.62451 0.0
C422 C 0.92384 0.13475 0.61984 0.0
C423 C 0.79049 0.07015 0.63294 0.0
C424 C 0.80278 0.08884 0.61693 0.0
C425 C 0.84621 0.10988 0.61304 0.0
C426 C 0.77046 0.08579 0.60403 0.0
C427 C 0.74474 0.04942 0.63826 0.0
C428 C 0.73744 0.04606 0.59733 0.0
C429 C 0.70457 0.04254 0.58635 0.0
C430 C 0.70435 0.07877 0.58175 0.0
C431 C 0.73851 0.11873 0.58789 0.0
C432 C 0.77136 0.12219 0.59895 0.0
H433 H 0.7431 0.04722 0.6524 0.0
H434 H 0.72964 0.06712 0.63381 0.0
H435 H 0.72558 0.01686 0.63245 0.0
H436 H 0.73671 0.01766 0.60086 0.0
H437 H 0.67914 0.01144 0.58154 0.0
H438 H 0.94776 0.0083 0.98996 0.0
H439 H 0.88782 0.94475 0.97543 0.0
H440 H 0.92494 0.86805 0.00285 0.0
H441 H 0.98453 0.93135 0.01776 0.0
H442 H 0.8935 0.88929 0.95434 0.0
H443 H 0.79662 0.80603 0.00939 0.0
H444 H 0.83932 0.86099 0.01094 0.0
H445 H 0.85172 0.82027 0.01189 0.0
C446 C 0.943 0.97791 0.99306 0.0
C447 C 0.97098 0.97495 0.00505 0.0
C448 C 0.90869 0.94162 0.98473 0.0
C449 C 0.90161 0.90167 0.98822 0.0
C450 C 0.92923 0.89849 0.00026 0.0
H451 H 0.7311 0.65264 0.93944 0.0
H452 H 0.78747 0.71349 0.95695 0.0
C453 C 0.96344 0.93477 0.00869 0.0
C454 C 0.8669 0.86373 0.97846 0.0
H455 H 0.77584 0.76714 0.98264 0.0
C456 C 0.86766 0.86269 0.96052 0.0
C457 C 0.83333 0.82902 0.98658 0.0
C458 C 0.82983 0.82914 0.00575 0.0
C459 C 0.83592 0.82772 0.95049 0.0
C460 C 0.80245 0.79309 0.9586 0.0
C461 C 0.80173 0.79385 0.97652 0.0
C462 C 0.76756 0.75608 0.94858 0.0
C463 C 0.83861 0.82777 0.93127 0.0
C464 C 0.73759 0.76 0.93832 0.0
C465 C 0.7055 0.72546 0.92834 0.0
C466 C 0.7029 0.68642 0.92845 0.0
C467 C 0.73265 0.68247 0.93896 0.0
C468 C 0.76462 0.71702 0.94903 0.0
H469 H 0.87072 0.85291 0.92732 0.0
H470 H 0.83184 0.79671 0.92619 0.0
H471 H 0.81404 0.83334 0.92531 0.0
H472 H 0.73928 0.78991 0.93793 0.0
H473 H 0.68327 0.72955 0.92025 0.0
H474 H 0.03507 0.93915 0.3371 0.0
H475 H 0.05369 0.89637 0.31978 0.0
H476 H 0.92753 0.83336 0.29387 0.0
H477 H 0.9089 0.87642 0.31085 0.0
H478 H 0.01524 0.81035 0.31797 0.0
H479 H 0.00523 0.86769 0.254 0.0
H480 H 0.00701 0.89477 0.27366 0.0
H481 H 0.95719 0.84929 0.26529 0.0
C482 C 0.01137 0.91638 0.32763 0.0
C483 C 0.97054 0.91131 0.32529 0.0
C484 C 0.02209 0.89199 0.31775 0.0
C485 C 0.99228 0.86226 0.30533 0.0
C486 C 0.95141 0.85689 0.30307 0.0
H487 H 0.95861 0.65567 0.24318 0.0
H488 H 0.9538 0.7101 0.259 0.0
C489 C 0.9407 0.88133 0.31289 0.0
C490 C 0.00306 0.8354 0.29526 0.0
H491 H 0.00559 0.80351 0.25437 0.0
C492 C 0.01374 0.80926 0.30407 0.0
C493 C 0.00123 0.8342 0.27712 0.0
C494 C 0.99248 0.86331 0.26696 0.0
C495 C 0.02087 0.78064 0.29521 0.0
C496 C 0.01751 0.77844 0.27711 0.0
C497 C 0.00796 0.80529 0.26828 0.0
C498 C 0.02139 0.74672 0.26715 0.0
C499 C 0.03035 0.75182 0.30521 0.0
C500 C 0.06117 0.74979 0.26634 0.0
C501 C 0.06404 0.71876 0.25729 0.0
C502 C 0.02708 0.68413 0.24903 0.0
C503 C 0.98748 0.68167 0.24964 0.0
C504 C 0.98471 0.7128 0.25857 0.0
H505 H 0.02603 0.7535 0.31913 0.0
H506 H 0.00907 0.71859 0.30029 0.0
H507 H 0.06412 0.76094 0.30358 0.0
H508 H 0.08986 0.77602 0.2728 0.0
H509 H 0.09492 0.72134 0.25708 0.0
H510 H 0.05773 0.92852 0.64816 0.0
H511 H 0.11631 0.94763 0.62927 0.0
H512 H 0.17779 0.07802 0.64692 0.0
H513 H 0.11967 0.05917 0.66607 0.0
H514 H 0.14509 0.005 0.60279 0.0
H515 H 0.273 0.05206 0.65458 0.0
H516 H 0.21645 0.02249 0.65856 0.0
H517 H 0.24371 0.0784 0.6557 0.0
C518 C 0.08372 0.96127 0.64806 0.0
C519 C 0.08418 0.99228 0.6587 0.0
C520 C 0.11711 0.97212 0.63723 0.0
C521 C 0.1516 0.01411 0.63688 0.0
C522 C 0.15184 0.0453 0.64725 0.0
H523 H 0.38742 0.11944 0.58156 0.0
H524 H 0.32844 0.11284 0.59784 0.0
C525 C 0.1185 0.03447 0.65812 0.0
C526 C 0.18722 0.02503 0.62562 0.0
H527 H 0.29449 0.0611 0.62615 0.0
C528 C 0.1778 0.0174 0.60787 0.0
C529 C 0.22985 0.04136 0.63232 0.0
C530 C 0.24149 0.04879 0.65133 0.0
C531 C 0.20988 0.02537 0.59662 0.0
C532 C 0.25227 0.04078 0.60336 0.0
C533 C 0.26193 0.0494 0.62105 0.0
C534 C 0.28648 0.04557 0.59244 0.0
C535 C 0.19818 0.01723 0.57763 0.0
C536 C 0.28227 0.00994 0.58405 0.0
C537 C 0.31575 0.0136 0.57477 0.0
C538 C 0.35416 0.05297 0.57379 0.0
C539 C 0.35802 0.0888 0.58196 0.0
C540 C 0.32451 0.08505 0.59131 0.0
H541 H 0.16843 0.01729 0.57419 0.0
H542 H 0.22469 0.04129 0.57016 0.0
H543 H 0.19229 0.98572 0.57379 0.0
H544 H 0.25347 0.97906 0.58501 0.0
H545 H 0.31171 0.98552 0.56849 0.0
H546 H 0.09588 0.09695 0.98809 0.0
H547 H 0.13202 0.1348 0.96284 0.0
H548 H 0.24796 0.14092 0.98164 0.0
H549 H 0.21104 0.10137 0.00653 0.0
H550 H 0.19452 0.21191 0.96482 0.0
H551 H 0.25263 0.12083 0.93195 0.0
H552 H 0.21298 0.09808 0.94786 0.0
H553 H 0.26959 0.1289 0.95424 0.0
C554 C 0.12879 0.10564 0.9866 0.0
C555 C 0.15101 0.09688 -0.00075 0.0
C556 C 0.14935 0.12705 0.97215 0.0
C557 C 0.19271 0.14064 0.97026 0.0
C558 C 0.21423 0.1299 0.98253 0.0
H559 H 0.38649 0.37446 0.93433 0.0
H560 H 0.33201 0.31422 0.94932 0.0
C561 C 0.19328 0.10759 0.99682 0.0
C562 C 0.21697 0.17124 0.95705 0.0
H563 H 0.29249 0.19655 0.92768 0.0
C564 C 0.21525 0.20802 0.95647 0.0
C565 C 0.24364 0.16615 0.94594 0.0
C566 C 0.24442 0.12609 0.9449 0.0
C567 C 0.24105 0.24071 0.94579 0.0
C568 C 0.27042 0.23717 0.93582 0.0
C569 C 0.27047 0.19949 0.9356 0.0
C570 C 0.30316 0.27335 0.92649 0.0
C571 C 0.23699 0.27901 0.9455 0.0
C572 C 0.30575 0.26993 0.90875 0.0
C573 C 0.33709 0.30436 0.90014 0.0
C574 C 0.36631 0.34264 0.90918 0.0
C575 C 0.36381 0.34571 0.92697 0.0
C576 C 0.33272 0.31131 0.93555 0.0
H577 H 0.2045 0.27103 0.949 0.0
H578 H 0.26087 0.30334 0.95502 0.0
H579 H 0.24307 0.29283 0.93267 0.0
H580 H 0.28335 0.24077 0.90157 0.0
H581 H 0.33826 0.30118 0.88641 0.0
H582 H 0.02875 0.08292 0.31718 0.0
H583 H 0.05226 0.13335 0.29428 0.0
H584 H 0.08218 0.23354 0.33127 0.0
H585 H 0.05983 0.18402 0.35412 0.0
H586 H 0.01127 0.17337 0.28608 0.0
H587 H 0.18211 0.29379 0.30142 0.0
H588 H 0.15578 0.24272 0.31088 0.0
H589 H 0.15168 0.28521 0.31993 0.0
C590 C 0.04154 0.11593 0.3205 0.0
C591 C 0.04199 0.12935 0.33747 0.0
C592 C 0.05494 0.14469 0.30739 0.0
C593 C 0.06942 0.18731 0.31108 0.0
C594 C 0.07216 0.20109 0.32814 0.0
H595 H 0.0654 0.39386 0.27449 0.0
H596 H 0.07332 0.34056 0.2892 0.0
C597 C 0.05885 0.17251 0.3412 0.0
C598 C 0.07532 0.21615 0.29715 0.0
H599 H 0.14024 0.31821 0.28584 0.0
C600 C 0.03995 0.20462 0.28566 0.0
C601 C 0.11275 0.2569 0.29662 0.0
C602 C 0.15285 0.27015 0.30778 0.0
C603 C 0.03971 0.23387 0.27463 0.0
C604 C 0.07593 0.27551 0.27505 0.0
C605 C 0.11237 0.28629 0.2857 0.0
C606 C 0.07457 0.30925 0.26591 0.0
C607 C -0.00032 0.22093 0.26345 0.0
C608 C 0.07323 0.30944 0.24796 0.0
C609 C 0.06851 0.33974 0.23952 0.0
C610 C 0.06498 0.3702 0.24893 0.0
C611 C 0.06743 0.37044 0.26692 0.0
C612 C 0.07232 0.3403 0.27532 0.0
H613 H 0.97259 0.1888 0.26611 0.0
H614 H 0.98927 0.24378 0.26539 0.0
H615 H 0.00681 0.22115 0.24978 0.0
H616 H 0.07511 0.28577 0.24051 0.0
H617 H 0.06645 0.33863 0.22564 0.0
loop_
_geom_bond_atom_site_label_1
_geom_bond_atom_site_label_2
_geom_bond_distance
_geom_bond_site_symmetry_2
_ccdc_geom_bond_type
Mg0 O1 2.028 1_545 S
Mg0 O7 1.986 . S
Mg0 O9 2.114 . S
Mg0 O10 2.251 . S
Mg0 O13 2.010 . S
O1 Mg0 2.028 1_565 S
O1 C4 1.250 1_455 S
O2 Mg3 2.029 . S
O2 C4 1.254 1_445 S
Mg3 O2 2.029 . S
Mg3 O8 2.032 . S
Mg3 O10 2.079 . S
C4 O1 1.250 1_655 S
C4 O2 1.254 1_665 S
C5 O6 1.264 . S
C5 O13 1.249 1_565 S
O6 C5 1.264 . S
O7 Mg0 1.986 . S
O7 C11 1.246 . S
O8 Mg3 2.032 . S
O8 C11 1.259 . S
O9 Mg0 2.114 . S
O9 C12 1.252 . S
O10 Mg0 2.251 . S
O10 Mg3 2.079 . S
O10 C12 1.273 . S
C11 O7 1.246 . S
C11 O8 1.259 . S
C12 O9 1.252 . S
C12 O10 1.273 . S
O13 Mg0 2.010 . S
O13 C5 1.249 1_545 S
Mg14 O15 2.028 1_655 S
Mg14 O21 1.986 1_655 S
Mg14 O23 2.114 1_545 S
Mg14 O24 2.251 . S
Mg14 O27 2.010 1_545 S
O15 Mg14 2.028 1_455 S
O15 C18 1.250 . S
O16 Mg17 2.028 . S
O16 C18 1.248 . S
Mg17 O16 2.028 . S
Mg17 O22 2.032 . S
Mg17 O24 2.079 1_455 S
C18 O15 1.250 . S
C18 O16 1.248 . S
C19 O20 1.264 . S
C19 O27 1.249 . S
O20 C19 1.264 . S
O21 Mg14 1.986 1_455 S
O21 C25 1.246 . S
O22 Mg17 2.032 . S
O22 C25 1.259 . S
O23 Mg14 2.114 1_565 S
O23 C26 1.252 1_565 S
O24 Mg14 2.251 . S
O24 Mg17 2.079 1_655 S
O24 C26 1.273 . S
C25 O21 1.246 . S
C25 O22 1.259 . S
C26 O23 1.252 1_545 S
C26 O24 1.273 . S
O27 Mg14 2.010 1_565 S
O27 C19 1.249 . S
Mg28 O29 2.028 1_565 S
Mg28 O35 1.986 1_465 S
Mg28 O37 2.114 . S
Mg28 O38 2.251 1_455 S
Mg28 O41 2.010 . S
O29 Mg28 2.028 1_545 S
O29 C32 1.250 . S
O30 Mg31 2.028 1_455 S
O30 C32 1.248 . S
Mg31 O30 2.028 1_655 S
Mg31 O36 2.032 . S
Mg31 O38 2.079 1_545 S
C32 O29 1.250 . S
C32 O30 1.248 . S
C33 O34 1.264 . S
C33 O41 1.249 . S
O34 C33 1.264 . S
O35 Mg28 1.986 1_645 S
O35 C39 1.246 . S
O36 Mg31 2.032 . S
O36 C39 1.259 . S
O37 Mg28 2.114 . S
O37 C40 1.252 1_455 S
O38 Mg28 2.251 1_655 S
O38 Mg31 2.079 1_565 S
O38 C40 1.273 . S
C39 O35 1.246 . S
C39 O36 1.259 . S
C40 O37 1.252 1_655 S
C40 O38 1.273 . S
O41 Mg28 2.010 . S
O41 C33 1.249 . S
H42 C61 0.949 . S
H43 C62 0.950 . S
H44 C64 0.950 1_655 S
H45 C65 0.950 1_655 S
H46 C67 0.950 . S
H47 C70 0.950 . S
H48 C71 0.950 . S
H49 C73 0.951 . S
H50 C74 0.949 . S
H51 C76 0.949 . S
H52 C77 0.950 . S
H53 C79 0.950 . S
H54 C80 0.950 . S
H55 C82 0.950 . S
H56 C85 0.950 1_655 S
H57 C86 0.950 1_655 S
H58 C88 0.951 . S
H59 C89 0.949 . S
C60 C61 1.376 . S
C60 C65 1.386 . S
C60 C66 1.483 . S
C61 H42 0.949 . S
C61 C60 1.376 . S
C61 C62 1.397 . S
C62 H43 0.950 . S
C62 C61 1.397 . S
C62 C63 1.391 . S
C63 C62 1.391 . S
C63 C64 1.405 . S
C64 H44 0.950 1_455 S
C64 C63 1.405 . S
C64 C65 1.367 . S
C65 H45 0.950 1_455 S
C65 C60 1.386 . S
C65 C64 1.367 . S
C66 C60 1.483 . S
C66 C67 1.382 . S
C66 C68 1.403 . S
C67 H46 0.950 . S
C67 C66 1.382 . S
C67 C83 1.411 . S
C68 C66 1.403 . S
C68 C69 1.489 . S
C68 C82 1.411 . S
C69 C68 1.489 . S
C69 C70 1.383 . S
C69 C74 1.382 1_455 S
C70 H47 0.950 . S
C70 C69 1.383 . S
C70 C71 1.395 . S
C71 H48 0.950 . S
C71 C70 1.395 . S
C71 C72 1.288 . S
C72 C71 1.288 . S
C72 C73 1.392 1_455 S
C73 H49 0.951 . S
C73 C72 1.392 1_655 S
C73 C74 1.392 . S
C74 H50 0.949 . S
C74 C69 1.382 1_655 S
C74 C73 1.392 . S
C75 C76 1.376 1_455 S
C75 C80 1.386 . S
C75 C81 1.483 . S
C76 H51 0.949 . S
C76 C75 1.376 1_655 S
C76 C77 1.397 . S
C77 H52 0.950 . S
C77 C76 1.397 . S
C77 C78 1.391 1_655 S
C78 C77 1.391 1_455 S
C78 C79 1.405 . S
C79 H53 0.950 . S
C79 C78 1.405 . S
C79 C80 1.367 . S
C80 H54 0.950 . S
C80 C75 1.386 . S
C80 C79 1.367 . S
C81 C75 1.483 . S
C81 C82 1.382 . S
C81 C83 1.403 . S
C82 H55 0.950 . S
C82 C68 1.411 . S
C82 C81 1.382 . S
C83 C67 1.411 . S
C83 C81 1.403 . S
C83 C84 1.489 . S
C84 C83 1.489 . S
C84 C85 1.383 . S
C84 C89 1.382 . S
C85 H56 0.950 1_455 S
C85 C84 1.383 . S
C85 C86 1.395 . S
C86 H57 0.950 1_455 S
C86 C85 1.395 . S
C86 C87 1.288 . S
C87 C86 1.288 . S
C87 C88 1.392 . S
C88 H58 0.951 . S
C88 C87 1.392 . S
C88 C89 1.392 . S
C89 H59 0.949 . S
C89 C84 1.382 . S
C89 C88 1.392 . S
H90 C109 0.949 . S
H91 C110 0.950 . S
H92 C112 0.950 1_565 S
H93 C113 0.950 1_565 S
H94 C115 0.950 . S
H95 C118 0.950 . S
H96 C119 0.950 . S
H97 C121 0.951 1_565 S
H98 C122 0.949 1_565 S
H99 C124 0.949 1_565 S
H100 C125 0.950 1_565 S
H101 C127 0.950 . S
H102 C128 0.950 . S
H103 C130 0.950 . S
H104 C133 0.950 1_565 S
H105 C134 0.954 . S
H106 C136 0.951 . S
H107 C137 0.949 . S
C108 C109 1.376 . S
C108 C113 1.386 . S
C108 C114 1.483 . S
C109 H90 0.949 . S
C109 C108 1.376 . S
C109 C110 1.397 . S
C110 H91 0.950 . S
C110 C109 1.397 . S
C110 C111 1.391 . S
C111 C110 1.391 . S
C111 C112 1.405 . S
C112 H92 0.950 1_545 S
C112 C111 1.405 . S
C112 C113 1.367 . S
C113 H93 0.950 1_545 S
C113 C108 1.386 . S
C113 C112 1.367 . S
C114 C108 1.483 . S
C114 C115 1.382 . S
C114 C116 1.403 . S
C115 H94 0.950 . S
C115 C114 1.382 . S
C115 C131 1.411 . S
C116 C114 1.403 . S
C116 C117 1.489 . S
C116 C130 1.411 . S
C117 C116 1.489 . S
C117 C118 1.383 . S
C117 C122 1.382 . S
C118 H95 0.950 . S
C118 C117 1.383 . S
C118 C119 1.395 . S
C119 H96 0.950 . S
C119 C118 1.395 . S
C119 C120 1.288 . S
C120 C119 1.288 . S
C120 C121 1.392 . S
C121 H97 0.951 1_545 S
C121 C120 1.392 . S
C121 C122 1.392 . S
C122 H98 0.949 1_545 S
C122 C117 1.382 . S
C122 C121 1.392 . S
C123 C124 1.376 . S
C123 C128 1.386 . S
C123 C129 1.483 . S
C124 H99 0.949 1_545 S
C124 C123 1.376 . S
C124 C125 1.397 . S
C125 H100 0.950 1_545 S
C125 C124 1.397 . S
C125 C126 1.391 . S
C126 C125 1.391 . S
C126 C127 1.405 . S
C127 H101 0.950 . S
C127 C126 1.405 . S
C127 C128 1.367 . S
C128 H102 0.950 . S
C128 C123 1.386 . S
C128 C127 1.367 . S
C129 C123 1.483 . S
C129 C130 1.382 . S
C129 C131 1.403 . S
C130 H103 0.950 . S
C130 C116 1.411 . S
C130 C129 1.382 . S
C131 C115 1.411 . S
C131 C129 1.403 . S
C131 C132 1.489 . S
C132 C131 1.489 . S
C132 C133 1.383 . S
C132 C137 1.382 . S
C133 H104 0.950 1_545 S
C133 C132 1.383 . S
C133 C134 1.395 . S
C134 H105 0.954 . S
C134 C133 1.395 . S
C134 C135 1.288 . S
C135 C134 1.288 . S
C135 C136 1.392 . S
C136 H106 0.951 . S
C136 C135 1.392 . S
C136 C137 1.392 . S
C137 H107 0.949 . S
C137 C132 1.382 . S
C137 C136 1.392 . S
H138 C157 0.949 . S
H139 C158 0.950 . S
H140 C160 0.950 . S
H141 C161 0.950 . S
H142 C163 0.950 . S
H143 C166 0.950 . S
H144 C167 0.950 . S
H145 C169 0.951 . S
H146 C170 0.949 . S
H147 C172 0.949 . S
H148 C173 0.950 . S
H149 C175 0.950 . S
H150 C176 0.950 . S
H151 C178 0.950 . S
H152 C181 0.950 . S
H153 C182 0.950 . S
H154 C184 0.951 . S
H155 C185 0.949 . S
C156 C157 1.376 . S
C156 C161 1.386 . S
C156 C162 1.483 . S
C157 H138 0.949 . S
C157 C156 1.376 . S
C157 C158 1.397 . S
C158 H139 0.950 . S
C158 C157 1.397 . S
C158 C159 1.391 . S
C159 C158 1.391 . S
C159 C160 1.405 . S
C160 H140 0.950 . S
C160 C159 1.405 . S
C160 C161 1.367 . S
C161 H141 0.950 . S
C161 C156 1.386 . S
C161 C160 1.367 . S
C162 C156 1.483 . S
C162 C163 1.382 . S
C162 C164 1.403 . S
C163 H142 0.950 . S
C163 C162 1.382 . S
C163 C179 1.411 . S
C164 C162 1.403 . S
C164 C165 1.489 . S
C164 C178 1.411 . S
C165 C164 1.489 . S
C165 C166 1.383 . S
C165 C170 1.382 . S
C166 H143 0.950 . S
C166 C165 1.383 . S
C166 C167 1.395 . S
C167 H144 0.950 . S
C167 C166 1.395 . S
C167 C168 1.288 . S
C168 C167 1.288 . S
C168 C169 1.392 . S
C169 H145 0.951 . S
C169 C168 1.392 . S
C169 C170 1.392 . S
C170 H146 0.949 . S
C170 C165 1.382 . S
C170 C169 1.392 . S
C171 C172 1.376 . S
C171 C176 1.386 . S
C171 C177 1.483 . S
C172 H147 0.949 . S
C172 C171 1.376 . S
C172 C173 1.397 . S
C173 H148 0.950 . S
C173 C172 1.397 . S
C173 C174 1.391 . S
C174 C173 1.391 . S
C174 C175 1.405 . S
C175 H149 0.950 . S
C175 C174 1.405 . S
C175 C176 1.367 . S
C176 H150 0.950 . S
C176 C171 1.386 . S
C176 C175 1.367 . S
C177 C171 1.483 . S
C177 C178 1.382 . S
C177 C179 1.403 . S
C178 H151 0.950 . S
C178 C164 1.411 . S
C178 C177 1.382 . S
C179 C163 1.411 . S
C179 C177 1.403 . S
C179 C180 1.489 . S
C180 C179 1.489 . S
C180 C181 1.383 . S
C180 C185 1.382 . S
C181 H152 0.950 . S
C181 C180 1.383 . S
C181 C182 1.395 . S
C182 H153 0.950 . S
C182 C181 1.395 . S
C182 C183 1.288 . S
C183 C182 1.288 . S
C183 C184 1.392 . S
C184 H154 0.951 . S
C184 C183 1.392 . S
C184 C185 1.392 . S
C185 H155 0.949 . S
C185 C180 1.382 . S
C185 C184 1.392 . S
H186 C194 0.929 . S
H187 C196 0.930 . S
H188 C198 0.930 1_655 S
H189 C201 0.929 1_655 S
H190 C204 0.930 . S
H191 C206 0.960 . S
H192 C206 0.960 . S
H193 C206 0.960 . S
C194 H186 0.929 . S
C194 C195 1.377 . S
C194 C196 1.384 . S
C195 C194 1.377 . S
C195 C201 1.390 . S
C196 H187 0.930 . S
C196 C194 1.384 . S
C196 C197 1.372 . S
C197 C196 1.372 . S
C197 C198 1.400 . S
C197 C202 1.490 . S
C198 H188 0.930 1_455 S
C198 C197 1.400 . S
C198 C201 1.386 . S
H199 C215 0.930 1_655 S
H200 C216 0.931 1_655 S
C201 H189 0.929 1_455 S
C201 C195 1.390 . S
C201 C198 1.386 . S
C202 C197 1.490 . S
C202 C204 1.395 . S
C202 C205 1.403 . S
H203 C209 0.930 . S
C204 H190 0.930 . S
C204 C202 1.395 . S
C204 C207 1.403 . S
C205 C202 1.403 . S
C205 C206 1.524 . S
C205 C209 1.400 . S
C206 H191 0.960 . S
C206 H192 0.960 . S
C206 H193 0.960 . S
C206 C205 1.524 . S
C207 C204 1.403 . S
C207 C208 1.392 . S
C207 C211 1.495 . S
C208 C207 1.392 . S
C208 C209 1.385 . S
C208 C210 1.478 . S
C209 H203 0.930 . S
C209 C205 1.400 . S
C209 C208 1.385 . S
C210 C208 1.478 . S
C210 C212 1.381 . S
C210 C216 1.383 . S
C211 C207 1.495 . S
C211 H217 0.959 1_455 S
C211 H218 0.961 1_455 S
C211 H219 0.960 . S
C212 C210 1.381 . S
C212 C213 1.394 . S
C212 H220 0.930 . S
C213 C212 1.394 . S
C213 C214 1.383 . S
C213 H221 0.929 . S
C214 C213 1.383 . S
C214 C215 1.377 . S
C215 H199 0.930 1_455 S
C215 C214 1.377 . S
C215 C216 1.379 . S
C216 H200 0.931 1_455 S
C216 C210 1.383 . S
C216 C215 1.379 . S
H217 C211 0.959 1_655 S
H218 C211 0.961 1_655 S
H219 C211 0.960 . S
H220 C212 0.930 . S
H221 C213 0.929 . S
H222 C230 0.929 . S
H223 C232 0.930 . S
H224 C234 0.930 . S
H225 C237 0.929 . S
H226 C240 0.930 . S
H227 C242 0.960 . S
H228 C242 0.960 . S
H229 C242 0.960 . S
C230 H222 0.929 . S
C230 C231 1.377 . S
C230 C232 1.384 . S
C231 C230 1.377 . S
C231 C237 1.391 1_565 S
C232 H223 0.930 . S
C232 C230 1.384 . S
C232 C233 1.372 1_565 S
C233 C232 1.372 1_545 S
C233 C234 1.400 . S
C233 C238 1.490 . S
C234 H224 0.930 . S
C234 C233 1.400 . S
C234 C237 1.386 . S
H235 C251 0.930 . S
H236 C252 0.931 . S
C237 H225 0.929 . S
C237 C231 1.391 1_545 S
C237 C234 1.386 . S
C238 C233 1.490 . S
C238 C240 1.395 . S
C238 C241 1.403 1_545 S
H239 C245 0.930 1_565 S
C240 H226 0.930 . S
C240 C238 1.395 . S
C240 C243 1.403 . S
C241 C238 1.403 1_565 S
C241 C242 1.524 . S
C241 C245 1.400 1_565 S
C242 H227 0.960 . S
C242 H228 0.960 . S
C242 H229 0.960 . S
C242 C241 1.524 . S
C243 C240 1.403 . S
C243 C244 1.392 . S
C243 C247 1.495 . S
C244 C243 1.392 . S
C244 C245 1.385 . S
C244 C246 1.478 . S
C245 H239 0.930 1_545 S
C245 C241 1.400 1_545 S
C245 C244 1.385 . S
C246 C244 1.478 . S
C246 C248 1.381 . S
C246 C252 1.383 . S
C247 C243 1.495 . S
C247 H253 0.959 . S
C247 H254 0.961 . S
C247 H255 0.960 . S
C248 C246 1.381 . S
C248 C249 1.394 . S
C248 H256 0.930 . S
C249 C248 1.394 . S
C249 C250 1.383 . S
C249 H257 0.929 . S
C250 C249 1.383 . S
C250 C251 1.377 . S
C251 H235 0.930 . S
C251 C250 1.377 . S
C251 C252 1.379 . S
C252 H236 0.931 . S
C252 C246 1.383 . S
C252 C251 1.379 . S
H253 C247 0.959 . S
H254 C247 0.961 . S
H255 C247 0.960 . S
H256 C248 0.930 . S
H257 C249 0.929 . S
H258 C266 0.929 . S
H259 C268 0.930 . S
H260 C270 0.930 . S
H261 C273 0.929 . S
H262 C276 0.930 . S
H263 C278 0.960 . S
H264 C278 0.960 . S
H265 C278 0.960 . S
C266 H258 0.929 . S
C266 C267 1.377 . S
C266 C268 1.384 . S
C267 C266 1.377 . S
C267 C273 1.390 . S
C268 H259 0.930 . S
C268 C266 1.384 . S
C268 C269 1.372 . S
C269 C268 1.372 . S
C269 C270 1.400 . S
C269 C274 1.490 . S
C270 H260 0.930 . S
C270 C269 1.400 . S
C270 C273 1.386 . S
H271 C287 0.930 . S
H272 C288 0.931 . S
C273 H261 0.929 . S
C273 C267 1.390 . S
C273 C270 1.386 . S
C274 C269 1.490 . S
C274 C276 1.395 . S
C274 C277 1.403 . S
H275 C281 0.930 . S
C276 H262 0.930 . S
C276 C274 1.395 . S
C276 C279 1.403 . S
C277 C274 1.403 . S
C277 C278 1.524 . S
C277 C281 1.400 . S
C278 H263 0.960 . S
C278 H264 0.960 . S
C278 H265 0.960 . S
C278 C277 1.524 . S
C279 C276 1.403 . S
C279 C280 1.392 . S
C279 C283 1.495 . S
C280 C279 1.392 . S
C280 C281 1.385 . S
C280 C282 1.478 . S
C281 H275 0.930 . S
C281 C277 1.400 . S
C281 C280 1.385 . S
C282 C280 1.478 . S
C282 C284 1.381 . S
C282 C288 1.383 . S
C283 C279 1.495 . S
C283 H289 0.959 . S
C283 H290 0.961 . S
C283 H291 0.960 . S
C284 C282 1.381 . S
C284 C285 1.394 . S
C284 H292 0.930 . S
C285 C284 1.394 . S
C285 C286 1.383 . S
C285 H293 0.929 . S
C286 C285 1.383 . S
C286 C287 1.377 . S
C287 H271 0.930 . S
C287 C286 1.377 . S
C287 C288 1.379 . S
C288 H272 0.931 . S
C288 C282 1.383 . S
C288 C287 1.379 . S
H289 C283 0.959 . S
H290 C283 0.961 . S
H291 C283 0.960 . S
H292 C284 0.930 . S
H293 C285 0.929 . S
H294 C302 0.929 . S
H295 C304 0.930 . S
H296 C306 0.930 . S
H297 C309 0.929 . S
H298 C312 0.930 . S
H299 C314 0.960 . S
H300 C314 0.960 . S
H301 C314 0.960 . S
C302 H294 0.929 . S
C302 C303 1.377 . S
C302 C304 1.384 . S
C303 C302 1.377 . S
C303 C309 1.390 . S
C304 H295 0.930 . S
C304 C302 1.384 . S
C304 C305 1.372 . S
C305 C304 1.372 . S
C305 C306 1.400 . S
C305 C310 1.490 . S
C306 H296 0.930 . S
C306 C305 1.400 . S
C306 C309 1.386 . S
H307 C323 0.930 . S
H308 C324 0.931 . S
C309 H297 0.929 . S
C309 C303 1.390 . S
C309 C306 1.386 . S
C310 C305 1.490 . S
C310 C312 1.395 . S
C310 C313 1.403 . S
H311 C317 0.930 1_655 S
C312 H298 0.930 . S
C312 C310 1.395 . S
C312 C315 1.403 . S
C313 C310 1.403 . S
C313 C314 1.524 1_455 S
C313 C317 1.400 . S
C314 H299 0.960 . S
C314 H300 0.960 . S
C314 H301 0.960 . S
C314 C313 1.524 1_655 S
C315 C312 1.403 . S
C315 C316 1.392 . S
C315 C319 1.495 . S
C316 C315 1.392 . S
C316 C317 1.385 . S
C316 C318 1.478 . S
C317 H311 0.930 1_455 S
C317 C313 1.400 . S
C317 C316 1.385 . S
C318 C316 1.478 . S
C318 C320 1.381 . S
C318 C324 1.383 . S
C319 C315 1.495 . S
C319 H325 0.959 . S
C319 H326 0.961 . S
C319 H327 0.960 . S
C320 C318 1.381 . S
C320 C321 1.394 . S
C320 H328 0.930 . S
C321 C320 1.394 . S
C321 C322 1.383 . S
C321 H329 0.929 . S
C322 C321 1.383 . S
C322 C323 1.377 . S
C323 H307 0.930 . S
C323 C322 1.377 . S
C323 C324 1.379 . S
C324 H308 0.931 . S
C324 C318 1.383 . S
C324 C323 1.379 . S
H325 C319 0.959 . S
H326 C319 0.961 . S
H327 C319 0.960 . S
H328 C320 0.930 . S
H329 C321 0.929 . S
H330 C338 0.929 . S
H331 C340 0.930 . S
H332 C342 0.944 . S
H333 C345 0.929 1_565 S
H334 C348 0.930 . S
H335 C350 0.960 . S
H336 C350 0.960 . S
H337 C350 0.960 . S
C338 H330 0.929 . S
C338 C339 1.377 . S
C338 C340 1.384 . S
C339 C338 1.377 . S
C339 C345 1.390 . S
C340 H331 0.930 . S
C340 C338 1.384 . S
C340 C341 1.372 . S
C341 C340 1.372 . S
C341 C342 1.400 . S
C341 C346 1.490 . S
C342 H332 0.944 . S
C342 C341 1.400 . S
C342 C345 1.386 . S
H343 C359 0.930 1_565 S
H344 C360 0.931 1_565 S
C345 H333 0.929 1_545 S
C345 C339 1.390 . S
C345 C342 1.386 . S
C346 C341 1.490 . S
C346 C348 1.395 . S
C346 C349 1.403 . S
H347 C353 0.930 . S
C348 H334 0.930 . S
C348 C346 1.395 . S
C348 C351 1.403 . S
C349 C346 1.403 . S
C349 C350 1.524 . S
C349 C353 1.400 . S
C350 H335 0.960 . S
C350 H336 0.960 . S
C350 H337 0.960 . S
C350 C349 1.524 . S
C351 C348 1.403 . S
C351 C352 1.392 . S
C351 C355 1.495 . S
C352 C351 1.392 . S
C352 C353 1.385 . S
C352 C354 1.478 . S
C353 H347 0.930 . S
C353 C349 1.400 . S
C353 C352 1.385 . S
C354 C352 1.478 . S
C354 C356 1.381 . S
C354 C360 1.383 . S
C355 C351 1.495 . S
C355 H361 0.959 . S
C355 H362 0.961 1_545 S
C355 H363 0.960 . S
C356 C354 1.381 . S
C356 C357 1.394 . S
C356 H364 0.930 . S
C357 C356 1.394 . S
C357 C358 1.383 . S
C357 H365 0.929 . S
C358 C357 1.383 . S
C358 C359 1.377 . S
C359 H343 0.930 1_545 S
C359 C358 1.377 . S
C359 C360 1.379 . S
C360 H344 0.931 1_545 S
C360 C354 1.383 . S
C360 C359 1.379 . S
H361 C355 0.959 . S
H362 C355 0.961 1_565 S
H363 C355 0.960 . S
H364 C356 0.930 . S
H365 C357 0.929 . S
H366 C374 0.929 . S
H367 C376 0.930 . S
H368 C378 0.930 . S
H369 C381 0.929 . S
H370 C384 0.930 . S
H371 C386 0.960 . S
H372 C386 0.960 . S
H373 C386 0.960 . S
C374 H366 0.929 . S
C374 C375 1.377 . S
C374 C376 1.384 . S
C375 C374 1.377 . S
C375 C381 1.390 . S
C376 H367 0.930 . S
C376 C374 1.384 . S
C376 C377 1.372 . S
C377 C376 1.372 . S
C377 C378 1.400 . S
C377 C382 1.490 . S
C378 H368 0.930 . S
C378 C377 1.400 . S
C378 C381 1.386 . S
H379 C395 0.930 . S
H380 C396 0.931 . S
C381 H369 0.929 . S
C381 C375 1.390 . S
C381 C378 1.386 . S
C382 C377 1.490 . S
C382 C384 1.395 . S
C382 C385 1.403 . S
H383 C389 0.930 . S
C384 H370 0.930 . S
C384 C382 1.395 . S
C384 C387 1.403 . S
C385 C382 1.403 . S
C385 C386 1.524 . S
C385 C389 1.400 . S
C386 H371 0.960 . S
C386 H372 0.960 . S
C386 H373 0.960 . S
C386 C385 1.524 . S
C387 C384 1.403 . S
C387 C388 1.392 . S
C387 C391 1.495 . S
C388 C387 1.392 . S
C388 C389 1.385 . S
C388 C390 1.478 . S
C389 H383 0.930 . S
C389 C385 1.400 . S
C389 C388 1.385 . S
C390 C388 1.478 . S
C390 C392 1.381 . S
C390 C396 1.383 . S
C391 C387 1.495 . S
C391 H397 0.959 . S
C391 H398 0.961 . S
C391 H399 0.960 . S
C392 C390 1.381 . S
C392 C393 1.394 . S
C392 H400 0.930 . S
C393 C392 1.394 . S
C393 C394 1.383 . S
C393 H401 0.929 . S
C394 C393 1.383 . S
C394 C395 1.377 . S
C395 H379 0.930 . S
C395 C394 1.377 . S
C395 C396 1.379 . S
C396 H380 0.931 . S
C396 C390 1.383 . S
C396 C395 1.379 . S
H397 C391 0.959 . S
H398 C391 0.961 . S
H399 C391 0.960 . S
H400 C392 0.930 . S
H401 C393 0.929 . S
H402 C410 0.929 1_565 S
H403 C412 0.930 1_565 S
H404 C414 0.930 . S
H405 C417 0.929 . S
H406 C420 0.930 . S
H407 C422 0.960 . S
H408 C422 0.960 . S
H409 C422 0.960 . S
C410 H402 0.929 1_545 S
C410 C411 1.377 . S
C410 C412 1.384 . S
C411 C410 1.377 . S
C411 C417 1.390 . S
C412 H403 0.930 1_545 S
C412 C410 1.384 . S
C412 C413 1.372 . S
C413 C412 1.372 . S
C413 C414 1.400 . S
C413 C418 1.490 . S
C414 H404 0.930 . S
C414 C413 1.400 . S
C414 C417 1.386 . S
H415 C431 0.930 . S
H416 C432 0.931 . S
C417 H405 0.929 . S
C417 C411 1.390 . S
C417 C414 1.386 . S
C418 C413 1.490 . S
C418 C420 1.395 . S
C418 C421 1.403 . S
H419 C425 0.930 . S
C420 H406 0.930 . S
C420 C418 1.395 . S
C420 C423 1.403 . S
C421 C418 1.403 . S
C421 C422 1.524 . S
C421 C425 1.400 . S
C422 H407 0.960 . S
C422 H408 0.960 . S
C422 H409 0.960 . S
C422 C421 1.524 . S
C423 C420 1.403 . S
C423 C424 1.392 . S
C423 C427 1.495 . S
C424 C423 1.392 . S
C424 C425 1.385 . S
C424 C426 1.478 . S
C425 H419 0.930 . S
C425 C421 1.400 . S
C425 C424 1.385 . S
C426 C424 1.478 . S
C426 C428 1.381 . S
C426 C432 1.383 . S
C427 C423 1.495 . S
C427 H433 0.959 1_545 S
C427 H434 0.961 . S
C427 H435 0.960 1_545 S
C428 C426 1.381 . S
C428 C429 1.394 . S
C428 H436 0.930 1_545 S
C429 C428 1.394 . S
C429 C430 1.383 . S
C429 H437 0.929 1_545 S
C430 C429 1.383 . S
C430 C431 1.377 . S
C431 H415 0.930 . S
C431 C430 1.377 . S
C431 C432 1.379 . S
C432 H416 0.931 . S
C432 C426 1.383 . S
C432 C431 1.379 . S
H433 C427 0.959 1_565 S
H434 C427 0.961 . S
H435 C427 0.960 1_565 S
H436 C428 0.930 1_565 S
H437 C429 0.929 1_565 S
H438 C446 0.929 . S
H439 C448 0.930 . S
H440 C450 0.930 . S
H441 C453 0.929 . S
H442 C456 0.930 . S
H443 C458 0.960 . S
H444 C458 0.960 1_554 S
H445 C458 0.965 . S
C446 H438 0.929 . S
C446 C447 1.377 . S
C446 C448 1.384 1_554 S
C447 C446 1.377 . S
C447 C453 1.390 . S
C448 H439 0.930 . S
C448 C446 1.384 1_556 S
C448 C449 1.372 . S
C449 C448 1.372 . S
C449 C450 1.400 . S
C449 C454 1.490 . S
C450 H440 0.930 . S
C450 C449 1.400 . S
C450 C453 1.386 1_556 S
H451 C467 0.930 . S
H452 C468 0.931 . S
C453 H441 0.929 . S
C453 C447 1.390 . S
C453 C450 1.386 1_554 S
C454 C449 1.490 . S
C454 C456 1.395 . S
C454 C457 1.403 . S
H455 C461 0.930 . S
C456 H442 0.930 . S
C456 C454 1.395 . S
C456 C459 1.403 . S
C457 C454 1.403 . S
C457 C458 1.524 . S
C457 C461 1.400 . S
C458 H443 0.960 . S
C458 H444 0.960 1_556 S
C458 H445 0.965 . S
C458 C457 1.524 . S
C459 C456 1.403 . S
C459 C460 1.392 . S
C459 C463 1.495 . S
C460 C459 1.392 . S
C460 C461 1.385 . S
C460 C462 1.478 . S
C461 H455 0.930 . S
C461 C457 1.400 . S
C461 C460 1.385 . S
C462 C460 1.478 . S
C462 C464 1.381 . S
C462 C468 1.383 . S
C463 C459 1.495 . S
C463 H469 0.959 . S
C463 H470 0.961 . S
C463 H471 0.960 . S
C464 C462 1.381 . S
C464 C465 1.394 . S
C464 H472 0.930 . S
C465 C464 1.394 . S
C465 C466 1.383 . S
C465 H473 0.929 . S
C466 C465 1.383 . S
C466 C467 1.377 . S
C467 H451 0.930 . S
C467 C466 1.377 . S
C467 C468 1.379 . S
C468 H452 0.931 . S
C468 C462 1.383 . S
C468 C467 1.379 . S
H469 C463 0.959 . S
H470 C463 0.961 . S
H471 C463 0.960 . S
H472 C464 0.930 . S
H473 C465 0.929 . S
H474 C482 0.929 . S
H475 C484 0.930 . S
H476 C486 0.930 . S
H477 C489 0.929 . S
H478 C492 0.930 . S
H479 C494 0.960 . S
H480 C494 0.960 . S
H481 C494 0.960 . S
C482 H474 0.929 . S
C482 C483 1.377 1_455 S
C482 C484 1.384 . S
C483 C482 1.377 1_655 S
C483 C489 1.390 . S
C484 H475 0.930 . S
C484 C482 1.384 . S
C484 C485 1.372 1_455 S
C485 C484 1.372 1_655 S
C485 C486 1.400 . S
C485 C490 1.490 1_655 S
C486 H476 0.930 . S
C486 C485 1.400 . S
C486 C489 1.386 . S
H487 C503 0.930 . S
H488 C504 0.931 . S
C489 H477 0.929 . S
C489 C483 1.390 . S
C489 C486 1.386 . S
C490 C485 1.490 1_455 S
C490 C492 1.395 1_455 S
C490 C493 1.403 . S
H491 C497 0.930 . S
C492 H478 0.930 . S
C492 C490 1.395 1_655 S
C492 C495 1.403 . S
C493 C490 1.403 . S
C493 C494 1.524 . S
C493 C497 1.400 . S
C494 H479 0.960 . S
C494 H480 0.960 . S
C494 H481 0.960 . S
C494 C493 1.524 . S
C495 C492 1.403 . S
C495 C496 1.392 1_655 S
C495 C499 1.495 . S
C496 C495 1.392 1_455 S
C496 C497 1.385 . S
C496 C498 1.478 . S
C497 H491 0.930 . S
C497 C493 1.400 . S
C497 C496 1.385 . S
C498 C496 1.478 . S
C498 C500 1.381 . S
C498 C504 1.383 1_455 S
C499 C495 1.495 . S
C499 H505 0.959 . S
C499 H506 0.961 . S
C499 H507 0.960 1_655 S
C500 C498 1.381 . S
C500 C501 1.394 . S
C500 H508 0.930 . S
C501 C500 1.394 . S
C501 C502 1.383 . S
C501 H509 0.929 . S
C502 C501 1.383 . S
C502 C503 1.377 1_455 S
C503 H487 0.930 . S
C503 C502 1.377 1_655 S
C503 C504 1.379 . S
C504 H488 0.931 . S
C504 C498 1.383 1_655 S
C504 C503 1.379 . S
H505 C499 0.959 . S
H506 C499 0.961 . S
H507 C499 0.960 1_455 S
H508 C500 0.930 . S
H509 C501 0.929 . S
H510 C518 0.929 . S
H511 C520 0.930 . S
H512 C522 0.930 . S
H513 C525 0.929 . S
H514 C528 0.930 . S
H515 C530 0.960 . S
H516 C530 0.960 1_565 S
H517 C530 0.960 . S
C518 H510 0.929 . S
C518 C519 1.381 . S
C518 C520 1.384 . S
C519 C518 1.381 . S
C519 C525 1.388 1_565 S
C520 H511 0.930 . S
C520 C518 1.384 . S
C520 C521 1.372 1_565 S
C521 C520 1.372 1_545 S
C521 C522 1.400 . S
C521 C526 1.490 . S
C522 H512 0.930 . S
C522 C521 1.400 . S
C522 C525 1.386 . S
H523 C539 0.930 . S
H524 C540 0.931 . S
C525 H513 0.929 . S
C525 C519 1.388 1_545 S
C525 C522 1.386 . S
C526 C521 1.490 . S
C526 C528 1.395 . S
C526 C529 1.403 . S
H527 C533 0.930 . S
C528 H514 0.930 . S
C528 C526 1.395 . S
C528 C531 1.403 . S
C529 C526 1.403 . S
C529 C530 1.524 . S
C529 C533 1.400 . S
C530 H515 0.960 . S
C530 H516 0.960 1_545 S
C530 H517 0.960 . S
C530 C529 1.524 . S
C531 C528 1.403 . S
C531 C532 1.392 . S
C531 C535 1.495 . S
C532 C531 1.392 . S
C532 C533 1.385 . S
C532 C534 1.478 . S
C533 H527 0.930 . S
C533 C529 1.400 . S
C533 C532 1.385 . S
C534 C532 1.478 . S
C534 C536 1.365 1_545 S
C534 C540 1.383 . S
C535 C531 1.495 . S
C535 H541 0.959 . S
C535 H542 0.961 . S
C535 H543 0.960 1_545 S
C536 C534 1.365 1_565 S
C536 C537 1.401 1_565 S
C536 H544 0.940 . S
C537 C536 1.401 1_545 S
C537 C538 1.383 . S
C537 H545 0.929 1_545 S
C538 C537 1.383 . S
C538 C539 1.377 . S
C539 H523 0.930 . S
C539 C538 1.377 . S
C539 C540 1.379 . S
C540 H524 0.931 . S
C540 C534 1.383 . S
C540 C539 1.379 . S
H541 C535 0.959 . S
H542 C535 0.961 . S
H543 C535 0.960 1_565 S
H544 C536 0.940 . S
H545 C537 0.929 1_565 S
H546 C554 0.929 . S
H547 C556 0.930 . S
H548 C558 0.930 . S
H549 C561 0.929 . S
H550 C564 0.930 . S
H551 C566 0.960 . S
H552 C566 0.960 . S
H553 C566 0.960 . S
C554 H546 0.929 . S
C554 C555 1.377 1_556 S
C554 C556 1.384 . S
C555 C554 1.377 1_554 S
C555 C561 1.390 . S
C556 H547 0.930 . S
C556 C554 1.384 . S
C556 C557 1.372 . S
C557 C556 1.372 . S
C557 C558 1.400 1_556 S
C557 C562 1.490 . S
C558 H548 0.930 . S
C558 C557 1.400 1_554 S
C558 C561 1.386 . S
H559 C575 0.930 . S
H560 C576 0.931 . S
C561 H549 0.929 . S
C561 C555 1.390 . S
C561 C558 1.386 . S
C562 C557 1.490 . S
C562 C564 1.395 . S
C562 C565 1.403 . S
H563 C569 0.930 . S
C564 H550 0.930 . S
C564 C562 1.395 . S
C564 C567 1.403 . S
C565 C562 1.403 . S
C565 C566 1.524 . S
C565 C569 1.400 . S
C566 H551 0.960 . S
C566 H552 0.960 . S
C566 H553 0.960 . S
C566 C565 1.524 . S
C567 C564 1.403 . S
C567 C568 1.392 . S
C567 C571 1.495 . S
C568 C567 1.392 . S
C568 C569 1.385 . S
C568 C570 1.478 . S
C569 H563 0.930 . S
C569 C565 1.400 . S
C569 C568 1.385 . S
C570 C568 1.478 . S
C570 C572 1.381 . S
C570 C576 1.383 . S
C571 C567 1.495 . S
C571 H577 0.959 . S
C571 H578 0.961 . S
C571 H579 0.960 . S
C572 C570 1.381 . S
C572 C573 1.394 . S
C572 H580 0.930 . S
C573 C572 1.394 . S
C573 C574 1.383 . S
C573 H581 0.929 . S
C574 C573 1.383 . S
C574 C575 1.377 . S
C575 H559 0.930 . S
C575 C574 1.377 . S
C575 C576 1.379 . S
C576 H560 0.931 . S
C576 C570 1.383 . S
C576 C575 1.379 . S
H577 C571 0.959 . S
H578 C571 0.961 . S
H579 C571 0.960 . S
H580 C572 0.930 . S
H581 C573 0.929 . S
H582 C590 0.929 . S
H583 C592 0.930 . S
H584 C594 0.930 . S
H585 C597 0.929 . S
H586 C600 0.930 1_655 S
H587 C602 0.960 . S
H588 C602 0.960 . S
H589 C602 0.960 . S
C590 H582 0.929 . S
C590 C591 1.377 . S
C590 C592 1.384 . S
C591 C590 1.377 . S
C591 C597 1.390 . S
C592 H583 0.930 . S
C592 C590 1.384 . S
C592 C593 1.372 . S
C593 C592 1.372 . S
C593 C594 1.400 . S
C593 C598 1.490 . S
C594 H584 0.930 . S
C594 C593 1.400 . S
C594 C597 1.386 . S
H595 C611 0.930 1_655 S
H596 C612 0.920 1_655 S
C597 H585 0.929 . S
C597 C591 1.390 . S
C597 C594 1.386 . S
C598 C593 1.490 . S
C598 C600 1.395 . S
C598 C601 1.403 . S
H599 C605 0.930 . S
C600 H586 0.930 1_455 S
C600 C598 1.395 . S
C600 C603 1.403 . S
C601 C598 1.403 . S
C601 C602 1.524 . S
C601 C605 1.400 . S
C602 H587 0.960 . S
C602 H588 0.960 . S
C602 H589 0.960 . S
C602 C601 1.524 . S
C603 C600 1.403 . S
C603 C604 1.392 . S
C603 C607 1.495 1_455 S
C604 C603 1.392 . S
C604 C605 1.385 . S
C604 C606 1.478 . S
C605 H599 0.930 . S
C605 C601 1.400 . S
C605 C604 1.385 . S
C606 C604 1.478 . S
C606 C608 1.381 . S
C606 C612 1.404 . S
C607 C603 1.495 1_655 S
C607 H613 0.959 . S
C607 H614 0.961 . S
C607 H615 0.969 . S
C608 C606 1.381 . S
C608 C609 1.394 . S
C608 H616 0.930 . S
C609 C608 1.394 . S
C609 C610 1.383 . S
C609 H617 0.929 . S
C610 C609 1.383 . S
C610 C611 1.377 . S
C611 H595 0.930 1_455 S
C611 C610 1.377 . S
C611 C612 1.369 . S
C612 H596 0.920 1_455 S
C612 C606 1.404 . S
C612 C611 1.369 . S
H613 C607 0.959 . S
H614 C607 0.961 . S
H615 C607 0.969 . S
H616 C608 0.930 . S
H617 C609 0.929 . S
C214 C63 1.358 . S
C195 C11 1.334 . S
C231 C26 1.530 1_565 S
C250 C111 1.538 . S
C267 C40 1.396 . S
C286 C183 1.390 . S
C303 C5 1.215 . S
C322 C87 1.335 . S
C358 C135 1.526 . S
C339 C18 1.512 . S
C375 C32 1.380 . S
C394 C159 1.391 . S
C430 C120 1.217 . S
C411 C39 1.218 . S
C447 C4 1.386 . S
C466 C174 1.392 . S
C502 C78 1.362 . S
C483 C19 1.222 . S
C538 C126 1.257 . S
C519 C33 1.120 . S
C574 C168 1.408 . S
C555 C12 1.408 . S
C591 C25 1.345 . S
C610 C72 1.359 . S
