# Generated by pormake.
# Topology zzz, (3,6)-cn, num edge types: 1
# Building blocks:
#     Node 0, Type 0, BuildingBlock: BETDIP_clean_linker_0, # of connection points: 3
#     Node 1, Type 0, BuildingBlock: BETDIP_clean_linker_0, # of connection points: 3
#     Node 2, Type 0, BuildingBlock: BETDIP_clean_linker_0, # of connection points: 3
#     Node 3, Type 0, BuildingBlock: BETDIP_clean_linker_0, # of connection points: 3
#     Node 4, Type 0, BuildingBlock: BETDIP_clean_linker_0, # of connection points: 3
#     Node 5, Type 0, BuildingBlock: BETDIP_clean_linker_0, # of connection points: 3
#     Node 6, Type 0, BuildingBlock: BETDIP_clean_linker_0, # of connection points: 3
#     Node 7, Type 0, BuildingBlock: BETDIP_clean_linker_0, # of connection points: 3
#     Node 8, Type 1, BuildingBlock: LEVNOQ01_clean_sbu_1, # of connection points: 6
#     Node 9, Type 1, BuildingBlock: LEVNOQ01_clean_sbu_1, # of connection points: 6
#     Node 10, Type 1, BuildingBlock: LEVNOQ01_clean_sbu_1, # of connection points: 6
#     Node 11, Type 1, BuildingBlock: LEVNOQ01_clean_sbu_1, # of connection points: 6
#     Edge 12, Type (0, 1), BuildingBlock: UVAHIK_clean_linker_0, # of connection points: 2
#     Edge 13, Type (0, 1), BuildingBlock: UVAHIK_clean_linker_0, # of connection points: 2
#     Edge 14, Type (0, 1), BuildingBlock: UVAHIK_clean_linker_0, # of connection points: 2
#     Edge 15, Type (0, 1), BuildingBlock: UVAHIK_clean_linker_0, # of connection points: 2
#     Edge 16, Type (0, 1), BuildingBlock: UVAHIK_clean_linker_0, # of connection points: 2
#     Edge 17, Type (0, 1), BuildingBlock: UVAHIK_clean_linker_0, # of connection points: 2
#     Edge 18, Type (0, 1), BuildingBlock: UVAHIK_clean_linker_0, # of connection points: 2
#     Edge 19, Type (0, 1), BuildingBlock: UVAHIK_clean_linker_0, # of connection points: 2
#     Edge 20, Type (0, 1), BuildingBlock: UVAHIK_clean_linker_0, # of connection points: 2
#     Edge 21, Type (0, 1), BuildingBlock: UVAHIK_clean_linker_0, # of connection points: 2
#     Edge 22, Type (0, 1), BuildingBlock: UVAHIK_clean_linker_0, # of connection points: 2
#     Edge 23, Type (0, 1), BuildingBlock: UVAHIK_clean_linker_0, # of connection points: 2
#     Edge 24, Type (0, 1), BuildingBlock: UVAHIK_clean_linker_0, # of connection points: 2
#     Edge 25, Type (0, 1), BuildingBlock: UVAHIK_clean_linker_0, # of connection points: 2
#     Edge 26, Type (0, 1), BuildingBlock: UVAHIK_clean_linker_0, # of connection points: 2
#     Edge 27, Type (0, 1), BuildingBlock: UVAHIK_clean_linker_0, # of connection points: 2
#     Edge 28, Type (0, 1), BuildingBlock: UVAHIK_clean_linker_0, # of connection points: 2
#     Edge 29, Type (0, 1), BuildingBlock: UVAHIK_clean_linker_0, # of connection points: 2
#     Edge 30, Type (0, 1), BuildingBlock: UVAHIK_clean_linker_0, # of connection points: 2
#     Edge 31, Type (0, 1), BuildingBlock: UVAHIK_clean_linker_0, # of connection points: 2
#     Edge 32, Type (0, 1), BuildingBlock: UVAHIK_clean_linker_0, # of connection points: 2
#     Edge 33, Type (0, 1), BuildingBlock: UVAHIK_clean_linker_0, # of connection points: 2
#     Edge 34, Type (0, 1), BuildingBlock: UVAHIK_clean_linker_0, # of connection points: 2
#     Edge 35, Type (0, 1), BuildingBlock: UVAHIK_clean_linker_0, # of connection points: 2
# Relax obj value: 0.140
# Max RMSD: 0.183
# Mean RMSD: 0.106
data_MOF--net-zzz--node1-LEVNOQ01_clean_sbu_1--node2-BETDIP_clean_linker_0--edge1-UVAHIK_clean_linker_0
_symmetry_space_group_name_H-M    P1
_symmetry_Int_Tables_number       1
_symmetry_cell_setting            triclinic
loop_
_symmetry_equiv_pos_as_xyz
'x, y, z'
_cell_length_a     65.011064
_cell_length_b     65.023947
_cell_length_c     20.295118
_cell_angle_alpha  89.969367
_cell_angle_beta   90.012733
_cell_angle_gamma 90.011975
loop_
_atom_site_label
_atom_site_type_symbol
_atom_site_fract_x
_atom_site_fract_y
_atom_site_fract_z
_atom_type_partial_charge
H0 H 0.76747 0.55364 0.26862 0.0
H1 H 0.76035 0.55842 0.05725 0.0
H2 H 0.81944 0.54548 0.13968 0.0
H3 H 0.73849 0.58766 0.10882 0.0
C4 C 0.72984 0.57462 0.12781 0.0
C5 C 0.77398 0.55314 0.21951 0.0
C6 C 0.79506 0.5489 0.21079 0.0
C7 C 0.76136 0.55689 0.16421 0.0
C8 C 0.76988 0.55606 0.1004 0.0
C9 C 0.79071 0.55192 0.09209 0.0
C10 C 0.80316 0.54844 0.14695 0.0
N11 N 0.7401 0.56124 0.17237 0.0
H12 H 0.96598 0.76892 0.26612 0.0
H13 H 0.96343 0.76087 0.05531 0.0
H14 H 0.96028 0.82144 0.13852 0.0
H15 H 0.93292 0.73513 0.13843 0.0
C16 C 0.94842 0.72884 0.13933 0.0
C17 C 0.9646 0.7754 0.21713 0.0
C18 C 0.96268 0.79679 0.20876 0.0
C19 C 0.96394 0.76237 0.16183 0.0
C20 C 0.96287 0.77082 0.09813 0.0
C21 C 0.96151 0.79208 0.08992 0.0
C22 C 0.96091 0.80488 0.14522 0.0
N23 N 0.96406 0.74074 0.16967 0.0
H24 H 0.74592 0.96544 0.27071 0.0
H25 H 0.75362 0.95688 0.06095 0.0
H26 H 0.69373 0.96816 0.14022 0.0
H27 H 0.7768 0.92976 0.11961 0.0
C28 C 0.78481 0.94359 0.13548 0.0
C29 C 0.73945 0.96455 0.2216 0.0
C30 C 0.71817 0.96738 0.21199 0.0
C31 C 0.75235 0.96045 0.16725 0.0
C32 C 0.74387 0.95951 0.10344 0.0
C33 C 0.72285 0.96227 0.09416 0.0
C34 C 0.71012 0.96614 0.14814 0.0
N35 N 0.77384 0.95758 0.17617 0.0
H36 H 0.54587 0.74628 0.27486 0.0
H37 H 0.55243 0.75726 0.06591 0.0
H38 H 0.54242 0.69607 0.13712 0.0
H39 H 0.58324 0.77998 0.14758 0.0
C40 C 0.56799 0.78676 0.15084 0.0
C41 C 0.54627 0.74054 0.22476 0.0
C42 C 0.54361 0.71941 0.21236 0.0
C43 C 0.54972 0.75423 0.17201 0.0
C44 C 0.55018 0.7468 0.10685 0.0
C45 C 0.54735 0.72589 0.09472 0.0
C46 C 0.54421 0.71237 0.14727 0.0
N47 N 0.55243 0.77552 0.18417 0.0
H48 H 0.24875 0.45825 0.15952 0.0
H49 H 0.25426 0.45917 0.37096 0.0
H50 H 0.19621 0.44531 0.28111 0.0
H51 H 0.27082 0.49445 0.30516 0.0
C52 C 0.28165 0.48192 0.29748 0.0
C53 C 0.24214 0.45546 0.2077 0.0
C54 C 0.22112 0.45058 0.21372 0.0
C55 C 0.25423 0.45817 0.26453 0.0
C56 C 0.24524 0.45608 0.32712 0.0
C57 C 0.22442 0.45117 0.33334 0.0
C58 C 0.21266 0.44782 0.27651 0.0
N59 N 0.27492 0.46489 0.25938 0.0
H60 H 0.0425 0.24763 0.17567 0.0
H61 H 0.05963 0.25115 0.38041 0.0
H62 H 0.07183 0.19633 0.26986 0.0
H63 H 0.02381 0.26525 0.37066 0.0
C64 C 0.03051 0.27736 0.34049 0.0
C65 C 0.05031 0.24114 0.21802 0.0
C66 C 0.05823 0.22106 0.21513 0.0
C67 C 0.05094 0.25216 0.2775 0.0
C68 C 0.05976 0.24306 0.33372 0.0
C69 C 0.06734 0.22296 0.33141 0.0
C70 C 0.06722 0.21237 0.27127 0.0
N71 N 0.04123 0.27164 0.28229 0.0
H72 H 0.26628 0.06131 0.16124 0.0
H73 H 0.25925 0.05744 0.37163 0.0
H74 H 0.31813 0.0716 0.28818 0.0
H75 H 0.24321 0.02357 0.29751 0.0
C76 C 0.2323 0.03608 0.29073 0.0
C77 C 0.27252 0.06363 0.21019 0.0
C78 C 0.29361 0.06775 0.21841 0.0
C79 C 0.25995 0.06044 0.26555 0.0
C80 C 0.26855 0.06127 0.32903 0.0
C81 C 0.28942 0.0657 0.33737 0.0
C82 C 0.30165 0.06972 0.28202 0.0
N83 N 0.23929 0.05397 0.25754 0.0
H84 H 0.46762 0.26786 0.17612 0.0
H85 H 0.4548 0.264 0.38423 0.0
H86 H 0.44078 0.31912 0.27794 0.0
H87 H 0.48797 0.24851 0.37175 0.0
C88 C 0.48188 0.23685 0.33864 0.0
C89 C 0.46093 0.27436 0.22034 0.0
C90 C 0.453 0.29451 0.21947 0.0
C91 C 0.46143 0.26312 0.27962 0.0
C92 C 0.45387 0.27217 0.33777 0.0
C93 C 0.44656 0.29236 0.33758 0.0
C94 C 0.44534 0.30306 0.27779 0.0
N95 N 0.47086 0.2434 0.28183 0.0
O96 O 0.02955 0.98041 0.83505 0.0
Mg97 Mg 0.03388 0.98448 0.73393 0.0
O98 O -0.00063 0.98803 0.7962 0.0
Mg99 Mg 0.00356 0.01171 0.70956 0.0
O100 O 0.04041 0.01273 0.69573 0.0
O101 O 0.06393 0.9884 0.71976 0.0
O102 O 0.00529 0.03542 0.62352 0.0
O103 O 0.00857 0.03814 0.78482 0.0
Mg104 Mg 0.96628 0.04299 0.69909 0.0
O105 O 0.9683 0.01284 0.72361 0.0
O106 O 0.9749 0.04881 0.60127 0.0
O107 O 0.98198 0.05952 0.77517 0.0
O108 O 0.93836 0.02942 0.71766 0.0
C109 C 0.00714 0.96799 0.62683 0.0
C110 C 0.01032 0.97941 0.84026 0.0
C111 C 0.05953 0.00649 0.69801 0.0
C112 C 0.99376 0.04668 0.58752 0.0
C113 C -0.00099 0.05449 0.80156 0.0
C114 C 0.94852 0.01301 0.73222 0.0
O115 O 0.02175 0.9632 0.66524 0.0
O116 O -0.00171 0.98543 0.6322 0.0
O117 O 0.45681 0.99213 0.76708 0.0
Mg118 Mg 0.47756 0.97596 0.70438 0.0
O119 O 0.48058 0.01334 0.80511 0.0
Mg120 Mg 0.50648 0.00737 0.72782 0.0
O121 O 0.50612 0.97107 0.74333 0.0
O122 O 0.4826 0.94618 0.72572 0.0
O123 O 0.53303 0.00225 0.65238 0.0
O124 O 0.53094 0.0058 0.81171 0.0
Mg125 Mg 0.53727 0.04511 0.74132 0.0
O126 O 0.50766 0.04242 0.71279 0.0
O127 O 0.55442 0.02869 0.66796 0.0
O128 O 0.5411 0.03679 0.84047 0.0
O129 O 0.52347 0.07272 0.71885 0.0
C130 C 0.47368 -0.00019 0.59832 0.0
C131 C 0.4622 0.00647 0.80584 0.0
C132 C 0.50067 0.95173 0.74509 0.0
C133 C 0.54967 0.01194 0.63913 0.0
C134 C 0.54119 0.01758 0.84987 0.0
C135 C 0.50747 0.06211 0.70288 0.0
O136 O 0.47495 0.98055 0.60275 0.0
O137 O 0.48234 0.01078 0.64232 0.0
O138 O 0.52606 0.45527 0.77461 0.0
Mg139 Mg 0.5446 0.47253 0.70742 0.0
O140 O 0.50211 0.47916 0.79098 0.0
Mg141 Mg 0.50947 0.50466 0.71296 0.0
O142 O 0.54444 0.50272 0.73312 0.0
O143 O 0.57292 0.48349 0.73352 0.0
O144 O 0.51807 0.52973 0.63338 0.0
O145 O 0.51192 0.52903 0.79694 0.0
Mg146 Mg 0.47805 0.53602 0.7058 0.0
O147 O 0.47296 0.50513 0.69651 0.0
O148 O 0.49111 0.5501 0.62268 0.0
O149 O 0.48425 0.54835 0.79837 0.0
O150 O 0.44828 0.52952 0.6961 0.0
C151 C 0.5206 0.47016 0.59094 0.0
C152 C 0.50985 0.46151 0.80338 0.0
C153 C 0.56405 0.50095 0.74365 0.0
C154 C 0.50899 0.54477 0.60522 0.0
C155 C 0.50139 0.54344 0.82275 0.0
C156 C 0.45361 0.51047 0.6912 0.0
O157 O 0.53927 0.46834 0.60698 0.0
O158 O 0.50833 0.48057 0.62714 0.0
O159 O 0.96846 0.47602 0.81586 0.0
Mg160 Mg 0.97594 0.46995 0.71752 0.0
O161 O 0.98369 0.50621 0.80719 0.0
Mg162 Mg 0.00742 0.50697 0.7208 0.0
O163 O 0.00656 0.47195 0.70002 0.0
O164 O 0.98911 0.44233 0.69595 0.0
O165 O 0.03099 0.50753 0.63326 0.0
O166 O 0.03349 0.49715 0.79605 0.0
Mg167 Mg 0.03781 0.53735 0.74546 0.0
O168 O 0.00705 0.54338 0.74127 0.0
O169 O 0.05293 0.5322 0.65723 0.0
O170 O 0.04995 0.52445 0.83166 0.0
O171 O 0.0321 0.5672 0.75358 0.0
C172 C 0.96526 0.50472 0.62277 0.0
C173 C 0.97162 0.49397 0.83765 0.0
C174 C 0.00609 0.45231 0.68835 0.0
C175 C 0.04681 0.51824 0.61885 0.0
C176 C 0.04656 0.50539 0.83477 0.0
C177 C 0.01287 0.56248 0.74995 0.0
O178 O 0.96059 0.48675 0.64241 0.0
O179 O 0.9809 0.51432 0.64566 0.0
C180 C 0.21372 0.02337 0.389 0.0
C181 C 0.21431 0.03674 0.33493 0.0
C182 C 0.19732 0.02392 0.43309 0.0
C183 C 0.15172 0.0548 0.48564 0.0
H184 H 0.135 0.00207 0.55707 0.0
C185 C 0.07406 0.03171 0.61662 0.0
C186 C 0.07666 0.01896 0.67181 0.0
C187 C 0.09125 0.03865 0.5812 0.0
C188 C 0.13961 0.01695 0.53796 0.0
H189 H 0.19835 0.06129 0.28412 0.0
H190 H 0.1689 0.06161 0.35953 0.0
H191 H 0.16366 0.00368 0.48107 0.0
H192 H 0.09912 0.00566 0.73838 0.0
H193 H 0.12893 0.01771 0.677 0.0
H194 H 0.12664 0.06769 0.54136 0.0
C195 C 0.18144 0.05107 0.36911 0.0
C196 C 0.15615 0.01792 0.49459 0.0
C197 C 0.19818 0.05078 0.32554 0.0
C198 C 0.09664 0.01518 0.69527 0.0
C199 C 0.11371 0.02208 0.66026 0.0
C200 C 0.13481 0.05374 0.52852 0.0
C201 C 0.18075 0.03752 0.42327 0.0
C202 C 0.16265 0.03685 0.46834 0.0
C203 C 0.11116 0.03291 0.60106 0.0
C204 C 0.12882 0.0348 0.55555 0.0
H205 H 0.22618 0.01264 0.39786 0.0
H206 H 0.19772 0.01367 0.47512 0.0
H207 H 0.15638 0.06967 0.46687 0.0
H208 H 0.05885 0.03478 0.59781 0.0
H209 H 0.08893 0.04701 0.53561 0.0
C210 C 0.48198 0.19846 0.32852 0.0
C211 C 0.47876 0.21618 0.36636 0.0
C212 C 0.47998 0.17898 0.35742 0.0
C213 C 0.45703 0.15166 0.49963 0.0
H214 H 0.50274 0.11398 0.47866 0.0
C215 C 0.48241 0.09019 0.68648 0.0
C216 C 0.49176 0.07225 0.66262 0.0
C217 C 0.47445 0.10474 0.64266 0.0
C218 C 0.48957 0.12406 0.48375 0.0
H219 H 0.47041 0.22785 0.46251 0.0
H220 H 0.46631 0.19391 0.51259 0.0
H221 H 0.50213 0.1459 0.41584 0.0
H222 H 0.49894 0.0546 0.57532 0.0
H223 H 0.48498 0.08001 0.49842 0.0
H224 H 0.44499 0.13016 0.57004 0.0
C225 C 0.47052 0.1949 0.46103 0.0
C226 C 0.48927 0.14239 0.44786 0.0
C227 C 0.47301 0.21428 0.43264 0.0
C228 C 0.49139 0.06816 0.59481 0.0
C229 C 0.48365 0.0828 0.55087 0.0
C230 C 0.45734 0.13331 0.53567 0.0
C231 C 0.47422 0.17702 0.42402 0.0
C232 C 0.47321 0.15656 0.45633 0.0
C233 C 0.47618 0.10173 0.57428 0.0
C234 C 0.47381 0.11948 0.52892 0.0
H235 H 0.48658 0.19968 0.27737 0.0
H236 H 0.48297 0.16546 0.3278 0.0
H237 H 0.44435 0.16223 0.50665 0.0
H238 H 0.48295 0.09381 0.73856 0.0
H239 H 0.46888 0.1192 0.66222 0.0
C240 C 0.29992 0.49355 0.39783 0.0
C241 C 0.29915 0.48024 0.34364 0.0
C242 C 0.31592 0.49224 0.44334 0.0
C243 C 0.35999 0.45954 0.4992 0.0
H244 H 0.37876 0.51173 0.56919 0.0
C245 C 0.43908 0.48234 0.62131 0.0
C246 C 0.43715 0.49569 0.67524 0.0
C247 C 0.42144 0.47464 0.58996 0.0
C248 C 0.37354 0.497 0.55067 0.0
H249 H 0.31431 0.45488 0.29453 0.0
H250 H 0.34304 0.45315 0.37253 0.0
H251 H 0.35009 0.51108 0.49315 0.0
H252 H 0.4157 0.50919 0.74444 0.0
H253 H 0.38508 0.49572 0.69036 0.0
H254 H 0.38461 0.44582 0.55518 0.0
C255 C 0.33096 0.4643 0.38097 0.0
C256 C 0.35699 0.49657 0.5072 0.0
C257 C 0.31463 0.46539 0.33587 0.0
C258 C 0.41759 0.499 0.70261 0.0
C259 C 0.40007 0.49135 0.67161 0.0
C260 C 0.37693 0.46004 0.54216 0.0
C261 C 0.33191 0.47787 0.43501 0.0
C262 C 0.3498 0.47786 0.48116 0.0
C263 C 0.40179 0.48026 0.61262 0.0
C264 C 0.38368 0.4788 0.56864 0.0
H265 H 0.28796 0.50491 0.40552 0.0
H266 H 0.3157 0.50256 0.48517 0.0
H267 H 0.3548 0.44482 0.48065 0.0
H268 H 0.45395 0.47976 0.59917 0.0
H269 H 0.42313 0.46611 0.54443 0.0
C270 C 0.03889 0.31493 0.33346 0.0
C271 C 0.03384 0.29758 0.37125 0.0
C272 C 0.0425 0.33384 0.36423 0.0
C273 C 0.05681 0.3574 0.52256 0.0
H274 H 0.0241 0.40366 0.46345 0.0
C275 C 0.0297 0.42269 0.6882 0.0
C276 C 0.02345 0.44125 0.65933 0.0
C277 C 0.03917 0.40756 0.65006 0.0
C278 C 0.03391 0.39119 0.47964 0.0
H279 H 0.0288 0.28608 0.4701 0.0
H280 H 0.03542 0.31904 0.52399 0.0
H281 H 0.02357 0.37184 0.40109 0.0
H282 H 0.02326 0.45926 0.57001 0.0
H283 H 0.0411 0.43347 0.504 0.0
H284 H 0.06669 0.37658 0.60236 0.0
C285 C 0.0366 0.31808 0.47082 0.0
C286 C 0.03345 0.37287 0.44396 0.0
C287 C 0.0326 0.29933 0.44002 0.0
C288 C 0.02876 0.44541 0.59385 0.0
C289 C 0.03847 0.43038 0.55575 0.0
C290 C 0.05745 0.37583 0.55802 0.0
C291 C 0.04153 0.33553 0.43323 0.0
C292 C 0.04442 0.35564 0.46608 0.0
C293 C 0.04239 0.41075 0.58224 0.0
C294 C 0.04551 0.39277 0.53805 0.0
H295 H 0.03988 0.31392 0.28029 0.0
H296 H 0.04618 0.34712 0.33419 0.0
H297 H 0.06559 0.34435 0.54018 0.0
H298 H 0.02534 0.41907 0.73842 0.0
H299 H 0.04187 0.39266 0.67229 0.0
C300 C 0.81686 0.96468 0.11863 0.0
C301 C 0.80248 0.95036 0.09524 0.0
C302 C 0.83392 0.97005 0.07995 0.0
C303 C 0.86374 0.95126 0.9338 0.0
H304 H 0.88902 0.00513 0.94352 0.0
C305 C 0.92047 0.98755 0.74448 0.0
C306 C 0.93784 0.99729 0.77106 0.0
C307 C 0.90572 0.97877 0.78603 0.0
C308 C 0.88221 0.98994 0.94097 0.0
H309 H 0.79373 0.93143 0.01222 0.0
H310 H 0.82258 0.94154 0.94347 0.0
H311 H 0.85858 -0.00221 0.00976 0.0
H312 H 0.95391 0.00501 0.86108 0.0
H313 H 0.92794 0.98987 0.934 0.0
H314 H 0.88691 0.94394 0.86217 0.0
C315 C 0.82157 0.94789 0.99266 0.0
C316 C 0.86478 0.98568 0.97905 0.0
C317 C 0.8049 0.94218 0.03184 0.0
C318 C 0.94088 0.99708 0.8395 0.0
C319 C 0.92593 0.9887 0.88114 0.0
C320 C 0.8809 0.95568 0.89477 0.0
C321 C 0.83665 0.96151 0.01661 0.0
C322 C 0.85527 0.96625 0.97608 0.0
C323 C 0.90787 0.98019 0.85475 0.0
C324 C 0.89033 0.97502 0.89825 0.0
H325 H 0.81523 0.97125 0.16738 0.0
H326 H 0.84519 0.98048 0.10053 0.0
H327 H 0.85725 0.93595 0.93101 0.0
H328 H 0.91757 0.98808 0.69192 0.0
H329 H 0.89186 0.97236 0.76459 0.0
C330 C 0.54278 0.81121 0.09848 0.0
C331 C 0.56305 0.80423 0.10688 0.0
C332 C 0.53843 0.82687 0.05321 0.0
C333 C 0.56264 0.86971 0.96162 0.0
H334 H 0.51319 0.86623 0.8555 0.0
C335 C 0.52498 0.93923 0.83131 0.0
C336 C 0.5143 0.93579 0.77247 0.0
C337 C 0.5345 0.92288 0.86427 0.0
C338 C 0.52725 0.86733 0.88395 0.0
H339 H 0.59459 0.80804 0.07509 0.0
H340 H 0.58706 0.83534 0.99611 0.0
H341 H 0.52198 0.83811 0.92945 0.0
H342 H 0.50603 0.91295 0.69948 0.0
H343 H 0.52282 0.88441 0.75625 0.0
H344 H 0.56786 0.89898 0.91596 0.0
C345 C 0.57455 0.82894 0.02475 0.0
C346 C 0.53211 0.85132 0.92715 0.0
C347 C 0.57886 0.81329 0.06984 0.0
C348 C 0.5142 0.91597 0.74501 0.0
C349 C 0.5237 0.89964 0.7777 0.0
C350 C 0.55775 0.88576 0.91843 0.0
C351 C 0.55427 0.83587 0.01562 0.0
C352 C 0.54968 0.85245 0.96727 0.0
C353 C 0.53329 0.90275 0.83899 0.0
C354 C 0.53984 0.88489 0.87975 0.0
H355 H 0.53024 0.80446 0.1262 0.0
H356 H 0.52268 0.83204 0.04799 0.0
H357 H 0.57627 0.8711 0.99197 0.0
H358 H 0.52446 0.95416 0.85441 0.0
H359 H 0.54152 0.9258 0.91175 0.0
C360 C 0.69654 0.55556 0.11416 0.0
C361 C 0.71261 0.56716 0.08708 0.0
C362 C 0.67977 0.54977 0.07493 0.0
C363 C 0.65441 0.56351 0.91511 0.0
H364 H 0.62259 0.51439 0.95109 0.0
C365 C 0.59453 0.52362 0.74403 0.0
C366 C 0.5762 0.5173 0.77438 0.0
C367 C 0.60989 0.53331 0.7808 0.0
C368 C 0.63124 0.5283 0.94113 0.0
H369 H 0.72476 0.58056 -0.00238 0.0
H370 H 0.69634 0.56949 0.92827 0.0
H371 H 0.65333 0.52146 0.01587 0.0
H372 H 0.55885 0.51704 0.86528 0.0
H373 H 0.58591 0.53379 0.93022 0.0
H374 H 0.6327 0.56955 0.8377 0.0
C375 C 0.69584 0.56577 0.98023 0.0
C376 C 0.64886 0.5324 0.9783 0.0
C377 C 0.71224 0.572 0.0198 0.0
C378 C 0.57274 0.52215 0.84074 0.0
C379 C 0.58827 0.53148 0.8779 0.0
C380 C 0.63703 0.55913 0.87702 0.0
C381 C 0.67905 0.55507 0.00749 0.0
C382 C 0.66064 0.55018 0.96628 0.0
C383 C 0.60728 0.5363 0.84876 0.0
C384 C 0.62518 0.54162 0.89026 0.0
H385 H 0.6966 0.55159 0.16601 0.0
H386 H 0.66714 0.54171 0.09815 0.0
H387 H 0.66276 0.57756 0.90484 0.0
H388 H 0.59758 0.51967 0.69309 0.0
H389 H 0.62444 0.53686 0.75735 0.0
C390 C 0.93793 0.70512 0.04989 0.0
C391 C 0.95331 0.71206 0.09288 0.0
C392 C 0.94219 0.69004 0.003 0.0
C393 C 0.98524 0.66379 0.91701 0.0
H394 H 0.94358 0.6225 0.88177 0.0
C395 C 0.00266 0.59891 0.7375 0.0
C396 C -0.00188 0.5792 0.76177 0.0
C397 C 0.99364 0.61627 0.76564 0.0
C398 C 0.95539 0.63389 0.89099 0.0
H399 H 0.98528 0.70867 0.12114 0.0
H400 H 0.99266 0.6817 0.04061 0.0
H401 H 0.93643 0.64995 0.95974 0.0
H402 H 0.97946 0.562 0.82982 0.0
H403 H 0.96375 0.59213 0.88022 0.0
H404 H 0.00464 0.64707 0.85127 0.0
C405 C 0.97735 0.68825 0.04197 0.0
C406 C 0.95123 0.6498 0.93528 0.0
C407 C 0.97311 0.70356 0.08857 0.0
C408 C 0.9829 0.57698 0.8099 0.0
C409 C 0.97403 0.59436 0.83888 0.0
C410 C 0.98946 0.64778 0.87316 0.0
C411 C 0.96192 0.68131 -0.00147 0.0
C412 C 0.96617 0.66483 0.94945 0.0
C413 C 0.98016 0.61425 0.81941 0.0
C414 C 0.97467 0.63248 0.86014 0.0
H415 H 0.9226 0.71163 0.05178 0.0
H416 H 0.93003 0.68543 0.96967 0.0
H417 H 0.997 0.67526 0.9258 0.0
H418 H 0.01436 0.60098 0.70003 0.0
H419 H -0.00178 0.63131 0.74796 0.0
C420 C 0.05297 0.20963 0.43577 0.0
C421 C 0.06979 0.21087 0.39254 0.0
C422 C 0.05016 0.19213 0.47438 0.0
C423 C 0.06154 0.1383 0.44466 0.0
H424 H 0.02315 0.13052 0.58847 0.0
C425 C 0.0244 0.06073 0.52865 0.0
C426 C 0.0034 0.06212 0.54412 0.0
C427 C 0.0354 0.07832 0.51062 0.0
C428 C 0.0339 0.13254 0.54817 0.0
H429 H 0.09888 0.19713 0.3655 0.0
H430 H 0.09446 0.16687 0.43532 0.0
H431 H 0.04068 0.16351 0.57622 0.0
H432 H 0.97672 0.08229 0.54236 0.0
H433 H 0.99585 0.11278 0.51038 0.0
H434 H 0.05447 0.10733 0.4165 0.0
C435 C 0.08292 0.17886 0.43696 0.0
C436 C 0.044 0.15135 0.54136 0.0
C437 C 0.08559 0.19626 0.39757 0.0
C438 C 0.99299 0.08071 0.53207 0.0
C439 C 0.00396 0.09827 0.51459 0.0
C440 C 0.05164 0.11942 0.45208 0.0
C441 C 0.06428 0.17579 0.47075 0.0
C442 C 0.05745 0.15469 0.48821 0.0
C443 C 0.02539 0.09742 0.50753 0.0
C444 C 0.03726 0.11665 0.50255 0.0
H445 H 0.04057 0.22074 0.43319 0.0
H446 H 0.03569 0.19048 0.50027 0.0
H447 H 0.07143 0.14038 0.40225 0.0
H448 H 0.03255 0.04641 0.53526 0.0
H449 H 0.0519 0.07727 0.50395 0.0
C450 C 0.30145 0.0399 0.41742 0.0
C451 C 0.30006 0.0607 0.39933 0.0
C452 C 0.31829 0.033 0.45381 0.0
C453 C 0.36518 0.04656 0.54397 0.0
H454 H 0.39256 0.01217 0.41453 0.0
C455 C 0.45095 0.02928 0.56844 0.0
C456 C 0.45684 0.00872 0.55857 0.0
C457 C 0.4317 0.03617 0.54768 0.0
C458 C 0.38511 0.02148 0.45176 0.0
H459 H 0.31301 0.09103 0.41299 0.0
H460 H 0.3421 0.07908 0.47903 0.0
H461 H 0.35662 0.02141 0.39917 0.0
H462 H 0.44792 0.97984 0.51322 0.0
H463 H 0.41422 0.99162 0.47879 0.0
H464 H 0.39351 0.04643 0.59728 0.0
C465 C 0.33047 0.06809 0.46419 0.0
C466 C 0.3645 0.02669 0.44309 0.0
C467 C 0.31382 0.07495 0.42673 0.0
C468 C 0.44385 0.99576 0.52192 0.0
C469 C 0.42446 0.00255 0.50208 0.0
C470 C 0.38575 0.04105 0.55335 0.0
C471 C 0.3336 0.04692 0.47345 0.0
C472 C 0.35443 0.03938 0.48881 0.0
C473 C 0.4178 0.02257 0.51746 0.0
C474 C 0.39603 0.02865 0.50688 0.0
H475 H 0.29107 0.02863 0.39636 0.0
H476 H 0.32038 0.01662 0.46098 0.0
H477 H 0.35771 0.05648 0.57952 0.0
H478 H 0.46047 0.03962 0.5968 0.0
H479 H 0.42734 0.0519 0.55835 0.0
C480 C 0.43085 0.31948 0.4082 0.0
C481 C 0.44612 0.30449 0.39904 0.0
C482 C 0.43529 0.33724 0.44405 0.0
C483 C 0.47788 0.3649 0.53131 0.0
H484 H 0.46308 0.40851 0.40925 0.0
C485 C 0.52408 0.43844 0.52346 0.0
C486 C 0.51213 0.45544 0.5428 0.0
C487 C 0.51456 0.42062 0.50073 0.0
C488 C 0.46724 0.39647 0.4437 0.0
H489 H 0.47636 0.29432 0.43018 0.0
H490 H 0.48422 0.32516 0.49129 0.0
H491 H 0.44646 0.37505 0.40038 0.0
H492 H 0.48163 0.46866 0.54076 0.0
H493 H 0.46487 0.43742 0.50068 0.0
H494 H 0.49939 0.38626 0.57236 0.0
C495 C 0.46889 0.32357 0.47101 0.0
C496 C 0.45752 0.3774 0.43955 0.0
C497 C 0.46434 0.30573 0.43599 0.0
C498 C 0.491 0.45549 0.52855 0.0
C499 C 0.48147 0.43768 0.50534 0.0
C500 C 0.48779 0.38389 0.53478 0.0
C501 C 0.4551 0.34022 0.47027 0.0
C502 C 0.46288 0.36129 0.48284 0.0
C503 C 0.49307 0.41975 0.4958 0.0
C504 C 0.48272 0.39969 0.49044 0.0
H505 H 0.41652 0.31863 0.38108 0.0
H506 H 0.42402 0.3495 0.4451 0.0
H507 H 0.48227 0.35294 0.56568 0.0
H508 H 0.54051 0.43804 0.53222 0.0
H509 H 0.52383 0.40706 0.49175 0.0
C510 C 0.21375 0.47413 0.42413 0.0
C511 C 0.21344 0.4544 0.39603 0.0
C512 C 0.19717 0.4808 0.46205 0.0
C513 C 0.14656 0.46651 0.53184 0.0
H514 H 0.12726 0.51282 0.42792 0.0
C515 C 0.06323 0.49108 0.55099 0.0
C516 C 0.06095 0.51198 0.56604 0.0
C517 C 0.08156 0.48393 0.52361 0.0
C518 C 0.13245 0.5 0.45768 0.0
H519 H 0.19784 0.42501 0.39481 0.0
H520 H 0.16898 0.43654 0.46184 0.0
H521 H 0.16257 0.50101 0.41594 0.0
H522 H 0.07444 0.54227 0.55475 0.0
H523 H 0.10643 0.52991 0.50781 0.0
H524 H 0.11645 0.46553 0.57377 0.0
C525 C 0.18172 0.44698 0.45392 0.0
C526 C 0.15273 0.49338 0.45145 0.0
C527 C 0.19824 0.44035 0.41561 0.0
C528 C 0.07596 0.52598 0.54443 0.0
C529 C 0.09432 0.51888 0.51749 0.0
C530 C 0.1263 0.47325 0.53853 0.0
C531 C 0.1803 0.46773 0.47257 0.0
C532 C 0.15992 0.47647 0.48802 0.0
C533 C 0.09781 0.49766 0.51114 0.0
C534 C 0.11897 0.48991 0.50092 0.0
H535 H 0.22537 0.48523 0.4099 0.0
H536 H 0.19655 0.49677 0.47719 0.0
H537 H 0.15174 0.45341 0.56036 0.0
H538 H 0.05196 0.48003 0.56714 0.0
H539 H 0.0836 0.46752 0.51713 0.0
C540 C 0.94728 0.81409 0.00199 0.0
C541 C 0.96355 0.80192 0.0252 0.0
C542 C 0.9514 0.83152 0.96411 0.0
C543 C 0.98812 0.86916 0.98819 0.0
H544 H 0.9665 0.89885 0.83793 0.0
C545 C 0.01446 0.95054 0.9197 0.0
C546 C 0.0014 0.96295 0.88148 0.0
C547 C 0.00819 0.93096 0.93912 0.0
C548 C 0.97231 0.89087 0.88091 0.0
H549 H 0.99627 0.79621 0.01935 0.0
H550 H 0.00354 0.82687 0.95385 0.0
H551 H 0.95977 0.86196 0.84879 0.0
H552 H 0.97055 0.96574 0.84183 0.0
H553 H 0.95917 0.9321 0.87924 0.0
H554 H -0.00028 0.89787 0.02277 0.0
C555 C 0.98768 0.82296 0.96449 0.0
C556 C 0.96875 0.86973 0.88625 0.0
C557 C 0.98351 0.80537 0.00146 0.0
C558 C 0.98103 0.95653 0.87087 0.0
C559 C 0.97464 0.93704 0.89116 0.0
C560 C 0.99132 0.89028 0.98367 0.0
C561 C 0.97183 0.83693 0.95027 0.0
C562 C 0.97686 0.85873 0.93956 0.0
C563 C 0.98858 0.92357 0.92187 0.0
C564 C 0.9836 0.90141 0.92974 0.0
H565 H 0.93181 0.81169 0.02032 0.0
H566 H 0.93897 0.84212 0.95353 0.0
H567 H 0.99397 0.86102 0.03089 0.0
H568 H 0.0302 0.9551 0.92937 0.0
H569 H 0.01937 0.92111 0.96294 0.0
C570 C 0.70323 0.94384 0.00844 0.0
C571 C 0.71347 0.96172 0.02854 0.0
C572 C 0.68695 0.94518 0.96384 0.0
C573 C 0.65395 0.98296 0.87323 0.0
H574 H 0.61115 0.95877 0.98192 0.0
C575 C 0.57591 0.02121 0.89996 0.0
C576 C 0.55873 0.00874 0.88645 0.0
C577 C 0.59516 0.01235 0.91 0.0
C578 C 0.62288 0.96538 0.95046 0.0
H579 H 0.71712 0.99435 0.01223 0.0
H580 H 0.68864 0.99691 0.93525 0.0
H581 H 0.64638 0.94691 0.9932 0.0
H582 H 0.54771 0.97743 0.88336 0.0
H583 H 0.58128 0.96182 0.9027 0.0
H584 H 0.63036 0.0023 0.83352 0.0
C585 C 0.69303 0.98179 0.95264 0.0
C586 C 0.64307 0.95844 0.95619 0.0
C587 C 0.70937 0.98039 0.99684 0.0
C588 C 0.5607 0.98732 0.89231 0.0
C589 C 0.57994 0.97842 0.90302 0.0
C590 C 0.63375 0.98999 0.86785 0.0
C591 C 0.68058 0.9645 0.94028 0.0
C592 C 0.65898 0.96772 0.91954 0.0
C593 C 0.59747 0.99091 0.90809 0.0
C594 C 0.61823 0.98178 0.90831 0.0
H595 H 0.70626 0.9293 0.03269 0.0
H596 H 0.67794 0.93152 0.95378 0.0
H597 H 0.66581 0.99022 0.84379 0.0
H598 H 0.57498 0.03781 0.89672 0.0
H599 H 0.6084 0.02229 0.91611 0.0
C600 C 0.52799 0.7121 0.00094 0.0
C601 C 0.54718 0.71711 0.02813 0.0
C602 C 0.52597 0.69451 0.96222 0.0
C603 C 0.54641 0.64991 0.88228 0.0
H604 H 0.52019 0.61911 0.02335 0.0
C605 C 0.53204 0.56324 0.85838 0.0
C606 C 0.5112 0.55825 0.86753 0.0
C607 C 0.53972 0.58202 0.881 0.0
C608 C 0.52749 0.62747 0.98352 0.0
H609 H 0.57969 0.71014 0.02792 0.0
H610 H 0.5762 0.67953 0.95887 0.0
H611 H 0.52621 0.6559 0.03615 0.0
H612 H 0.48268 0.56769 0.91353 0.0
H613 H 0.49609 0.6002 0.95415 0.0
H614 H 0.54711 0.62152 0.82872 0.0
C615 C 0.56279 0.68904 0.96761 0.0
C616 C 0.53082 0.64848 0.99067 0.0
C617 C 0.5648 0.7066 0.00674 0.0
C618 C 0.49882 0.57117 0.90608 0.0
C619 C 0.50652 0.58982 0.92912 0.0
C620 C 0.54288 0.6288 0.87476 0.0
C621 C 0.54315 0.68202 0.95011 0.0
C622 C 0.53995 0.65989 0.93976 0.0
C623 C 0.52671 0.5959 0.91372 0.0
C624 C 0.53309 0.61746 0.92504 0.0
H625 H 0.51421 0.71991 0.01751 0.0
H626 H 0.51068 0.68927 0.94906 0.0
H627 H 0.55369 0.65849 0.84291 0.0
H628 H 0.54184 0.55372 0.82794 0.0
H629 H 0.55544 0.5862 0.86945 0.0
C630 C 0.81125 0.568 0.0041 0.0
C631 C 0.80033 0.55083 0.02694 0.0
C632 C 0.82838 0.56526 0.96364 0.0
C633 C 0.86197 0.52487 0.88853 0.0
H634 H 0.90424 0.55222 0.99162 0.0
C635 C 0.9408 0.48946 0.90876 0.0
C636 C 0.95655 0.50231 0.88509 0.0
C637 C 0.92194 0.49783 0.92713 0.0
C638 C 0.89261 0.54461 0.96214 0.0
H639 H 0.7964 0.51795 0.01863 0.0
H640 H 0.8262 0.513 0.94854 0.0
H641 H 0.86873 0.56391 -0.00112 0.0
H642 H 0.96649 0.53389 0.87599 0.0
H643 H 0.93348 0.54865 0.90804 0.0
H644 H 0.88586 0.50496 0.85439 0.0
C645 C 0.8218 0.52859 0.96092 0.0
C646 C 0.8723 0.55145 0.96539 0.0
C647 C 0.80463 0.53137 0.00099 0.0
C648 C 0.95437 0.52369 0.89173 0.0
C649 C 0.93547 0.53211 0.91006 0.0
C650 C 0.88223 0.51794 0.8858 0.0
C651 C 0.83482 0.54531 0.94673 0.0
C652 C 0.85664 0.54127 0.93011 0.0
C653 C 0.91872 0.51913 0.92306 0.0
C654 C 0.89758 0.52736 0.92414 0.0
H655 H 0.80811 0.58314 0.02395 0.0
H656 H 0.83783 0.57848 0.95182 0.0
H657 H 0.85033 0.51688 0.86017 0.0
H658 H 0.94218 0.47288 0.90629 0.0
H659 H 0.9094 0.48756 0.93957 0.0
C660 C 0.03381 0.19726 0.16153 0.0
C661 C 0.05304 0.20702 0.16062 0.0
C662 C 0.03014 0.18011 0.12191 0.0
C663 C 0.0475 0.15138 0.97632 0.0
H664 H 0.02042 0.10578 0.06418 0.0
C665 C 0.02925 0.07383 0.84603 0.0
C666 C 0.0083 0.06863 0.84987 0.0
C667 C 0.03733 0.08936 0.88631 0.0
C668 C 0.02802 0.11838 0.03907 0.0
H669 H 0.08339 0.207 0.11717 0.0
H670 H 0.07674 0.17732 0.04523 0.0
H671 H 0.02905 0.13672 0.12648 0.0
H672 H 0.97962 0.07469 0.90035 0.0
H673 H 0.99385 0.10121 0.97239 0.0
H674 H 0.04613 0.13303 0.88857 0.0
C675 C 0.06452 0.18292 0.07673 0.0
C676 C 0.03286 0.13612 0.07455 0.0
C677 C 0.0683 0.19995 0.11732 0.0
C678 C 0.99581 0.07847 0.89654 0.0
C679 C 0.00398 0.09356 0.93783 0.0
C680 C 0.04269 0.13356 0.94076 0.0
C681 C 0.04562 0.17243 0.08026 0.0
C682 C 0.04217 0.15303 0.04322 0.0
C683 C 0.0247 0.0995 0.93217 0.0
C684 C 0.03246 0.11709 0.97151 0.0
H685 H 0.02202 0.20216 0.19587 0.0
H686 H 0.01535 0.17252 0.12515 0.0
H687 H 0.05466 0.16417 0.95089 0.0
H688 H 0.03912 0.06656 0.80989 0.0
H689 H 0.05336 0.09363 0.88108 0.0
C690 C 0.31156 0.04437 0.1417 0.0
C691 C 0.30844 0.06447 0.16434 0.0
C692 C 0.32865 0.0396 0.10309 0.0
C693 C 0.38047 0.05932 0.05373 0.0
H694 H 0.37554 0.01531 0.92624 0.0
C695 C 0.45034 0.02323 0.91161 0.0
C696 C 0.44626 0.01619 0.84743 0.0
C697 C 0.43428 0.03088 0.95108 0.0
C698 C 0.37724 0.02786 0.96086 0.0
H699 H 0.3205 0.09546 0.16436 0.0
H700 H 0.34971 0.08756 0.09221 0.0
H701 H 0.3457 0.02583 0.98789 0.0
H702 H 0.4228 0.01329 0.77225 0.0
H703 H 0.39533 0.02737 0.8389 0.0
H704 H 0.41205 0.0618 0.02352 0.0
C705 C 0.33931 0.07527 0.10586 0.0
C706 C 0.36008 0.03368 -0.0026 0.0
C707 C 0.32238 0.07994 0.14598 0.0
C708 C 0.42628 0.01807 0.82218 0.0
C709 C 0.41048 0.02606 0.86068 0.0
C710 C 0.3977 0.05367 0.0161 0.0
C711 C 0.34289 0.05493 0.0848 0.0
C712 C 0.36136 0.04943 0.04462 0.0
C713 C 0.41402 0.03191 0.92641 0.0
C714 C 0.39623 0.03793 0.96876 0.0
H715 H 0.30147 0.03204 0.15743 0.0
H716 H 0.33106 0.02366 0.08987 0.0
H717 H 0.38222 0.07129 0.09038 0.0
H718 H 0.4657 0.02208 0.93201 0.0
H719 H 0.43761 0.03527 0.00142 0.0
C720 C 0.47625 0.31429 0.1453 0.0
C721 C 0.45616 0.30864 0.16311 0.0
C722 C 0.47968 0.33166 0.10604 0.0
C723 C 0.45541 0.36778 0.98961 0.0
H724 H 0.49852 0.40487 0.04764 0.0
C725 C 0.49353 0.42755 0.82092 0.0
C726 C 0.49887 0.44687 0.84634 0.0
C727 C 0.48503 0.41248 0.86158 0.0
C728 C 0.48624 0.39483 0.03131 0.0
H729 H 0.42392 0.31616 0.15212 0.0
H730 H 0.42985 0.3461 0.08137 0.0
H731 H 0.49085 0.37398 0.11181 0.0
H732 H 0.49915 0.46596 0.93363 0.0
H733 H 0.4847 0.43917 0.00614 0.0
H734 H 0.45104 0.38845 0.90851 0.0
C735 C 0.44294 0.3372 0.09793 0.0
C736 C 0.48205 0.37698 0.06751 0.0
C737 C 0.43953 0.31999 0.13792 0.0
C738 C 0.49505 0.45115 0.91302 0.0
C739 C 0.48691 0.43583 0.95435 0.0
C740 C 0.45973 0.38552 0.95308 0.0
C741 C 0.46309 0.34361 0.08328 0.0
C742 C 0.46684 0.36305 0.04639 0.0
C743 C 0.48206 0.41622 0.92908 0.0
C744 C 0.47546 0.39906 0.97281 0.0
H745 H 0.48934 0.30609 0.16537 0.0
H746 H 0.49537 0.33605 0.09487 0.0
H747 H 0.44355 0.35741 0.97219 0.0
H748 H 0.49631 0.42397 0.76954 0.0
H749 H 0.48166 0.39753 0.84064 0.0
C750 C 0.20344 0.47113 0.12698 0.0
C751 C 0.20667 0.45203 0.15754 0.0
C752 C 0.18619 0.47429 0.08696 0.0
C753 C 0.13358 0.4541 0.06151 0.0
H754 H 0.13455 0.48933 0.90744 0.0
C755 C 0.06191 0.49256 0.93991 0.0
C756 C 0.06143 0.49265 0.87083 0.0
C757 C 0.07888 0.48431 0.97335 0.0
C758 C 0.13407 0.47929 0.95002 0.0
H759 H 0.19498 0.42107 0.16844 0.0
H760 H 0.1653 0.42625 0.09616 0.0
H761 H 0.16659 0.48153 0.96475 0.0
H762 H 0.07775 0.48398 0.78223 0.0
H763 H 0.10758 0.46995 0.84038 0.0
H764 H 0.10092 0.45212 0.04675 0.0
C765 C 0.1758 0.43894 0.10416 0.0
C766 C 0.1524 0.47498 0.98327 0.0
C767 C 0.19295 0.43585 0.14461 0.0
C768 C 0.07769 0.48371 0.83563 0.0
C769 C 0.09481 0.4759 0.86885 0.0
C770 C 0.1152 0.45856 0.02847 0.0
C771 C 0.17186 0.45838 0.07639 0.0
C772 C 0.15242 0.46235 0.03949 0.0
C773 C 0.09584 0.47663 0.93797 0.0
C774 C 0.11527 0.47119 0.97234 0.0
H775 H 0.21345 0.48402 0.13778 0.0
H776 H 0.18352 0.48954 0.06722 0.0
H777 H 0.13296 0.44457 0.10523 0.0
H778 H 0.04961 0.49966 0.9678 0.0
H779 H 0.0793 0.4851 0.02664 0.0
C780 C 0.98255 0.81438 0.2972 0.0
C781 C 0.96385 0.81142 0.2643 0.0
C782 C 0.98524 0.83135 0.33869 0.0
C783 C 0.96421 0.88363 0.36956 0.0
H784 H -3e-05 0.88066 0.52201 0.0
C785 C 0.98009 0.95109 0.55597 0.0
C786 C 0.00068 0.95285 0.5765 0.0
C787 C 0.97399 0.93466 0.51544 0.0
C788 C 0.99003 0.88178 0.47931 0.0
H789 H 0.93307 0.82325 0.25 0.0
H790 H 0.93733 0.85238 0.32502 0.0
H791 H 0.99176 0.84946 0.46173 0.0
H792 H 0.03126 0.93997 0.56625 0.0
H793 H 0.02077 0.91178 0.49514 0.0
H794 H 0.96249 0.91614 0.3882 0.0
C795 C 0.95014 0.84198 0.31779 0.0
C796 C 0.98535 0.86387 0.44461 0.0
C797 C 0.94756 0.82514 0.27571 0.0
C798 C 0.01521 0.93876 0.55241 0.0
C799 C 0.00919 0.92257 0.51184 0.0
C800 C 0.96879 0.90162 0.40483 0.0
C801 C 0.96918 0.8456 0.3486 0.0
C802 C 0.97269 0.86455 0.38853 0.0
C803 C 0.98844 0.91987 0.49478 0.0
C804 C 0.9821 0.9009 0.45929 0.0
H805 H 0.99549 0.80431 0.28765 0.0
H806 H 0.00024 0.83378 0.36049 0.0
H807 H 0.95457 0.88483 0.32622 0.0
H808 H 0.96858 0.96177 0.57382 0.0
H809 H 0.95789 0.93299 0.50287 0.0
C810 C 0.6905 0.98862 0.26232 0.0
C811 C 0.70362 0.97153 0.26667 0.0
C812 C 0.67362 0.99052 0.30429 0.0
C813 C 0.64968 0.97171 0.45863 0.0
H814 H 0.60028 0.99267 0.3748 0.0
C815 C 0.57099 0.98301 0.59428 0.0
C816 C 0.56432 0.00354 0.59059 0.0
C817 C 0.58704 0.97607 0.55371 0.0
C818 C 0.61393 0.9867 0.39878 0.0
H819 H 0.70992 0.94343 0.32006 0.0
H820 H 0.68027 0.94675 0.39438 0.0
H821 H 0.63105 0.98668 0.30897 0.0
H822 H 0.56845 0.03265 0.54059 0.0
H823 H 0.59573 0.02034 0.46784 0.0
H824 H 0.63228 0.97189 0.54869 0.0
C825 C 0.68313 0.95875 0.35855 0.0
C826 C 0.63163 0.98343 0.36128 0.0
C827 C 0.70018 0.9569 0.3164 0.0
C828 C 0.5733 0.01674 0.5441 0.0
C829 C 0.58886 0.00968 0.5025 0.0
C830 C 0.63182 0.97483 0.49617 0.0
C831 C 0.66928 0.97528 0.3515 0.0
C832 C 0.64995 0.97654 0.39101 0.0
C833 C 0.59619 0.98942 0.50769 0.0
C834 C 0.61397 0.98291 0.46683 0.0
H835 H 0.69281 0.00011 0.22433 0.0
H836 H 0.66365 0.00375 0.29861 0.0
H837 H 0.66349 0.96637 0.48311 0.0
H838 H 0.56444 0.97264 0.63043 0.0
H839 H 0.59243 0.96038 0.55862 0.0
C840 C 0.55589 0.70129 0.31446 0.0
C841 C 0.5409 0.70391 0.26528 0.0
C842 C 0.55607 0.6834 0.35324 0.0
C843 C 0.53982 0.62941 0.34112 0.0
H844 H 0.54541 0.62708 0.53108 0.0
C845 C 0.50907 0.56354 0.4989 0.0
C846 C 0.51962 0.55758 0.55606 0.0
C847 C 0.51662 0.57942 0.45948 0.0
C848 C 0.54432 0.62743 0.47784 0.0
H849 H 0.51344 0.69083 0.22167 0.0
H850 H 0.51362 0.65988 0.2893 0.0
H851 H 0.54785 0.66027 0.47441 0.0
H852 H 0.54672 0.56277 0.61574 0.0
H853 H 0.55984 0.59105 0.54718 0.0
H854 H 0.53565 0.59676 0.34444 0.0
C855 C 0.5255 0.67131 0.29713 0.0
C856 C 0.54561 0.64645 0.44551 0.0
C857 C 0.52525 0.68913 0.25895 0.0
C858 C 0.53848 0.56697 0.5713 0.0
C859 C 0.54585 0.58324 0.53254 0.0
C860 C 0.53856 0.61047 0.3733 0.0
C861 C 0.54133 0.66787 0.34294 0.0
C862 C 0.54265 0.64768 0.37706 0.0
C863 C 0.53465 0.59001 0.47727 0.0
C864 C 0.54012 0.60934 0.44222 0.0
H865 H 0.56822 0.71237 0.31985 0.0
H866 H 0.56837 0.68119 0.38854 0.0
H867 H 0.53802 0.62983 0.28806 0.0
H868 H 0.49443 0.55659 0.48652 0.0
H869 H 0.50755 0.58434 0.41757 0.0
C870 C 0.81335 0.56065 0.31315 0.0
C871 C 0.80947 0.54526 0.26618 0.0
C872 C 0.83076 0.5594 0.35398 0.0
C873 C 0.88253 0.53646 0.35134 0.0
H874 H 0.88392 0.54621 0.53968 0.0
C875 C 0.94387 0.50274 0.5216 0.0
C876 C 0.95157 0.51451 0.57401 0.0
C877 C 0.9284 0.51049 0.48093 0.0
C878 C 0.88385 0.54387 0.48685 0.0
H879 H 0.81973 0.51589 0.22824 0.0
H880 H 0.84974 0.51354 0.29963 0.0
H881 H 0.85175 0.55128 0.4787 0.0
H882 H 0.94959 0.54379 0.62431 0.0
H883 H 0.92192 0.55729 0.55368 0.0
H884 H 0.91436 0.52843 0.35952 0.0
C885 C 0.83972 0.52678 0.30426 0.0
C886 C 0.86542 0.54669 0.45204 0.0
C887 C 0.8224 0.52797 0.26399 0.0
C888 C 0.94402 0.53453 0.5837 0.0
C889 C 0.92812 0.54215 0.54375 0.0
C890 C 0.90087 0.53363 0.38599 0.0
C891 C 0.84455 0.54281 0.34796 0.0
C892 C 0.86443 0.54235 0.38429 0.0
C893 C 0.91994 0.53004 0.49261 0.0
C894 C 0.90159 0.53669 0.45444 0.0
H895 H 0.80375 0.57425 0.31517 0.0
H896 H 0.83405 0.57194 0.38747 0.0
H897 H 0.8824 0.53355 0.29879 0.0
H898 H 0.94942 0.48724 0.51328 0.0
H899 H 0.92233 0.50071 0.44236 0.0
loop_
_geom_bond_atom_site_label_1
_geom_bond_atom_site_label_2
_geom_bond_distance
_geom_bond_site_symmetry_2
_ccdc_geom_bond_type
H0 C5 0.930 . S
H1 C8 0.930 . S
H2 C10 0.930 . S
H3 C4 1.016 . S
C4 H3 1.016 . S
C4 N11 1.286 . S
C5 H0 0.930 . S
C5 C6 1.397 . S
C5 C7 1.361 . S
C6 C5 1.397 . S
C6 C10 1.390 . S
C7 C5 1.361 . S
C7 C8 1.393 . S
C7 N11 1.413 . S
C8 H1 0.930 . S
C8 C7 1.393 . S
C8 C9 1.399 . S
C9 C8 1.399 . S
C9 C10 1.381 . S
C10 H2 0.930 . S
C10 C6 1.390 . S
C10 C9 1.381 . S
N11 C4 1.286 . S
N11 C7 1.413 . S
H12 C17 0.930 . S
H13 C20 0.930 . S
H14 C22 0.930 . S
H15 C16 1.016 . S
C16 H15 1.016 . S
C16 N23 1.286 . S
C17 H12 0.930 . S
C17 C18 1.397 . S
C17 C19 1.361 . S
C18 C17 1.397 . S
C18 C22 1.390 . S
C19 C17 1.361 . S
C19 C20 1.393 . S
C19 N23 1.413 . S
C20 H13 0.930 . S
C20 C19 1.393 . S
C20 C21 1.399 . S
C21 C20 1.399 . S
C21 C22 1.381 . S
C22 H14 0.930 . S
C22 C18 1.390 . S
C22 C21 1.381 . S
N23 C16 1.286 . S
N23 C19 1.413 . S
H24 C29 0.930 . S
H25 C32 0.930 . S
H26 C34 0.930 . S
H27 C28 1.016 . S
C28 H27 1.016 . S
C28 N35 1.286 . S
C29 H24 0.930 . S
C29 C30 1.397 . S
C29 C31 1.361 . S
C30 C29 1.397 . S
C30 C34 1.390 . S
C31 C29 1.361 . S
C31 C32 1.393 . S
C31 N35 1.413 . S
C32 H25 0.930 . S
C32 C31 1.393 . S
C32 C33 1.399 . S
C33 C32 1.399 . S
C33 C34 1.381 . S
C34 H26 0.930 . S
C34 C30 1.390 . S
C34 C33 1.381 . S
N35 C28 1.286 . S
N35 C31 1.413 . S
H36 C41 0.930 . S
H37 C44 0.930 . S
H38 C46 0.930 . S
H39 C40 1.016 . S
C40 H39 1.016 . S
C40 N47 1.286 . S
C41 H36 0.930 . S
C41 C42 1.397 . S
C41 C43 1.361 . S
C42 C41 1.397 . S
C42 C46 1.390 . S
C43 C41 1.361 . S
C43 C44 1.393 . S
C43 N47 1.413 . S
C44 H37 0.930 . S
C44 C43 1.393 . S
C44 C45 1.399 . S
C45 C44 1.399 . S
C45 C46 1.381 . S
C46 H38 0.930 . S
C46 C42 1.390 . S
C46 C45 1.381 . S
N47 C40 1.286 . S
N47 C43 1.413 . S
H48 C53 0.930 . S
H49 C56 0.930 . S
H50 C58 0.930 . S
H51 C52 1.016 . S
C52 H51 1.016 . S
C52 N59 1.286 . S
C53 H48 0.930 . S
C53 C54 1.397 . S
C53 C55 1.361 . S
C54 C53 1.397 . S
C54 C58 1.390 . S
C55 C53 1.361 . S
C55 C56 1.393 . S
C55 N59 1.413 . S
C56 H49 0.930 . S
C56 C55 1.393 . S
C56 C57 1.399 . S
C57 C56 1.399 . S
C57 C58 1.381 . S
C58 H50 0.930 . S
C58 C54 1.390 . S
C58 C57 1.381 . S
N59 C52 1.286 . S
N59 C55 1.413 . S
H60 C65 0.930 . S
H61 C68 0.930 . S
H62 C70 0.930 . S
H63 C64 1.016 . S
C64 H63 1.016 . S
C64 N71 1.286 . S
C65 H60 0.930 . S
C65 C66 1.397 . S
C65 C67 1.361 . S
C66 C65 1.397 . S
C66 C70 1.390 . S
C67 C65 1.361 . S
C67 C68 1.393 . S
C67 N71 1.413 . S
C68 H61 0.930 . S
C68 C67 1.393 . S
C68 C69 1.399 . S
C69 C68 1.399 . S
C69 C70 1.381 . S
C70 H62 0.930 . S
C70 C66 1.390 . S
C70 C69 1.381 . S
N71 C64 1.286 . S
N71 C67 1.413 . S
H72 C77 0.930 . S
H73 C80 0.930 . S
H74 C82 0.930 . S
H75 C76 1.016 . S
C76 H75 1.016 . S
C76 N83 1.286 . S
C77 H72 0.930 . S
C77 C78 1.397 . S
C77 C79 1.361 . S
C78 C77 1.397 . S
C78 C82 1.390 . S
C79 C77 1.361 . S
C79 C80 1.393 . S
C79 N83 1.413 . S
C80 H73 0.930 . S
C80 C79 1.393 . S
C80 C81 1.399 . S
C81 C80 1.399 . S
C81 C82 1.381 . S
C82 H74 0.930 . S
C82 C78 1.390 . S
C82 C81 1.381 . S
N83 C76 1.286 . S
N83 C79 1.413 . S
H84 C89 0.930 . S
H85 C92 0.930 . S
H86 C94 0.930 . S
H87 C88 1.016 . S
C88 H87 1.016 . S
C88 N95 1.286 . S
C89 H84 0.930 . S
C89 C90 1.397 . S
C89 C91 1.361 . S
C90 C89 1.397 . S
C90 C94 1.390 . S
C91 C89 1.361 . S
C91 C92 1.393 . S
C91 N95 1.413 . S
C92 H85 0.930 . S
C92 C91 1.393 . S
C92 C93 1.399 . S
C93 C92 1.399 . S
C93 C94 1.381 . S
C94 H86 0.930 . S
C94 C90 1.390 . S
C94 C93 1.381 . S
N95 C88 1.286 . S
N95 C91 1.413 . S
O96 Mg97 1.990 . S
O96 C110 1.253 . S
Mg97 O96 1.990 . S
Mg97 O100 2.180 1_565 S
Mg97 O101 2.117 . S
Mg97 O115 2.030 . S
O98 Mg99 2.072 1_565 S
O98 C110 1.260 . S
Mg99 O98 2.072 1_545 S
Mg99 O100 2.099 . S
Mg99 O102 2.079 . S
Mg99 O103 2.072 . S
Mg99 O105 2.099 1_455 S
Mg99 O116 2.079 1_445 S
O100 Mg97 2.180 1_545 S
O100 Mg99 2.099 . S
O100 C111 1.279 . S
O101 Mg97 2.117 . S
O101 C111 1.250 1_565 S
O102 Mg99 2.079 . S
O102 C112 1.264 . S
O103 Mg99 2.072 . S
O103 C113 1.260 . S
Mg104 O105 2.180 . S
Mg104 O106 2.030 . S
Mg104 O107 1.990 . S
Mg104 O108 2.117 . S
O105 Mg99 2.099 1_655 S
O105 Mg104 2.180 . S
O105 C114 1.279 . S
O106 Mg104 2.030 . S
O106 C112 1.248 1_655 S
O107 Mg104 1.990 . S
O107 C113 1.253 1_655 S
O108 Mg104 2.117 . S
O108 C114 1.250 . S
C109 O115 1.248 . S
C109 O116 1.264 1_455 S
C110 O96 1.253 . S
C110 O98 1.260 . S
C111 O100 1.279 . S
C111 O101 1.250 1_545 S
C112 O102 1.264 . S
C112 O106 1.248 1_455 S
C113 O103 1.260 . S
C113 O107 1.253 1_455 S
C114 O105 1.279 . S
C114 O108 1.250 . S
O115 Mg97 2.030 . S
O115 C109 1.248 . S
O116 Mg99 2.079 1_665 S
O116 C109 1.264 1_655 S
O117 Mg118 2.030 . S
O117 C131 1.205 1_565 S
Mg118 O117 2.030 . S
Mg118 O121 2.180 . S
Mg118 O122 2.117 . S
Mg118 O136 2.030 . S
O119 Mg120 2.072 . S
O119 C131 1.260 . S
Mg120 O119 2.072 . S
Mg120 O121 2.099 1_545 S
Mg120 O123 2.067 1_545 S
Mg120 O124 2.072 . S
Mg120 O126 2.099 . S
Mg120 O137 2.079 . S
O121 Mg118 2.180 . S
O121 Mg120 2.099 1_565 S
O121 C132 1.279 . S
O122 Mg118 2.117 . S
O122 C132 1.250 . S
O123 Mg120 2.067 1_565 S
O123 C133 1.258 1_565 S
O124 Mg120 2.072 . S
O124 C134 1.260 . S
Mg125 O126 2.180 . S
Mg125 O127 2.030 . S
Mg125 O128 1.990 . S
Mg125 O129 2.117 . S
O126 Mg120 2.099 . S
O126 Mg125 2.180 . S
O126 C135 1.279 . S
O127 Mg125 2.030 . S
O127 C133 1.248 . S
O128 Mg125 1.990 . S
O128 C134 1.253 . S
O129 Mg125 2.117 . S
O129 C135 1.250 . S
C130 O136 1.248 1_545 S
C130 O137 1.264 . S
C131 O117 1.205 1_545 S
C131 O119 1.260 . S
C132 O121 1.279 . S
C132 O122 1.250 . S
C133 O123 1.258 1_545 S
C133 O127 1.248 . S
C134 O124 1.260 . S
C134 O128 1.253 . S
C135 O126 1.279 . S
C135 O129 1.250 . S
O136 Mg118 2.030 . S
O136 C130 1.248 1_565 S
O137 Mg120 2.079 . S
O137 C130 1.264 . S
O138 Mg139 1.990 . S
O138 C152 1.253 . S
Mg139 O138 1.990 . S
Mg139 O142 2.180 . S
Mg139 O143 2.117 . S
Mg139 O157 2.030 . S
O140 Mg141 2.072 . S
O140 C152 1.260 . S
Mg141 O140 2.072 . S
Mg141 O142 2.099 . S
Mg141 O144 2.079 . S
Mg141 O145 2.072 . S
Mg141 O147 2.099 . S
Mg141 O158 2.079 . S
O142 Mg139 2.180 . S
O142 Mg141 2.099 . S
O142 C153 1.279 . S
O143 Mg139 2.117 . S
O143 C153 1.250 . S
O144 Mg141 2.079 . S
O144 C154 1.264 . S
O145 Mg141 2.072 . S
O145 C155 1.260 . S
Mg146 O147 2.180 . S
Mg146 O148 2.030 . S
Mg146 O149 1.990 . S
Mg146 O150 2.117 . S
O147 Mg141 2.099 . S
O147 Mg146 2.180 . S
O147 C156 1.279 . S
O148 Mg146 2.030 . S
O148 C154 1.248 . S
O149 Mg146 1.990 . S
O149 C155 1.253 . S
O150 Mg146 2.117 . S
O150 C156 1.250 . S
C151 O157 1.248 . S
C151 O158 1.264 . S
C152 O138 1.253 . S
C152 O140 1.260 . S
C153 O142 1.279 . S
C153 O143 1.250 . S
C154 O144 1.264 . S
C154 O148 1.248 . S
C155 O145 1.260 . S
C155 O149 1.253 . S
C156 O147 1.279 . S
C156 O150 1.250 . S
O157 Mg139 2.030 . S
O157 C151 1.248 . S
O158 Mg141 2.079 . S
O158 C151 1.264 . S
O159 Mg160 1.990 . S
O159 C173 1.253 . S
Mg160 O159 1.990 . S
Mg160 O163 2.180 1_655 S
Mg160 O164 2.117 . S
Mg160 O178 2.030 . S
O161 Mg162 2.072 1_655 S
O161 C173 1.260 . S
Mg162 O161 2.072 1_455 S
Mg162 O163 2.099 . S
Mg162 O165 2.079 . S
Mg162 O166 2.072 . S
Mg162 O168 2.099 . S
Mg162 O179 2.079 1_455 S
O163 Mg160 2.180 1_455 S
O163 Mg162 2.099 . S
O163 C174 1.279 . S
O164 Mg160 2.117 . S
O164 C174 1.250 1_655 S
O165 Mg162 2.079 . S
O165 C175 1.264 . S
O166 Mg162 2.072 . S
O166 C176 1.260 . S
Mg167 O168 2.180 . S
Mg167 O169 2.030 . S
Mg167 O170 1.990 . S
Mg167 O171 2.117 . S
O168 Mg162 2.099 . S
O168 Mg167 2.180 . S
O168 C177 1.279 . S
O169 Mg167 2.030 . S
O169 C175 1.248 . S
O170 Mg167 1.990 . S
O170 C176 1.253 . S
O171 Mg167 2.117 . S
O171 C177 1.250 . S
C172 O178 1.248 . S
C172 O179 1.264 . S
C173 O159 1.253 . S
C173 O161 1.260 . S
C174 O163 1.279 . S
C174 O164 1.250 1_455 S
C175 O165 1.264 . S
C175 O169 1.248 . S
C176 O166 1.260 . S
C176 O170 1.253 . S
C177 O168 1.279 . S
C177 O171 1.250 . S
O178 Mg160 2.030 . S
O178 C172 1.248 . S
O179 Mg162 2.079 1_655 S
O179 C172 1.264 . S
C180 C181 1.349 . S
C180 C182 1.327 . S
C180 H205 0.950 . S
C181 C180 1.349 . S
C181 C197 1.349 . S
C182 C180 1.327 . S
C182 C201 1.429 . S
C182 H206 0.950 . S
C183 C200 1.574 . S
C183 C202 1.368 . S
C183 H207 0.949 . S
H184 C188 0.979 . S
C185 C186 1.349 . S
C185 C187 1.327 . S
C185 H208 0.950 . S
C186 C185 1.349 . S
C186 C198 1.349 . S
C187 C185 1.327 . S
C187 C203 1.429 . S
C187 H209 0.950 . S
C188 H184 0.979 . S
C188 C196 1.574 . S
C188 C204 1.368 . S
H189 C197 0.950 . S
H190 C195 0.950 . S
H191 C196 0.949 . S
H192 C198 0.950 1_565 S
H193 C199 0.950 1_565 S
H194 C200 0.949 . S
C195 H190 0.950 . S
C195 C197 1.327 . S
C195 C201 1.429 . S
C196 C188 1.574 . S
C196 H191 0.949 . S
C196 C202 1.368 . S
C197 C181 1.349 . S
C197 H189 0.950 . S
C197 C195 1.327 . S
C198 C186 1.349 . S
C198 H192 0.950 1_545 S
C198 C199 1.327 . S
C199 H193 0.950 1_545 S
C199 C198 1.327 . S
C199 C203 1.429 . S
C200 C183 1.574 . S
C200 H194 0.949 . S
C200 C204 1.368 . S
C201 C182 1.429 . S
C201 C195 1.429 . S
C201 C202 1.523 . S
C202 C183 1.368 . S
C202 C196 1.368 . S
C202 C201 1.523 . S
C203 C187 1.429 . S
C203 C199 1.429 . S
C203 C204 1.523 . S
C204 C188 1.368 . S
C204 C200 1.368 . S
C204 C203 1.523 . S
H205 C180 0.950 . S
H206 C182 0.950 . S
H207 C183 0.949 . S
H208 C185 0.950 . S
H209 C187 0.950 . S
C210 C211 1.349 . S
C210 C212 1.327 . S
C210 H235 0.950 . S
C211 C210 1.349 . S
C211 C227 1.349 . S
C212 C210 1.327 . S
C212 C231 1.429 . S
C212 H236 0.950 . S
C213 C230 1.574 . S
C213 C232 1.368 . S
C213 H237 0.949 . S
H214 C218 0.949 . S
C215 C216 1.349 . S
C215 C217 1.327 . S
C215 H238 0.950 . S
C216 C215 1.349 . S
C216 C228 1.349 . S
C217 C215 1.327 . S
C217 C233 1.429 . S
C217 H239 0.950 . S
C218 H214 0.949 . S
C218 C226 1.574 . S
C218 C234 1.368 . S
H219 C227 0.950 . S
H220 C225 0.950 . S
H221 C226 0.949 . S
H222 C228 0.950 . S
H223 C229 0.950 . S
H224 C230 0.949 . S
C225 H220 0.950 . S
C225 C227 1.327 . S
C225 C231 1.429 . S
C226 C218 1.574 . S
C226 H221 0.949 . S
C226 C232 1.368 . S
C227 C211 1.349 . S
C227 H219 0.950 . S
C227 C225 1.327 . S
C228 C216 1.349 . S
C228 H222 0.950 . S
C228 C229 1.327 . S
C229 H223 0.950 . S
C229 C228 1.327 . S
C229 C233 1.429 . S
C230 C213 1.574 . S
C230 H224 0.949 . S
C230 C234 1.368 . S
C231 C212 1.429 . S
C231 C225 1.429 . S
C231 C232 1.523 . S
C232 C213 1.368 . S
C232 C226 1.368 . S
C232 C231 1.523 . S
C233 C217 1.429 . S
C233 C229 1.429 . S
C233 C234 1.523 . S
C234 C218 1.368 . S
C234 C230 1.368 . S
C234 C233 1.523 . S
H235 C210 0.950 . S
H236 C212 0.950 . S
H237 C213 0.949 . S
H238 C215 0.950 . S
H239 C217 0.950 . S
C240 C241 1.349 . S
C240 C242 1.327 . S
C240 H265 0.950 . S
C241 C240 1.349 . S
C241 C257 1.349 . S
C242 C240 1.327 . S
C242 C261 1.429 . S
C242 H266 0.950 . S
C243 C260 1.574 . S
C243 C262 1.368 . S
C243 H267 0.949 . S
H244 C248 0.949 . S
C245 C246 1.349 . S
C245 C247 1.327 . S
C245 H268 0.950 . S
C246 C245 1.349 . S
C246 C258 1.349 . S
C247 C245 1.327 . S
C247 C263 1.429 . S
C247 H269 0.950 . S
C248 H244 0.949 . S
C248 C256 1.574 . S
C248 C264 1.368 . S
H249 C257 0.950 . S
H250 C255 0.950 . S
H251 C256 0.949 . S
H252 C258 0.950 . S
H253 C259 0.950 . S
H254 C260 0.949 . S
C255 H250 0.950 . S
C255 C257 1.327 . S
C255 C261 1.429 . S
C256 C248 1.574 . S
C256 H251 0.949 . S
C256 C262 1.368 . S
C257 C241 1.349 . S
C257 H249 0.950 . S
C257 C255 1.327 . S
C258 C246 1.349 . S
C258 H252 0.950 . S
C258 C259 1.327 . S
C259 H253 0.950 . S
C259 C258 1.327 . S
C259 C263 1.429 . S
C260 C243 1.574 . S
C260 H254 0.949 . S
C260 C264 1.368 . S
C261 C242 1.429 . S
C261 C255 1.429 . S
C261 C262 1.523 . S
C262 C243 1.368 . S
C262 C256 1.368 . S
C262 C261 1.523 . S
C263 C247 1.429 . S
C263 C259 1.429 . S
C263 C264 1.523 . S
C264 C248 1.368 . S
C264 C260 1.368 . S
C264 C263 1.523 . S
H265 C240 0.950 . S
H266 C242 0.950 . S
H267 C243 0.949 . S
H268 C245 0.950 . S
H269 C247 0.950 . S
C270 C271 1.349 . S
C270 C272 1.327 . S
C270 H295 0.950 . S
C271 C270 1.349 . S
C271 C287 1.349 . S
C272 C270 1.327 . S
C272 C291 1.429 . S
C272 H296 0.950 . S
C273 C290 1.574 . S
C273 C292 1.368 . S
C273 H297 0.949 . S
H274 C278 0.949 . S
C275 C276 1.349 . S
C275 C277 1.327 . S
C275 H298 0.950 . S
C276 C275 1.349 . S
C276 C288 1.349 . S
C277 C275 1.327 . S
C277 C293 1.429 . S
C277 H299 0.950 . S
C278 H274 0.949 . S
C278 C286 1.574 . S
C278 C294 1.368 . S
H279 C287 0.950 . S
H280 C285 0.950 . S
H281 C286 0.949 . S
H282 C288 0.950 1_655 S
H283 C289 0.950 . S
H284 C290 0.949 . S
C285 H280 0.950 . S
C285 C287 1.327 . S
C285 C291 1.429 . S
C286 C278 1.574 . S
C286 H281 0.949 . S
C286 C292 1.368 . S
C287 C271 1.349 . S
C287 H279 0.950 . S
C287 C285 1.327 . S
C288 C276 1.349 . S
C288 H282 0.950 1_455 S
C288 C289 1.327 . S
C289 H283 0.950 . S
C289 C288 1.327 . S
C289 C293 1.429 . S
C290 C273 1.574 . S
C290 H284 0.949 . S
C290 C294 1.368 . S
C291 C272 1.429 . S
C291 C285 1.429 . S
C291 C292 1.523 . S
C292 C273 1.368 . S
C292 C286 1.368 . S
C292 C291 1.523 . S
C293 C277 1.429 . S
C293 C289 1.429 . S
C293 C294 1.523 . S
C294 C278 1.368 . S
C294 C290 1.368 . S
C294 C293 1.523 . S
H295 C270 0.950 . S
H296 C272 0.950 . S
H297 C273 0.949 . S
H298 C275 0.950 . S
H299 C277 0.950 . S
C300 C301 1.349 . S
C300 C302 1.327 . S
C300 H325 0.950 . S
C301 C300 1.349 . S
C301 C317 1.349 1_554 S
C302 C300 1.327 . S
C302 C321 1.429 1_554 S
C302 H326 0.942 1_565 S
C303 C320 1.574 . S
C303 C322 1.368 . S
C303 H327 0.949 . S
H304 C308 0.949 . S
C305 C306 1.349 1_565 S
C305 C307 1.327 . S
C305 H328 0.950 . S
C306 C305 1.349 1_545 S
C306 C318 1.349 . S
C307 C305 1.327 . S
C307 C323 1.429 . S
C307 H329 0.950 . S
C308 H304 0.949 . S
C308 C316 1.574 1_545 S
C308 C324 1.368 1_545 S
H309 C317 0.950 . S
H310 C315 0.950 . S
H311 C316 0.949 1_544 S
H312 C318 0.950 . S
H313 C319 0.950 . S
H314 C320 0.949 . S
C315 H310 0.950 . S
C315 C317 1.327 . S
C315 C321 1.429 . S
C316 C308 1.574 1_565 S
C316 H311 0.949 1_566 S
C316 C322 1.368 . S
C317 C301 1.349 1_556 S
C317 H309 0.950 . S
C317 C315 1.327 . S
C318 C306 1.349 . S
C318 H312 0.950 . S
C318 C319 1.327 . S
C319 H313 0.950 . S
C319 C318 1.327 . S
C319 C323 1.429 1_545 S
C320 C303 1.574 . S
C320 H314 0.949 . S
C320 C324 1.368 . S
C321 C302 1.429 1_556 S
C321 C315 1.429 . S
C321 C322 1.523 . S
C322 C303 1.368 . S
C322 C316 1.368 . S
C322 C321 1.523 . S
C323 C307 1.429 . S
C323 C319 1.429 1_565 S
C323 C324 1.523 . S
C324 C308 1.368 1_565 S
C324 C320 1.368 . S
C324 C323 1.523 . S
H325 C300 0.950 . S
H326 C302 0.942 1_545 S
H327 C303 0.949 . S
H328 C305 0.950 . S
H329 C307 0.950 . S
C330 C331 1.349 1_556 S
C330 C332 1.327 . S
C330 H355 0.950 . S
C331 C330 1.349 1_554 S
C331 C347 1.349 . S
C332 C330 1.327 . S
C332 C351 1.429 . S
C332 H356 0.950 . S
C333 C350 1.574 . S
C333 C352 1.368 . S
C333 H357 0.949 . S
H334 C338 0.949 . S
C335 C336 1.349 . S
C335 C337 1.327 . S
C335 H358 0.950 . S
C336 C335 1.349 . S
C336 C348 1.349 . S
C337 C335 1.327 . S
C337 C353 1.429 . S
C337 H359 0.950 . S
C338 H334 0.949 . S
C338 C346 1.574 . S
C338 C354 1.368 . S
H339 C347 0.950 . S
H340 C345 0.950 . S
H341 C346 0.949 . S
H342 C348 0.950 . S
H343 C349 0.950 . S
H344 C350 0.949 . S
C345 H340 0.950 . S
C345 C347 1.327 . S
C345 C351 1.429 1_554 S
C346 C338 1.574 . S
C346 H341 0.949 . S
C346 C352 1.368 . S
C347 C331 1.349 . S
C347 H339 0.950 . S
C347 C345 1.327 . S
C348 C336 1.349 . S
C348 H342 0.950 . S
C348 C349 1.327 . S
C349 H343 0.950 . S
C349 C348 1.327 . S
C349 C353 1.429 . S
C350 C333 1.574 . S
C350 H344 0.949 . S
C350 C354 1.368 . S
C351 C332 1.429 . S
C351 C345 1.429 1_556 S
C351 C352 1.523 . S
C352 C333 1.368 . S
C352 C346 1.368 . S
C352 C351 1.523 . S
C353 C337 1.429 . S
C353 C349 1.429 . S
C353 C354 1.523 . S
C354 C338 1.368 . S
C354 C350 1.368 . S
C354 C353 1.523 . S
H355 C330 0.950 . S
H356 C332 0.950 . S
H357 C333 0.949 . S
H358 C335 0.950 . S
H359 C337 0.950 . S
C360 C361 1.349 . S
C360 C362 1.327 . S
C360 H385 0.950 . S
C361 C360 1.349 . S
C361 C377 1.349 1_554 S
C362 C360 1.327 . S
C362 C381 1.429 1_554 S
C362 H386 0.950 . S
C363 C380 1.574 . S
C363 C382 1.368 . S
C363 H387 0.949 . S
H364 C368 0.949 . S
C365 C366 1.349 . S
C365 C367 1.327 . S
C365 H388 0.950 . S
C366 C365 1.349 . S
C366 C378 1.349 . S
C367 C365 1.327 . S
C367 C383 1.429 . S
C367 H389 0.950 . S
C368 H364 0.949 . S
C368 C376 1.574 . S
C368 C384 1.368 . S
H369 C377 0.950 . S
H370 C375 0.950 . S
H371 C376 0.949 1_554 S
H372 C378 0.950 . S
H373 C379 0.950 . S
H374 C380 0.949 . S
C375 H370 0.950 . S
C375 C377 1.327 . S
C375 C381 1.429 . S
C376 C368 1.574 . S
C376 H371 0.949 1_556 S
C376 C382 1.368 . S
C377 C361 1.349 1_556 S
C377 H369 0.950 . S
C377 C375 1.327 . S
C378 C366 1.349 . S
C378 H372 0.950 . S
C378 C379 1.327 . S
C379 H373 0.950 . S
C379 C378 1.327 . S
C379 C383 1.429 . S
C380 C363 1.574 . S
C380 H374 0.949 . S
C380 C384 1.368 . S
C381 C362 1.429 1_556 S
C381 C375 1.429 . S
C381 C382 1.523 . S
C382 C363 1.368 . S
C382 C376 1.368 . S
C382 C381 1.523 . S
C383 C367 1.429 . S
C383 C379 1.429 . S
C383 C384 1.523 . S
C384 C368 1.368 . S
C384 C380 1.368 . S
C384 C383 1.523 . S
H385 C360 0.950 . S
H386 C362 0.950 . S
H387 C363 0.949 . S
H388 C365 0.950 . S
H389 C367 0.950 . S
C390 C391 1.349 . S
C390 C392 1.327 . S
C390 H415 0.950 . S
C391 C390 1.349 . S
C391 C407 1.349 . S
C392 C390 1.327 . S
C392 C411 1.429 1_554 S
C392 H416 0.950 . S
C393 C410 1.574 . S
C393 C412 1.368 1_455 S
C393 H417 0.949 . S
H394 C398 0.949 . S
C395 C396 1.349 . S
C395 C397 1.327 . S
C395 H418 0.950 . S
C396 C395 1.349 . S
C396 C408 1.349 1_455 S
C397 C395 1.327 . S
C397 C413 1.429 1_455 S
C397 H419 0.950 . S
C398 H394 0.949 . S
C398 C406 1.574 . S
C398 C414 1.368 . S
H399 C407 0.950 1_455 S
H400 C405 0.950 1_455 S
H401 C406 0.949 . S
H402 C408 0.950 . S
H403 C409 0.950 . S
H404 C410 0.949 . S
C405 H400 0.950 1_655 S
C405 C407 1.327 1_556 S
C405 C411 1.429 . S
C406 C398 1.574 . S
C406 H401 0.949 . S
C406 C412 1.368 . S
C407 C391 1.349 . S
C407 H399 0.950 1_655 S
C407 C405 1.327 1_554 S
C408 C396 1.349 1_655 S
C408 H402 0.950 . S
C408 C409 1.327 . S
C409 H403 0.950 . S
C409 C408 1.327 . S
C409 C413 1.429 . S
C410 C393 1.574 . S
C410 H404 0.949 . S
C410 C414 1.368 1_455 S
C411 C392 1.429 1_556 S
C411 C405 1.429 . S
C411 C412 1.523 . S
C412 C393 1.368 1_655 S
C412 C406 1.368 . S
C412 C411 1.523 . S
C413 C397 1.429 1_655 S
C413 C409 1.429 . S
C413 C414 1.523 . S
C414 C398 1.368 . S
C414 C410 1.368 1_655 S
C414 C413 1.523 . S
H415 C390 0.950 . S
H416 C392 0.950 . S
H417 C393 0.949 . S
H418 C395 0.950 . S
H419 C397 0.950 . S
C420 C421 1.349 . S
C420 C422 1.327 . S
C420 H445 0.950 . S
C421 C420 1.349 . S
C421 C437 1.349 . S
C422 C420 1.327 . S
C422 C441 1.429 . S
C422 H446 0.950 . S
C423 C440 1.574 . S
C423 C442 1.368 . S
C423 H447 0.949 . S
H424 C428 0.949 . S
C425 C426 1.349 . S
C425 C427 1.327 . S
C425 H448 0.950 . S
C426 C425 1.349 . S
C426 C438 1.349 1_455 S
C427 C425 1.327 . S
C427 C443 1.429 . S
C427 H449 0.950 . S
C428 H424 0.949 . S
C428 C436 1.574 . S
C428 C444 1.368 . S
H429 C437 0.950 . S
H430 C435 0.950 . S
H431 C436 0.949 . S
H432 C438 0.950 . S
H433 C439 0.950 1_655 S
H434 C440 0.949 . S
C435 H430 0.950 . S
C435 C437 1.327 . S
C435 C441 1.429 . S
C436 C428 1.574 . S
C436 H431 0.949 . S
C436 C442 1.368 . S
C437 C421 1.349 . S
C437 H429 0.950 . S
C437 C435 1.327 . S
C438 C426 1.349 1_655 S
C438 H432 0.950 . S
C438 C439 1.327 1_655 S
C439 H433 0.950 1_455 S
C439 C438 1.327 1_455 S
C439 C443 1.429 . S
C440 C423 1.574 . S
C440 H434 0.949 . S
C440 C444 1.368 . S
C441 C422 1.429 . S
C441 C435 1.429 . S
C441 C442 1.523 . S
C442 C423 1.368 . S
C442 C436 1.368 . S
C442 C441 1.523 . S
C443 C427 1.429 . S
C443 C439 1.429 . S
C443 C444 1.523 . S
C444 C428 1.368 . S
C444 C440 1.368 . S
C444 C443 1.523 . S
H445 C420 0.950 . S
H446 C422 0.950 . S
H447 C423 0.949 . S
H448 C425 0.950 . S
H449 C427 0.950 . S
C450 C451 1.349 . S
C450 C452 1.327 . S
C450 H475 0.950 . S
C451 C450 1.349 . S
C451 C467 1.349 . S
C452 C450 1.327 . S
C452 C471 1.429 . S
C452 H476 0.950 . S
C453 C470 1.574 . S
C453 C472 1.368 . S
C453 H477 0.949 . S
H454 C458 0.949 . S
C455 C456 1.349 . S
C455 C457 1.327 . S
C455 H478 0.950 . S
C456 C455 1.349 . S
C456 C468 1.349 1_545 S
C457 C455 1.327 . S
C457 C473 1.429 . S
C457 H479 0.950 . S
C458 H454 0.949 . S
C458 C466 1.574 . S
C458 C474 1.368 . S
H459 C467 0.950 . S
H460 C465 0.950 . S
H461 C466 0.949 . S
H462 C468 0.950 . S
H463 C469 0.950 1_565 S
H464 C470 0.949 . S
C465 H460 0.950 . S
C465 C467 1.327 . S
C465 C471 1.429 . S
C466 C458 1.574 . S
C466 H461 0.949 . S
C466 C472 1.368 . S
C467 C451 1.349 . S
C467 H459 0.950 . S
C467 C465 1.327 . S
C468 C456 1.349 1_565 S
C468 H462 0.950 . S
C468 C469 1.327 1_565 S
C469 H463 0.950 1_545 S
C469 C468 1.327 1_545 S
C469 C473 1.429 . S
C470 C453 1.574 . S
C470 H464 0.949 . S
C470 C474 1.368 . S
C471 C452 1.429 . S
C471 C465 1.429 . S
C471 C472 1.523 . S
C472 C453 1.368 . S
C472 C466 1.368 . S
C472 C471 1.523 . S
C473 C457 1.429 . S
C473 C469 1.429 . S
C473 C474 1.523 . S
C474 C458 1.368 . S
C474 C470 1.368 . S
C474 C473 1.523 . S
H475 C450 0.950 . S
H476 C452 0.950 . S
H477 C453 0.949 . S
H478 C455 0.950 . S
H479 C457 0.950 . S
C480 C481 1.349 . S
C480 C482 1.327 . S
C480 H505 0.950 . S
C481 C480 1.349 . S
C481 C497 1.349 . S
C482 C480 1.327 . S
C482 C501 1.429 . S
C482 H506 0.950 . S
C483 C500 1.574 . S
C483 C502 1.368 . S
C483 H507 0.949 . S
H484 C488 0.949 . S
C485 C486 1.349 . S
C485 C487 1.327 . S
C485 H508 0.950 . S
C486 C485 1.349 . S
C486 C498 1.349 . S
C487 C485 1.327 . S
C487 C503 1.429 . S
C487 H509 0.950 . S
C488 H484 0.949 . S
C488 C496 1.574 . S
C488 C504 1.368 . S
H489 C497 0.950 . S
H490 C495 0.950 . S
H491 C496 0.949 . S
H492 C498 0.950 . S
H493 C499 0.950 . S
H494 C500 0.949 . S
C495 H490 0.950 . S
C495 C497 1.327 . S
C495 C501 1.429 . S
C496 C488 1.574 . S
C496 H491 0.949 . S
C496 C502 1.368 . S
C497 C481 1.349 . S
C497 H489 0.950 . S
C497 C495 1.327 . S
C498 C486 1.349 . S
C498 H492 0.950 . S
C498 C499 1.327 . S
C499 H493 0.950 . S
C499 C498 1.327 . S
C499 C503 1.429 . S
C500 C483 1.574 . S
C500 H494 0.949 . S
C500 C504 1.368 . S
C501 C482 1.429 . S
C501 C495 1.429 . S
C501 C502 1.523 . S
C502 C483 1.368 . S
C502 C496 1.368 . S
C502 C501 1.523 . S
C503 C487 1.429 . S
C503 C499 1.429 . S
C503 C504 1.523 . S
C504 C488 1.368 . S
C504 C500 1.368 . S
C504 C503 1.523 . S
H505 C480 0.950 . S
H506 C482 0.950 . S
H507 C483 0.949 . S
H508 C485 0.950 . S
H509 C487 0.950 . S
C510 C511 1.349 . S
C510 C512 1.327 . S
C510 H535 0.950 . S
C511 C510 1.349 . S
C511 C527 1.349 . S
C512 C510 1.327 . S
C512 C531 1.429 . S
C512 H536 0.950 . S
C513 C530 1.574 . S
C513 C532 1.368 . S
C513 H537 0.949 . S
H514 C518 0.949 . S
C515 C516 1.349 . S
C515 C517 1.327 . S
C515 H538 0.950 . S
C516 C515 1.349 . S
C516 C528 1.349 . S
C517 C515 1.327 . S
C517 C533 1.429 . S
C517 H539 0.950 . S
C518 H514 0.949 . S
C518 C526 1.574 . S
C518 C534 1.368 . S
H519 C527 0.950 . S
H520 C525 0.950 . S
H521 C526 0.949 . S
H522 C528 0.950 . S
H523 C529 0.950 . S
H524 C530 0.949 . S
C525 H520 0.950 . S
C525 C527 1.327 . S
C525 C531 1.429 . S
C526 C518 1.574 . S
C526 H521 0.949 . S
C526 C532 1.368 . S
C527 C511 1.349 . S
C527 H519 0.950 . S
C527 C525 1.327 . S
C528 C516 1.349 . S
C528 H522 0.950 . S
C528 C529 1.327 . S
C529 H523 0.950 . S
C529 C528 1.327 . S
C529 C533 1.429 . S
C530 C513 1.574 . S
C530 H524 0.949 . S
C530 C534 1.368 . S
C531 C512 1.429 . S
C531 C525 1.429 . S
C531 C532 1.523 . S
C532 C513 1.368 . S
C532 C526 1.368 . S
C532 C531 1.523 . S
C533 C517 1.429 . S
C533 C529 1.429 . S
C533 C534 1.523 . S
C534 C518 1.368 . S
C534 C530 1.368 . S
C534 C533 1.523 . S
H535 C510 0.950 . S
H536 C512 0.950 . S
H537 C513 0.949 . S
H538 C515 0.950 . S
H539 C517 0.950 . S
C540 C541 1.349 1_556 S
C540 C542 1.327 . S
C540 H565 0.950 . S
C541 C540 1.349 1_554 S
C541 C557 1.349 . S
C542 C540 1.327 . S
C542 C561 1.429 . S
C542 H566 0.950 . S
C543 C560 1.574 . S
C543 C562 1.368 1_455 S
C543 H567 0.949 1_556 S
H544 C548 0.949 . S
C545 C546 1.349 . S
C545 C547 1.327 . S
C545 H568 0.950 . S
C546 C545 1.349 . S
C546 C558 1.349 1_455 S
C547 C545 1.327 . S
C547 C563 1.429 . S
C547 H569 0.950 . S
C548 H544 0.949 . S
C548 C556 1.574 . S
C548 C564 1.368 . S
H549 C557 0.950 . S
H550 C555 0.950 1_455 S
H551 C556 0.949 . S
H552 C558 0.950 . S
H553 C559 0.950 . S
H554 C560 0.949 . S
C555 H550 0.950 1_655 S
C555 C557 1.327 . S
C555 C561 1.429 1_554 S
C556 C548 1.574 . S
C556 H551 0.949 . S
C556 C562 1.368 . S
C557 C541 1.349 . S
C557 H549 0.950 . S
C557 C555 1.327 . S
C558 C546 1.349 1_655 S
C558 H552 0.950 . S
C558 C559 1.327 . S
C559 H553 0.950 . S
C559 C558 1.327 . S
C559 C563 1.429 1_655 S
C560 C543 1.574 . S
C560 H554 0.949 . S
C560 C564 1.368 1_455 S
C561 C542 1.429 . S
C561 C555 1.429 1_556 S
C561 C562 1.523 . S
C562 C543 1.368 1_655 S
C562 C556 1.368 . S
C562 C561 1.523 . S
C563 C547 1.429 . S
C563 C559 1.429 1_455 S
C563 C564 1.523 1_455 S
C564 C548 1.368 . S
C564 C560 1.368 1_655 S
C564 C563 1.523 1_655 S
H565 C540 0.950 . S
H566 C542 0.950 . S
H567 C543 0.949 1_554 S
H568 C545 0.950 . S
H569 C547 0.950 . S
C570 C571 1.349 . S
C570 C572 1.327 . S
C570 H595 0.950 . S
C571 C570 1.349 . S
C571 C587 1.349 . S
C572 C570 1.327 . S
C572 C591 1.429 1_554 S
C572 H596 0.950 . S
C573 C590 1.574 . S
C573 C592 1.368 1_545 S
C573 H597 0.949 . S
H574 C578 0.949 . S
C575 C576 1.349 . S
C575 C577 1.327 . S
C575 H598 0.950 . S
C576 C575 1.349 . S
C576 C588 1.349 1_545 S
C577 C575 1.327 . S
C577 C593 1.429 . S
C577 H599 0.950 . S
C578 H574 0.949 . S
C578 C586 1.574 . S
C578 C594 1.368 . S
H579 C587 0.950 . S
H580 C585 0.950 1_545 S
H581 C586 0.949 . S
H582 C588 0.950 . S
H583 C589 0.950 . S
H584 C590 0.949 . S
C585 H580 0.950 1_565 S
C585 C587 1.327 1_556 S
C585 C591 1.429 . S
C586 C578 1.574 . S
C586 H581 0.949 . S
C586 C592 1.368 . S
C587 C571 1.349 . S
C587 H579 0.950 . S
C587 C585 1.327 1_554 S
C588 C576 1.349 1_565 S
C588 H582 0.950 . S
C588 C589 1.327 . S
C589 H583 0.950 . S
C589 C588 1.327 . S
C589 C593 1.429 1_565 S
C590 C573 1.574 . S
C590 H584 0.949 . S
C590 C594 1.368 1_545 S
C591 C572 1.429 1_556 S
C591 C585 1.429 . S
C591 C592 1.523 . S
C592 C573 1.368 1_565 S
C592 C586 1.368 . S
C592 C591 1.523 . S
C593 C577 1.429 . S
C593 C589 1.429 1_545 S
C593 C594 1.523 1_545 S
C594 C578 1.368 . S
C594 C590 1.368 1_565 S
C594 C593 1.523 1_565 S
H595 C570 0.950 . S
H596 C572 0.950 . S
H597 C573 0.949 . S
H598 C575 0.950 . S
H599 C577 0.950 . S
C600 C601 1.349 . S
C600 C602 1.327 . S
C600 H625 0.950 . S
C601 C600 1.349 . S
C601 C617 1.349 1_554 S
C602 C600 1.327 . S
C602 C621 1.429 1_554 S
C602 H626 0.950 . S
C603 C620 1.574 . S
C603 C622 1.368 . S
C603 H627 0.949 . S
H604 C608 0.949 . S
C605 C606 1.349 . S
C605 C607 1.327 . S
C605 H628 0.950 . S
C606 C605 1.349 . S
C606 C618 1.349 . S
C607 C605 1.327 . S
C607 C623 1.429 . S
C607 H629 0.950 . S
C608 H604 0.949 . S
C608 C616 1.574 . S
C608 C624 1.368 . S
H609 C617 0.950 . S
H610 C615 0.950 . S
H611 C616 0.949 1_554 S
H612 C618 0.950 . S
H613 C619 0.950 . S
H614 C620 0.949 . S
C615 H610 0.950 . S
C615 C617 1.327 . S
C615 C621 1.429 . S
C616 C608 1.574 . S
C616 H611 0.949 1_556 S
C616 C622 1.368 . S
C617 C601 1.349 1_556 S
C617 H609 0.950 . S
C617 C615 1.327 . S
C618 C606 1.349 . S
C618 H612 0.950 . S
C618 C619 1.327 . S
C619 H613 0.950 . S
C619 C618 1.327 . S
C619 C623 1.429 . S
C620 C603 1.574 . S
C620 H614 0.949 . S
C620 C624 1.368 . S
C621 C602 1.429 1_556 S
C621 C615 1.429 . S
C621 C622 1.523 . S
C622 C603 1.368 . S
C622 C616 1.368 . S
C622 C621 1.523 . S
C623 C607 1.429 . S
C623 C619 1.429 . S
C623 C624 1.523 . S
C624 C608 1.368 . S
C624 C620 1.368 . S
C624 C623 1.523 . S
H625 C600 0.950 . S
H626 C602 0.950 . S
H627 C603 0.949 . S
H628 C605 0.950 . S
H629 C607 0.950 . S
C630 C631 1.349 . S
C630 C632 1.327 1_554 S
C630 H655 0.950 . S
C631 C630 1.349 . S
C631 C647 1.349 . S
C632 C630 1.327 1_556 S
C632 C651 1.429 . S
C632 H656 0.950 . S
C633 C650 1.574 . S
C633 C652 1.368 . S
C633 H657 0.949 . S
H634 C638 0.949 . S
C635 C636 1.349 . S
C635 C637 1.327 . S
C635 H658 0.950 . S
C636 C635 1.349 . S
C636 C648 1.349 . S
C637 C635 1.327 . S
C637 C653 1.429 . S
C637 H659 0.950 . S
C638 H634 0.949 . S
C638 C646 1.574 . S
C638 C654 1.368 . S
H639 C647 0.950 . S
H640 C645 0.950 . S
H641 C646 0.949 . S
H642 C648 0.950 . S
H643 C649 0.950 . S
H644 C650 0.949 . S
C645 H640 0.950 . S
C645 C647 1.327 . S
C645 C651 1.429 1_554 S
C646 C638 1.574 . S
C646 H641 0.949 . S
C646 C652 1.368 . S
C647 C631 1.349 . S
C647 H639 0.950 . S
C647 C645 1.327 . S
C648 C636 1.349 . S
C648 H642 0.950 . S
C648 C649 1.327 . S
C649 H643 0.950 . S
C649 C648 1.327 . S
C649 C653 1.429 . S
C650 C633 1.574 . S
C650 H644 0.949 . S
C650 C654 1.368 . S
C651 C632 1.429 . S
C651 C645 1.429 1_556 S
C651 C652 1.523 . S
C652 C633 1.368 . S
C652 C646 1.368 . S
C652 C651 1.523 . S
C653 C637 1.429 . S
C653 C649 1.429 . S
C653 C654 1.523 . S
C654 C638 1.368 . S
C654 C650 1.368 . S
C654 C653 1.523 . S
H655 C630 0.950 . S
H656 C632 0.950 . S
H657 C633 0.949 . S
H658 C635 0.950 . S
H659 C637 0.950 . S
C660 C661 1.349 . S
C660 C662 1.327 . S
C660 H685 0.950 . S
C661 C660 1.349 . S
C661 C677 1.349 . S
C662 C660 1.327 . S
C662 C681 1.429 . S
C662 H686 0.950 . S
C663 C680 1.574 1_554 S
C663 C682 1.368 . S
C663 H687 0.949 . S
H664 C668 0.949 . S
C665 C666 1.349 . S
C665 C667 1.327 . S
C665 H688 0.950 . S
C666 C665 1.349 . S
C666 C678 1.349 . S
C667 C665 1.327 . S
C667 C683 1.429 . S
C667 H689 0.950 . S
C668 H664 0.949 . S
C668 C676 1.574 . S
C668 C684 1.368 1_554 S
H669 C677 0.950 . S
H670 C675 0.950 . S
H671 C676 0.949 . S
H672 C678 0.950 . S
H673 C679 0.950 1_554 S
H674 C680 0.949 . S
C675 H670 0.950 . S
C675 C677 1.327 . S
C675 C681 1.429 . S
C676 C668 1.574 . S
C676 H671 0.949 . S
C676 C682 1.368 . S
C677 C661 1.349 . S
C677 H669 0.950 . S
C677 C675 1.327 . S
C678 C666 1.349 . S
C678 H672 0.950 . S
C678 C679 1.327 . S
C679 H673 0.950 1_556 S
C679 C678 1.327 . S
C679 C683 1.429 . S
C680 C663 1.574 1_556 S
C680 H674 0.949 . S
C680 C684 1.368 . S
C681 C662 1.429 . S
C681 C675 1.429 . S
C681 C682 1.523 . S
C682 C663 1.368 . S
C682 C676 1.368 . S
C682 C681 1.523 . S
C683 C667 1.429 . S
C683 C679 1.429 . S
C683 C684 1.523 . S
C684 C668 1.368 1_556 S
C684 C680 1.368 . S
C684 C683 1.523 . S
H685 C660 0.950 . S
H686 C662 0.950 . S
H687 C663 0.949 . S
H688 C665 0.950 . S
H689 C667 0.950 . S
C690 C691 1.349 . S
C690 C692 1.327 . S
C690 H715 0.950 . S
C691 C690 1.349 . S
C691 C707 1.349 . S
C692 C690 1.327 . S
C692 C711 1.429 . S
C692 H716 0.950 . S
C693 C710 1.574 . S
C693 C712 1.368 . S
C693 H717 0.949 . S
H694 C698 0.949 . S
C695 C696 1.349 . S
C695 C697 1.327 . S
C695 H718 0.950 . S
C696 C695 1.349 . S
C696 C708 1.349 . S
C697 C695 1.327 . S
C697 C713 1.429 . S
C697 H719 0.950 . S
C698 H694 0.949 . S
C698 C706 1.574 1_556 S
C698 C714 1.368 . S
H699 C707 0.950 . S
H700 C705 0.950 . S
H701 C706 0.949 . S
H702 C708 0.985 . S
H703 C709 0.950 . S
H704 C710 0.949 . S
C705 H700 0.950 . S
C705 C707 1.327 . S
C705 C711 1.429 . S
C706 C698 1.574 1_554 S
C706 H701 0.949 . S
C706 C712 1.368 . S
C707 C691 1.349 . S
C707 H699 0.950 . S
C707 C705 1.327 . S
C708 C696 1.349 . S
C708 H702 0.985 . S
C708 C709 1.327 . S
C709 H703 0.950 . S
C709 C708 1.327 . S
C709 C713 1.429 . S
C710 C693 1.574 . S
C710 H704 0.949 . S
C710 C714 1.368 1_554 S
C711 C692 1.429 . S
C711 C705 1.429 . S
C711 C712 1.523 . S
C712 C693 1.368 . S
C712 C706 1.368 . S
C712 C711 1.523 . S
C713 C697 1.429 . S
C713 C709 1.429 . S
C713 C714 1.523 . S
C714 C698 1.368 . S
C714 C710 1.368 1_556 S
C714 C713 1.523 . S
H715 C690 0.950 . S
H716 C692 0.950 . S
H717 C693 0.949 . S
H718 C695 0.950 . S
H719 C697 0.950 . S
C720 C721 1.349 . S
C720 C722 1.327 . S
C720 H745 0.950 . S
C721 C720 1.349 . S
C721 C737 1.349 . S
C722 C720 1.327 . S
C722 C741 1.429 . S
C722 H746 0.950 . S
C723 C740 1.574 1_554 S
C723 C742 1.368 . S
C723 H747 0.951 . S
H724 C728 0.949 . S
C725 C726 1.349 . S
C725 C727 1.327 . S
C725 H748 0.950 . S
C726 C725 1.349 . S
C726 C738 1.349 . S
C727 C725 1.327 . S
C727 C743 1.429 . S
C727 H749 0.950 . S
C728 H724 0.949 . S
C728 C736 1.574 . S
C728 C744 1.368 1_554 S
H729 C737 0.950 . S
H730 C735 0.950 . S
H731 C736 0.949 . S
H732 C738 0.950 . S
H733 C739 0.950 1_554 S
H734 C740 0.949 . S
C735 H730 0.950 . S
C735 C737 1.327 . S
C735 C741 1.429 . S
C736 C728 1.574 . S
C736 H731 0.949 . S
C736 C742 1.368 . S
C737 C721 1.349 . S
C737 H729 0.950 . S
C737 C735 1.327 . S
C738 C726 1.349 . S
C738 H732 0.950 . S
C738 C739 1.327 . S
C739 H733 0.950 1_556 S
C739 C738 1.327 . S
C739 C743 1.429 . S
C740 C723 1.574 1_556 S
C740 H734 0.949 . S
C740 C744 1.368 . S
C741 C722 1.429 . S
C741 C735 1.429 . S
C741 C742 1.523 . S
C742 C723 1.368 . S
C742 C736 1.368 . S
C742 C741 1.523 . S
C743 C727 1.429 . S
C743 C739 1.429 . S
C743 C744 1.523 . S
C744 C728 1.368 1_556 S
C744 C740 1.368 . S
C744 C743 1.523 . S
H745 C720 0.950 . S
H746 C722 0.950 . S
H747 C723 0.951 . S
H748 C725 0.950 . S
H749 C727 0.950 . S
C750 C751 1.349 . S
C750 C752 1.327 . S
C750 H775 0.950 . S
C751 C750 1.349 . S
C751 C767 1.349 . S
C752 C750 1.327 . S
C752 C771 1.429 . S
C752 H776 0.950 . S
C753 C770 1.574 . S
C753 C772 1.368 . S
C753 H777 0.949 . S
H754 C758 0.949 . S
C755 C756 1.349 . S
C755 C757 1.327 . S
C755 H778 0.950 . S
C756 C755 1.349 . S
C756 C768 1.349 . S
C757 C755 1.327 . S
C757 C773 1.429 . S
C757 H779 0.950 . S
C758 H754 0.949 . S
C758 C766 1.574 1_556 S
C758 C774 1.368 . S
H759 C767 0.950 . S
H760 C765 0.950 . S
H761 C766 0.949 . S
H762 C768 0.950 . S
H763 C769 0.950 . S
H764 C770 0.949 . S
C765 H760 0.950 . S
C765 C767 1.327 . S
C765 C771 1.429 . S
C766 C758 1.574 1_554 S
C766 H761 0.949 . S
C766 C772 1.368 . S
C767 C751 1.349 . S
C767 H759 0.950 . S
C767 C765 1.327 . S
C768 C756 1.349 . S
C768 H762 0.950 . S
C768 C769 1.327 . S
C769 H763 0.950 . S
C769 C768 1.327 . S
C769 C773 1.429 . S
C770 C753 1.574 . S
C770 H764 0.949 . S
C770 C774 1.368 1_554 S
C771 C752 1.429 . S
C771 C765 1.429 . S
C771 C772 1.523 . S
C772 C753 1.368 . S
C772 C766 1.368 . S
C772 C771 1.523 . S
C773 C757 1.429 . S
C773 C769 1.429 . S
C773 C774 1.523 . S
C774 C758 1.368 . S
C774 C770 1.368 1_556 S
C774 C773 1.523 . S
H775 C750 0.950 . S
H776 C752 0.950 . S
H777 C753 0.949 . S
H778 C755 0.950 . S
H779 C757 0.950 . S
C780 C781 1.349 . S
C780 C782 1.327 . S
C780 H805 0.950 1_655 S
C781 C780 1.349 . S
C781 C797 1.349 . S
C782 C780 1.327 . S
C782 C801 1.429 . S
C782 H806 0.950 1_655 S
C783 C800 1.574 . S
C783 C802 1.368 . S
C783 H807 0.949 . S
H784 C788 0.949 . S
C785 C786 1.349 . S
C785 C787 1.327 . S
C785 H808 0.950 . S
C786 C785 1.349 . S
C786 C798 1.349 1_655 S
C787 C785 1.327 . S
C787 C803 1.429 . S
C787 H809 0.950 . S
C788 H784 0.949 . S
C788 C796 1.574 . S
C788 C804 1.368 1_455 S
H789 C797 0.950 . S
H790 C795 0.950 . S
H791 C796 0.950 . S
H792 C798 0.950 . S
H793 C799 0.950 . S
H794 C800 0.949 . S
C795 H790 0.950 . S
C795 C797 1.327 . S
C795 C801 1.429 . S
C796 C788 1.574 . S
C796 H791 0.950 . S
C796 C802 1.368 1_455 S
C797 C781 1.349 . S
C797 H789 0.950 . S
C797 C795 1.327 . S
C798 C786 1.349 1_455 S
C798 H792 0.950 . S
C798 C799 1.327 . S
C799 H793 0.950 . S
C799 C798 1.327 . S
C799 C803 1.429 1_455 S
C800 C783 1.574 . S
C800 H794 0.949 . S
C800 C804 1.368 . S
C801 C782 1.429 . S
C801 C795 1.429 . S
C801 C802 1.523 . S
C802 C783 1.368 . S
C802 C796 1.368 1_655 S
C802 C801 1.523 . S
C803 C787 1.429 . S
C803 C799 1.429 1_655 S
C803 C804 1.523 . S
C804 C788 1.368 1_655 S
C804 C800 1.368 . S
C804 C803 1.523 . S
H805 C780 0.950 1_455 S
H806 C782 0.950 1_455 S
H807 C783 0.949 . S
H808 C785 0.950 . S
H809 C787 0.950 . S
C810 C811 1.349 . S
C810 C812 1.327 . S
C810 H835 0.950 . S
C811 C810 1.349 . S
C811 C827 1.349 . S
C812 C810 1.327 . S
C812 C831 1.429 . S
C812 H836 0.950 . S
C813 C830 1.574 . S
C813 C832 1.368 . S
C813 H837 0.949 . S
H814 C818 0.949 1_545 S
C815 C816 1.349 . S
C815 C817 1.327 . S
C815 H838 0.950 . S
C816 C815 1.349 . S
C816 C828 1.349 1_565 S
C817 C815 1.327 . S
C817 C833 1.429 . S
C817 H839 0.950 . S
C818 H814 0.949 1_565 S
C818 C826 1.574 . S
C818 C834 1.368 . S
H819 C827 0.950 . S
H820 C825 0.950 . S
H821 C826 0.947 1_545 S
H822 C828 0.950 . S
H823 C829 0.950 . S
H824 C830 0.949 . S
C825 H820 0.950 . S
C825 C827 1.327 . S
C825 C831 1.429 . S
C826 C818 1.574 . S
C826 H821 0.947 1_565 S
C826 C832 1.368 . S
C827 C811 1.349 . S
C827 H819 0.950 . S
C827 C825 1.327 . S
C828 C816 1.349 1_545 S
C828 H822 0.950 . S
C828 C829 1.327 . S
C829 H823 0.950 . S
C829 C828 1.327 . S
C829 C833 1.429 1_545 S
C830 C813 1.574 . S
C830 H824 0.949 . S
C830 C834 1.368 . S
C831 C812 1.429 . S
C831 C825 1.429 . S
C831 C832 1.523 . S
C832 C813 1.368 . S
C832 C826 1.368 . S
C832 C831 1.523 . S
C833 C817 1.429 . S
C833 C829 1.429 1_565 S
C833 C834 1.523 . S
C834 C818 1.368 . S
C834 C830 1.368 . S
C834 C833 1.523 . S
H835 C810 0.950 . S
H836 C812 0.950 . S
H837 C813 0.949 . S
H838 C815 0.950 . S
H839 C817 0.950 . S
C840 C841 1.349 . S
C840 C842 1.327 . S
C840 H865 0.950 . S
C841 C840 1.349 . S
C841 C857 1.349 . S
C842 C840 1.327 . S
C842 C861 1.429 . S
C842 H866 0.950 . S
C843 C860 1.574 . S
C843 C862 1.368 . S
C843 H867 0.949 . S
H844 C848 0.949 . S
C845 C846 1.349 . S
C845 C847 1.327 . S
C845 H868 0.950 . S
C846 C845 1.349 . S
C846 C858 1.349 . S
C847 C845 1.327 . S
C847 C863 1.429 . S
C847 H869 0.950 . S
C848 H844 0.949 . S
C848 C856 1.574 . S
C848 C864 1.368 . S
H849 C857 0.950 . S
H850 C855 0.950 . S
H851 C856 0.949 . S
H852 C858 0.950 . S
H853 C859 0.950 . S
H854 C860 0.949 . S
C855 H850 0.950 . S
C855 C857 1.327 . S
C855 C861 1.429 . S
C856 C848 1.574 . S
C856 H851 0.949 . S
C856 C862 1.368 . S
C857 C841 1.349 . S
C857 H849 0.950 . S
C857 C855 1.327 . S
C858 C846 1.349 . S
C858 H852 0.950 . S
C858 C859 1.327 . S
C859 H853 0.950 . S
C859 C858 1.327 . S
C859 C863 1.429 . S
C860 C843 1.574 . S
C860 H854 0.949 . S
C860 C864 1.368 . S
C861 C842 1.429 . S
C861 C855 1.429 . S
C861 C862 1.523 . S
C862 C843 1.368 . S
C862 C856 1.368 . S
C862 C861 1.523 . S
C863 C847 1.429 . S
C863 C859 1.429 . S
C863 C864 1.523 . S
C864 C848 1.368 . S
C864 C860 1.368 . S
C864 C863 1.523 . S
H865 C840 0.950 . S
H866 C842 0.950 . S
H867 C843 0.949 . S
H868 C845 0.950 . S
H869 C847 0.950 . S
C870 C871 1.349 . S
C870 C872 1.327 . S
C870 H895 0.950 . S
C871 C870 1.349 . S
C871 C887 1.349 . S
C872 C870 1.327 . S
C872 C891 1.429 . S
C872 H896 0.950 . S
C873 C890 1.574 . S
C873 C892 1.368 . S
C873 H897 0.949 . S
H874 C878 0.949 . S
C875 C876 1.349 . S
C875 C877 1.327 . S
C875 H898 0.950 . S
C876 C875 1.349 . S
C876 C888 1.349 . S
C877 C875 1.327 . S
C877 C893 1.429 . S
C877 H899 0.950 . S
C878 H874 0.949 . S
C878 C886 1.574 . S
C878 C894 1.368 . S
H879 C887 0.950 . S
H880 C885 0.950 . S
H881 C886 0.949 . S
H882 C888 0.950 . S
H883 C889 0.950 . S
H884 C890 0.949 . S
C885 H880 0.950 . S
C885 C887 1.327 . S
C885 C891 1.429 . S
C886 C878 1.574 . S
C886 H881 0.949 . S
C886 C892 1.368 . S
C887 C871 1.349 . S
C887 H879 0.950 . S
C887 C885 1.327 . S
C888 C876 1.349 . S
C888 H882 0.950 . S
C888 C889 1.327 . S
C889 H883 0.950 . S
C889 C888 1.327 . S
C889 C893 1.429 . S
C890 C873 1.574 . S
C890 H884 0.949 . S
C890 C894 1.368 . S
C891 C872 1.429 . S
C891 C885 1.429 . S
C891 C892 1.523 . S
C892 C873 1.368 . S
C892 C886 1.368 . S
C892 C891 1.523 . S
C893 C877 1.429 . S
C893 C889 1.429 . S
C893 C894 1.523 . S
C894 C878 1.368 . S
C894 C890 1.368 . S
C894 C893 1.523 . S
H895 C870 0.950 . S
H896 C872 0.950 . S
H897 C873 0.949 . S
H898 C875 0.950 . S
H899 C877 0.950 . S
C181 C76 1.540 . S
C186 C111 1.399 . S
C216 C135 1.399 . S
C211 C88 1.540 . S
C246 C156 1.399 . S
C241 C52 1.540 . S
C276 C174 1.398 . S
C271 C64 1.540 . S
C306 C114 1.338 . S
C301 C28 1.485 . S
C331 C40 1.485 . S
C336 C132 1.338 . S
C361 C4 1.486 . S
C366 C153 1.339 . S
C391 C16 1.485 . S
C396 C177 1.338 . S
C426 C112 0.429 . S
C421 C69 0.434 . S
C456 C130 0.429 . S
C451 C81 0.434 . S
C486 C151 0.429 . S
C481 C93 0.434 . S
C511 C57 0.434 . S
C516 C175 0.429 . S
C541 C21 0.522 . S
C546 C110 0.496 . S
C576 C134 0.497 . S
C571 C33 0.523 . S
C606 C155 0.496 . S
C601 C45 0.522 . S
C631 C9 0.523 . S
C636 C173 0.497 . S
C661 C66 1.609 . S
C666 C113 1.561 . S
C691 C78 1.609 . S
C696 C131 1.561 . S
C726 C152 1.561 . S
C721 C90 1.609 . S
C756 C176 1.561 . S
C751 C54 1.609 . S
C781 C18 1.442 . S
C786 C109 1.408 1_655 S
C816 C133 1.408 1_565 S
C811 C30 1.442 . S
C846 C154 1.408 . S
C841 C42 1.442 . S
C871 C6 1.442 . S
C876 C172 1.408 . S
