# Generated by pormake.
# Topology rtl, (3,6)-cn, num edge types: 1
# Building blocks:
#     Node 0, Type 0, BuildingBlock: QEWDON_clean_linker_0, # of connection points: 3
#     Node 1, Type 0, BuildingBlock: QEWDON_clean_linker_0, # of connection points: 3
#     Node 2, Type 0, BuildingBlock: QEWDON_clean_linker_0, # of connection points: 3
#     Node 3, Type 0, BuildingBlock: QEWDON_clean_linker_0, # of connection points: 3
#     Node 4, Type 1, BuildingBlock: VOLQOD_clean_sbu_1, # of connection points: 6
#     Node 5, Type 1, BuildingBlock: VOLQOD_clean_sbu_1, # of connection points: 6
#     Edge 6, Type (0, 1), BuildingBlock: FUNLAD_clean_linker_0, # of connection points: 2
#     Edge 7, Type (0, 1), BuildingBlock: FUNLAD_clean_linker_0, # of connection points: 2
#     Edge 8, Type (0, 1), BuildingBlock: FUNLAD_clean_linker_0, # of connection points: 2
#     Edge 9, Type (0, 1), BuildingBlock: FUNLAD_clean_linker_0, # of connection points: 2
#     Edge 10, Type (0, 1), BuildingBlock: FUNLAD_clean_linker_0, # of connection points: 2
#     Edge 11, Type (0, 1), BuildingBlock: FUNLAD_clean_linker_0, # of connection points: 2
#     Edge 12, Type (0, 1), BuildingBlock: FUNLAD_clean_linker_0, # of connection points: 2
#     Edge 13, Type (0, 1), BuildingBlock: FUNLAD_clean_linker_0, # of connection points: 2
#     Edge 14, Type (0, 1), BuildingBlock: FUNLAD_clean_linker_0, # of connection points: 2
#     Edge 15, Type (0, 1), BuildingBlock: FUNLAD_clean_linker_0, # of connection points: 2
#     Edge 16, Type (0, 1), BuildingBlock: FUNLAD_clean_linker_0, # of connection points: 2
#     Edge 17, Type (0, 1), BuildingBlock: FUNLAD_clean_linker_0, # of connection points: 2
# Relax obj value: 0.048
# Max RMSD: 0.148
# Mean RMSD: 0.138
data_MOF--net-rtl--node1-VOLQOD_clean_sbu_1--node2-QEWDON_clean_linker_0--edge1-FUNLAD_clean_linker_0
_symmetry_space_group_name_H-M    P1
_symmetry_Int_Tables_number       1
_symmetry_cell_setting            triclinic
loop_
_symmetry_equiv_pos_as_xyz
'x, y, z'
_cell_length_a     45.623421
_cell_length_b     45.929045
_cell_length_c     25.059144
_cell_angle_alpha  91.454387
_cell_angle_beta   92.094427
_cell_angle_gamma 90.03998
loop_
_atom_site_label
_atom_site_type_symbol
_atom_site_fract_x
_atom_site_fract_y
_atom_site_fract_z
_atom_type_partial_charge
H0 H 0.24169 0.85177 0.08225 0.0
C1 C 0.22884 0.85524 0.04573 0.0
C2 C 0.1993 0.86373 0.04799 0.0
C3 C 0.24219 0.85223 -0.00373 0.0
H4 H 0.16124 0.87716 0.00172 0.0
C5 C 0.18342 0.86886 0.00011 0.0
C6 C 0.19635 0.86567 0.95038 0.0
C7 C 0.22592 0.85735 0.94879 0.0
C8 C 0.27398 0.84707 -0.00568 0.0
H9 H 0.23652 0.8554 0.91084 0.0
C10 C 0.28551 0.81872 -0.00447 0.0
C11 C 0.3159 0.81418 -0.0086 0.0
C12 C 0.29285 0.8709 0.98977 0.0
H13 H 0.28422 0.89287 0.98871 0.0
C14 C 0.32298 0.86657 0.98647 0.0
H15 H 0.27079 0.80032 -0.00173 0.0
C16 C 0.33447 0.83844 0.98716 0.0
H17 H 0.35797 0.83567 0.98472 0.0
H18 H 0.33746 0.88506 0.98316 0.0
H19 H 0.72374 0.71376 0.48104 0.0
C20 C 0.70999 0.70649 0.5125 0.0
C21 C 0.68097 0.6978 0.49997 0.0
C22 C 0.72167 0.70449 0.56506 0.0
H23 H 0.6414 0.68027 0.53054 0.0
C24 C 0.66363 0.6874 0.54045 0.0
C25 C 0.67514 0.68424 0.5926 0.0
C26 C 0.70403 0.69339 0.60485 0.0
C27 C 0.75295 0.71163 0.57775 0.0
H28 H 0.7132 0.69092 0.64498 0.0
C29 C 0.76571 0.73739 0.55972 0.0
C30 C 0.79545 0.74385 0.57206 0.0
C31 C 0.77032 0.69234 0.60795 0.0
H32 H 0.76126 0.67216 0.62164 0.0
C33 C 0.79971 0.69864 0.62025 0.0
H34 H 0.75252 0.75234 0.53627 0.0
C35 C 0.81221 0.72419 0.60261 0.0
H36 H 0.83497 0.72874 0.61354 0.0
H37 H 0.81285 0.68367 0.64366 0.0
H38 H 0.78055 0.19985 0.07084 0.0
C39 C 0.79182 0.19495 0.03435 0.0
C40 C 0.82102 0.18511 0.03685 0.0
C41 C 0.77665 0.1971 0.98481 0.0
H42 H 0.85696 0.16911 -0.00893 0.0
C43 C 0.83498 0.17805 0.98916 0.0
C44 C 0.82012 0.18012 0.93937 0.0
C45 C 0.79094 0.18983 0.93762 0.0
C46 C 0.74498 0.20385 0.98207 0.0
H47 H 0.77905 0.19134 0.89953 0.0
C48 C 0.73421 0.23074 0.00104 0.0
C49 C 0.70395 0.23697 -0.00352 0.0
C50 C 0.72537 0.18312 0.95912 0.0
H51 H 0.73327 0.16229 0.94437 0.0
C52 C 0.69544 0.18901 0.95519 0.0
H53 H 0.74934 0.24679 0.01863 0.0
C54 C 0.68477 0.21573 0.97353 0.0
H55 H 0.66149 0.21999 0.96863 0.0
H56 H 0.68048 0.17293 0.93735 0.0
H57 H 0.32178 0.29517 0.61395 0.0
C58 C 0.32632 0.30929 0.58121 0.0
C59 C 0.33419 0.33853 0.59165 0.0
C60 C 0.32564 0.29787 0.52868 0.0
H61 H 0.34722 0.37873 0.55679 0.0
C62 C 0.34071 0.3563 0.54884 0.0
C63 C 0.34062 0.34503 0.49626 0.0
C64 C 0.33285 0.31574 0.48647 0.0
C65 C 0.32058 0.2665 0.5182 0.0
H66 H 0.33351 0.30644 0.44633 0.0
C67 C 0.29256 0.25422 0.52242 0.0
C68 C 0.28779 0.22445 0.50987 0.0
C69 C 0.34397 0.2489 0.50233 0.0
H70 H 0.36568 0.25808 0.49885 0.0
C71 C 0.33955 0.21931 0.49111 0.0
H72 H 0.27442 0.26804 0.53365 0.0
C73 C 0.3117 0.20713 0.49475 0.0
H74 H 0.30892 0.18406 0.48593 0.0
H75 H 0.35774 0.20579 0.47929 0.0
O76 O 0.9427 0.98109 0.49066 0.0
Zn77 Zn 0.96233 0.0208 0.49107 0.0
O78 O 0.00508 0.01774 0.48735 0.0
Zn79 Zn 0.02396 0.0361 0.55134 0.0
Zn80 Zn 0.01586 0.97675 0.48424 0.0
Zn81 Zn 0.01833 0.0366 0.42296 0.0
O82 O 0.05287 0.06685 0.5311 0.0
O83 O 0.04847 0.06767 0.44262 0.0
O84 O 0.95135 0.04317 0.55766 0.0
O85 O 0.994 0.05521 0.59783 0.0
O86 O 0.04677 0.00683 0.59534 0.0
O87 O 0.04265 0.96623 0.54564 0.0
O88 O 0.03786 0.96706 0.41897 0.0
O89 O 0.94559 0.0432 0.42885 0.0
O90 O 0.03803 0.00772 0.37298 0.0
O91 O 0.98436 0.05563 0.38329 0.0
C92 C 0.95294 0.95532 0.48722 0.0
C93 C 0.06019 0.07707 0.4867 0.0
C94 C 0.05283 0.98008 0.58681 0.0
C95 C 0.96606 0.05591 0.59565 0.0
C96 C 0.04489 0.98101 0.37818 0.0
C97 C 0.9568 0.05614 0.39007 0.0
O98 O 0.98038 0.95083 0.48419 0.0
O99 O 0.56513 0.48317 0.05172 0.0
Zn100 Zn 0.5467 0.5233 0.0488 0.0
O101 O 0.50378 0.52194 0.05006 0.0
Zn102 Zn 0.48674 0.53852 0.98471 0.0
Zn103 Zn 0.49156 0.48142 0.0537 0.0
Zn104 Zn 0.49017 0.544 0.11269 0.0
O105 O 0.45905 0.57132 0.00211 0.0
O106 O 0.46136 0.57528 0.09061 0.0
O107 O 0.5597 0.5432 0.98318 0.0
O108 O 0.51828 0.55501 0.93976 0.0
O109 O 0.46344 0.5085 0.94073 0.0
O110 O 0.46545 0.46928 -0.00936 0.0
O111 O 0.46922 0.47501 0.11948 0.0
O112 O 0.56321 0.54769 0.11045 0.0
O113 O 0.46961 0.51762 0.16336 0.0
O114 O 0.52423 0.56415 0.15233 0.0
C115 C 0.55391 0.45791 0.05526 0.0
C116 C 0.45116 0.58353 0.04546 0.0
C117 C 0.45642 0.48215 0.94877 0.0
C118 C 0.5462 0.55516 0.94415 0.0
C119 C 0.46246 0.49077 0.15965 0.0
C120 C 0.55191 0.5632 0.14715 0.0
O121 O 0.52625 0.45444 0.05649 0.0
C122 C 0.24837 0.19134 0.47106 0.0
C123 C 0.25799 0.21139 0.51127 0.0
C124 C 0.22101 0.17789 0.47313 0.0
C125 C 0.20232 0.1844 0.51529 0.0
C126 C 0.21183 0.20463 0.55527 0.0
C127 C 0.23929 0.21812 0.55318 0.0
C128 C 0.17381 0.16907 0.52054 0.0
C129 C 0.15883 0.15629 0.47881 0.0
C130 C 0.132 0.13811 0.4834 0.0
C131 C 0.11554 0.13063 0.43656 0.0
C132 C 0.09178 0.11148 0.43781 0.0
C133 C 0.08387 0.09922 0.48607 0.0
H134 H 0.13601 0.13082 0.56892 0.0
C135 C 0.09983 0.10723 0.53325 0.0
C136 C 0.1237 0.12632 0.53198 0.0
H137 H 0.09446 0.0981 0.57112 0.0
H138 H 0.26211 0.18586 0.43793 0.0
H139 H 0.2151 0.16182 0.44231 0.0
H140 H 0.19807 0.20982 0.58853 0.0
H141 H 0.24617 0.23323 0.58509 0.0
H142 H 0.16502 0.16865 0.56015 0.0
H143 H 0.16648 0.15914 0.43877 0.0
H144 H 0.12143 0.13921 0.39851 0.0
H145 H 0.07998 0.10587 0.40068 0.0
C146 C 0.31989 0.76358 0.02731 0.0
C147 C 0.32849 0.78436 -0.00928 0.0
C148 C 0.33321 0.73611 0.02833 0.0
C149 C 0.35538 0.72892 -0.00738 0.0
C150 C 0.3631 0.74936 0.95486 0.0
C151 C 0.34995 0.77677 0.95406 0.0
C152 C 0.37107 0.70053 -0.00694 0.0
C153 C 0.37407 0.68384 0.03643 0.0
C154 C 0.39256 0.65713 0.03779 0.0
C155 C 0.40436 0.64798 0.08712 0.0
C156 C 0.42305 0.62389 0.08981 0.0
C157 C 0.43024 0.60824 0.04313 0.0
H158 H 0.3894 0.64639 0.9527 0.0
C159 C 0.41761 0.61678 -0.00606 0.0
C160 C 0.39889 0.64082 -0.00872 0.0
H161 H 0.42228 0.60498 0.95726 0.0
H162 H 0.30334 0.76878 0.05594 0.0
H163 H 0.32598 0.72066 0.05698 0.0
H164 H 0.3798 0.74432 0.9264 0.0
H165 H 0.35666 0.79211 0.92469 0.0
H166 H 0.38265 0.69453 0.95735 0.0
H167 H 0.36475 0.69115 0.07369 0.0
H168 H 0.39964 0.65991 0.12366 0.0
H169 H 0.4322 0.61784 0.12845 0.0
C170 C 0.83781 0.77062 0.53528 0.0
C171 C 0.80919 0.77113 0.55417 0.0
C172 C 0.85203 0.79639 0.52306 0.0
C173 C 0.83785 0.82347 0.52887 0.0
C174 C 0.80897 0.82391 0.54663 0.0
C175 C 0.79471 0.79802 0.55888 0.0
C176 C 0.85325 0.8516 0.52091 0.0
C177 C 0.87729 0.8539 0.49148 0.0
C178 C 0.89548 0.88072 0.48923 0.0
C179 C 0.92497 0.87763 0.47609 0.0
C180 C 0.94345 0.90182 0.4753 0.0
C181 C 0.93282 0.9299 0.48696 0.0
H182 H 0.86179 0.91232 0.50881 0.0
C183 C 0.90307 0.93321 0.49871 0.0
C184 C 0.88456 0.90887 0.49994 0.0
H185 H 0.89411 0.95456 0.50748 0.0
H186 H 0.8495 0.75023 0.53083 0.0
H187 H 0.87451 0.79485 0.51111 0.0
H188 H 0.79757 0.8444 0.55199 0.0
H189 H 0.77277 0.79919 0.57389 0.0
H190 H 0.84495 0.87069 0.54178 0.0
H191 H 0.88525 0.83484 0.4701 0.0
H192 H 0.93396 0.85628 0.46731 0.0
H193 H 0.96616 0.89842 0.46561 0.0
C194 C 0.66538 0.26757 0.03917 0.0
C195 C 0.69213 0.26581 0.01327 0.0
C196 C 0.65208 0.29445 0.0489 0.0
C197 C 0.66538 0.32048 0.0334 0.0
C198 C 0.69273 0.31874 0.00938 0.0
C199 C 0.70603 0.29175 -0.00044 0.0
C200 C 0.65048 0.34938 0.03739 0.0
C201 C 0.62663 0.35453 0.0665 0.0
C202 C 0.60909 0.38179 0.06409 0.0
C203 C 0.57926 0.38031 0.07557 0.0
C204 C 0.56147 0.40495 0.07249 0.0
C205 C 0.57317 0.43194 0.05862 0.0
H206 H 0.64408 0.41106 0.04311 0.0
C207 C 0.60323 0.43368 0.04831 0.0
C208 C 0.62102 0.40885 0.05086 0.0
H209 H 0.61298 0.45418 0.0379 0.0
H210 H 0.65425 0.24799 0.05073 0.0
H211 H 0.63085 0.29426 0.06656 0.0
H212 H 0.7035 0.3383 -0.00326 0.0
H213 H 0.72652 0.29114 0.97908 0.0
H214 H 0.65879 0.36658 0.0131 0.0
H215 H 0.61816 0.33756 0.09096 0.0
H216 H 0.5695 0.35983 0.08618 0.0
H217 H 0.5385 0.4028 0.08119 0.0
C218 C 0.1553 0.86397 0.10499 0.0
C219 C 0.18523 0.87022 0.09956 0.0
C220 C 0.14028 0.87526 0.1483 0.0
C221 C 0.15499 0.89258 0.18769 0.0
C222 C 0.18537 0.89668 0.18503 0.0
C223 C 0.20037 0.88585 0.14101 0.0
C224 C 0.13866 0.90734 0.2305 0.0
C225 C 0.11302 0.92088 0.21976 0.0
C226 C 0.09628 0.93652 0.26108 0.0
C227 C 0.0798 0.96119 0.24713 0.0
C228 C 0.0633 0.97599 0.28517 0.0
C229 C 0.0624 0.96586 0.33749 0.0
H230 H 0.1074 0.90713 0.32511 0.0
C231 C 0.0786 0.94091 0.35114 0.0
C232 C 0.09549 0.92648 0.31345 0.0
H233 H 0.07841 0.93257 0.39118 0.0
H234 H 0.14316 0.85128 0.07456 0.0
H235 H 0.117 0.87098 0.1504 0.0
H236 H 0.19718 0.90967 0.21545 0.0
H237 H 0.22337 0.89115 0.13808 0.0
H238 H 0.14891 0.90899 0.27029 0.0
H239 H 0.10465 0.92175 0.17863 0.0
H240 H 0.07988 0.96915 0.2068 0.0
H241 H 0.05095 0.99507 0.27345 0.0
C242 C 0.6581 0.67842 0.68641 0.0
C243 C 0.65768 0.66907 0.63252 0.0
C244 C 0.64163 0.66374 0.72343 0.0
C245 C 0.62445 0.63939 0.70714 0.0
C246 C 0.62392 0.63024 0.65338 0.0
C247 C 0.64054 0.64465 0.61664 0.0
C248 C 0.60623 0.62339 0.74451 0.0
C249 C 0.61329 0.62104 0.79681 0.0
C250 C 0.59566 0.60362 0.83314 0.0
C251 C 0.60965 0.59125 0.87785 0.0
C252 C 0.59373 0.57493 0.91315 0.0
C253 C 0.56331 0.57097 0.9049 0.0
H254 H 0.55349 0.60959 0.79159 0.0
C255 C 0.54925 0.5835 0.86023 0.0
C256 C 0.56522 0.59968 0.82476 0.0
H257 H 0.52581 0.58113 0.85292 0.0
H258 H 0.67077 0.69734 0.69982 0.0
H259 H 0.64196 0.67185 0.76437 0.0
H260 H 0.61089 0.61156 0.63981 0.0
H261 H 0.64018 0.63635 0.57579 0.0
H262 H 0.58746 0.61143 0.72732 0.0
H263 H 0.63364 0.63055 0.81298 0.0
H264 H 0.63302 0.59411 0.88542 0.0
H265 H 0.60526 0.56581 0.94737 0.0
C266 C 0.82222 0.16302 0.12745 0.0
C267 C 0.83632 0.17894 0.08866 0.0
C268 C 0.83809 0.1527 0.17191 0.0
C269 C 0.86845 0.15802 0.17829 0.0
C270 C 0.88197 0.17571 0.14148 0.0
C271 C 0.86615 0.18594 0.09703 0.0
C272 C 0.88709 0.14469 0.2211 0.0
C273 C 0.88009 0.11977 0.24502 0.0
C274 C 0.9003 0.10455 0.2829 0.0
C275 C 0.88843 0.08629 0.32066 0.0
C276 C 0.90672 0.07067 0.35553 0.0
C277 C 0.9374 0.07259 0.35285 0.0
H278 H 0.94105 0.11945 0.25028 0.0
C279 C 0.94932 0.09062 0.31459 0.0
C280 C 0.93101 0.10642 0.28 0.0
H281 H 0.97284 0.09253 0.31125 0.0
H282 H 0.79925 0.15728 0.12214 0.0
H283 H 0.82652 0.14015 0.20041 0.0
H284 H 0.90519 0.18059 0.14579 0.0
H285 H 0.87751 0.19853 0.06817 0.0
H286 H 0.9082 0.15485 0.2306 0.0
H287 H 0.85898 0.10952 0.23612 0.0
H288 H 0.86487 0.08415 0.32331 0.0
H289 H 0.89676 0.05692 0.38433 0.0
C290 C 0.3303 0.37833 0.66123 0.0
C291 C 0.33939 0.35005 0.64701 0.0
C292 C 0.34053 0.39167 0.70905 0.0
C293 C 0.36032 0.37704 0.7434 0.0
C294 C 0.36734 0.3479 0.73134 0.0
C295 C 0.35706 0.33453 0.6835 0.0
C296 C 0.37538 0.39193 0.79015 0.0
C297 C 0.38144 0.42072 0.79131 0.0
C298 C 0.40009 0.43593 0.83338 0.0
C299 C 0.41071 0.46387 0.82296 0.0
C300 C 0.42894 0.47887 0.86027 0.0
C301 C 0.43703 0.46628 0.90913 0.0
H302 H 0.39952 0.40246 0.89342 0.0
C303 C 0.42611 0.43849 0.92004 0.0
C304 C 0.40773 0.42353 0.8828 0.0
H305 H 0.4316 0.42828 0.9576 0.0
H306 H 0.3162 0.39057 0.63428 0.0
H307 H 0.3335 0.41368 0.71816 0.0
H308 H 0.38218 0.33597 0.75748 0.0
H309 H 0.36452 0.31274 0.67356 0.0
H310 H 0.38431 0.37818 0.82125 0.0
H311 H 0.37429 0.43364 0.75757 0.0
H312 H 0.40512 0.47409 0.78544 0.0
H313 H 0.43683 0.50028 0.85058 0.0
C314 C 0.6848 0.67879 0.40626 0.0
C315 C 0.66941 0.69522 0.44405 0.0
C316 C 0.6707 0.66911 0.35858 0.0
C317 C 0.64092 0.67569 0.34807 0.0
C318 C 0.62664 0.6947 0.38327 0.0
C319 C 0.64068 0.70424 0.43099 0.0
C320 C 0.62329 0.66125 0.30388 0.0
C321 C 0.62922 0.63421 0.28509 0.0
C322 C 0.60895 0.61722 0.24852 0.0
C323 C 0.6205 0.5952 0.21569 0.0
C324 C 0.60201 0.57765 0.18291 0.0
C325 C 0.57141 0.5814 0.18293 0.0
H326 H 0.56849 0.637 0.27489 0.0
C327 C 0.55978 0.6032 0.21634 0.0
C328 C 0.57832 0.62095 0.24876 0.0
H329 H 0.53632 0.60665 0.2174 0.0
H330 H 0.70699 0.67157 0.41527 0.0
H331 H 0.68283 0.65553 0.33127 0.0
H332 H 0.60389 0.70055 0.37572 0.0
H333 H 0.62845 0.71715 0.45929 0.0
H334 H 0.60328 0.67203 0.29041 0.0
H335 H 0.64919 0.62332 0.29834 0.0
H336 H 0.64397 0.59158 0.21534 0.0
H337 H 0.61173 0.56101 0.15781 0.0
C338 C 0.86435 0.17511 0.88292 0.0
C339 C 0.83442 0.1697 0.89003 0.0
C340 C 0.87851 0.16286 0.83923 0.0
C341 C 0.86299 0.14487 0.80168 0.0
C342 C 0.83282 0.14065 0.80735 0.0
C343 C 0.8187 0.15273 0.85121 0.0
C344 C 0.87753 0.12995 0.75652 0.0
C345 C 0.90578 0.12133 0.75944 0.0
C346 C 0.92044 0.10465 0.71627 0.0
C347 C 0.95122 0.10361 0.71747 0.0
C348 C 0.96604 0.08775 0.67854 0.0
C349 C 0.95038 0.07237 0.63749 0.0
H350 H 0.88104 0.08825 0.6738 0.0
C351 C 0.91955 0.07312 0.63653 0.0
C352 C 0.90473 0.08895 0.67551 0.0
H353 H 0.90677 0.06134 0.60575 0.0
H354 H 0.87694 0.18864 0.91143 0.0
H355 H 0.90154 0.16757 0.83506 0.0
H356 H 0.8203 0.1271 0.77872 0.0
H357 H 0.7957 0.14786 0.85562 0.0
H358 H 0.86393 0.12483 0.72113 0.0
H359 H 0.91897 0.12639 0.79543 0.0
H360 H 0.96392 0.11522 0.74861 0.0
H361 H 0.98979 0.08764 0.68063 0.0
C362 C 0.37588 0.38111 0.46123 0.0
C363 C 0.35104 0.36324 0.45257 0.0
C364 C 0.38644 0.39767 0.42015 0.0
C365 C 0.37232 0.39685 0.36928 0.0
C366 C 0.34759 0.37889 0.3605 0.0
C367 C 0.33697 0.36232 0.40173 0.0
C368 C 0.38409 0.41273 0.32376 0.0
C369 C 0.40138 0.4365 0.32985 0.0
C370 C 0.41565 0.4505 0.28467 0.0
C371 C 0.42468 0.4797 0.29023 0.0
C372 C 0.43959 0.49303 0.24953 0.0
C373 C 0.44605 0.47726 0.20262 0.0
H374 H 0.41648 0.41196 0.23247 0.0
C375 C 0.43703 0.44801 0.19718 0.0
C376 C 0.42211 0.43476 0.23769 0.0
H377 H 0.44176 0.4351 0.16177 0.0
H378 H 0.38775 0.38169 0.49948 0.0
H379 H 0.40622 0.41028 0.42813 0.0
H380 H 0.33649 0.37758 0.32154 0.0
H381 H 0.31774 0.34882 0.39384 0.0
H382 H 0.37796 0.40456 0.28386 0.0
H383 H 0.40512 0.44644 0.36929 0.0
H384 H 0.4203 0.49223 0.32628 0.0
H385 H 0.4463 0.51556 0.25512 0.0
C386 C 0.19181 0.89093 0.86257 0.0
C387 C 0.17922 0.87373 0.90136 0.0
C388 C 0.17433 0.90252 0.82127 0.0
C389 C 0.14393 0.8972 0.81826 0.0
C390 C 0.13165 0.87898 0.85549 0.0
C391 C 0.14913 0.86706 0.89617 0.0
C392 C 0.1241 0.91237 0.78004 0.0
C393 C 0.13195 0.91989 0.73113 0.0
C394 C 0.11157 0.93558 0.69471 0.0
C395 C 0.10971 0.92747 0.64044 0.0
C396 C 0.09024 0.94169 0.60561 0.0
C397 C 0.07294 0.96489 0.6242 0.0
H398 H 0.0958 0.96583 0.75503 0.0
C399 C 0.07538 0.97352 0.67832 0.0
C400 C 0.09433 0.9588 0.71343 0.0
H401 H 0.06239 0.9914 0.69362 0.0
H402 H 0.2148 0.89682 0.86577 0.0
H403 H 0.18438 0.91692 0.79367 0.0
H404 H 0.10831 0.87446 0.85383 0.0
H405 H 0.13884 0.85344 0.9248 0.0
H406 H 0.10185 0.91676 0.79215 0.0
H407 H 0.153 0.91303 0.71628 0.0
H408 H 0.12298 0.90979 0.62515 0.0
H409 H 0.08905 0.9348 0.56391 0.0
loop_
_geom_bond_atom_site_label_1
_geom_bond_atom_site_label_2
_geom_bond_distance
_geom_bond_site_symmetry_2
_ccdc_geom_bond_type
H0 C1 0.949 . S
C1 H0 0.949 . S
C1 C2 1.395 . S
C1 C3 1.391 . S
C2 C1 1.395 . S
C2 C5 1.390 . S
C3 C1 1.391 . S
C3 C7 1.387 1_554 S
C3 C8 1.491 . S
H4 C5 0.950 . S
C5 C2 1.390 . S
C5 H4 0.950 . S
C5 C6 1.378 1_554 S
C6 C5 1.378 1_556 S
C6 C7 1.409 . S
C7 C3 1.387 1_556 S
C7 C6 1.409 . S
C7 H9 0.951 . S
C8 C3 1.491 . S
C8 C10 1.382 . S
C8 C12 1.404 1_554 S
H9 C7 0.951 . S
C10 C8 1.382 . S
C10 C11 1.390 . S
C10 H15 0.949 . S
C11 C10 1.390 . S
C11 C16 1.399 1_554 S
C12 C8 1.404 1_556 S
C12 H13 0.950 . S
C12 C14 1.375 . S
H13 C12 0.950 . S
C14 C12 1.375 . S
C14 C16 1.382 . S
C14 H18 0.950 . S
H15 C10 0.949 . S
C16 C11 1.399 1_556 S
C16 C14 1.382 . S
C16 H17 0.952 . S
H17 C16 0.952 . S
H18 C14 0.950 . S
H19 C20 0.949 . S
C20 H19 0.949 . S
C20 C21 1.395 . S
C20 C22 1.391 . S
C21 C20 1.395 . S
C21 C24 1.390 . S
C22 C20 1.391 . S
C22 C26 1.387 . S
C22 C27 1.491 . S
H23 C24 0.950 . S
C24 C21 1.390 . S
C24 H23 0.950 . S
C24 C25 1.378 . S
C25 C24 1.378 . S
C25 C26 1.409 . S
C26 C22 1.387 . S
C26 C25 1.409 . S
C26 H28 0.951 . S
C27 C22 1.491 . S
C27 C29 1.382 . S
C27 C31 1.404 . S
H28 C26 0.951 . S
C29 C27 1.382 . S
C29 C30 1.390 . S
C29 H34 0.949 . S
C30 C29 1.390 . S
C30 C35 1.399 . S
C31 C27 1.404 . S
C31 H32 0.950 . S
C31 C33 1.375 . S
H32 C31 0.950 . S
C33 C31 1.375 . S
C33 C35 1.382 . S
C33 H37 0.950 . S
H34 C29 0.949 . S
C35 C30 1.399 . S
C35 C33 1.382 . S
C35 H36 0.952 . S
H36 C35 0.952 . S
H37 C33 0.950 . S
H38 C39 0.949 . S
C39 H38 0.949 . S
C39 C40 1.395 . S
C39 C41 1.391 . S
C40 C39 1.395 . S
C40 C43 1.390 . S
C41 C39 1.391 . S
C41 C45 1.387 1_554 S
C41 C46 1.491 1_554 S
H42 C43 0.950 . S
C43 C40 1.390 . S
C43 H42 0.950 . S
C43 C44 1.378 1_554 S
C44 C43 1.378 1_556 S
C44 C45 1.409 . S
C45 C41 1.387 1_556 S
C45 C44 1.409 . S
C45 H47 0.951 . S
C46 C41 1.491 1_556 S
C46 C48 1.382 1_556 S
C46 C50 1.404 . S
H47 C45 0.951 . S
C48 C46 1.382 1_554 S
C48 C49 1.390 . S
C48 H53 0.949 . S
C49 C48 1.390 . S
C49 C54 1.399 1_554 S
C50 C46 1.404 . S
C50 H51 0.950 . S
C50 C52 1.375 . S
H51 C50 0.950 . S
C52 C50 1.375 . S
C52 C54 1.382 . S
C52 H56 0.950 . S
H53 C48 0.949 . S
C54 C49 1.399 1_556 S
C54 C52 1.382 . S
C54 H55 0.952 . S
H55 C54 0.952 . S
H56 C52 0.950 . S
H57 C58 0.949 . S
C58 H57 0.949 . S
C58 C59 1.395 . S
C58 C60 1.391 . S
C59 C58 1.395 . S
C59 C62 1.390 . S
C60 C58 1.391 . S
C60 C64 1.387 . S
C60 C65 1.491 . S
H61 C62 0.950 . S
C62 C59 1.390 . S
C62 H61 0.950 . S
C62 C63 1.378 . S
C63 C62 1.378 . S
C63 C64 1.409 . S
C64 C60 1.387 . S
C64 C63 1.409 . S
C64 H66 0.951 . S
C65 C60 1.491 . S
C65 C67 1.382 . S
C65 C69 1.404 . S
H66 C64 0.951 . S
C67 C65 1.382 . S
C67 C68 1.390 . S
C67 H72 0.949 . S
C68 C67 1.390 . S
C68 C73 1.399 . S
C69 C65 1.404 . S
C69 H70 0.950 . S
C69 C71 1.375 . S
H70 C69 0.950 . S
C71 C69 1.375 . S
C71 C73 1.382 . S
C71 H75 0.950 . S
H72 C67 0.949 . S
C73 C68 1.399 . S
C73 C71 1.382 . S
C73 H74 0.952 . S
H74 C73 0.952 . S
H75 C71 0.950 . S
O76 Zn77 1.953 1_565 S
O76 C92 1.225 . S
Zn77 O76 1.953 1_545 S
Zn77 O78 1.949 1_655 S
Zn77 O84 1.919 . S
Zn77 O89 1.924 . S
O78 Zn77 1.949 1_455 S
O78 Zn79 1.923 . S
O78 Zn80 1.950 1_545 S
O78 Zn81 1.945 . S
Zn79 O78 1.923 . S
Zn79 O82 1.933 . S
Zn79 O85 1.941 . S
Zn79 O86 1.965 1_545 S
Zn80 O78 1.950 1_565 S
Zn80 O87 1.938 . S
Zn80 O88 1.906 . S
Zn80 O98 1.953 1_455 S
Zn81 O78 1.945 . S
Zn81 O83 1.932 . S
Zn81 O90 1.977 . S
Zn81 O91 1.910 1_455 S
O82 Zn79 1.933 . S
O82 C93 1.226 . S
O83 Zn81 1.932 . S
O83 C93 1.307 . S
O84 Zn77 1.919 . S
O84 C95 1.253 . S
O85 Zn79 1.941 . S
O85 C95 1.283 1_455 S
O86 Zn79 1.965 1_565 S
O86 C94 1.303 . S
O87 Zn80 1.938 . S
O87 C94 1.247 . S
O88 Zn80 1.906 . S
O88 C96 1.304 . S
O89 Zn77 1.924 . S
O89 C97 1.311 . S
O90 Zn81 1.977 . S
O90 C96 1.272 1_545 S
O91 Zn81 1.910 1_655 S
O91 C97 1.231 . S
C92 O76 1.225 . S
C92 O98 1.298 . S
C93 O82 1.226 . S
C93 O83 1.307 . S
C94 O86 1.303 . S
C94 O87 1.247 . S
C95 O84 1.253 . S
C95 O85 1.283 1_655 S
C96 O88 1.304 . S
C96 O90 1.272 1_565 S
C97 O89 1.311 . S
C97 O91 1.231 . S
O98 Zn80 1.953 1_655 S
O98 C92 1.298 . S
O99 Zn100 1.953 . S
O99 C115 1.225 . S
Zn100 O99 1.953 . S
Zn100 O101 1.949 . S
Zn100 O107 1.919 1_554 S
Zn100 O112 1.924 . S
O101 Zn100 1.949 . S
O101 Zn102 1.923 1_554 S
O101 Zn103 1.950 . S
O101 Zn104 1.945 . S
Zn102 O101 1.923 1_556 S
Zn102 O105 1.933 . S
Zn102 O108 1.941 . S
Zn102 O109 1.965 . S
Zn103 O101 1.950 . S
Zn103 O110 1.938 1_554 S
Zn103 O111 1.906 . S
Zn103 O121 1.953 . S
Zn104 O101 1.945 . S
Zn104 O106 1.932 . S
Zn104 O113 1.977 . S
Zn104 O114 1.910 . S
O105 Zn102 1.933 . S
O105 C116 1.226 1_556 S
O106 Zn104 1.932 . S
O106 C116 1.307 . S
O107 Zn100 1.919 1_556 S
O107 C118 1.253 . S
O108 Zn102 1.941 . S
O108 C118 1.283 . S
O109 Zn102 1.965 . S
O109 C117 1.303 . S
O110 Zn103 1.938 1_556 S
O110 C117 1.247 . S
O111 Zn103 1.906 . S
O111 C119 1.304 . S
O112 Zn100 1.924 . S
O112 C120 1.311 . S
O113 Zn104 1.977 . S
O113 C119 1.272 . S
O114 Zn104 1.910 . S
O114 C120 1.231 . S
C115 O99 1.225 . S
C115 O121 1.298 . S
C116 O105 1.226 1_554 S
C116 O106 1.307 . S
C117 O109 1.303 . S
C117 O110 1.247 . S
C118 O107 1.253 . S
C118 O108 1.283 . S
C119 O111 1.304 . S
C119 O113 1.272 . S
C120 O112 1.311 . S
C120 O114 1.231 . S
O121 Zn103 1.953 . S
O121 C115 1.298 . S
C122 C123 1.386 . S
C122 C124 1.383 . S
C122 H138 0.951 . S
C123 C122 1.386 . S
C123 C127 1.383 . S
C124 C122 1.383 . S
C124 C125 1.402 . S
C124 H139 0.951 . S
C125 C124 1.402 . S
C125 C126 1.375 . S
C125 C128 1.481 . S
C126 C125 1.375 . S
C126 C127 1.367 . S
C126 H140 0.951 . S
C127 C123 1.383 . S
C127 C126 1.367 . S
C127 H141 0.950 . S
C128 C125 1.481 . S
C128 C129 1.297 . S
C128 H142 0.950 . S
C129 C128 1.297 . S
C129 C130 1.479 . S
C129 H143 0.950 . S
C130 C129 1.479 . S
C130 C131 1.375 . S
C130 C136 1.404 . S
C131 C130 1.375 . S
C131 C132 1.369 . S
C131 H144 0.950 . S
C132 C131 1.369 . S
C132 C133 1.392 . S
C132 H145 0.951 . S
C133 C132 1.392 . S
C133 C135 1.384 . S
H134 C136 0.949 . S
C135 C133 1.384 . S
C135 C136 1.385 . S
C135 H137 0.950 . S
C136 C130 1.404 . S
C136 H134 0.949 . S
C136 C135 1.385 . S
H137 C135 0.950 . S
H138 C122 0.951 . S
H139 C124 0.951 . S
H140 C126 0.951 . S
H141 C127 0.950 . S
H142 C128 0.950 . S
H143 C129 0.950 . S
H144 C131 0.950 . S
H145 C132 0.951 . S
C146 C147 1.386 . S
C146 C148 1.383 . S
C146 H162 0.951 . S
C147 C146 1.386 . S
C147 C151 1.383 1_554 S
C148 C146 1.383 . S
C148 C149 1.402 . S
C148 H163 0.951 . S
C149 C148 1.402 . S
C149 C150 1.375 1_554 S
C149 C152 1.481 . S
C150 C149 1.375 1_556 S
C150 C151 1.367 . S
C150 H164 0.951 . S
C151 C147 1.383 1_556 S
C151 C150 1.367 . S
C151 H165 0.950 . S
C152 C149 1.481 . S
C152 C153 1.297 . S
C152 H166 0.950 1_554 S
C153 C152 1.297 . S
C153 C154 1.479 . S
C153 H167 0.950 . S
C154 C153 1.479 . S
C154 C155 1.375 . S
C154 C160 1.405 . S
C155 C154 1.375 . S
C155 C156 1.369 . S
C155 H168 0.950 . S
C156 C155 1.369 . S
C156 C157 1.392 . S
C156 H169 0.951 . S
C157 C156 1.392 . S
C157 C159 1.384 1_554 S
H158 C160 0.948 1_556 S
C159 C157 1.384 1_556 S
C159 C160 1.385 1_556 S
C159 H161 0.950 . S
C160 C154 1.405 . S
C160 H158 0.948 1_554 S
C160 C159 1.385 1_554 S
H161 C159 0.950 . S
H162 C146 0.951 . S
H163 C148 0.951 . S
H164 C150 0.951 . S
H165 C151 0.950 . S
H166 C152 0.950 1_556 S
H167 C153 0.950 . S
H168 C155 0.950 . S
H169 C156 0.951 . S
C170 C171 1.386 . S
C170 C172 1.383 . S
C170 H186 0.951 . S
C171 C170 1.386 . S
C171 C175 1.383 . S
C172 C170 1.383 . S
C172 C173 1.402 . S
C172 H187 0.951 . S
C173 C172 1.402 . S
C173 C174 1.375 . S
C173 C176 1.481 . S
C174 C173 1.375 . S
C174 C175 1.367 . S
C174 H188 0.951 . S
C175 C171 1.383 . S
C175 C174 1.367 . S
C175 H189 0.950 . S
C176 C173 1.481 . S
C176 C177 1.297 . S
C176 H190 0.950 . S
C177 C176 1.297 . S
C177 C178 1.479 . S
C177 H191 0.950 . S
C178 C177 1.479 . S
C178 C179 1.375 . S
C178 C184 1.404 . S
C179 C178 1.375 . S
C179 C180 1.369 . S
C179 H192 0.950 . S
C180 C179 1.369 . S
C180 C181 1.392 . S
C180 H193 0.951 . S
C181 C180 1.392 . S
C181 C183 1.384 . S
H182 C184 0.949 . S
C183 C181 1.384 . S
C183 C184 1.385 . S
C183 H185 0.950 . S
C184 C178 1.404 . S
C184 H182 0.949 . S
C184 C183 1.385 . S
H185 C183 0.950 . S
H186 C170 0.951 . S
H187 C172 0.951 . S
H188 C174 0.951 . S
H189 C175 0.950 . S
H190 C176 0.950 . S
H191 C177 0.950 . S
H192 C179 0.950 . S
H193 C180 0.951 . S
C194 C195 1.386 . S
C194 C196 1.383 . S
C194 H210 0.951 . S
C195 C194 1.386 . S
C195 C199 1.383 1_554 S
C196 C194 1.383 . S
C196 C197 1.402 . S
C196 H211 0.951 . S
C197 C196 1.402 . S
C197 C198 1.375 1_554 S
C197 C200 1.481 . S
C198 C197 1.375 1_556 S
C198 C199 1.367 . S
C198 H212 0.951 . S
C199 C195 1.383 1_556 S
C199 C198 1.367 . S
C199 H213 0.950 . S
C200 C197 1.481 . S
C200 C201 1.297 . S
C200 H214 0.950 1_554 S
C201 C200 1.297 . S
C201 C202 1.479 . S
C201 H215 0.950 . S
C202 C201 1.479 . S
C202 C203 1.375 . S
C202 C208 1.404 . S
C203 C202 1.375 . S
C203 C204 1.369 . S
C203 H216 0.950 . S
C204 C203 1.369 . S
C204 C205 1.392 . S
C204 H217 0.951 . S
C205 C204 1.392 . S
C205 C207 1.384 . S
H206 C208 0.949 1_556 S
C207 C205 1.384 . S
C207 C208 1.385 . S
C207 H209 0.950 1_554 S
C208 C202 1.404 . S
C208 H206 0.949 1_554 S
C208 C207 1.385 . S
H209 C207 0.950 1_556 S
H210 C194 0.951 . S
H211 C196 0.951 . S
H212 C198 0.951 . S
H213 C199 0.950 . S
H214 C200 0.950 1_556 S
H215 C201 0.950 . S
H216 C203 0.950 . S
H217 C204 0.951 . S
C218 C219 1.386 . S
C218 C220 1.383 . S
C218 H234 0.951 . S
C219 C218 1.386 . S
C219 C223 1.383 . S
C220 C218 1.383 . S
C220 C221 1.402 . S
C220 H235 0.951 . S
C221 C220 1.402 . S
C221 C222 1.375 . S
C221 C224 1.481 . S
C222 C221 1.375 . S
C222 C223 1.367 . S
C222 H236 0.951 . S
C223 C219 1.383 . S
C223 C222 1.367 . S
C223 H237 0.950 . S
C224 C221 1.481 . S
C224 C225 1.297 . S
C224 H238 0.950 . S
C225 C224 1.297 . S
C225 C226 1.479 . S
C225 H239 0.950 . S
C226 C225 1.479 . S
C226 C227 1.375 . S
C226 C232 1.404 . S
C227 C226 1.375 . S
C227 C228 1.369 . S
C227 H240 0.950 . S
C228 C227 1.369 . S
C228 C229 1.392 . S
C228 H241 0.951 . S
C229 C228 1.392 . S
C229 C231 1.384 . S
H230 C232 0.949 . S
C231 C229 1.384 . S
C231 C232 1.385 . S
C231 H233 0.950 . S
C232 C226 1.404 . S
C232 H230 0.949 . S
C232 C231 1.385 . S
H233 C231 0.950 . S
H234 C218 0.951 . S
H235 C220 0.951 . S
H236 C222 0.951 . S
H237 C223 0.950 . S
H238 C224 0.950 . S
H239 C225 0.950 . S
H240 C227 0.950 . S
H241 C228 0.951 . S
C242 C243 1.386 . S
C242 C244 1.383 . S
C242 H258 0.951 . S
C243 C242 1.386 . S
C243 C247 1.383 . S
C244 C242 1.383 . S
C244 C245 1.402 . S
C244 H259 0.951 . S
C245 C244 1.402 . S
C245 C246 1.375 . S
C245 C248 1.481 . S
C246 C245 1.375 . S
C246 C247 1.367 . S
C246 H260 0.951 . S
C247 C243 1.383 . S
C247 C246 1.367 . S
C247 H261 0.950 . S
C248 C245 1.481 . S
C248 C249 1.297 . S
C248 H262 0.950 . S
C249 C248 1.297 . S
C249 C250 1.479 . S
C249 H263 0.950 . S
C250 C249 1.479 . S
C250 C251 1.375 . S
C250 C256 1.404 . S
C251 C250 1.375 . S
C251 C252 1.369 . S
C251 H264 0.950 . S
C252 C251 1.369 . S
C252 C253 1.392 . S
C252 H265 0.951 . S
C253 C252 1.392 . S
C253 C255 1.384 . S
H254 C256 0.949 . S
C255 C253 1.384 . S
C255 C256 1.385 . S
C255 H257 0.950 . S
C256 C250 1.404 . S
C256 H254 0.949 . S
C256 C255 1.385 . S
H257 C255 0.950 . S
H258 C242 0.951 . S
H259 C244 0.951 . S
H260 C246 0.951 . S
H261 C247 0.950 . S
H262 C248 0.950 . S
H263 C249 0.950 . S
H264 C251 0.950 . S
H265 C252 0.951 . S
C266 C267 1.386 . S
C266 C268 1.383 . S
C266 H282 0.951 . S
C267 C266 1.386 . S
C267 C271 1.383 . S
C268 C266 1.383 . S
C268 C269 1.402 . S
C268 H283 0.951 . S
C269 C268 1.402 . S
C269 C270 1.375 . S
C269 C272 1.481 . S
C270 C269 1.375 . S
C270 C271 1.367 . S
C270 H284 0.951 . S
C271 C267 1.383 . S
C271 C270 1.367 . S
C271 H285 0.950 . S
C272 C269 1.481 . S
C272 C273 1.297 . S
C272 H286 0.950 . S
C273 C272 1.297 . S
C273 C274 1.479 . S
C273 H287 0.950 . S
C274 C273 1.479 . S
C274 C275 1.375 . S
C274 C280 1.404 . S
C275 C274 1.375 . S
C275 C276 1.369 . S
C275 H288 0.950 . S
C276 C275 1.369 . S
C276 C277 1.392 . S
C276 H289 0.951 . S
C277 C276 1.392 . S
C277 C279 1.384 . S
H278 C280 0.949 . S
C279 C277 1.384 . S
C279 C280 1.385 . S
C279 H281 0.950 . S
C280 C274 1.404 . S
C280 H278 0.949 . S
C280 C279 1.385 . S
H281 C279 0.950 . S
H282 C266 0.951 . S
H283 C268 0.951 . S
H284 C270 0.951 . S
H285 C271 0.950 . S
H286 C272 0.950 . S
H287 C273 0.950 . S
H288 C275 0.950 . S
H289 C276 0.951 . S
C290 C291 1.386 . S
C290 C292 1.383 . S
C290 H306 0.951 . S
C291 C290 1.386 . S
C291 C295 1.383 . S
C292 C290 1.383 . S
C292 C293 1.402 . S
C292 H307 0.951 . S
C293 C292 1.402 . S
C293 C294 1.375 . S
C293 C296 1.481 . S
C294 C293 1.375 . S
C294 C295 1.367 . S
C294 H308 0.951 . S
C295 C291 1.383 . S
C295 C294 1.367 . S
C295 H309 0.950 . S
C296 C293 1.481 . S
C296 C297 1.297 . S
C296 H310 0.950 . S
C297 C296 1.297 . S
C297 C298 1.479 . S
C297 H311 0.950 . S
C298 C297 1.479 . S
C298 C299 1.375 . S
C298 C304 1.404 . S
C299 C298 1.375 . S
C299 C300 1.369 . S
C299 H312 0.950 . S
C300 C299 1.369 . S
C300 C301 1.392 . S
C300 H313 0.951 . S
C301 C300 1.392 . S
C301 C303 1.384 . S
H302 C304 0.949 . S
C303 C301 1.384 . S
C303 C304 1.385 . S
C303 H305 0.950 . S
C304 C298 1.404 . S
C304 H302 0.949 . S
C304 C303 1.385 . S
H305 C303 0.950 . S
H306 C290 0.951 . S
H307 C292 0.951 . S
H308 C294 0.951 . S
H309 C295 0.950 . S
H310 C296 0.950 . S
H311 C297 0.950 . S
H312 C299 0.950 . S
H313 C300 0.951 . S
C314 C315 1.386 . S
C314 C316 1.383 . S
C314 H330 0.951 . S
C315 C314 1.386 . S
C315 C319 1.383 . S
C316 C314 1.383 . S
C316 C317 1.402 . S
C316 H331 0.951 . S
C317 C316 1.402 . S
C317 C318 1.375 . S
C317 C320 1.481 . S
C318 C317 1.375 . S
C318 C319 1.367 . S
C318 H332 0.951 . S
C319 C315 1.383 . S
C319 C318 1.367 . S
C319 H333 0.950 . S
C320 C317 1.481 . S
C320 C321 1.297 . S
C320 H334 0.950 . S
C321 C320 1.297 . S
C321 C322 1.479 . S
C321 H335 0.950 . S
C322 C321 1.479 . S
C322 C323 1.375 . S
C322 C328 1.404 . S
C323 C322 1.375 . S
C323 C324 1.369 . S
C323 H336 0.950 . S
C324 C323 1.369 . S
C324 C325 1.392 . S
C324 H337 0.951 . S
C325 C324 1.392 . S
C325 C327 1.384 . S
H326 C328 0.949 . S
C327 C325 1.384 . S
C327 C328 1.385 . S
C327 H329 0.950 . S
C328 C322 1.404 . S
C328 H326 0.949 . S
C328 C327 1.385 . S
H329 C327 0.950 . S
H330 C314 0.951 . S
H331 C316 0.951 . S
H332 C318 0.951 . S
H333 C319 0.950 . S
H334 C320 0.950 . S
H335 C321 0.950 . S
H336 C323 0.950 . S
H337 C324 0.951 . S
C338 C339 1.386 . S
C338 C340 1.383 . S
C338 H354 0.951 . S
C339 C338 1.386 . S
C339 C343 1.383 . S
C340 C338 1.383 . S
C340 C341 1.402 . S
C340 H355 0.951 . S
C341 C340 1.402 . S
C341 C342 1.375 . S
C341 C344 1.481 . S
C342 C341 1.375 . S
C342 C343 1.367 . S
C342 H356 0.951 . S
C343 C339 1.383 . S
C343 C342 1.367 . S
C343 H357 0.950 . S
C344 C341 1.481 . S
C344 C345 1.297 . S
C344 H358 0.950 . S
C345 C344 1.297 . S
C345 C346 1.479 . S
C345 H359 0.950 . S
C346 C345 1.479 . S
C346 C347 1.375 . S
C346 C352 1.404 . S
C347 C346 1.375 . S
C347 C348 1.369 . S
C347 H360 0.950 . S
C348 C347 1.369 . S
C348 C349 1.392 . S
C348 H361 0.951 . S
C349 C348 1.392 . S
C349 C351 1.384 . S
H350 C352 0.949 . S
C351 C349 1.384 . S
C351 C352 1.385 . S
C351 H353 0.950 . S
C352 C346 1.404 . S
C352 H350 0.949 . S
C352 C351 1.385 . S
H353 C351 0.950 . S
H354 C338 0.951 . S
H355 C340 0.951 . S
H356 C342 0.951 . S
H357 C343 0.950 . S
H358 C344 0.950 . S
H359 C345 0.950 . S
H360 C347 0.950 . S
H361 C348 0.951 . S
C362 C363 1.386 . S
C362 C364 1.383 . S
C362 H378 0.951 . S
C363 C362 1.386 . S
C363 C367 1.383 . S
C364 C362 1.383 . S
C364 C365 1.402 . S
C364 H379 0.951 . S
C365 C364 1.402 . S
C365 C366 1.375 . S
C365 C368 1.481 . S
C366 C365 1.375 . S
C366 C367 1.367 . S
C366 H380 0.951 . S
C367 C363 1.383 . S
C367 C366 1.367 . S
C367 H381 0.950 . S
C368 C365 1.481 . S
C368 C369 1.297 . S
C368 H382 0.950 . S
C369 C368 1.297 . S
C369 C370 1.479 . S
C369 H383 0.950 . S
C370 C369 1.479 . S
C370 C371 1.375 . S
C370 C376 1.404 . S
C371 C370 1.375 . S
C371 C372 1.369 . S
C371 H384 0.950 . S
C372 C371 1.369 . S
C372 C373 1.392 . S
C372 H385 0.951 . S
C373 C372 1.392 . S
C373 C375 1.384 . S
H374 C376 0.949 . S
C375 C373 1.384 . S
C375 C376 1.385 . S
C375 H377 0.950 . S
C376 C370 1.404 . S
C376 H374 0.949 . S
C376 C375 1.385 . S
H377 C375 0.950 . S
H378 C362 0.951 . S
H379 C364 0.951 . S
H380 C366 0.951 . S
H381 C367 0.950 . S
H382 C368 0.950 . S
H383 C369 0.950 . S
H384 C371 0.950 . S
H385 C372 0.951 . S
C386 C387 1.386 . S
C386 C388 1.383 . S
C386 H402 0.951 . S
C387 C386 1.386 . S
C387 C391 1.383 . S
C388 C386 1.383 . S
C388 C389 1.402 . S
C388 H403 0.951 . S
C389 C388 1.402 . S
C389 C390 1.375 . S
C389 C392 1.481 . S
C390 C389 1.375 . S
C390 C391 1.367 . S
C390 H404 0.951 . S
C391 C387 1.383 . S
C391 C390 1.367 . S
C391 H405 0.950 . S
C392 C389 1.481 . S
C392 C393 1.297 . S
C392 H406 0.950 . S
C393 C392 1.297 . S
C393 C394 1.479 . S
C393 H407 0.950 . S
C394 C393 1.479 . S
C394 C395 1.375 . S
C394 C400 1.404 . S
C395 C394 1.375 . S
C395 C396 1.369 . S
C395 H408 0.950 . S
C396 C395 1.369 . S
C396 C397 1.392 . S
C396 H409 0.951 . S
C397 C396 1.392 . S
C397 C399 1.384 . S
H398 C400 0.949 . S
C399 C397 1.384 . S
C399 C400 1.385 . S
C399 H401 0.950 . S
C400 C394 1.404 . S
C400 H398 0.949 . S
C400 C399 1.385 . S
H401 C399 0.950 . S
H402 C386 0.951 . S
H403 C388 0.951 . S
H404 C390 0.951 . S
H405 C391 0.950 . S
H406 C392 0.950 . S
H407 C393 0.950 . S
H408 C395 0.950 . S
H409 C396 0.951 . S
C133 C93 1.516 . S
C123 C68 1.437 . S
C147 C11 1.404 . S
C157 C116 1.519 . S
C171 C30 1.473 . S
C181 C92 1.561 . S
C195 C49 1.447 . S
C205 C115 1.556 . S
C229 C96 1.478 . S
C219 C2 1.541 . S
C253 C118 1.576 . S
C243 C25 1.585 . S
C267 C40 1.519 . S
C277 C97 1.550 . S
C291 C59 1.570 . S
C301 C117 1.466 . S
C325 C120 1.448 . S
C315 C21 1.399 . S
C349 C95 1.425 . S
C339 C44 1.483 . S
C373 C119 1.371 . S
C363 C63 1.457 . S
C387 C6 1.463 . S
C397 C94 1.436 . S
