# Generated by pormake.
# Topology rtl, (3,6)-cn, num edge types: 1
# Building blocks:
#     Node 0, Type 0, BuildingBlock: INOVEN_clean_linker_0, # of connection points: 3
#     Node 1, Type 0, BuildingBlock: INOVEN_clean_linker_0, # of connection points: 3
#     Node 2, Type 0, BuildingBlock: INOVEN_clean_linker_0, # of connection points: 3
#     Node 3, Type 0, BuildingBlock: INOVEN_clean_linker_0, # of connection points: 3
#     Node 4, Type 1, BuildingBlock: LEVNOQ01_clean_sbu_1, # of connection points: 6
#     Node 5, Type 1, BuildingBlock: LEVNOQ01_clean_sbu_1, # of connection points: 6
#     Edge 6, Type (0, 1), BuildingBlock: KIFKEQ_clean_linker_1, # of connection points: 2
#     Edge 7, Type (0, 1), BuildingBlock: KIFKEQ_clean_linker_1, # of connection points: 2
#     Edge 8, Type (0, 1), BuildingBlock: KIFKEQ_clean_linker_1, # of connection points: 2
#     Edge 9, Type (0, 1), BuildingBlock: KIFKEQ_clean_linker_1, # of connection points: 2
#     Edge 10, Type (0, 1), BuildingBlock: KIFKEQ_clean_linker_1, # of connection points: 2
#     Edge 11, Type (0, 1), BuildingBlock: KIFKEQ_clean_linker_1, # of connection points: 2
#     Edge 12, Type (0, 1), BuildingBlock: KIFKEQ_clean_linker_1, # of connection points: 2
#     Edge 13, Type (0, 1), BuildingBlock: KIFKEQ_clean_linker_1, # of connection points: 2
#     Edge 14, Type (0, 1), BuildingBlock: KIFKEQ_clean_linker_1, # of connection points: 2
#     Edge 15, Type (0, 1), BuildingBlock: KIFKEQ_clean_linker_1, # of connection points: 2
#     Edge 16, Type (0, 1), BuildingBlock: KIFKEQ_clean_linker_1, # of connection points: 2
#     Edge 17, Type (0, 1), BuildingBlock: KIFKEQ_clean_linker_1, # of connection points: 2
# Relax obj value: 0.015
# Max RMSD: 0.114
# Mean RMSD: 0.083
data_MOF--net-rtl--node1-LEVNOQ01_clean_sbu_1--node2-INOVEN_clean_linker_0--edge1-KIFKEQ_clean_linker_1
_symmetry_space_group_name_H-M    P1
_symmetry_Int_Tables_number       1
_symmetry_cell_setting            triclinic
loop_
_symmetry_equiv_pos_as_xyz
'x, y, z'
_cell_length_a     35.57454
_cell_length_b     36.162952
_cell_length_c     22.676716
_cell_angle_alpha  91.410703
_cell_angle_beta   99.839053
_cell_angle_gamma 90.106057
loop_
_atom_site_label
_atom_site_type_symbol
_atom_site_fract_x
_atom_site_fract_y
_atom_site_fract_z
_atom_type_partial_charge
H0 H 0.2314 0.82437 0.97744 0.0
H1 H 0.14129 0.88297 0.04291 0.0
H2 H 0.22611 0.82599 0.16565 0.0
N3 N 0.26425 0.7982 0.08076 0.0
N4 N 0.27391 0.78111 0.12808 0.0
C5 C 0.2178 0.83368 0.01441 0.0
C6 C 0.18436 0.85477 0.00327 0.0
C7 C 0.23272 0.82274 0.0726 0.0
C8 C 0.21486 0.83448 0.12062 0.0
C9 C 0.18183 0.85632 0.11034 0.0
C10 C 0.16666 0.86604 0.0514 0.0
H11 H 0.68477 0.73927 0.70642 0.0
H12 H 0.60302 0.68388 0.57063 0.0
H13 H 0.69479 0.74669 0.52072 0.0
N14 N 0.72612 0.76878 0.63281 0.0
N15 N 0.75133 0.7705 0.60088 0.0
C16 C 0.67408 0.73247 0.65974 0.0
C17 C 0.64151 0.7099 0.64389 0.0
C18 C 0.69347 0.74575 0.61568 0.0
C19 C 0.67997 0.73649 0.55507 0.0
C20 C 0.64688 0.7148 0.53844 0.0
C21 C 0.62769 0.70184 0.58309 0.0
H22 H 0.81129 0.22134 0.87513 0.0
H23 H 0.88749 0.15888 0.00246 0.0
H24 H 0.80339 0.22944 0.06218 0.0
N25 N 0.77359 0.25379 0.95232 0.0
N26 N 0.75006 0.26016 0.98622 0.0
C27 C 0.82119 0.21324 0.92084 0.0
C28 C 0.8517 0.18855 0.93359 0.0
C29 C 0.80343 0.22779 0.96682 0.0
C30 C 0.81656 0.21762 0.02644 0.0
C31 C 0.84748 0.19321 0.04012 0.0
C32 C 0.86462 0.17877 0.99311 0.0
H33 H 0.33243 0.30855 0.40604 0.0
H34 H 0.41295 0.36375 0.54425 0.0
H35 H 0.32828 0.29063 0.59136 0.0
N36 N 0.29512 0.27298 0.47793 0.0
N37 N 0.28858 0.2466 0.50919 0.0
C38 C 0.34364 0.31442 0.45282 0.0
C39 C 0.37545 0.33799 0.46927 0.0
C40 C 0.32686 0.29694 0.49639 0.0
C41 C 0.34148 0.30365 0.55743 0.0
C42 C 0.3728 0.32753 0.57476 0.0
C43 C 0.38955 0.34448 0.53055 0.0
O44 O 0.02542 0.05272 0.65526 0.0
Mg45 Mg 0.06076 0.0384 0.59181 0.0
O46 O 0.97617 0.04919 0.58285 0.0
Mg47 Mg 0.00528 0.01297 0.51718 0.0
O48 O 0.05341 0.05864 0.50705 0.0
O49 O 0.09346 0.08279 0.58663 0.0
O50 O 0.03582 0.97679 0.45109 0.0
O51 O 0.97064 0.04871 0.43927 0.0
Mg52 Mg 0.95018 0.96727 0.43372 0.0
O53 O 0.95628 0.97009 0.52513 0.0
O54 O 0.99315 0.93868 0.39985 0.0
O55 O 0.9256 0.01296 0.38833 0.0
O56 O 0.91249 0.93498 0.46511 0.0
C57 C 0.07193 0.96882 0.61682 0.0
C58 C 0.99039 0.0582 0.63663 0.0
C59 C 0.08004 0.08221 0.5302 0.0
C60 C 0.02721 0.95012 0.4131 0.0
C61 C 0.94149 0.0443 0.39795 0.0
C62 C 0.92817 0.94627 0.51802 0.0
O63 O 0.09611 0.99228 0.6071 0.0
O64 O 0.03676 0.97448 0.59609 0.0
O65 O 0.5975 0.55432 0.16293 0.0
Mg66 Mg 0.5824 0.49937 0.14013 0.0
O67 O 0.53779 0.56699 0.12599 0.0
Mg68 Mg 0.51295 0.51996 0.05493 0.0
O69 O 0.56895 0.48591 0.05101 0.0
O70 O 0.62387 0.47046 0.10964 0.0
O71 O 0.4891 0.47233 0.98337 0.0
O72 O 0.53038 0.55619 0.98102 0.0
Mg73 Mg 0.44426 0.53384 0.97391 0.0
O74 O 0.45759 0.55521 0.05921 0.0
O75 O 0.42713 0.47844 0.96368 0.0
O76 O 0.47733 0.55796 0.91424 0.0
O77 O 0.40256 0.566 0.99712 0.0
C78 C 0.5117 0.46777 0.17554 0.0
C79 C 0.56987 0.57646 0.1572 0.0
C80 C 0.60174 0.46907 0.05824 0.0
C81 C 0.45626 0.45929 0.96079 0.0
C82 C 0.51246 0.56594 0.93022 0.0
C83 C 0.4244 0.57119 0.04822 0.0
O84 O 0.5477 0.46983 0.19045 0.0
O85 O 0.49458 0.48385 0.12909 0.0
H86 H 0.28255 0.1788 0.54705 0.0
H87 H 0.22147 0.26181 0.43626 0.0
H88 H 0.22639 0.13823 0.5275 0.0
H89 H 0.16453 0.22166 0.41804 0.0
H90 H 0.07409 0.15656 0.52458 0.0
H91 H 0.12346 0.19779 0.49995 0.0
H92 H 0.18111 0.10386 0.4364 0.0
H93 H 0.13105 0.0628 0.4597 0.0
C94 C 0.25715 0.18799 0.51784 0.0
C95 C 0.25632 0.22303 0.49295 0.0
C96 C 0.22518 0.16482 0.50627 0.0
C97 C 0.1913 0.17668 0.47065 0.0
C98 C 0.19045 0.21176 0.44509 0.0
C99 C 0.22293 0.23464 0.45551 0.0
C100 C 0.09608 0.14511 0.50197 0.0
C101 C 0.09862 0.10671 0.49314 0.0
C102 C 0.12446 0.16863 0.48823 0.0
C103 C 0.15624 0.1539 0.46689 0.0
C104 C 0.15687 0.11584 0.45286 0.0
C105 C 0.12807 0.09242 0.46553 0.0
H106 H 0.3295 0.77363 0.05973 0.0
H107 H 0.28645 0.72973 0.21044 0.0
H108 H 0.3749 0.72275 0.06351 0.0
H109 H 0.33154 0.67809 0.21363 0.0
H110 H 0.46228 0.63373 0.09345 0.0
H111 H 0.43241 0.68892 0.13025 0.0
H112 H 0.32873 0.62653 0.12927 0.0
H113 H 0.35811 0.57212 0.09085 0.0
C114 C 0.33025 0.75341 0.09434 0.0
C115 C 0.30418 0.75513 0.13449 0.0
C116 C 0.35647 0.72448 0.09689 0.0
C117 C 0.35671 0.69649 0.1389 0.0
C118 C 0.33197 0.69934 0.18092 0.0
C119 C 0.30626 0.72872 0.1791 0.0
C120 C 0.43372 0.63154 0.10372 0.0
C121 C 0.41242 0.59883 0.08971 0.0
C122 C 0.41655 0.66311 0.12419 0.0
C123 C 0.37821 0.66199 0.1322 0.0
C124 C 0.35839 0.62812 0.124 0.0
C125 C 0.37519 0.59696 0.10216 0.0
H126 H 0.75933 0.83146 0.67553 0.0
H127 H 0.81404 0.76564 0.55406 0.0
H128 H 0.81062 0.87779 0.68349 0.0
H129 H 0.86542 0.81129 0.56227 0.0
H130 H 0.95807 0.88872 0.58357 0.0
H131 H 0.91968 0.84444 0.62804 0.0
H132 H 0.82526 0.92059 0.60347 0.0
H133 H 0.86372 0.96448 0.55909 0.0
C134 C 0.78289 0.82645 0.65188 0.0
C135 C 0.78302 0.79504 0.614 0.0
C136 C 0.81217 0.85294 0.65638 0.0
C137 C 0.84223 0.84811 0.62387 0.0
C138 C 0.84315 0.81558 0.58884 0.0
C139 C 0.81368 0.78956 0.58366 0.0
C140 C 0.92992 0.89679 0.59115 0.0
C141 C 0.91383 0.93 0.56851 0.0
C142 C 0.90775 0.87128 0.61582 0.0
C143 C 0.86921 0.87875 0.61816 0.0
C144 C 0.85486 0.91404 0.60259 0.0
C145 C 0.87695 0.93935 0.57748 0.0
H146 H 0.7459 0.31505 0.90499 0.0
H147 H 0.69063 0.26822 0.04112 0.0
H148 H 0.70122 0.36692 0.89656 0.0
H149 H 0.64563 0.31968 0.03242 0.0
H150 H 0.56282 0.40921 0.00438 0.0
H151 H 0.59311 0.35501 0.96572 0.0
H152 H 0.69756 0.41755 0.97497 0.0
H153 H 0.66754 0.47101 0.01448 0.0
C154 C 0.72359 0.3154 0.93202 0.0
C155 C 0.7216 0.28777 0.97408 0.0
C156 C 0.69803 0.34504 0.92715 0.0
C157 C 0.66978 0.34729 0.96356 0.0
C158 C 0.6666 0.31846 0.00298 0.0
C159 C 0.69247 0.28919 0.00842 0.0
C160 C 0.59157 0.41182 0.99504 0.0
C161 C 0.61294 0.44414 0.0122 0.0
C162 C 0.60905 0.38072 0.97365 0.0
C163 C 0.64788 0.38189 0.96821 0.0
C164 C 0.66761 0.41577 0.97835 0.0
C165 C 0.65039 0.44649 1.00076 0.0
H166 H 0.21377 0.88477 0.22111 0.0
H167 H 0.10561 0.85463 0.11278 0.0
H168 H 0.1806 0.90533 0.30237 0.0
H169 H 0.07266 0.87594 0.19255 0.0
H170 H 0.02388 0.8823 0.35883 0.0
H171 H 0.06476 0.85767 0.29206 0.0
H172 H 0.13605 0.95535 0.32506 0.0
H173 H 0.09519 0.9799 0.39356 0.0
C174 C 0.18298 0.88239 0.2148 0.0
C175 C 0.16228 0.86815 0.16051 0.0
C176 C 0.16401 0.89444 0.26106 0.0
C177 C 0.12404 0.89208 0.25407 0.0
C178 C 0.10352 0.87763 0.19984 0.0
C179 C 0.12237 0.8658 0.15377 0.0
C180 C 0.04855 0.8984 0.35257 0.0
C181 C 0.05598 0.93332 0.38074 0.0
C182 C 0.07189 0.88432 0.31403 0.0
C183 C 0.10314 0.90491 0.30218 0.0
C184 C 0.11214 0.93883 0.33328 0.0
C185 C 0.08877 0.95291 0.37243 0.0
H186 H 0.67594 0.67227 0.74098 0.0
H187 H 0.56572 0.70784 0.65092 0.0
H188 H 0.64543 0.63795 0.81132 0.0
H189 H 0.53503 0.67481 0.72245 0.0
H190 H 0.48901 0.57779 0.81126 0.0
H191 H 0.52066 0.61393 0.74502 0.0
H192 H 0.6117 0.64061 0.89225 0.0
H193 H 0.58067 0.60298 0.95794 0.0
C194 C 0.64519 0.67336 0.73713 0.0
C195 C 0.62316 0.6926 0.69047 0.0
C196 C 0.62764 0.65373 0.77748 0.0
C197 C 0.58764 0.65324 0.77246 0.0
C198 C 0.5658 0.67372 0.72694 0.0
C199 C 0.58334 0.69292 0.68617 0.0
C200 C 0.51583 0.5913 0.82949 0.0
C201 C 0.5323 0.58749 0.88989 0.0
C202 C 0.53388 0.61236 0.79157 0.0
C203 C 0.56867 0.63061 0.8132 0.0
C204 C 0.58521 0.62665 0.8737 0.0
C205 C 0.56735 0.60516 0.9115 0.0
H206 H 0.92138 0.18224 0.09523 0.0
H207 H 0.80521 0.17771 0.12727 0.0
H208 H 0.94323 0.15348 0.19073 0.0
H209 H 0.82735 0.15101 0.22451 0.0
H210 H 0.87164 0.0476 0.32858 0.0
H211 H 0.8491 0.09096 0.25134 0.0
H212 H 0.95365 0.15409 0.29871 0.0
H213 H 0.97694 0.1094 0.37612 0.0
C214 C 0.90051 0.1756 0.12302 0.0
C215 C 0.86137 0.18151 0.10272 0.0
C216 C 0.91317 0.15961 0.17839 0.0
C217 C 0.88705 0.14938 0.21519 0.0
C218 C 0.84823 0.15782 0.19682 0.0
C219 C 0.83553 0.17354 0.14122 0.0
C220 C 0.88979 0.07095 0.32326 0.0
C221 C 0.92636 0.07472 0.35809 0.0
C222 C 0.8766 0.09617 0.27912 0.0
C223 C 0.89951 0.12611 0.26839 0.0
C224 C 0.93542 0.13109 0.30528 0.0
C225 C 0.94867 0.10568 0.34993 0.0
H226 H 0.44614 0.32417 0.63461 0.0
H227 H 0.33188 0.35203 0.6587 0.0
H228 H 0.47066 0.34525 0.73714 0.0
H229 H 0.35606 0.37503 0.75961 0.0
H230 H 0.39936 0.40799 0.9445 0.0
H231 H 0.38208 0.36622 0.85819 0.0
H232 H 0.48366 0.39988 0.79193 0.0
H233 H 0.50193 0.43948 0.88052 0.0
C234 C 0.42629 0.33467 0.66217 0.0
C235 C 0.38715 0.33655 0.63885 0.0
C236 C 0.44031 0.34701 0.72083 0.0
C237 C 0.41557 0.36222 0.7572 0.0
C238 C 0.37615 0.36287 0.73402 0.0
C239 C 0.36213 0.34989 0.67582 0.0
C240 C 0.41861 0.40529 0.91242 0.0
C241 C 0.45184 0.42705 0.91893 0.0
C242 C 0.40845 0.38181 0.86234 0.0
C243 C 0.4307 0.38037 0.8166 0.0
C244 C 0.46568 0.39991 0.82589 0.0
C245 C 0.47631 0.42272 0.87688 0.0
H246 H 0.68893 0.6843 0.46063 0.0
H247 H 0.57482 0.7195 0.47354 0.0
H248 H 0.66666 0.65983 0.36018 0.0
H249 H 0.55233 0.69677 0.37116 0.0
H250 H 0.5213 0.60084 0.22983 0.0
H251 H 0.53814 0.64174 0.31734 0.0
H252 H 0.64478 0.66852 0.26025 0.0
H253 H 0.62878 0.62536 0.17548 0.0
C254 C 0.65917 0.68763 0.44116 0.0
C255 C 0.6336 0.70364 0.47487 0.0
C256 C 0.64628 0.67384 0.38315 0.0
C257 C 0.6075 0.67628 0.35677 0.0
C258 C 0.58221 0.69373 0.38998 0.0
C259 C 0.59506 0.70694 0.44856 0.0
C260 C 0.54775 0.61645 0.23517 0.0
C261 C 0.5739 0.60982 0.19639 0.0
C262 C 0.55757 0.63995 0.28552 0.0
C263 C 0.59346 0.65782 0.29727 0.0
C264 C 0.61758 0.65421 0.25427 0.0
C265 C 0.6082 0.62998 0.205 0.0
H266 H 0.81779 0.15383 0.82937 0.0
H267 H 0.92747 0.18686 0.92922 0.0
H268 H 0.84935 0.12175 0.75511 0.0
H269 H 0.95904 0.15624 0.8545 0.0
H270 H 0.00688 0.0631 0.75785 0.0
H271 H 0.97173 0.09511 0.82603 0.0
H272 H 0.88658 0.12696 0.67655 0.0
H273 H 0.9214 0.09335 0.608 0.0
C274 C 0.84863 0.15474 0.83474 0.0
C275 C 0.87027 0.17245 0.88522 0.0
C276 C 0.86673 0.13645 0.79223 0.0
C277 C 0.90682 0.13585 0.7992 0.0
C278 C 0.9282 0.15512 0.84848 0.0
C279 C 0.91016 0.17292 0.89115 0.0
C280 C 0.98058 0.0768 0.7394 0.0
C281 C 0.9671 0.07596 0.67745 0.0
C282 C 0.96052 0.09547 0.77855 0.0
C283 C 0.92664 0.11433 0.75685 0.0
C284 C 0.9125 0.11266 0.69489 0.0
C285 C 0.93247 0.09349 0.65557 0.0
H286 H 0.34222 0.36421 0.35943 0.0
H287 H 0.45165 0.35188 0.47382 0.0
H288 H 0.37361 0.39253 0.28436 0.0
H289 H 0.48237 0.38304 0.40173 0.0
H290 H 0.53609 0.40936 0.24449 0.0
H291 H 0.50184 0.37589 0.31041 0.0
H292 H 0.40395 0.44631 0.26043 0.0
H293 H 0.43783 0.47831 0.19144 0.0
C294 C 0.37294 0.3675 0.36873 0.0
C295 C 0.39427 0.35568 0.42302 0.0
C296 C 0.39093 0.38434 0.32593 0.0
C297 C 0.43067 0.39018 0.33659 0.0
C298 C 0.45186 0.37848 0.39103 0.0
C299 C 0.43403 0.36114 0.4332 0.0
C300 C 0.50715 0.41752 0.24735 0.0
C301 C 0.48972 0.4466 0.21319 0.0
C302 C 0.48752 0.39851 0.28558 0.0
C303 C 0.4502 0.40866 0.29186 0.0
C304 C 0.43245 0.43735 0.25651 0.0
C305 C 0.45191 0.45588 0.21716 0.0
H306 H 0.11143 0.84252 0.9461 0.0
H307 H 0.21891 0.88959 0.92152 0.0
H308 H 0.08239 0.8612 0.84599 0.0
H309 H 0.18981 0.91038 0.823 0.0
H310 H 0.139 0.93164 0.63625 0.0
H311 H 0.16512 0.89688 0.72434 0.0
H312 H 0.0597 0.91237 0.79266 0.0
H313 H 0.03304 0.94486 0.70245 0.0
C314 C 0.12876 0.85703 0.9191 0.0
C315 C 0.16735 0.86473 0.94141 0.0
C316 C 0.11211 0.86797 0.8618 0.0
C317 C 0.1335 0.88756 0.82583 0.0
C318 C 0.1724 0.89469 0.84829 0.0
C319 C 0.18917 0.88307 0.9051 0.0
C320 C 0.12112 0.92655 0.66942 0.0
C321 C 0.08406 0.94095 0.66265 0.0
C322 C 0.13625 0.90711 0.72048 0.0
C323 C 0.11507 0.90249 0.76692 0.0
C324 C 0.07701 0.91496 0.75809 0.0
C325 C 0.06156 0.93366 0.70621 0.0
loop_
_geom_bond_atom_site_label_1
_geom_bond_atom_site_label_2
_geom_bond_distance
_geom_bond_site_symmetry_2
_ccdc_geom_bond_type
H0 C5 0.929 1_556 S
H1 C10 0.931 . S
H2 C8 0.930 . S
N3 N4 1.234 . S
N3 C7 1.453 . S
N4 N3 1.234 . S
C5 H0 0.929 1_554 S
C5 C6 1.373 . S
C5 C7 1.368 . S
C6 C5 1.373 . S
C6 C10 1.397 . S
C7 N3 1.453 . S
C7 C5 1.368 . S
C7 C8 1.373 . S
C8 H2 0.930 . S
C8 C7 1.373 . S
C8 C9 1.371 . S
C9 C8 1.371 . S
C9 C10 1.383 . S
C10 H1 0.931 . S
C10 C6 1.397 . S
C10 C9 1.383 . S
H11 C16 0.929 . S
H12 C21 0.931 . S
H13 C19 0.930 . S
N14 N15 1.234 . S
N14 C18 1.453 . S
N15 N14 1.234 . S
C16 H11 0.929 . S
C16 C17 1.373 . S
C16 C18 1.368 . S
C17 C16 1.373 . S
C17 C21 1.397 . S
C18 N14 1.453 . S
C18 C16 1.368 . S
C18 C19 1.373 . S
C19 H13 0.930 . S
C19 C18 1.373 . S
C19 C20 1.371 . S
C20 C19 1.371 . S
C20 C21 1.383 . S
C21 H12 0.931 . S
C21 C17 1.397 . S
C21 C20 1.383 . S
H22 C27 0.929 . S
H23 C32 0.931 . S
H24 C30 0.930 . S
N25 N26 1.234 1_556 S
N25 C29 1.453 . S
N26 N25 1.234 1_554 S
C27 H22 0.929 . S
C27 C28 1.373 . S
C27 C29 1.368 . S
C28 C27 1.373 . S
C28 C32 1.397 1_556 S
C29 N25 1.453 . S
C29 C27 1.368 . S
C29 C30 1.373 1_556 S
C30 H24 0.930 . S
C30 C29 1.373 1_554 S
C30 C31 1.371 . S
C31 C30 1.371 . S
C31 C32 1.383 . S
C32 H23 0.931 . S
C32 C28 1.397 1_554 S
C32 C31 1.383 . S
H33 C38 0.929 . S
H34 C43 0.931 . S
H35 C41 0.930 . S
N36 N37 1.234 . S
N36 C40 1.453 . S
N37 N36 1.234 . S
C38 H33 0.929 . S
C38 C39 1.373 . S
C38 C40 1.368 . S
C39 C38 1.373 . S
C39 C43 1.397 . S
C40 N36 1.453 . S
C40 C38 1.368 . S
C40 C41 1.373 . S
C41 H35 0.930 . S
C41 C40 1.373 . S
C41 C42 1.371 . S
C42 C41 1.371 . S
C42 C43 1.383 . S
C43 H34 0.931 . S
C43 C39 1.397 . S
C43 C42 1.383 . S
O44 Mg45 1.990 . S
O44 C58 1.253 1_455 S
Mg45 O44 1.990 . S
Mg45 O48 2.180 . S
Mg45 O49 2.117 . S
Mg45 O63 2.030 . S
O46 Mg47 2.072 1_655 S
O46 C58 1.260 . S
Mg47 O46 2.072 1_455 S
Mg47 O48 2.099 . S
Mg47 O50 2.079 1_545 S
Mg47 O51 2.072 1_455 S
Mg47 O53 2.099 1_445 S
Mg47 O64 2.079 1_545 S
O48 Mg45 2.180 . S
O48 Mg47 2.099 . S
O48 C59 1.279 . S
O49 Mg45 2.117 . S
O49 C59 1.250 . S
O50 Mg47 2.079 1_565 S
O50 C60 1.264 . S
O51 Mg47 2.072 1_655 S
O51 C61 1.260 . S
Mg52 O53 2.180 . S
Mg52 O54 2.030 1_655 S
Mg52 O55 1.990 1_565 S
Mg52 O56 2.117 . S
O53 Mg47 2.099 1_665 S
O53 Mg52 2.180 . S
O53 C62 1.279 . S
O54 Mg52 2.030 1_455 S
O54 C60 1.248 . S
O55 Mg52 1.990 1_545 S
O55 C61 1.253 . S
O56 Mg52 2.117 . S
O56 C62 1.250 . S
C57 O63 1.248 1_565 S
C57 O64 1.264 . S
C58 O44 1.253 1_655 S
C58 O46 1.260 . S
C59 O48 1.279 . S
C59 O49 1.250 . S
C60 O50 1.264 . S
C60 O54 1.248 . S
C61 O51 1.260 . S
C61 O55 1.253 . S
C62 O53 1.279 . S
C62 O56 1.250 . S
O63 Mg45 2.030 . S
O63 C57 1.248 1_545 S
O64 Mg47 2.079 1_565 S
O64 C57 1.264 . S
O65 Mg66 1.990 . S
O65 C79 1.253 . S
Mg66 O65 1.990 . S
Mg66 O69 2.180 . S
Mg66 O70 2.117 . S
Mg66 O84 2.030 . S
O67 Mg68 2.072 . S
O67 C79 1.260 . S
Mg68 O67 2.072 . S
Mg68 O69 2.099 . S
Mg68 O71 2.079 1_554 S
Mg68 O72 2.072 1_554 S
Mg68 O74 2.099 . S
Mg68 O85 2.079 . S
O69 Mg66 2.180 . S
O69 Mg68 2.099 . S
O69 C80 1.279 . S
O70 Mg66 2.117 . S
O70 C80 1.250 . S
O71 Mg68 2.079 1_556 S
O71 C81 1.264 . S
O72 Mg68 2.072 1_556 S
O72 C82 1.260 . S
Mg73 O74 2.180 1_556 S
Mg73 O75 2.030 . S
Mg73 O76 1.990 . S
Mg73 O77 2.117 . S
O74 Mg68 2.099 . S
O74 Mg73 2.180 1_554 S
O74 C83 1.279 . S
O75 Mg73 2.030 . S
O75 C81 1.248 . S
O76 Mg73 1.990 . S
O76 C82 1.253 . S
O77 Mg73 2.117 . S
O77 C83 1.250 1_556 S
C78 O84 1.248 . S
C78 O85 1.264 . S
C79 O65 1.253 . S
C79 O67 1.260 . S
C80 O69 1.279 . S
C80 O70 1.250 . S
C81 O71 1.264 . S
C81 O75 1.248 . S
C82 O72 1.260 . S
C82 O76 1.253 . S
C83 O74 1.279 . S
C83 O77 1.250 1_554 S
O84 Mg66 2.030 . S
O84 C78 1.248 . S
O85 Mg68 2.079 . S
O85 C78 1.264 . S
H86 C94 0.950 . S
H87 C99 0.950 . S
H88 C96 0.950 . S
H89 C98 0.950 . S
H90 C100 0.950 . S
H91 C102 0.950 . S
H92 C104 0.950 . S
H93 C105 0.950 . S
C94 H86 0.950 . S
C94 C95 1.386 . S
C94 C96 1.391 . S
C95 C94 1.386 . S
C95 C99 1.393 . S
C96 H88 0.950 . S
C96 C94 1.391 . S
C96 C97 1.400 . S
C97 C96 1.400 . S
C97 C98 1.398 . S
C97 C103 1.491 . S
C98 H89 0.950 . S
C98 C97 1.398 . S
C98 C99 1.391 . S
C99 H87 0.950 . S
C99 C95 1.393 . S
C99 C98 1.391 . S
C100 H90 0.950 . S
C100 C101 1.386 . S
C100 C102 1.391 . S
C101 C100 1.386 . S
C101 C105 1.393 . S
C102 H91 0.950 . S
C102 C100 1.391 . S
C102 C103 1.400 . S
C103 C97 1.491 . S
C103 C102 1.400 . S
C103 C104 1.398 . S
C104 H92 0.950 . S
C104 C103 1.398 . S
C104 C105 1.391 . S
C105 H93 0.950 . S
C105 C101 1.393 . S
C105 C104 1.391 . S
H106 C114 0.950 . S
H107 C119 0.950 . S
H108 C116 0.950 1_556 S
H109 C118 0.950 . S
H110 C120 0.950 . S
H111 C122 0.950 . S
H112 C124 0.950 1_556 S
H113 C125 0.950 1_556 S
C114 H106 0.950 . S
C114 C115 1.386 . S
C114 C116 1.391 . S
C115 C114 1.386 . S
C115 C119 1.393 . S
C116 H108 0.950 1_554 S
C116 C114 1.391 . S
C116 C117 1.400 . S
C117 C116 1.400 . S
C117 C118 1.398 . S
C117 C123 1.491 . S
C118 H109 0.950 . S
C118 C117 1.398 . S
C118 C119 1.391 . S
C119 H107 0.950 . S
C119 C115 1.393 . S
C119 C118 1.391 . S
C120 H110 0.950 . S
C120 C121 1.386 . S
C120 C122 1.391 . S
C121 C120 1.386 . S
C121 C125 1.393 . S
C122 H111 0.950 . S
C122 C120 1.391 . S
C122 C123 1.400 . S
C123 C117 1.491 . S
C123 C122 1.400 . S
C123 C124 1.398 . S
C124 H112 0.950 1_554 S
C124 C123 1.398 . S
C124 C125 1.391 . S
C125 H113 0.950 1_554 S
C125 C121 1.393 . S
C125 C124 1.391 . S
H126 C134 0.950 . S
H127 C139 0.950 . S
H128 C136 0.950 . S
H129 C138 0.950 . S
H130 C140 0.950 . S
H131 C142 0.950 . S
H132 C144 0.950 . S
H133 C145 0.950 . S
C134 H126 0.950 . S
C134 C135 1.386 . S
C134 C136 1.391 . S
C135 C134 1.386 . S
C135 C139 1.393 . S
C136 H128 0.950 . S
C136 C134 1.391 . S
C136 C137 1.400 . S
C137 C136 1.400 . S
C137 C138 1.398 . S
C137 C143 1.491 . S
C138 H129 0.950 . S
C138 C137 1.398 . S
C138 C139 1.391 . S
C139 H127 0.950 . S
C139 C135 1.393 . S
C139 C138 1.391 . S
C140 H130 0.950 . S
C140 C141 1.386 . S
C140 C142 1.391 . S
C141 C140 1.386 . S
C141 C145 1.393 . S
C142 H131 0.950 . S
C142 C140 1.391 . S
C142 C143 1.400 . S
C143 C137 1.491 . S
C143 C142 1.400 . S
C143 C144 1.398 . S
C144 H132 0.950 . S
C144 C143 1.398 . S
C144 C145 1.391 . S
C145 H133 0.950 . S
C145 C141 1.393 . S
C145 C144 1.391 . S
H146 C154 0.950 . S
H147 C159 0.950 . S
H148 C156 0.950 1_556 S
H149 C158 0.950 . S
H150 C160 0.950 . S
H151 C162 0.950 . S
H152 C164 0.950 . S
H153 C165 0.950 . S
C154 H146 0.950 . S
C154 C155 1.386 1_556 S
C154 C156 1.391 1_556 S
C155 C154 1.386 1_554 S
C155 C159 1.393 . S
C156 H148 0.950 1_554 S
C156 C154 1.391 1_554 S
C156 C157 1.400 . S
C157 C156 1.400 . S
C157 C158 1.398 . S
C157 C163 1.491 . S
C158 H149 0.950 . S
C158 C157 1.398 . S
C158 C159 1.391 . S
C159 H147 0.950 . S
C159 C155 1.393 . S
C159 C158 1.391 . S
C160 H150 0.950 . S
C160 C161 1.386 . S
C160 C162 1.391 . S
C161 C160 1.386 . S
C161 C165 1.393 . S
C162 H151 0.950 . S
C162 C160 1.391 . S
C162 C163 1.400 . S
C163 C157 1.491 . S
C163 C162 1.400 . S
C163 C164 1.398 . S
C164 H152 0.950 . S
C164 C163 1.398 . S
C164 C165 1.391 . S
C165 H153 0.950 . S
C165 C161 1.393 . S
C165 C164 1.391 . S
H166 C174 0.950 . S
H167 C179 0.950 . S
H168 C176 0.950 . S
H169 C178 0.950 . S
H170 C180 0.950 . S
H171 C182 0.950 . S
H172 C184 0.950 . S
H173 C185 0.950 1_545 S
C174 H166 0.950 . S
C174 C175 1.386 . S
C174 C176 1.391 . S
C175 C174 1.386 . S
C175 C179 1.393 . S
C176 H168 0.950 . S
C176 C174 1.391 . S
C176 C177 1.400 . S
C177 C176 1.400 . S
C177 C178 1.398 . S
C177 C183 1.491 . S
C178 H169 0.950 . S
C178 C177 1.398 . S
C178 C179 1.391 . S
C179 H167 0.950 . S
C179 C175 1.393 . S
C179 C178 1.391 . S
C180 H170 0.950 . S
C180 C181 1.386 . S
C180 C182 1.391 . S
C181 C180 1.386 . S
C181 C185 1.393 . S
C182 H171 0.950 . S
C182 C180 1.391 . S
C182 C183 1.400 . S
C183 C177 1.491 . S
C183 C182 1.400 . S
C183 C184 1.398 . S
C184 H172 0.950 . S
C184 C183 1.398 . S
C184 C185 1.391 . S
C185 H173 0.950 1_565 S
C185 C181 1.393 . S
C185 C184 1.391 . S
H186 C194 0.950 . S
H187 C199 0.950 . S
H188 C196 0.950 . S
H189 C198 0.950 . S
H190 C200 0.950 . S
H191 C202 0.950 . S
H192 C204 0.950 . S
H193 C205 0.950 . S
C194 H186 0.950 . S
C194 C195 1.386 . S
C194 C196 1.391 . S
C195 C194 1.386 . S
C195 C199 1.393 . S
C196 H188 0.950 . S
C196 C194 1.391 . S
C196 C197 1.400 . S
C197 C196 1.400 . S
C197 C198 1.398 . S
C197 C203 1.491 . S
C198 H189 0.950 . S
C198 C197 1.398 . S
C198 C199 1.391 . S
C199 H187 0.950 . S
C199 C195 1.393 . S
C199 C198 1.391 . S
C200 H190 0.950 . S
C200 C201 1.386 . S
C200 C202 1.391 . S
C201 C200 1.386 . S
C201 C205 1.393 . S
C202 H191 0.950 . S
C202 C200 1.391 . S
C202 C203 1.400 . S
C203 C197 1.491 . S
C203 C202 1.400 . S
C203 C204 1.398 . S
C204 H192 0.950 . S
C204 C203 1.398 . S
C204 C205 1.391 . S
C205 H193 0.950 . S
C205 C201 1.393 . S
C205 C204 1.391 . S
H206 C214 0.950 . S
H207 C219 0.950 . S
H208 C216 0.950 . S
H209 C218 0.950 . S
H210 C220 0.950 . S
H211 C222 0.950 . S
H212 C224 0.950 . S
H213 C225 0.950 . S
C214 H206 0.950 . S
C214 C215 1.386 . S
C214 C216 1.391 . S
C215 C214 1.386 . S
C215 C219 1.393 . S
C216 H208 0.950 . S
C216 C214 1.391 . S
C216 C217 1.400 . S
C217 C216 1.400 . S
C217 C218 1.398 . S
C217 C223 1.491 . S
C218 H209 0.950 . S
C218 C217 1.398 . S
C218 C219 1.391 . S
C219 H207 0.950 . S
C219 C215 1.393 . S
C219 C218 1.391 . S
C220 H210 0.950 . S
C220 C221 1.386 . S
C220 C222 1.391 . S
C221 C220 1.386 . S
C221 C225 1.393 . S
C222 H211 0.950 . S
C222 C220 1.391 . S
C222 C223 1.400 . S
C223 C217 1.491 . S
C223 C222 1.400 . S
C223 C224 1.398 . S
C224 H212 0.950 . S
C224 C223 1.398 . S
C224 C225 1.391 . S
C225 H213 0.950 . S
C225 C221 1.393 . S
C225 C224 1.391 . S
H226 C234 0.950 . S
H227 C239 0.950 . S
H228 C236 0.950 . S
H229 C238 0.950 . S
H230 C240 0.950 . S
H231 C242 0.950 . S
H232 C244 0.950 . S
H233 C245 0.950 . S
C234 H226 0.950 . S
C234 C235 1.386 . S
C234 C236 1.391 . S
C235 C234 1.386 . S
C235 C239 1.393 . S
C236 H228 0.950 . S
C236 C234 1.391 . S
C236 C237 1.400 . S
C237 C236 1.400 . S
C237 C238 1.398 . S
C237 C243 1.491 . S
C238 H229 0.950 . S
C238 C237 1.398 . S
C238 C239 1.391 . S
C239 H227 0.950 . S
C239 C235 1.393 . S
C239 C238 1.391 . S
C240 H230 0.950 . S
C240 C241 1.386 . S
C240 C242 1.391 . S
C241 C240 1.386 . S
C241 C245 1.393 . S
C242 H231 0.950 . S
C242 C240 1.391 . S
C242 C243 1.400 . S
C243 C237 1.491 . S
C243 C242 1.400 . S
C243 C244 1.398 . S
C244 H232 0.950 . S
C244 C243 1.398 . S
C244 C245 1.391 . S
C245 H233 0.950 . S
C245 C241 1.393 . S
C245 C244 1.391 . S
H246 C254 0.950 . S
H247 C259 0.950 . S
H248 C256 0.950 . S
H249 C258 0.950 . S
H250 C260 0.950 . S
H251 C262 0.950 . S
H252 C264 0.950 . S
H253 C265 0.950 . S
C254 H246 0.950 . S
C254 C255 1.386 . S
C254 C256 1.391 . S
C255 C254 1.386 . S
C255 C259 1.393 . S
C256 H248 0.950 . S
C256 C254 1.391 . S
C256 C257 1.400 . S
C257 C256 1.400 . S
C257 C258 1.398 . S
C257 C263 1.491 . S
C258 H249 0.950 . S
C258 C257 1.398 . S
C258 C259 1.391 . S
C259 H247 0.950 . S
C259 C255 1.393 . S
C259 C258 1.391 . S
C260 H250 0.950 . S
C260 C261 1.386 . S
C260 C262 1.391 . S
C261 C260 1.386 . S
C261 C265 1.393 . S
C262 H251 0.950 . S
C262 C260 1.391 . S
C262 C263 1.400 . S
C263 C257 1.491 . S
C263 C262 1.400 . S
C263 C264 1.398 . S
C264 H252 0.950 . S
C264 C263 1.398 . S
C264 C265 1.391 . S
C265 H253 0.950 . S
C265 C261 1.393 . S
C265 C264 1.391 . S
H266 C274 0.950 . S
H267 C279 0.950 . S
H268 C276 0.950 . S
H269 C278 0.950 . S
H270 C280 0.950 . S
H271 C282 0.950 . S
H272 C284 0.950 . S
H273 C285 0.950 . S
C274 H266 0.950 . S
C274 C275 1.386 . S
C274 C276 1.391 . S
C275 C274 1.386 . S
C275 C279 1.393 . S
C276 H268 0.950 . S
C276 C274 1.391 . S
C276 C277 1.400 . S
C277 C276 1.400 . S
C277 C278 1.398 . S
C277 C283 1.491 . S
C278 H269 0.950 . S
C278 C277 1.398 . S
C278 C279 1.391 . S
C279 H267 0.950 . S
C279 C275 1.393 . S
C279 C278 1.391 . S
C280 H270 0.950 . S
C280 C281 1.386 . S
C280 C282 1.391 . S
C281 C280 1.386 . S
C281 C285 1.393 . S
C282 H271 0.950 . S
C282 C280 1.391 . S
C282 C283 1.400 . S
C283 C277 1.491 . S
C283 C282 1.400 . S
C283 C284 1.398 . S
C284 H272 0.950 . S
C284 C283 1.398 . S
C284 C285 1.391 . S
C285 H273 0.950 . S
C285 C281 1.393 . S
C285 C284 1.391 . S
H286 C294 0.950 . S
H287 C299 0.950 . S
H288 C296 0.950 . S
H289 C298 0.950 . S
H290 C300 0.950 . S
H291 C302 0.950 . S
H292 C304 0.950 . S
H293 C305 0.950 . S
C294 H286 0.950 . S
C294 C295 1.386 . S
C294 C296 1.391 . S
C295 C294 1.386 . S
C295 C299 1.393 . S
C296 H288 0.950 . S
C296 C294 1.391 . S
C296 C297 1.400 . S
C297 C296 1.400 . S
C297 C298 1.398 . S
C297 C303 1.491 . S
C298 H289 0.950 . S
C298 C297 1.398 . S
C298 C299 1.391 . S
C299 H287 0.950 . S
C299 C295 1.393 . S
C299 C298 1.391 . S
C300 H290 0.950 . S
C300 C301 1.386 . S
C300 C302 1.391 . S
C301 C300 1.386 . S
C301 C305 1.393 . S
C302 H291 0.950 . S
C302 C300 1.391 . S
C302 C303 1.400 . S
C303 C297 1.491 . S
C303 C302 1.400 . S
C303 C304 1.398 . S
C304 H292 0.950 . S
C304 C303 1.398 . S
C304 C305 1.391 . S
C305 H293 0.950 . S
C305 C301 1.393 . S
C305 C304 1.391 . S
H306 C314 0.950 1_554 S
H307 C319 0.950 . S
H308 C316 0.950 . S
H309 C318 0.950 . S
H310 C320 0.950 . S
H311 C322 0.950 . S
H312 C324 0.950 . S
H313 C325 0.950 . S
C314 H306 0.950 1_556 S
C314 C315 1.386 . S
C314 C316 1.391 . S
C315 C314 1.386 . S
C315 C319 1.393 . S
C316 H308 0.950 . S
C316 C314 1.391 . S
C316 C317 1.400 . S
C317 C316 1.400 . S
C317 C318 1.398 . S
C317 C323 1.491 . S
C318 H309 0.950 . S
C318 C317 1.398 . S
C318 C319 1.391 . S
C319 H307 0.950 . S
C319 C315 1.393 . S
C319 C318 1.391 . S
C320 H310 0.950 . S
C320 C321 1.386 . S
C320 C322 1.391 . S
C321 C320 1.386 . S
C321 C325 1.393 . S
C322 H311 0.950 . S
C322 C320 1.391 . S
C322 C323 1.400 . S
C323 C317 1.491 . S
C323 C322 1.400 . S
C323 C324 1.398 . S
C324 H312 0.950 . S
C324 C323 1.398 . S
C324 C325 1.391 . S
C325 H313 0.950 . S
C325 C321 1.393 . S
C325 C324 1.391 . S
C101 C59 1.274 . S
C95 N37 1.437 . S
C115 N4 1.477 . S
C121 C83 1.287 . S
C135 N15 1.591 . S
C141 C62 1.383 . S
C155 N26 1.591 . S
C161 C80 1.361 . S
C181 C60 1.509 . S
C175 C9 1.499 . S
C201 C82 1.557 . S
C195 C17 1.611 . S
C215 C31 1.598 . S
C221 C61 1.562 . S
C235 C42 1.508 . S
C241 C81 1.475 . S
C261 C79 1.473 . S
C255 C20 1.507 . S
C281 C58 1.478 . S
C275 C28 1.526 . S
C301 C78 1.412 . S
C295 C39 1.443 . S
C315 C6 1.448 1_556 S
C321 C57 1.403 . S
