# Generated by pormake.
# Topology ctn, (3,4)-cn, num edge types: 1
# Building blocks:
#     Node 0, Type 0, BuildingBlock: PAMTOO_clean_linker_0, # of connection points: 3
#     Node 1, Type 0, BuildingBlock: PAMTOO_clean_linker_0, # of connection points: 3
#     Node 2, Type 0, BuildingBlock: PAMTOO_clean_linker_0, # of connection points: 3
#     Node 3, Type 0, BuildingBlock: PAMTOO_clean_linker_0, # of connection points: 3
#     Node 4, Type 0, BuildingBlock: PAMTOO_clean_linker_0, # of connection points: 3
#     Node 5, Type 0, BuildingBlock: PAMTOO_clean_linker_0, # of connection points: 3
#     Node 6, Type 0, BuildingBlock: PAMTOO_clean_linker_0, # of connection points: 3
#     Node 7, Type 0, BuildingBlock: PAMTOO_clean_linker_0, # of connection points: 3
#     Node 8, Type 0, BuildingBlock: PAMTOO_clean_linker_0, # of connection points: 3
#     Node 9, Type 0, BuildingBlock: PAMTOO_clean_linker_0, # of connection points: 3
#     Node 10, Type 0, BuildingBlock: PAMTOO_clean_linker_0, # of connection points: 3
#     Node 11, Type 0, BuildingBlock: PAMTOO_clean_linker_0, # of connection points: 3
#     Node 12, Type 0, BuildingBlock: PAMTOO_clean_linker_0, # of connection points: 3
#     Node 13, Type 0, BuildingBlock: PAMTOO_clean_linker_0, # of connection points: 3
#     Node 14, Type 0, BuildingBlock: PAMTOO_clean_linker_0, # of connection points: 3
#     Node 15, Type 0, BuildingBlock: PAMTOO_clean_linker_0, # of connection points: 3
#     Node 16, Type 1, BuildingBlock: NAHDIM_clean_sbu_0, # of connection points: 4
#     Node 17, Type 1, BuildingBlock: NAHDIM_clean_sbu_0, # of connection points: 4
#     Node 18, Type 1, BuildingBlock: NAHDIM_clean_sbu_0, # of connection points: 4
#     Node 19, Type 1, BuildingBlock: NAHDIM_clean_sbu_0, # of connection points: 4
#     Node 20, Type 1, BuildingBlock: NAHDIM_clean_sbu_0, # of connection points: 4
#     Node 21, Type 1, BuildingBlock: NAHDIM_clean_sbu_0, # of connection points: 4
#     Node 22, Type 1, BuildingBlock: NAHDIM_clean_sbu_0, # of connection points: 4
#     Node 23, Type 1, BuildingBlock: NAHDIM_clean_sbu_0, # of connection points: 4
#     Node 24, Type 1, BuildingBlock: NAHDIM_clean_sbu_0, # of connection points: 4
#     Node 25, Type 1, BuildingBlock: NAHDIM_clean_sbu_0, # of connection points: 4
#     Node 26, Type 1, BuildingBlock: NAHDIM_clean_sbu_0, # of connection points: 4
#     Node 27, Type 1, BuildingBlock: NAHDIM_clean_sbu_0, # of connection points: 4
#     Edge 28, Type (0, 1), BuildingBlock: MIFKUJ_clean_linker_0, # of connection points: 2
#     Edge 29, Type (0, 1), BuildingBlock: MIFKUJ_clean_linker_0, # of connection points: 2
#     Edge 30, Type (0, 1), BuildingBlock: MIFKUJ_clean_linker_0, # of connection points: 2
#     Edge 31, Type (0, 1), BuildingBlock: MIFKUJ_clean_linker_0, # of connection points: 2
#     Edge 32, Type (0, 1), BuildingBlock: MIFKUJ_clean_linker_0, # of connection points: 2
#     Edge 33, Type (0, 1), BuildingBlock: MIFKUJ_clean_linker_0, # of connection points: 2
#     Edge 34, Type (0, 1), BuildingBlock: MIFKUJ_clean_linker_0, # of connection points: 2
#     Edge 35, Type (0, 1), BuildingBlock: MIFKUJ_clean_linker_0, # of connection points: 2
#     Edge 36, Type (0, 1), BuildingBlock: MIFKUJ_clean_linker_0, # of connection points: 2
#     Edge 37, Type (0, 1), BuildingBlock: MIFKUJ_clean_linker_0, # of connection points: 2
#     Edge 38, Type (0, 1), BuildingBlock: MIFKUJ_clean_linker_0, # of connection points: 2
#     Edge 39, Type (0, 1), BuildingBlock: MIFKUJ_clean_linker_0, # of connection points: 2
#     Edge 40, Type (0, 1), BuildingBlock: MIFKUJ_clean_linker_0, # of connection points: 2
#     Edge 41, Type (0, 1), BuildingBlock: MIFKUJ_clean_linker_0, # of connection points: 2
#     Edge 42, Type (0, 1), BuildingBlock: MIFKUJ_clean_linker_0, # of connection points: 2
#     Edge 43, Type (0, 1), BuildingBlock: MIFKUJ_clean_linker_0, # of connection points: 2
#     Edge 44, Type (0, 1), BuildingBlock: MIFKUJ_clean_linker_0, # of connection points: 2
#     Edge 45, Type (0, 1), BuildingBlock: MIFKUJ_clean_linker_0, # of connection points: 2
#     Edge 46, Type (0, 1), BuildingBlock: MIFKUJ_clean_linker_0, # of connection points: 2
#     Edge 47, Type (0, 1), BuildingBlock: MIFKUJ_clean_linker_0, # of connection points: 2
#     Edge 48, Type (0, 1), BuildingBlock: MIFKUJ_clean_linker_0, # of connection points: 2
#     Edge 49, Type (0, 1), BuildingBlock: MIFKUJ_clean_linker_0, # of connection points: 2
#     Edge 50, Type (0, 1), BuildingBlock: MIFKUJ_clean_linker_0, # of connection points: 2
#     Edge 51, Type (0, 1), BuildingBlock: MIFKUJ_clean_linker_0, # of connection points: 2
#     Edge 52, Type (0, 1), BuildingBlock: MIFKUJ_clean_linker_0, # of connection points: 2
#     Edge 53, Type (0, 1), BuildingBlock: MIFKUJ_clean_linker_0, # of connection points: 2
#     Edge 54, Type (0, 1), BuildingBlock: MIFKUJ_clean_linker_0, # of connection points: 2
#     Edge 55, Type (0, 1), BuildingBlock: MIFKUJ_clean_linker_0, # of connection points: 2
#     Edge 56, Type (0, 1), BuildingBlock: MIFKUJ_clean_linker_0, # of connection points: 2
#     Edge 57, Type (0, 1), BuildingBlock: MIFKUJ_clean_linker_0, # of connection points: 2
#     Edge 58, Type (0, 1), BuildingBlock: MIFKUJ_clean_linker_0, # of connection points: 2
#     Edge 59, Type (0, 1), BuildingBlock: MIFKUJ_clean_linker_0, # of connection points: 2
#     Edge 60, Type (0, 1), BuildingBlock: MIFKUJ_clean_linker_0, # of connection points: 2
#     Edge 61, Type (0, 1), BuildingBlock: MIFKUJ_clean_linker_0, # of connection points: 2
#     Edge 62, Type (0, 1), BuildingBlock: MIFKUJ_clean_linker_0, # of connection points: 2
#     Edge 63, Type (0, 1), BuildingBlock: MIFKUJ_clean_linker_0, # of connection points: 2
#     Edge 64, Type (0, 1), BuildingBlock: MIFKUJ_clean_linker_0, # of connection points: 2
#     Edge 65, Type (0, 1), BuildingBlock: MIFKUJ_clean_linker_0, # of connection points: 2
#     Edge 66, Type (0, 1), BuildingBlock: MIFKUJ_clean_linker_0, # of connection points: 2
#     Edge 67, Type (0, 1), BuildingBlock: MIFKUJ_clean_linker_0, # of connection points: 2
#     Edge 68, Type (0, 1), BuildingBlock: MIFKUJ_clean_linker_0, # of connection points: 2
#     Edge 69, Type (0, 1), BuildingBlock: MIFKUJ_clean_linker_0, # of connection points: 2
#     Edge 70, Type (0, 1), BuildingBlock: MIFKUJ_clean_linker_0, # of connection points: 2
#     Edge 71, Type (0, 1), BuildingBlock: MIFKUJ_clean_linker_0, # of connection points: 2
#     Edge 72, Type (0, 1), BuildingBlock: MIFKUJ_clean_linker_0, # of connection points: 2
#     Edge 73, Type (0, 1), BuildingBlock: MIFKUJ_clean_linker_0, # of connection points: 2
#     Edge 74, Type (0, 1), BuildingBlock: MIFKUJ_clean_linker_0, # of connection points: 2
#     Edge 75, Type (0, 1), BuildingBlock: MIFKUJ_clean_linker_0, # of connection points: 2
# Relax obj value: 0.061
# Max RMSD: 0.181
# Mean RMSD: 0.113
data_MOF--net-ctn--node1-NAHDIM_clean_sbu_0--node2-PAMTOO_clean_linker_0--edge1-MIFKUJ_clean_linker_0
_symmetry_space_group_name_H-M    P1
_symmetry_Int_Tables_number       1
_symmetry_cell_setting            triclinic
loop_
_symmetry_equiv_pos_as_xyz
'x, y, z'
_cell_length_a     70.043446
_cell_length_b     70.817271
_cell_length_c     71.214786
_cell_angle_alpha  86.146184
_cell_angle_beta   92.36916
_cell_angle_gamma 99.397612
loop_
_atom_site_label
_atom_site_type_symbol
_atom_site_fract_x
_atom_site_fract_y
_atom_site_fract_z
_atom_type_partial_charge
H0 H 0.00916 0.07613 0.04736 0.0
H1 H 0.03729 0.02854 0.06768 0.0
H2 H 0.05208 0.05785 0.01432 0.0
H3 H 0.04368 0.01464 0.01663 0.0
C4 C 0.05224 0.01223 0.02985 0.0
O5 O 0.05823 0.02943 0.038 0.0
H6 H 0.04276 0.00234 0.03963 0.0
C7 C 0.01947 0.06655 0.04561 0.0
C8 C 0.03039 0.06882 0.02929 0.0
C9 C 0.02187 0.05217 0.05971 0.0
C10 C 0.0351 0.03971 0.05703 0.0
C11 C 0.0458 0.04168 0.04061 0.0
C12 C 0.04364 0.05637 0.02691 0.0
H13 H 0.30209 0.69777 0.25655 0.0
H14 H 0.27106 0.71292 0.20562 0.0
H15 H 0.31874 0.75246 0.22656 0.0
H16 H 0.28575 0.77039 0.21326 0.0
C17 C 0.27937 0.76028 0.20252 0.0
O18 O 0.29138 0.74698 0.20052 0.0
H19 H 0.26501 0.75297 0.2075 0.0
C20 C 0.30002 0.70779 0.24475 0.0
C21 C 0.31243 0.72552 0.24311 0.0
C22 C 0.28499 0.70294 0.23133 0.0
C23 C 0.28241 0.71626 0.21625 0.0
C24 C 0.29448 0.73406 0.21469 0.0
C25 C 0.30957 0.73858 0.22793 0.0
H26 H 0.96855 0.49279 0.09208 0.0
H27 H 0.95478 0.47269 0.03648 0.0
H28 H 0.99973 0.45181 0.07024 0.0
H29 H 0.00685 0.46358 0.02938 0.0
C30 C 0.99276 0.45625 0.02358 0.0
O31 O 0.98047 0.44976 0.03813 0.0
H32 H 0.98627 0.46674 0.01406 0.0
C33 C 0.97104 0.48398 0.08084 0.0
C34 C 0.9856 0.47242 0.08323 0.0
C35 C 0.95975 0.48429 0.06401 0.0
C36 C 0.9631 0.47262 0.04965 0.0
C37 C 0.97753 0.46107 0.05193 0.0
C38 C 0.98875 0.461 0.06862 0.0
H39 H 0.70787 0.82494 0.24542 0.0
H40 H 0.68975 0.76935 0.22351 0.0
H41 H 0.73892 0.80644 0.20087 0.0
H42 H 0.70803 0.78717 0.17464 0.0
C43 C 0.70774 0.77246 0.18135 0.0
O44 O 0.71688 0.77322 0.19888 0.0
H45 H 0.69231 0.76584 0.18288 0.0
C46 C 0.70974 0.81422 0.23581 0.0
C47 C 0.72517 0.8179 0.22333 0.0
C48 C 0.6967 0.79683 0.236 0.0
C49 C 0.69936 0.78299 0.2235 0.0
C50 C 0.71454 0.78656 0.21091 0.0
C51 C 0.72738 0.8039 0.21086 0.0
H52 H 0.07711 0.97646 0.50314 0.0
H53 H 0.02645 0.96368 0.46692 0.0
H54 H 0.065 0.01673 0.4579 0.0
H55 H 0.02349 0.01997 0.45331 0.0
C56 C 0.01776 0.00536 0.4487 0.0
O57 O 0.03305 0.99577 0.44634 0.0
H58 H 0.00815 0.99759 0.45974 0.0
C59 C 0.06801 0.98043 0.49135 0.0
C60 C 0.07333 0.99807 0.48111 0.0
C61 C 0.0511 0.96785 0.48649 0.0
C62 C 0.03942 0.97318 0.47114 0.0
C63 C 0.04445 0.99078 0.46099 0.0
C64 C 0.06137 0.00313 0.46588 0.0
H65 H 0.20021 0.7662 0.80457 0.0
H66 H 0.21878 0.72301 0.77303 0.0
H67 H 0.25243 0.74388 0.82125 0.0
H68 H 0.27569 0.7379 0.7895 0.0
C69 C 0.26569 0.72613 0.78293 0.0
O70 O 0.24986 0.7204 0.79403 0.0
H71 H 0.26098 0.73176 0.76881 0.0
C72 C 0.21047 0.75667 0.80243 0.0
C73 C 0.22668 0.7566 0.81472 0.0
C74 C 0.20743 0.74458 0.78738 0.0
C75 C 0.22089 0.73244 0.78457 0.0
C76 C 0.23703 0.73219 0.7968 0.0
C77 C 0.23982 0.74411 0.81194 0.0
H78 H 0.9596 0.56772 0.50632 0.0
H79 H 0.97959 0.53775 0.46225 0.0
H80 H 0.01556 0.58746 0.48263 0.0
H81 H 0.02273 0.58487 0.44317 0.0
C82 C 0.01404 0.57043 0.44159 0.0
O83 O 0.01274 0.56046 0.45897 0.0
H84 H 0.99933 0.57232 0.436 0.0
C85 C 0.97052 0.56646 0.49633 0.0
C86 C 0.98787 0.57967 0.49598 0.0
C87 C 0.96738 0.55122 0.48431 0.0
C88 C 0.98181 0.54926 0.47179 0.0
C89 C 0.99909 0.56232 0.47128 0.0
C90 C 0.00217 0.57736 0.4834 0.0
H91 H 0.77826 0.80115 0.83991 0.0
H92 H 0.82331 0.77613 0.81632 0.0
H93 H 0.80362 0.82465 0.7875 0.0
H94 H 0.81243 0.79828 0.76104 0.0
C95 C 0.82142 0.78986 0.77046 0.0
O96 O 0.82697 0.7996 0.78645 0.0
H97 H 0.81248 0.77572 0.77429 0.0
C98 C 0.78866 0.80115 0.82906 0.0
C99 C 0.78938 0.81476 0.81364 0.0
C100 C 0.80079 0.78706 0.83022 0.0
C101 C 0.8137 0.78671 0.8157 0.0
C102 C 0.81454 0.80016 0.80034 0.0
C103 C 0.80256 0.8142 0.79939 0.0
H104 H 0.28649 0.31193 0.34138 0.0
H105 H 0.33313 0.28803 0.31922 0.0
H106 H 0.31093 0.33399 0.28825 0.0
H107 H 0.31955 0.30571 0.26354 0.0
C108 C 0.32951 0.29856 0.27311 0.0
O109 O 0.3352 0.30969 0.28816 0.0
H110 H 0.32146 0.28433 0.27808 0.0
C111 C 0.29711 0.31193 0.33074 0.0
C112 C 0.29729 0.32488 0.31484 0.0
C113 C 0.30993 0.29846 0.3326 0.0
C114 C 0.32298 0.2981 0.31818 0.0
C115 C 0.32308 0.31071 0.3022 0.0
C116 C 0.31045 0.32417 0.30062 0.0
H117 H 0.47146 0.00048 0.59042 0.0
H118 H 0.4541 0.97572 0.53743 0.0
H119 H 0.49717 0.95355 0.5727 0.0
H120 H 0.50626 0.96034 0.53285 0.0
C121 C 0.49152 0.95606 0.52649 0.0
O122 O 0.47823 0.95124 0.54048 0.0
H123 H 0.48785 0.96853 0.51752 0.0
C124 C 0.47238 0.98988 0.58035 0.0
C125 C 0.48559 0.97694 0.58387 0.0
C126 C 0.46088 0.9897 0.56363 0.0
C127 C 0.46286 0.97636 0.55034 0.0
C128 C 0.47611 0.96363 0.55357 0.0
C129 C 0.48726 0.96379 0.57032 0.0
H130 H 0.2067 0.33011 0.74455 0.0
H131 H 0.18571 0.27567 0.72144 0.0
H132 H 0.23938 0.30853 0.70314 0.0
H133 H 0.21325 0.29273 0.67383 0.0
C134 C 0.20774 0.27836 0.68059 0.0
O135 O 0.21467 0.27713 0.699 0.0
H136 H 0.19164 0.2764 0.68053 0.0
C137 C 0.20833 0.31921 0.73501 0.0
C138 C 0.2248 0.32148 0.72395 0.0
C139 C 0.19418 0.30273 0.73432 0.0
C140 C 0.19659 0.28837 0.72235 0.0
C141 C 0.21283 0.29059 0.71108 0.0
C142 C 0.22698 0.30697 0.71205 0.0
H143 H 0.79941 0.19574 0.75574 0.0
H144 H 0.76684 0.21034 0.70568 0.0
H145 H 0.81727 0.24867 0.72309 0.0
H146 H 0.78646 0.26829 0.7093 0.0
C147 C 0.77871 0.258 0.69935 0.0
O148 O 0.78897 0.24309 0.69802 0.0
H149 H 0.76408 0.25225 0.70477 0.0
C150 C 0.79728 0.2055 0.74374 0.0
C151 C 0.81032 0.22271 0.74102 0.0
C152 C 0.78153 0.20079 0.73108 0.0
C153 C 0.7788 0.21368 0.71569 0.0
C154 C 0.79168 0.23085 0.71289 0.0
C155 C 0.80749 0.23526 0.72539 0.0
H156 H 0.50791 0.57201 0.54295 0.0
H157 H 0.5356 0.52389 0.56239 0.0
H158 H 0.55325 0.55627 0.51122 0.0
H159 H 0.54985 0.5155 0.50889 0.0
C160 C 0.55395 0.51102 0.52358 0.0
O161 O 0.55867 0.52695 0.53404 0.0
H162 H 0.54135 0.5014 0.52989 0.0
C163 C 0.51828 0.56253 0.54107 0.0
C164 C 0.53017 0.56584 0.5254 0.0
C165 C 0.52024 0.5476 0.5547 0.0
C166 C 0.53405 0.53569 0.55225 0.0
C167 C 0.54577 0.53875 0.53652 0.0
C168 C 0.54405 0.55398 0.5233 0.0
H169 H 0.58244 0.4738 0.99211 0.0
H170 H 0.5273 0.45904 0.96311 0.0
H171 H 0.56528 0.51042 0.94586 0.0
H172 H 0.52502 0.51526 0.94629 0.0
C173 C 0.51781 0.50049 0.94344 0.0
O174 O 0.53157 0.48939 0.93991 0.0
H175 H 0.50967 0.49427 0.95611 0.0
C176 C 0.57213 0.47672 0.98095 0.0
C177 C 0.57621 0.4935 0.96911 0.0
C178 C 0.55449 0.46415 0.97905 0.0
C179 C 0.54092 0.46855 0.965 0.0
C180 C 0.54482 0.48524 0.95321 0.0
C181 C 0.56242 0.49762 0.9552 0.0
H182 H 0.70108 0.26633 0.30437 0.0
H183 H 0.7179 0.2246 0.2697 0.0
H184 H 0.75104 0.2398 0.31993 0.0
H185 H 0.77356 0.23604 0.28642 0.0
C186 C 0.76375 0.22398 0.28009 0.0
O187 O 0.74776 0.21849 0.29102 0.0
H188 H 0.75917 0.2291 0.26574 0.0
C189 C 0.71071 0.25639 0.30161 0.0
C190 C 0.72639 0.25443 0.31415 0.0
C191 C 0.70745 0.24578 0.28545 0.0
C192 C 0.71998 0.23284 0.28211 0.0
C193 C 0.7357 0.23083 0.29448 0.0
C194 C 0.73889 0.2416 0.31042 0.0
H195 H 0.45344 0.06807 0.00114 0.0
H196 H 0.47448 0.03753 0.95802 0.0
H197 H 0.51069 0.0863 0.97998 0.0
H198 H 0.51542 0.08424 0.93979 0.0
C199 C 0.50964 0.06879 0.93842 0.0
O200 O 0.50814 0.05949 0.95607 0.0
H201 H 0.49511 0.06783 0.93123 0.0
C202 C 0.46466 0.06644 0.99162 0.0
C203 C 0.48232 0.07916 0.992 0.0
C204 C 0.46167 0.05122 0.97956 0.0
C205 C 0.47654 0.04896 0.96765 0.0
C206 C 0.49409 0.06164 0.96781 0.0
C207 C 0.49704 0.07655 0.98007 0.0
C208 C 0.2119 0.91643 0.99201 0.0
O209 O 0.21509 0.91276 0.97469 0.0
O210 O 0.24237 0.88135 0.98017 0.0
Zn211 Zn 0.24666 0.89923 0.00146 0.0
O212 O 0.2698 0.91956 0.99625 0.0
C213 C 0.2431 0.86733 0.02911 0.0
O214 O 0.22938 0.86012 0.01726 0.0
O215 O 0.22325 0.91178 0.0053 0.0
C216 C 0.28611 0.91443 0.99418 0.0
O217 O 0.28727 0.89605 0.9953 0.0
C218 C 0.24588 0.88718 0.9632 0.0
O219 O 0.2519 0.90551 0.95918 0.0
O220 O 0.25244 0.88401 0.02534 0.0
C221 C 0.16545 0.46188 0.29456 0.0
O222 O 0.16448 0.47363 0.30788 0.0
O223 O 0.12607 0.48997 0.29666 0.0
Zn224 Zn 0.14111 0.48599 0.2739 0.0
O225 O 0.16004 0.51024 0.2682 0.0
C226 C 0.10587 0.47211 0.25208 0.0
O227 O 0.09905 0.46542 0.26855 0.0
O228 O 0.15627 0.46417 0.27902 0.0
C229 C 0.15512 0.52397 0.25767 0.0
O230 O 0.13752 0.52215 0.25016 0.0
C231 C 0.11287 0.50042 0.29475 0.0
O232 O 0.10896 0.50792 0.27795 0.0
O233 O 0.12319 0.48087 0.25115 0.0
C234 C 0.81219 0.6029 0.02575 0.0
O235 O 0.79735 0.59603 0.01497 0.0
O236 O 0.79575 0.6532 0.0048 0.0
Zn237 Zn 0.79012 0.63374 0.0267 0.0
O238 O 0.76612 0.61544 0.01977 0.0
C239 C 0.79201 0.66452 0.05181 0.0
O240 O 0.80498 0.67323 0.03998 0.0
O241 O 0.81254 0.61916 0.03247 0.0
C242 C 0.7506 0.62188 0.01505 0.0
O243 O 0.75049 0.64042 0.01506 0.0
C244 C 0.79579 0.64803 0.98806 0.0
O245 O 0.793 0.62964 0.98515 0.0
O246 O 0.78417 0.64735 0.04927 0.0
C247 C 0.86818 0.06713 0.26093 0.0
O248 O 0.88537 0.06762 0.26917 0.0
O249 O 0.89219 0.02805 0.27369 0.0
Zn250 Zn 0.87596 0.03078 0.24967 0.0
O251 O 0.85673 0.00656 0.24608 0.0
C252 C 0.91005 0.03196 0.22727 0.0
O253 O 0.91695 0.02409 0.24278 0.0
O254 O 0.86116 0.05278 0.25159 0.0
C255 C 0.86122 0.99267 0.23768 0.0
O256 O 0.87877 0.99405 0.23135 0.0
C257 C 0.89598 0.01211 0.28094 0.0
O258 O 0.88907 0.99627 0.27271 0.0
O259 O 0.89309 0.03623 0.22705 0.0
C260 C 0.3218 0.11676 0.52023 0.0
O261 O 0.31697 0.12008 0.50244 0.0
O262 O 0.2977 0.15646 0.50266 0.0
Zn263 Zn 0.29092 0.138 0.52535 0.0
O264 O 0.26721 0.1191 0.51875 0.0
C265 C 0.2685 0.15896 0.54649 0.0
O266 O 0.25644 0.15512 0.53213 0.0
O267 O 0.31281 0.12336 0.53281 0.0
C268 C 0.25706 0.10915 0.53138 0.0
O269 O 0.26259 0.11065 0.54914 0.0
C270 C 0.28415 0.16036 0.49134 0.0
O271 O 0.26632 0.15199 0.49446 0.0
O272 O 0.28471 0.15301 0.54695 0.0
C273 C 0.36852 0.56879 0.76055 0.0
O274 O 0.38395 0.56714 0.77128 0.0
O275 O 0.39415 0.53001 0.76865 0.0
Zn276 Zn 0.37682 0.53382 0.74582 0.0
O277 O 0.35723 0.50987 0.74336 0.0
C278 C 0.41026 0.53544 0.72272 0.0
O279 O 0.41846 0.53059 0.73885 0.0
O280 O 0.36292 0.55638 0.74855 0.0
C281 C 0.36312 0.49391 0.7425 0.0
O282 O 0.38183 0.49353 0.74336 0.0
C283 C 0.38754 0.52261 0.78429 0.0
O284 O 0.36875 0.51747 0.78583 0.0
O285 O 0.39267 0.53796 0.72231 0.0
C286 C 0.71132 0.40599 0.50378 0.0
O287 O 0.70801 0.38716 0.50527 0.0
O288 O 0.74599 0.38339 0.47674 0.0
Zn289 Zn 0.75058 0.39985 0.49927 0.0
O290 O 0.77537 0.41902 0.49707 0.0
C291 C 0.75828 0.36703 0.52327 0.0
O292 O 0.76409 0.36149 0.50752 0.0
O293 O 0.72845 0.41458 0.50098 0.0
C294 C 0.79192 0.41455 0.50147 0.0
O295 O 0.79315 0.39685 0.50751 0.0
C296 C 0.75903 0.38247 0.46506 0.0
O297 O 0.77615 0.39297 0.46719 0.0
O298 O 0.75188 0.38285 0.5231 0.0
C299 C 0.66304 0.95708 0.79711 0.0
O300 O 0.66063 0.96696 0.81154 0.0
O301 O 0.6252 0.987 0.79957 0.0
Zn302 Zn 0.64019 0.9833 0.77672 0.0
O303 O 0.65875 0.00765 0.77071 0.0
C304 C 0.60443 0.98172 0.75418 0.0
O305 O 0.5979 0.98735 0.76954 0.0
O306 O 0.6554 0.9613 0.78118 0.0
C307 C 0.65206 0.02307 0.76635 0.0
O308 O 0.63322 0.02264 0.76583 0.0
C309 C 0.63262 0.9982 0.8121 0.0
O310 O 0.6507 0.00664 0.81069 0.0
O311 O 0.62185 0.97872 0.75412 0.0
C312 C 1.00001 0.22979 0.9042 0.0
O313 O 0.98542 0.2282 0.89192 0.0
O314 O 0.98626 0.26465 0.86972 0.0
Zn315 Zn 0.00928 0.26922 0.88771 0.0
O316 O 0.00667 0.29143 0.90329 0.0
C317 C 0.03604 0.28868 0.85997 0.0
O318 O 0.02341 0.30056 0.85781 0.0
O319 O 0.01145 0.24566 0.90488 0.0
C320 C 0.02111 0.30261 0.90982 0.0
O321 O 0.03868 0.29986 0.90628 0.0
C322 C 0.96897 0.26369 0.8749 0.0
O323 O 0.96578 0.26544 0.8927 0.0
O324 O 0.03318 0.27472 0.87223 0.0
C325 C 0.50341 0.72987 0.40299 0.0
O326 O 0.48975 0.7285 0.38973 0.0
O327 O 0.48727 0.76687 0.37274 0.0
Zn328 Zn 0.51122 0.77043 0.38976 0.0
O329 O 0.51013 0.79163 0.40716 0.0
C330 C 0.53456 0.76795 0.35857 0.0
O331 O 0.51947 0.75509 0.35447 0.0
O332 O 0.51388 0.74602 0.40539 0.0
C333 C 0.50134 0.80565 0.40236 0.0
O334 O 0.49309 0.80662 0.3855 0.0
C335 C 0.47006 0.76371 0.37855 0.0
O336 O 0.46722 0.76261 0.39674 0.0
O337 O 0.53453 0.77694 0.37344 0.0
C338 C 0.00659 0.79838 0.61002 0.0
O339 O 0.98869 0.79016 0.6131 0.0
O340 O 0.99241 0.77275 0.65341 0.0
Zn341 Zn 0.01459 0.76898 0.63749 0.0
O342 O 0.00777 0.74525 0.6228 0.0
C343 C 0.03746 0.75944 0.6707 0.0
O344 O 0.02038 0.75323 0.67776 0.0
O345 O 0.02039 0.79179 0.61899 0.0
C346 C 0.02139 0.73729 0.61731 0.0
O347 O 0.03938 0.74459 0.62161 0.0
C348 C 0.97968 0.75899 0.65934 0.0
O349 O 0.9808 0.74146 0.65503 0.0
O350 O 0.03846 0.76685 0.65394 0.0
C351 C 0.50964 0.29973 0.10925 0.0
O352 O 0.49144 0.29377 0.11335 0.0
O353 O 0.49251 0.27233 0.14992 0.0
Zn354 Zn 0.51471 0.26768 0.13463 0.0
O355 O 0.50688 0.24442 0.11939 0.0
C356 C 0.54703 0.27727 0.16073 0.0
O357 O 0.54255 0.29457 0.15794 0.0
O358 O 0.52258 0.29074 0.11678 0.0
C359 C 0.51936 0.23395 0.11618 0.0
O360 O 0.53707 0.23833 0.12316 0.0
C361 C 0.48717 0.26171 0.16447 0.0
O362 O 0.49608 0.24711 0.16943 0.0
O363 O 0.53711 0.26356 0.15226 0.0
H364 H 0.23451 0.74787 0.85192 0.0
H365 H 0.23846 0.76966 0.87772 0.0
H366 H 0.23012 0.81673 0.83824 0.0
H367 H 0.226 0.79502 0.81247 0.0
H368 H 0.26205 0.82494 0.86461 0.0
H369 H 0.194 0.7981 0.86303 0.0
H370 H 0.16631 0.77166 0.8635 0.0
H371 H 0.18531 0.75097 0.91803 0.0
H372 H 0.21329 0.77715 0.91775 0.0
H373 H 0.2459 0.89514 0.92513 0.0
H374 H 0.24318 0.87243 0.90046 0.0
H375 H 0.23914 0.82541 0.94268 0.0
H376 H 0.24116 0.84803 0.96742 0.0
H377 H 0.21444 0.8161 0.91544 0.0
H378 H 0.28166 0.84235 0.91835 0.0
H379 H 0.31032 0.86771 0.9185 0.0
H380 H 0.29473 0.88808 0.86272 0.0
H381 H 0.26581 0.86299 0.86234 0.0
C382 C 0.23366 0.7629 0.84878 0.0
C383 C 0.22987 0.76978 0.83026 0.0
C384 C 0.23583 0.77528 0.86349 0.0
C385 C 0.23448 0.79476 0.85985 0.0
C386 C 0.23119 0.80174 0.84131 0.0
C387 C 0.22874 0.78933 0.82665 0.0
C388 C 0.23612 0.80785 0.87541 0.0
C389 C 0.25156 0.82317 0.87565 0.0
C390 C 0.22272 0.80513 0.89005 0.0
C391 C 0.20586 0.78945 0.89027 0.0
C392 C 0.19237 0.78781 0.87504 0.0
C393 C 0.17661 0.77289 0.87529 0.0
C394 C 0.17408 0.75961 0.89076 0.0
C395 C 0.1873 0.76125 0.90604 0.0
C396 C 0.20311 0.77613 0.90585 0.0
C397 C 0.2444 0.87996 0.92917 0.0
C398 C 0.24383 0.8734 0.94824 0.0
C399 C 0.24297 0.86698 0.91504 0.0
C400 C 0.24133 0.84719 0.91969 0.0
C401 C 0.24045 0.84059 0.93873 0.0
C402 C 0.24164 0.85355 0.95286 0.0
C403 C 0.24038 0.8334 0.90469 0.0
C404 C 0.22505 0.8179 0.90452 0.0
C405 C 0.25406 0.83581 0.89024 0.0
C406 C 0.27147 0.8509 0.89039 0.0
C407 C 0.28426 0.85232 0.90617 0.0
C408 C 0.30057 0.86664 0.90629 0.0
C409 C 0.30432 0.87953 0.89065 0.0
C410 C 0.29179 0.8781 0.87484 0.0
C411 C 0.27545 0.86383 0.87466 0.0
H412 H 0.31695 0.8906 0.89077 0.0
H413 H 0.16186 0.74807 0.89093 0.0
H414 H 0.04528 0.55142 0.44798 0.0
H415 H 0.06195 0.53617 0.42504 0.0
H416 H 0.02242 0.55243 0.38109 0.0
H417 H 0.00539 0.56711 0.40409 0.0
H418 H 0.02835 0.51721 0.37705 0.0
H419 H 0.06899 0.57762 0.3877 0.0
H420 H 0.08853 0.60197 0.40677 0.0
H421 H 0.12589 0.56164 0.42563 0.0
H422 H 0.10641 0.53697 0.40683 0.0
H423 H 0.08087 0.51776 0.29445 0.0
H424 H 0.06418 0.52602 0.3214 0.0
H425 H 0.10424 0.50111 0.35924 0.0
H426 H 0.12112 0.49273 0.33223 0.0
H427 H 0.09888 0.5373 0.36865 0.0
H428 H 0.05946 0.47793 0.35467 0.0
H429 H 0.04006 0.4546 0.33443 0.0
H430 H 1.0004 0.49408 0.32068 0.0
H431 H 0.01972 0.51777 0.34063 0.0
C432 C 0.03999 0.55144 0.43347 0.0
C433 C 0.02378 0.56007 0.42787 0.0
C434 C 0.04962 0.54289 0.42035 0.0
C435 C 0.04353 0.54325 0.40129 0.0
C436 C 0.02732 0.55184 0.39572 0.0
C437 C 0.01761 0.56024 0.40885 0.0
C438 C 0.05418 0.53509 0.38698 0.0
C439 C 0.04375 0.52173 0.37513 0.0
C440 C 0.07438 0.54057 0.38476 0.0
C441 C 0.08611 0.55539 0.39604 0.0
C442 C 0.08128 0.5739 0.39603 0.0
C443 C 0.09236 0.58777 0.40677 0.0
C444 C 0.1084 0.58334 0.41745 0.0
C445 C 0.11343 0.56504 0.41738 0.0
C446 C 0.10239 0.55112 0.40668 0.0
C447 C 0.0861 0.51392 0.30849 0.0
C448 C 0.10233 0.50458 0.31119 0.0
C449 C 0.07648 0.51859 0.32388 0.0
C450 C 0.08287 0.51404 0.34231 0.0
C451 C 0.09905 0.50469 0.34511 0.0
C452 C 0.10862 0.49986 0.32968 0.0
C453 C 0.07296 0.51973 0.35855 0.0
C454 C 0.08353 0.53261 0.37074 0.0
C455 C 0.05287 0.51394 0.36098 0.0
C456 C 0.04113 0.49968 0.34905 0.0
C457 C 0.04668 0.4817 0.34722 0.0
C458 C 0.03568 0.4684 0.33582 0.0
C459 C 0.01903 0.47287 0.32624 0.0
C460 C 0.01331 0.49064 0.3281 0.0
C461 C 0.02427 0.504 0.33947 0.0
H462 H 0.01053 0.46256 0.31742 0.0
H463 H 0.11697 0.59409 0.42575 0.0
H464 H 0.79812 0.79303 0.86757 0.0
H465 H 0.7973 0.76942 0.89435 0.0
H466 H 0.80122 0.72514 0.85662 0.0
H467 H 0.80151 0.74856 0.82973 0.0
H468 H 0.77458 0.71293 0.88304 0.0
H469 H 0.84062 0.74465 0.88192 0.0
H470 H 0.86697 0.77239 0.88155 0.0
H471 H 0.84932 0.78796 0.93466 0.0
H472 H 0.82268 0.76044 0.93522 0.0
H473 H 0.79843 0.64204 0.95078 0.0
H474 H 0.7997 0.66574 0.9241 0.0
H475 H 0.79793 0.71034 0.96208 0.0
H476 H 0.79711 0.6868 0.98887 0.0
H477 H 0.82336 0.72246 0.93551 0.0
H478 H 0.75731 0.69043 0.9367 0.0
H479 H 0.73122 0.66242 0.93708 0.0
H480 H 0.74889 0.64733 0.8838 0.0
H481 H 0.77526 0.67509 0.88323 0.0
C482 C 0.79861 0.77823 0.86496 0.0
C483 C 0.79997 0.77269 0.84652 0.0
C484 C 0.79831 0.76478 0.88029 0.0
C485 C 0.79943 0.74555 0.87751 0.0
C486 C 0.80042 0.73991 0.8591 0.0
C487 C 0.80075 0.75335 0.84377 0.0
C488 C 0.79965 0.73131 0.89377 0.0
C489 C 0.78538 0.71489 0.89441 0.0
C490 C 0.8135 0.73407 0.9088 0.0
C491 C 0.82954 0.7506 0.90852 0.0
C492 C 0.84226 0.75408 0.89345 0.0
C493 C 0.85727 0.76975 0.89321 0.0
C494 C 0.85979 0.78196 0.90804 0.0
C495 C 0.84733 0.7785 0.92316 0.0
C496 C 0.83229 0.76286 0.92346 0.0
C497 C 0.79841 0.6569 0.95347 0.0
C498 C 0.79757 0.66251 0.97195 0.0
C499 C 0.79903 0.67043 0.93819 0.0
C500 C 0.79857 0.68978 0.94105 0.0
C501 C 0.79824 0.69549 0.95952 0.0
C502 C 0.79774 0.682 0.97482 0.0
C503 C 0.79828 0.70405 0.9248 0.0
C504 C 0.81253 0.72049 0.92417 0.0
C505 C 0.7844 0.70131 0.90979 0.0
C506 C 0.76838 0.68475 0.91001 0.0
C507 C 0.75571 0.68107 0.92513 0.0
C508 C 0.74086 0.66525 0.92537 0.0
C509 C 0.73844 0.65308 0.9105 0.0
C510 C 0.75081 0.65675 0.89532 0.0
C511 C 0.76569 0.67254 0.89502 0.0
H512 H 0.72697 0.64082 0.91071 0.0
H513 H 0.87142 0.79408 0.90784 0.0
H514 H 0.00275 0.97603 0.4266 0.0
H515 H 0.9826 0.9775 0.3977 0.0
H516 H 0.98555 0.03844 0.40169 0.0
H517 H 0.00569 0.03699 0.43058 0.0
H518 H 0.94874 0.02061 0.3943 0.0
H519 H 0.01171 0.02218 0.36979 0.0
H520 H 0.04288 0.01108 0.36632 0.0
H521 H 0.01298 0.95766 0.34713 0.0
H522 H 0.98159 0.96834 0.35074 0.0
H523 H 0.91127 0.0419 0.30242 0.0
H524 H 0.93217 0.04078 0.3307 0.0
H525 H 0.92995 0.97994 0.32678 0.0
H526 H 0.90916 0.98093 0.29841 0.0
H527 H 0.96661 0.99793 0.334 0.0
H528 H 0.90371 0.99611 0.35881 0.0
H529 H 0.87247 0.00708 0.36228 0.0
H530 H 0.9022 0.0608 0.38096 0.0
H531 H 0.93365 0.05024 0.37734 0.0
C532 C 0.99924 0.98974 0.42115 0.0
C533 C 0.00603 0.00645 0.43058 0.0
C534 C 0.98776 0.99058 0.40467 0.0
C535 C 0.98276 0.00813 0.39743 0.0
C536 C 0.98931 0.02478 0.407 0.0
C537 C 0.00086 0.02396 0.42342 0.0
C538 C 0.97038 0.00903 0.38008 0.0
C539 C 0.95278 0.01591 0.38104 0.0
C540 C 0.97544 0.00246 0.36291 0.0
C541 C 0.99429 0.99599 0.36073 0.0
C542 C 0.01177 0.008 0.36499 0.0
C543 C 0.02948 0.0018 0.36297 0.0
C544 C 0.02991 0.98366 0.35656 0.0
C545 C 0.01262 0.9717 0.35212 0.0
C546 C 0.99487 0.97783 0.35414 0.0
C547 C 0.9152 0.02826 0.30757 0.0
C548 C 0.90849 0.01148 0.29818 0.0
C549 C 0.9271 0.02764 0.32378 0.0
C550 C 0.93248 0.01024 0.33094 0.0
C551 C 0.92596 0.99351 0.3215 0.0
C552 C 0.91401 0.9941 0.30533 0.0
C553 C 0.94498 0.0095 0.34822 0.0
C554 C 0.9626 0.00265 0.34725 0.0
C555 C 0.93993 0.01607 0.3654 0.0
C556 C 0.92104 0.02245 0.36762 0.0
C557 C 0.9036 0.01032 0.36351 0.0
C558 C 0.88585 0.01646 0.36553 0.0
C559 C 0.88535 0.03465 0.37178 0.0
C560 C 0.90261 0.04672 0.37608 0.0
C561 C 0.9204 0.04066 0.37406 0.0
H562 H 0.8716 0.03937 0.37335 0.0
H563 H 0.04364 0.97889 0.35499 0.0
H564 H 0.24183 0.26325 0.68409 0.0
H565 H 0.2528 0.24078 0.66387 0.0
H566 H 0.20001 0.23904 0.63009 0.0
H567 H 0.18872 0.26092 0.65072 0.0
H568 H 0.20889 0.20441 0.63463 0.0
H569 H 0.24368 0.26716 0.61686 0.0
H570 H 0.26491 0.29782 0.62222 0.0
H571 H 0.31114 0.26752 0.64126 0.0
H572 H 0.29008 0.23665 0.63623 0.0
H573 H 0.23547 0.17427 0.54865 0.0
H574 H 0.22629 0.19255 0.57365 0.0
H575 H 0.27971 0.18683 0.60423 0.0
H576 H 0.28922 0.16871 0.57898 0.0
H577 H 0.27199 0.22312 0.60376 0.0
H578 H 0.23707 0.1601 0.61826 0.0
H579 H 0.21559 0.13013 0.61093 0.0
H580 H 0.16911 0.16163 0.59638 0.0
H581 H 0.19038 0.19184 0.6034 0.0
C582 C 0.23241 0.25775 0.67258 0.0
C583 C 0.21419 0.26344 0.66923 0.0
C584 C 0.23878 0.24507 0.66091 0.0
C585 C 0.22731 0.23831 0.64534 0.0
C586 C 0.20907 0.24393 0.64207 0.0
C587 C 0.20263 0.25643 0.65384 0.0
C588 C 0.23443 0.22587 0.63206 0.0
C589 C 0.22263 0.20858 0.62779 0.0
C590 C 0.25255 0.23106 0.62341 0.0
C591 C 0.26524 0.2496 0.62637 0.0
C592 C 0.25833 0.26703 0.62232 0.0
C593 C 0.27034 0.28445 0.62528 0.0
C594 C 0.28934 0.28462 0.63213 0.0
C595 C 0.2964 0.26737 0.63599 0.0
C596 C 0.28444 0.24991 0.63308 0.0
C597 C 0.24529 0.17684 0.56069 0.0
C598 C 0.26307 0.16996 0.56184 0.0
C599 C 0.23996 0.18723 0.57504 0.0
C600 C 0.25217 0.19081 0.59096 0.0
C601 C 0.27003 0.18415 0.5921 0.0
C602 C 0.27542 0.17377 0.57769 0.0
C603 C 0.24634 0.20184 0.60617 0.0
C604 C 0.25837 0.21885 0.61079 0.0
C605 C 0.22836 0.19647 0.61502 0.0
C606 C 0.21537 0.17826 0.61125 0.0
C607 C 0.22229 0.16065 0.61343 0.0
C608 C 0.21015 0.14362 0.60933 0.0
C609 C 0.19101 0.14398 0.60316 0.0
C610 C 0.18394 0.16137 0.60116 0.0
C611 C 0.19602 0.17846 0.60523 0.0
H612 H 0.18165 0.13078 0.59996 0.0
H613 H 0.29862 0.29811 0.63442 0.0
H614 H 0.53181 0.5407 0.59131 0.0
H615 H 0.51229 0.53785 0.61934 0.0
H616 H 0.46196 0.54563 0.58449 0.0
H617 H 0.48146 0.54861 0.55639 0.0
H618 H 0.46479 0.56738 0.61373 0.0
H619 H 0.46762 0.50138 0.60512 0.0
H620 H 0.48346 0.47344 0.60058 0.0
H621 H 0.51447 0.48116 0.65351 0.0
H622 H 0.49902 0.50932 0.65825 0.0
H623 H 0.39677 0.54126 0.68646 0.0
H624 H 0.41475 0.54281 0.65753 0.0
H625 H 0.46644 0.5352 0.69032 0.0
H626 H 0.44849 0.53324 0.71924 0.0
H627 H 0.46196 0.5128 0.66153 0.0
H628 H 0.45976 0.57935 0.66965 0.0
H629 H 0.44397 0.60735 0.6741 0.0
H630 H 0.41168 0.59851 0.62198 0.0
H631 H 0.42709 0.5703 0.61734 0.0
C632 C 0.51653 0.54153 0.5896 0.0
C633 C 0.50817 0.54485 0.57164 0.0
C634 C 0.50538 0.53992 0.60563 0.0
C635 C 0.48561 0.54135 0.60401 0.0
C636 C 0.4772 0.54452 0.58608 0.0
C637 C 0.48835 0.54623 0.57005 0.0
C638 C 0.47383 0.5401 0.62106 0.0
C639 C 0.46393 0.5553 0.62404 0.0
C640 C 0.47304 0.52455 0.63473 0.0
C641 C 0.48229 0.50756 0.63195 0.0
C642 C 0.47793 0.49721 0.61573 0.0
C643 C 0.48682 0.48132 0.61313 0.0
C644 C 0.5 0.47556 0.62673 0.0
C645 C 0.50428 0.48565 0.64298 0.0
C646 C 0.49544 0.50156 0.64564 0.0
C647 C 0.41198 0.54001 0.68752 0.0
C648 C 0.4212 0.53716 0.70517 0.0
C649 C 0.42227 0.54095 0.67097 0.0
C650 C 0.442 0.5393 0.67175 0.0
C651 C 0.45122 0.5365 0.68936 0.0
C652 C 0.44094 0.53545 0.70589 0.0
C653 C 0.45303 0.54014 0.65426 0.0
C654 C 0.46278 0.52485 0.65119 0.0
C655 C 0.45366 0.5556 0.64051 0.0
C656 C 0.44443 0.5726 0.64325 0.0
C657 C 0.44918 0.58329 0.65921 0.0
C658 C 0.44032 0.59921 0.66176 0.0
C659 C 0.42679 0.60467 0.64836 0.0
C660 C 0.42214 0.59425 0.63236 0.0
C661 C 0.43094 0.57831 0.62976 0.0
H662 H 0.41995 0.61701 0.65036 0.0
H663 H 0.50687 0.46325 0.62469 0.0
H664 H 0.7974 0.25603 0.6658 0.0
H665 H 0.79339 0.27416 0.63595 0.0
H666 H 0.75185 0.30308 0.66071 0.0
H667 H 0.75535 0.28444 0.69055 0.0
H668 H 0.73941 0.29337 0.62686 0.0
H669 H 0.79909 0.32504 0.65325 0.0
H670 H 0.83211 0.32767 0.66732 0.0
H671 H 0.85198 0.30668 0.61766 0.0
H672 H 0.819 0.30368 0.60339 0.0
H673 H 0.74261 0.37107 0.55705 0.0
H674 H 0.74572 0.35194 0.58663 0.0
H675 H 0.78069 0.31762 0.55953 0.0
H676 H 0.77758 0.33658 0.52987 0.0
H677 H 0.79634 0.33016 0.5943 0.0
H678 H 0.73577 0.29912 0.5681 0.0
H679 H 0.70269 0.29779 0.55443 0.0
H680 H 0.68454 0.31941 0.60454 0.0
H681 H 0.7176 0.32113 0.61841 0.0
C682 C 0.78727 0.2661 0.6649 0.0
C683 C 0.77644 0.26864 0.68049 0.0
C684 C 0.78511 0.2766 0.64783 0.0
C685 C 0.77246 0.29015 0.64611 0.0
C686 C 0.76166 0.29269 0.66166 0.0
C687 C 0.76368 0.28208 0.67869 0.0
C688 C 0.77043 0.30164 0.62811 0.0
C689 C 0.75185 0.30162 0.61989 0.0
C690 C 0.78668 0.31215 0.6188 0.0
C691 C 0.80653 0.31395 0.62734 0.0
C692 C 0.81047 0.32084 0.64539 0.0
C693 C 0.82918 0.32242 0.65339 0.0
C694 C 0.84412 0.3173 0.64341 0.0
C695 C 0.84039 0.31062 0.62539 0.0
C696 C 0.82169 0.30899 0.61733 0.0
C697 C 0.75093 0.35943 0.55737 0.0
C698 C 0.75983 0.35532 0.54111 0.0
C699 C 0.75264 0.34849 0.57426 0.0
C700 C 0.76335 0.33332 0.57521 0.0
C701 C 0.77235 0.32927 0.55906 0.0
C702 C 0.77049 0.34007 0.54212 0.0
C703 C 0.76537 0.32183 0.59314 0.0
C704 C 0.78394 0.32189 0.60132 0.0
C705 C 0.74912 0.31153 0.6025 0.0
C706 C 0.72921 0.31044 0.59422 0.0
C707 C 0.72477 0.30375 0.57614 0.0
C708 C 0.70601 0.30289 0.56837 0.0
C709 C 0.69154 0.30856 0.57859 0.0
C710 C 0.69578 0.31505 0.59663 0.0
C711 C 0.71452 0.31595 0.60446 0.0
H712 H 0.67702 0.30789 0.57255 0.0
H713 H 0.85861 0.31854 0.64963 0.0
H714 H 0.52382 0.97289 0.58812 0.0
H715 H 0.54358 0.97286 0.6172 0.0
H716 H 0.49495 0.98208 0.64865 0.0
H717 H 0.47495 0.98182 0.61964 0.0
H718 H 0.52828 0.00549 0.6587 0.0
H719 H 0.50804 0.9384 0.65018 0.0
H720 H 0.50366 0.90895 0.63281 0.0
H721 H 0.5652 0.91443 0.62755 0.0
H722 H 0.56993 0.94408 0.64467 0.0
H723 H 0.56636 0.9859 0.75005 0.0
H724 H 0.54615 0.98443 0.72126 0.0
H725 H 0.59396 0.97246 0.69022 0.0
H726 H 0.61422 0.97356 0.71908 0.0
H727 H 0.56101 0.95035 0.67988 0.0
H728 H 0.58156 0.01731 0.68786 0.0
H729 H 0.58641 0.04705 0.7048 0.0
H730 H 0.52499 0.04228 0.71051 0.0
H731 H 0.51979 0.01234 0.69382 0.0
C732 C 0.51723 0.9747 0.60124 0.0
C733 C 0.49774 0.97725 0.60154 0.0
C734 C 0.52858 0.97473 0.61785 0.0
C735 C 0.52068 0.97728 0.63512 0.0
C736 C 0.50134 0.98011 0.63546 0.0
C737 C 0.48995 0.98003 0.61886 0.0
C738 C 0.53266 0.97711 0.65281 0.0
C739 C 0.53521 0.99333 0.66348 0.0
C740 C 0.54212 0.96144 0.65877 0.0
C741 C 0.53932 0.94356 0.64855 0.0
C742 C 0.52063 0.93341 0.64519 0.0
C743 C 0.51808 0.91667 0.63541 0.0
C744 C 0.53414 0.90985 0.62904 0.0
C745 C 0.55278 0.91974 0.63248 0.0
C746 C 0.5554 0.93651 0.64223 0.0
C747 C 0.57258 0.98288 0.73713 0.0
C748 C 0.59195 0.97996 0.73686 0.0
C749 C 0.56102 0.98213 0.72065 0.0
C750 C 0.56862 0.97863 0.70351 0.0
C751 C 0.5878 0.97523 0.70327 0.0
C752 C 0.59937 0.97591 0.71978 0.0
C753 C 0.55661 0.97872 0.68582 0.0
C754 C 0.55406 0.96251 0.67512 0.0
C755 C 0.54723 0.99444 0.67978 0.0
C756 C 0.5503 0.01248 0.68975 0.0
C757 C 0.56909 0.02252 0.69285 0.0
C758 C 0.5719 0.03942 0.70239 0.0
C759 C 0.55602 0.04652 0.70877 0.0
C760 C 0.53728 0.03675 0.70558 0.0
C761 C 0.53439 0.01982 0.69607 0.0
H762 H 0.55822 0.05961 0.71615 0.0
H763 H 0.53214 0.89688 0.62147 0.0
H764 H 0.80963 0.21971 0.77943 0.0
H765 H 0.83679 0.22738 0.80184 0.0
H766 H 0.8752 0.24458 0.75578 0.0
H767 H 0.8481 0.23669 0.73325 0.0
H768 H 0.89019 0.22105 0.78324 0.0
H769 H 0.86091 0.27804 0.7798 0.0
H770 H 0.83403 0.29643 0.78109 0.0
H771 H 0.82488 0.27596 0.83866 0.0
H772 H 0.85154 0.25721 0.83763 0.0
H773 H 0.97065 0.26501 0.83657 0.0
H774 H 0.94378 0.25878 0.81373 0.0
H775 H 0.90354 0.24757 0.85896 0.0
H776 H 0.93035 0.25437 0.88189 0.0
H777 H 0.88947 0.26829 0.8315 0.0
H778 H 0.91776 0.21085 0.83529 0.0
H779 H 0.94407 0.19167 0.83444 0.0
H780 H 0.95438 0.21179 0.77695 0.0
H781 H 0.92829 0.2313 0.77754 0.0
C782 C 0.82388 0.22504 0.77408 0.0
C783 C 0.82676 0.2276 0.75459 0.0
C784 C 0.83934 0.22954 0.78689 0.0
C785 C 0.85796 0.23669 0.78045 0.0
C786 C 0.86092 0.23913 0.76101 0.0
C787 C 0.84543 0.23475 0.74819 0.0
C788 C 0.87438 0.24139 0.79405 0.0
C789 C 0.89019 0.23158 0.79363 0.0
C790 C 0.87408 0.25474 0.8079 0.0
C791 C 0.85811 0.26608 0.80858 0.0
C792 C 0.85307 0.27733 0.79269 0.0
C793 C 0.83789 0.28785 0.79338 0.0
C794 C 0.82773 0.28732 0.80993 0.0
C795 C 0.83276 0.27633 0.82584 0.0
C796 C 0.84791 0.26577 0.82522 0.0
C797 C 0.95608 0.26122 0.84167 0.0
C798 C 0.95264 0.26009 0.86106 0.0
C799 C 0.94073 0.25758 0.82859 0.0
C800 C 0.92164 0.25238 0.83462 0.0
C801 C 0.91814 0.25151 0.85396 0.0
C802 C 0.93349 0.25536 0.86706 0.0
C803 C 0.90534 0.24792 0.82077 0.0
C804 C 0.88952 0.25777 0.82112 0.0
C805 C 0.90556 0.23448 0.80694 0.0
C806 C 0.92119 0.22268 0.80652 0.0
C807 C 0.92573 0.21129 0.82251 0.0
C808 C 0.94059 0.20034 0.82207 0.0
C809 C 0.95092 0.20055 0.80567 0.0
C810 C 0.94638 0.21166 0.78966 0.0
C811 C 0.93154 0.22266 0.79003 0.0
H812 H 0.96242 0.19207 0.80536 0.0
H813 H 0.81598 0.29547 0.81044 0.0
H814 H 0.4711 0.94799 0.49357 0.0
H815 H 0.47203 0.92116 0.47378 0.0
H816 H 0.51233 0.89906 0.51358 0.0
H817 H 0.51159 0.92612 0.53323 0.0
H818 H 0.52432 0.8992 0.47852 0.0
H819 H 0.46514 0.87732 0.50996 0.0
H820 H 0.43271 0.87919 0.52118 0.0
H821 H 0.41151 0.88599 0.46409 0.0
H822 H 0.4439 0.88444 0.45252 0.0
H823 H 0.51886 0.80945 0.43732 0.0
H824 H 0.5166 0.83399 0.45935 0.0
H825 H 0.4788 0.86 0.41984 0.0
H826 H 0.48088 0.83547 0.39776 0.0
H827 H 0.46556 0.85685 0.45581 0.0
H828 H 0.52538 0.87989 0.42471 0.0
H829 H 0.55787 0.87775 0.41379 0.0
H830 H 0.5778 0.86824 0.47095 0.0
H831 H 0.54534 0.87007 0.48219 0.0
C832 C 0.48011 0.93736 0.49805 0.0
C833 C 0.49153 0.93921 0.5147 0.0
C834 C 0.48056 0.92199 0.48683 0.0
C835 C 0.49219 0.90803 0.49223 0.0
C836 C 0.50331 0.90969 0.5091 0.0
C837 C 0.50288 0.92509 0.5203 0.0
C838 C 0.49328 0.89211 0.47995 0.0
C839 C 0.51149 0.88974 0.47381 0.0
C840 C 0.47652 0.88001 0.47348 0.0
C841 C 0.45701 0.88094 0.48038 0.0
C842 C 0.45361 0.87938 0.4998 0.0
C843 C 0.43522 0.88035 0.50622 0.0
C844 C 0.42007 0.88276 0.49336 0.0
C845 C 0.42327 0.88415 0.47404 0.0
C846 C 0.44163 0.88321 0.46754 0.0
C847 C 0.51007 0.82039 0.4333 0.0
C848 C 0.50011 0.82054 0.41573 0.0
C849 C 0.50883 0.83443 0.44589 0.0
C850 C 0.49765 0.8489 0.44117 0.0
C851 C 0.48751 0.84896 0.42376 0.0
C852 C 0.4888 0.83497 0.41112 0.0
C853 C 0.49656 0.86405 0.45434 0.0
C854 C 0.47837 0.86627 0.46062 0.0
C855 C 0.51334 0.87597 0.461 0.0
C856 C 0.53288 0.87491 0.45427 0.0
C857 C 0.53665 0.87718 0.43494 0.0
C858 C 0.55507 0.87606 0.42869 0.0
C859 C 0.56988 0.87281 0.44166 0.0
C860 C 0.56631 0.87073 0.46092 0.0
C861 C 0.54791 0.87182 0.46723 0.0
H862 H 0.58413 0.87194 0.4368 0.0
H863 H 0.40585 0.88351 0.49836 0.0
H864 H 0.17048 0.32905 0.73813 0.0
H865 H 0.14319 0.32651 0.75899 0.0
H866 H 0.1521 0.26947 0.77849 0.0
H867 H 0.17912 0.2718 0.75719 0.0
H868 H 0.11495 0.27035 0.7742 0.0
H869 H 0.16808 0.30947 0.80448 0.0
H870 H 0.19497 0.3365 0.80691 0.0
H871 H 0.15517 0.37645 0.79663 0.0
H872 H 0.12807 0.34964 0.79387 0.0
H873 H 0.06202 0.26404 0.85786 0.0
H874 H 0.08854 0.26657 0.83614 0.0
H875 H 0.07444 0.32027 0.81202 0.0
H876 H 0.04782 0.31789 0.83374 0.0
H877 H 0.11399 0.32111 0.81877 0.0
H878 H 0.06075 0.28099 0.78901 0.0
H879 H 0.03433 0.25342 0.78742 0.0
H880 H 0.07522 0.21462 0.79809 0.0
H881 H 0.10186 0.24198 0.80001 0.0
C882 C 0.16657 0.31597 0.74686 0.0
C883 C 0.17698 0.30068 0.74618 0.0
C884 C 0.15103 0.31454 0.75881 0.0
C885 C 0.14584 0.29795 0.77063 0.0
C886 C 0.15587 0.28244 0.76956 0.0
C887 C 0.17128 0.28377 0.7574 0.0
C888 C 0.13012 0.2969 0.78425 0.0
C889 C 0.11489 0.28132 0.78411 0.0
C890 C 0.12983 0.31139 0.79699 0.0
C891 C 0.14607 0.32754 0.7988 0.0
C892 C 0.16508 0.32402 0.80261 0.0
C893 C 0.18036 0.3393 0.80406 0.0
C894 C 0.17679 0.35818 0.80188 0.0
C895 C 0.15792 0.36181 0.79829 0.0
C896 C 0.14259 0.34658 0.7968 0.0
C897 C 0.06458 0.27646 0.84801 0.0
C898 C 0.05274 0.29074 0.84748 0.0
C899 C 0.0797 0.27782 0.83555 0.0
C900 C 0.0833 0.29349 0.82233 0.0
C901 C 0.07185 0.30803 0.82208 0.0
C902 C 0.05663 0.30662 0.83448 0.0
C903 C 0.09891 0.29459 0.80868 0.0
C904 C 0.11409 0.31016 0.80884 0.0
C905 C 0.09926 0.28001 0.7961 0.0
C906 C 0.08327 0.26354 0.79483 0.0
C907 C 0.06409 0.26658 0.79116 0.0
C908 C 0.04908 0.25099 0.79018 0.0
C909 C 0.05309 0.23228 0.7927 0.0
C910 C 0.07213 0.22912 0.79616 0.0
C911 C 0.0872 0.24467 0.79718 0.0
H912 H 0.04145 0.22023 0.79194 0.0
H913 H 0.18863 0.36999 0.803 0.0
H914 H 0.55851 0.59419 0.51231 0.0
H915 H 0.55464 0.62177 0.4905 0.0
H916 H 0.49339 0.601 0.48512 0.0
H917 H 0.49713 0.57358 0.50715 0.0
H918 H 0.51344 0.61393 0.4498 0.0
H919 H 0.50469 0.63411 0.51207 0.0
H920 H 0.5144 0.63928 0.54524 0.0
H921 H 0.56592 0.67685 0.52776 0.0
H922 H 0.55664 0.67165 0.49447 0.0
H923 H 0.4791 0.6957 0.40763 0.0
H924 H 0.48442 0.66751 0.4276 0.0
H925 H 0.54073 0.69682 0.44482 0.0
H926 H 0.53513 0.72533 0.42545 0.0
H927 H 0.52432 0.67909 0.4739 0.0
H928 H 0.53402 0.66053 0.41224 0.0
H929 H 0.52624 0.65515 0.37874 0.0
H930 H 0.47594 0.61459 0.394 0.0
H931 H 0.48327 0.61992 0.42759 0.0
C932 C 0.54428 0.59546 0.50632 0.0
C933 C 0.5281 0.58185 0.5114 0.0
C934 C 0.54208 0.61119 0.49395 0.0
C935 C 0.52372 0.61338 0.48629 0.0
C936 C 0.50765 0.59951 0.4909 0.0
C937 C 0.50979 0.58396 0.50351 0.0
C938 C 0.52115 0.63051 0.47398 0.0
C939 C 0.51561 0.62818 0.45504 0.0
C940 C 0.52455 0.64909 0.4808 0.0
C941 C 0.53008 0.65231 0.5008 0.0
C942 C 0.51818 0.64332 0.51531 0.0
C943 C 0.52359 0.64629 0.53413 0.0
C944 C 0.5408 0.65834 0.53861 0.0
C945 C 0.55261 0.66749 0.52427 0.0
C946 C 0.54728 0.66455 0.50542 0.0
C947 C 0.49263 0.69612 0.41565 0.0
C948 C 0.50671 0.71272 0.41494 0.0
C949 C 0.49572 0.67994 0.42698 0.0
C950 C 0.51314 0.67987 0.4375 0.0
C951 C 0.52718 0.69649 0.43684 0.0
C952 C 0.52398 0.71277 0.42574 0.0
C953 C 0.51653 0.66265 0.44951 0.0
C954 C 0.52222 0.66491 0.46849 0.0
C955 C 0.51355 0.64404 0.44262 0.0
C956 C 0.5091 0.64077 0.42243 0.0
C957 C 0.52122 0.65057 0.40844 0.0
C958 C 0.5169 0.64751 0.38944 0.0
C959 C 0.50058 0.63457 0.38424 0.0
C960 C 0.48856 0.62463 0.39804 0.0
C961 C 0.4928 0.62765 0.41707 0.0
H962 H 0.49727 0.63222 0.36952 0.0
H963 H 0.54496 0.66063 0.55319 0.0
H964 H 0.83327 0.75614 0.76283 0.0
H965 H 0.86119 0.75192 0.74494 0.0
H966 H 0.87725 0.81336 0.7372 0.0
H967 H 0.84893 0.81757 0.75475 0.0
H968 H 0.8796 0.79742 0.70517 0.0
H969 H 0.90257 0.78622 0.7683 0.0
H970 H 0.90175 0.77161 0.80073 0.0
H971 H 0.90022 0.71597 0.77963 0.0
H972 H 0.90076 0.73022 0.74704 0.0
H973 H 0.97246 0.7936 0.66977 0.0
H974 H 0.94658 0.79957 0.68948 0.0
H975 H 0.92548 0.73882 0.69557 0.0
H976 H 0.95143 0.73269 0.676 0.0
H977 H 0.92682 0.75571 0.72908 0.0
H978 H 0.90272 0.76759 0.66566 0.0
H979 H 0.90414 0.78289 0.63349 0.0
H980 H 0.90874 0.83834 0.65583 0.0
H981 H 0.9076 0.82338 0.68816 0.0
C982 C 0.84282 0.76872 0.75738 0.0
C983 C 0.83904 0.78719 0.76017 0.0
C984 C 0.85883 0.76631 0.74724 0.0
C985 C 0.87149 0.78233 0.73991 0.0
C986 C 0.86772 0.8008 0.74275 0.0
C987 C 0.85164 0.8032 0.7528 0.0
C988 C 0.88828 0.77975 0.72878 0.0
C989 C 0.8901 0.78855 0.71054 0.0
C990 C 0.90181 0.7679 0.73562 0.0
C991 C 0.90153 0.75927 0.75521 0.0
C992 C 0.90191 0.77085 0.77056 0.0
C993 C 0.90152 0.76264 0.78898 0.0
C994 C 0.90089 0.74287 0.79224 0.0
C995 C 0.90069 0.73128 0.77708 0.0
C996 C 0.90106 0.73942 0.75864 0.0
C997 C 0.96232 0.78149 0.67529 0.0
C998 C 0.96398 0.76266 0.67125 0.0
C999 C 0.9475 0.78494 0.68651 0.0
C1000 C 0.934 0.76965 0.69385 0.0
C1001 C 0.93575 0.75083 0.69004 0.0
C1002 C 0.95054 0.74736 0.67879 0.0
C1003 C 0.918 0.77325 0.70548 0.0
C1004 C 0.91635 0.76464 0.7238 0.0
C1005 C 0.90471 0.78538 0.69877 0.0
C1006 C 0.90527 0.79438 0.67933 0.0
C1007 C 0.90418 0.78306 0.66372 0.0
C1008 C 0.90491 0.79166 0.64546 0.0
C1009 C 0.90659 0.81158 0.64262 0.0
C1010 C 0.90747 0.82292 0.65805 0.0
C1011 C 0.90676 0.81438 0.67634 0.0
H1012 H 0.90715 0.81821 0.62847 0.0
H1013 H 0.90059 0.73654 0.80651 0.0
H1014 H 0.07496 0.94301 0.50091 0.0
H1015 H 0.06628 0.91361 0.52064 0.0
H1016 H 0.00619 0.92066 0.51625 0.0
H1017 H 0.01491 0.95069 0.49729 0.0
H1018 H 0.01548 0.91144 0.55123 0.0
H1019 H 0.0241 0.88643 0.49208 0.0
H1020 H 0.04092 0.88272 0.46314 0.0
H1021 H 0.08732 0.86312 0.49621 0.0
H1022 H 0.0709 0.86696 0.52538 0.0
H1023 H 0.98041 0.81784 0.59092 0.0
H1024 H 0.9871 0.8458 0.56871 0.0
H1025 H 0.04838 0.8449 0.57602 0.0
H1026 H 0.04185 0.81688 0.5982 0.0
H1027 H 0.03709 0.85029 0.5387 0.0
H1028 H 0.0284 0.87672 0.59784 0.0
H1029 H 0.01095 0.88016 0.62648 0.0
H1030 H 0.96357 0.89664 0.59254 0.0
H1031 H 0.98064 0.89305 0.56368 0.0
C1032 C 0.0599 0.93841 0.50423 0.0
C1033 C 0.04565 0.94929 0.49755 0.0
C1034 C 0.05492 0.92143 0.51533 0.0
C1035 C 0.03554 0.91476 0.51975 0.0
C1036 C 0.02124 0.92547 0.51297 0.0
C1037 C 0.02623 0.94255 0.50198 0.0
C1038 C 0.03033 0.89701 0.53204 0.0
C1039 C 0.01992 0.89799 0.54829 0.0
C1040 C 0.03645 0.87953 0.52845 0.0
C1041 C 0.04634 0.87714 0.51093 0.0
C1042 C 0.03796 0.88146 0.49319 0.0
C1043 C 0.04741 0.87931 0.47674 0.0
C1044 C 0.0652 0.87273 0.47784 0.0
C1045 C 0.07355 0.86824 0.49539 0.0
C1046 C 0.06417 0.87037 0.51188 0.0
C1047 C 0.99532 0.82355 0.5878 0.0
C1048 C 0.01061 0.81517 0.5964 0.0
C1049 C 0.99911 0.83957 0.57514 0.0
C1050 C 0.01824 0.8475 0.57085 0.0
C1051 C 0.03352 0.83899 0.57915 0.0
C1052 C 0.02975 0.82303 0.59188 0.0
C1053 C 0.02236 0.86482 0.55784 0.0
C1054 C 0.03257 0.86374 0.54151 0.0
C1055 C 0.01595 0.88217 0.56128 0.0
C1056 C 0.00571 0.88442 0.57861 0.0
C1057 C 0.01419 0.88093 0.59649 0.0
C1058 C 0.00438 0.88293 0.61276 0.0
C1059 C 0.98614 0.88856 0.61133 0.0
C1060 C 0.97769 0.89226 0.59362 0.0
C1061 C 0.98743 0.89025 0.57731 0.0
H1062 H 0.97856 0.8901 0.62394 0.0
H1063 H 0.07249 0.87108 0.46508 0.0
H1064 H 0.20617 0.74792 0.74894 0.0
H1065 H 0.17763 0.74958 0.72805 0.0
H1066 H 0.14138 0.74315 0.77631 0.0
H1067 H 0.16985 0.74166 0.79723 0.0
H1068 H 0.12663 0.71959 0.74591 0.0
H1069 H 0.15263 0.78545 0.75749 0.0
H1070 H 0.17833 0.81372 0.75814 0.0
H1071 H 0.18461 0.81254 0.69852 0.0
H1072 H 0.15914 0.78406 0.69758 0.0
H1073 H 0.04047 0.74813 0.70799 0.0
H1074 H 0.06987 0.74473 0.72665 0.0
H1075 H 0.10422 0.76252 0.67775 0.0
H1076 H 0.07487 0.76643 0.65907 0.0
H1077 H 0.12101 0.77945 0.70714 0.0
H1078 H 0.09478 0.71501 0.69442 0.0
H1079 H 0.0699 0.68614 0.69286 0.0
H1080 H 0.06501 0.68349 0.75291 0.0
H1081 H 0.08967 0.71252 0.75482 0.0
C1082 C 0.19208 0.74672 0.75504 0.0
C1083 C 0.19017 0.74474 0.77467 0.0
C1084 C 0.17584 0.74774 0.74313 0.0
C1085 C 0.15746 0.74657 0.75068 0.0
C1086 C 0.15546 0.74409 0.77025 0.0
C1087 C 0.17171 0.74335 0.78215 0.0
C1088 C 0.14031 0.74838 0.73824 0.0
C1089 C 0.12526 0.73271 0.73755 0.0
C1090 C 0.13889 0.76533 0.72696 0.0
C1091 C 0.15414 0.78249 0.7275 0.0
C1092 C 0.15962 0.79111 0.74455 0.0
C1093 C 0.17412 0.80719 0.74497 0.0
C1094 C 0.18314 0.81489 0.72839 0.0
C1095 C 0.17764 0.80654 0.71136 0.0
C1096 C 0.16316 0.79044 0.71087 0.0
C1097 C 0.05427 0.75131 0.70119 0.0
C1098 C 0.05532 0.7575 0.68203 0.0
C1099 C 0.07107 0.74926 0.71186 0.0
C1100 C 0.08925 0.75307 0.70354 0.0
C1101 C 0.09036 0.75945 0.68446 0.0
C1102 C 0.07356 0.76165 0.6738 0.0
C1103 C 0.1071 0.75068 0.71486 0.0
C1104 C 0.12233 0.76624 0.71536 0.0
C1105 C 0.10878 0.73353 0.72581 0.0
C1106 C 0.09395 0.71605 0.72474 0.0
C1107 C 0.08829 0.70836 0.70728 0.0
C1108 C 0.07424 0.69195 0.70633 0.0
C1109 C 0.06585 0.68302 0.72277 0.0
C1110 C 0.07151 0.69045 0.74019 0.0
C1111 C 0.08553 0.70687 0.74121 0.0
H1112 H 0.05498 0.67031 0.72201 0.0
H1113 H 0.19436 0.82735 0.72874 0.0
H1114 H 0.02118 0.59414 0.51529 0.0
H1115 H 0.02608 0.62062 0.53617 0.0
H1116 H 0.96634 0.62775 0.52697 0.0
H1117 H 0.96155 0.60187 0.5054 0.0
H1118 H 0.9888 0.66152 0.52577 0.0
H1119 H 0.98214 0.6055 0.56794 0.0
H1120 H 0.98923 0.57423 0.58119 0.0
H1121 H 0.04785 0.59966 0.59406 0.0
H1122 H 0.04118 0.63104 0.58063 0.0
H1123 H 0.98638 0.72107 0.60221 0.0
H1124 H 0.97995 0.69385 0.58214 0.0
H1125 H 0.04039 0.68818 0.58612 0.0
H1126 H 0.04695 0.71529 0.6062 0.0
H1127 H 0.01651 0.65339 0.59051 0.0
H1128 H 0.0228 0.70937 0.54743 0.0
H1129 H 0.0151 0.74052 0.53447 0.0
H1130 H 0.95611 0.71475 0.52387 0.0
H1131 H 0.96341 0.68349 0.53701 0.0
C1132 C 0.00913 0.60146 0.51754 0.0
C1133 C 0.99094 0.5958 0.50871 0.0
C1134 C 0.01189 0.61647 0.52966 0.0
C1135 C 0.99649 0.62599 0.53338 0.0
C1136 C 0.9784 0.62055 0.5244 0.0
C1137 C 0.97565 0.60562 0.5122 0.0
C1138 C 0.99929 0.64174 0.54648 0.0
C1139 C 0.99459 0.65964 0.54002 0.0
C1140 C 0.00715 0.63942 0.56498 0.0
C1141 C 0.0112 0.62058 0.57311 0.0
C1142 C 0.99658 0.60439 0.57346 0.0
C1143 C 1.00052 0.58665 0.58102 0.0
C1144 C 0.01899 0.58495 0.58842 0.0
C1145 C 0.03356 0.60099 0.5883 0.0
C1146 C 0.0297 0.61876 0.58073 0.0
C1147 C 0.99829 0.71399 0.59888 0.0
C1148 C 0.0172 0.72041 0.60573 0.0
C1149 C 0.9946 0.69848 0.58736 0.0
C1150 C 0.00973 0.68912 0.58251 0.0
C1151 C 0.02851 0.69522 0.58968 0.0
C1152 C 0.03224 0.71077 0.6011 0.0
C1153 C 0.0061 0.67311 0.56975 0.0
C1154 C 0.01065 0.6552 0.57628 0.0
C1155 C 0.99799 0.67538 0.55137 0.0
C1156 C 0.9936 0.69414 0.54339 0.0
C1157 C 0.00815 0.71038 0.54248 0.0
C1158 C 0.00387 0.72805 0.53507 0.0
C1159 C 0.98512 0.72963 0.5284 0.0
C1160 C 0.97062 0.71352 0.52907 0.0
C1161 C 0.97483 0.69582 0.53648 0.0
H1162 H 0.98183 0.74332 0.52267 0.0
H1163 H 0.02201 0.5712 0.59427 0.0
H1164 H 0.76451 0.82337 0.21937 0.0
H1165 H 0.78728 0.85329 0.22055 0.0
H1166 H 0.7403 0.88373 0.22991 0.0
H1167 H 0.71727 0.85406 0.22765 0.0
H1168 H 0.76431 0.90441 0.20661 0.0
H1169 H 0.77106 0.87062 0.26636 0.0
H1170 H 0.77636 0.84324 0.28811 0.0
H1171 H 0.83289 0.84497 0.26627 0.0
H1172 H 0.82782 0.87221 0.24419 0.0
H1173 H 0.82236 0.98686 0.2441 0.0
H1174 H 0.79912 0.95738 0.24059 0.0
H1175 H 0.84474 0.92897 0.22301 0.0
H1176 H 0.86806 0.95837 0.22637 0.0
H1177 H 0.82148 0.90758 0.2505 0.0
H1178 H 0.81396 0.94242 0.19092 0.0
H1179 H 0.80802 0.97034 0.17024 0.0
H1180 H 0.75195 0.96732 0.19352 0.0
H1181 H 0.75767 0.93953 0.21455 0.0
C1182 C 0.75895 0.83646 0.22139 0.0
C1183 C 0.73903 0.83623 0.22355 0.0
C1184 C 0.77204 0.85354 0.22229 0.0
C1185 C 0.76556 0.87072 0.2257 0.0
C1186 C 0.74566 0.87064 0.22741 0.0
C1187 C 0.73253 0.8536 0.22632 0.0
C1188 C 0.77954 0.88873 0.22764 0.0
C1189 C 0.77666 0.90515 0.21639 0.0
C1190 C 0.79585 0.88967 0.2402 0.0
C1191 C 0.79898 0.87333 0.2535 0.0
C1192 C 0.78456 0.86507 0.2661 0.0
C1193 C 0.78754 0.84959 0.2785 0.0
C1194 C 0.80493 0.84234 0.27854 0.0
C1195 C 0.81941 0.85058 0.26621 0.0
C1196 C 0.8165 0.86605 0.25376 0.0
C1197 C 0.82745 0.97435 0.23946 0.0
C1198 C 0.84705 0.97496 0.23549 0.0
C1199 C 0.81414 0.95755 0.2374 0.0
C1200 C 0.82022 0.94106 0.23144 0.0
C1201 C 0.83978 0.94157 0.22761 0.0
C1202 C 0.85306 0.9584 0.22948 0.0
C1203 C 0.80623 0.92315 0.22946 0.0
C1204 C 0.80911 0.90678 0.24073 0.0
C1205 C 0.78982 0.92233 0.2171 0.0
C1206 C 0.78633 0.93902 0.20444 0.0
C1207 C 0.80044 0.94781 0.19175 0.0
C1208 C 0.79709 0.96359 0.17994 0.0
C1209 C 0.77964 0.97064 0.1806 0.0
C1210 C 0.76547 0.96187 0.19304 0.0
C1211 C 0.76875 0.94609 0.2049 0.0
H1212 H 0.77707 0.98285 0.17144 0.0
H1213 H 0.80721 0.83035 0.28815 0.0
H1214 H 0.7531 0.19313 0.25876 0.0
H1215 H 0.77023 0.16594 0.25564 0.0
H1216 H 0.81455 0.18979 0.29518 0.0
H1217 H 0.79749 0.217 0.29819 0.0
H1218 H 0.82998 0.1785 0.26427 0.0
H1219 H 0.7812 0.15156 0.30829 0.0
H1220 H 0.74795 0.14293 0.31969 0.0
H1221 H 0.73204 0.10811 0.27267 0.0
H1222 H 0.76514 0.11675 0.26084 0.0
H1223 H 0.87805 0.09847 0.28179 0.0
H1224 H 0.85979 0.12458 0.28489 0.0
H1225 H 0.81508 0.09816 0.24712 0.0
H1226 H 0.83312 0.07172 0.24422 0.0
H1227 H 0.7995 0.11069 0.27648 0.0
H1228 H 0.84788 0.1373 0.23234 0.0
H1229 H 0.88091 0.14601 0.22042 0.0
H1230 H 0.89731 0.18156 0.26682 0.0
H1231 H 0.86443 0.17286 0.27917 0.0
C1232 C 0.7665 0.19247 0.26676 0.0
C1233 C 0.77414 0.20718 0.27853 0.0
C1234 C 0.77621 0.17695 0.26506 0.0
C1235 C 0.79364 0.1758 0.27524 0.0
C1236 C 0.80117 0.19042 0.28715 0.0
C1237 C 0.79143 0.20592 0.28888 0.0
C1238 C 0.80427 0.15958 0.27319 0.0
C1239 C 0.82341 0.16368 0.26718 0.0
C1240 C 0.79549 0.14022 0.27647 0.0
C1241 C 0.7756 0.13496 0.28358 0.0
C1242 C 0.77057 0.14219 0.3003 0.0
C1243 C 0.75175 0.13727 0.30685 0.0
C1244 C 0.73787 0.12502 0.29688 0.0
C1245 C 0.7428 0.11762 0.28036 0.0
C1246 C 0.76158 0.12251 0.27374 0.0
C1247 C 0.86435 0.0982 0.2741 0.0
C1248 C 0.8571 0.08303 0.26268 0.0
C1249 C 0.85395 0.1132 0.27584 0.0
C1250 C 0.83618 0.11349 0.26604 0.0
C1251 C 0.82878 0.09826 0.25478 0.0
C1252 C 0.83915 0.08319 0.2531 0.0
C1253 C 0.82528 0.12961 0.26765 0.0
C1254 C 0.80608 0.12551 0.27354 0.0
C1255 C 0.83396 0.14898 0.26418 0.0
C1256 C 0.85374 0.15428 0.25677 0.0
C1257 C 0.85857 0.14686 0.24008 0.0
C1258 C 0.87726 0.15181 0.23323 0.0
C1259 C 0.89122 0.16429 0.24288 0.0
C1260 C 0.88649 0.17188 0.25937 0.0
C1261 C 0.86783 0.16695 0.26629 0.0
H1262 H 0.90568 0.16811 0.23756 0.0
H1263 H 0.72332 0.12122 0.30198 0.0
H1264 H 0.45658 0.01216 0.97894 0.0
H1265 H 0.42613 0.98969 0.97972 0.0
H1266 H 0.39445 0.03694 0.98117 0.0
H1267 H 0.4249 0.0595 0.98044 0.0
H1268 H 0.38142 0.00897 0.00656 0.0
H1269 H 0.39528 0.01293 0.94102 0.0
H1270 H 0.41516 0.01184 0.91345 0.0
H1271 H 0.41914 0.95285 0.92858 0.0
H1272 H 0.3995 0.95366 0.95639 0.0
H1273 H 0.28879 0.95353 0.99108 0.0
H1274 H 0.31803 0.97735 0.987 0.0
H1275 H 0.35234 0.93205 0.98647 0.0
H1276 H 0.32317 0.90814 0.99026 0.0
H1277 H 0.36332 0.95991 0.95964 0.0
H1278 H 0.35072 0.95647 0.02584 0.0
H1279 H 0.33106 0.9576 0.05357 0.0
H1280 H 0.32484 0.01579 0.0371 0.0
H1281 H 0.34426 0.01492 0.00913 0.0
C1282 C 0.44311 0.01778 0.9792 0.0
C1283 C 0.44314 0.03761 0.97959 0.0
C1284 C 0.42572 0.00492 0.97965 0.0
C1285 C 0.40798 0.01165 0.98029 0.0
C1286 C 0.40796 0.03143 0.98069 0.0
C1287 C 0.42537 0.04429 0.98032 0.0
C1288 C 0.3895 0.99799 0.98107 0.0
C1289 C 0.37731 0.99845 0.99612 0.0
C1290 C 0.38434 0.98398 0.96768 0.0
C1291 C 0.39605 0.98341 0.95089 0.0
C1292 C 0.40051 0.99976 0.93854 0.0
C1293 C 0.41172 0.99919 0.92286 0.0
C1294 C 0.41845 0.9823 0.91929 0.0
C1295 C 0.41393 0.96593 0.93137 0.0
C1296 C 0.40275 0.96643 0.94709 0.0
C1297 C 0.30255 0.94862 0.99003 0.0
C1298 C 0.30366 0.92892 0.99111 0.0
C1299 C 0.31925 0.96226 0.98777 0.0
C1300 C 0.3374 0.95648 0.98667 0.0
C1301 C 0.33849 0.93684 0.98731 0.0
C1302 C 0.3218 0.92319 0.98954 0.0
C1303 C 0.35531 0.97087 0.98517 0.0
C1304 C 0.36739 0.97052 0.97 0.0
C1305 C 0.36038 0.98499 0.99845 0.0
C1306 C 0.34877 0.98556 0.01529 0.0
C1307 C 0.34503 0.96946 0.02806 0.0
C1308 C 0.33395 0.97006 0.04383 0.0
C1309 C 0.32666 0.98674 0.04706 0.0
C1310 C 0.33047 0.00287 0.03456 0.0
C1311 C 0.34152 0.00234 0.01875 0.0
H1312 H 0.31809 0.98718 0.05928 0.0
H1313 H 0.42713 0.98188 0.90714 0.0
H1314 H 0.28694 0.34658 0.34198 0.0
H1315 H 0.26399 0.36928 0.33887 0.0
H1316 H 0.25352 0.35751 0.28036 0.0
H1317 H 0.27642 0.33478 0.28337 0.0
H1318 H 0.25801 0.39516 0.28469 0.0
H1319 H 0.22075 0.33872 0.31374 0.0
H1320 H 0.2137 0.31184 0.3376 0.0
H1321 H 0.21518 0.35161 0.38077 0.0
H1322 H 0.22252 0.37874 0.3572 0.0
H1323 H 0.17354 0.43765 0.26867 0.0
H1324 H 0.19546 0.41403 0.27263 0.0
H1325 H 0.20773 0.42848 0.33023 0.0
H1326 H 0.18574 0.4521 0.32644 0.0
H1327 H 0.20224 0.38955 0.3266 0.0
H1328 H 0.23961 0.44593 0.29742 0.0
H1329 H 0.24661 0.47273 0.27348 0.0
H1330 H 0.24476 0.43282 0.23039 0.0
H1331 H 0.23747 0.40576 0.25405 0.0
C1332 C 0.27963 0.34871 0.32849 0.0
C1333 C 0.28348 0.33884 0.31293 0.0
C1334 C 0.26652 0.3617 0.32672 0.0
C1335 C 0.25686 0.36495 0.30943 0.0
C1336 C 0.26082 0.35526 0.29383 0.0
C1337 C 0.27396 0.34231 0.29557 0.0
C1338 C 0.24276 0.37858 0.30752 0.0
C1339 C 0.24567 0.39376 0.29368 0.0
C1340 C 0.22689 0.37704 0.31954 0.0
C1341 C 0.22238 0.36076 0.33373 0.0
C1342 C 0.21973 0.34173 0.32835 0.0
C1343 C 0.21565 0.32645 0.34181 0.0
C1344 C 0.21405 0.33002 0.3607 0.0
C1345 C 0.21646 0.34887 0.36614 0.0
C1346 C 0.22056 0.36421 0.35273 0.0
C1347 C 0.1808 0.43576 0.28223 0.0
C1348 C 0.17795 0.44685 0.29722 0.0
C1349 C 0.19339 0.42229 0.28443 0.0
C1350 C 0.2034 0.41966 0.30166 0.0
C1351 C 0.20019 0.43032 0.31681 0.0
C1352 C 0.18765 0.44385 0.31459 0.0
C1353 C 0.21748 0.40604 0.30373 0.0
C1354 C 0.21458 0.3909 0.3176 0.0
C1355 C 0.23335 0.40759 0.29173 0.0
C1356 C 0.23779 0.42383 0.27748 0.0
C1357 C 0.24053 0.44287 0.28281 0.0
C1358 C 0.24459 0.45811 0.2693 0.0
C1359 C 0.24608 0.45448 0.25041 0.0
C1360 C 0.24357 0.4356 0.24502 0.0
C1361 C 0.23949 0.42031 0.25847 0.0
H1362 H 0.24922 0.4663 0.23997 0.0
H1363 H 0.21089 0.31817 0.3711 0.0
H1364 H 0.10004 0.01856 0.45738 0.0
H1365 H 0.13077 0.03828 0.46587 0.0
H1366 H 0.11891 0.02586 0.52477 0.0
H1367 H 0.0878 0.00675 0.51639 0.0
H1368 H 0.13456 0.06259 0.51846 0.0
H1369 H 0.14915 0.00183 0.50261 0.0
H1370 H 0.14882 0.97461 0.48269 0.0
H1371 H 0.17851 0.01238 0.43976 0.0
H1372 H 0.17877 0.0399 0.45933 0.0
H1373 H 0.23051 0.08824 0.55492 0.0
H1374 H 0.19914 0.06977 0.54624 0.0
H1375 H 0.21012 0.08461 0.4875 0.0
H1376 H 0.24158 0.10296 0.49601 0.0
H1377 H 0.19493 0.0469 0.49374 0.0
H1378 H 0.18065 0.1077 0.51043 0.0
H1379 H 0.18166 0.13438 0.53119 0.0
H1380 H 0.15185 0.09584 0.57348 0.0
H1381 H 0.1509 0.06886 0.55307 0.0
C1382 C 0.10381 0.02027 0.47214 0.0
C1383 C 0.09152 0.01094 0.48621 0.0
C1384 C 0.12148 0.03139 0.47697 0.0
C1385 C 0.1273 0.03327 0.49596 0.0
C1386 C 0.11478 0.02451 0.51003 0.0
C1387 C 0.09708 0.01345 0.50521 0.0
C1388 C 0.14663 0.04394 0.50118 0.0
C1389 C 0.14777 0.05902 0.51322 0.0
C1390 C 0.16387 0.03948 0.49412 0.0
C1391 C 0.1638 0.02295 0.48235 0.0
C1392 C 0.15547 0.00436 0.48886 0.0
C1393 C 0.15532 0.98887 0.47765 0.0
C1394 C 0.16359 0.99177 0.45995 0.0
C1395 C 0.17208 0.01016 0.45346 0.0
C1396 C 0.17225 0.02571 0.46461 0.0
C1397 C 0.22631 0.0875 0.54014 0.0
C1398 C 0.23852 0.09713 0.52616 0.0
C1399 C 0.20833 0.07701 0.53522 0.0
C1400 C 0.2022 0.07603 0.51624 0.0
C1401 C 0.21455 0.08523 0.50223 0.0
C1402 C 0.23252 0.09574 0.50714 0.0
C1403 C 0.18283 0.06554 0.51097 0.0
C1404 C 0.18171 0.05049 0.49893 0.0
C1405 C 0.16563 0.06996 0.51812 0.0
C1406 C 0.16586 0.08623 0.53028 0.0
C1407 C 0.17441 0.10489 0.5242 0.0
C1408 C 0.17497 0.12007 0.5359 0.0
C1409 C 0.16687 0.1168 0.55366 0.0
C1410 C 0.15814 0.09835 0.55973 0.0
C1411 C 0.15757 0.08311 0.54809 0.0
H1412 H 0.16733 0.12856 0.56271 0.0
H1413 H 0.16346 0.97976 0.45129 0.0
H1414 H 0.74195 0.19477 0.72762 0.0
H1415 H 0.7198 0.16452 0.73282 0.0
H1416 H 0.76836 0.13518 0.74663 0.0
H1417 H 0.79061 0.16527 0.74097 0.0
H1418 H 0.74203 0.1149 0.72366 0.0
H1419 H 0.74146 0.14684 0.78102 0.0
H1420 H 0.73778 0.17363 0.80027 0.0
H1421 H 0.67877 0.17099 0.78031 0.0
H1422 H 0.68218 0.14435 0.76072 0.0
H1423 H 0.69169 0.02927 0.76755 0.0
H1424 H 0.71337 0.05949 0.76087 0.0
H1425 H 0.66409 0.08825 0.74886 0.0
H1426 H 0.6423 0.05816 0.75581 0.0
H1427 H 0.6905 0.10899 0.77046 0.0
H1428 H 0.69083 0.0768 0.71338 0.0
H1429 H 0.69447 0.05007 0.69404 0.0
H1430 H 0.75376 0.05319 0.71327 0.0
H1431 H 0.7504 0.07978 0.73293 0.0
C1432 C 0.74791 0.18184 0.73159 0.0
C1433 C 0.76803 0.18242 0.73397 0.0
C1434 C 0.73524 0.1646 0.73471 0.0
C1435 C 0.74243 0.14765 0.74033 0.0
C1436 C 0.76251 0.14812 0.74238 0.0
C1437 C 0.77518 0.16534 0.73929 0.0
C1438 C 0.72904 0.12942 0.74418 0.0
C1439 C 0.7309 0.11353 0.73405 0.0
C1440 C 0.71425 0.12777 0.75743 0.0
C1441 C 0.71214 0.14374 0.76926 0.0
C1442 C 0.72775 0.15208 0.78062 0.0
C1443 C 0.7257 0.16721 0.79161 0.0
C1444 C 0.70807 0.17404 0.79147 0.0
C1445 C 0.69243 0.1657 0.78038 0.0
C1446 C 0.69441 0.15058 0.76934 0.0
C1447 C 0.68545 0.04201 0.76345 0.0
C1448 C 0.66526 0.04129 0.76215 0.0
C1449 C 0.69787 0.05926 0.75956 0.0
C1450 C 0.69035 0.07609 0.75414 0.0
C1451 C 0.67021 0.07544 0.75299 0.0
C1452 C 0.65778 0.0582 0.75692 0.0
C1453 C 0.70348 0.09443 0.74994 0.0
C1454 C 0.70158 0.11035 0.76002 0.0
C1455 C 0.71822 0.0961 0.73663 0.0
C1456 C 0.7203 0.08016 0.72477 0.0
C1457 C 0.7046 0.07168 0.7136 0.0
C1458 C 0.70662 0.05658 0.70256 0.0
C1459 C 0.72432 0.0499 0.70247 0.0
C1460 C 0.74005 0.05836 0.71338 0.0
C1461 C 0.7381 0.07346 0.72446 0.0
H1462 H 0.72585 0.0382 0.69391 0.0
H1463 H 0.70651 0.18576 0.79999 0.0
H1464 H 0.45266 0.00864 0.53013 0.0
H1465 H 0.42954 0.03074 0.52398 0.0
H1466 H 0.41521 0.02506 0.58264 0.0
H1467 H 0.43759 0.00209 0.58874 0.0
H1468 H 0.38345 0.024 0.56169 0.0
H1469 H 0.44445 0.06555 0.5631 0.0
H1470 H 0.47824 0.07749 0.55459 0.0
H1471 H 0.45998 0.08702 0.49692 0.0
H1472 H 0.42609 0.07488 0.50503 0.0
H1473 H 0.33259 0.10376 0.55559 0.0
H1474 H 0.35683 0.08311 0.56401 0.0
H1475 H 0.36946 0.08204 0.50537 0.0
H1476 H 0.34535 0.10274 0.49682 0.0
H1477 H 0.40246 0.08742 0.52782 0.0
H1478 H 0.34138 0.04456 0.52691 0.0
H1479 H 0.30772 0.03293 0.53604 0.0
H1480 H 0.3266 0.02654 0.59392 0.0
H1481 H 0.36036 0.0384 0.58516 0.0
C1482 C 0.44446 0.01189 0.54171 0.0
C1483 C 0.44704 0.00353 0.55995 0.0
C1484 C 0.4314 0.02476 0.53821 0.0
C1485 C 0.42083 0.02984 0.5529 0.0
C1486 C 0.42327 0.02146 0.57109 0.0
C1487 C 0.43623 0.00845 0.57459 0.0
C1488 C 0.40697 0.0436 0.54917 0.0
C1489 C 0.38772 0.038 0.55457 0.0
C1490 C 0.41239 0.06176 0.53958 0.0
C1491 C 0.43275 0.06915 0.53465 0.0
C1492 C 0.44766 0.07006 0.54858 0.0
C1493 C 0.46683 0.07688 0.54383 0.0
C1494 C 0.47126 0.08297 0.52522 0.0
C1495 C 0.45652 0.08228 0.51132 0.0
C1496 C 0.43733 0.07545 0.51599 0.0
C1497 C 0.34057 0.09921 0.54448 0.0
C1498 C 0.33697 0.10485 0.52552 0.0
C1499 C 0.35437 0.08734 0.54932 0.0
C1500 C 0.36482 0.08089 0.5353 0.0
C1501 C 0.36155 0.08684 0.51641 0.0
C1502 C 0.34771 0.09863 0.51155 0.0
C1503 C 0.37899 0.06773 0.54023 0.0
C1504 C 0.39828 0.07347 0.53505 0.0
C1505 C 0.37364 0.04976 0.55014 0.0
C1506 C 0.35336 0.04256 0.55541 0.0
C1507 C 0.33833 0.04083 0.54161 0.0
C1508 C 0.31924 0.03416 0.54671 0.0
C1509 C 0.31501 0.02905 0.56556 0.0
C1510 C 0.32989 0.03054 0.57933 0.0
C1511 C 0.34901 0.03722 0.57431 0.0
H1512 H 0.30022 0.02389 0.56948 0.0
H1513 H 0.48611 0.08824 0.52157 0.0
H1514 H 0.59215 0.52614 0.51809 0.0
H1515 H 0.61942 0.50884 0.51547 0.0
H1516 H 0.5809 0.45498 0.52346 0.0
H1517 H 0.55377 0.47227 0.52667 0.0
H1518 H 0.61353 0.45359 0.54307 0.0
H1519 H 0.59678 0.47331 0.47938 0.0
H1520 H 0.59043 0.4964 0.4533 0.0
H1521 H 0.64834 0.52688 0.45969 0.0
H1522 H 0.65495 0.50411 0.48599 0.0
H1523 H 0.67303 0.39212 0.50935 0.0
H1524 H 0.64691 0.41045 0.51317 0.0
H1525 H 0.68733 0.46322 0.50684 0.0
H1526 H 0.71351 0.44501 0.50271 0.0
H1527 H 0.65442 0.46574 0.48691 0.0
H1528 H 0.6713 0.44534 0.55021 0.0
H1529 H 0.67752 0.42197 0.57608 0.0
H1530 H 0.61917 0.39246 0.57019 0.0
H1531 H 0.61267 0.4155 0.54411 0.0
C1532 C 0.58961 0.51061 0.51956 0.0
C1533 C 0.57096 0.50053 0.52297 0.0
C1534 C 0.60514 0.50074 0.51788 0.0
C1535 C 0.60219 0.48058 0.5191 0.0
C1536 C 0.58355 0.47051 0.52255 0.0
C1537 C 0.56807 0.48039 0.52438 0.0
C1538 C 0.61844 0.46993 0.5166 0.0
C1539 C 0.62232 0.45609 0.53068 0.0
C1540 C 0.63021 0.47347 0.50064 0.0
C1541 C 0.62629 0.48712 0.48477 0.0
C1542 C 0.60811 0.48502 0.47531 0.0
C1543 C 0.60448 0.49804 0.46047 0.0
C1544 C 0.61896 0.51313 0.45487 0.0
C1545 C 0.63713 0.5152 0.46406 0.0
C1546 C 0.64083 0.50224 0.47892 0.0
C1547 C 0.67639 0.40763 0.50875 0.0
C1548 C 0.69539 0.41709 0.50579 0.0
C1549 C 0.66144 0.41809 0.51102 0.0
C1550 C 0.66521 0.43821 0.51055 0.0
C1551 C 0.6841 0.44771 0.50731 0.0
C1552 C 0.69905 0.43726 0.50499 0.0
C1553 C 0.64943 0.44936 0.51334 0.0
C1554 C 0.64565 0.46328 0.49932 0.0
C1555 C 0.63772 0.44586 0.52933 0.0
C1556 C 0.64156 0.43205 0.54509 0.0
C1557 C 0.65984 0.43378 0.55434 0.0
C1558 C 0.66341 0.42061 0.56906 0.0
C1559 C 0.64877 0.40571 0.57475 0.0
C1560 C 0.6305 0.40399 0.56576 0.0
C1561 C 0.62686 0.41712 0.55102 0.0
H1562 H 0.65156 0.39553 0.58614 0.0
H1563 H 0.61611 0.52319 0.44338 0.0
H1564 H 0.76063 0.27443 0.32698 0.0
H1565 H 0.76585 0.2952 0.35342 0.0
H1566 H 0.70509 0.28168 0.36547 0.0
H1567 H 0.69978 0.26107 0.33891 0.0
H1568 H 0.71674 0.31884 0.36619 0.0
H1569 H 0.74006 0.26299 0.39344 0.0
H1570 H 0.75959 0.2369 0.39546 0.0
H1571 H 0.8118 0.27819 0.39574 0.0
H1572 H 0.79258 0.30455 0.39345 0.0
H1573 H 0.72499 0.35954 0.45573 0.0
H1574 H 0.71919 0.33711 0.43064 0.0
H1575 H 0.77864 0.3528 0.41455 0.0
H1576 H 0.78461 0.37515 0.43961 0.0
H1577 H 0.76712 0.314 0.41654 0.0
H1578 H 0.74324 0.36978 0.38864 0.0
H1579 H 0.72334 0.39557 0.38691 0.0
H1580 H 0.67157 0.35368 0.38846 0.0
H1581 H 0.69118 0.32762 0.39046 0.0
C1582 C 0.74845 0.27569 0.33543 0.0
C1583 C 0.7298 0.26613 0.33087 0.0
C1584 C 0.75144 0.28757 0.35054 0.0
C1585 C 0.73589 0.28988 0.36156 0.0
C1586 C 0.7173 0.28016 0.35715 0.0
C1587 C 0.71428 0.26841 0.34196 0.0
C1588 C 0.73888 0.30294 0.37729 0.0
C1589 C 0.72755 0.31757 0.37736 0.0
C1590 C 0.75326 0.30157 0.39166 0.0
C1591 C 0.76487 0.28575 0.3931 0.0
C1592 C 0.7557 0.26651 0.39378 0.0
C1593 C 0.76672 0.25167 0.395 0.0
C1594 C 0.78692 0.25589 0.39568 0.0
C1595 C 0.79615 0.27495 0.39519 0.0
C1596 C 0.7852 0.28985 0.39395 0.0
C1597 C 0.73682 0.35827 0.44682 0.0
C1598 C 0.75525 0.36918 0.44964 0.0
C1599 C 0.73347 0.34547 0.43246 0.0
C1600 C 0.74846 0.34339 0.42065 0.0
C1601 C 0.76688 0.35419 0.42351 0.0
C1602 C 0.77023 0.36702 0.4378 0.0
C1603 C 0.74502 0.32986 0.40538 0.0
C1604 C 0.75626 0.31517 0.4054 0.0
C1605 C 0.7305 0.33111 0.39114 0.0
C1606 C 0.71869 0.34676 0.3899 0.0
C1607 C 0.72762 0.36607 0.38877 0.0
C1608 C 0.71639 0.38074 0.38771 0.0
C1609 C 0.69621 0.37627 0.38763 0.0
C1610 C 0.68721 0.35712 0.38855 0.0
C1611 C 0.69837 0.3424 0.38963 0.0
H1612 H 0.68754 0.38765 0.3868 0.0
H1613 H 0.79543 0.24438 0.39663 0.0
H1614 H 0.49999 0.04086 0.91332 0.0
H1615 H 0.52167 0.02711 0.89387 0.0
H1616 H 0.57094 0.06248 0.9189 0.0
H1617 H 0.54917 0.07649 0.9381 0.0
H1618 H 0.57339 0.0641 0.88163 0.0
H1619 H 0.56061 0.014 0.93023 0.0
H1620 H 0.54031 0.99024 0.9509 0.0
H1621 H 0.51441 0.96162 0.90263 0.0
H1622 H 0.53437 0.98537 0.88164 0.0
H1623 H 0.64435 0.02053 0.84159 0.0
H1624 H 0.62417 0.03057 0.86499 0.0
H1625 H 0.57358 0.99713 0.84011 0.0
H1626 H 0.59373 0.98674 0.8168 0.0
H1627 H 0.57257 0.99422 0.87822 0.0
H1628 H 0.58417 0.04506 0.82973 0.0
H1629 H 0.60433 0.06882 0.80892 0.0
H1630 H 0.63222 0.0961 0.85713 0.0
H1631 H 0.61242 0.07231 0.87824 0.0
C1632 C 0.51545 0.04565 0.91462 0.0
C1633 C 0.52296 0.05994 0.92689 0.0
C1634 C 0.52783 0.03772 0.90363 0.0
C1635 C 0.54796 0.04369 0.905 0.0
C1636 C 0.55547 0.05771 0.91757 0.0
C1637 C 0.54308 0.06568 0.92851 0.0
C1638 C 0.5611 0.03589 0.89277 0.0
C1639 C 0.57343 0.04883 0.88114 0.0
C1640 C 0.56083 0.01594 0.89176 0.0
C1641 C 0.54887 0.00158 0.90435 0.0
C1642 C 0.55048 0.00273 0.92401 0.0
C1643 C 0.53905 0.98924 0.93579 0.0
C1644 C 0.52604 0.97446 0.92808 0.0
C1645 C 0.52448 0.97309 0.90858 0.0
C1646 C 0.53586 0.98655 0.89673 0.0
C1647 C 0.62896 0.01516 0.84117 0.0
C1648 C 0.62063 0.00295 0.82722 0.0
C1649 C 0.61743 0.02096 0.85454 0.0
C1650 C 0.59732 0.01485 0.85411 0.0
C1651 C 0.58906 0.00207 0.84067 0.0
C1652 C 0.6006 0.99618 0.82733 0.0
C1653 C 0.58482 0.02244 0.86715 0.0
C1654 C 0.57259 0.00948 0.87885 0.0
C1655 C 0.58515 0.04238 0.86824 0.0
C1656 C 0.59695 0.05679 0.85556 0.0
C1657 C 0.5947 0.05604 0.8359 0.0
C1658 C 0.60605 0.06953 0.82405 0.0
C1659 C 0.61958 0.08393 0.8317 0.0
C1660 C 0.62176 0.08491 0.85122 0.0
C1661 C 0.61047 0.07144 0.86314 0.0
H1662 H 0.62836 0.09435 0.82251 0.0
H1663 H 0.51721 0.96403 0.93723 0.0
H1664 H 0.31466 0.26064 0.33368 0.0
H1665 H 0.31274 0.23762 0.36082 0.0
H1666 H 0.30061 0.28102 0.39626 0.0
H1667 H 0.30376 0.30451 0.36941 0.0
H1668 H 0.32338 0.26033 0.41481 0.0
H1669 H 0.2642 0.24663 0.37844 0.0
H1670 H 0.24393 0.23926 0.34989 0.0
H1671 H 0.26736 0.18731 0.34615 0.0
H1672 H 0.28796 0.1945 0.37455 0.0
H1673 H 0.25779 0.17615 0.46888 0.0
H1674 H 0.26386 0.1998 0.4425 0.0
H1675 H 0.32533 0.19992 0.45016 0.0
H1676 H 0.31934 0.17657 0.4771 0.0
H1677 H 0.27827 0.19896 0.4101 0.0
H1678 H 0.34993 0.24388 0.43593 0.0
H1679 H 0.36686 0.25319 0.46581 0.0
H1680 H 0.31244 0.24596 0.49319 0.0
H1681 H 0.29519 0.23686 0.46344 0.0
C1682 C 0.31196 0.26545 0.34729 0.0
C1683 C 0.30926 0.28448 0.34927 0.0
C1684 C 0.31063 0.25217 0.36279 0.0
C1685 C 0.30618 0.25747 0.38054 0.0
C1686 C 0.30396 0.27655 0.38269 0.0
C1687 C 0.30553 0.28992 0.36725 0.0
C1688 C 0.30325 0.24303 0.39674 0.0
C1689 C 0.31356 0.24689 0.41376 0.0
C1690 C 0.29018 0.22561 0.39554 0.0
C1691 C 0.27776 0.2212 0.3785 0.0
C1692 C 0.26512 0.2337 0.37145 0.0
C1693 C 0.25356 0.22955 0.35531 0.0
C1694 C 0.25439 0.21285 0.34618 0.0
C1695 C 0.26675 0.20025 0.35322 0.0
C1696 C 0.27836 0.20435 0.36934 0.0
C1697 C 0.27263 0.1812 0.465 0.0
C1698 C 0.2881 0.17451 0.47514 0.0
C1699 C 0.27607 0.19471 0.44985 0.0
C1700 C 0.29505 0.20179 0.44438 0.0
C1701 C 0.31056 0.19494 0.4543 0.0
C1702 C 0.30713 0.18153 0.46965 0.0
C1703 C 0.2984 0.21623 0.42821 0.0
C1704 C 0.28819 0.21235 0.41115 0.0
C1705 C 0.3111 0.23387 0.42958 0.0
C1706 C 0.32131 0.23948 0.44751 0.0
C1707 C 0.34159 0.24433 0.44832 0.0
C1708 C 0.35124 0.24956 0.46523 0.0
C1709 C 0.34074 0.25009 0.4814 0.0
C1710 C 0.32056 0.24546 0.48068 0.0
C1711 C 0.31084 0.24025 0.4638 0.0
H1712 H 0.34823 0.25413 0.49448 0.0
H1713 H 0.24543 0.20966 0.33369 0.0
H1714 H 0.52702 0.51323 0.90739 0.0
H1715 H 0.50504 0.5161 0.88001 0.0
H1716 H 0.4562 0.49379 0.91448 0.0
H1717 H 0.47822 0.49047 0.94171 0.0
H1718 H 0.45194 0.47839 0.88114 0.0
H1719 H 0.46825 0.5421 0.90265 0.0
H1720 H 0.49018 0.57109 0.91195 0.0
H1721 H 0.51422 0.57847 0.85694 0.0
H1722 H 0.49259 0.54937 0.84738 0.0
H1723 H 0.37829 0.50854 0.82008 0.0
H1724 H 0.4005 0.5041 0.84681 0.0
H1725 H 0.44917 0.52568 0.81194 0.0
H1726 H 0.42708 0.53047 0.78524 0.0
H1727 H 0.45358 0.54117 0.84532 0.0
H1728 H 0.43674 0.47764 0.82365 0.0
H1729 H 0.4144 0.44891 0.81434 0.0
H1730 H 0.39103 0.44134 0.86964 0.0
H1731 H 0.41305 0.47019 0.87921 0.0
C1732 C 0.51159 0.50883 0.90901 0.0
C1733 C 0.50428 0.50159 0.92657 0.0
C1734 C 0.49905 0.51056 0.89343 0.0
C1735 C 0.47893 0.50538 0.89524 0.0
C1736 C 0.47165 0.49787 0.91275 0.0
C1737 C 0.48421 0.49603 0.92829 0.0
C1738 C 0.46546 0.50802 0.87897 0.0
C1739 C 0.45213 0.49217 0.87344 0.0
C1740 C 0.46597 0.5259 0.86868 0.0
C1741 C 0.47893 0.54345 0.87437 0.0
C1742 C 0.47831 0.54983 0.89258 0.0
C1743 C 0.49067 0.56629 0.89789 0.0
C1744 C 0.50362 0.57659 0.88506 0.0
C1745 C 0.5042 0.57047 0.86687 0.0
C1746 C 0.49188 0.554 0.8615 0.0
C1747 C 0.39372 0.51232 0.81808 0.0
C1748 C 0.40091 0.51983 0.80051 0.0
C1749 C 0.4064 0.50969 0.83336 0.0
C1750 C 0.42652 0.51435 0.83132 0.0
C1751 C 0.43371 0.52197 0.81384 0.0
C1752 C 0.42105 0.52466 0.79857 0.0
C1753 C 0.44007 0.51155 0.84747 0.0
C1754 C 0.4534 0.52738 0.85298 0.0
C1755 C 0.43953 0.49366 0.85775 0.0
C1756 C 0.42642 0.47618 0.85209 0.0
C1757 C 0.42674 0.46993 0.83379 0.0
C1758 C 0.41415 0.45361 0.82847 0.0
C1759 C 0.40127 0.44334 0.84137 0.0
C1760 C 0.401 0.44933 0.85965 0.0
C1761 C 0.41355 0.46565 0.86503 0.0
H1762 H 0.39152 0.43072 0.83722 0.0
H1763 H 0.51318 0.58933 0.88919 0.0
H1764 H 0.73925 0.78491 0.15979 0.0
H1765 H 0.75529 0.7663 0.13922 0.0
H1766 H 0.71507 0.71541 0.15523 0.0
H1767 H 0.69918 0.734 0.17597 0.0
H1768 H 0.75163 0.70776 0.15404 0.0
H1769 H 0.70899 0.73994 0.11353 0.0
H1770 H 0.69509 0.76772 0.09963 0.0
H1771 H 0.75065 0.79319 0.07873 0.0
H1772 H 0.76494 0.76567 0.09274 0.0
H1773 H 0.76444 0.65126 0.07779 0.0
H1774 H 0.7521 0.66942 0.10128 0.0
H1775 H 0.79234 0.71973 0.08377 0.0
H1776 H 0.80462 0.70174 0.06008 0.0
H1777 H 0.7566 0.72796 0.08611 0.0
H1778 H 0.79898 0.69488 0.12573 0.0
H1779 H 0.81252 0.66683 0.13945 0.0
H1780 H 0.75724 0.6427 0.16184 0.0
H1781 H 0.74329 0.6705 0.14801 0.0
C1782 C 0.73387 0.76975 0.15884 0.0
C1783 C 0.71775 0.76092 0.16904 0.0
C1784 C 0.74299 0.75915 0.14711 0.0
C1785 C 0.73616 0.73953 0.14544 0.0
C1786 C 0.7205 0.73055 0.15621 0.0
C1787 C 0.71138 0.74116 0.16795 0.0
C1788 C 0.7451 0.72847 0.13218 0.0
C1789 C 0.75253 0.71204 0.13915 0.0
C1790 C 0.74663 0.73429 0.11282 0.0
C1791 C 0.73807 0.75084 0.10435 0.0
C1792 C 0.71827 0.75154 0.1061 0.0
C1793 C 0.71032 0.76722 0.09818 0.0
C1794 C 0.72199 0.78224 0.08835 0.0
C1795 C 0.74163 0.78157 0.08638 0.0
C1796 C 0.74966 0.76592 0.09429 0.0
C1797 C 0.77081 0.66614 0.07904 0.0
C1798 C 0.78551 0.67505 0.06702 0.0
C1799 C 0.76378 0.67648 0.09254 0.0
C1800 C 0.77139 0.69591 0.09438 0.0
C1801 C 0.78626 0.70476 0.0826 0.0
C1802 C 0.79329 0.69443 0.06909 0.0
C1803 C 0.76319 0.70724 0.10795 0.0
C1804 C 0.75582 0.72371 0.10102 0.0
C1805 C 0.76169 0.70141 0.12732 0.0
C1806 C 0.77004 0.68469 0.13568 0.0
C1807 C 0.78967 0.68352 0.13344 0.0
C1808 C 0.79743 0.66768 0.14127 0.0
C1809 C 0.78574 0.65297 0.15147 0.0
C1810 C 0.76627 0.6541 0.15391 0.0
C1811 C 0.75843 0.6699 0.1461 0.0
H1812 H 0.79177 0.64072 0.15752 0.0
H1813 H 0.71581 0.79437 0.08223 0.0
H1814 H 0.00433 0.01929 0.07864 0.0
H1815 H 0.98546 0.0166 0.10714 0.0
H1816 H 0.99468 0.07824 0.10848 0.0
H1817 H 0.01413 0.08101 0.08046 0.0
H1818 H 0.99906 0.0625 0.14271 0.0
H1819 H 0.95164 0.05365 0.09235 0.0
H1820 H 0.93574 0.03903 0.06409 0.0
H1821 H 0.92444 0.98431 0.09483 0.0
H1822 H 0.94052 0.99856 0.12322 0.0
H1823 H 0.89987 0.04702 0.19256 0.0
H1824 H 0.91886 0.0515 0.16406 0.0
H1825 H 0.96503 0.0279 0.19435 0.0
H1826 H 0.9463 0.02363 0.22293 0.0
H1827 H 0.93212 0.02637 0.14369 0.0
H1828 H 0.00826 0.04997 0.17757 0.0
H1829 H 0.02302 0.06732 0.20483 0.0
H1830 H 0.97467 0.09756 0.20524 0.0
H1831 H 0.95976 0.0806 0.17783 0.0
C1832 C 0.00252 0.03226 0.08513 0.0
C1833 C 0.01064 0.05037 0.0772 0.0
C1834 C 0.99157 0.03071 0.10131 0.0
C1835 C 0.98845 0.04723 0.10981 0.0
C1836 C 0.99683 0.0653 0.10213 0.0
C1837 C 0.0078 0.06686 0.08599 0.0
C1838 C 0.97641 0.04575 0.12669 0.0
C1839 C 0.98444 0.05457 0.14293 0.0
C1840 C 0.95719 0.03573 0.12688 0.0
C1841 C 0.94745 0.02714 0.10986 0.0
C1842 C 0.9459 0.03847 0.09304 0.0
C1843 C 0.93683 0.03026 0.07701 0.0
C1844 C 0.92913 0.01075 0.07765 0.0
C1845 C 0.93043 0.99942 0.09435 0.0
C1846 C 0.93951 0.00756 0.11042 0.0
C1847 C 0.9141 0.04286 0.19319 0.0
C1848 C 0.9216 0.03503 0.21005 0.0
C1849 C 0.9249 0.04536 0.17686 0.0
C1850 C 0.94342 0.04018 0.17711 0.0
C1851 C 0.95089 0.03227 0.1939 0.0
C1852 C 0.94013 0.02978 0.21022 0.0
C1853 C 0.95488 0.04287 0.15978 0.0
C1854 C 0.94675 0.03426 0.14348 0.0
C1855 C 0.97387 0.05343 0.15939 0.0
C1856 C 0.98281 0.06386 0.17577 0.0
C1857 C 0.00081 0.06037 0.18344 0.0
C1858 C 0.0092 0.07013 0.19892 0.0
C1859 C 0.99976 0.08348 0.2068 0.0
C1860 C 0.98194 0.08716 0.19917 0.0
C1861 C 0.9735 0.07745 0.18368 0.0
H1862 H 0.00627 0.09101 0.21879 0.0
H1863 H 0.92211 0.00441 0.06522 0.0
H1864 H 0.29939 0.79486 0.18945 0.0
H1865 H 0.2944 0.81275 0.15943 0.0
H1866 H 0.24873 0.76744 0.14365 0.0
H1867 H 0.25389 0.74946 0.17363 0.0
H1868 H 0.27193 0.78037 0.11443 0.0
H1869 H 0.23795 0.8081 0.16008 0.0
H1870 H 0.23442 0.82322 0.18968 0.0
H1871 H 0.27794 0.87072 0.17295 0.0
H1872 H 0.28191 0.85575 0.14335 0.0
H1873 H 0.22593 0.83135 0.04132 0.0
H1874 H 0.23337 0.81303 0.07024 0.0
H1875 H 0.27809 0.85948 0.08527 0.0
H1876 H 0.27057 0.87803 0.05649 0.0
H1877 H 0.25616 0.84615 0.11477 0.0
H1878 H 0.28956 0.8189 0.06867 0.0
H1879 H 0.29304 0.80384 0.03904 0.0
H1880 H 0.25076 0.75553 0.05645 0.0
H1881 H 0.24682 0.77044 0.08609 0.0
C1882 C 0.2883 0.78879 0.17954 0.0
C1883 C 0.27671 0.77104 0.18392 0.0
C1884 C 0.28543 0.79899 0.16245 0.0
C1885 C 0.27096 0.79157 0.14945 0.0
C1886 C 0.25988 0.77348 0.15353 0.0
C1887 C 0.26275 0.76328 0.17063 0.0
C1888 C 0.26713 0.80283 0.13175 0.0
C1889 C 0.26826 0.79466 0.11449 0.0
C1890 C 0.26277 0.82165 0.13184 0.0
C1891 C 0.26037 0.83071 0.1496 0.0
C1892 C 0.24687 0.82169 0.16278 0.0
C1893 C 0.24478 0.83025 0.17954 0.0
C1894 C 0.25599 0.84789 0.18321 0.0
C1895 C 0.26929 0.85704 0.1701 0.0
C1896 C 0.27146 0.84853 0.15333 0.0
C1897 C 0.23737 0.83768 0.05075 0.0
C1898 C 0.24767 0.85615 0.04658 0.0
C1899 C 0.24167 0.82714 0.06724 0.0
C1900 C 0.25644 0.8348 0.07982 0.0
C1901 C 0.26666 0.85328 0.07575 0.0
C1902 C 0.26236 0.86384 0.05927 0.0
C1903 C 0.26093 0.8237 0.09741 0.0
C1904 C 0.2599 0.83188 0.11467 0.0
C1905 C 0.26539 0.80491 0.09731 0.0
C1906 C 0.26776 0.79588 0.07952 0.0
C1907 C 0.28088 0.80514 0.06612 0.0
C1908 C 0.28296 0.79662 0.04933 0.0
C1909 C 0.27209 0.77876 0.04584 0.0
C1910 C 0.25915 0.76937 0.05916 0.0
C1911 C 0.257 0.77784 0.07597 0.0
H1912 H 0.27372 0.77219 0.03284 0.0
H1913 H 0.25434 0.85449 0.1962 0.0
H1914 H 0.02486 0.47496 0.08694 0.0
H1915 H 0.04456 0.474 0.11602 0.0
H1916 H 0.99307 0.46812 0.14857 0.0
H1917 H 0.97333 0.46948 0.11944 0.0
H1918 H 0.02051 0.49221 0.16403 0.0
H1919 H 0.01656 0.42942 0.14219 0.0
H1920 H 0.01894 0.4052 0.11945 0.0
H1921 H 0.07988 0.42559 0.11513 0.0
H1922 H 0.07782 0.45012 0.13765 0.0
H1923 H 0.06645 0.4623 0.24987 0.0
H1924 H 0.04545 0.46147 0.22148 0.0
H1925 H 0.09549 0.47761 0.18716 0.0
H1926 H 0.11661 0.47866 0.21546 0.0
H1927 H 0.06791 0.44717 0.17348 0.0
H1928 H 0.07065 0.51069 0.19533 0.0
H1929 H 0.06744 0.53385 0.2189 0.0
H1930 H 0.00729 0.51023 0.22423 0.0
H1931 H 0.01022 0.48672 0.20088 0.0
C1932 C 0.01774 0.47338 0.1003 0.0
C1933 C 0.99755 0.47218 0.10093 0.0
C1934 C 0.029 0.47278 0.11692 0.0
C1935 C 0.02028 0.47063 0.13452 0.0
C1936 C 1.00013 0.46974 0.13517 0.0
C1937 C 0.98887 0.47054 0.11854 0.0
C1938 C 0.03222 0.46947 0.15219 0.0
C1939 C 0.03064 0.48214 0.16619 0.0
C1940 C 0.04567 0.45652 0.15497 0.0
C1941 C 0.04699 0.44173 0.14148 0.0
C1942 C 0.03044 0.42883 0.13629 0.0
C1943 C 0.03174 0.41503 0.12345 0.0
C1944 C 0.04954 0.41389 0.11582 0.0
C1945 C 0.0661 0.42651 0.12104 0.0
C1946 C 0.06488 0.44035 0.13385 0.0
C1947 C 0.07301 0.46555 0.23628 0.0
C1948 C 0.09319 0.47059 0.23491 0.0
C1949 C 0.06098 0.46514 0.22009 0.0
C1950 C 0.06893 0.4696 0.20226 0.0
C1951 C 0.08909 0.47413 0.20081 0.0
C1952 C 0.10111 0.47478 0.21699 0.0
C1953 C 0.05623 0.46996 0.18512 0.0
C1954 C 0.05768 0.45714 0.17128 0.0
C1955 C 0.04251 0.4826 0.18258 0.0
C1956 C 0.0407 0.49681 0.19651 0.0
C1957 C 0.05678 0.51033 0.20165 0.0
C1958 C 0.055 0.52354 0.21494 0.0
C1959 C 0.03719 0.52348 0.2231 0.0
C1960 C 0.02109 0.51024 0.21792 0.0
C1961 C 0.02279 0.49697 0.20465 0.0
H1962 H 0.03584 0.53372 0.23339 0.0
H1963 H 0.05052 0.40319 0.10589 0.0
H1964 H 0.34999 0.74155 0.23676 0.0
H1965 H 0.37637 0.74879 0.26012 0.0
H1966 H 0.33725 0.72746 0.30473 0.0
H1967 H 0.31073 0.72048 0.28146 0.0
H1968 H 0.36082 0.76144 0.31267 0.0
H1969 H 0.36763 0.69997 0.29134 0.0
H1970 H 0.37076 0.6769 0.26766 0.0
H1971 H 0.42332 0.71178 0.24888 0.0
H1972 H 0.42035 0.73522 0.27228 0.0
H1973 H 0.43166 0.75252 0.38593 0.0
H1974 H 0.40458 0.74674 0.36315 0.0
H1975 H 0.44386 0.76268 0.31755 0.0
H1976 H 0.47103 0.76803 0.34019 0.0
H1977 H 0.4198 0.73135 0.31022 0.0
H1978 H 0.41333 0.79292 0.33109 0.0
H1979 H 0.41032 0.81652 0.35427 0.0
H1980 H 0.35751 0.78236 0.37337 0.0
H1981 H 0.36034 0.7584 0.35046 0.0
C1982 C 0.34698 0.73857 0.25156 0.0
C1983 C 0.32832 0.73036 0.25728 0.0
C1984 C 0.36208 0.74259 0.26487 0.0
C1985 C 0.35879 0.73848 0.28414 0.0
C1986 C 0.34009 0.73068 0.28992 0.0
C1987 C 0.32501 0.72656 0.27661 0.0
C1988 C 0.37493 0.74206 0.29823 0.0
C1989 C 0.37363 0.75469 0.31231 0.0
C1990 C 0.3918 0.73357 0.29746 0.0
C1991 C 0.39366 0.71944 0.28344 0.0
C1992 C 0.37977 0.7028 0.28206 0.0
C1993 C 0.38153 0.68964 0.26871 0.0
C1994 C 0.3972 0.6929 0.25674 0.0
C1995 C 0.41117 0.70929 0.25814 0.0
C1996 C 0.40947 0.72251 0.27146 0.0
C1997 C 0.43452 0.75487 0.37105 0.0
C1998 C 0.4535 0.76075 0.36488 0.0
C1999 C 0.41901 0.75164 0.35804 0.0
C2000 C 0.42214 0.75447 0.33862 0.0
C2001 C 0.44108 0.76039 0.33245 0.0
C2002 C 0.4566 0.76349 0.34543 0.0
C2003 C 0.4058 0.75085 0.32468 0.0
C2004 C 0.40703 0.73816 0.31062 0.0
C2005 C 0.38892 0.75937 0.32542 0.0
C2006 C 0.38716 0.77377 0.33919 0.0
C2007 C 0.40116 0.79036 0.34033 0.0
C2008 C 0.39947 0.80382 0.35341 0.0
C2009 C 0.38376 0.80092 0.36532 0.0
C2010 C 0.36968 0.78457 0.36415 0.0
C2011 C 0.37132 0.77106 0.35111 0.0
H2012 H 0.38248 0.81136 0.37543 0.0
H2013 H 0.39854 0.68269 0.24642 0.0
H2014 H 0.96527 0.42862 0.00892 0.0
H2015 H 0.97014 0.40223 0.98994 0.0
H2016 H 0.03191 0.42089 0.99345 0.0
H2017 H 0.02707 0.44724 0.01244 0.0
H2018 H 0.01907 0.41305 0.9576 0.0
H2019 H 0.01204 0.38213 0.01949 0.0
H2020 H 0.99617 0.37263 0.04971 0.0
H2021 H 0.94633 0.34327 0.02053 0.0
H2022 H 0.9618 0.35284 0.99009 0.0
H2023 H 0.04862 0.33029 0.92431 0.0
H2024 H 0.04362 0.35623 0.94362 0.0
H2025 H 0.98198 0.33675 0.94097 0.0
H2026 H 0.98684 0.31068 0.92175 0.0
H2027 H 0.99466 0.34494 0.97647 0.0
H2028 H 0.00144 0.37585 0.91465 0.0
H2029 H 0.01705 0.38546 0.88432 0.0
H2030 H 0.06703 0.41493 0.9132 0.0
H2031 H 0.05182 0.40526 0.94374 0.0
C2032 C 0.97988 0.42692 0.00578 0.0
C2033 C 0.99582 0.4397 0.01242 0.0
C2034 C 0.98265 0.41188 0.99496 0.0
C2035 C 0.00141 0.40947 0.99047 0.0
C2036 C 0.01732 0.42244 0.99682 0.0
C2037 C 0.01456 0.43741 0.00772 0.0
C2038 C 0.00442 0.39359 0.97889 0.0
C2039 C 0.01398 0.39814 0.96185 0.0
C2040 C 0.99734 0.37418 0.98422 0.0
C2041 C 0.988 0.36838 0.0025 0.0
C2042 C 0.99763 0.37379 0.0195 0.0
C2043 C 0.98872 0.36837 0.03668 0.0
C2044 C 0.97023 0.3574 0.03704 0.0
C2045 C 0.96064 0.35179 0.02023 0.0
C2046 C 0.96948 0.3572 0.00301 0.0
C2047 C 0.03399 0.33152 0.9278 0.0
C2048 C 0.01813 0.31843 0.92143 0.0
C2049 C 0.03116 0.3464 0.9388 0.0
C2050 C 0.01241 0.34853 0.9436 0.0
C2051 C 0.99657 0.33539 0.93742 0.0
C2052 C 0.99938 0.32053 0.92637 0.0
C2053 C 0.00934 0.36439 0.95518 0.0
C2054 C 0.99976 0.35985 0.97222 0.0
C2055 C 0.01637 0.38382 0.94984 0.0
C2056 C 0.02557 0.38966 0.9315 0.0
C2057 C 0.01583 0.38424 0.91454 0.0
C2058 C 0.02459 0.38972 0.89731 0.0
C2059 C 0.04305 0.40075 0.89684 0.0
C2060 C 0.05275 0.40636 0.91359 0.0
C2061 C 0.04406 0.4009 0.93087 0.0
H2062 H 0.0498 0.405 0.88348 0.0
H2063 H 0.96336 0.3532 0.05035 0.0
H2064 H 0.69664 0.80651 0.27269 0.0
H2065 H 0.66931 0.80207 0.29355 0.0
H2066 H 0.63244 0.77386 0.25034 0.0
H2067 H 0.65945 0.77925 0.22898 0.0
H2068 H 0.61425 0.79783 0.26583 0.0
H2069 H 0.65011 0.74878 0.28953 0.0
H2070 H 0.67888 0.73538 0.3017 0.0
H2071 H 0.68349 0.77072 0.34889 0.0
H2072 H 0.65489 0.78453 0.33687 0.0
H2073 H 0.53703 0.75454 0.32387 0.0
H2074 H 0.56484 0.76004 0.30347 0.0
H2075 H 0.59799 0.79483 0.34464 0.0
H2076 H 0.57016 0.78943 0.3652 0.0
H2077 H 0.6181 0.76802 0.33066 0.0
H2078 H 0.58117 0.81635 0.30651 0.0
H2079 H 0.55182 0.82856 0.29414 0.0
H2080 H 0.5486 0.7928 0.24737 0.0
H2081 H 0.57779 0.78017 0.25962 0.0
C2082 C 0.68268 0.79953 0.26752 0.0
C2083 C 0.68028 0.79328 0.2491 0.0
C2084 C 0.6671 0.79677 0.27958 0.0
C2085 C 0.64884 0.7874 0.27363 0.0
C2086 C 0.6464 0.78108 0.25528 0.0
C2087 C 0.66193 0.78399 0.24314 0.0
C2088 C 0.63218 0.78457 0.28636 0.0
C2089 C 0.61503 0.79106 0.27991 0.0
C2090 C 0.6333 0.77613 0.30491 0.0
C2091 C 0.65047 0.76783 0.3122 0.0
C2092 C 0.65735 0.75381 0.30243 0.0
C2093 C 0.67361 0.74612 0.30931 0.0
C2094 C 0.68304 0.75223 0.32603 0.0
C2095 C 0.67619 0.76601 0.33593 0.0
C2096 C 0.65995 0.77376 0.3291 0.0
C2097 C 0.55021 0.76341 0.3286 0.0
C2098 C 0.55137 0.77159 0.34615 0.0
C2099 C 0.56607 0.76657 0.31689 0.0
C2100 C 0.58342 0.77795 0.3225 0.0
C2101 C 0.58471 0.78603 0.34006 0.0
C2102 C 0.56878 0.78299 0.35174 0.0
C2103 C 0.60025 0.78119 0.31006 0.0
C2104 C 0.6174 0.77479 0.31658 0.0
C2105 C 0.59908 0.78954 0.29152 0.0
C2106 C 0.58157 0.79718 0.28408 0.0
C2107 C 0.57412 0.81097 0.29367 0.0
C2108 C 0.55752 0.81799 0.28666 0.0
C2109 C 0.54832 0.81143 0.27 0.0
C2110 C 0.55573 0.79786 0.26029 0.0
C2111 C 0.57231 0.79078 0.26725 0.0
H2112 H 0.53548 0.81688 0.2646 0.0
H2113 H 0.69562 0.74626 0.33134 0.0
H2114 H 0.99694 0.07637 0.01174 0.0
H2115 H 0.99279 0.10331 0.98924 0.0
H2116 H 0.05424 0.12369 0.99257 0.0
H2117 H 0.05851 0.09652 0.01482 0.0
H2118 H 0.02841 0.15181 0.99824 0.0
H2119 H 0.03967 0.10542 0.95518 0.0
H2120 H 0.0339 0.07385 0.9415 0.0
H2121 H 0.97521 0.08071 0.92698 0.0
H2122 H 0.98055 0.11222 0.94085 0.0
H2123 H 0.03232 0.22574 0.92598 0.0
H2124 H 0.03808 0.198 0.94638 0.0
H2125 H 0.98099 0.1686 0.93185 0.0
H2126 H 0.9754 0.19607 0.91089 0.0
H2127 H 0.00529 0.14466 0.93189 0.0
H2128 H 0.9922 0.18944 0.97502 0.0
H2129 H 0.99583 0.2204 0.98977 0.0
H2130 H 0.05487 0.21612 0.00558 0.0
H2131 H 0.05167 0.18523 0.99069 0.0
C2132 C 0.00955 0.08655 0.00754 0.0
C2133 C 0.02804 0.08443 0.01493 0.0
C2134 C 0.00718 0.10185 0.9947 0.0
C2135 C 0.02322 0.11542 0.98928 0.0
C2136 C 0.04171 0.11331 0.9966 0.0
C2137 C 0.04414 0.0978 0.00918 0.0
C2138 C 0.02053 0.13213 0.97643 0.0
C2139 C 0.02366 0.15036 0.98363 0.0
C2140 C 0.01369 0.13001 0.95763 0.0
C2141 C 0.01045 0.11109 0.94924 0.0
C2142 C 0.02548 0.10012 0.94924 0.0
C2143 C 0.0223 0.08225 0.94141 0.0
C2144 C 0.00418 0.07525 0.93342 0.0
C2145 C 0.98922 0.08613 0.9332 0.0
C2146 C 0.99233 0.10401 0.94103 0.0
C2147 C 0.02096 0.21339 0.92716 0.0
C2148 C 0.00336 0.21314 0.91688 0.0
C2149 C 0.02425 0.19755 0.9389 0.0
C2150 C 0.00986 0.18128 0.9409 0.0
C2151 C 0.99231 0.18097 0.93056 0.0
C2152 C 0.98911 0.19672 0.91863 0.0
C2153 C 0.01317 0.16453 0.95364 0.0
C2154 C 0.01011 0.14624 0.94646 0.0
C2155 C 0.01977 0.16655 0.9726 0.0
C2156 C 0.02175 0.18512 0.98157 0.0
C2157 C 0.00601 0.19517 0.98151 0.0
C2158 C 0.00798 0.21269 0.98992 0.0
C2159 C 0.02559 0.22025 0.99856 0.0
C2160 C 0.04125 0.21026 0.99885 0.0
C2161 C 0.03936 0.19274 0.99045 0.0
H2162 H 0.02709 0.23381 0.00506 0.0
H2163 H 0.00175 0.06142 0.92736 0.0
H2164 H 0.34742 0.32157 0.24446 0.0
H2165 H 0.37519 0.31643 0.22665 0.0
H2166 H 0.37874 0.26436 0.26084 0.0
H2167 H 0.35116 0.26971 0.27883 0.0
H2168 H 0.4142 0.28459 0.25474 0.0
H2169 H 0.35732 0.26287 0.21686 0.0
H2170 H 0.32644 0.2659 0.19991 0.0
H2171 H 0.35517 0.31267 0.16468 0.0
H2172 H 0.38619 0.31008 0.18159 0.0
H2173 H 0.47118 0.24115 0.19548 0.0
H2174 H 0.44527 0.24842 0.21438 0.0
H2175 H 0.44171 0.29937 0.17849 0.0
H2176 H 0.46736 0.29201 0.1593 0.0
H2177 H 0.40658 0.2805 0.18548 0.0
H2178 H 0.46366 0.3018 0.22264 0.0
H2179 H 0.4946 0.29895 0.23954 0.0
H2180 H 0.46579 0.25337 0.27608 0.0
H2181 H 0.4347 0.25577 0.25922 0.0
C2182 C 0.35419 0.30906 0.24812 0.0
C2183 C 0.34696 0.29578 0.26266 0.0
C2184 C 0.36999 0.3061 0.23795 0.0
C2185 C 0.3788 0.2898 0.24217 0.0
C2186 C 0.37208 0.27695 0.25725 0.0
C2187 C 0.35631 0.27994 0.26744 0.0
C2188 C 0.39476 0.28592 0.23064 0.0
C2189 C 0.41248 0.28348 0.23963 0.0
C2190 C 0.39265 0.2849 0.21086 0.0
C2191 C 0.37403 0.2864 0.20061 0.0
C2192 C 0.35702 0.27389 0.20559 0.0
C2193 C 0.3395 0.27552 0.19597 0.0
C2194 C 0.33883 0.2895 0.18126 0.0
C2195 C 0.3557 0.30186 0.17609 0.0
C2196 C 0.37326 0.30031 0.18568 0.0
C2197 C 0.4649 0.25391 0.1916 0.0
C2198 C 0.47138 0.26601 0.1759 0.0
C2199 C 0.45015 0.25811 0.20249 0.0
C2200 C 0.44171 0.27459 0.19801 0.0
C2201 C 0.44802 0.2866 0.18224 0.0
C2202 C 0.46272 0.28237 0.1713 0.0
C2203 C 0.42606 0.27914 0.20957 0.0
C2204 C 0.40836 0.28168 0.20059 0.0
C2205 C 0.42822 0.28028 0.22935 0.0
C2206 C 0.44688 0.27885 0.23955 0.0
C2207 C 0.46394 0.29107 0.23419 0.0
C2208 C 0.4815 0.28955 0.24377 0.0
C2209 C 0.48217 0.27595 0.25884 0.0
C2210 C 0.46525 0.26388 0.26439 0.0
C2211 C 0.44766 0.26533 0.25483 0.0
H2212 H 0.49578 0.2748 0.26624 0.0
H2213 H 0.32525 0.29073 0.17384 0.0
H2214 H 0.57892 0.43926 0.99192 0.0
H2215 H 0.57192 0.41133 0.0141 0.0
H2216 H 0.51309 0.42144 0.01736 0.0
H2217 H 0.52018 0.4498 0.99575 0.0
H2218 H 0.52785 0.41382 0.05155 0.0
H2219 H 0.52429 0.38547 0.99192 0.0
H2220 H 0.53591 0.3793 0.96105 0.0
H2221 H 0.58408 0.35691 0.98821 0.0
H2222 H 0.57289 0.36319 0.01926 0.0
H2223 H 0.48593 0.32388 0.09353 0.0
H2224 H 0.49449 0.35174 0.07161 0.0
H2225 H 0.55367 0.34179 0.07295 0.0
H2226 H 0.54522 0.3138 0.09491 0.0
H2227 H 0.53972 0.3493 0.03685 0.0
H2228 H 0.54259 0.37713 0.09661 0.0
H2229 H 0.53053 0.3831 0.12735 0.0
H2230 H 0.48309 0.4063 0.09966 0.0
H2231 H 0.49471 0.40022 0.06874 0.0
C2232 C 0.56452 0.43561 0.99744 0.0
C2233 C 0.5501 0.44676 0.99203 0.0
C2234 C 0.56049 0.41953 0.00998 0.0
C2235 C 0.54192 0.41416 0.01724 0.0
C2236 C 0.5275 0.42527 0.01189 0.0
C2237 C 0.53153 0.44138 0.99939 0.0
C2238 C 0.53757 0.39718 0.03068 0.0
C2239 C 0.53021 0.39967 0.04823 0.0
C2240 C 0.54112 0.3788 0.02655 0.0
C2241 C 0.54786 0.37499 0.0079 0.0
C2242 C 0.53745 0.37938 0.99131 0.0
C2243 C 0.54394 0.37583 0.97378 0.0
C2244 C 0.56075 0.36777 0.97267 0.0
C2245 C 0.57108 0.36318 0.98909 0.0
C2246 C 0.56466 0.36672 0.00666 0.0
C2247 C 0.50078 0.3276 0.0892 0.0
C2248 C 0.51491 0.31664 0.09601 0.0
C2249 C 0.50566 0.34357 0.07671 0.0
C2250 C 0.52475 0.34892 0.07079 0.0
C2251 C 0.53886 0.33791 0.07738 0.0
C2252 C 0.53402 0.32197 0.08997 0.0
C2253 C 0.52989 0.36595 0.05762 0.0
C2254 C 0.53741 0.36348 0.04015 0.0
C2255 C 0.52644 0.38433 0.06179 0.0
C2256 C 0.51942 0.38805 0.08036 0.0
C2257 C 0.52949 0.38336 0.09708 0.0
C2258 C 0.52275 0.38679 0.11454 0.0
C2259 C 0.50602 0.39503 0.11546 0.0
C2260 C 0.49603 0.39989 0.09892 0.0
C2261 C 0.5027 0.39647 0.08142 0.0
H2262 H 0.50083 0.39768 0.12899 0.0
H2263 H 0.56575 0.36503 0.95908 0.0
H2264 H 0.69569 0.27952 0.27296 0.0
H2265 H 0.66829 0.28407 0.25178 0.0
H2266 H 0.65515 0.22304 0.246 0.0
H2267 H 0.68248 0.21832 0.26741 0.0
H2268 H 0.65313 0.24355 0.21211 0.0
H2269 H 0.62847 0.24384 0.27389 0.0
H2270 H 0.6284 0.25414 0.30628 0.0
H2271 H 0.62563 0.31179 0.28481 0.0
H2272 H 0.62598 0.30189 0.25228 0.0
H2273 H 0.5592 0.24304 0.17044 0.0
H2274 H 0.5864 0.23728 0.19141 0.0
H2275 H 0.59951 0.29767 0.20066 0.0
H2276 H 0.57209 0.30352 0.17995 0.0
H2277 H 0.60127 0.27668 0.23305 0.0
H2278 H 0.62655 0.27679 0.17141 0.0
H2279 H 0.62705 0.26684 0.13894 0.0
H2280 H 0.62897 0.20889 0.15993 0.0
H2281 H 0.62822 0.21844 0.19254 0.0
C2282 C 0.68688 0.26703 0.26733 0.0
C2283 C 0.69116 0.24853 0.27204 0.0
C2284 C 0.67126 0.26966 0.25518 0.0
C2285 C 0.65953 0.25387 0.24752 0.0
C2286 C 0.66401 0.23542 0.25179 0.0
C2287 C 0.67966 0.23276 0.26398 0.0
C2288 C 0.64254 0.25668 0.23514 0.0
C2289 C 0.64164 0.25054 0.21676 0.0
C2290 C 0.62779 0.26619 0.2411 0.0
C2291 C 0.62743 0.27216 0.26065 0.0
C2292 C 0.628 0.25875 0.27608 0.0
C2293 C 0.62788 0.26451 0.29446 0.0
C2294 C 0.62706 0.28362 0.2976 0.0
C2295 C 0.62629 0.297 0.28236 0.0
C2296 C 0.62643 0.29132 0.26394 0.0
C2297 C 0.56786 0.25512 0.17692 0.0
C2298 C 0.5635 0.27376 0.17347 0.0
C2299 C 0.58347 0.2518 0.18885 0.0
C2300 C 0.59515 0.26708 0.19742 0.0
C2301 C 0.59071 0.28567 0.19416 0.0
C2302 C 0.57506 0.289 0.18228 0.0
C2303 C 0.61188 0.26366 0.20994 0.0
C2304 C 0.61273 0.26966 0.22838 0.0
C2305 C 0.62661 0.25407 0.20401 0.0
C2306 C 0.62713 0.2483 0.18441 0.0
C2307 C 0.62692 0.2619 0.1691 0.0
C2308 C 0.62728 0.25633 0.15067 0.0
C2309 C 0.62799 0.23723 0.14737 0.0
C2310 C 0.62839 0.22367 0.1625 0.0
C2311 C 0.62802 0.22915 0.18097 0.0
H2312 H 0.62826 0.23296 0.13309 0.0
H2313 H 0.62697 0.28805 0.31185 0.0
H2314 H 0.51402 0.09032 0.01471 0.0
H2315 H 0.51882 0.11631 0.03628 0.0
H2316 H 0.46228 0.12973 0.02022 0.0
H2317 H 0.45747 0.10387 0.99846 0.0
H2318 H 0.49024 0.162 0.02124 0.0
H2319 H 0.46812 0.10643 0.06121 0.0
H2320 H 0.46782 0.07358 0.07518 0.0
H2321 H 0.52555 0.08973 0.09774 0.0
H2322 H 0.5263 0.12263 0.08365 0.0
H2323 H 0.48581 0.2236 0.09555 0.0
H2324 H 0.47826 0.19692 0.07489 0.0
H2325 H 0.53389 0.18031 0.08911 0.0
H2326 H 0.54154 0.20685 0.10979 0.0
H2327 H 0.50473 0.14938 0.0893 0.0
H2328 H 0.52733 0.20449 0.04825 0.0
H2329 H 0.52778 0.23732 0.03416 0.0
H2330 H 0.46917 0.22198 0.0136 0.0
H2331 H 0.46828 0.1891 0.02782 0.0
C2332 C 0.50267 0.09889 0.01569 0.0
C2333 C 0.48535 0.09504 0.00494 0.0
C2334 C 0.50537 0.11363 0.02811 0.0
C2335 C 0.49083 0.12482 0.02997 0.0
C2336 C 0.47365 0.12121 0.01904 0.0
C2337 C 0.47088 0.10638 0.00672 0.0
C2338 C 0.49363 0.14034 0.04328 0.0
C2339 C 0.49311 0.15922 0.03617 0.0
C2340 C 0.49773 0.13672 0.06269 0.0
C2341 C 0.49733 0.11695 0.07121 0.0
C2342 C 0.48082 0.10294 0.069 0.0
C2343 C 0.48055 0.08431 0.07697 0.0
C2344 C 0.49668 0.07956 0.0873 0.0
C2345 C 0.51308 0.09343 0.08971 0.0
C2346 C 0.51343 0.11207 0.08175 0.0
C2347 C 0.4964 0.21422 0.09435 0.0
C2348 C 0.51432 0.21741 0.10424 0.0
C2349 C 0.49209 0.19902 0.08249 0.0
C2350 C 0.50559 0.18675 0.08035 0.0
C2351 C 0.52327 0.18963 0.09055 0.0
C2352 C 0.52764 0.20486 0.10231 0.0
C2353 C 0.50148 0.17106 0.06724 0.0
C2354 C 0.50176 0.15215 0.07439 0.0
C2355 C 0.49717 0.17465 0.04786 0.0
C2356 C 0.49767 0.1944 0.03928 0.0
C2357 C 0.51448 0.20816 0.04087 0.0
C2358 C 0.51483 0.22677 0.03284 0.0
C2359 C 0.49849 0.23175 0.02304 0.0
C2360 C 0.4818 0.21811 0.02122 0.0
C2361 C 0.48137 0.19948 0.02926 0.0
H2362 H 0.49879 0.24616 0.01683 0.0
H2363 H 0.49644 0.06513 0.09346 0.0
H2364 H 0.21865 0.35854 0.7248 0.0
H2365 H 0.24281 0.38737 0.72738 0.0
H2366 H 0.28849 0.35324 0.72722 0.0
H2367 H 0.26431 0.32419 0.72518 0.0
H2368 H 0.29489 0.37883 0.75438 0.0
H2369 H 0.27849 0.38048 0.68841 0.0
H2370 H 0.25666 0.3796 0.66031 0.0
H2371 H 0.23583 0.42976 0.67641 0.0
H2372 H 0.25735 0.43078 0.70477 0.0
H2373 H 0.37106 0.4576 0.74033 0.0
H2374 H 0.34802 0.42812 0.73664 0.0
H2375 H 0.30061 0.46013 0.73635 0.0
H2376 H 0.32357 0.48974 0.73981 0.0
H2377 H 0.29582 0.43516 0.70885 0.0
H2378 H 0.31155 0.43305 0.77516 0.0
H2379 H 0.33336 0.43404 0.80328 0.0
H2380 H 0.3554 0.38478 0.78656 0.0
H2381 H 0.33391 0.38367 0.75817 0.0
C2382 C 0.23383 0.35714 0.72542 0.0
C2383 C 0.23957 0.33906 0.72482 0.0
C2384 C 0.24763 0.37366 0.72672 0.0
C2385 C 0.26746 0.37248 0.72731 0.0
C2386 C 0.27326 0.35447 0.72673 0.0
C2387 C 0.25944 0.33792 0.72541 0.0
C2388 C 0.28208 0.39004 0.72887 0.0
C2389 C 0.2953 0.39104 0.74426 0.0
C2390 C 0.28231 0.40613 0.7159 0.0
C2391 C 0.26941 0.4056 0.69881 0.0
C2392 C 0.26915 0.39124 0.68604 0.0
C2393 C 0.25685 0.39073 0.67005 0.0
C2394 C 0.24484 0.40459 0.6666 0.0
C2395 C 0.24513 0.41902 0.67911 0.0
C2396 C 0.25739 0.41958 0.69514 0.0
C2397 C 0.35573 0.45839 0.73951 0.0
C2398 C 0.34915 0.47603 0.74041 0.0
C2399 C 0.34258 0.4415 0.73746 0.0
C2400 C 0.32259 0.4419 0.73641 0.0
C2401 C 0.31598 0.4595 0.73715 0.0
C2402 C 0.32912 0.4764 0.73919 0.0
C2403 C 0.30856 0.42398 0.7344 0.0
C2404 C 0.29545 0.42292 0.71893 0.0
C2405 C 0.30843 0.40785 0.7473 0.0
C2406 C 0.32126 0.4084 0.76444 0.0
C2407 C 0.32115 0.42252 0.7774 0.0
C2408 C 0.33344 0.42309 0.7934 0.0
C2409 C 0.3458 0.40952 0.79667 0.0
C2410 C 0.34585 0.3953 0.78398 0.0
C2411 C 0.3336 0.39469 0.76795 0.0
H2412 H 0.35532 0.40999 0.80906 0.0
H2413 H 0.23533 0.40417 0.65421 0.0
H2414 H 0.25883 0.69953 0.75629 0.0
H2415 H 0.27578 0.67236 0.75259 0.0
H2416 H 0.31193 0.6875 0.8016 0.0
H2417 H 0.29513 0.71482 0.80513 0.0
H2418 H 0.33314 0.68011 0.7731 0.0
H2419 H 0.27528 0.64932 0.80353 0.0
H2420 H 0.24006 0.64093 0.80757 0.0
H2421 H 0.23365 0.6152 0.75429 0.0
H2422 H 0.26882 0.62368 0.74981 0.0
H2423 H 0.37468 0.59553 0.787 0.0
H2424 H 0.35676 0.62178 0.79067 0.0
H2425 H 0.3201 0.60483 0.74252 0.0
H2426 H 0.33772 0.57821 0.73899 0.0
H2427 H 0.29903 0.61318 0.77012 0.0
H2428 H 0.35664 0.6439 0.73952 0.0
H2429 H 0.3918 0.65242 0.73515 0.0
H2430 H 0.39861 0.67846 0.78827 0.0
H2431 H 0.3635 0.66987 0.79307 0.0
C2432 C 0.27044 0.69702 0.76621 0.0
C2433 C 0.27596 0.70937 0.78078 0.0
C2434 C 0.28002 0.68147 0.76417 0.0
C2435 C 0.29508 0.67785 0.77686 0.0
C2436 C 0.30042 0.69007 0.79159 0.0
C2437 C 0.29084 0.70563 0.79362 0.0
C2438 C 0.30556 0.66156 0.77458 0.0
C2439 C 0.32571 0.66544 0.77272 0.0
C2440 C 0.29581 0.64249 0.77355 0.0
C2441 C 0.27466 0.63731 0.77625 0.0
C2442 C 0.26634 0.64201 0.7926 0.0
C2443 C 0.24639 0.63721 0.79499 0.0
C2444 C 0.23462 0.62758 0.78117 0.0
C2445 C 0.24278 0.62268 0.76497 0.0
C2446 C 0.26273 0.62747 0.76251 0.0
C2447 C 0.36284 0.59738 0.77715 0.0
C2448 C 0.3577 0.58481 0.76264 0.0
C2449 C 0.35264 0.61246 0.77923 0.0
C2450 C 0.33725 0.61547 0.76671 0.0
C2451 C 0.33195 0.60282 0.75233 0.0
C2452 C 0.34208 0.58764 0.7503 0.0
C2453 C 0.32663 0.63172 0.76872 0.0
C2454 C 0.30646 0.62785 0.7705 0.0
C2455 C 0.33635 0.65083 0.76962 0.0
C2456 C 0.35746 0.65609 0.76673 0.0
C2457 C 0.36565 0.65132 0.75033 0.0
C2458 C 0.38557 0.65618 0.74777 0.0
C2459 C 0.39744 0.66593 0.76144 0.0
C2460 C 0.3894 0.67089 0.77769 0.0
C2461 C 0.36949 0.66605 0.78034 0.0
H2462 H 0.41286 0.66968 0.75943 0.0
H2463 H 0.21917 0.62388 0.78305 0.0
H2464 H 0.93052 0.55903 0.48501 0.0
H2465 H 0.90038 0.53614 0.48706 0.0
H2466 H 0.93277 0.48923 0.48747 0.0
H2467 H 0.96293 0.51212 0.48507 0.0
H2468 H 0.90154 0.48212 0.46567 0.0
H2469 H 0.91474 0.50289 0.52823 0.0
H2470 H 0.92206 0.52636 0.55263 0.0
H2471 H 0.86865 0.54715 0.53875 0.0
H2472 H 0.86114 0.52397 0.51407 0.0
H2473 H 0.8294 0.40827 0.50317 0.0
H2474 H 0.85873 0.43199 0.49924 0.0
H2475 H 0.82405 0.47706 0.49095 0.0
H2476 H 0.79457 0.45339 0.49475 0.0
H2477 H 0.85581 0.48537 0.51631 0.0
H2478 H 0.84265 0.46323 0.45407 0.0
H2479 H 0.83571 0.43891 0.43045 0.0
H2480 H 0.88973 0.41958 0.44498 0.0
H2481 H 0.89686 0.44361 0.4689 0.0
C2482 C 0.93119 0.54383 0.48559 0.0
C2483 C 0.94907 0.53734 0.48499 0.0
C2484 C 0.91398 0.53076 0.48678 0.0
C2485 C 0.91432 0.51095 0.48774 0.0
C2486 C 0.93214 0.50445 0.48677 0.0
C2487 C 0.94935 0.51752 0.48538 0.0
C2488 C 0.89614 0.49699 0.48985 0.0
C2489 C 0.89168 0.4827 0.47689 0.0
C2490 C 0.88305 0.49794 0.50428 0.0
C2491 C 0.88747 0.51183 0.51918 0.0
C2492 C 0.90462 0.51257 0.53029 0.0
C2493 C 0.9088 0.5258 0.54418 0.0
C2494 C 0.89585 0.53827 0.54721 0.0
C2495 C 0.87867 0.5375 0.53638 0.0
C2496 C 0.87445 0.52431 0.52244 0.0
C2497 C 0.82799 0.42322 0.50052 0.0
C2498 C 0.80965 0.42895 0.49924 0.0
C2499 C 0.84476 0.43674 0.49821 0.0
C2500 C 0.84352 0.45624 0.49468 0.0
C2501 C 0.82528 0.46206 0.49364 0.0
C2502 C 0.80847 0.44852 0.49576 0.0
C2503 C 0.86132 0.47055 0.49219 0.0
C2504 C 0.86569 0.48487 0.50509 0.0
C2505 C 0.87441 0.46951 0.47784 0.0
C2506 C 0.8702 0.4551 0.4634 0.0
C2507 C 0.85297 0.45369 0.45234 0.0
C2508 C 0.84902 0.43997 0.43888 0.0
C2509 C 0.86225 0.42767 0.43625 0.0
C2510 C 0.87949 0.4291 0.44705 0.0
C2511 C 0.8835 0.44277 0.46055 0.0
H2512 H 0.85917 0.41707 0.42582 0.0
H2513 H 0.89911 0.54851 0.55797 0.0
H2514 H 0.77905 0.8354 0.84177 0.0
H2515 H 0.75719 0.85915 0.83933 0.0
H2516 H 0.74813 0.85098 0.77995 0.0
H2517 H 0.7698 0.8271 0.7823 0.0
H2518 H 0.75439 0.88855 0.78671 0.0
H2519 H 0.71389 0.83156 0.81113 0.0
H2520 H 0.70492 0.80351 0.83327 0.0
H2521 H 0.70591 0.84061 0.87869 0.0
H2522 H 0.71517 0.86889 0.85686 0.0
H2523 H 0.67277 0.93527 0.76974 0.0
H2524 H 0.69392 0.91092 0.77305 0.0
H2525 H 0.7023 0.91997 0.83231 0.0
H2526 H 0.68101 0.94421 0.82918 0.0
H2527 H 0.69656 0.88215 0.82604 0.0
H2528 H 0.73695 0.93907 0.80189 0.0
H2529 H 0.7462 0.96726 0.77999 0.0
H2530 H 0.74574 0.9305 0.73437 0.0
H2531 H 0.73622 0.90208 0.75595 0.0
C2532 C 0.77227 0.83852 0.82822 0.0
C2533 C 0.77618 0.82932 0.81223 0.0
C2534 C 0.7598 0.85213 0.82684 0.0
C2535 C 0.75088 0.85673 0.80948 0.0
C2536 C 0.75488 0.84769 0.79348 0.0
C2537 C 0.76733 0.83409 0.79484 0.0
C2538 C 0.73749 0.87105 0.80793 0.0
C2539 C 0.7416 0.88702 0.79513 0.0
C2540 C 0.72107 0.8693 0.81926 0.0
C2541 C 0.71542 0.85233 0.83239 0.0
C2542 C 0.71235 0.83373 0.82587 0.0
C2543 C 0.70719 0.81779 0.83835 0.0
C2544 C 0.7049 0.82027 0.85738 0.0
C2545 C 0.70772 0.83871 0.86395 0.0
C2546 C 0.71291 0.8547 0.85153 0.0
C2547 C 0.67904 0.93204 0.7835 0.0
C2548 C 0.67526 0.94177 0.79918 0.0
C2549 C 0.6912 0.91817 0.78535 0.0
C2550 C 0.6999 0.91379 0.80289 0.0
C2551 C 0.69579 0.92315 0.81864 0.0
C2552 C 0.68365 0.93705 0.81681 0.0
C2553 C 0.71341 0.8996 0.80475 0.0
C2554 C 0.70935 0.88368 0.81762 0.0
C2555 C 0.7299 0.9014 0.79351 0.0
C2556 C 0.73567 0.91846 0.7805 0.0
C2557 C 0.73866 0.937 0.78715 0.0
C2558 C 0.74398 0.95302 0.77481 0.0
C2559 C 0.7465 0.95067 0.75579 0.0
C2560 C 0.74376 0.93229 0.74909 0.0
C2561 C 0.73841 0.91622 0.76138 0.0
H2562 H 0.75063 0.9631 0.74625 0.0
H2563 H 0.7009 0.80791 0.86703 0.0
H2564 H 0.61267 0.48469 0.97461 0.0
H2565 H 0.64272 0.50661 0.9808 0.0
H2566 H 0.61139 0.55445 0.97596 0.0
H2567 H 0.58132 0.53259 0.96957 0.0
H2568 H 0.64544 0.56369 0.95921 0.0
H2569 H 0.62362 0.5346 0.01905 0.0
H2570 H 0.61268 0.50771 0.04194 0.0
H2571 H 0.66659 0.48699 0.03809 0.0
H2572 H 0.67775 0.51362 0.01495 0.0
H2573 H 0.7146 0.6307 0.00621 0.0
H2574 H 0.68546 0.60891 0.99707 0.0
H2575 H 0.7175 0.5616 0.00173 0.0
H2576 H 0.74664 0.58324 0.01124 0.0
H2577 H 0.68337 0.552 0.01803 0.0
H2578 H 0.70554 0.58239 0.9587 0.0
H2579 H 0.71622 0.60996 0.93647 0.0
H2580 H 0.66137 0.62893 0.93989 0.0
H2581 H 0.65046 0.60165 0.96238 0.0
C2582 C 0.6122 0.49989 0.97486 0.0
C2583 C 0.59462 0.50691 0.97174 0.0
C2584 C 0.62937 0.5124 0.97839 0.0
C2585 C 0.62925 0.53214 0.97914 0.0
C2586 C 0.61182 0.53927 0.97546 0.0
C2587 C 0.59466 0.52677 0.97179 0.0
C2588 C 0.64718 0.54528 0.98435 0.0
C2589 C 0.65363 0.56126 0.97216 0.0
C2590 C 0.65805 0.54193 0.0011 0.0
C2591 C 0.65144 0.52599 0.01513 0.0
C2592 C 0.63309 0.52423 0.02298 0.0
C2593 C 0.62685 0.50905 0.03602 0.0
C2594 C 0.63891 0.49562 0.04143 0.0
C2595 C 0.65726 0.49738 0.03386 0.0
C2596 C 0.66355 0.51252 0.0208 0.0
C2597 C 0.71547 0.61567 0.00527 0.0
C2598 C 0.73295 0.60871 0.00943 0.0
C2599 C 0.69881 0.60324 0.99995 0.0
C2600 C 0.69935 0.58366 0.99848 0.0
C2601 C 0.71676 0.57666 0.00274 0.0
C2602 C 0.7334 0.58906 0.00814 0.0
C2603 C 0.68169 0.57039 0.99287 0.0
C2604 C 0.67525 0.5544 0.00502 0.0
C2605 C 0.67081 0.5738 0.97613 0.0
C2606 C 0.67725 0.59005 0.96236 0.0
C2607 C 0.6958 0.5925 0.95481 0.0
C2608 C 0.70189 0.60808 0.94215 0.0
C2609 C 0.6895 0.62121 0.93681 0.0
C2610 C 0.67096 0.61876 0.94406 0.0
C2611 C 0.66481 0.60323 0.95675 0.0
H2612 H 0.69423 0.63328 0.92704 0.0
H2613 H 0.63406 0.48387 0.05152 0.0
H2614 H 0.24583 0.69542 0.22386 0.0
H2615 H 0.22436 0.66471 0.22738 0.0
H2616 H 0.2726 0.63735 0.24765 0.0
H2617 H 0.29441 0.66779 0.24305 0.0
H2618 H 0.25064 0.61507 0.225 0.0
H2619 H 0.23917 0.6495 0.27787 0.0
H2620 H 0.23144 0.67677 0.29423 0.0
H2621 H 0.17592 0.67164 0.26544 0.0
H2622 H 0.18343 0.64448 0.2487 0.0
H2623 H 0.1937 0.53123 0.2676 0.0
H2624 H 0.21609 0.56134 0.26238 0.0
H2625 H 0.17005 0.58755 0.235 0.0
H2626 H 0.14757 0.55755 0.24012 0.0
H2627 H 0.19107 0.61002 0.26159 0.0
H2628 H 0.20342 0.57479 0.209 0.0
H2629 H 0.21171 0.54699 0.19389 0.0
H2630 H 0.26644 0.55304 0.22417 0.0
H2631 H 0.25836 0.58074 0.23967 0.0
C2632 C 0.25197 0.68284 0.22879 0.0
C2633 C 0.27188 0.68416 0.23326 0.0
C2634 C 0.2396 0.6653 0.23104 0.0
C2635 C 0.24678 0.64876 0.23813 0.0
C2636 C 0.26669 0.64993 0.24227 0.0
C2637 C 0.27912 0.66742 0.23983 0.0
C2638 C 0.23353 0.63027 0.2413 0.0
C2639 C 0.23776 0.61393 0.23322 0.0
C2640 C 0.21654 0.62879 0.2518 0.0
C2641 C 0.21194 0.64507 0.2619 0.0
C2642 C 0.22537 0.65427 0.27492 0.0
C2643 C 0.22102 0.6697 0.28428 0.0
C2644 C 0.20322 0.67597 0.28085 0.0
C2645 C 0.18971 0.66678 0.26807 0.0
C2646 C 0.194 0.65136 0.25866 0.0
C2647 C 0.18835 0.54338 0.26042 0.0
C2648 C 0.16886 0.54199 0.25425 0.0
C2649 C 0.20118 0.56055 0.25739 0.0
C2650 C 0.19474 0.57662 0.2482 0.0
C2651 C 0.17529 0.5753 0.24211 0.0
C2652 C 0.16249 0.55812 0.24499 0.0
C2653 C 0.20817 0.59495 0.24523 0.0
C2654 C 0.20397 0.61122 0.25339 0.0
C2655 C 0.22528 0.5963 0.23501 0.0
C2656 C 0.2302 0.57972 0.22563 0.0
C2657 C 0.21715 0.5701 0.21255 0.0
C2658 C 0.22183 0.55438 0.20389 0.0
C2659 C 0.23957 0.54822 0.20811 0.0
C2660 C 0.2527 0.55781 0.22094 0.0
C2661 C 0.24808 0.57353 0.22965 0.0
H2662 H 0.24316 0.53605 0.20139 0.0
H2663 H 0.19987 0.68791 0.28811 0.0
H2664 H 0.92355 0.47602 0.04754 0.0
H2665 H 0.89952 0.49731 0.04169 0.0
H2666 H 0.93756 0.54239 0.06862 0.0
H2667 H 0.96186 0.52127 0.07429 0.0
H2668 H 0.89982 0.53953 0.0794 0.0
H2669 H 0.93377 0.54377 0.02181 0.0
H2670 H 0.94734 0.53114 0.99474 0.0
H2671 H 0.89038 0.50492 0.97702 0.0
H2672 H 0.87649 0.51716 0.00415 0.0
H2673 H 0.84619 0.61332 0.04582 0.0
H2674 H 0.87208 0.59427 0.05297 0.0
H2675 H 0.83966 0.54775 0.02316 0.0
H2676 H 0.81402 0.56678 0.01564 0.0
H2677 H 0.87621 0.55291 0.01398 0.0
H2678 H 0.84228 0.54723 0.07202 0.0
H2679 H 0.82844 0.55913 0.09935 0.0
H2680 H 0.88483 0.58744 0.11639 0.0
H2681 H 0.89898 0.57591 0.089 0.0
C2682 C 0.9269 0.4905 0.05211 0.0
C2683 C 0.94472 0.49696 0.06127 0.0
C2684 C 0.9131 0.50263 0.04881 0.0
C2685 C 0.91684 0.52151 0.05452 0.0
C2686 C 0.93438 0.52787 0.0641 0.0
C2687 C 0.94822 0.51575 0.06738 0.0
C2688 C 0.90254 0.53465 0.05019 0.0
C2689 C 0.89485 0.5427 0.06508 0.0
C2690 C 0.89582 0.5385 0.03153 0.0
C2691 C 0.90411 0.53125 0.01511 0.0
C2692 C 0.92415 0.53519 0.01222 0.0
C2693 C 0.9319 0.52812 0.99685 0.0
C2694 C 0.91974 0.5172 0.98419 0.0
C2695 C 0.89979 0.51336 0.98685 0.0
C2696 C 0.89197 0.52038 0.00221 0.0
C2697 C 0.84459 0.59904 0.04079 0.0
C2698 C 0.82801 0.59157 0.03018 0.0
C2699 C 0.85936 0.58812 0.04496 0.0
C2700 C 0.85774 0.56947 0.03878 0.0
C2701 C 0.84127 0.56209 0.02808 0.0
C2702 C 0.82657 0.573 0.02383 0.0
C2703 C 0.87322 0.55761 0.04322 0.0
C2704 C 0.8812 0.54983 0.02831 0.0
C2705 C 0.88013 0.55396 0.06188 0.0
C2706 C 0.87165 0.56088 0.07835 0.0
C2707 C 0.85171 0.55612 0.08151 0.0
C2708 C 0.84381 0.56278 0.09703 0.0
C2709 C 0.85574 0.57408 0.10957 0.0
C2710 C 0.8756 0.57871 0.10664 0.0
C2711 C 0.88357 0.57211 0.09114 0.0
H2712 H 0.84959 0.57921 0.12157 0.0
H2713 H 0.92576 0.51173 0.97231 0.0
H2714 H 0.06413 0.00331 0.99571 0.0
H2715 H 0.09151 0.98729 0.98958 0.0
H2716 H 0.10648 0.9845 0.04898 0.0
H2717 H 0.07904 0.0006 0.05513 0.0
H2718 H 0.13842 0.99562 0.02734 0.0
H2719 H 0.08346 0.94535 0.02925 0.0
H2720 H 0.0506 0.92949 0.0205 0.0
H2721 H 0.06695 0.92981 0.96301 0.0
H2722 H 0.09986 0.94593 0.97137 0.0
H2723 H 0.20182 0.92702 0.02606 0.0
H2724 H 0.17504 0.94363 0.03246 0.0
H2725 H 0.15821 0.94489 0.97349 0.0
H2726 H 0.18483 0.92808 0.96698 0.0
H2727 H 0.12723 0.93458 0.99517 0.0
H2728 H 0.1821 0.98486 0.99308 0.0
H2729 H 0.21497 0.00085 0.00164 0.0
H2730 H 0.19886 0.00073 0.05918 0.0
H2731 H 0.16596 0.98448 0.05101 0.0
C2732 C 0.07332 0.99933 0.00743 0.0
C2733 C 0.06952 0.00313 0.0259 0.0
C2734 C 0.08889 0.99013 0.00393 0.0
C2735 C 0.10091 0.98452 0.01885 0.0
C2736 C 0.09738 0.98869 0.03727 0.0
C2737 C 0.08174 0.99783 0.04078 0.0
C2738 C 0.11701 0.97412 0.01522 0.0
C2739 C 0.13596 0.98214 0.02054 0.0
C2740 C 0.11383 0.95675 0.00597 0.0
C2741 C 0.09407 0.94703 0.0009 0.0
C2742 C 0.08001 0.94219 0.01471 0.0
C2743 C 0.06138 0.93312 0.00983 0.0
C2744 C 0.05668 0.92869 0.9912 0.0
C2745 C 0.07061 0.93327 0.97743 0.0
C2746 C 0.08925 0.94236 0.98223 0.0
C2747 C 0.19243 0.93081 0.01444 0.0
C2748 C 0.19551 0.92627 0.99599 0.0
C2749 C 0.17717 0.94039 0.01811 0.0
C2750 C 0.16475 0.94571 0.00342 0.0
C2751 C 0.16763 0.94096 0.98504 0.0
C2752 C 0.18289 0.93138 0.98134 0.0
C2753 C 0.14867 0.9561 0.00723 0.0
C2754 C 0.12971 0.94806 0.00197 0.0
C2755 C 0.15186 0.97347 0.0165 0.0
C2756 C 0.17162 0.98327 0.02146 0.0
C2757 C 0.18561 0.98809 0.00759 0.0
C2758 C 0.20424 0.99723 0.01237 0.0
C2759 C 0.20902 0.00176 0.03096 0.0
C2760 C 0.19515 0.99719 0.0448 0.0
C2761 C 0.17651 0.98803 0.04009 0.0
H2762 H 0.22344 0.00884 0.03463 0.0
H2763 H 0.04225 0.92166 0.98745 0.0
loop_
_geom_bond_atom_site_label_1
_geom_bond_atom_site_label_2
_geom_bond_distance
_geom_bond_site_symmetry_2
_ccdc_geom_bond_type
H0 C7 0.929 . S
H1 C10 0.930 . S
H2 C12 0.929 . S
H3 C4 0.969 . S
C4 H3 0.969 . S
C4 O5 1.550 . S
C4 H6 0.973 . S
O5 C4 1.550 . S
O5 C11 1.412 . S
H6 C4 0.973 . S
C7 H0 0.929 . S
C7 C8 1.400 . S
C7 C9 1.364 . S
C8 C7 1.400 . S
C8 C12 1.377 . S
C9 C7 1.364 . S
C9 C10 1.374 . S
C10 H1 0.930 . S
C10 C9 1.374 . S
C10 C11 1.383 . S
C11 O5 1.412 . S
C11 C10 1.383 . S
C11 C12 1.394 . S
C12 H2 0.929 . S
C12 C8 1.377 . S
C12 C11 1.394 . S
H13 C20 0.929 . S
H14 C23 0.930 . S
H15 C25 0.929 . S
H16 C17 0.969 . S
C17 H16 0.969 . S
C17 O18 1.550 . S
C17 H19 0.973 . S
O18 C17 1.550 . S
O18 C24 1.412 . S
H19 C17 0.973 . S
C20 H13 0.929 . S
C20 C21 1.400 . S
C20 C22 1.364 . S
C21 C20 1.400 . S
C21 C25 1.377 . S
C22 C20 1.364 . S
C22 C23 1.374 . S
C23 H14 0.930 . S
C23 C22 1.374 . S
C23 C24 1.383 . S
C24 O18 1.412 . S
C24 C23 1.383 . S
C24 C25 1.394 . S
C25 H15 0.929 . S
C25 C21 1.377 . S
C25 C24 1.394 . S
H26 C33 0.929 . S
H27 C36 0.930 . S
H28 C38 0.935 . S
H29 C30 0.969 . S
C30 H29 0.969 . S
C30 O31 1.550 . S
C30 H32 0.973 . S
O31 C30 1.550 . S
O31 C37 1.412 . S
H32 C30 0.973 . S
C33 H26 0.929 . S
C33 C34 1.400 . S
C33 C35 1.364 . S
C34 C33 1.400 . S
C34 C38 1.377 . S
C35 C33 1.364 . S
C35 C36 1.374 . S
C36 H27 0.930 . S
C36 C35 1.374 . S
C36 C37 1.383 . S
C37 O31 1.412 . S
C37 C36 1.383 . S
C37 C38 1.394 . S
C38 H28 0.935 . S
C38 C34 1.377 . S
C38 C37 1.394 . S
H39 C46 0.929 . S
H40 C49 0.930 . S
H41 C51 0.929 . S
H42 C43 0.969 . S
C43 H42 0.969 . S
C43 O44 1.550 . S
C43 H45 0.973 . S
O44 C43 1.550 . S
O44 C50 1.412 . S
H45 C43 0.973 . S
C46 H39 0.929 . S
C46 C47 1.400 . S
C46 C48 1.364 . S
C47 C46 1.400 . S
C47 C51 1.377 . S
C48 C46 1.364 . S
C48 C49 1.374 . S
C49 H40 0.930 . S
C49 C48 1.374 . S
C49 C50 1.383 . S
C50 O44 1.412 . S
C50 C49 1.383 . S
C50 C51 1.394 . S
C51 H41 0.929 . S
C51 C47 1.377 . S
C51 C50 1.394 . S
H52 C59 0.929 . S
H53 C62 0.930 . S
H54 C64 0.924 1_545 S
H55 C56 0.969 . S
C56 H55 0.969 . S
C56 O57 1.550 . S
C56 H58 0.973 . S
O57 C56 1.550 . S
O57 C63 1.412 . S
H58 C56 0.973 . S
C59 H52 0.929 . S
C59 C60 1.400 . S
C59 C61 1.364 . S
C60 C59 1.400 . S
C60 C64 1.379 . S
C61 C59 1.364 . S
C61 C62 1.374 . S
C62 H53 0.930 . S
C62 C61 1.374 . S
C62 C63 1.383 . S
C63 O57 1.412 . S
C63 C62 1.383 . S
C63 C64 1.397 . S
C64 H54 0.924 1_565 S
C64 C60 1.379 . S
C64 C63 1.397 . S
H65 C72 0.929 . S
H66 C75 0.930 . S
H67 C77 0.929 . S
H68 C69 0.969 . S
C69 H68 0.969 . S
C69 O70 1.550 . S
C69 H71 0.973 . S
O70 C69 1.550 . S
O70 C76 1.412 . S
H71 C69 0.973 . S
C72 H65 0.929 . S
C72 C73 1.400 . S
C72 C74 1.364 . S
C73 C72 1.400 . S
C73 C77 1.377 . S
C74 C72 1.364 . S
C74 C75 1.374 . S
C75 H66 0.930 . S
C75 C74 1.374 . S
C75 C76 1.383 . S
C76 O70 1.412 . S
C76 C75 1.383 . S
C76 C77 1.394 . S
C77 H67 0.929 . S
C77 C73 1.377 . S
C77 C76 1.394 . S
H78 C85 0.929 . S
H79 C88 0.930 . S
H80 C90 0.929 1_455 S
H81 C82 0.969 1_655 S
C82 H81 0.969 1_455 S
C82 O83 1.550 . S
C82 H84 0.973 1_455 S
O83 C82 1.550 . S
O83 C89 1.412 1_455 S
H84 C82 0.973 1_655 S
C85 H78 0.929 . S
C85 C86 1.400 . S
C85 C87 1.364 . S
C86 C85 1.400 . S
C86 C90 1.377 . S
C87 C85 1.364 . S
C87 C88 1.374 . S
C88 H79 0.930 . S
C88 C87 1.374 . S
C88 C89 1.383 . S
C89 O83 1.412 1_655 S
C89 C88 1.383 . S
C89 C90 1.394 . S
C90 H80 0.929 1_655 S
C90 C86 1.377 . S
C90 C89 1.394 . S
H91 C98 0.929 . S
H92 C101 0.930 . S
H93 C103 0.929 . S
H94 C95 0.969 . S
C95 H94 0.969 . S
C95 O96 1.550 . S
C95 H97 0.973 . S
O96 C95 1.550 . S
O96 C102 1.412 . S
H97 C95 0.973 . S
C98 H91 0.929 . S
C98 C99 1.400 . S
C98 C100 1.364 . S
C99 C98 1.400 . S
C99 C103 1.377 . S
C100 C98 1.364 . S
C100 C101 1.374 . S
C101 H92 0.930 . S
C101 C100 1.374 . S
C101 C102 1.383 . S
C102 O96 1.412 . S
C102 C101 1.383 . S
C102 C103 1.394 . S
C103 H93 0.929 . S
C103 C99 1.377 . S
C103 C102 1.394 . S
H104 C111 0.929 . S
H105 C114 0.930 . S
H106 C116 0.929 . S
H107 C108 0.969 . S
C108 H107 0.969 . S
C108 O109 1.550 . S
C108 H110 0.973 . S
O109 C108 1.550 . S
O109 C115 1.412 . S
H110 C108 0.973 . S
C111 H104 0.929 . S
C111 C112 1.400 . S
C111 C113 1.364 . S
C112 C111 1.400 . S
C112 C116 1.377 . S
C113 C111 1.364 . S
C113 C114 1.374 . S
C114 H105 0.930 . S
C114 C113 1.374 . S
C114 C115 1.383 . S
C115 O109 1.412 . S
C115 C114 1.383 . S
C115 C116 1.394 . S
C116 H106 0.929 . S
C116 C112 1.377 . S
C116 C115 1.394 . S
H117 C124 0.929 . S
H118 C127 0.930 . S
H119 C129 0.929 . S
H120 C121 0.969 . S
C121 H120 0.969 . S
C121 O122 1.550 . S
C121 H123 0.973 . S
O122 C121 1.550 . S
O122 C128 1.412 . S
H123 C121 0.973 . S
C124 H117 0.929 . S
C124 C125 1.400 . S
C124 C126 1.364 . S
C125 C124 1.400 . S
C125 C129 1.377 . S
C126 C124 1.364 . S
C126 C127 1.374 . S
C127 H118 0.930 . S
C127 C126 1.374 . S
C127 C128 1.383 . S
C128 O122 1.412 . S
C128 C127 1.383 . S
C128 C129 1.394 . S
C129 H119 0.929 . S
C129 C125 1.377 . S
C129 C128 1.394 . S
H130 C137 0.929 . S
H131 C140 0.930 . S
H132 C142 0.929 . S
H133 C134 0.969 . S
C134 H133 0.969 . S
C134 O135 1.550 . S
C134 H136 0.973 . S
O135 C134 1.550 . S
O135 C141 1.412 . S
H136 C134 0.973 . S
C137 H130 0.929 . S
C137 C138 1.400 . S
C137 C139 1.364 . S
C138 C137 1.400 . S
C138 C142 1.377 . S
C139 C137 1.364 . S
C139 C140 1.374 . S
C140 H131 0.930 . S
C140 C139 1.374 . S
C140 C141 1.383 . S
C141 O135 1.412 . S
C141 C140 1.383 . S
C141 C142 1.394 . S
C142 H132 0.929 . S
C142 C138 1.377 . S
C142 C141 1.394 . S
H143 C150 0.929 . S
H144 C153 0.930 . S
H145 C155 0.929 . S
H146 C147 0.969 . S
C147 H146 0.969 . S
C147 O148 1.550 . S
C147 H149 0.973 . S
O148 C147 1.550 . S
O148 C154 1.412 . S
H149 C147 0.973 . S
C150 H143 0.929 . S
C150 C151 1.400 . S
C150 C152 1.364 . S
C151 C150 1.400 . S
C151 C155 1.377 . S
C152 C150 1.364 . S
C152 C153 1.374 . S
C153 H144 0.930 . S
C153 C152 1.374 . S
C153 C154 1.383 . S
C154 O148 1.412 . S
C154 C153 1.383 . S
C154 C155 1.394 . S
C155 H145 0.929 . S
C155 C151 1.377 . S
C155 C154 1.394 . S
H156 C163 0.929 . S
H157 C166 0.930 . S
H158 C168 0.929 . S
H159 C160 0.969 . S
C160 H159 0.969 . S
C160 O161 1.550 . S
C160 H162 0.973 . S
O161 C160 1.550 . S
O161 C167 1.412 . S
H162 C160 0.973 . S
C163 H156 0.929 . S
C163 C164 1.400 . S
C163 C165 1.364 . S
C164 C163 1.400 . S
C164 C168 1.377 . S
C165 C163 1.364 . S
C165 C166 1.374 . S
C166 H157 0.930 . S
C166 C165 1.374 . S
C166 C167 1.383 . S
C167 O161 1.412 . S
C167 C166 1.383 . S
C167 C168 1.394 . S
C168 H158 0.929 . S
C168 C164 1.377 . S
C168 C167 1.394 . S
H169 C176 0.929 . S
H170 C179 0.930 . S
H171 C181 0.929 . S
H172 C173 0.969 . S
C173 H172 0.969 . S
C173 O174 1.550 . S
C173 H175 0.973 . S
O174 C173 1.550 . S
O174 C180 1.412 . S
H175 C173 0.973 . S
C176 H169 0.929 . S
C176 C177 1.400 . S
C176 C178 1.364 . S
C177 C176 1.400 . S
C177 C181 1.377 . S
C178 C176 1.364 . S
C178 C179 1.374 . S
C179 H170 0.930 . S
C179 C178 1.374 . S
C179 C180 1.383 . S
C180 O174 1.412 . S
C180 C179 1.383 . S
C180 C181 1.394 . S
C181 H171 0.929 . S
C181 C177 1.377 . S
C181 C180 1.394 . S
H182 C189 0.929 . S
H183 C192 0.930 . S
H184 C194 0.929 . S
H185 C186 0.969 . S
C186 H185 0.969 . S
C186 O187 1.550 . S
C186 H188 0.973 . S
O187 C186 1.550 . S
O187 C193 1.412 . S
H188 C186 0.973 . S
C189 H182 0.929 . S
C189 C190 1.400 . S
C189 C191 1.364 . S
C190 C189 1.400 . S
C190 C194 1.377 . S
C191 C189 1.364 . S
C191 C192 1.374 . S
C192 H183 0.930 . S
C192 C191 1.374 . S
C192 C193 1.383 . S
C193 O187 1.412 . S
C193 C192 1.383 . S
C193 C194 1.394 . S
C194 H184 0.929 . S
C194 C190 1.377 . S
C194 C193 1.394 . S
H195 C202 0.929 1_554 S
H196 C205 0.930 . S
H197 C207 0.929 . S
H198 C199 0.969 . S
C199 H198 0.969 . S
C199 O200 1.550 . S
C199 H201 0.973 . S
O200 C199 1.550 . S
O200 C206 1.412 . S
H201 C199 0.973 . S
C202 H195 0.929 1_556 S
C202 C203 1.400 . S
C202 C204 1.364 . S
C203 C202 1.400 . S
C203 C207 1.377 . S
C204 C202 1.364 . S
C204 C205 1.374 . S
C205 H196 0.930 . S
C205 C204 1.374 . S
C205 C206 1.383 . S
C206 O200 1.412 . S
C206 C205 1.383 . S
C206 C207 1.394 . S
C207 H197 0.929 . S
C207 C203 1.377 . S
C207 C206 1.394 . S
C208 O209 1.189 . S
C208 O215 1.165 1_556 S
O209 C208 1.189 . S
O210 Zn211 1.899 1_556 S
O210 C218 1.284 . S
Zn211 O210 1.899 1_554 S
Zn211 O212 2.032 1_554 S
Zn211 O215 2.086 . S
Zn211 O220 1.977 . S
O212 Zn211 2.032 1_556 S
O212 C216 1.280 . S
C213 O214 1.203 . S
C213 O220 1.267 . S
O214 C213 1.203 . S
O215 C208 1.165 1_554 S
O215 Zn211 2.086 . S
C216 O212 1.280 . S
C216 O217 1.205 1_556 S
O217 C216 1.205 1_554 S
C218 O210 1.284 . S
C218 O219 1.273 . S
O219 C218 1.273 . S
O220 Zn211 1.977 . S
O220 C213 1.267 . S
C221 O222 1.160 . S
C221 O228 1.185 . S
O222 C221 1.160 . S
O223 Zn224 1.899 . S
O223 C231 1.284 . S
Zn224 O223 1.899 . S
Zn224 O225 2.032 . S
Zn224 O228 2.086 . S
Zn224 O233 1.977 . S
O225 Zn224 2.032 . S
O225 C229 1.278 . S
C226 O227 1.203 . S
C226 O233 1.267 . S
O227 C226 1.203 . S
O228 C221 1.185 . S
O228 Zn224 2.086 . S
C229 O225 1.278 . S
C229 O230 1.211 . S
O230 C229 1.211 . S
C231 O223 1.284 . S
C231 O232 1.273 . S
O232 C231 1.273 . S
O233 Zn224 1.977 . S
O233 C226 1.267 . S
C234 O235 1.160 . S
C234 O241 1.185 . S
O235 C234 1.160 . S
O236 Zn237 1.899 . S
O236 C244 1.284 . S
Zn237 O236 1.899 . S
Zn237 O238 2.032 . S
Zn237 O241 2.086 . S
Zn237 O246 1.977 . S
O238 Zn237 2.032 . S
O238 C242 1.278 . S
C239 O240 1.203 . S
C239 O246 1.267 . S
O240 C239 1.203 . S
O241 C234 1.185 . S
O241 Zn237 2.086 . S
C242 O238 1.278 . S
C242 O243 1.211 . S
O243 C242 1.211 . S
C244 O236 1.284 . S
C244 O245 1.274 . S
O245 C244 1.274 . S
O246 Zn237 1.977 . S
O246 C239 1.267 . S
C247 O248 1.160 . S
C247 O254 1.185 . S
O248 C247 1.160 . S
O249 Zn250 1.899 . S
O249 C257 1.284 . S
Zn250 O249 1.899 . S
Zn250 O251 2.032 . S
Zn250 O254 2.086 . S
Zn250 O259 1.977 . S
O251 Zn250 2.032 . S
O251 C255 1.278 1_545 S
C252 O253 1.203 . S
C252 O259 1.267 . S
O253 C252 1.203 . S
O254 C247 1.185 . S
O254 Zn250 2.086 . S
C255 O251 1.278 1_565 S
C255 O256 1.211 . S
O256 C255 1.211 . S
C257 O249 1.284 . S
C257 O258 1.273 . S
O258 C257 1.273 . S
O259 Zn250 1.977 . S
O259 C252 1.267 . S
C260 O261 1.160 . S
C260 O267 1.185 . S
O261 C260 1.160 . S
O262 Zn263 1.899 . S
O262 C270 1.284 . S
Zn263 O262 1.899 . S
Zn263 O264 2.032 . S
Zn263 O267 2.086 . S
Zn263 O272 1.977 . S
O264 Zn263 2.032 . S
O264 C268 1.278 . S
C265 O266 1.203 . S
C265 O272 1.267 . S
O266 C265 1.203 . S
O267 C260 1.185 . S
O267 Zn263 2.086 . S
C268 O264 1.278 . S
C268 O269 1.211 . S
O269 C268 1.211 . S
C270 O262 1.284 . S
C270 O271 1.273 . S
O271 C270 1.273 . S
O272 Zn263 1.977 . S
O272 C265 1.267 . S
C273 O274 1.160 . S
C273 O280 1.185 . S
O274 C273 1.160 . S
O275 Zn276 1.899 . S
O275 C283 1.284 . S
Zn276 O275 1.899 . S
Zn276 O277 2.032 . S
Zn276 O280 2.086 . S
Zn276 O285 1.977 . S
O277 Zn276 2.032 . S
O277 C281 1.278 . S
C278 O279 1.203 . S
C278 O285 1.267 . S
O279 C278 1.203 . S
O280 C273 1.185 . S
O280 Zn276 2.086 . S
C281 O277 1.278 . S
C281 O282 1.211 . S
O282 C281 1.211 . S
C283 O275 1.284 . S
C283 O284 1.273 . S
O284 C283 1.273 . S
O285 Zn276 1.977 . S
O285 C278 1.267 . S
C286 O287 1.160 . S
C286 O293 1.185 . S
O287 C286 1.160 . S
O288 Zn289 1.899 . S
O288 C296 1.284 . S
Zn289 O288 1.899 . S
Zn289 O290 2.032 . S
Zn289 O293 2.086 . S
Zn289 O298 1.977 . S
O290 Zn289 2.032 . S
O290 C294 1.278 . S
C291 O292 1.203 . S
C291 O298 1.267 . S
O292 C291 1.203 . S
O293 C286 1.185 . S
O293 Zn289 2.086 . S
C294 O290 1.278 . S
C294 O295 1.211 . S
O295 C294 1.211 . S
C296 O288 1.284 . S
C296 O297 1.273 . S
O297 C296 1.273 . S
O298 Zn289 1.977 . S
O298 C291 1.267 . S
C299 O300 1.160 . S
C299 O306 1.185 . S
O300 C299 1.160 . S
O301 Zn302 1.899 . S
O301 C309 1.284 1_565 S
Zn302 O301 1.899 . S
Zn302 O303 2.032 1_565 S
Zn302 O306 2.086 . S
Zn302 O311 1.977 . S
O303 Zn302 2.032 1_545 S
O303 C307 1.278 . S
C304 O305 1.203 1_565 S
C304 O311 1.267 . S
O305 C304 1.203 1_545 S
O306 C299 1.185 . S
O306 Zn302 2.086 . S
C307 O303 1.278 . S
C307 O308 1.211 . S
O308 C307 1.211 . S
C309 O301 1.284 1_545 S
C309 O310 1.273 . S
O310 C309 1.273 . S
O311 Zn302 1.977 . S
O311 C304 1.267 . S
C312 O313 1.160 . S
C312 O319 1.185 1_655 S
O313 C312 1.160 . S
O314 Zn315 1.899 1_655 S
O314 C322 1.284 . S
Zn315 O314 1.899 1_455 S
Zn315 O316 2.032 1_455 S
Zn315 O319 2.086 . S
Zn315 O324 1.977 . S
O316 Zn315 2.032 1_655 S
O316 C320 1.278 1_655 S
C317 O318 1.203 . S
C317 O324 1.267 . S
O318 C317 1.203 . S
O319 C312 1.185 1_455 S
O319 Zn315 2.086 . S
C320 O316 1.278 1_455 S
C320 O321 1.211 . S
O321 C320 1.211 . S
C322 O314 1.284 . S
C322 O323 1.273 . S
O323 C322 1.273 . S
O324 Zn315 1.977 . S
O324 C317 1.267 . S
C325 O326 1.160 . S
C325 O332 1.185 . S
O326 C325 1.160 . S
O327 Zn328 1.899 . S
O327 C335 1.284 . S
Zn328 O327 1.899 . S
Zn328 O329 2.032 . S
Zn328 O332 2.086 . S
Zn328 O337 1.977 . S
O329 Zn328 2.032 . S
O329 C333 1.278 . S
C330 O331 1.203 . S
C330 O337 1.267 . S
O331 C330 1.203 . S
O332 C325 1.185 . S
O332 Zn328 2.086 . S
C333 O329 1.278 . S
C333 O334 1.211 . S
O334 C333 1.211 . S
C335 O327 1.284 . S
C335 O336 1.273 . S
O336 C335 1.273 . S
O337 Zn328 1.977 . S
O337 C330 1.267 . S
C338 O339 1.160 . S
C338 O345 1.185 . S
O339 C338 1.160 . S
O340 Zn341 1.899 . S
O340 C348 1.284 1_455 S
Zn341 O340 1.899 . S
Zn341 O342 2.032 . S
Zn341 O345 2.086 . S
Zn341 O350 1.977 . S
O342 Zn341 2.032 . S
O342 C346 1.278 . S
C343 O344 1.203 . S
C343 O350 1.267 . S
O344 C343 1.203 . S
O345 C338 1.185 . S
O345 Zn341 2.086 . S
C346 O342 1.278 . S
C346 O347 1.211 . S
O347 C346 1.211 . S
C348 O340 1.284 1_655 S
C348 O349 1.273 . S
O349 C348 1.273 . S
O350 Zn341 1.977 . S
O350 C343 1.267 . S
C351 O352 1.160 . S
C351 O358 1.185 . S
O352 C351 1.160 . S
O353 Zn354 1.899 . S
O353 C361 1.284 . S
Zn354 O353 1.899 . S
Zn354 O355 2.032 . S
Zn354 O358 2.086 . S
Zn354 O363 1.977 . S
O355 Zn354 2.032 . S
O355 C359 1.278 . S
C356 O357 1.203 . S
C356 O363 1.267 . S
O357 C356 1.203 . S
O358 C351 1.185 . S
O358 Zn354 2.086 . S
C359 O355 1.278 . S
C359 O360 1.211 . S
O360 C359 1.211 . S
C361 O353 1.284 . S
C361 O362 1.273 . S
O362 C361 1.273 . S
O363 Zn354 1.977 . S
O363 C356 1.267 . S
H364 C382 0.951 . S
H365 C384 0.951 . S
H366 C386 0.950 . S
H367 C387 0.950 . S
H368 C389 0.950 . S
H369 C392 0.950 . S
H370 C393 0.950 . S
H371 C395 0.950 . S
H372 C396 0.950 . S
H373 C397 0.951 . S
H374 C399 0.951 . S
H375 C401 0.950 . S
H376 C402 0.950 . S
H377 C404 0.950 . S
H378 C407 0.950 . S
H379 C408 0.950 . S
H380 C410 0.950 . S
H381 C411 0.950 . S
C382 H364 0.951 . S
C382 C383 1.366 . S
C382 C384 1.388 . S
C383 C382 1.366 . S
C383 C387 1.385 . S
C384 H365 0.951 . S
C384 C382 1.388 . S
C384 C385 1.366 . S
C385 C384 1.366 . S
C385 C386 1.414 . S
C385 C388 1.499 . S
C386 H366 0.950 . S
C386 C385 1.414 . S
C386 C387 1.374 . S
C387 H367 0.950 . S
C387 C383 1.385 . S
C387 C386 1.374 . S
C388 C385 1.499 . S
C388 C389 1.373 . S
C388 C390 1.389 . S
C389 H368 0.950 . S
C389 C388 1.373 . S
C389 C405 1.377 . S
C390 C388 1.389 . S
C390 C391 1.524 . S
C390 C404 1.377 . S
C391 C390 1.524 . S
C391 C392 1.397 . S
C391 C396 1.363 . S
C392 H369 0.950 . S
C392 C391 1.397 . S
C392 C393 1.334 . S
C393 H370 0.950 . S
C393 C392 1.334 . S
C393 C394 1.287 . S
C394 C393 1.287 . S
C394 C395 1.524 . S
C394 H413 0.913 . S
C395 H371 0.950 . S
C395 C394 1.524 . S
C395 C396 1.415 . S
C396 H372 0.950 . S
C396 C391 1.363 . S
C396 C395 1.415 . S
C397 H373 0.951 . S
C397 C398 1.366 . S
C397 C399 1.388 . S
C398 C397 1.366 . S
C398 C402 1.385 . S
C399 H374 0.951 . S
C399 C397 1.388 . S
C399 C400 1.366 . S
C400 C399 1.366 . S
C400 C401 1.414 . S
C400 C403 1.499 . S
C401 H375 0.950 . S
C401 C400 1.414 . S
C401 C402 1.374 . S
C402 H376 0.950 . S
C402 C398 1.385 . S
C402 C401 1.374 . S
C403 C400 1.499 . S
C403 C404 1.373 . S
C403 C405 1.389 . S
C404 H377 0.950 . S
C404 C390 1.377 . S
C404 C403 1.373 . S
C405 C389 1.377 . S
C405 C403 1.389 . S
C405 C406 1.524 . S
C406 C405 1.524 . S
C406 C407 1.397 . S
C406 C411 1.363 . S
C407 H378 0.950 . S
C407 C406 1.397 . S
C407 C408 1.334 . S
C408 H379 0.950 . S
C408 C407 1.334 . S
C408 C409 1.287 . S
C409 C408 1.287 . S
C409 C410 1.524 . S
C409 H412 0.999 . S
C410 H380 0.950 . S
C410 C409 1.524 . S
C410 C411 1.415 . S
C411 H381 0.950 . S
C411 C406 1.363 . S
C411 C410 1.415 . S
H412 C409 0.999 . S
H413 C394 0.913 . S
H414 C432 0.951 . S
H415 C434 0.951 . S
H416 C436 0.950 . S
H417 C437 0.958 . S
H418 C439 0.950 . S
H419 C442 0.950 . S
H420 C443 0.950 . S
H421 C445 0.950 . S
H422 C446 0.950 . S
H423 C447 0.951 . S
H424 C449 0.951 . S
H425 C451 0.950 . S
H426 C452 0.950 . S
H427 C454 0.950 . S
H428 C457 0.950 . S
H429 C458 0.950 . S
H430 C460 0.950 . S
H431 C461 0.950 . S
C432 H414 0.951 . S
C432 C433 1.366 . S
C432 C434 1.388 . S
C433 C432 1.366 . S
C433 C437 1.385 . S
C434 H415 0.951 . S
C434 C432 1.388 . S
C434 C435 1.366 . S
C435 C434 1.366 . S
C435 C436 1.414 . S
C435 C438 1.499 . S
C436 H416 0.950 . S
C436 C435 1.414 . S
C436 C437 1.374 . S
C437 H417 0.958 . S
C437 C433 1.385 . S
C437 C436 1.374 . S
C438 C435 1.499 . S
C438 C439 1.373 . S
C438 C440 1.389 . S
C439 H418 0.950 . S
C439 C438 1.373 . S
C439 C455 1.377 . S
C440 C438 1.389 . S
C440 C441 1.524 . S
C440 C454 1.377 . S
C441 C440 1.524 . S
C441 C442 1.397 . S
C441 C446 1.363 . S
C442 H419 0.950 . S
C442 C441 1.397 . S
C442 C443 1.334 . S
C443 H420 0.950 . S
C443 C442 1.334 . S
C443 C444 1.287 . S
C444 C443 1.287 . S
C444 C445 1.524 . S
C444 H463 0.913 . S
C445 H421 0.950 . S
C445 C444 1.524 . S
C445 C446 1.415 . S
C446 H422 0.950 . S
C446 C441 1.363 . S
C446 C445 1.415 . S
C447 H423 0.951 . S
C447 C448 1.366 . S
C447 C449 1.388 . S
C448 C447 1.366 . S
C448 C452 1.385 . S
C449 H424 0.951 . S
C449 C447 1.388 . S
C449 C450 1.366 . S
C450 C449 1.366 . S
C450 C451 1.414 . S
C450 C453 1.499 . S
C451 H425 0.950 . S
C451 C450 1.414 . S
C451 C452 1.374 . S
C452 H426 0.950 . S
C452 C448 1.385 . S
C452 C451 1.374 . S
C453 C450 1.499 . S
C453 C454 1.373 . S
C453 C455 1.389 . S
C454 H427 0.950 . S
C454 C440 1.377 . S
C454 C453 1.373 . S
C455 C439 1.377 . S
C455 C453 1.389 . S
C455 C456 1.524 . S
C456 C455 1.524 . S
C456 C457 1.397 . S
C456 C461 1.363 . S
C457 H428 0.950 . S
C457 C456 1.397 . S
C457 C458 1.334 . S
C458 H429 0.950 . S
C458 C457 1.334 . S
C458 C459 1.287 . S
C459 C458 1.287 . S
C459 C460 1.524 . S
C459 H462 0.999 . S
C460 H430 0.950 . S
C460 C459 1.524 . S
C460 C461 1.415 . S
C461 H431 0.950 . S
C461 C456 1.363 . S
C461 C460 1.415 . S
H462 C459 0.999 . S
H463 C444 0.913 . S
H464 C482 0.951 . S
H465 C484 0.951 . S
H466 C486 0.950 . S
H467 C487 0.950 . S
H468 C489 0.950 . S
H469 C492 0.950 . S
H470 C493 0.950 . S
H471 C495 0.950 . S
H472 C496 0.950 . S
H473 C497 0.951 . S
H474 C499 0.951 . S
H475 C501 0.950 . S
H476 C502 1.000 . S
H477 C504 0.950 . S
H478 C507 0.950 . S
H479 C508 0.950 . S
H480 C510 0.950 . S
H481 C511 0.950 . S
C482 H464 0.951 . S
C482 C483 1.366 . S
C482 C484 1.388 . S
C483 C482 1.366 . S
C483 C487 1.385 . S
C484 H465 0.951 . S
C484 C482 1.388 . S
C484 C485 1.366 . S
C485 C484 1.366 . S
C485 C486 1.414 . S
C485 C488 1.499 . S
C486 H466 0.950 . S
C486 C485 1.414 . S
C486 C487 1.374 . S
C487 H467 0.950 . S
C487 C483 1.385 . S
C487 C486 1.374 . S
C488 C485 1.499 . S
C488 C489 1.373 . S
C488 C490 1.389 . S
C489 H468 0.950 . S
C489 C488 1.373 . S
C489 C505 1.377 . S
C490 C488 1.389 . S
C490 C491 1.524 . S
C490 C504 1.377 . S
C491 C490 1.524 . S
C491 C492 1.397 . S
C491 C496 1.363 . S
C492 H469 0.950 . S
C492 C491 1.397 . S
C492 C493 1.334 . S
C493 H470 0.950 . S
C493 C492 1.334 . S
C493 C494 1.287 . S
C494 C493 1.287 . S
C494 C495 1.524 . S
C494 H513 0.913 . S
C495 H471 0.950 . S
C495 C494 1.524 . S
C495 C496 1.415 . S
C496 H472 0.950 . S
C496 C491 1.363 . S
C496 C495 1.415 . S
C497 H473 0.951 . S
C497 C498 1.366 . S
C497 C499 1.388 . S
C498 C497 1.366 . S
C498 C502 1.385 . S
C499 H474 0.951 . S
C499 C497 1.388 . S
C499 C500 1.366 . S
C500 C499 1.366 . S
C500 C501 1.414 . S
C500 C503 1.499 . S
C501 H475 0.950 . S
C501 C500 1.414 . S
C501 C502 1.374 . S
C502 H476 1.000 . S
C502 C498 1.385 . S
C502 C501 1.374 . S
C503 C500 1.499 . S
C503 C504 1.373 . S
C503 C505 1.389 . S
C504 H477 0.950 . S
C504 C490 1.377 . S
C504 C503 1.373 . S
C505 C489 1.377 . S
C505 C503 1.389 . S
C505 C506 1.524 . S
C506 C505 1.524 . S
C506 C507 1.397 . S
C506 C511 1.363 . S
C507 H478 0.950 . S
C507 C506 1.397 . S
C507 C508 1.334 . S
C508 H479 0.950 . S
C508 C507 1.334 . S
C508 C509 1.287 . S
C509 C508 1.287 . S
C509 C510 1.524 . S
C509 H512 0.999 . S
C510 H480 0.950 . S
C510 C509 1.524 . S
C510 C511 1.415 . S
C511 H481 0.950 . S
C511 C506 1.363 . S
C511 C510 1.415 . S
H512 C509 0.999 . S
H513 C494 0.913 . S
H514 C532 0.951 . S
H515 C534 0.951 1_455 S
H516 C536 0.950 . S
H517 C537 0.933 1_545 S
H518 C539 0.950 . S
H519 C542 0.950 1_655 S
H520 C543 0.950 . S
H521 C545 0.950 . S
H522 C546 0.950 . S
H523 C547 0.951 . S
H524 C549 0.951 . S
H525 C551 0.950 . S
H526 C552 0.950 . S
H527 C554 0.950 . S
H528 C557 0.950 . S
H529 C558 0.950 . S
H530 C560 0.950 . S
H531 C561 0.916 1_545 S
C532 H514 0.951 . S
C532 C533 1.366 . S
C532 C534 1.387 1_455 S
C533 C532 1.366 . S
C533 C537 1.385 1_455 S
C534 H515 0.951 1_655 S
C534 C532 1.387 1_655 S
C534 C535 1.366 . S
C535 C534 1.366 . S
C535 C536 1.414 1_565 S
C535 C538 1.499 1_565 S
C536 H516 0.950 . S
C536 C535 1.414 1_545 S
C536 C537 1.374 1_545 S
C537 H517 0.933 1_565 S
C537 C533 1.385 1_655 S
C537 C536 1.374 1_565 S
C538 C535 1.499 1_545 S
C538 C539 1.373 1_545 S
C538 C540 1.389 . S
C539 H518 0.950 . S
C539 C538 1.373 1_565 S
C539 C555 1.388 . S
C540 C538 1.389 . S
C540 C541 1.524 . S
C540 C554 1.377 . S
C541 C540 1.524 . S
C541 C542 1.397 1_655 S
C541 C546 1.363 1_655 S
C542 H519 0.950 1_455 S
C542 C541 1.397 1_455 S
C542 C543 1.334 . S
C543 H520 0.950 . S
C543 C542 1.334 . S
C543 C544 1.287 . S
C544 C543 1.287 . S
C544 C545 1.524 . S
C544 H563 0.913 . S
C545 H521 0.950 . S
C545 C544 1.524 . S
C545 C546 1.415 . S
C546 H522 0.950 . S
C546 C541 1.363 1_455 S
C546 C545 1.415 . S
C547 H523 0.951 . S
C547 C548 1.366 . S
C547 C549 1.388 . S
C548 C547 1.366 . S
C548 C552 1.385 . S
C549 H524 0.951 . S
C549 C547 1.388 . S
C549 C550 1.366 . S
C550 C549 1.366 . S
C550 C551 1.414 . S
C550 C553 1.499 . S
C551 H525 0.950 . S
C551 C550 1.414 . S
C551 C552 1.374 . S
C552 H526 0.950 . S
C552 C548 1.385 . S
C552 C551 1.374 . S
C553 C550 1.499 . S
C553 C554 1.373 . S
C553 C555 1.370 1_545 S
C554 H527 0.950 . S
C554 C540 1.377 . S
C554 C553 1.373 . S
C555 C539 1.388 . S
C555 C553 1.370 1_565 S
C555 C556 1.540 . S
C556 C555 1.540 . S
C556 C557 1.397 . S
C556 C561 1.363 . S
C557 H528 0.950 . S
C557 C556 1.397 . S
C557 C558 1.334 . S
C558 H529 0.950 . S
C558 C557 1.334 . S
C558 C559 1.287 . S
C559 C558 1.287 . S
C559 C560 1.524 . S
C559 H562 0.999 . S
C560 H530 0.950 . S
C560 C559 1.524 . S
C560 C561 1.415 . S
C561 H531 0.916 1_565 S
C561 C556 1.363 . S
C561 C560 1.415 . S
H562 C559 0.999 . S
H563 C544 0.913 . S
H564 C582 0.951 . S
H565 C584 0.951 . S
H566 C586 0.950 . S
H567 C587 0.950 . S
H568 C589 0.950 . S
H569 C592 0.950 . S
H570 C593 0.950 . S
H571 C595 0.950 . S
H572 C596 0.950 . S
H573 C597 0.951 . S
H574 C599 0.951 . S
H575 C601 0.950 . S
H576 C602 0.950 . S
H577 C604 0.950 . S
H578 C607 0.950 . S
H579 C608 0.950 . S
H580 C610 0.950 . S
H581 C611 0.950 . S
C582 H564 0.951 . S
C582 C583 1.366 . S
C582 C584 1.388 . S
C583 C582 1.366 . S
C583 C587 1.385 . S
C584 H565 0.951 . S
C584 C582 1.388 . S
C584 C585 1.366 . S
C585 C584 1.366 . S
C585 C586 1.414 . S
C585 C588 1.499 . S
C586 H566 0.950 . S
C586 C585 1.414 . S
C586 C587 1.374 . S
C587 H567 0.950 . S
C587 C583 1.385 . S
C587 C586 1.374 . S
C588 C585 1.499 . S
C588 C589 1.373 . S
C588 C590 1.389 . S
C589 H568 0.950 . S
C589 C588 1.373 . S
C589 C605 1.377 . S
C590 C588 1.389 . S
C590 C591 1.524 . S
C590 C604 1.377 . S
C591 C590 1.524 . S
C591 C592 1.397 . S
C591 C596 1.363 . S
C592 H569 0.950 . S
C592 C591 1.397 . S
C592 C593 1.334 . S
C593 H570 0.950 . S
C593 C592 1.334 . S
C593 C594 1.287 . S
C594 C593 1.287 . S
C594 C595 1.524 . S
C594 H613 0.913 . S
C595 H571 0.950 . S
C595 C594 1.524 . S
C595 C596 1.415 . S
C596 H572 0.950 . S
C596 C591 1.363 . S
C596 C595 1.415 . S
C597 H573 0.951 . S
C597 C598 1.366 . S
C597 C599 1.388 . S
C598 C597 1.366 . S
C598 C602 1.385 . S
C599 H574 0.951 . S
C599 C597 1.388 . S
C599 C600 1.366 . S
C600 C599 1.366 . S
C600 C601 1.414 . S
C600 C603 1.499 . S
C601 H575 0.950 . S
C601 C600 1.414 . S
C601 C602 1.374 . S
C602 H576 0.950 . S
C602 C598 1.385 . S
C602 C601 1.374 . S
C603 C600 1.499 . S
C603 C604 1.373 . S
C603 C605 1.389 . S
C604 H577 0.950 . S
C604 C590 1.377 . S
C604 C603 1.373 . S
C605 C589 1.377 . S
C605 C603 1.389 . S
C605 C606 1.524 . S
C606 C605 1.524 . S
C606 C607 1.397 . S
C606 C611 1.363 . S
C607 H578 0.950 . S
C607 C606 1.397 . S
C607 C608 1.334 . S
C608 H579 0.950 . S
C608 C607 1.334 . S
C608 C609 1.287 . S
C609 C608 1.287 . S
C609 C610 1.524 . S
C609 H612 0.999 . S
C610 H580 0.950 . S
C610 C609 1.524 . S
C610 C611 1.415 . S
C611 H581 0.950 . S
C611 C606 1.363 . S
C611 C610 1.415 . S
H612 C609 0.999 . S
H613 C594 0.913 . S
H614 C632 0.951 . S
H615 C634 0.951 . S
H616 C636 0.950 . S
H617 C637 0.950 . S
H618 C639 0.950 . S
H619 C642 0.950 . S
H620 C643 0.950 . S
H621 C645 0.950 . S
H622 C646 0.950 . S
H623 C647 0.951 . S
H624 C649 0.951 . S
H625 C651 0.950 . S
H626 C652 0.950 . S
H627 C654 0.950 . S
H628 C657 0.950 . S
H629 C658 0.950 . S
H630 C660 0.950 . S
H631 C661 0.950 . S
C632 H614 0.951 . S
C632 C633 1.366 . S
C632 C634 1.388 . S
C633 C632 1.366 . S
C633 C637 1.385 . S
C634 H615 0.951 . S
C634 C632 1.388 . S
C634 C635 1.366 . S
C635 C634 1.366 . S
C635 C636 1.414 . S
C635 C638 1.499 . S
C636 H616 0.950 . S
C636 C635 1.414 . S
C636 C637 1.374 . S
C637 H617 0.950 . S
C637 C633 1.385 . S
C637 C636 1.374 . S
C638 C635 1.499 . S
C638 C639 1.373 . S
C638 C640 1.389 . S
C639 H618 0.950 . S
C639 C638 1.373 . S
C639 C655 1.377 . S
C640 C638 1.389 . S
C640 C641 1.524 . S
C640 C654 1.377 . S
C641 C640 1.524 . S
C641 C642 1.397 . S
C641 C646 1.363 . S
C642 H619 0.950 . S
C642 C641 1.397 . S
C642 C643 1.334 . S
C643 H620 0.950 . S
C643 C642 1.334 . S
C643 C644 1.287 . S
C644 C643 1.287 . S
C644 C645 1.524 . S
C644 H663 0.913 . S
C645 H621 0.950 . S
C645 C644 1.524 . S
C645 C646 1.415 . S
C646 H622 0.950 . S
C646 C641 1.363 . S
C646 C645 1.415 . S
C647 H623 0.951 . S
C647 C648 1.366 . S
C647 C649 1.388 . S
C648 C647 1.366 . S
C648 C652 1.385 . S
C649 H624 0.951 . S
C649 C647 1.388 . S
C649 C650 1.366 . S
C650 C649 1.366 . S
C650 C651 1.414 . S
C650 C653 1.499 . S
C651 H625 0.950 . S
C651 C650 1.414 . S
C651 C652 1.374 . S
C652 H626 0.950 . S
C652 C648 1.385 . S
C652 C651 1.374 . S
C653 C650 1.499 . S
C653 C654 1.373 . S
C653 C655 1.389 . S
C654 H627 0.950 . S
C654 C640 1.377 . S
C654 C653 1.373 . S
C655 C639 1.377 . S
C655 C653 1.389 . S
C655 C656 1.524 . S
C656 C655 1.524 . S
C656 C657 1.397 . S
C656 C661 1.363 . S
C657 H628 0.950 . S
C657 C656 1.397 . S
C657 C658 1.334 . S
C658 H629 0.950 . S
C658 C657 1.334 . S
C658 C659 1.287 . S
C659 C658 1.287 . S
C659 C660 1.524 . S
C659 H662 0.999 . S
C660 H630 0.950 . S
C660 C659 1.524 . S
C660 C661 1.415 . S
C661 H631 0.950 . S
C661 C656 1.363 . S
C661 C660 1.415 . S
H662 C659 0.999 . S
H663 C644 0.913 . S
H664 C682 0.951 . S
H665 C684 0.951 . S
H666 C686 0.950 . S
H667 C687 0.950 . S
H668 C689 0.950 . S
H669 C692 0.950 . S
H670 C693 0.950 . S
H671 C695 0.950 . S
H672 C696 0.950 . S
H673 C697 0.951 . S
H674 C699 0.951 . S
H675 C701 0.950 . S
H676 C702 0.950 . S
H677 C704 0.950 . S
H678 C707 0.950 . S
H679 C708 0.950 . S
H680 C710 0.950 . S
H681 C711 0.950 . S
C682 H664 0.951 . S
C682 C683 1.366 . S
C682 C684 1.388 . S
C683 C682 1.366 . S
C683 C687 1.385 . S
C684 H665 0.951 . S
C684 C682 1.388 . S
C684 C685 1.366 . S
C685 C684 1.366 . S
C685 C686 1.414 . S
C685 C688 1.499 . S
C686 H666 0.950 . S
C686 C685 1.414 . S
C686 C687 1.374 . S
C687 H667 0.950 . S
C687 C683 1.385 . S
C687 C686 1.374 . S
C688 C685 1.499 . S
C688 C689 1.373 . S
C688 C690 1.389 . S
C689 H668 0.950 . S
C689 C688 1.373 . S
C689 C705 1.377 . S
C690 C688 1.389 . S
C690 C691 1.524 . S
C690 C704 1.377 . S
C691 C690 1.524 . S
C691 C692 1.397 . S
C691 C696 1.363 . S
C692 H669 0.950 . S
C692 C691 1.397 . S
C692 C693 1.334 . S
C693 H670 0.950 . S
C693 C692 1.334 . S
C693 C694 1.287 . S
C694 C693 1.287 . S
C694 C695 1.524 . S
C694 H713 0.913 . S
C695 H671 0.950 . S
C695 C694 1.524 . S
C695 C696 1.415 . S
C696 H672 0.950 . S
C696 C691 1.363 . S
C696 C695 1.415 . S
C697 H673 0.951 . S
C697 C698 1.366 . S
C697 C699 1.388 . S
C698 C697 1.366 . S
C698 C702 1.385 . S
C699 H674 0.951 . S
C699 C697 1.388 . S
C699 C700 1.366 . S
C700 C699 1.366 . S
C700 C701 1.414 . S
C700 C703 1.499 . S
C701 H675 0.950 . S
C701 C700 1.414 . S
C701 C702 1.374 . S
C702 H676 0.950 . S
C702 C698 1.385 . S
C702 C701 1.374 . S
C703 C700 1.499 . S
C703 C704 1.373 . S
C703 C705 1.389 . S
C704 H677 0.950 . S
C704 C690 1.377 . S
C704 C703 1.373 . S
C705 C689 1.377 . S
C705 C703 1.389 . S
C705 C706 1.524 . S
C706 C705 1.524 . S
C706 C707 1.397 . S
C706 C711 1.363 . S
C707 H678 0.950 . S
C707 C706 1.397 . S
C707 C708 1.334 . S
C708 H679 0.950 . S
C708 C707 1.334 . S
C708 C709 1.287 . S
C709 C708 1.287 . S
C709 C710 1.524 . S
C709 H712 0.999 . S
C710 H680 0.950 . S
C710 C709 1.524 . S
C710 C711 1.415 . S
C711 H681 0.950 . S
C711 C706 1.363 . S
C711 C710 1.415 . S
H712 C709 0.999 . S
H713 C694 0.913 . S
H714 C732 0.951 . S
H715 C734 0.951 . S
H716 C736 0.950 . S
H717 C737 0.950 . S
H718 C739 0.969 . S
H719 C742 0.950 . S
H720 C743 0.950 . S
H721 C745 0.950 . S
H722 C746 0.950 . S
H723 C747 0.951 . S
H724 C749 0.951 . S
H725 C751 0.950 . S
H726 C752 0.950 . S
H727 C754 0.950 . S
H728 C757 0.950 . S
H729 C758 0.950 . S
H730 C760 0.950 . S
H731 C761 0.950 . S
C732 H714 0.951 . S
C732 C733 1.366 . S
C732 C734 1.388 . S
C733 C732 1.366 . S
C733 C737 1.385 . S
C734 H715 0.951 . S
C734 C732 1.388 . S
C734 C735 1.366 . S
C735 C734 1.366 . S
C735 C736 1.414 . S
C735 C738 1.499 . S
C736 H716 0.950 . S
C736 C735 1.414 . S
C736 C737 1.374 . S
C737 H717 0.950 . S
C737 C733 1.385 . S
C737 C736 1.374 . S
C738 C735 1.499 . S
C738 C739 1.373 . S
C738 C740 1.389 . S
C739 H718 0.969 . S
C739 C738 1.373 . S
C739 C755 1.377 . S
C740 C738 1.389 . S
C740 C741 1.524 . S
C740 C754 1.377 . S
C741 C740 1.524 . S
C741 C742 1.397 . S
C741 C746 1.363 . S
C742 H719 0.950 . S
C742 C741 1.397 . S
C742 C743 1.334 . S
C743 H720 0.950 . S
C743 C742 1.334 . S
C743 C744 1.287 . S
C744 C743 1.287 . S
C744 C745 1.524 . S
C744 H763 0.913 . S
C745 H721 0.950 . S
C745 C744 1.524 . S
C745 C746 1.415 . S
C746 H722 0.950 . S
C746 C741 1.363 . S
C746 C745 1.415 . S
C747 H723 0.951 . S
C747 C748 1.366 . S
C747 C749 1.388 . S
C748 C747 1.366 . S
C748 C752 1.385 . S
C749 H724 0.951 . S
C749 C747 1.388 . S
C749 C750 1.366 . S
C750 C749 1.366 . S
C750 C751 1.414 . S
C750 C753 1.499 . S
C751 H725 0.950 . S
C751 C750 1.414 . S
C751 C752 1.374 . S
C752 H726 0.950 . S
C752 C748 1.385 . S
C752 C751 1.374 . S
C753 C750 1.499 . S
C753 C754 1.373 . S
C753 C755 1.389 . S
C754 H727 0.950 . S
C754 C740 1.377 . S
C754 C753 1.373 . S
C755 C739 1.377 . S
C755 C753 1.389 . S
C755 C756 1.524 1_565 S
C756 C755 1.524 1_545 S
C756 C757 1.397 . S
C756 C761 1.363 . S
C757 H728 0.950 . S
C757 C756 1.397 . S
C757 C758 1.334 . S
C758 H729 0.950 . S
C758 C757 1.334 . S
C758 C759 1.287 . S
C759 C758 1.287 . S
C759 C760 1.524 . S
C759 H762 0.999 . S
C760 H730 0.950 . S
C760 C759 1.524 . S
C760 C761 1.415 . S
C761 H731 0.950 . S
C761 C756 1.363 . S
C761 C760 1.415 . S
H762 C759 0.999 . S
H763 C744 0.913 . S
H764 C782 0.951 . S
H765 C784 0.951 . S
H766 C786 0.950 . S
H767 C787 0.950 . S
H768 C789 0.950 . S
H769 C792 0.950 . S
H770 C793 0.950 . S
H771 C795 0.950 . S
H772 C796 0.950 . S
H773 C797 0.951 . S
H774 C799 0.951 . S
H775 C801 0.950 . S
H776 C802 0.950 . S
H777 C804 0.950 . S
H778 C807 0.950 . S
H779 C808 0.950 . S
H780 C810 0.950 . S
H781 C811 0.950 . S
C782 H764 0.951 . S
C782 C783 1.366 . S
C782 C784 1.388 . S
C783 C782 1.366 . S
C783 C787 1.385 . S
C784 H765 0.951 . S
C784 C782 1.388 . S
C784 C785 1.366 . S
C785 C784 1.366 . S
C785 C786 1.414 . S
C785 C788 1.499 . S
C786 H766 0.950 . S
C786 C785 1.414 . S
C786 C787 1.374 . S
C787 H767 0.950 . S
C787 C783 1.385 . S
C787 C786 1.374 . S
C788 C785 1.499 . S
C788 C789 1.373 . S
C788 C790 1.389 . S
C789 H768 0.950 . S
C789 C788 1.373 . S
C789 C805 1.377 . S
C790 C788 1.389 . S
C790 C791 1.524 . S
C790 C804 1.377 . S
C791 C790 1.524 . S
C791 C792 1.397 . S
C791 C796 1.363 . S
C792 H769 0.950 . S
C792 C791 1.397 . S
C792 C793 1.334 . S
C793 H770 0.950 . S
C793 C792 1.334 . S
C793 C794 1.287 . S
C794 C793 1.287 . S
C794 C795 1.524 . S
C794 H813 0.913 . S
C795 H771 0.950 . S
C795 C794 1.524 . S
C795 C796 1.415 . S
C796 H772 0.950 . S
C796 C791 1.363 . S
C796 C795 1.415 . S
C797 H773 0.951 . S
C797 C798 1.366 . S
C797 C799 1.388 . S
C798 C797 1.366 . S
C798 C802 1.385 . S
C799 H774 0.951 . S
C799 C797 1.388 . S
C799 C800 1.366 . S
C800 C799 1.366 . S
C800 C801 1.414 . S
C800 C803 1.499 . S
C801 H775 0.950 . S
C801 C800 1.414 . S
C801 C802 1.374 . S
C802 H776 0.950 . S
C802 C798 1.385 . S
C802 C801 1.374 . S
C803 C800 1.499 . S
C803 C804 1.373 . S
C803 C805 1.389 . S
C804 H777 0.950 . S
C804 C790 1.377 . S
C804 C803 1.373 . S
C805 C789 1.377 . S
C805 C803 1.389 . S
C805 C806 1.524 . S
C806 C805 1.524 . S
C806 C807 1.397 . S
C806 C811 1.363 . S
C807 H778 0.950 . S
C807 C806 1.397 . S
C807 C808 1.334 . S
C808 H779 0.950 . S
C808 C807 1.334 . S
C808 C809 1.287 . S
C809 C808 1.287 . S
C809 C810 1.524 . S
C809 H812 0.999 . S
C810 H780 0.950 . S
C810 C809 1.524 . S
C810 C811 1.415 . S
C811 H781 0.950 . S
C811 C806 1.363 . S
C811 C810 1.415 . S
H812 C809 0.999 . S
H813 C794 0.913 . S
H814 C832 0.951 . S
H815 C834 0.951 . S
H816 C836 0.950 . S
H817 C837 0.950 . S
H818 C839 0.950 . S
H819 C842 0.950 . S
H820 C843 0.950 . S
H821 C845 0.950 . S
H822 C846 0.950 . S
H823 C847 0.951 . S
H824 C849 0.951 . S
H825 C851 0.950 . S
H826 C852 0.950 . S
H827 C854 0.950 . S
H828 C857 0.950 . S
H829 C858 0.950 . S
H830 C860 0.950 . S
H831 C861 0.950 . S
C832 H814 0.951 . S
C832 C833 1.366 . S
C832 C834 1.388 . S
C833 C832 1.366 . S
C833 C837 1.385 . S
C834 H815 0.951 . S
C834 C832 1.388 . S
C834 C835 1.366 . S
C835 C834 1.366 . S
C835 C836 1.414 . S
C835 C838 1.499 . S
C836 H816 0.950 . S
C836 C835 1.414 . S
C836 C837 1.374 . S
C837 H817 0.950 . S
C837 C833 1.385 . S
C837 C836 1.374 . S
C838 C835 1.499 . S
C838 C839 1.373 . S
C838 C840 1.389 . S
C839 H818 0.950 . S
C839 C838 1.373 . S
C839 C855 1.377 . S
C840 C838 1.389 . S
C840 C841 1.524 . S
C840 C854 1.377 . S
C841 C840 1.524 . S
C841 C842 1.397 . S
C841 C846 1.363 . S
C842 H819 0.950 . S
C842 C841 1.397 . S
C842 C843 1.334 . S
C843 H820 0.950 . S
C843 C842 1.334 . S
C843 C844 1.287 . S
C844 C843 1.287 . S
C844 C845 1.524 . S
C844 H863 0.913 . S
C845 H821 0.950 . S
C845 C844 1.524 . S
C845 C846 1.415 . S
C846 H822 0.950 . S
C846 C841 1.363 . S
C846 C845 1.415 . S
C847 H823 0.951 . S
C847 C848 1.366 . S
C847 C849 1.388 . S
C848 C847 1.366 . S
C848 C852 1.385 . S
C849 H824 0.951 . S
C849 C847 1.388 . S
C849 C850 1.366 . S
C850 C849 1.366 . S
C850 C851 1.414 . S
C850 C853 1.499 . S
C851 H825 0.950 . S
C851 C850 1.414 . S
C851 C852 1.374 . S
C852 H826 0.950 . S
C852 C848 1.385 . S
C852 C851 1.374 . S
C853 C850 1.499 . S
C853 C854 1.373 . S
C853 C855 1.389 . S
C854 H827 0.950 . S
C854 C840 1.377 . S
C854 C853 1.373 . S
C855 C839 1.377 . S
C855 C853 1.389 . S
C855 C856 1.524 . S
C856 C855 1.524 . S
C856 C857 1.397 . S
C856 C861 1.363 . S
C857 H828 0.950 . S
C857 C856 1.397 . S
C857 C858 1.334 . S
C858 H829 0.950 . S
C858 C857 1.334 . S
C858 C859 1.287 . S
C859 C858 1.287 . S
C859 C860 1.524 . S
C859 H862 0.999 . S
C860 H830 0.950 . S
C860 C859 1.524 . S
C860 C861 1.415 . S
C861 H831 0.950 . S
C861 C856 1.363 . S
C861 C860 1.415 . S
H862 C859 0.999 . S
H863 C844 0.913 . S
H864 C882 0.951 . S
H865 C884 0.951 . S
H866 C886 0.950 . S
H867 C887 0.950 . S
H868 C889 0.950 . S
H869 C892 0.950 . S
H870 C893 0.950 . S
H871 C895 0.950 . S
H872 C896 0.950 . S
H873 C897 0.951 . S
H874 C899 0.951 . S
H875 C901 0.950 . S
H876 C902 0.950 . S
H877 C904 0.950 . S
H878 C907 0.950 . S
H879 C908 0.950 . S
H880 C910 0.950 . S
H881 C911 0.950 . S
C882 H864 0.951 . S
C882 C883 1.366 . S
C882 C884 1.388 . S
C883 C882 1.366 . S
C883 C887 1.385 . S
C884 H865 0.951 . S
C884 C882 1.388 . S
C884 C885 1.366 . S
C885 C884 1.366 . S
C885 C886 1.414 . S
C885 C888 1.499 . S
C886 H866 0.950 . S
C886 C885 1.414 . S
C886 C887 1.374 . S
C887 H867 0.950 . S
C887 C883 1.385 . S
C887 C886 1.374 . S
C888 C885 1.499 . S
C888 C889 1.373 . S
C888 C890 1.389 . S
C889 H868 0.950 . S
C889 C888 1.373 . S
C889 C905 1.377 . S
C890 C888 1.389 . S
C890 C891 1.524 . S
C890 C904 1.377 . S
C891 C890 1.524 . S
C891 C892 1.397 . S
C891 C896 1.363 . S
C892 H869 0.950 . S
C892 C891 1.397 . S
C892 C893 1.334 . S
C893 H870 0.950 . S
C893 C892 1.334 . S
C893 C894 1.287 . S
C894 C893 1.287 . S
C894 C895 1.524 . S
C894 H913 0.913 . S
C895 H871 0.950 . S
C895 C894 1.524 . S
C895 C896 1.415 . S
C896 H872 0.950 . S
C896 C891 1.363 . S
C896 C895 1.415 . S
C897 H873 0.951 . S
C897 C898 1.366 . S
C897 C899 1.388 . S
C898 C897 1.366 . S
C898 C902 1.385 . S
C899 H874 0.951 . S
C899 C897 1.388 . S
C899 C900 1.366 . S
C900 C899 1.366 . S
C900 C901 1.414 . S
C900 C903 1.499 . S
C901 H875 0.950 . S
C901 C900 1.414 . S
C901 C902 1.374 . S
C902 H876 0.950 . S
C902 C898 1.385 . S
C902 C901 1.374 . S
C903 C900 1.499 . S
C903 C904 1.373 . S
C903 C905 1.389 . S
C904 H877 0.950 . S
C904 C890 1.377 . S
C904 C903 1.373 . S
C905 C889 1.377 . S
C905 C903 1.389 . S
C905 C906 1.524 . S
C906 C905 1.524 . S
C906 C907 1.397 . S
C906 C911 1.363 . S
C907 H878 0.950 . S
C907 C906 1.397 . S
C907 C908 1.334 . S
C908 H879 0.950 . S
C908 C907 1.334 . S
C908 C909 1.287 . S
C909 C908 1.287 . S
C909 C910 1.524 . S
C909 H912 0.999 . S
C910 H880 0.950 . S
C910 C909 1.524 . S
C910 C911 1.415 . S
C911 H881 0.950 . S
C911 C906 1.363 . S
C911 C910 1.415 . S
H912 C909 0.999 . S
H913 C894 0.913 . S
H914 C932 0.951 . S
H915 C934 0.951 . S
H916 C936 0.950 . S
H917 C937 0.950 . S
H918 C939 0.950 . S
H919 C942 0.950 . S
H920 C943 0.950 . S
H921 C945 0.950 . S
H922 C946 0.950 . S
H923 C947 0.951 . S
H924 C949 0.951 . S
H925 C951 0.950 . S
H926 C952 0.950 . S
H927 C954 0.950 . S
H928 C957 0.950 . S
H929 C958 0.950 . S
H930 C960 0.950 . S
H931 C961 0.950 . S
C932 H914 0.951 . S
C932 C933 1.366 . S
C932 C934 1.388 . S
C933 C932 1.366 . S
C933 C937 1.385 . S
C934 H915 0.951 . S
C934 C932 1.388 . S
C934 C935 1.366 . S
C935 C934 1.366 . S
C935 C936 1.414 . S
C935 C938 1.499 . S
C936 H916 0.950 . S
C936 C935 1.414 . S
C936 C937 1.374 . S
C937 H917 0.950 . S
C937 C933 1.385 . S
C937 C936 1.374 . S
C938 C935 1.499 . S
C938 C939 1.373 . S
C938 C940 1.389 . S
C939 H918 0.950 . S
C939 C938 1.373 . S
C939 C955 1.377 . S
C940 C938 1.389 . S
C940 C941 1.524 . S
C940 C954 1.377 . S
C941 C940 1.524 . S
C941 C942 1.397 . S
C941 C946 1.363 . S
C942 H919 0.950 . S
C942 C941 1.397 . S
C942 C943 1.334 . S
C943 H920 0.950 . S
C943 C942 1.334 . S
C943 C944 1.287 . S
C944 C943 1.287 . S
C944 C945 1.524 . S
C944 H963 0.913 . S
C945 H921 0.950 . S
C945 C944 1.524 . S
C945 C946 1.415 . S
C946 H922 0.950 . S
C946 C941 1.363 . S
C946 C945 1.415 . S
C947 H923 0.951 . S
C947 C948 1.366 . S
C947 C949 1.388 . S
C948 C947 1.366 . S
C948 C952 1.385 . S
C949 H924 0.951 . S
C949 C947 1.388 . S
C949 C950 1.366 . S
C950 C949 1.366 . S
C950 C951 1.414 . S
C950 C953 1.499 . S
C951 H925 0.950 . S
C951 C950 1.414 . S
C951 C952 1.374 . S
C952 H926 0.950 . S
C952 C948 1.385 . S
C952 C951 1.374 . S
C953 C950 1.499 . S
C953 C954 1.373 . S
C953 C955 1.389 . S
C954 H927 0.950 . S
C954 C940 1.377 . S
C954 C953 1.373 . S
C955 C939 1.377 . S
C955 C953 1.389 . S
C955 C956 1.524 . S
C956 C955 1.524 . S
C956 C957 1.397 . S
C956 C961 1.363 . S
C957 H928 0.950 . S
C957 C956 1.397 . S
C957 C958 1.334 . S
C958 H929 0.950 . S
C958 C957 1.334 . S
C958 C959 1.287 . S
C959 C958 1.287 . S
C959 C960 1.524 . S
C959 H962 0.999 . S
C960 H930 0.950 . S
C960 C959 1.524 . S
C960 C961 1.415 . S
C961 H931 0.950 . S
C961 C956 1.363 . S
C961 C960 1.415 . S
H962 C959 0.999 . S
H963 C944 0.913 . S
H964 C982 0.951 . S
H965 C984 0.951 . S
H966 C986 0.950 . S
H967 C987 0.950 . S
H968 C989 0.950 . S
H969 C992 0.950 . S
H970 C993 0.950 . S
H971 C995 0.950 . S
H972 C996 0.950 . S
H973 C997 0.951 . S
H974 C999 0.951 . S
H975 C1001 0.950 . S
H976 C1002 0.950 . S
H977 C1004 0.950 . S
H978 C1007 0.950 . S
H979 C1008 0.950 . S
H980 C1010 0.950 . S
H981 C1011 0.950 . S
C982 H964 0.951 . S
C982 C983 1.366 . S
C982 C984 1.388 . S
C983 C982 1.366 . S
C983 C987 1.385 . S
C984 H965 0.951 . S
C984 C982 1.388 . S
C984 C985 1.366 . S
C985 C984 1.366 . S
C985 C986 1.414 . S
C985 C988 1.499 . S
C986 H966 0.950 . S
C986 C985 1.414 . S
C986 C987 1.374 . S
C987 H967 0.950 . S
C987 C983 1.385 . S
C987 C986 1.374 . S
C988 C985 1.499 . S
C988 C989 1.373 . S
C988 C990 1.389 . S
C989 H968 0.950 . S
C989 C988 1.373 . S
C989 C1005 1.377 . S
C990 C988 1.389 . S
C990 C991 1.524 . S
C990 C1004 1.377 . S
C991 C990 1.524 . S
C991 C992 1.397 . S
C991 C996 1.363 . S
C992 H969 0.950 . S
C992 C991 1.397 . S
C992 C993 1.334 . S
C993 H970 0.950 . S
C993 C992 1.334 . S
C993 C994 1.287 . S
C994 C993 1.287 . S
C994 C995 1.524 . S
C994 H1013 0.913 . S
C995 H971 0.950 . S
C995 C994 1.524 . S
C995 C996 1.415 . S
C996 H972 0.950 . S
C996 C991 1.363 . S
C996 C995 1.415 . S
C997 H973 0.951 . S
C997 C998 1.366 . S
C997 C999 1.388 . S
C998 C997 1.366 . S
C998 C1002 1.385 . S
C999 H974 0.951 . S
C999 C997 1.388 . S
C999 C1000 1.366 . S
C1000 C999 1.366 . S
C1000 C1001 1.414 . S
C1000 C1003 1.499 . S
C1001 H975 0.950 . S
C1001 C1000 1.414 . S
C1001 C1002 1.374 . S
C1002 H976 0.950 . S
C1002 C998 1.385 . S
C1002 C1001 1.374 . S
C1003 C1000 1.499 . S
C1003 C1004 1.373 . S
C1003 C1005 1.389 . S
C1004 H977 0.950 . S
C1004 C990 1.377 . S
C1004 C1003 1.373 . S
C1005 C989 1.377 . S
C1005 C1003 1.389 . S
C1005 C1006 1.524 . S
C1006 C1005 1.524 . S
C1006 C1007 1.397 . S
C1006 C1011 1.363 . S
C1007 H978 0.950 . S
C1007 C1006 1.397 . S
C1007 C1008 1.334 . S
C1008 H979 0.950 . S
C1008 C1007 1.334 . S
C1008 C1009 1.287 . S
C1009 C1008 1.287 . S
C1009 C1010 1.524 . S
C1009 H1012 0.999 . S
C1010 H980 0.950 . S
C1010 C1009 1.524 . S
C1010 C1011 1.415 . S
C1011 H981 0.950 . S
C1011 C1006 1.363 . S
C1011 C1010 1.415 . S
H1012 C1009 0.999 . S
H1013 C994 0.913 . S
H1014 C1032 0.951 . S
H1015 C1034 0.951 . S
H1016 C1036 0.950 . S
H1017 C1037 0.950 . S
H1018 C1039 0.950 . S
H1019 C1042 0.950 . S
H1020 C1043 0.950 . S
H1021 C1045 0.950 . S
H1022 C1046 0.950 . S
H1023 C1047 0.980 . S
H1024 C1049 0.951 . S
H1025 C1051 0.950 . S
H1026 C1052 0.950 . S
H1027 C1054 0.950 . S
H1028 C1057 0.950 . S
H1029 C1058 0.950 . S
H1030 C1060 0.950 . S
H1031 C1061 0.950 . S
C1032 H1014 0.951 . S
C1032 C1033 1.366 . S
C1032 C1034 1.388 . S
C1033 C1032 1.366 . S
C1033 C1037 1.385 . S
C1034 H1015 0.951 . S
C1034 C1032 1.388 . S
C1034 C1035 1.366 . S
C1035 C1034 1.366 . S
C1035 C1036 1.414 . S
C1035 C1038 1.499 . S
C1036 H1016 0.950 . S
C1036 C1035 1.414 . S
C1036 C1037 1.374 . S
C1037 H1017 0.950 . S
C1037 C1033 1.385 . S
C1037 C1036 1.374 . S
C1038 C1035 1.499 . S
C1038 C1039 1.373 . S
C1038 C1040 1.389 . S
C1039 H1018 0.950 . S
C1039 C1038 1.373 . S
C1039 C1055 1.377 . S
C1040 C1038 1.389 . S
C1040 C1041 1.524 . S
C1040 C1054 1.377 . S
C1041 C1040 1.524 . S
C1041 C1042 1.397 . S
C1041 C1046 1.363 . S
C1042 H1019 0.950 . S
C1042 C1041 1.397 . S
C1042 C1043 1.334 . S
C1043 H1020 0.950 . S
C1043 C1042 1.334 . S
C1043 C1044 1.287 . S
C1044 C1043 1.287 . S
C1044 C1045 1.524 . S
C1044 H1063 0.913 . S
C1045 H1021 0.950 . S
C1045 C1044 1.524 . S
C1045 C1046 1.415 . S
C1046 H1022 0.950 . S
C1046 C1041 1.363 . S
C1046 C1045 1.415 . S
C1047 H1023 0.980 . S
C1047 C1048 1.366 . S
C1047 C1049 1.388 . S
C1048 C1047 1.366 . S
C1048 C1052 1.385 . S
C1049 H1024 0.951 . S
C1049 C1047 1.388 . S
C1049 C1050 1.366 . S
C1050 C1049 1.366 . S
C1050 C1051 1.414 . S
C1050 C1053 1.499 . S
C1051 H1025 0.950 . S
C1051 C1050 1.414 . S
C1051 C1052 1.374 . S
C1052 H1026 0.950 . S
C1052 C1048 1.385 . S
C1052 C1051 1.374 . S
C1053 C1050 1.499 . S
C1053 C1054 1.373 . S
C1053 C1055 1.389 . S
C1054 H1027 0.950 . S
C1054 C1040 1.377 . S
C1054 C1053 1.373 . S
C1055 C1039 1.377 . S
C1055 C1053 1.389 . S
C1055 C1056 1.561 . S
C1056 C1055 1.561 . S
C1056 C1057 1.401 . S
C1056 C1061 1.324 1_455 S
C1057 H1028 0.950 . S
C1057 C1056 1.401 . S
C1057 C1058 1.334 1_455 S
C1058 H1029 0.950 . S
C1058 C1057 1.334 1_655 S
C1058 C1059 1.287 . S
C1059 C1058 1.287 . S
C1059 C1060 1.524 . S
C1059 H1062 0.999 . S
C1060 H1030 0.950 . S
C1060 C1059 1.524 . S
C1060 C1061 1.415 . S
C1061 H1031 0.950 . S
C1061 C1056 1.324 1_655 S
C1061 C1060 1.415 . S
H1062 C1059 0.999 . S
H1063 C1044 0.913 . S
H1064 C1082 0.951 . S
H1065 C1084 0.951 . S
H1066 C1086 0.950 . S
H1067 C1087 0.950 . S
H1068 C1089 0.950 . S
H1069 C1092 0.950 . S
H1070 C1093 0.950 . S
H1071 C1095 0.950 . S
H1072 C1096 0.950 . S
H1073 C1097 0.951 . S
H1074 C1099 0.951 . S
H1075 C1101 0.950 . S
H1076 C1102 0.950 . S
H1077 C1104 0.950 . S
H1078 C1107 0.950 . S
H1079 C1108 0.950 . S
H1080 C1110 0.950 . S
H1081 C1111 0.950 . S
C1082 H1064 0.951 . S
C1082 C1083 1.366 . S
C1082 C1084 1.388 . S
C1083 C1082 1.366 . S
C1083 C1087 1.385 . S
C1084 H1065 0.951 . S
C1084 C1082 1.388 . S
C1084 C1085 1.366 . S
C1085 C1084 1.366 . S
C1085 C1086 1.414 . S
C1085 C1088 1.499 . S
C1086 H1066 0.950 . S
C1086 C1085 1.414 . S
C1086 C1087 1.374 . S
C1087 H1067 0.950 . S
C1087 C1083 1.385 . S
C1087 C1086 1.374 . S
C1088 C1085 1.499 . S
C1088 C1089 1.373 . S
C1088 C1090 1.389 . S
C1089 H1068 0.950 . S
C1089 C1088 1.373 . S
C1089 C1105 1.377 . S
C1090 C1088 1.389 . S
C1090 C1091 1.524 . S
C1090 C1104 1.377 . S
C1091 C1090 1.524 . S
C1091 C1092 1.397 . S
C1091 C1096 1.363 . S
C1092 H1069 0.950 . S
C1092 C1091 1.397 . S
C1092 C1093 1.334 . S
C1093 H1070 0.950 . S
C1093 C1092 1.334 . S
C1093 C1094 1.287 . S
C1094 C1093 1.287 . S
C1094 C1095 1.524 . S
C1094 H1113 0.913 . S
C1095 H1071 0.950 . S
C1095 C1094 1.524 . S
C1095 C1096 1.415 . S
C1096 H1072 0.950 . S
C1096 C1091 1.363 . S
C1096 C1095 1.415 . S
C1097 H1073 0.951 . S
C1097 C1098 1.366 . S
C1097 C1099 1.388 . S
C1098 C1097 1.366 . S
C1098 C1102 1.385 . S
C1099 H1074 0.951 . S
C1099 C1097 1.388 . S
C1099 C1100 1.366 . S
C1100 C1099 1.366 . S
C1100 C1101 1.414 . S
C1100 C1103 1.499 . S
C1101 H1075 0.950 . S
C1101 C1100 1.414 . S
C1101 C1102 1.374 . S
C1102 H1076 0.950 . S
C1102 C1098 1.385 . S
C1102 C1101 1.374 . S
C1103 C1100 1.499 . S
C1103 C1104 1.373 . S
C1103 C1105 1.389 . S
C1104 H1077 0.950 . S
C1104 C1090 1.377 . S
C1104 C1103 1.373 . S
C1105 C1089 1.377 . S
C1105 C1103 1.389 . S
C1105 C1106 1.524 . S
C1106 C1105 1.524 . S
C1106 C1107 1.397 . S
C1106 C1111 1.363 . S
C1107 H1078 0.950 . S
C1107 C1106 1.397 . S
C1107 C1108 1.334 . S
C1108 H1079 0.950 . S
C1108 C1107 1.334 . S
C1108 C1109 1.287 . S
C1109 C1108 1.287 . S
C1109 C1110 1.524 . S
C1109 H1112 0.999 . S
C1110 H1080 0.950 . S
C1110 C1109 1.524 . S
C1110 C1111 1.415 . S
C1111 H1081 0.950 . S
C1111 C1106 1.363 . S
C1111 C1110 1.415 . S
H1112 C1109 0.999 . S
H1113 C1094 0.913 . S
H1114 C1132 0.951 . S
H1115 C1134 0.951 . S
H1116 C1136 0.950 . S
H1117 C1137 0.950 . S
H1118 C1139 0.950 . S
H1119 C1142 0.950 . S
H1120 C1143 0.950 . S
H1121 C1145 0.950 . S
H1122 C1146 0.950 . S
H1123 C1147 0.951 . S
H1124 C1149 0.951 . S
H1125 C1151 0.950 . S
H1126 C1152 0.950 . S
H1127 C1154 0.950 . S
H1128 C1157 0.937 1_455 S
H1129 C1158 0.950 1_455 S
H1130 C1160 0.950 . S
H1131 C1161 0.950 . S
C1132 H1114 0.951 . S
C1132 C1133 1.366 1_455 S
C1132 C1134 1.388 . S
C1133 C1132 1.366 1_655 S
C1133 C1137 1.385 . S
C1134 H1115 0.951 . S
C1134 C1132 1.388 . S
C1134 C1135 1.366 1_455 S
C1135 C1134 1.366 1_655 S
C1135 C1136 1.414 . S
C1135 C1138 1.499 . S
C1136 H1116 0.950 . S
C1136 C1135 1.414 . S
C1136 C1137 1.374 . S
C1137 H1117 0.950 . S
C1137 C1133 1.385 . S
C1137 C1136 1.374 . S
C1138 C1135 1.499 . S
C1138 C1139 1.373 . S
C1138 C1140 1.389 1_655 S
C1139 H1118 0.950 . S
C1139 C1138 1.373 . S
C1139 C1155 1.377 . S
C1140 C1138 1.389 1_455 S
C1140 C1141 1.524 . S
C1140 C1154 1.377 . S
C1141 C1140 1.524 . S
C1141 C1142 1.397 1_455 S
C1141 C1146 1.363 . S
C1142 H1119 0.950 . S
C1142 C1141 1.397 1_655 S
C1142 C1143 1.334 . S
C1143 H1120 0.950 . S
C1143 C1142 1.334 . S
C1143 C1144 1.287 1_655 S
C1144 C1143 1.287 1_455 S
C1144 C1145 1.524 . S
C1144 H1163 0.913 . S
C1145 H1121 0.950 . S
C1145 C1144 1.524 . S
C1145 C1146 1.415 . S
C1146 H1122 0.950 . S
C1146 C1141 1.363 . S
C1146 C1145 1.415 . S
C1147 H1123 0.951 . S
C1147 C1148 1.366 1_655 S
C1147 C1149 1.388 . S
C1148 C1147 1.366 1_455 S
C1148 C1152 1.385 . S
C1149 H1124 0.951 . S
C1149 C1147 1.388 . S
C1149 C1150 1.366 1_655 S
C1150 C1149 1.366 1_455 S
C1150 C1151 1.414 . S
C1150 C1153 1.500 1_455 S
C1151 H1125 0.950 . S
C1151 C1150 1.414 . S
C1151 C1152 1.374 . S
C1152 H1126 0.950 . S
C1152 C1148 1.385 . S
C1152 C1151 1.374 . S
C1153 C1150 1.500 1_655 S
C1153 C1154 1.360 1_655 S
C1153 C1155 1.403 . S
C1154 H1127 0.950 . S
C1154 C1140 1.377 . S
C1154 C1153 1.360 1_455 S
C1155 C1139 1.377 . S
C1155 C1153 1.403 . S
C1155 C1156 1.524 . S
C1156 C1155 1.524 . S
C1156 C1157 1.405 . S
C1156 C1161 1.363 . S
C1157 H1128 0.937 1_655 S
C1157 C1156 1.405 . S
C1157 C1158 1.338 . S
C1158 H1129 0.950 1_655 S
C1158 C1157 1.338 . S
C1158 C1159 1.287 . S
C1159 C1158 1.287 . S
C1159 C1160 1.524 . S
C1159 H1162 0.999 . S
C1160 H1130 0.950 . S
C1160 C1159 1.524 . S
C1160 C1161 1.415 . S
C1161 H1131 0.950 . S
C1161 C1156 1.363 . S
C1161 C1160 1.415 . S
H1162 C1159 0.999 . S
H1163 C1144 0.913 . S
H1164 C1182 0.951 . S
H1165 C1184 0.951 . S
H1166 C1186 0.950 . S
H1167 C1187 0.950 . S
H1168 C1189 0.950 . S
H1169 C1192 0.950 . S
H1170 C1193 0.950 . S
H1171 C1195 0.950 . S
H1172 C1196 0.950 . S
H1173 C1197 0.951 . S
H1174 C1199 0.951 . S
H1175 C1201 0.950 . S
H1176 C1202 0.950 . S
H1177 C1204 0.950 . S
H1178 C1207 0.950 . S
H1179 C1208 0.950 . S
H1180 C1210 0.950 . S
H1181 C1211 0.950 . S
C1182 H1164 0.951 . S
C1182 C1183 1.366 . S
C1182 C1184 1.388 . S
C1183 C1182 1.366 . S
C1183 C1187 1.385 . S
C1184 H1165 0.951 . S
C1184 C1182 1.388 . S
C1184 C1185 1.366 . S
C1185 C1184 1.366 . S
C1185 C1186 1.414 . S
C1185 C1188 1.499 . S
C1186 H1166 0.950 . S
C1186 C1185 1.414 . S
C1186 C1187 1.374 . S
C1187 H1167 0.950 . S
C1187 C1183 1.385 . S
C1187 C1186 1.374 . S
C1188 C1185 1.499 . S
C1188 C1189 1.373 . S
C1188 C1190 1.389 . S
C1189 H1168 0.950 . S
C1189 C1188 1.373 . S
C1189 C1205 1.377 . S
C1190 C1188 1.389 . S
C1190 C1191 1.524 . S
C1190 C1204 1.377 . S
C1191 C1190 1.524 . S
C1191 C1192 1.397 . S
C1191 C1196 1.363 . S
C1192 H1169 0.950 . S
C1192 C1191 1.397 . S
C1192 C1193 1.334 . S
C1193 H1170 0.950 . S
C1193 C1192 1.334 . S
C1193 C1194 1.287 . S
C1194 C1193 1.287 . S
C1194 C1195 1.524 . S
C1194 H1213 0.913 . S
C1195 H1171 0.950 . S
C1195 C1194 1.524 . S
C1195 C1196 1.415 . S
C1196 H1172 0.950 . S
C1196 C1191 1.363 . S
C1196 C1195 1.415 . S
C1197 H1173 0.951 . S
C1197 C1198 1.366 . S
C1197 C1199 1.388 . S
C1198 C1197 1.366 . S
C1198 C1202 1.385 . S
C1199 H1174 0.951 . S
C1199 C1197 1.388 . S
C1199 C1200 1.366 . S
C1200 C1199 1.366 . S
C1200 C1201 1.414 . S
C1200 C1203 1.499 . S
C1201 H1175 0.950 . S
C1201 C1200 1.414 . S
C1201 C1202 1.374 . S
C1202 H1176 0.950 . S
C1202 C1198 1.385 . S
C1202 C1201 1.374 . S
C1203 C1200 1.499 . S
C1203 C1204 1.373 . S
C1203 C1205 1.389 . S
C1204 H1177 0.950 . S
C1204 C1190 1.377 . S
C1204 C1203 1.373 . S
C1205 C1189 1.377 . S
C1205 C1203 1.389 . S
C1205 C1206 1.524 . S
C1206 C1205 1.524 . S
C1206 C1207 1.397 . S
C1206 C1211 1.363 . S
C1207 H1178 0.950 . S
C1207 C1206 1.397 . S
C1207 C1208 1.334 . S
C1208 H1179 0.950 . S
C1208 C1207 1.334 . S
C1208 C1209 1.287 . S
C1209 C1208 1.287 . S
C1209 C1210 1.524 . S
C1209 H1212 0.999 . S
C1210 H1180 0.950 . S
C1210 C1209 1.524 . S
C1210 C1211 1.415 . S
C1211 H1181 0.950 . S
C1211 C1206 1.363 . S
C1211 C1210 1.415 . S
H1212 C1209 0.999 . S
H1213 C1194 0.913 . S
H1214 C1232 0.951 . S
H1215 C1234 0.951 . S
H1216 C1236 0.950 . S
H1217 C1237 0.950 . S
H1218 C1239 0.950 . S
H1219 C1242 0.950 . S
H1220 C1243 0.950 . S
H1221 C1245 0.950 . S
H1222 C1246 0.950 . S
H1223 C1247 0.951 . S
H1224 C1249 0.951 . S
H1225 C1251 0.950 . S
H1226 C1252 0.950 . S
H1227 C1254 0.950 . S
H1228 C1257 0.950 . S
H1229 C1258 0.950 . S
H1230 C1260 0.950 . S
H1231 C1261 0.950 . S
C1232 H1214 0.951 . S
C1232 C1233 1.366 . S
C1232 C1234 1.388 . S
C1233 C1232 1.366 . S
C1233 C1237 1.385 . S
C1234 H1215 0.951 . S
C1234 C1232 1.388 . S
C1234 C1235 1.366 . S
C1235 C1234 1.366 . S
C1235 C1236 1.414 . S
C1235 C1238 1.499 . S
C1236 H1216 0.950 . S
C1236 C1235 1.414 . S
C1236 C1237 1.374 . S
C1237 H1217 0.950 . S
C1237 C1233 1.385 . S
C1237 C1236 1.374 . S
C1238 C1235 1.499 . S
C1238 C1239 1.373 . S
C1238 C1240 1.389 . S
C1239 H1218 0.950 . S
C1239 C1238 1.373 . S
C1239 C1255 1.377 . S
C1240 C1238 1.389 . S
C1240 C1241 1.524 . S
C1240 C1254 1.377 . S
C1241 C1240 1.524 . S
C1241 C1242 1.397 . S
C1241 C1246 1.363 . S
C1242 H1219 0.950 . S
C1242 C1241 1.397 . S
C1242 C1243 1.334 . S
C1243 H1220 0.950 . S
C1243 C1242 1.334 . S
C1243 C1244 1.287 . S
C1244 C1243 1.287 . S
C1244 C1245 1.524 . S
C1244 H1263 0.913 . S
C1245 H1221 0.950 . S
C1245 C1244 1.524 . S
C1245 C1246 1.415 . S
C1246 H1222 0.950 . S
C1246 C1241 1.363 . S
C1246 C1245 1.415 . S
C1247 H1223 0.951 . S
C1247 C1248 1.366 . S
C1247 C1249 1.388 . S
C1248 C1247 1.366 . S
C1248 C1252 1.385 . S
C1249 H1224 0.951 . S
C1249 C1247 1.388 . S
C1249 C1250 1.366 . S
C1250 C1249 1.366 . S
C1250 C1251 1.414 . S
C1250 C1253 1.499 . S
C1251 H1225 0.950 . S
C1251 C1250 1.414 . S
C1251 C1252 1.374 . S
C1252 H1226 0.950 . S
C1252 C1248 1.385 . S
C1252 C1251 1.374 . S
C1253 C1250 1.499 . S
C1253 C1254 1.373 . S
C1253 C1255 1.389 . S
C1254 H1227 0.950 . S
C1254 C1240 1.377 . S
C1254 C1253 1.373 . S
C1255 C1239 1.377 . S
C1255 C1253 1.389 . S
C1255 C1256 1.524 . S
C1256 C1255 1.524 . S
C1256 C1257 1.397 . S
C1256 C1261 1.363 . S
C1257 H1228 0.950 . S
C1257 C1256 1.397 . S
C1257 C1258 1.334 . S
C1258 H1229 0.950 . S
C1258 C1257 1.334 . S
C1258 C1259 1.287 . S
C1259 C1258 1.287 . S
C1259 C1260 1.524 . S
C1259 H1262 0.999 . S
C1260 H1230 0.950 . S
C1260 C1259 1.524 . S
C1260 C1261 1.415 . S
C1261 H1231 0.950 . S
C1261 C1256 1.363 . S
C1261 C1260 1.415 . S
H1262 C1259 0.999 . S
H1263 C1244 0.913 . S
H1264 C1282 0.951 . S
H1265 C1284 0.951 1_565 S
H1266 C1286 0.950 . S
H1267 C1287 0.950 . S
H1268 C1289 0.939 1_554 S
H1269 C1292 0.950 . S
H1270 C1293 0.950 . S
H1271 C1295 0.950 . S
H1272 C1296 0.950 . S
H1273 C1297 0.951 . S
H1274 C1299 0.951 . S
H1275 C1301 0.945 1_554 S
H1276 C1302 0.949 1_554 S
H1277 C1304 0.950 . S
H1278 C1307 0.950 . S
H1279 C1308 0.950 . S
H1280 C1310 0.950 . S
H1281 C1311 0.950 . S
C1282 H1264 0.951 . S
C1282 C1283 1.366 . S
C1282 C1284 1.388 . S
C1283 C1282 1.366 . S
C1283 C1287 1.385 . S
C1284 H1265 0.951 1_545 S
C1284 C1282 1.388 . S
C1284 C1285 1.366 . S
C1285 C1284 1.366 . S
C1285 C1286 1.414 . S
C1285 C1288 1.499 1_545 S
C1286 H1266 0.950 . S
C1286 C1285 1.414 . S
C1286 C1287 1.374 . S
C1287 H1267 0.950 . S
C1287 C1283 1.385 . S
C1287 C1286 1.374 . S
C1288 C1285 1.499 1_565 S
C1288 C1289 1.388 1_565 S
C1288 C1290 1.389 . S
C1289 H1268 0.939 1_556 S
C1289 C1288 1.388 1_545 S
C1289 C1305 1.374 1_546 S
C1290 C1288 1.389 . S
C1290 C1291 1.524 . S
C1290 C1304 1.377 . S
C1291 C1290 1.524 . S
C1291 C1292 1.397 . S
C1291 C1296 1.363 . S
C1292 H1269 0.950 . S
C1292 C1291 1.397 . S
C1292 C1293 1.334 . S
C1293 H1270 0.950 . S
C1293 C1292 1.334 . S
C1293 C1294 1.287 . S
C1294 C1293 1.287 . S
C1294 C1295 1.524 . S
C1294 H1313 0.913 . S
C1295 H1271 0.950 . S
C1295 C1294 1.524 . S
C1295 C1296 1.415 . S
C1296 H1272 0.950 . S
C1296 C1291 1.363 . S
C1296 C1295 1.415 . S
C1297 H1273 0.951 . S
C1297 C1298 1.366 . S
C1297 C1299 1.388 . S
C1298 C1297 1.366 . S
C1298 C1302 1.385 . S
C1299 H1274 0.951 . S
C1299 C1297 1.388 . S
C1299 C1300 1.366 . S
C1300 C1299 1.366 . S
C1300 C1301 1.423 . S
C1300 C1303 1.499 . S
C1301 H1275 0.945 1_556 S
C1301 C1300 1.423 . S
C1301 C1302 1.373 . S
C1302 H1276 0.949 1_556 S
C1302 C1298 1.385 . S
C1302 C1301 1.373 . S
C1303 C1300 1.499 . S
C1303 C1304 1.373 . S
C1303 C1305 1.389 1_556 S
C1304 H1277 0.950 . S
C1304 C1290 1.377 . S
C1304 C1303 1.373 . S
C1305 C1289 1.374 1_564 S
C1305 C1303 1.389 1_554 S
C1305 C1306 1.553 . S
C1306 C1305 1.553 . S
C1306 C1307 1.429 . S
C1306 C1311 1.306 1_565 S
C1307 H1278 0.950 . S
C1307 C1306 1.429 . S
C1307 C1308 1.334 . S
C1308 H1279 0.950 . S
C1308 C1307 1.334 . S
C1308 C1309 1.287 1_565 S
C1309 C1308 1.287 1_545 S
C1309 C1310 1.524 . S
C1309 H1312 0.999 . S
C1310 H1280 0.950 . S
C1310 C1309 1.524 . S
C1310 C1311 1.415 . S
C1311 H1281 0.950 . S
C1311 C1306 1.306 1_545 S
C1311 C1310 1.415 . S
H1312 C1309 0.999 . S
H1313 C1294 0.913 . S
H1314 C1332 0.951 . S
H1315 C1334 0.951 . S
H1316 C1336 0.950 . S
H1317 C1337 0.950 . S
H1318 C1339 0.950 . S
H1319 C1342 0.950 . S
H1320 C1343 0.950 . S
H1321 C1345 0.950 . S
H1322 C1346 0.950 . S
H1323 C1347 0.951 . S
H1324 C1349 0.951 . S
H1325 C1351 0.950 . S
H1326 C1352 0.950 . S
H1327 C1354 0.950 . S
H1328 C1357 0.950 . S
H1329 C1358 0.950 . S
H1330 C1360 0.950 . S
H1331 C1361 0.950 . S
C1332 H1314 0.951 . S
C1332 C1333 1.366 . S
C1332 C1334 1.388 . S
C1333 C1332 1.366 . S
C1333 C1337 1.385 . S
C1334 H1315 0.951 . S
C1334 C1332 1.388 . S
C1334 C1335 1.366 . S
C1335 C1334 1.366 . S
C1335 C1336 1.414 . S
C1335 C1338 1.499 . S
C1336 H1316 0.950 . S
C1336 C1335 1.414 . S
C1336 C1337 1.374 . S
C1337 H1317 0.950 . S
C1337 C1333 1.385 . S
C1337 C1336 1.374 . S
C1338 C1335 1.499 . S
C1338 C1339 1.373 . S
C1338 C1340 1.389 . S
C1339 H1318 0.950 . S
C1339 C1338 1.373 . S
C1339 C1355 1.377 . S
C1340 C1338 1.389 . S
C1340 C1341 1.524 . S
C1340 C1354 1.377 . S
C1341 C1340 1.524 . S
C1341 C1342 1.397 . S
C1341 C1346 1.363 . S
C1342 H1319 0.950 . S
C1342 C1341 1.397 . S
C1342 C1343 1.334 . S
C1343 H1320 0.950 . S
C1343 C1342 1.334 . S
C1343 C1344 1.287 . S
C1344 C1343 1.287 . S
C1344 C1345 1.524 . S
C1344 H1363 0.913 . S
C1345 H1321 0.950 . S
C1345 C1344 1.524 . S
C1345 C1346 1.415 . S
C1346 H1322 0.950 . S
C1346 C1341 1.363 . S
C1346 C1345 1.415 . S
C1347 H1323 0.951 . S
C1347 C1348 1.366 . S
C1347 C1349 1.388 . S
C1348 C1347 1.366 . S
C1348 C1352 1.385 . S
C1349 H1324 0.951 . S
C1349 C1347 1.388 . S
C1349 C1350 1.366 . S
C1350 C1349 1.366 . S
C1350 C1351 1.414 . S
C1350 C1353 1.499 . S
C1351 H1325 0.950 . S
C1351 C1350 1.414 . S
C1351 C1352 1.374 . S
C1352 H1326 0.950 . S
C1352 C1348 1.385 . S
C1352 C1351 1.374 . S
C1353 C1350 1.499 . S
C1353 C1354 1.373 . S
C1353 C1355 1.389 . S
C1354 H1327 0.950 . S
C1354 C1340 1.377 . S
C1354 C1353 1.373 . S
C1355 C1339 1.377 . S
C1355 C1353 1.389 . S
C1355 C1356 1.524 . S
C1356 C1355 1.524 . S
C1356 C1357 1.397 . S
C1356 C1361 1.363 . S
C1357 H1328 0.950 . S
C1357 C1356 1.397 . S
C1357 C1358 1.334 . S
C1358 H1329 0.950 . S
C1358 C1357 1.334 . S
C1358 C1359 1.287 . S
C1359 C1358 1.287 . S
C1359 C1360 1.524 . S
C1359 H1362 0.999 . S
C1360 H1330 0.950 . S
C1360 C1359 1.524 . S
C1360 C1361 1.415 . S
C1361 H1331 0.950 . S
C1361 C1356 1.363 . S
C1361 C1360 1.415 . S
H1362 C1359 0.999 . S
H1363 C1344 0.913 . S
H1364 C1382 0.951 1_565 S
H1365 C1384 0.951 . S
H1366 C1386 0.950 . S
H1367 C1387 0.950 . S
H1368 C1389 0.950 . S
H1369 C1392 0.950 1_545 S
H1370 C1393 0.950 . S
H1371 C1395 0.950 . S
H1372 C1396 0.950 . S
H1373 C1397 0.951 . S
H1374 C1399 0.951 . S
H1375 C1401 0.950 . S
H1376 C1402 0.950 . S
H1377 C1404 0.950 . S
H1378 C1407 0.950 . S
H1379 C1408 0.950 . S
H1380 C1410 0.950 . S
H1381 C1411 0.950 . S
C1382 H1364 0.951 1_545 S
C1382 C1383 1.366 . S
C1382 C1384 1.388 . S
C1383 C1382 1.366 . S
C1383 C1387 1.385 . S
C1384 H1365 0.951 . S
C1384 C1382 1.388 . S
C1384 C1385 1.366 . S
C1385 C1384 1.366 . S
C1385 C1386 1.414 . S
C1385 C1388 1.499 . S
C1386 H1366 0.950 . S
C1386 C1385 1.414 . S
C1386 C1387 1.374 . S
C1387 H1367 0.950 . S
C1387 C1383 1.385 . S
C1387 C1386 1.374 . S
C1388 C1385 1.499 . S
C1388 C1389 1.373 . S
C1388 C1390 1.389 . S
C1389 H1368 0.950 . S
C1389 C1388 1.373 . S
C1389 C1405 1.377 . S
C1390 C1388 1.389 . S
C1390 C1391 1.524 . S
C1390 C1404 1.377 . S
C1391 C1390 1.524 . S
C1391 C1392 1.397 1_545 S
C1391 C1396 1.363 . S
C1392 H1369 0.950 1_565 S
C1392 C1391 1.397 1_565 S
C1392 C1393 1.334 . S
C1393 H1370 0.950 . S
C1393 C1392 1.334 . S
C1393 C1394 1.287 . S
C1394 C1393 1.287 . S
C1394 C1395 1.524 . S
C1394 H1413 0.913 . S
C1395 H1371 0.950 . S
C1395 C1394 1.524 . S
C1395 C1396 1.415 1_565 S
C1396 H1372 0.950 . S
C1396 C1391 1.363 . S
C1396 C1395 1.415 1_545 S
C1397 H1373 0.951 . S
C1397 C1398 1.366 . S
C1397 C1399 1.388 . S
C1398 C1397 1.366 . S
C1398 C1402 1.385 . S
C1399 H1374 0.951 . S
C1399 C1397 1.388 . S
C1399 C1400 1.366 . S
C1400 C1399 1.366 . S
C1400 C1401 1.414 . S
C1400 C1403 1.499 . S
C1401 H1375 0.950 . S
C1401 C1400 1.414 . S
C1401 C1402 1.374 . S
C1402 H1376 0.950 . S
C1402 C1398 1.385 . S
C1402 C1401 1.374 . S
C1403 C1400 1.499 . S
C1403 C1404 1.373 . S
C1403 C1405 1.389 . S
C1404 H1377 0.950 . S
C1404 C1390 1.377 . S
C1404 C1403 1.373 . S
C1405 C1389 1.377 . S
C1405 C1403 1.389 . S
C1405 C1406 1.524 . S
C1406 C1405 1.524 . S
C1406 C1407 1.397 . S
C1406 C1411 1.363 . S
C1407 H1378 0.950 . S
C1407 C1406 1.397 . S
C1407 C1408 1.334 . S
C1408 H1379 0.950 . S
C1408 C1407 1.334 . S
C1408 C1409 1.287 . S
C1409 C1408 1.287 . S
C1409 C1410 1.524 . S
C1409 H1412 0.999 . S
C1410 H1380 0.950 . S
C1410 C1409 1.524 . S
C1410 C1411 1.415 . S
C1411 H1381 0.950 . S
C1411 C1406 1.363 . S
C1411 C1410 1.415 . S
H1412 C1409 0.999 . S
H1413 C1394 0.913 . S
H1414 C1432 0.951 . S
H1415 C1434 0.951 . S
H1416 C1436 0.950 . S
H1417 C1437 0.950 . S
H1418 C1439 0.950 . S
H1419 C1442 0.950 . S
H1420 C1443 0.950 . S
H1421 C1445 0.950 . S
H1422 C1446 0.950 . S
H1423 C1447 0.951 . S
H1424 C1449 0.951 . S
H1425 C1451 0.950 . S
H1426 C1452 0.950 . S
H1427 C1454 0.950 . S
H1428 C1457 0.950 . S
H1429 C1458 0.950 . S
H1430 C1460 0.950 . S
H1431 C1461 0.950 . S
C1432 H1414 0.951 . S
C1432 C1433 1.366 . S
C1432 C1434 1.388 . S
C1433 C1432 1.366 . S
C1433 C1437 1.385 . S
C1434 H1415 0.951 . S
C1434 C1432 1.388 . S
C1434 C1435 1.366 . S
C1435 C1434 1.366 . S
C1435 C1436 1.414 . S
C1435 C1438 1.499 . S
C1436 H1416 0.950 . S
C1436 C1435 1.414 . S
C1436 C1437 1.374 . S
C1437 H1417 0.950 . S
C1437 C1433 1.385 . S
C1437 C1436 1.374 . S
C1438 C1435 1.499 . S
C1438 C1439 1.373 . S
C1438 C1440 1.389 . S
C1439 H1418 0.950 . S
C1439 C1438 1.373 . S
C1439 C1455 1.377 . S
C1440 C1438 1.389 . S
C1440 C1441 1.524 . S
C1440 C1454 1.377 . S
C1441 C1440 1.524 . S
C1441 C1442 1.397 . S
C1441 C1446 1.363 . S
C1442 H1419 0.950 . S
C1442 C1441 1.397 . S
C1442 C1443 1.334 . S
C1443 H1420 0.950 . S
C1443 C1442 1.334 . S
C1443 C1444 1.287 . S
C1444 C1443 1.287 . S
C1444 C1445 1.524 . S
C1444 H1463 0.913 . S
C1445 H1421 0.950 . S
C1445 C1444 1.524 . S
C1445 C1446 1.415 . S
C1446 H1422 0.950 . S
C1446 C1441 1.363 . S
C1446 C1445 1.415 . S
C1447 H1423 0.951 . S
C1447 C1448 1.366 . S
C1447 C1449 1.388 . S
C1448 C1447 1.366 . S
C1448 C1452 1.385 . S
C1449 H1424 0.951 . S
C1449 C1447 1.388 . S
C1449 C1450 1.366 . S
C1450 C1449 1.366 . S
C1450 C1451 1.414 . S
C1450 C1453 1.499 . S
C1451 H1425 0.950 . S
C1451 C1450 1.414 . S
C1451 C1452 1.374 . S
C1452 H1426 0.950 . S
C1452 C1448 1.385 . S
C1452 C1451 1.374 . S
C1453 C1450 1.499 . S
C1453 C1454 1.373 . S
C1453 C1455 1.389 . S
C1454 H1427 0.950 . S
C1454 C1440 1.377 . S
C1454 C1453 1.373 . S
C1455 C1439 1.377 . S
C1455 C1453 1.389 . S
C1455 C1456 1.524 . S
C1456 C1455 1.524 . S
C1456 C1457 1.397 . S
C1456 C1461 1.363 . S
C1457 H1428 0.950 . S
C1457 C1456 1.397 . S
C1457 C1458 1.334 . S
C1458 H1429 0.950 . S
C1458 C1457 1.334 . S
C1458 C1459 1.287 . S
C1459 C1458 1.287 . S
C1459 C1460 1.524 . S
C1459 H1462 0.999 . S
C1460 H1430 0.950 . S
C1460 C1459 1.524 . S
C1460 C1461 1.415 . S
C1461 H1431 0.950 . S
C1461 C1456 1.363 . S
C1461 C1460 1.415 . S
H1462 C1459 0.999 . S
H1463 C1444 0.913 . S
H1464 C1482 0.951 . S
H1465 C1484 0.951 1_565 S
H1466 C1486 0.950 . S
H1467 C1487 0.950 . S
H1468 C1489 0.950 . S
H1469 C1492 0.950 . S
H1470 C1493 0.950 . S
H1471 C1495 0.950 . S
H1472 C1496 0.950 . S
H1473 C1497 0.951 . S
H1474 C1499 0.951 . S
H1475 C1501 0.950 . S
H1476 C1502 0.950 . S
H1477 C1504 0.950 . S
H1478 C1507 0.950 . S
H1479 C1508 0.950 . S
H1480 C1510 0.950 . S
H1481 C1511 0.950 . S
C1482 H1464 0.951 . S
C1482 C1483 1.366 . S
C1482 C1484 1.369 1_565 S
C1483 C1482 1.366 . S
C1483 C1487 1.385 1_565 S
C1484 H1465 0.951 1_545 S
C1484 C1482 1.369 1_545 S
C1484 C1485 1.385 . S
C1485 C1484 1.385 . S
C1485 C1486 1.414 . S
C1485 C1488 1.499 . S
C1486 H1466 0.950 . S
C1486 C1485 1.414 . S
C1486 C1487 1.374 . S
C1487 H1467 0.950 . S
C1487 C1483 1.385 1_545 S
C1487 C1486 1.374 . S
C1488 C1485 1.499 . S
C1488 C1489 1.373 . S
C1488 C1490 1.389 . S
C1489 H1468 0.950 . S
C1489 C1488 1.373 . S
C1489 C1505 1.377 . S
C1490 C1488 1.389 . S
C1490 C1491 1.524 . S
C1490 C1504 1.377 . S
C1491 C1490 1.524 . S
C1491 C1492 1.397 . S
C1491 C1496 1.363 . S
C1492 H1469 0.950 . S
C1492 C1491 1.397 . S
C1492 C1493 1.334 . S
C1493 H1470 0.950 . S
C1493 C1492 1.334 . S
C1493 C1494 1.287 . S
C1494 C1493 1.287 . S
C1494 C1495 1.524 . S
C1494 H1513 0.913 . S
C1495 H1471 0.950 . S
C1495 C1494 1.524 . S
C1495 C1496 1.415 . S
C1496 H1472 0.950 . S
C1496 C1491 1.363 . S
C1496 C1495 1.415 . S
C1497 H1473 0.951 . S
C1497 C1498 1.366 . S
C1497 C1499 1.388 . S
C1498 C1497 1.366 . S
C1498 C1502 1.385 . S
C1499 H1474 0.951 . S
C1499 C1497 1.388 . S
C1499 C1500 1.366 . S
C1500 C1499 1.366 . S
C1500 C1501 1.414 . S
C1500 C1503 1.499 . S
C1501 H1475 0.950 . S
C1501 C1500 1.414 . S
C1501 C1502 1.374 . S
C1502 H1476 0.950 . S
C1502 C1498 1.385 . S
C1502 C1501 1.374 . S
C1503 C1500 1.499 . S
C1503 C1504 1.373 . S
C1503 C1505 1.389 . S
C1504 H1477 0.950 . S
C1504 C1490 1.377 . S
C1504 C1503 1.373 . S
C1505 C1489 1.377 . S
C1505 C1503 1.389 . S
C1505 C1506 1.524 . S
C1506 C1505 1.524 . S
C1506 C1507 1.397 . S
C1506 C1511 1.363 . S
C1507 H1478 0.950 . S
C1507 C1506 1.397 . S
C1507 C1508 1.334 . S
C1508 H1479 0.950 . S
C1508 C1507 1.334 . S
C1508 C1509 1.287 . S
C1509 C1508 1.287 . S
C1509 C1510 1.524 . S
C1509 H1512 0.999 . S
C1510 H1480 0.950 . S
C1510 C1509 1.524 . S
C1510 C1511 1.415 . S
C1511 H1481 0.950 . S
C1511 C1506 1.363 . S
C1511 C1510 1.415 . S
H1512 C1509 0.999 . S
H1513 C1494 0.913 . S
H1514 C1532 0.951 . S
H1515 C1534 0.951 . S
H1516 C1536 0.950 . S
H1517 C1537 0.950 . S
H1518 C1539 0.950 . S
H1519 C1542 0.950 . S
H1520 C1543 0.950 . S
H1521 C1545 0.950 . S
H1522 C1546 0.950 . S
H1523 C1547 0.951 . S
H1524 C1549 0.951 . S
H1525 C1551 0.950 . S
H1526 C1552 0.950 . S
H1527 C1554 0.950 . S
H1528 C1557 0.950 . S
H1529 C1558 0.950 . S
H1530 C1560 0.950 . S
H1531 C1561 0.950 . S
C1532 H1514 0.951 . S
C1532 C1533 1.366 . S
C1532 C1534 1.388 . S
C1533 C1532 1.366 . S
C1533 C1537 1.385 . S
C1534 H1515 0.951 . S
C1534 C1532 1.388 . S
C1534 C1535 1.366 . S
C1535 C1534 1.366 . S
C1535 C1536 1.414 . S
C1535 C1538 1.499 . S
C1536 H1516 0.950 . S
C1536 C1535 1.414 . S
C1536 C1537 1.374 . S
C1537 H1517 0.950 . S
C1537 C1533 1.385 . S
C1537 C1536 1.374 . S
C1538 C1535 1.499 . S
C1538 C1539 1.373 . S
C1538 C1540 1.389 . S
C1539 H1518 0.950 . S
C1539 C1538 1.373 . S
C1539 C1555 1.377 . S
C1540 C1538 1.389 . S
C1540 C1541 1.524 . S
C1540 C1554 1.377 . S
C1541 C1540 1.524 . S
C1541 C1542 1.397 . S
C1541 C1546 1.363 . S
C1542 H1519 0.950 . S
C1542 C1541 1.397 . S
C1542 C1543 1.334 . S
C1543 H1520 0.950 . S
C1543 C1542 1.334 . S
C1543 C1544 1.287 . S
C1544 C1543 1.287 . S
C1544 C1545 1.524 . S
C1544 H1563 0.913 . S
C1545 H1521 0.950 . S
C1545 C1544 1.524 . S
C1545 C1546 1.415 . S
C1546 H1522 0.950 . S
C1546 C1541 1.363 . S
C1546 C1545 1.415 . S
C1547 H1523 0.951 . S
C1547 C1548 1.366 . S
C1547 C1549 1.388 . S
C1548 C1547 1.366 . S
C1548 C1552 1.385 . S
C1549 H1524 0.951 . S
C1549 C1547 1.388 . S
C1549 C1550 1.366 . S
C1550 C1549 1.366 . S
C1550 C1551 1.414 . S
C1550 C1553 1.499 . S
C1551 H1525 0.950 . S
C1551 C1550 1.414 . S
C1551 C1552 1.374 . S
C1552 H1526 0.950 . S
C1552 C1548 1.385 . S
C1552 C1551 1.374 . S
C1553 C1550 1.499 . S
C1553 C1554 1.373 . S
C1553 C1555 1.389 . S
C1554 H1527 0.950 . S
C1554 C1540 1.377 . S
C1554 C1553 1.373 . S
C1555 C1539 1.377 . S
C1555 C1553 1.389 . S
C1555 C1556 1.524 . S
C1556 C1555 1.524 . S
C1556 C1557 1.397 . S
C1556 C1561 1.363 . S
C1557 H1528 0.950 . S
C1557 C1556 1.397 . S
C1557 C1558 1.334 . S
C1558 H1529 0.950 . S
C1558 C1557 1.334 . S
C1558 C1559 1.287 . S
C1559 C1558 1.287 . S
C1559 C1560 1.524 . S
C1559 H1562 0.999 . S
C1560 H1530 0.950 . S
C1560 C1559 1.524 . S
C1560 C1561 1.415 . S
C1561 H1531 0.950 . S
C1561 C1556 1.363 . S
C1561 C1560 1.415 . S
H1562 C1559 0.999 . S
H1563 C1544 0.913 . S
H1564 C1582 0.951 . S
H1565 C1584 0.951 . S
H1566 C1586 0.950 . S
H1567 C1587 0.950 . S
H1568 C1589 0.950 . S
H1569 C1592 0.950 . S
H1570 C1593 0.950 . S
H1571 C1595 0.950 . S
H1572 C1596 0.950 . S
H1573 C1597 0.951 . S
H1574 C1599 0.951 . S
H1575 C1601 0.950 . S
H1576 C1602 0.950 . S
H1577 C1604 0.950 . S
H1578 C1607 0.950 . S
H1579 C1608 0.950 . S
H1580 C1610 0.950 . S
H1581 C1611 0.950 . S
C1582 H1564 0.951 . S
C1582 C1583 1.366 . S
C1582 C1584 1.388 . S
C1583 C1582 1.366 . S
C1583 C1587 1.385 . S
C1584 H1565 0.951 . S
C1584 C1582 1.388 . S
C1584 C1585 1.366 . S
C1585 C1584 1.366 . S
C1585 C1586 1.414 . S
C1585 C1588 1.499 . S
C1586 H1566 0.950 . S
C1586 C1585 1.414 . S
C1586 C1587 1.374 . S
C1587 H1567 0.950 . S
C1587 C1583 1.385 . S
C1587 C1586 1.374 . S
C1588 C1585 1.499 . S
C1588 C1589 1.373 . S
C1588 C1590 1.389 . S
C1589 H1568 0.950 . S
C1589 C1588 1.373 . S
C1589 C1605 1.377 . S
C1590 C1588 1.389 . S
C1590 C1591 1.524 . S
C1590 C1604 1.377 . S
C1591 C1590 1.524 . S
C1591 C1592 1.397 . S
C1591 C1596 1.363 . S
C1592 H1569 0.950 . S
C1592 C1591 1.397 . S
C1592 C1593 1.334 . S
C1593 H1570 0.950 . S
C1593 C1592 1.334 . S
C1593 C1594 1.287 . S
C1594 C1593 1.287 . S
C1594 C1595 1.524 . S
C1594 H1613 0.913 . S
C1595 H1571 0.950 . S
C1595 C1594 1.524 . S
C1595 C1596 1.415 . S
C1596 H1572 0.950 . S
C1596 C1591 1.363 . S
C1596 C1595 1.415 . S
C1597 H1573 0.951 . S
C1597 C1598 1.366 . S
C1597 C1599 1.388 . S
C1598 C1597 1.366 . S
C1598 C1602 1.385 . S
C1599 H1574 0.951 . S
C1599 C1597 1.388 . S
C1599 C1600 1.366 . S
C1600 C1599 1.366 . S
C1600 C1601 1.414 . S
C1600 C1603 1.499 . S
C1601 H1575 0.950 . S
C1601 C1600 1.414 . S
C1601 C1602 1.374 . S
C1602 H1576 0.950 . S
C1602 C1598 1.385 . S
C1602 C1601 1.374 . S
C1603 C1600 1.499 . S
C1603 C1604 1.373 . S
C1603 C1605 1.389 . S
C1604 H1577 0.950 . S
C1604 C1590 1.377 . S
C1604 C1603 1.373 . S
C1605 C1589 1.377 . S
C1605 C1603 1.389 . S
C1605 C1606 1.524 . S
C1606 C1605 1.524 . S
C1606 C1607 1.397 . S
C1606 C1611 1.363 . S
C1607 H1578 0.950 . S
C1607 C1606 1.397 . S
C1607 C1608 1.334 . S
C1608 H1579 0.950 . S
C1608 C1607 1.334 . S
C1608 C1609 1.287 . S
C1609 C1608 1.287 . S
C1609 C1610 1.524 . S
C1609 H1612 0.999 . S
C1610 H1580 0.950 . S
C1610 C1609 1.524 . S
C1610 C1611 1.415 . S
C1611 H1581 0.950 . S
C1611 C1606 1.363 . S
C1611 C1610 1.415 . S
H1612 C1609 0.999 . S
H1613 C1594 0.913 . S
H1614 C1632 0.951 . S
H1615 C1634 0.951 . S
H1616 C1636 0.950 . S
H1617 C1637 0.950 . S
H1618 C1639 0.950 . S
H1619 C1642 0.950 . S
H1620 C1643 0.950 . S
H1621 C1645 0.950 . S
H1622 C1646 0.950 . S
H1623 C1647 0.951 . S
H1624 C1649 0.951 . S
H1625 C1651 0.950 . S
H1626 C1652 0.958 . S
H1627 C1654 0.950 1_565 S
H1628 C1657 0.950 . S
H1629 C1658 0.950 . S
H1630 C1660 0.950 . S
H1631 C1661 0.950 . S
C1632 H1614 0.951 . S
C1632 C1633 1.366 . S
C1632 C1634 1.388 . S
C1633 C1632 1.366 . S
C1633 C1637 1.385 . S
C1634 H1615 0.951 . S
C1634 C1632 1.388 . S
C1634 C1635 1.366 . S
C1635 C1634 1.366 . S
C1635 C1636 1.414 . S
C1635 C1638 1.499 . S
C1636 H1616 0.950 . S
C1636 C1635 1.414 . S
C1636 C1637 1.374 . S
C1637 H1617 0.950 . S
C1637 C1633 1.385 . S
C1637 C1636 1.374 . S
C1638 C1635 1.499 . S
C1638 C1639 1.373 . S
C1638 C1640 1.389 . S
C1639 H1618 0.950 . S
C1639 C1638 1.373 . S
C1639 C1655 1.377 . S
C1640 C1638 1.389 . S
C1640 C1641 1.524 1_545 S
C1640 C1654 1.377 . S
C1641 C1640 1.524 1_565 S
C1641 C1642 1.397 . S
C1641 C1646 1.363 . S
C1642 H1619 0.950 . S
C1642 C1641 1.397 . S
C1642 C1643 1.334 . S
C1643 H1620 0.950 . S
C1643 C1642 1.334 . S
C1643 C1644 1.287 . S
C1644 C1643 1.287 . S
C1644 C1645 1.524 . S
C1644 H1663 0.913 . S
C1645 H1621 0.950 . S
C1645 C1644 1.524 . S
C1645 C1646 1.415 . S
C1646 H1622 0.950 . S
C1646 C1641 1.363 . S
C1646 C1645 1.415 . S
C1647 H1623 0.951 . S
C1647 C1648 1.366 . S
C1647 C1649 1.388 . S
C1648 C1647 1.366 . S
C1648 C1652 1.385 . S
C1649 H1624 0.951 . S
C1649 C1647 1.388 . S
C1649 C1650 1.366 . S
C1650 C1649 1.366 . S
C1650 C1651 1.414 . S
C1650 C1653 1.499 . S
C1651 H1625 0.950 . S
C1651 C1650 1.414 . S
C1651 C1652 1.374 . S
C1652 H1626 0.958 . S
C1652 C1648 1.385 . S
C1652 C1651 1.374 . S
C1653 C1650 1.499 . S
C1653 C1654 1.373 . S
C1653 C1655 1.389 . S
C1654 H1627 0.950 1_545 S
C1654 C1640 1.377 . S
C1654 C1653 1.373 . S
C1655 C1639 1.377 . S
C1655 C1653 1.389 . S
C1655 C1656 1.524 . S
C1656 C1655 1.524 . S
C1656 C1657 1.397 . S
C1656 C1661 1.363 . S
C1657 H1628 0.950 . S
C1657 C1656 1.397 . S
C1657 C1658 1.334 . S
C1658 H1629 0.950 . S
C1658 C1657 1.334 . S
C1658 C1659 1.287 . S
C1659 C1658 1.287 . S
C1659 C1660 1.524 . S
C1659 H1662 0.999 . S
C1660 H1630 0.950 . S
C1660 C1659 1.524 . S
C1660 C1661 1.415 . S
C1661 H1631 0.950 . S
C1661 C1656 1.363 . S
C1661 C1660 1.415 . S
H1662 C1659 0.999 . S
H1663 C1644 0.913 . S
H1664 C1682 0.951 . S
H1665 C1684 0.951 . S
H1666 C1686 0.950 . S
H1667 C1687 0.950 . S
H1668 C1689 0.950 . S
H1669 C1692 0.950 . S
H1670 C1693 0.950 . S
H1671 C1695 0.950 . S
H1672 C1696 0.950 . S
H1673 C1697 0.951 . S
H1674 C1699 0.951 . S
H1675 C1701 0.950 . S
H1676 C1702 0.950 . S
H1677 C1704 0.950 . S
H1678 C1707 0.950 . S
H1679 C1708 0.950 . S
H1680 C1710 0.950 . S
H1681 C1711 0.950 . S
C1682 H1664 0.951 . S
C1682 C1683 1.366 . S
C1682 C1684 1.388 . S
C1683 C1682 1.366 . S
C1683 C1687 1.385 . S
C1684 H1665 0.951 . S
C1684 C1682 1.388 . S
C1684 C1685 1.366 . S
C1685 C1684 1.366 . S
C1685 C1686 1.414 . S
C1685 C1688 1.499 . S
C1686 H1666 0.950 . S
C1686 C1685 1.414 . S
C1686 C1687 1.374 . S
C1687 H1667 0.950 . S
C1687 C1683 1.385 . S
C1687 C1686 1.374 . S
C1688 C1685 1.499 . S
C1688 C1689 1.373 . S
C1688 C1690 1.389 . S
C1689 H1668 0.950 . S
C1689 C1688 1.373 . S
C1689 C1705 1.377 . S
C1690 C1688 1.389 . S
C1690 C1691 1.524 . S
C1690 C1704 1.377 . S
C1691 C1690 1.524 . S
C1691 C1692 1.397 . S
C1691 C1696 1.363 . S
C1692 H1669 0.950 . S
C1692 C1691 1.397 . S
C1692 C1693 1.334 . S
C1693 H1670 0.950 . S
C1693 C1692 1.334 . S
C1693 C1694 1.287 . S
C1694 C1693 1.287 . S
C1694 C1695 1.524 . S
C1694 H1713 0.913 . S
C1695 H1671 0.950 . S
C1695 C1694 1.524 . S
C1695 C1696 1.415 . S
C1696 H1672 0.950 . S
C1696 C1691 1.363 . S
C1696 C1695 1.415 . S
C1697 H1673 0.951 . S
C1697 C1698 1.366 . S
C1697 C1699 1.388 . S
C1698 C1697 1.366 . S
C1698 C1702 1.385 . S
C1699 H1674 0.951 . S
C1699 C1697 1.388 . S
C1699 C1700 1.366 . S
C1700 C1699 1.366 . S
C1700 C1701 1.414 . S
C1700 C1703 1.499 . S
C1701 H1675 0.950 . S
C1701 C1700 1.414 . S
C1701 C1702 1.374 . S
C1702 H1676 0.950 . S
C1702 C1698 1.385 . S
C1702 C1701 1.374 . S
C1703 C1700 1.499 . S
C1703 C1704 1.373 . S
C1703 C1705 1.389 . S
C1704 H1677 0.950 . S
C1704 C1690 1.377 . S
C1704 C1703 1.373 . S
C1705 C1689 1.377 . S
C1705 C1703 1.389 . S
C1705 C1706 1.524 . S
C1706 C1705 1.524 . S
C1706 C1707 1.397 . S
C1706 C1711 1.363 . S
C1707 H1678 0.950 . S
C1707 C1706 1.397 . S
C1707 C1708 1.334 . S
C1708 H1679 0.950 . S
C1708 C1707 1.334 . S
C1708 C1709 1.287 . S
C1709 C1708 1.287 . S
C1709 C1710 1.524 . S
C1709 H1712 0.999 . S
C1710 H1680 0.950 . S
C1710 C1709 1.524 . S
C1710 C1711 1.415 . S
C1711 H1681 0.950 . S
C1711 C1706 1.363 . S
C1711 C1710 1.415 . S
H1712 C1709 0.999 . S
H1713 C1694 0.913 . S
H1714 C1732 0.951 . S
H1715 C1734 0.951 . S
H1716 C1736 0.950 . S
H1717 C1737 0.950 . S
H1718 C1739 0.950 . S
H1719 C1742 0.950 . S
H1720 C1743 0.950 . S
H1721 C1745 0.950 . S
H1722 C1746 0.950 . S
H1723 C1747 0.951 . S
H1724 C1749 0.951 . S
H1725 C1751 0.950 . S
H1726 C1752 0.950 . S
H1727 C1754 0.950 . S
H1728 C1757 0.950 . S
H1729 C1758 0.950 . S
H1730 C1760 0.950 . S
H1731 C1761 0.950 . S
C1732 H1714 0.951 . S
C1732 C1733 1.366 . S
C1732 C1734 1.388 . S
C1733 C1732 1.366 . S
C1733 C1737 1.385 . S
C1734 H1715 0.951 . S
C1734 C1732 1.388 . S
C1734 C1735 1.366 . S
C1735 C1734 1.366 . S
C1735 C1736 1.414 . S
C1735 C1738 1.499 . S
C1736 H1716 0.950 . S
C1736 C1735 1.414 . S
C1736 C1737 1.374 . S
C1737 H1717 0.950 . S
C1737 C1733 1.385 . S
C1737 C1736 1.374 . S
C1738 C1735 1.499 . S
C1738 C1739 1.373 . S
C1738 C1740 1.389 . S
C1739 H1718 0.950 . S
C1739 C1738 1.373 . S
C1739 C1755 1.377 . S
C1740 C1738 1.389 . S
C1740 C1741 1.524 . S
C1740 C1754 1.377 . S
C1741 C1740 1.524 . S
C1741 C1742 1.397 . S
C1741 C1746 1.363 . S
C1742 H1719 0.950 . S
C1742 C1741 1.397 . S
C1742 C1743 1.334 . S
C1743 H1720 0.950 . S
C1743 C1742 1.334 . S
C1743 C1744 1.287 . S
C1744 C1743 1.287 . S
C1744 C1745 1.524 . S
C1744 H1763 0.913 . S
C1745 H1721 0.950 . S
C1745 C1744 1.524 . S
C1745 C1746 1.415 . S
C1746 H1722 0.950 . S
C1746 C1741 1.363 . S
C1746 C1745 1.415 . S
C1747 H1723 0.951 . S
C1747 C1748 1.366 . S
C1747 C1749 1.388 . S
C1748 C1747 1.366 . S
C1748 C1752 1.385 . S
C1749 H1724 0.951 . S
C1749 C1747 1.388 . S
C1749 C1750 1.366 . S
C1750 C1749 1.366 . S
C1750 C1751 1.414 . S
C1750 C1753 1.499 . S
C1751 H1725 0.950 . S
C1751 C1750 1.414 . S
C1751 C1752 1.374 . S
C1752 H1726 0.950 . S
C1752 C1748 1.385 . S
C1752 C1751 1.374 . S
C1753 C1750 1.499 . S
C1753 C1754 1.373 . S
C1753 C1755 1.389 . S
C1754 H1727 0.950 . S
C1754 C1740 1.377 . S
C1754 C1753 1.373 . S
C1755 C1739 1.377 . S
C1755 C1753 1.389 . S
C1755 C1756 1.524 . S
C1756 C1755 1.524 . S
C1756 C1757 1.397 . S
C1756 C1761 1.363 . S
C1757 H1728 0.950 . S
C1757 C1756 1.397 . S
C1757 C1758 1.334 . S
C1758 H1729 0.950 . S
C1758 C1757 1.334 . S
C1758 C1759 1.287 . S
C1759 C1758 1.287 . S
C1759 C1760 1.524 . S
C1759 H1762 0.999 . S
C1760 H1730 0.950 . S
C1760 C1759 1.524 . S
C1760 C1761 1.415 . S
C1761 H1731 0.950 . S
C1761 C1756 1.363 . S
C1761 C1760 1.415 . S
H1762 C1759 0.999 . S
H1763 C1744 0.913 . S
H1764 C1782 0.951 . S
H1765 C1784 0.951 . S
H1766 C1786 0.950 . S
H1767 C1787 0.950 . S
H1768 C1789 0.950 . S
H1769 C1792 0.950 . S
H1770 C1793 0.950 . S
H1771 C1795 0.950 . S
H1772 C1796 0.950 . S
H1773 C1797 0.951 . S
H1774 C1799 0.951 . S
H1775 C1801 0.950 . S
H1776 C1802 0.950 . S
H1777 C1804 0.950 . S
H1778 C1807 0.950 . S
H1779 C1808 0.950 . S
H1780 C1810 0.950 . S
H1781 C1811 0.950 . S
C1782 H1764 0.951 . S
C1782 C1783 1.366 . S
C1782 C1784 1.388 . S
C1783 C1782 1.366 . S
C1783 C1787 1.385 . S
C1784 H1765 0.951 . S
C1784 C1782 1.388 . S
C1784 C1785 1.366 . S
C1785 C1784 1.366 . S
C1785 C1786 1.414 . S
C1785 C1788 1.499 . S
C1786 H1766 0.950 . S
C1786 C1785 1.414 . S
C1786 C1787 1.374 . S
C1787 H1767 0.950 . S
C1787 C1783 1.385 . S
C1787 C1786 1.374 . S
C1788 C1785 1.499 . S
C1788 C1789 1.373 . S
C1788 C1790 1.389 . S
C1789 H1768 0.950 . S
C1789 C1788 1.373 . S
C1789 C1805 1.377 . S
C1790 C1788 1.389 . S
C1790 C1791 1.524 . S
C1790 C1804 1.377 . S
C1791 C1790 1.524 . S
C1791 C1792 1.397 . S
C1791 C1796 1.363 . S
C1792 H1769 0.950 . S
C1792 C1791 1.397 . S
C1792 C1793 1.334 . S
C1793 H1770 0.950 . S
C1793 C1792 1.334 . S
C1793 C1794 1.287 . S
C1794 C1793 1.287 . S
C1794 C1795 1.524 . S
C1794 H1813 0.913 . S
C1795 H1771 0.950 . S
C1795 C1794 1.524 . S
C1795 C1796 1.415 . S
C1796 H1772 0.950 . S
C1796 C1791 1.363 . S
C1796 C1795 1.415 . S
C1797 H1773 0.951 . S
C1797 C1798 1.366 . S
C1797 C1799 1.388 . S
C1798 C1797 1.366 . S
C1798 C1802 1.385 . S
C1799 H1774 0.951 . S
C1799 C1797 1.388 . S
C1799 C1800 1.366 . S
C1800 C1799 1.366 . S
C1800 C1801 1.414 . S
C1800 C1803 1.499 . S
C1801 H1775 0.950 . S
C1801 C1800 1.414 . S
C1801 C1802 1.374 . S
C1802 H1776 0.950 . S
C1802 C1798 1.385 . S
C1802 C1801 1.374 . S
C1803 C1800 1.499 . S
C1803 C1804 1.373 . S
C1803 C1805 1.389 . S
C1804 H1777 0.950 . S
C1804 C1790 1.377 . S
C1804 C1803 1.373 . S
C1805 C1789 1.377 . S
C1805 C1803 1.389 . S
C1805 C1806 1.524 . S
C1806 C1805 1.524 . S
C1806 C1807 1.397 . S
C1806 C1811 1.363 . S
C1807 H1778 0.950 . S
C1807 C1806 1.397 . S
C1807 C1808 1.334 . S
C1808 H1779 0.950 . S
C1808 C1807 1.334 . S
C1808 C1809 1.287 . S
C1809 C1808 1.287 . S
C1809 C1810 1.524 . S
C1809 H1812 0.999 . S
C1810 H1780 0.950 . S
C1810 C1809 1.524 . S
C1810 C1811 1.415 . S
C1811 H1781 0.950 . S
C1811 C1806 1.363 . S
C1811 C1810 1.415 . S
H1812 C1809 0.999 . S
H1813 C1794 0.913 . S
H1814 C1832 0.951 . S
H1815 C1834 0.951 . S
H1816 C1836 0.950 . S
H1817 C1837 0.950 . S
H1818 C1839 0.950 . S
H1819 C1842 0.950 . S
H1820 C1843 0.950 . S
H1821 C1845 0.950 1_565 S
H1822 C1846 0.950 . S
H1823 C1847 0.951 . S
H1824 C1849 0.951 . S
H1825 C1851 0.950 . S
H1826 C1852 0.950 . S
H1827 C1854 0.950 . S
H1828 C1857 0.950 . S
H1829 C1858 0.950 . S
H1830 C1860 0.963 . S
H1831 C1861 0.950 . S
C1832 H1814 0.951 . S
C1832 C1833 1.366 1_655 S
C1832 C1834 1.388 . S
C1833 C1832 1.366 1_455 S
C1833 C1837 1.385 . S
C1834 H1815 0.951 . S
C1834 C1832 1.388 . S
C1834 C1835 1.366 . S
C1835 C1834 1.366 . S
C1835 C1836 1.414 . S
C1835 C1838 1.499 . S
C1836 H1816 0.950 . S
C1836 C1835 1.414 . S
C1836 C1837 1.374 1_655 S
C1837 H1817 0.950 . S
C1837 C1833 1.385 . S
C1837 C1836 1.374 1_455 S
C1838 C1835 1.499 . S
C1838 C1839 1.373 . S
C1838 C1840 1.389 . S
C1839 H1818 0.950 . S
C1839 C1838 1.373 . S
C1839 C1855 1.377 . S
C1840 C1838 1.389 . S
C1840 C1841 1.524 . S
C1840 C1854 1.377 . S
C1841 C1840 1.524 . S
C1841 C1842 1.397 . S
C1841 C1846 1.363 . S
C1842 H1819 0.950 . S
C1842 C1841 1.397 . S
C1842 C1843 1.334 . S
C1843 H1820 0.950 . S
C1843 C1842 1.334 . S
C1843 C1844 1.287 . S
C1844 C1843 1.287 . S
C1844 C1845 1.524 . S
C1844 H1863 0.913 . S
C1845 H1821 0.950 1_545 S
C1845 C1844 1.524 . S
C1845 C1846 1.415 . S
C1846 H1822 0.950 . S
C1846 C1841 1.363 . S
C1846 C1845 1.415 . S
C1847 H1823 0.951 . S
C1847 C1848 1.366 . S
C1847 C1849 1.388 . S
C1848 C1847 1.366 . S
C1848 C1852 1.385 . S
C1849 H1824 0.951 . S
C1849 C1847 1.388 . S
C1849 C1850 1.366 . S
C1850 C1849 1.366 . S
C1850 C1851 1.414 . S
C1850 C1853 1.499 . S
C1851 H1825 0.950 . S
C1851 C1850 1.414 . S
C1851 C1852 1.374 . S
C1852 H1826 0.950 . S
C1852 C1848 1.385 . S
C1852 C1851 1.374 . S
C1853 C1850 1.499 . S
C1853 C1854 1.373 . S
C1853 C1855 1.389 . S
C1854 H1827 0.950 . S
C1854 C1840 1.377 . S
C1854 C1853 1.373 . S
C1855 C1839 1.377 . S
C1855 C1853 1.389 . S
C1855 C1856 1.524 . S
C1856 C1855 1.524 . S
C1856 C1857 1.397 . S
C1856 C1861 1.363 . S
C1857 H1828 0.950 . S
C1857 C1856 1.397 . S
C1857 C1858 1.334 . S
C1858 H1829 0.950 . S
C1858 C1857 1.334 . S
C1858 C1859 1.287 . S
C1859 C1858 1.287 . S
C1859 C1860 1.523 1_655 S
C1859 H1862 0.999 1_655 S
C1860 H1830 0.963 . S
C1860 C1859 1.523 1_455 S
C1860 C1861 1.401 1_455 S
C1861 H1831 0.950 . S
C1861 C1856 1.363 . S
C1861 C1860 1.401 1_655 S
H1862 C1859 0.999 1_455 S
H1863 C1844 0.913 . S
H1864 C1882 0.951 . S
H1865 C1884 0.951 . S
H1866 C1886 0.950 . S
H1867 C1887 0.950 . S
H1868 C1889 0.950 . S
H1869 C1892 0.950 . S
H1870 C1893 0.950 . S
H1871 C1895 0.950 . S
H1872 C1896 0.950 . S
H1873 C1897 0.951 . S
H1874 C1899 0.951 . S
H1875 C1901 0.950 . S
H1876 C1902 0.950 . S
H1877 C1904 0.950 . S
H1878 C1907 0.950 . S
H1879 C1908 0.950 . S
H1880 C1910 0.950 . S
H1881 C1911 0.950 . S
C1882 H1864 0.951 . S
C1882 C1883 1.366 . S
C1882 C1884 1.388 . S
C1883 C1882 1.366 . S
C1883 C1887 1.385 . S
C1884 H1865 0.951 . S
C1884 C1882 1.388 . S
C1884 C1885 1.366 . S
C1885 C1884 1.366 . S
C1885 C1886 1.414 . S
C1885 C1888 1.499 . S
C1886 H1866 0.950 . S
C1886 C1885 1.414 . S
C1886 C1887 1.374 . S
C1887 H1867 0.950 . S
C1887 C1883 1.385 . S
C1887 C1886 1.374 . S
C1888 C1885 1.499 . S
C1888 C1889 1.373 . S
C1888 C1890 1.389 . S
C1889 H1868 0.950 . S
C1889 C1888 1.373 . S
C1889 C1905 1.377 . S
C1890 C1888 1.389 . S
C1890 C1891 1.524 . S
C1890 C1904 1.377 . S
C1891 C1890 1.524 . S
C1891 C1892 1.397 . S
C1891 C1896 1.363 . S
C1892 H1869 0.950 . S
C1892 C1891 1.397 . S
C1892 C1893 1.334 . S
C1893 H1870 0.950 . S
C1893 C1892 1.334 . S
C1893 C1894 1.287 . S
C1894 C1893 1.287 . S
C1894 C1895 1.524 . S
C1894 H1913 0.913 . S
C1895 H1871 0.950 . S
C1895 C1894 1.524 . S
C1895 C1896 1.415 . S
C1896 H1872 0.950 . S
C1896 C1891 1.363 . S
C1896 C1895 1.415 . S
C1897 H1873 0.951 . S
C1897 C1898 1.366 . S
C1897 C1899 1.388 . S
C1898 C1897 1.366 . S
C1898 C1902 1.385 . S
C1899 H1874 0.951 . S
C1899 C1897 1.388 . S
C1899 C1900 1.366 . S
C1900 C1899 1.366 . S
C1900 C1901 1.414 . S
C1900 C1903 1.499 . S
C1901 H1875 0.950 . S
C1901 C1900 1.414 . S
C1901 C1902 1.374 . S
C1902 H1876 0.950 . S
C1902 C1898 1.385 . S
C1902 C1901 1.374 . S
C1903 C1900 1.499 . S
C1903 C1904 1.373 . S
C1903 C1905 1.389 . S
C1904 H1877 0.950 . S
C1904 C1890 1.377 . S
C1904 C1903 1.373 . S
C1905 C1889 1.377 . S
C1905 C1903 1.389 . S
C1905 C1906 1.524 . S
C1906 C1905 1.524 . S
C1906 C1907 1.397 . S
C1906 C1911 1.363 . S
C1907 H1878 0.950 . S
C1907 C1906 1.397 . S
C1907 C1908 1.334 . S
C1908 H1879 0.950 . S
C1908 C1907 1.334 . S
C1908 C1909 1.287 . S
C1909 C1908 1.287 . S
C1909 C1910 1.524 . S
C1909 H1912 0.999 . S
C1910 H1880 0.950 . S
C1910 C1909 1.524 . S
C1910 C1911 1.415 . S
C1911 H1881 0.950 . S
C1911 C1906 1.363 . S
C1911 C1910 1.415 . S
H1912 C1909 0.999 . S
H1913 C1894 0.913 . S
H1914 C1932 0.951 . S
H1915 C1934 0.951 . S
H1916 C1936 0.950 . S
H1917 C1937 0.950 . S
H1918 C1939 0.950 . S
H1919 C1942 0.950 . S
H1920 C1943 0.950 1_655 S
H1921 C1945 0.950 . S
H1922 C1946 0.950 . S
H1923 C1947 0.951 . S
H1924 C1949 0.951 . S
H1925 C1951 0.950 . S
H1926 C1952 0.950 . S
H1927 C1954 0.950 . S
H1928 C1957 0.950 . S
H1929 C1958 0.950 . S
H1930 C1960 0.950 . S
H1931 C1961 0.950 . S
C1932 H1914 0.951 . S
C1932 C1933 1.366 . S
C1932 C1934 1.388 . S
C1933 C1932 1.366 . S
C1933 C1937 1.385 1_455 S
C1934 H1915 0.951 . S
C1934 C1932 1.388 . S
C1934 C1935 1.366 . S
C1935 C1934 1.366 . S
C1935 C1936 1.414 . S
C1935 C1938 1.499 . S
C1936 H1916 0.950 . S
C1936 C1935 1.414 . S
C1936 C1937 1.374 1_455 S
C1937 H1917 0.950 . S
C1937 C1933 1.385 1_655 S
C1937 C1936 1.374 1_655 S
C1938 C1935 1.499 . S
C1938 C1939 1.373 . S
C1938 C1940 1.389 . S
C1939 H1918 0.950 . S
C1939 C1938 1.373 . S
C1939 C1955 1.377 . S
C1940 C1938 1.389 . S
C1940 C1941 1.524 . S
C1940 C1954 1.377 . S
C1941 C1940 1.524 . S
C1941 C1942 1.397 . S
C1941 C1946 1.363 . S
C1942 H1919 0.950 . S
C1942 C1941 1.397 . S
C1942 C1943 1.334 . S
C1943 H1920 0.950 1_455 S
C1943 C1942 1.334 . S
C1943 C1944 1.287 . S
C1944 C1943 1.287 . S
C1944 C1945 1.524 . S
C1944 H1963 0.913 . S
C1945 H1921 0.950 . S
C1945 C1944 1.524 . S
C1945 C1946 1.415 . S
C1946 H1922 0.950 . S
C1946 C1941 1.363 . S
C1946 C1945 1.415 . S
C1947 H1923 0.951 . S
C1947 C1948 1.366 . S
C1947 C1949 1.388 . S
C1948 C1947 1.366 . S
C1948 C1952 1.385 . S
C1949 H1924 0.951 . S
C1949 C1947 1.388 . S
C1949 C1950 1.366 . S
C1950 C1949 1.366 . S
C1950 C1951 1.414 . S
C1950 C1953 1.499 . S
C1951 H1925 0.950 . S
C1951 C1950 1.414 . S
C1951 C1952 1.374 . S
C1952 H1926 0.950 . S
C1952 C1948 1.385 . S
C1952 C1951 1.374 . S
C1953 C1950 1.499 . S
C1953 C1954 1.373 . S
C1953 C1955 1.389 . S
C1954 H1927 0.950 . S
C1954 C1940 1.377 . S
C1954 C1953 1.373 . S
C1955 C1939 1.377 . S
C1955 C1953 1.389 . S
C1955 C1956 1.524 . S
C1956 C1955 1.524 . S
C1956 C1957 1.397 . S
C1956 C1961 1.363 . S
C1957 H1928 0.950 . S
C1957 C1956 1.397 . S
C1957 C1958 1.334 . S
C1958 H1929 0.950 . S
C1958 C1957 1.334 . S
C1958 C1959 1.287 . S
C1959 C1958 1.287 . S
C1959 C1960 1.524 . S
C1959 H1962 0.999 . S
C1960 H1930 0.950 . S
C1960 C1959 1.524 . S
C1960 C1961 1.415 . S
C1961 H1931 0.950 . S
C1961 C1956 1.363 . S
C1961 C1960 1.415 . S
H1962 C1959 0.999 . S
H1963 C1944 0.913 . S
H1964 C1982 0.951 . S
H1965 C1984 0.951 . S
H1966 C1986 0.950 . S
H1967 C1987 0.950 . S
H1968 C1989 0.950 . S
H1969 C1992 0.950 . S
H1970 C1993 0.950 . S
H1971 C1995 0.950 . S
H1972 C1996 0.950 . S
H1973 C1997 0.951 . S
H1974 C1999 0.951 . S
H1975 C2001 0.950 . S
H1976 C2002 0.950 . S
H1977 C2004 0.950 . S
H1978 C2007 0.950 . S
H1979 C2008 0.950 . S
H1980 C2010 0.950 . S
H1981 C2011 0.950 . S
C1982 H1964 0.951 . S
C1982 C1983 1.366 . S
C1982 C1984 1.388 . S
C1983 C1982 1.366 . S
C1983 C1987 1.385 . S
C1984 H1965 0.951 . S
C1984 C1982 1.388 . S
C1984 C1985 1.366 . S
C1985 C1984 1.366 . S
C1985 C1986 1.414 . S
C1985 C1988 1.499 . S
C1986 H1966 0.950 . S
C1986 C1985 1.414 . S
C1986 C1987 1.374 . S
C1987 H1967 0.950 . S
C1987 C1983 1.385 . S
C1987 C1986 1.374 . S
C1988 C1985 1.499 . S
C1988 C1989 1.373 . S
C1988 C1990 1.389 . S
C1989 H1968 0.950 . S
C1989 C1988 1.373 . S
C1989 C2005 1.377 . S
C1990 C1988 1.389 . S
C1990 C1991 1.524 . S
C1990 C2004 1.377 . S
C1991 C1990 1.524 . S
C1991 C1992 1.397 . S
C1991 C1996 1.363 . S
C1992 H1969 0.950 . S
C1992 C1991 1.397 . S
C1992 C1993 1.334 . S
C1993 H1970 0.950 . S
C1993 C1992 1.334 . S
C1993 C1994 1.287 . S
C1994 C1993 1.287 . S
C1994 C1995 1.524 . S
C1994 H2013 0.913 . S
C1995 H1971 0.950 . S
C1995 C1994 1.524 . S
C1995 C1996 1.415 . S
C1996 H1972 0.950 . S
C1996 C1991 1.363 . S
C1996 C1995 1.415 . S
C1997 H1973 0.951 . S
C1997 C1998 1.366 . S
C1997 C1999 1.388 . S
C1998 C1997 1.366 . S
C1998 C2002 1.385 . S
C1999 H1974 0.951 . S
C1999 C1997 1.388 . S
C1999 C2000 1.366 . S
C2000 C1999 1.366 . S
C2000 C2001 1.414 . S
C2000 C2003 1.499 . S
C2001 H1975 0.950 . S
C2001 C2000 1.414 . S
C2001 C2002 1.374 . S
C2002 H1976 0.950 . S
C2002 C1998 1.385 . S
C2002 C2001 1.374 . S
C2003 C2000 1.499 . S
C2003 C2004 1.373 . S
C2003 C2005 1.389 . S
C2004 H1977 0.950 . S
C2004 C1990 1.377 . S
C2004 C2003 1.373 . S
C2005 C1989 1.377 . S
C2005 C2003 1.389 . S
C2005 C2006 1.524 . S
C2006 C2005 1.524 . S
C2006 C2007 1.397 . S
C2006 C2011 1.363 . S
C2007 H1978 0.950 . S
C2007 C2006 1.397 . S
C2007 C2008 1.334 . S
C2008 H1979 0.950 . S
C2008 C2007 1.334 . S
C2008 C2009 1.287 . S
C2009 C2008 1.287 . S
C2009 C2010 1.524 . S
C2009 H2012 0.999 . S
C2010 H1980 0.950 . S
C2010 C2009 1.524 . S
C2010 C2011 1.415 . S
C2011 H1981 0.950 . S
C2011 C2006 1.363 . S
C2011 C2010 1.415 . S
H2012 C2009 0.999 . S
H2013 C1994 0.913 . S
H2014 C2032 0.951 . S
H2015 C2034 0.951 . S
H2016 C2036 0.950 1_455 S
H2017 C2037 0.950 1_455 S
H2018 C2039 0.950 . S
H2019 C2042 0.950 1_455 S
H2020 C2043 0.950 1_455 S
H2021 C2045 0.950 . S
H2022 C2046 0.950 . S
H2023 C2047 0.951 . S
H2024 C2049 0.951 . S
H2025 C2051 0.950 . S
H2026 C2052 0.950 . S
H2027 C2054 0.950 . S
H2028 C2057 0.950 . S
H2029 C2058 0.950 . S
H2030 C2060 0.950 . S
H2031 C2061 0.950 . S
C2032 H2014 0.951 . S
C2032 C2033 1.366 . S
C2032 C2034 1.388 . S
C2033 C2032 1.366 . S
C2033 C2037 1.385 . S
C2034 H2015 0.951 . S
C2034 C2032 1.388 . S
C2034 C2035 1.366 1_554 S
C2035 C2034 1.366 1_556 S
C2035 C2036 1.414 . S
C2035 C2038 1.499 . S
C2036 H2016 0.950 1_655 S
C2036 C2035 1.414 . S
C2036 C2037 1.374 1_556 S
C2037 H2017 0.950 1_655 S
C2037 C2033 1.385 . S
C2037 C2036 1.374 1_554 S
C2038 C2035 1.499 . S
C2038 C2039 1.373 . S
C2038 C2040 1.389 . S
C2039 H2018 0.950 . S
C2039 C2038 1.373 . S
C2039 C2055 1.377 . S
C2040 C2038 1.389 . S
C2040 C2041 1.524 1_556 S
C2040 C2054 1.377 . S
C2041 C2040 1.524 1_554 S
C2041 C2042 1.397 . S
C2041 C2046 1.363 . S
C2042 H2019 0.950 1_655 S
C2042 C2041 1.397 . S
C2042 C2043 1.334 . S
C2043 H2020 0.950 1_655 S
C2043 C2042 1.334 . S
C2043 C2044 1.287 . S
C2044 C2043 1.287 . S
C2044 C2045 1.524 . S
C2044 H2063 0.913 . S
C2045 H2021 0.950 . S
C2045 C2044 1.524 . S
C2045 C2046 1.415 . S
C2046 H2022 0.950 . S
C2046 C2041 1.363 . S
C2046 C2045 1.415 . S
C2047 H2023 0.951 . S
C2047 C2048 1.366 1_455 S
C2047 C2049 1.388 . S
C2048 C2047 1.366 1_655 S
C2048 C2052 1.385 . S
C2049 H2024 0.951 . S
C2049 C2047 1.388 . S
C2049 C2050 1.366 1_455 S
C2050 C2049 1.366 1_655 S
C2050 C2051 1.414 . S
C2050 C2053 1.499 . S
C2051 H2025 0.950 . S
C2051 C2050 1.414 . S
C2051 C2052 1.374 . S
C2052 H2026 0.950 . S
C2052 C2048 1.385 . S
C2052 C2051 1.374 . S
C2053 C2050 1.499 . S
C2053 C2054 1.373 . S
C2053 C2055 1.389 . S
C2054 H2027 0.950 . S
C2054 C2040 1.377 . S
C2054 C2053 1.373 . S
C2055 C2039 1.377 . S
C2055 C2053 1.389 . S
C2055 C2056 1.524 . S
C2056 C2055 1.524 . S
C2056 C2057 1.397 . S
C2056 C2061 1.363 1_655 S
C2057 H2028 0.950 . S
C2057 C2056 1.397 . S
C2057 C2058 1.334 . S
C2058 H2029 0.950 . S
C2058 C2057 1.334 . S
C2058 C2059 1.287 . S
C2059 C2058 1.287 . S
C2059 C2060 1.524 1_655 S
C2059 H2062 0.999 . S
C2060 H2030 0.950 . S
C2060 C2059 1.524 1_455 S
C2060 C2061 1.415 . S
C2061 H2031 0.950 . S
C2061 C2056 1.363 1_455 S
C2061 C2060 1.415 . S
H2062 C2059 0.999 . S
H2063 C2044 0.913 . S
H2064 C2082 0.951 . S
H2065 C2084 0.951 . S
H2066 C2086 0.950 . S
H2067 C2087 0.950 . S
H2068 C2089 0.950 . S
H2069 C2092 0.950 . S
H2070 C2093 0.950 . S
H2071 C2095 0.950 . S
H2072 C2096 0.950 . S
H2073 C2097 0.951 . S
H2074 C2099 0.951 . S
H2075 C2101 0.950 . S
H2076 C2102 0.950 . S
H2077 C2104 0.950 . S
H2078 C2107 0.950 . S
H2079 C2108 0.950 . S
H2080 C2110 0.950 . S
H2081 C2111 0.950 . S
C2082 H2064 0.951 . S
C2082 C2083 1.366 . S
C2082 C2084 1.388 . S
C2083 C2082 1.366 . S
C2083 C2087 1.385 . S
C2084 H2065 0.951 . S
C2084 C2082 1.388 . S
C2084 C2085 1.366 . S
C2085 C2084 1.366 . S
C2085 C2086 1.414 . S
C2085 C2088 1.499 . S
C2086 H2066 0.950 . S
C2086 C2085 1.414 . S
C2086 C2087 1.374 . S
C2087 H2067 0.950 . S
C2087 C2083 1.385 . S
C2087 C2086 1.374 . S
C2088 C2085 1.499 . S
C2088 C2089 1.373 . S
C2088 C2090 1.389 . S
C2089 H2068 0.950 . S
C2089 C2088 1.373 . S
C2089 C2105 1.377 . S
C2090 C2088 1.389 . S
C2090 C2091 1.524 . S
C2090 C2104 1.377 . S
C2091 C2090 1.524 . S
C2091 C2092 1.397 . S
C2091 C2096 1.363 . S
C2092 H2069 0.950 . S
C2092 C2091 1.397 . S
C2092 C2093 1.334 . S
C2093 H2070 0.950 . S
C2093 C2092 1.334 . S
C2093 C2094 1.287 . S
C2094 C2093 1.287 . S
C2094 C2095 1.524 . S
C2094 H2113 0.913 . S
C2095 H2071 0.950 . S
C2095 C2094 1.524 . S
C2095 C2096 1.415 . S
C2096 H2072 0.950 . S
C2096 C2091 1.363 . S
C2096 C2095 1.415 . S
C2097 H2073 0.951 . S
C2097 C2098 1.366 . S
C2097 C2099 1.388 . S
C2098 C2097 1.366 . S
C2098 C2102 1.385 . S
C2099 H2074 0.951 . S
C2099 C2097 1.388 . S
C2099 C2100 1.366 . S
C2100 C2099 1.366 . S
C2100 C2101 1.414 . S
C2100 C2103 1.499 . S
C2101 H2075 0.950 . S
C2101 C2100 1.414 . S
C2101 C2102 1.374 . S
C2102 H2076 0.950 . S
C2102 C2098 1.385 . S
C2102 C2101 1.374 . S
C2103 C2100 1.499 . S
C2103 C2104 1.373 . S
C2103 C2105 1.389 . S
C2104 H2077 0.950 . S
C2104 C2090 1.377 . S
C2104 C2103 1.373 . S
C2105 C2089 1.377 . S
C2105 C2103 1.389 . S
C2105 C2106 1.524 . S
C2106 C2105 1.524 . S
C2106 C2107 1.397 . S
C2106 C2111 1.363 . S
C2107 H2078 0.950 . S
C2107 C2106 1.397 . S
C2107 C2108 1.334 . S
C2108 H2079 0.950 . S
C2108 C2107 1.334 . S
C2108 C2109 1.287 . S
C2109 C2108 1.287 . S
C2109 C2110 1.524 . S
C2109 H2112 0.999 . S
C2110 H2080 0.950 . S
C2110 C2109 1.524 . S
C2110 C2111 1.415 . S
C2111 H2081 0.950 . S
C2111 C2106 1.363 . S
C2111 C2110 1.415 . S
H2112 C2109 0.999 . S
H2113 C2094 0.913 . S
H2114 C2132 0.957 . S
H2115 C2134 0.951 1_655 S
H2116 C2136 0.950 . S
H2117 C2137 0.950 . S
H2118 C2139 0.950 . S
H2119 C2142 0.950 . S
H2120 C2143 0.950 . S
H2121 C2145 0.950 . S
H2122 C2146 0.950 1_655 S
H2123 C2147 0.951 . S
H2124 C2149 0.951 . S
H2125 C2151 0.950 . S
H2126 C2152 0.950 . S
H2127 C2154 0.950 . S
H2128 C2157 0.950 . S
H2129 C2158 0.950 . S
H2130 C2160 0.950 . S
H2131 C2161 0.947 1_554 S
C2132 H2114 0.957 . S
C2132 C2133 1.366 1_556 S
C2132 C2134 1.388 . S
C2133 C2132 1.366 1_554 S
C2133 C2137 1.385 . S
C2134 H2115 0.951 1_455 S
C2134 C2132 1.388 . S
C2134 C2135 1.366 . S
C2135 C2134 1.366 . S
C2135 C2136 1.414 1_556 S
C2135 C2138 1.499 . S
C2136 H2116 0.950 . S
C2136 C2135 1.414 1_554 S
C2136 C2137 1.374 . S
C2137 H2117 0.950 . S
C2137 C2133 1.385 . S
C2137 C2136 1.374 . S
C2138 C2135 1.499 . S
C2138 C2139 1.373 . S
C2138 C2140 1.389 . S
C2139 H2118 0.950 . S
C2139 C2138 1.373 . S
C2139 C2155 1.377 . S
C2140 C2138 1.389 . S
C2140 C2141 1.524 . S
C2140 C2154 1.377 . S
C2141 C2140 1.524 . S
C2141 C2142 1.397 . S
C2141 C2146 1.363 . S
C2142 H2119 0.950 . S
C2142 C2141 1.397 . S
C2142 C2143 1.334 . S
C2143 H2120 0.950 . S
C2143 C2142 1.334 . S
C2143 C2144 1.287 . S
C2144 C2143 1.287 . S
C2144 C2145 1.524 . S
C2144 H2163 0.913 . S
C2145 H2121 0.950 . S
C2145 C2144 1.524 . S
C2145 C2146 1.415 . S
C2146 H2122 0.950 1_455 S
C2146 C2141 1.363 . S
C2146 C2145 1.415 . S
C2147 H2123 0.951 . S
C2147 C2148 1.366 . S
C2147 C2149 1.388 . S
C2148 C2147 1.366 . S
C2148 C2152 1.385 1_455 S
C2149 H2124 0.951 . S
C2149 C2147 1.388 . S
C2149 C2150 1.366 . S
C2150 C2149 1.366 . S
C2150 C2151 1.414 1_455 S
C2150 C2153 1.499 . S
C2151 H2125 0.950 . S
C2151 C2150 1.414 1_655 S
C2151 C2152 1.374 . S
C2152 H2126 0.950 . S
C2152 C2148 1.385 1_655 S
C2152 C2151 1.374 . S
C2153 C2150 1.499 . S
C2153 C2154 1.373 . S
C2153 C2155 1.389 . S
C2154 H2127 0.950 . S
C2154 C2140 1.377 . S
C2154 C2153 1.373 . S
C2155 C2139 1.377 . S
C2155 C2153 1.389 . S
C2155 C2156 1.524 . S
C2156 C2155 1.524 . S
C2156 C2157 1.397 1_455 S
C2156 C2161 1.378 . S
C2157 H2128 0.950 . S
C2157 C2156 1.397 1_655 S
C2157 C2158 1.334 . S
C2158 H2129 0.950 . S
C2158 C2157 1.334 . S
C2158 C2159 1.287 1_556 S
C2159 C2158 1.287 1_554 S
C2159 C2160 1.524 1_655 S
C2159 H2162 0.999 . S
C2160 H2130 0.950 . S
C2160 C2159 1.524 1_455 S
C2160 C2161 1.403 1_554 S
C2161 H2131 0.947 1_556 S
C2161 C2156 1.378 . S
C2161 C2160 1.403 1_556 S
H2162 C2159 0.999 . S
H2163 C2144 0.913 . S
H2164 C2182 0.951 . S
H2165 C2184 0.951 . S
H2166 C2186 0.950 . S
H2167 C2187 0.950 . S
H2168 C2189 0.950 . S
H2169 C2192 0.950 . S
H2170 C2193 0.950 . S
H2171 C2195 0.950 . S
H2172 C2196 0.950 . S
H2173 C2197 0.951 . S
H2174 C2199 0.951 . S
H2175 C2201 0.950 . S
H2176 C2202 0.950 . S
H2177 C2204 0.950 . S
H2178 C2207 0.950 . S
H2179 C2208 0.950 . S
H2180 C2210 0.950 . S
H2181 C2211 0.950 . S
C2182 H2164 0.951 . S
C2182 C2183 1.366 . S
C2182 C2184 1.388 . S
C2183 C2182 1.366 . S
C2183 C2187 1.385 . S
C2184 H2165 0.951 . S
C2184 C2182 1.388 . S
C2184 C2185 1.366 . S
C2185 C2184 1.366 . S
C2185 C2186 1.414 . S
C2185 C2188 1.499 . S
C2186 H2166 0.950 . S
C2186 C2185 1.414 . S
C2186 C2187 1.374 . S
C2187 H2167 0.950 . S
C2187 C2183 1.385 . S
C2187 C2186 1.374 . S
C2188 C2185 1.499 . S
C2188 C2189 1.373 . S
C2188 C2190 1.389 . S
C2189 H2168 0.950 . S
C2189 C2188 1.373 . S
C2189 C2205 1.377 . S
C2190 C2188 1.389 . S
C2190 C2191 1.524 . S
C2190 C2204 1.377 . S
C2191 C2190 1.524 . S
C2191 C2192 1.397 . S
C2191 C2196 1.363 . S
C2192 H2169 0.950 . S
C2192 C2191 1.397 . S
C2192 C2193 1.334 . S
C2193 H2170 0.950 . S
C2193 C2192 1.334 . S
C2193 C2194 1.287 . S
C2194 C2193 1.287 . S
C2194 C2195 1.524 . S
C2194 H2213 0.913 . S
C2195 H2171 0.950 . S
C2195 C2194 1.524 . S
C2195 C2196 1.415 . S
C2196 H2172 0.950 . S
C2196 C2191 1.363 . S
C2196 C2195 1.415 . S
C2197 H2173 0.951 . S
C2197 C2198 1.366 . S
C2197 C2199 1.388 . S
C2198 C2197 1.366 . S
C2198 C2202 1.385 . S
C2199 H2174 0.951 . S
C2199 C2197 1.388 . S
C2199 C2200 1.366 . S
C2200 C2199 1.366 . S
C2200 C2201 1.414 . S
C2200 C2203 1.499 . S
C2201 H2175 0.950 . S
C2201 C2200 1.414 . S
C2201 C2202 1.374 . S
C2202 H2176 0.950 . S
C2202 C2198 1.385 . S
C2202 C2201 1.374 . S
C2203 C2200 1.499 . S
C2203 C2204 1.373 . S
C2203 C2205 1.389 . S
C2204 H2177 0.950 . S
C2204 C2190 1.377 . S
C2204 C2203 1.373 . S
C2205 C2189 1.377 . S
C2205 C2203 1.389 . S
C2205 C2206 1.524 . S
C2206 C2205 1.524 . S
C2206 C2207 1.397 . S
C2206 C2211 1.363 . S
C2207 H2178 0.950 . S
C2207 C2206 1.397 . S
C2207 C2208 1.334 . S
C2208 H2179 0.950 . S
C2208 C2207 1.334 . S
C2208 C2209 1.287 . S
C2209 C2208 1.287 . S
C2209 C2210 1.524 . S
C2209 H2212 0.999 . S
C2210 H2180 0.950 . S
C2210 C2209 1.524 . S
C2210 C2211 1.415 . S
C2211 H2181 0.950 . S
C2211 C2206 1.363 . S
C2211 C2210 1.415 . S
H2212 C2209 0.999 . S
H2213 C2194 0.913 . S
H2214 C2232 0.951 . S
H2215 C2234 0.951 . S
H2216 C2236 0.950 . S
H2217 C2237 0.944 . S
H2218 C2239 0.950 . S
H2219 C2242 0.950 . S
H2220 C2243 0.950 . S
H2221 C2245 0.950 . S
H2222 C2246 0.950 1_554 S
H2223 C2247 0.951 . S
H2224 C2249 0.951 . S
H2225 C2251 0.950 . S
H2226 C2252 0.950 . S
H2227 C2254 0.950 . S
H2228 C2257 0.950 . S
H2229 C2258 0.950 . S
H2230 C2260 0.950 . S
H2231 C2261 0.950 . S
C2232 H2214 0.951 . S
C2232 C2233 1.366 . S
C2232 C2234 1.388 . S
C2233 C2232 1.366 . S
C2233 C2237 1.430 . S
C2234 H2215 0.951 . S
C2234 C2232 1.388 . S
C2234 C2235 1.366 1_556 S
C2235 C2234 1.366 1_554 S
C2235 C2236 1.414 . S
C2235 C2238 1.499 . S
C2236 H2216 0.950 . S
C2236 C2235 1.414 . S
C2236 C2237 1.337 1_554 S
C2237 H2217 0.944 . S
C2237 C2233 1.430 . S
C2237 C2236 1.337 1_556 S
C2238 C2235 1.499 . S
C2238 C2239 1.373 . S
C2238 C2240 1.389 . S
C2239 H2218 0.950 . S
C2239 C2238 1.373 . S
C2239 C2255 1.377 . S
C2240 C2238 1.389 . S
C2240 C2241 1.524 . S
C2240 C2254 1.377 . S
C2241 C2240 1.524 . S
C2241 C2242 1.397 1_554 S
C2241 C2246 1.363 1_554 S
C2242 H2219 0.950 . S
C2242 C2241 1.397 1_556 S
C2242 C2243 1.334 . S
C2243 H2220 0.950 . S
C2243 C2242 1.334 . S
C2243 C2244 1.287 . S
C2244 C2243 1.287 . S
C2244 C2245 1.524 . S
C2244 H2263 0.913 . S
C2245 H2221 0.950 . S
C2245 C2244 1.524 . S
C2245 C2246 1.415 . S
C2246 H2222 0.950 1_556 S
C2246 C2241 1.363 1_556 S
C2246 C2245 1.415 . S
C2247 H2223 0.951 . S
C2247 C2248 1.366 . S
C2247 C2249 1.388 . S
C2248 C2247 1.366 . S
C2248 C2252 1.385 . S
C2249 H2224 0.951 . S
C2249 C2247 1.388 . S
C2249 C2250 1.366 . S
C2250 C2249 1.366 . S
C2250 C2251 1.414 . S
C2250 C2253 1.499 . S
C2251 H2225 0.950 . S
C2251 C2250 1.414 . S
C2251 C2252 1.374 . S
C2252 H2226 0.950 . S
C2252 C2248 1.385 . S
C2252 C2251 1.374 . S
C2253 C2250 1.499 . S
C2253 C2254 1.373 . S
C2253 C2255 1.389 . S
C2254 H2227 0.950 . S
C2254 C2240 1.377 . S
C2254 C2253 1.373 . S
C2255 C2239 1.377 . S
C2255 C2253 1.389 . S
C2255 C2256 1.524 . S
C2256 C2255 1.524 . S
C2256 C2257 1.397 . S
C2256 C2261 1.363 . S
C2257 H2228 0.950 . S
C2257 C2256 1.397 . S
C2257 C2258 1.334 . S
C2258 H2229 0.950 . S
C2258 C2257 1.334 . S
C2258 C2259 1.287 . S
C2259 C2258 1.287 . S
C2259 C2260 1.524 . S
C2259 H2262 0.999 . S
C2260 H2230 0.950 . S
C2260 C2259 1.524 . S
C2260 C2261 1.415 . S
C2261 H2231 0.950 . S
C2261 C2256 1.363 . S
C2261 C2260 1.415 . S
H2262 C2259 0.999 . S
H2263 C2244 0.913 . S
H2264 C2282 0.951 . S
H2265 C2284 0.951 . S
H2266 C2286 0.950 . S
H2267 C2287 0.950 . S
H2268 C2289 0.950 . S
H2269 C2292 0.950 . S
H2270 C2293 0.950 . S
H2271 C2295 0.950 . S
H2272 C2296 0.950 . S
H2273 C2297 0.951 . S
H2274 C2299 0.951 . S
H2275 C2301 0.950 . S
H2276 C2302 0.950 . S
H2277 C2304 0.950 . S
H2278 C2307 0.950 . S
H2279 C2308 0.950 . S
H2280 C2310 0.950 . S
H2281 C2311 0.950 . S
C2282 H2264 0.951 . S
C2282 C2283 1.366 . S
C2282 C2284 1.388 . S
C2283 C2282 1.366 . S
C2283 C2287 1.385 . S
C2284 H2265 0.951 . S
C2284 C2282 1.388 . S
C2284 C2285 1.366 . S
C2285 C2284 1.366 . S
C2285 C2286 1.414 . S
C2285 C2288 1.499 . S
C2286 H2266 0.950 . S
C2286 C2285 1.414 . S
C2286 C2287 1.374 . S
C2287 H2267 0.950 . S
C2287 C2283 1.385 . S
C2287 C2286 1.374 . S
C2288 C2285 1.499 . S
C2288 C2289 1.373 . S
C2288 C2290 1.389 . S
C2289 H2268 0.950 . S
C2289 C2288 1.373 . S
C2289 C2305 1.377 . S
C2290 C2288 1.389 . S
C2290 C2291 1.524 . S
C2290 C2304 1.377 . S
C2291 C2290 1.524 . S
C2291 C2292 1.397 . S
C2291 C2296 1.363 . S
C2292 H2269 0.950 . S
C2292 C2291 1.397 . S
C2292 C2293 1.334 . S
C2293 H2270 0.950 . S
C2293 C2292 1.334 . S
C2293 C2294 1.287 . S
C2294 C2293 1.287 . S
C2294 C2295 1.524 . S
C2294 H2313 0.913 . S
C2295 H2271 0.950 . S
C2295 C2294 1.524 . S
C2295 C2296 1.415 . S
C2296 H2272 0.950 . S
C2296 C2291 1.363 . S
C2296 C2295 1.415 . S
C2297 H2273 0.951 . S
C2297 C2298 1.366 . S
C2297 C2299 1.388 . S
C2298 C2297 1.366 . S
C2298 C2302 1.385 . S
C2299 H2274 0.951 . S
C2299 C2297 1.388 . S
C2299 C2300 1.366 . S
C2300 C2299 1.366 . S
C2300 C2301 1.414 . S
C2300 C2303 1.499 . S
C2301 H2275 0.950 . S
C2301 C2300 1.414 . S
C2301 C2302 1.374 . S
C2302 H2276 0.950 . S
C2302 C2298 1.385 . S
C2302 C2301 1.374 . S
C2303 C2300 1.499 . S
C2303 C2304 1.373 . S
C2303 C2305 1.389 . S
C2304 H2277 0.950 . S
C2304 C2290 1.377 . S
C2304 C2303 1.373 . S
C2305 C2289 1.377 . S
C2305 C2303 1.389 . S
C2305 C2306 1.524 . S
C2306 C2305 1.524 . S
C2306 C2307 1.397 . S
C2306 C2311 1.363 . S
C2307 H2278 0.950 . S
C2307 C2306 1.397 . S
C2307 C2308 1.334 . S
C2308 H2279 0.950 . S
C2308 C2307 1.334 . S
C2308 C2309 1.287 . S
C2309 C2308 1.287 . S
C2309 C2310 1.524 . S
C2309 H2312 0.999 . S
C2310 H2280 0.950 . S
C2310 C2309 1.524 . S
C2310 C2311 1.415 . S
C2311 H2281 0.950 . S
C2311 C2306 1.363 . S
C2311 C2310 1.415 . S
H2312 C2309 0.999 . S
H2313 C2294 0.913 . S
H2314 C2332 0.951 . S
H2315 C2334 0.951 . S
H2316 C2336 0.950 . S
H2317 C2337 0.950 1_556 S
H2318 C2339 0.950 . S
H2319 C2342 0.950 . S
H2320 C2343 0.950 . S
H2321 C2345 0.950 . S
H2322 C2346 0.950 . S
H2323 C2347 0.951 . S
H2324 C2349 0.951 . S
H2325 C2351 0.950 . S
H2326 C2352 0.950 . S
H2327 C2354 0.950 . S
H2328 C2357 0.950 . S
H2329 C2358 0.950 . S
H2330 C2360 0.950 . S
H2331 C2361 0.950 . S
C2332 H2314 0.951 . S
C2332 C2333 1.366 . S
C2332 C2334 1.388 . S
C2333 C2332 1.366 . S
C2333 C2337 1.385 . S
C2334 H2315 0.951 . S
C2334 C2332 1.388 . S
C2334 C2335 1.366 . S
C2335 C2334 1.366 . S
C2335 C2336 1.414 . S
C2335 C2338 1.499 . S
C2336 H2316 0.950 . S
C2336 C2335 1.414 . S
C2336 C2337 1.374 . S
C2337 H2317 0.950 1_554 S
C2337 C2333 1.385 . S
C2337 C2336 1.374 . S
C2338 C2335 1.499 . S
C2338 C2339 1.373 . S
C2338 C2340 1.389 . S
C2339 H2318 0.950 . S
C2339 C2338 1.373 . S
C2339 C2355 1.377 . S
C2340 C2338 1.389 . S
C2340 C2341 1.524 . S
C2340 C2354 1.377 . S
C2341 C2340 1.524 . S
C2341 C2342 1.397 . S
C2341 C2346 1.363 . S
C2342 H2319 0.950 . S
C2342 C2341 1.397 . S
C2342 C2343 1.334 . S
C2343 H2320 0.950 . S
C2343 C2342 1.334 . S
C2343 C2344 1.287 . S
C2344 C2343 1.287 . S
C2344 C2345 1.524 . S
C2344 H2363 0.913 . S
C2345 H2321 0.950 . S
C2345 C2344 1.524 . S
C2345 C2346 1.415 . S
C2346 H2322 0.950 . S
C2346 C2341 1.363 . S
C2346 C2345 1.415 . S
C2347 H2323 0.951 . S
C2347 C2348 1.366 . S
C2347 C2349 1.388 . S
C2348 C2347 1.366 . S
C2348 C2352 1.385 . S
C2349 H2324 0.951 . S
C2349 C2347 1.388 . S
C2349 C2350 1.366 . S
C2350 C2349 1.366 . S
C2350 C2351 1.414 . S
C2350 C2353 1.499 . S
C2351 H2325 0.950 . S
C2351 C2350 1.414 . S
C2351 C2352 1.374 . S
C2352 H2326 0.950 . S
C2352 C2348 1.385 . S
C2352 C2351 1.374 . S
C2353 C2350 1.499 . S
C2353 C2354 1.373 . S
C2353 C2355 1.389 . S
C2354 H2327 0.950 . S
C2354 C2340 1.377 . S
C2354 C2353 1.373 . S
C2355 C2339 1.377 . S
C2355 C2353 1.389 . S
C2355 C2356 1.524 . S
C2356 C2355 1.524 . S
C2356 C2357 1.397 . S
C2356 C2361 1.363 . S
C2357 H2328 0.950 . S
C2357 C2356 1.397 . S
C2357 C2358 1.334 . S
C2358 H2329 0.950 . S
C2358 C2357 1.334 . S
C2358 C2359 1.287 . S
C2359 C2358 1.287 . S
C2359 C2360 1.524 . S
C2359 H2362 0.999 . S
C2360 H2330 0.950 . S
C2360 C2359 1.524 . S
C2360 C2361 1.415 . S
C2361 H2331 0.950 . S
C2361 C2356 1.363 . S
C2361 C2360 1.415 . S
H2362 C2359 0.999 . S
H2363 C2344 0.913 . S
H2364 C2382 0.951 . S
H2365 C2384 0.951 . S
H2366 C2386 0.950 . S
H2367 C2387 0.950 . S
H2368 C2389 0.950 . S
H2369 C2392 0.950 . S
H2370 C2393 0.950 . S
H2371 C2395 0.950 . S
H2372 C2396 0.950 . S
H2373 C2397 0.951 . S
H2374 C2399 0.951 . S
H2375 C2401 0.950 . S
H2376 C2402 0.950 . S
H2377 C2404 0.950 . S
H2378 C2407 0.950 . S
H2379 C2408 0.950 . S
H2380 C2410 0.950 . S
H2381 C2411 0.950 . S
C2382 H2364 0.951 . S
C2382 C2383 1.366 . S
C2382 C2384 1.388 . S
C2383 C2382 1.366 . S
C2383 C2387 1.385 . S
C2384 H2365 0.951 . S
C2384 C2382 1.388 . S
C2384 C2385 1.366 . S
C2385 C2384 1.366 . S
C2385 C2386 1.414 . S
C2385 C2388 1.499 . S
C2386 H2366 0.950 . S
C2386 C2385 1.414 . S
C2386 C2387 1.374 . S
C2387 H2367 0.950 . S
C2387 C2383 1.385 . S
C2387 C2386 1.374 . S
C2388 C2385 1.499 . S
C2388 C2389 1.373 . S
C2388 C2390 1.389 . S
C2389 H2368 0.950 . S
C2389 C2388 1.373 . S
C2389 C2405 1.377 . S
C2390 C2388 1.389 . S
C2390 C2391 1.524 . S
C2390 C2404 1.377 . S
C2391 C2390 1.524 . S
C2391 C2392 1.397 . S
C2391 C2396 1.363 . S
C2392 H2369 0.950 . S
C2392 C2391 1.397 . S
C2392 C2393 1.334 . S
C2393 H2370 0.950 . S
C2393 C2392 1.334 . S
C2393 C2394 1.287 . S
C2394 C2393 1.287 . S
C2394 C2395 1.524 . S
C2394 H2413 0.913 . S
C2395 H2371 0.950 . S
C2395 C2394 1.524 . S
C2395 C2396 1.415 . S
C2396 H2372 0.950 . S
C2396 C2391 1.363 . S
C2396 C2395 1.415 . S
C2397 H2373 0.951 . S
C2397 C2398 1.366 . S
C2397 C2399 1.388 . S
C2398 C2397 1.366 . S
C2398 C2402 1.385 . S
C2399 H2374 0.951 . S
C2399 C2397 1.388 . S
C2399 C2400 1.366 . S
C2400 C2399 1.366 . S
C2400 C2401 1.414 . S
C2400 C2403 1.499 . S
C2401 H2375 0.950 . S
C2401 C2400 1.414 . S
C2401 C2402 1.374 . S
C2402 H2376 0.950 . S
C2402 C2398 1.385 . S
C2402 C2401 1.374 . S
C2403 C2400 1.499 . S
C2403 C2404 1.373 . S
C2403 C2405 1.389 . S
C2404 H2377 0.950 . S
C2404 C2390 1.377 . S
C2404 C2403 1.373 . S
C2405 C2389 1.377 . S
C2405 C2403 1.389 . S
C2405 C2406 1.524 . S
C2406 C2405 1.524 . S
C2406 C2407 1.397 . S
C2406 C2411 1.363 . S
C2407 H2378 0.950 . S
C2407 C2406 1.397 . S
C2407 C2408 1.334 . S
C2408 H2379 0.950 . S
C2408 C2407 1.334 . S
C2408 C2409 1.287 . S
C2409 C2408 1.287 . S
C2409 C2410 1.524 . S
C2409 H2412 0.999 . S
C2410 H2380 0.950 . S
C2410 C2409 1.524 . S
C2410 C2411 1.415 . S
C2411 H2381 0.950 . S
C2411 C2406 1.363 . S
C2411 C2410 1.415 . S
H2412 C2409 0.999 . S
H2413 C2394 0.913 . S
H2414 C2432 0.951 . S
H2415 C2434 0.951 . S
H2416 C2436 0.950 . S
H2417 C2437 0.950 . S
H2418 C2439 0.950 . S
H2419 C2442 0.950 . S
H2420 C2443 0.950 . S
H2421 C2445 0.950 . S
H2422 C2446 0.950 . S
H2423 C2447 0.951 . S
H2424 C2449 0.951 . S
H2425 C2451 0.950 . S
H2426 C2452 0.950 . S
H2427 C2454 0.950 . S
H2428 C2457 0.950 . S
H2429 C2458 0.950 . S
H2430 C2460 0.950 . S
H2431 C2461 0.950 . S
C2432 H2414 0.951 . S
C2432 C2433 1.366 . S
C2432 C2434 1.388 . S
C2433 C2432 1.366 . S
C2433 C2437 1.385 . S
C2434 H2415 0.951 . S
C2434 C2432 1.388 . S
C2434 C2435 1.366 . S
C2435 C2434 1.366 . S
C2435 C2436 1.414 . S
C2435 C2438 1.499 . S
C2436 H2416 0.950 . S
C2436 C2435 1.414 . S
C2436 C2437 1.374 . S
C2437 H2417 0.950 . S
C2437 C2433 1.385 . S
C2437 C2436 1.374 . S
C2438 C2435 1.499 . S
C2438 C2439 1.373 . S
C2438 C2440 1.389 . S
C2439 H2418 0.950 . S
C2439 C2438 1.373 . S
C2439 C2455 1.377 . S
C2440 C2438 1.389 . S
C2440 C2441 1.524 . S
C2440 C2454 1.377 . S
C2441 C2440 1.524 . S
C2441 C2442 1.397 . S
C2441 C2446 1.363 . S
C2442 H2419 0.950 . S
C2442 C2441 1.397 . S
C2442 C2443 1.334 . S
C2443 H2420 0.950 . S
C2443 C2442 1.334 . S
C2443 C2444 1.287 . S
C2444 C2443 1.287 . S
C2444 C2445 1.524 . S
C2444 H2463 0.913 . S
C2445 H2421 0.950 . S
C2445 C2444 1.524 . S
C2445 C2446 1.415 . S
C2446 H2422 0.950 . S
C2446 C2441 1.363 . S
C2446 C2445 1.415 . S
C2447 H2423 0.951 . S
C2447 C2448 1.366 . S
C2447 C2449 1.388 . S
C2448 C2447 1.366 . S
C2448 C2452 1.385 . S
C2449 H2424 0.951 . S
C2449 C2447 1.388 . S
C2449 C2450 1.366 . S
C2450 C2449 1.366 . S
C2450 C2451 1.414 . S
C2450 C2453 1.499 . S
C2451 H2425 0.950 . S
C2451 C2450 1.414 . S
C2451 C2452 1.374 . S
C2452 H2426 0.950 . S
C2452 C2448 1.385 . S
C2452 C2451 1.374 . S
C2453 C2450 1.499 . S
C2453 C2454 1.373 . S
C2453 C2455 1.389 . S
C2454 H2427 0.950 . S
C2454 C2440 1.377 . S
C2454 C2453 1.373 . S
C2455 C2439 1.377 . S
C2455 C2453 1.389 . S
C2455 C2456 1.524 . S
C2456 C2455 1.524 . S
C2456 C2457 1.397 . S
C2456 C2461 1.363 . S
C2457 H2428 0.950 . S
C2457 C2456 1.397 . S
C2457 C2458 1.334 . S
C2458 H2429 0.950 . S
C2458 C2457 1.334 . S
C2458 C2459 1.287 . S
C2459 C2458 1.287 . S
C2459 C2460 1.524 . S
C2459 H2462 0.999 . S
C2460 H2430 0.950 . S
C2460 C2459 1.524 . S
C2460 C2461 1.415 . S
C2461 H2431 0.950 . S
C2461 C2456 1.363 . S
C2461 C2460 1.415 . S
H2462 C2459 0.999 . S
H2463 C2444 0.913 . S
H2464 C2482 0.951 . S
H2465 C2484 0.951 . S
H2466 C2486 0.950 . S
H2467 C2487 0.950 . S
H2468 C2489 0.950 . S
H2469 C2492 0.950 . S
H2470 C2493 0.950 . S
H2471 C2495 0.950 . S
H2472 C2496 0.950 . S
H2473 C2497 0.951 . S
H2474 C2499 0.951 . S
H2475 C2501 0.950 . S
H2476 C2502 0.950 . S
H2477 C2504 0.950 . S
H2478 C2507 0.950 . S
H2479 C2508 0.950 . S
H2480 C2510 0.950 . S
H2481 C2511 0.950 . S
C2482 H2464 0.951 . S
C2482 C2483 1.366 . S
C2482 C2484 1.388 . S
C2483 C2482 1.366 . S
C2483 C2487 1.385 . S
C2484 H2465 0.951 . S
C2484 C2482 1.388 . S
C2484 C2485 1.366 . S
C2485 C2484 1.366 . S
C2485 C2486 1.414 . S
C2485 C2488 1.499 . S
C2486 H2466 0.950 . S
C2486 C2485 1.414 . S
C2486 C2487 1.374 . S
C2487 H2467 0.950 . S
C2487 C2483 1.385 . S
C2487 C2486 1.374 . S
C2488 C2485 1.499 . S
C2488 C2489 1.373 . S
C2488 C2490 1.389 . S
C2489 H2468 0.950 . S
C2489 C2488 1.373 . S
C2489 C2505 1.377 . S
C2490 C2488 1.389 . S
C2490 C2491 1.524 . S
C2490 C2504 1.377 . S
C2491 C2490 1.524 . S
C2491 C2492 1.397 . S
C2491 C2496 1.363 . S
C2492 H2469 0.950 . S
C2492 C2491 1.397 . S
C2492 C2493 1.334 . S
C2493 H2470 0.950 . S
C2493 C2492 1.334 . S
C2493 C2494 1.287 . S
C2494 C2493 1.287 . S
C2494 C2495 1.524 . S
C2494 H2513 0.913 . S
C2495 H2471 0.950 . S
C2495 C2494 1.524 . S
C2495 C2496 1.415 . S
C2496 H2472 0.950 . S
C2496 C2491 1.363 . S
C2496 C2495 1.415 . S
C2497 H2473 0.951 . S
C2497 C2498 1.366 . S
C2497 C2499 1.388 . S
C2498 C2497 1.366 . S
C2498 C2502 1.385 . S
C2499 H2474 0.951 . S
C2499 C2497 1.388 . S
C2499 C2500 1.366 . S
C2500 C2499 1.366 . S
C2500 C2501 1.414 . S
C2500 C2503 1.499 . S
C2501 H2475 0.950 . S
C2501 C2500 1.414 . S
C2501 C2502 1.374 . S
C2502 H2476 0.950 . S
C2502 C2498 1.385 . S
C2502 C2501 1.374 . S
C2503 C2500 1.499 . S
C2503 C2504 1.373 . S
C2503 C2505 1.389 . S
C2504 H2477 0.950 . S
C2504 C2490 1.377 . S
C2504 C2503 1.373 . S
C2505 C2489 1.377 . S
C2505 C2503 1.389 . S
C2505 C2506 1.524 . S
C2506 C2505 1.524 . S
C2506 C2507 1.397 . S
C2506 C2511 1.363 . S
C2507 H2478 0.950 . S
C2507 C2506 1.397 . S
C2507 C2508 1.334 . S
C2508 H2479 0.950 . S
C2508 C2507 1.334 . S
C2508 C2509 1.287 . S
C2509 C2508 1.287 . S
C2509 C2510 1.524 . S
C2509 H2512 0.999 . S
C2510 H2480 0.950 . S
C2510 C2509 1.524 . S
C2510 C2511 1.415 . S
C2511 H2481 0.950 . S
C2511 C2506 1.363 . S
C2511 C2510 1.415 . S
H2512 C2509 0.999 . S
H2513 C2494 0.913 . S
H2514 C2532 0.951 . S
H2515 C2534 0.951 . S
H2516 C2536 0.950 . S
H2517 C2537 0.950 . S
H2518 C2539 0.950 . S
H2519 C2542 0.950 . S
H2520 C2543 0.950 . S
H2521 C2545 0.950 . S
H2522 C2546 0.950 . S
H2523 C2547 0.951 . S
H2524 C2549 0.951 . S
H2525 C2551 0.950 . S
H2526 C2552 0.950 . S
H2527 C2554 0.950 . S
H2528 C2557 0.950 . S
H2529 C2558 0.950 . S
H2530 C2560 0.950 . S
H2531 C2561 0.950 . S
C2532 H2514 0.951 . S
C2532 C2533 1.366 . S
C2532 C2534 1.388 . S
C2533 C2532 1.366 . S
C2533 C2537 1.385 . S
C2534 H2515 0.951 . S
C2534 C2532 1.388 . S
C2534 C2535 1.366 . S
C2535 C2534 1.366 . S
C2535 C2536 1.414 . S
C2535 C2538 1.499 . S
C2536 H2516 0.950 . S
C2536 C2535 1.414 . S
C2536 C2537 1.374 . S
C2537 H2517 0.950 . S
C2537 C2533 1.385 . S
C2537 C2536 1.374 . S
C2538 C2535 1.499 . S
C2538 C2539 1.373 . S
C2538 C2540 1.389 . S
C2539 H2518 0.950 . S
C2539 C2538 1.373 . S
C2539 C2555 1.377 . S
C2540 C2538 1.389 . S
C2540 C2541 1.524 . S
C2540 C2554 1.377 . S
C2541 C2540 1.524 . S
C2541 C2542 1.397 . S
C2541 C2546 1.363 . S
C2542 H2519 0.950 . S
C2542 C2541 1.397 . S
C2542 C2543 1.334 . S
C2543 H2520 0.950 . S
C2543 C2542 1.334 . S
C2543 C2544 1.287 . S
C2544 C2543 1.287 . S
C2544 C2545 1.524 . S
C2544 H2563 0.913 . S
C2545 H2521 0.950 . S
C2545 C2544 1.524 . S
C2545 C2546 1.415 . S
C2546 H2522 0.950 . S
C2546 C2541 1.363 . S
C2546 C2545 1.415 . S
C2547 H2523 0.951 . S
C2547 C2548 1.366 . S
C2547 C2549 1.388 . S
C2548 C2547 1.366 . S
C2548 C2552 1.385 . S
C2549 H2524 0.951 . S
C2549 C2547 1.388 . S
C2549 C2550 1.366 . S
C2550 C2549 1.366 . S
C2550 C2551 1.414 . S
C2550 C2553 1.499 . S
C2551 H2525 0.950 . S
C2551 C2550 1.414 . S
C2551 C2552 1.374 . S
C2552 H2526 0.950 . S
C2552 C2548 1.385 . S
C2552 C2551 1.374 . S
C2553 C2550 1.499 . S
C2553 C2554 1.373 . S
C2553 C2555 1.389 . S
C2554 H2527 0.950 . S
C2554 C2540 1.377 . S
C2554 C2553 1.373 . S
C2555 C2539 1.377 . S
C2555 C2553 1.389 . S
C2555 C2556 1.524 . S
C2556 C2555 1.524 . S
C2556 C2557 1.397 . S
C2556 C2561 1.363 . S
C2557 H2528 0.950 . S
C2557 C2556 1.397 . S
C2557 C2558 1.334 . S
C2558 H2529 0.950 . S
C2558 C2557 1.334 . S
C2558 C2559 1.287 . S
C2559 C2558 1.287 . S
C2559 C2560 1.524 . S
C2559 H2562 0.999 . S
C2560 H2530 0.950 . S
C2560 C2559 1.524 . S
C2560 C2561 1.415 . S
C2561 H2531 0.950 . S
C2561 C2556 1.363 . S
C2561 C2560 1.415 . S
H2562 C2559 0.999 . S
H2563 C2544 0.913 . S
H2564 C2582 0.951 . S
H2565 C2584 0.951 . S
H2566 C2586 0.950 . S
H2567 C2587 0.950 . S
H2568 C2589 0.950 . S
H2569 C2592 0.950 . S
H2570 C2593 0.950 . S
H2571 C2595 0.950 . S
H2572 C2596 0.950 . S
H2573 C2597 0.951 . S
H2574 C2599 0.951 . S
H2575 C2601 0.972 . S
H2576 C2602 0.970 . S
H2577 C2604 0.950 . S
H2578 C2607 0.950 . S
H2579 C2608 0.950 . S
H2580 C2610 0.938 1_554 S
H2581 C2611 0.950 1_554 S
C2582 H2564 0.951 . S
C2582 C2583 1.366 . S
C2582 C2584 1.388 . S
C2583 C2582 1.366 . S
C2583 C2587 1.385 . S
C2584 H2565 0.951 . S
C2584 C2582 1.388 . S
C2584 C2585 1.366 . S
C2585 C2584 1.366 . S
C2585 C2586 1.414 . S
C2585 C2588 1.499 . S
C2586 H2566 0.950 . S
C2586 C2585 1.414 . S
C2586 C2587 1.374 . S
C2587 H2567 0.950 . S
C2587 C2583 1.385 . S
C2587 C2586 1.374 . S
C2588 C2585 1.499 . S
C2588 C2589 1.373 . S
C2588 C2590 1.389 . S
C2589 H2568 0.950 . S
C2589 C2588 1.373 . S
C2589 C2605 1.377 . S
C2590 C2588 1.389 . S
C2590 C2591 1.524 . S
C2590 C2604 1.376 1_556 S
C2591 C2590 1.524 . S
C2591 C2592 1.397 1_556 S
C2591 C2596 1.363 . S
C2592 H2569 0.950 . S
C2592 C2591 1.397 1_554 S
C2592 C2593 1.334 . S
C2593 H2570 0.950 . S
C2593 C2592 1.334 . S
C2593 C2594 1.287 . S
C2594 C2593 1.287 . S
C2594 C2595 1.524 1_554 S
C2594 H2613 0.913 . S
C2595 H2571 0.950 . S
C2595 C2594 1.524 1_556 S
C2595 C2596 1.415 . S
C2596 H2572 0.950 . S
C2596 C2591 1.363 . S
C2596 C2595 1.415 . S
C2597 H2573 0.951 . S
C2597 C2598 1.366 . S
C2597 C2599 1.388 . S
C2598 C2597 1.366 . S
C2598 C2602 1.385 . S
C2599 H2574 0.951 . S
C2599 C2597 1.388 . S
C2599 C2600 1.366 . S
C2600 C2599 1.366 . S
C2600 C2601 1.402 1_554 S
C2600 C2603 1.489 1_554 S
C2601 H2575 0.972 . S
C2601 C2600 1.402 1_556 S
C2601 C2602 1.364 1_556 S
C2602 H2576 0.970 . S
C2602 C2598 1.385 . S
C2602 C2601 1.364 1_554 S
C2603 C2600 1.489 1_556 S
C2603 C2604 1.375 1_556 S
C2603 C2605 1.397 . S
C2604 H2577 0.950 . S
C2604 C2590 1.376 1_554 S
C2604 C2603 1.375 1_554 S
C2605 C2589 1.377 . S
C2605 C2603 1.397 . S
C2605 C2606 1.524 . S
C2606 C2605 1.524 . S
C2606 C2607 1.397 . S
C2606 C2611 1.363 . S
C2607 H2578 0.950 . S
C2607 C2606 1.397 . S
C2607 C2608 1.334 . S
C2608 H2579 0.950 . S
C2608 C2607 1.334 . S
C2608 C2609 1.287 . S
C2609 C2608 1.287 . S
C2609 C2610 1.524 . S
C2609 H2612 0.999 . S
C2610 H2580 0.938 1_556 S
C2610 C2609 1.524 . S
C2610 C2611 1.415 . S
C2611 H2581 0.950 1_556 S
C2611 C2606 1.363 . S
C2611 C2610 1.415 . S
H2612 C2609 0.999 . S
H2613 C2594 0.913 . S
H2614 C2632 0.951 . S
H2615 C2634 0.951 . S
H2616 C2636 0.950 . S
H2617 C2637 0.950 . S
H2618 C2639 0.950 . S
H2619 C2642 0.950 . S
H2620 C2643 0.950 . S
H2621 C2645 0.950 . S
H2622 C2646 0.950 . S
H2623 C2647 0.951 . S
H2624 C2649 0.951 . S
H2625 C2651 0.950 . S
H2626 C2652 0.950 . S
H2627 C2654 0.950 . S
H2628 C2657 0.950 . S
H2629 C2658 0.950 . S
H2630 C2660 0.950 . S
H2631 C2661 0.950 . S
C2632 H2614 0.951 . S
C2632 C2633 1.366 . S
C2632 C2634 1.388 . S
C2633 C2632 1.366 . S
C2633 C2637 1.385 . S
C2634 H2615 0.951 . S
C2634 C2632 1.388 . S
C2634 C2635 1.366 . S
C2635 C2634 1.366 . S
C2635 C2636 1.414 . S
C2635 C2638 1.499 . S
C2636 H2616 0.950 . S
C2636 C2635 1.414 . S
C2636 C2637 1.374 . S
C2637 H2617 0.950 . S
C2637 C2633 1.385 . S
C2637 C2636 1.374 . S
C2638 C2635 1.499 . S
C2638 C2639 1.373 . S
C2638 C2640 1.389 . S
C2639 H2618 0.950 . S
C2639 C2638 1.373 . S
C2639 C2655 1.377 . S
C2640 C2638 1.389 . S
C2640 C2641 1.524 . S
C2640 C2654 1.377 . S
C2641 C2640 1.524 . S
C2641 C2642 1.397 . S
C2641 C2646 1.363 . S
C2642 H2619 0.950 . S
C2642 C2641 1.397 . S
C2642 C2643 1.334 . S
C2643 H2620 0.950 . S
C2643 C2642 1.334 . S
C2643 C2644 1.287 . S
C2644 C2643 1.287 . S
C2644 C2645 1.524 . S
C2644 H2663 0.913 . S
C2645 H2621 0.950 . S
C2645 C2644 1.524 . S
C2645 C2646 1.415 . S
C2646 H2622 0.950 . S
C2646 C2641 1.363 . S
C2646 C2645 1.415 . S
C2647 H2623 0.951 . S
C2647 C2648 1.366 . S
C2647 C2649 1.388 . S
C2648 C2647 1.366 . S
C2648 C2652 1.385 . S
C2649 H2624 0.951 . S
C2649 C2647 1.388 . S
C2649 C2650 1.366 . S
C2650 C2649 1.366 . S
C2650 C2651 1.414 . S
C2650 C2653 1.499 . S
C2651 H2625 0.950 . S
C2651 C2650 1.414 . S
C2651 C2652 1.374 . S
C2652 H2626 0.950 . S
C2652 C2648 1.385 . S
C2652 C2651 1.374 . S
C2653 C2650 1.499 . S
C2653 C2654 1.373 . S
C2653 C2655 1.389 . S
C2654 H2627 0.950 . S
C2654 C2640 1.377 . S
C2654 C2653 1.373 . S
C2655 C2639 1.377 . S
C2655 C2653 1.389 . S
C2655 C2656 1.524 . S
C2656 C2655 1.524 . S
C2656 C2657 1.397 . S
C2656 C2661 1.363 . S
C2657 H2628 0.950 . S
C2657 C2656 1.397 . S
C2657 C2658 1.334 . S
C2658 H2629 0.950 . S
C2658 C2657 1.334 . S
C2658 C2659 1.287 . S
C2659 C2658 1.287 . S
C2659 C2660 1.524 . S
C2659 H2662 0.999 . S
C2660 H2630 0.950 . S
C2660 C2659 1.524 . S
C2660 C2661 1.415 . S
C2661 H2631 0.950 . S
C2661 C2656 1.363 . S
C2661 C2660 1.415 . S
H2662 C2659 0.999 . S
H2663 C2644 0.913 . S
H2664 C2682 0.951 . S
H2665 C2684 0.951 . S
H2666 C2686 0.950 . S
H2667 C2687 0.950 . S
H2668 C2689 0.950 . S
H2669 C2692 0.950 . S
H2670 C2693 0.950 . S
H2671 C2695 0.950 . S
H2672 C2696 0.950 . S
H2673 C2697 0.951 . S
H2674 C2699 0.951 . S
H2675 C2701 0.950 . S
H2676 C2702 0.950 . S
H2677 C2704 0.950 . S
H2678 C2707 0.950 . S
H2679 C2708 0.950 . S
H2680 C2710 0.950 . S
H2681 C2711 0.950 . S
C2682 H2664 0.951 . S
C2682 C2683 1.366 . S
C2682 C2684 1.388 . S
C2683 C2682 1.366 . S
C2683 C2687 1.385 . S
C2684 H2665 0.951 . S
C2684 C2682 1.388 . S
C2684 C2685 1.366 . S
C2685 C2684 1.366 . S
C2685 C2686 1.414 . S
C2685 C2688 1.499 . S
C2686 H2666 0.950 . S
C2686 C2685 1.414 . S
C2686 C2687 1.374 . S
C2687 H2667 0.950 . S
C2687 C2683 1.385 . S
C2687 C2686 1.374 . S
C2688 C2685 1.499 . S
C2688 C2689 1.373 . S
C2688 C2690 1.389 . S
C2689 H2668 0.950 . S
C2689 C2688 1.373 . S
C2689 C2705 1.377 . S
C2690 C2688 1.389 . S
C2690 C2691 1.524 . S
C2690 C2704 1.377 . S
C2691 C2690 1.524 . S
C2691 C2692 1.397 . S
C2691 C2696 1.363 . S
C2692 H2669 0.950 . S
C2692 C2691 1.397 . S
C2692 C2693 1.334 1_554 S
C2693 H2670 0.950 . S
C2693 C2692 1.334 1_556 S
C2693 C2694 1.287 . S
C2694 C2693 1.287 . S
C2694 C2695 1.524 . S
C2694 H2713 0.913 . S
C2695 H2671 0.950 . S
C2695 C2694 1.524 . S
C2695 C2696 1.415 1_556 S
C2696 H2672 0.950 . S
C2696 C2691 1.363 . S
C2696 C2695 1.415 1_554 S
C2697 H2673 0.951 . S
C2697 C2698 1.366 . S
C2697 C2699 1.388 . S
C2698 C2697 1.366 . S
C2698 C2702 1.385 . S
C2699 H2674 0.951 . S
C2699 C2697 1.388 . S
C2699 C2700 1.366 . S
C2700 C2699 1.366 . S
C2700 C2701 1.414 . S
C2700 C2703 1.499 . S
C2701 H2675 0.950 . S
C2701 C2700 1.414 . S
C2701 C2702 1.374 . S
C2702 H2676 0.950 . S
C2702 C2698 1.385 . S
C2702 C2701 1.374 . S
C2703 C2700 1.499 . S
C2703 C2704 1.373 . S
C2703 C2705 1.389 . S
C2704 H2677 0.950 . S
C2704 C2690 1.377 . S
C2704 C2703 1.373 . S
C2705 C2689 1.377 . S
C2705 C2703 1.389 . S
C2705 C2706 1.524 . S
C2706 C2705 1.524 . S
C2706 C2707 1.397 . S
C2706 C2711 1.363 . S
C2707 H2678 0.950 . S
C2707 C2706 1.397 . S
C2707 C2708 1.334 . S
C2708 H2679 0.950 . S
C2708 C2707 1.334 . S
C2708 C2709 1.287 . S
C2709 C2708 1.287 . S
C2709 C2710 1.524 . S
C2709 H2712 0.999 . S
C2710 H2680 0.950 . S
C2710 C2709 1.524 . S
C2710 C2711 1.415 . S
C2711 H2681 0.950 . S
C2711 C2706 1.363 . S
C2711 C2710 1.415 . S
H2712 C2709 0.999 . S
H2713 C2694 0.913 . S
H2714 C2732 0.951 . S
H2715 C2734 0.967 . S
H2716 C2736 0.953 1_545 S
H2717 C2737 0.950 . S
H2718 C2739 0.950 1_545 S
H2719 C2742 0.950 . S
H2720 C2743 0.950 . S
H2721 C2745 0.950 1_556 S
H2722 C2746 0.950 1_556 S
H2723 C2747 0.951 . S
H2724 C2749 0.951 . S
H2725 C2751 0.950 . S
H2726 C2752 0.950 . S
H2727 C2754 0.950 . S
H2728 C2757 0.902 1_556 S
H2729 C2758 0.989 . S
H2730 C2760 0.950 . S
H2731 C2761 0.950 . S
C2732 H2714 0.951 . S
C2732 C2733 1.366 1_565 S
C2732 C2734 1.388 . S
C2733 C2732 1.366 1_545 S
C2733 C2737 1.385 . S
C2734 H2715 0.967 . S
C2734 C2732 1.388 . S
C2734 C2735 1.366 . S
C2735 C2734 1.366 . S
C2735 C2736 1.441 . S
C2735 C2738 1.499 . S
C2736 H2716 0.953 1_565 S
C2736 C2735 1.441 . S
C2736 C2737 1.347 1_565 S
C2737 H2717 0.950 . S
C2737 C2733 1.385 . S
C2737 C2736 1.347 1_545 S
C2738 C2735 1.499 . S
C2738 C2739 1.373 . S
C2738 C2740 1.389 . S
C2739 H2718 0.950 1_565 S
C2739 C2738 1.373 . S
C2739 C2755 1.377 . S
C2740 C2738 1.389 . S
C2740 C2741 1.524 . S
C2740 C2754 1.377 . S
C2741 C2740 1.524 . S
C2741 C2742 1.397 . S
C2741 C2746 1.363 . S
C2742 H2719 0.950 . S
C2742 C2741 1.397 . S
C2742 C2743 1.334 . S
C2743 H2720 0.950 . S
C2743 C2742 1.334 . S
C2743 C2744 1.287 . S
C2744 C2743 1.287 . S
C2744 C2745 1.524 . S
C2744 H2763 0.913 . S
C2745 H2721 0.950 1_554 S
C2745 C2744 1.524 . S
C2745 C2746 1.415 . S
C2746 H2722 0.950 1_554 S
C2746 C2741 1.363 . S
C2746 C2745 1.415 . S
C2747 H2723 0.951 . S
C2747 C2748 1.366 . S
C2747 C2749 1.388 . S
C2748 C2747 1.366 . S
C2748 C2752 1.385 1_554 S
C2749 H2724 0.951 . S
C2749 C2747 1.388 . S
C2749 C2750 1.366 . S
C2750 C2749 1.366 . S
C2750 C2751 1.414 1_554 S
C2750 C2753 1.499 . S
C2751 H2725 0.950 . S
C2751 C2750 1.414 1_556 S
C2751 C2752 1.374 . S
C2752 H2726 0.950 . S
C2752 C2748 1.385 1_556 S
C2752 C2751 1.374 . S
C2753 C2750 1.499 . S
C2753 C2754 1.373 . S
C2753 C2755 1.389 . S
C2754 H2727 0.950 . S
C2754 C2740 1.377 . S
C2754 C2753 1.373 . S
C2755 C2739 1.377 . S
C2755 C2753 1.389 . S
C2755 C2756 1.524 . S
C2756 C2755 1.524 . S
C2756 C2757 1.450 . S
C2756 C2761 1.363 1_565 S
C2757 H2728 0.902 1_554 S
C2757 C2756 1.450 . S
C2757 C2758 1.329 1_564 S
C2758 H2729 0.989 . S
C2758 C2757 1.329 1_546 S
C2758 C2759 1.252 1_556 S
C2759 C2758 1.252 1_554 S
C2759 C2760 1.524 . S
C2759 H2762 0.999 . S
C2760 H2730 0.950 . S
C2760 C2759 1.524 . S
C2760 C2761 1.415 . S
C2761 H2731 0.950 . S
C2761 C2756 1.363 1_545 S
C2761 C2760 1.415 . S
H2762 C2759 0.999 . S
H2763 C2744 0.913 . S
C398 C218 1.695 . S
C383 C73 1.717 . S
C448 C231 1.324 . S
C433 C82 1.288 . S
C483 C100 1.871 . S
C498 C244 1.847 1_556 S
C548 C257 1.317 . S
C533 C56 1.290 . S
C598 C265 1.301 . S
C583 C134 1.319 . S
C648 C278 1.641 . S
C633 C165 1.666 . S
C683 C147 1.128 . S
C698 C291 1.144 . S
C748 C304 1.863 . S
C733 C125 1.891 . S
C783 C151 1.287 . S
C798 C322 1.285 . S
C848 C333 1.456 . S
C833 C121 1.429 . S
C883 C139 1.768 . S
C898 C317 1.746 . S
C948 C325 1.223 . S
C933 C164 1.242 . S
C983 C95 1.293 . S
C998 C348 1.346 . S
C1033 C61 1.490 . S
C1048 C338 1.477 . S
C1083 C74 1.406 . S
C1098 C343 1.383 . S
C1133 C86 1.861 . S
C1148 C346 1.821 . S
C1183 C47 1.302 . S
C1198 C255 1.275 . S
C1233 C186 1.160 . S
C1248 C247 1.180 . S
C1298 C216 1.523 . S
C1283 C204 1.567 . S
C1348 C221 1.954 . S
C1333 C112 1.969 . S
C1383 C60 1.405 1_545 S
C1398 C268 1.380 . S
C1448 C307 1.404 . S
C1433 C152 1.431 . S
C1498 C260 1.928 . S
C1483 C126 1.969 . S
C1548 C286 1.180 . S
C1533 C160 1.177 . S
C1598 C296 1.694 . S
C1583 C190 1.716 . S
C1633 C199 1.289 . S
C1648 C309 1.325 . S
C1683 C113 1.871 . S
C1698 C270 1.846 . S
C1748 C283 1.317 . S
C1733 C173 1.290 . S
C1783 C43 1.320 . S
C1798 C239 1.301 . S
C1848 C252 1.642 . S
C1833 C9 1.667 . S
C1898 C213 1.144 . S
C1883 C17 1.129 . S
C1948 C226 1.863 . S
C1933 C34 1.891 1_455 S
C1983 C21 1.287 . S
C1998 C335 1.281 . S
C2033 C30 1.429 . S
C2048 C320 1.458 1_655 S
C2083 C48 1.768 . S
C2098 C330 1.751 . S
C2133 C8 1.242 . S
C2148 C312 1.221 1_455 S
C2198 C361 1.346 . S
C2183 C108 1.293 . S
C2248 C351 1.476 . S
C2233 C178 1.490 . S
C2298 C356 1.383 . S
C2283 C191 1.406 . S
C2333 C203 1.861 1_554 S
C2348 C359 1.821 . S
C2383 C138 1.303 . S
C2398 C281 1.275 . S
C2448 C273 1.181 . S
C2433 C69 1.161 . S
C2498 C294 1.519 . S
C2483 C87 1.567 . S
C2548 C299 1.954 . S
C2533 C99 1.969 . S
C2583 C177 1.405 . S
C2598 C242 1.380 . S
C2648 C229 1.404 . S
C2633 C22 1.431 . S
C2683 C35 1.969 . S
C2698 C234 1.928 . S
C2748 C208 1.170 1_554 S
C2733 C4 1.178 . S
