# Generated by pormake.
# Topology pyr, (3,6)-cn, num edge types: 1
# Building blocks:
#     Node 0, Type 0, BuildingBlock: ESEHIV_clean_linker_0, # of connection points: 3
#     Node 1, Type 0, BuildingBlock: ESEHIV_clean_linker_0, # of connection points: 3
#     Node 2, Type 0, BuildingBlock: ESEHIV_clean_linker_0, # of connection points: 3
#     Node 3, Type 0, BuildingBlock: ESEHIV_clean_linker_0, # of connection points: 3
#     Node 4, Type 0, BuildingBlock: ESEHIV_clean_linker_0, # of connection points: 3
#     Node 5, Type 0, BuildingBlock: ESEHIV_clean_linker_0, # of connection points: 3
#     Node 6, Type 0, BuildingBlock: ESEHIV_clean_linker_0, # of connection points: 3
#     Node 7, Type 0, BuildingBlock: ESEHIV_clean_linker_0, # of connection points: 3
#     Node 8, Type 1, BuildingBlock: BETFEN_clean_sbu_0, # of connection points: 6
#     Node 9, Type 1, BuildingBlock: BETFEN_clean_sbu_0, # of connection points: 6
#     Node 10, Type 1, BuildingBlock: BETFEN_clean_sbu_0, # of connection points: 6
#     Node 11, Type 1, BuildingBlock: BETFEN_clean_sbu_0, # of connection points: 6
#     Edge 12, Type (0, 1), BuildingBlock: XIVTED_clean_linker_0, # of connection points: 2
#     Edge 13, Type (0, 1), BuildingBlock: XIVTED_clean_linker_0, # of connection points: 2
#     Edge 14, Type (0, 1), BuildingBlock: XIVTED_clean_linker_0, # of connection points: 2
#     Edge 15, Type (0, 1), BuildingBlock: XIVTED_clean_linker_0, # of connection points: 2
#     Edge 16, Type (0, 1), BuildingBlock: XIVTED_clean_linker_0, # of connection points: 2
#     Edge 17, Type (0, 1), BuildingBlock: XIVTED_clean_linker_0, # of connection points: 2
#     Edge 18, Type (0, 1), BuildingBlock: XIVTED_clean_linker_0, # of connection points: 2
#     Edge 19, Type (0, 1), BuildingBlock: XIVTED_clean_linker_0, # of connection points: 2
#     Edge 20, Type (0, 1), BuildingBlock: XIVTED_clean_linker_0, # of connection points: 2
#     Edge 21, Type (0, 1), BuildingBlock: XIVTED_clean_linker_0, # of connection points: 2
#     Edge 22, Type (0, 1), BuildingBlock: XIVTED_clean_linker_0, # of connection points: 2
#     Edge 23, Type (0, 1), BuildingBlock: XIVTED_clean_linker_0, # of connection points: 2
#     Edge 24, Type (0, 1), BuildingBlock: XIVTED_clean_linker_0, # of connection points: 2
#     Edge 25, Type (0, 1), BuildingBlock: XIVTED_clean_linker_0, # of connection points: 2
#     Edge 26, Type (0, 1), BuildingBlock: XIVTED_clean_linker_0, # of connection points: 2
#     Edge 27, Type (0, 1), BuildingBlock: XIVTED_clean_linker_0, # of connection points: 2
#     Edge 28, Type (0, 1), BuildingBlock: XIVTED_clean_linker_0, # of connection points: 2
#     Edge 29, Type (0, 1), BuildingBlock: XIVTED_clean_linker_0, # of connection points: 2
#     Edge 30, Type (0, 1), BuildingBlock: XIVTED_clean_linker_0, # of connection points: 2
#     Edge 31, Type (0, 1), BuildingBlock: XIVTED_clean_linker_0, # of connection points: 2
#     Edge 32, Type (0, 1), BuildingBlock: XIVTED_clean_linker_0, # of connection points: 2
#     Edge 33, Type (0, 1), BuildingBlock: XIVTED_clean_linker_0, # of connection points: 2
#     Edge 34, Type (0, 1), BuildingBlock: XIVTED_clean_linker_0, # of connection points: 2
#     Edge 35, Type (0, 1), BuildingBlock: XIVTED_clean_linker_0, # of connection points: 2
# Relax obj value: 0.171
# Max RMSD: 0.261
# Mean RMSD: 0.125
data_MOF--net-pyr--node1-BETFEN_clean_sbu_0--node2-ESEHIV_clean_linker_0--edge1-XIVTED_clean_linker_0
_symmetry_space_group_name_H-M    P1
_symmetry_Int_Tables_number       1
_symmetry_cell_setting            triclinic
loop_
_symmetry_equiv_pos_as_xyz
'x, y, z'
_cell_length_a     35.0079
_cell_length_b     38.160194
_cell_length_c     34.731875
_cell_angle_alpha  90.901841
_cell_angle_beta   97.815825
_cell_angle_gamma 107.80427
loop_
_atom_site_label
_atom_site_type_symbol
_atom_site_fract_x
_atom_site_fract_y
_atom_site_fract_z
_atom_type_partial_charge
H0 H 0.38624 0.39093 0.40418 0.0
H1 H 0.46932 0.33463 0.37774 0.0
H2 H 0.43092 0.4034 0.29443 0.0
C3 C 0.40633 0.38586 0.38526 0.0
C4 C 0.40718 0.40151 0.34883 0.0
C5 C 0.42732 0.36048 0.39538 0.0
C6 C 0.45311 0.35417 0.37024 0.0
C7 C 0.45383 0.36867 0.3333 0.0
C8 C 0.43167 0.3932 0.32335 0.0
H9 H 0.22621 0.8508 0.79066 0.0
H10 H 0.28302 0.76669 0.78172 0.0
H11 H 0.20135 0.78307 0.68451 0.0
C12 C 0.22953 0.82758 0.77461 0.0
C13 C 0.20915 0.81802 0.73638 0.0
C14 C 0.25665 0.80953 0.79099 0.0
C15 C 0.26144 0.78018 0.76945 0.0
C16 C 0.24208 0.77063 0.73089 0.0
C17 C 0.21539 0.78936 0.71464 0.0
H18 H 0.67356 0.31196 0.90296 0.0
H19 H 0.68044 0.40882 0.84023 0.0
H20 H 0.57599 0.31177 0.81278 0.0
C21 C 0.66026 0.32598 0.88056 0.0
C22 C 0.62261 0.30713 0.85843 0.0
C23 C 0.68109 0.36258 0.87436 0.0
C24 C 0.66398 0.38064 0.84531 0.0
C25 C 0.62595 0.36291 0.82293 0.0
C26 C 0.60526 0.32587 0.82968 0.0
H27 H 0.85143 0.70288 0.40261 0.0
H28 H 0.93721 0.70872 0.32361 0.0
H29 H 0.83709 0.60908 0.32548 0.0
C30 C 0.86196 0.69 0.37993 0.0
C31 C 0.83976 0.65385 0.36571 0.0
C32 C 0.89721 0.71002 0.36537 0.0
C33 C 0.91007 0.69348 0.33514 0.0
C34 C 0.88892 0.65679 0.32074 0.0
C35 C 0.85399 0.63698 0.33668 0.0
H36 H 0.58574 0.71152 0.72457 0.0
H37 H 0.67246 0.65345 0.7206 0.0
H38 H 0.5915 0.62932 0.80603 0.0
C39 C 0.598 0.69 0.7348 0.0
C40 C 0.58569 0.67206 0.76813 0.0
C41 C 0.62965 0.68391 0.71753 0.0
C42 C 0.64622 0.65659 0.73178 0.0
C43 C 0.63252 0.63641 0.76352 0.0
C44 C 0.60147 0.6438 0.78084 0.0
H45 H 0.77741 0.28021 0.31115 0.0
H46 H 0.83475 0.19646 0.30259 0.0
H47 H 0.85841 0.26387 0.40891 0.0
C48 C 0.79893 0.26672 0.32358 0.0
C49 C 0.81795 0.27624 0.36222 0.0
C50 C 0.8039 0.2374 0.30215 0.0
C51 C 0.83115 0.21953 0.31866 0.0
C52 C 0.85136 0.22914 0.35697 0.0
C53 C 0.84465 0.2576 0.37869 0.0
H54 H 0.38402 0.73126 0.17529 0.0
H55 H 0.3719 0.63865 0.24573 0.0
H56 H 0.4838 0.72923 0.26184 0.0
C57 C 0.39709 0.71736 0.198 0.0
C58 C 0.43693 0.73431 0.21665 0.0
C59 C 0.37377 0.68281 0.20781 0.0
C60 C 0.39001 0.66543 0.23809 0.0
C61 C 0.42965 0.68174 0.25799 0.0
C62 C 0.45297 0.71669 0.24745 0.0
H63 H 0.11812 0.33366 0.7623 0.0
H64 H 0.20171 0.33987 0.68127 0.0
H65 H 0.21398 0.4353 0.75537 0.0
C66 C 0.14426 0.34938 0.74959 0.0
C67 C 0.16494 0.38635 0.76326 0.0
C68 C 0.15698 0.33273 0.7194 0.0
C69 C 0.19092 0.35328 0.70328 0.0
C70 C 0.21141 0.39044 0.71512 0.0
C71 C 0.19867 0.40665 0.74587 0.0
Pr72 Pr 0.99061 1.00721 0.55848 0.0
Pr73 Pr 0.06738 0.03453 0.52915 0.0
C74 C 0.91264 0.97883 0.56954 0.0
C75 C 0.88186 0.94483 0.57762 0.0
C76 C 0.85767 0.94674 0.60601 0.0
C77 C 0.82698 0.91557 0.6135 0.0
C78 C 0.81955 0.88175 0.59247 0.0
C79 C 0.84434 0.87968 0.56438 0.0
C80 C 0.8753 0.91101 0.55699 0.0
C81 C 0.04106 0.07343 0.59863 0.0
C82 C 0.0599 0.97704 0.59977 0.0
C83 C 0.14623 0.06229 0.52062 0.0
C84 C 0.17988 0.09661 0.5208 0.0
C85 C 0.21925 0.09664 0.5352 0.0
C86 C 0.25233 0.12801 0.53383 0.0
C87 C 0.24667 0.16 0.51785 0.0
C88 C 0.20689 0.16035 0.50479 0.0
C89 C 0.1737 0.12887 0.50629 0.0
C90 C 1.01731 0.96818 0.48913 0.0
C91 C 0.99787 0.06558 0.48884 0.0
O92 O 0.92425 0.98076 0.53519 0.0
O93 O 0.94209 0.99427 0.59778 0.0
O94 O 0.03534 0.06691 0.56229 0.0
O95 O 1.02039 0.04538 0.61561 0.0
O96 O 0.08317 1.0075 0.58728 0.0
O97 O 1.02075 0.96577 0.58721 0.0
O98 O 0.13405 0.05331 0.55403 0.0
O99 O 0.11663 0.05469 0.49136 0.0
O100 O 1.02284 0.97481 0.52545 0.0
O101 O 0.03852 0.99597 0.47221 0.0
O102 O 0.9744 0.03522 0.50131 0.0
O103 O 0.03713 0.0765 0.5012 0.0
H104 H 0.86238 0.97253 0.62235 0.0
H105 H 0.80923 0.91798 0.63604 0.0
H106 H 0.83937 0.85408 0.54766 0.0
H107 H 0.89376 0.90887 0.53497 0.0
H108 H 0.2245 0.07206 0.54688 0.0
H109 H 0.28246 0.127 0.54466 0.0
H110 H 0.2015 0.18441 0.49197 0.0
H111 H 0.14343 0.12946 0.49534 0.0
Pr112 Pr 0.50023 0.0374 0.06196 0.0
Pr113 Pr 0.55936 1.01402 1.02795 0.0
C114 C 0.45934 0.06284 0.11016 0.0
C115 C 0.4648 0.09926 0.12907 0.0
C116 C 0.47534 0.13146 0.10853 0.0
C117 C 0.48156 0.16592 0.12717 0.0
C118 C 0.47796 0.16887 0.16681 0.0
C119 C 0.46787 0.13663 0.18737 0.0
C120 C 0.46124 0.10214 0.16862 0.0
C121 C 0.52245 0.07754 0.99706 0.0
C122 C 0.59826 0.07898 0.09301 0.0
C123 C 0.59883 0.98691 0.97974 0.0
C124 C 0.58917 0.95018 0.96 0.0
C125 C 0.56688 0.9186 0.97685 0.0
C126 C 0.55618 0.8839 0.95732 0.0
C127 C 0.56701 0.88024 0.92032 0.0
C128 C 0.58886 0.912 0.90332 0.0
C129 C 0.59991 0.94668 0.92306 0.0
C130 C 0.536 0.97364 0.09252 0.0
C131 C 0.4617 0.97231 0.99681 0.0
O132 O 0.48669 0.04712 0.12251 0.0
O133 O 0.44897 0.05909 0.07235 0.0
O134 O 0.54697 0.06981 1.02316 0.0
O135 O 0.48549 0.06454 1.00411 0.0
O136 O 0.60591 0.06646 0.06044 0.0
O137 O 0.56147 0.06737 0.10252 0.0
O138 O 0.5744 1.00569 0.96773 0.0
O139 O 0.60816 0.98895 1.01764 0.0
O140 O 0.51212 0.98131 0.06577 0.0
O141 O 0.57335 0.98803 0.08704 0.0
O142 O 0.45426 0.98444 1.02966 0.0
O143 O 0.4983 0.98444 0.98701 0.0
H144 H 0.47897 0.13007 0.07812 0.0
H145 H 0.48964 0.1903 0.1107 0.0
H146 H 0.46442 0.13801 0.21783 0.0
H147 H 0.45344 0.07768 0.18505 0.0
H148 H 0.55749 0.92078 1.00503 0.0
H149 H 0.53903 0.85998 0.97094 0.0
H150 H 0.59797 0.90995 0.875 0.0
H151 H 0.61667 0.97078 0.90942 0.0
Pr152 Pr 0.53093 0.56586 0.55713 0.0
Pr153 Pr 0.52092 0.47777 0.52468 0.0
C154 C 0.51499 0.63012 0.56128 0.0
C155 C 0.48897 0.64446 0.58253 0.0
C156 C 0.4862 0.67978 0.57623 0.0
C157 C 0.45687 0.69138 0.59163 0.0
C158 C 0.42958 0.66763 0.61325 0.0
C159 C 0.43362 0.63267 0.62062 0.0
C160 C 0.46313 0.62126 0.60547 0.0
C161 C 0.55625 0.52372 0.61517 0.0
C162 C 0.4503 0.49351 0.57291 0.0
C163 C 0.53602 0.41308 0.52019 0.0
C164 C 0.56315 0.39914 0.5001 0.0
C165 C 0.56589 0.36382 0.50654 0.0
C166 C 0.59622 0.35264 0.49254 0.0
C167 C 0.62459 0.37682 0.47223 0.0
C168 C 0.6206 0.41177 0.46465 0.0
C169 C 0.59007 0.42274 0.47836 0.0
C170 C 0.49643 0.52027 0.46648 0.0
C171 C 0.60136 0.55007 0.50875 0.0
O172 O 0.49507 0.60313 0.53536 0.0
O173 O 0.54699 0.62483 0.58176 0.0
O174 O 0.54176 0.51454 0.58004 0.0
O175 O 0.56018 0.55854 0.62161 0.0
O176 O 0.46434 0.46863 0.55743 0.0
O177 O 0.46807 0.52974 0.57338 0.0
O178 O 0.55487 0.43924 0.54729 0.0
O179 O 0.50526 0.41934 0.49851 0.0
O180 O 0.51021 0.52917 0.50179 0.0
O181 O 0.49297 0.48559 0.45987 0.0
O182 O 0.58595 0.57476 0.52247 0.0
O183 O 0.5849 0.51382 0.5103 0.0
H184 H 0.50585 0.69796 0.55843 0.0
H185 H 0.45521 0.71876 0.58608 0.0
H186 H 0.41298 0.61348 0.63677 0.0
H187 H 0.46472 0.59375 0.61035 0.0
H188 H 0.54539 0.34533 0.52341 0.0
H189 H 0.5978 0.32525 0.49818 0.0
H190 H 0.64202 0.43129 0.4495 0.0
H191 H 0.58847 0.45023 0.47333 0.0
Pr192 Pr 1.0165 0.54883 1.01504 0.0
Pr193 Pr 0.03735 0.49464 0.06889 0.0
C194 C 0.97852 0.58885 0.97031 0.0
C195 C 0.93872 0.5813 0.94595 0.0
C196 C 0.93501 0.60074 0.91251 0.0
C197 C 0.89701 0.59513 0.89024 0.0
C198 C 0.86203 0.57002 0.90115 0.0
C199 C 0.8661 0.54971 0.93405 0.0
C200 C 0.90412 0.55527 0.95621 0.0
C201 C 0.09579 0.57446 0.05499 0.0
C202 C 0.99472 0.5488 0.10531 0.0
C203 C 0.07405 0.45301 0.11271 0.0
C204 C 0.10904 0.45779 0.14321 0.0
C205 C 0.10856 0.43005 0.16915 0.0
C206 C 0.14254 0.43282 0.19665 0.0
C207 C 0.1777 0.46355 0.19882 0.0
C208 C 0.17769 0.49178 0.17324 0.0
C209 C 0.14365 0.48887 0.14563 0.0
C210 C 0.95793 0.46934 1.029 0.0
C211 C 0.05773 0.49373 0.97812 0.0
O212 O 1.00397 0.57413 0.95775 0.0
O213 O 0.9782 0.58695 1.00777 0.0
O214 O 0.06499 0.55726 0.06953 0.0
O215 O 0.08611 0.58155 1.01925 0.0
O216 O 1.0232 0.53307 0.11447 0.0
O217 O 0.98159 0.55178 0.06832 0.0
O218 O 0.04333 0.462 0.12234 0.0
O219 O 0.08231 0.46297 0.07822 0.0
O220 O 0.98884 0.48633 1.01458 0.0
O221 O 0.96766 0.46167 0.06447 0.0
O222 O 0.02919 0.50943 0.96957 0.0
O223 O 0.0714 0.49082 1.01495 0.0
H224 H 0.96139 0.62084 0.90408 0.0
H225 H 0.89481 0.61151 0.86534 0.0
H226 H 0.8398 0.52989 0.94293 0.0
H227 H 0.90636 0.53971 0.98178 0.0
H228 H 0.0822 0.40577 0.16753 0.0
H229 H 0.14167 0.41022 0.21533 0.0
H230 H 0.20406 0.51595 0.17433 0.0
H231 H 0.14462 0.5105 0.12566 0.0
H232 H 0.40179 0.37312 0.46537 0.0
H233 H 0.31634 0.15717 0.49281 0.0
H234 H 0.42188 0.28704 0.39592 0.0
H235 H 0.25795 0.23454 0.52797 0.0
H236 H 0.37099 0.20831 0.47508 0.0
H237 H 0.36438 0.32572 0.50511 0.0
C238 C 0.39915 0.34459 0.45875 0.0
C239 C 0.41461 0.33443 0.4264 0.0
C240 C 0.34652 0.21417 0.48721 0.0
C241 C 0.37287 0.28037 0.47257 0.0
C242 C 0.31537 0.18498 0.49759 0.0
C243 C 0.28222 0.1915 0.51157 0.0
C244 C 0.34465 0.25026 0.49067 0.0
C245 C 0.28254 0.22822 0.5166 0.0
C246 C 0.37791 0.31763 0.48161 0.0
C247 C 0.41121 0.29693 0.42039 0.0
N248 N 0.31309 0.25627 0.50577 0.0
N249 N 0.39044 0.27144 0.44292 0.0
H250 H 0.33765 0.81789 0.80567 0.0
H251 H 0.37953 0.94808 0.99891 0.0
H252 H 0.24126 0.83923 0.85808 0.0
H253 H 0.47181 0.93146 0.9365 0.0
H254 H 0.3278 0.90222 0.95347 0.0
H255 H 0.38614 0.85175 0.86022 0.0
C256 C 0.3264 0.82892 0.8291 0.0
C257 C 0.2851 0.82558 0.82714 0.0
C258 C 0.35942 0.90855 0.94997 0.0
C259 C 0.34126 0.86603 0.88941 0.0
C260 C 0.38889 0.93469 0.97581 0.0
C261 C 0.42991 0.94395 0.97109 0.0
C262 C 0.37128 0.89151 0.91955 0.0
C263 C 0.44049 0.92565 0.9409 0.0
C264 C 0.35436 0.84878 0.86014 0.0
C265 C 0.27286 0.84153 0.85812 0.0
N266 N 0.41137 0.90046 0.91626 0.0
N267 N 0.30091 0.86143 0.88785 0.0
H268 H 0.58759 0.33936 0.74777 0.0
H269 H 0.59931 0.54391 0.68769 0.0
H270 H 0.62631 0.43468 0.82881 0.0
H271 H 0.53248 0.44788 0.61223 0.0
H272 H 0.61266 0.50376 0.73846 0.0
H273 H 0.56868 0.37749 0.6967 0.0
C274 C 0.59162 0.3681 0.75501 0.0
C275 C 0.60912 0.38385 0.79263 0.0
C276 C 0.59524 0.49133 0.71074 0.0
C277 C 0.5883 0.4278 0.73416 0.0
C278 C 0.58778 0.5143 0.68166 0.0
C279 C 0.56561 0.49921 0.64529 0.0
C280 C 0.58039 0.4528 0.70357 0.0
C281 C 0.55095 0.46063 0.6393 0.0
C282 C 0.5811 0.38992 0.72576 0.0
C283 C 0.61384 0.4214 0.80011 0.0
N284 N 0.55871 0.43873 0.66805 0.0
N285 N 0.6039 0.44203 0.77119 0.0
H286 H 0.90108 0.58891 0.31711 0.0
H287 H 0.95403 0.60011 0.09977 0.0
H288 H 0.9096 0.68532 0.25162 0.0
H289 H 0.99689 0.53241 0.18243 0.0
H290 H 0.92779 0.62583 0.15178 0.0
H291 H 0.92632 0.56198 0.2649 0.0
C292 C 0.90801 0.60431 0.29166 0.0
C293 C 0.90329 0.63951 0.28885 0.0
C294 C 0.94291 0.60533 0.15852 0.0
C295 C 0.9318 0.60864 0.22874 0.0
C296 C 0.95778 0.59048 0.12879 0.0
C297 C 0.97786 0.56404 0.13663 0.0
C298 C 0.94729 0.59321 0.1964 0.0
C299 C 0.98184 0.55282 0.17498 0.0
C300 C 0.92264 0.58902 0.26199 0.0
C301 C 0.91305 0.65827 0.25522 0.0
N302 N 0.9665 0.56723 0.2033 0.0
N303 N 0.92652 0.64256 0.22646 0.0
H304 H 0.52272 0.3469 0.34019 0.0
H305 H 0.44735 0.22331 0.13988 0.0
H306 H 0.41986 0.34893 0.25703 0.0
H307 H 0.52082 0.19717 0.23845 0.0
H308 H 0.45123 0.28057 0.17527 0.0
H309 H 0.53652 0.30361 0.29537 0.0
C310 C 0.50353 0.33893 0.31226 0.0
C311 C 0.46959 0.35122 0.30286 0.0
C312 C 0.4669 0.2625 0.18896 0.0
C313 C 0.4855 0.30195 0.25138 0.0
C314 C 0.46482 0.2299 0.16874 0.0
C315 C 0.48338 0.20525 0.18647 0.0
C316 C 0.48792 0.27065 0.22706 0.0
C317 C 0.50545 0.2151 0.22401 0.0
C318 C 0.51144 0.3142 0.28674 0.0
C319 C 0.44644 0.34052 0.26577 0.0
N320 N 0.50692 0.24694 0.24317 0.0
N321 N 0.45451 0.31617 0.24168 0.0
H322 H 0.23211 0.89296 0.73806 0.0
H323 H 0.02657 0.90448 0.61459 0.0
H324 H 0.13343 0.79623 0.69227 0.0
H325 H 0.13675 0.99631 0.63952 0.0
H326 H 0.06147 0.86499 0.64949 0.0
H327 H 0.19389 0.93167 0.70826 0.0
C328 C 0.20215 0.87987 0.72196 0.0
C329 C 0.18571 0.84132 0.71791 0.0
C330 C 0.07785 0.89383 0.64746 0.0
C331 C 0.14185 0.8856 0.68324 0.0
C332 C 0.05791 0.91644 0.62782 0.0
C333 C 0.07885 0.95372 0.6241 0.0
C334 C 0.11883 0.90876 0.66372 0.0
C335 C 0.11948 0.9677 0.64153 0.0
C336 C 0.18043 0.902 0.70474 0.0
C337 C 0.14715 0.82585 0.69599 0.0
N338 N 0.13812 0.94521 0.66052 0.0
N339 N 0.12639 0.84808 0.67952 0.0
H340 H 0.70243 0.3614 0.95304 0.0
H341 H 0.93466 0.48021 0.95315 0.0
H342 H 0.75038 0.40722 0.85034 0.0
H343 H 0.88779 0.42898 0.05403 0.0
H344 H 0.86646 0.45747 0.91601 0.0
H345 H 0.76913 0.38955 0.99141 0.0
C346 C 0.72703 0.37737 0.93854 0.0
C347 C 0.72088 0.38164 0.89832 0.0
C348 C 0.87104 0.45114 0.94624 0.0
C349 C 0.79737 0.41427 0.94221 0.0
C350 C 0.90996 0.46406 0.96743 0.0
C351 C 0.91681 0.45613 1.00659 0.0
C352 C 0.83877 0.43001 0.96432 0.0
C353 C 0.88377 0.43548 1.02382 0.0
C354 C 0.76507 0.39358 0.96051 0.0
C355 C 0.75366 0.40333 0.88128 0.0
N356 N 0.84617 0.423 1.00252 0.0
N357 N 0.79055 0.41866 0.90327 0.0
H358 H 0.77896 0.68207 0.37623 0.0
H359 H 0.64866 0.51104 0.48275 0.0
H360 H 0.81328 0.58331 0.39165 0.0
H361 H 0.63608 0.62006 0.48679 0.0
H362 H 0.70486 0.53371 0.44507 0.0
H363 H 0.72146 0.65592 0.41049 0.0
C364 C 0.77426 0.6547 0.3867 0.0
C365 C 0.80145 0.63511 0.38149 0.0
C366 C 0.68983 0.55262 0.45436 0.0
C367 C 0.73507 0.60472 0.42108 0.0
C368 C 0.65772 0.53974 0.47595 0.0
C369 C 0.63742 0.56364 0.4882 0.0
C370 C 0.70154 0.58959 0.44452 0.0
C371 C 0.65072 0.60053 0.47834 0.0
C372 C 0.74137 0.63977 0.40639 0.0
C373 C 0.79315 0.5994 0.39501 0.0
N374 N 0.68164 0.61221 0.45705 0.0
N375 N 0.76085 0.58542 0.41445 0.0
H376 H 0.32853 0.38497 0.363 0.0
H377 H 0.25734 0.48771 0.18638 0.0
H378 H 0.41481 0.45934 0.30016 0.0
H379 H 0.18264 0.44195 0.2738 0.0
H380 H 0.31638 0.48142 0.22877 0.0
H381 H 0.27625 0.40904 0.33281 0.0
C382 C 0.33701 0.40711 0.34367 0.0
C383 C 0.37661 0.4201 0.33437 0.0
C384 C 0.28716 0.47328 0.23887 0.0
C385 C 0.31546 0.44679 0.29796 0.0
C386 C 0.2534 0.47699 0.21475 0.0
C387 C 0.21472 0.46475 0.22622 0.0
C388 C 0.28212 0.45692 0.27452 0.0
C389 C 0.21158 0.45081 0.26323 0.0
C390 C 0.30673 0.42062 0.32602 0.0
C391 C 0.38469 0.44799 0.30782 0.0
N392 N 0.24467 0.44683 0.28576 0.0
N393 N 0.35424 0.46001 0.29008 0.0
H394 H 0.54364 0.275 0.87115 0.0
H395 H 0.59794 0.10877 0.97706 0.0
H396 H 0.65579 0.25114 0.86734 0.0
H397 H 0.47554 0.11379 0.95529 0.0
H398 H 0.61904 0.16064 0.93582 0.0
H399 H 0.51644 0.2153 0.89937 0.0
C400 C 0.56217 0.25687 0.87538 0.0
C401 C 0.60222 0.2683 0.86732 0.0
C402 C 0.58746 0.15023 0.93973 0.0
C403 C 0.57177 0.20047 0.90041 0.0
C404 C 0.57546 0.12065 0.96336 0.0
C405 C 0.535 0.10704 0.96977 0.0
C406 C 0.55893 0.16678 0.92273 0.0
C407 C 0.50709 0.12345 0.95119 0.0
C408 C 0.54679 0.22293 0.8918 0.0
C409 C 0.62499 0.24375 0.87373 0.0
N410 N 0.51964 0.15269 0.92889 0.0
N411 N 0.60972 0.21139 0.89035 0.0
H412 H 0.92982 0.77313 0.32756 0.0
H413 H 0.982 0.90457 0.52303 0.0
H414 H 0.91556 0.73409 0.44224 0.0
H415 H 1.0117 0.94574 0.41237 0.0
H416 H 0.95554 0.84207 0.49265 0.0
H417 H 0.95975 0.83644 0.35683 0.0
C418 C 0.93341 0.77777 0.35887 0.0
C419 C 0.9197 0.7482 0.38238 0.0
C420 C 0.96784 0.86469 0.4749 0.0
C421 C 0.95332 0.82058 0.41602 0.0
C422 C 0.98285 0.90046 0.49226 0.0
C423 C 0.99924 0.93044 0.47025 0.0
C424 C 0.96899 0.85863 0.43506 0.0
C425 C 0.99941 0.9234 0.43043 0.0
C426 C 0.9502 0.81394 0.37555 0.0
C427 C 0.92491 0.756 0.42281 0.0
N428 N 0.98455 0.88825 0.41411 0.0
N429 N 0.94097 0.79126 0.43821 0.0
H430 H 0.25494 0.70505 0.74896 0.0
H431 H 0.3836 0.70695 0.57519 0.0
H432 H 0.26337 0.78164 0.65804 0.0
H433 H 0.39866 0.65302 0.68204 0.0
H434 H 0.32947 0.72553 0.59846 0.0
H435 H 0.29548 0.67504 0.71656 0.0
C436 C 0.26457 0.71502 0.72171 0.0
C437 C 0.25624 0.74622 0.70648 0.0
C438 C 0.34452 0.70946 0.61668 0.0
C439 C 0.3029 0.71226 0.66948 0.0
C440 C 0.37574 0.69914 0.60362 0.0
C441 C 0.39617 0.67869 0.62685 0.0
C442 C 0.33337 0.69909 0.65314 0.0
C443 C 0.3837 0.66851 0.66295 0.0
C444 C 0.28788 0.69803 0.70337 0.0
C445 C 0.26897 0.75766 0.67081 0.0
N446 N 0.35324 0.67893 0.67501 0.0
N447 N 0.29218 0.74101 0.6538 0.0
H448 H 0.63978 0.75827 0.71667 0.0
H449 H 0.81896 0.80945 0.59638 0.0
H450 H 0.66888 0.67162 0.65674 0.0
H451 H 0.74393 0.8793 0.60682 0.0
H452 H 0.76643 0.75805 0.61818 0.0
H453 H 0.67911 0.80267 0.6772 0.0
C454 C 0.65337 0.7481 0.69454 0.0
C455 C 0.65029 0.71058 0.69007 0.0
C456 C 0.76135 0.78453 0.61506 0.0
C457 C 0.6978 0.76259 0.64576 0.0
C458 C 0.79124 0.81387 0.60259 0.0
C459 C 0.78626 0.84901 0.60059 0.0
C460 C 0.72662 0.79062 0.62596 0.0
C461 C 0.74972 0.85307 0.60912 0.0
C462 C 0.67638 0.77386 0.67217 0.0
C463 C 0.67067 0.70017 0.66176 0.0
N464 N 0.72166 0.82444 0.62201 0.0
N465 N 0.69414 0.72613 0.6411 0.0
H466 H 0.72295 0.22913 0.28729 0.0
H467 H 0.68071 0.10163 0.09195 0.0
H468 H 0.81932 0.2075 0.23509 0.0
H469 H 0.58861 0.11968 0.15364 0.0
H470 H 0.73281 0.14594 0.13862 0.0
H471 H 0.67466 0.19621 0.23225 0.0
C472 C 0.73426 0.21821 0.26382 0.0
C473 C 0.77551 0.22132 0.26593 0.0
C474 C 0.70115 0.14027 0.14167 0.0
C475 C 0.71948 0.18187 0.20301 0.0
C476 C 0.67146 0.11504 0.11512 0.0
C477 C 0.63034 0.10665 0.11924 0.0
C478 C 0.68941 0.15725 0.17223 0.0
C479 C 0.61995 0.12488 0.14961 0.0
C480 C 0.70639 0.19888 0.23248 0.0
C481 C 0.78777 0.20543 0.23491 0.0
N482 N 0.64927 0.14916 0.17493 0.0
N483 N 0.75978 0.18606 0.20482 0.0
H484 H 0.47173 0.70604 0.33184 0.0
H485 H 0.45484 0.5004 0.39343 0.0
H486 H 0.42445 0.60891 0.25344 0.0
H487 H 0.51963 0.59621 0.47002 0.0
H488 H 0.44232 0.54067 0.34257 0.0
H489 H 0.48994 0.66776 0.3833 0.0
C490 C 0.46566 0.67683 0.32529 0.0
C491 C 0.44602 0.66063 0.28837 0.0
C492 C 0.45915 0.55306 0.37052 0.0
C493 C 0.46618 0.61662 0.34711 0.0
C494 C 0.46618 0.53 0.39966 0.0
C495 C 0.48761 0.54496 0.43632 0.0
C496 C 0.47373 0.59158 0.37787 0.0
C497 C 0.50191 0.58354 0.44258 0.0
C498 C 0.47578 0.65494 0.35472 0.0
C499 C 0.43876 0.62255 0.28163 0.0
N500 N 0.49465 0.60555 0.41371 0.0
N501 N 0.4485 0.60196 0.31064 0.0
H502 H 0.20944 0.42671 0.82991 0.0
H503 H 1.02337 0.47671 0.90159 0.0
H504 H 0.08723 0.38566 0.76892 0.0
H505 H 0.129 0.47639 0.9814 0.0
H506 H 0.04979 0.45147 0.84946 0.0
H507 H 0.18415 0.45327 0.88238 0.0
C508 C 0.17735 0.42348 0.82743 0.0
C509 C 0.15043 0.40377 0.79495 0.0
C510 C 0.06721 0.45692 0.87837 0.0
C511 C 0.1213 0.43442 0.85479 0.0
C512 C 0.05221 0.47148 0.90819 0.0
C513 C 0.07389 0.47867 0.94612 0.0
C514 C 0.10465 0.45004 0.88612 0.0
C515 C 0.11109 0.47114 0.95274 0.0
C516 C 0.16291 0.43845 0.85749 0.0
C517 C 0.10907 0.4003 0.7935 0.0
N518 N 0.12539 0.45751 0.92306 0.0
N519 N 0.09588 0.41561 0.82275 0.0
H520 H 0.60048 0.68108 0.84786 0.0
H521 H 0.53516 0.85964 0.84383 0.0
H522 H 0.5253 0.70442 0.74858 0.0
H523 H 0.5758 0.81693 0.95059 0.0
H524 H 0.52547 0.80034 0.80952 0.0
H525 H 0.5837 0.72538 0.8877 0.0
C526 C 0.57933 0.6945 0.8345 0.0
C527 C 0.56516 0.68944 0.79428 0.0
C528 C 0.53585 0.8037 0.84057 0.0
C529 C 0.54723 0.7418 0.83993 0.0
C530 C 0.54172 0.83764 0.86007 0.0
C531 C 0.55682 0.84334 0.89998 0.0
C532 C 0.54584 0.77545 0.86099 0.0
C533 C 0.56416 0.81373 0.91979 0.0
C534 C 0.57014 0.72031 0.85738 0.0
C535 C 0.53814 0.70825 0.77909 0.0
N536 N 0.55924 0.78127 0.89998 0.0
N537 N 0.53093 0.73431 0.80166 0.0
H538 H 0.92672 0.25169 0.40186 0.0
H539 H 0.92202 0.04582 0.44729 0.0
H540 H 0.82984 0.1542 0.3546 0.0
H541 H 0.02996 0.13917 0.47705 0.0
H542 H 0.88788 0.08605 0.41397 0.0
H543 H 0.96497 0.21206 0.43154 0.0
C544 C 0.91359 0.22201 0.39773 0.0
C545 C 0.87528 0.20619 0.37545 0.0
C546 C 0.91915 0.0978 0.42748 0.0
C547 C 0.91855 0.1609 0.40913 0.0
C548 C 0.93867 0.07479 0.44651 0.0
C549 C 0.97886 0.08918 0.46499 0.0
C550 C 0.93972 0.13567 0.42724 0.0
C551 C 0.99899 0.12694 0.46298 0.0
C552 C 0.93545 0.19945 0.41442 0.0
C553 C 0.85958 0.1676 0.37095 0.0
N554 N 0.97906 0.14901 0.44473 0.0
N555 N 0.88119 0.14636 0.38768 0.0
H556 H 0.35209 0.67917 0.12891 0.0
H557 H 0.11787 0.56971 0.13263 0.0
H558 H 0.30301 0.64445 0.23449 0.0
H559 H 0.16653 0.61181 1.02902 0.0
H560 H 0.18584 0.59381 0.17006 0.0
H561 H 0.28485 0.6517 0.09161 0.0
C562 C 0.32708 0.66588 0.1443 0.0
C563 C 0.33312 0.66452 0.18499 0.0
C564 C 0.18169 0.59785 0.13917 0.0
C565 C 0.25592 0.6325 0.14224 0.0
C566 C 0.14292 0.58411 0.11778 0.0
C567 C 0.13667 0.58892 0.07771 0.0
C568 C 0.21443 0.61664 0.12034 0.0
C569 C 0.17009 0.60764 0.0599 0.0
C570 C 0.2887 0.65002 0.12292 0.0
C571 C 0.29976 0.64607 0.20319 0.0
N572 N 0.20755 0.62086 0.08135 0.0
N573 N 0.26253 0.63093 0.18169 0.0
H574 H 0.2843 0.4437 0.74457 0.0
H575 H 0.38763 0.42864 0.55799 0.0
H576 H 0.21627 0.38521 0.63714 0.0
H577 H 0.43007 0.52796 0.63336 0.0
H578 H 0.32866 0.40694 0.59227 0.0
H579 H 0.34186 0.47135 0.70944 0.0
C580 C 0.28119 0.43687 0.71369 0.0
C581 C 0.24544 0.4113 0.69418 0.0
C582 C 0.35084 0.43357 0.60117 0.0
C583 C 0.31153 0.44212 0.65417 0.0
C584 C 0.38454 0.4459 0.58169 0.0
C585 C 0.41372 0.48028 0.59258 0.0
C586 C 0.34668 0.45528 0.63248 0.0
C587 C 0.40809 0.50145 0.62366 0.0
C588 C 0.31415 0.45251 0.69373 0.0
C589 C 0.2435 0.40364 0.65398 0.0
N590 N 0.37549 0.48847 0.64279 0.0
N591 N 0.27612 0.41844 0.6356 0.0
H592 H 0.66796 0.59064 0.72967 0.0
H593 H 0.79402 0.56822 0.9325 0.0
H594 H 0.65235 0.6303 0.84187 0.0
H595 H 0.83743 0.56663 0.82219 0.0
H596 H 0.73012 0.5728 0.89833 0.0
H597 H 0.71834 0.56421 0.76253 0.0
C598 C 0.67453 0.59332 0.76115 0.0
C599 C 0.65615 0.61332 0.78286 0.0
C600 C 0.75342 0.57091 0.88157 0.0
C601 C 0.71328 0.58268 0.82051 0.0
C602 C 0.78981 0.56806 0.90101 0.0
C603 C 0.8213 0.56748 0.88018 0.0
C604 C 0.74833 0.57305 0.84097 0.0
C605 C 0.8142 0.56769 0.83941 0.0
C606 C 0.70322 0.57815 0.77983 0.0
C607 C 0.66526 0.61503 0.82369 0.0
N608 N 0.77857 0.57078 0.82112 0.0
N609 N 0.69344 0.6003 0.84108 0.0
H610 H 0.44299 0.74865 0.14098 0.0
H611 H 0.57816 0.9563 0.15827 0.0
H612 H 0.48457 0.80018 0.25693 0.0
H613 H 0.46561 0.9163 0.07949 0.0
H614 H 0.55888 0.89849 0.1923 0.0
H615 H 0.4685 0.80856 0.11415 0.0
C616 C 0.45797 0.77256 0.16088 0.0
C617 C 0.46073 0.76944 0.20137 0.0
C618 C 0.53841 0.90274 0.16781 0.0
C619 C 0.49073 0.83826 0.17048 0.0
C620 C 0.5493 0.93555 0.14841 0.0
C621 C 0.52339 0.9411 0.11605 0.0
C622 C 0.50204 0.87499 0.15386 0.0
C623 C 0.48643 0.91333 0.10436 0.0
C624 C 0.47237 0.80673 0.14546 0.0
C625 C 0.48155 0.80135 0.22559 0.0
N626 N 0.4772 0.88131 0.12283 0.0
N627 N 0.49563 0.83466 0.20976 0.0
H628 H 0.12816 0.26974 0.75884 0.0
H629 H 0.07428 0.13714 0.56423 0.0
H630 H 0.1363 0.30773 0.64303 0.0
H631 H 0.04761 0.09586 0.67564 0.0
H632 H 0.09971 0.19972 0.59419 0.0
H633 H 0.09926 0.20594 0.73052 0.0
C634 C 0.12345 0.26474 0.72751 0.0
C635 C 0.13516 0.29416 0.70334 0.0
C636 C 0.08832 0.17708 0.61223 0.0
C637 C 0.10274 0.22135 0.67082 0.0
C638 C 0.07392 0.14125 0.5951 0.0
C639 C 0.05867 0.11121 0.61743 0.0
C640 C 0.08774 0.18317 0.65216 0.0
C641 C 0.05905 0.11826 0.65735 0.0
C642 C 0.10724 0.22832 0.71138 0.0
C643 C 0.12853 0.28596 0.66291 0.0
N644 N 0.07334 0.15351 0.67347 0.0
N645 N 0.11311 0.2505 0.64807 0.0
H646 H 0.80624 0.34223 0.34431 0.0
H647 H 0.66921 0.33706 0.51178 0.0
H648 H 0.79434 0.26438 0.43408 0.0
H649 H 0.65902 0.39278 0.40538 0.0
H650 H 0.72484 0.31915 0.4909 0.0
H651 H 0.76429 0.37173 0.37523 0.0
C652 C 0.7956 0.33192 0.37107 0.0
C653 C 0.80335 0.30051 0.38635 0.0
C654 C 0.71054 0.33548 0.47228 0.0
C655 C 0.75495 0.3338 0.42159 0.0
C656 C 0.67846 0.34542 0.48395 0.0
C657 C 0.65893 0.36618 0.46014 0.0
C658 C 0.72348 0.34654 0.43663 0.0
C659 C 0.67321 0.37705 0.42491 0.0
C660 C 0.77145 0.3486 0.38855 0.0
C661 C 0.78921 0.28855 0.42133 0.0
N662 N 0.70446 0.36699 0.41419 0.0
N663 N 0.76515 0.30487 0.43746 0.0
loop_
_geom_bond_atom_site_label_1
_geom_bond_atom_site_label_2
_geom_bond_distance
_geom_bond_site_symmetry_2
_ccdc_geom_bond_type
H0 C3 0.931 . S
H1 C6 0.928 . S
H2 C8 0.930 . S
C3 H0 0.931 . S
C3 C4 1.413 . S
C3 C5 1.360 . S
C4 C3 1.413 . S
C4 C8 1.429 . S
C5 C3 1.360 . S
C5 C6 1.372 . S
C6 H1 0.928 . S
C6 C5 1.372 . S
C6 C7 1.404 . S
C7 C6 1.404 . S
C7 C8 1.391 . S
C8 H2 0.930 . S
C8 C4 1.429 . S
C8 C7 1.391 . S
H9 C12 0.931 . S
H10 C15 0.928 . S
H11 C17 0.930 . S
C12 H9 0.931 . S
C12 C13 1.413 . S
C12 C14 1.360 . S
C13 C12 1.413 . S
C13 C17 1.429 . S
C14 C12 1.360 . S
C14 C15 1.372 . S
C15 H10 0.928 . S
C15 C14 1.372 . S
C15 C16 1.404 . S
C16 C15 1.404 . S
C16 C17 1.391 . S
C17 H11 0.930 . S
C17 C13 1.429 . S
C17 C16 1.391 . S
H18 C21 0.931 . S
H19 C24 0.928 . S
H20 C26 0.930 . S
C21 H18 0.931 . S
C21 C22 1.413 . S
C21 C23 1.360 . S
C22 C21 1.413 . S
C22 C26 1.429 . S
C23 C21 1.360 . S
C23 C24 1.372 . S
C24 H19 0.928 . S
C24 C23 1.372 . S
C24 C25 1.404 . S
C25 C24 1.404 . S
C25 C26 1.391 . S
C26 H20 0.930 . S
C26 C22 1.429 . S
C26 C25 1.391 . S
H27 C30 0.931 . S
H28 C33 0.928 . S
H29 C35 0.930 . S
C30 H27 0.931 . S
C30 C31 1.413 . S
C30 C32 1.360 . S
C31 C30 1.413 . S
C31 C35 1.429 . S
C32 C30 1.360 . S
C32 C33 1.372 . S
C33 H28 0.928 . S
C33 C32 1.372 . S
C33 C34 1.404 . S
C34 C33 1.404 . S
C34 C35 1.391 . S
C35 H29 0.930 . S
C35 C31 1.429 . S
C35 C34 1.391 . S
H36 C39 0.931 . S
H37 C42 0.928 . S
H38 C44 0.930 . S
C39 H36 0.931 . S
C39 C40 1.413 . S
C39 C41 1.360 . S
C40 C39 1.413 . S
C40 C44 1.429 . S
C41 C39 1.360 . S
C41 C42 1.372 . S
C42 H37 0.928 . S
C42 C41 1.372 . S
C42 C43 1.404 . S
C43 C42 1.404 . S
C43 C44 1.391 . S
C44 H38 0.930 . S
C44 C40 1.429 . S
C44 C43 1.391 . S
H45 C48 0.931 . S
H46 C51 0.928 . S
H47 C53 0.930 . S
C48 H45 0.931 . S
C48 C49 1.413 . S
C48 C50 1.360 . S
C49 C48 1.413 . S
C49 C53 1.429 . S
C50 C48 1.360 . S
C50 C51 1.372 . S
C51 H46 0.928 . S
C51 C50 1.372 . S
C51 C52 1.404 . S
C52 C51 1.404 . S
C52 C53 1.391 . S
C53 H47 0.930 . S
C53 C49 1.429 . S
C53 C52 1.391 . S
H54 C57 0.931 . S
H55 C60 0.928 . S
H56 C62 0.930 . S
C57 H54 0.931 . S
C57 C58 1.413 . S
C57 C59 1.360 . S
C58 C57 1.413 . S
C58 C62 1.429 . S
C59 C57 1.360 . S
C59 C60 1.372 . S
C60 H55 0.928 . S
C60 C59 1.372 . S
C60 C61 1.404 . S
C61 C60 1.404 . S
C61 C62 1.391 . S
C62 H56 0.930 . S
C62 C58 1.429 . S
C62 C61 1.391 . S
H63 C66 0.931 . S
H64 C69 0.928 . S
H65 C71 0.930 . S
C66 H63 0.931 . S
C66 C67 1.413 . S
C66 C68 1.360 . S
C67 C66 1.413 . S
C67 C71 1.429 . S
C68 C66 1.360 . S
C68 C69 1.372 . S
C69 H64 0.928 . S
C69 C68 1.372 . S
C69 C70 1.404 . S
C70 C69 1.404 . S
C70 C71 1.391 . S
C71 H65 0.930 . S
C71 C67 1.429 . S
C71 C70 1.391 . S
Pr72 C74 2.880 . S
Pr72 O92 2.562 . S
Pr72 O93 2.490 . S
Pr72 O94 2.695 1_665 S
Pr72 O95 2.508 1_665 S
Pr72 O97 2.437 1_655 S
Pr72 O100 2.436 . S
Pr72 O102 2.438 1_565 S
Pr73 C83 2.880 . S
Pr73 O94 2.436 . S
Pr73 O96 2.438 1_545 S
Pr73 O98 2.562 . S
Pr73 O99 2.490 . S
Pr73 O100 2.695 1_445 S
Pr73 O101 2.512 1_545 S
Pr73 O103 2.437 1_455 S
C74 Pr72 2.880 . S
C74 C75 1.491 . S
C74 O92 1.254 . S
C74 O93 1.225 . S
C75 C74 1.491 . S
C75 C76 1.392 . S
C75 C80 1.356 . S
C76 C75 1.392 . S
C76 C77 1.368 . S
C76 H104 0.929 . S
C77 C76 1.368 . S
C77 C78 1.386 . S
C77 H105 0.929 . S
C78 C77 1.386 . S
C78 C79 1.373 . S
C79 C78 1.373 . S
C79 C80 1.409 . S
C79 H106 0.931 . S
C80 C75 1.356 . S
C80 C79 1.409 . S
C80 H107 0.930 . S
C81 O94 1.270 . S
C81 O95 1.267 . S
C82 O96 1.267 . S
C82 O97 1.278 . S
C83 Pr73 2.880 . S
C83 C84 1.491 . S
C83 O98 1.254 . S
C83 O99 1.225 . S
C84 C83 1.491 . S
C84 C85 1.392 . S
C84 C89 1.356 . S
C85 C84 1.392 . S
C85 C86 1.368 . S
C85 H108 0.929 . S
C86 C85 1.368 . S
C86 C87 1.386 . S
C86 H109 0.929 . S
C87 C86 1.386 . S
C87 C88 1.373 . S
C88 C87 1.373 . S
C88 C89 1.409 . S
C88 H110 0.931 . S
C89 C84 1.356 . S
C89 C88 1.409 . S
C89 H111 0.930 . S
C90 O100 1.270 . S
C90 O101 1.248 1_655 S
C91 O102 1.267 . S
C91 O103 1.278 . S
O92 Pr72 2.562 . S
O92 C74 1.254 . S
O93 Pr72 2.490 . S
O93 C74 1.225 . S
O94 Pr72 2.695 1_445 S
O94 Pr73 2.436 . S
O94 C81 1.270 . S
O95 Pr72 2.508 1_445 S
O95 C81 1.267 . S
O96 Pr73 2.438 1_565 S
O96 C82 1.267 . S
O97 Pr72 2.437 1_455 S
O97 C82 1.278 . S
O98 Pr73 2.562 . S
O98 C83 1.254 . S
O99 Pr73 2.490 . S
O99 C83 1.225 . S
O100 Pr72 2.436 . S
O100 Pr73 2.695 1_665 S
O100 C90 1.270 . S
O101 Pr73 2.512 1_565 S
O101 C90 1.248 1_455 S
O102 Pr72 2.438 1_545 S
O102 C91 1.267 . S
O103 Pr73 2.437 1_655 S
O103 C91 1.278 . S
H104 C76 0.929 . S
H105 C77 0.929 . S
H106 C79 0.931 . S
H107 C80 0.930 . S
H108 C85 0.929 . S
H109 C86 0.929 . S
H110 C88 0.931 . S
H111 C89 0.930 . S
Pr112 C114 2.880 . S
Pr112 O132 2.562 . S
Pr112 O133 2.490 . S
Pr112 O134 2.695 1_554 S
Pr112 O135 2.512 1_554 S
Pr112 O137 2.437 . S
Pr112 O140 2.436 1_545 S
Pr112 O142 2.438 1_544 S
Pr113 C123 2.879 1_554 S
Pr113 O134 2.435 1_564 S
Pr113 O136 2.439 1_565 S
Pr113 O138 2.561 1_554 S
Pr113 O139 2.489 1_554 S
Pr113 O140 2.696 . S
Pr113 O141 2.514 . S
Pr113 O143 2.436 1_554 S
C114 Pr112 2.880 . S
C114 C115 1.491 . S
C114 O132 1.254 . S
C114 O133 1.225 . S
C115 C114 1.491 . S
C115 C116 1.392 . S
C115 C120 1.356 . S
C116 C115 1.392 . S
C116 C117 1.368 . S
C116 H144 0.929 . S
C117 C116 1.368 . S
C117 C118 1.386 . S
C117 H145 0.929 . S
C118 C117 1.386 . S
C118 C119 1.373 . S
C119 C118 1.373 . S
C119 C120 1.409 . S
C119 H146 0.931 . S
C120 C115 1.356 . S
C120 C119 1.409 . S
C120 H147 0.930 . S
C121 O134 1.270 . S
C121 O135 1.248 . S
C122 O136 1.267 . S
C122 O137 1.278 . S
C123 Pr113 2.879 1_556 S
C123 C124 1.491 . S
C123 O138 1.254 . S
C123 O139 1.225 . S
C124 C123 1.491 . S
C124 C125 1.392 . S
C124 C129 1.356 . S
C125 C124 1.392 . S
C125 C126 1.368 . S
C125 H148 0.929 . S
C126 C125 1.368 . S
C126 C127 1.386 . S
C126 H149 0.929 . S
C127 C126 1.386 . S
C127 C128 1.373 . S
C128 C127 1.373 . S
C128 C129 1.409 . S
C128 H150 0.931 . S
C129 C124 1.356 . S
C129 C128 1.409 . S
C129 H151 0.930 . S
C130 O140 1.270 . S
C130 O141 1.248 . S
C131 O142 1.267 . S
C131 O143 1.278 . S
O132 Pr112 2.562 . S
O132 C114 1.254 . S
O133 Pr112 2.490 . S
O133 C114 1.225 . S
O134 Pr112 2.695 1_556 S
O134 Pr113 2.435 1_546 S
O134 C121 1.270 . S
O135 Pr112 2.512 1_556 S
O135 C121 1.248 . S
O136 Pr113 2.439 1_545 S
O136 C122 1.267 . S
O137 Pr112 2.437 . S
O137 C122 1.278 . S
O138 Pr113 2.561 1_556 S
O138 C123 1.254 . S
O139 Pr113 2.489 1_556 S
O139 C123 1.225 . S
O140 Pr112 2.436 1_565 S
O140 Pr113 2.696 . S
O140 C130 1.270 . S
O141 Pr113 2.514 . S
O141 C130 1.248 . S
O142 Pr112 2.438 1_566 S
O142 C131 1.267 . S
O143 Pr113 2.436 1_556 S
O143 C131 1.278 . S
H144 C116 0.929 . S
H145 C117 0.929 . S
H146 C119 0.931 . S
H147 C120 0.930 . S
H148 C125 0.929 . S
H149 C126 0.929 . S
H150 C128 0.931 . S
H151 C129 0.930 . S
Pr152 C154 2.880 . S
Pr152 O172 2.562 . S
Pr152 O173 2.490 . S
Pr152 O174 2.695 . S
Pr152 O175 2.512 . S
Pr152 O177 2.437 . S
Pr152 O180 2.436 . S
Pr152 O182 2.438 . S
Pr153 C163 2.880 . S
Pr153 O174 2.436 . S
Pr153 O176 2.438 . S
Pr153 O178 2.562 . S
Pr153 O179 2.490 . S
Pr153 O180 2.695 . S
Pr153 O181 2.512 . S
Pr153 O183 2.437 . S
C154 Pr152 2.880 . S
C154 C155 1.491 . S
C154 O172 1.254 . S
C154 O173 1.225 . S
C155 C154 1.491 . S
C155 C156 1.392 . S
C155 C160 1.356 . S
C156 C155 1.392 . S
C156 C157 1.368 . S
C156 H184 0.929 . S
C157 C156 1.368 . S
C157 C158 1.386 . S
C157 H185 0.929 . S
C158 C157 1.386 . S
C158 C159 1.373 . S
C159 C158 1.373 . S
C159 C160 1.409 . S
C159 H186 0.931 . S
C160 C155 1.356 . S
C160 C159 1.409 . S
C160 H187 0.930 . S
C161 O174 1.270 . S
C161 O175 1.248 . S
C162 O176 1.267 . S
C162 O177 1.278 . S
C163 Pr153 2.880 . S
C163 C164 1.491 . S
C163 O178 1.254 . S
C163 O179 1.225 . S
C164 C163 1.491 . S
C164 C165 1.392 . S
C164 C169 1.356 . S
C165 C164 1.392 . S
C165 C166 1.368 . S
C165 H188 0.929 . S
C166 C165 1.368 . S
C166 C167 1.386 . S
C166 H189 0.929 . S
C167 C166 1.386 . S
C167 C168 1.373 . S
C168 C167 1.373 . S
C168 C169 1.409 . S
C168 H190 0.931 . S
C169 C164 1.356 . S
C169 C168 1.409 . S
C169 H191 0.930 . S
C170 O180 1.270 . S
C170 O181 1.248 . S
C171 O182 1.267 . S
C171 O183 1.278 . S
O172 Pr152 2.562 . S
O172 C154 1.254 . S
O173 Pr152 2.490 . S
O173 C154 1.225 . S
O174 Pr152 2.695 . S
O174 Pr153 2.436 . S
O174 C161 1.270 . S
O175 Pr152 2.512 . S
O175 C161 1.248 . S
O176 Pr153 2.438 . S
O176 C162 1.267 . S
O177 Pr152 2.437 . S
O177 C162 1.278 . S
O178 Pr153 2.562 . S
O178 C163 1.254 . S
O179 Pr153 2.490 . S
O179 C163 1.225 . S
O180 Pr152 2.436 . S
O180 Pr153 2.695 . S
O180 C170 1.270 . S
O181 Pr153 2.512 . S
O181 C170 1.248 . S
O182 Pr152 2.438 . S
O182 C171 1.267 . S
O183 Pr153 2.437 . S
O183 C171 1.278 . S
H184 C156 0.929 . S
H185 C157 0.929 . S
H186 C159 0.931 . S
H187 C160 0.930 . S
H188 C165 0.929 . S
H189 C166 0.929 . S
H190 C168 0.931 . S
H191 C169 0.930 . S
Pr192 C194 2.880 . S
Pr192 O212 2.562 . S
Pr192 O213 2.490 . S
Pr192 O214 2.695 1_656 S
Pr192 O215 2.512 1_656 S
Pr192 O217 2.437 1_556 S
Pr192 O220 2.436 . S
Pr192 O222 2.438 1_655 S
Pr193 C203 2.880 . S
Pr193 O214 2.436 . S
Pr193 O216 2.438 1_455 S
Pr193 O218 2.562 . S
Pr193 O219 2.490 . S
Pr193 O220 2.695 1_454 S
Pr193 O221 2.512 1_454 S
Pr193 O223 2.437 1_554 S
C194 Pr192 2.880 . S
C194 C195 1.491 . S
C194 O212 1.254 . S
C194 O213 1.225 . S
C195 C194 1.491 . S
C195 C196 1.392 . S
C195 C200 1.356 . S
C196 C195 1.392 . S
C196 C197 1.368 . S
C196 H224 0.929 . S
C197 C196 1.368 . S
C197 C198 1.386 . S
C197 H225 0.929 . S
C198 C197 1.386 . S
C198 C199 1.373 . S
C199 C198 1.373 . S
C199 C200 1.409 . S
C199 H226 0.931 . S
C200 C195 1.356 . S
C200 C199 1.409 . S
C200 H227 0.930 . S
C201 O214 1.270 . S
C201 O215 1.248 . S
C202 O216 1.267 . S
C202 O217 1.278 . S
C203 Pr193 2.880 . S
C203 C204 1.491 . S
C203 O218 1.254 . S
C203 O219 1.225 . S
C204 C203 1.491 . S
C204 C205 1.392 . S
C204 C209 1.356 . S
C205 C204 1.392 . S
C205 C206 1.368 . S
C205 H228 0.929 . S
C206 C205 1.368 . S
C206 C207 1.386 . S
C206 H229 0.929 . S
C207 C206 1.386 . S
C207 C208 1.373 . S
C208 C207 1.373 . S
C208 C209 1.409 . S
C208 H230 0.931 . S
C209 C204 1.356 . S
C209 C208 1.409 . S
C209 H231 0.930 . S
C210 O220 1.270 . S
C210 O221 1.248 . S
C211 O222 1.267 . S
C211 O223 1.278 . S
O212 Pr192 2.562 . S
O212 C194 1.254 . S
O213 Pr192 2.490 . S
O213 C194 1.225 . S
O214 Pr192 2.695 1_454 S
O214 Pr193 2.436 . S
O214 C201 1.270 . S
O215 Pr192 2.512 1_454 S
O215 C201 1.248 . S
O216 Pr193 2.438 1_655 S
O216 C202 1.267 . S
O217 Pr192 2.437 1_554 S
O217 C202 1.278 . S
O218 Pr193 2.562 . S
O218 C203 1.254 . S
O219 Pr193 2.490 . S
O219 C203 1.225 . S
O220 Pr192 2.436 . S
O220 Pr193 2.695 1_656 S
O220 C210 1.270 . S
O221 Pr193 2.512 1_656 S
O221 C210 1.248 . S
O222 Pr192 2.438 1_455 S
O222 C211 1.267 . S
O223 Pr193 2.437 1_556 S
O223 C211 1.278 . S
H224 C196 0.929 . S
H225 C197 0.929 . S
H226 C199 0.931 . S
H227 C200 0.930 . S
H228 C205 0.929 . S
H229 C206 0.929 . S
H230 C208 0.931 . S
H231 C209 0.930 . S
H232 C238 0.930 . S
H233 C242 0.930 . S
H234 C247 0.929 . S
H235 C245 0.929 . S
H236 C240 0.929 . S
H237 C246 0.929 . S
C238 H232 0.930 . S
C238 C239 1.367 . S
C238 C246 1.378 . S
C239 C238 1.367 . S
C239 C247 1.433 . S
C240 H236 0.929 . S
C240 C242 1.378 . S
C240 C244 1.350 . S
C241 C244 1.463 . S
C241 C246 1.350 . S
C241 N249 1.427 . S
C242 H233 0.930 . S
C242 C240 1.378 . S
C242 C243 1.367 . S
C243 C242 1.367 . S
C243 C245 1.433 . S
C244 C240 1.350 . S
C244 C241 1.463 . S
C244 N248 1.427 . S
C245 H235 0.929 . S
C245 C243 1.433 . S
C245 N248 1.384 . S
C246 H237 0.929 . S
C246 C238 1.378 . S
C246 C241 1.350 . S
C247 H234 0.929 . S
C247 C239 1.433 . S
C247 N249 1.384 . S
N248 C244 1.427 . S
N248 C245 1.384 . S
N249 C241 1.427 . S
N249 C247 1.384 . S
H250 C256 0.930 . S
H251 C260 0.930 . S
H252 C265 0.929 . S
H253 C263 0.929 . S
H254 C258 0.929 . S
H255 C264 0.929 . S
C256 H250 0.930 . S
C256 C257 1.367 . S
C256 C264 1.378 . S
C257 C256 1.367 . S
C257 C265 1.433 . S
C258 H254 0.929 . S
C258 C260 1.378 . S
C258 C262 1.350 . S
C259 C262 1.463 . S
C259 C264 1.350 . S
C259 N267 1.427 . S
C260 H251 0.930 . S
C260 C258 1.378 . S
C260 C261 1.367 . S
C261 C260 1.367 . S
C261 C263 1.433 . S
C262 C258 1.350 . S
C262 C259 1.463 . S
C262 N266 1.427 . S
C263 H253 0.929 . S
C263 C261 1.433 . S
C263 N266 1.384 . S
C264 H255 0.929 . S
C264 C256 1.378 . S
C264 C259 1.350 . S
C265 H252 0.929 . S
C265 C257 1.433 . S
C265 N267 1.384 . S
N266 C262 1.427 . S
N266 C263 1.384 . S
N267 C259 1.427 . S
N267 C265 1.384 . S
H268 C274 0.930 . S
H269 C278 0.930 . S
H270 C283 0.929 . S
H271 C281 0.929 . S
H272 C276 0.929 . S
H273 C282 0.929 . S
C274 H268 0.930 . S
C274 C275 1.367 . S
C274 C282 1.378 . S
C275 C274 1.367 . S
C275 C283 1.433 . S
C276 H272 0.929 . S
C276 C278 1.378 . S
C276 C280 1.350 . S
C277 C280 1.463 . S
C277 C282 1.350 . S
C277 N285 1.427 . S
C278 H269 0.930 . S
C278 C276 1.378 . S
C278 C279 1.367 . S
C279 C278 1.367 . S
C279 C281 1.433 . S
C280 C276 1.350 . S
C280 C277 1.463 . S
C280 N284 1.427 . S
C281 H271 0.929 . S
C281 C279 1.433 . S
C281 N284 1.384 . S
C282 H273 0.929 . S
C282 C274 1.378 . S
C282 C277 1.350 . S
C283 H270 0.929 . S
C283 C275 1.433 . S
C283 N285 1.384 . S
N284 C280 1.427 . S
N284 C281 1.384 . S
N285 C277 1.427 . S
N285 C283 1.384 . S
H286 C292 0.930 . S
H287 C296 0.930 . S
H288 C301 0.929 . S
H289 C299 0.929 . S
H290 C294 0.929 . S
H291 C300 0.929 . S
C292 H286 0.930 . S
C292 C293 1.367 . S
C292 C300 1.378 . S
C293 C292 1.367 . S
C293 C301 1.433 . S
C294 H290 0.929 . S
C294 C296 1.378 . S
C294 C298 1.350 . S
C295 C298 1.463 . S
C295 C300 1.350 . S
C295 N303 1.427 . S
C296 H287 0.930 . S
C296 C294 1.378 . S
C296 C297 1.367 . S
C297 C296 1.367 . S
C297 C299 1.433 . S
C298 C294 1.350 . S
C298 C295 1.463 . S
C298 N302 1.427 . S
C299 H289 0.929 . S
C299 C297 1.433 . S
C299 N302 1.384 . S
C300 H291 0.929 . S
C300 C292 1.378 . S
C300 C295 1.350 . S
C301 H288 0.929 . S
C301 C293 1.433 . S
C301 N303 1.384 . S
N302 C298 1.427 . S
N302 C299 1.384 . S
N303 C295 1.427 . S
N303 C301 1.384 . S
H304 C310 0.930 . S
H305 C314 0.930 . S
H306 C319 0.929 . S
H307 C317 0.929 . S
H308 C312 0.929 . S
H309 C318 0.929 . S
C310 H304 0.930 . S
C310 C311 1.367 . S
C310 C318 1.378 . S
C311 C310 1.367 . S
C311 C319 1.433 . S
C312 H308 0.929 . S
C312 C314 1.378 . S
C312 C316 1.350 . S
C313 C316 1.463 . S
C313 C318 1.350 . S
C313 N321 1.427 . S
C314 H305 0.930 . S
C314 C312 1.378 . S
C314 C315 1.367 . S
C315 C314 1.367 . S
C315 C317 1.433 . S
C316 C312 1.350 . S
C316 C313 1.463 . S
C316 N320 1.427 . S
C317 H307 0.929 . S
C317 C315 1.433 . S
C317 N320 1.384 . S
C318 H309 0.929 . S
C318 C310 1.378 . S
C318 C313 1.350 . S
C319 H306 0.929 . S
C319 C311 1.433 . S
C319 N321 1.384 . S
N320 C316 1.427 . S
N320 C317 1.384 . S
N321 C313 1.427 . S
N321 C319 1.384 . S
H322 C328 0.930 . S
H323 C332 0.930 . S
H324 C337 0.929 . S
H325 C335 0.929 . S
H326 C330 0.929 . S
H327 C336 0.929 . S
C328 H322 0.930 . S
C328 C329 1.367 . S
C328 C336 1.378 . S
C329 C328 1.367 . S
C329 C337 1.433 . S
C330 H326 0.929 . S
C330 C332 1.378 . S
C330 C334 1.350 . S
C331 C334 1.463 . S
C331 C336 1.350 . S
C331 N339 1.427 . S
C332 H323 0.930 . S
C332 C330 1.378 . S
C332 C333 1.367 . S
C333 C332 1.367 . S
C333 C335 1.433 . S
C334 C330 1.350 . S
C334 C331 1.463 . S
C334 N338 1.427 . S
C335 H325 0.929 . S
C335 C333 1.433 . S
C335 N338 1.384 . S
C336 H327 0.929 . S
C336 C328 1.378 . S
C336 C331 1.350 . S
C337 H324 0.929 . S
C337 C329 1.433 . S
C337 N339 1.384 . S
N338 C334 1.427 . S
N338 C335 1.384 . S
N339 C331 1.427 . S
N339 C337 1.384 . S
H340 C346 0.930 . S
H341 C350 0.930 . S
H342 C355 0.929 . S
H343 C353 0.929 . S
H344 C348 0.929 . S
H345 C354 0.929 . S
C346 H340 0.930 . S
C346 C347 1.367 . S
C346 C354 1.378 . S
C347 C346 1.367 . S
C347 C355 1.433 . S
C348 H344 0.929 . S
C348 C350 1.378 . S
C348 C352 1.350 . S
C349 C352 1.463 . S
C349 C354 1.350 . S
C349 N357 1.427 . S
C350 H341 0.930 . S
C350 C348 1.378 . S
C350 C351 1.367 . S
C351 C350 1.367 . S
C351 C353 1.433 . S
C352 C348 1.350 . S
C352 C349 1.463 . S
C352 N356 1.427 . S
C353 H343 0.929 . S
C353 C351 1.433 . S
C353 N356 1.384 . S
C354 H345 0.929 . S
C354 C346 1.378 . S
C354 C349 1.350 . S
C355 H342 0.929 . S
C355 C347 1.433 . S
C355 N357 1.384 . S
N356 C352 1.427 . S
N356 C353 1.384 . S
N357 C349 1.427 . S
N357 C355 1.384 . S
H358 C364 0.930 . S
H359 C368 0.930 . S
H360 C373 0.929 . S
H361 C371 0.929 . S
H362 C366 0.929 . S
H363 C372 0.929 . S
C364 H358 0.930 . S
C364 C365 1.367 . S
C364 C372 1.378 . S
C365 C364 1.367 . S
C365 C373 1.433 . S
C366 H362 0.929 . S
C366 C368 1.378 . S
C366 C370 1.350 . S
C367 C370 1.463 . S
C367 C372 1.350 . S
C367 N375 1.427 . S
C368 H359 0.930 . S
C368 C366 1.378 . S
C368 C369 1.367 . S
C369 C368 1.367 . S
C369 C371 1.433 . S
C370 C366 1.350 . S
C370 C367 1.463 . S
C370 N374 1.427 . S
C371 H361 0.929 . S
C371 C369 1.433 . S
C371 N374 1.384 . S
C372 H363 0.929 . S
C372 C364 1.378 . S
C372 C367 1.350 . S
C373 H360 0.929 . S
C373 C365 1.433 . S
C373 N375 1.384 . S
N374 C370 1.427 . S
N374 C371 1.384 . S
N375 C367 1.427 . S
N375 C373 1.384 . S
H376 C382 0.930 . S
H377 C386 0.930 . S
H378 C391 0.929 . S
H379 C389 0.929 . S
H380 C384 0.929 . S
H381 C390 0.929 . S
C382 H376 0.930 . S
C382 C383 1.367 . S
C382 C390 1.378 . S
C383 C382 1.367 . S
C383 C391 1.433 . S
C384 H380 0.929 . S
C384 C386 1.378 . S
C384 C388 1.350 . S
C385 C388 1.463 . S
C385 C390 1.350 . S
C385 N393 1.427 . S
C386 H377 0.930 . S
C386 C384 1.378 . S
C386 C387 1.367 . S
C387 C386 1.367 . S
C387 C389 1.433 . S
C388 C384 1.350 . S
C388 C385 1.463 . S
C388 N392 1.427 . S
C389 H379 0.929 . S
C389 C387 1.433 . S
C389 N392 1.384 . S
C390 H381 0.929 . S
C390 C382 1.378 . S
C390 C385 1.350 . S
C391 H378 0.929 . S
C391 C383 1.433 . S
C391 N393 1.384 . S
N392 C388 1.427 . S
N392 C389 1.384 . S
N393 C385 1.427 . S
N393 C391 1.384 . S
H394 C400 0.930 . S
H395 C404 0.930 . S
H396 C409 0.929 . S
H397 C407 0.929 . S
H398 C402 0.929 . S
H399 C408 0.929 . S
C400 H394 0.930 . S
C400 C401 1.367 . S
C400 C408 1.378 . S
C401 C400 1.367 . S
C401 C409 1.433 . S
C402 H398 0.929 . S
C402 C404 1.378 . S
C402 C406 1.350 . S
C403 C406 1.463 . S
C403 C408 1.350 . S
C403 N411 1.427 . S
C404 H395 0.930 . S
C404 C402 1.378 . S
C404 C405 1.367 . S
C405 C404 1.367 . S
C405 C407 1.433 . S
C406 C402 1.350 . S
C406 C403 1.463 . S
C406 N410 1.427 . S
C407 H397 0.929 . S
C407 C405 1.433 . S
C407 N410 1.384 . S
C408 H399 0.929 . S
C408 C400 1.378 . S
C408 C403 1.350 . S
C409 H396 0.929 . S
C409 C401 1.433 . S
C409 N411 1.384 . S
N410 C406 1.427 . S
N410 C407 1.384 . S
N411 C403 1.427 . S
N411 C409 1.384 . S
H412 C418 0.930 . S
H413 C422 0.930 . S
H414 C427 0.929 . S
H415 C425 0.929 . S
H416 C420 0.929 . S
H417 C426 0.929 . S
C418 H412 0.930 . S
C418 C419 1.367 . S
C418 C426 1.378 . S
C419 C418 1.367 . S
C419 C427 1.433 . S
C420 H416 0.929 . S
C420 C422 1.378 . S
C420 C424 1.350 . S
C421 C424 1.463 . S
C421 C426 1.350 . S
C421 N429 1.427 . S
C422 H413 0.930 . S
C422 C420 1.378 . S
C422 C423 1.367 . S
C423 C422 1.367 . S
C423 C425 1.433 . S
C424 C420 1.350 . S
C424 C421 1.463 . S
C424 N428 1.427 . S
C425 H415 0.929 . S
C425 C423 1.433 . S
C425 N428 1.384 . S
C426 H417 0.929 . S
C426 C418 1.378 . S
C426 C421 1.350 . S
C427 H414 0.929 . S
C427 C419 1.433 . S
C427 N429 1.384 . S
N428 C424 1.427 . S
N428 C425 1.384 . S
N429 C421 1.427 . S
N429 C427 1.384 . S
H430 C436 0.930 . S
H431 C440 0.930 . S
H432 C445 0.929 . S
H433 C443 0.929 . S
H434 C438 0.929 . S
H435 C444 0.929 . S
C436 H430 0.930 . S
C436 C437 1.367 . S
C436 C444 1.378 . S
C437 C436 1.367 . S
C437 C445 1.433 . S
C438 H434 0.929 . S
C438 C440 1.378 . S
C438 C442 1.350 . S
C439 C442 1.463 . S
C439 C444 1.350 . S
C439 N447 1.427 . S
C440 H431 0.930 . S
C440 C438 1.378 . S
C440 C441 1.367 . S
C441 C440 1.367 . S
C441 C443 1.433 . S
C442 C438 1.350 . S
C442 C439 1.463 . S
C442 N446 1.427 . S
C443 H433 0.929 . S
C443 C441 1.433 . S
C443 N446 1.384 . S
C444 H435 0.929 . S
C444 C436 1.378 . S
C444 C439 1.350 . S
C445 H432 0.929 . S
C445 C437 1.433 . S
C445 N447 1.384 . S
N446 C442 1.427 . S
N446 C443 1.384 . S
N447 C439 1.427 . S
N447 C445 1.384 . S
H448 C454 0.930 . S
H449 C458 0.930 . S
H450 C463 0.929 . S
H451 C461 0.929 . S
H452 C456 0.929 . S
H453 C462 0.929 . S
C454 H448 0.930 . S
C454 C455 1.367 . S
C454 C462 1.378 . S
C455 C454 1.367 . S
C455 C463 1.433 . S
C456 H452 0.929 . S
C456 C458 1.378 . S
C456 C460 1.350 . S
C457 C460 1.463 . S
C457 C462 1.350 . S
C457 N465 1.427 . S
C458 H449 0.930 . S
C458 C456 1.378 . S
C458 C459 1.367 . S
C459 C458 1.367 . S
C459 C461 1.433 . S
C460 C456 1.350 . S
C460 C457 1.463 . S
C460 N464 1.427 . S
C461 H451 0.929 . S
C461 C459 1.433 . S
C461 N464 1.384 . S
C462 H453 0.929 . S
C462 C454 1.378 . S
C462 C457 1.350 . S
C463 H450 0.929 . S
C463 C455 1.433 . S
C463 N465 1.384 . S
N464 C460 1.427 . S
N464 C461 1.384 . S
N465 C457 1.427 . S
N465 C463 1.384 . S
H466 C472 0.930 . S
H467 C476 0.930 . S
H468 C481 0.929 . S
H469 C479 0.929 . S
H470 C474 0.929 . S
H471 C480 0.929 . S
C472 H466 0.930 . S
C472 C473 1.367 . S
C472 C480 1.378 . S
C473 C472 1.367 . S
C473 C481 1.433 . S
C474 H470 0.929 . S
C474 C476 1.378 . S
C474 C478 1.350 . S
C475 C478 1.463 . S
C475 C480 1.350 . S
C475 N483 1.427 . S
C476 H467 0.930 . S
C476 C474 1.378 . S
C476 C477 1.367 . S
C477 C476 1.367 . S
C477 C479 1.433 . S
C478 C474 1.350 . S
C478 C475 1.463 . S
C478 N482 1.427 . S
C479 H469 0.929 . S
C479 C477 1.433 . S
C479 N482 1.384 . S
C480 H471 0.929 . S
C480 C472 1.378 . S
C480 C475 1.350 . S
C481 H468 0.929 . S
C481 C473 1.433 . S
C481 N483 1.384 . S
N482 C478 1.427 . S
N482 C479 1.384 . S
N483 C475 1.427 . S
N483 C481 1.384 . S
H484 C490 0.930 . S
H485 C494 0.930 . S
H486 C499 0.929 . S
H487 C497 0.929 . S
H488 C492 0.929 . S
H489 C498 0.929 . S
C490 H484 0.930 . S
C490 C491 1.367 . S
C490 C498 1.378 . S
C491 C490 1.367 . S
C491 C499 1.433 . S
C492 H488 0.929 . S
C492 C494 1.378 . S
C492 C496 1.350 . S
C493 C496 1.463 . S
C493 C498 1.350 . S
C493 N501 1.427 . S
C494 H485 0.930 . S
C494 C492 1.378 . S
C494 C495 1.367 . S
C495 C494 1.367 . S
C495 C497 1.433 . S
C496 C492 1.350 . S
C496 C493 1.463 . S
C496 N500 1.427 . S
C497 H487 0.929 . S
C497 C495 1.433 . S
C497 N500 1.384 . S
C498 H489 0.929 . S
C498 C490 1.378 . S
C498 C493 1.350 . S
C499 H486 0.929 . S
C499 C491 1.433 . S
C499 N501 1.384 . S
N500 C496 1.427 . S
N500 C497 1.384 . S
N501 C493 1.427 . S
N501 C499 1.384 . S
H502 C508 0.930 . S
H503 C512 0.930 . S
H504 C517 0.929 . S
H505 C515 0.929 . S
H506 C510 0.929 . S
H507 C516 0.929 . S
C508 H502 0.930 . S
C508 C509 1.367 . S
C508 C516 1.378 . S
C509 C508 1.367 . S
C509 C517 1.433 . S
C510 H506 0.929 . S
C510 C512 1.378 . S
C510 C514 1.350 . S
C511 C514 1.463 . S
C511 C516 1.350 . S
C511 N519 1.427 . S
C512 H503 0.930 . S
C512 C510 1.378 . S
C512 C513 1.367 . S
C513 C512 1.367 . S
C513 C515 1.433 . S
C514 C510 1.350 . S
C514 C511 1.463 . S
C514 N518 1.427 . S
C515 H505 0.929 . S
C515 C513 1.433 . S
C515 N518 1.384 . S
C516 H507 0.929 . S
C516 C508 1.378 . S
C516 C511 1.350 . S
C517 H504 0.929 . S
C517 C509 1.433 . S
C517 N519 1.384 . S
N518 C514 1.427 . S
N518 C515 1.384 . S
N519 C511 1.427 . S
N519 C517 1.384 . S
H520 C526 0.930 . S
H521 C530 0.930 . S
H522 C535 0.929 . S
H523 C533 0.929 . S
H524 C528 0.929 . S
H525 C534 0.929 . S
C526 H520 0.930 . S
C526 C527 1.367 . S
C526 C534 1.378 . S
C527 C526 1.367 . S
C527 C535 1.433 . S
C528 H524 0.929 . S
C528 C530 1.378 . S
C528 C532 1.350 . S
C529 C532 1.463 . S
C529 C534 1.350 . S
C529 N537 1.427 . S
C530 H521 0.930 . S
C530 C528 1.378 . S
C530 C531 1.367 . S
C531 C530 1.367 . S
C531 C533 1.433 . S
C532 C528 1.350 . S
C532 C529 1.463 . S
C532 N536 1.427 . S
C533 H523 0.929 . S
C533 C531 1.433 . S
C533 N536 1.384 . S
C534 H525 0.929 . S
C534 C526 1.378 . S
C534 C529 1.350 . S
C535 H522 0.929 . S
C535 C527 1.433 . S
C535 N537 1.384 . S
N536 C532 1.427 . S
N536 C533 1.384 . S
N537 C529 1.427 . S
N537 C535 1.384 . S
H538 C544 0.930 . S
H539 C548 0.930 . S
H540 C553 0.929 . S
H541 C551 0.929 . S
H542 C546 0.929 . S
H543 C552 0.929 . S
C544 H538 0.930 . S
C544 C545 1.367 . S
C544 C552 1.378 . S
C545 C544 1.367 . S
C545 C553 1.433 . S
C546 H542 0.929 . S
C546 C548 1.378 . S
C546 C550 1.350 . S
C547 C550 1.463 . S
C547 C552 1.350 . S
C547 N555 1.427 . S
C548 H539 0.930 . S
C548 C546 1.378 . S
C548 C549 1.367 . S
C549 C548 1.367 . S
C549 C551 1.433 . S
C550 C546 1.350 . S
C550 C547 1.463 . S
C550 N554 1.427 . S
C551 H541 0.929 . S
C551 C549 1.433 . S
C551 N554 1.384 . S
C552 H543 0.929 . S
C552 C544 1.378 . S
C552 C547 1.350 . S
C553 H540 0.929 . S
C553 C545 1.433 . S
C553 N555 1.384 . S
N554 C550 1.427 . S
N554 C551 1.384 . S
N555 C547 1.427 . S
N555 C553 1.384 . S
H556 C562 0.930 . S
H557 C566 0.930 . S
H558 C571 0.929 . S
H559 C569 0.929 . S
H560 C564 0.929 . S
H561 C570 0.929 . S
C562 H556 0.930 . S
C562 C563 1.367 . S
C562 C570 1.378 . S
C563 C562 1.367 . S
C563 C571 1.433 . S
C564 H560 0.929 . S
C564 C566 1.378 . S
C564 C568 1.350 . S
C565 C568 1.463 . S
C565 C570 1.350 . S
C565 N573 1.427 . S
C566 H557 0.930 . S
C566 C564 1.378 . S
C566 C567 1.367 . S
C567 C566 1.367 . S
C567 C569 1.433 . S
C568 C564 1.350 . S
C568 C565 1.463 . S
C568 N572 1.427 . S
C569 H559 0.929 . S
C569 C567 1.433 . S
C569 N572 1.384 . S
C570 H561 0.929 . S
C570 C562 1.378 . S
C570 C565 1.350 . S
C571 H558 0.929 . S
C571 C563 1.433 . S
C571 N573 1.384 . S
N572 C568 1.427 . S
N572 C569 1.384 . S
N573 C565 1.427 . S
N573 C571 1.384 . S
H574 C580 0.930 . S
H575 C584 0.930 . S
H576 C589 0.929 . S
H577 C587 0.929 . S
H578 C582 0.929 . S
H579 C588 0.929 . S
C580 H574 0.930 . S
C580 C581 1.367 . S
C580 C588 1.378 . S
C581 C580 1.367 . S
C581 C589 1.433 . S
C582 H578 0.929 . S
C582 C584 1.378 . S
C582 C586 1.350 . S
C583 C586 1.463 . S
C583 C588 1.350 . S
C583 N591 1.427 . S
C584 H575 0.930 . S
C584 C582 1.378 . S
C584 C585 1.367 . S
C585 C584 1.367 . S
C585 C587 1.433 . S
C586 C582 1.350 . S
C586 C583 1.463 . S
C586 N590 1.427 . S
C587 H577 0.929 . S
C587 C585 1.433 . S
C587 N590 1.384 . S
C588 H579 0.929 . S
C588 C580 1.378 . S
C588 C583 1.350 . S
C589 H576 0.929 . S
C589 C581 1.433 . S
C589 N591 1.384 . S
N590 C586 1.427 . S
N590 C587 1.384 . S
N591 C583 1.427 . S
N591 C589 1.384 . S
H592 C598 0.930 . S
H593 C602 0.930 . S
H594 C607 0.929 . S
H595 C605 0.929 . S
H596 C600 0.929 . S
H597 C606 0.929 . S
C598 H592 0.930 . S
C598 C599 1.367 . S
C598 C606 1.378 . S
C599 C598 1.367 . S
C599 C607 1.433 . S
C600 H596 0.929 . S
C600 C602 1.378 . S
C600 C604 1.350 . S
C601 C604 1.463 . S
C601 C606 1.350 . S
C601 N609 1.427 . S
C602 H593 0.930 . S
C602 C600 1.378 . S
C602 C603 1.367 . S
C603 C602 1.367 . S
C603 C605 1.433 . S
C604 C600 1.350 . S
C604 C601 1.463 . S
C604 N608 1.427 . S
C605 H595 0.929 . S
C605 C603 1.433 . S
C605 N608 1.384 . S
C606 H597 0.929 . S
C606 C598 1.378 . S
C606 C601 1.350 . S
C607 H594 0.929 . S
C607 C599 1.433 . S
C607 N609 1.384 . S
N608 C604 1.427 . S
N608 C605 1.384 . S
N609 C601 1.427 . S
N609 C607 1.384 . S
H610 C616 0.930 . S
H611 C620 0.930 . S
H612 C625 0.929 . S
H613 C623 0.929 . S
H614 C618 0.929 . S
H615 C624 0.929 . S
C616 H610 0.930 . S
C616 C617 1.367 . S
C616 C624 1.378 . S
C617 C616 1.367 . S
C617 C625 1.433 . S
C618 H614 0.929 . S
C618 C620 1.378 . S
C618 C622 1.350 . S
C619 C622 1.463 . S
C619 C624 1.350 . S
C619 N627 1.427 . S
C620 H611 0.930 . S
C620 C618 1.378 . S
C620 C621 1.367 . S
C621 C620 1.367 . S
C621 C623 1.433 . S
C622 C618 1.350 . S
C622 C619 1.463 . S
C622 N626 1.427 . S
C623 H613 0.929 . S
C623 C621 1.433 . S
C623 N626 1.384 . S
C624 H615 0.929 . S
C624 C616 1.378 . S
C624 C619 1.350 . S
C625 H612 0.929 . S
C625 C617 1.433 . S
C625 N627 1.384 . S
N626 C622 1.427 . S
N626 C623 1.384 . S
N627 C619 1.427 . S
N627 C625 1.384 . S
H628 C634 0.930 . S
H629 C638 0.930 . S
H630 C643 0.929 . S
H631 C641 0.929 . S
H632 C636 0.929 . S
H633 C642 0.929 . S
C634 H628 0.930 . S
C634 C635 1.367 . S
C634 C642 1.378 . S
C635 C634 1.367 . S
C635 C643 1.433 . S
C636 H632 0.929 . S
C636 C638 1.378 . S
C636 C640 1.350 . S
C637 C640 1.463 . S
C637 C642 1.350 . S
C637 N645 1.427 . S
C638 H629 0.930 . S
C638 C636 1.378 . S
C638 C639 1.367 . S
C639 C638 1.367 . S
C639 C641 1.433 . S
C640 C636 1.350 . S
C640 C637 1.463 . S
C640 N644 1.427 . S
C641 H631 0.929 . S
C641 C639 1.433 . S
C641 N644 1.384 . S
C642 H633 0.929 . S
C642 C634 1.378 . S
C642 C637 1.350 . S
C643 H630 0.929 . S
C643 C635 1.433 . S
C643 N645 1.384 . S
N644 C640 1.427 . S
N644 C641 1.384 . S
N645 C637 1.427 . S
N645 C643 1.384 . S
H646 C652 0.930 . S
H647 C656 0.930 . S
H648 C661 0.929 . S
H649 C659 0.929 . S
H650 C654 0.929 . S
H651 C660 0.929 . S
C652 H646 0.930 . S
C652 C653 1.367 . S
C652 C660 1.378 . S
C653 C652 1.367 . S
C653 C661 1.433 . S
C654 H650 0.929 . S
C654 C656 1.378 . S
C654 C658 1.350 . S
C655 C658 1.463 . S
C655 C660 1.350 . S
C655 N663 1.427 . S
C656 H647 0.930 . S
C656 C654 1.378 . S
C656 C657 1.367 . S
C657 C656 1.367 . S
C657 C659 1.433 . S
C658 C654 1.350 . S
C658 C655 1.463 . S
C658 N662 1.427 . S
C659 H649 0.929 . S
C659 C657 1.433 . S
C659 N662 1.384 . S
C660 H651 0.929 . S
C660 C652 1.378 . S
C660 C655 1.350 . S
C661 H648 0.929 . S
C661 C653 1.433 . S
C661 N663 1.384 . S
N662 C658 1.427 . S
N662 C659 1.384 . S
N663 C655 1.427 . S
N663 C661 1.384 . S
C239 C5 0.945 . S
C243 C87 0.949 . S
C257 C14 1.374 . S
C261 C131 1.383 . S
C279 C161 2.174 . S
C275 C25 2.172 . S
C293 C34 2.764 . S
C297 C202 2.716 . S
C315 C118 0.700 . S
C311 C7 0.707 . S
C333 C82 2.286 . S
C329 C13 2.262 . S
C351 C210 1.124 . S
C347 C23 1.124 . S
C369 C171 2.197 . S
C365 C31 2.252 . S
C383 C4 0.985 . S
C387 C207 1.002 . S
C405 C121 2.000 . S
C401 C22 2.047 . S
C419 C32 2.008 . S
C423 C90 1.959 . S
C437 C16 1.840 . S
C441 C158 1.843 . S
C459 C78 0.933 . S
C455 C41 0.919 . S
C473 C50 1.379 . S
C477 C122 1.390 . S
C491 C61 2.171 . S
C495 C170 2.169 . S
C509 C67 2.775 . S
C513 C211 2.721 . S
C527 C40 0.719 . S
C531 C127 0.725 . S
C549 C91 2.262 . S
C545 C52 2.241 . S
C567 C201 1.130 . S
C563 C59 1.135 . S
C585 C162 2.198 . S
C581 C70 2.253 . S
C599 C43 0.993 . S
C603 C198 1.007 . S
C621 C130 2.011 . S
C617 C58 2.061 . S
C639 C81 1.950 . S
C635 C68 1.990 . S
C653 C49 1.850 . S
C657 C167 1.846 . S
