# Generated by pormake.
# Topology tbo, (3,4)-cn, num edge types: 1
# Building blocks:
#     Node 0, Type 0, BuildingBlock: WUSLED_clean_sbu_0, # of connection points: 3
#     Node 1, Type 0, BuildingBlock: WUSLED_clean_sbu_0, # of connection points: 3
#     Node 2, Type 0, BuildingBlock: WUSLED_clean_sbu_0, # of connection points: 3
#     Node 3, Type 0, BuildingBlock: WUSLED_clean_sbu_0, # of connection points: 3
#     Node 4, Type 0, BuildingBlock: WUSLED_clean_sbu_0, # of connection points: 3
#     Node 5, Type 0, BuildingBlock: WUSLED_clean_sbu_0, # of connection points: 3
#     Node 6, Type 0, BuildingBlock: WUSLED_clean_sbu_0, # of connection points: 3
#     Node 7, Type 0, BuildingBlock: WUSLED_clean_sbu_0, # of connection points: 3
#     Node 8, Type 0, BuildingBlock: WUSLED_clean_sbu_0, # of connection points: 3
#     Node 9, Type 0, BuildingBlock: WUSLED_clean_sbu_0, # of connection points: 3
#     Node 10, Type 0, BuildingBlock: WUSLED_clean_sbu_0, # of connection points: 3
#     Node 11, Type 0, BuildingBlock: WUSLED_clean_sbu_0, # of connection points: 3
#     Node 12, Type 0, BuildingBlock: WUSLED_clean_sbu_0, # of connection points: 3
#     Node 13, Type 0, BuildingBlock: WUSLED_clean_sbu_0, # of connection points: 3
#     Node 14, Type 0, BuildingBlock: WUSLED_clean_sbu_0, # of connection points: 3
#     Node 15, Type 0, BuildingBlock: WUSLED_clean_sbu_0, # of connection points: 3
#     Node 16, Type 0, BuildingBlock: WUSLED_clean_sbu_0, # of connection points: 3
#     Node 17, Type 0, BuildingBlock: WUSLED_clean_sbu_0, # of connection points: 3
#     Node 18, Type 0, BuildingBlock: WUSLED_clean_sbu_0, # of connection points: 3
#     Node 19, Type 0, BuildingBlock: WUSLED_clean_sbu_0, # of connection points: 3
#     Node 20, Type 0, BuildingBlock: WUSLED_clean_sbu_0, # of connection points: 3
#     Node 21, Type 0, BuildingBlock: WUSLED_clean_sbu_0, # of connection points: 3
#     Node 22, Type 0, BuildingBlock: WUSLED_clean_sbu_0, # of connection points: 3
#     Node 23, Type 0, BuildingBlock: WUSLED_clean_sbu_0, # of connection points: 3
#     Node 24, Type 0, BuildingBlock: WUSLED_clean_sbu_0, # of connection points: 3
#     Node 25, Type 0, BuildingBlock: WUSLED_clean_sbu_0, # of connection points: 3
#     Node 26, Type 0, BuildingBlock: WUSLED_clean_sbu_0, # of connection points: 3
#     Node 27, Type 0, BuildingBlock: WUSLED_clean_sbu_0, # of connection points: 3
#     Node 28, Type 0, BuildingBlock: WUSLED_clean_sbu_0, # of connection points: 3
#     Node 29, Type 0, BuildingBlock: WUSLED_clean_sbu_0, # of connection points: 3
#     Node 30, Type 0, BuildingBlock: WUSLED_clean_sbu_0, # of connection points: 3
#     Node 31, Type 0, BuildingBlock: WUSLED_clean_sbu_0, # of connection points: 3
#     Node 32, Type 1, BuildingBlock: MUDLON_clean_linker_0, # of connection points: 4
#     Node 33, Type 1, BuildingBlock: MUDLON_clean_linker_0, # of connection points: 4
#     Node 34, Type 1, BuildingBlock: MUDLON_clean_linker_0, # of connection points: 4
#     Node 35, Type 1, BuildingBlock: MUDLON_clean_linker_0, # of connection points: 4
#     Node 36, Type 1, BuildingBlock: MUDLON_clean_linker_0, # of connection points: 4
#     Node 37, Type 1, BuildingBlock: MUDLON_clean_linker_0, # of connection points: 4
#     Node 38, Type 1, BuildingBlock: MUDLON_clean_linker_0, # of connection points: 4
#     Node 39, Type 1, BuildingBlock: MUDLON_clean_linker_0, # of connection points: 4
#     Node 40, Type 1, BuildingBlock: MUDLON_clean_linker_0, # of connection points: 4
#     Node 41, Type 1, BuildingBlock: MUDLON_clean_linker_0, # of connection points: 4
#     Node 42, Type 1, BuildingBlock: MUDLON_clean_linker_0, # of connection points: 4
#     Node 43, Type 1, BuildingBlock: MUDLON_clean_linker_0, # of connection points: 4
#     Node 44, Type 1, BuildingBlock: MUDLON_clean_linker_0, # of connection points: 4
#     Node 45, Type 1, BuildingBlock: MUDLON_clean_linker_0, # of connection points: 4
#     Node 46, Type 1, BuildingBlock: MUDLON_clean_linker_0, # of connection points: 4
#     Node 47, Type 1, BuildingBlock: MUDLON_clean_linker_0, # of connection points: 4
#     Node 48, Type 1, BuildingBlock: MUDLON_clean_linker_0, # of connection points: 4
#     Node 49, Type 1, BuildingBlock: MUDLON_clean_linker_0, # of connection points: 4
#     Node 50, Type 1, BuildingBlock: MUDLON_clean_linker_0, # of connection points: 4
#     Node 51, Type 1, BuildingBlock: MUDLON_clean_linker_0, # of connection points: 4
#     Node 52, Type 1, BuildingBlock: MUDLON_clean_linker_0, # of connection points: 4
#     Node 53, Type 1, BuildingBlock: MUDLON_clean_linker_0, # of connection points: 4
#     Node 54, Type 1, BuildingBlock: MUDLON_clean_linker_0, # of connection points: 4
#     Node 55, Type 1, BuildingBlock: MUDLON_clean_linker_0, # of connection points: 4
#     Edge 56, Type (0, 1), BuildingBlock: OJICUG_clean_linker_0, # of connection points: 2
#     Edge 57, Type (0, 1), BuildingBlock: OJICUG_clean_linker_0, # of connection points: 2
#     Edge 58, Type (0, 1), BuildingBlock: OJICUG_clean_linker_0, # of connection points: 2
#     Edge 59, Type (0, 1), BuildingBlock: OJICUG_clean_linker_0, # of connection points: 2
#     Edge 60, Type (0, 1), BuildingBlock: OJICUG_clean_linker_0, # of connection points: 2
#     Edge 61, Type (0, 1), BuildingBlock: OJICUG_clean_linker_0, # of connection points: 2
#     Edge 62, Type (0, 1), BuildingBlock: OJICUG_clean_linker_0, # of connection points: 2
#     Edge 63, Type (0, 1), BuildingBlock: OJICUG_clean_linker_0, # of connection points: 2
#     Edge 64, Type (0, 1), BuildingBlock: OJICUG_clean_linker_0, # of connection points: 2
#     Edge 65, Type (0, 1), BuildingBlock: OJICUG_clean_linker_0, # of connection points: 2
#     Edge 66, Type (0, 1), BuildingBlock: OJICUG_clean_linker_0, # of connection points: 2
#     Edge 67, Type (0, 1), BuildingBlock: OJICUG_clean_linker_0, # of connection points: 2
#     Edge 68, Type (0, 1), BuildingBlock: OJICUG_clean_linker_0, # of connection points: 2
#     Edge 69, Type (0, 1), BuildingBlock: OJICUG_clean_linker_0, # of connection points: 2
#     Edge 70, Type (0, 1), BuildingBlock: OJICUG_clean_linker_0, # of connection points: 2
#     Edge 71, Type (0, 1), BuildingBlock: OJICUG_clean_linker_0, # of connection points: 2
#     Edge 72, Type (0, 1), BuildingBlock: OJICUG_clean_linker_0, # of connection points: 2
#     Edge 73, Type (0, 1), BuildingBlock: OJICUG_clean_linker_0, # of connection points: 2
#     Edge 74, Type (0, 1), BuildingBlock: OJICUG_clean_linker_0, # of connection points: 2
#     Edge 75, Type (0, 1), BuildingBlock: OJICUG_clean_linker_0, # of connection points: 2
#     Edge 76, Type (0, 1), BuildingBlock: OJICUG_clean_linker_0, # of connection points: 2
#     Edge 77, Type (0, 1), BuildingBlock: OJICUG_clean_linker_0, # of connection points: 2
#     Edge 78, Type (0, 1), BuildingBlock: OJICUG_clean_linker_0, # of connection points: 2
#     Edge 79, Type (0, 1), BuildingBlock: OJICUG_clean_linker_0, # of connection points: 2
#     Edge 80, Type (0, 1), BuildingBlock: OJICUG_clean_linker_0, # of connection points: 2
#     Edge 81, Type (0, 1), BuildingBlock: OJICUG_clean_linker_0, # of connection points: 2
#     Edge 82, Type (0, 1), BuildingBlock: OJICUG_clean_linker_0, # of connection points: 2
#     Edge 83, Type (0, 1), BuildingBlock: OJICUG_clean_linker_0, # of connection points: 2
#     Edge 84, Type (0, 1), BuildingBlock: OJICUG_clean_linker_0, # of connection points: 2
#     Edge 85, Type (0, 1), BuildingBlock: OJICUG_clean_linker_0, # of connection points: 2
#     Edge 86, Type (0, 1), BuildingBlock: OJICUG_clean_linker_0, # of connection points: 2
#     Edge 87, Type (0, 1), BuildingBlock: OJICUG_clean_linker_0, # of connection points: 2
#     Edge 88, Type (0, 1), BuildingBlock: OJICUG_clean_linker_0, # of connection points: 2
#     Edge 89, Type (0, 1), BuildingBlock: OJICUG_clean_linker_0, # of connection points: 2
#     Edge 90, Type (0, 1), BuildingBlock: OJICUG_clean_linker_0, # of connection points: 2
#     Edge 91, Type (0, 1), BuildingBlock: OJICUG_clean_linker_0, # of connection points: 2
#     Edge 92, Type (0, 1), BuildingBlock: OJICUG_clean_linker_0, # of connection points: 2
#     Edge 93, Type (0, 1), BuildingBlock: OJICUG_clean_linker_0, # of connection points: 2
#     Edge 94, Type (0, 1), BuildingBlock: OJICUG_clean_linker_0, # of connection points: 2
#     Edge 95, Type (0, 1), BuildingBlock: OJICUG_clean_linker_0, # of connection points: 2
#     Edge 96, Type (0, 1), BuildingBlock: OJICUG_clean_linker_0, # of connection points: 2
#     Edge 97, Type (0, 1), BuildingBlock: OJICUG_clean_linker_0, # of connection points: 2
#     Edge 98, Type (0, 1), BuildingBlock: OJICUG_clean_linker_0, # of connection points: 2
#     Edge 99, Type (0, 1), BuildingBlock: OJICUG_clean_linker_0, # of connection points: 2
#     Edge 100, Type (0, 1), BuildingBlock: OJICUG_clean_linker_0, # of connection points: 2
#     Edge 101, Type (0, 1), BuildingBlock: OJICUG_clean_linker_0, # of connection points: 2
#     Edge 102, Type (0, 1), BuildingBlock: OJICUG_clean_linker_0, # of connection points: 2
#     Edge 103, Type (0, 1), BuildingBlock: OJICUG_clean_linker_0, # of connection points: 2
#     Edge 104, Type (0, 1), BuildingBlock: OJICUG_clean_linker_0, # of connection points: 2
#     Edge 105, Type (0, 1), BuildingBlock: OJICUG_clean_linker_0, # of connection points: 2
#     Edge 106, Type (0, 1), BuildingBlock: OJICUG_clean_linker_0, # of connection points: 2
#     Edge 107, Type (0, 1), BuildingBlock: OJICUG_clean_linker_0, # of connection points: 2
#     Edge 108, Type (0, 1), BuildingBlock: OJICUG_clean_linker_0, # of connection points: 2
#     Edge 109, Type (0, 1), BuildingBlock: OJICUG_clean_linker_0, # of connection points: 2
#     Edge 110, Type (0, 1), BuildingBlock: OJICUG_clean_linker_0, # of connection points: 2
#     Edge 111, Type (0, 1), BuildingBlock: OJICUG_clean_linker_0, # of connection points: 2
#     Edge 112, Type (0, 1), BuildingBlock: OJICUG_clean_linker_0, # of connection points: 2
#     Edge 113, Type (0, 1), BuildingBlock: OJICUG_clean_linker_0, # of connection points: 2
#     Edge 114, Type (0, 1), BuildingBlock: OJICUG_clean_linker_0, # of connection points: 2
#     Edge 115, Type (0, 1), BuildingBlock: OJICUG_clean_linker_0, # of connection points: 2
#     Edge 116, Type (0, 1), BuildingBlock: OJICUG_clean_linker_0, # of connection points: 2
#     Edge 117, Type (0, 1), BuildingBlock: OJICUG_clean_linker_0, # of connection points: 2
#     Edge 118, Type (0, 1), BuildingBlock: OJICUG_clean_linker_0, # of connection points: 2
#     Edge 119, Type (0, 1), BuildingBlock: OJICUG_clean_linker_0, # of connection points: 2
#     Edge 120, Type (0, 1), BuildingBlock: OJICUG_clean_linker_0, # of connection points: 2
#     Edge 121, Type (0, 1), BuildingBlock: OJICUG_clean_linker_0, # of connection points: 2
#     Edge 122, Type (0, 1), BuildingBlock: OJICUG_clean_linker_0, # of connection points: 2
#     Edge 123, Type (0, 1), BuildingBlock: OJICUG_clean_linker_0, # of connection points: 2
#     Edge 124, Type (0, 1), BuildingBlock: OJICUG_clean_linker_0, # of connection points: 2
#     Edge 125, Type (0, 1), BuildingBlock: OJICUG_clean_linker_0, # of connection points: 2
#     Edge 126, Type (0, 1), BuildingBlock: OJICUG_clean_linker_0, # of connection points: 2
#     Edge 127, Type (0, 1), BuildingBlock: OJICUG_clean_linker_0, # of connection points: 2
#     Edge 128, Type (0, 1), BuildingBlock: OJICUG_clean_linker_0, # of connection points: 2
#     Edge 129, Type (0, 1), BuildingBlock: OJICUG_clean_linker_0, # of connection points: 2
#     Edge 130, Type (0, 1), BuildingBlock: OJICUG_clean_linker_0, # of connection points: 2
#     Edge 131, Type (0, 1), BuildingBlock: OJICUG_clean_linker_0, # of connection points: 2
#     Edge 132, Type (0, 1), BuildingBlock: OJICUG_clean_linker_0, # of connection points: 2
#     Edge 133, Type (0, 1), BuildingBlock: OJICUG_clean_linker_0, # of connection points: 2
#     Edge 134, Type (0, 1), BuildingBlock: OJICUG_clean_linker_0, # of connection points: 2
#     Edge 135, Type (0, 1), BuildingBlock: OJICUG_clean_linker_0, # of connection points: 2
#     Edge 136, Type (0, 1), BuildingBlock: OJICUG_clean_linker_0, # of connection points: 2
#     Edge 137, Type (0, 1), BuildingBlock: OJICUG_clean_linker_0, # of connection points: 2
#     Edge 138, Type (0, 1), BuildingBlock: OJICUG_clean_linker_0, # of connection points: 2
#     Edge 139, Type (0, 1), BuildingBlock: OJICUG_clean_linker_0, # of connection points: 2
#     Edge 140, Type (0, 1), BuildingBlock: OJICUG_clean_linker_0, # of connection points: 2
#     Edge 141, Type (0, 1), BuildingBlock: OJICUG_clean_linker_0, # of connection points: 2
#     Edge 142, Type (0, 1), BuildingBlock: OJICUG_clean_linker_0, # of connection points: 2
#     Edge 143, Type (0, 1), BuildingBlock: OJICUG_clean_linker_0, # of connection points: 2
#     Edge 144, Type (0, 1), BuildingBlock: OJICUG_clean_linker_0, # of connection points: 2
#     Edge 145, Type (0, 1), BuildingBlock: OJICUG_clean_linker_0, # of connection points: 2
#     Edge 146, Type (0, 1), BuildingBlock: OJICUG_clean_linker_0, # of connection points: 2
#     Edge 147, Type (0, 1), BuildingBlock: OJICUG_clean_linker_0, # of connection points: 2
#     Edge 148, Type (0, 1), BuildingBlock: OJICUG_clean_linker_0, # of connection points: 2
#     Edge 149, Type (0, 1), BuildingBlock: OJICUG_clean_linker_0, # of connection points: 2
#     Edge 150, Type (0, 1), BuildingBlock: OJICUG_clean_linker_0, # of connection points: 2
#     Edge 151, Type (0, 1), BuildingBlock: OJICUG_clean_linker_0, # of connection points: 2
# Relax obj value: 0.002
# Max RMSD: 0.047
# Mean RMSD: 0.021
data_MOF--net-tbo--node1-WUSLED_clean_sbu_0--node2-MUDLON_clean_linker_0--edge1-OJICUG_clean_linker_0
_symmetry_space_group_name_H-M    P1
_symmetry_Int_Tables_number       1
_symmetry_cell_setting            triclinic
loop_
_symmetry_equiv_pos_as_xyz
'x, y, z'
_cell_length_a     98.906634
_cell_length_b     99.307901
_cell_length_c     99.024029
_cell_angle_alpha  89.48478
_cell_angle_beta   90.45279
_cell_angle_gamma 91.043225
loop_
_atom_site_label
_atom_site_type_symbol
_atom_site_fract_x
_atom_site_fract_y
_atom_site_fract_z
_atom_type_partial_charge
C0 C 0.19572 0.15039 0.20519 0.0
C1 C 0.20607 0.14546 0.19709 0.0
C2 C 0.21185 0.12899 0.21455 0.0
C3 C 0.21405 0.13481 0.20171 0.0
C4 C 0.20139 0.13396 0.22255 0.0
C5 C 0.19341 0.14455 0.21791 0.0
U6 U 0.18821 0.17993 0.18129 0.0
O7 O 0.16874 0.18672 0.17293 0.0
O8 O 0.18089 0.20014 0.18587 0.0
C9 C 0.16939 0.19823 0.17937 0.0
C10 C 0.18735 0.16171 0.20068 0.0
C11 C 0.15715 0.20198 0.18671 0.0
C12 C 0.14271 0.20066 0.20647 0.0
C13 C 0.15411 0.19644 0.19944 0.0
C14 C 0.13717 0.21577 0.18798 0.0
C15 C 0.13413 0.21045 0.20085 0.0
C16 C 0.14855 0.21157 0.181 0.0
C17 C 0.21232 0.18841 0.1522 0.0
C18 C 0.20791 0.20588 0.13546 0.0
C19 C 0.22957 0.19487 0.13594 0.0
C20 C 0.22527 0.18692 0.14687 0.0
C21 C 0.22096 0.20448 0.13008 0.0
C22 C 0.20364 0.19793 0.14643 0.0
C23 C 0.20814 0.18011 0.16389 0.0
O24 O 0.19287 0.17375 0.20219 0.0
O25 O 0.18113 0.16021 0.189 0.0
O26 O 0.19697 0.1729 0.16231 0.0
O27 O 0.2089 0.18613 0.17564 0.0
H28 H 0.20804 0.1499 0.18725 0.0
H29 H 0.2221 0.13132 0.19535 0.0
H30 H 0.19931 0.12961 0.2324 0.0
H31 H 0.18545 0.14821 0.22429 0.0
H32 H 0.14061 0.19625 0.21629 0.0
H33 H 0.16063 0.18898 0.20399 0.0
H34 H 0.13094 0.22346 0.18343 0.0
H35 H 0.15077 0.21598 0.1712 0.0
H36 H 0.20096 0.21306 0.13113 0.0
H37 H 0.23975 0.19366 0.13225 0.0
H38 H 0.23213 0.17967 0.15126 0.0
H39 H 0.19359 0.19923 0.15044 0.0
C40 C 0.81463 0.19089 0.15534 0.0
C41 C 0.82232 0.19204 0.14348 0.0
C42 C 0.80574 0.20714 0.13347 0.0
C43 C 0.81791 0.20007 0.13267 0.0
C44 C 0.79814 0.20602 0.1454 0.0
C45 C 0.8025 0.19794 0.15616 0.0
U46 U 0.8387 0.18101 0.18438 0.0
O47 O 0.83412 0.1739 0.20494 0.0
O48 O 0.84513 0.16088 0.19118 0.0
C49 C 0.83894 0.16185 0.20282 0.0
C50 C 0.81876 0.18208 0.16676 0.0
C51 C 0.83015 0.15028 0.20672 0.0
C52 C 0.80814 0.1407 0.21268 0.0
C53 C 0.81614 0.15164 0.20833 0.0
C54 C 0.82794 0.12673 0.21351 0.0
C55 C 0.81395 0.1281 0.21542 0.0
C56 C 0.83595 0.13771 0.20925 0.0
C57 C 0.87036 0.20281 0.19143 0.0
C58 C 0.88748 0.19719 0.20821 0.0
C59 C 0.88783 0.21922 0.19748 0.0
C60 C 0.87638 0.2156 0.18989 0.0
C61 C 0.89353 0.21008 0.20676 0.0
C62 C 0.87597 0.1936 0.20062 0.0
C63 C 0.85806 0.19946 0.18361 0.0
O64 O 0.82957 0.17478 0.16505 0.0
O65 O 0.81817 0.1874 0.17884 0.0
O66 O 0.84662 0.20104 0.19001 0.0
O67 O 0.85832 0.18828 0.17661 0.0
H68 H 0.83168 0.18668 0.14246 0.0
H69 H 0.82394 0.20054 0.12359 0.0
H70 H 0.78884 0.21148 0.1465 0.0
H71 H 0.79635 0.1972 0.16515 0.0
H72 H 0.79746 0.14222 0.21421 0.0
H73 H 0.81136 0.16121 0.20641 0.0
H74 H 0.83275 0.11716 0.21528 0.0
H75 H 0.84672 0.13641 0.20803 0.0
H76 H 0.89166 0.18986 0.21515 0.0
H77 H 0.89203 0.2293 0.19626 0.0
H78 H 0.87211 0.22287 0.18291 0.0
H79 H 0.87142 0.18368 0.20197 0.0
C80 C 0.81458 0.83713 0.15381 0.0
C81 C 0.8221 0.82669 0.14828 0.0
C82 C 0.80456 0.82284 0.13116 0.0
C83 C 0.81712 0.8196 0.13704 0.0
C84 C 0.79712 0.83331 0.13683 0.0
C85 C 0.80209 0.84037 0.14801 0.0
U86 U 0.83948 0.84378 0.1832 0.0
O87 O 0.84733 0.86316 0.19093 0.0
O88 O 0.83519 0.84982 0.20402 0.0
C89 C 0.84122 0.86165 0.20259 0.0
C90 C 0.81946 0.84474 0.16563 0.0
C91 C 0.83353 0.87327 0.20723 0.0
C92 C 0.81316 0.88664 0.20732 0.0
C93 C 0.82046 0.87582 0.20232 0.0
C94 C 0.83202 0.8926 0.22198 0.0
C95 C 0.81883 0.89514 0.21728 0.0
C96 C 0.83927 0.88178 0.217 0.0
C97 C 0.8698 0.82119 0.18961 0.0
C98 C 0.88635 0.82573 0.20736 0.0
C99 C 0.88729 0.805 0.19472 0.0
C100 C 0.87601 0.8089 0.18712 0.0
C101 C 0.8926 0.81334 0.20498 0.0
C102 C 0.87504 0.8296 0.19976 0.0
C103 C 0.85772 0.82494 0.18174 0.0
O104 O 0.81858 0.83841 0.17731 0.0
O105 O 0.83093 0.85146 0.16412 0.0
O106 O 0.85861 0.83642 0.17507 0.0
O107 O 0.84614 0.82324 0.188 0.0
H108 H 0.83178 0.82405 0.15265 0.0
H109 H 0.82317 0.81168 0.1329 0.0
H110 H 0.7873 0.83593 0.13277 0.0
H111 H 0.79612 0.84835 0.15219 0.0
H112 H 0.80309 0.88838 0.20338 0.0
H113 H 0.81588 0.86936 0.19473 0.0
H114 H 0.83663 0.89877 0.22977 0.0
H115 H 0.84933 0.87994 0.22094 0.0
H116 H 0.89023 0.83247 0.21506 0.0
H117 H 0.89167 0.79531 0.19273 0.0
H118 H 0.87205 0.80225 0.17937 0.0
H119 H 0.87036 0.83914 0.20183 0.0
C120 C 0.159 0.81406 0.18954 0.0
C121 C 0.16065 0.80748 0.20207 0.0
C122 C 0.13621 0.80623 0.20516 0.0
C123 C 0.14941 0.80363 0.20976 0.0
C124 C 0.13456 0.81275 0.19259 0.0
C125 C 0.14581 0.81657 0.18486 0.0
U126 U 0.18995 0.83654 0.18112 0.0
O127 O 0.2103 0.83103 0.17465 0.0
O128 O 0.19772 0.8436 0.16145 0.0
C129 C 0.20904 0.83696 0.1628 0.0
C130 C 0.17084 0.81781 0.18107 0.0
C131 C 0.21306 0.82894 0.15113 0.0
C132 C 0.21129 0.8088 0.13739 0.0
C133 C 0.20681 0.81649 0.14823 0.0
C134 C 0.22813 0.82606 0.13217 0.0
C135 C 0.22207 0.81347 0.12926 0.0
C136 C 0.22366 0.8337 0.14299 0.0
C137 C 0.19881 0.86674 0.20413 0.0
C138 C 0.21701 0.87633 0.21797 0.0
C139 C 0.203 0.89103 0.20445 0.0
C140 C 0.19561 0.87983 0.19976 0.0
C141 C 0.21373 0.88943 0.21371 0.0
C142 C 0.20962 0.86514 0.21328 0.0
C143 C 0.19029 0.85497 0.20002 0.0
O144 O 0.17 0.82909 0.17407 0.0
O145 O 0.18286 0.81612 0.18654 0.0
O146 O 0.19562 0.84302 0.20161 0.0
O147 O 0.18338 0.85615 0.18868 0.0
H148 H 0.17062 0.80519 0.20594 0.0
H149 H 0.15109 0.79839 0.21925 0.0
H150 H 0.12456 0.81502 0.18876 0.0
H151 H 0.14419 0.82148 0.17519 0.0
H152 H 0.20632 0.79922 0.13536 0.0
H153 H 0.19859 0.81267 0.15442 0.0
H154 H 0.23658 0.82988 0.12631 0.0
H155 H 0.22863 0.84326 0.14513 0.0
H156 H 0.22503 0.87471 0.22528 0.0
H157 H 0.20026 0.90095 0.20086 0.0
H158 H 0.18724 0.88147 0.19285 0.0
H159 H 0.21224 0.85526 0.21707 0.0
C160 C 0.15852 0.80802 0.83776 0.0
C161 C 0.14666 0.81563 0.83758 0.0
C162 C 0.13561 0.79946 0.8225 0.0
C163 C 0.13534 0.8114 0.83005 0.0
C164 C 0.1475 0.79188 0.8227 0.0
C165 C 0.15877 0.79608 0.83028 0.0
U166 U 0.18891 0.83153 0.84523 0.0
O167 O 0.19715 0.83879 0.86462 0.0
O168 O 0.20968 0.82669 0.85137 0.0
C169 C 0.20856 0.83239 0.86322 0.0
C170 C 0.17054 0.8121 0.8459 0.0
C171 C 0.21278 0.82413 0.87487 0.0
C172 C 0.21141 0.80347 0.88817 0.0
C173 C 0.20698 0.81135 0.87727 0.0
C174 C 0.22733 0.82118 0.89451 0.0
C175 C 0.22171 0.80825 0.8969 0.0
C176 C 0.2229 0.82902 0.8836 0.0
C177 C 0.19558 0.86184 0.82173 0.0
C178 C 0.2134 0.87863 0.82547 0.0
C179 C 0.20077 0.87856 0.80441 0.0
C180 C 0.19311 0.86748 0.80896 0.0
C181 C 0.21105 0.88423 0.81257 0.0
C182 C 0.20575 0.86748 0.83 0.0
C183 C 0.18764 0.84992 0.82604 0.0
O184 O 0.18231 0.81092 0.83997 0.0
O185 O 0.16967 0.82322 0.85293 0.0
O186 O 0.18133 0.85089 0.83762 0.0
O187 O 0.19361 0.83832 0.82455 0.0
H188 H 0.14605 0.82484 0.84331 0.0
H189 H 0.12632 0.8174 0.83031 0.0
H190 H 0.14818 0.78276 0.81687 0.0
H191 H 0.16773 0.78996 0.83029 0.0
H192 H 0.20697 0.79351 0.88959 0.0
H193 H 0.19913 0.80741 0.87061 0.0
H194 H 0.23513 0.82527 0.90112 0.0
H195 H 0.22745 0.8389 0.88193 0.0
H196 H 0.22133 0.88267 0.83195 0.0
H197 H 0.19858 0.88273 0.7945 0.0
H198 H 0.1853 0.86326 0.80245 0.0
H199 H 0.20784 0.86319 0.83988 0.0
C200 C 0.15289 0.18377 0.82373 0.0
C201 C 0.15036 0.19668 0.82867 0.0
C202 C 0.12992 0.19794 0.81474 0.0
C203 C 0.13898 0.20371 0.8242 0.0
C204 C 0.13243 0.18488 0.81005 0.0
C205 C 0.1438 0.17789 0.8145 0.0
U206 U 0.1846 0.17879 0.84577 0.0
O207 O 0.19354 0.16009 0.85352 0.0
O208 O 0.20507 0.17313 0.8396 0.0
C209 C 0.20439 0.16149 0.84599 0.0
C210 C 0.16514 0.17645 0.82766 0.0
C211 C 0.20852 0.14963 0.83815 0.0
C212 C 0.20441 0.12705 0.82938 0.0
C213 C 0.19998 0.13827 0.83648 0.0
C214 C 0.22587 0.1384 0.82536 0.0
C215 C 0.21745 0.12694 0.82377 0.0
C216 C 0.22148 0.14956 0.8325 0.0
C217 C 0.19301 0.20375 0.87424 0.0
C218 C 0.21145 0.20118 0.89042 0.0
C219 C 0.19904 0.22197 0.88947 0.0
C220 C 0.19091 0.21674 0.8791 0.0
C221 C 0.20946 0.21429 0.89524 0.0
C222 C 0.20332 0.19597 0.87997 0.0
C223 C 0.18441 0.19865 0.86313 0.0
O224 O 0.17666 0.18284 0.82537 0.0
O225 O 0.16482 0.1703 0.83946 0.0
O226 O 0.17829 0.18697 0.86526 0.0
O227 O 0.18959 0.19981 0.85099 0.0
H228 H 0.15726 0.20136 0.83584 0.0
H229 H 0.13729 0.21368 0.82812 0.0
H230 H 0.12582 0.18019 0.80263 0.0
H231 H 0.14562 0.16796 0.81054 0.0
H232 H 0.19768 0.11837 0.82849 0.0
H233 H 0.18992 0.138 0.84073 0.0
H234 H 0.23587 0.13883 0.82097 0.0
H235 H 0.22826 0.15818 0.83364 0.0
H236 H 0.21947 0.19505 0.89454 0.0
H237 H 0.1971 0.23203 0.89305 0.0
H238 H 0.18298 0.22289 0.87482 0.0
H239 H 0.20513 0.18592 0.8763 0.0
C240 C 0.81479 0.15116 0.83765 0.0
C241 C 0.82283 0.14651 0.82711 0.0
C242 C 0.80591 0.12909 0.8219 0.0
C243 C 0.81844 0.13554 0.81932 0.0
C244 C 0.79801 0.13374 0.8326 0.0
C245 C 0.80242 0.14466 0.84039 0.0
U246 U 0.83861 0.18109 0.84542 0.0
O247 O 0.83372 0.20178 0.851 0.0
O248 O 0.84523 0.18917 0.8651 0.0
C249 C 0.83874 0.2005 0.86327 0.0
C250 C 0.81891 0.16296 0.84567 0.0
C251 C 0.83009 0.20494 0.87453 0.0
C252 C 0.81067 0.21718 0.88267 0.0
C253 C 0.8183 0.2123 0.872 0.0
C254 C 0.82632 0.20737 0.8987 0.0
C255 C 0.81464 0.21487 0.89615 0.0
C256 C 0.83399 0.20252 0.88801 0.0
C257 C 0.86961 0.18815 0.82325 0.0
C258 C 0.88643 0.2057 0.8279 0.0
C259 C 0.88659 0.19405 0.80652 0.0
C260 C 0.8754 0.18626 0.81056 0.0
C261 C 0.89227 0.20389 0.81512 0.0
C262 C 0.87518 0.19792 0.83192 0.0
C263 C 0.85759 0.18007 0.82706 0.0
O264 O 0.8301 0.16177 0.8528 0.0
O265 O 0.81805 0.17464 0.83941 0.0
O266 O 0.84594 0.1859 0.82498 0.0
O267 O 0.85827 0.17367 0.83873 0.0
H268 H 0.8324 0.15147 0.82483 0.0
H269 H 0.8247 0.13231 0.81107 0.0
H270 H 0.78841 0.1289 0.83499 0.0
H271 H 0.7961 0.1481 0.8485 0.0
H272 H 0.80164 0.22278 0.88034 0.0
H273 H 0.815 0.21446 0.86176 0.0
H274 H 0.82974 0.20554 0.90896 0.0
H275 H 0.84312 0.19706 0.89031 0.0
H276 H 0.8906 0.21309 0.83483 0.0
H277 H 0.89061 0.19252 0.79652 0.0
H278 H 0.87116 0.17884 0.8037 0.0
H279 H 0.87081 0.19955 0.84175 0.0
C280 C 0.83539 0.86929 0.82006 0.0
C281 C 0.82399 0.87374 0.82696 0.0
C282 C 0.82127 0.89203 0.81055 0.0
C283 C 0.81698 0.88502 0.82224 0.0
C284 C 0.83278 0.88751 0.80378 0.0
C285 C 0.83975 0.87627 0.8085 0.0
U286 U 0.84072 0.839 0.84383 0.0
O287 O 0.84592 0.81818 0.8388 0.0
O288 O 0.85962 0.83032 0.85152 0.0
C289 C 0.85777 0.81901 0.84488 0.0
C290 C 0.84268 0.85722 0.82448 0.0
C291 C 0.86942 0.81381 0.8373 0.0
C292 C 0.89295 0.81526 0.83014 0.0
C293 C 0.8818 0.82098 0.83642 0.0
C294 C 0.8795 0.79527 0.82527 0.0
C295 C 0.89199 0.80225 0.82464 0.0
C296 C 0.86839 0.80096 0.83158 0.0
C297 C 0.81723 0.83201 0.87355 0.0
C298 C 0.81849 0.81139 0.88687 0.0
C299 C 0.80252 0.82851 0.89286 0.0
C300 C 0.80704 0.83654 0.88205 0.0
C301 C 0.80811 0.81578 0.89534 0.0
C302 C 0.82302 0.81944 0.87608 0.0
C303 C 0.82152 0.84034 0.86193 0.0
O304 O 0.84927 0.85815 0.83603 0.0
O305 O 0.83602 0.84573 0.82313 0.0
O306 O 0.81979 0.83472 0.85006 0.0
O307 O 0.83331 0.84654 0.86322 0.0
H308 H 0.82048 0.86845 0.83592 0.0
H309 H 0.80824 0.88828 0.82777 0.0
H310 H 0.83624 0.89246 0.79462 0.0
H311 H 0.84849 0.87292 0.803 0.0
H312 H 0.90243 0.82089 0.82994 0.0
H313 H 0.88297 0.83089 0.8408 0.0
H314 H 0.87827 0.78535 0.82093 0.0
H315 H 0.85901 0.79518 0.83215 0.0
H316 H 0.82313 0.80173 0.88859 0.0
H317 H 0.79442 0.83214 0.89908 0.0
H318 H 0.80244 0.84621 0.88022 0.0
H319 H 0.83095 0.81581 0.86965 0.0
C320 C 0.18932 0.65194 0.70524 0.0
C321 C 0.18837 0.63957 0.69846 0.0
C322 C 0.20427 0.62947 0.7144 0.0
C323 C 0.19577 0.62848 0.70296 0.0
C324 C 0.20525 0.64188 0.72111 0.0
C325 C 0.19782 0.65293 0.71664 0.0
U326 U 0.18117 0.68224 0.68203 0.0
O327 O 0.16149 0.68976 0.67498 0.0
O328 O 0.17483 0.70258 0.68741 0.0
C329 C 0.16297 0.7012 0.68145 0.0
C330 C 0.18105 0.66364 0.70109 0.0
C331 C 0.15125 0.7056 0.68924 0.0
C332 C 0.13789 0.70581 0.70977 0.0
C333 C 0.14869 0.70076 0.70236 0.0
C334 C 0.132 0.72029 0.69089 0.0
C335 C 0.12954 0.7158 0.70418 0.0
C336 C 0.14274 0.71525 0.68353 0.0
C337 C 0.20374 0.69091 0.65165 0.0
C338 C 0.20929 0.7128 0.64165 0.0
C339 C 0.2109 0.69266 0.62822 0.0
C340 C 0.20666 0.68485 0.6393 0.0
C341 C 0.21241 0.70674 0.62927 0.0
C342 C 0.20495 0.70499 0.65268 0.0
C343 C 0.19993 0.68236 0.66339 0.0
O344 O 0.18678 0.6756 0.70255 0.0
O345 O 0.17399 0.66255 0.68982 0.0
O346 O 0.18851 0.67547 0.66227 0.0
O347 O 0.20169 0.68774 0.67538 0.0
H348 H 0.18179 0.63837 0.68974 0.0
H349 H 0.19462 0.61905 0.69764 0.0
H350 H 0.21184 0.64312 0.72982 0.0
H351 H 0.19869 0.66227 0.72218 0.0
H352 H 0.13633 0.7022 0.72 0.0
H353 H 0.15517 0.69329 0.70694 0.0
H354 H 0.12564 0.72779 0.68619 0.0
H355 H 0.14453 0.71905 0.67339 0.0
H356 H 0.2105 0.72356 0.64296 0.0
H357 H 0.21298 0.68764 0.61882 0.0
H358 H 0.20576 0.67402 0.63824 0.0
H359 H 0.20275 0.70998 0.66208 0.0
C360 C 0.81767 0.69089 0.65783 0.0
C361 C 0.82627 0.70073 0.65206 0.0
C362 C 0.80873 0.70656 0.63567 0.0
C363 C 0.82185 0.70847 0.64104 0.0
C364 C 0.80022 0.69662 0.64149 0.0
C365 C 0.80467 0.68887 0.65245 0.0
U366 U 0.8416 0.68388 0.68758 0.0
O367 O 0.83691 0.67721 0.70827 0.0
O368 O 0.84924 0.66458 0.69534 0.0
C369 C 0.84284 0.66557 0.70686 0.0
C370 C 0.82197 0.68281 0.66957 0.0
C371 C 0.83478 0.65366 0.71099 0.0
C372 C 0.81435 0.63975 0.70958 0.0
C373 C 0.82204 0.65092 0.70522 0.0
C374 C 0.83217 0.63383 0.72535 0.0
C375 C 0.81929 0.6311 0.71977 0.0
C376 C 0.83983 0.64501 0.721 0.0
C377 C 0.87173 0.70737 0.69476 0.0
C378 C 0.88565 0.70502 0.71494 0.0
C379 C 0.89128 0.72212 0.69821 0.0
C380 C 0.88019 0.71796 0.69035 0.0
C381 C 0.89412 0.71577 0.71066 0.0
C382 C 0.87456 0.70086 0.70706 0.0
C383 C 0.85986 0.70339 0.68657 0.0
O384 O 0.83341 0.67642 0.66828 0.0
O385 O 0.82081 0.68865 0.68135 0.0
O386 O 0.84813 0.70453 0.69256 0.0
O387 O 0.86093 0.69208 0.67991 0.0
H388 H 0.83633 0.70248 0.65615 0.0
H389 H 0.82859 0.71613 0.63689 0.0
H390 H 0.79013 0.69478 0.63751 0.0
H391 H 0.79791 0.68131 0.65677 0.0
H392 H 0.80442 0.63806 0.70517 0.0
H393 H 0.81798 0.65751 0.69747 0.0
H394 H 0.83639 0.6273 0.73306 0.0
H395 H 0.84968 0.64695 0.72552 0.0
H396 H 0.8874 0.70001 0.72454 0.0
H397 H 0.89768 0.73029 0.69451 0.0
H398 H 0.87816 0.72306 0.68085 0.0
H399 H 0.8681 0.69267 0.71063 0.0
C400 C 0.82015 0.33273 0.65605 0.0
C401 C 0.82708 0.32124 0.65207 0.0
C402 C 0.81117 0.31789 0.63337 0.0
C403 C 0.82264 0.31389 0.6408 0.0
C404 C 0.80443 0.32956 0.63733 0.0
C405 C 0.80888 0.33689 0.64856 0.0
U406 U 0.8432 0.33902 0.68686 0.0
O407 O 0.85051 0.35815 0.69556 0.0
O408 O 0.83764 0.34445 0.70757 0.0
C409 C 0.84354 0.35639 0.70673 0.0
C410 C 0.82422 0.3403 0.66818 0.0
C411 C 0.83555 0.3679 0.71149 0.0
C412 C 0.82819 0.39116 0.70955 0.0
C413 C 0.83496 0.38013 0.70424 0.0
C414 C 0.82225 0.37786 0.72929 0.0
C415 C 0.8219 0.39022 0.72223 0.0
C416 C 0.82905 0.36689 0.72402 0.0
C417 C 0.87312 0.31594 0.6942 0.0
C418 C 0.88638 0.3168 0.71497 0.0
C419 C 0.89261 0.30163 0.69714 0.0
C420 C 0.88177 0.30615 0.68927 0.0
C421 C 0.89501 0.30681 0.71014 0.0
C422 C 0.87553 0.32132 0.70706 0.0
C423 C 0.86149 0.32017 0.68591 0.0
O424 O 0.82267 0.33384 0.67971 0.0
O425 O 0.83575 0.34706 0.66743 0.0
O426 O 0.86285 0.33188 0.67973 0.0
O427 O 0.84956 0.31837 0.69146 0.0
H428 H 0.83579 0.31786 0.65778 0.0
H429 H 0.82799 0.30489 0.63812 0.0
H430 H 0.7957 0.33305 0.63174 0.0
H431 H 0.80343 0.34576 0.65147 0.0
H432 H 0.82823 0.40054 0.70388 0.0
H433 H 0.83992 0.3813 0.69458 0.0
H434 H 0.81732 0.37666 0.73896 0.0
H435 H 0.82937 0.35762 0.72986 0.0
H436 H 0.88781 0.32091 0.72498 0.0
H437 H 0.89914 0.29409 0.693 0.0
H438 H 0.88008 0.30192 0.67933 0.0
H439 H 0.86894 0.3289 0.71105 0.0
C440 C 0.15538 0.30784 0.6943 0.0
C441 C 0.14221 0.31275 0.69251 0.0
C442 C 0.13346 0.29675 0.70927 0.0
C443 C 0.1314 0.30729 0.69994 0.0
C444 C 0.14667 0.29202 0.7112 0.0
C445 C 0.15746 0.29744 0.70377 0.0
U446 U 0.18394 0.33333 0.68553 0.0
O447 O 0.20473 0.32972 0.67894 0.0
O448 O 0.19088 0.34087 0.66572 0.0
C449 C 0.20282 0.3354 0.66705 0.0
C450 C 0.16678 0.31283 0.68583 0.0
C451 C 0.20762 0.32779 0.65539 0.0
C452 C 0.2073 0.30789 0.64121 0.0
C453 C 0.20208 0.31512 0.65204 0.0
C454 C 0.22346 0.32603 0.63692 0.0
C455 C 0.21818 0.31321 0.63361 0.0
C456 C 0.21823 0.33322 0.64769 0.0
C457 C 0.19012 0.36421 0.70772 0.0
C458 C 0.20939 0.37944 0.70463 0.0
C459 C 0.19303 0.38379 0.72207 0.0
C460 C 0.18566 0.37226 0.71828 0.0
C461 C 0.20505 0.38749 0.71535 0.0
C462 C 0.20199 0.3679 0.70085 0.0
C463 C 0.18249 0.35185 0.70423 0.0
O464 O 0.16483 0.32385 0.67866 0.0
O465 O 0.17889 0.31243 0.69138 0.0
O466 O 0.1891 0.34059 0.70587 0.0
O467 O 0.17555 0.3523 0.69287 0.0
H468 H 0.14018 0.32064 0.68519 0.0
H469 H 0.12134 0.31107 0.69806 0.0
H470 H 0.14869 0.28405 0.71844 0.0
H471 H 0.16743 0.29334 0.70533 0.0
H472 H 0.20307 0.29802 0.639 0.0
H473 H 0.19387 0.31077 0.65791 0.0
H474 H 0.23166 0.33053 0.63116 0.0
H475 H 0.22259 0.343 0.6501 0.0
H476 H 0.21868 0.38187 0.69935 0.0
H477 H 0.1893 0.38983 0.73024 0.0
H478 H 0.17649 0.36956 0.72368 0.0
H479 H 0.2056 0.36177 0.69268 0.0
C480 C 0.15353 0.30759 0.33525 0.0
C481 C 0.15102 0.31451 0.3231 0.0
C482 C 0.1322 0.2991 0.31802 0.0
C483 C 0.14046 0.31029 0.31455 0.0
C484 C 0.13466 0.29235 0.33034 0.0
C485 C 0.14524 0.29656 0.33885 0.0
U486 U 0.18285 0.33137 0.34467 0.0
O487 O 0.19006 0.33797 0.36469 0.0
O488 O 0.20345 0.32673 0.35152 0.0
C489 C 0.20166 0.33186 0.36355 0.0
C490 C 0.16494 0.31152 0.34406 0.0
C491 C 0.20548 0.32314 0.37499 0.0
C492 C 0.2038 0.30187 0.38724 0.0
C493 C 0.1997 0.31022 0.37657 0.0
C494 C 0.21928 0.31937 0.39503 0.0
C495 C 0.21371 0.30631 0.39656 0.0
C496 C 0.2152 0.32769 0.38433 0.0
C497 C 0.19022 0.36285 0.32291 0.0
C498 C 0.21173 0.37426 0.31843 0.0
C499 C 0.19085 0.38642 0.31595 0.0
C500 C 0.18353 0.37482 0.31977 0.0
C501 C 0.20505 0.38627 0.3151 0.0
C502 C 0.20441 0.36271 0.32235 0.0
C503 C 0.1822 0.35059 0.3263 0.0
O504 O 0.17695 0.31087 0.33854 0.0
O505 O 0.16333 0.32252 0.3511 0.0
O506 O 0.17526 0.35097 0.33755 0.0
O507 O 0.18814 0.33901 0.32447 0.0
H508 H 0.1573 0.32308 0.32018 0.0
H509 H 0.13874 0.31581 0.30523 0.0
H510 H 0.12862 0.28361 0.33324 0.0
H511 H 0.14707 0.29108 0.34818 0.0
H512 H 0.19918 0.29193 0.38822 0.0
H513 H 0.19211 0.30656 0.36947 0.0
H514 H 0.22703 0.32306 0.40192 0.0
H515 H 0.21978 0.33764 0.38325 0.0
H516 H 0.22262 0.37366 0.31772 0.0
H517 H 0.18536 0.39551 0.31369 0.0
H518 H 0.1726 0.37518 0.32017 0.0
H519 H 0.20986 0.35362 0.32474 0.0
C520 C 0.15007 0.68977 0.31853 0.0
C521 C 0.14716 0.70201 0.32474 0.0
C522 C 0.12871 0.70572 0.30869 0.0
C523 C 0.13655 0.70992 0.31988 0.0
C524 C 0.1316 0.69333 0.30266 0.0
C525 C 0.14218 0.68544 0.30754 0.0
U526 U 0.17997 0.68287 0.34231 0.0
O527 O 0.18703 0.6637 0.3509 0.0
O528 O 0.20028 0.67564 0.33756 0.0
C529 C 0.19847 0.66426 0.34423 0.0
C530 C 0.16149 0.68155 0.32312 0.0
C531 C 0.20201 0.65201 0.33687 0.0
C532 C 0.19699 0.63486 0.32008 0.0
C533 C 0.19327 0.64638 0.32714 0.0
C534 C 0.21822 0.63453 0.33244 0.0
C535 C 0.20955 0.6288 0.32262 0.0
C536 C 0.21447 0.646 0.33948 0.0
C537 C 0.18843 0.70775 0.37079 0.0
C538 C 0.20621 0.70439 0.38753 0.0
C539 C 0.1945 0.72559 0.38644 0.0
C540 C 0.18657 0.72075 0.37573 0.0
C541 C 0.20448 0.71752 0.39244 0.0
C542 C 0.19828 0.69956 0.37676 0.0
C543 C 0.18014 0.70307 0.35928 0.0
O544 O 0.17354 0.68705 0.3214 0.0
O545 O 0.16008 0.67561 0.33496 0.0
O546 O 0.17309 0.69188 0.36122 0.0
O547 O 0.18608 0.70363 0.34746 0.0
H548 H 0.1532 0.70552 0.33323 0.0
H549 H 0.13472 0.71946 0.32467 0.0
H550 H 0.12565 0.68969 0.29417 0.0
H551 H 0.14426 0.676 0.30265 0.0
H552 H 0.19 0.63067 0.31271 0.0
H553 H 0.18359 0.65091 0.32497 0.0
H554 H 0.22805 0.63033 0.3345 0.0
H555 H 0.22138 0.65027 0.34691 0.0
H556 H 0.21389 0.69797 0.39183 0.0
H557 H 0.19277 0.73567 0.39007 0.0
H558 H 0.179 0.7272 0.37126 0.0
H559 H 0.1999 0.6895 0.37302 0.0
C560 C 0.82158 0.65481 0.33574 0.0
C561 C 0.8305 0.64424 0.33338 0.0
C562 C 0.81296 0.63199 0.32077 0.0
C563 C 0.82623 0.63295 0.326 0.0
C564 C 0.8041 0.64263 0.32314 0.0
C565 C 0.80834 0.65386 0.33058 0.0
U566 U 0.84458 0.6857 0.34254 0.0
O567 O 0.83913 0.70611 0.34876 0.0
O568 O 0.85229 0.69391 0.36173 0.0
C569 C 0.84538 0.70505 0.36048 0.0
C570 C 0.82568 0.6668 0.34367 0.0
C571 C 0.83744 0.70883 0.37232 0.0
C572 C 0.82023 0.70383 0.38914 0.0
C573 C 0.82775 0.69997 0.37792 0.0
C574 C 0.832 0.72543 0.38922 0.0
C575 C 0.82225 0.71663 0.39493 0.0
C576 C 0.83951 0.72155 0.37804 0.0
C577 C 0.87406 0.69369 0.31861 0.0
C578 C 0.88727 0.71457 0.31912 0.0
C579 C 0.89339 0.69681 0.30384 0.0
C580 C 0.88262 0.68884 0.30863 0.0
C581 C 0.8958 0.70983 0.30894 0.0
C582 C 0.8765 0.70656 0.32392 0.0
C583 C 0.86248 0.68531 0.32308 0.0
O584 O 0.83716 0.66617 0.35044 0.0
O585 O 0.82393 0.6785 0.33766 0.0
O586 O 0.85057 0.69085 0.32178 0.0
O587 O 0.86405 0.6789 0.33464 0.0
H588 H 0.84077 0.64464 0.33724 0.0
H589 H 0.83329 0.6249 0.32453 0.0
H590 H 0.7939 0.64241 0.31908 0.0
H591 H 0.80127 0.66187 0.33227 0.0
H592 H 0.81292 0.69673 0.39334 0.0
H593 H 0.826 0.69009 0.37362 0.0
H594 H 0.83368 0.73544 0.39322 0.0
H595 H 0.8469 0.72854 0.3738 0.0
H596 H 0.88871 0.72459 0.32317 0.0
H597 H 0.89985 0.69275 0.29615 0.0
H598 H 0.88091 0.6789 0.30445 0.0
H599 H 0.86997 0.71047 0.33164 0.0
C600 C 0.84343 0.36963 0.31765 0.0
C601 C 0.83155 0.37345 0.32413 0.0
C602 C 0.82943 0.39266 0.30873 0.0
C603 C 0.82459 0.38486 0.31969 0.0
C604 C 0.84144 0.38879 0.30241 0.0
C605 C 0.84835 0.3774 0.30683 0.0
U606 U 0.84908 0.33893 0.34086 0.0
O607 O 0.8544 0.31826 0.33555 0.0
O608 O 0.86825 0.33037 0.34815 0.0
C609 C 0.86639 0.31916 0.34135 0.0
C610 C 0.85074 0.35746 0.3218 0.0
C611 C 0.87807 0.31446 0.33347 0.0
C612 C 0.88752 0.30457 0.31325 0.0
C613 C 0.87661 0.31015 0.32003 0.0
C614 C 0.90167 0.30787 0.33303 0.0
C615 C 0.90016 0.30318 0.31972 0.0
C616 C 0.89075 0.31338 0.33982 0.0
C617 C 0.82593 0.33156 0.37088 0.0
C618 C 0.82724 0.31088 0.38411 0.0
C619 C 0.8113 0.32798 0.39025 0.0
C620 C 0.81577 0.33605 0.37946 0.0
C621 C 0.81689 0.31524 0.39265 0.0
C622 C 0.83172 0.31898 0.37334 0.0
C623 C 0.83012 0.33995 0.35926 0.0
O624 O 0.85746 0.35823 0.33328 0.0
O625 O 0.84406 0.346 0.32035 0.0
O626 O 0.82827 0.33442 0.34737 0.0
O627 O 0.84192 0.34616 0.36048 0.0
H628 H 0.82762 0.36756 0.33253 0.0
H629 H 0.81546 0.38761 0.32487 0.0
H630 H 0.84535 0.39438 0.2938 0.0
H631 H 0.85748 0.37457 0.30168 0.0
H632 H 0.88589 0.30093 0.30309 0.0
H633 H 0.86697 0.31077 0.31483 0.0
H634 H 0.91129 0.30717 0.33827 0.0
H635 H 0.89216 0.31658 0.35018 0.0
H636 H 0.83189 0.30121 0.38577 0.0
H637 H 0.80323 0.33159 0.39651 0.0
H638 H 0.81117 0.34573 0.37769 0.0
H639 H 0.83962 0.31538 0.36684 0.0
C640 C 0.69239 0.15201 0.70762 0.0
C641 C 0.70513 0.14931 0.70225 0.0
C642 C 0.70684 0.12924 0.71655 0.0
C643 C 0.7123 0.13804 0.70668 0.0
C644 C 0.69395 0.13192 0.72172 0.0
C645 C 0.68681 0.1432 0.71729 0.0
U646 U 0.68701 0.18216 0.68398 0.0
O647 O 0.66824 0.191 0.67617 0.0
O648 O 0.68211 0.20313 0.68874 0.0
C649 C 0.67026 0.20238 0.68266 0.0
C650 C 0.68494 0.1641 0.70346 0.0
C651 C 0.6587 0.20783 0.69017 0.0
C652 C 0.63534 0.20655 0.69785 0.0
C653 C 0.6464 0.20063 0.69161 0.0
C654 C 0.64874 0.22683 0.70157 0.0
C655 C 0.63631 0.2198 0.70276 0.0
C656 C 0.65975 0.22094 0.6953 0.0
C657 C 0.71103 0.18772 0.65408 0.0
C658 C 0.70914 0.20628 0.63801 0.0
C659 C 0.72761 0.19071 0.63629 0.0
C660 C 0.7227 0.18357 0.64751 0.0
C661 C 0.72091 0.20217 0.63138 0.0
C662 C 0.70424 0.19911 0.64927 0.0
C663 C 0.70624 0.1801 0.66599 0.0
O664 O 0.69161 0.17559 0.70475 0.0
O665 O 0.6782 0.1632 0.692 0.0
O666 O 0.69431 0.17417 0.66476 0.0
O667 O 0.70799 0.18612 0.67765 0.0
H668 H 0.70961 0.15601 0.69476 0.0
H669 H 0.72226 0.13642 0.7026 0.0
H670 H 0.68933 0.12528 0.72916 0.0
H671 H 0.67696 0.1451 0.72151 0.0
H672 H 0.62591 0.20088 0.69849 0.0
H673 H 0.64523 0.19052 0.68772 0.0
H674 H 0.64998 0.23694 0.70545 0.0
H675 H 0.66908 0.22673 0.6943 0.0
H676 H 0.70366 0.21497 0.63445 0.0
H677 H 0.73682 0.18738 0.63163 0.0
H678 H 0.72811 0.17484 0.65113 0.0
H679 H 0.69519 0.20245 0.65423 0.0
C680 C 0.316 0.18522 0.65846 0.0
C681 C 0.32234 0.18419 0.64584 0.0
C682 C 0.30602 0.19942 0.63562 0.0
C683 C 0.31742 0.19122 0.63457 0.0
C684 C 0.29973 0.20044 0.64825 0.0
C685 C 0.30461 0.19338 0.65949 0.0
U686 U 0.34048 0.1788 0.68823 0.0
O687 O 0.33598 0.17319 0.70925 0.0
O688 O 0.34785 0.15969 0.69678 0.0
C689 C 0.34142 0.16126 0.70823 0.0
C690 C 0.32068 0.17745 0.67043 0.0
C691 C 0.33321 0.1496 0.71322 0.0
C692 C 0.31488 0.14053 0.72709 0.0
C693 C 0.32214 0.15154 0.72179 0.0
C694 C 0.32954 0.12532 0.71544 0.0
C695 C 0.31853 0.12728 0.72406 0.0
C696 C 0.33683 0.13635 0.71014 0.0
C697 C 0.37076 0.20322 0.69423 0.0
C698 C 0.39492 0.20293 0.69934 0.0
C699 C 0.38087 0.21964 0.7096 0.0
C700 C 0.36957 0.21433 0.70281 0.0
C701 C 0.39372 0.21409 0.70788 0.0
C702 C 0.38359 0.19759 0.69256 0.0
C703 C 0.35878 0.19825 0.6865 0.0
O704 O 0.33198 0.17078 0.66926 0.0
O705 O 0.31964 0.18345 0.68215 0.0
O706 O 0.34698 0.19966 0.6923 0.0
O707 O 0.35983 0.18667 0.68026 0.0
H708 H 0.33104 0.17785 0.64462 0.0
H709 H 0.32241 0.19005 0.62497 0.0
H710 H 0.29106 0.2068 0.64951 0.0
H711 H 0.29941 0.1943 0.66902 0.0
H712 H 0.30635 0.14242 0.73356 0.0
H713 H 0.31912 0.16157 0.72452 0.0
H714 H 0.33272 0.11525 0.71302 0.0
H715 H 0.34543 0.13448 0.70376 0.0
H716 H 0.40468 0.1985 0.69766 0.0
H717 H 0.37951 0.2281 0.71624 0.0
H718 H 0.35989 0.21903 0.70421 0.0
H719 H 0.38493 0.18915 0.68587 0.0
C720 C 0.31536 0.83445 0.65516 0.0
C721 C 0.32277 0.82429 0.64901 0.0
C722 C 0.30497 0.82127 0.63199 0.0
C723 C 0.31761 0.81775 0.63752 0.0
C724 C 0.29762 0.83144 0.6383 0.0
C725 C 0.30278 0.83795 0.64974 0.0
U726 U 0.34033 0.83931 0.68483 0.0
O727 O 0.349 0.8581 0.69309 0.0
O728 O 0.33616 0.84504 0.70579 0.0
C729 C 0.34283 0.85656 0.70472 0.0
C730 C 0.32048 0.84156 0.6672 0.0
C731 C 0.33585 0.86842 0.70983 0.0
C732 C 0.31855 0.88548 0.70798 0.0
C733 C 0.32508 0.87427 0.70272 0.0
C734 C 0.3335 0.88503 0.72747 0.0
C735 C 0.3227 0.89101 0.72044 0.0
C736 C 0.34 0.87388 0.7222 0.0
C737 C 0.36967 0.81512 0.69095 0.0
C738 C 0.39196 0.81903 0.70097 0.0
C739 C 0.38115 0.79705 0.7029 0.0
C740 C 0.37 0.80174 0.69559 0.0
C741 C 0.39232 0.80561 0.70568 0.0
C742 C 0.38076 0.82375 0.69373 0.0
C743 C 0.35774 0.81974 0.68316 0.0
O744 O 0.31926 0.83498 0.67872 0.0
O745 O 0.33222 0.84783 0.66592 0.0
O746 O 0.35906 0.83123 0.67653 0.0
O747 O 0.34603 0.81836 0.68925 0.0
H748 H 0.33252 0.82145 0.65308 0.0
H749 H 0.32359 0.81004 0.63289 0.0
H750 H 0.28775 0.83425 0.63453 0.0
H751 H 0.29689 0.84572 0.65439 0.0
H752 H 0.31034 0.88986 0.70225 0.0
H753 H 0.32173 0.87016 0.69314 0.0
H754 H 0.33681 0.8888 0.7372 0.0
H755 H 0.34824 0.86944 0.72787 0.0
H756 H 0.40042 0.82588 0.70275 0.0
H757 H 0.3809 0.78674 0.70655 0.0
H758 H 0.36158 0.7949 0.69359 0.0
H759 H 0.38082 0.83413 0.69029 0.0
C760 C 0.65625 0.81262 0.68757 0.0
C761 C 0.65088 0.81893 0.69891 0.0
C762 C 0.63402 0.80081 0.70131 0.0
C763 C 0.63981 0.81309 0.70571 0.0
C764 C 0.63937 0.7947 0.6898 0.0
C765 C 0.65036 0.80055 0.68302 0.0
U766 U 0.68549 0.83836 0.68327 0.0
O767 O 0.70658 0.83482 0.67756 0.0
O768 O 0.69375 0.84741 0.66464 0.0
C769 C 0.70545 0.84146 0.66608 0.0
C770 C 0.66815 0.81819 0.68049 0.0
C771 C 0.7105 0.83453 0.6541 0.0
C772 C 0.70823 0.81754 0.63665 0.0
C773 C 0.70305 0.82408 0.64793 0.0
C774 C 0.72831 0.83183 0.63766 0.0
C775 C 0.72094 0.82133 0.63137 0.0
C776 C 0.72312 0.83835 0.64889 0.0
C777 C 0.69096 0.86715 0.7082 0.0
C778 C 0.70974 0.88318 0.70622 0.0
C779 C 0.69433 0.88456 0.72503 0.0
C780 C 0.68697 0.87349 0.72006 0.0
C781 C 0.70586 0.88951 0.71822 0.0
C782 C 0.70236 0.87208 0.70127 0.0
C783 C 0.6833 0.85527 0.70336 0.0
O784 O 0.66664 0.82997 0.67456 0.0
O785 O 0.67972 0.81717 0.68699 0.0
O786 O 0.68961 0.84377 0.70442 0.0
O787 O 0.67699 0.85678 0.69173 0.0
H788 H 0.65534 0.82826 0.70259 0.0
H789 H 0.636 0.818 0.71459 0.0
H790 H 0.63503 0.78537 0.686 0.0
H791 H 0.65435 0.79556 0.67425 0.0
H792 H 0.70223 0.80958 0.63201 0.0
H793 H 0.69327 0.82098 0.65185 0.0
H794 H 0.73823 0.83486 0.63408 0.0
H795 H 0.72905 0.84634 0.65359 0.0
H796 H 0.71865 0.88661 0.70081 0.0
H797 H 0.69095 0.88929 0.73419 0.0
H798 H 0.67817 0.86983 0.72553 0.0
H799 H 0.70562 0.86726 0.69211 0.0
C800 C 0.6573 0.81071 0.33756 0.0
C801 C 0.64526 0.81778 0.33545 0.0
C802 C 0.63498 0.79832 0.32419 0.0
C803 C 0.63422 0.81165 0.32883 0.0
C804 C 0.64715 0.7914 0.32612 0.0
C805 C 0.65813 0.7975 0.33277 0.0
U806 U 0.68552 0.83737 0.34417 0.0
O807 O 0.69302 0.84541 0.36355 0.0
O808 O 0.70659 0.83424 0.35051 0.0
C809 C 0.70487 0.83979 0.36236 0.0
C810 C 0.66887 0.81649 0.34526 0.0
C811 C 0.70929 0.83165 0.37401 0.0
C812 C 0.70802 0.81105 0.3874 0.0
C813 C 0.7034 0.81895 0.3766 0.0
C814 C 0.72431 0.82859 0.39329 0.0
C815 C 0.71861 0.81573 0.39583 0.0
C816 C 0.7197 0.83646 0.38246 0.0
C817 C 0.69053 0.86769 0.32053 0.0
C818 C 0.71018 0.88269 0.32189 0.0
C819 C 0.69244 0.88711 0.30552 0.0
C820 C 0.68527 0.87572 0.31011 0.0
C821 C 0.70506 0.89068 0.31126 0.0
C822 C 0.70298 0.8713 0.32649 0.0
C823 C 0.68316 0.85538 0.32473 0.0
O824 O 0.68067 0.81624 0.33927 0.0
O825 O 0.66686 0.82774 0.35182 0.0
O826 O 0.67664 0.85605 0.33622 0.0
O827 O 0.68983 0.84414 0.32344 0.0
H828 H 0.64428 0.82798 0.33905 0.0
H829 H 0.62499 0.81725 0.32764 0.0
H830 H 0.64823 0.78124 0.32246 0.0
H831 H 0.66727 0.79182 0.33428 0.0
H832 H 0.70329 0.80128 0.38917 0.0
H833 H 0.6953 0.8151 0.3702 0.0
H834 H 0.73256 0.83244 0.39948 0.0
H835 H 0.72437 0.84624 0.38058 0.0
H836 H 0.71993 0.88503 0.32644 0.0
H837 H 0.6881 0.89313 0.29747 0.0
H838 H 0.67565 0.8731 0.30542 0.0
H839 H 0.70721 0.86519 0.33453 0.0
C840 C 0.65281 0.18947 0.32072 0.0
C841 C 0.65112 0.20222 0.32637 0.0
C842 C 0.63081 0.20552 0.31264 0.0
C843 C 0.64022 0.21019 0.32236 0.0
C844 C 0.63249 0.19262 0.30718 0.0
C845 C 0.64339 0.1847 0.31118 0.0
U846 U 0.68357 0.18147 0.34302 0.0
O847 O 0.69077 0.16183 0.35037 0.0
O848 O 0.70364 0.17443 0.33727 0.0
C849 C 0.70196 0.16269 0.34332 0.0
C850 C 0.66441 0.1811 0.32446 0.0
C851 C 0.70503 0.15088 0.33508 0.0
C852 C 0.70204 0.13774 0.31463 0.0
C853 C 0.69855 0.14871 0.32261 0.0
C854 C 0.71828 0.13084 0.33165 0.0
C855 C 0.71203 0.12872 0.31901 0.0
C856 C 0.71482 0.14182 0.33959 0.0
C857 C 0.69311 0.20471 0.37252 0.0
C858 C 0.71156 0.20037 0.38825 0.0
C859 C 0.69953 0.22135 0.38935 0.0
C860 C 0.69128 0.21724 0.37856 0.0
C861 C 0.7098 0.21299 0.39435 0.0
C862 C 0.7033 0.19628 0.37743 0.0
C863 C 0.68441 0.20075 0.36105 0.0
O864 O 0.6764 0.18671 0.3226 0.0
O865 O 0.66343 0.17457 0.33603 0.0
O866 O 0.67735 0.18951 0.36261 0.0
O867 O 0.68997 0.2019 0.34907 0.0
H868 H 0.65831 0.20608 0.33376 0.0
H869 H 0.63935 0.22012 0.32666 0.0
H870 H 0.62536 0.18861 0.29984 0.0
H871 H 0.64451 0.17484 0.30676 0.0
H872 H 0.6969 0.13633 0.30504 0.0
H873 H 0.69091 0.15558 0.31899 0.0
H874 H 0.72612 0.1242 0.33526 0.0
H875 H 0.71994 0.14336 0.34918 0.0
H876 H 0.71926 0.1936 0.39191 0.0
H877 H 0.69801 0.23122 0.3936 0.0
H878 H 0.68351 0.22392 0.37485 0.0
H879 H 0.70486 0.18655 0.37287 0.0
C880 C 0.32123 0.14863 0.33548 0.0
C881 C 0.3269 0.14703 0.32267 0.0
C882 C 0.31327 0.12659 0.31921 0.0
C883 C 0.32294 0.13612 0.31459 0.0
C884 C 0.30785 0.12815 0.3322 0.0
C885 C 0.31178 0.13907 0.34023 0.0
U886 U 0.34347 0.17949 0.34346 0.0
O887 O 0.33768 0.19974 0.34982 0.0
O888 O 0.35046 0.18742 0.36304 0.0
C889 C 0.34357 0.19855 0.3617 0.0
C890 C 0.32477 0.16036 0.34386 0.0
C891 C 0.33526 0.20224 0.37331 0.0
C892 C 0.31712 0.19744 0.38919 0.0
C893 C 0.32514 0.19351 0.37835 0.0
C894 C 0.32931 0.2188 0.39005 0.0
C895 C 0.31905 0.21019 0.3951 0.0
C896 C 0.33733 0.21485 0.37927 0.0
C897 C 0.37348 0.18842 0.32061 0.0
C898 C 0.38669 0.2092 0.32263 0.0
C899 C 0.39278 0.19261 0.30606 0.0
C900 C 0.38202 0.18431 0.31028 0.0
C901 C 0.3952 0.20522 0.3121 0.0
C902 C 0.37592 0.20086 0.32685 0.0
C903 C 0.36192 0.17973 0.32451 0.0
O904 O 0.33619 0.15961 0.35068 0.0
O905 O 0.32306 0.17216 0.33804 0.0
O906 O 0.34995 0.18508 0.32295 0.0
O907 O 0.36325 0.17311 0.33599 0.0
H908 H 0.33422 0.15433 0.31883 0.0
H909 H 0.32722 0.13534 0.3046 0.0
H910 H 0.30055 0.12091 0.33617 0.0
H911 H 0.30735 0.14012 0.35013 0.0
H912 H 0.30923 0.19062 0.39274 0.0
H913 H 0.32336 0.18375 0.37381 0.0
H914 H 0.3312 0.2286 0.39447 0.0
H915 H 0.34511 0.22171 0.37552 0.0
H916 H 0.38816 0.21889 0.32741 0.0
H917 H 0.39924 0.18913 0.29808 0.0
H918 H 0.38031 0.1747 0.30539 0.0
H919 H 0.3694 0.2042 0.33485 0.0
C920 C 0.33991 0.86883 0.31612 0.0
C921 C 0.32773 0.87238 0.32219 0.0
C922 C 0.32561 0.89145 0.30663 0.0
C923 C 0.32064 0.88359 0.31749 0.0
C924 C 0.33795 0.88792 0.30075 0.0
C925 C 0.34501 0.87672 0.30546 0.0
U926 U 0.34536 0.83851 0.3398 0.0
O927 O 0.35063 0.81773 0.33465 0.0
O928 O 0.36431 0.82986 0.3474 0.0
C929 C 0.36257 0.81867 0.34054 0.0
C930 C 0.34724 0.85676 0.32047 0.0
C931 C 0.37416 0.81405 0.3325 0.0
C932 C 0.39718 0.81684 0.32414 0.0
C933 C 0.38622 0.82171 0.33139 0.0
C934 C 0.38423 0.79663 0.31888 0.0
C935 C 0.39635 0.80421 0.31782 0.0
C936 C 0.37332 0.80146 0.32618 0.0
C937 C 0.32185 0.83182 0.36977 0.0
C938 C 0.32267 0.81139 0.38344 0.0
C939 C 0.30729 0.82909 0.38931 0.0
C940 C 0.3119 0.83678 0.3783 0.0
C941 C 0.31254 0.81624 0.39196 0.0
C942 C 0.32729 0.81912 0.37246 0.0
C943 C 0.32625 0.8399 0.35801 0.0
O944 O 0.35387 0.85769 0.332 0.0
O945 O 0.34057 0.84528 0.31915 0.0
O946 O 0.32449 0.83415 0.3462 0.0
O947 O 0.33806 0.84607 0.35923 0.0
H948 H 0.32362 0.86636 0.33043 0.0
H949 H 0.3111 0.8859 0.32215 0.0
H950 H 0.34218 0.89383 0.29252 0.0
H951 H 0.35443 0.87414 0.30068 0.0
H952 H 0.40638 0.82289 0.3237 0.0
H953 H 0.38725 0.83143 0.33621 0.0
H954 H 0.3831 0.78697 0.31396 0.0
H955 H 0.36419 0.79532 0.3269 0.0
H956 H 0.32706 0.80163 0.38529 0.0
H957 H 0.29938 0.83307 0.39554 0.0
H958 H 0.30757 0.84656 0.37636 0.0
H959 H 0.33504 0.81515 0.366 0.0
C960 C 0.69417 0.65132 0.21094 0.0
C961 C 0.70481 0.64667 0.20305 0.0
C962 C 0.71 0.62964 0.22016 0.0
C963 C 0.71265 0.6359 0.2076 0.0
C964 C 0.69924 0.63433 0.22794 0.0
C965 C 0.69141 0.64505 0.22336 0.0
U966 U 0.68636 0.68074 0.18686 0.0
O967 O 0.66671 0.68766 0.17914 0.0
O968 O 0.67944 0.70108 0.19152 0.0
C969 C 0.66767 0.69919 0.18553 0.0
C970 C 0.68592 0.66275 0.2065 0.0
C971 C 0.65581 0.70285 0.19349 0.0
C972 C 0.64181 0.70034 0.21346 0.0
C973 C 0.65291 0.69642 0.20583 0.0
C974 C 0.63631 0.71704 0.1964 0.0
C975 C 0.63341 0.71077 0.20888 0.0
C976 C 0.6474 0.71312 0.1888 0.0
C977 C 0.70932 0.68871 0.15678 0.0
C978 C 0.70413 0.70573 0.13981 0.0
C979 C 0.72603 0.69519 0.13996 0.0
C980 C 0.72218 0.68739 0.15116 0.0
C981 C 0.71707 0.70449 0.13413 0.0
C982 C 0.70031 0.69793 0.15105 0.0
C983 C 0.7056 0.68054 0.16871 0.0
O984 O 0.69172 0.6747 0.20764 0.0
O985 O 0.67931 0.66119 0.19503 0.0
O986 O 0.69432 0.67339 0.16765 0.0
O987 O 0.70688 0.68666 0.18037 0.0
H988 H 0.70712 0.65144 0.19343 0.0
H989 H 0.72095 0.63265 0.20143 0.0
H990 H 0.6968 0.62965 0.23756 0.0
H991 H 0.68321 0.64849 0.22957 0.0
H992 H 0.63999 0.6954 0.22308 0.0
H993 H 0.65933 0.68848 0.20962 0.0
H994 H 0.62996 0.72496 0.19247 0.0
H995 H 0.64947 0.71816 0.17927 0.0
H996 H 0.69692 0.71267 0.13551 0.0
H997 H 0.73614 0.69412 0.13604 0.0
H998 H 0.7293 0.68037 0.15551 0.0
H999 H 0.69033 0.6991 0.15528 0.0
C1000 C 0.3172 0.68087 0.15907 0.0
C1001 C 0.32425 0.69272 0.15544 0.0
C1002 C 0.30905 0.69594 0.13619 0.0
C1003 C 0.32022 0.70019 0.14408 0.0
C1004 C 0.30218 0.68392 0.13982 0.0
C1005 C 0.30622 0.67648 0.15115 0.0
U1006 U 0.33978 0.67484 0.19003 0.0
O1007 O 0.33416 0.66912 0.21075 0.0
O1008 O 0.34681 0.65576 0.19892 0.0
C1009 C 0.33984 0.65729 0.21003 0.0
C1010 C 0.32094 0.67314 0.17124 0.0
C1011 C 0.33115 0.64578 0.21402 0.0
C1012 C 0.31023 0.63273 0.21179 0.0
C1013 C 0.31873 0.64331 0.20747 0.0
C1014 C 0.32661 0.62679 0.22906 0.0
C1015 C 0.31402 0.62441 0.22272 0.0
C1016 C 0.33508 0.63739 0.22475 0.0
C1017 C 0.3697 0.69954 0.19705 0.0
C1018 C 0.39288 0.69791 0.20541 0.0
C1019 C 0.38027 0.71817 0.20923 0.0
C1020 C 0.36912 0.71251 0.20249 0.0
C1021 C 0.39238 0.71104 0.2106 0.0
C1022 C 0.38167 0.69222 0.19868 0.0
C1023 C 0.35805 0.69435 0.18903 0.0
O1024 O 0.33241 0.66671 0.17065 0.0
O1025 O 0.3193 0.67939 0.18274 0.0
O1026 O 0.34606 0.69572 0.19443 0.0
O1027 O 0.35944 0.68274 0.18293 0.0
H1028 H 0.33275 0.69627 0.16148 0.0
H1029 H 0.32566 0.70946 0.14167 0.0
H1030 H 0.29367 0.68024 0.13387 0.0
H1031 H 0.30069 0.66732 0.1538 0.0
H1032 H 0.30069 0.63108 0.20658 0.0
H1033 H 0.31556 0.64966 0.19911 0.0
H1034 H 0.32977 0.62067 0.23759 0.0
H1035 H 0.34462 0.63918 0.22994 0.0
H1036 H 0.40207 0.69218 0.20618 0.0
H1037 H 0.37942 0.72819 0.21332 0.0
H1038 H 0.36006 0.7184 0.20135 0.0
H1039 H 0.38248 0.68221 0.19455 0.0
C1040 C 0.317 0.33678 0.15773 0.0
C1041 C 0.32434 0.32607 0.15246 0.0
C1042 C 0.30687 0.32232 0.13526 0.0
C1043 C 0.31933 0.31892 0.14127 0.0
C1044 C 0.29974 0.33321 0.14051 0.0
C1045 C 0.30476 0.34034 0.15161 0.0
U1046 U 0.34071 0.3432 0.18833 0.0
O1047 O 0.34787 0.36265 0.19658 0.0
O1048 O 0.33528 0.34899 0.20893 0.0
C1049 C 0.34101 0.361 0.20782 0.0
C1050 C 0.32162 0.34423 0.16975 0.0
C1051 C 0.33298 0.37261 0.21224 0.0
C1052 C 0.31229 0.382 0.22113 0.0
C1053 C 0.31929 0.37114 0.2158 0.0
C1054 C 0.33238 0.3961 0.21903 0.0
C1055 C 0.3188 0.39458 0.223 0.0
C1056 C 0.33939 0.38523 0.21377 0.0
C1057 C 0.37084 0.32053 0.19661 0.0
C1058 C 0.38007 0.31145 0.21762 0.0
C1059 C 0.39505 0.31686 0.19908 0.0
C1060 C 0.38397 0.32105 0.19131 0.0
C1061 C 0.39324 0.31195 0.21234 0.0
C1062 C 0.36902 0.3157 0.20989 0.0
C1063 C 0.35918 0.32452 0.18803 0.0
O1064 O 0.32015 0.33787 0.18135 0.0
O1065 O 0.33323 0.3508 0.16874 0.0
O1066 O 0.36047 0.33603 0.18145 0.0
O1067 O 0.34707 0.32262 0.19318 0.0
H1068 H 0.33382 0.32317 0.1571 0.0
H1069 H 0.32502 0.31054 0.13753 0.0
H1070 H 0.29024 0.33624 0.13601 0.0
H1071 H 0.29898 0.3486 0.15551 0.0
H1072 H 0.30191 0.38037 0.22421 0.0
H1073 H 0.31403 0.36154 0.21478 0.0
H1074 H 0.33768 0.40568 0.2201 0.0
H1075 H 0.34993 0.38664 0.21113 0.0
H1076 H 0.37821 0.30751 0.22768 0.0
H1077 H 0.40504 0.31756 0.19471 0.0
H1078 H 0.38567 0.32465 0.18109 0.0
H1079 H 0.35904 0.31506 0.2143 0.0
C1080 C 0.65589 0.31801 0.19623 0.0
C1081 C 0.65141 0.32576 0.20704 0.0
C1082 C 0.63362 0.30908 0.21181 0.0
C1083 C 0.64033 0.32135 0.21475 0.0
C1084 C 0.63809 0.30148 0.20084 0.0
C1085 C 0.64911 0.3059 0.19314 0.0
U1086 U 0.68646 0.34129 0.18941 0.0
O1087 O 0.70711 0.33606 0.18351 0.0
O1088 O 0.6948 0.34873 0.17015 0.0
C1089 C 0.70604 0.34196 0.17163 0.0
C1090 C 0.66781 0.32213 0.18832 0.0
C1091 C 0.71063 0.3341 0.15992 0.0
C1092 C 0.70805 0.32635 0.13672 0.0
C1093 C 0.70294 0.33303 0.14795 0.0
C1094 C 0.72846 0.32144 0.14933 0.0
C1095 C 0.72096 0.32062 0.13722 0.0
C1096 C 0.72338 0.32815 0.1605 0.0
C1097 C 0.69449 0.37102 0.21249 0.0
C1098 C 0.71458 0.38515 0.20943 0.0
C1099 C 0.69936 0.38942 0.2279 0.0
C1100 C 0.69106 0.37864 0.22375 0.0
C1101 C 0.71128 0.39276 0.22085 0.0
C1102 C 0.70626 0.37438 0.20529 0.0
C1103 C 0.68591 0.35944 0.20854 0.0
O1104 O 0.6669 0.3336 0.18166 0.0
O1105 O 0.67951 0.32071 0.1945 0.0
O1106 O 0.69145 0.3476 0.21012 0.0
O1107 O 0.67941 0.36071 0.19697 0.0
H1108 H 0.65658 0.33512 0.2096 0.0
H1109 H 0.63725 0.32738 0.2232 0.0
H1110 H 0.63305 0.29208 0.19818 0.0
H1111 H 0.65243 0.2998 0.18481 0.0
H1112 H 0.70204 0.32602 0.12754 0.0
H1113 H 0.69308 0.33755 0.14714 0.0
H1114 H 0.73832 0.31693 0.15019 0.0
H1115 H 0.72955 0.32884 0.16957 0.0
H1116 H 0.72358 0.38753 0.20366 0.0
H1117 H 0.6966 0.39494 0.23682 0.0
H1118 H 0.68203 0.37616 0.22945 0.0
H1119 H 0.70905 0.3686 0.19654 0.0
C1120 C 0.65507 0.31672 0.83351 0.0
C1121 C 0.64382 0.32496 0.83141 0.0
C1122 C 0.63314 0.30794 0.81702 0.0
C1123 C 0.63297 0.32061 0.82329 0.0
C1124 C 0.64443 0.29974 0.81915 0.0
C1125 C 0.65522 0.30405 0.82734 0.0
U1126 U 0.68478 0.34057 0.84239 0.0
O1127 O 0.69202 0.34781 0.86217 0.0
O1128 O 0.7053 0.33592 0.84947 0.0
C1129 C 0.70355 0.3415 0.8613 0.0
C1130 C 0.66662 0.32095 0.84219 0.0
C1131 C 0.70719 0.33312 0.87306 0.0
C1132 C 0.70489 0.31242 0.88618 0.0
C1133 C 0.70097 0.32048 0.87521 0.0
C1134 C 0.72107 0.32967 0.8931 0.0
C1135 C 0.71506 0.31688 0.89521 0.0
C1136 C 0.71718 0.3377 0.88211 0.0
C1137 C 0.69233 0.37096 0.81927 0.0
C1138 C 0.7124 0.38529 0.82149 0.0
C1139 C 0.69584 0.38995 0.80399 0.0
C1140 C 0.68799 0.37894 0.80839 0.0
C1141 C 0.70822 0.39318 0.81038 0.0
C1142 C 0.70452 0.37425 0.82589 0.0
C1143 C 0.68424 0.35901 0.8232 0.0
O1144 O 0.67866 0.31992 0.83681 0.0
O1145 O 0.66526 0.33206 0.84915 0.0
O1146 O 0.67743 0.35994 0.83449 0.0
O1147 O 0.69032 0.34743 0.82198 0.0
H1148 H 0.64334 0.33477 0.83606 0.0
H1149 H 0.62439 0.32713 0.82204 0.0
H1150 H 0.64506 0.29003 0.81433 0.0
H1151 H 0.66374 0.29749 0.82881 0.0
H1152 H 0.69993 0.3027 0.8876 0.0
H1153 H 0.69318 0.31681 0.86834 0.0
H1154 H 0.72903 0.33334 0.89975 0.0
H1155 H 0.72209 0.34743 0.88058 0.0
H1156 H 0.72194 0.3874 0.82656 0.0
H1157 H 0.6922 0.39592 0.79555 0.0
H1158 H 0.67857 0.37656 0.80319 0.0
H1159 H 0.70804 0.36817 0.8343 0.0
C1160 C 0.65182 0.68516 0.81706 0.0
C1161 C 0.64915 0.69812 0.82177 0.0
C1162 C 0.62937 0.69939 0.80693 0.0
C1163 C 0.63803 0.7052 0.81673 0.0
C1164 C 0.63202 0.6863 0.80245 0.0
C1165 C 0.64313 0.67927 0.80747 0.0
U1166 U 0.68204 0.67965 0.84103 0.0
O1167 O 0.69025 0.6607 0.849 0.0
O1168 O 0.7028 0.67387 0.83614 0.0
C1169 C 0.70164 0.66216 0.84235 0.0
C1170 C 0.6638 0.67776 0.82166 0.0
C1171 C 0.70578 0.65046 0.83446 0.0
C1172 C 0.70163 0.63404 0.81674 0.0
C1173 C 0.69737 0.64501 0.82433 0.0
C1174 C 0.72272 0.63388 0.82934 0.0
C1175 C 0.71439 0.62836 0.81913 0.0
C1176 C 0.71844 0.64481 0.83692 0.0
C1177 C 0.68879 0.70386 0.87048 0.0
C1178 C 0.70644 0.70079 0.88743 0.0
C1179 C 0.69382 0.72147 0.88673 0.0
C1180 C 0.68628 0.71661 0.87576 0.0
C1181 C 0.70404 0.71366 0.89268 0.0
C1182 C 0.6989 0.69595 0.87638 0.0
C1183 C 0.68086 0.69915 0.85873 0.0
O1184 O 0.67546 0.68414 0.82024 0.0
O1185 O 0.66267 0.6714 0.83331 0.0
O1186 O 0.67448 0.68751 0.8602 0.0
O1187 O 0.68683 0.70052 0.84698 0.0
H1188 H 0.65574 0.70282 0.82922 0.0
H1189 H 0.63621 0.7152 0.8205 0.0
H1190 H 0.62571 0.68159 0.79479 0.0
H1191 H 0.64507 0.66929 0.80368 0.0
H1192 H 0.69489 0.62998 0.80907 0.0
H1193 H 0.68755 0.64926 0.82228 0.0
H1194 H 0.73269 0.62995 0.83132 0.0
H1195 H 0.72509 0.64894 0.84464 0.0
H1196 H 0.71432 0.69458 0.89167 0.0
H1197 H 0.69158 0.73133 0.89062 0.0
H1198 H 0.6785 0.72284 0.87134 0.0
H1199 H 0.70102 0.68609 0.87239 0.0
C1200 C 0.31919 0.64632 0.83269 0.0
C1201 C 0.32583 0.64353 0.82061 0.0
C1202 C 0.30988 0.62504 0.81611 0.0
C1203 C 0.32122 0.63298 0.81238 0.0
C1204 C 0.30341 0.62779 0.82837 0.0
C1205 C 0.30803 0.63834 0.83656 0.0
U1206 U 0.34263 0.67644 0.84048 0.0
O1207 O 0.3375 0.69663 0.8476 0.0
O1208 O 0.35051 0.68371 0.85998 0.0
C1209 C 0.34378 0.69499 0.85922 0.0
C1210 C 0.32346 0.65777 0.84114 0.0
C1211 C 0.33595 0.69842 0.87125 0.0
C1212 C 0.31847 0.69322 0.88771 0.0
C1213 C 0.32593 0.68964 0.87636 0.0
C1214 C 0.33098 0.71437 0.88889 0.0
C1215 C 0.32088 0.70566 0.89411 0.0
C1216 C 0.33844 0.71077 0.87759 0.0
C1217 C 0.37219 0.68556 0.81697 0.0
C1218 C 0.38214 0.70747 0.81125 0.0
C1219 C 0.39556 0.68742 0.80952 0.0
C1220 C 0.38452 0.67957 0.8139 0.0
C1221 C 0.3945 0.70148 0.80801 0.0
C1222 C 0.37114 0.69962 0.81573 0.0
C1223 C 0.36051 0.67695 0.82101 0.0
O1224 O 0.33513 0.65656 0.84744 0.0
O1225 O 0.32187 0.66972 0.83561 0.0
O1226 O 0.34849 0.68232 0.81988 0.0
O1227 O 0.36204 0.66987 0.83218 0.0
H1228 H 0.33449 0.64959 0.81748 0.0
H1229 H 0.32654 0.63104 0.8031 0.0
H1230 H 0.29456 0.62202 0.83147 0.0
H1231 H 0.30274 0.6404 0.84584 0.0
H1232 H 0.31087 0.6862 0.89151 0.0
H1233 H 0.32387 0.68004 0.87157 0.0
H1234 H 0.33297 0.72412 0.89338 0.0
H1235 H 0.34609 0.71771 0.87372 0.0
H1236 H 0.38084 0.71821 0.81004 0.0
H1237 H 0.40494 0.68246 0.80734 0.0
H1238 H 0.38558 0.66876 0.8148 0.0
H1239 H 0.36178 0.70455 0.81803 0.0
C1240 C 0.33605 0.36814 0.81215 0.0
C1241 C 0.33561 0.38065 0.8187 0.0
C1242 C 0.32194 0.38994 0.80034 0.0
C1243 C 0.32861 0.39141 0.81286 0.0
C1244 C 0.32217 0.37732 0.79398 0.0
C1245 C 0.32919 0.36661 0.79978 0.0
U1246 U 0.34398 0.33965 0.83778 0.0
O1247 O 0.35091 0.31915 0.83394 0.0
O1248 O 0.36367 0.33306 0.84577 0.0
C1249 C 0.36262 0.32121 0.84001 0.0
C1250 C 0.34427 0.35689 0.81749 0.0
C1251 C 0.37456 0.31673 0.8326 0.0
C1252 C 0.3888 0.31684 0.81266 0.0
C1253 C 0.37782 0.32194 0.81978 0.0
C1254 C 0.39343 0.30153 0.83123 0.0
C1255 C 0.39661 0.30642 0.81824 0.0
C1256 C 0.38252 0.30663 0.83832 0.0
C1257 C 0.32053 0.33247 0.86796 0.0
C1258 C 0.30309 0.31976 0.88004 0.0
C1259 C 0.32506 0.32336 0.89045 0.0
C1260 C 0.32937 0.33056 0.87898 0.0
C1261 C 0.31185 0.31786 0.89114 0.0
C1262 C 0.30737 0.32701 0.86863 0.0
C1263 C 0.32463 0.34025 0.85578 0.0
O1264 O 0.35095 0.35891 0.82886 0.0
O1265 O 0.33873 0.34478 0.81673 0.0
O1266 O 0.32341 0.33386 0.84425 0.0
O1267 O 0.33579 0.34761 0.85665 0.0
H1268 H 0.34087 0.38223 0.8282 0.0
H1269 H 0.32876 0.401 0.81798 0.0
H1270 H 0.31696 0.37572 0.78446 0.0
H1271 H 0.3294 0.35713 0.79446 0.0
H1272 H 0.39091 0.32077 0.80265 0.0
H1273 H 0.37175 0.32975 0.8152 0.0
H1274 H 0.39936 0.29368 0.83593 0.0
H1275 H 0.38018 0.30252 0.84822 0.0
H1276 H 0.29294 0.31548 0.88005 0.0
H1277 H 0.33205 0.32225 0.89884 0.0
H1278 H 0.33959 0.33465 0.87878 0.0
H1279 H 0.30036 0.32834 0.86028 0.0
H1280 H 0.2719 0.23014 0.95623 0.0
N1281 N 0.27383 0.2561 0.96256 0.0
H1282 H 0.25572 0.21947 0.94062 0.0
H1283 H 0.25128 0.26777 0.95165 0.0
H1284 H 0.23484 0.25716 0.93654 0.0
H1285 H 0.26922 0.28322 0.96124 0.0
H1286 H 0.27957 0.2993 0.94536 0.0
H1287 H 0.29413 0.25179 0.94592 0.0
H1288 H 0.30427 0.2676 0.92975 0.0
H1289 H 0.29188 0.25163 0.98201 0.0
H1290 H 0.25176 0.26667 0.97537 0.0
H1291 H 0.28968 0.25544 0.00625 0.0
H1292 H 0.24914 0.26978 0.99947 0.0
H1293 H 0.27244 0.24705 0.07319 0.0
H1294 H 0.26194 0.23061 0.08844 0.0
H1295 H 0.2236 0.25028 0.08337 0.0
H1296 H 0.23431 0.26682 0.06812 0.0
H1297 H 0.25258 0.29198 0.0731 0.0
H1298 H 0.26471 0.3055 0.08993 0.0
H1299 H 0.29901 0.27936 0.08688 0.0
H1300 H 0.28689 0.26625 0.06955 0.0
H1301 H 0.27619 0.25036 0.05016 0.0
H1302 H 0.27941 0.24747 0.02597 0.0
H1303 H 0.25532 0.28264 0.01806 0.0
N1304 N 0.26041 0.2692 0.06217 0.0
H1305 H 0.25153 0.28487 0.04228 0.0
C1306 C 0.2628 0.24969 0.95523 0.0
C1307 C 0.26365 0.23599 0.95216 0.0
C1308 C 0.25438 0.22992 0.94324 0.0
C1309 C 0.24401 0.23747 0.93718 0.0
C1310 C 0.24282 0.25108 0.94079 0.0
C1311 C 0.25214 0.25714 0.94963 0.0
C1312 C 0.28099 0.26629 0.95481 0.0
C1313 C 0.27707 0.27983 0.9546 0.0
C1314 C 0.28291 0.28898 0.9454 0.0
C1315 C 0.29272 0.28477 0.93616 0.0
C1316 C 0.29692 0.27132 0.93679 0.0
C1317 C 0.29113 0.26222 0.94601 0.0
C1318 C 0.272 0.25867 0.97679 0.0
C1319 C 0.28255 0.25565 0.9858 0.0
C1320 C 0.28121 0.25775 0.99969 0.0
C1321 C 0.26918 0.26285 1.00498 0.0
C1322 C 0.25865 0.26602 0.99587 0.0
C1323 C 0.26007 0.26408 0.98196 0.0
C1324 C 0.2541 0.25813 0.06939 0.0
C1325 C 0.26172 0.24765 0.07505 0.0
C1326 C 0.25568 0.23824 0.08382 0.0
C1327 C 0.24193 0.23916 0.08721 0.0
C1328 C 0.23424 0.24937 0.08111 0.0
C1329 C 0.24029 0.25874 0.0723 0.0
C1330 C 0.26877 0.2781 0.07019 0.0
C1331 C 0.26284 0.28939 0.07585 0.0
C1332 C 0.26973 0.29697 0.0856 0.0
C1333 C 0.28274 0.29334 0.09003 0.0
C1334 C 0.28901 0.28244 0.08374 0.0
C1335 C 0.28209 0.27489 0.07387 0.0
C1336 C 0.26341 0.26774 0.04803 0.0
C1337 C 0.27155 0.2574 0.04324 0.0
C1338 C 0.27349 0.25585 0.02932 0.0
C1339 C 0.26754 0.26474 0.01989 0.0
C1340 C 0.2598 0.27535 0.02487 0.0
C1341 C 0.25772 0.27676 0.03874 0.0
H1342 H 0.77686 0.26696 0.95481 0.0
N1343 N 0.7541 0.25489 0.96539 0.0
H1344 H 0.79253 0.25691 0.93907 0.0
H1345 H 0.7552 0.22908 0.95846 0.0
H1346 H 0.77084 0.2189 0.94257 0.0
H1347 H 0.73252 0.24997 0.94998 0.0
H1348 H 0.72173 0.26529 0.93389 0.0
H1349 H 0.75963 0.28189 0.96274 0.0
H1350 H 0.74926 0.29722 0.94633 0.0
H1351 H 0.77859 0.25828 0.97908 0.0
H1352 H 0.73526 0.25883 0.98393 0.0
H1353 H 0.78166 0.26232 1.00292 0.0
H1354 H 0.73832 0.26372 0.00786 0.0
H1355 H 0.79149 0.27455 0.07932 0.0
H1356 H 0.80105 0.25816 0.09509 0.0
H1357 H 0.77075 0.22883 0.0826 0.0
H1358 H 0.76103 0.24542 0.06726 0.0
H1359 H 0.74607 0.2631 0.07712 0.0
H1360 H 0.73326 0.27569 0.09362 0.0
H1361 H 0.75815 0.31101 0.08539 0.0
H1362 H 0.77124 0.2981 0.06931 0.0
H1363 H 0.78434 0.28093 0.04433 0.0
H1364 H 0.78065 0.27786 0.02013 0.0
H1365 H 0.74428 0.25454 0.02868 0.0
N1366 N 0.76917 0.2719 0.06451 0.0
H1367 H 0.74767 0.25852 0.05276 0.0
C1368 C 0.76479 0.24874 0.95783 0.0
C1369 C 0.77556 0.25642 0.95236 0.0
C1370 C 0.78449 0.25067 0.94328 0.0
C1371 C 0.78286 0.23713 0.93943 0.0
C1372 C 0.77246 0.22932 0.94539 0.0
C1373 C 0.76351 0.2351 0.95447 0.0
C1374 C 0.74687 0.26474 0.95748 0.0
C1375 C 0.73601 0.26035 0.94939 0.0
C1376 C 0.72998 0.2691 0.94011 0.0
C1377 C 0.73475 0.28246 0.93864 0.0
C1378 C 0.74527 0.28703 0.94722 0.0
C1379 C 0.75126 0.27827 0.95657 0.0
C1380 C 0.75657 0.25825 0.97945 0.0
C1381 C 0.76966 0.25948 0.98511 0.0
C1382 C 0.77145 0.26191 0.99893 0.0
C1383 C 0.76026 0.26339 0.00748 0.0
C1384 C 0.74722 0.2624 1.00175 0.0
C1385 C 0.74543 0.25976 0.98798 0.0
C1386 C 0.77563 0.26126 0.07204 0.0
C1387 C 0.7871 0.26449 0.07983 0.0
C1388 C 0.79256 0.25508 0.08882 0.0
C1389 C 0.78665 0.24215 0.0902 0.0
C1390 C 0.77544 0.23875 0.08197 0.0
C1391 C 0.76994 0.24822 0.07303 0.0
C1392 C 0.75972 0.27967 0.07207 0.0
C1393 C 0.7486 0.27361 0.07867 0.0
C1394 C 0.74125 0.28087 0.08811 0.0
C1395 C 0.74481 0.29433 0.09105 0.0
C1396 C 0.75533 0.30058 0.08366 0.0
C1397 C 0.76272 0.29329 0.07434 0.0
C1398 C 0.76643 0.26983 0.05035 0.0
C1399 C 0.77556 0.27521 0.04091 0.0
C1400 C 0.77346 0.27332 0.02707 0.0
C1401 C 0.76222 0.2658 0.0223 0.0
C1402 C 0.75298 0.26051 0.03185 0.0
C1403 C 0.75499 0.26261 0.04571 0.0
H1404 H 0.76072 0.78015 0.9609 0.0
N1405 N 0.76561 0.75321 0.96365 0.0
H1406 H 0.77183 0.79568 0.94498 0.0
H1407 H 0.78756 0.74869 0.94928 0.0
H1408 H 0.7991 0.76423 0.93372 0.0
H1409 H 0.76401 0.7275 0.95643 0.0
H1410 H 0.74837 0.71731 0.94 0.0
H1411 H 0.74311 0.76506 0.95278 0.0
H1412 H 0.7272 0.75492 0.93685 0.0
H1413 H 0.74373 0.76442 0.97621 0.0
H1414 H 0.78318 0.74794 0.98329 0.0
H1415 H 0.74102 0.76772 1.0003 0.0
H1416 H 0.78091 0.75191 0.00748 0.0
H1417 H 0.7463 0.79078 0.07503 0.0
H1418 H 0.76024 0.80467 0.09015 0.0
H1419 H 0.7942 0.77895 0.08314 0.0
H1420 H 0.78012 0.76518 0.06787 0.0
H1421 H 0.76596 0.7467 0.07478 0.0
H1422 H 0.75631 0.73055 0.09084 0.0
H1423 H 0.71734 0.74905 0.08616 0.0
H1424 H 0.72718 0.76531 0.07005 0.0
H1425 H 0.74434 0.78352 0.04301 0.0
H1426 H 0.74768 0.78059 0.0188 0.0
H1427 H 0.77025 0.74452 0.02718 0.0
N1428 N 0.75301 0.76809 0.06316 0.0
H1429 H 0.76749 0.74805 0.0513 0.0
C1430 C 0.77329 0.76322 0.95618 0.0
C1431 C 0.76919 0.77667 0.95511 0.0
C1432 C 0.77561 0.78556 0.94603 0.0
C1433 C 0.78627 0.78117 0.9379 0.0
C1434 C 0.79075 0.76789 0.93957 0.0
C1435 C 0.78429 0.75903 0.94857 0.0
C1436 C 0.75474 0.74697 0.95598 0.0
C1437 C 0.75579 0.73341 0.9524 0.0
C1438 C 0.74683 0.72762 0.943 0.0
C1439 C 0.73657 0.73532 0.93695 0.0
C1440 C 0.73512 0.74874 0.94108 0.0
C1441 C 0.74414 0.75453 0.95041 0.0
C1442 C 0.76364 0.7557 0.97786 0.0
C1443 C 0.75187 0.76154 0.98289 0.0
C1444 C 0.75039 0.76357 0.99679 0.0
C1445 C 0.76072 0.76007 0.00601 0.0
C1446 C 0.77258 0.75448 1.00085 0.0
C1447 C 0.77397 0.75229 0.98698 0.0
C1448 C 0.76213 0.77697 0.07039 0.0
C1449 C 0.75683 0.78833 0.07655 0.0
C1450 C 0.76483 0.79624 0.08517 0.0
C1451 C 0.77833 0.79289 0.0879 0.0
C1452 C 0.78379 0.78171 0.08136 0.0
C1453 C 0.77578 0.77386 0.0726 0.0
C1454 C 0.74724 0.75719 0.07108 0.0
C1455 C 0.75529 0.74712 0.07691 0.0
C1456 C 0.74973 0.73786 0.08615 0.0
C1457 C 0.73606 0.73854 0.08985 0.0
C1458 C 0.72794 0.74834 0.08365 0.0
C1459 C 0.7335 0.75755 0.07436 0.0
C1460 C 0.75549 0.76598 0.049 0.0
C1461 C 0.75006 0.77503 0.03957 0.0
C1462 C 0.75189 0.77324 0.02571 0.0
C1463 C 0.75913 0.76221 0.02088 0.0
C1464 C 0.76474 0.75322 0.03042 0.0
C1465 C 0.76305 0.75514 0.04431 0.0
H1466 H 0.28341 0.75463 0.95414 0.0
N1467 N 0.26021 0.74325 0.96445 0.0
H1468 H 0.2987 0.74428 0.93826 0.0
H1469 H 0.26021 0.71758 0.95693 0.0
H1470 H 0.27565 0.70701 0.94109 0.0
H1471 H 0.2387 0.73991 0.94855 0.0
H1472 H 0.22866 0.75644 0.93321 0.0
H1473 H 0.26686 0.77009 0.96316 0.0
H1474 H 0.25683 0.7868 0.9479 0.0
H1475 H 0.28447 0.74784 0.97811 0.0
H1476 H 0.24126 0.74442 0.98324 0.0
H1477 H 0.28741 0.75092 1.00216 0.0
H1478 H 0.24406 0.74842 0.00737 0.0
H1479 H 0.29671 0.76032 0.07768 0.0
H1480 H 0.30604 0.74456 0.0943 0.0
H1481 H 0.27325 0.71648 0.08579 0.0
H1482 H 0.26391 0.73236 0.0695 0.0
H1483 H 0.24875 0.75049 0.07424 0.0
H1484 H 0.23449 0.76405 0.08868 0.0
H1485 H 0.26285 0.79744 0.0847 0.0
H1486 H 0.27696 0.7838 0.07018 0.0
H1487 H 0.28845 0.76824 0.0444 0.0
H1488 H 0.2853 0.76539 0.0201 0.0
H1489 H 0.25074 0.73915 0.02776 0.0
N1490 N 0.27351 0.75798 0.0642 0.0
H1491 H 0.25345 0.74295 0.05188 0.0
C1492 C 0.27065 0.73683 0.95681 0.0
C1493 C 0.28176 0.74417 0.95156 0.0
C1494 C 0.29055 0.73821 0.94249 0.0
C1495 C 0.28837 0.72482 0.93834 0.0
C1496 C 0.27753 0.71737 0.94396 0.0
C1497 C 0.26878 0.72334 0.95311 0.0
C1498 C 0.25349 0.75375 0.95696 0.0
C1499 C 0.24252 0.7502 0.94861 0.0
C1500 C 0.23679 0.75968 0.93988 0.0
C1501 C 0.24198 0.77295 0.93927 0.0
C1502 C 0.25272 0.77662 0.94799 0.0
C1503 C 0.25841 0.76712 0.95678 0.0
C1504 C 0.26254 0.74576 0.97869 0.0
C1505 C 0.27553 0.74787 0.9843 0.0
C1506 C 0.27723 0.74978 0.99822 0.0
C1507 C 0.266 0.74992 0.0069 0.0
C1508 C 0.25302 0.74809 1.00118 0.0
C1509 C 0.25136 0.74594 0.98732 0.0
C1510 C 0.27967 0.74757 0.07228 0.0
C1511 C 0.29172 0.75064 0.07923 0.0
C1512 C 0.29703 0.74161 0.08872 0.0
C1513 C 0.29035 0.72927 0.09147 0.0
C1514 C 0.27854 0.72598 0.08408 0.0
C1515 C 0.27324 0.73504 0.07462 0.0
C1516 C 0.26395 0.76617 0.07112 0.0
C1517 C 0.25178 0.76079 0.07626 0.0
C1518 C 0.24368 0.76853 0.08462 0.0
C1519 C 0.24756 0.78182 0.08792 0.0
C1520 C 0.25946 0.78732 0.08226 0.0
C1521 C 0.26756 0.77955 0.07398 0.0
C1522 C 0.27137 0.75568 0.04999 0.0
C1523 C 0.2802 0.76189 0.04077 0.0
C1524 C 0.27843 0.76013 0.02686 0.0
C1525 C 0.26781 0.75192 0.0218 0.0
C1526 C 0.25894 0.74569 0.03114 0.0
C1527 C 0.2606 0.74767 0.04506 0.0
H1528 H 0.95134 0.24017 0.29148 0.0
N1529 N 0.9653 0.24619 0.26946 0.0
H1530 H 0.93673 0.25491 0.30423 0.0
H1531 H 0.96324 0.2735 0.26582 0.0
H1532 H 0.9488 0.28846 0.27866 0.0
H1533 H 0.95327 0.25915 0.2481 0.0
H1534 H 0.9371 0.24933 0.23214 0.0
H1535 H 0.95829 0.22034 0.26711 0.0
H1536 H 0.94202 0.21035 0.25108 0.0
H1537 H 0.98576 0.2376 0.28453 0.0
H1538 H 0.97689 0.26058 0.24854 0.0
H1539 H 0.00999 0.24103 0.2807 0.0
H1540 H 1.00097 0.26356 0.24427 0.0
H1541 H 0.06814 0.25242 0.27827 0.0
H1542 H 0.08398 0.26242 0.2946 0.0
H1543 H 0.09441 0.29357 0.26554 0.0
H1544 H 0.07885 0.2832 0.24917 0.0
H1545 H 0.07005 0.26209 0.22583 0.0
H1546 H 0.0857 0.24827 0.21318 0.0
H1547 H 0.09159 0.22318 0.24854 0.0
H1548 H 0.07616 0.23718 0.26112 0.0
H1549 H 0.05223 0.23793 0.26292 0.0
H1550 H 0.02808 0.23459 0.26686 0.0
H1551 H 0.02079 0.27479 0.25166 0.0
N1552 N 0.06459 0.2605 0.25201 0.0
H1553 H 0.04494 0.27774 0.24722 0.0
C1554 C 0.9584 0.25569 0.27777 0.0
C1555 C 0.95101 0.25077 0.28882 0.0
C1556 C 0.94269 0.25923 0.2961 0.0
C1557 C 0.94154 0.27291 0.29248 0.0
C1558 C 0.9493 0.27795 0.28163 0.0
C1559 C 0.95766 0.26943 0.27433 0.0
C1560 C 0.95712 0.24042 0.25877 0.0
C1561 C 0.95117 0.24844 0.24865 0.0
C1562 C 0.94188 0.2428 0.23951 0.0
C1563 C 0.93823 0.22906 0.24036 0.0
C1564 C 0.94451 0.22099 0.25024 0.0
C1565 C 0.95388 0.22664 0.25932 0.0
C1566 C 0.97947 0.24871 0.26684 0.0
C1567 C 0.98906 0.24333 0.27576 0.0
C1568 C 1.00292 0.24521 0.27347 0.0
C1569 C 0.00755 0.25251 0.2621 0.0
C1570 C 0.99786 0.25802 0.25322 0.0
C1571 C 0.98399 0.25622 0.25559 0.0
C1572 C 0.07239 0.26708 0.26247 0.0
C1573 C 0.07374 0.26147 0.27548 0.0
C1574 C 0.08277 0.26725 0.28484 0.0
C1575 C 0.09059 0.27874 0.28135 0.0
C1576 C 0.08876 0.28459 0.26849 0.0
C1577 C 0.07979 0.27878 0.25917 0.0
C1578 C 0.07187 0.25071 0.24437 0.0
C1579 C 0.07448 0.25341 0.23072 0.0
C1580 C 0.08343 0.24548 0.22353 0.0
C1581 C 0.09002 0.23465 0.22987 0.0
C1582 C 0.08687 0.23156 0.2434 0.0
C1583 C 0.0779 0.2395 0.25058 0.0
C1584 C 0.0504 0.25807 0.25458 0.0
C1585 C 0.04546 0.24598 0.26032 0.0
C1586 C 0.03158 0.24414 0.26271 0.0
C1587 C 0.02236 0.2544 0.25956 0.0
C1588 C 0.02745 0.26654 0.25397 0.0
C1589 C 0.04128 0.2683 0.2515 0.0
H1590 H 0.77225 0.07261 0.26919 0.0
N1591 N 0.75045 0.05988 0.25727 0.0
H1592 H 0.78817 0.088 0.25826 0.0
H1593 H 0.75281 0.06471 0.2309 0.0
H1594 H 0.76915 0.0798 0.21967 0.0
H1595 H 0.72881 0.07457 0.25236 0.0
H1596 H 0.71792 0.09019 0.26763 0.0
H1597 H 0.75567 0.06225 0.28442 0.0
H1598 H 0.74523 0.07817 0.29965 0.0
H1599 H 0.77186 0.04848 0.27074 0.0
H1600 H 0.73435 0.03947 0.25005 0.0
H1601 H 0.77575 0.02449 0.27392 0.0
H1602 H 0.73786 0.01537 0.25362 0.0
H1603 H 0.79357 0.95662 0.27209 0.0
H1604 H 0.8062 0.94176 0.2574 0.0
H1605 H 0.77011 0.93478 0.23339 0.0
H1606 H 0.75757 0.94943 0.24826 0.0
H1607 H 0.74065 0.95747 0.26412 0.0
H1608 H 0.72454 0.94151 0.27441 0.0
H1609 H 0.75485 0.9304 0.30395 0.0
H1610 H 0.77079 0.9465 0.29365 0.0
H1611 H 0.7728 0.98091 0.28862 0.0
H1612 H 0.76844 1.00495 0.28586 0.0
H1613 H 0.75128 0.99726 0.24632 0.0
N1614 N 0.7672 0.96119 0.27147 0.0
H1615 H 0.75523 0.97324 0.24944 0.0
C1616 C 0.76123 0.06752 0.25085 0.0
C1617 C 0.77156 0.07395 0.25837 0.0
C1618 C 0.78076 0.08275 0.25205 0.0
C1619 C 0.77993 0.08527 0.23805 0.0
C1620 C 0.76995 0.07833 0.23049 0.0
C1621 C 0.76069 0.06958 0.23685 0.0
C1622 C 0.74304 0.06728 0.26718 0.0
C1623 C 0.73221 0.07511 0.26277 0.0
C1624 C 0.72612 0.08415 0.27148 0.0
C1625 C 0.73082 0.08563 0.28484 0.0
C1626 C 0.74127 0.07726 0.28947 0.0
C1627 C 0.74731 0.06815 0.28073 0.0
C1628 C 0.75281 0.04581 0.26002 0.0
C1629 C 0.76439 0.04136 0.26696 0.0
C1630 C 0.76656 0.02756 0.26885 0.0
C1631 C 0.75716 0.01789 0.26398 0.0
C1632 C 0.74547 0.02244 0.25729 0.0
C1633 C 0.74336 0.03623 0.25534 0.0
C1634 C 0.77468 0.95419 0.26132 0.0
C1635 C 0.78849 0.9521 0.26348 0.0
C1636 C 0.79568 0.94361 0.25504 0.0
C1637 C 0.78916 0.93698 0.24424 0.0
C1638 C 0.77541 0.93956 0.24172 0.0
C1639 C 0.76824 0.94808 0.25017 0.0
C1640 C 0.75694 0.95317 0.27817 0.0
C1641 C 0.74375 0.95175 0.27292 0.0
C1642 C 0.73458 0.94254 0.27877 0.0
C1643 C 0.73841 0.93462 0.28998 0.0
C1644 C 0.75148 0.93644 0.29545 0.0
C1645 C 0.76062 0.9456 0.28958 0.0
C1646 C 0.76447 0.97527 0.26925 0.0
C1647 C 0.76809 0.98446 0.27937 0.0
C1648 C 0.76566 0.99821 0.27772 0.0
C1649 C 0.75956 1.00315 0.26582 0.0
C1650 C 0.75584 0.99386 0.25569 0.0
C1651 C 0.75821 0.98007 0.25741 0.0
H1652 H 0.07599 0.77261 0.29037 0.0
N1653 N 0.06374 0.77035 0.26649 0.0
H1654 H 0.09075 0.75622 0.30136 0.0
H1655 H 0.06705 0.74434 0.25867 0.0
H1656 H 0.08144 0.72776 0.26969 0.0
H1657 H 0.06909 0.76122 0.24127 0.0
H1658 H 0.08584 0.77084 0.22569 0.0
H1659 H 0.07605 0.79424 0.26845 0.0
H1660 H 0.09233 0.80436 0.25271 0.0
H1661 H 0.04838 0.78819 0.27846 0.0
H1662 H 0.04639 0.7535 0.25275 0.0
H1663 H 0.02377 0.78945 0.27807 0.0
H1664 H 0.02166 0.75405 0.25293 0.0
H1665 H 0.9468 0.77872 0.28914 0.0
H1666 H 0.93166 0.76209 0.29977 0.0
H1667 H 0.94574 0.73178 0.27243 0.0
H1668 H 0.96081 0.74862 0.26181 0.0
H1669 H 0.95312 0.76429 0.24419 0.0
H1670 H 0.93739 0.77455 0.2282 0.0
H1671 H 0.93909 0.81141 0.25106 0.0
H1672 H 0.95471 0.80091 0.26716 0.0
H1673 H 0.98004 0.78096 0.28724 0.0
H1674 H 1.00456 0.77906 0.28681 0.0
H1675 H 1.00198 0.76508 0.2456 0.0
N1676 N 0.96236 0.7754 0.26778 0.0
H1677 H 0.97735 0.76629 0.2465 0.0
C1678 C 0.07036 0.7597 0.27378 0.0
C1679 C 0.07693 0.76271 0.286 0.0
C1680 C 0.08535 0.75332 0.29225 0.0
C1681 C 0.08739 0.74067 0.28637 0.0
C1682 C 0.08029 0.73747 0.2744 0.0
C1683 C 0.07189 0.7469 0.26815 0.0
C1684 C 0.07147 0.77699 0.25607 0.0
C1685 C 0.07402 0.77071 0.24373 0.0
C1686 C 0.08356 0.77629 0.2348 0.0
C1687 C 0.09064 0.7883 0.23802 0.0
C1688 C 0.08736 0.79494 0.25003 0.0
C1689 C 0.07794 0.78929 0.25896 0.0
C1690 C 0.0492 0.77067 0.26585 0.0
C1691 C 0.04256 0.78075 0.27285 0.0
C1692 C 0.02845 0.78134 0.2727 0.0
C1693 C 0.02056 0.77171 0.26566 0.0
C1694 C 0.02731 0.7617 0.25842 0.0
C1695 C 0.0415 0.76125 0.25843 0.0
C1696 C 0.95488 0.76491 0.27473 0.0
C1697 C 0.94676 0.76843 0.28562 0.0
C1698 C 0.93815 0.75889 0.29169 0.0
C1699 C 0.93744 0.74559 0.28693 0.0
C1700 C 0.94592 0.74198 0.27623 0.0
C1701 C 0.95459 0.75155 0.27019 0.0
C1702 C 0.95515 0.78189 0.25688 0.0
C1703 C 0.95038 0.77467 0.2456 0.0
C1704 C 0.94136 0.78057 0.23644 0.0
C1705 C 0.93685 0.79378 0.2384 0.0
C1706 C 0.94217 0.80116 0.24935 0.0
C1707 C 0.95121 0.79525 0.25848 0.0
C1708 C 0.97683 0.77399 0.2669 0.0
C1709 C 0.98479 0.77746 0.27814 0.0
C1710 C 0.99886 0.77646 0.2778 0.0
C1711 C 1.00542 0.77213 0.26608 0.0
C1712 C 0.99737 0.76839 0.25485 0.0
C1713 C 0.98321 0.76921 0.25529 0.0
H1714 H 0.29021 0.95691 0.25864 0.0
N1715 N 0.26392 0.96016 0.26623 0.0
H1716 H 0.30636 0.94148 0.26908 0.0
H1717 H 0.26094 0.9464 0.2891 0.0
H1718 H 0.27689 0.93087 0.29956 0.0
H1719 H 0.23798 0.95309 0.26789 0.0
H1720 H 0.22549 0.93712 0.25361 0.0
H1721 H 0.27291 0.94957 0.24254 0.0
H1722 H 0.26045 0.93393 0.22799 0.0
H1723 H 0.2762 0.97294 0.24474 0.0
H1724 H 0.25665 0.97953 0.28275 0.0
H1725 H 0.2787 0.99724 0.24129 0.0
H1726 H 0.25953 1.00387 0.27969 0.0
H1727 H 0.29639 0.07687 0.24955 0.0
H1728 H 0.30655 0.09188 0.26642 0.0
H1729 H 0.28 0.07474 0.29673 0.0
H1730 H 0.26982 0.0599 0.27975 0.0
H1731 H 0.25258 0.06966 0.26482 0.0
H1732 H 0.23638 0.0851 0.25499 0.0
H1733 H 0.2579 0.08448 0.2172 0.0
H1734 H 0.27386 0.06849 0.22705 0.0
H1735 H 0.29259 0.04138 0.24561 0.0
H1736 H 0.29042 0.01697 0.24884 0.0
H1737 H 0.25124 0.02221 0.26689 0.0
N1738 N 0.27534 0.06021 0.25264 0.0
H1739 H 0.25373 0.04646 0.2641 0.0
C1740 C 0.27435 0.95279 0.27314 0.0
C1741 C 0.28733 0.95143 0.26769 0.0
C1742 C 0.29651 0.94252 0.27362 0.0
C1743 C 0.29291 0.93485 0.28513 0.0
C1744 C 0.2801 0.9367 0.29083 0.0
C1745 C 0.27095 0.94556 0.28487 0.0
C1746 C 0.25631 0.9526 0.2563 0.0
C1747 C 0.24281 0.94915 0.25901 0.0
C1748 C 0.2357 0.94004 0.25081 0.0
C1749 C 0.24198 0.93414 0.23967 0.0
C1750 C 0.25535 0.9381 0.2366 0.0
C1751 C 0.26246 0.94721 0.24484 0.0
C1752 C 0.26609 0.97441 0.26399 0.0
C1753 C 0.2725 0.9796 0.25239 0.0
C1754 C 0.27401 0.99356 0.25048 0.0
C1755 C 0.26924 1.00262 0.26017 0.0
C1756 C 0.26307 0.99729 0.27186 0.0
C1757 C 0.26151 0.98337 0.2737 0.0
C1758 C 0.28238 0.06727 0.26334 0.0
C1759 C 0.29298 0.07618 0.25991 0.0
C1760 C 0.29878 0.08473 0.26958 0.0
C1761 C 0.29403 0.08459 0.28293 0.0
C1762 C 0.28376 0.07524 0.2865 0.0
C1763 C 0.27799 0.06666 0.27681 0.0
C1764 C 0.26443 0.06773 0.2466 0.0
C1765 C 0.25365 0.07248 0.25431 0.0
C1766 C 0.24446 0.08153 0.24871 0.0
C1767 C 0.2459 0.08622 0.23533 0.0
C1768 C 0.25638 0.08103 0.22748 0.0
C1769 C 0.26552 0.07189 0.23309 0.0
C1770 C 0.27335 0.04584 0.25448 0.0
C1771 C 0.28353 0.03722 0.25025 0.0
C1772 C 0.28223 0.02325 0.25203 0.0
C1773 C 0.27063 0.01753 0.25811 0.0
C1774 C 0.26041 0.02621 0.26234 0.0
C1775 C 0.26177 0.04019 0.26062 0.0
H1776 H 0.07452 0.74134 0.76723 0.0
N1777 N 0.06269 0.76505 0.75997 0.0
H1778 H 0.08986 0.72842 0.75332 0.0
H1779 H 0.06673 0.76801 0.73365 0.0
H1780 H 0.08163 0.75488 0.71946 0.0
H1781 H 0.07767 0.78733 0.75737 0.0
H1782 H 0.09449 0.79631 0.77327 0.0
H1783 H 0.06681 0.75613 0.78599 0.0
H1784 H 0.08319 0.76526 0.80213 0.0
H1785 H 0.05063 0.74414 0.77387 0.0
H1786 H 0.04271 0.7804 0.75127 0.0
H1787 H 0.02657 0.74121 0.77837 0.0
H1788 H 0.01847 0.77707 0.75471 0.0
H1789 H 0.94739 0.72896 0.77898 0.0
H1790 H 0.93165 0.71992 0.76204 0.0
H1791 H 0.94529 0.75043 0.73362 0.0
H1792 H 0.96096 0.75945 0.75076 0.0
H1793 H 0.95161 0.77417 0.76813 0.0
H1794 H 0.93555 0.78753 0.78058 0.0
H1795 H 0.94216 0.76267 0.81599 0.0
H1796 H 0.95783 0.74899 0.80319 0.0
H1797 H 0.98178 0.73206 0.77434 0.0
H1798 H 0.0058 0.73511 0.76971 0.0
H1799 H 1.00085 0.77832 0.76958 0.0
N1800 N 0.96317 0.75076 0.77695 0.0
H1801 H 0.97675 0.77508 0.77319 0.0
C1802 C 0.06957 0.75573 0.75147 0.0
C1803 C 0.07583 0.74421 0.75676 0.0
C1804 C 0.0846 0.7368 0.74875 0.0
C1805 C 0.0872 0.74074 0.73531 0.0
C1806 C 0.08015 0.75174 0.72985 0.0
C1807 C 0.0715 0.75917 0.73788 0.0
C1808 C 0.0709 0.77114 0.77045 0.0
C1809 C 0.07867 0.78264 0.76723 0.0
C1810 C 0.08826 0.78777 0.77637 0.0
C1811 C 0.09028 0.78149 0.78901 0.0
C1812 C 0.08209 0.77023 0.79242 0.0
C1813 C 0.07255 0.76507 0.78322 0.0
C1814 C 0.0485 0.76268 0.76245 0.0
C1815 C 0.0437 0.7515 0.76988 0.0
C1816 C 0.02982 0.74973 0.77225 0.0
C1817 C 0.02037 0.75892 0.76696 0.0
C1818 C 0.0253 0.76994 0.75928 0.0
C1819 C 0.03918 0.77182 0.75716 0.0
C1820 C 0.95531 0.74482 0.76614 0.0
C1821 C 0.94712 0.73352 0.76901 0.0
C1822 C 0.93816 0.72837 0.7593 0.0
C1823 C 0.93717 0.73447 0.74647 0.0
C1824 C 0.94569 0.7456 0.74345 0.0
C1825 C 0.95471 0.75072 0.7532 0.0
C1826 C 0.95587 0.76046 0.78473 0.0
C1827 C 0.94977 0.7717 0.77862 0.0
C1828 C 0.9406 0.77941 0.78581 0.0
C1829 C 0.93736 0.77609 0.79927 0.0
C1830 C 0.94416 0.76536 0.80557 0.0
C1831 C 0.95325 0.75762 0.79834 0.0
C1832 C 0.97737 0.75325 0.77423 0.0
C1833 C 0.9859 0.74218 0.77322 0.0
C1834 C 0.99971 0.74399 0.77072 0.0
C1835 C 1.00549 0.75699 0.76937 0.0
C1836 C 0.99687 0.76812 0.77034 0.0
C1837 C 0.98297 0.76628 0.77257 0.0
H1838 H 0.2804 0.06684 0.77681 0.0
N1839 N 0.25741 0.05671 0.76482 0.0
H1840 H 0.29666 0.0826 0.76663 0.0
H1841 H 0.25845 0.06454 0.73914 0.0
H1842 H 0.2745 0.0806 0.72889 0.0
H1843 H 0.23595 0.07158 0.75969 0.0
H1844 H 0.22523 0.08746 0.77475 0.0
H1845 H 0.26208 0.0588 0.79219 0.0
H1846 H 0.25116 0.07423 0.80742 0.0
H1847 H 0.27568 0.04406 0.7815 0.0
H1848 H 0.2442 0.03715 0.75195 0.0
H1849 H 0.27872 0.01994 0.78394 0.0
H1850 H 0.24781 0.01291 0.75352 0.0
H1851 H 0.29525 0.9447 0.78091 0.0
H1852 H 0.30803 0.9302 0.76602 0.0
H1853 H 0.28045 0.93924 0.73326 0.0
H1854 H 0.26781 0.95395 0.7483 0.0
H1855 H 0.25019 0.94597 0.76274 0.0
H1856 H 0.23454 0.92927 0.77222 0.0
H1857 H 0.25568 0.93163 0.81052 0.0
H1858 H 0.27109 0.94873 0.80097 0.0
H1859 H 0.29066 0.97695 0.77697 0.0
H1860 H 0.28736 1.00107 0.774 0.0
H1861 H 0.24482 0.99348 0.76622 0.0
N1862 N 0.27235 0.95711 0.7754 0.0
H1863 H 0.24841 0.96949 0.76829 0.0
C1864 C 0.26821 0.06445 0.75867 0.0
C1865 C 0.27922 0.06951 0.76627 0.0
C1866 C 0.28844 0.07866 0.76046 0.0
C1867 C 0.28683 0.08298 0.74697 0.0
C1868 C 0.27614 0.07741 0.73925 0.0
C1869 C 0.26694 0.06826 0.74508 0.0
C1870 C 0.24977 0.06391 0.77472 0.0
C1871 C 0.23909 0.07191 0.77019 0.0
C1872 C 0.23296 0.08098 0.77884 0.0
C1873 C 0.23737 0.08225 0.79233 0.0
C1874 C 0.24765 0.07373 0.79705 0.0
C1875 C 0.25383 0.06471 0.78833 0.0
C1876 C 0.25946 0.04246 0.76672 0.0
C1877 C 0.26934 0.03737 0.77557 0.0
C1878 C 0.27124 0.02346 0.77677 0.0
C1879 C 0.26355 0.01429 0.76892 0.0
C1880 C 0.25376 0.01951 0.75997 0.0
C1881 C 0.25172 0.03339 0.75897 0.0
C1882 C 0.2806 0.95032 0.76575 0.0
C1883 C 0.29216 0.94377 0.77044 0.0
C1884 C 0.29943 0.9355 0.7619 0.0
C1885 C 0.29522 0.93351 0.74846 0.0
C1886 C 0.28386 0.94046 0.74361 0.0
C1887 C 0.27666 0.94889 0.75216 0.0
C1888 C 0.2618 0.9487 0.7812 0.0
C1889 C 0.25132 0.94311 0.77324 0.0
C1890 C 0.24244 0.93343 0.77866 0.0
C1891 C 0.24392 0.92895 0.79211 0.0
C1892 C 0.25413 0.93491 0.80018 0.0
C1893 C 0.26296 0.94468 0.79475 0.0
C1894 C 0.26988 0.97126 0.77295 0.0
C1895 C 0.28066 0.98051 0.77447 0.0
C1896 C 0.27868 0.99436 0.77293 0.0
C1897 C 0.26576 0.99941 0.77003 0.0
C1898 C 0.25497 0.99009 0.76829 0.0
C1899 C 0.25701 0.9762 0.76959 0.0
H1900 H 0.94979 0.2443 0.76328 0.0
N1901 N 0.96208 0.26647 0.77471 0.0
H1902 H 0.93415 0.22859 0.77427 0.0
H1903 H 0.95575 0.26537 0.80079 0.0
H1904 H 0.93997 0.24957 0.81195 0.0
H1905 H 0.94708 0.28802 0.77824 0.0
H1906 H 0.93185 0.29859 0.7619 0.0
H1907 H 0.96041 0.26078 0.74768 0.0
H1908 H 0.94534 0.27138 0.73119 0.0
H1909 H 0.97341 0.24399 0.76358 0.0
H1910 H 0.98276 0.28301 0.78027 0.0
H1911 H 0.99733 0.23989 0.76077 0.0
H1912 H 0.00688 0.27932 0.77682 0.0
H1913 H 0.06524 0.2217 0.76161 0.0
H1914 H 0.08081 0.20948 0.77638 0.0
H1915 H 0.08841 0.24583 0.7991 0.0
H1916 H 0.07303 0.25797 0.78411 0.0
H1917 H 0.06944 0.27377 0.76603 0.0
H1918 H 0.08654 0.28629 0.75292 0.0
H1919 H 0.08715 0.25387 0.72409 0.0
H1920 H 0.07054 0.2413 0.73759 0.0
H1921 H 0.04027 0.24065 0.74548 0.0
H1922 H 0.01633 0.24557 0.74805 0.0
H1923 H 0.02575 0.26737 0.78466 0.0
N1924 N 0.06073 0.24798 0.76139 0.0
H1925 H 0.04975 0.26296 0.7815 0.0
C1926 C 0.95411 0.25601 0.78127 0.0
C1927 C 0.948 0.24539 0.77397 0.0
C1928 C 0.93901 0.23638 0.78028 0.0
C1929 C 0.93579 0.23783 0.79399 0.0
C1930 C 0.94215 0.24824 0.80135 0.0
C1931 C 0.95125 0.2572 0.79504 0.0
C1932 C 0.95489 0.27365 0.76423 0.0
C1933 C 0.94693 0.28454 0.76791 0.0
C1934 C 0.93825 0.29057 0.75854 0.0
C1935 C 0.93729 0.2858 0.74522 0.0
C1936 C 0.94568 0.27519 0.7414 0.0
C1937 C 0.9544 0.26918 0.7508 0.0
C1938 C 0.9762 0.26381 0.77234 0.0
C1939 C 0.98057 0.25175 0.7666 0.0
C1940 C 0.99437 0.24947 0.76485 0.0
C1941 C 1.00419 0.25925 0.76856 0.0
C1942 C 0.99973 0.27141 0.77407 0.0
C1943 C 0.98592 0.27361 0.77595 0.0
C1944 C 0.06791 0.24069 0.77176 0.0
C1945 C 0.07002 0.22691 0.77 0.0
C1946 C 0.07893 0.21996 0.77847 0.0
C1947 C 0.08596 0.22668 0.7889 0.0
C1948 C 0.08332 0.24038 0.79105 0.0
C1949 C 0.07439 0.24732 0.78256 0.0
C1950 C 0.06888 0.25655 0.7528 0.0
C1951 C 0.07319 0.26946 0.75682 0.0
C1952 C 0.08292 0.27663 0.74926 0.0
C1953 C 0.08842 0.271 0.73755 0.0
C1954 C 0.08342 0.25838 0.73321 0.0
C1955 C 0.07381 0.25124 0.74081 0.0
C1956 C 0.04676 0.25128 0.76333 0.0
C1957 C 0.03712 0.24653 0.75402 0.0
C1958 C 0.02341 0.24927 0.7556 0.0
C1959 C 0.01895 0.25676 0.76667 0.0
C1960 C 0.02873 0.26169 0.77593 0.0
C1961 C 0.04251 0.25906 0.77423 0.0
H1962 H 0.79206 0.95019 0.75343 0.0
N1963 N 0.76771 0.95966 0.75871 0.0
H1964 H 0.80551 0.93516 0.76765 0.0
H1965 H 0.7623 0.95276 0.7847 0.0
H1966 H 0.77564 0.93761 0.79911 0.0
H1967 H 0.74319 0.95211 0.7686 0.0
H1968 H 0.72705 0.93628 0.75824 0.0
H1969 H 0.76902 0.94941 0.734 0.0
H1970 H 0.75316 0.93326 0.72363 0.0
H1971 H 0.78532 0.97645 0.74691 0.0
H1972 H 0.74951 0.97542 0.77131 0.0
H1973 H 0.78535 1.00102 0.74686 0.0
H1974 H 0.74886 1.00006 0.77071 0.0
H1975 H 0.79438 0.07018 0.75812 0.0
H1976 H 0.80391 0.08579 0.77483 0.0
H1977 H 0.76646 0.08348 0.797 0.0
H1978 H 0.75695 0.06832 0.78006 0.0
H1979 H 0.74197 0.06151 0.76175 0.0
H1980 H 0.72568 0.07685 0.75124 0.0
H1981 H 0.75705 0.09229 0.72487 0.0
H1982 H 0.77314 0.07695 0.73544 0.0
H1983 H 0.77569 0.04402 0.73725 0.0
H1984 H 0.77454 0.01947 0.73765 0.0
H1985 H 0.7587 0.02038 0.77821 0.0
N1986 N 0.76904 0.06088 0.75658 0.0
H1987 H 0.75912 0.04492 0.77733 0.0
C1988 C 0.77625 0.95254 0.76803 0.0
C1989 C 0.78861 0.94771 0.76351 0.0
C1990 C 0.79626 0.93913 0.77167 0.0
C1991 C 0.79163 0.93512 0.78452 0.0
C1992 C 0.77942 0.94038 0.78922 0.0
C1993 C 0.77182 0.94909 0.78106 0.0
C1994 C 0.75723 0.952 0.75198 0.0
C1995 C 0.74525 0.94829 0.75865 0.0
C1996 C 0.73612 0.9391 0.75277 0.0
C1997 C 0.73884 0.93337 0.74013 0.0
C1998 C 0.75062 0.93756 0.73327 0.0
C1999 C 0.75972 0.94677 0.73917 0.0
C2000 C 0.76737 0.97414 0.75897 0.0
C2001 C 0.77737 0.98159 0.75216 0.0
C2002 C 0.77726 0.99567 0.75204 0.0
C2003 C 0.76698 1.00269 0.75862 0.0
C2004 C 0.75701 0.99511 0.76561 0.0
C2005 C 0.75727 0.98098 0.76587 0.0
C2006 C 0.77503 0.06799 0.76784 0.0
C2007 C 0.78838 0.07283 0.76677 0.0
C2008 C 0.79379 0.08175 0.77634 0.0
C2009 C 0.78592 0.08602 0.78722 0.0
C2010 C 0.77274 0.08061 0.78863 0.0
C2011 C 0.76733 0.07176 0.77902 0.0
C2012 C 0.75876 0.06815 0.74935 0.0
C2013 C 0.74524 0.06807 0.75358 0.0
C2014 C 0.73598 0.07689 0.74761 0.0
C2015 C 0.74007 0.08586 0.73725 0.0
C2016 C 0.75349 0.08544 0.73269 0.0
C2017 C 0.76271 0.0767 0.73871 0.0
C2018 C 0.76772 0.04638 0.75727 0.0
C2019 C 0.77189 0.03889 0.74619 0.0
C2020 C 0.77135 0.02481 0.74652 0.0
C2021 C 0.76676 0.01778 0.75808 0.0
C2022 C 0.76223 0.02534 0.76909 0.0
C2023 C 0.76259 0.03948 0.76866 0.0
H2024 H 0.26585 0.73074 0.45506 0.0
N2025 N 0.2684 0.75655 0.46175 0.0
H2026 H 0.24971 0.72073 0.43898 0.0
H2027 H 0.24644 0.76902 0.4505 0.0
H2028 H 0.23005 0.75909 0.43494 0.0
H2029 H 0.2645 0.78364 0.45851 0.0
H2030 H 0.27611 0.79843 0.44226 0.0
H2031 H 0.29024 0.75102 0.44761 0.0
H2032 H 0.30228 0.76582 0.43171 0.0
H2033 H 0.28498 0.74972 0.48178 0.0
H2034 H 0.24737 0.76962 0.47382 0.0
H2035 H 0.28231 0.75351 0.50597 0.0
H2036 H 0.2442 0.77278 0.49787 0.0
H2037 H 0.26566 0.74946 0.57389 0.0
H2038 H 0.25506 0.73331 0.58928 0.0
H2039 H 0.21598 0.75007 0.58004 0.0
H2040 H 0.22688 0.76665 0.56503 0.0
H2041 H 0.24644 0.79229 0.57433 0.0
H2042 H 0.26033 0.80526 0.59029 0.0
H2043 H 0.29438 0.78016 0.58168 0.0
H2044 H 0.28033 0.7673 0.56559 0.0
H2045 H 0.26669 0.74966 0.54924 0.0
H2046 H 0.27033 0.74658 0.52514 0.0
H2047 H 0.25126 0.78466 0.51687 0.0
N2048 N 0.25324 0.77045 0.56099 0.0
H2049 H 0.24701 0.7872 0.54097 0.0
C2050 C 0.25736 0.75057 0.45413 0.0
C2051 C 0.25786 0.73688 0.45089 0.0
C2052 C 0.24861 0.73119 0.4417 0.0
C2053 C 0.23862 0.73912 0.43553 0.0
C2054 C 0.23775 0.75272 0.43928 0.0
C2055 C 0.24704 0.7584 0.44839 0.0
C2056 C 0.27648 0.76617 0.45419 0.0
C2057 C 0.27285 0.77974 0.45282 0.0
C2058 C 0.27955 0.78821 0.44355 0.0
C2059 C 0.29003 0.78328 0.4355 0.0
C2060 C 0.29407 0.76989 0.43749 0.0
C2061 C 0.28733 0.76145 0.44668 0.0
C2062 C 0.26637 0.75921 0.47592 0.0
C2063 C 0.27609 0.75482 0.48527 0.0
C2064 C 0.27447 0.7569 0.49913 0.0
C2065 C 0.26297 0.76338 0.50403 0.0
C2066 C 0.25329 0.76792 0.49457 0.0
C2067 C 0.25502 0.76597 0.48069 0.0
C2068 C 0.24704 0.75937 0.56834 0.0
C2069 C 0.2548 0.74958 0.57501 0.0
C2070 C 0.24867 0.74025 0.58381 0.0
C2071 C 0.23463 0.74041 0.58607 0.0
C2072 C 0.22683 0.74979 0.57881 0.0
C2073 C 0.233 0.75918 0.57009 0.0
C2074 C 0.26231 0.77886 0.56883 0.0
C2075 C 0.25697 0.78979 0.5757 0.0
C2076 C 0.26494 0.79717 0.5848 0.0
C2077 C 0.27847 0.79371 0.5873 0.0
C2078 C 0.28396 0.78298 0.58008 0.0
C2079 C 0.27597 0.77566 0.57084 0.0
C2080 C 0.25635 0.7686 0.54691 0.0
C2081 C 0.26323 0.75731 0.54226 0.0
C2082 C 0.26543 0.75563 0.52839 0.0
C2083 C 0.26101 0.76531 0.51889 0.0
C2084 C 0.25452 0.7768 0.52373 0.0
C2085 C 0.25218 0.77836 0.53754 0.0
H2086 H 0.78032 0.79209 0.57691 0.0
N2087 N 0.77358 0.76956 0.56421 0.0
H2088 H 0.76616 0.80534 0.59174 0.0
H2089 H 0.74626 0.76612 0.56751 0.0
H2090 H 0.73197 0.77924 0.58248 0.0
H2091 H 0.75983 0.74799 0.57532 0.0
H2092 H 0.76875 0.73176 0.59143 0.0
H2093 H 0.79918 0.76699 0.57204 0.0
H2094 H 0.80818 0.75104 0.58868 0.0
H2095 H 0.78246 0.78522 0.54421 0.0
H2096 H 0.75901 0.74905 0.55204 0.0
H2097 H 0.77912 0.78221 0.51994 0.0
H2098 H 0.75626 0.74549 0.52791 0.0
H2099 H 0.76624 0.78121 0.46165 0.0
H2100 H 0.75529 0.79649 0.44558 0.0
H2101 H 0.72731 0.76452 0.43427 0.0
H2102 H 0.73869 0.74925 0.44999 0.0
H2103 H 0.76194 0.72835 0.45809 0.0
H2104 H 0.7777 0.71793 0.44246 0.0
H2105 H 0.79902 0.75605 0.43805 0.0
H2106 H 0.7834 0.76627 0.45364 0.0
H2107 H 0.78279 0.76605 0.47732 0.0
H2108 H 0.78562 0.7695 0.50147 0.0
H2109 H 0.74555 0.75273 0.50817 0.0
N2110 N 0.76077 0.75423 0.46458 0.0
H2111 H 0.74317 0.74863 0.48398 0.0
C2112 C 0.76439 0.77814 0.57117 0.0
C2113 C 0.7697 0.78943 0.57787 0.0
C2114 C 0.76158 0.79698 0.58633 0.0
C2115 C 0.74794 0.7933 0.58835 0.0
C2116 C 0.74248 0.78223 0.58125 0.0
C2117 C 0.75061 0.77475 0.57265 0.0
C2118 C 0.7789 0.75868 0.5723 0.0
C2119 C 0.77046 0.74855 0.57784 0.0
C2120 C 0.77556 0.73934 0.58727 0.0
C2121 C 0.78917 0.74015 0.59152 0.0
C2122 C 0.79769 0.75 0.58557 0.0
C2123 C 0.79259 0.75914 0.57606 0.0
C2124 C 0.77116 0.76735 0.55 0.0
C2125 C 0.77668 0.77656 0.54067 0.0
C2126 C 0.77485 0.77473 0.52677 0.0
C2127 C 0.76751 0.76351 0.52182 0.0
C2128 C 0.76184 0.75434 0.53125 0.0
C2129 C 0.76353 0.75629 0.54517 0.0
C2130 C 0.7533 0.76405 0.45691 0.0
C2131 C 0.75766 0.77756 0.45581 0.0
C2132 C 0.75133 0.7863 0.44665 0.0
C2133 C 0.74051 0.7817 0.43848 0.0
C2134 C 0.73579 0.76834 0.44016 0.0
C2135 C 0.74216 0.75963 0.44924 0.0
C2136 C 0.7715 0.74802 0.45718 0.0
C2137 C 0.77023 0.73434 0.45398 0.0
C2138 C 0.77914 0.72846 0.44495 0.0
C2139 C 0.78957 0.73618 0.43893 0.0
C2140 C 0.7912 0.74976 0.44261 0.0
C2141 C 0.78224 0.75564 0.45158 0.0
C2142 C 0.76279 0.75685 0.47879 0.0
C2143 C 0.77465 0.763 0.48394 0.0
C2144 C 0.77619 0.76511 0.49785 0.0
C2145 C 0.76584 0.76136 0.50693 0.0
C2146 C 0.75389 0.75549 0.50164 0.0
C2147 C 0.75244 0.75322 0.48777 0.0
H2148 H 0.79624 0.25493 0.57427 0.0
N2149 N 0.77187 0.25672 0.5627 0.0
H2150 H 0.80649 0.27059 0.59054 0.0
H2151 H 0.76266 0.2814 0.56871 0.0
H2152 H 0.77293 0.29737 0.58461 0.0
H2153 H 0.74603 0.26162 0.56957 0.0
H2154 H 0.73192 0.24796 0.585 0.0
H2155 H 0.7775 0.23238 0.57256 0.0
H2156 H 0.76361 0.21865 0.58793 0.0
H2157 H 0.78456 0.23915 0.54731 0.0
H2158 H 0.75944 0.27403 0.54546 0.0
H2159 H 0.78506 0.2384 0.52269 0.0
H2160 H 0.76046 0.27398 0.52075 0.0
H2161 H 0.79731 0.24799 0.44668 0.0
H2162 H 0.80841 0.26364 0.43092 0.0
H2163 H 0.78083 0.29471 0.44248 0.0
H2164 H 0.77015 0.27902 0.45861 0.0
H2165 H 0.75215 0.26342 0.45221 0.0
H2166 H 0.73559 0.25287 0.43709 0.0
H2167 H 0.75776 0.2158 0.43903 0.0
H2168 H 0.77443 0.22658 0.4541 0.0
H2169 H 0.7949 0.24678 0.47925 0.0
H2170 H 0.79424 0.24875 0.50377 0.0
H2171 H 0.75337 0.26334 0.5008 0.0
N2172 N 0.77559 0.25227 0.46145 0.0
H2173 H 0.75453 0.2621 0.47623 0.0
C2174 C 0.77879 0.26707 0.57024 0.0
C2175 C 0.7913 0.26434 0.57629 0.0
C2176 C 0.79713 0.27331 0.58557 0.0
C2177 C 0.7905 0.28522 0.589 0.0
C2178 C 0.77822 0.2882 0.5824 0.0
C2179 C 0.7724 0.27918 0.57316 0.0
C2180 C 0.76274 0.24792 0.56994 0.0
C2181 C 0.74976 0.25212 0.57337 0.0
C2182 C 0.74179 0.24436 0.58225 0.0
C2183 C 0.74666 0.23223 0.58775 0.0
C2184 C 0.75947 0.22783 0.58378 0.0
C2185 C 0.76743 0.23564 0.575 0.0
C2186 C 0.77207 0.25667 0.54817 0.0
C2187 C 0.77927 0.24674 0.54152 0.0
C2188 C 0.77963 0.24644 0.52741 0.0
C2189 C 0.77294 0.25624 0.51956 0.0
C2190 C 0.76564 0.26618 0.52634 0.0
C2191 C 0.76514 0.26633 0.54051 0.0
C2192 C 0.78292 0.26232 0.45372 0.0
C2193 C 0.79386 0.25826 0.44596 0.0
C2194 C 0.80007 0.26719 0.43686 0.0
C2195 C 0.79538 0.2804 0.43523 0.0
C2196 C 0.78475 0.28464 0.44349 0.0
C2197 C 0.77857 0.27568 0.45267 0.0
C2198 C 0.76452 0.24573 0.45438 0.0
C2199 C 0.7533 0.25295 0.44966 0.0
C2200 C 0.74381 0.24688 0.44098 0.0
C2201 C 0.74538 0.2335 0.43676 0.0
C2202 C 0.75634 0.22617 0.44193 0.0
C2203 C 0.76579 0.23225 0.45065 0.0
C2204 C 0.77476 0.25408 0.47587 0.0
C2205 C 0.78585 0.25049 0.48392 0.0
C2206 C 0.78537 0.2515 0.49798 0.0
C2207 C 0.77365 0.25598 0.50444 0.0
C2208 C 0.76262 0.25992 0.49628 0.0
C2209 C 0.7632 0.25909 0.48215 0.0
H2210 H 0.27716 0.25671 0.45551 0.0
N2211 N 0.25454 0.24332 0.46475 0.0
H2212 H 0.29358 0.24817 0.43967 0.0
H2213 H 0.25659 0.2181 0.45619 0.0
H2214 H 0.27282 0.20949 0.43998 0.0
H2215 H 0.23335 0.23809 0.44888 0.0
H2216 H 0.22209 0.25354 0.43326 0.0
H2217 H 0.25898 0.27056 0.46314 0.0
H2218 H 0.24815 0.28605 0.4472 0.0
H2219 H 0.27856 0.24789 0.47898 0.0
H2220 H 0.23517 0.24515 0.48312 0.0
H2221 H 0.28094 0.25169 0.50294 0.0
H2222 H 0.23748 0.2497 0.50721 0.0
H2223 H 0.29062 0.26214 0.5766 0.0
H2224 H 0.30077 0.24649 0.59278 0.0
H2225 H 0.26765 0.21829 0.58595 0.0
H2226 H 0.25746 0.23418 0.57014 0.0
H2227 H 0.24237 0.25259 0.57534 0.0
H2228 H 0.22967 0.26589 0.59145 0.0
H2229 H 0.25813 0.299 0.58602 0.0
H2230 H 0.27096 0.28543 0.5703 0.0
H2231 H 0.28137 0.27027 0.54445 0.0
H2232 H 0.2783 0.2671 0.52018 0.0
H2233 H 0.24394 0.24068 0.52806 0.0
N2234 N 0.26677 0.25971 0.56435 0.0
H2235 H 0.24664 0.24471 0.55222 0.0
C2236 C 0.26563 0.23799 0.45714 0.0
C2237 C 0.27626 0.24632 0.45239 0.0
C2238 C 0.2856 0.24144 0.4432 0.0
C2239 C 0.28446 0.22817 0.43838 0.0
C2240 C 0.27412 0.21971 0.44355 0.0
C2241 C 0.26482 0.2246 0.45282 0.0
C2242 C 0.24699 0.25313 0.45711 0.0
C2243 C 0.23642 0.24861 0.44872 0.0
C2244 C 0.23012 0.25744 0.4397 0.0
C2245 C 0.23434 0.27102 0.4388 0.0
C2246 C 0.24458 0.27569 0.44766 0.0
C2247 C 0.25084 0.26683 0.45674 0.0
C2248 C 0.25657 0.24626 0.47898 0.0
C2249 C 0.26946 0.24829 0.48488 0.0
C2250 C 0.27083 0.25057 0.49877 0.0
C2251 C 0.25942 0.25107 0.50716 0.0
C2252 C 0.24656 0.24918 0.50121 0.0
C2253 C 0.2452 0.24671 0.48737 0.0
C2254 C 0.27335 0.24935 0.57211 0.0
C2255 C 0.28573 0.25246 0.57843 0.0
C2256 C 0.29151 0.24347 0.58765 0.0
C2257 C 0.285 0.23112 0.59076 0.0
C2258 C 0.27284 0.22779 0.58397 0.0
C2259 C 0.26705 0.23683 0.57478 0.0
C2260 C 0.25767 0.26804 0.57169 0.0
C2261 C 0.24572 0.26279 0.57744 0.0
C2262 C 0.23845 0.27043 0.58665 0.0
C2263 C 0.243 0.28345 0.59023 0.0
C2264 C 0.2545 0.28891 0.58376 0.0
C2265 C 0.26176 0.28126 0.57464 0.0
C2266 C 0.26439 0.25762 0.55014 0.0
C2267 C 0.27315 0.26385 0.54088 0.0
C2268 C 0.27143 0.2619 0.527 0.0
C2269 C 0.26095 0.25348 0.52202 0.0
C2270 C 0.25205 0.24734 0.5314 0.0
C2271 C 0.25369 0.24948 0.54531 0.0
H2272 H 0.7752 0.44875 0.79458 0.0
N2273 N 0.77278 0.46197 0.7713 0.0
H2274 H 0.75892 0.43292 0.80478 0.0
H2275 H 0.74663 0.45748 0.76277 0.0
H2276 H 0.73022 0.44198 0.77299 0.0
H2277 H 0.76446 0.45015 0.7477 0.0
H2278 H 0.77713 0.43382 0.73481 0.0
H2279 H 0.79884 0.45656 0.77396 0.0
H2280 H 0.81184 0.44063 0.76083 0.0
H2281 H 0.78276 0.48211 0.78589 0.0
H2282 H 0.75845 0.4737 0.75062 0.0
H2283 H 0.77953 0.50622 0.78251 0.0
H2284 H 0.75423 0.49765 0.74766 0.0
H2285 H 0.76648 0.5714 0.781 0.0
H2286 H 0.75539 0.5866 0.79641 0.0
H2287 H 0.7183 0.58237 0.77339 0.0
H2288 H 0.72962 0.56722 0.75782 0.0
H2289 H 0.75198 0.57682 0.73643 0.0
H2290 H 0.76818 0.5929 0.72651 0.0
H2291 H 0.79888 0.5792 0.75447 0.0
H2292 H 0.7825 0.56321 0.76438 0.0
H2293 H 0.76036 0.54719 0.78186 0.0
H2294 H 0.76434 0.52336 0.7846 0.0
H2295 H 0.76277 0.51853 0.74125 0.0
N2296 N 0.75566 0.56086 0.75774 0.0
H2297 H 0.75786 0.5424 0.73865 0.0
C2298 C 0.76219 0.45435 0.77797 0.0
C2299 C 0.76529 0.44748 0.78999 0.0
C2300 C 0.75595 0.43846 0.7958 0.0
C2301 C 0.74327 0.43609 0.78966 0.0
C2302 C 0.73998 0.4434 0.77787 0.0
C2303 C 0.74934 0.4524 0.77206 0.0
C2304 C 0.78071 0.45451 0.76189 0.0
C2305 C 0.77486 0.44833 0.75048 0.0
C2306 C 0.78216 0.43898 0.74308 0.0
C2307 C 0.79546 0.4357 0.7469 0.0
C2308 C 0.80153 0.44264 0.75778 0.0
C2309 C 0.7942 0.45188 0.7652 0.0
C2310 C 0.77072 0.47609 0.76868 0.0
C2311 C 0.77659 0.48551 0.77748 0.0
C2312 C 0.77459 0.49931 0.77559 0.0
C2313 C 0.76644 0.50406 0.76489 0.0
C2314 C 0.76068 0.49452 0.75594 0.0
C2315 C 0.76291 0.48071 0.75773 0.0
C2316 C 0.74884 0.56808 0.76824 0.0
C2317 C 0.75591 0.57352 0.77938 0.0
C2318 C 0.74952 0.58221 0.78824 0.0
C2319 C 0.73596 0.58577 0.78611 0.0
C2320 C 0.72879 0.57996 0.77523 0.0
C2321 C 0.73518 0.5712 0.76641 0.0
C2322 C 0.76601 0.56885 0.7511 0.0
C2323 C 0.76228 0.57715 0.74023 0.0
C2324 C 0.77157 0.5863 0.73457 0.0
C2325 C 0.78483 0.58739 0.73973 0.0
C2326 C 0.7887 0.57874 0.75038 0.0
C2327 C 0.77938 0.56954 0.756 0.0
C2328 C 0.75867 0.54676 0.75995 0.0
C2329 C 0.7608 0.54113 0.77288 0.0
C2330 C 0.76323 0.52735 0.77445 0.0
C2331 C 0.76391 0.51883 0.76317 0.0
C2332 C 0.76205 0.52458 0.75025 0.0
C2333 C 0.75938 0.5383 0.74871 0.0
H2334 H 0.25934 0.56329 0.77789 0.0
N2335 N 0.26648 0.55962 0.75171 0.0
H2336 H 0.27069 0.57841 0.794 0.0
H2337 H 0.29025 0.57205 0.74859 0.0
H2338 H 0.30195 0.58685 0.76469 0.0
H2339 H 0.26807 0.57219 0.72798 0.0
H2340 H 0.25192 0.58799 0.71826 0.0
H2341 H 0.24112 0.56409 0.76111 0.0
H2342 H 0.22468 0.57951 0.75132 0.0
H2343 H 0.24962 0.54248 0.76571 0.0
H2344 H 0.28308 0.54415 0.73821 0.0
H2345 H 0.24952 0.51781 0.76501 0.0
H2346 H 0.28359 0.51959 0.73789 0.0
H2347 H 0.26283 0.44797 0.7726 0.0
H2348 H 0.27628 0.43243 0.78618 0.0
H2349 H 0.30986 0.43864 0.759 0.0
H2350 H 0.29605 0.45374 0.7452 0.0
H2351 H 0.27139 0.44401 0.72607 0.0
H2352 H 0.25454 0.42784 0.71752 0.0
H2353 H 0.22719 0.43928 0.74909 0.0
H2354 H 0.24429 0.4554 0.7576 0.0
H2355 H 0.2624 0.47327 0.77021 0.0
H2356 H 0.26117 0.49788 0.77153 0.0
H2357 H 0.2717 0.50098 0.72929 0.0
N2358 N 0.26996 0.45878 0.74816 0.0
H2359 H 0.27353 0.47655 0.72836 0.0
C2360 C 0.27397 0.56665 0.76205 0.0
C2361 C 0.26872 0.56827 0.77505 0.0
C2362 C 0.27527 0.57688 0.78425 0.0
C2363 C 0.28717 0.58399 0.78059 0.0
C2364 C 0.29268 0.58177 0.76776 0.0
C2365 C 0.28611 0.57322 0.7586 0.0
C2366 C 0.25578 0.56691 0.74518 0.0
C2367 C 0.25847 0.57355 0.73293 0.0
C2368 C 0.2492 0.58256 0.72739 0.0
C2369 C 0.23699 0.58514 0.73403 0.0
C2370 C 0.23406 0.57797 0.74603 0.0
C2371 C 0.24339 0.56898 0.75158 0.0
C2372 C 0.26624 0.54512 0.7518 0.0
C2373 C 0.25694 0.53753 0.75952 0.0
C2374 C 0.25701 0.52339 0.7592 0.0
C2375 C 0.26645 0.5166 0.75126 0.0
C2376 C 0.27591 0.52436 0.74383 0.0
C2377 C 0.27574 0.53842 0.74407 0.0
C2378 C 0.27844 0.45192 0.7578 0.0
C2379 C 0.27316 0.44617 0.76971 0.0
C2380 C 0.28091 0.43729 0.7775 0.0
C2381 C 0.29411 0.43406 0.77358 0.0
C2382 C 0.29963 0.44061 0.76216 0.0
C2383 C 0.29184 0.44938 0.75434 0.0
C2384 C 0.25908 0.45085 0.74242 0.0
C2385 C 0.26165 0.44318 0.73095 0.0
C2386 C 0.25198 0.43398 0.72609 0.0
C2387 C 0.2395 0.43221 0.73265 0.0
C2388 C 0.23676 0.44028 0.74391 0.0
C2389 C 0.24646 0.44954 0.74874 0.0
C2390 C 0.2683 0.47312 0.7492 0.0
C2391 C 0.26448 0.47929 0.76128 0.0
C2392 C 0.26368 0.49338 0.76197 0.0
C2393 C 0.26653 0.50154 0.75056 0.0
C2394 C 0.26981 0.49516 0.7384 0.0
C2395 C 0.27075 0.48117 0.73778 0.0
H2396 H 0.27527 0.56058 0.27022 0.0
N2397 N 0.24837 0.55781 0.26386 0.0
H2398 H 0.29145 0.5761 0.25947 0.0
H2399 H 0.24463 0.57215 0.24145 0.0
H2400 H 0.26085 0.58734 0.23027 0.0
H2401 H 0.22243 0.5644 0.26413 0.0
H2402 H 0.21154 0.58032 0.27921 0.0
H2403 H 0.25968 0.56908 0.28661 0.0
H2404 H 0.24899 0.58491 0.30158 0.0
H2405 H 0.25989 0.54565 0.28618 0.0
H2406 H 0.24272 0.538 0.24681 0.0
H2407 H 0.26378 0.52173 0.28936 0.0
H2408 H 0.24716 0.51399 0.2496 0.0
H2409 H 0.28775 0.44538 0.2852 0.0
H2410 H 0.30112 0.43089 0.2709 0.0
H2411 H 0.27729 0.44293 0.23621 0.0
H2412 H 0.26379 0.45724 0.25075 0.0
H2413 H 0.24623 0.44538 0.26459 0.0
H2414 H 0.23058 0.42877 0.27417 0.0
H2415 H 0.24567 0.4381 0.31418 0.0
H2416 H 0.26177 0.45435 0.30432 0.0
H2417 H 0.28142 0.48002 0.28611 0.0
H2418 H 0.27743 0.504 0.28249 0.0
H2419 H 0.24043 0.49406 0.26094 0.0
N2420 N 0.26613 0.45927 0.27826 0.0
H2421 H 0.24492 0.47014 0.26407 0.0
C2422 C 0.2587 0.56529 0.25665 0.0
C2423 C 0.2721 0.56629 0.26143 0.0
C2424 C 0.28137 0.57513 0.25521 0.0
C2425 C 0.27743 0.58311 0.24407 0.0
C2426 C 0.26417 0.58159 0.23898 0.0
C2427 C 0.25492 0.57281 0.24525 0.0
C2428 C 0.2418 0.56539 0.27425 0.0
C2429 C 0.22816 0.56861 0.27249 0.0
C2430 C 0.22202 0.57781 0.28103 0.0
C2431 C 0.22942 0.58396 0.29157 0.0
C2432 C 0.24294 0.58026 0.29368 0.0
C2433 C 0.24909 0.57113 0.28509 0.0
C2434 C 0.25082 0.54368 0.26626 0.0
C2435 C 0.25694 0.53887 0.27818 0.0
C2436 C 0.25931 0.52509 0.27993 0.0
C2437 C 0.25581 0.51579 0.26974 0.0
C2438 C 0.24978 0.52071 0.2578 0.0
C2439 C 0.24731 0.53446 0.25613 0.0
C2440 C 0.27485 0.45241 0.26907 0.0
C2441 C 0.2856 0.44507 0.27446 0.0
C2442 C 0.29324 0.43681 0.26624 0.0
C2443 C 0.2903 0.4357 0.25236 0.0
C2444 C 0.27974 0.44341 0.24687 0.0
C2445 C 0.27208 0.4517 0.25514 0.0
C2446 C 0.25529 0.45105 0.28377 0.0
C2447 C 0.24608 0.444 0.27542 0.0
C2448 C 0.23704 0.43451 0.28097 0.0
C2449 C 0.23691 0.43193 0.29498 0.0
C2450 C 0.24566 0.43957 0.30333 0.0
C2451 C 0.25476 0.44898 0.29776 0.0
C2452 C 0.26346 0.47328 0.2755 0.0
C2453 C 0.2725 0.48307 0.28054 0.0
C2454 C 0.27011 0.49679 0.27857 0.0
C2455 C 0.25851 0.50109 0.27154 0.0
C2456 C 0.24954 0.4912 0.26629 0.0
C2457 C 0.25203 0.47745 0.26817 0.0
H2458 H 0.8023 0.45424 0.25402 0.0
N2459 N 0.77692 0.46162 0.25779 0.0
H2460 H 0.81546 0.43885 0.26813 0.0
H2461 H 0.76999 0.45261 0.2829 0.0
H2462 H 0.78309 0.43727 0.29719 0.0
H2463 H 0.75142 0.45678 0.26694 0.0
H2464 H 0.73492 0.44066 0.25741 0.0
H2465 H 0.77871 0.4489 0.23443 0.0
H2466 H 0.7622 0.43313 0.22453 0.0
H2467 H 0.78498 0.47875 0.23869 0.0
H2468 H 0.76661 0.47689 0.27792 0.0
H2469 H 0.78407 0.5033 0.23883 0.0
H2470 H 0.76613 0.50159 0.27851 0.0
H2471 H 0.7955 0.58038 0.25302 0.0
H2472 H 0.80547 0.59601 0.26933 0.0
H2473 H 0.78113 0.57767 0.30084 0.0
H2474 H 0.77094 0.56232 0.28423 0.0
H2475 H 0.75191 0.56952 0.26911 0.0
H2476 H 0.73476 0.58433 0.25966 0.0
H2477 H 0.75698 0.58686 0.22228 0.0
H2478 H 0.77386 0.57166 0.23175 0.0
H2479 H 0.79441 0.54651 0.2481 0.0
H2480 H 0.79472 0.52195 0.24904 0.0
H2481 H 0.7561 0.52149 0.26922 0.0
N2482 N 0.77555 0.56268 0.25704 0.0
H2483 H 0.75624 0.54613 0.26873 0.0
C2484 C 0.78524 0.45457 0.26741 0.0
C2485 C 0.79822 0.45082 0.26361 0.0
C2486 C 0.80571 0.44203 0.27169 0.0
C2487 C 0.8003 0.43674 0.28377 0.0
C2488 C 0.78748 0.44102 0.28787 0.0
C2489 C 0.78003 0.44988 0.27978 0.0
C2490 C 0.76628 0.45392 0.25138 0.0
C2491 C 0.75372 0.45175 0.2576 0.0
C2492 C 0.74429 0.44258 0.2521 0.0
C2493 C 0.74729 0.43545 0.24028 0.0
C2494 C 0.75965 0.43821 0.23378 0.0
C2495 C 0.76904 0.44731 0.23931 0.0
C2496 C 0.776 0.47605 0.25831 0.0
C2497 C 0.78082 0.48371 0.24739 0.0
C2498 C 0.78039 0.49776 0.24756 0.0
C2499 C 0.77521 0.50454 0.25878 0.0
C2500 C 0.77013 0.49677 0.26967 0.0
C2501 C 0.77048 0.48264 0.26941 0.0
C2502 C 0.78256 0.5702 0.2674 0.0
C2503 C 0.79254 0.57959 0.26351 0.0
C2504 C 0.79824 0.58849 0.27288 0.0
C2505 C 0.7941 0.58817 0.28645 0.0
C2506 C 0.78442 0.57835 0.29045 0.0
C2507 C 0.77867 0.56947 0.281 0.0
C2508 C 0.76413 0.56937 0.25105 0.0
C2509 C 0.75288 0.57291 0.25875 0.0
C2510 C 0.74316 0.58157 0.25338 0.0
C2511 C 0.74454 0.58695 0.24024 0.0
C2512 C 0.75548 0.58284 0.23236 0.0
C2513 C 0.76515 0.57415 0.23774 0.0
C2514 C 0.77527 0.54818 0.25814 0.0
C2515 C 0.78604 0.54108 0.25276 0.0
C2516 C 0.78612 0.52702 0.25323 0.0
C2517 C 0.77532 0.51962 0.25902 0.0
C2518 C 0.76463 0.52679 0.26473 0.0
C2519 C 0.76463 0.54093 0.26435 0.0
H2520 H 0.58234 0.29368 0.7469 0.0
N2521 N 0.56542 0.27279 0.74928 0.0
H2522 H 0.5978 0.30279 0.76401 0.0
H2523 H 0.56611 0.26534 0.77597 0.0
H2524 H 0.58121 0.27466 0.79336 0.0
H2525 H 0.57759 0.25007 0.75905 0.0
H2526 H 0.59358 0.23629 0.74697 0.0
H2527 H 0.57035 0.2734 0.72291 0.0
H2528 H 0.58598 0.25931 0.71052 0.0
H2529 H 0.54619 0.29107 0.74839 0.0
H2530 H 0.55248 0.24885 0.75598 0.0
H2531 H 0.52206 0.28791 0.7526 0.0
H2532 H 0.52833 0.24536 0.75932 0.0
H2533 H 0.45496 0.28163 0.75766 0.0
H2534 H 0.43883 0.2944 0.77085 0.0
H2535 H 0.44424 0.26678 0.80437 0.0
H2536 H 0.45992 0.25384 0.79087 0.0
H2537 H 0.45487 0.23316 0.7681 0.0
H2538 H 0.43846 0.22196 0.75317 0.0
H2539 H 0.44267 0.25479 0.72447 0.0
H2540 H 0.4587 0.26602 0.73962 0.0
H2541 H 0.47762 0.27646 0.74833 0.0
H2542 H 0.50174 0.27964 0.74418 0.0
H2543 H 0.51038 0.24846 0.77365 0.0
N2544 N 0.4659 0.25755 0.76504 0.0
H2545 H 0.48614 0.24476 0.77689 0.0
C2546 C 0.57305 0.27893 0.76015 0.0
C2547 C 0.58193 0.28966 0.7571 0.0
C2548 C 0.59071 0.29487 0.76693 0.0
C2549 C 0.5908 0.28947 0.78012 0.0
C2550 C 0.58157 0.27895 0.78328 0.0
C2551 C 0.57282 0.27369 0.77338 0.0
C2552 C 0.57282 0.26288 0.74188 0.0
C2553 C 0.57918 0.25203 0.74841 0.0
C2554 C 0.58832 0.24408 0.74144 0.0
C2555 C 0.59126 0.24678 0.72778 0.0
C2556 C 0.58422 0.25712 0.7211 0.0
C2557 C 0.57515 0.26509 0.7281 0.0
C2558 C 0.55119 0.27026 0.7517 0.0
C2559 C 0.54232 0.28108 0.75081 0.0
C2560 C 0.52847 0.2792 0.75311 0.0
C2561 C 0.52306 0.26633 0.75622 0.0
C2562 C 0.53203 0.25546 0.75715 0.0
C2563 C 0.54594 0.25742 0.75508 0.0
C2564 C 0.45854 0.2667 0.77329 0.0
C2565 C 0.45282 0.27846 0.76791 0.0
C2566 C 0.44361 0.28578 0.7755 0.0
C2567 C 0.44002 0.28149 0.78861 0.0
C2568 C 0.44649 0.2702 0.7942 0.0
C2569 C 0.45558 0.26288 0.78659 0.0
C2570 C 0.45807 0.25036 0.75501 0.0
C2571 C 0.45243 0.23777 0.75845 0.0
C2572 C 0.44308 0.23138 0.74988 0.0
C2573 C 0.43914 0.2375 0.73763 0.0
C2574 C 0.44529 0.24988 0.73392 0.0
C2575 C 0.45461 0.25628 0.74254 0.0
C2576 C 0.48008 0.26016 0.76275 0.0
C2577 C 0.48469 0.27017 0.75372 0.0
C2578 C 0.49858 0.27211 0.75152 0.0
C2579 C 0.50819 0.26428 0.75852 0.0
C2580 C 0.50342 0.25448 0.76778 0.0
C2581 C 0.48955 0.25242 0.76978 0.0
H2582 H 0.44945 0.74412 0.75433 0.0
N2583 N 0.4627 0.76524 0.76661 0.0
H2584 H 0.4341 0.72798 0.76507 0.0
H2585 H 0.45887 0.76165 0.79299 0.0
H2586 H 0.44388 0.74509 0.80402 0.0
H2587 H 0.44605 0.78512 0.77184 0.0
H2588 H 0.43 0.79573 0.75641 0.0
H2589 H 0.46142 0.76164 0.73917 0.0
H2590 H 0.44572 0.77252 0.7235 0.0
H2591 H 0.47431 0.7435 0.7545 0.0
H2592 H 0.483 0.78229 0.772 0.0
H2593 H 0.49834 0.74015 0.75102 0.0
H2594 H 0.50713 0.77939 0.76792 0.0
H2595 H 0.56622 0.72331 0.75178 0.0
H2596 H 0.5815 0.71104 0.76683 0.0
H2597 H 0.58873 0.74737 0.78969 0.0
H2598 H 0.57368 0.75955 0.77442 0.0
H2599 H 0.56925 0.77561 0.75674 0.0
H2600 H 0.58643 0.7888 0.74439 0.0
H2601 H 0.58922 0.75672 0.71537 0.0
H2602 H 0.5725 0.7435 0.72811 0.0
H2603 H 0.54124 0.74232 0.73546 0.0
H2604 H 0.51718 0.74661 0.73826 0.0
H2605 H 0.52628 0.76774 0.77534 0.0
N2606 N 0.56159 0.74957 0.75157 0.0
H2607 H 0.55034 0.76397 0.77198 0.0
C2608 C 0.45528 0.75421 0.77288 0.0
C2609 C 0.44845 0.74432 0.76519 0.0
C2610 C 0.43968 0.735 0.7714 0.0
C2611 C 0.43759 0.73526 0.78545 0.0
C2612 C 0.44499 0.74474 0.79316 0.0
C2613 C 0.45369 0.75412 0.78692 0.0
C2614 C 0.45498 0.77267 0.75671 0.0
C2615 C 0.44619 0.78253 0.76123 0.0
C2616 C 0.43704 0.78861 0.75236 0.0
C2617 C 0.43649 0.78498 0.73866 0.0
C2618 C 0.4457 0.77543 0.73401 0.0
C2619 C 0.45482 0.7693 0.74294 0.0
C2620 C 0.47681 0.76312 0.76372 0.0
C2621 C 0.48136 0.75136 0.75754 0.0
C2622 C 0.4952 0.74952 0.75542 0.0
C2623 C 0.50482 0.75947 0.75921 0.0
C2624 C 0.50014 0.77136 0.7651 0.0
C2625 C 0.48633 0.77311 0.76735 0.0
C2626 C 0.56874 0.74228 0.76197 0.0
C2627 C 0.57088 0.72851 0.76024 0.0
C2628 C 0.57961 0.72153 0.76887 0.0
C2629 C 0.58644 0.72823 0.77945 0.0
C2630 C 0.5838 0.74194 0.78154 0.0
C2631 C 0.57505 0.7489 0.77288 0.0
C2632 C 0.56974 0.75852 0.74337 0.0
C2633 C 0.57349 0.77152 0.74765 0.0
C2634 C 0.58327 0.77906 0.74053 0.0
C2635 C 0.58941 0.77373 0.729 0.0
C2636 C 0.58499 0.76102 0.72438 0.0
C2637 C 0.57532 0.75351 0.73153 0.0
C2638 C 0.54757 0.75268 0.75353 0.0
C2639 C 0.53799 0.74794 0.74414 0.0
C2640 C 0.52422 0.75031 0.74585 0.0
C2641 C 0.51963 0.75741 0.75713 0.0
C2642 C 0.52935 0.76236 0.76645 0.0
C2643 C 0.54317 0.7601 0.76462 0.0
H2644 H 0.5781 0.76789 0.2644 0.0
N2645 N 0.56448 0.7452 0.27317 0.0
H2646 H 0.59401 0.78152 0.27754 0.0
H2647 H 0.56861 0.74404 0.29974 0.0
H2648 H 0.58415 0.75804 0.31322 0.0
H2649 H 0.57942 0.72339 0.27564 0.0
H2650 H 0.59507 0.71438 0.25916 0.0
H2651 H 0.56697 0.75359 0.24689 0.0
H2652 H 0.5825 0.74456 0.23019 0.0
H2653 H 0.55298 0.76969 0.26726 0.0
H2654 H 0.54424 0.72729 0.27235 0.0
H2655 H 0.52906 0.77394 0.26411 0.0
H2656 H 0.52029 0.73126 0.2682 0.0
H2657 H 0.45186 0.78554 0.25363 0.0
H2658 H 0.43609 0.79625 0.26887 0.0
H2659 H 0.44702 0.76801 0.30041 0.0
H2660 H 0.46236 0.75714 0.28496 0.0
H2661 H 0.45252 0.74089 0.26798 0.0
H2662 H 0.43583 0.7271 0.25581 0.0
H2663 H 0.44444 0.74964 0.21923 0.0
H2664 H 0.46073 0.7637 0.23167 0.0
H2665 H 0.4864 0.77682 0.2474 0.0
H2666 H 0.51048 0.77243 0.25013 0.0
H2667 H 0.50072 0.73932 0.27727 0.0
N2668 N 0.46569 0.7633 0.25805 0.0
H2669 H 0.47673 0.74321 0.27354 0.0
C2670 C 0.57223 0.75481 0.28109 0.0
C2671 C 0.57923 0.76574 0.27507 0.0
C2672 C 0.5883 0.77362 0.28266 0.0
C2673 C 0.59052 0.77082 0.29645 0.0
C2674 C 0.58293 0.76033 0.30257 0.0
C2675 C 0.57393 0.7524 0.29494 0.0
C2676 C 0.57204 0.7391 0.26251 0.0
C2677 C 0.57987 0.72787 0.26563 0.0
C2678 C 0.58879 0.72273 0.25619 0.0
C2679 C 0.59011 0.72878 0.24335 0.0
C2680 C 0.58187 0.73978 0.24004 0.0
C2681 C 0.5729 0.74489 0.24953 0.0
C2682 C 0.55046 0.74812 0.27029 0.0
C2683 C 0.54596 0.76123 0.26759 0.0
C2684 C 0.53216 0.76364 0.26563 0.0
C2685 C 0.52253 0.75298 0.26597 0.0
C2686 C 0.52721 0.73982 0.26822 0.0
C2687 C 0.54096 0.73748 0.27044 0.0
C2688 C 0.45837 0.77061 0.26809 0.0
C2689 C 0.45104 0.78187 0.26393 0.0
C2690 C 0.44204 0.78799 0.27269 0.0
C2691 C 0.44018 0.78297 0.28589 0.0
C2692 C 0.448 0.77202 0.29025 0.0
C2693 C 0.45695 0.76586 0.28143 0.0
C2694 C 0.45778 0.75343 0.25071 0.0
C2695 C 0.45099 0.74271 0.2573 0.0
C2696 C 0.44145 0.73479 0.25029 0.0
C2697 C 0.4386 0.73739 0.23656 0.0
C2698 C 0.44612 0.74755 0.22985 0.0
C2699 C 0.45555 0.75551 0.23689 0.0
C2700 C 0.47978 0.76054 0.26041 0.0
C2701 C 0.48953 0.76863 0.25394 0.0
C2702 C 0.50332 0.76614 0.25562 0.0
C2703 C 0.50774 0.75555 0.26404 0.0
C2704 C 0.49785 0.74745 0.27056 0.0
C2705 C 0.48403 0.74981 0.26863 0.0
H2706 H 0.58109 0.27455 0.29687 0.0
N2707 N 0.56428 0.27176 0.27605 0.0
H2708 H 0.59605 0.25762 0.30657 0.0
H2709 H 0.5638 0.24496 0.26999 0.0
H2710 H 0.57872 0.22782 0.27966 0.0
H2711 H 0.57152 0.26034 0.2522 0.0
H2712 H 0.58707 0.26998 0.2356 0.0
H2713 H 0.57423 0.29682 0.27534 0.0
H2714 H 0.59018 0.30648 0.25896 0.0
H2715 H 0.54734 0.27366 0.29655 0.0
H2716 H 0.54808 0.26677 0.25364 0.0
H2717 H 0.52271 0.27268 0.29607 0.0
H2718 H 0.5235 0.26666 0.25288 0.0
H2719 H 0.44805 0.27432 0.29648 0.0
H2720 H 0.43256 0.25755 0.30644 0.0
H2721 H 0.44483 0.22864 0.27678 0.0
H2722 H 0.46003 0.24552 0.2668 0.0
H2723 H 0.45469 0.2621 0.24972 0.0
H2724 H 0.43892 0.27272 0.234 0.0
H2725 H 0.43902 0.30824 0.25894 0.0
H2726 H 0.45429 0.29717 0.27492 0.0
H2727 H 0.47973 0.28578 0.28971 0.0
H2728 H 0.50437 0.28538 0.28973 0.0
H2729 H 0.50295 0.2558 0.25791 0.0
N2730 N 0.46263 0.27193 0.27426 0.0
H2731 H 0.47828 0.25706 0.25743 0.0
C2732 C 0.57139 0.26102 0.28275 0.0
C2733 C 0.58035 0.26429 0.29328 0.0
C2734 C 0.58887 0.25459 0.29881 0.0
C2735 C 0.58865 0.24135 0.29385 0.0
C2736 C 0.57927 0.23796 0.28359 0.0
C2737 C 0.57069 0.2477 0.2781 0.0
C2738 C 0.57161 0.27793 0.265 0.0
C2739 C 0.57528 0.27052 0.2536 0.0
C2740 C 0.58432 0.27602 0.24417 0.0
C2741 C 0.59004 0.28897 0.246 0.0
C2742 C 0.58589 0.29655 0.25713 0.0
C2743 C 0.57678 0.29106 0.26651 0.0
C2744 C 0.54969 0.27046 0.27519 0.0
C2745 C 0.54218 0.27199 0.287 0.0
C2746 C 0.52805 0.27158 0.28665 0.0
C2747 C 0.52096 0.26984 0.27438 0.0
C2748 C 0.52851 0.26793 0.26256 0.0
C2749 C 0.5427 0.26811 0.26296 0.0
C2750 C 0.45522 0.26121 0.28095 0.0
C2751 C 0.44755 0.26427 0.29232 0.0
C2752 C 0.43873 0.25466 0.298 0.0
C2753 C 0.43737 0.24175 0.29236 0.0
C2754 C 0.44547 0.23854 0.28125 0.0
C2755 C 0.45429 0.24818 0.27559 0.0
C2756 C 0.45555 0.27883 0.26357 0.0
C2757 C 0.45147 0.27223 0.2517 0.0
C2758 C 0.44246 0.27838 0.24266 0.0
C2759 C 0.43747 0.2913 0.24526 0.0
C2760 C 0.44234 0.29817 0.25675 0.0
C2761 C 0.45121 0.29195 0.26582 0.0
C2762 C 0.47716 0.27134 0.27375 0.0
C2763 C 0.48478 0.27925 0.28273 0.0
C2764 C 0.4989 0.27887 0.2828 0.0
C2765 C 0.50581 0.27037 0.27397 0.0
C2766 C 0.49808 0.26253 0.26482 0.0
C2767 C 0.48391 0.26309 0.26463 0.0
C2768 C 0.23397 0.20797 0.10849 0.0
C2769 C 0.22574 0.21318 0.11865 0.0
H2770 H 0.24537 0.21197 0.09052 0.0
C2771 C 0.22244 0.22689 0.11802 0.0
H2772 H 0.23653 0.19741 0.1085 0.0
C2773 C 0.22744 0.23521 0.10766 0.0
C2774 C 0.2359 0.23006 0.09767 0.0
H2775 H 0.21631 0.23133 0.12576 0.0
H2776 H 0.22502 0.2458 0.10773 0.0
C2777 C 0.23902 0.21631 0.09815 0.0
C2778 C 0.7871 0.21622 0.1187 0.0
C2779 C 0.80095 0.21565 0.12196 0.0
H2780 H 0.77175 0.22504 0.10636 0.0
C2781 C 0.81014 0.22346 0.11427 0.0
H2782 H 0.77974 0.2102 0.12424 0.0
C2783 C 0.80556 0.23179 0.10378 0.0
C2784 C 0.79167 0.23258 0.10073 0.0
H2785 H 0.82086 0.22338 0.11653 0.0
H2786 H 0.81292 0.23767 0.0981 0.0
C2787 C 0.78252 0.22459 0.10827 0.0
C2788 C 0.80022 0.80117 0.11858 0.0
C2789 C 0.799 0.81524 0.11935 0.0
H2790 H 0.79465 0.78309 0.10808 0.0
C2791 C 0.79183 0.82195 0.10905 0.0
H2792 H 0.80555 0.79564 0.12638 0.0
C2793 C 0.78554 0.81475 0.09861 0.0
C2794 C 0.78631 0.80064 0.09812 0.0
H2795 H 0.79093 0.8328 0.10913 0.0
H2796 H 0.77992 0.82023 0.09097 0.0
C2797 C 0.79397 0.79396 0.10807 0.0
C2798 C 0.23168 0.81116 0.10594 0.0
C2799 C 0.22739 0.80512 0.11812 0.0
H2800 H 0.24115 0.80855 0.08679 0.0
C2801 C 0.22891 0.79115 0.11983 0.0
H2802 H 0.23042 0.82184 0.10416 0.0
C2803 C 0.23502 0.78352 0.10984 0.0
C2804 C 0.23978 0.78966 0.09788 0.0
H2805 H 0.22588 0.78618 0.12913 0.0
H2806 H 0.23653 0.77289 0.11173 0.0
C2807 C 0.23781 0.80354 0.09596 0.0
C2808 C 0.2407 0.79935 0.9113 0.0
C2809 C 0.2268 0.79969 0.90822 0.0
H2810 H 0.25637 0.79064 0.92338 0.0
C2811 C 0.21786 0.79156 0.91587 0.0
H2812 H 0.24791 0.8053 0.9055 0.0
C2813 C 0.22273 0.78313 0.92614 0.0
C2814 C 0.23666 0.78263 0.92904 0.0
H2815 H 0.20707 0.79174 0.91395 0.0
H2816 H 0.21557 0.77699 0.93181 0.0
C2817 C 0.24557 0.79095 0.92158 0.0
C2818 C 0.22211 0.21239 0.91739 0.0
C2819 C 0.21831 0.2201 0.90604 0.0
H2820 H 0.2329 0.21183 0.93624 0.0
C2821 C 0.22299 0.23352 0.90508 0.0
H2822 H 0.21856 0.20206 0.91851 0.0
C2823 C 0.23123 0.23911 0.91518 0.0
C2824 C 0.23499 0.23145 0.92659 0.0
H2825 H 0.22048 0.23969 0.89637 0.0
H2826 H 0.23488 0.24938 0.91389 0.0
C2827 C 0.23033 0.218 0.92755 0.0
C2828 C 0.80398 0.21293 0.91916 0.0
C2829 C 0.80677 0.22058 0.90744 0.0
H2830 H 0.79432 0.21214 0.93847 0.0
C2831 C 0.80191 0.23377 0.90653 0.0
H2832 H 0.80751 0.2027 0.92014 0.0
C2833 C 0.79435 0.23915 0.91698 0.0
C2834 C 0.79141 0.23147 0.92863 0.0
H2835 H 0.804 0.24 0.89773 0.0
H2836 H 0.79057 0.24926 0.91579 0.0
C2837 C 0.79634 0.2183 0.92961 0.0
C2838 C 0.79958 0.81229 0.91909 0.0
C2839 C 0.80284 0.80695 0.90643 0.0
H2840 H 0.79207 0.80837 0.93901 0.0
C2841 C 0.80076 0.79309 0.90431 0.0
H2842 H 0.8012 0.8229 0.92111 0.0
C2843 C 0.7955 0.78479 0.91453 0.0
C2844 C 0.79221 0.79009 0.9272 0.0
H2845 H 0.80291 0.78868 0.89461 0.0
H2846 H 0.79372 0.77423 0.91237 0.0
C2847 C 0.79434 0.80396 0.92935 0.0
C2848 C 0.12353 0.21815 0.22243 0.0
C2849 C 0.12238 0.21554 0.20853 0.0
H2850 H 0.11436 0.22631 0.23998 0.0
C2851 C 0.11013 0.21848 0.20189 0.0
H2852 H 0.13286 0.21619 0.22783 0.0
C2853 C 0.09949 0.22429 0.20888 0.0
C2854 C 0.1008 0.22729 0.22269 0.0
H2855 H 0.10879 0.21638 0.19125 0.0
H2856 H 0.09025 0.22652 0.20343 0.0
C2857 C 0.11289 0.22395 0.22941 0.0
C2858 C 0.81059 0.10776 0.23052 0.0
C2859 C 0.80549 0.1166 0.22061 0.0
H2860 H 0.80675 0.09082 0.24352 0.0
C2861 C 0.79211 0.11459 0.21603 0.0
H2862 H 0.82079 0.10904 0.23442 0.0
C2863 C 0.78395 0.10428 0.22146 0.0
C2864 C 0.78896 0.09562 0.23158 0.0
H2865 H 0.78788 0.12105 0.20827 0.0
H2866 H 0.77357 0.10336 0.21798 0.0
C2867 C 0.80246 0.09739 0.23589 0.0
C2868 C 0.9047 0.81132 0.22736 0.0
C2869 C 0.90433 0.80892 0.21338 0.0
H2870 H 0.91508 0.80836 0.24615 0.0
C2871 C 0.91508 0.80193 0.20761 0.0
H2872 H 0.89651 0.81646 0.23222 0.0
C2873 C 0.92575 0.79723 0.21564 0.0
C2874 C 0.92599 0.79946 0.22964 0.0
H2875 H 0.91527 0.80008 0.19685 0.0
H2876 H 0.93384 0.79187 0.21087 0.0
C2877 C 0.91538 0.80667 0.23537 0.0
C2878 C 0.21416 0.91298 0.22299 0.0
C2879 C 0.22114 0.90135 0.21935 0.0
H2880 H 0.21523 0.9325 0.232 0.0
C2881 C 0.23517 0.90099 0.22171 0.0
H2882 H 0.20334 0.91358 0.22143 0.0
C2883 C 0.24197 0.91177 0.22792 0.0
C2884 C 0.23492 0.92324 0.23193 0.0
H2885 H 0.24091 0.89228 0.21888 0.0
H2886 H 0.25269 0.91091 0.22998 0.0
C2887 C 0.22096 0.92378 0.2292 0.0
C2888 C 0.12013 0.78117 0.81347 0.0
C2889 C 0.1236 0.79494 0.8144 0.0
H2890 H 0.10714 0.76615 0.8047 0.0
C2891 C 0.11564 0.8043 0.80734 0.0
H2892 H 0.12588 0.77368 0.81892 0.0
C2893 C 0.10466 0.79999 0.79937 0.0
C2894 C 0.10138 0.7862 0.79821 0.0
H2895 H 0.11805 0.81497 0.80771 0.0
H2896 H 0.09878 0.80749 0.79407 0.0
C2897 C 0.10921 0.77686 0.80546 0.0
C2898 C 0.23585 0.11103 0.81737 0.0
C2899 C 0.2223 0.11498 0.81626 0.0
H2900 H 0.25123 0.09787 0.81068 0.0
C2901 C 0.21354 0.1076 0.8077 0.0
H2902 H 0.24286 0.11629 0.82402 0.0
C2903 C 0.21831 0.09678 0.80023 0.0
C2904 C 0.23196 0.09306 0.80108 0.0
H2905 H 0.20307 0.11038 0.8065 0.0
H2906 H 0.21128 0.09138 0.79371 0.0
C2907 C 0.24062 0.10027 0.80986 0.0
C2908 C 0.9047 0.22624 0.81353 0.0
C2909 C 0.90398 0.21241 0.81055 0.0
H2910 H 0.91522 0.24507 0.81062 0.0
C2911 C 0.91428 0.2069 0.80271 0.0
H2912 H 0.89687 0.23088 0.81938 0.0
C2913 C 0.92477 0.21507 0.79762 0.0
C2914 C 0.92528 0.22894 0.80031 0.0
H2915 H 0.91423 0.19626 0.80043 0.0
H2916 H 0.93246 0.21052 0.79151 0.0
C2917 C 0.91523 0.23439 0.8085 0.0
C2918 C 0.79938 0.90358 0.80498 0.0
C2919 C 0.81362 0.90373 0.8051 0.0
H2920 H 0.7813 0.91331 0.79836 0.0
C2921 C 0.82049 0.91487 0.79933 0.0
H2922 H 0.79374 0.89511 0.80919 0.0
C2923 C 0.81336 0.92528 0.79308 0.0
C2924 C 0.79915 0.92486 0.7925 0.0
H2925 H 0.83144 0.91549 0.79949 0.0
H2926 H 0.81898 0.93359 0.78854 0.0
C2927 C 0.79224 0.91402 0.79877 0.0
C2928 C 0.22441 0.10736 0.21136 0.0
C2929 C 0.22056 0.11797 0.21975 0.0
H2930 H 0.23513 0.08889 0.20972 0.0
C2931 C 0.2251 0.11801 0.23324 0.0
H2932 H 0.22097 0.10696 0.20096 0.0
C2933 C 0.23323 0.10771 0.23823 0.0
C2934 C 0.23702 0.09703 0.22991 0.0
H2935 H 0.22256 0.12616 0.23991 0.0
H2936 H 0.23676 0.10829 0.2486 0.0
C2937 C 0.23252 0.097 0.21639 0.0
C2938 C 0.2241 0.89585 0.79407 0.0
C2939 C 0.21946 0.89574 0.80745 0.0
H2940 H 0.23559 0.90617 0.77887 0.0
C2941 C 0.22289 0.90668 0.8158 0.0
H2942 H 0.22186 0.88747 0.78744 0.0
C2943 C 0.23071 0.91751 0.81084 0.0
C2944 C 0.23533 0.91763 0.79743 0.0
H2945 H 0.21935 0.90697 0.82612 0.0
H2946 H 0.233 0.92587 0.81748 0.0
C2947 C 0.23195 0.90661 0.78914 0.0
C2948 C 0.11969 0.21934 0.8059 0.0
C2949 C 0.11822 0.20562 0.80931 0.0
H2950 H 0.1108 0.23667 0.79671 0.0
C2951 C 0.10569 0.19914 0.80681 0.0
H2952 H 0.12924 0.22462 0.80751 0.0
C2953 C 0.09508 0.20607 0.80062 0.0
C2954 C 0.09671 0.21966 0.79677 0.0
H2955 H 0.10411 0.18864 0.80953 0.0
H2956 H 0.08562 0.20072 0.79872 0.0
C2957 C 0.10908 0.22627 0.7997 0.0
C2958 C 0.78721 0.11726 0.80914 0.0
C2959 C 0.80085 0.11785 0.81325 0.0
H2960 H 0.77192 0.107 0.79762 0.0
C2961 C 0.80954 0.10772 0.80894 0.0
H2962 H 0.78029 0.12503 0.81206 0.0
C2963 C 0.8047 0.09727 0.80068 0.0
C2964 C 0.79106 0.09674 0.79651 0.0
H2965 H 0.82006 0.10779 0.81205 0.0
H2966 H 0.81163 0.08957 0.79764 0.0
C2967 C 0.7824 0.10687 0.80087 0.0
C2968 C 0.91316 0.80325 0.8105 0.0
C2969 C 0.90398 0.79579 0.81852 0.0
H2970 H 0.93098 0.80301 0.79832 0.0
C2971 C 0.90624 0.78198 0.82058 0.0
H2972 H 0.91171 0.81388 0.80862 0.0
C2973 C 0.91717 0.77572 0.81456 0.0
C2974 C 0.92624 0.78309 0.80634 0.0
H2975 H 0.89954 0.77594 0.82688 0.0
H2976 H 0.91829 0.76499 0.81609 0.0
C2977 C 0.92415 0.79697 0.80448 0.0
C2978 C 0.81724 0.91871 0.22627 0.0
C2979 C 0.81093 0.9063 0.22314 0.0
H2980 H 0.8153 0.9382 0.23509 0.0
C2981 C 0.79718 0.90441 0.22626 0.0
H2982 H 0.82775 0.92061 0.22379 0.0
C2983 C 0.79003 0.9145 0.23273 0.0
C2984 C 0.79645 0.92676 0.23625 0.0
H2985 H 0.79204 0.89493 0.22416 0.0
H2986 H 0.7796 0.91248 0.23545 0.0
C2987 C 0.81009 0.92881 0.23274 0.0
C2988 C 0.12472 0.8032 0.22758 0.0
C2989 C 0.12427 0.80208 0.21344 0.0
H2990 H 0.11472 0.79959 0.24633 0.0
C2991 C 0.11244 0.79675 0.20737 0.0
H2992 H 0.13356 0.80742 0.23262 0.0
C2993 C 0.10145 0.79247 0.21527 0.0
C2994 C 0.102 0.79341 0.22943 0.0
H2995 H 0.11176 0.79562 0.19652 0.0
H2996 H 0.09252 0.78842 0.21025 0.0
C2997 C 0.11379 0.79888 0.23546 0.0
C2998 C 0.91586 0.22241 0.20967 0.0
C2999 C 0.90549 0.21419 0.21514 0.0
H3000 H 0.93437 0.23339 0.21325 0.0
C3001 C 0.9064 0.21036 0.22883 0.0
H3002 H 0.91565 0.22535 0.19911 0.0
C3003 C 0.9172 0.21489 0.23689 0.0
C3004 C 0.92735 0.22341 0.2315 0.0
H3005 H 0.89852 0.20421 0.23345 0.0
H3006 H 0.91735 0.21209 0.24749 0.0
C3007 C 0.92662 0.22699 0.21775 0.0
C3008 C 0.2277 0.71022 0.6092 0.0
C3009 C 0.21755 0.71505 0.61768 0.0
H3010 H 0.2408 0.71418 0.59247 0.0
C3011 C 0.21264 0.72806 0.61522 0.0
H3012 H 0.23186 0.70032 0.61083 0.0
C3013 C 0.21798 0.73614 0.60484 0.0
C3014 C 0.22832 0.73141 0.59653 0.0
H3015 H 0.20469 0.73208 0.62137 0.0
H3016 H 0.21422 0.74625 0.60359 0.0
C3017 C 0.23298 0.71826 0.59875 0.0
C3018 C 0.81212 0.71815 0.61317 0.0
C3019 C 0.80379 0.71505 0.62426 0.0
H3020 H 0.81398 0.72819 0.59401 0.0
C3021 C 0.79063 0.72016 0.62441 0.0
H3022 H 0.82225 0.71424 0.61267 0.0
C3023 C 0.78592 0.72819 0.61378 0.0
C3024 C 0.7942 0.73128 0.60264 0.0
H3025 H 0.78404 0.71817 0.63291 0.0
H3026 H 0.77585 0.73221 0.61445 0.0
C3027 C 0.80737 0.72614 0.60247 0.0
C3028 C 0.81486 0.30413 0.61245 0.0
C3029 C 0.80597 0.30977 0.62178 0.0
H3030 H 0.817 0.29227 0.59464 0.0
C3031 C 0.79199 0.30749 0.62005 0.0
H3032 H 0.82567 0.30583 0.61338 0.0
C3033 C 0.78703 0.29971 0.60934 0.0
C3034 C 0.79589 0.29402 0.60002 0.0
H3035 H 0.78486 0.31145 0.62717 0.0
H3036 H 0.77622 0.29789 0.60859 0.0
C3037 C 0.80988 0.29637 0.60169 0.0
C3038 C 0.21631 0.29799 0.61333 0.0
C3039 C 0.22435 0.30536 0.62255 0.0
H3040 H 0.21582 0.2855 0.59574 0.0
C3041 C 0.23848 0.30528 0.62112 0.0
H3042 H 0.20539 0.29791 0.61409 0.0
C3043 C 0.24442 0.2982 0.61067 0.0
C3044 C 0.23643 0.29099 0.60129 0.0
H3045 H 0.245 0.31057 0.62821 0.0
H3046 H 0.25535 0.29822 0.61007 0.0
C3047 C 0.22228 0.29089 0.60281 0.0
C3048 C 0.2211 0.30215 0.42064 0.0
C3049 C 0.21853 0.29723 0.40757 0.0
H3050 H 0.22782 0.29775 0.4408 0.0
C3051 C 0.22094 0.2836 0.40497 0.0
H3052 H 0.21919 0.31256 0.42302 0.0
C3053 C 0.22592 0.27513 0.41512 0.0
C3054 C 0.22858 0.28004 0.42818 0.0
H3055 H 0.21931 0.27953 0.39496 0.0
H3056 H 0.22801 0.26479 0.41261 0.0
C3057 C 0.22605 0.29366 0.43083 0.0
C3058 C 0.21644 0.71497 0.4149 0.0
C3059 C 0.21319 0.72294 0.40356 0.0
H3060 H 0.22672 0.71386 0.43401 0.0
C3061 C 0.21831 0.73622 0.40287 0.0
H3062 H 0.21254 0.70475 0.41581 0.0
C3063 C 0.22646 0.74142 0.41324 0.0
C3064 C 0.22967 0.73352 0.42465 0.0
H3065 H 0.21623 0.74256 0.39417 0.0
H3066 H 0.23046 0.7516 0.41217 0.0
C3067 C 0.22457 0.72021 0.42534 0.0
C3068 C 0.8002 0.71763 0.40742 0.0
C3069 C 0.81406 0.72095 0.40667 0.0
H3070 H 0.78163 0.71988 0.41807 0.0
C3071 C 0.81993 0.72878 0.41702 0.0
H3072 H 0.79527 0.71179 0.39955 0.0
C3073 C 0.81208 0.73347 0.42763 0.0
C3074 C 0.79817 0.73038 0.42822 0.0
H3075 H 0.83062 0.73133 0.41692 0.0
H3076 H 0.81692 0.73954 0.43539 0.0
C3077 C 0.79236 0.72227 0.41806 0.0
C3078 C 0.80839 0.31165 0.41641 0.0
C3079 C 0.81166 0.30636 0.40373 0.0
H3080 H 0.80094 0.30765 0.43635 0.0
C3081 C 0.80963 0.2925 0.40159 0.0
H3082 H 0.80997 0.32226 0.41846 0.0
C3083 C 0.80442 0.28415 0.4118 0.0
C3084 C 0.80114 0.28941 0.42449 0.0
H3085 H 0.81177 0.28811 0.39188 0.0
H3086 H 0.8027 0.27359 0.40963 0.0
C3087 C 0.8032 0.30328 0.42667 0.0
C3088 C 0.11013 0.71412 0.72062 0.0
C3089 C 0.11864 0.72199 0.71225 0.0
H3090 H 0.09335 0.71376 0.73424 0.0
C3091 C 0.11672 0.73597 0.71161 0.0
H3092 H 0.11128 0.70331 0.72127 0.0
C3093 C 0.10652 0.74193 0.71901 0.0
C3094 C 0.09788 0.73411 0.72728 0.0
H3095 H 0.12327 0.74238 0.70552 0.0
H3096 H 0.10559 0.75277 0.71845 0.0
C3097 C 0.09985 0.72011 0.72804 0.0
C3098 C 0.80303 0.61167 0.7158 0.0
C3099 C 0.81093 0.61948 0.72477 0.0
H3100 H 0.78885 0.59528 0.71342 0.0
C3101 C 0.81056 0.61625 0.73863 0.0
H3102 H 0.80323 0.61371 0.70504 0.0
C3103 C 0.80236 0.60566 0.74342 0.0
C3104 C 0.79428 0.59802 0.73448 0.0
H3105 H 0.81634 0.62216 0.74587 0.0
H3106 H 0.80204 0.60373 0.7542 0.0
C3107 C 0.79481 0.60108 0.7206 0.0
C3108 C 0.91404 0.31025 0.72696 0.0
C3109 C 0.90624 0.30156 0.71874 0.0
H3110 H 0.9301 0.31219 0.74151 0.0
C3111 C 0.90911 0.28773 0.71896 0.0
H3112 H 0.91227 0.32098 0.72689 0.0
C3113 C 0.91936 0.2827 0.7273 0.0
C3114 C 0.92702 0.29135 0.73568 0.0
H3115 H 0.90319 0.2807 0.71295 0.0
H3116 H 0.92099 0.27195 0.72749 0.0
C3117 C 0.92429 0.30521 0.73532 0.0
C3118 C 0.21501 0.40228 0.73355 0.0
C3119 C 0.21321 0.39946 0.71974 0.0
H3120 H 0.22473 0.4147 0.74843 0.0
C3121 C 0.21957 0.40798 0.7102 0.0
H3122 H 0.21044 0.39584 0.74119 0.0
C3123 C 0.22777 0.41882 0.71436 0.0
C3124 C 0.22983 0.42144 0.72818 0.0
H3125 H 0.21821 0.40627 0.69948 0.0
H3126 H 0.23255 0.42514 0.70674 0.0
C3127 C 0.2232 0.41313 0.73771 0.0
C3128 C 0.10873 0.28975 0.3136 0.0
C3129 C 0.12135 0.29422 0.30866 0.0
H3130 H 0.08905 0.2816 0.30889 0.0
C3131 C 0.12368 0.29371 0.29469 0.0
H3132 H 0.10655 0.29016 0.32429 0.0
C3133 C 0.11368 0.28878 0.28589 0.0
C3134 C 0.10106 0.28427 0.2908 0.0
H3135 H 0.13336 0.29682 0.29057 0.0
H3136 H 0.11598 0.28823 0.27524 0.0
C3137 C 0.0987 0.28484 0.30478 0.0
C3138 C 0.21099 0.61579 0.30095 0.0
C3139 C 0.21381 0.6168 0.31486 0.0
H3140 H 0.21374 0.60475 0.28273 0.0
C3141 C 0.22119 0.60647 0.32117 0.0
H3142 H 0.20551 0.62362 0.29569 0.0
C3143 C 0.22596 0.59566 0.31371 0.0
C3144 C 0.22342 0.59484 0.29975 0.0
H3145 H 0.22333 0.60676 0.33191 0.0
H3146 H 0.23169 0.58796 0.31887 0.0
C3147 C 0.21571 0.60495 0.2935 0.0
C3148 C 0.91476 0.72687 0.31195 0.0
C3149 C 0.90693 0.71853 0.30342 0.0
H3150 H 0.93069 0.74169 0.31353 0.0
C3151 C 0.90965 0.71877 0.28948 0.0
H3152 H 0.91312 0.72678 0.32275 0.0
C3153 C 0.91975 0.72728 0.2842 0.0
C3154 C 0.9274 0.73581 0.29271 0.0
H3155 H 0.90369 0.71265 0.28257 0.0
H3156 H 0.92127 0.7275 0.27338 0.0
C3157 C 0.92486 0.7354 0.30667 0.0
C3158 C 0.82878 0.41617 0.29898 0.0
C3159 C 0.82185 0.40451 0.30354 0.0
H3160 H 0.82745 0.43555 0.28945 0.0
C3161 C 0.80766 0.40402 0.30244 0.0
H3162 H 0.83968 0.41702 0.29991 0.0
C3163 C 0.80064 0.41468 0.29648 0.0
C3164 C 0.80763 0.42611 0.29146 0.0
H3165 H 0.80199 0.39515 0.30569 0.0
H3166 H 0.78977 0.4137 0.2953 0.0
C3167 C 0.82177 0.42681 0.29301 0.0
C3168 C 0.21813 0.60882 0.71027 0.0
C3169 C 0.21208 0.61765 0.71936 0.0
H3170 H 0.23047 0.59154 0.70769 0.0
C3171 C 0.21375 0.61526 0.7333 0.0
H3172 H 0.21714 0.61038 0.69947 0.0
C3173 C 0.22155 0.60457 0.73801 0.0
C3174 C 0.22785 0.5959 0.72893 0.0
H3175 H 0.20907 0.6217 0.74062 0.0
H3176 H 0.22293 0.60334 0.74881 0.0
C3177 C 0.22591 0.59808 0.71499 0.0
C3178 C 0.22563 0.40159 0.31607 0.0
C3179 C 0.21286 0.39844 0.31046 0.0
H3180 H 0.24323 0.41437 0.31552 0.0
C3181 C 0.20779 0.4068 0.30012 0.0
H3182 H 0.22979 0.39554 0.32418 0.0
C3183 C 0.2154 0.41785 0.29534 0.0
C3184 C 0.22832 0.42079 0.30071 0.0
H3185 H 0.19807 0.40465 0.29544 0.0
H3186 H 0.21117 0.42403 0.28736 0.0
C3187 C 0.23327 0.41257 0.31123 0.0
C3188 C 0.10917 0.7214 0.31162 0.0
C3189 C 0.11782 0.71438 0.30307 0.0
H3190 H 0.09262 0.73493 0.31313 0.0
C3191 C 0.11611 0.71582 0.28902 0.0
H3192 H 0.11008 0.72039 0.32249 0.0
C3193 C 0.10613 0.72414 0.28366 0.0
C3194 C 0.09754 0.73126 0.29219 0.0
H3195 H 0.12273 0.71076 0.28212 0.0
H3196 H 0.1054 0.72528 0.27279 0.0
C3197 C 0.09915 0.72973 0.30625 0.0
C3198 C 0.79511 0.61496 0.31368 0.0
C3199 C 0.80842 0.62011 0.31266 0.0
H3200 H 0.78014 0.60104 0.30623 0.0
C3201 C 0.81722 0.61406 0.30352 0.0
H3202 H 0.7881 0.61919 0.32077 0.0
C3203 C 0.81273 0.60342 0.29537 0.0
C3204 C 0.79928 0.59858 0.29607 0.0
H3205 H 0.82751 0.61778 0.30235 0.0
H3206 H 0.81978 0.59909 0.28839 0.0
C3207 C 0.79059 0.60438 0.30548 0.0
C3208 C 0.91367 0.29796 0.29893 0.0
C3209 C 0.91146 0.29625 0.31287 0.0
H3210 H 0.92479 0.29196 0.28158 0.0
C3211 C 0.91981 0.2874 0.32015 0.0
H3212 H 0.90758 0.30482 0.29301 0.0
C3213 C 0.92982 0.28018 0.31363 0.0
C3214 C 0.93176 0.28157 0.29962 0.0
H3215 H 0.91835 0.28569 0.33086 0.0
H3216 H 0.93596 0.27337 0.31956 0.0
C3217 C 0.92368 0.29071 0.29239 0.0
C3218 C 0.80769 0.41109 0.72043 0.0
C3219 C 0.81534 0.40212 0.72834 0.0
H3220 H 0.79556 0.42878 0.71997 0.0
C3221 C 0.81667 0.40456 0.74225 0.0
H3222 H 0.80636 0.40949 0.70969 0.0
C3223 C 0.81037 0.41549 0.74815 0.0
C3224 C 0.80261 0.42441 0.74031 0.0
H3225 H 0.82265 0.39802 0.74865 0.0
H3226 H 0.81139 0.41678 0.75896 0.0
C3227 C 0.80138 0.42209 0.72635 0.0
C3228 C 0.12132 0.27627 0.71851 0.0
C3229 C 0.12187 0.29032 0.71659 0.0
H3230 H 0.1106 0.25929 0.72674 0.0
C3231 C 0.11124 0.29803 0.72159 0.0
H3232 H 0.12921 0.26997 0.71465 0.0
C3233 C 0.10036 0.29183 0.72838 0.0
C3234 C 0.09984 0.27777 0.73027 0.0
H3235 H 0.11138 0.30888 0.72039 0.0
H3236 H 0.09231 0.29805 0.73202 0.0
C3237 C 0.1105 0.27011 0.72528 0.0
C3238 C 0.90855 0.73436 0.72063 0.0
C3239 C 0.90564 0.72051 0.71927 0.0
H3240 H 0.92067 0.7496 0.73029 0.0
C3241 C 0.91363 0.71128 0.72647 0.0
H3242 H 0.9025 0.74177 0.71541 0.0
C3243 C 0.92406 0.71578 0.73503 0.0
C3244 C 0.92678 0.72963 0.73659 0.0
H3245 H 0.91184 0.70054 0.72548 0.0
H3246 H 0.92998 0.70839 0.74045 0.0
C3247 C 0.91899 0.73886 0.72917 0.0
C3248 C 0.72654 0.22408 0.61945 0.0
C3249 C 0.72644 0.20991 0.6196 0.0
H3250 H 0.73304 0.24221 0.60935 0.0
C3251 C 0.73222 0.20318 0.60867 0.0
H3252 H 0.72233 0.22961 0.62775 0.0
C3253 C 0.73839 0.21041 0.59814 0.0
C3254 C 0.73889 0.22457 0.59822 0.0
H3255 H 0.73207 0.19228 0.6083 0.0
H3256 H 0.74288 0.2049 0.58998 0.0
C3257 C 0.73268 0.23132 0.60888 0.0
C3258 C 0.3095 0.21309 0.61431 0.0
C3259 C 0.30068 0.2069 0.62365 0.0
H3260 H 0.31154 0.22534 0.5965 0.0
C3261 C 0.28666 0.20818 0.62165 0.0
H3262 H 0.32035 0.2124 0.61556 0.0
C3263 C 0.28161 0.21576 0.61083 0.0
C3264 C 0.29043 0.22222 0.60166 0.0
H3265 H 0.27954 0.20338 0.6285 0.0
H3266 H 0.27077 0.21685 0.6099 0.0
C3267 C 0.30444 0.22065 0.60345 0.0
C3268 C 0.3005 0.80032 0.61829 0.0
C3269 C 0.29926 0.81431 0.61986 0.0
H3270 H 0.29489 0.78285 0.60682 0.0
C3271 C 0.29199 0.82156 0.61002 0.0
H3272 H 0.30591 0.79438 0.62572 0.0
C3273 C 0.28564 0.81494 0.59923 0.0
C3274 C 0.28645 0.8009 0.59793 0.0
H3275 H 0.29108 0.83238 0.61071 0.0
H3276 H 0.27995 0.82082 0.59196 0.0
C3277 C 0.29418 0.79369 0.60744 0.0
C3278 C 0.72539 0.80017 0.61833 0.0
C3279 C 0.72675 0.81424 0.61958 0.0
H3280 H 0.73101 0.78254 0.60753 0.0
C3281 C 0.73429 0.82142 0.6098 0.0
H3282 H 0.7198 0.79428 0.62573 0.0
C3283 C 0.74076 0.81468 0.59941 0.0
C3284 C 0.73981 0.80058 0.59846 0.0
H3285 H 0.73531 0.83228 0.61025 0.0
H3286 H 0.74666 0.82051 0.59219 0.0
C3287 C 0.73182 0.79343 0.60788 0.0
C3288 C 0.72745 0.8125 0.41958 0.0
C3289 C 0.72396 0.80706 0.40692 0.0
H3290 H 0.73516 0.80878 0.43954 0.0
C3291 C 0.72584 0.79325 0.40481 0.0
H3292 H 0.72599 0.82308 0.42158 0.0
C3293 C 0.73112 0.78508 0.41506 0.0
C3294 C 0.73462 0.79048 0.42773 0.0
H3295 H 0.72351 0.78877 0.39512 0.0
H3296 H 0.73273 0.77456 0.41292 0.0
C3297 C 0.73271 0.8043 0.42987 0.0
C3298 C 0.71358 0.22496 0.41645 0.0
C3299 C 0.71878 0.21758 0.40565 0.0
H3300 H 0.7178 0.23557 0.4348 0.0
C3301 C 0.73272 0.21501 0.40552 0.0
H3302 H 0.70287 0.22694 0.41702 0.0
C3303 C 0.74126 0.21991 0.41576 0.0
C3304 C 0.7361 0.22754 0.42639 0.0
H3305 H 0.73713 0.20955 0.39728 0.0
H3306 H 0.75199 0.21808 0.41509 0.0
C3307 C 0.72213 0.2299 0.42667 0.0
C3308 C 0.30656 0.20587 0.41688 0.0
C3309 C 0.31023 0.21468 0.40627 0.0
H3310 H 0.29583 0.20325 0.43548 0.0
C3311 C 0.3054 0.2279 0.40636 0.0
H3312 H 0.31023 0.19566 0.41719 0.0
C3313 C 0.29714 0.23223 0.41678 0.0
C3314 C 0.29351 0.22349 0.42746 0.0
H3315 H 0.30781 0.23487 0.39821 0.0
H3316 H 0.29339 0.2424 0.4163 0.0
C3317 C 0.29831 0.21023 0.42737 0.0
C3318 C 0.30417 0.81354 0.41587 0.0
C3319 C 0.30718 0.8078 0.40332 0.0
H3320 H 0.29667 0.81033 0.43592 0.0
C3321 C 0.30472 0.79394 0.40157 0.0
H3322 H 0.3061 0.82415 0.41762 0.0
C3323 C 0.29929 0.78604 0.41202 0.0
C3324 C 0.29621 0.79176 0.42457 0.0
H3325 H 0.30667 0.78923 0.39198 0.0
H3326 H 0.2972 0.77548 0.41013 0.0
C3327 C 0.29876 0.80561 0.42636 0.0
C3328 C 0.61546 0.21931 0.71736 0.0
C3329 C 0.62441 0.22646 0.70882 0.0
H3330 H 0.59789 0.21998 0.72986 0.0
C3331 C 0.622 0.24015 0.70618 0.0
H3332 H 0.61703 0.20878 0.71968 0.0
C3333 C 0.61115 0.2466 0.71213 0.0
C3334 C 0.6023 0.23955 0.72085 0.0
H3335 H 0.62852 0.24594 0.69948 0.0
H3336 H 0.60991 0.25725 0.71013 0.0
C3337 C 0.60455 0.22578 0.72331 0.0
C3338 C 0.3076 0.10423 0.72223 0.0
C3339 C 0.31094 0.11561 0.73003 0.0
H3340 H 0.29754 0.08495 0.72147 0.0
C3341 C 0.30677 0.11587 0.74356 0.0
H3342 H 0.31058 0.10373 0.71175 0.0
C3343 C 0.29923 0.10517 0.7491 0.0
C3344 C 0.29565 0.0939 0.74125 0.0
H3345 H 0.30932 0.12438 0.74992 0.0
H3346 H 0.29591 0.1059 0.75945 0.0
C3347 C 0.30002 0.09352 0.72777 0.0
C3348 C 0.41091 0.80888 0.72301 0.0
C3349 C 0.40416 0.80058 0.71359 0.0
H3350 H 0.42652 0.81066 0.738 0.0
C3351 C 0.40863 0.78731 0.71202 0.0
H3352 H 0.40772 0.81911 0.72462 0.0
C3353 C 0.41928 0.78237 0.7199 0.0
C3354 C 0.42583 0.79058 0.72953 0.0
H3355 H 0.40385 0.78067 0.70472 0.0
H3356 H 0.4221 0.77197 0.71868 0.0
C3357 C 0.42162 0.80397 0.73084 0.0
C3358 C 0.71654 0.90186 0.73776 0.0
C3359 C 0.71396 0.90101 0.72381 0.0
H3360 H 0.72647 0.91252 0.75379 0.0
C3361 C 0.71934 0.91113 0.71527 0.0
H3362 H 0.71276 0.89413 0.74462 0.0
C3363 C 0.72719 0.92175 0.72055 0.0
C3364 C 0.72988 0.92251 0.7345 0.0
H3365 H 0.7174 0.9109 0.70449 0.0
H3366 H 0.7311 0.9294 0.71369 0.0
C3367 C 0.7244 0.91244 0.74304 0.0
C3368 C 0.61478 0.79857 0.30845 0.0
C3369 C 0.62315 0.79153 0.31752 0.0
H3370 H 0.59781 0.7977 0.29489 0.0
C3371 C 0.62028 0.77782 0.32004 0.0
H3372 H 0.61672 0.80912 0.30619 0.0
C3373 C 0.60957 0.77123 0.31342 0.0
C3374 C 0.60134 0.77817 0.30414 0.0
H3375 H 0.62634 0.77212 0.32714 0.0
H3376 H 0.60799 0.76057 0.31533 0.0
C3377 C 0.60401 0.79198 0.30185 0.0
C3378 C 0.71904 0.10467 0.31575 0.0
C3379 C 0.71626 0.11745 0.31024 0.0
H3380 H 0.72552 0.08456 0.3121 0.0
C3381 C 0.71797 0.11952 0.29629 0.0
H3382 H 0.71768 0.10268 0.32643 0.0
C3383 C 0.72251 0.10917 0.2881 0.0
C3384 C 0.72542 0.09642 0.2936 0.0
H3385 H 0.71616 0.12929 0.29174 0.0
H3386 H 0.72409 0.11131 0.27748 0.0
C3387 C 0.72355 0.09428 0.30753 0.0
C3388 C 0.41429 0.22191 0.31622 0.0
C3389 C 0.40631 0.21429 0.30716 0.0
H3390 H 0.43049 0.23632 0.31873 0.0
C3391 C 0.40889 0.21555 0.29325 0.0
H3392 H 0.41271 0.22106 0.327 0.0
C3393 C 0.41909 0.22426 0.28851 0.0
C3394 C 0.42699 0.23197 0.29755 0.0
H3395 H 0.4028 0.21003 0.28595 0.0
H3396 H 0.42053 0.22521 0.27771 0.0
C3397 C 0.4245 0.23065 0.31147 0.0
C3398 C 0.31682 0.90535 0.28718 0.0
C3399 C 0.31779 0.90303 0.30119 0.0
H3400 H 0.30819 0.91707 0.27116 0.0
C3401 C 0.311 0.91169 0.30991 0.0
H3402 H 0.32173 0.89877 0.28015 0.0
C3403 C 0.30323 0.92222 0.30473 0.0
C3404 C 0.30204 0.92436 0.29071 0.0
H3405 H 0.31171 0.91035 0.32075 0.0
H3406 H 0.29811 0.92867 0.31174 0.0
C3407 C 0.30906 0.91587 0.28201 0.0
C3408 C 0.71461 0.11405 0.7355 0.0
C3409 C 0.71471 0.11755 0.72169 0.0
H3410 H 0.72251 0.10142 0.75121 0.0
C3411 C 0.72269 0.11 0.71293 0.0
H3412 H 0.70876 0.11974 0.7426 0.0
C3413 C 0.73061 0.09949 0.7179 0.0
C3414 C 0.73074 0.09622 0.73175 0.0
H3415 H 0.72283 0.11223 0.70221 0.0
H3416 H 0.7367 0.09396 0.71088 0.0
C3417 C 0.72249 0.10352 0.74046 0.0
C3418 C 0.71362 0.90498 0.29192 0.0
C3419 C 0.71303 0.90242 0.3059 0.0
H3420 H 0.72211 0.91701 0.27596 0.0
C3421 C 0.7204 0.91094 0.31465 0.0
H3422 H 0.70826 0.89851 0.28486 0.0
C3423 C 0.72836 0.92158 0.30953 0.0
C3424 C 0.72916 0.92396 0.29553 0.0
H3425 H 0.72 0.90941 0.32548 0.0
H3426 H 0.73393 0.92792 0.31655 0.0
C3427 C 0.72157 0.91562 0.2868 0.0
C3428 C 0.61566 0.21461 0.29426 0.0
C3429 C 0.61948 0.21418 0.30798 0.0
H3430 H 0.60306 0.2235 0.27907 0.0
C3431 C 0.61258 0.2223 0.31712 0.0
H3432 H 0.62088 0.20866 0.28689 0.0
C3433 C 0.60234 0.23084 0.31261 0.0
C3434 C 0.59873 0.23146 0.29885 0.0
H3435 H 0.61507 0.22206 0.32779 0.0
H3436 H 0.59727 0.23699 0.31992 0.0
C3437 C 0.60542 0.22312 0.28976 0.0
C3438 C 0.29477 0.11147 0.30999 0.0
C3439 C 0.30852 0.11535 0.31037 0.0
H3440 H 0.27944 0.09888 0.30104 0.0
C3441 C 0.31758 0.10862 0.302 0.0
H3442 H 0.28745 0.11657 0.31611 0.0
C3443 C 0.31296 0.09844 0.29332 0.0
C3444 C 0.29917 0.09473 0.29281 0.0
H3445 H 0.32827 0.11119 0.30217 0.0
H3446 H 0.3202 0.09348 0.28699 0.0
C3447 C 0.29016 0.1013 0.30135 0.0
C3448 C 0.411 0.78512 0.31055 0.0
C3449 C 0.40803 0.79892 0.31014 0.0
H3450 H 0.42323 0.76928 0.30322 0.0
C3451 C 0.41615 0.80754 0.30213 0.0
H3452 H 0.40513 0.77818 0.31676 0.0
C3453 C 0.42678 0.80246 0.29455 0.0
C3454 C 0.42953 0.7886 0.29472 0.0
H3455 H 0.41413 0.81821 0.30146 0.0
H3456 H 0.43278 0.8094 0.28849 0.0
C3457 C 0.42156 0.78003 0.30293 0.0
C3458 C 0.32307 0.9127 0.73342 0.0
C3459 C 0.31568 0.90273 0.72636 0.0
H3460 H 0.32246 0.93031 0.74571 0.0
C3461 C 0.30151 0.90371 0.72566 0.0
H3462 H 0.33401 0.91247 0.73391 0.0
C3463 C 0.29489 0.91405 0.73235 0.0
C3464 C 0.30228 0.92361 0.73993 0.0
H3465 H 0.29547 0.89616 0.72043 0.0
H3466 H 0.28394 0.91418 0.73209 0.0
C3467 C 0.31646 0.92297 0.74014 0.0
C3468 C 0.61179 0.80152 0.71367 0.0
C3469 C 0.6227 0.79412 0.70879 0.0
H3470 H 0.5926 0.80092 0.72367 0.0
C3471 C 0.62269 0.78012 0.71094 0.0
H3472 H 0.61145 0.81232 0.71211 0.0
C3473 C 0.61196 0.77362 0.71755 0.0
C3474 C 0.60089 0.78092 0.72218 0.0
H3475 H 0.63106 0.77414 0.7076 0.0
H3476 H 0.61244 0.76284 0.71916 0.0
C3477 C 0.60099 0.79499 0.72029 0.0
C3478 C 0.41576 0.21178 0.72062 0.0
C3479 C 0.40577 0.22004 0.71491 0.0
H3480 H 0.4342 0.21076 0.73205 0.0
C3481 C 0.40724 0.23408 0.7162 0.0
H3482 H 0.41492 0.20092 0.7199 0.0
C3483 C 0.4182 0.23971 0.72329 0.0
C3484 C 0.42804 0.23146 0.72926 0.0
H3485 H 0.39988 0.24077 0.71176 0.0
H3486 H 0.41874 0.25055 0.7244 0.0
C3487 C 0.42675 0.21742 0.72771 0.0
C3488 C 0.72944 0.70774 0.11213 0.0
C3489 C 0.72135 0.71302 0.12237 0.0
H3490 H 0.74025 0.71155 0.09377 0.0
C3491 C 0.71769 0.72663 0.12148 0.0
H3492 H 0.73225 0.69725 0.11233 0.0
C3493 C 0.72221 0.73479 0.11078 0.0
C3494 C 0.73054 0.72958 0.10071 0.0
H3495 H 0.71166 0.73111 0.12927 0.0
H3496 H 0.71952 0.74531 0.11065 0.0
C3497 C 0.734 0.71593 0.10146 0.0
C3498 C 0.31363 0.71043 0.11562 0.0
C3499 C 0.30434 0.70415 0.12445 0.0
H3500 H 0.31655 0.72301 0.09815 0.0
C3501 C 0.29045 0.70595 0.12211 0.0
H3502 H 0.3244 0.70911 0.11702 0.0
C3503 C 0.28595 0.71389 0.11132 0.0
C3504 C 0.29522 0.72027 0.10254 0.0
H3505 H 0.28301 0.70147 0.12884 0.0
H3506 H 0.27518 0.71533 0.11008 0.0
C3507 C 0.30913 0.71838 0.1048 0.0
C3508 C 0.30903 0.31038 0.11296 0.0
C3509 C 0.30101 0.31443 0.12382 0.0
H3510 H 0.30957 0.30076 0.09363 0.0
C3511 C 0.28714 0.31111 0.12363 0.0
H3512 H 0.31974 0.31284 0.11277 0.0
C3513 C 0.28135 0.3042 0.11275 0.0
C3514 C 0.28923 0.30044 0.10168 0.0
H3515 H 0.28073 0.31378 0.13197 0.0
H3516 H 0.27065 0.30171 0.11308 0.0
C3517 C 0.3032 0.30347 0.10199 0.0
C3518 C 0.74061 0.31598 0.12213 0.0
C3519 C 0.72682 0.31414 0.1251 0.0
H3520 H 0.75706 0.31111 0.10934 0.0
C3521 C 0.71882 0.30604 0.11648 0.0
H3522 H 0.74706 0.32231 0.12839 0.0
C3523 C 0.72453 0.29977 0.1053 0.0
C3524 C 0.73839 0.30148 0.10247 0.0
H3525 H 0.70817 0.30434 0.11849 0.0
H3526 H 0.7181 0.29359 0.09889 0.0
C3527 C 0.74632 0.30971 0.11102 0.0
C3528 C 0.7226 0.3134 0.91935 0.0
C3529 C 0.71968 0.30806 0.90652 0.0
H3530 H 0.72938 0.30953 0.93961 0.0
C3531 C 0.72152 0.29423 0.90445 0.0
H3532 H 0.72114 0.32398 0.92134 0.0
C3533 C 0.72627 0.28598 0.91489 0.0
C3534 C 0.72927 0.2913 0.92772 0.0
H3535 H 0.71961 0.28983 0.89464 0.0
H3536 H 0.72791 0.27545 0.91278 0.0
C3537 C 0.72733 0.30512 0.92983 0.0
C3538 C 0.71573 0.71094 0.91527 0.0
C3539 C 0.71231 0.7191 0.90411 0.0
H3540 H 0.72575 0.70967 0.93451 0.0
C3541 C 0.71686 0.73259 0.90392 0.0
H3542 H 0.71226 0.70054 0.91581 0.0
C3543 C 0.72461 0.73781 0.91458 0.0
C3544 C 0.72799 0.7297 0.9258 0.0
H3545 H 0.71464 0.7391 0.89538 0.0
H3546 H 0.72818 0.74816 0.91388 0.0
C3547 C 0.72345 0.71618 0.926 0.0
C3548 C 0.29872 0.70697 0.90635 0.0
C3549 C 0.31271 0.70974 0.90594 0.0
H3550 H 0.2801 0.70961 0.9168 0.0
C3551 C 0.31874 0.71689 0.91669 0.0
H3552 H 0.29369 0.70167 0.89817 0.0
C3553 C 0.31092 0.72149 0.92736 0.0
C3554 C 0.29689 0.71901 0.92759 0.0
H3555 H 0.32952 0.71898 0.91685 0.0
H3556 H 0.31587 0.72704 0.93542 0.0
C3557 C 0.29091 0.71153 0.91705 0.0
C3558 C 0.31602 0.30128 0.91012 0.0
C3559 C 0.30723 0.31003 0.90327 0.0
H3560 H 0.3185 0.28675 0.926 0.0
C3561 C 0.29385 0.31096 0.90787 0.0
H3562 H 0.32635 0.3002 0.90684 0.0
C3563 C 0.28927 0.30306 0.91873 0.0
C3564 C 0.29796 0.29404 0.92536 0.0
H3565 H 0.28684 0.31775 0.90302 0.0
H3566 H 0.27878 0.30373 0.92164 0.0
C3567 C 0.31145 0.29342 0.92104 0.0
C3568 C 0.61373 0.70594 0.22433 0.0
C3569 C 0.62187 0.7153 0.21721 0.0
H3570 H 0.59718 0.70278 0.23788 0.0
C3571 C 0.61906 0.72908 0.21831 0.0
H3572 H 0.61545 0.69524 0.22353 0.0
C3573 C 0.60856 0.73341 0.22651 0.0
C3574 C 0.60059 0.72407 0.23383 0.0
H3575 H 0.62523 0.7366 0.21314 0.0
H3576 H 0.60698 0.74412 0.22744 0.0
C3577 C 0.60323 0.71027 0.23253 0.0
C3578 C 0.29077 0.61606 0.22901 0.0
C3579 C 0.30466 0.61362 0.2278 0.0
H3580 H 0.27143 0.60854 0.23528 0.0
C3581 C 0.30953 0.60096 0.23177 0.0
H3582 H 0.28672 0.62577 0.22628 0.0
C3583 C 0.30073 0.59099 0.23689 0.0
C3584 C 0.28684 0.59347 0.2382 0.0
H3585 H 0.32016 0.5987 0.23082 0.0
H3586 H 0.30479 0.58131 0.23974 0.0
C3587 C 0.28199 0.60614 0.23416 0.0
C3588 C 0.41552 0.30005 0.21467 0.0
C3589 C 0.40497 0.3072 0.22059 0.0
H3590 H 0.43413 0.28967 0.21765 0.0
C3591 C 0.40552 0.3095 0.23458 0.0
H3592 H 0.4154 0.29796 0.20396 0.0
C3593 C 0.41613 0.30453 0.24247 0.0
C3594 C 0.4266 0.2972 0.23661 0.0
H3595 H 0.39772 0.31513 0.2395 0.0
H3596 H 0.41592 0.30617 0.25326 0.0
C3597 C 0.4262 0.29514 0.22257 0.0
C3598 C 0.73453 0.40234 0.2255 0.0
C3599 C 0.72043 0.40387 0.2256 0.0
H3600 H 0.75395 0.4109 0.23024 0.0
C3601 C 0.71519 0.41596 0.23048 0.0
H3602 H 0.73892 0.39308 0.22207 0.0
C3603 C 0.72385 0.42625 0.23518 0.0
C3604 C 0.73796 0.42469 0.23508 0.0
H3605 H 0.70439 0.41754 0.23056 0.0
H3606 H 0.7195 0.43548 0.23874 0.0
C3607 C 0.74316 0.4126 0.23019 0.0
C3608 C 0.61753 0.28974 0.80797 0.0
C3609 C 0.62173 0.30335 0.80813 0.0
H3610 H 0.6047 0.27467 0.79901 0.0
C3611 C 0.61515 0.31248 0.79946 0.0
H3612 H 0.62219 0.28244 0.81465 0.0
C3613 C 0.60488 0.30806 0.79068 0.0
C3614 C 0.60096 0.29438 0.79025 0.0
H3615 H 0.61816 0.32302 0.7992 0.0
H3616 H 0.60009 0.31539 0.78414 0.0
C3617 C 0.60732 0.28531 0.79913 0.0
C3618 C 0.71658 0.61658 0.79683 0.0
C3619 C 0.71919 0.61695 0.81081 0.0
H3620 H 0.71987 0.60657 0.77811 0.0
C3621 C 0.72682 0.60657 0.81669 0.0
H3622 H 0.71092 0.62448 0.7919 0.0
C3623 C 0.73199 0.5963 0.80876 0.0
C3624 C 0.72963 0.5961 0.79474 0.0
H3625 H 0.72882 0.60637 0.82746 0.0
H3626 H 0.73788 0.58851 0.81361 0.0
C3627 C 0.72171 0.60628 0.7889 0.0
C3628 C 0.40861 0.72289 0.80768 0.0
C3629 C 0.40606 0.70983 0.80277 0.0
H3630 H 0.42029 0.74114 0.80602 0.0
C3631 C 0.41444 0.70497 0.79254 0.0
H3632 H 0.40254 0.72693 0.81569 0.0
C3633 C 0.42487 0.71304 0.78719 0.0
C3634 C 0.42718 0.72624 0.79185 0.0
H3635 H 0.41274 0.69503 0.78839 0.0
H3636 H 0.43107 0.70895 0.77931 0.0
C3637 C 0.41897 0.731 0.80226 0.0
C3638 C 0.3076 0.41073 0.8012 0.0
C3639 C 0.31508 0.40154 0.79368 0.0
H3640 H 0.29528 0.42828 0.80087 0.0
C3641 C 0.31594 0.40345 0.77963 0.0
H3642 H 0.30665 0.40954 0.81204 0.0
C3643 C 0.30932 0.41407 0.77322 0.0
C3644 C 0.30169 0.42318 0.78068 0.0
H3645 H 0.32178 0.39672 0.77351 0.0
H3646 H 0.30995 0.41493 0.76234 0.0
C3647 C 0.30097 0.42141 0.79478 0.0
C3648 C 0.72289 0.60829 0.21662 0.0
C3649 C 0.71856 0.61847 0.22528 0.0
H3650 H 0.73415 0.5902 0.21455 0.0
C3651 C 0.72257 0.61798 0.23893 0.0
H3652 H 0.71984 0.60826 0.20609 0.0
C3653 C 0.73077 0.60766 0.24378 0.0
C3654 C 0.73518 0.5975 0.23512 0.0
H3655 H 0.71962 0.62577 0.24584 0.0
H3656 H 0.73396 0.60787 0.25426 0.0
C3657 C 0.73108 0.59792 0.22148 0.0
C3658 C 0.72388 0.41316 0.81406 0.0
C3659 C 0.7169 0.40447 0.80517 0.0
H3660 H 0.73742 0.43012 0.81618 0.0
C3661 C 0.71844 0.40648 0.79119 0.0
H3662 H 0.72279 0.41201 0.82488 0.0
C3663 C 0.7268 0.41684 0.78621 0.0
C3664 C 0.73386 0.42549 0.79507 0.0
H3665 H 0.71342 0.39983 0.78405 0.0
H3666 H 0.728 0.41784 0.77538 0.0
C3667 C 0.73226 0.42356 0.80907 0.0
C3668 C 0.60547 0.70064 0.79805 0.0
C3669 C 0.61793 0.70708 0.80097 0.0
H3670 H 0.58569 0.70228 0.78929 0.0
C3671 C 0.6196 0.72077 0.79751 0.0
H3672 H 0.60375 0.69017 0.80079 0.0
C3673 C 0.60924 0.72772 0.79091 0.0
C3674 C 0.59694 0.72116 0.78761 0.0
H3675 H 0.62911 0.72601 0.79943 0.0
H3676 H 0.61111 0.7381 0.78792 0.0
C3677 C 0.59511 0.70759 0.79146 0.0
C3678 C 0.30388 0.61641 0.793 0.0
C3679 C 0.30451 0.61426 0.80704 0.0
H3680 H 0.29776 0.60874 0.77376 0.0
C3681 C 0.2996 0.60192 0.81233 0.0
H3682 H 0.30731 0.62588 0.78859 0.0
C3683 C 0.29412 0.59203 0.80379 0.0
C3684 C 0.2934 0.59424 0.78975 0.0
H3685 H 0.30008 0.59986 0.82308 0.0
H3686 H 0.29051 0.58262 0.80817 0.0
C3687 C 0.2984 0.60655 0.78448 0.0
C3688 C 0.40921 0.28619 0.81064 0.0
C3689 C 0.4077 0.30023 0.81044 0.0
H3690 H 0.42029 0.26934 0.80381 0.0
C3691 C 0.41684 0.30816 0.80283 0.0
H3692 H 0.40218 0.27974 0.81613 0.0
C3693 C 0.42737 0.30217 0.79576 0.0
C3694 C 0.42896 0.28811 0.79613 0.0
H3695 H 0.41601 0.31902 0.80253 0.0
H3696 H 0.43437 0.30856 0.79017 0.0
C3697 C 0.41966 0.28022 0.80358 0.0
C3698 C 0.31856 0.41415 0.239 0.0
C3699 C 0.31167 0.40583 0.22969 0.0
H3700 H 0.31737 0.43021 0.25317 0.0
C3701 C 0.29783 0.40801 0.2273 0.0
H3702 H 0.32917 0.41271 0.24124 0.0
C3703 C 0.29099 0.41796 0.23433 0.0
C3704 C 0.29781 0.426 0.24393 0.0
H3705 H 0.29222 0.40194 0.22007 0.0
H3706 H 0.28025 0.41904 0.23254 0.0
C3707 C 0.31174 0.4241 0.24599 0.0
C3708 C 0.61227 0.31272 0.22496 0.0
C3709 C 0.62226 0.304 0.22035 0.0
H3710 H 0.59412 0.31482 0.23637 0.0
C3711 C 0.6214 0.29032 0.22406 0.0
H3712 H 0.61255 0.32329 0.22216 0.0
C3713 C 0.61089 0.28547 0.23221 0.0
C3714 C 0.6009 0.29417 0.23686 0.0
H3715 H 0.62905 0.28336 0.2209 0.0
H3716 H 0.61081 0.27494 0.23514 0.0
C3717 C 0.60171 0.30786 0.2331 0.0
C3718 C 0.40753 0.73121 0.21454 0.0
C3719 C 0.4045 0.71753 0.21703 0.0
H3720 H 0.42039 0.74815 0.21881 0.0
C3721 C 0.41308 0.71024 0.2257 0.0
H3722 H 0.4013 0.7371 0.20775 0.0
C3723 C 0.42426 0.71657 0.23191 0.0
C3724 C 0.42715 0.73031 0.22954 0.0
H3725 H 0.41101 0.69971 0.22791 0.0
H3726 H 0.43064 0.71068 0.23856 0.0
C3727 C 0.41865 0.73751 0.22073 0.0
loop_
_geom_bond_atom_site_label_1
_geom_bond_atom_site_label_2
_geom_bond_distance
_geom_bond_site_symmetry_2
_ccdc_geom_bond_type
C0 C1 1.264 . S
C0 C5 1.479 . S
C0 C10 1.465 . S
C1 C0 1.264 . S
C1 C3 1.339 . S
C1 H28 0.931 . S
C2 C3 1.395 . S
C2 C4 1.320 . S
C3 C1 1.339 . S
C3 C2 1.395 . S
C3 H29 0.929 . S
C4 C2 1.320 . S
C4 C5 1.405 . S
C4 H30 0.930 . S
C5 C0 1.479 . S
C5 C4 1.405 . S
C5 H31 0.931 . S
U6 O7 2.454 . S
U6 O8 2.458 . S
U6 C9 2.984 . S
U6 C10 2.847 . S
U6 C23 2.882 . S
U6 O24 2.441 . S
U6 O25 2.420 . S
U6 O26 2.455 . S
U6 O27 2.449 . S
O7 U6 2.454 . S
O7 C9 1.353 . S
O8 U6 2.458 . S
O8 C9 1.286 . S
C9 U6 2.984 . S
C9 O7 1.353 . S
C9 O8 1.286 . S
C9 C11 1.363 . S
C10 C0 1.465 . S
C10 U6 2.847 . S
C10 O24 1.249 . S
C10 O25 1.202 . S
C11 C9 1.363 . S
C11 C13 1.408 . S
C11 C16 1.342 . S
C12 C13 1.310 . S
C12 C15 1.461 . S
C12 H32 0.932 . S
C13 C11 1.408 . S
C13 C12 1.310 . S
C13 H33 0.930 . S
C14 C15 1.474 . S
C14 C16 1.285 . S
C14 H34 0.929 . S
C15 C12 1.461 . S
C15 C14 1.474 . S
C16 C11 1.342 . S
C16 C14 1.285 . S
C16 H35 0.930 . S
C17 C20 1.424 . S
C17 C22 1.245 . S
C17 C23 1.428 . S
C18 C21 1.260 . S
C18 C22 1.477 . S
C18 H36 0.932 . S
C19 C20 1.384 . S
C19 C21 1.479 . S
C19 H37 0.929 . S
C20 C17 1.424 . S
C20 C19 1.384 . S
C20 H38 0.928 . S
C21 C18 1.260 . S
C21 C19 1.479 . S
C22 C17 1.245 . S
C22 C18 1.477 . S
C22 H39 0.932 . S
C23 U6 2.882 . S
C23 C17 1.428 . S
C23 O26 1.301 . S
C23 O27 1.282 . S
O24 U6 2.441 . S
O24 C10 1.249 . S
O25 U6 2.420 . S
O25 C10 1.202 . S
O26 U6 2.455 . S
O26 C23 1.301 . S
O27 U6 2.449 . S
O27 C23 1.282 . S
H28 C1 0.931 . S
H29 C3 0.929 . S
H30 C4 0.930 . S
H31 C5 0.931 . S
H32 C12 0.932 . S
H33 C13 0.930 . S
H34 C14 0.929 . S
H35 C16 0.930 . S
H36 C18 0.932 . S
H37 C19 0.929 . S
H38 C20 0.928 . S
H39 C22 0.932 . S
C40 C41 1.264 . S
C40 C45 1.479 . S
C40 C50 1.465 . S
C41 C40 1.264 . S
C41 C43 1.339 . S
C41 H68 0.931 . S
C42 C43 1.395 . S
C42 C44 1.320 . S
C43 C41 1.339 . S
C43 C42 1.395 . S
C43 H69 0.929 . S
C44 C42 1.320 . S
C44 C45 1.405 . S
C44 H70 0.930 . S
C45 C40 1.479 . S
C45 C44 1.405 . S
C45 H71 0.931 . S
U46 O47 2.454 . S
U46 O48 2.458 . S
U46 C49 2.984 . S
U46 C50 2.847 . S
U46 C63 2.882 . S
U46 O64 2.441 . S
U46 O65 2.420 . S
U46 O66 2.455 . S
U46 O67 2.449 . S
O47 U46 2.454 . S
O47 C49 1.353 . S
O48 U46 2.458 . S
O48 C49 1.286 . S
C49 U46 2.984 . S
C49 O47 1.353 . S
C49 O48 1.286 . S
C49 C51 1.363 . S
C50 C40 1.465 . S
C50 U46 2.847 . S
C50 O64 1.249 . S
C50 O65 1.202 . S
C51 C49 1.363 . S
C51 C53 1.408 . S
C51 C56 1.342 . S
C52 C53 1.310 . S
C52 C55 1.461 . S
C52 H72 0.932 . S
C53 C51 1.408 . S
C53 C52 1.310 . S
C53 H73 0.930 . S
C54 C55 1.474 . S
C54 C56 1.285 . S
C54 H74 0.929 . S
C55 C52 1.461 . S
C55 C54 1.474 . S
C56 C51 1.342 . S
C56 C54 1.285 . S
C56 H75 0.930 . S
C57 C60 1.424 . S
C57 C62 1.245 . S
C57 C63 1.428 . S
C58 C61 1.260 . S
C58 C62 1.477 . S
C58 H76 0.932 . S
C59 C60 1.384 . S
C59 C61 1.479 . S
C59 H77 0.929 . S
C60 C57 1.424 . S
C60 C59 1.384 . S
C60 H78 0.928 . S
C61 C58 1.260 . S
C61 C59 1.479 . S
C62 C57 1.245 . S
C62 C58 1.477 . S
C62 H79 0.932 . S
C63 U46 2.882 . S
C63 C57 1.428 . S
C63 O66 1.301 . S
C63 O67 1.282 . S
O64 U46 2.441 . S
O64 C50 1.249 . S
O65 U46 2.420 . S
O65 C50 1.202 . S
O66 U46 2.455 . S
O66 C63 1.301 . S
O67 U46 2.449 . S
O67 C63 1.282 . S
H68 C41 0.931 . S
H69 C43 0.929 . S
H70 C44 0.930 . S
H71 C45 0.931 . S
H72 C52 0.932 . S
H73 C53 0.930 . S
H74 C54 0.929 . S
H75 C56 0.930 . S
H76 C58 0.932 . S
H77 C59 0.929 . S
H78 C60 0.928 . S
H79 C62 0.932 . S
C80 C81 1.264 . S
C80 C85 1.479 . S
C80 C90 1.465 . S
C81 C80 1.264 . S
C81 C83 1.339 . S
C81 H108 0.931 . S
C82 C83 1.395 . S
C82 C84 1.320 . S
C83 C81 1.339 . S
C83 C82 1.395 . S
C83 H109 0.929 . S
C84 C82 1.320 . S
C84 C85 1.405 . S
C84 H110 0.930 . S
C85 C80 1.479 . S
C85 C84 1.405 . S
C85 H111 0.931 . S
U86 O87 2.454 . S
U86 O88 2.458 . S
U86 C89 2.984 . S
U86 C90 2.847 . S
U86 C103 2.882 . S
U86 O104 2.441 . S
U86 O105 2.420 . S
U86 O106 2.455 . S
U86 O107 2.449 . S
O87 U86 2.454 . S
O87 C89 1.353 . S
O88 U86 2.458 . S
O88 C89 1.286 . S
C89 U86 2.984 . S
C89 O87 1.353 . S
C89 O88 1.286 . S
C89 C91 1.363 . S
C90 C80 1.465 . S
C90 U86 2.847 . S
C90 O104 1.249 . S
C90 O105 1.202 . S
C91 C89 1.363 . S
C91 C93 1.408 . S
C91 C96 1.342 . S
C92 C93 1.310 . S
C92 C95 1.461 . S
C92 H112 0.932 . S
C93 C91 1.408 . S
C93 C92 1.310 . S
C93 H113 0.930 . S
C94 C95 1.474 . S
C94 C96 1.285 . S
C94 H114 0.929 . S
C95 C92 1.461 . S
C95 C94 1.474 . S
C96 C91 1.342 . S
C96 C94 1.285 . S
C96 H115 0.930 . S
C97 C100 1.424 . S
C97 C102 1.245 . S
C97 C103 1.428 . S
C98 C101 1.260 . S
C98 C102 1.477 . S
C98 H116 0.932 . S
C99 C100 1.384 . S
C99 C101 1.479 . S
C99 H117 0.929 . S
C100 C97 1.424 . S
C100 C99 1.384 . S
C100 H118 0.928 . S
C101 C98 1.260 . S
C101 C99 1.479 . S
C102 C97 1.245 . S
C102 C98 1.477 . S
C102 H119 0.932 . S
C103 U86 2.882 . S
C103 C97 1.428 . S
C103 O106 1.301 . S
C103 O107 1.282 . S
O104 U86 2.441 . S
O104 C90 1.249 . S
O105 U86 2.420 . S
O105 C90 1.202 . S
O106 U86 2.455 . S
O106 C103 1.301 . S
O107 U86 2.449 . S
O107 C103 1.282 . S
H108 C81 0.931 . S
H109 C83 0.929 . S
H110 C84 0.930 . S
H111 C85 0.931 . S
H112 C92 0.932 . S
H113 C93 0.930 . S
H114 C94 0.929 . S
H115 C96 0.930 . S
H116 C98 0.932 . S
H117 C99 0.929 . S
H118 C100 0.928 . S
H119 C102 0.932 . S
C120 C121 1.264 . S
C120 C125 1.479 . S
C120 C130 1.465 . S
C121 C120 1.264 . S
C121 C123 1.339 . S
C121 H148 0.931 . S
C122 C123 1.395 . S
C122 C124 1.320 . S
C123 C121 1.339 . S
C123 C122 1.395 . S
C123 H149 0.929 . S
C124 C122 1.320 . S
C124 C125 1.405 . S
C124 H150 0.930 . S
C125 C120 1.479 . S
C125 C124 1.405 . S
C125 H151 0.931 . S
U126 O127 2.454 . S
U126 O128 2.458 . S
U126 C129 2.984 . S
U126 C130 2.847 . S
U126 C143 2.882 . S
U126 O144 2.441 . S
U126 O145 2.420 . S
U126 O146 2.455 . S
U126 O147 2.449 . S
O127 U126 2.454 . S
O127 C129 1.353 . S
O128 U126 2.458 . S
O128 C129 1.286 . S
C129 U126 2.984 . S
C129 O127 1.353 . S
C129 O128 1.286 . S
C129 C131 1.363 . S
C130 C120 1.465 . S
C130 U126 2.847 . S
C130 O144 1.249 . S
C130 O145 1.202 . S
C131 C129 1.363 . S
C131 C133 1.408 . S
C131 C136 1.342 . S
C132 C133 1.310 . S
C132 C135 1.461 . S
C132 H152 0.932 . S
C133 C131 1.408 . S
C133 C132 1.310 . S
C133 H153 0.930 . S
C134 C135 1.474 . S
C134 C136 1.285 . S
C134 H154 0.929 . S
C135 C132 1.461 . S
C135 C134 1.474 . S
C136 C131 1.342 . S
C136 C134 1.285 . S
C136 H155 0.930 . S
C137 C140 1.424 . S
C137 C142 1.245 . S
C137 C143 1.428 . S
C138 C141 1.260 . S
C138 C142 1.477 . S
C138 H156 0.932 . S
C139 C140 1.384 . S
C139 C141 1.479 . S
C139 H157 0.929 . S
C140 C137 1.424 . S
C140 C139 1.384 . S
C140 H158 0.928 . S
C141 C138 1.260 . S
C141 C139 1.479 . S
C142 C137 1.245 . S
C142 C138 1.477 . S
C142 H159 0.932 . S
C143 U126 2.882 . S
C143 C137 1.428 . S
C143 O146 1.301 . S
C143 O147 1.282 . S
O144 U126 2.441 . S
O144 C130 1.249 . S
O145 U126 2.420 . S
O145 C130 1.202 . S
O146 U126 2.455 . S
O146 C143 1.301 . S
O147 U126 2.449 . S
O147 C143 1.282 . S
H148 C121 0.931 . S
H149 C123 0.929 . S
H150 C124 0.930 . S
H151 C125 0.931 . S
H152 C132 0.932 . S
H153 C133 0.930 . S
H154 C134 0.929 . S
H155 C136 0.930 . S
H156 C138 0.932 . S
H157 C139 0.929 . S
H158 C140 0.928 . S
H159 C142 0.932 . S
C160 C161 1.264 . S
C160 C165 1.479 . S
C160 C170 1.465 . S
C161 C160 1.264 . S
C161 C163 1.339 . S
C161 H188 0.931 . S
C162 C163 1.395 . S
C162 C164 1.320 . S
C163 C161 1.339 . S
C163 C162 1.395 . S
C163 H189 0.929 . S
C164 C162 1.320 . S
C164 C165 1.405 . S
C164 H190 0.930 . S
C165 C160 1.479 . S
C165 C164 1.405 . S
C165 H191 0.931 . S
U166 O167 2.454 . S
U166 O168 2.458 . S
U166 C169 2.984 . S
U166 C170 2.847 . S
U166 C183 2.882 . S
U166 O184 2.441 . S
U166 O185 2.420 . S
U166 O186 2.455 . S
U166 O187 2.449 . S
O167 U166 2.454 . S
O167 C169 1.353 . S
O168 U166 2.458 . S
O168 C169 1.286 . S
C169 U166 2.984 . S
C169 O167 1.353 . S
C169 O168 1.286 . S
C169 C171 1.363 . S
C170 C160 1.465 . S
C170 U166 2.847 . S
C170 O184 1.249 . S
C170 O185 1.202 . S
C171 C169 1.363 . S
C171 C173 1.408 . S
C171 C176 1.342 . S
C172 C173 1.310 . S
C172 C175 1.461 . S
C172 H192 0.932 . S
C173 C171 1.408 . S
C173 C172 1.310 . S
C173 H193 0.930 . S
C174 C175 1.474 . S
C174 C176 1.285 . S
C174 H194 0.929 . S
C175 C172 1.461 . S
C175 C174 1.474 . S
C176 C171 1.342 . S
C176 C174 1.285 . S
C176 H195 0.930 . S
C177 C180 1.424 . S
C177 C182 1.245 . S
C177 C183 1.428 . S
C178 C181 1.260 . S
C178 C182 1.477 . S
C178 H196 0.932 . S
C179 C180 1.384 . S
C179 C181 1.479 . S
C179 H197 0.929 . S
C180 C177 1.424 . S
C180 C179 1.384 . S
C180 H198 0.928 . S
C181 C178 1.260 . S
C181 C179 1.479 . S
C182 C177 1.245 . S
C182 C178 1.477 . S
C182 H199 0.932 . S
C183 U166 2.882 . S
C183 C177 1.428 . S
C183 O186 1.301 . S
C183 O187 1.282 . S
O184 U166 2.441 . S
O184 C170 1.249 . S
O185 U166 2.420 . S
O185 C170 1.202 . S
O186 U166 2.455 . S
O186 C183 1.301 . S
O187 U166 2.449 . S
O187 C183 1.282 . S
H188 C161 0.931 . S
H189 C163 0.929 . S
H190 C164 0.930 . S
H191 C165 0.931 . S
H192 C172 0.932 . S
H193 C173 0.930 . S
H194 C174 0.929 . S
H195 C176 0.930 . S
H196 C178 0.932 . S
H197 C179 0.929 . S
H198 C180 0.928 . S
H199 C182 0.932 . S
C200 C201 1.264 . S
C200 C205 1.479 . S
C200 C210 1.465 . S
C201 C200 1.264 . S
C201 C203 1.339 . S
C201 H228 0.931 . S
C202 C203 1.395 . S
C202 C204 1.320 . S
C203 C201 1.339 . S
C203 C202 1.395 . S
C203 H229 0.929 . S
C204 C202 1.320 . S
C204 C205 1.405 . S
C204 H230 0.930 . S
C205 C200 1.479 . S
C205 C204 1.405 . S
C205 H231 0.931 . S
U206 O207 2.454 . S
U206 O208 2.458 . S
U206 C209 2.984 . S
U206 C210 2.847 . S
U206 C223 2.882 . S
U206 O224 2.441 . S
U206 O225 2.420 . S
U206 O226 2.455 . S
U206 O227 2.449 . S
O207 U206 2.454 . S
O207 C209 1.353 . S
O208 U206 2.458 . S
O208 C209 1.286 . S
C209 U206 2.984 . S
C209 O207 1.353 . S
C209 O208 1.286 . S
C209 C211 1.363 . S
C210 C200 1.465 . S
C210 U206 2.847 . S
C210 O224 1.249 . S
C210 O225 1.202 . S
C211 C209 1.363 . S
C211 C213 1.408 . S
C211 C216 1.342 . S
C212 C213 1.310 . S
C212 C215 1.461 . S
C212 H232 0.932 . S
C213 C211 1.408 . S
C213 C212 1.310 . S
C213 H233 0.930 . S
C214 C215 1.474 . S
C214 C216 1.285 . S
C214 H234 0.929 . S
C215 C212 1.461 . S
C215 C214 1.474 . S
C216 C211 1.342 . S
C216 C214 1.285 . S
C216 H235 0.930 . S
C217 C220 1.424 . S
C217 C222 1.245 . S
C217 C223 1.428 . S
C218 C221 1.260 . S
C218 C222 1.477 . S
C218 H236 0.932 . S
C219 C220 1.384 . S
C219 C221 1.479 . S
C219 H237 0.929 . S
C220 C217 1.424 . S
C220 C219 1.384 . S
C220 H238 0.928 . S
C221 C218 1.260 . S
C221 C219 1.479 . S
C222 C217 1.245 . S
C222 C218 1.477 . S
C222 H239 0.932 . S
C223 U206 2.882 . S
C223 C217 1.428 . S
C223 O226 1.301 . S
C223 O227 1.282 . S
O224 U206 2.441 . S
O224 C210 1.249 . S
O225 U206 2.420 . S
O225 C210 1.202 . S
O226 U206 2.455 . S
O226 C223 1.301 . S
O227 U206 2.449 . S
O227 C223 1.282 . S
H228 C201 0.931 . S
H229 C203 0.929 . S
H230 C204 0.930 . S
H231 C205 0.931 . S
H232 C212 0.932 . S
H233 C213 0.930 . S
H234 C214 0.929 . S
H235 C216 0.930 . S
H236 C218 0.932 . S
H237 C219 0.929 . S
H238 C220 0.928 . S
H239 C222 0.932 . S
C240 C241 1.264 . S
C240 C245 1.479 . S
C240 C250 1.465 . S
C241 C240 1.264 . S
C241 C243 1.339 . S
C241 H268 0.931 . S
C242 C243 1.395 . S
C242 C244 1.320 . S
C243 C241 1.339 . S
C243 C242 1.395 . S
C243 H269 0.929 . S
C244 C242 1.320 . S
C244 C245 1.405 . S
C244 H270 0.930 . S
C245 C240 1.479 . S
C245 C244 1.405 . S
C245 H271 0.931 . S
U246 O247 2.454 . S
U246 O248 2.458 . S
U246 C249 2.984 . S
U246 C250 2.847 . S
U246 C263 2.882 . S
U246 O264 2.441 . S
U246 O265 2.420 . S
U246 O266 2.455 . S
U246 O267 2.449 . S
O247 U246 2.454 . S
O247 C249 1.353 . S
O248 U246 2.458 . S
O248 C249 1.286 . S
C249 U246 2.984 . S
C249 O247 1.353 . S
C249 O248 1.286 . S
C249 C251 1.363 . S
C250 C240 1.465 . S
C250 U246 2.847 . S
C250 O264 1.249 . S
C250 O265 1.202 . S
C251 C249 1.363 . S
C251 C253 1.408 . S
C251 C256 1.342 . S
C252 C253 1.310 . S
C252 C255 1.461 . S
C252 H272 0.932 . S
C253 C251 1.408 . S
C253 C252 1.310 . S
C253 H273 0.930 . S
C254 C255 1.474 . S
C254 C256 1.285 . S
C254 H274 0.929 . S
C255 C252 1.461 . S
C255 C254 1.474 . S
C256 C251 1.342 . S
C256 C254 1.285 . S
C256 H275 0.930 . S
C257 C260 1.424 . S
C257 C262 1.245 . S
C257 C263 1.428 . S
C258 C261 1.260 . S
C258 C262 1.477 . S
C258 H276 0.932 . S
C259 C260 1.384 . S
C259 C261 1.479 . S
C259 H277 0.929 . S
C260 C257 1.424 . S
C260 C259 1.384 . S
C260 H278 0.928 . S
C261 C258 1.260 . S
C261 C259 1.479 . S
C262 C257 1.245 . S
C262 C258 1.477 . S
C262 H279 0.932 . S
C263 U246 2.882 . S
C263 C257 1.428 . S
C263 O266 1.301 . S
C263 O267 1.282 . S
O264 U246 2.441 . S
O264 C250 1.249 . S
O265 U246 2.420 . S
O265 C250 1.202 . S
O266 U246 2.455 . S
O266 C263 1.301 . S
O267 U246 2.449 . S
O267 C263 1.282 . S
H268 C241 0.931 . S
H269 C243 0.929 . S
H270 C244 0.930 . S
H271 C245 0.931 . S
H272 C252 0.932 . S
H273 C253 0.930 . S
H274 C254 0.929 . S
H275 C256 0.930 . S
H276 C258 0.932 . S
H277 C259 0.929 . S
H278 C260 0.928 . S
H279 C262 0.932 . S
C280 C281 1.264 . S
C280 C285 1.479 . S
C280 C290 1.465 . S
C281 C280 1.264 . S
C281 C283 1.339 . S
C281 H308 0.931 . S
C282 C283 1.395 . S
C282 C284 1.320 . S
C283 C281 1.339 . S
C283 C282 1.395 . S
C283 H309 0.929 . S
C284 C282 1.320 . S
C284 C285 1.405 . S
C284 H310 0.930 . S
C285 C280 1.479 . S
C285 C284 1.405 . S
C285 H311 0.931 . S
U286 O287 2.454 . S
U286 O288 2.458 . S
U286 C289 2.984 . S
U286 C290 2.847 . S
U286 C303 2.882 . S
U286 O304 2.441 . S
U286 O305 2.420 . S
U286 O306 2.455 . S
U286 O307 2.449 . S
O287 U286 2.454 . S
O287 C289 1.353 . S
O288 U286 2.458 . S
O288 C289 1.286 . S
C289 U286 2.984 . S
C289 O287 1.353 . S
C289 O288 1.286 . S
C289 C291 1.363 . S
C290 C280 1.465 . S
C290 U286 2.847 . S
C290 O304 1.249 . S
C290 O305 1.202 . S
C291 C289 1.363 . S
C291 C293 1.408 . S
C291 C296 1.342 . S
C292 C293 1.310 . S
C292 C295 1.461 . S
C292 H312 0.932 . S
C293 C291 1.408 . S
C293 C292 1.310 . S
C293 H313 0.930 . S
C294 C295 1.474 . S
C294 C296 1.285 . S
C294 H314 0.929 . S
C295 C292 1.461 . S
C295 C294 1.474 . S
C296 C291 1.342 . S
C296 C294 1.285 . S
C296 H315 0.930 . S
C297 C300 1.424 . S
C297 C302 1.245 . S
C297 C303 1.428 . S
C298 C301 1.260 . S
C298 C302 1.477 . S
C298 H316 0.932 . S
C299 C300 1.384 . S
C299 C301 1.479 . S
C299 H317 0.929 . S
C300 C297 1.424 . S
C300 C299 1.384 . S
C300 H318 0.928 . S
C301 C298 1.260 . S
C301 C299 1.479 . S
C302 C297 1.245 . S
C302 C298 1.477 . S
C302 H319 0.932 . S
C303 U286 2.882 . S
C303 C297 1.428 . S
C303 O306 1.301 . S
C303 O307 1.282 . S
O304 U286 2.441 . S
O304 C290 1.249 . S
O305 U286 2.420 . S
O305 C290 1.202 . S
O306 U286 2.455 . S
O306 C303 1.301 . S
O307 U286 2.449 . S
O307 C303 1.282 . S
H308 C281 0.931 . S
H309 C283 0.929 . S
H310 C284 0.930 . S
H311 C285 0.931 . S
H312 C292 0.932 . S
H313 C293 0.930 . S
H314 C294 0.929 . S
H315 C296 0.930 . S
H316 C298 0.932 . S
H317 C299 0.929 . S
H318 C300 0.928 . S
H319 C302 0.932 . S
C320 C321 1.264 . S
C320 C325 1.479 . S
C320 C330 1.465 . S
C321 C320 1.264 . S
C321 C323 1.339 . S
C321 H348 0.931 . S
C322 C323 1.395 . S
C322 C324 1.320 . S
C323 C321 1.339 . S
C323 C322 1.395 . S
C323 H349 0.929 . S
C324 C322 1.320 . S
C324 C325 1.405 . S
C324 H350 0.930 . S
C325 C320 1.479 . S
C325 C324 1.405 . S
C325 H351 0.931 . S
U326 O327 2.454 . S
U326 O328 2.458 . S
U326 C329 2.984 . S
U326 C330 2.847 . S
U326 C343 2.882 . S
U326 O344 2.441 . S
U326 O345 2.420 . S
U326 O346 2.455 . S
U326 O347 2.449 . S
O327 U326 2.454 . S
O327 C329 1.353 . S
O328 U326 2.458 . S
O328 C329 1.286 . S
C329 U326 2.984 . S
C329 O327 1.353 . S
C329 O328 1.286 . S
C329 C331 1.363 . S
C330 C320 1.465 . S
C330 U326 2.847 . S
C330 O344 1.249 . S
C330 O345 1.202 . S
C331 C329 1.363 . S
C331 C333 1.408 . S
C331 C336 1.342 . S
C332 C333 1.310 . S
C332 C335 1.461 . S
C332 H352 0.932 . S
C333 C331 1.408 . S
C333 C332 1.310 . S
C333 H353 0.930 . S
C334 C335 1.474 . S
C334 C336 1.285 . S
C334 H354 0.929 . S
C335 C332 1.461 . S
C335 C334 1.474 . S
C336 C331 1.342 . S
C336 C334 1.285 . S
C336 H355 0.930 . S
C337 C340 1.424 . S
C337 C342 1.245 . S
C337 C343 1.428 . S
C338 C341 1.260 . S
C338 C342 1.477 . S
C338 H356 0.932 . S
C339 C340 1.384 . S
C339 C341 1.479 . S
C339 H357 0.929 . S
C340 C337 1.424 . S
C340 C339 1.384 . S
C340 H358 0.928 . S
C341 C338 1.260 . S
C341 C339 1.479 . S
C342 C337 1.245 . S
C342 C338 1.477 . S
C342 H359 0.932 . S
C343 U326 2.882 . S
C343 C337 1.428 . S
C343 O346 1.301 . S
C343 O347 1.282 . S
O344 U326 2.441 . S
O344 C330 1.249 . S
O345 U326 2.420 . S
O345 C330 1.202 . S
O346 U326 2.455 . S
O346 C343 1.301 . S
O347 U326 2.449 . S
O347 C343 1.282 . S
H348 C321 0.931 . S
H349 C323 0.929 . S
H350 C324 0.930 . S
H351 C325 0.931 . S
H352 C332 0.932 . S
H353 C333 0.930 . S
H354 C334 0.929 . S
H355 C336 0.930 . S
H356 C338 0.932 . S
H357 C339 0.929 . S
H358 C340 0.928 . S
H359 C342 0.932 . S
C360 C361 1.264 . S
C360 C365 1.479 . S
C360 C370 1.465 . S
C361 C360 1.264 . S
C361 C363 1.339 . S
C361 H388 0.931 . S
C362 C363 1.395 . S
C362 C364 1.320 . S
C363 C361 1.339 . S
C363 C362 1.395 . S
C363 H389 0.929 . S
C364 C362 1.320 . S
C364 C365 1.405 . S
C364 H390 0.930 . S
C365 C360 1.479 . S
C365 C364 1.405 . S
C365 H391 0.931 . S
U366 O367 2.454 . S
U366 O368 2.458 . S
U366 C369 2.984 . S
U366 C370 2.847 . S
U366 C383 2.882 . S
U366 O384 2.441 . S
U366 O385 2.420 . S
U366 O386 2.455 . S
U366 O387 2.449 . S
O367 U366 2.454 . S
O367 C369 1.353 . S
O368 U366 2.458 . S
O368 C369 1.286 . S
C369 U366 2.984 . S
C369 O367 1.353 . S
C369 O368 1.286 . S
C369 C371 1.363 . S
C370 C360 1.465 . S
C370 U366 2.847 . S
C370 O384 1.249 . S
C370 O385 1.202 . S
C371 C369 1.363 . S
C371 C373 1.408 . S
C371 C376 1.342 . S
C372 C373 1.310 . S
C372 C375 1.461 . S
C372 H392 0.932 . S
C373 C371 1.408 . S
C373 C372 1.310 . S
C373 H393 0.930 . S
C374 C375 1.474 . S
C374 C376 1.285 . S
C374 H394 0.929 . S
C375 C372 1.461 . S
C375 C374 1.474 . S
C376 C371 1.342 . S
C376 C374 1.285 . S
C376 H395 0.930 . S
C377 C380 1.424 . S
C377 C382 1.245 . S
C377 C383 1.428 . S
C378 C381 1.260 . S
C378 C382 1.477 . S
C378 H396 0.932 . S
C379 C380 1.384 . S
C379 C381 1.479 . S
C379 H397 0.929 . S
C380 C377 1.424 . S
C380 C379 1.384 . S
C380 H398 0.928 . S
C381 C378 1.260 . S
C381 C379 1.479 . S
C382 C377 1.245 . S
C382 C378 1.477 . S
C382 H399 0.932 . S
C383 U366 2.882 . S
C383 C377 1.428 . S
C383 O386 1.301 . S
C383 O387 1.282 . S
O384 U366 2.441 . S
O384 C370 1.249 . S
O385 U366 2.420 . S
O385 C370 1.202 . S
O386 U366 2.455 . S
O386 C383 1.301 . S
O387 U366 2.449 . S
O387 C383 1.282 . S
H388 C361 0.931 . S
H389 C363 0.929 . S
H390 C364 0.930 . S
H391 C365 0.931 . S
H392 C372 0.932 . S
H393 C373 0.930 . S
H394 C374 0.929 . S
H395 C376 0.930 . S
H396 C378 0.932 . S
H397 C379 0.929 . S
H398 C380 0.928 . S
H399 C382 0.932 . S
C400 C401 1.264 . S
C400 C405 1.479 . S
C400 C410 1.465 . S
C401 C400 1.264 . S
C401 C403 1.339 . S
C401 H428 0.931 . S
C402 C403 1.395 . S
C402 C404 1.320 . S
C403 C401 1.339 . S
C403 C402 1.395 . S
C403 H429 0.929 . S
C404 C402 1.320 . S
C404 C405 1.405 . S
C404 H430 0.930 . S
C405 C400 1.479 . S
C405 C404 1.405 . S
C405 H431 0.931 . S
U406 O407 2.454 . S
U406 O408 2.458 . S
U406 C409 2.984 . S
U406 C410 2.847 . S
U406 C423 2.882 . S
U406 O424 2.441 . S
U406 O425 2.420 . S
U406 O426 2.455 . S
U406 O427 2.449 . S
O407 U406 2.454 . S
O407 C409 1.353 . S
O408 U406 2.458 . S
O408 C409 1.286 . S
C409 U406 2.984 . S
C409 O407 1.353 . S
C409 O408 1.286 . S
C409 C411 1.363 . S
C410 C400 1.465 . S
C410 U406 2.847 . S
C410 O424 1.249 . S
C410 O425 1.202 . S
C411 C409 1.363 . S
C411 C413 1.408 . S
C411 C416 1.342 . S
C412 C413 1.310 . S
C412 C415 1.461 . S
C412 H432 0.932 . S
C413 C411 1.408 . S
C413 C412 1.310 . S
C413 H433 0.930 . S
C414 C415 1.474 . S
C414 C416 1.285 . S
C414 H434 0.929 . S
C415 C412 1.461 . S
C415 C414 1.474 . S
C416 C411 1.342 . S
C416 C414 1.285 . S
C416 H435 0.930 . S
C417 C420 1.424 . S
C417 C422 1.245 . S
C417 C423 1.428 . S
C418 C421 1.260 . S
C418 C422 1.477 . S
C418 H436 0.932 . S
C419 C420 1.384 . S
C419 C421 1.479 . S
C419 H437 0.929 . S
C420 C417 1.424 . S
C420 C419 1.384 . S
C420 H438 0.928 . S
C421 C418 1.260 . S
C421 C419 1.479 . S
C422 C417 1.245 . S
C422 C418 1.477 . S
C422 H439 0.932 . S
C423 U406 2.882 . S
C423 C417 1.428 . S
C423 O426 1.301 . S
C423 O427 1.282 . S
O424 U406 2.441 . S
O424 C410 1.249 . S
O425 U406 2.420 . S
O425 C410 1.202 . S
O426 U406 2.455 . S
O426 C423 1.301 . S
O427 U406 2.449 . S
O427 C423 1.282 . S
H428 C401 0.931 . S
H429 C403 0.929 . S
H430 C404 0.930 . S
H431 C405 0.931 . S
H432 C412 0.932 . S
H433 C413 0.930 . S
H434 C414 0.929 . S
H435 C416 0.930 . S
H436 C418 0.932 . S
H437 C419 0.929 . S
H438 C420 0.928 . S
H439 C422 0.932 . S
C440 C441 1.264 . S
C440 C445 1.479 . S
C440 C450 1.465 . S
C441 C440 1.264 . S
C441 C443 1.339 . S
C441 H468 0.931 . S
C442 C443 1.395 . S
C442 C444 1.320 . S
C443 C441 1.339 . S
C443 C442 1.395 . S
C443 H469 0.929 . S
C444 C442 1.320 . S
C444 C445 1.405 . S
C444 H470 0.930 . S
C445 C440 1.479 . S
C445 C444 1.405 . S
C445 H471 0.931 . S
U446 O447 2.454 . S
U446 O448 2.458 . S
U446 C449 2.984 . S
U446 C450 2.847 . S
U446 C463 2.882 . S
U446 O464 2.441 . S
U446 O465 2.420 . S
U446 O466 2.455 . S
U446 O467 2.449 . S
O447 U446 2.454 . S
O447 C449 1.353 . S
O448 U446 2.458 . S
O448 C449 1.286 . S
C449 U446 2.984 . S
C449 O447 1.353 . S
C449 O448 1.286 . S
C449 C451 1.363 . S
C450 C440 1.465 . S
C450 U446 2.847 . S
C450 O464 1.249 . S
C450 O465 1.202 . S
C451 C449 1.363 . S
C451 C453 1.408 . S
C451 C456 1.342 . S
C452 C453 1.310 . S
C452 C455 1.461 . S
C452 H472 0.932 . S
C453 C451 1.408 . S
C453 C452 1.310 . S
C453 H473 0.930 . S
C454 C455 1.474 . S
C454 C456 1.285 . S
C454 H474 0.929 . S
C455 C452 1.461 . S
C455 C454 1.474 . S
C456 C451 1.342 . S
C456 C454 1.285 . S
C456 H475 0.930 . S
C457 C460 1.424 . S
C457 C462 1.245 . S
C457 C463 1.428 . S
C458 C461 1.260 . S
C458 C462 1.477 . S
C458 H476 0.932 . S
C459 C460 1.384 . S
C459 C461 1.479 . S
C459 H477 0.929 . S
C460 C457 1.424 . S
C460 C459 1.384 . S
C460 H478 0.928 . S
C461 C458 1.260 . S
C461 C459 1.479 . S
C462 C457 1.245 . S
C462 C458 1.477 . S
C462 H479 0.932 . S
C463 U446 2.882 . S
C463 C457 1.428 . S
C463 O466 1.301 . S
C463 O467 1.282 . S
O464 U446 2.441 . S
O464 C450 1.249 . S
O465 U446 2.420 . S
O465 C450 1.202 . S
O466 U446 2.455 . S
O466 C463 1.301 . S
O467 U446 2.449 . S
O467 C463 1.282 . S
H468 C441 0.931 . S
H469 C443 0.929 . S
H470 C444 0.930 . S
H471 C445 0.931 . S
H472 C452 0.932 . S
H473 C453 0.930 . S
H474 C454 0.929 . S
H475 C456 0.930 . S
H476 C458 0.932 . S
H477 C459 0.929 . S
H478 C460 0.928 . S
H479 C462 0.932 . S
C480 C481 1.264 . S
C480 C485 1.479 . S
C480 C490 1.465 . S
C481 C480 1.264 . S
C481 C483 1.339 . S
C481 H508 0.931 . S
C482 C483 1.395 . S
C482 C484 1.320 . S
C483 C481 1.339 . S
C483 C482 1.395 . S
C483 H509 0.929 . S
C484 C482 1.320 . S
C484 C485 1.405 . S
C484 H510 0.930 . S
C485 C480 1.479 . S
C485 C484 1.405 . S
C485 H511 0.931 . S
U486 O487 2.454 . S
U486 O488 2.458 . S
U486 C489 2.984 . S
U486 C490 2.847 . S
U486 C503 2.882 . S
U486 O504 2.441 . S
U486 O505 2.420 . S
U486 O506 2.455 . S
U486 O507 2.449 . S
O487 U486 2.454 . S
O487 C489 1.353 . S
O488 U486 2.458 . S
O488 C489 1.286 . S
C489 U486 2.984 . S
C489 O487 1.353 . S
C489 O488 1.286 . S
C489 C491 1.363 . S
C490 C480 1.465 . S
C490 U486 2.847 . S
C490 O504 1.249 . S
C490 O505 1.202 . S
C491 C489 1.363 . S
C491 C493 1.408 . S
C491 C496 1.342 . S
C492 C493 1.310 . S
C492 C495 1.461 . S
C492 H512 0.932 . S
C493 C491 1.408 . S
C493 C492 1.310 . S
C493 H513 0.930 . S
C494 C495 1.474 . S
C494 C496 1.285 . S
C494 H514 0.929 . S
C495 C492 1.461 . S
C495 C494 1.474 . S
C496 C491 1.342 . S
C496 C494 1.285 . S
C496 H515 0.930 . S
C497 C500 1.424 . S
C497 C502 1.245 . S
C497 C503 1.428 . S
C498 C501 1.260 . S
C498 C502 1.477 . S
C498 H516 0.932 . S
C499 C500 1.384 . S
C499 C501 1.479 . S
C499 H517 0.929 . S
C500 C497 1.424 . S
C500 C499 1.384 . S
C500 H518 0.928 . S
C501 C498 1.260 . S
C501 C499 1.479 . S
C502 C497 1.245 . S
C502 C498 1.477 . S
C502 H519 0.932 . S
C503 U486 2.882 . S
C503 C497 1.428 . S
C503 O506 1.301 . S
C503 O507 1.282 . S
O504 U486 2.441 . S
O504 C490 1.249 . S
O505 U486 2.420 . S
O505 C490 1.202 . S
O506 U486 2.455 . S
O506 C503 1.301 . S
O507 U486 2.449 . S
O507 C503 1.282 . S
H508 C481 0.931 . S
H509 C483 0.929 . S
H510 C484 0.930 . S
H511 C485 0.931 . S
H512 C492 0.932 . S
H513 C493 0.930 . S
H514 C494 0.929 . S
H515 C496 0.930 . S
H516 C498 0.932 . S
H517 C499 0.929 . S
H518 C500 0.928 . S
H519 C502 0.932 . S
C520 C521 1.264 . S
C520 C525 1.479 . S
C520 C530 1.465 . S
C521 C520 1.264 . S
C521 C523 1.339 . S
C521 H548 0.931 . S
C522 C523 1.395 . S
C522 C524 1.320 . S
C523 C521 1.339 . S
C523 C522 1.395 . S
C523 H549 0.929 . S
C524 C522 1.320 . S
C524 C525 1.405 . S
C524 H550 0.930 . S
C525 C520 1.479 . S
C525 C524 1.405 . S
C525 H551 0.931 . S
U526 O527 2.454 . S
U526 O528 2.458 . S
U526 C529 2.984 . S
U526 C530 2.847 . S
U526 C543 2.882 . S
U526 O544 2.441 . S
U526 O545 2.420 . S
U526 O546 2.455 . S
U526 O547 2.449 . S
O527 U526 2.454 . S
O527 C529 1.353 . S
O528 U526 2.458 . S
O528 C529 1.286 . S
C529 U526 2.984 . S
C529 O527 1.353 . S
C529 O528 1.286 . S
C529 C531 1.363 . S
C530 C520 1.465 . S
C530 U526 2.847 . S
C530 O544 1.249 . S
C530 O545 1.202 . S
C531 C529 1.363 . S
C531 C533 1.408 . S
C531 C536 1.342 . S
C532 C533 1.310 . S
C532 C535 1.461 . S
C532 H552 0.932 . S
C533 C531 1.408 . S
C533 C532 1.310 . S
C533 H553 0.930 . S
C534 C535 1.474 . S
C534 C536 1.285 . S
C534 H554 0.929 . S
C535 C532 1.461 . S
C535 C534 1.474 . S
C536 C531 1.342 . S
C536 C534 1.285 . S
C536 H555 0.930 . S
C537 C540 1.424 . S
C537 C542 1.245 . S
C537 C543 1.428 . S
C538 C541 1.260 . S
C538 C542 1.477 . S
C538 H556 0.932 . S
C539 C540 1.384 . S
C539 C541 1.479 . S
C539 H557 0.929 . S
C540 C537 1.424 . S
C540 C539 1.384 . S
C540 H558 0.928 . S
C541 C538 1.260 . S
C541 C539 1.479 . S
C542 C537 1.245 . S
C542 C538 1.477 . S
C542 H559 0.932 . S
C543 U526 2.882 . S
C543 C537 1.428 . S
C543 O546 1.301 . S
C543 O547 1.282 . S
O544 U526 2.441 . S
O544 C530 1.249 . S
O545 U526 2.420 . S
O545 C530 1.202 . S
O546 U526 2.455 . S
O546 C543 1.301 . S
O547 U526 2.449 . S
O547 C543 1.282 . S
H548 C521 0.931 . S
H549 C523 0.929 . S
H550 C524 0.930 . S
H551 C525 0.931 . S
H552 C532 0.932 . S
H553 C533 0.930 . S
H554 C534 0.929 . S
H555 C536 0.930 . S
H556 C538 0.932 . S
H557 C539 0.929 . S
H558 C540 0.928 . S
H559 C542 0.932 . S
C560 C561 1.264 . S
C560 C565 1.479 . S
C560 C570 1.465 . S
C561 C560 1.264 . S
C561 C563 1.339 . S
C561 H588 0.931 . S
C562 C563 1.395 . S
C562 C564 1.320 . S
C563 C561 1.339 . S
C563 C562 1.395 . S
C563 H589 0.929 . S
C564 C562 1.320 . S
C564 C565 1.405 . S
C564 H590 0.930 . S
C565 C560 1.479 . S
C565 C564 1.405 . S
C565 H591 0.931 . S
U566 O567 2.454 . S
U566 O568 2.458 . S
U566 C569 2.984 . S
U566 C570 2.847 . S
U566 C583 2.882 . S
U566 O584 2.441 . S
U566 O585 2.420 . S
U566 O586 2.455 . S
U566 O587 2.449 . S
O567 U566 2.454 . S
O567 C569 1.353 . S
O568 U566 2.458 . S
O568 C569 1.286 . S
C569 U566 2.984 . S
C569 O567 1.353 . S
C569 O568 1.286 . S
C569 C571 1.363 . S
C570 C560 1.465 . S
C570 U566 2.847 . S
C570 O584 1.249 . S
C570 O585 1.202 . S
C571 C569 1.363 . S
C571 C573 1.408 . S
C571 C576 1.342 . S
C572 C573 1.310 . S
C572 C575 1.461 . S
C572 H592 0.932 . S
C573 C571 1.408 . S
C573 C572 1.310 . S
C573 H593 0.930 . S
C574 C575 1.474 . S
C574 C576 1.285 . S
C574 H594 0.929 . S
C575 C572 1.461 . S
C575 C574 1.474 . S
C576 C571 1.342 . S
C576 C574 1.285 . S
C576 H595 0.930 . S
C577 C580 1.424 . S
C577 C582 1.245 . S
C577 C583 1.428 . S
C578 C581 1.260 . S
C578 C582 1.477 . S
C578 H596 0.932 . S
C579 C580 1.384 . S
C579 C581 1.479 . S
C579 H597 0.929 . S
C580 C577 1.424 . S
C580 C579 1.384 . S
C580 H598 0.928 . S
C581 C578 1.260 . S
C581 C579 1.479 . S
C582 C577 1.245 . S
C582 C578 1.477 . S
C582 H599 0.932 . S
C583 U566 2.882 . S
C583 C577 1.428 . S
C583 O586 1.301 . S
C583 O587 1.282 . S
O584 U566 2.441 . S
O584 C570 1.249 . S
O585 U566 2.420 . S
O585 C570 1.202 . S
O586 U566 2.455 . S
O586 C583 1.301 . S
O587 U566 2.449 . S
O587 C583 1.282 . S
H588 C561 0.931 . S
H589 C563 0.929 . S
H590 C564 0.930 . S
H591 C565 0.931 . S
H592 C572 0.932 . S
H593 C573 0.930 . S
H594 C574 0.929 . S
H595 C576 0.930 . S
H596 C578 0.932 . S
H597 C579 0.929 . S
H598 C580 0.928 . S
H599 C582 0.932 . S
C600 C601 1.264 . S
C600 C605 1.479 . S
C600 C610 1.465 . S
C601 C600 1.264 . S
C601 C603 1.339 . S
C601 H628 0.931 . S
C602 C603 1.395 . S
C602 C604 1.320 . S
C603 C601 1.339 . S
C603 C602 1.395 . S
C603 H629 0.929 . S
C604 C602 1.320 . S
C604 C605 1.405 . S
C604 H630 0.930 . S
C605 C600 1.479 . S
C605 C604 1.405 . S
C605 H631 0.931 . S
U606 O607 2.454 . S
U606 O608 2.458 . S
U606 C609 2.984 . S
U606 C610 2.847 . S
U606 C623 2.882 . S
U606 O624 2.441 . S
U606 O625 2.420 . S
U606 O626 2.455 . S
U606 O627 2.449 . S
O607 U606 2.454 . S
O607 C609 1.353 . S
O608 U606 2.458 . S
O608 C609 1.286 . S
C609 U606 2.984 . S
C609 O607 1.353 . S
C609 O608 1.286 . S
C609 C611 1.363 . S
C610 C600 1.465 . S
C610 U606 2.847 . S
C610 O624 1.249 . S
C610 O625 1.202 . S
C611 C609 1.363 . S
C611 C613 1.408 . S
C611 C616 1.342 . S
C612 C613 1.310 . S
C612 C615 1.461 . S
C612 H632 0.932 . S
C613 C611 1.408 . S
C613 C612 1.310 . S
C613 H633 0.930 . S
C614 C615 1.474 . S
C614 C616 1.285 . S
C614 H634 0.929 . S
C615 C612 1.461 . S
C615 C614 1.474 . S
C616 C611 1.342 . S
C616 C614 1.285 . S
C616 H635 0.930 . S
C617 C620 1.424 . S
C617 C622 1.245 . S
C617 C623 1.428 . S
C618 C621 1.260 . S
C618 C622 1.477 . S
C618 H636 0.932 . S
C619 C620 1.384 . S
C619 C621 1.479 . S
C619 H637 0.929 . S
C620 C617 1.424 . S
C620 C619 1.384 . S
C620 H638 0.928 . S
C621 C618 1.260 . S
C621 C619 1.479 . S
C622 C617 1.245 . S
C622 C618 1.477 . S
C622 H639 0.932 . S
C623 U606 2.882 . S
C623 C617 1.428 . S
C623 O626 1.301 . S
C623 O627 1.282 . S
O624 U606 2.441 . S
O624 C610 1.249 . S
O625 U606 2.420 . S
O625 C610 1.202 . S
O626 U606 2.455 . S
O626 C623 1.301 . S
O627 U606 2.449 . S
O627 C623 1.282 . S
H628 C601 0.931 . S
H629 C603 0.929 . S
H630 C604 0.930 . S
H631 C605 0.931 . S
H632 C612 0.932 . S
H633 C613 0.930 . S
H634 C614 0.929 . S
H635 C616 0.930 . S
H636 C618 0.932 . S
H637 C619 0.929 . S
H638 C620 0.928 . S
H639 C622 0.932 . S
C640 C641 1.264 . S
C640 C645 1.479 . S
C640 C650 1.465 . S
C641 C640 1.264 . S
C641 C643 1.339 . S
C641 H668 0.931 . S
C642 C643 1.395 . S
C642 C644 1.320 . S
C643 C641 1.339 . S
C643 C642 1.395 . S
C643 H669 0.929 . S
C644 C642 1.320 . S
C644 C645 1.405 . S
C644 H670 0.930 . S
C645 C640 1.479 . S
C645 C644 1.405 . S
C645 H671 0.931 . S
U646 O647 2.454 . S
U646 O648 2.458 . S
U646 C649 2.984 . S
U646 C650 2.847 . S
U646 C663 2.882 . S
U646 O664 2.441 . S
U646 O665 2.420 . S
U646 O666 2.455 . S
U646 O667 2.449 . S
O647 U646 2.454 . S
O647 C649 1.353 . S
O648 U646 2.458 . S
O648 C649 1.286 . S
C649 U646 2.984 . S
C649 O647 1.353 . S
C649 O648 1.286 . S
C649 C651 1.363 . S
C650 C640 1.465 . S
C650 U646 2.847 . S
C650 O664 1.249 . S
C650 O665 1.202 . S
C651 C649 1.363 . S
C651 C653 1.408 . S
C651 C656 1.342 . S
C652 C653 1.310 . S
C652 C655 1.461 . S
C652 H672 0.932 . S
C653 C651 1.408 . S
C653 C652 1.310 . S
C653 H673 0.930 . S
C654 C655 1.474 . S
C654 C656 1.285 . S
C654 H674 0.929 . S
C655 C652 1.461 . S
C655 C654 1.474 . S
C656 C651 1.342 . S
C656 C654 1.285 . S
C656 H675 0.930 . S
C657 C660 1.424 . S
C657 C662 1.245 . S
C657 C663 1.428 . S
C658 C661 1.260 . S
C658 C662 1.477 . S
C658 H676 0.932 . S
C659 C660 1.384 . S
C659 C661 1.479 . S
C659 H677 0.929 . S
C660 C657 1.424 . S
C660 C659 1.384 . S
C660 H678 0.928 . S
C661 C658 1.260 . S
C661 C659 1.479 . S
C662 C657 1.245 . S
C662 C658 1.477 . S
C662 H679 0.932 . S
C663 U646 2.882 . S
C663 C657 1.428 . S
C663 O666 1.301 . S
C663 O667 1.282 . S
O664 U646 2.441 . S
O664 C650 1.249 . S
O665 U646 2.420 . S
O665 C650 1.202 . S
O666 U646 2.455 . S
O666 C663 1.301 . S
O667 U646 2.449 . S
O667 C663 1.282 . S
H668 C641 0.931 . S
H669 C643 0.929 . S
H670 C644 0.930 . S
H671 C645 0.931 . S
H672 C652 0.932 . S
H673 C653 0.930 . S
H674 C654 0.929 . S
H675 C656 0.930 . S
H676 C658 0.932 . S
H677 C659 0.929 . S
H678 C660 0.928 . S
H679 C662 0.932 . S
C680 C681 1.264 . S
C680 C685 1.479 . S
C680 C690 1.465 . S
C681 C680 1.264 . S
C681 C683 1.339 . S
C681 H708 0.931 . S
C682 C683 1.395 . S
C682 C684 1.320 . S
C683 C681 1.339 . S
C683 C682 1.395 . S
C683 H709 0.929 . S
C684 C682 1.320 . S
C684 C685 1.405 . S
C684 H710 0.930 . S
C685 C680 1.479 . S
C685 C684 1.405 . S
C685 H711 0.931 . S
U686 O687 2.454 . S
U686 O688 2.458 . S
U686 C689 2.984 . S
U686 C690 2.847 . S
U686 C703 2.882 . S
U686 O704 2.441 . S
U686 O705 2.420 . S
U686 O706 2.455 . S
U686 O707 2.449 . S
O687 U686 2.454 . S
O687 C689 1.353 . S
O688 U686 2.458 . S
O688 C689 1.286 . S
C689 U686 2.984 . S
C689 O687 1.353 . S
C689 O688 1.286 . S
C689 C691 1.363 . S
C690 C680 1.465 . S
C690 U686 2.847 . S
C690 O704 1.249 . S
C690 O705 1.202 . S
C691 C689 1.363 . S
C691 C693 1.408 . S
C691 C696 1.342 . S
C692 C693 1.310 . S
C692 C695 1.461 . S
C692 H712 0.932 . S
C693 C691 1.408 . S
C693 C692 1.310 . S
C693 H713 0.930 . S
C694 C695 1.474 . S
C694 C696 1.285 . S
C694 H714 0.929 . S
C695 C692 1.461 . S
C695 C694 1.474 . S
C696 C691 1.342 . S
C696 C694 1.285 . S
C696 H715 0.930 . S
C697 C700 1.424 . S
C697 C702 1.245 . S
C697 C703 1.428 . S
C698 C701 1.260 . S
C698 C702 1.477 . S
C698 H716 0.932 . S
C699 C700 1.384 . S
C699 C701 1.479 . S
C699 H717 0.929 . S
C700 C697 1.424 . S
C700 C699 1.384 . S
C700 H718 0.928 . S
C701 C698 1.260 . S
C701 C699 1.479 . S
C702 C697 1.245 . S
C702 C698 1.477 . S
C702 H719 0.932 . S
C703 U686 2.882 . S
C703 C697 1.428 . S
C703 O706 1.301 . S
C703 O707 1.282 . S
O704 U686 2.441 . S
O704 C690 1.249 . S
O705 U686 2.420 . S
O705 C690 1.202 . S
O706 U686 2.455 . S
O706 C703 1.301 . S
O707 U686 2.449 . S
O707 C703 1.282 . S
H708 C681 0.931 . S
H709 C683 0.929 . S
H710 C684 0.930 . S
H711 C685 0.931 . S
H712 C692 0.932 . S
H713 C693 0.930 . S
H714 C694 0.929 . S
H715 C696 0.930 . S
H716 C698 0.932 . S
H717 C699 0.929 . S
H718 C700 0.928 . S
H719 C702 0.932 . S
C720 C721 1.264 . S
C720 C725 1.479 . S
C720 C730 1.465 . S
C721 C720 1.264 . S
C721 C723 1.339 . S
C721 H748 0.931 . S
C722 C723 1.395 . S
C722 C724 1.320 . S
C723 C721 1.339 . S
C723 C722 1.395 . S
C723 H749 0.929 . S
C724 C722 1.320 . S
C724 C725 1.405 . S
C724 H750 0.930 . S
C725 C720 1.479 . S
C725 C724 1.405 . S
C725 H751 0.931 . S
U726 O727 2.454 . S
U726 O728 2.458 . S
U726 C729 2.984 . S
U726 C730 2.847 . S
U726 C743 2.882 . S
U726 O744 2.441 . S
U726 O745 2.420 . S
U726 O746 2.455 . S
U726 O747 2.449 . S
O727 U726 2.454 . S
O727 C729 1.353 . S
O728 U726 2.458 . S
O728 C729 1.286 . S
C729 U726 2.984 . S
C729 O727 1.353 . S
C729 O728 1.286 . S
C729 C731 1.363 . S
C730 C720 1.465 . S
C730 U726 2.847 . S
C730 O744 1.249 . S
C730 O745 1.202 . S
C731 C729 1.363 . S
C731 C733 1.408 . S
C731 C736 1.342 . S
C732 C733 1.310 . S
C732 C735 1.461 . S
C732 H752 0.932 . S
C733 C731 1.408 . S
C733 C732 1.310 . S
C733 H753 0.930 . S
C734 C735 1.474 . S
C734 C736 1.285 . S
C734 H754 0.929 . S
C735 C732 1.461 . S
C735 C734 1.474 . S
C736 C731 1.342 . S
C736 C734 1.285 . S
C736 H755 0.930 . S
C737 C740 1.424 . S
C737 C742 1.245 . S
C737 C743 1.428 . S
C738 C741 1.260 . S
C738 C742 1.477 . S
C738 H756 0.932 . S
C739 C740 1.384 . S
C739 C741 1.479 . S
C739 H757 0.929 . S
C740 C737 1.424 . S
C740 C739 1.384 . S
C740 H758 0.928 . S
C741 C738 1.260 . S
C741 C739 1.479 . S
C742 C737 1.245 . S
C742 C738 1.477 . S
C742 H759 0.932 . S
C743 U726 2.882 . S
C743 C737 1.428 . S
C743 O746 1.301 . S
C743 O747 1.282 . S
O744 U726 2.441 . S
O744 C730 1.249 . S
O745 U726 2.420 . S
O745 C730 1.202 . S
O746 U726 2.455 . S
O746 C743 1.301 . S
O747 U726 2.449 . S
O747 C743 1.282 . S
H748 C721 0.931 . S
H749 C723 0.929 . S
H750 C724 0.930 . S
H751 C725 0.931 . S
H752 C732 0.932 . S
H753 C733 0.930 . S
H754 C734 0.929 . S
H755 C736 0.930 . S
H756 C738 0.932 . S
H757 C739 0.929 . S
H758 C740 0.928 . S
H759 C742 0.932 . S
C760 C761 1.264 . S
C760 C765 1.479 . S
C760 C770 1.465 . S
C761 C760 1.264 . S
C761 C763 1.339 . S
C761 H788 0.931 . S
C762 C763 1.395 . S
C762 C764 1.320 . S
C763 C761 1.339 . S
C763 C762 1.395 . S
C763 H789 0.929 . S
C764 C762 1.320 . S
C764 C765 1.405 . S
C764 H790 0.930 . S
C765 C760 1.479 . S
C765 C764 1.405 . S
C765 H791 0.931 . S
U766 O767 2.454 . S
U766 O768 2.458 . S
U766 C769 2.984 . S
U766 C770 2.847 . S
U766 C783 2.882 . S
U766 O784 2.441 . S
U766 O785 2.420 . S
U766 O786 2.455 . S
U766 O787 2.449 . S
O767 U766 2.454 . S
O767 C769 1.353 . S
O768 U766 2.458 . S
O768 C769 1.286 . S
C769 U766 2.984 . S
C769 O767 1.353 . S
C769 O768 1.286 . S
C769 C771 1.363 . S
C770 C760 1.465 . S
C770 U766 2.847 . S
C770 O784 1.249 . S
C770 O785 1.202 . S
C771 C769 1.363 . S
C771 C773 1.408 . S
C771 C776 1.342 . S
C772 C773 1.310 . S
C772 C775 1.461 . S
C772 H792 0.932 . S
C773 C771 1.408 . S
C773 C772 1.310 . S
C773 H793 0.930 . S
C774 C775 1.474 . S
C774 C776 1.285 . S
C774 H794 0.929 . S
C775 C772 1.461 . S
C775 C774 1.474 . S
C776 C771 1.342 . S
C776 C774 1.285 . S
C776 H795 0.930 . S
C777 C780 1.424 . S
C777 C782 1.245 . S
C777 C783 1.428 . S
C778 C781 1.260 . S
C778 C782 1.477 . S
C778 H796 0.932 . S
C779 C780 1.384 . S
C779 C781 1.479 . S
C779 H797 0.929 . S
C780 C777 1.424 . S
C780 C779 1.384 . S
C780 H798 0.928 . S
C781 C778 1.260 . S
C781 C779 1.479 . S
C782 C777 1.245 . S
C782 C778 1.477 . S
C782 H799 0.932 . S
C783 U766 2.882 . S
C783 C777 1.428 . S
C783 O786 1.301 . S
C783 O787 1.282 . S
O784 U766 2.441 . S
O784 C770 1.249 . S
O785 U766 2.420 . S
O785 C770 1.202 . S
O786 U766 2.455 . S
O786 C783 1.301 . S
O787 U766 2.449 . S
O787 C783 1.282 . S
H788 C761 0.931 . S
H789 C763 0.929 . S
H790 C764 0.930 . S
H791 C765 0.931 . S
H792 C772 0.932 . S
H793 C773 0.930 . S
H794 C774 0.929 . S
H795 C776 0.930 . S
H796 C778 0.932 . S
H797 C779 0.929 . S
H798 C780 0.928 . S
H799 C782 0.932 . S
C800 C801 1.264 . S
C800 C805 1.479 . S
C800 C810 1.465 . S
C801 C800 1.264 . S
C801 C803 1.339 . S
C801 H828 0.931 . S
C802 C803 1.395 . S
C802 C804 1.320 . S
C803 C801 1.339 . S
C803 C802 1.395 . S
C803 H829 0.929 . S
C804 C802 1.320 . S
C804 C805 1.405 . S
C804 H830 0.930 . S
C805 C800 1.479 . S
C805 C804 1.405 . S
C805 H831 0.931 . S
U806 O807 2.454 . S
U806 O808 2.458 . S
U806 C809 2.984 . S
U806 C810 2.847 . S
U806 C823 2.882 . S
U806 O824 2.441 . S
U806 O825 2.420 . S
U806 O826 2.455 . S
U806 O827 2.449 . S
O807 U806 2.454 . S
O807 C809 1.353 . S
O808 U806 2.458 . S
O808 C809 1.286 . S
C809 U806 2.984 . S
C809 O807 1.353 . S
C809 O808 1.286 . S
C809 C811 1.363 . S
C810 C800 1.465 . S
C810 U806 2.847 . S
C810 O824 1.249 . S
C810 O825 1.202 . S
C811 C809 1.363 . S
C811 C813 1.408 . S
C811 C816 1.342 . S
C812 C813 1.310 . S
C812 C815 1.461 . S
C812 H832 0.932 . S
C813 C811 1.408 . S
C813 C812 1.310 . S
C813 H833 0.930 . S
C814 C815 1.474 . S
C814 C816 1.285 . S
C814 H834 0.929 . S
C815 C812 1.461 . S
C815 C814 1.474 . S
C816 C811 1.342 . S
C816 C814 1.285 . S
C816 H835 0.930 . S
C817 C820 1.424 . S
C817 C822 1.245 . S
C817 C823 1.428 . S
C818 C821 1.260 . S
C818 C822 1.477 . S
C818 H836 0.932 . S
C819 C820 1.384 . S
C819 C821 1.479 . S
C819 H837 0.929 . S
C820 C817 1.424 . S
C820 C819 1.384 . S
C820 H838 0.928 . S
C821 C818 1.260 . S
C821 C819 1.479 . S
C822 C817 1.245 . S
C822 C818 1.477 . S
C822 H839 0.932 . S
C823 U806 2.882 . S
C823 C817 1.428 . S
C823 O826 1.301 . S
C823 O827 1.282 . S
O824 U806 2.441 . S
O824 C810 1.249 . S
O825 U806 2.420 . S
O825 C810 1.202 . S
O826 U806 2.455 . S
O826 C823 1.301 . S
O827 U806 2.449 . S
O827 C823 1.282 . S
H828 C801 0.931 . S
H829 C803 0.929 . S
H830 C804 0.930 . S
H831 C805 0.931 . S
H832 C812 0.932 . S
H833 C813 0.930 . S
H834 C814 0.929 . S
H835 C816 0.930 . S
H836 C818 0.932 . S
H837 C819 0.929 . S
H838 C820 0.928 . S
H839 C822 0.932 . S
C840 C841 1.264 . S
C840 C845 1.479 . S
C840 C850 1.465 . S
C841 C840 1.264 . S
C841 C843 1.339 . S
C841 H868 0.931 . S
C842 C843 1.395 . S
C842 C844 1.320 . S
C843 C841 1.339 . S
C843 C842 1.395 . S
C843 H869 0.929 . S
C844 C842 1.320 . S
C844 C845 1.405 . S
C844 H870 0.930 . S
C845 C840 1.479 . S
C845 C844 1.405 . S
C845 H871 0.931 . S
U846 O847 2.454 . S
U846 O848 2.458 . S
U846 C849 2.984 . S
U846 C850 2.847 . S
U846 C863 2.882 . S
U846 O864 2.441 . S
U846 O865 2.420 . S
U846 O866 2.455 . S
U846 O867 2.449 . S
O847 U846 2.454 . S
O847 C849 1.353 . S
O848 U846 2.458 . S
O848 C849 1.286 . S
C849 U846 2.984 . S
C849 O847 1.353 . S
C849 O848 1.286 . S
C849 C851 1.363 . S
C850 C840 1.465 . S
C850 U846 2.847 . S
C850 O864 1.249 . S
C850 O865 1.202 . S
C851 C849 1.363 . S
C851 C853 1.408 . S
C851 C856 1.342 . S
C852 C853 1.310 . S
C852 C855 1.461 . S
C852 H872 0.932 . S
C853 C851 1.408 . S
C853 C852 1.310 . S
C853 H873 0.930 . S
C854 C855 1.474 . S
C854 C856 1.285 . S
C854 H874 0.929 . S
C855 C852 1.461 . S
C855 C854 1.474 . S
C856 C851 1.342 . S
C856 C854 1.285 . S
C856 H875 0.930 . S
C857 C860 1.424 . S
C857 C862 1.245 . S
C857 C863 1.428 . S
C858 C861 1.260 . S
C858 C862 1.477 . S
C858 H876 0.932 . S
C859 C860 1.384 . S
C859 C861 1.479 . S
C859 H877 0.929 . S
C860 C857 1.424 . S
C860 C859 1.384 . S
C860 H878 0.928 . S
C861 C858 1.260 . S
C861 C859 1.479 . S
C862 C857 1.245 . S
C862 C858 1.477 . S
C862 H879 0.932 . S
C863 U846 2.882 . S
C863 C857 1.428 . S
C863 O866 1.301 . S
C863 O867 1.282 . S
O864 U846 2.441 . S
O864 C850 1.249 . S
O865 U846 2.420 . S
O865 C850 1.202 . S
O866 U846 2.455 . S
O866 C863 1.301 . S
O867 U846 2.449 . S
O867 C863 1.282 . S
H868 C841 0.931 . S
H869 C843 0.929 . S
H870 C844 0.930 . S
H871 C845 0.931 . S
H872 C852 0.932 . S
H873 C853 0.930 . S
H874 C854 0.929 . S
H875 C856 0.930 . S
H876 C858 0.932 . S
H877 C859 0.929 . S
H878 C860 0.928 . S
H879 C862 0.932 . S
C880 C881 1.264 . S
C880 C885 1.479 . S
C880 C890 1.465 . S
C881 C880 1.264 . S
C881 C883 1.339 . S
C881 H908 0.931 . S
C882 C883 1.395 . S
C882 C884 1.320 . S
C883 C881 1.339 . S
C883 C882 1.395 . S
C883 H909 0.929 . S
C884 C882 1.320 . S
C884 C885 1.405 . S
C884 H910 0.930 . S
C885 C880 1.479 . S
C885 C884 1.405 . S
C885 H911 0.931 . S
U886 O887 2.454 . S
U886 O888 2.458 . S
U886 C889 2.984 . S
U886 C890 2.847 . S
U886 C903 2.882 . S
U886 O904 2.441 . S
U886 O905 2.420 . S
U886 O906 2.455 . S
U886 O907 2.449 . S
O887 U886 2.454 . S
O887 C889 1.353 . S
O888 U886 2.458 . S
O888 C889 1.286 . S
C889 U886 2.984 . S
C889 O887 1.353 . S
C889 O888 1.286 . S
C889 C891 1.363 . S
C890 C880 1.465 . S
C890 U886 2.847 . S
C890 O904 1.249 . S
C890 O905 1.202 . S
C891 C889 1.363 . S
C891 C893 1.408 . S
C891 C896 1.342 . S
C892 C893 1.310 . S
C892 C895 1.461 . S
C892 H912 0.932 . S
C893 C891 1.408 . S
C893 C892 1.310 . S
C893 H913 0.930 . S
C894 C895 1.474 . S
C894 C896 1.285 . S
C894 H914 0.929 . S
C895 C892 1.461 . S
C895 C894 1.474 . S
C896 C891 1.342 . S
C896 C894 1.285 . S
C896 H915 0.930 . S
C897 C900 1.424 . S
C897 C902 1.245 . S
C897 C903 1.428 . S
C898 C901 1.260 . S
C898 C902 1.477 . S
C898 H916 0.932 . S
C899 C900 1.384 . S
C899 C901 1.479 . S
C899 H917 0.929 . S
C900 C897 1.424 . S
C900 C899 1.384 . S
C900 H918 0.928 . S
C901 C898 1.260 . S
C901 C899 1.479 . S
C902 C897 1.245 . S
C902 C898 1.477 . S
C902 H919 0.932 . S
C903 U886 2.882 . S
C903 C897 1.428 . S
C903 O906 1.301 . S
C903 O907 1.282 . S
O904 U886 2.441 . S
O904 C890 1.249 . S
O905 U886 2.420 . S
O905 C890 1.202 . S
O906 U886 2.455 . S
O906 C903 1.301 . S
O907 U886 2.449 . S
O907 C903 1.282 . S
H908 C881 0.931 . S
H909 C883 0.929 . S
H910 C884 0.930 . S
H911 C885 0.931 . S
H912 C892 0.932 . S
H913 C893 0.930 . S
H914 C894 0.929 . S
H915 C896 0.930 . S
H916 C898 0.932 . S
H917 C899 0.929 . S
H918 C900 0.928 . S
H919 C902 0.932 . S
C920 C921 1.264 . S
C920 C925 1.479 . S
C920 C930 1.465 . S
C921 C920 1.264 . S
C921 C923 1.339 . S
C921 H948 0.931 . S
C922 C923 1.395 . S
C922 C924 1.320 . S
C923 C921 1.339 . S
C923 C922 1.395 . S
C923 H949 0.929 . S
C924 C922 1.320 . S
C924 C925 1.405 . S
C924 H950 0.930 . S
C925 C920 1.479 . S
C925 C924 1.405 . S
C925 H951 0.931 . S
U926 O927 2.454 . S
U926 O928 2.458 . S
U926 C929 2.984 . S
U926 C930 2.847 . S
U926 C943 2.882 . S
U926 O944 2.441 . S
U926 O945 2.420 . S
U926 O946 2.455 . S
U926 O947 2.449 . S
O927 U926 2.454 . S
O927 C929 1.353 . S
O928 U926 2.458 . S
O928 C929 1.286 . S
C929 U926 2.984 . S
C929 O927 1.353 . S
C929 O928 1.286 . S
C929 C931 1.363 . S
C930 C920 1.465 . S
C930 U926 2.847 . S
C930 O944 1.249 . S
C930 O945 1.202 . S
C931 C929 1.363 . S
C931 C933 1.408 . S
C931 C936 1.342 . S
C932 C933 1.310 . S
C932 C935 1.461 . S
C932 H952 0.932 . S
C933 C931 1.408 . S
C933 C932 1.310 . S
C933 H953 0.930 . S
C934 C935 1.474 . S
C934 C936 1.285 . S
C934 H954 0.929 . S
C935 C932 1.461 . S
C935 C934 1.474 . S
C936 C931 1.342 . S
C936 C934 1.285 . S
C936 H955 0.930 . S
C937 C940 1.424 . S
C937 C942 1.245 . S
C937 C943 1.428 . S
C938 C941 1.260 . S
C938 C942 1.477 . S
C938 H956 0.932 . S
C939 C940 1.384 . S
C939 C941 1.479 . S
C939 H957 0.929 . S
C940 C937 1.424 . S
C940 C939 1.384 . S
C940 H958 0.928 . S
C941 C938 1.260 . S
C941 C939 1.479 . S
C942 C937 1.245 . S
C942 C938 1.477 . S
C942 H959 0.932 . S
C943 U926 2.882 . S
C943 C937 1.428 . S
C943 O946 1.301 . S
C943 O947 1.282 . S
O944 U926 2.441 . S
O944 C930 1.249 . S
O945 U926 2.420 . S
O945 C930 1.202 . S
O946 U926 2.455 . S
O946 C943 1.301 . S
O947 U926 2.449 . S
O947 C943 1.282 . S
H948 C921 0.931 . S
H949 C923 0.929 . S
H950 C924 0.930 . S
H951 C925 0.931 . S
H952 C932 0.932 . S
H953 C933 0.930 . S
H954 C934 0.929 . S
H955 C936 0.930 . S
H956 C938 0.932 . S
H957 C939 0.929 . S
H958 C940 0.928 . S
H959 C942 0.932 . S
C960 C961 1.264 . S
C960 C965 1.479 . S
C960 C970 1.465 . S
C961 C960 1.264 . S
C961 C963 1.339 . S
C961 H988 0.931 . S
C962 C963 1.395 . S
C962 C964 1.320 . S
C963 C961 1.339 . S
C963 C962 1.395 . S
C963 H989 0.929 . S
C964 C962 1.320 . S
C964 C965 1.405 . S
C964 H990 0.930 . S
C965 C960 1.479 . S
C965 C964 1.405 . S
C965 H991 0.931 . S
U966 O967 2.454 . S
U966 O968 2.458 . S
U966 C969 2.984 . S
U966 C970 2.847 . S
U966 C983 2.882 . S
U966 O984 2.441 . S
U966 O985 2.420 . S
U966 O986 2.455 . S
U966 O987 2.449 . S
O967 U966 2.454 . S
O967 C969 1.353 . S
O968 U966 2.458 . S
O968 C969 1.286 . S
C969 U966 2.984 . S
C969 O967 1.353 . S
C969 O968 1.286 . S
C969 C971 1.363 . S
C970 C960 1.465 . S
C970 U966 2.847 . S
C970 O984 1.249 . S
C970 O985 1.202 . S
C971 C969 1.363 . S
C971 C973 1.408 . S
C971 C976 1.342 . S
C972 C973 1.310 . S
C972 C975 1.461 . S
C972 H992 0.932 . S
C973 C971 1.408 . S
C973 C972 1.310 . S
C973 H993 0.930 . S
C974 C975 1.474 . S
C974 C976 1.285 . S
C974 H994 0.929 . S
C975 C972 1.461 . S
C975 C974 1.474 . S
C976 C971 1.342 . S
C976 C974 1.285 . S
C976 H995 0.930 . S
C977 C980 1.424 . S
C977 C982 1.245 . S
C977 C983 1.428 . S
C978 C981 1.260 . S
C978 C982 1.477 . S
C978 H996 0.932 . S
C979 C980 1.384 . S
C979 C981 1.479 . S
C979 H997 0.929 . S
C980 C977 1.424 . S
C980 C979 1.384 . S
C980 H998 0.928 . S
C981 C978 1.260 . S
C981 C979 1.479 . S
C982 C977 1.245 . S
C982 C978 1.477 . S
C982 H999 0.932 . S
C983 U966 2.882 . S
C983 C977 1.428 . S
C983 O986 1.301 . S
C983 O987 1.282 . S
O984 U966 2.441 . S
O984 C970 1.249 . S
O985 U966 2.420 . S
O985 C970 1.202 . S
O986 U966 2.455 . S
O986 C983 1.301 . S
O987 U966 2.449 . S
O987 C983 1.282 . S
H988 C961 0.931 . S
H989 C963 0.929 . S
H990 C964 0.930 . S
H991 C965 0.931 . S
H992 C972 0.932 . S
H993 C973 0.930 . S
H994 C974 0.929 . S
H995 C976 0.930 . S
H996 C978 0.932 . S
H997 C979 0.929 . S
H998 C980 0.928 . S
H999 C982 0.932 . S
C1000 C1001 1.264 . S
C1000 C1005 1.479 . S
C1000 C1010 1.465 . S
C1001 C1000 1.264 . S
C1001 C1003 1.339 . S
C1001 H1028 0.931 . S
C1002 C1003 1.395 . S
C1002 C1004 1.320 . S
C1003 C1001 1.339 . S
C1003 C1002 1.395 . S
C1003 H1029 0.929 . S
C1004 C1002 1.320 . S
C1004 C1005 1.405 . S
C1004 H1030 0.930 . S
C1005 C1000 1.479 . S
C1005 C1004 1.405 . S
C1005 H1031 0.931 . S
U1006 O1007 2.454 . S
U1006 O1008 2.458 . S
U1006 C1009 2.984 . S
U1006 C1010 2.847 . S
U1006 C1023 2.882 . S
U1006 O1024 2.441 . S
U1006 O1025 2.420 . S
U1006 O1026 2.455 . S
U1006 O1027 2.449 . S
O1007 U1006 2.454 . S
O1007 C1009 1.353 . S
O1008 U1006 2.458 . S
O1008 C1009 1.286 . S
C1009 U1006 2.984 . S
C1009 O1007 1.353 . S
C1009 O1008 1.286 . S
C1009 C1011 1.363 . S
C1010 C1000 1.465 . S
C1010 U1006 2.847 . S
C1010 O1024 1.249 . S
C1010 O1025 1.202 . S
C1011 C1009 1.363 . S
C1011 C1013 1.408 . S
C1011 C1016 1.342 . S
C1012 C1013 1.310 . S
C1012 C1015 1.461 . S
C1012 H1032 0.932 . S
C1013 C1011 1.408 . S
C1013 C1012 1.310 . S
C1013 H1033 0.930 . S
C1014 C1015 1.474 . S
C1014 C1016 1.285 . S
C1014 H1034 0.929 . S
C1015 C1012 1.461 . S
C1015 C1014 1.474 . S
C1016 C1011 1.342 . S
C1016 C1014 1.285 . S
C1016 H1035 0.930 . S
C1017 C1020 1.424 . S
C1017 C1022 1.245 . S
C1017 C1023 1.428 . S
C1018 C1021 1.260 . S
C1018 C1022 1.477 . S
C1018 H1036 0.932 . S
C1019 C1020 1.384 . S
C1019 C1021 1.479 . S
C1019 H1037 0.929 . S
C1020 C1017 1.424 . S
C1020 C1019 1.384 . S
C1020 H1038 0.928 . S
C1021 C1018 1.260 . S
C1021 C1019 1.479 . S
C1022 C1017 1.245 . S
C1022 C1018 1.477 . S
C1022 H1039 0.932 . S
C1023 U1006 2.882 . S
C1023 C1017 1.428 . S
C1023 O1026 1.301 . S
C1023 O1027 1.282 . S
O1024 U1006 2.441 . S
O1024 C1010 1.249 . S
O1025 U1006 2.420 . S
O1025 C1010 1.202 . S
O1026 U1006 2.455 . S
O1026 C1023 1.301 . S
O1027 U1006 2.449 . S
O1027 C1023 1.282 . S
H1028 C1001 0.931 . S
H1029 C1003 0.929 . S
H1030 C1004 0.930 . S
H1031 C1005 0.931 . S
H1032 C1012 0.932 . S
H1033 C1013 0.930 . S
H1034 C1014 0.929 . S
H1035 C1016 0.930 . S
H1036 C1018 0.932 . S
H1037 C1019 0.929 . S
H1038 C1020 0.928 . S
H1039 C1022 0.932 . S
C1040 C1041 1.264 . S
C1040 C1045 1.479 . S
C1040 C1050 1.465 . S
C1041 C1040 1.264 . S
C1041 C1043 1.339 . S
C1041 H1068 0.931 . S
C1042 C1043 1.395 . S
C1042 C1044 1.320 . S
C1043 C1041 1.339 . S
C1043 C1042 1.395 . S
C1043 H1069 0.929 . S
C1044 C1042 1.320 . S
C1044 C1045 1.405 . S
C1044 H1070 0.930 . S
C1045 C1040 1.479 . S
C1045 C1044 1.405 . S
C1045 H1071 0.931 . S
U1046 O1047 2.454 . S
U1046 O1048 2.458 . S
U1046 C1049 2.984 . S
U1046 C1050 2.847 . S
U1046 C1063 2.882 . S
U1046 O1064 2.441 . S
U1046 O1065 2.420 . S
U1046 O1066 2.455 . S
U1046 O1067 2.449 . S
O1047 U1046 2.454 . S
O1047 C1049 1.353 . S
O1048 U1046 2.458 . S
O1048 C1049 1.286 . S
C1049 U1046 2.984 . S
C1049 O1047 1.353 . S
C1049 O1048 1.286 . S
C1049 C1051 1.363 . S
C1050 C1040 1.465 . S
C1050 U1046 2.847 . S
C1050 O1064 1.249 . S
C1050 O1065 1.202 . S
C1051 C1049 1.363 . S
C1051 C1053 1.408 . S
C1051 C1056 1.342 . S
C1052 C1053 1.310 . S
C1052 C1055 1.461 . S
C1052 H1072 0.932 . S
C1053 C1051 1.408 . S
C1053 C1052 1.310 . S
C1053 H1073 0.930 . S
C1054 C1055 1.474 . S
C1054 C1056 1.285 . S
C1054 H1074 0.929 . S
C1055 C1052 1.461 . S
C1055 C1054 1.474 . S
C1056 C1051 1.342 . S
C1056 C1054 1.285 . S
C1056 H1075 0.930 . S
C1057 C1060 1.424 . S
C1057 C1062 1.245 . S
C1057 C1063 1.428 . S
C1058 C1061 1.260 . S
C1058 C1062 1.477 . S
C1058 H1076 0.932 . S
C1059 C1060 1.384 . S
C1059 C1061 1.479 . S
C1059 H1077 0.929 . S
C1060 C1057 1.424 . S
C1060 C1059 1.384 . S
C1060 H1078 0.928 . S
C1061 C1058 1.260 . S
C1061 C1059 1.479 . S
C1062 C1057 1.245 . S
C1062 C1058 1.477 . S
C1062 H1079 0.932 . S
C1063 U1046 2.882 . S
C1063 C1057 1.428 . S
C1063 O1066 1.301 . S
C1063 O1067 1.282 . S
O1064 U1046 2.441 . S
O1064 C1050 1.249 . S
O1065 U1046 2.420 . S
O1065 C1050 1.202 . S
O1066 U1046 2.455 . S
O1066 C1063 1.301 . S
O1067 U1046 2.449 . S
O1067 C1063 1.282 . S
H1068 C1041 0.931 . S
H1069 C1043 0.929 . S
H1070 C1044 0.930 . S
H1071 C1045 0.931 . S
H1072 C1052 0.932 . S
H1073 C1053 0.930 . S
H1074 C1054 0.929 . S
H1075 C1056 0.930 . S
H1076 C1058 0.932 . S
H1077 C1059 0.929 . S
H1078 C1060 0.928 . S
H1079 C1062 0.932 . S
C1080 C1081 1.264 . S
C1080 C1085 1.479 . S
C1080 C1090 1.465 . S
C1081 C1080 1.264 . S
C1081 C1083 1.339 . S
C1081 H1108 0.931 . S
C1082 C1083 1.395 . S
C1082 C1084 1.320 . S
C1083 C1081 1.339 . S
C1083 C1082 1.395 . S
C1083 H1109 0.929 . S
C1084 C1082 1.320 . S
C1084 C1085 1.405 . S
C1084 H1110 0.930 . S
C1085 C1080 1.479 . S
C1085 C1084 1.405 . S
C1085 H1111 0.931 . S
U1086 O1087 2.454 . S
U1086 O1088 2.458 . S
U1086 C1089 2.984 . S
U1086 C1090 2.847 . S
U1086 C1103 2.882 . S
U1086 O1104 2.441 . S
U1086 O1105 2.420 . S
U1086 O1106 2.455 . S
U1086 O1107 2.449 . S
O1087 U1086 2.454 . S
O1087 C1089 1.353 . S
O1088 U1086 2.458 . S
O1088 C1089 1.286 . S
C1089 U1086 2.984 . S
C1089 O1087 1.353 . S
C1089 O1088 1.286 . S
C1089 C1091 1.363 . S
C1090 C1080 1.465 . S
C1090 U1086 2.847 . S
C1090 O1104 1.249 . S
C1090 O1105 1.202 . S
C1091 C1089 1.363 . S
C1091 C1093 1.408 . S
C1091 C1096 1.342 . S
C1092 C1093 1.310 . S
C1092 C1095 1.461 . S
C1092 H1112 0.932 . S
C1093 C1091 1.408 . S
C1093 C1092 1.310 . S
C1093 H1113 0.930 . S
C1094 C1095 1.474 . S
C1094 C1096 1.285 . S
C1094 H1114 0.929 . S
C1095 C1092 1.461 . S
C1095 C1094 1.474 . S
C1096 C1091 1.342 . S
C1096 C1094 1.285 . S
C1096 H1115 0.930 . S
C1097 C1100 1.424 . S
C1097 C1102 1.245 . S
C1097 C1103 1.428 . S
C1098 C1101 1.260 . S
C1098 C1102 1.477 . S
C1098 H1116 0.932 . S
C1099 C1100 1.384 . S
C1099 C1101 1.479 . S
C1099 H1117 0.929 . S
C1100 C1097 1.424 . S
C1100 C1099 1.384 . S
C1100 H1118 0.928 . S
C1101 C1098 1.260 . S
C1101 C1099 1.479 . S
C1102 C1097 1.245 . S
C1102 C1098 1.477 . S
C1102 H1119 0.932 . S
C1103 U1086 2.882 . S
C1103 C1097 1.428 . S
C1103 O1106 1.301 . S
C1103 O1107 1.282 . S
O1104 U1086 2.441 . S
O1104 C1090 1.249 . S
O1105 U1086 2.420 . S
O1105 C1090 1.202 . S
O1106 U1086 2.455 . S
O1106 C1103 1.301 . S
O1107 U1086 2.449 . S
O1107 C1103 1.282 . S
H1108 C1081 0.931 . S
H1109 C1083 0.929 . S
H1110 C1084 0.930 . S
H1111 C1085 0.931 . S
H1112 C1092 0.932 . S
H1113 C1093 0.930 . S
H1114 C1094 0.929 . S
H1115 C1096 0.930 . S
H1116 C1098 0.932 . S
H1117 C1099 0.929 . S
H1118 C1100 0.928 . S
H1119 C1102 0.932 . S
C1120 C1121 1.264 . S
C1120 C1125 1.479 . S
C1120 C1130 1.465 . S
C1121 C1120 1.264 . S
C1121 C1123 1.339 . S
C1121 H1148 0.931 . S
C1122 C1123 1.395 . S
C1122 C1124 1.320 . S
C1123 C1121 1.339 . S
C1123 C1122 1.395 . S
C1123 H1149 0.929 . S
C1124 C1122 1.320 . S
C1124 C1125 1.405 . S
C1124 H1150 0.930 . S
C1125 C1120 1.479 . S
C1125 C1124 1.405 . S
C1125 H1151 0.931 . S
U1126 O1127 2.454 . S
U1126 O1128 2.458 . S
U1126 C1129 2.984 . S
U1126 C1130 2.847 . S
U1126 C1143 2.882 . S
U1126 O1144 2.441 . S
U1126 O1145 2.420 . S
U1126 O1146 2.455 . S
U1126 O1147 2.449 . S
O1127 U1126 2.454 . S
O1127 C1129 1.353 . S
O1128 U1126 2.458 . S
O1128 C1129 1.286 . S
C1129 U1126 2.984 . S
C1129 O1127 1.353 . S
C1129 O1128 1.286 . S
C1129 C1131 1.363 . S
C1130 C1120 1.465 . S
C1130 U1126 2.847 . S
C1130 O1144 1.249 . S
C1130 O1145 1.202 . S
C1131 C1129 1.363 . S
C1131 C1133 1.408 . S
C1131 C1136 1.342 . S
C1132 C1133 1.310 . S
C1132 C1135 1.461 . S
C1132 H1152 0.932 . S
C1133 C1131 1.408 . S
C1133 C1132 1.310 . S
C1133 H1153 0.930 . S
C1134 C1135 1.474 . S
C1134 C1136 1.285 . S
C1134 H1154 0.929 . S
C1135 C1132 1.461 . S
C1135 C1134 1.474 . S
C1136 C1131 1.342 . S
C1136 C1134 1.285 . S
C1136 H1155 0.930 . S
C1137 C1140 1.424 . S
C1137 C1142 1.245 . S
C1137 C1143 1.428 . S
C1138 C1141 1.260 . S
C1138 C1142 1.477 . S
C1138 H1156 0.932 . S
C1139 C1140 1.384 . S
C1139 C1141 1.479 . S
C1139 H1157 0.929 . S
C1140 C1137 1.424 . S
C1140 C1139 1.384 . S
C1140 H1158 0.928 . S
C1141 C1138 1.260 . S
C1141 C1139 1.479 . S
C1142 C1137 1.245 . S
C1142 C1138 1.477 . S
C1142 H1159 0.932 . S
C1143 U1126 2.882 . S
C1143 C1137 1.428 . S
C1143 O1146 1.301 . S
C1143 O1147 1.282 . S
O1144 U1126 2.441 . S
O1144 C1130 1.249 . S
O1145 U1126 2.420 . S
O1145 C1130 1.202 . S
O1146 U1126 2.455 . S
O1146 C1143 1.301 . S
O1147 U1126 2.449 . S
O1147 C1143 1.282 . S
H1148 C1121 0.931 . S
H1149 C1123 0.929 . S
H1150 C1124 0.930 . S
H1151 C1125 0.931 . S
H1152 C1132 0.932 . S
H1153 C1133 0.930 . S
H1154 C1134 0.929 . S
H1155 C1136 0.930 . S
H1156 C1138 0.932 . S
H1157 C1139 0.929 . S
H1158 C1140 0.928 . S
H1159 C1142 0.932 . S
C1160 C1161 1.264 . S
C1160 C1165 1.479 . S
C1160 C1170 1.465 . S
C1161 C1160 1.264 . S
C1161 C1163 1.339 . S
C1161 H1188 0.931 . S
C1162 C1163 1.395 . S
C1162 C1164 1.320 . S
C1163 C1161 1.339 . S
C1163 C1162 1.395 . S
C1163 H1189 0.929 . S
C1164 C1162 1.320 . S
C1164 C1165 1.405 . S
C1164 H1190 0.930 . S
C1165 C1160 1.479 . S
C1165 C1164 1.405 . S
C1165 H1191 0.931 . S
U1166 O1167 2.454 . S
U1166 O1168 2.458 . S
U1166 C1169 2.984 . S
U1166 C1170 2.847 . S
U1166 C1183 2.882 . S
U1166 O1184 2.441 . S
U1166 O1185 2.420 . S
U1166 O1186 2.455 . S
U1166 O1187 2.449 . S
O1167 U1166 2.454 . S
O1167 C1169 1.353 . S
O1168 U1166 2.458 . S
O1168 C1169 1.286 . S
C1169 U1166 2.984 . S
C1169 O1167 1.353 . S
C1169 O1168 1.286 . S
C1169 C1171 1.363 . S
C1170 C1160 1.465 . S
C1170 U1166 2.847 . S
C1170 O1184 1.249 . S
C1170 O1185 1.202 . S
C1171 C1169 1.363 . S
C1171 C1173 1.408 . S
C1171 C1176 1.342 . S
C1172 C1173 1.310 . S
C1172 C1175 1.461 . S
C1172 H1192 0.932 . S
C1173 C1171 1.408 . S
C1173 C1172 1.310 . S
C1173 H1193 0.930 . S
C1174 C1175 1.474 . S
C1174 C1176 1.285 . S
C1174 H1194 0.929 . S
C1175 C1172 1.461 . S
C1175 C1174 1.474 . S
C1176 C1171 1.342 . S
C1176 C1174 1.285 . S
C1176 H1195 0.930 . S
C1177 C1180 1.424 . S
C1177 C1182 1.245 . S
C1177 C1183 1.428 . S
C1178 C1181 1.260 . S
C1178 C1182 1.477 . S
C1178 H1196 0.932 . S
C1179 C1180 1.384 . S
C1179 C1181 1.479 . S
C1179 H1197 0.929 . S
C1180 C1177 1.424 . S
C1180 C1179 1.384 . S
C1180 H1198 0.928 . S
C1181 C1178 1.260 . S
C1181 C1179 1.479 . S
C1182 C1177 1.245 . S
C1182 C1178 1.477 . S
C1182 H1199 0.932 . S
C1183 U1166 2.882 . S
C1183 C1177 1.428 . S
C1183 O1186 1.301 . S
C1183 O1187 1.282 . S
O1184 U1166 2.441 . S
O1184 C1170 1.249 . S
O1185 U1166 2.420 . S
O1185 C1170 1.202 . S
O1186 U1166 2.455 . S
O1186 C1183 1.301 . S
O1187 U1166 2.449 . S
O1187 C1183 1.282 . S
H1188 C1161 0.931 . S
H1189 C1163 0.929 . S
H1190 C1164 0.930 . S
H1191 C1165 0.931 . S
H1192 C1172 0.932 . S
H1193 C1173 0.930 . S
H1194 C1174 0.929 . S
H1195 C1176 0.930 . S
H1196 C1178 0.932 . S
H1197 C1179 0.929 . S
H1198 C1180 0.928 . S
H1199 C1182 0.932 . S
C1200 C1201 1.264 . S
C1200 C1205 1.479 . S
C1200 C1210 1.465 . S
C1201 C1200 1.264 . S
C1201 C1203 1.339 . S
C1201 H1228 0.931 . S
C1202 C1203 1.395 . S
C1202 C1204 1.320 . S
C1203 C1201 1.339 . S
C1203 C1202 1.395 . S
C1203 H1229 0.929 . S
C1204 C1202 1.320 . S
C1204 C1205 1.405 . S
C1204 H1230 0.930 . S
C1205 C1200 1.479 . S
C1205 C1204 1.405 . S
C1205 H1231 0.931 . S
U1206 O1207 2.454 . S
U1206 O1208 2.458 . S
U1206 C1209 2.984 . S
U1206 C1210 2.847 . S
U1206 C1223 2.882 . S
U1206 O1224 2.441 . S
U1206 O1225 2.420 . S
U1206 O1226 2.455 . S
U1206 O1227 2.449 . S
O1207 U1206 2.454 . S
O1207 C1209 1.353 . S
O1208 U1206 2.458 . S
O1208 C1209 1.286 . S
C1209 U1206 2.984 . S
C1209 O1207 1.353 . S
C1209 O1208 1.286 . S
C1209 C1211 1.363 . S
C1210 C1200 1.465 . S
C1210 U1206 2.847 . S
C1210 O1224 1.249 . S
C1210 O1225 1.202 . S
C1211 C1209 1.363 . S
C1211 C1213 1.408 . S
C1211 C1216 1.342 . S
C1212 C1213 1.310 . S
C1212 C1215 1.461 . S
C1212 H1232 0.932 . S
C1213 C1211 1.408 . S
C1213 C1212 1.310 . S
C1213 H1233 0.930 . S
C1214 C1215 1.474 . S
C1214 C1216 1.285 . S
C1214 H1234 0.929 . S
C1215 C1212 1.461 . S
C1215 C1214 1.474 . S
C1216 C1211 1.342 . S
C1216 C1214 1.285 . S
C1216 H1235 0.930 . S
C1217 C1220 1.424 . S
C1217 C1222 1.245 . S
C1217 C1223 1.428 . S
C1218 C1221 1.260 . S
C1218 C1222 1.477 . S
C1218 H1236 0.932 . S
C1219 C1220 1.384 . S
C1219 C1221 1.479 . S
C1219 H1237 0.929 . S
C1220 C1217 1.424 . S
C1220 C1219 1.384 . S
C1220 H1238 0.928 . S
C1221 C1218 1.260 . S
C1221 C1219 1.479 . S
C1222 C1217 1.245 . S
C1222 C1218 1.477 . S
C1222 H1239 0.932 . S
C1223 U1206 2.882 . S
C1223 C1217 1.428 . S
C1223 O1226 1.301 . S
C1223 O1227 1.282 . S
O1224 U1206 2.441 . S
O1224 C1210 1.249 . S
O1225 U1206 2.420 . S
O1225 C1210 1.202 . S
O1226 U1206 2.455 . S
O1226 C1223 1.301 . S
O1227 U1206 2.449 . S
O1227 C1223 1.282 . S
H1228 C1201 0.931 . S
H1229 C1203 0.929 . S
H1230 C1204 0.930 . S
H1231 C1205 0.931 . S
H1232 C1212 0.932 . S
H1233 C1213 0.930 . S
H1234 C1214 0.929 . S
H1235 C1216 0.930 . S
H1236 C1218 0.932 . S
H1237 C1219 0.929 . S
H1238 C1220 0.928 . S
H1239 C1222 0.932 . S
C1240 C1241 1.264 . S
C1240 C1245 1.479 . S
C1240 C1250 1.465 . S
C1241 C1240 1.264 . S
C1241 C1243 1.339 . S
C1241 H1268 0.931 . S
C1242 C1243 1.395 . S
C1242 C1244 1.320 . S
C1243 C1241 1.339 . S
C1243 C1242 1.395 . S
C1243 H1269 0.929 . S
C1244 C1242 1.320 . S
C1244 C1245 1.405 . S
C1244 H1270 0.930 . S
C1245 C1240 1.479 . S
C1245 C1244 1.405 . S
C1245 H1271 0.931 . S
U1246 O1247 2.454 . S
U1246 O1248 2.458 . S
U1246 C1249 2.984 . S
U1246 C1250 2.847 . S
U1246 C1263 2.882 . S
U1246 O1264 2.441 . S
U1246 O1265 2.420 . S
U1246 O1266 2.455 . S
U1246 O1267 2.449 . S
O1247 U1246 2.454 . S
O1247 C1249 1.353 . S
O1248 U1246 2.458 . S
O1248 C1249 1.286 . S
C1249 U1246 2.984 . S
C1249 O1247 1.353 . S
C1249 O1248 1.286 . S
C1249 C1251 1.363 . S
C1250 C1240 1.465 . S
C1250 U1246 2.847 . S
C1250 O1264 1.249 . S
C1250 O1265 1.202 . S
C1251 C1249 1.363 . S
C1251 C1253 1.408 . S
C1251 C1256 1.342 . S
C1252 C1253 1.310 . S
C1252 C1255 1.461 . S
C1252 H1272 0.932 . S
C1253 C1251 1.408 . S
C1253 C1252 1.310 . S
C1253 H1273 0.930 . S
C1254 C1255 1.474 . S
C1254 C1256 1.285 . S
C1254 H1274 0.929 . S
C1255 C1252 1.461 . S
C1255 C1254 1.474 . S
C1256 C1251 1.342 . S
C1256 C1254 1.285 . S
C1256 H1275 0.930 . S
C1257 C1260 1.424 . S
C1257 C1262 1.245 . S
C1257 C1263 1.428 . S
C1258 C1261 1.260 . S
C1258 C1262 1.477 . S
C1258 H1276 0.932 . S
C1259 C1260 1.384 . S
C1259 C1261 1.479 . S
C1259 H1277 0.929 . S
C1260 C1257 1.424 . S
C1260 C1259 1.384 . S
C1260 H1278 0.928 . S
C1261 C1258 1.260 . S
C1261 C1259 1.479 . S
C1262 C1257 1.245 . S
C1262 C1258 1.477 . S
C1262 H1279 0.932 . S
C1263 U1246 2.882 . S
C1263 C1257 1.428 . S
C1263 O1266 1.301 . S
C1263 O1267 1.282 . S
O1264 U1246 2.441 . S
O1264 C1250 1.249 . S
O1265 U1246 2.420 . S
O1265 C1250 1.202 . S
O1266 U1246 2.455 . S
O1266 C1263 1.301 . S
O1267 U1246 2.449 . S
O1267 C1263 1.282 . S
H1268 C1241 0.931 . S
H1269 C1243 0.929 . S
H1270 C1244 0.930 . S
H1271 C1245 0.931 . S
H1272 C1252 0.932 . S
H1273 C1253 0.930 . S
H1274 C1254 0.929 . S
H1275 C1256 0.930 . S
H1276 C1258 0.932 . S
H1277 C1259 0.929 . S
H1278 C1260 0.928 . S
H1279 C1262 0.932 . S
H1280 C1307 0.929 . S
N1281 C1306 1.433 . S
N1281 C1312 1.435 . S
N1281 C1318 1.423 . S
H1282 C1308 0.930 . S
H1283 C1311 0.931 . S
H1284 C1310 0.929 . S
H1285 C1313 0.930 . S
H1286 C1314 0.932 . S
H1287 C1317 0.929 . S
H1288 C1316 0.931 . S
H1289 C1319 0.929 . S
H1290 C1323 0.932 . S
H1291 C1320 0.931 . S
H1292 C1322 0.929 . S
H1293 C1325 0.929 . S
H1294 C1326 0.930 . S
H1295 C1328 0.929 . S
H1296 C1329 0.931 . S
H1297 C1331 0.930 . S
H1298 C1332 0.932 . S
H1299 C1334 0.931 . S
H1300 C1335 0.929 . S
H1301 C1337 0.929 . S
H1302 C1338 0.931 . S
H1303 C1340 0.929 . S
N1304 C1324 1.433 . S
N1304 C1330 1.435 . S
N1304 C1336 1.423 . S
H1305 C1341 0.932 . S
C1306 N1281 1.433 . S
C1306 C1307 1.363 . S
C1306 C1311 1.370 . S
C1307 H1280 0.929 . S
C1307 C1306 1.363 . S
C1307 C1308 1.385 . S
C1308 H1282 0.930 . S
C1308 C1307 1.385 . S
C1308 C1309 1.357 . S
C1309 C1308 1.357 . S
C1309 C1310 1.406 . S
C1310 H1284 0.929 . S
C1310 C1309 1.406 . S
C1310 C1311 1.391 . S
C1311 H1283 0.931 . S
C1311 C1306 1.370 . S
C1311 C1310 1.391 . S
C1312 N1281 1.435 . S
C1312 C1313 1.358 . S
C1312 C1317 1.371 . S
C1313 H1285 0.930 . S
C1313 C1312 1.358 . S
C1313 C1314 1.405 . S
C1314 H1286 0.932 . S
C1314 C1313 1.405 . S
C1314 C1315 1.383 . S
C1315 C1314 1.383 . S
C1315 C1316 1.393 . S
C1316 H1288 0.931 . S
C1316 C1315 1.393 . S
C1316 C1317 1.382 . S
C1317 H1287 0.929 . S
C1317 C1312 1.371 . S
C1317 C1316 1.382 . S
C1318 N1281 1.423 . S
C1318 C1319 1.362 . S
C1318 C1323 1.388 . S
C1319 H1289 0.929 . S
C1319 C1318 1.362 . S
C1319 C1320 1.376 . S
C1320 H1291 0.931 . S
C1320 C1319 1.376 . S
C1320 C1321 1.396 . S
C1321 C1320 1.396 . S
C1321 C1322 1.348 . S
C1321 C1339 1.472 1_556 S
C1322 H1292 0.929 . S
C1322 C1321 1.348 . S
C1322 C1323 1.443 . S
C1323 H1290 0.932 . S
C1323 C1318 1.388 . S
C1323 C1322 1.443 . S
C1324 N1304 1.433 . S
C1324 C1325 1.363 . S
C1324 C1329 1.370 . S
C1325 H1293 0.929 . S
C1325 C1324 1.363 . S
C1325 C1326 1.385 . S
C1326 H1294 0.930 . S
C1326 C1325 1.385 . S
C1326 C1327 1.357 . S
C1327 C1326 1.357 . S
C1327 C1328 1.406 . S
C1328 H1295 0.929 . S
C1328 C1327 1.406 . S
C1328 C1329 1.391 . S
C1329 H1296 0.931 . S
C1329 C1324 1.370 . S
C1329 C1328 1.391 . S
C1330 N1304 1.435 . S
C1330 C1331 1.358 . S
C1330 C1335 1.371 . S
C1331 H1297 0.930 . S
C1331 C1330 1.358 . S
C1331 C1332 1.405 . S
C1332 H1298 0.932 . S
C1332 C1331 1.405 . S
C1332 C1333 1.383 . S
C1333 C1332 1.383 . S
C1333 C1334 1.393 . S
C1334 H1299 0.931 . S
C1334 C1333 1.393 . S
C1334 C1335 1.382 . S
C1335 H1300 0.929 . S
C1335 C1330 1.371 . S
C1335 C1334 1.382 . S
C1336 N1304 1.423 . S
C1336 C1337 1.362 . S
C1336 C1341 1.388 . S
C1337 H1301 0.929 . S
C1337 C1336 1.362 . S
C1337 C1338 1.376 . S
C1338 H1302 0.931 . S
C1338 C1337 1.376 . S
C1338 C1339 1.396 . S
C1339 C1321 1.472 1_554 S
C1339 C1338 1.396 . S
C1339 C1340 1.348 . S
C1340 H1303 0.929 . S
C1340 C1339 1.348 . S
C1340 C1341 1.443 . S
C1341 H1305 0.932 . S
C1341 C1336 1.388 . S
C1341 C1340 1.443 . S
H1342 C1369 0.929 . S
N1343 C1368 1.433 . S
N1343 C1374 1.435 . S
N1343 C1380 1.423 . S
H1344 C1370 0.930 . S
H1345 C1373 0.931 . S
H1346 C1372 0.929 . S
H1347 C1375 0.930 . S
H1348 C1376 0.932 . S
H1349 C1379 0.929 . S
H1350 C1378 0.931 . S
H1351 C1381 0.929 . S
H1352 C1385 0.932 . S
H1353 C1382 0.931 . S
H1354 C1384 0.929 . S
H1355 C1387 0.929 . S
H1356 C1388 0.930 . S
H1357 C1390 0.929 . S
H1358 C1391 0.931 . S
H1359 C1393 0.930 . S
H1360 C1394 0.932 . S
H1361 C1396 0.931 . S
H1362 C1397 0.929 . S
H1363 C1399 0.929 . S
H1364 C1400 0.931 . S
H1365 C1402 0.929 . S
N1366 C1386 1.433 . S
N1366 C1392 1.435 . S
N1366 C1398 1.423 . S
H1367 C1403 0.932 . S
C1368 N1343 1.433 . S
C1368 C1369 1.363 . S
C1368 C1373 1.370 . S
C1369 H1342 0.929 . S
C1369 C1368 1.363 . S
C1369 C1370 1.385 . S
C1370 H1344 0.930 . S
C1370 C1369 1.385 . S
C1370 C1371 1.357 . S
C1371 C1370 1.357 . S
C1371 C1372 1.406 . S
C1372 H1346 0.929 . S
C1372 C1371 1.406 . S
C1372 C1373 1.391 . S
C1373 H1345 0.931 . S
C1373 C1368 1.370 . S
C1373 C1372 1.391 . S
C1374 N1343 1.435 . S
C1374 C1375 1.358 . S
C1374 C1379 1.371 . S
C1375 H1347 0.930 . S
C1375 C1374 1.358 . S
C1375 C1376 1.405 . S
C1376 H1348 0.932 . S
C1376 C1375 1.405 . S
C1376 C1377 1.383 . S
C1377 C1376 1.383 . S
C1377 C1378 1.393 . S
C1378 H1350 0.931 . S
C1378 C1377 1.393 . S
C1378 C1379 1.382 . S
C1379 H1349 0.929 . S
C1379 C1374 1.371 . S
C1379 C1378 1.382 . S
C1380 N1343 1.423 . S
C1380 C1381 1.362 . S
C1380 C1385 1.388 . S
C1381 H1351 0.929 . S
C1381 C1380 1.362 . S
C1381 C1382 1.376 . S
C1382 H1353 0.931 . S
C1382 C1381 1.376 . S
C1382 C1383 1.396 1_556 S
C1383 C1382 1.396 1_554 S
C1383 C1384 1.348 1_554 S
C1383 C1401 1.472 . S
C1384 H1354 0.929 . S
C1384 C1383 1.348 1_556 S
C1384 C1385 1.443 . S
C1385 H1352 0.932 . S
C1385 C1380 1.388 . S
C1385 C1384 1.443 . S
C1386 N1366 1.433 . S
C1386 C1387 1.363 . S
C1386 C1391 1.370 . S
C1387 H1355 0.929 . S
C1387 C1386 1.363 . S
C1387 C1388 1.385 . S
C1388 H1356 0.930 . S
C1388 C1387 1.385 . S
C1388 C1389 1.357 . S
C1389 C1388 1.357 . S
C1389 C1390 1.406 . S
C1390 H1357 0.929 . S
C1390 C1389 1.406 . S
C1390 C1391 1.391 . S
C1391 H1358 0.931 . S
C1391 C1386 1.370 . S
C1391 C1390 1.391 . S
C1392 N1366 1.435 . S
C1392 C1393 1.358 . S
C1392 C1397 1.371 . S
C1393 H1359 0.930 . S
C1393 C1392 1.358 . S
C1393 C1394 1.405 . S
C1394 H1360 0.932 . S
C1394 C1393 1.405 . S
C1394 C1395 1.383 . S
C1395 C1394 1.383 . S
C1395 C1396 1.393 . S
C1396 H1361 0.931 . S
C1396 C1395 1.393 . S
C1396 C1397 1.382 . S
C1397 H1362 0.929 . S
C1397 C1392 1.371 . S
C1397 C1396 1.382 . S
C1398 N1366 1.423 . S
C1398 C1399 1.362 . S
C1398 C1403 1.388 . S
C1399 H1363 0.929 . S
C1399 C1398 1.362 . S
C1399 C1400 1.376 . S
C1400 H1364 0.931 . S
C1400 C1399 1.376 . S
C1400 C1401 1.396 . S
C1401 C1383 1.472 . S
C1401 C1400 1.396 . S
C1401 C1402 1.348 . S
C1402 H1365 0.929 . S
C1402 C1401 1.348 . S
C1402 C1403 1.443 . S
C1403 H1367 0.932 . S
C1403 C1398 1.388 . S
C1403 C1402 1.443 . S
H1404 C1431 0.929 . S
N1405 C1430 1.433 . S
N1405 C1436 1.435 . S
N1405 C1442 1.423 . S
H1406 C1432 0.930 . S
H1407 C1435 0.931 . S
H1408 C1434 0.929 . S
H1409 C1437 0.930 . S
H1410 C1438 0.932 . S
H1411 C1441 0.929 . S
H1412 C1440 0.931 . S
H1413 C1443 0.929 . S
H1414 C1447 0.932 . S
H1415 C1444 0.931 . S
H1416 C1446 0.929 . S
H1417 C1449 0.929 . S
H1418 C1450 0.930 . S
H1419 C1452 0.929 . S
H1420 C1453 0.931 . S
H1421 C1455 0.930 . S
H1422 C1456 0.932 . S
H1423 C1458 0.931 . S
H1424 C1459 0.929 . S
H1425 C1461 0.929 . S
H1426 C1462 0.931 . S
H1427 C1464 0.929 . S
N1428 C1448 1.433 . S
N1428 C1454 1.435 . S
N1428 C1460 1.423 . S
H1429 C1465 0.932 . S
C1430 N1405 1.433 . S
C1430 C1431 1.363 . S
C1430 C1435 1.370 . S
C1431 H1404 0.929 . S
C1431 C1430 1.363 . S
C1431 C1432 1.385 . S
C1432 H1406 0.930 . S
C1432 C1431 1.385 . S
C1432 C1433 1.357 . S
C1433 C1432 1.357 . S
C1433 C1434 1.406 . S
C1434 H1408 0.929 . S
C1434 C1433 1.406 . S
C1434 C1435 1.391 . S
C1435 H1407 0.931 . S
C1435 C1430 1.370 . S
C1435 C1434 1.391 . S
C1436 N1405 1.435 . S
C1436 C1437 1.358 . S
C1436 C1441 1.371 . S
C1437 H1409 0.930 . S
C1437 C1436 1.358 . S
C1437 C1438 1.405 . S
C1438 H1410 0.932 . S
C1438 C1437 1.405 . S
C1438 C1439 1.383 . S
C1439 C1438 1.383 . S
C1439 C1440 1.393 . S
C1440 H1412 0.931 . S
C1440 C1439 1.393 . S
C1440 C1441 1.382 . S
C1441 H1411 0.929 . S
C1441 C1436 1.371 . S
C1441 C1440 1.382 . S
C1442 N1405 1.423 . S
C1442 C1443 1.362 . S
C1442 C1447 1.388 . S
C1443 H1413 0.929 . S
C1443 C1442 1.362 . S
C1443 C1444 1.376 . S
C1444 H1415 0.931 . S
C1444 C1443 1.376 . S
C1444 C1445 1.396 . S
C1445 C1444 1.396 . S
C1445 C1446 1.348 . S
C1445 C1463 1.472 1_556 S
C1446 H1416 0.929 . S
C1446 C1445 1.348 . S
C1446 C1447 1.443 . S
C1447 H1414 0.932 . S
C1447 C1442 1.388 . S
C1447 C1446 1.443 . S
C1448 N1428 1.433 . S
C1448 C1449 1.363 . S
C1448 C1453 1.370 . S
C1449 H1417 0.929 . S
C1449 C1448 1.363 . S
C1449 C1450 1.385 . S
C1450 H1418 0.930 . S
C1450 C1449 1.385 . S
C1450 C1451 1.357 . S
C1451 C1450 1.357 . S
C1451 C1452 1.406 . S
C1452 H1419 0.929 . S
C1452 C1451 1.406 . S
C1452 C1453 1.391 . S
C1453 H1420 0.931 . S
C1453 C1448 1.370 . S
C1453 C1452 1.391 . S
C1454 N1428 1.435 . S
C1454 C1455 1.358 . S
C1454 C1459 1.371 . S
C1455 H1421 0.930 . S
C1455 C1454 1.358 . S
C1455 C1456 1.405 . S
C1456 H1422 0.932 . S
C1456 C1455 1.405 . S
C1456 C1457 1.383 . S
C1457 C1456 1.383 . S
C1457 C1458 1.393 . S
C1458 H1423 0.931 . S
C1458 C1457 1.393 . S
C1458 C1459 1.382 . S
C1459 H1424 0.929 . S
C1459 C1454 1.371 . S
C1459 C1458 1.382 . S
C1460 N1428 1.423 . S
C1460 C1461 1.362 . S
C1460 C1465 1.388 . S
C1461 H1425 0.929 . S
C1461 C1460 1.362 . S
C1461 C1462 1.376 . S
C1462 H1426 0.931 . S
C1462 C1461 1.376 . S
C1462 C1463 1.396 . S
C1463 C1445 1.472 1_554 S
C1463 C1462 1.396 . S
C1463 C1464 1.348 . S
C1464 H1427 0.929 . S
C1464 C1463 1.348 . S
C1464 C1465 1.443 . S
C1465 H1429 0.932 . S
C1465 C1460 1.388 . S
C1465 C1464 1.443 . S
H1466 C1493 0.929 . S
N1467 C1492 1.433 . S
N1467 C1498 1.435 . S
N1467 C1504 1.423 . S
H1468 C1494 0.930 . S
H1469 C1497 0.931 . S
H1470 C1496 0.929 . S
H1471 C1499 0.930 . S
H1472 C1500 0.932 . S
H1473 C1503 0.929 . S
H1474 C1502 0.931 . S
H1475 C1505 0.929 . S
H1476 C1509 0.932 . S
H1477 C1506 0.931 . S
H1478 C1508 0.929 . S
H1479 C1511 0.929 . S
H1480 C1512 0.930 . S
H1481 C1514 0.929 . S
H1482 C1515 0.931 . S
H1483 C1517 0.930 . S
H1484 C1518 0.932 . S
H1485 C1520 0.931 . S
H1486 C1521 0.929 . S
H1487 C1523 0.929 . S
H1488 C1524 0.931 . S
H1489 C1526 0.929 . S
N1490 C1510 1.433 . S
N1490 C1516 1.435 . S
N1490 C1522 1.423 . S
H1491 C1527 0.932 . S
C1492 N1467 1.433 . S
C1492 C1493 1.363 . S
C1492 C1497 1.370 . S
C1493 H1466 0.929 . S
C1493 C1492 1.363 . S
C1493 C1494 1.385 . S
C1494 H1468 0.930 . S
C1494 C1493 1.385 . S
C1494 C1495 1.357 . S
C1495 C1494 1.357 . S
C1495 C1496 1.406 . S
C1496 H1470 0.929 . S
C1496 C1495 1.406 . S
C1496 C1497 1.391 . S
C1497 H1469 0.931 . S
C1497 C1492 1.370 . S
C1497 C1496 1.391 . S
C1498 N1467 1.435 . S
C1498 C1499 1.358 . S
C1498 C1503 1.371 . S
C1499 H1471 0.930 . S
C1499 C1498 1.358 . S
C1499 C1500 1.405 . S
C1500 H1472 0.932 . S
C1500 C1499 1.405 . S
C1500 C1501 1.383 . S
C1501 C1500 1.383 . S
C1501 C1502 1.393 . S
C1502 H1474 0.931 . S
C1502 C1501 1.393 . S
C1502 C1503 1.382 . S
C1503 H1473 0.929 . S
C1503 C1498 1.371 . S
C1503 C1502 1.382 . S
C1504 N1467 1.423 . S
C1504 C1505 1.362 . S
C1504 C1509 1.388 . S
C1505 H1475 0.929 . S
C1505 C1504 1.362 . S
C1505 C1506 1.376 . S
C1506 H1477 0.931 . S
C1506 C1505 1.376 . S
C1506 C1507 1.385 1_556 S
C1507 C1506 1.385 1_554 S
C1507 C1508 1.337 1_554 S
C1507 C1525 1.493 . S
C1508 H1478 0.929 . S
C1508 C1507 1.337 1_556 S
C1508 C1509 1.443 . S
C1509 H1476 0.932 . S
C1509 C1504 1.388 . S
C1509 C1508 1.443 . S
C1510 N1490 1.433 . S
C1510 C1511 1.363 . S
C1510 C1515 1.370 . S
C1511 H1479 0.929 . S
C1511 C1510 1.363 . S
C1511 C1512 1.385 . S
C1512 H1480 0.930 . S
C1512 C1511 1.385 . S
C1512 C1513 1.357 . S
C1513 C1512 1.357 . S
C1513 C1514 1.406 . S
C1514 H1481 0.929 . S
C1514 C1513 1.406 . S
C1514 C1515 1.391 . S
C1515 H1482 0.931 . S
C1515 C1510 1.370 . S
C1515 C1514 1.391 . S
C1516 N1490 1.435 . S
C1516 C1517 1.358 . S
C1516 C1521 1.371 . S
C1517 H1483 0.930 . S
C1517 C1516 1.358 . S
C1517 C1518 1.405 . S
C1518 H1484 0.932 . S
C1518 C1517 1.405 . S
C1518 C1519 1.383 . S
C1519 C1518 1.383 . S
C1519 C1520 1.393 . S
C1520 H1485 0.931 . S
C1520 C1519 1.393 . S
C1520 C1521 1.382 . S
C1521 H1486 0.929 . S
C1521 C1516 1.371 . S
C1521 C1520 1.382 . S
C1522 N1490 1.423 . S
C1522 C1523 1.362 . S
C1522 C1527 1.388 . S
C1523 H1487 0.929 . S
C1523 C1522 1.362 . S
C1523 C1524 1.376 . S
C1524 H1488 0.931 . S
C1524 C1523 1.376 . S
C1524 C1525 1.396 . S
C1525 C1507 1.493 . S
C1525 C1524 1.396 . S
C1525 C1526 1.348 . S
C1526 H1489 0.929 . S
C1526 C1525 1.348 . S
C1526 C1527 1.443 . S
C1527 H1491 0.932 . S
C1527 C1522 1.388 . S
C1527 C1526 1.443 . S
H1528 C1555 0.929 . S
N1529 C1554 1.433 . S
N1529 C1560 1.435 . S
N1529 C1566 1.423 . S
H1530 C1556 0.930 . S
H1531 C1559 0.931 . S
H1532 C1558 0.929 . S
H1533 C1561 0.930 . S
H1534 C1562 0.932 . S
H1535 C1565 0.929 . S
H1536 C1564 0.931 . S
H1537 C1567 0.929 . S
H1538 C1571 0.932 . S
H1539 C1568 0.931 . S
H1540 C1570 0.929 . S
H1541 C1573 0.929 . S
H1542 C1574 0.930 . S
H1543 C1576 0.929 . S
H1544 C1577 0.931 . S
H1545 C1579 0.930 . S
H1546 C1580 0.932 . S
H1547 C1582 0.931 . S
H1548 C1583 0.929 . S
H1549 C1585 0.929 . S
H1550 C1586 0.931 . S
H1551 C1588 0.929 . S
N1552 C1572 1.433 . S
N1552 C1578 1.435 . S
N1552 C1584 1.423 . S
H1553 C1589 0.932 . S
C1554 N1529 1.433 . S
C1554 C1555 1.363 . S
C1554 C1559 1.370 . S
C1555 H1528 0.929 . S
C1555 C1554 1.363 . S
C1555 C1556 1.385 . S
C1556 H1530 0.930 . S
C1556 C1555 1.385 . S
C1556 C1557 1.357 . S
C1557 C1556 1.357 . S
C1557 C1558 1.406 . S
C1558 H1532 0.929 . S
C1558 C1557 1.406 . S
C1558 C1559 1.391 . S
C1559 H1531 0.931 . S
C1559 C1554 1.370 . S
C1559 C1558 1.391 . S
C1560 N1529 1.435 . S
C1560 C1561 1.358 . S
C1560 C1565 1.371 . S
C1561 H1533 0.930 . S
C1561 C1560 1.358 . S
C1561 C1562 1.405 . S
C1562 H1534 0.932 . S
C1562 C1561 1.405 . S
C1562 C1563 1.383 . S
C1563 C1562 1.383 . S
C1563 C1564 1.393 . S
C1564 H1536 0.931 . S
C1564 C1563 1.393 . S
C1564 C1565 1.382 . S
C1565 H1535 0.929 . S
C1565 C1560 1.371 . S
C1565 C1564 1.382 . S
C1566 N1529 1.423 . S
C1566 C1567 1.362 . S
C1566 C1571 1.388 . S
C1567 H1537 0.929 . S
C1567 C1566 1.362 . S
C1567 C1568 1.376 . S
C1568 H1539 0.931 . S
C1568 C1567 1.376 . S
C1568 C1569 1.422 . S
C1569 C1568 1.422 . S
C1569 C1570 1.375 . S
C1569 C1587 1.423 1_655 S
C1570 H1540 0.929 . S
C1570 C1569 1.375 . S
C1570 C1571 1.443 . S
C1571 H1538 0.932 . S
C1571 C1566 1.388 . S
C1571 C1570 1.443 . S
C1572 N1552 1.433 . S
C1572 C1573 1.363 . S
C1572 C1577 1.370 . S
C1573 H1541 0.929 . S
C1573 C1572 1.363 . S
C1573 C1574 1.385 . S
C1574 H1542 0.930 . S
C1574 C1573 1.385 . S
C1574 C1575 1.357 . S
C1575 C1574 1.357 . S
C1575 C1576 1.406 . S
C1576 H1543 0.929 . S
C1576 C1575 1.406 . S
C1576 C1577 1.391 . S
C1577 H1544 0.931 . S
C1577 C1572 1.370 . S
C1577 C1576 1.391 . S
C1578 N1552 1.435 . S
C1578 C1579 1.358 . S
C1578 C1583 1.371 . S
C1579 H1545 0.930 . S
C1579 C1578 1.358 . S
C1579 C1580 1.405 . S
C1580 H1546 0.932 . S
C1580 C1579 1.405 . S
C1580 C1581 1.383 . S
C1581 C1580 1.383 . S
C1581 C1582 1.393 . S
C1582 H1547 0.931 . S
C1582 C1581 1.393 . S
C1582 C1583 1.382 . S
C1583 H1548 0.929 . S
C1583 C1578 1.371 . S
C1583 C1582 1.382 . S
C1584 N1552 1.423 . S
C1584 C1585 1.362 . S
C1584 C1589 1.388 . S
C1585 H1549 0.929 . S
C1585 C1584 1.362 . S
C1585 C1586 1.376 . S
C1586 H1550 0.931 . S
C1586 C1585 1.376 . S
C1586 C1587 1.396 . S
C1587 C1569 1.423 1_455 S
C1587 C1586 1.396 . S
C1587 C1588 1.348 . S
C1588 H1551 0.929 . S
C1588 C1587 1.348 . S
C1588 C1589 1.443 . S
C1589 H1553 0.932 . S
C1589 C1584 1.388 . S
C1589 C1588 1.443 . S
H1590 C1617 0.929 . S
N1591 C1616 1.433 . S
N1591 C1622 1.435 . S
N1591 C1628 1.423 . S
H1592 C1618 0.930 . S
H1593 C1621 0.931 . S
H1594 C1620 0.929 . S
H1595 C1623 0.930 . S
H1596 C1624 0.932 . S
H1597 C1627 0.929 . S
H1598 C1626 0.931 . S
H1599 C1629 0.929 . S
H1600 C1633 0.932 . S
H1601 C1630 0.931 . S
H1602 C1632 0.929 . S
H1603 C1635 0.929 . S
H1604 C1636 0.930 . S
H1605 C1638 0.929 . S
H1606 C1639 0.931 . S
H1607 C1641 0.930 . S
H1608 C1642 0.932 . S
H1609 C1644 0.931 . S
H1610 C1645 0.929 . S
H1611 C1647 0.929 . S
H1612 C1648 0.931 . S
H1613 C1650 0.929 . S
N1614 C1634 1.433 . S
N1614 C1640 1.435 . S
N1614 C1646 1.423 . S
H1615 C1651 0.932 . S
C1616 N1591 1.433 . S
C1616 C1617 1.363 . S
C1616 C1621 1.370 . S
C1617 H1590 0.929 . S
C1617 C1616 1.363 . S
C1617 C1618 1.385 . S
C1618 H1592 0.930 . S
C1618 C1617 1.385 . S
C1618 C1619 1.357 . S
C1619 C1618 1.357 . S
C1619 C1620 1.406 . S
C1620 H1594 0.929 . S
C1620 C1619 1.406 . S
C1620 C1621 1.391 . S
C1621 H1593 0.931 . S
C1621 C1616 1.370 . S
C1621 C1620 1.391 . S
C1622 N1591 1.435 . S
C1622 C1623 1.358 . S
C1622 C1627 1.371 . S
C1623 H1595 0.930 . S
C1623 C1622 1.358 . S
C1623 C1624 1.405 . S
C1624 H1596 0.932 . S
C1624 C1623 1.405 . S
C1624 C1625 1.383 . S
C1625 C1624 1.383 . S
C1625 C1626 1.393 . S
C1626 H1598 0.931 . S
C1626 C1625 1.393 . S
C1626 C1627 1.382 . S
C1627 H1597 0.929 . S
C1627 C1622 1.371 . S
C1627 C1626 1.382 . S
C1628 N1591 1.423 . S
C1628 C1629 1.362 . S
C1628 C1633 1.388 . S
C1629 H1599 0.929 . S
C1629 C1628 1.362 . S
C1629 C1630 1.376 . S
C1630 H1601 0.931 . S
C1630 C1629 1.376 . S
C1630 C1631 1.396 . S
C1631 C1630 1.396 . S
C1631 C1632 1.348 . S
C1631 C1649 1.472 1_545 S
C1632 H1602 0.929 . S
C1632 C1631 1.348 . S
C1632 C1633 1.443 . S
C1633 H1600 0.932 . S
C1633 C1628 1.388 . S
C1633 C1632 1.443 . S
C1634 N1614 1.433 . S
C1634 C1635 1.363 . S
C1634 C1639 1.370 . S
C1635 H1603 0.929 . S
C1635 C1634 1.363 . S
C1635 C1636 1.385 . S
C1636 H1604 0.930 . S
C1636 C1635 1.385 . S
C1636 C1637 1.357 . S
C1637 C1636 1.357 . S
C1637 C1638 1.406 . S
C1638 H1605 0.929 . S
C1638 C1637 1.406 . S
C1638 C1639 1.391 . S
C1639 H1606 0.931 . S
C1639 C1634 1.370 . S
C1639 C1638 1.391 . S
C1640 N1614 1.435 . S
C1640 C1641 1.358 . S
C1640 C1645 1.371 . S
C1641 H1607 0.930 . S
C1641 C1640 1.358 . S
C1641 C1642 1.405 . S
C1642 H1608 0.932 . S
C1642 C1641 1.405 . S
C1642 C1643 1.383 . S
C1643 C1642 1.383 . S
C1643 C1644 1.393 . S
C1644 H1609 0.931 . S
C1644 C1643 1.393 . S
C1644 C1645 1.382 . S
C1645 H1610 0.929 . S
C1645 C1640 1.371 . S
C1645 C1644 1.382 . S
C1646 N1614 1.423 . S
C1646 C1647 1.362 . S
C1646 C1651 1.388 . S
C1647 H1611 0.929 . S
C1647 C1646 1.362 . S
C1647 C1648 1.376 . S
C1648 H1612 0.931 . S
C1648 C1647 1.376 . S
C1648 C1649 1.396 . S
C1649 C1631 1.472 1_565 S
C1649 C1648 1.396 . S
C1649 C1650 1.348 . S
C1650 H1613 0.929 . S
C1650 C1649 1.348 . S
C1650 C1651 1.443 . S
C1651 H1615 0.932 . S
C1651 C1646 1.388 . S
C1651 C1650 1.443 . S
H1652 C1679 0.929 . S
N1653 C1678 1.433 . S
N1653 C1684 1.435 . S
N1653 C1690 1.423 . S
H1654 C1680 0.930 . S
H1655 C1683 0.931 . S
H1656 C1682 0.929 . S
H1657 C1685 0.930 . S
H1658 C1686 0.932 . S
H1659 C1689 0.929 . S
H1660 C1688 0.931 . S
H1661 C1691 0.929 . S
H1662 C1695 0.932 . S
H1663 C1692 0.931 . S
H1664 C1694 0.929 . S
H1665 C1697 0.929 . S
H1666 C1698 0.930 . S
H1667 C1700 0.929 . S
H1668 C1701 0.931 . S
H1669 C1703 0.930 . S
H1670 C1704 0.932 . S
H1671 C1706 0.931 . S
H1672 C1707 0.929 . S
H1673 C1709 0.929 . S
H1674 C1710 0.931 . S
H1675 C1712 0.929 . S
N1676 C1696 1.433 . S
N1676 C1702 1.435 . S
N1676 C1708 1.423 . S
H1677 C1713 0.932 . S
C1678 N1653 1.433 . S
C1678 C1679 1.363 . S
C1678 C1683 1.370 . S
C1679 H1652 0.929 . S
C1679 C1678 1.363 . S
C1679 C1680 1.385 . S
C1680 H1654 0.930 . S
C1680 C1679 1.385 . S
C1680 C1681 1.357 . S
C1681 C1680 1.357 . S
C1681 C1682 1.406 . S
C1682 H1656 0.929 . S
C1682 C1681 1.406 . S
C1682 C1683 1.391 . S
C1683 H1655 0.931 . S
C1683 C1678 1.370 . S
C1683 C1682 1.391 . S
C1684 N1653 1.435 . S
C1684 C1685 1.358 . S
C1684 C1689 1.371 . S
C1685 H1657 0.930 . S
C1685 C1684 1.358 . S
C1685 C1686 1.405 . S
C1686 H1658 0.932 . S
C1686 C1685 1.405 . S
C1686 C1687 1.383 . S
C1687 C1686 1.383 . S
C1687 C1688 1.393 . S
C1688 H1660 0.931 . S
C1688 C1687 1.393 . S
C1688 C1689 1.382 . S
C1689 H1659 0.929 . S
C1689 C1684 1.371 . S
C1689 C1688 1.382 . S
C1690 N1653 1.423 . S
C1690 C1691 1.362 . S
C1690 C1695 1.388 . S
C1691 H1661 0.929 . S
C1691 C1690 1.362 . S
C1691 C1692 1.376 . S
C1692 H1663 0.931 . S
C1692 C1691 1.376 . S
C1692 C1693 1.396 . S
C1693 C1692 1.396 . S
C1693 C1694 1.348 . S
C1693 C1711 1.422 1_455 S
C1694 H1664 0.929 . S
C1694 C1693 1.348 . S
C1694 C1695 1.443 . S
C1695 H1662 0.932 . S
C1695 C1690 1.388 . S
C1695 C1694 1.443 . S
C1696 N1676 1.433 . S
C1696 C1697 1.363 . S
C1696 C1701 1.370 . S
C1697 H1665 0.929 . S
C1697 C1696 1.363 . S
C1697 C1698 1.385 . S
C1698 H1666 0.930 . S
C1698 C1697 1.385 . S
C1698 C1699 1.357 . S
C1699 C1698 1.357 . S
C1699 C1700 1.406 . S
C1700 H1667 0.929 . S
C1700 C1699 1.406 . S
C1700 C1701 1.391 . S
C1701 H1668 0.931 . S
C1701 C1696 1.370 . S
C1701 C1700 1.391 . S
C1702 N1676 1.435 . S
C1702 C1703 1.358 . S
C1702 C1707 1.371 . S
C1703 H1669 0.930 . S
C1703 C1702 1.358 . S
C1703 C1704 1.405 . S
C1704 H1670 0.932 . S
C1704 C1703 1.405 . S
C1704 C1705 1.383 . S
C1705 C1704 1.383 . S
C1705 C1706 1.393 . S
C1706 H1671 0.931 . S
C1706 C1705 1.393 . S
C1706 C1707 1.382 . S
C1707 H1672 0.929 . S
C1707 C1702 1.371 . S
C1707 C1706 1.382 . S
C1708 N1676 1.423 . S
C1708 C1709 1.362 . S
C1708 C1713 1.388 . S
C1709 H1673 0.929 . S
C1709 C1708 1.362 . S
C1709 C1710 1.376 . S
C1710 H1674 0.931 . S
C1710 C1709 1.376 . S
C1710 C1711 1.424 . S
C1711 C1693 1.422 1_655 S
C1711 C1710 1.424 . S
C1711 C1712 1.374 . S
C1712 H1675 0.929 . S
C1712 C1711 1.374 . S
C1712 C1713 1.443 . S
C1713 H1677 0.932 . S
C1713 C1708 1.388 . S
C1713 C1712 1.443 . S
H1714 C1741 0.929 . S
N1715 C1740 1.433 . S
N1715 C1746 1.435 . S
N1715 C1752 1.423 . S
H1716 C1742 0.930 . S
H1717 C1745 0.931 . S
H1718 C1744 0.929 . S
H1719 C1747 0.930 . S
H1720 C1748 0.932 . S
H1721 C1751 0.929 . S
H1722 C1750 0.931 . S
H1723 C1753 0.929 . S
H1724 C1757 0.932 . S
H1725 C1754 0.931 . S
H1726 C1756 0.929 . S
H1727 C1759 0.929 . S
H1728 C1760 0.930 . S
H1729 C1762 0.929 . S
H1730 C1763 0.931 . S
H1731 C1765 0.930 . S
H1732 C1766 0.932 . S
H1733 C1768 0.931 . S
H1734 C1769 0.929 . S
H1735 C1771 0.929 . S
H1736 C1772 0.931 . S
H1737 C1774 0.929 . S
N1738 C1758 1.433 . S
N1738 C1764 1.435 . S
N1738 C1770 1.423 . S
H1739 C1775 0.932 . S
C1740 N1715 1.433 . S
C1740 C1741 1.363 . S
C1740 C1745 1.370 . S
C1741 H1714 0.929 . S
C1741 C1740 1.363 . S
C1741 C1742 1.385 . S
C1742 H1716 0.930 . S
C1742 C1741 1.385 . S
C1742 C1743 1.357 . S
C1743 C1742 1.357 . S
C1743 C1744 1.406 . S
C1744 H1718 0.929 . S
C1744 C1743 1.406 . S
C1744 C1745 1.391 . S
C1745 H1717 0.931 . S
C1745 C1740 1.370 . S
C1745 C1744 1.391 . S
C1746 N1715 1.435 . S
C1746 C1747 1.358 . S
C1746 C1751 1.371 . S
C1747 H1719 0.930 . S
C1747 C1746 1.358 . S
C1747 C1748 1.405 . S
C1748 H1720 0.932 . S
C1748 C1747 1.405 . S
C1748 C1749 1.383 . S
C1749 C1748 1.383 . S
C1749 C1750 1.393 . S
C1750 H1722 0.931 . S
C1750 C1749 1.393 . S
C1750 C1751 1.382 . S
C1751 H1721 0.929 . S
C1751 C1746 1.371 . S
C1751 C1750 1.382 . S
C1752 N1715 1.423 . S
C1752 C1753 1.362 . S
C1752 C1757 1.388 . S
C1753 H1723 0.929 . S
C1753 C1752 1.362 . S
C1753 C1754 1.376 . S
C1754 H1725 0.931 . S
C1754 C1753 1.376 . S
C1754 C1755 1.396 . S
C1755 C1754 1.396 . S
C1755 C1756 1.348 . S
C1755 C1773 1.472 1_565 S
C1756 H1726 0.929 . S
C1756 C1755 1.348 . S
C1756 C1757 1.443 . S
C1757 H1724 0.932 . S
C1757 C1752 1.388 . S
C1757 C1756 1.443 . S
C1758 N1738 1.433 . S
C1758 C1759 1.363 . S
C1758 C1763 1.370 . S
C1759 H1727 0.929 . S
C1759 C1758 1.363 . S
C1759 C1760 1.385 . S
C1760 H1728 0.930 . S
C1760 C1759 1.385 . S
C1760 C1761 1.357 . S
C1761 C1760 1.357 . S
C1761 C1762 1.406 . S
C1762 H1729 0.929 . S
C1762 C1761 1.406 . S
C1762 C1763 1.391 . S
C1763 H1730 0.931 . S
C1763 C1758 1.370 . S
C1763 C1762 1.391 . S
C1764 N1738 1.435 . S
C1764 C1765 1.358 . S
C1764 C1769 1.371 . S
C1765 H1731 0.930 . S
C1765 C1764 1.358 . S
C1765 C1766 1.405 . S
C1766 H1732 0.932 . S
C1766 C1765 1.405 . S
C1766 C1767 1.383 . S
C1767 C1766 1.383 . S
C1767 C1768 1.393 . S
C1768 H1733 0.931 . S
C1768 C1767 1.393 . S
C1768 C1769 1.382 . S
C1769 H1734 0.929 . S
C1769 C1764 1.371 . S
C1769 C1768 1.382 . S
C1770 N1738 1.423 . S
C1770 C1771 1.362 . S
C1770 C1775 1.388 . S
C1771 H1735 0.929 . S
C1771 C1770 1.362 . S
C1771 C1772 1.376 . S
C1772 H1736 0.931 . S
C1772 C1771 1.376 . S
C1772 C1773 1.396 . S
C1773 C1755 1.472 1_545 S
C1773 C1772 1.396 . S
C1773 C1774 1.348 . S
C1774 H1737 0.929 . S
C1774 C1773 1.348 . S
C1774 C1775 1.443 . S
C1775 H1739 0.932 . S
C1775 C1770 1.388 . S
C1775 C1774 1.443 . S
H1776 C1803 0.929 . S
N1777 C1802 1.433 . S
N1777 C1808 1.435 . S
N1777 C1814 1.423 . S
H1778 C1804 0.930 . S
H1779 C1807 0.931 . S
H1780 C1806 0.929 . S
H1781 C1809 0.930 . S
H1782 C1810 0.932 . S
H1783 C1813 0.929 . S
H1784 C1812 0.931 . S
H1785 C1815 0.929 . S
H1786 C1819 0.932 . S
H1787 C1816 0.931 . S
H1788 C1818 0.929 . S
H1789 C1821 0.929 . S
H1790 C1822 0.930 . S
H1791 C1824 0.929 . S
H1792 C1825 0.931 . S
H1793 C1827 0.930 . S
H1794 C1828 0.932 . S
H1795 C1830 0.931 . S
H1796 C1831 0.929 . S
H1797 C1833 0.929 . S
H1798 C1834 0.931 . S
H1799 C1836 0.929 . S
N1800 C1820 1.433 . S
N1800 C1826 1.435 . S
N1800 C1832 1.423 . S
H1801 C1837 0.932 . S
C1802 N1777 1.433 . S
C1802 C1803 1.363 . S
C1802 C1807 1.370 . S
C1803 H1776 0.929 . S
C1803 C1802 1.363 . S
C1803 C1804 1.385 . S
C1804 H1778 0.930 . S
C1804 C1803 1.385 . S
C1804 C1805 1.357 . S
C1805 C1804 1.357 . S
C1805 C1806 1.406 . S
C1806 H1780 0.929 . S
C1806 C1805 1.406 . S
C1806 C1807 1.391 . S
C1807 H1779 0.931 . S
C1807 C1802 1.370 . S
C1807 C1806 1.391 . S
C1808 N1777 1.435 . S
C1808 C1809 1.358 . S
C1808 C1813 1.371 . S
C1809 H1781 0.930 . S
C1809 C1808 1.358 . S
C1809 C1810 1.405 . S
C1810 H1782 0.932 . S
C1810 C1809 1.405 . S
C1810 C1811 1.383 . S
C1811 C1810 1.383 . S
C1811 C1812 1.393 . S
C1812 H1784 0.931 . S
C1812 C1811 1.393 . S
C1812 C1813 1.382 . S
C1813 H1783 0.929 . S
C1813 C1808 1.371 . S
C1813 C1812 1.382 . S
C1814 N1777 1.423 . S
C1814 C1815 1.362 . S
C1814 C1819 1.388 . S
C1815 H1785 0.929 . S
C1815 C1814 1.362 . S
C1815 C1816 1.376 . S
C1816 H1787 0.931 . S
C1816 C1815 1.376 . S
C1816 C1817 1.396 . S
C1817 C1816 1.396 . S
C1817 C1818 1.348 . S
C1817 C1835 1.491 . S
C1818 H1788 0.929 . S
C1818 C1817 1.348 . S
C1818 C1819 1.443 . S
C1819 H1786 0.932 . S
C1819 C1814 1.388 . S
C1819 C1818 1.443 . S
C1820 N1800 1.433 . S
C1820 C1821 1.363 . S
C1820 C1825 1.370 . S
C1821 H1789 0.929 . S
C1821 C1820 1.363 . S
C1821 C1822 1.385 . S
C1822 H1790 0.930 . S
C1822 C1821 1.385 . S
C1822 C1823 1.357 . S
C1823 C1822 1.357 . S
C1823 C1824 1.406 . S
C1824 H1791 0.929 . S
C1824 C1823 1.406 . S
C1824 C1825 1.391 . S
C1825 H1792 0.931 . S
C1825 C1820 1.370 . S
C1825 C1824 1.391 . S
C1826 N1800 1.435 . S
C1826 C1827 1.358 . S
C1826 C1831 1.371 . S
C1827 H1793 0.930 . S
C1827 C1826 1.358 . S
C1827 C1828 1.405 . S
C1828 H1794 0.932 . S
C1828 C1827 1.405 . S
C1828 C1829 1.383 . S
C1829 C1828 1.383 . S
C1829 C1830 1.393 . S
C1830 H1795 0.931 . S
C1830 C1829 1.393 . S
C1830 C1831 1.382 . S
C1831 H1796 0.929 . S
C1831 C1826 1.371 . S
C1831 C1830 1.382 . S
C1832 N1800 1.423 . S
C1832 C1833 1.362 . S
C1832 C1837 1.388 . S
C1833 H1797 0.929 . S
C1833 C1832 1.362 . S
C1833 C1834 1.376 . S
C1834 H1798 0.931 . S
C1834 C1833 1.376 . S
C1834 C1835 1.386 1_655 S
C1835 C1817 1.491 . S
C1835 C1834 1.386 1_455 S
C1835 C1836 1.339 1_455 S
C1836 H1799 0.929 . S
C1836 C1835 1.339 1_655 S
C1836 C1837 1.443 . S
C1837 H1801 0.932 . S
C1837 C1832 1.388 . S
C1837 C1836 1.443 . S
H1838 C1865 0.929 . S
N1839 C1864 1.433 . S
N1839 C1870 1.435 . S
N1839 C1876 1.423 . S
H1840 C1866 0.930 . S
H1841 C1869 0.931 . S
H1842 C1868 0.929 . S
H1843 C1871 0.930 . S
H1844 C1872 0.932 . S
H1845 C1875 0.929 . S
H1846 C1874 0.931 . S
H1847 C1877 0.929 . S
H1848 C1881 0.932 . S
H1849 C1878 0.931 . S
H1850 C1880 0.929 . S
H1851 C1883 0.929 . S
H1852 C1884 0.930 . S
H1853 C1886 0.929 . S
H1854 C1887 0.931 . S
H1855 C1889 0.930 . S
H1856 C1890 0.932 . S
H1857 C1892 0.931 . S
H1858 C1893 0.929 . S
H1859 C1895 0.929 . S
H1860 C1896 0.931 . S
H1861 C1898 0.929 . S
N1862 C1882 1.433 . S
N1862 C1888 1.435 . S
N1862 C1894 1.423 . S
H1863 C1899 0.932 . S
C1864 N1839 1.433 . S
C1864 C1865 1.363 . S
C1864 C1869 1.370 . S
C1865 H1838 0.929 . S
C1865 C1864 1.363 . S
C1865 C1866 1.385 . S
C1866 H1840 0.930 . S
C1866 C1865 1.385 . S
C1866 C1867 1.357 . S
C1867 C1866 1.357 . S
C1867 C1868 1.406 . S
C1868 H1842 0.929 . S
C1868 C1867 1.406 . S
C1868 C1869 1.391 . S
C1869 H1841 0.931 . S
C1869 C1864 1.370 . S
C1869 C1868 1.391 . S
C1870 N1839 1.435 . S
C1870 C1871 1.358 . S
C1870 C1875 1.371 . S
C1871 H1843 0.930 . S
C1871 C1870 1.358 . S
C1871 C1872 1.405 . S
C1872 H1844 0.932 . S
C1872 C1871 1.405 . S
C1872 C1873 1.383 . S
C1873 C1872 1.383 . S
C1873 C1874 1.393 . S
C1874 H1846 0.931 . S
C1874 C1873 1.393 . S
C1874 C1875 1.382 . S
C1875 H1845 0.929 . S
C1875 C1870 1.371 . S
C1875 C1874 1.382 . S
C1876 N1839 1.423 . S
C1876 C1877 1.362 . S
C1876 C1881 1.388 . S
C1877 H1847 0.929 . S
C1877 C1876 1.362 . S
C1877 C1878 1.376 . S
C1878 H1849 0.931 . S
C1878 C1877 1.376 . S
C1878 C1879 1.396 . S
C1879 C1878 1.396 . S
C1879 C1880 1.348 . S
C1879 C1897 1.472 1_545 S
C1880 H1850 0.929 . S
C1880 C1879 1.348 . S
C1880 C1881 1.443 . S
C1881 H1848 0.932 . S
C1881 C1876 1.388 . S
C1881 C1880 1.443 . S
C1882 N1862 1.433 . S
C1882 C1883 1.363 . S
C1882 C1887 1.370 . S
C1883 H1851 0.929 . S
C1883 C1882 1.363 . S
C1883 C1884 1.385 . S
C1884 H1852 0.930 . S
C1884 C1883 1.385 . S
C1884 C1885 1.357 . S
C1885 C1884 1.357 . S
C1885 C1886 1.406 . S
C1886 H1853 0.929 . S
C1886 C1885 1.406 . S
C1886 C1887 1.391 . S
C1887 H1854 0.931 . S
C1887 C1882 1.370 . S
C1887 C1886 1.391 . S
C1888 N1862 1.435 . S
C1888 C1889 1.358 . S
C1888 C1893 1.371 . S
C1889 H1855 0.930 . S
C1889 C1888 1.358 . S
C1889 C1890 1.405 . S
C1890 H1856 0.932 . S
C1890 C1889 1.405 . S
C1890 C1891 1.383 . S
C1891 C1890 1.383 . S
C1891 C1892 1.393 . S
C1892 H1857 0.931 . S
C1892 C1891 1.393 . S
C1892 C1893 1.382 . S
C1893 H1858 0.929 . S
C1893 C1888 1.371 . S
C1893 C1892 1.382 . S
C1894 N1862 1.423 . S
C1894 C1895 1.362 . S
C1894 C1899 1.388 . S
C1895 H1859 0.929 . S
C1895 C1894 1.362 . S
C1895 C1896 1.376 . S
C1896 H1860 0.931 . S
C1896 C1895 1.376 . S
C1896 C1897 1.396 . S
C1897 C1879 1.472 1_565 S
C1897 C1896 1.396 . S
C1897 C1898 1.348 . S
C1898 H1861 0.929 . S
C1898 C1897 1.348 . S
C1898 C1899 1.443 . S
C1899 H1863 0.932 . S
C1899 C1894 1.388 . S
C1899 C1898 1.443 . S
H1900 C1927 0.929 . S
N1901 C1926 1.433 . S
N1901 C1932 1.435 . S
N1901 C1938 1.423 . S
H1902 C1928 0.930 . S
H1903 C1931 0.931 . S
H1904 C1930 0.929 . S
H1905 C1933 0.930 . S
H1906 C1934 0.932 . S
H1907 C1937 0.929 . S
H1908 C1936 0.931 . S
H1909 C1939 0.929 . S
H1910 C1943 0.932 . S
H1911 C1940 0.931 . S
H1912 C1942 0.929 . S
H1913 C1945 0.929 . S
H1914 C1946 0.930 . S
H1915 C1948 0.929 . S
H1916 C1949 0.931 . S
H1917 C1951 0.930 . S
H1918 C1952 0.932 . S
H1919 C1954 0.931 . S
H1920 C1955 0.929 . S
H1921 C1957 0.929 . S
H1922 C1958 0.931 . S
H1923 C1960 0.929 . S
N1924 C1944 1.433 . S
N1924 C1950 1.435 . S
N1924 C1956 1.423 . S
H1925 C1961 0.932 . S
C1926 N1901 1.433 . S
C1926 C1927 1.363 . S
C1926 C1931 1.370 . S
C1927 H1900 0.929 . S
C1927 C1926 1.363 . S
C1927 C1928 1.385 . S
C1928 H1902 0.930 . S
C1928 C1927 1.385 . S
C1928 C1929 1.357 . S
C1929 C1928 1.357 . S
C1929 C1930 1.406 . S
C1930 H1904 0.929 . S
C1930 C1929 1.406 . S
C1930 C1931 1.391 . S
C1931 H1903 0.931 . S
C1931 C1926 1.370 . S
C1931 C1930 1.391 . S
C1932 N1901 1.435 . S
C1932 C1933 1.358 . S
C1932 C1937 1.371 . S
C1933 H1905 0.930 . S
C1933 C1932 1.358 . S
C1933 C1934 1.405 . S
C1934 H1906 0.932 . S
C1934 C1933 1.405 . S
C1934 C1935 1.383 . S
C1935 C1934 1.383 . S
C1935 C1936 1.393 . S
C1936 H1908 0.931 . S
C1936 C1935 1.393 . S
C1936 C1937 1.382 . S
C1937 H1907 0.929 . S
C1937 C1932 1.371 . S
C1937 C1936 1.382 . S
C1938 N1901 1.423 . S
C1938 C1939 1.362 . S
C1938 C1943 1.388 . S
C1939 H1909 0.929 . S
C1939 C1938 1.362 . S
C1939 C1940 1.376 . S
C1940 H1911 0.931 . S
C1940 C1939 1.376 . S
C1940 C1941 1.396 . S
C1941 C1940 1.396 . S
C1941 C1942 1.348 . S
C1941 C1959 1.472 1_655 S
C1942 H1912 0.929 . S
C1942 C1941 1.348 . S
C1942 C1943 1.443 . S
C1943 H1910 0.932 . S
C1943 C1938 1.388 . S
C1943 C1942 1.443 . S
C1944 N1924 1.433 . S
C1944 C1945 1.363 . S
C1944 C1949 1.370 . S
C1945 H1913 0.929 . S
C1945 C1944 1.363 . S
C1945 C1946 1.385 . S
C1946 H1914 0.930 . S
C1946 C1945 1.385 . S
C1946 C1947 1.357 . S
C1947 C1946 1.357 . S
C1947 C1948 1.406 . S
C1948 H1915 0.929 . S
C1948 C1947 1.406 . S
C1948 C1949 1.391 . S
C1949 H1916 0.931 . S
C1949 C1944 1.370 . S
C1949 C1948 1.391 . S
C1950 N1924 1.435 . S
C1950 C1951 1.358 . S
C1950 C1955 1.371 . S
C1951 H1917 0.930 . S
C1951 C1950 1.358 . S
C1951 C1952 1.405 . S
C1952 H1918 0.932 . S
C1952 C1951 1.405 . S
C1952 C1953 1.383 . S
C1953 C1952 1.383 . S
C1953 C1954 1.393 . S
C1954 H1919 0.931 . S
C1954 C1953 1.393 . S
C1954 C1955 1.382 . S
C1955 H1920 0.929 . S
C1955 C1950 1.371 . S
C1955 C1954 1.382 . S
C1956 N1924 1.423 . S
C1956 C1957 1.362 . S
C1956 C1961 1.388 . S
C1957 H1921 0.929 . S
C1957 C1956 1.362 . S
C1957 C1958 1.376 . S
C1958 H1922 0.931 . S
C1958 C1957 1.376 . S
C1958 C1959 1.396 . S
C1959 C1941 1.472 1_455 S
C1959 C1958 1.396 . S
C1959 C1960 1.348 . S
C1960 H1923 0.929 . S
C1960 C1959 1.348 . S
C1960 C1961 1.443 . S
C1961 H1925 0.932 . S
C1961 C1956 1.388 . S
C1961 C1960 1.443 . S
H1962 C1989 0.929 . S
N1963 C1988 1.433 . S
N1963 C1994 1.435 . S
N1963 C2000 1.423 . S
H1964 C1990 0.930 . S
H1965 C1993 0.931 . S
H1966 C1992 0.929 . S
H1967 C1995 0.930 . S
H1968 C1996 0.932 . S
H1969 C1999 0.929 . S
H1970 C1998 0.931 . S
H1971 C2001 0.929 . S
H1972 C2005 0.932 . S
H1973 C2002 0.931 . S
H1974 C2004 0.929 . S
H1975 C2007 0.929 . S
H1976 C2008 0.930 . S
H1977 C2010 0.929 . S
H1978 C2011 0.931 . S
H1979 C2013 0.930 . S
H1980 C2014 0.932 . S
H1981 C2016 0.931 . S
H1982 C2017 0.929 . S
H1983 C2019 0.929 . S
H1984 C2020 0.931 . S
H1985 C2022 0.929 . S
N1986 C2006 1.433 . S
N1986 C2012 1.435 . S
N1986 C2018 1.423 . S
H1987 C2023 0.932 . S
C1988 N1963 1.433 . S
C1988 C1989 1.363 . S
C1988 C1993 1.370 . S
C1989 H1962 0.929 . S
C1989 C1988 1.363 . S
C1989 C1990 1.385 . S
C1990 H1964 0.930 . S
C1990 C1989 1.385 . S
C1990 C1991 1.357 . S
C1991 C1990 1.357 . S
C1991 C1992 1.406 . S
C1992 H1966 0.929 . S
C1992 C1991 1.406 . S
C1992 C1993 1.391 . S
C1993 H1965 0.931 . S
C1993 C1988 1.370 . S
C1993 C1992 1.391 . S
C1994 N1963 1.435 . S
C1994 C1995 1.358 . S
C1994 C1999 1.371 . S
C1995 H1967 0.930 . S
C1995 C1994 1.358 . S
C1995 C1996 1.405 . S
C1996 H1968 0.932 . S
C1996 C1995 1.405 . S
C1996 C1997 1.383 . S
C1997 C1996 1.383 . S
C1997 C1998 1.393 . S
C1998 H1970 0.931 . S
C1998 C1997 1.393 . S
C1998 C1999 1.382 . S
C1999 H1969 0.929 . S
C1999 C1994 1.371 . S
C1999 C1998 1.382 . S
C2000 N1963 1.423 . S
C2000 C2001 1.362 . S
C2000 C2005 1.388 . S
C2001 H1971 0.929 . S
C2001 C2000 1.362 . S
C2001 C2002 1.376 . S
C2002 H1973 0.931 . S
C2002 C2001 1.376 . S
C2002 C2003 1.396 . S
C2003 C2002 1.396 . S
C2003 C2004 1.348 . S
C2003 C2021 1.472 1_565 S
C2004 H1974 0.929 . S
C2004 C2003 1.348 . S
C2004 C2005 1.443 . S
C2005 H1972 0.932 . S
C2005 C2000 1.388 . S
C2005 C2004 1.443 . S
C2006 N1986 1.433 . S
C2006 C2007 1.363 . S
C2006 C2011 1.370 . S
C2007 H1975 0.929 . S
C2007 C2006 1.363 . S
C2007 C2008 1.385 . S
C2008 H1976 0.930 . S
C2008 C2007 1.385 . S
C2008 C2009 1.357 . S
C2009 C2008 1.357 . S
C2009 C2010 1.406 . S
C2010 H1977 0.929 . S
C2010 C2009 1.406 . S
C2010 C2011 1.391 . S
C2011 H1978 0.931 . S
C2011 C2006 1.370 . S
C2011 C2010 1.391 . S
C2012 N1986 1.435 . S
C2012 C2013 1.358 . S
C2012 C2017 1.371 . S
C2013 H1979 0.930 . S
C2013 C2012 1.358 . S
C2013 C2014 1.405 . S
C2014 H1980 0.932 . S
C2014 C2013 1.405 . S
C2014 C2015 1.383 . S
C2015 C2014 1.383 . S
C2015 C2016 1.393 . S
C2016 H1981 0.931 . S
C2016 C2015 1.393 . S
C2016 C2017 1.382 . S
C2017 H1982 0.929 . S
C2017 C2012 1.371 . S
C2017 C2016 1.382 . S
C2018 N1986 1.423 . S
C2018 C2019 1.362 . S
C2018 C2023 1.388 . S
C2019 H1983 0.929 . S
C2019 C2018 1.362 . S
C2019 C2020 1.376 . S
C2020 H1984 0.931 . S
C2020 C2019 1.376 . S
C2020 C2021 1.396 . S
C2021 C2003 1.472 1_545 S
C2021 C2020 1.396 . S
C2021 C2022 1.348 . S
C2022 H1985 0.929 . S
C2022 C2021 1.348 . S
C2022 C2023 1.443 . S
C2023 H1987 0.932 . S
C2023 C2018 1.388 . S
C2023 C2022 1.443 . S
H2024 C2051 0.929 . S
N2025 C2050 1.433 . S
N2025 C2056 1.435 . S
N2025 C2062 1.423 . S
H2026 C2052 0.930 . S
H2027 C2055 0.931 . S
H2028 C2054 0.929 . S
H2029 C2057 0.930 . S
H2030 C2058 0.932 . S
H2031 C2061 0.929 . S
H2032 C2060 0.931 . S
H2033 C2063 0.929 . S
H2034 C2067 0.932 . S
H2035 C2064 0.931 . S
H2036 C2066 0.929 . S
H2037 C2069 0.929 . S
H2038 C2070 0.930 . S
H2039 C2072 0.929 . S
H2040 C2073 0.931 . S
H2041 C2075 0.930 . S
H2042 C2076 0.932 . S
H2043 C2078 0.931 . S
H2044 C2079 0.929 . S
H2045 C2081 0.929 . S
H2046 C2082 0.931 . S
H2047 C2084 0.929 . S
N2048 C2068 1.433 . S
N2048 C2074 1.435 . S
N2048 C2080 1.423 . S
H2049 C2085 0.932 . S
C2050 N2025 1.433 . S
C2050 C2051 1.363 . S
C2050 C2055 1.370 . S
C2051 H2024 0.929 . S
C2051 C2050 1.363 . S
C2051 C2052 1.385 . S
C2052 H2026 0.930 . S
C2052 C2051 1.385 . S
C2052 C2053 1.357 . S
C2053 C2052 1.357 . S
C2053 C2054 1.406 . S
C2054 H2028 0.929 . S
C2054 C2053 1.406 . S
C2054 C2055 1.391 . S
C2055 H2027 0.931 . S
C2055 C2050 1.370 . S
C2055 C2054 1.391 . S
C2056 N2025 1.435 . S
C2056 C2057 1.358 . S
C2056 C2061 1.371 . S
C2057 H2029 0.930 . S
C2057 C2056 1.358 . S
C2057 C2058 1.405 . S
C2058 H2030 0.932 . S
C2058 C2057 1.405 . S
C2058 C2059 1.383 . S
C2059 C2058 1.383 . S
C2059 C2060 1.393 . S
C2060 H2032 0.931 . S
C2060 C2059 1.393 . S
C2060 C2061 1.382 . S
C2061 H2031 0.929 . S
C2061 C2056 1.371 . S
C2061 C2060 1.382 . S
C2062 N2025 1.423 . S
C2062 C2063 1.362 . S
C2062 C2067 1.388 . S
C2063 H2033 0.929 . S
C2063 C2062 1.362 . S
C2063 C2064 1.376 . S
C2064 H2035 0.931 . S
C2064 C2063 1.376 . S
C2064 C2065 1.396 . S
C2065 C2064 1.396 . S
C2065 C2066 1.348 . S
C2065 C2083 1.472 . S
C2066 H2036 0.929 . S
C2066 C2065 1.348 . S
C2066 C2067 1.443 . S
C2067 H2034 0.932 . S
C2067 C2062 1.388 . S
C2067 C2066 1.443 . S
C2068 N2048 1.433 . S
C2068 C2069 1.363 . S
C2068 C2073 1.370 . S
C2069 H2037 0.929 . S
C2069 C2068 1.363 . S
C2069 C2070 1.385 . S
C2070 H2038 0.930 . S
C2070 C2069 1.385 . S
C2070 C2071 1.357 . S
C2071 C2070 1.357 . S
C2071 C2072 1.406 . S
C2072 H2039 0.929 . S
C2072 C2071 1.406 . S
C2072 C2073 1.391 . S
C2073 H2040 0.931 . S
C2073 C2068 1.370 . S
C2073 C2072 1.391 . S
C2074 N2048 1.435 . S
C2074 C2075 1.358 . S
C2074 C2079 1.371 . S
C2075 H2041 0.930 . S
C2075 C2074 1.358 . S
C2075 C2076 1.405 . S
C2076 H2042 0.932 . S
C2076 C2075 1.405 . S
C2076 C2077 1.383 . S
C2077 C2076 1.383 . S
C2077 C2078 1.393 . S
C2078 H2043 0.931 . S
C2078 C2077 1.393 . S
C2078 C2079 1.382 . S
C2079 H2044 0.929 . S
C2079 C2074 1.371 . S
C2079 C2078 1.382 . S
C2080 N2048 1.423 . S
C2080 C2081 1.362 . S
C2080 C2085 1.388 . S
C2081 H2045 0.929 . S
C2081 C2080 1.362 . S
C2081 C2082 1.376 . S
C2082 H2046 0.931 . S
C2082 C2081 1.376 . S
C2082 C2083 1.396 . S
C2083 C2065 1.472 . S
C2083 C2082 1.396 . S
C2083 C2084 1.348 . S
C2084 H2047 0.929 . S
C2084 C2083 1.348 . S
C2084 C2085 1.443 . S
C2085 H2049 0.932 . S
C2085 C2080 1.388 . S
C2085 C2084 1.443 . S
H2086 C2113 0.929 . S
N2087 C2112 1.433 . S
N2087 C2118 1.435 . S
N2087 C2124 1.423 . S
H2088 C2114 0.930 . S
H2089 C2117 0.931 . S
H2090 C2116 0.929 . S
H2091 C2119 0.930 . S
H2092 C2120 0.932 . S
H2093 C2123 0.929 . S
H2094 C2122 0.931 . S
H2095 C2125 0.929 . S
H2096 C2129 0.932 . S
H2097 C2126 0.931 . S
H2098 C2128 0.929 . S
H2099 C2131 0.929 . S
H2100 C2132 0.930 . S
H2101 C2134 0.929 . S
H2102 C2135 0.931 . S
H2103 C2137 0.930 . S
H2104 C2138 0.932 . S
H2105 C2140 0.931 . S
H2106 C2141 0.929 . S
H2107 C2143 0.929 . S
H2108 C2144 0.931 . S
H2109 C2146 0.929 . S
N2110 C2130 1.433 . S
N2110 C2136 1.435 . S
N2110 C2142 1.423 . S
H2111 C2147 0.932 . S
C2112 N2087 1.433 . S
C2112 C2113 1.363 . S
C2112 C2117 1.370 . S
C2113 H2086 0.929 . S
C2113 C2112 1.363 . S
C2113 C2114 1.385 . S
C2114 H2088 0.930 . S
C2114 C2113 1.385 . S
C2114 C2115 1.357 . S
C2115 C2114 1.357 . S
C2115 C2116 1.406 . S
C2116 H2090 0.929 . S
C2116 C2115 1.406 . S
C2116 C2117 1.391 . S
C2117 H2089 0.931 . S
C2117 C2112 1.370 . S
C2117 C2116 1.391 . S
C2118 N2087 1.435 . S
C2118 C2119 1.358 . S
C2118 C2123 1.371 . S
C2119 H2091 0.930 . S
C2119 C2118 1.358 . S
C2119 C2120 1.405 . S
C2120 H2092 0.932 . S
C2120 C2119 1.405 . S
C2120 C2121 1.383 . S
C2121 C2120 1.383 . S
C2121 C2122 1.393 . S
C2122 H2094 0.931 . S
C2122 C2121 1.393 . S
C2122 C2123 1.382 . S
C2123 H2093 0.929 . S
C2123 C2118 1.371 . S
C2123 C2122 1.382 . S
C2124 N2087 1.423 . S
C2124 C2125 1.362 . S
C2124 C2129 1.388 . S
C2125 H2095 0.929 . S
C2125 C2124 1.362 . S
C2125 C2126 1.376 . S
C2126 H2097 0.931 . S
C2126 C2125 1.376 . S
C2126 C2127 1.396 . S
C2127 C2126 1.396 . S
C2127 C2128 1.348 . S
C2127 C2145 1.472 . S
C2128 H2098 0.929 . S
C2128 C2127 1.348 . S
C2128 C2129 1.443 . S
C2129 H2096 0.932 . S
C2129 C2124 1.388 . S
C2129 C2128 1.443 . S
C2130 N2110 1.433 . S
C2130 C2131 1.363 . S
C2130 C2135 1.370 . S
C2131 H2099 0.929 . S
C2131 C2130 1.363 . S
C2131 C2132 1.385 . S
C2132 H2100 0.930 . S
C2132 C2131 1.385 . S
C2132 C2133 1.357 . S
C2133 C2132 1.357 . S
C2133 C2134 1.406 . S
C2134 H2101 0.929 . S
C2134 C2133 1.406 . S
C2134 C2135 1.391 . S
C2135 H2102 0.931 . S
C2135 C2130 1.370 . S
C2135 C2134 1.391 . S
C2136 N2110 1.435 . S
C2136 C2137 1.358 . S
C2136 C2141 1.371 . S
C2137 H2103 0.930 . S
C2137 C2136 1.358 . S
C2137 C2138 1.405 . S
C2138 H2104 0.932 . S
C2138 C2137 1.405 . S
C2138 C2139 1.383 . S
C2139 C2138 1.383 . S
C2139 C2140 1.393 . S
C2140 H2105 0.931 . S
C2140 C2139 1.393 . S
C2140 C2141 1.382 . S
C2141 H2106 0.929 . S
C2141 C2136 1.371 . S
C2141 C2140 1.382 . S
C2142 N2110 1.423 . S
C2142 C2143 1.362 . S
C2142 C2147 1.388 . S
C2143 H2107 0.929 . S
C2143 C2142 1.362 . S
C2143 C2144 1.376 . S
C2144 H2108 0.931 . S
C2144 C2143 1.376 . S
C2144 C2145 1.396 . S
C2145 C2127 1.472 . S
C2145 C2144 1.396 . S
C2145 C2146 1.348 . S
C2146 H2109 0.929 . S
C2146 C2145 1.348 . S
C2146 C2147 1.443 . S
C2147 H2111 0.932 . S
C2147 C2142 1.388 . S
C2147 C2146 1.443 . S
H2148 C2175 0.929 . S
N2149 C2174 1.433 . S
N2149 C2180 1.435 . S
N2149 C2186 1.423 . S
H2150 C2176 0.930 . S
H2151 C2179 0.931 . S
H2152 C2178 0.929 . S
H2153 C2181 0.930 . S
H2154 C2182 0.932 . S
H2155 C2185 0.929 . S
H2156 C2184 0.931 . S
H2157 C2187 0.929 . S
H2158 C2191 0.932 . S
H2159 C2188 0.931 . S
H2160 C2190 0.929 . S
H2161 C2193 0.929 . S
H2162 C2194 0.930 . S
H2163 C2196 0.929 . S
H2164 C2197 0.931 . S
H2165 C2199 0.930 . S
H2166 C2200 0.932 . S
H2167 C2202 0.931 . S
H2168 C2203 0.929 . S
H2169 C2205 0.929 . S
H2170 C2206 0.931 . S
H2171 C2208 0.929 . S
N2172 C2192 1.433 . S
N2172 C2198 1.435 . S
N2172 C2204 1.423 . S
H2173 C2209 0.932 . S
C2174 N2149 1.433 . S
C2174 C2175 1.363 . S
C2174 C2179 1.370 . S
C2175 H2148 0.929 . S
C2175 C2174 1.363 . S
C2175 C2176 1.385 . S
C2176 H2150 0.930 . S
C2176 C2175 1.385 . S
C2176 C2177 1.357 . S
C2177 C2176 1.357 . S
C2177 C2178 1.406 . S
C2178 H2152 0.929 . S
C2178 C2177 1.406 . S
C2178 C2179 1.391 . S
C2179 H2151 0.931 . S
C2179 C2174 1.370 . S
C2179 C2178 1.391 . S
C2180 N2149 1.435 . S
C2180 C2181 1.358 . S
C2180 C2185 1.371 . S
C2181 H2153 0.930 . S
C2181 C2180 1.358 . S
C2181 C2182 1.405 . S
C2182 H2154 0.932 . S
C2182 C2181 1.405 . S
C2182 C2183 1.383 . S
C2183 C2182 1.383 . S
C2183 C2184 1.393 . S
C2184 H2156 0.931 . S
C2184 C2183 1.393 . S
C2184 C2185 1.382 . S
C2185 H2155 0.929 . S
C2185 C2180 1.371 . S
C2185 C2184 1.382 . S
C2186 N2149 1.423 . S
C2186 C2187 1.362 . S
C2186 C2191 1.388 . S
C2187 H2157 0.929 . S
C2187 C2186 1.362 . S
C2187 C2188 1.376 . S
C2188 H2159 0.931 . S
C2188 C2187 1.376 . S
C2188 C2189 1.396 . S
C2189 C2188 1.396 . S
C2189 C2190 1.348 . S
C2189 C2207 1.472 . S
C2190 H2160 0.929 . S
C2190 C2189 1.348 . S
C2190 C2191 1.443 . S
C2191 H2158 0.932 . S
C2191 C2186 1.388 . S
C2191 C2190 1.443 . S
C2192 N2172 1.433 . S
C2192 C2193 1.363 . S
C2192 C2197 1.370 . S
C2193 H2161 0.929 . S
C2193 C2192 1.363 . S
C2193 C2194 1.385 . S
C2194 H2162 0.930 . S
C2194 C2193 1.385 . S
C2194 C2195 1.357 . S
C2195 C2194 1.357 . S
C2195 C2196 1.406 . S
C2196 H2163 0.929 . S
C2196 C2195 1.406 . S
C2196 C2197 1.391 . S
C2197 H2164 0.931 . S
C2197 C2192 1.370 . S
C2197 C2196 1.391 . S
C2198 N2172 1.435 . S
C2198 C2199 1.358 . S
C2198 C2203 1.371 . S
C2199 H2165 0.930 . S
C2199 C2198 1.358 . S
C2199 C2200 1.405 . S
C2200 H2166 0.932 . S
C2200 C2199 1.405 . S
C2200 C2201 1.383 . S
C2201 C2200 1.383 . S
C2201 C2202 1.393 . S
C2202 H2167 0.931 . S
C2202 C2201 1.393 . S
C2202 C2203 1.382 . S
C2203 H2168 0.929 . S
C2203 C2198 1.371 . S
C2203 C2202 1.382 . S
C2204 N2172 1.423 . S
C2204 C2205 1.362 . S
C2204 C2209 1.388 . S
C2205 H2169 0.929 . S
C2205 C2204 1.362 . S
C2205 C2206 1.376 . S
C2206 H2170 0.931 . S
C2206 C2205 1.376 . S
C2206 C2207 1.396 . S
C2207 C2189 1.472 . S
C2207 C2206 1.396 . S
C2207 C2208 1.348 . S
C2208 H2171 0.929 . S
C2208 C2207 1.348 . S
C2208 C2209 1.443 . S
C2209 H2173 0.932 . S
C2209 C2204 1.388 . S
C2209 C2208 1.443 . S
H2210 C2237 0.929 . S
N2211 C2236 1.433 . S
N2211 C2242 1.435 . S
N2211 C2248 1.423 . S
H2212 C2238 0.930 . S
H2213 C2241 0.931 . S
H2214 C2240 0.929 . S
H2215 C2243 0.930 . S
H2216 C2244 0.932 . S
H2217 C2247 0.929 . S
H2218 C2246 0.931 . S
H2219 C2249 0.929 . S
H2220 C2253 0.932 . S
H2221 C2250 0.931 . S
H2222 C2252 0.929 . S
H2223 C2255 0.929 . S
H2224 C2256 0.930 . S
H2225 C2258 0.929 . S
H2226 C2259 0.931 . S
H2227 C2261 0.930 . S
H2228 C2262 0.932 . S
H2229 C2264 0.931 . S
H2230 C2265 0.929 . S
H2231 C2267 0.929 . S
H2232 C2268 0.931 . S
H2233 C2270 0.929 . S
N2234 C2254 1.433 . S
N2234 C2260 1.435 . S
N2234 C2266 1.423 . S
H2235 C2271 0.932 . S
C2236 N2211 1.433 . S
C2236 C2237 1.363 . S
C2236 C2241 1.370 . S
C2237 H2210 0.929 . S
C2237 C2236 1.363 . S
C2237 C2238 1.385 . S
C2238 H2212 0.930 . S
C2238 C2237 1.385 . S
C2238 C2239 1.357 . S
C2239 C2238 1.357 . S
C2239 C2240 1.406 . S
C2240 H2214 0.929 . S
C2240 C2239 1.406 . S
C2240 C2241 1.391 . S
C2241 H2213 0.931 . S
C2241 C2236 1.370 . S
C2241 C2240 1.391 . S
C2242 N2211 1.435 . S
C2242 C2243 1.358 . S
C2242 C2247 1.371 . S
C2243 H2215 0.930 . S
C2243 C2242 1.358 . S
C2243 C2244 1.405 . S
C2244 H2216 0.932 . S
C2244 C2243 1.405 . S
C2244 C2245 1.383 . S
C2245 C2244 1.383 . S
C2245 C2246 1.393 . S
C2246 H2218 0.931 . S
C2246 C2245 1.393 . S
C2246 C2247 1.382 . S
C2247 H2217 0.929 . S
C2247 C2242 1.371 . S
C2247 C2246 1.382 . S
C2248 N2211 1.423 . S
C2248 C2249 1.362 . S
C2248 C2253 1.388 . S
C2249 H2219 0.929 . S
C2249 C2248 1.362 . S
C2249 C2250 1.376 . S
C2250 H2221 0.931 . S
C2250 C2249 1.376 . S
C2250 C2251 1.396 . S
C2251 C2250 1.396 . S
C2251 C2252 1.348 . S
C2251 C2269 1.472 . S
C2252 H2222 0.929 . S
C2252 C2251 1.348 . S
C2252 C2253 1.443 . S
C2253 H2220 0.932 . S
C2253 C2248 1.388 . S
C2253 C2252 1.443 . S
C2254 N2234 1.433 . S
C2254 C2255 1.363 . S
C2254 C2259 1.370 . S
C2255 H2223 0.929 . S
C2255 C2254 1.363 . S
C2255 C2256 1.385 . S
C2256 H2224 0.930 . S
C2256 C2255 1.385 . S
C2256 C2257 1.357 . S
C2257 C2256 1.357 . S
C2257 C2258 1.406 . S
C2258 H2225 0.929 . S
C2258 C2257 1.406 . S
C2258 C2259 1.391 . S
C2259 H2226 0.931 . S
C2259 C2254 1.370 . S
C2259 C2258 1.391 . S
C2260 N2234 1.435 . S
C2260 C2261 1.358 . S
C2260 C2265 1.371 . S
C2261 H2227 0.930 . S
C2261 C2260 1.358 . S
C2261 C2262 1.405 . S
C2262 H2228 0.932 . S
C2262 C2261 1.405 . S
C2262 C2263 1.383 . S
C2263 C2262 1.383 . S
C2263 C2264 1.393 . S
C2264 H2229 0.931 . S
C2264 C2263 1.393 . S
C2264 C2265 1.382 . S
C2265 H2230 0.929 . S
C2265 C2260 1.371 . S
C2265 C2264 1.382 . S
C2266 N2234 1.423 . S
C2266 C2267 1.362 . S
C2266 C2271 1.388 . S
C2267 H2231 0.929 . S
C2267 C2266 1.362 . S
C2267 C2268 1.376 . S
C2268 H2232 0.931 . S
C2268 C2267 1.376 . S
C2268 C2269 1.396 . S
C2269 C2251 1.472 . S
C2269 C2268 1.396 . S
C2269 C2270 1.348 . S
C2270 H2233 0.929 . S
C2270 C2269 1.348 . S
C2270 C2271 1.443 . S
C2271 H2235 0.932 . S
C2271 C2266 1.388 . S
C2271 C2270 1.443 . S
H2272 C2299 0.929 . S
N2273 C2298 1.433 . S
N2273 C2304 1.435 . S
N2273 C2310 1.423 . S
H2274 C2300 0.930 . S
H2275 C2303 0.931 . S
H2276 C2302 0.929 . S
H2277 C2305 0.930 . S
H2278 C2306 0.932 . S
H2279 C2309 0.929 . S
H2280 C2308 0.931 . S
H2281 C2311 0.929 . S
H2282 C2315 0.932 . S
H2283 C2312 0.931 . S
H2284 C2314 0.929 . S
H2285 C2317 0.929 . S
H2286 C2318 0.930 . S
H2287 C2320 0.929 . S
H2288 C2321 0.931 . S
H2289 C2323 0.930 . S
H2290 C2324 0.932 . S
H2291 C2326 0.931 . S
H2292 C2327 0.929 . S
H2293 C2329 0.929 . S
H2294 C2330 0.931 . S
H2295 C2332 0.929 . S
N2296 C2316 1.433 . S
N2296 C2322 1.435 . S
N2296 C2328 1.423 . S
H2297 C2333 0.932 . S
C2298 N2273 1.433 . S
C2298 C2299 1.363 . S
C2298 C2303 1.370 . S
C2299 H2272 0.929 . S
C2299 C2298 1.363 . S
C2299 C2300 1.385 . S
C2300 H2274 0.930 . S
C2300 C2299 1.385 . S
C2300 C2301 1.357 . S
C2301 C2300 1.357 . S
C2301 C2302 1.406 . S
C2302 H2276 0.929 . S
C2302 C2301 1.406 . S
C2302 C2303 1.391 . S
C2303 H2275 0.931 . S
C2303 C2298 1.370 . S
C2303 C2302 1.391 . S
C2304 N2273 1.435 . S
C2304 C2305 1.358 . S
C2304 C2309 1.371 . S
C2305 H2277 0.930 . S
C2305 C2304 1.358 . S
C2305 C2306 1.405 . S
C2306 H2278 0.932 . S
C2306 C2305 1.405 . S
C2306 C2307 1.383 . S
C2307 C2306 1.383 . S
C2307 C2308 1.393 . S
C2308 H2280 0.931 . S
C2308 C2307 1.393 . S
C2308 C2309 1.382 . S
C2309 H2279 0.929 . S
C2309 C2304 1.371 . S
C2309 C2308 1.382 . S
C2310 N2273 1.423 . S
C2310 C2311 1.362 . S
C2310 C2315 1.388 . S
C2311 H2281 0.929 . S
C2311 C2310 1.362 . S
C2311 C2312 1.376 . S
C2312 H2283 0.931 . S
C2312 C2311 1.376 . S
C2312 C2313 1.396 . S
C2313 C2312 1.396 . S
C2313 C2314 1.348 . S
C2313 C2331 1.472 . S
C2314 H2284 0.929 . S
C2314 C2313 1.348 . S
C2314 C2315 1.443 . S
C2315 H2282 0.932 . S
C2315 C2310 1.388 . S
C2315 C2314 1.443 . S
C2316 N2296 1.433 . S
C2316 C2317 1.363 . S
C2316 C2321 1.370 . S
C2317 H2285 0.929 . S
C2317 C2316 1.363 . S
C2317 C2318 1.385 . S
C2318 H2286 0.930 . S
C2318 C2317 1.385 . S
C2318 C2319 1.357 . S
C2319 C2318 1.357 . S
C2319 C2320 1.406 . S
C2320 H2287 0.929 . S
C2320 C2319 1.406 . S
C2320 C2321 1.391 . S
C2321 H2288 0.931 . S
C2321 C2316 1.370 . S
C2321 C2320 1.391 . S
C2322 N2296 1.435 . S
C2322 C2323 1.358 . S
C2322 C2327 1.371 . S
C2323 H2289 0.930 . S
C2323 C2322 1.358 . S
C2323 C2324 1.405 . S
C2324 H2290 0.932 . S
C2324 C2323 1.405 . S
C2324 C2325 1.383 . S
C2325 C2324 1.383 . S
C2325 C2326 1.393 . S
C2326 H2291 0.931 . S
C2326 C2325 1.393 . S
C2326 C2327 1.382 . S
C2327 H2292 0.929 . S
C2327 C2322 1.371 . S
C2327 C2326 1.382 . S
C2328 N2296 1.423 . S
C2328 C2329 1.362 . S
C2328 C2333 1.388 . S
C2329 H2293 0.929 . S
C2329 C2328 1.362 . S
C2329 C2330 1.376 . S
C2330 H2294 0.931 . S
C2330 C2329 1.376 . S
C2330 C2331 1.396 . S
C2331 C2313 1.472 . S
C2331 C2330 1.396 . S
C2331 C2332 1.348 . S
C2332 H2295 0.929 . S
C2332 C2331 1.348 . S
C2332 C2333 1.443 . S
C2333 H2297 0.932 . S
C2333 C2328 1.388 . S
C2333 C2332 1.443 . S
H2334 C2361 0.929 . S
N2335 C2360 1.433 . S
N2335 C2366 1.435 . S
N2335 C2372 1.423 . S
H2336 C2362 0.930 . S
H2337 C2365 0.931 . S
H2338 C2364 0.929 . S
H2339 C2367 0.930 . S
H2340 C2368 0.932 . S
H2341 C2371 0.929 . S
H2342 C2370 0.931 . S
H2343 C2373 0.929 . S
H2344 C2377 0.932 . S
H2345 C2374 0.931 . S
H2346 C2376 0.929 . S
H2347 C2379 0.929 . S
H2348 C2380 0.930 . S
H2349 C2382 0.929 . S
H2350 C2383 0.931 . S
H2351 C2385 0.930 . S
H2352 C2386 0.932 . S
H2353 C2388 0.931 . S
H2354 C2389 0.929 . S
H2355 C2391 0.929 . S
H2356 C2392 0.931 . S
H2357 C2394 0.929 . S
N2358 C2378 1.433 . S
N2358 C2384 1.435 . S
N2358 C2390 1.423 . S
H2359 C2395 0.932 . S
C2360 N2335 1.433 . S
C2360 C2361 1.363 . S
C2360 C2365 1.370 . S
C2361 H2334 0.929 . S
C2361 C2360 1.363 . S
C2361 C2362 1.385 . S
C2362 H2336 0.930 . S
C2362 C2361 1.385 . S
C2362 C2363 1.357 . S
C2363 C2362 1.357 . S
C2363 C2364 1.406 . S
C2364 H2338 0.929 . S
C2364 C2363 1.406 . S
C2364 C2365 1.391 . S
C2365 H2337 0.931 . S
C2365 C2360 1.370 . S
C2365 C2364 1.391 . S
C2366 N2335 1.435 . S
C2366 C2367 1.358 . S
C2366 C2371 1.371 . S
C2367 H2339 0.930 . S
C2367 C2366 1.358 . S
C2367 C2368 1.405 . S
C2368 H2340 0.932 . S
C2368 C2367 1.405 . S
C2368 C2369 1.383 . S
C2369 C2368 1.383 . S
C2369 C2370 1.393 . S
C2370 H2342 0.931 . S
C2370 C2369 1.393 . S
C2370 C2371 1.382 . S
C2371 H2341 0.929 . S
C2371 C2366 1.371 . S
C2371 C2370 1.382 . S
C2372 N2335 1.423 . S
C2372 C2373 1.362 . S
C2372 C2377 1.388 . S
C2373 H2343 0.929 . S
C2373 C2372 1.362 . S
C2373 C2374 1.376 . S
C2374 H2345 0.931 . S
C2374 C2373 1.376 . S
C2374 C2375 1.396 . S
C2375 C2374 1.396 . S
C2375 C2376 1.348 . S
C2375 C2393 1.472 . S
C2376 H2346 0.929 . S
C2376 C2375 1.348 . S
C2376 C2377 1.443 . S
C2377 H2344 0.932 . S
C2377 C2372 1.388 . S
C2377 C2376 1.443 . S
C2378 N2358 1.433 . S
C2378 C2379 1.363 . S
C2378 C2383 1.370 . S
C2379 H2347 0.929 . S
C2379 C2378 1.363 . S
C2379 C2380 1.385 . S
C2380 H2348 0.930 . S
C2380 C2379 1.385 . S
C2380 C2381 1.357 . S
C2381 C2380 1.357 . S
C2381 C2382 1.406 . S
C2382 H2349 0.929 . S
C2382 C2381 1.406 . S
C2382 C2383 1.391 . S
C2383 H2350 0.931 . S
C2383 C2378 1.370 . S
C2383 C2382 1.391 . S
C2384 N2358 1.435 . S
C2384 C2385 1.358 . S
C2384 C2389 1.371 . S
C2385 H2351 0.930 . S
C2385 C2384 1.358 . S
C2385 C2386 1.405 . S
C2386 H2352 0.932 . S
C2386 C2385 1.405 . S
C2386 C2387 1.383 . S
C2387 C2386 1.383 . S
C2387 C2388 1.393 . S
C2388 H2353 0.931 . S
C2388 C2387 1.393 . S
C2388 C2389 1.382 . S
C2389 H2354 0.929 . S
C2389 C2384 1.371 . S
C2389 C2388 1.382 . S
C2390 N2358 1.423 . S
C2390 C2391 1.362 . S
C2390 C2395 1.388 . S
C2391 H2355 0.929 . S
C2391 C2390 1.362 . S
C2391 C2392 1.376 . S
C2392 H2356 0.931 . S
C2392 C2391 1.376 . S
C2392 C2393 1.396 . S
C2393 C2375 1.472 . S
C2393 C2392 1.396 . S
C2393 C2394 1.348 . S
C2394 H2357 0.929 . S
C2394 C2393 1.348 . S
C2394 C2395 1.443 . S
C2395 H2359 0.932 . S
C2395 C2390 1.388 . S
C2395 C2394 1.443 . S
H2396 C2423 0.929 . S
N2397 C2422 1.433 . S
N2397 C2428 1.435 . S
N2397 C2434 1.423 . S
H2398 C2424 0.930 . S
H2399 C2427 0.931 . S
H2400 C2426 0.929 . S
H2401 C2429 0.930 . S
H2402 C2430 0.932 . S
H2403 C2433 0.929 . S
H2404 C2432 0.931 . S
H2405 C2435 0.929 . S
H2406 C2439 0.932 . S
H2407 C2436 0.931 . S
H2408 C2438 0.929 . S
H2409 C2441 0.929 . S
H2410 C2442 0.930 . S
H2411 C2444 0.929 . S
H2412 C2445 0.931 . S
H2413 C2447 0.930 . S
H2414 C2448 0.932 . S
H2415 C2450 0.931 . S
H2416 C2451 0.929 . S
H2417 C2453 0.929 . S
H2418 C2454 0.931 . S
H2419 C2456 0.929 . S
N2420 C2440 1.433 . S
N2420 C2446 1.435 . S
N2420 C2452 1.423 . S
H2421 C2457 0.932 . S
C2422 N2397 1.433 . S
C2422 C2423 1.363 . S
C2422 C2427 1.370 . S
C2423 H2396 0.929 . S
C2423 C2422 1.363 . S
C2423 C2424 1.385 . S
C2424 H2398 0.930 . S
C2424 C2423 1.385 . S
C2424 C2425 1.357 . S
C2425 C2424 1.357 . S
C2425 C2426 1.406 . S
C2426 H2400 0.929 . S
C2426 C2425 1.406 . S
C2426 C2427 1.391 . S
C2427 H2399 0.931 . S
C2427 C2422 1.370 . S
C2427 C2426 1.391 . S
C2428 N2397 1.435 . S
C2428 C2429 1.358 . S
C2428 C2433 1.371 . S
C2429 H2401 0.930 . S
C2429 C2428 1.358 . S
C2429 C2430 1.405 . S
C2430 H2402 0.932 . S
C2430 C2429 1.405 . S
C2430 C2431 1.383 . S
C2431 C2430 1.383 . S
C2431 C2432 1.393 . S
C2432 H2404 0.931 . S
C2432 C2431 1.393 . S
C2432 C2433 1.382 . S
C2433 H2403 0.929 . S
C2433 C2428 1.371 . S
C2433 C2432 1.382 . S
C2434 N2397 1.423 . S
C2434 C2435 1.362 . S
C2434 C2439 1.388 . S
C2435 H2405 0.929 . S
C2435 C2434 1.362 . S
C2435 C2436 1.376 . S
C2436 H2407 0.931 . S
C2436 C2435 1.376 . S
C2436 C2437 1.396 . S
C2437 C2436 1.396 . S
C2437 C2438 1.348 . S
C2437 C2455 1.472 . S
C2438 H2408 0.929 . S
C2438 C2437 1.348 . S
C2438 C2439 1.443 . S
C2439 H2406 0.932 . S
C2439 C2434 1.388 . S
C2439 C2438 1.443 . S
C2440 N2420 1.433 . S
C2440 C2441 1.363 . S
C2440 C2445 1.370 . S
C2441 H2409 0.929 . S
C2441 C2440 1.363 . S
C2441 C2442 1.385 . S
C2442 H2410 0.930 . S
C2442 C2441 1.385 . S
C2442 C2443 1.357 . S
C2443 C2442 1.357 . S
C2443 C2444 1.406 . S
C2444 H2411 0.929 . S
C2444 C2443 1.406 . S
C2444 C2445 1.391 . S
C2445 H2412 0.931 . S
C2445 C2440 1.370 . S
C2445 C2444 1.391 . S
C2446 N2420 1.435 . S
C2446 C2447 1.358 . S
C2446 C2451 1.371 . S
C2447 H2413 0.930 . S
C2447 C2446 1.358 . S
C2447 C2448 1.405 . S
C2448 H2414 0.932 . S
C2448 C2447 1.405 . S
C2448 C2449 1.383 . S
C2449 C2448 1.383 . S
C2449 C2450 1.393 . S
C2450 H2415 0.931 . S
C2450 C2449 1.393 . S
C2450 C2451 1.382 . S
C2451 H2416 0.929 . S
C2451 C2446 1.371 . S
C2451 C2450 1.382 . S
C2452 N2420 1.423 . S
C2452 C2453 1.362 . S
C2452 C2457 1.388 . S
C2453 H2417 0.929 . S
C2453 C2452 1.362 . S
C2453 C2454 1.376 . S
C2454 H2418 0.931 . S
C2454 C2453 1.376 . S
C2454 C2455 1.396 . S
C2455 C2437 1.472 . S
C2455 C2454 1.396 . S
C2455 C2456 1.348 . S
C2456 H2419 0.929 . S
C2456 C2455 1.348 . S
C2456 C2457 1.443 . S
C2457 H2421 0.932 . S
C2457 C2452 1.388 . S
C2457 C2456 1.443 . S
H2458 C2485 0.929 . S
N2459 C2484 1.433 . S
N2459 C2490 1.435 . S
N2459 C2496 1.423 . S
H2460 C2486 0.930 . S
H2461 C2489 0.931 . S
H2462 C2488 0.929 . S
H2463 C2491 0.930 . S
H2464 C2492 0.932 . S
H2465 C2495 0.929 . S
H2466 C2494 0.931 . S
H2467 C2497 0.929 . S
H2468 C2501 0.932 . S
H2469 C2498 0.931 . S
H2470 C2500 0.929 . S
H2471 C2503 0.929 . S
H2472 C2504 0.930 . S
H2473 C2506 0.929 . S
H2474 C2507 0.931 . S
H2475 C2509 0.930 . S
H2476 C2510 0.932 . S
H2477 C2512 0.931 . S
H2478 C2513 0.929 . S
H2479 C2515 0.929 . S
H2480 C2516 0.931 . S
H2481 C2518 0.929 . S
N2482 C2502 1.433 . S
N2482 C2508 1.435 . S
N2482 C2514 1.423 . S
H2483 C2519 0.932 . S
C2484 N2459 1.433 . S
C2484 C2485 1.363 . S
C2484 C2489 1.370 . S
C2485 H2458 0.929 . S
C2485 C2484 1.363 . S
C2485 C2486 1.385 . S
C2486 H2460 0.930 . S
C2486 C2485 1.385 . S
C2486 C2487 1.357 . S
C2487 C2486 1.357 . S
C2487 C2488 1.406 . S
C2488 H2462 0.929 . S
C2488 C2487 1.406 . S
C2488 C2489 1.391 . S
C2489 H2461 0.931 . S
C2489 C2484 1.370 . S
C2489 C2488 1.391 . S
C2490 N2459 1.435 . S
C2490 C2491 1.358 . S
C2490 C2495 1.371 . S
C2491 H2463 0.930 . S
C2491 C2490 1.358 . S
C2491 C2492 1.405 . S
C2492 H2464 0.932 . S
C2492 C2491 1.405 . S
C2492 C2493 1.383 . S
C2493 C2492 1.383 . S
C2493 C2494 1.393 . S
C2494 H2466 0.931 . S
C2494 C2493 1.393 . S
C2494 C2495 1.382 . S
C2495 H2465 0.929 . S
C2495 C2490 1.371 . S
C2495 C2494 1.382 . S
C2496 N2459 1.423 . S
C2496 C2497 1.362 . S
C2496 C2501 1.388 . S
C2497 H2467 0.929 . S
C2497 C2496 1.362 . S
C2497 C2498 1.376 . S
C2498 H2469 0.931 . S
C2498 C2497 1.376 . S
C2498 C2499 1.396 . S
C2499 C2498 1.396 . S
C2499 C2500 1.348 . S
C2499 C2517 1.472 . S
C2500 H2470 0.929 . S
C2500 C2499 1.348 . S
C2500 C2501 1.443 . S
C2501 H2468 0.932 . S
C2501 C2496 1.388 . S
C2501 C2500 1.443 . S
C2502 N2482 1.433 . S
C2502 C2503 1.363 . S
C2502 C2507 1.370 . S
C2503 H2471 0.929 . S
C2503 C2502 1.363 . S
C2503 C2504 1.385 . S
C2504 H2472 0.930 . S
C2504 C2503 1.385 . S
C2504 C2505 1.357 . S
C2505 C2504 1.357 . S
C2505 C2506 1.406 . S
C2506 H2473 0.929 . S
C2506 C2505 1.406 . S
C2506 C2507 1.391 . S
C2507 H2474 0.931 . S
C2507 C2502 1.370 . S
C2507 C2506 1.391 . S
C2508 N2482 1.435 . S
C2508 C2509 1.358 . S
C2508 C2513 1.371 . S
C2509 H2475 0.930 . S
C2509 C2508 1.358 . S
C2509 C2510 1.405 . S
C2510 H2476 0.932 . S
C2510 C2509 1.405 . S
C2510 C2511 1.383 . S
C2511 C2510 1.383 . S
C2511 C2512 1.393 . S
C2512 H2477 0.931 . S
C2512 C2511 1.393 . S
C2512 C2513 1.382 . S
C2513 H2478 0.929 . S
C2513 C2508 1.371 . S
C2513 C2512 1.382 . S
C2514 N2482 1.423 . S
C2514 C2515 1.362 . S
C2514 C2519 1.388 . S
C2515 H2479 0.929 . S
C2515 C2514 1.362 . S
C2515 C2516 1.376 . S
C2516 H2480 0.931 . S
C2516 C2515 1.376 . S
C2516 C2517 1.396 . S
C2517 C2499 1.472 . S
C2517 C2516 1.396 . S
C2517 C2518 1.348 . S
C2518 H2481 0.929 . S
C2518 C2517 1.348 . S
C2518 C2519 1.443 . S
C2519 H2483 0.932 . S
C2519 C2514 1.388 . S
C2519 C2518 1.443 . S
H2520 C2547 0.929 . S
N2521 C2546 1.433 . S
N2521 C2552 1.435 . S
N2521 C2558 1.423 . S
H2522 C2548 0.930 . S
H2523 C2551 0.931 . S
H2524 C2550 0.929 . S
H2525 C2553 0.930 . S
H2526 C2554 0.932 . S
H2527 C2557 0.929 . S
H2528 C2556 0.931 . S
H2529 C2559 0.929 . S
H2530 C2563 0.932 . S
H2531 C2560 0.931 . S
H2532 C2562 0.929 . S
H2533 C2565 0.929 . S
H2534 C2566 0.930 . S
H2535 C2568 0.929 . S
H2536 C2569 0.931 . S
H2537 C2571 0.930 . S
H2538 C2572 0.932 . S
H2539 C2574 0.931 . S
H2540 C2575 0.929 . S
H2541 C2577 0.929 . S
H2542 C2578 0.931 . S
H2543 C2580 0.929 . S
N2544 C2564 1.433 . S
N2544 C2570 1.435 . S
N2544 C2576 1.423 . S
H2545 C2581 0.932 . S
C2546 N2521 1.433 . S
C2546 C2547 1.363 . S
C2546 C2551 1.370 . S
C2547 H2520 0.929 . S
C2547 C2546 1.363 . S
C2547 C2548 1.385 . S
C2548 H2522 0.930 . S
C2548 C2547 1.385 . S
C2548 C2549 1.357 . S
C2549 C2548 1.357 . S
C2549 C2550 1.406 . S
C2550 H2524 0.929 . S
C2550 C2549 1.406 . S
C2550 C2551 1.391 . S
C2551 H2523 0.931 . S
C2551 C2546 1.370 . S
C2551 C2550 1.391 . S
C2552 N2521 1.435 . S
C2552 C2553 1.358 . S
C2552 C2557 1.371 . S
C2553 H2525 0.930 . S
C2553 C2552 1.358 . S
C2553 C2554 1.405 . S
C2554 H2526 0.932 . S
C2554 C2553 1.405 . S
C2554 C2555 1.383 . S
C2555 C2554 1.383 . S
C2555 C2556 1.393 . S
C2556 H2528 0.931 . S
C2556 C2555 1.393 . S
C2556 C2557 1.382 . S
C2557 H2527 0.929 . S
C2557 C2552 1.371 . S
C2557 C2556 1.382 . S
C2558 N2521 1.423 . S
C2558 C2559 1.362 . S
C2558 C2563 1.388 . S
C2559 H2529 0.929 . S
C2559 C2558 1.362 . S
C2559 C2560 1.376 . S
C2560 H2531 0.931 . S
C2560 C2559 1.376 . S
C2560 C2561 1.396 . S
C2561 C2560 1.396 . S
C2561 C2562 1.348 . S
C2561 C2579 1.472 . S
C2562 H2532 0.929 . S
C2562 C2561 1.348 . S
C2562 C2563 1.443 . S
C2563 H2530 0.932 . S
C2563 C2558 1.388 . S
C2563 C2562 1.443 . S
C2564 N2544 1.433 . S
C2564 C2565 1.363 . S
C2564 C2569 1.370 . S
C2565 H2533 0.929 . S
C2565 C2564 1.363 . S
C2565 C2566 1.385 . S
C2566 H2534 0.930 . S
C2566 C2565 1.385 . S
C2566 C2567 1.357 . S
C2567 C2566 1.357 . S
C2567 C2568 1.406 . S
C2568 H2535 0.929 . S
C2568 C2567 1.406 . S
C2568 C2569 1.391 . S
C2569 H2536 0.931 . S
C2569 C2564 1.370 . S
C2569 C2568 1.391 . S
C2570 N2544 1.435 . S
C2570 C2571 1.358 . S
C2570 C2575 1.371 . S
C2571 H2537 0.930 . S
C2571 C2570 1.358 . S
C2571 C2572 1.405 . S
C2572 H2538 0.932 . S
C2572 C2571 1.405 . S
C2572 C2573 1.383 . S
C2573 C2572 1.383 . S
C2573 C2574 1.393 . S
C2574 H2539 0.931 . S
C2574 C2573 1.393 . S
C2574 C2575 1.382 . S
C2575 H2540 0.929 . S
C2575 C2570 1.371 . S
C2575 C2574 1.382 . S
C2576 N2544 1.423 . S
C2576 C2577 1.362 . S
C2576 C2581 1.388 . S
C2577 H2541 0.929 . S
C2577 C2576 1.362 . S
C2577 C2578 1.376 . S
C2578 H2542 0.931 . S
C2578 C2577 1.376 . S
C2578 C2579 1.396 . S
C2579 C2561 1.472 . S
C2579 C2578 1.396 . S
C2579 C2580 1.348 . S
C2580 H2543 0.929 . S
C2580 C2579 1.348 . S
C2580 C2581 1.443 . S
C2581 H2545 0.932 . S
C2581 C2576 1.388 . S
C2581 C2580 1.443 . S
H2582 C2609 0.929 . S
N2583 C2608 1.433 . S
N2583 C2614 1.435 . S
N2583 C2620 1.423 . S
H2584 C2610 0.930 . S
H2585 C2613 0.931 . S
H2586 C2612 0.929 . S
H2587 C2615 0.930 . S
H2588 C2616 0.932 . S
H2589 C2619 0.929 . S
H2590 C2618 0.931 . S
H2591 C2621 0.929 . S
H2592 C2625 0.932 . S
H2593 C2622 0.931 . S
H2594 C2624 0.929 . S
H2595 C2627 0.929 . S
H2596 C2628 0.930 . S
H2597 C2630 0.929 . S
H2598 C2631 0.931 . S
H2599 C2633 0.930 . S
H2600 C2634 0.932 . S
H2601 C2636 0.931 . S
H2602 C2637 0.929 . S
H2603 C2639 0.929 . S
H2604 C2640 0.931 . S
H2605 C2642 0.929 . S
N2606 C2626 1.433 . S
N2606 C2632 1.435 . S
N2606 C2638 1.423 . S
H2607 C2643 0.932 . S
C2608 N2583 1.433 . S
C2608 C2609 1.363 . S
C2608 C2613 1.370 . S
C2609 H2582 0.929 . S
C2609 C2608 1.363 . S
C2609 C2610 1.385 . S
C2610 H2584 0.930 . S
C2610 C2609 1.385 . S
C2610 C2611 1.357 . S
C2611 C2610 1.357 . S
C2611 C2612 1.406 . S
C2612 H2586 0.929 . S
C2612 C2611 1.406 . S
C2612 C2613 1.391 . S
C2613 H2585 0.931 . S
C2613 C2608 1.370 . S
C2613 C2612 1.391 . S
C2614 N2583 1.435 . S
C2614 C2615 1.358 . S
C2614 C2619 1.371 . S
C2615 H2587 0.930 . S
C2615 C2614 1.358 . S
C2615 C2616 1.405 . S
C2616 H2588 0.932 . S
C2616 C2615 1.405 . S
C2616 C2617 1.383 . S
C2617 C2616 1.383 . S
C2617 C2618 1.393 . S
C2618 H2590 0.931 . S
C2618 C2617 1.393 . S
C2618 C2619 1.382 . S
C2619 H2589 0.929 . S
C2619 C2614 1.371 . S
C2619 C2618 1.382 . S
C2620 N2583 1.423 . S
C2620 C2621 1.362 . S
C2620 C2625 1.388 . S
C2621 H2591 0.929 . S
C2621 C2620 1.362 . S
C2621 C2622 1.376 . S
C2622 H2593 0.931 . S
C2622 C2621 1.376 . S
C2622 C2623 1.396 . S
C2623 C2622 1.396 . S
C2623 C2624 1.348 . S
C2623 C2641 1.472 . S
C2624 H2594 0.929 . S
C2624 C2623 1.348 . S
C2624 C2625 1.443 . S
C2625 H2592 0.932 . S
C2625 C2620 1.388 . S
C2625 C2624 1.443 . S
C2626 N2606 1.433 . S
C2626 C2627 1.363 . S
C2626 C2631 1.370 . S
C2627 H2595 0.929 . S
C2627 C2626 1.363 . S
C2627 C2628 1.385 . S
C2628 H2596 0.930 . S
C2628 C2627 1.385 . S
C2628 C2629 1.357 . S
C2629 C2628 1.357 . S
C2629 C2630 1.406 . S
C2630 H2597 0.929 . S
C2630 C2629 1.406 . S
C2630 C2631 1.391 . S
C2631 H2598 0.931 . S
C2631 C2626 1.370 . S
C2631 C2630 1.391 . S
C2632 N2606 1.435 . S
C2632 C2633 1.358 . S
C2632 C2637 1.371 . S
C2633 H2599 0.930 . S
C2633 C2632 1.358 . S
C2633 C2634 1.405 . S
C2634 H2600 0.932 . S
C2634 C2633 1.405 . S
C2634 C2635 1.383 . S
C2635 C2634 1.383 . S
C2635 C2636 1.393 . S
C2636 H2601 0.931 . S
C2636 C2635 1.393 . S
C2636 C2637 1.382 . S
C2637 H2602 0.929 . S
C2637 C2632 1.371 . S
C2637 C2636 1.382 . S
C2638 N2606 1.423 . S
C2638 C2639 1.362 . S
C2638 C2643 1.388 . S
C2639 H2603 0.929 . S
C2639 C2638 1.362 . S
C2639 C2640 1.376 . S
C2640 H2604 0.931 . S
C2640 C2639 1.376 . S
C2640 C2641 1.396 . S
C2641 C2623 1.472 . S
C2641 C2640 1.396 . S
C2641 C2642 1.348 . S
C2642 H2605 0.929 . S
C2642 C2641 1.348 . S
C2642 C2643 1.443 . S
C2643 H2607 0.932 . S
C2643 C2638 1.388 . S
C2643 C2642 1.443 . S
H2644 C2671 0.929 . S
N2645 C2670 1.433 . S
N2645 C2676 1.435 . S
N2645 C2682 1.423 . S
H2646 C2672 0.930 . S
H2647 C2675 0.931 . S
H2648 C2674 0.929 . S
H2649 C2677 0.930 . S
H2650 C2678 0.932 . S
H2651 C2681 0.929 . S
H2652 C2680 0.931 . S
H2653 C2683 0.929 . S
H2654 C2687 0.932 . S
H2655 C2684 0.931 . S
H2656 C2686 0.929 . S
H2657 C2689 0.929 . S
H2658 C2690 0.930 . S
H2659 C2692 0.929 . S
H2660 C2693 0.931 . S
H2661 C2695 0.930 . S
H2662 C2696 0.932 . S
H2663 C2698 0.931 . S
H2664 C2699 0.929 . S
H2665 C2701 0.929 . S
H2666 C2702 0.931 . S
H2667 C2704 0.929 . S
N2668 C2688 1.433 . S
N2668 C2694 1.435 . S
N2668 C2700 1.423 . S
H2669 C2705 0.932 . S
C2670 N2645 1.433 . S
C2670 C2671 1.363 . S
C2670 C2675 1.370 . S
C2671 H2644 0.929 . S
C2671 C2670 1.363 . S
C2671 C2672 1.385 . S
C2672 H2646 0.930 . S
C2672 C2671 1.385 . S
C2672 C2673 1.357 . S
C2673 C2672 1.357 . S
C2673 C2674 1.406 . S
C2674 H2648 0.929 . S
C2674 C2673 1.406 . S
C2674 C2675 1.391 . S
C2675 H2647 0.931 . S
C2675 C2670 1.370 . S
C2675 C2674 1.391 . S
C2676 N2645 1.435 . S
C2676 C2677 1.358 . S
C2676 C2681 1.371 . S
C2677 H2649 0.930 . S
C2677 C2676 1.358 . S
C2677 C2678 1.405 . S
C2678 H2650 0.932 . S
C2678 C2677 1.405 . S
C2678 C2679 1.383 . S
C2679 C2678 1.383 . S
C2679 C2680 1.393 . S
C2680 H2652 0.931 . S
C2680 C2679 1.393 . S
C2680 C2681 1.382 . S
C2681 H2651 0.929 . S
C2681 C2676 1.371 . S
C2681 C2680 1.382 . S
C2682 N2645 1.423 . S
C2682 C2683 1.362 . S
C2682 C2687 1.388 . S
C2683 H2653 0.929 . S
C2683 C2682 1.362 . S
C2683 C2684 1.376 . S
C2684 H2655 0.931 . S
C2684 C2683 1.376 . S
C2684 C2685 1.396 . S
C2685 C2684 1.396 . S
C2685 C2686 1.348 . S
C2685 C2703 1.472 . S
C2686 H2656 0.929 . S
C2686 C2685 1.348 . S
C2686 C2687 1.443 . S
C2687 H2654 0.932 . S
C2687 C2682 1.388 . S
C2687 C2686 1.443 . S
C2688 N2668 1.433 . S
C2688 C2689 1.363 . S
C2688 C2693 1.370 . S
C2689 H2657 0.929 . S
C2689 C2688 1.363 . S
C2689 C2690 1.385 . S
C2690 H2658 0.930 . S
C2690 C2689 1.385 . S
C2690 C2691 1.357 . S
C2691 C2690 1.357 . S
C2691 C2692 1.406 . S
C2692 H2659 0.929 . S
C2692 C2691 1.406 . S
C2692 C2693 1.391 . S
C2693 H2660 0.931 . S
C2693 C2688 1.370 . S
C2693 C2692 1.391 . S
C2694 N2668 1.435 . S
C2694 C2695 1.358 . S
C2694 C2699 1.371 . S
C2695 H2661 0.930 . S
C2695 C2694 1.358 . S
C2695 C2696 1.405 . S
C2696 H2662 0.932 . S
C2696 C2695 1.405 . S
C2696 C2697 1.383 . S
C2697 C2696 1.383 . S
C2697 C2698 1.393 . S
C2698 H2663 0.931 . S
C2698 C2697 1.393 . S
C2698 C2699 1.382 . S
C2699 H2664 0.929 . S
C2699 C2694 1.371 . S
C2699 C2698 1.382 . S
C2700 N2668 1.423 . S
C2700 C2701 1.362 . S
C2700 C2705 1.388 . S
C2701 H2665 0.929 . S
C2701 C2700 1.362 . S
C2701 C2702 1.376 . S
C2702 H2666 0.931 . S
C2702 C2701 1.376 . S
C2702 C2703 1.396 . S
C2703 C2685 1.472 . S
C2703 C2702 1.396 . S
C2703 C2704 1.348 . S
C2704 H2667 0.929 . S
C2704 C2703 1.348 . S
C2704 C2705 1.443 . S
C2705 H2669 0.932 . S
C2705 C2700 1.388 . S
C2705 C2704 1.443 . S
H2706 C2733 0.929 . S
N2707 C2732 1.433 . S
N2707 C2738 1.435 . S
N2707 C2744 1.423 . S
H2708 C2734 0.930 . S
H2709 C2737 0.931 . S
H2710 C2736 0.929 . S
H2711 C2739 0.930 . S
H2712 C2740 0.932 . S
H2713 C2743 0.929 . S
H2714 C2742 0.931 . S
H2715 C2745 0.929 . S
H2716 C2749 0.932 . S
H2717 C2746 0.931 . S
H2718 C2748 0.929 . S
H2719 C2751 0.929 . S
H2720 C2752 0.930 . S
H2721 C2754 0.929 . S
H2722 C2755 0.931 . S
H2723 C2757 0.930 . S
H2724 C2758 0.932 . S
H2725 C2760 0.931 . S
H2726 C2761 0.929 . S
H2727 C2763 0.929 . S
H2728 C2764 0.931 . S
H2729 C2766 0.929 . S
N2730 C2750 1.433 . S
N2730 C2756 1.435 . S
N2730 C2762 1.423 . S
H2731 C2767 0.932 . S
C2732 N2707 1.433 . S
C2732 C2733 1.363 . S
C2732 C2737 1.370 . S
C2733 H2706 0.929 . S
C2733 C2732 1.363 . S
C2733 C2734 1.385 . S
C2734 H2708 0.930 . S
C2734 C2733 1.385 . S
C2734 C2735 1.357 . S
C2735 C2734 1.357 . S
C2735 C2736 1.406 . S
C2736 H2710 0.929 . S
C2736 C2735 1.406 . S
C2736 C2737 1.391 . S
C2737 H2709 0.931 . S
C2737 C2732 1.370 . S
C2737 C2736 1.391 . S
C2738 N2707 1.435 . S
C2738 C2739 1.358 . S
C2738 C2743 1.371 . S
C2739 H2711 0.930 . S
C2739 C2738 1.358 . S
C2739 C2740 1.405 . S
C2740 H2712 0.932 . S
C2740 C2739 1.405 . S
C2740 C2741 1.383 . S
C2741 C2740 1.383 . S
C2741 C2742 1.393 . S
C2742 H2714 0.931 . S
C2742 C2741 1.393 . S
C2742 C2743 1.382 . S
C2743 H2713 0.929 . S
C2743 C2738 1.371 . S
C2743 C2742 1.382 . S
C2744 N2707 1.423 . S
C2744 C2745 1.362 . S
C2744 C2749 1.388 . S
C2745 H2715 0.929 . S
C2745 C2744 1.362 . S
C2745 C2746 1.376 . S
C2746 H2717 0.931 . S
C2746 C2745 1.376 . S
C2746 C2747 1.396 . S
C2747 C2746 1.396 . S
C2747 C2748 1.348 . S
C2747 C2765 1.472 . S
C2748 H2718 0.929 . S
C2748 C2747 1.348 . S
C2748 C2749 1.443 . S
C2749 H2716 0.932 . S
C2749 C2744 1.388 . S
C2749 C2748 1.443 . S
C2750 N2730 1.433 . S
C2750 C2751 1.363 . S
C2750 C2755 1.370 . S
C2751 H2719 0.929 . S
C2751 C2750 1.363 . S
C2751 C2752 1.385 . S
C2752 H2720 0.930 . S
C2752 C2751 1.385 . S
C2752 C2753 1.357 . S
C2753 C2752 1.357 . S
C2753 C2754 1.406 . S
C2754 H2721 0.929 . S
C2754 C2753 1.406 . S
C2754 C2755 1.391 . S
C2755 H2722 0.931 . S
C2755 C2750 1.370 . S
C2755 C2754 1.391 . S
C2756 N2730 1.435 . S
C2756 C2757 1.358 . S
C2756 C2761 1.371 . S
C2757 H2723 0.930 . S
C2757 C2756 1.358 . S
C2757 C2758 1.405 . S
C2758 H2724 0.932 . S
C2758 C2757 1.405 . S
C2758 C2759 1.383 . S
C2759 C2758 1.383 . S
C2759 C2760 1.393 . S
C2760 H2725 0.931 . S
C2760 C2759 1.393 . S
C2760 C2761 1.382 . S
C2761 H2726 0.929 . S
C2761 C2756 1.371 . S
C2761 C2760 1.382 . S
C2762 N2730 1.423 . S
C2762 C2763 1.362 . S
C2762 C2767 1.388 . S
C2763 H2727 0.929 . S
C2763 C2762 1.362 . S
C2763 C2764 1.376 . S
C2764 H2728 0.931 . S
C2764 C2763 1.376 . S
C2764 C2765 1.396 . S
C2765 C2747 1.472 . S
C2765 C2764 1.396 . S
C2765 C2766 1.348 . S
C2766 H2729 0.929 . S
C2766 C2765 1.348 . S
C2766 C2767 1.443 . S
C2767 H2731 0.932 . S
C2767 C2762 1.388 . S
C2767 C2766 1.443 . S
C2768 C2769 1.387 . S
C2768 H2772 0.950 . S
C2768 C2777 1.390 . S
C2769 C2768 1.387 . S
C2769 C2771 1.387 . S
H2770 C2777 0.950 . S
C2771 C2769 1.387 . S
C2771 C2773 1.390 . S
C2771 H2775 0.950 . S
H2772 C2768 0.950 . S
C2773 C2771 1.390 . S
C2773 C2774 1.387 . S
C2773 H2776 0.950 . S
C2774 C2773 1.387 . S
C2774 C2777 1.387 . S
H2775 C2771 0.950 . S
H2776 C2773 0.950 . S
C2777 C2768 1.390 . S
C2777 H2770 0.950 . S
C2777 C2774 1.387 . S
C2778 C2779 1.387 . S
C2778 H2782 0.950 . S
C2778 C2787 1.390 . S
C2779 C2778 1.387 . S
C2779 C2781 1.387 . S
H2780 C2787 0.950 . S
C2781 C2779 1.387 . S
C2781 C2783 1.390 . S
C2781 H2785 0.950 . S
H2782 C2778 0.950 . S
C2783 C2781 1.390 . S
C2783 C2784 1.387 . S
C2783 H2786 0.950 . S
C2784 C2783 1.387 . S
C2784 C2787 1.387 . S
H2785 C2781 0.950 . S
H2786 C2783 0.950 . S
C2787 C2778 1.390 . S
C2787 H2780 0.950 . S
C2787 C2784 1.387 . S
C2788 C2789 1.387 . S
C2788 H2792 0.950 . S
C2788 C2797 1.390 . S
C2789 C2788 1.387 . S
C2789 C2791 1.387 . S
H2790 C2797 0.950 . S
C2791 C2789 1.387 . S
C2791 C2793 1.390 . S
C2791 H2795 0.950 . S
H2792 C2788 0.950 . S
C2793 C2791 1.390 . S
C2793 C2794 1.387 . S
C2793 H2796 0.950 . S
C2794 C2793 1.387 . S
C2794 C2797 1.387 . S
H2795 C2791 0.950 . S
H2796 C2793 0.950 . S
C2797 C2788 1.390 . S
C2797 H2790 0.950 . S
C2797 C2794 1.387 . S
C2798 C2799 1.387 . S
C2798 H2802 0.950 . S
C2798 C2807 1.390 . S
C2799 C2798 1.387 . S
C2799 C2801 1.387 . S
H2800 C2807 0.950 . S
C2801 C2799 1.387 . S
C2801 C2803 1.390 . S
C2801 H2805 0.950 . S
H2802 C2798 0.950 . S
C2803 C2801 1.390 . S
C2803 C2804 1.387 . S
C2803 H2806 0.950 . S
C2804 C2803 1.387 . S
C2804 C2807 1.387 . S
H2805 C2801 0.950 . S
H2806 C2803 0.950 . S
C2807 C2798 1.390 . S
C2807 H2800 0.950 . S
C2807 C2804 1.387 . S
C2808 C2809 1.387 . S
C2808 H2812 0.950 . S
C2808 C2817 1.390 . S
C2809 C2808 1.387 . S
C2809 C2811 1.387 . S
H2810 C2817 0.950 . S
C2811 C2809 1.387 . S
C2811 C2813 1.390 . S
C2811 H2815 0.950 . S
H2812 C2808 0.950 . S
C2813 C2811 1.390 . S
C2813 C2814 1.387 . S
C2813 H2816 0.950 . S
C2814 C2813 1.387 . S
C2814 C2817 1.387 . S
H2815 C2811 0.950 . S
H2816 C2813 0.950 . S
C2817 C2808 1.390 . S
C2817 H2810 0.950 . S
C2817 C2814 1.387 . S
C2818 C2819 1.387 . S
C2818 H2822 0.950 . S
C2818 C2827 1.390 . S
C2819 C2818 1.387 . S
C2819 C2821 1.387 . S
H2820 C2827 0.950 . S
C2821 C2819 1.387 . S
C2821 C2823 1.390 . S
C2821 H2825 0.950 . S
H2822 C2818 0.950 . S
C2823 C2821 1.390 . S
C2823 C2824 1.387 . S
C2823 H2826 0.950 . S
C2824 C2823 1.387 . S
C2824 C2827 1.387 . S
H2825 C2821 0.950 . S
H2826 C2823 0.950 . S
C2827 C2818 1.390 . S
C2827 H2820 0.950 . S
C2827 C2824 1.387 . S
C2828 C2829 1.387 . S
C2828 H2832 0.950 . S
C2828 C2837 1.390 . S
C2829 C2828 1.387 . S
C2829 C2831 1.387 . S
H2830 C2837 0.950 . S
C2831 C2829 1.387 . S
C2831 C2833 1.390 . S
C2831 H2835 0.950 . S
H2832 C2828 0.950 . S
C2833 C2831 1.390 . S
C2833 C2834 1.387 . S
C2833 H2836 0.950 . S
C2834 C2833 1.387 . S
C2834 C2837 1.387 . S
H2835 C2831 0.950 . S
H2836 C2833 0.950 . S
C2837 C2828 1.390 . S
C2837 H2830 0.950 . S
C2837 C2834 1.387 . S
C2838 C2839 1.387 . S
C2838 H2842 0.950 . S
C2838 C2847 1.390 . S
C2839 C2838 1.387 . S
C2839 C2841 1.387 . S
H2840 C2847 0.950 . S
C2841 C2839 1.387 . S
C2841 C2843 1.390 . S
C2841 H2845 0.950 . S
H2842 C2838 0.950 . S
C2843 C2841 1.390 . S
C2843 C2844 1.387 . S
C2843 H2846 0.950 . S
C2844 C2843 1.387 . S
C2844 C2847 1.387 . S
H2845 C2841 0.950 . S
H2846 C2843 0.950 . S
C2847 C2838 1.390 . S
C2847 H2840 0.950 . S
C2847 C2844 1.387 . S
C2848 C2849 1.387 . S
C2848 H2852 0.950 . S
C2848 C2857 1.390 . S
C2849 C2848 1.387 . S
C2849 C2851 1.387 . S
H2850 C2857 0.950 . S
C2851 C2849 1.387 . S
C2851 C2853 1.390 . S
C2851 H2855 0.950 . S
H2852 C2848 0.950 . S
C2853 C2851 1.390 . S
C2853 C2854 1.387 . S
C2853 H2856 0.950 . S
C2854 C2853 1.387 . S
C2854 C2857 1.387 . S
H2855 C2851 0.950 . S
H2856 C2853 0.950 . S
C2857 C2848 1.390 . S
C2857 H2850 0.950 . S
C2857 C2854 1.387 . S
C2858 C2859 1.387 . S
C2858 H2862 0.950 . S
C2858 C2867 1.390 . S
C2859 C2858 1.387 . S
C2859 C2861 1.387 . S
H2860 C2867 0.950 . S
C2861 C2859 1.387 . S
C2861 C2863 1.390 . S
C2861 H2865 0.950 . S
H2862 C2858 0.950 . S
C2863 C2861 1.390 . S
C2863 C2864 1.387 . S
C2863 H2866 0.950 . S
C2864 C2863 1.387 . S
C2864 C2867 1.387 . S
H2865 C2861 0.950 . S
H2866 C2863 0.950 . S
C2867 C2858 1.390 . S
C2867 H2860 0.950 . S
C2867 C2864 1.387 . S
C2868 C2869 1.387 . S
C2868 H2872 0.950 . S
C2868 C2877 1.390 . S
C2869 C2868 1.387 . S
C2869 C2871 1.387 . S
H2870 C2877 0.950 . S
C2871 C2869 1.387 . S
C2871 C2873 1.390 . S
C2871 H2875 0.950 . S
H2872 C2868 0.950 . S
C2873 C2871 1.390 . S
C2873 C2874 1.387 . S
C2873 H2876 0.950 . S
C2874 C2873 1.387 . S
C2874 C2877 1.387 . S
H2875 C2871 0.950 . S
H2876 C2873 0.950 . S
C2877 C2868 1.390 . S
C2877 H2870 0.950 . S
C2877 C2874 1.387 . S
C2878 C2879 1.387 . S
C2878 H2882 0.950 . S
C2878 C2887 1.390 . S
C2879 C2878 1.387 . S
C2879 C2881 1.387 . S
H2880 C2887 0.950 . S
C2881 C2879 1.387 . S
C2881 C2883 1.390 . S
C2881 H2885 0.950 . S
H2882 C2878 0.950 . S
C2883 C2881 1.390 . S
C2883 C2884 1.387 . S
C2883 H2886 0.950 . S
C2884 C2883 1.387 . S
C2884 C2887 1.387 . S
H2885 C2881 0.950 . S
H2886 C2883 0.950 . S
C2887 C2878 1.390 . S
C2887 H2880 0.950 . S
C2887 C2884 1.387 . S
C2888 C2889 1.387 . S
C2888 H2892 0.950 . S
C2888 C2897 1.390 . S
C2889 C2888 1.387 . S
C2889 C2891 1.387 . S
H2890 C2897 0.950 . S
C2891 C2889 1.387 . S
C2891 C2893 1.390 . S
C2891 H2895 0.950 . S
H2892 C2888 0.950 . S
C2893 C2891 1.390 . S
C2893 C2894 1.387 . S
C2893 H2896 0.950 . S
C2894 C2893 1.387 . S
C2894 C2897 1.387 . S
H2895 C2891 0.950 . S
H2896 C2893 0.950 . S
C2897 C2888 1.390 . S
C2897 H2890 0.950 . S
C2897 C2894 1.387 . S
C2898 C2899 1.387 . S
C2898 H2902 0.950 . S
C2898 C2907 1.390 . S
C2899 C2898 1.387 . S
C2899 C2901 1.387 . S
H2900 C2907 0.950 . S
C2901 C2899 1.387 . S
C2901 C2903 1.390 . S
C2901 H2905 0.950 . S
H2902 C2898 0.950 . S
C2903 C2901 1.390 . S
C2903 C2904 1.387 . S
C2903 H2906 0.950 . S
C2904 C2903 1.387 . S
C2904 C2907 1.387 . S
H2905 C2901 0.950 . S
H2906 C2903 0.950 . S
C2907 C2898 1.390 . S
C2907 H2900 0.950 . S
C2907 C2904 1.387 . S
C2908 C2909 1.387 . S
C2908 H2912 0.950 . S
C2908 C2917 1.390 . S
C2909 C2908 1.387 . S
C2909 C2911 1.387 . S
H2910 C2917 0.950 . S
C2911 C2909 1.387 . S
C2911 C2913 1.390 . S
C2911 H2915 0.950 . S
H2912 C2908 0.950 . S
C2913 C2911 1.390 . S
C2913 C2914 1.387 . S
C2913 H2916 0.950 . S
C2914 C2913 1.387 . S
C2914 C2917 1.387 . S
H2915 C2911 0.950 . S
H2916 C2913 0.950 . S
C2917 C2908 1.390 . S
C2917 H2910 0.950 . S
C2917 C2914 1.387 . S
C2918 C2919 1.387 . S
C2918 H2922 0.950 . S
C2918 C2927 1.390 . S
C2919 C2918 1.387 . S
C2919 C2921 1.387 . S
H2920 C2927 0.950 . S
C2921 C2919 1.387 . S
C2921 C2923 1.390 . S
C2921 H2925 0.950 . S
H2922 C2918 0.950 . S
C2923 C2921 1.390 . S
C2923 C2924 1.387 . S
C2923 H2926 0.950 . S
C2924 C2923 1.387 . S
C2924 C2927 1.387 . S
H2925 C2921 0.950 . S
H2926 C2923 0.950 . S
C2927 C2918 1.390 . S
C2927 H2920 0.950 . S
C2927 C2924 1.387 . S
C2928 C2929 1.387 . S
C2928 H2932 0.950 . S
C2928 C2937 1.390 . S
C2929 C2928 1.387 . S
C2929 C2931 1.387 . S
H2930 C2937 0.950 . S
C2931 C2929 1.387 . S
C2931 C2933 1.390 . S
C2931 H2935 0.950 . S
H2932 C2928 0.950 . S
C2933 C2931 1.390 . S
C2933 C2934 1.387 . S
C2933 H2936 0.950 . S
C2934 C2933 1.387 . S
C2934 C2937 1.387 . S
H2935 C2931 0.950 . S
H2936 C2933 0.950 . S
C2937 C2928 1.390 . S
C2937 H2930 0.950 . S
C2937 C2934 1.387 . S
C2938 C2939 1.387 . S
C2938 H2942 0.950 . S
C2938 C2947 1.390 . S
C2939 C2938 1.387 . S
C2939 C2941 1.387 . S
H2940 C2947 0.950 . S
C2941 C2939 1.387 . S
C2941 C2943 1.390 . S
C2941 H2945 0.950 . S
H2942 C2938 0.950 . S
C2943 C2941 1.390 . S
C2943 C2944 1.387 . S
C2943 H2946 0.950 . S
C2944 C2943 1.387 . S
C2944 C2947 1.387 . S
H2945 C2941 0.950 . S
H2946 C2943 0.950 . S
C2947 C2938 1.390 . S
C2947 H2940 0.950 . S
C2947 C2944 1.387 . S
C2948 C2949 1.387 . S
C2948 H2952 0.950 . S
C2948 C2957 1.390 . S
C2949 C2948 1.387 . S
C2949 C2951 1.387 . S
H2950 C2957 0.950 . S
C2951 C2949 1.387 . S
C2951 C2953 1.390 . S
C2951 H2955 0.950 . S
H2952 C2948 0.950 . S
C2953 C2951 1.390 . S
C2953 C2954 1.387 . S
C2953 H2956 0.950 . S
C2954 C2953 1.387 . S
C2954 C2957 1.387 . S
H2955 C2951 0.950 . S
H2956 C2953 0.950 . S
C2957 C2948 1.390 . S
C2957 H2950 0.950 . S
C2957 C2954 1.387 . S
C2958 C2959 1.387 . S
C2958 H2962 0.950 . S
C2958 C2967 1.390 . S
C2959 C2958 1.387 . S
C2959 C2961 1.387 . S
H2960 C2967 0.950 . S
C2961 C2959 1.387 . S
C2961 C2963 1.390 . S
C2961 H2965 0.950 . S
H2962 C2958 0.950 . S
C2963 C2961 1.390 . S
C2963 C2964 1.387 . S
C2963 H2966 0.950 . S
C2964 C2963 1.387 . S
C2964 C2967 1.387 . S
H2965 C2961 0.950 . S
H2966 C2963 0.950 . S
C2967 C2958 1.390 . S
C2967 H2960 0.950 . S
C2967 C2964 1.387 . S
C2968 C2969 1.387 . S
C2968 H2972 0.950 . S
C2968 C2977 1.390 . S
C2969 C2968 1.387 . S
C2969 C2971 1.387 . S
H2970 C2977 0.950 . S
C2971 C2969 1.387 . S
C2971 C2973 1.390 . S
C2971 H2975 0.950 . S
H2972 C2968 0.950 . S
C2973 C2971 1.390 . S
C2973 C2974 1.387 . S
C2973 H2976 0.950 . S
C2974 C2973 1.387 . S
C2974 C2977 1.387 . S
H2975 C2971 0.950 . S
H2976 C2973 0.950 . S
C2977 C2968 1.390 . S
C2977 H2970 0.950 . S
C2977 C2974 1.387 . S
C2978 C2979 1.387 . S
C2978 H2982 0.950 . S
C2978 C2987 1.390 . S
C2979 C2978 1.387 . S
C2979 C2981 1.387 . S
H2980 C2987 0.950 . S
C2981 C2979 1.387 . S
C2981 C2983 1.390 . S
C2981 H2985 0.950 . S
H2982 C2978 0.950 . S
C2983 C2981 1.390 . S
C2983 C2984 1.387 . S
C2983 H2986 0.950 . S
C2984 C2983 1.387 . S
C2984 C2987 1.387 . S
H2985 C2981 0.950 . S
H2986 C2983 0.950 . S
C2987 C2978 1.390 . S
C2987 H2980 0.950 . S
C2987 C2984 1.387 . S
C2988 C2989 1.387 . S
C2988 H2992 0.950 . S
C2988 C2997 1.390 . S
C2989 C2988 1.387 . S
C2989 C2991 1.387 . S
H2990 C2997 0.950 . S
C2991 C2989 1.387 . S
C2991 C2993 1.390 . S
C2991 H2995 0.950 . S
H2992 C2988 0.950 . S
C2993 C2991 1.390 . S
C2993 C2994 1.387 . S
C2993 H2996 0.950 . S
C2994 C2993 1.387 . S
C2994 C2997 1.387 . S
H2995 C2991 0.950 . S
H2996 C2993 0.950 . S
C2997 C2988 1.390 . S
C2997 H2990 0.950 . S
C2997 C2994 1.387 . S
C2998 C2999 1.387 . S
C2998 H3002 0.950 . S
C2998 C3007 1.390 . S
C2999 C2998 1.387 . S
C2999 C3001 1.387 . S
H3000 C3007 0.950 . S
C3001 C2999 1.387 . S
C3001 C3003 1.390 . S
C3001 H3005 0.950 . S
H3002 C2998 0.950 . S
C3003 C3001 1.390 . S
C3003 C3004 1.387 . S
C3003 H3006 0.950 . S
C3004 C3003 1.387 . S
C3004 C3007 1.387 . S
H3005 C3001 0.950 . S
H3006 C3003 0.950 . S
C3007 C2998 1.390 . S
C3007 H3000 0.950 . S
C3007 C3004 1.387 . S
C3008 C3009 1.387 . S
C3008 H3012 0.950 . S
C3008 C3017 1.390 . S
C3009 C3008 1.387 . S
C3009 C3011 1.387 . S
H3010 C3017 0.950 . S
C3011 C3009 1.387 . S
C3011 C3013 1.390 . S
C3011 H3015 0.950 . S
H3012 C3008 0.950 . S
C3013 C3011 1.390 . S
C3013 C3014 1.387 . S
C3013 H3016 0.950 . S
C3014 C3013 1.387 . S
C3014 C3017 1.387 . S
H3015 C3011 0.950 . S
H3016 C3013 0.950 . S
C3017 C3008 1.390 . S
C3017 H3010 0.950 . S
C3017 C3014 1.387 . S
C3018 C3019 1.387 . S
C3018 H3022 0.950 . S
C3018 C3027 1.390 . S
C3019 C3018 1.387 . S
C3019 C3021 1.387 . S
H3020 C3027 0.950 . S
C3021 C3019 1.387 . S
C3021 C3023 1.390 . S
C3021 H3025 0.950 . S
H3022 C3018 0.950 . S
C3023 C3021 1.390 . S
C3023 C3024 1.387 . S
C3023 H3026 0.950 . S
C3024 C3023 1.387 . S
C3024 C3027 1.387 . S
H3025 C3021 0.950 . S
H3026 C3023 0.950 . S
C3027 C3018 1.390 . S
C3027 H3020 0.950 . S
C3027 C3024 1.387 . S
C3028 C3029 1.387 . S
C3028 H3032 0.950 . S
C3028 C3037 1.390 . S
C3029 C3028 1.387 . S
C3029 C3031 1.387 . S
H3030 C3037 0.950 . S
C3031 C3029 1.387 . S
C3031 C3033 1.390 . S
C3031 H3035 0.950 . S
H3032 C3028 0.950 . S
C3033 C3031 1.390 . S
C3033 C3034 1.387 . S
C3033 H3036 0.950 . S
C3034 C3033 1.387 . S
C3034 C3037 1.387 . S
H3035 C3031 0.950 . S
H3036 C3033 0.950 . S
C3037 C3028 1.390 . S
C3037 H3030 0.950 . S
C3037 C3034 1.387 . S
C3038 C3039 1.387 . S
C3038 H3042 0.950 . S
C3038 C3047 1.390 . S
C3039 C3038 1.387 . S
C3039 C3041 1.387 . S
H3040 C3047 0.950 . S
C3041 C3039 1.387 . S
C3041 C3043 1.390 . S
C3041 H3045 0.950 . S
H3042 C3038 0.950 . S
C3043 C3041 1.390 . S
C3043 C3044 1.387 . S
C3043 H3046 0.950 . S
C3044 C3043 1.387 . S
C3044 C3047 1.387 . S
H3045 C3041 0.950 . S
H3046 C3043 0.950 . S
C3047 C3038 1.390 . S
C3047 H3040 0.950 . S
C3047 C3044 1.387 . S
C3048 C3049 1.387 . S
C3048 H3052 0.950 . S
C3048 C3057 1.390 . S
C3049 C3048 1.387 . S
C3049 C3051 1.387 . S
H3050 C3057 0.950 . S
C3051 C3049 1.387 . S
C3051 C3053 1.390 . S
C3051 H3055 0.950 . S
H3052 C3048 0.950 . S
C3053 C3051 1.390 . S
C3053 C3054 1.387 . S
C3053 H3056 0.950 . S
C3054 C3053 1.387 . S
C3054 C3057 1.387 . S
H3055 C3051 0.950 . S
H3056 C3053 0.950 . S
C3057 C3048 1.390 . S
C3057 H3050 0.950 . S
C3057 C3054 1.387 . S
C3058 C3059 1.387 . S
C3058 H3062 0.950 . S
C3058 C3067 1.390 . S
C3059 C3058 1.387 . S
C3059 C3061 1.387 . S
H3060 C3067 0.950 . S
C3061 C3059 1.387 . S
C3061 C3063 1.390 . S
C3061 H3065 0.950 . S
H3062 C3058 0.950 . S
C3063 C3061 1.390 . S
C3063 C3064 1.387 . S
C3063 H3066 0.950 . S
C3064 C3063 1.387 . S
C3064 C3067 1.387 . S
H3065 C3061 0.950 . S
H3066 C3063 0.950 . S
C3067 C3058 1.390 . S
C3067 H3060 0.950 . S
C3067 C3064 1.387 . S
C3068 C3069 1.387 . S
C3068 H3072 0.950 . S
C3068 C3077 1.390 . S
C3069 C3068 1.387 . S
C3069 C3071 1.387 . S
H3070 C3077 0.950 . S
C3071 C3069 1.387 . S
C3071 C3073 1.390 . S
C3071 H3075 0.950 . S
H3072 C3068 0.950 . S
C3073 C3071 1.390 . S
C3073 C3074 1.387 . S
C3073 H3076 0.950 . S
C3074 C3073 1.387 . S
C3074 C3077 1.387 . S
H3075 C3071 0.950 . S
H3076 C3073 0.950 . S
C3077 C3068 1.390 . S
C3077 H3070 0.950 . S
C3077 C3074 1.387 . S
C3078 C3079 1.387 . S
C3078 H3082 0.950 . S
C3078 C3087 1.390 . S
C3079 C3078 1.387 . S
C3079 C3081 1.387 . S
H3080 C3087 0.950 . S
C3081 C3079 1.387 . S
C3081 C3083 1.390 . S
C3081 H3085 0.950 . S
H3082 C3078 0.950 . S
C3083 C3081 1.390 . S
C3083 C3084 1.387 . S
C3083 H3086 0.950 . S
C3084 C3083 1.387 . S
C3084 C3087 1.387 . S
H3085 C3081 0.950 . S
H3086 C3083 0.950 . S
C3087 C3078 1.390 . S
C3087 H3080 0.950 . S
C3087 C3084 1.387 . S
C3088 C3089 1.387 . S
C3088 H3092 0.950 . S
C3088 C3097 1.390 . S
C3089 C3088 1.387 . S
C3089 C3091 1.387 . S
H3090 C3097 0.950 . S
C3091 C3089 1.387 . S
C3091 C3093 1.390 . S
C3091 H3095 0.950 . S
H3092 C3088 0.950 . S
C3093 C3091 1.390 . S
C3093 C3094 1.387 . S
C3093 H3096 0.950 . S
C3094 C3093 1.387 . S
C3094 C3097 1.387 . S
H3095 C3091 0.950 . S
H3096 C3093 0.950 . S
C3097 C3088 1.390 . S
C3097 H3090 0.950 . S
C3097 C3094 1.387 . S
C3098 C3099 1.387 . S
C3098 H3102 0.950 . S
C3098 C3107 1.390 . S
C3099 C3098 1.387 . S
C3099 C3101 1.387 . S
H3100 C3107 0.950 . S
C3101 C3099 1.387 . S
C3101 C3103 1.390 . S
C3101 H3105 0.950 . S
H3102 C3098 0.950 . S
C3103 C3101 1.390 . S
C3103 C3104 1.387 . S
C3103 H3106 0.950 . S
C3104 C3103 1.387 . S
C3104 C3107 1.387 . S
H3105 C3101 0.950 . S
H3106 C3103 0.950 . S
C3107 C3098 1.390 . S
C3107 H3100 0.950 . S
C3107 C3104 1.387 . S
C3108 C3109 1.387 . S
C3108 H3112 0.950 . S
C3108 C3117 1.390 . S
C3109 C3108 1.387 . S
C3109 C3111 1.387 . S
H3110 C3117 0.950 . S
C3111 C3109 1.387 . S
C3111 C3113 1.390 . S
C3111 H3115 0.950 . S
H3112 C3108 0.950 . S
C3113 C3111 1.390 . S
C3113 C3114 1.387 . S
C3113 H3116 0.950 . S
C3114 C3113 1.387 . S
C3114 C3117 1.387 . S
H3115 C3111 0.950 . S
H3116 C3113 0.950 . S
C3117 C3108 1.390 . S
C3117 H3110 0.950 . S
C3117 C3114 1.387 . S
C3118 C3119 1.387 . S
C3118 H3122 0.950 . S
C3118 C3127 1.390 . S
C3119 C3118 1.387 . S
C3119 C3121 1.387 . S
H3120 C3127 0.950 . S
C3121 C3119 1.387 . S
C3121 C3123 1.390 . S
C3121 H3125 0.950 . S
H3122 C3118 0.950 . S
C3123 C3121 1.390 . S
C3123 C3124 1.387 . S
C3123 H3126 0.950 . S
C3124 C3123 1.387 . S
C3124 C3127 1.387 . S
H3125 C3121 0.950 . S
H3126 C3123 0.950 . S
C3127 C3118 1.390 . S
C3127 H3120 0.950 . S
C3127 C3124 1.387 . S
C3128 C3129 1.387 . S
C3128 H3132 0.950 . S
C3128 C3137 1.390 . S
C3129 C3128 1.387 . S
C3129 C3131 1.387 . S
H3130 C3137 0.950 . S
C3131 C3129 1.387 . S
C3131 C3133 1.390 . S
C3131 H3135 0.950 . S
H3132 C3128 0.950 . S
C3133 C3131 1.390 . S
C3133 C3134 1.387 . S
C3133 H3136 0.950 . S
C3134 C3133 1.387 . S
C3134 C3137 1.387 . S
H3135 C3131 0.950 . S
H3136 C3133 0.950 . S
C3137 C3128 1.390 . S
C3137 H3130 0.950 . S
C3137 C3134 1.387 . S
C3138 C3139 1.387 . S
C3138 H3142 0.950 . S
C3138 C3147 1.390 . S
C3139 C3138 1.387 . S
C3139 C3141 1.387 . S
H3140 C3147 0.950 . S
C3141 C3139 1.387 . S
C3141 C3143 1.390 . S
C3141 H3145 0.950 . S
H3142 C3138 0.950 . S
C3143 C3141 1.390 . S
C3143 C3144 1.387 . S
C3143 H3146 0.950 . S
C3144 C3143 1.387 . S
C3144 C3147 1.387 . S
H3145 C3141 0.950 . S
H3146 C3143 0.950 . S
C3147 C3138 1.390 . S
C3147 H3140 0.950 . S
C3147 C3144 1.387 . S
C3148 C3149 1.387 . S
C3148 H3152 0.950 . S
C3148 C3157 1.390 . S
C3149 C3148 1.387 . S
C3149 C3151 1.387 . S
H3150 C3157 0.950 . S
C3151 C3149 1.387 . S
C3151 C3153 1.390 . S
C3151 H3155 0.950 . S
H3152 C3148 0.950 . S
C3153 C3151 1.390 . S
C3153 C3154 1.387 . S
C3153 H3156 0.950 . S
C3154 C3153 1.387 . S
C3154 C3157 1.387 . S
H3155 C3151 0.950 . S
H3156 C3153 0.950 . S
C3157 C3148 1.390 . S
C3157 H3150 0.950 . S
C3157 C3154 1.387 . S
C3158 C3159 1.387 . S
C3158 H3162 0.950 . S
C3158 C3167 1.390 . S
C3159 C3158 1.387 . S
C3159 C3161 1.387 . S
H3160 C3167 0.950 . S
C3161 C3159 1.387 . S
C3161 C3163 1.390 . S
C3161 H3165 0.950 . S
H3162 C3158 0.950 . S
C3163 C3161 1.390 . S
C3163 C3164 1.387 . S
C3163 H3166 0.950 . S
C3164 C3163 1.387 . S
C3164 C3167 1.387 . S
H3165 C3161 0.950 . S
H3166 C3163 0.950 . S
C3167 C3158 1.390 . S
C3167 H3160 0.950 . S
C3167 C3164 1.387 . S
C3168 C3169 1.387 . S
C3168 H3172 0.950 . S
C3168 C3177 1.390 . S
C3169 C3168 1.387 . S
C3169 C3171 1.387 . S
H3170 C3177 0.950 . S
C3171 C3169 1.387 . S
C3171 C3173 1.390 . S
C3171 H3175 0.950 . S
H3172 C3168 0.950 . S
C3173 C3171 1.390 . S
C3173 C3174 1.387 . S
C3173 H3176 0.950 . S
C3174 C3173 1.387 . S
C3174 C3177 1.387 . S
H3175 C3171 0.950 . S
H3176 C3173 0.950 . S
C3177 C3168 1.390 . S
C3177 H3170 0.950 . S
C3177 C3174 1.387 . S
C3178 C3179 1.387 . S
C3178 H3182 0.950 . S
C3178 C3187 1.390 . S
C3179 C3178 1.387 . S
C3179 C3181 1.387 . S
H3180 C3187 0.950 . S
C3181 C3179 1.387 . S
C3181 C3183 1.390 . S
C3181 H3185 0.950 . S
H3182 C3178 0.950 . S
C3183 C3181 1.390 . S
C3183 C3184 1.387 . S
C3183 H3186 0.950 . S
C3184 C3183 1.387 . S
C3184 C3187 1.387 . S
H3185 C3181 0.950 . S
H3186 C3183 0.950 . S
C3187 C3178 1.390 . S
C3187 H3180 0.950 . S
C3187 C3184 1.387 . S
C3188 C3189 1.387 . S
C3188 H3192 0.950 . S
C3188 C3197 1.390 . S
C3189 C3188 1.387 . S
C3189 C3191 1.387 . S
H3190 C3197 0.950 . S
C3191 C3189 1.387 . S
C3191 C3193 1.390 . S
C3191 H3195 0.950 . S
H3192 C3188 0.950 . S
C3193 C3191 1.390 . S
C3193 C3194 1.387 . S
C3193 H3196 0.950 . S
C3194 C3193 1.387 . S
C3194 C3197 1.387 . S
H3195 C3191 0.950 . S
H3196 C3193 0.950 . S
C3197 C3188 1.390 . S
C3197 H3190 0.950 . S
C3197 C3194 1.387 . S
C3198 C3199 1.387 . S
C3198 H3202 0.950 . S
C3198 C3207 1.390 . S
C3199 C3198 1.387 . S
C3199 C3201 1.387 . S
H3200 C3207 0.950 . S
C3201 C3199 1.387 . S
C3201 C3203 1.390 . S
C3201 H3205 0.950 . S
H3202 C3198 0.950 . S
C3203 C3201 1.390 . S
C3203 C3204 1.387 . S
C3203 H3206 0.950 . S
C3204 C3203 1.387 . S
C3204 C3207 1.387 . S
H3205 C3201 0.950 . S
H3206 C3203 0.950 . S
C3207 C3198 1.390 . S
C3207 H3200 0.950 . S
C3207 C3204 1.387 . S
C3208 C3209 1.387 . S
C3208 H3212 0.950 . S
C3208 C3217 1.390 . S
C3209 C3208 1.387 . S
C3209 C3211 1.387 . S
H3210 C3217 0.950 . S
C3211 C3209 1.387 . S
C3211 C3213 1.390 . S
C3211 H3215 0.950 . S
H3212 C3208 0.950 . S
C3213 C3211 1.390 . S
C3213 C3214 1.387 . S
C3213 H3216 0.950 . S
C3214 C3213 1.387 . S
C3214 C3217 1.387 . S
H3215 C3211 0.950 . S
H3216 C3213 0.950 . S
C3217 C3208 1.390 . S
C3217 H3210 0.950 . S
C3217 C3214 1.387 . S
C3218 C3219 1.387 . S
C3218 H3222 0.950 . S
C3218 C3227 1.390 . S
C3219 C3218 1.387 . S
C3219 C3221 1.387 . S
H3220 C3227 0.950 . S
C3221 C3219 1.387 . S
C3221 C3223 1.390 . S
C3221 H3225 0.950 . S
H3222 C3218 0.950 . S
C3223 C3221 1.390 . S
C3223 C3224 1.387 . S
C3223 H3226 0.950 . S
C3224 C3223 1.387 . S
C3224 C3227 1.387 . S
H3225 C3221 0.950 . S
H3226 C3223 0.950 . S
C3227 C3218 1.390 . S
C3227 H3220 0.950 . S
C3227 C3224 1.387 . S
C3228 C3229 1.387 . S
C3228 H3232 0.950 . S
C3228 C3237 1.390 . S
C3229 C3228 1.387 . S
C3229 C3231 1.387 . S
H3230 C3237 0.950 . S
C3231 C3229 1.387 . S
C3231 C3233 1.390 . S
C3231 H3235 0.950 . S
H3232 C3228 0.950 . S
C3233 C3231 1.390 . S
C3233 C3234 1.387 . S
C3233 H3236 0.950 . S
C3234 C3233 1.387 . S
C3234 C3237 1.387 . S
H3235 C3231 0.950 . S
H3236 C3233 0.950 . S
C3237 C3228 1.390 . S
C3237 H3230 0.950 . S
C3237 C3234 1.387 . S
C3238 C3239 1.387 . S
C3238 H3242 0.950 . S
C3238 C3247 1.390 . S
C3239 C3238 1.387 . S
C3239 C3241 1.387 . S
H3240 C3247 0.950 . S
C3241 C3239 1.387 . S
C3241 C3243 1.390 . S
C3241 H3245 0.950 . S
H3242 C3238 0.950 . S
C3243 C3241 1.390 . S
C3243 C3244 1.387 . S
C3243 H3246 0.950 . S
C3244 C3243 1.387 . S
C3244 C3247 1.387 . S
H3245 C3241 0.950 . S
H3246 C3243 0.950 . S
C3247 C3238 1.390 . S
C3247 H3240 0.950 . S
C3247 C3244 1.387 . S
C3248 C3249 1.387 . S
C3248 H3252 0.950 . S
C3248 C3257 1.390 . S
C3249 C3248 1.387 . S
C3249 C3251 1.387 . S
H3250 C3257 0.950 . S
C3251 C3249 1.387 . S
C3251 C3253 1.390 . S
C3251 H3255 0.950 . S
H3252 C3248 0.950 . S
C3253 C3251 1.390 . S
C3253 C3254 1.387 . S
C3253 H3256 0.950 . S
C3254 C3253 1.387 . S
C3254 C3257 1.387 . S
H3255 C3251 0.950 . S
H3256 C3253 0.950 . S
C3257 C3248 1.390 . S
C3257 H3250 0.950 . S
C3257 C3254 1.387 . S
C3258 C3259 1.387 . S
C3258 H3262 0.950 . S
C3258 C3267 1.390 . S
C3259 C3258 1.387 . S
C3259 C3261 1.387 . S
H3260 C3267 0.950 . S
C3261 C3259 1.387 . S
C3261 C3263 1.390 . S
C3261 H3265 0.950 . S
H3262 C3258 0.950 . S
C3263 C3261 1.390 . S
C3263 C3264 1.387 . S
C3263 H3266 0.950 . S
C3264 C3263 1.387 . S
C3264 C3267 1.387 . S
H3265 C3261 0.950 . S
H3266 C3263 0.950 . S
C3267 C3258 1.390 . S
C3267 H3260 0.950 . S
C3267 C3264 1.387 . S
C3268 C3269 1.387 . S
C3268 H3272 0.950 . S
C3268 C3277 1.390 . S
C3269 C3268 1.387 . S
C3269 C3271 1.387 . S
H3270 C3277 0.950 . S
C3271 C3269 1.387 . S
C3271 C3273 1.390 . S
C3271 H3275 0.950 . S
H3272 C3268 0.950 . S
C3273 C3271 1.390 . S
C3273 C3274 1.387 . S
C3273 H3276 0.950 . S
C3274 C3273 1.387 . S
C3274 C3277 1.387 . S
H3275 C3271 0.950 . S
H3276 C3273 0.950 . S
C3277 C3268 1.390 . S
C3277 H3270 0.950 . S
C3277 C3274 1.387 . S
C3278 C3279 1.387 . S
C3278 H3282 0.950 . S
C3278 C3287 1.390 . S
C3279 C3278 1.387 . S
C3279 C3281 1.387 . S
H3280 C3287 0.950 . S
C3281 C3279 1.387 . S
C3281 C3283 1.390 . S
C3281 H3285 0.950 . S
H3282 C3278 0.950 . S
C3283 C3281 1.390 . S
C3283 C3284 1.387 . S
C3283 H3286 0.950 . S
C3284 C3283 1.387 . S
C3284 C3287 1.387 . S
H3285 C3281 0.950 . S
H3286 C3283 0.950 . S
C3287 C3278 1.390 . S
C3287 H3280 0.950 . S
C3287 C3284 1.387 . S
C3288 C3289 1.387 . S
C3288 H3292 0.950 . S
C3288 C3297 1.390 . S
C3289 C3288 1.387 . S
C3289 C3291 1.387 . S
H3290 C3297 0.950 . S
C3291 C3289 1.387 . S
C3291 C3293 1.390 . S
C3291 H3295 0.950 . S
H3292 C3288 0.950 . S
C3293 C3291 1.390 . S
C3293 C3294 1.387 . S
C3293 H3296 0.950 . S
C3294 C3293 1.387 . S
C3294 C3297 1.387 . S
H3295 C3291 0.950 . S
H3296 C3293 0.950 . S
C3297 C3288 1.390 . S
C3297 H3290 0.950 . S
C3297 C3294 1.387 . S
C3298 C3299 1.387 . S
C3298 H3302 0.950 . S
C3298 C3307 1.390 . S
C3299 C3298 1.387 . S
C3299 C3301 1.387 . S
H3300 C3307 0.950 . S
C3301 C3299 1.387 . S
C3301 C3303 1.390 . S
C3301 H3305 0.950 . S
H3302 C3298 0.950 . S
C3303 C3301 1.390 . S
C3303 C3304 1.387 . S
C3303 H3306 0.950 . S
C3304 C3303 1.387 . S
C3304 C3307 1.387 . S
H3305 C3301 0.950 . S
H3306 C3303 0.950 . S
C3307 C3298 1.390 . S
C3307 H3300 0.950 . S
C3307 C3304 1.387 . S
C3308 C3309 1.387 . S
C3308 H3312 0.950 . S
C3308 C3317 1.390 . S
C3309 C3308 1.387 . S
C3309 C3311 1.387 . S
H3310 C3317 0.950 . S
C3311 C3309 1.387 . S
C3311 C3313 1.390 . S
C3311 H3315 0.950 . S
H3312 C3308 0.950 . S
C3313 C3311 1.390 . S
C3313 C3314 1.387 . S
C3313 H3316 0.950 . S
C3314 C3313 1.387 . S
C3314 C3317 1.387 . S
H3315 C3311 0.950 . S
H3316 C3313 0.950 . S
C3317 C3308 1.390 . S
C3317 H3310 0.950 . S
C3317 C3314 1.387 . S
C3318 C3319 1.387 . S
C3318 H3322 0.950 . S
C3318 C3327 1.390 . S
C3319 C3318 1.387 . S
C3319 C3321 1.387 . S
H3320 C3327 0.950 . S
C3321 C3319 1.387 . S
C3321 C3323 1.390 . S
C3321 H3325 0.950 . S
H3322 C3318 0.950 . S
C3323 C3321 1.390 . S
C3323 C3324 1.387 . S
C3323 H3326 0.950 . S
C3324 C3323 1.387 . S
C3324 C3327 1.387 . S
H3325 C3321 0.950 . S
H3326 C3323 0.950 . S
C3327 C3318 1.390 . S
C3327 H3320 0.950 . S
C3327 C3324 1.387 . S
C3328 C3329 1.387 . S
C3328 H3332 0.950 . S
C3328 C3337 1.390 . S
C3329 C3328 1.387 . S
C3329 C3331 1.387 . S
H3330 C3337 0.950 . S
C3331 C3329 1.387 . S
C3331 C3333 1.390 . S
C3331 H3335 0.950 . S
H3332 C3328 0.950 . S
C3333 C3331 1.390 . S
C3333 C3334 1.387 . S
C3333 H3336 0.950 . S
C3334 C3333 1.387 . S
C3334 C3337 1.387 . S
H3335 C3331 0.950 . S
H3336 C3333 0.950 . S
C3337 C3328 1.390 . S
C3337 H3330 0.950 . S
C3337 C3334 1.387 . S
C3338 C3339 1.387 . S
C3338 H3342 0.950 . S
C3338 C3347 1.390 . S
C3339 C3338 1.387 . S
C3339 C3341 1.387 . S
H3340 C3347 0.950 . S
C3341 C3339 1.387 . S
C3341 C3343 1.390 . S
C3341 H3345 0.950 . S
H3342 C3338 0.950 . S
C3343 C3341 1.390 . S
C3343 C3344 1.387 . S
C3343 H3346 0.950 . S
C3344 C3343 1.387 . S
C3344 C3347 1.387 . S
H3345 C3341 0.950 . S
H3346 C3343 0.950 . S
C3347 C3338 1.390 . S
C3347 H3340 0.950 . S
C3347 C3344 1.387 . S
C3348 C3349 1.387 . S
C3348 H3352 0.950 . S
C3348 C3357 1.390 . S
C3349 C3348 1.387 . S
C3349 C3351 1.387 . S
H3350 C3357 0.950 . S
C3351 C3349 1.387 . S
C3351 C3353 1.390 . S
C3351 H3355 0.950 . S
H3352 C3348 0.950 . S
C3353 C3351 1.390 . S
C3353 C3354 1.387 . S
C3353 H3356 0.950 . S
C3354 C3353 1.387 . S
C3354 C3357 1.387 . S
H3355 C3351 0.950 . S
H3356 C3353 0.950 . S
C3357 C3348 1.390 . S
C3357 H3350 0.950 . S
C3357 C3354 1.387 . S
C3358 C3359 1.387 . S
C3358 H3362 0.950 . S
C3358 C3367 1.390 . S
C3359 C3358 1.387 . S
C3359 C3361 1.387 . S
H3360 C3367 0.950 . S
C3361 C3359 1.387 . S
C3361 C3363 1.390 . S
C3361 H3365 0.950 . S
H3362 C3358 0.950 . S
C3363 C3361 1.390 . S
C3363 C3364 1.387 . S
C3363 H3366 0.950 . S
C3364 C3363 1.387 . S
C3364 C3367 1.387 . S
H3365 C3361 0.950 . S
H3366 C3363 0.950 . S
C3367 C3358 1.390 . S
C3367 H3360 0.950 . S
C3367 C3364 1.387 . S
C3368 C3369 1.387 . S
C3368 H3372 0.950 . S
C3368 C3377 1.390 . S
C3369 C3368 1.387 . S
C3369 C3371 1.387 . S
H3370 C3377 0.950 . S
C3371 C3369 1.387 . S
C3371 C3373 1.390 . S
C3371 H3375 0.950 . S
H3372 C3368 0.950 . S
C3373 C3371 1.390 . S
C3373 C3374 1.387 . S
C3373 H3376 0.950 . S
C3374 C3373 1.387 . S
C3374 C3377 1.387 . S
H3375 C3371 0.950 . S
H3376 C3373 0.950 . S
C3377 C3368 1.390 . S
C3377 H3370 0.950 . S
C3377 C3374 1.387 . S
C3378 C3379 1.387 . S
C3378 H3382 0.950 . S
C3378 C3387 1.390 . S
C3379 C3378 1.387 . S
C3379 C3381 1.387 . S
H3380 C3387 0.950 . S
C3381 C3379 1.387 . S
C3381 C3383 1.390 . S
C3381 H3385 0.950 . S
H3382 C3378 0.950 . S
C3383 C3381 1.390 . S
C3383 C3384 1.387 . S
C3383 H3386 0.950 . S
C3384 C3383 1.387 . S
C3384 C3387 1.387 . S
H3385 C3381 0.950 . S
H3386 C3383 0.950 . S
C3387 C3378 1.390 . S
C3387 H3380 0.950 . S
C3387 C3384 1.387 . S
C3388 C3389 1.387 . S
C3388 H3392 0.950 . S
C3388 C3397 1.390 . S
C3389 C3388 1.387 . S
C3389 C3391 1.387 . S
H3390 C3397 0.950 . S
C3391 C3389 1.387 . S
C3391 C3393 1.390 . S
C3391 H3395 0.950 . S
H3392 C3388 0.950 . S
C3393 C3391 1.390 . S
C3393 C3394 1.387 . S
C3393 H3396 0.950 . S
C3394 C3393 1.387 . S
C3394 C3397 1.387 . S
H3395 C3391 0.950 . S
H3396 C3393 0.950 . S
C3397 C3388 1.390 . S
C3397 H3390 0.950 . S
C3397 C3394 1.387 . S
C3398 C3399 1.387 . S
C3398 H3402 0.950 . S
C3398 C3407 1.390 . S
C3399 C3398 1.387 . S
C3399 C3401 1.387 . S
H3400 C3407 0.950 . S
C3401 C3399 1.387 . S
C3401 C3403 1.390 . S
C3401 H3405 0.950 . S
H3402 C3398 0.950 . S
C3403 C3401 1.390 . S
C3403 C3404 1.387 . S
C3403 H3406 0.950 . S
C3404 C3403 1.387 . S
C3404 C3407 1.387 . S
H3405 C3401 0.950 . S
H3406 C3403 0.950 . S
C3407 C3398 1.390 . S
C3407 H3400 0.950 . S
C3407 C3404 1.387 . S
C3408 C3409 1.387 . S
C3408 H3412 0.950 . S
C3408 C3417 1.390 . S
C3409 C3408 1.387 . S
C3409 C3411 1.387 . S
H3410 C3417 0.950 . S
C3411 C3409 1.387 . S
C3411 C3413 1.390 . S
C3411 H3415 0.950 . S
H3412 C3408 0.950 . S
C3413 C3411 1.390 . S
C3413 C3414 1.387 . S
C3413 H3416 0.950 . S
C3414 C3413 1.387 . S
C3414 C3417 1.387 . S
H3415 C3411 0.950 . S
H3416 C3413 0.950 . S
C3417 C3408 1.390 . S
C3417 H3410 0.950 . S
C3417 C3414 1.387 . S
C3418 C3419 1.387 . S
C3418 H3422 0.950 . S
C3418 C3427 1.390 . S
C3419 C3418 1.387 . S
C3419 C3421 1.387 . S
H3420 C3427 0.950 . S
C3421 C3419 1.387 . S
C3421 C3423 1.390 . S
C3421 H3425 0.950 . S
H3422 C3418 0.950 . S
C3423 C3421 1.390 . S
C3423 C3424 1.387 . S
C3423 H3426 0.950 . S
C3424 C3423 1.387 . S
C3424 C3427 1.387 . S
H3425 C3421 0.950 . S
H3426 C3423 0.950 . S
C3427 C3418 1.390 . S
C3427 H3420 0.950 . S
C3427 C3424 1.387 . S
C3428 C3429 1.387 . S
C3428 H3432 0.950 . S
C3428 C3437 1.390 . S
C3429 C3428 1.387 . S
C3429 C3431 1.387 . S
H3430 C3437 0.950 . S
C3431 C3429 1.387 . S
C3431 C3433 1.390 . S
C3431 H3435 0.950 . S
H3432 C3428 0.950 . S
C3433 C3431 1.390 . S
C3433 C3434 1.387 . S
C3433 H3436 0.950 . S
C3434 C3433 1.387 . S
C3434 C3437 1.387 . S
H3435 C3431 0.950 . S
H3436 C3433 0.950 . S
C3437 C3428 1.390 . S
C3437 H3430 0.950 . S
C3437 C3434 1.387 . S
C3438 C3439 1.387 . S
C3438 H3442 0.950 . S
C3438 C3447 1.390 . S
C3439 C3438 1.387 . S
C3439 C3441 1.387 . S
H3440 C3447 0.950 . S
C3441 C3439 1.387 . S
C3441 C3443 1.390 . S
C3441 H3445 0.950 . S
H3442 C3438 0.950 . S
C3443 C3441 1.390 . S
C3443 C3444 1.387 . S
C3443 H3446 0.950 . S
C3444 C3443 1.387 . S
C3444 C3447 1.387 . S
H3445 C3441 0.950 . S
H3446 C3443 0.950 . S
C3447 C3438 1.390 . S
C3447 H3440 0.950 . S
C3447 C3444 1.387 . S
C3448 C3449 1.387 . S
C3448 H3452 0.950 . S
C3448 C3457 1.390 . S
C3449 C3448 1.387 . S
C3449 C3451 1.387 . S
H3450 C3457 0.950 . S
C3451 C3449 1.387 . S
C3451 C3453 1.390 . S
C3451 H3455 0.950 . S
H3452 C3448 0.950 . S
C3453 C3451 1.390 . S
C3453 C3454 1.387 . S
C3453 H3456 0.950 . S
C3454 C3453 1.387 . S
C3454 C3457 1.387 . S
H3455 C3451 0.950 . S
H3456 C3453 0.950 . S
C3457 C3448 1.390 . S
C3457 H3450 0.950 . S
C3457 C3454 1.387 . S
C3458 C3459 1.387 . S
C3458 H3462 0.950 . S
C3458 C3467 1.390 . S
C3459 C3458 1.387 . S
C3459 C3461 1.387 . S
H3460 C3467 0.950 . S
C3461 C3459 1.387 . S
C3461 C3463 1.390 . S
C3461 H3465 0.950 . S
H3462 C3458 0.950 . S
C3463 C3461 1.390 . S
C3463 C3464 1.387 . S
C3463 H3466 0.950 . S
C3464 C3463 1.387 . S
C3464 C3467 1.387 . S
H3465 C3461 0.950 . S
H3466 C3463 0.950 . S
C3467 C3458 1.390 . S
C3467 H3460 0.950 . S
C3467 C3464 1.387 . S
C3468 C3469 1.387 . S
C3468 H3472 0.950 . S
C3468 C3477 1.390 . S
C3469 C3468 1.387 . S
C3469 C3471 1.387 . S
H3470 C3477 0.950 . S
C3471 C3469 1.387 . S
C3471 C3473 1.390 . S
C3471 H3475 0.950 . S
H3472 C3468 0.950 . S
C3473 C3471 1.390 . S
C3473 C3474 1.387 . S
C3473 H3476 0.950 . S
C3474 C3473 1.387 . S
C3474 C3477 1.387 . S
H3475 C3471 0.950 . S
H3476 C3473 0.950 . S
C3477 C3468 1.390 . S
C3477 H3470 0.950 . S
C3477 C3474 1.387 . S
C3478 C3479 1.387 . S
C3478 H3482 0.950 . S
C3478 C3487 1.390 . S
C3479 C3478 1.387 . S
C3479 C3481 1.387 . S
H3480 C3487 0.950 . S
C3481 C3479 1.387 . S
C3481 C3483 1.390 . S
C3481 H3485 0.950 . S
H3482 C3478 0.950 . S
C3483 C3481 1.390 . S
C3483 C3484 1.387 . S
C3483 H3486 0.950 . S
C3484 C3483 1.387 . S
C3484 C3487 1.387 . S
H3485 C3481 0.950 . S
H3486 C3483 0.950 . S
C3487 C3478 1.390 . S
C3487 H3480 0.950 . S
C3487 C3484 1.387 . S
C3488 C3489 1.387 . S
C3488 H3492 0.950 . S
C3488 C3497 1.390 . S
C3489 C3488 1.387 . S
C3489 C3491 1.387 . S
H3490 C3497 0.950 . S
C3491 C3489 1.387 . S
C3491 C3493 1.390 . S
C3491 H3495 0.950 . S
H3492 C3488 0.950 . S
C3493 C3491 1.390 . S
C3493 C3494 1.387 . S
C3493 H3496 0.950 . S
C3494 C3493 1.387 . S
C3494 C3497 1.387 . S
H3495 C3491 0.950 . S
H3496 C3493 0.950 . S
C3497 C3488 1.390 . S
C3497 H3490 0.950 . S
C3497 C3494 1.387 . S
C3498 C3499 1.387 . S
C3498 H3502 0.950 . S
C3498 C3507 1.390 . S
C3499 C3498 1.387 . S
C3499 C3501 1.387 . S
H3500 C3507 0.950 . S
C3501 C3499 1.387 . S
C3501 C3503 1.390 . S
C3501 H3505 0.950 . S
H3502 C3498 0.950 . S
C3503 C3501 1.390 . S
C3503 C3504 1.387 . S
C3503 H3506 0.950 . S
C3504 C3503 1.387 . S
C3504 C3507 1.387 . S
H3505 C3501 0.950 . S
H3506 C3503 0.950 . S
C3507 C3498 1.390 . S
C3507 H3500 0.950 . S
C3507 C3504 1.387 . S
C3508 C3509 1.387 . S
C3508 H3512 0.950 . S
C3508 C3517 1.390 . S
C3509 C3508 1.387 . S
C3509 C3511 1.387 . S
H3510 C3517 0.950 . S
C3511 C3509 1.387 . S
C3511 C3513 1.390 . S
C3511 H3515 0.950 . S
H3512 C3508 0.950 . S
C3513 C3511 1.390 . S
C3513 C3514 1.387 . S
C3513 H3516 0.950 . S
C3514 C3513 1.387 . S
C3514 C3517 1.387 . S
H3515 C3511 0.950 . S
H3516 C3513 0.950 . S
C3517 C3508 1.390 . S
C3517 H3510 0.950 . S
C3517 C3514 1.387 . S
C3518 C3519 1.387 . S
C3518 H3522 0.950 . S
C3518 C3527 1.390 . S
C3519 C3518 1.387 . S
C3519 C3521 1.387 . S
H3520 C3527 0.950 . S
C3521 C3519 1.387 . S
C3521 C3523 1.390 . S
C3521 H3525 0.950 . S
H3522 C3518 0.950 . S
C3523 C3521 1.390 . S
C3523 C3524 1.387 . S
C3523 H3526 0.950 . S
C3524 C3523 1.387 . S
C3524 C3527 1.387 . S
H3525 C3521 0.950 . S
H3526 C3523 0.950 . S
C3527 C3518 1.390 . S
C3527 H3520 0.950 . S
C3527 C3524 1.387 . S
C3528 C3529 1.387 . S
C3528 H3532 0.950 . S
C3528 C3537 1.390 . S
C3529 C3528 1.387 . S
C3529 C3531 1.387 . S
H3530 C3537 0.950 . S
C3531 C3529 1.387 . S
C3531 C3533 1.390 . S
C3531 H3535 0.950 . S
H3532 C3528 0.950 . S
C3533 C3531 1.390 . S
C3533 C3534 1.387 . S
C3533 H3536 0.950 . S
C3534 C3533 1.387 . S
C3534 C3537 1.387 . S
H3535 C3531 0.950 . S
H3536 C3533 0.950 . S
C3537 C3528 1.390 . S
C3537 H3530 0.950 . S
C3537 C3534 1.387 . S
C3538 C3539 1.387 . S
C3538 H3542 0.950 . S
C3538 C3547 1.390 . S
C3539 C3538 1.387 . S
C3539 C3541 1.387 . S
H3540 C3547 0.950 . S
C3541 C3539 1.387 . S
C3541 C3543 1.390 . S
C3541 H3545 0.950 . S
H3542 C3538 0.950 . S
C3543 C3541 1.390 . S
C3543 C3544 1.387 . S
C3543 H3546 0.950 . S
C3544 C3543 1.387 . S
C3544 C3547 1.387 . S
H3545 C3541 0.950 . S
H3546 C3543 0.950 . S
C3547 C3538 1.390 . S
C3547 H3540 0.950 . S
C3547 C3544 1.387 . S
C3548 C3549 1.387 . S
C3548 H3552 0.950 . S
C3548 C3557 1.390 . S
C3549 C3548 1.387 . S
C3549 C3551 1.387 . S
H3550 C3557 0.950 . S
C3551 C3549 1.387 . S
C3551 C3553 1.390 . S
C3551 H3555 0.950 . S
H3552 C3548 0.950 . S
C3553 C3551 1.390 . S
C3553 C3554 1.387 . S
C3553 H3556 0.950 . S
C3554 C3553 1.387 . S
C3554 C3557 1.387 . S
H3555 C3551 0.950 . S
H3556 C3553 0.950 . S
C3557 C3548 1.390 . S
C3557 H3550 0.950 . S
C3557 C3554 1.387 . S
C3558 C3559 1.387 . S
C3558 H3562 0.950 . S
C3558 C3567 1.390 . S
C3559 C3558 1.387 . S
C3559 C3561 1.387 . S
H3560 C3567 0.950 . S
C3561 C3559 1.387 . S
C3561 C3563 1.390 . S
C3561 H3565 0.950 . S
H3562 C3558 0.950 . S
C3563 C3561 1.390 . S
C3563 C3564 1.387 . S
C3563 H3566 0.950 . S
C3564 C3563 1.387 . S
C3564 C3567 1.387 . S
H3565 C3561 0.950 . S
H3566 C3563 0.950 . S
C3567 C3558 1.390 . S
C3567 H3560 0.950 . S
C3567 C3564 1.387 . S
C3568 C3569 1.387 . S
C3568 H3572 0.950 . S
C3568 C3577 1.390 . S
C3569 C3568 1.387 . S
C3569 C3571 1.387 . S
H3570 C3577 0.950 . S
C3571 C3569 1.387 . S
C3571 C3573 1.390 . S
C3571 H3575 0.950 . S
H3572 C3568 0.950 . S
C3573 C3571 1.390 . S
C3573 C3574 1.387 . S
C3573 H3576 0.950 . S
C3574 C3573 1.387 . S
C3574 C3577 1.387 . S
H3575 C3571 0.950 . S
H3576 C3573 0.950 . S
C3577 C3568 1.390 . S
C3577 H3570 0.950 . S
C3577 C3574 1.387 . S
C3578 C3579 1.387 . S
C3578 H3582 0.950 . S
C3578 C3587 1.390 . S
C3579 C3578 1.387 . S
C3579 C3581 1.387 . S
H3580 C3587 0.950 . S
C3581 C3579 1.387 . S
C3581 C3583 1.390 . S
C3581 H3585 0.950 . S
H3582 C3578 0.950 . S
C3583 C3581 1.390 . S
C3583 C3584 1.387 . S
C3583 H3586 0.950 . S
C3584 C3583 1.387 . S
C3584 C3587 1.387 . S
H3585 C3581 0.950 . S
H3586 C3583 0.950 . S
C3587 C3578 1.390 . S
C3587 H3580 0.950 . S
C3587 C3584 1.387 . S
C3588 C3589 1.387 . S
C3588 H3592 0.950 . S
C3588 C3597 1.390 . S
C3589 C3588 1.387 . S
C3589 C3591 1.387 . S
H3590 C3597 0.950 . S
C3591 C3589 1.387 . S
C3591 C3593 1.390 . S
C3591 H3595 0.950 . S
H3592 C3588 0.950 . S
C3593 C3591 1.390 . S
C3593 C3594 1.387 . S
C3593 H3596 0.950 . S
C3594 C3593 1.387 . S
C3594 C3597 1.387 . S
H3595 C3591 0.950 . S
H3596 C3593 0.950 . S
C3597 C3588 1.390 . S
C3597 H3590 0.950 . S
C3597 C3594 1.387 . S
C3598 C3599 1.387 . S
C3598 H3602 0.950 . S
C3598 C3607 1.390 . S
C3599 C3598 1.387 . S
C3599 C3601 1.387 . S
H3600 C3607 0.950 . S
C3601 C3599 1.387 . S
C3601 C3603 1.390 . S
C3601 H3605 0.950 . S
H3602 C3598 0.950 . S
C3603 C3601 1.390 . S
C3603 C3604 1.387 . S
C3603 H3606 0.950 . S
C3604 C3603 1.387 . S
C3604 C3607 1.387 . S
H3605 C3601 0.950 . S
H3606 C3603 0.950 . S
C3607 C3598 1.390 . S
C3607 H3600 0.950 . S
C3607 C3604 1.387 . S
C3608 C3609 1.387 . S
C3608 H3612 0.950 . S
C3608 C3617 1.390 . S
C3609 C3608 1.387 . S
C3609 C3611 1.387 . S
H3610 C3617 0.950 . S
C3611 C3609 1.387 . S
C3611 C3613 1.390 . S
C3611 H3615 0.950 . S
H3612 C3608 0.950 . S
C3613 C3611 1.390 . S
C3613 C3614 1.387 . S
C3613 H3616 0.950 . S
C3614 C3613 1.387 . S
C3614 C3617 1.387 . S
H3615 C3611 0.950 . S
H3616 C3613 0.950 . S
C3617 C3608 1.390 . S
C3617 H3610 0.950 . S
C3617 C3614 1.387 . S
C3618 C3619 1.387 . S
C3618 H3622 0.950 . S
C3618 C3627 1.390 . S
C3619 C3618 1.387 . S
C3619 C3621 1.387 . S
H3620 C3627 0.950 . S
C3621 C3619 1.387 . S
C3621 C3623 1.390 . S
C3621 H3625 0.950 . S
H3622 C3618 0.950 . S
C3623 C3621 1.390 . S
C3623 C3624 1.387 . S
C3623 H3626 0.950 . S
C3624 C3623 1.387 . S
C3624 C3627 1.387 . S
H3625 C3621 0.950 . S
H3626 C3623 0.950 . S
C3627 C3618 1.390 . S
C3627 H3620 0.950 . S
C3627 C3624 1.387 . S
C3628 C3629 1.387 . S
C3628 H3632 0.950 . S
C3628 C3637 1.390 . S
C3629 C3628 1.387 . S
C3629 C3631 1.387 . S
H3630 C3637 0.950 . S
C3631 C3629 1.387 . S
C3631 C3633 1.390 . S
C3631 H3635 0.950 . S
H3632 C3628 0.950 . S
C3633 C3631 1.390 . S
C3633 C3634 1.387 . S
C3633 H3636 0.950 . S
C3634 C3633 1.387 . S
C3634 C3637 1.387 . S
H3635 C3631 0.950 . S
H3636 C3633 0.950 . S
C3637 C3628 1.390 . S
C3637 H3630 0.950 . S
C3637 C3634 1.387 . S
C3638 C3639 1.387 . S
C3638 H3642 0.950 . S
C3638 C3647 1.390 . S
C3639 C3638 1.387 . S
C3639 C3641 1.387 . S
H3640 C3647 0.950 . S
C3641 C3639 1.387 . S
C3641 C3643 1.390 . S
C3641 H3645 0.950 . S
H3642 C3638 0.950 . S
C3643 C3641 1.390 . S
C3643 C3644 1.387 . S
C3643 H3646 0.950 . S
C3644 C3643 1.387 . S
C3644 C3647 1.387 . S
H3645 C3641 0.950 . S
H3646 C3643 0.950 . S
C3647 C3638 1.390 . S
C3647 H3640 0.950 . S
C3647 C3644 1.387 . S
C3648 C3649 1.387 . S
C3648 H3652 0.950 . S
C3648 C3657 1.390 . S
C3649 C3648 1.387 . S
C3649 C3651 1.387 . S
H3650 C3657 0.950 . S
C3651 C3649 1.387 . S
C3651 C3653 1.390 . S
C3651 H3655 0.950 . S
H3652 C3648 0.950 . S
C3653 C3651 1.390 . S
C3653 C3654 1.387 . S
C3653 H3656 0.950 . S
C3654 C3653 1.387 . S
C3654 C3657 1.387 . S
H3655 C3651 0.950 . S
H3656 C3653 0.950 . S
C3657 C3648 1.390 . S
C3657 H3650 0.950 . S
C3657 C3654 1.387 . S
C3658 C3659 1.387 . S
C3658 H3662 0.950 . S
C3658 C3667 1.390 . S
C3659 C3658 1.387 . S
C3659 C3661 1.387 . S
H3660 C3667 0.950 . S
C3661 C3659 1.387 . S
C3661 C3663 1.390 . S
C3661 H3665 0.950 . S
H3662 C3658 0.950 . S
C3663 C3661 1.390 . S
C3663 C3664 1.387 . S
C3663 H3666 0.950 . S
C3664 C3663 1.387 . S
C3664 C3667 1.387 . S
H3665 C3661 0.950 . S
H3666 C3663 0.950 . S
C3667 C3658 1.390 . S
C3667 H3660 0.950 . S
C3667 C3664 1.387 . S
C3668 C3669 1.387 . S
C3668 H3672 0.950 . S
C3668 C3677 1.390 . S
C3669 C3668 1.387 . S
C3669 C3671 1.387 . S
H3670 C3677 0.950 . S
C3671 C3669 1.387 . S
C3671 C3673 1.390 . S
C3671 H3675 0.950 . S
H3672 C3668 0.950 . S
C3673 C3671 1.390 . S
C3673 C3674 1.387 . S
C3673 H3676 0.950 . S
C3674 C3673 1.387 . S
C3674 C3677 1.387 . S
H3675 C3671 0.950 . S
H3676 C3673 0.950 . S
C3677 C3668 1.390 . S
C3677 H3670 0.950 . S
C3677 C3674 1.387 . S
C3678 C3679 1.387 . S
C3678 H3682 0.950 . S
C3678 C3687 1.390 . S
C3679 C3678 1.387 . S
C3679 C3681 1.387 . S
H3680 C3687 0.950 . S
C3681 C3679 1.387 . S
C3681 C3683 1.390 . S
C3681 H3685 0.950 . S
H3682 C3678 0.950 . S
C3683 C3681 1.390 . S
C3683 C3684 1.387 . S
C3683 H3686 0.950 . S
C3684 C3683 1.387 . S
C3684 C3687 1.387 . S
H3685 C3681 0.950 . S
H3686 C3683 0.950 . S
C3687 C3678 1.390 . S
C3687 H3680 0.950 . S
C3687 C3684 1.387 . S
C3688 C3689 1.387 . S
C3688 H3692 0.950 . S
C3688 C3697 1.390 . S
C3689 C3688 1.387 . S
C3689 C3691 1.387 . S
H3690 C3697 0.950 . S
C3691 C3689 1.387 . S
C3691 C3693 1.390 . S
C3691 H3695 0.950 . S
H3692 C3688 0.950 . S
C3693 C3691 1.390 . S
C3693 C3694 1.387 . S
C3693 H3696 0.950 . S
C3694 C3693 1.387 . S
C3694 C3697 1.387 . S
H3695 C3691 0.950 . S
H3696 C3693 0.950 . S
C3697 C3688 1.390 . S
C3697 H3690 0.950 . S
C3697 C3694 1.387 . S
C3698 C3699 1.387 . S
C3698 H3702 0.950 . S
C3698 C3707 1.390 . S
C3699 C3698 1.387 . S
C3699 C3701 1.387 . S
H3700 C3707 0.950 . S
C3701 C3699 1.387 . S
C3701 C3703 1.390 . S
C3701 H3705 0.950 . S
H3702 C3698 0.950 . S
C3703 C3701 1.390 . S
C3703 C3704 1.387 . S
C3703 H3706 0.950 . S
C3704 C3703 1.387 . S
C3704 C3707 1.387 . S
H3705 C3701 0.950 . S
H3706 C3703 0.950 . S
C3707 C3698 1.390 . S
C3707 H3700 0.950 . S
C3707 C3704 1.387 . S
C3708 C3709 1.387 . S
C3708 H3712 0.950 . S
C3708 C3717 1.390 . S
C3709 C3708 1.387 . S
C3709 C3711 1.387 . S
H3710 C3717 0.950 . S
C3711 C3709 1.387 . S
C3711 C3713 1.390 . S
C3711 H3715 0.950 . S
H3712 C3708 0.950 . S
C3713 C3711 1.390 . S
C3713 C3714 1.387 . S
C3713 H3716 0.950 . S
C3714 C3713 1.387 . S
C3714 C3717 1.387 . S
H3715 C3711 0.950 . S
H3716 C3713 0.950 . S
C3717 C3708 1.390 . S
C3717 H3710 0.950 . S
C3717 C3714 1.387 . S
C3718 C3719 1.387 . S
C3718 H3722 0.950 . S
C3718 C3727 1.390 . S
C3719 C3718 1.387 . S
C3719 C3721 1.387 . S
H3720 C3727 0.950 . S
C3721 C3719 1.387 . S
C3721 C3723 1.390 . S
C3721 H3725 0.950 . S
H3722 C3718 0.950 . S
C3723 C3721 1.390 . S
C3723 C3724 1.387 . S
C3723 H3726 0.950 . S
C3724 C3723 1.387 . S
C3724 C3727 1.387 . S
H3725 C3721 0.950 . S
H3726 C3723 0.950 . S
C3727 C3718 1.390 . S
C3727 H3720 0.950 . S
C3727 C3724 1.387 . S
C2774 C1327 1.415 . S
C2769 C21 1.537 . S
C2784 C1389 1.356 . S
C2779 C42 1.543 . S
C2789 C82 1.534 . S
C2794 C1451 1.413 . S
C2804 C1519 1.431 . S
C2799 C135 1.487 . S
C2809 C175 1.450 . S
C2814 C1501 1.404 . S
C2819 C221 1.591 . S
C2824 C1309 1.509 . S
C2829 C255 1.614 . S
C2834 C1371 1.507 . S
C2844 C1433 1.494 . S
C2839 C301 1.617 . S
C2854 C1581 1.479 . S
C2849 C15 1.549 . S
C2859 C55 1.551 . S
C2864 C1619 1.381 . S
C2869 C101 1.599 . S
C2874 C1705 1.578 . S
C2884 C1749 1.496 . S
C2879 C141 1.590 . S
C2889 C162 1.426 . S
C2894 C1811 1.413 . S
C2904 C1873 1.550 . S
C2899 C215 1.580 . S
C2909 C261 1.611 . S
C2914 C1929 1.483 . S
C2924 C1991 1.424 . S
C2919 C282 1.558 . S
C2929 C2 1.568 . S
C2934 C1767 1.554 . S
C2939 C181 1.444 . S
C2944 C1891 1.419 . S
C2954 C1947 1.411 . S
C2949 C202 1.540 . S
C2959 C242 1.574 . S
C2964 C2009 1.433 . S
C2974 C1829 1.471 . S
C2969 C295 1.517 . S
C2984 C1637 1.497 . S
C2979 C95 1.616 . S
C2989 C122 1.567 . S
C2994 C1687 1.469 . S
C3004 C1563 1.531 . S
C2999 C61 1.573 . S
C3014 C2071 1.497 . S
C3009 C341 1.618 . S
C3019 C362 1.478 . S
C3024 C2121 1.400 . S
C3029 C402 1.532 . S
C3034 C2177 1.379 . S
C3044 C2263 1.471 . S
C3039 C455 1.549 . S
C3049 C495 1.503 . S
C3054 C2245 1.459 . S
C3059 C541 1.590 . S
C3064 C2053 1.488 . S
C3069 C575 1.524 . S
C3074 C2139 1.488 . S
C3079 C621 1.655 . S
C3084 C2195 1.556 . S
C3094 C1805 1.436 . S
C3089 C335 1.580 . S
C3099 C375 1.478 . S
C3104 C2325 1.421 . S
C3114 C1935 1.542 . S
C3109 C421 1.557 . S
C3119 C461 1.604 . S
C3124 C2387 1.484 . S
C3129 C482 1.465 . S
C3134 C1575 1.347 . S
C3144 C2431 1.527 . S
C3139 C535 1.575 . S
C3149 C581 1.580 . S
C3154 C1699 1.471 . S
C3164 C2487 1.480 . S
C3159 C602 1.595 . S
C3169 C322 1.641 . S
C3174 C2369 1.627 . S
C3184 C2449 1.437 . S
C3179 C501 1.467 . S
C3189 C522 1.528 . S
C3194 C1681 1.419 . S
C3204 C2505 1.377 . S
C3199 C562 1.578 . S
C3209 C615 1.657 . S
C3214 C1557 1.581 . S
C3219 C415 1.519 . S
C3224 C2307 1.476 . S
C3229 C442 1.538 . S
C3234 C1953 1.449 . S
C3239 C381 1.569 . S
C3244 C1823 1.364 . S
C3249 C661 1.467 . S
C3254 C2183 1.442 . S
C3264 C2257 1.327 . S
C3259 C682 1.508 . S
C3269 C722 1.505 . S
C3274 C2077 1.487 . S
C3279 C775 1.573 . S
C3284 C2115 1.402 . S
C3289 C815 1.574 . S
C3294 C2133 1.449 . S
C3299 C861 1.557 . S
C3304 C2201 1.553 . S
C3314 C2239 1.456 . S
C3309 C895 1.593 . S
C3319 C941 1.616 . S
C3324 C2059 1.573 . S
C3334 C2555 1.447 . S
C3329 C655 1.510 . S
C3339 C695 1.554 . S
C3344 C1867 1.438 . S
C3354 C2617 1.548 . S
C3349 C741 1.559 . S
C3359 C781 1.553 . S
C3364 C1997 1.496 . S
C3369 C802 1.493 . S
C3374 C2673 1.366 . S
C3379 C855 1.521 . S
C3384 C1625 1.461 . S
C3394 C2753 1.543 . S
C3389 C901 1.633 . S
C3399 C922 1.592 . S
C3404 C1743 1.422 . S
C3414 C2015 1.476 . S
C3409 C642 1.491 . S
C3424 C1643 1.496 . S
C3419 C821 1.514 . S
C3429 C842 1.528 . S
C3434 C2735 1.391 . S
C3439 C882 1.638 . S
C3444 C1761 1.532 . S
C3454 C2691 1.466 . S
C3449 C935 1.618 . S
C3464 C1885 1.380 . S
C3459 C735 1.569 . S
C3474 C2635 1.489 . S
C3469 C762 1.544 . S
C3484 C2573 1.502 . S
C3479 C701 1.534 . S
C3489 C981 1.497 . S
C3494 C1457 1.478 . S
C3499 C1002 1.539 . S
C3504 C1513 1.345 . S
C3514 C1333 1.456 . S
C3509 C1042 1.487 . S
C3524 C1395 1.437 . S
C3519 C1095 1.513 . S
C3534 C1377 1.522 . S
C3529 C1135 1.550 . S
C3544 C1439 1.565 . S
C3539 C1181 1.581 . S
C3554 C1495 1.409 . S
C3549 C1215 1.576 . S
C3559 C1261 1.604 . S
C3564 C1315 1.562 . S
C3569 C975 1.535 . S
C3574 C2679 1.461 . S
C3584 C2425 1.420 . S
C3579 C1015 1.527 . S
C3594 C2759 1.558 . S
C3589 C1061 1.569 . S
C3604 C2493 1.477 . S
C3599 C1101 1.536 . S
C3609 C1122 1.502 . S
C3614 C2549 1.383 . S
C3624 C2319 1.437 . S
C3619 C1175 1.587 . S
C3634 C2611 1.489 . S
C3629 C1221 1.599 . S
C3639 C1242 1.553 . S
C3644 C2381 1.380 . S
C3654 C2511 1.453 . S
C3649 C962 1.472 . S
C3664 C2301 1.392 . S
C3659 C1141 1.503 . S
C3674 C2629 1.462 . S
C3669 C1162 1.561 . S
C3679 C1202 1.645 . S
C3684 C2363 1.554 . S
C3689 C1255 1.587 . S
C3694 C2567 1.457 . S
C3699 C1055 1.518 . S
C3704 C2443 1.368 . S
C3709 C1082 1.580 . S
C3714 C2741 1.466 . S
C3724 C2697 1.485 . S
C3719 C1021 1.527 . S
