# Generated by pormake.
# Topology tsx, (6,3)-cn, num edge types: 1
# Building blocks:
#     Node 0, Type 0, BuildingBlock: VOLQOD_clean_sbu_1, # of connection points: 6
#     Node 1, Type 0, BuildingBlock: VOLQOD_clean_sbu_1, # of connection points: 6
#     Node 2, Type 1, BuildingBlock: INOVEN_clean_linker_0, # of connection points: 3
#     Node 3, Type 1, BuildingBlock: INOVEN_clean_linker_0, # of connection points: 3
#     Node 4, Type 1, BuildingBlock: INOVEN_clean_linker_0, # of connection points: 3
#     Node 5, Type 1, BuildingBlock: INOVEN_clean_linker_0, # of connection points: 3
#     Edge 6, Type (0, 1), BuildingBlock: EZIPEK_clean_linker_0, # of connection points: 2
#     Edge 7, Type (0, 1), BuildingBlock: EZIPEK_clean_linker_0, # of connection points: 2
#     Edge 8, Type (0, 1), BuildingBlock: EZIPEK_clean_linker_0, # of connection points: 2
#     Edge 9, Type (0, 1), BuildingBlock: EZIPEK_clean_linker_0, # of connection points: 2
#     Edge 10, Type (0, 1), BuildingBlock: EZIPEK_clean_linker_0, # of connection points: 2
#     Edge 11, Type (0, 1), BuildingBlock: EZIPEK_clean_linker_0, # of connection points: 2
#     Edge 12, Type (0, 1), BuildingBlock: EZIPEK_clean_linker_0, # of connection points: 2
#     Edge 13, Type (0, 1), BuildingBlock: EZIPEK_clean_linker_0, # of connection points: 2
#     Edge 14, Type (0, 1), BuildingBlock: EZIPEK_clean_linker_0, # of connection points: 2
#     Edge 15, Type (0, 1), BuildingBlock: EZIPEK_clean_linker_0, # of connection points: 2
#     Edge 16, Type (0, 1), BuildingBlock: EZIPEK_clean_linker_0, # of connection points: 2
#     Edge 17, Type (0, 1), BuildingBlock: EZIPEK_clean_linker_0, # of connection points: 2
# Relax obj value: 0.050
# Max RMSD: 0.104
# Mean RMSD: 0.094
data_MOF--net-tsx--node1-VOLQOD_clean_sbu_1--node2-INOVEN_clean_linker_0--edge1-EZIPEK_clean_linker_0
_symmetry_space_group_name_H-M    P1
_symmetry_Int_Tables_number       1
_symmetry_cell_setting            triclinic
loop_
_symmetry_equiv_pos_as_xyz
'x, y, z'
_cell_length_a     15.807807
_cell_length_b     16.232566
_cell_length_c     27.748812
_cell_angle_alpha  90.349538
_cell_angle_beta   97.988261
_cell_angle_gamma 90.14097
loop_
_atom_site_label
_atom_site_type_symbol
_atom_site_fract_x
_atom_site_fract_y
_atom_site_fract_z
_atom_type_partial_charge
O0 O 0.07955 0.01109 0.10268 0.0
Zn1 Zn 0.0846 0.03746 0.03221 0.0
O2 O 0.9698 0.04632 -0.00198 0.0
Zn3 Zn 0.9423 0.94527 0.96142 0.0
Zn4 Zn 0.89019 0.06419 0.04416 0.0
Zn5 Zn 0.96402 0.13932 0.95473 0.0
O6 O 0.92142 0.96956 0.8891 0.0
O7 O 0.96306 0.10068 0.88599 0.0
O8 O 0.1502 0.94895 0.00144 0.0
O9 O 0.04336 0.86954 0.96748 0.0
O10 O 0.84633 0.88321 0.98624 0.0
O11 O 0.80726 0.97114 0.04071 0.0
O12 O 0.81909 0.16625 0.03024 0.0
O13 O 0.14519 0.14605 0.03043 0.0
O14 O 0.85772 0.2039 0.95934 0.0
O15 O 0.06278 0.21653 0.97354 0.0
C16 C 0.02319 0.02875 0.12976 0.0
C17 C 0.94038 0.0324 0.86527 0.0
C18 C 0.79926 0.90248 0.0183 0.0
C19 C 0.12288 0.88312 0.97916 0.0
C20 C 0.80993 0.21109 0.99242 0.0
C21 C 0.12878 0.21091 0.00531 0.0
O22 O 0.95083 0.05883 0.11278 0.0
O23 O 0.58792 0.45587 0.61652 0.0
Zn24 Zn 0.62849 0.45791 0.55059 0.0
O25 O 0.52976 0.46467 0.50083 0.0
Zn26 Zn 0.51897 0.3662 0.46072 0.0
Zn27 Zn 0.42622 0.47574 0.52933 0.0
Zn28 Zn 0.53734 0.56269 0.4628 0.0
O29 O 0.49244 0.3976 0.39007 0.0
O30 O 0.52276 0.53221 0.39187 0.0
O31 O 0.7029 0.35924 0.53808 0.0
O32 O 0.63057 0.30655 0.47011 0.0
O33 O 0.43007 0.28731 0.48089 0.0
O34 O 0.36739 0.36736 0.53056 0.0
O35 O 0.34507 0.5574 0.49281 0.0
O36 O 0.70046 0.56141 0.55036 0.0
O37 O 0.44214 0.64142 0.47053 0.0
O38 O 0.64498 0.6265 0.48303 0.0
C39 C 0.52014 0.48551 0.63003 0.0
C40 C 0.50113 0.46576 0.36863 0.0
C41 C 0.37518 0.29835 0.50986 0.0
C42 C 0.69598 0.30804 0.50258 0.0
C43 C 0.365 0.62608 0.47552 0.0
C44 C 0.70046 0.62109 0.52073 0.0
O45 O 0.45602 0.50712 0.5997 0.0
H46 H 0.06448 0.89932 0.4711 0.0
H47 H 0.13298 0.84728 0.32964 0.0
H48 H 0.95313 0.03888 0.34688 0.0
N49 N 0.95754 0.02167 0.44425 0.0
N50 N 0.92202 0.08737 0.43002 0.0
C51 C 0.05661 0.9109 0.43244 0.0
C52 C 0.10504 0.86554 0.40291 0.0
C53 C 0.00188 0.97371 0.41284 0.0
C54 C -0.00554 0.99007 0.36267 0.0
C55 C 0.04226 0.94498 0.33276 0.0
C56 C 0.09566 0.88169 0.35282 0.0
H57 H 0.97663 0.92626 0.52581 0.0
H58 H 0.87589 0.87453 0.65831 0.0
H59 H 0.06052 0.06851 0.65514 0.0
N60 N 0.08674 0.04316 0.56237 0.0
N61 N 0.15611 0.06808 0.58476 0.0
C62 C 0.97467 0.93962 0.56374 0.0
C63 C 0.92124 0.89287 0.58941 0.0
C64 C 0.02727 0.00131 0.58755 0.0
C65 C 0.02173 0.01959 0.63665 0.0
C66 C 0.96648 0.97459 0.66213 0.0
C67 C 0.91757 0.91039 0.63853 0.0
H68 H 0.50145 0.49141 0.97591 0.0
H69 H 0.60068 0.40281 0.8488 0.0
H70 H 0.41749 0.59852 0.83548 0.0
N71 N 0.39919 0.60627 0.93106 0.0
N72 N 0.35979 0.66254 0.90722 0.0
C73 C 0.50324 0.49454 0.93715 0.0
C74 C 0.55773 0.4419 0.91569 0.0
C75 C 0.45306 0.55228 0.90875 0.0
C76 C 0.4564 0.55516 0.85831 0.0
C77 C 0.50856 0.50056 0.83674 0.0
C78 C 0.55936 0.4443 0.86547 0.0
H79 H 0.39489 0.53562 0.02064 0.0
H80 H 0.34086 0.4044 0.14711 0.0
H81 H 0.5314 0.59477 0.16208 0.0
N82 N 0.51912 0.62968 0.06627 0.0
N83 N 0.58796 0.65601 0.08838 0.0
C84 C 0.40705 0.52544 0.05944 0.0
C85 C 0.36207 0.46377 0.08042 0.0
C86 C 0.46973 0.57174 0.08842 0.0
C87 C 0.48402 0.55868 0.139 0.0
C88 C 0.43665 0.49944 0.16015 0.0
C89 C 0.37618 0.45164 0.13081 0.0
C90 C 0.15555 0.3572 0.03347 0.0
C91 C 0.18643 0.28265 0.01526 0.0
C92 C 0.33339 0.33415 0.03161 0.0
C93 C 0.30228 0.40809 0.0501 0.0
N94 N 0.18529 0.49979 0.05687 0.0
N95 N 0.30018 0.20767 0.98567 0.0
C96 C 0.2136 0.42294 0.04678 0.0
C97 C 0.27414 0.27363 0.01066 0.0
N98 N 0.07236 0.36311 0.04151 0.0
N99 N 0.41944 0.3205 0.03601 0.0
H100 H 0.25777 0.16329 0.96903 0.0
H101 H 0.36214 0.20043 0.97778 0.0
H102 H 0.4647 0.36502 0.04912 0.0
H103 H 0.44613 0.26381 0.02914 0.0
H104 H 0.04878 0.41237 0.05977 0.0
H105 H 0.02797 0.31574 0.03361 0.0
H106 H 0.12127 0.51688 0.05065 0.0
H107 H 0.22689 0.54883 0.06712 0.0
C108 C 0.25621 0.79634 0.99353 0.0
C109 C 0.18435 0.82478 0.96156 0.0
C110 C 0.22721 0.73884 0.89613 0.0
C111 C 0.30251 0.71686 0.92669 0.0
N112 N 0.40091 0.74587 -0.00075 0.0
N113 N 0.11307 0.83694 0.87862 0.0
C114 C 0.32064 0.75102 0.97416 0.0
C115 C 0.17271 0.79966 0.91177 0.0
N116 N 0.26203 0.81032 0.04247 0.0
N117 N 0.20731 0.70035 0.85206 0.0
H118 H 0.07394 0.88448 0.88747 0.0
H119 H 0.10847 0.82692 0.84123 0.0
H120 H 0.24725 0.65682 0.83907 0.0
H121 H 0.14841 0.70649 0.83032 0.0
H122 H 0.30932 0.78399 0.06757 0.0
H123 H 0.21486 0.84096 0.05834 0.0
H124 H 0.41937 0.77616 0.03228 0.0
H125 H 0.45152 0.72044 0.98403 0.0
C126 C 0.75057 0.82131 0.08608 0.0
C127 C 0.74284 0.83933 0.03549 0.0
C128 C 0.64262 0.72458 0.01849 0.0
C129 C 0.64029 0.71552 0.06918 0.0
N130 N 0.68433 0.7614 0.15124 0.0
N131 N 0.66849 0.81766 0.95432 0.0
C132 C 0.69197 0.766 0.10287 0.0
C133 C 0.68469 0.79398 0.00185 0.0
N134 N 0.81673 0.85281 0.11788 0.0
N135 N 0.61147 0.66404 0.98667 0.0
H136 H 0.69686 0.86931 0.94103 0.0
H137 H 0.62048 0.79098 0.92951 0.0
H138 H 0.59282 0.60701 -0.00156 0.0
H139 H 0.61556 0.66613 0.94954 0.0
H140 H 0.8296 0.8349 0.15413 0.0
H141 H 0.86453 0.88984 0.10721 0.0
H142 H 0.71317 0.8033 0.17708 0.0
H143 H 0.64353 0.7196 0.16493 0.0
C144 C 0.65606 0.24242 0.96534 0.0
C145 C 0.73906 0.27038 0.98461 0.0
C146 C 0.69909 0.41265 0.96514 0.0
C147 C 0.61615 0.38507 0.94541 0.0
N148 N 0.50931 0.27819 0.93458 0.0
N149 N 0.8328 0.38098 0.01558 0.0
C150 C 0.59239 0.30122 0.94849 0.0
C151 C 0.75813 0.35542 0.98883 0.0
N152 N 0.63971 0.15972 0.96099 0.0
N153 N 0.72315 0.49224 0.95846 0.0
H154 H 0.87624 0.33966 0.03387 0.0
H155 H 0.8475 0.44253 0.02366 0.0
H156 H 0.68212 0.53553 0.94028 0.0
H157 H 0.78549 0.51375 0.96741 0.0
H158 H 0.58399 0.13469 0.94214 0.0
H159 H 0.68412 0.11516 0.97444 0.0
H160 H 0.48625 0.21897 0.93863 0.0
H161 H 0.46148 0.3202 0.92211 0.0
C162 C 0.84826 0.6812 0.53912 0.0
C163 C 0.75844 0.69189 0.53399 0.0
C164 C 0.77803 0.83849 0.55435 0.0
C165 C 0.86712 0.82558 0.56531 0.0
N166 N 0.98794 0.73383 0.57289 0.0
N167 N 0.63717 0.77719 0.54498 0.0
C168 C 0.90274 0.74677 0.55867 0.0
C169 C 0.72298 0.76979 0.5434 0.0
N170 N 0.88124 0.60903 0.52435 0.0
N171 N 0.74613 0.9167 0.55425 0.0
H172 H 0.59429 0.72812 0.5388 0.0
H173 H 0.60932 0.83011 0.55709 0.0
H174 H 0.78481 0.96859 0.56215 0.0
H175 H 0.68264 0.93079 0.5419 0.0
H176 H 0.946 0.59979 0.52303 0.0
H177 H 0.84288 0.56023 0.50956 0.0
H178 H 0.01583 0.67571 0.57461 0.0
H179 H 0.03019 0.78077 0.58616 0.0
C180 C 0.84581 0.27536 0.48706 0.0
C181 C 0.76485 0.24794 0.49745 0.0
C182 C 0.7953 0.10789 0.47114 0.0
C183 C 0.87518 0.13573 0.4599 0.0
N184 N 0.98592 0.23758 0.46729 0.0
N185 N 0.6728 0.13556 0.51264 0.0
C186 C 0.90352 0.2169 0.47158 0.0
C187 C 0.74332 0.163 0.49405 0.0
N188 N 0.86517 0.35753 0.4886 0.0
N189 N 0.76661 0.03093 0.45683 0.0
H190 H 0.63459 0.17473 0.53032 0.0
H191 H 0.65675 0.0736 0.51462 0.0
H192 H 0.80284 0.98922 0.43971 0.0
H193 H 0.70475 0.01039 0.45881 0.0
H194 H 0.9188 0.38213 0.47597 0.0
H195 H 0.82506 0.40231 0.49996 0.0
H196 H 0.01404 0.29347 0.47924 0.0
H197 H 0.02847 0.19525 0.45554 0.0
C198 C 0.34336 0.2047 0.57572 0.0
C199 C 0.32751 0.22756 0.52606 0.0
C200 C 0.21675 0.12148 0.51216 0.0
C201 C 0.21878 0.11345 0.5633 0.0
N202 N 0.28551 0.14616 0.6443 0.0
N203 N 0.24594 0.21 0.44645 0.0
C204 C 0.28332 0.15414 0.59516 0.0
C205 C 0.26344 0.18642 0.49392 0.0
N206 N 0.41709 0.22929 0.60383 0.0
N207 N 0.17729 0.06323 0.48141 0.0
H208 H 0.27999 0.25641 0.43169 0.0
H209 H 0.19375 0.1873 0.42295 0.0
H210 H 0.15687 0.00795 0.4946 0.0
H211 H 0.17836 0.06351 0.44394 0.0
H212 H 0.43578 0.20827 0.63908 0.0
H213 H 0.46361 0.2646 0.59021 0.0
H214 H 0.32477 0.18183 0.66962 0.0
H215 H 0.24407 0.10718 0.65965 0.0
C216 C 0.22039 0.69323 0.47932 0.0
C217 C 0.29773 0.68805 0.45846 0.0
C218 C 0.25523 0.81201 0.41202 0.0
C219 C 0.17154 0.80623 0.42451 0.0
N220 N 0.07022 0.72581 0.46264 0.0
N221 N 0.37025 0.73017 0.39052 0.0
C222 C 0.15251 0.74227 0.45604 0.0
C223 C 0.3103 0.7439 0.42066 0.0
N224 N 0.21233 0.65558 0.52231 0.0
N225 N 0.28326 0.88255 0.39275 0.0
H226 H 0.40447 0.67553 0.39011 0.0
H227 H 0.37627 0.76813 0.36097 0.0
H228 H 0.24703 0.93638 0.38913 0.0
H229 H 0.34624 0.88988 0.38616 0.0
H230 H 0.15859 0.66323 0.53982 0.0
H231 H 0.26291 0.6267 0.54369 0.0
H232 H 0.05393 0.67487 0.48216 0.0
H233 H 0.01797 0.75695 0.44423 0.0
C234 C 0.05976 0.06776 0.21776 0.0
C235 C 0.03785 0.00636 0.18168 0.0
C236 C 0.01288 0.90711 0.24409 0.0
C237 C 0.04041 0.96655 0.28064 0.0
N238 N 0.11085 0.09654 0.30258 0.0
N239 N 0.01648 0.86242 0.16113 0.0
C240 C 0.06981 0.04514 0.26763 0.0
C241 C 0.02197 0.92426 0.19506 0.0
N242 N 0.07057 0.14757 0.20442 0.0
N243 N 0.97429 0.83591 0.25577 0.0
H244 H 0.02223 0.87254 0.12465 0.0
H245 H 0.01358 0.8003 0.17004 0.0
H246 H 0.96344 0.82226 0.29108 0.0
H247 H 0.94541 0.79434 0.22976 0.0
H248 H 0.07693 0.19656 0.2291 0.0
H249 H 0.06789 0.16545 0.16817 0.0
H250 H 0.14078 0.15104 0.29462 0.0
H251 H 0.12255 0.081 0.33931 0.0
C252 C 0.02791 0.00655 0.79855 0.0
C253 C 0.9469 0.02269 0.81299 0.0
C254 C 0.88168 0.02113 0.72766 0.0
C255 C 0.96036 0.99356 0.71401 0.0
N256 N 0.10416 0.94448 0.73801 0.0
N257 N 0.79468 0.03826 0.79253 0.0
C258 C 0.03257 0.98232 0.74984 0.0
C259 C 0.87301 0.02772 0.77789 0.0
N260 N 0.10068 0.01524 0.83114 0.0
N261 N 0.81651 0.04403 0.69269 0.0
H262 H 0.78661 0.0465 0.82894 0.0
H263 H 0.73747 0.03329 0.76902 0.0
H264 H 0.8214 0.04234 0.6556 0.0
H265 H 0.76074 0.07201 0.7005 0.0
H266 H 0.16174 0.01282 0.82108 0.0
H267 H 0.10028 0.03131 0.86755 0.0
H268 H 0.15494 0.92679 0.76388 0.0
H269 H 0.10949 0.92319 0.70304 0.0
C270 C 0.45207 0.44633 0.70294 0.0
C271 C 0.51457 0.49275 0.68259 0.0
C272 C 0.57368 0.54414 0.76356 0.0
C273 C 0.50886 0.50067 0.78348 0.0
N274 N 0.37916 0.42007 0.77265 0.0
N275 N 0.62429 0.59738 0.69117 0.0
C276 C 0.44566 0.45489 0.75325 0.0
C277 C 0.57268 0.54481 0.71227 0.0
N278 N 0.40154 0.39109 0.67467 0.0
N279 N 0.63688 0.58365 0.79382 0.0
H280 H 0.62436 0.60044 0.65364 0.0
H281 H 0.66172 0.64296 0.71024 0.0
H282 H 0.63747 0.58775 0.8314 0.0
H283 H 0.69152 0.60803 0.78222 0.0
H284 H 0.36241 0.34806 0.68843 0.0
H285 H 0.40301 0.38373 0.6375 0.0
H286 H 0.3256 0.39453 0.75178 0.0
H287 H 0.37427 0.42161 0.80974 0.0
C288 C 0.53668 0.43026 0.28577 0.0
C289 C 0.4818 0.46935 0.31514 0.0
C290 C 0.3986 0.52965 0.24297 0.0
C291 C 0.45079 0.48727 0.21343 0.0
N292 N 0.55997 0.38696 0.2048 0.0
N293 N 0.35106 0.54195 0.32206 0.0
C294 C 0.51698 0.43428 0.23429 0.0
C295 C 0.40998 0.51508 0.29384 0.0
N296 N 0.60948 0.3924 0.30711 0.0
N297 N 0.33962 0.58532 0.22252 0.0
H298 H 0.3566 0.53113 0.3594 0.0
H299 H 0.29301 0.56851 0.30805 0.0
H300 H 0.3278 0.59601 0.18516 0.0
H301 H 0.3067 0.62522 0.24275 0.0
H302 H 0.657 0.3709 0.28782 0.0
H303 H 0.62572 0.38772 0.34473 0.0
H304 H 0.60242 0.34057 0.21763 0.0
H305 H 0.54839 0.38969 0.1669 0.0
loop_
_geom_bond_atom_site_label_1
_geom_bond_atom_site_label_2
_geom_bond_distance
_geom_bond_site_symmetry_2
_ccdc_geom_bond_type
O0 Zn1 1.953 . S
O0 C16 1.225 1_565 S
Zn1 O0 1.953 . S
Zn1 O2 1.949 1_565 S
Zn1 O8 1.919 . S
Zn1 O13 1.924 1_565 S
O2 Zn1 1.949 1_545 S
O2 Zn3 1.923 1_444 S
O2 Zn4 1.950 1_455 S
O2 Zn5 1.945 1_554 S
Zn3 O2 1.923 1_666 S
Zn3 O6 1.933 . S
Zn3 O9 1.941 1_655 S
Zn3 O10 1.965 . S
Zn4 O2 1.950 1_655 S
Zn4 O11 1.938 1_545 S
Zn4 O12 1.906 . S
Zn4 O22 1.953 . S
Zn5 O2 1.945 1_556 S
Zn5 O7 1.932 . S
Zn5 O14 1.977 1_455 S
Zn5 O15 1.910 . S
O6 Zn3 1.933 . S
O6 C17 1.226 1_565 S
O7 Zn5 1.932 . S
O7 C17 1.307 1_455 S
O8 Zn1 1.919 . S
O8 C19 1.253 1_554 S
O9 Zn3 1.941 1_455 S
O9 C19 1.283 . S
O10 Zn3 1.965 . S
O10 C18 1.303 1_556 S
O11 Zn4 1.938 1_565 S
O11 C18 1.247 . S
O12 Zn4 1.906 . S
O12 C20 1.304 1_554 S
O13 Zn1 1.924 1_545 S
O13 C21 1.311 . S
O14 Zn5 1.977 1_655 S
O14 C20 1.272 . S
O15 Zn5 1.910 . S
O15 C21 1.231 1_556 S
C16 O0 1.225 1_545 S
C16 O22 1.298 1_455 S
C17 O6 1.226 1_545 S
C17 O7 1.307 1_655 S
C18 O10 1.303 1_554 S
C18 O11 1.247 . S
C19 O8 1.253 1_556 S
C19 O9 1.283 . S
C20 O12 1.304 1_556 S
C20 O14 1.272 . S
C21 O13 1.311 . S
C21 O15 1.231 1_554 S
O22 Zn4 1.953 . S
O22 C16 1.298 1_655 S
O23 Zn24 1.953 . S
O23 C39 1.225 . S
Zn24 O23 1.953 . S
Zn24 O25 1.949 . S
Zn24 O31 1.919 . S
Zn24 O36 1.924 . S
O25 Zn24 1.949 . S
O25 Zn26 1.923 . S
O25 Zn27 1.950 . S
O25 Zn28 1.945 . S
Zn26 O25 1.923 . S
Zn26 O29 1.933 . S
Zn26 O32 1.941 . S
Zn26 O33 1.965 . S
Zn27 O25 1.950 . S
Zn27 O34 1.938 . S
Zn27 O35 1.906 . S
Zn27 O45 1.953 . S
Zn28 O25 1.945 . S
Zn28 O30 1.932 . S
Zn28 O37 1.977 . S
Zn28 O38 1.910 . S
O29 Zn26 1.933 . S
O29 C40 1.226 . S
O30 Zn28 1.932 . S
O30 C40 1.307 . S
O31 Zn24 1.919 . S
O31 C42 1.253 . S
O32 Zn26 1.941 . S
O32 C42 1.283 . S
O33 Zn26 1.965 . S
O33 C41 1.303 . S
O34 Zn27 1.938 . S
O34 C41 1.247 . S
O35 Zn27 1.906 . S
O35 C43 1.304 . S
O36 Zn24 1.924 . S
O36 C44 1.311 . S
O37 Zn28 1.977 . S
O37 C43 1.272 . S
O38 Zn28 1.910 . S
O38 C44 1.231 . S
C39 O23 1.225 . S
C39 O45 1.298 . S
C40 O29 1.226 . S
C40 O30 1.307 . S
C41 O33 1.303 . S
C41 O34 1.247 . S
C42 O31 1.253 . S
C42 O32 1.283 . S
C43 O35 1.304 . S
C43 O37 1.272 . S
C44 O36 1.311 . S
C44 O38 1.231 . S
O45 Zn27 1.953 . S
O45 C39 1.298 . S
H46 C51 0.929 . S
H47 C56 0.931 . S
H48 C54 0.930 . S
N49 N50 1.234 . S
N49 C53 1.453 . S
N50 N49 1.234 . S
C51 H46 0.929 . S
C51 C52 1.373 . S
C51 C53 1.368 1_465 S
C52 C51 1.373 . S
C52 C56 1.397 . S
C53 N49 1.453 . S
C53 C51 1.368 1_645 S
C53 C54 1.373 . S
C54 H48 0.930 . S
C54 C53 1.373 . S
C54 C55 1.371 1_645 S
C55 C54 1.371 1_465 S
C55 C56 1.383 . S
C56 H47 0.931 . S
C56 C52 1.397 . S
C56 C55 1.383 . S
H57 C62 0.929 . S
H58 C67 0.931 . S
H59 C65 0.930 . S
N60 N61 1.234 . S
N60 C64 1.453 . S
N61 N60 1.234 . S
C62 H57 0.929 . S
C62 C63 1.373 . S
C62 C64 1.368 1_665 S
C63 C62 1.373 . S
C63 C67 1.397 . S
C64 N60 1.453 . S
C64 C62 1.368 1_445 S
C64 C65 1.373 . S
C65 H59 0.930 . S
C65 C64 1.373 . S
C65 C66 1.371 1_445 S
C66 C65 1.371 1_665 S
C66 C67 1.383 . S
C67 H58 0.931 . S
C67 C63 1.397 . S
C67 C66 1.383 . S
H68 C73 0.929 . S
H69 C78 0.931 . S
H70 C76 0.930 . S
N71 N72 1.234 . S
N71 C75 1.453 . S
N72 N71 1.234 . S
C73 H68 0.929 . S
C73 C74 1.373 . S
C73 C75 1.368 . S
C74 C73 1.373 . S
C74 C78 1.397 . S
C75 N71 1.453 . S
C75 C73 1.368 . S
C75 C76 1.373 . S
C76 H70 0.930 . S
C76 C75 1.373 . S
C76 C77 1.371 . S
C77 C76 1.371 . S
C77 C78 1.383 . S
C78 H69 0.931 . S
C78 C74 1.397 . S
C78 C77 1.383 . S
H79 C84 0.929 . S
H80 C89 0.931 . S
H81 C87 0.930 . S
N82 N83 1.234 . S
N82 C86 1.453 . S
N83 N82 1.234 . S
C84 H79 0.929 . S
C84 C85 1.373 . S
C84 C86 1.368 . S
C85 C84 1.373 . S
C85 C89 1.397 . S
C86 N82 1.453 . S
C86 C84 1.368 . S
C86 C87 1.373 . S
C87 H81 0.930 . S
C87 C86 1.373 . S
C87 C88 1.371 . S
C88 C87 1.371 . S
C88 C89 1.383 . S
C89 H80 0.931 . S
C89 C85 1.397 . S
C89 C88 1.383 . S
C90 C91 1.363 . S
C90 C96 1.379 . S
C90 N98 1.356 . S
C91 C90 1.363 . S
C91 C97 1.363 . S
C92 C93 1.363 . S
C92 C97 1.379 . S
C92 N99 1.356 . S
C93 C92 1.363 . S
C93 C96 1.363 . S
N94 C96 1.356 . S
N94 H106 0.984 . S
N94 H107 0.985 . S
N95 C97 1.356 1_556 S
N95 H100 0.984 . S
N95 H101 0.985 . S
C96 C90 1.379 . S
C96 C93 1.363 . S
C96 N94 1.356 . S
C97 C91 1.363 . S
C97 C92 1.379 . S
C97 N95 1.356 1_554 S
N98 C90 1.356 . S
N98 H104 0.984 . S
N98 H105 0.984 . S
N99 C92 1.356 . S
N99 H102 0.984 . S
N99 H103 0.985 1_554 S
H100 N95 0.984 . S
H101 N95 0.985 . S
H102 N99 0.984 . S
H103 N99 0.985 1_556 S
H104 N98 0.984 . S
H105 N98 0.984 . S
H106 N94 0.984 . S
H107 N94 0.985 . S
C108 C109 1.363 1_554 S
C108 C114 1.379 . S
C108 N116 1.356 . S
C109 C108 1.363 1_556 S
C109 C115 1.363 . S
C110 C111 1.363 . S
C110 C115 1.379 . S
C110 N117 1.356 . S
C111 C110 1.363 . S
C111 C114 1.363 1_556 S
N112 C114 1.356 . S
N112 H124 0.984 . S
N112 H125 0.985 . S
N113 C115 1.356 . S
N113 H118 0.984 . S
N113 H119 0.985 . S
C114 C108 1.379 . S
C114 C111 1.363 1_554 S
C114 N112 1.356 . S
C115 C109 1.363 . S
C115 C110 1.379 . S
C115 N113 1.356 . S
N116 C108 1.356 . S
N116 H122 0.984 . S
N116 H123 0.984 . S
N117 C110 1.356 . S
N117 H120 0.984 . S
N117 H121 0.985 . S
H118 N113 0.984 . S
H119 N113 0.985 . S
H120 N117 0.984 . S
H121 N117 0.985 . S
H122 N116 0.984 . S
H123 N116 0.984 . S
H124 N112 0.984 . S
H125 N112 0.985 . S
C126 C127 1.363 . S
C126 C132 1.379 . S
C126 N134 1.356 . S
C127 C126 1.363 . S
C127 C133 1.363 1_554 S
C128 C129 1.363 . S
C128 C133 1.379 1_554 S
C128 N135 1.356 1_554 S
C129 C128 1.363 . S
C129 C132 1.363 . S
N130 C132 1.356 . S
N130 H142 0.984 . S
N130 H143 0.985 . S
N131 C133 1.356 . S
N131 H136 0.984 . S
N131 H137 0.985 . S
C132 C126 1.379 . S
C132 C129 1.363 . S
C132 N130 1.356 . S
C133 C127 1.363 1_556 S
C133 C128 1.379 1_556 S
C133 N131 1.356 . S
N134 C126 1.356 . S
N134 H140 0.984 . S
N134 H141 0.984 . S
N135 C128 1.356 1_556 S
N135 H138 0.984 . S
N135 H139 0.985 . S
H136 N131 0.984 . S
H137 N131 0.985 . S
H138 N135 0.984 . S
H139 N135 0.985 . S
H140 N134 0.984 . S
H141 N134 0.984 . S
H142 N130 0.984 . S
H143 N130 0.985 . S
C144 C145 1.363 . S
C144 C150 1.379 . S
C144 N152 1.356 . S
C145 C144 1.363 . S
C145 C151 1.363 . S
C146 C147 1.363 . S
C146 C151 1.379 . S
C146 N153 1.356 . S
C147 C146 1.363 . S
C147 C150 1.363 . S
N148 C150 1.356 . S
N148 H160 0.984 . S
N148 H161 0.985 . S
N149 C151 1.356 . S
N149 H154 0.984 . S
N149 H155 0.981 1_556 S
C150 C144 1.379 . S
C150 C147 1.363 . S
C150 N148 1.356 . S
C151 C145 1.363 . S
C151 C146 1.379 . S
C151 N149 1.356 . S
N152 C144 1.356 . S
N152 H158 0.984 . S
N152 H159 0.984 . S
N153 C146 1.356 . S
N153 H156 0.984 . S
N153 H157 0.985 . S
H154 N149 0.984 . S
H155 N149 0.981 1_554 S
H156 N153 0.984 . S
H157 N153 0.985 . S
H158 N152 0.984 . S
H159 N152 0.984 . S
H160 N148 0.984 . S
H161 N148 0.985 . S
C162 C163 1.363 . S
C162 C168 1.379 . S
C162 N170 1.356 . S
C163 C162 1.363 . S
C163 C169 1.363 . S
C164 C165 1.363 . S
C164 C169 1.379 . S
C164 N171 1.356 . S
C165 C164 1.363 . S
C165 C168 1.363 . S
N166 C168 1.356 . S
N166 H178 0.984 . S
N166 H179 0.985 . S
N167 C169 1.356 . S
N167 H172 0.984 . S
N167 H173 0.985 . S
C168 C162 1.379 . S
C168 C165 1.363 . S
C168 N166 1.356 . S
C169 C163 1.363 . S
C169 C164 1.379 . S
C169 N167 1.356 . S
N170 C162 1.356 . S
N170 H176 0.984 . S
N170 H177 0.984 . S
N171 C164 1.356 . S
N171 H174 0.984 . S
N171 H175 0.985 . S
H172 N167 0.984 . S
H173 N167 0.985 . S
H174 N171 0.984 . S
H175 N171 0.985 . S
H176 N170 0.984 . S
H177 N170 0.984 . S
H178 N166 0.984 . S
H179 N166 0.985 . S
C180 C181 1.363 . S
C180 C186 1.379 . S
C180 N188 1.356 . S
C181 C180 1.363 . S
C181 C187 1.363 . S
C182 C183 1.363 . S
C182 C187 1.379 . S
C182 N189 1.356 . S
C183 C182 1.363 . S
C183 C186 1.363 . S
N184 C186 1.356 . S
N184 H196 0.984 . S
N184 H197 0.985 . S
N185 C187 1.356 . S
N185 H190 0.984 . S
N185 H191 0.985 . S
C186 C180 1.379 . S
C186 C183 1.363 . S
C186 N184 1.356 . S
C187 C181 1.363 . S
C187 C182 1.379 . S
C187 N185 1.356 . S
N188 C180 1.356 . S
N188 H194 0.984 . S
N188 H195 0.984 . S
N189 C182 1.356 . S
N189 H192 0.984 . S
N189 H193 0.985 . S
H190 N185 0.984 . S
H191 N185 0.985 . S
H192 N189 0.984 . S
H193 N189 0.985 . S
H194 N188 0.984 . S
H195 N188 0.984 . S
H196 N184 0.984 . S
H197 N184 0.985 . S
C198 C199 1.363 . S
C198 C204 1.379 . S
C198 N206 1.356 . S
C199 C198 1.363 . S
C199 C205 1.363 . S
C200 C201 1.363 . S
C200 C205 1.379 . S
C200 N207 1.356 . S
C201 C200 1.363 . S
C201 C204 1.363 . S
N202 C204 1.356 . S
N202 H214 0.984 . S
N202 H215 0.985 . S
N203 C205 1.356 . S
N203 H208 0.984 . S
N203 H209 0.985 . S
C204 C198 1.379 . S
C204 C201 1.363 . S
C204 N202 1.356 . S
C205 C199 1.363 . S
C205 C200 1.379 . S
C205 N203 1.356 . S
N206 C198 1.356 . S
N206 H212 0.984 . S
N206 H213 0.984 . S
N207 C200 1.356 . S
N207 H210 0.984 . S
N207 H211 0.985 . S
H208 N203 0.984 . S
H209 N203 0.985 . S
H210 N207 0.984 . S
H211 N207 0.985 . S
H212 N206 0.984 . S
H213 N206 0.984 . S
H214 N202 0.984 . S
H215 N202 0.985 . S
C216 C217 1.363 . S
C216 C222 1.379 . S
C216 N224 1.356 . S
C217 C216 1.363 . S
C217 C223 1.363 . S
C218 C219 1.363 . S
C218 C223 1.379 . S
C218 N225 1.356 . S
C219 C218 1.363 . S
C219 C222 1.363 . S
N220 C222 1.356 . S
N220 H232 0.984 . S
N220 H233 0.985 . S
N221 C223 1.356 . S
N221 H226 0.984 . S
N221 H227 0.985 . S
C222 C216 1.379 . S
C222 C219 1.363 . S
C222 N220 1.356 . S
C223 C217 1.363 . S
C223 C218 1.379 . S
C223 N221 1.356 . S
N224 C216 1.356 . S
N224 H230 0.984 . S
N224 H231 0.984 . S
N225 C218 1.356 . S
N225 H228 0.984 . S
N225 H229 0.985 . S
H226 N221 0.984 . S
H227 N221 0.985 . S
H228 N225 0.984 . S
H229 N225 0.985 . S
H230 N224 0.984 . S
H231 N224 0.984 . S
H232 N220 0.984 . S
H233 N220 0.985 . S
C234 C235 1.363 . S
C234 C240 1.379 . S
C234 N242 1.356 . S
C235 C234 1.363 . S
C235 C241 1.363 1_445 S
C236 C237 1.363 1_655 S
C236 C241 1.379 . S
C236 N243 1.356 . S
C237 C236 1.363 1_455 S
C237 C240 1.363 1_565 S
N238 C240 1.356 . S
N238 H250 0.984 . S
N238 H251 0.985 . S
N239 C241 1.356 . S
N239 H244 0.984 . S
N239 H245 0.985 . S
C240 C234 1.379 . S
C240 C237 1.363 1_545 S
C240 N238 1.356 . S
C241 C235 1.363 1_665 S
C241 C236 1.379 . S
C241 N239 1.356 . S
N242 C234 1.356 . S
N242 H248 0.984 . S
N242 H249 0.984 . S
N243 C236 1.356 . S
N243 H246 0.984 . S
N243 H247 0.985 . S
H244 N239 0.984 . S
H245 N239 0.985 . S
H246 N243 0.984 . S
H247 N243 0.985 . S
H248 N242 0.984 . S
H249 N242 0.984 . S
H250 N238 0.984 . S
H251 N238 0.985 . S
C252 C253 1.363 1_465 S
C252 C258 1.379 . S
C252 N260 1.356 . S
C253 C252 1.363 1_645 S
C253 C259 1.363 . S
C254 C255 1.363 1_545 S
C254 C259 1.379 . S
C254 N261 1.356 . S
C255 C254 1.363 1_565 S
C255 C258 1.363 1_655 S
N256 C258 1.356 . S
N256 H268 0.984 . S
N256 H269 0.985 . S
N257 C259 1.356 . S
N257 H262 0.984 . S
N257 H263 0.985 . S
C258 C252 1.379 . S
C258 C255 1.363 1_455 S
C258 N256 1.356 . S
C259 C253 1.363 . S
C259 C254 1.379 . S
C259 N257 1.356 . S
N260 C252 1.356 . S
N260 H266 0.984 . S
N260 H267 0.984 . S
N261 C254 1.356 . S
N261 H264 0.984 . S
N261 H265 0.985 . S
H262 N257 0.984 . S
H263 N257 0.985 . S
H264 N261 0.984 . S
H265 N261 0.985 . S
H266 N260 0.984 . S
H267 N260 0.984 . S
H268 N256 0.984 . S
H269 N256 0.985 . S
C270 C271 1.363 . S
C270 C276 1.379 . S
C270 N278 1.356 . S
C271 C270 1.363 . S
C271 C277 1.363 . S
C272 C273 1.363 . S
C272 C277 1.379 . S
C272 N279 1.356 . S
C273 C272 1.363 . S
C273 C276 1.363 . S
N274 C276 1.356 . S
N274 H286 0.984 . S
N274 H287 0.985 . S
N275 C277 1.356 . S
N275 H280 0.984 . S
N275 H281 0.985 . S
C276 C270 1.379 . S
C276 C273 1.363 . S
C276 N274 1.356 . S
C277 C271 1.363 . S
C277 C272 1.379 . S
C277 N275 1.356 . S
N278 C270 1.356 . S
N278 H284 0.984 . S
N278 H285 0.984 . S
N279 C272 1.356 . S
N279 H282 0.984 . S
N279 H283 0.985 . S
H280 N275 0.984 . S
H281 N275 0.985 . S
H282 N279 0.984 . S
H283 N279 0.985 . S
H284 N278 0.984 . S
H285 N278 0.984 . S
H286 N274 0.984 . S
H287 N274 0.985 . S
C288 C289 1.363 . S
C288 C294 1.379 . S
C288 N296 1.356 . S
C289 C288 1.363 . S
C289 C295 1.363 . S
C290 C291 1.363 . S
C290 C295 1.379 . S
C290 N297 1.356 . S
C291 C290 1.363 . S
C291 C294 1.363 . S
N292 C294 1.356 . S
N292 H304 0.984 . S
N292 H305 0.985 . S
N293 C295 1.356 . S
N293 H298 0.984 . S
N293 H299 0.985 . S
C294 C288 1.379 . S
C294 C291 1.363 . S
C294 N292 1.356 . S
C295 C289 1.363 . S
C295 C290 1.379 . S
C295 N293 1.356 . S
N296 C288 1.356 . S
N296 H302 0.984 . S
N296 H303 0.984 . S
N297 C290 1.356 . S
N297 H300 0.984 . S
N297 H301 0.985 . S
H298 N293 0.984 . S
H299 N293 0.985 . S
H300 N297 0.984 . S
H301 N297 0.985 . S
H302 N296 0.984 . S
H303 N296 0.984 . S
H304 N292 0.984 . S
H305 N292 0.985 . S
C93 C85 1.511 . S
C91 C21 1.509 . S
C109 C19 1.445 . S
C111 N72 1.421 . S
C127 C18 1.415 . S
C129 N83 1.406 . S
C145 C20 1.497 . S
C147 C74 1.503 . S
C163 C44 1.509 . S
C165 C63 1.511 . S
C181 C42 1.445 . S
C183 N50 1.421 . S
C201 N61 1.406 . S
C199 C41 1.415 . S
C219 C52 1.503 . S
C217 C43 1.497 . S
C235 C16 1.527 . S
C237 C55 1.523 . S
C253 C17 1.496 . S
C255 C66 1.491 . S
C273 C77 1.523 . S
C271 C39 1.527 . S
C289 C40 1.496 . S
C291 C88 1.491 . S
