# Generated by pormake.
# Topology pyr, (3,6)-cn, num edge types: 1
# Building blocks:
#     Node 0, Type 0, BuildingBlock: BELTOD_clean_linker_0, # of connection points: 3
#     Node 1, Type 0, BuildingBlock: BELTOD_clean_linker_0, # of connection points: 3
#     Node 2, Type 0, BuildingBlock: BELTOD_clean_linker_0, # of connection points: 3
#     Node 3, Type 0, BuildingBlock: BELTOD_clean_linker_0, # of connection points: 3
#     Node 4, Type 0, BuildingBlock: BELTOD_clean_linker_0, # of connection points: 3
#     Node 5, Type 0, BuildingBlock: BELTOD_clean_linker_0, # of connection points: 3
#     Node 6, Type 0, BuildingBlock: BELTOD_clean_linker_0, # of connection points: 3
#     Node 7, Type 0, BuildingBlock: BELTOD_clean_linker_0, # of connection points: 3
#     Node 8, Type 1, BuildingBlock: BETGAK_clean_sbu_0, # of connection points: 6
#     Node 9, Type 1, BuildingBlock: BETGAK_clean_sbu_0, # of connection points: 6
#     Node 10, Type 1, BuildingBlock: BETGAK_clean_sbu_0, # of connection points: 6
#     Node 11, Type 1, BuildingBlock: BETGAK_clean_sbu_0, # of connection points: 6
#     Edge 12, Type (0, 1), BuildingBlock: KIFKEQ_clean_linker_1, # of connection points: 2
#     Edge 13, Type (0, 1), BuildingBlock: KIFKEQ_clean_linker_1, # of connection points: 2
#     Edge 14, Type (0, 1), BuildingBlock: KIFKEQ_clean_linker_1, # of connection points: 2
#     Edge 15, Type (0, 1), BuildingBlock: KIFKEQ_clean_linker_1, # of connection points: 2
#     Edge 16, Type (0, 1), BuildingBlock: KIFKEQ_clean_linker_1, # of connection points: 2
#     Edge 17, Type (0, 1), BuildingBlock: KIFKEQ_clean_linker_1, # of connection points: 2
#     Edge 18, Type (0, 1), BuildingBlock: KIFKEQ_clean_linker_1, # of connection points: 2
#     Edge 19, Type (0, 1), BuildingBlock: KIFKEQ_clean_linker_1, # of connection points: 2
#     Edge 20, Type (0, 1), BuildingBlock: KIFKEQ_clean_linker_1, # of connection points: 2
#     Edge 21, Type (0, 1), BuildingBlock: KIFKEQ_clean_linker_1, # of connection points: 2
#     Edge 22, Type (0, 1), BuildingBlock: KIFKEQ_clean_linker_1, # of connection points: 2
#     Edge 23, Type (0, 1), BuildingBlock: KIFKEQ_clean_linker_1, # of connection points: 2
#     Edge 24, Type (0, 1), BuildingBlock: KIFKEQ_clean_linker_1, # of connection points: 2
#     Edge 25, Type (0, 1), BuildingBlock: KIFKEQ_clean_linker_1, # of connection points: 2
#     Edge 26, Type (0, 1), BuildingBlock: KIFKEQ_clean_linker_1, # of connection points: 2
#     Edge 27, Type (0, 1), BuildingBlock: KIFKEQ_clean_linker_1, # of connection points: 2
#     Edge 28, Type (0, 1), BuildingBlock: KIFKEQ_clean_linker_1, # of connection points: 2
#     Edge 29, Type (0, 1), BuildingBlock: KIFKEQ_clean_linker_1, # of connection points: 2
#     Edge 30, Type (0, 1), BuildingBlock: KIFKEQ_clean_linker_1, # of connection points: 2
#     Edge 31, Type (0, 1), BuildingBlock: KIFKEQ_clean_linker_1, # of connection points: 2
#     Edge 32, Type (0, 1), BuildingBlock: KIFKEQ_clean_linker_1, # of connection points: 2
#     Edge 33, Type (0, 1), BuildingBlock: KIFKEQ_clean_linker_1, # of connection points: 2
#     Edge 34, Type (0, 1), BuildingBlock: KIFKEQ_clean_linker_1, # of connection points: 2
#     Edge 35, Type (0, 1), BuildingBlock: KIFKEQ_clean_linker_1, # of connection points: 2
# Relax obj value: 0.103
# Max RMSD: 0.124
# Mean RMSD: 0.058
data_MOF--net-pyr--node1-BETGAK_clean_sbu_0--node2-BELTOD_clean_linker_0--edge1-KIFKEQ_clean_linker_1
_symmetry_space_group_name_H-M    P1
_symmetry_Int_Tables_number       1
_symmetry_cell_setting            triclinic
loop_
_symmetry_equiv_pos_as_xyz
'x, y, z'
_cell_length_a     44.697954
_cell_length_b     45.854651
_cell_length_c     40.081639
_cell_angle_alpha  90.122452
_cell_angle_beta   88.308427
_cell_angle_gamma 101.86968
loop_
_atom_site_label
_atom_site_type_symbol
_atom_site_fract_x
_atom_site_fract_y
_atom_site_fract_z
_atom_type_partial_charge
P0 P 0.3461 0.31959 0.27756 0.0
H1 H 0.36249 0.30538 0.20819 0.0
H2 H 0.38643 0.26607 0.18511 0.0
H3 H 0.39906 0.23641 0.28504 0.0
H4 H 0.37542 0.27595 0.30786 0.0
H5 H 0.34733 0.38267 0.26376 0.0
H6 H 0.31432 0.40701 0.23076 0.0
H7 H 0.26813 0.32096 0.19485 0.0
H8 H 0.30191 0.29709 0.22687 0.0
H9 H 0.31561 0.33627 0.33823 0.0
H10 H 0.30812 0.25993 0.27366 0.0
O11 O 0.36993 0.34442 0.29988 0.0
H12 H 0.27015 0.31102 0.37036 0.0
H13 H 0.26264 0.23499 0.30483 0.0
C14 C 0.36683 0.29329 0.25975 0.0
C15 C 0.37053 0.29054 0.22513 0.0
C16 C 0.38413 0.26796 0.21195 0.0
C17 C 0.39441 0.24792 0.23323 0.0
C18 C 0.39165 0.25158 0.26794 0.0
C19 C 0.37804 0.2741 0.28103 0.0
C20 C 0.32722 0.33809 0.24756 0.0
C21 C 0.33068 0.36916 0.24802 0.0
C22 C 0.31153 0.38302 0.22941 0.0
C23 C 0.28832 0.36597 0.21034 0.0
C24 C 0.28596 0.33491 0.20882 0.0
C25 C 0.30522 0.32115 0.22726 0.0
C26 C 0.3157 0.29965 0.30418 0.0
C27 C 0.30453 0.31388 0.33138 0.0
C28 C 0.27837 0.29956 0.34946 0.0
C29 C 0.26285 0.2709 0.34029 0.0
C30 C 0.27439 0.25674 0.3131 0.0
C31 C 0.30046 0.27102 0.29518 0.0
P32 P 0.35099 0.96221 0.57923 0.0
H33 H 0.40478 0.96521 0.61895 0.0
H34 H 0.41371 0.97309 0.67857 0.0
H35 H 0.3225 0.98972 0.69289 0.0
H36 H 0.31384 0.98213 0.63353 0.0
H37 H 0.3705 0.92745 0.52423 0.0
H38 H 0.37588 0.87539 0.5203 0.0
H39 H 0.34223 0.86073 0.62243 0.0
H40 H 0.33614 0.91212 0.62573 0.0
H41 H 0.32906 1.01219 0.55102 0.0
H42 H 0.29032 0.92318 0.58607 0.0
O43 O 0.37725 0.98301 0.55399 0.0
H44 H 0.27766 1.0208 0.54215 0.0
H45 H 0.23902 0.9314 0.57674 0.0
C46 C 0.35877 0.9732 0.62174 0.0
C47 C 0.38696 0.97112 0.63486 0.0
C48 C 0.39191 0.97535 0.66894 0.0
C49 C 0.36871 0.98183 0.69042 0.0
C50 C 0.34089 0.98501 0.67692 0.0
C51 C 0.33591 0.9806 0.64288 0.0
C52 C 0.35361 0.92374 0.57548 0.0
C53 C 0.36419 0.9129 0.54565 0.0
C54 C 0.3673 0.8832 0.54348 0.0
C55 C 0.35962 0.86392 0.5711 0.0
C56 C 0.34802 0.87479 0.60054 0.0
C57 C 0.3449 0.90435 0.60262 0.0
C58 C 0.31352 0.96687 0.56849 0.0
C59 C 0.30952 0.99429 0.5561 0.0
C60 C 0.28015 0.99916 0.55105 0.0
C61 C 0.25429 0.97674 0.5587 0.0
C62 C 0.25847 0.94918 0.57087 0.0
C63 C 0.28784 0.94434 0.57585 0.0
P64 P 0.67085 0.35498 0.86754 0.0
H65 H 0.73554 0.35303 0.87023 0.0
H66 H 0.77734 0.3792 0.90308 0.0
H67 H 0.71569 0.42718 0.95378 0.0
H68 H 0.67398 0.40169 0.91907 0.0
H69 H 0.63622 0.29674 0.84819 0.0
H70 H 0.60873 0.25352 0.87973 0.0
H71 H 0.62844 0.30222 0.97162 0.0
H72 H 0.65523 0.34566 0.93974 0.0
H73 H 0.686 0.41637 0.84256 0.0
H74 H 0.60693 0.34443 0.847 0.0
O75 O 0.68701 0.33971 0.83575 0.0
H76 H 0.65938 0.44426 0.80568 0.0
H77 H 0.58007 0.37225 0.8104 0.0
C78 C 0.70162 0.37555 0.89194 0.0
C79 C 0.73095 0.36938 0.88814 0.0
C80 C 0.75491 0.3842 0.90739 0.0
C81 C 0.75007 0.40522 0.93155 0.0
C82 C 0.72051 0.41143 0.93525 0.0
C83 C 0.69654 0.39676 0.91555 0.0
C84 C 0.64819 0.32439 0.89153 0.0
C85 C 0.63451 0.2982 0.87513 0.0
C86 C 0.61897 0.27336 0.89327 0.0
C87 C 0.6167 0.27409 0.92836 0.0
C88 C 0.6296 0.30079 0.94467 0.0
C89 C 0.64511 0.32571 0.92641 0.0
C90 C 0.64831 0.37853 0.84828 0.0
C91 C 0.66254 0.40696 0.83655 0.0
C92 C 0.64728 0.42289 0.81528 0.0
C93 C 0.61759 0.41047 0.8048 0.0
C94 C 0.60304 0.38237 0.81757 0.0
C95 C 0.61828 0.36655 0.83893 0.0
P96 P 0.81531 0.70899 0.36726 0.0
H97 H 0.80178 0.74162 0.42649 0.0
H98 H 0.83006 0.78507 0.45507 0.0
H99 H 0.90849 0.78468 0.38959 0.0
H100 H 0.87973 0.74114 0.36076 0.0
H101 H 0.80482 0.68737 0.29949 0.0
H102 H 0.83093 0.6586 0.26175 0.0
H103 H 0.89596 0.65241 0.33773 0.0
H104 H 0.86962 0.68194 0.37555 0.0
H105 H 0.81192 0.68645 0.43684 0.0
H106 H 0.75445 0.67624 0.35136 0.0
O107 O 0.797 0.72829 0.34252 0.0
H108 H 0.76956 0.6576 0.47092 0.0
H109 H 0.71227 0.64721 0.38501 0.0
C110 C 0.83897 0.73711 0.39234 0.0
C111 C 0.82542 0.75013 0.41897 0.0
C112 C 0.84165 0.77522 0.43527 0.0
C113 C 0.87173 0.78842 0.42489 0.0
C114 C 0.88536 0.77522 0.39826 0.0
C115 C 0.86907 0.74996 0.38203 0.0
C116 C 0.83563 0.68746 0.34015 0.0
C117 C 0.82482 0.68007 0.30809 0.0
C118 C 0.83967 0.66328 0.28653 0.0
C119 C 0.86565 0.65309 0.29654 0.0
C120 C 0.87629 0.66021 0.32896 0.0
C121 C 0.86123 0.67703 0.35067 0.0
C122 C 0.78608 0.68424 0.39177 0.0
C123 C 0.79027 0.6779 0.42535 0.0
C124 C 0.76601 0.66144 0.44481 0.0
C125 C 0.73737 0.65038 0.43081 0.0
C126 C 0.73397 0.6553 0.39662 0.0
C127 C 0.75807 0.67205 0.37736 0.0
P128 P 0.71151 0.82699 0.91172 0.0
H129 H 0.67729 0.83282 0.97321 0.0
H130 H 0.63231 0.85407 0.98457 0.0
H131 H 0.61816 0.85845 0.87873 0.0
H132 H 0.66297 0.83679 0.86748 0.0
H133 H 0.76262 0.79892 0.89868 0.0
H134 H 0.77665 0.75389 0.91934 0.0
H135 H 0.69449 0.73529 0.98151 0.0
H136 H 0.67931 0.77999 0.95918 0.0
H137 H 0.73893 0.87789 0.86966 0.0
H138 H 0.70681 0.78325 0.85744 0.0
O139 O 0.73506 0.85407 0.93149 0.0
H140 H 0.76396 0.88084 0.81441 0.0
H141 H 0.73271 0.78594 0.80241 0.0
C142 C 0.67347 0.83309 0.91957 0.0
C143 C 0.66378 0.83715 0.9525 0.0
C144 C 0.63806 0.84937 0.95895 0.0
C145 C 0.62186 0.85814 0.93249 0.0
C146 C 0.63038 0.85211 0.89957 0.0
C147 C 0.65596 0.8396 0.89316 0.0
C148 C 0.71953 0.79248 0.92668 0.0
C149 C 0.74706 0.78484 0.91604 0.0
C150 C 0.75514 0.75914 0.92786 0.0
C151 C 0.73637 0.74106 0.95151 0.0
C152 C 0.70903 0.74884 0.96288 0.0
C153 C 0.70046 0.77436 0.95023 0.0
C154 C 0.72205 0.83021 0.868 0.0
C155 C 0.73671 0.85786 0.85478 0.0
C156 C 0.75083 0.85954 0.82312 0.0
C157 C 0.75058 0.83351 0.80446 0.0
C158 C 0.73343 0.80624 0.81652 0.0
C159 C 0.71877 0.80471 0.84793 0.0
P160 P 0.83535 0.28893 0.43434 0.0
H161 H 0.84017 0.33761 0.48249 0.0
H162 H 0.80162 0.35764 0.51486 0.0
H163 H 0.73049 0.29045 0.4728 0.0
H164 H 0.76893 0.27019 0.44173 0.0
H165 H 0.89416 0.27081 0.43253 0.0
H166 H 0.91287 0.23152 0.46151 0.0
H167 H 0.82611 0.20705 0.51542 0.0
H168 H 0.80791 0.24671 0.48694 0.0
H169 H 0.81531 0.3147 0.37486 0.0
H170 H 0.814 0.22669 0.41347 0.0
O171 O 0.86394 0.31707 0.42332 0.0
H172 H 0.78472 0.29279 0.32791 0.0
H173 H 0.78318 0.20478 0.36722 0.0
C174 C 0.80731 0.30301 0.45904 0.0
C175 C 0.81625 0.32722 0.48043 0.0
C176 C 0.79422 0.33861 0.49887 0.0
C177 C 0.76294 0.32576 0.4963 0.0
C178 C 0.75433 0.30072 0.47575 0.0
C179 C 0.77633 0.28936 0.45749 0.0
C180 C 0.84993 0.26202 0.45807 0.0
C181 C 0.87941 0.25729 0.45101 0.0
C182 C 0.88994 0.23467 0.46738 0.0
C183 C 0.87096 0.21617 0.4908 0.0
C184 C 0.84148 0.22123 0.49798 0.0
C185 C 0.83102 0.24389 0.48164 0.0
C186 C 0.81738 0.27237 0.39732 0.0
C187 C 0.80892 0.29067 0.37289 0.0
C188 C 0.79117 0.27814 0.34631 0.0
C189 C 0.78149 0.24704 0.34386 0.0
C190 C 0.79064 0.22878 0.36807 0.0
C191 C 0.80831 0.24134 0.39463 0.0
P192 P 0.35773 0.69722 0.22559 0.0
H193 H 0.33306 0.68192 0.16001 0.0
H194 H 0.28223 0.65975 0.14079 0.0
H195 H 0.24703 0.65488 0.24263 0.0
H196 H 0.29846 0.67696 0.2618 0.0
H197 H 0.4065 0.74413 0.25127 0.0
H198 H 0.42311 0.79706 0.2369 0.0
H199 H 0.34451 0.79135 0.17545 0.0
H200 H 0.32752 0.73894 0.19053 0.0
H201 H 0.36807 0.63912 0.24313 0.0
H202 H 0.3639 0.72055 0.29522 0.0
O203 O 0.38205 0.6868 0.19786 0.0
H204 H 0.38342 0.61787 0.29395 0.0
H205 H 0.38005 0.69955 0.34648 0.0
C206 C 0.31967 0.68071 0.21238 0.0
C207 C 0.31448 0.67596 0.17828 0.0
C208 C 0.28527 0.66349 0.16727 0.0
C209 C 0.26045 0.65552 0.19013 0.0
C210 C 0.26569 0.66044 0.22439 0.0
C211 C 0.29504 0.67314 0.23539 0.0
C212 C 0.36529 0.73751 0.22277 0.0
C213 C 0.39213 0.75452 0.23585 0.0
C214 C 0.40174 0.78476 0.22743 0.0
C215 C 0.38514 0.79831 0.20496 0.0
C216 C 0.3578 0.78149 0.19275 0.0
C217 C 0.34796 0.75146 0.20161 0.0
C218 C 0.3656 0.68168 0.26509 0.0
C219 C 0.37048 0.65247 0.2656 0.0
C220 C 0.37946 0.64039 0.2947 0.0
C221 C 0.38369 0.6572 0.32422 0.0
C222 C 0.37717 0.68602 0.32418 0.0
C223 C 0.36812 0.69815 0.29482 0.0
P224 P 0.16787 0.36077 0.77743 0.0
H225 H 0.17506 0.29913 0.77416 0.0
H226 H 0.15131 0.25621 0.74195 0.0
H227 H 0.095 0.30932 0.69457 0.0
H228 H 0.11828 0.35229 0.72854 0.0
H229 H 0.22438 0.40078 0.79542 0.0
H230 H 0.26801 0.42864 0.76303 0.0
H231 H 0.22307 0.39751 0.67179 0.0
H232 H 0.17908 0.37032 0.70449 0.0
H233 H 0.11068 0.34435 0.81657 0.0
H234 H 0.17173 0.42553 0.78466 0.0
O235 O 0.18459 0.34724 0.80892 0.0
H236 H 0.08412 0.37285 0.85488 0.0
H237 H 0.14528 0.45409 0.82254 0.0
C238 C 0.1482 0.32892 0.75418 0.0
C239 C 0.15733 0.30159 0.7572 0.0
C240 C 0.14392 0.277 0.73828 0.0
C241 C 0.12134 0.27911 0.71517 0.0
C242 C 0.11206 0.30662 0.71228 0.0
C243 C 0.1254 0.33128 0.73162 0.0
C244 C 0.19859 0.3831 0.75248 0.0
C245 C 0.22383 0.40006 0.76843 0.0
C246 C 0.24889 0.41586 0.74982 0.0
C247 C 0.24937 0.41506 0.71471 0.0
C248 C 0.22351 0.39881 0.69875 0.0
C249 C 0.19833 0.38305 0.71748 0.0
C250 C 0.14305 0.38269 0.79736 0.0
C251 C 0.11776 0.3684 0.81697 0.0
C252 C 0.10264 0.38476 0.83902 0.0
C253 C 0.11276 0.41581 0.84221 0.0
C254 C 0.13717 0.43018 0.82125 0.0
C255 C 0.15218 0.41382 0.79918 0.0
La256 La 0.99961 0.05274 0.52814 0.0
La257 La 1.00065 1.02231 0.59359 0.0
C258 C 0.99452 0.08878 0.48228 0.0
C259 C 0.01568 0.1152 0.46878 0.0
C260 C 0.03853 0.13148 0.48872 0.0
C261 C 0.06181 0.15328 0.47447 0.0
C262 C 0.06281 0.15896 0.43998 0.0
C263 C 0.03901 0.14366 0.42038 0.0
C264 C 0.01563 0.12193 0.43471 0.0
C265 C 0.04767 1.02856 0.53593 0.0
C266 C 0.02959 0.08928 0.5919 0.0
C267 C 1.00319 0.98513 0.63871 0.0
C268 C 0.97981 0.95868 0.64761 0.0
C269 C 0.95039 0.95603 0.6352 0.0
C270 C 0.92699 0.93245 0.64518 0.0
C271 C 0.93256 0.91065 0.66749 0.0
C272 C 0.96261 0.91258 0.6785 0.0
C273 C 0.98605 0.93656 0.66874 0.0
C274 C 0.95275 0.04682 0.58451 0.0
C275 C 0.97077 0.98531 0.53031 0.0
O276 O 1.00343 0.06369 0.4772 0.0
O277 O 0.98409 0.09075 0.51287 0.0
O278 O 0.03559 1.03143 0.5076 0.0
O279 O 0.03502 1.04177 0.5579 0.0
O280 O 0.0154 0.08976 0.56331 0.0
O281 O 0.03181 0.06367 0.60577 0.0
O282 O 0.99473 1.01045 0.64416 0.0
O283 O 0.01626 0.98443 0.60916 0.0
O284 O 0.9655 0.04587 0.61289 0.0
O285 O 0.96575 1.03294 0.56369 0.0
O286 O 0.98451 0.98511 0.55915 0.0
O287 O 0.96905 1.01081 0.51584 0.0
H288 H 0.03927 0.12645 0.515 0.0
H289 H 0.07998 0.16441 0.49015 0.0
H290 H 0.03906 0.14779 0.39378 0.0
H291 H 0.99827 0.10946 0.41893 0.0
H292 H 0.94523 0.97285 0.6186 0.0
H293 H 0.90423 0.93226 0.63657 0.0
H294 H 0.9679 0.89595 0.69521 0.0
H295 H 0.00879 0.93812 0.67816 0.0
La296 La 0.52709 0.05036 0.09479 0.0
La297 La 0.46518 1.03721 0.06817 0.0
C298 C 0.57893 0.07304 0.11688 0.0
C299 C 0.5948 0.09753 0.13788 0.0
C300 C 0.5884 0.09843 0.17237 0.0
C301 C 0.60697 0.11913 0.19253 0.0
C302 C 0.63228 0.13928 0.17861 0.0
C303 C 0.6376 0.1393 0.14386 0.0
C304 C 0.61912 0.11856 0.12375 0.0
C305 C 0.49288 0.99898 0.1146 0.0
C306 C 0.47435 0.07802 0.12854 0.0
C307 C 0.41514 1.01375 1.04273 0.0
C308 C 0.40884 1.0074 1.00746 0.0
C309 C 0.43214 1.0169 0.98332 0.0
C310 C 0.42662 1.01181 0.94957 0.0
C311 C 0.39765 0.99708 0.93923 0.0
C312 C 0.3743 0.98749 0.96354 0.0
C313 C 0.3799 0.9926 0.99749 0.0
C314 C 0.4999 0.08768 1.0457 0.0
C315 C 0.51826 1.00931 1.03333 0.0
O316 O 0.55951 0.05134 0.13165 0.0
O317 O 0.5693 0.0803 0.08816 0.0
O318 O 0.52179 1.00318 0.1071 0.0
O319 O 0.484 1.02325 0.11209 0.0
O320 O 0.50379 0.0823 0.12018 0.0
O321 O 0.45463 0.05571 0.1157 0.0
O322 O 0.42301 1.04206 1.04981 0.0
O323 O 0.43331 0.99838 1.05618 0.0
O324 O 0.47071 0.08336 1.0509 0.0
O325 O 0.50827 0.0635 1.05043 0.0
O326 O 0.4886 1.00796 1.03811 0.0
O327 O 0.53869 1.02789 1.05029 0.0
H328 H 0.56982 0.08246 0.18403 0.0
H329 H 0.60237 0.11833 0.21923 0.0
H330 H 0.65657 0.15487 0.13227 0.0
H331 H 0.62455 0.11828 0.09724 0.0
H332 H 0.45457 1.02863 0.99058 0.0
H333 H 0.44492 1.01999 0.93153 0.0
H334 H 0.35182 0.97588 0.95635 0.0
H335 H 0.36169 0.98515 1.01587 0.0
La336 La 0.49579 0.5115 0.54987 0.0
La337 La 0.48907 0.56046 0.59598 0.0
C338 C 0.5167 0.47305 0.51701 0.0
C339 C 0.54132 0.45672 0.52261 0.0
C340 C 0.53398 0.4258 0.52791 0.0
C341 C 0.55695 0.41003 0.53368 0.0
C342 C 0.5878 0.42484 0.53392 0.0
C343 C 0.59506 0.45587 0.52884 0.0
C344 C 0.57209 0.47166 0.52336 0.0
C345 C 0.44183 0.50472 0.58053 0.0
C346 C 0.52047 0.51225 0.62415 0.0
C347 C 0.4673 0.59762 0.63042 0.0
C348 C 0.45205 0.62222 0.62292 0.0
C349 C 0.45697 0.64758 0.64317 0.0
C350 C 0.44364 0.67168 0.63564 0.0
C351 C 0.42537 0.67085 0.60755 0.0
C352 C 0.42029 0.6453 0.58743 0.0
C353 C 0.43336 0.62109 0.59519 0.0
C354 C 0.54322 0.56722 0.56545 0.0
C355 C 0.46619 0.56086 0.52015 0.0
O356 O 0.49285 0.46653 0.5374 0.0
O357 O 0.52503 0.50177 0.51152 0.0
O358 O 0.44608 0.49661 0.55006 0.0
O359 O 0.46742 0.51473 0.59309 0.0
O360 O 0.52368 0.50451 0.59256 0.0
O361 O 0.50365 0.53182 0.63248 0.0
O362 O 0.49609 0.60159 0.62087 0.0
O363 O 0.45214 0.57077 0.62367 0.0
O364 O 0.53888 0.57575 0.59578 0.0
O365 O 0.51763 0.5572 0.55294 0.0
O366 O 0.46664 0.57206 0.55076 0.0
O367 O 0.47853 0.53771 0.51299 0.0
H368 H 0.51042 0.41381 0.52763 0.0
H369 H 0.5505 0.38622 0.53792 0.0
H370 H 0.61859 0.46794 0.52825 0.0
H371 H 0.57855 0.49553 0.51949 0.0
H372 H 0.47138 0.64885 0.66462 0.0
H373 H 0.44816 0.69124 0.65139 0.0
H374 H 0.40605 0.64396 0.56584 0.0
H375 H 0.42891 0.60158 0.57945 0.0
La376 La 0.99877 0.50369 0.0911 0.0
La377 La 0.99366 0.56253 0.06257 0.0
C378 C 0.0175 0.45713 0.1051 0.0
C379 C 0.04703 0.45007 0.1139 0.0
C380 C 0.06487 0.46556 0.13913 0.0
C381 C 0.09278 0.45835 0.14691 0.0
C382 C 0.10353 0.43568 0.12947 0.0
C383 C 0.08576 0.42062 0.10385 0.0
C384 C 0.05778 0.42768 0.09627 0.0
C385 C 0.96801 0.53494 0.12916 0.0
C386 C 0.05343 0.56095 0.09919 0.0
C387 C 0.97461 0.60895 1.04892 0.0
C388 C 0.945 0.61548 1.0396 0.0
C389 C 0.92883 0.60135 1.01245 0.0
C390 C 0.90074 0.60796 1.00432 0.0
C391 C 0.88822 0.62855 1.02336 0.0
C392 C 0.90422 0.64224 1.0508 0.0
C393 C 0.93239 0.63583 1.05875 0.0
C394 C 0.02415 0.53105 1.0243 0.0
C395 C 0.93899 0.50534 1.05422 0.0
O396 O 1.0044 0.47212 0.12694 0.0
O397 O 0.01603 0.46674 0.07461 0.0
O398 O 0.96156 0.50609 0.12713 0.0
O399 O 0.9919 0.54493 0.11179 0.0
O400 O 0.04456 0.53149 0.09899 0.0
O401 O 0.03553 0.57845 0.08878 0.0
O402 O 0.98864 0.59471 1.02715 0.0
O403 O 0.97556 0.59888 0.07929 0.0
O404 O 0.03069 0.55993 1.02631 0.0
O405 O 1.00033 0.52127 1.04185 0.0
O406 O 0.94812 0.53476 1.05374 0.0
O407 O 0.95656 0.48777 0.06535 0.0
H408 H 0.05725 0.48314 0.15296 0.0
H409 H 0.10564 0.47021 0.16702 0.0
H410 H 0.09353 0.40346 0.08944 0.0
H411 H 0.04452 0.41567 0.07649 0.0
H412 H 0.93785 0.58528 0.99746 0.0
H413 H 0.88878 0.59695 0.98316 0.0
H414 H 0.89532 0.65849 0.06564 0.0
H415 H 0.94442 0.6469 0.07985 0.0
H416 H 0.24479 0.21214 0.3575 0.0
H417 H 0.21541 0.2962 0.36245 0.0
H418 H 0.19546 0.18692 0.38112 0.0
H419 H 0.16613 0.27086 0.38675 0.0
H420 H 0.09431 0.21329 0.4612 0.0
H421 H 0.14305 0.24174 0.43843 0.0
H422 H 0.14194 0.1763 0.3606 0.0
H423 H 0.09378 0.14768 0.38357 0.0
C424 C 0.22782 0.22525 0.36364 0.0
C425 C 0.23396 0.25615 0.35778 0.0
C426 C 0.19957 0.21079 0.37716 0.0
C427 C 0.17686 0.2269 0.38536 0.0
C428 C 0.1833 0.25794 0.38075 0.0
C429 C 0.21155 0.27243 0.36698 0.0
C430 C 0.10443 0.20515 0.4391 0.0
C431 C 0.09024 0.17826 0.42418 0.0
C432 C 0.1322 0.22148 0.426 0.0
C433 C 0.14639 0.21103 0.39799 0.0
C434 C 0.13171 0.18465 0.38251 0.0
C435 C 0.10393 0.16848 0.39541 0.0
H436 H 0.39312 0.94473 0.72968 0.0
H437 H 0.35328 1.0229 0.73376 0.0
H438 H 0.39871 0.94674 0.78996 0.0
H439 H 0.3592 1.02519 0.79412 0.0
H440 H 0.34726 1.00394 0.9052 0.0
H441 H 0.33946 0.9991 0.84525 0.0
H442 H 0.42824 0.97653 0.83159 0.0
H443 H 0.43538 0.98003 0.89149 0.0
C444 C 0.38592 0.96258 0.74344 0.0
C445 C 0.37291 0.98376 0.72698 0.0
C446 C 0.38907 0.96371 0.778 0.0
C447 C 0.3794 0.98612 0.79689 0.0
C448 C 0.36642 1.00734 0.78039 0.0
C449 C 0.36314 1.00613 0.74581 0.0
C450 C 0.36486 0.99745 0.88943 0.0
C451 C 0.39198 0.99247 0.90309 0.0
C452 C 0.36058 0.99506 0.85504 0.0
C453 C 0.38332 0.98763 0.83358 0.0
C454 C 0.41015 0.98205 0.84738 0.0
C455 C 0.41439 0.98438 0.88171 0.0
H456 H 0.61701 0.47019 0.79937 0.0
H457 H 0.58482 0.3856 0.75143 0.0
H458 H 0.59451 0.49524 0.75573 0.0
H459 H 0.5617 0.41047 0.70842 0.0
H460 H 0.55333 0.46807 0.61731 0.0
H461 H 0.57677 0.44418 0.66099 0.0
H462 H 0.54477 0.50018 0.7349 0.0
H463 H 0.52158 0.52433 0.69123 0.0
C464 C 0.60508 0.45692 0.77961 0.0
C465 C 0.6027 0.42583 0.77907 0.0
C466 C 0.59195 0.47125 0.7547 0.0
C467 C 0.57631 0.45492 0.72843 0.0
C468 C 0.57385 0.42383 0.728 0.0
C469 C 0.58679 0.4095 0.75298 0.0
C470 C 0.55133 0.4754 0.64286 0.0
C471 C 0.53546 0.49815 0.65067 0.0
C472 C 0.56464 0.46153 0.66797 0.0
C473 C 0.5626 0.47013 0.70158 0.0
C474 C 0.54707 0.49315 0.70931 0.0
C475 C 0.53361 0.50692 0.68422 0.0
H476 H 0.92742 0.65621 0.28566 0.0
H477 H 0.83914 0.60905 0.25391 0.0
H478 H 0.95239 0.62778 0.2458 0.0
H479 H 0.86393 0.5816 0.21338 0.0
H480 H 0.91677 0.51545 0.1679 0.0
H481 H 0.89292 0.54335 0.2091 0.0
H482 H 0.96185 0.62225 0.18644 0.0
H483 H 0.98619 0.59389 0.14586 0.0
C484 C 0.91331 0.63972 0.27032 0.0
C485 C 0.8812 0.63507 0.27306 0.0
C486 C 0.92764 0.62365 0.24712 0.0
C487 C 0.91026 0.60236 0.22615 0.0
C488 C 0.87817 0.59752 0.22923 0.0
C489 C 0.86389 0.61358 0.25231 0.0
C490 C 0.92681 0.53877 0.1717 0.0
C491 C 0.95325 0.55249 0.15345 0.0
C492 C 0.91303 0.55486 0.19523 0.0
C493 C 0.92532 0.58519 0.20119 0.0
C494 C 0.95187 0.5989 0.18287 0.0
C495 C 0.96567 0.58274 0.1593 0.0
H496 H 0.44365 0.22652 0.25427 0.0
H497 H 0.37302 0.21178 0.18118 0.0
H498 H 0.46258 0.18358 0.23289 0.0
H499 H 0.39258 0.16961 0.15908 0.0
H500 H 0.41513 0.07879 0.14713 0.0
H501 H 0.39605 0.11905 0.17467 0.0
H502 H 0.48867 0.16886 0.18318 0.0
H503 H 0.50784 0.12842 0.15623 0.0
C504 C 0.43218 0.21413 0.23364 0.0
C505 C 0.40685 0.2226 0.21941 0.0
C506 C 0.44317 0.18968 0.22122 0.0
C507 C 0.429 0.17308 0.19439 0.0
C508 C 0.40374 0.18163 0.1801 0.0
C509 C 0.39281 0.20609 0.19245 0.0
C510 C 0.43148 0.09812 0.15532 0.0
C511 C 0.46301 0.10045 0.14927 0.0
C512 C 0.4205 0.12131 0.17085 0.0
C513 C 0.44081 0.14733 0.18071 0.0
C514 C 0.47242 0.14907 0.17604 0.0
C515 C 0.48341 0.12588 0.16049 0.0
H516 H 0.20515 0.96149 0.60198 0.0
H517 H 0.23298 1.00507 0.50732 0.0
H518 H 0.15405 0.97165 0.5965 0.0
H519 H 0.18223 1.01615 0.5024 0.0
H520 H 0.07998 1.02876 0.59258 0.0
H521 H 0.12951 1.01477 0.59804 0.0
H522 H 0.12937 0.99093 0.49365 0.0
H523 H 0.08018 1.00544 0.48816 0.0
C524 C 0.20029 0.97308 0.57991 0.0
C525 C 0.22307 0.98244 0.55504 0.0
C526 C 0.17113 0.97919 0.57697 0.0
C527 C 0.16412 0.99472 0.54905 0.0
C528 C 0.18682 1.00384 0.52404 0.0
C529 C 0.21599 0.99779 0.52702 0.0
C530 C 0.09054 1.0204 0.57091 0.0
C531 C 0.07649 1.01838 0.5399 0.0
C532 C 0.11877 1.01224 0.57404 0.0
C533 C 0.13342 1.00191 0.54621 0.0
C534 C 0.1189 0.99926 0.5154 0.0
C535 C 0.09069 1.0074 0.5123 0.0
H536 H 0.79651 0.38145 0.95633 0.0
H537 H 0.7623 0.46298 0.95517 0.0
H538 H 0.84038 0.40622 0.9868 0.0
H539 H 0.80521 0.48728 0.9882 0.0
H540 H 0.90434 0.53109 1.01246 0.0
H541 H 0.85774 0.50739 0.98505 0.0
H542 H 0.85851 0.42522 1.03747 0.0
H543 H 0.90593 0.44861 0.06343 0.0
C544 C 0.79821 0.40469 0.96264 0.0
C545 C 0.77584 0.4202 0.95269 0.0
C546 C 0.82328 0.41886 0.98081 0.0
C547 C 0.82663 0.44892 0.99023 0.0
C548 C 0.80384 0.46428 0.98106 0.0
C549 C 0.77887 0.45016 0.96246 0.0
C550 C 0.89445 0.508 1.01827 0.0
C551 C 0.90907 0.49168 1.03992 0.0
C552 C 0.86751 0.49438 1.00265 0.0
C553 C 0.85421 0.46415 1.00864 0.0
C554 C 0.86832 0.44825 1.0314 0.0
C555 C 0.89549 0.46174 1.04657 0.0
H556 H 0.71896 0.66678 0.49249 0.0
H557 H 0.69489 0.59984 0.41665 0.0
H558 H 0.67313 0.64466 0.52504 0.0
H559 H 0.64937 0.57699 0.44962 0.0
H560 H 0.55282 0.56594 0.49777 0.0
H561 H 0.60046 0.58406 0.46609 0.0
H562 H 0.64789 0.60474 0.55839 0.0
H563 H 0.5999 0.58773 0.58976 0.0
C564 C 0.70417 0.64694 0.48307 0.0
C565 C 0.71063 0.63514 0.45191 0.0
C566 C 0.6778 0.63413 0.50181 0.0
C567 C 0.65723 0.60892 0.49012 0.0
C568 C 0.66419 0.59669 0.45927 0.0
C569 C 0.69042 0.6097 0.44037 0.0
C570 C 0.57351 0.5742 0.51122 0.0
C571 C 0.57259 0.57566 0.54623 0.0
C572 C 0.60096 0.58446 0.49308 0.0
C573 C 0.62827 0.59618 0.50951 0.0
C574 C 0.62736 0.59658 0.54468 0.0
C575 C 0.59986 0.5866 0.56277 0.0
H576 H 0.26187 0.41058 0.23532 0.0
H577 H 0.26123 0.35265 0.14999 0.0
H578 H 0.21953 0.42948 0.21281 0.0
H579 H 0.2183 0.37118 0.12795 0.0
H580 H 0.11623 0.37977 0.13131 0.0
H581 H 0.16345 0.36567 0.14712 0.0
H582 H 0.20412 0.458 0.16489 0.0
H583 H 0.15705 0.4724 0.14818 0.0
C584 C 0.25319 0.40231 0.21141 0.0
C585 C 0.26494 0.37994 0.19457 0.0
C586 C 0.22881 0.41311 0.19859 0.0
C587 C 0.21545 0.40163 0.16877 0.0
C588 C 0.22786 0.38009 0.15126 0.0
C589 C 0.25241 0.36946 0.16394 0.0
C590 C 0.13537 0.39721 0.13793 0.0
C591 C 0.13275 0.42726 0.13841 0.0
C592 C 0.16245 0.38907 0.14704 0.0
C593 C 0.1875 0.41073 0.15715 0.0
C594 C 0.18507 0.4408 0.15747 0.0
C595 C 0.15804 0.449 0.14804 0.0
H596 H 0.57918 0.27083 0.98449 0.0
H597 H 0.61939 0.21574 0.91617 0.0
H598 H 0.55338 0.22643 1.01514 0.0
H599 H 0.59255 0.17132 0.9459 0.0
H600 H 0.55976 0.09756 1.02298 0.0
H601 H 0.58972 0.14306 0.99705 0.0
H602 H 0.51174 0.1849 1.00798 0.0
H603 H 0.48238 0.13991 1.03456 0.0
C604 C 0.58265 0.2493 0.97605 0.0
C605 C 0.60128 0.24699 0.94765 0.0
C606 C 0.56756 0.22374 0.99344 0.0
C607 C 0.57067 0.19514 0.98296 0.0
C608 C 0.58977 0.1929 0.95495 0.0
C609 C 0.60485 0.21843 0.93757 0.0
C610 C 0.54922 0.11663 1.02008 0.0
C611 C 0.51875 0.11519 1.03079 0.0
C612 C 0.56627 0.14264 1.005 0.0
C613 C 0.5532 0.16777 1.00033 0.0
C614 C 0.52279 0.16627 1.01153 0.0
C615 C 0.50583 0.14034 1.02656 0.0
H616 H 0.87188 0.80388 0.49119 0.0
H617 H 0.90803 0.83735 0.39441 0.0
H618 H 0.89524 0.85121 0.51636 0.0
H619 H 0.93238 0.88432 0.41978 0.0
H620 H 0.94245 0.97581 0.47018 0.0
H621 H 0.91934 0.92824 0.44506 0.0
H622 H 0.94376 0.88168 0.53039 0.0
H623 H 0.96625 0.92913 0.55575 0.0
C624 C 0.88492 0.82127 0.47525 0.0
C625 C 0.88794 0.81668 0.44068 0.0
C626 C 0.89861 0.84839 0.48978 0.0
C627 C 0.91569 0.87177 0.47016 0.0
C628 C 0.91908 0.86703 0.43566 0.0
C629 C 0.90544 0.83987 0.42114 0.0
C630 C 0.94281 0.95544 0.48364 0.0
C631 C 0.95624 0.95641 0.51502 0.0
C632 C 0.92975 0.92809 0.4691 0.0
C633 C 0.9297 0.90098 0.48559 0.0
C634 C 0.94302 0.90203 0.51707 0.0
C635 C 0.95611 0.92933 0.53156 0.0
H636 H 0.40892 0.84503 0.54328 0.0
H637 H 0.32338 0.81321 0.59741 0.0
H638 H 0.42151 0.79602 0.54855 0.0
H639 H 0.33634 0.76435 0.60317 0.0
H640 H 0.39572 0.70308 0.64945 0.0
H641 H 0.37661 0.74774 0.6363 0.0
H642 H 0.40574 0.7418 0.53323 0.0
H643 H 0.42524 0.6972 0.54652 0.0
C644 C 0.39249 0.82743 0.55564 0.0
C645 C 0.36529 0.83313 0.57025 0.0
C646 C 0.39975 0.79936 0.55871 0.0
C647 C 0.38004 0.77651 0.57658 0.0
C648 C 0.35217 0.78174 0.58975 0.0
C649 C 0.34481 0.80972 0.5865 0.0
C650 C 0.39795 0.71128 0.62399 0.0
C651 C 0.41209 0.69682 0.59905 0.0
C652 C 0.38674 0.73664 0.61637 0.0
C653 C 0.38966 0.74818 0.58372 0.0
C654 C 0.40332 0.73343 0.55862 0.0
C655 C 0.41428 0.70786 0.56618 0.0
H656 H 0.75777 0.8706 0.75027 0.0
H657 H 0.79306 0.79955 0.7951 0.0
H658 H 0.80149 0.87999 0.7107 0.0
H659 H 0.83697 0.80927 0.75589 0.0
H660 H 0.92496 0.88829 0.73124 0.0
H661 H 0.87833 0.86009 0.75748 0.0
H662 H 0.83295 0.85577 0.66358 0.0
H663 H 0.88028 0.88252 0.6364 0.0
C664 C 0.77439 0.85644 0.75091 0.0
C665 C 0.77217 0.83444 0.77567 0.0
C666 C 0.79927 0.86168 0.72825 0.0
C667 C 0.82254 0.84538 0.73047 0.0
C668 C 0.81925 0.82205 0.75374 0.0
C669 C 0.79409 0.81644 0.77599 0.0
C670 C 0.9056 0.88033 0.71568 0.0
C671 C 0.90639 0.88825 0.68172 0.0
C672 C 0.87879 0.86423 0.73084 0.0
C673 C 0.85208 0.85608 0.71254 0.0
C674 C 0.85326 0.86209 0.6782 0.0
C675 C 0.8803 0.87763 0.66282 0.0
H676 H 0.78402 0.19727 0.30706 0.0
H677 H 0.73192 0.26625 0.32051 0.0
H678 H 0.748 0.17326 0.266 0.0
H679 H 0.69648 0.24282 0.27845 0.0
H680 H 0.62011 0.17012 0.23448 0.0
H681 H 0.65687 0.19773 0.27291 0.0
H682 H 0.73122 0.17991 0.21009 0.0
H683 H 0.69462 0.15133 0.17255 0.0
C684 C 0.76497 0.20741 0.30109 0.0
C685 C 0.76081 0.23363 0.3171 0.0
C686 C 0.7445 0.19383 0.27729 0.0
C687 C 0.71937 0.20615 0.26893 0.0
C688 C 0.71545 0.23263 0.28456 0.0
C689 C 0.73597 0.24624 0.30836 0.0
C690 C 0.6443 0.1721 0.22891 0.0
C691 C 0.65439 0.15846 0.20047 0.0
C692 C 0.66537 0.18818 0.25073 0.0
C693 C 0.69698 0.1909 0.24462 0.0
C694 C 0.70704 0.17791 0.21574 0.0
C695 C 0.68602 0.16186 0.19397 0.0
H696 H 0.42967 0.62627 0.32595 0.0
H697 H 0.36587 0.66028 0.39049 0.0
H698 H 0.44869 0.60395 0.37369 0.0
H699 H 0.38483 0.63755 0.43868 0.0
H700 H 0.44825 0.61489 0.52062 0.0
H701 H 0.42814 0.63909 0.4745 0.0
H702 H 0.43299 0.56348 0.41161 0.0
H703 H 0.45349 0.53968 0.45728 0.0
C704 C 0.41946 0.62876 0.35035 0.0
C705 C 0.3959 0.64477 0.35421 0.0
C706 C 0.43037 0.61588 0.37784 0.0
C707 C 0.41806 0.61849 0.41015 0.0
C708 C 0.39501 0.63517 0.41424 0.0
C709 C 0.3841 0.6482 0.3866 0.0
C710 C 0.44481 0.60333 0.49702 0.0
C711 C 0.45263 0.57532 0.49274 0.0
C712 C 0.4332 0.61722 0.47054 0.0
C713 C 0.42914 0.60344 0.43909 0.0
C714 C 0.4364 0.57515 0.43516 0.0
C715 C 0.44804 0.56136 0.46151 0.0
H716 H 0.05231 0.41035 0.86221 0.0
H717 H 0.14301 0.45949 0.8829 0.0
H718 H 0.03107 0.43766 0.90627 0.0
H719 H 0.122 0.48639 0.92711 0.0
H720 H 0.07249 0.55095 0.98148 0.0
H721 H 0.09318 0.52344 0.9374 0.0
H722 H 0.02694 0.44394 0.96522 0.0
H723 H 0.00555 0.47199 1.00849 0.0
C724 C 0.06776 0.42686 0.87625 0.0
C725 C 0.09938 0.43282 0.8687 0.0
C726 C 0.05559 0.44249 0.90168 0.0
C727 C 0.07472 0.46441 0.92043 0.0
C728 C 0.10637 0.4702 0.9129 0.0
C729 C 0.11848 0.45471 0.88742 0.0
C730 C 0.06241 0.52757 0.97822 0.0
C731 C 0.03749 0.51364 0.99862 0.0
C732 C 0.07439 0.51167 0.95301 0.0
C733 C 0.06187 0.4813 0.94756 0.0
C734 C 0.037 0.46734 0.96824 0.0
C735 C 0.02493 0.48333 0.99338 0.0
H736 H 0.61851 0.90984 0.90105 0.0
H737 H 0.57555 0.85045 0.98004 0.0
H738 H 0.5887 0.94642 0.91881 0.0
H739 H 0.54581 0.88724 0.99793 0.0
H740 H 0.57476 1.01447 1.00381 0.0
H741 H 0.5945 0.97639 0.97273 0.0
H742 H 0.50583 0.91745 0.98093 0.0
H743 H 0.48584 0.95579 1.01188 0.0
C744 C 0.60203 0.90422 0.92158 0.0
C745 C 0.59943 0.87733 0.93927 0.0
C746 C 0.58517 0.92527 0.93189 0.0
C747 C 0.56516 0.91973 0.95986 0.0
C748 C 0.56095 0.892 0.97614 0.0
C749 C 0.57808 0.87105 0.96606 0.0
C750 C 0.55932 0.99361 0.99846 0.0
C751 C 0.52883 0.98804 1.01042 0.0
C752 C 0.57057 0.97187 0.9805 0.0
C753 C 0.55168 0.94396 0.97451 0.0
C754 C 0.52086 0.93876 0.98534 0.0
C755 C 0.50944 0.96074 1.00287 0.0
H756 H 0.86265 0.19731 0.55593 0.0
H757 H 0.90247 0.17763 0.4611 0.0
H758 H 0.87832 0.15445 0.58098 0.0
H759 H 0.91913 0.13575 0.48635 0.0
H760 H 0.91927 0.04625 0.52947 0.0
H761 H 0.89679 0.08652 0.50845 0.0
H762 H 0.92538 0.13833 0.5964 0.0
H763 H 0.94728 0.09758 0.6177 0.0
C764 C 0.87474 0.18386 0.54046 0.0
C765 C 0.88133 0.19087 0.50653 0.0
C766 C 0.88392 0.15949 0.55487 0.0
C767 C 0.89975 0.14161 0.53558 0.0
C768 C 0.9065 0.14879 0.50175 0.0
C769 C 0.89736 0.17308 0.48738 0.0
C770 C 0.92016 0.06604 0.54455 0.0
C771 C 0.93505 0.06901 0.57504 0.0
C772 C 0.90757 0.08917 0.53243 0.0
C773 C 0.90976 0.11578 0.55052 0.0
C774 C 0.9232 0.11805 0.58197 0.0
C775 C 0.93571 0.09476 0.59419 0.0
H776 H 0.23233 0.67206 0.1356 0.0
H777 H 0.21822 0.60862 0.21691 0.0
H778 H 0.18286 0.64887 0.11375 0.0
H779 H 0.16812 0.58589 0.19555 0.0
H780 H 0.09608 0.53289 0.12579 0.0
H781 H 0.14547 0.5558 0.14846 0.0
H782 H 0.12867 0.64306 0.12627 0.0
H783 H 0.07964 0.62027 0.10323 0.0
C784 C 0.21865 0.65316 0.14886 0.0
C785 C 0.22938 0.64215 0.17795 0.0
C786 C 0.19009 0.64003 0.13651 0.0
C787 C 0.17142 0.61545 0.15284 0.0
C788 C 0.18201 0.60456 0.18212 0.0
C789 C 0.21059 0.61782 0.19459 0.0
C790 C 0.10292 0.55698 0.12567 0.0
C791 C 0.0838 0.57469 0.11255 0.0
C792 C 0.13119 0.57012 0.13891 0.0
C793 C 0.14112 0.60132 0.13924 0.0
C794 C 0.12199 0.61897 0.12607 0.0
C795 C 0.09373 0.60587 0.11294 0.0
H796 H 0.3095 0.41822 0.72909 0.0
H797 H 0.25238 0.44618 0.65555 0.0
H798 H 0.35492 0.44226 0.6971 0.0
H799 H 0.29802 0.47025 0.62337 0.0
H800 H 0.38635 0.47763 0.55729 0.0
H801 H 0.3395 0.4577 0.58966 0.0
H802 H 0.38476 0.49036 0.68021 0.0
H803 H 0.4318 0.5097 0.64776 0.0
C804 C 0.30658 0.42985 0.70631 0.0
C805 C 0.27714 0.43029 0.69505 0.0
C806 C 0.33272 0.44369 0.68792 0.0
C807 C 0.33025 0.45835 0.65765 0.0
C808 C 0.30083 0.45888 0.64636 0.0
C809 C 0.27462 0.44503 0.66482 0.0
C810 C 0.38619 0.48073 0.58409 0.0
C811 C 0.41278 0.49508 0.60001 0.0
C812 C 0.35927 0.46945 0.60266 0.0
C813 C 0.3583 0.47222 0.63764 0.0
C814 C 0.38477 0.48737 0.6534 0.0
C815 C 0.41168 0.49868 0.6348 0.0
H816 H 0.75328 0.7346 1.01497 0.0
H817 H 0.74582 0.69171 0.91893 0.0
H818 H 0.78497 0.7008 1.03374 0.0
H819 H 0.7762 0.65669 0.93793 0.0
H820 H 0.87277 0.64282 0.96126 0.0
H821 H 0.82898 0.66307 0.94599 0.0
H822 H 0.79452 0.65367 1.04823 0.0
H823 H 0.83918 0.63418 0.06357 0.0
C824 C 0.75738 0.71701 0.99844 0.0
C825 C 0.74732 0.71565 0.96559 0.0
C826 C 0.77553 0.69758 1.00911 0.0
C827 C 0.78368 0.67629 0.98714 0.0
C828 C 0.77109 0.6733 0.95523 0.0
C829 C 0.75338 0.69303 0.94444 0.0
C830 C 0.85553 0.64452 0.98032 0.0
C831 C 0.85949 0.63715 1.01362 0.0
C832 C 0.83024 0.65601 0.97158 0.0
C833 C 0.80809 0.66012 0.99589 0.0
C834 C 0.81134 0.65131 1.02896 0.0
C835 C 0.83687 0.64009 1.03776 0.0
H836 H 0.40616 0.84953 0.2402 0.0
H837 H 0.3931 0.81583 0.13993 0.0
H838 H 0.42944 0.89913 0.21763 0.0
H839 H 0.41691 0.86503 0.11754 0.0
H840 H 0.50358 0.94392 0.10246 0.0
H841 H 0.47488 0.89611 0.12403 0.0
H842 H 0.41212 0.94125 0.17657 0.0
H843 H 0.44043 0.98931 0.15399 0.0
C844 C 0.40812 0.85279 0.2134 0.0
C845 C 0.39773 0.82886 0.19182 0.0
C846 C 0.42125 0.88113 0.20052 0.0
C847 C 0.42492 0.88586 0.16586 0.0
C848 C 0.41434 0.86198 0.14434 0.0
C849 C 0.40062 0.8339 0.15717 0.0
C850 C 0.48352 0.94362 0.11842 0.0
C851 C 0.47423 0.97027 0.12662 0.0
C852 C 0.46708 0.91628 0.13067 0.0
C853 C 0.44137 0.91502 0.15204 0.0
C854 C 0.43196 0.94166 0.16025 0.0
C855 C 0.44801 0.96905 0.14724 0.0
H856 H 0.15045 0.23693 0.68807 0.0
H857 H 0.06195 0.26108 0.69435 0.0
H858 H 0.12845 0.19202 0.65773 0.0
H859 H 0.04018 0.21632 0.66292 0.0
H860 H 0.02075 0.14549 0.57819 0.0
H861 H 0.04271 0.19215 0.60624 0.0
H862 H 0.09166 0.14435 0.67085 0.0
H863 H 0.06976 0.09782 0.643 0.0
C864 C 0.12625 0.23269 0.6832 0.0
C865 C 0.10798 0.25265 0.69431 0.0
C866 C 0.11366 0.20689 0.66561 0.0
C867 C 0.08248 0.20038 0.65813 0.0
C868 C 0.06433 0.22075 0.66811 0.0
C869 C 0.07688 0.24649 0.68609 0.0
C870 C 0.03631 0.14495 0.59829 0.0
C871 C 0.04354 0.11784 0.60825 0.0
C872 C 0.04872 0.17168 0.61451 0.0
C873 C 0.069 0.17203 0.64077 0.0
C874 C 0.07638 0.14496 0.6505 0.0
C875 C 0.0637 0.11822 0.6346 0.0
H876 H 0.76265 0.38507 0.50229 0.0
H877 H 0.70896 0.29772 0.52677 0.0
H878 H 0.72001 0.40743 0.52016 0.0
H879 H 0.66599 0.32022 0.54398 0.0
H880 H 0.64104 0.44099 0.56802 0.0
H881 H 0.68429 0.41592 0.56752 0.0
H882 H 0.63346 0.34523 0.50788 0.0
H883 H 0.59071 0.37045 0.50751 0.0
C884 C 0.74208 0.37069 0.51235 0.0
C885 C 0.73907 0.33956 0.51265 0.0
C886 C 0.71762 0.38353 0.52256 0.0
C887 C 0.68962 0.36551 0.53311 0.0
C888 C 0.68721 0.33457 0.53548 0.0
C889 C 0.71176 0.32172 0.52551 0.0
C890 C 0.63906 0.42004 0.55489 0.0
C891 C 0.61251 0.40791 0.53749 0.0
C892 C 0.66375 0.40565 0.5548 0.0
C893 C 0.66221 0.37869 0.53764 0.0
C894 C 0.63512 0.36578 0.52174 0.0
C895 C 0.61058 0.38027 0.52156 0.0
loop_
_geom_bond_atom_site_label_1
_geom_bond_atom_site_label_2
_geom_bond_distance
_geom_bond_site_symmetry_2
_ccdc_geom_bond_type
P0 O11 1.490 . S
P0 C14 1.812 . S
P0 C20 1.803 . S
P0 C26 1.819 . S
H1 C15 0.941 . S
H2 C16 0.939 . S
H3 C18 0.940 . S
H4 C19 0.940 . S
H5 C21 0.939 . S
H6 C22 0.942 . S
H7 C24 0.940 . S
H8 C25 0.939 . S
H9 C27 0.941 . S
H10 C31 0.939 . S
O11 P0 1.490 . S
H12 C28 0.939 . S
H13 C30 0.940 . S
C14 P0 1.812 . S
C14 C15 1.389 . S
C14 C19 1.391 . S
C15 H1 0.941 . S
C15 C14 1.389 . S
C15 C16 1.397 . S
C16 H2 0.939 . S
C16 C15 1.397 . S
C16 C17 1.378 . S
C17 C16 1.378 . S
C17 C18 1.378 . S
C18 H3 0.940 . S
C18 C17 1.378 . S
C18 C19 1.396 . S
C19 H4 0.940 . S
C19 C14 1.391 . S
C19 C18 1.396 . S
C20 P0 1.803 . S
C20 C21 1.378 . S
C20 C25 1.400 . S
C21 H5 0.939 . S
C21 C20 1.378 . S
C21 C22 1.361 . S
C22 H6 0.942 . S
C22 C21 1.361 . S
C22 C23 1.369 . S
C23 C22 1.369 . S
C23 C24 1.404 . S
C24 H7 0.940 . S
C24 C23 1.404 . S
C24 C25 1.389 . S
C25 H8 0.939 . S
C25 C20 1.400 . S
C25 C24 1.389 . S
C26 P0 1.819 . S
C26 C27 1.391 . S
C26 C31 1.391 . S
C27 H9 0.941 . S
C27 C26 1.391 . S
C27 C28 1.396 . S
C28 H12 0.939 . S
C28 C27 1.396 . S
C28 C29 1.397 . S
C29 C28 1.397 . S
C29 C30 1.385 . S
C30 H13 0.940 . S
C30 C29 1.385 . S
C30 C31 1.388 . S
C31 H10 0.939 . S
C31 C26 1.391 . S
C31 C30 1.388 . S
P32 O43 1.490 . S
P32 C46 1.812 . S
P32 C52 1.803 . S
P32 C58 1.819 . S
H33 C47 0.941 . S
H34 C48 0.939 . S
H35 C50 0.940 . S
H36 C51 0.940 . S
H37 C53 0.939 . S
H38 C54 0.942 . S
H39 C56 0.940 . S
H40 C57 0.939 . S
H41 C59 0.941 . S
H42 C63 0.939 . S
O43 P32 1.490 . S
H44 C60 0.939 . S
H45 C62 0.940 . S
C46 P32 1.812 . S
C46 C47 1.389 . S
C46 C51 1.391 . S
C47 H33 0.941 . S
C47 C46 1.389 . S
C47 C48 1.397 . S
C48 H34 0.939 . S
C48 C47 1.397 . S
C48 C49 1.378 . S
C49 C48 1.378 . S
C49 C50 1.378 . S
C50 H35 0.940 . S
C50 C49 1.378 . S
C50 C51 1.396 . S
C51 H36 0.940 . S
C51 C46 1.391 . S
C51 C50 1.396 . S
C52 P32 1.803 . S
C52 C53 1.378 . S
C52 C57 1.400 . S
C53 H37 0.939 . S
C53 C52 1.378 . S
C53 C54 1.361 . S
C54 H38 0.942 . S
C54 C53 1.361 . S
C54 C55 1.369 . S
C55 C54 1.369 . S
C55 C56 1.404 . S
C56 H39 0.940 . S
C56 C55 1.404 . S
C56 C57 1.389 . S
C57 H40 0.939 . S
C57 C52 1.400 . S
C57 C56 1.389 . S
C58 P32 1.819 . S
C58 C59 1.391 . S
C58 C63 1.391 . S
C59 H41 0.941 . S
C59 C58 1.391 . S
C59 C60 1.396 . S
C60 H44 0.939 . S
C60 C59 1.396 . S
C60 C61 1.397 . S
C61 C60 1.397 . S
C61 C62 1.385 . S
C62 H45 0.940 . S
C62 C61 1.385 . S
C62 C63 1.388 . S
C63 H42 0.939 . S
C63 C58 1.391 . S
C63 C62 1.388 . S
P64 O75 1.490 . S
P64 C78 1.812 . S
P64 C84 1.803 . S
P64 C90 1.819 . S
H65 C79 0.941 . S
H66 C80 0.939 . S
H67 C82 0.940 . S
H68 C83 0.940 . S
H69 C85 0.939 . S
H70 C86 0.942 . S
H71 C88 0.940 . S
H72 C89 0.939 . S
H73 C91 0.941 . S
H74 C95 0.939 . S
O75 P64 1.490 . S
H76 C92 0.939 . S
H77 C94 0.940 . S
C78 P64 1.812 . S
C78 C79 1.389 . S
C78 C83 1.391 . S
C79 H65 0.941 . S
C79 C78 1.389 . S
C79 C80 1.397 . S
C80 H66 0.939 . S
C80 C79 1.397 . S
C80 C81 1.378 . S
C81 C80 1.378 . S
C81 C82 1.378 . S
C82 H67 0.940 . S
C82 C81 1.378 . S
C82 C83 1.396 . S
C83 H68 0.940 . S
C83 C78 1.391 . S
C83 C82 1.396 . S
C84 P64 1.803 . S
C84 C85 1.378 . S
C84 C89 1.400 . S
C85 H69 0.939 . S
C85 C84 1.378 . S
C85 C86 1.361 . S
C86 H70 0.942 . S
C86 C85 1.361 . S
C86 C87 1.369 . S
C87 C86 1.369 . S
C87 C88 1.404 . S
C88 H71 0.940 . S
C88 C87 1.404 . S
C88 C89 1.389 . S
C89 H72 0.939 . S
C89 C84 1.400 . S
C89 C88 1.389 . S
C90 P64 1.819 . S
C90 C91 1.391 . S
C90 C95 1.391 . S
C91 H73 0.941 . S
C91 C90 1.391 . S
C91 C92 1.396 . S
C92 H76 0.939 . S
C92 C91 1.396 . S
C92 C93 1.397 . S
C93 C92 1.397 . S
C93 C94 1.385 . S
C94 H77 0.940 . S
C94 C93 1.385 . S
C94 C95 1.388 . S
C95 H74 0.939 . S
C95 C90 1.391 . S
C95 C94 1.388 . S
P96 O107 1.490 . S
P96 C110 1.812 . S
P96 C116 1.803 . S
P96 C122 1.819 . S
H97 C111 0.941 . S
H98 C112 0.939 . S
H99 C114 0.940 . S
H100 C115 0.940 . S
H101 C117 0.939 . S
H102 C118 0.942 . S
H103 C120 0.940 . S
H104 C121 0.939 . S
H105 C123 0.941 . S
H106 C127 0.939 . S
O107 P96 1.490 . S
H108 C124 0.939 . S
H109 C126 0.940 . S
C110 P96 1.812 . S
C110 C111 1.389 . S
C110 C115 1.391 . S
C111 H97 0.941 . S
C111 C110 1.389 . S
C111 C112 1.397 . S
C112 H98 0.939 . S
C112 C111 1.397 . S
C112 C113 1.378 . S
C113 C112 1.378 . S
C113 C114 1.378 . S
C114 H99 0.940 . S
C114 C113 1.378 . S
C114 C115 1.396 . S
C115 H100 0.940 . S
C115 C110 1.391 . S
C115 C114 1.396 . S
C116 P96 1.803 . S
C116 C117 1.378 . S
C116 C121 1.400 . S
C117 H101 0.939 . S
C117 C116 1.378 . S
C117 C118 1.361 . S
C118 H102 0.942 . S
C118 C117 1.361 . S
C118 C119 1.369 . S
C119 C118 1.369 . S
C119 C120 1.404 . S
C120 H103 0.940 . S
C120 C119 1.404 . S
C120 C121 1.389 . S
C121 H104 0.939 . S
C121 C116 1.400 . S
C121 C120 1.389 . S
C122 P96 1.819 . S
C122 C123 1.391 . S
C122 C127 1.391 . S
C123 H105 0.941 . S
C123 C122 1.391 . S
C123 C124 1.396 . S
C124 H108 0.939 . S
C124 C123 1.396 . S
C124 C125 1.397 . S
C125 C124 1.397 . S
C125 C126 1.385 . S
C126 H109 0.940 . S
C126 C125 1.385 . S
C126 C127 1.388 . S
C127 H106 0.939 . S
C127 C122 1.391 . S
C127 C126 1.388 . S
P128 O139 1.490 . S
P128 C142 1.812 . S
P128 C148 1.803 . S
P128 C154 1.819 . S
H129 C143 0.941 . S
H130 C144 0.939 . S
H131 C146 0.940 . S
H132 C147 0.940 . S
H133 C149 0.939 . S
H134 C150 0.942 . S
H135 C152 0.940 . S
H136 C153 0.939 . S
H137 C155 0.941 . S
H138 C159 0.939 . S
O139 P128 1.490 . S
H140 C156 0.939 . S
H141 C158 0.940 . S
C142 P128 1.812 . S
C142 C143 1.389 . S
C142 C147 1.391 . S
C143 H129 0.941 . S
C143 C142 1.389 . S
C143 C144 1.397 . S
C144 H130 0.939 . S
C144 C143 1.397 . S
C144 C145 1.378 . S
C145 C144 1.378 . S
C145 C146 1.378 . S
C146 H131 0.940 . S
C146 C145 1.378 . S
C146 C147 1.396 . S
C147 H132 0.940 . S
C147 C142 1.391 . S
C147 C146 1.396 . S
C148 P128 1.803 . S
C148 C149 1.378 . S
C148 C153 1.400 . S
C149 H133 0.939 . S
C149 C148 1.378 . S
C149 C150 1.361 . S
C150 H134 0.942 . S
C150 C149 1.361 . S
C150 C151 1.369 . S
C151 C150 1.369 . S
C151 C152 1.404 . S
C152 H135 0.940 . S
C152 C151 1.404 . S
C152 C153 1.389 . S
C153 H136 0.939 . S
C153 C148 1.400 . S
C153 C152 1.389 . S
C154 P128 1.819 . S
C154 C155 1.391 . S
C154 C159 1.391 . S
C155 H137 0.941 . S
C155 C154 1.391 . S
C155 C156 1.396 . S
C156 H140 0.939 . S
C156 C155 1.396 . S
C156 C157 1.397 . S
C157 C156 1.397 . S
C157 C158 1.385 . S
C158 H141 0.940 . S
C158 C157 1.385 . S
C158 C159 1.388 . S
C159 H138 0.939 . S
C159 C154 1.391 . S
C159 C158 1.388 . S
P160 O171 1.490 . S
P160 C174 1.812 . S
P160 C180 1.803 . S
P160 C186 1.819 . S
H161 C175 0.941 . S
H162 C176 0.939 . S
H163 C178 0.940 . S
H164 C179 0.940 . S
H165 C181 0.939 . S
H166 C182 0.942 . S
H167 C184 0.940 . S
H168 C185 0.939 . S
H169 C187 0.941 . S
H170 C191 0.939 . S
O171 P160 1.490 . S
H172 C188 0.939 . S
H173 C190 0.940 . S
C174 P160 1.812 . S
C174 C175 1.389 . S
C174 C179 1.391 . S
C175 H161 0.941 . S
C175 C174 1.389 . S
C175 C176 1.397 . S
C176 H162 0.939 . S
C176 C175 1.397 . S
C176 C177 1.378 . S
C177 C176 1.378 . S
C177 C178 1.378 . S
C178 H163 0.940 . S
C178 C177 1.378 . S
C178 C179 1.396 . S
C179 H164 0.940 . S
C179 C174 1.391 . S
C179 C178 1.396 . S
C180 P160 1.803 . S
C180 C181 1.378 . S
C180 C185 1.400 . S
C181 H165 0.939 . S
C181 C180 1.378 . S
C181 C182 1.361 . S
C182 H166 0.942 . S
C182 C181 1.361 . S
C182 C183 1.369 . S
C183 C182 1.369 . S
C183 C184 1.404 . S
C184 H167 0.940 . S
C184 C183 1.404 . S
C184 C185 1.389 . S
C185 H168 0.939 . S
C185 C180 1.400 . S
C185 C184 1.389 . S
C186 P160 1.819 . S
C186 C187 1.391 . S
C186 C191 1.391 . S
C187 H169 0.941 . S
C187 C186 1.391 . S
C187 C188 1.396 . S
C188 H172 0.939 . S
C188 C187 1.396 . S
C188 C189 1.397 . S
C189 C188 1.397 . S
C189 C190 1.385 . S
C190 H173 0.940 . S
C190 C189 1.385 . S
C190 C191 1.388 . S
C191 H170 0.939 . S
C191 C186 1.391 . S
C191 C190 1.388 . S
P192 O203 1.490 . S
P192 C206 1.812 . S
P192 C212 1.803 . S
P192 C218 1.819 . S
H193 C207 0.941 . S
H194 C208 0.939 . S
H195 C210 0.940 . S
H196 C211 0.940 . S
H197 C213 0.939 . S
H198 C214 0.942 . S
H199 C216 0.940 . S
H200 C217 0.939 . S
H201 C219 0.941 . S
H202 C223 0.939 . S
O203 P192 1.490 . S
H204 C220 0.939 . S
H205 C222 0.940 . S
C206 P192 1.812 . S
C206 C207 1.389 . S
C206 C211 1.391 . S
C207 H193 0.941 . S
C207 C206 1.389 . S
C207 C208 1.397 . S
C208 H194 0.939 . S
C208 C207 1.397 . S
C208 C209 1.378 . S
C209 C208 1.378 . S
C209 C210 1.378 . S
C210 H195 0.940 . S
C210 C209 1.378 . S
C210 C211 1.396 . S
C211 H196 0.940 . S
C211 C206 1.391 . S
C211 C210 1.396 . S
C212 P192 1.803 . S
C212 C213 1.378 . S
C212 C217 1.400 . S
C213 H197 0.939 . S
C213 C212 1.378 . S
C213 C214 1.361 . S
C214 H198 0.942 . S
C214 C213 1.361 . S
C214 C215 1.369 . S
C215 C214 1.369 . S
C215 C216 1.404 . S
C216 H199 0.940 . S
C216 C215 1.404 . S
C216 C217 1.389 . S
C217 H200 0.939 . S
C217 C212 1.400 . S
C217 C216 1.389 . S
C218 P192 1.819 . S
C218 C219 1.391 . S
C218 C223 1.391 . S
C219 H201 0.941 . S
C219 C218 1.391 . S
C219 C220 1.396 . S
C220 H204 0.939 . S
C220 C219 1.396 . S
C220 C221 1.397 . S
C221 C220 1.397 . S
C221 C222 1.385 . S
C222 H205 0.940 . S
C222 C221 1.385 . S
C222 C223 1.388 . S
C223 H202 0.939 . S
C223 C218 1.391 . S
C223 C222 1.388 . S
P224 O235 1.490 . S
P224 C238 1.812 . S
P224 C244 1.803 . S
P224 C250 1.819 . S
H225 C239 0.941 . S
H226 C240 0.939 . S
H227 C242 0.940 . S
H228 C243 0.940 . S
H229 C245 0.939 . S
H230 C246 0.942 . S
H231 C248 0.940 . S
H232 C249 0.939 . S
H233 C251 0.941 . S
H234 C255 0.939 . S
O235 P224 1.490 . S
H236 C252 0.939 . S
H237 C254 0.940 . S
C238 P224 1.812 . S
C238 C239 1.389 . S
C238 C243 1.391 . S
C239 H225 0.941 . S
C239 C238 1.389 . S
C239 C240 1.397 . S
C240 H226 0.939 . S
C240 C239 1.397 . S
C240 C241 1.378 . S
C241 C240 1.378 . S
C241 C242 1.378 . S
C242 H227 0.940 . S
C242 C241 1.378 . S
C242 C243 1.396 . S
C243 H228 0.940 . S
C243 C238 1.391 . S
C243 C242 1.396 . S
C244 P224 1.803 . S
C244 C245 1.378 . S
C244 C249 1.400 . S
C245 H229 0.939 . S
C245 C244 1.378 . S
C245 C246 1.361 . S
C246 H230 0.942 . S
C246 C245 1.361 . S
C246 C247 1.369 . S
C247 C246 1.369 . S
C247 C248 1.404 . S
C248 H231 0.940 . S
C248 C247 1.404 . S
C248 C249 1.389 . S
C249 H232 0.939 . S
C249 C244 1.400 . S
C249 C248 1.389 . S
C250 P224 1.819 . S
C250 C251 1.391 . S
C250 C255 1.391 . S
C251 H233 0.941 . S
C251 C250 1.391 . S
C251 C252 1.396 . S
C252 H236 0.939 . S
C252 C251 1.396 . S
C252 C253 1.397 . S
C253 C252 1.397 . S
C253 C254 1.385 . S
C254 H237 0.940 . S
C254 C253 1.385 . S
C254 C255 1.388 . S
C255 H234 0.939 . S
C255 C250 1.391 . S
C255 C254 1.388 . S
La256 C258 2.928 . S
La256 O276 2.521 . S
La256 O277 2.628 . S
La256 O278 2.554 1_545 S
La256 O279 2.757 1_545 S
La256 O280 2.470 . S
La256 O285 2.482 1_455 S
La256 O287 2.503 1_445 S
La257 C267 2.928 . S
La257 O279 2.482 1_655 S
La257 O281 2.503 1_665 S
La257 O282 2.521 . S
La257 O283 2.628 . S
La257 O284 2.554 1_565 S
La257 O285 2.757 1_565 S
La257 O286 2.470 . S
C258 La256 2.928 . S
C258 C259 1.503 . S
C258 O276 1.261 . S
C258 O277 1.243 . S
C259 C258 1.503 . S
C259 C260 1.394 . S
C259 C264 1.373 . S
C260 C259 1.394 . S
C260 C261 1.380 . S
C260 H288 0.930 . S
C261 C260 1.380 . S
C261 C262 1.376 . S
C261 H289 0.930 . S
C262 C261 1.376 . S
C262 C263 1.370 . S
C263 C262 1.370 . S
C263 C264 1.396 . S
C263 H290 0.929 . S
C264 C259 1.373 . S
C264 C263 1.396 . S
C264 H291 0.929 . S
C265 O278 1.240 . S
C265 O279 1.289 . S
C266 O280 1.258 . S
C266 O281 1.256 . S
C267 La257 2.928 . S
C267 C268 1.503 . S
C267 O282 1.261 . S
C267 O283 1.243 . S
C268 C267 1.503 . S
C268 C269 1.394 . S
C268 C273 1.373 . S
C269 C268 1.394 . S
C269 C270 1.380 . S
C269 H292 0.930 . S
C270 C269 1.380 . S
C270 C271 1.376 . S
C270 H293 0.930 . S
C271 C270 1.376 . S
C271 C272 1.370 . S
C272 C271 1.370 . S
C272 C273 1.396 . S
C272 H294 0.929 . S
C273 C268 1.373 . S
C273 C272 1.396 . S
C273 H295 0.929 . S
C274 O284 1.240 . S
C274 O285 1.289 . S
C275 O286 1.258 . S
C275 O287 1.256 . S
O276 La256 2.521 . S
O276 C258 1.261 . S
O277 La256 2.628 . S
O277 C258 1.243 . S
O278 La256 2.554 1_565 S
O278 C265 1.240 . S
O279 La256 2.757 1_565 S
O279 La257 2.482 1_455 S
O279 C265 1.289 . S
O280 La256 2.470 . S
O280 C266 1.258 . S
O281 La257 2.503 1_445 S
O281 C266 1.256 . S
O282 La257 2.521 . S
O282 C267 1.261 . S
O283 La257 2.628 . S
O283 C267 1.243 . S
O284 La257 2.554 1_545 S
O284 C274 1.240 . S
O285 La256 2.482 1_655 S
O285 La257 2.757 1_545 S
O285 C274 1.289 . S
O286 La257 2.470 . S
O286 C275 1.258 . S
O287 La256 2.503 1_665 S
O287 C275 1.256 . S
H288 C260 0.930 . S
H289 C261 0.930 . S
H290 C263 0.929 . S
H291 C264 0.929 . S
H292 C269 0.930 . S
H293 C270 0.930 . S
H294 C272 0.929 . S
H295 C273 0.929 . S
La296 C298 2.928 . S
La296 O316 2.521 . S
La296 O317 2.628 . S
La296 O318 2.554 1_545 S
La296 O319 2.757 1_545 S
La296 O320 2.470 . S
La296 O325 2.458 1_554 S
La296 O327 2.503 1_544 S
La297 C307 2.928 1_545 S
La297 O319 2.482 1_546 S
La297 O321 2.503 1_556 S
La297 O322 2.519 1_545 S
La297 O323 2.628 1_545 S
La297 O324 2.554 . S
La297 O325 2.769 . S
La297 O326 2.470 1_545 S
C298 La296 2.928 . S
C298 C299 1.503 . S
C298 O316 1.261 . S
C298 O317 1.243 . S
C299 C298 1.503 . S
C299 C300 1.394 . S
C299 C304 1.373 . S
C300 C299 1.394 . S
C300 C301 1.380 . S
C300 H328 0.930 . S
C301 C300 1.380 . S
C301 C302 1.376 . S
C301 H329 0.930 . S
C302 C301 1.376 . S
C302 C303 1.370 . S
C303 C302 1.370 . S
C303 C304 1.396 . S
C303 H330 0.929 . S
C304 C299 1.373 . S
C304 C303 1.396 . S
C304 H331 0.929 . S
C305 O318 1.240 . S
C305 O319 1.289 . S
C306 O320 1.258 . S
C306 O321 1.256 . S
C307 La297 2.928 1_565 S
C307 C308 1.503 . S
C307 O322 1.290 . S
C307 O323 1.243 . S
C308 C307 1.503 . S
C308 C309 1.394 . S
C308 C313 1.373 . S
C309 C308 1.394 . S
C309 C310 1.380 . S
C309 H332 0.930 . S
C310 C309 1.380 . S
C310 C311 1.376 . S
C310 H333 0.930 . S
C311 C310 1.376 . S
C311 C312 1.370 . S
C312 C311 1.370 . S
C312 C313 1.396 . S
C312 H334 0.929 . S
C313 C308 1.373 . S
C313 C312 1.396 . S
C313 H335 0.929 . S
C314 O324 1.240 . S
C314 O325 1.318 . S
C315 O326 1.258 . S
C315 O327 1.256 . S
O316 La296 2.521 . S
O316 C298 1.261 . S
O317 La296 2.628 . S
O317 C298 1.243 . S
O318 La296 2.554 1_565 S
O318 C305 1.240 . S
O319 La296 2.757 1_565 S
O319 La297 2.482 1_564 S
O319 C305 1.289 . S
O320 La296 2.470 . S
O320 C306 1.258 . S
O321 La297 2.503 1_554 S
O321 C306 1.256 . S
O322 La297 2.519 1_565 S
O322 C307 1.290 . S
O323 La297 2.628 1_565 S
O323 C307 1.243 . S
O324 La297 2.554 . S
O324 C314 1.240 . S
O325 La296 2.458 1_556 S
O325 La297 2.769 . S
O325 C314 1.318 . S
O326 La297 2.470 1_565 S
O326 C315 1.258 . S
O327 La296 2.503 1_566 S
O327 C315 1.256 . S
H328 C300 0.930 . S
H329 C301 0.930 . S
H330 C303 0.929 . S
H331 C304 0.929 . S
H332 C309 0.930 . S
H333 C310 0.930 . S
H334 C312 0.929 . S
H335 C313 0.929 . S
La336 C338 2.928 . S
La336 O356 2.521 . S
La336 O357 2.628 . S
La336 O358 2.554 . S
La336 O359 2.757 . S
La336 O360 2.470 . S
La336 O365 2.482 . S
La336 O367 2.503 . S
La337 C347 2.928 . S
La337 O359 2.482 . S
La337 O361 2.503 . S
La337 O362 2.521 . S
La337 O363 2.628 . S
La337 O364 2.554 . S
La337 O365 2.757 . S
La337 O366 2.470 . S
C338 La336 2.928 . S
C338 C339 1.503 . S
C338 O356 1.261 . S
C338 O357 1.243 . S
C339 C338 1.503 . S
C339 C340 1.394 . S
C339 C344 1.373 . S
C340 C339 1.394 . S
C340 C341 1.380 . S
C340 H368 0.930 . S
C341 C340 1.380 . S
C341 C342 1.376 . S
C341 H369 0.930 . S
C342 C341 1.376 . S
C342 C343 1.370 . S
C343 C342 1.370 . S
C343 C344 1.396 . S
C343 H370 0.929 . S
C344 C339 1.373 . S
C344 C343 1.396 . S
C344 H371 0.929 . S
C345 O358 1.240 . S
C345 O359 1.289 . S
C346 O360 1.258 . S
C346 O361 1.256 . S
C347 La337 2.928 . S
C347 C348 1.503 . S
C347 O362 1.261 . S
C347 O363 1.243 . S
C348 C347 1.503 . S
C348 C349 1.394 . S
C348 C353 1.373 . S
C349 C348 1.394 . S
C349 C350 1.380 . S
C349 H372 0.930 . S
C350 C349 1.380 . S
C350 C351 1.376 . S
C350 H373 0.930 . S
C351 C350 1.376 . S
C351 C352 1.370 . S
C352 C351 1.370 . S
C352 C353 1.396 . S
C352 H374 0.929 . S
C353 C348 1.373 . S
C353 C352 1.396 . S
C353 H375 0.929 . S
C354 O364 1.240 . S
C354 O365 1.289 . S
C355 O366 1.258 . S
C355 O367 1.256 . S
O356 La336 2.521 . S
O356 C338 1.261 . S
O357 La336 2.628 . S
O357 C338 1.243 . S
O358 La336 2.554 . S
O358 C345 1.240 . S
O359 La336 2.757 . S
O359 La337 2.482 . S
O359 C345 1.289 . S
O360 La336 2.470 . S
O360 C346 1.258 . S
O361 La337 2.503 . S
O361 C346 1.256 . S
O362 La337 2.521 . S
O362 C347 1.261 . S
O363 La337 2.628 . S
O363 C347 1.243 . S
O364 La337 2.554 . S
O364 C354 1.240 . S
O365 La336 2.482 . S
O365 La337 2.757 . S
O365 C354 1.289 . S
O366 La337 2.470 . S
O366 C355 1.258 . S
O367 La336 2.503 . S
O367 C355 1.256 . S
H368 C340 0.930 . S
H369 C341 0.930 . S
H370 C343 0.929 . S
H371 C344 0.929 . S
H372 C349 0.930 . S
H373 C350 0.930 . S
H374 C352 0.929 . S
H375 C353 0.929 . S
La376 C378 2.928 . S
La376 O396 2.521 . S
La376 O397 2.628 . S
La376 O398 2.554 1_455 S
La376 O399 2.757 1_455 S
La376 O400 2.470 . S
La376 O405 2.482 1_554 S
La376 O407 2.503 1_454 S
La377 C387 2.928 . S
La377 O399 2.482 1_556 S
La377 O401 2.503 1_656 S
La377 O402 2.521 . S
La377 O403 2.628 . S
La377 O404 2.554 1_655 S
La377 O405 2.757 1_655 S
La377 O406 2.470 . S
C378 La376 2.928 . S
C378 C379 1.503 . S
C378 O396 1.261 . S
C378 O397 1.243 . S
C379 C378 1.503 . S
C379 C380 1.394 . S
C379 C384 1.373 . S
C380 C379 1.394 . S
C380 C381 1.380 . S
C380 H408 0.930 . S
C381 C380 1.380 . S
C381 C382 1.376 . S
C381 H409 0.930 . S
C382 C381 1.376 . S
C382 C383 1.370 . S
C383 C382 1.370 . S
C383 C384 1.396 . S
C383 H410 0.929 . S
C384 C379 1.373 . S
C384 C383 1.396 . S
C384 H411 0.929 . S
C385 O398 1.240 . S
C385 O399 1.289 . S
C386 O400 1.258 . S
C386 O401 1.256 . S
C387 La377 2.928 . S
C387 C388 1.503 . S
C387 O402 1.261 . S
C387 O403 1.243 . S
C388 C387 1.503 . S
C388 C389 1.394 . S
C388 C393 1.373 . S
C389 C388 1.394 . S
C389 C390 1.380 . S
C389 H412 0.930 . S
C390 C389 1.380 . S
C390 C391 1.376 . S
C390 H413 0.930 . S
C391 C390 1.376 . S
C391 C392 1.370 . S
C392 C391 1.370 . S
C392 C393 1.396 . S
C392 H414 0.929 . S
C393 C388 1.373 . S
C393 C392 1.396 . S
C393 H415 0.929 . S
C394 O404 1.240 . S
C394 O405 1.289 . S
C395 O406 1.258 . S
C395 O407 1.256 . S
O396 La376 2.521 . S
O396 C378 1.261 . S
O397 La376 2.628 . S
O397 C378 1.243 . S
O398 La376 2.554 1_655 S
O398 C385 1.240 . S
O399 La376 2.757 1_655 S
O399 La377 2.482 1_554 S
O399 C385 1.289 . S
O400 La376 2.470 . S
O400 C386 1.258 . S
O401 La377 2.503 1_454 S
O401 C386 1.256 . S
O402 La377 2.521 . S
O402 C387 1.261 . S
O403 La377 2.628 . S
O403 C387 1.243 . S
O404 La377 2.554 1_455 S
O404 C394 1.240 . S
O405 La376 2.482 1_556 S
O405 La377 2.757 1_455 S
O405 C394 1.289 . S
O406 La377 2.470 . S
O406 C395 1.258 . S
O407 La376 2.503 1_656 S
O407 C395 1.256 . S
H408 C380 0.930 . S
H409 C381 0.930 . S
H410 C383 0.929 . S
H411 C384 0.929 . S
H412 C389 0.930 . S
H413 C390 0.930 . S
H414 C392 0.929 . S
H415 C393 0.929 . S
H416 C424 0.950 . S
H417 C429 0.950 . S
H418 C426 0.950 . S
H419 C428 0.950 . S
H420 C430 0.950 . S
H421 C432 0.950 . S
H422 C434 0.950 . S
H423 C435 0.950 . S
C424 H416 0.950 . S
C424 C425 1.386 . S
C424 C426 1.391 . S
C425 C424 1.386 . S
C425 C429 1.393 . S
C426 H418 0.950 . S
C426 C424 1.391 . S
C426 C427 1.400 . S
C427 C426 1.400 . S
C427 C428 1.398 . S
C427 C433 1.491 . S
C428 H419 0.950 . S
C428 C427 1.398 . S
C428 C429 1.391 . S
C429 H417 0.950 . S
C429 C425 1.393 . S
C429 C428 1.391 . S
C430 H420 0.950 . S
C430 C431 1.386 . S
C430 C432 1.391 . S
C431 C430 1.386 . S
C431 C435 1.393 . S
C432 H421 0.950 . S
C432 C430 1.391 . S
C432 C433 1.400 . S
C433 C427 1.491 . S
C433 C432 1.400 . S
C433 C434 1.398 . S
C434 H422 0.950 . S
C434 C433 1.398 . S
C434 C435 1.391 . S
C435 H423 0.950 . S
C435 C431 1.393 . S
C435 C434 1.391 . S
H436 C444 0.950 . S
H437 C449 0.950 . S
H438 C446 0.950 . S
H439 C448 0.950 . S
H440 C450 0.950 . S
H441 C452 0.950 . S
H442 C454 0.950 . S
H443 C455 0.950 . S
C444 H436 0.950 . S
C444 C445 1.386 . S
C444 C446 1.391 . S
C445 C444 1.386 . S
C445 C449 1.393 . S
C446 H438 0.950 . S
C446 C444 1.391 . S
C446 C447 1.400 . S
C447 C446 1.400 . S
C447 C448 1.398 . S
C447 C453 1.491 . S
C448 H439 0.950 . S
C448 C447 1.398 . S
C448 C449 1.391 . S
C449 H437 0.950 . S
C449 C445 1.393 . S
C449 C448 1.391 . S
C450 H440 0.950 . S
C450 C451 1.386 . S
C450 C452 1.391 . S
C451 C450 1.386 . S
C451 C455 1.393 . S
C452 H441 0.950 . S
C452 C450 1.391 . S
C452 C453 1.400 . S
C453 C447 1.491 . S
C453 C452 1.400 . S
C453 C454 1.398 . S
C454 H442 0.950 . S
C454 C453 1.398 . S
C454 C455 1.391 . S
C455 H443 0.950 . S
C455 C451 1.393 . S
C455 C454 1.391 . S
H456 C464 0.950 . S
H457 C469 0.950 . S
H458 C466 0.950 . S
H459 C468 0.950 . S
H460 C470 0.950 . S
H461 C472 0.950 . S
H462 C474 0.950 . S
H463 C475 0.950 . S
C464 H456 0.950 . S
C464 C465 1.386 . S
C464 C466 1.391 . S
C465 C464 1.386 . S
C465 C469 1.393 . S
C466 H458 0.950 . S
C466 C464 1.391 . S
C466 C467 1.400 . S
C467 C466 1.400 . S
C467 C468 1.398 . S
C467 C473 1.491 . S
C468 H459 0.950 . S
C468 C467 1.398 . S
C468 C469 1.391 . S
C469 H457 0.950 . S
C469 C465 1.393 . S
C469 C468 1.391 . S
C470 H460 0.950 . S
C470 C471 1.386 . S
C470 C472 1.391 . S
C471 C470 1.386 . S
C471 C475 1.393 . S
C472 H461 0.950 . S
C472 C470 1.391 . S
C472 C473 1.400 . S
C473 C467 1.491 . S
C473 C472 1.400 . S
C473 C474 1.398 . S
C474 H462 0.950 . S
C474 C473 1.398 . S
C474 C475 1.391 . S
C475 H463 0.950 . S
C475 C471 1.393 . S
C475 C474 1.391 . S
H476 C484 0.950 . S
H477 C489 0.950 . S
H478 C486 0.950 . S
H479 C488 0.950 . S
H480 C490 0.950 . S
H481 C492 0.950 . S
H482 C494 0.950 . S
H483 C495 0.950 . S
C484 H476 0.950 . S
C484 C485 1.386 . S
C484 C486 1.391 . S
C485 C484 1.386 . S
C485 C489 1.393 . S
C486 H478 0.950 . S
C486 C484 1.391 . S
C486 C487 1.400 . S
C487 C486 1.400 . S
C487 C488 1.398 . S
C487 C493 1.491 . S
C488 H479 0.950 . S
C488 C487 1.398 . S
C488 C489 1.391 . S
C489 H477 0.950 . S
C489 C485 1.393 . S
C489 C488 1.391 . S
C490 H480 0.950 . S
C490 C491 1.386 . S
C490 C492 1.391 . S
C491 C490 1.386 . S
C491 C495 1.393 . S
C492 H481 0.950 . S
C492 C490 1.391 . S
C492 C493 1.400 . S
C493 C487 1.491 . S
C493 C492 1.400 . S
C493 C494 1.398 . S
C494 H482 0.950 . S
C494 C493 1.398 . S
C494 C495 1.391 . S
C495 H483 0.950 . S
C495 C491 1.393 . S
C495 C494 1.391 . S
H496 C504 0.950 . S
H497 C509 0.950 . S
H498 C506 0.950 . S
H499 C508 0.950 . S
H500 C510 0.950 . S
H501 C512 0.950 . S
H502 C514 0.950 . S
H503 C515 0.950 . S
C504 H496 0.950 . S
C504 C505 1.386 . S
C504 C506 1.391 . S
C505 C504 1.386 . S
C505 C509 1.393 . S
C506 H498 0.950 . S
C506 C504 1.391 . S
C506 C507 1.400 . S
C507 C506 1.400 . S
C507 C508 1.398 . S
C507 C513 1.491 . S
C508 H499 0.950 . S
C508 C507 1.398 . S
C508 C509 1.391 . S
C509 H497 0.950 . S
C509 C505 1.393 . S
C509 C508 1.391 . S
C510 H500 0.950 . S
C510 C511 1.386 . S
C510 C512 1.391 . S
C511 C510 1.386 . S
C511 C515 1.393 . S
C512 H501 0.950 . S
C512 C510 1.391 . S
C512 C513 1.400 . S
C513 C507 1.491 . S
C513 C512 1.400 . S
C513 C514 1.398 . S
C514 H502 0.950 . S
C514 C513 1.398 . S
C514 C515 1.391 . S
C515 H503 0.950 . S
C515 C511 1.393 . S
C515 C514 1.391 . S
H516 C524 0.950 . S
H517 C529 0.950 . S
H518 C526 0.950 . S
H519 C528 0.950 . S
H520 C530 0.950 . S
H521 C532 0.950 . S
H522 C534 0.950 . S
H523 C535 0.950 . S
C524 H516 0.950 . S
C524 C525 1.386 . S
C524 C526 1.391 . S
C525 C524 1.386 . S
C525 C529 1.393 . S
C526 H518 0.950 . S
C526 C524 1.391 . S
C526 C527 1.400 . S
C527 C526 1.400 . S
C527 C528 1.398 . S
C527 C533 1.491 . S
C528 H519 0.950 . S
C528 C527 1.398 . S
C528 C529 1.391 . S
C529 H517 0.950 . S
C529 C525 1.393 . S
C529 C528 1.391 . S
C530 H520 0.950 . S
C530 C531 1.386 . S
C530 C532 1.391 . S
C531 C530 1.386 . S
C531 C535 1.393 . S
C532 H521 0.950 . S
C532 C530 1.391 . S
C532 C533 1.400 . S
C533 C527 1.491 . S
C533 C532 1.400 . S
C533 C534 1.398 . S
C534 H522 0.950 . S
C534 C533 1.398 . S
C534 C535 1.391 . S
C535 H523 0.950 . S
C535 C531 1.393 . S
C535 C534 1.391 . S
H536 C544 0.950 . S
H537 C549 0.950 . S
H538 C546 0.950 . S
H539 C548 0.950 . S
H540 C550 0.950 . S
H541 C552 0.950 . S
H542 C554 0.950 . S
H543 C555 0.950 . S
C544 H536 0.950 . S
C544 C545 1.386 . S
C544 C546 1.391 . S
C545 C544 1.386 . S
C545 C549 1.393 . S
C546 H538 0.950 . S
C546 C544 1.391 . S
C546 C547 1.400 . S
C547 C546 1.400 . S
C547 C548 1.398 . S
C547 C553 1.491 . S
C548 H539 0.950 . S
C548 C547 1.398 . S
C548 C549 1.391 . S
C549 H537 0.950 . S
C549 C545 1.393 . S
C549 C548 1.391 . S
C550 H540 0.950 . S
C550 C551 1.386 . S
C550 C552 1.391 . S
C551 C550 1.386 . S
C551 C555 1.393 . S
C552 H541 0.950 . S
C552 C550 1.391 . S
C552 C553 1.400 . S
C553 C547 1.491 . S
C553 C552 1.400 . S
C553 C554 1.398 . S
C554 H542 0.950 . S
C554 C553 1.398 . S
C554 C555 1.391 . S
C555 H543 0.950 . S
C555 C551 1.393 . S
C555 C554 1.391 . S
H556 C564 0.950 . S
H557 C569 0.950 . S
H558 C566 0.950 . S
H559 C568 0.950 . S
H560 C570 0.950 . S
H561 C572 0.950 . S
H562 C574 0.950 . S
H563 C575 0.950 . S
C564 H556 0.950 . S
C564 C565 1.386 . S
C564 C566 1.391 . S
C565 C564 1.386 . S
C565 C569 1.393 . S
C566 H558 0.950 . S
C566 C564 1.391 . S
C566 C567 1.400 . S
C567 C566 1.400 . S
C567 C568 1.398 . S
C567 C573 1.491 . S
C568 H559 0.950 . S
C568 C567 1.398 . S
C568 C569 1.391 . S
C569 H557 0.950 . S
C569 C565 1.393 . S
C569 C568 1.391 . S
C570 H560 0.950 . S
C570 C571 1.386 . S
C570 C572 1.391 . S
C571 C570 1.386 . S
C571 C575 1.393 . S
C572 H561 0.950 . S
C572 C570 1.391 . S
C572 C573 1.400 . S
C573 C567 1.491 . S
C573 C572 1.400 . S
C573 C574 1.398 . S
C574 H562 0.950 . S
C574 C573 1.398 . S
C574 C575 1.391 . S
C575 H563 0.950 . S
C575 C571 1.393 . S
C575 C574 1.391 . S
H576 C584 0.950 . S
H577 C589 0.950 . S
H578 C586 0.950 . S
H579 C588 0.950 . S
H580 C590 0.950 . S
H581 C592 0.950 . S
H582 C594 0.950 . S
H583 C595 0.950 . S
C584 H576 0.950 . S
C584 C585 1.386 . S
C584 C586 1.391 . S
C585 C584 1.386 . S
C585 C589 1.393 . S
C586 H578 0.950 . S
C586 C584 1.391 . S
C586 C587 1.400 . S
C587 C586 1.400 . S
C587 C588 1.398 . S
C587 C593 1.491 . S
C588 H579 0.950 . S
C588 C587 1.398 . S
C588 C589 1.391 . S
C589 H577 0.950 . S
C589 C585 1.393 . S
C589 C588 1.391 . S
C590 H580 0.950 . S
C590 C591 1.386 . S
C590 C592 1.391 . S
C591 C590 1.386 . S
C591 C595 1.393 . S
C592 H581 0.950 . S
C592 C590 1.391 . S
C592 C593 1.400 . S
C593 C587 1.491 . S
C593 C592 1.400 . S
C593 C594 1.398 . S
C594 H582 0.950 . S
C594 C593 1.398 . S
C594 C595 1.391 . S
C595 H583 0.950 . S
C595 C591 1.393 . S
C595 C594 1.391 . S
H596 C604 0.950 . S
H597 C609 0.950 . S
H598 C606 0.950 . S
H599 C608 0.950 . S
H600 C610 0.950 . S
H601 C612 0.950 . S
H602 C614 0.950 . S
H603 C615 0.950 . S
C604 H596 0.950 . S
C604 C605 1.386 . S
C604 C606 1.391 . S
C605 C604 1.386 . S
C605 C609 1.393 . S
C606 H598 0.950 . S
C606 C604 1.391 . S
C606 C607 1.400 . S
C607 C606 1.400 . S
C607 C608 1.398 . S
C607 C613 1.491 . S
C608 H599 0.950 . S
C608 C607 1.398 . S
C608 C609 1.391 . S
C609 H597 0.950 . S
C609 C605 1.393 . S
C609 C608 1.391 . S
C610 H600 0.950 . S
C610 C611 1.386 . S
C610 C612 1.391 . S
C611 C610 1.386 . S
C611 C615 1.393 . S
C612 H601 0.950 . S
C612 C610 1.391 . S
C612 C613 1.400 . S
C613 C607 1.491 . S
C613 C612 1.400 . S
C613 C614 1.398 . S
C614 H602 0.950 . S
C614 C613 1.398 . S
C614 C615 1.391 . S
C615 H603 0.950 . S
C615 C611 1.393 . S
C615 C614 1.391 . S
H616 C624 0.950 . S
H617 C629 0.950 . S
H618 C626 0.950 . S
H619 C628 0.950 . S
H620 C630 0.950 . S
H621 C632 0.950 . S
H622 C634 0.950 . S
H623 C635 0.950 . S
C624 H616 0.950 . S
C624 C625 1.386 . S
C624 C626 1.391 . S
C625 C624 1.386 . S
C625 C629 1.393 . S
C626 H618 0.950 . S
C626 C624 1.391 . S
C626 C627 1.400 . S
C627 C626 1.400 . S
C627 C628 1.398 . S
C627 C633 1.491 . S
C628 H619 0.950 . S
C628 C627 1.398 . S
C628 C629 1.391 . S
C629 H617 0.950 . S
C629 C625 1.393 . S
C629 C628 1.391 . S
C630 H620 0.950 . S
C630 C631 1.386 . S
C630 C632 1.391 . S
C631 C630 1.386 . S
C631 C635 1.393 . S
C632 H621 0.950 . S
C632 C630 1.391 . S
C632 C633 1.400 . S
C633 C627 1.491 . S
C633 C632 1.400 . S
C633 C634 1.398 . S
C634 H622 0.950 . S
C634 C633 1.398 . S
C634 C635 1.391 . S
C635 H623 0.950 . S
C635 C631 1.393 . S
C635 C634 1.391 . S
H636 C644 0.950 . S
H637 C649 0.950 . S
H638 C646 0.950 . S
H639 C648 0.950 . S
H640 C650 0.950 . S
H641 C652 0.950 . S
H642 C654 0.950 . S
H643 C655 0.950 . S
C644 H636 0.950 . S
C644 C645 1.386 . S
C644 C646 1.391 . S
C645 C644 1.386 . S
C645 C649 1.393 . S
C646 H638 0.950 . S
C646 C644 1.391 . S
C646 C647 1.400 . S
C647 C646 1.400 . S
C647 C648 1.398 . S
C647 C653 1.491 . S
C648 H639 0.950 . S
C648 C647 1.398 . S
C648 C649 1.391 . S
C649 H637 0.950 . S
C649 C645 1.393 . S
C649 C648 1.391 . S
C650 H640 0.950 . S
C650 C651 1.386 . S
C650 C652 1.391 . S
C651 C650 1.386 . S
C651 C655 1.393 . S
C652 H641 0.950 . S
C652 C650 1.391 . S
C652 C653 1.400 . S
C653 C647 1.491 . S
C653 C652 1.400 . S
C653 C654 1.398 . S
C654 H642 0.950 . S
C654 C653 1.398 . S
C654 C655 1.391 . S
C655 H643 0.950 . S
C655 C651 1.393 . S
C655 C654 1.391 . S
H656 C664 0.950 . S
H657 C669 0.950 . S
H658 C666 0.950 . S
H659 C668 0.950 . S
H660 C670 0.950 . S
H661 C672 0.950 . S
H662 C674 0.950 . S
H663 C675 0.950 . S
C664 H656 0.950 . S
C664 C665 1.386 . S
C664 C666 1.391 . S
C665 C664 1.386 . S
C665 C669 1.393 . S
C666 H658 0.950 . S
C666 C664 1.391 . S
C666 C667 1.400 . S
C667 C666 1.400 . S
C667 C668 1.398 . S
C667 C673 1.491 . S
C668 H659 0.950 . S
C668 C667 1.398 . S
C668 C669 1.391 . S
C669 H657 0.950 . S
C669 C665 1.393 . S
C669 C668 1.391 . S
C670 H660 0.950 . S
C670 C671 1.386 . S
C670 C672 1.391 . S
C671 C670 1.386 . S
C671 C675 1.393 . S
C672 H661 0.950 . S
C672 C670 1.391 . S
C672 C673 1.400 . S
C673 C667 1.491 . S
C673 C672 1.400 . S
C673 C674 1.398 . S
C674 H662 0.950 . S
C674 C673 1.398 . S
C674 C675 1.391 . S
C675 H663 0.950 . S
C675 C671 1.393 . S
C675 C674 1.391 . S
H676 C684 0.950 . S
H677 C689 0.950 . S
H678 C686 0.950 . S
H679 C688 0.950 . S
H680 C690 0.950 . S
H681 C692 0.950 . S
H682 C694 0.950 . S
H683 C695 0.950 . S
C684 H676 0.950 . S
C684 C685 1.386 . S
C684 C686 1.391 . S
C685 C684 1.386 . S
C685 C689 1.393 . S
C686 H678 0.950 . S
C686 C684 1.391 . S
C686 C687 1.400 . S
C687 C686 1.400 . S
C687 C688 1.398 . S
C687 C693 1.491 . S
C688 H679 0.950 . S
C688 C687 1.398 . S
C688 C689 1.391 . S
C689 H677 0.950 . S
C689 C685 1.393 . S
C689 C688 1.391 . S
C690 H680 0.950 . S
C690 C691 1.386 . S
C690 C692 1.391 . S
C691 C690 1.386 . S
C691 C695 1.393 . S
C692 H681 0.950 . S
C692 C690 1.391 . S
C692 C693 1.400 . S
C693 C687 1.491 . S
C693 C692 1.400 . S
C693 C694 1.398 . S
C694 H682 0.950 . S
C694 C693 1.398 . S
C694 C695 1.391 . S
C695 H683 0.950 . S
C695 C691 1.393 . S
C695 C694 1.391 . S
H696 C704 0.950 . S
H697 C709 0.950 . S
H698 C706 0.950 . S
H699 C708 0.950 . S
H700 C710 0.950 . S
H701 C712 0.950 . S
H702 C714 0.950 . S
H703 C715 0.950 . S
C704 H696 0.950 . S
C704 C705 1.386 . S
C704 C706 1.391 . S
C705 C704 1.386 . S
C705 C709 1.393 . S
C706 H698 0.950 . S
C706 C704 1.391 . S
C706 C707 1.400 . S
C707 C706 1.400 . S
C707 C708 1.398 . S
C707 C713 1.491 . S
C708 H699 0.950 . S
C708 C707 1.398 . S
C708 C709 1.391 . S
C709 H697 0.950 . S
C709 C705 1.393 . S
C709 C708 1.391 . S
C710 H700 0.950 . S
C710 C711 1.386 . S
C710 C712 1.391 . S
C711 C710 1.386 . S
C711 C715 1.393 . S
C712 H701 0.950 . S
C712 C710 1.391 . S
C712 C713 1.400 . S
C713 C707 1.491 . S
C713 C712 1.400 . S
C713 C714 1.398 . S
C714 H702 0.950 . S
C714 C713 1.398 . S
C714 C715 1.391 . S
C715 H703 0.950 . S
C715 C711 1.393 . S
C715 C714 1.391 . S
H716 C724 0.950 . S
H717 C729 0.950 . S
H718 C726 0.950 . S
H719 C728 0.950 . S
H720 C730 0.950 . S
H721 C732 0.950 . S
H722 C734 0.950 . S
H723 C735 0.950 . S
C724 H716 0.950 . S
C724 C725 1.386 . S
C724 C726 1.391 . S
C725 C724 1.386 . S
C725 C729 1.393 . S
C726 H718 0.950 . S
C726 C724 1.391 . S
C726 C727 1.400 . S
C727 C726 1.400 . S
C727 C728 1.398 . S
C727 C733 1.491 . S
C728 H719 0.950 . S
C728 C727 1.398 . S
C728 C729 1.391 . S
C729 H717 0.950 . S
C729 C725 1.393 . S
C729 C728 1.391 . S
C730 H720 0.950 . S
C730 C731 1.386 . S
C730 C732 1.391 . S
C731 C730 1.386 . S
C731 C735 1.393 . S
C732 H721 0.950 . S
C732 C730 1.391 . S
C732 C733 1.400 . S
C733 C727 1.491 . S
C733 C732 1.400 . S
C733 C734 1.398 . S
C734 H722 0.950 . S
C734 C733 1.398 . S
C734 C735 1.391 . S
C735 H723 0.950 . S
C735 C731 1.393 . S
C735 C734 1.391 . S
H736 C744 0.950 . S
H737 C749 0.950 . S
H738 C746 0.950 . S
H739 C748 0.950 . S
H740 C750 0.950 . S
H741 C752 0.950 . S
H742 C754 0.950 . S
H743 C755 0.950 . S
C744 H736 0.950 . S
C744 C745 1.386 . S
C744 C746 1.391 . S
C745 C744 1.386 . S
C745 C749 1.393 . S
C746 H738 0.950 . S
C746 C744 1.391 . S
C746 C747 1.400 . S
C747 C746 1.400 . S
C747 C748 1.398 . S
C747 C753 1.491 . S
C748 H739 0.950 . S
C748 C747 1.398 . S
C748 C749 1.391 . S
C749 H737 0.950 . S
C749 C745 1.393 . S
C749 C748 1.391 . S
C750 H740 0.950 . S
C750 C751 1.386 . S
C750 C752 1.391 . S
C751 C750 1.386 . S
C751 C755 1.393 . S
C752 H741 0.950 . S
C752 C750 1.391 . S
C752 C753 1.400 . S
C753 C747 1.491 . S
C753 C752 1.400 . S
C753 C754 1.398 . S
C754 H742 0.950 . S
C754 C753 1.398 . S
C754 C755 1.391 . S
C755 H743 0.950 . S
C755 C751 1.393 . S
C755 C754 1.391 . S
H756 C764 0.950 . S
H757 C769 0.950 . S
H758 C766 0.950 . S
H759 C768 0.950 . S
H760 C770 0.950 . S
H761 C772 0.950 . S
H762 C774 0.950 . S
H763 C775 0.950 . S
C764 H756 0.950 . S
C764 C765 1.386 . S
C764 C766 1.391 . S
C765 C764 1.386 . S
C765 C769 1.393 . S
C766 H758 0.950 . S
C766 C764 1.391 . S
C766 C767 1.400 . S
C767 C766 1.400 . S
C767 C768 1.398 . S
C767 C773 1.491 . S
C768 H759 0.950 . S
C768 C767 1.398 . S
C768 C769 1.391 . S
C769 H757 0.950 . S
C769 C765 1.393 . S
C769 C768 1.391 . S
C770 H760 0.950 . S
C770 C771 1.386 . S
C770 C772 1.391 . S
C771 C770 1.386 . S
C771 C775 1.393 . S
C772 H761 0.950 . S
C772 C770 1.391 . S
C772 C773 1.400 . S
C773 C767 1.491 . S
C773 C772 1.400 . S
C773 C774 1.398 . S
C774 H762 0.950 . S
C774 C773 1.398 . S
C774 C775 1.391 . S
C775 H763 0.950 . S
C775 C771 1.393 . S
C775 C774 1.391 . S
H776 C784 0.950 . S
H777 C789 0.950 . S
H778 C786 0.950 . S
H779 C788 0.950 . S
H780 C790 0.950 . S
H781 C792 0.950 . S
H782 C794 0.950 . S
H783 C795 0.950 . S
C784 H776 0.950 . S
C784 C785 1.386 . S
C784 C786 1.391 . S
C785 C784 1.386 . S
C785 C789 1.393 . S
C786 H778 0.950 . S
C786 C784 1.391 . S
C786 C787 1.400 . S
C787 C786 1.400 . S
C787 C788 1.398 . S
C787 C793 1.491 . S
C788 H779 0.950 . S
C788 C787 1.398 . S
C788 C789 1.391 . S
C789 H777 0.950 . S
C789 C785 1.393 . S
C789 C788 1.391 . S
C790 H780 0.950 . S
C790 C791 1.386 . S
C790 C792 1.391 . S
C791 C790 1.386 . S
C791 C795 1.393 . S
C792 H781 0.950 . S
C792 C790 1.391 . S
C792 C793 1.400 . S
C793 C787 1.491 . S
C793 C792 1.400 . S
C793 C794 1.398 . S
C794 H782 0.950 . S
C794 C793 1.398 . S
C794 C795 1.391 . S
C795 H783 0.950 . S
C795 C791 1.393 . S
C795 C794 1.391 . S
H796 C804 0.950 . S
H797 C809 0.950 . S
H798 C806 0.950 . S
H799 C808 0.950 . S
H800 C810 0.950 . S
H801 C812 0.950 . S
H802 C814 0.950 . S
H803 C815 0.950 . S
C804 H796 0.950 . S
C804 C805 1.386 . S
C804 C806 1.391 . S
C805 C804 1.386 . S
C805 C809 1.393 . S
C806 H798 0.950 . S
C806 C804 1.391 . S
C806 C807 1.400 . S
C807 C806 1.400 . S
C807 C808 1.398 . S
C807 C813 1.491 . S
C808 H799 0.950 . S
C808 C807 1.398 . S
C808 C809 1.391 . S
C809 H797 0.950 . S
C809 C805 1.393 . S
C809 C808 1.391 . S
C810 H800 0.950 . S
C810 C811 1.386 . S
C810 C812 1.391 . S
C811 C810 1.386 . S
C811 C815 1.393 . S
C812 H801 0.950 . S
C812 C810 1.391 . S
C812 C813 1.400 . S
C813 C807 1.491 . S
C813 C812 1.400 . S
C813 C814 1.398 . S
C814 H802 0.950 . S
C814 C813 1.398 . S
C814 C815 1.391 . S
C815 H803 0.950 . S
C815 C811 1.393 . S
C815 C814 1.391 . S
H816 C824 0.950 . S
H817 C829 0.950 . S
H818 C826 0.950 . S
H819 C828 0.950 . S
H820 C830 0.950 . S
H821 C832 0.950 . S
H822 C834 0.950 . S
H823 C835 0.950 . S
C824 H816 0.950 . S
C824 C825 1.386 . S
C824 C826 1.391 . S
C825 C824 1.386 . S
C825 C829 1.393 . S
C826 H818 0.950 . S
C826 C824 1.391 . S
C826 C827 1.400 . S
C827 C826 1.400 . S
C827 C828 1.398 . S
C827 C833 1.491 . S
C828 H819 0.950 . S
C828 C827 1.398 . S
C828 C829 1.391 . S
C829 H817 0.950 . S
C829 C825 1.393 . S
C829 C828 1.391 . S
C830 H820 0.950 . S
C830 C831 1.386 . S
C830 C832 1.391 . S
C831 C830 1.386 . S
C831 C835 1.393 . S
C832 H821 0.950 . S
C832 C830 1.391 . S
C832 C833 1.400 . S
C833 C827 1.491 . S
C833 C832 1.400 . S
C833 C834 1.398 . S
C834 H822 0.950 . S
C834 C833 1.398 . S
C834 C835 1.391 . S
C835 H823 0.950 . S
C835 C831 1.393 . S
C835 C834 1.391 . S
H836 C844 0.950 . S
H837 C849 0.950 . S
H838 C846 0.950 . S
H839 C848 0.950 . S
H840 C850 0.950 . S
H841 C852 0.950 . S
H842 C854 0.950 . S
H843 C855 0.950 . S
C844 H836 0.950 . S
C844 C845 1.386 . S
C844 C846 1.391 . S
C845 C844 1.386 . S
C845 C849 1.393 . S
C846 H838 0.950 . S
C846 C844 1.391 . S
C846 C847 1.400 . S
C847 C846 1.400 . S
C847 C848 1.398 . S
C847 C853 1.491 . S
C848 H839 0.950 . S
C848 C847 1.398 . S
C848 C849 1.391 . S
C849 H837 0.950 . S
C849 C845 1.393 . S
C849 C848 1.391 . S
C850 H840 0.950 . S
C850 C851 1.386 . S
C850 C852 1.391 . S
C851 C850 1.386 . S
C851 C855 1.393 . S
C852 H841 0.950 . S
C852 C850 1.391 . S
C852 C853 1.400 . S
C853 C847 1.491 . S
C853 C852 1.400 . S
C853 C854 1.398 . S
C854 H842 0.950 . S
C854 C853 1.398 . S
C854 C855 1.391 . S
C855 H843 0.950 . S
C855 C851 1.393 . S
C855 C854 1.391 . S
H856 C864 0.950 . S
H857 C869 0.950 . S
H858 C866 0.950 . S
H859 C868 0.950 . S
H860 C870 0.950 . S
H861 C872 0.950 . S
H862 C874 0.950 . S
H863 C875 0.950 . S
C864 H856 0.950 . S
C864 C865 1.386 . S
C864 C866 1.391 . S
C865 C864 1.386 . S
C865 C869 1.393 . S
C866 H858 0.950 . S
C866 C864 1.391 . S
C866 C867 1.400 . S
C867 C866 1.400 . S
C867 C868 1.398 . S
C867 C873 1.491 . S
C868 H859 0.950 . S
C868 C867 1.398 . S
C868 C869 1.391 . S
C869 H857 0.950 . S
C869 C865 1.393 . S
C869 C868 1.391 . S
C870 H860 0.950 . S
C870 C871 1.386 . S
C870 C872 1.391 . S
C871 C870 1.386 . S
C871 C875 1.393 . S
C872 H861 0.950 . S
C872 C870 1.391 . S
C872 C873 1.400 . S
C873 C867 1.491 . S
C873 C872 1.400 . S
C873 C874 1.398 . S
C874 H862 0.950 . S
C874 C873 1.398 . S
C874 C875 1.391 . S
C875 H863 0.950 . S
C875 C871 1.393 . S
C875 C874 1.391 . S
H876 C884 0.950 . S
H877 C889 0.950 . S
H878 C886 0.950 . S
H879 C888 0.950 . S
H880 C890 0.950 . S
H881 C892 0.950 . S
H882 C894 0.950 . S
H883 C895 0.950 . S
C884 H876 0.950 . S
C884 C885 1.386 . S
C884 C886 1.391 . S
C885 C884 1.386 . S
C885 C889 1.393 . S
C886 H878 0.950 . S
C886 C884 1.391 . S
C886 C887 1.400 . S
C887 C886 1.400 . S
C887 C888 1.398 . S
C887 C893 1.491 . S
C888 H879 0.950 . S
C888 C887 1.398 . S
C888 C889 1.391 . S
C889 H877 0.950 . S
C889 C885 1.393 . S
C889 C888 1.391 . S
C890 H880 0.950 . S
C890 C891 1.386 . S
C890 C892 1.391 . S
C891 C890 1.386 . S
C891 C895 1.393 . S
C892 H881 0.950 . S
C892 C890 1.391 . S
C892 C893 1.400 . S
C893 C887 1.491 . S
C893 C892 1.400 . S
C893 C894 1.398 . S
C894 H882 0.950 . S
C894 C893 1.398 . S
C894 C895 1.391 . S
C895 H883 0.950 . S
C895 C891 1.393 . S
C895 C894 1.391 . S
C425 C29 1.193 . S
C431 C262 1.195 . S
C445 C49 0.891 . S
C451 C311 0.908 . S
C471 C346 2.514 . S
C465 C93 2.530 . S
C485 C119 2.326 . S
C491 C385 2.317 . S
C511 C306 2.278 . S
C505 C17 2.250 . S
C531 C265 0.809 . S
C525 C61 0.844 . S
C551 C395 1.891 . S
C545 C81 1.913 . S
C571 C354 1.664 . S
C565 C125 1.659 . S
C585 C23 1.583 . S
C591 C382 1.587 . S
C611 C314 2.308 . S
C605 C87 2.354 . S
C625 C113 2.347 . S
C631 C275 2.364 . S
C645 C55 0.806 . S
C651 C351 0.838 . S
C671 C271 1.167 . S
C665 C157 1.020 . S
C685 C189 0.951 . S
C691 C302 0.946 . S
C705 C221 2.494 . S
C711 C355 2.481 . S
C725 C253 2.385 . S
C731 C394 2.390 . S
C745 C145 2.136 . S
C751 C315 2.360 . S
C771 C274 0.809 . S
C765 C183 0.809 . S
C791 C386 1.912 . S
C785 C209 1.925 . S
C811 C345 1.637 . S
C805 C247 1.612 . S
C825 C151 1.471 . S
C831 C391 1.600 . S
C851 C305 2.298 . S
C845 C215 2.343 . S
C871 C266 2.334 . S
C865 C241 2.290 . S
C885 C177 0.829 . S
C891 C342 0.818 . S
