# Generated by pormake.
# Topology sqc, (4,8)-cn, num edge types: 1
# Building blocks:
#     Node 0, Type 0, BuildingBlock: MIFKUJ_clean_linker_1, # of connection points: 4
#     Node 1, Type 0, BuildingBlock: MIFKUJ_clean_linker_1, # of connection points: 4
#     Node 2, Type 0, BuildingBlock: MIFKUJ_clean_linker_1, # of connection points: 4
#     Node 3, Type 0, BuildingBlock: MIFKUJ_clean_linker_1, # of connection points: 4
#     Node 4, Type 0, BuildingBlock: MIFKUJ_clean_linker_1, # of connection points: 4
#     Node 5, Type 0, BuildingBlock: MIFKUJ_clean_linker_1, # of connection points: 4
#     Node 6, Type 0, BuildingBlock: MIFKUJ_clean_linker_1, # of connection points: 4
#     Node 7, Type 0, BuildingBlock: MIFKUJ_clean_linker_1, # of connection points: 4
#     Node 8, Type 1, BuildingBlock: VETTIZ_charged_sbu_0, # of connection points: 8
#     Node 9, Type 1, BuildingBlock: VETTIZ_charged_sbu_0, # of connection points: 8
#     Node 10, Type 1, BuildingBlock: VETTIZ_charged_sbu_0, # of connection points: 8
#     Node 11, Type 1, BuildingBlock: VETTIZ_charged_sbu_0, # of connection points: 8
#     Edge 12, Type (0, 1), BuildingBlock: CIFDUS_clean_linker_0, # of connection points: 2
#     Edge 13, Type (0, 1), BuildingBlock: CIFDUS_clean_linker_0, # of connection points: 2
#     Edge 14, Type (0, 1), BuildingBlock: CIFDUS_clean_linker_0, # of connection points: 2
#     Edge 15, Type (0, 1), BuildingBlock: CIFDUS_clean_linker_0, # of connection points: 2
#     Edge 16, Type (0, 1), BuildingBlock: CIFDUS_clean_linker_0, # of connection points: 2
#     Edge 17, Type (0, 1), BuildingBlock: CIFDUS_clean_linker_0, # of connection points: 2
#     Edge 18, Type (0, 1), BuildingBlock: CIFDUS_clean_linker_0, # of connection points: 2
#     Edge 19, Type (0, 1), BuildingBlock: CIFDUS_clean_linker_0, # of connection points: 2
#     Edge 20, Type (0, 1), BuildingBlock: CIFDUS_clean_linker_0, # of connection points: 2
#     Edge 21, Type (0, 1), BuildingBlock: CIFDUS_clean_linker_0, # of connection points: 2
#     Edge 22, Type (0, 1), BuildingBlock: CIFDUS_clean_linker_0, # of connection points: 2
#     Edge 23, Type (0, 1), BuildingBlock: CIFDUS_clean_linker_0, # of connection points: 2
#     Edge 24, Type (0, 1), BuildingBlock: CIFDUS_clean_linker_0, # of connection points: 2
#     Edge 25, Type (0, 1), BuildingBlock: CIFDUS_clean_linker_0, # of connection points: 2
#     Edge 26, Type (0, 1), BuildingBlock: CIFDUS_clean_linker_0, # of connection points: 2
#     Edge 27, Type (0, 1), BuildingBlock: CIFDUS_clean_linker_0, # of connection points: 2
#     Edge 28, Type (0, 1), BuildingBlock: CIFDUS_clean_linker_0, # of connection points: 2
#     Edge 29, Type (0, 1), BuildingBlock: CIFDUS_clean_linker_0, # of connection points: 2
#     Edge 30, Type (0, 1), BuildingBlock: CIFDUS_clean_linker_0, # of connection points: 2
#     Edge 31, Type (0, 1), BuildingBlock: CIFDUS_clean_linker_0, # of connection points: 2
#     Edge 32, Type (0, 1), BuildingBlock: CIFDUS_clean_linker_0, # of connection points: 2
#     Edge 33, Type (0, 1), BuildingBlock: CIFDUS_clean_linker_0, # of connection points: 2
#     Edge 34, Type (0, 1), BuildingBlock: CIFDUS_clean_linker_0, # of connection points: 2
#     Edge 35, Type (0, 1), BuildingBlock: CIFDUS_clean_linker_0, # of connection points: 2
#     Edge 36, Type (0, 1), BuildingBlock: CIFDUS_clean_linker_0, # of connection points: 2
#     Edge 37, Type (0, 1), BuildingBlock: CIFDUS_clean_linker_0, # of connection points: 2
#     Edge 38, Type (0, 1), BuildingBlock: CIFDUS_clean_linker_0, # of connection points: 2
#     Edge 39, Type (0, 1), BuildingBlock: CIFDUS_clean_linker_0, # of connection points: 2
#     Edge 40, Type (0, 1), BuildingBlock: CIFDUS_clean_linker_0, # of connection points: 2
#     Edge 41, Type (0, 1), BuildingBlock: CIFDUS_clean_linker_0, # of connection points: 2
#     Edge 42, Type (0, 1), BuildingBlock: CIFDUS_clean_linker_0, # of connection points: 2
#     Edge 43, Type (0, 1), BuildingBlock: CIFDUS_clean_linker_0, # of connection points: 2
# Relax obj value: 0.137
# Max RMSD: 0.270
# Mean RMSD: 0.176
data_MOF--net-sqc--node1-VETTIZ_charged_sbu_0--node2-MIFKUJ_clean_linker_1--edge1-CIFDUS_clean_linker_0
_symmetry_space_group_name_H-M    P1
_symmetry_Int_Tables_number       1
_symmetry_cell_setting            triclinic
loop_
_symmetry_equiv_pos_as_xyz
'x, y, z'
_cell_length_a     25.612612
_cell_length_b     25.737447
_cell_length_c     73.296199
_cell_angle_alpha  90.189521
_cell_angle_beta   89.845961
_cell_angle_gamma 90.523252
loop_
_atom_site_label
_atom_site_type_symbol
_atom_site_fract_x
_atom_site_fract_y
_atom_site_fract_z
_atom_type_partial_charge
H0 H 0.91297 0.89249 0.5128 0.0
H1 H 0.83129 0.86182 0.49881 0.0
H2 H 0.78901 0.02026 0.4873 0.0
H3 H 0.87022 0.051 0.50181 0.0
H4 H 0.99382 0.96105 0.49614 0.0
H5 H 0.8628 0.95502 0.54357 0.0
H6 H 0.77959 0.97931 0.55764 0.0
H7 H 0.83341 0.13808 0.56198 0.0
H8 H 0.91528 0.11473 0.5468 0.0
H9 H 0.0642 0.11812 0.5493 0.0
H10 H 0.13738 0.13987 0.56928 0.0
H11 H 0.20071 0.98681 0.56098 0.0
H12 H 0.12614 0.96412 0.54149 0.0
H13 H 0.99169 0.05497 0.55522 0.0
H14 H 0.11516 0.06814 0.50499 0.0
H15 H 0.18662 0.05195 0.48326 0.0
H16 H 0.14654 0.88859 0.48302 0.0
H17 H 0.07569 0.90486 0.50447 0.0
C18 C 0.89736 0.97395 0.50838 0.0
C19 C 0.88614 0.92058 0.50723 0.0
C20 C 0.83954 0.90316 0.49935 0.0
C21 C 0.80409 0.93879 0.49207 0.0
C22 C 0.81591 0.99216 0.49281 0.0
C23 C 0.86207 0.00968 0.50107 0.0
C24 C 0.94575 0.99196 0.51753 0.0
C25 C 0.99372 0.98132 0.50914 0.0
C26 C 0.94482 0.01979 0.53419 0.0
C27 C 0.89507 0.03326 0.54362 0.0
C28 C 0.85643 0.99531 0.54712 0.0
C29 C 0.8091 0.009 0.55533 0.0
C30 C 0.80036 0.06048 0.56079 0.0
C31 C 0.83948 0.09809 0.55789 0.0
C32 C 0.88623 0.0847 0.54926 0.0
C33 C 0.0894 0.03946 0.54376 0.0
C34 C 0.09382 0.08914 0.55167 0.0
C35 C 0.13556 0.10153 0.56314 0.0
C36 C 0.1743 0.06479 0.56682 0.0
C37 C 0.17134 0.01583 0.55833 0.0
C38 C 0.12895 1.00307 0.54705 0.0
C39 C 0.04084 0.02449 0.5338 0.0
C40 C 0.99241 0.03533 0.54211 0.0
C41 C 0.04134 0.99776 0.51687 0.0
C42 C 0.08987 0.98771 0.5063 0.0
C43 C 0.12257 0.02871 0.50053 0.0
C44 C 0.16323 0.01949 0.48807 0.0
C45 C 0.17145 0.96919 0.48112 0.0
C46 C 0.14038 0.928 0.48774 0.0
C47 C 0.10007 0.93717 0.50012 0.0
H48 H 0.26421 0.83563 0.81864 0.0
H49 H 0.22447 0.9103 0.83388 0.0
H50 H 0.13778 0.94327 0.78478 0.0
H51 H 0.17415 0.86676 0.7703 0.0
H52 H 0.22261 0.74965 0.80696 0.0
H53 H 0.32419 0.88295 0.77675 0.0
H54 H 0.33513 0.96539 0.76092 0.0
H55 H 0.23395 0.91001 0.71774 0.0
H56 H 0.22493 0.82653 0.73348 0.0
H57 H 0.26156 0.67465 0.73199 0.0
H58 H 0.29913 0.60152 0.71583 0.0
H59 H 0.37176 0.55104 0.76594 0.0
H60 H 0.33981 0.62788 0.78128 0.0
H61 H 0.29932 0.75412 0.74482 0.0
H62 H 0.19614 0.61986 0.77538 0.0
H63 H 0.17408 0.54377 0.79381 0.0
H64 H 0.27352 0.60193 0.83702 0.0
H65 H 0.29383 0.67867 0.81871 0.0
C66 C 0.22273 0.84566 0.7932 0.0
C67 C 0.2365 0.85895 0.8112 0.0
C68 C 0.21415 0.90206 0.81984 0.0
C69 C 0.17762 0.93289 0.81064 0.0
C70 C 0.16494 0.92004 0.79248 0.0
C71 C 0.18652 0.8766 0.784 0.0
C72 C 0.24424 0.79828 0.78429 0.0
C73 C 0.2402 0.75064 0.79348 0.0
C74 C 0.26565 0.79927 0.76646 0.0
C75 C 0.27349 0.84874 0.75637 0.0
C76 C 0.30444 0.88855 0.76386 0.0
C77 C 0.31018 0.93595 0.75483 0.0
C78 C 0.28471 0.94497 0.73812 0.0
C79 C 0.25439 0.90453 0.73049 0.0
C80 C 0.24911 0.85678 0.73948 0.0
C81 C 0.29698 0.65697 0.75803 0.0
C82 C 0.28604 0.64812 0.73948 0.0
C83 C 0.30709 0.60545 0.73026 0.0
C84 C 0.33874 0.56949 0.73942 0.0
C85 C 0.34867 0.57797 0.75813 0.0
C86 C 0.32907 0.6216 0.76717 0.0
C87 C 0.27726 0.70464 0.7674 0.0
C88 C 0.28173 0.75264 0.75829 0.0
C89 C 0.2559 0.70381 0.7853 0.0
C90 C 0.24663 0.65497 0.79566 0.0
C91 C 0.21368 0.61582 0.78873 0.0
C92 C 0.20133 0.57213 0.79929 0.0
C93 C 0.22185 0.56654 0.817 0.0
C94 C 0.2562 0.60519 0.82362 0.0
C95 C 0.26812 0.64902 0.81312 0.0
H96 H 0.41447 0.03921 0.04815 0.0
H97 H 0.33228 0.02393 0.0643 0.0
H98 H 0.30892 0.88247 0.03315 0.0
H99 H 0.38942 0.90029 0.01633 0.0
H100 H 0.50501 0.96823 0.04451 0.0
H101 H 0.37263 0.05395 1.00954 0.0
H102 H 0.29527 0.06601 0.99079 0.0
H103 H 0.35649 0.95918 0.95072 0.0
H104 H 0.43355 0.94586 0.96987 0.0
H105 H 0.58662 0.97568 0.96845 0.0
H106 H 0.66174 0.0091 0.95176 0.0
H107 H 0.70642 0.10039 0.99904 0.0
H108 H 0.62757 0.07276 0.0144 0.0
H109 H 0.50484 0.01665 0.97908 0.0
H110 H 0.62394 0.91159 0.01684 0.0
H111 H 0.70202 0.89606 0.03502 0.0
H112 H 0.67167 0.0369 0.06564 0.0
H113 H 0.59129 0.04857 0.04861 0.0
C114 C 0.40801 0.97095 0.03103 0.0
C115 C 0.39142 1.00499 0.04482 0.0
C116 C 0.34436 0.99595 0.05412 0.0
C117 C 0.31326 0.95186 0.05015 0.0
C118 C 0.33065 0.91753 0.0364 0.0
C119 C 0.37717 0.92725 0.02685 0.0
C120 C 0.45726 0.98165 0.02087 0.0
C121 C 0.50497 0.97893 0.03021 0.0
C122 C 0.45748 0.99378 1.00204 0.0
C123 C 0.4086 0.99825 0.99131 0.0
C124 C 0.3688 0.03175 0.99703 0.0
C125 C 0.32459 0.03874 0.98626 0.0
C126 C 0.31969 0.01318 0.96935 0.0
C127 C 0.35928 0.97931 0.96368 0.0
C128 C 0.40324 0.97176 0.97461 0.0
C129 C 0.60162 0.02036 0.993 0.0
C130 C 0.61244 1.00322 0.97518 0.0
C131 C 0.65619 0.02201 0.96568 0.0
C132 C 0.69119 0.05764 0.97389 0.0
C133 C 0.68049 0.07397 0.99189 0.0
C134 C 0.63579 0.05667 1.00107 0.0
C135 C 0.55295 1.00325 1.00265 0.0
C136 C 0.5052 1.00474 0.99326 0.0
C137 C 0.55272 0.98848 0.02125 0.0
C138 C 0.60174 0.98091 0.03154 0.0
C139 C 0.63427 0.93881 0.02758 0.0
C140 C 0.6794 0.93044 0.03787 0.0
C141 C 0.6936 0.96485 0.05207 0.0
C142 C 0.66164 0.00833 0.05535 0.0
C143 C 0.61567 0.01549 0.04551 0.0
H144 H 0.2223 0.1703 0.3107 0.0
H145 H 0.24734 0.0869 0.32402 0.0
H146 H 0.3756 0.07744 0.28564 0.0
H147 H 0.34874 0.15919 0.27204 0.0
H148 H 0.29581 0.26632 0.30421 0.0
H149 H 0.17823 0.14166 0.27121 0.0
H150 H 0.1623 0.06279 0.25305 0.0
H151 H 0.28118 0.11144 0.21472 0.0
H152 H 0.29653 0.1905 0.23282 0.0
H153 H 0.27352 0.34238 0.23012 0.0
H154 H 0.25454 0.42216 0.21383 0.0
H155 H 0.17291 0.48092 0.26117 0.0
H156 H 0.18996 0.39943 0.27718 0.0
H157 H 0.21864 0.26827 0.24221 0.0
H158 H 0.33156 0.39007 0.26742 0.0
H159 H 0.36604 0.4682 0.28159 0.0
H160 H 0.29214 0.42532 0.33254 0.0
H161 H 0.2536 0.34879 0.31764 0.0
C162 C 0.28359 0.17063 0.29037 0.0
C163 C 0.25577 0.15001 0.30522 0.0
C164 C 0.27029 0.10242 0.31284 0.0
C165 C 0.31335 0.07494 0.30586 0.0
C166 C 0.34147 0.09653 0.29113 0.0
C167 C 0.32655 0.14363 0.28342 0.0
C168 C 0.26757 0.21995 0.28178 0.0
C169 C 0.27763 0.26716 0.29086 0.0
C170 C 0.24711 0.22053 0.26392 0.0
C171 C 0.23844 0.17194 0.25332 0.0
C172 C 0.20097 0.13519 0.25894 0.0
C173 C 0.19184 0.09029 0.24854 0.0
C174 C 0.22052 0.08101 0.23247 0.0
C175 C 0.2588 0.11737 0.2271 0.0
C176 C 0.26733 0.16264 0.23735 0.0
C177 C 0.23346 0.36478 0.25494 0.0
C178 C 0.25109 0.37215 0.23698 0.0
C179 C 0.24074 0.41822 0.22774 0.0
C180 C 0.21269 0.45839 0.23624 0.0
C181 C 0.19439 0.45077 0.25417 0.0
C182 C 0.20453 0.40435 0.2634 0.0
C183 C 0.24579 0.31569 0.26469 0.0
C184 C 0.23558 0.26821 0.25576 0.0
C185 C 0.2686 0.31529 0.28235 0.0
C186 C 0.28885 0.36371 0.29126 0.0
C187 C 0.32136 0.39798 0.28149 0.0
C188 C 0.34205 0.44245 0.28979 0.0
C189 C 0.3326 0.45316 0.30837 0.0
C190 C 0.29991 0.41888 0.31819 0.0
C191 C 0.27825 0.3747 0.30972 0.0
H192 H 0.78991 0.3421 0.22898 0.0
H193 H 0.80779 0.42035 0.21105 0.0
H194 H 0.86792 0.4973 0.25902 0.0
H195 H 0.85336 0.41812 0.27679 0.0
H196 H 0.84166 0.27552 0.24454 0.0
H197 H 0.70731 0.38788 0.26973 0.0
H198 H 0.6603 0.45545 0.28658 0.0
H199 H 0.76668 0.4384 0.33177 0.0
H200 H 0.81345 0.37117 0.31486 0.0
H201 H 0.8067 0.19886 0.31851 0.0
H202 H 0.75799 0.13333 0.33589 0.0
H203 H 0.66561 0.0978 0.28814 0.0
H204 H 0.71386 0.16395 0.27094 0.0
H205 H 0.75512 0.28209 0.305 0.0
H206 H 0.86235 0.14619 0.28073 0.0
H207 H 0.87678 0.06194 0.26595 0.0
H208 H 0.80135 0.11811 0.21728 0.0
H209 H 0.78526 0.201 0.23227 0.0
C210 C 0.81953 0.37396 0.25441 0.0
C211 C 0.8075 0.37547 0.23569 0.0
C212 C 0.81748 0.42023 0.22543 0.0
C213 C 0.83878 0.46477 0.23373 0.0
C214 C 0.85081 0.46356 0.25239 0.0
C215 C 0.84204 0.41837 0.26257 0.0
C216 C 0.80904 0.3258 0.2652 0.0
C217 C 0.82233 0.2771 0.25771 0.0
C218 C 0.78527 0.32718 0.28266 0.0
C219 C 0.76407 0.37497 0.29101 0.0
C220 C 0.7213 0.3998 0.28305 0.0
C221 C 0.69414 0.43783 0.29278 0.0
C222 C 0.70956 0.45173 0.31055 0.0
C223 C 0.75409 0.42869 0.31807 0.0
C224 C 0.78088 0.39039 0.30842 0.0
C225 C 0.76423 0.18595 0.2934 0.0
C226 C 0.77672 0.1761 0.31169 0.0
C227 C 0.74885 0.13871 0.3216 0.0
C228 C 0.70759 0.11088 0.31342 0.0
C229 C 0.69669 0.11922 0.29487 0.0
C230 C 0.72475 0.15643 0.28495 0.0
C231 C 0.78612 0.23238 0.28412 0.0
C232 C 0.77538 0.28071 0.29198 0.0
C233 C 0.81053 0.23026 0.26681 0.0
C234 C 0.82216 0.1799 0.2577 0.0
C235 C 0.84862 0.14018 0.26691 0.0
C236 C 0.85728 0.09217 0.2584 0.0
C237 C 0.83971 0.08303 0.2405 0.0
C238 C 0.81445 0.12338 0.2312 0.0
C239 C 0.80574 0.17113 0.2397 0.0
H240 H 0.65461 0.84539 0.74491 0.0
H241 H 0.6388 0.93042 0.73105 0.0
H242 H 0.80465 0.96 0.72859 0.0
H243 H 0.82069 0.87488 0.74259 0.0
H244 H 0.70534 0.75832 0.73542 0.0
H245 H 0.71144 0.88365 0.78131 0.0
H246 H 0.7326 0.9604 0.79965 0.0
H247 H 0.89276 0.91039 0.80327 0.0
H248 H 0.87166 0.83402 0.78462 0.0
H249 H 0.8662 0.6745 0.7796 0.0
H250 H 0.88973 0.60107 0.79881 0.0
H251 H 0.72622 0.56531 0.80708 0.0
H252 H 0.70286 0.63918 0.78783 0.0
H253 H 0.80968 0.75707 0.79233 0.0
H254 H 0.78797 0.63159 0.73912 0.0
H255 H 0.74825 0.55224 0.72621 0.0
H256 H 0.59656 0.60279 0.74449 0.0
H257 H 0.63616 0.68253 0.75692 0.0
C258 C 0.73875 0.85405 0.74488 0.0
C259 C 0.68762 0.86972 0.74112 0.0
C260 C 0.67863 0.91814 0.73328 0.0
C261 C 0.72064 0.95114 0.72883 0.0
C262 C 0.77188 0.9348 0.73188 0.0
C263 C 0.7809 0.8865 0.7399 0.0
C264 C 0.74795 0.80513 0.75491 0.0
C265 C 0.72818 0.75812 0.74786 0.0
C266 C 0.77629 0.80487 0.77143 0.0
C267 C 0.79014 0.85339 0.78136 0.0
C268 C 0.75138 0.88974 0.78569 0.0
C269 C 0.76341 0.93344 0.79626 0.0
C270 C 0.81422 0.94113 0.80296 0.0
C271 C 0.85309 0.905 0.79849 0.0
C272 C 0.84116 0.86156 0.78777 0.0
C273 C 0.78284 0.66194 0.78213 0.0
C274 C 0.83542 0.65049 0.78539 0.0
C275 C 0.84879 0.60886 0.7965 0.0
C276 C 0.80979 0.57787 0.80462 0.0
C277 C 0.75708 0.5884 0.80092 0.0
C278 C 0.7437 0.63034 0.78983 0.0
C279 C 0.7696 0.71024 0.77235 0.0
C280 C 0.78796 0.75734 0.77964 0.0
C281 C 0.73814 0.71073 0.75656 0.0
C282 C 0.71488 0.66266 0.74894 0.0
C283 C 0.74618 0.62552 0.74027 0.0
C284 C 0.72353 0.58049 0.73289 0.0
C285 C 0.66946 0.57165 0.73441 0.0
C286 C 0.63835 0.60873 0.74323 0.0
C287 C 0.66083 0.65418 0.75026 0.0
H288 H 0.44415 0.43371 1.00132 0.0
H289 H 0.37219 0.40268 0.98243 0.0
H290 H 0.34222 0.55987 0.96513 0.0
H291 H 0.41466 0.59102 0.98436 0.0
H292 H 0.53151 0.4797 0.98848 0.0
H293 H 0.39851 0.52244 0.03423 0.0
H294 H 0.32247 0.56394 0.04799 0.0
H295 H 0.37905 0.71342 0.02922 0.0
H296 H 0.45614 0.67164 0.01635 0.0
H297 H 0.6378 0.64485 0.02532 0.0
H298 H 0.71311 0.65911 0.0456 0.0
H299 H 0.6931 0.50427 0.06708 0.0
H300 H 0.61884 0.48983 0.04656 0.0
H301 H 0.52825 0.61029 0.03839 0.0
H302 H 0.65789 0.56932 0.99164 0.0
H303 H 0.73785 0.5299 0.9796 0.0
H304 H 0.6867 0.38027 0.99961 0.0
H305 H 0.60608 0.41972 0.01128 0.0
C306 C 0.43505 0.51463 0.99422 0.0
C307 C 0.42189 0.46166 0.9936 0.0
C308 C 0.38087 0.44395 0.98269 0.0
C309 C 0.35208 0.47871 0.97198 0.0
C310 C 0.36365 0.53216 0.97321 0.0
C311 C 0.40496 0.54997 0.98421 0.0
C312 C 0.48287 0.53148 1.00416 0.0
C313 C 0.53045 0.50801 0.99948 0.0
C314 C 0.48223 0.56969 0.01809 0.0
C315 C 0.43306 0.59403 0.02437 0.0
C316 C 0.39407 0.56408 0.03291 0.0
C317 C 0.35035 0.58794 0.04066 0.0
C318 C 0.34452 0.64229 0.03991 0.0
C319 C 0.38259 0.6717 0.03048 0.0
C320 C 0.42663 0.64789 0.02299 0.0
C321 C 0.6227 0.5664 0.03451 0.0
C322 C 0.65004 0.61389 0.03428 0.0
C323 C 0.69322 0.62179 0.04573 0.0
C324 C 0.70898 0.58267 0.05784 0.0
C325 C 0.68184 0.53499 0.05786 0.0
C326 C 0.63941 0.52678 0.04619 0.0
C327 C 0.57609 0.55769 0.02286 0.0
C328 C 0.529 0.58252 0.02722 0.0
C329 C 0.57689 0.52095 1.00856 0.0
C330 C 0.62627 0.49733 1.00231 0.0
C331 C 0.66406 0.52808 0.99349 0.0
C332 C 0.70949 0.50559 0.98659 0.0
C333 C 0.71821 0.45214 0.98868 0.0
C334 C 0.68089 0.42162 0.99792 0.0
C335 C 0.63493 0.44398 1.00451 0.0
H336 H 0.91911 0.48696 0.46318 0.0
H337 H 0.84536 0.52366 0.44717 0.0
H338 H 0.78542 0.58307 0.49835 0.0
H339 H 0.86249 0.55186 0.51379 0.0
H340 H 0.99501 0.52834 0.47778 0.0
H341 H 0.87115 0.39935 0.50687 0.0
H342 H 0.80193 0.3641 0.52666 0.0
H343 H 0.84175 0.4776 0.56801 0.0
H344 H 0.91073 0.51225 0.54827 0.0
H345 H 0.11536 0.53587 0.52788 0.0
H346 H 0.18877 0.51624 0.54794 0.0
H347 H 0.14212 0.35439 0.54827 0.0
H348 H 0.06856 0.37446 0.52843 0.0
H349 H 0.99008 0.43938 0.53762 0.0
H350 H 0.07701 0.58879 0.48901 0.0
H351 H 0.16263 0.61039 0.4759 0.0
H352 H 0.20262 0.44802 0.47515 0.0
H353 H 0.11675 0.42619 0.48842 0.0
C354 C 0.89649 0.51579 0.48983 0.0
C355 C 0.89024 0.50816 0.47097 0.0
C356 C 0.84736 0.52872 0.46182 0.0
C357 C 0.8088 0.55657 0.47135 0.0
C358 C 0.81449 0.5629 0.49035 0.0
C359 C 0.8582 0.54366 0.49939 0.0
C360 C 0.94484 0.49792 0.49908 0.0
C361 C 0.99353 0.50826 0.49076 0.0
C362 C 0.94399 0.47244 0.51618 0.0
C363 C 0.89561 0.45855 0.5261 0.0
C364 C 0.86391 0.41741 0.51999 0.0
C365 C 0.8249 0.39703 0.53137 0.0
C366 C 0.81688 0.41789 0.54892 0.0
C367 C 0.84684 0.46097 0.55454 0.0
C368 C 0.88616 0.48083 0.54328 0.0
C369 C 0.08687 0.4565 0.52656 0.0
C370 C 0.12156 0.49604 0.53203 0.0
C371 C 0.16333 0.4848 0.54355 0.0
C372 C 0.17091 0.43384 0.54984 0.0
C373 C 0.1367 0.3942 0.54397 0.0
C374 C 0.09499 0.40548 0.53249 0.0
C375 C 0.03917 0.46908 0.5162 0.0
C376 C 0.991 0.45837 0.52442 0.0
C377 C 0.0406 0.49384 0.49905 0.0
C378 C 0.09069 0.50597 0.48978 0.0
C379 C 0.1038 0.55772 0.48578 0.0
C380 C 0.15252 0.57002 0.47831 0.0
C381 C 0.18856 0.5307 0.47449 0.0
C382 C 0.17502 0.47873 0.47789 0.0
C383 C 0.12632 0.46642 0.48553 0.0
Fe384 Fe 0.02031 0.77179 0.16612 0.0
O385 O 0.06422 0.74856 0.14519 0.0
Fe386 Fe 0.89951 0.79226 0.14745 0.0
Fe387 Fe 0.14032 0.75913 0.14545 0.0
O388 O 0.9753 0.80199 0.1469 0.0
O389 O 0.97556 0.80314 0.14507 0.0
O390 O 0.06405 0.74877 0.14325 0.0
Fe391 Fe 0.01925 0.78026 0.12374 0.0
C392 C 0.10727 0.84666 0.17148 0.0
O393 O 0.07233 0.73465 0.18389 0.0
O394 O 0.13601 0.70181 0.16498 0.0
O395 O 0.97706 0.71146 0.12077 0.0
O396 O 0.89595 0.73789 0.12712 0.0
O397 O 0.89996 0.7329 0.16673 0.0
O398 O 0.98057 0.70257 0.16511 0.0
O399 O 0.13848 0.71362 0.12207 0.0
O400 O 0.07333 0.75104 0.10451 0.0
C401 C 0.93277 0.69666 0.1691 0.0
O402 O 0.96428 0.81737 0.1066 0.0
O403 O 0.90065 0.84612 0.12672 0.0
O404 O 0.05956 0.84067 0.16753 0.0
O405 O 0.14085 0.81238 0.16717 0.0
C406 C 0.11002 0.70256 0.18021 0.0
C407 C 0.11503 0.72269 0.10664 0.0
C408 C 0.11113 0.85421 0.12238 0.0
O409 O 0.14269 0.81977 0.1277 0.0
O410 O 0.06161 0.84963 0.12403 0.0
C411 C 0.92749 0.70644 0.11964 0.0
O412 O 0.90537 0.84231 0.16916 0.0
O413 O 0.96975 0.8034 0.18602 0.0
C414 C 0.92308 0.84491 0.11076 0.0
C415 C 0.932 0.83659 0.18403 0.0
Fe416 Fe 0.46585 0.77483 0.43929 0.0
O417 O 0.46496 0.77192 0.41237 0.0
Fe418 Fe 0.4958 0.83702 0.39856 0.0
Fe419 Fe 0.49945 0.71589 0.39775 0.0
O420 O 0.46504 0.7774 0.41245 0.0
O421 O 0.53129 0.78106 0.38434 0.0
O422 O 0.53153 0.77568 0.38431 0.0
Fe423 Fe 0.53407 0.77947 0.35765 0.0
C424 C 0.56395 0.71064 0.43207 0.0
O425 O 0.41783 0.71118 0.43597 0.0
O426 O 0.45923 0.66098 0.41406 0.0
O427 O 0.47546 0.83342 0.35456 0.0
O428 O 0.43313 0.83693 0.38112 0.0
O429 O 0.4523 0.88765 0.41562 0.0
O430 O 0.41142 0.83193 0.43599 0.0
O431 O 0.43695 0.71199 0.38001 0.0
O432 O 0.48096 0.71981 0.35396 0.0
C433 C 0.41647 0.87619 0.42773 0.0
O434 O 0.58279 0.84253 0.36192 0.0
O435 O 0.53473 0.89224 0.38214 0.0
O436 O 0.52561 0.72266 0.44223 0.0
O437 O 0.56286 0.71501 0.41483 0.0
C438 C 0.42513 0.66804 0.42711 0.0
C439 C 0.44291 0.70123 0.36316 0.0
C440 C 0.57918 0.6761 0.36894 0.0
O441 O 0.54202 0.66557 0.38062 0.0
O442 O 0.58752 0.72099 0.36134 0.0
C443 C 0.4364 0.84725 0.36418 0.0
O444 O 0.55917 0.84062 0.41546 0.0
O445 O 0.5201 0.83432 0.44245 0.0
C446 C 0.57225 0.8857 0.37031 0.0
C447 C 0.55917 0.84703 0.43261 0.0
Fe448 Fe 0.49235 0.23006 0.68983 0.0
O449 O 0.49414 0.22295 0.6631 0.0
Fe450 Fe 0.4295 0.24828 0.64796 0.0
Fe451 Fe 0.55106 0.25345 0.64765 0.0
O452 O 0.48887 0.22256 0.66309 0.0
O453 O 0.48643 0.28117 0.63305 0.0
O454 O 0.49195 0.28143 0.63304 0.0
Fe455 Fe 0.4901 0.27622 0.60632 0.0
C456 C 0.55907 0.32526 0.67986 0.0
O457 O 0.55411 0.1804 0.68773 0.0
O458 O 0.60546 0.21736 0.66508 0.0
O459 O 0.43689 0.21624 0.6046 0.0
O460 O 0.43014 0.18145 0.63236 0.0
O461 O 0.37831 0.20786 0.66578 0.0
O462 O 0.43262 0.1764 0.68838 0.0
O463 O 0.55339 0.18713 0.63207 0.0
O464 O 0.55009 0.2233 0.60464 0.0
C465 C 0.38884 0.17741 0.67951 0.0
O466 O 0.426 0.32372 0.60852 0.0
O467 O 0.37513 0.28105 0.62994 0.0
O468 O 0.54761 0.28887 0.69091 0.0
O469 O 0.55247 0.32064 0.66277 0.0
C470 C 0.59756 0.18566 0.67873 0.0
C471 C 0.56562 0.18764 0.61525 0.0
C472 C 0.59351 0.32447 0.61656 0.0
O473 O 0.60284 0.29078 0.62939 0.0
O474 O 0.54863 0.33127 0.60875 0.0
C475 C 0.42302 0.17955 0.61518 0.0
O476 O 0.42408 0.31553 0.6632 0.0
O477 O 0.4353 0.28553 0.69142 0.0
C478 C 0.38167 0.31391 0.61656 0.0
C479 C 0.42104 0.32069 0.68043 0.0
Fe480 Fe 0.04501 0.26371 0.93887 0.0
O481 O 0.04611 0.25751 0.9121 0.0
Fe482 Fe 0.0193 0.32129 0.89701 0.0
Fe483 Fe 0.00972 0.20067 0.8983 0.0
O484 O 0.04684 0.26282 0.91198 0.0
O485 O 0.98148 0.26452 0.88364 0.0
O486 O 0.98101 0.25922 0.88369 0.0
Fe487 Fe 0.9798 0.25883 0.85698 0.0
C488 C 0.08002 0.15412 0.92851 0.0
O489 O 0.98186 0.21423 0.94249 0.0
O490 O 0.94548 0.20348 0.91507 0.0
O491 O 0.93414 0.32395 0.85987 0.0
O492 O 0.98333 0.37488 0.87951 0.0
O493 O 0.95577 0.32883 0.91381 0.0
O494 O 0.99416 0.32548 0.94091 0.0
O495 O 0.96673 0.14909 0.8818 0.0
O496 O 0.92402 0.20159 0.86133 0.0
C497 C 0.95585 0.3378 0.93084 0.0
O498 O 0.0408 0.31033 0.85306 0.0
O499 O 0.08255 0.31788 0.87963 0.0
O500 O 0.08981 0.19785 0.93675 0.0
O501 O 0.04579 0.14679 0.91561 0.0
C502 C 0.94354 0.20135 0.93236 0.0
C503 C 0.93188 0.15706 0.86919 0.0
C504 C 0.0678 0.18048 0.86428 0.0
O505 O 0.07314 0.19301 0.88101 0.0
O506 O 0.03063 0.1979 0.85465 0.0
C507 C 0.94681 0.36828 0.86728 0.0
O508 O 0.06499 0.37269 0.91331 0.0
O509 O 0.10265 0.31838 0.93462 0.0
C510 C 0.08036 0.32425 0.86242 0.0
C511 C 0.10041 0.36148 0.92549 0.0
H512 H 0.2729 1.00422 0.47864 0.0
H513 H 0.15708 0.91161 0.45044 0.0
H514 H 0.22257 0.88302 0.42856 0.0
H515 H 0.31462 0.87327 0.42047 0.0
H516 H 0.43211 0.96206 0.4489 0.0
H517 H 0.36432 1.00473 0.46721 0.0
C518 C 0.2619 0.97869 0.46747 0.0
C519 C 0.21045 0.95898 0.46647 0.0
C520 C 0.30011 0.96189 0.45492 0.0
C521 C 0.19671 0.92613 0.45185 0.0
C522 C 0.23406 0.90998 0.43924 0.0
C523 C 0.32502 0.90363 0.43015 0.0
C524 C 0.37788 0.91517 0.43324 0.0
C525 C 0.28615 0.92609 0.44104 0.0
C526 C 0.39142 0.95355 0.44607 0.0
C527 C 0.35271 0.97719 0.45673 0.0
H528 H 0.29237 0.96477 0.70131 0.0
H529 H 0.28969 0.04138 0.75385 0.0
H530 H 0.31328 0.12344 0.73954 0.0
H531 H 0.34691 0.17042 0.71289 0.0
H532 H 0.34832 0.09599 0.66023 0.0
H533 H 0.31075 0.01668 0.67363 0.0
C534 C 0.29562 0.99957 0.70961 0.0
C535 C 0.29085 0.99621 0.72877 0.0
C536 C 0.30868 0.04719 0.70124 0.0
C537 C 0.29512 0.04209 0.73919 0.0
C538 C 0.30812 0.08931 0.731 0.0
C539 C 0.33699 0.13742 0.70427 0.0
C540 C 0.34995 0.13881 0.68566 0.0
C541 C 0.31676 0.09189 0.71215 0.0
C542 C 0.33778 0.09589 0.67456 0.0
C543 C 0.31712 0.05034 0.68229 0.0
H544 H 0.21687 0.01766 0.97819 0.0
H545 H 0.32391 0.03782 0.93322 0.0
H546 H 0.25426 0.07466 0.9147 0.0
H547 H 0.16716 0.11486 0.91336 0.0
H548 H 0.06222 0.09896 0.95902 0.0
H549 H 0.12609 0.04602 0.97513 0.0
C550 C 0.2246 0.02936 0.96423 0.0
C551 C 0.2755 0.02578 0.95716 0.0
C552 C 0.18467 0.0514 0.95382 0.0
C553 C 0.28498 0.04019 0.93896 0.0
C554 C 0.24526 0.06159 0.92841 0.0
C555 C 0.15779 0.09792 0.92652 0.0
C556 C 0.11025 0.10993 0.93502 0.0
C557 C 0.1955 0.0692 0.93594 0.0
C558 C 0.09849 0.08924 0.95223 0.0
C559 C 0.13519 0.05957 0.96149 0.0
H560 H 0.12587 0.04789 0.22076 0.0
H561 H 0.28943 0.011 0.21804 0.0
H562 H 0.2697 0.93513 0.19882 0.0
H563 H 0.20506 0.87867 0.18291 0.0
H564 H 0.04207 0.9204 0.18487 0.0
H565 H 0.06246 0.99421 0.20425 0.0
C566 C 0.15714 0.02299 0.21606 0.0
C567 C 0.20892 0.03471 0.22094 0.0
C568 C 0.14559 0.98011 0.20484 0.0
C569 C 0.2492 1.00274 0.21444 0.0
C570 C 0.23791 0.95934 0.20348 0.0
C571 C 0.17409 0.90399 0.18754 0.0
C572 C 0.12199 0.89318 0.18254 0.0
C573 C 0.18615 0.94756 0.19857 0.0
C574 C 0.08249 0.92698 0.18858 0.0
C575 C 0.09403 0.96953 0.19969 0.0
H576 H 0.27911 0.05615 0.56152 0.0
H577 H 0.16428 0.10307 0.60123 0.0
H578 H 0.23339 0.13357 0.62168 0.0
H579 H 0.32554 0.15697 0.62654 0.0
H580 H 0.43948 0.11886 0.58543 0.0
H581 H 0.37243 0.07345 0.56753 0.0
C582 C 0.26946 0.07219 0.57479 0.0
C583 C 0.2168 0.07778 0.57983 0.0
C584 C 0.30941 0.091 0.58627 0.0
C585 C 0.20461 0.09901 0.59699 0.0
C586 C 0.24408 0.11628 0.60871 0.0
C587 C 0.33586 0.13699 0.61399 0.0
C588 C 0.38731 0.14027 0.6074 0.0
C589 C 0.29653 0.11375 0.60329 0.0
C590 C 0.40014 0.11594 0.59084 0.0
C591 C 0.36172 0.09057 0.58052 0.0
H592 H 0.21762 1.00286 0.83572 0.0
H593 H 0.0758 0.96091 0.80716 0.0
H594 H 0.03125 0.03407 0.82087 0.0
H595 H 0.03177 0.10987 0.84048 0.0
H596 H 0.16928 0.1508 0.87135 0.0
H597 H 0.21607 0.07731 0.85749 0.0
C598 C 0.17687 0.00941 0.83262 0.0
C599 C 0.15067 0.97677 0.82001 0.0
C600 C 0.15071 0.05132 0.84094 0.0
C601 C 0.09772 0.9861 0.81626 0.0
C602 C 0.0719 0.02776 0.82423 0.0
C603 C 0.07223 0.10319 0.84409 0.0
C604 C 0.09751 0.13644 0.85658 0.0
C605 C 0.09811 0.0608 0.8364 0.0
C606 C 0.14925 0.12606 0.86159 0.0
C607 C 0.17588 0.0841 0.85366 0.0
H608 H 0.29127 0.97436 0.08606 0.0
H609 H 0.2229 0.9043 0.03797 0.0
H610 H 0.14741 0.87651 0.05581 0.0
H611 H 0.10619 0.86232 0.08588 0.0
H612 H 0.17503 0.93173 0.1337 0.0
H613 H 0.2431 0.97237 0.11496 0.0
C614 C 0.2594 0.95438 0.07923 0.0
C615 C 0.26395 0.94068 0.06063 0.0
C616 C 0.2154 0.9391 0.08954 0.0
C617 C 0.22188 0.91404 0.05234 0.0
C618 C 0.17813 0.89858 0.06251 0.0
C619 C 0.13452 0.88864 0.09201 0.0
C620 C 0.13493 0.89519 0.11106 0.0
C621 C 0.17506 0.90971 0.08122 0.0
C622 C 0.17316 0.92745 0.119 0.0
C623 C 0.21269 0.94976 0.10831 0.0
H624 H 0.31138 0.04576 0.34186 0.0
H625 H 0.35208 0.98969 0.2881 0.0
H626 H 0.38922 0.9118 0.30136 0.0
H627 H 0.41725 0.86329 0.32826 0.0
H628 H 0.37417 0.91714 0.382 0.0
H629 H 0.32903 0.99099 0.36861 0.0
C630 C 0.32729 0.0161 0.33297 0.0
C631 C 0.32992 0.02455 0.31398 0.0
C632 C 0.34806 0.97074 0.34067 0.0
C633 C 0.35098 0.98537 0.30278 0.0
C634 C 0.37188 0.94044 0.31034 0.0
C635 C 0.39719 0.89066 0.33704 0.0
C636 C 0.39964 0.88491 0.3561 0.0
C637 C 0.37182 0.93334 0.32928 0.0
C638 C 0.37292 0.92047 0.36728 0.0
C639 C 0.34747 0.96305 0.35963 0.0
H640 H 0.78597 0.10007 0.59459 0.0
H641 H 0.70335 0.05432 0.54595 0.0
H642 H 0.62133 0.08621 0.55903 0.0
H643 H 0.57466 0.13315 0.5836 0.0
H644 H 0.65776 0.17703 0.63234 0.0
H645 H 0.73777 0.13899 0.62025 0.0
C646 C 0.74978 0.09672 0.587 0.0
C647 C 0.75036 0.07542 0.56935 0.0
C648 C 0.70292 0.11441 0.59471 0.0
C649 C 0.70348 0.07068 0.55959 0.0
C650 C 0.65675 0.08898 0.56704 0.0
C651 C 0.61009 0.1331 0.59168 0.0
C652 C 0.6102 0.15639 0.60904 0.0
C653 C 0.65614 0.11163 0.58449 0.0
C654 C 0.65639 0.15723 0.6193 0.0
C655 C 0.70234 0.13637 0.61223 0.0
H656 H 0.73934 0.0388 0.338 0.0
H657 H 0.60133 0.10328 0.31359 0.0
H658 H 0.54632 0.04335 0.33107 0.0
H659 H 0.5378 0.96861 0.35182 0.0
H660 H 0.67592 0.90085 0.37473 0.0
H661 H 0.73059 0.96693 0.35982 0.0
C662 C 0.69721 0.04008 0.33668 0.0
C663 C 0.67449 0.07507 0.3244 0.0
C664 C 0.66586 1.00527 0.34667 0.0
C665 C 0.61982 0.07601 0.3227 0.0
C666 C 0.58831 0.04207 0.33279 0.0
C667 C 0.57975 0.96945 0.35388 0.0
C668 C 0.60309 0.93096 0.36452 0.0
C669 C 0.61091 0.00612 0.34465 0.0
C670 C 0.65745 0.9309 0.36675 0.0
C671 C 0.6886 0.96829 0.35812 0.0
H672 H 0.78599 0.91419 0.04391 0.0
H673 H 0.70357 0.98886 0.08835 0.0
H674 H 0.77321 0.96739 0.10899 0.0
H675 H 0.85153 0.91995 0.11562 0.0
H676 H 0.9293 0.833 0.07325 0.0
H677 H 0.86784 0.86718 0.0507 0.0
C678 C 0.78291 0.92561 0.05811 0.0
C679 C 0.73894 0.95366 0.0643 0.0
C680 C 0.82238 0.91079 0.07039 0.0
C681 C 0.73692 0.9687 0.08279 0.0
C682 C 0.77669 0.95586 0.0948 0.0
C683 C 0.85563 0.90855 0.10143 0.0
C684 C 0.89469 0.87325 0.09624 0.0
C685 C 0.81883 0.926 0.08885 0.0
C686 C 0.89972 0.8601 0.07768 0.0
C687 C 0.86416 0.87921 0.06482 0.0
H688 H 0.86879 0.94148 0.83463 0.0
H689 H 0.7869 0.04216 0.79773 0.0
H690 H 0.81085 0.11757 0.81636 0.0
H691 H 0.86045 0.15523 0.84168 0.0
H692 H 0.94448 0.05466 0.87823 0.0
H693 H 0.91354 0.97883 0.8613 0.0
C694 C 0.85629 0.97999 0.83068 0.0
C695 C 0.82665 0.98641 0.81474 0.0
C696 C 0.87038 0.0231 0.84141 0.0
C697 C 0.80969 0.03628 0.80997 0.0
C698 C 0.82348 0.07938 0.82058 0.0
C699 C 0.87152 0.11677 0.84616 0.0
C700 C 0.9053 0.11097 0.86114 0.0
C701 C 0.85448 0.0733 0.83617 0.0
C702 C 0.9187 0.06058 0.86674 0.0
C703 C 0.90131 0.01707 0.85699 0.0
H704 H 0.7704 0.95447 0.45754 0.0
H705 H 0.72821 0.88048 0.50818 0.0
H706 H 0.64706 0.84768 0.49455 0.0
H707 H 0.58896 0.83906 0.46807 0.0
H708 H 0.63481 0.90698 0.41663 0.0
H709 H 0.71333 0.94357 0.43071 0.0
C710 C 0.74313 0.93143 0.46555 0.0
C711 C 0.75476 0.92005 0.48381 0.0
C712 C 0.69731 0.91169 0.45749 0.0
C713 C 0.71979 0.88958 0.49408 0.0
C714 C 0.67349 0.87094 0.4863 0.0
C715 C 0.61608 0.86195 0.45995 0.0
C716 C 0.60598 0.87027 0.44134 0.0
C717 C 0.66194 0.88159 0.468 0.0
C718 C 0.6417 0.89981 0.43098 0.0
C719 C 0.68662 0.9208 0.43902 0.0
H720 H 0.9257 0.02 0.24104 0.0
H721 H 0.76911 0.03012 0.21971 0.0
H722 H 0.78237 0.95133 0.20193 0.0
H723 H 0.84034 0.88446 0.19029 0.0
H724 H 0.99672 0.87182 0.21138 0.0
H725 H 0.98113 0.94576 0.2318 0.0
C726 C 0.89421 1.00445 0.23274 0.0
C727 C 0.84684 0.03172 0.23142 0.0
C728 C 0.90202 0.9587 0.22251 0.0
C729 C 0.80645 0.01087 0.2206 0.0
C730 C 0.81383 0.96556 0.21051 0.0
C731 C 0.87088 0.89735 0.19953 0.0
C732 C 0.91994 0.87327 0.19906 0.0
C733 C 0.86181 0.93996 0.21101 0.0
C734 C 0.95867 0.88983 0.21139 0.0
C735 C 0.94986 0.93236 0.22298 0.0
H736 H 0.74087 0.15231 0.97798 0.0
H737 H 0.74857 0.0097 0.9467 0.0
H738 H 0.82352 0.04364 0.93004 0.0
H739 H 0.88981 0.11255 0.92501 0.0
H740 H 0.89012 0.24787 0.95971 0.0
H741 H 0.81007 0.21746 0.9747 0.0
C742 C 0.75921 0.12774 0.96785 0.0
C743 C 0.73805 0.07819 0.96377 0.0
C744 C 0.8042 0.14629 0.9589 0.0
C745 C 0.76242 0.04839 0.95004 0.0
C746 C 0.80595 0.06755 0.94055 0.0
C747 C 0.87202 0.13529 0.93581 0.0
C748 C 0.89513 0.18266 0.94116 0.0
C749 C 0.82734 0.11633 0.94492 0.0
C750 C 0.8726 0.21151 0.95535 0.0
C751 C 0.82696 0.19405 0.96392 0.0
H752 H 0.72806 0.98754 0.69418 0.0
H753 H 0.68822 0.03163 0.7492 0.0
H754 H 0.65594 0.11523 0.73845 0.0
H755 H 0.6267 0.1688 0.71314 0.0
H756 H 0.65921 0.12264 0.6578 0.0
H757 H 0.70842 0.04785 0.66875 0.0
C758 C 0.71338 0.0162 0.70374 0.0
C759 C 0.71001 1.00399 0.72237 0.0
C760 C 0.69368 0.06362 0.69737 0.0
C761 C 0.69079 0.04068 0.73479 0.0
C762 C 0.67235 0.08825 0.72865 0.0
C763 C 0.64596 0.14313 0.70352 0.0
C764 C 0.63961 0.15109 0.68472 0.0
C765 C 0.67186 0.09923 0.70993 0.0
C766 C 0.66448 0.11781 0.67231 0.0
C767 C 0.69182 0.07453 0.6786 0.0
H768 H 0.75155 0.4577 0.95371 0.0
H769 H 0.7899 0.39227 1.00597 0.0
H770 H 0.86836 0.35284 0.99287 0.0
H771 H 0.92573 0.33702 0.96647 0.0
H772 H 0.88333 0.39718 0.9137 0.0
H773 H 0.80713 0.43918 0.92709 0.0
C774 C 0.77735 0.43501 0.9622 0.0
C775 C 0.76545 0.42812 0.98077 0.0
C776 C 0.82162 0.41169 0.95449 0.0
C777 C 0.79847 0.39796 0.99163 0.0
C778 C 0.84329 0.37559 0.98416 0.0
C779 C 0.89985 0.35939 0.95791 0.0
C780 C 0.91027 0.36396 0.93912 0.0
C781 C 0.85525 0.38222 0.9656 0.0
C782 C 0.87614 0.39283 0.92819 0.0
C783 C 0.83256 0.41691 0.93583 0.0
H784 H 0.9004 0.4744 0.20382 0.0
H785 H 0.79997 0.56142 0.23963 0.0
H786 H 0.8167 0.64046 0.22188 0.0
H787 H 0.86224 0.68531 0.19663 0.0
H788 H 0.96883 0.59952 0.16259 0.0
H789 H 0.94732 0.51953 0.17902 0.0
C790 C 0.88207 0.51072 0.20762 0.0
C791 C 0.84885 0.51232 0.22289 0.0
C792 C 0.89297 0.55611 0.19764 0.0
C793 C 0.82576 0.55954 0.22791 0.0
C794 C 0.83523 0.60459 0.21775 0.0
C795 C 0.88016 0.64891 0.19269 0.0
C796 C 0.91659 0.64807 0.17831 0.0
C797 C 0.86897 0.60342 0.20263 0.0
C798 C 0.94051 0.60097 0.17359 0.0
C799 C 0.9283 0.55529 0.18299 0.0
H800 H 0.75664 0.64625 0.47958 0.0
H801 H 0.75842 0.51966 0.44065 0.0
H802 H 0.6867 0.55895 0.42414 0.0
H803 H 0.62073 0.62766 0.42126 0.0
H804 H 0.61127 0.74646 0.46266 0.0
H805 H 0.68803 0.71132 0.47788 0.0
C806 C 0.74097 0.62638 0.46772 0.0
C807 C 0.76366 0.57986 0.46148 0.0
C808 C 0.69809 0.64792 0.45868 0.0
C809 C 0.74302 0.556 0.44569 0.0
C810 C 0.70148 0.57821 0.43627 0.0
C811 C 0.63585 0.64587 0.43356 0.0
C812 C 0.61103 0.68983 0.44078 0.0
C813 C 0.67858 0.62405 0.44266 0.0
C814 C 0.63011 0.71273 0.45686 0.0
C815 C 0.67385 0.69257 0.46556 0.0
H816 H 0.67546 0.53569 0.69967 0.0
H817 H 0.60905 0.50116 0.75239 0.0
H818 H 0.56937 0.42143 0.74022 0.0
H819 H 0.55464 0.36125 0.7147 0.0
H820 H 0.61611 0.39849 0.66138 0.0
H821 H 0.6568 0.47739 0.67365 0.0
C822 C 0.65242 0.51046 0.70844 0.0
C823 C 0.64542 0.52375 0.72689 0.0
C824 C 0.62891 0.46534 0.70125 0.0
C825 C 0.61486 0.49147 0.73813 0.0
C826 C 0.5923 0.44596 0.73119 0.0
C827 C 0.57679 0.38669 0.70573 0.0
C828 C 0.58243 0.37386 0.68716 0.0
C829 C 0.59917 0.43246 0.71279 0.0
C830 C 0.61102 0.40747 0.67572 0.0
C831 C 0.63443 0.45254 0.68273 0.0
H832 H 0.80926 0.61687 0.05214 0.0
H833 H 0.70071 0.57224 0.09446 0.0
H834 H 0.76365 0.59834 0.1178 0.0
H835 H 0.8446 0.64421 0.12608 0.0
H836 H 0.95455 0.6882 0.08422 0.0
H837 H 0.8971 0.65061 0.06083 0.0
C838 C 0.79987 0.61233 0.06649 0.0
C839 C 0.75023 0.59326 0.07161 0.0
C840 C 0.83663 0.62697 0.07989 0.0
C841 C 0.73862 0.58686 0.09021 0.0
C842 C 0.77456 0.60185 0.10356 0.0
C843 C 0.85675 0.64381 0.11188 0.0
C844 C 0.90368 0.6687 0.10685 0.0
C845 C 0.82308 0.62315 0.09856 0.0
C846 C 0.91899 0.66845 0.08843 0.0
C847 C 0.88568 0.64776 0.07504 0.0
H848 H 0.74415 0.53266 0.33123 0.0
H849 H 0.60377 0.45142 0.31488 0.0
H850 H 0.55116 0.51018 0.33351 0.0
H851 H 0.54487 0.58714 0.35345 0.0
H852 H 0.6846 0.67197 0.36787 0.0
H853 H 0.73803 0.60841 0.35155 0.0
C854 C 0.70208 0.52765 0.33187 0.0
C855 C 0.67784 0.48801 0.32164 0.0
C856 C 0.67213 0.56178 0.34247 0.0
C857 C 0.62324 0.48221 0.32243 0.0
C858 C 0.59319 0.51547 0.33319 0.0
C859 C 0.5871 0.59083 0.3533 0.0
C860 C 0.61115 0.63334 0.362 0.0
C861 C 0.61719 0.55558 0.34319 0.0
C862 C 0.66565 0.63894 0.3614 0.0
C863 C 0.69604 0.60295 0.35196 0.0
H864 H 0.7442 0.46493 0.57022 0.0
H865 H 0.80756 0.31489 0.55676 0.0
H866 H 0.7483 0.27332 0.57859 0.0
H867 H 0.67551 0.27926 0.60045 0.0
H868 H 0.60748 0.42818 0.61208 0.0
H869 H 0.67248 0.47105 0.5925 0.0
C870 C 0.74514 0.42319 0.57217 0.0
C871 C 0.77986 0.39295 0.56184 0.0
C872 C 0.71066 0.39958 0.58461 0.0
C873 C 0.78051 0.33884 0.56435 0.0
C874 C 0.74702 0.31513 0.57694 0.0
C875 C 0.67602 0.32123 0.59901 0.0
C876 C 0.6379 0.35094 0.60788 0.0
C877 C 0.71173 0.34507 0.58706 0.0
C878 C 0.63731 0.40499 0.60555 0.0
C879 C 0.67404 0.4293 0.59425 0.0
H880 H 0.88224 0.58037 0.83162 0.0
H881 H 0.76999 0.47918 0.80533 0.0
H882 H 0.7988 0.40658 0.82406 0.0
H883 H 0.86046 0.37057 0.84588 0.0
H884 H 0.97523 0.47071 0.8715 0.0
H885 H 0.9403 0.54526 0.85517 0.0
C886 C 0.86413 0.54238 0.83001 0.0
C887 C 0.8245 0.53494 0.81696 0.0
C888 C 0.88129 0.50074 0.84067 0.0
C889 C 0.80048 0.48589 0.8153 0.0
C890 C 0.8171 0.44435 0.82594 0.0
C891 C 0.87771 0.40872 0.84805 0.0
C892 C 0.92094 0.41477 0.85974 0.0
C893 C 0.85814 0.45115 0.83839 0.0
C894 C 0.94205 0.46476 0.86257 0.0
C895 C 0.92231 0.50741 0.85315 0.0
H896 H 0.24294 0.6093 0.0453 0.0
H897 H 0.35017 0.73454 0.05843 0.0
H898 H 0.28487 0.77399 0.07796 0.0
H899 H 0.20168 0.76804 0.0943 0.0
H900 H 0.09554 0.64122 0.08335 0.0
H901 H 0.15588 0.60704 0.06012 0.0
C902 C 0.25207 0.64522 0.05241 0.0
C903 C 0.30187 0.66854 0.05032 0.0
C904 C 0.21458 0.66725 0.06416 0.0
C905 C 0.31227 0.71578 0.05943 0.0
C906 C 0.27502 0.73829 0.07081 0.0
C907 C 0.19145 0.73348 0.08651 0.0
C908 C 0.14455 0.70707 0.09033 0.0
C909 C 0.22669 0.71372 0.07363 0.0
C910 C 0.13139 0.66225 0.08039 0.0
C911 C 0.16607 0.64261 0.06727 0.0
H912 H 0.20274 0.46537 0.80716 0.0
H913 H 0.20208 0.5683 0.8538 0.0
H914 H 0.167 0.49883 0.87283 0.0
H915 H 0.12641 0.41207 0.87548 0.0
H916 H 0.11925 0.31227 0.8282 0.0
H917 H 0.16749 0.37683 0.81028 0.0
C918 C 0.19496 0.47272 0.82148 0.0
C919 C 0.2049 0.52239 0.8289 0.0
C920 C 0.17323 0.43293 0.8323 0.0
C921 C 0.19551 0.53053 0.84764 0.0
C922 C 0.175 0.49082 0.85857 0.0
C923 C 0.13684 0.40392 0.86141 0.0
C924 C 0.11968 0.35739 0.85318 0.0
C925 C 0.16256 0.44222 0.85097 0.0
C926 C 0.13233 0.34776 0.83482 0.0
C927 C 0.15954 0.38482 0.82455 0.0
H928 H 0.16809 0.37094 0.57964 0.0
H929 H 0.27132 0.47004 0.54835 0.0
H930 H 0.34423 0.4464 0.56788 0.0
H931 H 0.37989 0.39252 0.592 0.0
H932 H 0.27837 0.28932 0.62242 0.0
H933 H 0.20335 0.32017 0.60514 0.0
C934 C 0.2066 0.38723 0.57707 0.0
C935 C 0.21436 0.4218 0.56243 0.0
C936 C 0.24856 0.37281 0.58818 0.0
C937 C 0.2642 0.44357 0.55956 0.0
C938 C 0.30597 0.42987 0.57067 0.0
C939 C 0.34135 0.37693 0.59502 0.0
C940 C 0.33502 0.33813 0.60837 0.0
C941 C 0.29875 0.39383 0.58477 0.0
C942 C 0.28453 0.31915 0.61223 0.0
C943 C 0.24163 0.33651 0.60226 0.0
H944 H 0.29519 0.51753 0.33568 0.0
H945 H 0.43104 0.49041 0.30192 0.0
H946 H 0.47404 0.56599 0.31497 0.0
H947 H 0.47437 0.63925 0.33573 0.0
H948 H 0.3445 0.66403 0.37222 0.0
H949 H 0.29815 0.58958 0.35844 0.0
C950 C 0.33434 0.52783 0.33127 0.0
C951 C 0.35901 0.49855 0.3174 0.0
C952 C 0.35994 0.57108 0.33926 0.0
C953 C 0.40996 0.51285 0.312 0.0
C954 C 0.435 0.55598 0.3196 0.0
C955 C 0.43563 0.62894 0.34062 0.0
C956 C 0.41251 0.65793 0.35477 0.0
C957 C 0.41025 0.58553 0.33309 0.0
C958 C 0.36292 0.64281 0.3612 0.0
C959 C 0.33655 0.60015 0.35335 0.0
H960 H 0.25324 0.51533 0.96528 0.0
H961 H 0.36151 0.39574 0.94934 0.0
H962 H 0.2942 0.35338 0.93112 0.0
H963 H 0.20243 0.34392 0.92284 0.0
H964 H 0.09213 0.46115 0.93849 0.0
H965 H 0.16239 0.51175 0.9532 0.0
C966 C 0.26224 0.48056 0.95754 0.0
C967 C 0.31204 0.458 0.95909 0.0
C968 C 0.22299 0.45605 0.94701 0.0
C969 C 0.32315 0.41307 0.94887 0.0
C970 C 0.28477 0.38895 0.93832 0.0
C971 C 0.19418 0.38135 0.92903 0.0
C972 C 0.14255 0.39903 0.9296 0.0
C973 C 0.23426 0.40915 0.93776 0.0
C974 C 0.13187 0.44726 0.93771 0.0
C975 C 0.17193 0.47574 0.94631 0.0
H976 H 0.29947 0.51572 0.70974 0.0
H977 H 0.43178 0.52037 0.74634 0.0
H978 H 0.46723 0.44377 0.73168 0.0
H979 H 0.46043 0.37409 0.70888 0.0
H980 H 0.33577 0.37564 0.66957 0.0
H981 H 0.2984 0.45232 0.68456 0.0
C982 C 0.33658 0.50098 0.71439 0.0
C983 C 0.36189 0.52394 0.72956 0.0
C984 C 0.35834 0.45797 0.70533 0.0
C985 C 0.40983 0.50299 0.73527 0.0
C986 C 0.43075 0.45932 0.72671 0.0
C987 C 0.42533 0.39157 0.70353 0.0
C988 C 0.40053 0.36924 0.6883 0.0
C989 C 0.40511 0.43624 0.71187 0.0
C990 C 0.35542 0.39234 0.68131 0.0
C991 C 0.33404 0.43596 0.68992 0.0
H992 H 0.22973 0.52566 0.44022 0.0
H993 H 0.2648 0.56956 0.49566 0.0
H994 H 0.34789 0.60793 0.48591 0.0
H995 H 0.4034 0.64 0.46132 0.0
H996 H 0.36776 0.60188 0.40543 0.0
H997 H 0.29284 0.54879 0.41553 0.0
C998 C 0.25637 0.54264 0.4501 0.0
C999 C 0.24167 0.54524 0.46858 0.0
C1000 C 0.30364 0.56566 0.44429 0.0
C1001 C 0.27577 0.56744 0.48139 0.0
C1002 C 0.32305 0.58938 0.47581 0.0
C1003 C 0.37995 0.6189 0.45139 0.0
C1004 C 0.39053 0.62491 0.43271 0.0
C1005 C 0.33642 0.59028 0.45726 0.0
C1006 C 0.36037 0.59738 0.41991 0.0
C1007 C 0.31722 0.56765 0.42568 0.0
H1008 H 0.12378 0.51705 0.23614 0.0
H1009 H 0.28004 0.51136 0.21397 0.0
H1010 H 0.26272 0.58755 0.19544 0.0
H1011 H 0.20219 0.65299 0.18424 0.0
H1012 H 0.04655 0.66112 0.20667 0.0
H1013 H 0.06514 0.58768 0.22669 0.0
C1014 C 0.15434 0.53294 0.22749 0.0
C1015 C 0.20289 0.50775 0.22627 0.0
C1016 C 0.1443 0.57731 0.21691 0.0
C1017 C 0.24186 0.52895 0.21487 0.0
C1018 C 0.23215 0.57282 0.20433 0.0
C1019 C 0.17242 0.639 0.19361 0.0
C1020 C 0.12301 0.66239 0.19388 0.0
C1021 C 0.18328 0.59676 0.205 0.0
C1022 C 0.08507 0.64409 0.20626 0.0
C1023 C 0.09556 0.60184 0.21763 0.0
loop_
_geom_bond_atom_site_label_1
_geom_bond_atom_site_label_2
_geom_bond_distance
_geom_bond_site_symmetry_2
_ccdc_geom_bond_type
H0 C19 0.949 . S
H1 C20 0.950 . S
H2 C22 0.950 1_545 S
H3 C23 0.950 . S
H4 C25 0.950 . S
H5 C28 0.950 1_565 S
H6 C29 0.950 . S
H7 C31 0.951 . S
H8 C32 0.949 . S
H9 C34 0.949 . S
H10 C35 0.950 . S
H11 C37 0.950 . S
H12 C38 0.950 1_565 S
H13 C40 0.950 . S
H14 C43 0.950 . S
H15 C44 0.950 1_545 S
H16 C46 0.951 . S
H17 C47 0.949 . S
C18 C19 1.376 . S
C18 C23 1.386 1_565 S
C18 C24 1.483 . S
C19 H0 0.949 . S
C19 C18 1.376 . S
C19 C20 1.397 . S
C20 H1 0.950 . S
C20 C19 1.397 . S
C20 C21 1.391 . S
C21 C20 1.391 . S
C21 C22 1.405 . S
C22 H2 0.950 1_565 S
C22 C21 1.405 . S
C22 C23 1.367 1_565 S
C23 H3 0.950 . S
C23 C18 1.386 1_545 S
C23 C22 1.367 1_545 S
C24 C18 1.483 . S
C24 C25 1.382 . S
C24 C26 1.403 1_565 S
C25 H4 0.950 . S
C25 C24 1.382 . S
C25 C41 1.411 1_655 S
C26 C24 1.403 1_545 S
C26 C27 1.489 . S
C26 C40 1.411 1_655 S
C27 C26 1.489 . S
C27 C28 1.383 . S
C27 C32 1.382 . S
C28 H5 0.950 1_545 S
C28 C27 1.383 . S
C28 C29 1.395 . S
C29 H6 0.950 . S
C29 C28 1.395 . S
C29 C30 1.288 . S
C30 C29 1.288 . S
C30 C31 1.392 . S
C31 H7 0.951 . S
C31 C30 1.392 . S
C31 C32 1.392 . S
C32 H8 0.949 . S
C32 C27 1.382 . S
C32 C31 1.392 . S
C33 C34 1.376 . S
C33 C38 1.386 . S
C33 C39 1.483 . S
C34 H9 0.949 . S
C34 C33 1.376 . S
C34 C35 1.397 . S
C35 H10 0.950 . S
C35 C34 1.397 . S
C35 C36 1.391 . S
C36 C35 1.391 . S
C36 C37 1.405 . S
C37 H11 0.950 . S
C37 C36 1.405 . S
C37 C38 1.367 . S
C38 H12 0.950 1_545 S
C38 C33 1.386 . S
C38 C37 1.367 . S
C39 C33 1.483 . S
C39 C40 1.382 . S
C39 C41 1.403 1_545 S
C40 H13 0.950 . S
C40 C26 1.411 1_455 S
C40 C39 1.382 . S
C41 C25 1.411 1_455 S
C41 C39 1.403 1_565 S
C41 C42 1.489 . S
C42 C41 1.489 . S
C42 C43 1.383 1_565 S
C42 C47 1.382 . S
C43 H14 0.950 . S
C43 C42 1.383 1_545 S
C43 C44 1.395 1_545 S
C44 H15 0.950 1_565 S
C44 C43 1.395 1_565 S
C44 C45 1.288 . S
C45 C44 1.288 . S
C45 C46 1.392 . S
C46 H16 0.951 . S
C46 C45 1.392 . S
C46 C47 1.392 . S
C47 H17 0.949 . S
C47 C42 1.382 . S
C47 C46 1.392 . S
H48 C67 0.949 . S
H49 C68 0.950 . S
H50 C70 0.950 . S
H51 C71 0.950 . S
H52 C73 0.950 . S
H53 C76 0.950 . S
H54 C77 0.950 . S
H55 C79 0.951 . S
H56 C80 0.949 . S
H57 C82 0.949 . S
H58 C83 0.950 . S
H59 C85 0.950 . S
H60 C86 0.950 . S
H61 C88 0.950 . S
H62 C91 0.950 . S
H63 C92 0.950 . S
H64 C94 0.951 . S
H65 C95 0.949 . S
C66 C67 1.376 . S
C66 C71 1.386 . S
C66 C72 1.483 . S
C67 H48 0.949 . S
C67 C66 1.376 . S
C67 C68 1.397 . S
C68 H49 0.950 . S
C68 C67 1.397 . S
C68 C69 1.391 . S
C69 C68 1.391 . S
C69 C70 1.405 . S
C70 H50 0.950 . S
C70 C69 1.405 . S
C70 C71 1.367 . S
C71 H51 0.950 . S
C71 C66 1.386 . S
C71 C70 1.367 . S
C72 C66 1.483 . S
C72 C73 1.382 . S
C72 C74 1.403 . S
C73 H52 0.950 . S
C73 C72 1.382 . S
C73 C89 1.411 . S
C74 C72 1.403 . S
C74 C75 1.489 . S
C74 C88 1.411 . S
C75 C74 1.489 . S
C75 C76 1.383 . S
C75 C80 1.382 . S
C76 H53 0.950 . S
C76 C75 1.383 . S
C76 C77 1.395 . S
C77 H54 0.950 . S
C77 C76 1.395 . S
C77 C78 1.288 . S
C78 C77 1.288 . S
C78 C79 1.392 . S
C79 H55 0.951 . S
C79 C78 1.392 . S
C79 C80 1.392 . S
C80 H56 0.949 . S
C80 C75 1.382 . S
C80 C79 1.392 . S
C81 C82 1.376 . S
C81 C86 1.386 . S
C81 C87 1.483 . S
C82 H57 0.949 . S
C82 C81 1.376 . S
C82 C83 1.397 . S
C83 H58 0.950 . S
C83 C82 1.397 . S
C83 C84 1.391 . S
C84 C83 1.391 . S
C84 C85 1.405 . S
C85 H59 0.950 . S
C85 C84 1.405 . S
C85 C86 1.367 . S
C86 H60 0.950 . S
C86 C81 1.386 . S
C86 C85 1.367 . S
C87 C81 1.483 . S
C87 C88 1.382 . S
C87 C89 1.403 . S
C88 H61 0.950 . S
C88 C74 1.411 . S
C88 C87 1.382 . S
C89 C73 1.411 . S
C89 C87 1.403 . S
C89 C90 1.489 . S
C90 C89 1.489 . S
C90 C91 1.383 . S
C90 C95 1.382 . S
C91 H62 0.950 . S
C91 C90 1.383 . S
C91 C92 1.395 . S
C92 H63 0.950 . S
C92 C91 1.395 . S
C92 C93 1.288 . S
C93 C92 1.288 . S
C93 C94 1.392 . S
C94 H64 0.951 . S
C94 C93 1.392 . S
C94 C95 1.392 . S
C95 H65 0.949 . S
C95 C90 1.382 . S
C95 C94 1.392 . S
H96 C115 0.949 1_545 S
H97 C116 0.950 . S
H98 C118 0.950 . S
H99 C119 0.950 . S
H100 C121 0.950 . S
H101 C124 0.971 . S
H102 C125 0.950 . S
H103 C127 0.951 . S
H104 C128 0.949 . S
H105 C130 0.949 1_565 S
H106 C131 0.950 . S
H107 C133 0.950 . S
H108 C134 0.950 . S
H109 C136 0.950 . S
H110 C139 0.950 . S
H111 C140 0.950 . S
H112 C142 0.951 . S
H113 C143 0.955 . S
C114 C115 1.376 . S
C114 C119 1.386 . S
C114 C120 1.483 . S
C115 H96 0.949 1_565 S
C115 C114 1.376 . S
C115 C116 1.397 . S
C116 H97 0.950 . S
C116 C115 1.397 . S
C116 C117 1.391 . S
C117 C116 1.391 . S
C117 C118 1.405 . S
C118 H98 0.950 . S
C118 C117 1.405 . S
C118 C119 1.367 . S
C119 H99 0.950 . S
C119 C114 1.386 . S
C119 C118 1.367 . S
C120 C114 1.483 . S
C120 C121 1.382 . S
C120 C122 1.403 1_565 S
C121 H100 0.950 . S
C121 C120 1.382 . S
C121 C137 1.411 . S
C122 C120 1.403 1_545 S
C122 C123 1.489 1_554 S
C122 C136 1.411 1_554 S
C123 C122 1.489 1_556 S
C123 C124 1.373 1_556 S
C123 C128 1.382 . S
C124 H101 0.971 . S
C124 C123 1.373 1_554 S
C124 C125 1.384 1_554 S
C125 H102 0.950 . S
C125 C124 1.384 1_556 S
C125 C126 1.288 . S
C126 C125 1.288 . S
C126 C127 1.392 . S
C127 H103 0.951 . S
C127 C126 1.392 . S
C127 C128 1.392 . S
C128 H104 0.949 . S
C128 C123 1.382 . S
C128 C127 1.392 . S
C129 C130 1.376 . S
C129 C134 1.386 1_556 S
C129 C135 1.483 1_556 S
C130 H105 0.949 1_545 S
C130 C129 1.376 . S
C130 C131 1.397 . S
C131 H106 0.950 . S
C131 C130 1.397 . S
C131 C132 1.391 . S
C132 C131 1.391 . S
C132 C133 1.405 . S
C133 H107 0.950 . S
C133 C132 1.405 . S
C133 C134 1.367 1_556 S
C134 H108 0.950 . S
C134 C129 1.386 1_554 S
C134 C133 1.367 1_554 S
C135 C129 1.483 1_554 S
C135 C136 1.382 1_554 S
C135 C137 1.403 1_545 S
C136 H109 0.950 . S
C136 C122 1.411 1_556 S
C136 C135 1.382 1_556 S
C137 C121 1.411 . S
C137 C135 1.403 1_565 S
C137 C138 1.489 . S
C138 C137 1.489 . S
C138 C139 1.383 . S
C138 C143 1.382 . S
C139 H110 0.950 . S
C139 C138 1.383 . S
C139 C140 1.395 . S
C140 H111 0.950 . S
C140 C139 1.395 . S
C140 C141 1.288 . S
C141 C140 1.288 . S
C141 C142 1.392 . S
C142 H112 0.951 . S
C142 C141 1.392 . S
C142 C143 1.392 . S
C143 H113 0.955 . S
C143 C138 1.382 . S
C143 C142 1.392 . S
H144 C163 0.949 . S
H145 C164 0.950 . S
H146 C166 0.950 . S
H147 C167 0.950 . S
H148 C169 0.950 . S
H149 C172 0.950 . S
H150 C173 0.950 . S
H151 C175 0.951 . S
H152 C176 0.949 . S
H153 C178 0.949 . S
H154 C179 0.950 . S
H155 C181 0.950 . S
H156 C182 0.950 . S
H157 C184 0.950 . S
H158 C187 0.950 . S
H159 C188 0.950 . S
H160 C190 0.951 . S
H161 C191 0.949 . S
C162 C163 1.376 . S
C162 C167 1.386 . S
C162 C168 1.483 . S
C163 H144 0.949 . S
C163 C162 1.376 . S
C163 C164 1.397 . S
C164 H145 0.950 . S
C164 C163 1.397 . S
C164 C165 1.391 . S
C165 C164 1.391 . S
C165 C166 1.405 . S
C166 H146 0.950 . S
C166 C165 1.405 . S
C166 C167 1.367 . S
C167 H147 0.950 . S
C167 C162 1.386 . S
C167 C166 1.367 . S
C168 C162 1.483 . S
C168 C169 1.382 . S
C168 C170 1.403 . S
C169 H148 0.950 . S
C169 C168 1.382 . S
C169 C185 1.411 . S
C170 C168 1.403 . S
C170 C171 1.489 . S
C170 C184 1.411 . S
C171 C170 1.489 . S
C171 C172 1.383 . S
C171 C176 1.382 . S
C172 H149 0.950 . S
C172 C171 1.383 . S
C172 C173 1.395 . S
C173 H150 0.950 . S
C173 C172 1.395 . S
C173 C174 1.288 . S
C174 C173 1.288 . S
C174 C175 1.392 . S
C175 H151 0.951 . S
C175 C174 1.392 . S
C175 C176 1.392 . S
C176 H152 0.949 . S
C176 C171 1.382 . S
C176 C175 1.392 . S
C177 C178 1.376 . S
C177 C182 1.386 . S
C177 C183 1.483 . S
C178 H153 0.949 . S
C178 C177 1.376 . S
C178 C179 1.397 . S
C179 H154 0.950 . S
C179 C178 1.397 . S
C179 C180 1.391 . S
C180 C179 1.391 . S
C180 C181 1.405 . S
C181 H155 0.950 . S
C181 C180 1.405 . S
C181 C182 1.367 . S
C182 H156 0.950 . S
C182 C177 1.386 . S
C182 C181 1.367 . S
C183 C177 1.483 . S
C183 C184 1.382 . S
C183 C185 1.403 . S
C184 H157 0.950 . S
C184 C170 1.411 . S
C184 C183 1.382 . S
C185 C169 1.411 . S
C185 C183 1.403 . S
C185 C186 1.489 . S
C186 C185 1.489 . S
C186 C187 1.383 . S
C186 C191 1.382 . S
C187 H158 0.950 . S
C187 C186 1.383 . S
C187 C188 1.395 . S
C188 H159 0.950 . S
C188 C187 1.395 . S
C188 C189 1.288 . S
C189 C188 1.288 . S
C189 C190 1.392 . S
C190 H160 0.951 . S
C190 C189 1.392 . S
C190 C191 1.392 . S
C191 H161 0.949 . S
C191 C186 1.382 . S
C191 C190 1.392 . S
H192 C211 0.949 . S
H193 C212 0.950 . S
H194 C214 0.950 . S
H195 C215 0.950 . S
H196 C217 0.950 . S
H197 C220 0.950 . S
H198 C221 0.950 . S
H199 C223 0.951 . S
H200 C224 0.949 . S
H201 C226 0.949 . S
H202 C227 0.950 . S
H203 C229 0.950 . S
H204 C230 0.950 . S
H205 C232 0.950 . S
H206 C235 0.950 . S
H207 C236 0.950 . S
H208 C238 0.951 . S
H209 C239 0.949 . S
C210 C211 1.376 . S
C210 C215 1.386 . S
C210 C216 1.483 . S
C211 H192 0.949 . S
C211 C210 1.376 . S
C211 C212 1.397 . S
C212 H193 0.950 . S
C212 C211 1.397 . S
C212 C213 1.391 . S
C213 C212 1.391 . S
C213 C214 1.405 . S
C214 H194 0.950 . S
C214 C213 1.405 . S
C214 C215 1.367 . S
C215 H195 0.950 . S
C215 C210 1.386 . S
C215 C214 1.367 . S
C216 C210 1.483 . S
C216 C217 1.382 . S
C216 C218 1.403 . S
C217 H196 0.950 . S
C217 C216 1.382 . S
C217 C233 1.411 . S
C218 C216 1.403 . S
C218 C219 1.489 . S
C218 C232 1.411 . S
C219 C218 1.489 . S
C219 C220 1.383 . S
C219 C224 1.382 . S
C220 H197 0.950 . S
C220 C219 1.383 . S
C220 C221 1.395 . S
C221 H198 0.950 . S
C221 C220 1.395 . S
C221 C222 1.288 . S
C222 C221 1.288 . S
C222 C223 1.392 . S
C223 H199 0.951 . S
C223 C222 1.392 . S
C223 C224 1.392 . S
C224 H200 0.949 . S
C224 C219 1.382 . S
C224 C223 1.392 . S
C225 C226 1.376 . S
C225 C230 1.386 . S
C225 C231 1.483 . S
C226 H201 0.949 . S
C226 C225 1.376 . S
C226 C227 1.397 . S
C227 H202 0.950 . S
C227 C226 1.397 . S
C227 C228 1.391 . S
C228 C227 1.391 . S
C228 C229 1.405 . S
C229 H203 0.950 . S
C229 C228 1.405 . S
C229 C230 1.367 . S
C230 H204 0.950 . S
C230 C225 1.386 . S
C230 C229 1.367 . S
C231 C225 1.483 . S
C231 C232 1.382 . S
C231 C233 1.403 . S
C232 H205 0.950 . S
C232 C218 1.411 . S
C232 C231 1.382 . S
C233 C217 1.411 . S
C233 C231 1.403 . S
C233 C234 1.489 . S
C234 C233 1.489 . S
C234 C235 1.383 . S
C234 C239 1.382 . S
C235 H206 0.950 . S
C235 C234 1.383 . S
C235 C236 1.395 . S
C236 H207 0.950 . S
C236 C235 1.395 . S
C236 C237 1.288 . S
C237 C236 1.288 . S
C237 C238 1.392 . S
C238 H208 0.951 . S
C238 C237 1.392 . S
C238 C239 1.392 . S
C239 H209 0.949 . S
C239 C234 1.382 . S
C239 C238 1.392 . S
H240 C259 0.949 . S
H241 C260 0.950 . S
H242 C262 0.950 . S
H243 C263 0.950 . S
H244 C265 0.950 . S
H245 C268 0.950 . S
H246 C269 0.950 . S
H247 C271 0.951 . S
H248 C272 0.949 . S
H249 C274 0.949 . S
H250 C275 0.950 . S
H251 C277 0.950 . S
H252 C278 0.950 . S
H253 C280 0.950 . S
H254 C283 0.950 . S
H255 C284 0.950 . S
H256 C286 0.951 . S
H257 C287 0.949 . S
C258 C259 1.376 . S
C258 C263 1.386 . S
C258 C264 1.483 . S
C259 H240 0.949 . S
C259 C258 1.376 . S
C259 C260 1.397 . S
C260 H241 0.950 . S
C260 C259 1.397 . S
C260 C261 1.391 . S
C261 C260 1.391 . S
C261 C262 1.405 . S
C262 H242 0.950 . S
C262 C261 1.405 . S
C262 C263 1.367 . S
C263 H243 0.950 . S
C263 C258 1.386 . S
C263 C262 1.367 . S
C264 C258 1.483 . S
C264 C265 1.382 . S
C264 C266 1.403 . S
C265 H244 0.950 . S
C265 C264 1.382 . S
C265 C281 1.411 . S
C266 C264 1.403 . S
C266 C267 1.489 . S
C266 C280 1.411 . S
C267 C266 1.489 . S
C267 C268 1.383 . S
C267 C272 1.382 . S
C268 H245 0.950 . S
C268 C267 1.383 . S
C268 C269 1.395 . S
C269 H246 0.950 . S
C269 C268 1.395 . S
C269 C270 1.288 . S
C270 C269 1.288 . S
C270 C271 1.392 . S
C271 H247 0.951 . S
C271 C270 1.392 . S
C271 C272 1.392 . S
C272 H248 0.949 . S
C272 C267 1.382 . S
C272 C271 1.392 . S
C273 C274 1.376 . S
C273 C278 1.386 . S
C273 C279 1.483 . S
C274 H249 0.949 . S
C274 C273 1.376 . S
C274 C275 1.397 . S
C275 H250 0.950 . S
C275 C274 1.397 . S
C275 C276 1.391 . S
C276 C275 1.391 . S
C276 C277 1.405 . S
C277 H251 0.950 . S
C277 C276 1.405 . S
C277 C278 1.367 . S
C278 H252 0.950 . S
C278 C273 1.386 . S
C278 C277 1.367 . S
C279 C273 1.483 . S
C279 C280 1.382 . S
C279 C281 1.403 . S
C280 H253 0.950 . S
C280 C266 1.411 . S
C280 C279 1.382 . S
C281 C265 1.411 . S
C281 C279 1.403 . S
C281 C282 1.489 . S
C282 C281 1.489 . S
C282 C283 1.383 . S
C282 C287 1.382 . S
C283 H254 0.950 . S
C283 C282 1.383 . S
C283 C284 1.395 . S
C284 H255 0.950 . S
C284 C283 1.395 . S
C284 C285 1.288 . S
C285 C284 1.288 . S
C285 C286 1.392 . S
C286 H256 0.951 . S
C286 C285 1.392 . S
C286 C287 1.392 . S
C287 H257 0.949 . S
C287 C282 1.382 . S
C287 C286 1.392 . S
H288 C307 0.949 . S
H289 C308 0.950 . S
H290 C310 0.950 . S
H291 C311 0.950 . S
H292 C313 0.950 . S
H293 C316 0.950 . S
H294 C317 0.950 . S
H295 C319 0.951 . S
H296 C320 0.949 . S
H297 C322 0.949 . S
H298 C323 0.950 . S
H299 C325 0.950 . S
H300 C326 0.950 . S
H301 C328 0.950 . S
H302 C331 0.950 . S
H303 C332 0.950 . S
H304 C334 0.951 . S
H305 C335 0.949 . S
C306 C307 1.376 . S
C306 C311 1.386 . S
C306 C312 1.483 1_556 S
C307 H288 0.949 . S
C307 C306 1.376 . S
C307 C308 1.397 . S
C308 H289 0.950 . S
C308 C307 1.397 . S
C308 C309 1.391 . S
C309 C308 1.391 . S
C309 C310 1.405 . S
C310 H290 0.950 . S
C310 C309 1.405 . S
C310 C311 1.367 . S
C311 H291 0.950 . S
C311 C306 1.386 . S
C311 C310 1.367 . S
C312 C306 1.483 1_554 S
C312 C313 1.382 1_554 S
C312 C314 1.403 . S
C313 H292 0.950 . S
C313 C312 1.382 1_556 S
C313 C329 1.411 1_556 S
C314 C312 1.403 . S
C314 C315 1.489 . S
C314 C328 1.411 . S
C315 C314 1.489 . S
C315 C316 1.383 . S
C315 C320 1.382 . S
C316 H293 0.950 . S
C316 C315 1.383 . S
C316 C317 1.395 . S
C317 H294 0.950 . S
C317 C316 1.395 . S
C317 C318 1.288 . S
C318 C317 1.288 . S
C318 C319 1.392 . S
C319 H295 0.951 . S
C319 C318 1.392 . S
C319 C320 1.392 . S
C320 H296 0.949 . S
C320 C315 1.382 . S
C320 C319 1.392 . S
C321 C322 1.376 . S
C321 C326 1.386 . S
C321 C327 1.483 . S
C322 H297 0.949 . S
C322 C321 1.376 . S
C322 C323 1.397 . S
C323 H298 0.950 . S
C323 C322 1.397 . S
C323 C324 1.391 . S
C324 C323 1.391 . S
C324 C325 1.405 . S
C325 H299 0.950 . S
C325 C324 1.405 . S
C325 C326 1.367 . S
C326 H300 0.950 . S
C326 C321 1.386 . S
C326 C325 1.367 . S
C327 C321 1.483 . S
C327 C328 1.382 . S
C327 C329 1.403 . S
C328 H301 0.950 . S
C328 C314 1.411 . S
C328 C327 1.382 . S
C329 C313 1.411 1_554 S
C329 C327 1.403 . S
C329 C330 1.489 1_554 S
C330 C329 1.489 1_556 S
C330 C331 1.383 . S
C330 C335 1.382 . S
C331 H302 0.950 . S
C331 C330 1.383 . S
C331 C332 1.395 . S
C332 H303 0.950 . S
C332 C331 1.395 . S
C332 C333 1.288 . S
C333 C332 1.288 . S
C333 C334 1.392 . S
C334 H304 0.951 . S
C334 C333 1.392 . S
C334 C335 1.392 . S
C335 H305 0.949 . S
C335 C330 1.382 . S
C335 C334 1.392 . S
H336 C355 0.949 . S
H337 C356 0.950 . S
H338 C358 0.950 . S
H339 C359 0.950 . S
H340 C361 0.950 . S
H341 C364 0.950 . S
H342 C365 0.950 . S
H343 C367 0.951 . S
H344 C368 0.949 . S
H345 C370 0.949 . S
H346 C371 0.950 . S
H347 C373 0.950 . S
H348 C374 0.950 . S
H349 C376 0.950 . S
H350 C379 0.950 . S
H351 C380 0.950 . S
H352 C382 0.951 . S
H353 C383 0.949 . S
C354 C355 1.376 . S
C354 C359 1.386 . S
C354 C360 1.483 . S
C355 H336 0.949 . S
C355 C354 1.376 . S
C355 C356 1.397 . S
C356 H337 0.950 . S
C356 C355 1.397 . S
C356 C357 1.391 . S
C357 C356 1.391 . S
C357 C358 1.405 . S
C358 H338 0.950 . S
C358 C357 1.405 . S
C358 C359 1.367 . S
C359 H339 0.950 . S
C359 C354 1.386 . S
C359 C358 1.367 . S
C360 C354 1.483 . S
C360 C361 1.382 . S
C360 C362 1.403 . S
C361 H340 0.950 . S
C361 C360 1.382 . S
C361 C377 1.411 1_655 S
C362 C360 1.403 . S
C362 C363 1.489 . S
C362 C376 1.411 1_655 S
C363 C362 1.489 . S
C363 C364 1.383 . S
C363 C368 1.382 . S
C364 H341 0.950 . S
C364 C363 1.383 . S
C364 C365 1.395 . S
C365 H342 0.950 . S
C365 C364 1.395 . S
C365 C366 1.288 . S
C366 C365 1.288 . S
C366 C367 1.392 . S
C367 H343 0.951 . S
C367 C366 1.392 . S
C367 C368 1.392 . S
C368 H344 0.949 . S
C368 C363 1.382 . S
C368 C367 1.392 . S
C369 C370 1.376 . S
C369 C374 1.386 . S
C369 C375 1.483 . S
C370 H345 0.949 . S
C370 C369 1.376 . S
C370 C371 1.397 . S
C371 H346 0.950 . S
C371 C370 1.397 . S
C371 C372 1.391 . S
C372 C371 1.391 . S
C372 C373 1.405 . S
C373 H347 0.950 . S
C373 C372 1.405 . S
C373 C374 1.367 . S
C374 H348 0.950 . S
C374 C369 1.386 . S
C374 C373 1.367 . S
C375 C369 1.483 . S
C375 C376 1.382 . S
C375 C377 1.403 . S
C376 H349 0.950 . S
C376 C362 1.411 1_455 S
C376 C375 1.382 . S
C377 C361 1.411 1_455 S
C377 C375 1.403 . S
C377 C378 1.489 . S
C378 C377 1.489 . S
C378 C379 1.383 . S
C378 C383 1.382 . S
C379 H350 0.950 . S
C379 C378 1.383 . S
C379 C380 1.395 . S
C380 H351 0.950 . S
C380 C379 1.395 . S
C380 C381 1.288 . S
C381 C380 1.288 . S
C381 C382 1.392 . S
C382 H352 0.951 . S
C382 C381 1.392 . S
C382 C383 1.392 . S
C383 H353 0.949 . S
C383 C378 1.382 . S
C383 C382 1.392 . S
Fe384 O385 1.886 . S
Fe384 O388 1.715 1_455 S
Fe384 O393 2.077 . S
Fe384 O398 1.935 1_455 S
Fe384 O404 2.077 . S
Fe384 O413 1.935 1_455 S
O385 Fe384 1.886 . S
O385 Fe387 1.715 . S
Fe386 O388 1.886 . S
Fe386 O389 1.715 . S
Fe386 O396 1.935 . S
Fe386 O397 2.077 . S
Fe386 O403 1.935 . S
Fe386 O412 2.077 . S
Fe387 O385 1.715 . S
Fe387 O390 1.886 . S
Fe387 O394 1.935 . S
Fe387 O399 2.077 . S
Fe387 O405 1.935 . S
Fe387 O409 2.077 . S
O388 Fe384 1.715 1_655 S
O388 Fe386 1.886 . S
O389 Fe386 1.715 . S
O389 Fe391 1.902 . S
O390 Fe387 1.886 . S
O390 Fe391 1.698 1_455 S
Fe391 O389 1.902 . S
Fe391 O390 1.698 1_655 S
Fe391 O395 2.092 . S
Fe391 O400 1.923 1_655 S
Fe391 O402 2.092 . S
Fe391 O410 1.923 1_655 S
C392 O404 1.381 . S
C392 O405 1.421 . S
O393 Fe384 2.077 . S
O393 C406 1.381 . S
O394 Fe387 1.935 . S
O394 C406 1.421 . S
O395 Fe391 2.092 . S
O395 C411 1.381 . S
O396 Fe386 1.935 . S
O396 C411 1.421 . S
O397 Fe386 2.077 . S
O397 C401 1.381 . S
O398 Fe384 1.935 1_655 S
O398 C401 1.421 . S
O399 Fe387 2.077 . S
O399 C407 1.381 . S
O400 Fe391 1.923 1_455 S
O400 C407 1.421 . S
C401 O397 1.381 . S
C401 O398 1.421 . S
O402 Fe391 2.092 . S
O402 C414 1.381 . S
O403 Fe386 1.935 . S
O403 C414 1.421 . S
O404 Fe384 2.077 . S
O404 C392 1.381 . S
O405 Fe387 1.935 . S
O405 C392 1.421 . S
C406 O393 1.381 . S
C406 O394 1.421 . S
C407 O399 1.381 . S
C407 O400 1.421 . S
C408 O409 1.381 . S
C408 O410 1.421 . S
O409 Fe387 2.077 . S
O409 C408 1.381 . S
O410 Fe391 1.923 1_455 S
O410 C408 1.421 . S
C411 O395 1.381 . S
C411 O396 1.421 . S
O412 Fe386 2.077 . S
O412 C415 1.381 . S
O413 Fe384 1.935 1_655 S
O413 C415 1.421 . S
C414 O402 1.381 . S
C414 O403 1.421 . S
C415 O412 1.381 . S
C415 O413 1.421 . S
Fe416 O417 1.886 . S
Fe416 O420 1.715 . S
Fe416 O425 2.077 . S
Fe416 O430 1.935 . S
Fe416 O436 2.077 . S
Fe416 O445 1.935 . S
O417 Fe416 1.886 . S
O417 Fe419 1.715 . S
Fe418 O420 1.886 . S
Fe418 O421 1.715 . S
Fe418 O428 1.935 . S
Fe418 O429 2.077 . S
Fe418 O435 1.935 . S
Fe418 O444 2.077 . S
Fe419 O417 1.715 . S
Fe419 O422 1.886 . S
Fe419 O426 1.935 . S
Fe419 O431 2.077 . S
Fe419 O437 1.935 . S
Fe419 O441 2.077 . S
O420 Fe416 1.715 . S
O420 Fe418 1.886 . S
O421 Fe418 1.715 . S
O421 Fe423 1.886 . S
O422 Fe419 1.886 . S
O422 Fe423 1.715 . S
Fe423 O421 1.886 . S
Fe423 O422 1.715 . S
Fe423 O427 2.077 . S
Fe423 O432 1.935 . S
Fe423 O434 2.077 . S
Fe423 O442 1.935 . S
C424 O436 1.381 . S
C424 O437 1.421 . S
O425 Fe416 2.077 . S
O425 C438 1.381 . S
O426 Fe419 1.935 . S
O426 C438 1.421 . S
O427 Fe423 2.077 . S
O427 C443 1.381 . S
O428 Fe418 1.935 . S
O428 C443 1.421 . S
O429 Fe418 2.077 . S
O429 C433 1.381 . S
O430 Fe416 1.935 . S
O430 C433 1.421 . S
O431 Fe419 2.077 . S
O431 C439 1.381 . S
O432 Fe423 1.935 . S
O432 C439 1.421 . S
C433 O429 1.381 . S
C433 O430 1.421 . S
O434 Fe423 2.077 . S
O434 C446 1.381 . S
O435 Fe418 1.935 . S
O435 C446 1.421 . S
O436 Fe416 2.077 . S
O436 C424 1.381 . S
O437 Fe419 1.935 . S
O437 C424 1.421 . S
C438 O425 1.381 . S
C438 O426 1.421 . S
C439 O431 1.381 . S
C439 O432 1.421 . S
C440 O441 1.381 . S
C440 O442 1.421 . S
O441 Fe419 2.077 . S
O441 C440 1.381 . S
O442 Fe423 1.935 . S
O442 C440 1.421 . S
C443 O427 1.381 . S
C443 O428 1.421 . S
O444 Fe418 2.077 . S
O444 C447 1.381 . S
O445 Fe416 1.935 . S
O445 C447 1.421 . S
C446 O434 1.381 . S
C446 O435 1.421 . S
C447 O444 1.381 . S
C447 O445 1.421 . S
Fe448 O449 1.886 . S
Fe448 O452 1.715 . S
Fe448 O457 2.077 . S
Fe448 O462 1.935 . S
Fe448 O468 2.077 . S
Fe448 O477 1.935 . S
O449 Fe448 1.886 . S
O449 Fe451 1.715 . S
Fe450 O452 1.886 . S
Fe450 O453 1.715 . S
Fe450 O460 1.935 . S
Fe450 O461 2.077 . S
Fe450 O467 1.935 . S
Fe450 O476 2.077 . S
Fe451 O449 1.715 . S
Fe451 O454 1.886 . S
Fe451 O458 1.935 . S
Fe451 O463 2.077 . S
Fe451 O469 1.935 . S
Fe451 O473 2.077 . S
O452 Fe448 1.715 . S
O452 Fe450 1.886 . S
O453 Fe450 1.715 . S
O453 Fe455 1.886 . S
O454 Fe451 1.886 . S
O454 Fe455 1.715 . S
Fe455 O453 1.886 . S
Fe455 O454 1.715 . S
Fe455 O459 2.077 . S
Fe455 O464 1.935 . S
Fe455 O466 2.077 . S
Fe455 O474 1.935 . S
C456 O468 1.381 . S
C456 O469 1.421 . S
O457 Fe448 2.077 . S
O457 C470 1.381 . S
O458 Fe451 1.935 . S
O458 C470 1.421 . S
O459 Fe455 2.077 . S
O459 C475 1.381 . S
O460 Fe450 1.935 . S
O460 C475 1.421 . S
O461 Fe450 2.077 . S
O461 C465 1.381 . S
O462 Fe448 1.935 . S
O462 C465 1.421 . S
O463 Fe451 2.077 . S
O463 C471 1.381 . S
O464 Fe455 1.935 . S
O464 C471 1.421 . S
C465 O461 1.381 . S
C465 O462 1.421 . S
O466 Fe455 2.077 . S
O466 C478 1.381 . S
O467 Fe450 1.935 . S
O467 C478 1.421 . S
O468 Fe448 2.077 . S
O468 C456 1.381 . S
O469 Fe451 1.935 . S
O469 C456 1.421 . S
C470 O457 1.381 . S
C470 O458 1.421 . S
C471 O463 1.381 . S
C471 O464 1.421 . S
C472 O473 1.381 . S
C472 O474 1.421 . S
O473 Fe451 2.077 . S
O473 C472 1.381 . S
O474 Fe455 1.935 . S
O474 C472 1.421 . S
C475 O459 1.381 . S
C475 O460 1.421 . S
O476 Fe450 2.077 . S
O476 C479 1.381 . S
O477 Fe448 1.935 . S
O477 C479 1.421 . S
C478 O466 1.381 . S
C478 O467 1.421 . S
C479 O476 1.381 . S
C479 O477 1.421 . S
Fe480 O481 1.886 . S
Fe480 O484 1.715 . S
Fe480 O489 2.076 1_455 S
Fe480 O494 1.934 1_455 S
Fe480 O500 2.078 . S
Fe480 O509 1.937 . S
O481 Fe480 1.886 . S
O481 Fe483 1.715 . S
Fe482 O484 1.886 . S
Fe482 O485 1.715 . S
Fe482 O492 1.934 1_455 S
Fe482 O493 2.076 1_455 S
Fe482 O499 1.936 . S
Fe482 O508 2.078 . S
Fe483 O481 1.715 . S
Fe483 O486 1.886 . S
Fe483 O490 1.934 1_455 S
Fe483 O495 2.076 1_455 S
Fe483 O501 1.936 . S
Fe483 O505 2.078 . S
O484 Fe480 1.715 . S
O484 Fe482 1.886 . S
O485 Fe482 1.715 . S
O485 Fe487 1.886 . S
O486 Fe483 1.886 . S
O486 Fe487 1.715 . S
Fe487 O485 1.886 . S
Fe487 O486 1.715 . S
Fe487 O491 2.077 1_455 S
Fe487 O496 1.935 1_455 S
Fe487 O498 2.077 . S
Fe487 O506 1.935 . S
C488 O500 1.381 . S
C488 O501 1.421 . S
O489 Fe480 2.076 1_655 S
O489 C502 1.381 . S
O490 Fe483 1.934 1_655 S
O490 C502 1.421 . S
O491 Fe487 2.077 1_655 S
O491 C507 1.381 . S
O492 Fe482 1.934 1_655 S
O492 C507 1.421 . S
O493 Fe482 2.076 1_655 S
O493 C497 1.381 . S
O494 Fe480 1.934 1_655 S
O494 C497 1.421 . S
O495 Fe483 2.076 1_655 S
O495 C503 1.381 . S
O496 Fe487 1.935 1_655 S
O496 C503 1.421 . S
C497 O493 1.381 . S
C497 O494 1.421 . S
O498 Fe487 2.077 . S
O498 C510 1.381 . S
O499 Fe482 1.936 . S
O499 C510 1.421 . S
O500 Fe480 2.078 . S
O500 C488 1.381 . S
O501 Fe483 1.936 . S
O501 C488 1.421 . S
C502 O489 1.381 . S
C502 O490 1.421 . S
C503 O495 1.381 . S
C503 O496 1.421 . S
C504 O505 1.381 . S
C504 O506 1.421 . S
O505 Fe483 2.078 . S
O505 C504 1.381 . S
O506 Fe487 1.935 . S
O506 C504 1.421 . S
C507 O491 1.381 . S
C507 O492 1.421 . S
O508 Fe482 2.078 . S
O508 C511 1.381 . S
O509 Fe480 1.937 . S
O509 C511 1.421 . S
C510 O498 1.381 . S
C510 O499 1.421 . S
C511 O508 1.381 . S
C511 O509 1.421 . S
H512 C518 0.930 . S
H513 C521 0.930 . S
H514 C522 0.930 . S
H515 C523 0.930 . S
H516 C526 0.930 . S
H517 C527 0.930 . S
C518 H512 0.930 . S
C518 C519 1.355 . S
C518 C520 1.415 . S
C519 C518 1.355 . S
C519 C521 1.419 . S
C520 C518 1.415 . S
C520 C525 1.425 . S
C520 C527 1.409 . S
C521 H513 0.930 . S
C521 C519 1.419 . S
C521 C522 1.362 . S
C522 H514 0.930 . S
C522 C521 1.362 . S
C522 C525 1.409 . S
C523 H515 0.930 . S
C523 C524 1.355 . S
C523 C525 1.415 . S
C524 C523 1.355 . S
C524 C526 1.419 . S
C525 C520 1.425 . S
C525 C522 1.409 . S
C525 C523 1.415 . S
C526 H516 0.930 . S
C526 C524 1.419 . S
C526 C527 1.362 . S
C527 H517 0.930 . S
C527 C520 1.409 . S
C527 C526 1.362 . S
H528 C534 0.930 . S
H529 C537 0.930 . S
H530 C538 0.930 . S
H531 C539 0.930 . S
H532 C542 0.930 . S
H533 C543 0.930 . S
C534 H528 0.930 . S
C534 C535 1.355 . S
C534 C536 1.415 1_565 S
C535 C534 1.355 . S
C535 C537 1.419 1_565 S
C536 C534 1.415 1_545 S
C536 C541 1.425 . S
C536 C543 1.409 . S
C537 H529 0.930 . S
C537 C535 1.419 1_545 S
C537 C538 1.362 . S
C538 H530 0.930 . S
C538 C537 1.362 . S
C538 C541 1.409 . S
C539 H531 0.930 . S
C539 C540 1.355 . S
C539 C541 1.415 . S
C540 C539 1.355 . S
C540 C542 1.419 . S
C541 C536 1.425 . S
C541 C538 1.409 . S
C541 C539 1.415 . S
C542 H532 0.930 . S
C542 C540 1.419 . S
C542 C543 1.362 . S
C543 H533 0.930 . S
C543 C536 1.409 . S
C543 C542 1.362 . S
H544 C550 0.930 . S
H545 C553 0.930 . S
H546 C554 0.930 . S
H547 C555 0.930 . S
H548 C558 0.930 . S
H549 C559 0.930 . S
C550 H544 0.930 . S
C550 C551 1.355 . S
C550 C552 1.415 . S
C551 C550 1.355 . S
C551 C553 1.419 . S
C552 C550 1.415 . S
C552 C557 1.425 . S
C552 C559 1.409 . S
C553 H545 0.930 . S
C553 C551 1.419 . S
C553 C554 1.362 . S
C554 H546 0.930 . S
C554 C553 1.362 . S
C554 C557 1.409 . S
C555 H547 0.930 . S
C555 C556 1.355 . S
C555 C557 1.415 . S
C556 C555 1.355 . S
C556 C558 1.419 . S
C557 C552 1.425 . S
C557 C554 1.409 . S
C557 C555 1.415 . S
C558 H548 0.930 . S
C558 C556 1.419 . S
C558 C559 1.362 . S
C559 H549 0.930 . S
C559 C552 1.409 . S
C559 C558 1.362 . S
H560 C566 0.930 . S
H561 C569 0.930 1_545 S
H562 C570 0.930 . S
H563 C571 0.930 . S
H564 C574 0.930 . S
H565 C575 0.930 . S
C566 H560 0.930 . S
C566 C567 1.355 . S
C566 C568 1.415 1_545 S
C567 C566 1.355 . S
C567 C569 1.419 1_545 S
C568 C566 1.415 1_565 S
C568 C573 1.425 . S
C568 C575 1.409 . S
C569 H561 0.930 1_565 S
C569 C567 1.419 1_565 S
C569 C570 1.362 . S
C570 H562 0.930 . S
C570 C569 1.362 . S
C570 C573 1.409 . S
C571 H563 0.930 . S
C571 C572 1.355 . S
C571 C573 1.415 . S
C572 C571 1.355 . S
C572 C574 1.419 . S
C573 C568 1.425 . S
C573 C570 1.409 . S
C573 C571 1.415 . S
C574 H564 0.930 . S
C574 C572 1.419 . S
C574 C575 1.362 . S
C575 H565 0.930 . S
C575 C568 1.409 . S
C575 C574 1.362 . S
H576 C582 0.930 . S
H577 C585 0.930 . S
H578 C586 0.930 . S
H579 C587 0.930 . S
H580 C590 0.930 . S
H581 C591 0.930 . S
C582 H576 0.930 . S
C582 C583 1.355 . S
C582 C584 1.415 . S
C583 C582 1.355 . S
C583 C585 1.419 . S
C584 C582 1.415 . S
C584 C589 1.425 . S
C584 C591 1.409 . S
C585 H577 0.930 . S
C585 C583 1.419 . S
C585 C586 1.362 . S
C586 H578 0.930 . S
C586 C585 1.362 . S
C586 C589 1.409 . S
C587 H579 0.930 . S
C587 C588 1.355 . S
C587 C589 1.415 . S
C588 C587 1.355 . S
C588 C590 1.419 . S
C589 C584 1.425 . S
C589 C586 1.409 . S
C589 C587 1.415 . S
C590 H580 0.930 . S
C590 C588 1.419 . S
C590 C591 1.362 . S
C591 H581 0.930 . S
C591 C584 1.409 . S
C591 C590 1.362 . S
H592 C598 0.930 . S
H593 C601 0.930 . S
H594 C602 0.930 1_565 S
H595 C603 0.930 . S
H596 C606 0.930 . S
H597 C607 0.930 . S
C598 H592 0.930 . S
C598 C599 1.355 1_545 S
C598 C600 1.415 . S
C599 C598 1.355 1_565 S
C599 C601 1.419 . S
C600 C598 1.415 . S
C600 C605 1.425 . S
C600 C607 1.409 . S
C601 H593 0.930 . S
C601 C599 1.419 . S
C601 C602 1.362 1_565 S
C602 H594 0.930 1_545 S
C602 C601 1.362 1_545 S
C602 C605 1.409 . S
C603 H595 0.930 . S
C603 C604 1.355 . S
C603 C605 1.415 . S
C604 C603 1.355 . S
C604 C606 1.419 . S
C605 C600 1.425 . S
C605 C602 1.409 . S
C605 C603 1.415 . S
C606 H596 0.930 . S
C606 C604 1.419 . S
C606 C607 1.362 . S
C607 H597 0.930 . S
C607 C600 1.409 . S
C607 C606 1.362 . S
H608 C614 0.930 . S
H609 C617 0.930 . S
H610 C618 0.930 . S
H611 C619 0.930 . S
H612 C622 0.930 . S
H613 C623 0.930 . S
C614 H608 0.930 . S
C614 C615 1.355 . S
C614 C616 1.415 . S
C615 C614 1.355 . S
C615 C617 1.419 . S
C616 C614 1.415 . S
C616 C621 1.425 . S
C616 C623 1.409 . S
C617 H609 0.930 . S
C617 C615 1.419 . S
C617 C618 1.362 . S
C618 H610 0.930 . S
C618 C617 1.362 . S
C618 C621 1.409 . S
C619 H611 0.930 . S
C619 C620 1.355 . S
C619 C621 1.415 . S
C620 C619 1.355 . S
C620 C622 1.419 . S
C621 C616 1.425 . S
C621 C618 1.409 . S
C621 C619 1.415 . S
C622 H612 0.930 . S
C622 C620 1.419 . S
C622 C623 1.362 . S
C623 H613 0.930 . S
C623 C616 1.409 . S
C623 C622 1.362 . S
H624 C630 0.930 . S
H625 C633 0.930 . S
H626 C634 0.930 . S
H627 C635 0.930 . S
H628 C638 0.930 . S
H629 C639 0.930 1_545 S
C630 H624 0.930 . S
C630 C631 1.355 . S
C630 C632 1.415 1_545 S
C631 C630 1.355 . S
C631 C633 1.419 1_545 S
C632 C630 1.415 1_565 S
C632 C637 1.425 . S
C632 C639 1.409 . S
C633 H625 0.930 . S
C633 C631 1.419 1_565 S
C633 C634 1.362 . S
C634 H626 0.930 . S
C634 C633 1.362 . S
C634 C637 1.409 . S
C635 H627 0.930 . S
C635 C636 1.355 . S
C635 C637 1.415 . S
C636 C635 1.355 . S
C636 C638 1.419 . S
C637 C632 1.425 . S
C637 C634 1.409 . S
C637 C635 1.415 . S
C638 H628 0.930 . S
C638 C636 1.419 . S
C638 C639 1.362 . S
C639 H629 0.930 1_565 S
C639 C632 1.409 . S
C639 C638 1.362 . S
H640 C646 0.930 . S
H641 C649 0.930 . S
H642 C650 0.930 . S
H643 C651 0.930 . S
H644 C654 0.930 . S
H645 C655 0.930 . S
C646 H640 0.930 . S
C646 C647 1.355 . S
C646 C648 1.415 . S
C647 C646 1.355 . S
C647 C649 1.419 . S
C648 C646 1.415 . S
C648 C653 1.425 . S
C648 C655 1.409 . S
C649 H641 0.930 . S
C649 C647 1.419 . S
C649 C650 1.362 . S
C650 H642 0.930 . S
C650 C649 1.362 . S
C650 C653 1.409 . S
C651 H643 0.930 . S
C651 C652 1.355 . S
C651 C653 1.415 . S
C652 C651 1.355 . S
C652 C654 1.419 . S
C653 C648 1.425 . S
C653 C650 1.409 . S
C653 C651 1.415 . S
C654 H644 0.930 . S
C654 C652 1.419 . S
C654 C655 1.362 . S
C655 H645 0.930 . S
C655 C648 1.409 . S
C655 C654 1.362 . S
H656 C662 0.930 . S
H657 C665 0.930 . S
H658 C666 0.930 . S
H659 C667 0.930 . S
H660 C670 0.930 . S
H661 C671 0.930 . S
C662 H656 0.930 . S
C662 C663 1.355 . S
C662 C664 1.415 1_545 S
C663 C662 1.355 . S
C663 C665 1.419 . S
C664 C662 1.415 1_565 S
C664 C669 1.425 . S
C664 C671 1.409 . S
C665 H657 0.930 . S
C665 C663 1.419 . S
C665 C666 1.362 1_545 S
C666 H658 0.930 . S
C666 C665 1.362 1_565 S
C666 C669 1.409 . S
C667 H659 0.930 . S
C667 C668 1.355 . S
C667 C669 1.415 . S
C668 C667 1.355 . S
C668 C670 1.419 . S
C669 C664 1.425 . S
C669 C666 1.409 . S
C669 C667 1.415 . S
C670 H660 0.930 . S
C670 C668 1.419 . S
C670 C671 1.362 . S
C671 H661 0.930 . S
C671 C664 1.409 . S
C671 C670 1.362 . S
H672 C678 0.930 . S
H673 C681 0.930 . S
H674 C682 0.930 . S
H675 C683 0.930 . S
H676 C686 0.930 . S
H677 C687 0.930 . S
C678 H672 0.930 . S
C678 C679 1.355 . S
C678 C680 1.415 . S
C679 C678 1.355 . S
C679 C681 1.419 . S
C680 C678 1.415 . S
C680 C685 1.425 . S
C680 C687 1.409 . S
C681 H673 0.930 . S
C681 C679 1.419 . S
C681 C682 1.362 . S
C682 H674 0.930 . S
C682 C681 1.362 . S
C682 C685 1.409 . S
C683 H675 0.930 . S
C683 C684 1.355 . S
C683 C685 1.415 . S
C684 C683 1.355 . S
C684 C686 1.419 . S
C685 C680 1.425 . S
C685 C682 1.409 . S
C685 C683 1.415 . S
C686 H676 0.930 . S
C686 C684 1.419 . S
C686 C687 1.362 . S
C687 H677 0.930 . S
C687 C680 1.409 . S
C687 C686 1.362 . S
H688 C694 0.930 . S
H689 C697 0.930 . S
H690 C698 0.930 . S
H691 C699 0.930 . S
H692 C702 0.930 . S
H693 C703 0.930 . S
C694 H688 0.930 . S
C694 C695 1.355 . S
C694 C696 1.415 1_565 S
C695 C694 1.355 . S
C695 C697 1.419 1_565 S
C696 C694 1.415 1_545 S
C696 C701 1.425 . S
C696 C703 1.409 . S
C697 H689 0.930 . S
C697 C695 1.419 1_545 S
C697 C698 1.362 . S
C698 H690 0.930 . S
C698 C697 1.362 . S
C698 C701 1.409 . S
C699 H691 0.930 . S
C699 C700 1.355 . S
C699 C701 1.415 . S
C700 C699 1.355 . S
C700 C702 1.419 . S
C701 C696 1.425 . S
C701 C698 1.409 . S
C701 C699 1.415 . S
C702 H692 0.930 . S
C702 C700 1.419 . S
C702 C703 1.362 . S
C703 H693 0.930 . S
C703 C696 1.409 . S
C703 C702 1.362 . S
H704 C710 0.930 . S
H705 C713 0.930 . S
H706 C714 0.930 . S
H707 C715 0.930 . S
H708 C718 0.930 . S
H709 C719 0.930 . S
C710 H704 0.930 . S
C710 C711 1.355 . S
C710 C712 1.415 . S
C711 C710 1.355 . S
C711 C713 1.419 . S
C712 C710 1.415 . S
C712 C717 1.425 . S
C712 C719 1.409 . S
C713 H705 0.930 . S
C713 C711 1.419 . S
C713 C714 1.362 . S
C714 H706 0.930 . S
C714 C713 1.362 . S
C714 C717 1.409 . S
C715 H707 0.930 . S
C715 C716 1.355 . S
C715 C717 1.415 . S
C716 C715 1.355 . S
C716 C718 1.419 . S
C717 C712 1.425 . S
C717 C714 1.409 . S
C717 C715 1.415 . S
C718 H708 0.930 . S
C718 C716 1.419 . S
C718 C719 1.362 . S
C719 H709 0.930 . S
C719 C712 1.409 . S
C719 C718 1.362 . S
H720 C726 0.930 . S
H721 C729 0.930 . S
H722 C730 0.930 . S
H723 C731 0.930 . S
H724 C734 0.930 . S
H725 C735 0.930 . S
C726 H720 0.930 . S
C726 C727 1.355 . S
C726 C728 1.415 1_545 S
C727 C726 1.355 . S
C727 C729 1.419 1_545 S
C728 C726 1.415 1_565 S
C728 C733 1.425 . S
C728 C735 1.409 . S
C729 H721 0.930 . S
C729 C727 1.419 1_565 S
C729 C730 1.362 . S
C730 H722 0.930 . S
C730 C729 1.362 . S
C730 C733 1.409 . S
C731 H723 0.930 . S
C731 C732 1.355 . S
C731 C733 1.415 . S
C732 C731 1.355 . S
C732 C734 1.419 . S
C733 C728 1.425 . S
C733 C730 1.409 . S
C733 C731 1.415 . S
C734 H724 0.930 . S
C734 C732 1.419 . S
C734 C735 1.362 . S
C735 H725 0.930 . S
C735 C728 1.409 . S
C735 C734 1.362 . S
H736 C742 0.930 . S
H737 C745 0.930 . S
H738 C746 0.930 . S
H739 C747 0.930 . S
H740 C750 0.930 . S
H741 C751 0.930 . S
C742 H736 0.930 . S
C742 C743 1.355 . S
C742 C744 1.415 . S
C743 C742 1.355 . S
C743 C745 1.419 . S
C744 C742 1.415 . S
C744 C749 1.425 . S
C744 C751 1.409 . S
C745 H737 0.930 . S
C745 C743 1.419 . S
C745 C746 1.362 . S
C746 H738 0.930 . S
C746 C745 1.362 . S
C746 C749 1.409 . S
C747 H739 0.930 . S
C747 C748 1.355 . S
C747 C749 1.415 . S
C748 C747 1.355 . S
C748 C750 1.419 . S
C749 C744 1.425 . S
C749 C746 1.409 . S
C749 C747 1.415 . S
C750 H740 0.930 . S
C750 C748 1.419 . S
C750 C751 1.362 . S
C751 H741 0.930 . S
C751 C744 1.409 . S
C751 C750 1.362 . S
H752 C758 0.930 . S
H753 C761 0.930 1_565 S
H754 C762 0.930 . S
H755 C763 0.930 . S
H756 C766 0.930 . S
H757 C767 0.930 . S
C758 H752 0.930 . S
C758 C759 1.355 1_545 S
C758 C760 1.415 . S
C759 C758 1.355 1_565 S
C759 C761 1.419 1_565 S
C760 C758 1.415 . S
C760 C765 1.425 . S
C760 C767 1.409 . S
C761 H753 0.930 1_545 S
C761 C759 1.419 1_545 S
C761 C762 1.362 . S
C762 H754 0.930 . S
C762 C761 1.362 . S
C762 C765 1.409 . S
C763 H755 0.930 . S
C763 C764 1.355 . S
C763 C765 1.415 . S
C764 C763 1.355 . S
C764 C766 1.419 . S
C765 C760 1.425 . S
C765 C762 1.409 . S
C765 C763 1.415 . S
C766 H756 0.930 . S
C766 C764 1.419 . S
C766 C767 1.362 . S
C767 H757 0.930 . S
C767 C760 1.409 . S
C767 C766 1.362 . S
H768 C774 0.930 . S
H769 C777 0.930 . S
H770 C778 0.930 . S
H771 C779 0.930 . S
H772 C782 0.930 . S
H773 C783 0.930 . S
C774 H768 0.930 . S
C774 C775 1.355 . S
C774 C776 1.415 . S
C775 C774 1.355 . S
C775 C777 1.419 . S
C776 C774 1.415 . S
C776 C781 1.425 . S
C776 C783 1.409 . S
C777 H769 0.930 . S
C777 C775 1.419 . S
C777 C778 1.362 . S
C778 H770 0.930 . S
C778 C777 1.362 . S
C778 C781 1.409 . S
C779 H771 0.930 . S
C779 C780 1.355 . S
C779 C781 1.415 . S
C780 C779 1.355 . S
C780 C782 1.419 . S
C781 C776 1.425 . S
C781 C778 1.409 . S
C781 C779 1.415 . S
C782 H772 0.930 . S
C782 C780 1.419 . S
C782 C783 1.362 . S
C783 H773 0.930 . S
C783 C776 1.409 . S
C783 C782 1.362 . S
H784 C790 0.930 . S
H785 C793 0.930 . S
H786 C794 0.930 . S
H787 C795 0.930 . S
H788 C798 0.930 . S
H789 C799 0.930 . S
C790 H784 0.930 . S
C790 C791 1.355 . S
C790 C792 1.415 . S
C791 C790 1.355 . S
C791 C793 1.419 . S
C792 C790 1.415 . S
C792 C797 1.425 . S
C792 C799 1.409 . S
C793 H785 0.930 . S
C793 C791 1.419 . S
C793 C794 1.362 . S
C794 H786 0.930 . S
C794 C793 1.362 . S
C794 C797 1.409 . S
C795 H787 0.930 . S
C795 C796 1.355 . S
C795 C797 1.415 . S
C796 C795 1.355 . S
C796 C798 1.419 . S
C797 C792 1.425 . S
C797 C794 1.409 . S
C797 C795 1.415 . S
C798 H788 0.930 . S
C798 C796 1.419 . S
C798 C799 1.362 . S
C799 H789 0.930 . S
C799 C792 1.409 . S
C799 C798 1.362 . S
H800 C806 0.930 . S
H801 C809 0.930 . S
H802 C810 0.930 . S
H803 C811 0.930 . S
H804 C814 0.930 . S
H805 C815 0.930 . S
C806 H800 0.930 . S
C806 C807 1.355 . S
C806 C808 1.415 . S
C807 C806 1.355 . S
C807 C809 1.419 . S
C808 C806 1.415 . S
C808 C813 1.425 . S
C808 C815 1.409 . S
C809 H801 0.930 . S
C809 C807 1.419 . S
C809 C810 1.362 . S
C810 H802 0.930 . S
C810 C809 1.362 . S
C810 C813 1.409 . S
C811 H803 0.930 . S
C811 C812 1.355 . S
C811 C813 1.415 . S
C812 C811 1.355 . S
C812 C814 1.419 . S
C813 C808 1.425 . S
C813 C810 1.409 . S
C813 C811 1.415 . S
C814 H804 0.930 . S
C814 C812 1.419 . S
C814 C815 1.362 . S
C815 H805 0.930 . S
C815 C808 1.409 . S
C815 C814 1.362 . S
H816 C822 0.930 . S
H817 C825 0.930 . S
H818 C826 0.930 . S
H819 C827 0.930 . S
H820 C830 0.930 . S
H821 C831 0.930 . S
C822 H816 0.930 . S
C822 C823 1.355 . S
C822 C824 1.415 . S
C823 C822 1.355 . S
C823 C825 1.419 . S
C824 C822 1.415 . S
C824 C829 1.425 . S
C824 C831 1.409 . S
C825 H817 0.930 . S
C825 C823 1.419 . S
C825 C826 1.362 . S
C826 H818 0.930 . S
C826 C825 1.362 . S
C826 C829 1.409 . S
C827 H819 0.930 . S
C827 C828 1.355 . S
C827 C829 1.415 . S
C828 C827 1.355 . S
C828 C830 1.419 . S
C829 C824 1.425 . S
C829 C826 1.409 . S
C829 C827 1.415 . S
C830 H820 0.930 . S
C830 C828 1.419 . S
C830 C831 1.362 . S
C831 H821 0.930 . S
C831 C824 1.409 . S
C831 C830 1.362 . S
H832 C838 0.930 . S
H833 C841 0.930 . S
H834 C842 0.930 . S
H835 C843 0.930 . S
H836 C846 0.930 . S
H837 C847 0.930 . S
C838 H832 0.930 . S
C838 C839 1.355 . S
C838 C840 1.415 . S
C839 C838 1.355 . S
C839 C841 1.419 . S
C840 C838 1.415 . S
C840 C845 1.425 . S
C840 C847 1.409 . S
C841 H833 0.930 . S
C841 C839 1.419 . S
C841 C842 1.362 . S
C842 H834 0.930 . S
C842 C841 1.362 . S
C842 C845 1.409 . S
C843 H835 0.930 . S
C843 C844 1.355 . S
C843 C845 1.415 . S
C844 C843 1.355 . S
C844 C846 1.419 . S
C845 C840 1.425 . S
C845 C842 1.409 . S
C845 C843 1.415 . S
C846 H836 0.930 . S
C846 C844 1.419 . S
C846 C847 1.362 . S
C847 H837 0.930 . S
C847 C840 1.409 . S
C847 C846 1.362 . S
H848 C854 0.930 . S
H849 C857 0.930 . S
H850 C858 0.930 . S
H851 C859 0.930 . S
H852 C862 0.930 . S
H853 C863 0.930 . S
C854 H848 0.930 . S
C854 C855 1.355 . S
C854 C856 1.415 . S
C855 C854 1.355 . S
C855 C857 1.419 . S
C856 C854 1.415 . S
C856 C861 1.425 . S
C856 C863 1.409 . S
C857 H849 0.930 . S
C857 C855 1.419 . S
C857 C858 1.362 . S
C858 H850 0.930 . S
C858 C857 1.362 . S
C858 C861 1.409 . S
C859 H851 0.930 . S
C859 C860 1.355 . S
C859 C861 1.415 . S
C860 C859 1.355 . S
C860 C862 1.419 . S
C861 C856 1.425 . S
C861 C858 1.409 . S
C861 C859 1.415 . S
C862 H852 0.930 . S
C862 C860 1.419 . S
C862 C863 1.362 . S
C863 H853 0.930 . S
C863 C856 1.409 . S
C863 C862 1.362 . S
H864 C870 0.930 . S
H865 C873 0.930 . S
H866 C874 0.930 . S
H867 C875 0.930 . S
H868 C878 0.930 . S
H869 C879 0.930 . S
C870 H864 0.930 . S
C870 C871 1.355 . S
C870 C872 1.415 . S
C871 C870 1.355 . S
C871 C873 1.419 . S
C872 C870 1.415 . S
C872 C877 1.425 . S
C872 C879 1.409 . S
C873 H865 0.930 . S
C873 C871 1.419 . S
C873 C874 1.362 . S
C874 H866 0.930 . S
C874 C873 1.362 . S
C874 C877 1.409 . S
C875 H867 0.930 . S
C875 C876 1.355 . S
C875 C877 1.415 . S
C876 C875 1.355 . S
C876 C878 1.419 . S
C877 C872 1.425 . S
C877 C874 1.409 . S
C877 C875 1.415 . S
C878 H868 0.930 . S
C878 C876 1.419 . S
C878 C879 1.362 . S
C879 H869 0.930 . S
C879 C872 1.409 . S
C879 C878 1.362 . S
H880 C886 0.930 . S
H881 C889 0.930 . S
H882 C890 0.930 . S
H883 C891 0.930 . S
H884 C894 0.930 . S
H885 C895 0.930 . S
C886 H880 0.930 . S
C886 C887 1.355 . S
C886 C888 1.415 . S
C887 C886 1.355 . S
C887 C889 1.419 . S
C888 C886 1.415 . S
C888 C893 1.425 . S
C888 C895 1.409 . S
C889 H881 0.930 . S
C889 C887 1.419 . S
C889 C890 1.362 . S
C890 H882 0.930 . S
C890 C889 1.362 . S
C890 C893 1.409 . S
C891 H883 0.930 . S
C891 C892 1.355 . S
C891 C893 1.415 . S
C892 C891 1.355 . S
C892 C894 1.419 . S
C893 C888 1.425 . S
C893 C890 1.409 . S
C893 C891 1.415 . S
C894 H884 0.930 . S
C894 C892 1.419 . S
C894 C895 1.362 . S
C895 H885 0.930 . S
C895 C888 1.409 . S
C895 C894 1.362 . S
H896 C902 0.930 . S
H897 C905 0.930 . S
H898 C906 0.930 . S
H899 C907 0.930 . S
H900 C910 0.930 . S
H901 C911 0.930 . S
C902 H896 0.930 . S
C902 C903 1.355 . S
C902 C904 1.415 . S
C903 C902 1.355 . S
C903 C905 1.419 . S
C904 C902 1.415 . S
C904 C909 1.425 . S
C904 C911 1.409 . S
C905 H897 0.930 . S
C905 C903 1.419 . S
C905 C906 1.362 . S
C906 H898 0.930 . S
C906 C905 1.362 . S
C906 C909 1.409 . S
C907 H899 0.930 . S
C907 C908 1.355 . S
C907 C909 1.415 . S
C908 C907 1.355 . S
C908 C910 1.419 . S
C909 C904 1.425 . S
C909 C906 1.409 . S
C909 C907 1.415 . S
C910 H900 0.930 . S
C910 C908 1.419 . S
C910 C911 1.362 . S
C911 H901 0.930 . S
C911 C904 1.409 . S
C911 C910 1.362 . S
H912 C918 0.930 . S
H913 C921 0.930 . S
H914 C922 0.930 . S
H915 C923 0.930 . S
H916 C926 0.930 . S
H917 C927 0.930 . S
C918 H912 0.930 . S
C918 C919 1.355 . S
C918 C920 1.415 . S
C919 C918 1.355 . S
C919 C921 1.419 . S
C920 C918 1.415 . S
C920 C925 1.425 . S
C920 C927 1.409 . S
C921 H913 0.930 . S
C921 C919 1.419 . S
C921 C922 1.362 . S
C922 H914 0.930 . S
C922 C921 1.362 . S
C922 C925 1.409 . S
C923 H915 0.930 . S
C923 C924 1.355 . S
C923 C925 1.415 . S
C924 C923 1.355 . S
C924 C926 1.419 . S
C925 C920 1.425 . S
C925 C922 1.409 . S
C925 C923 1.415 . S
C926 H916 0.930 . S
C926 C924 1.419 . S
C926 C927 1.362 . S
C927 H917 0.930 . S
C927 C920 1.409 . S
C927 C926 1.362 . S
H928 C934 0.930 . S
H929 C937 0.930 . S
H930 C938 0.930 . S
H931 C939 0.930 . S
H932 C942 0.930 . S
H933 C943 0.930 . S
C934 H928 0.930 . S
C934 C935 1.355 . S
C934 C936 1.415 . S
C935 C934 1.355 . S
C935 C937 1.419 . S
C936 C934 1.415 . S
C936 C941 1.425 . S
C936 C943 1.409 . S
C937 H929 0.930 . S
C937 C935 1.419 . S
C937 C938 1.362 . S
C938 H930 0.930 . S
C938 C937 1.362 . S
C938 C941 1.409 . S
C939 H931 0.930 . S
C939 C940 1.355 . S
C939 C941 1.415 . S
C940 C939 1.355 . S
C940 C942 1.419 . S
C941 C936 1.425 . S
C941 C938 1.409 . S
C941 C939 1.415 . S
C942 H932 0.930 . S
C942 C940 1.419 . S
C942 C943 1.362 . S
C943 H933 0.930 . S
C943 C936 1.409 . S
C943 C942 1.362 . S
H944 C950 0.930 . S
H945 C953 0.930 . S
H946 C954 0.930 . S
H947 C955 0.930 . S
H948 C958 0.930 . S
H949 C959 0.930 . S
C950 H944 0.930 . S
C950 C951 1.355 . S
C950 C952 1.415 . S
C951 C950 1.355 . S
C951 C953 1.419 . S
C952 C950 1.415 . S
C952 C957 1.425 . S
C952 C959 1.409 . S
C953 H945 0.930 . S
C953 C951 1.419 . S
C953 C954 1.362 . S
C954 H946 0.930 . S
C954 C953 1.362 . S
C954 C957 1.409 . S
C955 H947 0.930 . S
C955 C956 1.355 . S
C955 C957 1.415 . S
C956 C955 1.355 . S
C956 C958 1.419 . S
C957 C952 1.425 . S
C957 C954 1.409 . S
C957 C955 1.415 . S
C958 H948 0.930 . S
C958 C956 1.419 . S
C958 C959 1.362 . S
C959 H949 0.930 . S
C959 C952 1.409 . S
C959 C958 1.362 . S
H960 C966 0.930 . S
H961 C969 0.930 . S
H962 C970 0.930 . S
H963 C971 0.930 . S
H964 C974 0.930 . S
H965 C975 0.930 . S
C966 H960 0.930 . S
C966 C967 1.355 . S
C966 C968 1.415 . S
C967 C966 1.355 . S
C967 C969 1.419 . S
C968 C966 1.415 . S
C968 C973 1.425 . S
C968 C975 1.409 . S
C969 H961 0.930 . S
C969 C967 1.419 . S
C969 C970 1.362 . S
C970 H962 0.930 . S
C970 C969 1.362 . S
C970 C973 1.409 . S
C971 H963 0.930 . S
C971 C972 1.355 . S
C971 C973 1.415 . S
C972 C971 1.355 . S
C972 C974 1.419 . S
C973 C968 1.425 . S
C973 C970 1.409 . S
C973 C971 1.415 . S
C974 H964 0.930 . S
C974 C972 1.419 . S
C974 C975 1.362 . S
C975 H965 0.930 . S
C975 C968 1.409 . S
C975 C974 1.362 . S
H976 C982 0.930 . S
H977 C985 0.930 . S
H978 C986 0.930 . S
H979 C987 0.930 . S
H980 C990 0.930 . S
H981 C991 0.930 . S
C982 H976 0.930 . S
C982 C983 1.355 . S
C982 C984 1.415 . S
C983 C982 1.355 . S
C983 C985 1.419 . S
C984 C982 1.415 . S
C984 C989 1.425 . S
C984 C991 1.409 . S
C985 H977 0.930 . S
C985 C983 1.419 . S
C985 C986 1.362 . S
C986 H978 0.930 . S
C986 C985 1.362 . S
C986 C989 1.409 . S
C987 H979 0.930 . S
C987 C988 1.355 . S
C987 C989 1.415 . S
C988 C987 1.355 . S
C988 C990 1.419 . S
C989 C984 1.425 . S
C989 C986 1.409 . S
C989 C987 1.415 . S
C990 H980 0.930 . S
C990 C988 1.419 . S
C990 C991 1.362 . S
C991 H981 0.930 . S
C991 C984 1.409 . S
C991 C990 1.362 . S
H992 C998 0.930 . S
H993 C1001 0.930 . S
H994 C1002 0.930 . S
H995 C1003 0.930 . S
H996 C1006 0.930 . S
H997 C1007 0.930 . S
C998 H992 0.930 . S
C998 C999 1.355 . S
C998 C1000 1.415 . S
C999 C998 1.355 . S
C999 C1001 1.419 . S
C1000 C998 1.415 . S
C1000 C1005 1.425 . S
C1000 C1007 1.409 . S
C1001 H993 0.930 . S
C1001 C999 1.419 . S
C1001 C1002 1.362 . S
C1002 H994 0.930 . S
C1002 C1001 1.362 . S
C1002 C1005 1.409 . S
C1003 H995 0.930 . S
C1003 C1004 1.355 . S
C1003 C1005 1.415 . S
C1004 C1003 1.355 . S
C1004 C1006 1.419 . S
C1005 C1000 1.425 . S
C1005 C1002 1.409 . S
C1005 C1003 1.415 . S
C1006 H996 0.930 . S
C1006 C1004 1.419 . S
C1006 C1007 1.362 . S
C1007 H997 0.930 . S
C1007 C1000 1.409 . S
C1007 C1006 1.362 . S
H1008 C1014 0.930 . S
H1009 C1017 0.930 . S
H1010 C1018 0.930 . S
H1011 C1019 0.930 . S
H1012 C1022 0.930 . S
H1013 C1023 0.930 . S
C1014 H1008 0.930 . S
C1014 C1015 1.355 . S
C1014 C1016 1.415 . S
C1015 C1014 1.355 . S
C1015 C1017 1.419 . S
C1016 C1014 1.415 . S
C1016 C1021 1.425 . S
C1016 C1023 1.409 . S
C1017 H1009 0.930 . S
C1017 C1015 1.419 . S
C1017 C1018 1.362 . S
C1018 H1010 0.930 . S
C1018 C1017 1.362 . S
C1018 C1021 1.409 . S
C1019 H1011 0.930 . S
C1019 C1020 1.355 . S
C1019 C1021 1.415 . S
C1020 C1019 1.355 . S
C1020 C1022 1.419 . S
C1021 C1016 1.425 . S
C1021 C1018 1.409 . S
C1021 C1019 1.415 . S
C1022 H1012 0.930 . S
C1022 C1020 1.419 . S
C1022 C1023 1.362 . S
C1023 H1013 0.930 . S
C1023 C1016 1.409 . S
C1023 C1022 1.362 . S
C524 C433 1.506 . S
C519 C45 1.527 . S
C535 C78 1.542 . S
C540 C465 1.538 . S
C551 C126 1.523 . S
C556 C488 1.516 . S
C572 C392 1.540 . S
C567 C174 1.524 . S
C588 C475 1.403 . S
C583 C36 1.511 . S
C604 C504 1.418 . S
C599 C69 1.511 . S
C620 C408 1.398 . S
C615 C117 1.518 . S
C636 C443 1.350 . S
C631 C165 1.512 . S
C647 C30 1.517 . S
C652 C471 1.325 . S
C663 C228 1.519 . S
C668 C446 1.399 . S
C679 C141 1.499 . S
C684 C414 1.424 . S
C700 C503 1.328 . S
C695 C270 1.515 . S
C716 C447 1.540 . S
C711 C21 1.543 . S
C727 C237 1.518 . S
C732 C415 1.511 . S
C743 C132 1.532 . S
C748 C502 1.530 . S
C764 C470 1.542 . S
C759 C261 1.545 . S
C775 C333 1.532 . S
C780 C497 1.537 . S
C791 C213 1.542 . S
C796 C401 1.539 . S
C807 C357 1.531 . S
C812 C424 1.534 . S
C823 C285 1.531 . S
C828 C456 1.536 . S
C844 C411 1.340 . S
C839 C324 1.510 . S
C855 C222 1.480 . S
C860 C440 1.385 . S
C871 C366 1.481 . S
C876 C472 1.389 . S
C892 C507 1.367 . S
C887 C276 1.518 . S
C903 C318 1.500 . S
C908 C407 1.431 . S
C919 C93 1.479 . S
C924 C510 1.392 . S
C935 C372 1.497 . S
C940 C478 1.360 . S
C956 C439 1.434 . S
C951 C189 1.506 . S
C972 C511 1.503 . S
C967 C309 1.542 . S
C988 C479 1.543 . S
C983 C84 1.548 . S
C1004 C438 1.536 . S
C999 C381 1.519 . S
C1020 C406 1.519 . S
C1015 C180 1.530 . S
