# Generated by pormake.
# Topology rtl, (3,6)-cn, num edge types: 1
# Building blocks:
#     Node 0, Type 0, BuildingBlock: MIDCAF_clean_linker_0, # of connection points: 3
#     Node 1, Type 0, BuildingBlock: MIDCAF_clean_linker_0, # of connection points: 3
#     Node 2, Type 0, BuildingBlock: MIDCAF_clean_linker_0, # of connection points: 3
#     Node 3, Type 0, BuildingBlock: MIDCAF_clean_linker_0, # of connection points: 3
#     Node 4, Type 1, BuildingBlock: KUMBOL_clean_sbu_1, # of connection points: 6
#     Node 5, Type 1, BuildingBlock: KUMBOL_clean_sbu_1, # of connection points: 6
#     Edge 6, Type (0, 1), BuildingBlock: TEMPAE_clean_linker_10, # of connection points: 2
#     Edge 7, Type (0, 1), BuildingBlock: TEMPAE_clean_linker_10, # of connection points: 2
#     Edge 8, Type (0, 1), BuildingBlock: TEMPAE_clean_linker_10, # of connection points: 2
#     Edge 9, Type (0, 1), BuildingBlock: TEMPAE_clean_linker_10, # of connection points: 2
#     Edge 10, Type (0, 1), BuildingBlock: TEMPAE_clean_linker_10, # of connection points: 2
#     Edge 11, Type (0, 1), BuildingBlock: TEMPAE_clean_linker_10, # of connection points: 2
#     Edge 12, Type (0, 1), BuildingBlock: TEMPAE_clean_linker_10, # of connection points: 2
#     Edge 13, Type (0, 1), BuildingBlock: TEMPAE_clean_linker_10, # of connection points: 2
#     Edge 14, Type (0, 1), BuildingBlock: TEMPAE_clean_linker_10, # of connection points: 2
#     Edge 15, Type (0, 1), BuildingBlock: TEMPAE_clean_linker_10, # of connection points: 2
#     Edge 16, Type (0, 1), BuildingBlock: TEMPAE_clean_linker_10, # of connection points: 2
#     Edge 17, Type (0, 1), BuildingBlock: TEMPAE_clean_linker_10, # of connection points: 2
# Relax obj value: 0.018
# Max RMSD: 0.095
# Mean RMSD: 0.057
data_MOF--net-rtl--node1-KUMBOL_clean_sbu_1--node2-MIDCAF_clean_linker_0--edge1-TEMPAE_clean_linker_10
_symmetry_space_group_name_H-M    P1
_symmetry_Int_Tables_number       1
_symmetry_cell_setting            triclinic
loop_
_symmetry_equiv_pos_as_xyz
'x, y, z'
_cell_length_a     39.98036
_cell_length_b     40.606526
_cell_length_c     35.533324
_cell_angle_alpha  80.024244
_cell_angle_beta   99.763347
_cell_angle_gamma 90.227484
loop_
_atom_site_label
_atom_site_type_symbol
_atom_site_fract_x
_atom_site_fract_y
_atom_site_fract_z
_atom_type_partial_charge
C0 C 0.16559 0.9037 0.12193 0.0
C1 C 0.16624 0.8791 0.15511 0.0
C2 C 0.1815 0.84771 0.15655 0.0
C3 C 0.19557 0.84092 0.12516 0.0
H4 H 0.2847 0.7946 0.09454 0.0
H5 H 0.32457 0.74759 0.10038 0.0
H6 H 0.2926 0.7435 0.97908 0.0
H7 H 0.25315 0.79049 0.97291 0.0
H8 H 0.23688 0.88313 0.92675 0.0
H9 H 0.21205 0.91027 0.86143 0.0
H10 H 0.11466 0.91597 0.8981 0.0
H11 H 0.1404 0.89123 0.96386 0.0
H12 H 0.17764 0.91603 0.06481 0.0
H13 H 0.15377 0.92803 0.12005 0.0
H14 H 0.1824 0.82839 0.18191 0.0
H15 H 0.20682 0.81636 0.12694 0.0
N16 N 0.23019 0.83223 0.061 0.0
N17 N 0.22872 0.84228 0.99368 0.0
N18 N 0.19428 0.87465 0.02121 0.0
C19 C 0.24128 0.82457 0.02934 0.0
C20 C 0.20525 0.8673 0.98942 0.0
C21 C 0.2068 0.85738 0.05713 0.0
C22 C 0.26576 0.79635 0.03325 0.0
C23 C 0.28619 0.78368 0.06912 0.0
C24 C 0.30907 0.75688 0.07248 0.0
C25 C 0.31147 0.74188 0.04022 0.0
C26 C 0.29099 0.75443 0.00447 0.0
C27 C 0.26858 0.7815 1.00094 0.0
C28 C 0.19054 0.8851 0.95029 0.0
C29 C 0.21024 0.89058 0.92077 0.0
C30 C 0.19584 0.90589 0.8832 0.0
C31 C 0.16109 0.91519 0.87397 0.0
C32 C 0.14158 0.90992 0.90391 0.0
C33 C 0.15626 0.89547 0.94169 0.0
C34 C 0.19402 0.86519 0.09143 0.0
C35 C 0.17907 0.89673 0.09027 0.0
C36 C 0.63212 0.62874 0.50115 0.0
C37 C 0.63887 0.64473 0.46498 0.0
C38 C 0.65435 0.67598 0.46232 0.0
C39 C 0.6635 0.69063 0.49533 0.0
H40 H 0.70821 0.77488 0.53537 0.0
H41 H 0.74972 0.81909 0.53268 0.0
H42 H 0.78279 0.79281 0.65638 0.0
H43 H 0.74098 0.74867 0.65936 0.0
H44 H 0.66065 0.71812 0.6956 0.0
H45 H 0.6391 0.69328 0.75401 0.0
H46 H 0.62979 0.59867 0.71339 0.0
H47 H 0.6495 0.62407 0.65428 0.0
H48 H 0.63559 0.63023 0.56147 0.0
H49 H 0.61985 0.60482 0.50398 0.0
H50 H 0.66006 0.68877 0.43486 0.0
H51 H 0.67574 0.71456 0.49233 0.0
N52 N 0.68756 0.71654 0.56609 0.0
N53 N 0.68792 0.71563 0.63243 0.0
N54 N 0.65795 0.67547 0.60098 0.0
C55 C 0.69797 0.72973 0.59867 0.0
C56 C 0.66779 0.68853 0.63369 0.0
C57 C 0.66757 0.68938 0.56701 0.0
C58 C 0.72136 0.75815 0.59757 0.0
C59 C 0.7241 0.77867 0.56209 0.0
C60 C 0.74771 0.80412 0.56054 0.0
C61 C 0.76945 0.80929 0.59432 0.0
C62 C 0.7664 0.78921 0.6299 0.0
C63 C 0.74236 0.76409 0.63158 0.0
C64 C 0.65657 0.67313 0.67023 0.0
C65 C 0.65405 0.692 0.69928 0.0
C66 C 0.64184 0.67765 0.73289 0.0
C67 C 0.63244 0.6439 0.73855 0.0
C68 C 0.63588 0.6249 0.70978 0.0
C69 C 0.64745 0.63942 0.67591 0.0
C70 C 0.65709 0.67445 0.53167 0.0
C71 C 0.64101 0.64345 0.53406 0.0
C72 C 0.8458 0.10334 0.93958 0.0
C73 C 0.82833 0.11701 0.90238 0.0
C74 C 0.79866 0.13651 0.89932 0.0
C75 C 0.78737 0.14307 0.93253 0.0
H76 H 0.73158 0.21598 0.96929 0.0
H77 H 0.68976 0.26069 0.96596 0.0
H78 H 0.68708 0.22986 0.08793 0.0
H79 H 0.72843 0.18528 0.09138 0.0
H80 H 0.80483 0.15883 0.13961 0.0
H81 H 0.83467 0.1361 0.204 0.0
H82 H 0.86977 0.05149 0.161 0.0
H83 H 0.84091 0.07526 0.09569 0.0
H84 H 0.84902 0.09935 1.00088 0.0
H85 H 0.86897 0.08857 0.9431 0.0
H86 H 0.78424 0.14698 0.87116 0.0
H87 H 0.76471 0.1586 0.92892 0.0
N88 N 0.76948 0.16223 0.00163 0.0
N89 N 0.77689 0.15656 0.06928 0.0
N90 N 0.81084 0.12448 0.04092 0.0
C91 C 0.76036 0.17108 0.03376 0.0
C92 C 0.80208 0.13331 0.07321 0.0
C93 C 0.79465 0.13884 0.00496 0.0
C94 C 0.73354 0.19707 0.03062 0.0
C95 C 0.72185 0.21855 0.99531 0.0
C96 C 0.69805 0.24427 0.99343 0.0
C97 C 0.68516 0.24879 0.0267 0.0
C98 C 0.69624 0.22683 0.06171 0.0
C99 C 0.72018 0.20139 0.06369 0.0
C100 C 0.82034 0.1188 0.11245 0.0
C101 C 0.81882 0.13532 0.14378 0.0
C102 C 0.83581 0.12211 0.18091 0.0
C103 C 0.8544 0.09169 0.18801 0.0
C104 C 0.85602 0.07514 0.15662 0.0
C105 C 0.83934 0.08867 0.11919 0.0
C106 C 0.80538 0.13016 0.96971 0.0
C107 C 0.83443 0.10976 0.9728 0.0
C108 C 0.40125 0.36026 0.56562 0.0
C109 C 0.38749 0.34702 0.59875 0.0
C110 C 0.36512 0.32037 0.59701 0.0
C111 C 0.35597 0.30776 0.56273 0.0
H112 H 0.30865 0.22995 0.51997 0.0
H113 H 0.26489 0.18844 0.52216 0.0
H114 H 0.23358 0.21499 0.39816 0.0
H115 H 0.27774 0.2571 0.39578 0.0
H116 H 0.32925 0.30994 0.34941 0.0
H117 H 0.34977 0.33691 0.29104 0.0
H118 H 0.43521 0.37409 0.36213 0.0
H119 H 0.4141 0.34836 0.42011 0.0
H120 H 0.40253 0.35884 0.50587 0.0
H121 H 0.4185 0.38088 0.56611 0.0
H122 H 0.35459 0.30922 0.62228 0.0
H123 H 0.33836 0.28743 0.56259 0.0
N124 N 0.33423 0.28462 0.49108 0.0
N125 N 0.33341 0.28765 0.42442 0.0
N126 N 0.36873 0.32256 0.45925 0.0
C127 C 0.32213 0.27368 0.45751 0.0
C128 C 0.35698 0.31199 0.42522 0.0
C129 C 0.35735 0.30907 0.4923 0.0
C130 C 0.29665 0.24702 0.45768 0.0
C131 C 0.29263 0.22697 0.49302 0.0
C132 C 0.26768 0.20292 0.49429 0.0
C133 C 0.24586 0.19838 0.46034 0.0
C134 C 0.24999 0.21808 0.42482 0.0
C135 C 0.27536 0.24202 0.42344 0.0
C136 C 0.36985 0.32716 0.38949 0.0
C137 C 0.35243 0.32385 0.35254 0.0
C138 C 0.36431 0.3392 0.31904 0.0
C139 C 0.39407 0.35793 0.32174 0.0
C140 C 0.41178 0.36058 0.35879 0.0
C141 C 0.39974 0.3456 0.39215 0.0
C142 C 0.36891 0.3215 0.52916 0.0
C143 C 0.39198 0.34768 0.53111 0.0
C144 C 0.94304 0.09528 0.47165 0.0
C145 C 0.88524 0.07619 0.46046 0.0
C146 C 0.91859 0.07254 0.48176 0.0
C147 C 0.87734 0.10189 0.42814 0.0
C148 C 0.93505 0.12149 0.43965 0.0
C149 C 0.90218 0.12445 0.41773 0.0
N150 N 0.97498 0.09121 0.49263 0.0
C151 C 0.9997 0.11321 0.4843 0.0
C152 C 0.96047 0.14377 0.43042 0.0
C153 C 0.99288 0.1397 0.45298 0.0
Gd154 Gd 0.02946 0.96545 0.51865 0.0
Gd155 Gd 0.98424 0.04587 0.54425 0.0
N156 N 0.92699 0.04777 0.51317 0.0
C157 C 0.8605 0.05454 0.473 0.0
C158 C 0.90207 0.02912 0.52769 0.0
C159 C 0.86881 0.03139 0.50726 0.0
H160 H 0.90722 0.01322 0.55564 0.0
H161 H 0.84943 0.01582 0.51847 0.0
H162 H 0.10803 0.99931 0.52376 0.0
H163 H 0.02466 0.11027 0.50191 0.0
H164 H 0.16308 0.99126 0.56689 0.0
H165 H 0.83462 0.05652 0.45744 0.0
H166 H 0.85192 0.10487 0.41133 0.0
H167 H 0.98332 0.90046 0.54806 0.0
H168 H 0.95533 0.16418 0.406 0.0
H169 H 0.01262 0.15693 0.44624 0.0
H170 H 0.1509 0.89154 0.65705 0.0
H171 H 0.89564 0.14423 0.39282 0.0
H172 H 0.04375 0.83766 0.64469 0.0
H173 H 0.98924 0.85031 0.59951 0.0
N174 N 0.03336 0.91641 0.56493 0.0
C175 C 0.06376 0.90965 0.5889 0.0
C176 C 0.00692 0.89539 0.56809 0.0
C177 C 0.04119 0.85975 0.62231 0.0
C178 C 0.01034 0.86685 0.59694 0.0
C179 C 0.06842 0.88115 0.6184 0.0
H180 H 0.10401 0.85322 0.66591 0.0
N181 N 0.08439 0.95973 0.55638 0.0
C182 C 0.08992 0.93199 0.58463 0.0
C183 C 0.14791 0.94777 0.60337 0.0
C184 C 0.1217 0.92557 0.60918 0.0
C185 C 0.11073 0.9799 0.54882 0.0
C186 C 0.14253 0.97476 0.57269 0.0
O187 O 0.98796 0.04351 0.48165 0.0
O188 O 0.98243 0.98795 0.47836 0.0
O189 O 0.05648 0.96209 0.47113 0.0
O190 O 0.02766 0.92034 0.49354 0.0
O191 O 0.96482 0.99411 0.56492 0.0
O192 O 0.97305 0.96345 0.51791 0.0
O193 O 0.02615 0.96735 0.58107 0.0
O194 O 0.03063 0.0228 0.58595 0.0
O195 O 0.95922 0.05528 0.59224 0.0
O196 O 0.99126 0.09268 0.56509 0.0
O197 O 0.04998 0.01672 0.49915 0.0
O198 O 0.04045 0.04903 0.5441 0.0
C199 C 0.9779 0.01952 0.46229 0.0
C200 C 0.95709 0.96916 0.54578 0.0
C201 C 0.0286 0.93024 0.42635 0.0
C202 C 0.03486 0.92402 0.36062 0.0
C203 C 0.97863 0.92795 0.37759 0.0
C204 C 0.99316 0.93079 0.41539 0.0
C205 C 0.99921 0.92443 0.35042 0.0
C206 C 0.0493 0.92717 0.39887 0.0
C207 C 0.04424 0.93308 0.46624 0.0
C208 C 0.12653 0.89699 0.63827 0.0
C209 C 0.09991 0.875 0.64311 0.0
H210 H 0.17266 0.94374 0.62167 0.0
C211 C 0.03676 0.99103 0.60054 0.0
C212 C 0.05656 0.04274 0.51666 0.0
C213 C 0.96604 0.10852 0.61679 0.0
C214 C 0.94555 0.12149 0.67376 0.0
C215 C 0.97427 0.16362 0.63436 0.0
C216 C 0.9783 0.14115 0.60988 0.0
C217 C 0.95818 0.15388 0.66617 0.0
C218 C 0.9492 0.09888 0.64865 0.0
C219 C 0.97208 0.0849 0.59115 0.0
H220 H 0.95129 0.92809 0.36941 0.0
H221 H 0.97672 0.93319 0.43611 0.0
H222 H 0.9871 0.92138 0.32162 0.0
H223 H 0.07664 0.92745 0.40735 0.0
H224 H 0.98381 0.18867 0.62874 0.0
H225 H 0.9912 0.14936 0.58556 0.0
H226 H 0.95531 0.17184 0.68476 0.0
H227 H 0.93975 0.07378 0.65446 0.0
C228 C 0.60924 0.55505 0.02044 0.0
C229 C 0.59498 0.61416 0.99968 0.0
C230 C 0.58727 0.5821 0.01822 0.0
C231 C 0.62431 0.6184 0.98268 0.0
C232 C 0.63873 0.55924 0.00344 0.0
C233 C 0.6461 0.59103 0.98455 0.0
N234 N 0.60126 0.52439 0.03832 0.0
C235 C 0.62194 0.4971 0.04122 0.0
C236 C 0.65981 0.53126 0.00569 0.0
C237 C 0.65141 0.50007 0.02475 0.0
Gd238 Gd 0.47006 0.49571 0.99251 0.0
Gd239 Gd 0.55147 0.52173 0.06485 0.0
N240 N 0.55893 0.57726 0.03492 0.0
C241 C 0.57347 0.64123 0.99967 0.0
C242 C 0.53993 0.60418 0.0382 0.0
C243 C 0.54619 0.6363 0.01964 0.0
H244 H 0.52071 0.60153 0.05624 0.0
H245 H 0.53047 0.65737 0.02161 0.0
H246 H 0.47846 0.4148 0.03473 0.0
H247 H 0.61557 0.47305 0.05617 0.0
H248 H 0.44459 0.3721 0.06872 0.0
H249 H 0.57849 0.66622 0.98569 0.0
H250 H 0.63061 0.64287 0.96844 0.0
H251 H 0.41829 0.56221 0.95693 0.0
H252 H 0.68261 0.53346 0.99282 0.0
H253 H 0.66763 0.47833 0.02678 0.0
H254 H 0.33797 0.42857 0.063 0.0
H255 H 0.66872 0.59474 0.97147 0.0
H256 H 0.32309 0.54197 0.9953 0.0
H257 H 0.36 0.58047 0.95992 0.0
N258 N 0.41449 0.5144 0.99104 0.0
C259 C 0.39439 0.49248 0.00966 0.0
C260 C 0.40243 0.54546 0.97282 0.0
C261 C 0.34865 0.5339 0.99419 0.0
C262 C 0.36942 0.55576 0.97429 0.0
C263 C 0.36093 0.50168 0.0119 0.0
H264 H 0.3151 0.48514 0.0337 0.0
N265 N 0.4399 0.45278 0.02412 0.0
C266 C 0.40726 0.46058 0.02624 0.0
C267 C 0.40088 0.40499 0.06116 0.0
C268 C 0.38704 0.43703 0.04536 0.0
C269 C 0.45303 0.42117 0.03789 0.0
C270 C 0.43388 0.39694 0.05706 0.0
O271 O 0.55352 0.5169 0.00248 0.0
O272 O 0.50186 0.53851 0.97159 0.0
O273 O 0.48168 0.46801 0.949 0.0
O274 O 0.43619 0.49934 0.93721 0.0
O275 O 0.49967 0.54505 0.06376 0.0
O276 O 0.47719 0.54924 0.99948 0.0
O277 O 0.46663 0.48602 0.05643 0.0
O278 O 0.52071 0.48123 0.09352 0.0
O279 O 0.56129 0.54836 0.11353 0.0
O280 O 0.59422 0.50709 0.11139 0.0
O281 O 0.51586 0.46014 0.00676 0.0
O282 O 0.55168 0.46646 0.06412 0.0
C283 C 0.53438 0.53443 0.9721 0.0
C284 C 0.4771 0.5578 0.03334 0.0
C285 C 0.4338 0.45018 0.91005 0.0
C286 C 0.41957 0.41617 0.85955 0.0
C287 C 0.39371 0.40547 0.91755 0.0
C288 C 0.41155 0.43163 0.93154 0.0
C289 C 0.39768 0.3977 0.88183 0.0
C290 C 0.43765 0.44249 0.87394 0.0
C291 C 0.45337 0.4772 0.9253 0.0
C292 C 0.35383 0.44623 0.04814 0.0
C293 C 0.34082 0.47847 0.03149 0.0
H294 H 0.38621 0.38621 0.07624 0.0
C295 C 0.48788 0.47618 0.08899 0.0
C296 C 0.54087 0.44976 0.03584 0.0
C297 C 0.58288 0.51388 0.17274 0.0
C298 C 0.58408 0.52179 0.2395 0.0
C299 C 0.56763 0.46855 0.22045 0.0
C300 C 0.57245 0.48092 0.18266 0.0
C301 C 0.57323 0.48884 0.24872 0.0
C302 C 0.58889 0.53416 0.20132 0.0
C303 C 0.5858 0.52791 0.13237 0.0
H304 H 0.37658 0.39132 0.93432 0.0
H305 H 0.40778 0.43738 0.95901 0.0
H306 H 0.38306 0.37764 0.87125 0.0
H307 H 0.45484 0.45678 0.85727 0.0
H308 H 0.55959 0.44313 0.2279 0.0
H309 H 0.56792 0.46479 0.16116 0.0
H310 H 0.56962 0.4786 0.27795 0.0
H311 H 0.59667 0.55971 0.19365 0.0
C312 C 0.18477 0.18334 0.44479 0.0
C313 C 0.21816 0.174 0.46281 0.0
C314 C 0.15778 0.16186 0.45076 0.0
C315 C 0.16445 0.13024 0.4751 0.0
C316 C 0.1983 0.12015 0.49201 0.0
C317 C 0.22471 0.14217 0.48573 0.0
C318 C 0.12201 0.17354 0.43232 0.0
C319 C 0.2065 0.08652 0.51782 0.0
C320 C 0.09561 0.08981 0.52782 0.0
C321 C 0.0837 0.06554 0.50547 0.0
C322 C 0.12146 0.11135 0.51784 0.0
C323 C 0.13596 0.10848 0.48482 0.0
C324 C 0.12391 0.08423 0.46193 0.0
C325 C 0.09786 0.06312 0.47246 0.0
C326 C 0.13353 0.13696 0.54294 0.0
C327 C 0.13881 0.08034 0.4266 0.0
H328 H 0.17954 0.20802 0.42734 0.0
H329 H 0.25056 0.1347 0.49933 0.0
H330 H 0.10925 0.15459 0.41621 0.0
H331 H 0.10711 0.17651 0.45524 0.0
H332 H 0.12131 0.19777 0.41209 0.0
H333 H 0.23429 0.08156 0.52663 0.0
H334 H 0.19509 0.08538 0.54437 0.0
H335 H 0.19536 0.06625 0.50276 0.0
H336 H 0.08489 0.0919 0.55338 0.0
H337 H 0.08872 0.04459 0.45486 0.0
H338 H 0.13134 0.16239 0.52508 0.0
H339 H 0.16072 0.13206 0.55572 0.0
H340 H 0.11885 0.13672 0.56687 0.0
H341 H 0.13662 0.10441 0.40597 0.0
H342 H 0.12607 0.0608 0.41136 0.0
H343 H 0.16624 0.0736 0.43521 0.0
C344 C 0.36976 0.71557 0.05932 0.0
C345 C 0.33543 0.71337 0.04345 0.0
C346 C 0.39316 0.68973 0.05975 0.0
C347 C 0.38178 0.66083 0.04457 0.0
C348 C 0.34687 0.65798 0.02991 0.0
C349 C 0.32419 0.68447 0.02912 0.0
C350 C 0.43022 0.69386 0.0752 0.0
C351 C 0.33352 0.62755 0.01372 0.0
C352 C 0.44405 0.61081 0.0057 0.0
C353 C 0.45319 0.58426 0.03662 0.0
C354 C 0.42108 0.63605 0.0081 0.0
C355 C 0.40663 0.63443 0.04209 0.0
C356 C 0.41574 0.60753 0.07338 0.0
C357 C 0.43926 0.5829 0.07042 0.0
C358 C 0.41225 0.66441 0.97422 0.0
C359 C 0.40019 0.60448 0.10964 0.0
H360 H 0.37849 0.73803 0.07016 0.0
H361 H 0.29758 0.68266 0.0171 0.0
H362 H 0.43987 0.67234 0.09823 0.0
H363 H 0.44525 0.69422 0.05158 0.0
H364 H 0.43477 0.71729 0.08725 0.0
H365 H 0.30552 0.62599 0.0114 0.0
H366 H 0.33979 0.62896 0.98428 0.0
H367 H 0.34544 0.6042 0.03193 0.0
H368 H 0.45515 0.61197 0.97971 0.0
H369 H 0.4462 0.56215 0.0942 0.0
H370 H 0.41749 0.68873 0.98397 0.0
H371 H 0.38476 0.66437 0.96229 0.0
H372 H 0.42677 0.66266 0.95057 0.0
H373 H 0.40547 0.62704 0.12313 0.0
H374 H 0.40998 0.58205 0.13133 0.0
H375 H 0.37219 0.60296 0.10206 0.0
C376 C 0.78854 0.86703 0.57156 0.0
C377 C 0.79634 0.83444 0.59187 0.0
C378 C 0.81419 0.89029 0.56656 0.0
C379 C 0.84848 0.88049 0.58159 0.0
C380 C 0.85641 0.84783 0.60288 0.0
C381 C 0.83018 0.82527 0.60803 0.0
C382 C 0.8047 0.92506 0.54425 0.0
C383 C 0.8927 0.83625 0.61878 0.0
C384 C 0.91546 0.92552 0.52966 0.0
C385 C 0.92912 0.9468 0.55521 0.0
C386 C 0.88944 0.90371 0.53811 0.0
C387 C 0.87621 0.90354 0.57265 0.0
C388 C 0.88957 0.92519 0.59841 0.0
C389 C 0.91613 0.94634 0.58958 0.0
C390 C 0.87624 0.88069 0.51011 0.0
C391 C 0.87576 0.92604 0.63523 0.0
H392 H 0.76234 0.87421 0.55933 0.0
H393 H 0.83628 0.79997 0.62341 0.0
H394 H 0.81631 0.94408 0.56105 0.0
H395 H 0.81474 0.92873 0.51661 0.0
H396 H 0.77677 0.92965 0.53746 0.0
H397 H 0.89447 0.81067 0.63633 0.0
H398 H 0.90688 0.83632 0.59449 0.0
H399 H 0.9055 0.85369 0.63708 0.0
H400 H 0.9252 0.92577 0.50294 0.0
H401 H 0.92666 0.96255 0.60958 0.0
H402 H 0.8488 0.88596 0.49908 0.0
H403 H 0.87901 0.85429 0.52524 0.0
H404 H 0.8898 0.88341 0.48496 0.0
H405 H 0.84807 0.93185 0.62825 0.0
H406 H 0.88832 0.94492 0.65168 0.0
H407 H 0.87933 0.90112 0.65417 0.0
C408 C 0.63291 0.27191 0.04423 0.0
C409 C 0.66123 0.27701 0.02558 0.0
C410 C 0.61141 0.29875 0.04572 0.0
C411 C 0.61855 0.33151 0.02838 0.0
C412 C 0.64673 0.33674 0.00888 0.0
C413 C 0.66766 0.3094 0.00759 0.0
C414 C 0.58141 0.29212 0.06641 0.0
C415 C 0.65528 0.37134 0.99021 0.0
C416 C 0.55028 0.40041 0.00467 0.0
C417 C 0.55908 0.418 0.03553 0.0
C418 C 0.56894 0.37181 0.0024 0.0
C419 C 0.59718 0.36053 0.03157 0.0
C420 C 0.60565 0.37756 0.06333 0.0
C421 C 0.5864 0.40593 0.06504 0.0
C422 C 0.5589 0.35414 0.96827 0.0
C423 C 0.6356 0.36629 0.09505 0.0
H424 H 0.62763 0.24686 0.05781 0.0
H425 H 0.68973 0.31354 0.99354 0.0
H426 H 0.58441 0.30528 0.09161 0.0
H427 H 0.5577 0.3021 0.04675 0.0
H428 H 0.57851 0.26503 0.07691 0.0
H429 H 0.67752 0.37106 0.97529 0.0
H430 H 0.63323 0.38295 0.9688 0.0
H431 H 0.66089 0.3875 0.01258 0.0
H432 H 0.52912 0.40926 0.98178 0.0
H433 H 0.59329 0.41902 0.08924 0.0
H434 H 0.55522 0.3272 0.97856 0.0
H435 H 0.57954 0.35585 0.95078 0.0
H436 H 0.53518 0.36496 0.94918 0.0
H437 H 0.63298 0.33977 0.10819 0.0
H438 H 0.63823 0.38167 0.11833 0.0
H439 H 0.65932 0.36786 0.0826 0.0
C440 C 0.15715 0.91445 0.20386 0.0
C441 C 0.14963 0.88577 0.18736 0.0
C442 C 0.14054 0.92158 0.23344 0.0
C443 C 0.1153 0.89989 0.2461 0.0
C444 C 0.10775 0.87081 0.22958 0.0
C445 C 0.12527 0.86394 0.20067 0.0
C446 C 0.14982 0.9524 0.25095 0.0
C447 C 0.08059 0.84738 0.24177 0.0
C448 C 0.0869 0.90012 0.34288 0.0
C449 C 0.0567 0.91955 0.33164 0.0
C450 C 0.10684 0.89447 0.31555 0.0
C451 C 0.09602 0.90794 0.27586 0.0
C452 C 0.06591 0.92798 0.26434 0.0
C453 C 0.04687 0.93384 0.29238 0.0
C454 C 0.13912 0.87346 0.32905 0.0
C455 C 0.05333 0.94255 0.22225 0.0
H456 H 0.17617 0.93121 0.19369 0.0
H457 H 0.11921 0.84195 0.18759 0.0
H458 H 0.12755 0.96988 0.24506 0.0
H459 H 0.15701 0.94545 0.28292 0.0
H460 H 0.17119 0.96574 0.23927 0.0
H461 H 0.07795 0.82576 0.22624 0.0
H462 H 0.08651 0.83776 0.2734 0.0
H463 H 0.05579 0.86111 0.23599 0.0
H464 H 0.09461 0.88855 0.37296 0.0
H465 H 0.02407 0.94953 0.2834 0.0
H466 H 0.16068 0.88687 0.31797 0.0
H467 H 0.13643 0.84985 0.31723 0.0
H468 H 0.14545 0.86713 0.36117 0.0
H469 H 0.07304 0.95832 0.21018 0.0
H470 H 0.02968 0.95797 0.21813 0.0
H471 H 0.04834 0.92208 0.20517 0.0
C472 C 0.59319 0.60481 0.77174 0.0
C473 C 0.61874 0.6286 0.77397 0.0
C474 C 0.58041 0.58975 0.80482 0.0
C475 C 0.5928 0.59923 0.84102 0.0
C476 C 0.61805 0.62366 0.84346 0.0
C477 C 0.63104 0.63769 0.81008 0.0
C478 C 0.55357 0.56367 0.801 0.0
C479 C 0.63166 0.63479 0.88135 0.0
C480 C 0.53498 0.58093 0.91626 0.0
C481 C 0.54986 0.5514 0.9393 0.0
C482 C 0.54934 0.59736 0.88493 0.0
C483 C 0.57898 0.58361 0.87613 0.0
C484 C 0.5944 0.55405 0.89975 0.0
C485 C 0.57964 0.53831 0.9311 0.0
C486 C 0.53264 0.62929 0.86109 0.0
C487 C 0.62608 0.53866 0.89147 0.0
H488 H 0.58284 0.59807 0.74398 0.0
H489 H 0.65115 0.65556 0.81247 0.0
H490 H 0.56239 0.54 0.82092 0.0
H491 H 0.53004 0.57216 0.8095 0.0
H492 H 0.5473 0.55841 0.77098 0.0
H493 H 0.64757 0.65721 0.87739 0.0
H494 H 0.61053 0.64056 0.89595 0.0
H495 H 0.6474 0.61425 0.90082 0.0
H496 H 0.51223 0.59139 0.92294 0.0
H497 H 0.59114 0.51544 0.9489 0.0
H498 H 0.52353 0.62561 0.83086 0.0
H499 H 0.55136 0.64953 0.8599 0.0
H500 H 0.51077 0.63761 0.87298 0.0
H501 H 0.62105 0.53187 0.86212 0.0
H502 H 0.63518 0.51592 0.913 0.0
H503 H 0.64666 0.55705 0.89168 0.0
C504 C 0.85721 0.08126 0.26025 0.0
C505 C 0.87207 0.07771 0.22802 0.0
C506 C 0.87437 0.0705 0.29821 0.0
C507 C 0.90705 0.05526 0.30429 0.0
C508 C 0.92172 0.05034 0.27205 0.0
C509 C 0.90419 0.06186 0.2343 0.0
C510 C 0.85797 0.07666 0.33173 0.0
C511 C 0.95631 0.03365 0.27747 0.0
C512 C 0.96517 0.0595 0.39954 0.0
C513 C 0.96065 0.0282 0.42153 0.0
C514 C 0.94795 0.06861 0.36132 0.0
C515 C 0.92625 0.04552 0.3444 0.0
C516 C 0.92216 0.01356 0.3662 0.0
C517 C 0.9393 0.00534 0.4046 0.0
C518 C 0.9525 0.10317 0.33934 0.0
C519 C 0.89934 0.98824 0.34913 0.0
H520 H 0.83211 0.09273 0.25587 0.0
H521 H 0.91611 0.05922 0.20975 0.0
H522 H 0.85996 0.05401 0.35457 0.0
H523 H 0.87148 0.09687 0.34492 0.0
H524 H 0.83077 0.08437 0.32248 0.0
H525 H 0.96326 0.02979 0.24954 0.0
H526 H 0.97583 0.04922 0.29153 0.0
H527 H 0.95704 0.00904 0.29694 0.0
H528 H 0.9822 0.07696 0.41224 0.0
H529 H 0.9355 0.98118 0.42158 0.0
H530 H 0.92797 0.11742 0.33294 0.0
H531 H 0.96025 0.10155 0.31118 0.0
H532 H 0.97177 0.11742 0.35587 0.0
H533 H 0.87319 0.99892 0.33918 0.0
H534 H 0.89828 0.96479 0.37025 0.0
H535 H 0.90856 0.98201 0.3234 0.0
C536 C 0.36962 0.36685 0.65521 0.0
C537 C 0.39564 0.36112 0.635 0.0
C538 C 0.37674 0.37803 0.69079 0.0
C539 C 0.41078 0.38366 0.70666 0.0
C540 C 0.43711 0.379 0.68584 0.0
C541 C 0.42921 0.36781 0.65014 0.0
C542 C 0.34787 0.38292 0.71192 0.0
C543 C 0.47368 0.38479 0.70185 0.0
C544 C 0.41957 0.4339 0.78837 0.0
C545 C 0.42236 0.40835 0.8209 0.0
C546 C 0.41762 0.42636 0.75094 0.0
C547 C 0.41856 0.39251 0.74608 0.0
C548 C 0.42339 0.36676 0.77906 0.0
C549 C 0.42518 0.375 0.81605 0.0
C550 C 0.41256 0.45451 0.7165 0.0
C551 C 0.42481 0.33036 0.77517 0.0
H552 H 0.34356 0.36233 0.64325 0.0
H553 H 0.44942 0.36329 0.63467 0.0
H554 H 0.3511 0.36511 0.73982 0.0
H555 H 0.34805 0.40854 0.71882 0.0
H556 H 0.3227 0.37899 0.69474 0.0
H557 H 0.49077 0.38272 0.68071 0.0
H558 H 0.47626 0.40991 0.71013 0.0
H559 H 0.48225 0.36613 0.72849 0.0
H560 H 0.41723 0.45971 0.79197 0.0
H561 H 0.42793 0.35522 0.84122 0.0
H562 H 0.38631 0.45419 0.7003 0.0
H563 H 0.43013 0.45123 0.69631 0.0
H564 H 0.41665 0.47937 0.72531 0.0
H565 H 0.3996 0.32305 0.76114 0.0
H566 H 0.43196 0.31365 0.80369 0.0
H567 H 0.44336 0.32625 0.75639 0.0
C568 C 0.61407 0.64656 0.39484 0.0
C569 C 0.6304 0.62841 0.43039 0.0
C570 C 0.60562 0.63111 0.36215 0.0
C571 C 0.61402 0.59681 0.36507 0.0
C572 C 0.63078 0.57847 0.40082 0.0
C573 C 0.63865 0.59446 0.43305 0.0
C574 C 0.58744 0.65137 0.32462 0.0
C575 C 0.64045 0.54193 0.40502 0.0
C576 C 0.56734 0.54457 0.29494 0.0
C577 C 0.59068 0.54296 0.26993 0.0
C578 C 0.57411 0.56295 0.32525 0.0
C579 C 0.60514 0.57982 0.33094 0.0
C580 C 0.62847 0.57889 0.30524 0.0
C581 C 0.62087 0.5606 0.2749 0.0
C582 C 0.5484 0.5637 0.35172 0.0
C583 C 0.66194 0.59631 0.31057 0.0
H584 H 0.60739 0.67274 0.39277 0.0
H585 H 0.65169 0.58046 0.46035 0.0
H586 H 0.60254 0.65095 0.30123 0.0
H587 H 0.56267 0.64013 0.31565 0.0
H588 H 0.58287 0.67782 0.3271 0.0
H589 H 0.65387 0.5314 0.43467 0.0
H590 H 0.61738 0.52726 0.39845 0.0
H591 H 0.65712 0.53861 0.3839 0.0
H592 H 0.54378 0.53131 0.29083 0.0
H593 H 0.63906 0.55918 0.25579 0.0
H594 H 0.54204 0.58993 0.35336 0.0
H595 H 0.55934 0.55109 0.38151 0.0
H596 H 0.52461 0.5511 0.34187 0.0
H597 H 0.65767 0.62309 0.31155 0.0
H598 H 0.67651 0.59456 0.28697 0.0
H599 H 0.67761 0.58497 0.33865 0.0
C600 C 0.85721 0.08198 0.8646 0.0
C601 C 0.84214 0.11256 0.86708 0.0
C602 C 0.8728 0.07855 0.83281 0.0
C603 C 0.87332 0.10633 0.80274 0.0
C604 C 0.85704 0.13684 0.80436 0.0
C605 C 0.84179 0.13961 0.83648 0.0
C606 C 0.88977 0.04558 0.83209 0.0
C607 C 0.85697 0.1671 0.7729 0.0
C608 C 0.94468 0.11859 0.74424 0.0
C609 C 0.92874 0.11208 0.7081 0.0
C610 C 0.92747 0.11495 0.7759 0.0
C611 C 0.89332 0.10477 0.77126 0.0
C612 C 0.87769 0.09631 0.73541 0.0
C613 C 0.89569 0.09996 0.7042 0.0
C614 C 0.9453 0.12378 0.81371 0.0
C615 C 0.84137 0.08534 0.72932 0.0
H616 H 0.85715 0.06078 0.88778 0.0
H617 H 0.83067 0.16347 0.83827 0.0
H618 H 0.88128 0.03749 0.80381 0.0
H619 H 0.91766 0.04857 0.83539 0.0
H620 H 0.88435 0.02555 0.85566 0.0
H621 H 0.841 0.18811 0.77695 0.0
H622 H 0.88329 0.17583 0.77277 0.0
H623 H 0.84748 0.16048 0.74404 0.0
H624 H 0.9704 0.1276 0.74738 0.0
H625 H 0.8833 0.09504 0.67621 0.0
H626 H 0.94273 0.10347 0.83822 0.0
H627 H 0.9333 0.14675 0.81905 0.0
H628 H 0.97272 0.12826 0.81366 0.0
H629 H 0.83697 0.06568 0.75372 0.0
H630 H 0.8344 0.0756 0.70175 0.0
H631 H 0.82416 0.1069 0.72856 0.0
C632 C 0.40462 0.3596 0.25348 0.0
C633 C 0.4066 0.37497 0.28627 0.0
C634 C 0.41694 0.37531 0.22026 0.0
C635 C 0.43194 0.40698 0.21996 0.0
C636 C 0.43389 0.4227 0.25279 0.0
C637 C 0.42098 0.40666 0.28535 0.0
C638 C 0.41426 0.3579 0.18564 0.0
C639 C 0.44978 0.45645 0.2536 0.0
C640 C 0.49379 0.43532 0.15128 0.0
C641 C 0.47363 0.45813 0.12229 0.0
C642 C 0.4804 0.41809 0.18295 0.0
C643 C 0.44597 0.42369 0.18551 0.0
C644 C 0.42534 0.44623 0.15589 0.0
C645 C 0.43948 0.46333 0.12479 0.0
C646 C 0.50319 0.39417 0.21389 0.0
C647 C 0.3884 0.45256 0.15722 0.0
H648 H 0.39396 0.33499 0.25397 0.0
H649 H 0.422 0.41914 0.31011 0.0
H650 H 0.40046 0.37429 0.15938 0.0
H651 H 0.44 0.35286 0.17987 0.0
H652 H 0.40091 0.33385 0.18999 0.0
H653 H 0.44941 0.46527 0.28144 0.0
H654 H 0.47651 0.45517 0.24909 0.0
H655 H 0.43607 0.47527 0.2296 0.0
H656 H 0.51995 0.43062 0.14901 0.0
H657 H 0.42382 0.48113 0.1026 0.0
H658 H 0.49152 0.36929 0.21852 0.0
H659 H 0.5063 0.40354 0.24178 0.0
H660 H 0.52871 0.39102 0.20637 0.0
H661 H 0.37471 0.42868 0.15898 0.0
H662 H 0.37565 0.47023 0.13135 0.0
H663 H 0.38614 0.46298 0.18358 0.0
C664 C 0.15633 0.91831 0.80181 0.0
C665 C 0.14498 0.92901 0.83316 0.0
C666 C 0.14064 0.92998 0.7634 0.0
C667 C 0.11193 0.95187 0.75599 0.0
C668 C 0.10043 0.96305 0.78727 0.0
C669 C 0.11741 0.95198 0.82533 0.0
C670 C 0.1542 0.91765 0.73109 0.0
C671 C 0.06954 0.98597 0.78064 0.0
C672 C 0.0813 0.00176 0.65508 0.0
C673 C 0.05582 0.9814 0.64027 0.0
C674 C 0.1003 0.99214 0.69245 0.0
C675 C 0.09295 0.96191 0.71578 0.0
C676 C 0.06721 0.94129 0.7008 0.0
C677 C 0.04916 0.95117 0.66309 0.0
C678 C 0.12868 0.01392 0.70669 0.0
C679 C 0.05859 0.90886 0.72462 0.0
H680 H 0.17702 0.90006 0.80711 0.0
H681 H 0.10878 0.96118 0.84897 0.0
H682 H 0.1394 0.89586 0.72353 0.0
H683 H 0.15185 0.93719 0.70469 0.0
H684 H 0.18127 0.90937 0.73999 0.0
H685 H 0.06387 0.99247 0.80805 0.0
H686 H 0.07329 0.00942 0.76076 0.0
H687 H 0.0471 0.97376 0.76652 0.0
H688 H 0.0869 0.02484 0.6371 0.0
H689 H 0.02945 0.93538 0.6516 0.0
H690 H 0.15297 0.99922 0.71429 0.0
H691 H 0.12388 0.02236 0.73341 0.0
H692 H 0.13162 0.03629 0.68469 0.0
H693 H 0.08081 0.89128 0.73128 0.0
H694 H 0.0367 0.89662 0.70939 0.0
H695 H 0.05253 0.91343 0.75266 0.0
loop_
_geom_bond_atom_site_label_1
_geom_bond_atom_site_label_2
_geom_bond_distance
_geom_bond_site_symmetry_2
_ccdc_geom_bond_type
C0 C1 1.384 . S
C0 H13 0.947 . S
C0 C35 1.382 . S
C1 C0 1.384 . S
C1 C2 1.378 . S
C2 C1 1.378 . S
C2 C3 1.378 . S
C2 H14 0.952 . S
C3 C2 1.378 . S
C3 H15 0.950 . S
C3 C34 1.383 . S
H4 C23 0.947 . S
H5 C24 0.946 . S
H6 C26 0.953 . S
H7 C27 0.945 . S
H8 C29 0.952 . S
H9 C30 0.949 . S
H10 C32 0.950 . S
H11 C33 0.948 . S
H12 C35 0.951 . S
H13 C0 0.947 . S
H14 C2 0.952 . S
H15 C3 0.950 . S
N16 C19 1.382 . S
N16 C21 1.363 . S
N17 C19 1.371 1_556 S
N17 C20 1.372 . S
N18 C20 1.361 1_554 S
N18 C21 1.377 . S
C19 N16 1.382 . S
C19 N17 1.371 1_554 S
C19 C22 1.480 . S
C20 N17 1.372 . S
C20 N18 1.361 1_556 S
C20 C28 1.457 . S
C21 N16 1.363 . S
C21 N18 1.377 . S
C21 C34 1.479 . S
C22 C19 1.480 . S
C22 C23 1.383 . S
C22 C27 1.385 1_554 S
C23 H4 0.947 . S
C23 C22 1.383 . S
C23 C24 1.388 . S
C24 H5 0.946 . S
C24 C23 1.388 . S
C24 C25 1.384 . S
C25 C24 1.384 . S
C25 C26 1.377 1_554 S
C26 H6 0.953 . S
C26 C25 1.377 1_556 S
C26 C27 1.369 . S
C27 H7 0.945 . S
C27 C22 1.385 1_556 S
C27 C26 1.369 . S
C28 C20 1.457 . S
C28 C29 1.372 . S
C28 C33 1.364 . S
C29 H8 0.952 . S
C29 C28 1.372 . S
C29 C30 1.389 . S
C30 H9 0.949 . S
C30 C29 1.389 . S
C30 C31 1.387 . S
C31 C30 1.387 . S
C31 C32 1.372 . S
C32 H10 0.950 . S
C32 C31 1.372 . S
C32 C33 1.379 . S
C33 H11 0.948 . S
C33 C28 1.364 . S
C33 C32 1.379 . S
C34 C3 1.383 . S
C34 C21 1.479 . S
C34 C35 1.398 . S
C35 C0 1.382 . S
C35 H12 0.951 . S
C35 C34 1.398 . S
C36 C37 1.384 . S
C36 H49 0.947 . S
C36 C71 1.382 . S
C37 C36 1.384 . S
C37 C38 1.378 . S
C38 C37 1.378 . S
C38 C39 1.378 . S
C38 H50 0.952 . S
C39 C38 1.378 . S
C39 H51 0.950 . S
C39 C70 1.383 . S
H40 C59 0.947 . S
H41 C60 0.946 . S
H42 C62 0.953 . S
H43 C63 0.945 . S
H44 C65 0.952 . S
H45 C66 0.949 . S
H46 C68 0.950 . S
H47 C69 0.948 . S
H48 C71 0.951 . S
H49 C36 0.947 . S
H50 C38 0.952 . S
H51 C39 0.950 . S
N52 C55 1.382 . S
N52 C57 1.363 . S
N53 C55 1.371 . S
N53 C56 1.372 . S
N54 C56 1.361 . S
N54 C57 1.377 . S
C55 N52 1.382 . S
C55 N53 1.371 . S
C55 C58 1.480 . S
C56 N53 1.372 . S
C56 N54 1.361 . S
C56 C64 1.457 . S
C57 N52 1.363 . S
C57 N54 1.377 . S
C57 C70 1.479 . S
C58 C55 1.480 . S
C58 C59 1.383 . S
C58 C63 1.385 . S
C59 H40 0.947 . S
C59 C58 1.383 . S
C59 C60 1.388 . S
C60 H41 0.946 . S
C60 C59 1.388 . S
C60 C61 1.384 . S
C61 C60 1.384 . S
C61 C62 1.377 . S
C62 H42 0.953 . S
C62 C61 1.377 . S
C62 C63 1.369 . S
C63 H43 0.945 . S
C63 C58 1.385 . S
C63 C62 1.369 . S
C64 C56 1.457 . S
C64 C65 1.372 . S
C64 C69 1.364 . S
C65 H44 0.952 . S
C65 C64 1.372 . S
C65 C66 1.389 . S
C66 H45 0.949 . S
C66 C65 1.389 . S
C66 C67 1.387 . S
C67 C66 1.387 . S
C67 C68 1.372 . S
C68 H46 0.950 . S
C68 C67 1.372 . S
C68 C69 1.379 . S
C69 H47 0.948 . S
C69 C64 1.364 . S
C69 C68 1.379 . S
C70 C39 1.383 . S
C70 C57 1.479 . S
C70 C71 1.398 . S
C71 C36 1.382 . S
C71 H48 0.951 . S
C71 C70 1.398 . S
C72 C73 1.384 . S
C72 H85 0.947 . S
C72 C107 1.382 . S
C73 C72 1.384 . S
C73 C74 1.378 . S
C74 C73 1.378 . S
C74 C75 1.378 . S
C74 H86 0.952 . S
C75 C74 1.378 . S
C75 H87 0.950 . S
C75 C106 1.383 . S
H76 C95 0.947 . S
H77 C96 0.946 . S
H78 C98 0.953 . S
H79 C99 0.945 . S
H80 C101 0.952 . S
H81 C102 0.949 . S
H82 C104 0.950 . S
H83 C105 0.948 . S
H84 C107 0.951 1_554 S
H85 C72 0.947 . S
H86 C74 0.952 . S
H87 C75 0.950 . S
N88 C91 1.382 . S
N88 C93 1.363 . S
N89 C91 1.371 . S
N89 C92 1.372 . S
N90 C92 1.361 . S
N90 C93 1.377 . S
C91 N88 1.382 . S
C91 N89 1.371 . S
C91 C94 1.480 . S
C92 N89 1.372 . S
C92 N90 1.361 . S
C92 C100 1.457 . S
C93 N88 1.363 . S
C93 N90 1.377 . S
C93 C106 1.479 1_554 S
C94 C91 1.480 . S
C94 C95 1.383 1_554 S
C94 C99 1.385 . S
C95 H76 0.947 . S
C95 C94 1.383 1_556 S
C95 C96 1.388 . S
C96 H77 0.946 . S
C96 C95 1.388 . S
C96 C97 1.384 1_556 S
C97 C96 1.384 1_554 S
C97 C98 1.377 . S
C98 H78 0.953 . S
C98 C97 1.377 . S
C98 C99 1.369 . S
C99 H79 0.945 . S
C99 C94 1.385 . S
C99 C98 1.369 . S
C100 C92 1.457 . S
C100 C101 1.372 . S
C100 C105 1.364 . S
C101 H80 0.952 . S
C101 C100 1.372 . S
C101 C102 1.389 . S
C102 H81 0.949 . S
C102 C101 1.389 . S
C102 C103 1.387 . S
C103 C102 1.387 . S
C103 C104 1.372 . S
C104 H82 0.950 . S
C104 C103 1.372 . S
C104 C105 1.379 . S
C105 H83 0.948 . S
C105 C100 1.364 . S
C105 C104 1.379 . S
C106 C75 1.383 . S
C106 C93 1.479 1_556 S
C106 C107 1.398 . S
C107 C72 1.382 . S
C107 H84 0.951 1_556 S
C107 C106 1.398 . S
C108 C109 1.384 . S
C108 H121 0.947 . S
C108 C143 1.382 . S
C109 C108 1.384 . S
C109 C110 1.378 . S
C110 C109 1.378 . S
C110 C111 1.378 . S
C110 H122 0.952 . S
C111 C110 1.378 . S
C111 H123 0.950 . S
C111 C142 1.383 . S
H112 C131 0.947 . S
H113 C132 0.946 . S
H114 C134 0.953 . S
H115 C135 0.945 . S
H116 C137 0.952 . S
H117 C138 0.949 . S
H118 C140 0.950 . S
H119 C141 0.948 . S
H120 C143 0.951 . S
H121 C108 0.947 . S
H122 C110 0.952 . S
H123 C111 0.950 . S
N124 C127 1.382 . S
N124 C129 1.363 . S
N125 C127 1.371 . S
N125 C128 1.372 . S
N126 C128 1.361 . S
N126 C129 1.377 . S
C127 N124 1.382 . S
C127 N125 1.371 . S
C127 C130 1.480 . S
C128 N125 1.372 . S
C128 N126 1.361 . S
C128 C136 1.457 . S
C129 N124 1.363 . S
C129 N126 1.377 . S
C129 C142 1.479 . S
C130 C127 1.480 . S
C130 C131 1.383 . S
C130 C135 1.385 . S
C131 H112 0.947 . S
C131 C130 1.383 . S
C131 C132 1.388 . S
C132 H113 0.946 . S
C132 C131 1.388 . S
C132 C133 1.384 . S
C133 C132 1.384 . S
C133 C134 1.377 . S
C134 H114 0.953 . S
C134 C133 1.377 . S
C134 C135 1.369 . S
C135 H115 0.945 . S
C135 C130 1.385 . S
C135 C134 1.369 . S
C136 C128 1.457 . S
C136 C137 1.372 . S
C136 C141 1.364 . S
C137 H116 0.952 . S
C137 C136 1.372 . S
C137 C138 1.389 . S
C138 H117 0.949 . S
C138 C137 1.389 . S
C138 C139 1.387 . S
C139 C138 1.387 . S
C139 C140 1.372 . S
C140 H118 0.950 . S
C140 C139 1.372 . S
C140 C141 1.379 . S
C141 H119 0.948 . S
C141 C136 1.364 . S
C141 C140 1.379 . S
C142 C111 1.383 . S
C142 C129 1.479 . S
C142 C143 1.398 . S
C143 C108 1.382 . S
C143 H120 0.951 . S
C143 C142 1.398 . S
C144 C146 1.422 . S
C144 C148 1.415 . S
C144 N150 1.369 . S
C145 C146 1.421 . S
C145 C147 1.417 . S
C145 C157 1.422 . S
C146 C144 1.422 . S
C146 C145 1.421 . S
C146 N156 1.359 . S
C147 C145 1.417 . S
C147 C149 1.329 . S
C147 H166 0.930 . S
C148 C144 1.415 . S
C148 C149 1.437 . S
C148 C152 1.413 . S
C149 C147 1.329 . S
C149 C148 1.437 . S
C149 H171 0.929 . S
N150 C144 1.369 . S
N150 C151 1.320 1_655 S
N150 Gd155 2.622 . S
C151 N150 1.320 1_455 S
C151 C153 1.378 1_455 S
C151 H163 0.948 . S
C152 C148 1.413 . S
C152 C153 1.348 . S
C152 H168 0.931 . S
C153 C151 1.378 1_655 S
C153 C152 1.348 . S
C153 H169 0.930 1_655 S
Gd154 N174 2.622 . S
Gd154 N181 2.570 . S
Gd154 O188 2.372 1_455 S
Gd154 O189 2.468 . S
Gd154 O190 2.427 . S
Gd154 O192 2.388 1_455 S
Gd154 O193 2.386 . S
Gd154 O197 2.307 1_565 S
Gd154 C207 2.805 . S
Gd155 N150 2.622 . S
Gd155 N156 2.570 . S
Gd155 O187 2.386 . S
Gd155 O191 2.307 1_545 S
Gd155 O194 2.353 1_655 S
Gd155 O195 2.468 . S
Gd155 O196 2.427 . S
Gd155 O198 2.388 1_655 S
Gd155 C219 2.805 . S
N156 C146 1.359 . S
N156 Gd155 2.570 . S
N156 C158 1.343 . S
C157 C145 1.422 . S
C157 C159 1.321 . S
C157 H165 0.931 . S
C158 N156 1.343 . S
C158 C159 1.390 . S
C158 H160 0.931 . S
C159 C157 1.321 . S
C159 C158 1.390 . S
C159 H161 0.930 . S
H160 C158 0.931 . S
H161 C159 0.930 . S
H162 C185 0.931 . S
H163 C151 0.948 . S
H164 C186 0.930 . S
H165 C157 0.931 . S
H166 C147 0.930 . S
H167 C176 0.929 1_655 S
H168 C152 0.931 . S
H169 C153 0.930 1_455 S
H170 C208 0.930 . S
H171 C149 0.929 . S
H172 C177 0.931 . S
H173 C178 0.930 1_655 S
N174 Gd154 2.622 . S
N174 C175 1.369 . S
N174 C176 1.338 . S
C175 N174 1.369 . S
C175 C179 1.415 . S
C175 C182 1.422 . S
C176 H167 0.929 1_455 S
C176 N174 1.338 . S
C176 C178 1.378 . S
C177 H172 0.931 . S
C177 C178 1.348 . S
C177 C179 1.413 . S
C178 H173 0.930 1_455 S
C178 C176 1.378 . S
C178 C177 1.348 . S
C179 C175 1.415 . S
C179 C177 1.413 . S
C179 C209 1.437 . S
H180 C209 0.929 . S
N181 Gd154 2.570 . S
N181 C182 1.359 . S
N181 C185 1.343 . S
C182 C175 1.422 . S
C182 N181 1.359 . S
C182 C184 1.421 . S
C183 C184 1.422 . S
C183 C186 1.321 . S
C183 H210 0.931 . S
C184 C182 1.421 . S
C184 C183 1.422 . S
C184 C208 1.417 . S
C185 H162 0.931 . S
C185 N181 1.343 . S
C185 C186 1.390 . S
C186 H164 0.930 . S
C186 C183 1.321 . S
C186 C185 1.390 . S
O187 Gd155 2.386 . S
O187 C199 1.265 . S
O188 Gd154 2.372 1_655 S
O188 C199 1.212 1_565 S
O189 Gd154 2.468 . S
O189 C207 1.263 . S
O190 Gd154 2.427 . S
O190 C207 1.252 . S
O191 Gd155 2.307 1_565 S
O191 C200 1.261 . S
O192 Gd154 2.388 1_655 S
O192 C200 1.252 . S
O193 Gd154 2.386 . S
O193 C211 1.265 . S
O194 Gd155 2.353 1_455 S
O194 C211 1.242 1_545 S
O195 Gd155 2.468 . S
O195 C219 1.263 . S
O196 Gd155 2.427 . S
O196 C219 1.252 . S
O197 Gd154 2.307 1_545 S
O197 C212 1.261 . S
O198 Gd155 2.388 1_455 S
O198 C212 1.252 . S
C199 O187 1.265 . S
C199 O188 1.212 1_545 S
C200 O191 1.261 . S
C200 O192 1.252 . S
C201 C204 1.394 . S
C201 C206 1.370 . S
C201 C207 1.500 . S
C202 C205 1.383 . S
C202 C206 1.395 . S
C203 C204 1.396 . S
C203 C205 1.365 . S
C203 H220 0.929 . S
C204 C201 1.394 . S
C204 C203 1.396 . S
C204 H221 0.930 . S
C205 C202 1.383 . S
C205 C203 1.365 . S
C205 H222 0.931 . S
C206 C201 1.370 . S
C206 C202 1.395 . S
C206 H223 0.930 . S
C207 Gd154 2.805 . S
C207 O189 1.263 . S
C207 O190 1.252 . S
C207 C201 1.500 . S
C208 H170 0.930 . S
C208 C184 1.417 . S
C208 C209 1.329 . S
C209 C179 1.437 . S
C209 H180 0.929 . S
C209 C208 1.329 . S
H210 C183 0.931 . S
C211 O193 1.265 . S
C211 O194 1.242 1_565 S
C212 O197 1.261 . S
C212 O198 1.252 . S
C213 C216 1.394 . S
C213 C218 1.370 . S
C213 C219 1.500 . S
C214 C217 1.383 . S
C214 C218 1.395 . S
C215 C216 1.396 . S
C215 C217 1.365 . S
C215 H224 0.929 . S
C216 C213 1.394 . S
C216 C215 1.396 . S
C216 H225 0.930 . S
C217 C214 1.383 . S
C217 C215 1.365 . S
C217 H226 0.931 . S
C218 C213 1.370 . S
C218 C214 1.395 . S
C218 H227 0.930 . S
C219 Gd155 2.805 . S
C219 O195 1.263 . S
C219 O196 1.252 . S
C219 C213 1.500 . S
H220 C203 0.929 . S
H221 C204 0.930 . S
H222 C205 0.931 . S
H223 C206 0.930 . S
H224 C215 0.929 . S
H225 C216 0.930 . S
H226 C217 0.931 . S
H227 C218 0.930 . S
C228 C230 1.422 . S
C228 C232 1.415 . S
C228 N234 1.369 . S
C229 C230 1.421 . S
C229 C231 1.417 . S
C229 C241 1.422 . S
C230 C228 1.422 . S
C230 C229 1.421 . S
C230 N240 1.359 . S
C231 C229 1.417 . S
C231 C233 1.329 . S
C231 H250 0.930 . S
C232 C228 1.415 . S
C232 C233 1.437 . S
C232 C236 1.413 . S
C233 C231 1.329 . S
C233 C232 1.437 . S
C233 H255 0.929 . S
N234 C228 1.369 . S
N234 C235 1.338 . S
N234 Gd239 2.622 . S
C235 N234 1.338 . S
C235 C237 1.378 . S
C235 H247 0.929 . S
C236 C232 1.413 . S
C236 C237 1.348 . S
C236 H252 0.931 . S
C237 C235 1.378 . S
C237 C236 1.348 . S
C237 H253 0.930 . S
Gd238 N258 2.622 . S
Gd238 N265 2.570 1_556 S
Gd238 O272 2.353 . S
Gd238 O273 2.468 . S
Gd238 O274 2.427 . S
Gd238 O276 2.388 . S
Gd238 O277 2.386 1_556 S
Gd238 O281 2.307 1_556 S
Gd238 C291 2.805 . S
Gd239 N234 2.622 . S
Gd239 N240 2.570 . S
Gd239 O271 2.386 1_554 S
Gd239 O275 2.307 . S
Gd239 O278 2.353 . S
Gd239 O279 2.468 . S
Gd239 O280 2.427 . S
Gd239 O282 2.388 . S
Gd239 C303 2.805 . S
N240 C230 1.359 . S
N240 Gd239 2.570 . S
N240 C242 1.343 . S
C241 C229 1.422 . S
C241 C243 1.321 . S
C241 H249 0.931 . S
C242 N240 1.343 . S
C242 C243 1.390 . S
C242 H244 0.931 . S
C243 C241 1.321 . S
C243 C242 1.390 . S
C243 H245 0.930 . S
H244 C242 0.931 . S
H245 C243 0.930 . S
H246 C269 0.931 . S
H247 C235 0.929 . S
H248 C270 0.930 . S
H249 C241 0.931 . S
H250 C231 0.930 . S
H251 C260 0.929 . S
H252 C236 0.931 . S
H253 C237 0.930 . S
H254 C292 0.930 . S
H255 C233 0.929 . S
H256 C261 0.931 . S
H257 C262 0.930 . S
N258 Gd238 2.622 . S
N258 C259 1.369 1_556 S
N258 C260 1.338 . S
C259 N258 1.369 1_554 S
C259 C263 1.415 . S
C259 C266 1.422 . S
C260 H251 0.929 . S
C260 N258 1.338 . S
C260 C262 1.378 . S
C261 H256 0.931 . S
C261 C262 1.348 1_554 S
C261 C263 1.413 . S
C262 H257 0.930 . S
C262 C260 1.378 . S
C262 C261 1.348 1_556 S
C263 C259 1.415 . S
C263 C261 1.413 . S
C263 C293 1.437 . S
H264 C293 0.929 . S
N265 Gd238 2.570 1_554 S
N265 C266 1.359 . S
N265 C269 1.343 . S
C266 C259 1.422 . S
C266 N265 1.359 . S
C266 C268 1.421 . S
C267 C268 1.422 . S
C267 C270 1.321 . S
C267 H294 0.931 . S
C268 C266 1.421 . S
C268 C267 1.422 . S
C268 C292 1.417 . S
C269 H246 0.931 . S
C269 N265 1.343 . S
C269 C270 1.390 . S
C270 H248 0.930 . S
C270 C267 1.321 . S
C270 C269 1.390 . S
O271 Gd239 2.386 1_556 S
O271 C283 1.265 . S
O272 Gd238 2.353 . S
O272 C283 1.242 . S
O273 Gd238 2.468 . S
O273 C291 1.263 . S
O274 Gd238 2.427 . S
O274 C291 1.252 . S
O275 Gd239 2.307 . S
O275 C284 1.261 . S
O276 Gd238 2.388 . S
O276 C284 1.252 1_556 S
O277 Gd238 2.386 1_554 S
O277 C295 1.265 . S
O278 Gd239 2.353 . S
O278 C295 1.242 . S
O279 Gd239 2.468 . S
O279 C303 1.263 . S
O280 Gd239 2.427 . S
O280 C303 1.252 . S
O281 Gd238 2.307 1_554 S
O281 C296 1.261 . S
O282 Gd239 2.388 . S
O282 C296 1.252 . S
C283 O271 1.265 . S
C283 O272 1.242 . S
C284 O275 1.261 . S
C284 O276 1.252 1_554 S
C285 C288 1.394 . S
C285 C290 1.370 . S
C285 C291 1.500 . S
C286 C289 1.383 . S
C286 C290 1.395 . S
C287 C288 1.396 . S
C287 C289 1.365 . S
C287 H304 0.929 . S
C288 C285 1.394 . S
C288 C287 1.396 . S
C288 H305 0.930 . S
C289 C286 1.383 . S
C289 C287 1.365 . S
C289 H306 0.931 . S
C290 C285 1.370 . S
C290 C286 1.395 . S
C290 H307 0.930 . S
C291 Gd238 2.805 . S
C291 O273 1.263 . S
C291 O274 1.252 . S
C291 C285 1.500 . S
C292 H254 0.930 . S
C292 C268 1.417 . S
C292 C293 1.329 . S
C293 C263 1.437 . S
C293 H264 0.929 . S
C293 C292 1.329 . S
H294 C267 0.931 . S
C295 O277 1.265 . S
C295 O278 1.242 . S
C296 O281 1.261 . S
C296 O282 1.252 . S
C297 C300 1.394 . S
C297 C302 1.370 . S
C297 C303 1.500 . S
C298 C301 1.383 . S
C298 C302 1.395 . S
C299 C300 1.396 . S
C299 C301 1.365 . S
C299 H308 0.929 . S
C300 C297 1.394 . S
C300 C299 1.396 . S
C300 H309 0.930 . S
C301 C298 1.383 . S
C301 C299 1.365 . S
C301 H310 0.931 . S
C302 C297 1.370 . S
C302 C298 1.395 . S
C302 H311 0.930 . S
C303 Gd239 2.805 . S
C303 O279 1.263 . S
C303 O280 1.252 . S
C303 C297 1.500 . S
H304 C287 0.929 . S
H305 C288 0.930 . S
H306 C289 0.931 . S
H307 C290 0.930 . S
H308 C299 0.929 . S
H309 C300 0.930 . S
H310 C301 0.931 . S
H311 C302 0.930 . S
C312 C313 1.391 . S
C312 C314 1.394 . S
C312 H328 0.931 . S
C313 C312 1.391 . S
C313 C317 1.376 . S
C314 C312 1.394 . S
C314 C315 1.369 . S
C314 C318 1.531 . S
C315 C314 1.369 . S
C315 C316 1.410 . S
C315 C323 1.503 . S
C316 C315 1.410 . S
C316 C317 1.392 . S
C316 C319 1.511 . S
C317 C313 1.376 . S
C317 C316 1.392 . S
C317 H329 0.929 . S
C318 C314 1.531 . S
C318 H330 0.960 . S
C318 H331 0.962 . S
C318 H332 0.960 . S
C319 C316 1.511 . S
C319 H333 0.961 . S
C319 H334 0.961 . S
C319 H335 0.961 . S
C320 C321 1.370 . S
C320 C322 1.363 . S
C320 H336 0.931 . S
C321 C320 1.370 . S
C321 C325 1.408 . S
C322 C320 1.363 . S
C322 C323 1.370 . S
C322 C326 1.524 . S
C323 C315 1.503 . S
C323 C322 1.370 . S
C323 C324 1.403 . S
C324 C323 1.403 . S
C324 C325 1.404 . S
C324 C327 1.539 . S
C325 C321 1.408 . S
C325 C324 1.404 . S
C325 H337 0.930 . S
C326 C322 1.524 . S
C326 H338 0.956 . S
C326 H339 0.961 . S
C326 H340 0.961 . S
C327 C324 1.539 . S
C327 H341 0.958 . S
C327 H342 0.961 . S
C327 H343 0.960 . S
H328 C312 0.931 . S
H329 C317 0.929 . S
H330 C318 0.960 . S
H331 C318 0.962 . S
H332 C318 0.960 . S
H333 C319 0.961 . S
H334 C319 0.961 . S
H335 C319 0.961 . S
H336 C320 0.931 . S
H337 C325 0.930 . S
H338 C326 0.956 . S
H339 C326 0.961 . S
H340 C326 0.961 . S
H341 C327 0.958 . S
H342 C327 0.961 . S
H343 C327 0.960 . S
C344 C345 1.391 . S
C344 C346 1.394 . S
C344 H360 0.931 . S
C345 C344 1.391 . S
C345 C349 1.376 . S
C346 C344 1.394 . S
C346 C347 1.369 . S
C346 C350 1.531 . S
C347 C346 1.369 . S
C347 C348 1.412 . S
C347 C355 1.503 . S
C348 C347 1.412 . S
C348 C349 1.393 . S
C348 C351 1.508 1_554 S
C349 C345 1.376 . S
C349 C348 1.393 . S
C349 H361 0.929 1_554 S
C350 C346 1.531 . S
C350 H362 0.960 . S
C350 H363 0.962 . S
C350 H364 0.960 . S
C351 C348 1.508 1_556 S
C351 H365 0.961 . S
C351 H366 0.961 . S
C351 H367 0.961 . S
C352 C353 1.370 . S
C352 C354 1.363 . S
C352 H368 0.931 . S
C353 C352 1.370 . S
C353 C357 1.408 . S
C354 C352 1.363 . S
C354 C355 1.370 . S
C354 C358 1.524 . S
C355 C347 1.503 . S
C355 C354 1.370 . S
C355 C356 1.403 . S
C356 C355 1.403 . S
C356 C357 1.404 . S
C356 C359 1.539 . S
C357 C353 1.408 . S
C357 C356 1.404 . S
C357 H369 0.930 . S
C358 C354 1.524 . S
C358 H370 0.956 . S
C358 H371 0.961 . S
C358 H372 0.961 . S
C359 C356 1.539 . S
C359 H373 0.958 . S
C359 H374 0.961 . S
C359 H375 0.960 . S
H360 C344 0.931 . S
H361 C349 0.929 1_556 S
H362 C350 0.960 . S
H363 C350 0.962 . S
H364 C350 0.960 . S
H365 C351 0.961 . S
H366 C351 0.961 . S
H367 C351 0.961 . S
H368 C352 0.931 . S
H369 C357 0.930 . S
H370 C358 0.956 . S
H371 C358 0.961 . S
H372 C358 0.961 . S
H373 C359 0.958 . S
H374 C359 0.961 . S
H375 C359 0.960 . S
C376 C377 1.391 . S
C376 C378 1.394 . S
C376 H392 0.931 . S
C377 C376 1.391 . S
C377 C381 1.376 . S
C378 C376 1.394 . S
C378 C379 1.369 . S
C378 C382 1.531 . S
C379 C378 1.369 . S
C379 C380 1.410 . S
C379 C387 1.503 . S
C380 C379 1.410 . S
C380 C381 1.392 . S
C380 C383 1.511 . S
C381 C377 1.376 . S
C381 C380 1.392 . S
C381 H393 0.929 . S
C382 C378 1.531 . S
C382 H394 0.960 . S
C382 H395 0.962 . S
C382 H396 0.960 . S
C383 C380 1.511 . S
C383 H397 0.961 . S
C383 H398 0.961 . S
C383 H399 0.961 . S
C384 C385 1.370 . S
C384 C386 1.363 . S
C384 H400 0.931 . S
C385 C384 1.370 . S
C385 C389 1.408 . S
C386 C384 1.363 . S
C386 C387 1.370 . S
C386 C390 1.524 . S
C387 C379 1.503 . S
C387 C386 1.370 . S
C387 C388 1.403 . S
C388 C387 1.403 . S
C388 C389 1.404 . S
C388 C391 1.539 . S
C389 C385 1.408 . S
C389 C388 1.404 . S
C389 H401 0.930 . S
C390 C386 1.524 . S
C390 H402 0.956 . S
C390 H403 0.961 . S
C390 H404 0.961 . S
C391 C388 1.539 . S
C391 H405 0.958 . S
C391 H406 0.961 . S
C391 H407 0.960 . S
H392 C376 0.931 . S
H393 C381 0.929 . S
H394 C382 0.960 . S
H395 C382 0.962 . S
H396 C382 0.960 . S
H397 C383 0.961 . S
H398 C383 0.961 . S
H399 C383 0.961 . S
H400 C384 0.931 . S
H401 C389 0.930 . S
H402 C390 0.956 . S
H403 C390 0.961 . S
H404 C390 0.961 . S
H405 C391 0.958 . S
H406 C391 0.961 . S
H407 C391 0.960 . S
C408 C409 1.391 . S
C408 C410 1.394 . S
C408 H424 0.931 . S
C409 C408 1.391 . S
C409 C413 1.376 . S
C410 C408 1.394 . S
C410 C411 1.369 . S
C410 C414 1.531 . S
C411 C410 1.369 . S
C411 C412 1.410 . S
C411 C419 1.503 . S
C412 C411 1.410 . S
C412 C413 1.392 . S
C412 C415 1.511 1_554 S
C413 C409 1.376 . S
C413 C412 1.392 . S
C413 H425 0.929 1_554 S
C414 C410 1.531 . S
C414 H426 0.960 . S
C414 H427 0.962 . S
C414 H428 0.960 . S
C415 C412 1.511 1_556 S
C415 H429 0.961 . S
C415 H430 0.961 . S
C415 H431 0.961 1_556 S
C416 C417 1.370 1_556 S
C416 C418 1.363 . S
C416 H432 0.931 . S
C417 C416 1.370 1_554 S
C417 C421 1.408 . S
C418 C416 1.363 . S
C418 C419 1.370 1_556 S
C418 C422 1.524 . S
C419 C411 1.503 . S
C419 C418 1.370 1_554 S
C419 C420 1.403 . S
C420 C419 1.403 . S
C420 C421 1.404 . S
C420 C423 1.539 . S
C421 C417 1.408 . S
C421 C420 1.404 . S
C421 H433 0.930 . S
C422 C418 1.524 . S
C422 H434 0.956 . S
C422 H435 0.961 . S
C422 H436 0.961 . S
C423 C420 1.539 . S
C423 H437 0.958 . S
C423 H438 0.961 . S
C423 H439 0.960 . S
H424 C408 0.931 . S
H425 C413 0.929 1_556 S
H426 C414 0.960 . S
H427 C414 0.962 . S
H428 C414 0.960 . S
H429 C415 0.961 . S
H430 C415 0.961 . S
H431 C415 0.961 1_554 S
H432 C416 0.931 . S
H433 C421 0.930 . S
H434 C422 0.956 . S
H435 C422 0.961 . S
H436 C422 0.961 . S
H437 C423 0.958 . S
H438 C423 0.961 . S
H439 C423 0.960 . S
C440 C441 1.391 . S
C440 C442 1.394 . S
C440 H456 0.931 . S
C441 C440 1.391 . S
C441 C445 1.376 . S
C442 C440 1.394 . S
C442 C443 1.369 . S
C442 C446 1.531 . S
C443 C442 1.369 . S
C443 C444 1.410 . S
C443 C451 1.503 . S
C444 C443 1.410 . S
C444 C445 1.392 . S
C444 C447 1.511 . S
C445 C441 1.376 . S
C445 C444 1.392 . S
C445 H457 0.929 . S
C446 C442 1.531 . S
C446 H458 0.954 1_565 S
C446 H459 0.962 . S
C446 H460 0.960 1_565 S
C447 C444 1.511 . S
C447 H461 0.961 . S
C447 H462 0.961 . S
C447 H463 0.961 . S
C448 C449 1.370 . S
C448 C450 1.363 . S
C448 H464 0.931 . S
C449 C448 1.370 . S
C449 C453 1.408 . S
C450 C448 1.363 . S
C450 C451 1.370 . S
C450 C454 1.524 . S
C451 C443 1.503 . S
C451 C450 1.370 . S
C451 C452 1.403 . S
C452 C451 1.403 . S
C452 C453 1.404 . S
C452 C455 1.539 . S
C453 C449 1.408 . S
C453 C452 1.404 . S
C453 H465 0.930 . S
C454 C450 1.524 . S
C454 H466 0.956 . S
C454 H467 0.961 . S
C454 H468 0.961 . S
C455 C452 1.539 . S
C455 H469 0.988 . S
C455 H470 0.961 . S
C455 H471 0.960 . S
H456 C440 0.931 . S
H457 C445 0.929 . S
H458 C446 0.954 1_545 S
H459 C446 0.962 . S
H460 C446 0.960 1_545 S
H461 C447 0.961 . S
H462 C447 0.961 . S
H463 C447 0.961 . S
H464 C448 0.931 . S
H465 C453 0.930 . S
H466 C454 0.956 . S
H467 C454 0.961 . S
H468 C454 0.961 . S
H469 C455 0.988 . S
H470 C455 0.961 . S
H471 C455 0.960 . S
C472 C473 1.391 . S
C472 C474 1.394 . S
C472 H488 0.931 . S
C473 C472 1.391 . S
C473 C477 1.376 . S
C474 C472 1.394 . S
C474 C475 1.369 . S
C474 C478 1.531 . S
C475 C474 1.369 . S
C475 C476 1.410 . S
C475 C483 1.503 . S
C476 C475 1.410 . S
C476 C477 1.392 . S
C476 C479 1.511 . S
C477 C473 1.376 . S
C477 C476 1.392 . S
C477 H489 0.929 . S
C478 C474 1.531 . S
C478 H490 0.960 . S
C478 H491 0.962 . S
C478 H492 0.960 . S
C479 C476 1.511 . S
C479 H493 0.961 . S
C479 H494 0.961 . S
C479 H495 0.961 . S
C480 C481 1.370 . S
C480 C482 1.363 . S
C480 H496 0.931 . S
C481 C480 1.370 . S
C481 C485 1.408 . S
C482 C480 1.363 . S
C482 C483 1.370 . S
C482 C486 1.524 . S
C483 C475 1.503 . S
C483 C482 1.370 . S
C483 C484 1.403 . S
C484 C483 1.403 . S
C484 C485 1.404 . S
C484 C487 1.539 . S
C485 C481 1.408 . S
C485 C484 1.404 . S
C485 H497 0.930 . S
C486 C482 1.524 . S
C486 H498 0.956 . S
C486 H499 0.961 . S
C486 H500 0.961 . S
C487 C484 1.539 . S
C487 H501 0.958 . S
C487 H502 0.961 . S
C487 H503 0.960 . S
H488 C472 0.931 . S
H489 C477 0.929 . S
H490 C478 0.960 . S
H491 C478 0.962 . S
H492 C478 0.960 . S
H493 C479 0.961 . S
H494 C479 0.961 . S
H495 C479 0.961 . S
H496 C480 0.931 . S
H497 C485 0.930 . S
H498 C486 0.956 . S
H499 C486 0.961 . S
H500 C486 0.961 . S
H501 C487 0.958 . S
H502 C487 0.961 . S
H503 C487 0.960 . S
C504 C505 1.391 . S
C504 C506 1.394 . S
C504 H520 0.931 . S
C505 C504 1.391 . S
C505 C509 1.376 . S
C506 C504 1.394 . S
C506 C507 1.369 . S
C506 C510 1.531 . S
C507 C506 1.369 . S
C507 C508 1.410 . S
C507 C515 1.503 . S
C508 C507 1.410 . S
C508 C509 1.392 . S
C508 C511 1.511 . S
C509 C505 1.376 . S
C509 C508 1.392 . S
C509 H521 0.929 . S
C510 C506 1.531 . S
C510 H522 0.960 . S
C510 H523 0.962 . S
C510 H524 0.960 . S
C511 C508 1.511 . S
C511 H525 0.961 . S
C511 H526 0.961 . S
C511 H527 0.961 . S
C512 C513 1.370 . S
C512 C514 1.363 . S
C512 H528 0.931 . S
C513 C512 1.370 . S
C513 C517 1.408 . S
C514 C512 1.363 . S
C514 C515 1.370 . S
C514 C518 1.524 . S
C515 C507 1.503 . S
C515 C514 1.370 . S
C515 C516 1.403 . S
C516 C515 1.403 . S
C516 C517 1.404 . S
C516 C519 1.539 1_545 S
C517 C513 1.408 . S
C517 C516 1.404 . S
C517 H529 0.930 1_545 S
C518 C514 1.524 . S
C518 H530 0.956 . S
C518 H531 0.961 . S
C518 H532 0.961 . S
C519 C516 1.539 1_565 S
C519 H533 0.958 . S
C519 H534 0.961 . S
C519 H535 0.960 . S
H520 C504 0.931 . S
H521 C509 0.929 . S
H522 C510 0.960 . S
H523 C510 0.962 . S
H524 C510 0.960 . S
H525 C511 0.961 . S
H526 C511 0.961 . S
H527 C511 0.961 . S
H528 C512 0.931 . S
H529 C517 0.930 1_565 S
H530 C518 0.956 . S
H531 C518 0.961 . S
H532 C518 0.961 . S
H533 C519 0.958 . S
H534 C519 0.961 . S
H535 C519 0.960 . S
C536 C537 1.391 . S
C536 C538 1.394 . S
C536 H552 0.931 . S
C537 C536 1.391 . S
C537 C541 1.376 . S
C538 C536 1.394 . S
C538 C539 1.369 . S
C538 C542 1.531 . S
C539 C538 1.369 . S
C539 C540 1.410 . S
C539 C547 1.503 . S
C540 C539 1.410 . S
C540 C541 1.392 . S
C540 C543 1.511 . S
C541 C537 1.376 . S
C541 C540 1.392 . S
C541 H553 0.929 . S
C542 C538 1.531 . S
C542 H554 0.960 . S
C542 H555 0.962 . S
C542 H556 0.960 . S
C543 C540 1.511 . S
C543 H557 0.961 . S
C543 H558 0.961 . S
C543 H559 0.961 . S
C544 C545 1.370 . S
C544 C546 1.363 . S
C544 H560 0.931 . S
C545 C544 1.370 . S
C545 C549 1.408 . S
C546 C544 1.363 . S
C546 C547 1.370 . S
C546 C550 1.524 . S
C547 C539 1.503 . S
C547 C546 1.370 . S
C547 C548 1.403 . S
C548 C547 1.403 . S
C548 C549 1.404 . S
C548 C551 1.539 . S
C549 C545 1.408 . S
C549 C548 1.404 . S
C549 H561 0.930 . S
C550 C546 1.524 . S
C550 H562 0.956 . S
C550 H563 0.961 . S
C550 H564 0.961 . S
C551 C548 1.539 . S
C551 H565 0.958 . S
C551 H566 0.961 . S
C551 H567 0.960 . S
H552 C536 0.931 . S
H553 C541 0.929 . S
H554 C542 0.960 . S
H555 C542 0.962 . S
H556 C542 0.960 . S
H557 C543 0.961 . S
H558 C543 0.961 . S
H559 C543 0.961 . S
H560 C544 0.931 . S
H561 C549 0.930 . S
H562 C550 0.956 . S
H563 C550 0.961 . S
H564 C550 0.961 . S
H565 C551 0.958 . S
H566 C551 0.961 . S
H567 C551 0.960 . S
C568 C569 1.391 . S
C568 C570 1.394 . S
C568 H584 0.931 . S
C569 C568 1.391 . S
C569 C573 1.376 . S
C570 C568 1.394 . S
C570 C571 1.369 . S
C570 C574 1.531 . S
C571 C570 1.369 . S
C571 C572 1.410 . S
C571 C579 1.503 . S
C572 C571 1.410 . S
C572 C573 1.392 . S
C572 C575 1.511 . S
C573 C569 1.376 . S
C573 C572 1.392 . S
C573 H585 0.929 . S
C574 C570 1.531 . S
C574 H586 0.960 . S
C574 H587 0.962 . S
C574 H588 0.960 . S
C575 C572 1.511 . S
C575 H589 0.961 . S
C575 H590 0.961 . S
C575 H591 0.961 . S
C576 C577 1.370 . S
C576 C578 1.363 . S
C576 H592 0.931 . S
C577 C576 1.370 . S
C577 C581 1.408 . S
C578 C576 1.363 . S
C578 C579 1.370 . S
C578 C582 1.524 . S
C579 C571 1.503 . S
C579 C578 1.370 . S
C579 C580 1.403 . S
C580 C579 1.403 . S
C580 C581 1.404 . S
C580 C583 1.539 . S
C581 C577 1.408 . S
C581 C580 1.404 . S
C581 H593 0.930 . S
C582 C578 1.524 . S
C582 H594 0.956 . S
C582 H595 0.961 . S
C582 H596 0.961 . S
C583 C580 1.539 . S
C583 H597 0.958 . S
C583 H598 0.961 . S
C583 H599 0.960 . S
H584 C568 0.931 . S
H585 C573 0.929 . S
H586 C574 0.960 . S
H587 C574 0.962 . S
H588 C574 0.960 . S
H589 C575 0.961 . S
H590 C575 0.961 . S
H591 C575 0.961 . S
H592 C576 0.931 . S
H593 C581 0.930 . S
H594 C582 0.956 . S
H595 C582 0.961 . S
H596 C582 0.961 . S
H597 C583 0.958 . S
H598 C583 0.961 . S
H599 C583 0.960 . S
C600 C601 1.391 . S
C600 C602 1.394 . S
C600 H616 0.931 . S
C601 C600 1.391 . S
C601 C605 1.376 . S
C602 C600 1.394 . S
C602 C603 1.369 . S
C602 C606 1.531 . S
C603 C602 1.369 . S
C603 C604 1.410 . S
C603 C611 1.503 . S
C604 C603 1.410 . S
C604 C605 1.392 . S
C604 C607 1.511 . S
C605 C601 1.376 . S
C605 C604 1.392 . S
C605 H617 0.929 . S
C606 C602 1.531 . S
C606 H618 0.960 . S
C606 H619 0.962 . S
C606 H620 0.960 1_545 S
C607 C604 1.511 . S
C607 H621 0.961 . S
C607 H622 0.961 . S
C607 H623 0.961 . S
C608 C609 1.370 . S
C608 C610 1.363 . S
C608 H624 0.931 . S
C609 C608 1.370 . S
C609 C613 1.408 . S
C610 C608 1.363 . S
C610 C611 1.370 . S
C610 C614 1.524 . S
C611 C603 1.503 . S
C611 C610 1.370 . S
C611 C612 1.403 . S
C612 C611 1.403 . S
C612 C613 1.404 . S
C612 C615 1.539 . S
C613 C609 1.408 . S
C613 C612 1.404 . S
C613 H625 0.930 . S
C614 C610 1.524 . S
C614 H626 0.956 . S
C614 H627 0.961 . S
C614 H628 0.961 . S
C615 C612 1.539 . S
C615 H629 0.958 . S
C615 H630 0.961 . S
C615 H631 0.960 . S
H616 C600 0.931 . S
H617 C605 0.929 . S
H618 C606 0.960 . S
H619 C606 0.962 . S
H620 C606 0.960 1_565 S
H621 C607 0.961 . S
H622 C607 0.961 . S
H623 C607 0.961 . S
H624 C608 0.931 . S
H625 C613 0.930 . S
H626 C614 0.956 . S
H627 C614 0.961 . S
H628 C614 0.961 . S
H629 C615 0.958 . S
H630 C615 0.961 . S
H631 C615 0.960 . S
C632 C633 1.391 . S
C632 C634 1.394 . S
C632 H648 0.931 . S
C633 C632 1.391 . S
C633 C637 1.376 . S
C634 C632 1.394 . S
C634 C635 1.369 . S
C634 C638 1.531 . S
C635 C634 1.369 . S
C635 C636 1.410 . S
C635 C643 1.503 . S
C636 C635 1.410 . S
C636 C637 1.392 . S
C636 C639 1.511 . S
C637 C633 1.376 . S
C637 C636 1.392 . S
C637 H649 0.929 . S
C638 C634 1.531 . S
C638 H650 0.960 . S
C638 H651 0.962 . S
C638 H652 0.960 . S
C639 C636 1.511 . S
C639 H653 0.961 . S
C639 H654 0.961 . S
C639 H655 0.961 . S
C640 C641 1.370 . S
C640 C642 1.363 . S
C640 H656 0.931 . S
C641 C640 1.370 . S
C641 C645 1.408 . S
C642 C640 1.363 . S
C642 C643 1.370 . S
C642 C646 1.524 . S
C643 C635 1.503 . S
C643 C642 1.370 . S
C643 C644 1.403 . S
C644 C643 1.403 . S
C644 C645 1.404 . S
C644 C647 1.539 . S
C645 C641 1.408 . S
C645 C644 1.404 . S
C645 H657 0.930 . S
C646 C642 1.524 . S
C646 H658 0.956 . S
C646 H659 0.961 . S
C646 H660 0.961 . S
C647 C644 1.539 . S
C647 H661 0.958 . S
C647 H662 0.961 . S
C647 H663 0.960 . S
H648 C632 0.931 . S
H649 C637 0.929 . S
H650 C638 0.960 . S
H651 C638 0.962 . S
H652 C638 0.960 . S
H653 C639 0.961 . S
H654 C639 0.961 . S
H655 C639 0.961 . S
H656 C640 0.931 . S
H657 C645 0.930 . S
H658 C646 0.956 . S
H659 C646 0.961 . S
H660 C646 0.961 . S
H661 C647 0.958 . S
H662 C647 0.961 . S
H663 C647 0.960 . S
C664 C665 1.391 . S
C664 C666 1.394 . S
C664 H680 0.931 . S
C665 C664 1.391 . S
C665 C669 1.376 . S
C666 C664 1.394 . S
C666 C667 1.369 . S
C666 C670 1.531 . S
C667 C666 1.369 . S
C667 C668 1.410 . S
C667 C675 1.503 . S
C668 C667 1.410 . S
C668 C669 1.392 . S
C668 C671 1.511 1_565 S
C669 C665 1.376 . S
C669 C668 1.392 . S
C669 H681 0.929 . S
C670 C666 1.531 . S
C670 H682 0.960 . S
C670 H683 0.962 . S
C670 H684 0.960 . S
C671 C668 1.511 1_545 S
C671 H685 0.961 . S
C671 H686 0.961 . S
C671 H687 0.961 . S
C672 C673 1.370 . S
C672 C674 1.363 . S
C672 H688 0.931 . S
C673 C672 1.370 . S
C673 C677 1.408 . S
C674 C672 1.363 . S
C674 C675 1.370 . S
C674 C678 1.524 . S
C675 C667 1.503 . S
C675 C674 1.370 . S
C675 C676 1.403 . S
C676 C675 1.403 . S
C676 C677 1.404 . S
C676 C679 1.539 . S
C677 C673 1.408 . S
C677 C676 1.404 . S
C677 H689 0.930 . S
C678 C674 1.524 . S
C678 H690 0.956 . S
C678 H691 0.961 . S
C678 H692 0.961 . S
C679 C676 1.539 . S
C679 H693 0.958 . S
C679 H694 0.961 . S
C679 H695 0.960 . S
H680 C664 0.931 . S
H681 C669 0.929 . S
H682 C670 0.960 . S
H683 C670 0.962 . S
H684 C670 0.960 . S
H685 C671 0.961 . S
H686 C671 0.961 . S
H687 C671 0.961 . S
H688 C672 0.931 . S
H689 C677 0.930 . S
H690 C678 0.956 . S
H691 C678 0.961 . S
H692 C678 0.961 . S
H693 C679 0.958 . S
H694 C679 0.961 . S
H695 C679 0.960 . S
C321 C212 1.633 . S
C313 C133 1.646 . S
C345 C25 1.607 . S
C353 C284 1.615 . S
C377 C61 1.636 . S
C385 C200 1.633 . S
C409 C97 1.561 . S
C417 C296 1.611 . S
C449 C202 1.409 . S
C441 C1 1.553 . S
C481 C283 1.609 . S
C473 C67 1.557 . S
C505 C103 1.585 . S
C513 C199 1.614 . S
C537 C109 1.530 . S
C545 C286 1.419 . S
C577 C298 1.379 . S
C569 C37 1.507 . S
C609 C214 1.423 . S
C601 C73 1.552 . S
C641 C295 1.609 . S
C633 C139 1.599 . S
C665 C31 1.598 . S
C673 C211 1.615 . S
