# Generated by pormake.
# Topology zzz, (3,6)-cn, num edge types: 1
# Building blocks:
#     Node 0, Type 0, BuildingBlock: BELTOD_clean_linker_0, # of connection points: 3
#     Node 1, Type 0, BuildingBlock: BELTOD_clean_linker_0, # of connection points: 3
#     Node 2, Type 0, BuildingBlock: BELTOD_clean_linker_0, # of connection points: 3
#     Node 3, Type 0, BuildingBlock: BELTOD_clean_linker_0, # of connection points: 3
#     Node 4, Type 0, BuildingBlock: BELTOD_clean_linker_0, # of connection points: 3
#     Node 5, Type 0, BuildingBlock: BELTOD_clean_linker_0, # of connection points: 3
#     Node 6, Type 0, BuildingBlock: BELTOD_clean_linker_0, # of connection points: 3
#     Node 7, Type 0, BuildingBlock: BELTOD_clean_linker_0, # of connection points: 3
#     Node 8, Type 1, BuildingBlock: KUMBOL_clean_sbu_0, # of connection points: 6
#     Node 9, Type 1, BuildingBlock: KUMBOL_clean_sbu_0, # of connection points: 6
#     Node 10, Type 1, BuildingBlock: KUMBOL_clean_sbu_0, # of connection points: 6
#     Node 11, Type 1, BuildingBlock: KUMBOL_clean_sbu_0, # of connection points: 6
#     Edge 12, Type (0, 1), BuildingBlock: MIFKUJ_clean_linker_0, # of connection points: 2
#     Edge 13, Type (0, 1), BuildingBlock: MIFKUJ_clean_linker_0, # of connection points: 2
#     Edge 14, Type (0, 1), BuildingBlock: MIFKUJ_clean_linker_0, # of connection points: 2
#     Edge 15, Type (0, 1), BuildingBlock: MIFKUJ_clean_linker_0, # of connection points: 2
#     Edge 16, Type (0, 1), BuildingBlock: MIFKUJ_clean_linker_0, # of connection points: 2
#     Edge 17, Type (0, 1), BuildingBlock: MIFKUJ_clean_linker_0, # of connection points: 2
#     Edge 18, Type (0, 1), BuildingBlock: MIFKUJ_clean_linker_0, # of connection points: 2
#     Edge 19, Type (0, 1), BuildingBlock: MIFKUJ_clean_linker_0, # of connection points: 2
#     Edge 20, Type (0, 1), BuildingBlock: MIFKUJ_clean_linker_0, # of connection points: 2
#     Edge 21, Type (0, 1), BuildingBlock: MIFKUJ_clean_linker_0, # of connection points: 2
#     Edge 22, Type (0, 1), BuildingBlock: MIFKUJ_clean_linker_0, # of connection points: 2
#     Edge 23, Type (0, 1), BuildingBlock: MIFKUJ_clean_linker_0, # of connection points: 2
#     Edge 24, Type (0, 1), BuildingBlock: MIFKUJ_clean_linker_0, # of connection points: 2
#     Edge 25, Type (0, 1), BuildingBlock: MIFKUJ_clean_linker_0, # of connection points: 2
#     Edge 26, Type (0, 1), BuildingBlock: MIFKUJ_clean_linker_0, # of connection points: 2
#     Edge 27, Type (0, 1), BuildingBlock: MIFKUJ_clean_linker_0, # of connection points: 2
#     Edge 28, Type (0, 1), BuildingBlock: MIFKUJ_clean_linker_0, # of connection points: 2
#     Edge 29, Type (0, 1), BuildingBlock: MIFKUJ_clean_linker_0, # of connection points: 2
#     Edge 30, Type (0, 1), BuildingBlock: MIFKUJ_clean_linker_0, # of connection points: 2
#     Edge 31, Type (0, 1), BuildingBlock: MIFKUJ_clean_linker_0, # of connection points: 2
#     Edge 32, Type (0, 1), BuildingBlock: MIFKUJ_clean_linker_0, # of connection points: 2
#     Edge 33, Type (0, 1), BuildingBlock: MIFKUJ_clean_linker_0, # of connection points: 2
#     Edge 34, Type (0, 1), BuildingBlock: MIFKUJ_clean_linker_0, # of connection points: 2
#     Edge 35, Type (0, 1), BuildingBlock: MIFKUJ_clean_linker_0, # of connection points: 2
# Relax obj value: 0.261
# Max RMSD: 0.213
# Mean RMSD: 0.200
data_MOF--net-zzz--node1-KUMBOL_clean_sbu_0--node2-BELTOD_clean_linker_0--edge1-MIFKUJ_clean_linker_0
_symmetry_space_group_name_H-M    P1
_symmetry_Int_Tables_number       1
_symmetry_cell_setting            triclinic
loop_
_symmetry_equiv_pos_as_xyz
'x, y, z'
_cell_length_a     68.023193
_cell_length_b     68.076594
_cell_length_c     23.491739
_cell_angle_alpha  90.111422
_cell_angle_beta   90.123797
_cell_angle_gamma 89.925205
loop_
_atom_site_label
_atom_site_type_symbol
_atom_site_fract_x
_atom_site_fract_y
_atom_site_fract_z
_atom_type_partial_charge
P0 P 0.72465 0.50387 0.19564 0.0
H1 H 0.73167 0.48467 0.30544 0.0
H2 H 0.75842 0.48942 0.37311 0.0
H3 H 0.77176 0.54525 0.29495 0.0
H4 H 0.74416 0.54087 0.22994 0.0
H5 H 0.6934 0.47739 0.1607 0.0
H6 H 0.66243 0.48287 0.1137 0.0
H7 H 0.6671 0.54511 0.1483 0.0
H8 H 0.6991 0.53937 0.19423 0.0
H9 H 0.76658 0.50513 0.17755 0.0
H10 H 0.71468 0.52353 0.08559 0.0
O11 O 0.72846 0.47965 0.19293 0.0
H12 H 0.78715 0.51877 0.1031 0.0
H13 H 0.73541 0.53707 0.01038 0.0
C14 C 0.73613 0.51215 0.2614 0.0
C15 C 0.73975 0.49836 0.30445 0.0
C16 C 0.75545 0.50093 0.34253 0.0
C17 C 0.76804 0.5173 0.33814 0.0
C18 C 0.7627 0.53231 0.29971 0.0
C19 C 0.74672 0.52986 0.26235 0.0
C20 C 0.6987 0.50793 0.18165 0.0
C21 C 0.68762 0.4922 0.16015 0.0
C22 C 0.66963 0.4954 0.13296 0.0
C23 C 0.66202 0.5145 0.1264 0.0
C24 C 0.67252 0.5302 0.15156 0.0
C25 C 0.6907 0.52693 0.17889 0.0
C26 C 0.73909 0.51383 0.13837 0.0
C27 C 0.75958 0.51238 0.14182 0.0
C28 C 0.77134 0.52032 0.09942 0.0
C29 C 0.76283 0.52948 0.05183 0.0
C30 C 0.74228 0.53042 0.04727 0.0
C31 C 0.73045 0.52268 0.09042 0.0
P32 P 0.01031 0.75142 0.10923 0.0
H33 H 0.03634 0.76 0.20538 0.0
H34 H 0.03398 0.78477 0.2804 0.0
H35 H 0.97282 0.79388 0.23842 0.0
H36 H 0.97523 0.76885 0.16391 0.0
H37 H 0.03909 0.72226 0.07195 0.0
H38 H 0.03565 0.6892 0.03482 0.0
H39 H 0.97479 0.68856 0.08627 0.0
H40 H 0.97849 0.72196 0.12546 0.0
H41 H 0.00766 0.79215 0.07675 0.0
H42 H 0.97891 0.73817 0.02795 0.0
O43 O 0.03314 0.75791 0.09141 0.0
H44 H 0.98876 0.80976 0.00536 0.0
H45 H 0.95915 0.75584 0.95904 0.0
C46 C 0.00606 0.76267 0.17828 0.0
C47 C 0.02222 0.76679 0.21354 0.0
C48 C 0.02091 0.78122 0.25605 0.0
C49 C 0.00335 0.79179 0.26457 0.0
C50 C 0.98661 0.78615 0.23308 0.0
C51 C 0.98796 0.77172 0.19041 0.0
C52 C 0.00897 0.72487 0.10108 0.0
C53 C 0.02511 0.71494 0.07724 0.0
C54 C 0.02313 0.69589 0.05574 0.0
C55 C 0.00487 0.68629 0.05672 0.0
C56 C 0.98901 0.69565 0.08427 0.0
C57 C 0.99117 0.71466 0.10725 0.0
C58 C 0.99481 0.76382 0.05819 0.0
C59 C 0.99703 0.78412 0.05141 0.0
C60 C 0.98596 0.79423 0.01092 0.0
C61 C 0.97221 0.78428 0.97653 0.0
C62 C 0.96968 0.76397 0.98439 0.0
C63 C 0.98097 0.75381 0.02454 0.0
P64 P 0.77452 0.00904 0.16956 0.0
H65 H 0.7581 0.02963 0.26744 0.0
H66 H 0.7297 0.02348 0.32576 0.0
H67 H 0.72521 0.9649 0.25522 0.0
H68 H 0.7534 0.97186 0.19361 0.0
H69 H 0.81601 0.01888 0.18544 0.0
H70 H 0.84497 0.0075 0.13524 0.0
H71 H 0.81209 0.95812 0.06955 0.0
H72 H 0.78277 0.96998 0.11959 0.0
H73 H 0.73258 0.01492 0.14586 0.0
H74 H 0.78581 0.0069 0.04869 0.0
O75 O 0.78089 0.03226 0.18304 0.0
H76 H 0.71376 0.01686 0.05823 0.0
H77 H 0.76688 0.0074 0.96098 0.0
C78 C 0.7582 1.00115 0.22626 0.0
C79 C 0.75146 0.01521 0.26538 0.0
C80 C 0.73499 0.0116 0.29927 0.0
C81 C 0.72474 0.99366 0.2957 0.0
C82 C 0.73231 0.97906 0.2588 0.0
C83 C 0.74876 0.98284 0.22417 0.0
C84 C 0.79703 0.99546 0.15594 0.0
C85 C 0.81509 0.0052 0.16203 0.0
C86 C 0.83179 0.99864 0.13293 0.0
C87 C 0.83088 0.98209 0.09699 0.0
C88 C 0.81326 0.97118 0.09572 0.0
C89 C 0.79653 0.97773 0.12527 0.0
C90 C 0.76054 0.00981 0.10431 0.0
C91 C 0.7402 0.01301 0.10583 0.0
C92 C 0.72939 0.01401 0.05541 0.0
C93 C 0.73869 0.01184 0.00227 0.0
C94 C 0.75917 0.00911 1.00095 0.0
C95 C 0.77002 0.00847 0.05143 0.0
P96 P 0.51195 0.76282 0.13066 0.0
H97 H 0.48329 0.74165 0.19915 0.0
H98 H 0.48684 0.72004 0.28018 0.0
H99 H 0.54741 0.73803 0.29913 0.0
H100 H 0.54372 0.75973 0.21624 0.0
H101 H 0.48683 0.79758 0.13124 0.0
H102 H 0.49187 0.83028 0.09258 0.0
H103 H 0.55396 0.8181 0.07526 0.0
H104 H 0.54862 0.78504 0.11308 0.0
H105 H 0.53486 0.72602 0.14192 0.0
H106 H 0.52231 0.76898 0.01177 0.0
O107 O 0.4891 0.75959 0.10637 0.0
H108 H 0.55294 0.7064 0.07352 0.0
H109 H 0.54043 0.74906 0.94249 0.0
C110 C 0.51323 0.75241 0.20143 0.0
C111 C 0.49721 0.74152 0.22154 0.0
C112 C 0.49926 0.72907 0.26834 0.0
C113 C 0.51747 0.72707 0.29622 0.0
C114 C 0.53323 0.739 0.27828 0.0
C115 C 0.53109 0.75164 0.23141 0.0
C116 C 0.51727 0.78871 0.12404 0.0
C117 C 0.50164 0.80211 0.12079 0.0
C118 C 0.50458 0.82092 0.09862 0.0
C119 C 0.52328 0.82679 0.07952 0.0
C120 C 0.53928 0.81394 0.0882 0.0
C121 C 0.53629 0.79508 0.11049 0.0
C122 C 0.52753 0.74929 0.08247 0.0
C123 C 0.53644 0.73162 0.09919 0.0
C124 C 0.5469 0.72036 0.05989 0.0
C125 C 0.54834 0.72634 0.00283 0.0
C126 C 0.53968 0.74419 0.9863 0.0
C127 C 0.52935 0.75556 0.02586 0.0
P128 P 0.28152 0.45304 0.00712 0.0
H129 H 0.27444 0.44605 0.88538 0.0
H130 H 0.24775 0.45684 0.82348 0.0
H131 H 0.23016 0.49941 0.95025 0.0
H132 H 0.2574 0.489 0.01094 0.0
H133 H 0.31934 0.43441 0.0287 0.0
H134 H 0.34787 0.44442 0.08392 0.0
H135 H 0.32332 0.50262 0.10187 0.0
H136 H 0.29462 0.49247 0.04521 0.0
H137 H 0.24049 0.4418 0.01378 0.0
H138 H 0.28588 0.45939 0.13192 0.0
O139 O 0.28526 0.43032 0.98255 0.0
H140 H 0.2158 0.44696 0.0867 0.0
H141 H 0.26131 0.46389 0.2059 0.0
C142 C 0.26793 0.46657 0.95323 0.0
C143 C 0.26533 0.45822 0.89907 0.0
C144 C 0.24976 0.46421 0.86396 0.0
C145 C 0.23627 0.47862 0.88232 0.0
C146 C 0.24011 0.48827 0.93434 0.0
C147 C 0.25585 0.48239 0.96919 0.0
C148 C 0.30485 0.46273 0.03192 0.0
C149 C 0.32026 0.44953 0.04279 0.0
C150 C 0.33653 0.4552 0.07528 0.0
C151 C 0.33778 0.47423 0.09836 0.0
C152 C 0.32288 0.48787 0.08463 0.0
C153 C 0.30651 0.48213 0.05186 0.0
C154 C 0.26491 0.45102 0.06647 0.0
C155 C 0.24522 0.44626 0.05592 0.0
C156 C 0.23109 0.44907 0.09805 0.0
C157 C 0.2365 0.45631 0.152 0.0
C158 C 0.25658 0.4589 0.16427 0.0
C159 C 0.27069 0.45631 0.12178 0.0
P160 P 0.06642 0.26764 0.04883 0.0
H161 H 0.07268 0.25956 0.92745 0.0
H162 H 0.06186 0.23291 0.86575 0.0
H163 H 0.02185 0.21334 0.99639 0.0
H164 H 0.03312 0.24002 0.05859 0.0
H165 H 0.07447 0.30973 0.03792 0.0
H166 H 0.06295 0.33802 0.09145 0.0
H167 H 0.01844 0.30204 0.17046 0.0
H168 H 0.03049 0.27346 0.1171 0.0
H169 H 0.07593 0.22591 0.06524 0.0
H170 H 0.07368 0.27838 0.16855 0.0
O171 O 0.08746 0.27489 0.01912 0.0
H172 H 0.08261 0.20637 0.14996 0.0
H173 H 0.08057 0.25889 0.25334 0.0
C174 C 0.05384 0.25182 0.99804 0.0
C175 C 0.06122 0.24988 0.94253 0.0
C176 C 0.05496 0.23453 0.90698 0.0
C177 C 0.04114 0.22065 0.92608 0.0
C178 C 0.03278 0.22346 0.98045 0.0
C179 C 0.03901 0.23892 0.01592 0.0
C180 C 0.05334 0.28937 0.0731 0.0
C181 C 0.06185 0.30794 0.0654 0.0
C182 C 0.05521 0.32424 0.09636 0.0
C183 C 0.03986 0.32241 0.13611 0.0
C184 C 0.03051 0.304 0.14107 0.0
C185 C 0.03716 0.28767 0.10979 0.0
C186 C 0.07323 0.25349 0.11076 0.0
C187 C 0.07682 0.23326 0.10606 0.0
C188 C 0.08098 0.22212 0.15451 0.0
C189 C 0.08194 0.23108 0.20848 0.0
C190 C 0.07958 0.25154 0.2125 0.0
C191 C 0.07548 0.26266 0.16396 0.0
P192 P 0.24011 0.07202 0.00536 0.0
H193 H 0.2499 0.07739 0.88488 0.0
H194 H 0.27595 0.06329 0.82707 0.0
H195 H 0.28618 0.01916 0.95578 0.0
H196 H 0.26027 0.03382 0.01432 0.0
H197 H 0.20762 0.0951 0.04762 0.0
H198 H 0.17798 0.08714 0.09946 0.0
H199 H 0.18979 0.02525 0.07538 0.0
H200 H 0.22023 0.0336 0.02463 0.0
H201 H 0.27991 0.08691 0.01544 0.0
H202 H 0.23701 0.06034 0.12631 0.0
O203 O 0.23809 0.0945 0.97766 0.0
H204 H 0.30479 0.08395 0.09044 0.0
H205 H 0.26166 0.0574 0.20077 0.0
C206 C 0.25302 0.05673 0.9542 0.0
C207 C 0.25724 0.06428 0.90003 0.0
C208 C 0.2723 0.05616 0.86681 0.0
C209 C 0.28357 0.04022 0.8869 0.0
C210 C 0.27818 0.03168 0.93927 0.0
C211 C 0.26307 0.03984 0.97248 0.0
C212 C 0.21596 0.06499 0.03072 0.0
C213 C 0.20361 0.07979 0.05192 0.0
C214 C 0.18652 0.07516 0.08184 0.0
C215 C 0.18118 0.05549 0.09174 0.0
C216 C 0.1934 0.04058 0.06919 0.0
C217 C 0.21069 0.04529 0.03929 0.0
C218 C 0.25662 0.07383 0.06507 0.0
C219 C 0.27571 0.08094 0.05634 0.0
C220 C 0.2899 0.07918 0.09905 0.0
C221 C 0.28515 0.07041 0.15132 0.0
C222 C 0.26568 0.06446 0.16118 0.0
C223 C 0.25156 0.06604 0.11827 0.0
P224 P 0.43106 0.24344 0.9979 0.0
H225 H 0.43161 0.2454 0.87333 0.0
H226 H 0.44694 0.26851 0.80756 0.0
H227 H 0.47919 0.29433 0.94754 0.0
H228 H 0.46414 0.27084 0.01273 0.0
H229 H 0.41087 0.20808 0.03322 0.0
H230 H 0.42145 0.17866 0.08316 0.0
H231 H 0.48175 0.19829 0.07364 0.0
H232 H 0.47083 0.22811 0.02383 0.0
H233 H 0.40843 0.27948 0.00849 0.0
H234 H 0.44461 0.24345 0.11756 0.0
O235 O 0.40946 0.23947 0.96609 0.0
H236 H 0.40545 0.30387 0.08469 0.0
H237 H 0.44186 0.26776 0.19324 0.0
C238 C 0.44652 0.25652 0.94813 0.0
C239 C 0.44234 0.25571 0.88969 0.0
C240 C 0.45098 0.26912 0.85215 0.0
C241 C 0.46402 0.28363 0.87226 0.0
C242 C 0.46927 0.2834 0.93032 0.0
C243 C 0.46063 0.26994 0.96782 0.0
C244 C 0.44009 0.2201 0.02358 0.0
C245 C 0.42644 0.20585 0.04039 0.0
C246 C 0.43254 0.18896 0.06912 0.0
C247 C 0.45248 0.18598 0.08241 0.0
C248 C 0.46625 0.20014 0.06442 0.0
C249 C 0.46009 0.21708 0.03531 0.0
C250 C 0.4266 0.25958 0.05734 0.0
C251 C 0.4154 0.27663 0.04916 0.0
C252 C 0.41377 0.29057 0.09262 0.0
C253 C 0.42339 0.2877 0.145 0.0
C254 C 0.43399 0.27023 0.15376 0.0
C255 C 0.43568 0.25634 0.11018 0.0
Gd256 Gd 0.98453 0.01437 0.56015 0.0
Gd257 Gd 0.02859 0.99965 0.63763 0.0
C258 C 0.05586 0.03351 0.78747 0.0
C259 C 0.08997 0.03594 0.75841 0.0
C260 C 0.06557 0.02178 0.6945 0.0
C261 C 0.05112 0.02468 0.73472 0.0
C262 C 0.08513 0.0277 0.70549 0.0
C263 C 0.07541 0.03849 0.79965 0.0
C264 C 0.04093 0.03683 0.82696 0.0
C265 C 0.0218 0.03134 0.81358 0.0
N266 N 0.03254 0.01864 0.72275 0.0
C267 C 0.01787 0.0221 0.76165 0.0
H268 H 0.00275 0.01868 0.75298 0.0
C269 C 0.0749 0.00849 0.60582 0.0
N270 N 0.0607 0.0126 0.64532 0.0
C271 C 0.09426 0.01476 0.6137 0.0
C272 C 0.09942 0.02444 0.66383 0.0
H273 H 0.0714 0.99979 0.56884 0.0
H274 H 0.0794 0.04416 0.84112 0.0
H275 H 0.99899 0.99587 0.43394 0.0
H276 H 0.04398 0.04376 0.86758 0.0
H277 H 0.01 0.03415 0.84337 0.0
H278 H 0.10498 0.04008 0.76821 0.0
H279 H 0.94769 0.0211 0.65303 0.0
H280 H 0.95215 0.96118 0.36717 0.0
H281 H 0.98555 0.97487 0.35822 0.0
H282 H 0.9016 0.96729 0.50745 0.0
H283 H 0.1053 0.01159 0.58185 0.0
H284 H 0.11455 0.02886 0.67061 0.0
H285 H 0.92088 0.95845 0.42315 0.0
H286 H 0.91344 0.01 0.66635 0.0
N287 N 0.97403 0.99294 0.48789 0.0
C288 C 0.95819 0.96984 0.40159 0.0
C289 C 0.977 0.9777 0.39615 0.0
C290 C 0.94711 0.9739 0.4503 0.0
C291 C 0.9555 0.98572 0.49331 0.0
C292 C 0.98459 0.9896 0.43943 0.0
N293 N 0.95245 0.00342 0.57943 0.0
C294 C 0.94439 0.99111 0.54035 0.0
C295 C 0.92198 0.00453 0.63087 0.0
C296 C 0.91372 0.99124 0.59238 0.0
C297 C 0.94136 0.01076 0.62324 0.0
C298 C 0.9248 0.98462 0.54595 0.0
H299 H 0.89864 0.98654 0.59812 0.0
O300 O 0.96356 0.03813 0.55726 0.0
O301 O 0.00984 0.02487 0.61277 0.0
O302 O 1.00097 0.99367 0.68951 0.0
O303 O 0.97572 0.99101 0.62348 0.0
O304 O 0.98262 0.03537 0.63494 0.0
O305 O 0.98218 0.03238 0.48396 0.0
O306 O 0.05106 0.97706 0.64297 0.0
O307 O 0.00488 0.98971 0.5786 0.0
O308 O 0.01111 0.01913 0.50217 0.0
O309 O 0.03882 0.01722 0.56145 0.0
O310 O 0.03319 0.98168 0.55784 0.0
O311 O 0.02471 0.97456 0.69344 0.0
C312 C 1.0011 0.03652 0.64582 0.0
C313 C 0.91665 0.97237 0.50406 0.0
C314 C 0.92771 0.96719 0.45615 0.0
C315 C 0.96856 0.04355 0.5063 0.0
C316 C 0.96986 0.0648 0.49808 0.0
C317 C 0.9525 0.07505 0.48574 0.0
C318 C 0.9876 0.07505 0.50482 0.0
C319 C 0.98806 0.0956 0.49767 0.0
C320 C 0.95279 0.09538 0.47953 0.0
C321 C 0.97042 0.1056 0.48509 0.0
C322 C 0.98284 0.98847 0.67532 0.0
C323 C 0.01497 0.97975 0.54372 0.0
C324 C 0.03998 0.96545 0.67275 0.0
C325 C 0.03676 0.94562 0.64863 0.0
C326 C 0.0517 0.9364 0.61712 0.0
C327 C 0.01857 0.93606 0.65486 0.0
C328 C 0.01546 0.91725 0.6316 0.0
C329 C 0.04855 0.918 0.59255 0.0
C330 C 0.03066 0.90838 0.60011 0.0
C331 C 0.0303 0.02093 0.51177 0.0
H332 H 0.93868 0.06731 0.48112 0.0
H333 H 1.0009 0.06704 0.51537 0.0
H334 H 0.93936 0.10321 0.46963 0.0
H335 H 0.97027 0.1213 0.47771 0.0
H336 H 0.06581 0.94347 0.61125 0.0
H337 H 0.00682 0.94322 0.67807 0.0
H338 H 0.06016 0.91099 0.56845 0.0
H339 H 0.02905 0.89369 0.58299 0.0
Gd340 Gd 0.49375 0.98597 0.53014 0.0
Gd341 Gd 0.50558 0.02637 0.62376 0.0
C342 C 0.46414 0.03267 0.77642 0.0
C343 C 0.43949 0.05537 0.74152 0.0
C344 C 0.46673 0.04546 0.68031 0.0
C345 C 0.47391 0.0335 0.72332 0.0
C346 C 0.44945 0.05665 0.68953 0.0
C347 C 0.44674 0.04333 0.78478 0.0
C348 C 0.47256 0.02179 0.82056 0.0
C349 C 0.49091 0.0132 0.81257 0.0
N350 N 0.49094 0.02352 0.71466 0.0
C351 C 0.50021 0.01481 0.75992 0.0
H352 H 0.51504 0.00935 0.75659 0.0
C353 C 0.47148 0.06089 0.59167 0.0
N354 N 0.47699 0.04689 0.63074 0.0
C355 C 0.45419 0.07172 0.59828 0.0
C356 C 0.44294 0.06937 0.64699 0.0
H357 H 0.48036 0.06475 0.55577 0.0
H358 H 0.43905 0.04278 0.82511 0.0
H359 H 0.48401 0.99847 0.39211 0.0
H360 H 0.46551 0.02078 0.86177 0.0
H361 H 0.49819 0.00577 0.84734 0.0
H362 H 0.42636 0.06402 0.74915 0.0
H363 H 0.51836 0.95114 0.60416 0.0
H364 H 0.53549 0.98848 0.29293 0.0
H365 H 0.50168 1.00145 0.30164 0.0
H366 H 0.57495 0.94864 0.41521 0.0
H367 H 0.44987 0.08233 0.56634 0.0
H368 H 0.42971 0.07806 0.6524 0.0
H369 H 0.56276 0.9687 0.33575 0.0
H370 H 0.54865 0.93208 0.59776 0.0
N371 N 0.50864 0.9872 0.43827 0.0
C372 C 0.52804 0.98787 0.33362 0.0
C373 C 0.50902 0.99527 0.33841 0.0
C374 C 0.53657 0.97837 0.38019 0.0
C375 C 0.52626 0.97805 0.43241 0.0
C376 C 0.49925 0.99407 0.39053 0.0
N377 N 0.52271 0.96661 0.52631 0.0
C378 C 0.5332 0.96694 0.47718 0.0
C379 C 0.54471 0.94211 0.56389 0.0
C380 C 0.55638 0.94339 0.51542 0.0
C381 C 0.52768 0.95353 0.56809 0.0
C382 C 0.55051 0.95562 0.47079 0.0
H383 H 0.56958 0.93453 0.51225 0.0
O384 O 0.4799 0.95862 0.55678 0.0
O385 O 0.48208 0.00505 0.59998 0.0
O386 O 0.51533 0.99761 0.66362 0.0
O387 O 0.49391 0.97559 0.62168 0.0
O388 O 0.46442 1.00159 0.52866 0.0
O389 O 0.47796 0.9679 0.46944 0.0
O390 O 0.51397 0.05553 0.65139 0.0
O391 O 0.51884 0.00254 0.56892 0.0
O392 O 0.4879 0.01414 0.4809 0.0
O393 O 0.50035 0.03949 0.53719 0.0
O394 O 0.52782 0.03141 0.55487 0.0
O395 O 0.53228 0.03066 0.67336 0.0
C396 C 0.4653 0.00898 0.57935 0.0
C397 C 0.5614 0.95683 0.42023 0.0
C398 C 0.55451 0.96832 0.37514 0.0
C399 C 0.47223 0.95525 0.50712 0.0
C400 C 0.45137 0.94965 0.50553 0.0
C401 C 0.44607 0.93034 0.51924 0.0
C402 C 0.43688 0.96289 0.48676 0.0
C403 C 0.41742 0.95661 0.47934 0.0
C404 C 0.42665 0.92412 0.51249 0.0
C405 C 0.41244 0.93707 0.49162 0.0
C406 C 0.50568 0.98079 0.66388 0.0
C407 C 0.53067 0.01328 0.54099 0.0
C408 C 0.53096 0.04973 0.6707 0.0
C409 C 0.54844 0.0603 0.6495 0.0
C410 C 0.54679 0.07541 0.60898 0.0
C411 C 0.56713 0.05491 0.66925 0.0
C412 C 0.58412 0.06454 0.64964 0.0
C413 C 0.56357 0.08494 0.58901 0.0
C414 C 0.58214 0.0796 0.60918 0.0
C415 C 0.49267 0.03275 0.48932 0.0
H416 H 0.45706 0.91996 0.53385 0.0
H417 H 0.44084 0.97776 0.47527 0.0
H418 H 0.42269 0.90911 0.52231 0.0
H419 H 0.39759 0.93183 0.48491 0.0
H420 H 0.53259 0.07984 0.59244 0.0
H421 H 0.56841 0.04296 0.69946 0.0
H422 H 0.56217 0.09657 0.5579 0.0
H423 H 0.59489 0.08744 0.59371 0.0
Gd424 Gd 0.48901 0.5037 0.61627 0.0
Gd425 Gd 0.5354 0.49982 0.53737 0.0
C426 C 0.598 0.50365 0.60613 0.0
C427 C 0.61083 0.53189 0.55521 0.0
C428 C 0.57664 0.52223 0.54364 0.0
C429 C 0.57936 0.50689 0.58137 0.0
C430 C 0.59232 0.53497 0.53033 0.0
C431 C 0.61373 0.51604 0.59212 0.0
C432 C 0.60048 0.4876 0.64253 0.0
C433 C 0.58474 0.47496 0.65226 0.0
N434 N 0.56415 0.49447 0.5913 0.0
C435 C 0.56675 0.47837 0.62517 0.0
H436 H 0.55499 0.46813 0.63219 0.0
C437 C 0.55611 0.53804 0.47648 0.0
N438 N 0.55893 0.52413 0.51773 0.0
C439 C 0.57103 0.55134 0.46315 0.0
C440 C 0.5892 0.54988 0.49041 0.0
H441 H 0.54217 0.53908 0.45455 0.0
H442 H 0.62834 0.51324 0.60847 0.0
H443 H 0.46928 0.54061 0.53591 0.0
H444 H 0.61454 0.48462 0.66243 0.0
H445 H 0.58655 0.46236 0.67982 0.0
H446 H 0.62314 0.54129 0.54481 0.0
H447 H 0.47886 0.46344 0.69168 0.0
H448 H 0.41329 0.52212 0.47515 0.0
H449 H 0.43968 0.54696 0.48023 0.0
H450 H 0.40377 0.45985 0.56509 0.0
H451 H 0.56858 0.5626 0.43157 0.0
H452 H 0.60085 0.56 0.47929 0.0
H453 H 0.40018 0.48948 0.50619 0.0
H454 H 0.45272 0.43836 0.69858 0.0
N455 N 0.46049 0.51204 0.56313 0.0
C456 C 0.42635 0.5192 0.50026 0.0
C457 C 0.44119 0.53326 0.50312 0.0
C458 C 0.42838 0.50171 0.53073 0.0
C459 C 0.44574 0.4986 0.5626 0.0
C460 C 0.45812 0.52952 0.53524 0.0
N461 N 0.46426 0.4798 0.62706 0.0
C462 C 0.44774 0.48192 0.59542 0.0
C463 C 0.45116 0.45048 0.66921 0.0
C464 C 0.43452 0.4519 0.63461 0.0
C465 C 0.46587 0.46475 0.66537 0.0
C466 C 0.43249 0.46791 0.59774 0.0
H467 H 0.42315 0.44083 0.6376 0.0
O468 O 0.47794 0.50361 0.70254 0.0
O469 O 0.52169 0.50499 0.62164 0.0
O470 O 0.52632 0.47018 0.57448 0.0
O471 O 0.49236 0.47276 0.58279 0.0
O472 O 0.50784 0.489 0.68369 0.0
O473 O 0.48314 0.53129 0.66003 0.0
O474 O 0.5456 0.49768 0.4506 0.0
O475 O 0.5029 0.49849 0.53294 0.0
O476 O 0.49871 0.53336 0.58049 0.0
O477 O 0.53268 0.53097 0.56947 0.0
O478 O 0.51637 0.51244 0.46643 0.0
O479 O 0.5454 0.4717 0.50411 0.0
C480 C 0.52459 0.49564 0.66715 0.0
C481 C 0.41555 0.47055 0.56437 0.0
C482 C 0.41349 0.48743 0.53091 0.0
C483 C 0.48037 0.52245 0.70866 0.0
C484 C 0.49297 0.52833 0.75725 0.0
C485 C 0.4927 0.51714 0.80747 0.0
C486 C 0.50623 0.54412 0.7529 0.0
C487 C 0.51897 0.54881 0.7983 0.0
C488 C 0.50555 0.52144 0.85206 0.0
C489 C 0.51856 0.53715 0.84772 0.0
C490 C 0.50867 0.46219 0.58077 0.0
C491 C 0.4997 0.50696 0.48636 0.0
C492 C 0.54788 0.47873 0.4529 0.0
C493 C 0.53958 0.46782 0.40443 0.0
C494 C 0.54553 0.47306 0.34933 0.0
C495 C 0.52587 0.45255 0.41169 0.0
C496 C 0.51863 0.44235 0.36401 0.0
C497 C 0.53802 0.46325 0.302 0.0
C498 C 0.52471 0.44794 0.30919 0.0
C499 C 0.51634 0.54147 0.5739 0.0
H500 H 0.48273 0.50484 0.81194 0.0
H501 H 0.5068 0.55264 0.71403 0.0
H502 H 0.5053 0.51265 0.8904 0.0
H503 H 0.5279 0.54047 0.88385 0.0
H504 H 0.55601 0.48484 0.34292 0.0
H505 H 0.52121 0.44831 0.454 0.0
H506 H 0.5426 0.46746 0.25964 0.0
H507 H 0.51911 0.44043 0.27183 0.0
Gd508 Gd 0.99852 0.48014 0.63768 0.0
Gd509 Gd 0.01007 0.52515 0.55736 0.0
C510 C 1.00049 0.58894 0.61369 0.0
C511 C 0.97374 0.59931 0.55197 0.0
C512 C 0.98707 0.56623 0.54454 0.0
C513 C 0.99999 0.57012 0.58834 0.0
C514 C 0.97406 0.5809 0.52492 0.0
C515 C 0.98696 0.60334 0.59628 0.0
C516 C 0.01501 0.59293 0.65431 0.0
C517 C 0.02892 0.57855 0.66727 0.0
N518 N 0.0129 0.55589 0.60372 0.0
C519 C 0.02779 0.56013 0.64097 0.0
H520 H 0.03865 0.54928 0.65177 0.0
C521 C 0.97724 0.54474 0.47083 0.0
N522 N 0.98802 0.54842 0.51891 0.0
C523 C 0.96401 0.55874 0.44998 0.0
C524 C 0.96221 0.57682 0.4776 0.0
H525 H 0.97836 0.53076 0.44938 0.0
H526 H 0.98697 0.61779 0.6157 0.0
H527 H 0.96736 0.45883 0.5416 0.0
H528 H 0.01589 0.60717 0.67484 0.0
H529 H 0.04046 0.58158 0.69782 0.0
H530 H 0.96373 0.61071 0.53788 0.0
H531 H 0.03054 0.47005 0.74268 0.0
H532 H 0.99084 0.40294 0.49638 0.0
H533 H 0.96535 0.42856 0.48589 0.0
H534 H 0.04528 0.39504 0.62325 0.0
H535 H 0.95516 0.55555 0.41276 0.0
H536 H 0.95201 0.58768 0.46127 0.0
H537 H 0.02094 0.39081 0.54671 0.0
H538 H 0.05444 0.44407 0.76769 0.0
N539 N 0.99438 0.45139 0.58241 0.0
C540 C 0.99189 0.41635 0.52109 0.0
C541 C 0.97747 0.43077 0.51513 0.0
C542 C 0.00707 0.4191 0.56047 0.0
C543 C 0.00779 0.43686 0.59161 0.0
C544 C 0.97877 0.44812 0.54688 0.0
N545 N 0.02088 0.45575 0.66694 0.0
C546 C 0.02152 0.43919 0.63483 0.0
C547 C 0.04537 0.44256 0.73003 0.0
C548 C 0.04716 0.426 0.69527 0.0
C549 C 0.03182 0.4572 0.71582 0.0
C550 C 0.03486 0.42393 0.64777 0.0
H551 H 0.05761 0.41462 0.70652 0.0
O552 O 0.98868 0.461 0.70543 0.0
O553 O 0.99986 0.51258 0.63934 0.0
O554 O 0.03568 0.5167 0.6152 0.0
O555 O 0.03169 0.48323 0.63147 0.0
O556 O 0.00768 0.49862 0.71402 0.0
O557 O 0.96908 0.48328 0.67271 0.0
O558 O 0.02101 0.52806 0.47118 0.0
O559 O 0.01011 0.49234 0.55749 0.0
O560 O 0.97302 0.4898 0.57992 0.0
O561 O 0.97716 0.52368 0.57103 0.0
O562 O 1.0016 0.50562 0.48283 0.0
O563 O 0.04013 0.53432 0.54335 0.0
C564 C 0.00508 0.51548 0.69026 0.0
C565 C 0.03497 0.4068 0.61443 0.0
C566 C 0.0211 0.40438 0.57088 0.0
C567 C 0.97215 0.47027 0.71223 0.0
C568 C 0.96673 0.47583 0.7708 0.0
C569 C 0.97994 0.4738 0.81648 0.0
C570 C 0.94769 0.48277 0.78122 0.0
C571 C 0.94141 0.48712 0.83691 0.0
C572 C 0.97397 0.47832 0.87179 0.0
C573 C 0.95481 0.48479 0.88216 0.0
C574 C 0.04262 0.49931 0.63079 0.0
C575 C 0.00482 0.48899 0.50693 0.0
C576 C 0.03836 0.53364 0.48816 0.0
C577 C 0.04796 0.54907 0.4555 0.0
C578 C 0.04292 0.56896 0.46043 0.0
C579 C 0.0631 0.54334 0.41922 0.0
C580 C 0.07359 0.55724 0.38767 0.0
C581 C 0.05332 0.58301 0.42909 0.0
C582 C 0.06872 0.57723 0.3931 0.0
C583 C 0.96608 0.50768 0.56821 0.0
H584 H 0.99481 0.46859 0.80966 0.0
H585 H 0.93781 0.48482 0.74546 0.0
H586 H 0.98416 0.47659 0.90688 0.0
H587 H 0.95048 0.48768 0.92568 0.0
H588 H 0.03118 0.57357 0.48856 0.0
H589 H 0.06709 0.52792 0.41678 0.0
H590 H 0.04955 0.5984 0.433 0.0
H591 H 0.07673 0.58827 0.3695 0.0
H592 H 0.17629 0.02512 0.16827 0.0
H593 H 0.14865 0.0194 0.23254 0.0
H594 H 0.11888 0.07014 0.16479 0.0
H595 H 0.14597 0.07555 0.09868 0.0
H596 H 0.1202 0.06952 0.28497 0.0
H597 H 0.10212 0.02663 0.13073 0.0
H598 H 0.10743 1.00007 0.06089 0.0
H599 H 0.11734 0.95907 0.19665 0.0
H600 H 0.11237 0.98546 0.26734 0.0
H601 H 0.02882 0.05091 0.43351 0.0
H602 H 0.05286 0.05782 0.35743 0.0
H603 H 0.08474 0.00527 0.40259 0.0
H604 H 0.06093 0.99858 0.47755 0.0
H605 H 0.08112 0.00812 0.28973 0.0
H606 H 0.09936 0.04934 0.44429 0.0
H607 H 0.09723 0.07526 0.51723 0.0
H608 H 0.09102 0.11893 0.387 0.0
H609 H 0.09195 0.09317 0.31308 0.0
C610 C 0.16372 0.03486 0.16592 0.0
C611 C 0.1636 0.0509 0.12804 0.0
C612 C 0.14794 0.03163 0.20317 0.0
C613 C 0.13167 0.04439 0.20377 0.0
C614 C 0.13132 0.06019 0.16555 0.0
C615 C 0.14695 0.0633 0.12784 0.0
C616 C 0.11524 0.04151 0.24507 0.0
C617 C 0.11135 0.05627 0.28541 0.0
C618 C 0.10412 0.02397 0.24672 0.0
C619 C 0.10705 0.00806 0.20431 0.0
C620 C 0.1056 0.01199 0.14569 0.0
C621 C 0.10851 0.99696 0.10595 0.0
C622 C 0.11277 0.97791 0.12432 0.0
C623 C 0.11407 0.97384 0.18248 0.0
C624 C 0.11118 0.98882 0.2224 0.0
C625 C 0.0411 0.04106 0.42723 0.0
C626 C 0.04356 0.02474 0.46302 0.0
C627 C 0.0548 0.04494 0.38383 0.0
C628 C 0.07089 0.03223 0.37475 0.0
C629 C 0.07268 0.01544 0.40897 0.0
C630 C 0.05922 0.01178 0.45252 0.0
C631 C 0.08597 0.03617 0.32997 0.0
C632 C 0.0897 0.02154 0.289 0.0
C633 C 0.09712 0.05376 0.32839 0.0
C634 C 0.09533 0.0692 0.37298 0.0
C635 C 0.097 0.06439 0.43107 0.0
C636 C 0.09603 0.07908 0.47265 0.0
C637 C 0.09384 0.09872 0.45673 0.0
C638 C 0.0925 0.10369 0.39921 0.0
C639 C 0.09311 0.08903 0.35747 0.0
H640 H 0.09327 0.11009 0.48892 0.0
H641 H 0.11502 0.96629 0.09348 0.0
H642 H 0.4794 0.18492 0.1696 0.0
H643 H 0.48725 0.15739 0.2323 0.0
H644 H 0.44667 0.1206 0.13971 0.0
H645 H 0.43885 0.14804 0.07646 0.0
H646 H 0.44143 0.11645 0.25243 0.0
H647 H 0.49632 0.11473 0.12527 0.0
H648 H 0.52457 0.12807 0.07237 0.0
H649 H 0.55319 0.14292 0.22972 0.0
H650 H 0.52498 0.12992 0.2836 0.0
H651 H 0.46919 0.02917 0.39434 0.0
H652 H 0.46466 0.05295 0.31778 0.0
H653 H 0.50377 0.09323 0.40325 0.0
H654 H 0.50942 0.06901 0.47801 0.0
H655 H 0.50972 0.09399 0.28953 0.0
H656 H 0.45224 0.10192 0.41358 0.0
H657 H 0.42639 0.08565 0.47004 0.0
H658 H 0.40523 0.05655 0.31966 0.0
H659 H 0.43044 0.07328 0.26204 0.0
C660 C 0.47241 0.17089 0.16179 0.0
C661 C 0.4585 0.16875 0.11777 0.0
C662 C 0.47686 0.15514 0.19791 0.0
C663 C 0.46763 0.13684 0.19067 0.0
C664 C 0.45392 0.13458 0.14639 0.0
C665 C 0.44946 0.15031 0.11025 0.0
C666 C 0.47197 0.12022 0.2301 0.0
C667 C 0.45636 0.11141 0.25976 0.0
C668 C 0.49144 0.1137 0.2407 0.0
C669 C 0.50845 0.12151 0.20845 0.0
C670 C 0.50857 0.12098 0.1486 0.0
C671 C 0.52459 0.12846 0.11843 0.0
C672 C 0.54064 0.13638 0.14766 0.0
C673 C 0.54073 0.1368 0.20714 0.0
C674 C 0.52474 0.12936 0.23751 0.0
C675 C 0.47719 0.04287 0.39631 0.0
C676 C 0.48974 0.04706 0.44234 0.0
C677 C 0.47435 0.05662 0.35282 0.0
C678 C 0.48361 0.07507 0.35513 0.0
C679 C 0.49643 0.07914 0.40046 0.0
C680 C 0.49949 0.0653 0.44351 0.0
C681 C 0.47927 0.09047 0.31184 0.0
C682 C 0.49483 0.09905 0.28173 0.0
C683 C 0.45983 0.09683 0.3008 0.0
C684 C 0.44309 0.08889 0.3336 0.0
C685 C 0.44177 0.09237 0.39247 0.0
C686 C 0.42724 0.08309 0.42463 0.0
C687 C 0.41408 0.07017 0.39839 0.0
C688 C 0.41522 0.06679 0.33978 0.0
C689 C 0.42948 0.07632 0.30723 0.0
H690 H 0.40307 0.06274 0.42355 0.0
H691 H 0.55303 0.14216 0.12423 0.0
H692 H 0.35221 0.45149 0.18481 0.0
H693 H 0.37886 0.4589 0.2512 0.0
H694 H 0.38644 0.51563 0.1731 0.0
H695 H 0.35983 0.50816 0.10552 0.0
H696 H 0.42181 0.49654 0.19088 0.0
H697 H 0.36439 0.51143 0.29928 0.0
H698 H 0.332 0.50569 0.34289 0.0
H699 H 0.35602 0.45834 0.44159 0.0
H700 H 0.3885 0.46358 0.39796 0.0
H701 H 0.4868 0.53201 0.40511 0.0
H702 H 0.45891 0.52779 0.33997 0.0
H703 H 0.44611 0.47169 0.41657 0.0
H704 H 0.47392 0.47603 0.48207 0.0
H705 H 0.41286 0.49237 0.39999 0.0
H706 H 0.46836 0.47438 0.28846 0.0
H707 H 0.50106 0.47804 0.24486 0.0
H708 H 0.48118 0.52905 0.15417 0.0
H709 H 0.44834 0.52579 0.19756 0.0
C710 C 0.3596 0.46552 0.18134 0.0
C711 C 0.35391 0.47918 0.1394 0.0
C712 C 0.37474 0.46981 0.21983 0.0
C713 C 0.38458 0.48791 0.21767 0.0
C714 C 0.37902 0.50159 0.1758 0.0
C715 C 0.36374 0.49735 0.13738 0.0
C716 C 0.40091 0.49222 0.25841 0.0
C717 C 0.41974 0.49605 0.23663 0.0
C718 C 0.39843 0.49091 0.31824 0.0
C719 C 0.37885 0.48769 0.34448 0.0
C720 C 0.36273 0.49963 0.32971 0.0
C721 C 0.34436 0.4965 0.3546 0.0
C722 C 0.34193 0.4816 0.39477 0.0
C723 C 0.3579 0.46983 0.41029 0.0
C724 C 0.3763 0.47287 0.38545 0.0
C725 C 0.47792 0.51886 0.40819 0.0
C726 C 0.48217 0.5046 0.44956 0.0
C727 C 0.46206 0.51639 0.3708 0.0
C728 C 0.45039 0.49938 0.37308 0.0
C729 C 0.45477 0.48501 0.41416 0.0
C730 C 0.47061 0.48753 0.45177 0.0
C731 C 0.43371 0.4966 0.3325 0.0
C732 C 0.41485 0.49307 0.35428 0.0
C733 C 0.43619 0.4979 0.27274 0.0
C734 C 0.45593 0.49995 0.24668 0.0
C735 C 0.47099 0.48647 0.25954 0.0
C736 C 0.48955 0.48845 0.23482 0.0
C737 C 0.49322 0.5038 0.19695 0.0
C738 C 0.47832 0.51718 0.18359 0.0
C739 C 0.45972 0.51525 0.20816 0.0
H740 H 0.5076 0.5053 0.17782 0.0
H741 H 0.32769 0.47922 0.41403 0.0
H742 H 0.03006 0.32139 0.24974 0.0
H743 H 0.0239 0.34902 0.3139 0.0
H744 H 0.03248 0.38946 0.17522 0.0
H745 H 0.03839 0.36191 0.11054 0.0
H746 H 0.05187 0.402 0.2681 0.0
H747 H 0.98655 0.37904 0.22663 0.0
H748 H 0.95976 0.35475 0.22044 0.0
H749 H 0.96335 0.34511 0.40076 0.0
H750 H 0.99036 0.36916 0.4079 0.0
H751 H 0.98281 0.47589 0.41902 0.0
H752 H 0.98874 0.44726 0.35796 0.0
H753 H 0.04089 0.43347 0.45475 0.0
H754 H 0.03483 0.46214 0.5164 0.0
H755 H 0.99114 0.40772 0.3835 0.0
H756 H 0.075 0.41519 0.355 0.0
H757 H 0.10046 0.441 0.35672 0.0
H758 H 0.05751 0.48411 0.30805 0.0
H759 H 0.03188 0.45853 0.30517 0.0
C760 C 0.03029 0.33612 0.23246 0.0
C761 C 0.03469 0.33928 0.17458 0.0
C762 C 0.02688 0.35197 0.26945 0.0
C763 C 0.02767 0.37143 0.2496 0.0
C764 C 0.03191 0.37464 0.19184 0.0
C765 C 0.03529 0.35881 0.15481 0.0
C766 C 0.0242 0.38843 0.2889 0.0
C767 C 0.03862 0.40316 0.29347 0.0
C768 C 0.00685 0.39019 0.32191 0.0
C769 C 0.99063 0.37572 0.31767 0.0
C770 C 0.98174 0.37161 0.26487 0.0
C771 C 0.9665 0.35792 0.26121 0.0
C772 C 0.9599 0.34835 0.31014 0.0
C773 C 0.9685 0.3525 0.36287 0.0
C774 C 0.98377 0.36617 0.36676 0.0
C775 C 0.99543 0.46661 0.42753 0.0
C776 C 0.00806 0.47088 0.47326 0.0
C777 C 0.9988 0.45026 0.3927 0.0
C778 C 0.01524 0.43815 0.4017 0.0
C779 C 0.02813 0.4426 0.44686 0.0
C780 C 0.02458 0.45886 0.48232 0.0
C781 C 0.01888 0.42109 0.36308 0.0
C782 C 0.00449 0.40639 0.35862 0.0
C783 C 0.03613 0.41949 0.32975 0.0
C784 C 0.05149 0.43496 0.33054 0.0
C785 C 0.07101 0.43017 0.34448 0.0
C786 C 0.08547 0.44476 0.34566 0.0
C787 C 0.08059 0.46419 0.33269 0.0
C788 C 0.06126 0.46907 0.3183 0.0
C789 C 0.04675 0.45453 0.31697 0.0
H790 H 0.0918 0.47547 0.33366 0.0
H791 H 0.94808 0.33776 0.30722 0.0
H792 H 0.82873 0.96995 0.98548 0.0
H793 H 0.85547 0.96665 0.91688 0.0
H794 H 0.89745 0.98189 0.04732 0.0
H795 H 0.8708 0.98495 0.11656 0.0
H796 H 0.90324 0.00322 0.95107 0.0
H797 H 0.89323 0.93487 0.99597 0.0
H798 H 0.8729 0.90516 0.00697 0.0
H799 H 0.85823 0.90674 0.8292 0.0
H800 H 0.87815 0.93669 0.81733 0.0
H801 H 0.98834 0.98909 0.79125 0.0
H802 H 0.96386 0.98294 0.86475 0.0
H803 H 0.92211 0.96515 0.73632 0.0
H804 H 0.94692 0.97039 0.66263 0.0
H805 H 0.91632 0.94437 0.8319 0.0
H806 H 0.92294 0.01221 0.785 0.0
H807 H 0.94176 0.04257 0.7682 0.0
H808 H 0.9605 0.04301 0.94288 0.0
H809 H 0.94209 0.0124 0.96045 0.0
C810 C 0.84367 0.97212 1.00015 0.0
C811 C 0.84749 0.9777 0.05693 0.0
C812 C 0.85899 0.97033 0.9606 0.0
C813 C 0.87857 0.97397 0.97674 0.0
C814 C 0.88249 0.97909 0.03361 0.0
C815 C 0.86719 0.98085 0.07323 0.0
C816 C 0.89482 0.97329 0.93391 0.0
C817 C 0.90628 0.99021 0.9258 0.0
C818 C 0.89844 0.95658 0.89922 0.0
C819 C 0.88701 0.93818 0.90592 0.0
C820 C 0.88555 0.92897 0.9593 0.0
C821 C 0.87407 0.9121 0.96572 0.0
C822 C 0.86412 0.90418 0.91893 0.0
C823 C 0.86583 0.91297 0.86548 0.0
C824 C 0.87723 0.92989 0.85888 0.0
C825 C 0.97408 0.98361 0.77846 0.0
C826 C 0.96935 0.98115 0.72055 0.0
C827 C 0.96002 0.98012 0.82072 0.0
C828 C 0.94084 0.97423 0.80613 0.0
C829 C 0.93665 0.97 0.74882 0.0
C830 C 0.95081 0.97327 0.70656 0.0
C831 C 0.92485 0.97421 0.8498 0.0
C832 C 0.91337 0.95728 0.85767 0.0
C833 C 0.92091 0.99103 0.88363 0.0
C834 C 0.93127 0.00992 0.87395 0.0
C835 C 0.93111 0.01875 0.81982 0.0
C836 C 0.94173 0.03599 0.81012 0.0
C837 C 0.95236 0.04469 0.85442 0.0
C838 C 0.95228 0.03623 0.90859 0.0
C839 C 0.94176 0.01894 0.91846 0.0
H840 H 0.96062 0.058 0.84679 0.0
H841 H 0.85525 0.89112 0.92398 0.0
H842 H 0.50518 0.86266 0.09486 0.0
H843 H 0.50453 0.89033 0.02862 0.0
H844 H 0.54588 0.86032 0.92001 0.0
H845 H 0.54598 0.8323 0.98454 0.0
H846 H 0.5298 0.91618 0.98366 0.0
H847 H 0.53295 0.86757 0.78204 0.0
H848 H 0.52495 0.8337 0.75238 0.0
H849 H 0.48131 0.83009 0.88373 0.0
H850 H 0.48884 0.86401 0.91359 0.0
H851 H 0.53706 0.97793 0.73725 0.0
H852 H 0.54212 0.95359 0.81258 0.0
H853 H 0.48553 0.92809 0.77441 0.0
H854 H 0.48076 0.95192 0.69817 0.0
H855 H 0.50993 0.90021 0.78563 0.0
H856 H 0.49484 0.95663 0.90405 0.0
H857 H 0.49848 0.99039 0.94105 0.0
H858 H 0.55915 0.97912 0.98004 0.0
H859 H 0.55573 0.94514 0.94444 0.0
C860 C 0.51422 0.86196 0.05704 0.0
C861 C 0.52545 0.84507 0.04493 0.0
C862 C 0.51396 0.8779 0.01939 0.0
C863 C 0.52488 0.87731 0.96874 0.0
C864 C 0.53708 0.86102 0.95835 0.0
C865 C 0.53729 0.84506 0.99578 0.0
C866 C 0.5224 0.89298 0.92502 0.0
C867 C 0.52555 0.91268 0.94028 0.0
C868 C 0.51649 0.88854 0.86858 0.0
C869 C 0.51163 0.86824 0.85041 0.0
C870 C 0.5216 0.85956 0.80443 0.0
C871 C 0.51715 0.84036 0.78761 0.0
C872 C 0.50268 0.82973 0.81629 0.0
C873 C 0.49256 0.83831 0.86169 0.0
C874 C 0.49693 0.85752 0.8786 0.0
C875 C 0.52564 0.96723 0.74535 0.0
C876 C 0.50851 0.96684 0.71171 0.0
C877 C 0.52849 0.95335 0.78867 0.0
C878 C 0.51414 0.939 0.79986 0.0
C879 C 0.49691 0.93887 0.7667 0.0
C880 C 0.49417 0.95255 0.72305 0.0
C881 C 0.51727 0.92354 0.84408 0.0
C882 C 0.51432 0.90379 0.82884 0.0
C883 C 0.52287 0.92799 0.90081 0.0
C884 C 0.52508 0.94847 0.92111 0.0
C885 C 0.50898 0.96141 0.92021 0.0
C886 C 0.51098 0.98055 0.94109 0.0
C887 C 0.52908 0.98696 0.96236 0.0
C888 C 0.54516 0.97417 0.96338 0.0
C889 C 0.54316 0.95493 0.9432 0.0
H890 H 0.53061 0.00181 0.9783 0.0
H891 H 0.49928 0.81486 0.80324 0.0
H892 H 0.65429 0.54577 0.05492 0.0
H893 H 0.62837 0.54856 0.98361 0.0
H894 H 0.60497 0.4926 0.03627 0.0
H895 H 0.62964 0.4906 0.11083 0.0
H896 H 0.62378 0.52961 0.89603 0.0
H897 H 0.55903 0.48386 0.9933 0.0
H898 H 0.54257 0.47995 0.08604 0.0
H899 H 0.56338 0.53666 0.13876 0.0
H900 H 0.57971 0.54107 0.0461 0.0
H901 H 0.53525 0.47313 0.75687 0.0
H902 H 0.55768 0.4814 0.83454 0.0
H903 H 0.57026 0.53686 0.75364 0.0
H904 H 0.54858 0.52811 0.67497 0.0
H905 H 0.55459 0.50765 0.9099 0.0
H906 H 0.59833 0.55805 0.79681 0.0
H907 H 0.61916 0.56744 0.71533 0.0
H908 H 0.64197 0.50864 0.70659 0.0
H909 H 0.62044 0.49874 0.78596 0.0
C910 C 0.64323 0.53437 0.05297 0.0
C911 C 0.6444 0.51782 0.08876 0.0
C912 C 0.62845 0.53588 0.01136 0.0
C913 C 0.61451 0.5208 0.00383 0.0
C914 C 0.61516 0.50469 0.04119 0.0
C915 C 0.62965 0.50338 0.0835 0.0
C916 C 0.6008 0.52083 0.95354 0.0
C917 C 0.60854 0.52509 0.89961 0.0
C918 C 0.58078 0.51516 0.95714 0.0
C919 C 0.57077 0.51271 0.01282 0.0
C920 C 0.56002 0.49555 0.02453 0.0
C921 C 0.55072 0.49323 0.07714 0.0
C922 C 0.552 0.50801 0.11834 0.0
C923 C 0.56248 0.52518 0.10691 0.0
C924 C 0.57178 0.52758 0.05437 0.0
C925 C 0.54323 0.48688 0.75511 0.0
C926 C 0.54035 0.49982 0.70939 0.0
C927 C 0.556 0.49171 0.7998 0.0
C928 C 0.56606 0.50979 0.8007 0.0
C929 C 0.56343 0.52257 0.75413 0.0
C930 C 0.55083 0.5176 0.70888 0.0
C931 C 0.57799 0.51532 0.85235 0.0
C932 C 0.56982 0.51223 0.90672 0.0
C933 C 0.59742 0.52274 0.84955 0.0
C934 C 0.60737 0.52753 0.79578 0.0
C935 C 0.60735 0.54702 0.77617 0.0
C936 C 0.61929 0.55244 0.73053 0.0
C937 C 0.63182 0.53863 0.70563 0.0
C938 C 0.6321 0.51928 0.72553 0.0
C939 C 0.61978 0.51367 0.77012 0.0
H940 H 0.64134 0.54292 0.67097 0.0
H941 H 0.54487 0.50615 0.15911 0.0
H942 H 0.02865 0.65374 0.05777 0.0
H943 H 0.0271 0.6251 0.9949 0.0
H944 H 0.97443 0.64815 0.9171 0.0
H945 H 0.97566 0.67659 0.98119 0.0
H946 H 0.97125 0.61 0.92317 0.0
H947 H 0.02121 0.65312 0.85506 0.0
H948 H 0.05098 0.67367 0.86074 0.0
H949 H 0.0855 0.62301 0.90435 0.0
H950 H 0.05588 0.60219 0.89975 0.0
H951 H 0.97902 0.54607 0.68115 0.0
H952 H 0.97779 0.57592 0.74013 0.0
H953 H 0.02839 0.5557 0.8346 0.0
H954 H 0.02988 0.52624 0.77474 0.0
H955 H 0.03157 0.59397 0.81408 0.0
H956 H 0.98019 0.55087 0.87909 0.0
H957 H 0.95084 0.53092 0.86072 0.0
H958 H 0.91802 0.58283 0.81829 0.0
H959 H 0.94769 0.60306 0.83299 0.0
C960 C 0.0166 0.65258 0.02774 0.0
C961 C 0.00233 0.66752 0.02439 0.0
C962 C 0.01579 0.63624 0.99144 0.0
C963 C 1.00094 0.6346 0.94989 0.0
C964 C 0.98612 0.64903 0.94838 0.0
C965 C 0.98678 0.66528 0.98527 0.0
C966 C 1.0013 0.61823 0.90705 0.0
C967 C 0.98439 0.60668 0.89891 0.0
C968 C 0.01841 0.61368 0.87512 0.0
C969 C 0.03628 0.62613 0.87758 0.0
C970 C 0.03513 0.64638 0.86624 0.0
C971 C 0.05198 0.65808 0.86923 0.0
C972 C 0.07011 0.64966 0.88303 0.0
C973 C 0.07144 0.62952 0.89373 0.0
C974 C 0.05463 0.61776 0.89091 0.0
C975 C 0.99002 0.54822 0.71398 0.0
C976 C 0.00483 0.53413 0.72262 0.0
C977 C 0.98921 0.56517 0.74808 0.0
C978 C 0.00293 0.5681 0.79232 0.0
C979 C 0.01771 0.55393 0.8007 0.0
C980 C 0.01853 0.53706 0.76662 0.0
C981 C 1.00171 0.58552 0.83122 0.0
C982 C 0.01845 0.59732 0.83841 0.0
C983 C 0.98438 0.59039 0.86173 0.0
C984 C 0.96623 0.57846 0.85655 0.0
C985 C 0.96675 0.55805 0.86562 0.0
C986 C 0.95003 0.54667 0.85571 0.0
C987 C 0.93246 0.55558 0.83867 0.0
C988 C 0.93163 0.57594 0.83145 0.0
C989 C 0.94844 0.58736 0.84021 0.0
H990 H 0.91952 0.54675 0.83085 0.0
H991 H 0.08314 0.65874 0.88532 0.0
H992 H 0.1062 0.19957 0.228 0.0
H993 H 0.10271 0.17512 0.30359 0.0
H994 H 0.05711 0.21015 0.38091 0.0
H995 H 0.06057 0.23461 0.30599 0.0
H996 H 0.07785 0.18741 0.46169 0.0
H997 H 0.0447 0.17985 0.27696 0.0
H998 H 0.04493 0.17737 0.17215 0.0
H999 H 0.08344 0.12743 0.18195 0.0
H1000 H 0.08371 0.1299 0.28677 0.0
H1001 H 0.99538 0.13271 0.53841 0.0
H1002 H 0.02291 0.15348 0.51266 0.0
H1003 H 0.05175 0.10379 0.43432 0.0
H1004 H 0.02348 0.08348 0.4555 0.0
H1005 H 0.04881 0.13009 0.36167 0.0
H1006 H 0.07204 0.13204 0.55155 0.0
H1007 H 0.06894 0.13457 0.65577 0.0
H1008 H 0.04807 0.19381 0.63994 0.0
H1009 H 0.05077 0.19162 0.53544 0.0
C1010 C 0.09582 0.2023 0.26202 0.0
C1011 C 0.08337 0.2188 0.26044 0.0
C1012 C 0.09397 0.18842 0.30543 0.0
C1013 C 0.07943 0.19069 0.3473 0.0
C1014 C 0.06846 0.20814 0.34913 0.0
C1015 C 0.0704 0.22209 0.30603 0.0
C1016 C 0.07258 0.17356 0.38059 0.0
C1017 C 0.07167 0.1747 0.44026 0.0
C1018 C 0.06484 0.15688 0.35248 0.0
C1019 C 0.0644 0.15518 0.28955 0.0
C1020 C 0.05329 0.16841 0.25668 0.0
C1021 C 0.05334 0.16702 0.19731 0.0
C1022 C 0.06423 0.15228 0.1704 0.0
C1023 C 0.07504 0.13887 0.20284 0.0
C1024 C 0.07512 0.14026 0.26223 0.0
C1025 C 0.00772 0.12613 0.5164 0.0
C1026 C 0.00695 0.10653 0.49754 0.0
C1027 C 0.02373 0.13797 0.50265 0.0
C1028 C 0.03959 0.13028 0.47149 0.0
C1029 C 0.03978 0.11014 0.45838 0.0
C1030 C 0.02357 0.09842 0.47095 0.0
C1031 C 0.05371 0.14378 0.4435 0.0
C1032 C 0.05574 0.14218 0.38421 0.0
C1033 C 0.06246 0.15988 0.47232 0.0
C1034 C 0.06166 0.16166 0.53541 0.0
C1035 C 0.0668 0.14563 0.57018 0.0
C1036 C 0.06508 0.14698 0.62935 0.0
C1037 C 0.05835 0.16433 0.65443 0.0
C1038 C 0.05336 0.1804 0.62041 0.0
C1039 C 0.05504 0.17913 0.56117 0.0
H1040 H 0.05706 0.16532 0.70023 0.0
H1041 H 0.06425 0.15122 0.12442 0.0
H1042 H 0.28516 0.0747 0.26746 0.0
H1043 H 0.30847 0.0598 0.3349 0.0
H1044 H 0.34288 0.03786 0.19466 0.0
H1045 H 0.31993 0.05275 0.12729 0.0
H1046 H 0.31962 0.01129 0.29712 0.0
H1047 H 0.36827 0.06199 0.2402 0.0
H1048 H 0.37908 0.09644 0.23262 0.0
H1049 H 0.37004 0.10445 0.41202 0.0
H1050 H 0.35888 0.07008 0.42042 0.0
H1051 H 0.39723 0.95166 0.38118 0.0
H1052 H 0.37459 0.97465 0.33594 0.0
H1053 H 0.38136 0.01465 0.47767 0.0
H1054 H 0.40518 0.99198 0.52104 0.0
H1055 H 0.38095 0.03513 0.38847 0.0
H1056 H 0.33575 0.98685 0.45297 0.0
H1057 H 0.32306 0.95338 0.47057 0.0
H1058 H 0.32107 0.94253 0.29051 0.0
H1059 H 0.33406 0.97576 0.27223 0.0
C1060 C 0.29799 0.06713 0.25118 0.0
C1061 C 0.30078 0.0649 0.1922 0.0
C1062 C 0.31127 0.05873 0.28962 0.0
C1063 C 0.3274 0.04798 0.26945 0.0
C1064 C 0.33066 0.04644 0.21078 0.0
C1065 C 0.31757 0.05499 0.17242 0.0
C1066 C 0.33913 0.0358 0.30852 0.0
C1067 C 0.33309 0.0164 0.31702 0.0
C1068 C 0.35612 0.04287 0.33617 0.0
C1069 C 0.36243 0.06359 0.33074 0.0
C1070 C 0.36822 0.0712 0.2778 0.0
C1071 C 0.37452 0.09068 0.27342 0.0
C1072 C 0.37514 0.10266 0.32175 0.0
C1073 C 0.36946 0.09518 0.37457 0.0
C1074 C 0.36316 0.07571 0.37916 0.0
C1075 C 0.39371 0.9653 0.40276 0.0
C1076 C 0.40273 0.97009 0.45458 0.0
C1077 C 0.38064 0.97839 0.37721 0.0
C1078 C 0.37575 0.99624 0.40397 0.0
C1079 C 0.38478 1.00099 0.45614 0.0
C1080 C 0.39832 0.98808 0.48097 0.0
C1081 C 0.36191 0.01012 0.3758 0.0
C1082 C 0.36739 0.02992 0.36943 0.0
C1083 C 0.34405 0.00356 0.35107 0.0
C1084 C 0.33613 0.98361 0.36148 0.0
C1085 C 0.33282 0.97716 0.41736 0.0
C1086 C 0.32553 0.9583 0.42739 0.0
C1087 C 0.32134 0.94581 0.38168 0.0
C1088 C 0.32436 0.9522 0.32588 0.0
C1089 C 0.33166 0.97105 0.31568 0.0
H1090 H 0.3157 0.9312 0.3895 0.0
H1091 H 0.38012 0.1177 0.31833 0.0
H1092 H 0.43029 0.32634 0.12488 0.0
H1093 H 0.43781 0.3518 0.19407 0.0
H1094 H 0.42665 0.3112 0.33115 0.0
H1095 H 0.41945 0.28531 0.26129 0.0
H1096 H 0.42218 0.37104 0.27865 0.0
H1097 H 0.4609 0.32115 0.43688 0.0
H1098 H 0.47467 0.28766 0.44457 0.0
H1099 H 0.48787 0.2878 0.2659 0.0
H1100 H 0.47444 0.32136 0.25743 0.0
H1101 H 0.48407 0.44007 0.42406 0.0
H1102 H 0.46045 0.41266 0.42269 0.0
H1103 H 0.50015 0.37933 0.31653 0.0
H1104 H 0.52354 0.40631 0.31839 0.0
H1105 H 0.48209 0.35568 0.39083 0.0
H1106 H 0.46458 0.4095 0.25983 0.0
H1107 H 0.45385 0.44326 0.23753 0.0
H1108 H 0.40272 0.43573 0.34202 0.0
H1109 H 0.41332 0.40198 0.36562 0.0
C1110 C 0.42889 0.32292 0.16971 0.0
C1111 C 0.42444 0.30378 0.18763 0.0
C1112 C 0.43318 0.33754 0.20939 0.0
C1113 C 0.43304 0.33339 0.26793 0.0
C1114 C 0.42714 0.31467 0.2862 0.0
C1115 C 0.42306 0.2999 0.24631 0.0
C1116 C 0.44153 0.34807 0.30786 0.0
C1117 C 0.435 0.36761 0.30439 0.0
C1118 C 0.45818 0.34366 0.34191 0.0
C1119 C 0.46637 0.32357 0.34642 0.0
C1120 C 0.46674 0.314 0.39932 0.0
C1121 C 0.4745 0.29503 0.40381 0.0
C1122 C 0.48204 0.28557 0.3557 0.0
C1123 C 0.48195 0.2951 0.30307 0.0
C1124 C 0.47427 0.31409 0.2984 0.0
C1125 C 0.48781 0.42667 0.40157 0.0
C1126 C 0.50542 0.42531 0.37051 0.0
C1127 C 0.47436 0.41108 0.40077 0.0
C1128 C 0.4785 0.394 0.36918 0.0
C1129 C 0.49665 0.3923 0.34138 0.0
C1130 C 0.50994 0.40779 0.34192 0.0
C1131 C 0.46348 0.37869 0.35824 0.0
C1132 C 0.46866 0.35901 0.36768 0.0
C1133 C 0.44597 0.38301 0.32816 0.0
C1134 C 0.43988 0.40339 0.31515 0.0
C1135 C 0.45117 0.41514 0.27856 0.0
C1136 C 0.44512 0.43425 0.26569 0.0
C1137 C 0.42769 0.44165 0.28867 0.0
C1138 C 0.41629 0.43 0.32463 0.0
C1139 C 0.42231 0.4109 0.33779 0.0
H1140 H 0.42293 0.45632 0.27822 0.0
H1141 H 0.48801 0.27088 0.35926 0.0
H1142 H 0.23796 0.48944 0.21783 0.0
H1143 H 0.2106 0.50569 0.26505 0.0
H1144 H 0.17243 0.45764 0.21951 0.0
H1145 H 0.19998 0.44074 0.17389 0.0
H1146 H 0.16059 0.49445 0.17756 0.0
H1147 H 0.18028 0.46544 0.35421 0.0
H1148 H 0.20276 0.4566 0.43259 0.0
H1149 H 0.21304 0.51767 0.46733 0.0
H1150 H 0.1908 0.5269 0.38871 0.0
H1151 H 0.07375 0.52669 0.3131 0.0
H1152 H 0.10249 0.51024 0.27377 0.0
H1153 H 0.13988 0.55556 0.34333 0.0
H1154 H 0.11102 0.57171 0.38501 0.0
H1155 H 0.15269 0.52043 0.37353 0.0
H1156 H 0.13323 0.54972 0.19756 0.0
H1157 H 0.11088 0.55889 0.11921 0.0
H1158 H 0.10073 0.49797 0.08195 0.0
H1159 H 0.12281 0.48841 0.16061 0.0
C1160 C 0.224 0.48185 0.21977 0.0
C1161 C 0.22115 0.46383 0.19137 0.0
C1162 C 0.20832 0.49127 0.2466 0.0
C1163 C 0.18952 0.48291 0.24529 0.0
C1164 C 0.18687 0.46434 0.22056 0.0
C1165 C 0.2026 0.45478 0.1943 0.0
C1166 C 0.17233 0.49472 0.26276 0.0
C1167 C 0.15863 0.49989 0.22064 0.0
C1168 C 0.17036 0.50238 0.31838 0.0
C1169 C 0.18403 0.49686 0.36507 0.0
C1170 C 0.1875 0.47699 0.3781 0.0
C1171 C 0.20016 0.47191 0.42272 0.0
C1172 C 0.20938 0.48656 0.45477 0.0
C1173 C 0.20592 0.50633 0.44239 0.0
C1174 C 0.19327 0.5115 0.39784 0.0
C1175 C 0.08807 0.53337 0.319 0.0
C1176 C 0.09022 0.55038 0.35244 0.0
C1177 C 0.10448 0.52401 0.29622 0.0
C1178 C 0.12334 0.53168 0.30553 0.0
C1179 C 0.12543 0.54939 0.33578 0.0
C1180 C 0.10896 0.55873 0.35898 0.0
C1181 C 0.14084 0.52018 0.2883 0.0
C1182 C 0.15463 0.51507 0.33038 0.0
C1183 C 0.14299 0.51265 0.23248 0.0
C1184 C 0.12958 0.51836 0.18533 0.0
C1185 C 0.12611 0.53827 0.173 0.0
C1186 C 0.11351 0.54354 0.12845 0.0
C1187 C 0.10437 0.52903 0.09569 0.0
C1188 C 0.10782 0.5092 0.10738 0.0
C1189 C 0.12039 0.50385 0.15191 0.0
H1190 H 0.09464 0.53314 0.06116 0.0
H1191 H 0.21918 0.48261 0.48924 0.0
H1192 H 0.9582 0.82206 0.977 0.0
H1193 H 0.94975 0.84169 0.89463 0.0
H1194 H 0.95283 0.79012 0.78772 0.0
H1195 H 0.9631 0.77067 0.86944 0.0
H1196 H 0.9761 0.81516 0.7494 0.0
H1197 H 0.90859 0.82132 0.79744 0.0
H1198 H 0.88 0.82598 0.86051 0.0
H1199 H 0.90079 0.88347 0.90581 0.0
H1200 H 0.92934 0.87923 0.84305 0.0
H1201 H 0.99503 0.89123 0.56352 0.0
H1202 H 0.97094 0.86708 0.59545 0.0
H1203 H 0.97074 0.89374 0.76215 0.0
H1204 H 0.99487 0.91749 0.73143 0.0
H1205 H 0.93528 0.87544 0.73827 0.0
H1206 H 0.00638 0.8622 0.73048 0.0
H1207 H 0.03772 0.85906 0.67859 0.0
H1208 H 0.0121 0.81538 0.56923 0.0
H1209 H 0.98043 0.81867 0.61971 0.0
C1210 C 0.95687 0.81479 0.93612 0.0
C1211 C 0.96195 0.79489 0.92975 0.0
C1212 C 0.95152 0.826 0.88896 0.0
C1213 C 0.95051 0.81744 0.83455 0.0
C1214 C 0.9535 0.7971 0.82917 0.0
C1215 C 0.95931 0.78594 0.8762 0.0
C1216 C 0.95076 0.83028 0.78342 0.0
C1217 C 0.96655 0.82787 0.74556 0.0
C1218 C 0.93861 0.84712 0.77853 0.0
C1219 C 0.9211 0.84996 0.81527 0.0
C1220 C 0.90703 0.83497 0.82078 0.0
C1221 C 0.89079 0.83756 0.85643 0.0
C1222 C 0.88849 0.85505 0.88695 0.0
C1223 C 0.90241 0.87001 0.88176 0.0
C1224 C 0.91859 0.86756 0.84591 0.0
C1225 C 0.9895 0.89226 0.60655 0.0
C1226 C 0.99734 0.90602 0.64525 0.0
C1227 C 0.97553 0.87859 0.62447 0.0
C1228 C 0.96934 0.87844 0.68142 0.0
C1229 C 0.97529 0.89362 0.71795 0.0
C1230 C 0.98923 0.90722 0.70019 0.0
C1231 C 0.96099 0.86051 0.70724 0.0
C1232 C 0.94389 0.86203 0.74017 0.0
C1233 C 0.97207 0.84292 0.70858 0.0
C1234 C 0.99103 0.84086 0.67826 0.0
C1235 C 0.00741 0.85205 0.69505 0.0
C1236 C 0.02521 0.85027 0.66589 0.0
C1237 C 0.02688 0.83708 0.62053 0.0
C1238 C 0.01075 0.82567 0.60418 0.0
C1239 C 0.99286 0.82752 0.63295 0.0
H1240 H 0.04072 0.83564 0.59833 0.0
H1241 H 0.87597 0.85699 0.91476 0.0
H1242 H 0.70139 0.99829 0.98278 0.0
H1243 H 0.68085 0.00409 0.90005 0.0
H1244 H 0.72934 0.03242 0.8151 0.0
H1245 H 0.74953 0.02825 0.90009 0.0
H1246 H 0.70021 0.05406 0.80304 0.0
H1247 H 0.70826 0.98677 0.76828 0.0
H1248 H 0.7103 0.95114 0.78565 0.0
H1249 H 0.64931 0.9501 0.8321 0.0
H1250 H 0.64694 0.98576 0.81608 0.0
H1251 H 0.61905 0.06163 0.59117 0.0
H1252 H 0.65089 0.05035 0.62833 0.0
H1253 H 0.62504 0.04224 0.79394 0.0
H1254 H 0.59365 0.05442 0.7586 0.0
H1255 H 0.6491 0.00801 0.73355 0.0
H1256 H 0.64811 0.07849 0.79351 0.0
H1257 H 0.64705 0.11368 0.76872 0.0
H1258 H 0.69724 0.10621 0.66015 0.0
H1259 H 0.6984 0.0709 0.68384 0.0
C1260 C 0.70773 0.00583 0.94668 0.0
C1261 C 0.72706 0.01306 0.9487 0.0
C1262 C 0.69605 0.00875 0.89865 0.0
C1263 C 0.70359 0.01843 0.85066 0.0
C1264 C 0.72319 0.02484 0.85144 0.0
C1265 C 0.73479 0.02228 0.90004 0.0
C1266 C 0.69019 0.02392 0.80328 0.0
C1267 C 0.68945 0.04374 0.78664 0.0
C1268 C 0.67616 0.01057 0.78093 0.0
C1269 C 0.67747 0.98904 0.79114 0.0
C1270 C 0.69531 0.97899 0.78264 0.0
C1271 C 0.69652 0.95876 0.7922 0.0
C1272 C 0.67995 0.94836 0.81002 0.0
C1273 C 0.66213 0.95817 0.81827 0.0
C1274 C 0.66084 0.9784 0.80886 0.0
C1275 C 0.62024 0.05782 0.63576 0.0
C1276 C 0.60373 0.05877 0.67182 0.0
C1277 C 0.63836 0.05121 0.65663 0.0
C1278 C 0.64009 0.04532 0.71351 0.0
C1279 C 0.62381 0.04652 0.74966 0.0
C1280 C 0.60588 0.05341 0.72928 0.0
C1281 C 0.65878 0.03797 0.73682 0.0
C1282 C 0.66043 0.0179 0.7486 0.0
C1283 C 0.67387 0.0509 0.75359 0.0
C1284 C 0.67318 0.07208 0.73981 0.0
C1285 C 0.65879 0.08433 0.76394 0.0
C1286 C 0.6582 0.1043 0.7502 0.0
C1287 C 0.67203 0.11217 0.71272 0.0
C1288 C 0.68651 0.10009 0.68906 0.0
C1289 C 0.68714 0.08011 0.70263 0.0
H1290 H 0.67155 0.12763 0.70214 0.0
H1291 H 0.68092 0.9327 0.81737 0.0
H1292 H 0.532 0.71585 0.90154 0.0
H1293 H 0.54021 0.68697 0.84497 0.0
H1294 H 0.59106 0.67653 0.95081 0.0
H1295 H 0.58266 0.70536 0.00844 0.0
H1296 H 0.56914 0.66826 0.78521 0.0
H1297 H 0.58948 0.62875 0.99078 0.0
H1298 H 0.58678 0.6331 0.09489 0.0
H1299 H 0.53354 0.66619 0.07244 0.0
H1300 H 0.53577 0.66174 0.9684 0.0
H1301 H 0.55628 0.55348 0.84163 0.0
H1302 H 0.57444 0.5841 0.85247 0.0
H1303 H 0.52859 0.61503 0.76236 0.0
H1304 H 0.51042 0.58458 0.75108 0.0
H1305 H 0.5596 0.61183 0.91539 0.0
H1306 H 0.54551 0.65967 0.71071 0.0
H1307 H 0.5466 0.65617 0.60668 0.0
H1308 H 0.58302 0.60496 0.62276 0.0
H1309 H 0.58303 0.60864 0.72711 0.0
C1310 C 0.54536 0.70787 0.91146 0.0
C1311 C 0.55648 0.71259 0.96004 0.0
C1312 C 0.55008 0.69136 0.87894 0.0
C1313 C 0.56599 0.67937 0.89448 0.0
C1314 C 0.57853 0.68544 0.9387 0.0
C1315 C 0.57369 0.70184 0.97168 0.0
C1316 C 0.56681 0.659 0.87232 0.0
C1317 C 0.56714 0.6558 0.81329 0.0
C1318 C 0.56473 0.64278 0.90939 0.0
C1319 C 0.56298 0.64515 0.97192 0.0
C1320 C 0.57719 0.63689 0.00817 0.0
C1321 C 0.57572 0.63937 0.06712 0.0
C1322 C 0.56004 0.64999 0.09024 0.0
C1323 C 0.54571 0.65802 0.05449 0.0
C1324 C 0.54706 0.65551 0.99556 0.0
C1325 C 0.55024 0.56669 0.82293 0.0
C1326 C 0.53174 0.56652 0.79596 0.0
C1327 C 0.56074 0.58418 0.82884 0.0
C1328 C 0.55293 0.60187 0.80813 0.0
C1329 C 0.53514 0.60153 0.77774 0.0
C1330 C 0.52469 0.58403 0.77152 0.0
C1331 C 0.56109 0.62093 0.82759 0.0
C1332 C 0.56234 0.62396 0.88659 0.0
C1333 C 0.56422 0.63693 0.79017 0.0
C1334 C 0.56418 0.6344 0.7272 0.0
C1335 C 0.55391 0.64773 0.69228 0.0
C1336 C 0.55433 0.64572 0.63311 0.0
C1337 C 0.56479 0.63032 0.60808 0.0
C1338 C 0.57489 0.61688 0.64223 0.0
C1339 C 0.57473 0.61895 0.70148 0.0
H1340 H 0.56512 0.62887 0.56221 0.0
H1341 H 0.55897 0.65194 0.13587 0.0
H1342 H 0.79555 0.55217 0.06054 0.0
H1343 H 0.82251 0.5527 0.99278 0.0
H1344 H 0.78649 0.52204 0.86999 0.0
H1345 H 0.75959 0.52098 0.93878 0.0
H1346 H 0.81606 0.50046 0.90155 0.0
H1347 H 0.81079 0.56532 0.83407 0.0
H1348 H 0.80604 0.6012 0.83688 0.0
H1349 H 0.85819 0.60751 0.93851 0.0
H1350 H 0.86312 0.57166 0.93717 0.0
H1351 H 0.90781 0.47626 0.7803 0.0
H1352 H 0.87488 0.48961 0.79152 0.0
H1353 H 0.89501 0.52587 0.93048 0.0
H1354 H 0.92825 0.51334 0.91805 0.0
H1355 H 0.87091 0.54637 0.86269 0.0
H1356 H 0.86977 0.48177 0.95138 0.0
H1357 H 0.87435 0.44581 0.9525 0.0
H1358 H 0.83353 0.43977 0.81387 0.0
H1359 H 0.82885 0.47574 0.81166 0.0
C1360 C 0.79315 0.54624 0.01825 0.0
C1361 C 0.77576 0.53608 0.00525 0.0
C1362 C 0.80851 0.54674 0.97919 0.0
C1363 C 0.80661 0.5372 0.92644 0.0
C1364 C 0.78827 0.52942 0.91058 0.0
C1365 C 0.77289 0.52885 0.94985 0.0
C1366 C 0.82466 0.53092 0.89634 0.0
C1367 C 0.82781 0.51061 0.8912 0.0
C1368 C 0.84018 0.54407 0.88435 0.0
C1369 C 0.83728 0.56571 0.88563 0.0
C1370 C 0.82118 0.57432 0.85742 0.0
C1371 C 0.81847 0.59468 0.85868 0.0
C1372 C 0.8318 0.60663 0.88788 0.0
C1373 C 0.84788 0.59824 0.91585 0.0
C1374 C 0.85066 0.57789 0.91475 0.0
C1375 C 0.90543 0.48738 0.81254 0.0
C1376 C 0.92097 0.4941 0.84709 0.0
C1377 C 0.8865 0.49484 0.81922 0.0
C1378 C 0.88253 0.50882 0.86148 0.0
C1379 C 0.89781 0.51526 0.89702 0.0
C1380 C 0.91682 0.50789 0.89016 0.0
C1381 C 0.86227 0.51608 0.87048 0.0
C1382 C 0.85885 0.53643 0.87152 0.0
C1383 C 0.84644 0.50302 0.87931 0.0
C1384 C 0.84912 0.48141 0.88099 0.0
C1385 C 0.86186 0.47277 0.92097 0.0
C1386 C 0.86446 0.4524 0.92183 0.0
C1387 C 0.85428 0.44052 0.88318 0.0
C1388 C 0.84142 0.44899 0.84373 0.0
C1389 C 0.83878 0.46936 0.84269 0.0
H1390 H 0.85632 0.42475 0.88389 0.0
H1391 H 0.82967 0.62238 0.88879 0.0
H1392 H 0.03696 0.2171 0.80926 0.0
H1393 H 0.03295 0.18698 0.75328 0.0
H1394 H 0.0315 0.15304 0.908 0.0
H1395 H 0.03604 0.1829 0.96394 0.0
H1396 H 0.05603 0.13678 0.83335 0.0
H1397 H 0.98917 0.16383 0.82135 0.0
H1398 H 0.96511 0.1893 0.79401 0.0
H1399 H 0.98439 0.18569 0.62032 0.0
H1400 H 0.0087 0.16035 0.64677 0.0
H1401 H 0.98442 0.05841 0.72877 0.0
H1402 H 0.99552 0.08973 0.76812 0.0
H1403 H 0.04724 0.08718 0.6626 0.0
H1404 H 0.03651 0.05521 0.62483 0.0
H1405 H 1.00203 0.12359 0.69686 0.0
H1406 H 0.07297 0.10408 0.70823 0.0
H1407 H 0.10278 0.08596 0.73667 0.0
H1408 H 0.07983 0.07938 0.90569 0.0
H1409 H 0.04956 0.09689 0.87744 0.0
C1410 C 0.03576 0.20323 0.83146 0.0
C1411 C 0.03681 0.20258 0.89143 0.0
C1412 C 0.03332 0.18596 0.79926 0.0
C1413 C 0.03185 0.16758 0.82616 0.0
C1414 C 0.03259 0.16696 0.88597 0.0
C1415 C 0.03498 0.18416 0.9181 0.0
C1416 C 0.03033 0.14879 0.79291 0.0
C1417 C 0.04412 0.1339 0.80368 0.0
C1418 C 0.01548 0.1452 0.75183 0.0
C1419 C 1.00084 0.16035 0.73614 0.0
C1420 C 0.98835 0.16857 0.77742 0.0
C1421 C 0.97466 0.18296 0.76206 0.0
C1422 C 0.97326 0.18915 0.70549 0.0
C1423 C 0.98551 0.18091 0.66412 0.0
C1424 C 0.99922 0.16653 0.67926 0.0
C1425 C 0.9984 0.06429 0.71489 0.0
C1426 C 0.00964 0.05423 0.67403 0.0
C1427 C 0.00476 0.08224 0.73744 0.0
C1428 C 0.02243 0.09086 0.71933 0.0
C1429 C 0.03392 0.08069 0.67902 0.0
C1430 C 0.02768 0.06244 0.65699 0.0
C1431 C 0.02727 0.11123 0.73932 0.0
C1432 C 0.01404 0.1265 0.72612 0.0
C1433 C 0.04299 0.1154 0.77699 0.0
C1434 C 0.05875 0.10121 0.79017 0.0
C1435 C 0.07393 0.09808 0.75074 0.0
C1436 C 0.09105 0.08819 0.76707 0.0
C1437 C 0.09329 0.08172 0.82311 0.0
C1438 C 0.07813 0.08451 0.86239 0.0
C1439 C 0.06089 0.09417 0.84602 0.0
H1440 H 0.10667 0.07433 0.83593 0.0
H1441 H 0.96265 0.20029 0.6937 0.0
H1442 H 0.31899 0.02823 0.93199 0.0
H1443 H 0.3494 0.02045 0.88182 0.0
H1444 H 0.32056 0.03097 0.72111 0.0
H1445 H 0.28979 0.03789 0.77089 0.0
H1446 H 0.34433 1.00046 0.71126 0.0
H1447 H 0.351 0.06554 0.788 0.0
H1448 H 0.35145 0.09107 0.86258 0.0
H1449 H 0.39823 0.06079 0.94873 0.0
H1450 H 0.39785 0.0349 0.87511 0.0
H1451 H 0.43078 0.02552 0.54546 0.0
H1452 H 0.3997 0.02752 0.59845 0.0
H1453 H 0.42712 0.99902 0.74179 0.0
H1454 H 0.45788 0.99602 0.68775 0.0
H1455 H 0.40472 0.03671 0.76403 0.0
H1456 H 0.39983 0.97333 0.68368 0.0
H1457 H 0.398 0.94619 0.61454 0.0
H1458 H 0.34753 0.97274 0.53663 0.0
H1459 H 0.34962 1.00066 0.60312 0.0
C1460 C 0.31891 0.0285 0.88591 0.0
C1461 C 0.30176 0.0338 0.85576 0.0
C1462 C 0.33648 0.0243 0.85719 0.0
C1463 C 0.33753 0.02549 0.7975 0.0
C1464 C 0.32029 0.03007 0.76714 0.0
C1465 C 0.30267 0.03419 0.79582 0.0
C1466 C 0.3566 0.02241 0.76682 0.0
C1467 C 0.35745 0.00871 0.722 0.0
C1468 C 0.37401 0.03262 0.78197 0.0
C1469 C 0.3742 0.04813 0.82645 0.0
C1470 C 0.36125 0.06421 0.82315 0.0
C1471 C 0.36152 0.07877 0.8652 0.0
C1472 C 0.37481 0.07751 0.91049 0.0
C1473 C 0.3879 0.06172 0.91372 0.0
C1474 C 0.38766 0.0471 0.87185 0.0
C1475 C 0.43017 0.01974 0.58836 0.0
C1476 C 0.44697 0.01126 0.61321 0.0
C1477 C 0.41239 0.02082 0.6185 0.0
C1478 C 0.41105 0.01348 0.67423 0.0
C1479 C 0.42779 0.00485 0.69897 0.0
C1480 C 0.44542 0.00334 0.6683 0.0
C1481 C 0.39235 0.01536 0.70709 0.0
C1482 C 0.3916 0.02873 0.75253 0.0
C1483 C 0.37507 0.00496 0.69217 0.0
C1484 C 0.37508 0.98931 0.64806 0.0
C1485 C 0.38871 0.97376 0.6507 0.0
C1486 C 0.38756 0.95817 0.61202 0.0
C1487 C 0.37266 0.9578 0.57104 0.0
C1488 C 0.35913 0.97318 0.56796 0.0
C1489 C 0.36036 0.98893 0.60596 0.0
H1490 H 0.37149 0.94555 0.54184 0.0
H1491 H 0.375 0.0888 0.94297 0.0
H1492 H 0.44283 0.30319 0.79074 0.0
H1493 H 0.45309 0.33083 0.73212 0.0
H1494 H 0.51072 0.32896 0.80879 0.0
H1495 H 0.50053 0.30115 0.86777 0.0
H1496 H 0.49769 0.36559 0.80589 0.0
H1497 H 0.50211 0.31355 0.66914 0.0
H1498 H 0.4908 0.28503 0.61315 0.0
H1499 H 0.44447 0.31986 0.54055 0.0
H1500 H 0.45534 0.34853 0.59666 0.0
H1501 H 0.5368 0.43783 0.62548 0.0
H1502 H 0.53188 0.40489 0.66411 0.0
H1503 H 0.47178 0.40558 0.60533 0.0
H1504 H 0.47674 0.43839 0.56546 0.0
H1505 H 0.48832 0.36866 0.59652 0.0
H1506 H 0.48201 0.41952 0.73768 0.0
H1507 H 0.4936 0.44883 0.78965 0.0
H1508 H 0.54323 0.41635 0.85251 0.0
H1509 H 0.53211 0.38693 0.79996 0.0
C1510 C 0.45783 0.30834 0.79445 0.0
C1511 C 0.47087 0.29976 0.83392 0.0
C1512 C 0.46369 0.32424 0.76082 0.0
C1513 C 0.48279 0.33192 0.76531 0.0
C1514 C 0.4959 0.32333 0.80439 0.0
C1515 C 0.49004 0.30743 0.83822 0.0
C1516 C 0.48871 0.34945 0.7312 0.0
C1517 C 0.49597 0.36606 0.75999 0.0
C1518 C 0.48605 0.35039 0.67131 0.0
C1519 C 0.47943 0.33315 0.63761 0.0
C1520 C 0.48941 0.31509 0.64162 0.0
C1521 C 0.4831 0.2989 0.60976 0.0
C1522 C 0.46689 0.30062 0.57346 0.0
C1523 C 0.45701 0.31855 0.56876 0.0
C1524 C 0.46325 0.33477 0.60054 0.0
C1525 C 0.52268 0.43082 0.61949 0.0
C1526 C 0.50703 0.44092 0.59354 0.0
C1527 C 0.51985 0.41199 0.64192 0.0
C1528 C 0.50133 0.40292 0.63881 0.0
C1529 C 0.48616 0.41232 0.6087 0.0
C1530 C 0.48898 0.43114 0.58626 0.0
C1531 C 0.49724 0.38461 0.67131 0.0
C1532 C 0.49022 0.36799 0.64234 0.0
C1533 C 0.50002 0.38365 0.73103 0.0
C1534 C 0.50633 0.40108 0.76446 0.0
C1535 C 0.49544 0.41866 0.7624 0.0
C1536 C 0.50193 0.43529 0.79191 0.0
C1537 C 0.51917 0.43447 0.82425 0.0
C1538 C 0.52989 0.41697 0.82737 0.0
C1539 C 0.5235 0.40031 0.79774 0.0
H1540 H 0.5242 0.44737 0.84696 0.0
H1541 H 0.46201 0.28807 0.54891 0.0
H1542 H 0.21339 0.45163 0.82585 0.0
H1543 H 0.18194 0.45666 0.77838 0.0
H1544 H 0.18409 0.51831 0.81995 0.0
H1545 H 0.21589 0.51347 0.8671 0.0
H1546 H 0.14857 0.50391 0.84307 0.0
H1547 H 0.19105 0.5019 0.68175 0.0
H1548 H 0.21663 0.4891 0.61729 0.0
H1549 H 0.18279 0.43673 0.58979 0.0
H1550 H 0.15709 0.44912 0.65456 0.0
H1551 H 0.06644 0.52914 0.66883 0.0
H1552 H 0.09976 0.52671 0.70721 0.0
H1553 H 0.09915 0.4641 0.67934 0.0
H1554 H 0.06588 0.46647 0.63991 0.0
H1555 H 0.13422 0.48047 0.64728 0.0
H1556 H 0.09184 0.48292 0.81045 0.0
H1557 H 0.06575 0.49695 0.87087 0.0
H1558 H 0.09954 0.54967 0.89275 0.0
H1559 H 0.1257 0.53609 0.83153 0.0
C1560 C 0.20751 0.4664 0.82393 0.0
C1561 C 0.21748 0.48217 0.85014 0.0
C1562 C 0.18936 0.46923 0.7968 0.0
C1563 C 0.1806 0.48792 0.79483 0.0
C1564 C 0.19048 0.50373 0.82077 0.0
C1565 C 0.2087 0.50092 0.8479 0.0
C1566 C 0.16084 0.49068 0.76768 0.0
C1567 C 0.14556 0.49907 0.7999 0.0
C1568 C 0.15663 0.48403 0.71169 0.0
C1569 C 0.17223 0.47636 0.67353 0.0
C1570 C 0.18915 0.48756 0.66243 0.0
C1571 C 0.20365 0.4804 0.62571 0.0
C1572 C 0.20137 0.46208 0.59964 0.0
C1573 C 0.18456 0.4509 0.61011 0.0
C1574 C 0.17001 0.458 0.64677 0.0
C1575 C 0.07337 0.51485 0.67048 0.0
C1576 C 0.06328 0.49797 0.65183 0.0
C1577 C 0.09245 0.51347 0.69282 0.0
C1578 C 0.10196 0.49518 0.69699 0.0
C1579 C 0.09214 0.47837 0.67692 0.0
C1580 C 0.07302 0.47974 0.65478 0.0
C1581 C 0.12202 0.49356 0.72278 0.0
C1582 C 0.1373 0.48537 0.69035 0.0
C1583 C 0.12625 0.50048 0.77843 0.0
C1584 C 0.11065 0.50856 0.81589 0.0
C1585 C 0.09365 0.49757 0.82777 0.0
C1586 C 0.07885 0.50543 0.8622 0.0
C1587 C 0.08096 0.52421 0.88551 0.0
C1588 C 0.09791 0.53514 0.87458 0.0
C1589 C 0.11273 0.52736 0.84002 0.0
H1590 H 0.06949 0.53028 0.91214 0.0
H1591 H 0.2126 0.45656 0.57121 0.0
H1592 H 0.03134 0.8205 0.27254 0.0
H1593 H 0.03032 0.85096 0.32702 0.0
H1594 H 0.97369 0.83488 0.3946 0.0
H1595 H 0.9745 0.80434 0.33901 0.0
H1596 H 0.97229 0.8712 0.3658 0.0
H1597 H 0.01747 0.83452 0.4745 0.0
H1598 H 0.04633 0.81382 0.49531 0.0
H1599 H 0.0847 0.86002 0.44019 0.0
H1600 H 0.05606 0.88084 0.41767 0.0
H1601 H 0.98265 0.95587 0.56265 0.0
H1602 H 0.97666 0.92332 0.52076 0.0
H1603 H 0.02763 0.93026 0.41395 0.0
H1604 H 0.03373 0.9625 0.45609 0.0
H1605 H 0.02902 0.89654 0.47603 0.0
H1606 H 0.97558 0.9151 0.31599 0.0
H1607 H 0.94362 0.92948 0.28836 0.0
H1608 H 0.92018 0.91564 0.45306 0.0
H1609 H 0.95185 0.90063 0.4808 0.0
C1610 C 0.0188 0.8232 0.2998 0.0
C1611 C 0.00308 0.80976 0.30163 0.0
C1612 C 0.01824 0.84072 0.33112 0.0
C1613 C 1.00207 0.84527 0.36601 0.0
C1614 C 0.98638 0.83182 0.36825 0.0
C1615 C 0.98685 0.81432 0.33639 0.0
C1616 C 1.00124 0.86446 0.39754 0.0
C1617 C 0.98461 0.8765 0.39089 0.0
C1618 C 0.01721 0.87165 0.43042 0.0
C1619 C 0.03455 0.8592 0.44395 0.0
C1620 C 0.03205 0.84021 0.46627 0.0
C1621 C 0.04838 0.82844 0.47832 0.0
C1622 C 0.06734 0.83558 0.46898 0.0
C1623 C 0.07 0.8545 0.44742 0.0
C1624 C 0.05371 0.86629 0.43495 0.0
C1625 C 0.99217 0.95069 0.52892 0.0
C1626 C 0.00857 0.96186 0.51222 0.0
C1627 C 0.9887 0.93203 0.50474 0.0
C1628 C 1.00155 0.92423 0.46344 0.0
C1629 C 0.01743 0.93584 0.44545 0.0
C1630 C 0.0209 0.95432 0.46954 0.0
C1631 C 1.00024 0.90334 0.44336 0.0
C1632 C 0.01659 0.891 0.45194 0.0
C1633 C 0.98388 0.89567 0.41349 0.0
C1634 C 0.96617 0.90737 0.40099 0.0
C1635 C 0.9637 0.91551 0.34658 0.0
C1636 C 0.94556 0.92344 0.33057 0.0
C1637 C 0.92987 0.92343 0.36889 0.0
C1638 C 0.93235 0.91565 0.42347 0.0
C1639 C 0.95039 0.90745 0.43936 0.0
H1640 H 0.91581 0.9295 0.35632 0.0
H1641 H 0.07996 0.82647 0.47853 0.0
H1642 H 0.69215 0.97168 0.26438 0.0
H1643 H 0.66015 0.97034 0.3103 0.0
H1644 H 0.6807 0.00985 0.44116 0.0
H1645 H 0.71329 0.00963 0.39905 0.0
H1646 H 0.65688 0.98764 0.48857 0.0
H1647 H 0.65213 0.02422 0.31467 0.0
H1648 H 0.65502 0.03003 0.21141 0.0
H1649 H 0.6152 0.98246 0.17812 0.0
H1650 H 0.61227 0.97621 0.28122 0.0
H1651 H 0.54892 0.03 0.45189 0.0
H1652 H 0.58205 0.02398 0.4169 0.0
H1653 H 0.58867 0.97674 0.53824 0.0
H1654 H 0.55662 0.98511 0.57878 0.0
H1655 H 0.59915 0.99992 0.3647 0.0
H1656 H 0.63741 0.96257 0.55403 0.0
H1657 H 0.63396 0.95969 0.65815 0.0
H1658 H 0.60681 0.01651 0.66494 0.0
H1659 H 0.61113 0.02034 0.56125 0.0
C1660 C 0.69017 0.97969 0.30377 0.0
C1661 C 0.70556 0.99108 0.32695 0.0
C1662 C 0.67158 0.9792 0.32961 0.0
C1663 C 0.66755 0.99056 0.37839 0.0
C1664 C 0.68312 1.00111 0.40323 0.0
C1665 C 0.70184 1.00121 0.37831 0.0
C1666 C 0.6471 0.99215 0.40235 0.0
C1667 C 0.64427 0.99047 0.46147 0.0
C1668 C 0.63045 0.9959 0.36756 0.0
C1669 C 0.63218 0.9996 0.30558 0.0
C1670 C 0.6441 0.01492 0.28529 0.0
C1671 C 0.64573 0.0183 0.22681 0.0
C1672 C 0.63535 0.00658 0.18822 0.0
C1673 C 0.62327 0.99149 0.20806 0.0
C1674 C 0.62162 0.98802 0.2665 0.0
C1675 C 0.55754 0.01836 0.4711 0.0
C1676 C 0.54986 0.00744 0.51642 0.0
C1677 C 0.57655 0.01478 0.45086 0.0
C1678 C 0.58841 0.99989 0.47464 0.0
C1679 C 0.5805 0.98879 0.5198 0.0
C1680 C 0.56182 0.99313 0.54204 0.0
C1681 C 0.60883 0.99637 0.45163 0.0
C1682 C 0.61169 0.99738 0.39232 0.0
C1683 C 0.62558 0.99281 0.48667 0.0
C1684 C 0.62433 0.9916 0.54966 0.0
C1685 C 0.63099 0.97462 0.57783 0.0
C1686 C 0.62894 0.97286 0.63679 0.0
C1687 C 0.62015 0.98794 0.66807 0.0
C1688 C 0.61377 0.00497 0.64062 0.0
C1689 C 0.61614 0.00701 0.58181 0.0
H1690 H 0.61831 0.98644 0.71361 0.0
H1691 H 0.63663 0.00922 0.14297 0.0
H1692 H 0.49173 0.7152 0.37946 0.0
H1693 H 0.49392 0.68592 0.43882 0.0
H1694 H 0.55169 0.67376 0.37195 0.0
H1695 H 0.54918 0.70253 0.31032 0.0
H1696 H 0.53129 0.64201 0.36756 0.0
H1697 H 0.5435 0.68854 0.51352 0.0
H1698 H 0.53874 0.71786 0.57367 0.0
H1699 H 0.48323 0.69536 0.63057 0.0
H1700 H 0.48752 0.66601 0.5701 0.0
H1701 H 0.54958 0.56407 0.56393 0.0
H1702 H 0.55161 0.59742 0.52653 0.0
H1703 H 0.48852 0.60247 0.53347 0.0
H1704 H 0.48624 0.5685 0.56651 0.0
H1705 H 0.51349 0.6378 0.57187 0.0
H1706 H 0.50236 0.59141 0.419 0.0
H1707 H 0.50965 0.56171 0.36278 0.0
H1708 H 0.56655 0.58472 0.32106 0.0
H1709 H 0.55988 0.61427 0.37893 0.0
C1710 C 0.50498 0.70639 0.37758 0.0
C1711 C 0.52022 0.71124 0.33963 0.0
C1712 C 0.5063 0.68971 0.41214 0.0
C1713 C 0.52302 0.67756 0.41032 0.0
C1714 C 0.53861 0.68283 0.37425 0.0
C1715 C 0.53725 0.69947 0.3394 0.0
C1716 C 0.52353 0.65863 0.44249 0.0
C1717 C 0.52778 0.64124 0.41252 0.0
C1718 C 0.51859 0.65738 0.50103 0.0
C1719 C 0.51573 0.67518 0.53667 0.0
C1720 C 0.53016 0.68995 0.5383 0.0
C1721 C 0.52758 0.70655 0.57262 0.0
C1722 C 0.51067 0.7085 0.60578 0.0
C1723 C 0.49631 0.69384 0.60477 0.0
C1724 C 0.49882 0.67721 0.57052 0.0
C1725 C 0.53608 0.5721 0.55672 0.0
C1726 C 0.51769 0.56307 0.56478 0.0
C1727 C 0.53731 0.59134 0.53635 0.0
C1728 C 0.52019 0.60231 0.5264 0.0
C1729 C 0.5019 0.59415 0.54031 0.0
C1730 C 0.50063 0.57465 0.55892 0.0
C1731 C 0.52127 0.62152 0.49678 0.0
C1732 C 0.5172 0.63881 0.52708 0.0
C1733 C 0.52669 0.62275 0.4388 0.0
C1734 C 0.53074 0.60493 0.40416 0.0
C1735 C 0.51656 0.59001 0.39871 0.0
C1736 C 0.52057 0.57321 0.36642 0.0
C1737 C 0.53858 0.5713 0.33849 0.0
C1738 C 0.55261 0.58621 0.34277 0.0
C1739 C 0.54876 0.60294 0.37554 0.0
H1740 H 0.54164 0.5583 0.31344 0.0
H1741 H 0.5087 0.72135 0.63237 0.0
H1742 H 0.78882 0.54925 0.38077 0.0
H1743 H 0.82183 0.54942 0.42266 0.0
H1744 H 0.82472 0.48642 0.40688 0.0
H1745 H 0.79222 0.48608 0.36351 0.0
H1746 H 0.83848 0.49868 0.51034 0.0
H1747 H 0.84813 0.51572 0.31306 0.0
H1748 H 0.84296 0.53542 0.22632 0.0
H1749 H 0.86452 0.58673 0.31266 0.0
H1750 H 0.86955 0.56737 0.40023 0.0
H1751 H 0.93987 0.47857 0.5388 0.0
H1752 H 0.90638 0.48209 0.50323 0.0
H1753 H 0.91093 0.54505 0.5179 0.0
H1754 H 0.94457 0.54163 0.5537 0.0
H1755 H 0.89296 0.53528 0.41911 0.0
H1756 H 0.88575 0.51864 0.61317 0.0
H1757 H 0.89195 0.49963 0.69992 0.0
H1758 H 0.86502 0.4489 0.62388 0.0
H1759 H 0.8594 0.46749 0.53524 0.0
C1760 C 0.79644 0.5354 0.38592 0.0
C1761 C 0.78755 0.51765 0.36862 0.0
C1762 C 0.81538 0.53554 0.4101 0.0
C1763 C 0.82592 0.51794 0.41772 0.0
C1764 C 0.81693 0.5002 0.40183 0.0
C1765 C 0.79813 0.50006 0.37733 0.0
C1766 C 0.84639 0.51782 0.44132 0.0
C1767 C 0.85041 0.50653 0.49 0.0
C1768 C 0.86196 0.52852 0.41601 0.0
C1769 C 0.85899 0.54015 0.36339 0.0
C1770 C 0.8516 0.53124 0.3137 0.0
C1771 C 0.84873 0.54233 0.26436 0.0
C1772 C 0.85335 0.56233 0.26403 0.0
C1773 C 0.86091 0.57125 0.31301 0.0
C1774 C 0.86378 0.56022 0.36251 0.0
C1775 C 0.93387 0.49319 0.53458 0.0
C1776 C 0.94522 0.50979 0.54864 0.0
C1777 C 0.91458 0.49519 0.51421 0.0
C1778 C 0.90594 0.51385 0.5079 0.0
C1779 C 0.9172 0.53048 0.52193 0.0
C1780 C 0.93651 0.52848 0.54244 0.0
C1781 C 0.88511 0.51586 0.48762 0.0
C1782 C 0.88102 0.52751 0.43966 0.0
C1783 C 0.86941 0.50561 0.51382 0.0
C1784 C 0.87234 0.49442 0.56731 0.0
C1785 C 0.8813 0.50338 0.61468 0.0
C1786 C 0.88471 0.49265 0.66429 0.0
C1787 C 0.87883 0.47303 0.66767 0.0
C1788 C 0.86957 0.4641 0.62122 0.0
C1789 C 0.86633 0.47471 0.57116 0.0
H1790 H 0.88143 0.46474 0.70623 0.0
H1791 H 0.85113 0.57089 0.22578 0.0
loop_
_geom_bond_atom_site_label_1
_geom_bond_atom_site_label_2
_geom_bond_distance
_geom_bond_site_symmetry_2
_ccdc_geom_bond_type
P0 O11 1.490 . S
P0 C14 1.812 . S
P0 C20 1.803 . S
P0 C26 1.819 . S
H1 C15 0.941 . S
H2 C16 0.939 . S
H3 C18 0.940 . S
H4 C19 0.940 . S
H5 C21 0.939 . S
H6 C22 0.942 . S
H7 C24 0.940 . S
H8 C25 0.939 . S
H9 C27 0.941 . S
H10 C31 0.939 . S
O11 P0 1.490 . S
H12 C28 0.939 . S
H13 C30 0.930 1_556 S
C14 P0 1.812 . S
C14 C15 1.389 . S
C14 C19 1.391 . S
C15 H1 0.941 . S
C15 C14 1.389 . S
C15 C16 1.397 . S
C16 H2 0.939 . S
C16 C15 1.397 . S
C16 C17 1.378 . S
C17 C16 1.378 . S
C17 C18 1.378 . S
C18 H3 0.940 . S
C18 C17 1.378 . S
C18 C19 1.396 . S
C19 H4 0.940 . S
C19 C14 1.391 . S
C19 C18 1.396 . S
C20 P0 1.803 . S
C20 C21 1.378 . S
C20 C25 1.400 . S
C21 H5 0.939 . S
C21 C20 1.378 . S
C21 C22 1.361 . S
C22 H6 0.942 . S
C22 C21 1.361 . S
C22 C23 1.369 . S
C23 C22 1.369 . S
C23 C24 1.404 . S
C24 H7 0.940 . S
C24 C23 1.404 . S
C24 C25 1.389 . S
C25 H8 0.939 . S
C25 C20 1.400 . S
C25 C24 1.389 . S
C26 P0 1.819 . S
C26 C27 1.391 . S
C26 C31 1.391 . S
C27 H9 0.941 . S
C27 C26 1.391 . S
C27 C28 1.396 . S
C28 H12 0.939 . S
C28 C27 1.396 . S
C28 C29 1.397 . S
C29 C28 1.397 . S
C29 C30 1.385 . S
C30 H13 0.930 1_554 S
C30 C29 1.385 . S
C30 C31 1.388 . S
C31 H10 0.939 . S
C31 C26 1.391 . S
C31 C30 1.388 . S
P32 O43 1.490 . S
P32 C46 1.812 . S
P32 C52 1.803 . S
P32 C58 1.819 . S
H33 C47 0.941 . S
H34 C48 0.939 . S
H35 C50 0.940 . S
H36 C51 0.940 . S
H37 C53 0.939 . S
H38 C54 0.942 . S
H39 C56 0.940 . S
H40 C57 0.939 . S
H41 C59 0.941 . S
H42 C63 0.939 . S
O43 P32 1.490 . S
H44 C60 0.939 . S
H45 C62 0.940 . S
C46 P32 1.812 . S
C46 C47 1.389 . S
C46 C51 1.391 . S
C47 H33 0.941 . S
C47 C46 1.389 . S
C47 C48 1.397 . S
C48 H34 0.939 . S
C48 C47 1.397 . S
C48 C49 1.378 . S
C49 C48 1.378 . S
C49 C50 1.378 . S
C50 H35 0.940 . S
C50 C49 1.378 . S
C50 C51 1.396 . S
C51 H36 0.940 . S
C51 C46 1.391 . S
C51 C50 1.396 . S
C52 P32 1.803 . S
C52 C53 1.378 . S
C52 C57 1.400 . S
C53 H37 0.939 . S
C53 C52 1.378 . S
C53 C54 1.361 . S
C54 H38 0.942 . S
C54 C53 1.361 . S
C54 C55 1.369 . S
C55 C54 1.369 . S
C55 C56 1.404 . S
C56 H39 0.940 . S
C56 C55 1.404 . S
C56 C57 1.389 . S
C57 H40 0.939 . S
C57 C52 1.400 . S
C57 C56 1.389 . S
C58 P32 1.819 . S
C58 C59 1.391 . S
C58 C63 1.391 . S
C59 H41 0.941 . S
C59 C58 1.391 . S
C59 C60 1.396 . S
C60 H44 0.939 . S
C60 C59 1.396 . S
C60 C61 1.397 . S
C61 C60 1.397 . S
C61 C62 1.385 . S
C62 H45 0.940 . S
C62 C61 1.385 . S
C62 C63 1.388 . S
C63 H42 0.939 . S
C63 C58 1.391 . S
C63 C62 1.388 . S
P64 O75 1.490 . S
P64 C78 1.812 . S
P64 C84 1.803 . S
P64 C90 1.819 . S
H65 C79 0.941 . S
H66 C80 0.939 . S
H67 C82 0.940 . S
H68 C83 0.940 . S
H69 C85 0.939 . S
H70 C86 0.942 . S
H71 C88 0.940 . S
H72 C89 0.939 . S
H73 C91 0.941 . S
H74 C95 0.939 . S
O75 P64 1.490 . S
H76 C92 0.939 . S
H77 C94 0.940 . S
C78 P64 1.812 . S
C78 C79 1.389 . S
C78 C83 1.391 . S
C79 H65 0.941 . S
C79 C78 1.389 . S
C79 C80 1.397 . S
C80 H66 0.939 . S
C80 C79 1.397 . S
C80 C81 1.378 . S
C81 C80 1.378 . S
C81 C82 1.378 . S
C82 H67 0.940 . S
C82 C81 1.378 . S
C82 C83 1.396 . S
C83 H68 0.940 . S
C83 C78 1.391 . S
C83 C82 1.396 . S
C84 P64 1.803 . S
C84 C85 1.378 . S
C84 C89 1.400 . S
C85 H69 0.939 . S
C85 C84 1.378 . S
C85 C86 1.361 . S
C86 H70 0.942 . S
C86 C85 1.361 . S
C86 C87 1.369 . S
C87 C86 1.369 . S
C87 C88 1.404 . S
C88 H71 0.940 . S
C88 C87 1.404 . S
C88 C89 1.389 . S
C89 H72 0.939 . S
C89 C84 1.400 . S
C89 C88 1.389 . S
C90 P64 1.819 . S
C90 C91 1.391 . S
C90 C95 1.391 . S
C91 H73 0.941 . S
C91 C90 1.391 . S
C91 C92 1.396 . S
C92 H76 0.939 . S
C92 C91 1.396 . S
C92 C93 1.397 . S
C93 C92 1.397 . S
C93 C94 1.385 . S
C94 H77 0.940 . S
C94 C93 1.385 . S
C94 C95 1.388 . S
C95 H74 0.939 . S
C95 C90 1.391 . S
C95 C94 1.388 . S
P96 O107 1.490 . S
P96 C110 1.812 . S
P96 C116 1.803 . S
P96 C122 1.819 . S
H97 C111 0.941 . S
H98 C112 0.939 . S
H99 C114 0.940 . S
H100 C115 0.940 . S
H101 C117 0.939 . S
H102 C118 0.942 . S
H103 C120 0.940 . S
H104 C121 0.939 . S
H105 C123 0.941 . S
H106 C127 0.939 . S
O107 P96 1.490 . S
H108 C124 0.939 . S
H109 C126 0.941 1_556 S
C110 P96 1.812 . S
C110 C111 1.389 . S
C110 C115 1.391 . S
C111 H97 0.941 . S
C111 C110 1.389 . S
C111 C112 1.397 . S
C112 H98 0.939 . S
C112 C111 1.397 . S
C112 C113 1.378 . S
C113 C112 1.378 . S
C113 C114 1.378 . S
C114 H99 0.940 . S
C114 C113 1.378 . S
C114 C115 1.396 . S
C115 H100 0.940 . S
C115 C110 1.391 . S
C115 C114 1.396 . S
C116 P96 1.803 . S
C116 C117 1.378 . S
C116 C121 1.400 . S
C117 H101 0.939 . S
C117 C116 1.378 . S
C117 C118 1.361 . S
C118 H102 0.942 . S
C118 C117 1.361 . S
C118 C119 1.369 . S
C119 C118 1.369 . S
C119 C120 1.404 . S
C120 H103 0.940 . S
C120 C119 1.404 . S
C120 C121 1.389 . S
C121 H104 0.939 . S
C121 C116 1.400 . S
C121 C120 1.389 . S
C122 P96 1.819 . S
C122 C123 1.391 . S
C122 C127 1.391 . S
C123 H105 0.941 . S
C123 C122 1.391 . S
C123 C124 1.396 . S
C124 H108 0.939 . S
C124 C123 1.396 . S
C124 C125 1.397 . S
C125 C124 1.397 . S
C125 C126 1.385 . S
C126 H109 0.941 1_554 S
C126 C125 1.385 . S
C126 C127 1.388 . S
C127 H106 0.939 . S
C127 C122 1.391 . S
C127 C126 1.388 . S
P128 O139 1.490 . S
P128 C142 1.812 1_554 S
P128 C148 1.803 . S
P128 C154 1.819 . S
H129 C143 0.941 . S
H130 C144 0.939 . S
H131 C146 0.940 . S
H132 C147 0.940 . S
H133 C149 0.939 . S
H134 C150 0.942 . S
H135 C152 0.940 . S
H136 C153 0.939 1_556 S
H137 C155 0.941 . S
H138 C159 0.939 . S
O139 P128 1.490 . S
H140 C156 0.939 . S
H141 C158 0.940 . S
C142 P128 1.812 1_556 S
C142 C143 1.389 . S
C142 C147 1.391 . S
C143 H129 0.941 . S
C143 C142 1.389 . S
C143 C144 1.397 . S
C144 H130 0.939 . S
C144 C143 1.397 . S
C144 C145 1.378 . S
C145 C144 1.378 . S
C145 C146 1.378 . S
C146 H131 0.940 . S
C146 C145 1.378 . S
C146 C147 1.396 . S
C147 H132 0.940 . S
C147 C142 1.391 . S
C147 C146 1.396 . S
C148 P128 1.803 . S
C148 C149 1.378 . S
C148 C153 1.400 . S
C149 H133 0.939 . S
C149 C148 1.378 . S
C149 C150 1.361 . S
C150 H134 0.942 . S
C150 C149 1.361 . S
C150 C151 1.369 . S
C151 C150 1.369 . S
C151 C152 1.404 . S
C152 H135 0.940 . S
C152 C151 1.404 . S
C152 C153 1.389 . S
C153 H136 0.939 1_554 S
C153 C148 1.400 . S
C153 C152 1.389 . S
C154 P128 1.819 . S
C154 C155 1.391 . S
C154 C159 1.391 . S
C155 H137 0.941 . S
C155 C154 1.391 . S
C155 C156 1.396 . S
C156 H140 0.939 . S
C156 C155 1.396 . S
C156 C157 1.397 . S
C157 C156 1.397 . S
C157 C158 1.385 . S
C158 H141 0.940 . S
C158 C157 1.385 . S
C158 C159 1.388 . S
C159 H138 0.939 . S
C159 C154 1.391 . S
C159 C158 1.388 . S
P160 O171 1.490 . S
P160 C174 1.812 1_554 S
P160 C180 1.803 . S
P160 C186 1.819 . S
H161 C175 0.941 . S
H162 C176 0.939 . S
H163 C178 0.940 . S
H164 C179 0.940 . S
H165 C181 0.939 . S
H166 C182 0.942 . S
H167 C184 0.940 . S
H168 C185 0.939 1_556 S
H169 C187 0.941 . S
H170 C191 0.939 . S
O171 P160 1.490 . S
H172 C188 0.939 . S
H173 C190 0.940 . S
C174 P160 1.812 1_556 S
C174 C175 1.389 . S
C174 C179 1.391 . S
C175 H161 0.941 . S
C175 C174 1.389 . S
C175 C176 1.397 . S
C176 H162 0.939 . S
C176 C175 1.397 . S
C176 C177 1.378 . S
C177 C176 1.378 . S
C177 C178 1.378 . S
C178 H163 0.940 . S
C178 C177 1.378 . S
C178 C179 1.396 . S
C179 H164 0.940 . S
C179 C174 1.391 . S
C179 C178 1.396 . S
C180 P160 1.803 . S
C180 C181 1.378 . S
C180 C185 1.400 . S
C181 H165 0.939 . S
C181 C180 1.378 . S
C181 C182 1.361 . S
C182 H166 0.942 . S
C182 C181 1.361 . S
C182 C183 1.369 . S
C183 C182 1.369 . S
C183 C184 1.404 . S
C184 H167 0.940 . S
C184 C183 1.404 . S
C184 C185 1.389 . S
C185 H168 0.939 1_554 S
C185 C180 1.400 . S
C185 C184 1.389 . S
C186 P160 1.819 . S
C186 C187 1.391 . S
C186 C191 1.391 . S
C187 H169 0.941 . S
C187 C186 1.391 . S
C187 C188 1.396 . S
C188 H172 0.939 . S
C188 C187 1.396 . S
C188 C189 1.397 . S
C189 C188 1.397 . S
C189 C190 1.385 . S
C190 H173 0.940 . S
C190 C189 1.385 . S
C190 C191 1.388 . S
C191 H170 0.939 . S
C191 C186 1.391 . S
C191 C190 1.388 . S
P192 O203 1.490 . S
P192 C206 1.812 1_554 S
P192 C212 1.803 . S
P192 C218 1.819 . S
H193 C207 0.941 . S
H194 C208 0.939 . S
H195 C210 0.940 . S
H196 C211 0.940 . S
H197 C213 0.939 . S
H198 C214 0.942 . S
H199 C216 0.940 . S
H200 C217 0.939 1_556 S
H201 C219 0.941 . S
H202 C223 0.939 . S
O203 P192 1.490 . S
H204 C220 0.939 . S
H205 C222 0.940 . S
C206 P192 1.812 1_556 S
C206 C207 1.389 . S
C206 C211 1.391 . S
C207 H193 0.941 . S
C207 C206 1.389 . S
C207 C208 1.397 . S
C208 H194 0.939 . S
C208 C207 1.397 . S
C208 C209 1.378 . S
C209 C208 1.378 . S
C209 C210 1.378 . S
C210 H195 0.940 . S
C210 C209 1.378 . S
C210 C211 1.396 . S
C211 H196 0.940 . S
C211 C206 1.391 . S
C211 C210 1.396 . S
C212 P192 1.803 . S
C212 C213 1.378 . S
C212 C217 1.400 . S
C213 H197 0.939 . S
C213 C212 1.378 . S
C213 C214 1.361 . S
C214 H198 0.942 . S
C214 C213 1.361 . S
C214 C215 1.369 . S
C215 C214 1.369 . S
C215 C216 1.404 . S
C216 H199 0.940 . S
C216 C215 1.404 . S
C216 C217 1.389 . S
C217 H200 0.939 1_554 S
C217 C212 1.400 . S
C217 C216 1.389 . S
C218 P192 1.819 . S
C218 C219 1.391 . S
C218 C223 1.391 . S
C219 H201 0.941 . S
C219 C218 1.391 . S
C219 C220 1.396 . S
C220 H204 0.939 . S
C220 C219 1.396 . S
C220 C221 1.397 . S
C221 C220 1.397 . S
C221 C222 1.385 . S
C222 H205 0.940 . S
C222 C221 1.385 . S
C222 C223 1.388 . S
C223 H202 0.939 . S
C223 C218 1.391 . S
C223 C222 1.388 . S
P224 O235 1.490 . S
P224 C238 1.812 1_554 S
P224 C244 1.803 . S
P224 C250 1.819 . S
H225 C239 0.941 . S
H226 C240 0.939 . S
H227 C242 0.940 . S
H228 C243 0.940 . S
H229 C245 0.939 . S
H230 C246 0.942 . S
H231 C248 0.940 . S
H232 C249 0.939 1_556 S
H233 C251 0.941 . S
H234 C255 0.939 . S
O235 P224 1.490 . S
H236 C252 0.939 . S
H237 C254 0.940 . S
C238 P224 1.812 1_556 S
C238 C239 1.389 . S
C238 C243 1.391 . S
C239 H225 0.941 . S
C239 C238 1.389 . S
C239 C240 1.397 . S
C240 H226 0.939 . S
C240 C239 1.397 . S
C240 C241 1.378 . S
C241 C240 1.378 . S
C241 C242 1.378 . S
C242 H227 0.940 . S
C242 C241 1.378 . S
C242 C243 1.396 . S
C243 H228 0.940 . S
C243 C238 1.391 . S
C243 C242 1.396 . S
C244 P224 1.803 . S
C244 C245 1.378 . S
C244 C249 1.400 . S
C245 H229 0.939 . S
C245 C244 1.378 . S
C245 C246 1.361 . S
C246 H230 0.942 . S
C246 C245 1.361 . S
C246 C247 1.369 . S
C247 C246 1.369 . S
C247 C248 1.404 . S
C248 H231 0.940 . S
C248 C247 1.404 . S
C248 C249 1.389 . S
C249 H232 0.939 1_554 S
C249 C244 1.400 . S
C249 C248 1.389 . S
C250 P224 1.819 . S
C250 C251 1.391 . S
C250 C255 1.391 . S
C251 H233 0.941 . S
C251 C250 1.391 . S
C251 C252 1.396 . S
C252 H236 0.939 . S
C252 C251 1.396 . S
C252 C253 1.397 . S
C253 C252 1.397 . S
C253 C254 1.385 . S
C254 H237 0.940 . S
C254 C253 1.385 . S
C254 C255 1.388 . S
C255 H234 0.939 . S
C255 C250 1.391 . S
C255 C254 1.388 . S
Gd256 N287 2.661 . S
Gd256 N293 2.601 . S
Gd256 O300 2.545 . S
Gd256 O301 2.606 1_655 S
Gd256 O303 2.429 . S
Gd256 O304 2.545 1_655 S
Gd256 O305 2.412 . S
Gd256 O307 2.362 1_545 S
Gd256 O308 2.324 1_655 S
Gd256 C315 2.828 . S
Gd257 N266 2.661 1_565 S
Gd257 N270 2.601 . S
Gd257 O301 2.362 1_565 S
Gd257 O302 2.324 1_455 S
Gd257 O306 2.545 . S
Gd257 O307 2.606 1_455 S
Gd257 O309 2.429 . S
Gd257 O310 2.545 . S
Gd257 O311 2.412 . S
Gd257 C324 2.828 . S
C258 C261 1.417 . S
C258 C263 1.431 . S
C258 C264 1.412 . S
C259 C262 1.437 . S
C259 C263 1.317 . S
C259 H278 0.929 . S
C260 C261 1.426 . S
C260 C262 1.413 . S
C260 N270 1.359 1_545 S
C261 C258 1.417 . S
C261 C260 1.426 . S
C261 N266 1.350 . S
C262 C259 1.437 . S
C262 C260 1.413 . S
C262 C272 1.391 1_545 S
C263 C258 1.431 . S
C263 C259 1.317 . S
C263 H274 0.930 . S
C264 C258 1.412 . S
C264 C265 1.355 . S
C264 H276 0.930 . S
C265 C264 1.355 . S
C265 C267 1.402 . S
C265 H277 0.930 1_455 S
N266 Gd257 2.661 1_545 S
N266 C261 1.350 . S
N266 C267 1.307 . S
C267 C265 1.402 . S
C267 N266 1.307 . S
C267 H268 0.930 1_455 S
H268 C267 0.930 1_655 S
C269 N270 1.334 . S
C269 C271 1.394 . S
C269 H273 0.930 . S
N270 Gd257 2.601 . S
N270 C260 1.359 1_565 S
N270 C269 1.334 . S
C271 C269 1.394 . S
C271 C272 1.359 . S
C271 H283 0.930 . S
C272 C262 1.391 1_565 S
C272 C271 1.359 . S
C272 H284 0.933 . S
H273 C269 0.930 . S
H274 C263 0.930 . S
H275 C292 0.930 . S
H276 C264 0.930 . S
H277 C265 0.930 1_655 S
H278 C259 0.929 . S
H279 C297 0.930 . S
H280 C288 0.930 . S
H281 C289 0.930 . S
H282 C313 0.929 . S
H283 C271 0.930 . S
H284 C272 0.933 . S
H285 C314 0.930 . S
H286 C295 0.930 . S
N287 Gd256 2.661 . S
N287 C291 1.350 1_545 S
N287 C292 1.307 1_645 S
C288 H280 0.930 . S
C288 C289 1.355 1_655 S
C288 C290 1.412 . S
C289 H281 0.930 . S
C289 C288 1.355 1_455 S
C289 C292 1.402 . S
C290 C288 1.412 . S
C290 C291 1.417 . S
C290 C314 1.431 . S
C291 N287 1.350 1_565 S
C291 C290 1.417 . S
C291 C294 1.426 1_565 S
C292 H275 0.930 . S
C292 N287 1.307 1_465 S
C292 C289 1.402 . S
N293 Gd256 2.601 . S
N293 C294 1.359 . S
N293 C297 1.334 . S
C294 C291 1.426 1_545 S
C294 N293 1.359 . S
C294 C298 1.413 . S
C295 H286 0.930 . S
C295 C296 1.359 . S
C295 C297 1.394 . S
C296 C295 1.359 . S
C296 C298 1.391 . S
C296 H299 0.929 . S
C297 H279 0.930 . S
C297 N293 1.334 . S
C297 C295 1.394 . S
C298 C294 1.413 . S
C298 C296 1.391 . S
C298 C313 1.437 1_545 S
H299 C296 0.929 . S
O300 Gd256 2.545 . S
O300 C315 1.258 . S
O301 Gd256 2.606 1_455 S
O301 Gd257 2.362 1_545 S
O301 C312 1.284 . S
O302 Gd257 2.324 1_655 S
O302 C322 1.254 1_565 S
O303 Gd256 2.429 . S
O303 C322 1.268 . S
O304 Gd256 2.545 1_455 S
O304 C312 1.250 . S
O305 Gd256 2.412 . S
O305 C315 1.252 . S
O306 Gd257 2.545 . S
O306 C324 1.258 . S
O307 Gd256 2.362 1_565 S
O307 Gd257 2.606 1_655 S
O307 C323 1.284 . S
O308 Gd256 2.324 1_455 S
O308 C331 1.254 . S
O309 Gd257 2.429 . S
O309 C331 1.268 1_565 S
O310 Gd257 2.545 . S
O310 C323 1.250 1_455 S
O311 Gd257 2.412 . S
O311 C324 1.252 . S
C312 O301 1.284 . S
C312 O304 1.250 . S
C313 H282 0.929 . S
C313 C298 1.437 1_565 S
C313 C314 1.317 . S
C314 H285 0.930 . S
C314 C290 1.431 . S
C314 C313 1.317 . S
C315 Gd256 2.828 . S
C315 O300 1.258 . S
C315 O305 1.252 . S
C315 C316 1.497 . S
C316 C315 1.497 . S
C316 C317 1.395 . S
C316 C318 1.380 . S
C317 C316 1.395 . S
C317 C320 1.398 . S
C317 H332 0.930 . S
C318 C316 1.380 . S
C318 C319 1.391 . S
C318 H333 0.930 1_655 S
C319 C318 1.391 . S
C319 C321 1.387 . S
C320 C317 1.398 . S
C320 C321 1.380 . S
C320 H334 0.930 . S
C321 C319 1.387 . S
C321 C320 1.380 . S
C321 H335 0.930 . S
C322 O302 1.254 1_545 S
C322 O303 1.268 . S
C323 O307 1.284 . S
C323 O310 1.250 1_655 S
C324 Gd257 2.828 . S
C324 O306 1.258 . S
C324 O311 1.252 . S
C324 C325 1.497 . S
C325 C324 1.497 . S
C325 C326 1.395 . S
C325 C327 1.380 . S
C326 C325 1.395 . S
C326 C329 1.398 . S
C326 H336 0.930 . S
C327 C325 1.380 . S
C327 C328 1.391 . S
C327 H337 0.930 1_455 S
C328 C327 1.391 . S
C328 C330 1.387 . S
C329 C326 1.398 . S
C329 C330 1.380 . S
C329 H338 0.930 . S
C330 C328 1.387 . S
C330 C329 1.380 . S
C330 H339 0.930 . S
C331 O308 1.254 . S
C331 O309 1.268 1_545 S
H332 C317 0.930 . S
H333 C318 0.930 1_455 S
H334 C320 0.930 . S
H335 C321 0.930 . S
H336 C326 0.930 . S
H337 C327 0.930 1_655 S
H338 C329 0.930 . S
H339 C330 0.930 . S
Gd340 N371 2.661 . S
Gd340 N377 2.601 . S
Gd340 O384 2.545 . S
Gd340 O385 2.606 1_565 S
Gd340 O387 2.429 . S
Gd340 O388 2.545 1_565 S
Gd340 O389 2.412 . S
Gd340 O391 2.362 . S
Gd340 O392 2.324 1_565 S
Gd340 C399 2.828 . S
Gd341 N350 2.661 . S
Gd341 N354 2.601 . S
Gd341 O385 2.362 . S
Gd341 O386 2.324 1_545 S
Gd341 O390 2.545 . S
Gd341 O391 2.606 1_545 S
Gd341 O393 2.429 . S
Gd341 O394 2.545 . S
Gd341 O395 2.412 . S
Gd341 C408 2.828 . S
C342 C345 1.417 . S
C342 C347 1.431 . S
C342 C348 1.412 . S
C343 C346 1.437 . S
C343 C347 1.317 . S
C343 H362 0.929 . S
C344 C345 1.426 . S
C344 C346 1.413 . S
C344 N354 1.359 . S
C345 C342 1.417 . S
C345 C344 1.426 . S
C345 N350 1.350 . S
C346 C343 1.437 . S
C346 C344 1.413 . S
C346 C356 1.391 . S
C347 C342 1.431 . S
C347 C343 1.317 . S
C347 H358 0.930 . S
C348 C342 1.412 . S
C348 C349 1.355 . S
C348 H360 0.930 . S
C349 C348 1.355 . S
C349 C351 1.402 . S
C349 H361 0.930 1_545 S
N350 Gd341 2.661 . S
N350 C345 1.350 . S
N350 C351 1.307 . S
C351 C349 1.402 . S
C351 N350 1.307 . S
C351 H352 0.930 1_545 S
H352 C351 0.930 1_565 S
C353 N354 1.334 . S
C353 C355 1.394 . S
C353 H357 0.930 . S
N354 Gd341 2.601 . S
N354 C344 1.359 . S
N354 C353 1.334 . S
C355 C353 1.394 . S
C355 C356 1.359 . S
C355 H367 0.930 . S
C356 C346 1.391 . S
C356 C355 1.359 . S
C356 H368 0.929 . S
H357 C353 0.930 . S
H358 C347 0.930 . S
H359 C376 0.930 . S
H360 C348 0.930 . S
H361 C349 0.930 1_565 S
H362 C343 0.929 . S
H363 C381 0.930 . S
H364 C372 0.930 . S
H365 C373 0.930 . S
H366 C397 0.929 . S
H367 C355 0.930 . S
H368 C356 0.929 . S
H369 C398 0.930 . S
H370 C379 0.930 . S
N371 Gd340 2.661 . S
N371 C375 1.350 . S
N371 C376 1.307 1_565 S
C372 H364 0.930 . S
C372 C373 1.355 1_565 S
C372 C374 1.412 . S
C373 H365 0.930 . S
C373 C372 1.355 1_545 S
C373 C376 1.402 . S
C374 C372 1.412 . S
C374 C375 1.417 . S
C374 C398 1.431 . S
C375 N371 1.350 . S
C375 C374 1.417 . S
C375 C378 1.426 . S
C376 H359 0.930 . S
C376 N371 1.307 1_545 S
C376 C373 1.402 . S
N377 Gd340 2.601 . S
N377 C378 1.359 . S
N377 C381 1.334 . S
C378 C375 1.426 . S
C378 N377 1.359 . S
C378 C382 1.413 . S
C379 H370 0.930 . S
C379 C380 1.359 . S
C379 C381 1.394 . S
C380 C379 1.359 . S
C380 C382 1.391 . S
C380 H383 0.929 . S
C381 H363 0.930 . S
C381 N377 1.334 . S
C381 C379 1.394 . S
C382 C378 1.413 . S
C382 C380 1.391 . S
C382 C397 1.437 . S
H383 C380 0.929 . S
O384 Gd340 2.545 . S
O384 C399 1.258 . S
O385 Gd340 2.606 1_545 S
O385 Gd341 2.362 . S
O385 C396 1.284 . S
O386 Gd341 2.324 1_565 S
O386 C406 1.254 . S
O387 Gd340 2.429 . S
O387 C406 1.268 . S
O388 Gd340 2.545 1_545 S
O388 C396 1.250 . S
O389 Gd340 2.412 . S
O389 C399 1.252 . S
O390 Gd341 2.545 . S
O390 C408 1.258 . S
O391 Gd340 2.362 . S
O391 Gd341 2.606 1_565 S
O391 C407 1.284 . S
O392 Gd340 2.324 1_545 S
O392 C415 1.254 . S
O393 Gd341 2.429 . S
O393 C415 1.268 . S
O394 Gd341 2.545 . S
O394 C407 1.250 1_545 S
O395 Gd341 2.412 . S
O395 C408 1.252 . S
C396 O385 1.284 . S
C396 O388 1.250 . S
C397 H366 0.929 . S
C397 C382 1.437 . S
C397 C398 1.317 . S
C398 H369 0.930 . S
C398 C374 1.431 . S
C398 C397 1.317 . S
C399 Gd340 2.828 . S
C399 O384 1.258 . S
C399 O389 1.252 . S
C399 C400 1.497 . S
C400 C399 1.497 . S
C400 C401 1.395 . S
C400 C402 1.380 . S
C401 C400 1.395 . S
C401 C404 1.398 . S
C401 H416 0.930 . S
C402 C400 1.380 . S
C402 C403 1.391 . S
C402 H417 0.930 1_565 S
C403 C402 1.391 . S
C403 C405 1.387 . S
C404 C401 1.398 . S
C404 C405 1.380 . S
C404 H418 0.930 . S
C405 C403 1.387 . S
C405 C404 1.380 . S
C405 H419 0.930 . S
C406 O386 1.254 . S
C406 O387 1.268 . S
C407 O391 1.284 . S
C407 O394 1.250 1_565 S
C408 Gd341 2.828 . S
C408 O390 1.258 . S
C408 O395 1.252 . S
C408 C409 1.497 . S
C409 C408 1.497 . S
C409 C410 1.395 . S
C409 C411 1.380 . S
C410 C409 1.395 . S
C410 C413 1.398 . S
C410 H420 0.930 . S
C411 C409 1.380 . S
C411 C412 1.391 . S
C411 H421 0.943 . S
C412 C411 1.391 . S
C412 C414 1.387 . S
C413 C410 1.398 . S
C413 C414 1.380 . S
C413 H422 0.930 . S
C414 C412 1.387 . S
C414 C413 1.380 . S
C414 H423 0.930 . S
C415 O392 1.254 . S
C415 O393 1.268 . S
H416 C401 0.930 . S
H417 C402 0.930 1_545 S
H418 C404 0.930 . S
H419 C405 0.930 . S
H420 C410 0.930 . S
H421 C411 0.943 . S
H422 C413 0.930 . S
H423 C414 0.930 . S
Gd424 N455 2.661 . S
Gd424 N461 2.601 . S
Gd424 O468 2.545 . S
Gd424 O469 2.606 . S
Gd424 O471 2.429 . S
Gd424 O472 2.545 . S
Gd424 O473 2.412 . S
Gd424 O475 2.362 . S
Gd424 O476 2.324 . S
Gd424 C483 2.828 . S
Gd425 N434 2.661 . S
Gd425 N438 2.601 . S
Gd425 O469 2.362 . S
Gd425 O470 2.324 . S
Gd425 O474 2.545 . S
Gd425 O475 2.606 . S
Gd425 O477 2.429 . S
Gd425 O478 2.545 . S
Gd425 O479 2.412 . S
Gd425 C492 2.828 . S
C426 C429 1.417 . S
C426 C431 1.431 . S
C426 C432 1.412 . S
C427 C430 1.437 . S
C427 C431 1.317 . S
C427 H446 0.929 . S
C428 C429 1.426 . S
C428 C430 1.413 . S
C428 N438 1.359 . S
C429 C426 1.417 . S
C429 C428 1.426 . S
C429 N434 1.350 . S
C430 C427 1.437 . S
C430 C428 1.413 . S
C430 C440 1.391 . S
C431 C426 1.431 . S
C431 C427 1.317 . S
C431 H442 0.930 . S
C432 C426 1.412 . S
C432 C433 1.355 . S
C432 H444 0.930 . S
C433 C432 1.355 . S
C433 C435 1.402 . S
C433 H445 0.930 . S
N434 Gd425 2.661 . S
N434 C429 1.350 . S
N434 C435 1.307 . S
C435 C433 1.402 . S
C435 N434 1.307 . S
C435 H436 0.930 . S
H436 C435 0.930 . S
C437 N438 1.334 . S
C437 C439 1.394 . S
C437 H441 0.930 . S
N438 Gd425 2.601 . S
N438 C428 1.359 . S
N438 C437 1.334 . S
C439 C437 1.394 . S
C439 C440 1.359 . S
C439 H451 0.930 . S
C440 C430 1.391 . S
C440 C439 1.359 . S
C440 H452 0.929 . S
H441 C437 0.930 . S
H442 C431 0.930 . S
H443 C460 0.930 . S
H444 C432 0.930 . S
H445 C433 0.930 . S
H446 C427 0.929 . S
H447 C465 0.930 . S
H448 C456 0.930 . S
H449 C457 0.930 . S
H450 C481 0.929 . S
H451 C439 0.930 . S
H452 C440 0.929 . S
H453 C482 0.930 . S
H454 C463 0.930 . S
N455 Gd424 2.661 . S
N455 C459 1.350 . S
N455 C460 1.307 . S
C456 H448 0.930 . S
C456 C457 1.355 . S
C456 C458 1.412 . S
C457 H449 0.930 . S
C457 C456 1.355 . S
C457 C460 1.402 . S
C458 C456 1.412 . S
C458 C459 1.417 . S
C458 C482 1.431 . S
C459 N455 1.350 . S
C459 C458 1.417 . S
C459 C462 1.426 . S
C460 H443 0.930 . S
C460 N455 1.307 . S
C460 C457 1.402 . S
N461 Gd424 2.601 . S
N461 C462 1.359 . S
N461 C465 1.334 . S
C462 C459 1.426 . S
C462 N461 1.359 . S
C462 C466 1.413 . S
C463 H454 0.930 . S
C463 C464 1.359 . S
C463 C465 1.394 . S
C464 C463 1.359 . S
C464 C466 1.391 . S
C464 H467 0.929 . S
C465 H447 0.930 . S
C465 N461 1.334 . S
C465 C463 1.394 . S
C466 C462 1.413 . S
C466 C464 1.391 . S
C466 C481 1.437 . S
H467 C464 0.929 . S
O468 Gd424 2.545 . S
O468 C483 1.258 . S
O469 Gd424 2.606 . S
O469 Gd425 2.362 . S
O469 C480 1.284 . S
O470 Gd425 2.324 . S
O470 C490 1.254 . S
O471 Gd424 2.429 . S
O471 C490 1.268 . S
O472 Gd424 2.545 . S
O472 C480 1.250 . S
O473 Gd424 2.412 . S
O473 C483 1.252 . S
O474 Gd425 2.545 . S
O474 C492 1.258 . S
O475 Gd424 2.362 . S
O475 Gd425 2.606 . S
O475 C491 1.284 . S
O476 Gd424 2.324 . S
O476 C499 1.254 . S
O477 Gd425 2.429 . S
O477 C499 1.268 . S
O478 Gd425 2.545 . S
O478 C491 1.250 . S
O479 Gd425 2.412 . S
O479 C492 1.252 . S
C480 O469 1.284 . S
C480 O472 1.250 . S
C481 H450 0.929 . S
C481 C466 1.437 . S
C481 C482 1.317 . S
C482 H453 0.930 . S
C482 C458 1.431 . S
C482 C481 1.317 . S
C483 Gd424 2.828 . S
C483 O468 1.258 . S
C483 O473 1.252 . S
C483 C484 1.497 . S
C484 C483 1.497 . S
C484 C485 1.395 . S
C484 C486 1.380 . S
C485 C484 1.395 . S
C485 C488 1.398 . S
C485 H500 0.930 . S
C486 C484 1.380 . S
C486 C487 1.391 . S
C486 H501 0.930 . S
C487 C486 1.391 . S
C487 C489 1.387 . S
C488 C485 1.398 . S
C488 C489 1.380 . S
C488 H502 0.930 . S
C489 C487 1.387 . S
C489 C488 1.380 . S
C489 H503 0.930 . S
C490 O470 1.254 . S
C490 O471 1.268 . S
C491 O475 1.284 . S
C491 O478 1.250 . S
C492 Gd425 2.828 . S
C492 O474 1.258 . S
C492 O479 1.252 . S
C492 C493 1.497 . S
C493 C492 1.497 . S
C493 C494 1.395 . S
C493 C495 1.380 . S
C494 C493 1.395 . S
C494 C497 1.398 . S
C494 H504 0.930 . S
C495 C493 1.380 . S
C495 C496 1.391 . S
C495 H505 0.930 . S
C496 C495 1.391 . S
C496 C498 1.387 . S
C497 C494 1.398 . S
C497 C498 1.380 . S
C497 H506 0.930 . S
C498 C496 1.387 . S
C498 C497 1.380 . S
C498 H507 0.930 . S
C499 O476 1.254 . S
C499 O477 1.268 . S
H500 C485 0.930 . S
H501 C486 0.930 . S
H502 C488 0.930 . S
H503 C489 0.930 . S
H504 C494 0.930 . S
H505 C495 0.930 . S
H506 C497 0.930 . S
H507 C498 0.930 . S
Gd508 N539 2.661 . S
Gd508 N545 2.601 . S
Gd508 O552 2.545 . S
Gd508 O553 2.588 1_655 S
Gd508 O555 2.429 1_655 S
Gd508 O556 2.545 . S
Gd508 O557 2.412 . S
Gd508 O559 2.362 1_655 S
Gd508 O560 2.324 . S
Gd508 C567 2.828 . S
Gd509 N518 2.661 . S
Gd509 N522 2.601 . S
Gd509 O553 2.392 . S
Gd509 O554 2.324 . S
Gd509 O558 2.545 . S
Gd509 O559 2.606 . S
Gd509 O561 2.429 1_455 S
Gd509 O562 2.545 . S
Gd509 O563 2.412 . S
Gd509 C576 2.828 . S
C510 C513 1.417 . S
C510 C515 1.431 . S
C510 C516 1.412 . S
C511 C514 1.437 . S
C511 C515 1.317 . S
C511 H530 0.929 . S
C512 C513 1.426 . S
C512 C514 1.413 . S
C512 N522 1.359 . S
C513 C510 1.417 . S
C513 C512 1.426 . S
C513 N518 1.350 . S
C514 C511 1.437 . S
C514 C512 1.413 . S
C514 C524 1.391 . S
C515 C510 1.431 . S
C515 C511 1.317 . S
C515 H526 0.930 . S
C516 C510 1.412 . S
C516 C517 1.355 . S
C516 H528 0.930 . S
C517 C516 1.355 . S
C517 C519 1.402 . S
C517 H529 0.930 . S
N518 Gd509 2.661 . S
N518 C513 1.350 . S
N518 C519 1.307 . S
C519 C517 1.402 . S
C519 N518 1.307 . S
C519 H520 0.930 . S
H520 C519 0.930 . S
C521 N522 1.334 . S
C521 C523 1.394 . S
C521 H525 0.930 1_455 S
N522 Gd509 2.601 . S
N522 C512 1.359 . S
N522 C521 1.334 . S
C523 C521 1.394 . S
C523 C524 1.359 . S
C523 H535 0.930 1_455 S
C524 C514 1.391 . S
C524 C523 1.359 . S
C524 H536 0.929 . S
H525 C521 0.930 1_655 S
H526 C515 0.930 . S
H527 C544 0.930 . S
H528 C516 0.930 . S
H529 C517 0.930 . S
H530 C511 0.929 . S
H531 C549 0.930 . S
H532 C540 0.930 . S
H533 C541 0.930 . S
H534 C565 0.929 . S
H535 C523 0.930 1_655 S
H536 C524 0.929 . S
H537 C566 0.930 . S
H538 C547 0.930 . S
N539 Gd508 2.661 . S
N539 C543 1.350 . S
N539 C544 1.307 . S
C540 H532 0.930 . S
C540 C541 1.355 . S
C540 C542 1.412 . S
C541 H533 0.930 . S
C541 C540 1.355 . S
C541 C544 1.402 . S
C542 C540 1.412 . S
C542 C543 1.417 . S
C542 C566 1.431 . S
C543 N539 1.350 . S
C543 C542 1.417 . S
C543 C546 1.426 . S
C544 H527 0.930 . S
C544 N539 1.307 . S
C544 C541 1.402 . S
N545 Gd508 2.601 . S
N545 C546 1.359 . S
N545 C549 1.334 1_655 S
C546 C543 1.426 . S
C546 N545 1.359 . S
C546 C550 1.413 . S
C547 H538 0.930 . S
C547 C548 1.359 1_455 S
C547 C549 1.394 . S
C548 C547 1.359 1_655 S
C548 C550 1.391 . S
C548 H551 0.929 . S
C549 H531 0.930 . S
C549 N545 1.334 1_455 S
C549 C547 1.394 . S
C550 C546 1.413 . S
C550 C548 1.391 . S
C550 C565 1.437 . S
H551 C548 0.929 . S
O552 Gd508 2.545 . S
O552 C567 1.258 . S
O553 Gd508 2.588 1_455 S
O553 Gd509 2.392 . S
O553 C564 1.264 1_455 S
O554 Gd509 2.324 . S
O554 C574 1.254 . S
O555 Gd508 2.429 1_455 S
O555 C574 1.268 . S
O556 Gd508 2.545 . S
O556 C564 1.250 . S
O557 Gd508 2.412 . S
O557 C567 1.252 . S
O558 Gd509 2.545 . S
O558 C576 1.258 . S
O559 Gd508 2.362 1_455 S
O559 Gd509 2.606 . S
O559 C575 1.284 . S
O560 Gd508 2.324 . S
O560 C583 1.254 . S
O561 Gd509 2.429 1_655 S
O561 C583 1.268 . S
O562 Gd509 2.545 . S
O562 C575 1.250 . S
O563 Gd509 2.412 . S
O563 C576 1.252 . S
C564 O553 1.264 1_655 S
C564 O556 1.250 . S
C565 H534 0.929 . S
C565 C550 1.437 . S
C565 C566 1.317 . S
C566 H537 0.930 . S
C566 C542 1.431 . S
C566 C565 1.317 . S
C567 Gd508 2.828 . S
C567 O552 1.258 . S
C567 O557 1.252 . S
C567 C568 1.497 . S
C568 C567 1.497 . S
C568 C569 1.395 . S
C568 C570 1.380 . S
C569 C568 1.395 . S
C569 C572 1.398 . S
C569 H584 0.930 . S
C570 C568 1.380 . S
C570 C571 1.391 . S
C570 H585 0.930 . S
C571 C570 1.391 . S
C571 C573 1.387 . S
C572 C569 1.398 . S
C572 C573 1.380 . S
C572 H586 0.930 . S
C573 C571 1.387 . S
C573 C572 1.380 . S
C573 H587 0.930 . S
C574 O554 1.254 . S
C574 O555 1.268 . S
C575 O559 1.284 . S
C575 O562 1.250 . S
C576 Gd509 2.828 . S
C576 O558 1.258 . S
C576 O563 1.252 . S
C576 C577 1.497 . S
C577 C576 1.497 . S
C577 C578 1.395 . S
C577 C579 1.380 . S
C578 C577 1.395 . S
C578 C581 1.398 . S
C578 H588 0.930 . S
C579 C577 1.380 . S
C579 C580 1.391 . S
C579 H589 0.930 . S
C580 C579 1.391 . S
C580 C582 1.387 . S
C581 C578 1.398 . S
C581 C582 1.380 . S
C581 H590 0.930 . S
C582 C580 1.387 . S
C582 C581 1.380 . S
C582 H591 0.930 . S
C583 O560 1.254 . S
C583 O561 1.268 . S
H584 C569 0.930 . S
H585 C570 0.930 . S
H586 C572 0.930 . S
H587 C573 0.930 . S
H588 C578 0.930 . S
H589 C579 0.930 . S
H590 C581 0.930 . S
H591 C582 0.930 . S
H592 C610 0.951 . S
H593 C612 0.951 . S
H594 C614 0.950 . S
H595 C615 0.950 . S
H596 C617 0.950 . S
H597 C620 0.950 . S
H598 C621 0.950 . S
H599 C623 0.950 . S
H600 C624 0.950 . S
H601 C625 0.951 . S
H602 C627 0.951 . S
H603 C629 0.950 . S
H604 C630 0.950 1_565 S
H605 C632 0.950 . S
H606 C635 0.950 . S
H607 C636 0.950 . S
H608 C638 0.950 . S
H609 C639 0.950 . S
C610 H592 0.951 . S
C610 C611 1.366 . S
C610 C612 1.388 . S
C611 C610 1.366 . S
C611 C615 1.385 . S
C612 H593 0.951 . S
C612 C610 1.388 . S
C612 C613 1.366 . S
C613 C612 1.366 . S
C613 C614 1.414 . S
C613 C616 1.499 . S
C614 H594 0.950 . S
C614 C613 1.414 . S
C614 C615 1.374 . S
C615 H595 0.950 . S
C615 C611 1.385 . S
C615 C614 1.374 . S
C616 C613 1.499 . S
C616 C617 1.373 . S
C616 C618 1.389 . S
C617 H596 0.950 . S
C617 C616 1.373 . S
C617 C633 1.377 . S
C618 C616 1.389 . S
C618 C619 1.524 . S
C618 C632 1.377 . S
C619 C618 1.524 . S
C619 C620 1.397 . S
C619 C624 1.363 1_545 S
C620 H597 0.950 . S
C620 C619 1.397 . S
C620 C621 1.334 . S
C621 H598 0.950 . S
C621 C620 1.334 . S
C621 C622 1.287 1_545 S
C622 C621 1.287 1_565 S
C622 C623 1.524 . S
C622 H641 0.913 . S
C623 H599 0.950 . S
C623 C622 1.524 . S
C623 C624 1.415 . S
C624 H600 0.950 . S
C624 C619 1.363 1_565 S
C624 C623 1.415 . S
C625 H601 0.951 . S
C625 C626 1.366 . S
C625 C627 1.388 . S
C626 C625 1.366 . S
C626 C630 1.385 . S
C627 H602 0.951 . S
C627 C625 1.388 . S
C627 C628 1.366 . S
C628 C627 1.366 . S
C628 C629 1.414 . S
C628 C631 1.499 . S
C629 H603 0.950 . S
C629 C628 1.414 . S
C629 C630 1.374 . S
C630 H604 0.950 1_545 S
C630 C626 1.385 . S
C630 C629 1.374 . S
C631 C628 1.499 . S
C631 C632 1.373 . S
C631 C633 1.389 . S
C632 H605 0.950 . S
C632 C618 1.377 . S
C632 C631 1.373 . S
C633 C617 1.377 . S
C633 C631 1.389 . S
C633 C634 1.524 . S
C634 C633 1.524 . S
C634 C635 1.397 . S
C634 C639 1.363 . S
C635 H606 0.950 . S
C635 C634 1.397 . S
C635 C636 1.334 . S
C636 H607 0.950 . S
C636 C635 1.334 . S
C636 C637 1.287 . S
C637 C636 1.287 . S
C637 C638 1.524 . S
C637 H640 0.999 . S
C638 H608 0.950 . S
C638 C637 1.524 . S
C638 C639 1.415 . S
C639 H609 0.950 . S
C639 C634 1.363 . S
C639 C638 1.415 . S
H640 C637 0.999 . S
H641 C622 0.913 . S
H642 C660 0.951 . S
H643 C662 0.951 . S
H644 C664 0.950 . S
H645 C665 0.950 . S
H646 C667 0.950 . S
H647 C670 0.950 . S
H648 C671 0.950 . S
H649 C673 0.950 . S
H650 C674 0.950 . S
H651 C675 0.951 . S
H652 C677 0.951 . S
H653 C679 0.950 . S
H654 C680 0.950 . S
H655 C682 0.950 . S
H656 C685 0.950 . S
H657 C686 0.950 . S
H658 C688 0.950 . S
H659 C689 0.950 . S
C660 H642 0.951 . S
C660 C661 1.366 . S
C660 C662 1.388 . S
C661 C660 1.366 . S
C661 C665 1.385 . S
C662 H643 0.951 . S
C662 C660 1.388 . S
C662 C663 1.366 . S
C663 C662 1.366 . S
C663 C664 1.414 . S
C663 C666 1.499 . S
C664 H644 0.950 . S
C664 C663 1.414 . S
C664 C665 1.374 . S
C665 H645 0.950 . S
C665 C661 1.385 . S
C665 C664 1.374 . S
C666 C663 1.499 . S
C666 C667 1.373 . S
C666 C668 1.389 . S
C667 H646 0.950 . S
C667 C666 1.373 . S
C667 C683 1.377 . S
C668 C666 1.389 . S
C668 C669 1.524 . S
C668 C682 1.377 . S
C669 C668 1.524 . S
C669 C670 1.397 . S
C669 C674 1.363 . S
C670 H647 0.950 . S
C670 C669 1.397 . S
C670 C671 1.334 . S
C671 H648 0.950 . S
C671 C670 1.334 . S
C671 C672 1.287 . S
C672 C671 1.287 . S
C672 C673 1.524 . S
C672 H691 0.913 . S
C673 H649 0.950 . S
C673 C672 1.524 . S
C673 C674 1.415 . S
C674 H650 0.950 . S
C674 C669 1.363 . S
C674 C673 1.415 . S
C675 H651 0.951 . S
C675 C676 1.366 . S
C675 C677 1.388 . S
C676 C675 1.366 . S
C676 C680 1.385 . S
C677 H652 0.951 . S
C677 C675 1.388 . S
C677 C678 1.366 . S
C678 C677 1.366 . S
C678 C679 1.414 . S
C678 C681 1.499 . S
C679 H653 0.950 . S
C679 C678 1.414 . S
C679 C680 1.374 . S
C680 H654 0.950 . S
C680 C676 1.385 . S
C680 C679 1.374 . S
C681 C678 1.499 . S
C681 C682 1.373 . S
C681 C683 1.389 . S
C682 H655 0.950 . S
C682 C668 1.377 . S
C682 C681 1.373 . S
C683 C667 1.377 . S
C683 C681 1.389 . S
C683 C684 1.524 . S
C684 C683 1.524 . S
C684 C685 1.397 . S
C684 C689 1.363 . S
C685 H656 0.950 . S
C685 C684 1.397 . S
C685 C686 1.334 . S
C686 H657 0.950 . S
C686 C685 1.334 . S
C686 C687 1.287 . S
C687 C686 1.287 . S
C687 C688 1.524 . S
C687 H690 0.999 . S
C688 H658 0.950 . S
C688 C687 1.524 . S
C688 C689 1.415 . S
C689 H659 0.950 . S
C689 C684 1.363 . S
C689 C688 1.415 . S
H690 C687 0.999 . S
H691 C672 0.913 . S
H692 C710 0.951 . S
H693 C712 0.951 . S
H694 C714 0.950 . S
H695 C715 0.950 . S
H696 C717 0.950 . S
H697 C720 0.950 . S
H698 C721 0.950 . S
H699 C723 0.950 . S
H700 C724 0.950 . S
H701 C725 0.951 . S
H702 C727 0.951 . S
H703 C729 0.950 . S
H704 C730 0.950 . S
H705 C732 0.950 . S
H706 C735 0.950 . S
H707 C736 0.950 . S
H708 C738 0.950 . S
H709 C739 0.950 . S
C710 H692 0.951 . S
C710 C711 1.366 . S
C710 C712 1.388 . S
C711 C710 1.366 . S
C711 C715 1.385 . S
C712 H693 0.951 . S
C712 C710 1.388 . S
C712 C713 1.366 . S
C713 C712 1.366 . S
C713 C714 1.414 . S
C713 C716 1.499 . S
C714 H694 0.950 . S
C714 C713 1.414 . S
C714 C715 1.374 . S
C715 H695 0.950 . S
C715 C711 1.385 . S
C715 C714 1.374 . S
C716 C713 1.499 . S
C716 C717 1.373 . S
C716 C718 1.389 . S
C717 H696 0.950 . S
C717 C716 1.373 . S
C717 C733 1.377 . S
C718 C716 1.389 . S
C718 C719 1.524 . S
C718 C732 1.377 . S
C719 C718 1.524 . S
C719 C720 1.397 . S
C719 C724 1.363 . S
C720 H697 0.950 . S
C720 C719 1.397 . S
C720 C721 1.334 . S
C721 H698 0.950 . S
C721 C720 1.334 . S
C721 C722 1.287 . S
C722 C721 1.287 . S
C722 C723 1.524 . S
C722 H741 0.913 . S
C723 H699 0.950 . S
C723 C722 1.524 . S
C723 C724 1.415 . S
C724 H700 0.950 . S
C724 C719 1.363 . S
C724 C723 1.415 . S
C725 H701 0.951 . S
C725 C726 1.366 . S
C725 C727 1.388 . S
C726 C725 1.366 . S
C726 C730 1.385 . S
C727 H702 0.951 . S
C727 C725 1.388 . S
C727 C728 1.366 . S
C728 C727 1.366 . S
C728 C729 1.414 . S
C728 C731 1.499 . S
C729 H703 0.950 . S
C729 C728 1.414 . S
C729 C730 1.374 . S
C730 H704 0.950 . S
C730 C726 1.385 . S
C730 C729 1.374 . S
C731 C728 1.499 . S
C731 C732 1.373 . S
C731 C733 1.389 . S
C732 H705 0.950 . S
C732 C718 1.377 . S
C732 C731 1.373 . S
C733 C717 1.377 . S
C733 C731 1.389 . S
C733 C734 1.524 . S
C734 C733 1.524 . S
C734 C735 1.397 . S
C734 C739 1.363 . S
C735 H706 0.950 . S
C735 C734 1.397 . S
C735 C736 1.334 . S
C736 H707 0.950 . S
C736 C735 1.334 . S
C736 C737 1.287 . S
C737 C736 1.287 . S
C737 C738 1.524 . S
C737 H740 0.999 . S
C738 H708 0.950 . S
C738 C737 1.524 . S
C738 C739 1.415 . S
C739 H709 0.950 . S
C739 C734 1.363 . S
C739 C738 1.415 . S
H740 C737 0.999 . S
H741 C722 0.913 . S
H742 C760 0.951 . S
H743 C762 0.951 . S
H744 C764 0.950 . S
H745 C765 0.950 . S
H746 C767 0.950 . S
H747 C770 0.950 . S
H748 C771 0.950 . S
H749 C773 0.950 . S
H750 C774 0.950 . S
H751 C775 0.951 . S
H752 C777 0.951 . S
H753 C779 0.950 . S
H754 C780 0.950 . S
H755 C782 0.950 . S
H756 C785 0.950 . S
H757 C786 0.950 . S
H758 C788 0.950 . S
H759 C789 0.950 . S
C760 H742 0.951 . S
C760 C761 1.366 . S
C760 C762 1.388 . S
C761 C760 1.366 . S
C761 C765 1.385 . S
C762 H743 0.951 . S
C762 C760 1.388 . S
C762 C763 1.366 . S
C763 C762 1.366 . S
C763 C764 1.414 . S
C763 C766 1.499 . S
C764 H744 0.950 . S
C764 C763 1.414 . S
C764 C765 1.374 . S
C765 H745 0.950 . S
C765 C761 1.385 . S
C765 C764 1.374 . S
C766 C763 1.499 . S
C766 C767 1.373 . S
C766 C768 1.389 . S
C767 H746 0.950 . S
C767 C766 1.373 . S
C767 C783 1.377 . S
C768 C766 1.389 . S
C768 C769 1.524 . S
C768 C782 1.377 . S
C769 C768 1.524 . S
C769 C770 1.397 . S
C769 C774 1.363 . S
C770 H747 0.950 . S
C770 C769 1.397 . S
C770 C771 1.334 1_455 S
C771 H748 0.950 . S
C771 C770 1.334 1_655 S
C771 C772 1.287 . S
C772 C771 1.287 . S
C772 C773 1.524 . S
C772 H791 0.913 . S
C773 H749 0.950 . S
C773 C772 1.524 . S
C773 C774 1.415 1_655 S
C774 H750 0.950 . S
C774 C769 1.363 . S
C774 C773 1.415 1_455 S
C775 H751 0.951 . S
C775 C776 1.366 . S
C775 C777 1.388 . S
C776 C775 1.366 . S
C776 C780 1.385 . S
C777 H752 0.951 . S
C777 C775 1.388 . S
C777 C778 1.366 . S
C778 C777 1.366 . S
C778 C779 1.414 . S
C778 C781 1.499 . S
C779 H753 0.950 . S
C779 C778 1.414 . S
C779 C780 1.374 . S
C780 H754 0.950 . S
C780 C776 1.385 . S
C780 C779 1.374 . S
C781 C778 1.499 . S
C781 C782 1.373 . S
C781 C783 1.389 . S
C782 H755 0.950 . S
C782 C768 1.377 . S
C782 C781 1.373 . S
C783 C767 1.377 . S
C783 C781 1.389 . S
C783 C784 1.524 . S
C784 C783 1.524 . S
C784 C785 1.397 . S
C784 C789 1.363 . S
C785 H756 0.950 . S
C785 C784 1.397 . S
C785 C786 1.334 . S
C786 H757 0.950 . S
C786 C785 1.334 . S
C786 C787 1.287 . S
C787 C786 1.287 . S
C787 C788 1.524 . S
C787 H790 0.999 . S
C788 H758 0.950 . S
C788 C787 1.524 . S
C788 C789 1.415 . S
C789 H759 0.950 . S
C789 C784 1.363 . S
C789 C788 1.415 . S
H790 C787 0.999 . S
H791 C772 0.913 . S
H792 C810 0.951 . S
H793 C812 0.951 . S
H794 C814 0.950 . S
H795 C815 0.950 . S
H796 C817 0.950 . S
H797 C820 0.950 . S
H798 C821 0.950 . S
H799 C823 0.950 . S
H800 C824 0.950 . S
H801 C825 0.951 . S
H802 C827 0.951 . S
H803 C829 0.950 . S
H804 C830 0.950 1_545 S
H805 C832 0.950 . S
H806 C835 0.950 . S
H807 C836 0.950 . S
H808 C838 0.950 . S
H809 C839 0.950 . S
C810 H792 0.951 . S
C810 C811 1.366 . S
C810 C812 1.388 1_554 S
C811 C810 1.366 . S
C811 C815 1.385 . S
C812 H793 0.951 . S
C812 C810 1.388 1_556 S
C812 C813 1.366 . S
C813 C812 1.366 . S
C813 C814 1.414 1_556 S
C813 C816 1.499 . S
C814 H794 0.950 . S
C814 C813 1.414 1_554 S
C814 C815 1.374 . S
C815 H795 0.950 . S
C815 C811 1.385 . S
C815 C814 1.374 . S
C816 C813 1.499 . S
C816 C817 1.373 . S
C816 C818 1.389 . S
C817 H796 0.950 . S
C817 C816 1.373 . S
C817 C833 1.377 . S
C818 C816 1.389 . S
C818 C819 1.524 . S
C818 C832 1.377 . S
C819 C818 1.524 . S
C819 C820 1.397 . S
C819 C824 1.363 . S
C820 H797 0.950 . S
C820 C819 1.397 . S
C820 C821 1.334 . S
C821 H798 0.950 . S
C821 C820 1.334 . S
C821 C822 1.287 . S
C822 C821 1.287 . S
C822 C823 1.524 . S
C822 H841 0.913 . S
C823 H799 0.950 . S
C823 C822 1.524 . S
C823 C824 1.415 . S
C824 H800 0.950 . S
C824 C819 1.363 . S
C824 C823 1.415 . S
C825 H801 0.951 . S
C825 C826 1.366 . S
C825 C827 1.388 . S
C826 C825 1.366 . S
C826 C830 1.385 . S
C827 H802 0.951 . S
C827 C825 1.388 . S
C827 C828 1.366 . S
C828 C827 1.366 . S
C828 C829 1.414 . S
C828 C831 1.499 . S
C829 H803 0.950 . S
C829 C828 1.414 . S
C829 C830 1.374 . S
C830 H804 0.950 1_565 S
C830 C826 1.385 . S
C830 C829 1.374 . S
C831 C828 1.499 . S
C831 C832 1.373 . S
C831 C833 1.389 . S
C832 H805 0.950 . S
C832 C818 1.377 . S
C832 C831 1.373 . S
C833 C817 1.377 . S
C833 C831 1.389 . S
C833 C834 1.524 . S
C834 C833 1.524 . S
C834 C835 1.397 1_565 S
C834 C839 1.363 . S
C835 H806 0.950 . S
C835 C834 1.397 1_545 S
C835 C836 1.334 . S
C836 H807 0.950 . S
C836 C835 1.334 . S
C836 C837 1.287 . S
C837 C836 1.287 . S
C837 C838 1.524 1_545 S
C837 H840 0.999 . S
C838 H808 0.950 . S
C838 C837 1.524 1_565 S
C838 C839 1.415 . S
C839 H809 0.950 . S
C839 C834 1.363 . S
C839 C838 1.415 . S
H840 C837 0.999 . S
H841 C822 0.913 . S
H842 C860 0.951 . S
H843 C862 0.951 . S
H844 C864 0.950 . S
H845 C865 0.950 . S
H846 C867 0.950 . S
H847 C870 0.950 . S
H848 C871 0.950 . S
H849 C873 0.950 . S
H850 C874 0.950 . S
H851 C875 0.951 . S
H852 C877 0.951 . S
H853 C879 0.950 . S
H854 C880 0.950 . S
H855 C882 0.950 . S
H856 C885 0.950 . S
H857 C886 0.950 . S
H858 C888 0.950 . S
H859 C889 0.950 . S
C860 H842 0.951 . S
C860 C861 1.366 . S
C860 C862 1.388 . S
C861 C860 1.366 . S
C861 C865 1.385 . S
C862 H843 0.951 . S
C862 C860 1.388 . S
C862 C863 1.366 1_554 S
C863 C862 1.366 1_556 S
C863 C864 1.414 . S
C863 C866 1.499 . S
C864 H844 0.950 . S
C864 C863 1.414 . S
C864 C865 1.374 1_556 S
C865 H845 0.950 . S
C865 C861 1.385 . S
C865 C864 1.374 1_554 S
C866 C863 1.499 . S
C866 C867 1.373 . S
C866 C868 1.389 . S
C867 H846 0.950 . S
C867 C866 1.373 . S
C867 C883 1.377 . S
C868 C866 1.389 . S
C868 C869 1.524 . S
C868 C882 1.377 . S
C869 C868 1.524 . S
C869 C870 1.397 . S
C869 C874 1.363 . S
C870 H847 0.950 . S
C870 C869 1.397 . S
C870 C871 1.334 . S
C871 H848 0.950 . S
C871 C870 1.334 . S
C871 C872 1.287 . S
C872 C871 1.287 . S
C872 C873 1.524 . S
C872 H891 0.913 . S
C873 H849 0.950 . S
C873 C872 1.524 . S
C873 C874 1.415 . S
C874 H850 0.950 . S
C874 C869 1.363 . S
C874 C873 1.415 . S
C875 H851 0.951 . S
C875 C876 1.366 . S
C875 C877 1.388 . S
C876 C875 1.366 . S
C876 C880 1.385 . S
C877 H852 0.951 . S
C877 C875 1.388 . S
C877 C878 1.366 . S
C878 C877 1.366 . S
C878 C879 1.414 . S
C878 C881 1.499 . S
C879 H853 0.950 . S
C879 C878 1.414 . S
C879 C880 1.374 . S
C880 H854 0.950 . S
C880 C876 1.385 . S
C880 C879 1.374 . S
C881 C878 1.499 . S
C881 C882 1.373 . S
C881 C883 1.389 . S
C882 H855 0.950 . S
C882 C868 1.377 . S
C882 C881 1.373 . S
C883 C867 1.377 . S
C883 C881 1.389 . S
C883 C884 1.524 . S
C884 C883 1.524 . S
C884 C885 1.397 . S
C884 C889 1.363 . S
C885 H856 0.950 . S
C885 C884 1.397 . S
C885 C886 1.334 . S
C886 H857 0.950 . S
C886 C885 1.334 . S
C886 C887 1.287 . S
C887 C886 1.287 . S
C887 C888 1.524 . S
C887 H890 0.999 . S
C888 H858 0.950 . S
C888 C887 1.524 . S
C888 C889 1.415 . S
C889 H859 0.950 . S
C889 C884 1.363 . S
C889 C888 1.415 . S
H890 C887 0.999 . S
H891 C872 0.913 . S
H892 C910 0.951 . S
H893 C912 0.951 . S
H894 C914 0.950 . S
H895 C915 0.950 . S
H896 C917 0.950 . S
H897 C920 0.950 . S
H898 C921 0.950 . S
H899 C923 0.951 . S
H900 C924 0.950 . S
H901 C925 0.951 . S
H902 C927 0.951 . S
H903 C929 0.950 . S
H904 C930 0.950 . S
H905 C932 0.950 . S
H906 C935 0.950 . S
H907 C936 0.950 . S
H908 C938 0.950 . S
H909 C939 0.950 . S
C910 H892 0.951 . S
C910 C911 1.366 . S
C910 C912 1.388 1_554 S
C911 C910 1.366 . S
C911 C915 1.385 . S
C912 H893 0.951 . S
C912 C910 1.388 1_556 S
C912 C913 1.366 . S
C913 C912 1.366 . S
C913 C914 1.414 . S
C913 C916 1.499 . S
C914 H894 0.950 . S
C914 C913 1.414 . S
C914 C915 1.374 1_556 S
C915 H895 0.950 . S
C915 C911 1.385 . S
C915 C914 1.374 1_554 S
C916 C913 1.499 . S
C916 C917 1.373 . S
C916 C918 1.389 . S
C917 H896 0.950 . S
C917 C916 1.373 . S
C917 C933 1.377 . S
C918 C916 1.389 . S
C918 C919 1.524 . S
C918 C932 1.377 . S
C919 C918 1.524 . S
C919 C920 1.397 1_556 S
C919 C924 1.363 . S
C920 H897 0.950 . S
C920 C919 1.397 1_554 S
C920 C921 1.334 . S
C921 H898 0.950 . S
C921 C920 1.334 . S
C921 C922 1.287 . S
C922 C921 1.287 . S
C922 C923 1.524 . S
C922 H941 0.913 . S
C923 H899 0.951 . S
C923 C922 1.524 . S
C923 C924 1.415 1_554 S
C924 H900 0.950 . S
C924 C919 1.363 . S
C924 C923 1.415 1_556 S
C925 H901 0.951 . S
C925 C926 1.366 . S
C925 C927 1.388 . S
C926 C925 1.366 . S
C926 C930 1.385 . S
C927 H902 0.951 . S
C927 C925 1.388 . S
C927 C928 1.366 . S
C928 C927 1.366 . S
C928 C929 1.414 . S
C928 C931 1.499 . S
C929 H903 0.950 . S
C929 C928 1.414 . S
C929 C930 1.374 . S
C930 H904 0.950 . S
C930 C926 1.385 . S
C930 C929 1.374 . S
C931 C928 1.499 . S
C931 C932 1.373 . S
C931 C933 1.389 . S
C932 H905 0.950 . S
C932 C918 1.377 . S
C932 C931 1.373 . S
C933 C917 1.377 . S
C933 C931 1.389 . S
C933 C934 1.524 . S
C934 C933 1.524 . S
C934 C935 1.397 . S
C934 C939 1.363 . S
C935 H906 0.950 . S
C935 C934 1.397 . S
C935 C936 1.334 . S
C936 H907 0.950 . S
C936 C935 1.334 . S
C936 C937 1.287 . S
C937 C936 1.287 . S
C937 C938 1.524 . S
C937 H940 0.999 . S
C938 H908 0.950 . S
C938 C937 1.524 . S
C938 C939 1.415 . S
C939 H909 0.950 . S
C939 C934 1.363 . S
C939 C938 1.415 . S
H940 C937 0.999 . S
H941 C922 0.913 . S
H942 C960 0.951 . S
H943 C962 0.951 . S
H944 C964 0.950 . S
H945 C965 0.950 1_556 S
H946 C967 0.950 . S
H947 C970 0.950 . S
H948 C971 0.950 . S
H949 C973 0.950 . S
H950 C974 0.950 1_655 S
H951 C975 0.951 . S
H952 C977 0.951 . S
H953 C979 0.950 . S
H954 C980 0.950 . S
H955 C982 0.950 . S
H956 C985 0.950 . S
H957 C986 0.950 . S
H958 C988 0.950 . S
H959 C989 0.950 . S
C960 H942 0.951 . S
C960 C961 1.366 . S
C960 C962 1.388 . S
C961 C960 1.366 . S
C961 C965 1.385 . S
C962 H943 0.951 . S
C962 C960 1.388 . S
C962 C963 1.366 1_554 S
C963 C962 1.366 1_556 S
C963 C964 1.414 . S
C963 C966 1.499 . S
C964 H944 0.950 . S
C964 C963 1.414 . S
C964 C965 1.374 1_556 S
C965 H945 0.950 1_554 S
C965 C961 1.385 . S
C965 C964 1.374 1_554 S
C966 C963 1.499 . S
C966 C967 1.373 . S
C966 C968 1.389 . S
C967 H946 0.950 . S
C967 C966 1.373 . S
C967 C983 1.377 . S
C968 C966 1.389 . S
C968 C969 1.524 . S
C968 C982 1.377 . S
C969 C968 1.524 . S
C969 C970 1.397 . S
C969 C974 1.363 1_655 S
C970 H947 0.950 . S
C970 C969 1.397 . S
C970 C971 1.334 1_656 S
C971 H948 0.950 . S
C971 C970 1.334 1_454 S
C971 C972 1.287 . S
C972 C971 1.287 . S
C972 C973 1.524 . S
C972 H991 0.913 . S
C973 H949 0.950 . S
C973 C972 1.524 . S
C973 C974 1.415 1_554 S
C974 H950 0.950 1_455 S
C974 C969 1.363 1_455 S
C974 C973 1.415 1_556 S
C975 H951 0.951 . S
C975 C976 1.366 . S
C975 C977 1.388 . S
C976 C975 1.366 . S
C976 C980 1.385 . S
C977 H952 0.951 . S
C977 C975 1.388 . S
C977 C978 1.366 . S
C978 C977 1.366 . S
C978 C979 1.414 . S
C978 C981 1.499 . S
C979 H953 0.950 . S
C979 C978 1.414 . S
C979 C980 1.374 . S
C980 H954 0.950 . S
C980 C976 1.385 . S
C980 C979 1.374 . S
C981 C978 1.499 . S
C981 C982 1.373 . S
C981 C983 1.389 . S
C982 H955 0.950 . S
C982 C968 1.377 . S
C982 C981 1.373 . S
C983 C967 1.377 . S
C983 C981 1.389 . S
C983 C984 1.524 . S
C984 C983 1.524 . S
C984 C985 1.397 . S
C984 C989 1.363 . S
C985 H956 0.950 . S
C985 C984 1.397 . S
C985 C986 1.334 . S
C986 H957 0.950 . S
C986 C985 1.334 . S
C986 C987 1.287 . S
C987 C986 1.287 . S
C987 C988 1.524 . S
C987 H990 0.999 . S
C988 H958 0.950 . S
C988 C987 1.524 . S
C988 C989 1.415 . S
C989 H959 0.950 . S
C989 C984 1.363 . S
C989 C988 1.415 . S
H990 C987 0.999 . S
H991 C972 0.913 . S
H992 C1010 0.951 . S
H993 C1012 0.951 . S
H994 C1014 0.950 . S
H995 C1015 0.950 . S
H996 C1017 0.950 . S
H997 C1020 0.950 . S
H998 C1021 0.950 . S
H999 C1023 0.950 . S
H1000 C1024 0.950 . S
H1001 C1025 0.951 . S
H1002 C1027 0.951 1_655 S
H1003 C1029 0.950 . S
H1004 C1030 0.950 . S
H1005 C1032 0.950 . S
H1006 C1035 0.950 . S
H1007 C1036 0.950 . S
H1008 C1038 0.950 1_655 S
H1009 C1039 0.950 . S
C1010 H992 0.951 . S
C1010 C1011 1.366 . S
C1010 C1012 1.388 . S
C1011 C1010 1.366 . S
C1011 C1015 1.385 . S
C1012 H993 0.951 . S
C1012 C1010 1.388 . S
C1012 C1013 1.366 . S
C1013 C1012 1.366 . S
C1013 C1014 1.414 . S
C1013 C1016 1.499 . S
C1014 H994 0.950 . S
C1014 C1013 1.414 . S
C1014 C1015 1.374 . S
C1015 H995 0.950 . S
C1015 C1011 1.385 . S
C1015 C1014 1.374 . S
C1016 C1013 1.499 . S
C1016 C1017 1.373 . S
C1016 C1018 1.389 . S
C1017 H996 0.950 . S
C1017 C1016 1.373 . S
C1017 C1033 1.377 . S
C1018 C1016 1.389 . S
C1018 C1019 1.524 . S
C1018 C1032 1.377 . S
C1019 C1018 1.524 . S
C1019 C1020 1.397 . S
C1019 C1024 1.363 . S
C1020 H997 0.950 . S
C1020 C1019 1.397 . S
C1020 C1021 1.334 . S
C1021 H998 0.950 . S
C1021 C1020 1.334 . S
C1021 C1022 1.287 . S
C1022 C1021 1.287 . S
C1022 C1023 1.524 . S
C1022 H1041 0.913 . S
C1023 H999 0.950 . S
C1023 C1022 1.524 . S
C1023 C1024 1.415 . S
C1024 H1000 0.950 . S
C1024 C1019 1.363 . S
C1024 C1023 1.415 . S
C1025 H1001 0.951 . S
C1025 C1026 1.366 1_655 S
C1025 C1027 1.388 1_655 S
C1026 C1025 1.366 1_455 S
C1026 C1030 1.385 . S
C1027 H1002 0.951 1_455 S
C1027 C1025 1.388 1_455 S
C1027 C1028 1.366 . S
C1028 C1027 1.366 . S
C1028 C1029 1.414 . S
C1028 C1031 1.499 . S
C1029 H1003 0.950 . S
C1029 C1028 1.414 . S
C1029 C1030 1.374 . S
C1030 H1004 0.950 . S
C1030 C1026 1.385 . S
C1030 C1029 1.374 . S
C1031 C1028 1.499 . S
C1031 C1032 1.373 . S
C1031 C1033 1.389 . S
C1032 H1005 0.950 . S
C1032 C1018 1.377 . S
C1032 C1031 1.373 . S
C1033 C1017 1.377 . S
C1033 C1031 1.389 . S
C1033 C1034 1.524 . S
C1034 C1033 1.524 . S
C1034 C1035 1.397 . S
C1034 C1039 1.363 . S
C1035 H1006 0.950 . S
C1035 C1034 1.397 . S
C1035 C1036 1.334 . S
C1036 H1007 0.950 . S
C1036 C1035 1.334 . S
C1036 C1037 1.287 . S
C1037 C1036 1.287 . S
C1037 C1038 1.524 . S
C1037 H1040 0.999 . S
C1038 H1008 0.950 1_455 S
C1038 C1037 1.524 . S
C1038 C1039 1.415 . S
C1039 H1009 0.950 . S
C1039 C1034 1.363 . S
C1039 C1038 1.415 . S
H1040 C1037 0.999 . S
H1041 C1022 0.913 . S
H1042 C1060 0.951 . S
H1043 C1062 0.951 . S
H1044 C1064 0.950 . S
H1045 C1065 0.950 . S
H1046 C1067 0.950 . S
H1047 C1070 0.950 . S
H1048 C1071 0.950 . S
H1049 C1073 0.950 . S
H1050 C1074 0.950 . S
H1051 C1075 0.951 . S
H1052 C1077 0.951 1_565 S
H1053 C1079 0.950 . S
H1054 C1080 0.950 . S
H1055 C1082 0.950 . S
H1056 C1085 0.950 1_545 S
H1057 C1086 0.950 . S
H1058 C1088 0.950 . S
H1059 C1089 0.950 . S
C1060 H1042 0.951 . S
C1060 C1061 1.366 . S
C1060 C1062 1.388 . S
C1061 C1060 1.366 . S
C1061 C1065 1.385 . S
C1062 H1043 0.951 . S
C1062 C1060 1.388 . S
C1062 C1063 1.366 . S
C1063 C1062 1.366 . S
C1063 C1064 1.414 . S
C1063 C1066 1.499 . S
C1064 H1044 0.950 . S
C1064 C1063 1.414 . S
C1064 C1065 1.374 . S
C1065 H1045 0.950 . S
C1065 C1061 1.385 . S
C1065 C1064 1.374 . S
C1066 C1063 1.499 . S
C1066 C1067 1.373 . S
C1066 C1068 1.389 . S
C1067 H1046 0.950 . S
C1067 C1066 1.373 . S
C1067 C1083 1.377 . S
C1068 C1066 1.389 . S
C1068 C1069 1.524 . S
C1068 C1082 1.377 . S
C1069 C1068 1.524 . S
C1069 C1070 1.397 . S
C1069 C1074 1.363 . S
C1070 H1047 0.950 . S
C1070 C1069 1.397 . S
C1070 C1071 1.334 . S
C1071 H1048 0.950 . S
C1071 C1070 1.334 . S
C1071 C1072 1.287 . S
C1072 C1071 1.287 . S
C1072 C1073 1.524 . S
C1072 H1091 0.913 . S
C1073 H1049 0.950 . S
C1073 C1072 1.524 . S
C1073 C1074 1.415 . S
C1074 H1050 0.950 . S
C1074 C1069 1.363 . S
C1074 C1073 1.415 . S
C1075 H1051 0.951 . S
C1075 C1076 1.366 1_565 S
C1075 C1077 1.388 1_565 S
C1076 C1075 1.366 1_545 S
C1076 C1080 1.385 . S
C1077 H1052 0.951 1_545 S
C1077 C1075 1.388 1_545 S
C1077 C1078 1.366 . S
C1078 C1077 1.366 . S
C1078 C1079 1.414 . S
C1078 C1081 1.499 . S
C1079 H1053 0.950 . S
C1079 C1078 1.414 . S
C1079 C1080 1.374 . S
C1080 H1054 0.950 . S
C1080 C1076 1.385 . S
C1080 C1079 1.374 . S
C1081 C1078 1.499 . S
C1081 C1082 1.373 . S
C1081 C1083 1.389 . S
C1082 H1055 0.950 . S
C1082 C1068 1.377 . S
C1082 C1081 1.373 . S
C1083 C1067 1.377 . S
C1083 C1081 1.389 . S
C1083 C1084 1.524 1_545 S
C1084 C1083 1.524 1_565 S
C1084 C1085 1.397 . S
C1084 C1089 1.363 . S
C1085 H1056 0.950 1_565 S
C1085 C1084 1.397 . S
C1085 C1086 1.334 . S
C1086 H1057 0.950 . S
C1086 C1085 1.334 . S
C1086 C1087 1.287 . S
C1087 C1086 1.287 . S
C1087 C1088 1.524 . S
C1087 H1090 0.999 . S
C1088 H1058 0.950 . S
C1088 C1087 1.524 . S
C1088 C1089 1.415 . S
C1089 H1059 0.950 . S
C1089 C1084 1.363 . S
C1089 C1088 1.415 . S
H1090 C1087 0.999 . S
H1091 C1072 0.913 . S
H1092 C1110 0.951 . S
H1093 C1112 0.951 . S
H1094 C1114 0.950 . S
H1095 C1115 0.950 . S
H1096 C1117 0.950 . S
H1097 C1120 0.950 . S
H1098 C1121 0.950 . S
H1099 C1123 0.950 . S
H1100 C1124 0.950 . S
H1101 C1125 0.951 . S
H1102 C1127 0.951 . S
H1103 C1129 0.950 . S
H1104 C1130 0.950 . S
H1105 C1132 0.950 . S
H1106 C1135 0.950 . S
H1107 C1136 0.950 . S
H1108 C1138 0.950 . S
H1109 C1139 0.950 . S
C1110 H1092 0.951 . S
C1110 C1111 1.366 . S
C1110 C1112 1.388 . S
C1111 C1110 1.366 . S
C1111 C1115 1.385 . S
C1112 H1093 0.951 . S
C1112 C1110 1.388 . S
C1112 C1113 1.366 . S
C1113 C1112 1.366 . S
C1113 C1114 1.414 . S
C1113 C1116 1.499 . S
C1114 H1094 0.950 . S
C1114 C1113 1.414 . S
C1114 C1115 1.374 . S
C1115 H1095 0.950 . S
C1115 C1111 1.385 . S
C1115 C1114 1.374 . S
C1116 C1113 1.499 . S
C1116 C1117 1.373 . S
C1116 C1118 1.389 . S
C1117 H1096 0.950 . S
C1117 C1116 1.373 . S
C1117 C1133 1.377 . S
C1118 C1116 1.389 . S
C1118 C1119 1.524 . S
C1118 C1132 1.377 . S
C1119 C1118 1.524 . S
C1119 C1120 1.397 . S
C1119 C1124 1.363 . S
C1120 H1097 0.950 . S
C1120 C1119 1.397 . S
C1120 C1121 1.334 . S
C1121 H1098 0.950 . S
C1121 C1120 1.334 . S
C1121 C1122 1.287 . S
C1122 C1121 1.287 . S
C1122 C1123 1.524 . S
C1122 H1141 0.913 . S
C1123 H1099 0.950 . S
C1123 C1122 1.524 . S
C1123 C1124 1.415 . S
C1124 H1100 0.950 . S
C1124 C1119 1.363 . S
C1124 C1123 1.415 . S
C1125 H1101 0.951 . S
C1125 C1126 1.366 . S
C1125 C1127 1.388 . S
C1126 C1125 1.366 . S
C1126 C1130 1.385 . S
C1127 H1102 0.951 . S
C1127 C1125 1.388 . S
C1127 C1128 1.366 . S
C1128 C1127 1.366 . S
C1128 C1129 1.414 . S
C1128 C1131 1.499 . S
C1129 H1103 0.950 . S
C1129 C1128 1.414 . S
C1129 C1130 1.374 . S
C1130 H1104 0.950 . S
C1130 C1126 1.385 . S
C1130 C1129 1.374 . S
C1131 C1128 1.499 . S
C1131 C1132 1.373 . S
C1131 C1133 1.389 . S
C1132 H1105 0.950 . S
C1132 C1118 1.377 . S
C1132 C1131 1.373 . S
C1133 C1117 1.377 . S
C1133 C1131 1.389 . S
C1133 C1134 1.524 . S
C1134 C1133 1.524 . S
C1134 C1135 1.397 . S
C1134 C1139 1.363 . S
C1135 H1106 0.950 . S
C1135 C1134 1.397 . S
C1135 C1136 1.334 . S
C1136 H1107 0.950 . S
C1136 C1135 1.334 . S
C1136 C1137 1.287 . S
C1137 C1136 1.287 . S
C1137 C1138 1.524 . S
C1137 H1140 0.999 . S
C1138 H1108 0.950 . S
C1138 C1137 1.524 . S
C1138 C1139 1.415 . S
C1139 H1109 0.950 . S
C1139 C1134 1.363 . S
C1139 C1138 1.415 . S
H1140 C1137 0.999 . S
H1141 C1122 0.913 . S
H1142 C1160 0.951 . S
H1143 C1162 0.951 . S
H1144 C1164 0.950 . S
H1145 C1165 0.950 . S
H1146 C1167 0.950 . S
H1147 C1170 0.950 . S
H1148 C1171 0.950 . S
H1149 C1173 0.950 . S
H1150 C1174 0.950 . S
H1151 C1175 0.951 . S
H1152 C1177 0.951 . S
H1153 C1179 0.950 . S
H1154 C1180 0.950 . S
H1155 C1182 0.950 . S
H1156 C1185 0.950 . S
H1157 C1186 0.950 . S
H1158 C1188 0.950 . S
H1159 C1189 0.950 . S
C1160 H1142 0.951 . S
C1160 C1161 1.366 . S
C1160 C1162 1.388 . S
C1161 C1160 1.366 . S
C1161 C1165 1.385 . S
C1162 H1143 0.951 . S
C1162 C1160 1.388 . S
C1162 C1163 1.366 . S
C1163 C1162 1.366 . S
C1163 C1164 1.414 . S
C1163 C1166 1.499 . S
C1164 H1144 0.950 . S
C1164 C1163 1.414 . S
C1164 C1165 1.374 . S
C1165 H1145 0.950 . S
C1165 C1161 1.385 . S
C1165 C1164 1.374 . S
C1166 C1163 1.499 . S
C1166 C1167 1.373 . S
C1166 C1168 1.389 . S
C1167 H1146 0.950 . S
C1167 C1166 1.373 . S
C1167 C1183 1.377 . S
C1168 C1166 1.389 . S
C1168 C1169 1.524 . S
C1168 C1182 1.377 . S
C1169 C1168 1.524 . S
C1169 C1170 1.397 . S
C1169 C1174 1.363 . S
C1170 H1147 0.950 . S
C1170 C1169 1.397 . S
C1170 C1171 1.334 . S
C1171 H1148 0.950 . S
C1171 C1170 1.334 . S
C1171 C1172 1.287 . S
C1172 C1171 1.287 . S
C1172 C1173 1.524 . S
C1172 H1191 0.913 . S
C1173 H1149 0.950 . S
C1173 C1172 1.524 . S
C1173 C1174 1.415 . S
C1174 H1150 0.950 . S
C1174 C1169 1.363 . S
C1174 C1173 1.415 . S
C1175 H1151 0.951 . S
C1175 C1176 1.366 . S
C1175 C1177 1.388 . S
C1176 C1175 1.366 . S
C1176 C1180 1.385 . S
C1177 H1152 0.951 . S
C1177 C1175 1.388 . S
C1177 C1178 1.366 . S
C1178 C1177 1.366 . S
C1178 C1179 1.414 . S
C1178 C1181 1.499 . S
C1179 H1153 0.950 . S
C1179 C1178 1.414 . S
C1179 C1180 1.374 . S
C1180 H1154 0.950 . S
C1180 C1176 1.385 . S
C1180 C1179 1.374 . S
C1181 C1178 1.499 . S
C1181 C1182 1.373 . S
C1181 C1183 1.389 . S
C1182 H1155 0.950 . S
C1182 C1168 1.377 . S
C1182 C1181 1.373 . S
C1183 C1167 1.377 . S
C1183 C1181 1.389 . S
C1183 C1184 1.524 . S
C1184 C1183 1.524 . S
C1184 C1185 1.397 . S
C1184 C1189 1.363 . S
C1185 H1156 0.950 . S
C1185 C1184 1.397 . S
C1185 C1186 1.334 . S
C1186 H1157 0.950 . S
C1186 C1185 1.334 . S
C1186 C1187 1.287 . S
C1187 C1186 1.287 . S
C1187 C1188 1.524 . S
C1187 H1190 0.999 . S
C1188 H1158 0.950 . S
C1188 C1187 1.524 . S
C1188 C1189 1.415 . S
C1189 H1159 0.950 . S
C1189 C1184 1.363 . S
C1189 C1188 1.415 . S
H1190 C1187 0.999 . S
H1191 C1172 0.913 . S
H1192 C1210 0.951 . S
H1193 C1212 0.951 . S
H1194 C1214 0.950 . S
H1195 C1215 0.950 1_554 S
H1196 C1217 0.950 . S
H1197 C1220 0.950 . S
H1198 C1221 0.950 . S
H1199 C1223 0.950 . S
H1200 C1224 0.950 . S
H1201 C1225 0.951 . S
H1202 C1227 0.951 . S
H1203 C1229 0.950 . S
H1204 C1230 0.950 . S
H1205 C1232 0.950 . S
H1206 C1235 0.950 1_655 S
H1207 C1236 0.950 . S
H1208 C1238 0.950 . S
H1209 C1239 0.950 . S
C1210 H1192 0.951 . S
C1210 C1211 1.366 . S
C1210 C1212 1.388 1_554 S
C1211 C1210 1.366 . S
C1211 C1215 1.385 1_554 S
C1212 H1193 0.951 . S
C1212 C1210 1.388 1_556 S
C1212 C1213 1.366 . S
C1213 C1212 1.366 . S
C1213 C1214 1.414 . S
C1213 C1216 1.499 . S
C1214 H1194 0.950 . S
C1214 C1213 1.414 . S
C1214 C1215 1.374 . S
C1215 H1195 0.950 1_556 S
C1215 C1211 1.385 1_556 S
C1215 C1214 1.374 . S
C1216 C1213 1.499 . S
C1216 C1217 1.373 . S
C1216 C1218 1.389 . S
C1217 H1196 0.950 . S
C1217 C1216 1.373 . S
C1217 C1233 1.377 . S
C1218 C1216 1.389 . S
C1218 C1219 1.524 . S
C1218 C1232 1.377 . S
C1219 C1218 1.524 . S
C1219 C1220 1.397 . S
C1219 C1224 1.363 . S
C1220 H1197 0.950 . S
C1220 C1219 1.397 . S
C1220 C1221 1.334 . S
C1221 H1198 0.950 . S
C1221 C1220 1.334 . S
C1221 C1222 1.287 . S
C1222 C1221 1.287 . S
C1222 C1223 1.524 . S
C1222 H1241 0.913 . S
C1223 H1199 0.950 . S
C1223 C1222 1.524 . S
C1223 C1224 1.415 . S
C1224 H1200 0.950 . S
C1224 C1219 1.363 . S
C1224 C1223 1.415 . S
C1225 H1201 0.951 . S
C1225 C1226 1.366 . S
C1225 C1227 1.388 . S
C1226 C1225 1.366 . S
C1226 C1230 1.385 1_455 S
C1227 H1202 0.951 . S
C1227 C1225 1.388 . S
C1227 C1228 1.366 1_455 S
C1228 C1227 1.366 1_655 S
C1228 C1229 1.414 . S
C1228 C1231 1.499 . S
C1229 H1203 0.950 . S
C1229 C1228 1.414 . S
C1229 C1230 1.374 . S
C1230 H1204 0.950 . S
C1230 C1226 1.385 1_655 S
C1230 C1229 1.374 . S
C1231 C1228 1.499 . S
C1231 C1232 1.373 . S
C1231 C1233 1.389 . S
C1232 H1205 0.950 . S
C1232 C1218 1.377 . S
C1232 C1231 1.373 . S
C1233 C1217 1.377 . S
C1233 C1231 1.389 . S
C1233 C1234 1.524 1_655 S
C1234 C1233 1.524 1_455 S
C1234 C1235 1.397 . S
C1234 C1239 1.363 . S
C1235 H1206 0.950 1_455 S
C1235 C1234 1.397 . S
C1235 C1236 1.334 . S
C1236 H1207 0.950 . S
C1236 C1235 1.334 . S
C1236 C1237 1.287 . S
C1237 C1236 1.287 . S
C1237 C1238 1.524 . S
C1237 H1240 0.999 1_556 S
C1238 H1208 0.950 . S
C1238 C1237 1.524 . S
C1238 C1239 1.415 . S
C1239 H1209 0.950 . S
C1239 C1234 1.363 . S
C1239 C1238 1.415 . S
H1240 C1237 0.999 1_554 S
H1241 C1222 0.913 . S
H1242 C1260 0.951 . S
H1243 C1262 0.951 . S
H1244 C1264 0.950 . S
H1245 C1265 0.950 . S
H1246 C1267 0.950 . S
H1247 C1270 0.950 . S
H1248 C1271 0.950 . S
H1249 C1273 0.950 . S
H1250 C1274 0.950 . S
H1251 C1275 0.951 . S
H1252 C1277 0.951 . S
H1253 C1279 0.950 . S
H1254 C1280 0.950 . S
H1255 C1282 0.950 . S
H1256 C1285 0.950 . S
H1257 C1286 0.950 . S
H1258 C1288 0.950 . S
H1259 C1289 0.950 . S
C1260 H1242 0.951 . S
C1260 C1261 1.366 . S
C1260 C1262 1.388 1_554 S
C1261 C1260 1.366 . S
C1261 C1265 1.385 1_554 S
C1262 H1243 0.951 . S
C1262 C1260 1.388 1_556 S
C1262 C1263 1.366 . S
C1263 C1262 1.366 . S
C1263 C1264 1.414 . S
C1263 C1266 1.499 . S
C1264 H1244 0.950 . S
C1264 C1263 1.414 . S
C1264 C1265 1.374 . S
C1265 H1245 0.950 . S
C1265 C1261 1.385 1_556 S
C1265 C1264 1.374 . S
C1266 C1263 1.499 . S
C1266 C1267 1.373 . S
C1266 C1268 1.389 . S
C1267 H1246 0.950 . S
C1267 C1266 1.373 . S
C1267 C1283 1.377 . S
C1268 C1266 1.389 . S
C1268 C1269 1.524 . S
C1268 C1282 1.377 . S
C1269 C1268 1.524 . S
C1269 C1270 1.397 . S
C1269 C1274 1.363 . S
C1270 H1247 0.950 . S
C1270 C1269 1.397 . S
C1270 C1271 1.334 . S
C1271 H1248 0.950 . S
C1271 C1270 1.334 . S
C1271 C1272 1.287 . S
C1272 C1271 1.287 . S
C1272 C1273 1.524 . S
C1272 H1291 0.913 . S
C1273 H1249 0.950 . S
C1273 C1272 1.524 . S
C1273 C1274 1.415 . S
C1274 H1250 0.950 . S
C1274 C1269 1.363 . S
C1274 C1273 1.415 . S
C1275 H1251 0.951 . S
C1275 C1276 1.366 . S
C1275 C1277 1.388 . S
C1276 C1275 1.366 . S
C1276 C1280 1.385 1_545 S
C1277 H1252 0.951 . S
C1277 C1275 1.388 . S
C1277 C1278 1.366 1_545 S
C1278 C1277 1.366 1_565 S
C1278 C1279 1.414 . S
C1278 C1281 1.499 . S
C1279 H1253 0.950 . S
C1279 C1278 1.414 . S
C1279 C1280 1.374 . S
C1280 H1254 0.950 . S
C1280 C1276 1.385 1_565 S
C1280 C1279 1.374 . S
C1281 C1278 1.499 . S
C1281 C1282 1.373 . S
C1281 C1283 1.389 . S
C1282 H1255 0.950 . S
C1282 C1268 1.377 . S
C1282 C1281 1.373 . S
C1283 C1267 1.377 . S
C1283 C1281 1.389 . S
C1283 C1284 1.524 1_565 S
C1284 C1283 1.524 1_545 S
C1284 C1285 1.397 . S
C1284 C1289 1.363 . S
C1285 H1256 0.950 . S
C1285 C1284 1.397 . S
C1285 C1286 1.334 . S
C1286 H1257 0.950 . S
C1286 C1285 1.334 . S
C1286 C1287 1.287 . S
C1287 C1286 1.287 . S
C1287 C1288 1.524 . S
C1287 H1290 0.999 . S
C1288 H1258 0.950 . S
C1288 C1287 1.524 . S
C1288 C1289 1.415 . S
C1289 H1259 0.950 . S
C1289 C1284 1.363 . S
C1289 C1288 1.415 . S
H1290 C1287 0.999 . S
H1291 C1272 0.913 . S
H1292 C1310 0.951 . S
H1293 C1312 0.951 . S
H1294 C1314 0.950 . S
H1295 C1315 0.950 1_554 S
H1296 C1317 0.950 . S
H1297 C1320 0.950 . S
H1298 C1321 0.950 . S
H1299 C1323 0.950 . S
H1300 C1324 0.950 1_556 S
H1301 C1325 0.951 . S
H1302 C1327 0.951 . S
H1303 C1329 0.950 . S
H1304 C1330 0.950 . S
H1305 C1332 0.950 . S
H1306 C1335 0.950 . S
H1307 C1336 0.950 . S
H1308 C1338 0.950 . S
H1309 C1339 0.950 . S
C1310 H1292 0.951 . S
C1310 C1311 1.366 . S
C1310 C1312 1.388 1_554 S
C1311 C1310 1.366 . S
C1311 C1315 1.385 1_554 S
C1312 H1293 0.951 . S
C1312 C1310 1.388 1_556 S
C1312 C1313 1.366 . S
C1313 C1312 1.366 . S
C1313 C1314 1.414 . S
C1313 C1316 1.499 . S
C1314 H1294 0.950 . S
C1314 C1313 1.414 . S
C1314 C1315 1.374 . S
C1315 H1295 0.950 1_556 S
C1315 C1311 1.385 1_556 S
C1315 C1314 1.374 . S
C1316 C1313 1.499 . S
C1316 C1317 1.373 . S
C1316 C1318 1.389 . S
C1317 H1296 0.950 . S
C1317 C1316 1.373 . S
C1317 C1333 1.377 . S
C1318 C1316 1.389 . S
C1318 C1319 1.524 1_556 S
C1318 C1332 1.377 . S
C1319 C1318 1.524 1_554 S
C1319 C1320 1.397 . S
C1319 C1324 1.363 . S
C1320 H1297 0.950 . S
C1320 C1319 1.397 . S
C1320 C1321 1.334 . S
C1321 H1298 0.950 . S
C1321 C1320 1.334 . S
C1321 C1322 1.287 . S
C1322 C1321 1.287 . S
C1322 C1323 1.524 . S
C1322 H1341 0.913 . S
C1323 H1299 0.950 . S
C1323 C1322 1.524 . S
C1323 C1324 1.415 . S
C1324 H1300 0.950 1_554 S
C1324 C1319 1.363 . S
C1324 C1323 1.415 . S
C1325 H1301 0.951 . S
C1325 C1326 1.366 . S
C1325 C1327 1.388 . S
C1326 C1325 1.366 . S
C1326 C1330 1.385 . S
C1327 H1302 0.951 . S
C1327 C1325 1.388 . S
C1327 C1328 1.366 . S
C1328 C1327 1.366 . S
C1328 C1329 1.414 . S
C1328 C1331 1.499 . S
C1329 H1303 0.950 . S
C1329 C1328 1.414 . S
C1329 C1330 1.374 . S
C1330 H1304 0.950 . S
C1330 C1326 1.385 . S
C1330 C1329 1.374 . S
C1331 C1328 1.499 . S
C1331 C1332 1.373 . S
C1331 C1333 1.389 . S
C1332 H1305 0.950 . S
C1332 C1318 1.377 . S
C1332 C1331 1.373 . S
C1333 C1317 1.377 . S
C1333 C1331 1.389 . S
C1333 C1334 1.524 . S
C1334 C1333 1.524 . S
C1334 C1335 1.397 . S
C1334 C1339 1.363 . S
C1335 H1306 0.950 . S
C1335 C1334 1.397 . S
C1335 C1336 1.334 . S
C1336 H1307 0.950 . S
C1336 C1335 1.334 . S
C1336 C1337 1.287 . S
C1337 C1336 1.287 . S
C1337 C1338 1.524 . S
C1337 H1340 0.999 . S
C1338 H1308 0.950 . S
C1338 C1337 1.524 . S
C1338 C1339 1.415 . S
C1339 H1309 0.950 . S
C1339 C1334 1.363 . S
C1339 C1338 1.415 . S
H1340 C1337 0.999 . S
H1341 C1322 0.913 . S
H1342 C1360 0.951 . S
H1343 C1362 0.951 . S
H1344 C1364 0.950 . S
H1345 C1365 0.950 . S
H1346 C1367 0.950 . S
H1347 C1370 0.950 . S
H1348 C1371 0.950 . S
H1349 C1373 0.950 . S
H1350 C1374 0.950 . S
H1351 C1375 0.951 . S
H1352 C1377 0.951 . S
H1353 C1379 0.950 . S
H1354 C1380 0.950 . S
H1355 C1382 0.950 . S
H1356 C1385 0.950 . S
H1357 C1386 0.954 . S
H1358 C1388 0.950 . S
H1359 C1389 0.950 . S
C1360 H1342 0.951 . S
C1360 C1361 1.366 . S
C1360 C1362 1.388 1_554 S
C1361 C1360 1.366 . S
C1361 C1365 1.385 1_554 S
C1362 H1343 0.951 . S
C1362 C1360 1.388 1_556 S
C1362 C1363 1.366 . S
C1363 C1362 1.366 . S
C1363 C1364 1.414 . S
C1363 C1366 1.499 . S
C1364 H1344 0.950 . S
C1364 C1363 1.414 . S
C1364 C1365 1.374 . S
C1365 H1345 0.950 . S
C1365 C1361 1.385 1_556 S
C1365 C1364 1.374 . S
C1366 C1363 1.499 . S
C1366 C1367 1.373 . S
C1366 C1368 1.389 . S
C1367 H1346 0.950 . S
C1367 C1366 1.373 . S
C1367 C1383 1.377 . S
C1368 C1366 1.389 . S
C1368 C1369 1.524 . S
C1368 C1382 1.377 . S
C1369 C1368 1.524 . S
C1369 C1370 1.397 . S
C1369 C1374 1.363 . S
C1370 H1347 0.950 . S
C1370 C1369 1.397 . S
C1370 C1371 1.334 . S
C1371 H1348 0.950 . S
C1371 C1370 1.334 . S
C1371 C1372 1.287 . S
C1372 C1371 1.287 . S
C1372 C1373 1.524 . S
C1372 H1391 0.913 . S
C1373 H1349 0.950 . S
C1373 C1372 1.524 . S
C1373 C1374 1.415 . S
C1374 H1350 0.950 . S
C1374 C1369 1.363 . S
C1374 C1373 1.415 . S
C1375 H1351 0.951 . S
C1375 C1376 1.366 . S
C1375 C1377 1.388 . S
C1376 C1375 1.366 . S
C1376 C1380 1.385 . S
C1377 H1352 0.951 . S
C1377 C1375 1.388 . S
C1377 C1378 1.366 . S
C1378 C1377 1.366 . S
C1378 C1379 1.414 . S
C1378 C1381 1.499 . S
C1379 H1353 0.950 . S
C1379 C1378 1.414 . S
C1379 C1380 1.374 . S
C1380 H1354 0.950 . S
C1380 C1376 1.385 . S
C1380 C1379 1.374 . S
C1381 C1378 1.499 . S
C1381 C1382 1.373 . S
C1381 C1383 1.389 . S
C1382 H1355 0.950 . S
C1382 C1368 1.377 . S
C1382 C1381 1.373 . S
C1383 C1367 1.377 . S
C1383 C1381 1.389 . S
C1383 C1384 1.524 . S
C1384 C1383 1.524 . S
C1384 C1385 1.397 . S
C1384 C1389 1.363 . S
C1385 H1356 0.950 . S
C1385 C1384 1.397 . S
C1385 C1386 1.334 . S
C1386 H1357 0.954 . S
C1386 C1385 1.334 . S
C1386 C1387 1.287 . S
C1387 C1386 1.287 . S
C1387 C1388 1.524 . S
C1387 H1390 0.999 1_556 S
C1388 H1358 0.950 . S
C1388 C1387 1.524 . S
C1388 C1389 1.415 . S
C1389 H1359 0.950 . S
C1389 C1384 1.363 . S
C1389 C1388 1.415 . S
H1390 C1387 0.999 1_554 S
H1391 C1372 0.913 . S
H1392 C1410 0.951 . S
H1393 C1412 0.951 . S
H1394 C1414 0.950 . S
H1395 C1415 0.950 . S
H1396 C1417 0.950 . S
H1397 C1420 0.950 . S
H1398 C1421 0.950 . S
H1399 C1423 0.950 . S
H1400 C1424 0.950 . S
H1401 C1425 0.951 . S
H1402 C1427 0.951 . S
H1403 C1429 0.950 . S
H1404 C1430 0.950 . S
H1405 C1432 0.950 . S
H1406 C1435 0.950 . S
H1407 C1436 0.950 . S
H1408 C1438 0.950 . S
H1409 C1439 0.950 . S
C1410 H1392 0.951 . S
C1410 C1411 1.366 . S
C1410 C1412 1.388 . S
C1411 C1410 1.366 . S
C1411 C1415 1.385 . S
C1412 H1393 0.951 . S
C1412 C1410 1.388 . S
C1412 C1413 1.366 . S
C1413 C1412 1.366 . S
C1413 C1414 1.414 . S
C1413 C1416 1.499 . S
C1414 H1394 0.950 . S
C1414 C1413 1.414 . S
C1414 C1415 1.374 . S
C1415 H1395 0.950 . S
C1415 C1411 1.385 . S
C1415 C1414 1.374 . S
C1416 C1413 1.499 . S
C1416 C1417 1.373 . S
C1416 C1418 1.389 . S
C1417 H1396 0.950 . S
C1417 C1416 1.373 . S
C1417 C1433 1.377 . S
C1418 C1416 1.389 . S
C1418 C1419 1.524 . S
C1418 C1432 1.377 . S
C1419 C1418 1.524 . S
C1419 C1420 1.397 . S
C1419 C1424 1.363 . S
C1420 H1397 0.950 . S
C1420 C1419 1.397 . S
C1420 C1421 1.334 1_455 S
C1421 H1398 0.950 . S
C1421 C1420 1.334 1_655 S
C1421 C1422 1.287 . S
C1422 C1421 1.287 . S
C1422 C1423 1.524 . S
C1422 H1441 0.913 . S
C1423 H1399 0.950 . S
C1423 C1422 1.524 . S
C1423 C1424 1.415 1_655 S
C1424 H1400 0.950 . S
C1424 C1419 1.363 . S
C1424 C1423 1.415 1_455 S
C1425 H1401 0.951 . S
C1425 C1426 1.366 . S
C1425 C1427 1.388 . S
C1426 C1425 1.366 . S
C1426 C1430 1.385 . S
C1427 H1402 0.951 . S
C1427 C1425 1.388 . S
C1427 C1428 1.366 . S
C1428 C1427 1.366 . S
C1428 C1429 1.414 . S
C1428 C1431 1.499 . S
C1429 H1403 0.950 . S
C1429 C1428 1.414 . S
C1429 C1430 1.374 . S
C1430 H1404 0.950 . S
C1430 C1426 1.385 . S
C1430 C1429 1.374 . S
C1431 C1428 1.499 . S
C1431 C1432 1.373 . S
C1431 C1433 1.389 . S
C1432 H1405 0.950 . S
C1432 C1418 1.377 . S
C1432 C1431 1.373 . S
C1433 C1417 1.377 . S
C1433 C1431 1.389 . S
C1433 C1434 1.524 . S
C1434 C1433 1.524 . S
C1434 C1435 1.397 . S
C1434 C1439 1.363 . S
C1435 H1406 0.950 . S
C1435 C1434 1.397 . S
C1435 C1436 1.334 . S
C1436 H1407 0.950 . S
C1436 C1435 1.334 . S
C1436 C1437 1.287 . S
C1437 C1436 1.287 . S
C1437 C1438 1.524 . S
C1437 H1440 0.999 . S
C1438 H1408 0.950 . S
C1438 C1437 1.524 . S
C1438 C1439 1.415 . S
C1439 H1409 0.950 . S
C1439 C1434 1.363 . S
C1439 C1438 1.415 . S
H1440 C1437 0.999 . S
H1441 C1422 0.913 . S
H1442 C1460 0.951 . S
H1443 C1462 0.951 . S
H1444 C1464 0.950 . S
H1445 C1465 0.950 . S
H1446 C1467 0.950 . S
H1447 C1470 0.950 . S
H1448 C1471 0.950 . S
H1449 C1473 0.950 . S
H1450 C1474 0.950 . S
H1451 C1475 0.951 . S
H1452 C1477 0.951 . S
H1453 C1479 0.950 . S
H1454 C1480 0.950 . S
H1455 C1482 0.950 . S
H1456 C1485 0.949 . S
H1457 C1486 0.950 . S
H1458 C1488 0.952 . S
H1459 C1489 0.950 . S
C1460 H1442 0.951 . S
C1460 C1461 1.366 . S
C1460 C1462 1.388 . S
C1461 C1460 1.366 . S
C1461 C1465 1.385 . S
C1462 H1443 0.951 . S
C1462 C1460 1.388 . S
C1462 C1463 1.366 . S
C1463 C1462 1.366 . S
C1463 C1464 1.414 . S
C1463 C1466 1.499 . S
C1464 H1444 0.950 . S
C1464 C1463 1.414 . S
C1464 C1465 1.374 . S
C1465 H1445 0.950 . S
C1465 C1461 1.385 . S
C1465 C1464 1.374 . S
C1466 C1463 1.499 . S
C1466 C1467 1.373 . S
C1466 C1468 1.389 . S
C1467 H1446 0.950 . S
C1467 C1466 1.373 . S
C1467 C1483 1.377 . S
C1468 C1466 1.389 . S
C1468 C1469 1.524 . S
C1468 C1482 1.377 . S
C1469 C1468 1.524 . S
C1469 C1470 1.397 . S
C1469 C1474 1.363 . S
C1470 H1447 0.950 . S
C1470 C1469 1.397 . S
C1470 C1471 1.334 . S
C1471 H1448 0.950 . S
C1471 C1470 1.334 . S
C1471 C1472 1.287 . S
C1472 C1471 1.287 . S
C1472 C1473 1.524 . S
C1472 H1491 0.913 . S
C1473 H1449 0.950 . S
C1473 C1472 1.524 . S
C1473 C1474 1.415 . S
C1474 H1450 0.950 . S
C1474 C1469 1.363 . S
C1474 C1473 1.415 . S
C1475 H1451 0.951 . S
C1475 C1476 1.366 . S
C1475 C1477 1.388 . S
C1476 C1475 1.366 . S
C1476 C1480 1.385 . S
C1477 H1452 0.951 . S
C1477 C1475 1.388 . S
C1477 C1478 1.366 . S
C1478 C1477 1.366 . S
C1478 C1479 1.414 . S
C1478 C1481 1.499 . S
C1479 H1453 0.950 . S
C1479 C1478 1.414 . S
C1479 C1480 1.374 . S
C1480 H1454 0.950 . S
C1480 C1476 1.385 . S
C1480 C1479 1.374 . S
C1481 C1478 1.499 . S
C1481 C1482 1.373 . S
C1481 C1483 1.389 . S
C1482 H1455 0.950 . S
C1482 C1468 1.377 . S
C1482 C1481 1.373 . S
C1483 C1467 1.377 . S
C1483 C1481 1.389 . S
C1483 C1484 1.524 . S
C1484 C1483 1.524 . S
C1484 C1485 1.375 1_545 S
C1484 C1489 1.363 . S
C1485 H1456 0.949 . S
C1485 C1484 1.375 1_565 S
C1485 C1486 1.356 . S
C1486 H1457 0.950 . S
C1486 C1485 1.356 . S
C1486 C1487 1.287 . S
C1487 C1486 1.287 . S
C1487 C1488 1.524 1_565 S
C1487 H1490 0.999 . S
C1488 H1458 0.952 . S
C1488 C1487 1.524 1_545 S
C1488 C1489 1.415 . S
C1489 H1459 0.950 . S
C1489 C1484 1.363 . S
C1489 C1488 1.415 . S
H1490 C1487 0.999 . S
H1491 C1472 0.913 . S
H1492 C1510 0.951 . S
H1493 C1512 0.951 . S
H1494 C1514 0.950 . S
H1495 C1515 0.950 . S
H1496 C1517 0.950 . S
H1497 C1520 0.950 . S
H1498 C1521 0.950 . S
H1499 C1523 0.950 . S
H1500 C1524 0.950 . S
H1501 C1525 0.951 . S
H1502 C1527 0.951 . S
H1503 C1529 0.950 . S
H1504 C1530 0.950 . S
H1505 C1532 0.950 . S
H1506 C1535 0.950 . S
H1507 C1536 0.950 . S
H1508 C1538 0.950 . S
H1509 C1539 0.950 . S
C1510 H1492 0.951 . S
C1510 C1511 1.366 . S
C1510 C1512 1.388 . S
C1511 C1510 1.366 . S
C1511 C1515 1.385 . S
C1512 H1493 0.951 . S
C1512 C1510 1.388 . S
C1512 C1513 1.366 . S
C1513 C1512 1.366 . S
C1513 C1514 1.414 . S
C1513 C1516 1.499 . S
C1514 H1494 0.950 . S
C1514 C1513 1.414 . S
C1514 C1515 1.374 . S
C1515 H1495 0.950 . S
C1515 C1511 1.385 . S
C1515 C1514 1.374 . S
C1516 C1513 1.499 . S
C1516 C1517 1.373 . S
C1516 C1518 1.389 . S
C1517 H1496 0.950 . S
C1517 C1516 1.373 . S
C1517 C1533 1.377 . S
C1518 C1516 1.389 . S
C1518 C1519 1.524 . S
C1518 C1532 1.377 . S
C1519 C1518 1.524 . S
C1519 C1520 1.397 . S
C1519 C1524 1.363 . S
C1520 H1497 0.950 . S
C1520 C1519 1.397 . S
C1520 C1521 1.334 . S
C1521 H1498 0.950 . S
C1521 C1520 1.334 . S
C1521 C1522 1.287 . S
C1522 C1521 1.287 . S
C1522 C1523 1.524 . S
C1522 H1541 0.913 . S
C1523 H1499 0.950 . S
C1523 C1522 1.524 . S
C1523 C1524 1.415 . S
C1524 H1500 0.950 . S
C1524 C1519 1.363 . S
C1524 C1523 1.415 . S
C1525 H1501 0.951 . S
C1525 C1526 1.366 . S
C1525 C1527 1.388 . S
C1526 C1525 1.366 . S
C1526 C1530 1.385 . S
C1527 H1502 0.951 . S
C1527 C1525 1.388 . S
C1527 C1528 1.366 . S
C1528 C1527 1.366 . S
C1528 C1529 1.414 . S
C1528 C1531 1.499 . S
C1529 H1503 0.950 . S
C1529 C1528 1.414 . S
C1529 C1530 1.374 . S
C1530 H1504 0.950 . S
C1530 C1526 1.385 . S
C1530 C1529 1.374 . S
C1531 C1528 1.499 . S
C1531 C1532 1.373 . S
C1531 C1533 1.389 . S
C1532 H1505 0.950 . S
C1532 C1518 1.377 . S
C1532 C1531 1.373 . S
C1533 C1517 1.377 . S
C1533 C1531 1.389 . S
C1533 C1534 1.524 . S
C1534 C1533 1.524 . S
C1534 C1535 1.397 . S
C1534 C1539 1.363 . S
C1535 H1506 0.950 . S
C1535 C1534 1.397 . S
C1535 C1536 1.334 . S
C1536 H1507 0.950 . S
C1536 C1535 1.334 . S
C1536 C1537 1.287 . S
C1537 C1536 1.287 . S
C1537 C1538 1.524 . S
C1537 H1540 0.999 . S
C1538 H1508 0.950 . S
C1538 C1537 1.524 . S
C1538 C1539 1.415 . S
C1539 H1509 0.950 . S
C1539 C1534 1.363 . S
C1539 C1538 1.415 . S
H1540 C1537 0.999 . S
H1541 C1522 0.913 . S
H1542 C1560 0.951 . S
H1543 C1562 0.951 . S
H1544 C1564 0.950 . S
H1545 C1565 0.950 . S
H1546 C1567 0.950 . S
H1547 C1570 0.950 . S
H1548 C1571 0.950 . S
H1549 C1573 0.950 . S
H1550 C1574 0.950 . S
H1551 C1575 0.951 . S
H1552 C1577 0.951 . S
H1553 C1579 0.950 . S
H1554 C1580 0.950 . S
H1555 C1582 0.950 . S
H1556 C1585 0.950 . S
H1557 C1586 0.950 . S
H1558 C1588 0.950 . S
H1559 C1589 0.950 . S
C1560 H1542 0.951 . S
C1560 C1561 1.366 . S
C1560 C1562 1.388 . S
C1561 C1560 1.366 . S
C1561 C1565 1.385 . S
C1562 H1543 0.951 . S
C1562 C1560 1.388 . S
C1562 C1563 1.366 . S
C1563 C1562 1.366 . S
C1563 C1564 1.414 . S
C1563 C1566 1.499 . S
C1564 H1544 0.950 . S
C1564 C1563 1.414 . S
C1564 C1565 1.374 . S
C1565 H1545 0.950 . S
C1565 C1561 1.385 . S
C1565 C1564 1.374 . S
C1566 C1563 1.499 . S
C1566 C1567 1.373 . S
C1566 C1568 1.389 . S
C1567 H1546 0.950 . S
C1567 C1566 1.373 . S
C1567 C1583 1.377 . S
C1568 C1566 1.389 . S
C1568 C1569 1.524 . S
C1568 C1582 1.377 . S
C1569 C1568 1.524 . S
C1569 C1570 1.397 . S
C1569 C1574 1.363 . S
C1570 H1547 0.950 . S
C1570 C1569 1.397 . S
C1570 C1571 1.334 . S
C1571 H1548 0.950 . S
C1571 C1570 1.334 . S
C1571 C1572 1.287 . S
C1572 C1571 1.287 . S
C1572 C1573 1.524 . S
C1572 H1591 0.913 . S
C1573 H1549 0.950 . S
C1573 C1572 1.524 . S
C1573 C1574 1.415 . S
C1574 H1550 0.950 . S
C1574 C1569 1.363 . S
C1574 C1573 1.415 . S
C1575 H1551 0.951 . S
C1575 C1576 1.366 . S
C1575 C1577 1.388 . S
C1576 C1575 1.366 . S
C1576 C1580 1.385 . S
C1577 H1552 0.951 . S
C1577 C1575 1.388 . S
C1577 C1578 1.366 . S
C1578 C1577 1.366 . S
C1578 C1579 1.414 . S
C1578 C1581 1.499 . S
C1579 H1553 0.950 . S
C1579 C1578 1.414 . S
C1579 C1580 1.374 . S
C1580 H1554 0.950 . S
C1580 C1576 1.385 . S
C1580 C1579 1.374 . S
C1581 C1578 1.499 . S
C1581 C1582 1.373 . S
C1581 C1583 1.389 . S
C1582 H1555 0.950 . S
C1582 C1568 1.377 . S
C1582 C1581 1.373 . S
C1583 C1567 1.377 . S
C1583 C1581 1.389 . S
C1583 C1584 1.524 . S
C1584 C1583 1.524 . S
C1584 C1585 1.397 . S
C1584 C1589 1.363 . S
C1585 H1556 0.950 . S
C1585 C1584 1.397 . S
C1585 C1586 1.334 . S
C1586 H1557 0.950 . S
C1586 C1585 1.334 . S
C1586 C1587 1.287 . S
C1587 C1586 1.287 . S
C1587 C1588 1.524 . S
C1587 H1590 0.999 . S
C1588 H1558 0.950 . S
C1588 C1587 1.524 . S
C1588 C1589 1.415 . S
C1589 H1559 0.950 . S
C1589 C1584 1.363 . S
C1589 C1588 1.415 . S
H1590 C1587 0.999 . S
H1591 C1572 0.913 . S
H1592 C1610 0.951 . S
H1593 C1612 0.951 . S
H1594 C1614 0.950 . S
H1595 C1615 0.950 . S
H1596 C1617 0.950 . S
H1597 C1620 0.950 . S
H1598 C1621 0.950 . S
H1599 C1623 0.950 . S
H1600 C1624 0.949 1_455 S
H1601 C1625 0.951 . S
H1602 C1627 0.951 . S
H1603 C1629 0.962 . S
H1604 C1630 0.950 1_455 S
H1605 C1632 0.950 . S
H1606 C1635 0.950 . S
H1607 C1636 0.950 . S
H1608 C1638 0.950 . S
H1609 C1639 0.950 . S
C1610 H1592 0.951 . S
C1610 C1611 1.366 . S
C1610 C1612 1.388 . S
C1611 C1610 1.366 . S
C1611 C1615 1.385 . S
C1612 H1593 0.951 . S
C1612 C1610 1.388 . S
C1612 C1613 1.366 . S
C1613 C1612 1.366 . S
C1613 C1614 1.414 . S
C1613 C1616 1.499 . S
C1614 H1594 0.950 . S
C1614 C1613 1.414 . S
C1614 C1615 1.374 . S
C1615 H1595 0.950 . S
C1615 C1611 1.385 . S
C1615 C1614 1.374 . S
C1616 C1613 1.499 . S
C1616 C1617 1.373 . S
C1616 C1618 1.389 . S
C1617 H1596 0.950 . S
C1617 C1616 1.373 . S
C1617 C1633 1.377 . S
C1618 C1616 1.389 . S
C1618 C1619 1.524 . S
C1618 C1632 1.377 . S
C1619 C1618 1.524 . S
C1619 C1620 1.397 . S
C1619 C1624 1.365 . S
C1620 H1597 0.950 . S
C1620 C1619 1.397 . S
C1620 C1621 1.334 . S
C1621 H1598 0.950 . S
C1621 C1620 1.334 . S
C1621 C1622 1.287 . S
C1622 C1621 1.287 . S
C1622 C1623 1.524 1_655 S
C1622 H1641 0.895 1_655 S
C1623 H1599 0.950 . S
C1623 C1622 1.524 1_455 S
C1623 C1624 1.414 1_455 S
C1624 H1600 0.949 1_655 S
C1624 C1619 1.365 . S
C1624 C1623 1.414 1_655 S
C1625 H1601 0.951 . S
C1625 C1626 1.366 . S
C1625 C1627 1.388 . S
C1626 C1625 1.366 . S
C1626 C1630 1.385 . S
C1627 H1602 0.951 . S
C1627 C1625 1.388 . S
C1627 C1628 1.366 . S
C1628 C1627 1.366 . S
C1628 C1629 1.414 . S
C1628 C1631 1.499 . S
C1629 H1603 0.962 . S
C1629 C1628 1.414 . S
C1629 C1630 1.374 . S
C1630 H1604 0.950 1_655 S
C1630 C1626 1.385 . S
C1630 C1629 1.374 . S
C1631 C1628 1.499 . S
C1631 C1632 1.373 . S
C1631 C1633 1.389 . S
C1632 H1605 0.950 . S
C1632 C1618 1.377 . S
C1632 C1631 1.373 . S
C1633 C1617 1.377 . S
C1633 C1631 1.389 . S
C1633 C1634 1.524 . S
C1634 C1633 1.524 . S
C1634 C1635 1.397 . S
C1634 C1639 1.363 . S
C1635 H1606 0.950 . S
C1635 C1634 1.397 . S
C1635 C1636 1.334 . S
C1636 H1607 0.950 . S
C1636 C1635 1.334 . S
C1636 C1637 1.287 . S
C1637 C1636 1.287 . S
C1637 C1638 1.524 . S
C1637 H1640 0.999 . S
C1638 H1608 0.950 . S
C1638 C1637 1.524 . S
C1638 C1639 1.415 . S
C1639 H1609 0.950 . S
C1639 C1634 1.363 . S
C1639 C1638 1.415 . S
H1640 C1637 0.999 . S
H1641 C1622 0.895 1_455 S
H1642 C1660 0.951 . S
H1643 C1662 0.951 . S
H1644 C1664 0.950 . S
H1645 C1665 0.950 . S
H1646 C1667 0.950 . S
H1647 C1670 0.950 . S
H1648 C1671 0.937 1_545 S
H1649 C1673 0.950 . S
H1650 C1674 0.950 . S
H1651 C1675 0.951 . S
H1652 C1677 0.951 . S
H1653 C1679 0.950 . S
H1654 C1680 0.950 . S
H1655 C1682 0.950 . S
H1656 C1685 0.950 . S
H1657 C1686 0.950 . S
H1658 C1688 0.950 . S
H1659 C1689 0.950 . S
C1660 H1642 0.951 . S
C1660 C1661 1.366 . S
C1660 C1662 1.388 . S
C1661 C1660 1.366 . S
C1661 C1665 1.385 . S
C1662 H1643 0.951 . S
C1662 C1660 1.388 . S
C1662 C1663 1.366 . S
C1663 C1662 1.366 . S
C1663 C1664 1.414 . S
C1663 C1666 1.499 . S
C1664 H1644 0.950 . S
C1664 C1663 1.414 . S
C1664 C1665 1.374 . S
C1665 H1645 0.950 . S
C1665 C1661 1.385 . S
C1665 C1664 1.374 . S
C1666 C1663 1.499 . S
C1666 C1667 1.373 . S
C1666 C1668 1.389 . S
C1667 H1646 0.950 . S
C1667 C1666 1.373 . S
C1667 C1683 1.377 . S
C1668 C1666 1.389 . S
C1668 C1669 1.524 . S
C1668 C1682 1.377 . S
C1669 C1668 1.524 . S
C1669 C1670 1.397 . S
C1669 C1674 1.363 . S
C1670 H1647 0.950 . S
C1670 C1669 1.397 . S
C1670 C1671 1.334 . S
C1671 H1648 0.937 1_565 S
C1671 C1670 1.334 . S
C1671 C1672 1.287 . S
C1672 C1671 1.287 . S
C1672 C1673 1.524 . S
C1672 H1691 0.913 . S
C1673 H1649 0.950 . S
C1673 C1672 1.524 . S
C1673 C1674 1.415 . S
C1674 H1650 0.950 . S
C1674 C1669 1.363 . S
C1674 C1673 1.415 . S
C1675 H1651 0.951 . S
C1675 C1676 1.366 . S
C1675 C1677 1.388 . S
C1676 C1675 1.366 . S
C1676 C1680 1.385 . S
C1677 H1652 0.951 . S
C1677 C1675 1.388 . S
C1677 C1678 1.366 . S
C1678 C1677 1.366 . S
C1678 C1679 1.414 . S
C1678 C1681 1.499 . S
C1679 H1653 0.950 . S
C1679 C1678 1.414 . S
C1679 C1680 1.374 . S
C1680 H1654 0.950 . S
C1680 C1676 1.385 . S
C1680 C1679 1.374 . S
C1681 C1678 1.499 . S
C1681 C1682 1.373 . S
C1681 C1683 1.389 . S
C1682 H1655 0.950 . S
C1682 C1668 1.377 . S
C1682 C1681 1.373 . S
C1683 C1667 1.377 . S
C1683 C1681 1.389 . S
C1683 C1684 1.524 . S
C1684 C1683 1.524 . S
C1684 C1685 1.397 . S
C1684 C1689 1.363 . S
C1685 H1656 0.950 . S
C1685 C1684 1.397 . S
C1685 C1686 1.334 . S
C1686 H1657 0.950 . S
C1686 C1685 1.334 . S
C1686 C1687 1.287 . S
C1687 C1686 1.287 . S
C1687 C1688 1.524 . S
C1687 H1690 0.999 . S
C1688 H1658 0.950 . S
C1688 C1687 1.524 . S
C1688 C1689 1.415 . S
C1689 H1659 0.950 . S
C1689 C1684 1.363 . S
C1689 C1688 1.415 . S
H1690 C1687 0.999 . S
H1691 C1672 0.913 . S
H1692 C1710 0.951 . S
H1693 C1712 0.951 . S
H1694 C1714 0.950 . S
H1695 C1715 0.950 . S
H1696 C1717 0.950 . S
H1697 C1720 0.950 . S
H1698 C1721 0.950 . S
H1699 C1723 0.950 . S
H1700 C1724 0.950 . S
H1701 C1725 0.951 . S
H1702 C1727 0.951 . S
H1703 C1729 0.950 . S
H1704 C1730 0.950 . S
H1705 C1732 0.950 . S
H1706 C1735 0.950 . S
H1707 C1736 0.950 . S
H1708 C1738 0.950 . S
H1709 C1739 0.950 . S
C1710 H1692 0.951 . S
C1710 C1711 1.366 . S
C1710 C1712 1.388 . S
C1711 C1710 1.366 . S
C1711 C1715 1.385 . S
C1712 H1693 0.951 . S
C1712 C1710 1.388 . S
C1712 C1713 1.366 . S
C1713 C1712 1.366 . S
C1713 C1714 1.414 . S
C1713 C1716 1.499 . S
C1714 H1694 0.950 . S
C1714 C1713 1.414 . S
C1714 C1715 1.374 . S
C1715 H1695 0.950 . S
C1715 C1711 1.385 . S
C1715 C1714 1.374 . S
C1716 C1713 1.499 . S
C1716 C1717 1.373 . S
C1716 C1718 1.389 . S
C1717 H1696 0.950 . S
C1717 C1716 1.373 . S
C1717 C1733 1.377 . S
C1718 C1716 1.389 . S
C1718 C1719 1.524 . S
C1718 C1732 1.377 . S
C1719 C1718 1.524 . S
C1719 C1720 1.397 . S
C1719 C1724 1.363 . S
C1720 H1697 0.950 . S
C1720 C1719 1.397 . S
C1720 C1721 1.334 . S
C1721 H1698 0.950 . S
C1721 C1720 1.334 . S
C1721 C1722 1.287 . S
C1722 C1721 1.287 . S
C1722 C1723 1.524 . S
C1722 H1741 0.913 . S
C1723 H1699 0.950 . S
C1723 C1722 1.524 . S
C1723 C1724 1.415 . S
C1724 H1700 0.950 . S
C1724 C1719 1.363 . S
C1724 C1723 1.415 . S
C1725 H1701 0.951 . S
C1725 C1726 1.366 . S
C1725 C1727 1.388 . S
C1726 C1725 1.366 . S
C1726 C1730 1.385 . S
C1727 H1702 0.951 . S
C1727 C1725 1.388 . S
C1727 C1728 1.366 . S
C1728 C1727 1.366 . S
C1728 C1729 1.414 . S
C1728 C1731 1.499 . S
C1729 H1703 0.950 . S
C1729 C1728 1.414 . S
C1729 C1730 1.374 . S
C1730 H1704 0.950 . S
C1730 C1726 1.385 . S
C1730 C1729 1.374 . S
C1731 C1728 1.499 . S
C1731 C1732 1.373 . S
C1731 C1733 1.389 . S
C1732 H1705 0.950 . S
C1732 C1718 1.377 . S
C1732 C1731 1.373 . S
C1733 C1717 1.377 . S
C1733 C1731 1.389 . S
C1733 C1734 1.524 . S
C1734 C1733 1.524 . S
C1734 C1735 1.397 . S
C1734 C1739 1.363 . S
C1735 H1706 0.950 . S
C1735 C1734 1.397 . S
C1735 C1736 1.334 . S
C1736 H1707 0.950 . S
C1736 C1735 1.334 . S
C1736 C1737 1.287 . S
C1737 C1736 1.287 . S
C1737 C1738 1.524 . S
C1737 H1740 0.999 . S
C1738 H1708 0.950 . S
C1738 C1737 1.524 . S
C1738 C1739 1.415 . S
C1739 H1709 0.950 . S
C1739 C1734 1.363 . S
C1739 C1738 1.415 . S
H1740 C1737 0.999 . S
H1741 C1722 0.913 . S
H1742 C1760 0.951 . S
H1743 C1762 0.951 . S
H1744 C1764 0.950 . S
H1745 C1765 0.950 . S
H1746 C1767 0.950 . S
H1747 C1770 0.950 . S
H1748 C1771 0.950 . S
H1749 C1773 0.950 . S
H1750 C1774 0.950 . S
H1751 C1775 0.951 . S
H1752 C1777 0.951 . S
H1753 C1779 0.950 . S
H1754 C1780 0.950 . S
H1755 C1782 0.950 . S
H1756 C1785 0.950 . S
H1757 C1786 0.950 . S
H1758 C1788 0.950 . S
H1759 C1789 0.950 . S
C1760 H1742 0.951 . S
C1760 C1761 1.366 . S
C1760 C1762 1.388 . S
C1761 C1760 1.366 . S
C1761 C1765 1.385 . S
C1762 H1743 0.951 . S
C1762 C1760 1.388 . S
C1762 C1763 1.366 . S
C1763 C1762 1.366 . S
C1763 C1764 1.414 . S
C1763 C1766 1.499 . S
C1764 H1744 0.950 . S
C1764 C1763 1.414 . S
C1764 C1765 1.374 . S
C1765 H1745 0.950 . S
C1765 C1761 1.385 . S
C1765 C1764 1.374 . S
C1766 C1763 1.499 . S
C1766 C1767 1.373 . S
C1766 C1768 1.389 . S
C1767 H1746 0.950 . S
C1767 C1766 1.373 . S
C1767 C1783 1.377 . S
C1768 C1766 1.389 . S
C1768 C1769 1.524 . S
C1768 C1782 1.377 . S
C1769 C1768 1.524 . S
C1769 C1770 1.397 . S
C1769 C1774 1.363 . S
C1770 H1747 0.950 . S
C1770 C1769 1.397 . S
C1770 C1771 1.334 . S
C1771 H1748 0.950 . S
C1771 C1770 1.334 . S
C1771 C1772 1.287 . S
C1772 C1771 1.287 . S
C1772 C1773 1.524 . S
C1772 H1791 0.913 . S
C1773 H1749 0.950 . S
C1773 C1772 1.524 . S
C1773 C1774 1.415 . S
C1774 H1750 0.950 . S
C1774 C1769 1.363 . S
C1774 C1773 1.415 . S
C1775 H1751 0.951 . S
C1775 C1776 1.366 . S
C1775 C1777 1.388 . S
C1776 C1775 1.366 . S
C1776 C1780 1.385 . S
C1777 H1752 0.951 . S
C1777 C1775 1.388 . S
C1777 C1778 1.366 . S
C1778 C1777 1.366 . S
C1778 C1779 1.414 . S
C1778 C1781 1.499 . S
C1779 H1753 0.950 . S
C1779 C1778 1.414 . S
C1779 C1780 1.374 . S
C1780 H1754 0.950 . S
C1780 C1776 1.385 . S
C1780 C1779 1.374 . S
C1781 C1778 1.499 . S
C1781 C1782 1.373 . S
C1781 C1783 1.389 . S
C1782 H1755 0.950 . S
C1782 C1768 1.377 . S
C1782 C1781 1.373 . S
C1783 C1767 1.377 . S
C1783 C1781 1.389 . S
C1783 C1784 1.524 . S
C1784 C1783 1.524 . S
C1784 C1785 1.397 . S
C1784 C1789 1.363 . S
C1785 H1756 0.950 . S
C1785 C1784 1.397 . S
C1785 C1786 1.334 . S
C1786 H1757 0.950 . S
C1786 C1785 1.334 . S
C1786 C1787 1.287 . S
C1787 C1786 1.287 . S
C1787 C1788 1.524 . S
C1787 H1790 0.999 . S
C1788 H1758 0.950 . S
C1788 C1787 1.524 . S
C1788 C1789 1.415 . S
C1789 H1759 0.950 . S
C1789 C1784 1.363 . S
C1789 C1788 1.415 . S
H1790 C1787 0.999 . S
H1791 C1772 0.913 . S
C611 C215 1.968 . S
C626 C331 1.968 . S
C676 C415 2.001 . S
C661 C247 2.003 . S
C726 C491 1.979 . S
C711 C151 2.131 . S
C776 C575 1.954 . S
C761 C183 2.104 . S
C826 C322 1.968 1_565 S
C811 C87 1.866 . S
C861 C119 1.892 . S
C876 C406 2.002 . S
C911 C23 2.010 . S
C926 C480 1.977 . S
C961 C55 1.992 . S
C976 C564 1.954 . S
C1026 C319 0.446 1_455 S
C1011 C189 0.344 . S
C1076 C403 0.428 1_545 S
C1061 C221 0.290 . S
C1126 C496 0.468 . S
C1111 C253 0.237 . S
C1161 C157 0.286 . S
C1176 C580 0.473 . S
C1211 C61 0.581 . S
C1226 C328 0.447 . S
C1276 C412 0.429 . S
C1261 C93 0.566 . S
C1326 C487 0.465 . S
C1311 C125 0.584 . S
C1361 C29 0.586 . S
C1376 C571 0.473 . S
C1411 C177 2.371 . S
C1426 C312 2.392 . S
C1461 C209 2.325 . S
C1476 C396 2.350 . S
C1526 C490 2.341 . S
C1511 C241 2.208 . S
C1576 C574 2.377 . S
C1561 C145 2.245 . S
C1611 C49 2.272 . S
C1626 C323 2.392 . S
C1676 C407 2.350 . S
C1661 C81 2.236 . S
C1726 C499 2.341 . S
C1711 C113 2.109 . S
C1761 C17 2.142 . S
C1776 C583 2.377 . S
