# Generated by pormake.
# Topology pyr, (3,6)-cn, num edge types: 1
# Building blocks:
#     Node 0, Type 0, BuildingBlock: CUQRIR_clean_linker_1, # of connection points: 3
#     Node 1, Type 0, BuildingBlock: CUQRIR_clean_linker_1, # of connection points: 3
#     Node 2, Type 0, BuildingBlock: CUQRIR_clean_linker_1, # of connection points: 3
#     Node 3, Type 0, BuildingBlock: CUQRIR_clean_linker_1, # of connection points: 3
#     Node 4, Type 0, BuildingBlock: CUQRIR_clean_linker_1, # of connection points: 3
#     Node 5, Type 0, BuildingBlock: CUQRIR_clean_linker_1, # of connection points: 3
#     Node 6, Type 0, BuildingBlock: CUQRIR_clean_linker_1, # of connection points: 3
#     Node 7, Type 0, BuildingBlock: CUQRIR_clean_linker_1, # of connection points: 3
#     Node 8, Type 1, BuildingBlock: MIDCAF_clean_sbu_0, # of connection points: 6
#     Node 9, Type 1, BuildingBlock: MIDCAF_clean_sbu_0, # of connection points: 6
#     Node 10, Type 1, BuildingBlock: MIDCAF_clean_sbu_0, # of connection points: 6
#     Node 11, Type 1, BuildingBlock: MIDCAF_clean_sbu_0, # of connection points: 6
#     Edge 12, Type (0, 1), BuildingBlock: XUDNAN_clean_linker_2, # of connection points: 2
#     Edge 13, Type (0, 1), BuildingBlock: XUDNAN_clean_linker_2, # of connection points: 2
#     Edge 14, Type (0, 1), BuildingBlock: XUDNAN_clean_linker_2, # of connection points: 2
#     Edge 15, Type (0, 1), BuildingBlock: XUDNAN_clean_linker_2, # of connection points: 2
#     Edge 16, Type (0, 1), BuildingBlock: XUDNAN_clean_linker_2, # of connection points: 2
#     Edge 17, Type (0, 1), BuildingBlock: XUDNAN_clean_linker_2, # of connection points: 2
#     Edge 18, Type (0, 1), BuildingBlock: XUDNAN_clean_linker_2, # of connection points: 2
#     Edge 19, Type (0, 1), BuildingBlock: XUDNAN_clean_linker_2, # of connection points: 2
#     Edge 20, Type (0, 1), BuildingBlock: XUDNAN_clean_linker_2, # of connection points: 2
#     Edge 21, Type (0, 1), BuildingBlock: XUDNAN_clean_linker_2, # of connection points: 2
#     Edge 22, Type (0, 1), BuildingBlock: XUDNAN_clean_linker_2, # of connection points: 2
#     Edge 23, Type (0, 1), BuildingBlock: XUDNAN_clean_linker_2, # of connection points: 2
#     Edge 24, Type (0, 1), BuildingBlock: XUDNAN_clean_linker_2, # of connection points: 2
#     Edge 25, Type (0, 1), BuildingBlock: XUDNAN_clean_linker_2, # of connection points: 2
#     Edge 26, Type (0, 1), BuildingBlock: XUDNAN_clean_linker_2, # of connection points: 2
#     Edge 27, Type (0, 1), BuildingBlock: XUDNAN_clean_linker_2, # of connection points: 2
#     Edge 28, Type (0, 1), BuildingBlock: XUDNAN_clean_linker_2, # of connection points: 2
#     Edge 29, Type (0, 1), BuildingBlock: XUDNAN_clean_linker_2, # of connection points: 2
#     Edge 30, Type (0, 1), BuildingBlock: XUDNAN_clean_linker_2, # of connection points: 2
#     Edge 31, Type (0, 1), BuildingBlock: XUDNAN_clean_linker_2, # of connection points: 2
#     Edge 32, Type (0, 1), BuildingBlock: XUDNAN_clean_linker_2, # of connection points: 2
#     Edge 33, Type (0, 1), BuildingBlock: XUDNAN_clean_linker_2, # of connection points: 2
#     Edge 34, Type (0, 1), BuildingBlock: XUDNAN_clean_linker_2, # of connection points: 2
#     Edge 35, Type (0, 1), BuildingBlock: XUDNAN_clean_linker_2, # of connection points: 2
# Relax obj value: 0.103
# Max RMSD: 0.208
# Mean RMSD: 0.152
data_MOF--net-pyr--node1-MIDCAF_clean_sbu_0--node2-CUQRIR_clean_linker_1--edge1-XUDNAN_clean_linker_2
_symmetry_space_group_name_H-M    P1
_symmetry_Int_Tables_number       1
_symmetry_cell_setting            triclinic
loop_
_symmetry_equiv_pos_as_xyz
'x, y, z'
_cell_length_a     32.976307
_cell_length_b     32.856525
_cell_length_c     32.259712
_cell_angle_alpha  88.441878
_cell_angle_beta   92.017824
_cell_angle_gamma 93.734788
loop_
_atom_site_label
_atom_site_type_symbol
_atom_site_fract_x
_atom_site_fract_y
_atom_site_fract_z
_atom_type_partial_charge
C0 C 0.16923 0.23124 0.21252 0.0
N1 N 0.19104 0.19942 0.22507 0.0
N2 N 0.1908 0.25694 0.1866 0.0
C3 C 0.12474 0.23353 0.22101 0.0
C4 C 0.22657 0.23889 0.18374 0.0
N5 N 0.22667 0.20367 0.20674 0.0
C6 C 0.26182 0.25536 0.15856 0.0
H7 H 0.1083 0.24777 0.19435 0.0
H8 H 0.12162 0.25187 0.24895 0.0
H9 H 0.11015 0.20265 0.22711 0.0
H10 H 0.26232 0.28906 0.15514 0.0
H11 H 0.25926 0.24178 0.12739 0.0
H12 H 0.29105 0.24697 0.17341 0.0
C13 C 0.31855 0.82597 0.69433 0.0
N14 N 0.32003 0.85827 0.71998 0.0
N15 N 0.34018 0.79546 0.71107 0.0
C16 C 0.29794 0.82551 0.65176 0.0
C17 C 0.35487 0.81048 0.74774 0.0
N18 N 0.34233 0.84836 0.75353 0.0
C19 C 0.3827 0.78877 0.77759 0.0
H20 H 0.26646 0.83525 0.65349 0.0
H21 H 0.29701 0.79555 0.637 0.0
H22 H 0.31494 0.84731 0.63091 0.0
H23 H 0.41469 0.79851 0.77081 0.0
H24 H 0.37832 0.7552 0.7746 0.0
H25 H 0.37726 0.79684 0.81001 0.0
C26 C 0.63479 0.3224 0.84778 0.0
N27 N 0.66844 0.32068 0.87309 0.0
N28 N 0.63794 0.35572 0.82215 0.0
C29 C 0.59973 0.29054 0.84687 0.0
C30 C 0.67439 0.37438 0.83303 0.0
N31 N 0.69285 0.3532 0.86388 0.0
C32 C 0.69197 0.4136 0.81377 0.0
H33 H 0.60559 0.26729 0.82389 0.0
H34 H 0.57069 0.3037 0.83764 0.0
H35 H 0.59612 0.27525 0.87772 0.0
H36 H 0.66774 0.43168 0.79924 0.0
H37 H 0.71334 0.4064 0.7896 0.0
H38 H 0.70932 0.43217 0.83745 0.0
C39 C 0.81351 0.69072 0.30579 0.0
N40 N 0.84714 0.71663 0.31071 0.0
N41 N 0.78956 0.69132 0.33909 0.0
C42 C 0.80455 0.66433 0.26854 0.0
C43 C 0.80983 0.71845 0.3645 0.0
N44 N 0.84486 0.73375 0.34748 0.0
C45 C 0.79578 0.72888 0.40671 0.0
H46 H 0.79768 0.68391 0.24105 0.0
H47 H 0.77793 0.6425 0.27212 0.0
H48 H 0.83161 0.64746 0.26195 0.0
H49 H 0.78124 0.70146 0.42233 0.0
H50 H 0.77284 0.75203 0.40278 0.0
H51 H 0.8208 0.74181 0.42708 0.0
C52 C 0.89821 0.9463 0.97268 0.0
N53 N 0.92369 0.93035 0.94634 0.0
N54 N 0.88358 0.98103 0.95665 0.0
C55 C 0.88361 0.92522 0.01195 0.0
C56 C 0.90056 0.98559 0.91918 0.0
N57 N 0.92559 0.95517 0.9129 0.0
C58 C 0.88761 0.01621 0.88643 0.0
H59 H 0.86005 0.90078 0.00386 0.0
H60 H 0.87024 0.94696 0.0325 0.0
H61 H 0.90907 0.91084 0.02884 0.0
H62 H 0.90655 0.04512 0.89021 0.0
H63 H 0.85544 0.02317 0.88974 0.0
H64 H 0.89117 0.00492 0.85474 0.0
C65 C 0.65005 0.14612 0.47656 0.0
N66 N 0.65514 0.11111 0.45623 0.0
N67 N 0.61083 0.15608 0.47375 0.0
C68 C 0.68312 0.17157 0.49878 0.0
C69 C 0.59207 0.1249 0.45248 0.0
N70 N 0.61877 0.09821 0.4407 0.0
C71 C 0.5479 0.12336 0.43845 0.0
H72 H 0.67017 0.19018 0.52261 0.0
H73 H 0.69866 0.19269 0.47612 0.0
H74 H 0.70578 0.15205 0.514 0.0
H75 H 0.54491 0.13769 0.40704 0.0
H76 H 0.52995 0.14015 0.46003 0.0
H77 H 0.53545 0.09122 0.43671 0.0
C78 C 0.38796 0.58639 0.1208 0.0
N79 N 0.419 0.61142 0.13648 0.0
N80 N 0.36573 0.60665 0.09176 0.0
C81 C 0.37619 0.54382 0.13675 0.0
C82 C 0.38358 0.6448 0.09082 0.0
N83 N 0.41583 0.64768 0.11776 0.0
C84 C 0.36753 0.68028 0.06591 0.0
H85 H 0.35882 0.52598 0.11256 0.0
H86 H 0.3566 0.54597 0.16377 0.0
H87 H 0.40253 0.52673 0.14724 0.0
H88 H 0.33397 0.67674 0.0617 0.0
H89 H 0.38114 0.68151 0.0349 0.0
H90 H 0.37558 0.70984 0.08079 0.0
C91 C 0.06314 0.40647 0.64951 0.0
N92 N 0.09183 0.40106 0.62128 0.0
N93 N 0.0674 0.44477 0.66465 0.0
C94 C 0.03144 0.37426 0.6627 0.0
C95 C 0.09989 0.46223 0.64487 0.0
N96 N 0.11449 0.43597 0.61843 0.0
C97 C 0.12009 0.50361 0.65437 0.0
H98 H 0.0046 0.38822 0.67473 0.0
H99 H 0.04472 0.35484 0.68765 0.0
H100 H 0.02158 0.35444 0.63645 0.0
H101 H 0.11604 0.51144 0.68713 0.0
H102 H 0.10625 0.52699 0.6339 0.0
H103 H 0.15313 0.50467 0.64864 0.0
Zn104 Zn 0.98577 0.08059 0.57966 0.0
Zn105 Zn 0.05863 0.98584 0.51588 0.0
Zn106 Zn 0.02356 0.03229 0.5419 0.0
C107 C 0.06748 0.04702 0.45971 0.0
C108 C 0.98718 0.94716 0.51071 0.0
O109 O 0.03147 0.01598 0.60952 0.0
O110 O 0.98772 0.05531 0.63625 0.0
C111 C 0.04567 0.12911 0.54115 0.0
O112 O 0.0615 0.06596 0.4933 0.0
O113 O 0.05956 0.00899 0.45955 0.0
O114 O 0.02168 0.9372 0.52394 0.0
O115 O 0.98017 0.98548 0.50904 0.0
O116 O 0.02015 0.13041 0.56918 0.0
O117 O 0.05073 0.09499 0.52351 0.0
O118 O 0.9581 0.02053 0.51987 0.0
O119 O 0.9347 0.07538 0.54616 0.0
C120 C 0.9292 0.04483 0.52331 0.0
O121 O 0.06621 0.00379 0.59119 0.0
O122 O 0.11104 0.98825 0.54663 0.0
C123 C 0.01197 0.02724 0.64089 0.0
C124 C 0.10226 0.99282 0.58381 0.0
Zn125 Zn 0.48541 0.0709 0.02281 0.0
Zn126 Zn 0.5695 0.97352 0.10472 0.0
Zn127 Zn 0.52153 0.02075 0.07023 0.0
C128 C 0.62186 0.01904 0.06202 0.0
C129 C 0.51282 0.9222 0.06765 0.0
O130 O 0.47861 0.04831 0.11242 0.0
O131 O 0.4428 0.07854 0.06268 0.0
C132 C 0.5622 0.10168 0.02192 0.0
O133 O 0.58776 0.03576 0.05502 0.0
O134 O 0.62317 0.98734 0.08462 0.0
O135 O 0.5453 0.92057 0.08908 0.0
O136 O 0.49985 0.95698 0.05569 0.0
O137 O 0.5279 0.11473 0.01254 0.0
O138 O 0.56497 0.06676 0.04072 0.0
O139 O 0.48727 0.98294 0.02187 0.0
O140 O 0.47242 0.03243 0.97728 0.0
C141 C 0.47332 0.99483 0.98599 0.0
O142 O 0.5107 0.02941 0.13712 0.0
O143 O 0.55868 0.98993 0.16086 0.0
C144 C 0.44721 0.06753 0.10028 0.0
C145 C 0.53131 0.01374 0.1676 0.0
Zn146 Zn 0.53066 0.54997 0.54081 0.0
Zn147 Zn 0.42558 0.46404 0.45255 0.0
Zn148 Zn 0.47445 0.5079 0.49827 0.0
C149 C 0.47435 0.40906 0.48976 0.0
C150 C 0.47186 0.51036 0.39779 0.0
O151 O 0.43977 0.54782 0.53787 0.0
O152 O 0.49178 0.58313 0.56744 0.0
C153 C 0.53346 0.46978 0.56857 0.0
O154 O 0.4896 0.44244 0.50574 0.0
O155 O 0.4421 0.4094 0.46764 0.0
O156 O 0.44295 0.48332 0.39712 0.0
O157 O 0.48686 0.52385 0.43258 0.0
O158 O 0.55189 0.50409 0.57458 0.0
O159 O 0.50503 0.46567 0.54039 0.0
O160 O 0.51696 0.54448 0.45651 0.0
O161 O 0.56355 0.57657 0.49695 0.0
C162 C 0.54944 0.56832 0.46114 0.0
O163 O 0.41129 0.51953 0.51602 0.0
O164 O 0.37425 0.47952 0.47305 0.0
C165 C 0.45383 0.57626 0.5624 0.0
C166 C 0.37647 0.50427 0.50227 0.0
Zn167 Zn 0.07449 0.63269 0.94751 0.0
Zn168 Zn 0.96275 0.51693 0.07669 0.0
Zn169 Zn 0.00281 0.5547 0.01878 0.0
C170 C 0.03805 0.48442 0.08215 0.0
C171 C 0.92456 0.49848 0.998 0.0
O172 O 1.00097 0.62451 0.01525 0.0
O173 O 0.04275 0.67039 0.98031 0.0
C174 C 0.08415 0.55972 1.00224 0.0
O175 O 0.04336 0.51268 0.05394 0.0
O176 O 0.00379 0.47834 0.09834 0.0
O177 O 0.91911 0.49598 0.03664 0.0
O178 O 0.95602 0.5187 0.98394 0.0
O179 O 0.06376 0.58164 0.97811 0.0
O180 O 0.0636 0.53727 0.02741 0.0
O181 O 0.98502 0.53814 0.95556 0.0
O182 O 0.03085 0.58502 0.93402 0.0
C183 C 0.00443 0.55614 0.92577 0.0
O184 O 0.98442 0.60469 0.05648 0.0
O185 O 0.95729 0.56759 0.10784 0.0
C186 C 0.0129 0.66173 0.00401 0.0
C187 C 0.96844 0.60205 0.09231 0.0
H188 H 0.17208 0.21629 0.30327 0.0
H189 H 0.17958 0.11705 0.21877 0.0
H190 H 0.15113 0.06877 0.27125 0.0
H191 H 0.19309 0.15971 0.40078 0.0
H192 H 0.15598 0.18463 0.4291 0.0
H193 H 0.18109 0.2111 0.38653 0.0
H194 H 0.11108 0.22387 0.35147 0.0
H195 H 0.0858 0.19714 0.39376 0.0
H196 H 0.07537 0.18116 0.34123 0.0
H197 H 0.11726 0.03269 0.32861 0.0
H198 H 0.08328 0.00732 0.39053 0.0
H199 H 0.09428 0.12899 0.44172 0.0
C200 C 0.16857 0.18415 0.29645 0.0
C201 C 0.17953 0.17014 0.2574 0.0
C202 C 0.17343 0.12825 0.24884 0.0
C203 C 0.15655 0.1007 0.27837 0.0
C204 C 0.14542 0.11563 0.31611 0.0
C205 C 0.15122 0.15628 0.32551 0.0
C206 C 0.13429 0.16428 0.36771 0.0
C207 C 0.16814 0.18091 0.39782 0.0
C208 C 0.09958 0.19334 0.36327 0.0
C209 C 0.11838 0.1215 0.38071 0.0
C210 C 0.12504 0.09435 0.34996 0.0
C211 C 0.11226 0.05348 0.3531 0.0
C212 C 0.09273 0.03948 0.38877 0.0
C213 C 0.08612 0.06595 0.42175 0.0
C214 C 0.09896 0.10785 0.41742 0.0
H215 H 0.32467 0.86015 0.83401 0.0
H216 H 0.40798 0.89721 0.73745 0.0
H217 H 0.45381 0.93311 0.78899 0.0
H218 H 0.33923 0.95631 0.89176 0.0
H219 H 0.33477 0.93048 0.94157 0.0
H220 H 0.30845 0.90912 0.89652 0.0
H221 H 0.34352 0.84162 0.91115 0.0
H222 H 0.37097 0.86327 0.95546 0.0
H223 H 0.39826 0.84244 0.91437 0.0
H224 H 0.49247 0.96045 0.85097 0.0
H225 H 0.51597 0.99054 0.91749 0.0
H226 H 0.40691 0.93927 0.97541 0.0
C227 C 0.35196 0.87703 0.82382 0.0
C228 C 0.3627 0.8768 0.78176 0.0
C229 C 0.39907 0.89808 0.76939 0.0
C230 C 0.42543 0.91792 0.79854 0.0
C231 C 0.41477 0.91648 0.84002 0.0
C232 C 0.37843 0.89761 0.85261 0.0
C233 C 0.37405 0.9018 0.89909 0.0
C234 C 0.33693 0.92587 0.90775 0.0
C235 C 0.37155 0.85978 0.92132 0.0
C236 C 0.41362 0.92589 0.91062 0.0
C237 C 0.43688 0.93323 0.87601 0.0
C238 C 0.47448 0.95503 0.87822 0.0
C239 C 0.48778 0.97162 0.91623 0.0
C240 C 0.46365 0.96658 0.95164 0.0
C241 C 0.42646 0.94259 0.94909 0.0
H242 H 0.66342 0.36508 0.7442 0.0
H243 H 0.55766 0.36954 0.81919 0.0
H244 H 0.51568 0.38491 0.75616 0.0
H245 H 0.64188 0.45413 0.68729 0.0
H246 H 0.66316 0.43806 0.64015 0.0
H247 H 0.6818 0.41908 0.68951 0.0
H248 H 0.66614 0.34519 0.66524 0.0
H249 H 0.64656 0.36382 0.61597 0.0
H250 H 0.61537 0.32903 0.6477 0.0
H251 H 0.48665 0.4029 0.68579 0.0
H252 H 0.47533 0.43835 0.61828 0.0
H253 H 0.60278 0.4332 0.59224 0.0
C254 C 0.63129 0.36882 0.74711 0.0
C255 C 0.61318 0.36453 0.78597 0.0
C256 C 0.57141 0.37068 0.78918 0.0
C257 C 0.54753 0.37956 0.75365 0.0
C258 C 0.56636 0.38324 0.71555 0.0
C259 C 0.60758 0.37935 0.7124 0.0
C260 C 0.622 0.3917 0.66968 0.0
C261 C 0.65407 0.4279 0.6718 0.0
C262 C 0.63846 0.35525 0.64833 0.0
C263 C 0.5825 0.40393 0.64923 0.0
C264 C 0.55049 0.3973 0.67577 0.0
C265 C 0.51132 0.40789 0.66461 0.0
C266 C 0.50511 0.42765 0.62615 0.0
C267 C 0.53817 0.43771 0.60028 0.0
C268 C 0.57703 0.42481 0.61132 0.0
H269 H 0.84459 0.73724 0.22928 0.0
H270 H 0.92473 0.69863 0.32947 0.0
H271 H 0.9751 0.68171 0.27862 0.0
H272 H 0.85319 0.65299 0.17571 0.0
H273 H 0.84915 0.67541 0.12421 0.0
H274 H 0.82703 0.69909 0.16666 0.0
H275 H 0.86877 0.76685 0.15055 0.0
H276 H 0.89095 0.74348 0.1075 0.0
H277 H 0.92326 0.76705 0.14746 0.0
H278 H 0.00947 0.65547 0.21789 0.0
H279 H 0.02126 0.61616 0.1559 0.0
H280 H 0.91386 0.66168 0.09486 0.0
C281 C 0.87352 0.72672 0.24035 0.0
C282 C 0.88104 0.7197 0.28329 0.0
C283 C 0.91889 0.70543 0.29688 0.0
C284 C 0.94749 0.69542 0.26803 0.0
C285 C 0.93762 0.69954 0.22564 0.0
C286 C 0.90133 0.71481 0.21185 0.0
C287 C 0.89362 0.70793 0.16575 0.0
C288 C 0.85341 0.68232 0.15765 0.0
C289 C 0.89418 0.74877 0.14137 0.0
C290 C 0.93012 0.68452 0.15603 0.0
C291 C 0.95599 0.68158 0.19062 0.0
C292 C 0.98994 0.65846 0.19046 0.0
C293 C 0.99658 0.63643 0.15496 0.0
C294 C 0.96912 0.63691 0.12026 0.0
C295 C 0.93617 0.66223 0.12031 0.0
H296 H 0.3046 0.19388 0.23475 0.0
H297 H 0.2074 0.14337 0.15464 0.0
H298 H 0.25255 0.0928 0.12988 0.0
H299 H 0.37911 0.19275 0.16363 0.0
H300 H 0.42015 0.17917 0.19869 0.0
H301 H 0.3783 0.20478 0.2178 0.0
H302 H 0.3653 0.14641 0.27227 0.0
H303 H 0.40726 0.12051 0.25324 0.0
H304 H 0.3575 0.09455 0.25543 0.0
H305 H 0.30842 0.05339 0.10822 0.0
H306 H 0.37347 0.0333 0.0831 0.0
H307 H 0.43889 0.11237 0.17153 0.0
C308 C 0.29269 0.17087 0.2134 0.0
C309 C 0.25187 0.17075 0.19824 0.0
C310 C 0.23784 0.14222 0.16819 0.0
C311 C 0.26336 0.11361 0.15388 0.0
C312 C 0.30343 0.11436 0.16927 0.0
C313 C 0.31831 0.14243 0.19809 0.0
C314 C 0.3641 0.14016 0.20484 0.0
C315 C 0.38674 0.18168 0.19565 0.0
C316 C 0.37414 0.1245 0.24909 0.0
C317 C 0.37292 0.1086 0.17322 0.0
C318 C 0.33701 0.093 0.15453 0.0
C319 C 0.33664 0.06486 0.1231 0.0
C320 C 0.37382 0.05345 0.10919 0.0
C321 C 0.41121 0.0706 0.12591 0.0
C322 C 0.41082 0.09778 0.15918 0.0
H323 H 0.31524 0.91197 0.65487 0.0
H324 H 0.26469 0.87932 0.77386 0.0
H325 H 0.20594 0.92084 0.75641 0.0
H326 H 0.27308 0.01386 0.63538 0.0
H327 H 0.26169 0.00264 0.58166 0.0
H328 H 0.30437 0.98092 0.60841 0.0
H329 H 0.27538 0.90877 0.58816 0.0
H330 H 0.23228 0.93001 0.56209 0.0
H331 H 0.22465 0.89171 0.6026 0.0
H332 H 0.14607 0.95595 0.7197 0.0
H333 H 0.09397 0.98028 0.66908 0.0
H334 H 0.18211 0.98253 0.57238 0.0
C335 C 0.29237 0.9146 0.67768 0.0
C336 C 0.29432 0.8923 0.71563 0.0
C337 C 0.26401 0.89668 0.74487 0.0
C338 C 0.23033 0.91987 0.73494 0.0
C339 C 0.22739 0.93845 0.69554 0.0
C340 C 0.25797 0.93619 0.6675 0.0
C341 C 0.24512 0.95243 0.62502 0.0
C342 C 0.27271 0.9897 0.61187 0.0
C343 C 0.2443 0.91874 0.59259 0.0
C344 C 0.2026 0.96424 0.63334 0.0
C345 C 0.19277 0.95648 0.67417 0.0
C346 C 0.15381 0.96261 0.6878 0.0
C347 C 0.12425 0.97642 0.65884 0.0
C348 C 0.13358 0.98331 0.61663 0.0
C349 C 0.17366 0.97777 0.60437 0.0
H350 H 0.71078 0.38864 0.93661 0.0
H351 H 0.7634 0.34587 0.82646 0.0
H352 H 0.8306 0.37847 0.84836 0.0
H353 H 0.76074 0.48156 0.94176 0.0
H354 H 0.76915 0.4822 0.99727 0.0
H355 H 0.72675 0.45199 0.97523 0.0
H356 H 0.75121 0.38671 0.01254 0.0
H357 H 0.79303 0.41688 0.03604 0.0
H358 H 0.80265 0.37291 0.00655 0.0
H359 H 0.88948 0.42356 0.87921 0.0
H360 H 0.93747 0.46832 0.92111 0.0
H361 H 0.84573 0.47614 0.01312 0.0
C362 C 0.73704 0.38389 0.91862 0.0
C363 C 0.73278 0.36325 0.88103 0.0
C364 C 0.76691 0.3605 0.85616 0.0
C365 C 0.80487 0.37915 0.8682 0.0
C366 C 0.80798 0.39984 0.90546 0.0
C367 C 0.77514 0.40128 0.93081 0.0
C368 C 0.78583 0.42615 0.96874 0.0
C369 C 0.75903 0.46263 0.97082 0.0
C370 C 0.78303 0.39906 0.00831 0.0
C371 C 0.82935 0.43993 0.96007 0.0
C372 C 0.84173 0.42466 0.92342 0.0
C373 C 0.88028 0.43513 0.9083 0.0
C374 C 0.90716 0.46093 0.93198 0.0
C375 C 0.8953 0.4756 0.97029 0.0
C376 C 0.85577 0.46515 0.98408 0.0
H377 H 0.7179 0.71754 0.36283 0.0
H378 H 0.77937 0.6088 0.33812 0.0
H379 H 0.71646 0.56624 0.35257 0.0
H380 H 0.6728 0.67379 0.45235 0.0
H381 H 0.62729 0.70121 0.44612 0.0
H382 H 0.67413 0.72267 0.42549 0.0
H383 H 0.63814 0.72871 0.35282 0.0
H384 H 0.59143 0.70616 0.37327 0.0
H385 H 0.61357 0.6838 0.3297 0.0
H386 H 0.64713 0.53558 0.37163 0.0
H387 H 0.58558 0.51754 0.41168 0.0
H388 H 0.57416 0.64525 0.43531 0.0
C389 C 0.71785 0.68481 0.35999 0.0
C390 C 0.75284 0.66652 0.34752 0.0
C391 C 0.75217 0.62347 0.34557 0.0
C392 C 0.71663 0.59913 0.35378 0.0
C393 C 0.68234 0.61823 0.36529 0.0
C394 C 0.68317 0.66002 0.36975 0.0
C395 C 0.64501 0.67239 0.38952 0.0
C396 C 0.65543 0.69375 0.43082 0.0
C397 C 0.6206 0.69937 0.35953 0.0
C398 C 0.6229 0.631 0.3963 0.0
C399 C 0.64412 0.60031 0.38047 0.0
C400 C 0.63022 0.55938 0.38402 0.0
C401 C 0.59504 0.54941 0.4064 0.0
C402 C 0.57514 0.58012 0.42596 0.0
C403 C 0.58847 0.62143 0.41976 0.0
H404 H 0.14609 0.31469 0.21825 0.0
H405 H 0.20234 0.281 0.10575 0.0
H406 H 0.17759 0.34226 0.06976 0.0
H407 H 0.05434 0.33608 0.16067 0.0
H408 H 0.04115 0.37462 0.19562 0.0
H409 H 0.07042 0.33321 0.21458 0.0
H410 H 0.12658 0.38538 0.24251 0.0
H411 H 0.09769 0.42696 0.22315 0.0
H412 H 0.14927 0.42338 0.20752 0.0
H413 H 0.14519 0.4078 0.04602 0.0
H414 H 0.09758 0.46202 0.03195 0.0
H415 H 0.05095 0.4429 0.1555 0.0
C416 C 0.15319 0.31994 0.18602 0.0
C417 C 0.17732 0.29338 0.16539 0.0
C418 C 0.18573 0.30174 0.12306 0.0
C419 C 0.17134 0.33631 0.10215 0.0
C420 C 0.14706 0.36134 0.12343 0.0
C421 C 0.13695 0.35265 0.16403 0.0
C422 C 0.10492 0.37985 0.17785 0.0
C423 C 0.06538 0.35444 0.18776 0.0
C424 C 0.12058 0.40541 0.21496 0.0
C425 C 0.09948 0.40618 0.13912 0.0
C426 C 0.12468 0.39567 0.10832 0.0
C427 C 0.12511 0.41601 0.06982 0.0
C428 C 0.09815 0.44696 0.06222 0.0
C429 C 0.07051 0.45652 0.09263 0.0
C430 C 0.07171 0.43617 0.1317 0.0
H431 H 0.66825 0.24098 0.85723 0.0
H432 H 0.68187 0.32744 0.95586 0.0
H433 H 0.67783 0.27143 0.00768 0.0
H434 H 0.58734 0.1948 0.89727 0.0
H435 H 0.5944 0.14368 0.88124 0.0
H436 H 0.61696 0.18634 0.85273 0.0
H437 H 0.68797 0.15741 0.86389 0.0
H438 H 0.66533 0.11436 0.89258 0.0
H439 H 0.70664 0.14552 0.91573 0.0
H440 H 0.65397 0.21066 0.04783 0.0
H441 H 0.6062 0.15434 0.07142 0.0
H442 H 0.59668 0.10796 0.94712 0.0
C443 C 0.6724 0.2476 0.88984 0.0
C444 C 0.67686 0.28838 0.9026 0.0
C445 C 0.68071 0.29652 0.94533 0.0
C446 C 0.67794 0.26464 0.97505 0.0
C447 C 0.67027 0.22479 0.96153 0.0
C448 C 0.66728 0.2162 0.9197 0.0
C449 C 0.64805 0.17366 0.91274 0.0
C450 C 0.60942 0.17474 0.88438 0.0
C451 C 0.67885 0.1461 0.89521 0.0
C452 C 0.63801 0.1608 0.95682 0.0
C453 C 0.6529 0.18986 0.98472 0.0
C454 C 0.64312 0.18721 0.0265 0.0
C455 C 0.616 0.15524 0.03969 0.0
C456 C 0.59867 0.12693 0.01103 0.0
C457 C 0.61078 0.12883 0.96959 0.0
H458 H 0.85843 0.81616 0.33753 0.0
H459 H 0.8968 0.71039 0.40741 0.0
H460 H 0.93162 0.75525 0.45966 0.0
H461 H 0.9561 0.88018 0.36026 0.0
H462 H 0.92982 0.92649 0.36201 0.0
H463 H 0.91036 0.88587 0.32894 0.0
H464 H 0.84124 0.8859 0.36459 0.0
H465 H 0.86097 0.92538 0.3989 0.0
H466 H 0.83937 0.87777 0.42001 0.0
H467 H 0.95166 0.80954 0.50913 0.0
H468 H 0.97796 0.87169 0.54407 0.0
H469 H 0.93489 0.94569 0.44013 0.0
C470 C 0.87574 0.8028 0.36296 0.0
C471 C 0.8754 0.75984 0.3685 0.0
C472 C 0.89752 0.74316 0.40247 0.0
C473 C 0.91667 0.76841 0.43257 0.0
C474 C 0.9144 0.81048 0.42765 0.0
C475 C 0.89624 0.82785 0.39286 0.0
C476 C 0.89997 0.8743 0.39501 0.0
C477 C 0.92559 0.89281 0.35945 0.0
C478 C 0.85787 0.89186 0.39459 0.0
C479 C 0.92211 0.8801 0.43694 0.0
C480 C 0.92902 0.84257 0.45536 0.0
C481 C 0.94736 0.83909 0.49461 0.0
C482 C 0.9618 0.87471 0.51442 0.0
C483 C 0.95883 0.91363 0.49486 0.0
C484 C 0.93727 0.9165 0.45614 0.0
H485 H 0.41399 0.76636 0.6996 0.0
H486 H 0.28467 0.7379 0.68189 0.0
H487 H 0.29846 0.67669 0.64263 0.0
H488 H 0.44856 0.73644 0.60655 0.0
H489 H 0.49249 0.71207 0.62753 0.0
H490 H 0.47217 0.75248 0.65521 0.0
H491 H 0.46457 0.7052 0.72042 0.0
H492 H 0.48526 0.66462 0.69303 0.0
H493 H 0.43642 0.65651 0.7163 0.0
H494 H 0.32775 0.62271 0.59825 0.0
H495 H 0.36952 0.57664 0.5608 0.0
H496 H 0.47866 0.63664 0.6157 0.0
C497 C 0.38864 0.74674 0.68819 0.0
C498 C 0.34826 0.75734 0.69264 0.0
C499 C 0.31582 0.7308 0.67758 0.0
C500 C 0.32338 0.69593 0.65554 0.0
C501 C 0.36363 0.68698 0.65052 0.0
C502 C 0.39566 0.711 0.6676 0.0
C503 C 0.43604 0.69414 0.65902 0.0
C504 C 0.46392 0.72567 0.63567 0.0
C505 C 0.4568 0.67923 0.6996 0.0
C506 C 0.42191 0.65861 0.63203 0.0
C507 C 0.38009 0.6546 0.62766 0.0
C508 C 0.36053 0.62507 0.60223 0.0
C509 C 0.38444 0.59894 0.58097 0.0
C510 C 0.42735 0.60239 0.58531 0.0
C511 C 0.44593 0.63263 0.61159 0.0
H512 H 0.97195 0.01723 0.8799 0.0
H513 H 0.93593 0.88943 0.8638 0.0
H514 H 0.96948 0.89162 0.79676 0.0
H515 H 0.93793 0.04201 0.78152 0.0
H516 H 0.97473 0.0842 0.77318 0.0
H517 H 0.96023 0.06981 0.82496 0.0
H518 H 0.03567 0.0613 0.84664 0.0
H519 H 0.05052 0.07581 0.79478 0.0
H520 H 0.06515 0.02813 0.81785 0.0
H521 H 0.99836 0.91061 0.72592 0.0
H522 H 0.01068 0.94508 0.6577 0.0
H523 H 0.01629 0.0624 0.71627 0.0
C524 C 0.97199 0.9894 0.86273 0.0
C525 C 0.95159 0.95306 0.87775 0.0
C526 C 0.95218 0.91739 0.85416 0.0
C527 C 0.97101 0.9185 0.81556 0.0
C528 C 0.98845 0.95567 0.80052 0.0
C529 C 0.98854 0.99063 0.8234 0.0
C530 C 1.00098 0.0283 0.79762 0.0
C531 C 0.96642 0.05778 0.79411 0.0
C532 C 0.04044 0.04963 0.81529 0.0
C533 C 0.00763 0.00927 0.75641 0.0
C534 C 1.00148 0.96724 0.75888 0.0
C535 C 0.00366 0.94344 0.72386 0.0
C536 C 0.01085 0.96319 0.68528 0.0
C537 C 0.0148 0.00628 0.68195 0.0
C538 C 0.01406 0.02936 0.71816 0.0
H539 H 0.61628 0.1313 0.3641 0.0
H540 H 0.59981 0.01728 0.43328 0.0
H541 H 0.56791 0.9845 0.37069 0.0
H542 H 0.51817 0.12055 0.31364 0.0
H543 H 0.53365 0.1458 0.26595 0.0
H544 H 0.55966 0.15905 0.3143 0.0
H545 H 0.62881 0.1428 0.28487 0.0
H546 H 0.60323 0.13119 0.23605 0.0
H547 H 0.63379 0.09399 0.26194 0.0
H548 H 0.53438 0.96595 0.30176 0.0
H549 H 0.51224 0.95923 0.22833 0.0
H550 H 0.54582 0.08718 0.2052 0.0
C551 C 0.60748 0.09897 0.36528 0.0
C552 C 0.61178 0.07622 0.40286 0.0
C553 C 0.59814 0.0346 0.40433 0.0
C554 C 0.57923 0.01615 0.3692 0.0
C555 C 0.57325 0.04019 0.33338 0.0
C556 C 0.58734 0.08064 0.33106 0.0
C557 C 0.57497 0.10049 0.28991 0.0
C558 C 0.54485 0.13344 0.29635 0.0
C559 C 0.61244 0.11811 0.26681 0.0
C560 C 0.55395 0.0642 0.2682 0.0
C561 C 0.55224 0.03005 0.29436 0.0
C562 C 0.53525 0.99254 0.28119 0.0
C563 C 0.5221 0.98917 0.23958 0.0
C564 C 0.52633 0.02293 0.21144 0.0
C565 C 0.54082 0.06134 0.22638 0.0
H566 H 0.43657 0.64817 0.20998 0.0
H567 H 0.46922 0.55017 0.13367 0.0
H568 H 0.50375 0.51851 0.19434 0.0
H569 H 0.54163 0.64224 0.27936 0.0
H570 H 0.51574 0.65949 0.32319 0.0
H571 H 0.50456 0.67993 0.27184 0.0
H572 H 0.42826 0.65915 0.2808 0.0
H573 H 0.43899 0.63827 0.33147 0.0
H574 H 0.41278 0.60657 0.29293 0.0
H575 H 0.50966 0.48748 0.26445 0.0
H576 H 0.49917 0.46533 0.33716 0.0
H577 H 0.47618 0.58861 0.36854 0.0
C578 C 0.45336 0.62171 0.20537 0.0
C579 C 0.44927 0.60087 0.16763 0.0
C580 C 0.47103 0.56574 0.1629 0.0
C581 C 0.49117 0.54791 0.19701 0.0
C582 C 0.49201 0.56749 0.23484 0.0
C583 C 0.47586 0.60499 0.23864 0.0
C584 C 0.47819 0.61795 0.28351 0.0
C585 C 0.51202 0.65193 0.28984 0.0
C586 C 0.43709 0.63117 0.29798 0.0
C587 C 0.49038 0.57876 0.30482 0.0
C588 C 0.49994 0.55057 0.27608 0.0
C589 C 0.50456 0.50983 0.28742 0.0
C590 C 0.49829 0.49742 0.32868 0.0
C591 C 0.48793 0.52569 0.35813 0.0
C592 C 0.48566 0.56707 0.34657 0.0
H593 H 0.05088 0.41388 0.74184 0.0
H594 H 0.03475 0.51782 0.65893 0.0
H595 H 0.009 0.55589 0.71646 0.0
H596 H 0.95685 0.42944 0.80375 0.0
H597 H 0.98133 0.41211 0.85121 0.0
H598 H 0.99367 0.39133 0.80236 0.0
H599 H 0.06993 0.41196 0.81727 0.0
H600 H 0.05783 0.433 0.86584 0.0
H601 H 0.08521 0.4644 0.8281 0.0
H602 H 0.99726 0.58621 0.7846 0.0
H603 H 0.99293 0.60465 0.85801 0.0
H604 H 0.00961 0.47943 0.89655 0.0
C605 C 0.04032 0.444 0.73556 0.0
C606 C 0.04492 0.4631 0.69608 0.0
C607 C 0.03174 0.50293 0.68912 0.0
C608 C 0.01693 0.52465 0.72152 0.0
C609 C 0.01411 0.50556 0.76048 0.0
C610 C 0.0244 0.46576 0.76746 0.0
C611 C 0.02015 0.45319 0.81281 0.0
C612 C 0.98597 0.41951 0.81782 0.0
C613 C 0.0607 0.43988 0.83212 0.0
C614 C 0.00833 0.49284 0.83059 0.0
C615 C 0.0047 0.52256 0.79972 0.0
C616 C 0.99844 0.56286 0.80884 0.0
C617 C 0.99597 0.57306 0.85054 0.0
C618 C 0.99919 0.54307 0.88254 0.0
C619 C 0.00496 0.50238 0.87242 0.0
H620 H 0.80839 0.94628 0.95057 0.0
H621 H 0.87797 0.05514 0.98996 0.0
H622 H 0.81462 0.08382 0.0133 0.0
H623 H 0.71622 0.99534 0.91416 0.0
H624 H 0.68329 0.95341 0.93293 0.0
H625 H 0.73338 0.94431 0.91612 0.0
H626 H 0.75062 0.90996 0.98749 0.0
H627 H 0.70048 0.91832 0.00412 0.0
H628 H 0.74438 0.93741 0.03424 0.0
H629 H 0.74315 0.09599 0.03909 0.0
H630 H 0.67342 0.08861 0.06679 0.0
H631 H 0.65264 0.97272 0.00664 0.0
C632 C 0.80989 0.97637 0.96366 0.0
C633 C 0.84736 0.99873 0.96882 0.0
C634 C 0.84904 0.0379 0.98602 0.0
C635 C 0.81334 0.05431 0.99905 0.0
C636 C 0.77649 0.03118 0.99387 0.0
C637 C 0.77478 0.99305 0.97639 0.0
C638 C 0.73256 0.97265 0.97671 0.0
C639 C 0.71536 0.96606 0.93233 0.0
C640 C 0.73199 0.93223 1.00216 0.0
C641 C 0.71065 0.00464 0.99803 0.0
C642 C 0.73606 0.03851 0.00751 0.0
C643 C 0.72282 0.07003 0.03096 0.0
C644 C 0.68319 0.06588 0.04628 0.0
C645 C 0.65782 0.03055 0.03785 0.0
C646 C 0.67133 1.00049 0.01241 0.0
H647 H 0.73088 0.1434 0.43822 0.0
H648 H 0.66362 0.03084 0.47238 0.0
H649 H 0.72819 0.99646 0.4815 0.0
H650 H 0.81846 0.10171 0.38976 0.0
H651 H 0.85391 0.13897 0.41345 0.0
H652 H 0.80247 0.15161 0.40085 0.0
H653 H 0.79336 0.17109 0.47715 0.0
H654 H 0.8447 0.15879 0.48988 0.0
H655 H 0.80328 0.13445 0.51826 0.0
H656 H 0.80233 0.97693 0.49557 0.0
H657 H 0.8754 0.97664 0.5179 0.0
H658 H 0.89209 0.10402 0.48068 0.0
C659 C 0.72969 0.11137 0.44703 0.0
C660 C 0.69213 0.08974 0.45444 0.0
C661 C 0.69195 0.04774 0.4656 0.0
C662 C 0.72859 0.02809 0.47117 0.0
C663 C 0.76533 0.05091 0.4656 0.0
C664 C 0.76593 0.09179 0.45391 0.0
C665 C 0.80876 0.11134 0.45557 0.0
C666 C 0.82165 0.12681 0.41232 0.0
C667 C 0.81275 0.14593 0.48708 0.0
C668 C 0.83231 0.07531 0.47033 0.0
C669 C 0.8071 0.04038 0.47532 0.0
C670 C 0.82232 0.00404 0.49119 0.0
C671 C 0.86391 0.00393 0.50349 0.0
C672 C 0.88942 0.04012 0.50046 0.0
C673 C 0.87341 0.0757 0.48262 0.0
H674 H 0.29693 0.57068 0.12379 0.0
H675 H 0.35178 0.61359 0.00934 0.0
H676 H 0.28533 0.60283 0.97194 0.0
H677 H 0.2271 0.48929 0.07187 0.0
H678 H 0.18759 0.49589 0.10781 0.0
H679 H 0.24025 0.50349 0.12447 0.0
H680 H 0.22688 0.57606 0.14822 0.0
H681 H 0.17449 0.56893 0.13113 0.0
H682 H 0.2056 0.61182 0.11145 0.0
H683 H 0.21157 0.5979 0.95037 0.0
H684 H 0.13654 0.58909 0.94324 0.0
H685 H 0.13172 0.54156 0.06989 0.0
C686 C 0.29528 0.57606 0.09057 0.0
C687 C 0.32922 0.59297 0.06925 0.0
C688 C 0.32578 0.6009 0.026 0.0
C689 C 0.28834 0.59475 0.0046 0.0
C690 C 0.2551 0.57917 0.02674 0.0
C691 C 0.25846 0.56863 0.06848 0.0
C692 C 0.21783 0.55313 0.0851 0.0
C693 C 0.21823 0.50776 0.09808 0.0
C694 C 0.2055 0.57906 0.12108 0.0
C695 C 0.19084 0.55897 0.04686 0.0
C696 C 0.21287 0.57395 0.01349 0.0
C697 C 0.19405 0.58513 0.9759 0.0
C698 C 0.15154 0.58037 0.97223 0.0
C699 C 0.12866 0.56434 0.00588 0.0
C700 C 0.14863 0.55322 0.04344 0.0
H701 H 0.18921 0.40597 0.6226 0.0
H702 H 0.11521 0.492 0.5566 0.0
H703 H 0.17653 0.52415 0.52375 0.0
H704 H 0.27308 0.46878 0.64519 0.0
H705 H 0.31095 0.43349 0.63494 0.0
H706 H 0.26112 0.41456 0.65031 0.0
H707 H 0.25093 0.37141 0.58426 0.0
H708 H 0.30158 0.38853 0.56967 0.0
H709 H 0.25905 0.39555 0.53415 0.0
H710 H 0.24693 0.54971 0.50238 0.0
H711 H 0.31939 0.55873 0.48379 0.0
H712 H 0.34671 0.45529 0.56343 0.0
C713 C 0.18563 0.43005 0.59959 0.0
C714 C 0.14747 0.44592 0.5912 0.0
C715 C 0.14428 0.47902 0.5625 0.0
C716 C 0.17892 0.49771 0.54422 0.0
C717 C 0.21647 0.48242 0.55454 0.0
C718 C 0.21984 0.44849 0.58047 0.0
C719 C 0.26363 0.43768 0.58602 0.0
C720 C 0.27801 0.43872 0.63185 0.0
C721 C 0.26913 0.39583 0.56741 0.0
C722 C 0.28458 0.47189 0.56073 0.0
C723 C 0.25686 0.49738 0.54272 0.0
C724 C 0.26894 0.53008 0.51647 0.0
C725 C 0.31013 0.53546 0.50659 0.0
C726 C 0.33857 0.50872 0.52354 0.0
C727 C 0.32575 0.47726 0.55167 0.0
H728 H 0.98598 0.89762 0.98957 0.0
H729 H 0.87801 0.86832 0.91367 0.0
H730 H 0.88307 0.79478 0.93086 0.0
H731 H 0.04243 0.81284 0.96614 0.0
H732 H 0.06242 0.8059 0.01844 0.0
H733 H 0.04886 0.85556 1.00024 0.0
H734 H 1.00147 0.85858 0.0626 0.0
H735 H 0.01397 0.80813 0.07998 0.0
H736 H 0.96167 0.81901 0.06978 0.0
H737 H 0.89961 0.72474 0.95716 0.0
H738 H 0.93439 0.66262 0.97785 0.0
H739 H 0.03276 0.73701 0.03543 0.0
C740 C 0.96434 0.87539 0.97566 0.0
C741 C 0.93267 0.88808 0.94878 0.0
C742 C 0.9034 0.85864 0.93287 0.0
C743 C 0.90559 0.81708 0.9432 0.0
C744 C 0.93675 0.80553 0.97044 0.0
C745 C 0.96593 0.83373 0.98605 0.0
C746 C 0.99679 0.81307 0.01394 0.0
C747 C 0.04018 0.82237 0.99875 0.0
C748 C 0.99327 0.82546 0.05925 0.0
C749 C 0.98236 0.76866 0.00879 0.0
C750 C 0.94647 0.76511 0.98533 0.0
C751 C 0.92757 0.72715 0.97579 0.0
C752 C 0.94722 0.69196 0.98822 0.0
C753 C 0.98587 0.69513 0.00877 0.0
C754 C 0.00278 0.73385 0.02061 0.0
H755 H 0.47646 0.68276 0.07381 0.0
H756 H 0.39947 0.69887 0.17687 0.0
H757 H 0.41369 0.77337 0.17144 0.0
H758 H 0.55234 0.77241 0.09397 0.0
H759 H 0.55565 0.78334 0.03908 0.0
H760 H 0.54587 0.73157 0.05762 0.0
H761 H 0.48155 0.72641 0.00901 0.0
H762 H 0.48958 0.77897 0.99229 0.0
H763 H 0.44224 0.76125 0.01493 0.0
H764 H 0.42337 0.84498 0.14484 0.0
H765 H 0.44774 0.91141 0.11436 0.0
H766 H 0.52097 0.84992 0.02977 0.0
C767 C 0.46516 0.702 0.09696 0.0
C768 C 0.4383 0.68526 0.12687 0.0
C769 C 0.42178 0.71116 0.15527 0.0
C770 C 0.42878 0.75353 0.15156 0.0
C771 C 0.45246 0.76927 0.11929 0.0
C772 C 0.47182 0.74441 0.09347 0.0
C773 C 0.49363 0.7692 0.05971 0.0
C774 C 0.53961 0.76384 0.06281 0.0
C775 C 0.47568 0.75828 0.01644 0.0
C776 C 0.48365 0.81181 0.07077 0.0
C777 C 0.45872 0.81093 0.10437 0.0
C778 C 0.44345 0.84616 0.11894 0.0
C779 C 0.45661 0.88365 0.10077 0.0
C780 C 0.48554 0.88547 0.06933 0.0
C781 C 0.4981 0.8491 0.05311 0.0
H782 H 0.04925 0.36426 0.55773 0.0
H783 H 0.14891 0.35028 0.64629 0.0
H784 H 0.15866 0.28169 0.61994 0.0
H785 H 0.00492 0.26838 0.57265 0.0
H786 H 0.98785 0.26024 0.51962 0.0
H787 H 0.99549 0.31121 0.53832 0.0
H788 H 0.04473 0.32957 0.47879 0.0
H789 H 0.03774 0.27815 0.46033 0.0
H790 H 0.08813 0.29987 0.47283 0.0
H791 H 0.15216 0.21176 0.59034 0.0
H792 H 0.12288 0.14382 0.57002 0.0
H793 H 0.0237 0.20015 0.50443 0.0
C794 C 0.07403 0.34711 0.57022 0.0
C795 C 0.09983 0.36314 0.6025 0.0
C796 C 0.1305 0.3393 0.61998 0.0
C797 C 0.13601 0.30024 0.6053 0.0
C798 C 0.11017 0.28509 0.57333 0.0
C799 C 0.07942 0.30766 0.55628 0.0
C800 C 0.05195 0.28207 0.52694 0.0
C801 C 0.00745 0.28035 0.54022 0.0
C802 C 0.05587 0.2984 0.48206 0.0
C803 C 0.07025 0.24089 0.5324 0.0
C804 C 0.10495 0.24378 0.55777 0.0
C805 C 0.12555 0.20931 0.56972 0.0
C806 C 0.10906 0.17075 0.55749 0.0
C807 C 0.0718 0.16678 0.53446 0.0
C808 C 0.05315 0.20248 0.52044 0.0
H809 H 0.59491 0.20643 0.53689 0.0
H810 H 0.59769 0.1979 0.40322 0.0
H811 H 0.56709 0.26402 0.39456 0.0
H812 H 0.50321 0.2513 0.54505 0.0
H813 H 0.51924 0.28763 0.58423 0.0
H814 H 0.54472 0.24108 0.58093 0.0
H815 H 0.61296 0.2833 0.57524 0.0
H816 H 0.58778 0.33049 0.57625 0.0
H817 H 0.61963 0.32091 0.53388 0.0
H818 H 0.53014 0.32449 0.39906 0.0
H819 H 0.49168 0.38267 0.41606 0.0
H820 H 0.51491 0.35893 0.54759 0.0
C821 C 0.58976 0.21921 0.50603 0.0
C822 C 0.59799 0.19712 0.47056 0.0
C823 C 0.59104 0.21439 0.43053 0.0
C824 C 0.57388 0.25189 0.42537 0.0
C825 C 0.56501 0.2725 0.46065 0.0
C826 C 0.57339 0.25758 0.50026 0.0
C827 C 0.56022 0.28678 0.53238 0.0
C828 C 0.53002 0.2654 0.5624 0.0
C829 C 0.59743 0.30647 0.55587 0.0
C830 C 0.54019 0.31834 0.50453 0.0
C831 C 0.54428 0.30946 0.46329 0.0
C832 C 0.52726 0.33225 0.43116 0.0
C833 C 0.50525 0.36507 0.44122 0.0
C834 C 0.50019 0.37507 0.48307 0.0
C835 C 0.51854 0.35195 0.51537 0.0
loop_
_geom_bond_atom_site_label_1
_geom_bond_atom_site_label_2
_geom_bond_distance
_geom_bond_site_symmetry_2
_ccdc_geom_bond_type
C0 N1 1.317 . S
C0 N2 1.348 . S
C0 C3 1.485 . S
N1 C0 1.317 . S
N1 N5 1.370 . S
N2 C0 1.348 . S
N2 C4 1.346 . S
C3 C0 1.485 . S
C3 H7 0.960 . S
C3 H8 0.961 . S
C3 H9 0.960 . S
C4 N2 1.346 . S
C4 N5 1.307 . S
C4 C6 1.486 . S
N5 N1 1.370 . S
N5 C4 1.307 . S
C6 C4 1.486 . S
C6 H10 0.960 . S
C6 H11 0.960 . S
C6 H12 0.959 . S
H7 C3 0.960 . S
H8 C3 0.961 . S
H9 C3 0.960 . S
H10 C6 0.960 . S
H11 C6 0.960 . S
H12 C6 0.959 . S
C13 N14 1.317 . S
C13 N15 1.348 . S
C13 C16 1.485 . S
N14 C13 1.317 . S
N14 N18 1.370 . S
N15 C13 1.348 . S
N15 C17 1.346 . S
C16 C13 1.485 . S
C16 H20 0.960 . S
C16 H21 0.961 . S
C16 H22 0.960 . S
C17 N15 1.346 . S
C17 N18 1.307 . S
C17 C19 1.486 . S
N18 N14 1.370 . S
N18 C17 1.307 . S
C19 C17 1.486 . S
C19 H23 0.960 . S
C19 H24 0.960 . S
C19 H25 0.959 . S
H20 C16 0.960 . S
H21 C16 0.961 . S
H22 C16 0.960 . S
H23 C19 0.960 . S
H24 C19 0.960 . S
H25 C19 0.959 . S
C26 N27 1.317 . S
C26 N28 1.348 . S
C26 C29 1.485 . S
N27 C26 1.317 . S
N27 N31 1.370 . S
N28 C26 1.348 . S
N28 C30 1.346 . S
C29 C26 1.485 . S
C29 H33 0.960 . S
C29 H34 0.961 . S
C29 H35 0.960 . S
C30 N28 1.346 . S
C30 N31 1.307 . S
C30 C32 1.486 . S
N31 N27 1.370 . S
N31 C30 1.307 . S
C32 C30 1.486 . S
C32 H36 0.960 . S
C32 H37 0.960 . S
C32 H38 0.959 . S
H33 C29 0.960 . S
H34 C29 0.961 . S
H35 C29 0.960 . S
H36 C32 0.960 . S
H37 C32 0.960 . S
H38 C32 0.959 . S
C39 N40 1.317 . S
C39 N41 1.348 . S
C39 C42 1.485 . S
N40 C39 1.317 . S
N40 N44 1.370 . S
N41 C39 1.348 . S
N41 C43 1.346 . S
C42 C39 1.485 . S
C42 H46 0.960 . S
C42 H47 0.961 . S
C42 H48 0.960 . S
C43 N41 1.346 . S
C43 N44 1.307 . S
C43 C45 1.486 . S
N44 N40 1.370 . S
N44 C43 1.307 . S
C45 C43 1.486 . S
C45 H49 0.960 . S
C45 H50 0.960 . S
C45 H51 0.959 . S
H46 C42 0.960 . S
H47 C42 0.961 . S
H48 C42 0.960 . S
H49 C45 0.960 . S
H50 C45 0.960 . S
H51 C45 0.959 . S
C52 N53 1.317 . S
C52 N54 1.348 . S
C52 C55 1.485 1_556 S
N53 C52 1.317 . S
N53 N57 1.370 . S
N54 C52 1.348 . S
N54 C56 1.346 . S
C55 C52 1.485 1_554 S
C55 H59 0.960 . S
C55 H60 0.961 . S
C55 H61 0.960 . S
C56 N54 1.346 . S
C56 N57 1.307 . S
C56 C58 1.486 1_565 S
N57 N53 1.370 . S
N57 C56 1.307 . S
C58 C56 1.486 1_545 S
C58 H62 0.960 . S
C58 H63 0.960 . S
C58 H64 0.959 . S
H59 C55 0.960 . S
H60 C55 0.961 . S
H61 C55 0.960 . S
H62 C58 0.960 . S
H63 C58 0.960 . S
H64 C58 0.959 . S
C65 N66 1.317 . S
C65 N67 1.348 . S
C65 C68 1.485 . S
N66 C65 1.317 . S
N66 N70 1.370 . S
N67 C65 1.348 . S
N67 C69 1.346 . S
C68 C65 1.485 . S
C68 H72 0.960 . S
C68 H73 0.961 . S
C68 H74 0.960 . S
C69 N67 1.346 . S
C69 N70 1.307 . S
C69 C71 1.486 . S
N70 N66 1.370 . S
N70 C69 1.307 . S
C71 C69 1.486 . S
C71 H75 0.960 . S
C71 H76 0.960 . S
C71 H77 0.959 . S
H72 C68 0.960 . S
H73 C68 0.961 . S
H74 C68 0.960 . S
H75 C71 0.960 . S
H76 C71 0.960 . S
H77 C71 0.959 . S
C78 N79 1.317 . S
C78 N80 1.348 . S
C78 C81 1.485 . S
N79 C78 1.317 . S
N79 N83 1.370 . S
N80 C78 1.348 . S
N80 C82 1.346 . S
C81 C78 1.485 . S
C81 H85 0.960 . S
C81 H86 0.961 . S
C81 H87 0.960 . S
C82 N80 1.346 . S
C82 N83 1.307 . S
C82 C84 1.486 . S
N83 N79 1.370 . S
N83 C82 1.307 . S
C84 C82 1.486 . S
C84 H88 0.960 . S
C84 H89 0.960 . S
C84 H90 0.959 . S
H85 C81 0.960 . S
H86 C81 0.961 . S
H87 C81 0.960 . S
H88 C84 0.960 . S
H89 C84 0.960 . S
H90 C84 0.959 . S
C91 N92 1.317 . S
C91 N93 1.348 . S
C91 C94 1.485 . S
N92 C91 1.317 . S
N92 N96 1.370 . S
N93 C91 1.348 . S
N93 C95 1.346 . S
C94 C91 1.485 . S
C94 H98 0.960 1_455 S
C94 H99 0.961 . S
C94 H100 0.960 . S
C95 N93 1.346 . S
C95 N96 1.307 . S
C95 C97 1.486 . S
N96 N92 1.370 . S
N96 C95 1.307 . S
C97 C95 1.486 . S
C97 H101 0.960 . S
C97 H102 0.960 . S
C97 H103 0.959 . S
H98 C94 0.960 1_655 S
H99 C94 0.961 . S
H100 C94 0.960 . S
H101 C97 0.960 . S
H102 C97 0.960 . S
H103 C97 0.959 . S
Zn104 O110 1.920 . S
Zn104 O116 1.898 1_655 S
Zn104 O119 1.905 . S
Zn105 O113 1.905 1_565 S
Zn105 O114 1.898 . S
Zn105 O122 1.920 . S
Zn106 O109 2.080 . S
Zn106 O112 2.114 . S
Zn106 O115 2.120 1_545 S
Zn106 O117 2.120 . S
Zn106 O118 2.114 1_455 S
Zn106 O121 2.080 . S
C107 O112 1.166 . S
C107 O113 1.182 . S
C108 O114 1.167 . S
C108 O115 1.299 . S
O109 Zn106 2.080 . S
O109 C123 1.305 . S
O110 Zn104 1.920 . S
O110 C123 1.234 1_655 S
C111 O116 1.167 . S
C111 O117 1.299 . S
O112 Zn106 2.114 . S
O112 C107 1.166 . S
O113 Zn105 1.905 1_545 S
O113 C107 1.182 . S
O114 Zn105 1.898 . S
O114 C108 1.167 . S
O115 Zn106 2.120 1_565 S
O115 C108 1.299 . S
O116 Zn104 1.898 1_455 S
O116 C111 1.167 . S
O117 Zn106 2.120 . S
O117 C111 1.299 . S
O118 Zn106 2.114 1_655 S
O118 C120 1.166 . S
O119 Zn104 1.905 . S
O119 C120 1.182 . S
C120 O118 1.166 . S
C120 O119 1.182 . S
O121 Zn106 2.080 . S
O121 C124 1.305 1_545 S
O122 Zn105 1.920 . S
O122 C124 1.234 . S
C123 O109 1.305 . S
C123 O110 1.234 1_455 S
C124 O121 1.305 1_565 S
C124 O122 1.234 . S
Zn125 O131 1.920 . S
Zn125 O137 1.898 1_554 S
Zn125 O140 1.905 1_554 S
Zn126 O134 1.905 . S
Zn126 O135 1.898 . S
Zn126 O143 1.920 . S
Zn127 O130 2.080 . S
Zn127 O133 2.114 1_545 S
Zn127 O136 2.120 1_545 S
Zn127 O138 2.120 . S
Zn127 O139 2.114 . S
Zn127 O142 2.080 . S
C128 O133 1.166 . S
C128 O134 1.182 . S
C129 O135 1.167 . S
C129 O136 1.299 . S
O130 Zn127 2.080 . S
O130 C144 1.305 . S
O131 Zn125 1.920 . S
O131 C144 1.234 . S
C132 O137 1.167 1_554 S
C132 O138 1.299 . S
O133 Zn127 2.114 1_565 S
O133 C128 1.166 . S
O134 Zn126 1.905 . S
O134 C128 1.182 . S
O135 Zn126 1.898 . S
O135 C129 1.167 . S
O136 Zn127 2.120 1_565 S
O136 C129 1.299 . S
O137 Zn125 1.898 1_556 S
O137 C132 1.167 1_556 S
O138 Zn127 2.120 . S
O138 C132 1.299 . S
O139 Zn127 2.114 . S
O139 C141 1.166 1_554 S
O140 Zn125 1.905 1_556 S
O140 C141 1.200 . S
C141 O139 1.166 1_556 S
C141 O140 1.200 . S
O142 Zn127 2.080 . S
O142 C145 1.305 . S
O143 Zn126 1.920 . S
O143 C145 1.234 1_565 S
C144 O130 1.305 . S
C144 O131 1.234 . S
C145 O142 1.305 . S
C145 O143 1.234 1_545 S
Zn146 O152 1.920 . S
Zn146 O158 1.898 . S
Zn146 O161 1.905 . S
Zn147 O155 1.905 . S
Zn147 O156 1.898 . S
Zn147 O164 1.920 . S
Zn148 O151 2.080 . S
Zn148 O154 2.114 . S
Zn148 O157 2.120 . S
Zn148 O159 2.120 . S
Zn148 O160 2.114 . S
Zn148 O163 2.080 . S
C149 O154 1.166 . S
C149 O155 1.182 . S
C150 O156 1.167 . S
C150 O157 1.299 . S
O151 Zn148 2.080 . S
O151 C165 1.305 . S
O152 Zn146 1.920 . S
O152 C165 1.234 . S
C153 O158 1.167 . S
C153 O159 1.299 . S
O154 Zn148 2.114 . S
O154 C149 1.166 . S
O155 Zn147 1.905 . S
O155 C149 1.182 . S
O156 Zn147 1.898 . S
O156 C150 1.167 . S
O157 Zn148 2.120 . S
O157 C150 1.299 . S
O158 Zn146 1.898 . S
O158 C153 1.167 . S
O159 Zn148 2.120 . S
O159 C153 1.299 . S
O160 Zn148 2.114 . S
O160 C162 1.166 . S
O161 Zn146 1.905 . S
O161 C162 1.182 . S
C162 O160 1.166 . S
C162 O161 1.182 . S
O163 Zn148 2.080 . S
O163 C166 1.305 . S
O164 Zn147 1.920 . S
O164 C166 1.234 . S
C165 O151 1.305 . S
C165 O152 1.234 . S
C166 O163 1.305 . S
C166 O164 1.234 . S
Zn167 O173 1.920 . S
Zn167 O179 1.898 . S
Zn167 O182 1.905 . S
Zn168 O176 1.905 . S
Zn168 O177 1.898 . S
Zn168 O185 1.920 . S
Zn169 O172 2.080 1_454 S
Zn169 O175 2.114 . S
Zn169 O178 2.120 1_454 S
Zn169 O180 2.120 . S
Zn169 O181 2.114 1_554 S
Zn169 O184 2.080 1_455 S
C170 O175 1.166 . S
C170 O176 1.182 1_455 S
C171 O177 1.167 1_556 S
C171 O178 1.299 . S
O172 Zn169 2.080 1_656 S
O172 C186 1.305 1_655 S
O173 Zn167 1.920 . S
O173 C186 1.234 . S
C174 O179 1.167 1_554 S
C174 O180 1.299 . S
O175 Zn169 2.114 . S
O175 C170 1.166 . S
O176 Zn168 1.905 . S
O176 C170 1.182 1_655 S
O177 Zn168 1.898 . S
O177 C171 1.167 1_554 S
O178 Zn169 2.120 1_656 S
O178 C171 1.299 . S
O179 Zn167 1.898 . S
O179 C174 1.167 1_556 S
O180 Zn169 2.120 . S
O180 C174 1.299 . S
O181 Zn169 2.114 1_556 S
O181 C183 1.166 . S
O182 Zn167 1.905 . S
O182 C183 1.182 . S
C183 O181 1.166 . S
C183 O182 1.182 . S
O184 Zn169 2.080 1_655 S
O184 C187 1.305 . S
O185 Zn168 1.920 . S
O185 C187 1.234 . S
C186 O172 1.305 1_455 S
C186 O173 1.234 . S
C187 O184 1.305 . S
C187 O185 1.234 . S
H188 C200 0.930 . S
H189 C202 0.930 . S
H190 C203 0.930 . S
H191 C207 0.959 . S
H192 C207 0.959 . S
H193 C207 0.961 . S
H194 C208 0.960 . S
H195 C208 0.961 . S
H196 C208 0.959 . S
H197 C211 0.929 . S
H198 C212 0.931 . S
H199 C214 0.930 . S
C200 H188 0.930 . S
C200 C201 1.399 . S
C200 C205 1.399 . S
C201 C200 1.399 . S
C201 C202 1.376 . S
C202 H189 0.930 . S
C202 C201 1.376 . S
C202 C203 1.388 . S
C203 H190 0.930 . S
C203 C202 1.388 . S
C203 C204 1.390 . S
C204 C203 1.390 . S
C204 C205 1.394 . S
C204 C210 1.465 . S
C205 C200 1.399 . S
C205 C204 1.394 . S
C205 C206 1.516 . S
C206 C205 1.516 . S
C206 C207 1.502 . S
C206 C208 1.561 . S
C206 C209 1.526 . S
C207 H191 0.959 . S
C207 H192 0.959 . S
C207 H193 0.961 . S
C207 C206 1.502 . S
C208 H194 0.960 . S
C208 H195 0.961 . S
C208 H196 0.959 . S
C208 C206 1.561 . S
C209 C206 1.526 . S
C209 C210 1.396 . S
C209 C214 1.390 . S
C210 C204 1.465 . S
C210 C209 1.396 . S
C210 C211 1.399 . S
C211 H197 0.929 . S
C211 C210 1.399 . S
C211 C212 1.385 . S
C212 H198 0.931 . S
C212 C211 1.385 . S
C212 C213 1.389 . S
C213 C212 1.389 . S
C213 C214 1.387 . S
C214 H199 0.930 . S
C214 C209 1.390 . S
C214 C213 1.387 . S
H215 C227 0.930 . S
H216 C229 0.930 . S
H217 C230 0.930 . S
H218 C234 0.959 . S
H219 C234 0.959 . S
H220 C234 0.961 . S
H221 C235 0.960 . S
H222 C235 0.961 . S
H223 C235 0.959 . S
H224 C238 0.929 . S
H225 C239 0.931 . S
H226 C241 0.930 . S
C227 H215 0.930 . S
C227 C228 1.399 . S
C227 C232 1.399 . S
C228 C227 1.399 . S
C228 C229 1.376 . S
C229 H216 0.930 . S
C229 C228 1.376 . S
C229 C230 1.388 . S
C230 H217 0.930 . S
C230 C229 1.388 . S
C230 C231 1.390 . S
C231 C230 1.390 . S
C231 C232 1.394 . S
C231 C237 1.465 . S
C232 C227 1.399 . S
C232 C231 1.394 . S
C232 C233 1.516 . S
C233 C232 1.516 . S
C233 C234 1.502 . S
C233 C235 1.561 . S
C233 C236 1.526 . S
C234 H218 0.959 . S
C234 H219 0.959 . S
C234 H220 0.961 . S
C234 C233 1.502 . S
C235 H221 0.960 . S
C235 H222 0.961 . S
C235 H223 0.959 . S
C235 C233 1.561 . S
C236 C233 1.526 . S
C236 C237 1.396 . S
C236 C241 1.390 . S
C237 C231 1.465 . S
C237 C236 1.396 . S
C237 C238 1.399 . S
C238 H224 0.929 . S
C238 C237 1.399 . S
C238 C239 1.385 . S
C239 H225 0.931 . S
C239 C238 1.385 . S
C239 C240 1.389 . S
C240 C239 1.389 . S
C240 C241 1.387 . S
C241 H226 0.930 . S
C241 C236 1.390 . S
C241 C240 1.387 . S
H242 C254 0.930 . S
H243 C256 0.930 . S
H244 C257 0.930 . S
H245 C261 0.959 . S
H246 C261 0.959 . S
H247 C261 0.961 . S
H248 C262 0.960 . S
H249 C262 0.961 . S
H250 C262 0.959 . S
H251 C265 0.929 . S
H252 C266 0.931 . S
H253 C268 0.930 . S
C254 H242 0.930 . S
C254 C255 1.399 . S
C254 C259 1.399 . S
C255 C254 1.399 . S
C255 C256 1.376 . S
C256 H243 0.930 . S
C256 C255 1.376 . S
C256 C257 1.388 . S
C257 H244 0.930 . S
C257 C256 1.388 . S
C257 C258 1.390 . S
C258 C257 1.390 . S
C258 C259 1.394 . S
C258 C264 1.465 . S
C259 C254 1.399 . S
C259 C258 1.394 . S
C259 C260 1.516 . S
C260 C259 1.516 . S
C260 C261 1.502 . S
C260 C262 1.561 . S
C260 C263 1.526 . S
C261 H245 0.959 . S
C261 H246 0.959 . S
C261 H247 0.961 . S
C261 C260 1.502 . S
C262 H248 0.960 . S
C262 H249 0.961 . S
C262 H250 0.959 . S
C262 C260 1.561 . S
C263 C260 1.526 . S
C263 C264 1.396 . S
C263 C268 1.390 . S
C264 C258 1.465 . S
C264 C263 1.396 . S
C264 C265 1.399 . S
C265 H251 0.929 . S
C265 C264 1.399 . S
C265 C266 1.385 . S
C266 H252 0.931 . S
C266 C265 1.385 . S
C266 C267 1.389 . S
C267 C266 1.389 . S
C267 C268 1.387 . S
C268 H253 0.930 . S
C268 C263 1.390 . S
C268 C267 1.387 . S
H269 C281 0.930 . S
H270 C283 0.930 . S
H271 C284 0.930 . S
H272 C288 0.959 . S
H273 C288 0.959 . S
H274 C288 0.961 . S
H275 C289 0.960 . S
H276 C289 0.961 . S
H277 C289 0.959 . S
H278 C292 0.929 . S
H279 C293 0.931 . S
H280 C295 0.930 . S
C281 H269 0.930 . S
C281 C282 1.399 . S
C281 C286 1.399 . S
C282 C281 1.399 . S
C282 C283 1.376 . S
C283 H270 0.930 . S
C283 C282 1.376 . S
C283 C284 1.388 . S
C284 H271 0.930 . S
C284 C283 1.388 . S
C284 C285 1.390 . S
C285 C284 1.390 . S
C285 C286 1.394 . S
C285 C291 1.465 . S
C286 C281 1.399 . S
C286 C285 1.394 . S
C286 C287 1.516 . S
C287 C286 1.516 . S
C287 C288 1.502 . S
C287 C289 1.561 . S
C287 C290 1.526 . S
C288 H272 0.959 . S
C288 H273 0.959 . S
C288 H274 0.961 . S
C288 C287 1.502 . S
C289 H275 0.960 . S
C289 H276 0.961 . S
C289 H277 0.959 . S
C289 C287 1.561 . S
C290 C287 1.526 . S
C290 C291 1.396 . S
C290 C295 1.390 . S
C291 C285 1.465 . S
C291 C290 1.396 . S
C291 C292 1.399 . S
C292 H278 0.929 . S
C292 C291 1.399 . S
C292 C293 1.385 . S
C293 H279 0.931 . S
C293 C292 1.385 . S
C293 C294 1.389 . S
C294 C293 1.389 . S
C294 C295 1.387 . S
C295 H280 0.930 . S
C295 C290 1.390 . S
C295 C294 1.387 . S
H296 C308 0.930 . S
H297 C310 0.930 . S
H298 C311 0.930 . S
H299 C315 0.959 . S
H300 C315 0.959 . S
H301 C315 0.961 . S
H302 C316 0.960 . S
H303 C316 0.961 . S
H304 C316 0.959 . S
H305 C319 0.929 . S
H306 C320 0.931 . S
H307 C322 0.930 . S
C308 H296 0.930 . S
C308 C309 1.399 . S
C308 C313 1.399 . S
C309 C308 1.399 . S
C309 C310 1.376 . S
C310 H297 0.930 . S
C310 C309 1.376 . S
C310 C311 1.388 . S
C311 H298 0.930 . S
C311 C310 1.388 . S
C311 C312 1.390 . S
C312 C311 1.390 . S
C312 C313 1.394 . S
C312 C318 1.465 . S
C313 C308 1.399 . S
C313 C312 1.394 . S
C313 C314 1.516 . S
C314 C313 1.516 . S
C314 C315 1.502 . S
C314 C316 1.561 . S
C314 C317 1.526 . S
C315 H299 0.959 . S
C315 H300 0.959 . S
C315 H301 0.961 . S
C315 C314 1.502 . S
C316 H302 0.960 . S
C316 H303 0.961 . S
C316 H304 0.959 . S
C316 C314 1.561 . S
C317 C314 1.526 . S
C317 C318 1.396 . S
C317 C322 1.390 . S
C318 C312 1.465 . S
C318 C317 1.396 . S
C318 C319 1.399 . S
C319 H305 0.929 . S
C319 C318 1.399 . S
C319 C320 1.385 . S
C320 H306 0.931 . S
C320 C319 1.385 . S
C320 C321 1.389 . S
C321 C320 1.389 . S
C321 C322 1.387 . S
C322 H307 0.930 . S
C322 C317 1.390 . S
C322 C321 1.387 . S
H323 C335 0.930 . S
H324 C337 0.930 . S
H325 C338 0.930 . S
H326 C342 0.959 . S
H327 C342 0.959 . S
H328 C342 0.961 . S
H329 C343 0.960 . S
H330 C343 0.961 . S
H331 C343 0.959 . S
H332 C346 0.929 . S
H333 C347 0.931 . S
H334 C349 0.930 . S
C335 H323 0.930 . S
C335 C336 1.399 . S
C335 C340 1.399 . S
C336 C335 1.399 . S
C336 C337 1.376 . S
C337 H324 0.930 . S
C337 C336 1.376 . S
C337 C338 1.388 . S
C338 H325 0.930 . S
C338 C337 1.388 . S
C338 C339 1.390 . S
C339 C338 1.390 . S
C339 C340 1.394 . S
C339 C345 1.465 . S
C340 C335 1.399 . S
C340 C339 1.394 . S
C340 C341 1.516 . S
C341 C340 1.516 . S
C341 C342 1.502 . S
C341 C343 1.561 . S
C341 C344 1.526 . S
C342 H326 0.959 . S
C342 H327 0.959 . S
C342 H328 0.961 . S
C342 C341 1.502 . S
C343 H329 0.960 . S
C343 H330 0.961 . S
C343 H331 0.959 . S
C343 C341 1.561 . S
C344 C341 1.526 . S
C344 C345 1.396 . S
C344 C349 1.390 . S
C345 C339 1.465 . S
C345 C344 1.396 . S
C345 C346 1.399 . S
C346 H332 0.929 . S
C346 C345 1.399 . S
C346 C347 1.385 . S
C347 H333 0.931 . S
C347 C346 1.385 . S
C347 C348 1.389 . S
C348 C347 1.389 . S
C348 C349 1.387 . S
C349 H334 0.930 . S
C349 C344 1.390 . S
C349 C348 1.387 . S
H350 C362 0.930 . S
H351 C364 0.930 . S
H352 C365 0.930 . S
H353 C369 0.959 . S
H354 C369 0.959 1_554 S
H355 C369 0.961 . S
H356 C370 0.960 . S
H357 C370 0.961 1_554 S
H358 C370 0.959 . S
H359 C373 0.929 . S
H360 C374 0.931 . S
H361 C376 0.930 1_554 S
C362 H350 0.930 . S
C362 C363 1.399 . S
C362 C367 1.399 . S
C363 C362 1.399 . S
C363 C364 1.376 . S
C364 H351 0.930 . S
C364 C363 1.376 . S
C364 C365 1.388 . S
C365 H352 0.930 . S
C365 C364 1.388 . S
C365 C366 1.390 . S
C366 C365 1.390 . S
C366 C367 1.394 . S
C366 C372 1.465 . S
C367 C362 1.399 . S
C367 C366 1.394 . S
C367 C368 1.516 . S
C368 C367 1.516 . S
C368 C369 1.502 . S
C368 C370 1.561 . S
C368 C371 1.526 . S
C369 H353 0.959 . S
C369 H354 0.959 1_556 S
C369 H355 0.961 . S
C369 C368 1.502 . S
C370 H356 0.960 . S
C370 H357 0.961 1_556 S
C370 H358 0.959 . S
C370 C368 1.561 . S
C371 C368 1.526 . S
C371 C372 1.396 . S
C371 C376 1.390 . S
C372 C366 1.465 . S
C372 C371 1.396 . S
C372 C373 1.399 . S
C373 H359 0.929 . S
C373 C372 1.399 . S
C373 C374 1.385 . S
C374 H360 0.931 . S
C374 C373 1.385 . S
C374 C375 1.389 . S
C375 C374 1.389 . S
C375 C376 1.387 . S
C376 H361 0.930 1_556 S
C376 C371 1.390 . S
C376 C375 1.387 . S
H377 C389 0.930 . S
H378 C391 0.930 . S
H379 C392 0.930 . S
H380 C396 0.959 . S
H381 C396 0.959 . S
H382 C396 0.961 . S
H383 C397 0.960 . S
H384 C397 0.961 . S
H385 C397 0.959 . S
H386 C400 0.929 . S
H387 C401 0.931 . S
H388 C403 0.930 . S
C389 H377 0.930 . S
C389 C390 1.399 . S
C389 C394 1.399 . S
C390 C389 1.399 . S
C390 C391 1.376 . S
C391 H378 0.930 . S
C391 C390 1.376 . S
C391 C392 1.388 . S
C392 H379 0.930 . S
C392 C391 1.388 . S
C392 C393 1.390 . S
C393 C392 1.390 . S
C393 C394 1.394 . S
C393 C399 1.465 . S
C394 C389 1.399 . S
C394 C393 1.394 . S
C394 C395 1.516 . S
C395 C394 1.516 . S
C395 C396 1.502 . S
C395 C397 1.561 . S
C395 C398 1.526 . S
C396 H380 0.959 . S
C396 H381 0.959 . S
C396 H382 0.961 . S
C396 C395 1.502 . S
C397 H383 0.960 . S
C397 H384 0.961 . S
C397 H385 0.959 . S
C397 C395 1.561 . S
C398 C395 1.526 . S
C398 C399 1.396 . S
C398 C403 1.390 . S
C399 C393 1.465 . S
C399 C398 1.396 . S
C399 C400 1.399 . S
C400 H386 0.929 . S
C400 C399 1.399 . S
C400 C401 1.385 . S
C401 H387 0.931 . S
C401 C400 1.385 . S
C401 C402 1.389 . S
C402 C401 1.389 . S
C402 C403 1.387 . S
C403 H388 0.930 . S
C403 C398 1.390 . S
C403 C402 1.387 . S
H404 C416 0.930 . S
H405 C418 0.930 . S
H406 C419 0.930 . S
H407 C423 0.959 . S
H408 C423 0.959 . S
H409 C423 0.961 . S
H410 C424 0.960 . S
H411 C424 0.961 . S
H412 C424 0.959 . S
H413 C427 0.929 . S
H414 C428 0.931 . S
H415 C430 0.930 . S
C416 H404 0.930 . S
C416 C417 1.399 . S
C416 C421 1.399 . S
C417 C416 1.399 . S
C417 C418 1.376 . S
C418 H405 0.930 . S
C418 C417 1.376 . S
C418 C419 1.388 . S
C419 H406 0.930 . S
C419 C418 1.388 . S
C419 C420 1.390 . S
C420 C419 1.390 . S
C420 C421 1.394 . S
C420 C426 1.465 . S
C421 C416 1.399 . S
C421 C420 1.394 . S
C421 C422 1.516 . S
C422 C421 1.516 . S
C422 C423 1.502 . S
C422 C424 1.561 . S
C422 C425 1.526 . S
C423 H407 0.959 . S
C423 H408 0.959 . S
C423 H409 0.961 . S
C423 C422 1.502 . S
C424 H410 0.960 . S
C424 H411 0.961 . S
C424 H412 0.959 . S
C424 C422 1.561 . S
C425 C422 1.526 . S
C425 C426 1.396 . S
C425 C430 1.390 . S
C426 C420 1.465 . S
C426 C425 1.396 . S
C426 C427 1.399 . S
C427 H413 0.929 . S
C427 C426 1.399 . S
C427 C428 1.385 . S
C428 H414 0.931 . S
C428 C427 1.385 . S
C428 C429 1.389 . S
C429 C428 1.389 . S
C429 C430 1.387 . S
C430 H415 0.930 . S
C430 C425 1.390 . S
C430 C429 1.387 . S
H431 C443 0.930 . S
H432 C445 0.930 . S
H433 C446 0.930 . S
H434 C450 0.959 . S
H435 C450 0.959 . S
H436 C450 0.961 . S
H437 C451 0.960 . S
H438 C451 0.961 . S
H439 C451 0.959 . S
H440 C454 0.929 . S
H441 C455 0.931 . S
H442 C457 0.930 . S
C443 H431 0.930 . S
C443 C444 1.399 . S
C443 C448 1.399 . S
C444 C443 1.399 . S
C444 C445 1.376 . S
C445 H432 0.930 . S
C445 C444 1.376 . S
C445 C446 1.388 . S
C446 H433 0.930 . S
C446 C445 1.388 . S
C446 C447 1.390 . S
C447 C446 1.390 . S
C447 C448 1.394 . S
C447 C453 1.465 . S
C448 C443 1.399 . S
C448 C447 1.394 . S
C448 C449 1.516 . S
C449 C448 1.516 . S
C449 C450 1.502 . S
C449 C451 1.561 . S
C449 C452 1.526 . S
C450 H434 0.959 . S
C450 H435 0.959 . S
C450 H436 0.961 . S
C450 C449 1.502 . S
C451 H437 0.960 . S
C451 H438 0.961 . S
C451 H439 0.959 . S
C451 C449 1.561 . S
C452 C449 1.526 . S
C452 C453 1.396 . S
C452 C457 1.390 . S
C453 C447 1.465 . S
C453 C452 1.396 . S
C453 C454 1.399 1_556 S
C454 H440 0.929 . S
C454 C453 1.399 1_554 S
C454 C455 1.385 . S
C455 H441 0.931 . S
C455 C454 1.385 . S
C455 C456 1.389 . S
C456 C455 1.389 . S
C456 C457 1.387 1_554 S
C457 H442 0.930 . S
C457 C452 1.390 . S
C457 C456 1.387 1_556 S
H458 C470 0.930 . S
H459 C472 0.930 . S
H460 C473 0.930 . S
H461 C477 0.959 . S
H462 C477 0.959 . S
H463 C477 0.961 . S
H464 C478 0.960 . S
H465 C478 0.961 . S
H466 C478 0.959 . S
H467 C481 0.929 . S
H468 C482 0.931 . S
H469 C484 0.930 . S
C470 H458 0.930 . S
C470 C471 1.399 . S
C470 C475 1.399 . S
C471 C470 1.399 . S
C471 C472 1.376 . S
C472 H459 0.930 . S
C472 C471 1.376 . S
C472 C473 1.388 . S
C473 H460 0.930 . S
C473 C472 1.388 . S
C473 C474 1.390 . S
C474 C473 1.390 . S
C474 C475 1.394 . S
C474 C480 1.465 . S
C475 C470 1.399 . S
C475 C474 1.394 . S
C475 C476 1.516 . S
C476 C475 1.516 . S
C476 C477 1.502 . S
C476 C478 1.561 . S
C476 C479 1.526 . S
C477 H461 0.959 . S
C477 H462 0.959 . S
C477 H463 0.961 . S
C477 C476 1.502 . S
C478 H464 0.960 . S
C478 H465 0.961 . S
C478 H466 0.959 . S
C478 C476 1.561 . S
C479 C476 1.526 . S
C479 C480 1.396 . S
C479 C484 1.390 . S
C480 C474 1.465 . S
C480 C479 1.396 . S
C480 C481 1.399 . S
C481 H467 0.929 . S
C481 C480 1.399 . S
C481 C482 1.385 . S
C482 H468 0.931 . S
C482 C481 1.385 . S
C482 C483 1.389 . S
C483 C482 1.389 . S
C483 C484 1.387 . S
C484 H469 0.930 . S
C484 C479 1.390 . S
C484 C483 1.387 . S
H485 C497 0.930 . S
H486 C499 0.930 . S
H487 C500 0.930 . S
H488 C504 0.959 . S
H489 C504 0.959 . S
H490 C504 0.961 . S
H491 C505 0.960 . S
H492 C505 0.961 . S
H493 C505 0.959 . S
H494 C508 0.929 . S
H495 C509 0.931 . S
H496 C511 0.930 . S
C497 H485 0.930 . S
C497 C498 1.399 . S
C497 C502 1.399 . S
C498 C497 1.399 . S
C498 C499 1.376 . S
C499 H486 0.930 . S
C499 C498 1.376 . S
C499 C500 1.388 . S
C500 H487 0.930 . S
C500 C499 1.388 . S
C500 C501 1.390 . S
C501 C500 1.390 . S
C501 C502 1.394 . S
C501 C507 1.465 . S
C502 C497 1.399 . S
C502 C501 1.394 . S
C502 C503 1.516 . S
C503 C502 1.516 . S
C503 C504 1.502 . S
C503 C505 1.561 . S
C503 C506 1.526 . S
C504 H488 0.959 . S
C504 H489 0.959 . S
C504 H490 0.961 . S
C504 C503 1.502 . S
C505 H491 0.960 . S
C505 H492 0.961 . S
C505 H493 0.959 . S
C505 C503 1.561 . S
C506 C503 1.526 . S
C506 C507 1.396 . S
C506 C511 1.390 . S
C507 C501 1.465 . S
C507 C506 1.396 . S
C507 C508 1.399 . S
C508 H494 0.929 . S
C508 C507 1.399 . S
C508 C509 1.385 . S
C509 H495 0.931 . S
C509 C508 1.385 . S
C509 C510 1.389 . S
C510 C509 1.389 . S
C510 C511 1.387 . S
C511 H496 0.930 . S
C511 C506 1.390 . S
C511 C510 1.387 . S
H512 C524 0.930 . S
H513 C526 0.930 . S
H514 C527 0.930 . S
H515 C531 0.959 . S
H516 C531 0.959 . S
H517 C531 0.961 . S
H518 C532 0.960 . S
H519 C532 0.961 . S
H520 C532 0.959 . S
H521 C535 0.929 . S
H522 C536 0.930 1_455 S
H523 C538 0.930 . S
C524 H512 0.930 . S
C524 C525 1.399 1_545 S
C524 C529 1.399 1_545 S
C525 C524 1.399 1_565 S
C525 C526 1.376 . S
C526 H513 0.930 . S
C526 C525 1.376 . S
C526 C527 1.388 . S
C527 H514 0.930 . S
C527 C526 1.388 . S
C527 C528 1.390 . S
C528 C527 1.390 . S
C528 C529 1.394 . S
C528 C534 1.465 . S
C529 C524 1.399 1_565 S
C529 C528 1.394 . S
C529 C530 1.516 1_565 S
C530 C529 1.516 1_545 S
C530 C531 1.502 . S
C530 C532 1.561 1_655 S
C530 C533 1.526 . S
C531 H515 0.959 . S
C531 H516 0.959 . S
C531 H517 0.961 . S
C531 C530 1.502 . S
C532 H518 0.960 . S
C532 H519 0.961 . S
C532 H520 0.959 . S
C532 C530 1.561 1_455 S
C533 C530 1.526 . S
C533 C534 1.396 1_545 S
C533 C538 1.390 1_655 S
C534 C528 1.465 . S
C534 C533 1.396 1_565 S
C534 C535 1.399 . S
C535 H521 0.929 . S
C535 C534 1.399 . S
C535 C536 1.386 . S
C536 H522 0.930 1_655 S
C536 C535 1.386 . S
C536 C537 1.389 1_655 S
C537 C536 1.389 1_455 S
C537 C538 1.387 1_565 S
C538 H523 0.930 . S
C538 C533 1.390 1_455 S
C538 C537 1.387 1_545 S
H539 C551 0.930 . S
H540 C553 0.930 . S
H541 C554 0.930 1_565 S
H542 C558 0.959 . S
H543 C558 0.959 . S
H544 C558 0.961 . S
H545 C559 0.960 . S
H546 C559 0.961 . S
H547 C559 0.959 . S
H548 C562 0.929 1_565 S
H549 C563 0.931 1_565 S
H550 C565 0.930 . S
C551 H539 0.930 . S
C551 C552 1.399 . S
C551 C556 1.399 . S
C552 C551 1.399 . S
C552 C553 1.376 . S
C553 H540 0.930 . S
C553 C552 1.376 . S
C553 C554 1.388 . S
C554 H541 0.930 1_545 S
C554 C553 1.388 . S
C554 C555 1.390 . S
C555 C554 1.390 . S
C555 C556 1.394 . S
C555 C561 1.465 . S
C556 C551 1.399 . S
C556 C555 1.394 . S
C556 C557 1.516 . S
C557 C556 1.516 . S
C557 C558 1.502 . S
C557 C559 1.561 . S
C557 C560 1.526 . S
C558 H542 0.959 . S
C558 H543 0.959 . S
C558 H544 0.961 . S
C558 C557 1.502 . S
C559 H545 0.960 . S
C559 H546 0.961 . S
C559 H547 0.959 . S
C559 C557 1.561 . S
C560 C557 1.526 . S
C560 C561 1.396 . S
C560 C565 1.390 . S
C561 C555 1.465 . S
C561 C560 1.396 . S
C561 C562 1.399 . S
C562 H548 0.929 1_545 S
C562 C561 1.399 . S
C562 C563 1.385 . S
C563 H549 0.931 1_545 S
C563 C562 1.385 . S
C563 C564 1.389 . S
C564 C563 1.389 . S
C564 C565 1.387 . S
C565 H550 0.930 . S
C565 C560 1.390 . S
C565 C564 1.387 . S
H566 C578 0.930 . S
H567 C580 0.930 . S
H568 C581 0.930 . S
H569 C585 0.959 . S
H570 C585 0.959 . S
H571 C585 0.961 . S
H572 C586 0.960 . S
H573 C586 0.961 . S
H574 C586 0.959 . S
H575 C589 0.929 . S
H576 C590 0.931 . S
H577 C592 0.930 . S
C578 H566 0.930 . S
C578 C579 1.399 . S
C578 C583 1.399 . S
C579 C578 1.399 . S
C579 C580 1.376 . S
C580 H567 0.930 . S
C580 C579 1.376 . S
C580 C581 1.388 . S
C581 H568 0.930 . S
C581 C580 1.388 . S
C581 C582 1.390 . S
C582 C581 1.390 . S
C582 C583 1.394 . S
C582 C588 1.465 . S
C583 C578 1.399 . S
C583 C582 1.394 . S
C583 C584 1.516 . S
C584 C583 1.516 . S
C584 C585 1.502 . S
C584 C586 1.561 . S
C584 C587 1.526 . S
C585 H569 0.959 . S
C585 H570 0.959 . S
C585 H571 0.961 . S
C585 C584 1.502 . S
C586 H572 0.960 . S
C586 H573 0.961 . S
C586 H574 0.959 . S
C586 C584 1.561 . S
C587 C584 1.526 . S
C587 C588 1.396 . S
C587 C592 1.390 . S
C588 C582 1.465 . S
C588 C587 1.396 . S
C588 C589 1.399 . S
C589 H575 0.929 . S
C589 C588 1.399 . S
C589 C590 1.385 . S
C590 H576 0.931 . S
C590 C589 1.385 . S
C590 C591 1.389 . S
C591 C590 1.389 . S
C591 C592 1.387 . S
C592 H577 0.930 . S
C592 C587 1.390 . S
C592 C591 1.387 . S
H593 C605 0.930 . S
H594 C607 0.930 . S
H595 C608 0.930 . S
H596 C612 0.959 . S
H597 C612 0.959 . S
H598 C612 0.961 . S
H599 C613 0.960 . S
H600 C613 0.961 . S
H601 C613 0.959 . S
H602 C616 0.929 . S
H603 C617 0.931 . S
H604 C619 0.930 . S
C605 H593 0.930 . S
C605 C606 1.399 . S
C605 C610 1.399 . S
C606 C605 1.399 . S
C606 C607 1.376 . S
C607 H594 0.930 . S
C607 C606 1.376 . S
C607 C608 1.388 . S
C608 H595 0.930 . S
C608 C607 1.388 . S
C608 C609 1.390 . S
C609 C608 1.390 . S
C609 C610 1.394 . S
C609 C615 1.465 . S
C610 C605 1.399 . S
C610 C609 1.394 . S
C610 C611 1.516 . S
C611 C610 1.516 . S
C611 C612 1.502 1_455 S
C611 C613 1.561 . S
C611 C614 1.526 . S
C612 H596 0.959 . S
C612 H597 0.959 . S
C612 H598 0.961 . S
C612 C611 1.502 1_655 S
C613 H599 0.960 . S
C613 H600 0.961 . S
C613 H601 0.959 . S
C613 C611 1.561 . S
C614 C611 1.526 . S
C614 C615 1.396 . S
C614 C619 1.390 . S
C615 C609 1.465 . S
C615 C614 1.396 . S
C615 C616 1.399 . S
C616 H602 0.929 . S
C616 C615 1.399 . S
C616 C617 1.385 . S
C617 H603 0.931 . S
C617 C616 1.385 . S
C617 C618 1.389 . S
C618 C617 1.389 . S
C618 C619 1.387 . S
C619 H604 0.930 . S
C619 C614 1.390 . S
C619 C618 1.387 . S
H620 C632 0.930 . S
H621 C634 0.930 . S
H622 C635 0.930 . S
H623 C639 0.959 . S
H624 C639 0.959 . S
H625 C639 0.961 . S
H626 C640 0.960 . S
H627 C640 0.961 . S
H628 C640 0.959 . S
H629 C643 0.929 . S
H630 C644 0.931 . S
H631 C646 0.930 . S
C632 H620 0.930 . S
C632 C633 1.399 . S
C632 C637 1.399 . S
C633 C632 1.399 . S
C633 C634 1.376 1_566 S
C634 H621 0.930 . S
C634 C633 1.376 1_544 S
C634 C635 1.388 . S
C635 H622 0.930 . S
C635 C634 1.388 . S
C635 C636 1.390 . S
C636 C635 1.390 . S
C636 C637 1.394 1_544 S
C636 C642 1.465 . S
C637 C632 1.399 . S
C637 C636 1.394 1_566 S
C637 C638 1.516 . S
C638 C637 1.516 . S
C638 C639 1.502 . S
C638 C640 1.561 1_556 S
C638 C641 1.526 1_556 S
C639 H623 0.959 . S
C639 H624 0.959 . S
C639 H625 0.961 . S
C639 C638 1.502 . S
C640 H626 0.960 . S
C640 H627 0.961 . S
C640 H628 0.959 . S
C640 C638 1.561 1_554 S
C641 C638 1.526 1_554 S
C641 C642 1.396 1_565 S
C641 C646 1.390 . S
C642 C636 1.465 . S
C642 C641 1.396 1_545 S
C642 C643 1.399 . S
C643 H629 0.929 . S
C643 C642 1.399 . S
C643 C644 1.385 . S
C644 H630 0.931 . S
C644 C643 1.385 . S
C644 C645 1.389 . S
C645 C644 1.389 . S
C645 C646 1.387 1_545 S
C646 H631 0.930 . S
C646 C641 1.390 . S
C646 C645 1.387 1_565 S
H647 C659 0.930 . S
H648 C661 0.930 . S
H649 C662 0.930 . S
H650 C666 0.959 . S
H651 C666 0.959 . S
H652 C666 0.961 . S
H653 C667 0.960 . S
H654 C667 0.961 . S
H655 C667 0.959 . S
H656 C670 0.929 1_565 S
H657 C671 0.931 1_565 S
H658 C673 0.930 . S
C659 H647 0.930 . S
C659 C660 1.399 . S
C659 C664 1.399 . S
C660 C659 1.399 . S
C660 C661 1.376 . S
C661 H648 0.930 . S
C661 C660 1.376 . S
C661 C662 1.388 . S
C662 H649 0.930 . S
C662 C661 1.388 . S
C662 C663 1.390 . S
C663 C662 1.390 . S
C663 C664 1.394 . S
C663 C669 1.465 . S
C664 C659 1.399 . S
C664 C663 1.394 . S
C664 C665 1.516 . S
C665 C664 1.516 . S
C665 C666 1.502 . S
C665 C667 1.561 . S
C665 C668 1.526 . S
C666 H650 0.959 . S
C666 H651 0.959 . S
C666 H652 0.961 . S
C666 C665 1.502 . S
C667 H653 0.960 . S
C667 H654 0.961 . S
C667 H655 0.959 . S
C667 C665 1.561 . S
C668 C665 1.526 . S
C668 C669 1.396 . S
C668 C673 1.390 . S
C669 C663 1.465 . S
C669 C668 1.396 . S
C669 C670 1.399 . S
C670 H656 0.929 1_545 S
C670 C669 1.399 . S
C670 C671 1.385 . S
C671 H657 0.931 1_545 S
C671 C670 1.385 . S
C671 C672 1.389 . S
C672 C671 1.389 . S
C672 C673 1.387 . S
C673 H658 0.930 . S
C673 C668 1.390 . S
C673 C672 1.387 . S
H674 C686 0.930 . S
H675 C688 0.930 . S
H676 C689 0.930 . S
H677 C693 0.959 . S
H678 C693 0.959 . S
H679 C693 0.961 . S
H680 C694 0.960 . S
H681 C694 0.961 . S
H682 C694 0.959 . S
H683 C697 0.929 1_556 S
H684 C698 0.931 1_556 S
H685 C700 0.930 . S
C686 H674 0.930 . S
C686 C687 1.399 . S
C686 C691 1.399 . S
C687 C686 1.399 . S
C687 C688 1.376 . S
C688 H675 0.930 . S
C688 C687 1.376 . S
C688 C689 1.388 . S
C689 H676 0.930 . S
C689 C688 1.388 . S
C689 C690 1.390 . S
C690 C689 1.390 . S
C690 C691 1.394 . S
C690 C696 1.465 . S
C691 C686 1.399 . S
C691 C690 1.394 . S
C691 C692 1.516 . S
C692 C691 1.516 . S
C692 C693 1.502 . S
C692 C694 1.561 . S
C692 C695 1.526 . S
C693 H677 0.959 . S
C693 H678 0.959 . S
C693 H679 0.961 . S
C693 C692 1.502 . S
C694 H680 0.960 . S
C694 H681 0.961 . S
C694 H682 0.959 . S
C694 C692 1.561 . S
C695 C692 1.526 . S
C695 C696 1.396 . S
C695 C700 1.390 . S
C696 C690 1.465 . S
C696 C695 1.396 . S
C696 C697 1.399 . S
C697 H683 0.929 1_554 S
C697 C696 1.399 . S
C697 C698 1.385 . S
C698 H684 0.931 1_554 S
C698 C697 1.385 . S
C698 C699 1.389 . S
C699 C698 1.389 . S
C699 C700 1.387 . S
C700 H685 0.930 . S
C700 C695 1.390 . S
C700 C699 1.387 . S
H701 C713 0.930 . S
H702 C715 0.930 . S
H703 C716 0.930 . S
H704 C720 0.959 . S
H705 C720 0.959 . S
H706 C720 0.961 . S
H707 C721 0.960 . S
H708 C721 0.961 . S
H709 C721 0.959 . S
H710 C724 0.929 . S
H711 C725 0.931 . S
H712 C727 0.930 . S
C713 H701 0.930 . S
C713 C714 1.399 . S
C713 C718 1.399 . S
C714 C713 1.399 . S
C714 C715 1.376 . S
C715 H702 0.930 . S
C715 C714 1.376 . S
C715 C716 1.388 . S
C716 H703 0.930 . S
C716 C715 1.388 . S
C716 C717 1.390 . S
C717 C716 1.390 . S
C717 C718 1.394 . S
C717 C723 1.465 . S
C718 C713 1.399 . S
C718 C717 1.394 . S
C718 C719 1.516 . S
C719 C718 1.516 . S
C719 C720 1.502 . S
C719 C721 1.561 . S
C719 C722 1.526 . S
C720 H704 0.959 . S
C720 H705 0.959 . S
C720 H706 0.961 . S
C720 C719 1.502 . S
C721 H707 0.960 . S
C721 H708 0.961 . S
C721 H709 0.959 . S
C721 C719 1.561 . S
C722 C719 1.526 . S
C722 C723 1.396 . S
C722 C727 1.390 . S
C723 C717 1.465 . S
C723 C722 1.396 . S
C723 C724 1.399 . S
C724 H710 0.929 . S
C724 C723 1.399 . S
C724 C725 1.385 . S
C725 H711 0.931 . S
C725 C724 1.385 . S
C725 C726 1.389 . S
C726 C725 1.389 . S
C726 C727 1.387 . S
C727 H712 0.930 . S
C727 C722 1.390 . S
C727 C726 1.387 . S
H728 C740 0.930 1_554 S
H729 C742 0.930 . S
H730 C743 0.930 . S
H731 C747 0.959 . S
H732 C747 0.959 . S
H733 C747 0.961 . S
H734 C748 0.960 . S
H735 C748 0.961 . S
H736 C748 0.959 . S
H737 C751 0.929 . S
H738 C752 0.931 . S
H739 C754 0.930 . S
C740 H728 0.930 1_556 S
C740 C741 1.399 . S
C740 C745 1.399 . S
C741 C740 1.399 . S
C741 C742 1.376 . S
C742 H729 0.930 . S
C742 C741 1.376 . S
C742 C743 1.388 . S
C743 H730 0.930 . S
C743 C742 1.388 . S
C743 C744 1.390 . S
C744 C743 1.390 . S
C744 C745 1.394 . S
C744 C750 1.465 . S
C745 C740 1.399 . S
C745 C744 1.394 . S
C745 C746 1.516 1_556 S
C746 C745 1.516 1_554 S
C746 C747 1.502 1_655 S
C746 C748 1.561 . S
C746 C749 1.526 1_554 S
C747 H731 0.959 . S
C747 H732 0.959 . S
C747 H733 0.961 . S
C747 C746 1.502 1_455 S
C748 H734 0.960 . S
C748 H735 0.961 . S
C748 H736 0.959 . S
C748 C746 1.561 . S
C749 C746 1.526 1_556 S
C749 C750 1.396 . S
C749 C754 1.390 1_556 S
C750 C744 1.465 . S
C750 C749 1.396 . S
C750 C751 1.399 . S
C751 H737 0.929 . S
C751 C750 1.399 . S
C751 C752 1.385 . S
C752 H738 0.931 . S
C752 C751 1.385 . S
C752 C753 1.389 . S
C753 C752 1.389 . S
C753 C754 1.387 1_556 S
C754 H739 0.930 . S
C754 C749 1.390 1_554 S
C754 C753 1.387 1_554 S
H755 C767 0.930 . S
H756 C769 0.930 . S
H757 C770 0.930 . S
H758 C774 0.959 . S
H759 C774 0.959 . S
H760 C774 0.961 . S
H761 C775 0.960 . S
H762 C775 0.961 1_556 S
H763 C775 0.959 . S
H764 C778 0.929 . S
H765 C779 0.931 . S
H766 C781 0.930 . S
C767 H755 0.930 . S
C767 C768 1.399 . S
C767 C772 1.399 . S
C768 C767 1.399 . S
C768 C769 1.376 . S
C769 H756 0.930 . S
C769 C768 1.376 . S
C769 C770 1.388 . S
C770 H757 0.930 . S
C770 C769 1.388 . S
C770 C771 1.390 . S
C771 C770 1.390 . S
C771 C772 1.394 . S
C771 C777 1.465 . S
C772 C767 1.399 . S
C772 C771 1.394 . S
C772 C773 1.516 . S
C773 C772 1.516 . S
C773 C774 1.502 . S
C773 C775 1.561 . S
C773 C776 1.526 . S
C774 H758 0.959 . S
C774 H759 0.959 . S
C774 H760 0.961 . S
C774 C773 1.502 . S
C775 H761 0.960 . S
C775 H762 0.961 1_554 S
C775 H763 0.959 . S
C775 C773 1.561 . S
C776 C773 1.526 . S
C776 C777 1.396 . S
C776 C781 1.390 . S
C777 C771 1.465 . S
C777 C776 1.396 . S
C777 C778 1.399 . S
C778 H764 0.929 . S
C778 C777 1.399 . S
C778 C779 1.385 . S
C779 H765 0.931 . S
C779 C778 1.385 . S
C779 C780 1.389 . S
C780 C779 1.389 . S
C780 C781 1.387 . S
C781 H766 0.930 . S
C781 C776 1.390 . S
C781 C780 1.387 . S
H782 C794 0.930 . S
H783 C796 0.930 . S
H784 C797 0.930 . S
H785 C801 0.959 1_655 S
H786 C801 0.959 1_655 S
H787 C801 0.961 1_655 S
H788 C802 0.960 . S
H789 C802 0.961 . S
H790 C802 0.959 . S
H791 C805 0.929 . S
H792 C806 0.931 . S
H793 C808 0.930 . S
C794 H782 0.930 . S
C794 C795 1.399 . S
C794 C799 1.399 . S
C795 C794 1.399 . S
C795 C796 1.376 . S
C796 H783 0.930 . S
C796 C795 1.376 . S
C796 C797 1.388 . S
C797 H784 0.930 . S
C797 C796 1.388 . S
C797 C798 1.390 . S
C798 C797 1.390 . S
C798 C799 1.394 . S
C798 C804 1.465 . S
C799 C794 1.399 . S
C799 C798 1.394 . S
C799 C800 1.516 . S
C800 C799 1.516 . S
C800 C801 1.502 . S
C800 C802 1.561 . S
C800 C803 1.526 . S
C801 H785 0.959 1_455 S
C801 H786 0.959 1_455 S
C801 H787 0.961 1_455 S
C801 C800 1.502 . S
C802 H788 0.960 . S
C802 H789 0.961 . S
C802 H790 0.959 . S
C802 C800 1.561 . S
C803 C800 1.526 . S
C803 C804 1.396 . S
C803 C808 1.390 . S
C804 C798 1.465 . S
C804 C803 1.396 . S
C804 C805 1.399 . S
C805 H791 0.929 . S
C805 C804 1.399 . S
C805 C806 1.385 . S
C806 H792 0.931 . S
C806 C805 1.385 . S
C806 C807 1.389 . S
C807 C806 1.389 . S
C807 C808 1.387 . S
C808 H793 0.930 . S
C808 C803 1.390 . S
C808 C807 1.387 . S
H809 C821 0.930 . S
H810 C823 0.930 . S
H811 C824 0.930 . S
H812 C828 0.959 . S
H813 C828 0.959 . S
H814 C828 0.961 . S
H815 C829 0.960 . S
H816 C829 0.961 . S
H817 C829 0.959 . S
H818 C832 0.929 . S
H819 C833 0.931 . S
H820 C835 0.930 . S
C821 H809 0.930 . S
C821 C822 1.399 . S
C821 C826 1.399 . S
C822 C821 1.399 . S
C822 C823 1.376 . S
C823 H810 0.930 . S
C823 C822 1.376 . S
C823 C824 1.388 . S
C824 H811 0.930 . S
C824 C823 1.388 . S
C824 C825 1.390 . S
C825 C824 1.390 . S
C825 C826 1.394 . S
C825 C831 1.465 . S
C826 C821 1.399 . S
C826 C825 1.394 . S
C826 C827 1.516 . S
C827 C826 1.516 . S
C827 C828 1.502 . S
C827 C829 1.561 . S
C827 C830 1.526 . S
C828 H812 0.959 . S
C828 H813 0.959 . S
C828 H814 0.961 . S
C828 C827 1.502 . S
C829 H815 0.960 . S
C829 H816 0.961 . S
C829 H817 0.959 . S
C829 C827 1.561 . S
C830 C827 1.526 . S
C830 C831 1.396 . S
C830 C835 1.390 . S
C831 C825 1.465 . S
C831 C830 1.396 . S
C831 C832 1.399 . S
C832 H818 0.929 . S
C832 C831 1.399 . S
C832 C833 1.385 . S
C833 H819 0.931 . S
C833 C832 1.385 . S
C833 C834 1.389 . S
C834 C833 1.389 . S
C834 C835 1.387 . S
C835 H820 0.930 . S
C835 C830 1.390 . S
C835 C834 1.387 . S
C201 N1 1.497 . S
C213 C107 1.366 . S
C228 N18 1.804 . S
C240 C141 1.697 1_565 S
C267 C153 1.019 . S
C255 N28 1.092 . S
C282 N40 1.623 . S
C294 C187 1.526 . S
C321 C144 1.660 . S
C309 N5 1.831 . S
C348 C124 1.535 . S
C336 N14 1.561 . S
C375 C171 1.422 . S
C363 N31 1.465 . S
C402 C162 1.139 . S
C390 N41 1.188 . S
C417 N2 1.452 . S
C429 C170 1.414 . S
C456 C132 1.481 . S
C444 N27 1.595 . S
C471 N44 1.602 . S
C483 C108 1.535 1_655 S
C498 N15 1.371 . S
C510 C165 1.319 . S
C537 C123 1.704 1_565 S
C525 N57 1.818 . S
C552 N70 1.384 . S
C564 C145 1.220 . S
C579 N79 1.389 . S
C591 C150 1.361 . S
C606 N93 1.410 . S
C618 C183 1.295 . S
C633 N54 1.537 . S
C645 C128 1.445 1_545 S
C672 C120 1.868 . S
C660 N66 1.990 . S
C699 C174 1.009 . S
C687 N80 1.109 . S
C726 C166 1.449 . S
C714 N96 1.524 . S
C741 N53 1.528 . S
C753 C186 1.446 1_655 S
C780 C129 1.459 . S
C768 N83 1.496 . S
C807 C111 1.553 . S
C795 N92 1.649 . S
C822 N67 1.467 . S
C834 C149 1.422 . S
