# Generated by pormake.
# Topology anh, (6,3)-cn, num edge types: 1
# Building blocks:
#     Node 0, Type 0, BuildingBlock: BETFAJ_clean_sbu_0, # of connection points: 6
#     Node 1, Type 0, BuildingBlock: BETFAJ_clean_sbu_0, # of connection points: 6
#     Node 2, Type 0, BuildingBlock: BETFAJ_clean_sbu_0, # of connection points: 6
#     Node 3, Type 1, BuildingBlock: MIDCAF_clean_linker_0, # of connection points: 3
#     Node 4, Type 1, BuildingBlock: MIDCAF_clean_linker_0, # of connection points: 3
#     Node 5, Type 1, BuildingBlock: MIDCAF_clean_linker_0, # of connection points: 3
#     Node 6, Type 1, BuildingBlock: MIDCAF_clean_linker_0, # of connection points: 3
#     Node 7, Type 1, BuildingBlock: MIDCAF_clean_linker_0, # of connection points: 3
#     Node 8, Type 1, BuildingBlock: MIDCAF_clean_linker_0, # of connection points: 3
#     Edge 9, Type (0, 1), BuildingBlock: AJUNOK_clean_linker_0, # of connection points: 2
#     Edge 10, Type (0, 1), BuildingBlock: AJUNOK_clean_linker_0, # of connection points: 2
#     Edge 11, Type (0, 1), BuildingBlock: AJUNOK_clean_linker_0, # of connection points: 2
#     Edge 12, Type (0, 1), BuildingBlock: AJUNOK_clean_linker_0, # of connection points: 2
#     Edge 13, Type (0, 1), BuildingBlock: AJUNOK_clean_linker_0, # of connection points: 2
#     Edge 14, Type (0, 1), BuildingBlock: AJUNOK_clean_linker_0, # of connection points: 2
#     Edge 15, Type (0, 1), BuildingBlock: AJUNOK_clean_linker_0, # of connection points: 2
#     Edge 16, Type (0, 1), BuildingBlock: AJUNOK_clean_linker_0, # of connection points: 2
#     Edge 17, Type (0, 1), BuildingBlock: AJUNOK_clean_linker_0, # of connection points: 2
#     Edge 18, Type (0, 1), BuildingBlock: AJUNOK_clean_linker_0, # of connection points: 2
#     Edge 19, Type (0, 1), BuildingBlock: AJUNOK_clean_linker_0, # of connection points: 2
#     Edge 20, Type (0, 1), BuildingBlock: AJUNOK_clean_linker_0, # of connection points: 2
#     Edge 21, Type (0, 1), BuildingBlock: AJUNOK_clean_linker_0, # of connection points: 2
#     Edge 22, Type (0, 1), BuildingBlock: AJUNOK_clean_linker_0, # of connection points: 2
#     Edge 23, Type (0, 1), BuildingBlock: AJUNOK_clean_linker_0, # of connection points: 2
#     Edge 24, Type (0, 1), BuildingBlock: AJUNOK_clean_linker_0, # of connection points: 2
#     Edge 25, Type (0, 1), BuildingBlock: AJUNOK_clean_linker_0, # of connection points: 2
#     Edge 26, Type (0, 1), BuildingBlock: AJUNOK_clean_linker_0, # of connection points: 2
# Relax obj value: 0.214
# Max RMSD: 0.225
# Mean RMSD: 0.165
data_MOF--net-anh--node1-BETFAJ_clean_sbu_0--node2-MIDCAF_clean_linker_0--edge1-AJUNOK_clean_linker_0
_symmetry_space_group_name_H-M    P1
_symmetry_Int_Tables_number       1
_symmetry_cell_setting            triclinic
loop_
_symmetry_equiv_pos_as_xyz
'x, y, z'
_cell_length_a     29.623798
_cell_length_b     35.612223
_cell_length_c     52.518839
_cell_angle_alpha  91.878908
_cell_angle_beta   89.329505
_cell_angle_gamma 130.44205
loop_
_atom_site_label
_atom_site_type_symbol
_atom_site_fract_x
_atom_site_fract_y
_atom_site_fract_z
_atom_type_partial_charge
Sm0 Sm 0.14042 0.5371 0.14248 0.0
Sm1 Sm 1.06275 0.56178 0.14653 0.0
C2 C 0.21193 0.52253 0.12602 0.0
C3 C 0.26174 0.53262 0.13954 0.0
C4 C 0.31357 0.55172 0.12644 0.0
C5 C 0.36159 0.56231 0.13937 0.0
C6 C 0.35871 0.55463 0.16576 0.0
C7 C 0.30815 0.53892 0.17909 0.0
C8 C 0.25973 0.52724 0.16601 0.0
C9 C 0.11862 0.53446 0.19384 0.0
C10 C 0.20751 0.65344 0.1483 0.0
C11 C 1.00791 0.5945 0.16083 0.0
C12 C 0.95417 0.56999 0.17572 0.0
C13 C 0.937 0.53179 0.1916 0.0
C14 C 0.87806 0.4967 0.19874 0.0
C15 C 0.8356 0.49891 0.18956 0.0
C16 C 0.85445 0.54051 0.17617 0.0
C17 C 0.9136 0.57597 0.16934 0.0
C18 C 0.07372 0.53939 0.09749 0.0
C19 C 0.99881 0.44673 0.14713 0.0
O20 O 0.21969 0.56199 0.12085 0.0
O21 O 0.15904 0.4868 0.13469 0.0
O22 O 0.09831 0.54434 0.17684 0.0
O23 O 0.1518 0.52642 0.184 0.0
O24 O 0.21382 0.62039 0.1508 0.0
O25 O 0.15467 0.6396 0.14422 0.0
O26 O 1.05403 0.60647 0.17301 0.0
O27 O 0.99929 0.57322 0.13854 0.0
O28 O 0.11542 0.56636 0.11356 0.0
O29 O 1.02377 0.52382 0.10705 0.0
O30 O 0.99619 0.47978 0.1572 0.0
O31 O 1.04701 0.46134 0.13504 0.0
H32 H 0.31622 0.55696 0.10609 0.0
H33 H 0.39905 0.57293 0.12822 0.0
H34 H 0.30441 0.53217 0.19929 0.0
H35 H 0.22019 0.5124 0.17657 0.0
H36 H 0.96756 0.52602 0.19629 0.0
H37 H 0.86463 0.46503 0.20901 0.0
H38 H 0.8227 0.54282 0.16832 0.0
H39 H 0.92615 0.6049 0.1568 0.0
Sm40 Sm 0.62197 0.01262 0.47061 0.0
Sm41 Sm 0.54946 0.04046 0.46277 0.0
C42 C 0.67003 0.97478 0.48478 0.0
C43 C 0.6546 0.92641 0.48534 0.0
C44 C 0.6031 0.88628 0.49736 0.0
C45 C 0.59306 0.84249 0.49999 0.0
C46 C 0.63427 0.83834 0.49059 0.0
C47 C 0.6834 0.87719 0.47701 0.0
C48 C 0.69366 0.92102 0.47454 0.0
C49 C 0.61311 0.02679 0.42045 0.0
C50 C 0.47676 0.924 0.46295 0.0
C51 C 0.50603 0.08234 0.4492 0.0
C52 C 0.52114 0.12893 0.45785 0.0
C53 C 0.51462 0.15527 0.44134 0.0
C54 C 0.53092 0.20048 0.44944 0.0
C55 C 0.55414 0.2199 0.47413 0.0
C56 C 0.56058 0.19327 0.49057 0.0
C57 C 0.54473 0.14841 0.48243 0.0
C58 C 0.56115 0.02979 0.51338 0.0
C59 C 0.69555 0.12931 0.4687 0.0
O60 O 0.64214 0.98274 0.50045 0.0
O61 O 0.67792 0.99272 0.46232 0.0
O62 O 0.5704 1.00359 0.43575 0.0
O63 O 0.6619 0.0424 0.43129 0.0
O64 O 0.52596 0.93669 0.47291 0.0
O65 O 0.47666 0.95776 0.45345 0.0
O66 O 0.54728 0.0868 0.43637 0.0
O67 O 0.48113 0.04811 0.46613 0.0
O68 O 0.60263 0.05097 0.49748 0.0
O69 O 0.5126 0.01543 0.503 0.0
O70 O 0.64509 0.11611 0.46018 0.0
O71 O 0.69728 0.096 0.47749 0.0
H72 H 0.57173 0.88927 0.50551 0.0
H73 H 0.55483 0.81292 0.51052 0.0
H74 H 0.7152 0.87439 0.46924 0.0
H75 H 0.73319 0.95132 0.4649 0.0
H76 H 0.49716 0.14098 0.4222 0.0
H77 H 0.5256 0.22034 0.4364 0.0
H78 H 0.57696 0.20668 0.50991 0.0
H79 H 0.55072 0.12884 0.49539 0.0
Sm80 Sm 0.65826 0.59359 0.84202 0.0
Sm81 Sm 0.57532 0.48684 0.84245 0.0
C82 C 0.71483 0.68815 0.83487 0.0
C83 C 0.69845 0.71718 0.82652 0.0
C84 C 0.6632 0.70308 0.80461 0.0
C85 C 0.64938 0.73172 0.79669 0.0
C86 C 0.67024 0.77483 0.81057 0.0
C87 C 0.70381 0.78799 0.83292 0.0
C88 C 0.71801 0.75951 0.84075 0.0
C89 C 0.63736 0.55649 0.88949 0.0
C90 C 0.51145 0.53579 0.8437 0.0
C91 C 0.52118 0.39318 0.85061 0.0
C92 C 0.53384 0.36083 0.84241 0.0
C93 C 0.51913 0.32321 0.85805 0.0
C94 C 0.53249 0.29326 0.85058 0.0
C95 C 0.56101 0.30059 0.82735 0.0
C96 C 0.57531 0.3382 0.81167 0.0
C97 C 0.56232 0.36826 0.81922 0.0
C98 C 0.59259 0.52 0.79396 0.0
C99 C 0.72419 0.5461 0.842 0.0
O100 O 0.71177 0.65903 0.81778 0.0
O101 O 0.69509 0.66799 0.85701 0.0
O102 O 0.59819 0.54175 0.87298 0.0
O103 O 0.69031 0.59166 0.88142 0.0
O104 O 0.56543 0.57509 0.83633 0.0
O105 O 0.50441 0.49661 0.85067 0.0
O106 O 0.55915 0.42916 0.86678 0.0
O107 O 0.50513 0.4071 0.83264 0.0
O108 O 0.6337 0.53837 0.81034 0.0
O109 O 0.54186 0.48277 0.80286 0.0
O110 O 0.66836 0.504 0.84428 0.0
O111 O 0.73289 0.58741 0.8392 0.0
H112 H 0.64658 0.67011 0.79349 0.0
H113 H 0.62245 0.72025 0.77966 0.0
H114 H 0.7204 0.82103 0.84395 0.0
H115 H 0.74481 0.77083 0.85782 0.0
H116 H 0.49756 0.31715 0.8761 0.0
H117 H 0.52101 0.26466 0.86307 0.0
H118 H 0.59592 0.34406 0.79339 0.0
H119 H 0.57446 0.39729 0.80687 0.0
C120 C 0.40684 0.894 0.17451 0.0
C121 C 0.41494 0.86441 0.16057 0.0
C122 C 0.47297 0.88572 0.15326 0.0
C123 C 0.52172 0.935 0.16037 0.0
H124 H 0.6565 0.13758 0.14935 0.0
H125 H 0.73924 0.22209 0.13592 0.0
H126 H 0.84929 0.23821 0.19596 0.0
H127 H 0.76756 0.15499 0.20937 0.0
H128 H 0.67876 0.12396 0.26425 0.0
H129 H 0.67605 0.11963 0.31055 0.0
H130 H 0.52636 0.96337 0.30448 0.0
H131 H 0.5278 0.9676 0.25829 0.0
H132 H 0.44766 0.96352 0.19368 0.0
H133 H 0.3632 0.87868 0.18104 0.0
H134 H 0.48078 0.86388 0.14262 0.0
H135 H 0.56612 0.94961 0.15573 0.0
N136 N 0.60958 0.05131 0.17725 0.0
N137 N 0.65164 0.08965 0.21754 0.0
N138 N 0.56211 1.00852 0.21485 0.0
C139 C 0.6541 0.09191 0.1917 0.0
C140 C 0.60586 0.04827 0.22926 0.0
C141 C 0.56342 1.0093 0.18906 0.0
C142 C 0.70538 0.13938 0.18038 0.0
C143 C 0.69878 0.15888 0.15928 0.0
C144 C 0.74593 0.2074 0.15177 0.0
C145 C 0.80097 0.23688 0.16483 0.0
C146 C 0.80789 0.21648 0.18529 0.0
C147 C 0.76083 0.16868 0.19301 0.0
C148 C 0.60358 0.04615 0.25746 0.0
C149 C 0.64496 0.0887 0.27274 0.0
C150 C 0.64346 0.08627 0.29927 0.0
C151 C 0.60066 0.04127 0.31115 0.0
C152 C 0.55898 0.9988 0.29593 0.0
C153 C 0.56024 1.00124 0.2694 0.0
C154 C 0.51333 0.96366 0.17511 0.0
C155 C 0.45528 0.94277 0.18171 0.0
C156 C 0.60472 0.39607 0.54616 0.0
C157 C 0.59418 0.38966 0.51978 0.0
C158 C 0.58647 0.41949 0.50736 0.0
C159 C 0.58987 0.45557 0.52113 0.0
H160 H 0.58948 0.57162 0.5135 0.0
H161 H 0.5947 0.63521 0.49296 0.0
H162 H 0.62223 0.7057 0.56632 0.0
H163 H 0.61709 0.64303 0.58697 0.0
H164 H 0.62302 0.60271 0.63619 0.0
H165 H 0.62473 0.60262 0.68265 0.0
H166 H 0.61258 0.47511 0.6789 0.0
H167 H 0.61052 0.47462 0.63253 0.0
H168 H 0.61584 0.4355 0.58029 0.0
H169 H 0.6095 0.37276 0.55626 0.0
H170 H 0.57798 0.41495 0.48701 0.0
H171 H 0.58378 0.47806 0.51103 0.0
N172 N 0.60114 0.53179 0.55074 0.0
N173 N 0.60947 0.56837 0.59034 0.0
N174 N 0.60853 0.5022 0.58833 0.0
C175 C 0.6042 0.56632 0.56457 0.0
C176 C 0.61162 0.53646 0.60238 0.0
C177 C 0.60335 0.49958 0.56254 0.0
C178 C 0.60351 0.60245 0.55189 0.0
C179 C 0.59628 0.60049 0.52528 0.0
C180 C 0.59898 0.6366 0.5135 0.0
C181 C 0.60947 0.67525 0.52816 0.0
C182 C 0.61477 0.67637 0.55469 0.0
C183 C 0.61175 0.64038 0.56645 0.0
C184 C 0.61623 0.53845 0.63054 0.0
C185 C 0.62123 0.57486 0.6452 0.0
C186 C 0.6227 0.57514 0.67181 0.0
C187 C 0.61908 0.53901 0.68425 0.0
C188 C 0.61534 0.50331 0.66968 0.0
C189 C 0.61416 0.50311 0.64313 0.0
C190 C 0.60041 0.46201 0.54762 0.0
C191 C 0.60784 0.43182 0.55993 0.0
C192 C 0.9885 0.58733 0.85936 0.0
C193 C 0.93328 0.54774 0.84754 0.0
C194 C 0.92974 0.50749 0.83872 0.0
C195 C 0.97751 0.5068 0.84192 0.0
H196 H 0.24084 0.5839 0.82728 0.0
H197 H 0.32331 0.58411 0.81954 0.0
H198 H 0.26083 0.48227 0.88002 0.0
H199 H 0.17834 0.48008 0.88644 0.0
H200 H 0.16877 0.52412 0.93914 0.0
H201 H 0.1616 0.52173 0.98552 0.0
H202 H 1.03636 0.54555 0.982 0.0
H203 H 1.04223 0.54689 0.93577 0.0
H204 H 0.07511 0.61733 0.87281 0.0
H205 H 0.99484 0.61847 0.86791 0.0
H206 H 0.88916 0.47549 0.82966 0.0
H207 H 0.97 0.47364 0.83623 0.0
N208 N 0.11664 0.53925 0.85311 0.0
N209 N 0.14844 0.53448 0.89309 0.0
N210 N 0.07437 0.5403 0.89143 0.0
C211 C 0.15373 0.53568 0.86732 0.0
C212 C 0.10977 0.53686 0.90526 0.0
C213 C 0.07584 0.54126 0.86562 0.0
C214 C 0.20029 0.53136 0.8574 0.0
C215 C 0.24351 0.56039 0.83847 0.0
C216 C 0.29265 0.56135 0.83447 0.0
C217 C 0.30204 0.53382 0.84934 0.0
C218 C 0.25753 0.50407 0.86762 0.0
C219 C 0.20894 0.5029 0.87143 0.0
C220 C 0.10612 0.53575 0.93357 0.0
C221 C 0.13973 0.52894 0.94821 0.0
C222 C 0.13596 0.52787 0.97484 0.0
C223 C 0.09875 0.53383 0.98746 0.0
C224 C 1.06513 0.5405 0.97284 0.0
C225 C 1.06873 0.54145 0.94628 0.0
C226 C 1.03249 0.54669 0.85375 0.0
C227 C 1.03596 0.58677 0.86227 0.0
C228 C 0.22137 0.70545 0.43235 0.0
C229 C 0.26036 0.71615 0.45198 0.0
C230 C 0.24862 0.6762 0.46457 0.0
C231 C 0.19986 0.62692 0.45718 0.0
H232 H 0.97577 0.45608 0.46642 0.0
H233 H 0.89389 0.37255 0.48123 0.0
H234 H 0.93685 0.31073 0.42401 0.0
H235 H 1.01752 0.39316 0.40934 0.0
H236 H 1.02358 0.44136 0.35172 0.0
H237 H 1.02585 0.4422 0.30512 0.0
H238 H 0.13688 0.60088 0.30844 0.0
H239 H 0.13442 0.60043 0.3547 0.0
H240 H 0.14561 0.65049 0.40926 0.0
H241 H 0.22951 0.73477 0.42165 0.0
H242 H 0.27781 0.68306 0.47975 0.0
H243 H 0.19346 0.597 0.46636 0.0
N244 N 0.08309 0.52388 0.43744 0.0
N245 N 1.04458 0.47887 0.39822 0.0
N246 N 0.11667 0.56467 0.39858 0.0
C247 C 1.04532 0.47954 0.42415 0.0
C248 C 0.07987 0.52127 0.38531 0.0
C249 C 0.11925 0.56682 0.4244 0.0
C250 C 1.00346 0.43132 0.43682 0.0
C251 C 0.96863 0.42469 0.45755 0.0
C252 C 0.92143 0.37686 0.46583 0.0
C253 C 0.90904 0.33492 0.45391 0.0
C254 C 0.94562 0.34207 0.43393 0.0
C255 C 0.99185 0.38943 0.42547 0.0
C256 C 0.07887 0.52081 0.35704 0.0
C257 C 1.048 0.47639 0.34253 0.0
C258 C 1.04932 0.47682 0.31587 0.0
C259 C 0.08092 0.52155 0.3032 0.0
C260 C 0.11111 0.56578 0.31767 0.0
C261 C 0.11011 0.56544 0.34424 0.0
C262 C 0.16241 0.61679 0.43689 0.0
C263 C 0.17319 0.6568 0.42508 0.0
C264 C 0.61868 0.17782 0.76089 0.0
C265 C 0.60121 0.17056 0.78643 0.0
C266 C 0.58778 0.12993 0.79875 0.0
C267 C 0.59188 0.09721 0.78567 0.0
H268 H 0.65193 1.00797 0.7897 0.0
H269 H 0.66477 0.95221 0.80697 0.0
H270 H 0.58148 0.85794 0.73939 0.0
H271 H 0.57055 0.91404 0.72182 0.0
H272 H 0.60437 0.9756 0.66903 0.0
H273 H 0.59637 0.97523 0.62262 0.0
H274 H 0.59894 0.09757 0.62988 0.0
H275 H 0.60673 0.09829 0.67597 0.0
H276 H 0.6353 0.15185 0.72803 0.0
H277 H 0.62821 0.20824 0.75076 0.0
H278 H 0.57397 0.12343 0.81844 0.0
H279 H 0.58066 0.06593 0.79552 0.0
N280 N 0.60969 0.03488 0.75651 0.0
N281 N 0.60771 1.00261 0.71628 0.0
N282 N 0.60802 0.06838 0.71915 0.0
C283 C 0.60903 1.00188 0.74216 0.0
C284 C 0.6074 0.03588 0.70462 0.0
C285 C 0.60902 0.06827 0.74498 0.0
C286 C 0.61118 0.96592 0.75419 0.0
C287 C 0.63603 0.97515 0.77864 0.0
C288 C 0.64333 0.94323 0.78854 0.0
C289 C 0.62553 0.90137 0.77424 0.0
C290 C 0.59756 0.89078 0.75049 0.0
C291 C 0.59099 0.92284 0.74049 0.0
C292 C 0.60553 0.03661 0.67637 0.0
C293 C 0.60352 1.00261 0.66077 0.0
C294 C 0.59922 1.00246 0.6342 0.0
C295 C 0.59637 0.036 0.6228 0.0
C296 C 0.60015 0.07084 0.63827 0.0
C297 C 0.60469 0.07119 0.66471 0.0
C298 C 0.60848 0.10416 0.75992 0.0
C299 C 0.62224 0.14512 0.74782 0.0
C300 C 0.63123 0.36031 0.11791 0.0
C301 C 0.61453 0.35136 0.14361 0.0
C302 C 0.55542 0.32647 0.14997 0.0
C303 C 0.51579 0.31733 0.13144 0.0
H304 H 0.44567 0.37508 0.14719 0.0
H305 H 0.44536 0.42849 0.17726 0.0
H306 H 0.45623 0.50961 0.11469 0.0
H307 H 0.45788 0.45735 0.08456 0.0
H308 H 0.44057 0.39007 0.02173 0.0
H309 H 0.47518 0.43169 0.98131 0.0
H310 H 0.6452 0.47069 0.99391 0.0
H311 H 0.60894 0.42623 0.03376 0.0
H312 H 0.60824 0.36493 0.08042 0.0
H313 H 0.67679 0.3794 0.11261 0.0
H314 H 0.54159 0.31877 0.16965 0.0
H315 H 0.47208 0.3028 0.1374 0.0
N316 N 0.47954 0.36159 0.106 0.0
N317 N 0.47699 0.39883 0.07107 0.0
N318 N 0.52055 0.36242 0.06744 0.0
C319 C 0.46525 0.38705 0.09591 0.0
C320 C 0.50361 0.38591 0.05661 0.0
C321 C 0.50685 0.34889 0.09216 0.0
C322 C 0.4525 0.41229 0.11341 0.0
C323 C 0.44788 0.40425 0.13977 0.0
C324 C 0.44859 0.43515 0.15707 0.0
C325 C 0.4539 0.47454 0.14834 0.0
C326 C 0.45532 0.48101 0.12198 0.0
C327 C 0.45469 0.45025 0.10468 0.0
C328 C 0.52206 0.40489 0.03073 0.0
C329 C 0.48499 0.40687 0.0156 0.0
C330 C 0.50519 0.4314 0.99269 0.0
C331 C 0.56362 0.4559 0.98481 0.0
C332 C 0.60003 0.45232 -0.00049 0.0
C333 C 0.57925 0.42671 0.02223 0.0
C334 C 0.5355 0.33434 0.10657 0.0
C335 C 0.59181 0.35178 0.0994 0.0
C336 C 0.37268 0.50188 0.18624 0.0
C337 C 0.39921 0.54869 0.17685 0.0
C338 C 0.39684 0.47962 0.18055 0.0
C339 C 0.44838 0.50433 0.16594 0.0
H340 H 0.32814 0.47871 0.19373 0.0
H341 H 0.37017 0.44068 0.18409 0.0
S342 S 0.54888 0.636 0.14948 0.0
N343 N 0.49023 0.62552 0.16188 0.0
N344 N 0.53607 0.58352 0.151 0.0
C345 C 0.48241 0.5551 0.16249 0.0
C346 C 0.45783 0.57772 0.16837 0.0
C347 C 0.74769 0.2195 0.46392 0.0
C348 C 0.75105 0.18224 0.46748 0.0
C349 C 0.799 0.26908 0.4608 0.0
C350 C 0.85595 0.28354 0.46076 0.0
H351 H 0.70493 0.21025 0.46314 0.0
H352 H 0.79384 0.29596 0.45741 0.0
S353 S 0.89011 0.20152 0.47071 0.0
N354 N 0.81704 0.16431 0.47188 0.0
N355 N 0.91283 0.25702 0.46591 0.0
C356 C 0.86013 0.24704 0.46502 0.0
C357 C 0.80799 0.19666 0.46843 0.0
C358 C 0.63493 0.82233 0.81732 0.0
C359 C 0.65905 0.80708 0.80118 0.0
C360 C 0.62443 0.85301 0.80861 0.0
C361 C 0.63786 0.86965 0.78348 0.0
H362 H 0.62344 0.80993 0.83671 0.0
H363 H 0.6049 0.86321 0.82152 0.0
S364 S 0.70776 0.84449 0.73469 0.0
N365 N 0.69968 0.81351 0.75955 0.0
N366 N 0.68086 0.87152 0.74329 0.0
C367 C 0.66339 0.85558 0.76743 0.0
C368 C 0.67371 0.82422 0.77624 0.0
C369 C 0.76018 0.41112 0.17558 0.0
C370 C 0.77291 0.45338 0.18721 0.0
C371 C 0.70533 0.37444 0.1637 0.0
C372 C 0.66146 0.37863 0.16338 0.0
H373 H 0.79473 0.40886 0.1731 0.0
H374 H 0.69917 0.34504 0.15277 0.0
S375 S 0.66903 0.47709 0.19544 0.0
N376 N 0.73428 0.49318 0.20135 0.0
N377 N 0.63109 0.42455 0.17864 0.0
C378 C 0.67109 0.41758 0.17755 0.0
C379 C 0.72696 0.45491 0.18964 0.0
C380 C 0.42315 0.83261 0.4622 0.0
C381 C 0.42106 0.87106 0.46203 0.0
C382 C 0.37104 0.78258 0.45999 0.0
C383 C 0.31458 0.76887 0.45781 0.0
H384 H 0.46551 0.84119 0.46326 0.0
H385 H 0.37526 0.75455 0.45907 0.0
S386 S 0.2841 0.85501 0.46039 0.0
N387 N 0.35711 0.89149 0.46186 0.0
N388 N 0.25983 0.79817 0.45859 0.0
C389 C 0.31186 0.80698 0.45902 0.0
C390 C 0.36479 0.85776 0.46089 0.0
C391 C 0.5304 0.21657 0.82046 0.0
C392 C 0.5743 0.26825 0.81907 0.0
C393 C 0.54029 0.18518 0.81087 0.0
C394 C 0.59439 0.2043 0.79947 0.0
H395 H 0.48727 0.20014 0.8282 0.0
H396 H 0.5045 0.14563 0.81145 0.0
S397 S 0.72653 0.33681 0.79426 0.0
N398 N 0.67609 0.33706 0.80775 0.0
N399 N 0.69429 0.2781 0.78949 0.0
C400 C 0.63954 0.25587 0.79899 0.0
C401 C 0.6296 0.2878 0.80883 0.0
C402 C 0.57736 0.74743 0.49349 0.0
C403 C 0.63005 0.79642 0.49777 0.0
C404 C 0.57162 0.70775 0.50235 0.0
C405 C 0.61806 0.71619 0.51606 0.0
H406 H 0.54019 0.73988 0.48361 0.0
H407 H 0.53001 0.67051 0.49931 0.0
S408 S 0.76493 0.83721 0.53192 0.0
N409 N 0.72949 0.8509 0.51628 0.0
N410 N 0.71863 0.77639 0.53276 0.0
C411 C 0.67123 0.7648 0.51992 0.0
C412 C 0.67725 0.80496 0.51081 0.0
C413 C 0.77046 0.50342 0.84459 0.0
C414 C 0.77786 0.54698 0.84295 0.0
C415 C 0.81942 0.50385 0.8457 0.0
C416 C 0.88016 0.5479 0.84541 0.0
H417 H 0.72594 0.46807 0.84509 0.0
H418 H 0.80903 0.46875 0.84726 0.0
S419 S 0.92598 0.673 0.84018 0.0
N420 N 0.85293 0.63598 0.84066 0.0
N421 N 0.94255 0.63697 0.84204 0.0
C422 C 0.88792 0.5917 0.84345 0.0
C423 C 0.83808 0.59119 0.84239 0.0
C424 C 0.31606 0.72354 0.15858 0.0
C425 C 0.2608 0.70736 0.14998 0.0
C426 C 0.36611 0.77417 0.16117 0.0
C427 C 0.36314 0.81086 0.15526 0.0
H428 H 0.32058 0.69697 0.16386 0.0
H429 H 0.40699 0.78466 0.1686 0.0
S430 S 0.2311 0.78867 0.12965 0.0
N431 N 0.20776 0.73288 0.13402 0.0
N432 N 0.30148 0.82728 0.13866 0.0
C433 C 0.3088 0.7952 0.14588 0.0
C434 C 0.25787 0.74379 0.1433 0.0
C435 C 0.52745 0.27335 0.48002 0.0
C436 C 0.56876 0.26652 0.48332 0.0
C437 C 0.53719 0.3145 0.49098 0.0
C438 C 0.58847 0.35011 0.50567 0.0
H439 H 0.48613 0.24566 0.46979 0.0
H440 H 0.50319 0.31736 0.48886 0.0
S441 S 0.71411 0.35313 0.51698 0.0
N442 N 0.66579 0.30157 0.50001 0.0
N443 N 0.6837 0.37868 0.52084 0.0
C444 C 0.63147 0.34505 0.50805 0.0
C445 C 0.62171 0.30331 0.49682 0.0
C446 C 0.40092 0.49485 0.85219 0.0
C447 C 0.45866 0.53605 0.84431 0.0
C448 C 0.35209 0.49444 0.85326 0.0
C449 C 0.3564 0.53525 0.84663 0.0
H450 H 0.39294 0.46198 0.85772 0.0
H451 H 0.3099 0.46083 0.85928 0.0
S452 S 0.49793 0.65383 0.82477 0.0
N453 N 0.51623 0.61956 0.82951 0.0
N454 N 0.42702 0.61933 0.83195 0.0
C455 C 0.41415 0.5768 0.83856 0.0
C456 C 0.46395 0.57709 0.83738 0.0
C457 C 0.88996 0.37463 0.15418 0.0
C458 C 0.94811 0.39265 0.15008 0.0
C459 C 0.84219 0.32403 0.15785 0.0
C460 C 0.85074 0.28944 0.15813 0.0
H461 H 0.88122 0.39984 0.15463 0.0
H462 H 0.79855 0.31215 0.16131 0.0
S463 S 0.99379 0.31695 0.14844 0.0
N464 N 1.01084 0.37103 0.14636 0.0
N465 N 0.92174 0.2768 0.1536 0.0
C466 C 0.90846 0.30687 0.15389 0.0
C467 C 0.95683 0.35811 0.14978 0.0
C468 C 1.03201 0.50606 0.05358 0.0
C469 C 0.08198 0.5356 0.06986 0.0
C470 C 1.03796 0.50476 0.02712 0.0
C471 C 0.09415 0.53289 0.01578 0.0
H472 H 0.98775 0.48433 0.06129 0.0
H473 H 0.9981 0.48187 0.01538 0.0
S474 S 0.23925 0.61497 0.04996 0.0
N475 N 0.18971 0.59231 0.07279 0.0
N476 N 0.20091 0.59031 0.02301 0.0
C477 C 0.14457 0.56144 0.03188 0.0
C478 C 0.13849 0.56271 0.0589 0.0
C479 C 0.65903 0.05588 0.37783 0.0
C480 C 0.60793 0.03075 0.39288 0.0
C481 C 0.65618 0.05955 0.35156 0.0
C482 C 0.60208 0.03821 0.33923 0.0
H483 H 0.70174 0.07261 0.38635 0.0
H484 H 0.6966 0.07847 0.34073 0.0
S485 S 0.45578 0.97068 0.37017 0.0
N486 N 0.50178 0.98554 0.39372 0.0
N487 N 0.49646 0.99281 0.34423 0.0
C488 C 0.55067 0.01359 0.35409 0.0
C489 C 0.55359 1.00987 0.38094 0.0
C490 C 0.56008 0.48702 0.74947 0.0
C491 C 0.6019 0.52678 0.76621 0.0
C492 C 0.56657 0.49137 0.72307 0.0
C493 C 0.61456 0.53593 0.71232 0.0
H494 H 0.52209 0.45188 0.75677 0.0
H495 H 0.53325 0.45973 0.71094 0.0
S496 S 0.73575 0.65142 0.74761 0.0
N497 N 0.69309 0.61211 0.7701 0.0
N498 N 0.70444 0.62086 0.72024 0.0
C499 C 0.65647 0.57622 0.72872 0.0
C500 C 0.65045 0.57145 0.75573 0.0
C501 C 0.6179 0.0369 0.5511 0.0
C502 C 0.56955 0.03099 0.54125 0.0
C503 C 0.62589 0.0375 0.57751 0.0
C504 C 0.58658 0.03345 0.59493 0.0
H505 H 0.6496 0.04081 0.53833 0.0
H506 H 0.66358 0.04205 0.58436 0.0
S507 S 0.45369 0.01808 0.57907 0.0
N508 N 0.48192 0.02103 0.55117 0.0
N509 N 0.4977 0.02317 0.60058 0.0
C510 C 0.53837 0.02781 0.58533 0.0
C511 C 0.52966 0.02634 0.55856 0.0
C512 C 0.63784 0.50593 0.92072 0.0
C513 C 0.62375 0.53536 0.91467 0.0
C514 C 0.61914 0.48095 0.94368 0.0
C515 C 0.58635 0.48516 0.96136 0.0
H516 H 0.66154 0.50079 0.90723 0.0
H517 H 0.62889 0.45706 0.94723 0.0
S518 S 0.54542 0.56349 0.95517 0.0
N519 N 0.57903 0.57027 0.92824 0.0
N520 N 0.54638 0.52568 0.97205 0.0
C521 C 0.57468 0.51665 0.95582 0.0
C522 C 0.59274 0.54116 0.93227 0.0
C523 C 0.11448 0.50332 0.23627 0.0
C524 C 0.1052 0.52997 0.22134 0.0
C525 C 0.10462 0.49946 0.26256 0.0
C526 C 0.08577 0.52262 0.27502 0.0
H527 H 0.1299 0.48545 0.22759 0.0
H528 H 0.11349 0.47939 0.27333 0.0
S529 S 1.0539 0.59596 0.24466 0.0
N530 N 0.07528 0.57928 0.22093 0.0
N531 N 1.05639 0.57191 0.27041 0.0
C532 C 0.07544 0.54878 0.26031 0.0
C533 C 0.08513 0.5524 0.23345 0.0
loop_
_geom_bond_atom_site_label_1
_geom_bond_atom_site_label_2
_geom_bond_distance
_geom_bond_site_symmetry_2
_ccdc_geom_bond_type
Sm0 C2 2.846 . S
Sm0 O20 2.543 . S
Sm0 O21 2.450 . S
Sm0 O22 2.681 . S
Sm0 O23 2.464 . S
Sm0 O24 2.396 . S
Sm0 O28 2.386 . S
Sm0 O31 2.408 1_455 S
Sm1 C11 2.846 . S
Sm1 O22 2.386 1_655 S
Sm1 O25 2.408 1_655 S
Sm1 O26 2.543 . S
Sm1 O27 2.450 . S
Sm1 O28 2.681 1_655 S
Sm1 O29 2.464 . S
Sm1 O30 2.396 . S
C2 Sm0 2.846 . S
C2 C3 1.506 . S
C2 O20 1.261 . S
C2 O21 1.242 . S
C3 C2 1.506 . S
C3 C4 1.358 . S
C3 C8 1.382 . S
C4 C3 1.358 . S
C4 C5 1.385 . S
C4 H32 0.930 . S
C5 C4 1.385 . S
C5 C6 1.395 . S
C5 H33 0.929 . S
C6 C5 1.395 . S
C6 C7 1.335 . S
C7 C6 1.335 . S
C7 C8 1.398 . S
C7 H34 0.930 . S
C8 C3 1.382 . S
C8 C7 1.398 . S
C8 H35 0.929 . S
C9 O22 1.271 . S
C9 O23 1.251 . S
C10 O24 1.252 . S
C10 O25 1.272 . S
C11 Sm1 2.846 . S
C11 C12 1.506 . S
C11 O26 1.261 . S
C11 O27 1.242 . S
C12 C11 1.506 . S
C12 C13 1.358 . S
C12 C17 1.382 . S
C13 C12 1.358 . S
C13 C14 1.385 . S
C13 H36 0.930 . S
C14 C13 1.385 . S
C14 C15 1.395 . S
C14 H37 0.929 . S
C15 C14 1.395 . S
C15 C16 1.335 . S
C16 C15 1.335 . S
C16 C17 1.398 . S
C16 H38 0.930 . S
C17 C12 1.382 . S
C17 C16 1.398 . S
C17 H39 0.929 . S
C18 O28 1.271 . S
C18 O29 1.251 1_455 S
C19 O30 1.252 . S
C19 O31 1.272 . S
O20 Sm0 2.543 . S
O20 C2 1.261 . S
O21 Sm0 2.450 . S
O21 C2 1.242 . S
O22 Sm0 2.681 . S
O22 Sm1 2.386 1_455 S
O22 C9 1.271 . S
O23 Sm0 2.464 . S
O23 C9 1.251 . S
O24 Sm0 2.396 . S
O24 C10 1.252 . S
O25 Sm1 2.408 1_455 S
O25 C10 1.272 . S
O26 Sm1 2.543 . S
O26 C11 1.261 . S
O27 Sm1 2.450 . S
O27 C11 1.242 . S
O28 Sm0 2.386 . S
O28 Sm1 2.681 1_455 S
O28 C18 1.271 . S
O29 Sm1 2.464 . S
O29 C18 1.251 1_655 S
O30 Sm1 2.396 . S
O30 C19 1.252 . S
O31 Sm0 2.408 1_655 S
O31 C19 1.272 . S
H32 C4 0.930 . S
H33 C5 0.929 . S
H34 C7 0.930 . S
H35 C8 0.929 . S
H36 C13 0.930 . S
H37 C14 0.929 . S
H38 C16 0.930 . S
H39 C17 0.929 . S
Sm40 C42 2.846 . S
Sm40 O60 2.543 . S
Sm40 O61 2.450 . S
Sm40 O62 2.681 1_565 S
Sm40 O63 2.464 . S
Sm40 O64 2.396 . S
Sm40 O68 2.386 . S
Sm40 O71 2.408 1_565 S
Sm41 C51 2.846 . S
Sm41 O62 2.386 . S
Sm41 O65 2.408 1_545 S
Sm41 O66 2.543 . S
Sm41 O67 2.450 . S
Sm41 O68 2.681 1_545 S
Sm41 O69 2.464 . S
Sm41 O70 2.396 . S
C42 Sm40 2.846 . S
C42 C43 1.506 . S
C42 O60 1.261 . S
C42 O61 1.242 . S
C43 C42 1.506 . S
C43 C44 1.358 . S
C43 C48 1.382 . S
C44 C43 1.358 . S
C44 C45 1.385 . S
C44 H72 0.930 . S
C45 C44 1.385 . S
C45 C46 1.395 . S
C45 H73 0.929 . S
C46 C45 1.395 . S
C46 C47 1.335 . S
C47 C46 1.335 . S
C47 C48 1.398 . S
C47 H74 0.930 . S
C48 C43 1.382 . S
C48 C47 1.398 . S
C48 H75 0.929 . S
C49 O62 1.271 . S
C49 O63 1.251 1_545 S
C50 O64 1.252 . S
C50 O65 1.272 . S
C51 Sm41 2.846 . S
C51 C52 1.506 . S
C51 O66 1.261 . S
C51 O67 1.242 . S
C52 C51 1.506 . S
C52 C53 1.358 . S
C52 C57 1.382 . S
C53 C52 1.358 . S
C53 C54 1.385 . S
C53 H76 0.930 . S
C54 C53 1.385 . S
C54 C55 1.395 . S
C54 H77 0.929 . S
C55 C54 1.395 . S
C55 C56 1.335 . S
C56 C55 1.335 . S
C56 C57 1.398 . S
C56 H78 0.930 . S
C57 C52 1.382 . S
C57 C56 1.398 . S
C57 H79 0.929 . S
C58 O68 1.271 1_545 S
C58 O69 1.251 . S
C59 O70 1.252 . S
C59 O71 1.272 . S
O60 Sm40 2.543 . S
O60 C42 1.261 . S
O61 Sm40 2.450 . S
O61 C42 1.242 . S
O62 Sm40 2.681 1_545 S
O62 Sm41 2.386 . S
O62 C49 1.271 . S
O63 Sm40 2.464 . S
O63 C49 1.251 1_565 S
O64 Sm40 2.396 . S
O64 C50 1.252 . S
O65 Sm41 2.408 1_565 S
O65 C50 1.272 . S
O66 Sm41 2.543 . S
O66 C51 1.261 . S
O67 Sm41 2.450 . S
O67 C51 1.242 . S
O68 Sm40 2.386 . S
O68 Sm41 2.681 1_565 S
O68 C58 1.271 1_565 S
O69 Sm41 2.464 . S
O69 C58 1.251 . S
O70 Sm41 2.396 . S
O70 C59 1.252 . S
O71 Sm40 2.408 1_545 S
O71 C59 1.272 . S
H72 C44 0.930 . S
H73 C45 0.929 . S
H74 C47 0.930 . S
H75 C48 0.929 . S
H76 C53 0.930 . S
H77 C54 0.929 . S
H78 C56 0.930 . S
H79 C57 0.929 . S
Sm80 C82 2.846 . S
Sm80 O100 2.543 . S
Sm80 O101 2.450 . S
Sm80 O102 2.681 . S
Sm80 O103 2.464 . S
Sm80 O104 2.396 . S
Sm80 O108 2.386 . S
Sm80 O111 2.408 . S
Sm81 C91 2.846 . S
Sm81 O102 2.386 . S
Sm81 O105 2.408 . S
Sm81 O106 2.543 . S
Sm81 O107 2.450 . S
Sm81 O108 2.681 . S
Sm81 O109 2.464 . S
Sm81 O110 2.396 . S
C82 Sm80 2.846 . S
C82 C83 1.506 . S
C82 O100 1.261 . S
C82 O101 1.242 . S
C83 C82 1.506 . S
C83 C84 1.358 . S
C83 C88 1.382 . S
C84 C83 1.358 . S
C84 C85 1.385 . S
C84 H112 0.930 . S
C85 C84 1.385 . S
C85 C86 1.395 . S
C85 H113 0.929 . S
C86 C85 1.395 . S
C86 C87 1.335 . S
C87 C86 1.335 . S
C87 C88 1.398 . S
C87 H114 0.930 . S
C88 C83 1.382 . S
C88 C87 1.398 . S
C88 H115 0.929 . S
C89 O102 1.271 . S
C89 O103 1.251 . S
C90 O104 1.252 . S
C90 O105 1.272 . S
C91 Sm81 2.846 . S
C91 C92 1.506 . S
C91 O106 1.261 . S
C91 O107 1.242 . S
C92 C91 1.506 . S
C92 C93 1.358 . S
C92 C97 1.382 . S
C93 C92 1.358 . S
C93 C94 1.385 . S
C93 H116 0.930 . S
C94 C93 1.385 . S
C94 C95 1.395 . S
C94 H117 0.929 . S
C95 C94 1.395 . S
C95 C96 1.335 . S
C96 C95 1.335 . S
C96 C97 1.398 . S
C96 H118 0.930 . S
C97 C92 1.382 . S
C97 C96 1.398 . S
C97 H119 0.929 . S
C98 O108 1.271 . S
C98 O109 1.251 . S
C99 O110 1.252 . S
C99 O111 1.272 . S
O100 Sm80 2.543 . S
O100 C82 1.261 . S
O101 Sm80 2.450 . S
O101 C82 1.242 . S
O102 Sm80 2.681 . S
O102 Sm81 2.386 . S
O102 C89 1.271 . S
O103 Sm80 2.464 . S
O103 C89 1.251 . S
O104 Sm80 2.396 . S
O104 C90 1.252 . S
O105 Sm81 2.408 . S
O105 C90 1.272 . S
O106 Sm81 2.543 . S
O106 C91 1.261 . S
O107 Sm81 2.450 . S
O107 C91 1.242 . S
O108 Sm80 2.386 . S
O108 Sm81 2.681 . S
O108 C98 1.271 . S
O109 Sm81 2.464 . S
O109 C98 1.251 . S
O110 Sm81 2.396 . S
O110 C99 1.252 . S
O111 Sm80 2.408 . S
O111 C99 1.272 . S
H112 C84 0.930 . S
H113 C85 0.929 . S
H114 C87 0.930 . S
H115 C88 0.929 . S
H116 C93 0.930 . S
H117 C94 0.929 . S
H118 C96 0.930 . S
H119 C97 0.929 . S
C120 C121 1.384 . S
C120 H133 0.947 . S
C120 C155 1.382 . S
C121 C120 1.384 . S
C121 C122 1.378 . S
C122 C121 1.378 . S
C122 C123 1.378 . S
C122 H134 0.952 . S
C123 C122 1.378 . S
C123 H135 0.950 . S
C123 C154 1.383 . S
H124 C143 0.947 . S
H125 C144 0.946 . S
H126 C146 0.953 . S
H127 C147 0.945 . S
H128 C149 0.952 . S
H129 C150 0.949 . S
H130 C152 0.950 . S
H131 C153 0.948 . S
H132 C155 0.951 . S
H133 C120 0.947 . S
H134 C122 0.952 . S
H135 C123 0.950 . S
N136 C139 1.382 . S
N136 C141 1.363 1_545 S
N137 C139 1.371 . S
N137 C140 1.372 . S
N138 C140 1.361 1_565 S
N138 C141 1.377 . S
C139 N136 1.382 . S
C139 N137 1.371 . S
C139 C142 1.480 . S
C140 N137 1.372 . S
C140 N138 1.361 1_545 S
C140 C148 1.457 . S
C141 N136 1.363 1_565 S
C141 N138 1.377 . S
C141 C154 1.479 . S
C142 C139 1.480 . S
C142 C143 1.383 . S
C142 C147 1.385 . S
C143 H124 0.947 . S
C143 C142 1.383 . S
C143 C144 1.388 . S
C144 H125 0.946 . S
C144 C143 1.388 . S
C144 C145 1.384 . S
C145 C144 1.384 . S
C145 C146 1.377 . S
C146 H126 0.953 . S
C146 C145 1.377 . S
C146 C147 1.369 . S
C147 H127 0.945 . S
C147 C142 1.385 . S
C147 C146 1.369 . S
C148 C140 1.457 . S
C148 C149 1.372 . S
C148 C153 1.364 1_545 S
C149 H128 0.952 . S
C149 C148 1.372 . S
C149 C150 1.389 . S
C150 H129 0.949 . S
C150 C149 1.389 . S
C150 C151 1.387 . S
C151 C150 1.387 . S
C151 C152 1.372 1_545 S
C152 H130 0.950 . S
C152 C151 1.372 1_565 S
C152 C153 1.379 . S
C153 H131 0.948 . S
C153 C148 1.364 1_565 S
C153 C152 1.379 . S
C154 C123 1.383 . S
C154 C141 1.479 . S
C154 C155 1.398 . S
C155 C120 1.382 . S
C155 H132 0.951 . S
C155 C154 1.398 . S
C156 C157 1.384 . S
C156 H169 0.947 . S
C156 C191 1.382 . S
C157 C156 1.384 . S
C157 C158 1.378 . S
C158 C157 1.378 . S
C158 C159 1.378 . S
C158 H170 0.952 . S
C159 C158 1.378 . S
C159 H171 0.950 . S
C159 C190 1.383 . S
H160 C179 0.947 . S
H161 C180 0.946 . S
H162 C182 0.953 . S
H163 C183 0.945 . S
H164 C185 0.952 . S
H165 C186 0.949 . S
H166 C188 0.950 . S
H167 C189 0.948 . S
H168 C191 0.951 . S
H169 C156 0.947 . S
H170 C158 0.952 . S
H171 C159 0.950 . S
N172 C175 1.382 . S
N172 C177 1.363 . S
N173 C175 1.371 . S
N173 C176 1.372 . S
N174 C176 1.361 . S
N174 C177 1.377 . S
C175 N172 1.382 . S
C175 N173 1.371 . S
C175 C178 1.480 . S
C176 N173 1.372 . S
C176 N174 1.361 . S
C176 C184 1.457 . S
C177 N172 1.363 . S
C177 N174 1.377 . S
C177 C190 1.479 . S
C178 C175 1.480 . S
C178 C179 1.383 . S
C178 C183 1.385 . S
C179 H160 0.947 . S
C179 C178 1.383 . S
C179 C180 1.388 . S
C180 H161 0.946 . S
C180 C179 1.388 . S
C180 C181 1.384 . S
C181 C180 1.384 . S
C181 C182 1.377 . S
C182 H162 0.953 . S
C182 C181 1.377 . S
C182 C183 1.369 . S
C183 H163 0.945 . S
C183 C178 1.385 . S
C183 C182 1.369 . S
C184 C176 1.457 . S
C184 C185 1.372 . S
C184 C189 1.364 . S
C185 H164 0.952 . S
C185 C184 1.372 . S
C185 C186 1.389 . S
C186 H165 0.949 . S
C186 C185 1.389 . S
C186 C187 1.387 . S
C187 C186 1.387 . S
C187 C188 1.372 . S
C188 H166 0.950 . S
C188 C187 1.372 . S
C188 C189 1.379 . S
C189 H167 0.948 . S
C189 C184 1.364 . S
C189 C188 1.379 . S
C190 C159 1.383 . S
C190 C177 1.479 . S
C190 C191 1.398 . S
C191 C156 1.382 . S
C191 H168 0.951 . S
C191 C190 1.398 . S
C192 C193 1.384 . S
C192 H205 0.947 . S
C192 C227 1.382 . S
C193 C192 1.384 . S
C193 C194 1.378 . S
C194 C193 1.378 . S
C194 C195 1.378 . S
C194 H206 0.952 . S
C195 C194 1.378 . S
C195 H207 0.950 . S
C195 C226 1.383 . S
H196 C215 0.947 . S
H197 C216 0.946 . S
H198 C218 0.953 . S
H199 C219 0.945 . S
H200 C221 0.952 . S
H201 C222 0.949 . S
H202 C224 0.950 . S
H203 C225 0.948 . S
H204 C227 0.951 . S
H205 C192 0.947 . S
H206 C194 0.952 . S
H207 C195 0.950 . S
N208 C211 1.382 . S
N208 C213 1.363 . S
N209 C211 1.371 . S
N209 C212 1.372 . S
N210 C212 1.361 . S
N210 C213 1.377 . S
C211 N208 1.382 . S
C211 N209 1.371 . S
C211 C214 1.480 . S
C212 N209 1.372 . S
C212 N210 1.361 . S
C212 C220 1.457 . S
C213 N208 1.363 . S
C213 N210 1.377 . S
C213 C226 1.479 1_455 S
C214 C211 1.480 . S
C214 C215 1.383 . S
C214 C219 1.385 . S
C215 H196 0.947 . S
C215 C214 1.383 . S
C215 C216 1.388 . S
C216 H197 0.946 . S
C216 C215 1.388 . S
C216 C217 1.384 . S
C217 C216 1.384 . S
C217 C218 1.377 . S
C218 H198 0.953 . S
C218 C217 1.377 . S
C218 C219 1.369 . S
C219 H199 0.945 . S
C219 C214 1.385 . S
C219 C218 1.369 . S
C220 C212 1.457 . S
C220 C221 1.372 . S
C220 C225 1.364 1_455 S
C221 H200 0.952 . S
C221 C220 1.372 . S
C221 C222 1.389 . S
C222 H201 0.949 . S
C222 C221 1.389 . S
C222 C223 1.387 . S
C223 C222 1.387 . S
C223 C224 1.372 1_455 S
C224 H202 0.950 . S
C224 C223 1.372 1_655 S
C224 C225 1.379 . S
C225 H203 0.948 . S
C225 C220 1.364 1_655 S
C225 C224 1.379 . S
C226 C195 1.383 . S
C226 C213 1.479 1_655 S
C226 C227 1.398 . S
C227 C192 1.382 . S
C227 H204 0.951 . S
C227 C226 1.398 . S
C228 C229 1.384 . S
C228 H241 0.947 . S
C228 C263 1.382 . S
C229 C228 1.384 . S
C229 C230 1.378 . S
C230 C229 1.378 . S
C230 C231 1.378 . S
C230 H242 0.952 . S
C231 C230 1.378 . S
C231 H243 0.950 . S
C231 C262 1.383 . S
H232 C251 0.947 . S
H233 C252 0.946 . S
H234 C254 0.953 . S
H235 C255 0.945 . S
H236 C257 0.952 . S
H237 C258 0.949 . S
H238 C260 0.950 . S
H239 C261 0.948 . S
H240 C263 0.951 . S
H241 C228 0.947 . S
H242 C230 0.952 . S
H243 C231 0.950 . S
N244 C247 1.382 1_455 S
N244 C249 1.363 . S
N245 C247 1.371 . S
N245 C248 1.372 1_655 S
N246 C248 1.361 . S
N246 C249 1.377 . S
C247 N244 1.382 1_655 S
C247 N245 1.371 . S
C247 C250 1.480 . S
C248 N245 1.372 1_455 S
C248 N246 1.361 . S
C248 C256 1.457 . S
C249 N244 1.363 . S
C249 N246 1.377 . S
C249 C262 1.479 . S
C250 C247 1.480 . S
C250 C251 1.383 . S
C250 C255 1.385 . S
C251 H232 0.947 . S
C251 C250 1.383 . S
C251 C252 1.388 . S
C252 H233 0.946 . S
C252 C251 1.388 . S
C252 C253 1.384 . S
C253 C252 1.384 . S
C253 C254 1.377 . S
C254 H234 0.953 . S
C254 C253 1.377 . S
C254 C255 1.369 . S
C255 H235 0.945 . S
C255 C250 1.385 . S
C255 C254 1.369 . S
C256 C248 1.457 . S
C256 C257 1.372 1_455 S
C256 C261 1.364 . S
C257 H236 0.952 . S
C257 C256 1.372 1_655 S
C257 C258 1.389 . S
C258 H237 0.949 . S
C258 C257 1.389 . S
C258 C259 1.387 1_655 S
C259 C258 1.387 1_455 S
C259 C260 1.372 . S
C260 H238 0.950 . S
C260 C259 1.372 . S
C260 C261 1.379 . S
C261 H239 0.948 . S
C261 C256 1.364 . S
C261 C260 1.379 . S
C262 C231 1.383 . S
C262 C249 1.479 . S
C262 C263 1.398 . S
C263 C228 1.382 . S
C263 H240 0.951 . S
C263 C262 1.398 . S
C264 C265 1.384 . S
C264 H277 0.947 . S
C264 C299 1.382 . S
C265 C264 1.384 . S
C265 C266 1.378 . S
C266 C265 1.378 . S
C266 C267 1.378 . S
C266 H278 0.952 . S
C267 C266 1.378 . S
C267 H279 0.950 . S
C267 C298 1.383 . S
H268 C287 0.947 . S
H269 C288 0.946 . S
H270 C290 0.953 . S
H271 C291 0.945 . S
H272 C293 0.952 . S
H273 C294 0.949 . S
H274 C296 0.950 . S
H275 C297 0.948 . S
H276 C299 0.951 . S
H277 C264 0.947 . S
H278 C266 0.952 . S
H279 C267 0.950 . S
N280 C283 1.382 1_545 S
N280 C285 1.363 . S
N281 C283 1.371 . S
N281 C284 1.372 1_565 S
N282 C284 1.361 . S
N282 C285 1.377 . S
C283 N280 1.382 1_565 S
C283 N281 1.371 . S
C283 C286 1.480 . S
C284 N281 1.372 1_545 S
C284 N282 1.361 . S
C284 C292 1.457 . S
C285 N280 1.363 . S
C285 N282 1.377 . S
C285 C298 1.479 . S
C286 C283 1.480 . S
C286 C287 1.383 . S
C286 C291 1.385 . S
C287 H268 0.947 . S
C287 C286 1.383 . S
C287 C288 1.388 . S
C288 H269 0.946 . S
C288 C287 1.388 . S
C288 C289 1.384 . S
C289 C288 1.384 . S
C289 C290 1.377 . S
C290 H270 0.953 . S
C290 C289 1.377 . S
C290 C291 1.369 . S
C291 H271 0.945 . S
C291 C286 1.385 . S
C291 C290 1.369 . S
C292 C284 1.457 . S
C292 C293 1.372 1_545 S
C292 C297 1.364 . S
C293 H272 0.952 . S
C293 C292 1.372 1_565 S
C293 C294 1.389 . S
C294 H273 0.949 . S
C294 C293 1.389 . S
C294 C295 1.387 . S
C295 C294 1.387 . S
C295 C296 1.372 1_565 S
C296 H274 0.950 . S
C296 C295 1.372 1_545 S
C296 C297 1.379 . S
C297 H275 0.948 . S
C297 C292 1.364 . S
C297 C296 1.379 . S
C298 C267 1.383 . S
C298 C285 1.479 . S
C298 C299 1.398 . S
C299 C264 1.382 . S
C299 H276 0.951 . S
C299 C298 1.398 . S
C300 C301 1.384 . S
C300 H313 0.947 . S
C300 C335 1.382 . S
C301 C300 1.384 . S
C301 C302 1.378 . S
C302 C301 1.378 . S
C302 C303 1.378 . S
C302 H314 0.952 . S
C303 C302 1.378 . S
C303 H315 0.950 . S
C303 C334 1.383 . S
H304 C323 0.947 . S
H305 C324 0.946 . S
H306 C326 0.953 . S
H307 C327 0.945 . S
H308 C329 0.952 . S
H309 C330 0.949 . S
H310 C332 0.950 . S
H311 C333 0.948 . S
H312 C335 0.951 . S
H313 C300 0.947 . S
H314 C302 0.952 . S
H315 C303 0.950 . S
N316 C319 1.382 . S
N316 C321 1.363 . S
N317 C319 1.371 . S
N317 C320 1.372 . S
N318 C320 1.361 . S
N318 C321 1.377 . S
C319 N316 1.382 . S
C319 N317 1.371 . S
C319 C322 1.480 . S
C320 N317 1.372 . S
C320 N318 1.361 . S
C320 C328 1.457 . S
C321 N316 1.363 . S
C321 N318 1.377 . S
C321 C334 1.479 . S
C322 C319 1.480 . S
C322 C323 1.383 . S
C322 C327 1.385 . S
C323 H304 0.947 . S
C323 C322 1.383 . S
C323 C324 1.388 . S
C324 H305 0.946 . S
C324 C323 1.388 . S
C324 C325 1.384 . S
C325 C324 1.384 . S
C325 C326 1.377 . S
C326 H306 0.953 . S
C326 C325 1.377 . S
C326 C327 1.369 . S
C327 H307 0.945 . S
C327 C322 1.385 . S
C327 C326 1.369 . S
C328 C320 1.457 . S
C328 C329 1.372 . S
C328 C333 1.364 . S
C329 H308 0.952 . S
C329 C328 1.372 . S
C329 C330 1.389 1_554 S
C330 H309 0.949 . S
C330 C329 1.389 1_556 S
C330 C331 1.387 . S
C331 C330 1.387 . S
C331 C332 1.372 . S
C332 H310 0.950 . S
C332 C331 1.372 . S
C332 C333 1.379 1_556 S
C333 H311 0.948 . S
C333 C328 1.364 . S
C333 C332 1.379 1_554 S
C334 C303 1.383 . S
C334 C321 1.479 . S
C334 C335 1.398 . S
C335 C300 1.382 . S
C335 H312 0.951 . S
C335 C334 1.398 . S
C336 C337 1.369 . S
C336 C338 1.419 . S
C336 H340 0.930 . S
C337 C336 1.369 . S
C337 C346 1.429 . S
C338 C336 1.419 . S
C338 C339 1.363 . S
C338 H341 0.929 . S
C339 C338 1.363 . S
C339 C345 1.428 . S
H340 C336 0.930 . S
H341 C338 0.929 . S
S342 N343 1.613 . S
S342 N344 1.610 . S
N343 S342 1.613 . S
N343 C346 1.350 . S
N344 S342 1.610 . S
N344 C345 1.351 . S
C345 C339 1.428 . S
C345 N344 1.351 . S
C345 C346 1.434 . S
C346 C337 1.429 . S
C346 N343 1.350 . S
C346 C345 1.434 . S
C347 C348 1.369 . S
C347 C349 1.419 . S
C347 H351 0.930 . S
C348 C347 1.369 . S
C348 C357 1.429 . S
C349 C347 1.419 . S
C349 C350 1.363 . S
C349 H352 0.929 . S
C350 C349 1.363 . S
C350 C356 1.428 . S
H351 C347 0.930 . S
H352 C349 0.929 . S
S353 N354 1.613 . S
S353 N355 1.610 . S
N354 S353 1.613 . S
N354 C357 1.350 . S
N355 S353 1.610 . S
N355 C356 1.351 . S
C356 C350 1.428 . S
C356 N355 1.351 . S
C356 C357 1.434 . S
C357 C348 1.429 . S
C357 N354 1.350 . S
C357 C356 1.434 . S
C358 C359 1.369 . S
C358 C360 1.419 . S
C358 H362 0.930 . S
C359 C358 1.369 . S
C359 C368 1.429 . S
C360 C358 1.419 . S
C360 C361 1.363 . S
C360 H363 0.929 . S
C361 C360 1.363 . S
C361 C367 1.428 . S
H362 C358 0.930 . S
H363 C360 0.929 . S
S364 N365 1.613 . S
S364 N366 1.610 . S
N365 S364 1.613 . S
N365 C368 1.350 . S
N366 S364 1.610 . S
N366 C367 1.351 . S
C367 C361 1.428 . S
C367 N366 1.351 . S
C367 C368 1.434 . S
C368 C359 1.429 . S
C368 N365 1.350 . S
C368 C367 1.434 . S
C369 C370 1.369 . S
C369 C371 1.419 . S
C369 H373 0.930 . S
C370 C369 1.369 . S
C370 C379 1.429 . S
C371 C369 1.419 . S
C371 C372 1.363 . S
C371 H374 0.929 . S
C372 C371 1.363 . S
C372 C378 1.428 . S
H373 C369 0.930 . S
H374 C371 0.929 . S
S375 N376 1.613 . S
S375 N377 1.610 . S
N376 S375 1.613 . S
N376 C379 1.350 . S
N377 S375 1.610 . S
N377 C378 1.351 . S
C378 C372 1.428 . S
C378 N377 1.351 . S
C378 C379 1.434 . S
C379 C370 1.429 . S
C379 N376 1.350 . S
C379 C378 1.434 . S
C380 C381 1.369 . S
C380 C382 1.419 . S
C380 H384 0.930 . S
C381 C380 1.369 . S
C381 C390 1.429 . S
C382 C380 1.419 . S
C382 C383 1.363 . S
C382 H385 0.929 . S
C383 C382 1.363 . S
C383 C389 1.428 . S
H384 C380 0.930 . S
H385 C382 0.929 . S
S386 N387 1.613 . S
S386 N388 1.610 . S
N387 S386 1.613 . S
N387 C390 1.350 . S
N388 S386 1.610 . S
N388 C389 1.351 . S
C389 C383 1.428 . S
C389 N388 1.351 . S
C389 C390 1.434 . S
C390 C381 1.429 . S
C390 N387 1.350 . S
C390 C389 1.434 . S
C391 C392 1.369 . S
C391 C393 1.419 . S
C391 H395 0.930 . S
C392 C391 1.369 . S
C392 C401 1.429 . S
C393 C391 1.419 . S
C393 C394 1.363 . S
C393 H396 0.929 . S
C394 C393 1.363 . S
C394 C400 1.428 . S
H395 C391 0.930 . S
H396 C393 0.929 . S
S397 N398 1.613 . S
S397 N399 1.610 . S
N398 S397 1.613 . S
N398 C401 1.350 . S
N399 S397 1.610 . S
N399 C400 1.351 . S
C400 C394 1.428 . S
C400 N399 1.351 . S
C400 C401 1.434 . S
C401 C392 1.429 . S
C401 N398 1.350 . S
C401 C400 1.434 . S
C402 C403 1.369 . S
C402 C404 1.419 . S
C402 H406 0.930 . S
C403 C402 1.369 . S
C403 C412 1.429 . S
C404 C402 1.419 . S
C404 C405 1.363 . S
C404 H407 0.929 . S
C405 C404 1.363 . S
C405 C411 1.428 . S
H406 C402 0.930 . S
H407 C404 0.929 . S
S408 N409 1.613 . S
S408 N410 1.610 . S
N409 S408 1.613 . S
N409 C412 1.350 . S
N410 S408 1.610 . S
N410 C411 1.351 . S
C411 C405 1.428 . S
C411 N410 1.351 . S
C411 C412 1.434 . S
C412 C403 1.429 . S
C412 N409 1.350 . S
C412 C411 1.434 . S
C413 C414 1.369 . S
C413 C415 1.419 . S
C413 H417 0.930 . S
C414 C413 1.369 . S
C414 C423 1.429 . S
C415 C413 1.419 . S
C415 C416 1.363 . S
C415 H418 0.929 . S
C416 C415 1.363 . S
C416 C422 1.428 . S
H417 C413 0.930 . S
H418 C415 0.929 . S
S419 N420 1.613 . S
S419 N421 1.610 . S
N420 S419 1.613 . S
N420 C423 1.350 . S
N421 S419 1.610 . S
N421 C422 1.351 . S
C422 C416 1.428 . S
C422 N421 1.351 . S
C422 C423 1.434 . S
C423 C414 1.429 . S
C423 N420 1.350 . S
C423 C422 1.434 . S
C424 C425 1.369 . S
C424 C426 1.419 . S
C424 H428 0.930 . S
C425 C424 1.369 . S
C425 C434 1.429 . S
C426 C424 1.419 . S
C426 C427 1.363 . S
C426 H429 0.929 . S
C427 C426 1.363 . S
C427 C433 1.428 . S
H428 C424 0.930 . S
H429 C426 0.929 . S
S430 N431 1.613 . S
S430 N432 1.610 . S
N431 S430 1.613 . S
N431 C434 1.350 . S
N432 S430 1.610 . S
N432 C433 1.351 . S
C433 C427 1.428 . S
C433 N432 1.351 . S
C433 C434 1.434 . S
C434 C425 1.429 . S
C434 N431 1.350 . S
C434 C433 1.434 . S
C435 C436 1.369 . S
C435 C437 1.419 . S
C435 H439 0.930 . S
C436 C435 1.369 . S
C436 C445 1.429 . S
C437 C435 1.419 . S
C437 C438 1.363 . S
C437 H440 0.929 . S
C438 C437 1.363 . S
C438 C444 1.428 . S
H439 C435 0.930 . S
H440 C437 0.929 . S
S441 N442 1.613 . S
S441 N443 1.610 . S
N442 S441 1.613 . S
N442 C445 1.350 . S
N443 S441 1.610 . S
N443 C444 1.351 . S
C444 C438 1.428 . S
C444 N443 1.351 . S
C444 C445 1.434 . S
C445 C436 1.429 . S
C445 N442 1.350 . S
C445 C444 1.434 . S
C446 C447 1.369 . S
C446 C448 1.419 . S
C446 H450 0.930 . S
C447 C446 1.369 . S
C447 C456 1.429 . S
C448 C446 1.419 . S
C448 C449 1.363 . S
C448 H451 0.929 . S
C449 C448 1.363 . S
C449 C455 1.428 . S
H450 C446 0.930 . S
H451 C448 0.929 . S
S452 N453 1.613 . S
S452 N454 1.610 . S
N453 S452 1.613 . S
N453 C456 1.350 . S
N454 S452 1.610 . S
N454 C455 1.351 . S
C455 C449 1.428 . S
C455 N454 1.351 . S
C455 C456 1.434 . S
C456 C447 1.429 . S
C456 N453 1.350 . S
C456 C455 1.434 . S
C457 C458 1.369 . S
C457 C459 1.419 . S
C457 H461 0.930 . S
C458 C457 1.369 . S
C458 C467 1.429 . S
C459 C457 1.419 . S
C459 C460 1.363 . S
C459 H462 0.929 . S
C460 C459 1.363 . S
C460 C466 1.428 . S
H461 C457 0.930 . S
H462 C459 0.929 . S
S463 N464 1.613 . S
S463 N465 1.610 . S
N464 S463 1.613 . S
N464 C467 1.350 . S
N465 S463 1.610 . S
N465 C466 1.351 . S
C466 C460 1.428 . S
C466 N465 1.351 . S
C466 C467 1.434 . S
C467 C458 1.429 . S
C467 N464 1.350 . S
C467 C466 1.434 . S
C468 C469 1.369 1_655 S
C468 C470 1.419 . S
C468 H472 0.930 . S
C469 C468 1.369 1_455 S
C469 C478 1.429 . S
C470 C468 1.419 . S
C470 C471 1.363 1_655 S
C470 H473 0.929 . S
C471 C470 1.363 1_455 S
C471 C477 1.428 . S
H472 C468 0.930 . S
H473 C470 0.929 . S
S474 N475 1.613 . S
S474 N476 1.610 . S
N475 S474 1.613 . S
N475 C478 1.350 . S
N476 S474 1.610 . S
N476 C477 1.351 . S
C477 C471 1.428 . S
C477 N476 1.351 . S
C477 C478 1.434 . S
C478 C469 1.429 . S
C478 N475 1.350 . S
C478 C477 1.434 . S
C479 C480 1.369 . S
C479 C481 1.419 . S
C479 H483 0.930 . S
C480 C479 1.369 . S
C480 C489 1.429 1_545 S
C481 C479 1.419 . S
C481 C482 1.363 . S
C481 H484 0.929 . S
C482 C481 1.363 . S
C482 C488 1.428 1_545 S
H483 C479 0.930 . S
H484 C481 0.929 . S
S485 N486 1.613 . S
S485 N487 1.610 . S
N486 S485 1.613 . S
N486 C489 1.350 . S
N487 S485 1.610 . S
N487 C488 1.351 . S
C488 C482 1.428 1_565 S
C488 N487 1.351 . S
C488 C489 1.434 . S
C489 C480 1.429 1_565 S
C489 N486 1.350 . S
C489 C488 1.434 . S
C490 C491 1.369 . S
C490 C492 1.419 . S
C490 H494 0.930 . S
C491 C490 1.369 . S
C491 C500 1.429 . S
C492 C490 1.419 . S
C492 C493 1.363 . S
C492 H495 0.929 . S
C493 C492 1.363 . S
C493 C499 1.428 . S
H494 C490 0.930 . S
H495 C492 0.929 . S
S496 N497 1.613 . S
S496 N498 1.610 . S
N497 S496 1.613 . S
N497 C500 1.350 . S
N498 S496 1.610 . S
N498 C499 1.351 . S
C499 C493 1.428 . S
C499 N498 1.351 . S
C499 C500 1.434 . S
C500 C491 1.429 . S
C500 N497 1.350 . S
C500 C499 1.434 . S
C501 C502 1.369 1_565 S
C501 C503 1.419 . S
C501 H505 0.930 . S
C502 C501 1.369 1_545 S
C502 C511 1.429 . S
C503 C501 1.419 . S
C503 C504 1.363 . S
C503 H506 0.929 . S
C504 C503 1.363 . S
C504 C510 1.428 1_565 S
H505 C501 0.930 . S
H506 C503 0.929 . S
S507 N508 1.613 . S
S507 N509 1.610 . S
N508 S507 1.613 . S
N508 C511 1.350 . S
N509 S507 1.610 . S
N509 C510 1.351 . S
C510 C504 1.428 1_545 S
C510 N509 1.351 . S
C510 C511 1.434 . S
C511 C502 1.429 . S
C511 N508 1.350 . S
C511 C510 1.434 . S
C512 C513 1.369 . S
C512 C514 1.419 . S
C512 H516 0.930 . S
C513 C512 1.369 . S
C513 C522 1.429 . S
C514 C512 1.419 . S
C514 C515 1.363 . S
C514 H517 0.929 . S
C515 C514 1.363 . S
C515 C521 1.428 . S
H516 C512 0.930 . S
H517 C514 0.929 . S
S518 N519 1.613 . S
S518 N520 1.610 . S
N519 S518 1.613 . S
N519 C522 1.350 . S
N520 S518 1.610 . S
N520 C521 1.351 . S
C521 C515 1.428 . S
C521 N520 1.351 . S
C521 C522 1.434 . S
C522 C513 1.429 . S
C522 N519 1.350 . S
C522 C521 1.434 . S
C523 C524 1.369 . S
C523 C525 1.419 1_455 S
C523 H527 0.938 1_455 S
C524 C523 1.369 . S
C524 C533 1.429 . S
C525 C523 1.419 1_655 S
C525 C526 1.363 1_655 S
C525 H528 0.929 . S
C526 C525 1.363 1_455 S
C526 C532 1.428 . S
H527 C523 0.938 1_655 S
H528 C525 0.929 . S
S529 N530 1.613 . S
S529 N531 1.610 . S
N530 S529 1.613 . S
N530 C533 1.350 . S
N531 S529 1.610 . S
N531 C532 1.351 . S
C532 C526 1.428 . S
C532 N531 1.351 . S
C532 C533 1.434 . S
C533 C524 1.429 . S
C533 N530 1.350 . S
C533 C532 1.434 . S
C337 C6 0.908 . S
C339 C325 0.958 . S
C348 C59 2.018 . S
C350 C253 1.927 . S
C359 C86 1.354 . S
C361 C289 1.368 . S
C370 C15 0.666 . S
C372 C301 0.588 . S
C383 C229 2.063 . S
C381 C50 2.148 . S
C394 C265 1.386 . S
C392 C95 1.356 . S
C403 C46 1.288 . S
C405 C181 1.319 . S
C414 C99 3.175 . S
C416 C193 3.127 . S
C425 C10 2.179 . S
C427 C121 2.111 . S
C438 C157 1.391 . S
C436 C55 1.344 . S
C449 C217 3.023 . S
C447 C90 3.116 . S
C458 C19 2.016 . S
C460 C145 1.948 . S
C471 C223 1.786 1_554 S
C469 C18 1.721 . S
C480 C49 1.325 . S
C482 C151 1.361 . S
C491 C98 1.456 . S
C493 C187 1.504 . S
C504 C295 1.475 . S
C502 C58 1.441 . S
C515 C331 1.081 . S
C513 C89 1.073 . S
C524 C9 1.321 . S
C526 C259 1.347 . S
