# Generated by pormake.
# Topology zzz, (3,6)-cn, num edge types: 1
# Building blocks:
#     Node 0, Type 0, BuildingBlock: BETDAH_clean_linker_0, # of connection points: 3
#     Node 1, Type 0, BuildingBlock: BETDAH_clean_linker_0, # of connection points: 3
#     Node 2, Type 0, BuildingBlock: BETDAH_clean_linker_0, # of connection points: 3
#     Node 3, Type 0, BuildingBlock: BETDAH_clean_linker_0, # of connection points: 3
#     Node 4, Type 0, BuildingBlock: BETDAH_clean_linker_0, # of connection points: 3
#     Node 5, Type 0, BuildingBlock: BETDAH_clean_linker_0, # of connection points: 3
#     Node 6, Type 0, BuildingBlock: BETDAH_clean_linker_0, # of connection points: 3
#     Node 7, Type 0, BuildingBlock: BETDAH_clean_linker_0, # of connection points: 3
#     Node 8, Type 1, BuildingBlock: CUKXOW_clean_sbu_0, # of connection points: 6
#     Node 9, Type 1, BuildingBlock: CUKXOW_clean_sbu_0, # of connection points: 6
#     Node 10, Type 1, BuildingBlock: CUKXOW_clean_sbu_0, # of connection points: 6
#     Node 11, Type 1, BuildingBlock: CUKXOW_clean_sbu_0, # of connection points: 6
#     Edge 12, Type (0, 1), BuildingBlock: KIFKEQ_clean_linker_1, # of connection points: 2
#     Edge 13, Type (0, 1), BuildingBlock: KIFKEQ_clean_linker_1, # of connection points: 2
#     Edge 14, Type (0, 1), BuildingBlock: KIFKEQ_clean_linker_1, # of connection points: 2
#     Edge 15, Type (0, 1), BuildingBlock: KIFKEQ_clean_linker_1, # of connection points: 2
#     Edge 16, Type (0, 1), BuildingBlock: KIFKEQ_clean_linker_1, # of connection points: 2
#     Edge 17, Type (0, 1), BuildingBlock: KIFKEQ_clean_linker_1, # of connection points: 2
#     Edge 18, Type (0, 1), BuildingBlock: KIFKEQ_clean_linker_1, # of connection points: 2
#     Edge 19, Type (0, 1), BuildingBlock: KIFKEQ_clean_linker_1, # of connection points: 2
#     Edge 20, Type (0, 1), BuildingBlock: KIFKEQ_clean_linker_1, # of connection points: 2
#     Edge 21, Type (0, 1), BuildingBlock: KIFKEQ_clean_linker_1, # of connection points: 2
#     Edge 22, Type (0, 1), BuildingBlock: KIFKEQ_clean_linker_1, # of connection points: 2
#     Edge 23, Type (0, 1), BuildingBlock: KIFKEQ_clean_linker_1, # of connection points: 2
#     Edge 24, Type (0, 1), BuildingBlock: KIFKEQ_clean_linker_1, # of connection points: 2
#     Edge 25, Type (0, 1), BuildingBlock: KIFKEQ_clean_linker_1, # of connection points: 2
#     Edge 26, Type (0, 1), BuildingBlock: KIFKEQ_clean_linker_1, # of connection points: 2
#     Edge 27, Type (0, 1), BuildingBlock: KIFKEQ_clean_linker_1, # of connection points: 2
#     Edge 28, Type (0, 1), BuildingBlock: KIFKEQ_clean_linker_1, # of connection points: 2
#     Edge 29, Type (0, 1), BuildingBlock: KIFKEQ_clean_linker_1, # of connection points: 2
#     Edge 30, Type (0, 1), BuildingBlock: KIFKEQ_clean_linker_1, # of connection points: 2
#     Edge 31, Type (0, 1), BuildingBlock: KIFKEQ_clean_linker_1, # of connection points: 2
#     Edge 32, Type (0, 1), BuildingBlock: KIFKEQ_clean_linker_1, # of connection points: 2
#     Edge 33, Type (0, 1), BuildingBlock: KIFKEQ_clean_linker_1, # of connection points: 2
#     Edge 34, Type (0, 1), BuildingBlock: KIFKEQ_clean_linker_1, # of connection points: 2
#     Edge 35, Type (0, 1), BuildingBlock: KIFKEQ_clean_linker_1, # of connection points: 2
# Relax obj value: 0.067
# Max RMSD: 0.118
# Mean RMSD: 0.083
data_MOF--net-zzz--node1-CUKXOW_clean_sbu_0--node2-BETDAH_clean_linker_0--edge1-KIFKEQ_clean_linker_1
_symmetry_space_group_name_H-M    P1
_symmetry_Int_Tables_number       1
_symmetry_cell_setting            triclinic
loop_
_symmetry_equiv_pos_as_xyz
'x, y, z'
_cell_length_a     51.62574
_cell_length_b     53.467647
_cell_length_c     16.184378
_cell_angle_alpha  93.198411
_cell_angle_beta   86.578686
_cell_angle_gamma 93.795407
loop_
_atom_site_label
_atom_site_type_symbol
_atom_site_fract_x
_atom_site_fract_y
_atom_site_fract_z
_atom_type_partial_charge
H0 H 0.83273 0.52268 0.09552 0.0
H1 H 0.76641 0.4929 0.9654 0.0
H2 H 0.76256 0.49886 0.23248 0.0
C3 C 0.81236 0.5161 0.09644 0.0
C4 C 0.79877 0.5125 0.17255 0.0
C5 C 0.80109 0.50872 0.0217 0.0
C6 C 0.77514 0.49904 0.02293 0.0
C7 C 0.76097 0.49619 0.0994 0.0
C8 C 0.77312 0.50217 0.1738 0.0
N9 N 0.73496 0.48599 0.10357 0.0
C10 C 0.71686 0.49139 0.0482 0.0
H11 H 0.01238 0.83574 0.06456 0.0
H12 H 0.98462 0.77514 0.90091 0.0
H13 H 0.97018 0.77145 0.16507 0.0
C14 C 0.00338 0.81692 0.05558 0.0
C15 C 0.99242 0.80449 0.12422 0.0
C16 C 1.00027 0.80675 0.97502 0.0
C17 C 0.98752 0.78292 0.96318 0.0
C18 C 0.97733 0.76982 0.03234 0.0
C19 C 0.97907 0.78105 0.11229 0.0
N20 N 0.96415 0.74587 0.0231 0.0
C21 C 0.97208 0.72784 0.96376 0.0
H22 H 0.65815 0.96741 0.0524 0.0
H23 H 0.73654 0.97654 0.94954 0.0
H24 H 0.7211 0.97768 0.21479 0.0
C25 C 0.67888 0.96934 0.06116 0.0
C26 C 0.6874 0.97271 0.14153 0.0
C27 C 0.6963 0.97104 -0.00817 0.0
C28 C 0.72309 0.97454 0.00307 0.0
C29 C 0.73215 0.97592 0.08405 0.0
C30 C 0.71417 0.97511 0.15278 0.0
N31 N 0.75898 0.97935 0.09944 0.0
C32 C 0.77896 0.98272 0.0389 0.0
H33 H 0.53789 0.67532 0.10421 0.0
H34 H 0.56693 0.7398 0.97257 0.0
H35 H 0.57483 0.73849 0.23634 0.0
C36 C 0.54673 0.69433 0.10512 0.0
C37 C 0.55514 0.70565 0.17963 0.0
C38 C 0.5511 0.70631 0.03052 0.0
C39 C 0.56323 0.7306 0.03044 0.0
C40 C 0.57144 0.74244 0.10549 0.0
C41 C 0.56797 0.72959 0.1792 0.0
N42 N 0.5841 0.76681 0.10868 0.0
C43 C 0.57914 0.7855 0.05651 0.0
H44 H 0.18805 0.5343 0.2603 0.0
H45 H 0.24904 0.51031 0.40093 0.0
H46 H 0.25118 0.49689 0.1353 0.0
C47 C 0.20688 0.52655 0.26245 0.0
C48 C 0.21881 0.51688 0.18883 0.0
C49 C 0.21742 0.52424 0.33929 0.0
C50 C 0.24096 0.51258 0.34175 0.0
C51 C 0.25341 0.50305 0.26754 0.0
C52 C 0.24197 0.50485 0.19182 0.0
N53 N 0.27691 0.49072 0.26685 0.0
C54 C 0.29384 0.49336 0.3306 0.0
H55 H 0.00725 0.18209 0.3327 0.0
H56 H 0.03946 0.2396 0.49984 0.0
H57 H 0.05466 0.24403 0.23651 0.0
C58 C 0.01758 0.20025 0.34286 0.0
C59 C 0.02964 0.21236 0.275 0.0
C60 C 0.0214 0.20958 0.42402 0.0
C61 C 0.03596 0.23242 0.43727 0.0
C62 C 0.0473 0.24521 0.36915 0.0
C63 C 0.04482 0.23474 0.28849 0.0
N64 N 0.0626 0.26787 0.3809 0.0
C65 C 0.0525 0.28856 0.42352 0.0
H66 H 0.3576 0.04137 0.35748 0.0
H67 H 0.27871 0.03861 0.45729 0.0
H68 H 0.29569 0.04906 0.19658 0.0
C69 C 0.33714 0.04302 0.34836 0.0
C70 C 0.32905 0.04589 0.2688 0.0
C71 C 0.31926 0.0407 0.41628 0.0
C72 C 0.29254 0.04089 0.40483 0.0
C73 C 0.28405 0.04419 0.32501 0.0
C74 C 0.30237 0.04675 0.25776 0.0
N75 N 0.25737 0.04488 0.30919 0.0
C76 C 0.2367 0.0386 0.36472 0.0
H77 H 0.43811 0.3455 0.31039 0.0
H78 H 0.45515 0.27705 0.41723 0.0
H79 H 0.43413 0.27636 0.16299 0.0
C80 C 0.43871 0.3252 0.30574 0.0
C81 C 0.4346 0.31237 0.22972 0.0
C82 C 0.44642 0.31274 0.37314 0.0
C83 C 0.44876 0.28664 0.36561 0.0
C84 C 0.44343 0.2733 0.29002 0.0
C85 C 0.43692 0.2864 0.22218 0.0
N86 N 0.44544 0.247 0.27792 0.0
C87 C 0.44959 0.23077 0.33924 0.0
Tb88 Tb 1.00103 0.99047 0.62658 0.0
C89 C 0.06029 0.01005 0.64885 0.0
Tb90 Tb 0.01501 0.02589 0.77692 0.0
O91 O 0.98667 0.02141 0.561 0.0
O92 O 0.01468 0.028 0.64789 0.0
O93 O 0.04377 0.99309 0.61357 0.0
C94 C 0.01841 0.06795 0.87238 0.0
O95 O 0.05247 0.0271 0.70642 0.0
C96 C 0.01663 0.97784 0.79794 0.0
C97 C 0.95572 0.00621 0.75471 0.0
O98 O 0.03199 0.04862 0.87936 0.0
O99 O 0.00258 0.06325 0.81356 0.0
O100 O 0.02967 0.99494 0.8417 0.0
O101 O 1.00144 0.98837 0.75557 0.0
O102 O 0.97225 0.02308 0.7905 0.0
O103 O 0.96353 0.9893 0.69663 0.0
C104 C 0.9981 0.94837 0.5312 0.0
O105 O 0.98422 0.96749 0.52428 0.0
O106 O 0.0139 0.95329 0.58997 0.0
C107 C 0.99963 0.03852 0.605 0.0
Tb108 Tb 0.50523 0.03401 0.67237 0.0
C109 C 0.54115 0.99635 0.57397 0.0
Tb110 Tb 0.51056 0.98216 0.74452 0.0
O111 O 0.54576 0.04507 0.69366 0.0
O112 O 0.52498 0.01961 0.76935 0.0
O113 O 0.52791 0.01672 0.57036 0.0
C114 C 0.52681 0.94115 0.80856 0.0
O115 O 0.5377 0.9807 0.63534 0.0
C116 C 0.46894 0.9854 0.66123 0.0
C117 C 0.47398 0.01934 0.83738 0.0
O118 O 0.54174 0.95961 0.78074 0.0
O119 O 0.50283 0.94586 0.80077 0.0
O120 O 0.47095 0.96902 0.71611 0.0
O121 O 0.49102 0.99644 0.6477 0.0
O122 O 0.49119 0.00257 0.84889 0.0
O123 O 0.47408 0.03143 0.76813 0.0
C124 C 0.49007 0.0761 0.61389 0.0
O125 O 0.50019 0.07445 0.68474 0.0
O126 O 0.48851 0.05406 0.57597 0.0
C127 C 0.54736 0.02955 0.75168 0.0
Tb128 Tb 0.514 0.52483 0.63888 0.0
C129 C 0.45411 0.50989 0.64994 0.0
Tb130 Tb 0.49088 0.4929 0.78408 0.0
O131 O 0.51062 0.49293 0.54721 0.0
O132 O 0.5131 0.48732 0.67245 0.0
O133 O 0.47242 0.52706 0.626 0.0
C134 C 0.47179 0.45396 0.8689 0.0
O135 O 0.45805 0.49316 0.70486 0.0
C136 C 0.49759 0.54126 0.81624 0.0
C137 C 0.55127 0.50745 0.77291 0.0
O138 O 0.46368 0.47651 0.87901 0.0
O139 O 0.49085 0.45364 0.81319 0.0
O140 O 0.49823 0.5248 0.87237 0.0
O141 O 0.49089 0.53035 0.74933 0.0
O142 O 0.53181 0.49345 0.80765 0.0
O143 O 0.54873 0.5214 0.70847 0.0
C144 C 0.53293 0.56377 0.55289 0.0
O145 O 0.53192 0.56308 0.633 0.0
O146 O 0.52376 0.54238 0.52136 0.0
C147 C 0.5081 0.47649 0.60378 0.0
Tb148 Tb 0.99258 0.51396 0.601 0.0
C149 C 0.00795 0.45885 0.64236 0.0
Tb150 Tb 0.02729 0.5073 0.74629 0.0
O151 O 0.02592 0.53078 0.52799 0.0
O152 O 0.03068 0.5046 0.61618 0.0
O153 O 0.99415 0.47289 0.59793 0.0
C154 C 0.07019 0.50774 0.82952 0.0
O155 O 0.02324 0.46842 0.70093 0.0
C156 C 0.9771 0.5025 0.77927 0.0
C157 C 0.01217 0.56195 0.7042 0.0
O158 O 0.06869 0.50224 0.75097 0.0
O159 O 0.04736 0.51285 0.8621 0.0
O160 O 0.9936 0.49123 0.82001 0.0
O161 O 0.98934 0.51718 0.73088 0.0
O162 O 0.02921 0.54837 0.7375 0.0
O163 O 0.99344 0.5516 0.65825 0.0
C164 C 0.9497 0.51263 0.51736 0.0
O165 O 0.97214 0.52299 0.49276 0.0
O166 O 0.95169 0.50255 0.58741 0.0
C167 C 0.04253 0.51975 0.56869 0.0
H168 H 0.22703 0.04433 0.53112 0.0
H169 H 0.19284 0.01854 0.30268 0.0
H170 H 0.18529 0.03497 0.60772 0.0
H171 H 0.15112 0.0097 0.37767 0.0
H172 H 0.08445 0.97779 0.53668 0.0
H173 H 0.12854 0.98241 0.47471 0.0
H174 H 0.14233 0.05115 0.62322 0.0
H175 H 0.09846 0.04625 0.68675 0.0
C176 C 0.21054 0.03652 0.49771 0.0
C177 C 0.21286 0.03201 0.4116 0.0
C178 C 0.18666 0.0313 0.54117 0.0
C179 C 0.16482 0.02153 0.49889 0.0
C180 C 0.16757 0.01676 0.41251 0.0
C181 C 0.19137 0.02196 0.36941 0.0
C182 C 0.09693 0.99379 0.55671 0.0
C183 C 0.08778 0.01177 0.61615 0.0
C184 C 0.1222 0.9965 0.52087 0.0
C185 C 0.13893 0.01729 0.5433 0.0
C186 C 0.13009 0.03479 0.60497 0.0
C187 C 0.10482 0.03204 0.64107 0.0
H188 H 0.49088 0.22539 0.43041 0.0
H189 H 0.41685 0.19057 0.36336 0.0
H190 H 0.49939 0.18814 0.50404 0.0
H191 H 0.42498 0.15345 0.43744 0.0
H192 H 0.4661 0.08094 0.47107 0.0
H193 H 0.45478 0.11962 0.41264 0.0
H194 H 0.48512 0.16262 0.62351 0.0
H195 H 0.49668 0.1238 0.68148 0.0
C196 C 0.47625 0.20991 0.43312 0.0
C197 C 0.45322 0.21063 0.39206 0.0
C198 C 0.48105 0.18864 0.47518 0.0
C199 C 0.46292 0.16775 0.47605 0.0
C200 C 0.43947 0.16905 0.43695 0.0
C201 C 0.43469 0.19032 0.39525 0.0
C202 C 0.47024 0.09866 0.505 0.0
C203 C 0.48233 0.09944 0.58054 0.0
C204 C 0.46361 0.1208 0.47189 0.0
C205 C 0.46902 0.14421 0.51352 0.0
C206 C 0.48091 0.14491 0.58962 0.0
C207 C 0.48741 0.12271 0.62296 0.0
H208 H 0.3193 0.4565 0.38902 0.0
H209 H 0.31306 0.53663 0.40258 0.0
H210 H 0.35666 0.46156 0.47595 0.0
H211 H 0.3502 0.54193 0.49095 0.0
H212 H 0.43795 0.5407 0.53636 0.0
H213 H 0.39689 0.53729 0.46886 0.0
H214 H 0.37083 0.47409 0.61414 0.0
H215 H 0.41209 0.47713 0.68068 0.0
C216 C 0.32572 0.47514 0.41229 0.0
C217 C 0.31357 0.4962 0.38998 0.0
C218 C 0.34699 0.47808 0.46216 0.0
C219 C 0.35646 0.50217 0.49011 0.0
C220 C 0.34357 0.52317 0.46956 0.0
C221 C 0.32227 0.52018 0.41971 0.0
C222 C 0.42341 0.5262 0.55451 0.0
C223 C 0.42841 0.50912 0.61366 0.0
C224 C 0.39978 0.52435 0.51617 0.0
C225 C 0.38061 0.50539 0.53604 0.0
C226 C 0.38533 0.48872 0.59677 0.0
C227 C 0.40896 0.49057 0.63517 0.0
H228 H 0.03812 0.29895 0.58453 0.0
H229 H 0.04369 0.32888 0.34182 0.0
H230 H 0.02206 0.33863 0.64438 0.0
H231 H 0.02824 0.3686 0.40071 0.0
H232 H 0.98442 0.43201 0.51492 0.0
H233 H 0.991 0.38874 0.46679 0.0
H234 H 0.04057 0.38123 0.66867 0.0
H235 H 0.03359 0.42411 0.71792 0.0
C236 C 0.03575 0.31408 0.54429 0.0
C237 C 0.0421 0.31125 0.45915 0.0
C238 C 0.02666 0.33673 0.57825 0.0
C239 C 0.02382 0.35676 0.52726 0.0
C240 C 0.02975 0.35345 0.44153 0.0
C241 C 0.03881 0.33086 0.40785 0.0
C242 C 0.99636 0.42102 0.54988 0.0
C243 C 0.00877 0.43169 0.61961 0.0
C244 C 1.00025 0.39625 0.522 0.0
C245 C 0.01658 0.38166 0.56328 0.0
C246 C 0.02774 0.39188 0.63571 0.0
C247 C 0.02387 0.41659 0.66358 0.0
H248 H 0.80828 0.94722 0.96499 0.0
H249 H 0.80122 0.02714 -0.00669 0.0
H250 H 0.85011 0.95402 0.88758 0.0
H251 H 0.84285 0.03421 0.91449 0.0
H252 H 0.93257 0.03499 0.87991 0.0
H253 H 0.8882 0.02995 0.93919 0.0
H254 H 0.87178 0.96875 0.76047 0.0
H255 H 0.91633 0.97341 0.70207 0.0
C256 C 0.81554 0.96622 0.9529 0.0
C257 C 0.80177 0.98668 0.98432 0.0
C258 C 0.83941 0.97017 0.90847 0.0
C259 C 0.84992 0.99469 0.89508 0.0
C260 C 0.8355 0.01512 0.92462 0.0
C261 C 0.81162 0.01112 0.96902 0.0
C262 C 0.91949 0.02056 0.85277 0.0
C263 C 0.92815 0.00447 0.78662 0.0
C264 C 0.89394 0.01778 0.88646 0.0
C265 C 0.87642 0.99887 0.8548 0.0
C266 C 0.88488 0.98326 0.78712 0.0
C267 C 0.91042 0.98603 0.75341 0.0
H268 H 0.54297 0.78761 0.94369 0.0
H269 H 0.60278 0.8316 0.07103 0.0
H270 H 0.53137 0.82515 0.87743 0.0
H271 H 0.59103 0.86931 0.00683 0.0
H272 H 0.57665 0.92883 0.82552 0.0
H273 H 0.59081 0.89021 0.87804 0.0
H274 H 0.51052 0.86329 0.91933 0.0
H275 H 0.49655 0.90155 0.86521 0.0
C276 C 0.55373 0.80535 0.95667 0.0
C277 C 0.57375 0.80695 0.0117 0.0
C278 C 0.54701 0.82686 0.91948 0.0
C279 C 0.56017 0.85032 0.93715 0.0
C280 C 0.5807 0.85156 0.99098 0.0
C281 C 0.58738 0.83005 0.02799 0.0
C282 C 0.56211 0.91458 0.84572 0.0
C283 C 0.53553 0.91811 0.84135 0.0
C284 C 0.57018 0.89251 0.87607 0.0
C285 C 0.55181 0.87355 0.90261 0.0
C286 C 0.52521 0.87725 0.89807 0.0
C287 C 0.51718 0.89926 0.86775 0.0
H288 H 0.67626 0.51642 0.10751 0.0
H289 H 0.70935 0.47962 0.8858 0.0
H290 H 0.63715 0.52318 0.03579 0.0
H291 H 0.66998 0.48624 0.81322 0.0
H292 H 0.59949 0.52195 0.70292 0.0
H293 H 0.64164 0.52075 0.76502 0.0
H294 H 0.60267 0.49137 0.98586 0.0
H295 H 0.56102 0.49249 0.92489 0.0
C296 C 0.67518 0.5101 0.04291 0.0
C297 C 0.69544 0.49745 0.00178 0.0
C298 C 0.65286 0.51387 0.00202 0.0
C299 C 0.65048 0.50504 0.91922 0.0
C300 C 0.6714 0.49336 0.87689 0.0
C301 C 0.69377 0.48947 0.91822 0.0
C302 C 0.6 0.51532 0.76479 0.0
C303 C 0.57693 0.50724 0.80884 0.0
C304 C 0.62408 0.51454 0.80004 0.0
C305 C 0.62535 0.50612 0.88036 0.0
C306 C 0.60226 0.49825 0.92427 0.0
C307 C 0.57838 0.49872 0.88891 0.0
H308 H 0.02115 0.71422 0.93615 0.0
H309 H 0.94199 0.69523 0.87388 0.0
H310 H 0.03504 0.67614 0.85909 0.0
H311 H 0.95545 0.65699 0.79831 0.0
H312 H 0.9866 0.59671 0.62968 0.0
H313 H 0.98005 0.63975 0.67925 0.0
H314 H 0.02935 0.63142 0.88127 0.0
H315 H 0.03642 0.58848 0.83051 0.0
C316 C 0.00687 0.70199 0.90465 0.0
C317 C 0.98063 0.70738 0.90999 0.0
C318 C 0.01472 0.68018 0.86119 0.0
C319 C 0.99635 0.66349 0.82273 0.0
C320 C 0.97017 0.6696 0.82603 0.0
C321 C 0.96239 0.69138 0.86947 0.0
C322 C 0.99638 0.60417 0.68398 0.0
C323 C 0.01173 0.58907 0.72692 0.0
C324 C 0.99253 0.62881 0.71252 0.0
C325 C 0.00383 0.63888 0.78491 0.0
C326 C 0.02049 0.62429 0.82497 0.0
C327 C 0.02447 0.59963 0.79607 0.0
H328 H 0.97338 0.18993 0.47477 0.0
H329 H 0.05491 0.18863 0.51659 0.0
H330 H 0.96491 0.15019 0.54181 0.0
H331 H 0.04712 0.14842 0.57851 0.0
H332 H 0.03071 0.07447 0.68188 0.0
H333 H 0.03145 0.1196 0.67145 0.0
H334 H 0.97176 0.10933 0.49359 0.0
H335 H 0.96938 0.06427 0.51111 0.0
C336 C 0.9893 0.18155 0.50139 0.0
C337 C 0.01476 0.19224 0.4909 0.0
C338 C 0.9846 0.15852 0.53819 0.0
C339 C 0.0054 0.14551 0.56328 0.0
C340 C 0.03048 0.1577 0.56054 0.0
C341 C 0.03505 0.18093 0.52529 0.0
C342 C 0.01718 0.08196 0.64257 0.0
C343 C 0.99972 0.06591 0.59816 0.0
C344 C 0.01785 0.10789 0.63559 0.0
C345 C 0.00177 0.11839 0.58136 0.0
C346 C 0.98407 0.10219 0.5375 0.0
C347 C 0.98293 0.07626 0.54639 0.0
H348 H 0.34812 0.07353 0.51107 0.0
H349 H 0.31692 0.99676 0.49284 0.0
H350 H 0.38338 0.06107 0.59086 0.0
H351 H 0.35203 0.98423 0.57361 0.0
H352 H 0.42146 0.97406 0.73642 0.0
H353 H 0.37974 0.98987 0.70673 0.0
H354 H 0.41819 0.0331 0.51236 0.0
H355 H 0.45962 0.01629 0.53947 0.0
C356 C 0.3479 0.05427 0.52882 0.0
C357 C 0.32996 0.03605 0.4959 0.0
C358 C 0.36828 0.04708 0.57322 0.0
C359 C 0.3707 0.02164 0.58629 0.0
C360 C 0.3506 0.00397 0.56403 0.0
C361 C 0.33031 0.01115 0.51874 0.0
C362 C 0.42095 0.98689 0.68716 0.0
C363 C 0.44383 0.99443 0.641 0.0
C364 C 0.39714 0.99604 0.6708 0.0
C365 C 0.3959 0.0131 0.6087 0.0
C366 C 0.41878 0.02052 0.56236 0.0
C367 C 0.44248 0.01104 0.57785 0.0
H368 H 0.41773 0.34308 0.47618 0.0
H369 H 0.49563 0.31984 0.42394 0.0
H370 H 0.4347 0.38101 0.5495 0.0
H371 H 0.51293 0.3577 0.49914 0.0
H372 H 0.52928 0.44465 0.48611 0.0
H373 H 0.51583 0.40057 0.4551 0.0
H374 H 0.45707 0.40387 0.65654 0.0
H375 H 0.46946 0.44809 0.68273 0.0
C376 C 0.43844 0.34551 0.4845 0.0
C377 C 0.45539 0.32861 0.44474 0.0
C378 C 0.44826 0.36734 0.52611 0.0
C379 C 0.47527 0.3727 0.52867 0.0
C380 C 0.49206 0.35437 0.49672 0.0
C381 C 0.48217 0.33246 0.4551 0.0
C382 C 0.51372 0.43576 0.52415 0.0
C383 C 0.50101 0.44952 0.5888 0.0
C384 C 0.5062 0.41044 0.50723 0.0
C385 C 0.4856 0.39847 0.55423 0.0
C386 C 0.47311 0.41235 0.61945 0.0
C387 C 0.48057 0.43765 0.63581 0.0
H388 H 0.205 0.49617 0.47441 0.0
H389 H 0.19204 0.56694 0.37361 0.0
H390 H 0.1655 0.49916 0.56315 0.0
H391 H 0.1514 0.56877 0.45355 0.0
H392 H 0.07141 0.56407 0.56133 0.0
H393 H 0.11864 0.5702 0.54729 0.0
H394 H 0.12397 0.48944 0.53823 0.0
H395 H 0.07724 0.48411 0.56114 0.0
C396 C 0.1941 0.51275 0.47301 0.0
C397 C 0.20103 0.53086 0.41484 0.0
C398 C 0.17095 0.5142 0.5223 0.0
C399 C 0.15397 0.53333 0.51214 0.0
C400 C 0.16322 0.55337 0.46319 0.0
C401 C 0.18673 0.55234 0.41645 0.0
C402 C 0.08297 0.54781 0.55689 0.0
C403 C 0.07094 0.52364 0.5603 0.0
C404 C 0.1101 0.55119 0.54855 0.0
C405 C 0.1257 0.53036 0.53963 0.0
C406 C 0.11324 0.50618 0.5461 0.0
C407 C 0.08625 0.50294 0.55769 0.0
H408 H 0.04745 0.82693 0.91917 0.0
H409 H 0.9653 0.82665 0.88536 0.0
H410 H 0.05441 0.86676 0.85189 0.0
H411 H 0.97159 0.86697 0.82331 0.0
H412 H 0.98552 0.94165 0.72197 0.0
H413 H 0.9858 0.89645 0.73034 0.0
H414 H 0.04692 0.90721 0.90313 0.0
H415 H 0.04815 0.95231 0.88785 0.0
C416 C 0.03106 0.83497 0.89408 0.0
C417 C 0.00588 0.82383 0.90696 0.0
C418 C 0.03489 0.85805 0.85721 0.0
C419 C 0.01349 0.87067 0.83461 0.0
C420 C 0.98865 0.85801 0.83943 0.0
C421 C 0.98495 0.83471 0.8747 0.0
C422 C 0.99953 0.93425 0.75979 0.0
C423 C 0.01705 0.95044 0.80347 0.0
C424 C 0.99948 0.90829 0.7655 0.0
C425 C 0.01632 0.8979 0.81761 0.0
C426 C 0.03405 0.91426 0.86074 0.0
C427 C 0.03453 0.94022 0.85319 0.0
H428 H 0.66376 0.93753 0.9102 0.0
H429 H 0.70081 0.01206 0.89989 0.0
H430 H 0.62825 0.95031 0.83217 0.0
H431 H 0.66549 0.02482 0.82096 0.0
H432 H 0.59447 0.03668 0.66902 0.0
H433 H 0.6353 0.01882 0.69717 0.0
H434 H 0.59663 0.98164 0.90476 0.0
H435 H 0.55601 1.0001 0.87808 0.0
C436 C 0.66511 0.95618 0.88667 0.0
C437 C 0.68479 0.97392 0.91181 0.0
C438 C 0.64459 0.96361 0.8433 0.0
C439 C 0.64381 0.98873 0.82302 0.0
C440 C 0.66556 0.00537 0.83644 0.0
C441 C 0.68599 0.99799 0.88068 0.0
C442 C 0.59476 0.02479 0.72097 0.0
C443 C 0.57207 0.01955 0.77124 0.0
C444 C 0.61806 0.01445 0.73649 0.0
C445 C 0.61898 0.99849 0.80197 0.0
C446 C 0.5963 0.99341 0.85249 0.0
C447 C 0.57313 0.00407 0.83775 0.0
H448 H 0.50391 0.69537 0.96737 0.0
H449 H 0.58499 0.68078 0.93088 0.0
H450 H 0.4922 0.65609 0.88959 0.0
H451 H 0.57335 0.64126 0.85448 0.0
H452 H 0.53237 0.56166 0.92348 0.0
H453 H 0.54758 0.60572 0.94255 0.0
H454 H 0.49874 0.62505 0.75138 0.0
H455 H 0.48388 0.58055 0.73084 0.0
C456 C 0.51926 0.6845 0.93821 0.0
C457 C 0.54533 0.69111 0.95425 0.0
C458 C 0.51257 0.66192 0.89438 0.0
C459 C 0.53188 0.64553 0.86738 0.0
C460 C 0.55813 0.65356 0.87511 0.0
C461 C 0.56481 0.6763 0.9178 0.0
C462 C 0.52502 0.57529 0.88519 0.0
C463 C 0.50688 0.56785 0.82616 0.0
C464 C 0.53394 0.60042 0.89532 0.0
C465 C 0.52452 0.6187 0.84772 0.0
C466 C 0.5064 0.61127 0.78832 0.0
C467 C 0.49788 0.58594 0.77692 0.0
H468 H 0.82864 0.54749 0.95015 0.0
H469 H 0.81481 0.46705 0.93099 0.0
H470 H 0.86985 0.54411 0.87071 0.0
H471 H 0.85604 0.46344 0.84983 0.0
H472 H 0.94665 0.46934 0.87109 0.0
H473 H 0.89968 0.46945 0.90175 0.0
H474 H 0.8965 0.53292 0.74936 0.0
H475 H 0.94339 0.53346 0.72222 0.0
C476 C 0.83384 0.52919 0.92484 0.0
C477 C 0.81867 0.50755 0.94651 0.0
C478 C 0.85755 0.52716 0.8797 0.0
C479 C 0.86653 0.50342 0.85557 0.0
C480 C 0.84988 0.48195 0.86909 0.0
C481 C 0.82606 0.48402 0.91414 0.0
C482 C 0.9358 0.48316 0.84391 0.0
C483 C 0.94861 0.50135 0.79442 0.0
C484 C 0.90887 0.48305 0.86041 0.0
C485 C 0.89428 0.50116 0.82763 0.0
C486 C 0.90713 0.51884 0.77601 0.0
C487 C 0.934 0.51906 0.76018 0.0
H488 H 0.07093 0.19895 0.17422 0.0
H489 H 0.98706 0.19473 0.19416 0.0
H490 H 0.06997 0.16671 0.06081 0.0
H491 H 0.98597 0.16243 0.08169 0.0
H492 H 0.99213 0.1095 0.85575 0.0
H493 H 0.99674 0.14975 0.93448 0.0
H494 H 0.05661 0.12117 0.07211 0.0
H495 H 0.05211 0.08103 -0.00717 0.0
C496 C 0.05233 0.1918 0.15207 0.0
C497 C 0.02905 0.19914 0.19268 0.0
C498 C 0.05176 0.17317 0.08806 0.0
C499 C 0.02791 0.16181 0.06349 0.0
C500 C 0.00464 0.1709 0.09906 0.0
C501 C 0.00522 0.18935 0.16337 0.0
C502 C 0.00631 0.11191 0.90274 0.0
C503 C 0.02155 0.09217 0.91926 0.0
C504 C 0.009 0.13492 0.94745 0.0
C505 C 0.02709 0.13862 0.0091 0.0
C506 C 0.0428 0.11901 0.02399 0.0
C507 C 0.04003 0.09596 0.97945 0.0
H508 H 0.37764 0.0697 0.26232 0.0
H509 H 0.32535 0.02153 0.11599 0.0
H510 H 0.41286 0.06298 0.15774 0.0
H511 H 0.36048 0.01574 0.00979 0.0
H512 H 0.42664 0.03506 0.80975 0.0
H513 H 0.39084 0.04311 0.91044 0.0
H514 H 0.4368 0.02212 0.10675 0.0
H515 H 0.47285 0.01359 0.0052 0.0
C516 C 0.37358 0.05789 0.20744 0.0
C517 C 0.34875 0.04585 0.19804 0.0
C518 C 0.39376 0.05404 0.14786 0.0
C519 C 0.38941 0.03852 0.07675 0.0
C520 C 0.36427 0.02774 0.06446 0.0
C521 C 0.34413 0.03126 0.12482 0.0
C522 C 0.42921 0.0322 0.87443 0.0
C523 C 0.45263 0.02386 0.89992 0.0
C524 C 0.40863 0.03668 0.9318 0.0
C525 C 0.41117 0.03334 0.01606 0.0
C526 C 0.43454 0.02502 0.04193 0.0
C527 C 0.45505 0.02003 0.98407 0.0
H528 H 0.39839 0.34585 0.20705 0.0
H529 H 0.46675 0.3135 0.09184 0.0
H530 H 0.40198 0.37836 0.10603 0.0
H531 H 0.47143 0.34648 -0.00601 0.0
H532 H 0.47525 0.4056 0.81396 0.0
H533 H 0.45942 0.36808 0.88433 0.0
H534 H 0.42893 0.41468 0.0901 0.0
H535 H 0.44333 0.45211 0.01622 0.0
C536 C 0.41377 0.34539 0.15852 0.0
C537 C 0.43227 0.32725 0.15676 0.0
C538 C 0.41611 0.36419 0.10146 0.0
C539 C 0.43733 0.3655 0.04272 0.0
C540 C 0.45465 0.3461 0.03741 0.0
C541 C 0.45201 0.32707 0.09351 0.0
C542 C 0.46485 0.40771 0.87386 0.0
C543 C 0.46072 0.43163 0.91043 0.0
C544 C 0.45587 0.38622 0.91445 0.0
C545 C 0.44314 0.38817 -0.00636 0.0
C546 C 0.43827 0.41228 0.02876 0.0
C547 C 0.44674 0.4338 0.98703 0.0
H548 H 0.20678 0.47756 0.07986 0.0
H549 H 0.19831 0.55696 0.12718 0.0
H550 H 0.17287 0.47605 0.9797 0.0
H551 H 0.1642 0.55533 0.02851 0.0
H552 H 0.07801 0.52751 0.98497 0.0
H553 H 0.11879 0.53123 0.05538 0.0
H554 H 0.1578 0.49492 0.84244 0.0
H555 H 0.11699 0.49157 0.77116 0.0
C556 C 0.1984 0.49483 0.06644 0.0
C557 C 0.20485 0.51731 0.11182 0.0
C558 C 0.17892 0.49394 0.00964 0.0
C559 C 0.16565 0.51548 -0.00184 0.0
C560 C 0.17388 0.5384 0.03758 0.0
C561 C 0.19344 0.53934 0.09353 0.0
C562 C 0.09529 0.52035 0.95332 0.0
C563 C 0.09445 0.50923 0.87302 0.0
C564 C 0.11861 0.52265 -0.00685 0.0
C565 C 0.14139 0.51357 0.95374 0.0
C566 C 0.14048 0.5021 0.87381 0.0
C567 C 0.1172 0.50017 0.83336 0.0
H568 H 0.0343 0.82435 0.20406 0.0
H569 H 0.95049 0.81638 0.22449 0.0
H570 H 0.03399 0.8565 0.31706 0.0
H571 H 0.95005 0.84857 0.33824 0.0
H572 H 0.96469 0.93471 0.41021 0.0
H573 H 0.96166 0.8948 0.32884 0.0
H574 H 0.0225 0.86765 0.46566 0.0
H575 H 0.02562 0.9076 0.54653 0.0
C576 C 0.01588 0.82891 0.23499 0.0
C577 C 0.99244 0.81804 0.20598 0.0
C578 C 0.01566 0.84727 0.29957 0.0
C579 C 0.99197 0.85523 0.33558 0.0
C580 C 0.96856 0.84295 0.31076 0.0
C581 C 0.96881 0.82437 0.24657 0.0
C582 C 0.97727 0.92013 0.42301 0.0
C583 C 0.99561 0.92424 0.48356 0.0
C584 C 0.97536 0.89722 0.37725 0.0
C585 C 0.9918 0.87812 0.39125 0.0
C586 C 0.0097 0.8821 0.45337 0.0
C587 C 0.01153 0.90494 0.49932 0.0
H588 H 0.68357 0.95267 0.29572 0.0
H589 H 0.64707 0.00253 0.14374 0.0
H590 H 0.64888 0.95845 0.40459 0.0
H591 H 0.61213 0.00702 0.24822 0.0
H592 H 0.56552 0.03089 0.47472 0.0
H593 H 0.60291 0.02589 0.37912 0.0
H594 H 0.60299 0.9477 0.43439 0.0
H595 H 0.56598 0.95311 0.53392 0.0
C596 C 0.66821 0.96484 0.28575 0.0
C597 C 0.66781 0.97685 0.21091 0.0
C598 C 0.64822 0.96793 0.34743 0.0
C599 C 0.62765 0.98316 0.33511 0.0
C600 C 0.62776 0.99546 0.26071 0.0
C601 C 0.64766 0.99258 0.20007 0.0
C602 C 0.57326 0.01253 0.46595 0.0
C603 C 0.56247 0.99227 0.51075 0.0
C604 C 0.5948 0.00965 0.41109 0.0
C605 C 0.60585 0.98631 0.39827 0.0
C606 C 0.59514 0.966 0.44339 0.0
C607 C 0.57374 0.96901 0.49956 0.0
H608 H 0.51072 0.68136 0.23889 0.0
H609 H 0.59166 0.69645 0.28858 0.0
H610 H 0.507 0.64865 0.3389 0.0
H611 H 0.58772 0.66377 0.39049 0.0
H612 H 0.55201 0.61008 0.61072 0.0
H613 H 0.55811 0.64853 0.53301 0.0
H614 H 0.53332 0.6066 0.31295 0.0
H615 H 0.52772 0.56839 0.38927 0.0
C616 C 0.52752 0.67811 0.27295 0.0
C617 C 0.55157 0.69113 0.25524 0.0
C618 C 0.5254 0.6594 0.3299 0.0
C619 C 0.54719 0.65352 0.37099 0.0
C620 C 0.57068 0.66804 0.35929 0.0
C621 C 0.57288 0.68675 0.30145 0.0
C622 C 0.54829 0.60911 0.5454 0.0
C623 C 0.53938 0.58634 0.50578 0.0
C624 C 0.55174 0.63103 0.50126 0.0
C625 C 0.54584 0.63044 0.4176 0.0
C626 C 0.53767 0.60752 0.37778 0.0
C627 C 0.53462 0.58567 0.42128 0.0
H628 H 0.805 0.47852 0.28724 0.0
H629 H 0.82633 0.55485 0.2251 0.0
H630 H 0.83969 0.48052 0.38391 0.0
H631 H 0.86073 0.55716 0.32293 0.0
H632 H 0.94263 0.53376 0.37219 0.0
H633 H 0.90175 0.53675 0.30637 0.0
H634 H 0.8604 0.49862 0.50793 0.0
H635 H 0.9015 0.49527 0.57295 0.0
C636 C 0.81639 0.49607 0.29715 0.0
C637 C 0.81326 0.51646 0.24852 0.0
C638 C 0.83634 0.49721 0.35218 0.0
C639 C 0.85333 0.5188 0.35939 0.0
C640 C 0.84836 0.54006 0.31701 0.0
C641 C 0.82853 0.53886 0.26183 0.0
C642 C 0.92479 0.52604 0.40224 0.0
C643 C 0.92516 0.5141 0.47697 0.0
C644 C 0.90134 0.528 0.36524 0.0
C645 C 0.8778 0.51813 0.40246 0.0
C646 C 0.87822 0.5063 0.47766 0.0
C647 C 0.90171 0.50434 0.51467 0.0
loop_
_geom_bond_atom_site_label_1
_geom_bond_atom_site_label_2
_geom_bond_distance
_geom_bond_site_symmetry_2
_ccdc_geom_bond_type
H0 C3 0.929 . S
H1 C6 0.929 1_556 S
H2 C8 0.930 . S
C3 H0 0.929 . S
C3 C4 1.398 . S
C3 C5 1.396 . S
C4 C3 1.398 . S
C4 C8 1.407 . S
C5 C3 1.396 . S
C5 C6 1.394 . S
C6 H1 0.929 1_554 S
C6 C5 1.394 . S
C6 C7 1.382 . S
C7 C6 1.382 . S
C7 C8 1.392 . S
C7 N9 1.420 . S
C8 H2 0.930 . S
C8 C4 1.407 . S
C8 C7 1.392 . S
N9 C7 1.420 . S
N9 C10 1.244 . S
C10 N9 1.244 . S
H11 C14 0.929 . S
H12 C17 0.929 . S
H13 C19 0.930 . S
C14 H11 0.929 . S
C14 C15 1.398 . S
C14 C16 1.396 1_554 S
C15 C14 1.398 . S
C15 C19 1.407 . S
C16 C14 1.396 1_556 S
C16 C17 1.394 . S
C17 H12 0.929 . S
C17 C16 1.394 . S
C17 C18 1.382 1_556 S
C18 C17 1.382 1_554 S
C18 C19 1.392 . S
C18 N20 1.420 . S
C19 H13 0.930 . S
C19 C15 1.407 . S
C19 C18 1.392 . S
N20 C18 1.420 . S
N20 C21 1.244 1_554 S
C21 N20 1.244 1_556 S
H22 C25 0.929 . S
H23 C28 0.929 1_556 S
H24 C30 0.930 . S
C25 H22 0.929 . S
C25 C26 1.398 . S
C25 C27 1.396 . S
C26 C25 1.398 . S
C26 C30 1.407 . S
C27 C25 1.396 . S
C27 C28 1.394 . S
C28 H23 0.929 1_554 S
C28 C27 1.394 . S
C28 C29 1.382 . S
C29 C28 1.382 . S
C29 C30 1.392 . S
C29 N31 1.420 . S
C30 H24 0.930 . S
C30 C26 1.407 . S
C30 C29 1.392 . S
N31 C29 1.420 . S
N31 C32 1.244 . S
C32 N31 1.244 . S
H33 C36 0.929 . S
H34 C39 0.929 1_556 S
H35 C41 0.930 . S
C36 H33 0.929 . S
C36 C37 1.398 . S
C36 C38 1.396 . S
C37 C36 1.398 . S
C37 C41 1.407 . S
C38 C36 1.396 . S
C38 C39 1.394 . S
C39 H34 0.929 1_554 S
C39 C38 1.394 . S
C39 C40 1.382 . S
C40 C39 1.382 . S
C40 C41 1.392 . S
C40 N42 1.420 . S
C41 H35 0.930 . S
C41 C37 1.407 . S
C41 C40 1.392 . S
N42 C40 1.420 . S
N42 C43 1.244 . S
C43 N42 1.244 . S
H44 C47 0.929 . S
H45 C50 0.929 . S
H46 C52 0.930 . S
C47 H44 0.929 . S
C47 C48 1.398 . S
C47 C49 1.396 . S
C48 C47 1.398 . S
C48 C52 1.407 . S
C49 C47 1.396 . S
C49 C50 1.394 . S
C50 H45 0.929 . S
C50 C49 1.394 . S
C50 C51 1.382 . S
C51 C50 1.382 . S
C51 C52 1.392 . S
C51 N53 1.420 . S
C52 H46 0.930 . S
C52 C48 1.407 . S
C52 C51 1.392 . S
N53 C51 1.420 . S
N53 C54 1.244 . S
C54 N53 1.244 . S
H55 C58 0.929 . S
H56 C61 0.929 . S
H57 C63 0.930 . S
C58 H55 0.929 . S
C58 C59 1.398 . S
C58 C60 1.396 . S
C59 C58 1.398 . S
C59 C63 1.407 . S
C60 C58 1.396 . S
C60 C61 1.394 . S
C61 H56 0.929 . S
C61 C60 1.394 . S
C61 C62 1.382 . S
C62 C61 1.382 . S
C62 C63 1.392 . S
C62 N64 1.420 . S
C63 H57 0.930 . S
C63 C59 1.407 . S
C63 C62 1.392 . S
N64 C62 1.420 . S
N64 C65 1.244 . S
C65 N64 1.244 . S
H66 C69 0.929 . S
H67 C72 0.929 . S
H68 C74 0.930 . S
C69 H66 0.929 . S
C69 C70 1.398 . S
C69 C71 1.396 . S
C70 C69 1.398 . S
C70 C74 1.407 . S
C71 C69 1.396 . S
C71 C72 1.394 . S
C72 H67 0.929 . S
C72 C71 1.394 . S
C72 C73 1.382 . S
C73 C72 1.382 . S
C73 C74 1.392 . S
C73 N75 1.420 . S
C74 H68 0.930 . S
C74 C70 1.407 . S
C74 C73 1.392 . S
N75 C73 1.420 . S
N75 C76 1.244 . S
C76 N75 1.244 . S
H77 C80 0.929 . S
H78 C83 0.929 . S
H79 C85 0.930 . S
C80 H77 0.929 . S
C80 C81 1.398 . S
C80 C82 1.396 . S
C81 C80 1.398 . S
C81 C85 1.407 . S
C82 C80 1.396 . S
C82 C83 1.394 . S
C83 H78 0.929 . S
C83 C82 1.394 . S
C83 C84 1.382 . S
C84 C83 1.382 . S
C84 C85 1.392 . S
C84 N86 1.420 . S
C85 H79 0.930 . S
C85 C81 1.407 . S
C85 C84 1.392 . S
N86 C84 1.420 . S
N86 C87 1.244 . S
C87 N86 1.244 . S
Tb88 O91 2.453 1_565 S
Tb88 O92 2.596 1_665 S
Tb88 O93 2.374 1_665 S
Tb88 O101 2.343 1_655 S
Tb88 O103 2.353 1_565 S
Tb88 O105 2.427 . S
Tb88 O106 2.513 1_655 S
C89 O93 1.251 . S
C89 O95 1.263 . S
Tb90 O92 2.343 . S
Tb90 O95 2.353 . S
Tb90 O98 2.427 . S
Tb90 O99 2.524 . S
Tb90 O100 2.453 1_545 S
Tb90 O101 2.596 1_545 S
Tb90 O102 2.374 1_455 S
O91 Tb88 2.453 1_545 S
O91 C107 1.245 1_655 S
O92 Tb88 2.596 1_445 S
O92 Tb90 2.343 . S
O92 C107 1.259 . S
O93 Tb88 2.374 1_445 S
O93 C89 1.251 . S
C94 O98 1.275 . S
C94 O99 1.275 . S
O95 C89 1.263 . S
O95 Tb90 2.353 . S
C96 O100 1.245 . S
C96 O101 1.259 . S
C97 O102 1.250 . S
C97 O103 1.263 . S
O98 Tb90 2.427 . S
O98 C94 1.275 . S
O99 Tb90 2.524 . S
O99 C94 1.275 . S
O100 Tb90 2.453 1_565 S
O100 C96 1.245 . S
O101 Tb88 2.343 1_455 S
O101 Tb90 2.596 1_565 S
O101 C96 1.259 . S
O102 Tb90 2.374 1_655 S
O102 C97 1.250 . S
O103 Tb88 2.353 1_545 S
O103 C97 1.263 . S
C104 O105 1.275 . S
C104 O106 1.246 1_655 S
O105 Tb88 2.427 . S
O105 C104 1.275 . S
O106 Tb88 2.513 1_455 S
O106 C104 1.246 1_455 S
C107 O91 1.245 1_455 S
C107 O92 1.259 . S
Tb108 O111 2.453 . S
Tb108 O112 2.596 1_545 S
Tb108 O113 2.374 . S
Tb108 O121 2.343 . S
Tb108 O123 2.353 . S
Tb108 O125 2.427 . S
Tb108 O126 2.513 . S
C109 O113 1.233 1_565 S
C109 O115 1.277 . S
Tb110 O112 2.343 . S
Tb110 O115 2.353 . S
Tb110 O118 2.427 . S
Tb110 O119 2.513 . S
Tb110 O120 2.453 . S
Tb110 O121 2.596 1_565 S
Tb110 O122 2.374 . S
O111 Tb108 2.453 . S
O111 C127 1.245 . S
O112 Tb108 2.596 1_565 S
O112 Tb110 2.343 . S
O112 C127 1.259 1_565 S
O113 Tb108 2.374 . S
O113 C109 1.233 1_545 S
C114 O118 1.275 . S
C114 O119 1.246 . S
O115 C109 1.277 . S
O115 Tb110 2.353 . S
C116 O120 1.245 1_545 S
C116 O121 1.259 . S
C117 O122 1.250 1_545 S
C117 O123 1.263 . S
O118 Tb110 2.427 . S
O118 C114 1.275 . S
O119 Tb110 2.513 . S
O119 C114 1.246 . S
O120 Tb110 2.453 . S
O120 C116 1.245 1_565 S
O121 Tb108 2.343 . S
O121 Tb110 2.596 1_545 S
O121 C116 1.259 . S
O122 Tb110 2.374 . S
O122 C117 1.250 1_565 S
O123 Tb108 2.353 . S
O123 C117 1.263 . S
C124 O125 1.275 . S
C124 O126 1.246 . S
O125 Tb108 2.427 . S
O125 C124 1.275 . S
O126 Tb108 2.513 . S
O126 C124 1.246 . S
C127 O111 1.245 . S
C127 O112 1.259 1_545 S
Tb128 O131 2.453 . S
Tb128 O132 2.596 . S
Tb128 O133 2.374 . S
Tb128 O141 2.343 . S
Tb128 O143 2.353 . S
Tb128 O145 2.427 . S
Tb128 O146 2.513 . S
C129 O133 1.251 . S
C129 O135 1.263 . S
Tb130 O132 2.343 . S
Tb130 O135 2.353 . S
Tb130 O138 2.427 . S
Tb130 O139 2.513 . S
Tb130 O140 2.453 . S
Tb130 O141 2.596 . S
Tb130 O142 2.374 . S
O131 Tb128 2.453 . S
O131 C147 1.245 . S
O132 Tb128 2.596 . S
O132 Tb130 2.343 . S
O132 C147 1.259 . S
O133 Tb128 2.374 . S
O133 C129 1.251 . S
C134 O138 1.275 . S
C134 O139 1.246 . S
O135 C129 1.263 . S
O135 Tb130 2.353 . S
C136 O140 1.245 . S
C136 O141 1.259 . S
C137 O142 1.250 . S
C137 O143 1.263 . S
O138 Tb130 2.427 . S
O138 C134 1.275 . S
O139 Tb130 2.513 . S
O139 C134 1.246 . S
O140 Tb130 2.453 . S
O140 C136 1.245 . S
O141 Tb128 2.343 . S
O141 Tb130 2.596 . S
O141 C136 1.259 . S
O142 Tb130 2.374 . S
O142 C137 1.250 . S
O143 Tb128 2.353 . S
O143 C137 1.263 . S
C144 O145 1.275 . S
C144 O146 1.246 . S
O145 Tb128 2.427 . S
O145 C144 1.275 . S
O146 Tb128 2.513 . S
O146 C144 1.246 . S
C147 O131 1.245 . S
C147 O132 1.259 . S
Tb148 O151 2.453 1_655 S
Tb148 O152 2.596 1_655 S
Tb148 O153 2.374 1_655 S
Tb148 O161 2.343 . S
Tb148 O163 2.353 1_655 S
Tb148 O165 2.427 . S
Tb148 O166 2.513 . S
C149 O153 1.251 . S
C149 O155 1.263 . S
Tb150 O152 2.343 . S
Tb150 O155 2.353 . S
Tb150 O158 2.427 . S
Tb150 O159 2.513 . S
Tb150 O160 2.453 1_455 S
Tb150 O161 2.596 1_455 S
Tb150 O162 2.374 . S
O151 Tb148 2.453 1_455 S
O151 C167 1.245 . S
O152 Tb148 2.596 1_455 S
O152 Tb150 2.343 . S
O152 C167 1.259 . S
O153 Tb148 2.374 1_455 S
O153 C149 1.251 . S
C154 O158 1.275 . S
C154 O159 1.246 . S
O155 C149 1.263 . S
O155 Tb150 2.353 . S
C156 O160 1.245 . S
C156 O161 1.259 . S
C157 O162 1.250 . S
C157 O163 1.263 . S
O158 Tb150 2.427 . S
O158 C154 1.275 . S
O159 Tb150 2.513 . S
O159 C154 1.246 . S
O160 Tb150 2.453 1_655 S
O160 C156 1.245 . S
O161 Tb148 2.343 . S
O161 Tb150 2.596 1_655 S
O161 C156 1.259 . S
O162 Tb150 2.374 . S
O162 C157 1.250 . S
O163 Tb148 2.353 1_455 S
O163 C157 1.263 . S
C164 O165 1.275 . S
C164 O166 1.246 . S
O165 Tb148 2.427 . S
O165 C164 1.275 . S
O166 Tb148 2.513 . S
O166 C164 1.246 . S
C167 O151 1.245 . S
C167 O152 1.259 . S
H168 C176 0.950 . S
H169 C181 0.950 . S
H170 C178 0.950 . S
H171 C180 0.950 . S
H172 C182 0.950 . S
H173 C184 0.950 . S
H174 C186 0.950 . S
H175 C187 0.950 1_565 S
C176 H168 0.950 . S
C176 C177 1.386 . S
C176 C178 1.391 . S
C177 C176 1.386 . S
C177 C181 1.393 . S
C178 H170 0.950 . S
C178 C176 1.391 . S
C178 C179 1.400 . S
C179 C178 1.400 . S
C179 C180 1.398 . S
C179 C185 1.491 . S
C180 H171 0.950 . S
C180 C179 1.398 . S
C180 C181 1.391 . S
C181 H169 0.950 . S
C181 C177 1.393 . S
C181 C180 1.391 . S
C182 H172 0.950 . S
C182 C183 1.386 . S
C182 C184 1.391 . S
C183 C182 1.386 . S
C183 C187 1.393 . S
C184 H173 0.950 . S
C184 C182 1.391 . S
C184 C185 1.400 . S
C185 C179 1.491 . S
C185 C184 1.400 . S
C185 C186 1.398 . S
C186 H174 0.950 . S
C186 C185 1.398 . S
C186 C187 1.391 . S
C187 H175 0.950 1_545 S
C187 C183 1.393 . S
C187 C186 1.391 . S
H188 C196 0.950 . S
H189 C201 0.950 . S
H190 C198 0.950 . S
H191 C200 0.950 . S
H192 C202 0.950 . S
H193 C204 0.950 . S
H194 C206 0.950 . S
H195 C207 0.950 . S
C196 H188 0.950 . S
C196 C197 1.386 . S
C196 C198 1.391 . S
C197 C196 1.386 . S
C197 C201 1.393 . S
C198 H190 0.950 . S
C198 C196 1.391 . S
C198 C199 1.400 . S
C199 C198 1.400 . S
C199 C200 1.398 . S
C199 C205 1.491 . S
C200 H191 0.950 . S
C200 C199 1.398 . S
C200 C201 1.391 . S
C201 H189 0.950 . S
C201 C197 1.393 . S
C201 C200 1.391 . S
C202 H192 0.950 . S
C202 C203 1.386 . S
C202 C204 1.391 . S
C203 C202 1.386 . S
C203 C207 1.393 . S
C204 H193 0.950 . S
C204 C202 1.391 . S
C204 C205 1.400 . S
C205 C199 1.491 . S
C205 C204 1.400 . S
C205 C206 1.398 . S
C206 H194 0.950 . S
C206 C205 1.398 . S
C206 C207 1.391 . S
C207 H195 0.950 . S
C207 C203 1.393 . S
C207 C206 1.391 . S
H208 C216 0.950 . S
H209 C221 0.950 . S
H210 C218 0.950 . S
H211 C220 0.950 . S
H212 C222 0.950 . S
H213 C224 0.950 . S
H214 C226 0.950 . S
H215 C227 0.950 . S
C216 H208 0.950 . S
C216 C217 1.386 . S
C216 C218 1.391 . S
C217 C216 1.386 . S
C217 C221 1.393 . S
C218 H210 0.950 . S
C218 C216 1.391 . S
C218 C219 1.400 . S
C219 C218 1.400 . S
C219 C220 1.398 . S
C219 C225 1.491 . S
C220 H211 0.950 . S
C220 C219 1.398 . S
C220 C221 1.391 . S
C221 H209 0.950 . S
C221 C217 1.393 . S
C221 C220 1.391 . S
C222 H212 0.950 . S
C222 C223 1.386 . S
C222 C224 1.391 . S
C223 C222 1.386 . S
C223 C227 1.393 . S
C224 H213 0.950 . S
C224 C222 1.391 . S
C224 C225 1.400 . S
C225 C219 1.491 . S
C225 C224 1.400 . S
C225 C226 1.398 . S
C226 H214 0.950 . S
C226 C225 1.398 . S
C226 C227 1.391 . S
C227 H215 0.950 . S
C227 C223 1.393 . S
C227 C226 1.391 . S
H228 C236 0.950 . S
H229 C241 0.950 . S
H230 C238 0.950 . S
H231 C240 0.950 . S
H232 C242 0.950 . S
H233 C244 0.950 . S
H234 C246 0.950 . S
H235 C247 0.950 . S
C236 H228 0.950 . S
C236 C237 1.386 . S
C236 C238 1.391 . S
C237 C236 1.386 . S
C237 C241 1.393 . S
C238 H230 0.950 . S
C238 C236 1.391 . S
C238 C239 1.400 . S
C239 C238 1.400 . S
C239 C240 1.398 . S
C239 C245 1.491 . S
C240 H231 0.950 . S
C240 C239 1.398 . S
C240 C241 1.391 . S
C241 H229 0.950 . S
C241 C237 1.393 . S
C241 C240 1.391 . S
C242 H232 0.950 . S
C242 C243 1.386 . S
C242 C244 1.391 . S
C243 C242 1.386 . S
C243 C247 1.393 . S
C244 H233 0.950 . S
C244 C242 1.391 . S
C244 C245 1.400 . S
C245 C239 1.491 . S
C245 C244 1.400 . S
C245 C246 1.398 . S
C246 H234 0.950 . S
C246 C245 1.398 . S
C246 C247 1.391 . S
C247 H235 0.950 . S
C247 C243 1.393 . S
C247 C246 1.391 . S
H248 C256 0.950 1_554 S
H249 C261 0.918 1_545 S
H250 C258 0.950 . S
H251 C260 0.950 1_545 S
H252 C262 0.950 . S
H253 C264 0.950 . S
H254 C266 0.950 . S
H255 C267 0.950 . S
C256 H248 0.950 1_556 S
C256 C257 1.386 . S
C256 C258 1.391 . S
C257 C256 1.386 . S
C257 C261 1.393 . S
C258 H250 0.950 . S
C258 C256 1.391 . S
C258 C259 1.400 . S
C259 C258 1.400 . S
C259 C260 1.398 . S
C259 C265 1.491 . S
C260 H251 0.950 1_565 S
C260 C259 1.398 . S
C260 C261 1.391 . S
C261 H249 0.918 1_565 S
C261 C257 1.393 . S
C261 C260 1.391 . S
C262 H252 0.950 . S
C262 C263 1.386 1_545 S
C262 C264 1.391 . S
C263 C262 1.386 1_565 S
C263 C267 1.393 . S
C264 H253 0.950 . S
C264 C262 1.391 . S
C264 C265 1.400 1_545 S
C265 C259 1.491 . S
C265 C264 1.400 1_565 S
C265 C266 1.398 . S
C266 H254 0.950 . S
C266 C265 1.398 . S
C266 C267 1.391 . S
C267 H255 0.950 . S
C267 C263 1.393 . S
C267 C266 1.391 . S
H268 C276 0.950 1_554 S
H269 C281 0.948 1_554 S
H270 C278 0.950 . S
H271 C280 0.950 . S
H272 C282 0.950 . S
H273 C284 0.950 . S
H274 C286 0.950 . S
H275 C287 0.950 . S
C276 H268 0.950 1_556 S
C276 C277 1.386 1_556 S
C276 C278 1.391 . S
C277 C276 1.386 1_554 S
C277 C281 1.393 1_554 S
C278 H270 0.950 . S
C278 C276 1.391 . S
C278 C279 1.400 . S
C279 C278 1.400 . S
C279 C280 1.398 . S
C279 C285 1.491 . S
C280 H271 0.950 . S
C280 C279 1.398 . S
C280 C281 1.391 . S
C281 H269 0.948 1_556 S
C281 C277 1.393 1_556 S
C281 C280 1.391 . S
C282 H272 0.950 . S
C282 C283 1.386 . S
C282 C284 1.391 . S
C283 C282 1.386 . S
C283 C287 1.393 . S
C284 H273 0.950 . S
C284 C282 1.391 . S
C284 C285 1.400 . S
C285 C279 1.491 . S
C285 C284 1.400 . S
C285 C286 1.398 . S
C286 H274 0.950 . S
C286 C285 1.398 . S
C286 C287 1.391 . S
C287 H275 0.950 . S
C287 C283 1.393 . S
C287 C286 1.391 . S
H288 C296 0.950 . S
H289 C301 0.950 . S
H290 C298 0.950 1_554 S
H291 C300 0.950 . S
H292 C302 0.950 . S
H293 C304 0.950 . S
H294 C306 0.950 . S
H295 C307 0.950 . S
C296 H288 0.950 . S
C296 C297 1.386 1_554 S
C296 C298 1.391 1_554 S
C297 C296 1.386 1_556 S
C297 C301 1.393 . S
C298 H290 0.950 1_556 S
C298 C296 1.391 1_556 S
C298 C299 1.400 . S
C299 C298 1.400 . S
C299 C300 1.398 . S
C299 C305 1.491 . S
C300 H291 0.950 . S
C300 C299 1.398 . S
C300 C301 1.391 . S
C301 H289 0.950 . S
C301 C297 1.393 . S
C301 C300 1.391 . S
C302 H292 0.950 . S
C302 C303 1.386 . S
C302 C304 1.391 . S
C303 C302 1.386 . S
C303 C307 1.393 . S
C304 H293 0.950 . S
C304 C302 1.391 . S
C304 C305 1.400 . S
C305 C299 1.491 . S
C305 C304 1.400 . S
C305 C306 1.398 . S
C306 H294 0.950 . S
C306 C305 1.398 . S
C306 C307 1.391 . S
C307 H295 0.950 . S
C307 C303 1.393 . S
C307 C306 1.391 . S
H308 C316 0.950 . S
H309 C321 0.950 . S
H310 C318 0.950 1_455 S
H311 C320 0.950 . S
H312 C322 0.950 . S
H313 C324 0.950 . S
H314 C326 0.950 . S
H315 C327 0.950 . S
C316 H308 0.950 . S
C316 C317 1.386 . S
C316 C318 1.391 . S
C317 C316 1.386 . S
C317 C321 1.393 . S
C318 H310 0.950 1_655 S
C318 C316 1.391 . S
C318 C319 1.400 . S
C319 C318 1.400 . S
C319 C320 1.398 . S
C319 C325 1.491 . S
C320 H311 0.950 . S
C320 C319 1.398 . S
C320 C321 1.391 . S
C321 H309 0.950 . S
C321 C317 1.393 . S
C321 C320 1.391 . S
C322 H312 0.950 . S
C322 C323 1.386 . S
C322 C324 1.391 . S
C323 C322 1.386 . S
C323 C327 1.393 1_655 S
C324 H313 0.950 . S
C324 C322 1.391 . S
C324 C325 1.400 . S
C325 C319 1.491 . S
C325 C324 1.400 . S
C325 C326 1.398 1_655 S
C326 H314 0.950 . S
C326 C325 1.398 1_455 S
C326 C327 1.391 . S
C327 H315 0.950 . S
C327 C323 1.393 1_455 S
C327 C326 1.391 . S
H328 C336 0.950 . S
H329 C341 0.950 . S
H330 C338 0.950 . S
H331 C340 0.950 . S
H332 C342 0.950 . S
H333 C344 0.950 . S
H334 C346 0.950 . S
H335 C347 0.950 . S
C336 H328 0.950 . S
C336 C337 1.386 . S
C336 C338 1.391 . S
C337 C336 1.386 . S
C337 C341 1.393 . S
C338 H330 0.950 . S
C338 C336 1.391 . S
C338 C339 1.400 . S
C339 C338 1.400 . S
C339 C340 1.398 . S
C339 C345 1.491 . S
C340 H331 0.950 . S
C340 C339 1.398 . S
C340 C341 1.391 . S
C341 H329 0.950 . S
C341 C337 1.393 . S
C341 C340 1.391 . S
C342 H332 0.950 . S
C342 C343 1.386 . S
C342 C344 1.391 . S
C343 C342 1.386 . S
C343 C347 1.393 . S
C344 H333 0.950 . S
C344 C342 1.391 . S
C344 C345 1.400 . S
C345 C339 1.491 . S
C345 C344 1.400 . S
C345 C346 1.398 . S
C346 H334 0.950 . S
C346 C345 1.398 . S
C346 C347 1.391 . S
C347 H335 0.950 . S
C347 C343 1.393 . S
C347 C346 1.391 . S
H348 C356 0.950 . S
H349 C361 0.950 . S
H350 C358 0.950 . S
H351 C360 0.950 . S
H352 C362 0.950 . S
H353 C364 0.950 . S
H354 C366 0.950 . S
H355 C367 0.950 . S
C356 H348 0.950 . S
C356 C357 1.386 . S
C356 C358 1.391 . S
C357 C356 1.386 . S
C357 C361 1.393 . S
C358 H350 0.950 . S
C358 C356 1.391 . S
C358 C359 1.400 . S
C359 C358 1.400 . S
C359 C360 1.398 . S
C359 C365 1.491 . S
C360 H351 0.950 . S
C360 C359 1.398 . S
C360 C361 1.391 . S
C361 H349 0.950 . S
C361 C357 1.393 . S
C361 C360 1.391 . S
C362 H352 0.950 . S
C362 C363 1.386 . S
C362 C364 1.391 . S
C363 C362 1.386 . S
C363 C367 1.393 . S
C364 H353 0.950 . S
C364 C362 1.391 . S
C364 C365 1.400 . S
C365 C359 1.491 . S
C365 C364 1.400 . S
C365 C366 1.398 . S
C366 H354 0.950 . S
C366 C365 1.398 . S
C366 C367 1.391 . S
C367 H355 0.950 . S
C367 C363 1.393 . S
C367 C366 1.391 . S
H368 C376 0.950 . S
H369 C381 0.950 . S
H370 C378 0.950 . S
H371 C380 0.950 . S
H372 C382 0.950 . S
H373 C384 0.950 . S
H374 C386 0.950 . S
H375 C387 0.950 . S
C376 H368 0.950 . S
C376 C377 1.386 . S
C376 C378 1.391 . S
C377 C376 1.386 . S
C377 C381 1.393 . S
C378 H370 0.950 . S
C378 C376 1.391 . S
C378 C379 1.400 . S
C379 C378 1.400 . S
C379 C380 1.398 . S
C379 C385 1.491 . S
C380 H371 0.950 . S
C380 C379 1.398 . S
C380 C381 1.391 . S
C381 H369 0.950 . S
C381 C377 1.393 . S
C381 C380 1.391 . S
C382 H372 0.950 . S
C382 C383 1.386 . S
C382 C384 1.391 . S
C383 C382 1.386 . S
C383 C387 1.393 . S
C384 H373 0.950 . S
C384 C382 1.391 . S
C384 C385 1.400 . S
C385 C379 1.491 . S
C385 C384 1.400 . S
C385 C386 1.398 . S
C386 H374 0.950 . S
C386 C385 1.398 . S
C386 C387 1.391 . S
C387 H375 0.950 . S
C387 C383 1.393 . S
C387 C386 1.391 . S
H388 C396 0.950 . S
H389 C401 0.950 . S
H390 C398 0.950 . S
H391 C400 0.950 . S
H392 C402 0.950 . S
H393 C404 0.950 . S
H394 C406 0.950 . S
H395 C407 0.950 . S
C396 H388 0.950 . S
C396 C397 1.386 . S
C396 C398 1.391 . S
C397 C396 1.386 . S
C397 C401 1.393 . S
C398 H390 0.950 . S
C398 C396 1.391 . S
C398 C399 1.400 . S
C399 C398 1.400 . S
C399 C400 1.398 . S
C399 C405 1.491 . S
C400 H391 0.950 . S
C400 C399 1.398 . S
C400 C401 1.391 . S
C401 H389 0.950 . S
C401 C397 1.393 . S
C401 C400 1.391 . S
C402 H392 0.950 . S
C402 C403 1.386 . S
C402 C404 1.391 . S
C403 C402 1.386 . S
C403 C407 1.393 . S
C404 H393 0.950 . S
C404 C402 1.391 . S
C404 C405 1.400 . S
C405 C399 1.491 . S
C405 C404 1.400 . S
C405 C406 1.398 . S
C406 H394 0.950 . S
C406 C405 1.398 . S
C406 C407 1.391 . S
C407 H395 0.950 . S
C407 C403 1.393 . S
C407 C406 1.391 . S
H408 C416 0.950 1_554 S
H409 C421 0.950 . S
H410 C418 0.950 . S
H411 C420 0.950 . S
H412 C422 0.950 . S
H413 C424 0.950 . S
H414 C426 0.958 . S
H415 C427 0.950 . S
C416 H408 0.950 1_556 S
C416 C417 1.386 . S
C416 C418 1.391 . S
C417 C416 1.386 . S
C417 C421 1.393 . S
C418 H410 0.950 . S
C418 C416 1.391 . S
C418 C419 1.400 . S
C419 C418 1.400 . S
C419 C420 1.398 . S
C419 C425 1.491 . S
C420 H411 0.950 . S
C420 C419 1.398 . S
C420 C421 1.391 . S
C421 H409 0.950 . S
C421 C417 1.393 . S
C421 C420 1.391 . S
C422 H412 0.950 . S
C422 C423 1.386 . S
C422 C424 1.391 . S
C423 C422 1.386 . S
C423 C427 1.393 1_655 S
C424 H413 0.950 . S
C424 C422 1.391 . S
C424 C425 1.400 . S
C425 C419 1.491 . S
C425 C424 1.400 . S
C425 C426 1.398 . S
C426 H414 0.958 . S
C426 C425 1.398 . S
C426 C427 1.391 1_655 S
C427 H415 0.950 . S
C427 C423 1.393 1_455 S
C427 C426 1.391 1_455 S
H428 C436 0.950 . S
H429 C441 0.950 . S
H430 C438 0.950 . S
H431 C440 0.950 1_545 S
H432 C442 0.950 . S
H433 C444 0.950 . S
H434 C446 0.950 . S
H435 C447 0.950 . S
C436 H428 0.950 . S
C436 C437 1.386 1_554 S
C436 C438 1.391 1_554 S
C437 C436 1.386 1_556 S
C437 C441 1.393 . S
C438 H430 0.950 . S
C438 C436 1.391 1_556 S
C438 C439 1.400 . S
C439 C438 1.400 . S
C439 C440 1.398 . S
C439 C445 1.491 . S
C440 H431 0.950 1_565 S
C440 C439 1.398 . S
C440 C441 1.391 . S
C441 H429 0.950 . S
C441 C437 1.393 . S
C441 C440 1.391 . S
C442 H432 0.950 . S
C442 C443 1.386 1_545 S
C442 C444 1.391 . S
C443 C442 1.386 1_565 S
C443 C447 1.393 . S
C444 H433 0.950 . S
C444 C442 1.391 . S
C444 C445 1.400 1_545 S
C445 C439 1.491 . S
C445 C444 1.400 1_565 S
C445 C446 1.398 . S
C446 H434 0.950 . S
C446 C445 1.398 . S
C446 C447 1.391 . S
C447 H435 0.950 . S
C447 C443 1.393 . S
C447 C446 1.391 . S
H448 C456 0.950 . S
H449 C461 0.950 . S
H450 C458 0.950 . S
H451 C460 0.950 1_554 S
H452 C462 0.950 . S
H453 C464 0.950 . S
H454 C466 0.950 . S
H455 C467 0.950 . S
C456 H448 0.950 . S
C456 C457 1.386 . S
C456 C458 1.391 . S
C457 C456 1.386 . S
C457 C461 1.393 1_556 S
C458 H450 0.950 . S
C458 C456 1.391 . S
C458 C459 1.400 . S
C459 C458 1.400 . S
C459 C460 1.398 . S
C459 C465 1.491 . S
C460 H451 0.950 1_556 S
C460 C459 1.398 . S
C460 C461 1.391 1_556 S
C461 H449 0.950 . S
C461 C457 1.393 1_554 S
C461 C460 1.391 1_554 S
C462 H452 0.950 . S
C462 C463 1.386 . S
C462 C464 1.391 . S
C463 C462 1.386 . S
C463 C467 1.393 . S
C464 H453 0.950 . S
C464 C462 1.391 . S
C464 C465 1.400 . S
C465 C459 1.491 . S
C465 C464 1.400 . S
C465 C466 1.398 . S
C466 H454 0.950 . S
C466 C465 1.398 . S
C466 C467 1.391 . S
C467 H455 0.950 . S
C467 C463 1.393 . S
C467 C466 1.391 . S
H468 C476 0.950 . S
H469 C481 0.950 . S
H470 C478 0.950 . S
H471 C480 0.950 1_554 S
H472 C482 0.950 . S
H473 C484 0.950 . S
H474 C486 0.950 . S
H475 C487 0.950 . S
C476 H468 0.950 . S
C476 C477 1.386 . S
C476 C478 1.391 . S
C477 C476 1.386 . S
C477 C481 1.393 1_556 S
C478 H470 0.950 . S
C478 C476 1.391 . S
C478 C479 1.400 . S
C479 C478 1.400 . S
C479 C480 1.398 . S
C479 C485 1.491 . S
C480 H471 0.950 1_556 S
C480 C479 1.398 . S
C480 C481 1.391 1_556 S
C481 H469 0.950 . S
C481 C477 1.393 1_554 S
C481 C480 1.391 1_554 S
C482 H472 0.950 . S
C482 C483 1.386 . S
C482 C484 1.391 . S
C483 C482 1.386 . S
C483 C487 1.393 . S
C484 H473 0.950 . S
C484 C482 1.391 . S
C484 C485 1.400 . S
C485 C479 1.491 . S
C485 C484 1.400 . S
C485 C486 1.398 . S
C486 H474 0.950 . S
C486 C485 1.398 . S
C486 C487 1.391 . S
C487 H475 0.950 . S
C487 C483 1.393 . S
C487 C486 1.391 . S
H488 C496 0.950 . S
H489 C501 0.950 . S
H490 C498 0.950 . S
H491 C500 0.950 . S
H492 C502 0.950 . S
H493 C504 0.950 . S
H494 C506 0.950 . S
H495 C507 0.950 1_554 S
C496 H488 0.950 . S
C496 C497 1.386 . S
C496 C498 1.391 . S
C497 C496 1.386 . S
C497 C501 1.393 . S
C498 H490 0.950 . S
C498 C496 1.391 . S
C498 C499 1.400 . S
C499 C498 1.400 . S
C499 C500 1.398 . S
C499 C505 1.491 . S
C500 H491 0.950 . S
C500 C499 1.398 . S
C500 C501 1.391 . S
C501 H489 0.950 . S
C501 C497 1.393 . S
C501 C500 1.391 . S
C502 H492 0.950 . S
C502 C503 1.386 . S
C502 C504 1.391 . S
C503 C502 1.386 . S
C503 C507 1.393 . S
C504 H493 0.950 . S
C504 C502 1.391 . S
C504 C505 1.400 1_556 S
C505 C499 1.491 . S
C505 C504 1.400 1_554 S
C505 C506 1.398 . S
C506 H494 0.950 . S
C506 C505 1.398 . S
C506 C507 1.391 1_554 S
C507 H495 0.950 1_556 S
C507 C503 1.393 . S
C507 C506 1.391 1_556 S
H508 C516 0.950 . S
H509 C521 0.950 . S
H510 C518 0.950 . S
H511 C520 0.950 1_556 S
H512 C522 0.950 . S
H513 C524 0.950 . S
H514 C526 0.950 . S
H515 C527 0.954 . S
C516 H508 0.950 . S
C516 C517 1.386 . S
C516 C518 1.391 . S
C517 C516 1.386 . S
C517 C521 1.393 . S
C518 H510 0.950 . S
C518 C516 1.391 . S
C518 C519 1.400 . S
C519 C518 1.400 . S
C519 C520 1.398 . S
C519 C525 1.485 1_554 S
C520 H511 0.950 1_554 S
C520 C519 1.398 . S
C520 C521 1.391 . S
C521 H509 0.950 . S
C521 C517 1.393 . S
C521 C520 1.391 . S
C522 H512 0.950 . S
C522 C523 1.386 . S
C522 C524 1.391 . S
C523 C522 1.386 . S
C523 C527 1.393 . S
C524 H513 0.950 . S
C524 C522 1.391 . S
C524 C525 1.409 . S
C525 C519 1.485 1_556 S
C525 C524 1.409 . S
C525 C526 1.394 1_556 S
C526 H514 0.950 . S
C526 C525 1.394 1_554 S
C526 C527 1.391 1_554 S
C527 H515 0.954 . S
C527 C523 1.393 . S
C527 C526 1.391 1_556 S
H528 C536 0.950 . S
H529 C541 0.950 . S
H530 C538 0.950 . S
H531 C540 0.950 1_556 S
H532 C542 0.950 . S
H533 C544 0.950 . S
H534 C546 0.950 . S
H535 C547 0.950 1_554 S
C536 H528 0.950 . S
C536 C537 1.386 . S
C536 C538 1.391 . S
C537 C536 1.386 . S
C537 C541 1.393 . S
C538 H530 0.950 . S
C538 C536 1.391 . S
C538 C539 1.400 . S
C539 C538 1.400 . S
C539 C540 1.398 . S
C539 C545 1.494 . S
C540 H531 0.950 1_554 S
C540 C539 1.398 . S
C540 C541 1.391 . S
C541 H529 0.950 . S
C541 C537 1.393 . S
C541 C540 1.391 . S
C542 H532 0.950 . S
C542 C543 1.386 . S
C542 C544 1.391 . S
C543 C542 1.386 . S
C543 C547 1.393 . S
C544 H533 0.950 . S
C544 C542 1.391 . S
C544 C545 1.396 1_556 S
C545 C539 1.494 . S
C545 C544 1.396 1_554 S
C545 C546 1.400 . S
C546 H534 0.950 . S
C546 C545 1.400 . S
C546 C547 1.391 1_554 S
C547 H535 0.950 1_556 S
C547 C543 1.393 . S
C547 C546 1.391 1_556 S
H548 C556 0.950 . S
H549 C561 0.950 . S
H550 C558 0.950 1_556 S
H551 C560 0.950 . S
H552 C562 0.950 1_554 S
H553 C564 0.950 . S
H554 C566 0.950 . S
H555 C567 0.950 . S
C556 H548 0.950 . S
C556 C557 1.386 . S
C556 C558 1.391 . S
C557 C556 1.386 . S
C557 C561 1.393 . S
C558 H550 0.950 1_554 S
C558 C556 1.391 . S
C558 C559 1.400 . S
C559 C558 1.400 . S
C559 C560 1.398 . S
C559 C565 1.491 . S
C560 H551 0.950 . S
C560 C559 1.398 . S
C560 C561 1.391 . S
C561 H549 0.950 . S
C561 C557 1.393 . S
C561 C560 1.391 . S
C562 H552 0.950 1_556 S
C562 C563 1.386 . S
C562 C564 1.391 1_556 S
C563 C562 1.386 . S
C563 C567 1.393 . S
C564 H553 0.950 . S
C564 C562 1.391 1_554 S
C564 C565 1.400 . S
C565 C559 1.491 . S
C565 C564 1.400 . S
C565 C566 1.398 1_554 S
C566 H554 0.950 . S
C566 C565 1.398 1_556 S
C566 C567 1.391 . S
C567 H555 0.950 . S
C567 C563 1.393 . S
C567 C566 1.391 . S
H568 C576 0.950 . S
H569 C581 0.950 . S
H570 C578 0.950 . S
H571 C580 0.950 . S
H572 C582 0.950 . S
H573 C584 0.950 . S
H574 C586 0.950 1_455 S
H575 C587 0.950 1_455 S
C576 H568 0.950 . S
C576 C577 1.386 . S
C576 C578 1.391 . S
C577 C576 1.386 . S
C577 C581 1.393 . S
C578 H570 0.950 . S
C578 C576 1.391 . S
C578 C579 1.400 . S
C579 C578 1.400 . S
C579 C580 1.398 . S
C579 C585 1.491 . S
C580 H571 0.950 . S
C580 C579 1.398 . S
C580 C581 1.391 . S
C581 H569 0.950 . S
C581 C577 1.393 . S
C581 C580 1.391 . S
C582 H572 0.950 . S
C582 C583 1.386 . S
C582 C584 1.391 . S
C583 C582 1.386 . S
C583 C587 1.393 . S
C584 H573 0.950 . S
C584 C582 1.391 . S
C584 C585 1.400 . S
C585 C579 1.491 . S
C585 C584 1.400 . S
C585 C586 1.398 . S
C586 H574 0.950 1_655 S
C586 C585 1.398 . S
C586 C587 1.391 . S
C587 H575 0.950 1_655 S
C587 C583 1.393 . S
C587 C586 1.391 . S
H588 C596 0.950 . S
H589 C601 0.954 . S
H590 C598 0.950 . S
H591 C600 0.950 1_545 S
H592 C602 0.950 . S
H593 C604 0.950 . S
H594 C606 0.950 . S
H595 C607 0.950 . S
C596 H588 0.950 . S
C596 C597 1.386 . S
C596 C598 1.391 . S
C597 C596 1.386 . S
C597 C601 1.393 . S
C598 H590 0.950 . S
C598 C596 1.391 . S
C598 C599 1.400 . S
C599 C598 1.400 . S
C599 C600 1.398 . S
C599 C605 1.491 . S
C600 H591 0.950 1_565 S
C600 C599 1.398 . S
C600 C601 1.391 . S
C601 H589 0.954 . S
C601 C597 1.393 . S
C601 C600 1.391 . S
C602 H592 0.950 . S
C602 C603 1.386 1_545 S
C602 C604 1.391 . S
C603 C602 1.386 1_565 S
C603 C607 1.393 . S
C604 H593 0.950 . S
C604 C602 1.391 . S
C604 C605 1.400 1_545 S
C605 C599 1.491 . S
C605 C604 1.400 1_565 S
C605 C606 1.398 . S
C606 H594 0.950 . S
C606 C605 1.398 . S
C606 C607 1.391 . S
C607 H595 0.950 . S
C607 C603 1.393 . S
C607 C606 1.391 . S
H608 C616 0.950 . S
H609 C621 0.950 . S
H610 C618 0.950 . S
H611 C620 0.950 . S
H612 C622 0.950 . S
H613 C624 0.950 . S
H614 C626 0.950 . S
H615 C627 0.950 . S
C616 H608 0.950 . S
C616 C617 1.386 . S
C616 C618 1.391 . S
C617 C616 1.386 . S
C617 C621 1.393 . S
C618 H610 0.950 . S
C618 C616 1.391 . S
C618 C619 1.400 . S
C619 C618 1.400 . S
C619 C620 1.398 . S
C619 C625 1.491 . S
C620 H611 0.950 . S
C620 C619 1.398 . S
C620 C621 1.391 . S
C621 H609 0.950 . S
C621 C617 1.393 . S
C621 C620 1.391 . S
C622 H612 0.950 . S
C622 C623 1.386 . S
C622 C624 1.391 . S
C623 C622 1.386 . S
C623 C627 1.393 . S
C624 H613 0.950 . S
C624 C622 1.391 . S
C624 C625 1.400 . S
C625 C619 1.491 . S
C625 C624 1.400 . S
C625 C626 1.398 . S
C626 H614 0.950 . S
C626 C625 1.398 . S
C626 C627 1.391 . S
C627 H615 0.950 . S
C627 C623 1.393 . S
C627 C626 1.391 . S
H628 C636 0.950 . S
H629 C641 0.950 . S
H630 C638 0.950 . S
H631 C640 0.950 . S
H632 C642 0.950 . S
H633 C644 0.950 . S
H634 C646 0.950 . S
H635 C647 0.950 . S
C636 H628 0.950 . S
C636 C637 1.386 . S
C636 C638 1.391 . S
C637 C636 1.386 . S
C637 C641 1.393 . S
C638 H630 0.950 . S
C638 C636 1.391 . S
C638 C639 1.400 . S
C639 C638 1.400 . S
C639 C640 1.398 . S
C639 C645 1.491 . S
C640 H631 0.950 . S
C640 C639 1.398 . S
C640 C641 1.391 . S
C641 H629 0.950 . S
C641 C637 1.393 . S
C641 C640 1.391 . S
C642 H632 0.950 . S
C642 C643 1.386 . S
C642 C644 1.391 . S
C643 C642 1.386 . S
C643 C647 1.393 . S
C644 H633 0.950 . S
C644 C642 1.391 . S
C644 C645 1.400 . S
C645 C639 1.491 . S
C645 C644 1.400 . S
C645 C646 1.398 . S
C646 H634 0.950 . S
C646 C645 1.398 . S
C646 C647 1.391 . S
C647 H635 0.950 . S
C647 C643 1.393 . S
C647 C646 1.391 . S
C177 C76 1.571 . S
C183 C89 1.595 . S
C203 C124 1.611 . S
C197 C87 1.560 . S
C223 C129 1.324 . S
C217 C54 1.314 . S
C243 C149 1.464 . S
C237 C65 1.449 . S
C263 C97 1.597 1_565 S
C257 C32 1.571 1_556 S
C277 C43 1.582 . S
C283 C114 1.610 . S
C297 C10 1.304 1_556 S
C303 C137 1.321 . S
C317 C21 1.458 . S
C323 C157 1.467 1_655 S
C343 C107 1.237 . S
C337 C60 1.220 . S
C363 C116 0.964 . S
C357 C71 0.981 . S
C383 C147 1.308 . S
C377 C82 1.299 . S
C397 C49 0.990 . S
C403 C167 0.954 . S
C417 C16 1.217 . S
C423 C96 1.234 1_655 S
C443 C127 0.993 1_565 S
C437 C27 0.947 1_556 S
C463 C136 1.308 . S
C457 C38 1.301 1_556 S
C477 C5 0.973 1_556 S
C483 C156 0.971 . S
C497 C59 1.465 . S
C503 C94 1.486 . S
C517 C70 1.456 . S
C523 C117 1.508 . S
C543 C134 1.592 . S
C537 C81 1.539 . S
C563 C154 1.588 . S
C557 C48 1.551 . S
C577 C15 1.457 . S
C583 C104 1.490 . S
C603 C109 1.510 . S
C597 C26 1.459 . S
C623 C144 1.589 . S
C617 C37 1.535 . S
C637 C4 1.544 . S
C643 C164 1.591 . S
