# Generated by pormake.
# Topology pyr, (3,6)-cn, num edge types: 1
# Building blocks:
#     Node 0, Type 0, BuildingBlock: PAMTOO_clean_linker_0, # of connection points: 3
#     Node 1, Type 0, BuildingBlock: PAMTOO_clean_linker_0, # of connection points: 3
#     Node 2, Type 0, BuildingBlock: PAMTOO_clean_linker_0, # of connection points: 3
#     Node 3, Type 0, BuildingBlock: PAMTOO_clean_linker_0, # of connection points: 3
#     Node 4, Type 0, BuildingBlock: PAMTOO_clean_linker_0, # of connection points: 3
#     Node 5, Type 0, BuildingBlock: PAMTOO_clean_linker_0, # of connection points: 3
#     Node 6, Type 0, BuildingBlock: PAMTOO_clean_linker_0, # of connection points: 3
#     Node 7, Type 0, BuildingBlock: PAMTOO_clean_linker_0, # of connection points: 3
#     Node 8, Type 1, BuildingBlock: PAMTUU_clean_sbu_0, # of connection points: 6
#     Node 9, Type 1, BuildingBlock: PAMTUU_clean_sbu_0, # of connection points: 6
#     Node 10, Type 1, BuildingBlock: PAMTUU_clean_sbu_0, # of connection points: 6
#     Node 11, Type 1, BuildingBlock: PAMTUU_clean_sbu_0, # of connection points: 6
#     Edge 12, Type (0, 1), BuildingBlock: AJUNOK_clean_linker_0, # of connection points: 2
#     Edge 13, Type (0, 1), BuildingBlock: AJUNOK_clean_linker_0, # of connection points: 2
#     Edge 14, Type (0, 1), BuildingBlock: AJUNOK_clean_linker_0, # of connection points: 2
#     Edge 15, Type (0, 1), BuildingBlock: AJUNOK_clean_linker_0, # of connection points: 2
#     Edge 16, Type (0, 1), BuildingBlock: AJUNOK_clean_linker_0, # of connection points: 2
#     Edge 17, Type (0, 1), BuildingBlock: AJUNOK_clean_linker_0, # of connection points: 2
#     Edge 18, Type (0, 1), BuildingBlock: AJUNOK_clean_linker_0, # of connection points: 2
#     Edge 19, Type (0, 1), BuildingBlock: AJUNOK_clean_linker_0, # of connection points: 2
#     Edge 20, Type (0, 1), BuildingBlock: AJUNOK_clean_linker_0, # of connection points: 2
#     Edge 21, Type (0, 1), BuildingBlock: AJUNOK_clean_linker_0, # of connection points: 2
#     Edge 22, Type (0, 1), BuildingBlock: AJUNOK_clean_linker_0, # of connection points: 2
#     Edge 23, Type (0, 1), BuildingBlock: AJUNOK_clean_linker_0, # of connection points: 2
#     Edge 24, Type (0, 1), BuildingBlock: AJUNOK_clean_linker_0, # of connection points: 2
#     Edge 25, Type (0, 1), BuildingBlock: AJUNOK_clean_linker_0, # of connection points: 2
#     Edge 26, Type (0, 1), BuildingBlock: AJUNOK_clean_linker_0, # of connection points: 2
#     Edge 27, Type (0, 1), BuildingBlock: AJUNOK_clean_linker_0, # of connection points: 2
#     Edge 28, Type (0, 1), BuildingBlock: AJUNOK_clean_linker_0, # of connection points: 2
#     Edge 29, Type (0, 1), BuildingBlock: AJUNOK_clean_linker_0, # of connection points: 2
#     Edge 30, Type (0, 1), BuildingBlock: AJUNOK_clean_linker_0, # of connection points: 2
#     Edge 31, Type (0, 1), BuildingBlock: AJUNOK_clean_linker_0, # of connection points: 2
#     Edge 32, Type (0, 1), BuildingBlock: AJUNOK_clean_linker_0, # of connection points: 2
#     Edge 33, Type (0, 1), BuildingBlock: AJUNOK_clean_linker_0, # of connection points: 2
#     Edge 34, Type (0, 1), BuildingBlock: AJUNOK_clean_linker_0, # of connection points: 2
#     Edge 35, Type (0, 1), BuildingBlock: AJUNOK_clean_linker_0, # of connection points: 2
# Relax obj value: 0.250
# Max RMSD: 0.254
# Mean RMSD: 0.150
data_MOF--net-pyr--node1-PAMTUU_clean_sbu_0--node2-PAMTOO_clean_linker_0--edge1-AJUNOK_clean_linker_0
_symmetry_space_group_name_H-M    P1
_symmetry_Int_Tables_number       1
_symmetry_cell_setting            triclinic
loop_
_symmetry_equiv_pos_as_xyz
'x, y, z'
_cell_length_a     27.52736
_cell_length_b     29.468315
_cell_length_c     27.338724
_cell_angle_alpha  91.443607
_cell_angle_beta   89.953629
_cell_angle_gamma 108.27642
loop_
_atom_site_label
_atom_site_type_symbol
_atom_site_fract_x
_atom_site_fract_y
_atom_site_fract_z
_atom_type_partial_charge
H0 H 0.35022 0.35657 0.32689 0.0
H1 H 0.46507 0.28798 0.30555 0.0
H2 H 0.42978 0.36856 0.1899 0.0
H3 H 0.54393 0.32325 0.25957 0.0
C4 C 0.53181 0.31447 0.22073 0.0
O5 O 0.481 0.31094 0.21374 0.0
H6 H 0.55564 0.34377 0.19793 0.0
C7 C 0.38092 0.35111 0.30505 0.0
C8 C 0.38757 0.36742 0.25699 0.0
C9 C 0.40915 0.323 0.32315 0.0
C10 C 0.44481 0.31158 0.29274 0.0
C11 C 0.45309 0.32873 0.24512 0.0
C12 C 0.42511 0.3574 0.22754 0.0
H13 H 0.1675 0.88023 0.80446 0.0
H14 H 0.15447 0.82527 0.65666 0.0
H15 H 0.24191 0.77688 0.76153 0.0
H16 H 0.25919 0.83101 0.63691 0.0
C17 C 0.25045 0.79143 0.63724 0.0
O18 O 0.21215 0.77075 0.67007 0.0
H19 H 0.23626 0.77851 0.59977 0.0
C20 C 0.1737 0.85474 0.77782 0.0
C21 C 0.20476 0.82675 0.78988 0.0
C22 C 0.15558 0.85447 0.73002 0.0
C23 C 0.16693 0.82457 0.69415 0.0
C24 C 0.19783 0.79644 0.70571 0.0
C25 C 0.2166 0.79746 0.75344 0.0
H26 H 0.75849 0.36208 1.00043 0.0
H27 H 0.65486 0.33975 0.87769 0.0
H28 H 0.7808 0.47019 0.8919 0.0
H29 H 0.67209 0.47699 0.8683 0.0
C30 C 0.66389 0.45043 0.83728 0.0
O31 O 0.6995 0.42539 0.83883 0.0
H32 H 0.62515 0.42488 0.84338 0.0
C33 C 0.74731 0.37423 0.96645 0.0
C34 C 0.77628 0.41958 0.94963 0.0
C35 C 0.70463 0.3438 0.94048 0.0
C36 C 0.68766 0.36204 0.89823 0.0
C37 C 0.71418 0.40861 0.88132 0.0
C38 C 0.75891 0.43628 0.90679 0.0
H39 H 0.87866 0.79086 0.50791 0.0
H40 H 0.87977 0.67306 0.41224 0.0
H41 H 1.00523 0.80486 0.41029 0.0
H42 H 0.96031 0.74996 0.30501 0.0
C43 C 0.95233 0.71322 0.31893 0.0
O44 O 0.96653 0.7169 0.36849 0.0
H45 H 0.91026 0.69586 0.31572 0.0
C46 C 0.89804 0.77537 0.48091 0.0
C47 C 0.94633 0.80338 0.46403 0.0
C48 C 0.87408 0.72797 0.46415 0.0
C49 C 0.8974 0.70943 0.42566 0.0
C50 C 0.94395 0.73712 0.40462 0.0
C51 C 0.96845 0.78416 0.42448 0.0
H52 H 0.65846 0.86301 0.87908 0.0
H53 H 0.65009 0.8238 1.02971 0.0
H54 H 0.73266 0.76363 0.92766 0.0
H55 H 0.68986 0.70419 0.99998 0.0
C56 C 0.71301 0.72933 1.02853 0.0
O57 O 0.71447 0.77578 1.02048 0.0
H58 H 0.69461 0.71877 1.06445 0.0
C59 C 0.66535 0.84035 0.90715 0.0
C60 C 0.69683 0.81193 0.89703 0.0
C61 C 0.64773 0.84451 0.95466 0.0
C62 C 0.65997 0.81812 0.99217 0.0
C63 C 0.69147 0.78979 0.98259 0.0
C64 C 0.70807 0.78535 0.93474 0.0
H65 H 0.96602 0.24038 0.39077 0.0
H66 H 0.90693 0.35953 0.39989 0.0
H67 H 0.98603 0.32689 0.52247 0.0
H68 H 0.91562 0.39118 0.56111 0.0
C69 C 0.89888 0.3711 0.52699 0.0
O70 O 0.93579 0.38235 0.491 0.0
H71 H 0.88797 0.33261 0.53638 0.0
C72 C 0.96328 0.27217 0.40992 0.0
C73 C 0.98049 0.28118 0.45842 0.0
C74 C 0.9372 0.30061 0.38808 0.0
C75 C 0.9289 0.33856 0.41536 0.0
C76 C 0.94725 0.34839 0.46346 0.0
C77 C 0.97412 0.32047 0.48445 0.0
H78 H 0.38109 0.78088 0.16068 0.0
H79 H 0.36037 0.67236 0.26878 0.0
H80 H 0.48738 0.80238 0.28091 0.0
H81 H 0.51495 0.71412 0.31058 0.0
C82 C 0.47672 0.69113 0.3225 0.0
O83 O 0.44267 0.71777 0.32109 0.0
H84 H 0.46431 0.66119 0.29506 0.0
C85 C 0.39248 0.76855 0.19445 0.0
C86 C 0.43625 0.79848 0.21936 0.0
C87 C 0.36327 0.72351 0.21207 0.0
C88 C 0.38188 0.70653 0.25407 0.0
C89 C 0.42737 0.73403 0.27862 0.0
C90 C 0.45393 0.78024 0.26112 0.0
H91 H 0.10547 0.34747 0.84061 0.0
H92 H 0.2267 0.48201 0.82611 0.0
H93 H 0.21777 0.36628 0.72569 0.0
H94 H 0.31892 0.42 0.76591 0.0
C95 C 0.31757 0.45649 0.75803 0.0
O96 O 0.26749 0.45454 0.74813 0.0
H97 H 0.3311 0.47896 0.79162 0.0
C98 C 0.13941 0.36932 0.82245 0.0
C99 C 0.15768 0.35029 0.7799 0.0
C100 C 0.16383 0.41762 0.83988 0.0
C101 C 0.20732 0.44542 0.81424 0.0
C102 C 0.22659 0.42675 0.77344 0.0
C103 C 0.202 0.37976 0.75712 0.0
Tb104 Tb 0.11432 0.08938 0.60087 0.0
Tb105 Tb 1.00243 0.0604 0.65196 0.0
C106 C 1.02615 0.99332 0.56638 0.0
C107 C 0.24308 0.14916 0.54615 0.0
C108 C 0.31419 0.21709 0.49047 0.0
C109 C 0.32711 0.17882 0.51013 0.0
C110 C 0.29172 0.14507 0.53786 0.0
C111 C 0.23089 0.18871 0.52901 0.0
C112 C 0.26635 0.22258 0.50124 0.0
C113 C 0.2046 0.10987 0.56929 0.0
O114 O 0.07155 0.12123 0.55306 0.0
O115 O 1.0047 0.11864 0.60456 0.0
O116 O 0.05263 0.12049 0.69724 0.0
O117 O 0.11077 0.15522 0.63858 0.0
O118 O 0.9231 1.04616 0.64508 0.0
O119 O 0.95892 1.04715 0.71584 0.0
O120 O 0.03423 1.00494 0.67187 0.0
O121 O 0.11676 1.05208 0.66779 0.0
O122 O 0.07539 1.01742 0.56919 0.0
O123 O 0.99193 1.00732 0.59122 0.0
C124 C 0.031 0.13355 0.56484 0.0
O125 O 0.19333 0.11734 0.61442 0.0
O126 O 0.16396 0.08859 0.54303 0.0
C127 C 0.08802 0.15836 0.68046 0.0
C128 C 0.87856 0.99061 0.70223 0.0
C129 C 0.81246 0.90518 0.73798 0.0
C130 C 0.79757 0.94667 0.73769 0.0
C131 C 0.83054 0.98918 0.72007 0.0
C132 C 0.89189 0.94839 0.69851 0.0
C133 C 0.85896 0.9058 0.71634 0.0
C134 C 0.91591 1.03673 0.69136 0.0
C135 C 0.08274 1.01195 0.67986 0.0
H136 H 0.36371 0.17388 0.50215 0.0
H137 H 0.30157 0.11469 0.55108 0.0
H138 H 0.1933 0.19218 0.53522 0.0
H139 H 0.25519 0.25133 0.48571 0.0
H140 H 0.76216 0.94724 0.75466 0.0
H141 H 0.81969 1.02147 0.72281 0.0
H142 H 0.9288 0.94898 0.68426 0.0
H143 H 0.87114 0.87422 0.71606 0.0
Tb144 Tb 0.62839 0.07798 0.10405 0.0
Tb145 Tb 0.5148 0.06358 1.0571 0.0
C146 C 0.58586 1.00655 1.01868 0.0
C147 C 0.75477 0.12791 0.16384 0.0
C148 C 0.82409 0.2006 0.22039 0.0
C149 C 0.83236 0.15625 0.21252 0.0
C150 C 0.79792 0.12019 0.18439 0.0
C151 C 0.74734 0.1727 0.16981 0.0
C152 C 0.78177 0.20883 0.198 0.0
C153 C 0.71579 0.08808 0.13956 0.0
O154 O 0.63898 0.14484 1.06606 0.0
O155 O 0.56679 0.12424 1.01717 0.0
O156 O 0.52509 0.12306 0.10781 0.0
O157 O 0.59766 0.12325 0.15072 0.0
O158 O 0.47092 1.05665 0.99333 0.0
O159 O 0.43589 1.05216 1.0647 0.0
O160 O 0.50087 1.01466 0.11869 0.0
O161 O 0.58041 1.00653 0.12727 0.0
O162 O 0.6247 1.04296 1.03294 0.0
O163 O 0.53929 1.00422 1.0308 0.0
C164 C 0.61228 0.15405 1.02977 0.0
O165 O 0.67328 0.07143 0.1637 0.0
O166 O 0.70742 0.09338 0.09348 0.0
C167 C 0.5587 0.13906 0.14315 0.0
C168 C 0.38922 1.00182 1.00136 0.0
C169 C 0.32046 0.92092 0.95524 0.0
C170 C 0.30731 0.96304 0.96235 0.0
C171 C 0.34158 1.00328 0.98516 0.0
C172 C 0.40105 0.95884 0.99754 0.0
C173 C 0.36699 0.91868 0.97429 0.0
C174 C 0.42813 1.04613 1.0176 0.0
C175 C 0.53065 0.99089 0.13511 0.0
H176 H 0.8639 0.14849 0.2303 0.0
H177 H 0.80392 0.08566 0.18028 0.0
H178 H 0.71401 0.17911 0.15413 0.0
H179 H 0.77446 0.24261 0.20367 0.0
H180 H 0.27215 0.96601 0.94712 0.0
H181 H 0.33198 1.03621 0.98786 0.0
H182 H 0.43767 0.9571 1.01023 0.0
H183 H 0.37801 0.8867 0.96899 0.0
Tb184 Tb 0.57392 0.53273 0.55086 0.0
Tb185 Tb 0.58106 0.62808 0.61434 0.0
C186 C 0.53398 0.6126 0.50597 0.0
C187 C 0.62183 0.44395 0.49085 0.0
C188 C 0.71179 0.41729 0.48715 0.0
C189 C 0.66527 0.38469 0.50224 0.0
C190 C 0.62067 0.39788 0.50389 0.0
C191 C 0.66788 0.47589 0.47392 0.0
C192 C 0.71229 0.46261 0.47195 0.0
C193 C 0.57734 0.46045 0.50134 0.0
O194 O 0.64343 0.58742 0.52669 0.0
O195 O 0.66057 0.63881 0.59322 0.0
O196 O 0.60006 0.58021 0.66692 0.0
O197 O 0.62294 0.52948 0.61363 0.0
O198 O 0.60068 0.70291 0.62215 0.0
O199 O 0.56162 0.65724 0.67964 0.0
O200 O 0.50037 0.58561 0.61229 0.0
O201 O 0.50898 0.51187 0.60112 0.0
O202 O 0.52475 0.56613 0.51081 0.0
O203 O 0.56269 0.64272 0.53885 0.0
C204 C 0.67493 0.62333 0.55175 0.0
O205 O 0.56376 0.45888 0.54703 0.0
O206 O 0.57762 0.5005 0.48205 0.0
C207 C 0.61995 0.54532 0.65875 0.0
C208 C 0.53165 0.72073 0.66093 0.0
C209 C 0.4409 0.74618 0.66034 0.0
C210 C 0.46752 0.74691 0.70442 0.0
C211 C 0.51257 0.73426 0.70467 0.0
C212 C 0.50556 0.72095 0.61683 0.0
C213 C 0.46086 0.73371 0.61655 0.0
C214 C 0.57392 0.69995 0.66204 0.0
C215 C 0.48285 0.53929 0.618 0.0
H216 H 0.66385 0.34988 0.51521 0.0
H217 H 0.58583 0.3729 0.51767 0.0
H218 H 0.67029 0.5119 0.46407 0.0
H219 H 0.74752 0.48841 0.46005 0.0
H220 H 0.45259 0.75557 0.73883 0.0
H221 H 0.53147 0.73335 0.73921 0.0
H222 H 0.51877 0.70983 0.58262 0.0
H223 H 0.44139 0.73311 0.58199 0.0
Tb224 Tb 0.06962 0.60925 1.05357 0.0
Tb225 Tb 0.06562 0.5202 0.12081 0.0
C226 C 0.10468 0.5213 1.01043 0.0
C227 C 1.0143 0.69554 1.01028 0.0
C228 C 0.91922 0.71219 1.01939 0.0
C229 C 0.94143 0.7116 0.97309 0.0
C230 C 0.98854 0.7031 0.96857 0.0
C231 C 0.99314 0.69844 1.05669 0.0
C232 C 0.9462 0.70684 1.06119 0.0
C233 C 0.05761 0.67642 1.00527 0.0
O234 O 0.98877 0.56704 1.05887 0.0
O235 O 0.99698 0.49435 0.07416 0.0
O236 O 1.02075 0.55902 0.16227 0.0
O237 O 0.05635 0.63181 0.12854 0.0
O238 O 0.06045 0.44781 0.12788 0.0
O239 O 0.06824 0.49414 0.19129 0.0
O240 O 0.13886 0.57474 0.13936 0.0
O241 O 0.14994 0.62654 0.07584 0.0
O242 O 0.08818 0.55798 1.00178 0.0
O243 O 0.10781 0.50799 1.05575 0.0
C244 C 0.97041 0.52022 1.05602 0.0
O245 O 0.08851 0.68322 1.04275 0.0
O246 O 0.04501 0.63246 0.98869 0.0
C247 C 0.03062 0.60595 0.16427 0.0
C248 C 0.11865 0.44266 0.1883 0.0
C249 C 0.21077 0.42221 0.2042 0.0
C250 C 0.16419 0.38495 0.19815 0.0
C251 C 0.11851 0.39513 0.18996 0.0
C252 C 0.16495 0.4798 0.1956 0.0
C253 C 0.21048 0.4697 0.20344 0.0
C254 C 0.07204 0.45377 0.1742 0.0
C255 C 0.16713 0.61196 0.11555 0.0
H256 H 0.92132 0.71565 0.94028 0.0
H257 H 1.00367 0.70025 0.93244 0.0
H258 H 1.01179 0.69227 0.08956 0.0
H259 H 0.93046 0.70813 0.09734 0.0
H260 H 0.16303 0.34795 0.19989 0.0
H261 H 0.08329 0.36597 0.18422 0.0
H262 H 0.16624 0.5168 0.19446 0.0
H263 H 0.24567 0.49912 0.2081 0.0
C264 C 0.38319 0.24862 0.37101 0.0
C265 C 0.39421 0.29852 0.37 0.0
C266 C 0.35998 0.223 0.41159 0.0
C267 C 0.3467 0.24628 0.45253 0.0
H268 H 0.38963 0.22876 0.3391 0.0
H269 H 0.34962 0.18436 0.40966 0.0
S270 S 0.37447 0.37694 0.47124 0.0
N271 N 0.39576 0.37089 0.41571 0.0
N272 N 0.35108 0.32225 0.49206 0.0
C273 C 0.36025 0.29635 0.45335 0.0
C274 C 0.38432 0.32259 0.41206 0.0
C275 C 0.28618 0.84951 0.83754 0.0
C276 C 0.23244 0.83617 0.83738 0.0
C277 C 0.31465 0.87287 0.87834 0.0
C278 C 0.2903 0.88373 0.92021 0.0
H279 H 0.30658 0.84591 0.80454 0.0
H280 H 0.35593 0.88631 0.87528 0.0
S281 S 0.1507 0.84581 0.94246 0.0
N282 N 0.156 0.82723 0.88577 0.0
N283 N 0.20978 0.87193 0.96245 0.0
C284 C 0.23673 0.86585 0.92252 0.0
C285 C 0.20772 0.84178 0.88108 0.0
C286 C 0.65368 0.52176 0.79129 0.0
C287 C 0.66182 0.47663 0.78892 0.0
C288 C 0.64199 0.5439 0.74939 0.0
C289 C 0.63748 0.52237 0.70212 0.0
H290 H 0.65461 0.53973 0.82649 0.0
H291 H 0.63527 0.57799 0.75452 0.0
S292 S 0.65469 0.40394 0.67458 0.0
N293 N 0.66393 0.4111 0.73439 0.0
N294 N 0.64311 0.45249 0.65596 0.0
C295 C 0.64659 0.47758 0.69887 0.0
C296 C 0.65816 0.45482 0.74189 0.0
C297 C 1.01154 0.70775 0.24739 0.0
C298 C 0.97857 0.68455 0.28511 0.0
C299 C 0.02826 0.68219 0.20975 0.0
C300 C 1.01314 0.63157 0.2071 0.0
H301 H 1.02324 0.74636 0.2458 0.0
H302 H 0.05278 0.70274 0.1818 0.0
S303 S 0.92851 0.55279 0.2978 0.0
N304 N 0.93254 0.60727 0.31777 0.0
N305 N 0.96401 0.55945 0.24808 0.0
C306 C 0.98138 0.60782 0.24552 0.0
C307 C 0.96423 0.63406 0.28395 0.0
C308 C 0.58668 0.26746 0.18505 0.0
C309 C 0.54007 0.26743 0.20633 0.0
C310 C 0.59414 0.22484 0.1679 0.0
C311 C 0.55516 0.18088 0.17147 0.0
H312 H 0.61691 0.30088 0.18006 0.0
H313 H 0.62944 0.22662 0.14926 0.0
S314 S 0.42947 0.15968 0.23087 0.0
N315 N 0.45713 0.21806 0.23597 0.0
N316 N 0.47074 0.13867 0.20166 0.0
C317 C 0.50978 0.17979 0.1952 0.0
C318 C 0.50244 0.22288 0.21349 0.0
C319 C 0.16549 0.93159 0.69073 0.0
C320 C 0.13428 0.89246 0.71612 0.0
C321 C 0.14893 0.97069 0.68074 0.0
C322 C 0.10024 0.97184 0.69525 0.0
H323 H 0.20339 0.93228 0.67921 0.0
H324 H 0.17426 0.99981 0.66059 0.0
S325 S 1.00419 0.87775 0.76316 0.0
N326 N 0.05313 0.857 0.75646 0.0
N327 N 1.02095 0.93005 0.73646 0.0
C328 C 0.06849 0.93263 0.72054 0.0
C329 C 0.08582 0.89306 0.73138 0.0
C330 C 0.85707 0.42235 0.99673 0.0
C331 C 0.82575 0.44717 0.97635 0.0
C332 C 0.90246 0.44598 1.023 0.0
C333 C 0.91986 0.49606 1.03017 0.0
H334 H 0.84695 0.38393 0.99186 0.0
H335 H 0.92452 0.42452 1.03719 0.0
S336 S 0.85386 0.5791 0.98363 0.0
N337 N 0.81639 0.5257 0.96576 0.0
N338 N 0.90212 0.57007 1.01326 0.0
C339 C 0.88946 0.52168 1.00958 0.0
C340 C 0.84271 0.49742 0.98314 0.0
C341 C 0.78329 0.66987 0.45898 0.0
C342 C 0.82469 0.69854 0.48761 0.0
C343 C 0.73572 0.64515 0.48007 0.0
C344 C 0.72689 0.64817 0.53084 0.0
H345 H 0.78713 0.66746 0.41965 0.0
H346 H 0.70512 0.62442 0.45602 0.0
S347 S 0.82423 0.71309 0.6233 0.0
N348 N 0.8547 0.72385 0.57073 0.0
N349 N 0.7654 0.67932 0.60956 0.0
C350 C 0.76835 0.67543 0.56009 0.0
C351 C 0.81701 0.69998 0.53878 0.0
C352 C 0.33591 0.42343 0.2633 0.0
C353 C 0.34898 0.38751 0.23668 0.0
C354 C 0.29205 0.43547 0.25154 0.0
C355 C 0.25947 0.41188 0.21283 0.0
H356 H 0.35853 0.44082 0.29488 0.0
H357 H 0.28241 0.46196 0.27434 0.0
S358 S 0.27935 0.31863 0.12874 0.0
N359 N 0.32761 0.33059 0.16794 0.0
N360 N 0.24589 0.35421 0.14499 0.0
C361 C 0.27363 0.3778 0.18422 0.0
C362 C 0.31831 0.36551 0.19622 0.0
C363 C 0.6266 0.27198 0.96239 0.0
C364 C 0.68019 0.29292 0.95809 0.0
C365 C 0.60457 0.22664 0.98395 0.0
C366 C 0.63505 0.2002 1.00272 0.0
H367 H 0.60145 0.29145 0.95052 0.0
H368 H 0.56338 0.21302 0.98749 0.0
S369 S 0.77663 0.23489 0.99408 0.0
N370 N 0.76234 0.27965 0.96931 0.0
N371 N 0.7216 0.19691 1.01099 0.0
C372 C 0.68836 0.21985 0.99674 0.0
C373 C 0.71062 0.26527 0.97419 0.0
C374 C 0.99512 0.89407 0.46426 0.0
C375 C 0.97218 0.85163 0.48999 0.0
C376 C 1.01343 0.93966 0.4887 0.0
C377 C 1.00898 0.94509 0.53994 0.0
H378 H 0.99756 0.89231 0.42476 0.0
H379 H 0.02992 0.97104 0.46713 0.0
S380 S 0.95956 0.84584 0.6257 0.0
N381 N 0.95283 0.81889 0.5713 0.0
N382 N 0.98423 0.9035 0.61565 0.0
C383 C 0.98808 0.90304 0.56609 0.0
C384 C 0.9706 0.85684 0.54167 0.0
C385 C 0.30382 0.73625 0.62754 0.0
C386 C 0.29812 0.77846 0.64802 0.0
C387 C 0.34963 0.72555 0.63295 0.0
C388 C 0.39136 0.7565 0.6594 0.0
H389 H 0.2731 0.71199 0.60598 0.0
H390 H 0.35268 0.69306 0.61569 0.0
S391 S 0.39396 0.86964 0.72368 0.0
N392 N 0.33632 0.84971 0.69863 0.0
N393 N 0.4228 0.82992 0.70854 0.0
C394 C 0.3852 0.79771 0.68207 0.0
C395 C 0.33846 0.80858 0.6765 0.0
C396 C 0.70234 0.82429 0.80669 0.0
C397 C 0.72646 0.81945 0.8508 0.0
C398 C 0.73093 0.84759 0.76705 0.0
C399 C 0.78454 0.86599 0.76997 0.0
H400 H 0.66098 0.81384 0.80438 0.0
H401 H 0.71085 0.8548 0.73559 0.0
S402 S 0.86673 0.85509 0.87347 0.0
N403 N 0.80771 0.82965 0.89228 0.0
N404 N 0.86105 0.87183 0.81722 0.0
C405 C 0.80933 0.85605 0.8113 0.0
C406 C 0.78034 0.83306 0.85194 0.0
C407 C 0.85825 0.27611 0.33651 0.0
C408 C 0.91136 0.28499 0.34029 0.0
C409 C 0.8307 0.25157 0.29574 0.0
C410 C 0.85535 0.23513 0.25729 0.0
H411 H 0.8373 0.28527 0.36667 0.0
H412 H 0.78941 0.24266 0.29593 0.0
S413 S 0.99508 0.25765 0.2454 0.0
N414 N 0.98856 0.28153 0.29935 0.0
N415 N 0.9367 0.23547 0.22231 0.0
C416 C 0.90896 0.24726 0.2588 0.0
C417 C 0.93699 0.2722 0.3004 0.0
C418 C 0.51525 0.70077 0.40982 0.0
C419 C 0.48317 0.67131 0.3735 0.0
C420 C 0.52992 0.68181 0.45268 0.0
C421 C 0.51374 0.63213 0.46171 0.0
H422 H 0.53096 0.73881 0.4041 0.0
H423 H 0.55568 0.70648 0.47827 0.0
S424 S 0.42565 0.53932 0.38032 0.0
N425 N 0.43294 0.58968 0.35164 0.0
N426 N 0.46035 0.55436 0.43092 0.0
C427 C 0.47987 0.6025 0.42657 0.0
C428 C 0.46469 0.62189 0.38312 0.0
C429 C 0.1393 0.48717 0.87948 0.0
C430 C 0.14491 0.44118 0.88347 0.0
C431 C 0.12638 0.51228 0.91997 0.0
C432 C 0.11921 0.49357 0.96754 0.0
H433 H 0.14512 0.50423 0.84438 0.0
H434 H 0.1226 0.54717 0.91383 0.0
S435 S 0.1293 0.3745 0.999 0.0
N436 N 0.14161 0.37805 0.9398 0.0
N437 N 0.11836 0.42475 1.01537 0.0
C438 C 0.12451 0.44744 0.97209 0.0
C439 C 0.13691 0.42154 0.93051 0.0
C440 C 0.65546 0.93096 0.95395 0.0
C441 C 0.6271 0.88417 0.96679 0.0
C442 C 0.64046 0.97024 0.969 0.0
C443 C 0.59615 0.96419 0.99689 0.0
H444 H 0.6908 0.93753 0.93378 0.0
H445 H 0.66451 1.00574 0.95982 0.0
S446 S 0.50749 0.84885 1.03863 0.0
N447 N 0.55202 0.83374 1.00787 0.0
N448 N 0.52309 0.9076 1.03575 0.0
C449 C 0.56631 0.91741 1.00851 0.0
C450 C 0.58209 0.8774 0.99373 0.0
C451 C 0.03931 0.2332 0.47573 0.0
C452 C 0.99376 0.2437 0.48501 0.0
C453 C 0.05084 0.19675 0.50088 0.0
C454 C 1.01679 0.16934 0.53554 0.0
H455 H 0.06633 0.25363 0.44941 0.0
H456 H 0.087 0.19061 0.49365 0.0
S457 S 0.88975 0.18066 0.56835 0.0
N458 N 0.91319 0.22271 0.52823 0.0
N459 N 0.93364 0.15381 0.57476 0.0
C460 C 0.97024 0.17889 0.5436 0.0
C461 C 0.95903 0.21616 0.51849 0.0
C462 C 0.29761 0.64479 0.18213 0.0
C463 C 0.31298 0.69526 0.18689 0.0
C464 C 0.2512 0.61821 0.15847 0.0
C465 C 0.21818 0.64068 0.13735 0.0
H466 H 0.32178 0.62545 0.19652 0.0
H467 H 0.24129 0.57964 0.15636 0.0
S468 S 0.23622 0.77082 0.14362 0.0
N469 N 0.28711 0.76566 0.17187 0.0
N470 N 0.20266 0.71615 0.12544 0.0
C471 C 0.23266 0.69081 0.14197 0.0
C472 C 0.2791 0.71784 0.1671 0.0
C473 C 0.37824 0.44882 0.68993 0.0
C474 C 0.35386 0.47735 0.71603 0.0
C475 C 0.41799 0.46872 0.6567 0.0
C476 C 0.43536 0.51818 0.6478 0.0
H477 H 0.3679 0.41093 0.6967 0.0
H478 H 0.43646 0.44517 0.63919 0.0
S479 S 0.38084 0.60799 0.70357 0.0
N480 N 0.34759 0.5571 0.72823 0.0
N481 N 0.4216 0.59467 0.66591 0.0
C482 C 0.40932 0.54674 0.67184 0.0
C483 C 0.36887 0.52634 0.70578 0.0
C484 C 0.80664 0.75862 1.00278 0.0
C485 C 0.76689 0.7259 1.02855 0.0
C486 C 0.85566 0.754 1.00019 0.0
C487 C 0.86731 0.71695 1.02384 0.0
H488 H 0.80034 0.78835 0.98448 0.0
H489 H 0.88482 0.77989 0.97978 0.0
S490 S 0.77753 0.62178 0.09591 0.0
N491 N 0.74266 0.6547 0.0774 0.0
N492 N 0.83547 0.64699 0.07414 0.0
C493 C 0.82839 0.68436 1.05031 0.0
C494 C 0.7781 0.68853 1.05212 0.0
C495 C 0.51423 0.86813 0.19361 0.0
C496 C 0.46107 0.8492 0.20178 0.0
C497 C 0.53645 0.91387 0.17312 0.0
C498 C 0.50681 0.94337 0.16001 0.0
H499 H 0.53878 0.84684 0.20173 0.0
H500 H 0.57727 0.92575 0.16665 0.0
S501 S 0.36618 0.91243 0.17777 0.0
N502 N 0.38003 0.86559 0.19791 0.0
N503 N 0.42091 0.94997 0.15956 0.0
C504 C 0.45378 0.92523 0.16942 0.0
C505 C 0.43131 0.87886 0.19016 0.0
C506 C 0.12106 0.25811 0.78272 0.0
C507 C 0.13187 0.30086 0.75637 0.0
C508 C 0.1054 0.21214 0.75869 0.0
C509 C 0.10066 0.2067 0.70708 0.0
H510 H 0.12668 0.26016 0.82201 0.0
H511 H 0.09889 0.18072 0.78062 0.0
S512 S 0.11624 0.3061 0.62151 0.0
N513 N 0.12977 0.33321 0.6757 0.0
N514 N 0.10284 0.24848 0.63145 0.0
C515 C 0.10898 0.24897 0.68082 0.0
C516 C 0.12381 0.29533 0.70509 0.0
C517 C 0.84762 0.42843 0.52558 0.0
C518 C 0.85212 0.38366 0.51195 0.0
C519 C 0.80262 0.43939 0.51606 0.0
C520 C 0.76057 0.40611 0.49217 0.0
H521 H 0.87853 0.45461 0.54515 0.0
H522 H 0.80013 0.47361 0.52908 0.0
S523 S 0.75571 0.28598 0.44388 0.0
N524 N 0.81272 0.30726 0.47003 0.0
N525 N 0.72823 0.3281 0.45131 0.0
C526 C 0.76561 0.36205 0.47625 0.0
C527 C 0.81147 0.35088 0.4861 0.0
loop_
_geom_bond_atom_site_label_1
_geom_bond_atom_site_label_2
_geom_bond_distance
_geom_bond_site_symmetry_2
_ccdc_geom_bond_type
H0 C7 0.929 . S
H1 C10 0.930 . S
H2 C12 0.929 . S
H3 C4 0.969 . S
C4 H3 0.969 . S
C4 O5 1.550 . S
C4 H6 0.973 . S
O5 C4 1.550 . S
O5 C11 1.412 . S
H6 C4 0.973 . S
C7 H0 0.929 . S
C7 C8 1.400 . S
C7 C9 1.364 . S
C8 C7 1.400 . S
C8 C12 1.377 . S
C9 C7 1.364 . S
C9 C10 1.374 . S
C10 H1 0.930 . S
C10 C9 1.374 . S
C10 C11 1.383 . S
C11 O5 1.412 . S
C11 C10 1.383 . S
C11 C12 1.394 . S
C12 H2 0.929 . S
C12 C8 1.377 . S
C12 C11 1.394 . S
H13 C20 0.929 . S
H14 C23 0.930 . S
H15 C25 0.929 . S
H16 C17 0.969 . S
C17 H16 0.969 . S
C17 O18 1.550 . S
C17 H19 0.973 . S
O18 C17 1.550 . S
O18 C24 1.412 . S
H19 C17 0.973 . S
C20 H13 0.929 . S
C20 C21 1.400 . S
C20 C22 1.364 . S
C21 C20 1.400 . S
C21 C25 1.377 . S
C22 C20 1.364 . S
C22 C23 1.374 . S
C23 H14 0.930 . S
C23 C22 1.374 . S
C23 C24 1.383 . S
C24 O18 1.412 . S
C24 C23 1.383 . S
C24 C25 1.394 . S
C25 H15 0.929 . S
C25 C21 1.377 . S
C25 C24 1.394 . S
H26 C33 0.929 . S
H27 C36 0.930 . S
H28 C38 0.929 . S
H29 C30 0.969 . S
C30 H29 0.969 . S
C30 O31 1.550 . S
C30 H32 0.973 . S
O31 C30 1.550 . S
O31 C37 1.412 . S
H32 C30 0.973 . S
C33 H26 0.929 . S
C33 C34 1.400 . S
C33 C35 1.364 . S
C34 C33 1.400 . S
C34 C38 1.377 . S
C35 C33 1.364 . S
C35 C36 1.374 . S
C36 H27 0.930 . S
C36 C35 1.374 . S
C36 C37 1.383 . S
C37 O31 1.412 . S
C37 C36 1.383 . S
C37 C38 1.394 . S
C38 H28 0.929 . S
C38 C34 1.377 . S
C38 C37 1.394 . S
H39 C46 0.929 . S
H40 C49 0.930 . S
H41 C51 0.929 . S
H42 C43 0.969 . S
C43 H42 0.969 . S
C43 O44 1.550 . S
C43 H45 0.973 . S
O44 C43 1.550 . S
O44 C50 1.412 . S
H45 C43 0.973 . S
C46 H39 0.929 . S
C46 C47 1.400 . S
C46 C48 1.364 . S
C47 C46 1.400 . S
C47 C51 1.377 . S
C48 C46 1.364 . S
C48 C49 1.374 . S
C49 H40 0.930 . S
C49 C48 1.374 . S
C49 C50 1.383 . S
C50 O44 1.412 . S
C50 C49 1.383 . S
C50 C51 1.394 . S
C51 H41 0.929 . S
C51 C47 1.377 . S
C51 C50 1.394 . S
H52 C59 0.929 . S
H53 C62 0.930 . S
H54 C64 0.929 . S
H55 C56 0.969 . S
C56 H55 0.969 . S
C56 O57 1.550 . S
C56 H58 0.973 . S
O57 C56 1.550 . S
O57 C63 1.412 . S
H58 C56 0.973 . S
C59 H52 0.929 . S
C59 C60 1.400 . S
C59 C61 1.364 . S
C60 C59 1.400 . S
C60 C64 1.377 . S
C61 C59 1.364 . S
C61 C62 1.374 . S
C62 H53 0.930 . S
C62 C61 1.374 . S
C62 C63 1.383 . S
C63 O57 1.412 . S
C63 C62 1.383 . S
C63 C64 1.394 . S
C64 H54 0.929 . S
C64 C60 1.377 . S
C64 C63 1.394 . S
H65 C72 0.929 . S
H66 C75 0.930 . S
H67 C77 0.929 . S
H68 C69 0.969 . S
C69 H68 0.969 . S
C69 O70 1.550 . S
C69 H71 0.973 . S
O70 C69 1.550 . S
O70 C76 1.412 . S
H71 C69 0.973 . S
C72 H65 0.929 . S
C72 C73 1.400 . S
C72 C74 1.364 . S
C73 C72 1.400 . S
C73 C77 1.377 . S
C74 C72 1.364 . S
C74 C75 1.374 . S
C75 H66 0.930 . S
C75 C74 1.374 . S
C75 C76 1.383 . S
C76 O70 1.412 . S
C76 C75 1.383 . S
C76 C77 1.394 . S
C77 H67 0.929 . S
C77 C73 1.377 . S
C77 C76 1.394 . S
H78 C85 0.929 . S
H79 C88 0.930 . S
H80 C90 0.929 . S
H81 C82 0.969 . S
C82 H81 0.969 . S
C82 O83 1.550 . S
C82 H84 0.973 . S
O83 C82 1.550 . S
O83 C89 1.412 . S
H84 C82 0.973 . S
C85 H78 0.929 . S
C85 C86 1.400 . S
C85 C87 1.364 . S
C86 C85 1.400 . S
C86 C90 1.377 . S
C87 C85 1.364 . S
C87 C88 1.374 . S
C88 H79 0.930 . S
C88 C87 1.374 . S
C88 C89 1.383 . S
C89 O83 1.412 . S
C89 C88 1.383 . S
C89 C90 1.394 . S
C90 H80 0.929 . S
C90 C86 1.377 . S
C90 C89 1.394 . S
H91 C98 0.929 . S
H92 C101 0.930 . S
H93 C103 0.929 . S
H94 C95 0.969 . S
C95 H94 0.969 . S
C95 O96 1.550 . S
C95 H97 0.973 . S
O96 C95 1.550 . S
O96 C102 1.412 . S
H97 C95 0.973 . S
C98 H91 0.929 . S
C98 C99 1.400 . S
C98 C100 1.364 . S
C99 C98 1.400 . S
C99 C103 1.377 . S
C100 C98 1.364 . S
C100 C101 1.374 . S
C101 H92 0.930 . S
C101 C100 1.374 . S
C101 C102 1.383 . S
C102 O96 1.412 . S
C102 C101 1.383 . S
C102 C103 1.394 . S
C103 H93 0.929 . S
C103 C99 1.377 . S
C103 C102 1.394 . S
Tb104 C113 2.764 . S
Tb104 O114 2.325 . S
Tb104 O117 2.303 . S
Tb104 O121 2.322 1_545 S
Tb104 O122 2.349 1_545 S
Tb104 O125 2.415 . S
Tb104 O126 2.399 . S
Tb105 O115 2.322 . S
Tb105 O116 2.343 1_655 S
Tb105 O118 2.415 1_545 S
Tb105 O119 2.399 . S
Tb105 O120 2.325 1_645 S
Tb105 O123 2.303 1_545 S
Tb105 C134 2.764 1_545 S
C106 O122 1.261 1_655 S
C106 O123 1.257 . S
C107 C110 1.358 . S
C107 C111 1.332 . S
C107 C113 1.504 . S
C108 C109 1.373 . S
C108 C112 1.308 . S
C109 C108 1.373 . S
C109 C110 1.429 . S
C109 H136 0.932 . S
C110 C107 1.358 . S
C110 C109 1.429 . S
C110 H137 0.930 . S
C111 C107 1.332 . S
C111 C112 1.394 . S
C111 H138 0.932 . S
C112 C108 1.308 . S
C112 C111 1.394 . S
C112 H139 0.929 . S
C113 Tb104 2.764 . S
C113 C107 1.504 . S
C113 O125 1.239 . S
C113 O126 1.263 . S
O114 Tb104 2.325 . S
O114 C124 1.236 1_455 S
O115 Tb105 2.322 . S
O115 C124 1.257 . S
O116 Tb105 2.343 1_455 S
O116 C127 1.276 . S
O117 Tb104 2.303 . S
O117 C127 1.257 . S
O118 Tb105 2.415 1_565 S
O118 C134 1.239 . S
O119 Tb105 2.399 . S
O119 C134 1.263 1_545 S
O120 Tb105 2.325 1_465 S
O120 C135 1.236 . S
O121 Tb104 2.322 1_565 S
O121 C135 1.257 . S
O122 Tb104 2.349 1_565 S
O122 C106 1.261 1_455 S
O123 Tb105 2.303 1_565 S
O123 C106 1.257 . S
C124 O114 1.236 1_655 S
C124 O115 1.257 . S
O125 Tb104 2.415 . S
O125 C113 1.239 . S
O126 Tb104 2.399 . S
O126 C113 1.263 . S
C127 O116 1.276 . S
C127 O117 1.257 . S
C128 C131 1.358 . S
C128 C132 1.332 . S
C128 C134 1.504 . S
C129 C130 1.373 . S
C129 C133 1.308 . S
C130 C129 1.373 . S
C130 C131 1.429 . S
C130 H140 0.932 . S
C131 C128 1.358 . S
C131 C130 1.429 . S
C131 H141 0.930 . S
C132 C128 1.332 . S
C132 C133 1.394 . S
C132 H142 0.932 . S
C133 C129 1.308 . S
C133 C132 1.394 . S
C133 H143 0.929 . S
C134 Tb105 2.764 1_565 S
C134 O118 1.239 . S
C134 O119 1.263 1_565 S
C134 C128 1.504 . S
C135 O120 1.236 . S
C135 O121 1.257 . S
H136 C109 0.932 . S
H137 C110 0.930 . S
H138 C111 0.932 . S
H139 C112 0.929 . S
H140 C130 0.932 . S
H141 C131 0.930 . S
H142 C132 0.932 . S
H143 C133 0.929 . S
Tb144 C153 2.764 . S
Tb144 O154 2.325 . S
Tb144 O157 2.303 . S
Tb144 O161 2.322 1_545 S
Tb144 O162 2.349 1_545 S
Tb144 O165 2.415 . S
Tb144 O166 2.399 . S
Tb145 O155 2.322 . S
Tb145 O156 2.349 1_556 S
Tb145 O158 2.415 1_545 S
Tb145 O159 2.399 1_545 S
Tb145 O160 2.325 1_546 S
Tb145 O163 2.303 1_545 S
Tb145 C174 2.764 1_545 S
C146 O162 1.261 1_556 S
C146 O163 1.257 . S
C147 C150 1.358 . S
C147 C151 1.332 . S
C147 C153 1.504 . S
C148 C149 1.373 . S
C148 C152 1.308 . S
C149 C148 1.373 . S
C149 C150 1.429 . S
C149 H176 0.932 . S
C150 C147 1.358 . S
C150 C149 1.429 . S
C150 H177 0.930 . S
C151 C147 1.332 . S
C151 C152 1.394 . S
C151 H178 0.932 . S
C152 C148 1.308 . S
C152 C151 1.394 . S
C152 H179 0.929 . S
C153 Tb144 2.764 . S
C153 C147 1.504 . S
C153 O165 1.239 . S
C153 O166 1.263 . S
O154 Tb144 2.325 . S
O154 C164 1.236 1_554 S
O155 Tb145 2.322 . S
O155 C164 1.257 . S
O156 Tb145 2.349 1_554 S
O156 C167 1.261 . S
O157 Tb144 2.303 . S
O157 C167 1.257 . S
O158 Tb145 2.415 1_565 S
O158 C174 1.239 . S
O159 Tb145 2.399 1_565 S
O159 C174 1.263 . S
O160 Tb145 2.325 1_564 S
O160 C175 1.236 . S
O161 Tb144 2.322 1_565 S
O161 C175 1.257 . S
O162 Tb144 2.349 1_565 S
O162 C146 1.261 1_554 S
O163 Tb145 2.303 1_565 S
O163 C146 1.257 . S
C164 O154 1.236 1_556 S
C164 O155 1.257 . S
O165 Tb144 2.415 . S
O165 C153 1.239 . S
O166 Tb144 2.399 . S
O166 C153 1.263 . S
C167 O156 1.261 . S
C167 O157 1.257 . S
C168 C171 1.358 . S
C168 C172 1.332 . S
C168 C174 1.504 . S
C169 C170 1.373 . S
C169 C173 1.308 . S
C170 C169 1.373 . S
C170 C171 1.429 . S
C170 H180 0.932 . S
C171 C168 1.358 . S
C171 C170 1.429 . S
C171 H181 0.930 . S
C172 C168 1.332 . S
C172 C173 1.394 . S
C172 H182 0.932 . S
C173 C169 1.308 . S
C173 C172 1.394 . S
C173 H183 0.929 . S
C174 Tb145 2.764 1_565 S
C174 O158 1.239 . S
C174 O159 1.263 . S
C174 C168 1.504 . S
C175 O160 1.236 . S
C175 O161 1.257 . S
H176 C149 0.932 . S
H177 C150 0.930 . S
H178 C151 0.932 . S
H179 C152 0.929 . S
H180 C170 0.932 . S
H181 C171 0.930 . S
H182 C172 0.932 . S
H183 C173 0.929 . S
Tb184 C193 2.764 . S
Tb184 O194 2.325 . S
Tb184 O197 2.303 . S
Tb184 O201 2.322 . S
Tb184 O202 2.349 . S
Tb184 O205 2.415 . S
Tb184 O206 2.399 . S
Tb185 O195 2.322 . S
Tb185 O196 2.349 . S
Tb185 O198 2.415 . S
Tb185 O199 2.399 . S
Tb185 O200 2.325 . S
Tb185 O203 2.303 . S
Tb185 C214 2.764 . S
C186 O202 1.261 . S
C186 O203 1.257 . S
C187 C190 1.358 . S
C187 C191 1.332 . S
C187 C193 1.504 . S
C188 C189 1.373 . S
C188 C192 1.308 . S
C189 C188 1.373 . S
C189 C190 1.429 . S
C189 H216 0.932 . S
C190 C187 1.358 . S
C190 C189 1.429 . S
C190 H217 0.930 . S
C191 C187 1.332 . S
C191 C192 1.394 . S
C191 H218 0.932 . S
C192 C188 1.308 . S
C192 C191 1.394 . S
C192 H219 0.929 . S
C193 Tb184 2.764 . S
C193 C187 1.504 . S
C193 O205 1.239 . S
C193 O206 1.263 . S
O194 Tb184 2.325 . S
O194 C204 1.236 . S
O195 Tb185 2.322 . S
O195 C204 1.257 . S
O196 Tb185 2.349 . S
O196 C207 1.261 . S
O197 Tb184 2.303 . S
O197 C207 1.257 . S
O198 Tb185 2.415 . S
O198 C214 1.239 . S
O199 Tb185 2.399 . S
O199 C214 1.263 . S
O200 Tb185 2.325 . S
O200 C215 1.236 . S
O201 Tb184 2.322 . S
O201 C215 1.257 . S
O202 Tb184 2.349 . S
O202 C186 1.261 . S
O203 Tb185 2.303 . S
O203 C186 1.257 . S
C204 O194 1.236 . S
C204 O195 1.257 . S
O205 Tb184 2.415 . S
O205 C193 1.239 . S
O206 Tb184 2.399 . S
O206 C193 1.263 . S
C207 O196 1.261 . S
C207 O197 1.257 . S
C208 C211 1.358 . S
C208 C212 1.332 . S
C208 C214 1.504 . S
C209 C210 1.373 . S
C209 C213 1.308 . S
C210 C209 1.373 . S
C210 C211 1.429 . S
C210 H220 0.932 . S
C211 C208 1.358 . S
C211 C210 1.429 . S
C211 H221 0.930 . S
C212 C208 1.332 . S
C212 C213 1.394 . S
C212 H222 0.932 . S
C213 C209 1.308 . S
C213 C212 1.394 . S
C213 H223 0.929 . S
C214 Tb185 2.764 . S
C214 O198 1.239 . S
C214 O199 1.263 . S
C214 C208 1.504 . S
C215 O200 1.236 . S
C215 O201 1.257 . S
H216 C189 0.932 . S
H217 C190 0.930 . S
H218 C191 0.932 . S
H219 C192 0.929 . S
H220 C210 0.932 . S
H221 C211 0.930 . S
H222 C212 0.932 . S
H223 C213 0.929 . S
Tb224 C233 2.764 1_454 S
Tb224 O234 2.325 1_455 S
Tb224 O237 2.303 . S
Tb224 O241 2.322 . S
Tb224 O242 2.349 1_554 S
Tb224 O245 2.415 1_455 S
Tb224 O246 2.399 1_454 S
Tb225 O235 2.322 1_455 S
Tb225 O236 2.349 1_455 S
Tb225 O238 2.415 . S
Tb225 O239 2.399 . S
Tb225 O240 2.325 . S
Tb225 O243 2.303 . S
Tb225 C254 2.764 . S
C226 O242 1.261 . S
C226 O243 1.257 1_556 S
C227 C230 1.358 . S
C227 C231 1.332 . S
C227 C233 1.504 . S
C228 C229 1.373 . S
C228 C232 1.308 . S
C229 C228 1.373 . S
C229 C230 1.429 . S
C229 H256 0.932 . S
C230 C227 1.358 . S
C230 C229 1.429 . S
C230 H257 0.930 . S
C231 C227 1.332 . S
C231 C232 1.394 . S
C231 H258 0.932 1_556 S
C232 C228 1.308 . S
C232 C231 1.394 . S
C232 H259 0.929 . S
C233 Tb224 2.764 1_656 S
C233 C227 1.504 . S
C233 O245 1.239 1_556 S
C233 O246 1.263 . S
O234 Tb224 2.325 1_655 S
O234 C244 1.236 . S
O235 Tb225 2.322 1_655 S
O235 C244 1.257 . S
O236 Tb225 2.349 1_655 S
O236 C247 1.261 . S
O237 Tb224 2.303 . S
O237 C247 1.257 1_455 S
O238 Tb225 2.415 . S
O238 C254 1.239 . S
O239 Tb225 2.399 . S
O239 C254 1.263 . S
O240 Tb225 2.325 . S
O240 C255 1.236 . S
O241 Tb224 2.322 . S
O241 C255 1.257 . S
O242 Tb224 2.349 1_556 S
O242 C226 1.261 . S
O243 Tb225 2.303 . S
O243 C226 1.257 1_554 S
C244 O234 1.236 . S
C244 O235 1.257 . S
O245 Tb224 2.415 1_655 S
O245 C233 1.239 1_554 S
O246 Tb224 2.399 1_656 S
O246 C233 1.263 . S
C247 O236 1.261 . S
C247 O237 1.257 1_655 S
C248 C251 1.358 . S
C248 C252 1.332 . S
C248 C254 1.504 . S
C249 C250 1.373 . S
C249 C253 1.308 . S
C250 C249 1.373 . S
C250 C251 1.429 . S
C250 H260 0.932 . S
C251 C248 1.358 . S
C251 C250 1.429 . S
C251 H261 0.930 . S
C252 C248 1.332 . S
C252 C253 1.394 . S
C252 H262 0.932 . S
C253 C249 1.308 . S
C253 C252 1.394 . S
C253 H263 0.929 . S
C254 Tb225 2.764 . S
C254 O238 1.239 . S
C254 O239 1.263 . S
C254 C248 1.504 . S
C255 O240 1.236 . S
C255 O241 1.257 . S
H256 C229 0.932 . S
H257 C230 0.930 . S
H258 C231 0.932 1_554 S
H259 C232 0.929 . S
H260 C250 0.932 . S
H261 C251 0.930 . S
H262 C252 0.932 . S
H263 C253 0.929 . S
C264 C265 1.369 . S
C264 C266 1.419 . S
C264 H268 0.930 . S
C265 C264 1.369 . S
C265 C274 1.429 . S
C266 C264 1.419 . S
C266 C267 1.363 . S
C266 H269 0.929 . S
C267 C266 1.363 . S
C267 C273 1.428 . S
H268 C264 0.930 . S
H269 C266 0.929 . S
S270 N271 1.613 . S
S270 N272 1.610 . S
N271 S270 1.613 . S
N271 C274 1.350 . S
N272 S270 1.610 . S
N272 C273 1.351 . S
C273 C267 1.428 . S
C273 N272 1.351 . S
C273 C274 1.434 . S
C274 C265 1.429 . S
C274 N271 1.350 . S
C274 C273 1.434 . S
C275 C276 1.369 . S
C275 C277 1.419 . S
C275 H279 0.930 . S
C276 C275 1.369 . S
C276 C285 1.429 . S
C277 C275 1.419 . S
C277 C278 1.363 . S
C277 H280 0.929 . S
C278 C277 1.363 . S
C278 C284 1.428 . S
H279 C275 0.930 . S
H280 C277 0.929 . S
S281 N282 1.613 . S
S281 N283 1.610 . S
N282 S281 1.613 . S
N282 C285 1.350 . S
N283 S281 1.610 . S
N283 C284 1.351 . S
C284 C278 1.428 . S
C284 N283 1.351 . S
C284 C285 1.434 . S
C285 C276 1.429 . S
C285 N282 1.350 . S
C285 C284 1.434 . S
C286 C287 1.369 . S
C286 C288 1.419 . S
C286 H290 0.930 . S
C287 C286 1.369 . S
C287 C296 1.429 . S
C288 C286 1.419 . S
C288 C289 1.363 . S
C288 H291 0.929 . S
C289 C288 1.363 . S
C289 C295 1.428 . S
H290 C286 0.930 . S
H291 C288 0.929 . S
S292 N293 1.613 . S
S292 N294 1.610 . S
N293 S292 1.613 . S
N293 C296 1.350 . S
N294 S292 1.610 . S
N294 C295 1.351 . S
C295 C289 1.428 . S
C295 N294 1.351 . S
C295 C296 1.434 . S
C296 C287 1.429 . S
C296 N293 1.350 . S
C296 C295 1.434 . S
C297 C298 1.369 . S
C297 C299 1.419 . S
C297 H301 0.930 . S
C298 C297 1.369 . S
C298 C307 1.429 . S
C299 C297 1.419 . S
C299 C300 1.363 . S
C299 H302 0.929 . S
C300 C299 1.363 . S
C300 C306 1.428 . S
H301 C297 0.930 . S
H302 C299 0.929 . S
S303 N304 1.613 1_455 S
S303 N305 1.610 1_455 S
N304 S303 1.613 1_655 S
N304 C307 1.350 . S
N305 S303 1.610 1_655 S
N305 C306 1.351 . S
C306 C300 1.428 . S
C306 N305 1.351 . S
C306 C307 1.434 . S
C307 C298 1.429 . S
C307 N304 1.350 . S
C307 C306 1.434 . S
C308 C309 1.369 . S
C308 C310 1.419 . S
C308 H312 0.930 . S
C309 C308 1.369 . S
C309 C318 1.429 . S
C310 C308 1.419 . S
C310 C311 1.363 . S
C310 H313 0.929 . S
C311 C310 1.363 . S
C311 C317 1.428 . S
H312 C308 0.930 . S
H313 C310 0.929 . S
S314 N315 1.613 . S
S314 N316 1.610 . S
N315 S314 1.613 . S
N315 C318 1.350 . S
N316 S314 1.610 . S
N316 C317 1.351 . S
C317 C311 1.428 . S
C317 N316 1.351 . S
C317 C318 1.434 . S
C318 C309 1.429 . S
C318 N315 1.350 . S
C318 C317 1.434 . S
C319 C320 1.369 . S
C319 C321 1.419 . S
C319 H323 0.930 . S
C320 C319 1.369 . S
C320 C329 1.429 . S
C321 C319 1.419 . S
C321 C322 1.363 . S
C321 H324 0.929 . S
C322 C321 1.363 . S
C322 C328 1.428 . S
H323 C319 0.930 . S
H324 C321 0.929 . S
S325 N326 1.613 1_655 S
S325 N327 1.610 1_655 S
N326 S325 1.613 1_455 S
N326 C329 1.350 . S
N327 S325 1.610 1_455 S
N327 C328 1.351 . S
C328 C322 1.428 . S
C328 N327 1.351 . S
C328 C329 1.434 . S
C329 C320 1.429 . S
C329 N326 1.350 . S
C329 C328 1.434 . S
C330 C331 1.369 . S
C330 C332 1.419 . S
C330 H334 0.930 . S
C331 C330 1.369 . S
C331 C340 1.429 . S
C332 C330 1.419 . S
C332 C333 1.363 1_556 S
C332 H335 0.929 . S
C333 C332 1.363 1_554 S
C333 C339 1.428 1_554 S
H334 C330 0.930 . S
H335 C332 0.929 . S
S336 N337 1.613 . S
S336 N338 1.610 1_556 S
N337 S336 1.613 . S
N337 C340 1.350 . S
N338 S336 1.610 1_554 S
N338 C339 1.351 1_554 S
C339 C333 1.428 1_556 S
C339 N338 1.351 1_556 S
C339 C340 1.434 . S
C340 C331 1.429 . S
C340 N337 1.350 . S
C340 C339 1.434 . S
C341 C342 1.369 . S
C341 C343 1.419 . S
C341 H345 0.930 . S
C342 C341 1.369 . S
C342 C351 1.429 . S
C343 C341 1.419 . S
C343 C344 1.363 . S
C343 H346 0.929 . S
C344 C343 1.363 . S
C344 C350 1.428 . S
H345 C341 0.930 . S
H346 C343 0.929 . S
S347 N348 1.613 . S
S347 N349 1.610 . S
N348 S347 1.613 . S
N348 C351 1.350 . S
N349 S347 1.610 . S
N349 C350 1.351 . S
C350 C344 1.428 . S
C350 N349 1.351 . S
C350 C351 1.434 . S
C351 C342 1.429 . S
C351 N348 1.350 . S
C351 C350 1.434 . S
C352 C353 1.369 . S
C352 C354 1.419 . S
C352 H356 0.930 . S
C353 C352 1.369 . S
C353 C362 1.429 . S
C354 C352 1.419 . S
C354 C355 1.363 . S
C354 H357 0.929 . S
C355 C354 1.363 . S
C355 C361 1.428 . S
H356 C352 0.930 . S
H357 C354 0.929 . S
S358 N359 1.613 . S
S358 N360 1.610 . S
N359 S358 1.613 . S
N359 C362 1.350 . S
N360 S358 1.610 . S
N360 C361 1.351 . S
C361 C355 1.428 . S
C361 N360 1.351 . S
C361 C362 1.434 . S
C362 C353 1.429 . S
C362 N359 1.350 . S
C362 C361 1.434 . S
C363 C364 1.369 . S
C363 C365 1.419 . S
C363 H367 0.930 . S
C364 C363 1.369 . S
C364 C373 1.429 . S
C365 C363 1.419 . S
C365 C366 1.363 . S
C365 H368 0.929 . S
C366 C365 1.363 . S
C366 C372 1.428 . S
H367 C363 0.930 . S
H368 C365 0.929 . S
S369 N370 1.613 . S
S369 N371 1.610 . S
N370 S369 1.613 . S
N370 C373 1.350 . S
N371 S369 1.610 . S
N371 C372 1.351 . S
C372 C366 1.428 . S
C372 N371 1.351 . S
C372 C373 1.434 . S
C373 C364 1.429 . S
C373 N370 1.350 . S
C373 C372 1.434 . S
C374 C375 1.369 . S
C374 C376 1.419 . S
C374 H378 0.930 . S
C375 C374 1.369 . S
C375 C384 1.429 . S
C376 C374 1.419 . S
C376 C377 1.363 . S
C376 H379 0.929 . S
C377 C376 1.363 . S
C377 C383 1.428 . S
H378 C374 0.930 . S
H379 C376 0.929 . S
S380 N381 1.613 . S
S380 N382 1.610 . S
N381 S380 1.613 . S
N381 C384 1.350 . S
N382 S380 1.610 . S
N382 C383 1.351 . S
C383 C377 1.428 . S
C383 N382 1.351 . S
C383 C384 1.434 . S
C384 C375 1.429 . S
C384 N381 1.350 . S
C384 C383 1.434 . S
C385 C386 1.369 . S
C385 C387 1.419 . S
C385 H389 0.930 . S
C386 C385 1.369 . S
C386 C395 1.429 . S
C387 C385 1.419 . S
C387 C388 1.363 . S
C387 H390 0.929 . S
C388 C387 1.363 . S
C388 C394 1.428 . S
H389 C385 0.930 . S
H390 C387 0.929 . S
S391 N392 1.613 . S
S391 N393 1.610 . S
N392 S391 1.613 . S
N392 C395 1.350 . S
N393 S391 1.610 . S
N393 C394 1.351 . S
C394 C388 1.428 . S
C394 N393 1.351 . S
C394 C395 1.434 . S
C395 C386 1.429 . S
C395 N392 1.350 . S
C395 C394 1.434 . S
C396 C397 1.369 . S
C396 C398 1.419 . S
C396 H400 0.930 . S
C397 C396 1.369 . S
C397 C406 1.429 . S
C398 C396 1.419 . S
C398 C399 1.363 . S
C398 H401 0.929 . S
C399 C398 1.363 . S
C399 C405 1.428 . S
H400 C396 0.930 . S
H401 C398 0.929 . S
S402 N403 1.613 . S
S402 N404 1.610 . S
N403 S402 1.613 . S
N403 C406 1.350 . S
N404 S402 1.610 . S
N404 C405 1.351 . S
C405 C399 1.428 . S
C405 N404 1.351 . S
C405 C406 1.434 . S
C406 C397 1.429 . S
C406 N403 1.350 . S
C406 C405 1.434 . S
C407 C408 1.369 . S
C407 C409 1.419 . S
C407 H411 0.930 . S
C408 C407 1.369 . S
C408 C417 1.429 . S
C409 C407 1.419 . S
C409 C410 1.363 . S
C409 H412 0.929 . S
C410 C409 1.363 . S
C410 C416 1.428 . S
H411 C407 0.930 . S
H412 C409 0.929 . S
S413 N414 1.613 . S
S413 N415 1.610 . S
N414 S413 1.613 . S
N414 C417 1.350 . S
N415 S413 1.610 . S
N415 C416 1.351 . S
C416 C410 1.428 . S
C416 N415 1.351 . S
C416 C417 1.434 . S
C417 C408 1.429 . S
C417 N414 1.350 . S
C417 C416 1.434 . S
C418 C419 1.369 . S
C418 C420 1.419 . S
C418 H422 0.930 . S
C419 C418 1.369 . S
C419 C428 1.429 . S
C420 C418 1.419 . S
C420 C421 1.363 . S
C420 H423 0.929 . S
C421 C420 1.363 . S
C421 C427 1.428 . S
H422 C418 0.930 . S
H423 C420 0.929 . S
S424 N425 1.613 . S
S424 N426 1.610 . S
N425 S424 1.613 . S
N425 C428 1.350 . S
N426 S424 1.610 . S
N426 C427 1.351 . S
C427 C421 1.428 . S
C427 N426 1.351 . S
C427 C428 1.434 . S
C428 C419 1.429 . S
C428 N425 1.350 . S
C428 C427 1.434 . S
C429 C430 1.369 . S
C429 C431 1.419 . S
C429 H433 0.930 . S
C430 C429 1.369 . S
C430 C439 1.429 . S
C431 C429 1.419 . S
C431 C432 1.363 . S
C431 H434 0.929 . S
C432 C431 1.363 . S
C432 C438 1.428 . S
H433 C429 0.930 . S
H434 C431 0.929 . S
S435 N436 1.613 . S
S435 N437 1.610 . S
N436 S435 1.613 . S
N436 C439 1.350 . S
N437 S435 1.610 . S
N437 C438 1.351 . S
C438 C432 1.428 . S
C438 N437 1.351 . S
C438 C439 1.434 . S
C439 C430 1.429 . S
C439 N436 1.350 . S
C439 C438 1.434 . S
C440 C441 1.369 . S
C440 C442 1.419 . S
C440 H444 0.930 . S
C441 C440 1.369 . S
C441 C450 1.429 . S
C442 C440 1.419 . S
C442 C443 1.363 . S
C442 H445 0.929 . S
C443 C442 1.363 . S
C443 C449 1.428 . S
H444 C440 0.930 . S
H445 C442 0.929 . S
S446 N447 1.613 . S
S446 N448 1.610 . S
N447 S446 1.613 . S
N447 C450 1.350 . S
N448 S446 1.610 . S
N448 C449 1.351 . S
C449 C443 1.428 . S
C449 N448 1.351 . S
C449 C450 1.434 . S
C450 C441 1.429 . S
C450 N447 1.350 . S
C450 C449 1.434 . S
C451 C452 1.369 1_455 S
C451 C453 1.419 . S
C451 H455 0.930 . S
C452 C451 1.369 1_655 S
C452 C461 1.429 . S
C453 C451 1.419 . S
C453 C454 1.363 1_455 S
C453 H456 0.929 . S
C454 C453 1.363 1_655 S
C454 C460 1.428 . S
H455 C451 0.930 . S
H456 C453 0.929 . S
S457 N458 1.613 . S
S457 N459 1.610 . S
N458 S457 1.613 . S
N458 C461 1.350 . S
N459 S457 1.610 . S
N459 C460 1.351 . S
C460 C454 1.428 . S
C460 N459 1.351 . S
C460 C461 1.434 . S
C461 C452 1.429 . S
C461 N458 1.350 . S
C461 C460 1.434 . S
C462 C463 1.369 . S
C462 C464 1.419 . S
C462 H466 0.930 . S
C463 C462 1.369 . S
C463 C472 1.429 . S
C464 C462 1.419 . S
C464 C465 1.363 . S
C464 H467 0.929 . S
C465 C464 1.363 . S
C465 C471 1.428 . S
H466 C462 0.930 . S
H467 C464 0.929 . S
S468 N469 1.613 . S
S468 N470 1.610 . S
N469 S468 1.613 . S
N469 C472 1.350 . S
N470 S468 1.610 . S
N470 C471 1.351 . S
C471 C465 1.428 . S
C471 N470 1.351 . S
C471 C472 1.434 . S
C472 C463 1.429 . S
C472 N469 1.350 . S
C472 C471 1.434 . S
C473 C474 1.369 . S
C473 C475 1.419 . S
C473 H477 0.930 . S
C474 C473 1.369 . S
C474 C483 1.429 . S
C475 C473 1.419 . S
C475 C476 1.363 . S
C475 H478 0.929 . S
C476 C475 1.363 . S
C476 C482 1.428 . S
H477 C473 0.930 . S
H478 C475 0.929 . S
S479 N480 1.613 . S
S479 N481 1.610 . S
N480 S479 1.613 . S
N480 C483 1.350 . S
N481 S479 1.610 . S
N481 C482 1.351 . S
C482 C476 1.428 . S
C482 N481 1.351 . S
C482 C483 1.434 . S
C483 C474 1.429 . S
C483 N480 1.350 . S
C483 C482 1.434 . S
C484 C485 1.369 . S
C484 C486 1.419 . S
C484 H488 0.930 . S
C485 C484 1.369 . S
C485 C494 1.429 . S
C486 C484 1.419 . S
C486 C487 1.363 . S
C486 H489 0.929 . S
C487 C486 1.363 . S
C487 C493 1.428 . S
H488 C484 0.930 . S
H489 C486 0.929 . S
S490 N491 1.613 . S
S490 N492 1.610 1_554 S
N491 S490 1.613 . S
N491 C494 1.350 1_554 S
N492 S490 1.610 1_556 S
N492 C493 1.351 . S
C493 C487 1.428 . S
C493 N492 1.351 . S
C493 C494 1.434 . S
C494 C485 1.429 . S
C494 N491 1.350 1_556 S
C494 C493 1.434 . S
C495 C496 1.369 . S
C495 C497 1.419 . S
C495 H499 0.930 . S
C496 C495 1.369 . S
C496 C505 1.429 . S
C497 C495 1.419 . S
C497 C498 1.363 . S
C497 H500 0.929 . S
C498 C497 1.363 . S
C498 C504 1.428 . S
H499 C495 0.930 . S
H500 C497 0.929 . S
S501 N502 1.613 . S
S501 N503 1.610 . S
N502 S501 1.613 . S
N502 C505 1.350 . S
N503 S501 1.610 . S
N503 C504 1.351 . S
C504 C498 1.428 . S
C504 N503 1.351 . S
C504 C505 1.434 . S
C505 C496 1.429 . S
C505 N502 1.350 . S
C505 C504 1.434 . S
C506 C507 1.369 . S
C506 C508 1.419 . S
C506 H510 0.930 . S
C507 C506 1.369 . S
C507 C516 1.429 . S
C508 C506 1.419 . S
C508 C509 1.363 . S
C508 H511 0.929 . S
C509 C508 1.363 . S
C509 C515 1.428 . S
H510 C506 0.930 . S
H511 C508 0.929 . S
S512 N513 1.613 . S
S512 N514 1.610 . S
N513 S512 1.613 . S
N513 C516 1.350 . S
N514 S512 1.610 . S
N514 C515 1.351 . S
C515 C509 1.428 . S
C515 N514 1.351 . S
C515 C516 1.434 . S
C516 C507 1.429 . S
C516 N513 1.350 . S
C516 C515 1.434 . S
C517 C518 1.369 . S
C517 C519 1.419 . S
C517 H521 0.930 . S
C518 C517 1.369 . S
C518 C527 1.429 . S
C519 C517 1.419 . S
C519 C520 1.363 . S
C519 H522 0.929 . S
C520 C519 1.363 . S
C520 C526 1.428 . S
H521 C517 0.930 . S
H522 C519 0.929 . S
S523 N524 1.613 . S
S523 N525 1.610 . S
N524 S523 1.613 . S
N524 C527 1.350 . S
N525 S523 1.610 . S
N525 C526 1.351 . S
C526 C520 1.428 . S
C526 N525 1.351 . S
C526 C527 1.434 . S
C527 C518 1.429 . S
C527 N524 1.350 . S
C527 C526 1.434 . S
C265 C9 1.237 . S
C267 C108 1.301 . S
C276 C21 1.136 . S
C278 C169 1.179 . S
C289 C207 2.312 . S
C287 C30 2.338 . S
C298 C43 2.218 . S
C300 C247 2.331 . S
C311 C167 1.352 . S
C309 C4 1.105 . S
C322 C135 2.317 . S
C320 C22 2.205 . S
C333 C244 1.564 . S
C331 C34 1.618 . S
C344 C204 1.874 . S
C342 C48 1.884 . S
C353 C8 1.363 . S
C355 C249 1.405 . S
C366 C164 2.377 . S
C364 C35 2.357 . S
C375 C47 2.469 . S
C377 C106 2.411 . S
C386 C17 1.431 . S
C388 C209 1.504 . S
C399 C129 0.880 . S
C397 C60 0.871 . S
C408 C74 1.206 . S
C410 C148 1.198 . S
C419 C82 2.111 . S
C421 C186 2.105 . S
C430 C100 2.836 . S
C432 C226 2.770 . S
C441 C61 1.524 . S
C443 C146 1.605 . S
C454 C124 1.835 . S
C452 C73 1.686 . S
C465 C255 1.985 . S
C463 C87 2.016 . S
C476 C215 1.724 . S
C474 C95 1.754 . S
C485 C56 1.288 . S
C487 C228 1.234 . S
C498 C175 2.527 . S
C496 C86 2.525 . S
C509 C127 2.358 . S
C507 C99 2.402 . S
C518 C69 1.115 . S
C520 C188 1.349 . S
