# Generated by pormake.
# Topology eea, (3,6)-cn, num edge types: 1
# Building blocks:
#     Node 0, Type 0, BuildingBlock: BETDIP_clean_linker_0, # of connection points: 3
#     Node 1, Type 0, BuildingBlock: BETDIP_clean_linker_0, # of connection points: 3
#     Node 2, Type 0, BuildingBlock: BETDIP_clean_linker_0, # of connection points: 3
#     Node 3, Type 0, BuildingBlock: BETDIP_clean_linker_0, # of connection points: 3
#     Node 4, Type 0, BuildingBlock: BETDIP_clean_linker_0, # of connection points: 3
#     Node 5, Type 0, BuildingBlock: BETDIP_clean_linker_0, # of connection points: 3
#     Node 6, Type 0, BuildingBlock: BETDIP_clean_linker_0, # of connection points: 3
#     Node 7, Type 0, BuildingBlock: BETDIP_clean_linker_0, # of connection points: 3
#     Node 8, Type 0, BuildingBlock: BETDIP_clean_linker_0, # of connection points: 3
#     Node 9, Type 0, BuildingBlock: BETDIP_clean_linker_0, # of connection points: 3
#     Node 10, Type 0, BuildingBlock: BETDIP_clean_linker_0, # of connection points: 3
#     Node 11, Type 0, BuildingBlock: BETDIP_clean_linker_0, # of connection points: 3
#     Node 12, Type 0, BuildingBlock: BETDIP_clean_linker_0, # of connection points: 3
#     Node 13, Type 0, BuildingBlock: BETDIP_clean_linker_0, # of connection points: 3
#     Node 14, Type 0, BuildingBlock: BETDIP_clean_linker_0, # of connection points: 3
#     Node 15, Type 0, BuildingBlock: BETDIP_clean_linker_0, # of connection points: 3
#     Node 16, Type 0, BuildingBlock: BETDIP_clean_linker_0, # of connection points: 3
#     Node 17, Type 0, BuildingBlock: BETDIP_clean_linker_0, # of connection points: 3
#     Node 18, Type 1, BuildingBlock: CUKXOW_clean_sbu_0, # of connection points: 6
#     Node 19, Type 1, BuildingBlock: CUKXOW_clean_sbu_0, # of connection points: 6
#     Node 20, Type 1, BuildingBlock: CUKXOW_clean_sbu_0, # of connection points: 6
#     Node 21, Type 1, BuildingBlock: CUKXOW_clean_sbu_0, # of connection points: 6
#     Node 22, Type 1, BuildingBlock: CUKXOW_clean_sbu_0, # of connection points: 6
#     Node 23, Type 1, BuildingBlock: CUKXOW_clean_sbu_0, # of connection points: 6
#     Node 24, Type 1, BuildingBlock: CUKXOW_clean_sbu_0, # of connection points: 6
#     Node 25, Type 1, BuildingBlock: CUKXOW_clean_sbu_0, # of connection points: 6
#     Node 26, Type 1, BuildingBlock: CUKXOW_clean_sbu_0, # of connection points: 6
#     Edge 27, Type (0, 1), BuildingBlock: XIVTED_clean_linker_0, # of connection points: 2
#     Edge 28, Type (0, 1), BuildingBlock: XIVTED_clean_linker_0, # of connection points: 2
#     Edge 29, Type (0, 1), BuildingBlock: XIVTED_clean_linker_0, # of connection points: 2
#     Edge 30, Type (0, 1), BuildingBlock: XIVTED_clean_linker_0, # of connection points: 2
#     Edge 31, Type (0, 1), BuildingBlock: XIVTED_clean_linker_0, # of connection points: 2
#     Edge 32, Type (0, 1), BuildingBlock: XIVTED_clean_linker_0, # of connection points: 2
#     Edge 33, Type (0, 1), BuildingBlock: XIVTED_clean_linker_0, # of connection points: 2
#     Edge 34, Type (0, 1), BuildingBlock: XIVTED_clean_linker_0, # of connection points: 2
#     Edge 35, Type (0, 1), BuildingBlock: XIVTED_clean_linker_0, # of connection points: 2
#     Edge 36, Type (0, 1), BuildingBlock: XIVTED_clean_linker_0, # of connection points: 2
#     Edge 37, Type (0, 1), BuildingBlock: XIVTED_clean_linker_0, # of connection points: 2
#     Edge 38, Type (0, 1), BuildingBlock: XIVTED_clean_linker_0, # of connection points: 2
#     Edge 39, Type (0, 1), BuildingBlock: XIVTED_clean_linker_0, # of connection points: 2
#     Edge 40, Type (0, 1), BuildingBlock: XIVTED_clean_linker_0, # of connection points: 2
#     Edge 41, Type (0, 1), BuildingBlock: XIVTED_clean_linker_0, # of connection points: 2
#     Edge 42, Type (0, 1), BuildingBlock: XIVTED_clean_linker_0, # of connection points: 2
#     Edge 43, Type (0, 1), BuildingBlock: XIVTED_clean_linker_0, # of connection points: 2
#     Edge 44, Type (0, 1), BuildingBlock: XIVTED_clean_linker_0, # of connection points: 2
#     Edge 45, Type (0, 1), BuildingBlock: XIVTED_clean_linker_0, # of connection points: 2
#     Edge 46, Type (0, 1), BuildingBlock: XIVTED_clean_linker_0, # of connection points: 2
#     Edge 47, Type (0, 1), BuildingBlock: XIVTED_clean_linker_0, # of connection points: 2
#     Edge 48, Type (0, 1), BuildingBlock: XIVTED_clean_linker_0, # of connection points: 2
#     Edge 49, Type (0, 1), BuildingBlock: XIVTED_clean_linker_0, # of connection points: 2
#     Edge 50, Type (0, 1), BuildingBlock: XIVTED_clean_linker_0, # of connection points: 2
#     Edge 51, Type (0, 1), BuildingBlock: XIVTED_clean_linker_0, # of connection points: 2
#     Edge 52, Type (0, 1), BuildingBlock: XIVTED_clean_linker_0, # of connection points: 2
#     Edge 53, Type (0, 1), BuildingBlock: XIVTED_clean_linker_0, # of connection points: 2
#     Edge 54, Type (0, 1), BuildingBlock: XIVTED_clean_linker_0, # of connection points: 2
#     Edge 55, Type (0, 1), BuildingBlock: XIVTED_clean_linker_0, # of connection points: 2
#     Edge 56, Type (0, 1), BuildingBlock: XIVTED_clean_linker_0, # of connection points: 2
#     Edge 57, Type (0, 1), BuildingBlock: XIVTED_clean_linker_0, # of connection points: 2
#     Edge 58, Type (0, 1), BuildingBlock: XIVTED_clean_linker_0, # of connection points: 2
#     Edge 59, Type (0, 1), BuildingBlock: XIVTED_clean_linker_0, # of connection points: 2
#     Edge 60, Type (0, 1), BuildingBlock: XIVTED_clean_linker_0, # of connection points: 2
#     Edge 61, Type (0, 1), BuildingBlock: XIVTED_clean_linker_0, # of connection points: 2
#     Edge 62, Type (0, 1), BuildingBlock: XIVTED_clean_linker_0, # of connection points: 2
#     Edge 63, Type (0, 1), BuildingBlock: XIVTED_clean_linker_0, # of connection points: 2
#     Edge 64, Type (0, 1), BuildingBlock: XIVTED_clean_linker_0, # of connection points: 2
#     Edge 65, Type (0, 1), BuildingBlock: XIVTED_clean_linker_0, # of connection points: 2
#     Edge 66, Type (0, 1), BuildingBlock: XIVTED_clean_linker_0, # of connection points: 2
#     Edge 67, Type (0, 1), BuildingBlock: XIVTED_clean_linker_0, # of connection points: 2
#     Edge 68, Type (0, 1), BuildingBlock: XIVTED_clean_linker_0, # of connection points: 2
#     Edge 69, Type (0, 1), BuildingBlock: XIVTED_clean_linker_0, # of connection points: 2
#     Edge 70, Type (0, 1), BuildingBlock: XIVTED_clean_linker_0, # of connection points: 2
#     Edge 71, Type (0, 1), BuildingBlock: XIVTED_clean_linker_0, # of connection points: 2
#     Edge 72, Type (0, 1), BuildingBlock: XIVTED_clean_linker_0, # of connection points: 2
#     Edge 73, Type (0, 1), BuildingBlock: XIVTED_clean_linker_0, # of connection points: 2
#     Edge 74, Type (0, 1), BuildingBlock: XIVTED_clean_linker_0, # of connection points: 2
#     Edge 75, Type (0, 1), BuildingBlock: XIVTED_clean_linker_0, # of connection points: 2
#     Edge 76, Type (0, 1), BuildingBlock: XIVTED_clean_linker_0, # of connection points: 2
#     Edge 77, Type (0, 1), BuildingBlock: XIVTED_clean_linker_0, # of connection points: 2
#     Edge 78, Type (0, 1), BuildingBlock: XIVTED_clean_linker_0, # of connection points: 2
#     Edge 79, Type (0, 1), BuildingBlock: XIVTED_clean_linker_0, # of connection points: 2
#     Edge 80, Type (0, 1), BuildingBlock: XIVTED_clean_linker_0, # of connection points: 2
# Relax obj value: 0.035
# Max RMSD: 0.161
# Mean RMSD: 0.094
data_MOF--net-eea--node1-CUKXOW_clean_sbu_0--node2-BETDIP_clean_linker_0--edge1-XIVTED_clean_linker_0
_symmetry_space_group_name_H-M    P1
_symmetry_Int_Tables_number       1
_symmetry_cell_setting            triclinic
loop_
_symmetry_equiv_pos_as_xyz
'x, y, z'
_cell_length_a     60.487146
_cell_length_b     56.936369
_cell_length_c     50.661514
_cell_angle_alpha  93.271516
_cell_angle_beta   93.386292
_cell_angle_gamma 119.93697
loop_
_atom_site_label
_atom_site_type_symbol
_atom_site_fract_x
_atom_site_fract_y
_atom_site_fract_z
_atom_type_partial_charge
H0 H 0.21301 0.09805 0.38033 0.0
H1 H 0.25295 0.15963 0.44622 0.0
H2 H 0.25458 0.08504 0.4443 0.0
H3 H 0.26053 0.18656 0.40964 0.0
C4 C 0.2407 0.17686 0.40109 0.0
C5 C 0.22484 0.10504 0.39919 0.0
C6 C 0.23306 0.08849 0.41074 0.0
C7 C 0.23274 0.13112 0.41135 0.0
C8 C 0.24764 0.13999 0.4361 0.0
C9 C 0.25559 0.12344 0.448 0.0
C10 C 0.24865 0.09797 0.435 0.0
N11 N 0.2253 0.148 0.39852 0.0
H12 H 0.89619 0.12343 0.38102 0.0
H13 H 0.84493 0.1061 0.44172 0.0
H14 H 0.91907 0.17832 0.45261 0.0
H15 H 0.81584 0.08787 0.40126 0.0
C16 C 0.82366 0.07526 0.39464 0.0
C17 C 0.89231 0.12903 0.40026 0.0
C18 C 0.91059 0.15346 0.41536 0.0
C19 C 0.86847 0.11211 0.40942 0.0
C20 C 0.863 0.11942 0.43411 0.0
C21 C 0.88126 0.14322 0.44973 0.0
C22 C 0.90498 0.16003 0.44034 0.0
N23 N 0.8506 0.08728 0.3941 0.0
H24 H 0.86851 0.75315 0.38318 0.0
H25 H 0.8946 0.7228 0.4466 0.0
H26 H 0.83061 0.73427 0.45489 0.0
H27 H 0.91327 0.71258 0.4144 0.0
C28 C 0.92007 0.73032 0.40336 0.0
C29 C 0.86652 0.74578 0.40265 0.0
C30 C 0.84697 0.74418 0.41751 0.0
C31 C 0.88361 0.73779 0.41269 0.0
C32 C 0.88112 0.72815 0.43797 0.0
C33 C 0.86197 0.72683 0.45307 0.0
C34 C 0.84509 0.73492 0.44283 0.0
N35 N 0.90417 0.74158 0.39785 0.0
H36 H 0.10044 0.23467 0.62895 0.0
H37 H 0.15329 0.27586 0.57173 0.0
H38 H 0.08295 0.27689 0.57063 0.0
H39 H 0.15932 0.24005 0.57487 0.0
C40 C 0.16049 0.23874 0.59617 0.0
C41 C 0.10569 0.24724 0.61257 0.0
C42 C 0.08882 0.25511 0.60135 0.0
C43 C 0.12868 0.25404 0.60164 0.0
C44 C 0.13543 0.27007 0.58013 0.0
C45 C 0.11877 0.27791 0.56865 0.0
C46 C 0.09565 0.27055 0.57944 0.0
N47 N 0.14419 0.24367 0.61185 0.0
H48 H 0.79107 0.87592 0.63447 0.0
H49 H 0.74972 0.89226 0.57363 0.0
H50 H 0.73535 0.81106 0.57686 0.0
H51 H 0.78157 0.93383 0.58164 0.0
C52 C 0.78616 0.93665 0.60303 0.0
C53 C 0.77673 0.86849 0.61754 0.0
C54 C 0.76399 0.84079 0.6073 0.0
C55 C 0.77177 0.88722 0.60559 0.0
C56 C 0.75382 0.87814 0.58306 0.0
C57 C 0.74122 0.85088 0.57214 0.0
C58 C 0.746 0.83228 0.58471 0.0
N59 N 0.78471 0.91491 0.61684 0.0
H60 H 0.14019 0.89755 0.64502 0.0
H61 H 0.11367 0.84818 0.56995 0.0
H62 H 0.18988 0.91733 0.58253 0.0
H63 H 0.08573 0.81653 0.5929 0.0
C64 C 0.08161 0.8273 0.60843 0.0
C65 C 0.14377 0.89304 0.62517 0.0
C66 C 0.1674 0.91017 0.61567 0.0
C67 C 0.12459 0.87007 0.60926 0.0
C68 C 0.12885 0.86473 0.58311 0.0
C69 C 0.15236 0.88171 0.57324 0.0
C70 C 0.17167 0.90406 0.58992 0.0
N71 N 0.10081 0.85375 0.61968 0.0
H72 H 0.8941 0.43766 0.70155 0.0
H73 H 0.92793 0.49565 0.77105 0.0
H74 H 0.92475 0.41864 0.77063 0.0
H75 H 0.93806 0.52538 0.73701 0.0
C76 C 0.91896 0.51555 0.72646 0.0
C77 C 0.90358 0.44332 0.7216 0.0
C78 C 0.90913 0.42528 0.73431 0.0
C79 C 0.91093 0.46905 0.73438 0.0
C80 C 0.9231 0.47633 0.76053 0.0
C81 C 0.92775 0.45801 0.77376 0.0
C82 C 0.92101 0.43274 0.76044 0.0
N83 N 0.90484 0.48672 0.72106 0.0
H84 H 0.57039 0.45832 0.71647 0.0
H85 H 0.51679 0.44088 0.77425 0.0
H86 H 0.58906 0.51597 0.78487 0.0
H87 H 0.48903 0.42187 0.73333 0.0
C88 C 0.49746 0.40978 0.72694 0.0
C89 C 0.56561 0.46435 0.73496 0.0
C90 C 0.58297 0.48936 0.74969 0.0
C91 C 0.54156 0.44727 0.74336 0.0
C92 C 0.53491 0.45482 0.76714 0.0
C93 C 0.55184 0.47968 0.78228 0.0
C94 C 0.57585 0.49682 0.77334 0.0
N95 N 0.52455 0.42216 0.72802 0.0
H96 H 0.5355 0.08109 0.72039 0.0
H97 H 0.55851 0.04906 0.78448 0.0
H98 H 0.48782 0.04954 0.78398 0.0
H99 H 0.57065 0.088 0.70352 0.0
C100 C 0.58284 0.08501 0.71784 0.0
C101 C 0.53189 0.07165 0.73874 0.0
C102 C 0.50923 0.06567 0.7503 0.0
C103 C 0.5497 0.06559 0.75111 0.0
C104 C 0.54463 0.05342 0.77489 0.0
C105 C 0.5222 0.04722 0.7866 0.0
C106 C 0.50457 0.05327 0.77419 0.0
N107 N 0.5735 0.0724 0.74129 0.0
H108 H 0.77616 0.57527 0.9652 0.0
H109 H 0.82344 0.60376 0.90111 0.0
H110 H 0.75839 0.6145 0.90365 0.0
H111 H 0.82283 0.56346 0.90609 0.0
C112 C 0.82718 0.56565 0.92752 0.0
C113 C 0.78047 0.58545 0.9472 0.0
C114 C 0.76468 0.59487 0.93634 0.0
C115 C 0.8012 0.58789 0.93425 0.0
C116 C 0.80709 0.60119 0.91101 0.0
C117 C 0.79188 0.61109 0.90018 0.0
C118 C 0.77081 0.60804 0.91292 0.0
N119 N 0.8153 0.57595 0.9443 0.0
H120 H 0.44977 0.21564 0.9818 0.0
H121 H 0.42095 0.23251 0.91019 0.0
H122 H 0.40827 0.15209 0.91752 0.0
H123 H 0.4627 0.27267 0.92147 0.0
C124 C 0.45875 0.27655 0.94142 0.0
C125 C 0.43916 0.20862 0.96226 0.0
C126 C 0.42917 0.18145 0.95164 0.0
C127 C 0.43658 0.22718 0.94729 0.0
C128 C 0.42326 0.21833 0.9218 0.0
C129 C 0.41275 0.19122 0.91114 0.0
C130 C 0.41547 0.17276 0.92623 0.0
N131 N 0.44802 0.25484 0.95781 0.0
H132 H 0.80668 0.22759 0.97963 0.0
H133 H 0.77742 0.17212 0.90821 0.0
H134 H 0.85008 0.24564 0.91171 0.0
H135 H 0.75521 0.14156 0.93679 0.0
C136 C 0.74947 0.15309 0.94964 0.0
C137 C 0.80895 0.22207 0.95956 0.0
C138 C 0.8311 0.23941 0.94761 0.0
C139 C 0.78971 0.19741 0.94583 0.0
C140 C 0.7925 0.19039 0.91963 0.0
C141 C 0.8142 0.2078 0.90734 0.0
C142 C 0.83344 0.23211 0.92143 0.0
N143 N 0.76713 0.18096 0.9582 0.0
H144 H 0.55904 0.77893 0.04171 0.0
H145 H 0.59552 0.83467 0.11217 0.0
H146 H 0.5952 0.75881 0.10491 0.0
H147 H 0.55728 0.83699 0.10255 0.0
C148 C 0.55999 0.84096 0.0819 0.0
C149 C 0.56984 0.78418 0.06108 0.0
C150 C 0.57707 0.76638 0.07138 0.0
C151 C 0.57596 0.8085 0.07598 0.0
C152 C 0.59005 0.81541 0.1011 0.0
C153 C 0.59741 0.79778 0.11174 0.0
C154 C 0.5907 0.77325 0.09664 0.0
N155 N 0.56749 0.8256 0.06553 0.0
H156 H 0.23682 0.79099 0.05449 0.0
H157 H 0.18318 0.76666 0.11306 0.0
H158 H 0.25502 0.842 0.12793 0.0
H159 H 0.15536 0.75018 0.07251 0.0
C160 C 0.1641 0.73904 0.06438 0.0
C161 C 0.23174 0.79515 0.07364 0.0
C162 C 0.24875 0.81916 0.09001 0.0
C163 C 0.20799 0.77641 0.08171 0.0
C164 C 0.20146 0.7813 0.10675 0.0
C165 C 0.21839 0.80476 0.12377 0.0
C166 C 0.24194 0.8237 0.11511 0.0
N167 N 0.19122 0.75232 0.06476 0.0
H168 H 0.21016 0.41929 0.05329 0.0
H169 H 0.23211 0.39282 0.12288 0.0
H170 H 0.1602 0.39056 0.11572 0.0
H171 H 0.27131 0.42668 0.11564 0.0
C172 C 0.27143 0.42543 0.09418 0.0
C173 C 0.20582 0.41104 0.07228 0.0
C174 C 0.18246 0.40475 0.08226 0.0
C175 C 0.22416 0.40763 0.08711 0.0
C176 C 0.21848 0.39629 0.11148 0.0
C177 C 0.19541 0.39014 0.1217 0.0
C178 C 0.17763 0.39457 0.10719 0.0
N179 N 0.24843 0.41672 0.07748 0.0
H180 H 0.423 0.88531 0.27536 0.0
H181 H 0.47991 0.9292 0.22281 0.0
H182 H 0.41782 0.94458 0.23035 0.0
H183 H 0.48105 0.88948 0.22052 0.0
C184 C 0.48115 0.88619 0.24143 0.0
C185 C 0.4306 0.90062 0.26147 0.0
C186 C 0.41748 0.91413 0.25401 0.0
C187 C 0.45289 0.90568 0.25009 0.0
C188 C 0.46263 0.9251 0.23163 0.0
C189 C 0.44989 0.939 0.22417 0.0
C190 C 0.4275 0.93357 0.23567 0.0
N191 N 0.46517 0.89103 0.25763 0.0
H192 H 0.10995 0.53897 0.31257 0.0
H193 H 0.08538 0.55788 0.23962 0.0
H194 H 0.07338 0.47753 0.24575 0.0
H195 H 0.12501 0.59877 0.25379 0.0
C196 C 0.12039 0.60145 0.27375 0.0
C197 C 0.1008 0.53254 0.29238 0.0
C198 C 0.09187 0.50578 0.28112 0.0
C199 C 0.09897 0.55153 0.2774 0.0
C200 C 0.08731 0.54345 0.25118 0.0
C201 C 0.0777 0.51668 0.23982 0.0
C202 C 0.07985 0.49788 0.25492 0.0
N203 N 0.10928 0.57874 0.28891 0.0
H204 H 0.46279 0.56483 0.29802 0.0
H205 H 0.44219 0.507 0.22955 0.0
H206 H 0.51565 0.5805 0.23934 0.0
H207 H 0.40252 0.49611 0.23658 0.0
C208 C 0.40228 0.49905 0.25789 0.0
C209 C 0.46759 0.55869 0.27957 0.0
C210 C 0.49179 0.57511 0.27083 0.0
C211 C 0.44929 0.53447 0.26452 0.0
C212 C 0.45564 0.52624 0.24074 0.0
C213 C 0.47966 0.54262 0.23148 0.0
C214 C 0.4975 0.56704 0.24672 0.0
N215 N 0.4248 0.51897 0.27392 0.0
Tb216 Tb 0.52141 0.03114 0.0131 0.0
C217 C 0.50475 0.969 0.01993 0.0
Tb218 Tb 0.464 0.98808 0.01522 0.0
O219 O 0.52581 0.04853 0.05415 0.0
O220 O 0.49774 0.0087 0.04166 0.0
O221 O 0.523 0.99346 0.01463 0.0
C222 C 0.41767 0.9565 0.0312 0.0
O223 O 0.48087 0.96299 0.02278 0.0
C224 C 0.48134 0.99259 0.96843 0.0
C225 C 0.48046 0.04977 0.01007 0.0
O226 O 0.42194 0.96423 0.00747 0.0
O227 O 0.43936 0.9667 0.04573 0.0
O228 O 0.46222 0.97022 0.97498 0.0
O229 O 0.48767 0.01128 0.9867 0.0
O230 O 0.46359 0.02639 0.0188 0.0
O231 O 0.50287 0.05425 0.00255 0.0
C232 C 0.56848 0.05918 0.99768 0.0
O233 O 0.55972 0.06742 0.01669 0.0
O234 O 0.55067 0.03523 0.98722 0.0
C235 C 0.50502 0.02752 0.06005 0.0
Tb236 Tb 0.98393 0.49221 0.00635 0.0
C237 C 0.0419 0.54098 0.0103 0.0
Tb238 Tb 0.02724 0.47962 0.00469 0.0
O239 O 0.97785 0.48048 0.04686 0.0
O240 O 0.01414 0.49677 0.03337 0.0
O241 O 0.01727 0.53275 0.00407 0.0
C242 C 0.05993 0.4624 0.01675 0.0
O243 O 0.04986 0.52357 0.01526 0.0
C244 C 0.00919 0.48517 0.95865 0.0
C245 C 0.96872 0.4308 0.00259 0.0
O246 O 0.06086 0.47624 0.99694 0.0
O247 O 0.04073 0.4584 0.0298 0.0
O248 O 0.03254 0.49026 0.96363 0.0
O249 O 0.9969 0.47465 0.97795 0.0
O250 O 0.99358 0.43863 0.00575 0.0
O251 O 0.96048 0.44827 -0.00025 0.0
C252 C 0.95081 0.50797 0.99132 0.0
O253 O 0.95647 0.50526 0.01567 0.0
O254 O 0.96378 0.50189 0.97567 0.0
C255 C 0.00128 0.48575 0.05226 0.0
Tb256 Tb 0.48776 0.51187 0.00679 0.0
C257 C 0.50382 0.46884 0.99365 0.0
Tb258 Tb 0.54428 0.53149 0.0017 0.0
O259 O 0.47691 0.49763 0.96458 0.0
O260 O 0.51359 0.52982 0.97774 0.0
O261 O 0.48812 0.47376 0.00712 0.0
C262 C 0.59045 0.54382 0.98795 0.0
O263 O 0.52517 0.48878 0.98584 0.0
C264 C 0.53152 0.52901 0.05043 0.0
C265 C 0.52814 0.57569 0.01081 0.0
O266 O 0.57782 0.52623 0.00433 0.0
O267 O 0.57701 0.55421 0.97915 0.0
O268 O 0.55409 0.546 0.04394 0.0
O269 O 0.51821 0.51279 0.03043 0.0
O270 O 0.54609 0.57055 0.00335 0.0
O271 O 0.50462 0.55613 0.01445 0.0
C272 C 0.44293 0.49915 0.02485 0.0
O273 O 0.465 0.51169 0.03894 0.0
O274 O 0.44613 0.49403 0.00057 0.0
C275 C 0.49966 0.51371 0.95784 0.0
Tb276 Tb 0.187 0.36094 0.34812 0.0
C277 C 0.17439 0.29956 0.35096 0.0
Tb278 Tb 0.13079 0.31444 0.34613 0.0
O279 O 0.18764 0.37409 0.38984 0.0
O280 O 0.16332 0.33371 0.37427 0.0
O281 O 0.19113 0.32466 0.34566 0.0
C282 C 0.08319 0.28089 0.35771 0.0
O283 O 0.15051 0.29227 0.35571 0.0
C284 C 0.14964 0.32588 0.30028 0.0
C285 C 0.14362 0.37634 0.34524 0.0
O286 O 0.0941 0.2762 0.33843 0.0
O287 O 0.09901 0.30454 0.37039 0.0
O288 O 0.13096 0.30204 0.30419 0.0
O289 O 0.15425 0.342 0.32043 0.0
O290 O 0.12638 0.35065 0.34852 0.0
O291 O 0.16797 0.38435 0.34202 0.0
C292 C 0.23305 0.39179 0.33138 0.0
O293 O 0.2271 0.39425 0.35523 0.0
O294 O 0.21318 0.37208 0.31723 0.0
C295 C 0.16859 0.35052 0.39417 0.0
Tb296 Tb 0.64291 0.82807 0.33968 0.0
C297 C 0.69938 0.87519 0.35287 0.0
Tb298 Tb 0.68439 0.8128 0.34815 0.0
O299 O 0.64913 0.84407 0.3813 0.0
O300 O 0.65551 0.81214 0.37018 0.0
O301 O 0.67658 0.86814 0.3407 0.0
C302 C 0.72188 0.80412 0.36578 0.0
O303 O 0.70541 0.85687 0.36037 0.0
C304 C 0.66953 0.81246 0.29858 0.0
C305 C 0.62719 0.76543 0.33581 0.0
O306 O 0.72195 0.81645 0.34502 0.0
O307 O 0.70089 0.79699 0.37674 0.0
O308 O 0.67797 0.79683 0.30649 0.0
O309 O 0.67193 0.82887 0.3178 0.0
O310 O 0.65077 0.77207 0.3452 0.0
O311 O 0.62061 0.78388 0.3307 0.0
C312 C 0.60545 0.83548 0.31919 0.0
O313 O 0.61013 0.83397 0.34415 0.0
O314 O 0.6218 0.83281 0.30585 0.0
C315 C 0.6577 0.82857 0.38931 0.0
Tb316 Tb 0.14856 0.83389 0.34678 0.0
C317 C 0.16693 0.79222 0.33569 0.0
Tb318 Tb 0.20543 0.85631 0.33996 0.0
O319 O 0.13799 0.81553 0.3055 0.0
O320 O 0.17298 0.85103 0.31662 0.0
O321 O 0.14936 0.79609 0.34641 0.0
C322 C 0.25045 0.86886 0.32303 0.0
O323 O 0.18884 0.81262 0.32937 0.0
C324 C 0.19459 0.85786 0.38891 0.0
C325 C 0.18711 0.8981 0.3498 0.0
O326 O 0.24309 0.8598 0.34569 0.0
O327 O 0.23253 0.87094 0.30993 0.0
O328 O 0.21636 0.87512 0.38084 0.0
O329 O 0.1811 0.83944 0.3704 0.0
O330 O 0.20452 0.89381 0.33927 0.0
O331 O 0.16519 0.87798 0.35667 0.0
C332 C 0.10292 0.81928 0.36354 0.0
O333 O 0.11094 0.8307 0.34195 0.0
O334 O 0.1207 0.81637 0.37584 0.0
C335 C 0.15979 0.8331 0.29773 0.0
Tb336 Tb 0.85762 0.69634 0.6799 0.0
C337 C 0.84727 0.63539 0.68211 0.0
Tb338 Tb 0.80205 0.64784 0.6763 0.0
O339 O 0.85615 0.70826 0.72154 0.0
O340 O 0.83396 0.66802 0.70494 0.0
O341 O 0.86361 0.6612 0.67842 0.0
C342 C 0.75528 0.61504 0.69019 0.0
O343 O 0.8227 0.62643 0.68513 0.0
C344 C 0.82195 0.66013 0.63119 0.0
C345 C 0.81261 0.70903 0.67374 0.0
O346 O 0.76481 0.61007 0.6697 0.0
O347 O 0.77202 0.63844 0.7027 0.0
O348 O 0.80341 0.63593 0.63461 0.0
O349 O 0.82565 0.67603 0.65128 0.0
O350 O 0.79589 0.68293 0.67617 0.0
O351 O 0.83751 0.71847 0.67239 0.0
C352 C 0.90416 0.72772 0.66473 0.0
O353 O 0.89692 0.73114 0.68761 0.0
O354 O 0.88525 0.70688 0.65064 0.0
C355 C 0.83767 0.684 0.72498 0.0
Tb356 Tb 0.31487 0.16281 0.67853 0.0
C357 C 0.3732 0.21088 0.68189 0.0
Tb358 Tb 0.35797 0.14925 0.6786 0.0
O359 O 0.30926 0.15366 0.71991 0.0
O360 O 0.34502 0.16783 0.7059 0.0
O361 O 0.3486 0.20293 0.67594 0.0
C362 C 0.39057 0.13219 0.69217 0.0
O363 O 0.38093 0.19342 0.68753 0.0
C364 C 0.34009 0.15315 0.63165 0.0
C365 C 0.29936 0.10127 0.67631 0.0
O366 O 0.3918 0.14583 0.67211 0.0
O367 O 0.37106 0.12824 0.70466 0.0
O368 O 0.3631 0.15731 0.63693 0.0
O369 O 0.32774 0.14398 0.65127 0.0
O370 O 0.32407 0.10893 0.68106 0.0
O371 O 0.29153 0.11877 0.67136 0.0
C372 C 0.28268 0.17979 0.66299 0.0
O373 O 0.28404 0.17139 0.686 0.0
O374 O 0.29942 0.17869 0.64895 0.0
C375 C 0.33241 0.15813 0.72524 0.0
Tb376 Tb 0.8138 0.16973 0.67343 0.0
C377 C 0.828 0.12251 0.67241 0.0
Tb378 Tb 0.87 0.18465 0.67758 0.0
O379 O 0.81547 0.18017 0.63237 0.0
O380 O 0.83859 0.16592 0.64811 0.0
O381 O 0.81029 0.12954 0.67569 0.0
C382 C 0.9177 0.20231 0.66511 0.0
O383 O 0.85227 0.14065 0.66971 0.0
C384 C 0.84943 0.1777 0.72251 0.0
C385 C 0.85565 0.23182 0.67892 0.0
O386 O 0.90971 0.19455 0.68801 0.0
O387 O 0.89896 0.20035 0.64952 0.0
O388 O 0.86825 0.17352 0.71834 0.0
O389 O 0.84519 0.18817 0.70306 0.0
O390 O 0.87335 0.22482 0.67548 0.0
O391 O 0.83148 0.21363 0.68188 0.0
C392 C 0.76523 0.15199 0.68265 0.0
O393 O 0.775 0.16095 0.66076 0.0
O394 O 0.78281 0.15298 0.69944 0.0
C395 C 0.83417 0.17581 0.62831 0.0
H396 H 0.25789 0.8369 0.04039 0.0
H397 H 0.40776 0.9406 0.08076 0.0
H398 H 0.29604 0.84816 0.11871 0.0
H399 H 0.37068 0.9294 0.00196 0.0
H400 H 0.3666 0.90755 0.09516 0.0
H401 H 0.29866 0.87092 0.0259 0.0
C402 C 0.27486 0.84639 0.05451 0.0
C403 C 0.27349 0.8396 0.08083 0.0
C404 C 0.36738 0.91232 0.07472 0.0
C405 C 0.32022 0.87887 0.06442 0.0
C406 C 0.39087 0.93122 0.06651 0.0
C407 C 0.39255 0.93764 0.04013 0.0
C408 C 0.34536 0.89966 0.05641 0.0
C409 C 0.37013 0.92497 0.02249 0.0
C410 C 0.29811 0.86596 0.04626 0.0
C411 C 0.29607 0.85294 0.09833 0.0
N412 N 0.34743 0.90649 0.03092 0.0
N413 N 0.31845 0.87188 0.08981 0.0
H414 H 0.12995 0.37414 0.07776 0.0
H415 H 0.10588 0.47727 0.99746 0.0
H416 H 0.19209 0.44819 0.05394 0.0
H417 H 0.05411 0.42508 0.05092 0.0
H418 H 0.13557 0.46115 0.00991 0.0
H419 H 0.09956 0.38673 0.05931 0.0
C420 C 0.13724 0.393 0.06857 0.0
C421 C 0.16371 0.41035 0.06784 0.0
C422 C 0.11765 0.4532 0.01879 0.0
C423 C 0.1289 0.42457 0.04625 0.0
C424 C 0.10075 0.46233 0.01171 0.0
C425 C 0.07769 0.45255 0.02336 0.0
C426 C 0.11112 0.43387 0.03727 0.0
C427 C 0.07182 0.43322 0.04165 0.0
C428 C 0.11985 0.4001 0.05799 0.0
C429 C 0.1719 0.43411 0.05491 0.0
N430 N 0.08842 0.42444 0.04801 0.0
N431 N 0.15455 0.44062 0.04475 0.0
H432 H 0.52916 0.72682 0.04984 0.0
H433 H 0.57522 0.62114 0.01022 0.0
H434 H 0.60773 0.74551 0.06032 0.0
H435 H 0.49655 0.59613 0.02168 0.0
H436 H 0.58677 0.66845 0.0203 0.0
H437 H 0.51642 0.68056 0.03104 0.0
C438 C 0.54374 0.72129 0.0477 0.0
C439 C 0.56948 0.73983 0.0567 0.0
C440 C 0.56695 0.65262 0.02048 0.0
C441 C 0.55515 0.68725 0.03549 0.0
C442 C 0.56029 0.62555 0.01467 0.0
C443 C 0.53487 0.60452 0.01532 0.0
C444 C 0.54809 0.65887 0.02687 0.0
C445 C 0.51641 0.61163 0.02116 0.0
C446 C 0.53647 0.69491 0.03721 0.0
C447 C 0.58765 0.73168 0.05378 0.0
N448 N 0.52341 0.63823 0.02681 0.0
N449 N 0.58013 0.70597 0.04351 0.0
H450 H 0.82545 0.27808 0.97622 0.0
H451 H 0.97605 0.38708 0.99442 0.0
H452 H 0.88307 0.26081 0.95064 0.0
H453 H 0.917 0.40745 0.00451 0.0
H454 H 0.9428 0.33895 0.98583 0.0
H455 H 0.85944 0.32368 0.99449 0.0
C456 C 0.84527 0.28374 0.97484 0.0
C457 C 0.85145 0.26576 0.96166 0.0
C458 C 0.93718 0.35398 0.99013 0.0
C459 C 0.89041 0.31792 0.98226 0.0
C460 C 0.95615 0.38145 0.99511 0.0
C461 C 0.94931 0.4014 -0.00013 0.0
C462 C 0.91122 0.34641 0.99011 0.0
C463 C 0.92319 0.39285 0.00058 0.0
C464 C 0.86466 0.30982 0.98509 0.0
C465 C 0.87747 0.27422 0.96027 0.0
N466 N 0.90513 0.36606 0.99562 0.0
N467 N 0.89598 0.29974 0.97027 0.0
H468 H 0.73107 0.54825 0.95759 0.0
H469 H 0.62096 0.58559 0.95996 0.0
H470 H 0.74265 0.62689 0.94055 0.0
H471 H 0.61899 0.52054 0.00135 0.0
H472 H 0.66464 0.59946 0.94993 0.0
H473 H 0.6894 0.53658 0.97211 0.0
C474 C 0.72511 0.56329 0.95731 0.0
C475 C 0.74047 0.58863 0.94774 0.0
C476 C 0.6547 0.58222 0.9613 0.0
C477 C 0.69234 0.57496 0.96363 0.0
C478 C 0.62977 0.57422 0.96688 0.0
C479 C 0.61649 0.5519 0.98143 0.0
C480 C 0.66626 0.56755 0.97007 0.0
C481 C 0.62868 0.53787 0.99004 0.0
C482 C 0.70118 0.55648 0.96542 0.0
C483 C 0.73132 0.60696 0.94732 0.0
N484 N 0.6529 0.54584 0.9841 0.0
N485 N 0.70776 0.59967 0.95491 0.0
H486 H 0.39704 0.12784 0.95909 0.0
H487 H 0.51164 0.10325 0.00236 0.0
H488 H 0.47565 0.19289 0.97521 0.0
H489 H 0.43247 0.04369 0.00881 0.0
H490 H 0.4987 0.13638 0.99242 0.0
H491 H 0.40924 0.0965 0.97737 0.0
C492 C 0.4168 0.13555 0.96674 0.0
C493 C 0.43537 0.16296 0.96561 0.0
C494 C 0.48418 0.11614 0.99627 0.0
C495 C 0.44951 0.12728 0.98623 0.0
C496 C 0.49155 0.09718 0.00185 0.0
C497 C 0.4731 0.0706 0.00625 0.0
C498 C 0.45812 0.10839 0.99467 0.0
C499 C 0.44735 0.06395 0.00553 0.0
C500 C 0.42374 0.11771 0.97723 0.0
C501 C 0.46068 0.17197 0.97592 0.0
N502 N 0.44058 0.08263 -0.00048 0.0
N503 N 0.46706 0.15411 0.9855 0.0
H504 H 0.71157 0.10157 0.93347 0.0
H505 H 0.60723 0.10959 0.01796 0.0
H506 H 0.72713 0.17342 0.9829 0.0
H507 H 0.58978 0.04213 0.96073 0.0
H508 H 0.65155 0.13292 0.00654 0.0
H509 H 0.66725 0.07881 0.94467 0.0
C510 C 0.70562 0.1125 0.94676 0.0
C511 C 0.72297 0.13935 0.95727 0.0
C512 C 0.63803 0.11306 0.99642 0.0
C513 C 0.67233 0.11354 0.97017 0.0
C514 C 0.61275 0.09977 0.00291 0.0
C515 C 0.59492 0.07394 0.99025 0.0
C516 C 0.64551 0.10033 0.97722 0.0
C517 C 0.60299 0.06205 0.97094 0.0
C518 C 0.68033 0.09955 0.95309 0.0
C519 C 0.71435 0.15267 0.97435 0.0
N520 N 0.62773 0.0753 0.96507 0.0
N521 N 0.68961 0.13961 0.98029 0.0
H522 H 0.84232 0.56538 0.97994 0.0
H523 H 0.93687 0.51171 0.94063 0.0
H524 H 0.85207 0.54621 0.89939 0.0
H525 H 0.92318 0.52319 0.02167 0.0
H526 H 0.90645 0.52553 0.92553 0.0
H527 H 0.87238 0.5511 0.99613 0.0
C528 C 0.85076 0.55813 0.96569 0.0
C529 C 0.8448 0.55693 0.93829 0.0
C530 C 0.91002 0.52503 0.94663 0.0
C531 C 0.87909 0.54072 0.95657 0.0
C532 C 0.92741 0.51718 0.95525 0.0
C533 C 0.93246 0.51635 0.9824 0.0
C534 C 0.89761 0.53221 0.96533 0.0
C535 C 0.91973 0.52359 0.00054 0.0
C536 C 0.86789 0.54998 0.97492 0.0
C537 C 0.85622 0.54741 0.92068 0.0
N538 N 0.90285 0.53128 0.99167 0.0
N539 N 0.87285 0.53972 0.93011 0.0
H540 H 0.44673 0.2947 0.98706 0.0
H541 H 0.52531 0.4507 0.95797 0.0
H542 H 0.48632 0.32194 0.91715 0.0
H543 H 0.46805 0.42231 0.01364 0.0
H544 H 0.51485 0.40395 0.94643 0.0
H545 H 0.45789 0.34174 0.00071 0.0
C546 C 0.4579 0.31061 0.9747 0.0
C547 C 0.46573 0.30459 0.95098 0.0
C548 C 0.50455 0.40791 0.96117 0.0
C549 C 0.4785 0.35811 0.96642 0.0
C550 C 0.51057 0.43464 0.96787 0.0
C551 C 0.49752 0.44045 0.98682 0.0
C552 C 0.48547 0.38673 0.97364 0.0
C553 C 0.47851 0.41872 0.99885 0.0
C554 C 0.46414 0.33737 0.98242 0.0
C555 C 0.47998 0.32583 0.93559 0.0
N556 N 0.47309 0.39277 0.99211 0.0
N557 N 0.48598 0.35166 0.94361 0.0
H558 H 0.17761 0.70132 0.04764 0.0
H559 H 0.03176 0.58275 0.01013 0.0
H560 H 0.11235 0.71162 0.05629 0.0
H561 H 0.09437 0.56694 0.02068 0.0
H562 H 0.06203 0.63126 0.02068 0.0
H563 H 0.14829 0.65321 0.03174 0.0
C564 C 0.15713 0.69351 0.04598 0.0
C565 C 0.14729 0.71038 0.05326 0.0
C566 C 0.06918 0.6172 0.02059 0.0
C567 C 0.1138 0.6556 0.03513 0.0
C568 C 0.0519 0.58945 0.01446 0.0
C569 C 0.06047 0.57063 0.01469 0.0
C570 C 0.09532 0.62638 0.02685 0.0
C571 C 0.08686 0.58067 0.02044 0.0
C572 C 0.14043 0.66606 0.037 0.0
C573 C 0.12065 0.69923 0.05086 0.0
N574 N 0.10335 0.60786 0.02636 0.0
N575 N 0.10483 0.67256 0.042 0.0
H576 H 0.28104 0.42689 0.04169 0.0
H577 H 0.43355 0.50407 0.07626 0.0
H578 H 0.31841 0.44905 0.12168 0.0
H579 H 0.3958 0.47356 0.99677 0.0
H580 H 0.39161 0.48666 0.09317 0.0
H581 H 0.32301 0.44612 0.02465 0.0
C582 C 0.29809 0.4358 0.05566 0.0
C583 C 0.29636 0.43643 0.08314 0.0
C584 C 0.39248 0.48384 0.07202 0.0
C585 C 0.34436 0.45851 0.06383 0.0
C586 C 0.41639 0.49385 0.06238 0.0
C587 C 0.418 0.49018 0.03513 0.0
C588 C 0.37009 0.47014 0.05423 0.0
C589 C 0.39529 0.47675 0.01795 0.0
C590 C 0.32204 0.44678 0.04593 0.0
C591 C 0.31902 0.44818 0.10035 0.0
N592 N 0.37224 0.46717 0.02779 0.0
N593 N 0.34211 0.4588 0.09042 0.0
H594 H 0.57199 0.86527 0.0353 0.0
H595 H 0.47842 0.92464 0.04688 0.0
H596 H 0.52993 0.85804 0.10313 0.0
H597 H 0.54721 0.9664 0.00725 0.0
H598 H 0.49163 0.89272 0.06029 0.0
H599 H 0.55813 0.89592 0.01801 0.0
C600 C 0.55974 0.87003 0.04643 0.0
C601 C 0.55196 0.85916 0.07062 0.0
C602 C 0.50376 0.90879 0.04854 0.0
C603 C 0.53592 0.89357 0.0509 0.0
C604 C 0.49618 0.92695 0.0407 0.0
C605 C 0.51181 0.94834 0.02599 0.0
C606 C 0.52694 0.9117 0.04132 0.0
C607 C 0.53469 0.9503 0.01872 0.0
C608 C 0.55197 0.88753 0.03664 0.0
C609 C 0.53629 0.86605 0.08441 0.0
N610 N 0.54159 0.93213 0.02643 0.0
N611 N 0.5286 0.88266 0.07426 0.0
H612 H 0.93625 0.2093 0.42054 0.0
H613 H 0.0512 0.22801 0.33758 0.0
H614 H 0.94147 0.14106 0.38669 0.0
H615 H 0.05639 0.29088 0.39367 0.0
H616 H 0.00843 0.1966 0.35034 0.0
H617 H 0.97782 0.24024 0.40581 0.0
C618 C 0.94617 0.20075 0.41016 0.0
C619 C 0.93539 0.17241 0.40521 0.0
C620 C 0.01894 0.21727 0.35981 0.0
C621 C 0.9829 0.20797 0.38771 0.0
C622 C 0.04325 0.23519 0.3525 0.0
C623 C 0.05724 0.26199 0.36465 0.0
C624 C 0.00849 0.2264 0.37915 0.0
C625 C 0.04619 0.27033 0.38388 0.0
C626 C 0.96988 0.2185 0.40163 0.0
C627 C 0.94889 0.1627 0.39086 0.0
N628 N 0.02241 0.25261 0.39049 0.0
N629 N 0.97196 0.18045 0.38264 0.0
H630 H 0.85677 0.78789 0.38944 0.0
H631 H 0.71926 0.77118 0.40365 0.0
H632 H 0.79554 0.71985 0.42236 0.0
H633 H 0.76793 0.81987 0.34622 0.0
H634 H 0.74987 0.75632 0.41503 0.0
H635 H 0.82671 0.8032 0.37629 0.0
C636 C 0.837 0.776 0.39366 0.0
C637 C 0.82876 0.75269 0.4073 0.0
C638 C 0.75388 0.77027 0.39994 0.0
C639 C 0.79458 0.77044 0.39288 0.0
C640 C 0.73651 0.77887 0.39358 0.0
C641 C 0.74114 0.79669 0.37396 0.0
C642 C 0.77616 0.77978 0.38678 0.0
C643 C 0.76373 0.80605 0.36145 0.0
C644 C 0.81993 0.78486 0.3863 0.0
C645 C 0.80295 0.73829 0.41247 0.0
N646 N 0.78051 0.79751 0.36811 0.0
N647 N 0.78688 0.74752 0.40547 0.0
H648 H 0.18478 0.04704 0.3925 0.0
H649 H 0.23284 0.94463 0.34701 0.0
H650 H 0.26405 0.06793 0.4001 0.0
H651 H 0.15518 0.91668 0.36514 0.0
H652 H 0.24339 0.99143 0.35865 0.0
H653 H 0.17255 0.0006 0.37472 0.0
C654 C 0.19958 0.0419 0.39009 0.0
C655 C 0.22542 0.06118 0.39785 0.0
C656 C 0.22401 0.97506 0.35997 0.0
C657 C 0.21168 0.00846 0.37762 0.0
C658 C 0.2179 0.94829 0.35322 0.0
C659 C 0.19308 0.9266 0.35522 0.0
C660 C 0.20515 0.98033 0.36859 0.0
C661 C 0.1746 0.93274 0.36346 0.0
C662 C 0.19261 0.01543 0.38014 0.0
C663 C 0.2439 0.05353 0.39455 0.0
N664 N 0.18101 0.95907 0.36988 0.0
N665 N 0.23667 0.02778 0.38468 0.0
H666 H 0.48385 0.61519 0.2924 0.0
H667 H 0.63326 0.72065 0.33357 0.0
H668 H 0.54316 0.59522 0.28292 0.0
H669 H 0.57538 0.74382 0.32609 0.0
H670 H 0.59979 0.67298 0.32204 0.0
H671 H 0.51651 0.66072 0.31231 0.0
C672 C 0.5037 0.62026 0.29492 0.0
C673 C 0.51085 0.60151 0.28582 0.0
C674 C 0.59445 0.68853 0.32309 0.0
C675 C 0.54833 0.65358 0.30829 0.0
C676 C 0.61353 0.71573 0.32973 0.0
C677 C 0.60717 0.73632 0.33058 0.0
C678 C 0.56883 0.68186 0.31748 0.0
C679 C 0.58126 0.7287 0.32542 0.0
C680 C 0.52236 0.6463 0.30608 0.0
C681 C 0.53689 0.60923 0.28934 0.0
N682 N 0.56308 0.70214 0.31903 0.0
N683 N 0.55471 0.63471 0.30017 0.0
H684 H 0.37432 0.90758 0.22631 0.0
H685 H 0.29057 0.86832 0.34988 0.0
H686 H 0.40401 0.90437 0.30482 0.0
H687 H 0.26617 0.88408 0.27451 0.0
H688 H 0.33152 0.8791 0.33334 0.0
H689 H 0.33378 0.89671 0.24325 0.0
C690 C 0.37238 0.90481 0.2472 0.0
C691 C 0.39269 0.90716 0.26425 0.0
C692 C 0.31723 0.88025 0.32045 0.0
C693 C 0.34608 0.89422 0.28369 0.0
C694 C 0.2939 0.87408 0.32985 0.0
C695 C 0.27514 0.87541 0.31348 0.0
C696 C 0.32164 0.88761 0.29447 0.0
C697 C 0.28025 0.88292 0.28773 0.0
C698 C 0.34916 0.89844 0.25682 0.0
C699 C 0.38882 0.90261 0.29096 0.0
N700 N 0.30304 0.88871 0.27898 0.0
N701 N 0.36595 0.89638 0.29989 0.0
H702 H 0.06003 0.45097 0.28441 0.0
H703 H 0.17303 0.43173 0.3476 0.0
H704 H 0.13623 0.51755 0.31041 0.0
H705 H 0.09438 0.36612 0.33431 0.0
H706 H 0.15911 0.46369 0.33632 0.0
H707 H 0.07131 0.4197 0.30446 0.0
C708 C 0.07905 0.45904 0.29452 0.0
C709 C 0.09723 0.48692 0.29564 0.0
C710 C 0.14482 0.44236 0.33612 0.0
C711 C 0.11029 0.45129 0.31855 0.0
C712 C 0.15277 0.42406 0.34254 0.0
C713 C 0.13488 0.39615 0.34168 0.0
C714 C 0.11879 0.43271 0.32843 0.0
C715 C 0.10885 0.38746 0.3352 0.0
C716 C 0.08544 0.44121 0.30606 0.0
C717 C 0.1215 0.49629 0.30925 0.0
N718 N 0.10162 0.40563 0.32848 0.0
N719 N 0.12738 0.4785 0.31991 0.0
H720 H 0.35689 0.46094 0.23163 0.0
H721 H 0.27759 0.43238 0.35902 0.0
H722 H 0.3915 0.50184 0.30983 0.0
H723 H 0.2457 0.38873 0.28131 0.0
H724 H 0.3193 0.45904 0.34164 0.0
H725 H 0.31571 0.43513 0.24966 0.0
C726 C 0.35577 0.46444 0.25263 0.0
C727 C 0.37757 0.48349 0.26924 0.0
C728 C 0.30316 0.44363 0.32841 0.0
C729 C 0.33051 0.45409 0.29012 0.0
C730 C 0.2794 0.42847 0.33832 0.0
C731 C 0.25828 0.40836 0.32156 0.0
C732 C 0.30568 0.43862 0.30156 0.0
C733 C 0.26155 0.40403 0.29491 0.0
C734 C 0.33228 0.44972 0.26294 0.0
C735 C 0.37514 0.48731 0.29632 0.0
N736 N 0.28478 0.41902 0.28575 0.0
N737 N 0.35198 0.47274 0.30593 0.0
H738 H 0.51279 0.87461 0.21513 0.0
H739 H 0.57043 0.84208 0.34524 0.0
H740 H 0.48744 0.87563 0.2928 0.0
H741 H 0.59532 0.84052 0.26743 0.0
H742 H 0.53852 0.85243 0.32609 0.0
H743 H 0.54188 0.86014 0.23356 0.0
C744 C 0.51331 0.87165 0.23605 0.0
C745 C 0.49781 0.87636 0.25247 0.0
C746 C 0.55089 0.84973 0.31317 0.0
C747 C 0.53099 0.85995 0.27376 0.0
C748 C 0.56906 0.84382 0.3241 0.0
C749 C 0.58549 0.84057 0.30785 0.0
C750 C 0.54923 0.85245 0.28584 0.0
C751 C 0.58299 0.84296 0.28061 0.0
C752 C 0.52989 0.86342 0.24657 0.0
C753 C 0.49912 0.87226 0.27943 0.0
N754 N 0.56525 0.84886 0.27045 0.0
N755 N 0.51552 0.86437 0.28926 0.0
H756 H 0.10683 0.61708 0.31976 0.0
H757 H 0.19175 0.77575 0.30275 0.0
H758 H 0.15053 0.64867 0.25318 0.0
H759 H 0.12938 0.74453 0.35239 0.0
H760 H 0.18121 0.7293 0.28925 0.0
H761 H 0.11895 0.66373 0.33656 0.0
C762 C 0.11909 0.63385 0.3088 0.0
C763 C 0.12778 0.62916 0.28508 0.0
C764 C 0.16987 0.73259 0.30317 0.0
C765 C 0.14174 0.68225 0.30417 0.0
C766 C 0.17596 0.75915 0.31104 0.0
C767 C 0.16141 0.76409 0.32876 0.0
C768 C 0.14921 0.71069 0.31322 0.0
C769 C 0.14105 0.74166 0.33862 0.0
C770 C 0.1259 0.66039 0.31832 0.0
C771 C 0.14347 0.6515 0.27155 0.0
N772 N 0.13555 0.71588 0.33074 0.0
N773 N 0.15002 0.67709 0.28132 0.0
H774 H 0.77195 0.04952 0.38712 0.0
H775 H 0.75093 0.89924 0.36903 0.0
H776 H 0.83497 0.03442 0.38479 0.0
H777 H 0.69156 0.91821 0.3491 0.0
H778 H 0.7819 0.94814 0.37803 0.0
H779 H 0.74193 0.0008 0.37618 0.0
C780 C 0.77943 0.0359 0.38413 0.0
C781 C 0.80589 0.04595 0.38671 0.0
C782 C 0.76209 0.94152 0.37159 0.0
C783 C 0.77174 0.99015 0.37455 0.0
C784 C 0.74439 0.91363 0.36655 0.0
C785 C 0.71858 0.90457 0.35828 0.0
C786 C 0.75385 0.96042 0.36866 0.0
C787 C 0.71124 0.92418 0.35533 0.0
C788 C 0.76232 0.00812 0.37789 0.0
C789 C 0.81467 0.02749 0.3828 0.0
N790 N 0.72873 0.95111 0.36064 0.0
N791 N 0.79759 0.00039 0.37706 0.0
H792 H 0.94386 0.77266 0.37241 0.0
H793 H 0.08191 0.78821 0.40396 0.0
H794 H 0.95709 0.71932 0.41961 0.0
H795 H 0.06448 0.82531 0.34021 0.0
H796 H 0.03724 0.76701 0.41399 0.0
H797 H 0.98898 0.79589 0.36374 0.0
C798 C 0.95625 0.7658 0.38089 0.0
C799 C 0.94683 0.74403 0.39672 0.0
C800 C 0.04321 0.77985 0.39786 0.0
C801 C 0.99836 0.77064 0.38715 0.0
C802 C 0.06869 0.79206 0.39224 0.0
C803 C 0.07674 0.80839 0.37119 0.0
C804 C 0.02576 0.78423 0.38242 0.0
C805 C 0.05893 0.81275 0.35657 0.0
C806 C 0.98198 0.77906 0.37594 0.0
C807 C 0.96368 0.73598 0.40722 0.0
N808 N 0.03421 0.8007 0.36245 0.0
N809 N 0.98868 0.74936 0.40235 0.0
H810 H 0.26798 0.23099 0.39671 0.0
H811 H 0.14585 0.24529 0.35782 0.0
H812 H 0.19114 0.16199 0.38304 0.0
H813 H 0.22375 0.30952 0.3533 0.0
H814 H 0.16175 0.2145 0.36771 0.0
H815 H 0.25192 0.26033 0.38177 0.0
C816 C 0.24773 0.22204 0.39043 0.0
C817 C 0.23087 0.19411 0.39108 0.0
C818 C 0.17533 0.23528 0.36435 0.0
C819 C 0.21228 0.22747 0.37418 0.0
C820 C 0.16628 0.2529 0.35874 0.0
C821 C 0.1835 0.28011 0.35487 0.0
C822 C 0.20181 0.24499 0.36638 0.0
C823 C 0.20975 0.28876 0.35618 0.0
C824 C 0.23857 0.23875 0.38186 0.0
C825 C 0.2048 0.18345 0.38278 0.0
N826 N 0.2181 0.27132 0.36205 0.0
N827 N 0.19626 0.2002 0.37483 0.0
H828 H 0.61461 0.47532 0.72481 0.0
H829 H 0.73087 0.62702 0.72745 0.0
H830 H 0.60957 0.5454 0.75305 0.0
H831 H 0.72184 0.56188 0.67182 0.0
H832 H 0.6886 0.59643 0.74159 0.0
H833 H 0.65608 0.50585 0.70934 0.0
C834 C 0.62205 0.49707 0.72764 0.0
C835 C 0.6084 0.5077 0.74031 0.0
C836 C 0.69583 0.58887 0.72622 0.0
C837 C 0.65625 0.54274 0.72316 0.0
C838 C 0.71993 0.60626 0.71821 0.0
C839 C 0.72971 0.59688 0.69843 0.0
C840 C 0.68165 0.56181 0.71466 0.0
C841 C 0.71486 0.56985 0.68708 0.0
C842 C 0.64581 0.51447 0.71888 0.0
C843 C 0.61947 0.53617 0.74388 0.0
N844 N 0.69158 0.55315 0.69549 0.0
N845 N 0.64278 0.55267 0.73547 0.0
H846 H 0.45659 0.03809 0.74834 0.0
H847 H 0.43663 0.14656 0.67347 0.0
H848 H 0.5202 0.11165 0.72556 0.0
H849 H 0.3842 0.09481 0.72669 0.0
H850 H 0.46547 0.12932 0.68554 0.0
H851 H 0.42757 0.05383 0.73329 0.0
C852 C 0.46452 0.05753 0.74018 0.0
C853 C 0.49104 0.07367 0.73857 0.0
C854 C 0.44765 0.12177 0.69453 0.0
C855 C 0.45767 0.09148 0.72075 0.0
C856 C 0.43121 0.13154 0.68765 0.0
C857 C 0.40813 0.12212 0.69922 0.0
C858 C 0.44065 0.10211 0.71271 0.0
C859 C 0.40192 0.10265 0.71744 0.0
C860 C 0.44788 0.06643 0.73152 0.0
C861 C 0.49995 0.09833 0.72703 0.0
N862 N 0.41804 0.09317 0.72355 0.0
N863 N 0.48331 0.1065 0.71861 0.0
H864 H 0.93987 0.40322 0.73035 0.0
H865 H 0.8249 0.25441 0.68018 0.0
H866 H 0.86296 0.38614 0.70823 0.0
H867 H 0.90446 0.27604 0.68527 0.0
H868 H 0.83832 0.30251 0.6893 0.0
H869 H 0.92738 0.35693 0.71279 0.0
C870 C 0.92037 0.38971 0.72157 0.0
C871 C 0.90235 0.39838 0.72089 0.0
C872 C 0.85284 0.29676 0.68817 0.0
C873 C 0.88781 0.34529 0.70095 0.0
C874 C 0.8452 0.26926 0.68304 0.0
C875 C 0.86358 0.26109 0.68218 0.0
C876 C 0.87906 0.31627 0.69277 0.0
C877 C 0.8896 0.28133 0.68583 0.0
C878 C 0.91326 0.36333 0.71148 0.0
C879 C 0.87743 0.38023 0.70906 0.0
N880 N 0.89655 0.30793 0.69124 0.0
N881 N 0.87079 0.35439 0.69985 0.0
H882 H 0.21921 0.93041 0.62412 0.0
H883 H 0.24742 0.07808 0.67567 0.0
H884 H 0.16015 0.94832 0.64266 0.0
H885 H 0.30694 0.05759 0.67095 0.0
H886 H 0.21525 0.02991 0.66672 0.0
H887 H 0.25169 0.97585 0.64433 0.0
C888 C 0.2131 0.94383 0.63276 0.0
C889 C 0.18698 0.93572 0.63151 0.0
C890 C 0.23534 0.03588 0.66792 0.0
C891 C 0.22398 0.98775 0.65445 0.0
C892 C 0.25375 0.06342 0.67294 0.0
C893 C 0.27993 0.07193 0.67373 0.0
C894 C 0.2431 0.01665 0.6633 0.0
C895 C 0.28697 0.05198 0.67037 0.0
C896 C 0.23162 0.96971 0.64434 0.0
C897 C 0.18007 0.95372 0.64327 0.0
N898 N 0.26865 0.02528 0.66495 0.0
N899 N 0.19847 0.97903 0.65392 0.0
H900 H 0.04281 0.23671 0.57208 0.0
H901 H 0.96001 0.20981 0.69593 0.0
H902 H 0.07675 0.25254 0.65317 0.0
H903 H 0.93351 0.21299 0.61601 0.0
H904 H 0.00212 0.22212 0.6811 0.0
H905 H 0.00165 0.22414 0.58819 0.0
C906 C 0.04167 0.23775 0.59333 0.0
C907 C 0.06343 0.24614 0.6113 0.0
C908 C 0.98708 0.22019 0.66688 0.0
C909 C 0.01598 0.23123 0.62996 0.0
C910 C 0.96312 0.21318 0.67532 0.0
C911 C 0.94338 0.21046 0.65714 0.0
C912 C 0.9911 0.22419 0.64006 0.0
C913 C 0.94826 0.21496 0.63067 0.0
C914 C 0.01807 0.23042 0.60253 0.0
C915 C 0.06049 0.24617 0.63861 0.0
N916 N 0.97158 0.22151 0.62292 0.0
N917 N 0.03718 0.2389 0.64714 0.0
H918 H 0.77989 0.8409 0.65991 0.0
H919 H 0.76772 0.69621 0.64534 0.0
H920 H 0.76198 0.79496 0.58292 0.0
H921 H 0.8354 0.76368 0.68863 0.0
H922 H 0.75441 0.72813 0.63085 0.0
H923 H 0.79068 0.80877 0.67865 0.0
C924 C 0.7782 0.82427 0.64682 0.0
C925 C 0.76989 0.82094 0.61957 0.0
C926 C 0.77196 0.73578 0.64385 0.0
C927 C 0.78108 0.78345 0.64149 0.0
C928 C 0.77946 0.71765 0.65227 0.0
C929 C 0.8027 0.72742 0.66815 0.0
C930 C 0.78745 0.76368 0.65199 0.0
C931 C 0.8174 0.75543 0.67629 0.0
C932 C 0.78417 0.80584 0.6577 0.0
C933 C 0.76754 0.79829 0.60407 0.0
N934 N 0.80948 0.77267 0.66819 0.0
N935 N 0.77288 0.78036 0.61529 0.0
H936 H 0.06401 0.84427 0.65025 0.0
H937 H 0.92055 0.71921 0.61847 0.0
H938 H 0.0405 0.77963 0.58739 0.0
H939 H 0.94642 0.77221 0.6916 0.0
H940 H 0.96376 0.74411 0.60483 0.0
H941 H 0.02052 0.82087 0.66406 0.0
C942 C 0.0497 0.82516 0.63936 0.0
C943 C 0.05577 0.81377 0.61763 0.0
C944 C 0.96006 0.75036 0.62387 0.0
C945 C 0.00613 0.78712 0.63319 0.0
C946 C 0.93538 0.7362 0.63163 0.0
C947 C 0.93003 0.74366 0.65623 0.0
C948 C 0.97957 0.77227 0.64077 0.0
C949 C 0.94987 0.76584 0.67249 0.0
C950 C 0.02492 0.81182 0.64728 0.0
C951 C 0.03655 0.78901 0.60426 0.0
N952 N 0.97385 0.77942 0.66447 0.0
N953 N 0.01258 0.77655 0.6122 0.0
H954 H 0.1679 0.22895 0.64791 0.0
H955 H 0.27706 0.19445 0.61414 0.0
H956 H 0.19312 0.22911 0.57001 0.0
H957 H 0.2477 0.18538 0.69073 0.0
H958 H 0.24731 0.20899 0.59847 0.0
H959 H 0.19777 0.21465 0.6649 0.0
C960 C 0.17972 0.22598 0.63442 0.0
C961 C 0.1781 0.23018 0.60751 0.0
C962 C 0.2473 0.20384 0.61872 0.0
C963 C 0.21221 0.21396 0.62674 0.0
C964 C 0.26433 0.19558 0.62768 0.0
C965 C 0.26478 0.18875 0.65374 0.0
C966 C 0.2306 0.20537 0.63597 0.0
C967 C 0.24787 0.19049 0.67046 0.0
C968 C 0.19673 0.21781 0.6441 0.0
C969 C 0.19381 0.22606 0.59089 0.0
N970 N 0.23143 0.19868 0.66129 0.0
N971 N 0.2102 0.21823 0.60075 0.0
H972 H 0.81451 0.96229 0.65117 0.0
H973 H 0.78062 0.0806 0.653 0.0
H974 H 0.76926 0.96958 0.58662 0.0
H975 H 0.85673 0.09814 0.68051 0.0
H976 H 0.76899 0.03356 0.6393 0.0
H977 H 0.82351 0.00678 0.67223 0.0
C978 C 0.80629 0.97312 0.64164 0.0
C979 C 0.79122 0.9625 0.61714 0.0
C980 C 0.78811 0.04768 0.64869 0.0
C981 C 0.80081 0.01245 0.6412 0.0
C982 C 0.79473 0.07443 0.65666 0.0
C983 C 0.81975 0.09332 0.66771 0.0
C984 C 0.80645 0.03963 0.65233 0.0
C985 C 0.8373 0.08423 0.67182 0.0
C986 C 0.81146 0.99839 0.65357 0.0
C987 C 0.78108 0.97726 0.60545 0.0
N988 N 0.83034 0.05796 0.6641 0.0
N989 N 0.7859 0.00141 0.61767 0.0
H990 H 0.51016 0.37042 0.71489 0.0
H991 H 0.36393 0.25298 0.67772 0.0
H992 H 0.44581 0.38334 0.71718 0.0
H993 H 0.4255 0.23632 0.69341 0.0
H994 H 0.39472 0.30157 0.68599 0.0
H995 H 0.48036 0.32197 0.70115 0.0
C996 C 0.48978 0.36309 0.71228 0.0
C997 C 0.48033 0.38081 0.71718 0.0
C998 C 0.40152 0.2873 0.68754 0.0
C999 C 0.44628 0.32562 0.70151 0.0
C1000 C 0.38395 0.25949 0.68275 0.0
C1001 C 0.39207 0.24044 0.68508 0.0
C1002 C 0.4275 0.29626 0.6946 0.0
C1003 C 0.41832 0.25024 0.69156 0.0
C1004 C 0.4728 0.33545 0.70454 0.0
C1005 C 0.4538 0.37027 0.71363 0.0
N1006 N 0.43511 0.27748 0.69618 0.0
N1007 N 0.43769 0.34337 0.70602 0.0
H1008 H 0.62006 0.08273 0.74956 0.0
H1009 H 0.72752 0.15056 0.6492 0.0
H1010 H 0.60671 0.1085 0.67475 0.0
H1011 H 0.742 0.1311 0.72702 0.0
H1012 H 0.68288 0.13401 0.65744 0.0
H1013 H 0.66435 0.09892 0.74087 0.0
C1014 C 0.62642 0.09176 0.73124 0.0
C1015 C 0.60967 0.09429 0.71277 0.0
C1016 C 0.6958 0.13336 0.67273 0.0
C1017 C 0.66049 0.11293 0.70275 0.0
C1018 C 0.72125 0.14278 0.66803 0.0
C1019 C 0.73837 0.14215 0.68749 0.0
C1020 C 0.68742 0.12316 0.69705 0.0
C1021 C 0.72935 0.13192 0.71153 0.0
C1022 C 0.65178 0.10105 0.72632 0.0
C1023 C 0.61905 0.10619 0.68945 0.0
N1024 N 0.70446 0.12278 0.71563 0.0
N1025 N 0.64385 0.11507 0.68508 0.0
H1026 H 0.94441 0.57052 0.72747 0.0
H1027 H 0.82023 0.58016 0.68509 0.0
H1028 H 0.86992 0.4996 0.70521 0.0
H1029 H 0.8975 0.64809 0.68763 0.0
H1030 H 0.83761 0.55036 0.69375 0.0
H1031 H 0.92721 0.59946 0.71443 0.0
C1032 C 0.92445 0.56107 0.71969 0.0
C1033 C 0.90859 0.5327 0.71736 0.0
C1034 C 0.85073 0.57176 0.69223 0.0
C1035 C 0.88865 0.5656 0.70265 0.0
C1036 C 0.84084 0.58882 0.68735 0.0
C1037 C 0.85741 0.61674 0.68573 0.0
C1038 C 0.8774 0.58273 0.69584 0.0
C1039 C 0.88395 0.62673 0.68872 0.0
C1040 C 0.91464 0.57757 0.71221 0.0
C1041 C 0.88284 0.52142 0.70724 0.0
N1042 N 0.8931 0.60979 0.69383 0.0
N1043 N 0.87362 0.53793 0.70042 0.0
H1044 H 0.49945 0.97698 0.21673 0.0
H1045 H 0.45813 0.00978 0.07703 0.0
H1046 H 0.42103 0.94375 0.18352 0.0
H1047 H 0.53602 0.03396 0.10418 0.0
H1048 H 0.44482 0.99264 0.11996 0.0
H1049 H 0.51384 0.00465 0.17937 0.0
C1050 C 0.48526 0.9756 0.20167 0.0
C1051 C 0.459 0.95785 0.20314 0.0
C1052 C 0.46488 0.00191 0.11669 0.0
C1053 C 0.4753 0.98959 0.16057 0.0
C1054 C 0.47236 0.01145 0.09217 0.0
C1055 C 0.49794 0.02241 0.08709 0.0
C1056 C 0.48323 0.00342 0.13613 0.0
C1057 C 0.51604 0.02538 0.1075 0.0
C1058 C 0.49348 0.99151 0.18045 0.0
C1059 C 0.44145 0.95729 0.18335 0.0
N1060 N 0.50828 0.01555 0.13112 0.0
N1061 N 0.44993 0.97275 0.1628 0.0
H1062 H 0.03129 0.47321 0.21934 0.0
H1063 H 0.05205 0.50912 0.06923 0.0
H1064 H 0.09885 0.54263 0.19667 0.0
H1065 H 0.97675 0.46408 0.09591 0.0
H1066 H 0.07108 0.51403 0.11461 0.0
H1067 H 0.01253 0.46245 0.17276 0.0
C1068 C 0.0422 0.486 0.20449 0.0
C1069 C 0.06651 0.50894 0.21176 0.0
C1070 C 0.05039 0.50294 0.1105 0.0
C1071 C 0.04546 0.49667 0.15877 0.0
C1072 C 0.03953 0.50005 0.08462 0.0
C1073 C 0.0128 0.48644 0.07896 0.0
C1074 C 0.03443 0.49185 0.13079 0.0
C1075 C 0.99746 0.47493 0.09958 0.0
C1076 C 0.03149 0.47994 0.17804 0.0
C1077 C 0.07992 0.52494 0.19187 0.0
N1078 N 0.0085 0.47795 0.12467 0.0
N1079 N 0.06924 0.51848 0.16628 0.0
H1080 H 0.44761 0.51776 0.18511 0.0
H1081 H 0.55966 0.56322 0.09413 0.0
H1082 H 0.52615 0.55069 0.21799 0.0
H1083 H 0.48626 0.49186 0.06869 0.0
H1084 H 0.5466 0.56266 0.13893 0.0
H1085 H 0.45979 0.51071 0.14139 0.0
C1086 C 0.4673 0.52313 0.18334 0.0
C1087 C 0.48594 0.53524 0.20537 0.0
C1088 C 0.53336 0.5471 0.12354 0.0
C1089 C 0.49998 0.52789 0.15523 0.0
C1090 C 0.54075 0.54746 0.09798 0.0
C1091 C 0.52378 0.5279 0.07759 0.0
C1092 C 0.50866 0.52732 0.12866 0.0
C1093 C 0.49959 0.50778 0.08371 0.0
C1094 C 0.47421 0.5192 0.15832 0.0
C1095 C 0.51122 0.54206 0.20157 0.0
N1096 N 0.49254 0.50821 0.10868 0.0
N1097 N 0.51756 0.53869 0.17694 0.0
H1098 H 0.90761 0.42813 0.81496 0.0
H1099 H 0.03293 0.51072 0.91609 0.0
H1100 H 0.97276 0.50234 0.79611 0.0
H1101 H 0.95832 0.45773 0.94113 0.0
H1102 H 0.01254 0.50676 0.87136 0.0
H1103 H 0.92698 0.43716 0.86085 0.0
C1104 C 0.92599 0.4464 0.82061 0.0
C1105 C 0.93872 0.46449 0.80185 0.0
C1106 C 0.00066 0.49625 0.88675 0.0
C1107 C 0.96111 0.47483 0.85413 0.0
C1108 C 0.01227 0.49842 0.91218 0.0
C1109 C 0.99725 0.4845 0.9322 0.0
C1110 C 0.97394 0.47964 0.88133 0.0
C1111 C 0.97058 0.46886 0.92623 0.0
C1112 C 0.93698 0.45161 0.84677 0.0
C1113 C 0.96239 0.48797 0.81011 0.0
N1114 N 0.95979 0.46663 0.90126 0.0
N1115 N 0.97303 0.49234 0.83564 0.0
H1116 H 0.50424 0.47012 0.79321 0.0
H1117 H 0.54645 0.5459 0.9397 0.0
H1118 H 0.58237 0.50702 0.829 0.0
H1119 H 0.47116 0.47711 0.9156 0.0
H1120 H 0.56004 0.53934 0.89646 0.0
H1121 H 0.49177 0.48012 0.83541 0.0
C1122 C 0.51881 0.48024 0.80989 0.0
C1123 C 0.5444 0.48737 0.80747 0.0
C1124 C 0.54057 0.52572 0.90074 0.0
C1125 C 0.53022 0.49959 0.85571 0.0
C1126 C 0.53291 0.52933 0.92542 0.0
C1127 C 0.50791 0.51163 0.93142 0.0
C1128 C 0.52283 0.50468 0.8818 0.0
C1129 C 0.4907 0.49109 0.91183 0.0
C1130 C 0.51165 0.48608 0.83393 0.0
C1131 C 0.56248 0.5013 0.82971 0.0
N1132 N 0.49847 0.4882 0.88787 0.0
N1133 N 0.55504 0.50695 0.85291 0.0
H1134 H 0.55584 0.06633 0.83132 0.0
H1135 H 0.46092 0.95747 0.9229 0.0
H1136 H 0.47909 0.00361 0.80138 0.0
H1137 H 0.51921 0.03942 0.95254 0.0
H1138 H 0.47228 0.96833 0.87756 0.0
H1139 H 0.54767 0.05041 0.87551 0.0
C1140 C 0.53739 0.04895 0.83401 0.0
C1141 C 0.51804 0.0363 0.8128 0.0
C1142 C 0.48273 0.98374 0.89412 0.0
C1143 C 0.50862 0.01805 0.86312 0.0
C1144 C 0.47635 0.97756 0.91991 0.0
C1145 C 0.48928 0.99756 0.94143 0.0
C1146 C 0.5024 0.00991 0.89008 0.0
C1147 C 0.509 0.02332 0.93654 0.0
C1148 C 0.53271 0.04 0.8592 0.0
C1149 C 0.49439 0.01403 0.81736 0.0
N1150 N 0.51499 0.02875 0.91139 0.0
N1151 N 0.4903 0.00557 0.84209 0.0
H1152 H 0.08734 0.26319 0.52271 0.0
H1153 H 0.18689 0.38132 0.44232 0.0
H1154 H 0.1631 0.32318 0.55823 0.0
H1155 H 0.1306 0.3013 0.40563 0.0
H1156 H 0.17356 0.36591 0.48605 0.0
H1157 H 0.09797 0.28316 0.4805 0.0
C1158 C 0.10608 0.28084 0.52169 0.0
C1159 C 0.12442 0.29156 0.54389 0.0
C1160 C 0.16401 0.35191 0.46832 0.0
C1161 C 0.13666 0.3144 0.49579 0.0
C1162 C 0.17151 0.36067 0.44345 0.0
C1163 C 0.15968 0.34256 0.42039 0.0
C1164 C 0.14429 0.32507 0.46993 0.0
C1165 C 0.13998 0.31599 0.42288 0.0
C1166 C 0.11217 0.29208 0.49761 0.0
C1167 C 0.14853 0.31425 0.54145 0.0
N1168 N 0.13284 0.30806 0.4472 0.0
N1169 N 0.15399 0.32498 0.51777 0.0
H1170 H 0.73759 0.81638 0.52976 0.0
H1171 H 0.6659 0.86529 0.43079 0.0
H1172 H 0.7067 0.86663 0.55611 0.0
H1173 H 0.67013 0.79308 0.41099 0.0
H1174 H 0.68271 0.86738 0.47647 0.0
H1175 H 0.71429 0.80796 0.48592 0.0
C1176 C 0.72558 0.82527 0.52653 0.0
C1177 C 0.7244 0.84254 0.54666 0.0
C1178 C 0.67993 0.85102 0.46216 0.0
C1179 C 0.69824 0.8335 0.49629 0.0
C1180 C 0.67041 0.84988 0.43608 0.0
C1181 C 0.66714 0.82929 0.41702 0.0
C1182 C 0.68646 0.83158 0.46917 0.0
C1183 C 0.67312 0.80973 0.42494 0.0
C1184 C 0.71242 0.82058 0.50142 0.0
C1185 C 0.70875 0.85374 0.54108 0.0
N1186 N 0.68275 0.81149 0.4504 0.0
N1187 N 0.69657 0.84931 0.51636 0.0
H1188 H 0.13698 0.83295 0.54361 0.0
H1189 H 0.21523 0.90375 0.4227 0.0
H1190 H 0.17685 0.91983 0.53867 0.0
H1191 H 0.15641 0.81896 0.41484 0.0
H1192 H 0.20339 0.90913 0.46688 0.0
H1193 H 0.14526 0.82637 0.49775 0.0
C1194 C 0.14732 0.85062 0.5329 0.0
C1195 C 0.1565 0.87702 0.54521 0.0
C1196 C 0.19293 0.88935 0.4555 0.0
C1197 C 0.16629 0.86961 0.49297 0.0
C1198 C 0.19976 0.88625 0.43034 0.0
C1199 C 0.18672 0.86089 0.41522 0.0
C1200 C 0.17314 0.86681 0.46583 0.0
C1201 C 0.16676 0.83889 0.42592 0.0
C1202 C 0.15209 0.84683 0.50676 0.0
C1203 C 0.16997 0.89914 0.53036 0.0
N1204 N 0.16065 0.84229 0.45075 0.0
N1205 N 0.17459 0.89493 0.50516 0.0
H1206 H 0.5915 0.82363 0.15622 0.0
H1207 H 0.66185 0.7763 0.25687 0.0
H1208 H 0.63449 0.78633 0.12963 0.0
H1209 H 0.65889 0.84927 0.27686 0.0
H1210 H 0.64687 0.77564 0.21078 0.0
H1211 H 0.61157 0.83013 0.20144 0.0
C1212 C 0.60537 0.81713 0.15969 0.0
C1213 C 0.61104 0.80411 0.13894 0.0
C1214 C 0.64949 0.79178 0.22528 0.0
C1215 C 0.6334 0.81082 0.19082 0.0
C1216 C 0.65794 0.79213 0.25156 0.0
C1217 C 0.66102 0.81252 0.27076 0.0
C1218 C 0.64372 0.81175 0.21825 0.0
C1219 C 0.65591 0.83268 0.26279 0.0
C1220 C 0.61669 0.82074 0.18557 0.0
C1221 C 0.62891 0.79576 0.14497 0.0
N1222 N 0.64717 0.83162 0.23713 0.0
N1223 N 0.63917 0.79892 0.17038 0.0
H1224 H 0.19338 0.76697 0.15862 0.0
H1225 H 0.19812 0.87239 0.27286 0.0
H1226 H 0.22729 0.8529 0.15011 0.0
H1227 H 0.14294 0.7864 0.26544 0.0
H1228 H 0.21403 0.86604 0.23108 0.0
H1229 H 0.1797 0.77418 0.20115 0.0
C1230 C 0.19787 0.78735 0.16557 0.0
C1231 C 0.21127 0.8093 0.15047 0.0
C1232 C 0.19841 0.8486 0.23859 0.0
C1233 C 0.19606 0.81773 0.1996 0.0
C1234 C 0.18944 0.85219 0.26242 0.0
C1235 C 0.16924 0.82986 0.27245 0.0
C1236 C 0.18724 0.82244 0.22498 0.0
C1237 C 0.15844 0.80414 0.25819 0.0
C1238 C 0.19014 0.79145 0.18995 0.0
C1239 C 0.21718 0.83538 0.16106 0.0
N1240 N 0.16766 0.8011 0.23522 0.0
N1241 N 0.20951 0.83887 0.18496 0.0
H1242 H 0.1864 0.4147 0.16368 0.0
H1243 H 0.14504 0.2942 0.25521 0.0
H1244 H 0.19322 0.34481 0.14013 0.0
H1245 H 0.17435 0.3776 0.2865 0.0
H1246 H 0.15824 0.30989 0.21149 0.0
H1247 H 0.17712 0.39899 0.20779 0.0
C1248 C 0.18592 0.39601 0.16792 0.0
C1249 C 0.19048 0.38093 0.14845 0.0
C1250 C 0.16194 0.32468 0.22806 0.0
C1251 C 0.17972 0.36274 0.19855 0.0
C1252 C 0.15437 0.31577 0.25287 0.0
C1253 C 0.15861 0.33466 0.27433 0.0
C1254 C 0.17329 0.35256 0.2248 0.0
C1255 C 0.17078 0.36238 0.27044 0.0
C1256 C 0.18077 0.38714 0.19303 0.0
C1257 C 0.18983 0.35695 0.1548 0.0
N1258 N 0.17746 0.37047 0.24607 0.0
N1259 N 0.18426 0.34837 0.17933 0.0
H1260 H 0.79509 0.58651 0.85444 0.0
H1261 H 0.8455 0.71466 0.77217 0.0
H1262 H 0.79933 0.66045 0.88698 0.0
H1263 H 0.80807 0.63181 0.73587 0.0
H1264 H 0.83207 0.69726 0.8153 0.0
H1265 H 0.80388 0.60476 0.81142 0.0
C1266 C 0.79793 0.60665 0.85243 0.0
C1267 C 0.79665 0.62212 0.87414 0.0
C1268 C 0.82662 0.68301 0.79776 0.0
C1269 C 0.80677 0.64319 0.82513 0.0
C1270 C 0.83428 0.69289 0.77326 0.0
C1271 C 0.82802 0.67461 0.75057 0.0
C1272 C 0.81302 0.65475 0.79941 0.0
C1273 C 0.81342 0.64661 0.7529 0.0
C1274 C 0.80277 0.61699 0.8279 0.0
C1275 C 0.80019 0.64799 0.87056 0.0
N1276 N 0.80667 0.63755 0.77693 0.0
N1277 N 0.80539 0.65792 0.84648 0.0
H1278 H 0.36492 0.14885 0.89273 0.0
H1279 H 0.38301 0.17886 0.74096 0.0
H1280 H 0.43319 0.21481 0.86692 0.0
H1281 H 0.30838 0.13929 0.76991 0.0
H1282 H 0.40267 0.18392 0.78602 0.0
H1283 H 0.34479 0.13731 0.84657 0.0
C1284 C 0.37567 0.1607 0.87727 0.0
C1285 C 0.40059 0.18292 0.88348 0.0
C1286 C 0.38198 0.174 0.78249 0.0
C1287 C 0.37805 0.16975 0.83109 0.0
C1288 C 0.37075 0.17103 0.7568 0.0
C1289 C 0.34408 0.15893 0.75187 0.0
C1290 C 0.36641 0.16455 0.80334 0.0
C1291 C 0.32906 0.14897 0.77304 0.0
C1292 C 0.36421 0.15421 0.85109 0.0
C1293 C 0.41381 0.19773 0.8629 0.0
N1294 N 0.34045 0.15206 0.79797 0.0
N1295 N 0.4024 0.19085 0.83761 0.0
H1296 H 0.82054 0.23877 0.86645 0.0
H1297 H 0.85424 0.1533 0.76551 0.0
H1298 H 0.8129 0.16225 0.8849 0.0
H1299 H 0.82441 0.20371 0.73909 0.0
H1300 H 0.84259 0.15814 0.81029 0.0
H1301 H 0.82582 0.22873 0.82032 0.0
C1302 C 0.81995 0.21983 0.86067 0.0
C1303 C 0.8164 0.20131 0.87932 0.0
C1304 C 0.83837 0.16787 0.79459 0.0
C1305 C 0.82263 0.18983 0.82693 0.0
C1306 C 0.84505 0.16519 0.76913 0.0
C1307 C 0.84039 0.17827 0.74875 0.0
C1308 C 0.82748 0.18422 0.79968 0.0
C1309 C 0.82838 0.19336 0.75433 0.0
C1310 C 0.8228 0.21404 0.83441 0.0
C1311 C 0.81558 0.17696 0.87096 0.0
N1312 N 0.82265 0.19625 0.7794 0.0
N1313 N 0.819 0.17203 0.84537 0.0
H1314 H 0.30126 0.12663 0.46248 0.0
H1315 H 0.29009 0.13705 0.61643 0.0
H1316 H 0.2427 0.13906 0.4937 0.0
H1317 H 0.36343 0.16568 0.5859 0.0
H1318 H 0.27087 0.13383 0.57154 0.0
H1319 H 0.32327 0.13709 0.50752 0.0
C1320 C 0.29321 0.13179 0.47885 0.0
C1321 C 0.27022 0.13204 0.47454 0.0
C1322 C 0.29122 0.14112 0.57474 0.0
C1323 C 0.29488 0.14347 0.52586 0.0
C1324 C 0.30222 0.14307 0.60035 0.0
C1325 C 0.32844 0.15203 0.60489 0.0
C1326 C 0.30643 0.14745 0.55346 0.0
C1327 C 0.34314 0.15879 0.58321 0.0
C1328 C 0.30576 0.13782 0.50444 0.0
C1329 C 0.26049 0.13884 0.49629 0.0
N1330 N 0.33187 0.15609 0.55833 0.0
N1331 N 0.2727 0.14395 0.52113 0.0
H1332 H 0.91052 0.15577 0.49709 0.0
H1333 H 0.81981 0.18806 0.58129 0.0
H1334 H 0.83957 0.14667 0.46215 0.0
H1335 H 0.86754 0.15893 0.61554 0.0
H1336 H 0.83233 0.18205 0.5373 0.0
H1337 H 0.90053 0.16628 0.5409 0.0
C1338 C 0.89293 0.15619 0.49868 0.0
C1339 C 0.87576 0.15027 0.47613 0.0
C1340 C 0.8402 0.17724 0.55454 0.0
C1341 C 0.86437 0.16243 0.52587 0.0
C1342 C 0.83315 0.18074 0.57959 0.0
C1343 C 0.84285 0.1742 0.60205 0.0
C1344 C 0.8573 0.16751 0.55212 0.0
C1345 C 0.85997 0.16465 0.59879 0.0
C1346 C 0.88721 0.16205 0.52361 0.0
C1347 C 0.85316 0.15091 0.47918 0.0
N1348 N 0.86673 0.16166 0.57428 0.0
N1349 N 0.84813 0.15699 0.50363 0.0
H1350 H 0.86244 0.75444 0.49875 0.0
H1351 H 0.81632 0.62917 0.58511 0.0
H1352 H 0.85661 0.67907 0.46833 0.0
H1353 H 0.84866 0.71231 0.61898 0.0
H1354 H 0.82947 0.64581 0.54174 0.0
H1355 H 0.85582 0.73838 0.54287 0.0
C1356 C 0.85988 0.73452 0.50151 0.0
C1357 C 0.85993 0.71795 0.48005 0.0
C1358 C 0.83392 0.66036 0.55879 0.0
C1359 C 0.85213 0.6993 0.53025 0.0
C1360 C 0.82638 0.65089 0.58343 0.0
C1361 C 0.83137 0.66942 0.60551 0.0
C1362 C 0.84614 0.68846 0.55634 0.0
C1363 C 0.84447 0.69734 0.60243 0.0
C1364 C 0.85621 0.7254 0.52664 0.0
C1365 C 0.85672 0.6924 0.48453 0.0
N1366 N 0.85118 0.70599 0.57826 0.0
N1367 N 0.85262 0.68365 0.50916 0.0
loop_
_geom_bond_atom_site_label_1
_geom_bond_atom_site_label_2
_geom_bond_distance
_geom_bond_site_symmetry_2
_ccdc_geom_bond_type
H0 C5 0.930 . S
H1 C8 0.930 . S
H2 C10 0.930 . S
H3 C4 1.016 . S
C4 H3 1.016 . S
C4 N11 1.286 . S
C5 H0 0.930 . S
C5 C6 1.397 . S
C5 C7 1.361 . S
C6 C5 1.397 . S
C6 C10 1.390 . S
C7 C5 1.361 . S
C7 C8 1.393 . S
C7 N11 1.413 . S
C8 H1 0.930 . S
C8 C7 1.393 . S
C8 C9 1.399 . S
C9 C8 1.399 . S
C9 C10 1.381 . S
C10 H2 0.930 . S
C10 C6 1.390 . S
C10 C9 1.381 . S
N11 C4 1.286 . S
N11 C7 1.413 . S
H12 C17 0.930 . S
H13 C20 0.930 . S
H14 C22 0.930 . S
H15 C16 1.016 . S
C16 H15 1.016 . S
C16 N23 1.286 . S
C17 H12 0.930 . S
C17 C18 1.397 . S
C17 C19 1.361 . S
C18 C17 1.397 . S
C18 C22 1.390 . S
C19 C17 1.361 . S
C19 C20 1.393 . S
C19 N23 1.413 . S
C20 H13 0.930 . S
C20 C19 1.393 . S
C20 C21 1.399 . S
C21 C20 1.399 . S
C21 C22 1.381 . S
C22 H14 0.930 . S
C22 C18 1.390 . S
C22 C21 1.381 . S
N23 C16 1.286 . S
N23 C19 1.413 . S
H24 C29 0.930 . S
H25 C32 0.930 . S
H26 C34 0.930 . S
H27 C28 1.016 . S
C28 H27 1.016 . S
C28 N35 1.286 . S
C29 H24 0.930 . S
C29 C30 1.397 . S
C29 C31 1.361 . S
C30 C29 1.397 . S
C30 C34 1.390 . S
C31 C29 1.361 . S
C31 C32 1.393 . S
C31 N35 1.413 . S
C32 H25 0.930 . S
C32 C31 1.393 . S
C32 C33 1.399 . S
C33 C32 1.399 . S
C33 C34 1.381 . S
C34 H26 0.930 . S
C34 C30 1.390 . S
C34 C33 1.381 . S
N35 C28 1.286 . S
N35 C31 1.413 . S
H36 C41 0.930 . S
H37 C44 0.930 . S
H38 C46 0.930 . S
H39 C40 1.016 . S
C40 H39 1.016 . S
C40 N47 1.286 . S
C41 H36 0.930 . S
C41 C42 1.397 . S
C41 C43 1.361 . S
C42 C41 1.397 . S
C42 C46 1.390 . S
C43 C41 1.361 . S
C43 C44 1.393 . S
C43 N47 1.413 . S
C44 H37 0.930 . S
C44 C43 1.393 . S
C44 C45 1.399 . S
C45 C44 1.399 . S
C45 C46 1.381 . S
C46 H38 0.930 . S
C46 C42 1.390 . S
C46 C45 1.381 . S
N47 C40 1.286 . S
N47 C43 1.413 . S
H48 C53 0.930 . S
H49 C56 0.930 . S
H50 C58 0.930 . S
H51 C52 1.016 . S
C52 H51 1.016 . S
C52 N59 1.286 . S
C53 H48 0.930 . S
C53 C54 1.397 . S
C53 C55 1.361 . S
C54 C53 1.397 . S
C54 C58 1.390 . S
C55 C53 1.361 . S
C55 C56 1.393 . S
C55 N59 1.413 . S
C56 H49 0.930 . S
C56 C55 1.393 . S
C56 C57 1.399 . S
C57 C56 1.399 . S
C57 C58 1.381 . S
C58 H50 0.930 . S
C58 C54 1.390 . S
C58 C57 1.381 . S
N59 C52 1.286 . S
N59 C55 1.413 . S
H60 C65 0.930 . S
H61 C68 0.930 . S
H62 C70 0.930 . S
H63 C64 1.016 . S
C64 H63 1.016 . S
C64 N71 1.286 . S
C65 H60 0.930 . S
C65 C66 1.397 . S
C65 C67 1.361 . S
C66 C65 1.397 . S
C66 C70 1.390 . S
C67 C65 1.361 . S
C67 C68 1.393 . S
C67 N71 1.413 . S
C68 H61 0.930 . S
C68 C67 1.393 . S
C68 C69 1.399 . S
C69 C68 1.399 . S
C69 C70 1.381 . S
C70 H62 0.930 . S
C70 C66 1.390 . S
C70 C69 1.381 . S
N71 C64 1.286 . S
N71 C67 1.413 . S
H72 C77 0.930 . S
H73 C80 0.930 . S
H74 C82 0.930 . S
H75 C76 1.016 . S
C76 H75 1.016 . S
C76 N83 1.286 . S
C77 H72 0.930 . S
C77 C78 1.397 . S
C77 C79 1.361 . S
C78 C77 1.397 . S
C78 C82 1.390 . S
C79 C77 1.361 . S
C79 C80 1.393 . S
C79 N83 1.413 . S
C80 H73 0.930 . S
C80 C79 1.393 . S
C80 C81 1.399 . S
C81 C80 1.399 . S
C81 C82 1.381 . S
C82 H74 0.930 . S
C82 C78 1.390 . S
C82 C81 1.381 . S
N83 C76 1.286 . S
N83 C79 1.413 . S
H84 C89 0.930 . S
H85 C92 0.930 . S
H86 C94 0.930 . S
H87 C88 1.016 . S
C88 H87 1.016 . S
C88 N95 1.286 . S
C89 H84 0.930 . S
C89 C90 1.397 . S
C89 C91 1.361 . S
C90 C89 1.397 . S
C90 C94 1.390 . S
C91 C89 1.361 . S
C91 C92 1.393 . S
C91 N95 1.413 . S
C92 H85 0.930 . S
C92 C91 1.393 . S
C92 C93 1.399 . S
C93 C92 1.399 . S
C93 C94 1.381 . S
C94 H86 0.930 . S
C94 C90 1.390 . S
C94 C93 1.381 . S
N95 C88 1.286 . S
N95 C91 1.413 . S
H96 C101 0.930 . S
H97 C104 0.930 . S
H98 C106 0.930 . S
H99 C100 1.016 . S
C100 H99 1.016 . S
C100 N107 1.286 . S
C101 H96 0.930 . S
C101 C102 1.397 . S
C101 C103 1.361 . S
C102 C101 1.397 . S
C102 C106 1.390 . S
C103 C101 1.361 . S
C103 C104 1.393 . S
C103 N107 1.413 . S
C104 H97 0.930 . S
C104 C103 1.393 . S
C104 C105 1.399 . S
C105 C104 1.399 . S
C105 C106 1.381 . S
C106 H98 0.930 . S
C106 C102 1.390 . S
C106 C105 1.381 . S
N107 C100 1.286 . S
N107 C103 1.413 . S
H108 C113 0.930 . S
H109 C116 0.930 . S
H110 C118 0.930 . S
H111 C112 1.016 . S
C112 H111 1.016 . S
C112 N119 1.286 . S
C113 H108 0.930 . S
C113 C114 1.397 . S
C113 C115 1.361 . S
C114 C113 1.397 . S
C114 C118 1.390 . S
C115 C113 1.361 . S
C115 C116 1.393 . S
C115 N119 1.413 . S
C116 H109 0.930 . S
C116 C115 1.393 . S
C116 C117 1.399 . S
C117 C116 1.399 . S
C117 C118 1.381 . S
C118 H110 0.930 . S
C118 C114 1.390 . S
C118 C117 1.381 . S
N119 C112 1.286 . S
N119 C115 1.413 . S
H120 C125 0.930 . S
H121 C128 0.930 . S
H122 C130 0.930 . S
H123 C124 1.016 . S
C124 H123 1.016 . S
C124 N131 1.286 . S
C125 H120 0.930 . S
C125 C126 1.397 . S
C125 C127 1.361 . S
C126 C125 1.397 . S
C126 C130 1.390 . S
C127 C125 1.361 . S
C127 C128 1.393 . S
C127 N131 1.413 . S
C128 H121 0.930 . S
C128 C127 1.393 . S
C128 C129 1.399 . S
C129 C128 1.399 . S
C129 C130 1.381 . S
C130 H122 0.930 . S
C130 C126 1.390 . S
C130 C129 1.381 . S
N131 C124 1.286 . S
N131 C127 1.413 . S
H132 C137 0.930 . S
H133 C140 0.930 . S
H134 C142 0.930 . S
H135 C136 1.016 . S
C136 H135 1.016 . S
C136 N143 1.286 . S
C137 H132 0.930 . S
C137 C138 1.397 . S
C137 C139 1.361 . S
C138 C137 1.397 . S
C138 C142 1.390 . S
C139 C137 1.361 . S
C139 C140 1.393 . S
C139 N143 1.413 . S
C140 H133 0.930 . S
C140 C139 1.393 . S
C140 C141 1.399 . S
C141 C140 1.399 . S
C141 C142 1.381 . S
C142 H134 0.930 . S
C142 C138 1.390 . S
C142 C141 1.381 . S
N143 C136 1.286 . S
N143 C139 1.413 . S
H144 C149 0.930 . S
H145 C152 0.930 . S
H146 C154 0.930 . S
H147 C148 1.016 . S
C148 H147 1.016 . S
C148 N155 1.286 . S
C149 H144 0.930 . S
C149 C150 1.397 . S
C149 C151 1.361 . S
C150 C149 1.397 . S
C150 C154 1.390 . S
C151 C149 1.361 . S
C151 C152 1.393 . S
C151 N155 1.413 . S
C152 H145 0.930 . S
C152 C151 1.393 . S
C152 C153 1.399 . S
C153 C152 1.399 . S
C153 C154 1.381 . S
C154 H146 0.930 . S
C154 C150 1.390 . S
C154 C153 1.381 . S
N155 C148 1.286 . S
N155 C151 1.413 . S
H156 C161 0.930 . S
H157 C164 0.930 . S
H158 C166 0.930 . S
H159 C160 1.016 . S
C160 H159 1.016 . S
C160 N167 1.286 . S
C161 H156 0.930 . S
C161 C162 1.397 . S
C161 C163 1.361 . S
C162 C161 1.397 . S
C162 C166 1.390 . S
C163 C161 1.361 . S
C163 C164 1.393 . S
C163 N167 1.413 . S
C164 H157 0.930 . S
C164 C163 1.393 . S
C164 C165 1.399 . S
C165 C164 1.399 . S
C165 C166 1.381 . S
C166 H158 0.930 . S
C166 C162 1.390 . S
C166 C165 1.381 . S
N167 C160 1.286 . S
N167 C163 1.413 . S
H168 C173 0.930 . S
H169 C176 0.930 . S
H170 C178 0.930 . S
H171 C172 1.016 . S
C172 H171 1.016 . S
C172 N179 1.286 . S
C173 H168 0.930 . S
C173 C174 1.397 . S
C173 C175 1.361 . S
C174 C173 1.397 . S
C174 C178 1.390 . S
C175 C173 1.361 . S
C175 C176 1.393 . S
C175 N179 1.413 . S
C176 H169 0.930 . S
C176 C175 1.393 . S
C176 C177 1.399 . S
C177 C176 1.399 . S
C177 C178 1.381 . S
C178 H170 0.930 . S
C178 C174 1.390 . S
C178 C177 1.381 . S
N179 C172 1.286 . S
N179 C175 1.413 . S
H180 C185 0.930 . S
H181 C188 0.930 . S
H182 C190 0.930 . S
H183 C184 1.016 . S
C184 H183 1.016 . S
C184 N191 1.286 . S
C185 H180 0.930 . S
C185 C186 1.397 . S
C185 C187 1.361 . S
C186 C185 1.397 . S
C186 C190 1.390 . S
C187 C185 1.361 . S
C187 C188 1.393 . S
C187 N191 1.413 . S
C188 H181 0.930 . S
C188 C187 1.393 . S
C188 C189 1.399 . S
C189 C188 1.399 . S
C189 C190 1.381 . S
C190 H182 0.930 . S
C190 C186 1.390 . S
C190 C189 1.381 . S
N191 C184 1.286 . S
N191 C187 1.413 . S
H192 C197 0.930 . S
H193 C200 0.930 . S
H194 C202 0.930 . S
H195 C196 1.016 . S
C196 H195 1.016 . S
C196 N203 1.286 . S
C197 H192 0.930 . S
C197 C198 1.397 . S
C197 C199 1.361 . S
C198 C197 1.397 . S
C198 C202 1.390 . S
C199 C197 1.361 . S
C199 C200 1.393 . S
C199 N203 1.413 . S
C200 H193 0.930 . S
C200 C199 1.393 . S
C200 C201 1.399 . S
C201 C200 1.399 . S
C201 C202 1.381 . S
C202 H194 0.930 . S
C202 C198 1.390 . S
C202 C201 1.381 . S
N203 C196 1.286 . S
N203 C199 1.413 . S
H204 C209 0.930 . S
H205 C212 0.930 . S
H206 C214 0.930 . S
H207 C208 1.016 . S
C208 H207 1.016 . S
C208 N215 1.286 . S
C209 H204 0.930 . S
C209 C210 1.397 . S
C209 C211 1.361 . S
C210 C209 1.397 . S
C210 C214 1.390 . S
C211 C209 1.361 . S
C211 C212 1.393 . S
C211 N215 1.413 . S
C212 H205 0.930 . S
C212 C211 1.393 . S
C212 C213 1.399 . S
C213 C212 1.399 . S
C213 C214 1.381 . S
C214 H206 0.930 . S
C214 C210 1.390 . S
C214 C213 1.381 . S
N215 C208 1.286 . S
N215 C211 1.413 . S
Tb216 O219 2.453 . S
Tb216 O220 2.596 1_545 S
Tb216 O221 2.374 1_545 S
Tb216 O229 2.343 1_554 S
Tb216 O231 2.353 . S
Tb216 O233 2.427 . S
Tb216 O234 2.513 1_554 S
C217 O221 1.251 . S
C217 O223 1.263 1_554 S
Tb218 O220 2.343 1_556 S
Tb218 O223 2.353 . S
Tb218 O226 2.427 1_556 S
Tb218 O227 2.513 1_556 S
Tb218 O228 2.453 . S
Tb218 O229 2.596 1_565 S
Tb218 O230 2.374 1_565 S
O219 Tb216 2.453 . S
O219 C235 1.245 1_545 S
O220 Tb216 2.596 1_565 S
O220 Tb218 2.343 1_554 S
O220 C235 1.259 . S
O221 Tb216 2.374 1_565 S
O221 C217 1.251 . S
C222 O226 1.275 . S
C222 O227 1.246 . S
O223 C217 1.263 1_556 S
O223 Tb218 2.353 . S
C224 O228 1.245 1_545 S
C224 O229 1.259 . S
C225 O230 1.250 1_554 S
C225 O231 1.263 . S
O226 Tb218 2.427 1_554 S
O226 C222 1.275 . S
O227 Tb218 2.513 1_554 S
O227 C222 1.246 . S
O228 Tb218 2.453 . S
O228 C224 1.245 1_565 S
O229 Tb216 2.343 1_556 S
O229 Tb218 2.596 1_545 S
O229 C224 1.259 . S
O230 Tb218 2.374 1_545 S
O230 C225 1.250 1_556 S
O231 Tb216 2.353 . S
O231 C225 1.263 . S
C232 O233 1.275 1_556 S
C232 O234 1.246 . S
O233 Tb216 2.427 . S
O233 C232 1.275 1_554 S
O234 Tb216 2.513 1_556 S
O234 C232 1.246 . S
C235 O219 1.245 1_565 S
C235 O220 1.259 . S
Tb236 O239 2.453 . S
Tb236 O240 2.596 1_655 S
Tb236 O241 2.374 1_655 S
Tb236 O249 2.343 1_554 S
Tb236 O251 2.353 . S
Tb236 O253 2.427 1_554 S
Tb236 O254 2.513 1_554 S
C237 O241 1.251 . S
C237 O243 1.263 . S
Tb238 O240 2.343 1_556 S
Tb238 O243 2.353 1_556 S
Tb238 O246 2.427 1_556 S
Tb238 O247 2.513 1_556 S
Tb238 O248 2.453 . S
Tb238 O249 2.596 1_455 S
Tb238 O250 2.374 1_455 S
O239 Tb236 2.453 . S
O239 C255 1.245 1_655 S
O240 Tb236 2.596 1_455 S
O240 Tb238 2.343 1_554 S
O240 C255 1.259 . S
O241 Tb236 2.374 1_455 S
O241 C237 1.251 . S
C242 O246 1.275 . S
C242 O247 1.246 . S
O243 C237 1.263 . S
O243 Tb238 2.353 1_554 S
C244 O248 1.245 1_655 S
C244 O249 1.259 . S
C245 O250 1.251 1_554 S
C245 O251 1.262 . S
O246 Tb238 2.427 1_554 S
O246 C242 1.275 . S
O247 Tb238 2.513 1_554 S
O247 C242 1.246 . S
O248 Tb238 2.453 . S
O248 C244 1.245 1_455 S
O249 Tb236 2.343 1_556 S
O249 Tb238 2.596 1_655 S
O249 C244 1.259 . S
O250 Tb238 2.374 1_655 S
O250 C245 1.251 1_556 S
O251 Tb236 2.353 . S
O251 C245 1.262 . S
C252 O253 1.275 . S
C252 O254 1.246 . S
O253 Tb236 2.427 1_556 S
O253 C252 1.275 . S
O254 Tb236 2.513 1_556 S
O254 C252 1.246 . S
C255 O239 1.245 1_455 S
C255 O240 1.259 . S
Tb256 O259 2.453 . S
Tb256 O260 2.596 . S
Tb256 O261 2.374 1_556 S
Tb256 O269 2.343 1_556 S
Tb256 O271 2.353 1_556 S
Tb256 O273 2.427 1_556 S
Tb256 O274 2.513 1_556 S
C257 O261 1.251 . S
C257 O263 1.263 . S
Tb258 O260 2.343 1_554 S
Tb258 O263 2.353 . S
Tb258 O266 2.427 . S
Tb258 O267 2.513 1_554 S
Tb258 O268 2.453 . S
Tb258 O269 2.596 . S
Tb258 O270 2.374 . S
O259 Tb256 2.453 . S
O259 C275 1.245 . S
O260 Tb256 2.596 . S
O260 Tb258 2.343 1_556 S
O260 C275 1.259 . S
O261 Tb256 2.374 1_554 S
O261 C257 1.251 . S
C262 O266 1.275 1_556 S
C262 O267 1.246 . S
O263 C257 1.263 . S
O263 Tb258 2.353 . S
C264 O268 1.245 . S
C264 O269 1.259 . S
C265 O270 1.250 . S
C265 O271 1.263 . S
O266 Tb258 2.427 . S
O266 C262 1.275 1_554 S
O267 Tb258 2.513 1_556 S
O267 C262 1.246 . S
O268 Tb258 2.453 . S
O268 C264 1.245 . S
O269 Tb256 2.343 1_554 S
O269 Tb258 2.596 . S
O269 C264 1.259 . S
O270 Tb258 2.374 . S
O270 C265 1.250 . S
O271 Tb256 2.353 1_554 S
O271 C265 1.263 . S
C272 O273 1.275 . S
C272 O274 1.246 . S
O273 Tb256 2.427 1_554 S
O273 C272 1.275 . S
O274 Tb256 2.513 1_554 S
O274 C272 1.246 . S
C275 O259 1.245 . S
C275 O260 1.259 . S
Tb276 O279 2.453 . S
Tb276 O280 2.596 . S
Tb276 O281 2.374 . S
Tb276 O289 2.343 . S
Tb276 O291 2.353 . S
Tb276 O293 2.427 . S
Tb276 O294 2.513 . S
C277 O281 1.251 . S
C277 O283 1.263 . S
Tb278 O280 2.343 . S
Tb278 O283 2.353 . S
Tb278 O286 2.427 . S
Tb278 O287 2.513 . S
Tb278 O288 2.453 . S
Tb278 O289 2.596 . S
Tb278 O290 2.374 . S
O279 Tb276 2.453 . S
O279 C295 1.245 . S
O280 Tb276 2.596 . S
O280 Tb278 2.343 . S
O280 C295 1.259 . S
O281 Tb276 2.374 . S
O281 C277 1.251 . S
C282 O286 1.275 . S
C282 O287 1.246 . S
O283 C277 1.263 . S
O283 Tb278 2.353 . S
C284 O288 1.245 . S
C284 O289 1.259 . S
C285 O290 1.250 . S
C285 O291 1.263 . S
O286 Tb278 2.427 . S
O286 C282 1.275 . S
O287 Tb278 2.513 . S
O287 C282 1.246 . S
O288 Tb278 2.453 . S
O288 C284 1.245 . S
O289 Tb276 2.343 . S
O289 Tb278 2.596 . S
O289 C284 1.259 . S
O290 Tb278 2.374 . S
O290 C285 1.250 . S
O291 Tb276 2.353 . S
O291 C285 1.263 . S
C292 O293 1.275 . S
C292 O294 1.246 . S
O293 Tb276 2.427 . S
O293 C292 1.275 . S
O294 Tb276 2.513 . S
O294 C292 1.246 . S
C295 O279 1.245 . S
C295 O280 1.259 . S
Tb296 O299 2.453 . S
Tb296 O300 2.596 . S
Tb296 O301 2.374 . S
Tb296 O309 2.343 . S
Tb296 O311 2.353 . S
Tb296 O313 2.427 . S
Tb296 O314 2.513 . S
C297 O301 1.251 . S
C297 O303 1.263 . S
Tb298 O300 2.343 . S
Tb298 O303 2.353 . S
Tb298 O306 2.427 . S
Tb298 O307 2.513 . S
Tb298 O308 2.453 . S
Tb298 O309 2.596 . S
Tb298 O310 2.374 . S
O299 Tb296 2.453 . S
O299 C315 1.245 . S
O300 Tb296 2.596 . S
O300 Tb298 2.343 . S
O300 C315 1.259 . S
O301 Tb296 2.374 . S
O301 C297 1.251 . S
C302 O306 1.275 . S
C302 O307 1.246 . S
O303 C297 1.263 . S
O303 Tb298 2.353 . S
C304 O308 1.245 . S
C304 O309 1.259 . S
C305 O310 1.250 . S
C305 O311 1.263 . S
O306 Tb298 2.427 . S
O306 C302 1.275 . S
O307 Tb298 2.513 . S
O307 C302 1.246 . S
O308 Tb298 2.453 . S
O308 C304 1.245 . S
O309 Tb296 2.343 . S
O309 Tb298 2.596 . S
O309 C304 1.259 . S
O310 Tb298 2.374 . S
O310 C305 1.250 . S
O311 Tb296 2.353 . S
O311 C305 1.263 . S
C312 O313 1.275 . S
C312 O314 1.246 . S
O313 Tb296 2.427 . S
O313 C312 1.275 . S
O314 Tb296 2.513 . S
O314 C312 1.246 . S
C315 O299 1.245 . S
C315 O300 1.259 . S
Tb316 O319 2.453 . S
Tb316 O320 2.596 . S
Tb316 O321 2.374 . S
Tb316 O329 2.343 . S
Tb316 O331 2.353 . S
Tb316 O333 2.427 . S
Tb316 O334 2.513 . S
C317 O321 1.251 . S
C317 O323 1.263 . S
Tb318 O320 2.343 . S
Tb318 O323 2.353 . S
Tb318 O326 2.427 . S
Tb318 O327 2.513 . S
Tb318 O328 2.453 . S
Tb318 O329 2.596 . S
Tb318 O330 2.374 . S
O319 Tb316 2.453 . S
O319 C335 1.245 . S
O320 Tb316 2.596 . S
O320 Tb318 2.343 . S
O320 C335 1.259 . S
O321 Tb316 2.374 . S
O321 C317 1.251 . S
C322 O326 1.275 . S
C322 O327 1.246 . S
O323 C317 1.263 . S
O323 Tb318 2.353 . S
C324 O328 1.245 . S
C324 O329 1.259 . S
C325 O330 1.250 . S
C325 O331 1.263 . S
O326 Tb318 2.427 . S
O326 C322 1.275 . S
O327 Tb318 2.513 . S
O327 C322 1.246 . S
O328 Tb318 2.453 . S
O328 C324 1.245 . S
O329 Tb316 2.343 . S
O329 Tb318 2.596 . S
O329 C324 1.259 . S
O330 Tb318 2.374 . S
O330 C325 1.250 . S
O331 Tb316 2.353 . S
O331 C325 1.263 . S
C332 O333 1.275 . S
C332 O334 1.246 . S
O333 Tb316 2.427 . S
O333 C332 1.275 . S
O334 Tb316 2.513 . S
O334 C332 1.246 . S
C335 O319 1.245 . S
C335 O320 1.259 . S
Tb336 O339 2.453 . S
Tb336 O340 2.596 . S
Tb336 O341 2.374 . S
Tb336 O349 2.343 . S
Tb336 O351 2.353 . S
Tb336 O353 2.427 . S
Tb336 O354 2.513 . S
C337 O341 1.251 . S
C337 O343 1.263 . S
Tb338 O340 2.343 . S
Tb338 O343 2.353 . S
Tb338 O346 2.427 . S
Tb338 O347 2.513 . S
Tb338 O348 2.453 . S
Tb338 O349 2.596 . S
Tb338 O350 2.374 . S
O339 Tb336 2.453 . S
O339 C355 1.245 . S
O340 Tb336 2.596 . S
O340 Tb338 2.343 . S
O340 C355 1.259 . S
O341 Tb336 2.374 . S
O341 C337 1.251 . S
C342 O346 1.275 . S
C342 O347 1.246 . S
O343 C337 1.263 . S
O343 Tb338 2.353 . S
C344 O348 1.245 . S
C344 O349 1.259 . S
C345 O350 1.250 . S
C345 O351 1.263 . S
O346 Tb338 2.427 . S
O346 C342 1.275 . S
O347 Tb338 2.513 . S
O347 C342 1.246 . S
O348 Tb338 2.453 . S
O348 C344 1.245 . S
O349 Tb336 2.343 . S
O349 Tb338 2.596 . S
O349 C344 1.259 . S
O350 Tb338 2.374 . S
O350 C345 1.250 . S
O351 Tb336 2.353 . S
O351 C345 1.263 . S
C352 O353 1.275 . S
C352 O354 1.246 . S
O353 Tb336 2.427 . S
O353 C352 1.275 . S
O354 Tb336 2.513 . S
O354 C352 1.246 . S
C355 O339 1.245 . S
C355 O340 1.259 . S
Tb356 O359 2.453 . S
Tb356 O360 2.596 . S
Tb356 O361 2.374 . S
Tb356 O369 2.343 . S
Tb356 O371 2.353 . S
Tb356 O373 2.427 . S
Tb356 O374 2.513 . S
C357 O361 1.251 . S
C357 O363 1.263 . S
Tb358 O360 2.343 . S
Tb358 O363 2.353 . S
Tb358 O366 2.427 . S
Tb358 O367 2.513 . S
Tb358 O368 2.453 . S
Tb358 O369 2.596 . S
Tb358 O370 2.374 . S
O359 Tb356 2.453 . S
O359 C375 1.245 . S
O360 Tb356 2.596 . S
O360 Tb358 2.343 . S
O360 C375 1.259 . S
O361 Tb356 2.374 . S
O361 C357 1.251 . S
C362 O366 1.275 . S
C362 O367 1.246 . S
O363 C357 1.263 . S
O363 Tb358 2.353 . S
C364 O368 1.245 . S
C364 O369 1.259 . S
C365 O370 1.250 . S
C365 O371 1.263 . S
O366 Tb358 2.427 . S
O366 C362 1.275 . S
O367 Tb358 2.513 . S
O367 C362 1.246 . S
O368 Tb358 2.453 . S
O368 C364 1.245 . S
O369 Tb356 2.343 . S
O369 Tb358 2.596 . S
O369 C364 1.259 . S
O370 Tb358 2.374 . S
O370 C365 1.250 . S
O371 Tb356 2.353 . S
O371 C365 1.263 . S
C372 O373 1.275 . S
C372 O374 1.246 . S
O373 Tb356 2.427 . S
O373 C372 1.275 . S
O374 Tb356 2.513 . S
O374 C372 1.246 . S
C375 O359 1.245 . S
C375 O360 1.259 . S
Tb376 O379 2.453 . S
Tb376 O380 2.596 . S
Tb376 O381 2.374 . S
Tb376 O389 2.343 . S
Tb376 O391 2.353 . S
Tb376 O393 2.427 . S
Tb376 O394 2.513 . S
C377 O381 1.251 . S
C377 O383 1.263 . S
Tb378 O380 2.343 . S
Tb378 O383 2.353 . S
Tb378 O386 2.427 . S
Tb378 O387 2.513 . S
Tb378 O388 2.453 . S
Tb378 O389 2.596 . S
Tb378 O390 2.374 . S
O379 Tb376 2.453 . S
O379 C395 1.245 . S
O380 Tb376 2.596 . S
O380 Tb378 2.343 . S
O380 C395 1.259 . S
O381 Tb376 2.374 . S
O381 C377 1.251 . S
C382 O386 1.275 . S
C382 O387 1.246 . S
O383 C377 1.263 . S
O383 Tb378 2.353 . S
C384 O388 1.245 . S
C384 O389 1.259 . S
C385 O390 1.250 . S
C385 O391 1.263 . S
O386 Tb378 2.427 . S
O386 C382 1.275 . S
O387 Tb378 2.513 . S
O387 C382 1.246 . S
O388 Tb378 2.453 . S
O388 C384 1.245 . S
O389 Tb376 2.343 . S
O389 Tb378 2.596 . S
O389 C384 1.259 . S
O390 Tb378 2.374 . S
O390 C385 1.250 . S
O391 Tb376 2.353 . S
O391 C385 1.263 . S
C392 O393 1.275 . S
C392 O394 1.246 . S
O393 Tb376 2.427 . S
O393 C392 1.275 . S
O394 Tb376 2.513 . S
O394 C392 1.246 . S
C395 O379 1.245 . S
C395 O380 1.259 . S
H396 C402 0.930 . S
H397 C406 0.930 . S
H398 C411 0.929 . S
H399 C409 0.929 1_556 S
H400 C404 0.929 . S
H401 C410 0.929 . S
C402 H396 0.930 . S
C402 C403 1.367 . S
C402 C410 1.378 . S
C403 C402 1.367 . S
C403 C411 1.433 . S
C404 H400 0.929 . S
C404 C406 1.378 . S
C404 C408 1.350 . S
C405 C408 1.463 . S
C405 C410 1.350 . S
C405 N413 1.427 . S
C406 H397 0.930 . S
C406 C404 1.378 . S
C406 C407 1.367 . S
C407 C406 1.367 . S
C407 C409 1.433 . S
C408 C404 1.350 . S
C408 C405 1.463 . S
C408 N412 1.427 . S
C409 H399 0.929 1_554 S
C409 C407 1.433 . S
C409 N412 1.384 . S
C410 H401 0.929 . S
C410 C402 1.378 . S
C410 C405 1.350 . S
C411 H398 0.929 . S
C411 C403 1.433 . S
C411 N413 1.384 . S
N412 C408 1.427 . S
N412 C409 1.384 . S
N413 C405 1.427 . S
N413 C411 1.384 . S
H414 C420 0.930 . S
H415 C424 0.930 . S
H416 C429 0.929 . S
H417 C427 0.929 . S
H418 C422 0.929 . S
H419 C428 0.929 . S
C420 H414 0.930 . S
C420 C421 1.367 . S
C420 C428 1.378 . S
C421 C420 1.367 . S
C421 C429 1.433 . S
C422 H418 0.929 . S
C422 C424 1.378 . S
C422 C426 1.350 . S
C423 C426 1.463 . S
C423 C428 1.350 . S
C423 N431 1.427 . S
C424 H415 0.930 . S
C424 C422 1.378 . S
C424 C425 1.367 . S
C425 C424 1.367 . S
C425 C427 1.433 . S
C426 C422 1.350 . S
C426 C423 1.463 . S
C426 N430 1.427 . S
C427 H417 0.929 . S
C427 C425 1.433 . S
C427 N430 1.384 . S
C428 H419 0.929 . S
C428 C420 1.378 . S
C428 C423 1.350 . S
C429 H416 0.929 . S
C429 C421 1.433 . S
C429 N431 1.384 . S
N430 C426 1.427 . S
N430 C427 1.384 . S
N431 C423 1.427 . S
N431 C429 1.384 . S
H432 C438 0.930 . S
H433 C442 0.930 1_556 S
H434 C447 0.929 . S
H435 C445 0.929 . S
H436 C440 0.929 . S
H437 C446 0.929 . S
C438 H432 0.930 . S
C438 C439 1.367 . S
C438 C446 1.378 . S
C439 C438 1.367 . S
C439 C447 1.433 . S
C440 H436 0.929 . S
C440 C442 1.378 . S
C440 C444 1.350 . S
C441 C444 1.463 . S
C441 C446 1.350 . S
C441 N449 1.427 . S
C442 H433 0.930 1_554 S
C442 C440 1.378 . S
C442 C443 1.367 . S
C443 C442 1.367 . S
C443 C445 1.433 . S
C444 C440 1.350 . S
C444 C441 1.463 . S
C444 N448 1.427 . S
C445 H435 0.929 . S
C445 C443 1.433 . S
C445 N448 1.384 . S
C446 H437 0.929 . S
C446 C438 1.378 . S
C446 C441 1.350 . S
C447 H434 0.929 . S
C447 C439 1.433 . S
C447 N449 1.384 . S
N448 C444 1.427 . S
N448 C445 1.384 . S
N449 C441 1.427 . S
N449 C447 1.384 . S
H450 C456 0.930 . S
H451 C460 0.930 . S
H452 C465 0.929 . S
H453 C463 0.929 . S
H454 C458 0.929 . S
H455 C464 0.929 . S
C456 H450 0.930 . S
C456 C457 1.367 . S
C456 C464 1.378 . S
C457 C456 1.367 . S
C457 C465 1.433 . S
C458 H454 0.929 . S
C458 C460 1.378 . S
C458 C462 1.350 . S
C459 C462 1.463 . S
C459 C464 1.350 . S
C459 N467 1.427 . S
C460 H451 0.930 . S
C460 C458 1.378 . S
C460 C461 1.367 . S
C461 C460 1.367 . S
C461 C463 1.433 1_556 S
C462 C458 1.350 . S
C462 C459 1.463 . S
C462 N466 1.427 . S
C463 H453 0.929 . S
C463 C461 1.433 1_554 S
C463 N466 1.384 1_554 S
C464 H455 0.929 . S
C464 C456 1.378 . S
C464 C459 1.350 . S
C465 H452 0.929 . S
C465 C457 1.433 . S
C465 N467 1.384 . S
N466 C462 1.427 . S
N466 C463 1.384 1_556 S
N467 C459 1.427 . S
N467 C465 1.384 . S
H468 C474 0.930 . S
H469 C478 0.930 . S
H470 C483 0.929 . S
H471 C481 0.929 . S
H472 C476 0.929 . S
H473 C482 0.929 . S
C474 H468 0.930 . S
C474 C475 1.367 . S
C474 C482 1.378 . S
C475 C474 1.367 . S
C475 C483 1.433 . S
C476 H472 0.929 . S
C476 C478 1.378 . S
C476 C480 1.350 . S
C477 C480 1.463 . S
C477 C482 1.350 . S
C477 N485 1.427 . S
C478 H469 0.930 . S
C478 C476 1.378 . S
C478 C479 1.367 . S
C479 C478 1.367 . S
C479 C481 1.433 . S
C480 C476 1.350 . S
C480 C477 1.463 . S
C480 N484 1.427 . S
C481 H471 0.929 . S
C481 C479 1.433 . S
C481 N484 1.384 . S
C482 H473 0.929 . S
C482 C474 1.378 . S
C482 C477 1.350 . S
C483 H470 0.929 . S
C483 C475 1.433 . S
C483 N485 1.384 . S
N484 C480 1.427 . S
N484 C481 1.384 . S
N485 C477 1.427 . S
N485 C483 1.384 . S
H486 C492 0.930 . S
H487 C496 0.930 . S
H488 C501 0.929 . S
H489 C499 0.929 1_554 S
H490 C494 0.929 . S
H491 C500 0.929 . S
C492 H486 0.930 . S
C492 C493 1.367 . S
C492 C500 1.378 . S
C493 C492 1.367 . S
C493 C501 1.433 . S
C494 H490 0.929 . S
C494 C496 1.378 . S
C494 C498 1.350 . S
C495 C498 1.463 . S
C495 C500 1.350 . S
C495 N503 1.427 . S
C496 H487 0.930 . S
C496 C494 1.378 . S
C496 C497 1.367 . S
C497 C496 1.367 . S
C497 C499 1.433 . S
C498 C494 1.350 . S
C498 C495 1.463 . S
C498 N502 1.427 . S
C499 H489 0.929 1_556 S
C499 C497 1.433 . S
C499 N502 1.384 . S
C500 H491 0.929 . S
C500 C492 1.378 . S
C500 C495 1.350 . S
C501 H488 0.929 . S
C501 C493 1.433 . S
C501 N503 1.384 . S
N502 C498 1.427 . S
N502 C499 1.384 . S
N503 C495 1.427 . S
N503 C501 1.384 . S
H504 C510 0.930 . S
H505 C514 0.930 . S
H506 C519 0.929 . S
H507 C517 0.929 . S
H508 C512 0.929 . S
H509 C518 0.929 . S
C510 H504 0.930 . S
C510 C511 1.367 . S
C510 C518 1.378 . S
C511 C510 1.367 . S
C511 C519 1.433 . S
C512 H508 0.929 . S
C512 C514 1.378 . S
C512 C516 1.350 . S
C513 C516 1.463 . S
C513 C518 1.350 . S
C513 N521 1.427 . S
C514 H505 0.930 . S
C514 C512 1.378 . S
C514 C515 1.367 . S
C515 C514 1.367 . S
C515 C517 1.433 . S
C516 C512 1.350 . S
C516 C513 1.463 . S
C516 N520 1.427 . S
C517 H507 0.929 . S
C517 C515 1.433 . S
C517 N520 1.384 . S
C518 H509 0.929 . S
C518 C510 1.378 . S
C518 C513 1.350 . S
C519 H506 0.929 . S
C519 C511 1.433 . S
C519 N521 1.384 . S
N520 C516 1.427 . S
N520 C517 1.384 . S
N521 C513 1.427 . S
N521 C519 1.384 . S
H522 C528 0.930 . S
H523 C532 0.930 . S
H524 C537 0.929 . S
H525 C535 0.929 1_554 S
H526 C530 0.929 . S
H527 C536 0.929 . S
C528 H522 0.930 . S
C528 C529 1.367 . S
C528 C536 1.378 . S
C529 C528 1.367 . S
C529 C537 1.433 . S
C530 H526 0.929 . S
C530 C532 1.378 . S
C530 C534 1.350 . S
C531 C534 1.463 . S
C531 C536 1.350 . S
C531 N539 1.427 . S
C532 H523 0.930 . S
C532 C530 1.378 . S
C532 C533 1.367 . S
C533 C532 1.367 . S
C533 C535 1.433 . S
C534 C530 1.350 . S
C534 C531 1.463 . S
C534 N538 1.427 . S
C535 H525 0.929 1_556 S
C535 C533 1.433 . S
C535 N538 1.384 . S
C536 H527 0.929 . S
C536 C528 1.378 . S
C536 C531 1.350 . S
C537 H524 0.929 . S
C537 C529 1.433 . S
C537 N539 1.384 . S
N538 C534 1.427 . S
N538 C535 1.384 . S
N539 C531 1.427 . S
N539 C537 1.384 . S
H540 C546 0.930 . S
H541 C550 0.930 . S
H542 C555 0.929 . S
H543 C553 0.929 . S
H544 C548 0.929 . S
H545 C554 0.929 . S
C546 H540 0.930 . S
C546 C547 1.367 . S
C546 C554 1.378 . S
C547 C546 1.367 . S
C547 C555 1.433 . S
C548 H544 0.929 . S
C548 C550 1.378 . S
C548 C552 1.350 . S
C549 C552 1.463 . S
C549 C554 1.350 . S
C549 N557 1.427 . S
C550 H541 0.930 . S
C550 C548 1.378 . S
C550 C551 1.367 . S
C551 C550 1.367 . S
C551 C553 1.433 . S
C552 C548 1.350 . S
C552 C549 1.463 . S
C552 N556 1.427 . S
C553 H543 0.929 . S
C553 C551 1.433 . S
C553 N556 1.384 . S
C554 H545 0.929 . S
C554 C546 1.378 . S
C554 C549 1.350 . S
C555 H542 0.929 . S
C555 C547 1.433 . S
C555 N557 1.384 . S
N556 C552 1.427 . S
N556 C553 1.384 . S
N557 C549 1.427 . S
N557 C555 1.384 . S
H558 C564 0.930 . S
H559 C568 0.930 . S
H560 C573 0.929 . S
H561 C571 0.929 1_556 S
H562 C566 0.929 . S
H563 C572 0.929 . S
C564 H558 0.930 . S
C564 C565 1.367 . S
C564 C572 1.378 . S
C565 C564 1.367 . S
C565 C573 1.433 . S
C566 H562 0.929 . S
C566 C568 1.378 . S
C566 C570 1.350 . S
C567 C570 1.463 . S
C567 C572 1.350 . S
C567 N575 1.427 . S
C568 H559 0.930 . S
C568 C566 1.378 . S
C568 C569 1.367 . S
C569 C568 1.367 . S
C569 C571 1.433 . S
C570 C566 1.350 . S
C570 C567 1.463 . S
C570 N574 1.427 . S
C571 H561 0.929 1_554 S
C571 C569 1.433 . S
C571 N574 1.384 . S
C572 H563 0.929 . S
C572 C564 1.378 . S
C572 C567 1.350 . S
C573 H560 0.929 . S
C573 C565 1.433 . S
C573 N575 1.384 . S
N574 C570 1.427 . S
N574 C571 1.384 . S
N575 C567 1.427 . S
N575 C573 1.384 . S
H576 C582 0.930 . S
H577 C586 0.930 . S
H578 C591 0.929 . S
H579 C589 0.929 . S
H580 C584 0.929 . S
H581 C590 0.929 . S
C582 H576 0.930 . S
C582 C583 1.367 . S
C582 C590 1.378 . S
C583 C582 1.367 . S
C583 C591 1.433 . S
C584 H580 0.929 . S
C584 C586 1.378 . S
C584 C588 1.350 . S
C585 C588 1.463 . S
C585 C590 1.350 . S
C585 N593 1.427 . S
C586 H577 0.930 . S
C586 C584 1.378 . S
C586 C587 1.367 . S
C587 C586 1.367 . S
C587 C589 1.433 . S
C588 C584 1.350 . S
C588 C585 1.463 . S
C588 N592 1.427 . S
C589 H579 0.929 . S
C589 C587 1.433 . S
C589 N592 1.384 . S
C590 H581 0.929 . S
C590 C582 1.378 . S
C590 C585 1.350 . S
C591 H578 0.929 . S
C591 C583 1.433 . S
C591 N593 1.384 . S
N592 C588 1.427 . S
N592 C589 1.384 . S
N593 C585 1.427 . S
N593 C591 1.384 . S
H594 C600 0.930 . S
H595 C604 0.930 . S
H596 C609 0.929 . S
H597 C607 0.929 . S
H598 C602 0.929 . S
H599 C608 0.929 1_556 S
C600 H594 0.930 . S
C600 C601 1.367 . S
C600 C608 1.378 . S
C601 C600 1.367 . S
C601 C609 1.433 . S
C602 H598 0.929 . S
C602 C604 1.378 . S
C602 C606 1.350 . S
C603 C606 1.463 . S
C603 C608 1.350 . S
C603 N611 1.427 . S
C604 H595 0.930 . S
C604 C602 1.378 . S
C604 C605 1.367 . S
C605 C604 1.367 . S
C605 C607 1.433 1_554 S
C606 C602 1.350 . S
C606 C603 1.463 . S
C606 N610 1.427 . S
C607 H597 0.929 . S
C607 C605 1.433 1_556 S
C607 N610 1.384 1_556 S
C608 H599 0.929 1_554 S
C608 C600 1.378 . S
C608 C603 1.350 . S
C609 H596 0.929 . S
C609 C601 1.433 . S
C609 N611 1.384 . S
N610 C606 1.427 . S
N610 C607 1.384 1_554 S
N611 C603 1.427 . S
N611 C609 1.384 . S
H612 C618 0.930 . S
H613 C622 0.930 . S
H614 C627 0.929 . S
H615 C625 0.929 . S
H616 C620 0.929 . S
H617 C626 0.929 . S
C618 H612 0.930 . S
C618 C619 1.367 . S
C618 C626 1.378 . S
C619 C618 1.367 . S
C619 C627 1.433 . S
C620 H616 0.929 . S
C620 C622 1.378 . S
C620 C624 1.350 . S
C621 C624 1.463 1_655 S
C621 C626 1.350 . S
C621 N629 1.427 . S
C622 H613 0.930 . S
C622 C620 1.378 . S
C622 C623 1.367 . S
C623 C622 1.367 . S
C623 C625 1.433 . S
C624 C620 1.350 . S
C624 C621 1.463 1_455 S
C624 N628 1.427 . S
C625 H615 0.929 . S
C625 C623 1.433 . S
C625 N628 1.384 . S
C626 H617 0.929 . S
C626 C618 1.378 . S
C626 C621 1.350 . S
C627 H614 0.929 . S
C627 C619 1.433 . S
C627 N629 1.384 . S
N628 C624 1.427 . S
N628 C625 1.384 . S
N629 C621 1.427 . S
N629 C627 1.384 . S
H630 C636 0.930 . S
H631 C640 0.930 . S
H632 C645 0.929 . S
H633 C643 0.929 . S
H634 C638 0.929 . S
H635 C644 0.929 . S
C636 H630 0.930 . S
C636 C637 1.367 . S
C636 C644 1.378 . S
C637 C636 1.367 . S
C637 C645 1.433 . S
C638 H634 0.929 . S
C638 C640 1.378 . S
C638 C642 1.350 . S
C639 C642 1.463 . S
C639 C644 1.350 . S
C639 N647 1.427 . S
C640 H631 0.930 . S
C640 C638 1.378 . S
C640 C641 1.367 . S
C641 C640 1.367 . S
C641 C643 1.433 . S
C642 C638 1.350 . S
C642 C639 1.463 . S
C642 N646 1.427 . S
C643 H633 0.929 . S
C643 C641 1.433 . S
C643 N646 1.384 . S
C644 H635 0.929 . S
C644 C636 1.378 . S
C644 C639 1.350 . S
C645 H632 0.929 . S
C645 C637 1.433 . S
C645 N647 1.384 . S
N646 C642 1.427 . S
N646 C643 1.384 . S
N647 C639 1.427 . S
N647 C645 1.384 . S
H648 C654 0.930 . S
H649 C658 0.930 . S
H650 C663 0.929 . S
H651 C661 0.929 . S
H652 C656 0.929 . S
H653 C662 0.929 . S
C654 H648 0.930 . S
C654 C655 1.367 . S
C654 C662 1.378 . S
C655 C654 1.367 . S
C655 C663 1.433 . S
C656 H652 0.929 . S
C656 C658 1.378 . S
C656 C660 1.350 . S
C657 C660 1.463 1_545 S
C657 C662 1.350 . S
C657 N665 1.427 . S
C658 H649 0.930 . S
C658 C656 1.378 . S
C658 C659 1.367 . S
C659 C658 1.367 . S
C659 C661 1.433 . S
C660 C656 1.350 . S
C660 C657 1.463 1_565 S
C660 N664 1.427 . S
C661 H651 0.929 . S
C661 C659 1.433 . S
C661 N664 1.384 . S
C662 H653 0.929 . S
C662 C654 1.378 . S
C662 C657 1.350 . S
C663 H650 0.929 . S
C663 C655 1.433 . S
C663 N665 1.384 . S
N664 C660 1.427 . S
N664 C661 1.384 . S
N665 C657 1.427 . S
N665 C663 1.384 . S
H666 C672 0.930 . S
H667 C676 0.930 . S
H668 C681 0.929 . S
H669 C679 0.929 . S
H670 C674 0.929 . S
H671 C680 0.929 . S
C672 H666 0.930 . S
C672 C673 1.367 . S
C672 C680 1.378 . S
C673 C672 1.367 . S
C673 C681 1.433 . S
C674 H670 0.929 . S
C674 C676 1.378 . S
C674 C678 1.350 . S
C675 C678 1.463 . S
C675 C680 1.350 . S
C675 N683 1.427 . S
C676 H667 0.930 . S
C676 C674 1.378 . S
C676 C677 1.367 . S
C677 C676 1.367 . S
C677 C679 1.433 . S
C678 C674 1.350 . S
C678 C675 1.463 . S
C678 N682 1.427 . S
C679 H669 0.929 . S
C679 C677 1.433 . S
C679 N682 1.384 . S
C680 H671 0.929 . S
C680 C672 1.378 . S
C680 C675 1.350 . S
C681 H668 0.929 . S
C681 C673 1.433 . S
C681 N683 1.384 . S
N682 C678 1.427 . S
N682 C679 1.384 . S
N683 C675 1.427 . S
N683 C681 1.384 . S
H684 C690 0.930 . S
H685 C694 0.930 . S
H686 C699 0.929 . S
H687 C697 0.929 . S
H688 C692 0.929 . S
H689 C698 0.929 . S
C690 H684 0.930 . S
C690 C691 1.367 . S
C690 C698 1.378 . S
C691 C690 1.367 . S
C691 C699 1.433 . S
C692 H688 0.929 . S
C692 C694 1.378 . S
C692 C696 1.350 . S
C693 C696 1.463 . S
C693 C698 1.350 . S
C693 N701 1.427 . S
C694 H685 0.930 . S
C694 C692 1.378 . S
C694 C695 1.367 . S
C695 C694 1.367 . S
C695 C697 1.433 . S
C696 C692 1.350 . S
C696 C693 1.463 . S
C696 N700 1.427 . S
C697 H687 0.929 . S
C697 C695 1.433 . S
C697 N700 1.384 . S
C698 H689 0.929 . S
C698 C690 1.378 . S
C698 C693 1.350 . S
C699 H686 0.929 . S
C699 C691 1.433 . S
C699 N701 1.384 . S
N700 C696 1.427 . S
N700 C697 1.384 . S
N701 C693 1.427 . S
N701 C699 1.384 . S
H702 C708 0.930 . S
H703 C712 0.930 . S
H704 C717 0.929 . S
H705 C715 0.929 . S
H706 C710 0.929 . S
H707 C716 0.929 . S
C708 H702 0.930 . S
C708 C709 1.367 . S
C708 C716 1.378 . S
C709 C708 1.367 . S
C709 C717 1.433 . S
C710 H706 0.929 . S
C710 C712 1.378 . S
C710 C714 1.350 . S
C711 C714 1.463 . S
C711 C716 1.350 . S
C711 N719 1.427 . S
C712 H703 0.930 . S
C712 C710 1.378 . S
C712 C713 1.367 . S
C713 C712 1.367 . S
C713 C715 1.433 . S
C714 C710 1.350 . S
C714 C711 1.463 . S
C714 N718 1.427 . S
C715 H705 0.929 . S
C715 C713 1.433 . S
C715 N718 1.384 . S
C716 H707 0.929 . S
C716 C708 1.378 . S
C716 C711 1.350 . S
C717 H704 0.929 . S
C717 C709 1.433 . S
C717 N719 1.384 . S
N718 C714 1.427 . S
N718 C715 1.384 . S
N719 C711 1.427 . S
N719 C717 1.384 . S
H720 C726 0.930 . S
H721 C730 0.930 . S
H722 C735 0.929 . S
H723 C733 0.929 . S
H724 C728 0.929 . S
H725 C734 0.929 . S
C726 H720 0.930 . S
C726 C727 1.367 . S
C726 C734 1.378 . S
C727 C726 1.367 . S
C727 C735 1.433 . S
C728 H724 0.929 . S
C728 C730 1.378 . S
C728 C732 1.350 . S
C729 C732 1.463 . S
C729 C734 1.350 . S
C729 N737 1.427 . S
C730 H721 0.930 . S
C730 C728 1.378 . S
C730 C731 1.367 . S
C731 C730 1.367 . S
C731 C733 1.433 . S
C732 C728 1.350 . S
C732 C729 1.463 . S
C732 N736 1.427 . S
C733 H723 0.929 . S
C733 C731 1.433 . S
C733 N736 1.384 . S
C734 H725 0.929 . S
C734 C726 1.378 . S
C734 C729 1.350 . S
C735 H722 0.929 . S
C735 C727 1.433 . S
C735 N737 1.384 . S
N736 C732 1.427 . S
N736 C733 1.384 . S
N737 C729 1.427 . S
N737 C735 1.384 . S
H738 C744 0.930 . S
H739 C748 0.930 . S
H740 C753 0.929 . S
H741 C751 0.929 . S
H742 C746 0.929 . S
H743 C752 0.929 . S
C744 H738 0.930 . S
C744 C745 1.367 . S
C744 C752 1.378 . S
C745 C744 1.367 . S
C745 C753 1.433 . S
C746 H742 0.929 . S
C746 C748 1.378 . S
C746 C750 1.350 . S
C747 C750 1.463 . S
C747 C752 1.350 . S
C747 N755 1.427 . S
C748 H739 0.930 . S
C748 C746 1.378 . S
C748 C749 1.367 . S
C749 C748 1.367 . S
C749 C751 1.433 . S
C750 C746 1.350 . S
C750 C747 1.463 . S
C750 N754 1.427 . S
C751 H741 0.929 . S
C751 C749 1.433 . S
C751 N754 1.384 . S
C752 H743 0.929 . S
C752 C744 1.378 . S
C752 C747 1.350 . S
C753 H740 0.929 . S
C753 C745 1.433 . S
C753 N755 1.384 . S
N754 C750 1.427 . S
N754 C751 1.384 . S
N755 C747 1.427 . S
N755 C753 1.384 . S
H756 C762 0.930 . S
H757 C766 0.930 . S
H758 C771 0.929 . S
H759 C769 0.929 . S
H760 C764 0.929 . S
H761 C770 0.929 . S
C762 H756 0.930 . S
C762 C763 1.367 . S
C762 C770 1.378 . S
C763 C762 1.367 . S
C763 C771 1.433 . S
C764 H760 0.929 . S
C764 C766 1.378 . S
C764 C768 1.350 . S
C765 C768 1.463 . S
C765 C770 1.350 . S
C765 N773 1.427 . S
C766 H757 0.930 . S
C766 C764 1.378 . S
C766 C767 1.367 . S
C767 C766 1.367 . S
C767 C769 1.433 . S
C768 C764 1.350 . S
C768 C765 1.463 . S
C768 N772 1.427 . S
C769 H759 0.929 . S
C769 C767 1.433 . S
C769 N772 1.384 . S
C770 H761 0.929 . S
C770 C762 1.378 . S
C770 C765 1.350 . S
C771 H758 0.929 . S
C771 C763 1.433 . S
C771 N773 1.384 . S
N772 C768 1.427 . S
N772 C769 1.384 . S
N773 C765 1.427 . S
N773 C771 1.384 . S
H774 C780 0.930 . S
H775 C784 0.930 . S
H776 C789 0.929 . S
H777 C787 0.929 . S
H778 C782 0.929 . S
H779 C788 0.929 . S
C780 H774 0.930 . S
C780 C781 1.367 . S
C780 C788 1.378 1_545 S
C781 C780 1.367 . S
C781 C789 1.433 . S
C782 H778 0.929 . S
C782 C784 1.378 . S
C782 C786 1.350 . S
C783 C786 1.463 . S
C783 C788 1.350 . S
C783 N791 1.427 . S
C784 H775 0.930 . S
C784 C782 1.378 . S
C784 C785 1.367 . S
C785 C784 1.367 . S
C785 C787 1.433 . S
C786 C782 1.350 . S
C786 C783 1.463 . S
C786 N790 1.427 . S
C787 H777 0.929 . S
C787 C785 1.433 . S
C787 N790 1.384 . S
C788 H779 0.929 . S
C788 C780 1.378 1_565 S
C788 C783 1.350 . S
C789 H776 0.929 . S
C789 C781 1.433 . S
C789 N791 1.384 1_545 S
N790 C786 1.427 . S
N790 C787 1.384 . S
N791 C783 1.427 . S
N791 C789 1.384 1_565 S
H792 C798 0.930 . S
H793 C802 0.930 . S
H794 C807 0.929 . S
H795 C805 0.929 . S
H796 C800 0.929 . S
H797 C806 0.929 . S
C798 H792 0.930 . S
C798 C799 1.367 . S
C798 C806 1.378 1_655 S
C799 C798 1.367 . S
C799 C807 1.433 . S
C800 H796 0.929 . S
C800 C802 1.378 . S
C800 C804 1.350 . S
C801 C804 1.463 . S
C801 C806 1.350 . S
C801 N809 1.427 . S
C802 H793 0.930 . S
C802 C800 1.378 . S
C802 C803 1.367 . S
C803 C802 1.367 . S
C803 C805 1.433 . S
C804 C800 1.350 . S
C804 C801 1.463 . S
C804 N808 1.427 . S
C805 H795 0.929 . S
C805 C803 1.433 . S
C805 N808 1.384 . S
C806 H797 0.929 . S
C806 C798 1.378 1_455 S
C806 C801 1.350 . S
C807 H794 0.929 . S
C807 C799 1.433 . S
C807 N809 1.384 1_655 S
N808 C804 1.427 . S
N808 C805 1.384 . S
N809 C801 1.427 . S
N809 C807 1.384 1_455 S
H810 C816 0.930 . S
H811 C820 0.930 . S
H812 C825 0.929 . S
H813 C823 0.929 . S
H814 C818 0.929 . S
H815 C824 0.929 . S
C816 H810 0.930 . S
C816 C817 1.367 . S
C816 C824 1.378 . S
C817 C816 1.367 . S
C817 C825 1.433 . S
C818 H814 0.929 . S
C818 C820 1.378 . S
C818 C822 1.350 . S
C819 C822 1.463 . S
C819 C824 1.350 . S
C819 N827 1.427 . S
C820 H811 0.930 . S
C820 C818 1.378 . S
C820 C821 1.367 . S
C821 C820 1.367 . S
C821 C823 1.433 . S
C822 C818 1.350 . S
C822 C819 1.463 . S
C822 N826 1.427 . S
C823 H813 0.929 . S
C823 C821 1.433 . S
C823 N826 1.384 . S
C824 H815 0.929 . S
C824 C816 1.378 . S
C824 C819 1.350 . S
C825 H812 0.929 . S
C825 C817 1.433 . S
C825 N827 1.384 . S
N826 C822 1.427 . S
N826 C823 1.384 . S
N827 C819 1.427 . S
N827 C825 1.384 . S
H828 C834 0.930 . S
H829 C838 0.930 . S
H830 C843 0.929 . S
H831 C841 0.929 . S
H832 C836 0.929 . S
H833 C842 0.929 . S
C834 H828 0.930 . S
C834 C835 1.367 . S
C834 C842 1.378 . S
C835 C834 1.367 . S
C835 C843 1.433 . S
C836 H832 0.929 . S
C836 C838 1.378 . S
C836 C840 1.350 . S
C837 C840 1.463 . S
C837 C842 1.350 . S
C837 N845 1.427 . S
C838 H829 0.930 . S
C838 C836 1.378 . S
C838 C839 1.367 . S
C839 C838 1.367 . S
C839 C841 1.433 . S
C840 C836 1.350 . S
C840 C837 1.463 . S
C840 N844 1.427 . S
C841 H831 0.929 . S
C841 C839 1.433 . S
C841 N844 1.384 . S
C842 H833 0.929 . S
C842 C834 1.378 . S
C842 C837 1.350 . S
C843 H830 0.929 . S
C843 C835 1.433 . S
C843 N845 1.384 . S
N844 C840 1.427 . S
N844 C841 1.384 . S
N845 C837 1.427 . S
N845 C843 1.384 . S
H846 C852 0.930 . S
H847 C856 0.930 . S
H848 C861 0.929 . S
H849 C859 0.929 . S
H850 C854 0.929 . S
H851 C860 0.929 . S
C852 H846 0.930 . S
C852 C853 1.367 . S
C852 C860 1.378 . S
C853 C852 1.367 . S
C853 C861 1.433 . S
C854 H850 0.929 . S
C854 C856 1.378 . S
C854 C858 1.350 . S
C855 C858 1.463 . S
C855 C860 1.350 . S
C855 N863 1.427 . S
C856 H847 0.930 . S
C856 C854 1.378 . S
C856 C857 1.367 . S
C857 C856 1.367 . S
C857 C859 1.433 . S
C858 C854 1.350 . S
C858 C855 1.463 . S
C858 N862 1.427 . S
C859 H849 0.929 . S
C859 C857 1.433 . S
C859 N862 1.384 . S
C860 H851 0.929 . S
C860 C852 1.378 . S
C860 C855 1.350 . S
C861 H848 0.929 . S
C861 C853 1.433 . S
C861 N863 1.384 . S
N862 C858 1.427 . S
N862 C859 1.384 . S
N863 C855 1.427 . S
N863 C861 1.384 . S
H864 C870 0.930 . S
H865 C874 0.930 . S
H866 C879 0.929 . S
H867 C877 0.929 . S
H868 C872 0.929 . S
H869 C878 0.929 . S
C870 H864 0.930 . S
C870 C871 1.367 . S
C870 C878 1.378 . S
C871 C870 1.367 . S
C871 C879 1.433 . S
C872 H868 0.929 . S
C872 C874 1.378 . S
C872 C876 1.350 . S
C873 C876 1.463 . S
C873 C878 1.350 . S
C873 N881 1.427 . S
C874 H865 0.930 . S
C874 C872 1.378 . S
C874 C875 1.367 . S
C875 C874 1.367 . S
C875 C877 1.433 . S
C876 C872 1.350 . S
C876 C873 1.463 . S
C876 N880 1.427 . S
C877 H867 0.929 . S
C877 C875 1.433 . S
C877 N880 1.384 . S
C878 H869 0.929 . S
C878 C870 1.378 . S
C878 C873 1.350 . S
C879 H866 0.929 . S
C879 C871 1.433 . S
C879 N881 1.384 . S
N880 C876 1.427 . S
N880 C877 1.384 . S
N881 C873 1.427 . S
N881 C879 1.384 . S
H882 C888 0.930 . S
H883 C892 0.930 . S
H884 C897 0.929 . S
H885 C895 0.929 . S
H886 C890 0.929 . S
H887 C896 0.929 . S
C888 H882 0.930 . S
C888 C889 1.367 . S
C888 C896 1.378 . S
C889 C888 1.367 . S
C889 C897 1.433 . S
C890 H886 0.929 . S
C890 C892 1.378 . S
C890 C894 1.350 . S
C891 C894 1.463 1_565 S
C891 C896 1.350 . S
C891 N899 1.427 . S
C892 H883 0.930 . S
C892 C890 1.378 . S
C892 C893 1.367 . S
C893 C892 1.367 . S
C893 C895 1.433 . S
C894 C890 1.350 . S
C894 C891 1.463 1_545 S
C894 N898 1.427 . S
C895 H885 0.929 . S
C895 C893 1.433 . S
C895 N898 1.384 . S
C896 H887 0.929 . S
C896 C888 1.378 . S
C896 C891 1.350 . S
C897 H884 0.929 . S
C897 C889 1.433 . S
C897 N899 1.384 . S
N898 C894 1.427 . S
N898 C895 1.384 . S
N899 C891 1.427 . S
N899 C897 1.384 . S
H900 C906 0.930 . S
H901 C910 0.930 . S
H902 C915 0.929 . S
H903 C913 0.929 . S
H904 C908 0.929 1_455 S
H905 C914 0.929 . S
C906 H900 0.930 . S
C906 C907 1.367 . S
C906 C914 1.378 . S
C907 C906 1.367 . S
C907 C915 1.433 . S
C908 H904 0.929 1_655 S
C908 C910 1.378 . S
C908 C912 1.350 . S
C909 C912 1.463 1_455 S
C909 C914 1.350 . S
C909 N917 1.427 . S
C910 H901 0.930 . S
C910 C908 1.378 . S
C910 C911 1.367 . S
C911 C910 1.367 . S
C911 C913 1.433 . S
C912 C908 1.350 . S
C912 C909 1.463 1_655 S
C912 N916 1.427 . S
C913 H903 0.929 . S
C913 C911 1.433 . S
C913 N916 1.384 . S
C914 H905 0.929 . S
C914 C906 1.378 . S
C914 C909 1.350 . S
C915 H902 0.929 . S
C915 C907 1.433 . S
C915 N917 1.384 . S
N916 C912 1.427 . S
N916 C913 1.384 . S
N917 C909 1.427 . S
N917 C915 1.384 . S
H918 C924 0.930 . S
H919 C928 0.930 . S
H920 C933 0.929 . S
H921 C931 0.929 . S
H922 C926 0.929 . S
H923 C932 0.929 . S
C924 H918 0.930 . S
C924 C925 1.367 . S
C924 C932 1.378 . S
C925 C924 1.367 . S
C925 C933 1.433 . S
C926 H922 0.929 . S
C926 C928 1.378 . S
C926 C930 1.350 . S
C927 C930 1.463 . S
C927 C932 1.350 . S
C927 N935 1.427 . S
C928 H919 0.930 . S
C928 C926 1.378 . S
C928 C929 1.367 . S
C929 C928 1.367 . S
C929 C931 1.433 . S
C930 C926 1.350 . S
C930 C927 1.463 . S
C930 N934 1.427 . S
C931 H921 0.929 . S
C931 C929 1.433 . S
C931 N934 1.384 . S
C932 H923 0.929 . S
C932 C924 1.378 . S
C932 C927 1.350 . S
C933 H920 0.929 . S
C933 C925 1.433 . S
C933 N935 1.384 . S
N934 C930 1.427 . S
N934 C931 1.384 . S
N935 C927 1.427 . S
N935 C933 1.384 . S
H936 C942 0.930 . S
H937 C946 0.930 . S
H938 C951 0.929 . S
H939 C949 0.929 . S
H940 C944 0.929 . S
H941 C950 0.929 1_655 S
C942 H936 0.930 . S
C942 C943 1.367 . S
C942 C950 1.378 . S
C943 C942 1.367 . S
C943 C951 1.433 . S
C944 H940 0.929 . S
C944 C946 1.378 . S
C944 C948 1.350 . S
C945 C948 1.463 . S
C945 C950 1.350 1_655 S
C945 N953 1.427 1_655 S
C946 H937 0.930 . S
C946 C944 1.378 . S
C946 C947 1.367 . S
C947 C946 1.367 . S
C947 C949 1.433 . S
C948 C944 1.350 . S
C948 C945 1.463 . S
C948 N952 1.427 . S
C949 H939 0.929 . S
C949 C947 1.433 . S
C949 N952 1.384 . S
C950 H941 0.929 1_455 S
C950 C942 1.378 . S
C950 C945 1.350 1_455 S
C951 H938 0.929 . S
C951 C943 1.433 . S
C951 N953 1.384 . S
N952 C948 1.427 . S
N952 C949 1.384 . S
N953 C945 1.427 1_455 S
N953 C951 1.384 . S
H954 C960 0.930 . S
H955 C964 0.930 . S
H956 C969 0.929 . S
H957 C967 0.929 . S
H958 C962 0.929 . S
H959 C968 0.929 . S
C960 H954 0.930 . S
C960 C961 1.367 . S
C960 C968 1.378 . S
C961 C960 1.367 . S
C961 C969 1.433 . S
C962 H958 0.929 . S
C962 C964 1.378 . S
C962 C966 1.350 . S
C963 C966 1.463 . S
C963 C968 1.350 . S
C963 N971 1.427 . S
C964 H955 0.930 . S
C964 C962 1.378 . S
C964 C965 1.367 . S
C965 C964 1.367 . S
C965 C967 1.433 . S
C966 C962 1.350 . S
C966 C963 1.463 . S
C966 N970 1.427 . S
C967 H957 0.929 . S
C967 C965 1.433 . S
C967 N970 1.384 . S
C968 H959 0.929 . S
C968 C960 1.378 . S
C968 C963 1.350 . S
C969 H956 0.929 . S
C969 C961 1.433 . S
C969 N971 1.384 . S
N970 C966 1.427 . S
N970 C967 1.384 . S
N971 C963 1.427 . S
N971 C969 1.384 . S
H972 C978 0.930 . S
H973 C982 0.930 . S
H974 C987 0.929 . S
H975 C985 0.929 . S
H976 C980 0.929 . S
H977 C986 0.929 . S
C978 H972 0.930 . S
C978 C979 1.367 . S
C978 C986 1.378 1_565 S
C979 C978 1.367 . S
C979 C987 1.433 . S
C980 H976 0.929 . S
C980 C982 1.378 . S
C980 C984 1.350 . S
C981 C984 1.463 . S
C981 C986 1.350 . S
C981 N989 1.427 . S
C982 H973 0.930 . S
C982 C980 1.378 . S
C982 C983 1.367 . S
C983 C982 1.367 . S
C983 C985 1.433 . S
C984 C980 1.350 . S
C984 C981 1.463 . S
C984 N988 1.427 . S
C985 H975 0.929 . S
C985 C983 1.433 . S
C985 N988 1.384 . S
C986 H977 0.929 . S
C986 C978 1.378 1_545 S
C986 C981 1.350 . S
C987 H974 0.929 . S
C987 C979 1.433 . S
C987 N989 1.384 1_565 S
N988 C984 1.427 . S
N988 C985 1.384 . S
N989 C981 1.427 . S
N989 C987 1.384 1_545 S
H990 C996 0.930 . S
H991 C1000 0.930 . S
H992 C1005 0.929 . S
H993 C1003 0.929 . S
H994 C998 0.929 . S
H995 C1004 0.929 . S
C996 H990 0.930 . S
C996 C997 1.367 . S
C996 C1004 1.378 . S
C997 C996 1.367 . S
C997 C1005 1.433 . S
C998 H994 0.929 . S
C998 C1000 1.378 . S
C998 C1002 1.350 . S
C999 C1002 1.463 . S
C999 C1004 1.350 . S
C999 N1007 1.427 . S
C1000 H991 0.930 . S
C1000 C998 1.378 . S
C1000 C1001 1.367 . S
C1001 C1000 1.367 . S
C1001 C1003 1.433 . S
C1002 C998 1.350 . S
C1002 C999 1.463 . S
C1002 N1006 1.427 . S
C1003 H993 0.929 . S
C1003 C1001 1.433 . S
C1003 N1006 1.384 . S
C1004 H995 0.929 . S
C1004 C996 1.378 . S
C1004 C999 1.350 . S
C1005 H992 0.929 . S
C1005 C997 1.433 . S
C1005 N1007 1.384 . S
N1006 C1002 1.427 . S
N1006 C1003 1.384 . S
N1007 C999 1.427 . S
N1007 C1005 1.384 . S
H1008 C1014 0.930 . S
H1009 C1018 0.930 . S
H1010 C1023 0.929 . S
H1011 C1021 0.929 . S
H1012 C1016 0.929 . S
H1013 C1022 0.929 . S
C1014 H1008 0.930 . S
C1014 C1015 1.367 . S
C1014 C1022 1.378 . S
C1015 C1014 1.367 . S
C1015 C1023 1.433 . S
C1016 H1012 0.929 . S
C1016 C1018 1.378 . S
C1016 C1020 1.350 . S
C1017 C1020 1.463 . S
C1017 C1022 1.350 . S
C1017 N1025 1.427 . S
C1018 H1009 0.930 . S
C1018 C1016 1.378 . S
C1018 C1019 1.367 . S
C1019 C1018 1.367 . S
C1019 C1021 1.433 . S
C1020 C1016 1.350 . S
C1020 C1017 1.463 . S
C1020 N1024 1.427 . S
C1021 H1011 0.929 . S
C1021 C1019 1.433 . S
C1021 N1024 1.384 . S
C1022 H1013 0.929 . S
C1022 C1014 1.378 . S
C1022 C1017 1.350 . S
C1023 H1010 0.929 . S
C1023 C1015 1.433 . S
C1023 N1025 1.384 . S
N1024 C1020 1.427 . S
N1024 C1021 1.384 . S
N1025 C1017 1.427 . S
N1025 C1023 1.384 . S
H1026 C1032 0.930 . S
H1027 C1036 0.930 . S
H1028 C1041 0.929 . S
H1029 C1039 0.929 . S
H1030 C1034 0.929 . S
H1031 C1040 0.929 . S
C1032 H1026 0.930 . S
C1032 C1033 1.367 . S
C1032 C1040 1.378 . S
C1033 C1032 1.367 . S
C1033 C1041 1.433 . S
C1034 H1030 0.929 . S
C1034 C1036 1.378 . S
C1034 C1038 1.350 . S
C1035 C1038 1.463 . S
C1035 C1040 1.350 . S
C1035 N1043 1.427 . S
C1036 H1027 0.930 . S
C1036 C1034 1.378 . S
C1036 C1037 1.367 . S
C1037 C1036 1.367 . S
C1037 C1039 1.433 . S
C1038 C1034 1.350 . S
C1038 C1035 1.463 . S
C1038 N1042 1.427 . S
C1039 H1029 0.929 . S
C1039 C1037 1.433 . S
C1039 N1042 1.384 . S
C1040 H1031 0.929 . S
C1040 C1032 1.378 . S
C1040 C1035 1.350 . S
C1041 H1028 0.929 . S
C1041 C1033 1.433 . S
C1041 N1043 1.384 . S
N1042 C1038 1.427 . S
N1042 C1039 1.384 . S
N1043 C1035 1.427 . S
N1043 C1041 1.384 . S
H1044 C1050 0.930 . S
H1045 C1054 0.930 . S
H1046 C1059 0.929 . S
H1047 C1057 0.929 . S
H1048 C1052 0.929 . S
H1049 C1058 0.929 . S
C1050 H1044 0.930 . S
C1050 C1051 1.367 . S
C1050 C1058 1.378 . S
C1051 C1050 1.367 . S
C1051 C1059 1.433 . S
C1052 H1048 0.929 . S
C1052 C1054 1.378 . S
C1052 C1056 1.350 . S
C1053 C1056 1.463 . S
C1053 C1058 1.350 . S
C1053 N1061 1.427 . S
C1054 H1045 0.930 . S
C1054 C1052 1.378 . S
C1054 C1055 1.367 . S
C1055 C1054 1.367 . S
C1055 C1057 1.433 . S
C1056 C1052 1.350 . S
C1056 C1053 1.463 . S
C1056 N1060 1.427 . S
C1057 H1047 0.929 . S
C1057 C1055 1.433 . S
C1057 N1060 1.384 . S
C1058 H1049 0.929 . S
C1058 C1050 1.378 . S
C1058 C1053 1.350 . S
C1059 H1046 0.929 . S
C1059 C1051 1.433 . S
C1059 N1061 1.384 . S
N1060 C1056 1.427 . S
N1060 C1057 1.384 . S
N1061 C1053 1.427 . S
N1061 C1059 1.384 . S
H1062 C1068 0.930 . S
H1063 C1072 0.930 . S
H1064 C1077 0.929 . S
H1065 C1075 0.929 1_655 S
H1066 C1070 0.929 . S
H1067 C1076 0.929 . S
C1068 H1062 0.930 . S
C1068 C1069 1.367 . S
C1068 C1076 1.378 . S
C1069 C1068 1.367 . S
C1069 C1077 1.433 . S
C1070 H1066 0.929 . S
C1070 C1072 1.378 . S
C1070 C1074 1.350 . S
C1071 C1074 1.463 . S
C1071 C1076 1.350 . S
C1071 N1079 1.427 . S
C1072 H1063 0.930 . S
C1072 C1070 1.378 . S
C1072 C1073 1.367 . S
C1073 C1072 1.367 . S
C1073 C1075 1.433 . S
C1074 C1070 1.350 . S
C1074 C1071 1.463 . S
C1074 N1078 1.427 . S
C1075 H1065 0.929 1_455 S
C1075 C1073 1.433 . S
C1075 N1078 1.384 . S
C1076 H1067 0.929 . S
C1076 C1068 1.378 . S
C1076 C1071 1.350 . S
C1077 H1064 0.929 . S
C1077 C1069 1.433 . S
C1077 N1079 1.384 . S
N1078 C1074 1.427 . S
N1078 C1075 1.384 . S
N1079 C1071 1.427 . S
N1079 C1077 1.384 . S
H1080 C1086 0.930 . S
H1081 C1090 0.930 . S
H1082 C1095 0.929 . S
H1083 C1093 0.929 . S
H1084 C1088 0.929 . S
H1085 C1094 0.929 . S
C1086 H1080 0.930 . S
C1086 C1087 1.367 . S
C1086 C1094 1.378 . S
C1087 C1086 1.367 . S
C1087 C1095 1.433 . S
C1088 H1084 0.929 . S
C1088 C1090 1.378 . S
C1088 C1092 1.350 . S
C1089 C1092 1.463 . S
C1089 C1094 1.350 . S
C1089 N1097 1.427 . S
C1090 H1081 0.930 . S
C1090 C1088 1.378 . S
C1090 C1091 1.367 . S
C1091 C1090 1.367 . S
C1091 C1093 1.433 . S
C1092 C1088 1.350 . S
C1092 C1089 1.463 . S
C1092 N1096 1.427 . S
C1093 H1083 0.929 . S
C1093 C1091 1.433 . S
C1093 N1096 1.384 . S
C1094 H1085 0.929 . S
C1094 C1086 1.378 . S
C1094 C1089 1.350 . S
C1095 H1082 0.929 . S
C1095 C1087 1.433 . S
C1095 N1097 1.384 . S
N1096 C1092 1.427 . S
N1096 C1093 1.384 . S
N1097 C1089 1.427 . S
N1097 C1095 1.384 . S
H1098 C1104 0.930 . S
H1099 C1108 0.930 1_455 S
H1100 C1113 0.929 . S
H1101 C1111 0.929 . S
H1102 C1106 0.929 . S
H1103 C1112 0.929 . S
C1104 H1098 0.930 . S
C1104 C1105 1.367 . S
C1104 C1112 1.378 . S
C1105 C1104 1.367 . S
C1105 C1113 1.433 . S
C1106 H1102 0.929 . S
C1106 C1108 1.378 . S
C1106 C1110 1.350 . S
C1107 C1110 1.463 . S
C1107 C1112 1.350 . S
C1107 N1115 1.427 . S
C1108 H1099 0.930 1_655 S
C1108 C1106 1.378 . S
C1108 C1109 1.367 . S
C1109 C1108 1.367 . S
C1109 C1111 1.433 . S
C1110 C1106 1.350 . S
C1110 C1107 1.463 . S
C1110 N1114 1.427 . S
C1111 H1101 0.929 . S
C1111 C1109 1.433 . S
C1111 N1114 1.384 . S
C1112 H1103 0.929 . S
C1112 C1104 1.378 . S
C1112 C1107 1.350 . S
C1113 H1100 0.929 . S
C1113 C1105 1.433 . S
C1113 N1115 1.384 . S
N1114 C1110 1.427 . S
N1114 C1111 1.384 . S
N1115 C1107 1.427 . S
N1115 C1113 1.384 . S
H1116 C1122 0.930 . S
H1117 C1126 0.930 . S
H1118 C1131 0.929 . S
H1119 C1129 0.929 . S
H1120 C1124 0.929 . S
H1121 C1130 0.929 . S
C1122 H1116 0.930 . S
C1122 C1123 1.367 . S
C1122 C1130 1.378 . S
C1123 C1122 1.367 . S
C1123 C1131 1.433 . S
C1124 H1120 0.929 . S
C1124 C1126 1.378 . S
C1124 C1128 1.350 . S
C1125 C1128 1.463 . S
C1125 C1130 1.350 . S
C1125 N1133 1.427 . S
C1126 H1117 0.930 . S
C1126 C1124 1.378 . S
C1126 C1127 1.367 . S
C1127 C1126 1.367 . S
C1127 C1129 1.433 . S
C1128 C1124 1.350 . S
C1128 C1125 1.463 . S
C1128 N1132 1.427 . S
C1129 H1119 0.929 . S
C1129 C1127 1.433 . S
C1129 N1132 1.384 . S
C1130 H1121 0.929 . S
C1130 C1122 1.378 . S
C1130 C1125 1.350 . S
C1131 H1118 0.929 . S
C1131 C1123 1.433 . S
C1131 N1133 1.384 . S
N1132 C1128 1.427 . S
N1132 C1129 1.384 . S
N1133 C1125 1.427 . S
N1133 C1131 1.384 . S
H1134 C1140 0.930 . S
H1135 C1144 0.930 1_565 S
H1136 C1149 0.929 . S
H1137 C1147 0.929 . S
H1138 C1142 0.929 . S
H1139 C1148 0.929 . S
C1140 H1134 0.930 . S
C1140 C1141 1.367 . S
C1140 C1148 1.378 . S
C1141 C1140 1.367 . S
C1141 C1149 1.433 . S
C1142 H1138 0.929 . S
C1142 C1144 1.378 . S
C1142 C1146 1.350 . S
C1143 C1146 1.463 . S
C1143 C1148 1.350 . S
C1143 N1151 1.427 . S
C1144 H1135 0.930 1_545 S
C1144 C1142 1.378 . S
C1144 C1145 1.367 . S
C1145 C1144 1.367 . S
C1145 C1147 1.433 . S
C1146 C1142 1.350 . S
C1146 C1143 1.463 . S
C1146 N1150 1.427 . S
C1147 H1137 0.929 . S
C1147 C1145 1.433 . S
C1147 N1150 1.384 . S
C1148 H1139 0.929 . S
C1148 C1140 1.378 . S
C1148 C1143 1.350 . S
C1149 H1136 0.929 . S
C1149 C1141 1.433 . S
C1149 N1151 1.384 . S
N1150 C1146 1.427 . S
N1150 C1147 1.384 . S
N1151 C1143 1.427 . S
N1151 C1149 1.384 . S
H1152 C1158 0.930 . S
H1153 C1162 0.930 . S
H1154 C1167 0.929 . S
H1155 C1165 0.929 . S
H1156 C1160 0.929 . S
H1157 C1166 0.929 . S
C1158 H1152 0.930 . S
C1158 C1159 1.367 . S
C1158 C1166 1.378 . S
C1159 C1158 1.367 . S
C1159 C1167 1.433 . S
C1160 H1156 0.929 . S
C1160 C1162 1.378 . S
C1160 C1164 1.350 . S
C1161 C1164 1.463 . S
C1161 C1166 1.350 . S
C1161 N1169 1.427 . S
C1162 H1153 0.930 . S
C1162 C1160 1.378 . S
C1162 C1163 1.367 . S
C1163 C1162 1.367 . S
C1163 C1165 1.433 . S
C1164 C1160 1.350 . S
C1164 C1161 1.463 . S
C1164 N1168 1.427 . S
C1165 H1155 0.929 . S
C1165 C1163 1.433 . S
C1165 N1168 1.384 . S
C1166 H1157 0.929 . S
C1166 C1158 1.378 . S
C1166 C1161 1.350 . S
C1167 H1154 0.929 . S
C1167 C1159 1.433 . S
C1167 N1169 1.384 . S
N1168 C1164 1.427 . S
N1168 C1165 1.384 . S
N1169 C1161 1.427 . S
N1169 C1167 1.384 . S
H1170 C1176 0.930 . S
H1171 C1180 0.930 . S
H1172 C1185 0.929 . S
H1173 C1183 0.929 . S
H1174 C1178 0.929 . S
H1175 C1184 0.929 . S
C1176 H1170 0.930 . S
C1176 C1177 1.367 . S
C1176 C1184 1.378 . S
C1177 C1176 1.367 . S
C1177 C1185 1.433 . S
C1178 H1174 0.929 . S
C1178 C1180 1.378 . S
C1178 C1182 1.350 . S
C1179 C1182 1.463 . S
C1179 C1184 1.350 . S
C1179 N1187 1.427 . S
C1180 H1171 0.930 . S
C1180 C1178 1.378 . S
C1180 C1181 1.367 . S
C1181 C1180 1.367 . S
C1181 C1183 1.433 . S
C1182 C1178 1.350 . S
C1182 C1179 1.463 . S
C1182 N1186 1.427 . S
C1183 H1173 0.929 . S
C1183 C1181 1.433 . S
C1183 N1186 1.384 . S
C1184 H1175 0.929 . S
C1184 C1176 1.378 . S
C1184 C1179 1.350 . S
C1185 H1172 0.929 . S
C1185 C1177 1.433 . S
C1185 N1187 1.384 . S
N1186 C1182 1.427 . S
N1186 C1183 1.384 . S
N1187 C1179 1.427 . S
N1187 C1185 1.384 . S
H1188 C1194 0.930 . S
H1189 C1198 0.930 . S
H1190 C1203 0.929 . S
H1191 C1201 0.929 . S
H1192 C1196 0.929 . S
H1193 C1202 0.929 . S
C1194 H1188 0.930 . S
C1194 C1195 1.367 . S
C1194 C1202 1.378 . S
C1195 C1194 1.367 . S
C1195 C1203 1.433 . S
C1196 H1192 0.929 . S
C1196 C1198 1.378 . S
C1196 C1200 1.350 . S
C1197 C1200 1.463 . S
C1197 C1202 1.350 . S
C1197 N1205 1.427 . S
C1198 H1189 0.930 . S
C1198 C1196 1.378 . S
C1198 C1199 1.367 . S
C1199 C1198 1.367 . S
C1199 C1201 1.433 . S
C1200 C1196 1.350 . S
C1200 C1197 1.463 . S
C1200 N1204 1.427 . S
C1201 H1191 0.929 . S
C1201 C1199 1.433 . S
C1201 N1204 1.384 . S
C1202 H1193 0.929 . S
C1202 C1194 1.378 . S
C1202 C1197 1.350 . S
C1203 H1190 0.929 . S
C1203 C1195 1.433 . S
C1203 N1205 1.384 . S
N1204 C1200 1.427 . S
N1204 C1201 1.384 . S
N1205 C1197 1.427 . S
N1205 C1203 1.384 . S
H1206 C1212 0.930 . S
H1207 C1216 0.930 . S
H1208 C1221 0.929 . S
H1209 C1219 0.929 . S
H1210 C1214 0.929 . S
H1211 C1220 0.929 . S
C1212 H1206 0.930 . S
C1212 C1213 1.367 . S
C1212 C1220 1.378 . S
C1213 C1212 1.367 . S
C1213 C1221 1.433 . S
C1214 H1210 0.929 . S
C1214 C1216 1.378 . S
C1214 C1218 1.350 . S
C1215 C1218 1.463 . S
C1215 C1220 1.350 . S
C1215 N1223 1.427 . S
C1216 H1207 0.930 . S
C1216 C1214 1.378 . S
C1216 C1217 1.367 . S
C1217 C1216 1.367 . S
C1217 C1219 1.433 . S
C1218 C1214 1.350 . S
C1218 C1215 1.463 . S
C1218 N1222 1.427 . S
C1219 H1209 0.929 . S
C1219 C1217 1.433 . S
C1219 N1222 1.384 . S
C1220 H1211 0.929 . S
C1220 C1212 1.378 . S
C1220 C1215 1.350 . S
C1221 H1208 0.929 . S
C1221 C1213 1.433 . S
C1221 N1223 1.384 . S
N1222 C1218 1.427 . S
N1222 C1219 1.384 . S
N1223 C1215 1.427 . S
N1223 C1221 1.384 . S
H1224 C1230 0.930 . S
H1225 C1234 0.930 . S
H1226 C1239 0.929 . S
H1227 C1237 0.929 . S
H1228 C1232 0.929 . S
H1229 C1238 0.929 . S
C1230 H1224 0.930 . S
C1230 C1231 1.367 . S
C1230 C1238 1.378 . S
C1231 C1230 1.367 . S
C1231 C1239 1.433 . S
C1232 H1228 0.929 . S
C1232 C1234 1.378 . S
C1232 C1236 1.350 . S
C1233 C1236 1.463 . S
C1233 C1238 1.350 . S
C1233 N1241 1.427 . S
C1234 H1225 0.930 . S
C1234 C1232 1.378 . S
C1234 C1235 1.367 . S
C1235 C1234 1.367 . S
C1235 C1237 1.433 . S
C1236 C1232 1.350 . S
C1236 C1233 1.463 . S
C1236 N1240 1.427 . S
C1237 H1227 0.929 . S
C1237 C1235 1.433 . S
C1237 N1240 1.384 . S
C1238 H1229 0.929 . S
C1238 C1230 1.378 . S
C1238 C1233 1.350 . S
C1239 H1226 0.929 . S
C1239 C1231 1.433 . S
C1239 N1241 1.384 . S
N1240 C1236 1.427 . S
N1240 C1237 1.384 . S
N1241 C1233 1.427 . S
N1241 C1239 1.384 . S
H1242 C1248 0.930 . S
H1243 C1252 0.930 . S
H1244 C1257 0.929 . S
H1245 C1255 0.929 . S
H1246 C1250 0.929 . S
H1247 C1256 0.929 . S
C1248 H1242 0.930 . S
C1248 C1249 1.367 . S
C1248 C1256 1.378 . S
C1249 C1248 1.367 . S
C1249 C1257 1.433 . S
C1250 H1246 0.929 . S
C1250 C1252 1.378 . S
C1250 C1254 1.350 . S
C1251 C1254 1.463 . S
C1251 C1256 1.350 . S
C1251 N1259 1.427 . S
C1252 H1243 0.930 . S
C1252 C1250 1.378 . S
C1252 C1253 1.367 . S
C1253 C1252 1.367 . S
C1253 C1255 1.433 . S
C1254 C1250 1.350 . S
C1254 C1251 1.463 . S
C1254 N1258 1.427 . S
C1255 H1245 0.929 . S
C1255 C1253 1.433 . S
C1255 N1258 1.384 . S
C1256 H1247 0.929 . S
C1256 C1248 1.378 . S
C1256 C1251 1.350 . S
C1257 H1244 0.929 . S
C1257 C1249 1.433 . S
C1257 N1259 1.384 . S
N1258 C1254 1.427 . S
N1258 C1255 1.384 . S
N1259 C1251 1.427 . S
N1259 C1257 1.384 . S
H1260 C1266 0.930 . S
H1261 C1270 0.930 . S
H1262 C1275 0.929 . S
H1263 C1273 0.929 . S
H1264 C1268 0.929 . S
H1265 C1274 0.929 . S
C1266 H1260 0.930 . S
C1266 C1267 1.367 . S
C1266 C1274 1.378 . S
C1267 C1266 1.367 . S
C1267 C1275 1.433 . S
C1268 H1264 0.929 . S
C1268 C1270 1.378 . S
C1268 C1272 1.350 . S
C1269 C1272 1.463 . S
C1269 C1274 1.350 . S
C1269 N1277 1.427 . S
C1270 H1261 0.930 . S
C1270 C1268 1.378 . S
C1270 C1271 1.367 . S
C1271 C1270 1.367 . S
C1271 C1273 1.433 . S
C1272 C1268 1.350 . S
C1272 C1269 1.463 . S
C1272 N1276 1.427 . S
C1273 H1263 0.929 . S
C1273 C1271 1.433 . S
C1273 N1276 1.384 . S
C1274 H1265 0.929 . S
C1274 C1266 1.378 . S
C1274 C1269 1.350 . S
C1275 H1262 0.929 . S
C1275 C1267 1.433 . S
C1275 N1277 1.384 . S
N1276 C1272 1.427 . S
N1276 C1273 1.384 . S
N1277 C1269 1.427 . S
N1277 C1275 1.384 . S
H1278 C1284 0.930 . S
H1279 C1288 0.930 . S
H1280 C1293 0.929 . S
H1281 C1291 0.929 . S
H1282 C1286 0.929 . S
H1283 C1292 0.929 . S
C1284 H1278 0.930 . S
C1284 C1285 1.367 . S
C1284 C1292 1.378 . S
C1285 C1284 1.367 . S
C1285 C1293 1.433 . S
C1286 H1282 0.929 . S
C1286 C1288 1.378 . S
C1286 C1290 1.350 . S
C1287 C1290 1.463 . S
C1287 C1292 1.350 . S
C1287 N1295 1.427 . S
C1288 H1279 0.930 . S
C1288 C1286 1.378 . S
C1288 C1289 1.367 . S
C1289 C1288 1.367 . S
C1289 C1291 1.433 . S
C1290 C1286 1.350 . S
C1290 C1287 1.463 . S
C1290 N1294 1.427 . S
C1291 H1281 0.929 . S
C1291 C1289 1.433 . S
C1291 N1294 1.384 . S
C1292 H1283 0.929 . S
C1292 C1284 1.378 . S
C1292 C1287 1.350 . S
C1293 H1280 0.929 . S
C1293 C1285 1.433 . S
C1293 N1295 1.384 . S
N1294 C1290 1.427 . S
N1294 C1291 1.384 . S
N1295 C1287 1.427 . S
N1295 C1293 1.384 . S
H1296 C1302 0.930 . S
H1297 C1306 0.930 . S
H1298 C1311 0.929 . S
H1299 C1309 0.929 . S
H1300 C1304 0.929 . S
H1301 C1310 0.929 . S
C1302 H1296 0.930 . S
C1302 C1303 1.367 . S
C1302 C1310 1.378 . S
C1303 C1302 1.367 . S
C1303 C1311 1.433 . S
C1304 H1300 0.929 . S
C1304 C1306 1.378 . S
C1304 C1308 1.350 . S
C1305 C1308 1.463 . S
C1305 C1310 1.350 . S
C1305 N1313 1.427 . S
C1306 H1297 0.930 . S
C1306 C1304 1.378 . S
C1306 C1307 1.367 . S
C1307 C1306 1.367 . S
C1307 C1309 1.433 . S
C1308 C1304 1.350 . S
C1308 C1305 1.463 . S
C1308 N1312 1.427 . S
C1309 H1299 0.929 . S
C1309 C1307 1.433 . S
C1309 N1312 1.384 . S
C1310 H1301 0.929 . S
C1310 C1302 1.378 . S
C1310 C1305 1.350 . S
C1311 H1298 0.929 . S
C1311 C1303 1.433 . S
C1311 N1313 1.384 . S
N1312 C1308 1.427 . S
N1312 C1309 1.384 . S
N1313 C1305 1.427 . S
N1313 C1311 1.384 . S
H1314 C1320 0.930 . S
H1315 C1324 0.930 . S
H1316 C1329 0.929 . S
H1317 C1327 0.929 . S
H1318 C1322 0.929 . S
H1319 C1328 0.929 . S
C1320 H1314 0.930 . S
C1320 C1321 1.367 . S
C1320 C1328 1.378 . S
C1321 C1320 1.367 . S
C1321 C1329 1.433 . S
C1322 H1318 0.929 . S
C1322 C1324 1.378 . S
C1322 C1326 1.350 . S
C1323 C1326 1.463 . S
C1323 C1328 1.350 . S
C1323 N1331 1.427 . S
C1324 H1315 0.930 . S
C1324 C1322 1.378 . S
C1324 C1325 1.367 . S
C1325 C1324 1.367 . S
C1325 C1327 1.433 . S
C1326 C1322 1.350 . S
C1326 C1323 1.463 . S
C1326 N1330 1.427 . S
C1327 H1317 0.929 . S
C1327 C1325 1.433 . S
C1327 N1330 1.384 . S
C1328 H1319 0.929 . S
C1328 C1320 1.378 . S
C1328 C1323 1.350 . S
C1329 H1316 0.929 . S
C1329 C1321 1.433 . S
C1329 N1331 1.384 . S
N1330 C1326 1.427 . S
N1330 C1327 1.384 . S
N1331 C1323 1.427 . S
N1331 C1329 1.384 . S
H1332 C1338 0.930 . S
H1333 C1342 0.930 . S
H1334 C1347 0.929 . S
H1335 C1345 0.929 . S
H1336 C1340 0.929 . S
H1337 C1346 0.929 . S
C1338 H1332 0.930 . S
C1338 C1339 1.367 . S
C1338 C1346 1.378 . S
C1339 C1338 1.367 . S
C1339 C1347 1.433 . S
C1340 H1336 0.929 . S
C1340 C1342 1.378 . S
C1340 C1344 1.350 . S
C1341 C1344 1.463 . S
C1341 C1346 1.350 . S
C1341 N1349 1.427 . S
C1342 H1333 0.930 . S
C1342 C1340 1.378 . S
C1342 C1343 1.367 . S
C1343 C1342 1.367 . S
C1343 C1345 1.433 . S
C1344 C1340 1.350 . S
C1344 C1341 1.463 . S
C1344 N1348 1.427 . S
C1345 H1335 0.929 . S
C1345 C1343 1.433 . S
C1345 N1348 1.384 . S
C1346 H1337 0.929 . S
C1346 C1338 1.378 . S
C1346 C1341 1.350 . S
C1347 H1334 0.929 . S
C1347 C1339 1.433 . S
C1347 N1349 1.384 . S
N1348 C1344 1.427 . S
N1348 C1345 1.384 . S
N1349 C1341 1.427 . S
N1349 C1347 1.384 . S
H1350 C1356 0.930 . S
H1351 C1360 0.930 . S
H1352 C1365 0.929 . S
H1353 C1363 0.929 . S
H1354 C1358 0.929 . S
H1355 C1364 0.929 . S
C1356 H1350 0.930 . S
C1356 C1357 1.367 . S
C1356 C1364 1.378 . S
C1357 C1356 1.367 . S
C1357 C1365 1.433 . S
C1358 H1354 0.929 . S
C1358 C1360 1.378 . S
C1358 C1362 1.350 . S
C1359 C1362 1.463 . S
C1359 C1364 1.350 . S
C1359 N1367 1.427 . S
C1360 H1351 0.930 . S
C1360 C1358 1.378 . S
C1360 C1361 1.367 . S
C1361 C1360 1.367 . S
C1361 C1363 1.433 . S
C1362 C1358 1.350 . S
C1362 C1359 1.463 . S
C1362 N1366 1.427 . S
C1363 H1353 0.929 . S
C1363 C1361 1.433 . S
C1363 N1366 1.384 . S
C1364 H1355 0.929 . S
C1364 C1356 1.378 . S
C1364 C1359 1.350 . S
C1365 H1352 0.929 . S
C1365 C1357 1.433 . S
C1365 N1367 1.384 . S
N1366 C1362 1.427 . S
N1366 C1363 1.384 . S
N1367 C1359 1.427 . S
N1367 C1365 1.384 . S
C403 C162 1.561 . S
C407 C222 1.543 . S
C421 C174 1.517 . S
C425 C242 1.494 . S
C439 C150 1.511 . S
C443 C265 1.514 . S
C457 C138 1.429 . S
C461 C245 1.429 1_556 S
C479 C262 1.434 . S
C475 C114 1.450 . S
C493 C126 1.469 . S
C497 C225 1.471 1_556 S
C515 C232 1.547 . S
C511 C136 1.561 . S
C533 C252 1.439 . S
C529 C112 1.456 . S
C547 C124 1.537 . S
C551 C257 1.564 1_556 S
C565 C160 1.449 . S
C569 C237 1.464 . S
C583 C172 1.449 . S
C587 C272 1.432 . S
C605 C217 1.545 . S
C601 C148 1.535 . S
C623 C282 1.540 . S
C619 C18 1.560 . S
C637 C30 1.520 . S
C641 C302 1.496 . S
C655 C6 1.515 . S
C659 C325 1.517 . S
C673 C210 1.428 . S
C677 C305 1.428 . S
C691 C186 1.449 . S
C695 C322 1.428 . S
C709 C198 1.469 . S
C713 C285 1.471 . S
C727 C208 1.557 . S
C731 C292 1.540 . S
C745 C184 1.446 . S
C749 C312 1.429 . S
C767 C317 1.564 . S
C763 C196 1.536 . S
C781 C16 1.438 . S
C785 C297 1.460 . S
C803 C332 1.425 . S
C799 C28 1.446 . S
C817 C4 1.525 . S
C821 C277 1.542 . S
C839 C342 1.536 . S
C835 C90 1.559 . S
C853 C102 1.517 . S
C857 C362 1.489 . S
C875 C385 1.515 . S
C871 C78 1.509 . S
C893 C365 1.426 . S
C889 C66 1.424 . S
C911 C382 1.427 . S
C907 C42 1.449 . S
C925 C54 1.471 . S
C929 C345 1.471 . S
C943 C64 1.561 . S
C947 C352 1.543 . S
C961 C40 1.457 . S
C965 C372 1.441 . S
C983 C377 1.563 . S
C979 C52 1.542 . S
C997 C88 1.449 . S
C1001 C357 1.464 . S
C1015 C100 1.446 . S
C1019 C392 1.428 . S
C1033 C76 1.526 . S
C1037 C337 1.543 . S
C1051 C189 1.368 . S
C1055 C235 1.321 . S
C1073 C255 1.643 . S
C1069 C201 1.724 . S
C1087 C213 1.526 . S
C1091 C264 1.488 . S
C1105 C81 1.681 . S
C1109 C244 1.627 . S
C1123 C93 1.592 . S
C1127 C275 1.528 . S
C1145 C224 1.311 . S
C1141 C105 1.335 . S
C1159 C45 1.365 . S
C1163 C295 1.305 . S
C1177 C57 1.721 . S
C1181 C315 1.631 . S
C1195 C69 1.526 . S
C1199 C324 1.491 . S
C1213 C153 1.686 . S
C1217 C304 1.632 . S
C1235 C335 1.518 . S
C1231 C165 1.590 . S
C1249 C177 1.335 . S
C1253 C284 1.311 . S
C1267 C117 1.368 . S
C1271 C355 1.320 . S
C1285 C129 1.723 . S
C1289 C375 1.640 . S
C1307 C384 1.484 . S
C1303 C141 1.519 . S
C1321 C9 1.685 . S
C1325 C364 1.640 . S
C1339 C21 1.589 . S
C1343 C395 1.515 . S
C1357 C33 1.336 . S
C1361 C344 1.310 . S
