# Generated by pormake.
# Topology hwx, (6,3)-cn, num edge types: 1
# Building blocks:
#     Node 0, Type 0, BuildingBlock: IZENUY_clean_sbu_0, # of connection points: 6
#     Node 1, Type 0, BuildingBlock: IZENUY_clean_sbu_0, # of connection points: 6
#     Node 2, Type 0, BuildingBlock: IZENUY_clean_sbu_0, # of connection points: 6
#     Node 3, Type 0, BuildingBlock: IZENUY_clean_sbu_0, # of connection points: 6
#     Node 4, Type 1, BuildingBlock: MIDCAF_clean_linker_0, # of connection points: 3
#     Node 5, Type 1, BuildingBlock: MIDCAF_clean_linker_0, # of connection points: 3
#     Node 6, Type 1, BuildingBlock: MIDCAF_clean_linker_0, # of connection points: 3
#     Node 7, Type 1, BuildingBlock: MIDCAF_clean_linker_0, # of connection points: 3
#     Node 8, Type 1, BuildingBlock: MIDCAF_clean_linker_0, # of connection points: 3
#     Node 9, Type 1, BuildingBlock: MIDCAF_clean_linker_0, # of connection points: 3
#     Node 10, Type 1, BuildingBlock: MIDCAF_clean_linker_0, # of connection points: 3
#     Node 11, Type 1, BuildingBlock: MIDCAF_clean_linker_0, # of connection points: 3
#     Edge 12, Type (0, 1), BuildingBlock: MIFKUJ_clean_linker_0, # of connection points: 2
#     Edge 13, Type (0, 1), BuildingBlock: MIFKUJ_clean_linker_0, # of connection points: 2
#     Edge 14, Type (0, 1), BuildingBlock: MIFKUJ_clean_linker_0, # of connection points: 2
#     Edge 15, Type (0, 1), BuildingBlock: MIFKUJ_clean_linker_0, # of connection points: 2
#     Edge 16, Type (0, 1), BuildingBlock: MIFKUJ_clean_linker_0, # of connection points: 2
#     Edge 17, Type (0, 1), BuildingBlock: MIFKUJ_clean_linker_0, # of connection points: 2
#     Edge 18, Type (0, 1), BuildingBlock: MIFKUJ_clean_linker_0, # of connection points: 2
#     Edge 19, Type (0, 1), BuildingBlock: MIFKUJ_clean_linker_0, # of connection points: 2
#     Edge 20, Type (0, 1), BuildingBlock: MIFKUJ_clean_linker_0, # of connection points: 2
#     Edge 21, Type (0, 1), BuildingBlock: MIFKUJ_clean_linker_0, # of connection points: 2
#     Edge 22, Type (0, 1), BuildingBlock: MIFKUJ_clean_linker_0, # of connection points: 2
#     Edge 23, Type (0, 1), BuildingBlock: MIFKUJ_clean_linker_0, # of connection points: 2
#     Edge 24, Type (0, 1), BuildingBlock: MIFKUJ_clean_linker_0, # of connection points: 2
#     Edge 25, Type (0, 1), BuildingBlock: MIFKUJ_clean_linker_0, # of connection points: 2
#     Edge 26, Type (0, 1), BuildingBlock: MIFKUJ_clean_linker_0, # of connection points: 2
#     Edge 27, Type (0, 1), BuildingBlock: MIFKUJ_clean_linker_0, # of connection points: 2
#     Edge 28, Type (0, 1), BuildingBlock: MIFKUJ_clean_linker_0, # of connection points: 2
#     Edge 29, Type (0, 1), BuildingBlock: MIFKUJ_clean_linker_0, # of connection points: 2
#     Edge 30, Type (0, 1), BuildingBlock: MIFKUJ_clean_linker_0, # of connection points: 2
#     Edge 31, Type (0, 1), BuildingBlock: MIFKUJ_clean_linker_0, # of connection points: 2
#     Edge 32, Type (0, 1), BuildingBlock: MIFKUJ_clean_linker_0, # of connection points: 2
#     Edge 33, Type (0, 1), BuildingBlock: MIFKUJ_clean_linker_0, # of connection points: 2
#     Edge 34, Type (0, 1), BuildingBlock: MIFKUJ_clean_linker_0, # of connection points: 2
#     Edge 35, Type (0, 1), BuildingBlock: MIFKUJ_clean_linker_0, # of connection points: 2
# Relax obj value: 0.053
# Max RMSD: 0.077
# Mean RMSD: 0.069
data_MOF--net-hwx--node1-IZENUY_clean_sbu_0--node2-MIDCAF_clean_linker_0--edge1-MIFKUJ_clean_linker_0
_symmetry_space_group_name_H-M    P1
_symmetry_Int_Tables_number       1
_symmetry_cell_setting            triclinic
loop_
_symmetry_equiv_pos_as_xyz
'x, y, z'
_cell_length_a     71.356555
_cell_length_b     71.410584
_cell_length_c     34.760722
_cell_angle_alpha  89.866638
_cell_angle_beta   90.132125
_cell_angle_gamma 90.012088
loop_
_atom_site_label
_atom_site_type_symbol
_atom_site_fract_x
_atom_site_fract_y
_atom_site_fract_z
_atom_type_partial_charge
Fe0 Fe 0.2369 0.2053 0.04786 0.0
Fe1 Fe 0.23784 0.20551 0.95958 0.0
O2 O 0.23233 0.19408 0.00341 0.0
Fe3 Fe 0.22217 0.1714 0.0029 0.0
O4 O 0.20143 0.17961 0.02789 0.0
O5 O 0.2169 0.19472 0.07286 0.0
O6 O 0.22165 0.22476 0.0357 0.0
C7 C 0.22334 0.2348 0.006 0.0
C8 C 0.24762 0.16967 0.0656 0.0
O9 O 0.23269 0.22912 0.97738 0.0
C10 C 0.24869 0.16786 0.94683 0.0
O11 O 0.25779 0.21788 0.03115 0.0
O12 O 0.26233 0.20751 0.97244 0.0
O13 O 0.23325 0.16373 0.048 0.0
O14 O 0.25245 0.18661 0.06304 0.0
C15 C 0.20432 0.18955 0.94021 0.0
O16 O 0.24418 0.1839 0.93418 0.0
O17 O 0.24217 0.16168 0.97805 0.0
C18 C 0.26841 0.21514 0.00261 0.0
O19 O 0.21368 0.20443 0.94343 0.0
O20 O 0.20932 0.17479 0.95762 0.0
C21 C 0.20192 0.18733 0.06049 0.0
Fe22 Fe 0.26529 0.70683 0.55022 0.0
Fe23 Fe 0.28277 0.67385 0.50662 0.0
O24 O 0.27137 0.69588 0.50635 0.0
Fe25 Fe 0.26603 0.70703 0.46209 0.0
O26 O 0.28044 0.72708 0.47429 0.0
O27 O 0.26871 0.7308 0.53215 0.0
O28 O 0.28948 0.70741 0.56597 0.0
C29 C 0.30004 0.69329 0.56817 0.0
C30 C 0.23412 0.71459 0.50771 0.0
O31 O 0.29593 0.67819 0.55109 0.0
C32 C 0.25698 0.67094 0.44451 0.0
O33 O 0.26076 0.68491 0.57617 0.0
O34 O 0.26362 0.66293 0.53242 0.0
O35 O 0.24466 0.71855 0.47959 0.0
O36 O 0.24068 0.7069 0.53747 0.0
C37 C 0.3017 0.69084 0.44827 0.0
O38 O 0.27164 0.66562 0.46207 0.0
O39 O 0.25134 0.68764 0.44706 0.0
C40 C 0.25721 0.66857 0.5641 0.0
O41 O 0.30276 0.68317 0.48087 0.0
O42 O 0.28632 0.69754 0.43631 0.0
C43 C 0.27811 0.73696 0.50392 0.0
Fe44 Fe 0.76372 0.80287 0.9579 0.0
Fe45 Fe 0.76627 0.80127 0.04583 0.0
O46 O 0.77 0.81346 0.00209 0.0
Fe47 Fe 0.77992 0.83623 0.00244 0.0
O48 O 0.75947 0.84619 0.97907 0.0
O49 O 0.75754 0.8249 0.93377 0.0
O50 O 0.73938 0.80112 0.9722 0.0
C51 C 0.73381 0.79277 0.00207 0.0
C52 C 0.797 0.81895 0.93804 0.0
O53 O 0.74507 0.7891 0.02928 0.0
C54 C 0.80137 0.81909 0.05728 0.0
O55 O 0.76869 0.77883 0.97379 0.0
O56 O 0.78129 0.7821 0.03102 0.0
O57 O 0.79219 0.83348 0.9564 0.0
O58 O 0.78769 0.804 0.94082 0.0
C59 C 0.75555 0.83659 0.06673 0.0
O60 O 0.78678 0.8112 0.07018 0.0
O61 O 0.80107 0.82799 0.02591 0.0
C62 C 0.77876 0.77257 0.00096 0.0
O63 O 0.75098 0.81959 0.06374 0.0
O64 O 0.76946 0.84306 0.04847 0.0
C65 C 0.75315 0.8408 0.94706 0.0
Fe66 Fe 0.72204 0.33583 0.49899 0.0
Fe67 Fe 0.73549 0.30101 0.54285 0.0
O68 O 0.73108 0.31271 0.49878 0.0
Fe69 Fe 0.73569 0.30127 0.45456 0.0
O70 O 0.75223 0.31924 0.44011 0.0
O71 O 0.73428 0.34316 0.4551 0.0
O72 O 0.74206 0.34452 0.52565 0.0
C73 C 0.74741 0.3382 0.55773 0.0
C74 C 0.70177 0.32081 0.43991 0.0
O75 O 0.74202 0.32226 0.56936 0.0
C76 C 0.72036 0.27241 0.4955 0.0
O77 O 0.70823 0.33274 0.54304 0.0
O78 O 0.71116 0.30289 0.55712 0.0
O79 O 0.71649 0.3127 0.42833 0.0
O80 O 0.70137 0.32877 0.47225 0.0
C81 C 0.76624 0.29038 0.50175 0.0
O82 O 0.72978 0.27759 0.52451 0.0
O83 O 0.71946 0.2825 0.46573 0.0
C84 C 0.7023 0.3181 0.55964 0.0
O85 O 0.7601 0.29837 0.53146 0.0
O86 O 0.75575 0.28778 0.47281 0.0
C87 C 0.74846 0.33648 0.43814 0.0
C88 C 0.18852 0.56222 0.10232 0.0
C89 C 0.19206 0.55324 0.13758 0.0
C90 C 0.19163 0.53357 0.1391 0.0
C91 C 0.18811 0.52311 0.10588 0.0
H92 H 0.18536 0.46924 0.06503 0.0
H93 H 0.18735 0.43526 0.06618 0.0
H94 H 0.17671 0.43373 0.94382 0.0
H95 H 0.17516 0.46775 0.94236 0.0
H96 H 0.17877 0.50551 0.8937 0.0
H97 H 0.18171 0.52224 0.83268 0.0
H98 H 0.18676 0.57451 0.89423 0.0
H99 H 0.18335 0.55804 0.95475 0.0
H100 H 0.18271 0.55926 0.0424 0.0
H101 H 0.18897 0.57735 0.10005 0.0
H102 H 0.19409 0.52625 0.16596 0.0
H103 H 0.18813 0.50797 0.10799 0.0
N104 N 0.18179 0.50213 0.03545 0.0
N105 N 0.17966 0.50131 0.96806 0.0
N106 N 0.18187 0.53006 2e-05 0.0
C107 C 0.18027 0.4921 0.00236 0.0
C108 C 0.18044 0.52031 0.96667 0.0
C109 C 0.18252 0.52114 0.03451 0.0
C110 C 0.18024 0.47132 0.00353 0.0
C111 C 0.18332 0.4617 0.03834 0.0
C112 C 0.18436 0.44216 0.03908 0.0
C113 C 0.18228 0.43174 0.00507 0.0
C114 C 0.1787 0.44133 0.97044 0.0
C115 C 0.17772 0.46087 0.96966 0.0
C116 C 0.1809 0.53038 0.92928 0.0
C117 C 0.1803 0.5206 0.8942 0.0
C118 C 0.18207 0.53017 0.8592 0.0
C119 C 0.18446 0.54972 0.85852 0.0
C120 C 0.18461 0.55949 0.89356 0.0
C121 C 0.1828 0.54998 0.92842 0.0
C122 C 0.18502 0.5321 0.07038 0.0
C123 C 0.18506 0.5518 0.06914 0.0
C124 C 0.92832 0.84072 0.60392 0.0
C125 C 0.93422 0.83144 0.63749 0.0
C126 C 0.9515 0.82204 0.63748 0.0
C127 C 0.96243 0.82148 0.60421 0.0
H128 H 0.01842 0.81616 0.56121 0.0
H129 H 0.04946 0.80175 0.56282 0.0
H130 H 0.04276 0.78443 0.4447 0.0
H131 H 0.01179 0.79885 0.4428 0.0
H132 H 0.97541 0.81036 0.39751 0.0
H133 H 0.95756 0.81193 0.33761 0.0
H134 H 0.91911 0.85097 0.38959 0.0
H135 H 0.93676 0.84928 0.44992 0.0
H136 H 0.93392 0.84683 0.54478 0.0
H137 H 0.91499 0.84797 0.60309 0.0
H138 H 0.95645 0.81491 0.66311 0.0
H139 H 0.97548 0.81374 0.60498 0.0
N140 N 0.98441 0.82063 0.53434 0.0
N141 N 0.98484 0.8201 0.46693 0.0
N142 N 0.95825 0.83102 0.49935 0.0
C143 C 0.9936 0.81691 0.50104 0.0
C144 C 0.96723 0.82727 0.46583 0.0
C145 C 0.96672 0.82768 0.53375 0.0
C146 C 0.01261 0.80864 0.50189 0.0
C147 C 0.02356 0.80931 0.53554 0.0
C148 C 0.04136 0.80116 0.53645 0.0
C149 C 0.04843 0.79196 0.50392 0.0
C150 C 0.03754 0.79131 0.47027 0.0
C151 C 0.01987 0.79968 0.46916 0.0
C152 C 0.95742 0.82961 0.42858 0.0
C153 C 0.96329 0.81947 0.39613 0.0
C154 C 0.95306 0.82029 0.36187 0.0
C155 C 0.93699 0.83153 0.35916 0.0
C156 C 0.93154 0.84229 0.39098 0.0
C157 C 0.94157 0.84122 0.42551 0.0
C158 C 0.95617 0.83009 0.57007 0.0
C159 C 0.93913 0.83997 0.57048 0.0
C160 C 0.8178 0.44618 0.89156 0.0
C161 C 0.81951 0.45522 0.85576 0.0
C162 C 0.82315 0.47459 0.85515 0.0
C163 C 0.82467 0.4847 0.88952 0.0
H164 H 0.82562 0.53877 0.93399 0.0
H165 H 0.82392 0.57282 0.93387 0.0
H166 H 0.81559 0.57241 0.05692 0.0
H167 H 0.81771 0.53844 0.05731 0.0
H168 H 0.80527 0.49744 0.09692 0.0
H169 H 0.80015 0.47873 0.15461 0.0
H170 H 0.83066 0.43284 0.10322 0.0
H171 H 0.83477 0.45121 0.04491 0.0
H172 H 0.81772 0.4487 0.95263 0.0
H173 H 0.81459 0.43138 0.8933 0.0
H174 H 0.82476 0.48198 0.82813 0.0
H175 H 0.82724 0.49963 0.88802 0.0
N176 N 0.82303 0.50532 0.962 0.0
N177 N 0.82146 0.50533 0.0295 0.0
N178 N 0.82256 0.47694 0.99595 0.0
C179 C 0.82227 0.51496 0.99571 0.0
C180 C 0.82175 0.48631 0.02979 0.0
C181 C 0.82313 0.48627 0.96191 0.0
C182 C 0.82174 0.53577 0.99564 0.0
C183 C 0.8235 0.54591 0.96109 0.0
C184 C 0.82244 0.56547 0.96097 0.0
C185 C 0.81957 0.57538 0.99536 0.0
C186 C 0.81807 0.56526 0.02997 0.0
C187 C 0.81917 0.54572 0.03012 0.0
C188 C 0.82027 0.47573 0.06628 0.0
C189 C 0.81099 0.48339 0.09815 0.0
C190 C 0.80815 0.47265 0.13135 0.0
C191 C 0.81484 0.45412 0.1337 0.0
C192 C 0.82483 0.44683 0.10225 0.0
C193 C 0.82733 0.45742 0.06884 0.0
C194 C 0.82268 0.47564 0.92526 0.0
C195 C 0.81946 0.45621 0.92577 0.0
C196 C 0.0744 0.16618 0.39828 0.0
C197 C 0.06766 0.17274 0.3627 0.0
C198 C 0.04974 0.18088 0.36104 0.0
C199 C 0.03911 0.18308 0.39453 0.0
H200 H 0.98746 0.20093 0.43572 0.0
H201 H 0.95603 0.21432 0.43495 0.0
H202 H 0.95541 0.21417 0.55921 0.0
H203 H 0.98685 0.20119 0.56018 0.0
H204 H 0.02577 0.19775 0.60405 0.0
H205 H 0.04344 0.19657 0.66421 0.0
H206 H 0.08604 0.1632 0.60909 0.0
H207 H 0.06847 0.16428 0.54898 0.0
H208 H 0.06969 0.1635 0.45864 0.0
H209 H 0.08798 0.15948 0.40042 0.0
H210 H 0.0442 0.18618 0.3341 0.0
H211 H 0.02559 0.1899 0.3924 0.0
N212 N 0.01813 0.18795 0.46562 0.0
N213 N 0.01802 0.1898 0.533 0.0
N214 N 0.04455 0.1786 0.50099 0.0
C215 C 0.00906 0.19226 0.49883 0.0
C216 C 0.03574 0.18296 0.53435 0.0
C217 C 0.03589 0.18105 0.4665 0.0
C218 C 0.98977 0.20001 0.498 0.0
C219 C 0.98064 0.20374 0.4629 0.0
C220 C 0.96258 0.21134 0.46243 0.0
C221 C 0.95325 0.21538 0.49702 0.0
C222 C 0.96233 0.21152 0.53206 0.0
C223 C 0.98035 0.20395 0.53256 0.0
C224 C 0.04574 0.18118 0.57157 0.0
C225 C 0.03881 0.19 0.60479 0.0
C226 C 0.04896 0.18942 0.63922 0.0
C227 C 0.06611 0.17983 0.64128 0.0
C228 C 0.07277 0.17056 0.60844 0.0
C229 C 0.06274 0.17129 0.57392 0.0
C230 C 0.04622 0.17722 0.43038 0.0
C231 C 0.06384 0.16842 0.43168 0.0
C232 C 0.67822 0.94607 0.39726 0.0
C233 C 0.68088 0.95501 0.36165 0.0
C234 C 0.68058 0.97469 0.36018 0.0
C235 C 0.67837 0.9852 0.39381 0.0
H236 H 0.66446 0.03908 0.44028 0.0
H237 H 0.66458 0.07319 0.43876 0.0
H238 H 0.68801 0.07408 0.55357 0.0
H239 H 0.68714 0.04014 0.55565 0.0
H240 H 0.68151 0.00226 0.60684 0.0
H241 H 0.68896 0.98554 0.66635 0.0
H242 H 0.69294 0.93377 0.60304 0.0
H243 H 0.68568 0.95029 0.54372 0.0
H244 H 0.6746 0.9491 0.45784 0.0
H245 H 0.67858 0.93094 0.39951 0.0
H246 H 0.68239 0.98198 0.33308 0.0
H247 H 0.6787 1.00033 0.39177 0.0
N248 N 0.67521 0.00614 0.4655 0.0
N249 N 0.67856 0.00679 0.53273 0.0
N250 N 0.67859 0.97815 0.50013 0.0
C251 C 0.67624 0.01606 0.49882 0.0
C252 C 0.67968 0.9878 0.53363 0.0
C253 C 0.67634 0.98713 0.46597 0.0
C254 C 0.67578 0.03683 0.49809 0.0
C255 C 0.66953 0.04657 0.46528 0.0
C256 C 0.6697 0.06616 0.46434 0.0
C257 C 0.67632 0.0765 0.49602 0.0
C258 C 0.68245 0.06669 0.52889 0.0
C259 C 0.68207 0.04715 0.53 0.0
C260 C 0.6831 0.97768 0.57032 0.0
C261 C 0.68389 0.9873 0.60559 0.0
C262 C 0.68807 0.97773 0.63974 0.0
C263 C 0.6917 0.95839 0.63927 0.0
C264 C 0.69052 0.94873 0.60421 0.0
C265 C 0.68624 0.95823 0.5702 0.0
C266 C 0.67654 0.97623 0.42967 0.0
C267 C 0.67609 0.95653 0.43083 0.0
C268 C 0.57125 0.34121 0.88996 0.0
C269 C 0.56501 0.33075 0.85826 0.0
C270 C 0.54828 0.3205 0.86131 0.0
C271 C 0.53813 0.32048 0.89565 0.0
H272 H 0.48959 0.30174 0.94462 0.0
H273 H 0.45833 0.28848 0.94672 0.0
H274 H 0.45109 0.30985 0.06201 0.0
H275 H 0.4828 0.32254 0.06045 0.0
H276 H 0.5239 0.32632 0.10747 0.0
H277 H 0.54301 0.32921 0.16553 0.0
H278 H 0.58902 0.35016 0.09739 0.0
H279 H 0.57019 0.34713 0.03948 0.0
H280 H 0.56664 0.34895 0.94856 0.0
H281 H 0.5842 0.34911 0.88848 0.0
H282 H 0.54312 0.31241 0.83718 0.0
H283 H 0.52542 0.31222 0.89724 0.0
N284 N 0.51694 0.32267 0.96677 0.0
N285 N 0.5171 0.32577 0.03398 0.0
N286 N 0.5436 0.3342 0.9981 0.0
C287 C 0.50798 0.32094 0.00105 0.0
C288 C 0.53496 0.3324 0.03271 0.0
C289 C 0.5347 0.3294 0.96504 0.0
C290 C 0.48873 0.31323 0.00238 0.0
C291 C 0.48135 0.30368 0.97044 0.0
C292 C 0.46332 0.29614 0.97155 0.0
C293 C 0.45208 0.29815 0.00446 0.0
C294 C 0.45943 0.30779 0.03638 0.0
C295 C 0.47759 0.31516 0.03543 0.0
C296 C 0.54556 0.33623 0.06862 0.0
C297 C 0.53801 0.33175 0.10488 0.0
C298 C 0.54892 0.33347 0.13821 0.0
C299 C 0.56759 0.33967 0.13592 0.0
C300 C 0.5748 0.34498 0.09996 0.0
C301 C 0.56393 0.3433 0.06675 0.0
C302 C 0.54466 0.33051 0.92779 0.0
C303 C 0.56125 0.34101 0.92444 0.0
C304 C 0.32521 0.06183 0.61668 0.0
C305 C 0.32359 0.05221 0.65183 0.0
C306 C 0.32424 0.03253 0.65173 0.0
C307 C 0.32598 0.02269 0.61713 0.0
H308 H 0.32797 0.96946 0.5712 0.0
H309 H 0.32495 0.93551 0.57017 0.0
H310 H 0.31991 0.9369 0.44634 0.0
H311 H 0.32331 0.97078 0.44712 0.0
H312 H 0.32206 0.00921 0.40328 0.0
H313 H 0.31656 0.02716 0.3446 0.0
H314 H 0.31926 0.07854 0.40972 0.0
H315 H 0.32514 0.06077 0.46811 0.0
H316 H 0.32777 0.06 0.55569 0.0
H317 H 0.32449 0.07697 0.61559 0.0
H318 H 0.32325 0.02471 0.67838 0.0
H319 H 0.32611 0.00753 0.61806 0.0
N320 N 0.32736 0.00306 0.54397 0.0
N321 N 0.32587 0.00364 0.47652 0.0
N322 N 0.32663 0.03172 0.51111 0.0
C323 C 0.32667 0.99372 0.50992 0.0
C324 C 0.3259 0.02266 0.47686 0.0
C325 C 0.32739 0.02209 0.54478 0.0
C326 C 0.3258 0.97295 0.50926 0.0
C327 C 0.32634 0.96256 0.54368 0.0
C328 C 0.3245 0.94307 0.54315 0.0
C329 C 0.32208 0.93349 0.5082 0.0
C330 C 0.32196 0.94381 0.47373 0.0
C331 C 0.3238 0.96329 0.47424 0.0
C332 C 0.32393 0.03349 0.44059 0.0
C333 C 0.32167 0.02434 0.40509 0.0
C334 C 0.31842 0.03462 0.37144 0.0
C335 C 0.31738 0.05428 0.3725 0.0
C336 C 0.32019 0.06344 0.40778 0.0
C337 C 0.32344 0.05319 0.44138 0.0
C338 C 0.32706 0.03234 0.58187 0.0
C339 C 0.32694 0.05204 0.58219 0.0
C340 C 0.42965 0.66194 0.11315 0.0
C341 C 0.43624 0.66942 0.14799 0.0
C342 C 0.45413 0.67768 0.14899 0.0
C343 C 0.4648 0.67921 0.11539 0.0
H344 H 0.51637 0.69604 0.07189 0.0
H345 H 0.54761 0.70975 0.07117 0.0
H346 H 0.54856 0.70597 0.94715 0.0
H347 H 0.51721 0.69269 0.94766 0.0
H348 H 0.48007 0.68225 0.90198 0.0
H349 H 0.46155 0.68416 0.84283 0.0
H350 H 0.41083 0.67665 0.90851 0.0
H351 H 0.42911 0.6747 0.96748 0.0
H352 H 0.43446 0.65803 0.05315 0.0
H353 H 0.41612 0.65511 0.1116 0.0
H354 H 0.45956 0.68366 0.17536 0.0
H355 H 0.47824 0.68624 0.11681 0.0
N356 N 0.4859 0.68205 0.04357 0.0
N357 N 0.48511 0.68448 0.97621 0.0
N358 N 0.45847 0.6746 0.00972 0.0
C359 C 0.4947 0.68613 0.00988 0.0
C360 C 0.46698 0.67874 0.97591 0.0
C361 C 0.4678 0.67611 0.04362 0.0
C362 C 0.51417 0.69335 0.00982 0.0
C363 C 0.52325 0.69803 0.04445 0.0
C364 C 0.54122 0.70583 0.04407 0.0
C365 C 0.55054 0.70907 0.00908 0.0
C366 C 0.54163 0.70399 0.97455 0.0
C367 C 0.52367 0.69626 0.9749 0.0
C368 C 0.45609 0.67843 0.93957 0.0
C369 C 0.46498 0.68087 0.90381 0.0
C370 C 0.45441 0.6819 0.86992 0.0
C371 C 0.43478 0.68073 0.87124 0.0
C372 C 0.42594 0.67785 0.90679 0.0
C373 C 0.43647 0.67662 0.94054 0.0
C374 C 0.45773 0.6726 0.08015 0.0
C375 C 0.44023 0.66356 0.07964 0.0
H376 H 0.16635 0.17453 0.04463 0.0
H377 H 0.14079 0.16944 0.09071 0.0
H378 H 0.17598 0.18995 0.18244 0.0
H379 H 0.20136 0.19516 0.13708 0.0
H380 H 0.15878 0.15585 0.19913 0.0
H381 H 0.14271 0.21709 0.14736 0.0
H382 H 0.13467 0.23906 0.09505 0.0
H383 H 0.08664 0.20568 0.06599 0.0
H384 H 0.09457 0.18335 0.11785 0.0
H385 H 0.105 0.18045 0.35827 0.0
H386 H 0.12509 0.17952 0.30181 0.0
H387 H 0.07803 0.16283 0.23172 0.0
H388 H 0.0577 0.16364 0.28855 0.0
H389 H 0.09819 0.18993 0.19702 0.0
H390 H 0.11143 0.13135 0.25534 0.0
H391 H 0.11952 0.10896 0.30682 0.0
H392 H 0.1728 0.13592 0.32217 0.0
H393 H 0.16491 0.15871 0.27129 0.0
C394 C 0.16857 0.17806 0.07458 0.0
C395 C 0.18591 0.18523 0.08716 0.0
C396 C 0.15397 0.17517 0.1008 0.0
C397 C 0.15656 0.17929 0.13993 0.0
C398 C 0.17374 0.18661 0.15238 0.0
C399 C 0.18821 0.18967 0.12629 0.0
C400 C 0.14165 0.17574 0.16855 0.0
C401 C 0.14554 0.16334 0.19885 0.0
C402 C 0.12414 0.18498 0.16718 0.0
C403 C 0.11937 0.19843 0.13613 0.0
C404 C 0.13054 0.21434 0.12958 0.0
C405 C 0.12598 0.22688 0.10007 0.0
C406 C 0.11019 0.22373 0.07712 0.0
C407 C 0.09889 0.20807 0.08373 0.0
C408 C 0.10341 0.19548 0.11318 0.0
C409 C 0.09893 0.17629 0.33101 0.0
C410 C 0.07977 0.17191 0.32801 0.0
C411 C 0.11045 0.1758 0.2987 0.0
C412 C 0.10314 0.17079 0.26266 0.0
C413 C 0.08397 0.16664 0.25932 0.0
C414 C 0.07238 0.16715 0.29176 0.0
C415 C 0.1156 0.17054 0.22856 0.0
C416 C 0.11125 0.18215 0.19711 0.0
C417 C 0.13271 0.16048 0.22875 0.0
C418 C 0.13749 0.14686 0.25965 0.0
C419 C 0.1248 0.13264 0.26994 0.0
C420 C 0.12936 0.11985 0.29899 0.0
C421 C 0.14664 0.12104 0.31782 0.0
C422 C 0.1594 0.13502 0.3076 0.0
C423 C 0.1549 0.14788 0.27863 0.0
H424 H 0.15015 0.11111 0.34028 0.0
H425 H 0.10668 0.23346 0.05429 0.0
H426 H 0.25769 0.63021 0.56283 0.0
H427 H 0.24248 0.60885 0.60814 0.0
H428 H 0.21789 0.65599 0.66692 0.0
H429 H 0.23364 0.67738 0.62269 0.0
H430 H 0.23221 0.63389 0.71689 0.0
H431 H 0.192 0.6248 0.6081 0.0
H432 H 0.18412 0.61773 0.54057 0.0
H433 H 0.20789 0.5628 0.55286 0.0
H434 H 0.21615 0.56964 0.62034 0.0
H435 H 0.17082 0.584 0.83677 0.0
H436 H 0.18039 0.6028 0.78138 0.0
H437 H 0.21508 0.55744 0.74146 0.0
H438 H 0.206 0.53866 0.79739 0.0
H439 H 0.19495 0.57784 0.68125 0.0
H440 H 0.23581 0.5884 0.79038 0.0
H441 H 0.24243 0.59595 0.85825 0.0
H442 H 0.21557 0.64936 0.84448 0.0
H443 H 0.20852 0.64198 0.77664 0.0
C444 C 0.2489 0.63599 0.58521 0.0
C445 C 0.24695 0.65547 0.58939 0.0
C446 C 0.24012 0.62376 0.61099 0.0
C447 C 0.22888 0.63078 0.64082 0.0
C448 C 0.22654 0.65023 0.64428 0.0
C449 C 0.23555 0.66244 0.61897 0.0
C450 C 0.22048 0.61803 0.6699 0.0
C451 C 0.22381 0.62183 0.70893 0.0
C452 C 0.20987 0.60199 0.65971 0.0
C453 C 0.20485 0.5978 0.61918 0.0
C454 C 0.19567 0.61127 0.59632 0.0
C455 C 0.19112 0.60729 0.55807 0.0
C456 C 0.19554 0.58985 0.54241 0.0
C457 C 0.20449 0.57632 0.56501 0.0
C458 C 0.20909 0.58023 0.60328 0.0
C459 C 0.1804 0.57796 0.81613 0.0
C460 C 0.18788 0.55993 0.82187 0.0
C461 C 0.18574 0.58867 0.78436 0.0
C462 C 0.19857 0.58155 0.75765 0.0
C463 C 0.20511 0.56314 0.76179 0.0
C464 C 0.19987 0.55243 0.79374 0.0
C465 C 0.20655 0.59397 0.72776 0.0
C466 C 0.20325 0.59002 0.68884 0.0
C467 C 0.21703 0.61002 0.73792 0.0
C468 C 0.22147 0.61456 0.77857 0.0
C469 C 0.23118 0.60169 0.80191 0.0
C470 C 0.23503 0.60595 0.84036 0.0
C471 C 0.22938 0.62311 0.8557 0.0
C472 C 0.21991 0.63607 0.83258 0.0
C473 C 0.21599 0.63186 0.79412 0.0
H474 H 0.23237 0.62638 0.88547 0.0
H475 H 0.19201 0.5868 0.51278 0.0
H476 H 0.81284 0.79311 0.10922 0.0
H477 H 0.8382 0.79595 0.15609 0.0
H478 H 0.85232 0.85033 0.11003 0.0
H479 H 0.82744 0.84711 0.06175 0.0
H480 H 0.88305 0.83351 0.13096 0.0
H481 H 0.82472 0.84542 0.1916 0.0
H482 H 0.79185 0.83977 0.21004 0.0
H483 H 0.80812 0.78961 0.26973 0.0
H484 H 0.84106 0.79481 0.25115 0.0
H485 H 0.92428 0.8611 0.31629 0.0
H486 H 0.90333 0.85987 0.26 0.0
H487 H 0.90171 0.79964 0.26835 0.0
H488 H 0.92292 0.80075 0.32385 0.0
H489 H 0.8649 0.82218 0.26681 0.0
H490 H 0.92453 0.81215 0.20163 0.0
H491 H 0.95684 0.82106 0.18449 0.0
H492 H 0.9368 0.87267 0.1359 0.0
H493 H 0.90438 0.86417 0.15331 0.0
C494 C 0.82152 0.80556 0.1088 0.0
C495 C 0.81807 0.81998 0.08222 0.0
C496 C 0.83594 0.80723 0.1357 0.0
C497 C 0.84681 0.82361 0.13735 0.0
C498 C 0.84403 0.83763 0.1095 0.0
C499 C 0.82982 0.83578 0.08196 0.0
C500 C 0.86039 0.82636 0.16927 0.0
C501 C 0.87899 0.83125 0.16067 0.0
C502 C 0.85513 0.82356 0.20817 0.0
C503 C 0.83535 0.82042 0.21969 0.0
C504 C 0.82127 0.83312 0.20845 0.0
C505 C 0.80263 0.83 0.21895 0.0
C506 C 0.79789 0.81432 0.24097 0.0
C507 C 0.81181 0.80174 0.25263 0.0
C508 C 0.83047 0.80477 0.24215 0.0
C509 C 0.91956 0.84763 0.30578 0.0
C510 C 0.92521 0.83101 0.32416 0.0
C511 C 0.90769 0.84694 0.27372 0.0
C512 C 0.9011 0.82966 0.26017 0.0
C513 C 0.90677 0.81308 0.27841 0.0
C514 C 0.9189 0.81373 0.30991 0.0
C515 C 0.88747 0.82882 0.22824 0.0
C516 C 0.86884 0.82444 0.23702 0.0
C517 C 0.8926 0.83258 0.18978 0.0
C518 C 0.91207 0.83763 0.17921 0.0
C519 C 0.92704 0.82549 0.18768 0.0
C520 C 0.94536 0.83044 0.17782 0.0
C521 C 0.94888 0.84745 0.15923 0.0
C522 C 0.93407 0.85951 0.15036 0.0
C523 C 0.91571 0.85463 0.1602 0.0
H524 H 0.96308 0.85125 0.15161 0.0
H525 H 0.78345 0.81192 0.24907 0.0
H526 H 0.75309 0.37608 0.55248 0.0
H527 H 0.76884 0.39628 0.59906 0.0
H528 H 0.78242 0.34799 0.66861 0.0
H529 H 0.76619 0.3278 0.62279 0.0
H530 H 0.76878 0.37366 0.71209 0.0
H531 H 0.81608 0.37271 0.61558 0.0
H532 H 0.82922 0.37571 0.55033 0.0
H533 H 0.81397 0.43386 0.54764 0.0
H534 H 0.80048 0.43115 0.6127 0.0
H535 H 0.83061 0.4193 0.8397 0.0
H536 H 0.82157 0.40017 0.78457 0.0
H537 H 0.79332 0.44752 0.73382 0.0
H538 H 0.80158 0.46665 0.78967 0.0
H539 H 0.81569 0.42263 0.68046 0.0
H540 H 0.76687 0.42159 0.7777 0.0
H541 H 0.75525 0.41747 0.84393 0.0
H542 H 0.77576 0.36095 0.8453 0.0
H543 H 0.78779 0.36485 0.77924 0.0
C544 C 0.75959 0.36974 0.57751 0.0
C545 C 0.75827 0.35034 0.58408 0.0
C546 C 0.76869 0.38131 0.60404 0.0
C547 C 0.77696 0.37367 0.63727 0.0
C548 C 0.7761 0.35423 0.64328 0.0
C549 C 0.76682 0.3427 0.61704 0.0
C550 C 0.78547 0.38599 0.66699 0.0
C551 C 0.77925 0.38414 0.7051 0.0
C552 C 0.79891 0.39994 0.65796 0.0
C553 C 0.8071 0.40167 0.6189 0.0
C554 C 0.81539 0.3861 0.60097 0.0
C555 C 0.82293 0.38776 0.56403 0.0
C556 C 0.82239 0.40496 0.54481 0.0
C557 C 0.81436 0.42055 0.56255 0.0
C558 C 0.80678 0.41896 0.59948 0.0
C559 C 0.8225 0.42572 0.81686 0.0
C560 C 0.81656 0.44447 0.81955 0.0
C561 C 0.81752 0.41479 0.78519 0.0
C562 C 0.8067 0.42244 0.75535 0.0
C563 C 0.80176 0.44143 0.75657 0.0
C564 C 0.80654 0.45234 0.78851 0.0
C565 C 0.79898 0.41011 0.72507 0.0
C566 C 0.80529 0.41203 0.68709 0.0
C567 C 0.78581 0.39601 0.73418 0.0
C568 C 0.77841 0.39358 0.77372 0.0
C569 C 0.76905 0.40834 0.79226 0.0
C570 C 0.76237 0.40604 0.82974 0.0
C571 C 0.76482 0.38898 0.84886 0.0
C572 C 0.77391 0.37417 0.83048 0.0
C573 C 0.78065 0.37641 0.79302 0.0
H574 H 0.75962 0.38722 0.87788 0.0
H575 H 0.82823 0.40621 0.51621 0.0
H576 H 0.69943 0.30834 0.36599 0.0
H577 H 0.67443 0.31395 0.31963 0.0
H578 H 0.64288 0.34382 0.40551 0.0
H579 H 0.66798 0.33826 0.45257 0.0
H580 H 0.62096 0.31904 0.35956 0.0
H581 H 0.66499 0.36888 0.34314 0.0
H582 H 0.69643 0.38265 0.33517 0.0
H583 H 0.70337 0.35289 0.22898 0.0
H584 H 0.67207 0.33869 0.23661 0.0
H585 H 0.55963 0.35178 0.20908 0.0
H586 H 0.58038 0.35099 0.26549 0.0
H587 H 0.6239 0.32598 0.19662 0.0
H588 H 0.60342 0.32687 0.14048 0.0
H589 H 0.63802 0.35285 0.23974 0.0
H590 H 0.59632 0.3002 0.25959 0.0
H591 H 0.56557 0.28496 0.2678 0.0
H592 H 0.55469 0.31897 0.36698 0.0
H593 H 0.58531 0.33459 0.35904 0.0
C594 C 0.68716 0.31601 0.37527 0.0
C595 C 0.68582 0.32303 0.41294 0.0
C596 C 0.67289 0.31923 0.34865 0.0
C597 C 0.65698 0.32954 0.35903 0.0
C598 C 0.65514 0.33592 0.39697 0.0
C599 C 0.6695 0.33277 0.42372 0.0
C600 C 0.64267 0.33402 0.32953 0.0
C601 C 0.62452 0.32675 0.33366 0.0
C602 C 0.64748 0.34388 0.29563 0.0
C603 C 0.66621 0.35263 0.29059 0.0
C604 C 0.67326 0.36518 0.31821 0.0
C605 C 0.69106 0.37307 0.31374 0.0
C606 C 0.70191 0.36863 0.28162 0.0
C607 C 0.69495 0.35632 0.25385 0.0
C608 C 0.67717 0.34836 0.25821 0.0
C609 C 0.57362 0.34608 0.20611 0.0
C610 C 0.57994 0.33949 0.17032 0.0
C611 C 0.58544 0.34563 0.23831 0.0
C612 C 0.60367 0.33834 0.23532 0.0
C613 C 0.60995 0.3318 0.19958 0.0
C614 C 0.59824 0.33236 0.16747 0.0
C615 C 0.61639 0.33737 0.2691 0.0
C616 C 0.63429 0.34538 0.26585 0.0
C617 C 0.61136 0.32811 0.30366 0.0
C618 C 0.59299 0.31872 0.30844 0.0
C619 C 0.5873 0.30454 0.28295 0.0
C620 C 0.56991 0.29581 0.28759 0.0
C621 C 0.55816 0.30104 0.31781 0.0
C622 C 0.56379 0.31497 0.34353 0.0
C623 C 0.58116 0.32375 0.33899 0.0
H624 H 0.5447 0.29426 0.32136 0.0
H625 H 0.71569 0.37474 0.27823 0.0
H626 H 0.27791 0.17775 0.9011 0.0
H627 H 0.29567 0.15759 0.85753 0.0
H628 H 0.26225 0.11017 0.89279 0.0
H629 H 0.24534 0.13009 0.93818 0.0
H630 H 0.29601 0.09878 0.88047 0.0
H631 H 0.25305 0.13865 0.81151 0.0
H632 H 0.2399 0.16922 0.79295 0.0
H633 H 0.29223 0.18482 0.74135 0.0
H634 H 0.30606 0.15467 0.76142 0.0
H635 H 0.29932 0.04343 0.71002 0.0
H636 H 0.29124 0.0625 0.76582 0.0
H637 H 0.33148 0.10421 0.73069 0.0
H638 H 0.33986 0.08509 0.67506 0.0
H639 H 0.29722 0.11915 0.74396 0.0
H640 H 0.33942 0.07801 0.81006 0.0
H641 H 0.35233 0.0475 0.83023 0.0
H642 H 0.30012 0.03348 0.88428 0.0
H643 H 0.2868 0.06381 0.86396 0.0
C644 C 0.27454 0.16297 0.89976 0.0
C645 C 0.26014 0.15547 0.92252 0.0
C646 C 0.28464 0.15147 0.87483 0.0
C647 C 0.27997 0.13243 0.87105 0.0
C648 C 0.26608 0.1248 0.89503 0.0
C649 C 0.25636 0.1362 0.92082 0.0
C650 C 0.28863 0.12072 0.84054 0.0
C651 C 0.29613 0.10318 0.85059 0.0
C652 C 0.28915 0.12658 0.80154 0.0
C653 C 0.28065 0.14446 0.78835 0.0
C654 C 0.2618 0.14863 0.79641 0.0
C655 C 0.25422 0.1659 0.78563 0.0
C656 C 0.26516 0.17893 0.76574 0.0
C657 C 0.28376 0.17472 0.75675 0.0
C658 C 0.29152 0.15758 0.76801 0.0
C659 C 0.3068 0.05643 0.71464 0.0
C660 C 0.32018 0.06277 0.68796 0.0
C661 C 0.30213 0.06734 0.74654 0.0
C662 C 0.31081 0.08474 0.75247 0.0
C663 C 0.32458 0.09084 0.72657 0.0
C664 C 0.32929 0.07993 0.69473 0.0
C665 C 0.30444 0.09721 0.78389 0.0
C666 C 0.29727 0.11485 0.77393 0.0
C667 C 0.30406 0.09136 0.82279 0.0
C668 C 0.31207 0.07314 0.83521 0.0
C669 C 0.33064 0.06837 0.82599 0.0
C670 C 0.33804 0.05111 0.8375 0.0
C671 C 0.32704 0.03854 0.85846 0.0
C672 C 0.30862 0.04322 0.86803 0.0
C673 C 0.30115 0.06046 0.85656 0.0
H674 H 0.3328 0.02519 0.86734 0.0
H675 H 0.25923 0.19227 0.75734 0.0
H676 H 0.3378 0.67995 0.46405 0.0
H677 H 0.36311 0.67474 0.41767 0.0
H678 H 0.32665 0.69238 0.32533 0.0
H679 H 0.30142 0.6977 0.37112 0.0
H680 H 0.34427 0.65824 0.31194 0.0
H681 H 0.36 0.72078 0.35517 0.0
H682 H 0.368 0.74447 0.40401 0.0
H683 H 0.4166 0.71271 0.43675 0.0
H684 H 0.40872 0.68867 0.38842 0.0
H685 H 0.39892 0.67729 0.15025 0.0
H686 H 0.37848 0.67825 0.20614 0.0
H687 H 0.42502 0.66368 0.27974 0.0
H688 H 0.44571 0.66255 0.22348 0.0
H689 H 0.40491 0.69221 0.30927 0.0
H690 H 0.39158 0.63177 0.26008 0.0
H691 H 0.38344 0.60759 0.2124 0.0
H692 H 0.33027 0.63409 0.19252 0.0
H693 H 0.33823 0.65866 0.23947 0.0
C694 C 0.33524 0.68289 0.4339 0.0
C695 C 0.31758 0.6892 0.42126 0.0
C696 C 0.34971 0.67993 0.40751 0.0
C697 C 0.34668 0.68316 0.36816 0.0
C698 C 0.32921 0.68977 0.35561 0.0
C699 C 0.31484 0.69288 0.38189 0.0
C700 C 0.36139 0.67908 0.3395 0.0
C701 C 0.35749 0.66574 0.31109 0.0
C702 C 0.37889 0.68836 0.33956 0.0
C703 C 0.38364 0.70282 0.36853 0.0
C704 C 0.37229 0.71875 0.37303 0.0
C705 C 0.37682 0.73227 0.40057 0.0
C706 C 0.39276 0.73006 0.42356 0.0
C707 C 0.40423 0.71437 0.41898 0.0
C708 C 0.39975 0.70081 0.39151 0.0
C709 C 0.40479 0.67396 0.17819 0.0
C710 C 0.42391 0.66962 0.18235 0.0
C711 C 0.39308 0.67456 0.21016 0.0
C712 C 0.40016 0.67074 0.24703 0.0
C713 C 0.41927 0.66659 0.25149 0.0
C714 C 0.43107 0.66599 0.21938 0.0
C715 C 0.38753 0.67178 0.28074 0.0
C716 C 0.39183 0.68448 0.31027 0.0
C717 C 0.37037 0.66184 0.28183 0.0
C718 C 0.3656 0.64719 0.25311 0.0
C719 C 0.37824 0.63258 0.24524 0.0
C720 C 0.37364 0.61878 0.21837 0.0
C721 C 0.35638 0.61933 0.19936 0.0
C722 C 0.34366 0.63369 0.2072 0.0
C723 C 0.34821 0.64757 0.23395 0.0
H724 H 0.35283 0.60861 0.17862 0.0
H725 H 0.39625 0.74054 0.44486 0.0
H726 H 0.73349 0.83292 0.88178 0.0
H727 H 0.72038 0.85515 0.83554 0.0
H728 H 0.73679 0.90105 0.90864 0.0
H729 H 0.75 0.87888 0.95521 0.0
H730 H 0.69373 0.88336 0.837 0.0
H731 H 0.75591 0.9344 0.84754 0.0
H732 H 0.78909 0.93434 0.86788 0.0
H733 H 0.79339 0.87597 0.83979 0.0
H734 H 0.76036 0.87578 0.81871 0.0
H735 H 0.67588 0.96092 0.71093 0.0
H736 H 0.68449 0.94319 0.7689 0.0
H737 H 0.72821 0.91523 0.70565 0.0
H738 H 0.71992 0.93305 0.64804 0.0
H739 H 0.74026 0.92572 0.77621 0.0
H740 H 0.68724 0.89373 0.72071 0.0
H741 H 0.65487 0.89104 0.69632 0.0
H742 H 0.63353 0.90696 0.80693 0.0
H743 H 0.66582 0.90999 0.83182 0.0
C744 C 0.7341 0.84773 0.88832 0.0
C745 C 0.74302 0.85415 0.92192 0.0
C746 C 0.72649 0.8604 0.86196 0.0
C747 C 0.7278 0.87972 0.86852 0.0
C748 C 0.73579 0.88618 0.90297 0.0
C749 C 0.7433 0.87349 0.92954 0.0
C750 C 0.72233 0.89298 0.83766 0.0
C751 C 0.70382 0.8928 0.82399 0.0
C752 C 0.73562 0.905 0.82025 0.0
C753 C 0.75561 0.90504 0.83203 0.0
C754 C 0.76397 0.92158 0.84559 0.0
C755 C 0.78274 0.92159 0.85723 0.0
C756 C 0.79332 0.90514 0.85526 0.0
C757 C 0.78517 0.88868 0.84143 0.0
C758 C 0.76642 0.88862 0.82966 0.0
C759 C 0.68745 0.95113 0.70957 0.0
C760 C 0.69714 0.94826 0.6749 0.0
C761 C 0.69227 0.94095 0.74259 0.0
C762 C 0.7069 0.9278 0.74147 0.0
C763 C 0.71688 0.92529 0.70715 0.0
C764 C 0.71201 0.93536 0.67417 0.0
C765 C 0.71161 0.91619 0.77555 0.0
C766 C 0.73003 0.91662 0.78975 0.0
C767 C 0.69833 0.90412 0.79289 0.0
C768 C 0.67893 0.90231 0.77798 0.0
C769 C 0.67564 0.89682 0.73972 0.0
C770 C 0.65732 0.8952 0.72583 0.0
C771 C 0.64215 0.89889 0.75003 0.0
C772 C 0.64529 0.90415 0.7882 0.0
C773 C 0.6636 0.90582 0.80222 0.0
H774 H 0.62797 0.89762 0.73922 0.0
H775 H 0.80783 0.90517 0.86436 0.0
H776 H 0.8154 0.79025 0.90219 0.0
H777 H 0.84012 0.79273 0.85365 0.0
H778 H 0.83775 0.85297 0.86079 0.0
H779 H 0.81315 0.85067 0.9093 0.0
H780 H 0.83679 0.83938 0.78553 0.0
H781 H 0.87331 0.83108 0.90134 0.0
H782 H 0.88215 0.81487 0.96141 0.0
H783 H 0.89554 0.76527 0.89754 0.0
H784 H 0.88656 0.78112 0.8371 0.0
H785 H 0.9158 0.86039 0.67209 0.0
H786 H 0.8939 0.85863 0.7261 0.0
H787 H 0.90242 0.79886 0.73284 0.0
H788 H 0.92471 0.80069 0.67963 0.0
H789 H 0.90032 0.81226 0.80218 0.0
H790 H 0.8635 0.81865 0.68769 0.0
H791 H 0.85323 0.83293 0.62653 0.0
H792 H 0.83869 0.88357 0.68578 0.0
H793 H 0.84914 0.86967 0.74726 0.0
C794 C 0.8202 0.80402 0.89352 0.0
C795 C 0.81234 0.82026 0.90963 0.0
C796 C 0.83435 0.8054 0.86593 0.0
C797 C 0.8408 0.82303 0.85386 0.0
C798 C 0.83297 0.83925 0.86982 0.0
C799 C 0.81897 0.83789 0.89765 0.0
C800 C 0.85539 0.82463 0.82385 0.0
C801 C 0.85078 0.83371 0.78931 0.0
C802 C 0.8734 0.81668 0.8285 0.0
C803 C 0.87911 0.80724 0.86474 0.0
C804 C 0.87803 0.81668 0.90013 0.0
C805 C 0.88308 0.80756 0.93424 0.0
C806 C 0.88936 0.78903 0.9333 0.0
C807 C 0.89066 0.77961 0.89822 0.0
C808 C 0.88562 0.78867 0.86402 0.0
C809 C 0.91304 0.84691 0.68528 0.0
C810 C 0.92187 0.83067 0.67164 0.0
C811 C 0.9005 0.8459 0.71603 0.0
C812 C 0.89624 0.82855 0.7331 0.0
C813 C 0.90547 0.81239 0.72016 0.0
C814 C 0.9182 0.81345 0.68979 0.0
C815 C 0.8818 0.82713 0.76368 0.0
C816 C 0.88638 0.81803 0.79833 0.0
C817 C 0.86362 0.8348 0.75891 0.0
C818 C 0.8573 0.84319 0.722 0.0
C819 C 0.85826 0.83288 0.68763 0.0
C820 C 0.85238 0.8409 0.65292 0.0
C821 C 0.84537 0.85916 0.65225 0.0
C822 C 0.84417 0.86943 0.68633 0.0
C823 C 0.85005 0.86149 0.72112 0.0
H824 H 0.84082 0.86534 0.62535 0.0
H825 H 0.89324 0.78199 0.95975 0.0
H826 H 0.76887 0.32623 0.37505 0.0
H827 H 0.78329 0.34692 0.32754 0.0
H828 H 0.76707 0.39502 0.39475 0.0
H829 H 0.75188 0.37439 0.44134 0.0
H830 H 0.75829 0.40155 0.32583 0.0
H831 H 0.81502 0.38068 0.38382 0.0
H832 H 0.83825 0.35839 0.40952 0.0
H833 H 0.84292 0.3326 0.29848 0.0
H834 H 0.81972 0.35484 0.27204 0.0
H835 H 0.81253 0.46476 0.20976 0.0
H836 H 0.8038 0.44534 0.26494 0.0
H837 H 0.80005 0.397 0.19141 0.0
H838 H 0.80767 0.41632 0.13572 0.0
H839 H 0.82062 0.3922 0.26592 0.0
H840 H 0.76184 0.41484 0.21116 0.0
H841 H 0.74037 0.43969 0.1889 0.0
H842 H 0.74169 0.46482 0.30099 0.0
H843 H 0.7634 0.44025 0.32374 0.0
C844 C 0.76862 0.3412 0.37994 0.0
C845 C 0.75916 0.3487 0.41178 0.0
C846 C 0.77698 0.35305 0.35285 0.0
C847 C 0.77645 0.3726 0.35761 0.0
C848 C 0.7676 0.38002 0.39024 0.0
C849 C 0.75895 0.36821 0.41691 0.0
C850 C 0.7838 0.38532 0.3272 0.0
C851 C 0.77208 0.39967 0.31338 0.0
C852 C 0.80169 0.38283 0.31034 0.0
C853 C 0.81551 0.36931 0.32606 0.0
C854 C 0.8209 0.37017 0.36495 0.0
C855 C 0.8341 0.35758 0.37962 0.0
C856 C 0.84199 0.34401 0.35571 0.0
C857 C 0.83677 0.3431 0.31699 0.0
C858 C 0.82365 0.35574 0.3021 0.0
C859 C 0.80969 0.45004 0.20511 0.0
C860 C 0.81078 0.4422 0.16801 0.0
C861 C 0.80488 0.43895 0.23679 0.0
C862 C 0.80133 0.41978 0.23212 0.0
C863 C 0.80291 0.41176 0.19555 0.0
C864 C 0.80739 0.42287 0.16376 0.0
C865 C 0.79508 0.4082 0.26499 0.0
C866 C 0.80695 0.39408 0.27896 0.0
C867 C 0.77752 0.41116 0.28264 0.0
C868 C 0.7644 0.42585 0.269 0.0
C869 C 0.75769 0.42577 0.23094 0.0
C870 C 0.74545 0.43977 0.21826 0.0
C871 C 0.73971 0.45386 0.24348 0.0
C872 C 0.74617 0.45392 0.28146 0.0
C873 C 0.75843 0.43996 0.29427 0.0
H874 H 0.73023 0.46469 0.23361 0.0
H875 H 0.85218 0.33424 0.36717 0.0
H876 H 0.1872 0.15833 0.91167 0.0
H877 H 0.16208 0.15678 0.86398 0.0
H878 H 0.16042 0.21708 0.85843 0.0
H879 H 0.18576 0.21882 0.90607 0.0
H880 H 0.12428 0.19937 0.86262 0.0
H881 H 0.18087 0.19679 0.78696 0.0
H882 H 0.21195 0.18518 0.7675 0.0
H883 H 0.1894 0.12986 0.753 0.0
H884 H 0.15812 0.14123 0.7722 0.0
H885 H 0.07446 0.21005 0.68603 0.0
H886 H 0.09573 0.21121 0.74117 0.0
H887 H 0.10484 0.15163 0.73209 0.0
H888 H 0.08381 0.15049 0.67643 0.0
H889 H 0.1368 0.16881 0.73723 0.0
H890 H 0.07942 0.17169 0.80743 0.0
H891 H 0.04803 0.18345 0.82444 0.0
H892 H 0.07133 0.23744 0.85027 0.0
H893 H 0.10283 0.22608 0.8329 0.0
C894 C 0.18146 0.17129 0.90051 0.0
C895 C 0.18855 0.18871 0.91253 0.0
C896 C 0.16714 0.17036 0.87318 0.0
C897 C 0.15951 0.18681 0.85758 0.0
C898 C 0.16616 0.20424 0.87018 0.0
C899 C 0.18068 0.2052 0.89724 0.0
C900 C 0.1449 0.1857 0.82739 0.0
C901 C 0.127 0.19289 0.83498 0.0
C902 C 0.14839 0.1768 0.79188 0.0
C903 C 0.16724 0.16981 0.78139 0.0
C904 C 0.1826 0.18211 0.77999 0.0
C905 C 0.20023 0.17559 0.76887 0.0
C906 C 0.20268 0.15676 0.75921 0.0
C907 C 0.18749 0.14443 0.76056 0.0
C908 C 0.16979 0.15092 0.77143 0.0
C909 C 0.08073 0.19715 0.69626 0.0
C910 C 0.07753 0.18018 0.67693 0.0
C911 C 0.09286 0.19782 0.72784 0.0
C912 C 0.10178 0.18148 0.74103 0.0
C913 C 0.09815 0.16443 0.72239 0.0
C914 C 0.08617 0.16378 0.69059 0.0
C915 C 0.11597 0.1824 0.77227 0.0
C916 C 0.13389 0.17519 0.76489 0.0
C917 C 0.1124 0.19119 0.80801 0.0
C918 C 0.09347 0.19807 0.81851 0.0
C919 C 0.07783 0.18612 0.81643 0.0
C920 C 0.06002 0.1927 0.8262 0.0
C921 C 0.05768 0.21119 0.83833 0.0
C922 C 0.07316 0.22312 0.84082 0.0
C923 C 0.091 0.21661 0.83106 0.0
H924 H 0.04388 0.21627 0.84589 0.0
H925 H 0.21633 0.15172 0.75049 0.0
H926 H 0.26752 0.63524 0.42681 0.0
H927 H 0.25483 0.61512 0.37657 0.0
H928 H 0.21385 0.65729 0.34781 0.0
H929 H 0.2264 0.67762 0.39834 0.0
H930 H 0.19896 0.62156 0.34801 0.0
H931 H 0.25185 0.65349 0.29467 0.0
H932 H 0.2846 0.6644 0.29183 0.0
H933 H 0.30384 0.60748 0.28829 0.0
H934 H 0.27121 0.59619 0.29192 0.0
H935 H 0.17588 0.58583 0.16234 0.0
H936 H 0.18552 0.60536 0.21659 0.0
H937 H 0.22871 0.56544 0.24552 0.0
H938 H 0.2195 0.54611 0.19066 0.0
H939 H 0.2421 0.6007 0.24486 0.0
H940 H 0.1891 0.56886 0.29934 0.0
H941 H 0.15628 0.55813 0.3023 0.0
H942 H 0.1373 0.61518 0.30285 0.0
H943 H 0.17001 0.62626 0.29935 0.0
C944 C 0.25571 0.64024 0.41007 0.0
C945 C 0.24811 0.65816 0.41635 0.0
C946 C 0.24852 0.62872 0.38126 0.0
C947 C 0.23362 0.63486 0.35809 0.0
C948 C 0.22544 0.65236 0.36528 0.0
C949 C 0.23266 0.66396 0.39411 0.0
C950 C 0.22703 0.62317 0.32564 0.0
C951 C 0.20831 0.61719 0.32514 0.0
C952 C 0.23937 0.61723 0.29626 0.0
C953 C 0.25905 0.62398 0.29398 0.0
C954 C 0.26306 0.64328 0.29367 0.0
C955 C 0.28161 0.64954 0.29186 0.0
C956 C 0.2963 0.63664 0.28997 0.0
C957 C 0.29245 0.61745 0.28983 0.0
C958 C 0.27393 0.61112 0.29176 0.0
C959 C 0.18743 0.58121 0.18026 0.0
C960 C 0.19693 0.56442 0.17218 0.0
C961 C 0.19282 0.59231 0.21143 0.0
C962 C 0.20775 0.58679 0.23525 0.0
C963 C 0.21713 0.56994 0.22753 0.0
C964 C 0.21173 0.55883 0.19639 0.0
C965 C 0.21405 0.5989 0.26737 0.0
C966 C 0.23275 0.60504 0.26773 0.0
C967 C 0.20168 0.60501 0.29654 0.0
C968 C 0.182 0.59838 0.29868 0.0
C969 C 0.17792 0.57912 0.29976 0.0
C970 C 0.15934 0.57297 0.3016 0.0
C971 C 0.14471 0.58596 0.30266 0.0
C972 C 0.14864 0.60513 0.30198 0.0
C973 C 0.1672 0.61135 0.3001 0.0
H974 H 0.13034 0.58118 0.3041 0.0
H975 H 0.31065 0.64151 0.28853 0.0
H976 H 0.3306 0.67047 0.5666 0.0
H977 H 0.3566 0.66951 0.61242 0.0
H978 H 0.332 0.71534 0.67536 0.0
H979 H 0.30635 0.71686 0.62872 0.0
H980 H 0.36826 0.71942 0.67412 0.0
H981 H 0.32652 0.66844 0.70307 0.0
H982 H 0.30813 0.64001 0.68901 0.0
H983 H 0.35856 0.61057 0.65969 0.0
H984 H 0.37723 0.63892 0.67309 0.0
H985 H 0.40432 0.70312 0.86141 0.0
H986 H 0.38461 0.70619 0.80411 0.0
H987 H 0.4197 0.66672 0.74418 0.0
H988 H 0.43954 0.66356 0.80169 0.0
H989 H 0.38092 0.65893 0.73977 0.0
H990 H 0.42263 0.71061 0.71912 0.0
H991 H 0.43967 0.73934 0.73706 0.0
H992 H 0.38748 0.76782 0.7556 0.0
H993 H 0.37012 0.73916 0.73832 0.0
C994 C 0.33081 0.68042 0.59009 0.0
C995 C 0.31634 0.6936 0.59437 0.0
C996 C 0.34564 0.67982 0.6163 0.0
C997 C 0.34604 0.69207 0.64783 0.0
C998 C 0.33196 0.7057 0.65133 0.0
C999 C 0.31728 0.70652 0.62473 0.0
C1000 C 0.36068 0.69026 0.67798 0.0
C1001 C 0.37092 0.70622 0.68865 0.0
C1002 C 0.36443 0.67295 0.6965 0.0
C1003 C 0.35324 0.65585 0.68867 0.0
C1004 C 0.33367 0.65594 0.69337 0.0
C1005 C 0.3232 0.63984 0.68556 0.0
C1006 C 0.33217 0.62351 0.67336 0.0
C1007 C 0.35163 0.62323 0.66907 0.0
C1008 C 0.36217 0.63931 0.67679 0.0
C1009 C 0.40784 0.69511 0.83599 0.0
C1010 C 0.42339 0.68304 0.83594 0.0
C1011 C 0.39667 0.69699 0.80324 0.0
C1012 C 0.40081 0.68678 0.76991 0.0
C1013 C 0.41637 0.67476 0.76965 0.0
C1014 C 0.42769 0.67303 0.80235 0.0
C1015 C 0.38828 0.68811 0.73608 0.0
C1016 C 0.37841 0.67205 0.72483 0.0
C1017 C 0.38466 0.70538 0.71753 0.0
C1018 C 0.39507 0.72268 0.72769 0.0
C1019 C 0.41478 0.72295 0.72731 0.0
C1020 C 0.4245 0.73924 0.7373 0.0
C1021 C 0.41467 0.75538 0.74753 0.0
C1022 C 0.39509 0.7553 0.74769 0.0
C1023 C 0.3853 0.73904 0.73774 0.0
H1024 H 0.42222 0.76798 0.75527 0.0
H1025 H 0.32404 0.61105 0.66732 0.0
H1026 H 0.72414 0.82865 0.10939 0.0
H1027 H 0.70906 0.8487 0.15736 0.0
H1028 H 0.74984 0.89198 0.13536 0.0
H1029 H 0.76499 0.87216 0.08771 0.0
H1030 H 0.74557 0.88516 0.21185 0.0
H1031 H 0.70592 0.89638 0.10178 0.0
H1032 H 0.68515 0.88734 0.04817 0.0
H1033 H 0.6467 0.86225 0.12794 0.0
H1034 H 0.66737 0.87097 0.18206 0.0
H1035 H 0.7076 0.96225 0.30753 0.0
H1036 H 0.71763 0.94202 0.25492 0.0
H1037 H 0.67511 0.90175 0.28543 0.0
H1038 H 0.66465 0.92217 0.33772 0.0
H1039 H 0.67909 0.90546 0.20634 0.0
H1040 H 0.71805 0.89472 0.31635 0.0
H1041 H 0.7387 0.90344 0.37037 0.0
H1042 H 0.77855 0.9267 0.29116 0.0
H1043 H 0.75798 0.91837 0.23666 0.0
C1044 C 0.72985 0.84247 0.11467 0.0
C1045 C 0.74582 0.84876 0.09478 0.0
C1046 C 0.72117 0.85392 0.14196 0.0
C1047 C 0.72831 0.87185 0.14979 0.0
C1048 C 0.74413 0.87819 0.12979 0.0
C1049 C 0.75274 0.86682 0.10246 0.0
C1050 C 0.71977 0.88388 0.17969 0.0
C1051 C 0.73109 0.88978 0.21039 0.0
C1052 C 0.70073 0.88941 0.17838 0.0
C1053 C 0.68828 0.88417 0.14592 0.0
C1054 C 0.69311 0.8888 0.10787 0.0
C1055 C 0.68134 0.88377 0.0774 0.0
C1056 C 0.66463 0.87421 0.08465 0.0
C1057 C 0.65965 0.86966 0.12239 0.0
C1058 C 0.67138 0.87466 0.15297 0.0
C1059 C 0.70008 0.9493 0.30254 0.0
C1060 C 0.6854 0.94376 0.32697 0.0
C1061 C 0.70594 0.93768 0.27266 0.0
C1062 C 0.6973 0.92026 0.26669 0.0
C1063 C 0.68202 0.91509 0.2897 0.0
C1064 C 0.67616 0.92671 0.3197 0.0
C1065 C 0.70503 0.90702 0.23801 0.0
C1066 C 0.69355 0.90081 0.20776 0.0
C1067 C 0.72394 0.9011 0.23975 0.0
C1068 C 0.73638 0.90608 0.27245 0.0
C1069 C 0.73114 0.90183 0.31046 0.0
C1070 C 0.74284 0.90669 0.34117 0.0
C1071 C 0.7599 0.91566 0.33421 0.0
C1072 C 0.76532 0.91977 0.29651 0.0
C1073 C 0.75365 0.91497 0.2657 0.0
H1074 H 0.76895 0.9194 0.35802 0.0
H1075 H 0.6555 0.8704 0.06106 0.0
H1076 H 0.68357 0.2895 0.59555 0.0
H1077 H 0.6579 0.29212 0.64184 0.0
H1078 H 0.65879 0.35223 0.6297 0.0
H1079 H 0.68437 0.3498 0.58345 0.0
H1080 H 0.65975 0.34031 0.70555 0.0
H1081 H 0.62391 0.32849 0.5909 0.0
H1082 H 0.61531 0.31112 0.53224 0.0
H1083 H 0.6028 0.26241 0.60015 0.0
H1084 H 0.61159 0.27942 0.65921 0.0
H1085 H 0.58065 0.35987 0.81873 0.0
H1086 H 0.60169 0.35814 0.76334 0.0
H1087 H 0.59666 0.2979 0.76343 0.0
H1088 H 0.57525 0.29964 0.81818 0.0
H1089 H 0.59736 0.3103 0.69202 0.0
H1090 H 0.63443 0.32041 0.80539 0.0
H1091 H 0.64406 0.33643 0.86502 0.0
H1092 H 0.65561 0.38658 0.80092 0.0
H1093 H 0.64578 0.37093 0.74095 0.0
C1094 C 0.67822 0.30327 0.60254 0.0
C1095 C 0.68608 0.31944 0.58594 0.0
C1096 C 0.66351 0.30473 0.62884 0.0
C1097 C 0.65644 0.32237 0.63903 0.0
C1098 C 0.66407 0.3385 0.62216 0.0
C1099 C 0.67866 0.33706 0.59567 0.0
C1100 C 0.64172 0.3241 0.66871 0.0
C1101 C 0.64599 0.33401 0.70237 0.0
C1102 C 0.62402 0.31538 0.6649 0.0
C1103 C 0.61858 0.30518 0.62946 0.0
C1104 C 0.61947 0.31403 0.59331 0.0
C1105 C 0.61453 0.30426 0.55998 0.0
C1106 C 0.60856 0.28566 0.56245 0.0
C1107 C 0.60745 0.27681 0.59828 0.0
C1108 C 0.61239 0.28652 0.63169 0.0
C1109 C 0.58396 0.34629 0.80671 0.0
C1110 C 0.57646 0.32988 0.82285 0.0
C1111 C 0.59599 0.3453 0.77515 0.0
C1112 C 0.60104 0.32786 0.7597 0.0
C1113 C 0.59299 0.31151 0.77488 0.0
C1114 C 0.58076 0.31251 0.80614 0.0
C1115 C 0.61536 0.32659 0.72892 0.0
C1116 C 0.61107 0.3167 0.69514 0.0
C1117 C 0.63318 0.33514 0.73276 0.0
C1118 C 0.63918 0.34456 0.76875 0.0
C1119 C 0.63889 0.3349 0.80406 0.0
C1120 C 0.6444 0.3439 0.83791 0.0
C1121 C 0.6504 0.36252 0.83678 0.0
C1122 C 0.65094 0.37216 0.80176 0.0
C1123 C 0.6454 0.36323 0.76783 0.0
H1124 H 0.65466 0.36947 0.86301 0.0
H1125 H 0.60475 0.27812 0.53662 0.0
H1126 H 0.23927 0.13323 0.08222 0.0
H1127 H 0.25306 0.1135 0.13211 0.0
H1128 H 0.29112 0.15798 0.16278 0.0
H1129 H 0.27748 0.1779 0.11258 0.0
H1130 H 0.30831 0.12334 0.16226 0.0
H1131 H 0.25322 0.15131 0.21528 0.0
H1132 H 0.21982 0.1601 0.21748 0.0
H1133 H 0.20419 0.10204 0.21816 0.0
H1134 H 0.23751 0.09289 0.21524 0.0
H1135 H 0.33228 0.08764 0.3481 0.0
H1136 H 0.3221 0.10681 0.29356 0.0
H1137 H 0.28136 0.06475 0.26289 0.0
H1138 H 0.291 0.04581 0.3181 0.0
H1139 H 0.26597 0.0989 0.2637 0.0
H1140 H 0.32141 0.07106 0.2102 0.0
H1141 H 0.3549 0.06264 0.20809 0.0
H1142 H 0.36994 0.12086 0.20931 0.0
H1143 H 0.33653 0.12964 0.21195 0.0
C1144 C 0.25066 0.13883 0.09933 0.0
C1145 C 0.25712 0.15725 0.09367 0.0
C1146 C 0.25849 0.12753 0.12791 0.0
C1147 C 0.27289 0.1344 0.1515 0.0
C1148 C 0.27994 0.15247 0.14495 0.0
C1149 C 0.27209 0.16383 0.11633 0.0
C1150 C 0.28006 0.1229 0.18383 0.0
C1151 C 0.29913 0.11818 0.18475 0.0
C1152 C 0.26795 0.11596 0.21275 0.0
C1153 C 0.24788 0.12141 0.21465 0.0
C1154 C 0.24266 0.14041 0.21555 0.0
C1155 C 0.22374 0.14546 0.21698 0.0
C1156 C 0.20989 0.13164 0.21788 0.0
C1157 C 0.21494 0.11273 0.21741 0.0
C1158 C 0.23384 0.10761 0.21587 0.0
C1159 C 0.32116 0.08247 0.32973 0.0
C1160 C 0.31243 0.0652 0.33749 0.0
C1161 C 0.31547 0.09336 0.29836 0.0
C1162 C 0.30105 0.08715 0.274 0.0
C1163 C 0.29254 0.06979 0.28129 0.0
C1164 C 0.29819 0.0589 0.31266 0.0
C1165 C 0.29422 0.0991 0.24196 0.0
C1166 C 0.27518 0.10401 0.2412 0.0
C1167 C 0.30637 0.10625 0.21331 0.0
C1168 C 0.32647 0.101 0.21166 0.0
C1169 C 0.33186 0.08207 0.21034 0.0
C1170 C 0.35083 0.07723 0.20899 0.0
C1171 C 0.36454 0.0912 0.20867 0.0
C1172 C 0.35931 0.11005 0.20961 0.0
C1173 C 0.34035 0.11496 0.211 0.0
H1174 H 0.37922 0.08742 0.20762 0.0
H1175 H 0.19525 0.13558 0.21904 0.0
H1176 H 0.22733 0.26115 0.94959 0.0
H1177 H 0.21832 0.29403 0.95172 0.0
H1178 H 0.1947 0.28597 0.06462 0.0
H1179 H 0.20364 0.25283 0.06282 0.0
H1180 H 0.17249 0.3087 0.01613 0.0
H1181 H 0.2362 0.30466 0.05929 0.0
H1182 H 0.26926 0.29481 0.05561 0.0
H1183 H 0.27573 0.32526 0.94982 0.0
H1184 H 0.2426 0.33506 0.95254 0.0
H1185 H 0.16964 0.40663 0.05909 0.0
H1186 H 0.17494 0.3728 0.061 0.0
H1187 H 0.2049 0.37613 0.95354 0.0
H1188 H 0.20034 0.40998 0.95221 0.0
H1189 H 0.22363 0.35543 0.00382 0.0
H1190 H 0.15989 0.35861 0.959 0.0
H1191 H 0.12665 0.36795 0.96127 0.0
H1192 H 0.1201 0.3391 0.06892 0.0
H1193 H 0.15339 0.32979 0.06754 0.0
C1194 C 0.2201 0.26626 0.97484 0.0
C1195 C 0.21641 0.25436 0.00625 0.0
C1196 C 0.21499 0.28509 0.97599 0.0
C1197 C 0.2061 0.29246 0.00855 0.0
C1198 C 0.20163 0.28053 0.0393 0.0
C1199 C 0.20681 0.26163 0.03825 0.0
C1200 C 0.20226 0.31281 0.01083 0.0
C1201 C 0.18366 0.31896 0.01404 0.0
C1202 C 0.21685 0.32613 0.00744 0.0
C1203 C 0.23686 0.32046 0.00596 0.0
C1204 C 0.24463 0.30915 0.03509 0.0
C1205 C 0.26339 0.30359 0.0332 0.0
C1206 C 0.27458 0.30937 0.00245 0.0
C1207 C 0.26704 0.32078 0.9736 0.0
C1208 C 0.24828 0.32635 0.97532 0.0
C1209 C 0.17743 0.40017 0.03595 0.0
C1210 C 0.18455 0.41104 0.00546 0.0
C1211 C 0.18028 0.3808 0.03688 0.0
C1212 C 0.19017 0.3719 0.00723 0.0
C1213 C 0.19718 0.38269 0.97669 0.0
C1214 C 0.1944 0.40203 0.97579 0.0
C1215 C 0.19379 0.35143 0.00845 0.0
C1216 C 0.21241 0.34523 0.00605 0.0
C1217 C 0.1792 0.33811 0.0125 0.0
C1218 C 0.15919 0.34368 0.01337 0.0
C1219 C 0.15141 0.35439 0.98332 0.0
C1220 C 0.13255 0.35966 0.98441 0.0
C1221 C 0.12128 0.35417 0.01528 0.0
C1222 C 0.12885 0.34337 0.04506 0.0
C1223 C 0.14771 0.33808 0.04413 0.0
H1224 H 0.10668 0.35825 0.01606 0.0
H1225 H 0.2891 0.30504 0.00103 0.0
H1226 H 0.20608 0.70443 0.55704 0.0
H1227 H 0.17358 0.71529 0.55677 0.0
H1228 H 0.18531 0.75035 0.45844 0.0
H1229 H 0.2176 0.73918 0.45781 0.0
H1230 H 0.15884 0.74819 0.5673 0.0
H1231 H 0.14735 0.75467 0.40201 0.0
H1232 H 0.15784 0.73909 0.34257 0.0
H1233 H 0.16872 0.68855 0.40595 0.0
H1234 H 0.15803 0.70373 0.46564 0.0
H1235 H 0.08136 0.80682 0.52959 0.0
H1236 H 0.11219 0.79183 0.53098 0.0
H1237 H 0.08813 0.74147 0.48328 0.0
H1238 H 0.05741 0.75666 0.48078 0.0
H1239 H 0.11943 0.74793 0.44952 0.0
H1240 H 0.10021 0.74539 0.58066 0.0
H1241 H 0.08845 0.75762 0.64235 0.0
H1242 H 0.13635 0.79375 0.6514 0.0
H1243 H 0.14828 0.78193 0.58948 0.0
C1244 C 0.2017 0.71438 0.53524 0.0
C1245 C 0.21439 0.72089 0.50735 0.0
C1246 C 0.18314 0.72061 0.53518 0.0
C1247 C 0.17695 0.73348 0.50734 0.0
C1248 C 0.18965 0.74012 0.47971 0.0
C1249 C 0.20814 0.73376 0.47948 0.0
C1250 C 0.15731 0.74029 0.50759 0.0
C1251 C 0.1502 0.74808 0.54158 0.0
C1252 C 0.14588 0.73977 0.47428 0.0
C1253 C 0.15204 0.73041 0.43837 0.0
C1254 C 0.15189 0.74021 0.40323 0.0
C1255 C 0.15788 0.73144 0.36949 0.0
C1256 C 0.16399 0.71286 0.37051 0.0
C1257 C 0.16405 0.70297 0.40523 0.0
C1258 C 0.15804 0.71165 0.43903 0.0
C1259 C 0.08269 0.79253 0.51959 0.0
C1260 C 0.06705 0.78286 0.50515 0.0
C1261 C 0.10027 0.78395 0.52049 0.0
C1262 C 0.10244 0.76541 0.50777 0.0
C1263 C 0.08681 0.75578 0.49321 0.0
C1264 C 0.06928 0.76445 0.49179 0.0
C1265 C 0.12107 0.75616 0.50906 0.0
C1266 C 0.12802 0.74795 0.47532 0.0
C1267 C 0.13213 0.75578 0.54293 0.0
C1268 C 0.12505 0.76288 0.58027 0.0
C1269 C 0.10817 0.75604 0.59568 0.0
C1270 C 0.10148 0.76289 0.6307 0.0
C1271 C 0.11162 0.77648 0.65074 0.0
C1272 C 0.1285 0.78323 0.63583 0.0
C1273 C 0.13524 0.77645 0.60079 0.0
H1274 H 0.10642 0.78177 0.67785 0.0
H1275 H 0.16865 0.70611 0.34437 0.0
H1276 H 0.80087 0.75386 0.05327 0.0
H1277 H 0.80999 0.7208 0.05199 0.0
H1278 H 0.78096 0.71383 0.94402 0.0
H1279 H 0.77177 0.74671 0.945 0.0
H1280 H 0.77147 0.68699 0.99653 0.0
H1281 H 0.82778 0.71474 0.94622 0.0
H1282 H 0.85478 0.73629 0.94673 0.0
H1283 H 0.8748 0.71118 0.05138 0.0
H1284 H 0.84775 0.68964 0.0518 0.0
H1285 H 0.80088 0.59705 0.94272 0.0
H1286 H 0.79632 0.6309 0.94363 0.0
H1287 H 0.82827 0.63462 0.04881 0.0
H1288 H 0.83354 0.60075 0.04734 0.0
H1289 H 0.83678 0.66321 0.00062 0.0
H1290 H 0.78096 0.63553 0.05137 0.0
H1291 H 0.75377 0.61422 0.05235 0.0
H1292 H 0.73257 0.63958 0.94893 0.0
H1293 H 0.75979 0.66087 0.94701 0.0
C1294 C 0.79654 0.74533 0.02911 0.0
C1295 C 0.78549 0.75294 0.99934 0.0
C1296 C 0.80183 0.72646 0.02837 0.0
C1297 C 0.79617 0.71488 0.99787 0.0
C1298 C 0.78543 0.72251 0.96786 0.0
C1299 C 0.78024 0.74135 0.96846 0.0
C1300 C 0.80066 0.6946 0.99786 0.0
C1301 C 0.78576 0.68179 0.99691 0.0
C1302 C 0.81929 0.68785 0.99957 0.0
C1303 C 0.83562 0.70071 0.99926 0.0
C1304 C 0.83785 0.71391 0.96952 0.0
C1305 C 0.85318 0.72611 0.9696 0.0
C1306 C 0.86647 0.72514 0.99913 0.0
C1307 C 0.86448 0.71193 0.02856 0.0
C1308 C 0.84916 0.69972 0.02864 0.0
C1309 C 0.80722 0.60506 0.96573 0.0
C1310 C 0.81751 0.59613 0.99507 0.0
C1311 C 0.80444 0.62442 0.96641 0.0
C1312 C 0.81171 0.63526 0.99661 0.0
C1313 C 0.82246 0.62651 0.02534 0.0
C1314 C 0.82529 0.60713 0.02464 0.0
C1315 C 0.80756 0.65562 0.99871 0.0
C1316 C 0.8225 0.66842 0.00024 0.0
C1317 C 0.78893 0.66242 0.99774 0.0
C1318 C 0.77251 0.64967 0.99886 0.0
C1319 C 0.77058 0.63647 0.02867 0.0
C1320 C 0.75515 0.62441 0.02942 0.0
C1321 C 0.74147 0.62551 0.00067 0.0
C1322 C 0.74318 0.63872 0.97115 0.0
C1323 C 0.7586 0.6508 0.97023 0.0
H1324 H 0.72953 0.61617 0.0013 0.0
H1325 H 0.87832 0.7346 0.99914 0.0
H1326 H 0.79462 0.29752 0.55273 0.0
H1327 H 0.82643 0.28468 0.55208 0.0
H1328 H 0.81299 0.25265 0.45067 0.0
H1329 H 0.78122 0.26542 0.45094 0.0
H1330 H 0.83226 0.23202 0.50736 0.0
H1331 H 0.83677 0.29075 0.44045 0.0
H1332 H 0.83195 0.32472 0.43373 0.0
H1333 H 0.86777 0.33459 0.53104 0.0
H1334 H 0.87234 0.30054 0.5391 0.0
H1335 H 0.92372 0.20617 0.45027 0.0
H1336 H 0.89206 0.21925 0.451 0.0
H1337 H 0.90766 0.25569 0.54457 0.0
H1338 H 0.93952 0.24317 0.54309 0.0
H1339 H 0.88711 0.27416 0.4926 0.0
H1340 H 0.88241 0.21609 0.56099 0.0
H1341 H 0.88605 0.18211 0.57127 0.0
H1342 H 0.8505 0.17114 0.47406 0.0
H1343 H 0.84686 0.20509 0.46286 0.0
C1344 C 0.79841 0.28771 0.53035 0.0
C1345 C 0.78541 0.28253 0.50182 0.0
C1346 C 0.81658 0.28042 0.52999 0.0
C1347 C 0.82203 0.2678 0.50122 0.0
C1348 C 0.80902 0.26237 0.47312 0.0
C1349 C 0.79091 0.26977 0.47323 0.0
C1350 C 0.84142 0.26052 0.49994 0.0
C1351 C 0.84426 0.24117 0.50366 0.0
C1352 C 0.85702 0.27258 0.49603 0.0
C1353 C 0.85474 0.29308 0.49062 0.0
C1354 C 0.84351 0.30014 0.4606 0.0
C1355 C 0.84084 0.31943 0.45653 0.0
C1356 C 0.84956 0.33184 0.48191 0.0
C1357 C 0.86101 0.32496 0.51141 0.0
C1358 C 0.86362 0.30566 0.51578 0.0
C1359 C 0.92048 0.21712 0.47069 0.0
C1360 C 0.93411 0.22356 0.49677 0.0
C1361 C 0.90233 0.22445 0.47133 0.0
C1362 C 0.89744 0.23825 0.49821 0.0
C1363 C 0.91111 0.24498 0.52372 0.0
C1364 C 0.92926 0.23769 0.52306 0.0
C1365 C 0.87802 0.24559 0.49994 0.0
C1366 C 0.87514 0.26496 0.49631 0.0
C1367 C 0.86237 0.23356 0.5042 0.0
C1368 C 0.86453 0.21313 0.51085 0.0
C1369 C 0.8755 0.20643 0.5416 0.0
C1370 C 0.87754 0.18718 0.54763 0.0
C1371 C 0.86856 0.17447 0.52327 0.0
C1372 C 0.85748 0.181 0.49287 0.0
C1373 C 0.85541 0.20025 0.48668 0.0
H1374 H 0.87014 0.15957 0.52799 0.0
H1375 H 0.84746 0.34677 0.47875 0.0
H1376 H 0.7107 0.25118 0.43295 0.0
H1377 H 0.70014 0.21862 0.43277 0.0
H1378 H 0.70075 0.2181 0.55696 0.0
H1379 H 0.712 0.2504 0.55723 0.0
H1380 H 0.71695 0.1885 0.53317 0.0
H1381 H 0.65904 0.21815 0.50147 0.0
H1382 H 0.63765 0.23905 0.46579 0.0
H1383 H 0.64768 0.20807 0.36214 0.0
H1384 H 0.66935 0.18712 0.39709 0.0
H1385 H 0.66992 0.10152 0.55448 0.0
H1386 H 0.67464 0.13539 0.55349 0.0
H1387 H 0.68913 0.1329 0.43333 0.0
H1388 H 0.68527 0.09889 0.43427 0.0
H1389 H 0.66405 0.16375 0.4556 0.0
H1390 H 0.72322 0.13494 0.49029 0.0
H1391 H 0.74334 0.11398 0.52886 0.0
H1392 H 0.72877 0.14405 0.63135 0.0
H1393 H 0.70833 0.16502 0.59343 0.0
C1394 C 0.70838 0.24418 0.46021 0.0
C1395 C 0.71228 0.25332 0.49511 0.0
C1396 C 0.70225 0.22557 0.4601 0.0
C1397 C 0.69947 0.21588 0.49488 0.0
C1398 C 0.70285 0.22521 0.52974 0.0
C1399 C 0.70925 0.24369 0.52986 0.0
C1400 C 0.69417 0.19572 0.49502 0.0
C1401 C 0.70517 0.18322 0.51668 0.0
C1402 C 0.67901 0.18864 0.47297 0.0
C1403 C 0.66596 0.20117 0.45184 0.0
C1404 C 0.6568 0.21588 0.471 0.0
C1405 C 0.6446 0.22772 0.45091 0.0
C1406 C 0.64135 0.22492 0.4117 0.0
C1407 C 0.65024 0.21023 0.39251 0.0
C1408 C 0.66246 0.19836 0.41245 0.0
C1409 C 0.67421 0.10809 0.52783 0.0
C1410 C 0.67742 0.09734 0.49456 0.0
C1411 C 0.67673 0.12749 0.52727 0.0
C1412 C 0.6823 0.13658 0.49339 0.0
C1413 C 0.68473 0.12611 0.45971 0.0
C1414 C 0.68244 0.10666 0.46032 0.0
C1415 C 0.68679 0.15683 0.4938 0.0
C1416 C 0.67571 0.16922 0.4722 0.0
C1417 C 0.70168 0.16391 0.51633 0.0
C1418 C 0.71409 0.15142 0.53909 0.0
C1419 C 0.72418 0.13698 0.5211 0.0
C1420 C 0.73567 0.12511 0.54283 0.0
C1421 C 0.73729 0.12765 0.58254 0.0
C1422 C 0.72748 0.14209 0.60059 0.0
C1423 C 0.71595 0.15397 0.57899 0.0
H1424 H 0.74619 0.11845 0.59932 0.0
H1425 H 0.6319 0.2341 0.3962 0.0
H1426 H 0.29 0.22534 0.94134 0.0
H1427 H 0.3212 0.23933 0.94281 0.0
H1428 H 0.3217 0.23554 0.0668 0.0
H1429 H 0.29006 0.22239 0.06551 0.0
H1430 H 0.3349 0.26744 0.04745 0.0
H1431 H 0.34737 0.20486 0.00597 0.0
H1432 H 0.3436 0.1767 0.96576 0.0
H1433 H 0.3605 0.2079 0.86596 0.0
H1434 H 0.36413 0.23633 0.90548 0.0
H1435 H 0.43419 0.28122 0.0652 0.0
H1436 H 0.40287 0.26733 0.06591 0.0
H1437 H 0.39542 0.28205 0.94651 0.0
H1438 H 0.42637 0.29663 0.94579 0.0
H1439 H 0.38644 0.24414 0.96484 0.0
H1440 H 0.37353 0.30688 0.00921 0.0
H1441 H 0.37772 0.3342 0.05161 0.0
H1442 H 0.36258 0.30081 0.14962 0.0
H1443 H 0.35856 0.2732 0.10783 0.0
C1444 C 0.29682 0.22739 0.96889 0.0
C1445 C 0.28764 0.22274 0.00332 0.0
C1446 C 0.3147 0.23532 0.96971 0.0
C1447 C 0.32399 0.23821 0.0049 0.0
C1448 C 0.31484 0.23346 0.0393 0.0
C1449 C 0.29679 0.2259 0.03854 0.0
C1450 C 0.34304 0.2466 0.00588 0.0
C1451 C 0.34622 0.26212 0.02982 0.0
C1452 C 0.35781 0.2399 0.98244 0.0
C1453 C 0.35587 0.22277 0.95865 0.0
C1454 C 0.35018 0.20575 0.97541 0.0
C1455 C 0.34808 0.18973 0.95274 0.0
C1456 C 0.35177 0.19052 0.91331 0.0
C1457 C 0.35763 0.20731 0.8965 0.0
C1458 C 0.35973 0.22338 0.91903 0.0
C1459 C 0.4258 0.2818 0.03923 0.0
C1460 C 0.43287 0.29004 0.0054 0.0
C1461 C 0.40795 0.27375 0.03966 0.0
C1462 C 0.3969 0.27368 0.00625 0.0
C1463 C 0.40383 0.28187 0.9725 0.0
C1464 C 0.42157 0.29011 0.97214 0.0
C1465 C 0.37814 0.26486 0.0063 0.0
C1466 C 0.37507 0.24931 0.98256 0.0
C1467 C 0.36358 0.27133 0.03033 0.0
C1468 C 0.36594 0.28793 0.05545 0.0
C1469 C 0.37126 0.30532 0.03985 0.0
C1470 C 0.37357 0.32087 0.06376 0.0
C1471 C 0.37047 0.31923 0.1033 0.0
C1472 C 0.36501 0.30205 0.119 0.0
C1473 C 0.36269 0.28645 0.09521 0.0
H1474 H 0.37226 0.33128 0.12177 0.0
H1475 H 0.35011 0.17811 0.89581 0.0
H1476 H 0.27037 0.76381 0.5574 0.0
H1477 H 0.27932 0.79676 0.55611 0.0
H1478 H 0.30905 0.78807 0.44979 0.0
H1479 H 0.30016 0.75491 0.45075 0.0
H1480 H 0.32878 0.81036 0.503 0.0
H1481 H 0.26789 0.80749 0.44502 0.0
H1482 H 0.23461 0.7984 0.44091 0.0
H1483 H 0.22285 0.82948 0.54366 0.0
H1484 H 0.25614 0.83851 0.54874 0.0
H1485 H 0.33648 0.90772 0.45781 0.0
H1486 H 0.33022 0.87406 0.4557 0.0
H1487 H 0.29496 0.87893 0.55582 0.0
H1488 H 0.3006 0.91265 0.55731 0.0
H1489 H 0.27839 0.85825 0.50195 0.0
H1490 H 0.33915 0.86029 0.5616 0.0
H1491 H 0.37251 0.86889 0.56725 0.0
H1492 H 0.38459 0.8393 0.46283 0.0
H1493 H 0.35124 0.83073 0.45626 0.0
C1494 C 0.27889 0.76882 0.53378 0.0
C1495 C 0.28441 0.75673 0.50398 0.0
C1496 C 0.28395 0.78769 0.53307 0.0
C1497 C 0.29465 0.79487 0.50263 0.0
C1498 C 0.30073 0.78278 0.47346 0.0
C1499 C 0.29557 0.76387 0.474 0.0
C1500 C 0.29901 0.81514 0.50099 0.0
C1501 C 0.31781 0.82087 0.50216 0.0
C1502 C 0.28464 0.82877 0.50065 0.0
C1503 C 0.26455 0.82354 0.49745 0.0
C1504 C 0.25824 0.81227 0.46691 0.0
C1505 C 0.23937 0.80714 0.46438 0.0
C1506 C 0.22664 0.81332 0.49206 0.0
C1507 C 0.23274 0.82468 0.52226 0.0
C1508 C 0.25161 0.82983 0.52496 0.0
C1509 C 0.32733 0.90164 0.47928 0.0
C1510 C 0.31906 0.91288 0.50778 0.0
C1511 C 0.32391 0.88236 0.47825 0.0
C1512 C 0.31225 0.87394 0.50582 0.0
C1513 C 0.30403 0.88512 0.53432 0.0
C1514 C 0.30742 0.90437 0.53535 0.0
C1515 C 0.3082 0.85357 0.5045 0.0
C1516 C 0.28942 0.84779 0.50265 0.0
C1517 C 0.3226 0.83992 0.50433 0.0
C1518 C 0.34266 0.84505 0.50822 0.0
C1519 C 0.34889 0.85576 0.53966 0.0
C1520 C 0.3678 0.8606 0.54307 0.0
C1521 C 0.38065 0.85469 0.51536 0.0
C1522 C 0.37462 0.84389 0.48423 0.0
C1523 C 0.35571 0.83902 0.48067 0.0
H1524 H 0.39529 0.85845 0.51805 0.0
H1525 H 0.21203 0.80933 0.49006 0.0
H1526 H 0.70505 0.79894 0.95117 0.0
H1527 H 0.67351 0.78548 0.95301 0.0
H1528 H 0.68733 0.75633 0.05812 0.0
H1529 H 0.71883 0.76961 0.05655 0.0
H1530 H 0.67062 0.73349 0.00439 0.0
H1531 H 0.65991 0.79418 0.06108 0.0
H1532 H 0.66101 0.82869 0.0631 0.0
H1533 H 0.62753 0.83158 0.96047 0.0
H1534 H 0.62644 0.79709 0.95754 0.0
H1535 H 0.58013 0.70277 0.05784 0.0
H1536 H 0.61089 0.7178 0.05694 0.0
H1537 H 0.59445 0.75018 0.95749 0.0
H1538 H 0.56341 0.73579 0.95917 0.0
H1539 H 0.61253 0.77162 0.00742 0.0
H1540 H 0.62307 0.71204 0.94894 0.0
H1541 H 0.62229 0.67763 0.94343 0.0
H1542 H 0.65639 0.67259 0.04487 0.0
H1543 H 0.65715 0.70699 0.0513 0.0
C1544 C 0.70136 0.78972 0.97476 0.0
C1545 C 0.71448 0.78532 0.00366 0.0
C1546 C 0.68332 0.78211 0.97583 0.0
C1547 C 0.6781 0.76999 0.0058 0.0
C1548 C 0.69111 0.76565 0.03474 0.0
C1549 C 0.70909 0.77331 0.03383 0.0
C1550 C 0.65924 0.76139 0.00654 0.0
C1551 C 0.65791 0.7418 0.0056 0.0
C1552 C 0.6427 0.7723 0.00693 0.0
C1553 C 0.64325 0.79304 0.00888 0.0
C1554 C 0.65291 0.80217 0.03877 0.0
C1555 C 0.65351 0.82173 0.04012 0.0
C1556 C 0.64439 0.83231 0.01185 0.0
C1557 C 0.6346 0.82336 0.98229 0.0
C1558 C 0.63397 0.80381 0.9808 0.0
C1559 C 0.58299 0.71321 0.036 0.0
C1560 C 0.56933 0.71801 0.00847 0.0
C1561 C 0.60065 0.72166 0.03529 0.0
C1562 C 0.60505 0.73493 0.00683 0.0
C1563 C 0.59138 0.73991 0.97961 0.0
C1564 C 0.57371 0.73153 0.98038 0.0
C1565 C 0.62389 0.74367 0.00551 0.0
C1566 C 0.62523 0.76328 0.00628 0.0
C1567 C 0.64046 0.73279 0.00456 0.0
C1568 C 0.64 0.71209 0.00083 0.0
C1569 C 0.63027 0.70359 0.97027 0.0
C1570 C 0.62985 0.68409 0.96694 0.0
C1571 C 0.63924 0.67293 0.99385 0.0
C1572 C 0.6491 0.68126 0.02409 0.0
C1573 C 0.64954 0.70075 0.02757 0.0
H1574 H 0.63891 0.65783 0.99121 0.0
H1575 H 0.64487 0.84744 0.01284 0.0
loop_
_geom_bond_atom_site_label_1
_geom_bond_atom_site_label_2
_geom_bond_distance
_geom_bond_site_symmetry_2
_ccdc_geom_bond_type
Fe0 O2 1.918 . S
Fe0 O5 1.997 . S
Fe0 O6 2.002 . S
Fe0 O11 1.976 . S
Fe0 O14 1.996 . S
Fe1 O2 1.918 1_556 S
Fe1 O9 1.997 . S
Fe1 O12 1.996 . S
Fe1 O16 1.976 . S
Fe1 O19 2.002 . S
O2 Fe0 1.918 . S
O2 Fe1 1.918 1_554 S
O2 Fe3 1.918 . S
Fe3 O2 1.918 . S
Fe3 O4 2.002 . S
Fe3 O13 1.976 . S
Fe3 O17 1.996 1_554 S
Fe3 O20 1.997 1_554 S
O4 Fe3 2.002 . S
O4 C21 1.295 . S
O5 Fe0 1.997 . S
O5 C21 1.235 . S
O6 Fe0 2.002 . S
O6 C7 1.295 . S
C7 O6 1.295 . S
C7 O9 1.235 1_554 S
C8 O13 1.287 . S
C8 O14 1.255 . S
O9 Fe1 1.997 . S
O9 C7 1.235 1_556 S
C10 O16 1.287 . S
C10 O17 1.255 . S
O11 Fe0 1.976 . S
O11 C18 1.287 . S
O12 Fe1 1.996 . S
O12 C18 1.255 1_556 S
O13 Fe3 1.976 . S
O13 C8 1.287 . S
O14 Fe0 1.996 . S
O14 C8 1.255 . S
C15 O19 1.295 . S
C15 O20 1.235 . S
O16 Fe1 1.976 . S
O16 C10 1.287 . S
O17 Fe3 1.996 1_556 S
O17 C10 1.255 . S
C18 O11 1.287 . S
C18 O12 1.255 1_554 S
O19 Fe1 2.002 . S
O19 C15 1.295 . S
O20 Fe3 1.997 1_556 S
O20 C15 1.235 . S
C21 O4 1.295 . S
C21 O5 1.235 . S
Fe22 O24 1.918 . S
Fe22 O27 1.997 . S
Fe22 O28 2.002 . S
Fe22 O33 1.976 . S
Fe22 O36 1.996 . S
Fe23 O24 1.918 . S
Fe23 O31 1.997 . S
Fe23 O34 1.996 . S
Fe23 O38 1.976 . S
Fe23 O41 2.002 . S
O24 Fe22 1.918 . S
O24 Fe23 1.918 . S
O24 Fe25 1.918 . S
Fe25 O24 1.918 . S
Fe25 O26 2.002 . S
Fe25 O35 1.976 . S
Fe25 O39 1.996 . S
Fe25 O42 1.997 . S
O26 Fe25 2.002 . S
O26 C43 1.295 . S
O27 Fe22 1.997 . S
O27 C43 1.235 . S
O28 Fe22 2.002 . S
O28 C29 1.295 . S
C29 O28 1.295 . S
C29 O31 1.235 . S
C30 O35 1.287 . S
C30 O36 1.255 . S
O31 Fe23 1.997 . S
O31 C29 1.235 . S
C32 O38 1.287 . S
C32 O39 1.255 . S
O33 Fe22 1.976 . S
O33 C40 1.287 . S
O34 Fe23 1.996 . S
O34 C40 1.255 . S
O35 Fe25 1.976 . S
O35 C30 1.287 . S
O36 Fe22 1.996 . S
O36 C30 1.255 . S
C37 O41 1.295 . S
C37 O42 1.235 . S
O38 Fe23 1.976 . S
O38 C32 1.287 . S
O39 Fe25 1.996 . S
O39 C32 1.255 . S
C40 O33 1.287 . S
C40 O34 1.255 . S
O41 Fe23 2.002 . S
O41 C37 1.295 . S
O42 Fe25 1.997 . S
O42 C37 1.235 . S
C43 O26 1.295 . S
C43 O27 1.235 . S
Fe44 O46 1.918 1_556 S
Fe44 O49 1.997 . S
Fe44 O50 2.002 . S
Fe44 O55 1.976 . S
Fe44 O58 1.996 . S
Fe45 O46 1.918 . S
Fe45 O53 1.997 . S
Fe45 O56 1.996 . S
Fe45 O60 1.976 . S
Fe45 O63 2.002 . S
O46 Fe44 1.918 1_554 S
O46 Fe45 1.918 . S
O46 Fe47 1.918 . S
Fe47 O46 1.918 . S
Fe47 O48 2.002 1_554 S
Fe47 O57 1.976 1_554 S
Fe47 O61 1.996 . S
Fe47 O64 1.997 . S
O48 Fe47 2.002 1_556 S
O48 C65 1.295 . S
O49 Fe44 1.997 . S
O49 C65 1.235 . S
O50 Fe44 2.002 . S
O50 C51 1.295 1_556 S
C51 O50 1.295 1_554 S
C51 O53 1.235 . S
C52 O57 1.287 . S
C52 O58 1.255 . S
O53 Fe45 1.997 . S
O53 C51 1.235 . S
C54 O60 1.287 . S
C54 O61 1.255 . S
O55 Fe44 1.976 . S
O55 C62 1.287 1_556 S
O56 Fe45 1.996 . S
O56 C62 1.255 . S
O57 Fe47 1.976 1_556 S
O57 C52 1.287 . S
O58 Fe44 1.996 . S
O58 C52 1.255 . S
C59 O63 1.295 . S
C59 O64 1.235 . S
O60 Fe45 1.976 . S
O60 C54 1.287 . S
O61 Fe47 1.996 . S
O61 C54 1.255 . S
C62 O55 1.287 1_554 S
C62 O56 1.255 . S
O63 Fe45 2.002 . S
O63 C59 1.295 . S
O64 Fe47 1.997 . S
O64 C59 1.235 . S
C65 O48 1.295 . S
C65 O49 1.235 . S
Fe66 O68 1.918 . S
Fe66 O71 1.997 . S
Fe66 O72 2.002 . S
Fe66 O77 1.976 . S
Fe66 O80 1.996 . S
Fe67 O68 1.918 . S
Fe67 O75 1.997 . S
Fe67 O78 1.996 . S
Fe67 O82 1.976 . S
Fe67 O85 2.002 . S
O68 Fe66 1.918 . S
O68 Fe67 1.918 . S
O68 Fe69 1.918 . S
Fe69 O68 1.918 . S
Fe69 O70 2.002 . S
Fe69 O79 1.976 . S
Fe69 O83 1.996 . S
Fe69 O86 1.997 . S
O70 Fe69 2.002 . S
O70 C87 1.295 . S
O71 Fe66 1.997 . S
O71 C87 1.235 . S
O72 Fe66 2.002 . S
O72 C73 1.295 . S
C73 O72 1.295 . S
C73 O75 1.235 . S
C74 O79 1.287 . S
C74 O80 1.255 . S
O75 Fe67 1.997 . S
O75 C73 1.235 . S
C76 O82 1.287 . S
C76 O83 1.255 . S
O77 Fe66 1.976 . S
O77 C84 1.287 . S
O78 Fe67 1.996 . S
O78 C84 1.255 . S
O79 Fe69 1.976 . S
O79 C74 1.287 . S
O80 Fe66 1.996 . S
O80 C74 1.255 . S
C81 O85 1.295 . S
C81 O86 1.235 . S
O82 Fe67 1.976 . S
O82 C76 1.287 . S
O83 Fe69 1.996 . S
O83 C76 1.255 . S
C84 O77 1.287 . S
C84 O78 1.255 . S
O85 Fe67 2.002 . S
O85 C81 1.295 . S
O86 Fe69 1.997 . S
O86 C81 1.235 . S
C87 O70 1.295 . S
C87 O71 1.235 . S
C88 C89 1.384 . S
C88 H101 0.947 . S
C88 C123 1.382 . S
C89 C88 1.384 . S
C89 C90 1.378 . S
C90 C89 1.378 . S
C90 C91 1.378 . S
C90 H102 0.952 . S
C91 C90 1.378 . S
C91 H103 0.950 . S
C91 C122 1.383 . S
H92 C111 0.947 . S
H93 C112 0.946 . S
H94 C114 0.953 . S
H95 C115 0.945 . S
H96 C117 0.952 . S
H97 C118 0.949 . S
H98 C120 0.950 . S
H99 C121 0.948 . S
H100 C123 0.951 . S
H101 C88 0.947 . S
H102 C90 0.952 . S
H103 C91 0.950 . S
N104 C107 1.382 . S
N104 C109 1.363 . S
N105 C107 1.371 1_556 S
N105 C108 1.372 . S
N106 C108 1.362 1_554 S
N106 C109 1.375 . S
C107 N104 1.382 . S
C107 N105 1.371 1_554 S
C107 C110 1.480 . S
C108 N105 1.372 . S
C108 N106 1.362 1_556 S
C108 C116 1.457 . S
C109 N104 1.363 . S
C109 N106 1.375 . S
C109 C122 1.479 . S
C110 C107 1.480 . S
C110 C111 1.398 . S
C110 C115 1.370 1_554 S
C111 H92 0.947 . S
C111 C110 1.398 . S
C111 C112 1.388 . S
C112 H93 0.946 . S
C112 C111 1.388 . S
C112 C113 1.402 . S
C113 C112 1.402 . S
C113 C114 1.358 1_554 S
C114 H94 0.953 . S
C114 C113 1.358 1_556 S
C114 C115 1.369 . S
C115 H95 0.945 . S
C115 C110 1.370 1_556 S
C115 C114 1.369 . S
C116 C108 1.457 . S
C116 C117 1.372 . S
C116 C121 1.364 . S
C117 H96 0.952 . S
C117 C116 1.372 . S
C117 C118 1.389 . S
C118 H97 0.949 . S
C118 C117 1.389 . S
C118 C119 1.387 . S
C119 C118 1.387 . S
C119 C120 1.372 . S
C120 H98 0.950 . S
C120 C119 1.372 . S
C120 C121 1.379 . S
C121 H99 0.948 . S
C121 C116 1.364 . S
C121 C120 1.379 . S
C122 C91 1.383 . S
C122 C109 1.479 . S
C122 C123 1.398 . S
C123 C88 1.382 . S
C123 H100 0.951 . S
C123 C122 1.398 . S
C124 C125 1.384 . S
C124 H137 0.947 . S
C124 C159 1.382 . S
C125 C124 1.384 . S
C125 C126 1.378 . S
C126 C125 1.378 . S
C126 C127 1.378 . S
C126 H138 0.952 . S
C127 C126 1.378 . S
C127 H139 0.950 . S
C127 C158 1.383 . S
H128 C147 0.947 . S
H129 C148 0.946 . S
H130 C150 0.953 . S
H131 C151 0.945 . S
H132 C153 0.952 . S
H133 C154 0.949 . S
H134 C156 0.950 . S
H135 C157 0.948 . S
H136 C159 0.951 . S
H137 C124 0.947 . S
H138 C126 0.952 . S
H139 C127 0.950 . S
N140 C143 1.357 1_655 S
N140 C145 1.363 . S
N141 C143 1.347 1_655 S
N141 C144 1.372 . S
N142 C144 1.361 . S
N142 C145 1.377 . S
C143 N140 1.357 1_455 S
C143 N141 1.347 1_455 S
C143 C146 1.531 . S
C144 N141 1.372 . S
C144 N142 1.361 . S
C144 C152 1.457 . S
C145 N140 1.363 . S
C145 N142 1.377 . S
C145 C158 1.479 . S
C146 C143 1.531 . S
C146 C147 1.383 . S
C146 C151 1.385 . S
C147 H128 0.947 . S
C147 C146 1.383 . S
C147 C148 1.388 . S
C148 H129 0.946 . S
C148 C147 1.388 . S
C148 C149 1.384 . S
C149 C148 1.384 . S
C149 C150 1.377 . S
C150 H130 0.953 . S
C150 C149 1.377 . S
C150 C151 1.369 . S
C151 H131 0.945 . S
C151 C146 1.385 . S
C151 C150 1.369 . S
C152 C144 1.457 . S
C152 C153 1.372 . S
C152 C157 1.364 . S
C153 H132 0.952 . S
C153 C152 1.372 . S
C153 C154 1.389 . S
C154 H133 0.949 . S
C154 C153 1.389 . S
C154 C155 1.387 . S
C155 C154 1.387 . S
C155 C156 1.372 . S
C156 H134 0.950 . S
C156 C155 1.372 . S
C156 C157 1.379 . S
C157 H135 0.948 . S
C157 C152 1.364 . S
C157 C156 1.379 . S
C158 C127 1.383 . S
C158 C145 1.479 . S
C158 C159 1.398 . S
C159 C124 1.382 . S
C159 H136 0.951 . S
C159 C158 1.398 . S
C160 C161 1.384 . S
C160 H173 0.947 . S
C160 C195 1.382 . S
C161 C160 1.384 . S
C161 C162 1.378 . S
C162 C161 1.378 . S
C162 C163 1.378 . S
C162 H174 0.952 . S
C163 C162 1.378 . S
C163 H175 0.950 . S
C163 C194 1.383 . S
H164 C183 0.947 . S
H165 C184 0.946 . S
H166 C186 0.953 . S
H167 C187 0.945 . S
H168 C189 0.952 . S
H169 C190 0.949 . S
H170 C192 0.950 . S
H171 C193 0.948 . S
H172 C195 0.951 . S
H173 C160 0.947 . S
H174 C162 0.952 . S
H175 C163 0.950 . S
N176 C179 1.382 1_556 S
N176 C181 1.363 . S
N177 C179 1.371 . S
N177 C180 1.372 . S
N178 C180 1.361 . S
N178 C181 1.377 1_554 S
C179 N176 1.382 1_554 S
C179 N177 1.371 . S
C179 C182 1.480 . S
C180 N177 1.372 . S
C180 N178 1.361 . S
C180 C188 1.457 . S
C181 N176 1.363 . S
C181 N178 1.377 1_556 S
C181 C194 1.479 . S
C182 C179 1.480 . S
C182 C183 1.383 1_554 S
C182 C187 1.385 . S
C183 H164 0.947 . S
C183 C182 1.383 1_556 S
C183 C184 1.388 . S
C184 H165 0.946 . S
C184 C183 1.388 . S
C184 C185 1.384 1_556 S
C185 C184 1.384 1_554 S
C185 C186 1.377 . S
C186 H166 0.953 . S
C186 C185 1.377 . S
C186 C187 1.369 . S
C187 H167 0.945 . S
C187 C182 1.385 . S
C187 C186 1.369 . S
C188 C180 1.457 . S
C188 C189 1.372 . S
C188 C193 1.364 . S
C189 H168 0.952 . S
C189 C188 1.372 . S
C189 C190 1.389 . S
C190 H169 0.949 . S
C190 C189 1.389 . S
C190 C191 1.387 . S
C191 C190 1.387 . S
C191 C192 1.372 . S
C192 H170 0.950 . S
C192 C191 1.372 . S
C192 C193 1.379 . S
C193 H171 0.948 . S
C193 C188 1.364 . S
C193 C192 1.379 . S
C194 C163 1.383 . S
C194 C181 1.479 . S
C194 C195 1.398 . S
C195 C160 1.382 . S
C195 H172 0.951 . S
C195 C194 1.398 . S
C196 C197 1.384 . S
C196 H209 0.947 . S
C196 C231 1.382 . S
C197 C196 1.384 . S
C197 C198 1.378 . S
C198 C197 1.378 . S
C198 C199 1.378 . S
C198 H210 0.952 . S
C199 C198 1.378 . S
C199 H211 0.950 . S
C199 C230 1.383 . S
H200 C219 0.947 . S
H201 C220 0.946 . S
H202 C222 0.953 . S
H203 C223 0.945 . S
H204 C225 0.952 . S
H205 C226 0.949 . S
H206 C228 0.950 . S
H207 C229 0.948 . S
H208 C231 0.951 . S
H209 C196 0.947 . S
H210 C198 0.952 . S
H211 C199 0.950 . S
N212 C215 1.382 . S
N212 C217 1.363 . S
N213 C215 1.371 . S
N213 C216 1.372 . S
N214 C216 1.361 . S
N214 C217 1.377 . S
C215 N212 1.382 . S
C215 N213 1.371 . S
C215 C218 1.480 1_455 S
C216 N213 1.372 . S
C216 N214 1.361 . S
C216 C224 1.457 . S
C217 N212 1.363 . S
C217 N214 1.377 . S
C217 C230 1.479 . S
C218 C215 1.480 1_655 S
C218 C219 1.383 . S
C218 C223 1.385 . S
C219 H200 0.947 . S
C219 C218 1.383 . S
C219 C220 1.388 . S
C220 H201 0.946 . S
C220 C219 1.388 . S
C220 C221 1.384 . S
C221 C220 1.384 . S
C221 C222 1.377 . S
C222 H202 0.953 . S
C222 C221 1.377 . S
C222 C223 1.369 . S
C223 H203 0.945 . S
C223 C218 1.385 . S
C223 C222 1.369 . S
C224 C216 1.457 . S
C224 C225 1.372 . S
C224 C229 1.364 . S
C225 H204 0.952 . S
C225 C224 1.372 . S
C225 C226 1.389 . S
C226 H205 0.949 . S
C226 C225 1.389 . S
C226 C227 1.387 . S
C227 C226 1.387 . S
C227 C228 1.372 . S
C228 H206 0.950 . S
C228 C227 1.372 . S
C228 C229 1.379 . S
C229 H207 0.948 . S
C229 C224 1.364 . S
C229 C228 1.379 . S
C230 C199 1.383 . S
C230 C217 1.479 . S
C230 C231 1.398 . S
C231 C196 1.382 . S
C231 H208 0.951 . S
C231 C230 1.398 . S
C232 C233 1.384 . S
C232 H245 0.947 . S
C232 C267 1.382 . S
C233 C232 1.384 . S
C233 C234 1.378 . S
C234 C233 1.378 . S
C234 C235 1.378 . S
C234 H246 0.952 . S
C235 C234 1.378 . S
C235 H247 0.950 . S
C235 C266 1.383 . S
H236 C255 0.947 . S
H237 C256 0.946 . S
H238 C258 0.953 . S
H239 C259 0.945 . S
H240 C261 0.952 . S
H241 C262 0.949 . S
H242 C264 0.950 . S
H243 C265 0.948 . S
H244 C267 0.951 . S
H245 C232 0.947 . S
H246 C234 0.952 . S
H247 C235 0.950 . S
N248 C251 1.382 . S
N248 C253 1.363 1_545 S
N249 C251 1.371 . S
N249 C252 1.372 1_545 S
N250 C252 1.361 . S
N250 C253 1.377 . S
C251 N248 1.382 . S
C251 N249 1.371 . S
C251 C254 1.480 . S
C252 N249 1.372 1_565 S
C252 N250 1.361 . S
C252 C260 1.457 . S
C253 N248 1.363 1_565 S
C253 N250 1.377 . S
C253 C266 1.479 . S
C254 C251 1.480 . S
C254 C255 1.383 . S
C254 C259 1.385 . S
C255 H236 0.947 . S
C255 C254 1.383 . S
C255 C256 1.388 . S
C256 H237 0.946 . S
C256 C255 1.388 . S
C256 C257 1.384 . S
C257 C256 1.384 . S
C257 C258 1.377 . S
C258 H238 0.953 . S
C258 C257 1.377 . S
C258 C259 1.369 . S
C259 H239 0.945 . S
C259 C254 1.385 . S
C259 C258 1.369 . S
C260 C252 1.457 . S
C260 C261 1.372 . S
C260 C265 1.364 . S
C261 H240 0.952 . S
C261 C260 1.372 . S
C261 C262 1.389 . S
C262 H241 0.949 . S
C262 C261 1.389 . S
C262 C263 1.387 . S
C263 C262 1.387 . S
C263 C264 1.372 . S
C264 H242 0.950 . S
C264 C263 1.372 . S
C264 C265 1.379 . S
C265 H243 0.948 . S
C265 C260 1.364 . S
C265 C264 1.379 . S
C266 C235 1.383 . S
C266 C253 1.479 . S
C266 C267 1.398 . S
C267 C232 1.382 . S
C267 H244 0.951 . S
C267 C266 1.398 . S
C268 C269 1.384 . S
C268 H281 0.947 . S
C268 C303 1.382 . S
C269 C268 1.384 . S
C269 C270 1.378 . S
C270 C269 1.378 . S
C270 C271 1.378 . S
C270 H282 0.952 . S
C271 C270 1.378 . S
C271 H283 0.950 . S
C271 C302 1.383 . S
H272 C291 0.947 . S
H273 C292 0.946 . S
H274 C294 0.953 . S
H275 C295 0.945 . S
H276 C297 0.952 . S
H277 C298 0.949 . S
H278 C300 0.950 . S
H279 C301 0.948 . S
H280 C303 0.951 . S
H281 C268 0.947 . S
H282 C270 0.952 . S
H283 C271 0.950 . S
N284 C287 1.382 1_556 S
N284 C289 1.363 . S
N285 C287 1.371 . S
N285 C288 1.372 . S
N286 C288 1.361 . S
N286 C289 1.377 1_554 S
C287 N284 1.382 1_554 S
C287 N285 1.371 . S
C287 C290 1.480 . S
C288 N285 1.372 . S
C288 N286 1.361 . S
C288 C296 1.457 . S
C289 N284 1.363 . S
C289 N286 1.377 1_556 S
C289 C302 1.479 . S
C290 C287 1.480 . S
C290 C291 1.383 1_554 S
C290 C295 1.385 . S
C291 H272 0.947 . S
C291 C290 1.383 1_556 S
C291 C292 1.388 . S
C292 H273 0.946 . S
C292 C291 1.388 . S
C292 C293 1.384 1_556 S
C293 C292 1.384 1_554 S
C293 C294 1.377 . S
C294 H274 0.953 . S
C294 C293 1.377 . S
C294 C295 1.369 . S
C295 H275 0.945 . S
C295 C290 1.385 . S
C295 C294 1.369 . S
C296 C288 1.457 . S
C296 C297 1.372 . S
C296 C301 1.364 . S
C297 H276 0.952 . S
C297 C296 1.372 . S
C297 C298 1.389 . S
C298 H277 0.949 . S
C298 C297 1.389 . S
C298 C299 1.387 . S
C299 C298 1.387 . S
C299 C300 1.372 . S
C300 H278 0.950 . S
C300 C299 1.372 . S
C300 C301 1.379 . S
C301 H279 0.948 . S
C301 C296 1.364 . S
C301 C300 1.379 . S
C302 C271 1.383 . S
C302 C289 1.479 . S
C302 C303 1.398 . S
C303 C268 1.382 . S
C303 H280 0.951 . S
C303 C302 1.398 . S
C304 C305 1.384 . S
C304 H317 0.947 . S
C304 C339 1.382 . S
C305 C304 1.384 . S
C305 C306 1.378 . S
C306 C305 1.378 . S
C306 C307 1.378 . S
C306 H318 0.952 . S
C307 C306 1.378 . S
C307 H319 0.950 . S
C307 C338 1.383 . S
H308 C327 0.947 . S
H309 C328 0.946 . S
H310 C330 0.953 . S
H311 C331 0.945 . S
H312 C333 0.952 . S
H313 C334 0.949 . S
H314 C336 0.950 . S
H315 C337 0.948 . S
H316 C339 0.951 . S
H317 C304 0.947 . S
H318 C306 0.952 . S
H319 C307 0.950 . S
N320 C323 1.382 1_545 S
N320 C325 1.363 . S
N321 C323 1.371 1_545 S
N321 C324 1.372 . S
N322 C324 1.361 . S
N322 C325 1.377 . S
C323 N320 1.382 1_565 S
C323 N321 1.371 1_565 S
C323 C326 1.480 . S
C324 N321 1.372 . S
C324 N322 1.361 . S
C324 C332 1.457 . S
C325 N320 1.363 . S
C325 N322 1.377 . S
C325 C338 1.479 . S
C326 C323 1.480 . S
C326 C327 1.383 . S
C326 C331 1.385 . S
C327 H308 0.947 . S
C327 C326 1.383 . S
C327 C328 1.388 . S
C328 H309 0.946 . S
C328 C327 1.388 . S
C328 C329 1.384 . S
C329 C328 1.384 . S
C329 C330 1.377 . S
C330 H310 0.953 . S
C330 C329 1.377 . S
C330 C331 1.369 . S
C331 H311 0.945 . S
C331 C326 1.385 . S
C331 C330 1.369 . S
C332 C324 1.457 . S
C332 C333 1.372 . S
C332 C337 1.364 . S
C333 H312 0.952 . S
C333 C332 1.372 . S
C333 C334 1.389 . S
C334 H313 0.949 . S
C334 C333 1.389 . S
C334 C335 1.387 . S
C335 C334 1.387 . S
C335 C336 1.372 . S
C336 H314 0.950 . S
C336 C335 1.372 . S
C336 C337 1.379 . S
C337 H315 0.948 . S
C337 C332 1.364 . S
C337 C336 1.379 . S
C338 C307 1.383 . S
C338 C325 1.479 . S
C338 C339 1.398 . S
C339 C304 1.382 . S
C339 H316 0.951 . S
C339 C338 1.398 . S
C340 C341 1.384 . S
C340 H353 0.947 . S
C340 C375 1.382 . S
C341 C340 1.384 . S
C341 C342 1.378 . S
C342 C341 1.378 . S
C342 C343 1.378 . S
C342 H354 0.952 . S
C343 C342 1.378 . S
C343 H355 0.950 . S
C343 C374 1.383 . S
H344 C363 0.947 . S
H345 C364 0.946 . S
H346 C366 0.953 . S
H347 C367 0.945 . S
H348 C369 0.952 . S
H349 C370 0.949 . S
H350 C372 0.950 . S
H351 C373 0.948 . S
H352 C375 0.951 . S
H353 C340 0.947 . S
H354 C342 0.952 . S
H355 C343 0.950 . S
N356 C359 1.382 . S
N356 C361 1.363 . S
N357 C359 1.371 1_556 S
N357 C360 1.372 . S
N358 C360 1.338 1_554 S
N358 C361 1.400 . S
C359 N356 1.382 . S
C359 N357 1.371 1_554 S
C359 C362 1.480 . S
C360 N357 1.372 . S
C360 N358 1.338 1_556 S
C360 C368 1.457 . S
C361 N356 1.363 . S
C361 N358 1.400 . S
C361 C374 1.479 . S
C362 C359 1.480 . S
C362 C363 1.383 . S
C362 C367 1.385 1_554 S
C363 H344 0.947 . S
C363 C362 1.383 . S
C363 C364 1.388 . S
C364 H345 0.946 . S
C364 C363 1.388 . S
C364 C365 1.384 . S
C365 C364 1.384 . S
C365 C366 1.377 1_554 S
C366 H346 0.953 . S
C366 C365 1.377 1_556 S
C366 C367 1.369 . S
C367 H347 0.945 . S
C367 C362 1.385 1_556 S
C367 C366 1.369 . S
C368 C360 1.457 . S
C368 C369 1.372 . S
C368 C373 1.364 . S
C369 H348 0.952 . S
C369 C368 1.372 . S
C369 C370 1.389 . S
C370 H349 0.949 . S
C370 C369 1.389 . S
C370 C371 1.387 . S
C371 C370 1.387 . S
C371 C372 1.372 . S
C372 H350 0.950 . S
C372 C371 1.372 . S
C372 C373 1.379 . S
C373 H351 0.948 . S
C373 C368 1.364 . S
C373 C372 1.379 . S
C374 C343 1.383 . S
C374 C361 1.479 . S
C374 C375 1.398 . S
C375 C340 1.382 . S
C375 H352 0.951 . S
C375 C374 1.398 . S
H376 C394 0.951 . S
H377 C396 0.951 . S
H378 C398 0.950 . S
H379 C399 0.950 . S
H380 C401 0.950 . S
H381 C404 0.950 . S
H382 C405 0.950 . S
H383 C407 0.950 . S
H384 C408 0.950 . S
H385 C409 0.951 . S
H386 C411 0.951 . S
H387 C413 0.950 . S
H388 C414 0.950 . S
H389 C416 0.950 . S
H390 C419 0.950 . S
H391 C420 0.950 . S
H392 C422 0.950 . S
H393 C423 0.950 . S
C394 H376 0.951 . S
C394 C395 1.366 . S
C394 C396 1.388 . S
C395 C394 1.366 . S
C395 C399 1.385 . S
C396 H377 0.951 . S
C396 C394 1.388 . S
C396 C397 1.366 . S
C397 C396 1.366 . S
C397 C398 1.414 . S
C397 C400 1.499 . S
C398 H378 0.950 . S
C398 C397 1.414 . S
C398 C399 1.374 . S
C399 H379 0.950 . S
C399 C395 1.385 . S
C399 C398 1.374 . S
C400 C397 1.499 . S
C400 C401 1.373 . S
C400 C402 1.389 . S
C401 H380 0.950 . S
C401 C400 1.373 . S
C401 C417 1.377 . S
C402 C400 1.389 . S
C402 C403 1.524 . S
C402 C416 1.377 . S
C403 C402 1.524 . S
C403 C404 1.397 . S
C403 C408 1.363 . S
C404 H381 0.950 . S
C404 C403 1.397 . S
C404 C405 1.334 . S
C405 H382 0.950 . S
C405 C404 1.334 . S
C405 C406 1.287 . S
C406 C405 1.287 . S
C406 C407 1.524 . S
C406 H425 0.913 . S
C407 H383 0.950 . S
C407 C406 1.524 . S
C407 C408 1.415 . S
C408 H384 0.950 . S
C408 C403 1.363 . S
C408 C407 1.415 . S
C409 H385 0.951 . S
C409 C410 1.366 . S
C409 C411 1.388 . S
C410 C409 1.366 . S
C410 C414 1.385 . S
C411 H386 0.951 . S
C411 C409 1.388 . S
C411 C412 1.366 . S
C412 C411 1.366 . S
C412 C413 1.414 . S
C412 C415 1.499 . S
C413 H387 0.950 . S
C413 C412 1.414 . S
C413 C414 1.374 . S
C414 H388 0.950 . S
C414 C410 1.385 . S
C414 C413 1.374 . S
C415 C412 1.499 . S
C415 C416 1.373 . S
C415 C417 1.389 . S
C416 H389 0.950 . S
C416 C402 1.377 . S
C416 C415 1.373 . S
C417 C401 1.377 . S
C417 C415 1.389 . S
C417 C418 1.524 . S
C418 C417 1.524 . S
C418 C419 1.397 . S
C418 C423 1.363 . S
C419 H390 0.950 . S
C419 C418 1.397 . S
C419 C420 1.334 . S
C420 H391 0.950 . S
C420 C419 1.334 . S
C420 C421 1.287 . S
C421 C420 1.287 . S
C421 C422 1.524 . S
C421 H424 0.999 . S
C422 H392 0.950 . S
C422 C421 1.524 . S
C422 C423 1.415 . S
C423 H393 0.950 . S
C423 C418 1.363 . S
C423 C422 1.415 . S
H424 C421 0.999 . S
H425 C406 0.913 . S
H426 C444 0.951 . S
H427 C446 0.951 . S
H428 C448 0.950 . S
H429 C449 0.950 . S
H430 C451 0.950 . S
H431 C454 0.950 . S
H432 C455 0.950 . S
H433 C457 0.950 . S
H434 C458 0.950 . S
H435 C459 0.951 . S
H436 C461 0.951 . S
H437 C463 0.950 . S
H438 C464 0.950 . S
H439 C466 0.950 . S
H440 C469 0.950 . S
H441 C470 0.950 . S
H442 C472 0.950 . S
H443 C473 0.950 . S
C444 H426 0.951 . S
C444 C445 1.366 . S
C444 C446 1.388 . S
C445 C444 1.366 . S
C445 C449 1.385 . S
C446 H427 0.951 . S
C446 C444 1.388 . S
C446 C447 1.366 . S
C447 C446 1.366 . S
C447 C448 1.414 . S
C447 C450 1.499 . S
C448 H428 0.950 . S
C448 C447 1.414 . S
C448 C449 1.374 . S
C449 H429 0.950 . S
C449 C445 1.385 . S
C449 C448 1.374 . S
C450 C447 1.499 . S
C450 C451 1.373 . S
C450 C452 1.389 . S
C451 H430 0.950 . S
C451 C450 1.373 . S
C451 C467 1.377 . S
C452 C450 1.389 . S
C452 C453 1.524 . S
C452 C466 1.377 . S
C453 C452 1.524 . S
C453 C454 1.397 . S
C453 C458 1.363 . S
C454 H431 0.950 . S
C454 C453 1.397 . S
C454 C455 1.334 . S
C455 H432 0.950 . S
C455 C454 1.334 . S
C455 C456 1.287 . S
C456 C455 1.287 . S
C456 C457 1.524 . S
C456 H475 0.913 . S
C457 H433 0.950 . S
C457 C456 1.524 . S
C457 C458 1.415 . S
C458 H434 0.950 . S
C458 C453 1.363 . S
C458 C457 1.415 . S
C459 H435 0.951 . S
C459 C460 1.366 . S
C459 C461 1.388 . S
C460 C459 1.366 . S
C460 C464 1.385 . S
C461 H436 0.951 . S
C461 C459 1.388 . S
C461 C462 1.366 . S
C462 C461 1.366 . S
C462 C463 1.414 . S
C462 C465 1.499 . S
C463 H437 0.950 . S
C463 C462 1.414 . S
C463 C464 1.374 . S
C464 H438 0.950 . S
C464 C460 1.385 . S
C464 C463 1.374 . S
C465 C462 1.499 . S
C465 C466 1.373 . S
C465 C467 1.389 . S
C466 H439 0.950 . S
C466 C452 1.377 . S
C466 C465 1.373 . S
C467 C451 1.377 . S
C467 C465 1.389 . S
C467 C468 1.524 . S
C468 C467 1.524 . S
C468 C469 1.397 . S
C468 C473 1.363 . S
C469 H440 0.950 . S
C469 C468 1.397 . S
C469 C470 1.334 . S
C470 H441 0.950 . S
C470 C469 1.334 . S
C470 C471 1.287 . S
C471 C470 1.287 . S
C471 C472 1.524 . S
C471 H474 0.999 . S
C472 H442 0.950 . S
C472 C471 1.524 . S
C472 C473 1.415 . S
C473 H443 0.950 . S
C473 C468 1.363 . S
C473 C472 1.415 . S
H474 C471 0.999 . S
H475 C456 0.913 . S
H476 C494 0.951 . S
H477 C496 0.951 . S
H478 C498 0.950 . S
H479 C499 0.950 . S
H480 C501 0.950 . S
H481 C504 0.950 . S
H482 C505 0.950 . S
H483 C507 0.950 . S
H484 C508 0.950 . S
H485 C509 0.951 . S
H486 C511 0.951 . S
H487 C513 0.950 . S
H488 C514 0.950 . S
H489 C516 0.950 . S
H490 C519 0.950 . S
H491 C520 0.950 . S
H492 C522 0.950 . S
H493 C523 0.950 . S
C494 H476 0.951 . S
C494 C495 1.366 . S
C494 C496 1.388 . S
C495 C494 1.366 . S
C495 C499 1.385 . S
C496 H477 0.951 . S
C496 C494 1.388 . S
C496 C497 1.366 . S
C497 C496 1.366 . S
C497 C498 1.414 . S
C497 C500 1.499 . S
C498 H478 0.950 . S
C498 C497 1.414 . S
C498 C499 1.374 . S
C499 H479 0.950 . S
C499 C495 1.385 . S
C499 C498 1.374 . S
C500 C497 1.499 . S
C500 C501 1.373 . S
C500 C502 1.389 . S
C501 H480 0.950 . S
C501 C500 1.373 . S
C501 C517 1.377 . S
C502 C500 1.389 . S
C502 C503 1.524 . S
C502 C516 1.377 . S
C503 C502 1.524 . S
C503 C504 1.397 . S
C503 C508 1.363 . S
C504 H481 0.950 . S
C504 C503 1.397 . S
C504 C505 1.334 . S
C505 H482 0.950 . S
C505 C504 1.334 . S
C505 C506 1.287 . S
C506 C505 1.287 . S
C506 C507 1.524 . S
C506 H525 0.913 . S
C507 H483 0.950 . S
C507 C506 1.524 . S
C507 C508 1.415 . S
C508 H484 0.950 . S
C508 C503 1.363 . S
C508 C507 1.415 . S
C509 H485 0.951 . S
C509 C510 1.366 . S
C509 C511 1.388 . S
C510 C509 1.366 . S
C510 C514 1.385 . S
C511 H486 0.951 . S
C511 C509 1.388 . S
C511 C512 1.366 . S
C512 C511 1.366 . S
C512 C513 1.414 . S
C512 C515 1.499 . S
C513 H487 0.950 . S
C513 C512 1.414 . S
C513 C514 1.374 . S
C514 H488 0.950 . S
C514 C510 1.385 . S
C514 C513 1.374 . S
C515 C512 1.499 . S
C515 C516 1.373 . S
C515 C517 1.389 . S
C516 H489 0.950 . S
C516 C502 1.377 . S
C516 C515 1.373 . S
C517 C501 1.377 . S
C517 C515 1.389 . S
C517 C518 1.524 . S
C518 C517 1.524 . S
C518 C519 1.397 . S
C518 C523 1.363 . S
C519 H490 0.950 . S
C519 C518 1.397 . S
C519 C520 1.334 . S
C520 H491 0.950 . S
C520 C519 1.334 . S
C520 C521 1.287 . S
C521 C520 1.287 . S
C521 C522 1.524 . S
C521 H524 0.999 . S
C522 H492 0.950 . S
C522 C521 1.524 . S
C522 C523 1.415 . S
C523 H493 0.950 . S
C523 C518 1.363 . S
C523 C522 1.415 . S
H524 C521 0.999 . S
H525 C506 0.913 . S
H526 C544 0.951 . S
H527 C546 0.951 . S
H528 C548 0.950 . S
H529 C549 0.950 . S
H530 C551 0.950 . S
H531 C554 0.950 . S
H532 C555 0.950 . S
H533 C557 0.950 . S
H534 C558 0.950 . S
H535 C559 0.951 . S
H536 C561 0.951 . S
H537 C563 0.950 . S
H538 C564 0.950 . S
H539 C566 0.950 . S
H540 C569 0.950 . S
H541 C570 0.950 . S
H542 C572 0.950 . S
H543 C573 0.950 . S
C544 H526 0.951 . S
C544 C545 1.366 . S
C544 C546 1.388 . S
C545 C544 1.366 . S
C545 C549 1.385 . S
C546 H527 0.951 . S
C546 C544 1.388 . S
C546 C547 1.366 . S
C547 C546 1.366 . S
C547 C548 1.414 . S
C547 C550 1.499 . S
C548 H528 0.950 . S
C548 C547 1.414 . S
C548 C549 1.374 . S
C549 H529 0.950 . S
C549 C545 1.385 . S
C549 C548 1.374 . S
C550 C547 1.499 . S
C550 C551 1.373 . S
C550 C552 1.389 . S
C551 H530 0.950 . S
C551 C550 1.373 . S
C551 C567 1.377 . S
C552 C550 1.389 . S
C552 C553 1.524 . S
C552 C566 1.377 . S
C553 C552 1.524 . S
C553 C554 1.397 . S
C553 C558 1.363 . S
C554 H531 0.950 . S
C554 C553 1.397 . S
C554 C555 1.334 . S
C555 H532 0.950 . S
C555 C554 1.334 . S
C555 C556 1.287 . S
C556 C555 1.287 . S
C556 C557 1.524 . S
C556 H575 0.913 . S
C557 H533 0.950 . S
C557 C556 1.524 . S
C557 C558 1.415 . S
C558 H534 0.950 . S
C558 C553 1.363 . S
C558 C557 1.415 . S
C559 H535 0.951 . S
C559 C560 1.366 . S
C559 C561 1.388 . S
C560 C559 1.366 . S
C560 C564 1.385 . S
C561 H536 0.951 . S
C561 C559 1.388 . S
C561 C562 1.366 . S
C562 C561 1.366 . S
C562 C563 1.414 . S
C562 C565 1.499 . S
C563 H537 0.950 . S
C563 C562 1.414 . S
C563 C564 1.374 . S
C564 H538 0.950 . S
C564 C560 1.385 . S
C564 C563 1.374 . S
C565 C562 1.499 . S
C565 C566 1.373 . S
C565 C567 1.389 . S
C566 H539 0.950 . S
C566 C552 1.377 . S
C566 C565 1.373 . S
C567 C551 1.377 . S
C567 C565 1.389 . S
C567 C568 1.524 . S
C568 C567 1.524 . S
C568 C569 1.397 . S
C568 C573 1.363 . S
C569 H540 0.950 . S
C569 C568 1.397 . S
C569 C570 1.334 . S
C570 H541 0.950 . S
C570 C569 1.334 . S
C570 C571 1.287 . S
C571 C570 1.287 . S
C571 C572 1.524 . S
C571 H574 0.999 . S
C572 H542 0.950 . S
C572 C571 1.524 . S
C572 C573 1.415 . S
C573 H543 0.950 . S
C573 C568 1.363 . S
C573 C572 1.415 . S
H574 C571 0.999 . S
H575 C556 0.913 . S
H576 C594 0.951 . S
H577 C596 0.951 . S
H578 C598 0.950 . S
H579 C599 0.950 . S
H580 C601 0.950 . S
H581 C604 0.950 . S
H582 C605 0.950 . S
H583 C607 0.950 . S
H584 C608 0.950 . S
H585 C609 0.951 . S
H586 C611 0.951 . S
H587 C613 0.950 . S
H588 C614 0.950 . S
H589 C616 0.950 . S
H590 C619 0.950 . S
H591 C620 0.950 . S
H592 C622 0.950 . S
H593 C623 0.950 . S
C594 H576 0.951 . S
C594 C595 1.366 . S
C594 C596 1.388 . S
C595 C594 1.366 . S
C595 C599 1.385 . S
C596 H577 0.951 . S
C596 C594 1.388 . S
C596 C597 1.366 . S
C597 C596 1.366 . S
C597 C598 1.414 . S
C597 C600 1.499 . S
C598 H578 0.950 . S
C598 C597 1.414 . S
C598 C599 1.374 . S
C599 H579 0.950 . S
C599 C595 1.385 . S
C599 C598 1.374 . S
C600 C597 1.499 . S
C600 C601 1.373 . S
C600 C602 1.389 . S
C601 H580 0.950 . S
C601 C600 1.373 . S
C601 C617 1.377 . S
C602 C600 1.389 . S
C602 C603 1.524 . S
C602 C616 1.377 . S
C603 C602 1.524 . S
C603 C604 1.397 . S
C603 C608 1.363 . S
C604 H581 0.950 . S
C604 C603 1.397 . S
C604 C605 1.334 . S
C605 H582 0.950 . S
C605 C604 1.334 . S
C605 C606 1.287 . S
C606 C605 1.287 . S
C606 C607 1.524 . S
C606 H625 0.913 . S
C607 H583 0.950 . S
C607 C606 1.524 . S
C607 C608 1.415 . S
C608 H584 0.950 . S
C608 C603 1.363 . S
C608 C607 1.415 . S
C609 H585 0.951 . S
C609 C610 1.366 . S
C609 C611 1.388 . S
C610 C609 1.366 . S
C610 C614 1.385 . S
C611 H586 0.951 . S
C611 C609 1.388 . S
C611 C612 1.366 . S
C612 C611 1.366 . S
C612 C613 1.414 . S
C612 C615 1.499 . S
C613 H587 0.950 . S
C613 C612 1.414 . S
C613 C614 1.374 . S
C614 H588 0.950 . S
C614 C610 1.385 . S
C614 C613 1.374 . S
C615 C612 1.499 . S
C615 C616 1.373 . S
C615 C617 1.389 . S
C616 H589 0.950 . S
C616 C602 1.377 . S
C616 C615 1.373 . S
C617 C601 1.377 . S
C617 C615 1.389 . S
C617 C618 1.524 . S
C618 C617 1.524 . S
C618 C619 1.397 . S
C618 C623 1.363 . S
C619 H590 0.950 . S
C619 C618 1.397 . S
C619 C620 1.334 . S
C620 H591 0.950 . S
C620 C619 1.334 . S
C620 C621 1.287 . S
C621 C620 1.287 . S
C621 C622 1.524 . S
C621 H624 0.999 . S
C622 H592 0.950 . S
C622 C621 1.524 . S
C622 C623 1.415 . S
C623 H593 0.950 . S
C623 C618 1.363 . S
C623 C622 1.415 . S
H624 C621 0.999 . S
H625 C606 0.913 . S
H626 C644 0.951 . S
H627 C646 0.951 . S
H628 C648 0.950 . S
H629 C649 0.950 . S
H630 C651 0.950 . S
H631 C654 0.950 . S
H632 C655 0.950 . S
H633 C657 0.950 . S
H634 C658 0.950 . S
H635 C659 0.951 . S
H636 C661 0.951 . S
H637 C663 0.950 . S
H638 C664 0.950 . S
H639 C666 0.950 . S
H640 C669 0.950 . S
H641 C670 0.950 . S
H642 C672 0.950 . S
H643 C673 0.950 . S
C644 H626 0.951 . S
C644 C645 1.366 . S
C644 C646 1.388 . S
C645 C644 1.366 . S
C645 C649 1.385 . S
C646 H627 0.951 . S
C646 C644 1.388 . S
C646 C647 1.366 . S
C647 C646 1.366 . S
C647 C648 1.414 . S
C647 C650 1.499 . S
C648 H628 0.950 . S
C648 C647 1.414 . S
C648 C649 1.374 . S
C649 H629 0.950 . S
C649 C645 1.385 . S
C649 C648 1.374 . S
C650 C647 1.499 . S
C650 C651 1.373 . S
C650 C652 1.389 . S
C651 H630 0.950 . S
C651 C650 1.373 . S
C651 C667 1.377 . S
C652 C650 1.389 . S
C652 C653 1.524 . S
C652 C666 1.377 . S
C653 C652 1.524 . S
C653 C654 1.397 . S
C653 C658 1.363 . S
C654 H631 0.950 . S
C654 C653 1.397 . S
C654 C655 1.334 . S
C655 H632 0.950 . S
C655 C654 1.334 . S
C655 C656 1.287 . S
C656 C655 1.287 . S
C656 C657 1.524 . S
C656 H675 0.913 . S
C657 H633 0.950 . S
C657 C656 1.524 . S
C657 C658 1.415 . S
C658 H634 0.950 . S
C658 C653 1.363 . S
C658 C657 1.415 . S
C659 H635 0.951 . S
C659 C660 1.366 . S
C659 C661 1.388 . S
C660 C659 1.366 . S
C660 C664 1.385 . S
C661 H636 0.951 . S
C661 C659 1.388 . S
C661 C662 1.366 . S
C662 C661 1.366 . S
C662 C663 1.414 . S
C662 C665 1.499 . S
C663 H637 0.950 . S
C663 C662 1.414 . S
C663 C664 1.374 . S
C664 H638 0.950 . S
C664 C660 1.385 . S
C664 C663 1.374 . S
C665 C662 1.499 . S
C665 C666 1.373 . S
C665 C667 1.389 . S
C666 H639 0.950 . S
C666 C652 1.377 . S
C666 C665 1.373 . S
C667 C651 1.377 . S
C667 C665 1.389 . S
C667 C668 1.524 . S
C668 C667 1.524 . S
C668 C669 1.397 . S
C668 C673 1.363 . S
C669 H640 0.950 . S
C669 C668 1.397 . S
C669 C670 1.334 . S
C670 H641 0.950 . S
C670 C669 1.334 . S
C670 C671 1.287 . S
C671 C670 1.287 . S
C671 C672 1.524 . S
C671 H674 0.999 . S
C672 H642 0.950 . S
C672 C671 1.524 . S
C672 C673 1.415 . S
C673 H643 0.950 . S
C673 C668 1.363 . S
C673 C672 1.415 . S
H674 C671 0.999 . S
H675 C656 0.913 . S
H676 C694 0.951 . S
H677 C696 0.951 . S
H678 C698 0.950 . S
H679 C699 0.950 . S
H680 C701 0.950 . S
H681 C704 0.950 . S
H682 C705 0.950 . S
H683 C707 0.950 . S
H684 C708 0.950 . S
H685 C709 0.951 . S
H686 C711 0.951 . S
H687 C713 0.950 . S
H688 C714 0.950 . S
H689 C716 0.950 . S
H690 C719 0.950 . S
H691 C720 0.950 . S
H692 C722 0.950 . S
H693 C723 0.950 . S
C694 H676 0.951 . S
C694 C695 1.366 . S
C694 C696 1.388 . S
C695 C694 1.366 . S
C695 C699 1.385 . S
C696 H677 0.951 . S
C696 C694 1.388 . S
C696 C697 1.366 . S
C697 C696 1.366 . S
C697 C698 1.414 . S
C697 C700 1.499 . S
C698 H678 0.950 . S
C698 C697 1.414 . S
C698 C699 1.374 . S
C699 H679 0.950 . S
C699 C695 1.385 . S
C699 C698 1.374 . S
C700 C697 1.499 . S
C700 C701 1.373 . S
C700 C702 1.389 . S
C701 H680 0.950 . S
C701 C700 1.373 . S
C701 C717 1.377 . S
C702 C700 1.389 . S
C702 C703 1.524 . S
C702 C716 1.377 . S
C703 C702 1.524 . S
C703 C704 1.397 . S
C703 C708 1.363 . S
C704 H681 0.950 . S
C704 C703 1.397 . S
C704 C705 1.334 . S
C705 H682 0.950 . S
C705 C704 1.334 . S
C705 C706 1.287 . S
C706 C705 1.287 . S
C706 C707 1.524 . S
C706 H725 0.913 . S
C707 H683 0.950 . S
C707 C706 1.524 . S
C707 C708 1.415 . S
C708 H684 0.950 . S
C708 C703 1.363 . S
C708 C707 1.415 . S
C709 H685 0.951 . S
C709 C710 1.366 . S
C709 C711 1.388 . S
C710 C709 1.366 . S
C710 C714 1.385 . S
C711 H686 0.951 . S
C711 C709 1.388 . S
C711 C712 1.366 . S
C712 C711 1.366 . S
C712 C713 1.414 . S
C712 C715 1.499 . S
C713 H687 0.950 . S
C713 C712 1.414 . S
C713 C714 1.374 . S
C714 H688 0.950 . S
C714 C710 1.385 . S
C714 C713 1.374 . S
C715 C712 1.499 . S
C715 C716 1.373 . S
C715 C717 1.389 . S
C716 H689 0.950 . S
C716 C702 1.377 . S
C716 C715 1.373 . S
C717 C701 1.377 . S
C717 C715 1.389 . S
C717 C718 1.524 . S
C718 C717 1.524 . S
C718 C719 1.397 . S
C718 C723 1.363 . S
C719 H690 0.950 . S
C719 C718 1.397 . S
C719 C720 1.334 . S
C720 H691 0.950 . S
C720 C719 1.334 . S
C720 C721 1.287 . S
C721 C720 1.287 . S
C721 C722 1.524 . S
C721 H724 0.999 . S
C722 H692 0.950 . S
C722 C721 1.524 . S
C722 C723 1.415 . S
C723 H693 0.950 . S
C723 C718 1.363 . S
C723 C722 1.415 . S
H724 C721 0.999 . S
H725 C706 0.913 . S
H726 C744 0.951 . S
H727 C746 0.951 . S
H728 C748 0.950 . S
H729 C749 0.950 . S
H730 C751 0.950 . S
H731 C754 0.950 . S
H732 C755 0.950 . S
H733 C757 0.950 . S
H734 C758 0.950 . S
H735 C759 0.951 . S
H736 C761 0.951 . S
H737 C763 0.950 . S
H738 C764 0.950 . S
H739 C766 0.950 . S
H740 C769 0.950 . S
H741 C770 0.950 . S
H742 C772 0.950 . S
H743 C773 0.950 . S
C744 H726 0.951 . S
C744 C745 1.366 . S
C744 C746 1.388 . S
C745 C744 1.366 . S
C745 C749 1.385 . S
C746 H727 0.951 . S
C746 C744 1.388 . S
C746 C747 1.366 . S
C747 C746 1.366 . S
C747 C748 1.414 . S
C747 C750 1.499 . S
C748 H728 0.950 . S
C748 C747 1.414 . S
C748 C749 1.374 . S
C749 H729 0.950 . S
C749 C745 1.385 . S
C749 C748 1.374 . S
C750 C747 1.499 . S
C750 C751 1.373 . S
C750 C752 1.389 . S
C751 H730 0.950 . S
C751 C750 1.373 . S
C751 C767 1.377 . S
C752 C750 1.389 . S
C752 C753 1.524 . S
C752 C766 1.377 . S
C753 C752 1.524 . S
C753 C754 1.397 . S
C753 C758 1.363 . S
C754 H731 0.950 . S
C754 C753 1.397 . S
C754 C755 1.334 . S
C755 H732 0.950 . S
C755 C754 1.334 . S
C755 C756 1.287 . S
C756 C755 1.287 . S
C756 C757 1.524 . S
C756 H775 0.913 . S
C757 H733 0.950 . S
C757 C756 1.524 . S
C757 C758 1.415 . S
C758 H734 0.950 . S
C758 C753 1.363 . S
C758 C757 1.415 . S
C759 H735 0.951 . S
C759 C760 1.366 . S
C759 C761 1.388 . S
C760 C759 1.366 . S
C760 C764 1.385 . S
C761 H736 0.951 . S
C761 C759 1.388 . S
C761 C762 1.366 . S
C762 C761 1.366 . S
C762 C763 1.414 . S
C762 C765 1.499 . S
C763 H737 0.950 . S
C763 C762 1.414 . S
C763 C764 1.374 . S
C764 H738 0.950 . S
C764 C760 1.385 . S
C764 C763 1.374 . S
C765 C762 1.499 . S
C765 C766 1.373 . S
C765 C767 1.389 . S
C766 H739 0.950 . S
C766 C752 1.377 . S
C766 C765 1.373 . S
C767 C751 1.377 . S
C767 C765 1.389 . S
C767 C768 1.524 . S
C768 C767 1.524 . S
C768 C769 1.397 . S
C768 C773 1.363 . S
C769 H740 0.950 . S
C769 C768 1.397 . S
C769 C770 1.334 . S
C770 H741 0.950 . S
C770 C769 1.334 . S
C770 C771 1.287 . S
C771 C770 1.287 . S
C771 C772 1.524 . S
C771 H774 0.999 . S
C772 H742 0.950 . S
C772 C771 1.524 . S
C772 C773 1.415 . S
C773 H743 0.950 . S
C773 C768 1.363 . S
C773 C772 1.415 . S
H774 C771 0.999 . S
H775 C756 0.913 . S
H776 C794 0.951 . S
H777 C796 0.951 . S
H778 C798 0.950 . S
H779 C799 0.950 . S
H780 C801 0.950 . S
H781 C804 0.950 . S
H782 C805 0.950 . S
H783 C807 0.950 . S
H784 C808 0.950 . S
H785 C809 0.951 . S
H786 C811 0.951 . S
H787 C813 0.950 . S
H788 C814 0.950 . S
H789 C816 0.950 . S
H790 C819 0.950 . S
H791 C820 0.950 . S
H792 C822 0.950 . S
H793 C823 0.950 . S
C794 H776 0.951 . S
C794 C795 1.366 . S
C794 C796 1.388 . S
C795 C794 1.366 . S
C795 C799 1.385 . S
C796 H777 0.951 . S
C796 C794 1.388 . S
C796 C797 1.366 . S
C797 C796 1.366 . S
C797 C798 1.414 . S
C797 C800 1.499 . S
C798 H778 0.950 . S
C798 C797 1.414 . S
C798 C799 1.374 . S
C799 H779 0.950 . S
C799 C795 1.385 . S
C799 C798 1.374 . S
C800 C797 1.499 . S
C800 C801 1.373 . S
C800 C802 1.389 . S
C801 H780 0.950 . S
C801 C800 1.373 . S
C801 C817 1.377 . S
C802 C800 1.389 . S
C802 C803 1.524 . S
C802 C816 1.377 . S
C803 C802 1.524 . S
C803 C804 1.397 . S
C803 C808 1.363 . S
C804 H781 0.950 . S
C804 C803 1.397 . S
C804 C805 1.334 . S
C805 H782 0.950 . S
C805 C804 1.334 . S
C805 C806 1.287 . S
C806 C805 1.287 . S
C806 C807 1.524 . S
C806 H825 0.913 . S
C807 H783 0.950 . S
C807 C806 1.524 . S
C807 C808 1.415 . S
C808 H784 0.950 . S
C808 C803 1.363 . S
C808 C807 1.415 . S
C809 H785 0.951 . S
C809 C810 1.366 . S
C809 C811 1.388 . S
C810 C809 1.366 . S
C810 C814 1.385 . S
C811 H786 0.951 . S
C811 C809 1.388 . S
C811 C812 1.366 . S
C812 C811 1.366 . S
C812 C813 1.414 . S
C812 C815 1.499 . S
C813 H787 0.950 . S
C813 C812 1.414 . S
C813 C814 1.374 . S
C814 H788 0.950 . S
C814 C810 1.385 . S
C814 C813 1.374 . S
C815 C812 1.499 . S
C815 C816 1.373 . S
C815 C817 1.389 . S
C816 H789 0.950 . S
C816 C802 1.377 . S
C816 C815 1.373 . S
C817 C801 1.377 . S
C817 C815 1.389 . S
C817 C818 1.524 . S
C818 C817 1.524 . S
C818 C819 1.397 . S
C818 C823 1.363 . S
C819 H790 0.950 . S
C819 C818 1.397 . S
C819 C820 1.334 . S
C820 H791 0.950 . S
C820 C819 1.334 . S
C820 C821 1.287 . S
C821 C820 1.287 . S
C821 C822 1.524 . S
C821 H824 0.999 . S
C822 H792 0.950 . S
C822 C821 1.524 . S
C822 C823 1.415 . S
C823 H793 0.950 . S
C823 C818 1.363 . S
C823 C822 1.415 . S
H824 C821 0.999 . S
H825 C806 0.913 . S
H826 C844 0.951 . S
H827 C846 0.951 . S
H828 C848 0.950 . S
H829 C849 0.950 . S
H830 C851 0.950 . S
H831 C854 0.950 . S
H832 C855 0.950 . S
H833 C857 0.950 . S
H834 C858 0.950 . S
H835 C859 0.951 . S
H836 C861 0.951 . S
H837 C863 0.950 . S
H838 C864 0.950 . S
H839 C866 0.950 . S
H840 C869 0.950 . S
H841 C870 0.950 . S
H842 C872 0.950 . S
H843 C873 0.950 . S
C844 H826 0.951 . S
C844 C845 1.366 . S
C844 C846 1.388 . S
C845 C844 1.366 . S
C845 C849 1.385 . S
C846 H827 0.951 . S
C846 C844 1.388 . S
C846 C847 1.366 . S
C847 C846 1.366 . S
C847 C848 1.414 . S
C847 C850 1.499 . S
C848 H828 0.950 . S
C848 C847 1.414 . S
C848 C849 1.374 . S
C849 H829 0.950 . S
C849 C845 1.385 . S
C849 C848 1.374 . S
C850 C847 1.499 . S
C850 C851 1.373 . S
C850 C852 1.389 . S
C851 H830 0.950 . S
C851 C850 1.373 . S
C851 C867 1.377 . S
C852 C850 1.389 . S
C852 C853 1.524 . S
C852 C866 1.377 . S
C853 C852 1.524 . S
C853 C854 1.397 . S
C853 C858 1.363 . S
C854 H831 0.950 . S
C854 C853 1.397 . S
C854 C855 1.334 . S
C855 H832 0.950 . S
C855 C854 1.334 . S
C855 C856 1.287 . S
C856 C855 1.287 . S
C856 C857 1.524 . S
C856 H875 0.913 . S
C857 H833 0.950 . S
C857 C856 1.524 . S
C857 C858 1.415 . S
C858 H834 0.950 . S
C858 C853 1.363 . S
C858 C857 1.415 . S
C859 H835 0.951 . S
C859 C860 1.366 . S
C859 C861 1.388 . S
C860 C859 1.366 . S
C860 C864 1.385 . S
C861 H836 0.951 . S
C861 C859 1.388 . S
C861 C862 1.366 . S
C862 C861 1.366 . S
C862 C863 1.414 . S
C862 C865 1.499 . S
C863 H837 0.950 . S
C863 C862 1.414 . S
C863 C864 1.374 . S
C864 H838 0.950 . S
C864 C860 1.385 . S
C864 C863 1.374 . S
C865 C862 1.499 . S
C865 C866 1.373 . S
C865 C867 1.389 . S
C866 H839 0.950 . S
C866 C852 1.377 . S
C866 C865 1.373 . S
C867 C851 1.377 . S
C867 C865 1.389 . S
C867 C868 1.524 . S
C868 C867 1.524 . S
C868 C869 1.397 . S
C868 C873 1.363 . S
C869 H840 0.950 . S
C869 C868 1.397 . S
C869 C870 1.334 . S
C870 H841 0.950 . S
C870 C869 1.334 . S
C870 C871 1.287 . S
C871 C870 1.287 . S
C871 C872 1.524 . S
C871 H874 0.999 . S
C872 H842 0.950 . S
C872 C871 1.524 . S
C872 C873 1.415 . S
C873 H843 0.950 . S
C873 C868 1.363 . S
C873 C872 1.415 . S
H874 C871 0.999 . S
H875 C856 0.913 . S
H876 C894 0.951 . S
H877 C896 0.951 . S
H878 C898 0.950 . S
H879 C899 0.950 . S
H880 C901 0.950 . S
H881 C904 0.950 . S
H882 C905 0.950 . S
H883 C907 0.950 . S
H884 C908 0.950 . S
H885 C909 0.951 . S
H886 C911 0.951 . S
H887 C913 0.950 . S
H888 C914 0.950 . S
H889 C916 0.950 . S
H890 C919 0.950 . S
H891 C920 0.950 . S
H892 C922 0.950 . S
H893 C923 0.950 . S
C894 H876 0.951 . S
C894 C895 1.366 . S
C894 C896 1.388 . S
C895 C894 1.366 . S
C895 C899 1.385 . S
C896 H877 0.951 . S
C896 C894 1.388 . S
C896 C897 1.366 . S
C897 C896 1.366 . S
C897 C898 1.414 . S
C897 C900 1.499 . S
C898 H878 0.950 . S
C898 C897 1.414 . S
C898 C899 1.374 . S
C899 H879 0.950 . S
C899 C895 1.385 . S
C899 C898 1.374 . S
C900 C897 1.499 . S
C900 C901 1.373 . S
C900 C902 1.389 . S
C901 H880 0.950 . S
C901 C900 1.373 . S
C901 C917 1.377 . S
C902 C900 1.389 . S
C902 C903 1.524 . S
C902 C916 1.377 . S
C903 C902 1.524 . S
C903 C904 1.397 . S
C903 C908 1.363 . S
C904 H881 0.950 . S
C904 C903 1.397 . S
C904 C905 1.334 . S
C905 H882 0.950 . S
C905 C904 1.334 . S
C905 C906 1.287 . S
C906 C905 1.287 . S
C906 C907 1.524 . S
C906 H925 0.913 . S
C907 H883 0.950 . S
C907 C906 1.524 . S
C907 C908 1.415 . S
C908 H884 0.950 . S
C908 C903 1.363 . S
C908 C907 1.415 . S
C909 H885 0.951 . S
C909 C910 1.366 . S
C909 C911 1.388 . S
C910 C909 1.366 . S
C910 C914 1.385 . S
C911 H886 0.951 . S
C911 C909 1.388 . S
C911 C912 1.366 . S
C912 C911 1.366 . S
C912 C913 1.414 . S
C912 C915 1.499 . S
C913 H887 0.950 . S
C913 C912 1.414 . S
C913 C914 1.374 . S
C914 H888 0.950 . S
C914 C910 1.385 . S
C914 C913 1.374 . S
C915 C912 1.499 . S
C915 C916 1.373 . S
C915 C917 1.389 . S
C916 H889 0.950 . S
C916 C902 1.377 . S
C916 C915 1.373 . S
C917 C901 1.377 . S
C917 C915 1.389 . S
C917 C918 1.524 . S
C918 C917 1.524 . S
C918 C919 1.397 . S
C918 C923 1.363 . S
C919 H890 0.950 . S
C919 C918 1.397 . S
C919 C920 1.334 . S
C920 H891 0.950 . S
C920 C919 1.334 . S
C920 C921 1.287 . S
C921 C920 1.287 . S
C921 C922 1.524 . S
C921 H924 0.999 . S
C922 H892 0.950 . S
C922 C921 1.524 . S
C922 C923 1.415 . S
C923 H893 0.950 . S
C923 C918 1.363 . S
C923 C922 1.415 . S
H924 C921 0.999 . S
H925 C906 0.913 . S
H926 C944 0.951 . S
H927 C946 0.951 . S
H928 C948 0.950 . S
H929 C949 0.950 . S
H930 C951 0.950 . S
H931 C954 0.950 . S
H932 C955 0.950 . S
H933 C957 0.950 . S
H934 C958 0.950 . S
H935 C959 0.951 . S
H936 C961 0.951 . S
H937 C963 0.950 . S
H938 C964 0.950 . S
H939 C966 0.950 . S
H940 C969 0.950 . S
H941 C970 0.950 . S
H942 C972 0.950 . S
H943 C973 0.950 . S
C944 H926 0.951 . S
C944 C945 1.366 . S
C944 C946 1.388 . S
C945 C944 1.366 . S
C945 C949 1.385 . S
C946 H927 0.951 . S
C946 C944 1.388 . S
C946 C947 1.366 . S
C947 C946 1.366 . S
C947 C948 1.414 . S
C947 C950 1.499 . S
C948 H928 0.950 . S
C948 C947 1.414 . S
C948 C949 1.374 . S
C949 H929 0.950 . S
C949 C945 1.385 . S
C949 C948 1.374 . S
C950 C947 1.499 . S
C950 C951 1.373 . S
C950 C952 1.389 . S
C951 H930 0.950 . S
C951 C950 1.373 . S
C951 C967 1.377 . S
C952 C950 1.389 . S
C952 C953 1.524 . S
C952 C966 1.377 . S
C953 C952 1.524 . S
C953 C954 1.397 . S
C953 C958 1.363 . S
C954 H931 0.950 . S
C954 C953 1.397 . S
C954 C955 1.334 . S
C955 H932 0.950 . S
C955 C954 1.334 . S
C955 C956 1.287 . S
C956 C955 1.287 . S
C956 C957 1.524 . S
C956 H975 0.913 . S
C957 H933 0.950 . S
C957 C956 1.524 . S
C957 C958 1.415 . S
C958 H934 0.950 . S
C958 C953 1.363 . S
C958 C957 1.415 . S
C959 H935 0.951 . S
C959 C960 1.366 . S
C959 C961 1.388 . S
C960 C959 1.366 . S
C960 C964 1.385 . S
C961 H936 0.951 . S
C961 C959 1.388 . S
C961 C962 1.366 . S
C962 C961 1.366 . S
C962 C963 1.414 . S
C962 C965 1.499 . S
C963 H937 0.950 . S
C963 C962 1.414 . S
C963 C964 1.374 . S
C964 H938 0.950 . S
C964 C960 1.385 . S
C964 C963 1.374 . S
C965 C962 1.499 . S
C965 C966 1.373 . S
C965 C967 1.389 . S
C966 H939 0.950 . S
C966 C952 1.377 . S
C966 C965 1.373 . S
C967 C951 1.377 . S
C967 C965 1.389 . S
C967 C968 1.524 . S
C968 C967 1.524 . S
C968 C969 1.397 . S
C968 C973 1.363 . S
C969 H940 0.950 . S
C969 C968 1.397 . S
C969 C970 1.334 . S
C970 H941 0.950 . S
C970 C969 1.334 . S
C970 C971 1.287 . S
C971 C970 1.287 . S
C971 C972 1.524 . S
C971 H974 0.999 . S
C972 H942 0.950 . S
C972 C971 1.524 . S
C972 C973 1.415 . S
C973 H943 0.950 . S
C973 C968 1.363 . S
C973 C972 1.415 . S
H974 C971 0.999 . S
H975 C956 0.913 . S
H976 C994 0.951 . S
H977 C996 0.951 . S
H978 C998 0.950 . S
H979 C999 0.950 . S
H980 C1001 0.950 . S
H981 C1004 0.950 . S
H982 C1005 0.950 . S
H983 C1007 0.950 . S
H984 C1008 0.950 . S
H985 C1009 0.951 . S
H986 C1011 0.951 . S
H987 C1013 0.950 . S
H988 C1014 0.950 . S
H989 C1016 0.950 . S
H990 C1019 0.950 . S
H991 C1020 0.950 . S
H992 C1022 0.950 . S
H993 C1023 0.950 . S
C994 H976 0.951 . S
C994 C995 1.366 . S
C994 C996 1.388 . S
C995 C994 1.366 . S
C995 C999 1.385 . S
C996 H977 0.951 . S
C996 C994 1.388 . S
C996 C997 1.366 . S
C997 C996 1.366 . S
C997 C998 1.414 . S
C997 C1000 1.499 . S
C998 H978 0.950 . S
C998 C997 1.414 . S
C998 C999 1.374 . S
C999 H979 0.950 . S
C999 C995 1.385 . S
C999 C998 1.374 . S
C1000 C997 1.499 . S
C1000 C1001 1.373 . S
C1000 C1002 1.389 . S
C1001 H980 0.950 . S
C1001 C1000 1.373 . S
C1001 C1017 1.377 . S
C1002 C1000 1.389 . S
C1002 C1003 1.524 . S
C1002 C1016 1.377 . S
C1003 C1002 1.524 . S
C1003 C1004 1.397 . S
C1003 C1008 1.363 . S
C1004 H981 0.950 . S
C1004 C1003 1.397 . S
C1004 C1005 1.334 . S
C1005 H982 0.950 . S
C1005 C1004 1.334 . S
C1005 C1006 1.287 . S
C1006 C1005 1.287 . S
C1006 C1007 1.524 . S
C1006 H1025 0.913 . S
C1007 H983 0.950 . S
C1007 C1006 1.524 . S
C1007 C1008 1.415 . S
C1008 H984 0.950 . S
C1008 C1003 1.363 . S
C1008 C1007 1.415 . S
C1009 H985 0.951 . S
C1009 C1010 1.366 . S
C1009 C1011 1.388 . S
C1010 C1009 1.366 . S
C1010 C1014 1.385 . S
C1011 H986 0.951 . S
C1011 C1009 1.388 . S
C1011 C1012 1.366 . S
C1012 C1011 1.366 . S
C1012 C1013 1.414 . S
C1012 C1015 1.499 . S
C1013 H987 0.950 . S
C1013 C1012 1.414 . S
C1013 C1014 1.374 . S
C1014 H988 0.950 . S
C1014 C1010 1.385 . S
C1014 C1013 1.374 . S
C1015 C1012 1.499 . S
C1015 C1016 1.373 . S
C1015 C1017 1.389 . S
C1016 H989 0.950 . S
C1016 C1002 1.377 . S
C1016 C1015 1.373 . S
C1017 C1001 1.377 . S
C1017 C1015 1.389 . S
C1017 C1018 1.524 . S
C1018 C1017 1.524 . S
C1018 C1019 1.397 . S
C1018 C1023 1.363 . S
C1019 H990 0.950 . S
C1019 C1018 1.397 . S
C1019 C1020 1.334 . S
C1020 H991 0.950 . S
C1020 C1019 1.334 . S
C1020 C1021 1.287 . S
C1021 C1020 1.287 . S
C1021 C1022 1.524 . S
C1021 H1024 0.999 . S
C1022 H992 0.950 . S
C1022 C1021 1.524 . S
C1022 C1023 1.415 . S
C1023 H993 0.950 . S
C1023 C1018 1.363 . S
C1023 C1022 1.415 . S
H1024 C1021 0.999 . S
H1025 C1006 0.913 . S
H1026 C1044 0.951 . S
H1027 C1046 0.951 . S
H1028 C1048 0.950 . S
H1029 C1049 0.950 . S
H1030 C1051 0.950 . S
H1031 C1054 0.950 . S
H1032 C1055 0.950 . S
H1033 C1057 0.950 . S
H1034 C1058 0.950 . S
H1035 C1059 0.951 . S
H1036 C1061 0.951 . S
H1037 C1063 0.950 . S
H1038 C1064 0.950 . S
H1039 C1066 0.950 . S
H1040 C1069 0.950 . S
H1041 C1070 0.950 . S
H1042 C1072 0.950 . S
H1043 C1073 0.950 . S
C1044 H1026 0.951 . S
C1044 C1045 1.366 . S
C1044 C1046 1.388 . S
C1045 C1044 1.366 . S
C1045 C1049 1.385 . S
C1046 H1027 0.951 . S
C1046 C1044 1.388 . S
C1046 C1047 1.366 . S
C1047 C1046 1.366 . S
C1047 C1048 1.414 . S
C1047 C1050 1.499 . S
C1048 H1028 0.950 . S
C1048 C1047 1.414 . S
C1048 C1049 1.374 . S
C1049 H1029 0.950 . S
C1049 C1045 1.385 . S
C1049 C1048 1.374 . S
C1050 C1047 1.499 . S
C1050 C1051 1.373 . S
C1050 C1052 1.389 . S
C1051 H1030 0.950 . S
C1051 C1050 1.373 . S
C1051 C1067 1.377 . S
C1052 C1050 1.389 . S
C1052 C1053 1.524 . S
C1052 C1066 1.377 . S
C1053 C1052 1.524 . S
C1053 C1054 1.397 . S
C1053 C1058 1.363 . S
C1054 H1031 0.950 . S
C1054 C1053 1.397 . S
C1054 C1055 1.334 . S
C1055 H1032 0.950 . S
C1055 C1054 1.334 . S
C1055 C1056 1.287 . S
C1056 C1055 1.287 . S
C1056 C1057 1.524 . S
C1056 H1075 0.913 . S
C1057 H1033 0.950 . S
C1057 C1056 1.524 . S
C1057 C1058 1.415 . S
C1058 H1034 0.950 . S
C1058 C1053 1.363 . S
C1058 C1057 1.415 . S
C1059 H1035 0.951 . S
C1059 C1060 1.366 . S
C1059 C1061 1.388 . S
C1060 C1059 1.366 . S
C1060 C1064 1.385 . S
C1061 H1036 0.951 . S
C1061 C1059 1.388 . S
C1061 C1062 1.366 . S
C1062 C1061 1.366 . S
C1062 C1063 1.414 . S
C1062 C1065 1.499 . S
C1063 H1037 0.950 . S
C1063 C1062 1.414 . S
C1063 C1064 1.374 . S
C1064 H1038 0.950 . S
C1064 C1060 1.385 . S
C1064 C1063 1.374 . S
C1065 C1062 1.499 . S
C1065 C1066 1.373 . S
C1065 C1067 1.389 . S
C1066 H1039 0.950 . S
C1066 C1052 1.377 . S
C1066 C1065 1.373 . S
C1067 C1051 1.377 . S
C1067 C1065 1.389 . S
C1067 C1068 1.524 . S
C1068 C1067 1.524 . S
C1068 C1069 1.397 . S
C1068 C1073 1.363 . S
C1069 H1040 0.950 . S
C1069 C1068 1.397 . S
C1069 C1070 1.334 . S
C1070 H1041 0.950 . S
C1070 C1069 1.334 . S
C1070 C1071 1.287 . S
C1071 C1070 1.287 . S
C1071 C1072 1.524 . S
C1071 H1074 0.999 . S
C1072 H1042 0.950 . S
C1072 C1071 1.524 . S
C1072 C1073 1.415 . S
C1073 H1043 0.950 . S
C1073 C1068 1.363 . S
C1073 C1072 1.415 . S
H1074 C1071 0.999 . S
H1075 C1056 0.913 . S
H1076 C1094 0.951 . S
H1077 C1096 0.951 . S
H1078 C1098 0.950 . S
H1079 C1099 0.950 . S
H1080 C1101 0.950 . S
H1081 C1104 0.950 . S
H1082 C1105 0.950 . S
H1083 C1107 0.950 . S
H1084 C1108 0.950 . S
H1085 C1109 0.951 . S
H1086 C1111 0.951 . S
H1087 C1113 0.950 . S
H1088 C1114 0.950 . S
H1089 C1116 0.950 . S
H1090 C1119 0.950 . S
H1091 C1120 0.950 . S
H1092 C1122 0.950 . S
H1093 C1123 0.950 . S
C1094 H1076 0.951 . S
C1094 C1095 1.366 . S
C1094 C1096 1.388 . S
C1095 C1094 1.366 . S
C1095 C1099 1.385 . S
C1096 H1077 0.951 . S
C1096 C1094 1.388 . S
C1096 C1097 1.366 . S
C1097 C1096 1.366 . S
C1097 C1098 1.414 . S
C1097 C1100 1.499 . S
C1098 H1078 0.950 . S
C1098 C1097 1.414 . S
C1098 C1099 1.374 . S
C1099 H1079 0.950 . S
C1099 C1095 1.385 . S
C1099 C1098 1.374 . S
C1100 C1097 1.499 . S
C1100 C1101 1.373 . S
C1100 C1102 1.389 . S
C1101 H1080 0.950 . S
C1101 C1100 1.373 . S
C1101 C1117 1.377 . S
C1102 C1100 1.389 . S
C1102 C1103 1.524 . S
C1102 C1116 1.377 . S
C1103 C1102 1.524 . S
C1103 C1104 1.397 . S
C1103 C1108 1.363 . S
C1104 H1081 0.950 . S
C1104 C1103 1.397 . S
C1104 C1105 1.334 . S
C1105 H1082 0.950 . S
C1105 C1104 1.334 . S
C1105 C1106 1.287 . S
C1106 C1105 1.287 . S
C1106 C1107 1.524 . S
C1106 H1125 0.913 . S
C1107 H1083 0.950 . S
C1107 C1106 1.524 . S
C1107 C1108 1.415 . S
C1108 H1084 0.950 . S
C1108 C1103 1.363 . S
C1108 C1107 1.415 . S
C1109 H1085 0.951 . S
C1109 C1110 1.366 . S
C1109 C1111 1.388 . S
C1110 C1109 1.366 . S
C1110 C1114 1.385 . S
C1111 H1086 0.951 . S
C1111 C1109 1.388 . S
C1111 C1112 1.366 . S
C1112 C1111 1.366 . S
C1112 C1113 1.414 . S
C1112 C1115 1.499 . S
C1113 H1087 0.950 . S
C1113 C1112 1.414 . S
C1113 C1114 1.374 . S
C1114 H1088 0.950 . S
C1114 C1110 1.385 . S
C1114 C1113 1.374 . S
C1115 C1112 1.499 . S
C1115 C1116 1.373 . S
C1115 C1117 1.389 . S
C1116 H1089 0.950 . S
C1116 C1102 1.377 . S
C1116 C1115 1.373 . S
C1117 C1101 1.377 . S
C1117 C1115 1.389 . S
C1117 C1118 1.524 . S
C1118 C1117 1.524 . S
C1118 C1119 1.397 . S
C1118 C1123 1.363 . S
C1119 H1090 0.950 . S
C1119 C1118 1.397 . S
C1119 C1120 1.334 . S
C1120 H1091 0.950 . S
C1120 C1119 1.334 . S
C1120 C1121 1.287 . S
C1121 C1120 1.287 . S
C1121 C1122 1.524 . S
C1121 H1124 0.999 . S
C1122 H1092 0.950 . S
C1122 C1121 1.524 . S
C1122 C1123 1.415 . S
C1123 H1093 0.950 . S
C1123 C1118 1.363 . S
C1123 C1122 1.415 . S
H1124 C1121 0.999 . S
H1125 C1106 0.913 . S
H1126 C1144 0.951 . S
H1127 C1146 0.951 . S
H1128 C1148 0.950 . S
H1129 C1149 0.950 . S
H1130 C1151 0.950 . S
H1131 C1154 0.950 . S
H1132 C1155 0.950 . S
H1133 C1157 0.950 . S
H1134 C1158 0.950 . S
H1135 C1159 0.951 . S
H1136 C1161 0.951 . S
H1137 C1163 0.950 . S
H1138 C1164 0.950 . S
H1139 C1166 0.950 . S
H1140 C1169 0.950 . S
H1141 C1170 0.950 . S
H1142 C1172 0.950 . S
H1143 C1173 0.950 . S
C1144 H1126 0.951 . S
C1144 C1145 1.366 . S
C1144 C1146 1.388 . S
C1145 C1144 1.366 . S
C1145 C1149 1.385 . S
C1146 H1127 0.951 . S
C1146 C1144 1.388 . S
C1146 C1147 1.366 . S
C1147 C1146 1.366 . S
C1147 C1148 1.414 . S
C1147 C1150 1.499 . S
C1148 H1128 0.950 . S
C1148 C1147 1.414 . S
C1148 C1149 1.374 . S
C1149 H1129 0.950 . S
C1149 C1145 1.385 . S
C1149 C1148 1.374 . S
C1150 C1147 1.499 . S
C1150 C1151 1.373 . S
C1150 C1152 1.389 . S
C1151 H1130 0.950 . S
C1151 C1150 1.373 . S
C1151 C1167 1.377 . S
C1152 C1150 1.389 . S
C1152 C1153 1.524 . S
C1152 C1166 1.377 . S
C1153 C1152 1.524 . S
C1153 C1154 1.397 . S
C1153 C1158 1.363 . S
C1154 H1131 0.950 . S
C1154 C1153 1.397 . S
C1154 C1155 1.334 . S
C1155 H1132 0.950 . S
C1155 C1154 1.334 . S
C1155 C1156 1.287 . S
C1156 C1155 1.287 . S
C1156 C1157 1.524 . S
C1156 H1175 0.913 . S
C1157 H1133 0.950 . S
C1157 C1156 1.524 . S
C1157 C1158 1.415 . S
C1158 H1134 0.950 . S
C1158 C1153 1.363 . S
C1158 C1157 1.415 . S
C1159 H1135 0.951 . S
C1159 C1160 1.366 . S
C1159 C1161 1.388 . S
C1160 C1159 1.366 . S
C1160 C1164 1.385 . S
C1161 H1136 0.951 . S
C1161 C1159 1.388 . S
C1161 C1162 1.366 . S
C1162 C1161 1.366 . S
C1162 C1163 1.414 . S
C1162 C1165 1.499 . S
C1163 H1137 0.950 . S
C1163 C1162 1.414 . S
C1163 C1164 1.374 . S
C1164 H1138 0.950 . S
C1164 C1160 1.385 . S
C1164 C1163 1.374 . S
C1165 C1162 1.499 . S
C1165 C1166 1.373 . S
C1165 C1167 1.389 . S
C1166 H1139 0.950 . S
C1166 C1152 1.377 . S
C1166 C1165 1.373 . S
C1167 C1151 1.377 . S
C1167 C1165 1.389 . S
C1167 C1168 1.524 . S
C1168 C1167 1.524 . S
C1168 C1169 1.397 . S
C1168 C1173 1.363 . S
C1169 H1140 0.950 . S
C1169 C1168 1.397 . S
C1169 C1170 1.334 . S
C1170 H1141 0.950 . S
C1170 C1169 1.334 . S
C1170 C1171 1.287 . S
C1171 C1170 1.287 . S
C1171 C1172 1.524 . S
C1171 H1174 0.999 . S
C1172 H1142 0.950 . S
C1172 C1171 1.524 . S
C1172 C1173 1.415 . S
C1173 H1143 0.950 . S
C1173 C1168 1.363 . S
C1173 C1172 1.415 . S
H1174 C1171 0.999 . S
H1175 C1156 0.913 . S
H1176 C1194 0.951 . S
H1177 C1196 0.951 . S
H1178 C1198 0.950 . S
H1179 C1199 0.950 . S
H1180 C1201 0.950 . S
H1181 C1204 0.950 . S
H1182 C1205 0.950 . S
H1183 C1207 0.950 . S
H1184 C1208 0.950 . S
H1185 C1209 0.951 . S
H1186 C1211 0.951 . S
H1187 C1213 0.950 . S
H1188 C1214 0.950 . S
H1189 C1216 0.950 . S
H1190 C1219 0.950 . S
H1191 C1220 0.950 . S
H1192 C1222 0.950 . S
H1193 C1223 0.950 . S
C1194 H1176 0.951 . S
C1194 C1195 1.366 1_556 S
C1194 C1196 1.388 . S
C1195 C1194 1.366 1_554 S
C1195 C1199 1.385 . S
C1196 H1177 0.951 . S
C1196 C1194 1.388 . S
C1196 C1197 1.366 1_556 S
C1197 C1196 1.366 1_554 S
C1197 C1198 1.414 . S
C1197 C1200 1.499 . S
C1198 H1178 0.950 . S
C1198 C1197 1.414 . S
C1198 C1199 1.374 . S
C1199 H1179 0.950 . S
C1199 C1195 1.385 . S
C1199 C1198 1.374 . S
C1200 C1197 1.499 . S
C1200 C1201 1.373 . S
C1200 C1202 1.389 . S
C1201 H1180 0.950 . S
C1201 C1200 1.373 . S
C1201 C1217 1.376 1_554 S
C1202 C1200 1.389 . S
C1202 C1203 1.524 . S
C1202 C1216 1.377 . S
C1203 C1202 1.524 . S
C1203 C1204 1.397 . S
C1203 C1208 1.363 1_554 S
C1204 H1181 0.950 . S
C1204 C1203 1.397 . S
C1204 C1205 1.334 . S
C1205 H1182 0.950 . S
C1205 C1204 1.334 . S
C1205 C1206 1.287 . S
C1206 C1205 1.287 . S
C1206 C1207 1.524 1_554 S
C1206 H1225 0.913 . S
C1207 H1183 0.950 . S
C1207 C1206 1.524 1_556 S
C1207 C1208 1.415 . S
C1208 H1184 0.950 . S
C1208 C1203 1.363 1_556 S
C1208 C1207 1.415 . S
C1209 H1185 0.951 . S
C1209 C1210 1.366 . S
C1209 C1211 1.388 . S
C1210 C1209 1.366 . S
C1210 C1214 1.385 1_554 S
C1211 H1186 0.951 . S
C1211 C1209 1.388 . S
C1211 C1212 1.384 . S
C1212 C1211 1.384 . S
C1212 C1213 1.397 1_554 S
C1212 C1215 1.498 . S
C1213 H1187 0.950 . S
C1213 C1212 1.397 1_556 S
C1213 C1214 1.374 . S
C1214 H1188 0.950 . S
C1214 C1210 1.385 1_556 S
C1214 C1213 1.374 . S
C1215 C1212 1.498 . S
C1215 C1216 1.373 . S
C1215 C1217 1.389 1_554 S
C1216 H1189 0.950 . S
C1216 C1202 1.377 . S
C1216 C1215 1.373 . S
C1217 C1201 1.376 1_556 S
C1217 C1215 1.389 1_556 S
C1217 C1218 1.526 . S
C1218 C1217 1.526 . S
C1218 C1219 1.397 . S
C1218 C1223 1.363 1_556 S
C1219 H1190 0.950 . S
C1219 C1218 1.397 . S
C1219 C1220 1.334 . S
C1220 H1191 0.950 . S
C1220 C1219 1.334 . S
C1220 C1221 1.287 . S
C1221 C1220 1.287 . S
C1221 C1222 1.524 1_556 S
C1221 H1224 0.999 . S
C1222 H1192 0.950 . S
C1222 C1221 1.524 1_554 S
C1222 C1223 1.415 . S
C1223 H1193 0.950 . S
C1223 C1218 1.363 1_554 S
C1223 C1222 1.415 . S
H1224 C1221 0.999 . S
H1225 C1206 0.913 . S
H1226 C1244 0.951 . S
H1227 C1246 0.951 . S
H1228 C1248 0.950 . S
H1229 C1249 0.950 . S
H1230 C1251 0.950 . S
H1231 C1254 0.950 . S
H1232 C1255 0.950 . S
H1233 C1257 0.950 . S
H1234 C1258 0.950 . S
H1235 C1259 0.951 . S
H1236 C1261 0.951 . S
H1237 C1263 0.950 . S
H1238 C1264 0.950 . S
H1239 C1266 0.950 . S
H1240 C1269 0.950 . S
H1241 C1270 0.950 . S
H1242 C1272 0.950 . S
H1243 C1273 0.950 . S
C1244 H1226 0.951 . S
C1244 C1245 1.366 . S
C1244 C1246 1.388 . S
C1245 C1244 1.366 . S
C1245 C1249 1.385 . S
C1246 H1227 0.951 . S
C1246 C1244 1.388 . S
C1246 C1247 1.366 . S
C1247 C1246 1.366 . S
C1247 C1248 1.414 . S
C1247 C1250 1.499 . S
C1248 H1228 0.950 . S
C1248 C1247 1.414 . S
C1248 C1249 1.374 . S
C1249 H1229 0.950 . S
C1249 C1245 1.385 . S
C1249 C1248 1.374 . S
C1250 C1247 1.499 . S
C1250 C1251 1.373 . S
C1250 C1252 1.389 . S
C1251 H1230 0.950 . S
C1251 C1250 1.373 . S
C1251 C1267 1.377 . S
C1252 C1250 1.389 . S
C1252 C1253 1.524 . S
C1252 C1266 1.377 . S
C1253 C1252 1.524 . S
C1253 C1254 1.397 . S
C1253 C1258 1.363 . S
C1254 H1231 0.950 . S
C1254 C1253 1.397 . S
C1254 C1255 1.334 . S
C1255 H1232 0.950 . S
C1255 C1254 1.334 . S
C1255 C1256 1.287 . S
C1256 C1255 1.287 . S
C1256 C1257 1.524 . S
C1256 H1275 0.913 . S
C1257 H1233 0.950 . S
C1257 C1256 1.524 . S
C1257 C1258 1.415 . S
C1258 H1234 0.950 . S
C1258 C1253 1.363 . S
C1258 C1257 1.415 . S
C1259 H1235 0.951 . S
C1259 C1260 1.366 . S
C1259 C1261 1.388 . S
C1260 C1259 1.366 . S
C1260 C1264 1.385 . S
C1261 H1236 0.951 . S
C1261 C1259 1.388 . S
C1261 C1262 1.366 . S
C1262 C1261 1.366 . S
C1262 C1263 1.414 . S
C1262 C1265 1.499 . S
C1263 H1237 0.950 . S
C1263 C1262 1.414 . S
C1263 C1264 1.374 . S
C1264 H1238 0.950 . S
C1264 C1260 1.385 . S
C1264 C1263 1.374 . S
C1265 C1262 1.499 . S
C1265 C1266 1.373 . S
C1265 C1267 1.389 . S
C1266 H1239 0.950 . S
C1266 C1252 1.377 . S
C1266 C1265 1.373 . S
C1267 C1251 1.377 . S
C1267 C1265 1.389 . S
C1267 C1268 1.524 . S
C1268 C1267 1.524 . S
C1268 C1269 1.397 . S
C1268 C1273 1.363 . S
C1269 H1240 0.950 . S
C1269 C1268 1.397 . S
C1269 C1270 1.334 . S
C1270 H1241 0.950 . S
C1270 C1269 1.334 . S
C1270 C1271 1.287 . S
C1271 C1270 1.287 . S
C1271 C1272 1.524 . S
C1271 H1274 0.999 . S
C1272 H1242 0.950 . S
C1272 C1271 1.524 . S
C1272 C1273 1.415 . S
C1273 H1243 0.950 . S
C1273 C1268 1.363 . S
C1273 C1272 1.415 . S
H1274 C1271 0.999 . S
H1275 C1256 0.913 . S
H1276 C1294 0.951 . S
H1277 C1296 0.951 . S
H1278 C1298 0.950 . S
H1279 C1299 0.950 . S
H1280 C1301 0.950 . S
H1281 C1304 0.950 . S
H1282 C1305 0.950 . S
H1283 C1307 0.950 . S
H1284 C1308 0.950 . S
H1285 C1309 0.951 . S
H1286 C1311 0.951 . S
H1287 C1313 0.950 . S
H1288 C1314 0.950 . S
H1289 C1316 0.950 . S
H1290 C1319 0.950 . S
H1291 C1320 0.950 . S
H1292 C1322 0.950 . S
H1293 C1323 0.950 . S
C1294 H1276 0.951 . S
C1294 C1295 1.366 . S
C1294 C1296 1.388 . S
C1295 C1294 1.366 . S
C1295 C1299 1.385 1_554 S
C1296 H1277 0.951 . S
C1296 C1294 1.388 . S
C1296 C1297 1.366 . S
C1297 C1296 1.366 . S
C1297 C1298 1.414 1_554 S
C1297 C1300 1.499 . S
C1298 H1278 0.950 . S
C1298 C1297 1.414 1_556 S
C1298 C1299 1.374 . S
C1299 H1279 0.950 . S
C1299 C1295 1.385 1_556 S
C1299 C1298 1.374 . S
C1300 C1297 1.499 . S
C1300 C1301 1.374 . S
C1300 C1302 1.390 . S
C1301 H1280 0.950 . S
C1301 C1300 1.374 . S
C1301 C1317 1.377 . S
C1302 C1300 1.390 . S
C1302 C1303 1.524 1_554 S
C1302 C1316 1.377 . S
C1303 C1302 1.524 1_556 S
C1303 C1304 1.397 . S
C1303 C1308 1.363 1_556 S
C1304 H1281 0.950 . S
C1304 C1303 1.397 . S
C1304 C1305 1.334 . S
C1305 H1282 0.950 . S
C1305 C1304 1.334 . S
C1305 C1306 1.287 . S
C1306 C1305 1.287 . S
C1306 C1307 1.524 1_556 S
C1306 H1325 0.913 . S
C1307 H1283 0.950 . S
C1307 C1306 1.524 1_554 S
C1307 C1308 1.415 . S
C1308 H1284 0.950 . S
C1308 C1303 1.363 1_554 S
C1308 C1307 1.415 . S
C1309 H1285 0.951 . S
C1309 C1310 1.366 1_556 S
C1309 C1311 1.388 . S
C1310 C1309 1.366 1_554 S
C1310 C1314 1.385 . S
C1311 H1286 0.951 . S
C1311 C1309 1.388 . S
C1311 C1312 1.366 1_556 S
C1312 C1311 1.366 1_554 S
C1312 C1313 1.414 . S
C1312 C1315 1.499 . S
C1313 H1287 0.950 . S
C1313 C1312 1.414 . S
C1313 C1314 1.374 . S
C1314 H1288 0.950 . S
C1314 C1310 1.385 . S
C1314 C1313 1.374 . S
C1315 C1312 1.499 . S
C1315 C1316 1.373 . S
C1315 C1317 1.389 . S
C1316 H1289 0.950 . S
C1316 C1302 1.377 . S
C1316 C1315 1.373 . S
C1317 C1301 1.377 . S
C1317 C1315 1.389 . S
C1317 C1318 1.524 . S
C1318 C1317 1.524 . S
C1318 C1319 1.397 . S
C1318 C1323 1.363 1_554 S
C1319 H1290 0.950 . S
C1319 C1318 1.397 . S
C1319 C1320 1.334 . S
C1320 H1291 0.950 . S
C1320 C1319 1.334 . S
C1320 C1321 1.287 . S
C1321 C1320 1.287 . S
C1321 C1322 1.524 1_554 S
C1321 H1324 0.999 . S
C1322 H1292 0.950 . S
C1322 C1321 1.524 1_556 S
C1322 C1323 1.415 . S
C1323 H1293 0.950 . S
C1323 C1318 1.363 1_556 S
C1323 C1322 1.415 . S
H1324 C1321 0.999 . S
H1325 C1306 0.913 . S
H1326 C1344 0.951 . S
H1327 C1346 0.951 . S
H1328 C1348 0.950 . S
H1329 C1349 0.950 . S
H1330 C1351 0.950 . S
H1331 C1354 0.950 . S
H1332 C1355 0.950 . S
H1333 C1357 0.950 . S
H1334 C1358 0.950 . S
H1335 C1359 0.951 . S
H1336 C1361 0.951 . S
H1337 C1363 0.950 . S
H1338 C1364 0.950 . S
H1339 C1366 0.950 . S
H1340 C1369 0.950 . S
H1341 C1370 0.950 . S
H1342 C1372 0.950 . S
H1343 C1373 0.950 . S
C1344 H1326 0.951 . S
C1344 C1345 1.366 . S
C1344 C1346 1.388 . S
C1345 C1344 1.366 . S
C1345 C1349 1.385 . S
C1346 H1327 0.951 . S
C1346 C1344 1.388 . S
C1346 C1347 1.366 . S
C1347 C1346 1.366 . S
C1347 C1348 1.414 . S
C1347 C1350 1.499 . S
C1348 H1328 0.950 . S
C1348 C1347 1.414 . S
C1348 C1349 1.374 . S
C1349 H1329 0.950 . S
C1349 C1345 1.385 . S
C1349 C1348 1.374 . S
C1350 C1347 1.499 . S
C1350 C1351 1.373 . S
C1350 C1352 1.389 . S
C1351 H1330 0.950 . S
C1351 C1350 1.373 . S
C1351 C1367 1.377 . S
C1352 C1350 1.389 . S
C1352 C1353 1.524 . S
C1352 C1366 1.377 . S
C1353 C1352 1.524 . S
C1353 C1354 1.397 . S
C1353 C1358 1.363 . S
C1354 H1331 0.950 . S
C1354 C1353 1.397 . S
C1354 C1355 1.334 . S
C1355 H1332 0.950 . S
C1355 C1354 1.334 . S
C1355 C1356 1.287 . S
C1356 C1355 1.287 . S
C1356 C1357 1.524 . S
C1356 H1375 0.913 . S
C1357 H1333 0.950 . S
C1357 C1356 1.524 . S
C1357 C1358 1.415 . S
C1358 H1334 0.950 . S
C1358 C1353 1.363 . S
C1358 C1357 1.415 . S
C1359 H1335 0.951 . S
C1359 C1360 1.366 . S
C1359 C1361 1.388 . S
C1360 C1359 1.366 . S
C1360 C1364 1.385 . S
C1361 H1336 0.951 . S
C1361 C1359 1.388 . S
C1361 C1362 1.366 . S
C1362 C1361 1.366 . S
C1362 C1363 1.414 . S
C1362 C1365 1.499 . S
C1363 H1337 0.950 . S
C1363 C1362 1.414 . S
C1363 C1364 1.374 . S
C1364 H1338 0.950 . S
C1364 C1360 1.385 . S
C1364 C1363 1.374 . S
C1365 C1362 1.499 . S
C1365 C1366 1.373 . S
C1365 C1367 1.389 . S
C1366 H1339 0.950 . S
C1366 C1352 1.377 . S
C1366 C1365 1.373 . S
C1367 C1351 1.377 . S
C1367 C1365 1.389 . S
C1367 C1368 1.524 . S
C1368 C1367 1.524 . S
C1368 C1369 1.397 . S
C1368 C1373 1.363 . S
C1369 H1340 0.950 . S
C1369 C1368 1.397 . S
C1369 C1370 1.334 . S
C1370 H1341 0.950 . S
C1370 C1369 1.334 . S
C1370 C1371 1.287 . S
C1371 C1370 1.287 . S
C1371 C1372 1.524 . S
C1371 H1374 0.999 . S
C1372 H1342 0.950 . S
C1372 C1371 1.524 . S
C1372 C1373 1.415 . S
C1373 H1343 0.950 . S
C1373 C1368 1.363 . S
C1373 C1372 1.415 . S
H1374 C1371 0.999 . S
H1375 C1356 0.913 . S
H1376 C1394 0.951 . S
H1377 C1396 0.951 . S
H1378 C1398 0.950 . S
H1379 C1399 0.950 . S
H1380 C1401 0.950 . S
H1381 C1404 0.950 . S
H1382 C1405 0.950 . S
H1383 C1407 0.950 . S
H1384 C1408 0.950 . S
H1385 C1409 0.951 . S
H1386 C1411 0.951 . S
H1387 C1413 0.950 . S
H1388 C1414 0.950 . S
H1389 C1416 0.950 . S
H1390 C1419 0.950 . S
H1391 C1420 0.950 . S
H1392 C1422 0.950 . S
H1393 C1423 0.950 . S
C1394 H1376 0.951 . S
C1394 C1395 1.366 . S
C1394 C1396 1.388 . S
C1395 C1394 1.366 . S
C1395 C1399 1.385 . S
C1396 H1377 0.951 . S
C1396 C1394 1.388 . S
C1396 C1397 1.366 . S
C1397 C1396 1.366 . S
C1397 C1398 1.414 . S
C1397 C1400 1.499 . S
C1398 H1378 0.950 . S
C1398 C1397 1.414 . S
C1398 C1399 1.374 . S
C1399 H1379 0.950 . S
C1399 C1395 1.385 . S
C1399 C1398 1.374 . S
C1400 C1397 1.499 . S
C1400 C1401 1.373 . S
C1400 C1402 1.389 . S
C1401 H1380 0.950 . S
C1401 C1400 1.373 . S
C1401 C1417 1.377 . S
C1402 C1400 1.389 . S
C1402 C1403 1.524 . S
C1402 C1416 1.377 . S
C1403 C1402 1.524 . S
C1403 C1404 1.397 . S
C1403 C1408 1.363 . S
C1404 H1381 0.950 . S
C1404 C1403 1.397 . S
C1404 C1405 1.334 . S
C1405 H1382 0.950 . S
C1405 C1404 1.334 . S
C1405 C1406 1.287 . S
C1406 C1405 1.287 . S
C1406 C1407 1.524 . S
C1406 H1425 0.913 . S
C1407 H1383 0.950 . S
C1407 C1406 1.524 . S
C1407 C1408 1.415 . S
C1408 H1384 0.950 . S
C1408 C1403 1.363 . S
C1408 C1407 1.415 . S
C1409 H1385 0.951 . S
C1409 C1410 1.366 . S
C1409 C1411 1.388 . S
C1410 C1409 1.366 . S
C1410 C1414 1.385 . S
C1411 H1386 0.951 . S
C1411 C1409 1.388 . S
C1411 C1412 1.366 . S
C1412 C1411 1.366 . S
C1412 C1413 1.414 . S
C1412 C1415 1.499 . S
C1413 H1387 0.950 . S
C1413 C1412 1.414 . S
C1413 C1414 1.374 . S
C1414 H1388 0.950 . S
C1414 C1410 1.385 . S
C1414 C1413 1.374 . S
C1415 C1412 1.499 . S
C1415 C1416 1.373 . S
C1415 C1417 1.389 . S
C1416 H1389 0.950 . S
C1416 C1402 1.377 . S
C1416 C1415 1.373 . S
C1417 C1401 1.377 . S
C1417 C1415 1.389 . S
C1417 C1418 1.524 . S
C1418 C1417 1.524 . S
C1418 C1419 1.397 . S
C1418 C1423 1.363 . S
C1419 H1390 0.950 . S
C1419 C1418 1.397 . S
C1419 C1420 1.334 . S
C1420 H1391 0.950 . S
C1420 C1419 1.334 . S
C1420 C1421 1.287 . S
C1421 C1420 1.287 . S
C1421 C1422 1.524 . S
C1421 H1424 0.999 . S
C1422 H1392 0.950 . S
C1422 C1421 1.524 . S
C1422 C1423 1.415 . S
C1423 H1393 0.950 . S
C1423 C1418 1.363 . S
C1423 C1422 1.415 . S
H1424 C1421 0.999 . S
H1425 C1406 0.913 . S
H1426 C1444 0.951 . S
H1427 C1446 0.951 . S
H1428 C1448 0.950 . S
H1429 C1449 0.950 . S
H1430 C1451 0.950 . S
H1431 C1454 0.950 . S
H1432 C1455 0.950 . S
H1433 C1457 0.950 . S
H1434 C1458 0.950 . S
H1435 C1459 0.951 . S
H1436 C1461 0.951 . S
H1437 C1463 0.950 . S
H1438 C1464 0.950 . S
H1439 C1466 0.950 . S
H1440 C1469 0.950 . S
H1441 C1470 0.950 . S
H1442 C1472 0.950 . S
H1443 C1473 0.950 . S
C1444 H1426 0.951 . S
C1444 C1445 1.366 1_556 S
C1444 C1446 1.388 . S
C1445 C1444 1.366 1_554 S
C1445 C1449 1.385 . S
C1446 H1427 0.951 . S
C1446 C1444 1.388 . S
C1446 C1447 1.349 1_556 S
C1447 C1446 1.349 1_554 S
C1447 C1448 1.432 . S
C1447 C1450 1.499 . S
C1448 H1428 0.950 . S
C1448 C1447 1.432 . S
C1448 C1449 1.374 . S
C1449 H1429 0.950 . S
C1449 C1445 1.385 . S
C1449 C1448 1.374 . S
C1450 C1447 1.499 . S
C1450 C1451 1.373 . S
C1450 C1452 1.389 1_554 S
C1451 H1430 0.950 . S
C1451 C1450 1.373 . S
C1451 C1467 1.377 . S
C1452 C1450 1.389 1_556 S
C1452 C1453 1.524 . S
C1452 C1466 1.377 . S
C1453 C1452 1.524 . S
C1453 C1454 1.397 . S
C1453 C1458 1.363 . S
C1454 H1431 0.950 . S
C1454 C1453 1.397 . S
C1454 C1455 1.334 . S
C1455 H1432 0.950 . S
C1455 C1454 1.334 . S
C1455 C1456 1.287 . S
C1456 C1455 1.287 . S
C1456 C1457 1.524 . S
C1456 H1475 0.913 . S
C1457 H1433 0.950 . S
C1457 C1456 1.524 . S
C1457 C1458 1.415 . S
C1458 H1434 0.950 . S
C1458 C1453 1.363 . S
C1458 C1457 1.415 . S
C1459 H1435 0.951 . S
C1459 C1460 1.366 . S
C1459 C1461 1.388 . S
C1460 C1459 1.366 . S
C1460 C1464 1.385 1_554 S
C1461 H1436 0.951 . S
C1461 C1459 1.388 . S
C1461 C1462 1.366 . S
C1462 C1461 1.366 . S
C1462 C1463 1.414 1_554 S
C1462 C1465 1.499 . S
C1463 H1437 0.950 . S
C1463 C1462 1.414 1_556 S
C1463 C1464 1.374 . S
C1464 H1438 0.950 . S
C1464 C1460 1.385 1_556 S
C1464 C1463 1.374 . S
C1465 C1462 1.499 . S
C1465 C1466 1.373 1_554 S
C1465 C1467 1.389 . S
C1466 H1439 0.950 . S
C1466 C1452 1.377 . S
C1466 C1465 1.373 1_556 S
C1467 C1451 1.377 . S
C1467 C1465 1.389 . S
C1467 C1468 1.524 . S
C1468 C1467 1.524 . S
C1468 C1469 1.397 . S
C1468 C1473 1.363 . S
C1469 H1440 0.950 . S
C1469 C1468 1.397 . S
C1469 C1470 1.334 . S
C1470 H1441 0.950 . S
C1470 C1469 1.334 . S
C1470 C1471 1.287 . S
C1471 C1470 1.287 . S
C1471 C1472 1.524 . S
C1471 H1474 0.999 . S
C1472 H1442 0.950 . S
C1472 C1471 1.524 . S
C1472 C1473 1.415 . S
C1473 H1443 0.950 . S
C1473 C1468 1.363 . S
C1473 C1472 1.415 . S
H1474 C1471 0.999 . S
H1475 C1456 0.913 . S
H1476 C1494 0.951 . S
H1477 C1496 0.951 . S
H1478 C1498 0.950 . S
H1479 C1499 0.950 . S
H1480 C1501 0.950 . S
H1481 C1504 0.950 . S
H1482 C1505 0.950 . S
H1483 C1507 0.950 . S
H1484 C1508 0.950 . S
H1485 C1509 0.951 . S
H1486 C1511 0.951 . S
H1487 C1513 0.950 . S
H1488 C1514 0.950 . S
H1489 C1516 0.950 . S
H1490 C1519 0.950 . S
H1491 C1520 0.950 . S
H1492 C1522 0.950 . S
H1493 C1523 0.950 . S
C1494 H1476 0.951 . S
C1494 C1495 1.366 . S
C1494 C1496 1.388 . S
C1495 C1494 1.366 . S
C1495 C1499 1.385 . S
C1496 H1477 0.951 . S
C1496 C1494 1.388 . S
C1496 C1497 1.366 . S
C1497 C1496 1.366 . S
C1497 C1498 1.414 . S
C1497 C1500 1.499 . S
C1498 H1478 0.950 . S
C1498 C1497 1.414 . S
C1498 C1499 1.374 . S
C1499 H1479 0.950 . S
C1499 C1495 1.385 . S
C1499 C1498 1.374 . S
C1500 C1497 1.499 . S
C1500 C1501 1.373 . S
C1500 C1502 1.389 . S
C1501 H1480 0.950 . S
C1501 C1500 1.373 . S
C1501 C1517 1.377 . S
C1502 C1500 1.389 . S
C1502 C1503 1.524 . S
C1502 C1516 1.377 . S
C1503 C1502 1.524 . S
C1503 C1504 1.397 . S
C1503 C1508 1.363 . S
C1504 H1481 0.950 . S
C1504 C1503 1.397 . S
C1504 C1505 1.334 . S
C1505 H1482 0.950 . S
C1505 C1504 1.334 . S
C1505 C1506 1.287 . S
C1506 C1505 1.287 . S
C1506 C1507 1.524 . S
C1506 H1525 0.913 . S
C1507 H1483 0.950 . S
C1507 C1506 1.524 . S
C1507 C1508 1.415 . S
C1508 H1484 0.950 . S
C1508 C1503 1.363 . S
C1508 C1507 1.415 . S
C1509 H1485 0.951 . S
C1509 C1510 1.366 . S
C1509 C1511 1.388 . S
C1510 C1509 1.366 . S
C1510 C1514 1.385 . S
C1511 H1486 0.951 . S
C1511 C1509 1.388 . S
C1511 C1512 1.366 . S
C1512 C1511 1.366 . S
C1512 C1513 1.414 . S
C1512 C1515 1.499 . S
C1513 H1487 0.950 . S
C1513 C1512 1.414 . S
C1513 C1514 1.374 . S
C1514 H1488 0.950 . S
C1514 C1510 1.385 . S
C1514 C1513 1.374 . S
C1515 C1512 1.499 . S
C1515 C1516 1.373 . S
C1515 C1517 1.389 . S
C1516 H1489 0.950 . S
C1516 C1502 1.377 . S
C1516 C1515 1.373 . S
C1517 C1501 1.377 . S
C1517 C1515 1.389 . S
C1517 C1518 1.524 . S
C1518 C1517 1.524 . S
C1518 C1519 1.397 . S
C1518 C1523 1.363 . S
C1519 H1490 0.950 . S
C1519 C1518 1.397 . S
C1519 C1520 1.334 . S
C1520 H1491 0.950 . S
C1520 C1519 1.334 . S
C1520 C1521 1.287 . S
C1521 C1520 1.287 . S
C1521 C1522 1.524 . S
C1521 H1524 0.999 . S
C1522 H1492 0.950 . S
C1522 C1521 1.524 . S
C1522 C1523 1.415 . S
C1523 H1493 0.950 . S
C1523 C1518 1.363 . S
C1523 C1522 1.415 . S
H1524 C1521 0.999 . S
H1525 C1506 0.913 . S
H1526 C1544 0.951 . S
H1527 C1546 0.951 . S
H1528 C1548 0.950 . S
H1529 C1549 0.950 . S
H1530 C1551 0.950 . S
H1531 C1554 0.950 . S
H1532 C1555 0.950 . S
H1533 C1557 0.950 . S
H1534 C1558 0.950 1_556 S
H1535 C1559 0.951 . S
H1536 C1561 0.951 . S
H1537 C1563 0.950 . S
H1538 C1564 0.950 . S
H1539 C1566 0.950 . S
H1540 C1569 0.950 . S
H1541 C1570 0.950 . S
H1542 C1572 0.950 . S
H1543 C1573 0.950 1_554 S
C1544 H1526 0.951 . S
C1544 C1545 1.366 1_556 S
C1544 C1546 1.388 . S
C1545 C1544 1.366 1_554 S
C1545 C1549 1.385 . S
C1546 H1527 0.951 . S
C1546 C1544 1.388 . S
C1546 C1547 1.366 1_556 S
C1547 C1546 1.366 1_554 S
C1547 C1548 1.414 . S
C1547 C1550 1.499 . S
C1548 H1528 0.950 . S
C1548 C1547 1.414 . S
C1548 C1549 1.374 . S
C1549 H1529 0.950 . S
C1549 C1545 1.385 . S
C1549 C1548 1.374 . S
C1550 C1547 1.499 . S
C1550 C1551 1.373 1_554 S
C1550 C1552 1.389 . S
C1551 H1530 0.950 . S
C1551 C1550 1.373 1_556 S
C1551 C1567 1.377 . S
C1552 C1550 1.389 . S
C1552 C1553 1.524 . S
C1552 C1566 1.377 . S
C1553 C1552 1.524 . S
C1553 C1554 1.397 . S
C1553 C1558 1.363 . S
C1554 H1531 0.950 . S
C1554 C1553 1.397 . S
C1554 C1555 1.334 . S
C1555 H1532 0.950 . S
C1555 C1554 1.334 . S
C1555 C1556 1.287 . S
C1556 C1555 1.287 . S
C1556 C1557 1.524 . S
C1556 H1575 0.913 . S
C1557 H1533 0.950 . S
C1557 C1556 1.524 . S
C1557 C1558 1.415 . S
C1558 H1534 0.950 1_554 S
C1558 C1553 1.363 . S
C1558 C1557 1.415 . S
C1559 H1535 0.951 . S
C1559 C1560 1.366 . S
C1559 C1561 1.388 . S
C1560 C1559 1.366 . S
C1560 C1564 1.385 1_554 S
C1561 H1536 0.951 . S
C1561 C1559 1.388 . S
C1561 C1562 1.378 . S
C1562 C1561 1.378 . S
C1562 C1563 1.403 1_554 S
C1562 C1565 1.498 . S
C1563 H1537 0.950 . S
C1563 C1562 1.403 1_556 S
C1563 C1564 1.374 . S
C1564 H1538 0.950 . S
C1564 C1560 1.385 1_556 S
C1564 C1563 1.374 . S
C1565 C1562 1.498 . S
C1565 C1566 1.372 . S
C1565 C1567 1.390 1_554 S
C1566 H1539 0.950 . S
C1566 C1552 1.377 . S
C1566 C1565 1.372 . S
C1567 C1551 1.377 . S
C1567 C1565 1.390 1_556 S
C1567 C1568 1.524 . S
C1568 C1567 1.524 . S
C1568 C1569 1.397 . S
C1568 C1573 1.363 . S
C1569 H1540 0.950 . S
C1569 C1568 1.397 . S
C1569 C1570 1.334 . S
C1570 H1541 0.950 . S
C1570 C1569 1.334 . S
C1570 C1571 1.287 . S
C1571 C1570 1.287 . S
C1571 C1572 1.524 . S
C1571 H1574 0.999 . S
C1572 H1542 0.950 . S
C1572 C1571 1.524 . S
C1572 C1573 1.415 . S
C1573 H1543 0.950 1_556 S
C1573 C1568 1.363 . S
C1573 C1572 1.415 . S
H1574 C1571 0.999 . S
H1575 C1556 0.913 . S
C395 C21 1.592 . S
C410 C197 1.574 . S
C445 C40 1.700 . S
C460 C119 1.623 . S
C510 C155 1.544 . S
C495 C54 1.557 . S
C545 C73 1.740 . S
C560 C161 1.723 . S
C610 C299 1.545 . S
C595 C74 1.558 . S
C660 C305 1.674 . S
C645 C10 1.698 . S
C710 C341 1.573 . S
C695 C37 1.591 . S
C760 C263 1.671 . S
C745 C65 1.742 . S
C795 C52 1.557 . S
C810 C125 1.549 . S
C845 C87 1.740 . S
C860 C191 1.722 . S
C895 C15 1.595 . S
C910 C227 1.562 . S
C960 C89 1.632 . S
C945 C32 1.693 . S
C995 C29 1.596 . S
C1010 C371 1.564 . S
C1060 C233 1.684 . S
C1045 C59 1.738 . S
C1110 C269 1.548 . S
C1095 C84 1.555 . S
C1145 C8 1.694 . S
C1160 C335 1.669 . S
C1210 C113 1.770 . S
C1195 C7 1.841 . S
C1260 C149 1.679 . S
C1245 C30 1.680 . S
C1295 C62 1.862 . S
C1310 C185 1.842 . S
C1345 C81 1.667 . S
C1360 C221 1.645 . S
C1410 C257 1.786 . S
C1395 C76 1.862 . S
C1445 C18 1.679 . S
C1460 C293 1.679 . S
C1495 C43 1.841 . S
C1510 C329 1.823 . S
C1545 C51 1.667 . S
C1560 C365 1.644 . S
