# Generated by pormake.
# Topology nom, (4,4)-cn, num edge types: 1
# Building blocks:
#     Node 0, Type 0, BuildingBlock: MIFKUJ_clean_linker_1, # of connection points: 4
#     Node 1, Type 0, BuildingBlock: MIFKUJ_clean_linker_1, # of connection points: 4
#     Node 2, Type 0, BuildingBlock: MIFKUJ_clean_linker_1, # of connection points: 4
#     Node 3, Type 0, BuildingBlock: MIFKUJ_clean_linker_1, # of connection points: 4
#     Node 4, Type 0, BuildingBlock: MIFKUJ_clean_linker_1, # of connection points: 4
#     Node 5, Type 0, BuildingBlock: MIFKUJ_clean_linker_1, # of connection points: 4
#     Node 6, Type 1, BuildingBlock: KUFVIS_clean_sbu_0, # of connection points: 4
#     Node 7, Type 1, BuildingBlock: KUFVIS_clean_sbu_0, # of connection points: 4
#     Node 8, Type 1, BuildingBlock: KUFVIS_clean_sbu_0, # of connection points: 4
#     Node 9, Type 1, BuildingBlock: KUFVIS_clean_sbu_0, # of connection points: 4
#     Node 10, Type 1, BuildingBlock: KUFVIS_clean_sbu_0, # of connection points: 4
#     Node 11, Type 1, BuildingBlock: KUFVIS_clean_sbu_0, # of connection points: 4
#     Edge 12, Type (0, 1), BuildingBlock: XUDNAN_clean_linker_2, # of connection points: 2
#     Edge 13, Type (0, 1), BuildingBlock: XUDNAN_clean_linker_2, # of connection points: 2
#     Edge 14, Type (0, 1), BuildingBlock: XUDNAN_clean_linker_2, # of connection points: 2
#     Edge 15, Type (0, 1), BuildingBlock: XUDNAN_clean_linker_2, # of connection points: 2
#     Edge 16, Type (0, 1), BuildingBlock: XUDNAN_clean_linker_2, # of connection points: 2
#     Edge 17, Type (0, 1), BuildingBlock: XUDNAN_clean_linker_2, # of connection points: 2
#     Edge 18, Type (0, 1), BuildingBlock: XUDNAN_clean_linker_2, # of connection points: 2
#     Edge 19, Type (0, 1), BuildingBlock: XUDNAN_clean_linker_2, # of connection points: 2
#     Edge 20, Type (0, 1), BuildingBlock: XUDNAN_clean_linker_2, # of connection points: 2
#     Edge 21, Type (0, 1), BuildingBlock: XUDNAN_clean_linker_2, # of connection points: 2
#     Edge 22, Type (0, 1), BuildingBlock: XUDNAN_clean_linker_2, # of connection points: 2
#     Edge 23, Type (0, 1), BuildingBlock: XUDNAN_clean_linker_2, # of connection points: 2
#     Edge 24, Type (0, 1), BuildingBlock: XUDNAN_clean_linker_2, # of connection points: 2
#     Edge 25, Type (0, 1), BuildingBlock: XUDNAN_clean_linker_2, # of connection points: 2
#     Edge 26, Type (0, 1), BuildingBlock: XUDNAN_clean_linker_2, # of connection points: 2
#     Edge 27, Type (0, 1), BuildingBlock: XUDNAN_clean_linker_2, # of connection points: 2
#     Edge 28, Type (0, 1), BuildingBlock: XUDNAN_clean_linker_2, # of connection points: 2
#     Edge 29, Type (0, 1), BuildingBlock: XUDNAN_clean_linker_2, # of connection points: 2
#     Edge 30, Type (0, 1), BuildingBlock: XUDNAN_clean_linker_2, # of connection points: 2
#     Edge 31, Type (0, 1), BuildingBlock: XUDNAN_clean_linker_2, # of connection points: 2
#     Edge 32, Type (0, 1), BuildingBlock: XUDNAN_clean_linker_2, # of connection points: 2
#     Edge 33, Type (0, 1), BuildingBlock: XUDNAN_clean_linker_2, # of connection points: 2
#     Edge 34, Type (0, 1), BuildingBlock: XUDNAN_clean_linker_2, # of connection points: 2
#     Edge 35, Type (0, 1), BuildingBlock: XUDNAN_clean_linker_2, # of connection points: 2
# Relax obj value: 0.001
# Max RMSD: 0.099
# Mean RMSD: 0.062
data_MOF--net-nom--node1-KUFVIS_clean_sbu_0--node2-MIFKUJ_clean_linker_1--edge1-XUDNAN_clean_linker_2
_symmetry_space_group_name_H-M    P1
_symmetry_Int_Tables_number       1
_symmetry_cell_setting            triclinic
loop_
_symmetry_equiv_pos_as_xyz
'x, y, z'
_cell_length_a     52.465967
_cell_length_b     52.980865
_cell_length_c     56.103798
_cell_angle_alpha  90.613549
_cell_angle_beta   90.64876
_cell_angle_gamma 119.98509
loop_
_atom_site_label
_atom_site_type_symbol
_atom_site_fract_x
_atom_site_fract_y
_atom_site_fract_z
_atom_type_partial_charge
H0 H 0.94427 0.47399 0.30064 0.0
H1 H 0.91616 0.45963 0.26296 0.0
H2 H 0.95741 0.55026 0.24351 0.0
H3 H 0.98617 0.56415 0.28068 0.0
H4 H 0.02513 0.54388 0.29063 0.0
H5 H 0.9416 0.47792 0.36496 0.0
H6 H 0.89239 0.46569 0.37854 0.0
H7 H 0.89785 0.53731 0.33852 0.0
H8 H 0.9468 0.54956 0.32523 0.0
H9 H 0.04648 0.58504 0.38616 0.0
H10 H 0.08432 0.59807 0.41723 0.0
H11 H 0.09744 0.52775 0.39257 0.0
H12 H 0.06097 0.51626 0.36081 0.0
H13 H 0.99299 0.52843 0.37462 0.0
H14 H 0.08437 0.60145 0.34241 0.0
H15 H 0.13429 0.6278 0.32691 0.0
H16 H 0.11456 0.5541 0.28097 0.0
H17 H 0.0648 0.52775 0.29666 0.0
C18 C 0.96737 0.52009 0.29333 0.0
C19 C 0.94679 0.49073 0.28839 0.0
C20 C 0.93071 0.48259 0.26685 0.0
C21 C 0.93487 0.50375 0.24997 0.0
C22 C 0.95423 0.5333 0.25576 0.0
C23 C 0.97049 0.54134 0.2771 0.0
C24 C 0.98813 0.52836 0.31387 0.0
C25 C 0.01811 0.54033 0.30902 0.0
C26 C 0.97882 0.52416 0.33777 0.0
C27 C 0.94787 0.5146 0.34399 0.0
C28 C 0.93197 0.4907 0.35886 0.0
C29 C 0.90383 0.48361 0.36647 0.0
C30 C 0.89138 0.50062 0.35964 0.0
C31 C 0.90697 0.52391 0.34415 0.0
C32 C 0.93488 0.53081 0.33642 0.0
C33 C 0.05118 0.54986 0.37116 0.0
C34 C 0.05754 0.57245 0.3876 0.0
C35 C 0.07909 0.57974 0.40544 0.0
C36 C 0.09428 0.56416 0.40743 0.0
C37 C 0.08692 0.54082 0.39131 0.0
C38 C 0.06583 0.53397 0.37324 0.0
C39 C 0.02995 0.54339 0.35126 0.0
C40 C 0.99991 0.53153 0.35622 0.0
C41 C 0.03923 0.54819 0.32736 0.0
C42 C 0.07078 0.56252 0.32078 0.0
C43 C 0.09104 0.5906 0.32955 0.0
C44 C 0.11959 0.6057 0.32062 0.0
C45 C 0.12828 0.59313 0.30256 0.0
C46 C 0.10839 0.56452 0.29464 0.0
C47 C 0.07997 0.54941 0.30364 0.0
H48 H 0.41857 0.95954 0.51429 0.0
H49 H 0.39408 0.90749 0.52339 0.0
H50 H 0.47 0.90412 0.49842 0.0
H51 H 0.49385 0.95572 0.48901 0.0
H52 H 0.47611 0.00718 0.53077 0.0
H53 H 0.42521 0.96598 0.45131 0.0
H54 H 0.41149 0.92972 0.41872 0.0
H55 H 0.5023 0.95194 0.41321 0.0
H56 H 0.51607 0.98878 0.44518 0.0
H57 H 0.55638 0.07947 0.45897 0.0
H58 H 0.58491 0.13068 0.44817 0.0
H59 H 0.52142 0.14737 0.4827 0.0
H60 H 0.49322 0.09613 0.49372 0.0
H61 H 0.50172 0.03784 0.44698 0.0
H62 H 0.55566 0.07751 0.51899 0.0
H63 H 0.57785 0.11509 0.5501 0.0
H64 H 0.49128 0.09605 0.57178 0.0
H65 H 0.46913 0.0577 0.54069 0.0
C66 C 0.4578 0.96136 0.50059 0.0
C67 C 0.42987 0.94751 0.51084 0.0
C68 C 0.41599 0.91778 0.51614 0.0
C69 C 0.42991 0.90143 0.51144 0.0
C70 C 0.45827 0.91574 0.50177 0.0
C71 C 0.47201 0.94532 0.49642 0.0
C72 C 0.47236 0.9926 0.4942 0.0
C73 C 0.48104 0.0139 0.5124 0.0
C74 C 0.47998 1.00145 0.4704 0.0
C75 C 0.47163 0.97997 0.45057 0.0
C76 C 0.44214 0.96318 0.44291 0.0
C77 C 0.43437 0.94263 0.42433 0.0
C78 C 0.4559 0.93822 0.41358 0.0
C79 C 0.48537 0.95503 0.42129 0.0
C80 C 0.49323 0.97602 0.43945 0.0
C81 C 0.52263 0.08388 0.47715 0.0
C82 C 0.54858 0.09415 0.46419 0.0
C83 C 0.56487 0.12348 0.45801 0.0
C84 C 0.55546 0.14324 0.46448 0.0
C85 C 0.52959 0.13294 0.47771 0.0
C86 C 0.51334 0.10357 0.48393 0.0
C87 C 0.50528 0.05255 0.48349 0.0
C88 C 0.49617 0.03123 0.4653 0.0
C89 C 0.49799 0.04371 0.50737 0.0
C90 C 0.51081 0.06513 0.52737 0.0
C91 C 0.54146 0.08138 0.53048 0.0
C92 C 0.55409 0.10301 0.54819 0.0
C93 C 0.53635 0.10898 0.56317 0.0
C94 C 0.50554 0.09197 0.56056 0.0
C95 C 0.49286 0.07011 0.54282 0.0
H96 H 0.51346 0.54056 0.72741 0.0
H97 H 0.49457 0.55325 0.76273 0.0
H98 H 0.40561 0.49487 0.73769 0.0
H99 H 0.42445 0.48189 0.70295 0.0
H100 H 0.50541 0.48708 0.71433 0.0
H101 H 0.49219 0.55997 0.67352 0.0
H102 H 0.46647 0.58628 0.66358 0.0
H103 H 0.38986 0.50485 0.64146 0.0
H104 H 0.41667 0.47927 0.64997 0.0
H105 H 0.45752 0.43405 0.62248 0.0
H106 H 0.4685 0.4154 0.58636 0.0
H107 H 0.56152 0.46821 0.60255 0.0
H108 H 0.55034 0.48662 0.63882 0.0
H109 H 0.47241 0.48953 0.63162 0.0
H110 H 0.49064 0.41776 0.67098 0.0
H111 H 0.51915 0.39435 0.68224 0.0
H112 H 0.58893 0.47686 0.70992 0.0
H113 H 0.56046 0.5001 0.69857 0.0
C114 C 0.47039 0.51045 0.71242 0.0
C115 C 0.4899 0.53069 0.7295 0.0
C116 C 0.4791 0.53806 0.74956 0.0
C117 C 0.44861 0.52496 0.75303 0.0
C118 C 0.42921 0.50512 0.73566 0.0
C119 C 0.43997 0.4979 0.71565 0.0
C120 C 0.48135 0.50096 0.69184 0.0
C121 C 0.4987 0.48807 0.69616 0.0
C122 C 0.47232 0.50197 0.66822 0.0
C123 C 0.45635 0.51771 0.6624 0.0
C124 C 0.46988 0.54791 0.66639 0.0
C125 C 0.45495 0.56287 0.66089 0.0
C126 C 0.42588 0.54788 0.65167 0.0
C127 C 0.41237 0.51745 0.64797 0.0
C128 C 0.42758 0.50263 0.65299 0.0
C129 C 0.50307 0.4617 0.63345 0.0
C130 C 0.48029 0.4414 0.61839 0.0
C131 C 0.48661 0.43083 0.59768 0.0
C132 C 0.51591 0.44044 0.59143 0.0
C133 C 0.5387 0.46006 0.60695 0.0
C134 C 0.53234 0.47064 0.62771 0.0
C135 C 0.49607 0.47496 0.65406 0.0
C136 C 0.47941 0.48866 0.64971 0.0
C137 C 0.50617 0.47501 0.67761 0.0
C138 C 0.52356 0.46075 0.68371 0.0
C139 C 0.51216 0.43081 0.67933 0.0
C140 C 0.52833 0.41742 0.68598 0.0
C141 C 0.55629 0.43377 0.69696 0.0
C142 C 0.56759 0.46373 0.7013 0.0
C143 C 0.55131 0.47702 0.69489 0.0
H144 H 0.08081 0.58576 0.80166 0.0
H145 H 0.11387 0.6054 0.76841 0.0
H146 H 0.07266 0.51968 0.73509 0.0
H147 H 0.04116 0.49968 0.76958 0.0
H148 H 1.00009 0.50341 0.78715 0.0
H149 H 0.08353 0.58802 0.85822 0.0
H150 H 0.13601 0.6103 0.86884 0.0
H151 H 0.13932 0.54007 0.83195 0.0
H152 H 0.08704 0.51791 0.82145 0.0
H153 H 1.0023 0.49205 0.89184 0.0
H154 H 0.96823 0.48048 0.92464 0.0
H155 H 0.91477 0.50367 0.88109 0.0
H156 H 0.94985 0.51693 0.84904 0.0
H157 H 0.03784 0.53648 0.86977 0.0
H158 H 0.95842 0.44973 0.84742 0.0
H159 H 0.90847 0.41039 0.83997 0.0
H160 H 0.89953 0.45774 0.78124 0.0
H161 H 0.94926 0.4983 0.78995 0.0
C162 C 0.05865 0.54107 0.78848 0.0
C163 C 0.07923 0.57098 0.78749 0.0
C164 C 0.09788 0.58234 0.76812 0.0
C165 C 0.09595 0.56426 0.74879 0.0
C166 C 0.07516 0.53429 0.74971 0.0
C167 C 0.05681 0.52283 0.76936 0.0
C168 C 0.03871 0.52931 0.80923 0.0
C169 C 1.00834 0.51072 0.80518 0.0
C170 C 0.04949 0.53719 0.83301 0.0
C171 C 0.08142 0.5514 0.83893 0.0
C172 C 0.09562 0.5775 0.85238 0.0
C173 C 0.12559 0.59028 0.8583 0.0
C174 C 0.1417 0.57688 0.85123 0.0
C175 C 0.1274 0.55076 0.83778 0.0
C176 C 0.0976 0.5382 0.83165 0.0
C177 C 0.97864 0.50521 0.86781 0.0
C178 C 0.98345 0.49502 0.88947 0.0
C179 C 0.96368 0.48801 0.90814 0.0
C180 C 0.93855 0.49095 0.90557 0.0
C181 C 0.934 0.50145 0.88392 0.0
C182 C 0.95392 0.50874 0.8654 0.0
C183 C 0.99907 0.51178 0.84756 0.0
C184 C 0.02952 0.52932 0.85172 0.0
C185 C 0.98853 0.5009 0.82414 0.0
C186 C 0.95763 0.47727 0.81947 0.0
C187 C 0.94558 0.45206 0.83326 0.0
C188 C 0.91703 0.4293 0.82874 0.0
C189 C 0.89997 0.43068 0.80982 0.0
C190 C 0.9119 0.45604 0.7961 0.0
C191 C 0.94048 0.47912 0.80088 0.0
H192 H 0.60497 0.08631 0.00802 0.0
H193 H 0.63434 0.13843 0.01711 0.0
H194 H 0.55617 0.14589 0.00954 0.0
H195 H 0.52751 0.09397 0.99906 0.0
H196 H 0.53844 0.0418 0.03256 0.0
H197 H 0.59946 0.07931 0.96009 0.0
H198 H 0.61907 0.10909 0.92466 0.0
H199 H 0.5313 0.08848 0.90341 0.0
H200 H 0.51177 0.05876 0.9391 0.0
H201 H 0.47364 0.96547 0.94988 0.0
H202 H 0.45651 0.91625 0.93412 0.0
H203 H 0.51173 0.90526 0.98566 0.0
H204 H 0.5296 0.95484 1.00096 0.0
H205 H 0.52423 0.0094 0.9478 0.0
H206 H 0.4628 0.95913 0.01141 0.0
H207 H 0.44024 0.92573 0.04408 0.0
H208 H 0.52223 0.97054 0.08433 0.0
H209 H 0.54526 1.00261 0.0508 0.0
C210 C 0.56419 0.08647 1.00286 0.0
C211 C 0.59428 0.09929 0.00837 0.0
C212 C 0.61096 0.1291 0.01373 0.0
C213 C 0.59774 0.14662 0.01415 0.0
C214 C 0.56733 0.13337 0.00899 0.0
C215 C 0.55078 0.10362 1.00322 0.0
C216 C 0.54701 0.05524 0.99613 0.0
C217 C 0.5354 0.03441 0.0141 0.0
C218 C 0.54209 0.04608 0.97203 0.0
C219 C 0.55421 0.06701 0.95228 0.0
C220 C 0.58453 0.08178 0.94813 0.0
C221 C 0.59566 0.09861 0.9278 0.0
C222 C 0.57668 0.10099 0.91123 0.0
C223 C 0.54645 0.08724 0.91598 0.0
C224 C 0.53528 0.07017 0.93626 0.0
C225 C 0.50285 0.96397 0.97673 0.0
C226 C 0.482 0.95247 0.95791 0.0
C227 C 0.47224 0.92436 0.94887 0.0
C228 C 0.4829 0.90702 0.9586 0.0
C229 C 0.50297 0.91808 0.97797 0.0
C230 C 0.51307 0.94638 0.98679 0.0
C231 C 0.51584 0.99511 0.98425 0.0
C232 C 0.52669 0.01623 0.96639 0.0
C233 C 0.5195 1.00431 0.00856 0.0
C234 C 0.50593 0.98334 0.02837 0.0
C235 C 0.47618 0.96143 0.02703 0.0
C236 C 0.46311 0.94255 0.04599 0.0
C237 C 0.47925 0.94545 0.06709 0.0
C238 C 0.50911 0.9673 0.06835 0.0
C239 C 0.52228 0.98595 0.04922 0.0
H240 H 0.5046 0.49119 0.21586 0.0
H241 H 0.51567 0.46844 0.24918 0.0
H242 H 0.60858 0.52766 0.24051 0.0
H243 H 0.59739 0.55018 0.20698 0.0
H244 H 0.51928 0.5499 0.20953 0.0
H245 H 0.53447 0.47647 0.1727 0.0
H246 H 0.56056 0.45011 0.16416 0.0
H247 H 0.63331 0.52888 0.13682 0.0
H248 H 0.60688 0.55504 0.14523 0.0
H249 H 0.53963 0.61644 0.14451 0.0
H250 H 0.52122 0.63429 0.11225 0.0
H251 H 0.48785 0.55209 0.07453 0.0
H252 H 0.50473 0.53362 0.10733 0.0
H253 H 0.55383 0.54573 0.12838 0.0
H254 H 0.5321 0.605 0.20521 0.0
H255 H 0.50526 0.63092 0.21196 0.0
H256 H 0.44144 0.57737 0.15745 0.0
H257 H 0.46748 0.55034 0.15188 0.0
C258 C 0.55017 0.52226 0.20891 0.0
C259 C 0.52733 0.49935 0.22121 0.0
C260 C 0.53369 0.48629 0.24013 0.0
C261 C 0.56299 0.49627 0.24736 0.0
C262 C 0.58582 0.51967 0.23537 0.0
C263 C 0.57946 0.53244 0.2162 0.0
C264 C 0.5433 0.53514 0.18819 0.0
C265 C 0.52683 0.54907 0.19178 0.0
C266 C 0.55297 0.53377 0.16503 0.0
C267 C 0.5689 0.51782 0.1599 0.0
C268 C 0.55615 0.48812 0.16505 0.0
C269 C 0.5711 0.47308 0.16016 0.0
C270 C 0.59909 0.4874 0.14988 0.0
C271 C 0.61166 0.5171 0.14447 0.0
C272 C 0.59666 0.53213 0.14938 0.0
C273 C 0.5229 0.57339 0.12868 0.0
C274 C 0.52836 0.60222 0.12933 0.0
C275 C 0.51802 0.61247 0.11087 0.0
C276 C 0.50308 0.59445 0.09107 0.0
C277 C 0.49945 0.56638 0.08961 0.0
C278 C 0.50912 0.55587 0.10833 0.0
C279 C 0.52992 0.56081 0.14963 0.0
C280 C 0.54638 0.54681 0.14612 0.0
C281 C 0.51981 0.56177 0.17281 0.0
C282 C 0.50209 0.576 0.1778 0.0
C283 C 0.51208 0.59856 0.19496 0.0
C284 C 0.49689 0.61365 0.19856 0.0
C285 C 0.47138 0.60663 0.18498 0.0
C286 C 0.46087 0.58333 0.16833 0.0
C287 C 0.4759 0.56799 0.16497 0.0
Mn288 Mn 0.63169 0.39365 0.42535 0.0
Mn289 Mn 0.65234 0.46361 0.43967 0.0
C290 C 0.6028 0.40408 0.45017 0.0
C291 C 0.63095 0.34955 0.43041 0.0
C292 C 0.62439 0.43551 0.3921 0.0
O293 O 0.67539 0.41535 0.4167 0.0
O294 O 0.68611 0.4606 0.42769 0.0
C295 C 0.69259 0.4722 0.48025 0.0
N296 N 0.66848 0.47249 0.47134 0.0
C297 C 0.66333 0.49391 0.50764 0.0
C298 C 0.6881 0.49386 0.51724 0.0
C299 C 0.70261 0.48268 0.50356 0.0
C300 C 0.65379 0.4823 0.48462 0.0
H301 H 0.70424 0.4643 0.46957 0.0
C302 C 0.69351 0.44264 0.41935 0.0
O303 O 0.62595 0.35733 0.40989 0.0
O304 O 0.6374 0.36784 0.44818 0.0
N305 N 0.62221 0.4703 0.45169 0.0
C306 C 0.59931 0.46979 0.43953 0.0
C307 C 0.5819 0.47934 0.45099 0.0
C308 C 0.58885 0.49031 0.4745 0.0
C309 C 0.61323 0.49172 0.48632 0.0
C310 C 0.6293 0.48117 0.47422 0.0
H311 H 0.59427 0.46202 0.42127 0.0
O312 O 0.59152 0.3795 0.4384 0.0
O313 O 0.63074 0.42188 0.44736 0.0
O314 O 0.62169 0.4108 0.39666 0.0
O315 O 0.6357 0.45697 0.40688 0.0
C316 C 0.62274 0.504 0.50934 0.0
C317 C 0.64796 0.50537 0.51989 0.0
H318 H 0.69619 0.5024 0.53507 0.0
H319 H 0.72177 0.4826 0.51082 0.0
H320 H 0.56338 0.47858 0.44161 0.0
H321 H 0.5756 0.49802 0.48317 0.0
H322 H 0.61089 0.51255 0.51907 0.0
H323 H 0.65503 0.51482 0.53763 0.0
Mn324 Mn 0.26982 0.65302 0.57291 0.0
Mn325 Mn 0.23204 0.57949 0.56954 0.0
C326 C 0.23177 0.62907 0.54508 0.0
C327 C 0.30923 0.69774 0.56129 0.0
C328 C 0.22331 0.61452 0.6086 0.0
O329 O 0.29656 0.64168 0.59121 0.0
O330 O 0.2713 0.59301 0.58455 0.0
C331 C 0.26922 0.5707 0.53492 0.0
N332 N 0.24239 0.56636 0.54135 0.0
C333 C 0.21962 0.5384 0.50545 0.0
C334 C 0.24693 0.54222 0.49861 0.0
C335 C 0.27186 0.55854 0.51337 0.0
C336 C 0.21832 0.55092 0.52718 0.0
H337 H 0.28849 0.58351 0.54606 0.0
C338 C 0.29376 0.61632 0.59268 0.0
O339 O 0.29569 0.69537 0.5811 0.0
O340 O 0.30064 0.67398 0.54885 0.0
N341 N 0.19379 0.56358 0.55495 0.0
C342 C 0.1695 0.56348 0.5634 0.0
C343 C 0.1428 0.54858 0.55047 0.0
C344 C 0.14134 0.53389 0.52906 0.0
C345 C 0.16666 0.53448 0.52064 0.0
C346 C 0.19254 0.54931 0.53446 0.0
H347 H 0.17045 0.5746 0.57992 0.0
O348 O 0.24032 0.65573 0.5516 0.0
O349 O 0.24581 0.61741 0.55496 0.0
O350 O 0.24101 0.63965 0.60049 0.0
O351 O 0.2192 0.59078 0.59893 0.0
C352 C 0.16729 0.52119 0.49894 0.0
C353 C 0.19378 0.52323 0.49131 0.0
H354 H 0.24909 0.53303 0.48193 0.0
H355 H 0.29307 0.56183 0.50811 0.0
H356 H 0.12336 0.54837 0.55701 0.0
H357 H 0.12069 0.52231 0.51918 0.0
H358 H 0.14763 0.50969 0.48782 0.0
H359 H 0.19411 0.51333 0.47441 0.0
Mn360 Mn 0.64069 0.2651 0.73815 0.0
Mn361 Mn 0.67406 0.22914 0.71732 0.0
C362 C 0.62069 0.23314 0.70572 0.0
C363 C 0.63546 0.30636 0.73681 0.0
C364 C 0.63772 0.21194 0.76226 0.0
O365 O 0.68187 0.28813 0.75346 0.0
O366 O 0.70193 0.2631 0.73725 0.0
C367 C 0.71588 0.27482 0.68537 0.0
N368 N 0.69395 0.24692 0.68866 0.0
C369 C 0.6945 0.23441 0.64739 0.0
C370 C 0.71724 0.26297 0.64358 0.0
C371 C 0.72791 0.28328 0.66265 0.0
C372 C 0.68339 0.22727 0.67042 0.0
H373 H 0.72409 0.29049 0.69998 0.0
C374 C 0.70337 0.2836 0.75051 0.0
O375 O 0.62671 0.28942 0.75512 0.0
O376 O 0.64765 0.29971 0.71983 0.0
N377 N 0.64984 0.1956 0.69768 0.0
C378 C 0.62735 0.16921 0.70424 0.0
C379 C 0.61427 0.14638 0.68728 0.0
C380 C 0.62445 0.15093 0.66378 0.0
C381 C 0.6477 0.17823 0.65748 0.0
C382 C 0.66023 0.19999 0.67526 0.0
H383 H 0.61958 0.16556 0.72231 0.0
O384 O 0.6044 0.24009 0.7182 0.0
O385 O 0.64809 0.24517 0.71254 0.0
O386 O 0.63016 0.23149 0.76162 0.0
O387 O 0.65372 0.20937 0.74648 0.0
C388 C 0.65882 0.18477 0.63424 0.0
C389 C 0.68213 0.21289 0.62917 0.0
H390 H 0.72652 0.2696 0.62607 0.0
H391 H 0.74535 0.3054 0.65982 0.0
H392 H 0.59639 0.12532 0.6923 0.0
H393 H 0.61424 0.13331 0.6507 0.0
H394 H 0.64941 0.16843 0.62008 0.0
H395 H 0.69025 0.21777 0.61118 0.0
Mn396 Mn 0.40309 0.65273 0.9187 0.0
Mn397 Mn 0.35678 0.5862 0.94012 0.0
C398 C 0.41794 0.63505 0.95023 0.0
C399 C 0.4198 0.70265 0.91895 0.0
C400 C 0.39042 0.59551 0.89425 0.0
O401 O 0.3633 0.64376 0.90498 0.0
O402 O 0.33394 0.60043 0.92172 0.0
C403 C 0.32509 0.60328 0.97413 0.0
N404 N 0.34161 0.59053 0.96974 0.0
C405 C 0.34088 0.57835 0.01101 0.0
C406 C 0.3237 0.59119 0.01595 0.0
C407 C 0.31583 0.60376 0.99743 0.0
C408 C 0.3494 0.57847 0.98743 0.0
H409 H 0.31907 0.61306 0.95996 0.0
C410 C 0.33798 0.62186 0.90876 0.0
O411 O 0.42329 0.68972 0.90049 0.0
O412 O 0.4065 0.68657 0.93699 0.0
N413 N 0.37565 0.56974 0.9585 0.0
C414 C 0.39318 0.5592 0.9509 0.0
C415 C 0.4031 0.546 0.96728 0.0
C416 C 0.39484 0.54371 0.99124 0.0
C417 C 0.37679 0.55471 0.99863 0.0
C418 C 0.36721 0.56723 0.98144 0.0
H419 H 0.39949 0.5608 0.93249 0.0
O420 O 0.43733 0.65577 0.93729 0.0
O421 O 0.39054 0.62556 0.94439 0.0
O422 O 0.40439 0.62337 0.8951 0.0
O423 O 0.37197 0.57983 0.90997 0.0
C424 C 0.36814 0.55395 0.02242 0.0
C425 C 0.35028 0.56586 0.02862 0.0
H426 H 0.31661 0.5917 0.03392 0.0
H427 H 0.30269 0.61383 1.00112 0.0
H428 H 0.41708 0.5376 0.96146 0.0
H429 H 0.40252 0.53353 1.00385 0.0
H430 H 0.37536 0.54455 0.03612 0.0
H431 H 0.34406 0.56547 0.04702 0.0
Mn432 Mn 0.76722 0.40886 0.0831 0.0
Mn433 Mn 0.80641 0.37419 0.08441 0.0
C434 C 0.80911 0.42721 0.10685 0.0
C435 C 0.72823 0.41368 0.09727 0.0
C436 C 0.80953 0.41346 0.04409 0.0
O437 O 0.73937 0.36948 0.06757 0.0
O438 O 0.76559 0.34678 0.07262 0.0
C439 C 0.77405 0.33228 0.12239 0.0
N440 N 0.79972 0.35425 0.11388 0.0
C441 C 0.8269 0.35293 0.14819 0.0
C442 C 0.8008 0.33017 0.15726 0.0
C443 C 0.77424 0.31992 0.14436 0.0
C444 C 0.82528 0.36468 0.12638 0.0
H445 H 0.7536 0.32426 0.11249 0.0
C446 C 0.74223 0.34699 0.06602 0.0
O447 O 0.73912 0.42308 0.07641 0.0
O448 O 0.73953 0.40094 0.10953 0.0
N449 N 0.84622 0.39764 0.09565 0.0
C450 C 0.86959 0.41925 0.08419 0.0
C451 C 0.89773 0.4322 0.09492 0.0
C452 C 0.90168 0.42237 0.11706 0.0
C453 C 0.87749 0.39946 0.12814 0.0
C454 C 0.84993 0.38752 0.11667 0.0
H455 H 0.86678 0.42671 0.06705 0.0
O456 O 0.79822 0.44355 0.10099 0.0
O457 O 0.79455 0.40022 0.09933 0.0
O458 O 0.79231 0.42134 0.05315 0.0
O459 O 0.81527 0.39507 0.05382 0.0
C460 C 0.87971 0.38773 0.14996 0.0
C461 C 0.85445 0.36439 0.15992 0.0
H462 H 0.80089 0.32047 0.17414 0.0
H463 H 0.75398 0.30244 0.15128 0.0
H464 H 0.91635 0.44965 0.08612 0.0
H465 H 0.92343 0.43238 0.12527 0.0
H466 H 0.90073 0.39648 0.15924 0.0
H467 H 0.85641 0.35563 0.17676 0.0
Mn468 Mn 0.37332 0.774 0.24212 0.0
Mn469 Mn 0.44719 0.80953 0.25025 0.0
C470 C 0.39514 0.80929 0.27195 0.0
C471 C 0.32627 0.73475 0.24847 0.0
C472 C 0.41682 0.8219 0.20947 0.0
O473 O 0.38556 0.74771 0.22493 0.0
O474 O 0.43427 0.77168 0.23342 0.0
C475 C 0.45259 0.76947 0.28363 0.0
N476 N 0.45748 0.79659 0.27853 0.0
C477 C 0.48285 0.81592 0.31611 0.0
C478 C 0.4782 0.78822 0.32171 0.0
C479 C 0.46296 0.76489 0.30542 0.0
C480 C 0.47218 0.81921 0.29405 0.0
H481 H 0.44086 0.75146 0.27118 0.0
C482 C 0.41097 0.74998 0.22431 0.0
O483 O 0.33241 0.75034 0.22948 0.0
O484 O 0.34755 0.74175 0.26386 0.0
N485 N 0.46237 0.84619 0.26676 0.0
C486 C 0.46305 0.87095 0.25942 0.0
C487 C 0.47665 0.89609 0.27406 0.0
C488 C 0.48948 0.89555 0.29602 0.0
C489 C 0.48843 0.86981 0.30323 0.0
C490 C 0.47481 0.8455 0.2878 0.0
H491 H 0.45323 0.87148 0.24256 0.0
O492 O 0.36933 0.80242 0.26335 0.0
O493 O 0.40743 0.79551 0.26265 0.0
O494 O 0.39067 0.80411 0.21579 0.0
O495 O 0.43957 0.82519 0.22076 0.0
C496 C 0.49985 0.86715 0.32532 0.0
C497 C 0.49704 0.84022 0.33176 0.0
H498 H 0.48598 0.78454 0.33857 0.0
H499 H 0.45918 0.74342 0.30966 0.0
H500 H 0.47719 0.91584 0.26847 0.0
H501 H 0.49987 0.91495 0.30731 0.0
H502 H 0.51039 0.88556 0.33765 0.0
H503 H 0.50548 0.83833 0.34895 0.0
H504 H 0.18325 0.62963 0.3228 0.0
H505 H 0.13753 0.59684 0.25473 0.0
H506 H 0.18375 0.6276 0.23381 0.0
H507 H 0.22953 0.70284 0.30527 0.0
H508 H 0.26139 0.70822 0.3221 0.0
H509 H 0.22505 0.68248 0.33196 0.0
H510 H 0.23864 0.64172 0.33169 0.0
H511 H 0.27506 0.66737 0.32184 0.0
H512 H 0.25249 0.63426 0.30486 0.0
H513 H 0.23343 0.66444 0.2201 0.0
H514 H 0.28468 0.70354 0.21441 0.0
H515 H 0.29962 0.71158 0.29103 0.0
C516 C 0.18307 0.62881 0.3035 0.0
C517 C 0.15679 0.61063 0.2904 0.0
C518 C 0.15745 0.61017 0.26516 0.0
C519 C 0.18358 0.62769 0.25309 0.0
C520 C 0.20901 0.64544 0.26648 0.0
C521 C 0.20912 0.64599 0.29112 0.0
C522 C 0.23952 0.66749 0.30111 0.0
C523 C 0.23882 0.69169 0.31598 0.0
C524 C 0.25217 0.65176 0.31574 0.0
C525 C 0.25626 0.67926 0.27823 0.0
C526 C 0.23814 0.66624 0.2585 0.0
C527 C 0.24797 0.67453 0.23539 0.0
C528 C 0.27707 0.69681 0.23234 0.0
C529 C 0.29614 0.71036 0.25225 0.0
C530 C 0.28564 0.70123 0.27548 0.0
H531 H 0.56669 0.19335 0.48932 0.0
H532 H 0.58062 0.16295 0.42114 0.0
H533 H 0.6061 0.21335 0.4069 0.0
H534 H 0.55024 0.24537 0.46578 0.0
H535 H 0.56853 0.27201 0.48942 0.0
H536 H 0.55375 0.23389 0.49518 0.0
H537 H 0.60495 0.24452 0.51064 0.0
H538 H 0.61994 0.28272 0.5048 0.0
H539 H 0.63643 0.26315 0.49181 0.0
H540 H 0.62596 0.2658 0.39854 0.0
H541 H 0.63878 0.31729 0.39653 0.0
H542 H 0.61301 0.31494 0.47002 0.0
C543 C 0.57523 0.1973 0.47144 0.0
C544 C 0.57183 0.17405 0.45646 0.0
C545 C 0.58343 0.18031 0.43319 0.0
C546 C 0.59787 0.20891 0.42487 0.0
C547 C 0.60072 0.23121 0.44001 0.0
C548 C 0.58981 0.22583 0.46282 0.0
C549 C 0.59457 0.25366 0.47496 0.0
C550 C 0.56502 0.25107 0.48172 0.0
C551 C 0.6152 0.26147 0.49685 0.0
C552 C 0.60919 0.27535 0.45518 0.0
C553 C 0.61267 0.26186 0.43525 0.0
C554 C 0.62377 0.27671 0.41413 0.0
C555 C 0.63098 0.30595 0.41316 0.0
C556 C 0.62726 0.32018 0.4332 0.0
C557 C 0.61677 0.3048 0.45464 0.0
H558 H 0.38433 0.53516 0.61591 0.0
H559 H 0.43043 0.59679 0.67416 0.0
H560 H 0.40415 0.62305 0.66404 0.0
H561 H 0.38046 0.58456 0.57492 0.0
H562 H 0.34371 0.55868 0.56458 0.0
H563 H 0.36781 0.54606 0.57528 0.0
H564 H 0.32891 0.51359 0.60598 0.0
H565 H 0.30464 0.52596 0.59525 0.0
H566 H 0.31478 0.52989 0.62644 0.0
H567 H 0.37206 0.6428 0.64714 0.0
H568 H 0.33443 0.65114 0.6273 0.0
H569 H 0.30701 0.57368 0.58324 0.0
C570 C 0.38885 0.55396 0.62682 0.0
C571 C 0.40983 0.56383 0.64579 0.0
C572 C 0.4151 0.58898 0.65916 0.0
C573 C 0.4001 0.60402 0.65366 0.0
C574 C 0.37956 0.59355 0.63489 0.0
C575 C 0.37374 0.56888 0.62188 0.0
C576 C 0.34959 0.56107 0.60341 0.0
C577 C 0.36109 0.5627 0.57805 0.0
C578 C 0.32291 0.53084 0.60806 0.0
C579 C 0.34258 0.58508 0.60813 0.0
C580 C 0.36033 0.60394 0.62607 0.0
C581 C 0.35796 0.62805 0.63314 0.0
C582 C 0.33663 0.6327 0.62174 0.0
C583 C 0.31766 0.613 0.60384 0.0
C584 C 0.32097 0.58907 0.59697 0.0
H585 H 0.84894 0.42952 0.79422 0.0
H586 H 0.88486 0.37337 0.81083 0.0
H587 H 0.83709 0.33034 0.80098 0.0
H588 H 0.77463 0.38142 0.81582 0.0
H589 H 0.75682 0.38956 0.79188 0.0
H590 H 0.79332 0.41651 0.80194 0.0
H591 H 0.81234 0.42043 0.75897 0.0
H592 H 0.7759 0.39363 0.74878 0.0
H593 H 0.80649 0.38795 0.74341 0.0
H594 H 0.78748 0.29368 0.78748 0.0
H595 H 0.73805 0.26462 0.76942 0.0
H596 H 0.7325 0.34304 0.7605 0.0
C597 C 0.84673 0.40818 0.79583 0.0
C598 C 0.87069 0.40495 0.80375 0.0
C599 C 0.86678 0.37655 0.80551 0.0
C600 C 0.83971 0.35189 0.79982 0.0
C601 C 0.81662 0.35582 0.79226 0.0
C602 C 0.81972 0.38314 0.79011 0.0
C603 C 0.79151 0.38096 0.78034 0.0
C604 C 0.77829 0.39281 0.79859 0.0
C605 C 0.79689 0.39667 0.75646 0.0
C606 C 0.77238 0.34815 0.77698 0.0
C607 C 0.78743 0.33424 0.78419 0.0
C608 C 0.77533 0.30424 0.78193 0.0
C609 C 0.74728 0.28795 0.77159 0.0
C610 C 0.73147 0.30159 0.76364 0.0
C611 C 0.74395 0.33206 0.76678 0.0
H612 H 0.46394 0.85538 0.98163 0.0
H613 H 0.48211 0.89333 0.91142 0.0
H614 H 0.46841 0.84528 0.8934 0.0
H615 H 0.49117 0.80596 0.97187 0.0
H616 H 0.46275 0.77707 0.98878 0.0
H617 H 0.47426 0.81449 0.99607 0.0
H618 H 0.4204 0.80335 0.9912 0.0
H619 H 0.40872 0.76588 0.98393 0.0
H620 H 0.40049 0.78715 0.96369 0.0
H621 H 0.45407 0.79313 0.88322 0.0
H622 H 0.43719 0.74032 0.88154 0.0
H623 H 0.42667 0.73645 0.95825 0.0
C624 C 0.46511 0.85354 0.96248 0.0
C625 C 0.47409 0.87801 0.94789 0.0
C626 C 0.47504 0.87475 0.92287 0.0
C627 C 0.46746 0.84761 0.9125 0.0
C628 C 0.45873 0.8239 0.92738 0.0
C629 C 0.45728 0.82655 0.95181 0.0
C630 C 0.44656 0.79757 0.96377 0.0
C631 C 0.47009 0.79886 0.98114 0.0
C632 C 0.4173 0.78792 0.97639 0.0
C633 C 0.44233 0.77824 0.94228 0.0
C634 C 0.44968 0.79383 0.92146 0.0
C635 C 0.44809 0.78066 0.8994 0.0
C636 C 0.43856 0.75071 0.89861 0.0
C637 C 0.43048 0.7343 0.91972 0.0
C638 C 0.43246 0.74837 0.94177 0.0
H639 H 0.63217 0.49146 0.11079 0.0
H640 H 0.6029 0.44762 0.1783 0.0
H641 H 0.63016 0.42165 0.1708 0.0
H642 H 0.62976 0.43091 0.07774 0.0
H643 H 0.66254 0.45386 0.06138 0.0
H644 H 0.63941 0.46789 0.07137 0.0
H645 H 0.68404 0.51063 0.09342 0.0
H646 H 0.70731 0.49682 0.08343 0.0
H647 H 0.70499 0.50285 0.11481 0.0
H648 H 0.66242 0.40229 0.15704 0.0
H649 H 0.69806 0.39124 0.13817 0.0
H650 H 0.70679 0.44783 0.07965 0.0
C651 C 0.63151 0.47643 0.12402 0.0
C652 C 0.61523 0.47149 0.1451 0.0
C653 C 0.61477 0.45143 0.16185 0.0
C654 C 0.6303 0.43665 0.1578 0.0
C655 C 0.64614 0.44209 0.13689 0.0
C656 C 0.64688 0.46148 0.12027 0.0
C657 C 0.66638 0.46406 0.09962 0.0
C658 C 0.64844 0.45355 0.07614 0.0
C659 C 0.69221 0.49545 0.09772 0.0
C660 C 0.67685 0.44341 0.10742 0.0
C661 C 0.66476 0.43086 0.12891 0.0
C662 C 0.67187 0.41181 0.14014 0.0
C663 C 0.69215 0.40569 0.12927 0.0
C664 C 0.7051 0.41857 0.10739 0.0
C665 C 0.69702 0.4374 0.09624 0.0
H666 H 0.39446 0.87133 0.54915 0.0
H667 H 0.43073 0.85892 0.48376 0.0
H668 H 0.40655 0.80625 0.49103 0.0
H669 H 0.3997 0.81657 0.58365 0.0
H670 H 0.36521 0.80452 0.59832 0.0
H671 H 0.38644 0.84165 0.58871 0.0
H672 H 0.3416 0.83571 0.56415 0.0
H673 H 0.32019 0.79865 0.5738 0.0
H674 H 0.32403 0.8064 0.54242 0.0
H675 H 0.3774 0.75481 0.50445 0.0
H676 H 0.34355 0.70763 0.52244 0.0
H677 H 0.32511 0.75259 0.57889 0.0
C678 C 0.39726 0.85756 0.5363 0.0
C679 C 0.41487 0.8695 0.51598 0.0
C680 C 0.41798 0.85056 0.49973 0.0
C681 C 0.40419 0.82052 0.50363 0.0
C682 C 0.38721 0.80955 0.52386 0.0
C683 C 0.38356 0.82741 0.53989 0.0
C684 C 0.36332 0.80981 0.55981 0.0
C685 C 0.37965 0.81867 0.58406 0.0
C686 C 0.33564 0.81282 0.56004 0.0
C687 C 0.35595 0.77925 0.55229 0.0
C688 C 0.37015 0.77969 0.53157 0.0
C689 C 0.36626 0.7542 0.52074 0.0
C690 C 0.34699 0.72748 0.53112 0.0
C691 C 0.33175 0.72636 0.55213 0.0
C692 C 0.33666 0.75271 0.56298 0.0
H693 H 0.5379 0.3818 0.71981 0.0
H694 H 0.61452 0.45431 0.68872 0.0
H695 H 0.64415 0.43142 0.69895 0.0
H696 H 0.57739 0.37057 0.76908 0.0
H697 H 0.55465 0.33144 0.7677 0.0
H698 H 0.5396 0.35405 0.75893 0.0
H699 H 0.52443 0.32775 0.71768 0.0
H700 H 0.53922 0.30495 0.72638 0.0
H701 H 0.55184 0.32608 0.6997 0.0
H702 H 0.66429 0.39899 0.70921 0.0
H703 H 0.67398 0.35931 0.71964 0.0
H704 H 0.58549 0.30873 0.7463 0.0
C705 C 0.56094 0.39285 0.71523 0.0
C706 C 0.57395 0.4199 0.70352 0.0
C707 C 0.60419 0.43377 0.69793 0.0
C708 C 0.62118 0.42092 0.70364 0.0
C709 C 0.60772 0.39431 0.7152 0.0
C710 C 0.57834 0.38047 0.72107 0.0
C711 C 0.56918 0.35162 0.73294 0.0
C712 C 0.55965 0.35196 0.7587 0.0
C713 C 0.54473 0.3261 0.7183 0.0
C714 C 0.59784 0.35113 0.73235 0.0
C715 C 0.61977 0.37603 0.72203 0.0
C716 C 0.6475 0.37967 0.71773 0.0
C717 C 0.65282 0.35708 0.72373 0.0
C718 C 0.63071 0.33139 0.73424 0.0
C719 C 0.60305 0.3286 0.73901 0.0
H720 H 0.16855 0.5487 0.8704 0.0
H721 H 0.18571 0.63383 0.84812 0.0
H722 H 0.23827 0.6548 0.85963 0.0
H723 H 0.2167 0.5738 0.92168 0.0
H724 H 0.22823 0.54716 0.91809 0.0
H725 H 0.19232 0.53902 0.90755 0.0
H726 H 0.20407 0.52777 0.8653 0.0
H727 H 0.24003 0.53591 0.87572 0.0
H728 H 0.23644 0.55487 0.85056 0.0
H729 H 0.28933 0.66604 0.87309 0.0
H730 H 0.33389 0.66728 0.88953 0.0
H731 H 0.28232 0.57478 0.90384 0.0
C732 C 0.18343 0.57171 0.86777 0.0
C733 C 0.17317 0.58965 0.85825 0.0
C734 C 0.19316 0.61977 0.85549 0.0
C735 C 0.22303 0.6318 0.86186 0.0
C736 C 0.23245 0.61345 0.87113 0.0
C737 C 0.21316 0.58409 0.87423 0.0
C738 C 0.22856 0.56918 0.88516 0.0
C739 C 0.21569 0.55656 0.90957 0.0
C740 C 0.22719 0.54554 0.86817 0.0
C741 C 0.25957 0.59471 0.88773 0.0
C742 C 0.26147 0.62003 0.87938 0.0
C743 C 0.28805 0.64635 0.87973 0.0
C744 C 0.31327 0.64681 0.88904 0.0
C745 C 0.31165 0.62116 0.89806 0.0
C746 C 0.28435 0.59483 0.89725 0.0
H747 H 0.6453 0.17497 0.04528 0.0
H748 H 0.59131 0.19102 0.9953 0.0
H749 H 0.62101 0.24365 1.00434 0.0
H750 H 0.65835 0.23098 0.0884 0.0
H751 H 0.69603 0.24062 0.0942 0.0
H752 H 0.66941 0.20396 0.08493 0.0
H753 H 0.70223 0.20732 0.04954 0.0
H754 H 0.72899 0.24394 0.05874 0.0
H755 H 0.7137 0.23672 0.02886 0.0
H756 H 0.65682 0.2949 0.01892 0.0
H757 H 0.69769 0.34073 0.03606 0.0
H758 H 0.7303 0.29119 0.07388 0.0
C759 C 0.63974 0.18943 0.03601 0.0
C760 C 0.61565 0.17853 0.01967 0.0
C761 C 0.60913 0.19851 0.00831 0.0
C762 C 0.62603 0.22856 0.01319 0.0
C763 C 0.64962 0.23845 0.0293 0.0
C764 C 0.65661 0.21949 0.04039 0.0
C765 C 0.68376 0.23574 0.05629 0.0
C766 C 0.67644 0.22732 0.08251 0.0
C767 C 0.70864 0.23063 0.04784 0.0
C768 C 0.69105 0.26684 0.05229 0.0
C769 C 0.6709 0.26795 0.03691 0.0
C770 C 0.6728 0.2943 0.0309 0.0
C771 C 0.69604 0.3202 0.04077 0.0
C772 C 0.71729 0.31957 0.05618 0.0
C773 C 0.7146 0.29245 0.06197 0.0
H774 H 0.49662 0.66563 0.19332 0.0
H775 H 0.41175 0.58688 0.18358 0.0
H776 H 0.38697 0.61569 0.18918 0.0
H777 H 0.47495 0.69567 0.24035 0.0
H778 H 0.49738 0.73278 0.23102 0.0
H779 H 0.50825 0.70626 0.22423 0.0
H780 H 0.51004 0.71809 0.17935 0.0
H781 H 0.499 0.74455 0.186 0.0
H782 H 0.47796 0.71541 0.16477 0.0
H783 H 0.3714 0.65315 0.19782 0.0
H784 H 0.36647 0.69532 0.21046 0.0
H785 H 0.46168 0.74869 0.2158 0.0
C786 C 0.47281 0.65429 0.19245 0.0
C787 C 0.45621 0.62389 0.18796 0.0
C788 C 0.42506 0.61018 0.18662 0.0
C789 C 0.41075 0.62636 0.18987 0.0
C790 C 0.42785 0.65624 0.19445 0.0
C791 C 0.4582 0.67002 0.19581 0.0
C792 C 0.47154 0.70205 0.20211 0.0
C793 C 0.48905 0.70962 0.22584 0.0
C794 C 0.49077 0.72115 0.18184 0.0
C795 C 0.44394 0.7041 0.20447 0.0
C796 C 0.41894 0.67757 0.19973 0.0
C797 C 0.39085 0.67407 0.20144 0.0
C798 C 0.38828 0.6982 0.20858 0.0
C799 C 0.41366 0.72543 0.21413 0.0
C800 C 0.44179 0.7283 0.21165 0.0
H801 H 0.83781 0.44942 0.36314 0.0
H802 H 0.88271 0.54196 0.38054 0.0
H803 H 0.8375 0.53624 0.39835 0.0
H804 H 0.76817 0.44336 0.34696 0.0
H805 H 0.74604 0.40782 0.35949 0.0
H806 H 0.78222 0.41855 0.34873 0.0
H807 H 0.79696 0.40764 0.38991 0.0
H808 H 0.76081 0.39689 0.40081 0.0
H809 H 0.79299 0.42497 0.41631 0.0
H810 H 0.7887 0.5215 0.41392 0.0
H811 H 0.7373 0.49896 0.42562 0.0
H812 H 0.7213 0.41516 0.39787 0.0
C813 C 0.83804 0.46836 0.37084 0.0
C814 C 0.86373 0.49621 0.37037 0.0
C815 C 0.8632 0.52055 0.38045 0.0
C816 C 0.83768 0.51749 0.39073 0.0
C817 C 0.81272 0.48993 0.39075 0.0
C818 C 0.81247 0.46574 0.38104 0.0
C819 C 0.78208 0.43887 0.38291 0.0
C820 C 0.76885 0.42642 0.35804 0.0
C821 C 0.78329 0.41572 0.39841 0.0
C822 C 0.76545 0.45187 0.39517 0.0
C823 C 0.78382 0.48133 0.39957 0.0
C824 C 0.77404 0.49846 0.41055 0.0
C825 C 0.7446 0.4853 0.41711 0.0
C826 C 0.72489 0.45515 0.41262 0.0
C827 C 0.73565 0.43819 0.40158 0.0
H828 H 0.09809 0.58615 0.45323 0.0
H829 H 0.14522 0.56186 0.40319 0.0
H830 H 0.18405 0.57423 0.4335 0.0
H831 H 0.1648 0.64917 0.47803 0.0
H832 H 0.15008 0.64425 0.50758 0.0
H833 H 0.1257 0.63307 0.4819 0.0
H834 H 0.09643 0.58249 0.49961 0.0
H835 H 0.12142 0.5912 0.52466 0.0
H836 H 0.11365 0.56104 0.50486 0.0
H837 H 0.21856 0.59043 0.46833 0.0
H838 H 0.24662 0.60928 0.50622 0.0
H839 H 0.17831 0.62408 0.53385 0.0
C840 C 0.11667 0.58369 0.44846 0.0
C841 C 0.11814 0.57251 0.42576 0.0
C842 C 0.14292 0.5695 0.42056 0.0
C843 C 0.16533 0.57677 0.43761 0.0
C844 C 0.16303 0.58749 0.45973 0.0
C845 C 0.13956 0.5913 0.46515 0.0
C846 C 0.14294 0.60399 0.49013 0.0
C847 C 0.14607 0.63443 0.48936 0.0
C848 C 0.11711 0.58346 0.50577 0.0
C849 C 0.17158 0.60587 0.49811 0.0
C850 C 0.1829 0.59655 0.48012 0.0
C851 C 0.20975 0.59742 0.48267 0.0
C852 C 0.2254 0.60793 0.50426 0.0
C853 C 0.21393 0.61688 0.52313 0.0
C854 C 0.187 0.61644 0.51986 0.0
H855 H 0.51956 0.11016 0.60949 0.0
H856 H 0.58493 0.16261 0.55749 0.0
H857 H 0.61141 0.20104 0.58801 0.0
H858 H 0.52229 0.17526 0.64132 0.0
H859 H 0.51622 0.15779 0.66975 0.0
H860 H 0.50035 0.13616 0.64293 0.0
H861 H 0.52403 0.10644 0.65451 0.0
H862 H 0.54414 0.12899 0.6799 0.0
H863 H 0.56327 0.12286 0.656 0.0
H864 H 0.63213 0.23272 0.62389 0.0
H865 H 0.6475 0.25493 0.66418 0.0
H866 H 0.56988 0.18224 0.69372 0.0
C867 C 0.53901 0.13004 0.60437 0.0
C868 C 0.55032 0.13318 0.58112 0.0
C869 C 0.57613 0.1594 0.57527 0.0
C870 C 0.59117 0.18153 0.59241 0.0
C871 C 0.57987 0.17744 0.61524 0.0
C872 C 0.55419 0.15259 0.62125 0.0
C873 C 0.54775 0.15326 0.64749 0.0
C874 C 0.52001 0.15577 0.65055 0.0
C875 C 0.54468 0.12636 0.66027 0.0
C876 C 0.57507 0.18125 0.65558 0.0
C877 C 0.59264 0.19532 0.63643 0.0
C878 C 0.61867 0.22188 0.63906 0.0
C879 C 0.62737 0.23417 0.66196 0.0
C880 C 0.6105 0.21957 0.68195 0.0
C881 C 0.58352 0.19328 0.67868 0.0
H882 H 0.46531 0.57768 0.77576 0.0
H883 H 0.40527 0.48457 0.78052 0.0
H884 H 0.38436 0.49281 0.8169 0.0
H885 H 0.47902 0.59216 0.83942 0.0
H886 H 0.48002 0.62663 0.83846 0.0
H887 H 0.49075 0.61359 0.81284 0.0
H888 H 0.45236 0.61829 0.78671 0.0
H889 H 0.44147 0.63128 0.81225 0.0
H890 H 0.41436 0.59998 0.79536 0.0
H891 H 0.36983 0.51055 0.85238 0.0
H892 H 0.36183 0.53681 0.88509 0.0
H893 H 0.43081 0.61906 0.85795 0.0
C894 C 0.44791 0.55906 0.78459 0.0
C895 C 0.43679 0.53047 0.77522 0.0
C896 C 0.41383 0.50667 0.78716 0.0
C897 C 0.40192 0.51111 0.80792 0.0
C898 C 0.41314 0.5395 0.81656 0.0
C899 C 0.43558 0.56312 0.80535 0.0
C900 C 0.44317 0.59139 0.81835 0.0
C901 C 0.47514 0.60685 0.82783 0.0
C902 C 0.43749 0.61141 0.8022 0.0
C903 C 0.42147 0.57988 0.83857 0.0
C904 C 0.40448 0.54987 0.83715 0.0
C905 C 0.38297 0.53407 0.8537 0.0
C906 C 0.37861 0.54928 0.87227 0.0
C907 C 0.39562 0.58012 0.87421 0.0
C908 C 0.41735 0.59554 0.85702 0.0
H909 H 0.92053 0.44577 0.93715 0.0
H910 H 0.90818 0.51851 0.91899 0.0
H911 H 0.87206 0.50505 0.95097 0.0
H912 H 0.84582 0.39537 0.95255 0.0
H913 H 0.85589 0.38044 0.97724 0.0
H914 H 0.88 0.39501 0.95227 0.0
H915 H 0.92278 0.42992 0.98076 0.0
H916 H 0.89885 0.41533 1.00582 0.0
H917 H 0.91774 0.45396 1.00065 0.0
H918 H 0.8375 0.48397 0.98522 0.0
H919 H 0.80906 0.45841 0.0205 0.0
H920 H 0.84555 0.40072 0.0174 0.0
C921 C 0.91048 0.45908 0.93996 0.0
C922 C 0.91716 0.48312 0.92528 0.0
C923 C 0.90309 0.49964 0.92955 0.0
C924 C 0.88262 0.49227 0.9478 0.0
C925 C 0.87651 0.46841 0.9618 0.0
C926 C 0.89018 0.45219 0.95822 0.0
C927 C 0.88034 0.42811 0.97624 0.0
C928 C 0.86457 0.39795 0.96383 0.0
C929 C 0.90648 0.43208 0.99179 0.0
C930 C 0.8591 0.43342 0.99056 0.0
C931 C 0.85704 0.45662 0.98184 0.0
C932 C 0.83893 0.46575 0.99222 0.0
C933 C 0.82279 0.45101 0.01225 0.0
C934 C 0.82496 0.42747 0.02183 0.0
C935 C 0.84326 0.41854 0.01059 0.0
H936 H 0.5028 0.92318 0.0996 0.0
H937 H 0.42269 0.92479 0.08224 0.0
H938 H 0.39824 0.89312 0.11614 0.0
H939 H 0.46865 0.84923 0.11889 0.0
H940 H 0.49459 0.85691 0.14305 0.0
H941 H 0.50584 0.8792 0.11697 0.0
H942 H 0.52249 0.92534 0.14349 0.0
H943 H 0.51133 0.90319 0.16966 0.0
H944 H 0.49672 0.92691 0.16358 0.0
H945 H 0.38204 0.8608 0.15163 0.0
H946 H 0.37576 0.83142 0.18717 0.0
H947 H 0.46702 0.85278 0.18315 0.0
C948 C 0.4802 0.91714 0.10297 0.0
C949 C 0.46469 0.92639 0.08788 0.0
C950 C 0.43498 0.91755 0.09301 0.0
C951 C 0.4209 0.89971 0.11241 0.0
C952 C 0.4368 0.89099 0.12679 0.0
C953 C 0.46584 0.89954 0.12245 0.0
C954 C 0.47801 0.88744 0.14095 0.0
C955 C 0.48731 0.86698 0.12926 0.0
C956 C 0.50365 0.9122 0.15527 0.0
C957 C 0.45122 0.87073 0.15632 0.0
C958 C 0.42767 0.87296 0.14773 0.0
C959 C 0.40036 0.85898 0.15858 0.0
C960 C 0.39701 0.84226 0.17876 0.0
C961 C 0.42088 0.83977 0.18807 0.0
C962 C 0.44837 0.85436 0.17663 0.0
H963 H 0.59936 0.52197 0.28646 0.0
H964 H 0.54138 0.43798 0.25265 0.0
H965 H 0.55176 0.41346 0.28548 0.0
H966 H 0.65383 0.50494 0.30933 0.0
H967 H 0.65973 0.52503 0.33692 0.0
H968 H 0.64856 0.53606 0.31036 0.0
H969 H 0.60374 0.5324 0.33243 0.0
H970 H 0.61476 0.52135 0.35903 0.0
H971 H 0.57834 0.49876 0.34644 0.0
H972 H 0.56855 0.39813 0.32173 0.0
H973 H 0.58859 0.39262 0.36001 0.0
H974 H 0.63445 0.48654 0.37124 0.0
C975 C 0.58908 0.49844 0.28592 0.0
C976 C 0.56962 0.48181 0.26703 0.0
C977 C 0.55621 0.45105 0.26706 0.0
C978 C 0.56207 0.43697 0.28555 0.0
C979 C 0.58124 0.45396 0.30398 0.0
C980 C 0.59441 0.48399 0.30442 0.0
C981 C 0.61332 0.49701 0.32675 0.0
C982 C 0.64579 0.51694 0.32046 0.0
C983 C 0.60184 0.51334 0.34207 0.0
C984 C 0.60871 0.46959 0.3388 0.0
C985 C 0.59032 0.44504 0.32524 0.0
C986 C 0.58294 0.41719 0.33253 0.0
C987 C 0.59452 0.41431 0.35431 0.0
C988 C 0.61311 0.43912 0.36874 0.0
C989 C 0.62024 0.46711 0.36074 0.0
H990 H 0.43024 0.93432 0.36982 0.0
H991 H 0.46352 0.89125 0.41535 0.0
H992 H 0.4502 0.85288 0.3843 0.0
H993 H 0.36901 0.86879 0.34277 0.0
H994 H 0.37365 0.88455 0.31371 0.0
H995 H 0.38408 0.90754 0.34007 0.0
H996 H 0.43573 0.93888 0.32325 0.0
H997 H 0.42689 0.91565 0.29718 0.0
H998 H 0.45774 0.92261 0.31618 0.0
H999 H 0.43063 0.81798 0.34964 0.0
H1000 H 0.41288 0.79213 0.31083 0.0
H1001 H 0.39697 0.86016 0.28572 0.0
C1002 C 0.43444 0.91662 0.37321 0.0
C1003 C 0.44762 0.9154 0.39493 0.0
C1004 C 0.45336 0.89235 0.39877 0.0
C1005 C 0.44577 0.87049 0.38133 0.0
C1006 C 0.4328 0.87226 0.36007 0.0
C1007 C 0.42749 0.89488 0.35578 0.0
C1008 C 0.41469 0.89231 0.33088 0.0
C1009 C 0.38351 0.88804 0.33193 0.0
C1010 C 0.43497 0.91892 0.31597 0.0
C1011 C 0.41397 0.86489 0.32179 0.0
C1012 C 0.42387 0.85337 0.33917 0.0
C1013 C 0.42357 0.82718 0.33567 0.0
C1014 C 0.41374 0.81281 0.31354 0.0
C1015 C 0.40526 0.8251 0.29499 0.0
C1016 C 0.40449 0.85099 0.29938 0.0
H1017 H 0.55863 0.42604 0.58146 0.0
H1018 H 0.48903 0.43587 0.54824 0.0
H1019 H 0.502 0.42484 0.50895 0.0
H1020 H 0.60893 0.4603 0.54341 0.0
H1021 H 0.62612 0.43856 0.53783 0.0
H1022 H 0.60932 0.43701 0.566 0.0
H1023 H 0.57153 0.38386 0.5652 0.0
H1024 H 0.58999 0.38042 0.53952 0.0
H1025 H 0.55086 0.36661 0.53822 0.0
H1026 H 0.52219 0.4123 0.47317 0.0
H1027 H 0.55216 0.40518 0.44287 0.0
H1028 H 0.61283 0.41051 0.49833 0.0
C1029 C 0.54587 0.42549 0.56597 0.0
C1030 C 0.52261 0.4316 0.56805 0.0
C1031 C 0.50653 0.4307 0.54726 0.0
C1032 C 0.51375 0.42449 0.5248 0.0
C1033 C 0.53701 0.41898 0.52335 0.0
C1034 C 0.55267 0.41913 0.54337 0.0
C1035 C 0.57785 0.41426 0.53665 0.0
C1036 C 0.60739 0.439 0.54645 0.0
C1037 C 0.57221 0.38452 0.54542 0.0
C1038 C 0.57545 0.41403 0.50962 0.0
C1039 C 0.55071 0.41508 0.50243 0.0
C1040 C 0.54192 0.41201 0.47852 0.0
C1041 C 0.55901 0.40804 0.46146 0.0
C1042 C 0.58535 0.40872 0.46827 0.0
C1043 C 0.59347 0.41135 0.49267 0.0
H1044 H 0.12048 0.53916 0.72033 0.0
H1045 H 0.11493 0.6179 0.72894 0.0
H1046 H 0.148 0.63957 0.69519 0.0
H1047 H 0.19576 0.57303 0.7031 0.0
H1048 H 0.18965 0.54542 0.68111 0.0
H1049 H 0.16617 0.53613 0.70654 0.0
H1050 H 0.1203 0.51583 0.67851 0.0
H1051 H 0.14362 0.5249 0.65299 0.0
H1052 H 0.11862 0.53877 0.65577 0.0
H1053 H 0.18244 0.65332 0.66094 0.0
H1054 H 0.21309 0.65678 0.62673 0.0
H1055 H 0.19372 0.56806 0.63842 0.0
C1056 C 0.1259 0.56084 0.71504 0.0
C1057 C 0.11525 0.57686 0.72772 0.0
C1058 C 0.1233 0.60533 0.72012 0.0
C1059 C 0.14195 0.61782 0.70078 0.0
C1060 C 0.15218 0.60153 0.6889 0.0
C1061 C 0.14421 0.57355 0.69554 0.0
C1062 C 0.15768 0.56047 0.67928 0.0
C1063 C 0.17855 0.55335 0.69335 0.0
C1064 C 0.13362 0.53339 0.66584 0.0
C1065 C 0.1745 0.58553 0.66253 0.0
C1066 C 0.17122 0.60909 0.66854 0.0
C1067 C 0.18507 0.63497 0.65598 0.0
C1068 C 0.20254 0.63675 0.63662 0.0
C1069 C 0.20582 0.6127 0.6298 0.0
C1070 C 0.19157 0.58679 0.64305 0.0
H1071 H 0.56686 0.14157 0.88837 0.0
H1072 H 0.61186 0.09194 0.88152 0.0
H1073 H 0.63046 0.11383 0.84249 0.0
H1074 H 0.54592 0.1376 0.82592 0.0
H1075 H 0.55249 0.17439 0.82521 0.0
H1076 H 0.54187 0.15448 0.85258 0.0
H1077 H 0.58826 0.19575 0.87399 0.0
H1078 H 0.59896 0.21583 0.84672 0.0
H1079 H 0.62404 0.20721 0.86191 0.0
H1080 H 0.64351 0.13969 0.80454 0.0
H1081 H 0.65395 0.17121 0.7702 0.0
H1082 H 0.60242 0.20671 0.8009 0.0
C1083 C 0.58058 0.13534 0.87856 0.0
C1084 C 0.58806 0.11515 0.88801 0.0
C1085 C 0.60619 0.10763 0.87477 0.0
C1086 C 0.61668 0.11978 0.85251 0.0
C1087 C 0.609 0.13959 0.84371 0.0
C1088 C 0.59162 0.14761 0.85629 0.0
C1089 C 0.58762 0.1702 0.8428 0.0
C1090 C 0.55503 0.15845 0.83624 0.0
C1091 C 0.60049 0.19895 0.85722 0.0
C1092 C 0.60555 0.17356 0.82074 0.0
C1093 C 0.61734 0.15537 0.82169 0.0
C1094 C 0.63452 0.15412 0.80359 0.0
C1095 C 0.64027 0.17222 0.78406 0.0
C1096 C 0.62915 0.19172 0.78269 0.0
C1097 C 0.61131 0.19215 0.80132 0.0
H1098 H 0.51122 0.59797 0.04272 0.0
H1099 H 0.4628 0.61129 0.09885 0.0
H1100 H 0.43573 0.62309 0.06871 0.0
H1101 H 0.51715 0.65825 1.00551 0.0
H1102 H 0.51427 0.63889 0.97808 0.0
H1103 H 0.53062 0.63295 1.00429 0.0
H1104 H 0.49451 0.57848 0.99943 0.0
H1105 H 0.47517 0.58291 0.97456 0.0
H1106 H 0.45564 0.56475 1.001 0.0
H1107 H 0.41316 0.63205 0.03282 0.0
H1108 H 0.39725 0.63919 0.99305 0.0
H1109 H 0.46038 0.62062 0.95984 0.0
C1110 C 0.49512 0.60368 0.04856 0.0
C1111 C 0.489 0.60382 0.073 0.0
C1112 C 0.46788 0.61138 0.08017 0.0
C1113 C 0.45238 0.61799 0.06322 0.0
C1114 C 0.45867 0.61739 0.03923 0.0
C1115 C 0.47987 0.61095 0.03188 0.0
C1116 C 0.48255 0.61222 1.00498 0.0
C1117 C 0.51295 0.63706 0.9978 0.0
C1118 C 0.47657 0.58285 0.99434 0.0
C1119 C 0.45854 0.61899 0.9983 0.0
C1120 C 0.44537 0.62228 0.01839 0.0
C1121 C 0.42317 0.62936 0.01695 0.0
C1122 C 0.4141 0.63312 0.99435 0.0
C1123 C 0.42686 0.62932 0.97355 0.0
C1124 C 0.44978 0.6228 0.97555 0.0
H1125 H 0.8788 0.45944 0.23768 0.0
H1126 H 0.95925 0.52802 0.20735 0.0
H1127 H 0.93662 0.51398 0.16724 0.0
H1128 H 0.86399 0.40727 0.19312 0.0
H1129 H 0.82452 0.39158 0.19051 0.0
H1130 H 0.84341 0.40705 0.21852 0.0
H1131 H 0.82552 0.44356 0.22201 0.0
H1132 H 0.8031 0.42713 0.19562 0.0
H1133 H 0.82842 0.46586 0.197 0.0
H1134 H 0.90402 0.49578 0.13105 0.0
H1135 H 0.86436 0.47163 0.10045 0.0
H1136 H 0.80747 0.41062 0.15279 0.0
C1137 C 0.89176 0.4714 0.22262 0.0
C1138 C 0.92075 0.4951 0.22582 0.0
C1139 C 0.93678 0.51027 0.20554 0.0
C1140 C 0.92422 0.50229 0.1826 0.0
C1141 C 0.89568 0.47889 0.18011 0.0
C1142 C 0.87963 0.46361 0.19951 0.0
C1143 C 0.84934 0.43928 0.1918 0.0
C1144 C 0.84501 0.40948 0.19885 0.0
C1145 C 0.82518 0.44427 0.20223 0.0
C1146 C 0.85107 0.44311 0.16499 0.0
C1147 C 0.87782 0.46652 0.15873 0.0
C1148 C 0.88334 0.47685 0.13554 0.0
C1149 C 0.86082 0.46304 0.1183 0.0
C1150 C 0.8337 0.4385 0.12413 0.0
C1151 C 0.82873 0.42837 0.14773 0.0
loop_
_geom_bond_atom_site_label_1
_geom_bond_atom_site_label_2
_geom_bond_distance
_geom_bond_site_symmetry_2
_ccdc_geom_bond_type
H0 C19 0.949 . S
H1 C20 0.950 . S
H2 C22 0.950 . S
H3 C23 0.950 . S
H4 C25 0.950 . S
H5 C28 0.950 . S
H6 C29 0.950 . S
H7 C31 0.951 . S
H8 C32 0.949 . S
H9 C34 0.949 . S
H10 C35 0.950 . S
H11 C37 0.950 . S
H12 C38 0.950 . S
H13 C40 0.950 . S
H14 C43 0.950 . S
H15 C44 0.950 . S
H16 C46 0.951 . S
H17 C47 0.949 . S
C18 C19 1.376 . S
C18 C23 1.386 . S
C18 C24 1.483 . S
C19 H0 0.949 . S
C19 C18 1.376 . S
C19 C20 1.397 . S
C20 H1 0.950 . S
C20 C19 1.397 . S
C20 C21 1.391 . S
C21 C20 1.391 . S
C21 C22 1.405 . S
C22 H2 0.950 . S
C22 C21 1.405 . S
C22 C23 1.367 . S
C23 H3 0.950 . S
C23 C18 1.386 . S
C23 C22 1.367 . S
C24 C18 1.483 . S
C24 C25 1.382 1_655 S
C24 C26 1.403 . S
C25 H4 0.950 . S
C25 C24 1.382 1_455 S
C25 C41 1.411 . S
C26 C24 1.403 . S
C26 C27 1.489 . S
C26 C40 1.411 . S
C27 C26 1.489 . S
C27 C28 1.383 . S
C27 C32 1.382 . S
C28 H5 0.950 . S
C28 C27 1.383 . S
C28 C29 1.395 . S
C29 H6 0.950 . S
C29 C28 1.395 . S
C29 C30 1.288 . S
C30 C29 1.288 . S
C30 C31 1.392 . S
C31 H7 0.951 . S
C31 C30 1.392 . S
C31 C32 1.392 . S
C32 H8 0.949 . S
C32 C27 1.382 . S
C32 C31 1.392 . S
C33 C34 1.376 . S
C33 C38 1.386 . S
C33 C39 1.483 . S
C34 H9 0.949 . S
C34 C33 1.376 . S
C34 C35 1.397 . S
C35 H10 0.950 . S
C35 C34 1.397 . S
C35 C36 1.391 . S
C36 C35 1.391 . S
C36 C37 1.405 . S
C37 H11 0.950 . S
C37 C36 1.405 . S
C37 C38 1.367 . S
C38 H12 0.950 . S
C38 C33 1.386 . S
C38 C37 1.367 . S
C39 C33 1.483 . S
C39 C40 1.382 1_455 S
C39 C41 1.403 . S
C40 H13 0.950 . S
C40 C26 1.411 . S
C40 C39 1.382 1_655 S
C41 C25 1.411 . S
C41 C39 1.403 . S
C41 C42 1.489 . S
C42 C41 1.489 . S
C42 C43 1.383 . S
C42 C47 1.382 . S
C43 H14 0.950 . S
C43 C42 1.383 . S
C43 C44 1.395 . S
C44 H15 0.950 . S
C44 C43 1.395 . S
C44 C45 1.288 . S
C45 C44 1.288 . S
C45 C46 1.392 . S
C46 H16 0.951 . S
C46 C45 1.392 . S
C46 C47 1.392 . S
C47 H17 0.949 . S
C47 C42 1.382 . S
C47 C46 1.392 . S
H48 C67 0.949 . S
H49 C68 0.950 . S
H50 C70 0.950 . S
H51 C71 0.950 . S
H52 C73 0.951 1_565 S
H53 C76 0.950 . S
H54 C77 0.950 . S
H55 C79 0.951 . S
H56 C80 0.949 . S
H57 C82 0.949 . S
H58 C83 0.950 . S
H59 C85 0.950 . S
H60 C86 0.950 . S
H61 C88 0.950 . S
H62 C91 0.950 . S
H63 C92 0.950 . S
H64 C94 0.951 . S
H65 C95 0.949 . S
C66 C67 1.376 . S
C66 C71 1.386 . S
C66 C72 1.483 . S
C67 H48 0.949 . S
C67 C66 1.376 . S
C67 C68 1.397 . S
C68 H49 0.950 . S
C68 C67 1.397 . S
C68 C69 1.391 . S
C69 C68 1.391 . S
C69 C70 1.405 . S
C70 H50 0.950 . S
C70 C69 1.405 . S
C70 C71 1.367 . S
C71 H51 0.950 . S
C71 C66 1.386 . S
C71 C70 1.367 . S
C72 C66 1.483 . S
C72 C73 1.382 1_565 S
C72 C74 1.403 . S
C73 H52 0.951 1_545 S
C73 C72 1.382 1_545 S
C73 C89 1.411 . S
C74 C72 1.403 . S
C74 C75 1.489 . S
C74 C88 1.411 1_565 S
C75 C74 1.489 . S
C75 C76 1.383 . S
C75 C80 1.382 . S
C76 H53 0.950 . S
C76 C75 1.383 . S
C76 C77 1.395 . S
C77 H54 0.950 . S
C77 C76 1.395 . S
C77 C78 1.288 . S
C78 C77 1.288 . S
C78 C79 1.392 . S
C79 H55 0.951 . S
C79 C78 1.392 . S
C79 C80 1.392 . S
C80 H56 0.949 . S
C80 C75 1.382 . S
C80 C79 1.392 . S
C81 C82 1.376 . S
C81 C86 1.386 . S
C81 C87 1.483 . S
C82 H57 0.949 . S
C82 C81 1.376 . S
C82 C83 1.397 . S
C83 H58 0.950 . S
C83 C82 1.397 . S
C83 C84 1.391 . S
C84 C83 1.391 . S
C84 C85 1.405 . S
C85 H59 0.950 . S
C85 C84 1.405 . S
C85 C86 1.367 . S
C86 H60 0.950 . S
C86 C81 1.386 . S
C86 C85 1.367 . S
C87 C81 1.483 . S
C87 C88 1.382 . S
C87 C89 1.403 . S
C88 H61 0.950 . S
C88 C74 1.411 1_545 S
C88 C87 1.382 . S
C89 C73 1.411 . S
C89 C87 1.403 . S
C89 C90 1.489 . S
C90 C89 1.489 . S
C90 C91 1.383 . S
C90 C95 1.382 . S
C91 H62 0.950 . S
C91 C90 1.383 . S
C91 C92 1.395 . S
C92 H63 0.950 . S
C92 C91 1.395 . S
C92 C93 1.288 . S
C93 C92 1.288 . S
C93 C94 1.392 . S
C94 H64 0.951 . S
C94 C93 1.392 . S
C94 C95 1.392 . S
C95 H65 0.949 . S
C95 C90 1.382 . S
C95 C94 1.392 . S
H96 C115 0.949 . S
H97 C116 0.950 . S
H98 C118 0.950 . S
H99 C119 0.950 . S
H100 C121 0.950 . S
H101 C124 0.950 . S
H102 C125 0.950 . S
H103 C127 0.951 . S
H104 C128 0.949 . S
H105 C130 0.949 . S
H106 C131 0.950 . S
H107 C133 0.950 . S
H108 C134 0.950 . S
H109 C136 0.950 . S
H110 C139 0.950 . S
H111 C140 0.950 . S
H112 C142 0.951 . S
H113 C143 0.949 . S
C114 C115 1.376 . S
C114 C119 1.386 . S
C114 C120 1.483 . S
C115 H96 0.949 . S
C115 C114 1.376 . S
C115 C116 1.397 . S
C116 H97 0.950 . S
C116 C115 1.397 . S
C116 C117 1.391 . S
C117 C116 1.391 . S
C117 C118 1.405 . S
C118 H98 0.950 . S
C118 C117 1.405 . S
C118 C119 1.367 . S
C119 H99 0.950 . S
C119 C114 1.386 . S
C119 C118 1.367 . S
C120 C114 1.483 . S
C120 C121 1.382 . S
C120 C122 1.403 . S
C121 H100 0.950 . S
C121 C120 1.382 . S
C121 C137 1.411 . S
C122 C120 1.403 . S
C122 C123 1.489 . S
C122 C136 1.411 . S
C123 C122 1.489 . S
C123 C124 1.383 . S
C123 C128 1.382 . S
C124 H101 0.950 . S
C124 C123 1.383 . S
C124 C125 1.395 . S
C125 H102 0.950 . S
C125 C124 1.395 . S
C125 C126 1.288 . S
C126 C125 1.288 . S
C126 C127 1.392 . S
C127 H103 0.951 . S
C127 C126 1.392 . S
C127 C128 1.392 . S
C128 H104 0.949 . S
C128 C123 1.382 . S
C128 C127 1.392 . S
C129 C130 1.376 . S
C129 C134 1.386 . S
C129 C135 1.483 . S
C130 H105 0.949 . S
C130 C129 1.376 . S
C130 C131 1.397 . S
C131 H106 0.950 . S
C131 C130 1.397 . S
C131 C132 1.391 . S
C132 C131 1.391 . S
C132 C133 1.405 . S
C133 H107 0.950 . S
C133 C132 1.405 . S
C133 C134 1.367 . S
C134 H108 0.950 . S
C134 C129 1.386 . S
C134 C133 1.367 . S
C135 C129 1.483 . S
C135 C136 1.382 . S
C135 C137 1.403 . S
C136 H109 0.950 . S
C136 C122 1.411 . S
C136 C135 1.382 . S
C137 C121 1.411 . S
C137 C135 1.403 . S
C137 C138 1.489 . S
C138 C137 1.489 . S
C138 C139 1.383 . S
C138 C143 1.382 . S
C139 H110 0.950 . S
C139 C138 1.383 . S
C139 C140 1.395 . S
C140 H111 0.950 . S
C140 C139 1.395 . S
C140 C141 1.288 . S
C141 C140 1.288 . S
C141 C142 1.392 . S
C142 H112 0.951 . S
C142 C141 1.392 . S
C142 C143 1.392 . S
C143 H113 0.949 . S
C143 C138 1.382 . S
C143 C142 1.392 . S
H144 C163 0.949 . S
H145 C164 0.950 . S
H146 C166 0.950 . S
H147 C167 0.950 . S
H148 C169 0.950 . S
H149 C172 0.950 . S
H150 C173 0.950 . S
H151 C175 0.951 . S
H152 C176 0.949 . S
H153 C178 0.949 . S
H154 C179 0.950 . S
H155 C181 0.950 . S
H156 C182 0.950 . S
H157 C184 0.950 . S
H158 C187 0.950 . S
H159 C188 0.950 . S
H160 C190 0.951 . S
H161 C191 0.949 . S
C162 C163 1.376 . S
C162 C167 1.386 . S
C162 C168 1.483 . S
C163 H144 0.949 . S
C163 C162 1.376 . S
C163 C164 1.397 . S
C164 H145 0.950 . S
C164 C163 1.397 . S
C164 C165 1.391 . S
C165 C164 1.391 . S
C165 C166 1.405 . S
C166 H146 0.950 . S
C166 C165 1.405 . S
C166 C167 1.367 . S
C167 H147 0.950 . S
C167 C162 1.386 . S
C167 C166 1.367 . S
C168 C162 1.483 . S
C168 C169 1.382 1_455 S
C168 C170 1.403 . S
C169 H148 0.950 . S
C169 C168 1.382 1_655 S
C169 C185 1.411 . S
C170 C168 1.403 . S
C170 C171 1.489 . S
C170 C184 1.411 . S
C171 C170 1.489 . S
C171 C172 1.383 . S
C171 C176 1.382 . S
C172 H149 0.950 . S
C172 C171 1.383 . S
C172 C173 1.395 . S
C173 H150 0.950 . S
C173 C172 1.395 . S
C173 C174 1.288 . S
C174 C173 1.288 . S
C174 C175 1.392 . S
C175 H151 0.951 . S
C175 C174 1.392 . S
C175 C176 1.392 . S
C176 H152 0.949 . S
C176 C171 1.382 . S
C176 C175 1.392 . S
C177 C178 1.376 . S
C177 C182 1.386 . S
C177 C183 1.483 . S
C178 H153 0.949 . S
C178 C177 1.376 . S
C178 C179 1.397 . S
C179 H154 0.950 . S
C179 C178 1.397 . S
C179 C180 1.391 . S
C180 C179 1.391 . S
C180 C181 1.405 . S
C181 H155 0.950 . S
C181 C180 1.405 . S
C181 C182 1.367 . S
C182 H156 0.950 . S
C182 C177 1.386 . S
C182 C181 1.367 . S
C183 C177 1.483 . S
C183 C184 1.382 1_655 S
C183 C185 1.403 . S
C184 H157 0.950 . S
C184 C170 1.411 . S
C184 C183 1.382 1_455 S
C185 C169 1.411 . S
C185 C183 1.403 . S
C185 C186 1.489 . S
C186 C185 1.489 . S
C186 C187 1.383 . S
C186 C191 1.382 . S
C187 H158 0.950 . S
C187 C186 1.383 . S
C187 C188 1.395 . S
C188 H159 0.950 . S
C188 C187 1.395 . S
C188 C189 1.288 . S
C189 C188 1.288 . S
C189 C190 1.392 . S
C190 H160 0.951 . S
C190 C189 1.392 . S
C190 C191 1.392 . S
C191 H161 0.949 . S
C191 C186 1.382 . S
C191 C190 1.392 . S
H192 C211 0.949 . S
H193 C212 0.950 . S
H194 C214 0.950 . S
H195 C215 0.955 . S
H196 C217 0.950 . S
H197 C220 0.950 . S
H198 C221 0.950 . S
H199 C223 0.951 . S
H200 C224 0.949 . S
H201 C226 0.949 . S
H202 C227 0.950 . S
H203 C229 0.950 . S
H204 C230 0.950 . S
H205 C232 0.950 . S
H206 C235 0.950 . S
H207 C236 0.950 . S
H208 C238 0.951 . S
H209 C239 0.958 . S
C210 C211 1.376 . S
C210 C215 1.384 1_554 S
C210 C216 1.483 1_554 S
C211 H192 0.949 . S
C211 C210 1.376 . S
C211 C212 1.397 . S
C212 H193 0.950 . S
C212 C211 1.397 . S
C212 C213 1.391 . S
C213 C212 1.391 . S
C213 C214 1.405 . S
C214 H194 0.950 . S
C214 C213 1.405 . S
C214 C215 1.365 1_554 S
C215 H195 0.955 . S
C215 C210 1.384 1_556 S
C215 C214 1.365 1_556 S
C216 C210 1.483 1_556 S
C216 C217 1.382 1_556 S
C216 C218 1.403 . S
C217 H196 0.950 . S
C217 C216 1.382 1_554 S
C217 C233 1.423 . S
C218 C216 1.403 . S
C218 C219 1.489 . S
C218 C232 1.411 . S
C219 C218 1.489 . S
C219 C220 1.383 . S
C219 C224 1.382 . S
C220 H197 0.950 . S
C220 C219 1.383 . S
C220 C221 1.395 . S
C221 H198 0.950 . S
C221 C220 1.395 . S
C221 C222 1.288 . S
C222 C221 1.288 . S
C222 C223 1.392 . S
C223 H199 0.951 . S
C223 C222 1.392 . S
C223 C224 1.392 . S
C224 H200 0.949 . S
C224 C219 1.382 . S
C224 C223 1.392 . S
C225 C226 1.376 . S
C225 C230 1.386 . S
C225 C231 1.483 . S
C226 H201 0.949 . S
C226 C225 1.376 . S
C226 C227 1.397 . S
C227 H202 0.950 . S
C227 C226 1.397 . S
C227 C228 1.391 . S
C228 C227 1.391 . S
C228 C229 1.405 . S
C229 H203 0.950 . S
C229 C228 1.405 . S
C229 C230 1.367 . S
C230 H204 0.950 . S
C230 C225 1.386 . S
C230 C229 1.367 . S
C231 C225 1.483 . S
C231 C232 1.382 1_565 S
C231 C233 1.400 1_566 S
C232 H205 0.950 . S
C232 C218 1.411 . S
C232 C231 1.382 1_545 S
C233 C217 1.423 . S
C233 C231 1.400 1_544 S
C233 C234 1.481 1_545 S
C234 C233 1.481 1_565 S
C234 C235 1.383 . S
C234 C239 1.382 . S
C235 H206 0.950 . S
C235 C234 1.383 . S
C235 C236 1.395 . S
C236 H207 0.950 . S
C236 C235 1.395 . S
C236 C237 1.288 . S
C237 C236 1.288 . S
C237 C238 1.392 . S
C238 H208 0.951 . S
C238 C237 1.392 . S
C238 C239 1.392 . S
C239 H209 0.958 . S
C239 C234 1.382 . S
C239 C238 1.392 . S
H240 C259 0.949 . S
H241 C260 0.950 . S
H242 C262 0.950 . S
H243 C263 0.950 . S
H244 C265 0.950 . S
H245 C268 0.950 . S
H246 C269 0.950 . S
H247 C271 0.951 . S
H248 C272 0.949 . S
H249 C274 0.949 . S
H250 C275 0.950 . S
H251 C277 0.950 . S
H252 C278 0.950 . S
H253 C280 0.950 . S
H254 C283 0.950 . S
H255 C284 0.950 . S
H256 C286 0.951 . S
H257 C287 0.949 . S
C258 C259 1.376 . S
C258 C263 1.386 . S
C258 C264 1.483 . S
C259 H240 0.949 . S
C259 C258 1.376 . S
C259 C260 1.397 . S
C260 H241 0.950 . S
C260 C259 1.397 . S
C260 C261 1.391 . S
C261 C260 1.391 . S
C261 C262 1.405 . S
C262 H242 0.950 . S
C262 C261 1.405 . S
C262 C263 1.367 . S
C263 H243 0.950 . S
C263 C258 1.386 . S
C263 C262 1.367 . S
C264 C258 1.483 . S
C264 C265 1.382 . S
C264 C266 1.403 . S
C265 H244 0.950 . S
C265 C264 1.382 . S
C265 C281 1.411 . S
C266 C264 1.403 . S
C266 C267 1.489 . S
C266 C280 1.411 . S
C267 C266 1.489 . S
C267 C268 1.383 . S
C267 C272 1.382 . S
C268 H245 0.950 . S
C268 C267 1.383 . S
C268 C269 1.395 . S
C269 H246 0.950 . S
C269 C268 1.395 . S
C269 C270 1.288 . S
C270 C269 1.288 . S
C270 C271 1.392 . S
C271 H247 0.951 . S
C271 C270 1.392 . S
C271 C272 1.392 . S
C272 H248 0.949 . S
C272 C267 1.382 . S
C272 C271 1.392 . S
C273 C274 1.376 . S
C273 C278 1.386 . S
C273 C279 1.483 . S
C274 H249 0.949 . S
C274 C273 1.376 . S
C274 C275 1.397 . S
C275 H250 0.950 . S
C275 C274 1.397 . S
C275 C276 1.391 . S
C276 C275 1.391 . S
C276 C277 1.405 . S
C277 H251 0.950 . S
C277 C276 1.405 . S
C277 C278 1.367 . S
C278 H252 0.950 . S
C278 C273 1.386 . S
C278 C277 1.367 . S
C279 C273 1.483 . S
C279 C280 1.382 . S
C279 C281 1.403 . S
C280 H253 0.950 . S
C280 C266 1.411 . S
C280 C279 1.382 . S
C281 C265 1.411 . S
C281 C279 1.403 . S
C281 C282 1.489 . S
C282 C281 1.489 . S
C282 C283 1.383 . S
C282 C287 1.382 . S
C283 H254 0.950 . S
C283 C282 1.383 . S
C283 C284 1.395 . S
C284 H255 0.950 . S
C284 C283 1.395 . S
C284 C285 1.288 . S
C285 C284 1.288 . S
C285 C286 1.392 . S
C286 H256 0.951 . S
C286 C285 1.392 . S
C286 C287 1.392 . S
C287 H257 0.949 . S
C287 C282 1.382 . S
C287 C286 1.392 . S
Mn288 O293 2.095 . S
Mn288 O303 2.162 . S
Mn288 O304 2.297 . S
Mn288 O312 2.385 . S
Mn288 O313 2.209 . S
Mn288 O314 2.094 . S
Mn289 O294 2.121 . S
Mn289 N296 2.257 . S
Mn289 N305 2.282 . S
Mn289 O313 2.215 . S
Mn289 O315 2.117 . S
C290 O312 1.234 . S
C290 O313 1.283 . S
C291 O303 1.281 . S
C291 O304 1.236 . S
C292 O314 1.240 . S
C292 O315 1.264 . S
O293 Mn288 2.095 . S
O293 C302 1.250 . S
O294 Mn289 2.121 . S
O294 C302 1.258 . S
C295 N296 1.326 . S
C295 C299 1.460 . S
C295 H301 0.929 . S
N296 Mn289 2.257 . S
N296 C295 1.326 . S
N296 C300 1.362 . S
C297 C298 1.258 . S
C297 C300 1.431 . S
C297 C317 1.449 . S
C298 C297 1.258 . S
C298 C299 1.477 . S
C298 H318 0.931 . S
C299 C295 1.460 . S
C299 C298 1.477 . S
C299 H319 0.930 . S
C300 N296 1.362 . S
C300 C297 1.431 . S
C300 C310 1.476 . S
H301 C295 0.929 . S
C302 O293 1.250 . S
C302 O294 1.258 . S
O303 Mn288 2.162 . S
O303 C291 1.281 . S
O304 Mn288 2.297 . S
O304 C291 1.236 . S
N305 Mn289 2.282 . S
N305 C306 1.328 . S
N305 C310 1.318 . S
C306 N305 1.328 . S
C306 C307 1.457 . S
C306 H311 0.929 . S
C307 C306 1.457 . S
C307 C308 1.291 . S
C307 H320 0.931 . S
C308 C307 1.291 . S
C308 C309 1.373 . S
C308 H321 0.929 . S
C309 C308 1.373 . S
C309 C310 1.396 . S
C309 C316 1.403 . S
C310 C300 1.476 . S
C310 N305 1.318 . S
C310 C309 1.396 . S
H311 C306 0.929 . S
O312 Mn288 2.385 . S
O312 C290 1.234 . S
O313 Mn288 2.209 . S
O313 Mn289 2.215 . S
O313 C290 1.283 . S
O314 Mn288 2.094 . S
O314 C292 1.240 . S
O315 Mn289 2.117 . S
O315 C292 1.264 . S
C316 C309 1.403 . S
C316 C317 1.399 . S
C316 H322 0.929 . S
C317 C297 1.449 . S
C317 C316 1.399 . S
C317 H323 0.930 . S
H318 C298 0.931 . S
H319 C299 0.930 . S
H320 C307 0.931 . S
H321 C308 0.929 . S
H322 C316 0.929 . S
H323 C317 0.930 . S
Mn324 O329 2.095 . S
Mn324 O339 2.162 . S
Mn324 O340 2.297 . S
Mn324 O348 2.385 . S
Mn324 O349 2.209 . S
Mn324 O350 2.094 . S
Mn325 O330 2.121 . S
Mn325 N332 2.257 . S
Mn325 N341 2.282 . S
Mn325 O349 2.215 . S
Mn325 O351 2.117 . S
C326 O348 1.234 . S
C326 O349 1.283 . S
C327 O339 1.281 . S
C327 O340 1.236 . S
C328 O350 1.240 . S
C328 O351 1.264 . S
O329 Mn324 2.095 . S
O329 C338 1.250 . S
O330 Mn325 2.121 . S
O330 C338 1.258 . S
C331 N332 1.326 . S
C331 C335 1.460 . S
C331 H337 0.929 . S
N332 Mn325 2.257 . S
N332 C331 1.326 . S
N332 C336 1.362 . S
C333 C334 1.258 . S
C333 C336 1.431 . S
C333 C353 1.449 . S
C334 C333 1.258 . S
C334 C335 1.477 . S
C334 H354 0.931 . S
C335 C331 1.460 . S
C335 C334 1.477 . S
C335 H355 0.930 . S
C336 N332 1.362 . S
C336 C333 1.431 . S
C336 C346 1.476 . S
H337 C331 0.929 . S
C338 O329 1.250 . S
C338 O330 1.258 . S
O339 Mn324 2.162 . S
O339 C327 1.281 . S
O340 Mn324 2.297 . S
O340 C327 1.236 . S
N341 Mn325 2.282 . S
N341 C342 1.328 . S
N341 C346 1.318 . S
C342 N341 1.328 . S
C342 C343 1.457 . S
C342 H347 0.929 . S
C343 C342 1.457 . S
C343 C344 1.291 . S
C343 H356 0.931 . S
C344 C343 1.291 . S
C344 C345 1.373 . S
C344 H357 0.929 . S
C345 C344 1.373 . S
C345 C346 1.396 . S
C345 C352 1.403 . S
C346 C336 1.476 . S
C346 N341 1.318 . S
C346 C345 1.396 . S
H347 C342 0.929 . S
O348 Mn324 2.385 . S
O348 C326 1.234 . S
O349 Mn324 2.209 . S
O349 Mn325 2.215 . S
O349 C326 1.283 . S
O350 Mn324 2.094 . S
O350 C328 1.240 . S
O351 Mn325 2.117 . S
O351 C328 1.264 . S
C352 C345 1.403 . S
C352 C353 1.399 . S
C352 H358 0.929 . S
C353 C333 1.449 . S
C353 C352 1.399 . S
C353 H359 0.930 . S
H354 C334 0.931 . S
H355 C335 0.930 . S
H356 C343 0.931 . S
H357 C344 0.929 . S
H358 C352 0.929 . S
H359 C353 0.930 . S
Mn360 O365 2.095 . S
Mn360 O375 2.162 . S
Mn360 O376 2.297 . S
Mn360 O384 2.385 . S
Mn360 O385 2.209 . S
Mn360 O386 2.094 . S
Mn361 O366 2.121 . S
Mn361 N368 2.257 . S
Mn361 N377 2.282 . S
Mn361 O385 2.215 . S
Mn361 O387 2.117 . S
C362 O384 1.234 . S
C362 O385 1.283 . S
C363 O375 1.281 . S
C363 O376 1.236 . S
C364 O386 1.240 . S
C364 O387 1.264 . S
O365 Mn360 2.095 . S
O365 C374 1.250 . S
O366 Mn361 2.121 . S
O366 C374 1.258 . S
C367 N368 1.326 . S
C367 C371 1.460 . S
C367 H373 0.929 . S
N368 Mn361 2.257 . S
N368 C367 1.326 . S
N368 C372 1.362 . S
C369 C370 1.258 . S
C369 C372 1.431 . S
C369 C389 1.449 . S
C370 C369 1.258 . S
C370 C371 1.477 . S
C370 H390 0.931 . S
C371 C367 1.460 . S
C371 C370 1.477 . S
C371 H391 0.930 . S
C372 N368 1.362 . S
C372 C369 1.431 . S
C372 C382 1.476 . S
H373 C367 0.929 . S
C374 O365 1.250 . S
C374 O366 1.258 . S
O375 Mn360 2.162 . S
O375 C363 1.281 . S
O376 Mn360 2.297 . S
O376 C363 1.236 . S
N377 Mn361 2.282 . S
N377 C378 1.328 . S
N377 C382 1.318 . S
C378 N377 1.328 . S
C378 C379 1.457 . S
C378 H383 0.929 . S
C379 C378 1.457 . S
C379 C380 1.291 . S
C379 H392 0.931 . S
C380 C379 1.291 . S
C380 C381 1.373 . S
C380 H393 0.929 . S
C381 C380 1.373 . S
C381 C382 1.396 . S
C381 C388 1.403 . S
C382 C372 1.476 . S
C382 N377 1.318 . S
C382 C381 1.396 . S
H383 C378 0.929 . S
O384 Mn360 2.385 . S
O384 C362 1.234 . S
O385 Mn360 2.209 . S
O385 Mn361 2.215 . S
O385 C362 1.283 . S
O386 Mn360 2.094 . S
O386 C364 1.240 . S
O387 Mn361 2.117 . S
O387 C364 1.264 . S
C388 C381 1.403 . S
C388 C389 1.399 . S
C388 H394 0.929 . S
C389 C369 1.449 . S
C389 C388 1.399 . S
C389 H395 0.930 . S
H390 C370 0.931 . S
H391 C371 0.930 . S
H392 C379 0.931 . S
H393 C380 0.929 . S
H394 C388 0.929 . S
H395 C389 0.930 . S
Mn396 O401 2.095 . S
Mn396 O411 2.162 . S
Mn396 O412 2.297 . S
Mn396 O420 2.385 . S
Mn396 O421 2.209 . S
Mn396 O422 2.094 . S
Mn397 O402 2.121 . S
Mn397 N404 2.257 . S
Mn397 N413 2.282 . S
Mn397 O421 2.215 . S
Mn397 O423 2.117 . S
C398 O420 1.234 . S
C398 O421 1.283 . S
C399 O411 1.281 . S
C399 O412 1.236 . S
C400 O422 1.240 . S
C400 O423 1.264 . S
O401 Mn396 2.095 . S
O401 C410 1.250 . S
O402 Mn397 2.121 . S
O402 C410 1.258 . S
C403 N404 1.326 . S
C403 C407 1.460 . S
C403 H409 0.929 . S
N404 Mn397 2.257 . S
N404 C403 1.326 . S
N404 C408 1.362 . S
C405 C406 1.258 . S
C405 C408 1.431 . S
C405 C425 1.449 . S
C406 C405 1.258 . S
C406 C407 1.477 . S
C406 H426 0.931 . S
C407 C403 1.460 . S
C407 C406 1.477 . S
C407 H427 0.930 . S
C408 N404 1.362 . S
C408 C405 1.431 . S
C408 C418 1.476 . S
H409 C403 0.929 . S
C410 O401 1.250 . S
C410 O402 1.258 . S
O411 Mn396 2.162 . S
O411 C399 1.281 . S
O412 Mn396 2.297 . S
O412 C399 1.236 . S
N413 Mn397 2.282 . S
N413 C414 1.328 . S
N413 C418 1.318 . S
C414 N413 1.328 . S
C414 C415 1.457 . S
C414 H419 0.929 . S
C415 C414 1.457 . S
C415 C416 1.291 . S
C415 H428 0.931 . S
C416 C415 1.291 . S
C416 C417 1.373 . S
C416 H429 0.929 . S
C417 C416 1.373 . S
C417 C418 1.396 . S
C417 C424 1.403 . S
C418 C408 1.476 . S
C418 N413 1.318 . S
C418 C417 1.396 . S
H419 C414 0.929 . S
O420 Mn396 2.385 . S
O420 C398 1.234 . S
O421 Mn396 2.209 . S
O421 Mn397 2.215 . S
O421 C398 1.283 . S
O422 Mn396 2.094 . S
O422 C400 1.240 . S
O423 Mn397 2.117 . S
O423 C400 1.264 . S
C424 C417 1.403 . S
C424 C425 1.399 . S
C424 H430 0.929 . S
C425 C405 1.449 . S
C425 C424 1.399 . S
C425 H431 0.930 . S
H426 C406 0.931 . S
H427 C407 0.930 . S
H428 C415 0.931 . S
H429 C416 0.929 . S
H430 C424 0.929 . S
H431 C425 0.930 . S
Mn432 O437 2.095 . S
Mn432 O447 2.162 . S
Mn432 O448 2.297 . S
Mn432 O456 2.385 . S
Mn432 O457 2.209 . S
Mn432 O458 2.094 . S
Mn433 O438 2.121 . S
Mn433 N440 2.257 . S
Mn433 N449 2.282 . S
Mn433 O457 2.215 . S
Mn433 O459 2.117 . S
C434 O456 1.234 . S
C434 O457 1.283 . S
C435 O447 1.281 . S
C435 O448 1.236 . S
C436 O458 1.240 . S
C436 O459 1.264 . S
O437 Mn432 2.095 . S
O437 C446 1.250 . S
O438 Mn433 2.121 . S
O438 C446 1.258 . S
C439 N440 1.326 . S
C439 C443 1.460 . S
C439 H445 0.929 . S
N440 Mn433 2.257 . S
N440 C439 1.326 . S
N440 C444 1.362 . S
C441 C442 1.258 . S
C441 C444 1.431 . S
C441 C461 1.449 . S
C442 C441 1.258 . S
C442 C443 1.477 . S
C442 H462 0.931 . S
C443 C439 1.460 . S
C443 C442 1.477 . S
C443 H463 0.930 . S
C444 N440 1.362 . S
C444 C441 1.431 . S
C444 C454 1.476 . S
H445 C439 0.929 . S
C446 O437 1.250 . S
C446 O438 1.258 . S
O447 Mn432 2.162 . S
O447 C435 1.281 . S
O448 Mn432 2.297 . S
O448 C435 1.236 . S
N449 Mn433 2.282 . S
N449 C450 1.328 . S
N449 C454 1.318 . S
C450 N449 1.328 . S
C450 C451 1.457 . S
C450 H455 0.929 . S
C451 C450 1.457 . S
C451 C452 1.291 . S
C451 H464 0.931 . S
C452 C451 1.291 . S
C452 C453 1.373 . S
C452 H465 0.929 . S
C453 C452 1.373 . S
C453 C454 1.396 . S
C453 C460 1.403 . S
C454 C444 1.476 . S
C454 N449 1.318 . S
C454 C453 1.396 . S
H455 C450 0.929 . S
O456 Mn432 2.385 . S
O456 C434 1.234 . S
O457 Mn432 2.209 . S
O457 Mn433 2.215 . S
O457 C434 1.283 . S
O458 Mn432 2.094 . S
O458 C436 1.240 . S
O459 Mn433 2.117 . S
O459 C436 1.264 . S
C460 C453 1.403 . S
C460 C461 1.399 . S
C460 H466 0.929 . S
C461 C441 1.449 . S
C461 C460 1.399 . S
C461 H467 0.930 . S
H462 C442 0.931 . S
H463 C443 0.930 . S
H464 C451 0.931 . S
H465 C452 0.929 . S
H466 C460 0.929 . S
H467 C461 0.930 . S
Mn468 O473 2.095 . S
Mn468 O483 2.162 . S
Mn468 O484 2.297 . S
Mn468 O492 2.385 . S
Mn468 O493 2.209 . S
Mn468 O494 2.094 . S
Mn469 O474 2.121 . S
Mn469 N476 2.257 . S
Mn469 N485 2.282 . S
Mn469 O493 2.215 . S
Mn469 O495 2.117 . S
C470 O492 1.234 . S
C470 O493 1.283 . S
C471 O483 1.281 . S
C471 O484 1.236 . S
C472 O494 1.240 . S
C472 O495 1.264 . S
O473 Mn468 2.095 . S
O473 C482 1.250 . S
O474 Mn469 2.121 . S
O474 C482 1.258 . S
C475 N476 1.326 . S
C475 C479 1.460 . S
C475 H481 0.929 . S
N476 Mn469 2.257 . S
N476 C475 1.326 . S
N476 C480 1.362 . S
C477 C478 1.258 . S
C477 C480 1.431 . S
C477 C497 1.449 . S
C478 C477 1.258 . S
C478 C479 1.477 . S
C478 H498 0.931 . S
C479 C475 1.460 . S
C479 C478 1.477 . S
C479 H499 0.930 . S
C480 N476 1.362 . S
C480 C477 1.431 . S
C480 C490 1.476 . S
H481 C475 0.929 . S
C482 O473 1.250 . S
C482 O474 1.258 . S
O483 Mn468 2.162 . S
O483 C471 1.281 . S
O484 Mn468 2.297 . S
O484 C471 1.236 . S
N485 Mn469 2.282 . S
N485 C486 1.328 . S
N485 C490 1.318 . S
C486 N485 1.328 . S
C486 C487 1.457 . S
C486 H491 0.929 . S
C487 C486 1.457 . S
C487 C488 1.291 . S
C487 H500 0.931 . S
C488 C487 1.291 . S
C488 C489 1.373 . S
C488 H501 0.929 . S
C489 C488 1.373 . S
C489 C490 1.396 . S
C489 C496 1.403 . S
C490 C480 1.476 . S
C490 N485 1.318 . S
C490 C489 1.396 . S
H491 C486 0.929 . S
O492 Mn468 2.385 . S
O492 C470 1.234 . S
O493 Mn468 2.209 . S
O493 Mn469 2.215 . S
O493 C470 1.283 . S
O494 Mn468 2.094 . S
O494 C472 1.240 . S
O495 Mn469 2.117 . S
O495 C472 1.264 . S
C496 C489 1.403 . S
C496 C497 1.399 . S
C496 H502 0.929 . S
C497 C477 1.449 . S
C497 C496 1.399 . S
C497 H503 0.930 . S
H498 C478 0.931 . S
H499 C479 0.930 . S
H500 C487 0.931 . S
H501 C488 0.929 . S
H502 C496 0.929 . S
H503 C497 0.930 . S
H504 C516 0.930 . S
H505 C518 0.930 . S
H506 C519 0.930 . S
H507 C523 0.959 . S
H508 C523 0.959 . S
H509 C523 0.961 . S
H510 C524 0.960 . S
H511 C524 0.961 . S
H512 C524 0.959 . S
H513 C527 0.929 . S
H514 C528 0.931 . S
H515 C530 0.930 . S
C516 H504 0.930 . S
C516 C517 1.399 . S
C516 C521 1.399 . S
C517 C516 1.399 . S
C517 C518 1.376 . S
C518 H505 0.930 . S
C518 C517 1.376 . S
C518 C519 1.388 . S
C519 H506 0.930 . S
C519 C518 1.388 . S
C519 C520 1.390 . S
C520 C519 1.390 . S
C520 C521 1.394 . S
C520 C526 1.465 . S
C521 C516 1.399 . S
C521 C520 1.394 . S
C521 C522 1.516 . S
C522 C521 1.516 . S
C522 C523 1.502 . S
C522 C524 1.561 . S
C522 C525 1.526 . S
C523 H507 0.959 . S
C523 H508 0.959 . S
C523 H509 0.961 . S
C523 C522 1.502 . S
C524 H510 0.960 . S
C524 H511 0.961 . S
C524 H512 0.959 . S
C524 C522 1.561 . S
C525 C522 1.526 . S
C525 C526 1.396 . S
C525 C530 1.390 . S
C526 C520 1.465 . S
C526 C525 1.396 . S
C526 C527 1.399 . S
C527 H513 0.929 . S
C527 C526 1.399 . S
C527 C528 1.385 . S
C528 H514 0.931 . S
C528 C527 1.385 . S
C528 C529 1.389 . S
C529 C528 1.389 . S
C529 C530 1.387 . S
C530 H515 0.930 . S
C530 C525 1.390 . S
C530 C529 1.387 . S
H531 C543 0.930 . S
H532 C545 0.930 . S
H533 C546 0.930 . S
H534 C550 0.959 . S
H535 C550 0.959 . S
H536 C550 0.961 . S
H537 C551 0.960 . S
H538 C551 0.961 . S
H539 C551 0.959 . S
H540 C554 0.929 . S
H541 C555 0.931 . S
H542 C557 0.930 . S
C543 H531 0.930 . S
C543 C544 1.399 . S
C543 C548 1.399 . S
C544 C543 1.399 . S
C544 C545 1.376 . S
C545 H532 0.930 . S
C545 C544 1.376 . S
C545 C546 1.388 . S
C546 H533 0.930 . S
C546 C545 1.388 . S
C546 C547 1.390 . S
C547 C546 1.390 . S
C547 C548 1.394 . S
C547 C553 1.465 . S
C548 C543 1.399 . S
C548 C547 1.394 . S
C548 C549 1.516 . S
C549 C548 1.516 . S
C549 C550 1.502 . S
C549 C551 1.561 . S
C549 C552 1.526 . S
C550 H534 0.959 . S
C550 H535 0.959 . S
C550 H536 0.961 . S
C550 C549 1.502 . S
C551 H537 0.960 . S
C551 H538 0.961 . S
C551 H539 0.959 . S
C551 C549 1.561 . S
C552 C549 1.526 . S
C552 C553 1.396 . S
C552 C557 1.390 . S
C553 C547 1.465 . S
C553 C552 1.396 . S
C553 C554 1.399 . S
C554 H540 0.929 . S
C554 C553 1.399 . S
C554 C555 1.385 . S
C555 H541 0.931 . S
C555 C554 1.385 . S
C555 C556 1.389 . S
C556 C555 1.389 . S
C556 C557 1.387 . S
C557 H542 0.930 . S
C557 C552 1.390 . S
C557 C556 1.387 . S
H558 C570 0.930 . S
H559 C572 0.930 . S
H560 C573 0.930 . S
H561 C577 0.959 . S
H562 C577 0.959 . S
H563 C577 0.961 . S
H564 C578 0.960 . S
H565 C578 0.961 . S
H566 C578 0.959 . S
H567 C581 0.929 . S
H568 C582 0.931 . S
H569 C584 0.930 . S
C570 H558 0.930 . S
C570 C571 1.399 . S
C570 C575 1.399 . S
C571 C570 1.399 . S
C571 C572 1.376 . S
C572 H559 0.930 . S
C572 C571 1.376 . S
C572 C573 1.388 . S
C573 H560 0.930 . S
C573 C572 1.388 . S
C573 C574 1.390 . S
C574 C573 1.390 . S
C574 C575 1.394 . S
C574 C580 1.465 . S
C575 C570 1.399 . S
C575 C574 1.394 . S
C575 C576 1.516 . S
C576 C575 1.516 . S
C576 C577 1.502 . S
C576 C578 1.561 . S
C576 C579 1.526 . S
C577 H561 0.959 . S
C577 H562 0.959 . S
C577 H563 0.961 . S
C577 C576 1.502 . S
C578 H564 0.960 . S
C578 H565 0.961 . S
C578 H566 0.959 . S
C578 C576 1.561 . S
C579 C576 1.526 . S
C579 C580 1.396 . S
C579 C584 1.390 . S
C580 C574 1.465 . S
C580 C579 1.396 . S
C580 C581 1.399 . S
C581 H567 0.929 . S
C581 C580 1.399 . S
C581 C582 1.385 . S
C582 H568 0.931 . S
C582 C581 1.385 . S
C582 C583 1.389 . S
C583 C582 1.389 . S
C583 C584 1.387 . S
C584 H569 0.930 . S
C584 C579 1.390 . S
C584 C583 1.387 . S
H585 C597 0.930 . S
H586 C599 0.930 . S
H587 C600 0.930 . S
H588 C604 0.959 . S
H589 C604 0.959 . S
H590 C604 0.961 . S
H591 C605 0.960 . S
H592 C605 0.961 . S
H593 C605 0.959 . S
H594 C608 0.929 . S
H595 C609 0.931 . S
H596 C611 0.930 . S
C597 H585 0.930 . S
C597 C598 1.399 . S
C597 C602 1.399 . S
C598 C597 1.399 . S
C598 C599 1.376 . S
C599 H586 0.930 . S
C599 C598 1.376 . S
C599 C600 1.388 . S
C600 H587 0.930 . S
C600 C599 1.388 . S
C600 C601 1.390 . S
C601 C600 1.390 . S
C601 C602 1.394 . S
C601 C607 1.465 . S
C602 C597 1.399 . S
C602 C601 1.394 . S
C602 C603 1.516 . S
C603 C602 1.516 . S
C603 C604 1.502 . S
C603 C605 1.561 . S
C603 C606 1.526 . S
C604 H588 0.959 . S
C604 H589 0.959 . S
C604 H590 0.961 . S
C604 C603 1.502 . S
C605 H591 0.960 . S
C605 H592 0.961 . S
C605 H593 0.959 . S
C605 C603 1.561 . S
C606 C603 1.526 . S
C606 C607 1.396 . S
C606 C611 1.390 . S
C607 C601 1.465 . S
C607 C606 1.396 . S
C607 C608 1.399 . S
C608 H594 0.929 . S
C608 C607 1.399 . S
C608 C609 1.385 . S
C609 H595 0.931 . S
C609 C608 1.385 . S
C609 C610 1.389 . S
C610 C609 1.389 . S
C610 C611 1.387 . S
C611 H596 0.930 . S
C611 C606 1.390 . S
C611 C610 1.387 . S
H612 C624 0.930 . S
H613 C626 0.930 . S
H614 C627 0.930 . S
H615 C631 0.959 . S
H616 C631 0.959 . S
H617 C631 0.961 . S
H618 C632 0.960 1_554 S
H619 C632 0.961 . S
H620 C632 0.959 . S
H621 C635 0.929 . S
H622 C636 0.931 . S
H623 C638 0.930 . S
C624 H612 0.930 . S
C624 C625 1.399 . S
C624 C629 1.399 . S
C625 C624 1.399 . S
C625 C626 1.376 . S
C626 H613 0.930 . S
C626 C625 1.376 . S
C626 C627 1.388 . S
C627 H614 0.930 . S
C627 C626 1.388 . S
C627 C628 1.390 . S
C628 C627 1.390 . S
C628 C629 1.394 . S
C628 C634 1.465 . S
C629 C624 1.399 . S
C629 C628 1.394 . S
C629 C630 1.516 . S
C630 C629 1.516 . S
C630 C631 1.502 . S
C630 C632 1.561 . S
C630 C633 1.526 . S
C631 H615 0.959 . S
C631 H616 0.959 . S
C631 H617 0.961 . S
C631 C630 1.502 . S
C632 H618 0.960 1_556 S
C632 H619 0.961 . S
C632 H620 0.959 . S
C632 C630 1.561 . S
C633 C630 1.526 . S
C633 C634 1.396 . S
C633 C638 1.390 . S
C634 C628 1.465 . S
C634 C633 1.396 . S
C634 C635 1.399 . S
C635 H621 0.929 . S
C635 C634 1.399 . S
C635 C636 1.385 . S
C636 H622 0.931 . S
C636 C635 1.385 . S
C636 C637 1.389 . S
C637 C636 1.389 . S
C637 C638 1.387 . S
C638 H623 0.930 . S
C638 C633 1.390 . S
C638 C637 1.387 . S
H639 C651 0.930 . S
H640 C653 0.930 . S
H641 C654 0.930 . S
H642 C658 0.959 . S
H643 C658 0.959 . S
H644 C658 0.961 . S
H645 C659 0.960 . S
H646 C659 0.961 . S
H647 C659 0.959 . S
H648 C662 0.929 . S
H649 C663 0.931 . S
H650 C665 0.930 . S
C651 H639 0.930 . S
C651 C652 1.399 . S
C651 C656 1.399 . S
C652 C651 1.399 . S
C652 C653 1.376 . S
C653 H640 0.930 . S
C653 C652 1.376 . S
C653 C654 1.388 . S
C654 H641 0.930 . S
C654 C653 1.388 . S
C654 C655 1.390 . S
C655 C654 1.390 . S
C655 C656 1.394 . S
C655 C661 1.465 . S
C656 C651 1.399 . S
C656 C655 1.394 . S
C656 C657 1.516 . S
C657 C656 1.516 . S
C657 C658 1.502 . S
C657 C659 1.561 . S
C657 C660 1.526 . S
C658 H642 0.959 . S
C658 H643 0.959 . S
C658 H644 0.961 . S
C658 C657 1.502 . S
C659 H645 0.960 . S
C659 H646 0.961 . S
C659 H647 0.959 . S
C659 C657 1.561 . S
C660 C657 1.526 . S
C660 C661 1.396 . S
C660 C665 1.390 . S
C661 C655 1.465 . S
C661 C660 1.396 . S
C661 C662 1.399 . S
C662 H648 0.929 . S
C662 C661 1.399 . S
C662 C663 1.385 . S
C663 H649 0.931 . S
C663 C662 1.385 . S
C663 C664 1.389 . S
C664 C663 1.389 . S
C664 C665 1.387 . S
C665 H650 0.930 . S
C665 C660 1.390 . S
C665 C664 1.387 . S
H666 C678 0.930 . S
H667 C680 0.930 . S
H668 C681 0.930 . S
H669 C685 0.959 . S
H670 C685 0.959 . S
H671 C685 0.961 . S
H672 C686 0.960 . S
H673 C686 0.961 . S
H674 C686 0.959 . S
H675 C689 0.929 . S
H676 C690 0.931 . S
H677 C692 0.930 . S
C678 H666 0.930 . S
C678 C679 1.399 . S
C678 C683 1.399 . S
C679 C678 1.399 . S
C679 C680 1.376 . S
C680 H667 0.930 . S
C680 C679 1.376 . S
C680 C681 1.388 . S
C681 H668 0.930 . S
C681 C680 1.388 . S
C681 C682 1.390 . S
C682 C681 1.390 . S
C682 C683 1.394 . S
C682 C688 1.465 . S
C683 C678 1.399 . S
C683 C682 1.394 . S
C683 C684 1.516 . S
C684 C683 1.516 . S
C684 C685 1.502 . S
C684 C686 1.561 . S
C684 C687 1.526 . S
C685 H669 0.959 . S
C685 H670 0.959 . S
C685 H671 0.961 . S
C685 C684 1.502 . S
C686 H672 0.960 . S
C686 H673 0.961 . S
C686 H674 0.959 . S
C686 C684 1.561 . S
C687 C684 1.526 . S
C687 C688 1.396 . S
C687 C692 1.390 . S
C688 C682 1.465 . S
C688 C687 1.396 . S
C688 C689 1.399 . S
C689 H675 0.929 . S
C689 C688 1.399 . S
C689 C690 1.385 . S
C690 H676 0.931 . S
C690 C689 1.385 . S
C690 C691 1.389 . S
C691 C690 1.389 . S
C691 C692 1.387 . S
C692 H677 0.930 . S
C692 C687 1.390 . S
C692 C691 1.387 . S
H693 C705 0.930 . S
H694 C707 0.930 . S
H695 C708 0.930 . S
H696 C712 0.959 . S
H697 C712 0.959 . S
H698 C712 0.961 . S
H699 C713 0.960 . S
H700 C713 0.961 . S
H701 C713 0.959 . S
H702 C716 0.929 . S
H703 C717 0.931 . S
H704 C719 0.930 . S
C705 H693 0.930 . S
C705 C706 1.399 . S
C705 C710 1.399 . S
C706 C705 1.399 . S
C706 C707 1.376 . S
C707 H694 0.930 . S
C707 C706 1.376 . S
C707 C708 1.388 . S
C708 H695 0.930 . S
C708 C707 1.388 . S
C708 C709 1.390 . S
C709 C708 1.390 . S
C709 C710 1.394 . S
C709 C715 1.465 . S
C710 C705 1.399 . S
C710 C709 1.394 . S
C710 C711 1.516 . S
C711 C710 1.516 . S
C711 C712 1.502 . S
C711 C713 1.561 . S
C711 C714 1.526 . S
C712 H696 0.959 . S
C712 H697 0.959 . S
C712 H698 0.961 . S
C712 C711 1.502 . S
C713 H699 0.960 . S
C713 H700 0.961 . S
C713 H701 0.959 . S
C713 C711 1.561 . S
C714 C711 1.526 . S
C714 C715 1.396 . S
C714 C719 1.390 . S
C715 C709 1.465 . S
C715 C714 1.396 . S
C715 C716 1.399 . S
C716 H702 0.929 . S
C716 C715 1.399 . S
C716 C717 1.385 . S
C717 H703 0.931 . S
C717 C716 1.385 . S
C717 C718 1.389 . S
C718 C717 1.389 . S
C718 C719 1.387 . S
C719 H704 0.930 . S
C719 C714 1.390 . S
C719 C718 1.387 . S
H720 C732 0.930 . S
H721 C734 0.930 . S
H722 C735 0.930 . S
H723 C739 0.959 . S
H724 C739 0.959 . S
H725 C739 0.961 . S
H726 C740 0.960 . S
H727 C740 0.961 . S
H728 C740 0.959 . S
H729 C743 0.929 . S
H730 C744 0.931 . S
H731 C746 0.930 . S
C732 H720 0.930 . S
C732 C733 1.399 . S
C732 C737 1.399 . S
C733 C732 1.399 . S
C733 C734 1.376 . S
C734 H721 0.930 . S
C734 C733 1.376 . S
C734 C735 1.388 . S
C735 H722 0.930 . S
C735 C734 1.388 . S
C735 C736 1.390 . S
C736 C735 1.390 . S
C736 C737 1.394 . S
C736 C742 1.465 . S
C737 C732 1.399 . S
C737 C736 1.394 . S
C737 C738 1.516 . S
C738 C737 1.516 . S
C738 C739 1.502 . S
C738 C740 1.561 . S
C738 C741 1.526 . S
C739 H723 0.959 . S
C739 H724 0.959 . S
C739 H725 0.961 . S
C739 C738 1.502 . S
C740 H726 0.960 . S
C740 H727 0.961 . S
C740 H728 0.959 . S
C740 C738 1.561 . S
C741 C738 1.526 . S
C741 C742 1.396 . S
C741 C746 1.390 . S
C742 C736 1.465 . S
C742 C741 1.396 . S
C742 C743 1.399 . S
C743 H729 0.929 . S
C743 C742 1.399 . S
C743 C744 1.385 . S
C744 H730 0.931 . S
C744 C743 1.385 . S
C744 C745 1.389 . S
C745 C744 1.389 . S
C745 C746 1.387 . S
C746 H731 0.930 . S
C746 C741 1.390 . S
C746 C745 1.387 . S
H747 C759 0.930 . S
H748 C761 0.930 1_556 S
H749 C762 0.930 1_556 S
H750 C766 0.959 . S
H751 C766 0.959 . S
H752 C766 0.961 . S
H753 C767 0.960 . S
H754 C767 0.961 . S
H755 C767 0.959 . S
H756 C770 0.929 . S
H757 C771 0.931 . S
H758 C773 0.930 . S
C759 H747 0.930 . S
C759 C760 1.399 . S
C759 C764 1.399 . S
C760 C759 1.399 . S
C760 C761 1.376 . S
C761 H748 0.930 1_554 S
C761 C760 1.376 . S
C761 C762 1.388 . S
C762 H749 0.930 1_554 S
C762 C761 1.388 . S
C762 C763 1.390 . S
C763 C762 1.390 . S
C763 C764 1.394 . S
C763 C769 1.465 . S
C764 C759 1.399 . S
C764 C763 1.394 . S
C764 C765 1.516 . S
C765 C764 1.516 . S
C765 C766 1.502 . S
C765 C767 1.561 . S
C765 C768 1.526 . S
C766 H750 0.959 . S
C766 H751 0.959 . S
C766 H752 0.961 . S
C766 C765 1.502 . S
C767 H753 0.960 . S
C767 H754 0.961 . S
C767 H755 0.959 . S
C767 C765 1.561 . S
C768 C765 1.526 . S
C768 C769 1.396 . S
C768 C773 1.390 . S
C769 C763 1.465 . S
C769 C768 1.396 . S
C769 C770 1.399 . S
C770 H756 0.929 . S
C770 C769 1.399 . S
C770 C771 1.385 . S
C771 H757 0.931 . S
C771 C770 1.385 . S
C771 C772 1.389 . S
C772 C771 1.389 . S
C772 C773 1.387 . S
C773 H758 0.930 . S
C773 C768 1.390 . S
C773 C772 1.387 . S
H774 C786 0.930 . S
H775 C788 0.930 . S
H776 C789 0.930 . S
H777 C793 0.959 . S
H778 C793 0.959 . S
H779 C793 0.961 . S
H780 C794 0.960 . S
H781 C794 0.961 . S
H782 C794 0.959 . S
H783 C797 0.929 . S
H784 C798 0.931 . S
H785 C800 0.930 . S
C786 H774 0.930 . S
C786 C787 1.399 . S
C786 C791 1.399 . S
C787 C786 1.399 . S
C787 C788 1.376 . S
C788 H775 0.930 . S
C788 C787 1.376 . S
C788 C789 1.388 . S
C789 H776 0.930 . S
C789 C788 1.388 . S
C789 C790 1.390 . S
C790 C789 1.390 . S
C790 C791 1.394 . S
C790 C796 1.465 . S
C791 C786 1.399 . S
C791 C790 1.394 . S
C791 C792 1.516 . S
C792 C791 1.516 . S
C792 C793 1.502 . S
C792 C794 1.561 . S
C792 C795 1.526 . S
C793 H777 0.959 . S
C793 H778 0.959 . S
C793 H779 0.961 . S
C793 C792 1.502 . S
C794 H780 0.960 . S
C794 H781 0.961 . S
C794 H782 0.959 . S
C794 C792 1.561 . S
C795 C792 1.526 . S
C795 C796 1.396 . S
C795 C800 1.390 . S
C796 C790 1.465 . S
C796 C795 1.396 . S
C796 C797 1.399 . S
C797 H783 0.929 . S
C797 C796 1.399 . S
C797 C798 1.385 . S
C798 H784 0.931 . S
C798 C797 1.385 . S
C798 C799 1.389 . S
C799 C798 1.389 . S
C799 C800 1.387 . S
C800 H785 0.930 . S
C800 C795 1.390 . S
C800 C799 1.387 . S
H801 C813 0.930 . S
H802 C815 0.930 . S
H803 C816 0.930 . S
H804 C820 0.959 . S
H805 C820 0.959 . S
H806 C820 0.961 . S
H807 C821 0.960 . S
H808 C821 0.961 . S
H809 C821 0.959 . S
H810 C824 0.929 . S
H811 C825 0.931 . S
H812 C827 0.930 . S
C813 H801 0.930 . S
C813 C814 1.399 . S
C813 C818 1.399 . S
C814 C813 1.399 . S
C814 C815 1.376 . S
C815 H802 0.930 . S
C815 C814 1.376 . S
C815 C816 1.388 . S
C816 H803 0.930 . S
C816 C815 1.388 . S
C816 C817 1.390 . S
C817 C816 1.390 . S
C817 C818 1.394 . S
C817 C823 1.465 . S
C818 C813 1.399 . S
C818 C817 1.394 . S
C818 C819 1.516 . S
C819 C818 1.516 . S
C819 C820 1.502 . S
C819 C821 1.561 . S
C819 C822 1.526 . S
C820 H804 0.959 . S
C820 H805 0.959 . S
C820 H806 0.961 . S
C820 C819 1.502 . S
C821 H807 0.960 . S
C821 H808 0.961 . S
C821 H809 0.959 . S
C821 C819 1.561 . S
C822 C819 1.526 . S
C822 C823 1.396 . S
C822 C827 1.390 . S
C823 C817 1.465 . S
C823 C822 1.396 . S
C823 C824 1.399 . S
C824 H810 0.929 . S
C824 C823 1.399 . S
C824 C825 1.385 . S
C825 H811 0.931 . S
C825 C824 1.385 . S
C825 C826 1.389 . S
C826 C825 1.389 . S
C826 C827 1.387 . S
C827 H812 0.930 . S
C827 C822 1.390 . S
C827 C826 1.387 . S
H828 C840 0.930 . S
H829 C842 0.930 . S
H830 C843 0.930 . S
H831 C847 0.959 . S
H832 C847 0.959 . S
H833 C847 0.961 . S
H834 C848 0.960 . S
H835 C848 0.961 . S
H836 C848 0.959 . S
H837 C851 0.929 . S
H838 C852 0.931 . S
H839 C854 0.930 . S
C840 H828 0.930 . S
C840 C841 1.399 . S
C840 C845 1.399 . S
C841 C840 1.399 . S
C841 C842 1.376 . S
C842 H829 0.930 . S
C842 C841 1.376 . S
C842 C843 1.388 . S
C843 H830 0.930 . S
C843 C842 1.388 . S
C843 C844 1.390 . S
C844 C843 1.390 . S
C844 C845 1.394 . S
C844 C850 1.465 . S
C845 C840 1.399 . S
C845 C844 1.394 . S
C845 C846 1.516 . S
C846 C845 1.516 . S
C846 C847 1.502 . S
C846 C848 1.561 . S
C846 C849 1.526 . S
C847 H831 0.959 . S
C847 H832 0.959 . S
C847 H833 0.961 . S
C847 C846 1.502 . S
C848 H834 0.960 . S
C848 H835 0.961 . S
C848 H836 0.959 . S
C848 C846 1.561 . S
C849 C846 1.526 . S
C849 C850 1.396 . S
C849 C854 1.390 . S
C850 C844 1.465 . S
C850 C849 1.396 . S
C850 C851 1.399 . S
C851 H837 0.929 . S
C851 C850 1.399 . S
C851 C852 1.385 . S
C852 H838 0.931 . S
C852 C851 1.385 . S
C852 C853 1.389 . S
C853 C852 1.389 . S
C853 C854 1.387 . S
C854 H839 0.930 . S
C854 C849 1.390 . S
C854 C853 1.387 . S
H855 C867 0.930 . S
H856 C869 0.930 . S
H857 C870 0.930 . S
H858 C874 0.959 . S
H859 C874 0.959 . S
H860 C874 0.961 . S
H861 C875 0.960 . S
H862 C875 0.961 . S
H863 C875 0.959 . S
H864 C878 0.929 . S
H865 C879 0.931 . S
H866 C881 0.930 . S
C867 H855 0.930 . S
C867 C868 1.399 . S
C867 C872 1.399 . S
C868 C867 1.399 . S
C868 C869 1.376 . S
C869 H856 0.930 . S
C869 C868 1.376 . S
C869 C870 1.388 . S
C870 H857 0.930 . S
C870 C869 1.388 . S
C870 C871 1.390 . S
C871 C870 1.390 . S
C871 C872 1.394 . S
C871 C877 1.465 . S
C872 C867 1.399 . S
C872 C871 1.394 . S
C872 C873 1.516 . S
C873 C872 1.516 . S
C873 C874 1.502 . S
C873 C875 1.561 . S
C873 C876 1.526 . S
C874 H858 0.959 . S
C874 H859 0.959 . S
C874 H860 0.961 . S
C874 C873 1.502 . S
C875 H861 0.960 . S
C875 H862 0.961 . S
C875 H863 0.959 . S
C875 C873 1.561 . S
C876 C873 1.526 . S
C876 C877 1.396 . S
C876 C881 1.390 . S
C877 C871 1.465 . S
C877 C876 1.396 . S
C877 C878 1.399 . S
C878 H864 0.929 . S
C878 C877 1.399 . S
C878 C879 1.385 . S
C879 H865 0.931 . S
C879 C878 1.385 . S
C879 C880 1.389 . S
C880 C879 1.389 . S
C880 C881 1.387 . S
C881 H866 0.930 . S
C881 C876 1.390 . S
C881 C880 1.387 . S
H882 C894 0.930 . S
H883 C896 0.930 . S
H884 C897 0.930 . S
H885 C901 0.959 . S
H886 C901 0.959 . S
H887 C901 0.961 . S
H888 C902 0.960 . S
H889 C902 0.961 . S
H890 C902 0.959 . S
H891 C905 0.929 . S
H892 C906 0.931 . S
H893 C908 0.930 . S
C894 H882 0.930 . S
C894 C895 1.399 . S
C894 C899 1.399 . S
C895 C894 1.399 . S
C895 C896 1.376 . S
C896 H883 0.930 . S
C896 C895 1.376 . S
C896 C897 1.388 . S
C897 H884 0.930 . S
C897 C896 1.388 . S
C897 C898 1.390 . S
C898 C897 1.390 . S
C898 C899 1.394 . S
C898 C904 1.465 . S
C899 C894 1.399 . S
C899 C898 1.394 . S
C899 C900 1.516 . S
C900 C899 1.516 . S
C900 C901 1.502 . S
C900 C902 1.561 . S
C900 C903 1.526 . S
C901 H885 0.959 . S
C901 H886 0.959 . S
C901 H887 0.961 . S
C901 C900 1.502 . S
C902 H888 0.960 . S
C902 H889 0.961 . S
C902 H890 0.959 . S
C902 C900 1.561 . S
C903 C900 1.526 . S
C903 C904 1.396 . S
C903 C908 1.390 . S
C904 C898 1.465 . S
C904 C903 1.396 . S
C904 C905 1.399 . S
C905 H891 0.929 . S
C905 C904 1.399 . S
C905 C906 1.385 . S
C906 H892 0.931 . S
C906 C905 1.385 . S
C906 C907 1.389 . S
C907 C906 1.389 . S
C907 C908 1.387 . S
C908 H893 0.930 . S
C908 C903 1.390 . S
C908 C907 1.387 . S
H909 C921 0.930 . S
H910 C923 0.930 . S
H911 C924 0.930 . S
H912 C928 0.959 . S
H913 C928 0.959 . S
H914 C928 0.961 . S
H915 C929 0.960 . S
H916 C929 0.961 . S
H917 C929 0.959 . S
H918 C932 0.929 . S
H919 C933 0.931 . S
H920 C935 0.930 . S
C921 H909 0.930 . S
C921 C922 1.399 . S
C921 C926 1.399 . S
C922 C921 1.399 . S
C922 C923 1.376 . S
C923 H910 0.930 . S
C923 C922 1.376 . S
C923 C924 1.388 . S
C924 H911 0.930 . S
C924 C923 1.388 . S
C924 C925 1.390 . S
C925 C924 1.390 . S
C925 C926 1.394 . S
C925 C931 1.465 . S
C926 C921 1.399 . S
C926 C925 1.394 . S
C926 C927 1.516 . S
C927 C926 1.516 . S
C927 C928 1.502 . S
C927 C929 1.561 . S
C927 C930 1.526 . S
C928 H912 0.959 . S
C928 H913 0.959 . S
C928 H914 0.961 . S
C928 C927 1.502 . S
C929 H915 0.960 . S
C929 H916 0.961 . S
C929 H917 0.959 . S
C929 C927 1.561 . S
C930 C927 1.526 . S
C930 C931 1.396 . S
C930 C935 1.390 . S
C931 C925 1.465 . S
C931 C930 1.396 . S
C931 C932 1.399 1_556 S
C932 H918 0.929 . S
C932 C931 1.399 1_554 S
C932 C933 1.385 . S
C933 H919 0.931 . S
C933 C932 1.385 . S
C933 C934 1.389 . S
C934 C933 1.389 . S
C934 C935 1.387 1_554 S
C935 H920 0.930 . S
C935 C930 1.390 . S
C935 C934 1.387 1_556 S
H936 C948 0.930 . S
H937 C950 0.930 . S
H938 C951 0.930 . S
H939 C955 0.959 . S
H940 C955 0.959 . S
H941 C955 0.961 . S
H942 C956 0.960 . S
H943 C956 0.961 . S
H944 C956 0.959 . S
H945 C959 0.929 . S
H946 C960 0.931 . S
H947 C962 0.930 . S
C948 H936 0.930 . S
C948 C949 1.399 . S
C948 C953 1.399 . S
C949 C948 1.399 . S
C949 C950 1.376 . S
C950 H937 0.930 . S
C950 C949 1.376 . S
C950 C951 1.388 . S
C951 H938 0.930 . S
C951 C950 1.388 . S
C951 C952 1.390 . S
C952 C951 1.390 . S
C952 C953 1.394 . S
C952 C958 1.465 . S
C953 C948 1.399 . S
C953 C952 1.394 . S
C953 C954 1.516 . S
C954 C953 1.516 . S
C954 C955 1.502 . S
C954 C956 1.561 . S
C954 C957 1.526 . S
C955 H939 0.959 . S
C955 H940 0.959 . S
C955 H941 0.961 . S
C955 C954 1.502 . S
C956 H942 0.960 . S
C956 H943 0.961 . S
C956 H944 0.959 . S
C956 C954 1.561 . S
C957 C954 1.526 . S
C957 C958 1.396 . S
C957 C962 1.390 . S
C958 C952 1.465 . S
C958 C957 1.396 . S
C958 C959 1.399 . S
C959 H945 0.929 . S
C959 C958 1.399 . S
C959 C960 1.385 . S
C960 H946 0.931 . S
C960 C959 1.385 . S
C960 C961 1.389 . S
C961 C960 1.389 . S
C961 C962 1.387 . S
C962 H947 0.930 . S
C962 C957 1.390 . S
C962 C961 1.387 . S
H963 C975 0.930 . S
H964 C977 0.930 . S
H965 C978 0.930 . S
H966 C982 0.959 . S
H967 C982 0.959 . S
H968 C982 0.961 . S
H969 C983 0.960 . S
H970 C983 0.961 . S
H971 C983 0.959 . S
H972 C986 0.929 . S
H973 C987 0.931 . S
H974 C989 0.930 . S
C975 H963 0.930 . S
C975 C976 1.399 . S
C975 C980 1.399 . S
C976 C975 1.399 . S
C976 C977 1.376 . S
C977 H964 0.930 . S
C977 C976 1.376 . S
C977 C978 1.388 . S
C978 H965 0.930 . S
C978 C977 1.388 . S
C978 C979 1.390 . S
C979 C978 1.390 . S
C979 C980 1.394 . S
C979 C985 1.465 . S
C980 C975 1.399 . S
C980 C979 1.394 . S
C980 C981 1.516 . S
C981 C980 1.516 . S
C981 C982 1.502 . S
C981 C983 1.561 . S
C981 C984 1.526 . S
C982 H966 0.959 . S
C982 H967 0.959 . S
C982 H968 0.961 . S
C982 C981 1.502 . S
C983 H969 0.960 . S
C983 H970 0.961 . S
C983 H971 0.959 . S
C983 C981 1.561 . S
C984 C981 1.526 . S
C984 C985 1.396 . S
C984 C989 1.390 . S
C985 C979 1.465 . S
C985 C984 1.396 . S
C985 C986 1.399 . S
C986 H972 0.929 . S
C986 C985 1.399 . S
C986 C987 1.385 . S
C987 H973 0.931 . S
C987 C986 1.385 . S
C987 C988 1.389 . S
C988 C987 1.389 . S
C988 C989 1.387 . S
C989 H974 0.930 . S
C989 C984 1.390 . S
C989 C988 1.387 . S
H990 C1002 0.930 . S
H991 C1004 0.930 . S
H992 C1005 0.930 . S
H993 C1009 0.959 . S
H994 C1009 0.959 . S
H995 C1009 0.961 . S
H996 C1010 0.960 . S
H997 C1010 0.961 . S
H998 C1010 0.959 . S
H999 C1013 0.929 . S
H1000 C1014 0.931 . S
H1001 C1016 0.930 . S
C1002 H990 0.930 . S
C1002 C1003 1.399 . S
C1002 C1007 1.399 . S
C1003 C1002 1.399 . S
C1003 C1004 1.376 . S
C1004 H991 0.930 . S
C1004 C1003 1.376 . S
C1004 C1005 1.388 . S
C1005 H992 0.930 . S
C1005 C1004 1.388 . S
C1005 C1006 1.390 . S
C1006 C1005 1.390 . S
C1006 C1007 1.394 . S
C1006 C1012 1.465 . S
C1007 C1002 1.399 . S
C1007 C1006 1.394 . S
C1007 C1008 1.516 . S
C1008 C1007 1.516 . S
C1008 C1009 1.502 . S
C1008 C1010 1.561 . S
C1008 C1011 1.526 . S
C1009 H993 0.959 . S
C1009 H994 0.959 . S
C1009 H995 0.961 . S
C1009 C1008 1.502 . S
C1010 H996 0.960 . S
C1010 H997 0.961 . S
C1010 H998 0.959 . S
C1010 C1008 1.561 . S
C1011 C1008 1.526 . S
C1011 C1012 1.396 . S
C1011 C1016 1.390 . S
C1012 C1006 1.465 . S
C1012 C1011 1.396 . S
C1012 C1013 1.399 . S
C1013 H999 0.929 . S
C1013 C1012 1.399 . S
C1013 C1014 1.385 . S
C1014 H1000 0.931 . S
C1014 C1013 1.385 . S
C1014 C1015 1.389 . S
C1015 C1014 1.389 . S
C1015 C1016 1.387 . S
C1016 H1001 0.930 . S
C1016 C1011 1.390 . S
C1016 C1015 1.387 . S
H1017 C1029 0.930 . S
H1018 C1031 0.930 . S
H1019 C1032 0.930 . S
H1020 C1036 0.959 . S
H1021 C1036 0.959 . S
H1022 C1036 0.961 . S
H1023 C1037 0.960 . S
H1024 C1037 0.961 . S
H1025 C1037 0.959 . S
H1026 C1040 0.929 . S
H1027 C1041 0.931 . S
H1028 C1043 0.930 . S
C1029 H1017 0.930 . S
C1029 C1030 1.399 . S
C1029 C1034 1.399 . S
C1030 C1029 1.399 . S
C1030 C1031 1.376 . S
C1031 H1018 0.930 . S
C1031 C1030 1.376 . S
C1031 C1032 1.388 . S
C1032 H1019 0.930 . S
C1032 C1031 1.388 . S
C1032 C1033 1.390 . S
C1033 C1032 1.390 . S
C1033 C1034 1.394 . S
C1033 C1039 1.465 . S
C1034 C1029 1.399 . S
C1034 C1033 1.394 . S
C1034 C1035 1.516 . S
C1035 C1034 1.516 . S
C1035 C1036 1.502 . S
C1035 C1037 1.561 . S
C1035 C1038 1.526 . S
C1036 H1020 0.959 . S
C1036 H1021 0.959 . S
C1036 H1022 0.961 . S
C1036 C1035 1.502 . S
C1037 H1023 0.960 . S
C1037 H1024 0.961 . S
C1037 H1025 0.959 . S
C1037 C1035 1.561 . S
C1038 C1035 1.526 . S
C1038 C1039 1.396 . S
C1038 C1043 1.390 . S
C1039 C1033 1.465 . S
C1039 C1038 1.396 . S
C1039 C1040 1.399 . S
C1040 H1026 0.929 . S
C1040 C1039 1.399 . S
C1040 C1041 1.385 . S
C1041 H1027 0.931 . S
C1041 C1040 1.385 . S
C1041 C1042 1.389 . S
C1042 C1041 1.389 . S
C1042 C1043 1.387 . S
C1043 H1028 0.930 . S
C1043 C1038 1.390 . S
C1043 C1042 1.387 . S
H1044 C1056 0.930 . S
H1045 C1058 0.930 . S
H1046 C1059 0.930 . S
H1047 C1063 0.959 . S
H1048 C1063 0.959 . S
H1049 C1063 0.961 . S
H1050 C1064 0.960 . S
H1051 C1064 0.961 . S
H1052 C1064 0.959 . S
H1053 C1067 0.929 . S
H1054 C1068 0.931 . S
H1055 C1070 0.930 . S
C1056 H1044 0.930 . S
C1056 C1057 1.399 . S
C1056 C1061 1.399 . S
C1057 C1056 1.399 . S
C1057 C1058 1.376 . S
C1058 H1045 0.930 . S
C1058 C1057 1.376 . S
C1058 C1059 1.388 . S
C1059 H1046 0.930 . S
C1059 C1058 1.388 . S
C1059 C1060 1.390 . S
C1060 C1059 1.390 . S
C1060 C1061 1.394 . S
C1060 C1066 1.465 . S
C1061 C1056 1.399 . S
C1061 C1060 1.394 . S
C1061 C1062 1.516 . S
C1062 C1061 1.516 . S
C1062 C1063 1.502 . S
C1062 C1064 1.561 . S
C1062 C1065 1.526 . S
C1063 H1047 0.959 . S
C1063 H1048 0.959 . S
C1063 H1049 0.961 . S
C1063 C1062 1.502 . S
C1064 H1050 0.960 . S
C1064 H1051 0.961 . S
C1064 H1052 0.959 . S
C1064 C1062 1.561 . S
C1065 C1062 1.526 . S
C1065 C1066 1.396 . S
C1065 C1070 1.390 . S
C1066 C1060 1.465 . S
C1066 C1065 1.396 . S
C1066 C1067 1.399 . S
C1067 H1053 0.929 . S
C1067 C1066 1.399 . S
C1067 C1068 1.385 . S
C1068 H1054 0.931 . S
C1068 C1067 1.385 . S
C1068 C1069 1.389 . S
C1069 C1068 1.389 . S
C1069 C1070 1.387 . S
C1070 H1055 0.930 . S
C1070 C1065 1.390 . S
C1070 C1069 1.387 . S
H1071 C1083 0.930 . S
H1072 C1085 0.930 . S
H1073 C1086 0.930 . S
H1074 C1090 0.959 . S
H1075 C1090 0.959 . S
H1076 C1090 0.961 . S
H1077 C1091 0.960 . S
H1078 C1091 0.961 . S
H1079 C1091 0.959 . S
H1080 C1094 0.929 . S
H1081 C1095 0.931 . S
H1082 C1097 0.930 . S
C1083 H1071 0.930 . S
C1083 C1084 1.399 . S
C1083 C1088 1.399 . S
C1084 C1083 1.399 . S
C1084 C1085 1.376 . S
C1085 H1072 0.930 . S
C1085 C1084 1.376 . S
C1085 C1086 1.388 . S
C1086 H1073 0.930 . S
C1086 C1085 1.388 . S
C1086 C1087 1.390 . S
C1087 C1086 1.390 . S
C1087 C1088 1.394 . S
C1087 C1093 1.465 . S
C1088 C1083 1.399 . S
C1088 C1087 1.394 . S
C1088 C1089 1.516 . S
C1089 C1088 1.516 . S
C1089 C1090 1.502 . S
C1089 C1091 1.561 . S
C1089 C1092 1.526 . S
C1090 H1074 0.959 . S
C1090 H1075 0.959 . S
C1090 H1076 0.961 . S
C1090 C1089 1.502 . S
C1091 H1077 0.960 . S
C1091 H1078 0.961 . S
C1091 H1079 0.959 . S
C1091 C1089 1.561 . S
C1092 C1089 1.526 . S
C1092 C1093 1.396 . S
C1092 C1097 1.390 . S
C1093 C1087 1.465 . S
C1093 C1092 1.396 . S
C1093 C1094 1.399 . S
C1094 H1080 0.929 . S
C1094 C1093 1.399 . S
C1094 C1095 1.385 . S
C1095 H1081 0.931 . S
C1095 C1094 1.385 . S
C1095 C1096 1.389 . S
C1096 C1095 1.389 . S
C1096 C1097 1.387 . S
C1097 H1082 0.930 . S
C1097 C1092 1.390 . S
C1097 C1096 1.387 . S
H1098 C1110 0.930 . S
H1099 C1112 0.930 . S
H1100 C1113 0.930 . S
H1101 C1117 0.959 . S
H1102 C1117 0.959 . S
H1103 C1117 0.961 . S
H1104 C1118 0.960 1_554 S
H1105 C1118 0.961 . S
H1106 C1118 0.959 1_554 S
H1107 C1121 0.929 . S
H1108 C1122 0.931 . S
H1109 C1124 0.930 . S
C1110 H1098 0.930 . S
C1110 C1111 1.399 . S
C1110 C1115 1.399 . S
C1111 C1110 1.399 . S
C1111 C1112 1.376 . S
C1112 H1099 0.930 . S
C1112 C1111 1.376 . S
C1112 C1113 1.388 . S
C1113 H1100 0.930 . S
C1113 C1112 1.388 . S
C1113 C1114 1.390 . S
C1114 C1113 1.390 . S
C1114 C1115 1.394 . S
C1114 C1120 1.465 . S
C1115 C1110 1.399 . S
C1115 C1114 1.394 . S
C1115 C1116 1.516 1_554 S
C1116 C1115 1.516 1_556 S
C1116 C1117 1.502 . S
C1116 C1118 1.561 . S
C1116 C1119 1.526 . S
C1117 H1101 0.959 . S
C1117 H1102 0.959 . S
C1117 H1103 0.961 . S
C1117 C1116 1.502 . S
C1118 H1104 0.960 1_556 S
C1118 H1105 0.961 . S
C1118 H1106 0.959 1_556 S
C1118 C1116 1.561 . S
C1119 C1116 1.526 . S
C1119 C1120 1.396 1_556 S
C1119 C1124 1.390 . S
C1120 C1114 1.465 . S
C1120 C1119 1.396 1_554 S
C1120 C1121 1.399 . S
C1121 H1107 0.929 . S
C1121 C1120 1.399 . S
C1121 C1122 1.385 1_554 S
C1122 H1108 0.931 . S
C1122 C1121 1.385 1_556 S
C1122 C1123 1.389 . S
C1123 C1122 1.389 . S
C1123 C1124 1.387 . S
C1124 H1109 0.930 . S
C1124 C1119 1.390 . S
C1124 C1123 1.387 . S
H1125 C1137 0.930 . S
H1126 C1139 0.930 . S
H1127 C1140 0.930 . S
H1128 C1144 0.959 . S
H1129 C1144 0.959 . S
H1130 C1144 0.961 . S
H1131 C1145 0.960 . S
H1132 C1145 0.961 . S
H1133 C1145 0.959 . S
H1134 C1148 0.929 . S
H1135 C1149 0.931 . S
H1136 C1151 0.930 . S
C1137 H1125 0.930 . S
C1137 C1138 1.399 . S
C1137 C1142 1.399 . S
C1138 C1137 1.399 . S
C1138 C1139 1.376 . S
C1139 H1126 0.930 . S
C1139 C1138 1.376 . S
C1139 C1140 1.388 . S
C1140 H1127 0.930 . S
C1140 C1139 1.388 . S
C1140 C1141 1.390 . S
C1141 C1140 1.390 . S
C1141 C1142 1.394 . S
C1141 C1147 1.465 . S
C1142 C1137 1.399 . S
C1142 C1141 1.394 . S
C1142 C1143 1.516 . S
C1143 C1142 1.516 . S
C1143 C1144 1.502 . S
C1143 C1145 1.561 . S
C1143 C1146 1.526 . S
C1144 H1128 0.959 . S
C1144 H1129 0.959 . S
C1144 H1130 0.961 . S
C1144 C1143 1.502 . S
C1145 H1131 0.960 . S
C1145 H1132 0.961 . S
C1145 H1133 0.959 . S
C1145 C1143 1.561 . S
C1146 C1143 1.526 . S
C1146 C1147 1.396 . S
C1146 C1151 1.390 . S
C1147 C1141 1.465 . S
C1147 C1146 1.396 . S
C1147 C1148 1.399 . S
C1148 H1134 0.929 . S
C1148 C1147 1.399 . S
C1148 C1149 1.385 . S
C1149 H1135 0.931 . S
C1149 C1148 1.385 . S
C1149 C1150 1.389 . S
C1150 C1149 1.389 . S
C1150 C1151 1.387 . S
C1151 H1136 0.930 . S
C1151 C1146 1.390 . S
C1151 C1150 1.387 . S
C529 C471 1.611 . S
C517 C45 1.593 . S
C544 C84 1.650 . S
C556 C291 1.629 . S
C571 C126 1.582 . S
C583 C338 1.599 . S
C598 C189 1.549 . S
C610 C374 1.505 . S
C637 C399 1.570 . S
C625 C228 1.592 . S
C652 C270 1.531 . S
C664 C435 1.600 . S
C679 C69 1.586 . S
C691 C327 1.641 . S
C706 C141 1.592 . S
C718 C363 1.574 . S
C733 C174 1.517 . S
C745 C410 1.526 . S
C772 C446 1.554 . S
C760 C213 1.547 . S
C799 C482 1.600 . S
C787 C285 1.608 . S
C826 C302 1.579 . S
C814 C30 1.559 . S
C841 C36 1.482 . S
C853 C326 1.492 . S
C868 C93 1.504 . S
C880 C362 1.504 . S
C907 C400 1.478 . S
C895 C117 1.503 . S
C922 C180 1.506 . S
C934 C436 1.493 . S
C961 C472 1.452 . S
C949 C237 1.465 . S
C988 C292 1.464 . S
C976 C261 1.449 . S
C1015 C470 1.480 . S
C1003 C78 1.464 . S
C1030 C132 1.488 . S
C1042 C290 1.469 . S
C1069 C328 1.462 . S
C1057 C165 1.489 . S
C1084 C222 1.498 . S
C1096 C364 1.473 . S
C1111 C276 1.520 . S
C1123 C398 1.513 . S
C1138 C21 1.514 . S
C1150 C434 1.477 . S
