# Generated by pormake.
# Topology cml, (3,6)-cn, num edge types: 1
# Building blocks:
#     Node 0, Type 0, BuildingBlock: MIDCAF_clean_linker_0, # of connection points: 3
#     Node 1, Type 0, BuildingBlock: MIDCAF_clean_linker_0, # of connection points: 3
#     Node 2, Type 0, BuildingBlock: MIDCAF_clean_linker_0, # of connection points: 3
#     Node 3, Type 0, BuildingBlock: MIDCAF_clean_linker_0, # of connection points: 3
#     Node 4, Type 0, BuildingBlock: MIDCAF_clean_linker_0, # of connection points: 3
#     Node 5, Type 0, BuildingBlock: MIDCAF_clean_linker_0, # of connection points: 3
#     Node 6, Type 0, BuildingBlock: MIDCAF_clean_linker_0, # of connection points: 3
#     Node 7, Type 0, BuildingBlock: MIDCAF_clean_linker_0, # of connection points: 3
#     Node 8, Type 1, BuildingBlock: OJICUG_clean_sbu_0, # of connection points: 6
#     Node 9, Type 1, BuildingBlock: OJICUG_clean_sbu_0, # of connection points: 6
#     Node 10, Type 1, BuildingBlock: OJICUG_clean_sbu_0, # of connection points: 6
#     Node 11, Type 1, BuildingBlock: OJICUG_clean_sbu_0, # of connection points: 6
#     Edge 12, Type (0, 1), BuildingBlock: EZIPEK_clean_linker_0, # of connection points: 2
#     Edge 13, Type (0, 1), BuildingBlock: EZIPEK_clean_linker_0, # of connection points: 2
#     Edge 14, Type (0, 1), BuildingBlock: EZIPEK_clean_linker_0, # of connection points: 2
#     Edge 15, Type (0, 1), BuildingBlock: EZIPEK_clean_linker_0, # of connection points: 2
#     Edge 16, Type (0, 1), BuildingBlock: EZIPEK_clean_linker_0, # of connection points: 2
#     Edge 17, Type (0, 1), BuildingBlock: EZIPEK_clean_linker_0, # of connection points: 2
#     Edge 18, Type (0, 1), BuildingBlock: EZIPEK_clean_linker_0, # of connection points: 2
#     Edge 19, Type (0, 1), BuildingBlock: EZIPEK_clean_linker_0, # of connection points: 2
#     Edge 20, Type (0, 1), BuildingBlock: EZIPEK_clean_linker_0, # of connection points: 2
#     Edge 21, Type (0, 1), BuildingBlock: EZIPEK_clean_linker_0, # of connection points: 2
#     Edge 22, Type (0, 1), BuildingBlock: EZIPEK_clean_linker_0, # of connection points: 2
#     Edge 23, Type (0, 1), BuildingBlock: EZIPEK_clean_linker_0, # of connection points: 2
#     Edge 24, Type (0, 1), BuildingBlock: EZIPEK_clean_linker_0, # of connection points: 2
#     Edge 25, Type (0, 1), BuildingBlock: EZIPEK_clean_linker_0, # of connection points: 2
#     Edge 26, Type (0, 1), BuildingBlock: EZIPEK_clean_linker_0, # of connection points: 2
#     Edge 27, Type (0, 1), BuildingBlock: EZIPEK_clean_linker_0, # of connection points: 2
#     Edge 28, Type (0, 1), BuildingBlock: EZIPEK_clean_linker_0, # of connection points: 2
#     Edge 29, Type (0, 1), BuildingBlock: EZIPEK_clean_linker_0, # of connection points: 2
#     Edge 30, Type (0, 1), BuildingBlock: EZIPEK_clean_linker_0, # of connection points: 2
#     Edge 31, Type (0, 1), BuildingBlock: EZIPEK_clean_linker_0, # of connection points: 2
#     Edge 32, Type (0, 1), BuildingBlock: EZIPEK_clean_linker_0, # of connection points: 2
#     Edge 33, Type (0, 1), BuildingBlock: EZIPEK_clean_linker_0, # of connection points: 2
#     Edge 34, Type (0, 1), BuildingBlock: EZIPEK_clean_linker_0, # of connection points: 2
#     Edge 35, Type (0, 1), BuildingBlock: EZIPEK_clean_linker_0, # of connection points: 2
# Relax obj value: 0.074
# Max RMSD: 0.087
# Mean RMSD: 0.082
data_MOF--net-cml--node1-OJICUG_clean_sbu_0--node2-MIDCAF_clean_linker_0--edge1-EZIPEK_clean_linker_0
_symmetry_space_group_name_H-M    P1
_symmetry_Int_Tables_number       1
_symmetry_cell_setting            triclinic
loop_
_symmetry_equiv_pos_as_xyz
'x, y, z'
_cell_length_a     36.981097
_cell_length_b     37.260076
_cell_length_c     35.220482
_cell_angle_alpha  90.058101
_cell_angle_beta   89.988088
_cell_angle_gamma 90.080462
loop_
_atom_site_label
_atom_site_type_symbol
_atom_site_fract_x
_atom_site_fract_y
_atom_site_fract_z
_atom_type_partial_charge
C0 C 0.32633 0.33235 0.11446 0.0
C1 C 0.34814 0.35275 0.13889 0.0
C2 C 0.34917 0.39016 0.13502 0.0
C3 C 0.32986 0.40694 0.10601 0.0
H4 H 0.21143 0.34407 0.01532 0.0
H5 H 0.16466 0.31393 0.97783 0.0
H6 H 0.18395 0.38661 0.8849 0.0
H7 H 0.23053 0.41734 0.92212 0.0
H8 H 0.27606 0.48602 0.936 0.0
H9 H 0.30918 0.53606 0.90763 0.0
H10 H 0.37581 0.54406 0.00763 0.0
H11 H 0.34309 0.49401 0.03645 0.0
H12 H 0.29086 0.33271 0.06639 0.0
H13 H 0.32548 0.30339 0.117 0.0
H14 H 0.36603 0.40623 0.15361 0.0
H15 H 0.33206 0.4358 0.10307 0.0
N16 N 0.26608 0.38694 0.02667 0.0
N17 N 0.26532 0.4344 0.98296 0.0
N18 N 0.30445 0.43648 0.03514 0.0
C19 C 0.25244 0.4021 0.99461 0.0
C20 C 0.29121 0.45186 0.0031 0.0
C21 C 0.29205 0.40408 0.04715 0.0
C22 C 0.22462 0.38325 0.97184 0.0
C23 C 0.20587 0.35365 0.9869 0.0
C24 C 0.17917 0.33639 0.96558 0.0
C25 C 0.17103 0.34821 0.9288 0.0
C26 C 0.18999 0.37727 0.91332 0.0
C27 C 0.21646 0.3948 0.93474 0.0
C28 C 0.30727 0.48554 0.98833 0.0
C29 C 0.29727 0.49877 0.95239 0.0
C30 C 0.31601 0.52747 0.93611 0.0
C31 C 0.34483 0.54351 0.9556 0.0
C32 C 0.35349 0.53194 0.99233 0.0
C33 C 0.33485 0.50321 0.00862 0.0
C34 C 0.30894 0.3866 0.08048 0.0
C35 C 0.30662 0.34918 0.08561 0.0
C36 C 0.67287 0.66261 0.62001 0.0
C37 C 0.64861 0.64361 0.64309 0.0
C38 C 0.64491 0.60643 0.63844 0.0
C39 C 0.66424 0.58855 0.61013 0.0
H40 H 0.78675 0.64873 0.52341 0.0
H41 H 0.8335 0.67914 0.48619 0.0
H42 H 0.82012 0.60188 0.39612 0.0
H43 H 0.77362 0.57095 0.43303 0.0
H44 H 0.72407 0.50571 0.44402 0.0
H45 H 0.69054 0.45704 0.41355 0.0
H46 H 0.61725 0.45301 0.50856 0.0
H47 H 0.65034 0.50178 0.53945 0.0
H48 H 0.71041 0.66013 0.5738 0.0
H49 H 0.67581 0.69139 0.62314 0.0
H50 H 0.62615 0.59145 0.65598 0.0
H51 H 0.66009 0.55995 0.60664 0.0
N52 N 0.73294 0.60511 0.53444 0.0
N53 N 0.73383 0.55745 0.49094 0.0
N54 N 0.69225 0.55717 0.54106 0.0
C55 C 0.74743 0.58928 0.50315 0.0
C56 C 0.70635 0.54111 0.50974 0.0
C57 C 0.70541 0.58911 0.55365 0.0
C58 C 0.77641 0.60735 0.48128 0.0
C59 C 0.79376 0.63807 0.49576 0.0
C60 C 0.82048 0.65548 0.4746 0.0
C61 C 0.83013 0.64261 0.43858 0.0
C62 C 0.813 0.61203 0.42397 0.0
C63 C 0.78649 0.59442 0.4452 0.0
C64 C 0.6896 0.50811 0.49401 0.0
C65 C 0.70124 0.49413 0.45889 0.0
C66 C 0.68225 0.46621 0.44142 0.0
C67 C 0.65152 0.45167 0.45886 0.0
C68 C 0.64104 0.46397 0.49484 0.0
C69 C 0.65993 0.49195 0.51232 0.0
C70 C 0.68784 0.60754 0.58608 0.0
C71 C 0.69257 0.64466 0.59188 0.0
C72 C 0.63737 0.37438 0.11973 0.0
C73 C 0.65474 0.34515 0.13665 0.0
C74 C 0.68824 0.33361 0.12254 0.0
C75 C 0.70382 0.35083 0.09117 0.0
H76 H 0.75963 0.40746 0.91446 0.0
H77 H 0.80782 0.37807 0.87853 0.0
H78 H 0.84606 0.3275 0.98093 0.0
H79 H 0.79727 0.35607 0.01716 0.0
H80 H 0.72644 0.5007 0.95636 0.0
H81 H 0.69367 0.55172 0.92872 0.0
H82 H 0.59239 0.50385 0.96261 0.0
H83 H 0.62496 0.45392 0.9918 0.0
H84 H 0.63842 0.41396 0.07614 0.0
H85 H 0.61149 0.38359 0.13038 0.0
H86 H 0.70195 0.31102 0.13542 0.0
H87 H 0.72948 0.34115 0.0805 0.0
N88 N 0.73129 0.38438 0.02192 0.0
N89 N 0.72714 0.42939 0.97548 0.0
N90 N 0.68455 0.42676 0.02459 0.0
C91 C 0.74414 0.40008 0.98973 0.0
C92 C 0.69743 0.44287 0.99285 0.0
C93 C 0.70144 0.39769 0.03957 0.0
C94 C 0.77469 0.38406 0.9687 0.0
C95 C 0.77847 0.39036 0.92949 0.0
C96 C 0.80588 0.37361 0.90886 0.0
C97 C 0.83045 0.35094 0.92722 0.0
C98 C 0.82734 0.34515 0.96645 0.0
C99 C 0.79947 0.36136 0.98702 0.0
C100 C 0.67813 0.47358 0.97625 0.0
C101 C 0.69719 0.50125 0.95794 0.0
C102 C 0.67859 0.53027 0.94217 0.0
C103 C 0.64066 0.53132 0.94339 0.0
C104 C 0.62167 0.50345 0.96134 0.0
C105 C 0.64026 0.47507 0.97808 0.0
C106 C 0.68615 0.37995 0.07371 0.0
C107 C 0.6529 0.39168 0.08868 0.0
C108 C 0.36415 0.62566 0.61873 0.0
C109 C 0.3457 0.65357 0.63697 0.0
C110 C 0.31158 0.66409 0.62376 0.0
C111 C 0.29627 0.64705 0.59217 0.0
H112 H 0.21248 0.65418 0.51516 0.0
H113 H 0.16231 0.68201 0.48098 0.0
H114 H 0.17524 0.60624 0.3895 0.0
H115 H 0.22541 0.57791 0.4233 0.0
H116 H 0.27231 0.49783 0.45738 0.0
H117 H 0.30443 0.44661 0.42919 0.0
H118 H 0.40646 0.49471 0.46014 0.0
H119 H 0.37458 0.54488 0.48985 0.0
H120 H 0.36402 0.58719 0.57385 0.0
H121 H 0.39055 0.61729 0.62868 0.0
H122 H 0.29706 0.68565 0.63766 0.0
H123 H 0.26998 0.65583 0.58237 0.0
N124 N 0.26876 0.61417 0.52302 0.0
N125 N 0.2716 0.56891 0.47675 0.0
N126 N 0.31595 0.57229 0.52415 0.0
C127 C 0.25486 0.5982 0.49148 0.0
C128 C 0.30212 0.55587 0.49296 0.0
C129 C 0.29924 0.60126 0.53962 0.0
C130 C 0.22311 0.61383 0.47198 0.0
C131 C 0.20465 0.64323 0.48788 0.0
C132 C 0.17602 0.65921 0.46844 0.0
C133 C 0.16547 0.64617 0.43281 0.0
C134 C 0.18328 0.61659 0.41699 0.0
C135 C 0.21184 0.60046 0.43645 0.0
C136 C 0.32106 0.52512 0.47584 0.0
C137 C 0.30159 0.49732 0.45818 0.0
C138 C 0.31982 0.46817 0.44208 0.0
C139 C 0.35777 0.4671 0.44235 0.0
C140 C 0.37716 0.49512 0.4596 0.0
C141 C 0.35896 0.52364 0.47665 0.0
C142 C 0.31483 0.6191 0.57353 0.0
C143 C 0.34887 0.60851 0.5874 0.0
C144 C 0.85381 0.87996 0.12922 0.0
C145 C 0.84295 0.84521 0.1392 0.0
C146 C 0.81399 0.82902 0.12001 0.0
C147 C 0.79653 0.84728 0.09052 0.0
H148 H 0.70641 0.84579 0.01928 0.0
H149 H 0.65913 0.81596 0.98237 0.0
H150 H 0.67419 0.89187 0.89148 0.0
H151 H 0.72134 0.92227 0.92812 0.0
H152 H 0.76152 0.00785 0.97163 0.0
H153 H 0.79284 0.06061 0.94534 0.0
H154 H 0.89568 0.0115 0.97047 0.0
H155 H 0.86469 0.96002 0.9985 0.0
H156 H 0.84603 0.92477 0.09254 0.0
H157 H 0.87622 0.89275 0.14375 0.0
H158 H 0.80548 0.80207 0.12733 0.0
H159 H 0.77466 0.83394 0.07568 0.0
N160 N 0.76226 0.88658 0.02879 0.0
N161 N 0.76326 0.9341 0.98506 0.0
N162 N 0.80672 0.9312 0.03336 0.0
C163 C 0.74798 0.90319 0.99785 0.0
C164 C 0.7926 0.94818 0.00273 0.0
C165 C 0.79152 0.90058 0.04686 0.0
C166 C 0.71775 0.88644 0.97669 0.0
C167 C 0.69959 0.85638 0.99157 0.0
C168 C 0.67258 0.83928 0.97058 0.0
C169 C 0.66338 0.8518 0.93434 0.0
C170 C 0.68101 0.88198 0.91949 0.0
C171 C 0.70786 0.8993 0.94056 0.0
C172 C 0.81079 0.98008 0.98713 0.0
C173 C 0.7908 0.00857 0.97163 0.0
C174 C 0.80858 0.03856 0.95661 0.0
C175 C 0.84654 0.03973 0.9556 0.0
C176 C 0.86638 0.01108 0.97089 0.0
C177 C 0.84868 0.98177 0.98697 0.0
C178 C 0.808 0.88189 0.07972 0.0
C179 C 0.83654 0.89814 0.09982 0.0
C180 C 0.1266 0.14192 0.59666 0.0
C181 C 0.14464 0.14602 0.63147 0.0
C182 C 0.18168 0.1379 0.63375 0.0
C183 C 0.20006 0.1247 0.60187 0.0
H184 H 0.28501 0.15375 0.51091 0.0
H185 H 0.33384 0.18292 0.47573 0.0
H186 H 0.31919 0.10853 0.38323 0.0
H187 H 0.27041 0.07882 0.41813 0.0
H188 H 0.209 0.01974 0.42246 0.0
H189 H 0.17506 0.96926 0.39539 0.0
H190 H 0.11153 0.9619 0.49767 0.0
H191 H 0.14489 0.01222 0.52498 0.0
H192 H 0.12974 0.1233 0.53921 0.0
H193 H 0.09803 0.148 0.59435 0.0
H194 H 0.19597 0.14066 0.66044 0.0
H195 H 0.22835 0.11756 0.60431 0.0
N196 N 0.22843 0.11373 0.51889 0.0
N197 N 0.22685 0.06713 0.47389 0.0
N198 N 0.183 0.06983 0.52177 0.0
C199 C 0.24265 0.09749 0.48764 0.0
C200 C 0.19723 0.05292 0.49109 0.0
C201 C 0.19853 0.09999 0.53586 0.0
C202 C 0.27367 0.11392 0.46738 0.0
C203 C 0.29221 0.14336 0.4832 0.0
C204 C 0.32013 0.16008 0.4632 0.0
C205 C 0.32995 0.1478 0.42701 0.0
C206 C 0.31193 0.11824 0.41121 0.0
C207 C 0.28412 0.10132 0.43129 0.0
C208 C 0.1794 0.02035 0.47574 0.0
C209 C 0.18816 0.0071 0.43944 0.0
C210 C 0.16892 0.97822 0.42394 0.0
C211 C 0.14094 0.96201 0.44464 0.0
C212 C 0.13316 0.97411 0.48141 0.0
C213 C 0.15215 0.00303 0.49681 0.0
C214 C 0.18128 0.11857 0.56785 0.0
C215 C 0.14462 0.12776 0.5653 0.0
C216 C 0.12898 0.87516 0.12291 0.0
C217 C 0.14586 0.84677 0.14185 0.0
C218 C 0.18034 0.8355 0.13033 0.0
C219 C 0.19753 0.85229 0.09965 0.0
H220 H 0.28273 0.84211 0.02217 0.0
H221 H 0.33204 0.81317 0.9874 0.0
H222 H 0.32375 0.89258 0.89901 0.0
H223 H 0.27461 0.922 0.93338 0.0
H224 H 0.23031 0.0017 0.96554 0.0
H225 H 0.2003 0.05479 0.93869 0.0
H226 H 0.09688 0.01319 0.97451 0.0
H227 H 0.12661 0.96117 0.00262 0.0
H228 H 0.13212 0.91381 0.07851 0.0
H229 H 0.10236 0.88413 0.13156 0.0
H230 H 0.19368 0.81358 0.14482 0.0
H231 H 0.22405 0.843 0.09111 0.0
N232 N 0.22813 0.88471 0.03107 0.0
N233 N 0.22827 0.93143 0.98634 0.0
N234 N 0.18316 0.9289 0.0329 0.0
C235 C 0.24333 0.90092 0.0003 0.0
C236 C 0.1982 0.9455 0.00254 0.0
C237 C 0.19804 0.89869 0.04759 0.0
C238 C 0.27457 0.88439 0.9806 0.0
C239 C 0.29143 0.85362 0.99546 0.0
C240 C 0.31957 0.83701 0.97568 0.0
C241 C 0.33118 0.85078 0.94074 0.0
C242 C 0.31492 0.88166 0.92597 0.0
C243 C 0.28692 0.89841 0.94577 0.0
C244 C 0.18073 0.97745 0.98618 0.0
C245 C 0.20119 0.00403 0.96767 0.0
C246 C 0.18416 0.03424 0.95236 0.0
C247 C 0.1464 0.03761 0.95433 0.0
C248 C 0.12604 0.01096 0.97261 0.0
C249 C 0.14306 0.98135 0.98874 0.0
C250 C 0.18055 0.88078 0.0804 0.0
C251 C 0.14614 0.89208 0.0926 0.0
C252 C 0.86301 0.10876 0.62306 0.0
C253 C 0.85345 0.14316 0.63546 0.0
C254 C 0.82561 0.16175 0.61697 0.0
C255 C 0.80797 0.14624 0.5858 0.0
H256 H 0.72084 0.1572 0.51093 0.0
H257 H 0.67096 0.18658 0.47763 0.0
H258 H 0.68006 0.11048 0.38596 0.0
H259 H 0.72984 0.0806 0.41887 0.0
H260 H 0.77963 0.01237 0.4286 0.0
H261 H 0.80428 0.95746 0.40475 0.0
H262 H 0.87958 0.95528 0.49888 0.0
H263 H 0.85487 0.00986 0.52208 0.0
H264 H 0.85398 0.0668 0.58301 0.0
H265 H 0.88454 0.09414 0.63703 0.0
H266 H 0.8181 0.18846 0.62619 0.0
H267 H 0.78698 0.16139 0.57163 0.0
N268 N 0.77385 0.11279 0.51984 0.0
N269 N 0.77235 0.0665 0.47452 0.0
N270 N 0.81384 0.06433 0.52458 0.0
C271 C 0.75925 0.09817 0.48787 0.0
C272 C 0.79965 0.04941 0.49275 0.0
C273 C 0.80122 0.09594 0.53837 0.0
C274 C 0.72937 0.11645 0.46766 0.0
C275 C 0.71238 0.14667 0.48367 0.0
C276 C 0.68388 0.16349 0.46477 0.0
C277 C 0.67206 0.15055 0.42952 0.0
C278 C 0.68898 0.1207 0.41321 0.0
C279 C 0.71735 0.1037 0.43215 0.0
C280 C 0.81403 0.0149 0.4783 0.0
C281 C 0.80049 -0.00084 0.44501 0.0
C282 C 0.81421 0.96642 0.43187 0.0
C283 C 0.84081 0.94732 0.45255 0.0
C284 C 0.85609 0.9653 0.48418 0.0
C285 C 0.84248 -0.00214 0.49725 0.0
C286 C 0.81807 0.11196 0.57267 0.0
C287 C 0.84551 0.09327 0.59205 0.0
Sc288 Sc 0.99479 0.74861 0.30043 0.0
Sc289 Sc 0.99077 0.84257 0.31097 0.0
Sc290 Sc 0.99513 0.78742 0.39137 0.0
O291 O 0.99363 0.79289 0.33423 0.0
C292 C 0.94253 0.72359 0.36563 0.0
C293 C 0.93943 0.79968 0.25588 0.0
C294 C 0.9379 0.84962 0.38254 0.0
C295 C 0.04684 0.80111 0.25651 0.0
C296 C 0.04975 0.72745 0.36701 0.0
C297 C 0.04463 0.85694 0.37874 0.0
O298 O 0.95044 0.72432 0.33053 0.0
O299 O 0.94692 0.82781 0.27455 0.0
O300 O 0.94918 0.82137 0.39871 0.0
O301 O 0.03937 0.76966 0.26809 0.0
O302 O 0.0409 0.7527 0.38924 0.0
O303 O 0.03411 0.86295 0.34507 0.0
O304 O 0.03388 0.72104 0.3357 0.0
O305 O 0.03021 0.82911 0.2678 0.0
O306 O 0.03196 0.83194 0.39939 0.0
O307 O 0.95592 0.77001 0.26024 0.0
O308 O 0.9582 0.74269 0.39061 0.0
O309 O 0.95134 0.86175 0.35183 0.0
Sc310 Sc 0.00068 0.24035 0.79841 0.0
Sc311 Sc 0.99744 0.14737 0.81815 0.0
Sc312 Sc -0.00195 0.20924 0.8931 0.0
O313 O -0.00138 0.19904 0.83644 0.0
C314 C 0.05417 0.26768 0.86305 0.0
C315 C 0.0521 0.18214 0.75887 0.0
C316 C 0.05061 0.14215 0.88954 0.0
C317 C 0.94621 0.1869 0.75773 0.0
C318 C 0.94601 0.26976 0.86168 0.0
C319 C 0.94316 0.14279 0.88774 0.0
O320 O 0.04455 0.26656 0.82838 0.0
O321 O 0.04119 0.15616 0.77922 0.0
O322 O 0.04109 0.17184 0.9041 0.0
O323 O 0.95768 0.21847 0.76426 0.0
O324 O 0.95582 0.24794 0.88729 0.0
O325 O 0.95408 0.13222 0.85542 0.0
O326 O 0.96028 0.27112 0.82883 0.0
O327 O 0.95817 0.15909 0.77446 0.0
O328 O 0.95649 0.16993 0.90458 0.0
O329 O 0.03983 0.21392 0.76211 0.0
O330 O 0.03897 0.2497 0.88909 0.0
O331 O 0.03638 0.12958 0.85946 0.0
Sc332 Sc 0.50157 0.25212 0.2965 0.0
Sc333 Sc 0.50479 0.34619 0.30725 0.0
Sc334 Sc 0.49917 0.29111 0.38771 0.0
O335 O 0.50182 0.29642 0.33044 0.0
C336 C 0.44543 0.22924 0.35986 0.0
C337 C 0.45058 0.30706 0.25126 0.0
C338 C 0.44922 0.35841 0.37591 0.0
C339 C 0.55801 0.30131 0.25326 0.0
C340 C 0.55321 0.22904 0.36517 0.0
C341 C 0.55516 0.35615 0.37852 0.0
O342 O 0.45612 0.22853 0.3256 0.0
O343 O 0.46146 0.33493 0.26862 0.0
O344 O 0.45559 0.32883 0.39247 0.0
O345 O 0.5472 0.27052 0.26375 0.0
O346 O 0.54251 0.25317 0.38798 0.0
O347 O 0.54821 0.36247 0.34387 0.0
O348 O 0.53979 0.22402 0.3323 0.0
O349 O 0.54437 0.33038 0.26556 0.0
O350 O 0.53849 0.3328 0.39814 0.0
O351 O 0.46345 0.27579 0.25684 0.0
O352 O 0.45939 0.24911 0.3852 0.0
O353 O 0.46592 0.36867 0.34627 0.0
Sc354 Sc 0.49531 0.74652 0.80017 0.0
Sc355 Sc 0.49271 0.65237 0.80936 0.0
Sc356 Sc 0.49794 0.70633 0.89065 0.0
O357 O 0.4953 0.70181 0.83335 0.0
C358 C 0.55132 0.7688 0.86364 0.0
C359 C 0.54665 0.69229 0.75408 0.0
C360 C 0.54807 0.63944 0.87794 0.0
C361 C 0.43947 0.69772 0.75598 0.0
C362 C 0.44421 0.76893 0.86974 0.0
C363 C 0.44203 0.64137 0.88003 0.0
O364 O 0.54089 0.76965 0.82932 0.0
O365 O 0.5364 0.66427 0.77152 0.0
O366 O 0.54185 0.66899 0.89465 0.0
O367 O 0.44946 0.72845 0.76758 0.0
O368 O 0.45453 0.74408 0.89181 0.0
O369 O 0.44895 0.63572 0.84523 0.0
O370 O 0.4576 0.77444 0.83694 0.0
O371 O 0.45367 0.66864 0.76743 0.0
O372 O 0.45885 0.6642 0.90026 0.0
O373 O 0.5332 0.72333 0.75978 0.0
O374 O 0.53731 0.74871 0.88873 0.0
O375 O 0.53117 0.6293 0.84837 0.0
C376 C 0.10609 0.34378 0.90981 0.0
C377 C 0.14183 0.33038 0.90701 0.0
C378 C 0.12057 0.27969 0.86842 0.0
C379 C 0.08446 0.29116 0.87461 0.0
N380 N 0.04195 0.33182 0.90367 0.0
N381 N 0.1842 0.28615 0.88458 0.0
C382 C 0.07698 0.32278 0.8957 0.0
C383 C 0.14946 0.29868 0.88614 0.0
N384 N 0.10007 0.37668 0.92589 0.0
N385 N 0.12702 0.25023 0.84625 0.0
H386 H 0.2061 0.3002 0.89595 0.0
H387 H 0.19147 0.26131 0.87352 0.0
H388 H 0.10637 0.23426 0.83522 0.0
H389 H 0.15257 0.24234 0.83716 0.0
H390 H 0.07528 0.38983 0.92507 0.0
H391 H 0.12062 0.39232 0.93766 0.0
H392 H 0.03456 0.35197 0.92262 0.0
H393 H 0.0199 0.31749 0.8932 0.0
C394 C 0.89287 0.64649 0.41147 0.0
C395 C 0.85793 0.66168 0.41593 0.0
C396 C 0.8777 0.71652 0.38369 0.0
C397 C 0.91228 0.70091 0.37847 0.0
N398 N 0.95073 0.64886 0.37904 0.0
N399 N 0.81449 0.70721 0.39916 0.0
C400 C 0.91916 0.66508 0.3896 0.0
C401 C 0.84953 0.69555 0.39981 0.0
N402 N 0.90145 0.61524 0.42966 0.0
N403 N 0.87212 0.75167 0.37419 0.0
H404 H 0.79313 0.69239 0.41053 0.0
H405 H 0.80606 0.72997 0.38452 0.0
H406 H 0.89167 0.76737 0.36072 0.0
H407 H 0.84895 0.76592 0.38154 0.0
H408 H 0.92758 0.60495 0.43097 0.0
H409 H 0.88299 0.60086 0.44609 0.0
H410 H 0.95601 0.62171 0.38324 0.0
H411 H 0.9704 0.66187 0.36286 0.0
C412 C 0.89037 0.34985 0.89361 0.0
C413 C 0.85841 0.33163 0.90507 0.0
C414 C 0.88078 0.27562 0.87718 0.0
C415 C 0.91446 0.29262 0.87035 0.0
N416 N 0.95152 0.34573 0.86858 0.0
N417 N 0.82181 0.27801 0.90725 0.0
C418 C 0.91911 0.3299 0.87692 0.0
C419 C 0.85308 0.29478 0.89635 0.0
N420 N 0.89315 0.38613 0.89894 0.0
N421 N 0.87528 0.24133 0.86441 0.0
H422 H 0.79993 0.29165 0.9191 0.0
H423 H 0.81785 0.25039 0.90612 0.0
H424 H 0.89507 0.2269 0.84981 0.0
H425 H 0.85052 0.22809 0.86528 0.0
H426 H 0.91398 0.40188 0.88815 0.0
H427 H 0.87346 0.40124 0.91283 0.0
H428 H 0.95879 0.37156 0.87678 0.0
H429 H 0.9719 0.33251 0.85372 0.0
C430 C 0.14369 0.69155 0.38561 0.0
C431 C 0.1357 0.66394 0.41207 0.0
C432 C 0.07096 0.67616 0.40653 0.0
C433 C 0.07887 0.70337 0.37961 0.0
N434 N 0.12113 0.73345 0.33841 0.0
N435 N 0.09249 0.62483 0.44226 0.0
C436 C 0.1148 0.70983 0.36738 0.0
C437 C 0.09949 0.65459 0.42076 0.0
N438 N 0.17886 0.70118 0.37914 0.0
N439 N 0.03633 0.67186 0.41944 0.0
H440 H 0.11286 0.60873 0.45359 0.0
H441 H 0.06669 0.61435 0.44639 0.0
H442 H 0.01455 0.68652 0.40889 0.0
H443 H 0.02937 0.65545 0.44219 0.0
H444 H 0.18651 0.72371 0.36364 0.0
H445 H 0.20074 0.68774 0.39123 0.0
H446 H 0.14623 0.73689 0.32556 0.0
H447 H 0.10056 0.74793 0.32517 0.0
C448 C 0.60077 0.84733 0.9071 0.0
C449 C 0.63582 0.83247 0.91165 0.0
C450 C 0.61633 0.77685 0.88065 0.0
C451 C 0.58154 0.79199 0.87554 0.0
N452 N 0.54255 0.84374 0.87559 0.0
N453 N 0.67957 0.78705 0.89537 0.0
C454 C 0.57444 0.82804 0.88595 0.0
C455 C 0.64442 0.79839 0.89608 0.0
N456 N 0.59212 0.87894 0.92462 0.0
N457 N 0.6222 0.74161 0.87164 0.0
H458 H 0.70085 0.80233 0.90625 0.0
H459 H 0.68813 0.76409 0.88113 0.0
H460 H 0.60268 0.72552 0.85862 0.0
H461 H 0.6456 0.72773 0.87891 0.0
H462 H 0.56593 0.88906 0.92603 0.0
H463 H 0.61067 0.89391 0.94037 0.0
H464 H 0.53713 0.87095 0.87915 0.0
H465 H 0.52259 0.83018 0.86031 0.0
C466 C 0.35102 0.20114 0.38987 0.0
C467 C 0.35854 0.1668 0.40536 0.0
C468 C 0.42077 0.17036 0.38167 0.0
C469 C 0.41458 0.20654 0.37122 0.0
N470 N 0.37492 0.25766 0.36665 0.0
N471 N 0.40098 0.11946 0.41918 0.0
C472 C 0.37992 0.22227 0.37547 0.0
C473 C 0.39346 0.15138 0.40178 0.0
N474 N 0.31612 0.21313 0.38825 0.0
N475 N 0.45274 0.15423 0.37234 0.0
H476 H 0.38167 0.10469 0.43408 0.0
H477 H 0.42692 0.10883 0.42132 0.0
H478 H 0.47338 0.16757 0.35787 0.0
H479 H 0.45766 0.12694 0.3759 0.0
H480 H 0.30837 0.23631 0.37394 0.0
H481 H 0.29427 0.19821 0.39839 0.0
H482 H 0.35158 0.2719 0.37337 0.0
H483 H 0.39508 0.27353 0.35446 0.0
C484 C 0.35124 0.80565 0.8923 0.0
C485 C 0.36029 0.83243 0.91941 0.0
C486 C 0.42472 0.8194 0.91162 0.0
C487 C 0.41575 0.79311 0.88398 0.0
N488 N 0.37191 0.76445 0.84338 0.0
N489 N 0.40485 0.86974 0.95006 0.0
C490 C 0.37939 0.7874 0.87271 0.0
C491 C 0.39686 0.84088 0.92752 0.0
N492 N 0.31576 0.79682 0.88643 0.0
N493 N 0.45977 0.823 0.92347 0.0
H494 H 0.38503 0.88561 0.9628 0.0
H495 H 0.43088 0.87974 0.95389 0.0
H496 H 0.48111 0.80864 0.9115 0.0
H497 H 0.46761 0.83857 0.9466 0.0
H498 H 0.30732 0.77486 0.87045 0.0
H499 H 0.2944 0.81032 0.89948 0.0
H500 H 0.34644 0.76167 0.83116 0.0
H501 H 0.39182 0.74978 0.82927 0.0
C502 C 0.64851 0.19661 0.38401 0.0
C503 C 0.64153 0.16828 0.40991 0.0
C504 C 0.57629 0.17821 0.4044 0.0
C505 C 0.58321 0.206 0.37787 0.0
N506 N 0.62457 0.2387 0.33779 0.0
N507 N 0.59971 0.12756 0.43994 0.0
C508 C 0.61897 0.21415 0.36607 0.0
C509 C 0.60563 0.15763 0.41857 0.0
N510 N 0.68334 0.2075 0.3777 0.0
N511 N 0.54175 0.17229 0.41685 0.0
H512 H 0.62061 0.11229 0.45148 0.0
H513 H 0.57433 0.11609 0.44398 0.0
H514 H 0.51943 0.18598 0.40606 0.0
H515 H 0.53526 0.1554 0.43937 0.0
H516 H 0.69024 0.23055 0.36269 0.0
H517 H 0.70567 0.19455 0.38946 0.0
H518 H 0.64955 0.24334 0.32512 0.0
H519 H 0.60362 0.25294 0.32494 0.0
C520 C 0.35893 0.60548 0.93124 0.0
C521 C 0.36903 0.569 0.93569 0.0
C522 C 0.42778 0.58109 0.90644 0.0
C523 C 0.41663 0.61682 0.89914 0.0
N524 N 0.3706 0.66248 0.89997 0.0
N525 N 0.40985 0.52028 0.92134 0.0
C526 C 0.38188 0.62894 0.91028 0.0
C527 C 0.40255 0.55628 0.9215 0.0
N528 N 0.32793 0.61778 0.94787 0.0
N529 N 0.46293 0.57119 0.90034 0.0
H530 H 0.39213 0.50105 0.93219 0.0
H531 H 0.43201 0.50913 0.90744 0.0
H532 H 0.4824 0.58854 0.88931 0.0
H533 H 0.47364 0.54681 0.90937 0.0
H534 H 0.32085 0.64479 0.94907 0.0
H535 H 0.31035 0.60112 0.96293 0.0
H536 H 0.34429 0.67169 0.90377 0.0
H537 H 0.387 0.68038 0.88501 0.0
C538 C 0.63694 0.3901 0.43347 0.0
C539 C 0.62767 0.42686 0.43747 0.0
C540 C 0.57013 0.41635 0.40506 0.0
C541 C 0.58058 0.38029 0.39831 0.0
N542 N 0.62541 0.33353 0.40119 0.0
N543 N 0.58917 0.47668 0.42069 0.0
C544 C 0.61445 0.36728 0.41116 0.0
C545 C 0.59534 0.44049 0.42138 0.0
N546 N 0.66663 0.3769 0.45182 0.0
N547 N 0.53556 0.4272 0.39742 0.0
H548 H 0.60697 0.49544 0.43233 0.0
H549 H 0.56806 0.48838 0.40556 0.0
H550 H 0.51602 0.41035 0.38563 0.0
H551 H 0.52521 0.45191 0.40594 0.0
H552 H 0.67281 0.34969 0.45334 0.0
H553 H 0.68385 0.39302 0.46798 0.0
H554 H 0.65127 0.32368 0.40633 0.0
H555 H 0.60941 0.31616 0.38507 0.0
C556 C 0.59788 0.58277 0.95074 0.0
C557 C 0.62033 0.56185 0.9268 0.0
C558 C 0.60121 0.59787 0.87229 0.0
C559 C 0.57434 0.61433 0.89519 0.0
N560 N 0.54202 0.6157 0.95508 0.0
N561 N 0.63904 0.54569 0.86325 0.0
C562 C 0.57136 0.60519 0.93423 0.0
C563 C 0.62105 0.56844 0.8871 0.0
N564 N 0.60211 0.58152 0.98926 0.0
N565 N 0.60839 0.61081 0.83679 0.0
H566 H 0.65305 0.52315 0.8727 0.0
H567 H 0.63719 0.54731 0.83378 0.0
H568 H 0.59508 0.63299 0.82544 0.0
H569 H 0.63003 0.60191 0.82035 0.0
H570 H 0.58852 0.59876 0.00769 0.0
H571 H 0.62199 0.56604 0.00238 0.0
H572 H 0.53718 0.60654 0.98258 0.0
H573 H 0.52041 0.63006 0.94378 0.0
C574 C 0.40055 0.4156 0.44927 0.0
C575 C 0.37771 0.43633 0.42561 0.0
C576 C 0.39586 0.39977 0.37102 0.0
C577 C 0.42311 0.38351 0.39353 0.0
N578 N 0.45638 0.38255 0.45283 0.0
N579 N 0.35777 0.45182 0.36232 0.0
C580 C 0.42674 0.39296 0.43244 0.0
C581 C 0.37625 0.42933 0.38599 0.0
N582 N 0.397 0.41724 0.48785 0.0
N583 N 0.38816 0.38654 0.33574 0.0
H584 H 0.34387 0.4744 0.37188 0.0
H585 H 0.35907 0.44992 0.33284 0.0
H586 H 0.40132 0.36428 0.3243 0.0
H587 H 0.36626 0.39529 0.3196 0.0
H588 H 0.41088 0.40016 0.50618 0.0
H589 H 0.37739 0.4329 0.50123 0.0
H590 H 0.46173 0.39194 0.48014 0.0
H591 H 0.47774 0.36796 0.44126 0.0
C592 C 0.86377 0.07949 0.90024 0.0
C593 C 0.8663 0.07095 0.93941 0.0
C594 C 0.91842 0.11084 0.94573 0.0
C595 C 0.91464 0.12124 0.90705 0.0
N596 N 0.87603 0.12387 0.85186 0.0
N597 N 0.88816 0.08769 0.00144 0.0
C598 C 0.88478 0.10827 0.88568 0.0
C599 C 0.89092 0.08989 0.96283 0.0
N600 N 0.84304 0.05911 0.87641 0.0
N601 N 0.94932 0.11823 0.96551 0.0
H602 H 0.86776 0.07306 0.01488 0.0
H603 H 0.90358 0.10349 0.01977 0.0
H604 H 0.97161 0.13099 0.95369 0.0
H605 H 0.95441 0.10793 0.99249 0.0
H606 H 0.84343 0.06219 0.847 0.0
H607 H 0.82807 0.03702 0.88548 0.0
H608 H 0.85272 0.11735 0.83668 0.0
H609 H 0.88981 0.14618 0.84139 0.0
C610 C 0.08197 0.94513 0.41503 0.0
C611 C 0.11716 0.9348 0.42666 0.0
C612 C 0.10588 0.8734 0.40429 0.0
C613 C 0.06967 0.88314 0.39601 0.0
N614 N 0.02103 0.92611 0.40022 0.0
N615 N 0.16162 0.88859 0.43705 0.0
C616 C 0.05709 0.91843 0.40323 0.0
C617 C 0.12893 0.89875 0.42255 0.0
N618 N 0.07267 0.98064 0.41418 0.0
N619 N 0.11844 0.84038 0.3937 0.0
H620 H 0.17931 0.90659 0.45014 0.0
H621 H 0.17013 0.86201 0.43858 0.0
H622 H 0.10211 0.82111 0.38066 0.0
H623 H 0.14554 0.83299 0.39523 0.0
H624 H 0.04882 0.99004 0.40203 0.0
H625 H 0.09021 0.00117 0.42242 0.0
H626 H 0.00973 0.95024 0.40927 0.0
H627 H 0.00173 0.9072 0.39202 0.0
C628 C 0.10728 0.09158 0.96288 0.0
C629 C 0.1275 0.06925 0.93824 0.0
C630 C 0.10632 0.10446 0.88417 0.0
C631 C 0.07991 0.12092 0.90772 0.0
N632 N 0.05329 0.12686 0.97054 0.0
N633 N 0.14342 0.052 0.87418 0.0
C634 C 0.0801 0.11411 0.94752 0.0
C635 C 0.12663 0.0752 0.8985 0.0
N636 N 0.11414 0.0913 0.00101 0.0
N637 N 0.11259 0.11729 0.84843 0.0
H638 H 0.15793 0.02965 0.88328 0.0
H639 H 0.14018 0.05321 0.84481 0.0
H640 H 0.0996 0.14 0.83778 0.0
H641 H 0.13361 0.10806 0.83131 0.0
H642 H 0.10254 0.10952 0.01988 0.0
H643 H 0.13435 0.07544 0.01305 0.0
H644 H 0.05018 0.11874 0.99866 0.0
H645 H 0.03223 0.14299 0.96122 0.0
C646 C 0.84811 0.89632 0.40334 0.0
C647 C 0.8564 0.91169 0.43914 0.0
C648 C 0.91284 0.87844 0.44108 0.0
C649 C 0.90889 0.86994 0.40194 0.0
N650 N 0.8703 0.867 0.34649 0.0
N651 N 0.87963 0.89011 0.49859 0.0
C652 C 0.87572 0.87768 0.38315 0.0
C653 C 0.88365 0.89446 0.4604 0.0
N654 N 0.81288 0.89367 0.39229 0.0
N655 N 0.94493 0.87343 0.45952 0.0
H656 H 0.85609 0.89833 0.51251 0.0
H657 H 0.89743 0.87488 0.51493 0.0
H658 H 0.96829 0.86425 0.4461 0.0
H659 H 0.94913 0.88216 0.48733 0.0
H660 H 0.80449 0.87999 0.36803 0.0
H661 H 0.79187 0.90053 0.41074 0.0
H662 H 0.84838 0.87558 0.33029 0.0
H663 H 0.8885 0.85083 0.33176 0.0
C664 C 0.40963 0.32984 0.15574 0.0
C665 C 0.37293 0.33509 0.16623 0.0
C666 C 0.38619 0.31644 0.23154 0.0
C667 C 0.42307 0.31227 0.22131 0.0
N668 N 0.46966 0.30959 0.17363 0.0
N669 N 0.32443 0.32807 0.2112 0.0
C670 C 0.43462 0.31706 0.18324 0.0
C671 C 0.3606 0.32655 0.20328 0.0
N672 N 0.4207 0.33845 0.11978 0.0
N673 N 0.37606 0.31174 0.26856 0.0
H674 H 0.30523 0.33611 0.19126 0.0
H675 H 0.31294 0.31934 0.23651 0.0
H676 H 0.39387 0.30255 0.28936 0.0
H677 H 0.35065 0.3181 0.27924 0.0
H678 H 0.44758 0.3395 0.1112 0.0
H679 H 0.40285 0.34606 0.09833 0.0
H680 H 0.47937 0.30886 0.14593 0.0
H681 H 0.48901 0.30201 0.19353 0.0
C682 C 0.63651 0.67 0.70751 0.0
C683 C 0.62449 0.66271 0.67004 0.0
C684 C 0.56366 0.68428 0.68596 0.0
C685 C 0.57457 0.68752 0.72442 0.0
N686 N 0.62066 0.68558 0.77256 0.0
N687 N 0.57791 0.66364 0.62221 0.0
C688 C 0.61099 0.68139 0.73533 0.0
C689 C 0.58851 0.67061 0.65873 0.0
N690 N 0.6723 0.66593 0.71627 0.0
N691 N 0.52936 0.69395 0.67575 0.0
H692 H 0.59584 0.65544 0.60106 0.0
H693 H 0.5513 0.66469 0.61276 0.0
H694 H 0.51014 0.70249 0.69536 0.0
H695 H 0.52022 0.69559 0.64789 0.0
H696 H 0.68379 0.6733 0.74206 0.0
H697 H 0.69138 0.65692 0.69664 0.0
H698 H 0.64552 0.67806 0.78378 0.0
H699 H 0.60302 0.69588 0.79296 0.0
C700 C 0.61093 0.29932 0.16041 0.0
C701 C 0.6366 0.3265 0.16858 0.0
C702 C 0.61844 0.32588 0.23541 0.0
C703 C 0.58822 0.30425 0.22567 0.0
N704 N 0.55569 0.26916 0.17894 0.0
N705 N 0.66614 0.36552 0.21345 0.0
C706 C 0.58487 0.28989 0.18839 0.0
C707 C 0.64114 0.33937 0.20615 0.0
N708 N 0.61144 0.28278 0.12574 0.0
N709 N 0.62558 0.33294 0.27277 0.0
H710 H 0.68424 0.37481 0.19295 0.0
H711 H 0.66781 0.37923 0.23917 0.0
H712 H 0.60983 0.32254 0.29479 0.0
H713 H 0.64885 0.34597 0.28214 0.0
H714 H 0.59595 0.26028 0.11914 0.0
H715 H 0.62985 0.28962 0.10449 0.0
H716 H 0.54906 0.26226 0.15115 0.0
H717 H 0.53668 0.26022 0.19855 0.0
C718 C 0.38791 0.70007 0.66246 0.0
C719 C 0.36312 0.67186 0.66956 0.0
C720 C 0.38004 0.67196 0.73671 0.0
C721 C 0.40964 0.69476 0.728 0.0
N722 N 0.44168 0.73184 0.68271 0.0
N723 N 0.33428 0.63098 0.71302 0.0
C724 C 0.41312 0.70992 0.69112 0.0
C725 C 0.35839 0.65817 0.70674 0.0
N726 N 0.38736 0.71724 0.62817 0.0
N727 N 0.37253 0.66402 0.77378 0.0
H728 H 0.31698 0.62127 0.69197 0.0
H729 H 0.33266 0.61681 0.73843 0.0
H730 H 0.38751 0.67463 0.79628 0.0
H731 H 0.34959 0.65002 0.78245 0.0
H732 H 0.40214 0.74039 0.62236 0.0
H733 H 0.36954 0.71016 0.60644 0.0
H734 H 0.44854 0.73947 0.65521 0.0
H735 H 0.45994 0.74115 0.70291 0.0
C736 C 0.8986 0.81213 0.15792 0.0
C737 C 0.8641 0.82545 0.16815 0.0
C738 C 0.87586 0.81037 0.2347 0.0
C739 C 0.9124 0.80321 0.2252 0.0
N740 N 0.95991 0.80069 0.17825 0.0
N741 N 0.81937 0.83833 0.21601 0.0
C742 C 0.92407 0.80436 0.18683 0.0
C743 C 0.85231 0.8244 0.20646 0.0
N744 N 0.90702 0.80725 0.12048 0.0
N745 N 0.86383 0.80349 0.27066 0.0
H746 H 0.80112 0.84793 0.19586 0.0
H747 H 0.81094 0.84224 0.24391 0.0
H748 H 0.88059 0.79284 0.29165 0.0
H749 H 0.83681 0.80526 0.27874 0.0
H750 H 0.93047 0.79442 0.11133 0.0
H751 H 0.88887 0.81291 0.09861 0.0
H752 H 0.9706 0.80539 0.15135 0.0
H753 H 0.97958 0.79589 0.19875 0.0
C754 C 0.0953 0.1313 0.67728 0.0
C755 C 0.12333 0.15494 0.66603 0.0
C756 C 0.10807 0.19475 0.71922 0.0
C757 C 0.07689 0.17354 0.72684 0.0
N758 N 0.03586 0.1272 0.70461 0.0
N759 N 0.15313 0.21226 0.67271 0.0
C760 C 0.0691 0.1433 0.70355 0.0
C761 C 0.12893 0.18757 0.68604 0.0
N762 N 0.09397 0.09705 0.66342 0.0
N763 N 0.11851 0.22088 0.74412 0.0
H764 H 0.16864 0.20807 0.64837 0.0
H765 H 0.15552 0.23804 0.6839 0.0
H766 H 0.10433 0.22654 0.76894 0.0
H767 H 0.14299 0.2346 0.74193 0.0
H768 H 0.07585 0.07786 0.67356 0.0
H769 H 0.11345 0.0867 0.645 0.0
H770 H 0.02812 0.10727 0.68545 0.0
H771 H 0.01449 0.13655 0.72115 0.0
C772 C 0.10266 0.80021 0.16543 0.0
C773 C 0.12651 0.829 0.17354 0.0
C774 C 0.10549 0.83011 0.23944 0.0
C775 C 0.07718 0.80615 0.22947 0.0
N776 N 0.04871 0.76735 0.18316 0.0
N777 N 0.15157 0.87168 0.21774 0.0
C778 C 0.07613 0.79028 0.19274 0.0
C779 C 0.12853 0.84376 0.21058 0.0
N780 N 0.10538 0.78253 0.13151 0.0
N781 N 0.11074 0.83905 0.27672 0.0
H782 H 0.17001 0.88121 0.1977 0.0
H783 H 0.15117 0.88659 0.24275 0.0
H784 H 0.0949 0.82854 0.2986 0.0
H785 H 0.13277 0.85386 0.28641 0.0
H786 H 0.09144 0.75898 0.12522 0.0
H787 H 0.12406 0.7897 0.11065 0.0
H788 H 0.04354 0.75896 0.15549 0.0
H789 H 0.02965 0.75794 0.20248 0.0
C790 C 0.8618 0.15888 0.70438 0.0
C791 C 0.87459 0.16013 0.66643 0.0
C792 C 0.93328 0.18269 0.68816 0.0
C793 C 0.92045 0.18158 0.72613 0.0
N794 N 0.8706 0.17778 0.76975 0.0
N795 N 0.91868 0.1808 0.62105 0.0
C796 C 0.88402 0.1725 0.73405 0.0
C797 C 0.90915 0.17457 0.65798 0.0
N798 N 0.82906 0.14349 0.71216 0.0
N799 N 0.96892 0.18989 0.68104 0.0
H800 H 0.90166 0.17495 0.59824 0.0
H801 H 0.94197 0.19462 0.61312 0.0
H802 H 0.98728 0.19711 0.70217 0.0
H803 H 0.98097 0.1865 0.65456 0.0
H804 H 0.82005 0.13802 0.73956 0.0
H805 H 0.8117 0.13412 0.69101 0.0
H806 H 0.84344 0.17464 0.77682 0.0
H807 H 0.88621 0.18876 0.79153 0.0
loop_
_geom_bond_atom_site_label_1
_geom_bond_atom_site_label_2
_geom_bond_distance
_geom_bond_site_symmetry_2
_ccdc_geom_bond_type
C0 C1 1.384 . S
C0 H13 0.947 . S
C0 C35 1.382 . S
C1 C0 1.384 . S
C1 C2 1.378 . S
C2 C1 1.378 . S
C2 C3 1.378 . S
C2 H14 0.952 . S
C3 C2 1.378 . S
C3 H15 0.950 . S
C3 C34 1.383 . S
H4 C23 0.947 1_554 S
H5 C24 0.946 1_554 S
H6 C26 0.953 . S
H7 C27 0.945 . S
H8 C29 0.952 . S
H9 C30 0.949 . S
H10 C32 0.950 . S
H11 C33 0.948 1_554 S
H12 C35 0.951 . S
H13 C0 0.947 . S
H14 C2 0.952 . S
H15 C3 0.950 . S
N16 C19 1.382 1_554 S
N16 C21 1.363 . S
N17 C19 1.371 . S
N17 C20 1.372 . S
N18 C20 1.361 1_554 S
N18 C21 1.377 . S
C19 N16 1.382 1_556 S
C19 N17 1.371 . S
C19 C22 1.480 . S
C20 N17 1.372 . S
C20 N18 1.361 1_556 S
C20 C28 1.457 . S
C21 N16 1.363 . S
C21 N18 1.377 . S
C21 C34 1.479 . S
C22 C19 1.480 . S
C22 C23 1.383 . S
C22 C27 1.385 . S
C23 H4 0.947 1_556 S
C23 C22 1.383 . S
C23 C24 1.388 . S
C24 H5 0.946 1_556 S
C24 C23 1.388 . S
C24 C25 1.384 . S
C25 C24 1.384 . S
C25 C26 1.377 . S
C26 H6 0.953 . S
C26 C25 1.377 . S
C26 C27 1.369 . S
C27 H7 0.945 . S
C27 C22 1.385 . S
C27 C26 1.369 . S
C28 C20 1.457 . S
C28 C29 1.372 . S
C28 C33 1.364 . S
C29 H8 0.952 . S
C29 C28 1.372 . S
C29 C30 1.389 . S
C30 H9 0.949 . S
C30 C29 1.389 . S
C30 C31 1.387 . S
C31 C30 1.387 . S
C31 C32 1.372 . S
C32 H10 0.950 . S
C32 C31 1.372 . S
C32 C33 1.379 . S
C33 H11 0.948 1_556 S
C33 C28 1.364 . S
C33 C32 1.379 . S
C34 C3 1.383 . S
C34 C21 1.479 . S
C34 C35 1.398 . S
C35 C0 1.382 . S
C35 H12 0.951 . S
C35 C34 1.398 . S
C36 C37 1.384 . S
C36 H49 0.947 . S
C36 C71 1.382 . S
C37 C36 1.384 . S
C37 C38 1.378 . S
C38 C37 1.378 . S
C38 C39 1.378 . S
C38 H50 0.952 . S
C39 C38 1.378 . S
C39 H51 0.950 . S
C39 C70 1.383 . S
H40 C59 0.947 . S
H41 C60 0.946 . S
H42 C62 0.953 . S
H43 C63 0.945 . S
H44 C65 0.952 . S
H45 C66 0.949 . S
H46 C68 0.950 . S
H47 C69 0.948 . S
H48 C71 0.951 . S
H49 C36 0.947 . S
H50 C38 0.952 . S
H51 C39 0.950 . S
N52 C55 1.382 . S
N52 C57 1.363 . S
N53 C55 1.371 . S
N53 C56 1.372 . S
N54 C56 1.361 . S
N54 C57 1.377 . S
C55 N52 1.382 . S
C55 N53 1.371 . S
C55 C58 1.480 . S
C56 N53 1.372 . S
C56 N54 1.361 . S
C56 C64 1.457 . S
C57 N52 1.363 . S
C57 N54 1.377 . S
C57 C70 1.479 . S
C58 C55 1.480 . S
C58 C59 1.383 . S
C58 C63 1.385 . S
C59 H40 0.947 . S
C59 C58 1.383 . S
C59 C60 1.388 . S
C60 H41 0.946 . S
C60 C59 1.388 . S
C60 C61 1.384 . S
C61 C60 1.384 . S
C61 C62 1.377 . S
C62 H42 0.953 . S
C62 C61 1.377 . S
C62 C63 1.369 . S
C63 H43 0.945 . S
C63 C58 1.385 . S
C63 C62 1.369 . S
C64 C56 1.457 . S
C64 C65 1.372 . S
C64 C69 1.364 . S
C65 H44 0.952 . S
C65 C64 1.372 . S
C65 C66 1.389 . S
C66 H45 0.949 . S
C66 C65 1.389 . S
C66 C67 1.387 . S
C67 C66 1.387 . S
C67 C68 1.372 . S
C68 H46 0.950 . S
C68 C67 1.372 . S
C68 C69 1.379 . S
C69 H47 0.948 . S
C69 C64 1.364 . S
C69 C68 1.379 . S
C70 C39 1.383 . S
C70 C57 1.479 . S
C70 C71 1.398 . S
C71 C36 1.382 . S
C71 H48 0.951 . S
C71 C70 1.398 . S
C72 C73 1.384 . S
C72 H85 0.947 . S
C72 C107 1.382 . S
C73 C72 1.384 . S
C73 C74 1.378 . S
C74 C73 1.378 . S
C74 C75 1.378 . S
C74 H86 0.952 . S
C75 C74 1.378 . S
C75 H87 0.950 . S
C75 C106 1.383 . S
H76 C95 0.947 . S
H77 C96 0.946 . S
H78 C98 0.953 . S
H79 C99 0.945 . S
H80 C101 0.952 . S
H81 C102 0.949 . S
H82 C104 0.950 . S
H83 C105 0.948 1_554 S
H84 C107 0.951 . S
H85 C72 0.947 . S
H86 C74 0.952 . S
H87 C75 0.950 . S
N88 C91 1.382 1_554 S
N88 C93 1.363 . S
N89 C91 1.371 . S
N89 C92 1.372 . S
N90 C92 1.361 1_554 S
N90 C93 1.377 . S
C91 N88 1.382 1_556 S
C91 N89 1.371 . S
C91 C94 1.480 . S
C92 N89 1.372 . S
C92 N90 1.361 1_556 S
C92 C100 1.457 . S
C93 N88 1.363 . S
C93 N90 1.377 . S
C93 C106 1.479 . S
C94 C91 1.480 . S
C94 C95 1.383 1_556 S
C94 C99 1.385 . S
C95 H76 0.947 . S
C95 C94 1.383 1_554 S
C95 C96 1.388 1_554 S
C96 H77 0.946 . S
C96 C95 1.388 1_556 S
C96 C97 1.384 . S
C97 C96 1.384 . S
C97 C98 1.377 . S
C98 H78 0.953 . S
C98 C97 1.377 . S
C98 C99 1.369 . S
C99 H79 0.945 . S
C99 C94 1.385 . S
C99 C98 1.369 . S
C100 C92 1.457 . S
C100 C101 1.372 . S
C100 C105 1.364 . S
C101 H80 0.952 . S
C101 C100 1.372 . S
C101 C102 1.389 . S
C102 H81 0.949 . S
C102 C101 1.389 . S
C102 C103 1.387 . S
C103 C102 1.387 . S
C103 C104 1.372 . S
C104 H82 0.950 . S
C104 C103 1.372 . S
C104 C105 1.379 . S
C105 H83 0.948 1_556 S
C105 C100 1.364 . S
C105 C104 1.379 . S
C106 C75 1.383 . S
C106 C93 1.479 . S
C106 C107 1.398 . S
C107 C72 1.382 . S
C107 H84 0.951 . S
C107 C106 1.398 . S
C108 C109 1.384 . S
C108 H121 0.947 . S
C108 C143 1.382 . S
C109 C108 1.384 . S
C109 C110 1.378 . S
C110 C109 1.378 . S
C110 C111 1.378 . S
C110 H122 0.952 . S
C111 C110 1.378 . S
C111 H123 0.950 . S
C111 C142 1.383 . S
H112 C131 0.947 . S
H113 C132 0.946 . S
H114 C134 0.953 . S
H115 C135 0.945 . S
H116 C137 0.952 . S
H117 C138 0.949 . S
H118 C140 0.950 . S
H119 C141 0.948 . S
H120 C143 0.951 . S
H121 C108 0.947 . S
H122 C110 0.952 . S
H123 C111 0.950 . S
N124 C127 1.382 . S
N124 C129 1.363 . S
N125 C127 1.371 . S
N125 C128 1.372 . S
N126 C128 1.361 . S
N126 C129 1.377 . S
C127 N124 1.382 . S
C127 N125 1.371 . S
C127 C130 1.480 . S
C128 N125 1.372 . S
C128 N126 1.361 . S
C128 C136 1.457 . S
C129 N124 1.363 . S
C129 N126 1.377 . S
C129 C142 1.479 . S
C130 C127 1.480 . S
C130 C131 1.383 . S
C130 C135 1.385 . S
C131 H112 0.947 . S
C131 C130 1.383 . S
C131 C132 1.388 . S
C132 H113 0.946 . S
C132 C131 1.388 . S
C132 C133 1.384 . S
C133 C132 1.384 . S
C133 C134 1.377 . S
C134 H114 0.953 . S
C134 C133 1.377 . S
C134 C135 1.369 . S
C135 H115 0.945 . S
C135 C130 1.385 . S
C135 C134 1.369 . S
C136 C128 1.457 . S
C136 C137 1.372 . S
C136 C141 1.364 . S
C137 H116 0.952 . S
C137 C136 1.372 . S
C137 C138 1.389 . S
C138 H117 0.949 . S
C138 C137 1.389 . S
C138 C139 1.387 . S
C139 C138 1.387 . S
C139 C140 1.372 . S
C140 H118 0.950 . S
C140 C139 1.372 . S
C140 C141 1.379 . S
C141 H119 0.948 . S
C141 C136 1.364 . S
C141 C140 1.379 . S
C142 C111 1.383 . S
C142 C129 1.479 . S
C142 C143 1.398 . S
C143 C108 1.382 . S
C143 H120 0.951 . S
C143 C142 1.398 . S
C144 C145 1.384 . S
C144 H157 0.947 . S
C144 C179 1.382 . S
C145 C144 1.384 . S
C145 C146 1.378 . S
C146 C145 1.378 . S
C146 C147 1.378 . S
C146 H158 0.952 . S
C147 C146 1.378 . S
C147 H159 0.950 . S
C147 C178 1.383 . S
H148 C167 0.947 1_554 S
H149 C168 0.946 1_554 S
H150 C170 0.953 . S
H151 C171 0.945 . S
H152 C173 0.952 . S
H153 C174 0.949 . S
H154 C176 0.950 . S
H155 C177 0.948 1_554 S
H156 C179 0.951 . S
H157 C144 0.947 . S
H158 C146 0.952 . S
H159 C147 0.950 . S
N160 C163 1.382 1_554 S
N160 C165 1.363 . S
N161 C163 1.371 . S
N161 C164 1.372 . S
N162 C164 1.361 1_554 S
N162 C165 1.377 . S
C163 N160 1.382 1_556 S
C163 N161 1.371 . S
C163 C166 1.480 . S
C164 N161 1.372 . S
C164 N162 1.361 1_556 S
C164 C172 1.457 . S
C165 N160 1.363 . S
C165 N162 1.377 . S
C165 C178 1.479 . S
C166 C163 1.480 . S
C166 C167 1.383 . S
C166 C171 1.385 . S
C167 H148 0.947 1_556 S
C167 C166 1.383 . S
C167 C168 1.388 . S
C168 H149 0.946 1_556 S
C168 C167 1.388 . S
C168 C169 1.384 . S
C169 C168 1.384 . S
C169 C170 1.377 . S
C170 H150 0.953 . S
C170 C169 1.377 . S
C170 C171 1.369 . S
C171 H151 0.945 . S
C171 C166 1.385 . S
C171 C170 1.369 . S
C172 C164 1.457 . S
C172 C173 1.372 . S
C172 C177 1.364 . S
C173 H152 0.952 . S
C173 C172 1.372 . S
C173 C174 1.389 1_565 S
C174 H153 0.949 . S
C174 C173 1.389 1_545 S
C174 C175 1.387 . S
C175 C174 1.387 . S
C175 C176 1.372 . S
C176 H154 0.950 . S
C176 C175 1.372 . S
C176 C177 1.379 1_545 S
C177 H155 0.948 1_556 S
C177 C172 1.364 . S
C177 C176 1.379 1_565 S
C178 C147 1.383 . S
C178 C165 1.479 . S
C178 C179 1.398 . S
C179 C144 1.382 . S
C179 H156 0.951 . S
C179 C178 1.398 . S
C180 C181 1.384 . S
C180 H193 0.947 . S
C180 C215 1.382 . S
C181 C180 1.384 . S
C181 C182 1.378 . S
C182 C181 1.378 . S
C182 C183 1.378 . S
C182 H194 0.952 . S
C183 C182 1.378 . S
C183 H195 0.950 . S
C183 C214 1.383 . S
H184 C203 0.947 . S
H185 C204 0.946 . S
H186 C206 0.953 . S
H187 C207 0.945 . S
H188 C209 0.952 . S
H189 C210 0.949 . S
H190 C212 0.950 . S
H191 C213 0.948 . S
H192 C215 0.951 . S
H193 C180 0.947 . S
H194 C182 0.952 . S
H195 C183 0.950 . S
N196 C199 1.382 . S
N196 C201 1.363 . S
N197 C199 1.371 . S
N197 C200 1.372 . S
N198 C200 1.361 . S
N198 C201 1.377 . S
C199 N196 1.382 . S
C199 N197 1.371 . S
C199 C202 1.480 . S
C200 N197 1.372 . S
C200 N198 1.361 . S
C200 C208 1.457 . S
C201 N196 1.363 . S
C201 N198 1.377 . S
C201 C214 1.479 . S
C202 C199 1.480 . S
C202 C203 1.383 . S
C202 C207 1.385 . S
C203 H184 0.947 . S
C203 C202 1.383 . S
C203 C204 1.388 . S
C204 H185 0.946 . S
C204 C203 1.388 . S
C204 C205 1.384 . S
C205 C204 1.384 . S
C205 C206 1.377 . S
C206 H186 0.953 . S
C206 C205 1.377 . S
C206 C207 1.369 . S
C207 H187 0.945 . S
C207 C202 1.385 . S
C207 C206 1.369 . S
C208 C200 1.457 . S
C208 C209 1.372 . S
C208 C213 1.364 . S
C209 H188 0.952 . S
C209 C208 1.372 . S
C209 C210 1.389 1_545 S
C210 H189 0.949 . S
C210 C209 1.389 1_565 S
C210 C211 1.387 . S
C211 C210 1.387 . S
C211 C212 1.372 . S
C212 H190 0.950 . S
C212 C211 1.372 . S
C212 C213 1.379 1_565 S
C213 H191 0.948 . S
C213 C208 1.364 . S
C213 C212 1.379 1_545 S
C214 C183 1.383 . S
C214 C201 1.479 . S
C214 C215 1.398 . S
C215 C180 1.382 . S
C215 H192 0.951 . S
C215 C214 1.398 . S
C216 C217 1.384 . S
C216 H229 0.947 . S
C216 C251 1.382 . S
C217 C216 1.384 . S
C217 C218 1.378 . S
C218 C217 1.378 . S
C218 C219 1.378 . S
C218 H230 0.952 . S
C219 C218 1.378 . S
C219 H231 0.950 . S
C219 C250 1.383 . S
H220 C239 0.947 . S
H221 C240 0.946 . S
H222 C242 0.953 . S
H223 C243 0.945 . S
H224 C245 0.952 . S
H225 C246 0.949 . S
H226 C248 0.950 . S
H227 C249 0.948 1_554 S
H228 C251 0.951 . S
H229 C216 0.947 . S
H230 C218 0.952 . S
H231 C219 0.950 . S
N232 C235 1.382 1_554 S
N232 C237 1.363 . S
N233 C235 1.371 . S
N233 C236 1.372 . S
N234 C236 1.361 1_554 S
N234 C237 1.377 . S
C235 N232 1.382 1_556 S
C235 N233 1.371 . S
C235 C238 1.480 . S
C236 N233 1.372 . S
C236 N234 1.361 1_556 S
C236 C244 1.457 . S
C237 N232 1.363 . S
C237 N234 1.377 . S
C237 C250 1.479 . S
C238 C235 1.480 . S
C238 C239 1.383 1_556 S
C238 C243 1.385 . S
C239 H220 0.947 . S
C239 C238 1.383 1_554 S
C239 C240 1.388 1_554 S
C240 H221 0.946 . S
C240 C239 1.388 1_556 S
C240 C241 1.384 . S
C241 C240 1.384 . S
C241 C242 1.377 . S
C242 H222 0.953 . S
C242 C241 1.377 . S
C242 C243 1.369 . S
C243 H223 0.945 . S
C243 C238 1.385 . S
C243 C242 1.369 . S
C244 C236 1.457 . S
C244 C245 1.372 . S
C244 C249 1.364 . S
C245 H224 0.952 . S
C245 C244 1.372 . S
C245 C246 1.389 1_565 S
C246 H225 0.949 . S
C246 C245 1.389 1_545 S
C246 C247 1.387 . S
C247 C246 1.387 . S
C247 C248 1.372 . S
C248 H226 0.950 . S
C248 C247 1.372 . S
C248 C249 1.379 1_545 S
C249 H227 0.948 1_556 S
C249 C244 1.364 . S
C249 C248 1.379 1_565 S
C250 C219 1.383 . S
C250 C237 1.479 . S
C250 C251 1.398 . S
C251 C216 1.382 . S
C251 H228 0.951 . S
C251 C250 1.398 . S
C252 C253 1.384 . S
C252 H265 0.947 . S
C252 C287 1.382 . S
C253 C252 1.384 . S
C253 C254 1.378 . S
C254 C253 1.378 . S
C254 C255 1.378 . S
C254 H266 0.952 . S
C255 C254 1.378 . S
C255 H267 0.950 . S
C255 C286 1.383 . S
H256 C275 0.947 . S
H257 C276 0.946 . S
H258 C278 0.953 . S
H259 C279 0.945 . S
H260 C281 0.952 . S
H261 C282 0.949 . S
H262 C284 0.950 . S
H263 C285 0.948 . S
H264 C287 0.951 . S
H265 C252 0.947 . S
H266 C254 0.952 . S
H267 C255 0.950 . S
N268 C271 1.382 . S
N268 C273 1.363 . S
N269 C271 1.371 . S
N269 C272 1.372 . S
N270 C272 1.361 . S
N270 C273 1.377 . S
C271 N268 1.382 . S
C271 N269 1.371 . S
C271 C274 1.480 . S
C272 N269 1.372 . S
C272 N270 1.361 . S
C272 C280 1.457 . S
C273 N268 1.363 . S
C273 N270 1.377 . S
C273 C286 1.479 . S
C274 C271 1.480 . S
C274 C275 1.383 . S
C274 C279 1.385 . S
C275 H256 0.947 . S
C275 C274 1.383 . S
C275 C276 1.388 . S
C276 H257 0.946 . S
C276 C275 1.388 . S
C276 C277 1.384 . S
C277 C276 1.384 . S
C277 C278 1.377 . S
C278 H258 0.953 . S
C278 C277 1.377 . S
C278 C279 1.369 . S
C279 H259 0.945 . S
C279 C274 1.385 . S
C279 C278 1.369 . S
C280 C272 1.457 . S
C280 C281 1.372 . S
C280 C285 1.364 . S
C281 H260 0.952 . S
C281 C280 1.372 . S
C281 C282 1.389 1_545 S
C282 H261 0.949 . S
C282 C281 1.389 1_565 S
C282 C283 1.387 . S
C283 C282 1.387 . S
C283 C284 1.372 . S
C284 H262 0.950 . S
C284 C283 1.372 . S
C284 C285 1.379 1_565 S
C285 H263 0.948 . S
C285 C280 1.364 . S
C285 C284 1.379 1_545 S
C286 C255 1.383 . S
C286 C273 1.479 . S
C286 C287 1.398 . S
C287 C252 1.382 . S
C287 H264 0.951 . S
C287 C286 1.398 . S
Sc288 O291 2.025 . S
Sc288 O298 2.105 1_455 S
Sc288 O301 2.105 . S
Sc288 O304 2.105 . S
Sc288 O307 2.105 1_455 S
Sc289 O291 2.025 . S
Sc289 O299 2.105 1_455 S
Sc289 O303 2.105 . S
Sc289 O305 2.105 . S
Sc289 O309 2.105 1_455 S
Sc290 O291 2.025 . S
Sc290 O300 2.105 1_455 S
Sc290 O302 2.105 . S
Sc290 O306 2.105 . S
Sc290 O308 2.105 1_455 S
O291 Sc288 2.025 . S
O291 Sc289 2.025 . S
O291 Sc290 2.025 . S
C292 O298 1.268 . S
C292 O308 1.268 . S
C293 O299 1.268 . S
C293 O307 1.268 . S
C294 O300 1.268 . S
C294 O309 1.268 . S
C295 O301 1.268 . S
C295 O305 1.268 . S
C296 O302 1.268 . S
C296 O304 1.268 . S
C297 O303 1.268 . S
C297 O306 1.268 . S
O298 Sc288 2.105 1_655 S
O298 C292 1.268 . S
O299 Sc289 2.105 1_655 S
O299 C293 1.268 . S
O300 Sc290 2.105 1_655 S
O300 C294 1.268 . S
O301 Sc288 2.105 . S
O301 C295 1.268 . S
O302 Sc290 2.105 . S
O302 C296 1.268 . S
O303 Sc289 2.105 . S
O303 C297 1.268 . S
O304 Sc288 2.105 . S
O304 C296 1.268 . S
O305 Sc289 2.105 . S
O305 C295 1.268 . S
O306 Sc290 2.105 . S
O306 C297 1.268 . S
O307 Sc288 2.105 1_655 S
O307 C293 1.268 . S
O308 Sc290 2.105 1_655 S
O308 C292 1.268 . S
O309 Sc289 2.105 1_655 S
O309 C294 1.268 . S
Sc310 O313 2.025 . S
Sc310 O320 2.105 . S
Sc310 O323 2.105 1_455 S
Sc310 O326 2.105 1_455 S
Sc310 O329 2.105 . S
Sc311 O313 2.025 . S
Sc311 O321 2.105 . S
Sc311 O325 2.105 1_455 S
Sc311 O327 2.105 1_455 S
Sc311 O331 2.105 . S
Sc312 O313 2.025 . S
Sc312 O322 2.105 . S
Sc312 O324 2.105 1_455 S
Sc312 O328 2.105 1_455 S
Sc312 O330 2.105 . S
O313 Sc310 2.025 . S
O313 Sc311 2.025 . S
O313 Sc312 2.025 . S
C314 O320 1.268 . S
C314 O330 1.268 . S
C315 O321 1.268 . S
C315 O329 1.268 . S
C316 O322 1.268 . S
C316 O331 1.268 . S
C317 O323 1.268 . S
C317 O327 1.268 . S
C318 O324 1.268 . S
C318 O326 1.268 . S
C319 O325 1.268 . S
C319 O328 1.268 . S
O320 Sc310 2.105 . S
O320 C314 1.268 . S
O321 Sc311 2.105 . S
O321 C315 1.268 . S
O322 Sc312 2.105 . S
O322 C316 1.268 . S
O323 Sc310 2.105 1_655 S
O323 C317 1.268 . S
O324 Sc312 2.105 1_655 S
O324 C318 1.268 . S
O325 Sc311 2.105 1_655 S
O325 C319 1.268 . S
O326 Sc310 2.105 1_655 S
O326 C318 1.268 . S
O327 Sc311 2.105 1_655 S
O327 C317 1.268 . S
O328 Sc312 2.105 1_655 S
O328 C319 1.268 . S
O329 Sc310 2.105 . S
O329 C315 1.268 . S
O330 Sc312 2.105 . S
O330 C314 1.268 . S
O331 Sc311 2.105 . S
O331 C316 1.268 . S
Sc332 O335 2.025 . S
Sc332 O342 2.105 . S
Sc332 O345 2.105 . S
Sc332 O348 2.105 . S
Sc332 O351 2.105 . S
Sc333 O335 2.025 . S
Sc333 O343 2.105 . S
Sc333 O347 2.105 . S
Sc333 O349 2.105 . S
Sc333 O353 2.105 . S
Sc334 O335 2.025 . S
Sc334 O344 2.105 . S
Sc334 O346 2.105 . S
Sc334 O350 2.105 . S
Sc334 O352 2.105 . S
O335 Sc332 2.025 . S
O335 Sc333 2.025 . S
O335 Sc334 2.025 . S
C336 O342 1.268 . S
C336 O352 1.268 . S
C337 O343 1.268 . S
C337 O351 1.268 . S
C338 O344 1.268 . S
C338 O353 1.268 . S
C339 O345 1.268 . S
C339 O349 1.268 . S
C340 O346 1.268 . S
C340 O348 1.268 . S
C341 O347 1.268 . S
C341 O350 1.268 . S
O342 Sc332 2.105 . S
O342 C336 1.268 . S
O343 Sc333 2.105 . S
O343 C337 1.268 . S
O344 Sc334 2.105 . S
O344 C338 1.268 . S
O345 Sc332 2.105 . S
O345 C339 1.268 . S
O346 Sc334 2.105 . S
O346 C340 1.268 . S
O347 Sc333 2.105 . S
O347 C341 1.268 . S
O348 Sc332 2.105 . S
O348 C340 1.268 . S
O349 Sc333 2.105 . S
O349 C339 1.268 . S
O350 Sc334 2.105 . S
O350 C341 1.268 . S
O351 Sc332 2.105 . S
O351 C337 1.268 . S
O352 Sc334 2.105 . S
O352 C336 1.268 . S
O353 Sc333 2.105 . S
O353 C338 1.268 . S
Sc354 O357 2.025 . S
Sc354 O364 2.105 . S
Sc354 O367 2.105 . S
Sc354 O370 2.105 . S
Sc354 O373 2.105 . S
Sc355 O357 2.025 . S
Sc355 O365 2.105 . S
Sc355 O369 2.105 . S
Sc355 O371 2.105 . S
Sc355 O375 2.105 . S
Sc356 O357 2.025 . S
Sc356 O366 2.105 . S
Sc356 O368 2.105 . S
Sc356 O372 2.105 . S
Sc356 O374 2.105 . S
O357 Sc354 2.025 . S
O357 Sc355 2.025 . S
O357 Sc356 2.025 . S
C358 O364 1.268 . S
C358 O374 1.268 . S
C359 O365 1.268 . S
C359 O373 1.268 . S
C360 O366 1.268 . S
C360 O375 1.268 . S
C361 O367 1.268 . S
C361 O371 1.268 . S
C362 O368 1.268 . S
C362 O370 1.268 . S
C363 O369 1.268 . S
C363 O372 1.268 . S
O364 Sc354 2.105 . S
O364 C358 1.268 . S
O365 Sc355 2.105 . S
O365 C359 1.268 . S
O366 Sc356 2.105 . S
O366 C360 1.268 . S
O367 Sc354 2.105 . S
O367 C361 1.268 . S
O368 Sc356 2.105 . S
O368 C362 1.268 . S
O369 Sc355 2.105 . S
O369 C363 1.268 . S
O370 Sc354 2.105 . S
O370 C362 1.268 . S
O371 Sc355 2.105 . S
O371 C361 1.268 . S
O372 Sc356 2.105 . S
O372 C363 1.268 . S
O373 Sc354 2.105 . S
O373 C359 1.268 . S
O374 Sc356 2.105 . S
O374 C358 1.268 . S
O375 Sc355 2.105 . S
O375 C360 1.268 . S
C376 C377 1.363 . S
C376 C382 1.379 . S
C376 N384 1.356 . S
C377 C376 1.363 . S
C377 C383 1.363 . S
C378 C379 1.363 . S
C378 C383 1.379 . S
C378 N385 1.356 . S
C379 C378 1.363 . S
C379 C382 1.363 . S
N380 C382 1.356 . S
N380 H392 0.984 . S
N380 H393 0.985 . S
N381 C383 1.356 . S
N381 H386 0.984 . S
N381 H387 0.985 . S
C382 C376 1.379 . S
C382 C379 1.363 . S
C382 N380 1.356 . S
C383 C377 1.363 . S
C383 C378 1.379 . S
C383 N381 1.356 . S
N384 C376 1.356 . S
N384 H390 0.984 . S
N384 H391 0.984 . S
N385 C378 1.356 . S
N385 H388 0.984 . S
N385 H389 0.985 . S
H386 N381 0.984 . S
H387 N381 0.985 . S
H388 N385 0.984 . S
H389 N385 0.985 . S
H390 N384 0.984 . S
H391 N384 0.984 . S
H392 N380 0.984 . S
H393 N380 0.985 . S
C394 C395 1.363 . S
C394 C400 1.379 . S
C394 N402 1.356 . S
C395 C394 1.363 . S
C395 C401 1.363 . S
C396 C397 1.363 . S
C396 C401 1.379 . S
C396 N403 1.356 . S
C397 C396 1.363 . S
C397 C400 1.363 . S
N398 C400 1.356 . S
N398 H410 0.984 . S
N398 H411 0.985 . S
N399 C401 1.356 . S
N399 H404 0.984 . S
N399 H405 0.985 . S
C400 C394 1.379 . S
C400 C397 1.363 . S
C400 N398 1.356 . S
C401 C395 1.363 . S
C401 C396 1.379 . S
C401 N399 1.356 . S
N402 C394 1.356 . S
N402 H408 0.984 . S
N402 H409 0.984 . S
N403 C396 1.356 . S
N403 H406 0.984 . S
N403 H407 0.985 . S
H404 N399 0.984 . S
H405 N399 0.985 . S
H406 N403 0.984 . S
H407 N403 0.985 . S
H408 N402 0.984 . S
H409 N402 0.984 . S
H410 N398 0.984 . S
H411 N398 0.985 . S
C412 C413 1.363 . S
C412 C418 1.379 . S
C412 N420 1.356 . S
C413 C412 1.363 . S
C413 C419 1.363 . S
C414 C415 1.363 . S
C414 C419 1.379 . S
C414 N421 1.356 . S
C415 C414 1.363 . S
C415 C418 1.363 . S
N416 C418 1.356 . S
N416 H428 0.984 . S
N416 H429 0.985 . S
N417 C419 1.356 . S
N417 H422 0.984 . S
N417 H423 0.985 . S
C418 C412 1.379 . S
C418 C415 1.363 . S
C418 N416 1.356 . S
C419 C413 1.363 . S
C419 C414 1.379 . S
C419 N417 1.356 . S
N420 C412 1.356 . S
N420 H426 0.984 . S
N420 H427 0.984 . S
N421 C414 1.356 . S
N421 H424 0.984 . S
N421 H425 0.985 . S
H422 N417 0.984 . S
H423 N417 0.985 . S
H424 N421 0.984 . S
H425 N421 0.985 . S
H426 N420 0.984 . S
H427 N420 0.984 . S
H428 N416 0.984 . S
H429 N416 0.985 . S
C430 C431 1.363 . S
C430 C436 1.379 . S
C430 N438 1.356 . S
C431 C430 1.363 . S
C431 C437 1.363 . S
C432 C433 1.363 . S
C432 C437 1.379 . S
C432 N439 1.356 . S
C433 C432 1.363 . S
C433 C436 1.363 . S
N434 C436 1.356 . S
N434 H446 0.984 . S
N434 H447 0.985 . S
N435 C437 1.356 . S
N435 H440 0.984 . S
N435 H441 0.985 . S
C436 C430 1.379 . S
C436 C433 1.363 . S
C436 N434 1.356 . S
C437 C431 1.363 . S
C437 C432 1.379 . S
C437 N435 1.356 . S
N438 C430 1.356 . S
N438 H444 0.984 . S
N438 H445 0.984 . S
N439 C432 1.356 . S
N439 H442 0.984 . S
N439 H443 0.985 . S
H440 N435 0.984 . S
H441 N435 0.985 . S
H442 N439 0.984 . S
H443 N439 0.985 . S
H444 N438 0.984 . S
H445 N438 0.984 . S
H446 N434 0.984 . S
H447 N434 0.985 . S
C448 C449 1.363 . S
C448 C454 1.379 . S
C448 N456 1.356 . S
C449 C448 1.363 . S
C449 C455 1.363 . S
C450 C451 1.363 . S
C450 C455 1.379 . S
C450 N457 1.356 . S
C451 C450 1.363 . S
C451 C454 1.363 . S
N452 C454 1.356 . S
N452 H464 0.984 . S
N452 H465 0.985 . S
N453 C455 1.356 . S
N453 H458 0.984 . S
N453 H459 0.985 . S
C454 C448 1.379 . S
C454 C451 1.363 . S
C454 N452 1.356 . S
C455 C449 1.363 . S
C455 C450 1.379 . S
C455 N453 1.356 . S
N456 C448 1.356 . S
N456 H462 0.984 . S
N456 H463 0.984 . S
N457 C450 1.356 . S
N457 H460 0.984 . S
N457 H461 0.985 . S
H458 N453 0.984 . S
H459 N453 0.985 . S
H460 N457 0.984 . S
H461 N457 0.985 . S
H462 N456 0.984 . S
H463 N456 0.984 . S
H464 N452 0.984 . S
H465 N452 0.985 . S
C466 C467 1.363 . S
C466 C472 1.379 . S
C466 N474 1.356 . S
C467 C466 1.363 . S
C467 C473 1.363 . S
C468 C469 1.363 . S
C468 C473 1.379 . S
C468 N475 1.356 . S
C469 C468 1.363 . S
C469 C472 1.363 . S
N470 C472 1.356 . S
N470 H482 0.984 . S
N470 H483 0.985 . S
N471 C473 1.356 . S
N471 H476 0.984 . S
N471 H477 0.985 . S
C472 C466 1.379 . S
C472 C469 1.363 . S
C472 N470 1.356 . S
C473 C467 1.363 . S
C473 C468 1.379 . S
C473 N471 1.356 . S
N474 C466 1.356 . S
N474 H480 0.984 . S
N474 H481 0.984 . S
N475 C468 1.356 . S
N475 H478 0.984 . S
N475 H479 0.985 . S
H476 N471 0.984 . S
H477 N471 0.985 . S
H478 N475 0.984 . S
H479 N475 0.985 . S
H480 N474 0.984 . S
H481 N474 0.984 . S
H482 N470 0.984 . S
H483 N470 0.985 . S
C484 C485 1.363 . S
C484 C490 1.379 . S
C484 N492 1.356 . S
C485 C484 1.363 . S
C485 C491 1.363 . S
C486 C487 1.363 . S
C486 C491 1.379 . S
C486 N493 1.356 . S
C487 C486 1.363 . S
C487 C490 1.363 . S
N488 C490 1.356 . S
N488 H500 0.984 . S
N488 H501 0.985 . S
N489 C491 1.356 . S
N489 H494 0.984 . S
N489 H495 0.985 . S
C490 C484 1.379 . S
C490 C487 1.363 . S
C490 N488 1.356 . S
C491 C485 1.363 . S
C491 C486 1.379 . S
C491 N489 1.356 . S
N492 C484 1.356 . S
N492 H498 0.984 . S
N492 H499 0.984 . S
N493 C486 1.356 . S
N493 H496 0.984 . S
N493 H497 0.985 . S
H494 N489 0.984 . S
H495 N489 0.985 . S
H496 N493 0.984 . S
H497 N493 0.985 . S
H498 N492 0.984 . S
H499 N492 0.984 . S
H500 N488 0.984 . S
H501 N488 0.985 . S
C502 C503 1.363 . S
C502 C508 1.379 . S
C502 N510 1.356 . S
C503 C502 1.363 . S
C503 C509 1.363 . S
C504 C505 1.363 . S
C504 C509 1.379 . S
C504 N511 1.356 . S
C505 C504 1.363 . S
C505 C508 1.363 . S
N506 C508 1.356 . S
N506 H518 0.984 . S
N506 H519 0.985 . S
N507 C509 1.356 . S
N507 H512 0.984 . S
N507 H513 0.985 . S
C508 C502 1.379 . S
C508 C505 1.363 . S
C508 N506 1.356 . S
C509 C503 1.363 . S
C509 C504 1.379 . S
C509 N507 1.356 . S
N510 C502 1.356 . S
N510 H516 0.984 . S
N510 H517 0.984 . S
N511 C504 1.356 . S
N511 H514 0.984 . S
N511 H515 0.985 . S
H512 N507 0.984 . S
H513 N507 0.985 . S
H514 N511 0.984 . S
H515 N511 0.985 . S
H516 N510 0.984 . S
H517 N510 0.984 . S
H518 N506 0.984 . S
H519 N506 0.985 . S
C520 C521 1.363 . S
C520 C526 1.379 . S
C520 N528 1.356 . S
C521 C520 1.363 . S
C521 C527 1.363 . S
C522 C523 1.363 . S
C522 C527 1.379 . S
C522 N529 1.356 . S
C523 C522 1.363 . S
C523 C526 1.363 . S
N524 C526 1.356 . S
N524 H536 0.984 . S
N524 H537 0.985 . S
N525 C527 1.356 . S
N525 H530 0.984 . S
N525 H531 0.985 . S
C526 C520 1.379 . S
C526 C523 1.363 . S
C526 N524 1.356 . S
C527 C521 1.363 . S
C527 C522 1.379 . S
C527 N525 1.356 . S
N528 C520 1.356 . S
N528 H534 0.984 . S
N528 H535 0.984 . S
N529 C522 1.356 . S
N529 H532 0.984 . S
N529 H533 0.985 . S
H530 N525 0.984 . S
H531 N525 0.985 . S
H532 N529 0.984 . S
H533 N529 0.985 . S
H534 N528 0.984 . S
H535 N528 0.984 . S
H536 N524 0.984 . S
H537 N524 0.985 . S
C538 C539 1.363 . S
C538 C544 1.379 . S
C538 N546 1.356 . S
C539 C538 1.363 . S
C539 C545 1.363 . S
C540 C541 1.363 . S
C540 C545 1.379 . S
C540 N547 1.356 . S
C541 C540 1.363 . S
C541 C544 1.363 . S
N542 C544 1.356 . S
N542 H554 0.984 . S
N542 H555 0.985 . S
N543 C545 1.356 . S
N543 H548 0.984 . S
N543 H549 0.985 . S
C544 C538 1.379 . S
C544 C541 1.363 . S
C544 N542 1.356 . S
C545 C539 1.363 . S
C545 C540 1.379 . S
C545 N543 1.356 . S
N546 C538 1.356 . S
N546 H552 0.984 . S
N546 H553 0.984 . S
N547 C540 1.356 . S
N547 H550 0.984 . S
N547 H551 0.985 . S
H548 N543 0.984 . S
H549 N543 0.985 . S
H550 N547 0.984 . S
H551 N547 0.985 . S
H552 N546 0.984 . S
H553 N546 0.984 . S
H554 N542 0.984 . S
H555 N542 0.985 . S
C556 C557 1.363 . S
C556 C562 1.379 . S
C556 N564 1.356 . S
C557 C556 1.363 . S
C557 C563 1.363 . S
C558 C559 1.363 . S
C558 C563 1.379 . S
C558 N565 1.356 . S
C559 C558 1.363 . S
C559 C562 1.363 . S
N560 C562 1.356 . S
N560 H572 0.984 . S
N560 H573 0.985 . S
N561 C563 1.356 . S
N561 H566 0.984 . S
N561 H567 0.985 . S
C562 C556 1.379 . S
C562 C559 1.363 . S
C562 N560 1.356 . S
C563 C557 1.363 . S
C563 C558 1.379 . S
C563 N561 1.356 . S
N564 C556 1.356 . S
N564 H570 0.984 . S
N564 H571 0.984 . S
N565 C558 1.356 . S
N565 H568 0.984 . S
N565 H569 0.985 . S
H566 N561 0.984 . S
H567 N561 0.985 . S
H568 N565 0.984 . S
H569 N565 0.985 . S
H570 N564 0.984 . S
H571 N564 0.984 . S
H572 N560 0.984 . S
H573 N560 0.985 . S
C574 C575 1.363 . S
C574 C580 1.379 . S
C574 N582 1.356 . S
C575 C574 1.363 . S
C575 C581 1.363 . S
C576 C577 1.363 . S
C576 C581 1.379 . S
C576 N583 1.356 . S
C577 C576 1.363 . S
C577 C580 1.363 . S
N578 C580 1.356 . S
N578 H590 0.984 . S
N578 H591 0.985 . S
N579 C581 1.356 . S
N579 H584 0.984 . S
N579 H585 0.985 . S
C580 C574 1.379 . S
C580 C577 1.363 . S
C580 N578 1.356 . S
C581 C575 1.363 . S
C581 C576 1.379 . S
C581 N579 1.356 . S
N582 C574 1.356 . S
N582 H588 0.984 . S
N582 H589 0.984 . S
N583 C576 1.356 . S
N583 H586 0.984 . S
N583 H587 0.985 . S
H584 N579 0.984 . S
H585 N579 0.985 . S
H586 N583 0.984 . S
H587 N583 0.985 . S
H588 N582 0.984 . S
H589 N582 0.984 . S
H590 N578 0.984 . S
H591 N578 0.985 . S
C592 C593 1.363 . S
C592 C598 1.379 . S
C592 N600 1.356 . S
C593 C592 1.363 . S
C593 C599 1.363 . S
C594 C595 1.363 . S
C594 C599 1.379 . S
C594 N601 1.356 . S
C595 C594 1.363 . S
C595 C598 1.363 . S
N596 C598 1.356 . S
N596 H608 0.984 . S
N596 H609 0.985 . S
N597 C599 1.356 . S
N597 H602 0.984 . S
N597 H603 0.985 . S
C598 C592 1.379 . S
C598 C595 1.363 . S
C598 N596 1.356 . S
C599 C593 1.363 . S
C599 C594 1.379 . S
C599 N597 1.356 . S
N600 C592 1.356 . S
N600 H606 0.984 . S
N600 H607 0.984 . S
N601 C594 1.356 . S
N601 H604 0.984 . S
N601 H605 0.985 . S
H602 N597 0.984 . S
H603 N597 0.985 . S
H604 N601 0.984 . S
H605 N601 0.985 . S
H606 N600 0.984 . S
H607 N600 0.984 . S
H608 N596 0.984 . S
H609 N596 0.985 . S
C610 C611 1.363 . S
C610 C616 1.379 . S
C610 N618 1.356 1_565 S
C611 C610 1.363 . S
C611 C617 1.363 . S
C612 C613 1.363 . S
C612 C617 1.379 . S
C612 N619 1.356 . S
C613 C612 1.363 . S
C613 C616 1.363 . S
N614 C616 1.356 . S
N614 H626 0.984 . S
N614 H627 0.985 . S
N615 C617 1.356 . S
N615 H620 0.984 . S
N615 H621 0.985 . S
C616 C610 1.379 . S
C616 C613 1.363 . S
C616 N614 1.356 . S
C617 C611 1.363 . S
C617 C612 1.379 . S
C617 N615 1.356 . S
N618 C610 1.356 1_545 S
N618 H624 0.984 . S
N618 H625 0.984 . S
N619 C612 1.356 . S
N619 H622 0.984 . S
N619 H623 0.985 . S
H620 N615 0.984 . S
H621 N615 0.985 . S
H622 N619 0.984 . S
H623 N619 0.985 . S
H624 N618 0.984 . S
H625 N618 0.984 . S
H626 N614 0.984 . S
H627 N614 0.985 . S
C628 C629 1.363 . S
C628 C634 1.379 . S
C628 N636 1.356 . S
C629 C628 1.363 . S
C629 C635 1.363 . S
C630 C631 1.363 . S
C630 C635 1.379 . S
C630 N637 1.356 . S
C631 C630 1.363 . S
C631 C634 1.363 . S
N632 C634 1.356 . S
N632 H644 0.984 . S
N632 H645 0.985 . S
N633 C635 1.356 . S
N633 H638 0.984 . S
N633 H639 0.985 . S
C634 C628 1.379 . S
C634 C631 1.363 . S
C634 N632 1.356 . S
C635 C629 1.363 . S
C635 C630 1.379 . S
C635 N633 1.356 . S
N636 C628 1.356 . S
N636 H642 0.984 . S
N636 H643 0.984 . S
N637 C630 1.356 . S
N637 H640 0.984 . S
N637 H641 0.985 . S
H638 N633 0.984 . S
H639 N633 0.985 . S
H640 N637 0.984 . S
H641 N637 0.985 . S
H642 N636 0.984 . S
H643 N636 0.984 . S
H644 N632 0.984 . S
H645 N632 0.985 . S
C646 C647 1.363 . S
C646 C652 1.379 . S
C646 N654 1.356 . S
C647 C646 1.363 . S
C647 C653 1.363 . S
C648 C649 1.363 . S
C648 C653 1.379 . S
C648 N655 1.356 . S
C649 C648 1.363 . S
C649 C652 1.363 . S
N650 C652 1.356 . S
N650 H662 0.984 . S
N650 H663 0.985 . S
N651 C653 1.356 . S
N651 H656 0.984 . S
N651 H657 0.985 . S
C652 C646 1.379 . S
C652 C649 1.363 . S
C652 N650 1.356 . S
C653 C647 1.363 . S
C653 C648 1.379 . S
C653 N651 1.356 . S
N654 C646 1.356 . S
N654 H660 0.984 . S
N654 H661 0.984 . S
N655 C648 1.356 . S
N655 H658 0.984 . S
N655 H659 0.985 . S
H656 N651 0.984 . S
H657 N651 0.985 . S
H658 N655 0.984 . S
H659 N655 0.985 . S
H660 N654 0.984 . S
H661 N654 0.984 . S
H662 N650 0.984 . S
H663 N650 0.985 . S
C664 C665 1.363 . S
C664 C670 1.379 . S
C664 N672 1.356 . S
C665 C664 1.363 . S
C665 C671 1.363 . S
C666 C667 1.363 . S
C666 C671 1.379 . S
C666 N673 1.356 . S
C667 C666 1.363 . S
C667 C670 1.363 . S
N668 C670 1.356 . S
N668 H680 0.984 . S
N668 H681 0.985 . S
N669 C671 1.356 . S
N669 H674 0.984 . S
N669 H675 0.985 . S
C670 C664 1.379 . S
C670 C667 1.363 . S
C670 N668 1.356 . S
C671 C665 1.363 . S
C671 C666 1.379 . S
C671 N669 1.356 . S
N672 C664 1.356 . S
N672 H678 0.984 . S
N672 H679 0.984 . S
N673 C666 1.356 . S
N673 H676 0.984 . S
N673 H677 0.985 . S
H674 N669 0.984 . S
H675 N669 0.985 . S
H676 N673 0.984 . S
H677 N673 0.985 . S
H678 N672 0.984 . S
H679 N672 0.984 . S
H680 N668 0.984 . S
H681 N668 0.985 . S
C682 C683 1.363 . S
C682 C688 1.379 . S
C682 N690 1.356 . S
C683 C682 1.363 . S
C683 C689 1.363 . S
C684 C685 1.363 . S
C684 C689 1.379 . S
C684 N691 1.356 . S
C685 C684 1.363 . S
C685 C688 1.363 . S
N686 C688 1.356 . S
N686 H698 0.984 . S
N686 H699 0.985 . S
N687 C689 1.356 . S
N687 H692 0.984 . S
N687 H693 0.985 . S
C688 C682 1.379 . S
C688 C685 1.363 . S
C688 N686 1.356 . S
C689 C683 1.363 . S
C689 C684 1.379 . S
C689 N687 1.356 . S
N690 C682 1.356 . S
N690 H696 0.984 . S
N690 H697 0.984 . S
N691 C684 1.356 . S
N691 H694 0.984 . S
N691 H695 0.985 . S
H692 N687 0.984 . S
H693 N687 0.985 . S
H694 N691 0.984 . S
H695 N691 0.985 . S
H696 N690 0.984 . S
H697 N690 0.984 . S
H698 N686 0.984 . S
H699 N686 0.985 . S
C700 C701 1.363 . S
C700 C706 1.379 . S
C700 N708 1.356 . S
C701 C700 1.363 . S
C701 C707 1.363 . S
C702 C703 1.363 . S
C702 C707 1.379 . S
C702 N709 1.356 . S
C703 C702 1.363 . S
C703 C706 1.363 . S
N704 C706 1.356 . S
N704 H716 0.984 . S
N704 H717 0.985 . S
N705 C707 1.356 . S
N705 H710 0.984 . S
N705 H711 0.985 . S
C706 C700 1.379 . S
C706 C703 1.363 . S
C706 N704 1.356 . S
C707 C701 1.363 . S
C707 C702 1.379 . S
C707 N705 1.356 . S
N708 C700 1.356 . S
N708 H714 0.984 . S
N708 H715 0.984 . S
N709 C702 1.356 . S
N709 H712 0.984 . S
N709 H713 0.985 . S
H710 N705 0.984 . S
H711 N705 0.985 . S
H712 N709 0.984 . S
H713 N709 0.985 . S
H714 N708 0.984 . S
H715 N708 0.984 . S
H716 N704 0.984 . S
H717 N704 0.985 . S
C718 C719 1.363 . S
C718 C724 1.379 . S
C718 N726 1.356 . S
C719 C718 1.363 . S
C719 C725 1.363 . S
C720 C721 1.363 . S
C720 C725 1.379 . S
C720 N727 1.356 . S
C721 C720 1.363 . S
C721 C724 1.363 . S
N722 C724 1.356 . S
N722 H734 0.984 . S
N722 H735 0.985 . S
N723 C725 1.356 . S
N723 H728 0.984 . S
N723 H729 0.985 . S
C724 C718 1.379 . S
C724 C721 1.363 . S
C724 N722 1.356 . S
C725 C719 1.363 . S
C725 C720 1.379 . S
C725 N723 1.356 . S
N726 C718 1.356 . S
N726 H732 0.984 . S
N726 H733 0.984 . S
N727 C720 1.356 . S
N727 H730 0.984 . S
N727 H731 0.985 . S
H728 N723 0.984 . S
H729 N723 0.985 . S
H730 N727 0.984 . S
H731 N727 0.985 . S
H732 N726 0.984 . S
H733 N726 0.984 . S
H734 N722 0.984 . S
H735 N722 0.985 . S
C736 C737 1.363 . S
C736 C742 1.379 . S
C736 N744 1.356 . S
C737 C736 1.363 . S
C737 C743 1.363 . S
C738 C739 1.363 . S
C738 C743 1.379 . S
C738 N745 1.356 . S
C739 C738 1.363 . S
C739 C742 1.363 . S
N740 C742 1.356 . S
N740 H752 0.984 . S
N740 H753 0.985 . S
N741 C743 1.356 . S
N741 H746 0.984 . S
N741 H747 0.985 . S
C742 C736 1.379 . S
C742 C739 1.363 . S
C742 N740 1.356 . S
C743 C737 1.363 . S
C743 C738 1.379 . S
C743 N741 1.356 . S
N744 C736 1.356 . S
N744 H750 0.984 . S
N744 H751 0.984 . S
N745 C738 1.356 . S
N745 H748 0.984 . S
N745 H749 0.985 . S
H746 N741 0.984 . S
H747 N741 0.985 . S
H748 N745 0.984 . S
H749 N745 0.985 . S
H750 N744 0.984 . S
H751 N744 0.984 . S
H752 N740 0.984 . S
H753 N740 0.985 . S
C754 C755 1.363 . S
C754 C760 1.379 . S
C754 N762 1.356 . S
C755 C754 1.363 . S
C755 C761 1.363 . S
C756 C757 1.363 . S
C756 C761 1.379 . S
C756 N763 1.356 . S
C757 C756 1.363 . S
C757 C760 1.363 . S
N758 C760 1.356 . S
N758 H770 0.984 . S
N758 H771 0.985 . S
N759 C761 1.356 . S
N759 H764 0.984 . S
N759 H765 0.985 . S
C760 C754 1.379 . S
C760 C757 1.363 . S
C760 N758 1.356 . S
C761 C755 1.363 . S
C761 C756 1.379 . S
C761 N759 1.356 . S
N762 C754 1.356 . S
N762 H768 0.984 . S
N762 H769 0.984 . S
N763 C756 1.356 . S
N763 H766 0.984 . S
N763 H767 0.985 . S
H764 N759 0.984 . S
H765 N759 0.985 . S
H766 N763 0.984 . S
H767 N763 0.985 . S
H768 N762 0.984 . S
H769 N762 0.984 . S
H770 N758 0.984 . S
H771 N758 0.985 . S
C772 C773 1.363 . S
C772 C778 1.379 . S
C772 N780 1.356 . S
C773 C772 1.363 . S
C773 C779 1.363 . S
C774 C775 1.363 . S
C774 C779 1.379 . S
C774 N781 1.356 . S
C775 C774 1.363 . S
C775 C778 1.363 . S
N776 C778 1.356 . S
N776 H788 0.984 . S
N776 H789 0.985 . S
N777 C779 1.356 . S
N777 H782 0.984 . S
N777 H783 0.985 . S
C778 C772 1.379 . S
C778 C775 1.363 . S
C778 N776 1.356 . S
C779 C773 1.363 . S
C779 C774 1.379 . S
C779 N777 1.356 . S
N780 C772 1.356 . S
N780 H786 0.984 . S
N780 H787 0.984 . S
N781 C774 1.356 . S
N781 H784 0.984 . S
N781 H785 0.985 . S
H782 N777 0.984 . S
H783 N777 0.985 . S
H784 N781 0.984 . S
H785 N781 0.985 . S
H786 N780 0.984 . S
H787 N780 0.984 . S
H788 N776 0.984 . S
H789 N776 0.985 . S
C790 C791 1.363 . S
C790 C796 1.379 . S
C790 N798 1.356 . S
C791 C790 1.363 . S
C791 C797 1.363 . S
C792 C793 1.363 . S
C792 C797 1.379 . S
C792 N799 1.356 . S
C793 C792 1.363 . S
C793 C796 1.363 . S
N794 C796 1.356 . S
N794 H806 0.984 . S
N794 H807 0.985 . S
N795 C797 1.356 . S
N795 H800 0.984 . S
N795 H801 0.985 . S
C796 C790 1.379 . S
C796 C793 1.363 . S
C796 N794 1.356 . S
C797 C791 1.363 . S
C797 C792 1.379 . S
C797 N795 1.356 . S
N798 C790 1.356 . S
N798 H804 0.984 . S
N798 H805 0.984 . S
N799 C792 1.356 . S
N799 H802 0.984 . S
N799 H803 0.985 . S
H800 N795 0.984 . S
H801 N795 0.985 . S
H802 N799 0.984 . S
H803 N799 0.985 . S
H804 N798 0.984 . S
H805 N798 0.984 . S
H806 N794 0.984 . S
H807 N794 0.985 . S
C377 C25 1.542 . S
C379 C314 1.533 . S
C397 C292 1.534 . S
C395 C61 1.543 . S
C415 C318 1.534 . S
C413 C97 1.586 . S
C433 C296 1.534 . S
C431 C133 1.584 . S
C451 C358 1.534 . S
C449 C169 1.542 . S
C469 C336 1.534 . S
C467 C205 1.542 . S
C485 C241 1.585 . S
C487 C362 1.534 . S
C505 C340 1.534 . S
C503 C277 1.585 . S
C521 C31 1.552 . S
C523 C363 1.627 . S
C541 C341 1.627 . S
C539 C67 1.552 . S
C557 C103 1.587 . S
C559 C360 1.627 . S
C575 C139 1.587 . S
C577 C338 1.627 . S
C595 C319 1.627 . S
C593 C175 1.552 . S
C611 C211 1.551 . S
C613 C297 1.626 . S
C631 C316 1.627 . S
C629 C247 1.586 . S
C649 C294 1.627 . S
C647 C283 1.588 . S
C667 C337 1.607 . S
C665 C1 1.553 . S
C685 C359 1.607 . S
C683 C37 1.553 . S
C701 C73 1.587 . S
C703 C339 1.607 . S
C721 C361 1.607 . S
C719 C109 1.587 . S
C739 C293 1.607 . S
C737 C145 1.554 . S
C755 C181 1.553 . S
C757 C315 1.605 . S
C773 C217 1.587 . S
C775 C295 1.605 . S
C791 C253 1.587 . S
C793 C317 1.608 . S
