# Generated by pormake.
# Topology pyr, (3,6)-cn, num edge types: 1
# Building blocks:
#     Node 0, Type 0, BuildingBlock: PAMTOO_clean_linker_0, # of connection points: 3
#     Node 1, Type 0, BuildingBlock: PAMTOO_clean_linker_0, # of connection points: 3
#     Node 2, Type 0, BuildingBlock: PAMTOO_clean_linker_0, # of connection points: 3
#     Node 3, Type 0, BuildingBlock: PAMTOO_clean_linker_0, # of connection points: 3
#     Node 4, Type 0, BuildingBlock: PAMTOO_clean_linker_0, # of connection points: 3
#     Node 5, Type 0, BuildingBlock: PAMTOO_clean_linker_0, # of connection points: 3
#     Node 6, Type 0, BuildingBlock: PAMTOO_clean_linker_0, # of connection points: 3
#     Node 7, Type 0, BuildingBlock: PAMTOO_clean_linker_0, # of connection points: 3
#     Node 8, Type 1, BuildingBlock: MIDCAF_clean_sbu_0, # of connection points: 6
#     Node 9, Type 1, BuildingBlock: MIDCAF_clean_sbu_0, # of connection points: 6
#     Node 10, Type 1, BuildingBlock: MIDCAF_clean_sbu_0, # of connection points: 6
#     Node 11, Type 1, BuildingBlock: MIDCAF_clean_sbu_0, # of connection points: 6
#     Edge 12, Type (0, 1), BuildingBlock: ZUJKAS_clean_linker_0, # of connection points: 2
#     Edge 13, Type (0, 1), BuildingBlock: ZUJKAS_clean_linker_0, # of connection points: 2
#     Edge 14, Type (0, 1), BuildingBlock: ZUJKAS_clean_linker_0, # of connection points: 2
#     Edge 15, Type (0, 1), BuildingBlock: ZUJKAS_clean_linker_0, # of connection points: 2
#     Edge 16, Type (0, 1), BuildingBlock: ZUJKAS_clean_linker_0, # of connection points: 2
#     Edge 17, Type (0, 1), BuildingBlock: ZUJKAS_clean_linker_0, # of connection points: 2
#     Edge 18, Type (0, 1), BuildingBlock: ZUJKAS_clean_linker_0, # of connection points: 2
#     Edge 19, Type (0, 1), BuildingBlock: ZUJKAS_clean_linker_0, # of connection points: 2
#     Edge 20, Type (0, 1), BuildingBlock: ZUJKAS_clean_linker_0, # of connection points: 2
#     Edge 21, Type (0, 1), BuildingBlock: ZUJKAS_clean_linker_0, # of connection points: 2
#     Edge 22, Type (0, 1), BuildingBlock: ZUJKAS_clean_linker_0, # of connection points: 2
#     Edge 23, Type (0, 1), BuildingBlock: ZUJKAS_clean_linker_0, # of connection points: 2
#     Edge 24, Type (0, 1), BuildingBlock: ZUJKAS_clean_linker_0, # of connection points: 2
#     Edge 25, Type (0, 1), BuildingBlock: ZUJKAS_clean_linker_0, # of connection points: 2
#     Edge 26, Type (0, 1), BuildingBlock: ZUJKAS_clean_linker_0, # of connection points: 2
#     Edge 27, Type (0, 1), BuildingBlock: ZUJKAS_clean_linker_0, # of connection points: 2
#     Edge 28, Type (0, 1), BuildingBlock: ZUJKAS_clean_linker_0, # of connection points: 2
#     Edge 29, Type (0, 1), BuildingBlock: ZUJKAS_clean_linker_0, # of connection points: 2
#     Edge 30, Type (0, 1), BuildingBlock: ZUJKAS_clean_linker_0, # of connection points: 2
#     Edge 31, Type (0, 1), BuildingBlock: ZUJKAS_clean_linker_0, # of connection points: 2
#     Edge 32, Type (0, 1), BuildingBlock: ZUJKAS_clean_linker_0, # of connection points: 2
#     Edge 33, Type (0, 1), BuildingBlock: ZUJKAS_clean_linker_0, # of connection points: 2
#     Edge 34, Type (0, 1), BuildingBlock: ZUJKAS_clean_linker_0, # of connection points: 2
#     Edge 35, Type (0, 1), BuildingBlock: ZUJKAS_clean_linker_0, # of connection points: 2
# Relax obj value: 0.091
# Max RMSD: 0.201
# Mean RMSD: 0.142
data_MOF--net-pry--node1-MIDCAF_clean_sbu_0--node2-PAMTOO_clean_linker_0--edge1-ZUJKAS_clean_linker_0
_symmetry_space_group_name_H-M    P1
_symmetry_Int_Tables_number       1
_symmetry_cell_setting            triclinic
loop_
_symmetry_equiv_pos_as_xyz
'x, y, z'
_cell_length_a     45.180443
_cell_length_b     46.615107
_cell_length_c     46.021901
_cell_angle_alpha  89.816797
_cell_angle_beta   91.242101
_cell_angle_gamma 95.202621
loop_
_atom_site_label
_atom_site_type_symbol
_atom_site_fract_x
_atom_site_fract_y
_atom_site_fract_z
_atom_type_partial_charge
H0 H 0.20168 0.25558 0.2544 0.0
H1 H 0.26274 0.18976 0.25907 0.0
H2 H 0.26935 0.25175 0.19016 0.0
H3 H 0.27307 0.19124 0.1733 0.0
C4 C 0.28584 0.18393 0.19248 0.0
O5 O 0.29107 0.20618 0.21217 0.0
H6 H 0.27213 0.1657 0.20266 0.0
C7 C 0.22079 0.24598 0.24618 0.0
C8 C 0.2344 0.25706 0.22071 0.0
C9 C 0.23061 0.22153 0.26014 0.0
C10 C 0.25471 0.20853 0.24865 0.0
C11 C 0.26848 0.2194 0.22346 0.0
C12 C 0.25843 0.24361 0.20964 0.0
H13 H 0.29657 0.86967 0.7469 0.0
H14 H 0.29609 0.82458 0.66527 0.0
H15 H 0.36462 0.81343 0.7289 0.0
H16 H 0.38372 0.82358 0.66818 0.0
C17 C 0.36522 0.81042 0.6568 0.0
O18 O 0.34453 0.79972 0.67664 0.0
H19 H 0.35458 0.82469 0.64104 0.0
C20 C 0.30591 0.8544 0.73281 0.0
C21 C 0.33195 0.84202 0.7417 0.0
C22 C 0.29278 0.8485 0.7052 0.0
C23 C 0.30585 0.82962 0.68656 0.0
C24 C 0.33176 0.81724 0.69509 0.0
C25 C 0.34464 0.8233 0.72259 0.0
H26 H 0.79526 0.27354 0.83771 0.0
H27 H 0.70735 0.26402 0.79879 0.0
H28 H 0.7633 0.34173 0.78556 0.0
H29 H 0.7001 0.34472 0.80422 0.0
C30 C 0.68959 0.32872 0.78833 0.0
O31 O 0.71109 0.3147 0.77474 0.0
H32 H 0.6748 0.31278 0.80054 0.0
C33 C 0.77817 0.28177 0.824 0.0
C34 C 0.78294 0.30966 0.81216 0.0
C35 C 0.75105 0.2649 0.81944 0.0
C36 C 0.72881 0.27607 0.80203 0.0
C37 C 0.73331 0.30367 0.79001 0.0
C38 C 0.76032 0.32031 0.79487 0.0
H39 H 0.81917 0.74011 0.35102 0.0
H40 H 0.82194 0.68234 0.27818 0.0
H41 H 0.87507 0.76308 0.2785 0.0
H42 H 0.85313 0.74607 0.22071 0.0
C43 C 0.85006 0.7223 0.22374 0.0
O44 O 0.86173 0.71507 0.2504 0.0
H45 H 0.82579 0.7155 0.22249 0.0
C46 C 0.82697 0.73526 0.32965 0.0
C47 C 0.84765 0.75514 0.31621 0.0
C48 C 0.81746 0.70869 0.31636 0.0
C49 C 0.82895 0.70241 0.28914 0.0
C50 C 0.8497 0.72199 0.27575 0.0
C51 C 0.85901 0.74818 0.28922 0.0
H52 H 0.88468 0.92537 0.84719 0.0
H53 H 0.8701 0.86896 0.92091 0.0
H54 H 0.93832 0.85438 0.86104 0.0
H55 H 0.89234 0.8047 0.88158 0.0
C56 C 0.89655 0.80937 0.90511 0.0
O57 O 0.91188 0.83621 0.90843 0.0
H58 H 0.87473 0.80916 0.91584 0.0
C59 C 0.89038 0.90698 0.85991 0.0
C60 C 0.91357 0.89099 0.85089 0.0
C61 C 0.87445 0.89936 0.88517 0.0
C62 C 0.88218 0.87552 0.90156 0.0
C63 C 0.9049 0.85925 0.89261 0.0
C64 C 0.92049 0.86694 0.8674 0.0
H65 H 0.71677 0.13565 0.32222 0.0
H66 H 0.67598 0.21572 0.32503 0.0
H67 H 0.74902 0.20232 0.38267 0.0
H68 H 0.70703 0.23452 0.41077 0.0
C69 C 0.69441 0.24177 0.39149 0.0
O70 O 0.71052 0.23805 0.36685 0.0
H71 H 0.6727 0.22841 0.39024 0.0
C72 C 0.71552 0.15687 0.33138 0.0
C73 C 0.73541 0.16646 0.35404 0.0
C74 C 0.69405 0.17448 0.32045 0.0
C75 C 0.69259 0.20193 0.33266 0.0
C76 C 0.71228 0.21171 0.35513 0.0
C77 C 0.73371 0.19417 0.36555 0.0
H78 H 0.36307 0.67341 0.1091 0.0
H79 H 0.38305 0.64319 0.19553 0.0
H80 H 0.42258 0.72482 0.16648 0.0
H81 H 0.46215 0.70193 0.20792 0.0
C82 C 0.44708 0.68314 0.21497 0.0
O83 O 0.41799 0.68881 0.20984 0.0
H84 H 0.45244 0.66408 0.20219 0.0
C85 C 0.37506 0.67601 0.12971 0.0
C86 C 0.39372 0.70134 0.13482 0.0
C87 C 0.37059 0.65489 0.15156 0.0
C88 C 0.38576 0.6592 0.17844 0.0
C89 C 0.40429 0.68442 0.18367 0.0
C90 C 0.40805 0.70546 0.16206 0.0
H91 H 0.13814 0.32801 0.68991 0.0
H92 H 0.20121 0.38968 0.73254 0.0
H93 H 0.22826 0.342 0.66004 0.0
H94 H 0.26344 0.34604 0.71931 0.0
C95 C 0.26701 0.36992 0.71713 0.0
O96 O 0.24535 0.38035 0.69946 0.0
H97 H 0.26598 0.3793 0.73923 0.0
C98 C 0.16027 0.33906 0.69152 0.0
C99 C 0.18224 0.33236 0.67198 0.0
C100 C 0.16674 0.35992 0.71328 0.0
C101 C 0.19558 0.37387 0.71563 0.0
C102 C 0.21764 0.36702 0.69673 0.0
C103 C 0.21097 0.34657 0.67484 0.0
Zn104 Zn 0.99718 0.05773 0.55116 0.0
Zn105 Zn 0.06509 0.9936 0.49069 0.0
Zn106 Zn 0.03107 0.02611 0.5204 0.0
C107 C 0.08439 0.05112 0.47859 0.0
C108 C 0.00575 0.9799 0.4723 0.0
O109 O 0.0295 0.00918 0.56592 0.0
O110 O 0.9995 0.0365 0.58825 0.0
C111 C 0.04569 0.09425 0.53183 0.0
O112 O 0.06519 0.05509 0.49819 0.0
O113 O 0.08826 0.02589 0.47044 0.0
O114 O 0.03125 0.97103 0.47074 0.0
O115 O 1.0016 0.00189 0.4881 0.0
O116 O 0.02263 0.09443 0.54684 0.0
O117 O 0.05201 0.0708 0.5196 0.0
O118 O 0.98613 0.02437 0.4991 0.0
O119 O 0.96062 0.05171 0.52672 0.0
C120 C 0.96212 0.03631 0.50439 0.0
O121 O 0.05184 0.99643 0.55134 0.0
O122 O 0.0833 0.97498 0.52436 0.0
C123 C 0.01556 0.0157 0.58885 0.0
C124 C 0.07246 0.97918 0.54887 0.0
Zn125 Zn 0.52279 0.04916 0.97677 0.0
Zn126 Zn 0.57333 0.97887 0.04978 0.0
Zn127 Zn 0.54764 0.01277 0.01202 0.0
C128 C 0.61487 0.99436 0.0066 0.0
C129 C 0.52354 0.94706 0.02489 0.0
O130 O 0.5272 0.04508 0.03882 0.0
O131 O 0.50429 0.07164 0.00711 0.0
C132 C 0.58286 0.05309 0.96411 0.0
O133 O 0.59401 0.00973 0.99792 0.0
O134 O 0.61125 0.97833 0.02866 0.0
O135 O 0.54239 0.94618 0.04544 0.0
O136 O 0.52285 0.96971 0.00886 0.0
O137 O 0.55961 0.06518 0.95806 0.0
O138 O 0.58231 0.03252 0.98294 0.0
O139 O 0.51164 0.98712 0.98701 0.0
O140 O 0.49786 0.01906 0.95492 0.0
C141 C 0.49604 0.99357 0.9645 0.0
O142 O 0.54806 0.03212 0.05634 0.0
O143 O 0.57281 0.00357 0.0845 0.0
C144 C 0.5102 0.0653 0.03317 0.0
C145 C 0.55976 0.02622 0.08125 0.0
Zn146 Zn 0.58469 0.56643 0.55424 0.0
Zn147 Zn 0.50953 0.50189 0.48434 0.0
Zn148 Zn 0.54799 0.53349 0.51905 0.0
C149 C 0.56745 0.49462 0.46599 0.0
C150 C 0.49684 0.55918 0.47872 0.0
O151 O 0.5298 0.57588 0.52392 0.0
O152 O 0.55857 0.5984 0.55776 0.0
C153 C 0.56729 0.51511 0.584 0.0
O154 O 0.57438 0.51382 0.48569 0.0
O155 O 0.54056 0.48565 0.46119 0.0
O156 O 0.48929 0.53457 0.46814 0.0
O157 O 0.517 0.56225 0.49902 0.0
O158 O 0.58545 0.53733 0.586 0.0
O159 O 0.55015 0.51119 0.56134 0.0
O160 O 0.59157 0.53765 0.49791 0.0
O161 O 0.61729 0.57011 0.52556 0.0
C162 C 0.61522 0.55467 0.50294 0.0
O163 O 0.52493 0.49944 0.54583 0.0
O164 O 0.49091 0.47796 0.51589 0.0
C165 C 0.53587 0.59751 0.54116 0.0
C166 C 0.50256 0.48075 0.54103 0.0
Zn167 Zn 0.09062 0.53447 0.98354 0.0
Zn168 Zn 0.01261 0.47109 0.05149 0.0
Zn169 Zn 0.05181 0.50322 0.01788 0.0
C170 C 0.07031 0.46248 0.07192 0.0
C171 C 0.00348 0.45258 0.99375 0.0
O172 O 0.03924 0.54813 0.01613 0.0
O173 O 0.07223 0.5714 0.98756 0.0
C174 C 0.12275 0.51284 0.03058 0.0
O175 O 0.07736 0.48087 0.05164 0.0
O176 O 0.0433 0.45472 0.07661 0.0
O177 O 0.99361 0.4475 0.0189 0.0
O178 O 0.02539 0.47182 0.98991 0.0
O179 O 0.12624 0.52781 0.00777 0.0
O180 O 0.09669 0.50163 0.03742 0.0
O181 O 0.04947 0.48414 0.97383 0.0
O182 O 0.08198 0.51111 0.94782 0.0
C183 C 0.06293 0.48967 0.94976 0.0
O184 O 0.02229 0.53273 0.03748 0.0
O185 O 0.99259 0.50469 0.06542 0.0
C186 C 0.04939 0.5713 0.00291 0.0
C187 C 1.00104 0.52945 0.05579 0.0
H188 H 0.21347 0.16475 0.27012 0.0
H189 H 0.18732 0.14337 0.31203 0.0
H190 H 0.18561 0.22755 0.35009 0.0
H191 H 0.212 0.24923 0.30811 0.0
H192 H 0.20559 0.18021 0.38854 0.0
H193 H 0.09748 0.153 0.33089 0.0
H194 H 0.1295 0.14276 0.3123 0.0
H195 H 0.12512 0.18024 0.31792 0.0
C196 C 0.20772 0.17873 0.28748 0.0
C197 C 0.21487 0.20869 0.28582 0.0
C198 C 0.19258 0.1665 0.31129 0.0
C199 C 0.18433 0.18391 0.33401 0.0
C200 C 0.19167 0.21378 0.33268 0.0
H201 H 0.06592 0.10449 0.46703 0.0
H202 H 0.09037 0.14204 0.43593 0.0
C203 C 0.20661 0.22612 0.30867 0.0
C204 C 0.16832 0.17056 0.35914 0.0
H205 H 0.10428 0.13029 0.37673 0.0
C206 C 0.18327 0.16965 0.38614 0.0
C207 C 0.13909 0.15713 0.35603 0.0
C208 C 0.12166 0.15846 0.32781 0.0
C209 C 0.1703 0.15426 0.40968 0.0
C210 C 0.14177 0.13936 0.40601 0.0
C211 C 0.1262 0.14165 0.3795 0.0
C212 C 0.12889 0.11897 0.42817 0.0
C213 C 0.18741 0.15352 0.43812 0.0
C214 C 0.1426 0.09378 0.4344 0.0
C215 C 0.12868 0.07235 0.45196 0.0
C216 C 0.10081 0.07574 0.46384 0.0
C217 C 0.08761 0.10149 0.45859 0.0
C218 C 0.10146 0.12287 0.44071 0.0
H219 H 0.20462 0.17205 0.44014 0.0
H220 H 0.1723 0.15373 0.45682 0.0
H221 H 0.19879 0.13341 0.43931 0.0
H222 H 0.16349 0.09008 0.42456 0.0
H223 H 0.13932 0.05269 0.45553 0.0
H224 H 0.39135 0.85431 0.75359 0.0
H225 H 0.41511 0.87085 0.79938 0.0
H226 H 0.32975 0.86482 0.84021 0.0
H227 H 0.30573 0.84815 0.79432 0.0
H228 H 0.36018 0.91648 0.8493 0.0
H229 H 0.43438 0.83154 0.87503 0.0
H230 H 0.43936 0.84469 0.83864 0.0
H231 H 0.40419 0.82642 0.84863 0.0
C232 C 0.37766 0.85581 0.77246 0.0
C233 C 0.34661 0.84986 0.77025 0.0
C234 C 0.39132 0.8652 0.79871 0.0
C235 C 0.37432 0.86859 0.82344 0.0
C236 C 0.34337 0.86216 0.82149 0.0
H237 H 0.45905 0.94774 0.98454 0.0
H238 H 0.42715 0.91284 0.95479 0.0
C239 C 0.32965 0.85281 0.79519 0.0
C240 C 0.38858 0.88173 0.85025 0.0
H241 H 0.44829 0.87845 0.89671 0.0
C242 C 0.37897 0.90775 0.8601 0.0
C243 C 0.41296 0.87029 0.86461 0.0
C244 C 0.42312 0.84153 0.85637 0.0
C245 C 0.39437 0.92358 0.88246 0.0
C246 C 0.42007 0.91323 0.8952 0.0
C247 C 0.4286 0.88635 0.88678 0.0
C248 C 0.44056 0.93216 0.91375 0.0
C249 C 0.38406 0.95209 0.89136 0.0
C250 C 0.45881 0.95403 0.90045 0.0
C251 C 0.4771 0.97344 0.91721 0.0
C252 C 0.47768 0.97135 0.94768 0.0
C253 C 0.45968 0.9492 0.9611 0.0
C254 C 0.44129 0.92953 0.94418 0.0
H255 H 0.36085 0.95437 0.88385 0.0
H256 H 0.3855 0.95457 0.91535 0.0
H257 H 0.39874 0.96981 0.88168 0.0
H258 H 0.45853 0.95634 0.87701 0.0
H259 H 0.49074 0.9903 0.90627 0.0
H260 H 0.70808 0.37668 0.75738 0.0
H261 H 0.67932 0.4033 0.72227 0.0
H262 H 0.60313 0.34195 0.73402 0.0
H263 H 0.63184 0.31538 0.76927 0.0
H264 H 0.65011 0.38291 0.6698 0.0
H265 H 0.57139 0.42126 0.7493 0.0
H266 H 0.60589 0.4073 0.76041 0.0
H267 H 0.57483 0.38313 0.74855 0.0
C268 C 0.68519 0.36897 0.7524 0.0
C269 C 0.67201 0.34428 0.76616 0.0
C270 C 0.66882 0.38409 0.7324 0.0
C271 C 0.63898 0.37481 0.72589 0.0
C272 C 0.62595 0.34975 0.73915 0.0
H273 H 0.55182 0.45704 0.57867 0.0
H274 H 0.56291 0.41946 0.61356 0.0
C275 C 0.64236 0.33456 0.75913 0.0
C276 C 0.62179 0.39148 0.70511 0.0
H277 H 0.56565 0.43583 0.70062 0.0
C278 C 0.63141 0.39422 0.67638 0.0
C279 C 0.5975 0.40627 0.71392 0.0
C280 C 0.58679 0.40462 0.74475 0.0
C281 C 0.61795 0.41203 0.65638 0.0
C282 C 0.59396 0.42721 0.66529 0.0
C283 C 0.58381 0.42388 0.69382 0.0
C284 C 0.58181 0.44928 0.64636 0.0
C285 C 0.63047 0.41558 0.6263 0.0
C286 C 0.58725 0.47842 0.65392 0.0
C287 C 0.58069 0.49987 0.63422 0.0
C288 C 0.56838 0.49259 0.60662 0.0
C289 C 0.56099 0.46337 0.59986 0.0
C290 C 0.5676 0.44186 0.61964 0.0
H291 H 0.652 0.40602 0.62447 0.0
H292 H 0.6145 0.40475 0.61029 0.0
H293 H 0.63383 0.43874 0.62035 0.0
H294 H 0.59812 0.48459 0.67447 0.0
H295 H 0.5865 0.52218 0.64012 0.0
H296 H 0.83638 0.66816 0.20214 0.0
H297 H 0.86419 0.64223 0.16709 0.0
H298 H 0.92738 0.71679 0.15883 0.0
H299 H 0.89972 0.74264 0.19422 0.0
H300 H 0.88002 0.65637 0.10859 0.0
H301 H 0.97888 0.65159 0.18227 0.0
H302 H 0.94357 0.66102 0.1951 0.0
H303 H 0.96709 0.68678 0.17509 0.0
C304 C 0.856 0.67905 0.19252 0.0
C305 C 0.86573 0.70745 0.20043 0.0
C306 C 0.87185 0.66429 0.17257 0.0
C307 C 0.89791 0.67755 0.16052 0.0
C308 C 0.90748 0.70609 0.1681 0.0
H309 H 0.02498 0.58518 0.06334 0.0
H310 H 1.0005 0.62547 0.08325 0.0
C311 C 0.89161 0.72087 0.1881 0.0
C312 C 0.9154 0.66094 0.1408 0.0
H313 H 0.98 0.62856 0.13715 0.0
C314 C 0.90202 0.65053 0.11465 0.0
C315 C 0.94418 0.65354 0.14868 0.0
C316 C 0.95932 0.66358 0.17688 0.0
C317 C 0.91627 0.63215 0.09656 0.0
C318 C 0.94445 0.62361 0.10512 0.0
C319 C 0.95843 0.63516 0.13058 0.0
C320 C 0.9584 0.60047 0.08987 0.0
C321 C 0.90057 0.62171 0.06879 0.0
C322 C 0.94292 0.57311 0.08693 0.0
C323 C 0.95664 0.55036 0.0751 0.0
C324 C 0.98627 0.55437 0.06619 0.0
C325 C 0.00185 0.58172 0.06916 0.0
C326 C 0.98798 0.60464 0.08078 0.0
H327 H 0.88766 0.63871 0.05918 0.0
H328 H 0.91626 0.6151 0.05241 0.0
H329 H 0.88458 0.60292 0.07375 0.0
H330 H 0.9204 0.56911 0.09456 0.0
H331 H 0.94417 0.52944 0.07336 0.0
H332 H 0.31543 0.13924 0.21389 0.0
H333 H 0.36044 0.12069 0.1951 0.0
H334 H 0.36612 0.18771 0.13007 0.0
H335 H 0.32136 0.20642 0.14907 0.0
H336 H 0.36553 0.09986 0.13995 0.0
H337 H 0.45172 0.19016 0.15989 0.0
H338 H 0.41631 0.1875 0.17766 0.0
H339 H 0.41941 0.20123 0.14116 0.0
C340 C 0.32658 0.15016 0.19582 0.0
C341 C 0.31481 0.17397 0.18261 0.0
C342 C 0.35225 0.1396 0.18514 0.0
C343 C 0.36685 0.15295 0.16135 0.0
C344 C 0.35563 0.17737 0.14879 0.0
H345 H 0.48803 0.11765 0.03081 0.0
H346 H 0.45652 0.13837 0.06614 0.0
C347 C 0.32995 0.18791 0.15946 0.0
C348 C 0.39207 0.13987 0.14793 0.0
H349 H 0.46319 0.15492 0.12483 0.0
C350 C 0.38707 0.1117 0.13709 0.0
C351 C 0.42015 0.15536 0.14418 0.0
C352 C 0.42737 0.18514 0.15659 0.0
C353 C 0.4088 0.09912 0.1213 0.0
C354 C 0.43655 0.11496 0.11671 0.0
C355 C 0.44193 0.14279 0.1284 0.0
C356 C 0.45903 0.10399 0.09753 0.0
C357 C 0.40124 0.06956 0.10838 0.0
C358 C 0.47181 0.07825 0.10387 0.0
C359 C 0.48971 0.0662 0.08354 0.0
C360 C 0.49544 0.0799 0.05671 0.0
C361 C 0.48398 0.1065 0.05123 0.0
C362 C 0.46604 0.11844 0.07145 0.0
H363 H 0.37705 0.06278 0.10903 0.0
H364 H 0.40836 0.06899 0.08546 0.0
H365 H 0.41314 0.0536 0.12091 0.0
H366 H 0.46706 0.06695 0.12407 0.0
H367 H 0.4978 0.0455 0.08828 0.0
H368 H 0.28243 0.87234 0.65201 0.0
H369 H 0.2392 0.89641 0.63576 0.0
H370 H 0.20008 0.88243 0.71983 0.0
H371 H 0.24315 0.85762 0.73614 0.0
H372 H 0.16016 0.86864 0.67308 0.0
H373 H 0.21872 0.97709 0.65899 0.0
H374 H 0.23669 0.94971 0.6407 0.0
H375 H 0.23456 0.94903 0.67971 0.0
C376 C 0.26457 0.87417 0.66702 0.0
C377 C 0.26626 0.86302 0.69538 0.0
C378 C 0.24002 0.88827 0.65781 0.0
C379 C 0.21666 0.89168 0.67675 0.0
C380 C 0.21801 0.88029 0.70496 0.0
H381 H 0.08398 1.00087 0.60377 0.0
H382 H 0.1139 0.97977 0.64226 0.0
C383 C 0.24268 0.86624 0.71427 0.0
C384 C 0.19053 0.90635 0.66646 0.0
H385 H 0.17192 0.96789 0.63309 0.0
C386 C 0.16258 0.89054 0.66483 0.0
C387 C 0.19348 0.93513 0.65632 0.0
C388 C 0.22242 0.95384 0.65928 0.0
C389 C 0.13807 0.90204 0.65131 0.0
C390 C 0.14175 0.92987 0.63882 0.0
C391 C 0.16911 0.94645 0.64244 0.0
C392 C 0.11923 0.9406 0.61853 0.0
C393 C 0.10866 0.88396 0.64977 0.0
C394 C 0.11187 0.9254 0.59274 0.0
C395 C 0.095 0.93739 0.5709 0.0
C396 C 0.08503 0.96482 0.57436 0.0
C397 C 0.09103 0.9795 0.60075 0.0
C398 C 0.10822 0.96754 0.62264 0.0
H399 H 0.10641 0.86866 0.66832 0.0
H400 H 0.08973 0.89759 0.64974 0.0
H401 H 0.10732 0.87112 0.62945 0.0
H402 H 0.12062 0.90493 0.58874 0.0
H403 H 0.09082 0.92568 0.55071 0.0
H404 H 0.78752 0.36704 0.82577 0.0
H405 H 0.83044 0.39568 0.84686 0.0
H406 H 0.88255 0.32295 0.84067 0.0
H407 H 0.84019 0.2946 0.81805 0.0
H408 H 0.85266 0.38208 0.89805 0.0
H409 H 0.94344 0.38765 0.81891 0.0
H410 H 0.90515 0.37731 0.80861 0.0
H411 H 0.92778 0.35139 0.82474 0.0
C412 C 0.8084 0.35741 0.82781 0.0
C413 C 0.81028 0.32838 0.82041 0.0
C414 C 0.83291 0.3738 0.84007 0.0
C415 C 0.8598 0.36155 0.84525 0.0
C416 C 0.86226 0.33309 0.83643 0.0
H417 H 0.9763 0.39818 0.99214 0.0
H418 H 0.94402 0.37633 0.95329 0.0
C419 C 0.83782 0.31674 0.82391 0.0
C420 C 0.88345 0.37691 0.86373 0.0
H421 H 0.95807 0.39702 0.86898 0.0
C422 C 0.87561 0.38566 0.89146 0.0
C423 C 0.9134 0.38174 0.85515 0.0
C424 C 0.92291 0.37429 0.8251 0.0
C425 C 0.89694 0.39825 0.91116 0.0
C426 C 0.92711 0.40161 0.90321 0.0
C427 C 0.93496 0.3939 0.87514 0.0
C428 C 0.95051 0.41284 0.92424 0.0
C429 C 0.88697 0.40779 0.94043 0.0
C430 C 0.96583 0.44004 0.92014 0.0
C431 C 0.98432 0.45254 0.94231 0.0
C432 C 0.98793 0.43785 0.9687 0.0
C433 C 0.97382 0.40998 0.97205 0.0
C434 C 0.95543 0.3975 0.94991 0.0
H435 H 0.8628 0.41055 0.94028 0.0
H436 H 0.89132 0.3912 0.95694 0.0
H437 H 0.89938 0.42843 0.94718 0.0
H438 H 0.96226 0.45219 0.90047 0.0
H439 H 0.99456 0.47424 0.93936 0.0
H440 H 0.77003 0.7193 0.34972 0.0
H441 H 0.73752 0.68475 0.37674 0.0
H442 H 0.78248 0.61496 0.34225 0.0
H443 H 0.81658 0.64951 0.3168 0.0
H444 H 0.69863 0.64192 0.36011 0.0
H445 H 0.78731 0.59732 0.42722 0.0
H446 H 0.79436 0.62886 0.4048 0.0
H447 H 0.79151 0.59353 0.38879 0.0
C448 C 0.77342 0.69666 0.3482 0.0
C449 C 0.7963 0.68736 0.3313 0.0
C450 C 0.75454 0.67686 0.36344 0.0
C451 C 0.75785 0.64724 0.36199 0.0
C452 C 0.77992 0.63772 0.34433 0.0
H453 H 0.61334 0.53851 0.44527 0.0
H454 H 0.64933 0.55408 0.4082 0.0
C455 C 0.79914 0.65757 0.32937 0.0
C456 C 0.73817 0.62667 0.37924 0.0
H457 H 0.73831 0.57712 0.4341 0.0
C458 C 0.70728 0.62759 0.37617 0.0
C459 C 0.74951 0.60803 0.40025 0.0
C460 C 0.78247 0.60698 0.40572 0.0
C461 C 0.68747 0.61141 0.39429 0.0
C462 C 0.69881 0.59291 0.41546 0.0
C463 C 0.72964 0.59106 0.41769 0.0
C464 C 0.67957 0.5785 0.43799 0.0
C465 C 0.65478 0.6157 0.39168 0.0
C466 C 0.68567 0.58513 0.46735 0.0
C467 C 0.66564 0.57551 0.48866 0.0
C468 C 0.63889 0.55916 0.48111 0.0
C469 C 0.63377 0.55081 0.45195 0.0
C470 C 0.65412 0.56015 0.43061 0.0
H471 H 0.65071 0.63521 0.3788 0.0
H472 H 0.64288 0.59683 0.38055 0.0
H473 H 0.64507 0.61772 0.41345 0.0
H474 H 0.70524 0.59906 0.47368 0.0
H475 H 0.67049 0.58217 0.51091 0.0
H476 H 0.22522 0.26282 0.16211 0.0
H477 H 0.20363 0.3021 0.13623 0.0
H478 H 0.19414 0.34577 0.21748 0.0
H479 H 0.21628 0.30676 0.24355 0.0
H480 H 0.14636 0.31861 0.14533 0.0
H481 H 0.23211 0.4101 0.16415 0.0
H482 H 0.23973 0.37295 0.16878 0.0
H483 H 0.2205 0.39063 0.19634 0.0
C484 C 0.2191 0.28104 0.17445 0.0
C485 C 0.22257 0.28168 0.20492 0.0
C486 C 0.20664 0.30342 0.15963 0.0
C487 C 0.19764 0.32705 0.17487 0.0
C488 C 0.20142 0.32799 0.20522 0.0
H489 H 0.06607 0.44106 0.12675 0.0
H490 H 0.0997 0.41032 0.1516 0.0
C491 C 0.21376 0.30553 0.22012 0.0
C492 C 0.18216 0.34947 0.15922 0.0
H493 H 0.18547 0.42161 0.14414 0.0
C494 C 0.15503 0.34108 0.14491 0.0
C495 C 0.19361 0.37876 0.15852 0.0
C496 C 0.22322 0.38873 0.17253 0.0
C497 C 0.13866 0.36126 0.1306 0.0
C498 C 0.14959 0.39066 0.13071 0.0
C499 C 0.17709 0.39906 0.14431 0.0
C500 C 0.13194 0.41278 0.11746 0.0
C501 C 0.1096 0.35107 0.11556 0.0
C502 C 0.13949 0.42509 0.09043 0.0
C503 C 0.12019 0.44263 0.07607 0.0
C504 C 0.09326 0.4483 0.0887 0.0
C505 C 0.08665 0.43709 0.11645 0.0
C506 C 0.10582 0.41956 0.1307 0.0
H507 H 0.10699 0.3273 0.11281 0.0
H508 H 0.09092 0.35735 0.12871 0.0
H509 H 0.10789 0.36136 0.09386 0.0
H510 H 0.15952 0.41997 0.07983 0.0
H511 H 0.12559 0.45042 0.05447 0.0
H512 H 0.76844 0.25044 0.87473 0.0
H513 H 0.7548 0.20605 0.90115 0.0
H514 H 0.70395 0.17223 0.82649 0.0
H515 H 0.71928 0.21569 0.79913 0.0
H516 H 0.70156 0.18923 0.91617 0.0
H517 H 0.74027 0.10136 0.85134 0.0
H518 H 0.75322 0.13863 0.84522 0.0
H519 H 0.71876 0.12337 0.82877 0.0
C520 C 0.75529 0.23319 0.86345 0.0
C521 C 0.74501 0.23676 0.83467 0.0
C522 C 0.74731 0.20783 0.87875 0.0
C523 C 0.72869 0.18553 0.86576 0.0
C524 C 0.71901 0.1887 0.83681 0.0
H525 H 0.58858 0.07039 0.90837 0.0
H526 H 0.63152 0.09743 0.88689 0.0
C527 C 0.72734 0.21389 0.82133 0.0
C528 C 0.71607 0.16088 0.88352 0.0
H529 H 0.69709 0.08827 0.88151 0.0
C530 C 0.70137 0.16706 0.90903 0.0
C531 C 0.71589 0.13189 0.87437 0.0
C532 C 0.7332 0.12344 0.84858 0.0
C533 C 0.68464 0.14543 0.92432 0.0
C534 C 0.6826 0.11684 0.91386 0.0
C535 C 0.69872 0.11026 0.88942 0.0
C536 C 0.65991 0.09503 0.92509 0.0
C537 C 0.66747 0.15362 0.95036 0.0
C538 C 0.66215 0.08376 0.95332 0.0
C539 C 0.63755 0.06815 0.96565 0.0
C540 C 0.61056 0.06388 0.94986 0.0
C541 C 0.60914 0.07354 0.92099 0.0
C542 C 0.63367 0.08882 0.90866 0.0
H543 H 0.66987 0.1772 0.95444 0.0
H544 H 0.64349 0.14651 0.94719 0.0
H545 H 0.67556 0.14258 0.97 0.0
H546 H 0.6823 0.08838 0.96629 0.0
H547 H 0.63907 0.06105 0.98803 0.0
H548 H 0.81433 0.79267 0.34378 0.0
H549 H 0.83202 0.83772 0.3685 0.0
H550 H 0.92217 0.82432 0.34692 0.0
H551 H 0.90466 0.77964 0.32201 0.0
H552 H 0.8684 0.84623 0.4147 0.0
H553 H 0.91875 0.9068 0.32225 0.0
H554 H 0.89419 0.87433 0.31736 0.0
H555 H 0.93314 0.87234 0.3256 0.0
C556 C 0.83791 0.79945 0.34424 0.0
C557 C 0.8581 0.78273 0.33077 0.0
C558 C 0.84796 0.82523 0.35824 0.0
C559 C 0.87835 0.83477 0.359 0.0
C560 C 0.89852 0.81794 0.34579 0.0
H561 H 0.99167 0.92332 0.47998 0.0
H562 H 0.95453 0.89186 0.45333 0.0
C563 C 0.8885 0.79232 0.33166 0.0
C564 C 0.88945 0.86123 0.37519 0.0
H565 H 0.93763 0.92172 0.37014 0.0
C566 C 0.88307 0.86303 0.40481 0.0
C567 C 0.90795 0.88362 0.36221 0.0
C568 C 0.91361 0.88435 0.33002 0.0
C569 C 0.89651 0.88542 0.42223 0.0
C570 C 0.91739 0.90614 0.40984 0.0
C571 C 0.92197 0.9056 0.37978 0.0
C572 C 0.93732 0.92616 0.42803 0.0
C573 C 0.88874 0.88623 0.45392 0.0
C574 C 0.94046 0.95594 0.42238 0.0
C575 C 0.96202 0.97397 0.43752 0.0
C576 C 0.98065 0.96241 0.45841 0.0
C577 C 0.97721 0.93276 0.46424 0.0
C578 C 0.95581 0.91482 0.44921 0.0
H579 H 0.86562 0.87671 0.45733 0.0
H580 H 0.90385 0.87324 0.46665 0.0
H581 H 0.89104 0.90858 0.46249 0.0
H582 H 0.92685 0.96507 0.4057 0.0
H583 H 0.96523 0.99648 0.43178 0.0
H584 H 0.35699 0.79426 0.59951 0.0
H585 H 0.3802 0.75641 0.57369 0.0
H586 H 0.42549 0.73442 0.65305 0.0
H587 H 0.40211 0.77211 0.67892 0.0
H588 H 0.44047 0.75253 0.56664 0.0
H589 H 0.38983 0.65594 0.62344 0.0
H590 H 0.37514 0.69062 0.62563 0.0
H591 H 0.40663 0.68285 0.64795 0.0
C592 C 0.37167 0.78111 0.61145 0.0
C593 C 0.37786 0.78605 0.64118 0.0
C594 C 0.38492 0.75955 0.5967 0.0
C595 C 0.40432 0.74235 0.61149 0.0
C596 C 0.41016 0.74702 0.6413 0.0
H597 H 0.5493 0.65211 0.56103 0.0
H598 H 0.51482 0.68746 0.57288 0.0
C599 C 0.39696 0.7686 0.65603 0.0
C600 C 0.41979 0.72063 0.59553 0.0
H601 H 0.43349 0.64977 0.59623 0.0
C602 C 0.43864 0.72999 0.57285 0.0
C603 C 0.41704 0.69111 0.60325 0.0
C604 C 0.39583 0.67943 0.6262 0.0
C605 C 0.45596 0.71091 0.55875 0.0
C606 C 0.45466 0.68181 0.56781 0.0
C607 C 0.43466 0.67213 0.58943 0.0
C608 C 0.47559 0.66166 0.55704 0.0
C609 C 0.47577 0.72217 0.53452 0.0
C610 C 0.46507 0.63534 0.54404 0.0
C611 C 0.48484 0.61497 0.53724 0.0
C612 C 0.51541 0.62047 0.54363 0.0
C613 C 0.5259 0.64723 0.55574 0.0
C614 C 0.50622 0.66757 0.56238 0.0
H615 H 0.46749 0.74156 0.52416 0.0
H616 H 0.49841 0.7284 0.54354 0.0
H617 H 0.47745 0.70551 0.51758 0.0
H618 H 0.44148 0.63024 0.53995 0.0
H619 H 0.47597 0.59439 0.5284 0.0
H620 H 0.93114 0.856 0.80788 0.0
H621 H 0.95813 0.87039 0.76375 0.0
H622 H 0.96046 0.95947 0.78937 0.0
H623 H 0.93423 0.94526 0.83375 0.0
H624 H 0.93952 0.90595 0.71998 0.0
H625 H 0.04663 0.95216 0.76778 0.0
H626 H 0.02022 0.92908 0.78809 0.0
H627 H 0.01535 0.96677 0.78371 0.0
C628 C 0.93784 0.87862 0.80433 0.0
C629 C 0.93053 0.89949 0.82436 0.0
C630 C 0.95316 0.8868 0.77906 0.0
C631 C 0.96177 0.91596 0.77349 0.0
C632 C 0.95463 0.9368 0.7935 0.0
H633 H 0.01023 0.03479 0.64377 0.0
H634 H 0.00251 0.00603 0.68773 0.0
C635 C 0.93926 0.92867 0.81868 0.0
C636 C 0.97633 0.92499 0.74588 0.0
H637 H 0.03536 0.96692 0.71882 0.0
C638 C 0.96078 0.91876 0.71959 0.0
C639 C 0.00415 0.94155 0.74544 0.0
C640 C 0.02271 0.94755 0.77276 0.0
C641 C 0.97126 0.93037 0.69313 0.0
C642 C 0.9983 0.94828 0.69292 0.0
C643 C 0.01465 0.95318 0.719 0.0
C644 C 0.00761 0.96533 0.66683 0.0
C645 C 0.95234 0.92492 0.66592 0.0
C646 C 0.01421 0.95211 0.64061 0.0
C647 C 0.01857 0.96862 0.61524 0.0
C648 C 0.01655 0.99853 0.61589 0.0
C649 C 0.01176 0.01176 0.64256 0.0
C650 C 0.00744 0.99536 0.66775 0.0
H651 H 0.92998 0.91421 0.67065 0.0
H652 H 0.94953 0.94546 0.65434 0.0
H653 H 0.96351 0.91081 0.6511 0.0
H654 H 0.01488 0.92898 0.63952 0.0
H655 H 0.02196 0.95782 0.59495 0.0
H656 H 0.66537 0.12058 0.31254 0.0
H657 H 0.6342 0.10303 0.27109 0.0
H658 H 0.64364 0.18772 0.23259 0.0
H659 H 0.67579 0.20524 0.27345 0.0
H660 H 0.58052 0.12066 0.24747 0.0
H661 H 0.67282 0.13647 0.16916 0.0
H662 H 0.67922 0.13786 0.20798 0.0
H663 H 0.6651 0.16781 0.18927 0.0
C664 C 0.66103 0.13546 0.29517 0.0
C665 C 0.67344 0.16424 0.29618 0.0
C666 C 0.64295 0.12546 0.27163 0.0
C667 C 0.63693 0.14397 0.24857 0.0
C668 C 0.64838 0.17295 0.24994 0.0
H669 H 0.56177 0.08515 0.0791 0.0
H670 H 0.57395 0.11855 0.11967 0.0
C671 C 0.66654 0.18298 0.27346 0.0
C672 C 0.61968 0.13241 0.22269 0.0
H673 H 0.62675 0.11629 0.151 0.0
C674 C 0.59049 0.11998 0.22629 0.0
C675 C 0.63265 0.13172 0.195 0.0
C676 C 0.66423 0.14396 0.19 0.0
C677 C 0.57426 0.10609 0.20315 0.0
C678 C 0.58776 0.10423 0.17586 0.0
C679 C 0.61638 0.11787 0.1719 0.0
C680 C 0.57452 0.08511 0.15236 0.0
C681 C 0.54301 0.0931 0.20825 0.0
C682 C 0.57011 0.05535 0.15739 0.0
C683 C 0.56325 0.03635 0.13436 0.0
C684 C 0.56064 0.0467 0.10579 0.0
C685 C 0.56328 0.0766 0.10094 0.0
C686 C 0.57037 0.09567 0.12406 0.0
H687 H 0.53252 0.10449 0.22595 0.0
H688 H 0.52891 0.09379 0.18823 0.0
H689 H 0.54365 0.07026 0.2149 0.0
H690 H 0.57379 0.04663 0.17887 0.0
H691 H 0.56141 0.01342 0.13873 0.0
H692 H 0.44745 0.72224 0.25917 0.0
H693 H 0.45548 0.71401 0.31152 0.0
H694 H 0.46502 0.62442 0.2945 0.0
H695 H 0.45691 0.63252 0.24244 0.0
H696 H 0.42221 0.67238 0.34926 0.0
H697 H 0.54142 0.65449 0.34213 0.0
H698 H 0.5217 0.67262 0.31397 0.0
H699 H 0.51812 0.63394 0.31614 0.0
C700 C 0.45137 0.70087 0.26676 0.0
C701 C 0.45198 0.67808 0.24691 0.0
C702 C 0.45588 0.6962 0.29652 0.0
C703 C 0.46128 0.66873 0.30672 0.0
C704 C 0.4614 0.64588 0.28694 0.0
H705 H 0.44568 0.56085 0.44688 0.0
H706 H 0.43534 0.59702 0.41078 0.0
C707 C 0.45672 0.65049 0.25728 0.0
C708 C 0.4665 0.66344 0.33803 0.0
H709 H 0.51632 0.63587 0.38452 0.0
C710 C 0.44297 0.66496 0.35722 0.0
C711 C 0.49379 0.65445 0.34848 0.0
C712 C 0.52033 0.65403 0.32918 0.0
C713 C 0.44531 0.65543 0.38611 0.0
C714 C 0.47169 0.64384 0.39576 0.0
C715 C 0.496 0.64461 0.37717 0.0
C716 C 0.47325 0.62669 0.42286 0.0
C717 C 0.41919 0.65698 0.4057 0.0
C718 C 0.49744 0.63169 0.44246 0.0
C719 C 0.50354 0.6108 0.46311 0.0
C720 C 0.48568 0.58452 0.46419 0.0
C721 C 0.4599 0.58085 0.44647 0.0
C722 C 0.45381 0.60169 0.42594 0.0
H723 H 0.40651 0.67558 0.39981 0.0
H724 H 0.4039 0.63711 0.40299 0.0
H725 H 0.42636 0.6589 0.4289 0.0
H726 H 0.51282 0.65077 0.44037 0.0
H727 H 0.52367 0.6142 0.47632 0.0
H728 H 0.15311 0.4131 0.72991 0.0
H729 H 0.11974 0.42471 0.76846 0.0
H730 H 0.09526 0.33423 0.78234 0.0
H731 H 0.1289 0.32238 0.74379 0.0
H732 H 0.05429 0.40571 0.77896 0.0
H733 H 0.1358 0.36847 0.86046 0.0
H734 H 0.14644 0.37723 0.82368 0.0
H735 H 0.12302 0.34498 0.83092 0.0
C736 C 0.1404 0.39568 0.74098 0.0
C737 C 0.14384 0.36684 0.73411 0.0
C738 C 0.12119 0.40234 0.76279 0.0
C739 C 0.10521 0.38031 0.77826 0.0
C740 C 0.10747 0.3515 0.77061 0.0
H741 H 0.04978 0.4312 0.94997 0.0
H742 H 0.04952 0.39868 0.90816 0.0
C743 C 0.1266 0.34479 0.74859 0.0
C744 C 0.08889 0.38788 0.80423 0.0
H745 H 0.09862 0.39527 0.87755 0.0
C746 C 0.06351 0.40289 0.80063 0.0
C747 C 0.10078 0.38383 0.83245 0.0
C748 C 0.12806 0.36784 0.83738 0.0
C749 C 0.05075 0.41547 0.82448 0.0
C750 C 0.06433 0.41368 0.85233 0.0
C751 C 0.08827 0.39673 0.85618 0.0
C752 C 0.05768 0.43282 0.87656 0.0
C753 C 0.02344 0.43133 0.81948 0.0
C754 C 0.06176 0.46279 0.87262 0.0
C755 C 0.06181 0.48129 0.89636 0.0
C756 C 0.05784 0.47023 0.92455 0.0
C757 C 0.05238 0.44032 0.92841 0.0
C758 C 0.05232 0.42173 0.90457 0.0
H759 H 0.00946 0.42151 0.80131 0.0
H760 H 0.0098 0.43132 0.83928 0.0
H761 H 0.03031 0.45397 0.81341 0.0
H762 H 0.06679 0.47188 0.85142 0.0
H763 H 0.0662 0.50426 0.8928 0.0
H764 H 0.83084 0.91994 0.85062 0.0
H765 H 0.78838 0.94494 0.86581 0.0
H766 H 0.81804 0.93975 0.95521 0.0
H767 H 0.86098 0.91564 0.94015 0.0
H768 H 0.74412 0.92359 0.90155 0.0
H769 H 0.80041 0.02344 0.94904 0.0
H770 H 0.81918 1.00004 0.92586 0.0
H771 H 0.81468 0.99168 0.96382 0.0
C772 C 0.82868 0.92467 0.87346 0.0
C773 C 0.84939 0.91581 0.89416 0.0
C774 C 0.8043 0.93883 0.88211 0.0
C775 C 0.80025 0.94465 0.9116 0.0
C776 C 0.82102 0.93609 0.93227 0.0
H777 H 0.66896 0.98378 0.02865 0.0
H778 H 0.71366 0.97614 0.00194 0.0
C779 C 0.84537 0.92194 0.92366 0.0
C780 C 0.7732 0.95763 0.9211 0.0
H781 H 0.74985 0.01108 0.96322 0.0
C782 C 0.7453 0.94303 0.91457 0.0
C783 C 0.77476 0.98305 0.938 0.0
C784 C 0.80386 1.00063 0.94435 0.0
C785 C 0.7191 0.95217 0.9259 0.0
C786 C 0.72082 0.97686 0.9439 0.0
C787 C 0.74857 0.99217 0.94942 0.0
C788 C 0.6946 0.98511 0.95973 0.0
C789 C 0.69 0.93442 0.91987 0.0
C790 C 0.66925 0.99355 0.94494 0.0
C791 C 0.64351 0.99786 0.96022 0.0
C792 C 0.64286 0.99398 0.99052 0.0
C793 C 0.66874 0.98684 0.0053 0.0
C794 C 0.69436 0.98258 0.99009 0.0
H795 H 0.69323 0.91342 0.90962 0.0
H796 H 0.67765 0.93027 0.94029 0.0
H797 H 0.67603 0.94647 0.90492 0.0
H798 H 0.6691 0.99596 0.92153 0.0
H799 H 0.62379 0.00297 0.94821 0.0
H800 H 0.75244 0.15924 0.41089 0.0
H801 H 0.79062 0.12985 0.43005 0.0
H802 H 0.80676 0.10086 0.34351 0.0
H803 H 0.76913 0.13084 0.32388 0.0
H804 H 0.79769 0.05684 0.40092 0.0
H805 H 0.88539 0.14897 0.40285 0.0
H806 H 0.8485 0.15534 0.41393 0.0
H807 H 0.85479 0.14681 0.37676 0.0
C808 C 0.7642 0.14679 0.39584 0.0
C809 C 0.75781 0.1476 0.36578 0.0
C810 C 0.7858 0.12982 0.40688 0.0
C811 C 0.80136 0.11322 0.38816 0.0
C812 C 0.79478 0.11343 0.35827 0.0
H813 H 0.9666 0.04647 0.44657 0.0
H814 H 0.92678 0.05931 0.41331 0.0
C815 C 0.77321 0.13051 0.34714 0.0
C816 C 0.82549 0.09683 0.39992 0.0
H817 H 0.89701 0.10599 0.42571 0.0
C818 C 0.81955 0.0674 0.40608 0.0
C819 C 0.85395 0.11069 0.40631 0.0
C820 C 0.86134 0.14218 0.39957 0.0
C821 C 0.84123 0.05165 0.41948 0.0
C822 C 0.86934 0.06586 0.42709 0.0
C823 C 0.87551 0.09505 0.41983 0.0
C824 C 0.89192 0.05185 0.44471 0.0
C825 C 0.83382 0.02004 0.42555 0.0
C826 C 0.88544 0.04252 0.4731 0.0
C827 C 0.90812 0.03488 0.49195 0.0
C828 C 0.93763 0.03629 0.4827 0.0
C829 C 0.94387 0.04416 0.45387 0.0
C830 C 0.92119 0.05183 0.43499 0.0
H831 H 0.81589 0.01057 0.41065 0.0
H832 H 0.85365 0.00783 0.42338 0.0
H833 H 0.82585 0.01735 0.44812 0.0
H834 H 0.86323 0.04304 0.48135 0.0
H835 H 0.90289 0.02955 0.5143 0.0
H836 H 0.36018 0.62252 0.10207 0.0
H837 H 0.31915 0.5857 0.0924 0.0
H838 H 0.291 0.59182 0.1809 0.0
H839 H 0.33102 0.62965 0.19043 0.0
H840 H 0.29885 0.53168 0.11726 0.0
H841 H 0.21973 0.61506 0.13304 0.0
H842 H 0.25918 0.62418 0.13012 0.0
H843 H 0.24425 0.60906 0.16325 0.0
C844 C 0.3453 0.61603 0.11952 0.0
C845 C 0.3486 0.62947 0.14687 0.0
C846 C 0.32207 0.59473 0.11404 0.0
C847 C 0.30177 0.5864 0.13581 0.0
C848 C 0.30618 0.59828 0.16369 0.0
H849 H 0.12347 0.51018 0.08997 0.0
H850 H 0.16728 0.51891 0.12218 0.0
C851 C 0.32927 0.61974 0.16914 0.0
C852 C 0.27448 0.56764 0.12825 0.0
H853 H 0.19994 0.56997 0.11664 0.0
C854 C 0.27712 0.53983 0.11754 0.0
C855 C 0.24613 0.57826 0.12881 0.0
C856 C 0.24198 0.60832 0.1392 0.0
C857 C 0.25227 0.52283 0.10622 0.0
C858 C 0.22428 0.53418 0.10522 0.0
C859 C 0.22139 0.56123 0.11758 0.0
C860 C 0.19892 0.52103 0.0874 0.0
C861 C 0.25636 0.49322 0.09476 0.0
C862 C 0.20224 0.51833 0.05732 0.0
C863 C 0.17734 0.51335 0.03899 0.0
C864 C 0.14864 0.51102 0.05038 0.0
C865 C 0.14536 0.51155 0.08065 0.0
C866 C 0.17036 0.51661 0.09905 0.0
H867 H 0.2748 0.48364 0.10657 0.0
H868 H 0.23574 0.4785 0.09667 0.0
H869 H 0.26222 0.4949 0.07149 0.0
H870 H 0.2239 0.52232 0.04772 0.0
H871 H 0.18048 0.51306 0.01572 0.0
H872 H 0.30639 0.41676 0.7296 0.0
H873 H 0.35262 0.43225 0.70451 0.0
H874 H 0.33982 0.3572 0.64953 0.0
H875 H 0.29358 0.34177 0.67446 0.0
H876 H 0.4068 0.40127 0.69273 0.0
H877 H 0.34116 0.42958 0.5948 0.0
H878 H 0.32489 0.42439 0.63013 0.0
H879 H 0.33246 0.39382 0.60877 0.0
C880 C 0.31383 0.40338 0.71251 0.0
C881 C 0.29681 0.37792 0.70411 0.0
C882 C 0.34016 0.41218 0.69828 0.0
C883 C 0.34952 0.39584 0.67523 0.0
C884 C 0.33289 0.37006 0.66729 0.0
H885 H 0.47319 0.42751 0.53783 0.0
H886 H 0.44015 0.40438 0.57395 0.0
C887 C 0.30662 0.36125 0.68151 0.0
C888 C 0.37526 0.40685 0.65788 0.0
H889 H 0.39321 0.43278 0.59063 0.0
C890 C 0.40398 0.4082 0.6704 0.0
C891 C 0.3713 0.41605 0.6289 0.0
C892 C 0.34081 0.41618 0.61482 0.0
C893 C 0.42906 0.41786 0.65426 0.0
C894 C 0.42506 0.4267 0.62513 0.0
C895 C 0.39625 0.42568 0.61288 0.0
C896 C 0.45006 0.43741 0.60654 0.0
C897 C 0.45957 0.41797 0.66823 0.0
C898 C 0.46756 0.46307 0.61337 0.0
C899 C 0.48674 0.47622 0.59278 0.0
C900 C 0.48828 0.46405 0.56501 0.0
C901 C 0.47227 0.43742 0.55902 0.0
C902 C 0.45342 0.42418 0.57963 0.0
H903 H 0.45945 0.4038 0.68769 0.0
H904 H 0.47581 0.41086 0.65261 0.0
H905 H 0.46725 0.44021 0.67523 0.0
H906 H 0.46494 0.47391 0.6338 0.0
H907 H 0.49862 0.49689 0.59783 0.0
H908 H 0.92007 0.80805 0.96054 0.0
H909 H 0.94727 0.77021 0.98333 0.0
H910 H 0.93696 0.7207 0.90415 0.0
H911 H 0.91052 0.75864 0.88123 0.0
H912 H 0.93039 0.71286 0.99361 0.0
H913 H 0.02582 0.7238 0.91974 0.0
H914 H 0.99921 0.75033 0.9214 0.0
H915 H 0.99092 0.71797 0.90039 0.0
C916 C 0.92402 0.78921 0.94798 0.0
C917 C 0.91386 0.78654 0.91894 0.0
C918 C 0.93935 0.76758 0.96103 0.0
C919 C 0.94467 0.74288 0.94526 0.0
C920 C 0.93383 0.73989 0.91649 0.0
H921 H 0.98943 0.57483 0.99995 0.0
H922 H 0.96386 0.61823 0.99084 0.0
C923 C 0.91866 0.76153 0.90343 0.0
C924 C 0.9613 0.72002 0.95877 0.0
H925 H 0.02035 0.68087 0.94828 0.0
C926 C 0.95028 0.70605 0.98394 0.0
C927 C 0.98753 0.71146 0.94646 0.0
C928 C 0.00176 0.72687 0.92069 0.0
C929 C 0.96416 0.683 0.99644 0.0
C930 C 0.98936 0.67333 0.98305 0.0
C931 C 1.00091 0.68804 0.95849 0.0
C932 C 0.00386 0.64761 0.99329 0.0
C933 C 0.95156 0.66926 0.02375 0.0
C934 C 0.03481 0.64953 0.99791 0.0
C935 C 0.04943 0.62473 0.00261 0.0
C936 C 0.03336 0.59752 0.00319 0.0
C937 C 0.00225 0.59562 1.00009 0.0
C938 C 0.98763 0.62046 0.995 0.0
H939 H 0.93981 0.68473 0.03655 0.0
H940 H 0.93512 0.65108 0.01756 0.0
H941 H 0.96912 0.66084 0.03779 0.0
H942 H 0.04785 0.67017 0.99669 0.0
H943 H 0.07345 0.62673 0.00484 0.0
H944 H 0.39157 0.75917 0.14097 0.0
H945 H 0.40339 0.79673 0.10494 0.0
H946 H 0.41749 0.73212 0.04106 0.0
H947 H 0.40597 0.69421 0.07738 0.0
H948 H 0.46449 0.77412 0.04707 0.0
H949 H 0.36002 0.82572 0.03359 0.0
H950 H 0.36897 0.82091 0.07133 0.0
H951 H 0.36121 0.78982 0.0483 0.0
C952 C 0.39688 0.75294 0.11917 0.0
C953 C 0.39804 0.7238 0.11202 0.0
C954 C 0.40323 0.77439 0.09847 0.0
C955 C 0.41078 0.76721 0.07015 0.0
C956 C 0.41131 0.73808 0.06268 0.0
H957 H 0.51307 0.91012 0.9788 0.0
H958 H 0.48068 0.8645 0.97881 0.0
C959 C 0.40471 0.7165 0.0834 0.0
C960 C 0.42163 0.79048 0.04998 0.0
H961 H 0.40587 0.85728 0.02743 0.0
C962 C 0.45146 0.79193 0.0418 0.0
C963 C 0.40447 0.8135 0.04285 0.0
C964 C 0.37179 0.81226 0.04922 0.0
C965 C 0.46551 0.81718 0.02975 0.0
C966 C 0.44906 0.84135 0.02549 0.0
C967 C 0.41847 0.83878 0.03087 0.0
C968 C 0.46433 0.87059 0.02205 0.0
C969 C 0.49845 0.81876 0.02434 0.0
C970 C 0.46479 0.88948 0.04574 0.0
C971 C 0.483 0.91519 0.0457 0.0
C972 C 0.50081 0.92269 0.02183 0.0
C973 C 0.49925 0.9047 0.99733 0.0
C974 C 0.48095 0.87872 0.9974 0.0
H975 H 0.50831 0.79864 0.03076 0.0
H976 H 0.50243 0.82262 1.00089 0.0
H977 H 0.5102 0.837 0.03664 0.0
H978 H 0.45227 0.88358 0.06501 0.0
H979 H 0.4841 0.92874 0.06486 0.0
H980 H 0.21699 0.29086 0.65391 0.0
H981 H 0.20439 0.25311 0.6178 0.0
H982 H 0.11876 0.28523 0.60302 0.0
H983 H 0.13165 0.32372 0.63809 0.0
H984 H 0.16016 0.21155 0.62253 0.0
H985 H 0.14243 0.27108 0.52071 0.0
H986 H 0.16141 0.28782 0.5521 0.0
H987 H 0.12138 0.28418 0.54963 0.0
C988 C 0.19577 0.29034 0.64245 0.0
C989 C 0.17529 0.3103 0.64897 0.0
C990 C 0.18858 0.26868 0.62187 0.0
C991 C 0.16085 0.26662 0.6073 0.0
C992 C 0.14059 0.28681 0.61339 0.0
H993 H 0.03194 0.14935 0.53735 0.0
H994 H 0.06622 0.19144 0.5487 0.0
C995 C 0.14779 0.30852 0.63387 0.0
C996 C 0.15161 0.24155 0.58838 0.0
H997 H 0.11709 0.22287 0.52354 0.0
C998 C 0.15146 0.21392 0.60058 0.0
C999 C 0.14037 0.24468 0.55971 0.0
C1000 C 0.1417 0.27355 0.54469 0.0
C1001 C 0.1383 0.18959 0.58582 0.0
C1002 C 0.12534 0.19297 0.55789 0.0
C1003 C 0.12708 0.22035 0.54493 0.0
C1004 C 0.10591 0.16927 0.54422 0.0
C1005 C 0.13646 0.1608 0.60115 0.0
C1006 C 0.11695 0.14321 0.53641 0.0
C1007 C 0.0973 0.11896 0.53001 0.0
C1008 C 0.06643 0.12061 0.53125 0.0
C1009 C 0.05562 0.14739 0.53649 0.0
C1010 C 0.07519 0.17151 0.54285 0.0
H1011 H 0.14406 0.16269 0.62424 0.0
H1012 H 0.11328 0.15058 0.60042 0.0
H1013 H 0.15067 0.14626 0.58998 0.0
H1014 H 0.14065 0.14119 0.53699 0.0
H1015 H 0.10626 0.09857 0.52617 0.0
H1016 H 0.71325 0.27987 0.43504 0.0
H1017 H 0.69861 0.32871 0.44242 0.0
H1018 H 0.64744 0.32238 0.36212 0.0
H1019 H 0.66175 0.27335 0.3549 0.0
H1020 H 0.70274 0.38087 0.40739 0.0
H1021 H 0.5865 0.33558 0.42545 0.0
H1022 H 0.6173 0.31351 0.42553 0.0
H1023 H 0.60182 0.32535 0.39173 0.0
C1024 C 0.69917 0.28908 0.41882 0.0
C1025 C 0.68837 0.27286 0.39451 0.0
C1026 C 0.69093 0.31697 0.423 0.0
C1027 C 0.67168 0.32901 0.40299 0.0
C1028 C 0.66204 0.31334 0.37799 0.0
H1029 H 0.56388 0.47138 0.41194 0.0
H1030 H 0.5942 0.43506 0.39337 0.0
C1031 C 0.67023 0.28545 0.37383 0.0
C1032 C 0.65979 0.35688 0.40943 0.0
H1033 H 0.59543 0.38607 0.4249 0.0
C1034 C 0.67928 0.38212 0.41116 0.0
C1035 C 0.62924 0.35834 0.41461 0.0
C1036 C 0.60748 0.33176 0.41452 0.0
C1037 C 0.66881 0.40895 0.41735 0.0
C1038 C 0.63819 0.41037 0.42232 0.0
C1039 C 0.61886 0.38505 0.42073 0.0
C1040 C 0.62523 0.43748 0.42995 0.0
C1041 C 0.69045 0.43555 0.4181 0.0
C1042 C 0.63352 0.4521 0.45597 0.0
C1043 C 0.61637 0.47328 0.46645 0.0
C1044 C 0.59042 0.47966 0.45131 0.0
C1045 C 0.58368 0.46676 0.42414 0.0
C1046 C 0.60097 0.44596 0.41353 0.0
H1047 H 0.71097 0.43228 0.40612 0.0
H1048 H 0.68023 0.45434 0.40862 0.0
H1049 H 0.69695 0.44069 0.44102 0.0
H1050 H 0.65185 0.44565 0.46926 0.0
H1051 H 0.62192 0.48273 0.48757 0.0
loop_
_geom_bond_atom_site_label_1
_geom_bond_atom_site_label_2
_geom_bond_distance
_geom_bond_site_symmetry_2
_ccdc_geom_bond_type
H0 C7 0.929 . S
H1 C10 0.930 . S
H2 C12 0.929 . S
H3 C4 0.969 . S
C4 H3 0.969 . S
C4 O5 1.550 . S
C4 H6 0.973 . S
O5 C4 1.550 . S
O5 C11 1.412 . S
H6 C4 0.973 . S
C7 H0 0.929 . S
C7 C8 1.400 . S
C7 C9 1.364 . S
C8 C7 1.400 . S
C8 C12 1.377 . S
C9 C7 1.364 . S
C9 C10 1.374 . S
C10 H1 0.930 . S
C10 C9 1.374 . S
C10 C11 1.383 . S
C11 O5 1.412 . S
C11 C10 1.383 . S
C11 C12 1.394 . S
C12 H2 0.929 . S
C12 C8 1.377 . S
C12 C11 1.394 . S
H13 C20 0.929 . S
H14 C23 0.930 . S
H15 C25 0.929 . S
H16 C17 0.969 . S
C17 H16 0.969 . S
C17 O18 1.550 . S
C17 H19 0.973 . S
O18 C17 1.550 . S
O18 C24 1.412 . S
H19 C17 0.973 . S
C20 H13 0.929 . S
C20 C21 1.400 . S
C20 C22 1.364 . S
C21 C20 1.400 . S
C21 C25 1.377 . S
C22 C20 1.364 . S
C22 C23 1.374 . S
C23 H14 0.930 . S
C23 C22 1.374 . S
C23 C24 1.383 . S
C24 O18 1.412 . S
C24 C23 1.383 . S
C24 C25 1.394 . S
C25 H15 0.929 . S
C25 C21 1.377 . S
C25 C24 1.394 . S
H26 C33 0.929 . S
H27 C36 0.930 . S
H28 C38 0.929 . S
H29 C30 0.969 . S
C30 H29 0.969 . S
C30 O31 1.550 . S
C30 H32 0.973 . S
O31 C30 1.550 . S
O31 C37 1.412 . S
H32 C30 0.973 . S
C33 H26 0.929 . S
C33 C34 1.400 . S
C33 C35 1.364 . S
C34 C33 1.400 . S
C34 C38 1.377 . S
C35 C33 1.364 . S
C35 C36 1.374 . S
C36 H27 0.930 . S
C36 C35 1.374 . S
C36 C37 1.383 . S
C37 O31 1.412 . S
C37 C36 1.383 . S
C37 C38 1.394 . S
C38 H28 0.929 . S
C38 C34 1.377 . S
C38 C37 1.394 . S
H39 C46 0.929 . S
H40 C49 0.930 . S
H41 C51 0.929 . S
H42 C43 0.969 . S
C43 H42 0.969 . S
C43 O44 1.550 . S
C43 H45 0.973 . S
O44 C43 1.550 . S
O44 C50 1.412 . S
H45 C43 0.973 . S
C46 H39 0.929 . S
C46 C47 1.400 . S
C46 C48 1.364 . S
C47 C46 1.400 . S
C47 C51 1.377 . S
C48 C46 1.364 . S
C48 C49 1.374 . S
C49 H40 0.930 . S
C49 C48 1.374 . S
C49 C50 1.383 . S
C50 O44 1.412 . S
C50 C49 1.383 . S
C50 C51 1.394 . S
C51 H41 0.929 . S
C51 C47 1.377 . S
C51 C50 1.394 . S
H52 C59 0.929 . S
H53 C62 0.930 . S
H54 C64 0.929 1_455 S
H55 C56 0.969 . S
C56 H55 0.969 . S
C56 O57 1.550 . S
C56 H58 0.973 . S
O57 C56 1.550 . S
O57 C63 1.412 . S
H58 C56 0.973 . S
C59 H52 0.929 . S
C59 C60 1.400 . S
C59 C61 1.364 . S
C60 C59 1.400 . S
C60 C64 1.377 . S
C61 C59 1.364 . S
C61 C62 1.374 . S
C62 H53 0.930 . S
C62 C61 1.374 . S
C62 C63 1.383 . S
C63 O57 1.412 . S
C63 C62 1.383 . S
C63 C64 1.394 . S
C64 H54 0.929 1_655 S
C64 C60 1.377 . S
C64 C63 1.394 . S
H65 C72 0.929 . S
H66 C75 0.930 . S
H67 C77 0.929 . S
H68 C69 0.969 . S
C69 H68 0.969 . S
C69 O70 1.550 . S
C69 H71 0.973 . S
O70 C69 1.550 . S
O70 C76 1.412 . S
H71 C69 0.973 . S
C72 H65 0.929 . S
C72 C73 1.400 . S
C72 C74 1.364 . S
C73 C72 1.400 . S
C73 C77 1.377 . S
C74 C72 1.364 . S
C74 C75 1.374 . S
C75 H66 0.930 . S
C75 C74 1.374 . S
C75 C76 1.383 . S
C76 O70 1.412 . S
C76 C75 1.383 . S
C76 C77 1.394 . S
C77 H67 0.929 . S
C77 C73 1.377 . S
C77 C76 1.394 . S
H78 C85 0.929 . S
H79 C88 0.930 . S
H80 C90 0.929 . S
H81 C82 0.969 . S
C82 H81 0.969 . S
C82 O83 1.550 . S
C82 H84 0.973 . S
O83 C82 1.550 . S
O83 C89 1.412 . S
H84 C82 0.973 . S
C85 H78 0.929 . S
C85 C86 1.400 . S
C85 C87 1.364 . S
C86 C85 1.400 . S
C86 C90 1.377 . S
C87 C85 1.364 . S
C87 C88 1.374 . S
C88 H79 0.930 . S
C88 C87 1.374 . S
C88 C89 1.383 . S
C89 O83 1.412 . S
C89 C88 1.383 . S
C89 C90 1.394 . S
C90 H80 0.929 . S
C90 C86 1.377 . S
C90 C89 1.394 . S
H91 C98 0.929 . S
H92 C101 0.930 . S
H93 C103 0.929 . S
H94 C95 0.969 . S
C95 H94 0.969 . S
C95 O96 1.550 . S
C95 H97 0.973 . S
O96 C95 1.550 . S
O96 C102 1.412 . S
H97 C95 0.973 . S
C98 H91 0.929 . S
C98 C99 1.400 . S
C98 C100 1.364 . S
C99 C98 1.400 . S
C99 C103 1.377 . S
C100 C98 1.364 . S
C100 C101 1.374 . S
C101 H92 0.930 . S
C101 C100 1.374 . S
C101 C102 1.383 . S
C102 O96 1.412 . S
C102 C101 1.383 . S
C102 C103 1.394 . S
C103 H93 0.929 . S
C103 C99 1.377 . S
C103 C102 1.394 . S
Zn104 O110 1.920 . S
Zn104 O116 1.898 . S
Zn104 O119 1.905 . S
Zn105 O113 1.905 1_565 S
Zn105 O114 1.898 . S
Zn105 O122 1.920 . S
Zn106 O109 2.080 1_455 S
Zn106 O112 2.114 . S
Zn106 O115 2.120 1_445 S
Zn106 O117 2.120 . S
Zn106 O118 2.114 1_455 S
Zn106 O121 2.080 . S
C107 O112 1.166 . S
C107 O113 1.182 . S
C108 O114 1.167 1_655 S
C108 O115 1.299 . S
O109 Zn106 2.080 1_655 S
O109 C123 1.305 . S
O110 Zn104 1.920 . S
O110 C123 1.234 . S
C111 O116 1.167 1_455 S
C111 O117 1.299 . S
O112 Zn106 2.114 . S
O112 C107 1.166 . S
O113 Zn105 1.905 1_545 S
O113 C107 1.182 . S
O114 Zn105 1.898 . S
O114 C108 1.167 1_455 S
O115 Zn106 2.120 1_665 S
O115 C108 1.299 . S
O116 Zn104 1.898 . S
O116 C111 1.167 1_655 S
O117 Zn106 2.120 . S
O117 C111 1.299 . S
O118 Zn106 2.114 1_655 S
O118 C120 1.166 . S
O119 Zn104 1.905 . S
O119 C120 1.182 . S
C120 O118 1.166 . S
C120 O119 1.182 . S
O121 Zn106 2.080 . S
O121 C124 1.305 . S
O122 Zn105 1.920 . S
O122 C124 1.234 1_565 S
C123 O109 1.305 . S
C123 O110 1.234 . S
C124 O121 1.305 . S
C124 O122 1.234 1_545 S
Zn125 O131 1.920 1_556 S
Zn125 O137 1.898 . S
Zn125 O140 1.905 . S
Zn126 O134 1.905 . S
Zn126 O135 1.898 . S
Zn126 O143 1.920 . S
Zn127 O130 2.080 . S
Zn127 O133 2.114 1_545 S
Zn127 O136 2.120 1_545 S
Zn127 O138 2.120 . S
Zn127 O139 2.114 1_544 S
Zn127 O142 2.080 . S
C128 O133 1.166 . S
C128 O134 1.182 . S
C129 O135 1.167 . S
C129 O136 1.299 . S
O130 Zn127 2.080 . S
O130 C144 1.305 . S
O131 Zn125 1.920 1_554 S
O131 C144 1.234 . S
C132 O137 1.167 . S
C132 O138 1.299 1_556 S
O133 Zn127 2.114 1_565 S
O133 C128 1.166 . S
O134 Zn126 1.905 . S
O134 C128 1.182 . S
O135 Zn126 1.898 . S
O135 C129 1.167 . S
O136 Zn127 2.120 1_565 S
O136 C129 1.299 . S
O137 Zn125 1.898 . S
O137 C132 1.167 . S
O138 Zn127 2.120 . S
O138 C132 1.299 1_554 S
O139 Zn127 2.114 1_566 S
O139 C141 1.166 . S
O140 Zn125 1.905 . S
O140 C141 1.182 1_545 S
C141 O139 1.166 . S
C141 O140 1.182 1_565 S
O142 Zn127 2.080 . S
O142 C145 1.305 . S
O143 Zn126 1.920 . S
O143 C145 1.234 1_565 S
C144 O130 1.305 . S
C144 O131 1.234 . S
C145 O142 1.305 . S
C145 O143 1.234 1_545 S
Zn146 O152 1.920 . S
Zn146 O158 1.898 . S
Zn146 O161 1.905 . S
Zn147 O155 1.905 . S
Zn147 O156 1.898 . S
Zn147 O164 1.920 . S
Zn148 O151 2.080 . S
Zn148 O154 2.114 . S
Zn148 O157 2.120 . S
Zn148 O159 2.120 . S
Zn148 O160 2.114 . S
Zn148 O163 2.080 . S
C149 O154 1.166 . S
C149 O155 1.182 . S
C150 O156 1.167 . S
C150 O157 1.299 . S
O151 Zn148 2.080 . S
O151 C165 1.305 . S
O152 Zn146 1.920 . S
O152 C165 1.234 . S
C153 O158 1.167 . S
C153 O159 1.299 . S
O154 Zn148 2.114 . S
O154 C149 1.166 . S
O155 Zn147 1.905 . S
O155 C149 1.182 . S
O156 Zn147 1.898 . S
O156 C150 1.167 . S
O157 Zn148 2.120 . S
O157 C150 1.299 . S
O158 Zn146 1.898 . S
O158 C153 1.167 . S
O159 Zn148 2.120 . S
O159 C153 1.299 . S
O160 Zn148 2.114 . S
O160 C162 1.166 . S
O161 Zn146 1.905 . S
O161 C162 1.182 . S
C162 O160 1.166 . S
C162 O161 1.182 . S
O163 Zn148 2.080 . S
O163 C166 1.305 . S
O164 Zn147 1.920 . S
O164 C166 1.234 . S
C165 O151 1.305 . S
C165 O152 1.234 . S
C166 O163 1.305 . S
C166 O164 1.234 . S
Zn167 O173 1.920 . S
Zn167 O179 1.898 . S
Zn167 O182 1.905 . S
Zn168 O176 1.905 . S
Zn168 O177 1.898 1_455 S
Zn168 O185 1.920 . S
Zn169 O172 2.080 1_554 S
Zn169 O175 2.114 . S
Zn169 O178 2.120 1_554 S
Zn169 O180 2.120 . S
Zn169 O181 2.114 1_554 S
Zn169 O184 2.080 . S
C170 O175 1.166 . S
C170 O176 1.182 . S
C171 O177 1.167 1_556 S
C171 O178 1.299 1_655 S
O172 Zn169 2.080 1_556 S
O172 C186 1.305 . S
O173 Zn167 1.920 . S
O173 C186 1.234 . S
C174 O179 1.167 1_554 S
C174 O180 1.299 . S
O175 Zn169 2.114 . S
O175 C170 1.166 . S
O176 Zn168 1.905 . S
O176 C170 1.182 . S
O177 Zn168 1.898 1_655 S
O177 C171 1.167 1_554 S
O178 Zn169 2.120 1_556 S
O178 C171 1.299 1_455 S
O179 Zn167 1.898 . S
O179 C174 1.167 1_556 S
O180 Zn169 2.120 . S
O180 C174 1.299 . S
O181 Zn169 2.114 1_556 S
O181 C183 1.166 . S
O182 Zn167 1.905 . S
O182 C183 1.182 . S
C183 O181 1.166 . S
C183 O182 1.182 . S
O184 Zn169 2.080 . S
O184 C187 1.305 . S
O185 Zn168 1.920 . S
O185 C187 1.234 . S
C186 O172 1.305 . S
C186 O173 1.234 . S
C187 O184 1.305 . S
C187 O185 1.234 . S
H188 C196 0.929 . S
H189 C198 0.930 . S
H190 C200 0.930 . S
H191 C203 0.929 . S
H192 C206 0.930 . S
H193 C208 0.960 . S
H194 C208 0.960 . S
H195 C208 0.960 . S
C196 H188 0.929 . S
C196 C197 1.377 . S
C196 C198 1.384 . S
C197 C196 1.377 . S
C197 C203 1.390 . S
C198 H189 0.930 . S
C198 C196 1.384 . S
C198 C199 1.372 . S
C199 C198 1.372 . S
C199 C200 1.400 . S
C199 C204 1.490 . S
C200 H190 0.930 . S
C200 C199 1.400 . S
C200 C203 1.386 . S
H201 C217 0.930 . S
H202 C218 0.931 . S
C203 H191 0.929 . S
C203 C197 1.390 . S
C203 C200 1.386 . S
C204 C199 1.490 . S
C204 C206 1.395 . S
C204 C207 1.403 . S
H205 C211 0.930 . S
C206 H192 0.930 . S
C206 C204 1.395 . S
C206 C209 1.403 . S
C207 C204 1.403 . S
C207 C208 1.524 . S
C207 C211 1.400 . S
C208 H193 0.960 . S
C208 H194 0.960 . S
C208 H195 0.960 . S
C208 C207 1.524 . S
C209 C206 1.403 . S
C209 C210 1.392 . S
C209 C213 1.495 . S
C210 C209 1.392 . S
C210 C211 1.385 . S
C210 C212 1.478 . S
C211 H205 0.930 . S
C211 C207 1.400 . S
C211 C210 1.385 . S
C212 C210 1.478 . S
C212 C214 1.381 . S
C212 C218 1.383 . S
C213 C209 1.495 . S
C213 H219 0.959 . S
C213 H220 0.961 . S
C213 H221 0.960 . S
C214 C212 1.381 . S
C214 C215 1.394 . S
C214 H222 0.930 . S
C215 C214 1.394 . S
C215 C216 1.383 . S
C215 H223 0.929 . S
C216 C215 1.383 . S
C216 C217 1.377 . S
C217 H201 0.930 . S
C217 C216 1.377 . S
C217 C218 1.379 . S
C218 H202 0.931 . S
C218 C212 1.383 . S
C218 C217 1.379 . S
H219 C213 0.959 . S
H220 C213 0.961 . S
H221 C213 0.960 . S
H222 C214 0.930 . S
H223 C215 0.929 . S
H224 C232 0.929 . S
H225 C234 0.930 . S
H226 C236 0.930 . S
H227 C239 0.929 . S
H228 C242 0.930 . S
H229 C244 0.960 . S
H230 C244 0.960 . S
H231 C244 0.960 . S
C232 H224 0.929 . S
C232 C233 1.377 . S
C232 C234 1.384 . S
C233 C232 1.377 . S
C233 C239 1.390 . S
C234 H225 0.930 . S
C234 C232 1.384 . S
C234 C235 1.372 . S
C235 C234 1.372 . S
C235 C236 1.400 . S
C235 C240 1.490 . S
C236 H226 0.930 . S
C236 C235 1.400 . S
C236 C239 1.386 . S
H237 C253 0.930 . S
H238 C254 0.931 . S
C239 H227 0.929 . S
C239 C233 1.390 . S
C239 C236 1.386 . S
C240 C235 1.490 . S
C240 C242 1.395 . S
C240 C243 1.403 . S
H241 C247 0.930 . S
C242 H228 0.930 . S
C242 C240 1.395 . S
C242 C245 1.403 . S
C243 C240 1.403 . S
C243 C244 1.524 . S
C243 C247 1.400 . S
C244 H229 0.960 . S
C244 H230 0.960 . S
C244 H231 0.960 . S
C244 C243 1.524 . S
C245 C242 1.403 . S
C245 C246 1.392 . S
C245 C249 1.495 . S
C246 C245 1.392 . S
C246 C247 1.385 . S
C246 C248 1.478 . S
C247 H241 0.930 . S
C247 C243 1.400 . S
C247 C246 1.385 . S
C248 C246 1.478 . S
C248 C250 1.381 . S
C248 C254 1.383 . S
C249 C245 1.495 . S
C249 H255 0.959 1_565 S
C249 H256 0.961 1_565 S
C249 H257 0.960 1_565 S
C250 C248 1.381 . S
C250 C251 1.394 . S
C250 H258 0.930 . S
C251 C250 1.394 . S
C251 C252 1.383 . S
C251 H259 0.929 . S
C252 C251 1.383 . S
C252 C253 1.377 . S
C253 H237 0.930 . S
C253 C252 1.377 . S
C253 C254 1.379 . S
C254 H238 0.931 . S
C254 C248 1.383 . S
C254 C253 1.379 . S
H255 C249 0.959 1_545 S
H256 C249 0.961 1_545 S
H257 C249 0.960 1_545 S
H258 C250 0.930 . S
H259 C251 0.929 . S
H260 C268 0.929 . S
H261 C270 0.930 . S
H262 C272 0.930 . S
H263 C275 0.929 . S
H264 C278 0.930 . S
H265 C280 0.960 . S
H266 C280 0.960 . S
H267 C280 0.960 . S
C268 H260 0.929 . S
C268 C269 1.377 . S
C268 C270 1.384 . S
C269 C268 1.377 . S
C269 C275 1.390 . S
C270 H261 0.930 . S
C270 C268 1.384 . S
C270 C271 1.372 . S
C271 C270 1.372 . S
C271 C272 1.400 . S
C271 C276 1.490 . S
C272 H262 0.930 . S
C272 C271 1.400 . S
C272 C275 1.386 . S
H273 C289 0.930 . S
H274 C290 0.931 . S
C275 H263 0.929 . S
C275 C269 1.390 . S
C275 C272 1.386 . S
C276 C271 1.490 . S
C276 C278 1.395 . S
C276 C279 1.403 . S
H277 C283 0.930 . S
C278 H264 0.930 . S
C278 C276 1.395 . S
C278 C281 1.403 . S
C279 C276 1.403 . S
C279 C280 1.524 . S
C279 C283 1.400 . S
C280 H265 0.960 . S
C280 H266 0.960 . S
C280 H267 0.960 . S
C280 C279 1.524 . S
C281 C278 1.403 . S
C281 C282 1.392 . S
C281 C285 1.495 . S
C282 C281 1.392 . S
C282 C283 1.385 . S
C282 C284 1.478 . S
C283 H277 0.930 . S
C283 C279 1.400 . S
C283 C282 1.385 . S
C284 C282 1.478 . S
C284 C286 1.381 . S
C284 C290 1.383 . S
C285 C281 1.495 . S
C285 H291 0.959 . S
C285 H292 0.961 . S
C285 H293 0.960 . S
C286 C284 1.381 . S
C286 C287 1.394 . S
C286 H294 0.930 . S
C287 C286 1.394 . S
C287 C288 1.383 . S
C287 H295 0.929 . S
C288 C287 1.383 . S
C288 C289 1.377 . S
C289 H273 0.930 . S
C289 C288 1.377 . S
C289 C290 1.379 . S
C290 H274 0.931 . S
C290 C284 1.383 . S
C290 C289 1.379 . S
H291 C285 0.959 . S
H292 C285 0.961 . S
H293 C285 0.960 . S
H294 C286 0.930 . S
H295 C287 0.929 . S
H296 C304 0.929 . S
H297 C306 0.930 . S
H298 C308 0.930 . S
H299 C311 0.929 . S
H300 C314 0.930 . S
H301 C316 0.960 . S
H302 C316 0.960 . S
H303 C316 0.960 1_655 S
C304 H296 0.929 . S
C304 C305 1.377 . S
C304 C306 1.384 . S
C305 C304 1.377 . S
C305 C311 1.390 . S
C306 H297 0.930 . S
C306 C304 1.384 . S
C306 C307 1.372 . S
C307 C306 1.372 . S
C307 C308 1.400 . S
C307 C312 1.490 . S
C308 H298 0.930 . S
C308 C307 1.400 . S
C308 C311 1.386 . S
H309 C325 0.930 . S
H310 C326 0.931 . S
C311 H299 0.929 . S
C311 C305 1.390 . S
C311 C308 1.386 . S
C312 C307 1.490 . S
C312 C314 1.395 . S
C312 C315 1.403 . S
H313 C319 0.930 1_455 S
C314 H300 0.930 . S
C314 C312 1.395 . S
C314 C317 1.403 . S
C315 C312 1.403 . S
C315 C316 1.524 1_655 S
C315 C319 1.400 . S
C316 H301 0.960 . S
C316 H302 0.960 . S
C316 H303 0.960 1_455 S
C316 C315 1.524 1_455 S
C317 C314 1.403 . S
C317 C318 1.392 . S
C317 C321 1.495 . S
C318 C317 1.392 . S
C318 C319 1.385 . S
C318 C320 1.478 . S
C319 H313 0.930 1_655 S
C319 C315 1.400 . S
C319 C318 1.385 . S
C320 C318 1.478 . S
C320 C322 1.381 . S
C320 C326 1.383 . S
C321 C317 1.495 . S
C321 H327 0.959 . S
C321 H328 0.961 . S
C321 H329 0.960 . S
C322 C320 1.381 . S
C322 C323 1.394 . S
C322 H330 0.930 . S
C323 C322 1.394 . S
C323 C324 1.383 1_655 S
C323 H331 0.929 . S
C324 C323 1.383 1_455 S
C324 C325 1.377 . S
C325 H309 0.930 . S
C325 C324 1.377 . S
C325 C326 1.379 1_455 S
C326 H310 0.931 . S
C326 C320 1.383 . S
C326 C325 1.379 1_655 S
H327 C321 0.959 . S
H328 C321 0.961 . S
H329 C321 0.960 . S
H330 C322 0.930 . S
H331 C323 0.929 . S
H332 C340 0.929 . S
H333 C342 0.930 . S
H334 C344 0.930 . S
H335 C347 0.929 . S
H336 C350 0.930 . S
H337 C352 0.960 . S
H338 C352 0.960 . S
H339 C352 0.960 . S
C340 H332 0.929 . S
C340 C341 1.377 . S
C340 C342 1.384 . S
C341 C340 1.377 . S
C341 C347 1.390 . S
C342 H333 0.930 . S
C342 C340 1.384 . S
C342 C343 1.372 . S
C343 C342 1.372 . S
C343 C344 1.400 . S
C343 C348 1.490 . S
C344 H334 0.930 . S
C344 C343 1.400 . S
C344 C347 1.386 . S
H345 C361 0.930 . S
H346 C362 0.931 . S
C347 H335 0.929 . S
C347 C341 1.390 . S
C347 C344 1.386 . S
C348 C343 1.490 . S
C348 C350 1.395 . S
C348 C351 1.403 . S
H349 C355 0.930 . S
C350 H336 0.930 . S
C350 C348 1.395 . S
C350 C353 1.403 . S
C351 C348 1.403 . S
C351 C352 1.524 . S
C351 C355 1.400 . S
C352 H337 0.960 . S
C352 H338 0.960 . S
C352 H339 0.960 . S
C352 C351 1.524 . S
C353 C350 1.403 . S
C353 C354 1.392 . S
C353 C357 1.495 . S
C354 C353 1.392 . S
C354 C355 1.385 . S
C354 C356 1.478 . S
C355 H349 0.930 . S
C355 C351 1.400 . S
C355 C354 1.385 . S
C356 C354 1.478 . S
C356 C358 1.381 . S
C356 C362 1.383 . S
C357 C353 1.495 . S
C357 H363 0.959 . S
C357 H364 0.961 . S
C357 H365 0.960 . S
C358 C356 1.381 . S
C358 C359 1.394 . S
C358 H366 0.930 . S
C359 C358 1.394 . S
C359 C360 1.383 . S
C359 H367 0.929 . S
C360 C359 1.383 . S
C360 C361 1.377 . S
C361 H345 0.930 . S
C361 C360 1.377 . S
C361 C362 1.379 . S
C362 H346 0.931 . S
C362 C356 1.383 . S
C362 C361 1.379 . S
H363 C357 0.959 . S
H364 C357 0.961 . S
H365 C357 0.960 . S
H366 C358 0.930 . S
H367 C359 0.929 . S
H368 C376 0.929 . S
H369 C378 0.930 . S
H370 C380 0.930 . S
H371 C383 0.929 . S
H372 C386 0.930 . S
H373 C388 0.960 . S
H374 C388 0.960 . S
H375 C388 0.960 . S
C376 H368 0.929 . S
C376 C377 1.377 . S
C376 C378 1.384 . S
C377 C376 1.377 . S
C377 C383 1.390 . S
C378 H369 0.930 . S
C378 C376 1.384 . S
C378 C379 1.372 . S
C379 C378 1.372 . S
C379 C380 1.400 . S
C379 C384 1.490 . S
C380 H370 0.930 . S
C380 C379 1.400 . S
C380 C383 1.386 . S
H381 C397 0.930 . S
H382 C398 0.931 . S
C383 H371 0.929 . S
C383 C377 1.390 . S
C383 C380 1.386 . S
C384 C379 1.490 . S
C384 C386 1.395 . S
C384 C387 1.403 . S
H385 C391 0.930 . S
C386 H372 0.930 . S
C386 C384 1.395 . S
C386 C389 1.403 . S
C387 C384 1.403 . S
C387 C388 1.524 . S
C387 C391 1.400 . S
C388 H373 0.960 . S
C388 H374 0.960 . S
C388 H375 0.960 . S
C388 C387 1.524 . S
C389 C386 1.403 . S
C389 C390 1.392 . S
C389 C393 1.495 . S
C390 C389 1.392 . S
C390 C391 1.385 . S
C390 C392 1.478 . S
C391 H385 0.930 . S
C391 C387 1.400 . S
C391 C390 1.385 . S
C392 C390 1.478 . S
C392 C394 1.381 . S
C392 C398 1.383 . S
C393 C389 1.495 . S
C393 H399 0.959 . S
C393 H400 0.961 . S
C393 H401 0.960 . S
C394 C392 1.381 . S
C394 C395 1.394 . S
C394 H402 0.930 . S
C395 C394 1.394 . S
C395 C396 1.383 . S
C395 H403 0.929 . S
C396 C395 1.383 . S
C396 C397 1.377 . S
C397 H381 0.930 . S
C397 C396 1.377 . S
C397 C398 1.379 . S
C398 H382 0.931 . S
C398 C392 1.383 . S
C398 C397 1.379 . S
H399 C393 0.959 . S
H400 C393 0.961 . S
H401 C393 0.960 . S
H402 C394 0.930 . S
H403 C395 0.929 . S
H404 C412 0.929 . S
H405 C414 0.930 . S
H406 C416 0.930 . S
H407 C419 0.929 . S
H408 C422 0.930 . S
H409 C424 0.960 . S
H410 C424 0.960 . S
H411 C424 0.960 . S
C412 H404 0.929 . S
C412 C413 1.377 . S
C412 C414 1.384 . S
C413 C412 1.377 . S
C413 C419 1.390 . S
C414 H405 0.930 . S
C414 C412 1.384 . S
C414 C415 1.372 . S
C415 C414 1.372 . S
C415 C416 1.400 . S
C415 C420 1.490 . S
C416 H406 0.930 . S
C416 C415 1.400 . S
C416 C419 1.386 . S
H417 C433 0.930 . S
H418 C434 0.931 . S
C419 H407 0.929 . S
C419 C413 1.390 . S
C419 C416 1.386 . S
C420 C415 1.490 . S
C420 C422 1.395 . S
C420 C423 1.403 . S
H421 C427 0.930 . S
C422 H408 0.930 . S
C422 C420 1.395 . S
C422 C425 1.403 . S
C423 C420 1.403 . S
C423 C424 1.524 . S
C423 C427 1.400 . S
C424 H409 0.960 . S
C424 H410 0.960 . S
C424 H411 0.960 . S
C424 C423 1.524 . S
C425 C422 1.403 . S
C425 C426 1.392 . S
C425 C429 1.495 . S
C426 C425 1.392 . S
C426 C427 1.385 . S
C426 C428 1.478 . S
C427 H421 0.930 . S
C427 C423 1.400 . S
C427 C426 1.385 . S
C428 C426 1.478 . S
C428 C430 1.381 . S
C428 C434 1.383 . S
C429 C425 1.495 . S
C429 H435 0.959 . S
C429 H436 0.961 . S
C429 H437 0.960 . S
C430 C428 1.381 . S
C430 C431 1.394 . S
C430 H438 0.930 . S
C431 C430 1.394 . S
C431 C432 1.383 . S
C431 H439 0.929 . S
C432 C431 1.383 . S
C432 C433 1.377 . S
C433 H417 0.930 . S
C433 C432 1.377 . S
C433 C434 1.379 . S
C434 H418 0.931 . S
C434 C428 1.383 . S
C434 C433 1.379 . S
H435 C429 0.959 . S
H436 C429 0.961 . S
H437 C429 0.960 . S
H438 C430 0.930 . S
H439 C431 0.929 . S
H440 C448 0.929 . S
H441 C450 0.930 . S
H442 C452 0.930 . S
H443 C455 0.929 . S
H444 C458 0.930 . S
H445 C460 0.960 . S
H446 C460 0.960 . S
H447 C460 0.960 . S
C448 H440 0.929 . S
C448 C449 1.377 . S
C448 C450 1.384 . S
C449 C448 1.377 . S
C449 C455 1.390 . S
C450 H441 0.930 . S
C450 C448 1.384 . S
C450 C451 1.372 . S
C451 C450 1.372 . S
C451 C452 1.400 . S
C451 C456 1.490 . S
C452 H442 0.930 . S
C452 C451 1.400 . S
C452 C455 1.386 . S
H453 C469 0.930 . S
H454 C470 0.931 . S
C455 H443 0.929 . S
C455 C449 1.390 . S
C455 C452 1.386 . S
C456 C451 1.490 . S
C456 C458 1.395 . S
C456 C459 1.403 . S
H457 C463 0.930 . S
C458 H444 0.930 . S
C458 C456 1.395 . S
C458 C461 1.403 . S
C459 C456 1.403 . S
C459 C460 1.524 . S
C459 C463 1.400 . S
C460 H445 0.960 . S
C460 H446 0.960 . S
C460 H447 0.960 . S
C460 C459 1.524 . S
C461 C458 1.403 . S
C461 C462 1.392 . S
C461 C465 1.495 . S
C462 C461 1.392 . S
C462 C463 1.385 . S
C462 C464 1.478 . S
C463 H457 0.930 . S
C463 C459 1.400 . S
C463 C462 1.385 . S
C464 C462 1.478 . S
C464 C466 1.381 . S
C464 C470 1.383 . S
C465 C461 1.495 . S
C465 H471 0.959 . S
C465 H472 0.961 . S
C465 H473 0.960 . S
C466 C464 1.381 . S
C466 C467 1.394 . S
C466 H474 0.930 . S
C467 C466 1.394 . S
C467 C468 1.383 . S
C467 H475 0.929 . S
C468 C467 1.383 . S
C468 C469 1.377 . S
C469 H453 0.930 . S
C469 C468 1.377 . S
C469 C470 1.379 . S
C470 H454 0.931 . S
C470 C464 1.383 . S
C470 C469 1.379 . S
H471 C465 0.959 . S
H472 C465 0.961 . S
H473 C465 0.960 . S
H474 C466 0.930 . S
H475 C467 0.929 . S
H476 C484 0.929 . S
H477 C486 0.930 . S
H478 C488 0.930 . S
H479 C491 0.929 . S
H480 C494 0.930 . S
H481 C496 0.960 . S
H482 C496 0.960 . S
H483 C496 0.960 . S
C484 H476 0.929 . S
C484 C485 1.377 . S
C484 C486 1.384 . S
C485 C484 1.377 . S
C485 C491 1.390 . S
C486 H477 0.930 . S
C486 C484 1.384 . S
C486 C487 1.372 . S
C487 C486 1.372 . S
C487 C488 1.400 . S
C487 C492 1.490 . S
C488 H478 0.930 . S
C488 C487 1.400 . S
C488 C491 1.386 . S
H489 C505 0.930 . S
H490 C506 0.931 . S
C491 H479 0.929 . S
C491 C485 1.390 . S
C491 C488 1.386 . S
C492 C487 1.490 . S
C492 C494 1.395 . S
C492 C495 1.403 . S
H493 C499 0.930 . S
C494 H480 0.930 . S
C494 C492 1.395 . S
C494 C497 1.403 . S
C495 C492 1.403 . S
C495 C496 1.524 . S
C495 C499 1.400 . S
C496 H481 0.960 . S
C496 H482 0.960 . S
C496 H483 0.960 . S
C496 C495 1.524 . S
C497 C494 1.403 . S
C497 C498 1.392 . S
C497 C501 1.495 . S
C498 C497 1.392 . S
C498 C499 1.385 . S
C498 C500 1.478 . S
C499 H493 0.930 . S
C499 C495 1.400 . S
C499 C498 1.385 . S
C500 C498 1.478 . S
C500 C502 1.381 . S
C500 C506 1.383 . S
C501 C497 1.495 . S
C501 H507 0.959 . S
C501 H508 0.961 . S
C501 H509 0.960 . S
C502 C500 1.381 . S
C502 C503 1.394 . S
C502 H510 0.930 . S
C503 C502 1.394 . S
C503 C504 1.383 . S
C503 H511 0.929 . S
C504 C503 1.383 . S
C504 C505 1.377 . S
C505 H489 0.930 . S
C505 C504 1.377 . S
C505 C506 1.379 . S
C506 H490 0.931 . S
C506 C500 1.383 . S
C506 C505 1.379 . S
H507 C501 0.959 . S
H508 C501 0.961 . S
H509 C501 0.960 . S
H510 C502 0.930 . S
H511 C503 0.929 . S
H512 C520 0.929 . S
H513 C522 0.930 . S
H514 C524 0.930 . S
H515 C527 0.929 . S
H516 C530 0.930 . S
H517 C532 0.960 . S
H518 C532 0.960 . S
H519 C532 0.960 . S
C520 H512 0.929 . S
C520 C521 1.377 . S
C520 C522 1.384 . S
C521 C520 1.377 . S
C521 C527 1.390 . S
C522 H513 0.930 . S
C522 C520 1.384 . S
C522 C523 1.372 . S
C523 C522 1.372 . S
C523 C524 1.400 . S
C523 C528 1.490 . S
C524 H514 0.930 . S
C524 C523 1.400 . S
C524 C527 1.386 . S
H525 C541 0.930 . S
H526 C542 0.931 . S
C527 H515 0.929 . S
C527 C521 1.390 . S
C527 C524 1.386 . S
C528 C523 1.490 . S
C528 C530 1.395 . S
C528 C531 1.403 . S
H529 C535 0.930 . S
C530 H516 0.930 . S
C530 C528 1.395 . S
C530 C533 1.403 . S
C531 C528 1.403 . S
C531 C532 1.524 . S
C531 C535 1.400 . S
C532 H517 0.960 . S
C532 H518 0.960 . S
C532 H519 0.960 . S
C532 C531 1.524 . S
C533 C530 1.403 . S
C533 C534 1.392 . S
C533 C537 1.495 . S
C534 C533 1.392 . S
C534 C535 1.385 . S
C534 C536 1.478 . S
C535 H529 0.930 . S
C535 C531 1.400 . S
C535 C534 1.385 . S
C536 C534 1.478 . S
C536 C538 1.381 . S
C536 C542 1.383 . S
C537 C533 1.495 . S
C537 H543 0.959 . S
C537 H544 0.961 . S
C537 H545 0.960 . S
C538 C536 1.381 . S
C538 C539 1.394 . S
C538 H546 0.930 . S
C539 C538 1.394 . S
C539 C540 1.383 . S
C539 H547 0.929 1_556 S
C540 C539 1.383 . S
C540 C541 1.377 . S
C541 H525 0.930 . S
C541 C540 1.377 . S
C541 C542 1.379 . S
C542 H526 0.931 . S
C542 C536 1.383 . S
C542 C541 1.379 . S
H543 C537 0.959 . S
H544 C537 0.961 . S
H545 C537 0.960 . S
H546 C538 0.930 . S
H547 C539 0.929 1_554 S
H548 C556 0.929 . S
H549 C558 0.930 . S
H550 C560 0.930 . S
H551 C563 0.929 . S
H552 C566 0.930 . S
H553 C568 0.960 . S
H554 C568 0.960 . S
H555 C568 0.960 . S
C556 H548 0.929 . S
C556 C557 1.377 . S
C556 C558 1.384 . S
C557 C556 1.377 . S
C557 C563 1.390 . S
C558 H549 0.930 . S
C558 C556 1.384 . S
C558 C559 1.372 . S
C559 C558 1.372 . S
C559 C560 1.400 . S
C559 C564 1.490 . S
C560 H550 0.930 . S
C560 C559 1.400 . S
C560 C563 1.386 . S
H561 C577 0.930 1_455 S
H562 C578 0.931 . S
C563 H551 0.929 . S
C563 C557 1.390 . S
C563 C560 1.386 . S
C564 C559 1.490 . S
C564 C566 1.395 . S
C564 C567 1.403 . S
H565 C571 0.930 . S
C566 H552 0.930 . S
C566 C564 1.395 . S
C566 C569 1.403 . S
C567 C564 1.403 . S
C567 C568 1.524 . S
C567 C571 1.400 . S
C568 H553 0.960 . S
C568 H554 0.960 . S
C568 H555 0.960 . S
C568 C567 1.524 . S
C569 C566 1.403 . S
C569 C570 1.392 . S
C569 C573 1.495 . S
C570 C569 1.392 . S
C570 C571 1.385 . S
C570 C572 1.478 . S
C571 H565 0.930 . S
C571 C567 1.400 . S
C571 C570 1.385 . S
C572 C570 1.478 . S
C572 C574 1.381 . S
C572 C578 1.383 . S
C573 C569 1.495 . S
C573 H579 0.959 . S
C573 H580 0.961 . S
C573 H581 0.960 . S
C574 C572 1.381 . S
C574 C575 1.394 . S
C574 H582 0.930 . S
C575 C574 1.394 . S
C575 C576 1.383 . S
C575 H583 0.929 . S
C576 C575 1.383 . S
C576 C577 1.377 . S
C577 H561 0.930 1_655 S
C577 C576 1.377 . S
C577 C578 1.379 . S
C578 H562 0.931 . S
C578 C572 1.383 . S
C578 C577 1.379 . S
H579 C573 0.959 . S
H580 C573 0.961 . S
H581 C573 0.960 . S
H582 C574 0.930 . S
H583 C575 0.929 . S
H584 C592 0.929 . S
H585 C594 0.930 . S
H586 C596 0.930 . S
H587 C599 0.929 . S
H588 C602 0.930 . S
H589 C604 0.960 . S
H590 C604 0.960 . S
H591 C604 0.960 . S
C592 H584 0.929 . S
C592 C593 1.377 . S
C592 C594 1.384 . S
C593 C592 1.377 . S
C593 C599 1.390 . S
C594 H585 0.930 . S
C594 C592 1.384 . S
C594 C595 1.372 . S
C595 C594 1.372 . S
C595 C596 1.400 . S
C595 C600 1.490 . S
C596 H586 0.930 . S
C596 C595 1.400 . S
C596 C599 1.386 . S
H597 C613 0.930 . S
H598 C614 0.931 . S
C599 H587 0.929 . S
C599 C593 1.390 . S
C599 C596 1.386 . S
C600 C595 1.490 . S
C600 C602 1.395 . S
C600 C603 1.403 . S
H601 C607 0.930 . S
C602 H588 0.930 . S
C602 C600 1.395 . S
C602 C605 1.403 . S
C603 C600 1.403 . S
C603 C604 1.524 . S
C603 C607 1.400 . S
C604 H589 0.960 . S
C604 H590 0.960 . S
C604 H591 0.960 . S
C604 C603 1.524 . S
C605 C602 1.403 . S
C605 C606 1.392 . S
C605 C609 1.495 . S
C606 C605 1.392 . S
C606 C607 1.385 . S
C606 C608 1.478 . S
C607 H601 0.930 . S
C607 C603 1.400 . S
C607 C606 1.385 . S
C608 C606 1.478 . S
C608 C610 1.381 . S
C608 C614 1.383 . S
C609 C605 1.495 . S
C609 H615 0.959 . S
C609 H616 0.961 . S
C609 H617 0.960 . S
C610 C608 1.381 . S
C610 C611 1.394 . S
C610 H618 0.930 . S
C611 C610 1.394 . S
C611 C612 1.383 . S
C611 H619 0.929 . S
C612 C611 1.383 . S
C612 C613 1.377 . S
C613 H597 0.930 . S
C613 C612 1.377 . S
C613 C614 1.379 . S
C614 H598 0.931 . S
C614 C608 1.383 . S
C614 C613 1.379 . S
H615 C609 0.959 . S
H616 C609 0.961 . S
H617 C609 0.960 . S
H618 C610 0.930 . S
H619 C611 0.929 . S
H620 C628 0.929 . S
H621 C630 0.930 . S
H622 C632 0.930 1_445 S
H623 C635 0.929 1_455 S
H624 C638 0.930 . S
H625 C640 0.960 . S
H626 C640 0.960 . S
H627 C640 0.960 . S
C628 H620 0.929 . S
C628 C629 1.377 . S
C628 C630 1.384 . S
C629 C628 1.377 . S
C629 C635 1.390 . S
C630 H621 0.930 . S
C630 C628 1.384 . S
C630 C631 1.372 . S
C631 C630 1.372 . S
C631 C632 1.400 . S
C631 C636 1.490 . S
C632 H622 0.930 1_665 S
C632 C631 1.400 . S
C632 C635 1.386 . S
H633 C649 0.930 . S
H634 C650 0.941 . S
C635 H623 0.929 1_655 S
C635 C629 1.390 . S
C635 C632 1.386 . S
C636 C631 1.490 . S
C636 C638 1.395 . S
C636 C639 1.403 1_655 S
H637 C643 0.930 . S
C638 H624 0.930 . S
C638 C636 1.395 . S
C638 C641 1.403 . S
C639 C636 1.403 1_455 S
C639 C640 1.524 . S
C639 C643 1.400 . S
C640 H625 0.960 . S
C640 H626 0.960 . S
C640 H627 0.960 . S
C640 C639 1.524 . S
C641 C638 1.403 . S
C641 C642 1.392 . S
C641 C645 1.495 . S
C642 C641 1.392 . S
C642 C643 1.385 1_655 S
C642 C644 1.478 1_565 S
C643 H637 0.930 . S
C643 C639 1.400 . S
C643 C642 1.385 1_455 S
C644 C642 1.478 1_545 S
C644 C646 1.381 1_545 S
C644 C650 1.368 1_655 S
C645 C641 1.495 . S
C645 H651 0.959 . S
C645 H652 0.961 1_565 S
C645 H653 0.960 . S
C646 C644 1.381 1_565 S
C646 C647 1.394 . S
C646 H654 0.930 . S
C647 C646 1.394 . S
C647 C648 1.383 1_565 S
C647 H655 0.929 . S
C648 C647 1.383 1_545 S
C648 C649 1.377 1_655 S
C649 H633 0.930 . S
C649 C648 1.377 1_455 S
C649 C650 1.385 . S
C650 H634 0.941 . S
C650 C644 1.368 1_455 S
C650 C649 1.385 . S
H651 C645 0.959 . S
H652 C645 0.961 1_545 S
H653 C645 0.960 . S
H654 C646 0.930 . S
H655 C647 0.929 . S
H656 C664 0.929 . S
H657 C666 0.930 . S
H658 C668 0.930 . S
H659 C671 0.929 . S
H660 C674 0.930 . S
H661 C676 0.960 . S
H662 C676 0.960 . S
H663 C676 0.960 . S
C664 H656 0.929 . S
C664 C665 1.377 . S
C664 C666 1.384 . S
C665 C664 1.377 . S
C665 C671 1.390 . S
C666 H657 0.930 . S
C666 C664 1.384 . S
C666 C667 1.372 . S
C667 C666 1.372 . S
C667 C668 1.400 . S
C667 C672 1.490 . S
C668 H658 0.930 . S
C668 C667 1.400 . S
C668 C671 1.386 . S
H669 C685 0.930 . S
H670 C686 0.931 . S
C671 H659 0.929 . S
C671 C665 1.390 . S
C671 C668 1.386 . S
C672 C667 1.490 . S
C672 C674 1.395 . S
C672 C675 1.403 . S
H673 C679 0.930 . S
C674 H660 0.930 . S
C674 C672 1.395 . S
C674 C677 1.403 . S
C675 C672 1.403 . S
C675 C676 1.524 . S
C675 C679 1.400 . S
C676 H661 0.960 . S
C676 H662 0.960 . S
C676 H663 0.960 . S
C676 C675 1.524 . S
C677 C674 1.403 . S
C677 C678 1.392 . S
C677 C681 1.495 . S
C678 C677 1.392 . S
C678 C679 1.385 . S
C678 C680 1.478 . S
C679 H673 0.930 . S
C679 C675 1.400 . S
C679 C678 1.385 . S
C680 C678 1.478 . S
C680 C682 1.381 . S
C680 C686 1.383 . S
C681 C677 1.495 . S
C681 H687 0.959 1_545 S
C681 H688 0.961 . S
C681 H689 0.960 1_545 S
C682 C680 1.381 . S
C682 C683 1.394 . S
C682 H690 0.930 . S
C683 C682 1.394 . S
C683 C684 1.383 . S
C683 H691 0.929 1_545 S
C684 C683 1.383 . S
C684 C685 1.377 . S
C685 H669 0.930 . S
C685 C684 1.377 . S
C685 C686 1.379 . S
C686 H670 0.931 . S
C686 C680 1.383 . S
C686 C685 1.379 . S
H687 C681 0.959 1_565 S
H688 C681 0.961 . S
H689 C681 0.960 1_565 S
H690 C682 0.930 . S
H691 C683 0.929 1_565 S
H692 C700 0.929 . S
H693 C702 0.930 . S
H694 C704 0.930 . S
H695 C707 0.929 . S
H696 C710 0.930 . S
H697 C712 0.960 . S
H698 C712 0.960 . S
H699 C712 0.960 . S
C700 H692 0.929 . S
C700 C701 1.377 . S
C700 C702 1.384 . S
C701 C700 1.377 . S
C701 C707 1.390 . S
C702 H693 0.930 . S
C702 C700 1.384 . S
C702 C703 1.372 . S
C703 C702 1.372 . S
C703 C704 1.400 . S
C703 C708 1.490 . S
C704 H694 0.930 . S
C704 C703 1.400 . S
C704 C707 1.386 . S
H705 C721 0.930 . S
H706 C722 0.931 . S
C707 H695 0.929 . S
C707 C701 1.390 . S
C707 C704 1.386 . S
C708 C703 1.490 . S
C708 C710 1.395 . S
C708 C711 1.403 . S
H709 C715 0.930 . S
C710 H696 0.930 . S
C710 C708 1.395 . S
C710 C713 1.403 . S
C711 C708 1.403 . S
C711 C712 1.524 . S
C711 C715 1.400 . S
C712 H697 0.960 . S
C712 H698 0.960 . S
C712 H699 0.960 . S
C712 C711 1.524 . S
C713 C710 1.403 . S
C713 C714 1.392 . S
C713 C717 1.495 . S
C714 C713 1.392 . S
C714 C715 1.385 . S
C714 C716 1.478 . S
C715 H709 0.930 . S
C715 C711 1.400 . S
C715 C714 1.385 . S
C716 C714 1.478 . S
C716 C718 1.381 . S
C716 C722 1.383 . S
C717 C713 1.495 . S
C717 H723 0.959 . S
C717 H724 0.961 . S
C717 H725 0.960 . S
C718 C716 1.381 . S
C718 C719 1.394 . S
C718 H726 0.930 . S
C719 C718 1.394 . S
C719 C720 1.383 . S
C719 H727 0.929 . S
C720 C719 1.383 . S
C720 C721 1.377 . S
C721 H705 0.930 . S
C721 C720 1.377 . S
C721 C722 1.379 . S
C722 H706 0.931 . S
C722 C716 1.383 . S
C722 C721 1.379 . S
H723 C717 0.959 . S
H724 C717 0.961 . S
H725 C717 0.960 . S
H726 C718 0.930 . S
H727 C719 0.929 . S
H728 C736 0.929 . S
H729 C738 0.930 . S
H730 C740 0.930 . S
H731 C743 0.929 . S
H732 C746 0.930 . S
H733 C748 0.960 . S
H734 C748 0.960 . S
H735 C748 0.960 . S
C736 H728 0.929 . S
C736 C737 1.377 . S
C736 C738 1.384 . S
C737 C736 1.377 . S
C737 C743 1.390 . S
C738 H729 0.930 . S
C738 C736 1.384 . S
C738 C739 1.372 . S
C739 C738 1.372 . S
C739 C740 1.400 . S
C739 C744 1.490 . S
C740 H730 0.930 . S
C740 C739 1.400 . S
C740 C743 1.386 . S
H741 C757 0.930 . S
H742 C758 0.931 . S
C743 H731 0.929 . S
C743 C737 1.390 . S
C743 C740 1.386 . S
C744 C739 1.490 . S
C744 C746 1.395 . S
C744 C747 1.403 . S
H745 C751 0.930 . S
C746 H732 0.930 . S
C746 C744 1.395 . S
C746 C749 1.403 . S
C747 C744 1.403 . S
C747 C748 1.524 . S
C747 C751 1.400 . S
C748 H733 0.960 . S
C748 H734 0.960 . S
C748 H735 0.960 . S
C748 C747 1.524 . S
C749 C746 1.403 . S
C749 C750 1.392 . S
C749 C753 1.495 . S
C750 C749 1.392 . S
C750 C751 1.385 . S
C750 C752 1.478 . S
C751 H745 0.930 . S
C751 C747 1.400 . S
C751 C750 1.385 . S
C752 C750 1.478 . S
C752 C754 1.381 . S
C752 C758 1.383 . S
C753 C749 1.495 . S
C753 H759 0.959 . S
C753 H760 0.961 . S
C753 H761 0.960 . S
C754 C752 1.381 . S
C754 C755 1.394 . S
C754 H762 0.930 . S
C755 C754 1.394 . S
C755 C756 1.383 . S
C755 H763 0.929 . S
C756 C755 1.383 . S
C756 C757 1.377 . S
C757 H741 0.930 . S
C757 C756 1.377 . S
C757 C758 1.379 . S
C758 H742 0.931 . S
C758 C752 1.383 . S
C758 C757 1.379 . S
H759 C753 0.959 . S
H760 C753 0.961 . S
H761 C753 0.960 . S
H762 C754 0.930 . S
H763 C755 0.929 . S
H764 C772 0.929 . S
H765 C774 0.930 . S
H766 C776 0.930 1_554 S
H767 C779 0.929 1_554 S
H768 C782 0.930 . S
H769 C784 0.960 . S
H770 C784 0.960 1_556 S
H771 C784 0.960 . S
C772 H764 0.929 . S
C772 C773 1.377 . S
C772 C774 1.384 . S
C773 C772 1.377 . S
C773 C779 1.390 . S
C774 H765 0.930 . S
C774 C772 1.384 . S
C774 C775 1.372 . S
C775 C774 1.372 . S
C775 C776 1.400 . S
C775 C780 1.490 . S
C776 H766 0.930 1_556 S
C776 C775 1.400 . S
C776 C779 1.386 . S
H777 C793 0.930 . S
H778 C794 0.931 . S
C779 H767 0.929 1_556 S
C779 C773 1.390 . S
C779 C776 1.386 . S
C780 C775 1.490 . S
C780 C782 1.395 . S
C780 C783 1.403 . S
H781 C787 0.930 1_544 S
C782 H768 0.930 . S
C782 C780 1.395 . S
C782 C785 1.403 . S
C783 C780 1.403 . S
C783 C784 1.524 1_566 S
C783 C787 1.400 . S
C784 H769 0.960 . S
C784 H770 0.960 1_554 S
C784 H771 0.960 . S
C784 C783 1.524 1_544 S
C785 C782 1.403 . S
C785 C786 1.392 . S
C785 C789 1.495 . S
C786 C785 1.392 . S
C786 C787 1.385 . S
C786 C788 1.478 . S
C787 H781 0.930 1_566 S
C787 C783 1.400 . S
C787 C786 1.385 . S
C788 C786 1.478 . S
C788 C790 1.381 . S
C788 C794 1.383 1_556 S
C789 C785 1.495 . S
C789 H795 0.959 . S
C789 H796 0.961 . S
C789 H797 0.960 . S
C790 C788 1.381 . S
C790 C791 1.394 . S
C790 H798 0.930 . S
C791 C790 1.394 . S
C791 C792 1.354 1_556 S
C791 H799 0.929 1_565 S
C792 C791 1.354 1_554 S
C792 C793 1.399 . S
C793 H777 0.930 . S
C793 C792 1.399 . S
C793 C794 1.379 . S
C794 H778 0.931 . S
C794 C788 1.383 1_554 S
C794 C793 1.379 . S
H795 C789 0.959 . S
H796 C789 0.961 . S
H797 C789 0.960 . S
H798 C790 0.930 . S
H799 C791 0.929 1_545 S
H800 C808 0.929 . S
H801 C810 0.930 . S
H802 C812 0.930 . S
H803 C815 0.929 . S
H804 C818 0.930 . S
H805 C820 0.960 . S
H806 C820 0.960 . S
H807 C820 0.960 . S
C808 H800 0.929 . S
C808 C809 1.377 . S
C808 C810 1.384 . S
C809 C808 1.377 . S
C809 C815 1.390 . S
C810 H801 0.930 . S
C810 C808 1.384 . S
C810 C811 1.372 . S
C811 C810 1.372 . S
C811 C812 1.400 . S
C811 C816 1.490 . S
C812 H802 0.930 . S
C812 C811 1.400 . S
C812 C815 1.386 . S
H813 C829 0.930 . S
H814 C830 0.931 . S
C815 H803 0.929 . S
C815 C809 1.390 . S
C815 C812 1.386 . S
C816 C811 1.490 . S
C816 C818 1.395 . S
C816 C819 1.403 . S
H817 C823 0.930 . S
C818 H804 0.930 . S
C818 C816 1.395 . S
C818 C821 1.403 . S
C819 C816 1.403 . S
C819 C820 1.524 . S
C819 C823 1.400 . S
C820 H805 0.960 . S
C820 H806 0.960 . S
C820 H807 0.960 . S
C820 C819 1.524 . S
C821 C818 1.403 . S
C821 C822 1.392 . S
C821 C825 1.495 . S
C822 C821 1.392 . S
C822 C823 1.385 . S
C822 C824 1.478 . S
C823 H817 0.930 . S
C823 C819 1.400 . S
C823 C822 1.385 . S
C824 C822 1.478 . S
C824 C826 1.381 . S
C824 C830 1.383 . S
C825 C821 1.495 . S
C825 H831 0.959 1_545 S
C825 H832 0.961 . S
C825 H833 0.959 1_545 S
C826 C824 1.381 . S
C826 C827 1.394 . S
C826 H834 0.930 . S
C827 C826 1.394 . S
C827 C828 1.383 . S
C827 H835 0.929 . S
C828 C827 1.383 . S
C828 C829 1.377 . S
C829 H813 0.930 . S
C829 C828 1.377 . S
C829 C830 1.379 . S
C830 H814 0.931 . S
C830 C824 1.383 . S
C830 C829 1.379 . S
H831 C825 0.959 1_565 S
H832 C825 0.961 . S
H833 C825 0.959 1_565 S
H834 C826 0.930 . S
H835 C827 0.929 . S
H836 C844 0.929 . S
H837 C846 0.930 . S
H838 C848 0.930 . S
H839 C851 0.929 . S
H840 C854 0.930 . S
H841 C856 0.960 . S
H842 C856 0.960 . S
H843 C856 0.960 . S
C844 H836 0.929 . S
C844 C845 1.377 . S
C844 C846 1.384 . S
C845 C844 1.377 . S
C845 C851 1.390 . S
C846 H837 0.930 . S
C846 C844 1.384 . S
C846 C847 1.372 . S
C847 C846 1.372 . S
C847 C848 1.400 . S
C847 C852 1.490 . S
C848 H838 0.930 . S
C848 C847 1.400 . S
C848 C851 1.386 . S
H849 C865 0.930 . S
H850 C866 0.931 . S
C851 H839 0.929 . S
C851 C845 1.390 . S
C851 C848 1.386 . S
C852 C847 1.490 . S
C852 C854 1.395 . S
C852 C855 1.403 . S
H853 C859 0.930 . S
C854 H840 0.930 . S
C854 C852 1.395 . S
C854 C857 1.403 . S
C855 C852 1.403 . S
C855 C856 1.524 . S
C855 C859 1.400 . S
C856 H841 0.960 . S
C856 H842 0.960 . S
C856 H843 0.960 . S
C856 C855 1.524 . S
C857 C854 1.403 . S
C857 C858 1.392 . S
C857 C861 1.495 . S
C858 C857 1.392 . S
C858 C859 1.385 . S
C858 C860 1.478 . S
C859 H853 0.930 . S
C859 C855 1.400 . S
C859 C858 1.385 . S
C860 C858 1.478 . S
C860 C862 1.381 . S
C860 C866 1.383 . S
C861 C857 1.495 . S
C861 H867 0.959 1_554 S
C861 H868 0.961 . S
C861 H869 0.960 1_554 S
C862 C860 1.381 . S
C862 C863 1.394 . S
C862 H870 0.930 1_554 S
C863 C862 1.394 . S
C863 C864 1.383 . S
C863 H871 0.929 1_554 S
C864 C863 1.383 . S
C864 C865 1.377 . S
C865 H849 0.930 . S
C865 C864 1.377 . S
C865 C866 1.379 . S
C866 H850 0.931 . S
C866 C860 1.383 . S
C866 C865 1.379 . S
H867 C861 0.959 1_556 S
H868 C861 0.961 . S
H869 C861 0.960 1_556 S
H870 C862 0.930 1_556 S
H871 C863 0.929 1_556 S
H872 C880 0.929 . S
H873 C882 0.930 . S
H874 C884 0.930 . S
H875 C887 0.929 . S
H876 C890 0.930 . S
H877 C892 0.960 . S
H878 C892 0.960 . S
H879 C892 0.960 . S
C880 H872 0.929 . S
C880 C881 1.377 . S
C880 C882 1.384 . S
C881 C880 1.377 . S
C881 C887 1.390 . S
C882 H873 0.930 . S
C882 C880 1.384 . S
C882 C883 1.372 . S
C883 C882 1.372 . S
C883 C884 1.400 . S
C883 C888 1.490 . S
C884 H874 0.930 . S
C884 C883 1.400 . S
C884 C887 1.386 . S
H885 C901 0.930 . S
H886 C902 0.931 . S
C887 H875 0.929 . S
C887 C881 1.390 . S
C887 C884 1.386 . S
C888 C883 1.490 . S
C888 C890 1.395 . S
C888 C891 1.403 . S
H889 C895 0.930 . S
C890 H876 0.930 . S
C890 C888 1.395 . S
C890 C893 1.403 . S
C891 C888 1.403 . S
C891 C892 1.524 . S
C891 C895 1.400 . S
C892 H877 0.960 . S
C892 H878 0.960 . S
C892 H879 0.960 . S
C892 C891 1.524 . S
C893 C890 1.403 . S
C893 C894 1.392 . S
C893 C897 1.495 . S
C894 C893 1.392 . S
C894 C895 1.385 . S
C894 C896 1.478 . S
C895 H889 0.930 . S
C895 C891 1.400 . S
C895 C894 1.385 . S
C896 C894 1.478 . S
C896 C898 1.381 . S
C896 C902 1.383 . S
C897 C893 1.495 . S
C897 H903 0.959 . S
C897 H904 0.961 . S
C897 H905 0.960 . S
C898 C896 1.381 . S
C898 C899 1.394 . S
C898 H906 0.930 . S
C899 C898 1.394 . S
C899 C900 1.383 . S
C899 H907 0.929 . S
C900 C899 1.383 . S
C900 C901 1.377 . S
C901 H885 0.930 . S
C901 C900 1.377 . S
C901 C902 1.379 . S
C902 H886 0.931 . S
C902 C896 1.383 . S
C902 C901 1.379 . S
H903 C897 0.959 . S
H904 C897 0.961 . S
H905 C897 0.960 . S
H906 C898 0.930 . S
H907 C899 0.929 . S
H908 C916 0.947 . S
H909 C918 0.930 1_554 S
H910 C920 0.930 . S
H911 C923 0.929 . S
H912 C926 0.930 . S
H913 C928 0.960 . S
H914 C928 0.960 . S
H915 C928 0.960 . S
C916 H908 0.947 . S
C916 C917 1.363 1_455 S
C916 C918 1.384 . S
C917 C916 1.363 1_655 S
C917 C923 1.399 . S
C918 H909 0.930 1_556 S
C918 C916 1.384 . S
C918 C919 1.372 . S
C919 C918 1.372 . S
C919 C920 1.400 1_455 S
C919 C924 1.490 . S
C920 H910 0.930 . S
C920 C919 1.400 1_655 S
C920 C923 1.386 . S
H921 C937 0.930 . S
H922 C938 0.931 1_655 S
C923 H911 0.929 . S
C923 C917 1.399 . S
C923 C920 1.386 . S
C924 C919 1.490 . S
C924 C926 1.395 1_556 S
C924 C927 1.403 . S
H925 C931 0.930 . S
C926 H912 0.930 . S
C926 C924 1.395 1_554 S
C926 C929 1.403 . S
C927 C924 1.403 . S
C927 C928 1.524 . S
C927 C931 1.400 . S
C928 H913 0.960 . S
C928 H914 0.960 . S
C928 H915 0.960 . S
C928 C927 1.524 . S
C929 C926 1.403 . S
C929 C930 1.392 1_554 S
C929 C933 1.495 . S
C930 C929 1.392 1_556 S
C930 C931 1.385 . S
C930 C932 1.478 . S
C931 H925 0.930 . S
C931 C927 1.400 . S
C931 C930 1.385 . S
C932 C930 1.478 . S
C932 C934 1.381 1_556 S
C932 C938 1.383 . S
C933 C929 1.495 . S
C933 H939 0.959 . S
C933 H940 0.961 . S
C933 H941 0.960 . S
C934 C932 1.381 1_554 S
C934 C935 1.394 . S
C934 H942 0.930 . S
C935 C934 1.394 . S
C935 C936 1.368 1_554 S
C935 H943 0.929 . S
C936 C935 1.368 1_556 S
C936 C937 1.394 . S
C937 H921 0.930 . S
C937 C936 1.394 . S
C937 C938 1.379 . S
C938 H922 0.931 1_455 S
C938 C932 1.383 . S
C938 C937 1.379 . S
H939 C933 0.959 . S
H940 C933 0.961 . S
H941 C933 0.960 . S
H942 C934 0.930 . S
H943 C935 0.929 . S
H944 C952 0.929 . S
H945 C954 0.930 . S
H946 C956 0.930 . S
H947 C959 0.929 . S
H948 C962 0.930 . S
H949 C964 0.960 . S
H950 C964 0.960 . S
H951 C964 0.960 . S
C952 H944 0.929 . S
C952 C953 1.377 . S
C952 C954 1.384 . S
C953 C952 1.377 . S
C953 C959 1.390 . S
C954 H945 0.930 . S
C954 C952 1.384 . S
C954 C955 1.372 . S
C955 C954 1.372 . S
C955 C956 1.400 . S
C955 C960 1.490 . S
C956 H946 0.930 . S
C956 C955 1.400 . S
C956 C959 1.386 . S
H957 C973 0.930 1_556 S
H958 C974 0.931 . S
C959 H947 0.929 . S
C959 C953 1.390 . S
C959 C956 1.386 . S
C960 C955 1.490 . S
C960 C962 1.395 . S
C960 C963 1.403 . S
H961 C967 0.930 . S
C962 H948 0.930 . S
C962 C960 1.395 . S
C962 C965 1.403 . S
C963 C960 1.403 . S
C963 C964 1.524 . S
C963 C967 1.400 . S
C964 H949 0.960 . S
C964 H950 0.960 . S
C964 H951 0.960 . S
C964 C963 1.524 . S
C965 C962 1.403 . S
C965 C966 1.392 . S
C965 C969 1.495 . S
C966 C965 1.392 . S
C966 C967 1.385 . S
C966 C968 1.478 . S
C967 H961 0.930 . S
C967 C963 1.400 . S
C967 C966 1.385 . S
C968 C966 1.478 . S
C968 C970 1.381 . S
C968 C974 1.383 . S
C969 C965 1.495 . S
C969 H975 0.959 . S
C969 H976 0.961 . S
C969 H977 0.960 . S
C970 C968 1.381 . S
C970 C971 1.394 . S
C970 H978 0.930 . S
C971 C970 1.394 . S
C971 C972 1.383 . S
C971 H979 0.929 . S
C972 C971 1.383 . S
C972 C973 1.377 . S
C973 H957 0.930 1_554 S
C973 C972 1.377 . S
C973 C974 1.379 . S
C974 H958 0.931 . S
C974 C968 1.383 . S
C974 C973 1.379 . S
H975 C969 0.959 . S
H976 C969 0.961 . S
H977 C969 0.960 . S
H978 C970 0.930 . S
H979 C971 0.929 . S
H980 C988 0.929 . S
H981 C990 0.930 . S
H982 C992 0.930 . S
H983 C995 0.929 . S
H984 C998 0.930 . S
H985 C1000 0.960 . S
H986 C1000 0.960 . S
H987 C1000 0.960 . S
C988 H980 0.929 . S
C988 C989 1.377 . S
C988 C990 1.384 . S
C989 C988 1.377 . S
C989 C995 1.390 . S
C990 H981 0.930 . S
C990 C988 1.384 . S
C990 C991 1.372 . S
C991 C990 1.372 . S
C991 C992 1.400 . S
C991 C996 1.490 . S
C992 H982 0.930 . S
C992 C991 1.400 . S
C992 C995 1.386 . S
H993 C1009 0.930 . S
H994 C1010 0.931 . S
C995 H983 0.929 . S
C995 C989 1.390 . S
C995 C992 1.386 . S
C996 C991 1.490 . S
C996 C998 1.395 . S
C996 C999 1.403 . S
H997 C1003 0.930 . S
C998 H984 0.930 . S
C998 C996 1.395 . S
C998 C1001 1.403 . S
C999 C996 1.403 . S
C999 C1000 1.524 . S
C999 C1003 1.400 . S
C1000 H985 0.960 . S
C1000 H986 0.960 . S
C1000 H987 0.960 . S
C1000 C999 1.524 . S
C1001 C998 1.403 . S
C1001 C1002 1.392 . S
C1001 C1005 1.495 . S
C1002 C1001 1.392 . S
C1002 C1003 1.385 . S
C1002 C1004 1.478 . S
C1003 H997 0.930 . S
C1003 C999 1.400 . S
C1003 C1002 1.385 . S
C1004 C1002 1.478 . S
C1004 C1006 1.381 . S
C1004 C1010 1.383 . S
C1005 C1001 1.495 . S
C1005 H1011 0.959 . S
C1005 H1012 0.961 . S
C1005 H1013 0.960 . S
C1006 C1004 1.381 . S
C1006 C1007 1.394 . S
C1006 H1014 0.930 . S
C1007 C1006 1.394 . S
C1007 C1008 1.383 . S
C1007 H1015 0.929 . S
C1008 C1007 1.383 . S
C1008 C1009 1.377 . S
C1009 H993 0.930 . S
C1009 C1008 1.377 . S
C1009 C1010 1.379 . S
C1010 H994 0.931 . S
C1010 C1004 1.383 . S
C1010 C1009 1.379 . S
H1011 C1005 0.959 . S
H1012 C1005 0.961 . S
H1013 C1005 0.960 . S
H1014 C1006 0.930 . S
H1015 C1007 0.929 . S
H1016 C1024 0.929 . S
H1017 C1026 0.930 . S
H1018 C1028 0.930 . S
H1019 C1031 0.929 . S
H1020 C1034 0.930 . S
H1021 C1036 0.960 . S
H1022 C1036 0.960 . S
H1023 C1036 0.960 . S
C1024 H1016 0.929 . S
C1024 C1025 1.377 . S
C1024 C1026 1.384 . S
C1025 C1024 1.377 . S
C1025 C1031 1.390 . S
C1026 H1017 0.930 . S
C1026 C1024 1.384 . S
C1026 C1027 1.372 . S
C1027 C1026 1.372 . S
C1027 C1028 1.400 . S
C1027 C1032 1.490 . S
C1028 H1018 0.930 . S
C1028 C1027 1.400 . S
C1028 C1031 1.386 . S
H1029 C1045 0.930 . S
H1030 C1046 0.931 . S
C1031 H1019 0.929 . S
C1031 C1025 1.390 . S
C1031 C1028 1.386 . S
C1032 C1027 1.490 . S
C1032 C1034 1.395 . S
C1032 C1035 1.403 . S
H1033 C1039 0.930 . S
C1034 H1020 0.930 . S
C1034 C1032 1.395 . S
C1034 C1037 1.403 . S
C1035 C1032 1.403 . S
C1035 C1036 1.524 . S
C1035 C1039 1.400 . S
C1036 H1021 0.960 . S
C1036 H1022 0.960 . S
C1036 H1023 0.960 . S
C1036 C1035 1.524 . S
C1037 C1034 1.403 . S
C1037 C1038 1.392 . S
C1037 C1041 1.495 . S
C1038 C1037 1.392 . S
C1038 C1039 1.385 . S
C1038 C1040 1.478 . S
C1039 H1033 0.930 . S
C1039 C1035 1.400 . S
C1039 C1038 1.385 . S
C1040 C1038 1.478 . S
C1040 C1042 1.381 . S
C1040 C1046 1.383 . S
C1041 C1037 1.495 . S
C1041 H1047 0.959 . S
C1041 H1048 0.961 . S
C1041 H1049 0.960 . S
C1042 C1040 1.381 . S
C1042 C1043 1.394 . S
C1042 H1050 0.930 . S
C1043 C1042 1.394 . S
C1043 C1044 1.383 . S
C1043 H1051 0.929 . S
C1044 C1043 1.383 . S
C1044 C1045 1.377 . S
C1045 H1029 0.930 . S
C1045 C1044 1.377 . S
C1045 C1046 1.379 . S
C1046 H1030 0.931 . S
C1046 C1040 1.383 . S
C1046 C1045 1.379 . S
H1047 C1041 0.959 . S
H1048 C1041 0.961 . S
H1049 C1041 0.960 . S
H1050 C1042 0.930 . S
H1051 C1043 0.929 . S
C197 C9 2.045 . S
C216 C107 1.880 . S
C233 C21 1.546 . S
C252 C141 1.373 . S
C288 C153 1.103 . S
C269 C30 1.147 . S
C305 C43 1.219 . S
C324 C187 1.179 . S
C360 C144 1.403 . S
C341 C4 1.427 . S
C396 C124 1.927 1_565 S
C377 C22 2.102 . S
C432 C171 1.043 . S
C413 C34 1.145 . S
C468 C162 1.267 . S
C449 C48 1.328 . S
C485 C8 1.650 . S
C504 C170 1.516 . S
C540 C132 1.363 . S
C521 C35 1.520 . S
C557 C47 1.614 . S
C576 C108 1.475 . S
C593 C17 1.324 . S
C612 C165 1.249 . S
C648 C123 1.565 . S
C629 C60 1.668 . S
C665 C74 1.892 . S
C684 C145 1.783 . S
C701 C82 1.080 . S
C720 C150 1.038 . S
C737 C100 1.916 . S
C756 C183 1.822 . S
C773 C61 1.952 . S
C792 C128 1.828 . S
C828 C120 1.628 . S
C809 C73 1.696 . S
C864 C174 1.505 . S
C845 C87 1.648 . S
C900 C166 1.089 . S
C881 C95 1.050 . S
C917 C56 1.617 . S
C936 C186 1.622 . S
C972 C129 1.576 . S
C953 C86 1.716 . S
C1008 C111 1.435 . S
C989 C99 1.534 . S
C1025 C69 1.495 . S
C1044 C149 1.425 . S
