# Generated by pormake.
# Topology eea, (3,6)-cn, num edge types: 1
# Building blocks:
#     Node 0, Type 0, BuildingBlock: BETDAH_clean_linker_0, # of connection points: 3
#     Node 1, Type 0, BuildingBlock: BETDAH_clean_linker_0, # of connection points: 3
#     Node 2, Type 0, BuildingBlock: BETDAH_clean_linker_0, # of connection points: 3
#     Node 3, Type 0, BuildingBlock: BETDAH_clean_linker_0, # of connection points: 3
#     Node 4, Type 0, BuildingBlock: BETDAH_clean_linker_0, # of connection points: 3
#     Node 5, Type 0, BuildingBlock: BETDAH_clean_linker_0, # of connection points: 3
#     Node 6, Type 0, BuildingBlock: BETDAH_clean_linker_0, # of connection points: 3
#     Node 7, Type 0, BuildingBlock: BETDAH_clean_linker_0, # of connection points: 3
#     Node 8, Type 0, BuildingBlock: BETDAH_clean_linker_0, # of connection points: 3
#     Node 9, Type 0, BuildingBlock: BETDAH_clean_linker_0, # of connection points: 3
#     Node 10, Type 0, BuildingBlock: BETDAH_clean_linker_0, # of connection points: 3
#     Node 11, Type 0, BuildingBlock: BETDAH_clean_linker_0, # of connection points: 3
#     Node 12, Type 0, BuildingBlock: BETDAH_clean_linker_0, # of connection points: 3
#     Node 13, Type 0, BuildingBlock: BETDAH_clean_linker_0, # of connection points: 3
#     Node 14, Type 0, BuildingBlock: BETDAH_clean_linker_0, # of connection points: 3
#     Node 15, Type 0, BuildingBlock: BETDAH_clean_linker_0, # of connection points: 3
#     Node 16, Type 0, BuildingBlock: BETDAH_clean_linker_0, # of connection points: 3
#     Node 17, Type 0, BuildingBlock: BETDAH_clean_linker_0, # of connection points: 3
#     Node 18, Type 1, BuildingBlock: HISSIN_clean_sbu_0, # of connection points: 6
#     Node 19, Type 1, BuildingBlock: HISSIN_clean_sbu_0, # of connection points: 6
#     Node 20, Type 1, BuildingBlock: HISSIN_clean_sbu_0, # of connection points: 6
#     Node 21, Type 1, BuildingBlock: HISSIN_clean_sbu_0, # of connection points: 6
#     Node 22, Type 1, BuildingBlock: HISSIN_clean_sbu_0, # of connection points: 6
#     Node 23, Type 1, BuildingBlock: HISSIN_clean_sbu_0, # of connection points: 6
#     Node 24, Type 1, BuildingBlock: HISSIN_clean_sbu_0, # of connection points: 6
#     Node 25, Type 1, BuildingBlock: HISSIN_clean_sbu_0, # of connection points: 6
#     Node 26, Type 1, BuildingBlock: HISSIN_clean_sbu_0, # of connection points: 6
#     Edge 27, Type (0, 1), BuildingBlock: XIVTED_clean_linker_0, # of connection points: 2
#     Edge 28, Type (0, 1), BuildingBlock: XIVTED_clean_linker_0, # of connection points: 2
#     Edge 29, Type (0, 1), BuildingBlock: XIVTED_clean_linker_0, # of connection points: 2
#     Edge 30, Type (0, 1), BuildingBlock: XIVTED_clean_linker_0, # of connection points: 2
#     Edge 31, Type (0, 1), BuildingBlock: XIVTED_clean_linker_0, # of connection points: 2
#     Edge 32, Type (0, 1), BuildingBlock: XIVTED_clean_linker_0, # of connection points: 2
#     Edge 33, Type (0, 1), BuildingBlock: XIVTED_clean_linker_0, # of connection points: 2
#     Edge 34, Type (0, 1), BuildingBlock: XIVTED_clean_linker_0, # of connection points: 2
#     Edge 35, Type (0, 1), BuildingBlock: XIVTED_clean_linker_0, # of connection points: 2
#     Edge 36, Type (0, 1), BuildingBlock: XIVTED_clean_linker_0, # of connection points: 2
#     Edge 37, Type (0, 1), BuildingBlock: XIVTED_clean_linker_0, # of connection points: 2
#     Edge 38, Type (0, 1), BuildingBlock: XIVTED_clean_linker_0, # of connection points: 2
#     Edge 39, Type (0, 1), BuildingBlock: XIVTED_clean_linker_0, # of connection points: 2
#     Edge 40, Type (0, 1), BuildingBlock: XIVTED_clean_linker_0, # of connection points: 2
#     Edge 41, Type (0, 1), BuildingBlock: XIVTED_clean_linker_0, # of connection points: 2
#     Edge 42, Type (0, 1), BuildingBlock: XIVTED_clean_linker_0, # of connection points: 2
#     Edge 43, Type (0, 1), BuildingBlock: XIVTED_clean_linker_0, # of connection points: 2
#     Edge 44, Type (0, 1), BuildingBlock: XIVTED_clean_linker_0, # of connection points: 2
#     Edge 45, Type (0, 1), BuildingBlock: XIVTED_clean_linker_0, # of connection points: 2
#     Edge 46, Type (0, 1), BuildingBlock: XIVTED_clean_linker_0, # of connection points: 2
#     Edge 47, Type (0, 1), BuildingBlock: XIVTED_clean_linker_0, # of connection points: 2
#     Edge 48, Type (0, 1), BuildingBlock: XIVTED_clean_linker_0, # of connection points: 2
#     Edge 49, Type (0, 1), BuildingBlock: XIVTED_clean_linker_0, # of connection points: 2
#     Edge 50, Type (0, 1), BuildingBlock: XIVTED_clean_linker_0, # of connection points: 2
#     Edge 51, Type (0, 1), BuildingBlock: XIVTED_clean_linker_0, # of connection points: 2
#     Edge 52, Type (0, 1), BuildingBlock: XIVTED_clean_linker_0, # of connection points: 2
#     Edge 53, Type (0, 1), BuildingBlock: XIVTED_clean_linker_0, # of connection points: 2
#     Edge 54, Type (0, 1), BuildingBlock: XIVTED_clean_linker_0, # of connection points: 2
#     Edge 55, Type (0, 1), BuildingBlock: XIVTED_clean_linker_0, # of connection points: 2
#     Edge 56, Type (0, 1), BuildingBlock: XIVTED_clean_linker_0, # of connection points: 2
#     Edge 57, Type (0, 1), BuildingBlock: XIVTED_clean_linker_0, # of connection points: 2
#     Edge 58, Type (0, 1), BuildingBlock: XIVTED_clean_linker_0, # of connection points: 2
#     Edge 59, Type (0, 1), BuildingBlock: XIVTED_clean_linker_0, # of connection points: 2
#     Edge 60, Type (0, 1), BuildingBlock: XIVTED_clean_linker_0, # of connection points: 2
#     Edge 61, Type (0, 1), BuildingBlock: XIVTED_clean_linker_0, # of connection points: 2
#     Edge 62, Type (0, 1), BuildingBlock: XIVTED_clean_linker_0, # of connection points: 2
#     Edge 63, Type (0, 1), BuildingBlock: XIVTED_clean_linker_0, # of connection points: 2
#     Edge 64, Type (0, 1), BuildingBlock: XIVTED_clean_linker_0, # of connection points: 2
#     Edge 65, Type (0, 1), BuildingBlock: XIVTED_clean_linker_0, # of connection points: 2
#     Edge 66, Type (0, 1), BuildingBlock: XIVTED_clean_linker_0, # of connection points: 2
#     Edge 67, Type (0, 1), BuildingBlock: XIVTED_clean_linker_0, # of connection points: 2
#     Edge 68, Type (0, 1), BuildingBlock: XIVTED_clean_linker_0, # of connection points: 2
#     Edge 69, Type (0, 1), BuildingBlock: XIVTED_clean_linker_0, # of connection points: 2
#     Edge 70, Type (0, 1), BuildingBlock: XIVTED_clean_linker_0, # of connection points: 2
#     Edge 71, Type (0, 1), BuildingBlock: XIVTED_clean_linker_0, # of connection points: 2
#     Edge 72, Type (0, 1), BuildingBlock: XIVTED_clean_linker_0, # of connection points: 2
#     Edge 73, Type (0, 1), BuildingBlock: XIVTED_clean_linker_0, # of connection points: 2
#     Edge 74, Type (0, 1), BuildingBlock: XIVTED_clean_linker_0, # of connection points: 2
#     Edge 75, Type (0, 1), BuildingBlock: XIVTED_clean_linker_0, # of connection points: 2
#     Edge 76, Type (0, 1), BuildingBlock: XIVTED_clean_linker_0, # of connection points: 2
#     Edge 77, Type (0, 1), BuildingBlock: XIVTED_clean_linker_0, # of connection points: 2
#     Edge 78, Type (0, 1), BuildingBlock: XIVTED_clean_linker_0, # of connection points: 2
#     Edge 79, Type (0, 1), BuildingBlock: XIVTED_clean_linker_0, # of connection points: 2
#     Edge 80, Type (0, 1), BuildingBlock: XIVTED_clean_linker_0, # of connection points: 2
# Relax obj value: 0.057
# Max RMSD: 0.205
# Mean RMSD: 0.145
data_MOF--net-eea--node1-HISSIN_clean_sbu_0--node2-BETDAH_clean_linker_0--edge1-XIVTED_clean_linker_0
_symmetry_space_group_name_H-M    P1
_symmetry_Int_Tables_number       1
_symmetry_cell_setting            triclinic
loop_
_symmetry_equiv_pos_as_xyz
'x, y, z'
_cell_length_a     55.34906
_cell_length_b     55.666168
_cell_length_c     69.371451
_cell_angle_alpha  93.00363
_cell_angle_beta   93.527563
_cell_angle_gamma 119.76545
loop_
_atom_site_label
_atom_site_type_symbol
_atom_site_fract_x
_atom_site_fract_y
_atom_site_fract_z
_atom_type_partial_charge
H0 H 0.2596 0.08165 0.42237 0.0
H1 H 0.28846 0.16862 0.41811 0.0
H2 H 0.2593 0.11186 0.36665 0.0
C3 C 0.26391 0.09876 0.41373 0.0
C4 C 0.25799 0.09344 0.39348 0.0
C5 C 0.27523 0.12582 0.42291 0.0
C6 C 0.27937 0.14751 0.4115 0.0
C7 C 0.27339 0.14228 0.39124 0.0
C8 C 0.26308 0.11545 0.38233 0.0
N9 N 0.27945 0.16413 0.37944 0.0
C10 C 0.26684 0.18023 0.38101 0.0
H11 H 0.93771 0.19236 0.43499 0.0
H12 H 0.86074 0.11518 0.41902 0.0
H13 H 0.92028 0.15063 0.37752 0.0
C14 C 0.92406 0.17513 0.42434 0.0
C15 C 0.93233 0.17422 0.40565 0.0
C16 C 0.89821 0.15393 0.42934 0.0
C17 C 0.88084 0.13142 0.41548 0.0
C18 C 0.88882 0.13049 0.39675 0.0
C19 C 0.91425 0.15194 0.39194 0.0
N20 N 0.87162 0.10859 0.38222 0.0
C21 C 0.85155 0.08209 0.38599 0.0
H22 H 0.83506 0.75987 0.44678 0.0
H23 H 0.89194 0.72985 0.43772 0.0
H24 H 0.86566 0.76143 0.39087 0.0
C25 C 0.84776 0.7559 0.43729 0.0
C26 C 0.84792 0.76198 0.41782 0.0
C27 C 0.86323 0.74401 0.44463 0.0
C28 C 0.88055 0.73984 0.43259 0.0
C29 C 0.88213 0.74705 0.41347 0.0
C30 C 0.86568 0.75785 0.40606 0.0
N31 N 0.89664 0.73905 0.40092 0.0
C32 C 0.92242 0.75781 0.39503 0.0
H33 H 0.06479 0.2463 0.58422 0.0
H34 H 0.13332 0.23038 0.59283 0.0
H35 H 0.07013 0.20301 0.63234 0.0
C36 C 0.07544 0.23756 0.59234 0.0
C37 C 0.0646 0.2247 0.60912 0.0
C38 C 0.10036 0.23989 0.58633 0.0
C39 C 0.11441 0.22912 0.59742 0.0
C40 C 0.10331 0.21576 0.61402 0.0
C41 C 0.07861 0.21367 0.61965 0.0
N42 N 0.11563 0.20335 0.62529 0.0
C43 C 0.14207 0.2067 0.62413 0.0
H44 H 0.74134 0.81623 0.60235 0.0
H45 H 0.72282 0.88118 0.61676 0.0
H46 H 0.74821 0.84652 0.66201 0.0
C47 C 0.74 0.83028 0.61307 0.0
C48 C 0.74636 0.82931 0.63287 0.0
C49 C 0.73121 0.84873 0.60705 0.0
C50 C 0.7291 0.86652 0.62113 0.0
C51 C 0.73492 0.86536 0.64093 0.0
C52 C 0.74311 0.84659 0.64668 0.0
N53 N 0.73303 0.88312 0.65538 0.0
C54 C 0.74094 0.91049 0.65276 0.0
H55 H 0.15984 0.91563 0.58469 0.0
H56 H 0.10303 0.83163 0.59683 0.0
H57 H 0.14389 0.89638 0.64348 0.0
C58 C 0.14887 0.90076 0.59493 0.0
C59 C 0.15355 0.90974 0.61483 0.0
C60 C 0.13085 0.87259 0.5882 0.0
C61 C 0.1168 0.85344 0.60167 0.0
C62 C 0.12132 0.86225 0.62154 0.0
C63 C 0.13983 0.89015 0.62802 0.0
N64 N 0.1097 0.8429 0.63543 0.0
C65 C 0.08116 0.82781 0.637 0.0
H66 H 0.91936 0.41199 0.76181 0.0
H67 H 0.94417 0.49659 0.75208 0.0
H68 H 0.92112 0.43576 0.70364 0.0
C69 C 0.92261 0.42756 0.75195 0.0
C70 C 0.91837 0.42018 0.73184 0.0
C71 C 0.93203 0.45506 0.75948 0.0
C72 C 0.93704 0.47532 0.74657 0.0
C73 C 0.93333 0.46823 0.72645 0.0
C74 C 0.92437 0.44091 0.71922 0.0
N75 N 0.93877 0.48831 0.71314 0.0
C76 C 0.92841 0.50639 0.71453 0.0
H77 H 0.60176 0.52376 0.77153 0.0
H78 H 0.53355 0.43955 0.75849 0.0
H79 H 0.59781 0.47472 0.72013 0.0
C80 C 0.59115 0.50449 0.76214 0.0
C81 C 0.60256 0.50222 0.74504 0.0
C82 C 0.56621 0.48192 0.76719 0.0
C83 C 0.55286 0.45693 0.75489 0.0
C84 C 0.56435 0.45448 0.73789 0.0
C85 C 0.58898 0.47706 0.73314 0.0
N86 N 0.55208 0.42966 0.72522 0.0
C87 C 0.52683 0.40592 0.72714 0.0
H88 H 0.50458 0.09659 0.7806 0.0
H89 H 0.56563 0.0724 0.76902 0.0
H90 H 0.52898 0.09595 0.72296 0.0
C91 C 0.51746 0.09364 0.77069 0.0
C92 C 0.51519 0.09846 0.75112 0.0
C93 C 0.5354 0.08399 0.77741 0.0
C94 C 0.55191 0.08008 0.76429 0.0
C95 C 0.54978 0.0848 0.74475 0.0
C96 C 0.5313 0.09364 0.73826 0.0
N97 N 0.56297 0.07703 0.73087 0.0
C98 C 0.59178 0.09032 0.73034 0.0
H99 H 0.72461 0.58297 0.91834 0.0
H100 H 0.79291 0.56727 0.92951 0.0
H101 H 0.72923 0.54276 0.96852 0.0
C102 C 0.7351 0.57468 0.92713 0.0
C103 C 0.72402 0.56292 0.94417 0.0
C104 C 0.76012 0.57656 0.92172 0.0
C105 C 0.77392 0.56633 0.93362 0.0
C106 C 0.76257 0.55409 0.95051 0.0
C107 C 0.73787 0.55254 0.95558 0.0
N108 N 0.77474 0.54247 0.96274 0.0
C109 C 0.80042 0.54409 0.96142 0.0
H110 H 0.41204 0.1523 0.93534 0.0
H111 H 0.39239 0.21766 0.94409 0.0
H112 H 0.41753 0.18836 0.99301 0.0
C113 C 0.40979 0.16686 0.94499 0.0
C114 C 0.41627 0.16838 0.9651 0.0
C115 C 0.40097 0.18442 0.93719 0.0
C116 C 0.39943 0.20418 0.94978 0.0
C117 C 0.40546 0.20549 0.9699 0.0
C118 C 0.41339 0.18738 0.97743 0.0
N119 N 0.40288 0.22425 0.983 0.0
C120 C 0.41116 0.25136 0.97929 0.0
H121 H 0.83107 0.24985 0.92221 0.0
H122 H 0.78027 0.16203 0.92598 0.0
H123 H 0.78682 0.21938 0.97254 0.0
C124 C 0.81696 0.23277 0.92997 0.0
C125 C 0.81061 0.23827 0.94847 0.0
C126 C 0.8058 0.20542 0.92149 0.0
C127 C 0.78833 0.18332 0.93191 0.0
C128 C 0.78114 0.1883 0.95006 0.0
C129 C 0.79209 0.21574 0.95831 0.0
N130 N 0.76458 0.16521 0.96031 0.0
C131 C 0.74139 0.16184 0.96916 0.0
H132 H 0.58352 0.7487 0.09478 0.0
H133 H 0.6199 0.83582 0.08695 0.0
H134 H 0.5819 0.77502 0.03777 0.0
C135 C 0.58828 0.76515 0.08542 0.0
C136 C 0.58062 0.75827 0.06537 0.0
C137 C 0.60277 0.79303 0.09346 0.0
C138 C 0.60842 0.81418 0.08117 0.0
C139 C 0.60091 0.80748 0.0611 0.0
C140 C 0.58747 0.77975 0.0533 0.0
N141 N 0.60831 0.8284 0.04826 0.0
C142 C 0.60203 0.84952 0.05069 0.0
H143 H 0.27545 0.84115 0.10206 0.0
H144 H 0.19652 0.76592 0.08629 0.0
H145 H 0.25905 0.7951 0.04642 0.0
C146 C 0.2615 0.82373 0.09165 0.0
C147 C 0.27066 0.82071 0.07366 0.0
C148 C 0.23471 0.80413 0.09644 0.0
C149 C 0.21732 0.78095 0.08303 0.0
C150 C 0.22641 0.77763 0.06512 0.0
C151 C 0.25275 0.79759 0.06054 0.0
N152 N 0.2096 0.75481 0.0511 0.0
C153 C 0.18426 0.73183 0.05406 0.0
H154 H 0.16102 0.42398 0.11206 0.0
H155 H 0.22356 0.40313 0.09764 0.0
H156 H 0.18154 0.42371 0.05325 0.0
C157 C 0.17347 0.42147 0.10154 0.0
C158 C 0.16951 0.42587 0.08209 0.0
C159 C 0.19271 0.41299 0.10739 0.0
C160 C 0.20876 0.40979 0.09353 0.0
C161 C 0.20482 0.41399 0.07408 0.0
C162 C 0.18506 0.4216 0.06846 0.0
N163 N 0.21815 0.40764 0.05952 0.0
C164 C 0.247 0.42087 0.05927 0.0
H165 H 0.39532 0.9095 0.25565 0.0
H166 H 0.47296 0.91029 0.26891 0.0
H167 H 0.41192 0.88357 0.30984 0.0
C168 C 0.40869 0.90528 0.26524 0.0
C169 C 0.39997 0.89544 0.28329 0.0
C170 C 0.43506 0.91088 0.25985 0.0
C171 C 0.45267 0.90618 0.27278 0.0
C172 C 0.44424 0.89662 0.29088 0.0
C173 C 0.41815 0.89141 0.29595 0.0
N174 N 0.46167 0.89302 0.30489 0.0
C175 C 0.48319 0.88797 0.30111 0.0
H176 H 0.07265 0.48447 0.26955 0.0
H177 H 0.05525 0.55066 0.2821 0.0
H178 H 0.08803 0.52275 0.32788 0.0
C179 C 0.07247 0.49969 0.27984 0.0
C180 C 0.08176 0.50151 0.29945 0.0
C181 C 0.06272 0.51722 0.2734 0.0
C182 C 0.06296 0.53723 0.28682 0.0
C183 C 0.07183 0.53887 0.30652 0.0
C184 C 0.08086 0.52089 0.31269 0.0
N185 N 0.07128 0.5578 0.32071 0.0
C186 C 0.07352 0.58301 0.31689 0.0
H187 H 0.50309 0.58877 0.25751 0.0
H188 H 0.4487 0.50187 0.26332 0.0
H189 H 0.47174 0.5618 0.31233 0.0
C190 C 0.49017 0.57235 0.26621 0.0
C191 C 0.4891 0.57895 0.28587 0.0
C192 C 0.47567 0.54468 0.25781 0.0
C193 C 0.45931 0.52342 0.26929 0.0
C194 C 0.45775 0.52972 0.28884 0.0
C195 C 0.47263 0.55735 0.29708 0.0
N196 N 0.44436 0.50799 0.30085 0.0
C197 C 0.41668 0.49749 0.30448 0.0
Eu198 Eu 0.49578 -0.00449 1.00045 0.0
Eu199 Eu 0.5118 0.02276 0.04635 0.0
C200 C 0.48319 0.04336 0.01512 0.0
C201 C 0.49118 0.98894 0.94501 0.0
C202 C 0.50808 0.01774 0.9444 0.0
C203 C 0.48687 0.98285 0.90978 0.0
C204 C 0.51446 0.02903 0.92657 0.0
C205 C 0.48053 0.97162 0.9276 0.0
C206 C 0.50407 0.01169 0.90901 0.0
C207 C 0.48525 0.97667 0.96366 0.0
O208 O 0.46586 0.9915 0.04239 0.0
O209 O 0.46439 0.96208 0.01735 0.0
C210 C 0.45341 0.96714 0.03225 0.0
O211 O 0.52563 0.98381 0.01447 0.0
O212 O 0.50216 0.03975 0.07192 0.0
O213 O 0.53853 0.03473 0.07368 0.0
O214 O 0.51407 0.98335 0.04552 0.0
C215 C 0.52514 0.97584 0.03195 0.0
O216 O 0.53203 0.03905 1.0004 0.0
O217 O 0.5515 0.04533 0.03175 0.0
O218 O 0.50296 0.05178 0.02958 0.0
O219 O 0.50689 0.98035 0.97476 0.0
O220 O 0.46783 0.98038 0.97346 0.0
O221 O 0.47318 0.01908 1.00519 0.0
C222 C 0.51361 0.02642 0.10124 0.0
C223 C 0.49541 -0.0024 0.10038 0.0
C224 C 0.51577 0.029 0.13644 0.0
C225 C 0.48742 0.98455 0.11746 0.0
C226 C 0.52373 0.04201 0.11935 0.0
C227 C 0.49749 8e-05 0.13573 0.0
C228 C 0.52208 0.04024 0.08332 0.0
C229 C 0.55348 0.05181 0.01373 0.0
H230 H 0.51658 0.03146 0.95772 0.0
H231 H 0.4781 0.9689 0.89659 0.0
H232 H 0.52798 0.05126 0.92657 0.0
H233 H 0.46741 0.94934 0.92779 0.0
H234 H 0.48744 0.98519 0.0865 0.0
H235 H 0.52363 0.04168 0.1502 0.0
H236 H 0.47362 0.96224 0.11633 0.0
H237 H 0.53773 0.06429 0.12028 0.0
Eu238 Eu -0.00161 0.49046 0.99616 0.0
Eu239 Eu 0.97388 0.48266 0.03919 0.0
C240 C 0.94438 0.43275 1.0047 0.0
C241 C 0.00801 0.49408 0.94197 0.0
C242 C 0.97964 0.48437 0.93643 0.0
C243 C 0.01716 0.49759 0.9082 0.0
C244 C 0.97009 0.48143 0.91683 0.0
C245 C 0.02665 0.50051 0.92777 0.0
C246 C 0.98881 0.48822 0.90249 0.0
C247 C 0.0187 0.49879 0.96251 0.0
O248 O 0.00244 0.46463 0.03995 0.0
O249 O 0.03047 0.48864 0.01674 0.0
C250 C 0.02564 0.47362 0.03154 0.0
O251 O 0.01346 0.53265 0.01177 0.0
O252 O 0.95569 0.45808 0.06335 0.0
O253 O 0.96385 0.50044 0.06405 0.0
O254 O 0.01608 0.52174 0.04272 0.0
C255 C 0.02383 0.5401 0.02997 0.0
O256 O 0.95696 0.48827 0.99065 0.0
O257 O 0.95449 0.50307 0.02159 0.0
O258 O 0.94095 0.44511 0.02009 0.0
O259 O 0.01568 0.51708 0.97296 0.0
O260 O 0.01281 0.47679 0.97148 0.0
O261 O 0.96677 0.44487 0.99533 0.0
C262 C 0.96794 0.48376 0.09396 0.0
C263 C 0.99664 0.5016 0.09933 0.0
C264 C 0.96096 0.47498 0.12763 0.0
C265 C 0.00741 0.50621 0.11881 0.0
C266 C 0.95021 0.47051 0.1082 0.0
C267 C 0.98968 0.49287 0.13317 0.0
C268 C 0.95613 0.47862 0.07362 0.0
C269 C 0.94675 0.49888 1.00283 0.0
H270 H 0.96499 0.47944 0.94728 0.0
H271 H 0.03203 0.50253 0.89752 0.0
H272 H 0.94819 0.47439 0.91294 0.0
H273 H 0.04863 0.50803 0.93184 0.0
H274 H 0.01068 0.51189 0.08848 0.0
H275 H 0.94671 0.46465 0.13835 0.0
H276 H 0.02967 0.51985 0.12258 0.0
H277 H 0.928 0.4567 0.10429 0.0
Eu278 Eu 0.5008 0.50404 0.02466 0.0
Eu279 Eu 0.47694 0.50877 0.98095 0.0
C280 C 0.50181 0.55922 0.01452 0.0
C281 C 0.51278 0.5049 0.07994 0.0
C282 C 0.52294 0.53176 0.08912 0.0
C283 C 0.49317 0.48559 0.10967 0.0
C284 C 0.51836 0.53547 0.10836 0.0
C285 C 0.49788 0.48188 0.09044 0.0
C286 C 0.50352 0.51244 0.11889 0.0
C287 C 0.51824 0.50064 0.05976 0.0
O288 O 0.51692 0.50864 0.97722 0.0
O289 O 0.53849 0.52638 0.00796 0.0
C290 C 0.53963 0.52125 0.98942 0.0
O291 O 0.49677 0.46819 1.00552 0.0
O292 O 0.4817 0.53351 0.95661 0.0
O293 O 0.44733 0.49126 0.95485 0.0
O294 O 0.46158 0.46336 0.98371 0.0
C295 C 0.4759 0.45314 0.99217 0.0
O296 O 0.45392 0.48382 0.0243 0.0
O297 O 0.44435 0.50565 1.00027 0.0
O298 O 0.50198 0.55208 0.99622 0.0
O299 O 0.49815 0.47946 0.04882 0.0
O300 O 0.53095 0.52261 0.05032 0.0
O301 O 0.49505 0.54118 0.02744 0.0
C302 C 0.46932 0.5074 0.92646 0.0
C303 C 0.48543 0.49442 0.92512 0.0
C304 C 0.4713 0.51324 0.89204 0.0
C305 C 0.49451 0.49095 0.90737 0.0
C306 C 0.4622 0.51667 0.90983 0.0
C307 C 0.48773 0.5005 0.89063 0.0
C308 C 0.46158 0.51286 0.94541 0.0
C309 C 0.43726 0.49117 0.0154 0.0
H310 H 0.53455 0.55 0.0815 0.0
H311 H 0.48195 0.46745 0.11746 0.0
H312 H 0.52635 0.55642 0.11498 0.0
H313 H 0.49004 0.46095 0.08382 0.0
H314 H 0.49139 0.4874 0.93789 0.0
H315 H 0.46546 0.52055 0.8794 0.0
H316 H 0.50746 0.48144 0.90689 0.0
H317 H 0.44991 0.52688 0.91065 0.0
Eu318 Eu 0.16299 0.32835 0.33047 0.0
Eu319 Eu 0.18157 0.35703 0.37606 0.0
C320 C 0.15884 0.38158 0.3432 0.0
C321 C 0.15727 0.32027 0.27532 0.0
C322 C 0.17546 0.34887 0.27472 0.0
C323 C 0.15293 0.31405 0.24011 0.0
C324 C 0.18224 0.36002 0.2569 0.0
C325 C 0.14613 0.30295 0.25793 0.0
C326 C 0.171 0.34275 0.23935 0.0
C327 C 0.14955 0.30845 0.29396 0.0
O328 O 0.14264 0.31551 0.37625 0.0
O329 O 0.12334 0.31192 0.3454 0.0
C330 C 0.12078 0.30531 0.36336 0.0
O331 O 0.16831 0.29768 0.34751 0.0
O332 O 0.17121 0.37279 0.40183 0.0
O333 O 0.20972 0.37166 0.40292 0.0
O334 O 0.1994 0.3287 0.37222 0.0
C335 C 0.18769 0.30443 0.36198 0.0
O336 O 0.20964 0.35717 0.3332 0.0
O337 O 0.21601 0.3875 0.35947 0.0
O338 O 0.15738 0.37488 0.36114 0.0
O339 O 0.16935 0.30818 0.30499 0.0
O340 O 0.13505 0.3165 0.30379 0.0
O341 O 0.16756 0.37062 0.33015 0.0
C342 C 0.18514 0.36092 0.43073 0.0
C343 C 0.16846 0.33186 0.42954 0.0
C344 C 0.18583 0.36262 0.46586 0.0
C345 C 0.16021 0.3183 0.44636 0.0
C346 C 0.19395 0.3762 0.44898 0.0
C347 C 0.16859 0.33352 0.46473 0.0
C348 C 0.19234 0.3752 0.41291 0.0
C349 C 0.2248 0.38103 0.34388 0.0
H350 H 0.18432 0.36256 0.28805 0.0
H351 H 0.14356 0.3002 0.22691 0.0
H352 H 0.19646 0.38213 0.25688 0.0
H353 H 0.13198 0.28084 0.25813 0.0
H354 H 0.16154 0.31969 0.41557 0.0
H355 H 0.19243 0.37498 0.47975 0.0
H356 H 0.14729 0.29586 0.44497 0.0
H357 H 0.20676 0.39865 0.45016 0.0
Eu358 Eu 0.68285 0.8338 0.3294 0.0
Eu359 Eu 0.6574 0.82341 0.37195 0.0
C360 C 0.6307 0.77517 0.33661 0.0
C361 C 0.68926 0.8385 0.27498 0.0
C362 C 0.66478 0.81388 0.26759 0.0
C363 C 0.69215 0.85608 0.24336 0.0
C364 C 0.65441 0.8102 0.24814 0.0
C365 C 0.70269 0.85965 0.26278 0.0
C366 C 0.66812 0.83116 0.23579 0.0
C367 C 0.70122 0.84235 0.29522 0.0
O368 O 0.69825 0.82404 0.37698 0.0
O369 O 0.70343 0.81338 0.34556 0.0
C370 C 0.70993 0.81562 0.36439 0.0
O371 O 0.71566 0.86819 0.35046 0.0
O372 O 0.64333 0.79854 0.39641 0.0
O373 O 0.64046 0.83588 0.39561 0.0
O374 O 0.68677 0.86971 0.3721 0.0
C375 C 0.7107 0.88138 0.36447 0.0
O376 O 0.65436 0.85203 0.33023 0.0
O377 O 0.62482 0.8238 0.35112 0.0
O378 O 0.63874 0.7812 0.35528 0.0
O379 O 0.70066 0.86144 0.30661 0.0
O380 O 0.69491 0.81987 0.30373 0.0
O381 O 0.6413 0.7941 0.32433 0.0
C382 C 0.64865 0.82336 0.42626 0.0
C383 C 0.67756 0.83875 0.43169 0.0
C384 C 0.64032 0.82007 0.46018 0.0
C385 C 0.68782 0.84461 0.45132 0.0
C386 C 0.63012 0.81423 0.44058 0.0
C387 C 0.6693 0.83516 0.4658 0.0
C388 C 0.63757 0.81571 0.40576 0.0
C389 C 0.63013 0.84067 0.33745 0.0
H390 H 0.6538 0.79737 0.27676 0.0
H391 H 0.70324 0.87248 0.23414 0.0
H392 H 0.63566 0.79092 0.24273 0.0
H393 H 0.72154 0.87882 0.26824 0.0
H394 H 0.69215 0.84593 0.42075 0.0
H395 H 0.62549 0.81211 0.47091 0.0
H396 H 0.71022 0.85654 0.45515 0.0
H397 H 0.60774 0.80218 0.43659 0.0
Eu398 Eu 0.1712 0.84009 0.35803 0.0
Eu399 Eu 0.14982 0.84127 0.31252 0.0
C400 C 0.18375 0.89596 0.34099 0.0
C401 C 0.17467 0.83699 0.41323 0.0
C402 C 0.1496 0.83708 0.41504 0.0
C403 C 0.17962 0.83439 0.44798 0.0
C404 C 0.1399 0.83642 0.43329 0.0
C405 C 0.18934 0.83517 0.42975 0.0
C406 C 0.15507 0.83557 0.45003 0.0
C407 C 0.18696 0.84126 0.39461 0.0
O408 O 0.19522 0.85389 0.31236 0.0
O409 O 0.20337 0.8378 0.34061 0.0
C410 C 0.2107 0.84752 0.32371 0.0
O411 O 0.13902 0.79636 0.34664 0.0
O412 O 0.15296 0.86434 0.28749 0.0
O413 O 0.1231 0.82018 0.28546 0.0
O414 O 0.14827 0.80032 0.31501 0.0
C415 C 0.13812 0.78498 0.32938 0.0
O416 O 0.13213 0.84311 0.35965 0.0
O417 O 0.11129 0.82639 0.32845 0.0
O418 O 0.16068 0.88189 0.32925 0.0
O419 O 0.17803 0.81949 0.38215 0.0
O420 O 0.18961 0.86285 0.38638 0.0
O421 O 0.19562 0.88318 0.34902 0.0
C422 C 0.14593 0.83813 0.25754 0.0
C423 C 0.12665 0.82131 0.24178 0.0
C424 C 0.18399 0.84644 0.23806 0.0
C425 C 0.13594 0.81701 0.2243 0.0
C426 C 0.17471 0.85053 0.25557 0.0
C427 C 0.16471 0.82964 0.22222 0.0
C428 C 0.13583 0.84211 0.276 0.0
C429 C 0.11002 0.83248 0.34681 0.0
H430 H 0.13797 0.83846 0.40243 0.0
H431 H 0.19199 0.83405 0.46057 0.0
H432 H 0.12074 0.83699 0.43432 0.0
H433 H 0.20883 0.83526 0.42864 0.0
H434 H 0.10438 0.81147 0.24301 0.0
H435 H 0.20628 0.85614 0.23699 0.0
H436 H 0.12059 0.80411 0.21232 0.0
H437 H 0.19009 0.86333 0.26756 0.0
Eu438 Eu 0.82808 0.65788 0.66679 0.0
Eu439 Eu 0.84887 0.68813 0.71184 0.0
C440 C 0.82477 0.71159 0.67908 0.0
C441 C 0.82023 0.64747 0.61173 0.0
C442 C 0.84267 0.67436 0.61051 0.0
C443 C 0.81009 0.64184 0.57672 0.0
C444 C 0.84875 0.68496 0.59247 0.0
C445 C 0.8041 0.63125 0.59474 0.0
C446 C 0.83236 0.6689 0.57536 0.0
C447 C 0.813 0.63654 0.63065 0.0
O448 O 0.80954 0.64737 0.71322 0.0
O449 O 0.78924 0.64267 0.6825 0.0
C450 C 0.78729 0.63695 0.70066 0.0
O451 O 0.83297 0.6274 0.68426 0.0
O452 O 0.8407 0.70631 0.73748 0.0
O453 O 0.87772 0.70252 0.73834 0.0
O454 O 0.8658 0.65902 0.70791 0.0
C455 C 0.8531 0.63434 0.69817 0.0
O456 O 0.87485 0.68556 0.66866 0.0
O457 O 0.88243 0.71744 0.69415 0.0
O458 O 0.824 0.70542 0.69713 0.0
O459 O 0.83287 0.63614 0.64153 0.0
O460 O 0.79927 0.64554 0.6405 0.0
O461 O 0.83309 0.7003 0.66598 0.0
C462 C 0.85393 0.69413 0.76648 0.0
C463 C 0.83692 0.66514 0.7657 0.0
C464 C 0.85397 0.69704 0.80157 0.0
C465 C 0.82821 0.65221 0.78269 0.0
C466 C 0.86258 0.70998 0.78451 0.0
C467 C 0.83641 0.66801 0.80084 0.0
C468 C 0.86146 0.70775 0.74842 0.0
C469 C 0.89058 0.70987 0.67867 0.0
H470 H 0.85526 0.68725 0.62353 0.0
H471 H 0.79729 0.62879 0.56382 0.0
H472 H 0.86583 0.70596 0.59197 0.0
H473 H 0.78671 0.61044 0.59544 0.0
H474 H 0.83011 0.65254 0.75191 0.0
H475 H 0.86045 0.70984 0.81527 0.0
H476 H 0.81503 0.62981 0.78162 0.0
H477 H 0.8756 0.7324 0.78537 0.0
Eu478 Eu 0.34823 0.16486 0.65984 0.0
Eu479 Eu 0.32131 0.15422 0.70191 0.0
C480 C 0.29565 0.10582 0.66677 0.0
C481 C 0.35755 0.16842 0.60552 0.0
C482 C 0.33694 0.14156 0.59774 0.0
C483 C 0.35741 0.1851 0.57384 0.0
C484 C 0.32687 0.13649 0.57809 0.0
C485 C 0.36765 0.1901 0.59342 0.0
C486 C 0.33699 0.15823 0.56594 0.0
C487 C 0.36844 0.17455 0.6262 0.0
O488 O 0.35081 0.13733 0.70259 0.0
O489 O 0.3804 0.1637 0.68086 0.0
C490 C 0.37488 0.14772 0.69516 0.0
O491 O 0.36294 0.20641 0.67635 0.0
O492 O 0.30219 0.12743 0.7249 0.0
O493 O 0.30908 0.16937 0.72696 0.0
O494 O 0.36285 0.19392 0.70715 0.0
C495 C 0.37157 0.21296 0.69489 0.0
O496 O 0.30593 0.16091 0.65398 0.0
O497 O 0.30262 0.17547 0.6847 0.0
O498 O 0.28988 0.11799 0.68107 0.0
O499 O 0.36326 0.19158 0.63632 0.0
O500 O 0.3656 0.15384 0.63574 0.0
O501 O 0.31951 0.11862 0.65911 0.0
C502 C 0.31285 0.15103 0.75617 0.0
C503 C 0.34133 0.16932 0.76206 0.0
C504 C 0.3052 0.13991 0.78942 0.0
C505 C 0.35164 0.17302 0.78157 0.0
C506 C 0.2949 0.13636 0.76995 0.0
C507 C 0.33368 0.15831 0.79548 0.0
C508 C 0.3016 0.14693 0.73576 0.0
C509 C 0.29521 0.17129 0.66591 0.0
H510 H 0.32855 0.12451 0.60681 0.0
H511 H 0.36584 0.20219 0.56481 0.0
H512 H 0.31092 0.11563 0.57245 0.0
H513 H 0.38351 0.21097 0.59915 0.0
H514 H 0.35556 0.18069 0.75157 0.0
H515 H 0.29077 0.12852 0.79979 0.0
H516 H 0.37372 0.18708 0.78573 0.0
H517 H 0.27287 0.12216 0.76565 0.0
Eu518 Eu 0.84311 0.16544 0.69249 0.0
Eu519 Eu 0.81881 0.1707 0.64919 0.0
C520 C 0.84466 0.22094 0.68301 0.0
C521 C 0.85584 0.16589 0.7474 0.0
C522 C 0.86032 0.1918 0.75516 0.0
C523 C 0.84067 0.14725 0.77814 0.0
C524 C 0.85517 0.1954 0.77427 0.0
C525 C 0.84607 0.14372 0.75909 0.0
C526 C 0.84522 0.17315 0.78594 0.0
C527 C 0.8611 0.16154 0.72724 0.0
O528 O 0.8584 0.17006 0.6449 0.0
O529 O 0.8805 0.18774 0.67551 0.0
C530 C 0.88131 0.18255 0.65692 0.0
O531 O 0.83812 0.12957 0.67297 0.0
O532 O 0.82272 0.19597 0.62529 0.0
O533 O 0.78943 0.15316 0.62297 0.0
O534 O 0.80212 0.12506 0.65225 0.0
C535 C 0.81637 0.11448 0.6603 0.0
O536 O 0.79634 0.14637 0.69287 0.0
O537 O 0.7868 0.16823 0.66881 0.0
O538 O 0.84458 0.21395 0.66463 0.0
O539 O 0.84063 0.14053 0.71641 0.0
O540 O 0.87388 0.18353 0.71782 0.0
O541 O 0.83781 0.20271 0.69578 0.0
C542 C 0.81081 0.17106 0.59466 0.0
C543 C 0.82628 0.15754 0.59232 0.0
C544 C 0.81338 0.17977 0.56071 0.0
C545 C 0.83528 0.15517 0.57428 0.0
C546 C 0.80431 0.18204 0.57875 0.0
C547 C 0.82913 0.16646 0.55829 0.0
C548 C 0.80298 0.17529 0.61388 0.0
C549 C 0.77984 0.15405 0.6841 0.0
H550 H 0.86769 0.20929 0.74649 0.0
H551 H 0.83328 0.1298 0.78685 0.0
H552 H 0.85856 0.2155 0.77982 0.0
H553 H 0.84256 0.12359 0.75346 0.0
H554 H 0.83179 0.14923 0.60453 0.0
H555 H 0.80804 0.18841 0.54864 0.0
H556 H 0.84766 0.14513 0.57299 0.0
H557 H 0.79252 0.19267 0.58033 0.0
H558 H 0.30748 0.81221 0.05347 0.0
H559 H 0.42194 0.97341 0.05862 0.0
H560 H 0.29749 0.87754 0.08128 0.0
H561 H 0.42332 0.91124 0.0195 0.0
H562 H 0.37824 0.93781 0.06904 0.0
H563 H 0.35169 0.84741 0.04293 0.0
C564 C 0.31449 0.83393 0.05734 0.0
C565 C 0.29852 0.84185 0.06823 0.0
C566 C 0.388 0.9319 0.05814 0.0
C567 C 0.34945 0.88226 0.0564 0.0
C568 C 0.41306 0.95224 0.05216 0.0
C569 C 0.4264 0.94536 0.0381 0.0
C570 C 0.37611 0.90427 0.05016 0.0
C571 C 0.41374 0.91752 0.03031 0.0
C572 C 0.33981 0.854 0.05135 0.0
C573 C 0.30912 0.87035 0.07314 0.0
N574 N 0.38932 0.89795 0.0365 0.0
N575 N 0.33386 0.88947 0.06718 0.0
H576 H 0.11672 0.40681 0.0935 0.0
H577 H 0.0777 0.49112 0.01963 0.0
H578 H 0.17413 0.46299 0.05602 0.0
H579 H 0.02291 0.44153 0.06102 0.0
H580 H 0.11293 0.4804 0.0325 0.0
H581 H 0.08202 0.41906 0.08182 0.0
C582 C 0.12217 0.42193 0.08296 0.0
C583 C 0.14845 0.43385 0.07573 0.0
C584 C 0.09322 0.47188 0.0388 0.0
C585 C 0.10855 0.44763 0.06205 0.0
C586 C 0.07302 0.47795 0.03142 0.0
C587 C 0.0472 0.46719 0.03921 0.0
C588 C 0.08762 0.45481 0.05406 0.0
C589 C 0.04247 0.4503 0.05453 0.0
C590 C 0.10224 0.42877 0.0762 0.0
C591 C 0.15404 0.45295 0.06182 0.0
N592 N 0.06244 0.44459 0.06141 0.0
N593 N 0.13427 0.45917 0.05541 0.0
H594 H 0.53958 0.71238 0.08018 0.0
H595 H 0.5269 0.60457 0.99386 0.0
H596 H 0.58915 0.73677 0.03158 0.0
H597 H 0.49736 0.58048 0.04975 0.0
H598 H 0.54404 0.65311 1.00541 0.0
H599 H 0.51841 0.6638 0.0672 0.0
C600 C 0.54607 0.70756 0.06681 0.0
C601 C 0.56638 0.72876 0.05706 0.0
C602 C 0.53371 0.63716 0.0151 0.0
C603 C 0.54181 0.67318 0.04195 0.0
C604 C 0.52382 0.60944 0.00851 0.0
C605 C 0.5108 0.58844 0.0209 0.0
C606 C 0.53032 0.6439 0.03415 0.0
C607 C 0.50743 0.596 0.03974 0.0
C608 C 0.53386 0.67983 0.05936 0.0
C609 C 0.57341 0.72123 0.03952 0.0
N610 N 0.51715 0.62312 0.0458 0.0
N611 N 0.56119 0.69406 0.03256 0.0
H612 H 0.82372 0.28619 0.93134 0.0
H613 H 0.90637 0.39205 0.02507 0.0
H614 H 0.83075 0.2572 0.98683 0.0
H615 H 0.93132 0.40916 0.96736 0.0
H616 H 0.87008 0.34471 0.01217 0.0
H617 H 0.85428 0.33397 0.94554 0.0
C618 C 0.83153 0.28978 0.94653 0.0
C619 C 0.82506 0.26743 0.95776 0.0
C620 C 0.88349 0.35896 1.00239 0.0
C621 C 0.85952 0.32229 0.97417 0.0
C622 C 0.90408 0.3859 0.00969 0.0
C623 C 0.92197 0.40443 0.99727 0.0
C624 C 0.88037 0.35084 0.98248 0.0
C625 C 0.91817 0.39543 0.97747 0.0
C626 C 0.84889 0.3171 0.9546 0.0
C627 C 0.83507 0.27363 0.97756 0.0
N628 N 0.8977 0.36933 0.97068 0.0
N629 N 0.85195 0.30049 0.98512 0.0
H630 H 0.71404 0.57539 0.98036 0.0
H631 H 0.55046 0.51503 0.95196 0.0
H632 H 0.67439 0.54568 0.92188 0.0
H633 H 0.59142 0.54643 0.01008 0.0
H634 H 0.59575 0.52805 0.94031 0.0
H635 H 0.66964 0.56731 0.99104 0.0
C636 C 0.69596 0.56725 0.96974 0.0
C637 C 0.69785 0.56093 0.95023 0.0
C638 C 0.59484 0.53217 0.95559 0.0
C639 C 0.64679 0.55157 0.96237 0.0
C640 C 0.56895 0.52469 0.9623 0.0
C641 C 0.56705 0.52949 0.98209 0.0
C642 C 0.61905 0.54452 0.96876 0.0
C643 C 0.5918 0.54221 0.99473 0.0
C644 C 0.67061 0.56269 0.97584 0.0
C645 C 0.67387 0.5509 0.93705 0.0
N646 N 0.61671 0.54917 0.98786 0.0
N647 N 0.64926 0.54629 0.94339 0.0
H648 H 0.45832 0.18228 0.99406 0.0
H649 H 0.43914 0.02988 0.9884 0.0
H650 H 0.39641 0.11303 0.95488 0.0
H651 H 0.50196 0.09808 0.02795 0.0
H652 H 0.42246 0.06004 0.97696 0.0
H653 H 0.47383 0.15187 0.0075 0.0
C654 C 0.44788 0.16064 0.98835 0.0
C655 C 0.42602 0.15018 0.9733 0.0
C656 C 0.43984 0.06848 0.98818 0.0
C657 C 0.44383 0.11534 0.98852 0.0
C658 C 0.44943 0.05123 0.99476 0.0
C659 C 0.47213 0.06148 0.00913 0.0
C660 C 0.45302 0.09633 0.99593 0.0
C661 C 0.48442 0.0893 0.01685 0.0
C662 C 0.45684 0.14333 0.99598 0.0
C663 C 0.41356 0.12208 0.96628 0.0
N664 N 0.47477 0.10583 0.01008 0.0
N665 N 0.42264 0.10568 0.97396 0.0
H666 H 0.73104 0.15434 1.00659 0.0
H667 H 0.56553 0.07203 0.97823 0.0
H668 H 0.69215 0.14792 0.9494 0.0
H669 H 0.60404 0.07998 0.03605 0.0
H670 H 0.61146 0.10387 0.96829 0.0
H671 H 0.68469 0.13163 0.01864 0.0
C672 C 0.71269 0.14863 0.99671 0.0
C673 C 0.71512 0.15301 0.97708 0.0
C674 C 0.60987 0.09885 0.9832 0.0
C675 C 0.66224 0.1266 0.99048 0.0
C676 C 0.58359 0.08062 0.9889 0.0
C677 C 0.58088 0.07306 0.00799 0.0
C678 C 0.63372 0.10956 0.99662 0.0
C679 C 0.60509 0.08505 0.02116 0.0
C680 C 0.68627 0.13556 1.00351 0.0
C681 C 0.69093 0.14498 0.96469 0.0
N682 N 0.6305 0.1025 0.01518 0.0
N683 N 0.66542 0.13193 0.97156 0.0
H684 H 0.84212 0.57269 0.9897 0.0
H685 H 0.91913 0.48651 0.96625 0.0
H686 H 0.815 0.51158 0.94053 0.0
H687 H 0.92926 0.53094 0.02181 0.0
H688 H 0.88633 0.50101 0.95404 0.0
H689 H 0.88046 0.56406 0.99869 0.0
C690 C 0.84475 0.55791 0.98056 0.0
C691 C 0.82578 0.54294 0.96433 0.0
C692 C 0.89581 0.5076 0.96888 0.0
C693 C 0.8689 0.53242 0.97467 0.0
C694 C 0.91452 0.49934 0.97588 0.0
C695 C 0.92682 0.50735 0.99515 0.0
C696 C 0.88962 0.52425 0.98117 0.0
C697 C 0.92011 0.52404 1.00693 0.0
C698 C 0.8664 0.55278 0.98577 0.0
C699 C 0.82955 0.52367 0.95307 0.0
N700 N 0.902 0.53194 0.99974 0.0
N701 N 0.85067 0.51881 0.95851 0.0
H702 H 0.4634 0.29224 0.99075 0.0
H703 H 0.42942 0.41296 0.96942 0.0
H704 H 0.38341 0.27627 0.96493 0.0
H705 H 0.50356 0.42624 1.00374 0.0
H706 H 0.4147 0.36366 0.9635 0.0
H707 H 0.481 0.34228 0.99134 0.0
C708 C 0.44971 0.29945 0.985 0.0
C709 C 0.42206 0.28052 0.97781 0.0
C710 C 0.43425 0.37743 0.97223 0.0
C711 C 0.4417 0.33735 0.97857 0.0
C712 C 0.44272 0.40559 0.97559 0.0
C713 C 0.46765 0.42373 0.98725 0.0
C714 C 0.45092 0.36739 0.9805 0.0
C715 C 0.48405 0.413 0.99481 0.0
C716 C 0.45966 0.32791 0.98539 0.0
C717 C 0.40492 0.29051 0.97058 0.0
N718 N 0.47534 0.38554 0.99136 0.0
N719 N 0.41499 0.31838 0.97122 0.0
H720 H 0.17253 0.6914 0.07805 0.0
H721 H 0.03486 0.58458 0.00991 0.0
H722 H 0.13772 0.71421 0.02994 0.0
H723 H 0.0601 0.56288 0.06329 0.0
H724 H 0.07121 0.63275 0.01828 0.0
H725 H 0.13036 0.64502 0.07451 0.0
C726 C 0.15567 0.68669 0.067 0.0
C727 C 0.15823 0.70631 0.05427 0.0
C728 C 0.06874 0.61757 0.02828 0.0
C729 C 0.11058 0.65366 0.04986 0.0
C730 C 0.04802 0.58998 0.02346 0.0
C731 C 0.04462 0.56961 0.03583 0.0
C732 C 0.08656 0.62495 0.04551 0.0
C733 C 0.06209 0.57792 0.05331 0.0
C734 C 0.13173 0.6603 0.06494 0.0
C735 C 0.13626 0.69946 0.04005 0.0
N736 N 0.08256 0.60495 0.05754 0.0
N737 N 0.11341 0.67358 0.0381 0.0
H738 H 0.2872 0.41139 0.07511 0.0
H739 H 0.39712 0.50342 1.0022 0.0
H740 H 0.27183 0.45906 0.03422 0.0
H741 H 0.41468 0.45966 0.04548 0.0
H742 H 0.35175 0.48855 0.0144 0.0
H743 H 0.33484 0.43032 0.06544 0.0
C744 C 0.29411 0.42616 0.06428 0.0
C745 C 0.27594 0.43392 0.05547 0.0
C746 C 0.36557 0.48227 0.02126 0.0
C747 C 0.32985 0.45523 0.04409 0.0
C748 C 0.39149 0.49071 0.01427 0.0
C749 C 0.40977 0.4827 0.02273 0.0
C750 C 0.35775 0.46558 0.03681 0.0
C751 C 0.40129 0.4663 0.03841 0.0
C752 C 0.32117 0.43687 0.05869 0.0
C753 C 0.28549 0.45279 0.04138 0.0
N754 N 0.37591 0.45822 0.04488 0.0
N755 N 0.31177 0.46273 0.03604 0.0
H756 H 0.61198 0.88375 0.02287 0.0
H757 H 0.52486 0.95081 0.06526 0.0
H758 H 0.57344 0.86185 0.07614 0.0
H759 H 0.55405 0.96101 0.0083 0.0
H760 H 0.5457 0.92158 0.07131 0.0
H761 H 0.59468 0.91619 0.01925 0.0
C762 C 0.60011 0.88615 0.03392 0.0
C763 C 0.59411 0.87046 0.04983 0.0
C764 C 0.54752 0.93029 0.05752 0.0
C765 C 0.5739 0.90706 0.04576 0.0
C766 C 0.53566 0.94697 0.05405 0.0
C767 C 0.53761 0.95831 0.03621 0.0
C768 C 0.56155 0.92513 0.04309 0.0
C769 C 0.55187 0.95266 0.02224 0.0
C770 C 0.59011 0.9045 0.03183 0.0
C771 C 0.57849 0.87388 0.06372 0.0
N772 N 0.56325 0.93652 0.02598 0.0
N773 N 0.56878 0.89184 0.06135 0.0
H774 H 0.98315 0.1988 0.42767 0.0
H775 H 0.06978 0.28147 0.34166 0.0
H776 H 0.9448 0.19877 0.37157 0.0
H777 H 0.10777 0.28617 0.39904 0.0
H778 H 0.02381 0.25113 0.35236 0.0
H779 H 0.02892 0.23155 0.41771 0.0
C780 C 0.98429 0.20592 0.41334 0.0
C781 C 0.96005 0.19586 0.40041 0.0
C782 C 0.04221 0.25882 0.36262 0.0
C783 C 0.0125 0.23303 0.38877 0.0
C784 C 0.0685 0.27609 0.35649 0.0
C785 C 0.09275 0.28637 0.36943 0.0
C786 C 0.04009 0.25168 0.38183 0.0
C787 C 0.08971 0.27874 0.38851 0.0
C788 C 0.01048 0.22447 0.4076 0.0
C789 C 0.96293 0.20557 0.38192 0.0
N790 N 0.06391 0.26185 0.39411 0.0
N791 N 0.98864 0.22348 0.37664 0.0
H792 H 0.79472 0.7454 0.42735 0.0
H793 H 0.75122 0.81419 0.34518 0.0
H794 H 0.85446 0.79699 0.38906 0.0
H795 H 0.71677 0.80082 0.40036 0.0
H796 H 0.78578 0.802 0.35793 0.0
H797 H 0.7624 0.75959 0.41454 0.0
C798 C 0.80136 0.76003 0.41646 0.0
C799 C 0.82787 0.77041 0.40964 0.0
C800 C 0.77067 0.80186 0.3672 0.0
C801 C 0.78998 0.78582 0.39428 0.0
C802 C 0.75087 0.80864 0.35994 0.0
C803 C 0.73106 0.80849 0.37173 0.0
C804 C 0.77019 0.79428 0.38621 0.0
C805 C 0.73169 0.8013 0.39077 0.0
C806 C 0.78265 0.76791 0.40903 0.0
C807 C 0.83435 0.78831 0.39478 0.0
N808 N 0.75075 0.79425 0.39735 0.0
N809 N 0.8155 0.79538 0.38754 0.0
H810 H 0.21532 0.06469 0.36434 0.0
H811 H 0.23332 0.93066 0.36239 0.0
H812 H 0.27706 0.05784 0.401 0.0
H813 H 0.16258 0.93001 0.33183 0.0
H814 H 0.25219 0.97926 0.37355 0.0
H815 H 0.19809 0.0173 0.34948 0.0
C816 C 0.22531 0.05325 0.36918 0.0
C817 C 0.24749 0.06508 0.38402 0.0
C818 C 0.23258 0.9686 0.36436 0.0
C819 C 0.22802 0.01112 0.36713 0.0
C820 C 0.22175 0.94077 0.35792 0.0
C821 C 0.19615 0.92612 0.34627 0.0
C822 C 0.21776 0.98208 0.35919 0.0
C823 C 0.18234 0.9405 0.34085 0.0
C824 C 0.21542 0.02623 0.36075 0.0
C825 C 0.25962 0.04936 0.38982 0.0
N826 N 0.19325 0.96772 0.34746 0.0
N827 N 0.24972 0.02324 0.38137 0.0
H828 H 0.51939 0.59704 0.32171 0.0
H829 H 0.60277 0.7562 0.30016 0.0
H830 H 0.50017 0.62742 0.27033 0.0
H831 H 0.60823 0.7288 0.35654 0.0
H832 H 0.56625 0.70883 0.2886 0.0
H833 H 0.55231 0.64493 0.33468 0.0
C834 C 0.52172 0.61374 0.31326 0.0
C835 C 0.50701 0.60807 0.29482 0.0
C836 C 0.57537 0.71321 0.30352 0.0
C837 C 0.54531 0.66303 0.30943 0.0
C838 C 0.59634 0.74024 0.31012 0.0
C839 C 0.60867 0.74652 0.32935 0.0
C840 C 0.56681 0.69218 0.31618 0.0
C841 C 0.59934 0.72496 0.3416 0.0
C842 C 0.54073 0.64111 0.32063 0.0
C843 C 0.51139 0.63069 0.28444 0.0
N844 N 0.57909 0.69875 0.33478 0.0
N845 N 0.53028 0.65712 0.29182 0.0
H846 H 0.38636 0.904 0.31955 0.0
H847 H 0.22645 0.85274 0.28687 0.0
H848 H 0.34962 0.87288 0.26048 0.0
H849 H 0.257 0.85471 0.34603 0.0
H850 H 0.27229 0.86445 0.27677 0.0
H851 H 0.34014 0.89083 0.3293 0.0
C852 C 0.36862 0.89426 0.30859 0.0
C853 C 0.37205 0.88928 0.28913 0.0
C854 C 0.26892 0.86218 0.29194 0.0
C855 C 0.31891 0.8747 0.30028 0.0
C856 C 0.24278 0.85556 0.29775 0.0
C857 C 0.23786 0.85277 0.31736 0.0
C858 C 0.29053 0.86653 0.30586 0.0
C859 C 0.25979 0.85652 0.33076 0.0
C860 C 0.3422 0.88684 0.31421 0.0
C861 C 0.34819 0.87738 0.2756 0.0
N862 N 0.28524 0.86345 0.32479 0.0
N863 N 0.32268 0.87053 0.28142 0.0
H864 H 0.0731 0.47535 0.33294 0.0
H865 H 0.16348 0.40381 0.30847 0.0
H866 H 0.1158 0.48684 0.28124 0.0
H867 H 0.1318 0.40272 0.36398 0.0
H868 H 0.14495 0.4331 0.29791 0.0
H869 H 0.09298 0.44737 0.34414 0.0
C870 C 0.08674 0.47209 0.32397 0.0
C871 C 0.09281 0.48354 0.30612 0.0
C872 C 0.14215 0.42657 0.31243 0.0
C873 C 0.11542 0.45125 0.31879 0.0
C874 C 0.15274 0.40983 0.31849 0.0
C875 C 0.14917 0.40074 0.33715 0.0
C876 C 0.12769 0.43418 0.32504 0.0
C877 C 0.13509 0.40927 0.34948 0.0
C878 C 0.09801 0.45603 0.33035 0.0
C879 C 0.11022 0.47816 0.29496 0.0
N880 N 0.12474 0.4254 0.34317 0.0
N881 N 0.1209 0.46241 0.30148 0.0
H882 H 0.37117 0.45973 0.28124 0.0
H883 H 0.26744 0.42869 0.36437 0.0
H884 H 0.39768 0.50418 0.33819 0.0
H885 H 0.24551 0.37873 0.30954 0.0
H886 H 0.31374 0.45982 0.35412 0.0
H887 H 0.32328 0.43327 0.29028 0.0
C888 C 0.36669 0.46408 0.29558 0.0
C889 C 0.38805 0.48403 0.30902 0.0
C890 C 0.29871 0.44207 0.34434 0.0
C891 C 0.33371 0.4538 0.31963 0.0
C892 C 0.27227 0.42432 0.35017 0.0
C893 C 0.2526 0.40088 0.33789 0.0
C894 C 0.30544 0.43645 0.32605 0.0
C895 C 0.26004 0.39632 0.31963 0.0
C896 C 0.33947 0.44895 0.3008 0.0
C897 C 0.38152 0.48893 0.32746 0.0
N898 N 0.28581 0.41386 0.31431 0.0
N899 N 0.35488 0.4738 0.3323 0.0
H900 H 0.5382 0.91967 0.29554 0.0
H901 H 0.57454 0.81237 0.34253 0.0
H902 H 0.47602 0.83855 0.30918 0.0
H903 H 0.63546 0.88218 0.31515 0.0
H904 H 0.53852 0.82254 0.3307 0.0
H905 H 0.57458 0.90713 0.30228 0.0
C906 C 0.53224 0.89904 0.29955 0.0
C907 C 0.50428 0.87994 0.3017 0.0
C908 C 0.55973 0.83559 0.32717 0.0
C909 C 0.54541 0.86576 0.30989 0.0
C910 C 0.58037 0.82988 0.33403 0.0
C911 C 0.60813 0.84654 0.32993 0.0
C912 C 0.56682 0.85838 0.3163 0.0
C913 C 0.61433 0.8688 0.31867 0.0
C914 C 0.55292 0.89193 0.30348 0.0
C915 C 0.49745 0.85369 0.30724 0.0
N916 N 0.59388 0.87424 0.31238 0.0
N917 N 0.51789 0.84744 0.31132 0.0
H918 H 0.09889 0.61811 0.28968 0.0
H919 H 0.10893 0.74651 0.35419 0.0
H920 H 0.05985 0.61076 0.34256 0.0
H921 H 0.1388 0.7539 0.29753 0.0
H922 H 0.08972 0.69644 0.34948 0.0
H923 H 0.11221 0.66749 0.29125 0.0
C924 C 0.09277 0.62692 0.30142 0.0
C925 C 0.07826 0.61073 0.31598 0.0
C926 C 0.10034 0.70894 0.33801 0.0
C927 C 0.09366 0.66674 0.31813 0.0
C928 C 0.11143 0.7376 0.34072 0.0
C929 C 0.12567 0.75448 0.32628 0.0
C930 C 0.10366 0.69696 0.32078 0.0
C931 C 0.12804 0.74169 0.30907 0.0
C932 C 0.10041 0.655 0.30237 0.0
C933 C 0.07097 0.62278 0.33103 0.0
N934 N 0.11732 0.71368 0.30685 0.0
N935 N 0.07892 0.65016 0.33181 0.0
H936 H 0.79778 0.05915 0.39467 0.0
H937 H 0.7661 0.90688 0.35931 0.0
H938 H 0.86088 0.03972 0.37959 0.0
H939 H 0.70494 0.92172 0.38481 0.0
H940 H 0.80126 0.95546 0.3679 0.0
H941 H 0.76351 0.00906 0.39262 0.0
C942 C 0.8044 0.04422 0.39123 0.0
C943 C 0.83193 0.05317 0.38728 0.0
C944 C 0.78024 0.94814 0.37179 0.0
C945 C 0.79324 -0.00359 0.38463 0.0
C946 C 0.76009 0.92037 0.36682 0.0
C947 C 0.73247 0.91028 0.37119 0.0
C948 C 0.77274 0.96621 0.38099 0.0
C949 C 0.72599 0.92867 0.38113 0.0
C950 C 0.78494 0.01575 0.39003 0.0
C951 C 0.83972 0.03338 0.38274 0.0
N952 N 0.74592 0.95588 0.3855 0.0
N953 N 0.82041 0.00589 0.38137 0.0
H954 H 0.97208 0.78861 0.41684 0.0
H955 H 0.05932 0.81031 0.32496 0.0
H956 H 0.93436 0.7622 0.35784 0.0
H957 H 0.09774 0.83912 0.38386 0.0
H958 H 0.01375 0.79591 0.33652 0.0
H959 H 0.01857 0.81067 0.40495 0.0
C960 C 0.9737 0.78791 0.40136 0.0
C961 C 0.94964 0.77384 0.38823 0.0
C962 C 0.03216 0.80554 0.34691 0.0
C963 C 0.00241 0.79843 0.37451 0.0
C964 C 0.05827 0.81381 0.34031 0.0
C965 C 0.08251 0.82578 0.35345 0.0
C966 C 0.03012 0.80912 0.36683 0.0
C967 C 0.07969 0.82984 0.37318 0.0
C968 C 0.00016 0.80036 0.39456 0.0
C969 C 0.95259 0.77308 0.36836 0.0
N970 N 0.05399 0.82135 0.37927 0.0
N971 N 0.97852 0.78506 0.36208 0.0
H972 H 0.2203 0.16751 0.35827 0.0
H973 H 0.22757 0.31136 0.39058 0.0
H974 H 0.28222 0.22912 0.40166 0.0
H975 H 0.16989 0.25252 0.34386 0.0
H976 H 0.245 0.27969 0.3969 0.0
H977 H 0.19862 0.19644 0.3549 0.0
C978 C 0.22909 0.18709 0.36721 0.0
C979 C 0.2529 0.19617 0.38024 0.0
C980 C 0.22846 0.27366 0.38531 0.0
C981 C 0.22862 0.22938 0.37644 0.0
C982 C 0.21846 0.29173 0.38168 0.0
C983 C 0.19734 0.2847 0.36655 0.0
C984 C 0.21729 0.24831 0.37376 0.0
C985 C 0.18628 0.2589 0.3556 0.0
C986 C 0.21682 0.20361 0.36527 0.0
C987 C 0.26377 0.22158 0.39147 0.0
N988 N 0.19648 0.2417 0.35938 0.0
N989 N 0.25159 0.23744 0.38927 0.0
H990 H 0.65153 0.53577 0.7682 0.0
H991 H 0.73614 0.61027 0.67911 0.0
H992 H 0.61387 0.5214 0.70934 0.0
H993 H 0.77503 0.62186 0.73736 0.0
H994 H 0.69063 0.58007 0.69044 0.0
H995 H 0.69631 0.5705 0.75783 0.0
C996 C 0.6526 0.54021 0.75316 0.0
C997 C 0.62902 0.52552 0.73958 0.0
C998 C 0.70912 0.58926 0.70075 0.0
C999 C 0.68018 0.56489 0.72755 0.0
C1000 C 0.73515 0.60648 0.69428 0.0
C1001 C 0.75952 0.61852 0.70725 0.0
C1002 C 0.70738 0.58402 0.72037 0.0
C1003 C 0.75686 0.61293 0.72678 0.0
C1004 C 0.6782 0.55987 0.74721 0.0
C1005 C 0.63165 0.53193 0.72023 0.0
N1006 N 0.73129 0.59606 0.73272 0.0
N1007 N 0.65677 0.551 0.71479 0.0
H1008 H 0.46173 0.08015 0.76072 0.0
H1009 H 0.42817 0.1662 0.68497 0.0
H1010 H 0.52208 0.13573 0.72449 0.0
H1011 H 0.37045 0.11481 0.72429 0.0
H1012 H 0.46284 0.15528 0.69902 0.0
H1013 H 0.42823 0.09297 0.7476 0.0
C1014 C 0.46809 0.0953 0.75017 0.0
C1015 C 0.49488 0.1069 0.74376 0.0
C1016 C 0.44259 0.14642 0.70458 0.0
C1017 C 0.45625 0.12134 0.72834 0.0
C1018 C 0.42274 0.15262 0.69653 0.0
C1019 C 0.39626 0.14138 0.7034 0.0
C1020 C 0.43592 0.1288 0.71958 0.0
C1021 C 0.39052 0.12395 0.71847 0.0
C1022 C 0.44883 0.10246 0.74255 0.0
C1023 C 0.5016 0.12599 0.72971 0.0
N1024 N 0.41012 0.11819 0.726 0.0
N1025 N 0.48243 0.13255 0.72246 0.0
H1026 H 0.9329 0.40037 0.70001 0.0
H1027 H 0.83876 0.24108 0.71807 0.0
H1028 H 0.87841 0.37291 0.74587 0.0
H1029 H 0.87193 0.26719 0.66341 0.0
H1030 H 0.85617 0.28956 0.72964 0.0
H1031 H 0.91371 0.35188 0.68741 0.0
C1032 C 0.91681 0.38422 0.70738 0.0
C1033 C 0.90731 0.39082 0.72408 0.0
C1034 C 0.85951 0.28468 0.71508 0.0
C1035 C 0.88564 0.33527 0.70987 0.0
C1036 C 0.84963 0.257 0.70847 0.0
C1037 C 0.85391 0.25008 0.68974 0.0
C1038 C 0.87409 0.30565 0.70298 0.0
C1039 C 0.86808 0.27159 0.67792 0.0
C1040 C 0.90595 0.35653 0.7002 0.0
C1041 C 0.88677 0.36888 0.73318 0.0
N1042 N 0.87785 0.29847 0.68479 0.0
N1043 N 0.87671 0.34212 0.726 0.0
H1044 H 0.14811 0.9422 0.64342 0.0
H1045 H 0.29945 0.07438 0.63665 0.0
H1046 H 0.20499 0.94443 0.60275 0.0
H1047 H 0.24373 0.0718 0.67847 0.0
H1048 H 0.26457 0.02721 0.62357 0.0
H1049 H 0.18232 0.99001 0.65596 0.0
C1050 C 0.1678 0.95273 0.63714 0.0
C1051 C 0.17366 0.93922 0.62201 0.0
C1052 C 0.25995 0.03694 0.63561 0.0
C1053 C 0.21291 0.99409 0.63624 0.0
C1054 C 0.2799 0.06392 0.64312 0.0
C1055 C 0.27459 0.07713 0.65875 0.0
C1056 C 0.23443 0.02295 0.64374 0.0
C1057 C 0.24879 0.06247 0.66645 0.0
C1058 C 0.18729 0.98008 0.64426 0.0
C1059 C 0.19939 0.95408 0.61425 0.0
N1060 N 0.2297 0.03618 0.65888 0.0
N1061 N 0.21806 0.98064 0.62148 0.0
H1062 H 0.05493 0.23469 0.64603 0.0
H1063 H 0.89155 0.17718 0.61919 0.0
H1064 H 0.01485 0.20892 0.58746 0.0
H1065 H 0.93326 0.20664 0.67725 0.0
H1066 H 0.93653 0.19006 0.60706 0.0
H1067 H 0.0108 0.22631 0.65742 0.0
C1068 C 0.03681 0.22733 0.63555 0.0
C1069 C 0.03851 0.22225 0.61578 0.0
C1070 C 0.93586 0.19379 0.62244 0.0
C1071 C 0.98777 0.21258 0.62874 0.0
C1072 C 0.91014 0.18637 0.62941 0.0
C1073 C 0.90854 0.19069 0.64933 0.0
C1074 C 0.9602 0.20555 0.63546 0.0
C1075 C 0.93341 0.20282 0.66181 0.0
C1076 C 0.01161 0.22261 0.64206 0.0
C1077 C 0.01449 0.21319 0.60282 0.0
N1078 N 0.95815 0.20972 0.65468 0.0
N1079 N 0.99004 0.20842 0.60954 0.0
H1080 H 0.78335 0.81809 0.61549 0.0
H1081 H 0.79675 0.73155 0.69978 0.0
H1082 H 0.73492 0.79937 0.66471 0.0
H1083 H 0.82904 0.73388 0.64438 0.0
H1084 H 0.7774 0.76001 0.68848 0.0
H1085 H 0.80293 0.78997 0.62684 0.0
C1086 C 0.77657 0.80784 0.62857 0.0
C1087 C 0.75739 0.81114 0.63914 0.0
C1088 C 0.78876 0.75431 0.67883 0.0
C1089 C 0.7803 0.77939 0.65246 0.0
C1090 C 0.79995 0.7382 0.6853 0.0
C1091 C 0.8145 0.73028 0.673 0.0
C1092 C 0.79233 0.76273 0.65997 0.0
C1093 C 0.8179 0.73941 0.65435 0.0
C1094 C 0.78795 0.79196 0.63512 0.0
C1095 C 0.74992 0.79779 0.65623 0.0
N1096 N 0.80691 0.75516 0.64841 0.0
N1097 N 0.76146 0.7826 0.66238 0.0
H1098 H 0.03909 0.78075 0.6173 0.0
H1099 H 0.9316 0.76105 0.69591 0.0
H1100 H 0.05875 0.83967 0.66679 0.0
H1101 H 0.91259 0.70226 0.64622 0.0
H1102 H 0.97738 0.79132 0.68476 0.0
H1103 H 0.99152 0.75286 0.62674 0.0
C1104 C 0.03316 0.78786 0.63004 0.0
C1105 C 0.05249 0.81237 0.6413 0.0
C1106 C 0.96314 0.77181 0.67629 0.0
C1107 C -0.0014 0.78073 0.65237 0.0
C1108 C 0.93699 0.7545 0.68266 0.0
C1109 C 0.91823 0.72894 0.67209 0.0
C1110 C 0.9706 0.76352 0.65921 0.0
C1111 C 0.92638 0.72164 0.65497 0.0
C1112 C 0.00613 0.77198 0.63549 0.0
C1113 C 0.04417 0.82082 0.65775 0.0
N1114 N 0.95191 0.73877 0.64912 0.0
N1115 N 0.01784 0.80495 0.66287 0.0
H1116 H 0.18328 0.23685 0.65247 0.0
H1117 H 0.26753 0.15785 0.62928 0.0
H1118 H 0.15919 0.17637 0.60327 0.0
H1119 H 0.27614 0.20218 0.68457 0.0
H1120 H 0.23304 0.17017 0.61694 0.0
H1121 H 0.22342 0.23097 0.66147 0.0
C1122 C 0.18693 0.22281 0.64333 0.0
C1123 C 0.1683 0.20721 0.62708 0.0
C1124 C 0.24258 0.17725 0.63175 0.0
C1125 C 0.21352 0.19981 0.63743 0.0
C1126 C 0.26226 0.17024 0.63881 0.0
C1127 C 0.2746 0.17881 0.65805 0.0
C1128 C 0.23542 0.19319 0.64394 0.0
C1129 C 0.267 0.19488 0.6697 0.0
C1130 C 0.20962 0.21925 0.64854 0.0
C1131 C 0.17343 0.18892 0.61582 0.0
N1132 N 0.24793 0.20153 0.66247 0.0
N1133 N 0.19555 0.18556 0.62127 0.0
H1134 H 0.71383 0.93558 0.63756 0.0
H1135 H 0.84398 0.08722 0.67077 0.0
H1136 H 0.79304 0.95119 0.66469 0.0
H1137 H 0.76693 0.07364 0.64072 0.0
H1138 H 0.82634 0.0374 0.66674 0.0
H1139 H 0.73326 0.98599 0.63681 0.0
C1140 C 0.73536 0.94975 0.64324 0.0
C1141 C 0.75199 0.93967 0.65127 0.0
C1142 C 0.81331 0.04527 0.6609 0.0
C1143 C 0.77425 -0.00323 0.65055 0.0
C1144 C 0.82339 0.07377 0.6632 0.0
C1145 C 0.80681 0.08462 0.65622 0.0
C1146 C 0.78633 0.02734 0.65166 0.0
C1147 C 0.78038 0.06616 0.64639 0.0
C1148 C 0.74645 0.97839 0.64281 0.0
C1149 C 0.77967 0.95845 0.65845 0.0
N1150 N 0.77084 0.03836 0.64455 0.0
N1151 N 0.78994 0.98617 0.65801 0.0
H1152 H 0.51427 0.36396 0.74987 0.0
H1153 H 0.38359 0.25847 0.67578 0.0
H1154 H 0.48185 0.38865 0.70153 0.0
H1155 H 0.40471 0.23445 0.7296 0.0
H1156 H 0.41834 0.30666 0.68607 0.0
H1157 H 0.4731 0.31697 0.74418 0.0
C1158 C 0.49812 0.35951 0.73831 0.0
C1159 C 0.50109 0.37984 0.72613 0.0
C1160 C 0.41531 0.29095 0.69574 0.0
C1161 C 0.45463 0.32655 0.71929 0.0
C1162 C 0.39552 0.26335 0.68982 0.0
C1163 C 0.39145 0.24236 0.70177 0.0
C1164 C 0.43152 0.29771 0.71366 0.0
C1165 C 0.40728 0.25 0.71991 0.0
C1166 C 0.47475 0.33278 0.73503 0.0
C1167 C 0.48004 0.37333 0.71123 0.0
N1168 N 0.42689 0.27707 0.72523 0.0
N1169 N 0.45778 0.34713 0.70809 0.0
H1170 H 0.63143 0.08 0.74605 0.0
H1171 H 0.74049 0.16753 0.67126 0.0
H1172 H 0.61686 0.12768 0.70475 0.0
H1173 H 0.75733 0.12343 0.71463 0.0
H1174 H 0.69584 0.15439 0.68404 0.0
H1175 H 0.67857 0.09727 0.7358 0.0
C1176 C 0.63843 0.09445 0.73502 0.0
C1177 C 0.62061 0.10269 0.72627 0.0
C1178 C 0.70933 0.14764 0.6908 0.0
C1179 C 0.67395 0.12208 0.71421 0.0
C1180 C 0.73485 0.15509 0.68347 0.0
C1181 C 0.75273 0.14649 0.69179 0.0
C1182 C 0.70149 0.13135 0.70656 0.0
C1183 C 0.74425 0.13049 0.70767 0.0
C1184 C 0.66521 0.10421 0.7291 0.0
C1185 C 0.63025 0.12109 0.7119 0.0
N1186 N 0.71924 0.12338 0.71447 0.0
N1187 N 0.65624 0.13008 0.70623 0.0
H1188 H 0.88117 0.49467 0.69322 0.0
H1189 H 0.89519 0.64177 0.72507 0.0
H1190 H 0.94727 0.55682 0.73417 0.0
H1191 H 0.83272 0.58147 0.68103 0.0
H1192 H 0.91227 0.6096 0.73061 0.0
H1193 H 0.86082 0.52481 0.69055 0.0
C1194 C 0.89122 0.51469 0.70173 0.0
C1195 C 0.91578 0.52354 0.71388 0.0
C1196 C 0.89476 0.60337 0.71979 0.0
C1197 C 0.89296 0.55809 0.71092 0.0
C1198 C 0.88495 0.62172 0.71662 0.0
C1199 C 0.86257 0.6144 0.70245 0.0
C1200 C 0.88211 0.57748 0.70875 0.0
C1201 C 0.8501 0.58808 0.69203 0.0
C1202 C 0.87969 0.53188 0.70021 0.0
C1203 C 0.92823 0.54948 0.72464 0.0
N1204 N 0.86012 0.57064 0.69534 0.0
N1205 N 0.91671 0.56599 0.72287 0.0
H1206 H 0.40425 0.89668 0.22425 0.0
H1207 H 0.52962 0.01073 0.17038 0.0
H1208 H 0.48726 0.95185 0.25248 0.0
H1209 H 0.44577 0.95777 0.14277 0.0
H1210 H 0.51489 0.98844 0.20025 0.0
H1211 H 0.41949 0.91765 0.194 0.0
C1212 C 0.42568 0.91323 0.22413 0.0
C1213 C 0.44444 0.92252 0.24104 0.0
C1214 C 0.49971 0.98165 0.18765 0.0
C1215 C 0.46214 0.94657 0.20627 0.0
C1216 C 0.50807 0.9945 0.17059 0.0
C1217 C 0.48892 0.98624 0.15396 0.0
C1218 C 0.47194 0.96031 0.18821 0.0
C1219 C 0.46139 0.96468 0.15509 0.0
C1220 C 0.43441 0.92513 0.20679 0.0
C1221 C 0.4721 0.94375 0.23982 0.0
N1222 N 0.45374 0.95255 0.1719 0.0
N1223 N 0.48005 0.95508 0.22279 0.0
H1224 H 0.02759 0.46883 0.25091 0.0
H1225 H 0.02838 0.5418 0.15428 0.0
H1226 H 0.07223 0.55783 0.24903 0.0
H1227 H 0.97684 0.4539 0.15912 0.0
H1228 H 0.04627 0.54829 0.18848 0.0
H1229 H 0.01021 0.46317 0.21687 0.0
C1230 C 0.03385 0.48721 0.24328 0.0
C1231 C 0.05156 0.51384 0.2528 0.0
C1232 C 0.03101 0.5276 0.18205 0.0
C1233 C 0.03149 0.50752 0.21374 0.0
C1234 C 0.02093 0.52386 0.16251 0.0
C1235 C 0.00102 0.49727 0.15383 0.0
C1236 C 0.02127 0.50457 0.19297 0.0
C1237 C 0.99187 0.47482 0.16525 0.0
C1238 C 0.02378 0.48397 0.22386 0.0
C1239 C 0.05851 0.53692 0.24228 0.0
N1240 N 0.0021 0.47898 0.18418 0.0
N1241 N 0.04856 0.53323 0.22328 0.0
H1242 H 0.43561 0.50695 0.2295 0.0
H1243 H 0.54174 0.55055 0.14742 0.0
H1244 H 0.52373 0.56729 0.2397 0.0
H1245 H 0.45613 0.48355 0.13743 0.0
H1246 H 0.5348 0.55744 0.18119 0.0
H1247 H 0.44207 0.49795 0.19575 0.0
C1248 C 0.45631 0.5182 0.22468 0.0
C1249 C 0.47909 0.53815 0.23742 0.0
C1250 C 0.51749 0.54118 0.17166 0.0
C1251 C 0.48658 0.52813 0.19883 0.0
C1252 C 0.5214 0.53737 0.15231 0.0
C1253 C 0.49945 0.51653 0.13954 0.0
C1254 C 0.49137 0.52413 0.17836 0.0
C1255 C 0.47369 0.49974 0.14681 0.0
C1256 C 0.45996 0.51314 0.2054 0.0
C1257 C 0.50542 0.55221 0.23033 0.0
N1258 N 0.47032 0.50397 0.16572 0.0
N1259 N 0.50839 0.547 0.21156 0.0
H1260 H 0.90007 0.42613 0.78778 0.0
H1261 H 0.01486 0.52374 0.87501 0.0
H1262 H 0.97694 0.50061 0.77977 0.0
H1263 H 0.94021 0.44669 0.88244 0.0
H1264 H -0.00059 0.51782 0.84047 0.0
H1265 H 0.91228 0.43578 0.82285 0.0
C1266 C 0.91948 0.4446 0.79342 0.0
C1267 C 0.93766 0.46244 0.78081 0.0
C1268 C 0.98633 0.50227 0.84967 0.0
C1269 C 0.95176 0.47366 0.82099 0.0
C1270 C 0.99523 0.50554 0.86938 0.0
C1271 C 0.97894 0.48555 0.88165 0.0
C1272 C 0.96095 0.4788 0.8421 0.0
C1273 C 0.95338 0.46272 0.87359 0.0
C1274 C 0.92641 0.45013 0.81345 0.0
C1275 C 0.96225 0.48635 0.78894 0.0
N1276 N 0.94527 0.45989 0.85432 0.0
N1277 N 0.9687 0.49114 0.8085 0.0
H1278 H 0.5432 0.44321 0.79334 0.0
H1279 H 0.5086 0.53855 0.86377 0.0
H1280 H 0.56182 0.52602 0.78243 0.0
H1281 H 0.49124 0.45617 0.87487 0.0
H1282 H 0.52706 0.53398 0.83354 0.0
H1283 H 0.52319 0.44728 0.82289 0.0
C1284 C 0.54294 0.46221 0.79709 0.0
C1285 C 0.55419 0.4843 0.78533 0.0
C1286 C 0.51918 0.51688 0.84257 0.0
C1287 C 0.5315 0.48921 0.81934 0.0
C1288 C 0.50844 0.5194 0.85978 0.0
C1289 C 0.49833 0.49771 0.87192 0.0
C1290 C 0.5198 0.49247 0.83738 0.0
C1291 C 0.49912 0.47357 0.86612 0.0
C1292 C 0.53164 0.46458 0.81404 0.0
C1293 C 0.55369 0.50859 0.79115 0.0
N1294 N 0.50966 0.47162 0.84929 0.0
N1295 N 0.54251 0.51038 0.80771 0.0
H1296 H 0.53303 0.11085 0.81113 0.0
H1297 H 0.5163 0.99024 0.8769 0.0
H1298 H 0.53603 0.03823 0.78981 0.0
H1299 H 0.50831 0.06021 0.89759 0.0
H1300 H 0.5265 0.00907 0.84552 0.0
H1301 H 0.52733 0.09445 0.84347 0.0
C1302 C 0.53261 0.09151 0.81324 0.0
C1303 C 0.5349 0.07587 0.79762 0.0
C1304 C 0.52259 0.02037 0.85693 0.0
C1305 C 0.52844 0.05696 0.83475 0.0
C1306 C 0.51656 0.00951 0.87485 0.0
C1307 C 0.5112 0.0235 0.88996 0.0
C1308 C 0.52329 0.04547 0.85396 0.0
C1309 C 0.5125 0.04876 0.88648 0.0
C1310 C 0.52942 0.08219 0.83175 0.0
C1311 C 0.53466 0.05118 0.80138 0.0
N1312 N 0.51828 0.05884 0.86886 0.0
N1313 N 0.53131 0.04245 0.81949 0.0
H1314 H 0.15478 0.2769 0.58034 0.0
H1315 H 0.11622 0.29118 0.46978 0.0
H1316 H 0.07097 0.23336 0.55134 0.0
H1317 H 0.19831 0.34303 0.50034 0.0
H1318 H 0.10012 0.26782 0.49905 0.0
H1319 H 0.17194 0.2993 0.55072 0.0
C1320 C 0.14001 0.27193 0.56772 0.0
C1321 C 0.11136 0.2533 0.56837 0.0
C1322 C 0.12167 0.28429 0.49938 0.0
C1323 C 0.13083 0.27896 0.53445 0.0
C1324 C 0.13094 0.29754 0.48261 0.0
C1325 C 0.15871 0.3191 0.48254 0.0
C1326 C 0.14027 0.2925 0.5163 0.0
C1327 C 0.17666 0.32671 0.49976 0.0
C1328 C 0.1498 0.28485 0.55085 0.0
C1329 C 0.09316 0.24787 0.55162 0.0
N1330 N 0.16716 0.3134 0.51591 0.0
N1331 N 0.10319 0.26059 0.53539 0.0
H1332 H 0.75807 0.84499 0.57599 0.0
H1333 H 0.64876 0.84902 0.49688 0.0
H1334 H 0.68759 0.85327 0.59036 0.0
H1335 H 0.71421 0.83256 0.48231 0.0
H1336 H 0.6649 0.85419 0.53121 0.0
H1337 H 0.74442 0.84376 0.54162 0.0
C1338 C 0.73968 0.84649 0.57193 0.0
C1339 C 0.72388 0.8491 0.58612 0.0
C1340 C 0.6758 0.84955 0.5205 0.0
C1341 C 0.7083 0.84801 0.54675 0.0
C1342 C 0.66652 0.84648 0.50089 0.0
C1343 C 0.68002 0.84017 0.48665 0.0
C1344 C 0.69879 0.8463 0.52599 0.0
C1345 C 0.70329 0.83767 0.49273 0.0
C1346 C 0.73199 0.84593 0.5523 0.0
C1347 C 0.70058 0.85151 0.57998 0.0
N1348 N 0.71185 0.84061 0.51193 0.0
N1349 N 0.69345 0.85081 0.56077 0.0
H1350 H 0.13245 0.82716 0.57263 0.0
H1351 H 0.13548 0.86914 0.46369 0.0
H1352 H 0.12475 0.89695 0.55627 0.0
H1353 H 0.1553 0.80718 0.48129 0.0
H1354 H 0.12493 0.87512 0.49668 0.0
H1355 H 0.13415 0.81512 0.53849 0.0
C1356 C 0.13065 0.83969 0.56183 0.0
C1357 C 0.12861 0.8632 0.56735 0.0
C1358 C 0.1314 0.86008 0.49331 0.0
C1359 C 0.1309 0.84974 0.52823 0.0
C1360 C 0.13724 0.85648 0.47441 0.0
C1361 C 0.14642 0.83768 0.46968 0.0
C1362 C 0.13467 0.84473 0.50765 0.0
C1363 C 0.14868 0.82218 0.48432 0.0
C1364 C 0.13186 0.83294 0.54235 0.0
C1365 C 0.12672 0.87887 0.55271 0.0
N1366 N 0.14296 0.82612 0.50264 0.0
N1367 N 0.12804 0.87194 0.53387 0.0
H1368 H 0.62507 0.76801 0.11541 0.0
H1369 H 0.66093 0.86653 0.21305 0.0
H1370 H 0.60499 0.83372 0.11934 0.0
H1371 H 0.65288 0.78526 0.21098 0.0
H1372 H 0.64534 0.85827 0.17818 0.0
H1373 H 0.64043 0.77757 0.14992 0.0
C1374 C 0.6236 0.7843 0.12355 0.0
C1375 C 0.61318 0.79973 0.11444 0.0
C1376 C 0.6469 0.84225 0.18542 0.0
C1377 C 0.63155 0.81126 0.15409 0.0
C1378 C 0.65589 0.84698 0.20525 0.0
C1379 C 0.65809 0.82649 0.21489 0.0
C1380 C 0.64053 0.81704 0.17518 0.0
C1381 C 0.65116 0.80147 0.20416 0.0
C1382 C 0.63257 0.78985 0.14327 0.0
C1383 C 0.61288 0.8213 0.12571 0.0
N1384 N 0.64285 0.79753 0.18489 0.0
N1385 N 0.62191 0.82643 0.14498 0.0
H1386 H 0.2444 0.85303 0.11573 0.0
H1387 H 0.14603 0.78094 0.1992 0.0
H1388 H 0.20201 0.76446 0.12005 0.0
H1389 H 0.20606 0.86868 0.20289 0.0
H1390 H 0.16299 0.77453 0.16863 0.0
H1391 H 0.22774 0.85919 0.14632 0.0
C1392 C 0.23181 0.83486 0.12314 0.0
C1393 C 0.22476 0.80816 0.11521 0.0
C1394 C 0.17248 0.79517 0.17615 0.0
C1395 C 0.20502 0.81512 0.15018 0.0
C1396 C 0.16269 0.79887 0.19353 0.0
C1397 C 0.17466 0.82538 0.20362 0.0
C1398 C 0.19419 0.8182 0.16867 0.0
C1399 C 0.19641 0.84783 0.19569 0.0
C1400 C 0.22214 0.83842 0.14059 0.0
C1401 C 0.20772 0.78541 0.12538 0.0
N1402 N 0.20539 0.84376 0.17867 0.0
N1403 N 0.1984 0.78941 0.14227 0.0
H1404 H 0.19237 0.44016 0.14156 0.0
H1405 H 0.18145 0.32091 0.20656 0.0
H1406 H 0.19604 0.36833 0.11923 0.0
H1407 H 0.17561 0.39161 0.22862 0.0
H1408 H 0.18995 0.33956 0.175 0.0
H1409 H 0.18973 0.42454 0.17406 0.0
C1410 C 0.19275 0.42117 0.14349 0.0
C1411 C 0.19426 0.40547 0.12756 0.0
C1412 C 0.18694 0.35107 0.18676 0.0
C1413 C 0.19128 0.38744 0.16483 0.0
C1414 C 0.18191 0.34034 0.20478 0.0
C1415 C 0.17761 0.35459 0.2203 0.0
C1416 C 0.18762 0.37625 0.18413 0.0
C1417 C 0.17903 0.37998 0.21718 0.0
C1418 C 0.19132 0.41229 0.16208 0.0
C1419 C 0.19515 0.38127 0.13105 0.0
N1420 N 0.18375 0.38989 0.19945 0.0
N1421 N 0.19343 0.37291 0.14925 0.0
H1422 H 0.73155 0.56857 0.88612 0.0
H1423 H 0.86536 0.67838 0.83684 0.0
H1424 H 0.81478 0.61315 0.91602 0.0
H1425 H 0.78361 0.62641 0.80585 0.0
H1426 H 0.84731 0.65578 0.86621 0.0
H1427 H 0.75031 0.59045 0.85679 0.0
C1428 C 0.75379 0.58305 0.88653 0.0
C1429 C 0.77158 0.58912 0.90361 0.0
C1430 C 0.83336 0.64927 0.85296 0.0
C1431 C 0.79331 0.61422 0.86995 0.0
C1432 C 0.84361 0.66228 0.83621 0.0
C1433 C 0.826 0.65428 0.8188 0.0
C1434 C 0.80522 0.62822 0.85238 0.0
C1435 C 0.79807 0.63304 0.81883 0.0
C1436 C 0.76452 0.59543 0.86974 0.0
C1437 C 0.80031 0.60769 0.90316 0.0
N1438 N 0.78856 0.62086 0.83533 0.0
N1439 N 0.81026 0.61969 0.88664 0.0
H1440 H 0.41254 0.22545 0.91281 0.0
H1441 H 0.32135 0.11821 0.8205 0.0
H1442 H 0.36953 0.13625 0.91343 0.0
H1443 H 0.37067 0.20683 0.81771 0.0
H1444 H 0.33831 0.12472 0.85477 0.0
H1445 H 0.39694 0.21941 0.87818 0.0
C1446 C 0.3998 0.20461 0.90567 0.0
C1447 C 0.39239 0.18132 0.91605 0.0
C1448 C 0.3455 0.14277 0.84668 0.0
C1449 C 0.37452 0.17425 0.87642 0.0
C1450 C 0.33568 0.13907 0.82712 0.0
C1451 C 0.34451 0.16202 0.81622 0.0
C1452 C 0.36421 0.16965 0.85551 0.0
C1453 C 0.36349 0.18853 0.82551 0.0
C1454 C 0.39101 0.20117 0.88589 0.0
C1455 C 0.37607 0.1548 0.90599 0.0
N1456 N 0.37261 0.19163 0.84463 0.0
N1457 N 0.36764 0.15201 0.88679 0.0
H1458 H 0.85609 0.23257 0.90587 0.0
H1459 H 0.79972 0.13852 0.80427 0.0
H1460 H 0.77083 0.16577 0.89223 0.0
H1461 H 0.87768 0.21637 0.81361 0.0
H1462 H 0.79049 0.14546 0.83756 0.0
H1463 H 0.86595 0.2244 0.87311 0.0
C1464 C 0.83938 0.21627 0.89599 0.0
C1465 C 0.8125 0.19998 0.90184 0.0
C1466 C 0.80961 0.16102 0.83233 0.0
C1467 C 0.82385 0.19022 0.86434 0.0
C1468 C 0.81497 0.15699 0.81338 0.0
C1469 C 0.83948 0.17693 0.80616 0.0
C1470 C 0.82904 0.18504 0.84423 0.0
C1471 C 0.85837 0.20064 0.81852 0.0
C1472 C 0.84508 0.21154 0.8773 0.0
C1473 C 0.79192 0.17869 0.88848 0.0
N1474 N 0.85279 0.204 0.83696 0.0
N1475 N 0.79802 0.17445 0.87037 0.0
H1476 H 0.2712 0.16197 0.44962 0.0
H1477 H 0.32884 0.11519 0.54035 0.0
H1478 H 0.29955 0.10246 0.44482 0.0
H1479 H 0.32189 0.1891 0.54387 0.0
H1480 H 0.31318 0.1073 0.50572 0.0
H1481 H 0.28568 0.17 0.48456 0.0
C1482 C 0.28051 0.15065 0.45584 0.0
C1483 C 0.28389 0.13131 0.44419 0.0
C1484 C 0.31506 0.12525 0.51406 0.0
C1485 C 0.30012 0.14014 0.4842 0.0
C1486 C 0.32381 0.12965 0.53385 0.0
C1487 C 0.32671 0.15285 0.545 0.0
C1488 C 0.30891 0.14406 0.50531 0.0
C1489 C 0.32022 0.1711 0.53576 0.0
C1490 C 0.28865 0.15517 0.47581 0.0
C1491 C 0.29586 0.11708 0.45319 0.0
N1492 N 0.31156 0.16629 0.51645 0.0
N1493 N 0.30341 0.12171 0.4726 0.0
H1494 H 0.87285 0.11214 0.45309 0.0
H1495 H 0.85198 0.20716 0.53351 0.0
H1496 H 0.90224 0.19944 0.44987 0.0
H1497 H 0.83034 0.12225 0.53981 0.0
H1498 H 0.86928 0.20428 0.50241 0.0
H1499 H 0.85617 0.11504 0.4845 0.0
C1500 C 0.87577 0.13192 0.45898 0.0
C1501 C 0.88896 0.15558 0.44881 0.0
C1502 C 0.86077 0.18627 0.51059 0.0
C1503 C 0.86996 0.15908 0.48481 0.0
C1504 C 0.8507 0.18784 0.5283 0.0
C1505 C 0.8396 0.16488 0.53929 0.0
C1506 C 0.85965 0.16151 0.5037 0.0
C1507 C 0.83894 0.14055 0.53193 0.0
C1508 C 0.86635 0.13359 0.47696 0.0
C1509 C 0.89248 0.18074 0.45728 0.0
N1510 N 0.84874 0.13948 0.51458 0.0
N1511 N 0.88294 0.18179 0.47473 0.0
H1512 H 0.81412 0.71613 0.46102 0.0
H1513 H 0.88311 0.70054 0.5611 0.0
H1514 H 0.90279 0.74773 0.47273 0.0
H1515 H 0.79425 0.66391 0.54605 0.0
H1516 H 0.89135 0.71956 0.52954 0.0
H1517 H 0.80711 0.69858 0.4928 0.0
C1518 C 0.83221 0.71965 0.47037 0.0
C1519 C 0.85915 0.73369 0.46422 0.0
C1520 C 0.87007 0.70732 0.53315 0.0
C1521 C 0.85116 0.71311 0.50073 0.0
C1522 C 0.86534 0.69657 0.5512 0.0
C1523 C 0.83792 0.6805 0.55623 0.0
C1524 C 0.84722 0.70211 0.52007 0.0
C1525 C 0.81571 0.6758 0.54272 0.0
C1526 C 0.82815 0.70939 0.4885 0.0
C1527 C 0.88165 0.73695 0.47684 0.0
N1528 N 0.82086 0.68657 0.52533 0.0
N1529 N 0.87717 0.7268 0.49452 0.0
loop_
_geom_bond_atom_site_label_1
_geom_bond_atom_site_label_2
_geom_bond_distance
_geom_bond_site_symmetry_2
_ccdc_geom_bond_type
H0 C3 0.929 . S
H1 C6 0.929 . S
H2 C8 0.930 . S
C3 H0 0.929 . S
C3 C4 1.398 . S
C3 C5 1.396 . S
C4 C3 1.398 . S
C4 C8 1.407 . S
C5 C3 1.396 . S
C5 C6 1.394 . S
C6 H1 0.929 . S
C6 C5 1.394 . S
C6 C7 1.382 . S
C7 C6 1.382 . S
C7 C8 1.392 . S
C7 N9 1.420 . S
C8 H2 0.930 . S
C8 C4 1.407 . S
C8 C7 1.392 . S
N9 C7 1.420 . S
N9 C10 1.244 . S
C10 N9 1.244 . S
H11 C14 0.929 . S
H12 C17 0.929 . S
H13 C19 0.930 . S
C14 H11 0.929 . S
C14 C15 1.398 . S
C14 C16 1.396 . S
C15 C14 1.398 . S
C15 C19 1.407 . S
C16 C14 1.396 . S
C16 C17 1.394 . S
C17 H12 0.929 . S
C17 C16 1.394 . S
C17 C18 1.382 . S
C18 C17 1.382 . S
C18 C19 1.392 . S
C18 N20 1.420 . S
C19 H13 0.930 . S
C19 C15 1.407 . S
C19 C18 1.392 . S
N20 C18 1.420 . S
N20 C21 1.244 . S
C21 N20 1.244 . S
H22 C25 0.929 . S
H23 C28 0.929 . S
H24 C30 0.930 . S
C25 H22 0.929 . S
C25 C26 1.398 . S
C25 C27 1.396 . S
C26 C25 1.398 . S
C26 C30 1.407 . S
C27 C25 1.396 . S
C27 C28 1.394 . S
C28 H23 0.929 . S
C28 C27 1.394 . S
C28 C29 1.382 . S
C29 C28 1.382 . S
C29 C30 1.392 . S
C29 N31 1.420 . S
C30 H24 0.930 . S
C30 C26 1.407 . S
C30 C29 1.392 . S
N31 C29 1.420 . S
N31 C32 1.244 . S
C32 N31 1.244 . S
H33 C36 0.929 . S
H34 C39 0.929 . S
H35 C41 0.930 . S
C36 H33 0.929 . S
C36 C37 1.398 . S
C36 C38 1.396 . S
C37 C36 1.398 . S
C37 C41 1.407 . S
C38 C36 1.396 . S
C38 C39 1.394 . S
C39 H34 0.929 . S
C39 C38 1.394 . S
C39 C40 1.382 . S
C40 C39 1.382 . S
C40 C41 1.392 . S
C40 N42 1.420 . S
C41 H35 0.930 . S
C41 C37 1.407 . S
C41 C40 1.392 . S
N42 C40 1.420 . S
N42 C43 1.244 . S
C43 N42 1.244 . S
H44 C47 0.929 . S
H45 C50 0.929 . S
H46 C52 0.930 . S
C47 H44 0.929 . S
C47 C48 1.398 . S
C47 C49 1.396 . S
C48 C47 1.398 . S
C48 C52 1.407 . S
C49 C47 1.396 . S
C49 C50 1.394 . S
C50 H45 0.929 . S
C50 C49 1.394 . S
C50 C51 1.382 . S
C51 C50 1.382 . S
C51 C52 1.392 . S
C51 N53 1.420 . S
C52 H46 0.930 . S
C52 C48 1.407 . S
C52 C51 1.392 . S
N53 C51 1.420 . S
N53 C54 1.244 . S
C54 N53 1.244 . S
H55 C58 0.929 . S
H56 C61 0.929 . S
H57 C63 0.930 . S
C58 H55 0.929 . S
C58 C59 1.398 . S
C58 C60 1.396 . S
C59 C58 1.398 . S
C59 C63 1.407 . S
C60 C58 1.396 . S
C60 C61 1.394 . S
C61 H56 0.929 . S
C61 C60 1.394 . S
C61 C62 1.382 . S
C62 C61 1.382 . S
C62 C63 1.392 . S
C62 N64 1.420 . S
C63 H57 0.930 . S
C63 C59 1.407 . S
C63 C62 1.392 . S
N64 C62 1.420 . S
N64 C65 1.244 . S
C65 N64 1.244 . S
H66 C69 0.929 . S
H67 C72 0.929 . S
H68 C74 0.930 . S
C69 H66 0.929 . S
C69 C70 1.398 . S
C69 C71 1.396 . S
C70 C69 1.398 . S
C70 C74 1.407 . S
C71 C69 1.396 . S
C71 C72 1.394 . S
C72 H67 0.929 . S
C72 C71 1.394 . S
C72 C73 1.382 . S
C73 C72 1.382 . S
C73 C74 1.392 . S
C73 N75 1.420 . S
C74 H68 0.930 . S
C74 C70 1.407 . S
C74 C73 1.392 . S
N75 C73 1.420 . S
N75 C76 1.244 . S
C76 N75 1.244 . S
H77 C80 0.929 . S
H78 C83 0.929 . S
H79 C85 0.930 . S
C80 H77 0.929 . S
C80 C81 1.398 . S
C80 C82 1.396 . S
C81 C80 1.398 . S
C81 C85 1.407 . S
C82 C80 1.396 . S
C82 C83 1.394 . S
C83 H78 0.929 . S
C83 C82 1.394 . S
C83 C84 1.382 . S
C84 C83 1.382 . S
C84 C85 1.392 . S
C84 N86 1.420 . S
C85 H79 0.930 . S
C85 C81 1.407 . S
C85 C84 1.392 . S
N86 C84 1.420 . S
N86 C87 1.244 . S
C87 N86 1.244 . S
H88 C91 0.929 . S
H89 C94 0.929 . S
H90 C96 0.930 . S
C91 H88 0.929 . S
C91 C92 1.398 . S
C91 C93 1.396 . S
C92 C91 1.398 . S
C92 C96 1.407 . S
C93 C91 1.396 . S
C93 C94 1.394 . S
C94 H89 0.929 . S
C94 C93 1.394 . S
C94 C95 1.382 . S
C95 C94 1.382 . S
C95 C96 1.392 . S
C95 N97 1.420 . S
C96 H90 0.930 . S
C96 C92 1.407 . S
C96 C95 1.392 . S
N97 C95 1.420 . S
N97 C98 1.244 . S
C98 N97 1.244 . S
H99 C102 0.929 . S
H100 C105 0.929 . S
H101 C107 0.930 . S
C102 H99 0.929 . S
C102 C103 1.398 . S
C102 C104 1.396 . S
C103 C102 1.398 . S
C103 C107 1.407 . S
C104 C102 1.396 . S
C104 C105 1.394 . S
C105 H100 0.929 . S
C105 C104 1.394 . S
C105 C106 1.382 . S
C106 C105 1.382 . S
C106 C107 1.392 . S
C106 N108 1.420 . S
C107 H101 0.930 . S
C107 C103 1.407 . S
C107 C106 1.392 . S
N108 C106 1.420 . S
N108 C109 1.244 . S
C109 N108 1.244 . S
H110 C113 0.929 . S
H111 C116 0.929 . S
H112 C118 0.930 . S
C113 H110 0.929 . S
C113 C114 1.398 . S
C113 C115 1.396 . S
C114 C113 1.398 . S
C114 C118 1.407 . S
C115 C113 1.396 . S
C115 C116 1.394 . S
C116 H111 0.929 . S
C116 C115 1.394 . S
C116 C117 1.382 . S
C117 C116 1.382 . S
C117 C118 1.392 . S
C117 N119 1.420 . S
C118 H112 0.930 . S
C118 C114 1.407 . S
C118 C117 1.392 . S
N119 C117 1.420 . S
N119 C120 1.244 . S
C120 N119 1.244 . S
H121 C124 0.929 . S
H122 C127 0.929 . S
H123 C129 0.930 . S
C124 H121 0.929 . S
C124 C125 1.398 . S
C124 C126 1.396 . S
C125 C124 1.398 . S
C125 C129 1.407 . S
C126 C124 1.396 . S
C126 C127 1.394 . S
C127 H122 0.929 . S
C127 C126 1.394 . S
C127 C128 1.382 . S
C128 C127 1.382 . S
C128 C129 1.392 . S
C128 N130 1.420 . S
C129 H123 0.930 . S
C129 C125 1.407 . S
C129 C128 1.392 . S
N130 C128 1.420 . S
N130 C131 1.244 . S
C131 N130 1.244 . S
H132 C135 0.929 . S
H133 C138 0.929 . S
H134 C140 0.930 . S
C135 H132 0.929 . S
C135 C136 1.398 . S
C135 C137 1.396 . S
C136 C135 1.398 . S
C136 C140 1.407 . S
C137 C135 1.396 . S
C137 C138 1.394 . S
C138 H133 0.929 . S
C138 C137 1.394 . S
C138 C139 1.382 . S
C139 C138 1.382 . S
C139 C140 1.392 . S
C139 N141 1.420 . S
C140 H134 0.930 . S
C140 C136 1.407 . S
C140 C139 1.392 . S
N141 C139 1.420 . S
N141 C142 1.244 . S
C142 N141 1.244 . S
H143 C146 0.929 . S
H144 C149 0.929 . S
H145 C151 0.930 . S
C146 H143 0.929 . S
C146 C147 1.398 . S
C146 C148 1.396 . S
C147 C146 1.398 . S
C147 C151 1.407 . S
C148 C146 1.396 . S
C148 C149 1.394 . S
C149 H144 0.929 . S
C149 C148 1.394 . S
C149 C150 1.382 . S
C150 C149 1.382 . S
C150 C151 1.392 . S
C150 N152 1.420 . S
C151 H145 0.930 . S
C151 C147 1.407 . S
C151 C150 1.392 . S
N152 C150 1.420 . S
N152 C153 1.244 . S
C153 N152 1.244 . S
H154 C157 0.929 . S
H155 C160 0.929 . S
H156 C162 0.930 . S
C157 H154 0.929 . S
C157 C158 1.398 . S
C157 C159 1.396 . S
C158 C157 1.398 . S
C158 C162 1.407 . S
C159 C157 1.396 . S
C159 C160 1.394 . S
C160 H155 0.929 . S
C160 C159 1.394 . S
C160 C161 1.382 . S
C161 C160 1.382 . S
C161 C162 1.392 . S
C161 N163 1.420 . S
C162 H156 0.930 . S
C162 C158 1.407 . S
C162 C161 1.392 . S
N163 C161 1.420 . S
N163 C164 1.244 . S
C164 N163 1.244 . S
H165 C168 0.929 . S
H166 C171 0.929 . S
H167 C173 0.930 . S
C168 H165 0.929 . S
C168 C169 1.398 . S
C168 C170 1.396 . S
C169 C168 1.398 . S
C169 C173 1.407 . S
C170 C168 1.396 . S
C170 C171 1.394 . S
C171 H166 0.929 . S
C171 C170 1.394 . S
C171 C172 1.382 . S
C172 C171 1.382 . S
C172 C173 1.392 . S
C172 N174 1.420 . S
C173 H167 0.930 . S
C173 C169 1.407 . S
C173 C172 1.392 . S
N174 C172 1.420 . S
N174 C175 1.244 . S
C175 N174 1.244 . S
H176 C179 0.929 . S
H177 C182 0.929 . S
H178 C184 0.930 . S
C179 H176 0.929 . S
C179 C180 1.398 . S
C179 C181 1.396 . S
C180 C179 1.398 . S
C180 C184 1.407 . S
C181 C179 1.396 . S
C181 C182 1.394 . S
C182 H177 0.929 . S
C182 C181 1.394 . S
C182 C183 1.382 . S
C183 C182 1.382 . S
C183 C184 1.392 . S
C183 N185 1.420 . S
C184 H178 0.930 . S
C184 C180 1.407 . S
C184 C183 1.392 . S
N185 C183 1.420 . S
N185 C186 1.244 . S
C186 N185 1.244 . S
H187 C190 0.929 . S
H188 C193 0.929 . S
H189 C195 0.930 . S
C190 H187 0.929 . S
C190 C191 1.398 . S
C190 C192 1.396 . S
C191 C190 1.398 . S
C191 C195 1.407 . S
C192 C190 1.396 . S
C192 C193 1.394 . S
C193 H188 0.929 . S
C193 C192 1.394 . S
C193 C194 1.382 . S
C194 C193 1.382 . S
C194 C195 1.392 . S
C194 N196 1.420 . S
C195 H189 0.930 . S
C195 C191 1.407 . S
C195 C194 1.392 . S
N196 C194 1.420 . S
N196 C197 1.244 . S
C197 N196 1.244 . S
Eu198 C207 2.828 1_565 S
Eu198 O209 2.392 . S
Eu198 O211 2.418 . S
Eu198 O216 2.373 1_565 S
Eu198 O219 2.488 . S
Eu198 O220 2.471 1_565 S
Eu198 O221 2.349 1_565 S
Eu199 O208 2.373 1_545 S
Eu199 O212 2.488 . S
Eu199 O213 2.471 1_545 S
Eu199 O214 2.349 1_545 S
Eu199 O217 2.392 . S
Eu199 O218 2.418 . S
Eu199 C228 2.828 . S
C200 O218 1.244 . S
C200 O221 1.265 1_554 S
C201 C202 1.379 . S
C201 C205 1.373 1_545 S
C201 C207 1.505 . S
C202 C201 1.379 . S
C202 C204 1.369 . S
C202 H230 0.930 . S
C203 C205 1.383 1_545 S
C203 C206 1.382 . S
C203 H231 0.930 1_545 S
C204 C202 1.369 . S
C204 C206 1.392 . S
C204 H232 0.930 . S
C205 C201 1.373 1_565 S
C205 C203 1.383 1_565 S
C205 H233 0.931 . S
C206 C203 1.382 . S
C206 C204 1.392 . S
C207 Eu198 2.828 1_545 S
C207 C201 1.505 . S
C207 O219 1.249 1_545 S
C207 O220 1.244 . S
O208 Eu199 2.373 1_565 S
O208 C210 1.258 . S
O209 Eu198 2.392 . S
O209 C210 1.242 1_556 S
C210 O208 1.258 . S
C210 O209 1.242 1_554 S
O211 Eu198 2.418 . S
O211 C215 1.244 1_556 S
O212 Eu199 2.488 . S
O212 C228 1.249 . S
O213 Eu199 2.471 1_565 S
O213 C228 1.244 1_565 S
O214 Eu199 2.349 1_565 S
O214 C215 1.265 . S
C215 O211 1.244 1_554 S
C215 O214 1.265 . S
O216 Eu198 2.373 1_545 S
O216 C229 1.258 . S
O217 Eu199 2.392 . S
O217 C229 1.242 1_554 S
O218 Eu199 2.418 . S
O218 C200 1.244 . S
O219 Eu198 2.488 . S
O219 C207 1.249 1_565 S
O220 Eu198 2.471 1_545 S
O220 C207 1.244 . S
O221 Eu198 2.349 1_545 S
O221 C200 1.265 1_556 S
C222 C223 1.379 . S
C222 C226 1.373 1_565 S
C222 C228 1.505 1_565 S
C223 C222 1.379 . S
C223 C225 1.369 . S
C223 H234 0.930 . S
C224 C226 1.383 . S
C224 C227 1.382 1_545 S
C224 H235 0.930 . S
C225 C223 1.369 . S
C225 C227 1.392 . S
C225 H236 0.930 . S
C226 C222 1.373 1_545 S
C226 C224 1.383 . S
C226 H237 0.931 . S
C227 C224 1.382 1_565 S
C227 C225 1.392 . S
C228 Eu199 2.828 . S
C228 O212 1.249 . S
C228 O213 1.244 1_545 S
C228 C222 1.505 1_545 S
C229 O216 1.258 . S
C229 O217 1.242 1_556 S
H230 C202 0.930 . S
H231 C203 0.930 1_565 S
H232 C204 0.930 . S
H233 C205 0.931 . S
H234 C223 0.930 . S
H235 C224 0.930 . S
H236 C225 0.930 . S
H237 C226 0.931 . S
Eu238 C247 2.818 1_455 S
Eu238 O249 2.392 1_556 S
Eu238 O251 2.418 . S
Eu238 O256 2.373 1_455 S
Eu238 O259 2.488 . S
Eu238 O260 2.471 1_455 S
Eu238 O261 2.349 1_455 S
Eu239 O248 2.373 1_655 S
Eu239 O252 2.488 . S
Eu239 O253 2.471 1_655 S
Eu239 O254 2.349 1_655 S
Eu239 O257 2.392 . S
Eu239 O258 2.418 . S
Eu239 C268 2.828 1_655 S
C240 O258 1.244 . S
C240 O261 1.265 1_554 S
C241 C242 1.379 . S
C241 C245 1.373 1_655 S
C241 C247 1.518 . S
C242 C241 1.379 . S
C242 C244 1.369 . S
C242 H270 0.930 . S
C243 C245 1.383 1_655 S
C243 C246 1.382 . S
C243 H271 0.930 1_655 S
C244 C242 1.369 . S
C244 C246 1.392 . S
C244 H272 0.930 . S
C245 C241 1.373 1_455 S
C245 C243 1.383 1_455 S
C245 H273 0.931 . S
C246 C243 1.382 . S
C246 C244 1.392 . S
C247 Eu238 2.818 1_655 S
C247 C241 1.518 . S
C247 O259 1.234 1_655 S
C247 O260 1.248 . S
O248 Eu239 2.373 1_455 S
O248 C250 1.258 . S
O249 Eu238 2.392 1_554 S
O249 C250 1.242 . S
C250 O248 1.258 . S
C250 O249 1.242 . S
O251 Eu238 2.418 . S
O251 C255 1.244 1_556 S
O252 Eu239 2.488 . S
O252 C268 1.249 1_655 S
O253 Eu239 2.471 1_455 S
O253 C268 1.244 . S
O254 Eu239 2.349 1_455 S
O254 C255 1.265 . S
C255 O251 1.244 1_554 S
C255 O254 1.265 . S
O256 Eu238 2.373 1_655 S
O256 C269 1.258 . S
O257 Eu239 2.392 . S
O257 C269 1.242 1_554 S
O258 Eu239 2.418 . S
O258 C240 1.244 . S
O259 Eu238 2.488 . S
O259 C247 1.234 1_455 S
O260 Eu238 2.471 1_655 S
O260 C247 1.248 . S
O261 Eu238 2.349 1_655 S
O261 C240 1.265 1_556 S
C262 C263 1.379 . S
C262 C266 1.373 1_455 S
C262 C268 1.505 . S
C263 C262 1.379 . S
C263 C265 1.369 . S
C263 H274 0.930 . S
C264 C266 1.383 1_455 S
C264 C267 1.382 . S
C264 H275 0.930 1_455 S
C265 C263 1.369 . S
C265 C267 1.392 . S
C265 H276 0.930 . S
C266 C262 1.373 1_655 S
C266 C264 1.383 1_655 S
C266 H277 0.931 . S
C267 C264 1.382 . S
C267 C265 1.392 . S
C268 Eu239 2.828 1_455 S
C268 O252 1.249 1_455 S
C268 O253 1.244 . S
C268 C262 1.505 . S
C269 O256 1.258 . S
C269 O257 1.242 1_556 S
H270 C242 0.930 . S
H271 C243 0.930 1_455 S
H272 C244 0.930 . S
H273 C245 0.931 . S
H274 C263 0.930 . S
H275 C264 0.930 1_655 S
H276 C265 0.930 . S
H277 C266 0.931 . S
Eu278 C287 2.828 . S
Eu278 O289 2.392 . S
Eu278 O291 2.418 . S
Eu278 O296 2.373 . S
Eu278 O299 2.488 . S
Eu278 O300 2.471 . S
Eu278 O301 2.349 . S
Eu279 O288 2.373 . S
Eu279 O292 2.488 . S
Eu279 O293 2.471 . S
Eu279 O294 2.353 . S
Eu279 O297 2.392 1_556 S
Eu279 O298 2.418 . S
Eu279 C308 2.828 . S
C280 O298 1.244 1_554 S
C280 O301 1.265 . S
C281 C282 1.379 . S
C281 C285 1.373 . S
C281 C287 1.505 . S
C282 C281 1.379 . S
C282 C284 1.369 . S
C282 H310 0.930 . S
C283 C285 1.383 . S
C283 C286 1.382 . S
C283 H311 0.930 . S
C284 C282 1.369 . S
C284 C286 1.392 . S
C284 H312 0.930 . S
C285 C281 1.373 . S
C285 C283 1.383 . S
C285 H313 0.931 . S
C286 C283 1.382 . S
C286 C284 1.392 . S
C287 Eu278 2.828 . S
C287 C281 1.505 . S
C287 O299 1.249 . S
C287 O300 1.244 . S
O288 Eu279 2.373 . S
O288 C290 1.258 . S
O289 Eu278 2.392 . S
O289 C290 1.242 1_554 S
C290 O288 1.258 . S
C290 O289 1.242 1_556 S
O291 Eu278 2.418 . S
O291 C295 1.244 . S
O292 Eu279 2.488 . S
O292 C308 1.249 . S
O293 Eu279 2.471 . S
O293 C308 1.244 . S
O294 Eu279 2.353 . S
O294 C295 1.261 1_556 S
C295 O291 1.244 . S
C295 O294 1.261 1_554 S
O296 Eu278 2.373 . S
O296 C309 1.258 . S
O297 Eu279 2.392 1_554 S
O297 C309 1.242 . S
O298 Eu279 2.418 . S
O298 C280 1.244 1_556 S
O299 Eu278 2.488 . S
O299 C287 1.249 . S
O300 Eu278 2.471 . S
O300 C287 1.244 . S
O301 Eu278 2.349 . S
O301 C280 1.265 . S
C302 C303 1.379 . S
C302 C306 1.373 . S
C302 C308 1.505 . S
C303 C302 1.379 . S
C303 C305 1.369 . S
C303 H314 0.930 . S
C304 C306 1.383 . S
C304 C307 1.382 . S
C304 H315 0.930 . S
C305 C303 1.369 . S
C305 C307 1.392 . S
C305 H316 0.930 . S
C306 C302 1.373 . S
C306 C304 1.383 . S
C306 H317 0.931 . S
C307 C304 1.382 . S
C307 C305 1.392 . S
C308 Eu279 2.828 . S
C308 O292 1.249 . S
C308 O293 1.244 . S
C308 C302 1.505 . S
C309 O296 1.258 . S
C309 O297 1.242 . S
H310 C282 0.930 . S
H311 C283 0.930 . S
H312 C284 0.930 . S
H313 C285 0.931 . S
H314 C303 0.930 . S
H315 C304 0.930 . S
H316 C305 0.930 . S
H317 C306 0.931 . S
Eu318 C327 2.828 . S
Eu318 O329 2.392 . S
Eu318 O331 2.418 . S
Eu318 O336 2.373 . S
Eu318 O339 2.488 . S
Eu318 O340 2.471 . S
Eu318 O341 2.349 . S
Eu319 O328 2.373 . S
Eu319 O332 2.488 . S
Eu319 O333 2.471 . S
Eu319 O334 2.349 . S
Eu319 O337 2.392 . S
Eu319 O338 2.418 . S
Eu319 C348 2.828 . S
C320 O338 1.244 . S
C320 O341 1.265 . S
C321 C322 1.379 . S
C321 C325 1.373 . S
C321 C327 1.505 . S
C322 C321 1.379 . S
C322 C324 1.369 . S
C322 H350 0.930 . S
C323 C325 1.383 . S
C323 C326 1.382 . S
C323 H351 0.930 . S
C324 C322 1.369 . S
C324 C326 1.392 . S
C324 H352 0.930 . S
C325 C321 1.373 . S
C325 C323 1.383 . S
C325 H353 0.931 . S
C326 C323 1.382 . S
C326 C324 1.392 . S
C327 Eu318 2.828 . S
C327 C321 1.505 . S
C327 O339 1.249 . S
C327 O340 1.244 . S
O328 Eu319 2.373 . S
O328 C330 1.258 . S
O329 Eu318 2.392 . S
O329 C330 1.242 . S
C330 O328 1.258 . S
C330 O329 1.242 . S
O331 Eu318 2.418 . S
O331 C335 1.244 . S
O332 Eu319 2.488 . S
O332 C348 1.249 . S
O333 Eu319 2.471 . S
O333 C348 1.244 . S
O334 Eu319 2.349 . S
O334 C335 1.265 . S
C335 O331 1.244 . S
C335 O334 1.265 . S
O336 Eu318 2.373 . S
O336 C349 1.258 . S
O337 Eu319 2.392 . S
O337 C349 1.242 . S
O338 Eu319 2.418 . S
O338 C320 1.244 . S
O339 Eu318 2.488 . S
O339 C327 1.249 . S
O340 Eu318 2.471 . S
O340 C327 1.244 . S
O341 Eu318 2.349 . S
O341 C320 1.265 . S
C342 C343 1.379 . S
C342 C346 1.373 . S
C342 C348 1.505 . S
C343 C342 1.379 . S
C343 C345 1.369 . S
C343 H354 0.930 . S
C344 C346 1.383 . S
C344 C347 1.382 . S
C344 H355 0.930 . S
C345 C343 1.369 . S
C345 C347 1.392 . S
C345 H356 0.930 . S
C346 C342 1.373 . S
C346 C344 1.383 . S
C346 H357 0.931 . S
C347 C344 1.382 . S
C347 C345 1.392 . S
C348 Eu319 2.828 . S
C348 O332 1.249 . S
C348 O333 1.244 . S
C348 C342 1.505 . S
C349 O336 1.258 . S
C349 O337 1.242 . S
H350 C322 0.930 . S
H351 C323 0.930 . S
H352 C324 0.930 . S
H353 C325 0.931 . S
H354 C343 0.930 . S
H355 C344 0.930 . S
H356 C345 0.930 . S
H357 C346 0.931 . S
Eu358 C367 2.828 . S
Eu358 O369 2.392 . S
Eu358 O371 2.418 . S
Eu358 O376 2.373 . S
Eu358 O379 2.488 . S
Eu358 O380 2.471 . S
Eu358 O381 2.349 . S
Eu359 O368 2.373 . S
Eu359 O372 2.488 . S
Eu359 O373 2.471 . S
Eu359 O374 2.349 . S
Eu359 O377 2.392 . S
Eu359 O378 2.418 . S
Eu359 C388 2.828 . S
C360 O378 1.244 . S
C360 O381 1.265 . S
C361 C362 1.379 . S
C361 C365 1.373 . S
C361 C367 1.505 . S
C362 C361 1.379 . S
C362 C364 1.369 . S
C362 H390 0.930 . S
C363 C365 1.383 . S
C363 C366 1.382 . S
C363 H391 0.930 . S
C364 C362 1.369 . S
C364 C366 1.392 . S
C364 H392 0.930 . S
C365 C361 1.373 . S
C365 C363 1.383 . S
C365 H393 0.931 . S
C366 C363 1.382 . S
C366 C364 1.392 . S
C367 Eu358 2.828 . S
C367 C361 1.505 . S
C367 O379 1.249 . S
C367 O380 1.244 . S
O368 Eu359 2.373 . S
O368 C370 1.258 . S
O369 Eu358 2.392 . S
O369 C370 1.242 . S
C370 O368 1.258 . S
C370 O369 1.242 . S
O371 Eu358 2.418 . S
O371 C375 1.244 . S
O372 Eu359 2.488 . S
O372 C388 1.249 . S
O373 Eu359 2.471 . S
O373 C388 1.244 . S
O374 Eu359 2.349 . S
O374 C375 1.265 . S
C375 O371 1.244 . S
C375 O374 1.265 . S
O376 Eu358 2.373 . S
O376 C389 1.258 . S
O377 Eu359 2.392 . S
O377 C389 1.242 . S
O378 Eu359 2.418 . S
O378 C360 1.244 . S
O379 Eu358 2.488 . S
O379 C367 1.249 . S
O380 Eu358 2.471 . S
O380 C367 1.244 . S
O381 Eu358 2.349 . S
O381 C360 1.265 . S
C382 C383 1.379 . S
C382 C386 1.373 . S
C382 C388 1.505 . S
C383 C382 1.379 . S
C383 C385 1.369 . S
C383 H394 0.930 . S
C384 C386 1.383 . S
C384 C387 1.382 . S
C384 H395 0.930 . S
C385 C383 1.369 . S
C385 C387 1.392 . S
C385 H396 0.930 . S
C386 C382 1.373 . S
C386 C384 1.383 . S
C386 H397 0.931 . S
C387 C384 1.382 . S
C387 C385 1.392 . S
C388 Eu359 2.828 . S
C388 O372 1.249 . S
C388 O373 1.244 . S
C388 C382 1.505 . S
C389 O376 1.258 . S
C389 O377 1.242 . S
H390 C362 0.930 . S
H391 C363 0.930 . S
H392 C364 0.930 . S
H393 C365 0.931 . S
H394 C383 0.930 . S
H395 C384 0.930 . S
H396 C385 0.930 . S
H397 C386 0.931 . S
Eu398 C407 2.828 . S
Eu398 O409 2.392 . S
Eu398 O411 2.418 . S
Eu398 O416 2.373 . S
Eu398 O419 2.488 . S
Eu398 O420 2.471 . S
Eu398 O421 2.349 . S
Eu399 O408 2.373 . S
Eu399 O412 2.488 . S
Eu399 O413 2.471 . S
Eu399 O414 2.349 . S
Eu399 O417 2.392 . S
Eu399 O418 2.418 . S
Eu399 C428 2.828 . S
C400 O418 1.244 . S
C400 O421 1.265 . S
C401 C402 1.379 . S
C401 C405 1.373 . S
C401 C407 1.505 . S
C402 C401 1.379 . S
C402 C404 1.369 . S
C402 H430 0.930 . S
C403 C405 1.383 . S
C403 C406 1.382 . S
C403 H431 0.930 . S
C404 C402 1.369 . S
C404 C406 1.392 . S
C404 H432 0.930 . S
C405 C401 1.373 . S
C405 C403 1.383 . S
C405 H433 0.931 . S
C406 C403 1.382 . S
C406 C404 1.392 . S
C407 Eu398 2.828 . S
C407 C401 1.505 . S
C407 O419 1.249 . S
C407 O420 1.244 . S
O408 Eu399 2.373 . S
O408 C410 1.258 . S
O409 Eu398 2.392 . S
O409 C410 1.242 . S
C410 O408 1.258 . S
C410 O409 1.242 . S
O411 Eu398 2.418 . S
O411 C415 1.244 . S
O412 Eu399 2.488 . S
O412 C428 1.249 . S
O413 Eu399 2.471 . S
O413 C428 1.244 . S
O414 Eu399 2.349 . S
O414 C415 1.265 . S
C415 O411 1.244 . S
C415 O414 1.265 . S
O416 Eu398 2.373 . S
O416 C429 1.258 . S
O417 Eu399 2.392 . S
O417 C429 1.242 . S
O418 Eu399 2.418 . S
O418 C400 1.244 . S
O419 Eu398 2.488 . S
O419 C407 1.249 . S
O420 Eu398 2.471 . S
O420 C407 1.244 . S
O421 Eu398 2.349 . S
O421 C400 1.265 . S
C422 C423 1.379 . S
C422 C426 1.373 . S
C422 C428 1.505 . S
C423 C422 1.379 . S
C423 C425 1.369 . S
C423 H434 0.930 . S
C424 C426 1.383 . S
C424 C427 1.382 . S
C424 H435 0.930 . S
C425 C423 1.369 . S
C425 C427 1.392 . S
C425 H436 0.930 . S
C426 C422 1.373 . S
C426 C424 1.383 . S
C426 H437 0.931 . S
C427 C424 1.382 . S
C427 C425 1.392 . S
C428 Eu399 2.828 . S
C428 O412 1.249 . S
C428 O413 1.244 . S
C428 C422 1.505 . S
C429 O416 1.258 . S
C429 O417 1.242 . S
H430 C402 0.930 . S
H431 C403 0.930 . S
H432 C404 0.930 . S
H433 C405 0.931 . S
H434 C423 0.930 . S
H435 C424 0.930 . S
H436 C425 0.930 . S
H437 C426 0.931 . S
Eu438 C447 2.828 . S
Eu438 O449 2.392 . S
Eu438 O451 2.418 . S
Eu438 O456 2.373 . S
Eu438 O459 2.488 . S
Eu438 O460 2.471 . S
Eu438 O461 2.349 . S
Eu439 O448 2.373 . S
Eu439 O452 2.488 . S
Eu439 O453 2.471 . S
Eu439 O454 2.349 . S
Eu439 O457 2.392 . S
Eu439 O458 2.418 . S
Eu439 C468 2.828 . S
C440 O458 1.244 . S
C440 O461 1.265 . S
C441 C442 1.379 . S
C441 C445 1.373 . S
C441 C447 1.505 . S
C442 C441 1.379 . S
C442 C444 1.369 . S
C442 H470 0.930 . S
C443 C445 1.383 . S
C443 C446 1.382 . S
C443 H471 0.930 . S
C444 C442 1.369 . S
C444 C446 1.392 . S
C444 H472 0.930 . S
C445 C441 1.373 . S
C445 C443 1.383 . S
C445 H473 0.931 . S
C446 C443 1.382 . S
C446 C444 1.392 . S
C447 Eu438 2.828 . S
C447 C441 1.505 . S
C447 O459 1.249 . S
C447 O460 1.244 . S
O448 Eu439 2.373 . S
O448 C450 1.258 . S
O449 Eu438 2.392 . S
O449 C450 1.242 . S
C450 O448 1.258 . S
C450 O449 1.242 . S
O451 Eu438 2.418 . S
O451 C455 1.244 . S
O452 Eu439 2.488 . S
O452 C468 1.249 . S
O453 Eu439 2.471 . S
O453 C468 1.244 . S
O454 Eu439 2.349 . S
O454 C455 1.265 . S
C455 O451 1.244 . S
C455 O454 1.265 . S
O456 Eu438 2.373 . S
O456 C469 1.258 . S
O457 Eu439 2.392 . S
O457 C469 1.242 . S
O458 Eu439 2.418 . S
O458 C440 1.244 . S
O459 Eu438 2.488 . S
O459 C447 1.249 . S
O460 Eu438 2.471 . S
O460 C447 1.244 . S
O461 Eu438 2.349 . S
O461 C440 1.265 . S
C462 C463 1.379 . S
C462 C466 1.373 . S
C462 C468 1.505 . S
C463 C462 1.379 . S
C463 C465 1.369 . S
C463 H474 0.930 . S
C464 C466 1.383 . S
C464 C467 1.382 . S
C464 H475 0.930 . S
C465 C463 1.369 . S
C465 C467 1.392 . S
C465 H476 0.930 . S
C466 C462 1.373 . S
C466 C464 1.383 . S
C466 H477 0.931 . S
C467 C464 1.382 . S
C467 C465 1.392 . S
C468 Eu439 2.828 . S
C468 O452 1.249 . S
C468 O453 1.244 . S
C468 C462 1.505 . S
C469 O456 1.258 . S
C469 O457 1.242 . S
H470 C442 0.930 . S
H471 C443 0.930 . S
H472 C444 0.930 . S
H473 C445 0.931 . S
H474 C463 0.930 . S
H475 C464 0.930 . S
H476 C465 0.930 . S
H477 C466 0.931 . S
Eu478 C487 2.828 . S
Eu478 O489 2.392 . S
Eu478 O491 2.418 . S
Eu478 O496 2.373 . S
Eu478 O499 2.488 . S
Eu478 O500 2.471 . S
Eu478 O501 2.349 . S
Eu479 O488 2.373 . S
Eu479 O492 2.488 . S
Eu479 O493 2.471 . S
Eu479 O494 2.349 . S
Eu479 O497 2.392 . S
Eu479 O498 2.418 . S
Eu479 C508 2.828 . S
C480 O498 1.244 . S
C480 O501 1.265 . S
C481 C482 1.379 . S
C481 C485 1.373 . S
C481 C487 1.505 . S
C482 C481 1.379 . S
C482 C484 1.369 . S
C482 H510 0.930 . S
C483 C485 1.383 . S
C483 C486 1.382 . S
C483 H511 0.930 . S
C484 C482 1.369 . S
C484 C486 1.392 . S
C484 H512 0.930 . S
C485 C481 1.373 . S
C485 C483 1.383 . S
C485 H513 0.931 . S
C486 C483 1.382 . S
C486 C484 1.392 . S
C487 Eu478 2.828 . S
C487 C481 1.505 . S
C487 O499 1.249 . S
C487 O500 1.244 . S
O488 Eu479 2.373 . S
O488 C490 1.258 . S
O489 Eu478 2.392 . S
O489 C490 1.242 . S
C490 O488 1.258 . S
C490 O489 1.242 . S
O491 Eu478 2.418 . S
O491 C495 1.244 . S
O492 Eu479 2.488 . S
O492 C508 1.249 . S
O493 Eu479 2.471 . S
O493 C508 1.244 . S
O494 Eu479 2.349 . S
O494 C495 1.265 . S
C495 O491 1.244 . S
C495 O494 1.265 . S
O496 Eu478 2.373 . S
O496 C509 1.258 . S
O497 Eu479 2.392 . S
O497 C509 1.242 . S
O498 Eu479 2.418 . S
O498 C480 1.244 . S
O499 Eu478 2.488 . S
O499 C487 1.249 . S
O500 Eu478 2.471 . S
O500 C487 1.244 . S
O501 Eu478 2.349 . S
O501 C480 1.265 . S
C502 C503 1.379 . S
C502 C506 1.373 . S
C502 C508 1.505 . S
C503 C502 1.379 . S
C503 C505 1.369 . S
C503 H514 0.930 . S
C504 C506 1.383 . S
C504 C507 1.382 . S
C504 H515 0.930 . S
C505 C503 1.369 . S
C505 C507 1.392 . S
C505 H516 0.930 . S
C506 C502 1.373 . S
C506 C504 1.383 . S
C506 H517 0.931 . S
C507 C504 1.382 . S
C507 C505 1.392 . S
C508 Eu479 2.828 . S
C508 O492 1.249 . S
C508 O493 1.244 . S
C508 C502 1.505 . S
C509 O496 1.258 . S
C509 O497 1.242 . S
H510 C482 0.930 . S
H511 C483 0.930 . S
H512 C484 0.930 . S
H513 C485 0.931 . S
H514 C503 0.930 . S
H515 C504 0.930 . S
H516 C505 0.930 . S
H517 C506 0.931 . S
Eu518 C527 2.828 . S
Eu518 O529 2.392 . S
Eu518 O531 2.418 . S
Eu518 O536 2.373 . S
Eu518 O539 2.488 . S
Eu518 O540 2.471 . S
Eu518 O541 2.349 . S
Eu519 O528 2.373 . S
Eu519 O532 2.488 . S
Eu519 O533 2.471 . S
Eu519 O534 2.349 . S
Eu519 O537 2.392 . S
Eu519 O538 2.418 . S
Eu519 C548 2.828 . S
C520 O538 1.244 . S
C520 O541 1.265 . S
C521 C522 1.379 . S
C521 C525 1.373 . S
C521 C527 1.505 . S
C522 C521 1.379 . S
C522 C524 1.369 . S
C522 H550 0.930 . S
C523 C525 1.383 . S
C523 C526 1.382 . S
C523 H551 0.930 . S
C524 C522 1.369 . S
C524 C526 1.392 . S
C524 H552 0.930 . S
C525 C521 1.373 . S
C525 C523 1.383 . S
C525 H553 0.931 . S
C526 C523 1.382 . S
C526 C524 1.392 . S
C527 Eu518 2.828 . S
C527 C521 1.505 . S
C527 O539 1.249 . S
C527 O540 1.244 . S
O528 Eu519 2.373 . S
O528 C530 1.258 . S
O529 Eu518 2.392 . S
O529 C530 1.242 . S
C530 O528 1.258 . S
C530 O529 1.242 . S
O531 Eu518 2.418 . S
O531 C535 1.244 . S
O532 Eu519 2.488 . S
O532 C548 1.249 . S
O533 Eu519 2.471 . S
O533 C548 1.244 . S
O534 Eu519 2.349 . S
O534 C535 1.265 . S
C535 O531 1.244 . S
C535 O534 1.265 . S
O536 Eu518 2.373 . S
O536 C549 1.258 . S
O537 Eu519 2.392 . S
O537 C549 1.242 . S
O538 Eu519 2.418 . S
O538 C520 1.244 . S
O539 Eu518 2.488 . S
O539 C527 1.249 . S
O540 Eu518 2.471 . S
O540 C527 1.244 . S
O541 Eu518 2.349 . S
O541 C520 1.265 . S
C542 C543 1.379 . S
C542 C546 1.373 . S
C542 C548 1.505 . S
C543 C542 1.379 . S
C543 C545 1.369 . S
C543 H554 0.930 . S
C544 C546 1.383 . S
C544 C547 1.382 . S
C544 H555 0.930 . S
C545 C543 1.369 . S
C545 C547 1.392 . S
C545 H556 0.930 . S
C546 C542 1.373 . S
C546 C544 1.383 . S
C546 H557 0.931 . S
C547 C544 1.382 . S
C547 C545 1.392 . S
C548 Eu519 2.828 . S
C548 O532 1.249 . S
C548 O533 1.244 . S
C548 C542 1.505 . S
C549 O536 1.258 . S
C549 O537 1.242 . S
H550 C522 0.930 . S
H551 C523 0.930 . S
H552 C524 0.930 . S
H553 C525 0.931 . S
H554 C543 0.930 . S
H555 C544 0.930 . S
H556 C545 0.930 . S
H557 C546 0.931 . S
H558 C564 0.930 . S
H559 C568 0.930 . S
H560 C573 0.929 . S
H561 C571 0.929 . S
H562 C566 0.929 . S
H563 C572 0.929 . S
C564 H558 0.930 . S
C564 C565 1.367 . S
C564 C572 1.378 . S
C565 C564 1.367 . S
C565 C573 1.433 . S
C566 H562 0.929 . S
C566 C568 1.378 . S
C566 C570 1.350 . S
C567 C570 1.463 . S
C567 C572 1.350 . S
C567 N575 1.427 . S
C568 H559 0.930 . S
C568 C566 1.378 . S
C568 C569 1.367 . S
C569 C568 1.367 . S
C569 C571 1.433 . S
C570 C566 1.350 . S
C570 C567 1.463 . S
C570 N574 1.427 . S
C571 H561 0.929 . S
C571 C569 1.433 . S
C571 N574 1.384 . S
C572 H563 0.929 . S
C572 C564 1.378 . S
C572 C567 1.350 . S
C573 H560 0.929 . S
C573 C565 1.433 . S
C573 N575 1.384 . S
N574 C570 1.427 . S
N574 C571 1.384 . S
N575 C567 1.427 . S
N575 C573 1.384 . S
H576 C582 0.930 . S
H577 C586 0.930 . S
H578 C591 0.929 . S
H579 C589 0.929 . S
H580 C584 0.929 . S
H581 C590 0.929 . S
C582 H576 0.930 . S
C582 C583 1.367 . S
C582 C590 1.378 . S
C583 C582 1.367 . S
C583 C591 1.433 . S
C584 H580 0.929 . S
C584 C586 1.378 . S
C584 C588 1.350 . S
C585 C588 1.463 . S
C585 C590 1.350 . S
C585 N593 1.427 . S
C586 H577 0.930 . S
C586 C584 1.378 . S
C586 C587 1.367 . S
C587 C586 1.367 . S
C587 C589 1.433 . S
C588 C584 1.350 . S
C588 C585 1.463 . S
C588 N592 1.427 . S
C589 H579 0.929 . S
C589 C587 1.433 . S
C589 N592 1.384 . S
C590 H581 0.929 . S
C590 C582 1.378 . S
C590 C585 1.350 . S
C591 H578 0.929 . S
C591 C583 1.433 . S
C591 N593 1.384 . S
N592 C588 1.427 . S
N592 C589 1.384 . S
N593 C585 1.427 . S
N593 C591 1.384 . S
H594 C600 0.930 . S
H595 C604 0.927 1_556 S
H596 C609 0.929 . S
H597 C607 0.929 . S
H598 C602 0.929 . S
H599 C608 0.929 . S
C600 H594 0.930 . S
C600 C601 1.367 . S
C600 C608 1.378 . S
C601 C600 1.367 . S
C601 C609 1.433 . S
C602 H598 0.929 . S
C602 C604 1.378 . S
C602 C606 1.350 . S
C603 C606 1.463 . S
C603 C608 1.350 . S
C603 N611 1.427 . S
C604 H595 0.927 1_554 S
C604 C602 1.378 . S
C604 C605 1.367 . S
C605 C604 1.367 . S
C605 C607 1.433 . S
C606 C602 1.350 . S
C606 C603 1.463 . S
C606 N610 1.427 . S
C607 H597 0.929 . S
C607 C605 1.433 . S
C607 N610 1.384 . S
C608 H599 0.929 . S
C608 C600 1.378 . S
C608 C603 1.350 . S
C609 H596 0.929 . S
C609 C601 1.433 . S
C609 N611 1.384 . S
N610 C606 1.427 . S
N610 C607 1.384 . S
N611 C603 1.427 . S
N611 C609 1.384 . S
H612 C618 0.930 . S
H613 C622 0.930 . S
H614 C627 0.929 . S
H615 C625 0.929 . S
H616 C620 0.929 . S
H617 C626 0.929 . S
C618 H612 0.930 . S
C618 C619 1.367 . S
C618 C626 1.378 . S
C619 C618 1.367 . S
C619 C627 1.433 . S
C620 H616 0.929 . S
C620 C622 1.378 . S
C620 C624 1.350 1_554 S
C621 C624 1.463 . S
C621 C626 1.350 . S
C621 N629 1.427 . S
C622 H613 0.930 . S
C622 C620 1.378 . S
C622 C623 1.367 1_554 S
C623 C622 1.367 1_556 S
C623 C625 1.433 . S
C624 C620 1.350 1_556 S
C624 C621 1.463 . S
C624 N628 1.427 . S
C625 H615 0.929 . S
C625 C623 1.433 . S
C625 N628 1.384 . S
C626 H617 0.929 . S
C626 C618 1.378 . S
C626 C621 1.350 . S
C627 H614 0.929 . S
C627 C619 1.433 . S
C627 N629 1.384 . S
N628 C624 1.427 . S
N628 C625 1.384 . S
N629 C621 1.427 . S
N629 C627 1.384 . S
H630 C636 0.930 . S
H631 C640 0.930 . S
H632 C645 0.929 . S
H633 C643 0.929 1_554 S
H634 C638 0.929 . S
H635 C644 0.929 . S
C636 H630 0.930 . S
C636 C637 1.367 . S
C636 C644 1.378 . S
C637 C636 1.367 . S
C637 C645 1.433 . S
C638 H634 0.929 . S
C638 C640 1.378 . S
C638 C642 1.350 . S
C639 C642 1.463 . S
C639 C644 1.350 . S
C639 N647 1.427 . S
C640 H631 0.930 . S
C640 C638 1.378 . S
C640 C641 1.367 . S
C641 C640 1.367 . S
C641 C643 1.433 . S
C642 C638 1.350 . S
C642 C639 1.463 . S
C642 N646 1.427 . S
C643 H633 0.929 1_556 S
C643 C641 1.433 . S
C643 N646 1.384 . S
C644 H635 0.929 . S
C644 C636 1.378 . S
C644 C639 1.350 . S
C645 H632 0.929 . S
C645 C637 1.433 . S
C645 N647 1.384 . S
N646 C642 1.427 . S
N646 C643 1.384 . S
N647 C639 1.427 . S
N647 C645 1.384 . S
H648 C654 0.930 . S
H649 C658 0.947 . S
H650 C663 0.929 . S
H651 C661 0.929 . S
H652 C656 0.929 . S
H653 C662 0.929 . S
C654 H648 0.930 . S
C654 C655 1.367 . S
C654 C662 1.378 . S
C655 C654 1.367 . S
C655 C663 1.433 . S
C656 H652 0.929 . S
C656 C658 1.370 1_556 S
C656 C660 1.350 . S
C657 C660 1.463 . S
C657 C662 1.350 . S
C657 N665 1.427 . S
C658 H649 0.947 . S
C658 C656 1.370 1_554 S
C658 C659 1.360 1_554 S
C659 C658 1.360 1_556 S
C659 C661 1.433 . S
C660 C656 1.350 . S
C660 C657 1.463 . S
C660 N664 1.427 . S
C661 H651 0.929 . S
C661 C659 1.433 . S
C661 N664 1.384 . S
C662 H653 0.929 . S
C662 C654 1.378 . S
C662 C657 1.350 . S
C663 H650 0.929 . S
C663 C655 1.433 . S
C663 N665 1.384 . S
N664 C660 1.427 . S
N664 C661 1.384 . S
N665 C657 1.427 . S
N665 C663 1.384 . S
H666 C672 0.930 . S
H667 C676 0.930 . S
H668 C681 0.929 . S
H669 C679 0.929 . S
H670 C674 0.929 . S
H671 C680 0.929 1_554 S
C672 H666 0.930 . S
C672 C673 1.367 . S
C672 C680 1.378 . S
C673 C672 1.367 . S
C673 C681 1.433 . S
C674 H670 0.929 . S
C674 C676 1.378 . S
C674 C678 1.350 . S
C675 C678 1.463 . S
C675 C680 1.350 . S
C675 N683 1.427 . S
C676 H667 0.930 . S
C676 C674 1.378 . S
C676 C677 1.367 . S
C677 C676 1.367 . S
C677 C679 1.433 1_556 S
C678 C674 1.350 . S
C678 C675 1.463 . S
C678 N682 1.427 . S
C679 H669 0.929 . S
C679 C677 1.433 1_554 S
C679 N682 1.384 1_554 S
C680 H671 0.929 1_556 S
C680 C672 1.378 . S
C680 C675 1.350 . S
C681 H668 0.929 . S
C681 C673 1.433 . S
C681 N683 1.384 . S
N682 C678 1.427 . S
N682 C679 1.384 1_556 S
N683 C675 1.427 . S
N683 C681 1.384 . S
H684 C690 0.930 . S
H685 C694 0.930 . S
H686 C699 0.929 . S
H687 C697 0.929 1_554 S
H688 C692 0.929 . S
H689 C698 0.929 . S
C690 H684 0.930 . S
C690 C691 1.367 . S
C690 C698 1.378 . S
C691 C690 1.367 . S
C691 C699 1.433 . S
C692 H688 0.929 . S
C692 C694 1.378 . S
C692 C696 1.350 . S
C693 C696 1.463 . S
C693 C698 1.350 . S
C693 N701 1.427 . S
C694 H685 0.930 . S
C694 C692 1.378 . S
C694 C695 1.367 . S
C695 C694 1.367 . S
C695 C697 1.433 . S
C696 C692 1.350 . S
C696 C693 1.463 . S
C696 N700 1.427 . S
C697 H687 0.929 1_556 S
C697 C695 1.433 . S
C697 N700 1.384 . S
C698 H689 0.929 . S
C698 C690 1.378 . S
C698 C693 1.350 . S
C699 H686 0.929 . S
C699 C691 1.433 . S
C699 N701 1.384 . S
N700 C696 1.427 . S
N700 C697 1.384 . S
N701 C693 1.427 . S
N701 C699 1.384 . S
H702 C708 0.930 . S
H703 C712 0.930 . S
H704 C717 0.929 . S
H705 C715 0.929 . S
H706 C710 0.929 . S
H707 C716 0.929 . S
C708 H702 0.930 . S
C708 C709 1.367 1_554 S
C708 C716 1.378 . S
C709 C708 1.367 1_556 S
C709 C717 1.433 . S
C710 H706 0.929 . S
C710 C712 1.378 . S
C710 C714 1.350 . S
C711 C714 1.463 . S
C711 C716 1.350 1_556 S
C711 N719 1.427 . S
C712 H703 0.930 . S
C712 C710 1.378 . S
C712 C713 1.363 1_556 S
C713 C712 1.363 1_554 S
C713 C715 1.437 . S
C714 C710 1.350 . S
C714 C711 1.463 . S
C714 N718 1.427 1_556 S
C715 H705 0.929 . S
C715 C713 1.437 . S
C715 N718 1.384 . S
C716 H707 0.929 . S
C716 C708 1.378 . S
C716 C711 1.350 1_554 S
C717 H704 0.929 . S
C717 C709 1.433 . S
C717 N719 1.384 . S
N718 C714 1.427 1_554 S
N718 C715 1.384 . S
N719 C711 1.427 . S
N719 C717 1.384 . S
H720 C726 0.930 . S
H721 C730 0.930 1_556 S
H722 C735 0.929 . S
H723 C733 0.929 . S
H724 C728 0.929 1_556 S
H725 C734 0.929 . S
C726 H720 0.930 . S
C726 C727 1.367 . S
C726 C734 1.378 . S
C727 C726 1.367 . S
C727 C735 1.433 . S
C728 H724 0.929 1_554 S
C728 C730 1.378 . S
C728 C732 1.350 . S
C729 C732 1.463 . S
C729 C734 1.350 . S
C729 N737 1.427 . S
C730 H721 0.930 1_554 S
C730 C728 1.378 . S
C730 C731 1.367 . S
C731 C730 1.367 . S
C731 C733 1.433 . S
C732 C728 1.350 . S
C732 C729 1.463 . S
C732 N736 1.427 . S
C733 H723 0.929 . S
C733 C731 1.433 . S
C733 N736 1.384 . S
C734 H725 0.929 . S
C734 C726 1.378 . S
C734 C729 1.350 . S
C735 H722 0.929 . S
C735 C727 1.433 . S
C735 N737 1.384 . S
N736 C732 1.427 . S
N736 C733 1.384 . S
N737 C729 1.427 . S
N737 C735 1.384 . S
H738 C744 0.930 . S
H739 C748 0.930 . S
H740 C753 0.929 . S
H741 C751 0.929 . S
H742 C746 0.929 . S
H743 C752 0.929 . S
C744 H738 0.930 . S
C744 C745 1.367 . S
C744 C752 1.378 . S
C745 C744 1.367 . S
C745 C753 1.433 . S
C746 H742 0.929 . S
C746 C748 1.378 . S
C746 C750 1.350 . S
C747 C750 1.463 . S
C747 C752 1.350 . S
C747 N755 1.427 . S
C748 H739 0.930 . S
C748 C746 1.378 . S
C748 C749 1.367 . S
C749 C748 1.367 . S
C749 C751 1.433 . S
C750 C746 1.350 . S
C750 C747 1.463 . S
C750 N754 1.427 . S
C751 H741 0.929 . S
C751 C749 1.433 . S
C751 N754 1.384 . S
C752 H743 0.929 . S
C752 C744 1.378 . S
C752 C747 1.350 . S
C753 H740 0.929 . S
C753 C745 1.433 . S
C753 N755 1.384 . S
N754 C750 1.427 . S
N754 C751 1.384 . S
N755 C747 1.427 . S
N755 C753 1.384 . S
H756 C762 0.930 . S
H757 C766 0.930 . S
H758 C771 0.929 . S
H759 C769 0.921 1_556 S
H760 C764 0.929 . S
H761 C770 0.929 . S
C762 H756 0.930 . S
C762 C763 1.367 . S
C762 C770 1.378 . S
C763 C762 1.367 . S
C763 C771 1.433 . S
C764 H760 0.929 . S
C764 C766 1.378 . S
C764 C768 1.350 . S
C765 C768 1.463 . S
C765 C770 1.350 . S
C765 N773 1.427 . S
C766 H757 0.930 . S
C766 C764 1.378 . S
C766 C767 1.367 . S
C767 C766 1.367 . S
C767 C769 1.433 . S
C768 C764 1.350 . S
C768 C765 1.463 . S
C768 N772 1.427 . S
C769 H759 0.921 1_554 S
C769 C767 1.433 . S
C769 N772 1.384 . S
C770 H761 0.929 . S
C770 C762 1.378 . S
C770 C765 1.350 . S
C771 H758 0.929 . S
C771 C763 1.433 . S
C771 N773 1.384 . S
N772 C768 1.427 . S
N772 C769 1.384 . S
N773 C765 1.427 . S
N773 C771 1.384 . S
H774 C780 0.930 . S
H775 C784 0.930 . S
H776 C789 0.929 . S
H777 C787 0.929 . S
H778 C782 0.929 1_655 S
H779 C788 0.929 . S
C780 H774 0.930 . S
C780 C781 1.367 . S
C780 C788 1.378 . S
C781 C780 1.367 . S
C781 C789 1.433 . S
C782 H778 0.929 1_455 S
C782 C784 1.378 . S
C782 C786 1.350 . S
C783 C786 1.463 1_655 S
C783 C788 1.350 . S
C783 N791 1.427 . S
C784 H775 0.930 . S
C784 C782 1.378 . S
C784 C785 1.367 . S
C785 C784 1.367 . S
C785 C787 1.433 . S
C786 C782 1.350 . S
C786 C783 1.463 1_455 S
C786 N790 1.427 . S
C787 H777 0.929 . S
C787 C785 1.433 . S
C787 N790 1.384 . S
C788 H779 0.929 . S
C788 C780 1.378 . S
C788 C783 1.350 . S
C789 H776 0.929 . S
C789 C781 1.433 . S
C789 N791 1.384 . S
N790 C786 1.427 . S
N790 C787 1.384 . S
N791 C783 1.427 . S
N791 C789 1.384 . S
H792 C798 0.930 . S
H793 C802 0.930 . S
H794 C807 0.929 . S
H795 C805 0.929 . S
H796 C800 0.929 . S
H797 C806 0.929 . S
C798 H792 0.930 . S
C798 C799 1.367 . S
C798 C806 1.378 . S
C799 C798 1.367 . S
C799 C807 1.433 . S
C800 H796 0.929 . S
C800 C802 1.378 . S
C800 C804 1.350 . S
C801 C804 1.463 . S
C801 C806 1.350 . S
C801 N809 1.427 . S
C802 H793 0.930 . S
C802 C800 1.378 . S
C802 C803 1.367 . S
C803 C802 1.367 . S
C803 C805 1.433 . S
C804 C800 1.350 . S
C804 C801 1.463 . S
C804 N808 1.427 . S
C805 H795 0.929 . S
C805 C803 1.433 . S
C805 N808 1.384 . S
C806 H797 0.929 . S
C806 C798 1.378 . S
C806 C801 1.350 . S
C807 H794 0.929 . S
C807 C799 1.433 . S
C807 N809 1.384 . S
N808 C804 1.427 . S
N808 C805 1.384 . S
N809 C801 1.427 . S
N809 C807 1.384 . S
H810 C816 0.930 . S
H811 C820 0.930 . S
H812 C825 0.929 . S
H813 C823 0.929 . S
H814 C818 0.929 1_545 S
H815 C824 0.929 . S
C816 H810 0.930 . S
C816 C817 1.367 . S
C816 C824 1.378 . S
C817 C816 1.367 . S
C817 C825 1.433 . S
C818 H814 0.929 1_565 S
C818 C820 1.378 . S
C818 C822 1.350 1_565 S
C819 C822 1.463 . S
C819 C824 1.350 . S
C819 N827 1.427 . S
C820 H811 0.930 . S
C820 C818 1.378 . S
C820 C821 1.367 . S
C821 C820 1.367 . S
C821 C823 1.433 . S
C822 C818 1.350 1_545 S
C822 C819 1.463 . S
C822 N826 1.427 1_545 S
C823 H813 0.929 . S
C823 C821 1.433 . S
C823 N826 1.384 . S
C824 H815 0.929 . S
C824 C816 1.378 . S
C824 C819 1.350 . S
C825 H812 0.929 . S
C825 C817 1.433 . S
C825 N827 1.384 . S
N826 C822 1.427 1_565 S
N826 C823 1.384 . S
N827 C819 1.427 . S
N827 C825 1.384 . S
H828 C834 0.930 . S
H829 C838 0.930 . S
H830 C843 0.929 . S
H831 C841 0.929 . S
H832 C836 0.929 . S
H833 C842 0.929 . S
C834 H828 0.930 . S
C834 C835 1.367 . S
C834 C842 1.378 . S
C835 C834 1.367 . S
C835 C843 1.433 . S
C836 H832 0.929 . S
C836 C838 1.378 . S
C836 C840 1.350 . S
C837 C840 1.463 . S
C837 C842 1.350 . S
C837 N845 1.427 . S
C838 H829 0.930 . S
C838 C836 1.378 . S
C838 C839 1.367 . S
C839 C838 1.367 . S
C839 C841 1.433 . S
C840 C836 1.350 . S
C840 C837 1.463 . S
C840 N844 1.427 . S
C841 H831 0.929 . S
C841 C839 1.433 . S
C841 N844 1.384 . S
C842 H833 0.929 . S
C842 C834 1.378 . S
C842 C837 1.350 . S
C843 H830 0.929 . S
C843 C835 1.433 . S
C843 N845 1.384 . S
N844 C840 1.427 . S
N844 C841 1.384 . S
N845 C837 1.427 . S
N845 C843 1.384 . S
H846 C852 0.930 . S
H847 C856 0.930 . S
H848 C861 0.929 . S
H849 C859 0.929 . S
H850 C854 0.929 . S
H851 C860 0.929 . S
C852 H846 0.930 . S
C852 C853 1.367 . S
C852 C860 1.378 . S
C853 C852 1.367 . S
C853 C861 1.433 . S
C854 H850 0.929 . S
C854 C856 1.378 . S
C854 C858 1.350 . S
C855 C858 1.463 . S
C855 C860 1.350 . S
C855 N863 1.427 . S
C856 H847 0.930 . S
C856 C854 1.378 . S
C856 C857 1.367 . S
C857 C856 1.367 . S
C857 C859 1.433 . S
C858 C854 1.350 . S
C858 C855 1.463 . S
C858 N862 1.427 . S
C859 H849 0.929 . S
C859 C857 1.433 . S
C859 N862 1.384 . S
C860 H851 0.929 . S
C860 C852 1.378 . S
C860 C855 1.350 . S
C861 H848 0.929 . S
C861 C853 1.433 . S
C861 N863 1.384 . S
N862 C858 1.427 . S
N862 C859 1.384 . S
N863 C855 1.427 . S
N863 C861 1.384 . S
H864 C870 0.930 . S
H865 C874 0.930 . S
H866 C879 0.929 . S
H867 C877 0.929 . S
H868 C872 0.929 . S
H869 C878 0.929 . S
C870 H864 0.930 . S
C870 C871 1.367 . S
C870 C878 1.378 . S
C871 C870 1.367 . S
C871 C879 1.433 . S
C872 H868 0.929 . S
C872 C874 1.378 . S
C872 C876 1.350 . S
C873 C876 1.463 . S
C873 C878 1.350 . S
C873 N881 1.427 . S
C874 H865 0.930 . S
C874 C872 1.378 . S
C874 C875 1.367 . S
C875 C874 1.367 . S
C875 C877 1.433 . S
C876 C872 1.350 . S
C876 C873 1.463 . S
C876 N880 1.427 . S
C877 H867 0.929 . S
C877 C875 1.433 . S
C877 N880 1.384 . S
C878 H869 0.929 . S
C878 C870 1.378 . S
C878 C873 1.350 . S
C879 H866 0.929 . S
C879 C871 1.433 . S
C879 N881 1.384 . S
N880 C876 1.427 . S
N880 C877 1.384 . S
N881 C873 1.427 . S
N881 C879 1.384 . S
H882 C888 0.930 . S
H883 C892 0.930 . S
H884 C897 0.929 . S
H885 C895 0.929 . S
H886 C890 0.929 . S
H887 C896 0.929 . S
C888 H882 0.930 . S
C888 C889 1.367 . S
C888 C896 1.378 . S
C889 C888 1.367 . S
C889 C897 1.433 . S
C890 H886 0.929 . S
C890 C892 1.378 . S
C890 C894 1.350 . S
C891 C894 1.463 . S
C891 C896 1.350 . S
C891 N899 1.427 . S
C892 H883 0.930 . S
C892 C890 1.378 . S
C892 C893 1.367 . S
C893 C892 1.367 . S
C893 C895 1.433 . S
C894 C890 1.350 . S
C894 C891 1.463 . S
C894 N898 1.427 . S
C895 H885 0.929 . S
C895 C893 1.433 . S
C895 N898 1.384 . S
C896 H887 0.929 . S
C896 C888 1.378 . S
C896 C891 1.350 . S
C897 H884 0.929 . S
C897 C889 1.433 . S
C897 N899 1.384 . S
N898 C894 1.427 . S
N898 C895 1.384 . S
N899 C891 1.427 . S
N899 C897 1.384 . S
H900 C906 0.930 . S
H901 C910 0.930 . S
H902 C915 0.929 . S
H903 C913 0.929 . S
H904 C908 0.929 . S
H905 C914 0.929 . S
C906 H900 0.930 . S
C906 C907 1.367 . S
C906 C914 1.378 . S
C907 C906 1.367 . S
C907 C915 1.433 . S
C908 H904 0.929 . S
C908 C910 1.378 . S
C908 C912 1.350 . S
C909 C912 1.463 . S
C909 C914 1.350 . S
C909 N917 1.427 . S
C910 H901 0.930 . S
C910 C908 1.378 . S
C910 C911 1.367 . S
C911 C910 1.367 . S
C911 C913 1.433 . S
C912 C908 1.350 . S
C912 C909 1.463 . S
C912 N916 1.427 . S
C913 H903 0.929 . S
C913 C911 1.433 . S
C913 N916 1.384 . S
C914 H905 0.929 . S
C914 C906 1.378 . S
C914 C909 1.350 . S
C915 H902 0.929 . S
C915 C907 1.433 . S
C915 N917 1.384 . S
N916 C912 1.427 . S
N916 C913 1.384 . S
N917 C909 1.427 . S
N917 C915 1.384 . S
H918 C924 0.930 . S
H919 C928 0.930 . S
H920 C933 0.929 . S
H921 C931 0.929 . S
H922 C926 0.929 . S
H923 C932 0.929 . S
C924 H918 0.930 . S
C924 C925 1.367 . S
C924 C932 1.378 . S
C925 C924 1.367 . S
C925 C933 1.433 . S
C926 H922 0.929 . S
C926 C928 1.378 . S
C926 C930 1.350 . S
C927 C930 1.463 . S
C927 C932 1.350 . S
C927 N935 1.427 . S
C928 H919 0.930 . S
C928 C926 1.378 . S
C928 C929 1.367 . S
C929 C928 1.367 . S
C929 C931 1.433 . S
C930 C926 1.350 . S
C930 C927 1.463 . S
C930 N934 1.427 . S
C931 H921 0.929 . S
C931 C929 1.433 . S
C931 N934 1.384 . S
C932 H923 0.929 . S
C932 C924 1.378 . S
C932 C927 1.350 . S
C933 H920 0.929 . S
C933 C925 1.433 . S
C933 N935 1.384 . S
N934 C930 1.427 . S
N934 C931 1.384 . S
N935 C927 1.427 . S
N935 C933 1.384 . S
H936 C942 0.930 . S
H937 C946 0.930 . S
H938 C951 0.929 . S
H939 C949 0.929 . S
H940 C944 0.929 . S
H941 C950 0.929 . S
C942 H936 0.930 . S
C942 C943 1.367 . S
C942 C950 1.378 1_545 S
C943 C942 1.367 . S
C943 C951 1.433 . S
C944 H940 0.929 . S
C944 C946 1.378 . S
C944 C948 1.350 . S
C945 C948 1.463 . S
C945 C950 1.350 . S
C945 N953 1.427 . S
C946 H937 0.930 . S
C946 C944 1.378 . S
C946 C947 1.367 . S
C947 C946 1.367 . S
C947 C949 1.433 . S
C948 C944 1.350 . S
C948 C945 1.463 . S
C948 N952 1.427 . S
C949 H939 0.929 . S
C949 C947 1.433 . S
C949 N952 1.384 . S
C950 H941 0.929 . S
C950 C942 1.378 1_565 S
C950 C945 1.350 . S
C951 H938 0.929 . S
C951 C943 1.433 . S
C951 N953 1.384 1_545 S
N952 C948 1.427 . S
N952 C949 1.384 . S
N953 C945 1.427 . S
N953 C951 1.384 1_565 S
H954 C960 0.930 . S
H955 C964 0.930 . S
H956 C969 0.929 . S
H957 C967 0.929 . S
H958 C962 0.929 . S
H959 C968 0.929 . S
C960 H954 0.930 . S
C960 C961 1.367 1_455 S
C960 C968 1.378 . S
C961 C960 1.367 1_655 S
C961 C969 1.433 . S
C962 H958 0.929 . S
C962 C964 1.378 . S
C962 C966 1.350 . S
C963 C966 1.463 . S
C963 C968 1.350 . S
C963 N971 1.427 . S
C964 H955 0.930 . S
C964 C962 1.378 . S
C964 C965 1.367 . S
C965 C964 1.367 . S
C965 C967 1.433 . S
C966 C962 1.350 . S
C966 C963 1.463 . S
C966 N970 1.427 . S
C967 H957 0.929 . S
C967 C965 1.433 . S
C967 N970 1.384 . S
C968 H959 0.929 . S
C968 C960 1.378 . S
C968 C963 1.350 . S
C969 H956 0.929 . S
C969 C961 1.433 . S
C969 N971 1.384 1_655 S
N970 C966 1.427 . S
N970 C967 1.384 . S
N971 C963 1.427 . S
N971 C969 1.384 1_455 S
H972 C978 0.930 . S
H973 C982 0.930 . S
H974 C987 0.929 . S
H975 C985 0.929 . S
H976 C980 0.929 . S
H977 C986 0.929 . S
C978 H972 0.930 . S
C978 C979 1.367 . S
C978 C986 1.378 . S
C979 C978 1.367 . S
C979 C987 1.433 . S
C980 H976 0.929 . S
C980 C982 1.378 . S
C980 C984 1.350 . S
C981 C984 1.463 . S
C981 C986 1.350 . S
C981 N989 1.427 . S
C982 H973 0.930 . S
C982 C980 1.378 . S
C982 C983 1.367 . S
C983 C982 1.367 . S
C983 C985 1.433 . S
C984 C980 1.350 . S
C984 C981 1.463 . S
C984 N988 1.427 . S
C985 H975 0.929 . S
C985 C983 1.433 . S
C985 N988 1.384 . S
C986 H977 0.929 . S
C986 C978 1.378 . S
C986 C981 1.350 . S
C987 H974 0.929 . S
C987 C979 1.433 . S
C987 N989 1.384 . S
N988 C984 1.427 . S
N988 C985 1.384 . S
N989 C981 1.427 . S
N989 C987 1.384 . S
H990 C996 0.930 . S
H991 C1000 0.930 . S
H992 C1005 0.929 . S
H993 C1003 0.929 . S
H994 C998 0.929 . S
H995 C1004 0.929 . S
C996 H990 0.930 . S
C996 C997 1.367 . S
C996 C1004 1.378 . S
C997 C996 1.367 . S
C997 C1005 1.433 . S
C998 H994 0.929 . S
C998 C1000 1.378 . S
C998 C1002 1.350 . S
C999 C1002 1.463 . S
C999 C1004 1.350 . S
C999 N1007 1.427 . S
C1000 H991 0.930 . S
C1000 C998 1.378 . S
C1000 C1001 1.367 . S
C1001 C1000 1.367 . S
C1001 C1003 1.433 . S
C1002 C998 1.350 . S
C1002 C999 1.463 . S
C1002 N1006 1.427 . S
C1003 H993 0.929 . S
C1003 C1001 1.433 . S
C1003 N1006 1.384 . S
C1004 H995 0.929 . S
C1004 C996 1.378 . S
C1004 C999 1.350 . S
C1005 H992 0.929 . S
C1005 C997 1.433 . S
C1005 N1007 1.384 . S
N1006 C1002 1.427 . S
N1006 C1003 1.384 . S
N1007 C999 1.427 . S
N1007 C1005 1.384 . S
H1008 C1014 0.930 . S
H1009 C1018 0.930 . S
H1010 C1023 0.929 . S
H1011 C1021 0.929 . S
H1012 C1016 0.929 . S
H1013 C1022 0.929 . S
C1014 H1008 0.930 . S
C1014 C1015 1.367 . S
C1014 C1022 1.378 . S
C1015 C1014 1.367 . S
C1015 C1023 1.433 . S
C1016 H1012 0.929 . S
C1016 C1018 1.378 . S
C1016 C1020 1.350 . S
C1017 C1020 1.463 . S
C1017 C1022 1.350 . S
C1017 N1025 1.427 . S
C1018 H1009 0.930 . S
C1018 C1016 1.378 . S
C1018 C1019 1.367 . S
C1019 C1018 1.367 . S
C1019 C1021 1.433 . S
C1020 C1016 1.350 . S
C1020 C1017 1.463 . S
C1020 N1024 1.427 . S
C1021 H1011 0.929 . S
C1021 C1019 1.433 . S
C1021 N1024 1.384 . S
C1022 H1013 0.929 . S
C1022 C1014 1.378 . S
C1022 C1017 1.350 . S
C1023 H1010 0.929 . S
C1023 C1015 1.433 . S
C1023 N1025 1.384 . S
N1024 C1020 1.427 . S
N1024 C1021 1.384 . S
N1025 C1017 1.427 . S
N1025 C1023 1.384 . S
H1026 C1032 0.930 . S
H1027 C1036 0.930 . S
H1028 C1041 0.929 . S
H1029 C1039 0.929 . S
H1030 C1034 0.929 . S
H1031 C1040 0.929 . S
C1032 H1026 0.930 . S
C1032 C1033 1.367 . S
C1032 C1040 1.378 . S
C1033 C1032 1.367 . S
C1033 C1041 1.433 . S
C1034 H1030 0.929 . S
C1034 C1036 1.378 . S
C1034 C1038 1.350 . S
C1035 C1038 1.463 . S
C1035 C1040 1.350 . S
C1035 N1043 1.427 . S
C1036 H1027 0.930 . S
C1036 C1034 1.378 . S
C1036 C1037 1.367 . S
C1037 C1036 1.367 . S
C1037 C1039 1.433 . S
C1038 C1034 1.350 . S
C1038 C1035 1.463 . S
C1038 N1042 1.427 . S
C1039 H1029 0.929 . S
C1039 C1037 1.433 . S
C1039 N1042 1.384 . S
C1040 H1031 0.929 . S
C1040 C1032 1.378 . S
C1040 C1035 1.350 . S
C1041 H1028 0.929 . S
C1041 C1033 1.433 . S
C1041 N1043 1.384 . S
N1042 C1038 1.427 . S
N1042 C1039 1.384 . S
N1043 C1035 1.427 . S
N1043 C1041 1.384 . S
H1044 C1050 0.930 . S
H1045 C1054 0.930 . S
H1046 C1059 0.929 . S
H1047 C1057 0.929 . S
H1048 C1052 0.929 1_565 S
H1049 C1058 0.929 . S
C1050 H1044 0.930 . S
C1050 C1051 1.367 . S
C1050 C1058 1.378 . S
C1051 C1050 1.367 . S
C1051 C1059 1.433 . S
C1052 H1048 0.929 1_545 S
C1052 C1054 1.378 . S
C1052 C1056 1.350 . S
C1053 C1056 1.463 1_565 S
C1053 C1058 1.350 . S
C1053 N1061 1.427 . S
C1054 H1045 0.930 . S
C1054 C1052 1.378 . S
C1054 C1055 1.367 . S
C1055 C1054 1.367 . S
C1055 C1057 1.433 . S
C1056 C1052 1.350 . S
C1056 C1053 1.463 1_545 S
C1056 N1060 1.427 . S
C1057 H1047 0.929 . S
C1057 C1055 1.433 . S
C1057 N1060 1.384 . S
C1058 H1049 0.929 . S
C1058 C1050 1.378 . S
C1058 C1053 1.350 . S
C1059 H1046 0.929 . S
C1059 C1051 1.433 . S
C1059 N1061 1.384 . S
N1060 C1056 1.427 . S
N1060 C1057 1.384 . S
N1061 C1053 1.427 . S
N1061 C1059 1.384 . S
H1062 C1068 0.930 . S
H1063 C1072 0.930 . S
H1064 C1077 0.929 . S
H1065 C1075 0.929 . S
H1066 C1070 0.929 . S
H1067 C1076 0.929 . S
C1068 H1062 0.930 . S
C1068 C1069 1.367 . S
C1068 C1076 1.378 . S
C1069 C1068 1.367 . S
C1069 C1077 1.433 . S
C1070 H1066 0.929 . S
C1070 C1072 1.378 . S
C1070 C1074 1.350 . S
C1071 C1074 1.463 1_455 S
C1071 C1076 1.350 . S
C1071 N1079 1.427 . S
C1072 H1063 0.930 . S
C1072 C1070 1.378 . S
C1072 C1073 1.367 . S
C1073 C1072 1.367 . S
C1073 C1075 1.433 . S
C1074 C1070 1.350 . S
C1074 C1071 1.463 1_655 S
C1074 N1078 1.427 . S
C1075 H1065 0.929 . S
C1075 C1073 1.433 . S
C1075 N1078 1.384 . S
C1076 H1067 0.929 . S
C1076 C1068 1.378 . S
C1076 C1071 1.350 . S
C1077 H1064 0.929 . S
C1077 C1069 1.433 . S
C1077 N1079 1.384 . S
N1078 C1074 1.427 . S
N1078 C1075 1.384 . S
N1079 C1071 1.427 . S
N1079 C1077 1.384 . S
H1080 C1086 0.930 . S
H1081 C1090 0.930 . S
H1082 C1095 0.929 . S
H1083 C1093 0.929 . S
H1084 C1088 0.929 . S
H1085 C1094 0.929 . S
C1086 H1080 0.930 . S
C1086 C1087 1.367 . S
C1086 C1094 1.378 . S
C1087 C1086 1.367 . S
C1087 C1095 1.433 . S
C1088 H1084 0.929 . S
C1088 C1090 1.378 . S
C1088 C1092 1.350 . S
C1089 C1092 1.463 . S
C1089 C1094 1.350 . S
C1089 N1097 1.427 . S
C1090 H1081 0.930 . S
C1090 C1088 1.378 . S
C1090 C1091 1.367 . S
C1091 C1090 1.367 . S
C1091 C1093 1.433 . S
C1092 C1088 1.350 . S
C1092 C1089 1.463 . S
C1092 N1096 1.427 . S
C1093 H1083 0.929 . S
C1093 C1091 1.433 . S
C1093 N1096 1.384 . S
C1094 H1085 0.929 . S
C1094 C1086 1.378 . S
C1094 C1089 1.350 . S
C1095 H1082 0.929 . S
C1095 C1087 1.433 . S
C1095 N1097 1.384 . S
N1096 C1092 1.427 . S
N1096 C1093 1.384 . S
N1097 C1089 1.427 . S
N1097 C1095 1.384 . S
H1098 C1104 0.930 . S
H1099 C1108 0.930 . S
H1100 C1113 0.929 . S
H1101 C1111 0.929 . S
H1102 C1106 0.929 . S
H1103 C1112 0.929 . S
C1104 H1098 0.930 . S
C1104 C1105 1.367 . S
C1104 C1112 1.378 1_455 S
C1105 C1104 1.367 . S
C1105 C1113 1.433 . S
C1106 H1102 0.929 . S
C1106 C1108 1.378 . S
C1106 C1110 1.350 . S
C1107 C1110 1.463 . S
C1107 C1112 1.350 . S
C1107 N1115 1.427 . S
C1108 H1099 0.930 . S
C1108 C1106 1.378 . S
C1108 C1109 1.367 . S
C1109 C1108 1.367 . S
C1109 C1111 1.433 . S
C1110 C1106 1.350 . S
C1110 C1107 1.463 . S
C1110 N1114 1.427 . S
C1111 H1101 0.929 . S
C1111 C1109 1.433 . S
C1111 N1114 1.384 . S
C1112 H1103 0.929 . S
C1112 C1104 1.378 1_655 S
C1112 C1107 1.350 . S
C1113 H1100 0.929 . S
C1113 C1105 1.433 . S
C1113 N1115 1.384 1_455 S
N1114 C1110 1.427 . S
N1114 C1111 1.384 . S
N1115 C1107 1.427 . S
N1115 C1113 1.384 1_655 S
H1116 C1122 0.930 . S
H1117 C1126 0.930 . S
H1118 C1131 0.929 . S
H1119 C1129 0.929 . S
H1120 C1124 0.929 . S
H1121 C1130 0.929 . S
C1122 H1116 0.930 . S
C1122 C1123 1.367 . S
C1122 C1130 1.378 . S
C1123 C1122 1.367 . S
C1123 C1131 1.433 . S
C1124 H1120 0.929 . S
C1124 C1126 1.378 . S
C1124 C1128 1.350 . S
C1125 C1128 1.463 . S
C1125 C1130 1.350 . S
C1125 N1133 1.427 . S
C1126 H1117 0.930 . S
C1126 C1124 1.378 . S
C1126 C1127 1.367 . S
C1127 C1126 1.367 . S
C1127 C1129 1.433 . S
C1128 C1124 1.350 . S
C1128 C1125 1.463 . S
C1128 N1132 1.427 . S
C1129 H1119 0.929 . S
C1129 C1127 1.433 . S
C1129 N1132 1.384 . S
C1130 H1121 0.929 . S
C1130 C1122 1.378 . S
C1130 C1125 1.350 . S
C1131 H1118 0.929 . S
C1131 C1123 1.433 . S
C1131 N1133 1.384 . S
N1132 C1128 1.427 . S
N1132 C1129 1.384 . S
N1133 C1125 1.427 . S
N1133 C1131 1.384 . S
H1134 C1140 0.930 . S
H1135 C1144 0.930 . S
H1136 C1149 0.929 . S
H1137 C1147 0.929 . S
H1138 C1142 0.929 . S
H1139 C1148 0.929 . S
C1140 H1134 0.930 . S
C1140 C1141 1.367 . S
C1140 C1148 1.378 1_565 S
C1141 C1140 1.367 . S
C1141 C1149 1.433 . S
C1142 H1138 0.929 . S
C1142 C1144 1.378 . S
C1142 C1146 1.350 . S
C1143 C1146 1.463 . S
C1143 C1148 1.350 . S
C1143 N1151 1.427 . S
C1144 H1135 0.930 . S
C1144 C1142 1.378 . S
C1144 C1145 1.367 . S
C1145 C1144 1.367 . S
C1145 C1147 1.433 . S
C1146 C1142 1.350 . S
C1146 C1143 1.463 . S
C1146 N1150 1.427 . S
C1147 H1137 0.929 . S
C1147 C1145 1.433 . S
C1147 N1150 1.384 . S
C1148 H1139 0.929 . S
C1148 C1140 1.378 1_545 S
C1148 C1143 1.350 . S
C1149 H1136 0.929 . S
C1149 C1141 1.433 . S
C1149 N1151 1.384 1_565 S
N1150 C1146 1.427 . S
N1150 C1147 1.384 . S
N1151 C1143 1.427 . S
N1151 C1149 1.384 1_545 S
H1152 C1158 0.930 . S
H1153 C1162 0.930 . S
H1154 C1167 0.929 . S
H1155 C1165 0.929 . S
H1156 C1160 0.929 . S
H1157 C1166 0.929 . S
C1158 H1152 0.930 . S
C1158 C1159 1.367 . S
C1158 C1166 1.378 . S
C1159 C1158 1.367 . S
C1159 C1167 1.433 . S
C1160 H1156 0.929 . S
C1160 C1162 1.378 . S
C1160 C1164 1.350 . S
C1161 C1164 1.463 . S
C1161 C1166 1.350 . S
C1161 N1169 1.427 . S
C1162 H1153 0.930 . S
C1162 C1160 1.378 . S
C1162 C1163 1.367 . S
C1163 C1162 1.367 . S
C1163 C1165 1.433 . S
C1164 C1160 1.350 . S
C1164 C1161 1.463 . S
C1164 N1168 1.427 . S
C1165 H1155 0.929 . S
C1165 C1163 1.433 . S
C1165 N1168 1.384 . S
C1166 H1157 0.929 . S
C1166 C1158 1.378 . S
C1166 C1161 1.350 . S
C1167 H1154 0.929 . S
C1167 C1159 1.433 . S
C1167 N1169 1.384 . S
N1168 C1164 1.427 . S
N1168 C1165 1.384 . S
N1169 C1161 1.427 . S
N1169 C1167 1.384 . S
H1170 C1176 0.930 . S
H1171 C1180 0.930 . S
H1172 C1185 0.929 . S
H1173 C1183 0.929 . S
H1174 C1178 0.929 . S
H1175 C1184 0.929 . S
C1176 H1170 0.930 . S
C1176 C1177 1.367 . S
C1176 C1184 1.378 . S
C1177 C1176 1.367 . S
C1177 C1185 1.433 . S
C1178 H1174 0.929 . S
C1178 C1180 1.378 . S
C1178 C1182 1.350 . S
C1179 C1182 1.463 . S
C1179 C1184 1.350 . S
C1179 N1187 1.427 . S
C1180 H1171 0.930 . S
C1180 C1178 1.378 . S
C1180 C1181 1.367 . S
C1181 C1180 1.367 . S
C1181 C1183 1.433 . S
C1182 C1178 1.350 . S
C1182 C1179 1.463 . S
C1182 N1186 1.427 . S
C1183 H1173 0.929 . S
C1183 C1181 1.433 . S
C1183 N1186 1.384 . S
C1184 H1175 0.929 . S
C1184 C1176 1.378 . S
C1184 C1179 1.350 . S
C1185 H1172 0.929 . S
C1185 C1177 1.433 . S
C1185 N1187 1.384 . S
N1186 C1182 1.427 . S
N1186 C1183 1.384 . S
N1187 C1179 1.427 . S
N1187 C1185 1.384 . S
H1188 C1194 0.930 . S
H1189 C1198 0.930 . S
H1190 C1203 0.929 . S
H1191 C1201 0.929 . S
H1192 C1196 0.929 . S
H1193 C1202 0.929 . S
C1194 H1188 0.930 . S
C1194 C1195 1.367 . S
C1194 C1202 1.378 . S
C1195 C1194 1.367 . S
C1195 C1203 1.433 . S
C1196 H1192 0.929 . S
C1196 C1198 1.378 . S
C1196 C1200 1.350 . S
C1197 C1200 1.463 . S
C1197 C1202 1.350 . S
C1197 N1205 1.427 . S
C1198 H1189 0.930 . S
C1198 C1196 1.378 . S
C1198 C1199 1.367 . S
C1199 C1198 1.367 . S
C1199 C1201 1.433 . S
C1200 C1196 1.350 . S
C1200 C1197 1.463 . S
C1200 N1204 1.427 . S
C1201 H1191 0.929 . S
C1201 C1199 1.433 . S
C1201 N1204 1.384 . S
C1202 H1193 0.929 . S
C1202 C1194 1.378 . S
C1202 C1197 1.350 . S
C1203 H1190 0.929 . S
C1203 C1195 1.433 . S
C1203 N1205 1.384 . S
N1204 C1200 1.427 . S
N1204 C1201 1.384 . S
N1205 C1197 1.427 . S
N1205 C1203 1.384 . S
H1206 C1212 0.930 . S
H1207 C1216 0.930 . S
H1208 C1221 0.929 . S
H1209 C1219 0.929 . S
H1210 C1214 0.929 . S
H1211 C1220 0.929 . S
C1212 H1206 0.930 . S
C1212 C1213 1.367 . S
C1212 C1220 1.378 . S
C1213 C1212 1.367 . S
C1213 C1221 1.433 . S
C1214 H1210 0.929 . S
C1214 C1216 1.378 . S
C1214 C1218 1.350 . S
C1215 C1218 1.463 . S
C1215 C1220 1.350 . S
C1215 N1223 1.427 . S
C1216 H1207 0.930 . S
C1216 C1214 1.378 . S
C1216 C1217 1.367 . S
C1217 C1216 1.367 . S
C1217 C1219 1.433 . S
C1218 C1214 1.350 . S
C1218 C1215 1.463 . S
C1218 N1222 1.427 . S
C1219 H1209 0.929 . S
C1219 C1217 1.433 . S
C1219 N1222 1.384 . S
C1220 H1211 0.929 . S
C1220 C1212 1.378 . S
C1220 C1215 1.350 . S
C1221 H1208 0.929 . S
C1221 C1213 1.433 . S
C1221 N1223 1.384 . S
N1222 C1218 1.427 . S
N1222 C1219 1.384 . S
N1223 C1215 1.427 . S
N1223 C1221 1.384 . S
H1224 C1230 0.930 . S
H1225 C1234 0.930 . S
H1226 C1239 0.929 . S
H1227 C1237 0.929 . S
H1228 C1232 0.929 . S
H1229 C1238 0.929 . S
C1230 H1224 0.930 . S
C1230 C1231 1.367 . S
C1230 C1238 1.378 . S
C1231 C1230 1.367 . S
C1231 C1239 1.433 . S
C1232 H1228 0.929 . S
C1232 C1234 1.378 . S
C1232 C1236 1.350 . S
C1233 C1236 1.463 . S
C1233 C1238 1.350 . S
C1233 N1241 1.427 . S
C1234 H1225 0.930 . S
C1234 C1232 1.378 . S
C1234 C1235 1.367 . S
C1235 C1234 1.367 . S
C1235 C1237 1.433 . S
C1236 C1232 1.350 . S
C1236 C1233 1.463 . S
C1236 N1240 1.427 . S
C1237 H1227 0.929 . S
C1237 C1235 1.433 . S
C1237 N1240 1.384 . S
C1238 H1229 0.929 . S
C1238 C1230 1.378 . S
C1238 C1233 1.350 . S
C1239 H1226 0.929 . S
C1239 C1231 1.433 . S
C1239 N1241 1.384 . S
N1240 C1236 1.427 . S
N1240 C1237 1.384 . S
N1241 C1233 1.427 . S
N1241 C1239 1.384 . S
H1242 C1248 0.930 . S
H1243 C1252 0.930 . S
H1244 C1257 0.929 . S
H1245 C1255 0.929 . S
H1246 C1250 0.929 . S
H1247 C1256 0.929 . S
C1248 H1242 0.930 . S
C1248 C1249 1.367 . S
C1248 C1256 1.378 . S
C1249 C1248 1.367 . S
C1249 C1257 1.433 . S
C1250 H1246 0.929 . S
C1250 C1252 1.378 . S
C1250 C1254 1.350 . S
C1251 C1254 1.463 . S
C1251 C1256 1.350 . S
C1251 N1259 1.427 . S
C1252 H1243 0.930 . S
C1252 C1250 1.378 . S
C1252 C1253 1.367 . S
C1253 C1252 1.367 . S
C1253 C1255 1.433 . S
C1254 C1250 1.350 . S
C1254 C1251 1.463 . S
C1254 N1258 1.427 . S
C1255 H1245 0.929 . S
C1255 C1253 1.433 . S
C1255 N1258 1.384 . S
C1256 H1247 0.929 . S
C1256 C1248 1.378 . S
C1256 C1251 1.350 . S
C1257 H1244 0.929 . S
C1257 C1249 1.433 . S
C1257 N1259 1.384 . S
N1258 C1254 1.427 . S
N1258 C1255 1.384 . S
N1259 C1251 1.427 . S
N1259 C1257 1.384 . S
H1260 C1266 0.930 . S
H1261 C1270 0.930 . S
H1262 C1275 0.929 . S
H1263 C1273 0.929 . S
H1264 C1268 0.929 . S
H1265 C1274 0.929 . S
C1266 H1260 0.930 . S
C1266 C1267 1.367 . S
C1266 C1274 1.378 . S
C1267 C1266 1.367 . S
C1267 C1275 1.433 . S
C1268 H1264 0.929 . S
C1268 C1270 1.378 . S
C1268 C1272 1.350 . S
C1269 C1272 1.463 . S
C1269 C1274 1.350 . S
C1269 N1277 1.427 . S
C1270 H1261 0.930 . S
C1270 C1268 1.378 . S
C1270 C1271 1.367 . S
C1271 C1270 1.367 . S
C1271 C1273 1.433 . S
C1272 C1268 1.350 . S
C1272 C1269 1.463 . S
C1272 N1276 1.427 . S
C1273 H1263 0.929 . S
C1273 C1271 1.433 . S
C1273 N1276 1.384 . S
C1274 H1265 0.929 . S
C1274 C1266 1.378 . S
C1274 C1269 1.350 . S
C1275 H1262 0.929 . S
C1275 C1267 1.433 . S
C1275 N1277 1.384 . S
N1276 C1272 1.427 . S
N1276 C1273 1.384 . S
N1277 C1269 1.427 . S
N1277 C1275 1.384 . S
H1278 C1284 0.930 . S
H1279 C1288 0.930 . S
H1280 C1293 0.929 . S
H1281 C1291 0.929 . S
H1282 C1286 0.929 . S
H1283 C1292 0.929 . S
C1284 H1278 0.930 . S
C1284 C1285 1.367 . S
C1284 C1292 1.378 . S
C1285 C1284 1.367 . S
C1285 C1293 1.433 . S
C1286 H1282 0.929 . S
C1286 C1288 1.378 . S
C1286 C1290 1.350 . S
C1287 C1290 1.463 . S
C1287 C1292 1.350 . S
C1287 N1295 1.427 . S
C1288 H1279 0.930 . S
C1288 C1286 1.378 . S
C1288 C1289 1.367 . S
C1289 C1288 1.367 . S
C1289 C1291 1.433 . S
C1290 C1286 1.350 . S
C1290 C1287 1.463 . S
C1290 N1294 1.427 . S
C1291 H1281 0.929 . S
C1291 C1289 1.433 . S
C1291 N1294 1.384 . S
C1292 H1283 0.929 . S
C1292 C1284 1.378 . S
C1292 C1287 1.350 . S
C1293 H1280 0.929 . S
C1293 C1285 1.433 . S
C1293 N1295 1.384 . S
N1294 C1290 1.427 . S
N1294 C1291 1.384 . S
N1295 C1287 1.427 . S
N1295 C1293 1.384 . S
H1296 C1302 0.930 . S
H1297 C1306 0.930 . S
H1298 C1311 0.929 . S
H1299 C1309 0.929 . S
H1300 C1304 0.929 . S
H1301 C1310 0.929 . S
C1302 H1296 0.930 . S
C1302 C1303 1.367 . S
C1302 C1310 1.378 . S
C1303 C1302 1.367 . S
C1303 C1311 1.433 . S
C1304 H1300 0.929 . S
C1304 C1306 1.378 . S
C1304 C1308 1.350 . S
C1305 C1308 1.463 . S
C1305 C1310 1.350 . S
C1305 N1313 1.427 . S
C1306 H1297 0.930 . S
C1306 C1304 1.378 . S
C1306 C1307 1.367 . S
C1307 C1306 1.367 . S
C1307 C1309 1.433 . S
C1308 C1304 1.350 . S
C1308 C1305 1.463 . S
C1308 N1312 1.427 . S
C1309 H1299 0.929 . S
C1309 C1307 1.433 . S
C1309 N1312 1.384 . S
C1310 H1301 0.929 . S
C1310 C1302 1.378 . S
C1310 C1305 1.350 . S
C1311 H1298 0.929 . S
C1311 C1303 1.433 . S
C1311 N1313 1.384 . S
N1312 C1308 1.427 . S
N1312 C1309 1.384 . S
N1313 C1305 1.427 . S
N1313 C1311 1.384 . S
H1314 C1320 0.930 . S
H1315 C1324 0.930 . S
H1316 C1329 0.929 . S
H1317 C1327 0.929 . S
H1318 C1322 0.929 . S
H1319 C1328 0.929 . S
C1320 H1314 0.930 . S
C1320 C1321 1.367 . S
C1320 C1328 1.378 . S
C1321 C1320 1.367 . S
C1321 C1329 1.433 . S
C1322 H1318 0.929 . S
C1322 C1324 1.378 . S
C1322 C1326 1.350 . S
C1323 C1326 1.463 . S
C1323 C1328 1.350 . S
C1323 N1331 1.427 . S
C1324 H1315 0.930 . S
C1324 C1322 1.378 . S
C1324 C1325 1.367 . S
C1325 C1324 1.367 . S
C1325 C1327 1.433 . S
C1326 C1322 1.350 . S
C1326 C1323 1.463 . S
C1326 N1330 1.427 . S
C1327 H1317 0.929 . S
C1327 C1325 1.433 . S
C1327 N1330 1.384 . S
C1328 H1319 0.929 . S
C1328 C1320 1.378 . S
C1328 C1323 1.350 . S
C1329 H1316 0.929 . S
C1329 C1321 1.433 . S
C1329 N1331 1.384 . S
N1330 C1326 1.427 . S
N1330 C1327 1.384 . S
N1331 C1323 1.427 . S
N1331 C1329 1.384 . S
H1332 C1338 0.930 . S
H1333 C1342 0.930 . S
H1334 C1347 0.929 . S
H1335 C1345 0.929 . S
H1336 C1340 0.929 . S
H1337 C1346 0.929 . S
C1338 H1332 0.930 . S
C1338 C1339 1.367 . S
C1338 C1346 1.378 . S
C1339 C1338 1.367 . S
C1339 C1347 1.433 . S
C1340 H1336 0.929 . S
C1340 C1342 1.378 . S
C1340 C1344 1.350 . S
C1341 C1344 1.463 . S
C1341 C1346 1.350 . S
C1341 N1349 1.427 . S
C1342 H1333 0.930 . S
C1342 C1340 1.378 . S
C1342 C1343 1.367 . S
C1343 C1342 1.367 . S
C1343 C1345 1.433 . S
C1344 C1340 1.350 . S
C1344 C1341 1.463 . S
C1344 N1348 1.427 . S
C1345 H1335 0.929 . S
C1345 C1343 1.433 . S
C1345 N1348 1.384 . S
C1346 H1337 0.929 . S
C1346 C1338 1.378 . S
C1346 C1341 1.350 . S
C1347 H1334 0.929 . S
C1347 C1339 1.433 . S
C1347 N1349 1.384 . S
N1348 C1344 1.427 . S
N1348 C1345 1.384 . S
N1349 C1341 1.427 . S
N1349 C1347 1.384 . S
H1350 C1356 0.930 . S
H1351 C1360 0.930 . S
H1352 C1365 0.929 . S
H1353 C1363 0.929 . S
H1354 C1358 0.929 . S
H1355 C1364 0.929 . S
C1356 H1350 0.930 . S
C1356 C1357 1.367 . S
C1356 C1364 1.378 . S
C1357 C1356 1.367 . S
C1357 C1365 1.433 . S
C1358 H1354 0.929 . S
C1358 C1360 1.378 . S
C1358 C1362 1.350 . S
C1359 C1362 1.463 . S
C1359 C1364 1.350 . S
C1359 N1367 1.427 . S
C1360 H1351 0.930 . S
C1360 C1358 1.378 . S
C1360 C1361 1.367 . S
C1361 C1360 1.367 . S
C1361 C1363 1.433 . S
C1362 C1358 1.350 . S
C1362 C1359 1.463 . S
C1362 N1366 1.427 . S
C1363 H1353 0.929 . S
C1363 C1361 1.433 . S
C1363 N1366 1.384 . S
C1364 H1355 0.929 . S
C1364 C1356 1.378 . S
C1364 C1359 1.350 . S
C1365 H1352 0.929 . S
C1365 C1357 1.433 . S
C1365 N1367 1.384 . S
N1366 C1362 1.427 . S
N1366 C1363 1.384 . S
N1367 C1359 1.427 . S
N1367 C1365 1.384 . S
H1368 C1374 0.930 . S
H1369 C1378 0.930 . S
H1370 C1383 0.929 . S
H1371 C1381 0.929 . S
H1372 C1376 0.929 . S
H1373 C1382 0.929 . S
C1374 H1368 0.930 . S
C1374 C1375 1.367 . S
C1374 C1382 1.378 . S
C1375 C1374 1.367 . S
C1375 C1383 1.433 . S
C1376 H1372 0.929 . S
C1376 C1378 1.378 . S
C1376 C1380 1.350 . S
C1377 C1380 1.463 . S
C1377 C1382 1.350 . S
C1377 N1385 1.427 . S
C1378 H1369 0.930 . S
C1378 C1376 1.378 . S
C1378 C1379 1.367 . S
C1379 C1378 1.367 . S
C1379 C1381 1.433 . S
C1380 C1376 1.350 . S
C1380 C1377 1.463 . S
C1380 N1384 1.427 . S
C1381 H1371 0.929 . S
C1381 C1379 1.433 . S
C1381 N1384 1.384 . S
C1382 H1373 0.929 . S
C1382 C1374 1.378 . S
C1382 C1377 1.350 . S
C1383 H1370 0.929 . S
C1383 C1375 1.433 . S
C1383 N1385 1.384 . S
N1384 C1380 1.427 . S
N1384 C1381 1.384 . S
N1385 C1377 1.427 . S
N1385 C1383 1.384 . S
H1386 C1392 0.930 . S
H1387 C1396 0.930 . S
H1388 C1401 0.929 . S
H1389 C1399 0.929 . S
H1390 C1394 0.929 . S
H1391 C1400 0.929 . S
C1392 H1386 0.930 . S
C1392 C1393 1.367 . S
C1392 C1400 1.378 . S
C1393 C1392 1.367 . S
C1393 C1401 1.433 . S
C1394 H1390 0.929 . S
C1394 C1396 1.378 . S
C1394 C1398 1.350 . S
C1395 C1398 1.463 . S
C1395 C1400 1.350 . S
C1395 N1403 1.427 . S
C1396 H1387 0.930 . S
C1396 C1394 1.378 . S
C1396 C1397 1.367 . S
C1397 C1396 1.367 . S
C1397 C1399 1.433 . S
C1398 C1394 1.350 . S
C1398 C1395 1.463 . S
C1398 N1402 1.427 . S
C1399 H1389 0.929 . S
C1399 C1397 1.433 . S
C1399 N1402 1.384 . S
C1400 H1391 0.929 . S
C1400 C1392 1.378 . S
C1400 C1395 1.350 . S
C1401 H1388 0.929 . S
C1401 C1393 1.433 . S
C1401 N1403 1.384 . S
N1402 C1398 1.427 . S
N1402 C1399 1.384 . S
N1403 C1395 1.427 . S
N1403 C1401 1.384 . S
H1404 C1410 0.930 . S
H1405 C1414 0.930 . S
H1406 C1419 0.929 . S
H1407 C1417 0.929 . S
H1408 C1412 0.929 . S
H1409 C1418 0.929 . S
C1410 H1404 0.930 . S
C1410 C1411 1.367 . S
C1410 C1418 1.378 . S
C1411 C1410 1.367 . S
C1411 C1419 1.433 . S
C1412 H1408 0.929 . S
C1412 C1414 1.378 . S
C1412 C1416 1.350 . S
C1413 C1416 1.463 . S
C1413 C1418 1.350 . S
C1413 N1421 1.427 . S
C1414 H1405 0.930 . S
C1414 C1412 1.378 . S
C1414 C1415 1.367 . S
C1415 C1414 1.367 . S
C1415 C1417 1.433 . S
C1416 C1412 1.350 . S
C1416 C1413 1.463 . S
C1416 N1420 1.427 . S
C1417 H1407 0.929 . S
C1417 C1415 1.433 . S
C1417 N1420 1.384 . S
C1418 H1409 0.929 . S
C1418 C1410 1.378 . S
C1418 C1413 1.350 . S
C1419 H1406 0.929 . S
C1419 C1411 1.433 . S
C1419 N1421 1.384 . S
N1420 C1416 1.427 . S
N1420 C1417 1.384 . S
N1421 C1413 1.427 . S
N1421 C1419 1.384 . S
H1422 C1428 0.930 . S
H1423 C1432 0.930 . S
H1424 C1437 0.929 . S
H1425 C1435 0.929 . S
H1426 C1430 0.929 . S
H1427 C1436 0.929 . S
C1428 H1422 0.930 . S
C1428 C1429 1.367 . S
C1428 C1436 1.378 . S
C1429 C1428 1.367 . S
C1429 C1437 1.433 . S
C1430 H1426 0.929 . S
C1430 C1432 1.378 . S
C1430 C1434 1.350 . S
C1431 C1434 1.463 . S
C1431 C1436 1.350 . S
C1431 N1439 1.427 . S
C1432 H1423 0.930 . S
C1432 C1430 1.378 . S
C1432 C1433 1.367 . S
C1433 C1432 1.367 . S
C1433 C1435 1.433 . S
C1434 C1430 1.350 . S
C1434 C1431 1.463 . S
C1434 N1438 1.427 . S
C1435 H1425 0.929 . S
C1435 C1433 1.433 . S
C1435 N1438 1.384 . S
C1436 H1427 0.929 . S
C1436 C1428 1.378 . S
C1436 C1431 1.350 . S
C1437 H1424 0.929 . S
C1437 C1429 1.433 . S
C1437 N1439 1.384 . S
N1438 C1434 1.427 . S
N1438 C1435 1.384 . S
N1439 C1431 1.427 . S
N1439 C1437 1.384 . S
H1440 C1446 0.930 . S
H1441 C1450 0.930 . S
H1442 C1455 0.929 . S
H1443 C1453 0.929 . S
H1444 C1448 0.929 . S
H1445 C1454 0.929 . S
C1446 H1440 0.930 . S
C1446 C1447 1.367 . S
C1446 C1454 1.378 . S
C1447 C1446 1.367 . S
C1447 C1455 1.433 . S
C1448 H1444 0.929 . S
C1448 C1450 1.378 . S
C1448 C1452 1.350 . S
C1449 C1452 1.463 . S
C1449 C1454 1.350 . S
C1449 N1457 1.427 . S
C1450 H1441 0.930 . S
C1450 C1448 1.378 . S
C1450 C1451 1.367 . S
C1451 C1450 1.367 . S
C1451 C1453 1.433 . S
C1452 C1448 1.350 . S
C1452 C1449 1.463 . S
C1452 N1456 1.427 . S
C1453 H1443 0.929 . S
C1453 C1451 1.433 . S
C1453 N1456 1.384 . S
C1454 H1445 0.929 . S
C1454 C1446 1.378 . S
C1454 C1449 1.350 . S
C1455 H1442 0.929 . S
C1455 C1447 1.433 . S
C1455 N1457 1.384 . S
N1456 C1452 1.427 . S
N1456 C1453 1.384 . S
N1457 C1449 1.427 . S
N1457 C1455 1.384 . S
H1458 C1464 0.930 . S
H1459 C1468 0.930 . S
H1460 C1473 0.929 . S
H1461 C1471 0.929 . S
H1462 C1466 0.929 . S
H1463 C1472 0.929 . S
C1464 H1458 0.930 . S
C1464 C1465 1.367 . S
C1464 C1472 1.378 . S
C1465 C1464 1.367 . S
C1465 C1473 1.433 . S
C1466 H1462 0.929 . S
C1466 C1468 1.378 . S
C1466 C1470 1.350 . S
C1467 C1470 1.463 . S
C1467 C1472 1.350 . S
C1467 N1475 1.427 . S
C1468 H1459 0.930 . S
C1468 C1466 1.378 . S
C1468 C1469 1.367 . S
C1469 C1468 1.367 . S
C1469 C1471 1.433 . S
C1470 C1466 1.350 . S
C1470 C1467 1.463 . S
C1470 N1474 1.427 . S
C1471 H1461 0.929 . S
C1471 C1469 1.433 . S
C1471 N1474 1.384 . S
C1472 H1463 0.929 . S
C1472 C1464 1.378 . S
C1472 C1467 1.350 . S
C1473 H1460 0.929 . S
C1473 C1465 1.433 . S
C1473 N1475 1.384 . S
N1474 C1470 1.427 . S
N1474 C1471 1.384 . S
N1475 C1467 1.427 . S
N1475 C1473 1.384 . S
H1476 C1482 0.930 . S
H1477 C1486 0.930 . S
H1478 C1491 0.929 . S
H1479 C1489 0.929 . S
H1480 C1484 0.929 . S
H1481 C1490 0.929 . S
C1482 H1476 0.930 . S
C1482 C1483 1.367 . S
C1482 C1490 1.378 . S
C1483 C1482 1.367 . S
C1483 C1491 1.433 . S
C1484 H1480 0.929 . S
C1484 C1486 1.378 . S
C1484 C1488 1.350 . S
C1485 C1488 1.463 . S
C1485 C1490 1.350 . S
C1485 N1493 1.427 . S
C1486 H1477 0.930 . S
C1486 C1484 1.378 . S
C1486 C1487 1.367 . S
C1487 C1486 1.367 . S
C1487 C1489 1.433 . S
C1488 C1484 1.350 . S
C1488 C1485 1.463 . S
C1488 N1492 1.427 . S
C1489 H1479 0.929 . S
C1489 C1487 1.433 . S
C1489 N1492 1.384 . S
C1490 H1481 0.929 . S
C1490 C1482 1.378 . S
C1490 C1485 1.350 . S
C1491 H1478 0.929 . S
C1491 C1483 1.433 . S
C1491 N1493 1.384 . S
N1492 C1488 1.427 . S
N1492 C1489 1.384 . S
N1493 C1485 1.427 . S
N1493 C1491 1.384 . S
H1494 C1500 0.930 . S
H1495 C1504 0.930 . S
H1496 C1509 0.929 . S
H1497 C1507 0.929 . S
H1498 C1502 0.929 . S
H1499 C1508 0.929 . S
C1500 H1494 0.930 . S
C1500 C1501 1.367 . S
C1500 C1508 1.378 . S
C1501 C1500 1.367 . S
C1501 C1509 1.433 . S
C1502 H1498 0.929 . S
C1502 C1504 1.378 . S
C1502 C1506 1.350 . S
C1503 C1506 1.463 . S
C1503 C1508 1.350 . S
C1503 N1511 1.427 . S
C1504 H1495 0.930 . S
C1504 C1502 1.378 . S
C1504 C1505 1.367 . S
C1505 C1504 1.367 . S
C1505 C1507 1.433 . S
C1506 C1502 1.350 . S
C1506 C1503 1.463 . S
C1506 N1510 1.427 . S
C1507 H1497 0.929 . S
C1507 C1505 1.433 . S
C1507 N1510 1.384 . S
C1508 H1499 0.929 . S
C1508 C1500 1.378 . S
C1508 C1503 1.350 . S
C1509 H1496 0.929 . S
C1509 C1501 1.433 . S
C1509 N1511 1.384 . S
N1510 C1506 1.427 . S
N1510 C1507 1.384 . S
N1511 C1503 1.427 . S
N1511 C1509 1.384 . S
H1512 C1518 0.930 . S
H1513 C1522 0.930 . S
H1514 C1527 0.929 . S
H1515 C1525 0.929 . S
H1516 C1520 0.929 . S
H1517 C1526 0.929 . S
C1518 H1512 0.930 . S
C1518 C1519 1.367 . S
C1518 C1526 1.378 . S
C1519 C1518 1.367 . S
C1519 C1527 1.433 . S
C1520 H1516 0.929 . S
C1520 C1522 1.378 . S
C1520 C1524 1.350 . S
C1521 C1524 1.463 . S
C1521 C1526 1.350 . S
C1521 N1529 1.427 . S
C1522 H1513 0.930 . S
C1522 C1520 1.378 . S
C1522 C1523 1.367 . S
C1523 C1522 1.367 . S
C1523 C1525 1.433 . S
C1524 C1520 1.350 . S
C1524 C1521 1.463 . S
C1524 N1528 1.427 . S
C1525 H1515 0.929 . S
C1525 C1523 1.433 . S
C1525 N1528 1.384 . S
C1526 H1517 0.929 . S
C1526 C1518 1.378 . S
C1526 C1521 1.350 . S
C1527 H1514 0.929 . S
C1527 C1519 1.433 . S
C1527 N1529 1.384 . S
N1528 C1524 1.427 . S
N1528 C1525 1.384 . S
N1529 C1521 1.427 . S
N1529 C1527 1.384 . S
C565 C147 1.667 . S
C569 C210 1.677 . S
C583 C158 1.791 . S
C587 C250 1.789 . S
C601 C136 1.593 . S
C605 C280 1.582 . S
C619 C125 1.475 . S
C623 C240 1.453 1_556 S
C641 C290 1.502 . S
C637 C103 1.505 . S
C655 C114 1.356 . S
C659 C200 1.354 1_556 S
C677 C229 1.673 . S
C673 C131 1.657 . S
C695 C269 1.679 . S
C691 C109 1.669 . S
C709 C120 1.656 . S
C713 C295 1.679 . S
C727 C153 1.498 . S
C731 C255 1.504 . S
C745 C164 1.458 . S
C749 C309 1.464 . S
C767 C215 1.473 . S
C763 C142 1.452 . S
C785 C330 1.676 . S
C781 C15 1.666 . S
C799 C26 1.791 . S
C803 C370 1.789 . S
C817 C4 1.600 . S
C821 C400 1.589 . S
C835 C191 1.480 . S
C839 C360 1.453 . S
C853 C169 1.505 . S
C857 C410 1.502 . S
C871 C180 1.364 . S
C875 C320 1.357 . S
C889 C197 1.652 . S
C893 C349 1.671 . S
C907 C175 1.668 . S
C911 C389 1.678 . S
C929 C415 1.671 . S
C925 C186 1.653 . S
C943 C21 1.502 . S
C947 C375 1.505 . S
C965 C429 1.462 . S
C961 C32 1.456 . S
C979 C10 1.453 . S
C983 C335 1.474 . S
C1001 C450 1.676 . S
C997 C81 1.666 . S
C1015 C92 1.792 . S
C1019 C490 1.789 . S
C1037 C520 1.589 . S
C1033 C70 1.602 . S
C1055 C480 1.461 . S
C1051 C59 1.479 . S
C1073 C530 1.502 . S
C1069 C37 1.505 . S
C1087 C48 1.355 . S
C1091 C440 1.352 . S
C1105 C65 1.656 . S
C1109 C469 1.673 . S
C1123 C43 1.667 . S
C1127 C509 1.677 . S
C1145 C535 1.672 . S
C1141 C54 1.654 . S
C1159 C87 1.500 . S
C1163 C495 1.504 . S
C1177 C98 1.455 . S
C1181 C549 1.461 . S
C1195 C76 1.451 . S
C1199 C455 1.473 . S
C1213 C170 1.490 . S
C1217 C227 1.462 . S
C1235 C267 1.902 . S
C1231 C181 1.938 . S
C1249 C192 1.561 . S
C1253 C286 1.572 . S
C1267 C71 1.774 . S
C1271 C246 1.777 . S
C1285 C82 1.678 . S
C1289 C307 1.659 . S
C1307 C206 1.314 . S
C1303 C93 1.301 . S
C1321 C38 1.496 . S
C1325 C347 1.474 . S
C1339 C49 1.936 . S
C1343 C387 1.899 . S
C1357 C60 1.562 . S
C1361 C406 1.574 . S
C1375 C137 1.774 . S
C1379 C366 1.777 . S
C1397 C427 1.660 . S
C1393 C148 1.679 . S
C1411 C159 1.301 . S
C1415 C326 1.314 . S
C1429 C104 1.493 . S
C1433 C467 1.466 . S
C1447 C115 1.939 . S
C1451 C507 1.903 . S
C1469 C526 1.572 . S
C1465 C126 1.553 . S
C1483 C5 1.780 . S
C1487 C486 1.776 . S
C1501 C16 1.681 . S
C1505 C547 1.663 . S
C1519 C27 1.301 . S
C1523 C446 1.315 . S
