# Generated by pormake.
# Topology anh, (6,3)-cn, num edge types: 1
# Building blocks:
#     Node 0, Type 0, BuildingBlock: CUKXOW_clean_sbu_0, # of connection points: 6
#     Node 1, Type 0, BuildingBlock: CUKXOW_clean_sbu_0, # of connection points: 6
#     Node 2, Type 0, BuildingBlock: CUKXOW_clean_sbu_0, # of connection points: 6
#     Node 3, Type 1, BuildingBlock: BELTOD_clean_linker_0, # of connection points: 3
#     Node 4, Type 1, BuildingBlock: BELTOD_clean_linker_0, # of connection points: 3
#     Node 5, Type 1, BuildingBlock: BELTOD_clean_linker_0, # of connection points: 3
#     Node 6, Type 1, BuildingBlock: BELTOD_clean_linker_0, # of connection points: 3
#     Node 7, Type 1, BuildingBlock: BELTOD_clean_linker_0, # of connection points: 3
#     Node 8, Type 1, BuildingBlock: BELTOD_clean_linker_0, # of connection points: 3
#     Edge 9, Type (0, 1), BuildingBlock: CIFDUS_clean_linker_0, # of connection points: 2
#     Edge 10, Type (0, 1), BuildingBlock: CIFDUS_clean_linker_0, # of connection points: 2
#     Edge 11, Type (0, 1), BuildingBlock: CIFDUS_clean_linker_0, # of connection points: 2
#     Edge 12, Type (0, 1), BuildingBlock: CIFDUS_clean_linker_0, # of connection points: 2
#     Edge 13, Type (0, 1), BuildingBlock: CIFDUS_clean_linker_0, # of connection points: 2
#     Edge 14, Type (0, 1), BuildingBlock: CIFDUS_clean_linker_0, # of connection points: 2
#     Edge 15, Type (0, 1), BuildingBlock: CIFDUS_clean_linker_0, # of connection points: 2
#     Edge 16, Type (0, 1), BuildingBlock: CIFDUS_clean_linker_0, # of connection points: 2
#     Edge 17, Type (0, 1), BuildingBlock: CIFDUS_clean_linker_0, # of connection points: 2
#     Edge 18, Type (0, 1), BuildingBlock: CIFDUS_clean_linker_0, # of connection points: 2
#     Edge 19, Type (0, 1), BuildingBlock: CIFDUS_clean_linker_0, # of connection points: 2
#     Edge 20, Type (0, 1), BuildingBlock: CIFDUS_clean_linker_0, # of connection points: 2
#     Edge 21, Type (0, 1), BuildingBlock: CIFDUS_clean_linker_0, # of connection points: 2
#     Edge 22, Type (0, 1), BuildingBlock: CIFDUS_clean_linker_0, # of connection points: 2
#     Edge 23, Type (0, 1), BuildingBlock: CIFDUS_clean_linker_0, # of connection points: 2
#     Edge 24, Type (0, 1), BuildingBlock: CIFDUS_clean_linker_0, # of connection points: 2
#     Edge 25, Type (0, 1), BuildingBlock: CIFDUS_clean_linker_0, # of connection points: 2
#     Edge 26, Type (0, 1), BuildingBlock: CIFDUS_clean_linker_0, # of connection points: 2
# Relax obj value: 0.124
# Max RMSD: 0.188
# Mean RMSD: 0.131
data_MOF--net-anh--node1-CUKXOW_clean_sbu_0--node2-BELTOD_clean_linker_0--edge1-CIFDUS_clean_linker_0
_symmetry_space_group_name_H-M    P1
_symmetry_Int_Tables_number       1
_symmetry_cell_setting            triclinic
loop_
_symmetry_equiv_pos_as_xyz
'x, y, z'
_cell_length_a     29.484759
_cell_length_b     28.452228
_cell_length_c     52.962518
_cell_angle_alpha  95.431042
_cell_angle_beta   90.153849
_cell_angle_gamma 114.80337
loop_
_atom_site_label
_atom_site_type_symbol
_atom_site_fract_x
_atom_site_fract_y
_atom_site_fract_z
_atom_type_partial_charge
Tb0 Tb 0.06706 0.6001 0.15626 0.0
C1 C 0.0215 0.5395 0.20337 0.0
Tb2 Tb 0.99335 0.4779 0.14733 0.0
O3 O 1.00837 0.62922 0.15506 0.0
O4 O 0.98971 0.55097 0.15203 0.0
O5 O 0.05566 0.58213 0.19504 0.0
C6 C 0.91428 0.38638 0.14654 0.0
O7 O 0.99104 0.49782 0.18826 0.0
C8 C 0.09079 0.49694 0.14899 0.0
C9 C 0.04371 0.53777 0.10092 0.0
O10 O 0.9572 0.39937 0.1582 0.0
O11 O 0.91575 0.42504 0.13465 0.0
O12 O 0.05422 0.45073 0.14491 0.0
O13 O 0.06972 0.52741 0.15177 0.0
O14 O 1.00466 0.49688 0.10804 0.0
O15 O 0.07453 0.57753 0.11684 0.0
C16 C 0.15422 0.68284 0.16437 0.0
O17 O 0.11922 0.67823 0.148 0.0
O18 O 0.13944 0.64164 0.1764 0.0
C19 C 0.97062 0.58341 0.15208 0.0
Tb20 Tb 0.48813 0.00315 0.50732 0.0
C21 C 0.54066 0.04416 0.45587 0.0
Tb22 Tb 0.5942 0.0859 0.50939 0.0
O23 O 0.45953 0.05851 0.52341 0.0
O24 O 0.52264 0.0833 0.50155 0.0
O25 O 0.50322 0.00769 0.46662 0.0
C26 C 0.68007 0.17138 0.51647 0.0
O27 O 0.57827 0.0823 0.46928 0.0
C28 C 0.58398 0.98908 0.50102 0.0
C29 C 0.54363 0.04783 0.56046 0.0
O30 O 0.67357 0.1252 0.52123 0.0
O31 O 0.63812 0.16949 0.50782 0.0
O32 O 0.61897 0.02824 0.4918 0.0
O33 O 0.55932 0.00608 0.51558 0.0
O34 O 0.57668 0.08707 0.54932 0.0
O35 O 0.50783 0.00683 0.54743 0.0
C36 C 0.41218 0.90925 0.49846 0.0
O37 O 0.40752 0.95198 0.50547 0.0
O38 O 0.45903 0.91975 0.49633 0.0
C39 C 0.49594 0.09871 0.51559 0.0
Tb40 Tb 0.48193 0.47768 0.82483 0.0
C41 C 0.54002 0.49648 0.87794 0.0
Tb42 Tb 0.59833 0.52796 0.82859 0.0
O43 O 0.47718 0.40188 0.83157 0.0
O44 O 0.54007 0.45397 0.815 0.0
O45 O 0.49908 0.49411 0.86599 0.0
C46 C 0.69473 0.5548 0.8234 0.0
O47 O 0.5812 0.50183 0.86597 0.0
C48 C 0.5622 0.59809 0.8401 0.0
C49 C 0.5424 0.52017 0.77676 0.0
O50 O 0.66611 0.51713 0.83614 0.0
O51 O 0.66911 0.57671 0.8138 0.0
O52 O 0.6093 0.60845 0.8418 0.0
O53 O 0.54008 0.55051 0.83318 0.0
O54 O 0.58243 0.51969 0.78795 0.0
O55 O 0.50047 0.51104 0.7887 0.0
C56 C 0.38552 0.45361 0.81882 0.0
O57 O 0.41264 0.44552 0.80123 0.0
O58 O 0.41281 0.47636 0.83944 0.0
C59 C 0.52206 0.41135 0.82473 0.0
P60 P 0.5995 0.97658 0.22367 0.0
H61 H 0.56224 0.87748 0.19161 0.0
H62 H 0.47783 0.81734 0.17622 0.0
H63 H 0.42386 0.93252 0.20185 0.0
H64 H 0.509 0.99319 0.21683 0.0
H65 H 0.67706 0.07033 0.2495 0.0
H66 H 0.7387 0.14927 0.23417 0.0
H67 H 0.66806 0.09851 0.15894 0.0
H68 H 0.60555 0.01923 0.17458 0.0
H69 H 0.58603 0.90898 0.26366 0.0
H70 H 0.57374 0.05227 0.2547 0.0
O71 O 0.63506 0.94378 0.22132 0.0
H72 H 0.56155 0.91283 0.30757 0.0
H73 H 0.54854 0.05615 0.2986 0.0
C74 C 0.54169 0.93955 0.20561 0.0
C75 C 0.53264 0.89048 0.19328 0.0
C76 C 0.48428 0.85597 0.18462 0.0
C77 C 0.44415 0.8699 0.1883 0.0
C78 C 0.45407 0.92076 0.19872 0.0
C79 C 0.50265 0.95539 0.20734 0.0
C80 C 0.63613 0.03943 0.21332 0.0
C81 C 0.6737 0.07683 0.2299 0.0
C82 C 0.70923 0.12172 0.22105 0.0
C83 C 0.70837 0.12977 0.19531 0.0
C84 C 0.6693 0.09345 0.1789 0.0
C85 C 0.63361 0.04824 0.18783 0.0
C86 C 0.58326 0.98121 0.25625 0.0
C87 C 0.57839 0.94149 0.27123 0.0
C88 C 0.56376 0.94339 0.29623 0.0
C89 C 0.55329 0.98492 0.30662 0.0
C90 C 0.55711 0.02409 0.29128 0.0
C91 C 0.57162 0.02201 0.26623 0.0
P92 P 0.61051 0.57642 0.54605 0.0
H93 H 0.60084 0.51779 0.49622 0.0
H94 H 0.57529 0.42486 0.48398 0.0
H95 H 0.52196 0.39261 0.55921 0.0
H96 H 0.54426 0.48411 0.5705 0.0
H97 H 0.67155 0.67972 0.53197 0.0
H98 H 0.65337 0.75155 0.52181 0.0
H99 H 0.4952 0.65514 0.5249 0.0
H100 H 0.51404 0.58233 0.53519 0.0
H101 H 0.66991 0.55718 0.58409 0.0
H102 H 0.54945 0.60537 0.58322 0.0
O103 O 0.66926 0.5903 0.53824 0.0
H104 H 0.66538 0.55501 0.62987 0.0
H105 H 0.54557 0.60476 0.62929 0.0
C106 C 0.57503 0.50846 0.53434 0.0
C107 C 0.5818 0.49039 0.50971 0.0
C108 C 0.568 0.4371 0.50292 0.0
C109 C 0.54767 0.40066 0.52076 0.0
C110 C 0.53725 0.41876 0.54476 0.0
C111 C 0.55039 0.47181 0.55136 0.0
C112 C 0.59416 0.62508 0.5339 0.0
C113 C 0.63278 0.67323 0.52983 0.0
C114 C 0.6223 0.7146 0.52397 0.0
C115 C 0.57277 0.70933 0.52234 0.0
C116 C 0.53381 0.66067 0.52605 0.0
C117 C 0.54445 0.61884 0.53171 0.0
C118 C 0.61093 0.58271 0.58026 0.0
C119 C 0.64333 0.56866 0.59385 0.0
C120 C 0.64068 0.56745 0.62009 0.0
C121 C 0.60533 0.58009 0.63336 0.0
C122 C 0.57303 0.59451 0.61967 0.0
C123 C 0.57563 0.5955 0.59331 0.0
P124 P 0.12929 0.66082 0.8797 0.0
H125 H 0.21162 0.66313 0.84809 0.0
H126 H 0.23637 0.59445 0.8316 0.0
H127 H 0.11001 0.48065 0.86587 0.0
H128 H 0.08555 0.54931 0.88227 0.0
H129 H 0.06766 0.71899 0.88097 0.0
H130 H 0.9841 0.69496 0.8618 0.0
H131 H 0.9963 0.5693 0.81426 0.0
H132 H 0.07882 0.5931 0.83289 0.0
H133 H 0.18064 0.63923 0.92029 0.0
H134 H 0.03776 0.64383 0.90863 0.0
O135 O 0.17643 0.71987 0.88064 0.0
H136 H 0.15357 0.6008 0.95944 0.0
H137 H 0.01238 0.61128 0.94929 0.0
C138 C 0.14812 0.61143 0.86716 0.0
C139 C 0.18935 0.62343 0.85199 0.0
C140 C 0.20279 0.58404 0.84223 0.0
C141 C 0.17484 0.53232 0.84748 0.0
C142 C 0.13216 0.52022 0.86169 0.0
C143 C 0.11872 0.5595 0.87133 0.0
C144 C 0.07824 0.65611 0.85952 0.0
C145 C 0.05292 0.68732 0.86587 0.0
C146 C 1.00543 0.67372 0.85486 0.0
C147 C 0.98369 0.62935 0.8372 0.0
C148 C 0.01207 0.60282 0.82836 0.0
C149 C 0.05924 0.61634 0.83933 0.0
C150 C 0.11161 0.64487 0.91143 0.0
C151 C 0.14399 0.63372 0.92662 0.0
C152 C 0.12833 0.61184 0.94924 0.0
C153 C 0.08053 0.60279 0.95794 0.0
C154 C 0.04896 0.61634 0.94313 0.0
C155 C 0.06403 0.63636 0.91992 0.0
P156 P 0.06793 0.47785 0.4308 0.0
H157 H 0.1453 0.51614 0.47135 0.0
H158 H 0.20123 0.60379 0.48976 0.0
H159 H 0.12719 0.66844 0.44229 0.0
H160 H 0.07037 0.58043 0.42454 0.0
H161 H 0.01842 0.37219 0.44466 0.0
H162 H 0.94141 0.32663 0.46588 0.0
H163 H 0.91965 0.4682 0.4766 0.0
H164 H 0.99678 0.51346 0.45471 0.0
H165 H 0.12605 0.5332 0.3903 0.0
H166 H 0.97313 0.42655 0.39987 0.0
O167 O 0.10246 0.44395 0.43011 0.0
H168 H 0.10526 0.53627 0.34601 0.0
H169 H 0.95201 0.42975 0.35555 0.0
C170 C 0.10497 0.54209 0.44602 0.0
C171 C 0.14091 0.54919 0.46506 0.0
C172 C 0.17286 0.59926 0.47552 0.0
C173 C 0.16923 0.64307 0.46712 0.0
C174 C 0.13094 0.63552 0.44916 0.0
C175 C 0.09882 0.58529 0.43879 0.0
C176 C 0.01364 0.44633 0.44856 0.0
C177 C 0.99757 0.39368 0.45193 0.0
C178 C 0.95361 0.36776 0.46421 0.0
C179 C 0.92472 0.394 0.47324 0.0
C180 C 0.94111 0.44698 0.46987 0.0
C181 C 0.98525 0.47292 0.45753 0.0
C182 C 0.05101 0.48056 0.3985 0.0
C183 C 0.08787 0.5109 0.38293 0.0
C184 C 0.07589 0.51274 0.35766 0.0
C185 C 0.02684 0.48367 0.3474 0.0
C186 C 0.99009 0.45252 0.36295 0.0
C187 C 1.00211 0.45096 0.38834 0.0
P188 P 0.61532 0.02105 0.79138 0.0
H189 H 0.66558 0.1308 0.78655 0.0
H190 H 0.64285 0.20217 0.79659 0.0
H191 H 0.51986 0.10343 0.83914 0.0
H192 H 0.53924 0.03021 0.82558 0.0
H193 H 0.57412 0.91226 0.76965 0.0
H194 H 0.54893 0.83121 0.78862 0.0
H195 H 0.571 0.91511 0.86329 0.0
H196 H 0.59663 0.99675 0.84402 0.0
H197 H 0.66924 0.07356 0.74934 0.0
H198 H 0.52028 0.96118 0.76157 0.0
O199 O 0.6767 0.03766 0.79376 0.0
H200 H 0.64411 0.07704 0.70641 0.0
H201 H 0.49581 0.95909 0.71727 0.0
C202 C 0.60446 0.07521 0.80547 0.0
C203 C 0.63389 0.12464 0.79822 0.0
C204 C 0.62097 0.16601 0.80434 0.0
C205 C 0.579 0.15951 0.81872 0.0
C206 C 0.55147 0.11029 0.82737 0.0
C207 C 0.56323 0.06823 0.82018 0.0
C208 C 0.58523 0.96059 0.80531 0.0
C209 C 0.57134 0.91323 0.79003 0.0
C210 C 0.55692 0.86663 0.80096 0.0
C211 C 0.5574 0.8665 0.82749 0.0
C212 C 0.56995 0.91385 0.84279 0.0
C213 C 0.58418 0.96052 0.83178 0.0
C214 C 0.59722 0.0157 0.7584 0.0
C215 C 0.63141 0.0481 0.74243 0.0
C216 C 0.61689 0.04957 0.7176 0.0
C217 C 0.56801 0.0173 0.70772 0.0
C218 C 0.53367 0.98479 0.72396 0.0
C219 C 0.54787 0.985 0.74924 0.0
P220 P 0.5081 0.47098 0.1141 0.0
H221 H 0.55529 0.45248 0.15896 0.0
H222 H 0.64187 0.46818 0.16889 0.0
H223 H 0.69055 0.56674 0.10815 0.0
H224 H 0.60425 0.5518 0.09878 0.0
H225 H 0.40375 0.40037 0.11034 0.0
H226 H 0.32651 0.40641 0.12008 0.0
H227 H 0.40855 0.56629 0.15144 0.0
H228 H 0.48803 0.56005 0.14083 0.0
H229 H 0.53821 0.422 0.07059 0.0
H230 H 0.4843 0.54109 0.08427 0.0
O231 O 0.49268 0.40755 0.11482 0.0
H232 H 0.53746 0.42977 0.02515 0.0
H233 H 0.48422 0.54979 0.03871 0.0
C234 C 0.5723 0.50103 0.12817 0.0
C235 C 0.58469 0.47916 0.14838 0.0
C236 C 0.63456 0.48735 0.1537 0.0
C237 C 0.67401 0.5179 0.13902 0.0
C238 C 0.66189 0.543 0.12004 0.0
C239 C 0.61196 0.53464 0.1147 0.0
C240 C 0.45267 0.47888 0.12582 0.0
C241 C 0.40598 0.43668 0.11991 0.0
C242 C 0.36113 0.44028 0.12544 0.0
C243 C 0.36043 0.48648 0.13719 0.0
C244 C 0.40721 0.52982 0.14259 0.0
C245 C 0.45288 0.52611 0.13687 0.0
C246 C 0.51029 0.48013 0.08077 0.0
C247 C 0.52629 0.44995 0.0638 0.0
C248 C 0.52621 0.45475 0.0378 0.0
C249 C 0.51048 0.49022 0.02821 0.0
C250 C 0.49569 0.52145 0.0454 0.0
C251 C 0.4959 0.51664 0.07149 0.0
H252 H 0.1328 0.43235 0.15882 0.0
H253 H 0.17198 0.58675 0.138 0.0
H254 H 0.25949 0.59941 0.13377 0.0
H255 H 0.32453 0.56317 0.1333 0.0
H256 H 0.28232 0.40982 0.15703 0.0
H257 H 0.19755 0.40059 0.16277 0.0
C258 C 0.16052 0.46906 0.15355 0.0
C259 C 0.14544 0.50839 0.14865 0.0
C260 C 0.21073 0.47611 0.15143 0.0
C261 C 0.18225 0.5558 0.14205 0.0
C262 C 0.23242 0.56289 0.13949 0.0
C263 C 0.29703 0.52806 0.14008 0.0
C264 C 0.31041 0.48665 0.14397 0.0
C265 C 0.2472 0.52294 0.14379 0.0
C266 C 0.27359 0.4418 0.15299 0.0
C267 C 0.22473 0.43644 0.15645 0.0
H268 H 0.70042 0.26171 0.49644 0.0
H269 H 0.76909 0.18008 0.53549 0.0
H270 H 0.85207 0.24691 0.5285 0.0
H271 H 0.90453 0.32211 0.50678 0.0
H272 H 0.83578 0.3999 0.4648 0.0
H273 H 0.75351 0.34195 0.47799 0.0
C274 C 0.7336 0.2592 0.50382 0.0
C275 C 0.72897 0.21601 0.51621 0.0
C276 C 0.78111 0.29689 0.49907 0.0
C277 C 0.77199 0.21297 0.52574 0.0
C278 C 0.81936 0.25101 0.52168 0.0
C279 C 0.87155 0.32656 0.50065 0.0
C280 C 0.87619 0.36471 0.48454 0.0
C281 C 0.82431 0.29209 0.5076 0.0
C282 C 0.8333 0.37094 0.47727 0.0
C283 C 0.78617 0.33752 0.48462 0.0
H284 H 0.60239 0.69069 0.86775 0.0
H285 H 0.47839 0.59426 0.81586 0.0
H286 H 0.46062 0.66956 0.80996 0.0
H287 H 0.4901 0.76549 0.81425 0.0
H288 H 0.61617 0.86062 0.86558 0.0
H289 H 0.62253 0.78313 0.87757 0.0
C290 C 0.57059 0.68596 0.85572 0.0
C291 C 0.54208 0.63756 0.842 0.0
C292 C 0.56133 0.72936 0.85216 0.0
C293 C 0.50075 0.63137 0.82661 0.0
C294 C 0.49097 0.67451 0.82306 0.0
C295 C 0.51831 0.76907 0.82841 0.0
C296 C 0.55299 0.81891 0.83874 0.0
C297 C 0.52249 0.72416 0.83488 0.0
C298 C 0.58881 0.82292 0.8574 0.0
C299 C 0.59284 0.77858 0.86411 0.0
H300 H 0.88014 0.49511 0.15583 0.0
H301 H 0.94018 0.65485 0.13904 0.0
H302 H 0.85625 0.64953 0.13366 0.0
H303 H 0.76511 0.60123 0.13445 0.0
H304 H 0.70267 0.44146 0.15122 0.0
H305 H 0.78674 0.44549 0.15606 0.0
C306 C 0.87479 0.52848 0.15072 0.0
C307 C 0.91716 0.57532 0.14771 0.0
C308 C 0.82541 0.52552 0.14789 0.0
C309 C 0.90886 0.61825 0.1415 0.0
C310 C 0.86054 0.61535 0.13842 0.0
C311 C 0.76953 0.56699 0.13899 0.0
C312 C 0.72657 0.52119 0.14254 0.0
C313 C 0.8184 0.5694 0.14169 0.0
C314 C 0.73429 0.47778 0.14878 0.0
C315 C 0.78274 0.47986 0.15137 0.0
H316 H 0.31153 0.88096 0.49777 0.0
H317 H 0.42253 0.81974 0.48821 0.0
H318 H 0.35702 0.73195 0.47873 0.0
H319 H 0.26894 0.67315 0.4715 0.0
H320 H 0.15644 0.7323 0.48057 0.0
H321 H 0.22174 0.82045 0.49167 0.0
C322 C 0.32113 0.84825 0.4937 0.0
C323 C 0.37159 0.85664 0.49356 0.0
C324 C 0.28314 0.79768 0.48808 0.0
C325 C 0.38385 0.81417 0.48828 0.0
C326 C 0.34646 0.76397 0.48288 0.0
C327 C 0.25855 0.70511 0.47636 0.0
C328 C 0.20794 0.69614 0.47538 0.0
C329 C 0.29608 0.75535 0.48256 0.0
C330 C 0.19523 0.73828 0.48107 0.0
C331 C 0.2325 0.78861 0.48747 0.0
H332 H 0.47048 0.31004 0.82981 0.0
H333 H 0.61825 0.42361 0.81647 0.0
H334 H 0.6503 0.35674 0.81659 0.0
H335 H 0.6353 0.26601 0.82024 0.0
H336 H 0.48325 0.15085 0.8258 0.0
H337 H 0.4545 0.219 0.83014 0.0
C338 C 0.50979 0.32028 0.82694 0.0
C339 C 0.54227 0.37185 0.82358 0.0
C340 C 0.52722 0.2814 0.826 0.0
C341 C 0.59282 0.38436 0.8195 0.0
C342 C 0.61099 0.34607 0.8195 0.0
C343 C 0.59566 0.25512 0.82189 0.0
C344 C 0.56198 0.20238 0.82279 0.0
C345 C 0.57837 0.29434 0.82266 0.0
C346 C 0.51095 0.19054 0.8258 0.0
C347 C 0.49401 0.22962 0.82787 0.0
H348 H 0.52673 0.90874 0.52803 0.0
H349 H 0.63895 0.95075 0.47195 0.0
H350 H 0.64273 0.86664 0.47216 0.0
H351 H 0.6177 0.78309 0.4899 0.0
H352 H 0.50611 0.74073 0.54629 0.0
H353 H 0.49736 0.82195 0.5437 0.0
C354 C 0.55148 0.89916 0.5156 0.0
C355 C 0.58266 0.93614 0.50003 0.0
C356 C 0.55348 0.85048 0.51582 0.0
C357 C 0.61474 0.92318 0.48419 0.0
C358 C 0.61691 0.87502 0.48429 0.0
C359 C 0.59135 0.79149 0.50161 0.0
C360 C 0.56294 0.75576 0.51843 0.0
C361 C 0.58706 0.83869 0.50031 0.0
C362 C 0.52825 0.76708 0.53304 0.0
C363 C 0.52355 0.81386 0.53174 0.0
H364 H 0.75095 0.50406 0.83351 0.0
H365 H 0.75862 0.64752 0.80917 0.0
H366 H 0.84972 0.68285 0.80951 0.0
H367 H 0.92739 0.67502 0.81979 0.0
H368 H 0.91943 0.5306 0.84295 0.0
H369 H 0.82827 0.4931 0.83963 0.0
C370 C 0.77274 0.54284 0.82813 0.0
C371 C 0.74876 0.57353 0.82168 0.0
C372 C 0.82489 0.56262 0.82809 0.0
C373 C 0.77678 0.62343 0.81434 0.0
C374 C 0.82873 0.64368 0.81455 0.0
C375 C 0.90545 0.63517 0.82373 0.0
C376 C 0.92952 0.60552 0.83157 0.0
C377 C 0.8532 0.61394 0.82183 0.0
C378 C 0.90127 0.55382 0.8366 0.0
C379 C 0.84929 0.53252 0.83492 0.0
H380 H 0.23406 0.67881 0.18649 0.0
H381 H 0.18885 0.77901 0.14703 0.0
H382 H 0.27526 0.84648 0.15064 0.0
H383 H 0.36395 0.87643 0.16527 0.0
H384 H 0.4073 0.77307 0.20346 0.0
H385 H 0.32142 0.707 0.19975 0.0
C386 C 0.24306 0.71559 0.17883 0.0
C387 C 0.20535 0.72445 0.16682 0.0
C388 C 0.29256 0.75331 0.18051 0.0
C389 C 0.21747 0.7717 0.15653 0.0
C390 C 0.26678 0.8101 0.15855 0.0
C391 C 0.35443 0.83938 0.17271 0.0
C392 C 0.392 0.82953 0.18444 0.0
C393 C 0.3047 0.80129 0.17051 0.0
C394 C 0.37929 0.78129 0.19393 0.0
C395 C 0.33011 0.74361 0.19203 0.0
H396 H 0.56036 0.18388 0.49378 0.0
H397 H 0.4362 0.13348 0.54292 0.0
H398 H 0.43871 0.22082 0.54742 0.0
H399 H 0.47679 0.31183 0.538 0.0
H400 H 0.60571 0.36414 0.49169 0.0
H401 H 0.60002 0.276 0.4852 0.0
C402 C 0.53428 0.1922 0.50571 0.0
C403 C 0.49851 0.15225 0.51821 0.0
C404 C 0.53637 0.2429 0.50852 0.0
C405 C 0.46426 0.16348 0.53316 0.0
C406 C 0.46563 0.21348 0.53573 0.0
C407 C 0.50403 0.30437 0.52663 0.0
C408 C 0.54153 0.34539 0.51534 0.0
C409 C 0.50169 0.25361 0.5236 0.0
C410 C 0.57562 0.33381 0.50025 0.0
C411 C 0.57284 0.28324 0.49673 0.0
H412 H 0.31557 0.42491 0.85302 0.0
H413 H 0.34204 0.46852 0.77692 0.0
H414 H 0.26757 0.48622 0.7768 0.0
H415 H 0.20921 0.50959 0.80262 0.0
H416 H 0.18641 0.46907 0.8795 0.0
H417 H 0.24371 0.4277 0.87481 0.0
C418 C 0.30377 0.43648 0.83614 0.0
C419 C 0.33409 0.44678 0.81529 0.0
C420 C 0.26192 0.44748 0.8365 0.0
C421 C 0.31886 0.46084 0.79323 0.0
C422 C 0.27668 0.47136 0.79327 0.0
C423 C 0.21573 0.49019 0.81798 0.0
C424 C 0.19499 0.49345 0.84153 0.0
C425 C 0.24998 0.468 0.81542 0.0
C426 C 0.2024 0.4673 0.86124 0.0
C427 C 0.23553 0.4441 0.85867 0.0
H428 H 0.91329 0.30657 0.16976 0.0
H429 H 0.8162 0.35799 0.13112 0.0
H430 H 0.74289 0.28083 0.14154 0.0
H431 H 0.70663 0.20147 0.16448 0.0
H432 H 0.80637 0.15427 0.20393 0.0
H433 H 0.87845 0.22718 0.19045 0.0
C434 C 0.87611 0.30069 0.16337 0.0
C435 C 0.87 0.33776 0.14974 0.0
C436 C 0.83462 0.25724 0.16985 0.0
C437 C 0.82171 0.32969 0.14155 0.0
C438 C 0.77988 0.2858 0.14764 0.0
C439 C 0.74421 0.20711 0.16988 0.0
C440 C 0.7512 0.17304 0.18551 0.0
C441 C 0.78584 0.24971 0.1622 0.0
C442 C 0.80003 0.18059 0.19237 0.0
C443 C 0.84129 0.22208 0.18456 0.0
H444 H 0.98078 0.50749 0.0583 0.0
H445 H 0.1364 0.57612 0.08377 0.0
H446 H 0.16134 0.6014 0.04172 0.0
H447 H 0.13918 0.61406 -7e-05 0.0
H448 H 0.985 0.54002 0.97164 0.0
H449 H 0.9593 0.50869 0.0129 0.0
C450 C 0.02007 0.52673 0.05435 0.0
C451 C 0.05665 0.54077 0.07413 0.0
C452 C 0.03443 0.54171 0.02994 0.0
C453 C 0.10751 0.56574 0.06889 0.0
C454 C 0.12188 0.58041 0.04488 0.0
C455 C 0.10002 0.58972 0.00221 0.0
C456 C 0.06433 0.58017 0.98246 0.0
C457 C 0.08563 0.57019 0.02555 0.0
C458 C 0.01354 0.5496 0.98656 0.0
C459 C 0.99872 0.53097 0.01012 0.0
H460 H 0.49228 0.96063 0.42069 0.0
H461 H 0.59243 0.12416 0.42824 0.0
H462 H 0.6025 0.1208 0.3826 0.0
H463 H 0.58821 0.07044 0.34103 0.0
H464 H 0.48979 0.90659 0.33294 0.0
H465 H 0.47397 0.911 0.37822 0.0
C466 C 0.5157 0.99564 0.41227 0.0
C467 C 0.54175 0.04246 0.42789 0.0
C468 C 0.52214 0.9933 0.38593 0.0
C469 C 0.57227 0.08745 0.41671 0.0
C470 C 0.57811 0.08563 0.39058 0.0
C471 C 0.56259 0.03587 0.34906 0.0
C472 C 0.5404 0.98826 0.33364 0.0
C473 C 0.55401 0.0386 0.37508 0.0
C474 C 0.5079 0.94363 0.34447 0.0
C475 C 0.49867 0.94615 0.37034 0.0
H476 H 0.62594 0.56471 0.75055 0.0
H477 H 0.46489 0.50032 0.74257 0.0
H478 H 0.4701 0.51509 0.69767 0.0
H479 H 0.52055 0.5425 0.66026 0.0
H480 H 0.6817 0.60954 0.66917 0.0
H481 H 0.67613 0.59702 0.71413 0.0
C482 C 0.59188 0.55382 0.73903 0.0
C483 C 0.54507 0.53089 0.74985 0.0
C484 C 0.59517 0.56268 0.71336 0.0
C485 C 0.50141 0.51789 0.73471 0.0
C486 C 0.50437 0.52625 0.70902 0.0
C487 C 0.55449 0.55518 0.6721 0.0
C488 C 0.60149 0.57644 0.6612 0.0
C489 C 0.55107 0.54822 0.69808 0.0
C490 C 0.64501 0.59211 0.67687 0.0
C491 C 0.6419 0.5852 0.70264 0.0
H492 H 0.47798 0.01876 0.59855 0.0
H493 H 0.63361 0.07003 0.58194 0.0
H494 H 0.65394 0.06114 0.6253 0.0
H495 H 0.62782 0.03736 0.66721 0.0
H496 H 0.47501 0.99911 0.68685 0.0
H497 H 0.45293 0.00217 0.64284 0.0
C498 C 0.51626 0.02824 0.60463 0.0
C499 C 0.55432 0.0452 0.58727 0.0
C500 C 0.52808 0.0246 0.62995 0.0
C501 C 0.60386 0.05754 0.59516 0.0
C502 C 0.61547 0.05214 0.61987 0.0
C503 C 0.58984 0.03098 0.66232 0.0
C504 C 0.55348 0.01831 0.68076 0.0
C505 C 0.57793 0.03576 0.63739 0.0
C506 C 0.504 0.00807 0.67325 0.0
C507 C 0.49131 0.01042 0.64804 0.0
H508 H 0.47077 0.50044 0.91155 0.0
H509 H 0.61188 0.48834 0.90734 0.0
H510 H 0.61555 0.48665 0.95308 0.0
H511 H 0.57941 0.48879 0.99443 0.0
H512 H 0.4381 0.49982 -0.00071 0.0
H513 H 0.43442 0.50271 0.95336 0.0
C514 C 0.50224 0.49725 0.92061 0.0
C515 C 0.5409 0.49445 0.90586 0.0
C516 C 0.50438 0.49651 0.94714 0.0
C517 C 0.58153 0.49066 0.91806 0.0
C518 C 0.58376 0.48969 0.94431 0.0
C519 C 0.54757 0.49142 0.98545 0.0
C520 C 0.50904 0.4939 0.00035 0.0
C521 C 0.54545 0.49258 0.95904 0.0
C522 C 0.46859 0.49839 0.98837 0.0
C523 C 0.46626 0.49966 0.96205 0.0
H524 H 0.97668 0.4545 0.22946 0.0
H525 H 0.06196 0.62147 0.23998 0.0
H526 H 0.06798 0.61897 0.2856 0.0
H527 H 0.05464 0.56919 0.32218 0.0
H528 H 0.97188 0.40222 0.31215 0.0
H529 H 0.95851 0.40504 0.2668 0.0
C530 C 0.99594 0.49042 0.24176 0.0
C531 C 0.01924 0.538 0.23122 0.0
C532 C 0.99996 0.48873 0.26809 0.0
C533 C 0.04411 0.58417 0.24748 0.0
C534 C 0.04764 0.58286 0.27363 0.0
C535 C 0.03365 0.53343 0.31006 0.0
C536 C 0.01478 0.48556 0.32042 0.0
C537 C 0.02674 0.53529 0.28405 0.0
C538 C 0.98667 0.43961 0.30462 0.0
C539 C 0.97927 0.44117 0.27867 0.0
loop_
_geom_bond_atom_site_label_1
_geom_bond_atom_site_label_2
_geom_bond_distance
_geom_bond_site_symmetry_2
_ccdc_geom_bond_type
Tb0 O3 2.453 1_455 S
Tb0 O4 2.596 1_455 S
Tb0 O5 2.374 . S
Tb0 O13 2.343 . S
Tb0 O15 2.353 . S
Tb0 O17 2.427 . S
Tb0 O18 2.513 . S
C1 O5 1.251 . S
C1 O7 1.263 . S
Tb2 O4 2.343 1_455 S
Tb2 O7 2.353 . S
Tb2 O10 2.427 1_455 S
Tb2 O11 2.513 1_455 S
Tb2 O12 2.453 . S
Tb2 O13 2.596 . S
Tb2 O14 2.374 . S
O3 Tb0 2.453 1_655 S
O3 C19 1.245 . S
O4 Tb0 2.596 1_655 S
O4 Tb2 2.343 1_655 S
O4 C19 1.259 . S
O5 Tb0 2.374 . S
O5 C1 1.251 . S
C6 O10 1.275 . S
C6 O11 1.246 . S
O7 C1 1.263 . S
O7 Tb2 2.353 . S
C8 O12 1.245 . S
C8 O13 1.259 . S
C9 O14 1.250 . S
C9 O15 1.263 . S
O10 Tb2 2.427 1_655 S
O10 C6 1.275 . S
O11 Tb2 2.513 1_655 S
O11 C6 1.246 . S
O12 Tb2 2.453 . S
O12 C8 1.245 . S
O13 Tb0 2.343 . S
O13 Tb2 2.596 . S
O13 C8 1.259 . S
O14 Tb2 2.374 . S
O14 C9 1.250 . S
O15 Tb0 2.353 . S
O15 C9 1.263 . S
C16 O17 1.275 . S
C16 O18 1.246 . S
O17 Tb0 2.427 . S
O17 C16 1.275 . S
O18 Tb0 2.513 . S
O18 C16 1.246 . S
C19 O3 1.245 . S
C19 O4 1.259 . S
Tb20 O23 2.453 . S
Tb20 O24 2.596 . S
Tb20 O25 2.374 . S
Tb20 O33 2.343 1_545 S
Tb20 O35 2.353 . S
Tb20 O37 2.427 1_545 S
Tb20 O38 2.513 1_545 S
C21 O25 1.251 . S
C21 O27 1.263 . S
Tb22 O24 2.343 . S
Tb22 O27 2.353 . S
Tb22 O30 2.427 . S
Tb22 O31 2.513 . S
Tb22 O32 2.453 1_545 S
Tb22 O33 2.596 1_545 S
Tb22 O34 2.374 . S
O23 Tb20 2.453 . S
O23 C39 1.245 . S
O24 Tb20 2.596 . S
O24 Tb22 2.343 . S
O24 C39 1.259 . S
O25 Tb20 2.374 . S
O25 C21 1.251 . S
C26 O30 1.275 . S
C26 O31 1.246 . S
O27 C21 1.263 . S
O27 Tb22 2.353 . S
C28 O32 1.245 . S
C28 O33 1.259 . S
C29 O34 1.250 . S
C29 O35 1.263 . S
O30 Tb22 2.427 . S
O30 C26 1.275 . S
O31 Tb22 2.513 . S
O31 C26 1.246 . S
O32 Tb22 2.453 1_565 S
O32 C28 1.245 . S
O33 Tb20 2.343 1_565 S
O33 Tb22 2.596 1_565 S
O33 C28 1.259 . S
O34 Tb22 2.374 . S
O34 C29 1.250 . S
O35 Tb20 2.353 . S
O35 C29 1.263 . S
C36 O37 1.275 . S
C36 O38 1.246 . S
O37 Tb20 2.427 1_565 S
O37 C36 1.275 . S
O38 Tb20 2.513 1_565 S
O38 C36 1.246 . S
C39 O23 1.245 . S
C39 O24 1.259 . S
Tb40 O43 2.453 . S
Tb40 O44 2.596 . S
Tb40 O45 2.374 . S
Tb40 O53 2.343 . S
Tb40 O55 2.353 . S
Tb40 O57 2.427 . S
Tb40 O58 2.513 . S
C41 O45 1.251 . S
C41 O47 1.263 . S
Tb42 O44 2.343 . S
Tb42 O47 2.353 . S
Tb42 O50 2.427 . S
Tb42 O51 2.513 . S
Tb42 O52 2.453 . S
Tb42 O53 2.596 . S
Tb42 O54 2.374 . S
O43 Tb40 2.453 . S
O43 C59 1.245 . S
O44 Tb40 2.596 . S
O44 Tb42 2.343 . S
O44 C59 1.259 . S
O45 Tb40 2.374 . S
O45 C41 1.251 . S
C46 O50 1.275 . S
C46 O51 1.246 . S
O47 C41 1.263 . S
O47 Tb42 2.353 . S
C48 O52 1.245 . S
C48 O53 1.259 . S
C49 O54 1.250 . S
C49 O55 1.263 . S
O50 Tb42 2.427 . S
O50 C46 1.275 . S
O51 Tb42 2.513 . S
O51 C46 1.246 . S
O52 Tb42 2.453 . S
O52 C48 1.245 . S
O53 Tb40 2.343 . S
O53 Tb42 2.596 . S
O53 C48 1.259 . S
O54 Tb42 2.374 . S
O54 C49 1.250 . S
O55 Tb40 2.353 . S
O55 C49 1.263 . S
C56 O57 1.275 . S
C56 O58 1.246 . S
O57 Tb40 2.427 . S
O57 C56 1.275 . S
O58 Tb40 2.513 . S
O58 C56 1.246 . S
C59 O43 1.245 . S
C59 O44 1.259 . S
P60 O71 1.469 1_545 S
P60 C74 1.810 1_545 S
P60 C80 1.820 . S
P60 C86 1.826 . S
H61 C75 0.941 . S
H62 C76 0.939 . S
H63 C78 0.940 . S
H64 C79 0.940 1_545 S
H65 C81 0.939 . S
H66 C82 0.942 . S
H67 C84 0.940 . S
H68 C85 0.939 . S
H69 C87 0.941 . S
H70 C91 0.939 . S
O71 P60 1.469 1_565 S
H72 C88 0.939 . S
H73 C90 0.940 . S
C74 P60 1.810 1_565 S
C74 C75 1.389 . S
C74 C79 1.391 . S
C75 H61 0.941 . S
C75 C74 1.389 . S
C75 C76 1.397 . S
C76 H62 0.939 . S
C76 C75 1.397 . S
C76 C77 1.378 . S
C77 C76 1.378 . S
C77 C78 1.378 . S
C78 H63 0.940 . S
C78 C77 1.378 . S
C78 C79 1.396 . S
C79 H64 0.940 1_565 S
C79 C74 1.391 . S
C79 C78 1.396 . S
C80 P60 1.820 . S
C80 C81 1.378 . S
C80 C85 1.400 . S
C81 H65 0.939 . S
C81 C80 1.378 . S
C81 C82 1.361 . S
C82 H66 0.942 . S
C82 C81 1.361 . S
C82 C83 1.369 . S
C83 C82 1.369 . S
C83 C84 1.404 . S
C84 H67 0.940 . S
C84 C83 1.404 . S
C84 C85 1.389 . S
C85 H68 0.939 . S
C85 C80 1.400 . S
C85 C84 1.389 . S
C86 P60 1.826 . S
C86 C87 1.391 1_545 S
C86 C91 1.391 . S
C87 H69 0.941 . S
C87 C86 1.391 1_565 S
C87 C88 1.396 . S
C88 H72 0.939 . S
C88 C87 1.396 . S
C88 C89 1.397 1_565 S
C89 C88 1.397 1_545 S
C89 C90 1.385 . S
C90 H73 0.940 . S
C90 C89 1.385 . S
C90 C91 1.388 . S
C91 H70 0.939 . S
C91 C86 1.391 . S
C91 C90 1.388 . S
P92 O103 1.490 . S
P92 C106 1.812 . S
P92 C112 1.803 . S
P92 C118 1.819 . S
H93 C107 0.941 . S
H94 C108 0.939 . S
H95 C110 0.940 . S
H96 C111 0.940 . S
H97 C113 0.939 . S
H98 C114 0.942 . S
H99 C116 0.940 . S
H100 C117 0.939 . S
H101 C119 0.941 . S
H102 C123 0.939 . S
O103 P92 1.490 . S
H104 C120 0.939 . S
H105 C122 0.940 . S
C106 P92 1.812 . S
C106 C107 1.389 . S
C106 C111 1.391 . S
C107 H93 0.941 . S
C107 C106 1.389 . S
C107 C108 1.397 . S
C108 H94 0.939 . S
C108 C107 1.397 . S
C108 C109 1.378 . S
C109 C108 1.378 . S
C109 C110 1.378 . S
C110 H95 0.940 . S
C110 C109 1.378 . S
C110 C111 1.396 . S
C111 H96 0.940 . S
C111 C106 1.391 . S
C111 C110 1.396 . S
C112 P92 1.803 . S
C112 C113 1.378 . S
C112 C117 1.400 . S
C113 H97 0.939 . S
C113 C112 1.378 . S
C113 C114 1.361 . S
C114 H98 0.942 . S
C114 C113 1.361 . S
C114 C115 1.369 . S
C115 C114 1.369 . S
C115 C116 1.404 . S
C116 H99 0.940 . S
C116 C115 1.404 . S
C116 C117 1.389 . S
C117 H100 0.939 . S
C117 C112 1.400 . S
C117 C116 1.389 . S
C118 P92 1.819 . S
C118 C119 1.391 . S
C118 C123 1.391 . S
C119 H101 0.941 . S
C119 C118 1.391 . S
C119 C120 1.396 . S
C120 H104 0.939 . S
C120 C119 1.396 . S
C120 C121 1.397 . S
C121 C120 1.397 . S
C121 C122 1.385 . S
C122 H105 0.940 . S
C122 C121 1.385 . S
C122 C123 1.388 . S
C123 H102 0.939 . S
C123 C118 1.391 . S
C123 C122 1.388 . S
P124 O135 1.490 . S
P124 C138 1.812 . S
P124 C144 1.803 . S
P124 C150 1.819 . S
H125 C139 0.941 . S
H126 C140 0.939 . S
H127 C142 0.940 . S
H128 C143 0.940 . S
H129 C145 0.939 . S
H130 C146 0.942 . S
H131 C148 0.940 . S
H132 C149 0.939 . S
H133 C151 0.941 . S
H134 C155 0.939 . S
O135 P124 1.490 . S
H136 C152 0.939 . S
H137 C154 0.940 . S
C138 P124 1.812 . S
C138 C139 1.389 . S
C138 C143 1.391 . S
C139 H125 0.941 . S
C139 C138 1.389 . S
C139 C140 1.397 . S
C140 H126 0.939 . S
C140 C139 1.397 . S
C140 C141 1.378 . S
C141 C140 1.378 . S
C141 C142 1.378 . S
C142 H127 0.940 . S
C142 C141 1.378 . S
C142 C143 1.396 . S
C143 H128 0.940 . S
C143 C138 1.391 . S
C143 C142 1.396 . S
C144 P124 1.803 . S
C144 C145 1.378 . S
C144 C149 1.400 . S
C145 H129 0.939 . S
C145 C144 1.378 . S
C145 C146 1.361 1_455 S
C146 H130 0.942 . S
C146 C145 1.361 1_655 S
C146 C147 1.369 . S
C147 C146 1.369 . S
C147 C148 1.404 . S
C148 H131 0.940 . S
C148 C147 1.404 . S
C148 C149 1.389 1_655 S
C149 H132 0.939 . S
C149 C144 1.400 . S
C149 C148 1.389 1_455 S
C150 P124 1.819 . S
C150 C151 1.391 . S
C150 C155 1.391 . S
C151 H133 0.941 . S
C151 C150 1.391 . S
C151 C152 1.396 . S
C152 H136 0.939 . S
C152 C151 1.396 . S
C152 C153 1.397 . S
C153 C152 1.397 . S
C153 C154 1.385 . S
C154 H137 0.940 . S
C154 C153 1.385 . S
C154 C155 1.388 . S
C155 H134 0.939 . S
C155 C150 1.391 . S
C155 C154 1.388 . S
P156 O167 1.490 . S
P156 C170 1.812 . S
P156 C176 1.803 1_455 S
P156 C182 1.819 . S
H157 C171 0.941 . S
H158 C172 0.939 . S
H159 C174 0.940 . S
H160 C175 0.940 . S
H161 C177 0.939 . S
H162 C178 0.942 . S
H163 C180 0.940 . S
H164 C181 0.939 . S
H165 C183 0.941 . S
H166 C187 0.939 . S
O167 P156 1.490 . S
H168 C184 0.939 . S
H169 C186 0.940 . S
C170 P156 1.812 . S
C170 C171 1.389 . S
C170 C175 1.391 . S
C171 H157 0.941 . S
C171 C170 1.389 . S
C171 C172 1.397 . S
C172 H158 0.939 . S
C172 C171 1.397 . S
C172 C173 1.378 . S
C173 C172 1.378 . S
C173 C174 1.378 . S
C174 H159 0.940 . S
C174 C173 1.378 . S
C174 C175 1.396 . S
C175 H160 0.940 . S
C175 C170 1.391 . S
C175 C174 1.396 . S
C176 P156 1.803 1_655 S
C176 C177 1.378 . S
C176 C181 1.400 . S
C177 H161 0.939 . S
C177 C176 1.378 . S
C177 C178 1.361 . S
C178 H162 0.942 . S
C178 C177 1.361 . S
C178 C179 1.369 . S
C179 C178 1.369 . S
C179 C180 1.404 . S
C180 H163 0.940 . S
C180 C179 1.404 . S
C180 C181 1.389 . S
C181 H164 0.939 . S
C181 C176 1.400 . S
C181 C180 1.389 . S
C182 P156 1.819 . S
C182 C183 1.391 . S
C182 C187 1.391 1_455 S
C183 H165 0.941 . S
C183 C182 1.391 . S
C183 C184 1.396 . S
C184 H168 0.939 . S
C184 C183 1.396 . S
C184 C185 1.397 . S
C185 C184 1.397 . S
C185 C186 1.385 1_455 S
C186 H169 0.940 . S
C186 C185 1.385 1_655 S
C186 C187 1.388 . S
C187 H166 0.939 . S
C187 C182 1.391 1_655 S
C187 C186 1.388 . S
P188 O199 1.490 . S
P188 C202 1.812 . S
P188 C208 1.803 1_545 S
P188 C214 1.819 . S
H189 C203 0.941 . S
H190 C204 0.939 . S
H191 C206 0.940 . S
H192 C207 0.940 . S
H193 C209 0.939 . S
H194 C210 0.942 . S
H195 C212 0.940 . S
H196 C213 0.939 . S
H197 C215 0.941 . S
H198 C219 0.939 . S
O199 P188 1.490 . S
H200 C216 0.939 . S
H201 C218 0.940 . S
C202 P188 1.812 . S
C202 C203 1.389 . S
C202 C207 1.391 . S
C203 H189 0.941 . S
C203 C202 1.389 . S
C203 C204 1.397 . S
C204 H190 0.939 . S
C204 C203 1.397 . S
C204 C205 1.378 . S
C205 C204 1.378 . S
C205 C206 1.378 . S
C206 H191 0.940 . S
C206 C205 1.378 . S
C206 C207 1.396 . S
C207 H192 0.940 . S
C207 C202 1.391 . S
C207 C206 1.396 . S
C208 P188 1.803 1_565 S
C208 C209 1.378 . S
C208 C213 1.400 . S
C209 H193 0.939 . S
C209 C208 1.378 . S
C209 C210 1.361 . S
C210 H194 0.942 . S
C210 C209 1.361 . S
C210 C211 1.369 . S
C211 C210 1.369 . S
C211 C212 1.404 . S
C212 H195 0.940 . S
C212 C211 1.404 . S
C212 C213 1.389 . S
C213 H196 0.939 . S
C213 C208 1.400 . S
C213 C212 1.389 . S
C214 P188 1.819 . S
C214 C215 1.391 . S
C214 C219 1.391 1_545 S
C215 H197 0.941 . S
C215 C214 1.391 . S
C215 C216 1.396 . S
C216 H200 0.939 . S
C216 C215 1.396 . S
C216 C217 1.397 . S
C217 C216 1.397 . S
C217 C218 1.385 1_545 S
C218 H201 0.940 . S
C218 C217 1.385 1_565 S
C218 C219 1.388 . S
C219 H198 0.939 . S
C219 C214 1.391 1_565 S
C219 C218 1.388 . S
P220 O231 1.490 . S
P220 C234 1.812 . S
P220 C240 1.803 . S
P220 C246 1.819 . S
H221 C235 0.941 . S
H222 C236 0.939 . S
H223 C238 0.940 . S
H224 C239 0.940 . S
H225 C241 0.939 . S
H226 C242 0.942 . S
H227 C244 0.940 . S
H228 C245 0.939 . S
H229 C247 0.941 . S
H230 C251 0.939 . S
O231 P220 1.490 . S
H232 C248 0.939 . S
H233 C250 0.940 . S
C234 P220 1.812 . S
C234 C235 1.389 . S
C234 C239 1.391 . S
C235 H221 0.941 . S
C235 C234 1.389 . S
C235 C236 1.397 . S
C236 H222 0.939 . S
C236 C235 1.397 . S
C236 C237 1.378 . S
C237 C236 1.378 . S
C237 C238 1.378 . S
C238 H223 0.940 . S
C238 C237 1.378 . S
C238 C239 1.396 . S
C239 H224 0.940 . S
C239 C234 1.391 . S
C239 C238 1.396 . S
C240 P220 1.803 . S
C240 C241 1.378 . S
C240 C245 1.400 . S
C241 H225 0.939 . S
C241 C240 1.378 . S
C241 C242 1.361 . S
C242 H226 0.942 . S
C242 C241 1.361 . S
C242 C243 1.369 . S
C243 C242 1.369 . S
C243 C244 1.404 . S
C244 H227 0.940 . S
C244 C243 1.404 . S
C244 C245 1.389 . S
C245 H228 0.939 . S
C245 C240 1.400 . S
C245 C244 1.389 . S
C246 P220 1.819 . S
C246 C247 1.391 . S
C246 C251 1.391 . S
C247 H229 0.941 . S
C247 C246 1.391 . S
C247 C248 1.396 . S
C248 H232 0.939 . S
C248 C247 1.396 . S
C248 C249 1.397 . S
C249 C248 1.397 . S
C249 C250 1.385 . S
C250 H233 0.940 . S
C250 C249 1.385 . S
C250 C251 1.388 . S
C251 H230 0.939 . S
C251 C246 1.391 . S
C251 C250 1.388 . S
H252 C258 0.930 . S
H253 C261 0.930 . S
H254 C262 0.930 . S
H255 C263 0.930 . S
H256 C266 0.930 . S
H257 C267 0.930 . S
C258 H252 0.930 . S
C258 C259 1.355 . S
C258 C260 1.415 . S
C259 C258 1.355 . S
C259 C261 1.419 . S
C260 C258 1.415 . S
C260 C265 1.425 . S
C260 C267 1.409 . S
C261 H253 0.930 . S
C261 C259 1.419 . S
C261 C262 1.362 . S
C262 H254 0.930 . S
C262 C261 1.362 . S
C262 C265 1.409 . S
C263 H255 0.930 . S
C263 C264 1.355 . S
C263 C265 1.415 . S
C264 C263 1.355 . S
C264 C266 1.419 . S
C265 C260 1.425 . S
C265 C262 1.409 . S
C265 C263 1.415 . S
C266 H256 0.930 . S
C266 C264 1.419 . S
C266 C267 1.362 . S
C267 H257 0.930 . S
C267 C260 1.409 . S
C267 C266 1.362 . S
H268 C274 0.930 . S
H269 C277 0.930 . S
H270 C278 0.930 . S
H271 C279 0.930 . S
H272 C282 0.930 . S
H273 C283 0.930 . S
C274 H268 0.930 . S
C274 C275 1.355 . S
C274 C276 1.415 . S
C275 C274 1.355 . S
C275 C277 1.419 . S
C276 C274 1.415 . S
C276 C281 1.425 . S
C276 C283 1.409 . S
C277 H269 0.930 . S
C277 C275 1.419 . S
C277 C278 1.362 . S
C278 H270 0.930 . S
C278 C277 1.362 . S
C278 C281 1.409 . S
C279 H271 0.930 . S
C279 C280 1.355 . S
C279 C281 1.415 . S
C280 C279 1.355 . S
C280 C282 1.419 . S
C281 C276 1.425 . S
C281 C278 1.409 . S
C281 C279 1.415 . S
C282 H272 0.930 . S
C282 C280 1.419 . S
C282 C283 1.362 . S
C283 H273 0.930 . S
C283 C276 1.409 . S
C283 C282 1.362 . S
H284 C290 0.930 . S
H285 C293 0.930 . S
H286 C294 0.930 . S
H287 C295 0.930 . S
H288 C298 0.930 . S
H289 C299 0.930 . S
C290 H284 0.930 . S
C290 C291 1.355 . S
C290 C292 1.415 . S
C291 C290 1.355 . S
C291 C293 1.419 . S
C292 C290 1.415 . S
C292 C297 1.425 . S
C292 C299 1.409 . S
C293 H285 0.930 . S
C293 C291 1.419 . S
C293 C294 1.362 . S
C294 H286 0.930 . S
C294 C293 1.362 . S
C294 C297 1.409 . S
C295 H287 0.930 . S
C295 C296 1.355 . S
C295 C297 1.415 . S
C296 C295 1.355 . S
C296 C298 1.419 . S
C297 C292 1.425 . S
C297 C294 1.409 . S
C297 C295 1.415 . S
C298 H288 0.930 . S
C298 C296 1.419 . S
C298 C299 1.362 . S
C299 H289 0.930 . S
C299 C292 1.409 . S
C299 C298 1.362 . S
H300 C306 0.930 . S
H301 C309 0.930 . S
H302 C310 0.930 . S
H303 C311 0.930 . S
H304 C314 0.930 . S
H305 C315 0.930 . S
C306 H300 0.930 . S
C306 C307 1.355 . S
C306 C308 1.415 . S
C307 C306 1.355 . S
C307 C309 1.419 . S
C308 C306 1.415 . S
C308 C313 1.425 . S
C308 C315 1.409 . S
C309 H301 0.930 . S
C309 C307 1.419 . S
C309 C310 1.362 . S
C310 H302 0.930 . S
C310 C309 1.362 . S
C310 C313 1.409 . S
C311 H303 0.930 . S
C311 C312 1.355 . S
C311 C313 1.415 . S
C312 C311 1.355 . S
C312 C314 1.419 . S
C313 C308 1.425 . S
C313 C310 1.409 . S
C313 C311 1.415 . S
C314 H304 0.930 . S
C314 C312 1.419 . S
C314 C315 1.362 . S
C315 H305 0.930 . S
C315 C308 1.409 . S
C315 C314 1.362 . S
H316 C322 0.930 . S
H317 C325 0.930 . S
H318 C326 0.930 . S
H319 C327 0.930 . S
H320 C330 0.930 . S
H321 C331 0.930 . S
C322 H316 0.930 . S
C322 C323 1.355 . S
C322 C324 1.415 . S
C323 C322 1.355 . S
C323 C325 1.419 . S
C324 C322 1.415 . S
C324 C329 1.425 . S
C324 C331 1.409 . S
C325 H317 0.930 . S
C325 C323 1.419 . S
C325 C326 1.362 . S
C326 H318 0.930 . S
C326 C325 1.362 . S
C326 C329 1.409 . S
C327 H319 0.930 . S
C327 C328 1.355 . S
C327 C329 1.415 . S
C328 C327 1.355 . S
C328 C330 1.419 . S
C329 C324 1.425 . S
C329 C326 1.409 . S
C329 C327 1.415 . S
C330 H320 0.930 . S
C330 C328 1.419 . S
C330 C331 1.362 . S
C331 H321 0.930 . S
C331 C324 1.409 . S
C331 C330 1.362 . S
H332 C338 0.930 . S
H333 C341 0.930 . S
H334 C342 0.930 . S
H335 C343 0.930 . S
H336 C346 0.930 . S
H337 C347 0.930 . S
C338 H332 0.930 . S
C338 C339 1.355 . S
C338 C340 1.415 . S
C339 C338 1.355 . S
C339 C341 1.419 . S
C340 C338 1.415 . S
C340 C345 1.425 . S
C340 C347 1.409 . S
C341 H333 0.930 . S
C341 C339 1.419 . S
C341 C342 1.362 . S
C342 H334 0.930 . S
C342 C341 1.362 . S
C342 C345 1.409 . S
C343 H335 0.930 . S
C343 C344 1.355 . S
C343 C345 1.415 . S
C344 C343 1.355 . S
C344 C346 1.419 . S
C345 C340 1.425 . S
C345 C342 1.409 . S
C345 C343 1.415 . S
C346 H336 0.930 . S
C346 C344 1.419 . S
C346 C347 1.362 . S
C347 H337 0.930 . S
C347 C340 1.409 . S
C347 C346 1.362 . S
H348 C354 0.930 . S
H349 C357 0.930 . S
H350 C358 0.930 . S
H351 C359 0.930 . S
H352 C362 0.930 . S
H353 C363 0.930 . S
C354 H348 0.930 . S
C354 C355 1.355 . S
C354 C356 1.415 . S
C355 C354 1.355 . S
C355 C357 1.419 . S
C356 C354 1.415 . S
C356 C361 1.425 . S
C356 C363 1.409 . S
C357 H349 0.930 . S
C357 C355 1.419 . S
C357 C358 1.362 . S
C358 H350 0.930 . S
C358 C357 1.362 . S
C358 C361 1.409 . S
C359 H351 0.930 . S
C359 C360 1.355 . S
C359 C361 1.415 . S
C360 C359 1.355 . S
C360 C362 1.419 . S
C361 C356 1.425 . S
C361 C358 1.409 . S
C361 C359 1.415 . S
C362 H352 0.930 . S
C362 C360 1.419 . S
C362 C363 1.362 . S
C363 H353 0.930 . S
C363 C356 1.409 . S
C363 C362 1.362 . S
H364 C370 0.930 . S
H365 C373 0.930 . S
H366 C374 0.930 . S
H367 C375 0.930 . S
H368 C378 0.930 . S
H369 C379 0.930 . S
C370 H364 0.930 . S
C370 C371 1.355 . S
C370 C372 1.415 . S
C371 C370 1.355 . S
C371 C373 1.419 . S
C372 C370 1.415 . S
C372 C377 1.425 . S
C372 C379 1.409 . S
C373 H365 0.930 . S
C373 C371 1.419 . S
C373 C374 1.362 . S
C374 H366 0.930 . S
C374 C373 1.362 . S
C374 C377 1.409 . S
C375 H367 0.930 . S
C375 C376 1.355 . S
C375 C377 1.415 . S
C376 C375 1.355 . S
C376 C378 1.419 . S
C377 C372 1.425 . S
C377 C374 1.409 . S
C377 C375 1.415 . S
C378 H368 0.930 . S
C378 C376 1.419 . S
C378 C379 1.362 . S
C379 H369 0.930 . S
C379 C372 1.409 . S
C379 C378 1.362 . S
H380 C386 0.930 . S
H381 C389 0.930 . S
H382 C390 0.930 . S
H383 C391 0.930 . S
H384 C394 0.930 . S
H385 C395 0.930 . S
C386 H380 0.930 . S
C386 C387 1.355 . S
C386 C388 1.415 . S
C387 C386 1.355 . S
C387 C389 1.419 . S
C388 C386 1.415 . S
C388 C393 1.425 . S
C388 C395 1.409 . S
C389 H381 0.930 . S
C389 C387 1.419 . S
C389 C390 1.362 . S
C390 H382 0.930 . S
C390 C389 1.362 . S
C390 C393 1.409 . S
C391 H383 0.930 . S
C391 C392 1.355 . S
C391 C393 1.415 . S
C392 C391 1.355 . S
C392 C394 1.419 . S
C393 C388 1.425 . S
C393 C390 1.409 . S
C393 C391 1.415 . S
C394 H384 0.930 . S
C394 C392 1.419 . S
C394 C395 1.362 . S
C395 H385 0.930 . S
C395 C388 1.409 . S
C395 C394 1.362 . S
H396 C402 0.930 . S
H397 C405 0.930 . S
H398 C406 0.930 . S
H399 C407 0.930 . S
H400 C410 0.930 . S
H401 C411 0.930 . S
C402 H396 0.930 . S
C402 C403 1.355 . S
C402 C404 1.415 . S
C403 C402 1.355 . S
C403 C405 1.419 . S
C404 C402 1.415 . S
C404 C409 1.425 . S
C404 C411 1.409 . S
C405 H397 0.930 . S
C405 C403 1.419 . S
C405 C406 1.362 . S
C406 H398 0.930 . S
C406 C405 1.362 . S
C406 C409 1.409 . S
C407 H399 0.930 . S
C407 C408 1.355 . S
C407 C409 1.415 . S
C408 C407 1.355 . S
C408 C410 1.419 . S
C409 C404 1.425 . S
C409 C406 1.409 . S
C409 C407 1.415 . S
C410 H400 0.930 . S
C410 C408 1.419 . S
C410 C411 1.362 . S
C411 H401 0.930 . S
C411 C404 1.409 . S
C411 C410 1.362 . S
H412 C418 0.930 . S
H413 C421 0.930 . S
H414 C422 0.930 . S
H415 C423 0.930 . S
H416 C426 0.930 . S
H417 C427 0.930 . S
C418 H412 0.930 . S
C418 C419 1.355 . S
C418 C420 1.415 . S
C419 C418 1.355 . S
C419 C421 1.419 . S
C420 C418 1.415 . S
C420 C425 1.425 . S
C420 C427 1.409 . S
C421 H413 0.930 . S
C421 C419 1.419 . S
C421 C422 1.362 . S
C422 H414 0.930 . S
C422 C421 1.362 . S
C422 C425 1.409 . S
C423 H415 0.930 . S
C423 C424 1.355 . S
C423 C425 1.415 . S
C424 C423 1.355 . S
C424 C426 1.419 . S
C425 C420 1.425 . S
C425 C422 1.409 . S
C425 C423 1.415 . S
C426 H416 0.930 . S
C426 C424 1.419 . S
C426 C427 1.362 . S
C427 H417 0.930 . S
C427 C420 1.409 . S
C427 C426 1.362 . S
H428 C434 0.930 . S
H429 C437 0.930 . S
H430 C438 0.930 . S
H431 C439 0.930 . S
H432 C442 0.930 . S
H433 C443 0.930 . S
C434 H428 0.930 . S
C434 C435 1.355 . S
C434 C436 1.415 . S
C435 C434 1.355 . S
C435 C437 1.419 . S
C436 C434 1.415 . S
C436 C441 1.425 . S
C436 C443 1.409 . S
C437 H429 0.930 . S
C437 C435 1.419 . S
C437 C438 1.362 . S
C438 H430 0.930 . S
C438 C437 1.362 . S
C438 C441 1.409 . S
C439 H431 0.930 . S
C439 C440 1.355 . S
C439 C441 1.415 . S
C440 C439 1.355 . S
C440 C442 1.419 . S
C441 C436 1.425 . S
C441 C438 1.409 . S
C441 C439 1.415 . S
C442 H432 0.930 . S
C442 C440 1.419 . S
C442 C443 1.362 . S
C443 H433 0.930 . S
C443 C436 1.409 . S
C443 C442 1.362 . S
H444 C450 0.930 1_655 S
H445 C453 0.930 . S
H446 C454 0.930 . S
H447 C455 0.930 . S
H448 C458 0.930 1_655 S
H449 C459 0.930 1_655 S
C450 H444 0.930 1_455 S
C450 C451 1.355 . S
C450 C452 1.415 . S
C451 C450 1.355 . S
C451 C453 1.419 . S
C452 C450 1.415 . S
C452 C457 1.425 . S
C452 C459 1.409 . S
C453 H445 0.930 . S
C453 C451 1.419 . S
C453 C454 1.362 . S
C454 H446 0.930 . S
C454 C453 1.362 . S
C454 C457 1.409 . S
C455 H447 0.930 . S
C455 C456 1.355 1_554 S
C455 C457 1.415 . S
C456 C455 1.355 1_556 S
C456 C458 1.419 . S
C457 C452 1.425 . S
C457 C454 1.409 . S
C457 C455 1.415 . S
C458 H448 0.930 1_455 S
C458 C456 1.419 . S
C458 C459 1.362 1_556 S
C459 H449 0.930 1_455 S
C459 C452 1.409 . S
C459 C458 1.362 1_554 S
H460 C466 0.930 . S
H461 C469 0.930 . S
H462 C470 0.930 . S
H463 C471 0.930 . S
H464 C474 0.930 . S
H465 C475 0.930 . S
C466 H460 0.930 . S
C466 C467 1.355 . S
C466 C468 1.415 . S
C467 C466 1.355 . S
C467 C469 1.419 . S
C468 C466 1.415 . S
C468 C473 1.425 . S
C468 C475 1.409 . S
C469 H461 0.930 . S
C469 C467 1.419 . S
C469 C470 1.362 . S
C470 H462 0.930 . S
C470 C469 1.362 . S
C470 C473 1.409 . S
C471 H463 0.930 . S
C471 C472 1.355 . S
C471 C473 1.415 . S
C472 C471 1.355 . S
C472 C474 1.419 . S
C473 C468 1.425 . S
C473 C470 1.409 . S
C473 C471 1.415 . S
C474 H464 0.930 . S
C474 C472 1.419 . S
C474 C475 1.362 . S
C475 H465 0.930 . S
C475 C468 1.409 . S
C475 C474 1.362 . S
H476 C482 0.930 . S
H477 C485 0.930 . S
H478 C486 0.930 . S
H479 C487 0.930 . S
H480 C490 0.930 . S
H481 C491 0.930 . S
C482 H476 0.930 . S
C482 C483 1.355 . S
C482 C484 1.415 . S
C483 C482 1.355 . S
C483 C485 1.419 . S
C484 C482 1.415 . S
C484 C489 1.425 . S
C484 C491 1.409 . S
C485 H477 0.930 . S
C485 C483 1.419 . S
C485 C486 1.362 . S
C486 H478 0.930 . S
C486 C485 1.362 . S
C486 C489 1.409 . S
C487 H479 0.930 . S
C487 C488 1.355 . S
C487 C489 1.415 . S
C488 C487 1.355 . S
C488 C490 1.419 . S
C489 C484 1.425 . S
C489 C486 1.409 . S
C489 C487 1.415 . S
C490 H480 0.930 . S
C490 C488 1.419 . S
C490 C491 1.362 . S
C491 H481 0.930 . S
C491 C484 1.409 . S
C491 C490 1.362 . S
H492 C498 0.930 . S
H493 C501 0.930 . S
H494 C502 0.930 . S
H495 C503 0.930 1_565 S
H496 C506 0.930 . S
H497 C507 0.930 . S
C498 H492 0.930 . S
C498 C499 1.355 . S
C498 C500 1.415 . S
C499 C498 1.355 . S
C499 C501 1.419 . S
C500 C498 1.415 . S
C500 C505 1.425 . S
C500 C507 1.409 . S
C501 H493 0.930 . S
C501 C499 1.419 . S
C501 C502 1.362 . S
C502 H494 0.930 . S
C502 C501 1.362 . S
C502 C505 1.409 . S
C503 H495 0.930 1_545 S
C503 C504 1.355 . S
C503 C505 1.415 . S
C504 C503 1.355 . S
C504 C506 1.419 . S
C505 C500 1.425 . S
C505 C502 1.409 . S
C505 C503 1.415 . S
C506 H496 0.930 . S
C506 C504 1.419 . S
C506 C507 1.362 . S
C507 H497 0.930 . S
C507 C500 1.409 . S
C507 C506 1.362 . S
H508 C514 0.930 . S
H509 C517 0.930 . S
H510 C518 0.930 . S
H511 C519 0.936 . S
H512 C522 0.930 . S
H513 C523 0.930 . S
C514 H508 0.930 . S
C514 C515 1.355 . S
C514 C516 1.415 . S
C515 C514 1.355 . S
C515 C517 1.419 . S
C516 C514 1.415 . S
C516 C521 1.425 . S
C516 C523 1.409 . S
C517 H509 0.930 . S
C517 C515 1.419 . S
C517 C518 1.362 . S
C518 H510 0.930 . S
C518 C517 1.362 . S
C518 C521 1.409 . S
C519 H511 0.936 . S
C519 C520 1.355 1_556 S
C519 C521 1.415 . S
C520 C519 1.355 1_554 S
C520 C522 1.419 1_554 S
C521 C516 1.425 . S
C521 C518 1.409 . S
C521 C519 1.415 . S
C522 H512 0.930 . S
C522 C520 1.419 1_556 S
C522 C523 1.362 . S
C523 H513 0.930 . S
C523 C516 1.409 . S
C523 C522 1.362 . S
H524 C530 0.930 1_655 S
H525 C533 0.930 . S
H526 C534 0.930 . S
H527 C535 0.930 . S
H528 C538 0.930 . S
H529 C539 0.930 . S
C530 H524 0.930 1_455 S
C530 C531 1.355 . S
C530 C532 1.415 . S
C531 C530 1.355 . S
C531 C533 1.419 . S
C532 C530 1.415 . S
C532 C537 1.425 . S
C532 C539 1.409 1_455 S
C533 H525 0.930 . S
C533 C531 1.419 . S
C533 C534 1.362 . S
C534 H526 0.930 . S
C534 C533 1.362 . S
C534 C537 1.409 . S
C535 H527 0.930 . S
C535 C536 1.355 . S
C535 C537 1.415 . S
C536 C535 1.355 . S
C536 C538 1.419 1_455 S
C537 C532 1.425 . S
C537 C534 1.409 . S
C537 C535 1.415 . S
C538 H528 0.930 . S
C538 C536 1.419 1_655 S
C538 C539 1.362 . S
C539 H529 0.930 . S
C539 C532 1.409 1_655 S
C539 C538 1.362 . S
C259 C8 1.976 . S
C264 C243 1.985 . S
C275 C26 1.328 . S
C280 C179 1.360 . S
C291 C48 1.538 . S
C296 C211 1.497 . S
C307 C19 1.810 . S
C312 C237 1.864 . S
C328 C173 1.475 . S
C323 C36 1.495 . S
C344 C205 1.648 . S
C339 C59 1.636 . S
C355 C28 1.495 . S
C360 C115 1.545 . S
C371 C46 1.161 . S
C376 C147 1.233 . S
C387 C16 1.488 . S
C392 C77 1.486 . S
C408 C109 1.646 . S
C403 C39 1.597 . S
C424 C141 1.030 . S
C419 C56 1.069 . S
C435 C6 1.418 . S
C440 C83 1.304 . S
C456 C153 1.428 . S
C451 C9 1.422 . S
C467 C21 1.478 . S
C472 C89 1.493 . S
C483 C49 1.458 . S
C488 C121 1.419 . S
C504 C217 1.462 . S
C499 C29 1.461 . S
C520 C249 1.537 . S
C515 C41 1.562 . S
C531 C1 1.494 . S
C536 C185 1.436 . S
