# Generated by pormake.
# Topology pyr, (3,6)-cn, num edge types: 1
# Building blocks:
#     Node 0, Type 0, BuildingBlock: PAMTOO_clean_linker_0, # of connection points: 3
#     Node 1, Type 0, BuildingBlock: PAMTOO_clean_linker_0, # of connection points: 3
#     Node 2, Type 0, BuildingBlock: PAMTOO_clean_linker_0, # of connection points: 3
#     Node 3, Type 0, BuildingBlock: PAMTOO_clean_linker_0, # of connection points: 3
#     Node 4, Type 0, BuildingBlock: PAMTOO_clean_linker_0, # of connection points: 3
#     Node 5, Type 0, BuildingBlock: PAMTOO_clean_linker_0, # of connection points: 3
#     Node 6, Type 0, BuildingBlock: PAMTOO_clean_linker_0, # of connection points: 3
#     Node 7, Type 0, BuildingBlock: PAMTOO_clean_linker_0, # of connection points: 3
#     Node 8, Type 1, BuildingBlock: INOVEN_clean_sbu_0, # of connection points: 6
#     Node 9, Type 1, BuildingBlock: INOVEN_clean_sbu_0, # of connection points: 6
#     Node 10, Type 1, BuildingBlock: INOVEN_clean_sbu_0, # of connection points: 6
#     Node 11, Type 1, BuildingBlock: INOVEN_clean_sbu_0, # of connection points: 6
#     Edge 12, Type (0, 1), None
#     Edge 13, Type (0, 1), None
#     Edge 14, Type (0, 1), None
#     Edge 15, Type (0, 1), None
#     Edge 16, Type (0, 1), None
#     Edge 17, Type (0, 1), None
#     Edge 18, Type (0, 1), None
#     Edge 19, Type (0, 1), None
#     Edge 20, Type (0, 1), None
#     Edge 21, Type (0, 1), None
#     Edge 22, Type (0, 1), None
#     Edge 23, Type (0, 1), None
#     Edge 24, Type (0, 1), None
#     Edge 25, Type (0, 1), None
#     Edge 26, Type (0, 1), None
#     Edge 27, Type (0, 1), None
#     Edge 28, Type (0, 1), None
#     Edge 29, Type (0, 1), None
#     Edge 30, Type (0, 1), None
#     Edge 31, Type (0, 1), None
#     Edge 32, Type (0, 1), None
#     Edge 33, Type (0, 1), None
#     Edge 34, Type (0, 1), None
#     Edge 35, Type (0, 1), None
# Relax obj value: 0.483
# Max RMSD: 0.276
# Mean RMSD: 0.169
data_MOF--net-pyr--node1-INOVEN_clean_sbu_0--node2-PAMTOO_clean_linker_0--edge1-none
_symmetry_space_group_name_H-M    P1
_symmetry_Int_Tables_number       1
_symmetry_cell_setting            triclinic
loop_
_symmetry_equiv_pos_as_xyz
'x, y, z'
_cell_length_a     16.928818
_cell_length_b     17.88341
_cell_length_c     16.22517
_cell_angle_alpha  92.452473
_cell_angle_beta   86.765564
_cell_angle_gamma 112.90319
loop_
_atom_site_label
_atom_site_type_symbol
_atom_site_fract_x
_atom_site_fract_y
_atom_site_fract_z
_atom_type_partial_charge
H0 H 0.43105 0.56185 0.27012 0.0
H1 H 0.60925 0.50002 0.3977 0.0
H2 H 0.49363 0.36079 0.18502 0.0
H3 H 0.51557 0.30226 0.36013 0.0
C4 C 0.58371 0.31902 0.33799 0.0
O5 O 0.61406 0.38926 0.29286 0.0
H6 H 0.6234 0.32809 0.39264 0.0
C7 C 0.472 0.52826 0.27329 0.0
C8 C 0.45591 0.46089 0.21954 0.0
C9 C 0.50787 0.52663 0.34857 0.0
C10 C 0.57163 0.49453 0.34468 0.0
C11 C 0.56796 0.43501 0.2843 0.0
C12 C 0.50624 0.41474 0.22372 0.0
H13 H 0.25324 1.11797 0.81124 0.0
H14 H 0.26656 1.03866 0.55957 0.0
H15 H 0.25781 0.88144 0.75518 0.0
H16 H 0.37411 0.96667 0.52127 0.0
C17 C 0.34663 0.90768 0.55342 0.0
O18 O 0.2701 0.89938 0.59454 0.0
H19 H 0.33243 0.85871 0.50523 0.0
C20 C 0.25471 1.07127 0.76702 0.0
C21 C 0.25157 0.99647 0.79417 0.0
C22 C 0.25994 1.08716 0.6832 0.0
C23 C 0.26406 1.02824 0.62515 0.0
C24 C 0.2642 0.95474 0.65119 0.0
C25 C 0.25783 0.93862 0.73562 0.0
H26 H 0.82931 0.38566 1.10951 0.0
H27 H 0.64746 0.37869 0.9287 0.0
H28 H 0.88817 0.58351 0.94243 0.0
H29 H 0.79358 0.64618 0.88942 0.0
C30 C 0.73417 0.5982 0.86629 0.0
O31 O 0.74548 0.52387 0.86172 0.0
H32 H 0.68136 0.59269 0.91258 0.0
C33 C 0.81099 0.41303 1.05952 0.0
C34 C 0.86814 0.49046 1.03164 0.0
C35 C 0.73049 0.37065 1.0233 0.0
C36 C 0.70806 0.40963 0.95781 0.0
C37 C 0.76416 0.4878 0.92857 0.0
C38 C 0.84397 0.52564 0.96572 0.0
H39 H 0.90243 0.93058 0.61374 0.0
H40 H 0.89641 0.71407 0.48308 0.0
H41 H 0.11019 0.94287 0.44274 0.0
H42 H 1.04087 0.81005 0.28262 0.0
C43 C 1.02865 0.75674 0.32162 0.0
O44 O 1.04718 0.78373 0.40323 0.0
H45 H 0.9594 0.71705 0.31802 0.0
C46 C 0.9303 0.90117 0.5676 0.0
C47 C 1.00918 0.94801 0.52873 0.0
C48 C 0.88893 0.81725 0.5526 0.0
C49 C 0.9265 0.77907 0.49363 0.0
C50 C 1.00577 0.82398 0.45152 0.0
C51 C 1.04696 0.90896 0.46994 0.0
H52 H 0.62862 0.93985 0.90572 0.0
H53 H 0.70749 1.01402 0.15253 0.0
H54 H 0.74612 0.81229 1.04183 0.0
H55 H 0.75424 0.80618 0.19811 0.0
C56 C 0.81239 0.86364 0.19391 0.0
O57 O 0.79418 0.9234 0.15773 0.0
H58 H 0.83198 0.88455 0.2578 0.0
C59 C 0.65307 0.92831 0.96193 0.0
C60 C 0.69659 0.87487 0.96148 0.0
C61 C 0.65756 0.9796 1.03057 0.0
C62 C 0.69625 0.97032 1.10205 0.0
C63 C 0.73045 0.91128 1.10499 0.0
C64 C 0.71974 0.8574 1.03808 0.0
H65 H 0.93455 0.19234 0.52193 0.0
H66 H 1.01753 0.4524 0.52173 0.0
H67 H 0.98769 0.32944 0.75018 0.0
H68 H 1.00983 0.56357 0.74253 0.0
C69 C 0.97368 0.49865 0.72595 0.0
O70 O 1.02981 0.47016 0.68358 0.0
H71 H 0.94977 0.46483 0.7842 0.0
C72 C 0.95219 0.2502 0.55503 0.0
C73 C 0.95888 0.25238 0.64034 0.0
C74 C 0.97367 0.32185 0.51144 0.0
C75 C 0.99898 0.3964 0.55485 0.0
C76 C 1.0029 0.39848 0.64127 0.0
C77 C 0.98095 0.32644 0.68396 0.0
H78 H 0.40277 0.91015 0.16913 0.0
H79 H 0.36961 0.70676 0.32225 0.0
H80 H 0.57772 0.93633 0.36308 0.0
H81 H 0.62157 0.79147 0.38699 0.0
C82 C 0.55914 0.74768 0.41244 0.0
O83 O 0.50071 0.78603 0.41743 0.0
H84 H 0.53679 0.69605 0.36734 0.0
C85 C 0.42344 0.88444 0.21885 0.0
C86 C 0.49796 0.93481 0.26215 0.0
C87 C 0.37537 0.8012 0.2394 0.0
C88 C 0.40494 0.76914 0.30464 0.0
C89 C 0.47761 0.81721 0.35003 0.0
C90 C 0.5226 0.8996 0.32822 0.0
H91 H 0.09198 0.39087 0.9165 0.0
H92 H 0.29638 0.6292 0.88693 0.0
H93 H 0.28436 0.43527 0.71864 0.0
H94 H 0.43043 0.50301 0.77153 0.0
C95 C 0.44395 0.56843 0.76328 0.0
O96 O 0.36963 0.58176 0.7558 0.0
H97 H 0.4755 0.60176 0.81968 0.0
C98 C 0.1506 0.43104 0.88557 0.0
C99 C 0.18672 0.40026 0.81648 0.0
C100 C 0.18913 0.51532 0.91223 0.0
C101 C 0.26491 0.56581 0.86898 0.0
C102 C 0.2972 0.53574 0.79878 0.0
C103 C 0.25702 0.45541 0.77305 0.0
Gd104 Gd 0.14356 0.21992 0.59355 0.0
Gd105 Gd 0.0753 1.12802 0.74808 0.0
C106 C 0.15155 0.31618 0.77667 0.0
C107 C 0.19656 0.3363 0.49041 0.0
C108 C 0.2822 0.40063 0.47959 0.0
C109 C 0.35462 0.38515 0.49613 0.0
C110 C 0.29306 0.47647 0.44994 0.0
C111 C 0.44489 0.50564 0.42137 0.0
C112 C 0.37493 0.53036 0.42381 0.0
C113 C 0.43558 0.43753 0.46795 0.0
C114 C 0.25118 0.16102 0.65678 0.0
C115 C 1.0552 1.03079 0.56708 0.0
C116 C 1.01579 1.00811 0.84493 0.0
C117 C 0.92699 0.95071 0.84337 0.0
C118 C 0.86714 0.97644 0.81135 0.0
C119 C 0.89899 0.87417 0.87782 0.0
C120 C 0.75448 0.87274 0.88864 0.0
C121 C 0.81118 0.83229 0.89513 0.0
C122 C 0.78131 0.93856 0.83479 0.0
C123 C 0.96651 0.18272 0.67756 0.0
O124 O 0.14827 0.31434 0.69496 0.0
O125 O 0.14079 0.24895 0.8155 0.0
O126 O 0.19091 0.26267 0.47063 0.0
O127 O 0.15568 0.33998 0.55988 0.0
O128 O 0.24985 0.17413 0.57932 0.0
O129 O 0.20561 0.1922 0.6974 0.0
O130 O 0.06623 1.03203 0.64733 0.0
O131 O 0.06602 1.09919 0.53033 0.0
O132 O 1.02579 1.08187 0.86958 0.0
O133 O 0.06196 1.00665 0.7785 0.0
O134 O 0.97057 0.17804 0.75633 0.0
O135 O 1.01379 1.15102 0.64231 0.0
H136 H 0.34798 0.32899 0.52413 0.0
H137 H 0.23796 0.49147 0.44136 0.0
H138 H 0.38055 0.5856 0.39465 0.0
H139 H 0.48772 0.41759 0.47312 0.0
H140 H 0.88751 1.03179 0.77732 0.0
H141 H 0.94451 0.84987 0.89642 0.0
H142 H 0.79115 0.77566 0.92704 0.0
H143 H 0.74116 0.97059 0.82178 0.0
Gd144 Gd 0.68788 0.16228 0.1806 0.0
Gd145 Gd 0.53767 1.14972 1.11401 0.0
C146 C 0.5913 0.25312 0.28359 0.0
C147 C 0.84621 0.19238 0.21013 0.0
C148 C 0.90409 0.24975 0.26798 0.0
C149 C 0.88218 0.31167 0.30586 0.0
C150 C 0.96799 0.23004 0.3004 0.0
C151 C 0.96859 0.31552 0.42085 0.0
C152 C 1.00052 0.26317 0.3764 0.0
C153 C 0.91443 0.34458 0.38239 0.0
C154 C 0.55119 1.02358 0.2391 0.0
C155 C 0.6393 1.05328 1.02485 0.0
C156 C 0.37966 1.11451 1.08303 0.0
C157 C 0.31933 1.04759 1.03592 0.0
C158 C 0.34962 0.99462 0.9908 0.0
C159 C 0.2439 1.0541 1.01419 0.0
C160 C 0.25276 0.98586 0.88388 0.0
C161 C 0.20942 1.02155 0.93885 0.0
C162 C 0.31684 0.96424 0.91395 0.0
C163 C 0.6713 0.28562 1.05285 0.0
O164 O 0.66752 0.25223 0.26827 0.0
O165 O 0.52736 0.21086 0.23673 0.0
O166 O 0.78118 1.13507 0.24574 0.0
O167 O 0.82386 0.22353 0.14887 0.0
O168 O 0.61281 1.07347 0.28254 0.0
O169 O 0.56505 1.04997 0.16628 0.0
O170 O 0.56081 1.04576 1.04658 0.0
O171 O 0.69978 1.12007 1.05021 0.0
O172 O 0.44421 0.16297 1.03789 0.0
O173 O 0.40268 1.09647 0.15242 0.0
O174 O 0.61115 0.23365 1.00928 0.0
O175 O 0.65894 0.26215 0.12756 0.0
H176 H 0.83363 0.3284 0.28074 0.0
H177 H 0.98578 0.18265 0.27171 0.0
H178 H 1.04293 0.24044 0.40456 0.0
H179 H 0.88934 0.38521 0.41528 0.0
H180 H 0.40654 0.987 1.0085 0.0
H181 H 0.21877 1.09356 1.04928 0.0
H182 H 0.15822 1.03676 0.91851 0.0
H183 H 0.35033 0.93505 0.87403 0.0
Gd184 Gd 0.64652 0.60508 0.59461 0.0
Gd185 Gd 0.65961 0.75619 0.68248 0.0
C186 C 0.71355 0.63 0.78523 0.0
C187 C 0.69901 0.49769 0.53393 0.0
C188 C 0.76809 0.48076 0.57059 0.0
C189 C 0.7506 0.43341 0.64159 0.0
C190 C 0.854 0.52855 0.54781 0.0
C191 C 0.90141 0.49232 0.67253 0.0
C192 C 0.91966 0.53579 0.59935 0.0
C193 C 0.81694 0.43897 0.69202 0.0
C194 C 0.50568 0.59626 0.69022 0.0
C195 C 0.57828 0.71665 0.49418 0.0
C196 C 0.6039 0.86304 0.73998 0.0
C197 C 0.53207 0.87828 0.70718 0.0
C198 C 0.5454 0.95536 0.67847 0.0
C199 C 0.45426 0.81273 0.69133 0.0
C200 C 0.40871 0.89914 0.61158 0.0
C201 C 0.39322 0.82319 0.64404 0.0
C202 C 0.48403 0.96576 0.63103 0.0
C203 C 0.81061 0.77226 0.60548 0.0
O204 O 0.71043 0.59152 0.71287 0.0
O205 O 0.6935 0.69543 0.79018 0.0
O206 O 0.62635 0.47771 0.57736 0.0
O207 O 0.72406 0.57018 0.50321 0.0
O208 O 0.50029 0.55572 0.62041 0.0
O209 O 0.58291 0.63205 0.70412 0.0
O210 O 0.59083 0.76116 0.56363 0.0
O211 O 0.59769 0.65172 0.48944 0.0
O212 O 0.67268 0.8819 0.69094 0.0
O213 O 0.58367 0.79305 0.77493 0.0
O214 O 0.80216 0.80263 0.67852 0.0
O215 O 0.73674 0.73439 0.57637 0.0
H216 H 0.68527 0.39586 0.66092 0.0
H217 H 0.87 0.56501 0.49303 0.0
H218 H 0.98493 0.57563 0.58236 0.0
H219 H 0.80202 0.40332 0.74733 0.0
H220 H 0.60504 1.00651 0.68922 0.0
H221 H 0.44217 0.75222 0.7117 0.0
H222 H 0.33522 0.77128 0.63016 0.0
H223 H 0.49673 1.02514 0.60707 0.0
Gd224 Gd 0.12746 0.58969 0.15892 0.0
Gd225 Gd 0.12263 0.68884 1.09685 0.0
C226 C 0.29298 0.74739 0.19594 0.0
C227 C 0.13968 0.46691 0.22654 0.0
C228 C 0.20699 0.43633 0.20321 0.0
C229 C 0.22407 0.38386 0.25422 0.0
C230 C 0.26542 0.47322 0.13764 0.0
C231 C 0.36793 0.42542 0.18996 0.0
C232 C 0.34567 0.46801 0.13112 0.0
C233 C 0.30381 0.37707 0.24645 0.0
C234 C 0.08331 0.71101 0.28424 0.0
C235 C 0.95299 0.53782 1.07067 0.0
C236 C 0.09664 0.80344 1.0283 0.0
C237 C 1.02402 0.8269 1.05717 0.0
C238 C 0.93892 0.76972 1.05233 0.0
C239 C 1.03859 0.89866 1.10421 0.0
C240 C 0.88624 0.85166 0.14563 0.0
C241 C 0.97018 0.91141 0.14704 0.0
C242 C 0.87177 0.78066 1.09799 0.0
C243 C 0.14435 0.55156 0.9772 0.0
O244 O 0.26625 0.66785 0.1925 0.0
O245 O 0.24106 0.77624 0.16452 0.0
O246 O 0.16854 0.53974 0.25999 0.0
O247 O 0.0854 0.45899 0.16973 0.0
O248 O 1.05392 0.65868 0.22323 0.0
O249 O 1.05662 0.65927 0.22365 0.0
O250 O 0.98197 0.61678 1.07567 0.0
O251 O 1.00482 0.50543 1.09546 0.0
O252 O 0.15746 0.81854 1.08037 0.0
O253 O 0.07518 0.73117 0.99425 0.0
O254 O 0.18694 0.61303 1.02671 0.0
O255 O 0.18303 0.61188 1.02686 0.0
H256 H 0.17981 0.35485 0.30494 0.0
H257 H 0.25317 0.51377 1.09734 0.0
H258 H 0.3941 0.50662 1.08801 0.0
H259 H 0.32002 0.34472 0.2934 0.0
H260 H 0.92403 0.71425 1.01602 0.0
H261 H 0.1032 0.94326 1.11078 0.0
H262 H 0.98314 0.96682 0.18339 0.0
H263 H 0.80821 0.73299 1.09614 0.0
loop_
_geom_bond_atom_site_label_1
_geom_bond_atom_site_label_2
_geom_bond_distance
_geom_bond_site_symmetry_2
_ccdc_geom_bond_type
H0 C7 0.929 . S
H1 C10 0.930 . S
H2 C12 0.929 . S
H3 C4 0.969 . S
C4 H3 0.969 . S
C4 O5 1.550 . S
C4 H6 0.973 . S
O5 C4 1.550 . S
O5 C11 1.412 . S
H6 C4 0.973 . S
C7 H0 0.929 . S
C7 C8 1.400 . S
C7 C9 1.364 . S
C8 C7 1.400 . S
C8 C12 1.377 . S
C9 C7 1.364 . S
C9 C10 1.374 . S
C10 H1 0.930 . S
C10 C9 1.374 . S
C10 C11 1.383 . S
C11 O5 1.412 . S
C11 C10 1.383 . S
C11 C12 1.394 . S
C12 H2 0.929 . S
C12 C8 1.377 . S
C12 C11 1.394 . S
H13 C20 0.929 . S
H14 C23 0.930 . S
H15 C25 0.929 . S
H16 C17 0.969 . S
C17 H16 0.969 . S
C17 O18 1.550 . S
C17 H19 0.973 . S
O18 C17 1.550 . S
O18 C24 1.412 . S
H19 C17 0.973 . S
C20 H13 0.929 . S
C20 C21 1.400 . S
C20 C22 1.364 . S
C21 C20 1.400 . S
C21 C25 1.377 . S
C22 C20 1.364 . S
C22 C23 1.374 . S
C23 H14 0.930 . S
C23 C22 1.374 . S
C23 C24 1.383 . S
C24 O18 1.412 . S
C24 C23 1.383 . S
C24 C25 1.394 . S
C25 H15 0.929 . S
C25 C21 1.377 . S
C25 C24 1.394 . S
H26 C33 0.929 . S
H27 C36 0.930 . S
H28 C38 0.929 . S
H29 C30 0.969 . S
C30 H29 0.969 . S
C30 O31 1.550 . S
C30 H32 0.973 . S
O31 C30 1.550 . S
O31 C37 1.412 . S
H32 C30 0.973 . S
C33 H26 0.929 . S
C33 C34 1.400 . S
C33 C35 1.364 . S
C34 C33 1.400 . S
C34 C38 1.377 . S
C35 C33 1.364 . S
C35 C36 1.374 . S
C36 H27 0.930 . S
C36 C35 1.374 . S
C36 C37 1.383 . S
C37 O31 1.412 . S
C37 C36 1.383 . S
C37 C38 1.394 . S
C38 H28 0.929 . S
C38 C34 1.377 . S
C38 C37 1.394 . S
H39 C46 0.929 . S
H40 C49 0.930 . S
H41 C51 0.929 1_455 S
H42 C43 0.969 . S
C43 H42 0.969 . S
C43 O44 1.550 . S
C43 H45 0.973 . S
O44 C43 1.550 . S
O44 C50 1.412 . S
H45 C43 0.973 . S
C46 H39 0.929 . S
C46 C47 1.400 . S
C46 C48 1.364 . S
C47 C46 1.400 . S
C47 C51 1.377 . S
C48 C46 1.364 . S
C48 C49 1.374 . S
C49 H40 0.930 . S
C49 C48 1.374 . S
C49 C50 1.383 . S
C50 O44 1.412 . S
C50 C49 1.383 . S
C50 C51 1.394 . S
C51 H41 0.929 1_655 S
C51 C47 1.377 . S
C51 C50 1.394 . S
H52 C59 0.929 . S
H53 C62 0.930 . S
H54 C64 0.929 . S
H55 C56 0.969 . S
C56 H55 0.969 . S
C56 O57 1.550 . S
C56 H58 0.973 . S
O57 C56 1.550 . S
O57 C63 1.412 . S
H58 C56 0.973 . S
C59 H52 0.929 . S
C59 C60 1.400 . S
C59 C61 1.364 . S
C60 C59 1.400 . S
C60 C64 1.377 . S
C61 C59 1.364 . S
C61 C62 1.374 . S
C62 H53 0.930 . S
C62 C61 1.374 . S
C62 C63 1.383 . S
C63 O57 1.412 . S
C63 C62 1.383 . S
C63 C64 1.394 . S
C64 H54 0.929 . S
C64 C60 1.377 . S
C64 C63 1.394 . S
H65 C72 0.929 1_455 S
H66 C75 0.930 . S
H67 C77 0.929 . S
H68 C69 0.969 . S
C69 H68 0.969 . S
C69 O70 1.550 . S
C69 H71 0.973 . S
O70 C69 1.550 . S
O70 C76 1.412 . S
H71 C69 0.973 . S
C72 H65 0.929 1_655 S
C72 C73 1.400 1_655 S
C72 C74 1.364 . S
C73 C72 1.400 1_455 S
C73 C77 1.377 . S
C74 C72 1.364 . S
C74 C75 1.374 . S
C75 H66 0.930 . S
C75 C74 1.374 . S
C75 C76 1.383 . S
C76 O70 1.412 . S
C76 C75 1.383 . S
C76 C77 1.394 1_655 S
C77 H67 0.929 . S
C77 C73 1.377 . S
C77 C76 1.394 1_455 S
H78 C85 0.929 . S
H79 C88 0.930 . S
H80 C90 0.929 . S
H81 C82 0.969 . S
C82 H81 0.969 . S
C82 O83 1.550 . S
C82 H84 0.973 . S
O83 C82 1.550 . S
O83 C89 1.412 . S
H84 C82 0.973 . S
C85 H78 0.929 . S
C85 C86 1.400 . S
C85 C87 1.364 . S
C86 C85 1.400 . S
C86 C90 1.377 . S
C87 C85 1.364 . S
C87 C88 1.374 . S
C88 H79 0.930 . S
C88 C87 1.374 . S
C88 C89 1.383 . S
C89 O83 1.412 . S
C89 C88 1.383 . S
C89 C90 1.394 . S
C90 H80 0.929 . S
C90 C86 1.377 . S
C90 C89 1.394 . S
H91 C98 0.929 . S
H92 C101 0.930 . S
H93 C103 0.929 . S
H94 C95 0.969 . S
C95 H94 0.969 . S
C95 O96 1.550 . S
C95 H97 0.973 . S
O96 C95 1.550 . S
O96 C102 1.412 . S
H97 C95 0.973 . S
C98 H91 0.929 . S
C98 C99 1.400 . S
C98 C100 1.364 . S
C99 C98 1.400 . S
C99 C103 1.377 . S
C100 C98 1.364 . S
C100 C101 1.374 . S
C101 H92 0.930 . S
C101 C100 1.374 . S
C101 C102 1.383 . S
C102 O96 1.412 . S
C102 C101 1.383 . S
C102 C103 1.394 . S
C103 H93 0.929 . S
C103 C99 1.377 . S
C103 C102 1.394 . S
Gd104 C107 2.818 . S
Gd104 O124 2.377 . S
Gd104 O126 2.448 . S
Gd104 O127 2.506 . S
Gd104 O128 2.435 1_545 S
Gd104 O129 2.717 1_545 S
Gd104 O131 2.395 1_445 S
Gd104 O135 2.327 1_455 S
Gd105 C116 2.818 1_545 S
Gd105 O125 2.395 1_655 S
Gd105 O129 2.327 1_645 S
Gd105 O130 2.377 1_545 S
Gd105 O132 2.448 1_545 S
Gd105 O133 2.506 1_545 S
Gd105 O134 2.435 . S
Gd105 O135 2.717 . S
C106 O124 1.240 . S
C106 O125 1.240 . S
C107 Gd104 2.818 . S
C107 C108 1.510 . S
C107 O126 1.249 . S
C107 O127 1.252 . S
C108 C107 1.510 . S
C108 C109 1.404 . S
C108 C110 1.352 . S
C109 C108 1.404 . S
C109 C113 1.389 . S
C109 H136 0.930 . S
C110 C108 1.352 . S
C110 C112 1.374 . S
C110 H137 0.931 . S
C111 C112 1.359 . S
C111 C113 1.364 . S
C112 C110 1.374 . S
C112 C111 1.359 . S
C112 H138 0.931 . S
C113 C109 1.389 . S
C113 C111 1.364 . S
C113 H139 0.931 . S
C114 O128 1.256 . S
C114 O129 1.257 . S
C115 O130 1.240 . S
C115 O131 1.240 . S
C116 Gd105 2.818 1_565 S
C116 C117 1.510 . S
C116 O132 1.249 . S
C116 O133 1.252 . S
C117 C116 1.510 . S
C117 C118 1.404 . S
C117 C119 1.352 . S
C118 C117 1.404 . S
C118 C122 1.389 . S
C118 H140 0.930 . S
C119 C117 1.352 . S
C119 C121 1.374 . S
C119 H141 0.931 . S
C120 C121 1.359 . S
C120 C122 1.364 . S
C121 C119 1.374 . S
C121 C120 1.359 . S
C121 H142 0.931 . S
C122 C118 1.389 . S
C122 C120 1.364 . S
C122 H143 0.931 . S
C123 O134 1.256 . S
C123 O135 1.257 . S
O124 Gd104 2.377 . S
O124 C106 1.240 . S
O125 Gd105 2.395 1_455 S
O125 C106 1.240 . S
O126 Gd104 2.448 . S
O126 C107 1.249 . S
O127 Gd104 2.506 . S
O127 C107 1.252 . S
O128 Gd104 2.435 1_565 S
O128 C114 1.256 . S
O129 Gd104 2.717 1_565 S
O129 Gd105 2.327 1_465 S
O129 C114 1.257 . S
O130 Gd105 2.377 1_565 S
O130 C115 1.240 . S
O131 Gd104 2.395 1_665 S
O131 C115 1.240 . S
O132 Gd105 2.448 1_565 S
O132 C116 1.249 . S
O133 Gd105 2.506 1_565 S
O133 C116 1.252 . S
O134 Gd105 2.435 . S
O134 C123 1.256 . S
O135 Gd104 2.327 1_655 S
O135 Gd105 2.717 . S
O135 C123 1.257 . S
H136 C109 0.930 . S
H137 C110 0.931 . S
H138 C112 0.931 . S
H139 C113 0.931 . S
H140 C118 0.930 . S
H141 C119 0.931 . S
H142 C121 0.931 . S
H143 C122 0.931 . S
Gd144 C147 2.818 . S
Gd144 O164 2.377 . S
Gd144 O166 2.448 . S
Gd144 O167 2.506 . S
Gd144 O168 2.435 1_545 S
Gd144 O169 2.717 1_545 S
Gd144 O171 2.395 1_544 S
Gd144 O175 2.327 1_554 S
Gd145 C156 2.818 1_545 S
Gd145 O165 2.395 1_556 S
Gd145 O169 2.327 1_546 S
Gd145 O170 2.377 1_545 S
Gd145 O172 2.448 1_545 S
Gd145 O173 2.506 1_545 S
Gd145 O174 2.435 . S
Gd145 O175 2.717 . S
C146 O164 1.240 . S
C146 O165 1.240 . S
C147 Gd144 2.818 . S
C147 C148 1.510 . S
C147 O166 1.249 . S
C147 O167 1.252 . S
C148 C147 1.510 . S
C148 C149 1.404 . S
C148 C150 1.352 . S
C149 C148 1.404 . S
C149 C153 1.389 . S
C149 H176 0.930 . S
C150 C148 1.352 . S
C150 C152 1.374 . S
C150 H177 0.931 . S
C151 C152 1.359 . S
C151 C153 1.364 . S
C152 C150 1.374 . S
C152 C151 1.359 . S
C152 H178 0.931 . S
C153 C149 1.389 . S
C153 C151 1.364 . S
C153 H179 0.931 . S
C154 O168 1.256 . S
C154 O169 1.257 . S
C155 O170 1.240 . S
C155 O171 1.240 . S
C156 Gd145 2.818 1_565 S
C156 C157 1.510 . S
C156 O172 1.249 . S
C156 O173 1.252 . S
C157 C156 1.510 . S
C157 C158 1.404 . S
C157 C159 1.352 . S
C158 C157 1.404 . S
C158 C162 1.389 . S
C158 H180 0.930 . S
C159 C157 1.352 . S
C159 C161 1.374 . S
C159 H181 0.931 . S
C160 C161 1.359 . S
C160 C162 1.364 . S
C161 C159 1.374 . S
C161 C160 1.359 . S
C161 H182 0.931 . S
C162 C158 1.389 . S
C162 C160 1.364 . S
C162 H183 0.931 . S
C163 O174 1.256 . S
C163 O175 1.257 . S
O164 Gd144 2.377 . S
O164 C146 1.240 . S
O165 Gd145 2.395 1_554 S
O165 C146 1.240 . S
O166 Gd144 2.448 . S
O166 C147 1.249 . S
O167 Gd144 2.506 . S
O167 C147 1.252 . S
O168 Gd144 2.435 1_565 S
O168 C154 1.256 . S
O169 Gd144 2.717 1_565 S
O169 Gd145 2.327 1_564 S
O169 C154 1.257 . S
O170 Gd145 2.377 1_565 S
O170 C155 1.240 . S
O171 Gd144 2.395 1_566 S
O171 C155 1.240 . S
O172 Gd145 2.448 1_565 S
O172 C156 1.249 . S
O173 Gd145 2.506 1_565 S
O173 C156 1.252 . S
O174 Gd145 2.435 . S
O174 C163 1.256 . S
O175 Gd144 2.327 1_556 S
O175 Gd145 2.717 . S
O175 C163 1.257 . S
H176 C149 0.930 . S
H177 C150 0.931 . S
H178 C152 0.931 . S
H179 C153 0.931 . S
H180 C158 0.930 . S
H181 C159 0.931 . S
H182 C161 0.931 . S
H183 C162 0.931 . S
Gd184 C187 2.818 . S
Gd184 O204 2.377 . S
Gd184 O206 2.448 . S
Gd184 O207 2.506 . S
Gd184 O208 2.435 . S
Gd184 O209 2.717 . S
Gd184 O211 2.395 . S
Gd184 O215 2.327 . S
Gd185 C196 2.818 . S
Gd185 O205 2.395 . S
Gd185 O209 2.327 . S
Gd185 O210 2.377 . S
Gd185 O212 2.448 . S
Gd185 O213 2.506 . S
Gd185 O214 2.435 . S
Gd185 O215 2.717 . S
C186 O204 1.240 . S
C186 O205 1.240 . S
C187 Gd184 2.818 . S
C187 C188 1.510 . S
C187 O206 1.249 . S
C187 O207 1.252 . S
C188 C187 1.510 . S
C188 C189 1.404 . S
C188 C190 1.352 . S
C189 C188 1.404 . S
C189 C193 1.389 . S
C189 H216 0.930 . S
C190 C188 1.352 . S
C190 C192 1.374 . S
C190 H217 0.931 . S
C191 C192 1.359 . S
C191 C193 1.364 . S
C192 C190 1.374 . S
C192 C191 1.359 . S
C192 H218 0.931 . S
C193 C189 1.389 . S
C193 C191 1.364 . S
C193 H219 0.931 . S
C194 O208 1.256 . S
C194 O209 1.257 . S
C195 O210 1.240 . S
C195 O211 1.240 . S
C196 Gd185 2.818 . S
C196 C197 1.510 . S
C196 O212 1.249 . S
C196 O213 1.252 . S
C197 C196 1.510 . S
C197 C198 1.404 . S
C197 C199 1.352 . S
C198 C197 1.404 . S
C198 C202 1.389 . S
C198 H220 0.930 . S
C199 C197 1.352 . S
C199 C201 1.374 . S
C199 H221 0.931 . S
C200 C201 1.359 . S
C200 C202 1.364 . S
C201 C199 1.374 . S
C201 C200 1.359 . S
C201 H222 0.931 . S
C202 C198 1.389 . S
C202 C200 1.364 . S
C202 H223 0.931 . S
C203 O214 1.256 . S
C203 O215 1.257 . S
O204 Gd184 2.377 . S
O204 C186 1.240 . S
O205 Gd185 2.395 . S
O205 C186 1.240 . S
O206 Gd184 2.448 . S
O206 C187 1.249 . S
O207 Gd184 2.506 . S
O207 C187 1.252 . S
O208 Gd184 2.435 . S
O208 C194 1.256 . S
O209 Gd184 2.717 . S
O209 Gd185 2.327 . S
O209 C194 1.257 . S
O210 Gd185 2.377 . S
O210 C195 1.240 . S
O211 Gd184 2.395 . S
O211 C195 1.240 . S
O212 Gd185 2.448 . S
O212 C196 1.249 . S
O213 Gd185 2.506 . S
O213 C196 1.252 . S
O214 Gd185 2.435 . S
O214 C203 1.256 . S
O215 Gd184 2.327 . S
O215 Gd185 2.717 . S
O215 C203 1.257 . S
H216 C189 0.930 . S
H217 C190 0.931 . S
H218 C192 0.931 . S
H219 C193 0.931 . S
H220 C198 0.930 . S
H221 C199 0.931 . S
H222 C201 0.931 . S
H223 C202 0.931 . S
Gd224 C227 2.818 . S
Gd224 O244 2.377 . S
Gd224 O246 2.448 . S
Gd224 O247 2.506 . S
Gd224 O248 2.435 . S
Gd224 O249 2.719 . S
Gd224 O251 2.395 1_455 S
Gd224 O255 2.327 . S
Gd225 C236 2.818 1_454 S
Gd225 O245 2.395 . S
Gd225 O249 2.328 . S
Gd225 O250 2.377 1_454 S
Gd225 O252 2.448 1_454 S
Gd225 O253 2.506 1_455 S
Gd225 O254 2.435 1_554 S
Gd225 O255 2.717 . S
C226 O244 1.240 . S
C226 O245 1.240 . S
C227 Gd224 2.818 . S
C227 C228 1.510 . S
C227 O246 1.249 . S
C227 O247 1.252 . S
C228 C227 1.510 . S
C228 C229 1.404 . S
C228 C230 1.352 . S
C229 C228 1.404 . S
C229 C233 1.389 . S
C229 H256 0.930 . S
C230 C228 1.352 . S
C230 C232 1.374 . S
C230 H257 0.931 . S
C231 C232 1.359 . S
C231 C233 1.364 . S
C232 C230 1.374 . S
C232 C231 1.359 . S
C232 H258 0.931 . S
C233 C229 1.389 . S
C233 C231 1.364 . S
C233 H259 0.931 . S
C234 O248 1.256 1_655 S
C234 O249 1.257 1_655 S
C235 O250 1.240 1_554 S
C235 O251 1.240 . S
C236 Gd225 2.818 1_656 S
C236 C237 1.510 . S
C236 O252 1.249 . S
C236 O253 1.252 1_556 S
C237 C236 1.510 . S
C237 C238 1.404 . S
C237 C239 1.352 . S
C238 C237 1.404 . S
C238 C242 1.389 . S
C238 H260 0.930 . S
C239 C237 1.352 . S
C239 C241 1.374 . S
C239 H261 0.931 1_556 S
C240 C241 1.359 . S
C240 C242 1.364 . S
C241 C239 1.374 . S
C241 C240 1.359 . S
C241 H262 0.931 . S
C242 C238 1.389 . S
C242 C240 1.364 . S
C242 H263 0.931 . S
C243 O254 1.256 . S
C243 O255 1.257 1_556 S
O244 Gd224 2.377 . S
O244 C226 1.240 . S
O245 Gd225 2.395 . S
O245 C226 1.240 . S
O246 Gd224 2.448 . S
O246 C227 1.249 . S
O247 Gd224 2.506 . S
O247 C227 1.252 . S
O248 Gd224 2.435 . S
O248 C234 1.256 1_455 S
O249 Gd224 2.719 . S
O249 Gd225 2.328 . S
O249 C234 1.257 1_455 S
O250 Gd225 2.377 1_656 S
O250 C235 1.240 1_556 S
O251 Gd224 2.395 1_655 S
O251 C235 1.240 . S
O252 Gd225 2.448 1_656 S
O252 C236 1.249 . S
O253 Gd225 2.506 1_655 S
O253 C236 1.252 1_554 S
O254 Gd225 2.435 1_556 S
O254 C243 1.256 . S
O255 Gd224 2.327 . S
O255 Gd225 2.717 . S
O255 C243 1.257 1_554 S
H256 C229 0.930 . S
H257 C230 0.931 . S
H258 C232 0.931 . S
H259 C233 0.931 . S
H260 C238 0.930 . S
H261 C239 0.931 1_554 S
H262 C241 0.931 . S
H263 C242 0.931 . S
C9 C111 1.947 . S
C21 C160 2.349 . S
C186 C30 3.479 . S
C43 C234 3.367 . S
C146 C4 2.909 . S
C114 C22 1.516 . S
C235 C34 2.294 1_554 S
C203 C48 2.342 . S
C8 C231 2.143 . S
C163 C35 3.439 . S
C47 C115 4.038 . S
C17 C200 2.663 . S
C120 C60 1.419 . S
C74 C151 2.020 . S
C82 C195 2.840 . S
C100 C243 4.378 . S
C61 C155 3.432 . S
C123 C73 1.646 1_655 S
C226 C87 3.058 . S
C194 C95 2.373 . S
C56 C240 2.162 . S
C154 C86 3.671 . S
C106 C99 3.923 . S
C69 C191 1.704 . S
