# Generated by pormake.
# Topology zzz, (3,6)-cn, num edge types: 1
# Building blocks:
#     Node 0, Type 0, BuildingBlock: ESEHIV_clean_linker_0, # of connection points: 3
#     Node 1, Type 0, BuildingBlock: ESEHIV_clean_linker_0, # of connection points: 3
#     Node 2, Type 0, BuildingBlock: ESEHIV_clean_linker_0, # of connection points: 3
#     Node 3, Type 0, BuildingBlock: ESEHIV_clean_linker_0, # of connection points: 3
#     Node 4, Type 0, BuildingBlock: ESEHIV_clean_linker_0, # of connection points: 3
#     Node 5, Type 0, BuildingBlock: ESEHIV_clean_linker_0, # of connection points: 3
#     Node 6, Type 0, BuildingBlock: ESEHIV_clean_linker_0, # of connection points: 3
#     Node 7, Type 0, BuildingBlock: ESEHIV_clean_linker_0, # of connection points: 3
#     Node 8, Type 1, BuildingBlock: BETFEN_clean_sbu_0, # of connection points: 6
#     Node 9, Type 1, BuildingBlock: BETFEN_clean_sbu_0, # of connection points: 6
#     Node 10, Type 1, BuildingBlock: BETFEN_clean_sbu_0, # of connection points: 6
#     Node 11, Type 1, BuildingBlock: BETFEN_clean_sbu_0, # of connection points: 6
#     Edge 12, Type (0, 1), BuildingBlock: UVAHIK_clean_linker_0, # of connection points: 2
#     Edge 13, Type (0, 1), BuildingBlock: UVAHIK_clean_linker_0, # of connection points: 2
#     Edge 14, Type (0, 1), BuildingBlock: UVAHIK_clean_linker_0, # of connection points: 2
#     Edge 15, Type (0, 1), BuildingBlock: UVAHIK_clean_linker_0, # of connection points: 2
#     Edge 16, Type (0, 1), BuildingBlock: UVAHIK_clean_linker_0, # of connection points: 2
#     Edge 17, Type (0, 1), BuildingBlock: UVAHIK_clean_linker_0, # of connection points: 2
#     Edge 18, Type (0, 1), BuildingBlock: UVAHIK_clean_linker_0, # of connection points: 2
#     Edge 19, Type (0, 1), BuildingBlock: UVAHIK_clean_linker_0, # of connection points: 2
#     Edge 20, Type (0, 1), BuildingBlock: UVAHIK_clean_linker_0, # of connection points: 2
#     Edge 21, Type (0, 1), BuildingBlock: UVAHIK_clean_linker_0, # of connection points: 2
#     Edge 22, Type (0, 1), BuildingBlock: UVAHIK_clean_linker_0, # of connection points: 2
#     Edge 23, Type (0, 1), BuildingBlock: UVAHIK_clean_linker_0, # of connection points: 2
#     Edge 24, Type (0, 1), BuildingBlock: UVAHIK_clean_linker_0, # of connection points: 2
#     Edge 25, Type (0, 1), BuildingBlock: UVAHIK_clean_linker_0, # of connection points: 2
#     Edge 26, Type (0, 1), BuildingBlock: UVAHIK_clean_linker_0, # of connection points: 2
#     Edge 27, Type (0, 1), BuildingBlock: UVAHIK_clean_linker_0, # of connection points: 2
#     Edge 28, Type (0, 1), BuildingBlock: UVAHIK_clean_linker_0, # of connection points: 2
#     Edge 29, Type (0, 1), BuildingBlock: UVAHIK_clean_linker_0, # of connection points: 2
#     Edge 30, Type (0, 1), BuildingBlock: UVAHIK_clean_linker_0, # of connection points: 2
#     Edge 31, Type (0, 1), BuildingBlock: UVAHIK_clean_linker_0, # of connection points: 2
#     Edge 32, Type (0, 1), BuildingBlock: UVAHIK_clean_linker_0, # of connection points: 2
#     Edge 33, Type (0, 1), BuildingBlock: UVAHIK_clean_linker_0, # of connection points: 2
#     Edge 34, Type (0, 1), BuildingBlock: UVAHIK_clean_linker_0, # of connection points: 2
#     Edge 35, Type (0, 1), BuildingBlock: UVAHIK_clean_linker_0, # of connection points: 2
# Relax obj value: 0.450
# Max RMSD: 0.269
# Mean RMSD: 0.253
data_MOF--net-zzz--node1-BETFEN_clean_sbu_0--node2-ESEHIV_clean_linker_0--edge1-UVAHIK_clean_linker_0
_symmetry_space_group_name_H-M    P1
_symmetry_Int_Tables_number       1
_symmetry_cell_setting            triclinic
loop_
_symmetry_equiv_pos_as_xyz
'x, y, z'
_cell_length_a     60.554111
_cell_length_b     60.615603
_cell_length_c     18.641451
_cell_angle_alpha  89.882695
_cell_angle_beta   90.050111
_cell_angle_gamma 90.121097
loop_
_atom_site_label
_atom_site_type_symbol
_atom_site_fract_x
_atom_site_fract_y
_atom_site_fract_z
_atom_type_partial_charge
H0 H 0.77848 0.47681 0.25879 0.0
H1 H 0.7167 0.47849 0.14713 0.0
H2 H 0.72206 0.5077 0.35751 0.0
C3 C 0.76117 0.48142 0.25744 0.0
C4 C 0.75183 0.49233 0.31636 0.0
C5 C 0.74864 0.47652 0.19651 0.0
C6 C 0.72634 0.48215 0.19478 0.0
C7 C 0.71654 0.49344 0.25217 0.0
C8 C 0.72944 0.49893 0.31302 0.0
H9 H 0.959 0.76957 0.29494 0.0
H10 H 0.95883 0.70476 0.20171 0.0
H11 H 0.99586 0.71742 0.39456 0.0
C12 C 0.96338 0.75226 0.29673 0.0
C13 C 0.97657 0.74487 0.35383 0.0
C14 C 0.95734 0.7382 0.24013 0.0
C15 C 0.96371 0.71604 0.24391 0.0
C16 C 0.97792 0.70846 0.29804 0.0
C17 C 0.98465 0.72302 0.35306 0.0
H18 H 0.73484 0.03432 0.26501 0.0
H19 H 0.7977 0.04229 0.1635 0.0
H20 H 0.79078 0.99744 0.34268 0.0
C21 C 0.75228 0.03029 0.26246 0.0
C22 C 0.76125 0.01519 0.31141 0.0
C23 C 0.76543 0.04017 0.20989 0.0
C24 C 0.78784 0.03507 0.20611 0.0
C25 C 0.79724 0.01953 0.25318 0.0
C26 C 0.78383 0.00957 0.30642 0.0
H27 H 0.54453 0.74008 0.29274 0.0
H28 H 0.514 0.79301 0.40929 0.0
H29 H 0.5451 0.80575 0.2057 0.0
C30 C 0.54104 0.75754 0.29769 0.0
C31 C 0.54598 0.77195 0.24079 0.0
C32 C 0.53017 0.76496 0.35964 0.0
C33 C 0.52339 0.78726 0.36361 0.0
C34 C 0.52909 0.80204 0.30774 0.0
C35 C 0.54096 0.79431 0.24845 0.0
H36 H 0.24092 0.55506 0.10156 0.0
H37 H 0.29994 0.55324 0.22821 0.0
H38 H 0.2895 0.50464 0.06277 0.0
C39 C 0.25699 0.54792 0.11245 0.0
C40 C 0.26384 0.52933 0.07361 0.0
C41 C 0.26974 0.55647 0.16854 0.0
C42 C 0.29005 0.54672 0.18455 0.0
C43 C 0.29746 0.52823 0.14622 0.0
C44 C 0.28408 0.51916 0.09156 0.0
H45 H 0.96042 0.23483 0.09639 0.0
H46 H 0.95042 0.29488 0.21317 0.0
H47 H 0.00654 0.28807 0.07198 0.0
C48 C 0.96503 0.25173 0.1082 0.0
C49 C 0.9842 0.26027 0.07678 0.0
C50 C 0.95272 0.264 0.15766 0.0
C51 C 0.95972 0.28546 0.17432 0.0
C52 C 0.97908 0.29452 0.14404 0.0
C53 C 0.99147 0.28162 0.09534 0.0
H54 H 0.27388 0.95548 0.10676 0.0
H55 H 0.2166 0.96195 0.23992 0.0
H56 H 0.22819 0.00868 0.06952 0.0
C57 C 0.25834 0.96358 0.11844 0.0
C58 C 0.25229 0.98242 0.07907 0.0
C59 C 0.24573 0.95619 0.17671 0.0
C60 C 0.22636 0.96744 0.19446 0.0
C61 C 0.21983 0.98618 0.15568 0.0
C62 C 0.23292 0.99388 0.09831 0.0
H63 H 0.55015 0.27514 0.08426 0.0
H64 H 0.50825 0.21839 0.05904 0.0
H65 H 0.55443 0.22204 0.23555 0.0
C66 C 0.54485 0.25898 0.10257 0.0
C67 C 0.55411 0.25003 0.16486 0.0
C68 C 0.52807 0.24808 0.065 0.0
C69 C 0.52116 0.22697 0.08808 0.0
C70 C 0.53152 0.21688 0.14798 0.0
C71 C 0.54759 0.22888 0.18661 0.0
Pr72 Pr 0.02527 0.99777 0.76992 0.0
Pr73 Pr 0.99524 0.0129 0.63925 0.0
C74 C 0.04099 0.9751 0.88135 0.0
C75 C 0.03269 0.95344 0.90576 0.0
C76 C 0.0457 0.93454 0.89589 0.0
C77 C 0.03615 0.91356 0.89963 0.0
C78 C 0.01345 0.91118 0.91334 0.0
C79 C 1.00082 0.93 0.92815 0.0
C80 C 0.01033 0.95091 0.92453 0.0
C81 C 0.04803 0.01206 0.64842 0.0
C82 C 1.00395 0.95967 0.65901 0.0
C83 C 0.98004 0.0297 0.5158 0.0
C84 C 0.96423 0.04732 0.49879 0.0
C85 C 0.94906 0.04464 0.44262 0.0
C86 C 0.93371 0.06122 0.42727 0.0
C87 C 0.93335 0.0808 0.46778 0.0
C88 C 0.94841 0.08317 0.52481 0.0
C89 C 0.96356 0.06656 0.54045 0.0
C90 C 0.96821 0.00632 0.76019 0.0
C91 C 0.01357 0.05044 0.75903 0.0
O92 O 0.02759 0.99188 0.88951 0.0
O93 O 0.05064 0.97487 0.8185 0.0
O94 O 0.03086 1.00019 0.64817 0.0
O95 O 0.05459 0.0162 0.71355 0.0
O96 O 0.99921 0.97544 0.61248 0.0
O97 O 0.01108 0.96426 0.72442 0.0
O98 O 0.9988 0.03595 0.5449 0.0
O99 O 0.97158 0.01197 0.54536 0.0
O100 O 0.98877 1.00388 0.7564 0.0
O101 O 0.96062 0.01231 0.6981 0.0
O102 O 0.01986 0.03441 0.80264 0.0
O103 O 0.00615 0.04652 0.69325 0.0
H104 H 0.06291 0.93604 0.88079 0.0
H105 H 0.04629 0.89929 0.88823 0.0
H106 H 0.98341 0.92861 0.94076 0.0
H107 H 0.99977 0.96507 0.9326 0.0
H108 H 0.94911 0.02974 0.41063 0.0
H109 H 0.9222 0.05872 0.38352 0.0
H110 H 0.949 0.09814 0.55632 0.0
H111 H 0.97489 0.06888 0.58482 0.0
Pr112 Pr 0.51514 0.0212 0.77105 0.0
Pr113 Pr 0.50381 0.9883 0.669 0.0
C114 C 0.53219 0.04804 0.87205 0.0
C115 C 0.55099 0.06328 0.8761 0.0
C116 C 0.55109 0.08025 0.9269 0.0
C117 C 0.56954 0.094 0.93371 0.0
C118 C 0.58823 0.09084 0.89006 0.0
C119 C 0.58752 0.07441 0.83684 0.0
C120 C 0.56902 0.06084 0.82972 0.0
C121 C 0.50327 0.04022 0.63933 0.0
C122 C 0.55546 1.00057 0.66944 0.0
C123 C 0.48545 0.96171 0.56966 0.0
C124 C 0.46439 0.94979 0.56057 0.0
C125 C 0.46451 0.92702 0.54728 0.0
C126 C 0.44469 0.91556 0.53706 0.0
C127 C 0.42435 0.92672 0.53935 0.0
C128 C 0.42434 0.9495 0.55414 0.0
C129 C 0.4441 0.96087 0.56506 0.0
C130 C 0.51509 0.96979 0.80257 0.0
C131 C 0.46368 0.00887 0.76749 0.0
O132 O 0.53703 0.02706 0.86739 0.0
O133 O 0.5162 0.05393 0.82926 0.0
O134 O 0.5159 0.02374 0.64601 0.0
O135 O 0.49602 0.04673 0.70104 0.0
O136 O 0.53959 0.99337 0.62744 0.0
O137 O 0.55057 0.00952 0.73198 0.0
O138 O 0.48481 0.98324 0.566 0.0
O139 O 0.49857 0.95447 0.61996 0.0
O140 O 0.50251 0.98617 0.79396 0.0
O141 O 0.52284 0.96306 0.74165 0.0
O142 O 0.47951 0.0141 0.81271 0.0
O143 O 0.46879 1.00171 0.703 0.0
H144 H 0.53711 0.08256 0.96234 0.0
H145 H 0.5694 0.1067 0.97451 0.0
H146 H 0.60166 0.07122 0.80294 0.0
H147 H 0.56907 0.048 0.78941 0.0
H148 H 0.47998 0.91812 0.54426 0.0
H149 H 0.44534 0.898 0.52676 0.0
H150 H 0.40909 0.9588 0.555 0.0
H151 H 0.44345 0.97841 0.57585 0.0
Pr152 Pr 0.48722 0.51146 0.78759 0.0
Pr153 Pr 0.51697 0.49641 0.64359 0.0
C154 C 0.47632 0.53149 0.90953 0.0
C155 C 0.48369 0.55369 0.93088 0.0
C156 C 0.46822 0.57087 0.93353 0.0
C157 C 0.47521 0.59282 0.93085 0.0
C158 C 0.49783 0.59792 0.92613 0.0
C159 C 0.51332 0.58074 0.92929 0.0
C160 C 0.50634 0.55885 0.93147 0.0
C161 C 0.4606 0.50288 0.66678 0.0
C162 C 0.50504 0.54923 0.6677 0.0
C163 C 0.53088 0.47928 0.51957 0.0
C164 C 0.54698 0.46184 0.50288 0.0
C165 C 0.56834 0.46197 0.53289 0.0
C166 C 0.58212 0.4436 0.5256 0.0
C167 C 0.57455 0.42479 0.48943 0.0
C168 C 0.55358 0.42506 0.45709 0.0
C169 C 0.53997 0.44346 0.46348 0.0
C170 C 0.54395 0.50452 0.76414 0.0
C171 C 0.4987 0.45825 0.76451 0.0
O172 O 0.49142 0.516 0.90741 0.0
O173 O 0.46326 0.53134 0.85353 0.0
O174 O 0.48125 0.50215 0.67186 0.0
O175 O 0.45245 0.50748 0.72952 0.0
O176 O 0.50883 0.53353 0.61977 0.0
O177 O 0.50007 0.54474 0.73559 0.0
O178 O 0.51292 0.47244 0.55214 0.0
O179 O 0.5387 0.49788 0.54521 0.0
O180 O 0.52329 0.50598 0.75932 0.0
O181 O 0.55177 0.49855 0.70225 0.0
O182 O 0.49102 0.47356 0.80886 0.0
O183 O 0.50753 0.46279 0.70075 0.0
H184 H 0.45068 0.56731 0.93225 0.0
H185 H 0.46286 0.6057 0.92865 0.0
H186 H 0.53087 0.58419 0.92793 0.0
H187 H 0.51874 0.54604 0.92914 0.0
H188 H 0.5741 0.47587 0.5642 0.0
H189 H 0.59824 0.44372 0.5508 0.0
H190 H 0.54754 0.41081 0.42801 0.0
H191 H 0.52358 0.44298 0.44012 0.0
Pr192 Pr 1.00088 0.48908 0.76846 0.0
Pr193 Pr 0.01181 0.52104 0.66262 0.0
C194 C 0.98288 0.46322 0.87013 0.0
C195 C 0.96387 0.44823 0.86851 0.0
C196 C 0.95652 0.43937 0.80312 0.0
C197 C 0.93654 0.42788 0.79966 0.0
C198 C 0.92344 0.42533 0.86137 0.0
C199 C 0.93149 0.43336 0.92737 0.0
C200 C 0.95154 0.4447 0.93082 0.0
C201 C 0.01228 0.46889 0.63856 0.0
C202 C 0.96022 0.50836 0.66543 0.0
C203 C 0.02994 0.54675 0.56025 0.0
C204 C 0.05073 0.55912 0.55083 0.0
C205 C 0.05011 0.58185 0.53653 0.0
C206 C 0.06967 0.59373 0.5262 0.0
C207 C 0.09026 0.58305 0.52937 0.0
C208 C 0.09078 0.56032 0.54508 0.0
C209 C 0.07127 0.54853 0.5561 0.0
C210 C 1.00061 0.5407 0.79403 0.0
C211 C 0.05223 0.50155 0.76388 0.0
O212 O 0.97807 0.48414 0.86323 0.0
O213 O 0.99992 0.4573 0.83194 0.0
O214 O 0.99977 0.48547 0.64382 0.0
O215 O 0.01953 0.46273 0.70078 0.0
O216 O 0.97596 0.51492 0.62173 0.0
O217 O 0.96539 0.50055 0.72941 0.0
O218 O 0.03118 0.52521 0.56001 0.0
O219 O 0.01628 0.55428 0.60839 0.0
O220 O 0.01331 0.52436 0.78716 0.0
O221 O 0.99275 0.54685 0.73249 0.0
O222 O 0.03648 0.49653 0.80962 0.0
O223 O 0.04699 0.50822 0.69872 0.0
H224 H 0.9658 0.44211 0.75419 0.0
H225 H 0.93095 0.42176 0.7482 0.0
H226 H 0.9217 0.43213 0.9758 0.0
H227 H 0.95688 0.45164 0.9815 0.0
H228 H 0.03444 0.59039 0.53284 0.0
H229 H 0.06863 0.61124 0.51514 0.0
H230 H 0.10623 0.55137 0.54659 0.0
H231 H 0.07232 0.53104 0.56764 0.0
C232 C 0.17901 0.99104 0.15595 0.0
C233 C 0.19986 0.99788 0.18007 0.0
C234 C 0.15992 0.99731 0.19299 0.0
C235 C 0.13866 0.03322 0.34097 0.0
H236 H 0.09997 0.98337 0.37674 0.0
C237 C 0.05592 0.00692 0.51753 0.0
C238 C 0.06214 0.0155 0.58453 0.0
C239 C 0.07036 0.0081 0.45901 0.0
C240 C 0.1103 0.99763 0.36645 0.0
H241 H 0.2173 0.01713 0.25951 0.0
H242 H 0.18412 0.02814 0.32441 0.0
H243 H 0.12922 0.98019 0.28837 0.0
H244 H 0.0879 0.03297 0.64198 0.0
H245 H 0.11314 0.03492 0.54024 0.0
H246 H 0.12009 0.05034 0.42131 0.0
C247 C 0.18225 0.01833 0.2763 0.0
C248 C 0.12712 0.99583 0.31546 0.0
C249 C 0.2013 0.01209 0.23913 0.0
C250 C 0.08267 0.02616 0.59102 0.0
C251 C 0.09708 0.02739 0.53251 0.0
C252 C 0.12184 0.035 0.3922 0.0
C253 C 0.16138 0.01033 0.25536 0.0
C254 C 0.1418 0.01345 0.3029 0.0
C255 C 0.09131 0.01797 0.46614 0.0
C256 C 0.1077 0.01708 0.40652 0.0
H257 H 0.1776 0.97974 0.11121 0.0
H258 H 0.14411 0.99112 0.17463 0.0
H259 H 0.14944 0.04724 0.33204 0.0
H260 H 0.04013 0.99874 0.51078 0.0
H261 H 0.06525 1.00096 0.40841 0.0
C262 C 0.50368 0.18715 0.18012 0.0
C263 C 0.52572 0.19418 0.1734 0.0
C264 C 0.49861 0.16718 0.21506 0.0
C265 C 0.52504 0.11616 0.29491 0.0
H266 H 0.47425 0.11786 0.42065 0.0
C267 C 0.51069 0.04762 0.50825 0.0
C268 C 0.50222 0.05451 0.57464 0.0
C269 C 0.51073 0.06201 0.44901 0.0
C270 C 0.48867 0.11711 0.38651 0.0
H271 H 0.55974 0.18478 0.19288 0.0
H272 H 0.55108 0.15098 0.25569 0.0
H273 H 0.48008 0.14747 0.33526 0.0
H274 H 0.48687 0.08177 0.6306 0.0
H275 H 0.48781 0.10692 0.52973 0.0
H276 H 0.53457 0.08674 0.35001 0.0
C277 C 0.53752 0.16042 0.23368 0.0
C278 C 0.4918 0.13402 0.33612 0.0
C279 C 0.54254 0.18012 0.19829 0.0
C280 C 0.49345 0.07587 0.58014 0.0
C281 C 0.4938 0.09031 0.52161 0.0
C282 C 0.52214 0.09949 0.34626 0.0
C283 C 0.51547 0.15382 0.24437 0.0
C284 C 0.51037 0.13415 0.29071 0.0
C285 C 0.50257 0.08374 0.45505 0.0
C286 C 0.50421 0.09998 0.39426 0.0
H287 H 0.49032 0.19753 0.16145 0.0
H288 H 0.48143 0.16253 0.22057 0.0
H289 H 0.53922 0.11518 0.25977 0.0
H290 H 0.51745 0.0312 0.50227 0.0
H291 H 0.51728 0.05607 0.39863 0.0
C292 C 0.31985 0.49921 0.20806 0.0
C293 C 0.319 0.51868 0.16726 0.0
C294 C 0.33898 0.49386 0.2469 0.0
C295 C 0.38316 0.52403 0.33719 0.0
H296 H 0.40612 0.46623 0.38633 0.0
C297 C 0.42414 0.5026 0.60546 0.0
C298 C 0.44715 0.5 0.60108 0.0
C299 C 0.4111 0.50219 0.54372 0.0
C300 C 0.4 0.48246 0.37227 0.0
H301 H 0.33774 0.5469 0.13032 0.0
H302 H 0.37125 0.53736 0.1963 0.0
H303 H 0.37899 0.46998 0.28851 0.0
H304 H 0.47451 0.49432 0.5287 0.0
H305 H 0.45137 0.49316 0.41979 0.0
H306 H 0.40331 0.53634 0.42287 0.0
C307 C 0.35716 0.52636 0.19949 0.0
C308 C 0.38442 0.4846 0.3168 0.0
C309 C 0.33809 0.53171 0.16106 0.0
C310 C 0.4568 0.49618 0.53365 0.0
C311 C 0.44363 0.49552 0.47156 0.0
C312 C 0.39845 0.52183 0.39284 0.0
C313 C 0.3575 0.50798 0.24564 0.0
C314 C 0.37565 0.50543 0.29913 0.0
C315 C 0.42072 0.4989 0.47626 0.0
C316 C 0.4068 0.50105 0.41139 0.0
H317 H 0.30519 0.48912 0.21456 0.0
H318 H 0.33864 0.47964 0.28216 0.0
H319 H 0.37649 0.54025 0.32615 0.0
H320 H 0.4162 0.50562 0.65655 0.0
H321 H 0.39348 0.50493 0.54844 0.0
C322 C 0.00876 0.32101 0.18572 0.0
C323 C 0.98654 0.31682 0.16848 0.0
C324 C 0.01483 0.3405 0.22137 0.0
C325 C 0.99185 0.39478 0.28903 0.0
H326 H 0.03735 0.38735 0.43288 0.0
C327 C 0.00685 0.46166 0.50669 0.0
C328 C 0.01299 0.45418 0.57518 0.0
C329 C 0.00674 0.44715 0.44801 0.0
C330 C 0.02435 0.38972 0.39378 0.0
H331 H 0.95367 0.33098 0.16905 0.0
H332 H 0.96377 0.36382 0.23422 0.0
H333 H 0.03101 0.35847 0.34622 0.0
H334 H 0.0238 0.42567 0.63595 0.0
H335 H 0.02247 0.40032 0.53604 0.0
H336 H 0.98391 0.42517 0.34061 0.0
C337 C 0.97682 0.3525 0.21982 0.0
C338 C 0.02101 0.3732 0.3425 0.0
C339 C 0.97088 0.33332 0.18311 0.0
C340 C 0.01916 0.43202 0.58372 0.0
C341 C 0.0186 0.41746 0.52575 0.0
C342 C 0.99481 0.41106 0.34147 0.0
C343 C 0.99879 0.35618 0.2416 0.0
C344 C 1.00435 0.37518 0.29015 0.0
C345 C 0.01235 0.4247 0.45677 0.0
C346 C 0.01077 0.40856 0.39586 0.0
H347 H 0.02133 0.30876 0.17514 0.0
H348 H 0.03205 0.34288 0.23491 0.0
H349 H 0.97929 0.39744 0.24863 0.0
H350 H 1.00213 0.47871 0.4985 0.0
H351 H 1.00222 0.45361 0.3959 0.0
C352 C 0.8367 0.02898 0.22875 0.0
C353 C 0.82043 0.01274 0.23958 0.0
C354 C 0.85658 0.02382 0.19468 0.0
C355 C 0.87596 0.98464 0.059 0.0
H356 H 0.93043 0.01796 0.07665 0.0
C357 C 0.93118 1.00267 0.81682 0.0
C358 C 0.95425 1.00279 0.82439 0.0
C359 C 0.9175 1.00005 0.87648 0.0
C360 C 0.91549 0.00823 0.07146 0.0
H361 H 0.81304 0.97796 0.2291 0.0
H362 H 0.84807 0.96871 0.17101 0.0
H363 H 0.90296 0.0195 0.17249 0.0
H364 H 0.98113 1.00035 0.90051 0.0
H365 H 0.9571 0.99572 0.00578 0.0
H366 H 0.88827 0.97366 0.95763 0.0
C367 C 0.84528 0.98559 0.18756 0.0
C368 C 0.89963 0.00927 0.12616 0.0
C369 C 0.82533 0.99079 0.22182 0.0
C370 C 0.9634 1.00011 0.89315 0.0
C371 C 0.94964 0.99762 0.95333 0.0
C372 C 0.89179 0.9836 0.00451 0.0
C373 C 0.86071 1.00224 0.17048 0.0
C374 C 0.87934 0.99802 0.11965 0.0
C375 C 0.92648 0.99757 0.94562 0.0
C376 C 0.91143 0.99596 0.00885 0.0
H377 H 0.83334 0.04605 0.24186 0.0
H378 H 0.86789 0.03715 0.18238 0.0
H379 H 0.86054 0.97588 0.05141 0.0
H380 H 0.92362 1.00477 0.76457 0.0
H381 H 0.89979 1.00054 0.86848 0.0
C382 C 0.50013 0.82862 0.27146 0.0
C383 C 0.52098 0.82505 0.30229 0.0
C384 C 0.49584 0.848 0.23271 0.0
C385 C 0.5178 0.90333 0.17863 0.0
H386 H 0.4978 0.88567 0.98952 0.0
C387 C 0.50619 0.96347 0.93322 0.0
C388 C 0.51541 0.95594 0.86847 0.0
C389 C 0.50533 0.94963 0.99377 0.0
C390 C 0.50333 0.89092 0.04207 0.0
H391 H 0.5529 0.83981 0.32275 0.0
H392 H 0.54527 0.87389 0.25732 0.0
H393 H 0.49716 0.85911 0.08769 0.0
H394 H 0.53133 0.92815 0.81712 0.0
H395 H 0.52948 0.90402 0.92185 0.0
H396 H 0.52437 0.93514 0.1317 0.0
C397 C 0.53218 0.8618 0.26267 0.0
C398 C 0.50272 0.87575 0.09871 0.0
C399 C 0.53651 0.84234 0.30095 0.0
C400 C 0.52407 0.93446 0.86601 0.0
C401 C 0.5229 0.92058 0.92596 0.0
C402 C 0.5181 0.91867 0.12193 0.0
C403 C 0.51231 0.86426 0.22435 0.0
C404 C 0.51029 0.88159 0.16752 0.0
C405 C 0.51333 0.92787 0.99037 0.0
C406 C 0.51132 0.91246 0.0526 0.0
H407 H 0.48804 0.81542 0.27029 0.0
H408 H 0.48022 0.84953 0.2048 0.0
H409 H 0.52375 0.90838 0.2309 0.0
H410 H 0.4994 0.97995 0.93678 0.0
H411 H 0.49784 0.95572 0.04259 0.0
C412 C 0.68728 0.52143 0.2266 0.0
C413 C 0.69299 0.49961 0.24358 0.0
C414 C 0.66709 0.52606 0.19268 0.0
C415 C 0.61382 0.50026 0.1286 0.0
H416 H 0.62302 0.53877 0.96514 0.0
C417 C 0.54903 0.5083 0.89819 0.0
C418 C 0.55786 0.50828 0.82859 0.0
C419 C 0.56288 0.51071 0.95825 0.0
C420 C 0.62012 0.52792 0.01042 0.0
H421 H 0.68153 0.46581 0.2436 0.0
H422 H 0.64654 0.47367 0.18508 0.0
H423 H 0.65095 0.53669 0.05836 0.0
H424 H 0.58813 0.5107 0.76726 0.0
H425 H 0.61219 0.51458 0.87082 0.0
H426 H 0.58354 0.49051 0.07792 0.0
C427 C 0.65727 0.4874 0.19817 0.0
C428 C 0.63605 0.52699 0.06479 0.0
C429 C 0.67736 0.48283 0.23207 0.0
C430 C 0.58076 0.51083 0.8202 0.0
C431 C 0.59457 0.51325 0.87979 0.0
C432 C 0.59789 0.50112 0.07392 0.0
C433 C 0.65228 0.50892 0.17471 0.0
C434 C 0.63347 0.51268 0.12379 0.0
C435 C 0.5859 0.51314 0.94982 0.0
C436 C 0.60115 0.51448 0.01297 0.0
H437 H 0.69917 0.53462 0.2339 0.0
H438 H 0.66366 0.54291 0.17688 0.0
H439 H 0.61102 0.48929 0.17362 0.0
H440 H 0.53156 0.50583 0.90633 0.0
H441 H 0.55557 0.51058 0.01124 0.0
C442 C 0.00824 0.68418 0.25613 0.0
C443 C 0.98732 0.68613 0.28785 0.0
C444 C 0.01379 0.66521 0.21724 0.0
C445 C 0.99573 0.60832 0.16591 0.0
H446 H 0.01425 0.62667 0.97578 0.0
C447 C 0.00956 0.54804 0.92389 0.0
C448 C 0.99998 0.55491 0.85879 0.0
C449 C 0.01001 0.56219 0.98347 0.0
C450 C 0.00913 0.62124 0.02863 0.0
H451 H 0.9566 0.66911 0.30925 0.0
H452 H 0.96643 0.63579 0.24335 0.0
H453 H 0.01331 0.65351 0.07273 0.0
H454 H 0.98302 0.58184 0.8057 0.0
H455 H 0.98406 0.60651 0.90885 0.0
H456 H 0.99104 0.57607 0.12052 0.0
C457 C 0.97861 0.6488 0.24821 0.0
C458 C 0.00886 0.63658 0.08456 0.0
C459 C 0.97302 0.66784 0.28656 0.0
C460 C 0.99058 0.57605 0.85492 0.0
C461 C 0.9913 0.59025 0.91394 0.0
C462 C 0.99628 0.59285 0.10991 0.0
C463 C 0.99854 0.64778 0.20963 0.0
C464 C 1.00176 0.63047 0.15367 0.0
C465 C 1.00119 0.58361 0.97874 0.0
C466 C 1.0025 0.59929 0.04022 0.0
H467 H 0.01939 0.69818 0.25508 0.0
H468 H 0.02942 0.66482 0.18904 0.0
H469 H 0.9902 0.60306 0.21848 0.0
H470 H 0.01692 0.53183 0.9285 0.0
H471 H 0.01777 0.55661 0.03261 0.0
C472 C 0.92136 0.23683 0.164 0.0
C473 C 0.93423 0.2532 0.19731 0.0
C474 C 0.90847 0.22244 0.20488 0.0
C475 C 0.91131 0.20033 0.38889 0.0
H476 H 0.87208 0.15693 0.30445 0.0
C477 C 0.9155 0.10495 0.37498 0.0
C478 C 0.91875 0.09953 0.44761 0.0
C479 C 0.90577 0.12497 0.35584 0.0
C480 C 0.88269 0.16911 0.32944 0.0
H481 H 0.94067 0.26945 0.29907 0.0
H482 H 0.91678 0.24571 0.36903 0.0
H483 H 0.87486 0.19363 0.25092 0.0
H484 H 0.91178 0.1097 0.55689 0.0
H485 H 0.89566 0.14513 0.52313 0.0
H486 H 0.91951 0.17565 0.46611 0.0
C487 C 0.91781 0.24293 0.31179 0.0
C488 C 0.88451 0.19008 0.29845 0.0
C489 C 0.93129 0.2569 0.27117 0.0
C490 C 0.91015 0.11366 0.50046 0.0
C491 C 0.90069 0.13383 0.48128 0.0
C492 C 0.90908 0.17962 0.42065 0.0
C493 C 0.90759 0.22447 0.28007 0.0
C494 C 0.9 0.20546 0.32491 0.0
C495 C 0.8993 0.14006 0.40887 0.0
C496 C 0.89579 0.16341 0.38876 0.0
H497 H 0.92244 0.23407 0.10673 0.0
H498 H 0.90082 0.20868 0.17753 0.0
H499 H 0.92355 0.21137 0.41126 0.0
H500 H 0.92198 0.09459 0.33275 0.0
H501 H 0.90515 0.12946 0.29958 0.0
C502 C 0.26485 0.91999 0.19502 0.0
C503 C 0.25475 0.93877 0.22425 0.0
C504 C 0.27843 0.9067 0.23749 0.0
C505 C 0.30128 0.89952 0.42295 0.0
H506 H 0.35698 0.89957 0.32079 0.0
C507 C 0.38337 0.92155 0.5534 0.0
C508 C 0.40333 0.91529 0.52081 0.0
C509 C 0.36319 0.91425 0.52601 0.0
C510 C 0.34161 0.89868 0.35032 0.0
H511 H 0.24906 0.95708 0.32223 0.0
H512 H 0.27291 0.93422 0.39594 0.0
H513 H 0.32309 0.90431 0.25496 0.0
H514 H 0.41767 0.89444 0.43856 0.0
H515 H 0.38257 0.88093 0.39318 0.0
H516 H 0.3202 0.89511 0.51905 0.0
C517 C 0.27024 0.92947 0.34063 0.0
C518 C 0.32201 0.90143 0.31221 0.0
C519 C 0.25657 0.94267 0.29825 0.0
C520 C 0.40268 0.89972 0.46501 0.0
C521 C 0.38249 0.89215 0.43832 0.0
C522 C 0.32097 0.89664 0.46122 0.0
C523 C 0.2823 0.9121 0.30977 0.0
C524 C 0.30172 0.90298 0.34835 0.0
C525 C 0.36248 0.90024 0.46596 0.0
C526 C 0.34145 0.89731 0.42563 0.0
H527 H 0.26339 0.91642 0.13829 0.0
H528 H 0.28713 0.89315 0.21252 0.0
H529 H 0.28585 0.90027 0.45217 0.0
H530 H 0.38327 0.93301 0.5979 0.0
H531 H 0.34819 0.92091 0.54887 0.0
C532 C 0.58754 0.25467 0.24561 0.0
C533 C 0.56925 0.26375 0.20924 0.0
C534 C 0.60142 0.26817 0.28707 0.0
C535 C 0.61886 0.32533 0.30689 0.0
H536 H 0.60787 0.32164 0.5112 0.0
C537 C 0.60923 0.40434 0.45857 0.0
C538 C 0.58781 0.40439 0.48722 0.0
C539 C 0.6198 0.38431 0.44394 0.0
C540 C 0.61165 0.32277 0.45453 0.0
H541 H 0.55075 0.29397 0.19123 0.0
H542 H 0.57523 0.31725 0.26004 0.0
H543 H 0.60232 0.28911 0.43614 0.0
H544 H 0.56166 0.38407 0.531 0.0
H545 H 0.57963 0.34936 0.50482 0.0
H546 H 0.62537 0.35949 0.32277 0.0
C547 C 0.57909 0.29985 0.25557 0.0
C548 C 0.60869 0.30406 0.41177 0.0
C549 C 0.5651 0.28646 0.21585 0.0
C550 C 0.57805 0.38437 0.5077 0.0
C551 C 0.58858 0.36446 0.49363 0.0
C552 C 0.62171 0.34402 0.34939 0.0
C553 C 0.59738 0.29092 0.29126 0.0
C554 C 0.6105 0.3058 0.33702 0.0
C555 C 0.60909 0.36412 0.45818 0.0
C556 C 0.61617 0.34338 0.42261 0.0
H557 H 0.59119 0.23723 0.2417 0.0
H558 H 0.61526 0.26096 0.31539 0.0
H559 H 0.62048 0.32693 0.24921 0.0
H560 H 0.61713 0.41967 0.44298 0.0
H561 H 0.63568 0.38461 0.41727 0.0
C562 C 0.24942 0.592 0.18501 0.0
C563 C 0.26025 0.57374 0.21522 0.0
C564 C 0.23553 0.60502 0.22698 0.0
C565 C 0.21278 0.61222 0.41243 0.0
H566 H 0.15703 0.61067 0.31044 0.0
C567 C 0.1311 0.58915 0.54387 0.0
C568 C 0.11104 0.59489 0.51073 0.0
C569 C 0.15116 0.59675 0.51632 0.0
C570 C 0.17239 0.61197 0.33988 0.0
H571 H 0.26688 0.55609 0.31404 0.0
H572 H 0.24234 0.57842 0.38695 0.0
H573 H 0.19094 0.60635 0.2448 0.0
H574 H 0.09634 0.61521 0.42738 0.0
H575 H 0.13119 0.62925 0.38172 0.0
H576 H 0.19384 0.61662 0.50835 0.0
C577 C 0.24472 0.58301 0.33131 0.0
C578 C 0.19201 0.60947 0.30188 0.0
C579 C 0.25876 0.57011 0.28945 0.0
C580 C 0.11142 0.61031 0.45424 0.0
C581 C 0.13147 0.61819 0.42741 0.0
C582 C 0.19307 0.61484 0.45061 0.0
C583 C 0.232 0.59982 0.29965 0.0
C584 C 0.21237 0.60851 0.338 0.0
C585 C 0.15162 0.61055 0.45557 0.0
C586 C 0.17258 0.61367 0.41509 0.0
H587 H 0.2506 0.59532 0.12801 0.0
H588 H 0.22634 0.61818 0.20136 0.0
H589 H 0.22825 0.61193 0.44165 0.0
H590 H 0.13141 0.57784 0.58891 0.0
H591 H 0.16627 0.59045 0.53963 0.0
C592 C 0.93564 0.76717 0.17337 0.0
C593 C 0.94797 0.74754 0.1724 0.0
C594 C 0.93369 0.78001 0.11144 0.0
C595 C 0.97048 0.78858 0.95844 0.0
H596 H 0.9374 0.84313 0.95092 0.0
C597 C 0.98213 0.88647 0.87733 0.0
C598 C 1.00275 0.88924 0.91102 0.0
C599 C 0.97131 0.86609 0.8795 0.0
C600 C 0.9466 0.82784 0.95059 0.0
H601 H 0.96383 0.72393 0.10102 0.0
H602 H 0.9585 0.74517 0.99332 0.0
H603 H 0.92058 0.81046 0.00398 0.0
H604 H 0.02856 0.87278 0.97109 0.0
H605 H 0.00975 0.83738 0.97559 0.0
H606 H 0.99661 0.80608 0.90649 0.0
C607 C 0.95186 0.75157 0.04301 0.0
C608 C 0.93705 0.80913 0.98186 0.0
C609 C 0.95459 0.73911 0.10535 0.0
C610 C 0.01278 0.87108 0.94423 0.0
C611 C 1.00201 0.85076 0.94636 0.0
C612 C 0.97983 0.80712 0.92635 0.0
C613 C 0.94341 0.7731 0.04666 0.0
C614 C 0.94952 0.78975 0.99109 0.0
C615 C 0.98101 0.84812 0.91505 0.0
C616 C 0.96863 0.82732 0.92692 0.0
H617 H 0.92916 0.77366 0.22312 0.0
H618 H 0.92657 0.79628 0.11684 0.0
H619 H 0.98079 0.7741 0.96367 0.0
H620 H 0.97424 0.90013 0.84995 0.0
H621 H 0.95524 0.86449 0.85446 0.0
C622 C 0.7599 0.07685 0.15057 0.0
C623 C 0.7551 0.05423 0.15496 0.0
C624 C 0.74817 0.09031 0.10276 0.0
C625 C 0.71007 0.08851 0.94685 0.0
H626 H 0.6763 0.13254 0.04954 0.0
C627 C 0.62429 0.1077 0.85056 0.0
C628 C 0.60939 0.10234 0.90584 0.0
C629 C 0.64621 0.11311 0.86653 0.0
C630 C 0.68584 0.12065 0.0194 0.0
H631 H 0.73554 0.02754 0.11139 0.0
H632 H 0.71526 0.05078 0.0276 0.0
H633 H 0.71016 0.11801 0.10233 0.0
H634 H 0.60531 0.10086 0.02145 0.0
H635 H 0.64308 0.11023 0.04902 0.0
H636 H 0.68473 0.08933 0.86752 0.0
C637 C 0.728 0.05828 0.06039 0.0
C638 C 0.70534 0.11245 0.04939 0.0
C639 C 0.73939 0.04499 0.10876 0.0
C640 C 0.61621 0.10496 0.97738 0.0
C641 C 0.63803 0.11044 0.99329 0.0
C642 C 0.69059 0.09664 0.91696 0.0
C643 C 0.7319 0.08115 0.05791 0.0
C644 C 0.71672 0.09519 0.01562 0.0
C645 C 0.65358 0.11334 0.93806 0.0
C646 C 0.67745 0.11162 0.95545 0.0
H647 H 0.77203 0.0842 0.18602 0.0
H648 H 0.75138 0.1079 0.10209 0.0
H649 H 0.71879 0.07546 0.91919 0.0
H650 H 0.61938 0.10642 0.79484 0.0
H651 H 0.65773 0.11564 0.82283 0.0
C652 C 0.56571 0.74375 0.16545 0.0
C653 C 0.55312 0.76314 0.1699 0.0
C654 C 0.56691 0.7321 0.10107 0.0
C655 C 0.52822 0.72398 0.95455 0.0
H656 H 0.56571 0.67299 0.92753 0.0
C657 C 0.52304 0.62611 0.87079 0.0
C658 C 0.50532 0.62101 0.91685 0.0
C659 C 0.53132 0.64761 0.86693 0.0
C660 C 0.55524 0.68737 0.93236 0.0
H661 H 0.53484 0.78719 0.10638 0.0
H662 H 0.53834 0.76775 0.99428 0.0
H663 H 0.58093 0.70615 0.98229 0.0
H664 H 0.48171 0.63461 0.992 0.0
H665 H 0.49599 0.67195 0.98515 0.0
H666 H 0.5023 0.70481 0.90786 0.0
C667 C 0.54633 0.76091 0.04131 0.0
C668 C 0.5639 0.70631 0.96454 0.0
C669 C 0.54459 0.77226 0.10602 0.0
C670 C 0.49525 0.63801 0.95568 0.0
C671 C 0.50339 0.65946 0.95138 0.0
C672 C 0.51967 0.70519 0.92183 0.0
C673 C 0.55592 0.73985 0.03938 0.0
C674 C 0.54999 0.72412 0.9813 0.0
C675 C 0.52183 0.66438 0.90836 0.0
C676 C 0.53263 0.68615 0.9158 0.0
H677 H 0.57329 0.73667 0.2128 0.0
H678 H 0.57467 0.71603 0.10203 0.0
H679 H 0.51688 0.73731 0.96576 0.0
H680 H 0.53076 0.61341 0.83869 0.0
H681 H 0.54548 0.651 0.83313 0.0
C682 C 0.77851 0.47615 0.10535 0.0
C683 C 0.75926 0.46656 0.13319 0.0
C684 C 0.78923 0.46662 0.04725 0.0
C685 C 0.80044 0.41382 0.96914 0.0
H686 H 0.83152 0.4513 0.83411 0.0
C687 C 0.88671 0.42427 0.79923 0.0
C688 C 0.9003 0.41727 0.85612 0.0
C689 C 0.86379 0.42219 0.80404 0.0
C690 C 0.82265 0.44019 0.86937 0.0
H691 H 0.7357 0.43986 0.12161 0.0
H692 H 0.75496 0.42267 0.01997 0.0
H693 H 0.79994 0.46563 0.8979 0.0
H694 H 0.90074 0.39943 0.95698 0.0
H695 H 0.861 0.39696 0.96759 0.0
H696 H 0.82383 0.38866 0.9431 0.0
C697 C 0.76153 0.43771 0.04297 0.0
C698 C 0.80462 0.44859 0.90662 0.0
C699 C 0.75057 0.4475 0.10083 0.0
C700 C 0.89067 0.40566 0.91338 0.0
C701 C 0.86776 0.40391 0.91877 0.0
C702 C 0.81844 0.4053 0.93134 0.0
C703 C 0.78103 0.44717 0.01596 0.0
C704 C 0.7944 0.43602 0.96047 0.0
C705 C 0.85401 0.41351 0.86644 0.0
C706 C 0.83075 0.41895 0.88498 0.0
H707 H 0.78538 0.49097 0.12901 0.0
H708 H 0.80446 0.47406 0.02856 0.0
H709 H 0.79269 0.40368 0.00991 0.0
H710 H 0.89351 0.43316 0.75387 0.0
H711 H 0.85371 0.42915 0.76167 0.0
C712 C 0.01343 0.23208 0.05668 0.0
C713 C 0.99659 0.2454 0.02842 0.0
C714 C 0.0199 0.2128 0.02103 0.0
C715 C 0.01368 0.16539 0.97091 0.0
H716 H 0.01697 0.15739 0.76499 0.0
C717 C 0.02635 0.07881 0.84838 0.0
C718 C 0.01482 0.07365 0.78504 0.0
C719 C 0.02707 0.10048 0.87419 0.0
C720 C 0.01587 0.15926 0.82261 0.0
H721 H 0.97407 0.24968 0.93948 0.0
H722 H 0.98566 0.2164 0.87619 0.0
H723 H 0.01435 0.19457 0.81461 0.0
H724 H 0.9951 0.0875 0.69893 0.0
H725 H 0.9958 0.12512 0.74484 0.0
H726 H 0.01433 0.13024 0.97939 0.0
C727 C 0.99406 0.22081 0.92545 0.0
C728 C 0.0145 0.18063 0.85107 0.0
C729 C 0.98749 0.23998 0.96139 0.0
C730 C 1.00423 0.09084 0.74773 0.0
C731 C 1.00476 0.11251 0.77394 0.0
C732 C 0.01487 0.14406 0.94255 0.0
C733 C 0.00965 0.20645 0.95636 0.0
C734 C 0.01322 0.18398 0.92562 0.0
C735 C 0.01607 0.11766 0.8379 0.0
C736 C 0.0158 0.14061 0.86791 0.0
H737 H 0.02031 0.23563 0.10908 0.0
H738 H 0.03216 0.20228 0.04591 0.0
H739 H 0.01225 0.16725 0.02849 0.0
H740 H 0.03491 0.06608 0.87824 0.0
H741 H 0.03634 0.10374 0.92271 0.0
C742 C 0.27586 0.01227 0.02427 0.0
C743 C 0.26782 0.99052 0.02296 0.0
C744 C 0.29447 0.01818 0.9836 0.0
C745 C 0.33403 0.9969 0.84377 0.0
H746 H 0.37615 0.03286 0.9478 0.0
C747 C 0.42316 0.00941 0.73854 0.0
C748 C 0.44019 0.01026 0.78972 0.0
C749 C 0.40098 0.01027 0.75973 0.0
C750 C 0.3647 0.0226 0.91814 0.0
H751 H 0.27168 0.95851 0.9732 0.0
H752 H 0.30412 0.96844 0.90434 0.0
H753 H 0.33893 0.02858 0.99379 0.0
H754 H 0.44727 0.01257 0.90342 0.0
H755 H 0.40883 0.01312 0.94069 0.0
H756 H 0.36022 0.9896 0.77099 0.0
C757 C 0.29622 0.98117 0.93575 0.0
C758 C 0.34308 0.02049 0.94391 0.0
C759 C 0.27761 0.97537 0.97577 0.0
C760 C 0.43456 0.01206 0.86254 0.0
C761 C 0.41241 0.01256 0.88386 0.0
C762 C 0.35573 0.99873 0.81861 0.0
C763 C 0.30547 1.00243 0.94101 0.0
C764 C 0.32752 0.00721 0.90797 0.0
C765 C 0.39523 0.01164 0.83284 0.0
C766 C 0.37156 0.01126 0.85619 0.0
H767 H 0.26871 0.02431 0.06024 0.0
H768 H 0.30074 0.03487 0.98782 0.0
H769 H 0.32249 0.98689 0.81356 0.0
H770 H 0.42694 0.00818 0.6819 0.0
H771 H 0.38838 0.00992 0.71855 0.0
C772 C 0.49717 0.27099 0.01698 0.0
C773 C 0.51762 0.26063 0.00552 0.0
C774 C 0.49152 0.2901 0.97826 0.0
C775 C 0.51895 0.3383 0.92524 0.0
H776 H 0.47123 0.35496 0.79738 0.0
C777 C 0.49748 0.42927 0.86119 0.0
C778 C 0.49781 0.43476 0.78784 0.0
C779 C 0.49784 0.40716 0.88333 0.0
C780 C 0.48461 0.35048 0.83313 0.0
H781 H 0.54718 0.2609 0.94042 0.0
H782 H 0.53736 0.29415 0.87327 0.0
H783 H 0.47448 0.31639 0.83865 0.0
H784 H 0.49804 0.42119 0.68027 0.0
H785 H 0.49801 0.38252 0.71925 0.0
H786 H 0.52882 0.37227 0.92172 0.0
C787 C 0.52568 0.2875 0.91168 0.0
C788 C 0.48641 0.3285 0.85672 0.0
C789 C 0.53117 0.26833 0.94952 0.0
C790 C 0.49787 0.41755 0.73718 0.0
C791 C 0.49772 0.39542 0.75939 0.0
C792 C 0.51685 0.36026 0.90315 0.0
C793 C 0.50633 0.29914 0.92809 0.0
C794 C 0.50375 0.32222 0.9025 0.0
C795 C 0.49803 0.39 0.83271 0.0
C796 C 0.49975 0.3666 0.8566 0.0
H797 H 0.48667 0.26574 0.06085 0.0
H798 H 0.47656 0.29888 0.99214 0.0
H799 H 0.53238 0.33387 0.96086 0.0
H800 H 0.49752 0.44207 0.90164 0.0
H801 H 0.49805 0.40345 0.9402 0.0
C802 C 0.24031 0.49897 0.02189 0.0
C803 C 0.24855 0.5206 0.01789 0.0
C804 C 0.22161 0.49282 0.98183 0.0
C805 C 0.18219 0.5132 0.83929 0.0
H806 H 0.13974 0.47856 0.94673 0.0
C807 C 0.09279 0.50088 0.73504 0.0
C808 C 0.07576 0.50037 0.78621 0.0
C809 C 0.11498 0.50005 0.75637 0.0
C810 C 0.15127 0.48847 0.91609 0.0
H811 H 0.24493 0.55214 0.96457 0.0
H812 H 0.21246 0.54182 0.8965 0.0
H813 H 0.17702 0.48282 0.99238 0.0
H814 H 0.06874 0.49875 0.90006 0.0
H815 H 0.10718 0.49827 0.93746 0.0
H816 H 0.15605 0.52021 0.76575 0.0
C817 C 0.22024 0.52932 0.9294 0.0
C818 C 0.17293 0.49055 0.94171 0.0
C819 C 0.23889 0.53535 0.96884 0.0
C820 C 0.08143 0.49899 0.85916 0.0
C821 C 0.1036 0.49852 0.88058 0.0
C822 C 0.16045 0.51141 0.81427 0.0
C823 C 0.21076 0.50822 0.9372 0.0
C824 C 0.18864 0.50336 0.90453 0.0
C825 C 0.12077 0.49906 0.82958 0.0
C826 C 0.14449 0.49938 0.85301 0.0
H827 H 0.24735 0.48728 0.05949 0.0
H828 H 0.21518 0.47625 0.98812 0.0
H829 H 0.19382 0.52282 0.80807 0.0
H830 H 0.08899 0.50179 0.67831 0.0
H831 H 0.12756 0.5001 0.71517 0.0
C832 C 0.96486 0.77086 0.44964 0.0
C833 C 0.98213 0.76118 0.41062 0.0
C834 C 0.96821 0.79046 0.48768 0.0
C835 C 0.00996 0.8304 0.55657 0.0
H836 H 0.9637 0.87293 0.51734 0.0
C837 C 0.00748 0.91873 0.68324 0.0
C838 C 1.00166 0.93613 0.63664 0.0
C839 C 1.0057 0.89665 0.66109 0.0
C840 C 0.97682 0.86132 0.52877 0.0
H841 H 0.01675 0.76385 0.38357 0.0
H842 H 0.0228 0.79815 0.45094 0.0
H843 H 0.96019 0.83542 0.47272 0.0
H844 H 0.98943 0.94367 0.52996 0.0
H845 H 0.98631 0.90543 0.49178 0.0
H846 H 0.02672 0.85667 0.61184 0.0
C847 C 0.00666 0.79045 0.45261 0.0
C848 C 0.97469 0.83966 0.50383 0.0
C849 C 1.00327 0.77073 0.41438 0.0
C850 C 0.99397 0.93081 0.56756 0.0
C851 C 0.9921 0.9088 0.54566 0.0
C852 C 0.01201 0.85212 0.58222 0.0
C853 C 0.98892 0.80104 0.48732 0.0
C854 C 0.99124 0.82388 0.51703 0.0
C855 C 0.99791 0.89139 0.592 0.0
C856 C 0.99554 0.86794 0.56799 0.0
H857 H 0.94836 0.76397 0.44702 0.0
H858 H 0.95428 0.79784 0.5149 0.0
H859 H 0.023 0.81869 0.56791 0.0
H860 H 0.01345 0.92213 0.73689 0.0
H861 H 0.01011 0.88368 0.69848 0.0
C862 C 0.72826 0.99253 0.34222 0.0
C863 C 0.74607 1.00556 0.36549 0.0
C864 C 0.71018 0.98858 0.38716 0.0
C865 C 0.6807 0.0152 0.53664 0.0
H866 H 0.64438 0.96254 0.52791 0.0
C867 C 0.59621 0.00849 0.68456 0.0
C868 C 0.57883 0.99903 0.64489 0.0
C869 C 0.61805 0.00748 0.65947 0.0
C870 C 0.65426 0.97743 0.53071 0.0
H871 H 0.75939 0.02398 0.45482 0.0
H872 H 0.72795 0.01674 0.53451 0.0
H873 H 0.6806 0.9628 0.47082 0.0
H874 H 0.57101 0.98084 0.54795 0.0
H875 H 0.60879 0.97919 0.50447 0.0
H876 H 0.65413 0.02998 0.59521 0.0
C877 C 0.72786 0.00966 0.48122 0.0
C878 C 0.67509 0.97756 0.49801 0.0
C879 C 0.74605 0.01352 0.43614 0.0
C880 C 0.58391 0.98831 0.58012 0.0
C881 C 0.60568 0.9872 0.55532 0.0
C882 C 0.65986 0.01505 0.56947 0.0
C883 C 0.70934 0.99776 0.45644 0.0
C884 C 0.68844 0.9966 0.49919 0.0
C885 C 0.62308 0.99685 0.59438 0.0
C886 C 0.64615 0.99632 0.56565 0.0
H887 H 0.72769 0.98661 0.28744 0.0
H888 H 0.69622 0.97957 0.36564 0.0
H889 H 0.6903 0.03028 0.53791 0.0
H890 H 0.59295 0.01684 0.73472 0.0
H891 H 0.63103 0.01494 0.6913 0.0
C892 C 0.50448 0.73942 0.42637 0.0
C893 C 0.52572 0.74834 0.41682 0.0
C894 C 0.50151 0.71957 0.46466 0.0
C895 C 0.53316 0.66904 0.50662 0.0
H896 H 0.48324 0.65328 0.62637 0.0
C897 C 0.51295 0.57819 0.57385 0.0
C898 C 0.50669 0.57283 0.64446 0.0
C899 C 0.51481 0.60023 0.55173 0.0
C900 C 0.49737 0.65745 0.59341 0.0
H901 H 0.56027 0.74416 0.44279 0.0
H902 H 0.55513 0.71012 0.51092 0.0
H903 H 0.48713 0.69126 0.58219 0.0
H904 H 0.49733 0.58687 0.7471 0.0
H905 H 0.50056 0.62534 0.70824 0.0
H906 H 0.5434 0.63541 0.51715 0.0
C907 C 0.54075 0.71809 0.48815 0.0
C908 C 0.4995 0.6792 0.5676 0.0
C909 C 0.54368 0.73779 0.45 0.0
C910 C 0.50216 0.59026 0.69222 0.0
C911 C 0.5039 0.61238 0.66986 0.0
C912 C 0.53093 0.64737 0.53176 0.0
C913 C 0.51976 0.7082 0.4937 0.0
C914 C 0.51745 0.68531 0.52376 0.0
C915 C 0.5104 0.61767 0.59934 0.0
C916 C 0.51295 0.64117 0.57514 0.0
H917 H 0.49042 0.74693 0.40004 0.0
H918 H 0.48512 0.71245 0.46749 0.0
H919 H 0.54704 0.67292 0.47222 0.0
H920 H 0.51652 0.56535 0.53529 0.0
H921 H 0.51955 0.6036 0.49677 0.0
C922 C 0.77762 0.47846 0.41035 0.0
C923 C 0.76643 0.49639 0.3793 0.0
C924 C 0.79585 0.48181 0.45514 0.0
C925 C 0.83979 0.52331 0.48711 0.0
H926 H 0.85853 0.4807 0.62991 0.0
C927 C 0.93135 0.5154 0.57102 0.0
C928 C 0.93671 0.50909 0.64158 0.0
C929 C 0.90936 0.5156 0.54754 0.0
C930 C 0.85355 0.493 0.59098 0.0
H931 H 0.76475 0.53197 0.37435 0.0
H932 H 0.79627 0.53803 0.45487 0.0
H933 H 0.82133 0.4787 0.5811 0.0
H934 H 0.92289 0.49825 0.74304 0.0
H935 H 0.88454 0.49907 0.70261 0.0
H936 H 0.87186 0.53785 0.49786 0.0
C937 C 0.79122 0.52127 0.44337 0.0
C938 C 0.83218 0.49168 0.56213 0.0
C939 C 0.7729 0.51786 0.3982 0.0
C940 C 0.91942 0.50318 0.68821 0.0
C941 C 0.89736 0.50351 0.66483 0.0
C942 C 0.86109 0.52474 0.51635 0.0
C943 C 0.80346 0.50326 0.47043 0.0
C944 C 0.82511 0.50649 0.50848 0.0
C945 C 0.89198 0.50965 0.59393 0.0
C946 C 0.86852 0.5093 0.56755 0.0
H947 H 0.77312 0.46172 0.39608 0.0
H948 H 0.80479 0.46746 0.47382 0.0
H949 H 0.8352 0.53494 0.4456 0.0
H950 H 0.94417 0.51992 0.53337 0.0
H951 H 0.90611 0.51998 0.49218 0.0
loop_
_geom_bond_atom_site_label_1
_geom_bond_atom_site_label_2
_geom_bond_distance
_geom_bond_site_symmetry_2
_ccdc_geom_bond_type
H0 C3 0.931 . S
H1 C6 0.928 . S
H2 C8 0.930 . S
C3 H0 0.931 . S
C3 C4 1.413 . S
C3 C5 1.360 . S
C4 C3 1.413 . S
C4 C8 1.429 . S
C5 C3 1.360 . S
C5 C6 1.372 . S
C6 H1 0.928 . S
C6 C5 1.372 . S
C6 C7 1.404 . S
C7 C6 1.404 . S
C7 C8 1.391 . S
C8 H2 0.930 . S
C8 C4 1.429 . S
C8 C7 1.391 . S
H9 C12 0.931 . S
H10 C15 0.928 . S
H11 C17 0.930 . S
C12 H9 0.931 . S
C12 C13 1.413 . S
C12 C14 1.360 . S
C13 C12 1.413 . S
C13 C17 1.429 1_655 S
C14 C12 1.360 . S
C14 C15 1.372 . S
C15 H10 0.928 . S
C15 C14 1.372 . S
C15 C16 1.404 . S
C16 C15 1.404 . S
C16 C17 1.390 1_655 S
C17 H11 0.930 . S
C17 C13 1.429 1_455 S
C17 C16 1.390 1_455 S
H18 C21 0.931 . S
H19 C24 0.928 . S
H20 C26 0.930 . S
C21 H18 0.931 . S
C21 C22 1.413 . S
C21 C23 1.360 . S
C22 C21 1.413 . S
C22 C26 1.429 1_565 S
C23 C21 1.360 . S
C23 C24 1.372 . S
C24 H19 0.928 . S
C24 C23 1.372 . S
C24 C25 1.404 . S
C25 C24 1.404 . S
C25 C26 1.390 1_565 S
C26 H20 0.930 . S
C26 C22 1.429 1_545 S
C26 C25 1.390 1_545 S
H27 C30 0.931 . S
H28 C33 0.928 . S
H29 C35 0.930 . S
C30 H27 0.931 . S
C30 C31 1.413 . S
C30 C32 1.360 . S
C31 C30 1.413 . S
C31 C35 1.429 . S
C32 C30 1.360 . S
C32 C33 1.372 . S
C33 H28 0.928 . S
C33 C32 1.372 . S
C33 C34 1.404 . S
C34 C33 1.404 . S
C34 C35 1.391 . S
C35 H29 0.930 . S
C35 C31 1.429 . S
C35 C34 1.391 . S
H36 C39 0.931 . S
H37 C42 0.928 . S
H38 C44 0.930 . S
C39 H36 0.931 . S
C39 C40 1.413 1_554 S
C39 C41 1.360 . S
C40 C39 1.413 1_556 S
C40 C44 1.429 . S
C41 C39 1.360 . S
C41 C42 1.372 . S
C42 H37 0.928 . S
C42 C41 1.372 . S
C42 C43 1.404 . S
C43 C42 1.404 . S
C43 C44 1.391 1_554 S
C44 H38 0.930 . S
C44 C40 1.429 . S
C44 C43 1.391 1_556 S
H45 C48 0.931 . S
H46 C51 0.928 . S
H47 C53 0.930 . S
C48 H45 0.931 . S
C48 C49 1.413 1_554 S
C48 C50 1.360 . S
C49 C48 1.413 1_556 S
C49 C53 1.429 1_655 S
C50 C48 1.360 . S
C50 C51 1.372 . S
C51 H46 0.928 . S
C51 C50 1.372 . S
C51 C52 1.404 . S
C52 C51 1.404 . S
C52 C53 1.391 1_654 S
C53 H47 0.930 . S
C53 C49 1.429 1_455 S
C53 C52 1.391 1_456 S
H54 C57 0.931 . S
H55 C60 0.928 . S
H56 C62 0.930 . S
C57 H54 0.931 . S
C57 C58 1.413 1_554 S
C57 C59 1.360 . S
C58 C57 1.413 1_556 S
C58 C62 1.429 1_565 S
C59 C57 1.360 . S
C59 C60 1.372 . S
C60 H55 0.928 . S
C60 C59 1.372 . S
C60 C61 1.404 . S
C61 C60 1.404 . S
C61 C62 1.391 1_564 S
C62 H56 0.930 . S
C62 C58 1.429 1_545 S
C62 C61 1.391 1_546 S
H63 C66 0.931 . S
H64 C69 0.928 . S
H65 C71 0.930 . S
C66 H63 0.931 . S
C66 C67 1.413 . S
C66 C68 1.360 1_554 S
C67 C66 1.413 . S
C67 C71 1.429 . S
C68 C66 1.360 1_556 S
C68 C69 1.372 . S
C69 H64 0.928 . S
C69 C68 1.372 . S
C69 C70 1.404 1_556 S
C70 C69 1.404 1_554 S
C70 C71 1.391 . S
C71 H65 0.930 . S
C71 C67 1.429 . S
C71 C70 1.391 . S
Pr72 C74 2.880 . S
Pr72 O92 2.562 . S
Pr72 O93 2.490 . S
Pr72 O94 2.695 1_565 S
Pr72 O95 2.512 . S
Pr72 O97 2.437 . S
Pr72 O100 2.436 1_455 S
Pr72 O102 2.438 1_565 S
Pr73 C83 2.880 . S
Pr73 O94 2.436 1_655 S
Pr73 O96 2.438 1_545 S
Pr73 O98 2.562 . S
Pr73 O99 2.490 . S
Pr73 O100 2.695 1_545 S
Pr73 O101 2.512 . S
Pr73 O103 2.437 . S
C74 Pr72 2.880 . S
C74 C75 1.491 . S
C74 O92 1.254 . S
C74 O93 1.225 . S
C75 C74 1.491 . S
C75 C76 1.392 . S
C75 C80 1.356 . S
C76 C75 1.392 . S
C76 C77 1.368 . S
C76 H104 0.929 . S
C77 C76 1.368 . S
C77 C78 1.386 . S
C77 H105 0.929 . S
C78 C77 1.386 . S
C78 C79 1.373 . S
C79 C78 1.373 . S
C79 C80 1.409 . S
C79 H106 0.916 1_455 S
C80 C75 1.356 . S
C80 C79 1.409 . S
C80 H107 0.930 1_455 S
C81 O94 1.270 1_565 S
C81 O95 1.248 . S
C82 O96 1.267 . S
C82 O97 1.278 1_655 S
C83 Pr73 2.880 . S
C83 C84 1.491 . S
C83 O98 1.254 . S
C83 O99 1.225 . S
C84 C83 1.491 . S
C84 C85 1.392 . S
C84 C89 1.356 . S
C85 C84 1.392 . S
C85 C86 1.368 . S
C85 H108 0.929 . S
C86 C85 1.368 . S
C86 C87 1.386 . S
C86 H109 0.929 . S
C87 C86 1.386 . S
C87 C88 1.373 . S
C88 C87 1.373 . S
C88 C89 1.409 . S
C88 H110 0.906 1_655 S
C89 C84 1.356 . S
C89 C88 1.409 . S
C89 H111 0.930 1_655 S
C90 O100 1.270 1_545 S
C90 O101 1.248 . S
C91 O102 1.267 . S
C91 O103 1.278 1_455 S
O92 Pr72 2.562 . S
O92 C74 1.254 . S
O93 Pr72 2.490 . S
O93 C74 1.225 . S
O94 Pr72 2.695 1_545 S
O94 Pr73 2.436 1_455 S
O94 C81 1.270 1_545 S
O95 Pr72 2.512 . S
O95 C81 1.248 . S
O96 Pr73 2.438 1_565 S
O96 C82 1.267 . S
O97 Pr72 2.437 . S
O97 C82 1.278 1_455 S
O98 Pr73 2.562 . S
O98 C83 1.254 . S
O99 Pr73 2.490 . S
O99 C83 1.225 . S
O100 Pr72 2.436 1_655 S
O100 Pr73 2.695 1_565 S
O100 C90 1.270 1_565 S
O101 Pr73 2.512 . S
O101 C90 1.248 . S
O102 Pr72 2.438 1_545 S
O102 C91 1.267 . S
O103 Pr73 2.437 . S
O103 C91 1.278 1_655 S
H104 C76 0.929 . S
H105 C77 0.929 . S
H106 C79 0.916 1_655 S
H107 C80 0.930 1_655 S
H108 C85 0.929 . S
H109 C86 0.929 . S
H110 C88 0.906 1_455 S
H111 C89 0.930 1_455 S
Pr112 C114 2.880 . S
Pr112 O132 2.562 . S
Pr112 O133 2.490 . S
Pr112 O134 2.695 . S
Pr112 O135 2.512 . S
Pr112 O137 2.437 . S
Pr112 O140 2.436 1_545 S
Pr112 O142 2.438 . S
Pr113 C123 2.880 . S
Pr113 O134 2.436 1_565 S
Pr113 O136 2.438 . S
Pr113 O138 2.562 . S
Pr113 O139 2.490 . S
Pr113 O140 2.695 . S
Pr113 O141 2.512 . S
Pr113 O143 2.437 . S
C114 Pr112 2.880 . S
C114 C115 1.491 . S
C114 O132 1.254 . S
C114 O133 1.225 . S
C115 C114 1.491 . S
C115 C116 1.392 . S
C115 C120 1.356 . S
C116 C115 1.392 . S
C116 C117 1.368 . S
C116 H144 0.929 . S
C117 C116 1.368 . S
C117 C118 1.386 . S
C117 H145 0.929 . S
C118 C117 1.386 . S
C118 C119 1.373 . S
C119 C118 1.373 . S
C119 C120 1.409 . S
C119 H146 0.891 1_545 S
C120 C115 1.356 . S
C120 C119 1.409 . S
C120 H147 0.930 1_545 S
C121 O134 1.270 . S
C121 O135 1.248 . S
C122 O136 1.267 . S
C122 O137 1.278 1_565 S
C123 Pr113 2.880 . S
C123 C124 1.491 . S
C123 O138 1.254 . S
C123 O139 1.225 . S
C124 C123 1.491 . S
C124 C125 1.392 . S
C124 C129 1.356 . S
C125 C124 1.392 . S
C125 C126 1.368 . S
C125 H148 0.929 . S
C126 C125 1.368 . S
C126 C127 1.386 . S
C126 H149 0.929 . S
C127 C126 1.386 . S
C127 C128 1.373 . S
C128 C127 1.373 . S
C128 C129 1.409 . S
C128 H150 0.931 1_565 S
C129 C124 1.356 . S
C129 C128 1.409 . S
C129 H151 0.930 1_565 S
C130 O140 1.270 . S
C130 O141 1.248 . S
C131 O142 1.267 . S
C131 O143 1.278 1_545 S
O132 Pr112 2.562 . S
O132 C114 1.254 . S
O133 Pr112 2.490 . S
O133 C114 1.225 . S
O134 Pr112 2.695 . S
O134 Pr113 2.436 1_545 S
O134 C121 1.270 . S
O135 Pr112 2.512 . S
O135 C121 1.248 . S
O136 Pr113 2.438 . S
O136 C122 1.267 . S
O137 Pr112 2.437 . S
O137 C122 1.278 1_545 S
O138 Pr113 2.562 . S
O138 C123 1.254 . S
O139 Pr113 2.490 . S
O139 C123 1.225 . S
O140 Pr112 2.436 1_565 S
O140 Pr113 2.695 . S
O140 C130 1.270 . S
O141 Pr113 2.512 . S
O141 C130 1.248 . S
O142 Pr112 2.438 . S
O142 C131 1.267 . S
O143 Pr113 2.437 . S
O143 C131 1.278 1_565 S
H144 C116 0.929 . S
H145 C117 0.929 . S
H146 C119 0.891 1_565 S
H147 C120 0.930 1_565 S
H148 C125 0.929 . S
H149 C126 0.929 . S
H150 C128 0.931 1_545 S
H151 C129 0.930 1_545 S
Pr152 C154 2.880 . S
Pr152 O172 2.562 . S
Pr152 O173 2.490 . S
Pr152 O174 2.695 . S
Pr152 O175 2.512 . S
Pr152 O177 2.437 . S
Pr152 O180 2.436 . S
Pr152 O182 2.438 . S
Pr153 C163 2.880 . S
Pr153 O174 2.436 . S
Pr153 O176 2.438 . S
Pr153 O178 2.562 . S
Pr153 O179 2.490 . S
Pr153 O180 2.695 . S
Pr153 O181 2.512 . S
Pr153 O183 2.437 . S
C154 Pr152 2.880 . S
C154 C155 1.491 . S
C154 O172 1.254 . S
C154 O173 1.225 . S
C155 C154 1.491 . S
C155 C156 1.392 . S
C155 C160 1.356 . S
C156 C155 1.392 . S
C156 C157 1.368 . S
C156 H184 0.929 . S
C157 C156 1.368 . S
C157 C158 1.386 . S
C157 H185 0.929 . S
C158 C157 1.386 . S
C158 C159 1.373 . S
C159 C158 1.373 . S
C159 C160 1.409 . S
C159 H186 0.931 . S
C160 C155 1.356 . S
C160 C159 1.409 . S
C160 H187 0.930 . S
C161 O174 1.270 . S
C161 O175 1.248 . S
C162 O176 1.267 . S
C162 O177 1.278 . S
C163 Pr153 2.880 . S
C163 C164 1.491 . S
C163 O178 1.254 . S
C163 O179 1.225 . S
C164 C163 1.491 . S
C164 C165 1.392 . S
C164 C169 1.356 . S
C165 C164 1.392 . S
C165 C166 1.368 . S
C165 H188 0.929 . S
C166 C165 1.368 . S
C166 C167 1.386 . S
C166 H189 0.929 . S
C167 C166 1.386 . S
C167 C168 1.373 . S
C168 C167 1.373 . S
C168 C169 1.409 . S
C168 H190 0.931 . S
C169 C164 1.356 . S
C169 C168 1.409 . S
C169 H191 0.930 . S
C170 O180 1.270 . S
C170 O181 1.248 . S
C171 O182 1.267 . S
C171 O183 1.278 . S
O172 Pr152 2.562 . S
O172 C154 1.254 . S
O173 Pr152 2.490 . S
O173 C154 1.225 . S
O174 Pr152 2.695 . S
O174 Pr153 2.436 . S
O174 C161 1.270 . S
O175 Pr152 2.512 . S
O175 C161 1.248 . S
O176 Pr153 2.438 . S
O176 C162 1.267 . S
O177 Pr152 2.437 . S
O177 C162 1.278 . S
O178 Pr153 2.562 . S
O178 C163 1.254 . S
O179 Pr153 2.490 . S
O179 C163 1.225 . S
O180 Pr152 2.436 . S
O180 Pr153 2.695 . S
O180 C170 1.270 . S
O181 Pr153 2.512 . S
O181 C170 1.248 . S
O182 Pr152 2.438 . S
O182 C171 1.267 . S
O183 Pr153 2.437 . S
O183 C171 1.278 . S
H184 C156 0.929 . S
H185 C157 0.929 . S
H186 C159 0.931 . S
H187 C160 0.930 . S
H188 C165 0.929 . S
H189 C166 0.929 . S
H190 C168 0.931 . S
H191 C169 0.930 . S
Pr192 C194 2.880 . S
Pr192 O212 2.562 . S
Pr192 O213 2.490 . S
Pr192 O214 2.695 1_655 S
Pr192 O215 2.512 . S
Pr192 O217 2.437 . S
Pr192 O220 2.436 . S
Pr192 O222 2.438 1_655 S
Pr193 C203 2.880 . S
Pr193 O214 2.436 . S
Pr193 O216 2.438 1_455 S
Pr193 O218 2.562 . S
Pr193 O219 2.490 . S
Pr193 O220 2.695 1_455 S
Pr193 O221 2.512 . S
Pr193 O223 2.437 . S
C194 Pr192 2.880 . S
C194 C195 1.491 . S
C194 O212 1.254 . S
C194 O213 1.225 . S
C195 C194 1.491 . S
C195 C196 1.392 . S
C195 C200 1.356 . S
C196 C195 1.392 . S
C196 C197 1.368 . S
C196 H224 0.929 . S
C197 C196 1.368 . S
C197 C198 1.386 . S
C197 H225 0.929 . S
C198 C197 1.386 . S
C198 C199 1.373 . S
C199 C198 1.373 . S
C199 C200 1.409 . S
C199 H226 0.931 . S
C200 C195 1.356 . S
C200 C199 1.409 . S
C200 H227 0.930 . S
C201 O214 1.259 1_655 S
C201 O215 1.268 . S
C202 O216 1.267 . S
C202 O217 1.278 . S
C203 Pr193 2.880 . S
C203 C204 1.491 . S
C203 O218 1.254 . S
C203 O219 1.225 . S
C204 C203 1.491 . S
C204 C205 1.392 . S
C204 C209 1.356 . S
C205 C204 1.392 . S
C205 C206 1.368 . S
C205 H228 0.929 . S
C206 C205 1.368 . S
C206 C207 1.386 . S
C206 H229 0.929 . S
C207 C206 1.386 . S
C207 C208 1.373 . S
C208 C207 1.373 . S
C208 C209 1.409 . S
C208 H230 0.931 . S
C209 C204 1.356 . S
C209 C208 1.409 . S
C209 H231 0.930 . S
C210 O220 1.256 1_455 S
C210 O221 1.274 . S
C211 O222 1.267 . S
C211 O223 1.278 . S
O212 Pr192 2.562 . S
O212 C194 1.254 . S
O213 Pr192 2.490 . S
O213 C194 1.225 . S
O214 Pr192 2.695 1_455 S
O214 Pr193 2.436 . S
O214 C201 1.259 1_455 S
O215 Pr192 2.512 . S
O215 C201 1.268 . S
O216 Pr193 2.438 1_655 S
O216 C202 1.267 . S
O217 Pr192 2.437 . S
O217 C202 1.278 . S
O218 Pr193 2.562 . S
O218 C203 1.254 . S
O219 Pr193 2.490 . S
O219 C203 1.225 . S
O220 Pr192 2.436 . S
O220 Pr193 2.695 1_655 S
O220 C210 1.256 1_655 S
O221 Pr193 2.512 . S
O221 C210 1.274 . S
O222 Pr192 2.438 1_455 S
O222 C211 1.267 . S
O223 Pr193 2.437 . S
O223 C211 1.278 . S
H224 C196 0.929 . S
H225 C197 0.929 . S
H226 C199 0.931 . S
H227 C200 0.930 . S
H228 C205 0.929 . S
H229 C206 0.929 . S
H230 C208 0.931 . S
H231 C209 0.930 . S
C232 C233 1.345 1_565 S
C232 C234 1.327 . S
C232 H257 0.950 . S
C233 C232 1.345 1_545 S
C233 C249 1.353 . S
C234 C232 1.327 . S
C234 C253 1.415 1_565 S
C234 H258 0.950 . S
C235 C252 1.574 . S
C235 C254 1.390 . S
C235 H259 0.949 . S
H236 C240 0.949 . S
C237 C238 1.349 . S
C237 C239 1.327 . S
C237 H260 0.950 . S
C238 C237 1.349 . S
C238 C250 1.349 1_545 S
C239 C237 1.327 . S
C239 C255 1.464 . S
C239 H261 0.950 . S
C240 H236 0.949 . S
C240 C248 1.574 . S
C240 C256 1.337 1_565 S
H241 C249 0.950 . S
H242 C247 0.950 . S
H243 C248 0.949 . S
H244 C250 0.950 . S
H245 C251 0.950 . S
H246 C252 0.949 . S
C247 H242 0.950 . S
C247 C249 1.327 . S
C247 C253 1.442 . S
C248 C240 1.574 . S
C248 H243 0.949 . S
C248 C254 1.347 1_565 S
C249 C233 1.353 . S
C249 H241 0.950 . S
C249 C247 1.327 . S
C250 C238 1.349 1_565 S
C250 H244 0.950 . S
C250 C251 1.327 . S
C251 H245 0.950 . S
C251 C250 1.327 . S
C251 C255 1.395 1_565 S
C252 C235 1.574 . S
C252 H246 0.949 . S
C252 C256 1.400 . S
C253 C234 1.415 1_545 S
C253 C247 1.442 . S
C253 C254 1.523 . S
C254 C235 1.390 . S
C254 C248 1.347 1_545 S
C254 C253 1.523 . S
C255 C239 1.464 . S
C255 C251 1.395 1_545 S
C255 C256 1.523 . S
C256 C240 1.337 1_545 S
C256 C252 1.400 . S
C256 C255 1.523 . S
H257 C232 0.950 . S
H258 C234 0.950 . S
H259 C235 0.949 . S
H260 C237 0.950 . S
H261 C239 0.950 . S
C262 C263 1.349 . S
C262 C264 1.327 . S
C262 H287 0.950 . S
C263 C262 1.349 . S
C263 C279 1.349 . S
C264 C262 1.327 . S
C264 C283 1.429 . S
C264 H288 0.950 . S
C265 C282 1.574 . S
C265 C284 1.368 . S
C265 H289 0.949 . S
H266 C270 0.949 . S
C267 C268 1.349 . S
C267 C269 1.327 . S
C267 H290 0.950 . S
C268 C267 1.349 . S
C268 C280 1.349 . S
C269 C267 1.327 . S
C269 C285 1.429 . S
C269 H291 0.950 . S
C270 H266 0.949 . S
C270 C278 1.574 . S
C270 C286 1.368 . S
H271 C279 0.950 . S
H272 C277 0.950 . S
H273 C278 0.949 . S
H274 C280 0.950 . S
H275 C281 0.950 . S
H276 C282 0.949 . S
C277 H272 0.950 . S
C277 C279 1.327 . S
C277 C283 1.429 . S
C278 C270 1.574 . S
C278 H273 0.949 . S
C278 C284 1.368 . S
C279 C263 1.349 . S
C279 H271 0.950 . S
C279 C277 1.327 . S
C280 C268 1.349 . S
C280 H274 0.950 . S
C280 C281 1.327 . S
C281 H275 0.950 . S
C281 C280 1.327 . S
C281 C285 1.429 . S
C282 C265 1.574 . S
C282 H276 0.949 . S
C282 C286 1.368 . S
C283 C264 1.429 . S
C283 C277 1.429 . S
C283 C284 1.523 . S
C284 C265 1.368 . S
C284 C278 1.368 . S
C284 C283 1.523 . S
C285 C269 1.429 . S
C285 C281 1.429 . S
C285 C286 1.523 . S
C286 C270 1.368 . S
C286 C282 1.368 . S
C286 C285 1.523 . S
H287 C262 0.950 . S
H288 C264 0.950 . S
H289 C265 0.949 . S
H290 C267 0.950 . S
H291 C269 0.950 . S
C292 C293 1.349 . S
C292 C294 1.327 . S
C292 H317 0.950 . S
C293 C292 1.349 . S
C293 C309 1.349 . S
C294 C292 1.327 . S
C294 C313 1.429 . S
C294 H318 0.950 . S
C295 C312 1.574 . S
C295 C314 1.368 . S
C295 H319 0.949 . S
H296 C300 0.949 . S
C297 C298 1.349 . S
C297 C299 1.327 . S
C297 H320 0.950 . S
C298 C297 1.349 . S
C298 C310 1.349 . S
C299 C297 1.327 . S
C299 C315 1.429 . S
C299 H321 0.950 . S
C300 H296 0.949 . S
C300 C308 1.574 . S
C300 C316 1.368 . S
H301 C309 0.950 . S
H302 C307 0.950 . S
H303 C308 0.949 . S
H304 C310 0.950 . S
H305 C311 0.950 . S
H306 C312 0.949 . S
C307 H302 0.950 . S
C307 C309 1.327 . S
C307 C313 1.429 . S
C308 C300 1.574 . S
C308 H303 0.949 . S
C308 C314 1.368 . S
C309 C293 1.349 . S
C309 H301 0.950 . S
C309 C307 1.327 . S
C310 C298 1.349 . S
C310 H304 0.950 . S
C310 C311 1.327 . S
C311 H305 0.950 . S
C311 C310 1.327 . S
C311 C315 1.429 . S
C312 C295 1.574 . S
C312 H306 0.949 . S
C312 C316 1.368 . S
C313 C294 1.429 . S
C313 C307 1.429 . S
C313 C314 1.523 . S
C314 C295 1.368 . S
C314 C308 1.368 . S
C314 C313 1.523 . S
C315 C299 1.429 . S
C315 C311 1.429 . S
C315 C316 1.523 . S
C316 C300 1.368 . S
C316 C312 1.368 . S
C316 C315 1.523 . S
H317 C292 0.950 . S
H318 C294 0.950 . S
H319 C295 0.949 . S
H320 C297 0.950 . S
H321 C299 0.950 . S
C322 C323 1.352 . S
C322 C324 1.327 . S
C322 H347 0.950 . S
C323 C322 1.352 . S
C323 C339 1.346 1_455 S
C324 C322 1.327 . S
C324 C343 1.439 . S
C324 H348 0.950 . S
C325 C342 1.574 . S
C325 C344 1.353 1_655 S
C325 H349 0.949 . S
H326 C330 0.949 . S
C327 C328 1.349 1_655 S
C327 C329 1.327 . S
C327 H350 0.950 . S
C328 C327 1.349 1_455 S
C328 C340 1.349 . S
C329 C327 1.327 . S
C329 C345 1.429 1_655 S
C329 H351 0.950 . S
C330 H326 0.949 . S
C330 C338 1.574 . S
C330 C346 1.368 . S
H331 C339 0.950 . S
H332 C337 0.950 . S
H333 C338 0.949 . S
H334 C340 0.950 . S
H335 C341 0.950 . S
H336 C342 0.949 . S
C337 H332 0.950 . S
C337 C339 1.327 . S
C337 C343 1.418 1_655 S
C338 C330 1.574 . S
C338 H333 0.949 . S
C338 C344 1.385 . S
C339 C323 1.346 1_655 S
C339 H331 0.950 . S
C339 C337 1.327 . S
C340 C328 1.349 . S
C340 H334 0.950 . S
C340 C341 1.327 . S
C341 H335 0.950 . S
C341 C340 1.327 . S
C341 C345 1.429 . S
C342 C325 1.574 . S
C342 H336 0.949 . S
C342 C346 1.368 1_655 S
C343 C324 1.439 . S
C343 C337 1.418 1_455 S
C343 C344 1.523 . S
C344 C325 1.353 1_455 S
C344 C338 1.385 . S
C344 C343 1.523 . S
C345 C329 1.429 1_455 S
C345 C341 1.429 . S
C345 C346 1.523 . S
C346 C330 1.368 . S
C346 C342 1.368 1_455 S
C346 C345 1.523 . S
H347 C322 0.950 . S
H348 C324 0.950 . S
H349 C325 0.949 . S
H350 C327 0.950 . S
H351 C329 0.950 . S
C352 C353 1.345 . S
C352 C354 1.327 . S
C352 H377 0.950 . S
C353 C352 1.345 . S
C353 C369 1.353 1_545 S
C354 C352 1.327 . S
C354 C373 1.423 1_545 S
C354 H378 0.950 . S
C355 C372 1.574 . S
C355 C374 1.381 . S
C355 H379 0.949 . S
H356 C360 0.949 . S
C357 C358 1.387 . S
C357 C359 1.327 . S
C357 H380 0.950 . S
C358 C357 1.387 . S
C358 C370 1.311 1_565 S
C359 C357 1.327 . S
C359 C375 1.456 . S
C359 H381 0.950 . S
C360 H356 0.949 . S
C360 C368 1.574 . S
C360 C376 1.345 1_545 S
H361 C369 0.950 . S
H362 C367 0.950 . S
H363 C368 0.949 . S
H364 C370 0.950 . S
H365 C371 0.950 . S
H366 C372 0.949 1_556 S
C367 H362 0.950 . S
C367 C369 1.327 . S
C367 C373 1.434 . S
C368 C360 1.574 . S
C368 H363 0.949 . S
C368 C374 1.356 1_545 S
C369 C353 1.353 1_565 S
C369 H361 0.950 . S
C369 C367 1.327 . S
C370 C358 1.311 1_545 S
C370 H364 0.950 . S
C370 C371 1.327 . S
C371 H365 0.950 . S
C371 C370 1.327 . S
C371 C375 1.402 1_545 S
C372 C355 1.574 . S
C372 H366 0.949 1_554 S
C372 C376 1.391 . S
C373 C354 1.423 1_565 S
C373 C367 1.434 . S
C373 C374 1.523 . S
C374 C355 1.381 . S
C374 C368 1.356 1_565 S
C374 C373 1.523 . S
C375 C359 1.456 . S
C375 C371 1.402 1_565 S
C375 C376 1.523 1_556 S
C376 C360 1.345 1_565 S
C376 C372 1.391 . S
C376 C375 1.523 1_554 S
H377 C352 0.950 . S
H378 C354 0.950 . S
H379 C355 0.949 . S
H380 C357 0.950 . S
H381 C359 0.950 . S
C382 C383 1.349 . S
C382 C384 1.327 . S
C382 H407 0.950 . S
C383 C382 1.349 . S
C383 C399 1.349 . S
C384 C382 1.327 . S
C384 C403 1.429 . S
C384 H408 0.950 . S
C385 C402 1.574 . S
C385 C404 1.368 . S
C385 H409 0.949 . S
H386 C390 0.949 . S
C387 C388 1.349 . S
C387 C389 1.327 . S
C387 H410 0.950 . S
C388 C387 1.349 . S
C388 C400 1.349 . S
C389 C387 1.327 . S
C389 C405 1.429 . S
C389 H411 0.950 . S
C390 H386 0.949 . S
C390 C398 1.574 1_556 S
C390 C406 1.368 1_556 S
H391 C399 0.950 . S
H392 C397 0.950 . S
H393 C398 0.949 . S
H394 C400 0.950 . S
H395 C401 0.950 . S
H396 C402 0.949 . S
C397 H392 0.950 . S
C397 C399 1.327 . S
C397 C403 1.429 . S
C398 C390 1.574 1_554 S
C398 H393 0.949 . S
C398 C404 1.368 . S
C399 C383 1.349 . S
C399 H391 0.950 . S
C399 C397 1.327 . S
C400 C388 1.349 . S
C400 H394 0.950 . S
C400 C401 1.327 . S
C401 H395 0.950 . S
C401 C400 1.327 . S
C401 C405 1.429 . S
C402 C385 1.574 . S
C402 H396 0.949 . S
C402 C406 1.368 . S
C403 C384 1.429 . S
C403 C397 1.429 . S
C403 C404 1.523 . S
C404 C385 1.368 . S
C404 C398 1.368 . S
C404 C403 1.523 . S
C405 C389 1.429 . S
C405 C401 1.429 . S
C405 C406 1.523 1_556 S
C406 C390 1.368 1_554 S
C406 C402 1.368 . S
C406 C405 1.523 1_554 S
H407 C382 0.950 . S
H408 C384 0.950 . S
H409 C385 0.949 . S
H410 C387 0.950 . S
H411 C389 0.950 . S
C412 C413 1.349 . S
C412 C414 1.327 . S
C412 H437 0.950 . S
C413 C412 1.349 . S
C413 C429 1.349 . S
C414 C412 1.327 . S
C414 C433 1.429 . S
C414 H438 0.950 . S
C415 C432 1.574 . S
C415 C434 1.368 . S
C415 H439 0.949 . S
H416 C420 0.949 1_556 S
C417 C418 1.349 . S
C417 C419 1.327 . S
C417 H440 0.950 . S
C418 C417 1.349 . S
C418 C430 1.349 . S
C419 C417 1.327 . S
C419 C435 1.429 . S
C419 H441 0.950 . S
C420 H416 0.949 1_554 S
C420 C428 1.574 . S
C420 C436 1.368 . S
H421 C429 0.950 . S
H422 C427 0.950 . S
H423 C428 0.949 . S
H424 C430 0.950 . S
H425 C431 0.950 . S
H426 C432 0.949 . S
C427 H422 0.950 . S
C427 C429 1.327 . S
C427 C433 1.429 . S
C428 C420 1.574 . S
C428 H423 0.949 . S
C428 C434 1.368 . S
C429 C413 1.349 . S
C429 H421 0.950 . S
C429 C427 1.327 . S
C430 C418 1.349 . S
C430 H424 0.950 . S
C430 C431 1.327 . S
C431 H425 0.950 . S
C431 C430 1.327 . S
C431 C435 1.429 . S
C432 C415 1.574 . S
C432 H426 0.949 . S
C432 C436 1.368 . S
C433 C414 1.429 . S
C433 C427 1.429 . S
C433 C434 1.523 . S
C434 C415 1.368 . S
C434 C428 1.368 . S
C434 C433 1.523 . S
C435 C419 1.429 . S
C435 C431 1.429 . S
C435 C436 1.523 1_556 S
C436 C420 1.368 . S
C436 C432 1.368 . S
C436 C435 1.523 1_554 S
H437 C412 0.950 . S
H438 C414 0.950 . S
H439 C415 0.949 . S
H440 C417 0.950 . S
H441 C419 0.950 . S
C442 C443 1.349 . S
C442 C444 1.327 . S
C442 H467 0.950 . S
C443 C442 1.349 . S
C443 C459 1.349 . S
C444 C442 1.327 . S
C444 C463 1.428 . S
C444 H468 0.951 . S
C445 C462 1.574 . S
C445 C464 1.368 . S
C445 H469 0.949 . S
H446 C450 0.949 . S
C447 C448 1.349 . S
C447 C449 1.327 . S
C447 H470 0.950 . S
C448 C447 1.349 . S
C448 C460 1.349 . S
C449 C447 1.327 . S
C449 C465 1.429 . S
C449 H471 0.951 1_556 S
C450 H446 0.949 . S
C450 C458 1.574 1_556 S
C450 C466 1.368 1_556 S
H451 C459 0.950 1_455 S
H452 C457 0.950 1_455 S
H453 C458 0.949 . S
H454 C460 0.950 . S
H455 C461 0.950 . S
H456 C462 0.949 . S
C457 H452 0.950 1_655 S
C457 C459 1.327 . S
C457 C463 1.428 . S
C458 C450 1.574 1_554 S
C458 H453 0.949 . S
C458 C464 1.370 . S
C459 C443 1.349 . S
C459 H451 0.950 1_655 S
C459 C457 1.327 . S
C460 C448 1.349 . S
C460 H454 0.950 . S
C460 C461 1.327 . S
C461 H455 0.950 . S
C461 C460 1.327 . S
C461 C465 1.429 . S
C462 C445 1.574 . S
C462 H456 0.949 . S
C462 C466 1.369 . S
C463 C444 1.428 . S
C463 C457 1.428 . S
C463 C464 1.523 . S
C464 C445 1.368 . S
C464 C458 1.370 . S
C464 C463 1.523 . S
C465 C449 1.429 . S
C465 C461 1.429 . S
C465 C466 1.523 1_556 S
C466 C450 1.368 1_554 S
C466 C462 1.369 . S
C466 C465 1.523 1_554 S
H467 C442 0.950 . S
H468 C444 0.951 . S
H469 C445 0.949 . S
H470 C447 0.950 . S
H471 C449 0.951 1_554 S
C472 C473 1.349 1_655 S
C472 C474 1.327 . S
C472 H497 0.950 . S
C473 C472 1.349 1_455 S
C473 C489 1.349 . S
C474 C472 1.327 . S
C474 C493 1.429 . S
C474 H498 0.950 . S
C475 C492 1.573 . S
C475 C494 1.368 1_455 S
C475 H499 0.949 . S
H476 C480 0.949 . S
C477 C478 1.349 . S
C477 C479 1.327 . S
C477 H500 0.950 . S
C478 C477 1.349 . S
C478 C490 1.349 . S
C479 C477 1.327 . S
C479 C495 1.429 . S
C479 H501 0.950 1_655 S
C480 H476 0.949 . S
C480 C488 1.574 . S
C480 C496 1.368 . S
H481 C489 0.950 . S
H482 C487 0.950 . S
H483 C488 0.949 . S
H484 C490 0.950 . S
H485 C491 0.950 . S
H486 C492 0.947 . S
C487 H482 0.950 . S
C487 C489 1.327 . S
C487 C493 1.429 1_455 S
C488 C480 1.574 . S
C488 H483 0.949 . S
C488 C494 1.368 . S
C489 C473 1.349 . S
C489 H481 0.950 . S
C489 C487 1.327 . S
C490 C478 1.349 . S
C490 H484 0.950 . S
C490 C491 1.327 . S
C491 H485 0.950 . S
C491 C490 1.327 . S
C491 C495 1.429 . S
C492 C475 1.573 . S
C492 H486 0.947 . S
C492 C496 1.372 1_455 S
C493 C474 1.429 . S
C493 C487 1.429 1_655 S
C493 C494 1.523 . S
C494 C475 1.368 1_655 S
C494 C488 1.368 . S
C494 C493 1.523 . S
C495 C479 1.429 . S
C495 C491 1.429 . S
C495 C496 1.523 . S
C496 C480 1.368 . S
C496 C492 1.372 1_655 S
C496 C495 1.523 . S
H497 C472 0.950 . S
H498 C474 0.950 . S
H499 C475 0.949 . S
H500 C477 0.950 . S
H501 C479 0.950 1_455 S
C502 C503 1.349 1_565 S
C502 C504 1.327 . S
C502 H527 0.950 . S
C503 C502 1.349 1_545 S
C503 C519 1.349 . S
C504 C502 1.327 . S
C504 C523 1.429 . S
C504 H528 0.950 . S
C505 C522 1.574 . S
C505 C524 1.368 . S
C505 H529 0.949 . S
H506 C510 0.949 . S
C507 C508 1.349 . S
C507 C509 1.327 . S
C507 H530 0.950 . S
C508 C507 1.349 . S
C508 C520 1.349 . S
C509 C507 1.327 . S
C509 C525 1.429 . S
C509 H531 0.950 . S
C510 H506 0.949 . S
C510 C518 1.574 . S
C510 C526 1.368 . S
H511 C519 0.950 . S
H512 C517 0.950 . S
H513 C518 0.949 . S
H514 C520 0.950 . S
H515 C521 0.950 . S
H516 C522 0.949 . S
C517 H512 0.950 . S
C517 C519 1.327 . S
C517 C523 1.429 1_545 S
C518 C510 1.574 . S
C518 H513 0.949 . S
C518 C524 1.368 . S
C519 C503 1.349 . S
C519 H511 0.950 . S
C519 C517 1.327 . S
C520 C508 1.349 . S
C520 H514 0.950 . S
C520 C521 1.327 . S
C521 H515 0.950 . S
C521 C520 1.327 . S
C521 C525 1.429 . S
C522 C505 1.574 . S
C522 H516 0.949 . S
C522 C526 1.368 . S
C523 C504 1.429 . S
C523 C517 1.429 1_565 S
C523 C524 1.523 . S
C524 C505 1.368 . S
C524 C518 1.368 . S
C524 C523 1.523 . S
C525 C509 1.429 . S
C525 C521 1.429 . S
C525 C526 1.523 . S
C526 C510 1.368 . S
C526 C522 1.368 . S
C526 C525 1.523 . S
H527 C502 0.950 . S
H528 C504 0.950 . S
H529 C505 0.949 . S
H530 C507 0.950 . S
H531 C509 0.950 . S
C532 C533 1.349 . S
C532 C534 1.327 . S
C532 H557 0.950 . S
C533 C532 1.349 . S
C533 C549 1.349 . S
C534 C532 1.327 . S
C534 C553 1.429 . S
C534 H558 0.950 . S
C535 C552 1.574 . S
C535 C554 1.368 . S
C535 H559 0.949 . S
H536 C540 0.949 . S
C537 C538 1.349 . S
C537 C539 1.327 . S
C537 H560 0.950 . S
C538 C537 1.349 . S
C538 C550 1.349 . S
C539 C537 1.327 . S
C539 C555 1.429 . S
C539 H561 0.950 . S
C540 H536 0.949 . S
C540 C548 1.574 . S
C540 C556 1.368 . S
H541 C549 0.950 . S
H542 C547 0.950 . S
H543 C548 0.949 . S
H544 C550 0.950 . S
H545 C551 0.950 . S
H546 C552 0.949 . S
C547 H542 0.950 . S
C547 C549 1.327 . S
C547 C553 1.429 . S
C548 C540 1.574 . S
C548 H543 0.949 . S
C548 C554 1.368 . S
C549 C533 1.349 . S
C549 H541 0.950 . S
C549 C547 1.327 . S
C550 C538 1.349 . S
C550 H544 0.950 . S
C550 C551 1.327 . S
C551 H545 0.950 . S
C551 C550 1.327 . S
C551 C555 1.429 . S
C552 C535 1.574 . S
C552 H546 0.949 . S
C552 C556 1.368 . S
C553 C534 1.429 . S
C553 C547 1.429 . S
C553 C554 1.523 . S
C554 C535 1.368 . S
C554 C548 1.368 . S
C554 C553 1.523 . S
C555 C539 1.429 . S
C555 C551 1.429 . S
C555 C556 1.523 . S
C556 C540 1.368 . S
C556 C552 1.368 . S
C556 C555 1.523 . S
H557 C532 0.950 . S
H558 C534 0.950 . S
H559 C535 0.949 . S
H560 C537 0.950 . S
H561 C539 0.950 . S
C562 C563 1.349 . S
C562 C564 1.327 . S
C562 H587 0.950 . S
C563 C562 1.349 . S
C563 C579 1.349 . S
C564 C562 1.327 . S
C564 C583 1.429 . S
C564 H588 0.950 . S
C565 C582 1.574 . S
C565 C584 1.368 . S
C565 H589 0.949 . S
H566 C570 0.949 . S
C567 C568 1.349 . S
C567 C569 1.327 . S
C567 H590 0.950 . S
C568 C567 1.349 . S
C568 C580 1.349 . S
C569 C567 1.327 . S
C569 C585 1.429 . S
C569 H591 0.950 . S
C570 H566 0.949 . S
C570 C578 1.574 . S
C570 C586 1.368 . S
H571 C579 0.950 . S
H572 C577 0.950 . S
H573 C578 0.949 . S
H574 C580 0.950 . S
H575 C581 0.950 . S
H576 C582 0.949 . S
C577 H572 0.950 . S
C577 C579 1.327 . S
C577 C583 1.429 . S
C578 C570 1.574 . S
C578 H573 0.949 . S
C578 C584 1.368 . S
C579 C563 1.349 . S
C579 H571 0.950 . S
C579 C577 1.327 . S
C580 C568 1.349 . S
C580 H574 0.950 . S
C580 C581 1.327 . S
C581 H575 0.950 . S
C581 C580 1.327 . S
C581 C585 1.429 . S
C582 C565 1.574 . S
C582 H576 0.949 . S
C582 C586 1.368 . S
C583 C564 1.429 . S
C583 C577 1.429 . S
C583 C584 1.523 . S
C584 C565 1.368 . S
C584 C578 1.368 . S
C584 C583 1.523 . S
C585 C569 1.429 . S
C585 C581 1.429 . S
C585 C586 1.523 . S
C586 C570 1.368 . S
C586 C582 1.368 . S
C586 C585 1.523 . S
H587 C562 0.950 . S
H588 C564 0.950 . S
H589 C565 0.949 . S
H590 C567 0.950 . S
H591 C569 0.950 . S
C592 C593 1.349 . S
C592 C594 1.327 . S
C592 H617 0.950 . S
C593 C592 1.349 . S
C593 C609 1.349 1_655 S
C594 C592 1.327 . S
C594 C613 1.429 1_655 S
C594 H618 0.950 . S
C595 C612 1.574 . S
C595 C614 1.368 . S
C595 H619 0.949 . S
H596 C600 0.946 1_655 S
C597 C598 1.349 . S
C597 C599 1.327 1_556 S
C597 H620 0.950 . S
C598 C597 1.349 . S
C598 C610 1.349 . S
C599 C597 1.327 1_554 S
C599 C615 1.429 . S
C599 H621 0.950 . S
C600 H596 0.946 1_455 S
C600 C608 1.573 1_455 S
C600 C616 1.372 . S
H601 C609 0.950 . S
H602 C607 0.950 . S
H603 C608 0.949 . S
H604 C610 0.950 . S
H605 C611 0.950 1_655 S
H606 C612 0.949 . S
C607 H602 0.950 . S
C607 C609 1.327 . S
C607 C613 1.429 . S
C608 C600 1.573 1_655 S
C608 H603 0.949 . S
C608 C614 1.368 1_655 S
C609 C593 1.349 1_455 S
C609 H601 0.950 . S
C609 C607 1.327 . S
C610 C598 1.349 . S
C610 H604 0.950 . S
C610 C611 1.327 1_556 S
C611 H605 0.950 1_455 S
C611 C610 1.327 1_554 S
C611 C615 1.429 . S
C612 C595 1.574 . S
C612 H606 0.949 . S
C612 C616 1.368 . S
C613 C594 1.429 1_455 S
C613 C607 1.429 . S
C613 C614 1.523 . S
C614 C595 1.368 . S
C614 C608 1.368 1_455 S
C614 C613 1.523 . S
C615 C599 1.429 . S
C615 C611 1.429 . S
C615 C616 1.523 . S
C616 C600 1.372 . S
C616 C612 1.368 . S
C616 C615 1.523 . S
H617 C592 0.950 . S
H618 C594 0.950 . S
H619 C595 0.949 . S
H620 C597 0.950 . S
H621 C599 0.950 . S
C622 C623 1.349 1_545 S
C622 C624 1.327 . S
C622 H647 0.950 . S
C623 C622 1.349 1_565 S
C623 C639 1.349 . S
C624 C622 1.327 . S
C624 C643 1.429 . S
C624 H648 0.950 . S
C625 C642 1.569 1_565 S
C625 C644 1.368 1_565 S
C625 H649 0.949 . S
H626 C630 0.949 . S
C627 C628 1.349 . S
C627 C629 1.327 . S
C627 H650 0.950 . S
C628 C627 1.349 . S
C628 C640 1.349 . S
C629 C627 1.327 . S
C629 C645 1.429 1_556 S
C629 H651 0.950 1_545 S
C630 H626 0.949 . S
C630 C638 1.574 . S
C630 C646 1.368 . S
H631 C639 0.950 . S
H632 C637 0.950 . S
H633 C638 0.949 . S
H634 C640 0.950 . S
H635 C641 0.950 . S
H636 C642 0.935 1_565 S
C637 H632 0.950 . S
C637 C639 1.327 . S
C637 C643 1.429 1_565 S
C638 C630 1.574 . S
C638 H633 0.949 . S
C638 C644 1.368 . S
C639 C623 1.349 . S
C639 H631 0.950 . S
C639 C637 1.327 . S
C640 C628 1.349 . S
C640 H634 0.950 . S
C640 C641 1.327 1_556 S
C641 H635 0.950 . S
C641 C640 1.327 1_554 S
C641 C645 1.429 . S
C642 C625 1.569 1_545 S
C642 H636 0.935 1_545 S
C642 C646 1.389 . S
C643 C624 1.429 . S
C643 C637 1.429 1_545 S
C643 C644 1.523 . S
C644 C625 1.368 1_545 S
C644 C638 1.368 . S
C644 C643 1.523 . S
C645 C629 1.429 1_554 S
C645 C641 1.429 . S
C645 C646 1.523 . S
C646 C630 1.368 . S
C646 C642 1.389 . S
C646 C645 1.523 . S
H647 C622 0.950 . S
H648 C624 0.950 . S
H649 C625 0.949 . S
H650 C627 0.950 . S
H651 C629 0.950 1_565 S
C652 C653 1.349 . S
C652 C654 1.327 . S
C652 H677 0.950 . S
C653 C652 1.349 . S
C653 C669 1.349 . S
C654 C652 1.327 . S
C654 C673 1.429 . S
C654 H678 0.950 . S
C655 C672 1.574 . S
C655 C674 1.368 . S
C655 H679 0.949 . S
H656 C660 0.949 . S
C657 C658 1.349 . S
C657 C659 1.327 . S
C657 H680 0.950 . S
C658 C657 1.349 . S
C658 C670 1.349 . S
C659 C657 1.327 . S
C659 C675 1.429 1_556 S
C659 H681 0.950 . S
C660 H656 0.949 . S
C660 C668 1.574 . S
C660 C676 1.368 . S
H661 C669 0.950 . S
H662 C667 0.950 . S
H663 C668 0.949 . S
H664 C670 0.950 . S
H665 C671 0.950 . S
H666 C672 0.949 . S
C667 H662 0.950 . S
C667 C669 1.327 . S
C667 C673 1.429 . S
C668 C660 1.574 . S
C668 H663 0.949 . S
C668 C674 1.368 . S
C669 C653 1.349 . S
C669 H661 0.950 . S
C669 C667 1.327 . S
C670 C658 1.349 . S
C670 H664 0.950 . S
C670 C671 1.327 1_556 S
C671 H665 0.950 . S
C671 C670 1.327 1_554 S
C671 C675 1.429 . S
C672 C655 1.574 . S
C672 H666 0.949 . S
C672 C676 1.368 . S
C673 C654 1.429 . S
C673 C667 1.429 . S
C673 C674 1.523 . S
C674 C655 1.368 . S
C674 C668 1.368 . S
C674 C673 1.523 . S
C675 C659 1.429 1_554 S
C675 C671 1.429 . S
C675 C676 1.523 . S
C676 C660 1.368 . S
C676 C672 1.368 . S
C676 C675 1.523 . S
H677 C652 0.950 . S
H678 C654 0.950 . S
H679 C655 0.949 . S
H680 C657 0.950 . S
H681 C659 0.950 . S
C682 C683 1.349 . S
C682 C684 1.327 . S
C682 H707 0.950 . S
C683 C682 1.349 . S
C683 C699 1.349 . S
C684 C682 1.327 . S
C684 C703 1.429 . S
C684 H708 0.950 . S
C685 C702 1.574 . S
C685 C704 1.368 . S
C685 H709 0.949 . S
H686 C690 0.949 . S
C687 C688 1.349 . S
C687 C689 1.327 . S
C687 H710 0.950 . S
C688 C687 1.349 . S
C688 C700 1.349 . S
C689 C687 1.327 . S
C689 C705 1.429 1_556 S
C689 H711 0.950 . S
C690 H686 0.949 . S
C690 C698 1.574 . S
C690 C706 1.368 . S
H691 C699 0.950 . S
H692 C697 0.950 . S
H693 C698 0.949 . S
H694 C700 0.950 . S
H695 C701 0.950 . S
H696 C702 0.949 . S
C697 H692 0.950 . S
C697 C699 1.327 . S
C697 C703 1.429 . S
C698 C690 1.574 . S
C698 H693 0.949 . S
C698 C704 1.368 . S
C699 C683 1.349 . S
C699 H691 0.950 . S
C699 C697 1.327 . S
C700 C688 1.349 . S
C700 H694 0.950 . S
C700 C701 1.327 1_556 S
C701 H695 0.950 . S
C701 C700 1.327 1_554 S
C701 C705 1.429 . S
C702 C685 1.574 . S
C702 H696 0.949 . S
C702 C706 1.368 . S
C703 C684 1.429 . S
C703 C697 1.429 . S
C703 C704 1.523 . S
C704 C685 1.368 . S
C704 C698 1.368 . S
C704 C703 1.523 . S
C705 C689 1.429 1_554 S
C705 C701 1.429 . S
C705 C706 1.523 . S
C706 C690 1.368 . S
C706 C702 1.368 . S
C706 C705 1.523 . S
H707 C682 0.950 . S
H708 C684 0.950 . S
H709 C685 0.949 . S
H710 C687 0.950 . S
H711 C689 0.950 . S
C712 C713 1.349 . S
C712 C714 1.327 . S
C712 H737 0.950 . S
C713 C712 1.349 . S
C713 C729 1.349 1_455 S
C714 C712 1.327 . S
C714 C733 1.429 . S
C714 H738 0.950 . S
C715 C732 1.574 . S
C715 C734 1.368 1_655 S
C715 H739 0.949 . S
H716 C720 0.949 . S
C717 C718 1.349 1_655 S
C717 C719 1.327 . S
C717 H740 0.950 . S
C718 C717 1.349 1_455 S
C718 C730 1.349 . S
C719 C717 1.327 . S
C719 C735 1.429 1_655 S
C719 H741 0.950 . S
C720 H716 0.949 . S
C720 C728 1.574 . S
C720 C736 1.368 . S
H721 C729 0.950 . S
H722 C727 0.950 . S
H723 C728 0.949 . S
H724 C730 0.950 . S
H725 C731 0.950 . S
H726 C732 0.949 . S
C727 H722 0.950 . S
C727 C729 1.327 . S
C727 C733 1.429 1_655 S
C728 C720 1.574 . S
C728 H723 0.949 . S
C728 C734 1.368 . S
C729 C713 1.349 1_655 S
C729 H721 0.950 . S
C729 C727 1.327 . S
C730 C718 1.349 . S
C730 H724 0.950 . S
C730 C731 1.327 . S
C731 H725 0.950 . S
C731 C730 1.327 . S
C731 C735 1.429 . S
C732 C715 1.574 . S
C732 H726 0.949 . S
C732 C736 1.368 1_655 S
C733 C714 1.429 . S
C733 C727 1.429 1_455 S
C733 C734 1.523 . S
C734 C715 1.368 1_455 S
C734 C728 1.368 . S
C734 C733 1.523 . S
C735 C719 1.429 1_455 S
C735 C731 1.429 . S
C735 C736 1.523 . S
C736 C720 1.368 . S
C736 C732 1.368 1_455 S
C736 C735 1.523 . S
H737 C712 0.950 . S
H738 C714 0.950 . S
H739 C715 0.949 . S
H740 C717 0.950 . S
H741 C719 0.950 . S
C742 C743 1.349 . S
C742 C744 1.327 . S
C742 H767 0.950 . S
C743 C742 1.349 . S
C743 C759 1.349 1_545 S
C744 C742 1.327 . S
C744 C763 1.429 . S
C744 H768 0.950 . S
C745 C762 1.574 . S
C745 C764 1.368 1_565 S
C745 H769 0.949 . S
H746 C750 0.949 . S
C747 C748 1.349 1_565 S
C747 C749 1.327 . S
C747 H770 0.950 . S
C748 C747 1.349 1_545 S
C748 C760 1.349 . S
C749 C747 1.327 . S
C749 C765 1.429 1_565 S
C749 H771 0.950 . S
C750 H746 0.949 . S
C750 C758 1.574 . S
C750 C766 1.368 . S
H751 C759 0.950 . S
H752 C757 0.950 . S
H753 C758 0.949 . S
H754 C760 0.950 . S
H755 C761 0.950 . S
H756 C762 0.949 . S
C757 H752 0.950 . S
C757 C759 1.327 . S
C757 C763 1.429 1_565 S
C758 C750 1.574 . S
C758 H753 0.949 . S
C758 C764 1.368 . S
C759 C743 1.349 1_565 S
C759 H751 0.950 . S
C759 C757 1.327 . S
C760 C748 1.349 . S
C760 H754 0.950 . S
C760 C761 1.327 . S
C761 H755 0.950 . S
C761 C760 1.327 . S
C761 C765 1.429 . S
C762 C745 1.574 . S
C762 H756 0.949 . S
C762 C766 1.368 1_565 S
C763 C744 1.429 . S
C763 C757 1.429 1_545 S
C763 C764 1.523 . S
C764 C745 1.368 1_545 S
C764 C758 1.368 . S
C764 C763 1.523 . S
C765 C749 1.429 1_545 S
C765 C761 1.429 . S
C765 C766 1.523 . S
C766 C750 1.368 . S
C766 C762 1.368 1_545 S
C766 C765 1.523 . S
H767 C742 0.950 . S
H768 C744 0.950 . S
H769 C745 0.949 . S
H770 C747 0.950 . S
H771 C749 0.950 . S
C772 C773 1.349 . S
C772 C774 1.327 . S
C772 H797 0.950 . S
C773 C772 1.349 . S
C773 C789 1.349 . S
C774 C772 1.327 . S
C774 C793 1.429 . S
C774 H798 0.950 . S
C775 C792 1.574 . S
C775 C794 1.368 . S
C775 H799 0.949 . S
H776 C780 0.949 . S
C777 C778 1.349 . S
C777 C779 1.327 . S
C777 H800 0.950 . S
C778 C777 1.349 . S
C778 C790 1.349 . S
C779 C777 1.327 . S
C779 C795 1.429 . S
C779 H801 0.950 . S
C780 H776 0.949 . S
C780 C788 1.574 . S
C780 C796 1.368 . S
H781 C789 0.950 1_554 S
H782 C787 0.950 . S
H783 C788 0.949 . S
H784 C790 0.950 . S
H785 C791 0.950 . S
H786 C792 0.949 . S
C787 H782 0.950 . S
C787 C789 1.327 . S
C787 C793 1.429 . S
C788 C780 1.574 . S
C788 H783 0.949 . S
C788 C794 1.368 . S
C789 C773 1.349 . S
C789 H781 0.950 1_556 S
C789 C787 1.327 . S
C790 C778 1.349 . S
C790 H784 0.950 . S
C790 C791 1.327 . S
C791 H785 0.950 . S
C791 C790 1.327 . S
C791 C795 1.429 . S
C792 C775 1.574 . S
C792 H786 0.949 . S
C792 C796 1.368 . S
C793 C774 1.429 . S
C793 C787 1.429 . S
C793 C794 1.523 . S
C794 C775 1.368 . S
C794 C788 1.368 . S
C794 C793 1.523 . S
C795 C779 1.429 . S
C795 C791 1.429 . S
C795 C796 1.523 . S
C796 C780 1.368 . S
C796 C792 1.368 . S
C796 C795 1.523 . S
H797 C772 0.950 . S
H798 C774 0.950 . S
H799 C775 0.949 . S
H800 C777 0.950 . S
H801 C779 0.950 . S
C802 C803 1.349 . S
C802 C804 1.327 . S
C802 H827 0.950 . S
C803 C802 1.349 . S
C803 C819 1.349 . S
C804 C802 1.327 . S
C804 C823 1.429 . S
C804 H828 0.950 . S
C805 C822 1.574 . S
C805 C824 1.368 . S
C805 H829 0.949 . S
H806 C810 0.949 . S
C807 C808 1.349 . S
C807 C809 1.327 . S
C807 H830 0.950 . S
C808 C807 1.349 . S
C808 C820 1.349 . S
C809 C807 1.327 . S
C809 C825 1.429 . S
C809 H831 0.950 . S
C810 H806 0.949 . S
C810 C818 1.574 . S
C810 C826 1.368 . S
H811 C819 0.950 . S
H812 C817 0.950 . S
H813 C818 0.949 . S
H814 C820 0.950 . S
H815 C821 0.950 . S
H816 C822 0.949 . S
C817 H812 0.950 . S
C817 C819 1.327 . S
C817 C823 1.429 . S
C818 C810 1.574 . S
C818 H813 0.949 . S
C818 C824 1.368 . S
C819 C803 1.349 . S
C819 H811 0.950 . S
C819 C817 1.327 . S
C820 C808 1.349 . S
C820 H814 0.950 . S
C820 C821 1.327 . S
C821 H815 0.950 . S
C821 C820 1.327 . S
C821 C825 1.429 . S
C822 C805 1.574 . S
C822 H816 0.949 . S
C822 C826 1.368 . S
C823 C804 1.429 . S
C823 C817 1.429 . S
C823 C824 1.523 . S
C824 C805 1.368 . S
C824 C818 1.368 . S
C824 C823 1.523 . S
C825 C809 1.429 . S
C825 C821 1.429 . S
C825 C826 1.523 . S
C826 C810 1.368 . S
C826 C822 1.368 . S
C826 C825 1.523 . S
H827 C802 0.950 . S
H828 C804 0.950 . S
H829 C805 0.949 . S
H830 C807 0.950 . S
H831 C809 0.950 . S
C832 C833 1.349 . S
C832 C834 1.327 . S
C832 H857 0.950 . S
C833 C832 1.349 . S
C833 C849 1.349 1_655 S
C834 C832 1.327 . S
C834 C853 1.429 . S
C834 H858 0.950 . S
C835 C852 1.574 . S
C835 C854 1.368 1_455 S
C835 H859 0.949 . S
H836 C840 0.949 . S
C837 C838 1.349 1_455 S
C837 C839 1.327 . S
C837 H860 0.950 . S
C838 C837 1.349 1_655 S
C838 C850 1.349 . S
C839 C837 1.327 . S
C839 C855 1.429 1_455 S
C839 H861 0.950 . S
C840 H836 0.949 . S
C840 C848 1.574 . S
C840 C856 1.368 . S
H841 C849 0.950 . S
H842 C847 0.950 . S
H843 C848 0.949 . S
H844 C850 0.950 . S
H845 C851 0.950 . S
H846 C852 0.949 . S
C847 H842 0.950 . S
C847 C849 1.327 . S
C847 C853 1.429 1_455 S
C848 C840 1.574 . S
C848 H843 0.949 . S
C848 C854 1.368 . S
C849 C833 1.349 1_455 S
C849 H841 0.950 . S
C849 C847 1.327 . S
C850 C838 1.349 . S
C850 H844 0.950 . S
C850 C851 1.327 . S
C851 H845 0.950 . S
C851 C850 1.327 . S
C851 C855 1.429 . S
C852 C835 1.574 . S
C852 H846 0.949 . S
C852 C856 1.368 1_455 S
C853 C834 1.429 . S
C853 C847 1.429 1_655 S
C853 C854 1.523 . S
C854 C835 1.368 1_655 S
C854 C848 1.368 . S
C854 C853 1.523 . S
C855 C839 1.429 1_655 S
C855 C851 1.429 . S
C855 C856 1.523 . S
C856 C840 1.368 . S
C856 C852 1.368 1_655 S
C856 C855 1.523 . S
H857 C832 0.950 . S
H858 C834 0.950 . S
H859 C835 0.949 . S
H860 C837 0.950 . S
H861 C839 0.950 . S
C862 C863 1.349 . S
C862 C864 1.327 . S
C862 H887 0.950 . S
C863 C862 1.349 . S
C863 C879 1.349 1_565 S
C864 C862 1.327 . S
C864 C883 1.429 . S
C864 H888 0.950 . S
C865 C882 1.574 . S
C865 C884 1.368 1_545 S
C865 H889 0.949 . S
H866 C870 0.949 . S
C867 C868 1.349 1_545 S
C867 C869 1.327 . S
C867 H890 0.950 . S
C868 C867 1.349 1_565 S
C868 C880 1.349 . S
C869 C867 1.327 . S
C869 C885 1.429 1_545 S
C869 H891 0.950 . S
C870 H866 0.949 . S
C870 C878 1.574 . S
C870 C886 1.368 . S
H871 C879 0.950 . S
H872 C877 0.950 . S
H873 C878 0.949 . S
H874 C880 0.950 . S
H875 C881 0.950 . S
H876 C882 0.949 . S
C877 H872 0.950 . S
C877 C879 1.327 . S
C877 C883 1.429 1_545 S
C878 C870 1.574 . S
C878 H873 0.949 . S
C878 C884 1.368 . S
C879 C863 1.349 1_545 S
C879 H871 0.950 . S
C879 C877 1.327 . S
C880 C868 1.349 . S
C880 H874 0.950 . S
C880 C881 1.327 . S
C881 H875 0.950 . S
C881 C880 1.327 . S
C881 C885 1.429 . S
C882 C865 1.574 . S
C882 H876 0.949 . S
C882 C886 1.368 1_545 S
C883 C864 1.429 . S
C883 C877 1.429 1_565 S
C883 C884 1.523 . S
C884 C865 1.368 1_565 S
C884 C878 1.368 . S
C884 C883 1.523 . S
C885 C869 1.429 1_565 S
C885 C881 1.429 . S
C885 C886 1.523 . S
C886 C870 1.368 . S
C886 C882 1.368 1_565 S
C886 C885 1.523 . S
H887 C862 0.950 . S
H888 C864 0.950 . S
H889 C865 0.949 . S
H890 C867 0.950 . S
H891 C869 0.950 . S
C892 C893 1.349 . S
C892 C894 1.327 . S
C892 H917 0.950 . S
C893 C892 1.349 . S
C893 C909 1.349 . S
C894 C892 1.327 . S
C894 C913 1.429 . S
C894 H918 0.950 . S
C895 C912 1.574 . S
C895 C914 1.368 . S
C895 H919 0.949 . S
H896 C900 0.949 . S
C897 C898 1.349 . S
C897 C899 1.327 . S
C897 H920 0.950 . S
C898 C897 1.349 . S
C898 C910 1.349 . S
C899 C897 1.327 . S
C899 C915 1.429 . S
C899 H921 0.950 . S
C900 H896 0.949 . S
C900 C908 1.574 . S
C900 C916 1.368 . S
H901 C909 0.950 . S
H902 C907 0.950 . S
H903 C908 0.949 . S
H904 C910 0.950 . S
H905 C911 0.950 . S
H906 C912 0.949 . S
C907 H902 0.950 . S
C907 C909 1.327 . S
C907 C913 1.429 . S
C908 C900 1.574 . S
C908 H903 0.949 . S
C908 C914 1.368 . S
C909 C893 1.349 . S
C909 H901 0.950 . S
C909 C907 1.327 . S
C910 C898 1.349 . S
C910 H904 0.950 . S
C910 C911 1.327 . S
C911 H905 0.950 . S
C911 C910 1.327 . S
C911 C915 1.429 . S
C912 C895 1.574 . S
C912 H906 0.949 . S
C912 C916 1.368 . S
C913 C894 1.429 . S
C913 C907 1.429 . S
C913 C914 1.523 . S
C914 C895 1.368 . S
C914 C908 1.368 . S
C914 C913 1.523 . S
C915 C899 1.429 . S
C915 C911 1.429 . S
C915 C916 1.523 . S
C916 C900 1.368 . S
C916 C912 1.368 . S
C916 C915 1.523 . S
H917 C892 0.950 . S
H918 C894 0.950 . S
H919 C895 0.949 . S
H920 C897 0.950 . S
H921 C899 0.950 . S
C922 C923 1.349 . S
C922 C924 1.327 . S
C922 H947 0.950 . S
C923 C922 1.349 . S
C923 C939 1.349 . S
C924 C922 1.327 . S
C924 C943 1.429 . S
C924 H948 0.950 . S
C925 C942 1.574 . S
C925 C944 1.368 . S
C925 H949 0.949 . S
H926 C930 0.949 . S
C927 C928 1.349 . S
C927 C929 1.327 . S
C927 H950 0.950 . S
C928 C927 1.349 . S
C928 C940 1.349 . S
C929 C927 1.327 . S
C929 C945 1.429 . S
C929 H951 0.950 . S
C930 H926 0.949 . S
C930 C938 1.574 . S
C930 C946 1.368 . S
H931 C939 0.950 . S
H932 C937 0.950 . S
H933 C938 0.949 . S
H934 C940 0.950 . S
H935 C941 0.950 . S
H936 C942 0.949 . S
C937 H932 0.950 . S
C937 C939 1.327 . S
C937 C943 1.429 . S
C938 C930 1.574 . S
C938 H933 0.949 . S
C938 C944 1.368 . S
C939 C923 1.349 . S
C939 H931 0.950 . S
C939 C937 1.327 . S
C940 C928 1.349 . S
C940 H934 0.950 . S
C940 C941 1.327 . S
C941 H935 0.950 . S
C941 C940 1.327 . S
C941 C945 1.429 . S
C942 C925 1.574 . S
C942 H936 0.949 . S
C942 C946 1.368 . S
C943 C924 1.429 . S
C943 C937 1.429 . S
C943 C944 1.523 . S
C944 C925 1.368 . S
C944 C938 1.368 . S
C944 C943 1.523 . S
C945 C929 1.429 . S
C945 C941 1.429 . S
C945 C946 1.523 . S
C946 C930 1.368 . S
C946 C942 1.368 . S
C946 C945 1.523 . S
H947 C922 0.950 . S
H948 C924 0.950 . S
H949 C925 0.949 . S
H950 C927 0.950 . S
H951 C929 0.950 . S
C233 C61 1.643 1_545 S
C238 C81 1.724 1_545 S
C268 C121 1.734 . S
C263 C70 1.655 . S
C298 C161 1.739 . S
C293 C43 1.656 . S
C328 C201 1.733 1_455 S
C323 C52 1.651 1_455 S
C358 C90 1.725 1_565 S
C353 C25 1.649 1_545 S
C383 C34 1.661 . S
C388 C130 1.738 . S
C413 C7 1.655 . S
C418 C170 1.738 . S
C443 C16 1.651 . S
C448 C210 1.732 1_655 S
C478 C87 0.317 . S
C473 C50 0.263 1_455 S
C508 C127 0.318 . S
C503 C59 0.269 1_545 S
C538 C167 0.317 . S
C533 C67 0.257 . S
C563 C41 0.267 . S
C568 C207 0.314 . S
C593 C14 0.258 . S
C598 C78 0.311 . S
C628 C118 0.318 . S
C623 C23 0.259 . S
C658 C158 0.317 . S
C653 C31 0.265 . S
C683 C5 0.251 . S
C688 C198 0.321 . S
C713 C49 1.811 1_455 S
C718 C91 1.986 . S
C743 C58 1.787 1_545 S
C748 C131 1.966 . S
C778 C171 1.957 . S
C773 C68 1.776 . S
C808 C211 1.977 . S
C803 C40 1.793 . S
C833 C13 1.810 . S
C838 C82 1.998 . S
C868 C122 1.967 . S
C863 C22 1.787 . S
C898 C162 1.957 . S
C893 C32 1.778 . S
C923 C4 1.795 . S
C928 C202 1.982 . S
