# Generated by pormake.
# Topology anh, (6,3)-cn, num edge types: 1
# Building blocks:
#     Node 0, Type 0, BuildingBlock: MIFKUJ_clean_sbu_0, # of connection points: 6
#     Node 1, Type 0, BuildingBlock: MIFKUJ_clean_sbu_0, # of connection points: 6
#     Node 2, Type 0, BuildingBlock: MIFKUJ_clean_sbu_0, # of connection points: 6
#     Node 3, Type 1, BuildingBlock: MIDCAF_clean_linker_0, # of connection points: 3
#     Node 4, Type 1, BuildingBlock: MIDCAF_clean_linker_0, # of connection points: 3
#     Node 5, Type 1, BuildingBlock: MIDCAF_clean_linker_0, # of connection points: 3
#     Node 6, Type 1, BuildingBlock: MIDCAF_clean_linker_0, # of connection points: 3
#     Node 7, Type 1, BuildingBlock: MIDCAF_clean_linker_0, # of connection points: 3
#     Node 8, Type 1, BuildingBlock: MIDCAF_clean_linker_0, # of connection points: 3
#     Edge 9, Type (0, 1), BuildingBlock: EZIPEK_clean_linker_0, # of connection points: 2
#     Edge 10, Type (0, 1), BuildingBlock: EZIPEK_clean_linker_0, # of connection points: 2
#     Edge 11, Type (0, 1), BuildingBlock: EZIPEK_clean_linker_0, # of connection points: 2
#     Edge 12, Type (0, 1), BuildingBlock: EZIPEK_clean_linker_0, # of connection points: 2
#     Edge 13, Type (0, 1), BuildingBlock: EZIPEK_clean_linker_0, # of connection points: 2
#     Edge 14, Type (0, 1), BuildingBlock: EZIPEK_clean_linker_0, # of connection points: 2
#     Edge 15, Type (0, 1), BuildingBlock: EZIPEK_clean_linker_0, # of connection points: 2
#     Edge 16, Type (0, 1), BuildingBlock: EZIPEK_clean_linker_0, # of connection points: 2
#     Edge 17, Type (0, 1), BuildingBlock: EZIPEK_clean_linker_0, # of connection points: 2
#     Edge 18, Type (0, 1), BuildingBlock: EZIPEK_clean_linker_0, # of connection points: 2
#     Edge 19, Type (0, 1), BuildingBlock: EZIPEK_clean_linker_0, # of connection points: 2
#     Edge 20, Type (0, 1), BuildingBlock: EZIPEK_clean_linker_0, # of connection points: 2
#     Edge 21, Type (0, 1), BuildingBlock: EZIPEK_clean_linker_0, # of connection points: 2
#     Edge 22, Type (0, 1), BuildingBlock: EZIPEK_clean_linker_0, # of connection points: 2
#     Edge 23, Type (0, 1), BuildingBlock: EZIPEK_clean_linker_0, # of connection points: 2
#     Edge 24, Type (0, 1), BuildingBlock: EZIPEK_clean_linker_0, # of connection points: 2
#     Edge 25, Type (0, 1), BuildingBlock: EZIPEK_clean_linker_0, # of connection points: 2
#     Edge 26, Type (0, 1), BuildingBlock: EZIPEK_clean_linker_0, # of connection points: 2
# Relax obj value: 0.135
# Max RMSD: 0.186
# Mean RMSD: 0.150
data_MOF--net-anh--node1-MIFKUJ_clean_sbu_0--node2-MIDCAF_clean_linker_0--edge1-EZIPEK_clean_linker_0
_symmetry_space_group_name_H-M    P1
_symmetry_Int_Tables_number       1
_symmetry_cell_setting            triclinic
loop_
_symmetry_equiv_pos_as_xyz
'x, y, z'
_cell_length_a     30.199155
_cell_length_b     29.761853
_cell_length_c     49.5876
_cell_angle_alpha  93.472377
_cell_angle_beta   91.513698
_cell_angle_gamma 120.49265
loop_
_atom_site_label
_atom_site_type_symbol
_atom_site_fract_x
_atom_site_fract_y
_atom_site_fract_z
_atom_type_partial_charge
Zn0 Zn 0.05784 0.55101 0.16631 0.0
Zn1 Zn 0.89371 0.46684 0.15793 0.0
C2 C 0.13281 0.5259 0.17953 0.0
O3 O 0.13229 0.5496 0.20265 0.0
C4 C 0.80431 0.47127 0.14747 0.0
O5 O 0.79717 0.4332 0.12975 0.0
O6 O 0.10426 0.62617 0.15991 0.0
O7 O -0.00602 0.51943 0.143 0.0
O8 O 0.92039 0.48545 0.12066 0.0
C9 C 0.12221 0.63662 0.13673 0.0
O10 O 0.10552 0.59913 0.11706 0.0
O11 O 0.10014 0.5173 0.16028 0.0
C12 C 0.81912 0.36624 0.17208 0.0
O13 O 0.81246 0.39479 0.19094 0.0
O14 O 0.85494 0.38848 0.15629 0.0
O15 O 0.95131 0.498 0.18847 0.0
O16 O 0.03304 0.54165 0.20404 0.0
O17 O 0.84475 0.49357 0.16333 0.0
C18 C 0.96891 0.50994 0.12061 0.0
C19 C -0.01476 0.51635 0.20826 0.0
Zn20 Zn 0.56007 0.08933 0.49295 0.0
Zn21 Zn 0.49874 0.93245 0.48975 0.0
C22 C 0.66079 0.16379 0.51454 0.0
O23 O 0.63167 0.17515 0.52925 0.0
C24 C 0.39562 0.85013 0.48581 0.0
O25 O 0.41052 0.84523 0.46174 0.0
O26 O 0.54586 0.1477 0.49044 0.0
O27 O 0.52966 0.04287 0.45827 0.0
O28 O 0.49327 0.95594 0.45344 0.0
C29 C 0.55257 0.1706 0.46883 0.0
O30 O 0.56448 0.15298 0.44694 0.0
O31 O 0.63804 0.12578 0.49631 0.0
C32 C 0.53003 0.86365 0.50576 0.0
O33 O 0.51785 0.87637 0.52906 0.0
O34 O 0.52695 0.8846 0.48482 0.0
O35 O 0.54661 0.99251 0.51632 0.0
O36 O 0.5307 0.05506 0.52677 0.0
O37 O 0.42693 0.88767 0.50273 0.0
C38 C 0.5071 -0.00054 0.44379 0.0
C39 C 0.52903 0.01335 0.53247 0.0
Zn40 Zn 0.56188 0.4791 0.84205 0.0
Zn41 Zn 0.46122 0.53772 0.83001 0.0
C42 C 0.53686 0.37824 0.82036 0.0
O43 O 0.55878 0.40397 0.79942 0.0
C44 C 0.48964 0.64228 0.82396 0.0
O45 O 0.47695 0.62307 0.79858 0.0
O46 O 0.63841 0.50806 0.84035 0.0
O47 O 0.53443 0.50061 0.80958 0.0
O48 O 0.48577 0.53057 0.79349 0.0
C49 C 0.66209 0.52092 0.81873 0.0
O50 O 0.63774 0.5201 0.79621 0.0
O51 O 0.53024 0.40165 0.84064 0.0
C52 C 0.36377 0.51251 0.84762 0.0
O53 O 0.39296 0.54051 0.8693 0.0
O54 O 0.38361 0.50015 0.82841 0.0
O55 O 0.49608 0.51243 0.85265 0.0
O56 O 0.54591 0.50007 0.87885 0.0
O57 O 0.48815 0.61324 0.84199 0.0
C58 C 0.51701 0.51407 0.78985 0.0
C59 C 0.51244 0.51336 0.87638 0.0
C60 C 0.29361 0.84646 0.18427 0.0
C61 C 0.29205 0.841 0.156 0.0
C62 C 0.33101 0.88044 0.1422 0.0
C63 C 0.37215 0.92432 0.1568 0.0
H64 H 0.5488 0.04296 0.16116 0.0
H65 H 0.63269 0.1114 0.14702 0.0
H66 H 0.63313 0.2225 0.20722 0.0
H67 H 0.55079 0.15471 0.22172 0.0
H68 H 0.53917 0.08384 0.28038 0.0
H69 H 0.54685 0.07869 0.32906 0.0
H70 H 0.39511 0.94153 0.32473 0.0
H71 H 0.38672 0.94579 0.27584 0.0
H72 H 0.33432 0.89231 0.22067 0.0
H73 H 0.26372 0.8163 0.19517 0.0
H74 H 0.33012 0.8766 0.1203 0.0
H75 H 0.40233 0.95385 0.1458 0.0
N76 N 0.45895 0.01198 0.18923 0.0
N77 N 0.49902 0.05351 0.232 0.0
N78 N 0.41964 0.97568 0.22888 0.0
C79 C 0.49896 0.05224 0.20463 0.0
C80 C 0.4597 0.01528 0.24431 0.0
C81 C 0.41865 0.97376 0.2014 0.0
C82 C 0.54369 0.09385 0.19249 0.0
C83 C 0.56647 0.08234 0.17086 0.0
C84 C 0.61428 0.12108 0.16293 0.0
C85 C 0.63881 0.17168 0.17622 0.0
C86 C 0.61468 0.18358 0.19684 0.0
C87 C 0.5677 0.14495 0.20502 0.0
C88 C 0.4624 0.01499 0.27411 0.0
C89 C 0.50709 0.05278 0.28969 0.0
C90 C 0.51168 0.05 0.3175 0.0
C91 C 0.47162 0.00969 0.33019 0.0
C92 C 0.42632 0.97286 0.31505 0.0
C93 C 0.42171 0.97542 0.28717 0.0
C94 C 0.37449 0.92919 0.18532 0.0
C95 C 0.33426 0.89002 0.19879 0.0
C96 C 0.58302 0.37235 0.5275 0.0
C97 C 0.56585 0.36346 0.50015 0.0
C98 C 0.55522 0.39889 0.48835 0.0
C99 C 0.56105 0.44255 0.50403 0.0
H100 H 0.58456 0.59652 0.50087 0.0
H101 H 0.57845 0.66826 0.48253 0.0
H102 H 0.56432 0.7213 0.56291 0.0
H103 H 0.57073 0.65099 0.58145 0.0
H104 H 0.5503 0.58339 0.62818 0.0
H105 H 0.54071 0.57531 0.67658 0.0
H106 H 0.5907 0.46285 0.67331 0.0
H107 H 0.59958 0.46979 0.6244 0.0
H108 H 0.60114 0.4208 0.56438 0.0
H109 H 0.59145 0.34529 0.53684 0.0
H110 H 0.54188 0.39237 0.4672 0.0
H111 H 0.55177 0.46892 0.49463 0.0
N112 N 0.57921 0.53499 0.53808 0.0
N113 N 0.57889 0.57083 0.58143 0.0
N114 N 0.57938 0.4925 0.5765 0.0
C115 C 0.57934 0.57367 0.55422 0.0
C116 C 0.57897 0.53059 0.59276 0.0
C117 C 0.57941 0.49433 0.54915 0.0
C118 C 0.57784 0.61768 0.54264 0.0
C119 C 0.58041 0.62361 0.51465 0.0
C120 C 0.57704 0.66451 0.50413 0.0
C121 C 0.57067 0.69961 0.52144 0.0
C122 C 0.56913 0.6944 0.5493 0.0
C123 C 0.57275 0.65401 0.55981 0.0
C124 C 0.57558 0.52709 0.62237 0.0
C125 C 0.55955 0.55704 0.63765 0.0
C126 C 0.55389 0.55243 0.66532 0.0
C127 C 0.56466 0.51827 0.67838 0.0
C128 C 0.58189 0.48915 0.66345 0.0
C129 C 0.58688 0.49317 0.63557 0.0
C130 C 0.577 0.45083 0.53175 0.0
C131 C 0.58842 0.41549 0.54319 0.0
C132 C 0.85879 0.5375 0.86991 0.0
C133 C 0.85963 0.54701 0.84261 0.0
C134 C 0.90318 0.55771 0.82843 0.0
C135 C 0.94567 0.55921 0.8417 0.0
H136 H 0.06569 0.50786 0.83696 0.0
H137 H 0.13109 0.48885 0.82007 0.0
H138 H 0.22778 0.56796 0.89296 0.0
H139 H 0.16388 0.58729 0.90982 0.0
H140 H 0.11158 0.58569 0.96403 0.0
H141 H 0.10772 0.58116 0.01318 0.0
H142 H 0.95078 0.5469 0.00707 0.0
H143 H 0.95414 0.55196 0.95822 0.0
H144 H 0.8987 0.53193 0.9043 0.0
H145 H 0.82542 0.52898 0.8811 0.0
H146 H 0.90432 0.56515 0.80728 0.0
H147 H 0.97915 0.56816 0.83056 0.0
N148 N 0.02823 0.55154 0.8721 0.0
N149 N 0.07036 0.5622 0.91464 0.0
N150 N -0.00699 0.56177 0.91209 0.0
C151 C 0.06861 0.55526 0.88721 0.0
C152 C 0.0328 0.56547 0.92723 0.0
C153 C -0.00969 0.55514 0.88465 0.0
C154 C 0.10936 0.54874 0.87482 0.0
C155 C 0.10124 0.52182 0.84915 0.0
C156 C 0.13826 0.51063 0.83957 0.0
C157 C 0.18378 0.52656 0.85551 0.0
C158 C 0.19264 0.55497 0.88055 0.0
C159 C 0.15596 0.56598 0.8901 0.0
C160 C 0.03295 0.56859 0.95713 0.0
C161 C 0.07641 0.57779 0.97316 0.0
C162 C 0.07441 0.57535 0.00121 0.0
C163 C 0.02877 0.56307 0.0135 0.0
C164 C -0.01381 0.55614 -0.00221 0.0
C165 C -0.01172 0.55908 0.96987 0.0
C166 C 0.94514 0.55062 0.86933 0.0
C167 C 0.90093 0.53931 0.88312 0.0
C168 C 0.18798 0.65303 0.4544 0.0
C169 C 0.1944 0.6728 0.48144 0.0
C170 C 0.154 0.64717 0.49855 0.0
C171 C 0.10711 0.60305 0.48832 0.0
H172 H 0.97697 0.43074 0.49819 0.0
H173 H 0.90997 0.35461 0.51925 0.0
H174 H 0.79757 0.33485 0.45711 0.0
H175 H 0.86364 0.40983 0.43587 0.0
H176 H 0.90416 0.44193 0.37687 0.0
H177 H 0.89099 0.43988 0.32765 0.0
H178 H 0.04945 0.56141 0.32413 0.0
H179 H 0.06316 0.56427 0.373 0.0
H180 H 0.13784 0.59615 0.42302 0.0
H181 H 0.21874 0.67213 0.44093 0.0
H182 H 0.15838 0.66203 0.51953 0.0
H183 H 0.07592 0.5848 0.5016 0.0
N184 N 0.01249 0.5057 0.46295 0.0
N185 N 0.95748 0.46804 0.42331 0.0
N186 N 0.03951 0.54098 0.42129 0.0
C187 C 0.96628 0.46822 0.45038 0.0
C188 C -0.00611 0.50421 0.40861 0.0
C189 C 0.04933 0.54241 0.44829 0.0
C190 C 0.92579 0.42624 0.46525 0.0
C191 C 0.93786 0.41058 0.48924 0.0
C192 C 0.89975 0.36704 0.50122 0.0
C193 C 0.84897 0.3391 0.4896 0.0
C194 C 0.83656 0.3558 0.46628 0.0
C195 C 0.8745 0.3987 0.45419 0.0
C196 C -0.0152 0.50317 0.37897 0.0
C197 C 0.93621 0.46832 0.36566 0.0
C198 C 0.92852 0.46707 0.33758 0.0
C199 C 0.96937 0.50032 0.3224 0.0
C200 C 0.01757 0.53541 0.33558 0.0
C201 C 0.02524 0.53693 0.36356 0.0
C202 C 0.10005 0.58454 0.46082 0.0
C203 C 0.1415 0.60955 0.44421 0.0
C204 C 0.54736 0.18275 0.78491 0.0
C205 C 0.52421 0.18095 0.80917 0.0
C206 C 0.50477 0.13608 0.82347 0.0
C207 C 0.50706 0.09256 0.81291 0.0
H208 H 0.54151 0.96474 0.82935 0.0
H209 H 0.54217 0.8937 0.85208 0.0
H210 H 0.49288 0.79739 0.77643 0.0
H211 H 0.492 0.8669 0.7537 0.0
H212 H 0.50169 0.91476 0.69887 0.0
H213 H 0.50067 0.90978 0.64926 0.0
H214 H 0.53673 0.06981 0.65068 0.0
H215 H 0.53766 0.07547 0.69994 0.0
H216 H 0.56665 0.14195 0.75521 0.0
H217 H 0.56288 0.21733 0.7738 0.0
H218 H 0.48691 0.13441 0.84233 0.0
H219 H 0.49043 0.05759 0.8237 0.0
N220 N 0.52234 0.00742 0.78846 0.0
N221 N 0.51787 0.96067 0.7475 0.0
N222 N 0.52454 0.04213 0.74692 0.0
C223 C 0.51884 0.96432 0.775 0.0
C224 C 0.5207 -0.0006 0.73333 0.0
C225 C 0.52529 0.04656 0.77433 0.0
C226 C 0.51693 0.92161 0.78968 0.0
C227 C 0.53049 0.92827 0.81765 0.0
C228 C 0.5311 0.888 0.83063 0.0
C229 C 0.51778 0.84074 0.81577 0.0
C230 C 0.50348 0.83382 0.78811 0.0
C231 C 0.50306 0.87373 0.77518 0.0
C232 C 0.51979 -0.00445 0.70342 0.0
C233 C 0.50938 0.9489 0.68865 0.0
C234 C 0.50862 0.94584 0.66037 0.0
C235 C 0.51858 0.98944 0.64658 0.0
C236 C 0.5289 0.03586 0.66115 0.0
C237 C 0.52938 0.0389 0.6893 0.0
C238 C 0.52834 0.09365 0.78789 0.0
C239 C 0.5494 0.13959 0.77435 0.0
C240 C 0.65905 0.57531 0.12819 0.0
C241 C 0.64849 0.52914 0.13959 0.0
C242 C 0.59762 0.49277 0.14502 0.0
C243 C 0.55738 0.50088 0.13743 0.0
H244 H 0.41825 0.51483 0.16109 0.0
H245 H 0.34161 0.50454 0.18261 0.0
H246 H 0.28107 0.51975 0.10626 0.0
H247 H 0.35627 0.52943 0.08453 0.0
H248 H 0.42771 0.57795 0.03704 0.0
H249 H 0.42629 0.57851 0.98756 0.0
H250 H 0.55843 0.55926 0.98706 0.0
H251 H 0.56102 0.55966 0.03621 0.0
H252 H 0.62757 0.61702 0.10961 0.0
H253 H 0.69808 0.60383 0.12394 0.0
H254 H 0.58881 0.45689 0.15377 0.0
H255 H 0.5181 0.47099 0.14038 0.0
N256 N 0.48111 0.5348 0.12209 0.0
N257 N 0.44723 0.54786 0.08211 0.0
N258 N 0.52997 0.55992 0.0839 0.0
C259 C 0.44192 0.53546 0.10822 0.0
C260 C 0.49095 0.55995 0.06977 0.0
C261 C 0.52545 0.54762 0.10997 0.0
C262 C 0.39391 0.52377 0.12115 0.0
C263 C 0.38829 0.51521 0.14879 0.0
C264 C 0.34455 0.50909 0.16111 0.0
C265 C 0.30614 0.51167 0.14593 0.0
C266 C 0.3105 0.51774 0.11821 0.0
C267 C 0.35379 0.52356 0.1059 0.0
C268 C 0.49405 0.56798 0.04056 0.0
C269 C 0.45699 0.57468 0.02644 0.0
C270 C 0.45612 0.57518 -0.00177 0.0
C271 C 0.49172 0.56802 0.98381 0.0
C272 C 0.53043 0.5644 -0.00206 0.0
C273 C 0.5318 0.56464 0.02605 0.0
C274 C 0.56761 0.54486 0.12383 0.0
C275 C 0.61883 0.58273 0.12001 0.0
C276 C 0.227 0.56724 0.17337 0.0
C277 C 0.17803 0.52107 0.17384 0.0
C278 C 0.21438 0.46729 0.15875 0.0
C279 C 0.26346 0.51338 0.15901 0.0
N280 N 0.31927 0.60563 0.17172 0.0
N281 N 0.12608 0.4271 0.17179 0.0
C282 C 0.27064 0.56281 0.16818 0.0
C283 C 0.17199 0.47096 0.16797 0.0
N284 N 0.23134 0.61539 0.17614 0.0
N285 N 0.20818 0.42037 0.14895 0.0
H286 H 0.09435 0.42868 0.17842 0.0
H287 H 0.12046 0.3895 0.17043 0.0
H288 H 0.23898 0.41612 0.14326 0.0
H289 H 0.17249 0.38626 0.14519 0.0
H290 H 0.26487 0.65012 0.17301 0.0
H291 H 0.20024 0.62076 0.17911 0.0
H292 H 0.32756 0.64148 0.18119 0.0
H293 H 0.35218 0.60428 0.16733 0.0
C294 C 0.74027 0.24909 0.53218 0.0
C295 C 0.71781 0.20205 0.51493 0.0
C296 C 0.79275 0.24105 0.48744 0.0
C297 C 0.80851 0.29094 0.50092 0.0
N298 N 0.79804 0.34302 0.53658 0.0
N299 N 0.73721 0.14662 0.48663 0.0
C300 C 0.78311 0.29504 0.52378 0.0
C301 C 0.74841 0.19581 0.49556 0.0
N302 N 0.72291 0.24882 0.55735 0.0
N303 N 0.81924 0.23736 0.46632 0.0
H304 H 0.70918 0.11343 0.49509 0.0
H305 H 0.75965 0.13886 0.47379 0.0
H306 H 0.85359 0.2691 0.46098 0.0
H307 H 0.80629 0.2036 0.4534 0.0
H308 H 0.74017 0.28099 0.57167 0.0
H309 H 0.69611 0.21417 0.56521 0.0
H310 H 0.77689 0.34893 0.55117 0.0
H311 H 0.82976 0.37754 0.53134 0.0
C312 C 0.55191 0.73781 0.82336 0.0
C313 C 0.50419 0.69708 0.83109 0.0
C314 C 0.47288 0.75786 0.83859 0.0
C315 C 0.5185 0.79722 0.82825 0.0
N316 N 0.6068 0.83086 0.81852 0.0
N317 N 0.42593 0.67036 0.8536 0.0
C318 C 0.56009 0.78922 0.82346 0.0
C319 C 0.46705 0.70799 0.84151 0.0
N320 N 0.58822 0.72658 0.81491 0.0
N321 N 0.43402 0.76734 0.84388 0.0
H322 H 0.42063 0.6334 0.8557 0.0
H323 H 0.39943 0.67679 0.86349 0.0
H324 H 0.43823 0.80423 0.84295 0.0
H325 H 0.3972 0.73866 0.84821 0.0
H326 H 0.6216 0.75291 0.80614 0.0
H327 H 0.58409 0.68973 0.81604 0.0
H328 H 0.64003 0.82893 0.81656 0.0
H329 H 0.61315 0.86878 0.81861 0.0
C330 C 0.7436 0.49439 0.1702 0.0
C331 C 0.76786 0.49073 0.14667 0.0
C332 C 0.71081 0.50759 0.11875 0.0
C333 C 0.68968 0.51604 0.14241 0.0
N334 N 0.6925 0.5271 0.19111 0.0
N335 N 0.78443 0.50898 0.10003 0.0
C336 C 0.70807 0.51236 0.16833 0.0
C337 C 0.75443 0.50189 0.12138 0.0
N338 N 0.75247 0.47845 0.19397 0.0
N339 N 0.68801 0.50272 0.0937 0.0
H340 H 0.8183 0.50771 0.10148 0.0
H341 H 0.77896 0.52208 0.08192 0.0
H342 H 0.6547 0.50463 0.09074 0.0
H343 H 0.69901 0.49127 0.07606 0.0
H344 H 0.73156 0.47484 0.2109 0.0
H345 H 0.77775 0.46459 0.19618 0.0
H346 H 0.70862 0.53038 0.21048 0.0
H347 H 0.6666 0.54049 0.19044 0.0
C348 C 0.33511 0.76594 0.50498 0.0
C349 C 0.34295 0.81097 0.49266 0.0
C350 C 0.24977 0.77024 0.48305 0.0
C351 C 0.24316 0.7221 0.49063 0.0
N352 N 0.27814 0.6732 0.5096 0.0
N353 N 0.30894 0.8584 0.47115 0.0
C354 C 0.28532 0.71992 0.50237 0.0
C355 C 0.30044 0.81413 0.48244 0.0
N356 N 0.37548 0.76728 0.5189 0.0
N357 N 0.20739 0.77352 0.47628 0.0
H358 H 0.34536 0.89202 0.47174 0.0
H359 H 0.28063 0.86136 0.46037 0.0
H360 H 0.16995 0.74181 0.4766 0.0
H361 H 0.20884 0.80828 0.47261 0.0
H362 H 0.37192 0.73738 0.53018 0.0
H363 H 0.41214 0.80061 0.52106 0.0
H364 H 0.30806 0.66719 0.51523 0.0
H365 H 0.24187 0.63938 0.5088 0.0
C366 C 0.56257 0.31729 0.838 0.0
C367 C 0.5275 0.32486 0.82199 0.0
C368 C 0.48013 0.23203 0.80581 0.0
C369 C 0.51955 0.22647 0.81841 0.0
N370 N 0.59745 0.26149 0.84697 0.0
N371 N 0.45275 0.29095 0.79095 0.0
C372 C 0.56001 0.2682 0.83514 0.0
C373 C 0.48581 0.28246 0.8062 0.0
N374 N 0.59884 0.35732 0.85551 0.0
N375 N 0.43747 0.18882 0.79348 0.0
H376 H 0.45447 0.32692 0.79181 0.0
H377 H 0.42513 0.26334 0.77656 0.0
H378 H 0.43256 0.15145 0.79302 0.0
H379 H 0.40517 0.18894 0.78574 0.0
H380 H 0.62187 0.35287 0.86981 0.0
H381 H 0.60416 0.39485 0.85702 0.0
H382 H 0.63156 0.29172 0.85664 0.0
H383 H 0.59529 0.22531 0.84618 0.0
C384 C 0.50649 0.77093 0.49455 0.0
C385 C 0.54429 0.82298 0.50398 0.0
C386 C 0.60458 0.7942 0.516 0.0
C387 C 0.56398 0.74152 0.51098 0.0
N388 N 0.47551 0.67853 0.49648 0.0
N389 N 0.62939 0.8856 0.52345 0.0
C390 C 0.51491 0.72946 0.50004 0.0
C391 C 0.59364 0.83515 0.51439 0.0
N392 N 0.46243 0.76117 0.4806 0.0
N393 N 0.65348 0.80471 0.52217 0.0
H394 H 0.62344 0.91685 0.52129 0.0
H395 H 0.66387 0.8963 0.5342 0.0
H396 H 0.66236 0.77521 0.52329 0.0
H397 H 0.68577 0.8422 0.52383 0.0
H398 H 0.43566 0.72483 0.4709 0.0
H399 H 0.4546 0.79054 0.47672 0.0
H400 H 0.4373 0.66751 0.4919 0.0
H401 H 0.48031 0.64695 0.49975 0.0
C402 C 0.75566 0.58032 0.83284 0.0
C403 C 0.71615 0.53318 0.81889 0.0
C404 C 0.77526 0.49973 0.81485 0.0
C405 C 0.81416 0.54602 0.82971 0.0
N406 N 0.8467 0.63536 0.84674 0.0
N407 N 0.6912 0.45412 0.79054 0.0
C408 C 0.80601 0.58809 0.83661 0.0
C409 C 0.72706 0.49505 0.80771 0.0
N410 N 0.7445 0.61687 0.8431 0.0
N411 N 0.78334 0.45905 0.80902 0.0
H412 H 0.65516 0.44883 0.78526 0.0
H413 H 0.6986 0.42789 0.77965 0.0
H414 H 0.81864 0.4617 0.8132 0.0
H415 H 0.75448 0.42178 0.80141 0.0
H416 H 0.76964 0.64922 0.85622 0.0
H417 H 0.70879 0.61364 0.83932 0.0
H418 H 0.84472 0.66912 0.85018 0.0
H419 H 0.88396 0.64189 0.84951 0.0
C420 C 0.15671 0.73276 0.1369 0.0
C421 C 0.16485 0.68994 0.13304 0.0
C422 C 0.25821 0.74961 0.13576 0.0
C423 C 0.25007 0.79195 0.1417 0.0
N424 N 0.19415 0.82727 0.14072 0.0
N425 N 0.22166 0.65794 0.1209 0.0
C426 C 0.19992 0.78454 0.13967 0.0
C427 C 0.21504 0.69854 0.12952 0.0
N428 N 0.10774 0.72356 0.13871 0.0
N429 N 0.307 0.75766 0.1381 0.0
H430 H 0.19164 0.61931 0.11761 0.0
H431 H 0.25666 0.66292 0.11512 0.0
H432 H 0.3397 0.79476 0.14173 0.0
H433 H 0.31514 0.72759 0.13786 0.0
H434 H 0.09907 0.75225 0.14453 0.0
H435 H 0.07529 0.68623 0.13507 0.0
H436 H 0.15901 0.82531 0.13753 0.0
H437 H 0.22565 0.86544 0.14263 0.0
C438 C 0.50716 0.22013 0.47618 0.0
C439 C 0.55267 0.22031 0.46973 0.0
C440 C 0.60052 0.31615 0.47317 0.0
C441 C 0.55784 0.31555 0.48462 0.0
N442 N 0.46979 0.26821 0.49676 0.0
N443 N 0.64395 0.26815 0.46317 0.0
C444 C 0.51056 0.26788 0.48562 0.0
C445 C 0.59955 0.26822 0.46788 0.0
N446 N 0.46086 0.17424 0.47309 0.0
N447 N 0.64215 0.36269 0.46776 0.0
H448 H 0.64535 0.23408 0.45943 0.0
H449 H 0.68026 0.30184 0.46489 0.0
H450 H 0.64388 0.3984 0.47178 0.0
H451 H 0.67252 0.3655 0.45704 0.0
H452 H 0.42558 0.17192 0.47523 0.0
H453 H 0.45748 0.13884 0.46593 0.0
H454 H 0.43637 0.23454 0.5012 0.0
H455 H 0.47037 0.30273 0.50276 0.0
C456 C 0.30664 0.54227 0.82815 0.0
C457 C 0.31215 0.50634 0.84347 0.0
C458 C 0.22461 0.47182 0.85812 0.0
C459 C 0.22299 0.51366 0.84682 0.0
N460 N 0.26163 0.58933 0.82127 0.0
N461 N 0.27691 0.43568 0.87237 0.0
C462 C 0.26336 0.54849 0.83142 0.0
C463 C 0.27093 0.47022 0.858 0.0
N464 N 0.34303 0.57085 0.81072 0.0
N465 N 0.18175 0.43392 0.86901 0.0
H466 H 0.30934 0.43185 0.87144 0.0
H467 H 0.25099 0.41234 0.88597 0.0
H468 H 0.14746 0.43441 0.8693 0.0
H469 H 0.17858 0.39996 0.87564 0.0
H470 H 0.33892 0.59398 0.79712 0.0
H471 H 0.37577 0.56824 0.80818 0.0
H472 H 0.29272 0.6203 0.81308 0.0
H473 H 0.22961 0.5938 0.82237 0.0
C474 C 0.77649 0.2787 0.19043 0.0
C475 C 0.78241 0.30921 0.16849 0.0
C476 C 0.69875 0.24132 0.14743 0.0
C477 C 0.6913 0.21251 0.17027 0.0
N478 N 0.72775 0.19443 0.20891 0.0
N479 N 0.75887 0.31132 0.1218 0.0
C480 C 0.73207 0.2281 0.1902 0.0
C481 C 0.74692 0.28762 0.14543 0.0
N482 N 0.81264 0.29896 0.21176 0.0
N483 N 0.65885 0.22641 0.12859 0.0
H484 H 0.79426 0.34442 0.11928 0.0
H485 H 0.73615 0.29486 0.10376 0.0
H486 H 0.62331 0.19214 0.1291 0.0
H487 H 0.65987 0.24957 0.11342 0.0
H488 H 0.80786 0.28161 0.22989 0.0
H489 H 0.84719 0.3345 0.21153 0.0
H490 H 0.75751 0.20158 0.2228 0.0
H491 H 0.69552 0.15694 0.20887 0.0
C492 C 0.00679 0.4968 0.07907 0.0
C493 C -0.00568 0.52891 0.09542 0.0
C494 C 0.01991 0.59094 0.06066 0.0
C495 C 0.02374 0.5544 0.04264 0.0
N496 N 0.01749 0.47055 0.03371 0.0
N497 N -0.01209 0.60617 0.10251 0.0
C498 C 0.01712 0.50709 0.05166 0.0
C499 C 0.00101 0.57621 0.08653 0.0
N500 N 0.0086 0.45646 0.08978 0.0
N501 N 0.03496 0.63979 0.05304 0.0
H502 H 0.97632 0.59777 0.12212 0.0
H503 H -0.01384 0.63784 0.09596 0.0
H504 H 0.04926 0.6516 0.0342 0.0
H505 H 0.03773 0.66997 0.0661 0.0
H506 H 0.0225 0.43485 0.07972 0.0
H507 H 0.00063 0.44769 0.10977 0.0
H508 H 0.00684 0.43289 0.03841 0.0
H509 H 0.0248 0.47632 0.0134 0.0
C510 C 0.51766 0.98102 0.39522 0.0
C511 C 0.49604 -0.00013 0.41469 0.0
C512 C 0.45999 0.0272 0.37872 0.0
C513 C 0.47838 0.00486 0.35927 0.0
N514 N 0.51695 0.9528 0.34827 0.0
N515 N 0.43881 0.03198 0.42519 0.0
C516 C 0.50478 0.97929 0.36731 0.0
C517 C 0.46503 0.02058 0.40652 0.0
N518 N 0.5526 0.96737 0.40331 0.0
N519 N 0.43882 0.05577 0.37066 0.0
H520 H 0.44062 0.02659 0.44569 0.0
H521 H 0.41163 0.04223 0.42008 0.0
H522 H 0.43326 0.06026 0.35037 0.0
H523 H 0.43027 0.07817 0.38409 0.0
H524 H 0.57394 0.95894 0.38994 0.0
H525 H 0.5639 0.96896 0.42357 0.0
H526 H 0.53099 0.92853 0.35308 0.0
H527 H 0.50909 0.95157 0.32754 0.0
C528 C 0.57598 0.55809 0.75341 0.0
C529 C 0.53426 0.51231 0.76248 0.0
C530 C 0.51516 0.46795 0.71687 0.0
C531 C 0.55742 0.51354 0.70779 0.0
N532 N 0.63538 0.59671 0.71831 0.0
N533 N 0.47215 0.42014 0.75512 0.0
C534 C 0.5902 0.55701 0.72641 0.0
C535 C 0.50658 0.46596 0.74493 0.0
N536 N 0.60103 0.60298 0.7704 0.0
N537 N 0.48148 0.42789 0.69857 0.0
H538 H 0.46444 0.41769 0.77554 0.0
H539 H 0.45473 0.3839 0.74392 0.0
H540 H 0.48607 0.42782 0.67781 0.0
H541 H 0.44683 0.39642 0.70366 0.0
H542 H 0.62755 0.63928 0.76405 0.0
H543 H 0.59306 0.6046 0.79067 0.0
H544 H 0.66331 0.62715 0.7315 0.0
H545 H 0.64715 0.59663 0.69872 0.0
C546 C 0.47657 0.97864 0.57238 0.0
C547 C 0.52528 0.00192 0.56112 0.0
C548 C 0.56698 0.00553 0.60488 0.0
C549 C 0.51935 0.98769 0.61675 0.0
N550 N 0.429 0.95915 0.61296 0.0
N551 N 0.61803 0.04487 0.56705 0.0
C552 C 0.474 0.97426 0.60077 0.0
C553 C 0.57083 0.01688 0.57738 0.0
N554 N 0.43289 0.96048 0.55585 0.0
N555 N 0.60851 0.01155 0.61996 0.0
H556 H 0.62288 0.05494 0.54712 0.0
H557 H 0.65269 0.06216 0.57878 0.0
H558 H 0.60728 0.00457 0.64037 0.0
H559 H 0.64275 0.01899 0.61177 0.0
H560 H 0.39581 0.9379 0.56213 0.0
H561 H 0.43367 0.96523 0.53516 0.0
H562 H 0.39595 0.9547 0.60315 0.0
H563 H 0.42533 0.95348 0.63353 0.0
C564 C 0.45333 0.49979 0.91284 0.0
C565 C 0.49816 0.53423 0.90012 0.0
C566 C 0.52573 0.59904 0.93907 0.0
C567 C 0.48719 0.5602 0.95384 0.0
N568 N 0.41359 0.47309 0.9552 0.0
N569 N 0.57485 0.61839 0.89898 0.0
C570 C 0.44987 0.51081 0.94069 0.0
C571 C 0.53337 0.58487 0.91245 0.0
N572 N 0.41467 0.45621 0.89835 0.0
N573 N 0.5549 0.6491 0.95073 0.0
H574 H 0.57952 0.60977 0.8789 0.0
H575 H 0.60523 0.65375 0.90777 0.0
H576 H 0.54939 0.66008 0.97018 0.0
H577 H 0.58124 0.68042 0.94055 0.0
H578 H 0.37889 0.43195 0.90573 0.0
H579 H 0.41664 0.44726 0.87791 0.0
H580 H 0.38955 0.43439 0.94748 0.0
H581 H 0.4094 0.47939 0.97563 0.0
C582 C 0.96881 0.54682 0.25301 0.0
C583 C 0.96995 0.50707 0.23635 0.0
C584 C 0.96313 0.45861 0.27573 0.0
C585 C 0.9627 0.49875 0.29252 0.0
N586 N 0.95254 0.57398 0.29701 0.0
N587 N 0.95557 0.41969 0.23012 0.0
C588 C 0.96141 0.54063 0.28104 0.0
C589 C 0.96267 0.46099 0.24718 0.0
N590 N 0.97646 0.59116 0.24213 0.0
N591 N 0.96696 0.41992 0.28714 0.0
H592 H 0.95574 0.42059 0.20912 0.0
H593 H 0.945 0.38306 0.23648 0.0
H594 H 0.96686 0.41647 0.30794 0.0
H595 H 0.97365 0.39317 0.27624 0.0
H596 H 0.98227 0.62437 0.25363 0.0
H597 H 0.97947 0.5957 0.22143 0.0
H598 H 0.9465 0.60251 0.28955 0.0
H599 H 0.94676 0.57012 0.31759 0.0
loop_
_geom_bond_atom_site_label_1
_geom_bond_atom_site_label_2
_geom_bond_distance
_geom_bond_site_symmetry_2
_ccdc_geom_bond_type
Zn0 O6 1.969 . S
Zn0 O7 1.965 . S
Zn0 O11 2.024 . S
Zn0 O16 1.969 . S
Zn1 O8 1.969 . S
Zn1 O14 1.969 . S
Zn1 O15 1.965 . S
Zn1 O17 2.024 . S
C2 O3 1.229 . S
C2 O11 1.058 . S
O3 C2 1.229 . S
C4 O5 1.229 . S
C4 O17 1.058 . S
O5 C4 1.229 . S
O6 Zn0 1.969 . S
O6 C9 1.267 . S
O7 Zn0 1.965 . S
O7 C18 1.260 1_455 S
O8 Zn1 1.969 . S
O8 C18 1.258 . S
C9 O6 1.267 . S
C9 O10 1.228 . S
O10 C9 1.228 . S
O11 Zn0 2.024 . S
O11 C2 1.058 . S
C12 O13 1.228 . S
C12 O14 1.267 . S
O13 C12 1.228 . S
O14 Zn1 1.969 . S
O14 C12 1.267 . S
O15 Zn1 1.965 . S
O15 C19 1.260 1_655 S
O16 Zn0 1.969 . S
O16 C19 1.258 . S
O17 Zn1 2.024 . S
O17 C4 1.058 . S
C18 O7 1.260 1_655 S
C18 O8 1.258 . S
C19 O15 1.260 1_455 S
C19 O16 1.258 . S
Zn20 O26 1.969 . S
Zn20 O27 1.965 . S
Zn20 O31 2.024 . S
Zn20 O36 1.969 . S
Zn21 O28 1.969 . S
Zn21 O34 1.969 . S
Zn21 O35 1.965 . S
Zn21 O37 2.024 . S
C22 O23 1.229 . S
C22 O31 1.058 . S
O23 C22 1.229 . S
C24 O25 1.229 . S
C24 O37 1.058 . S
O25 C24 1.229 . S
O26 Zn20 1.969 . S
O26 C29 1.267 . S
O27 Zn20 1.965 . S
O27 C38 1.260 . S
O28 Zn21 1.969 . S
O28 C38 1.258 1_565 S
C29 O26 1.267 . S
C29 O30 1.228 . S
O30 C29 1.228 . S
O31 Zn20 2.024 . S
O31 C22 1.058 . S
C32 O33 1.228 . S
C32 O34 1.267 . S
O33 C32 1.228 . S
O34 Zn21 1.969 . S
O34 C32 1.267 . S
O35 Zn21 1.965 . S
O35 C39 1.260 1_565 S
O36 Zn20 1.969 . S
O36 C39 1.258 . S
O37 Zn21 2.024 . S
O37 C24 1.058 . S
C38 O27 1.260 . S
C38 O28 1.258 1_545 S
C39 O35 1.260 1_545 S
C39 O36 1.258 . S
Zn40 O46 1.969 . S
Zn40 O47 1.965 . S
Zn40 O51 2.024 . S
Zn40 O56 1.969 . S
Zn41 O48 1.969 . S
Zn41 O54 1.969 . S
Zn41 O55 1.965 . S
Zn41 O57 2.024 . S
C42 O43 1.229 . S
C42 O51 1.058 . S
O43 C42 1.229 . S
C44 O45 1.229 . S
C44 O57 1.058 . S
O45 C44 1.229 . S
O46 Zn40 1.969 . S
O46 C49 1.267 . S
O47 Zn40 1.965 . S
O47 C58 1.260 . S
O48 Zn41 1.969 . S
O48 C58 1.258 . S
C49 O46 1.267 . S
C49 O50 1.228 . S
O50 C49 1.228 . S
O51 Zn40 2.024 . S
O51 C42 1.058 . S
C52 O53 1.228 . S
C52 O54 1.267 . S
O53 C52 1.228 . S
O54 Zn41 1.969 . S
O54 C52 1.267 . S
O55 Zn41 1.965 . S
O55 C59 1.260 . S
O56 Zn40 1.969 . S
O56 C59 1.258 . S
O57 Zn41 2.024 . S
O57 C44 1.058 . S
C58 O47 1.260 . S
C58 O48 1.258 . S
C59 O55 1.260 . S
C59 O56 1.258 . S
C60 C61 1.384 . S
C60 H73 0.947 . S
C60 C95 1.382 . S
C61 C60 1.384 . S
C61 C62 1.378 . S
C62 C61 1.378 . S
C62 C63 1.378 . S
C62 H74 0.952 . S
C63 C62 1.378 . S
C63 H75 0.950 . S
C63 C94 1.383 . S
H64 C83 0.947 . S
H65 C84 0.946 . S
H66 C86 0.953 . S
H67 C87 0.945 . S
H68 C89 0.952 . S
H69 C90 0.949 . S
H70 C92 0.950 . S
H71 C93 0.948 . S
H72 C95 0.951 . S
H73 C60 0.947 . S
H74 C62 0.952 . S
H75 C63 0.950 . S
N76 C79 1.382 . S
N76 C81 1.363 1_545 S
N77 C79 1.371 . S
N77 C80 1.372 . S
N78 C80 1.361 1_565 S
N78 C81 1.377 . S
C79 N76 1.382 . S
C79 N77 1.371 . S
C79 C82 1.480 . S
C80 N77 1.372 . S
C80 N78 1.361 1_545 S
C80 C88 1.457 . S
C81 N76 1.363 1_565 S
C81 N78 1.377 . S
C81 C94 1.479 . S
C82 C79 1.480 . S
C82 C83 1.383 . S
C82 C87 1.385 . S
C83 H64 0.947 . S
C83 C82 1.383 . S
C83 C84 1.388 . S
C84 H65 0.946 . S
C84 C83 1.388 . S
C84 C85 1.384 . S
C85 C84 1.384 . S
C85 C86 1.377 . S
C86 H66 0.953 . S
C86 C85 1.377 . S
C86 C87 1.369 . S
C87 H67 0.945 . S
C87 C82 1.385 . S
C87 C86 1.369 . S
C88 C80 1.457 . S
C88 C89 1.372 . S
C88 C93 1.364 1_545 S
C89 H68 0.952 . S
C89 C88 1.372 . S
C89 C90 1.389 . S
C90 H69 0.949 . S
C90 C89 1.389 . S
C90 C91 1.387 . S
C91 C90 1.387 . S
C91 C92 1.372 1_545 S
C92 H70 0.950 . S
C92 C91 1.372 1_565 S
C92 C93 1.379 . S
C93 H71 0.948 . S
C93 C88 1.364 1_565 S
C93 C92 1.379 . S
C94 C63 1.383 . S
C94 C81 1.479 . S
C94 C95 1.398 . S
C95 C60 1.382 . S
C95 H72 0.951 . S
C95 C94 1.398 . S
C96 C97 1.384 . S
C96 H109 0.947 . S
C96 C131 1.382 . S
C97 C96 1.384 . S
C97 C98 1.378 . S
C98 C97 1.378 . S
C98 C99 1.378 . S
C98 H110 0.952 . S
C99 C98 1.378 . S
C99 H111 0.950 . S
C99 C130 1.383 . S
H100 C119 0.947 . S
H101 C120 0.946 . S
H102 C122 0.953 . S
H103 C123 0.945 . S
H104 C125 0.952 . S
H105 C126 0.949 . S
H106 C128 0.950 . S
H107 C129 0.948 . S
H108 C131 0.951 . S
H109 C96 0.947 . S
H110 C98 0.952 . S
H111 C99 0.950 . S
N112 C115 1.382 . S
N112 C117 1.363 . S
N113 C115 1.371 . S
N113 C116 1.372 . S
N114 C116 1.361 . S
N114 C117 1.377 . S
C115 N112 1.382 . S
C115 N113 1.371 . S
C115 C118 1.480 . S
C116 N113 1.372 . S
C116 N114 1.361 . S
C116 C124 1.457 . S
C117 N112 1.363 . S
C117 N114 1.377 . S
C117 C130 1.479 . S
C118 C115 1.480 . S
C118 C119 1.383 . S
C118 C123 1.385 . S
C119 H100 0.947 . S
C119 C118 1.383 . S
C119 C120 1.388 . S
C120 H101 0.946 . S
C120 C119 1.388 . S
C120 C121 1.384 . S
C121 C120 1.384 . S
C121 C122 1.377 . S
C122 H102 0.953 . S
C122 C121 1.377 . S
C122 C123 1.369 . S
C123 H103 0.945 . S
C123 C118 1.385 . S
C123 C122 1.369 . S
C124 C116 1.457 . S
C124 C125 1.372 . S
C124 C129 1.364 . S
C125 H104 0.952 . S
C125 C124 1.372 . S
C125 C126 1.389 . S
C126 H105 0.949 . S
C126 C125 1.389 . S
C126 C127 1.387 . S
C127 C126 1.387 . S
C127 C128 1.372 . S
C128 H106 0.950 . S
C128 C127 1.372 . S
C128 C129 1.379 . S
C129 H107 0.948 . S
C129 C124 1.364 . S
C129 C128 1.379 . S
C130 C99 1.383 . S
C130 C117 1.479 . S
C130 C131 1.398 . S
C131 C96 1.382 . S
C131 H108 0.951 . S
C131 C130 1.398 . S
C132 C133 1.384 . S
C132 H145 0.947 . S
C132 C167 1.382 . S
C133 C132 1.384 . S
C133 C134 1.378 . S
C134 C133 1.378 . S
C134 C135 1.378 . S
C134 H146 0.952 . S
C135 C134 1.378 . S
C135 H147 0.950 . S
C135 C166 1.383 . S
H136 C155 0.947 . S
H137 C156 0.946 . S
H138 C158 0.953 . S
H139 C159 0.945 . S
H140 C161 0.952 . S
H141 C162 0.949 1_554 S
H142 C164 0.950 1_554 S
H143 C165 0.948 . S
H144 C167 0.951 . S
H145 C132 0.947 . S
H146 C134 0.952 . S
H147 C135 0.950 . S
N148 C151 1.382 . S
N148 C153 1.363 1_455 S
N149 C151 1.371 . S
N149 C152 1.372 . S
N150 C152 1.361 1_655 S
N150 C153 1.377 . S
C151 N148 1.382 . S
C151 N149 1.371 . S
C151 C154 1.480 . S
C152 N149 1.372 . S
C152 N150 1.361 1_455 S
C152 C160 1.457 . S
C153 N148 1.363 1_655 S
C153 N150 1.377 . S
C153 C166 1.479 . S
C154 C151 1.480 . S
C154 C155 1.383 . S
C154 C159 1.385 . S
C155 H136 0.947 . S
C155 C154 1.383 . S
C155 C156 1.388 . S
C156 H137 0.946 . S
C156 C155 1.388 . S
C156 C157 1.384 . S
C157 C156 1.384 . S
C157 C158 1.377 . S
C158 H138 0.953 . S
C158 C157 1.377 . S
C158 C159 1.369 . S
C159 H139 0.945 . S
C159 C154 1.385 . S
C159 C158 1.369 . S
C160 C152 1.457 . S
C160 C161 1.372 . S
C160 C165 1.364 1_455 S
C161 H140 0.952 . S
C161 C160 1.372 . S
C161 C162 1.389 . S
C162 H141 0.949 1_556 S
C162 C161 1.389 . S
C162 C163 1.387 1_556 S
C163 C162 1.387 1_554 S
C163 C164 1.372 1_454 S
C164 H142 0.950 1_556 S
C164 C163 1.372 1_656 S
C164 C165 1.379 . S
C165 H143 0.948 . S
C165 C160 1.364 1_655 S
C165 C164 1.379 . S
C166 C135 1.383 . S
C166 C153 1.479 . S
C166 C167 1.398 . S
C167 C132 1.382 . S
C167 H144 0.951 . S
C167 C166 1.398 . S
C168 C169 1.384 . S
C168 H181 0.947 . S
C168 C203 1.382 . S
C169 C168 1.384 . S
C169 C170 1.378 . S
C170 C169 1.378 . S
C170 C171 1.378 . S
C170 H182 0.952 . S
C171 C170 1.378 . S
C171 H183 0.950 . S
C171 C202 1.383 . S
H172 C191 0.947 . S
H173 C192 0.946 . S
H174 C194 0.953 . S
H175 C195 0.945 . S
H176 C197 0.952 . S
H177 C198 0.949 . S
H178 C200 0.950 . S
H179 C201 0.948 . S
H180 C203 0.951 . S
H181 C168 0.947 . S
H182 C170 0.952 . S
H183 C171 0.950 . S
N184 C187 1.382 1_455 S
N184 C189 1.363 . S
N185 C187 1.371 . S
N185 C188 1.372 1_655 S
N186 C188 1.361 . S
N186 C189 1.377 . S
C187 N184 1.382 1_655 S
C187 N185 1.371 . S
C187 C190 1.480 . S
C188 N185 1.372 1_455 S
C188 N186 1.361 . S
C188 C196 1.457 . S
C189 N184 1.363 . S
C189 N186 1.377 . S
C189 C202 1.479 . S
C190 C187 1.480 . S
C190 C191 1.383 . S
C190 C195 1.385 . S
C191 H172 0.947 . S
C191 C190 1.383 . S
C191 C192 1.388 . S
C192 H173 0.946 . S
C192 C191 1.388 . S
C192 C193 1.384 . S
C193 C192 1.384 . S
C193 C194 1.377 . S
C194 H174 0.953 . S
C194 C193 1.377 . S
C194 C195 1.369 . S
C195 H175 0.945 . S
C195 C190 1.385 . S
C195 C194 1.369 . S
C196 C188 1.457 . S
C196 C197 1.372 1_455 S
C196 C201 1.364 . S
C197 H176 0.952 . S
C197 C196 1.372 1_655 S
C197 C198 1.389 . S
C198 H177 0.949 . S
C198 C197 1.389 . S
C198 C199 1.387 1_655 S
C199 C198 1.387 1_455 S
C199 C200 1.372 . S
C200 H178 0.950 . S
C200 C199 1.372 . S
C200 C201 1.379 . S
C201 H179 0.948 . S
C201 C196 1.364 . S
C201 C200 1.379 . S
C202 C171 1.383 . S
C202 C189 1.479 . S
C202 C203 1.398 . S
C203 C168 1.382 . S
C203 H180 0.951 . S
C203 C202 1.398 . S
C204 C205 1.384 . S
C204 H217 0.947 . S
C204 C239 1.382 . S
C205 C204 1.384 . S
C205 C206 1.378 . S
C206 C205 1.378 . S
C206 C207 1.378 . S
C206 H218 0.952 . S
C207 C206 1.378 . S
C207 H219 0.950 . S
C207 C238 1.383 . S
H208 C227 0.947 . S
H209 C228 0.946 . S
H210 C230 0.953 . S
H211 C231 0.945 . S
H212 C233 0.952 . S
H213 C234 0.949 . S
H214 C236 0.950 . S
H215 C237 0.948 . S
H216 C239 0.951 . S
H217 C204 0.947 . S
H218 C206 0.952 . S
H219 C207 0.950 . S
N220 C223 1.382 1_545 S
N220 C225 1.363 . S
N221 C223 1.371 . S
N221 C224 1.372 1_565 S
N222 C224 1.361 . S
N222 C225 1.377 . S
C223 N220 1.382 1_565 S
C223 N221 1.371 . S
C223 C226 1.480 . S
C224 N221 1.372 1_545 S
C224 N222 1.361 . S
C224 C232 1.457 . S
C225 N220 1.363 . S
C225 N222 1.377 . S
C225 C238 1.479 . S
C226 C223 1.480 . S
C226 C227 1.383 . S
C226 C231 1.385 . S
C227 H208 0.947 . S
C227 C226 1.383 . S
C227 C228 1.388 . S
C228 H209 0.946 . S
C228 C227 1.388 . S
C228 C229 1.384 . S
C229 C228 1.384 . S
C229 C230 1.377 . S
C230 H210 0.953 . S
C230 C229 1.377 . S
C230 C231 1.369 . S
C231 H211 0.945 . S
C231 C226 1.385 . S
C231 C230 1.369 . S
C232 C224 1.457 . S
C232 C233 1.372 1_545 S
C232 C237 1.364 . S
C233 H212 0.952 . S
C233 C232 1.372 1_565 S
C233 C234 1.389 . S
C234 H213 0.949 . S
C234 C233 1.389 . S
C234 C235 1.387 1_565 S
C235 C234 1.387 1_545 S
C235 C236 1.372 . S
C236 H214 0.950 . S
C236 C235 1.372 . S
C236 C237 1.379 . S
C237 H215 0.948 . S
C237 C232 1.364 . S
C237 C236 1.379 . S
C238 C207 1.383 . S
C238 C225 1.479 . S
C238 C239 1.398 . S
C239 C204 1.382 . S
C239 H216 0.951 . S
C239 C238 1.398 . S
C240 C241 1.384 . S
C240 H253 0.947 . S
C240 C275 1.382 . S
C241 C240 1.384 . S
C241 C242 1.378 . S
C242 C241 1.378 . S
C242 C243 1.378 . S
C242 H254 0.952 . S
C243 C242 1.378 . S
C243 H255 0.950 . S
C243 C274 1.383 . S
H244 C263 0.947 . S
H245 C264 0.946 . S
H246 C266 0.953 . S
H247 C267 0.945 . S
H248 C269 0.952 . S
H249 C270 0.949 1_556 S
H250 C272 0.950 1_556 S
H251 C273 0.948 . S
H252 C275 0.951 . S
H253 C240 0.947 . S
H254 C242 0.952 . S
H255 C243 0.950 . S
N256 C259 1.382 . S
N256 C261 1.363 . S
N257 C259 1.371 . S
N257 C260 1.372 . S
N258 C260 1.361 . S
N258 C261 1.377 . S
C259 N256 1.382 . S
C259 N257 1.371 . S
C259 C262 1.480 . S
C260 N257 1.372 . S
C260 N258 1.361 . S
C260 C268 1.457 . S
C261 N256 1.363 . S
C261 N258 1.377 . S
C261 C274 1.479 . S
C262 C259 1.480 . S
C262 C263 1.383 . S
C262 C267 1.385 . S
C263 H244 0.947 . S
C263 C262 1.383 . S
C263 C264 1.388 . S
C264 H245 0.946 . S
C264 C263 1.388 . S
C264 C265 1.384 . S
C265 C264 1.384 . S
C265 C266 1.377 . S
C266 H246 0.953 . S
C266 C265 1.377 . S
C266 C267 1.369 . S
C267 H247 0.945 . S
C267 C262 1.385 . S
C267 C266 1.369 . S
C268 C260 1.457 . S
C268 C269 1.372 . S
C268 C273 1.364 . S
C269 H248 0.952 . S
C269 C268 1.372 . S
C269 C270 1.389 . S
C270 H249 0.949 1_554 S
C270 C269 1.389 . S
C270 C271 1.387 1_554 S
C271 C270 1.387 1_556 S
C271 C272 1.372 1_556 S
C272 H250 0.950 1_554 S
C272 C271 1.372 1_554 S
C272 C273 1.379 . S
C273 H251 0.948 . S
C273 C268 1.364 . S
C273 C272 1.379 . S
C274 C243 1.383 . S
C274 C261 1.479 . S
C274 C275 1.398 . S
C275 C240 1.382 . S
C275 H252 0.951 . S
C275 C274 1.398 . S
C276 C277 1.363 . S
C276 C282 1.379 . S
C276 N284 1.356 . S
C277 C276 1.363 . S
C277 C283 1.363 . S
C278 C279 1.363 . S
C278 C283 1.379 . S
C278 N285 1.356 . S
C279 C278 1.363 . S
C279 C282 1.363 . S
N280 C282 1.356 . S
N280 H292 0.984 . S
N280 H293 0.985 . S
N281 C283 1.356 . S
N281 H286 0.984 . S
N281 H287 0.985 . S
C282 C276 1.379 . S
C282 C279 1.363 . S
C282 N280 1.356 . S
C283 C277 1.363 . S
C283 C278 1.379 . S
C283 N281 1.356 . S
N284 C276 1.356 . S
N284 H290 0.984 . S
N284 H291 0.984 . S
N285 C278 1.356 . S
N285 H288 0.984 . S
N285 H289 0.985 . S
H286 N281 0.984 . S
H287 N281 0.985 . S
H288 N285 0.984 . S
H289 N285 0.985 . S
H290 N284 0.984 . S
H291 N284 0.984 . S
H292 N280 0.984 . S
H293 N280 0.985 . S
C294 C295 1.363 . S
C294 C300 1.379 . S
C294 N302 1.356 . S
C295 C294 1.363 . S
C295 C301 1.363 . S
C296 C297 1.363 . S
C296 C301 1.379 . S
C296 N303 1.356 . S
C297 C296 1.363 . S
C297 C300 1.363 . S
N298 C300 1.356 . S
N298 H310 0.984 . S
N298 H311 0.985 . S
N299 C301 1.356 . S
N299 H304 0.984 . S
N299 H305 0.985 . S
C300 C294 1.379 . S
C300 C297 1.363 . S
C300 N298 1.356 . S
C301 C295 1.363 . S
C301 C296 1.379 . S
C301 N299 1.356 . S
N302 C294 1.356 . S
N302 H308 0.984 . S
N302 H309 0.984 . S
N303 C296 1.356 . S
N303 H306 0.984 . S
N303 H307 0.985 . S
H304 N299 0.984 . S
H305 N299 0.985 . S
H306 N303 0.984 . S
H307 N303 0.985 . S
H308 N302 0.984 . S
H309 N302 0.984 . S
H310 N298 0.984 . S
H311 N298 0.985 . S
C312 C313 1.363 . S
C312 C318 1.379 . S
C312 N320 1.356 . S
C313 C312 1.363 . S
C313 C319 1.363 . S
C314 C315 1.363 . S
C314 C319 1.379 . S
C314 N321 1.356 . S
C315 C314 1.363 . S
C315 C318 1.363 . S
N316 C318 1.356 . S
N316 H328 0.984 . S
N316 H329 0.985 . S
N317 C319 1.356 . S
N317 H322 0.984 . S
N317 H323 0.985 . S
C318 C312 1.379 . S
C318 C315 1.363 . S
C318 N316 1.356 . S
C319 C313 1.363 . S
C319 C314 1.379 . S
C319 N317 1.356 . S
N320 C312 1.356 . S
N320 H326 0.984 . S
N320 H327 0.984 . S
N321 C314 1.356 . S
N321 H324 0.984 . S
N321 H325 0.985 . S
H322 N317 0.984 . S
H323 N317 0.985 . S
H324 N321 0.984 . S
H325 N321 0.985 . S
H326 N320 0.984 . S
H327 N320 0.984 . S
H328 N316 0.984 . S
H329 N316 0.985 . S
C330 C331 1.363 . S
C330 C336 1.379 . S
C330 N338 1.356 . S
C331 C330 1.363 . S
C331 C337 1.363 . S
C332 C333 1.363 . S
C332 C337 1.379 . S
C332 N339 1.356 . S
C333 C332 1.363 . S
C333 C336 1.363 . S
N334 C336 1.356 . S
N334 H346 0.984 . S
N334 H347 0.985 . S
N335 C337 1.356 . S
N335 H340 0.984 . S
N335 H341 0.985 . S
C336 C330 1.379 . S
C336 C333 1.363 . S
C336 N334 1.356 . S
C337 C331 1.363 . S
C337 C332 1.379 . S
C337 N335 1.356 . S
N338 C330 1.356 . S
N338 H344 0.984 . S
N338 H345 0.984 . S
N339 C332 1.356 . S
N339 H342 0.984 . S
N339 H343 0.985 . S
H340 N335 0.984 . S
H341 N335 0.985 . S
H342 N339 0.984 . S
H343 N339 0.985 . S
H344 N338 0.984 . S
H345 N338 0.984 . S
H346 N334 0.984 . S
H347 N334 0.985 . S
C348 C349 1.363 . S
C348 C354 1.379 . S
C348 N356 1.356 . S
C349 C348 1.363 . S
C349 C355 1.363 . S
C350 C351 1.363 . S
C350 C355 1.379 . S
C350 N357 1.356 . S
C351 C350 1.363 . S
C351 C354 1.363 . S
N352 C354 1.356 . S
N352 H364 0.984 . S
N352 H365 0.985 . S
N353 C355 1.356 . S
N353 H358 0.984 . S
N353 H359 0.985 . S
C354 C348 1.379 . S
C354 C351 1.363 . S
C354 N352 1.356 . S
C355 C349 1.363 . S
C355 C350 1.379 . S
C355 N353 1.356 . S
N356 C348 1.356 . S
N356 H362 0.984 . S
N356 H363 0.984 . S
N357 C350 1.356 . S
N357 H360 0.984 . S
N357 H361 0.985 . S
H358 N353 0.984 . S
H359 N353 0.985 . S
H360 N357 0.984 . S
H361 N357 0.985 . S
H362 N356 0.984 . S
H363 N356 0.984 . S
H364 N352 0.984 . S
H365 N352 0.985 . S
C366 C367 1.363 . S
C366 C372 1.379 . S
C366 N374 1.356 . S
C367 C366 1.363 . S
C367 C373 1.363 . S
C368 C369 1.363 . S
C368 C373 1.379 . S
C368 N375 1.356 . S
C369 C368 1.363 . S
C369 C372 1.363 . S
N370 C372 1.356 . S
N370 H382 0.984 . S
N370 H383 0.985 . S
N371 C373 1.356 . S
N371 H376 0.984 . S
N371 H377 0.985 . S
C372 C366 1.379 . S
C372 C369 1.363 . S
C372 N370 1.356 . S
C373 C367 1.363 . S
C373 C368 1.379 . S
C373 N371 1.356 . S
N374 C366 1.356 . S
N374 H380 0.984 . S
N374 H381 0.984 . S
N375 C368 1.356 . S
N375 H378 0.984 . S
N375 H379 0.985 . S
H376 N371 0.984 . S
H377 N371 0.985 . S
H378 N375 0.984 . S
H379 N375 0.985 . S
H380 N374 0.984 . S
H381 N374 0.984 . S
H382 N370 0.984 . S
H383 N370 0.985 . S
C384 C385 1.363 . S
C384 C390 1.379 . S
C384 N392 1.356 . S
C385 C384 1.363 . S
C385 C391 1.363 . S
C386 C387 1.363 . S
C386 C391 1.379 . S
C386 N393 1.356 . S
C387 C386 1.363 . S
C387 C390 1.363 . S
N388 C390 1.356 . S
N388 H400 0.984 . S
N388 H401 0.985 . S
N389 C391 1.356 . S
N389 H394 0.984 . S
N389 H395 0.985 . S
C390 C384 1.379 . S
C390 C387 1.363 . S
C390 N388 1.356 . S
C391 C385 1.363 . S
C391 C386 1.379 . S
C391 N389 1.356 . S
N392 C384 1.356 . S
N392 H398 0.984 . S
N392 H399 0.984 . S
N393 C386 1.356 . S
N393 H396 0.984 . S
N393 H397 0.985 . S
H394 N389 0.984 . S
H395 N389 0.985 . S
H396 N393 0.984 . S
H397 N393 0.985 . S
H398 N392 0.984 . S
H399 N392 0.984 . S
H400 N388 0.984 . S
H401 N388 0.985 . S
C402 C403 1.363 . S
C402 C408 1.379 . S
C402 N410 1.356 . S
C403 C402 1.363 . S
C403 C409 1.363 . S
C404 C405 1.363 . S
C404 C409 1.379 . S
C404 N411 1.356 . S
C405 C404 1.363 . S
C405 C408 1.363 . S
N406 C408 1.356 . S
N406 H418 0.984 . S
N406 H419 0.985 . S
N407 C409 1.356 . S
N407 H412 0.984 . S
N407 H413 0.985 . S
C408 C402 1.379 . S
C408 C405 1.363 . S
C408 N406 1.356 . S
C409 C403 1.363 . S
C409 C404 1.379 . S
C409 N407 1.356 . S
N410 C402 1.356 . S
N410 H416 0.984 . S
N410 H417 0.984 . S
N411 C404 1.356 . S
N411 H414 0.984 . S
N411 H415 0.985 . S
H412 N407 0.984 . S
H413 N407 0.985 . S
H414 N411 0.984 . S
H415 N411 0.985 . S
H416 N410 0.984 . S
H417 N410 0.984 . S
H418 N406 0.984 . S
H419 N406 0.985 . S
C420 C421 1.363 . S
C420 C426 1.379 . S
C420 N428 1.356 . S
C421 C420 1.363 . S
C421 C427 1.363 . S
C422 C423 1.363 . S
C422 C427 1.379 . S
C422 N429 1.356 . S
C423 C422 1.363 . S
C423 C426 1.363 . S
N424 C426 1.356 . S
N424 H436 0.984 . S
N424 H437 0.985 . S
N425 C427 1.356 . S
N425 H430 0.984 . S
N425 H431 0.985 . S
C426 C420 1.379 . S
C426 C423 1.363 . S
C426 N424 1.356 . S
C427 C421 1.363 . S
C427 C422 1.379 . S
C427 N425 1.356 . S
N428 C420 1.356 . S
N428 H434 0.984 . S
N428 H435 0.984 . S
N429 C422 1.356 . S
N429 H432 0.984 . S
N429 H433 0.985 . S
H430 N425 0.984 . S
H431 N425 0.985 . S
H432 N429 0.984 . S
H433 N429 0.985 . S
H434 N428 0.984 . S
H435 N428 0.984 . S
H436 N424 0.984 . S
H437 N424 0.985 . S
C438 C439 1.363 . S
C438 C444 1.379 . S
C438 N446 1.356 . S
C439 C438 1.363 . S
C439 C445 1.363 . S
C440 C441 1.363 . S
C440 C445 1.379 . S
C440 N447 1.356 . S
C441 C440 1.363 . S
C441 C444 1.363 . S
N442 C444 1.356 . S
N442 H454 0.984 . S
N442 H455 0.985 . S
N443 C445 1.356 . S
N443 H448 0.984 . S
N443 H449 0.985 . S
C444 C438 1.379 . S
C444 C441 1.363 . S
C444 N442 1.356 . S
C445 C439 1.363 . S
C445 C440 1.379 . S
C445 N443 1.356 . S
N446 C438 1.356 . S
N446 H452 0.984 . S
N446 H453 0.984 . S
N447 C440 1.356 . S
N447 H450 0.984 . S
N447 H451 0.985 . S
H448 N443 0.984 . S
H449 N443 0.985 . S
H450 N447 0.984 . S
H451 N447 0.985 . S
H452 N446 0.984 . S
H453 N446 0.984 . S
H454 N442 0.984 . S
H455 N442 0.985 . S
C456 C457 1.363 . S
C456 C462 1.379 . S
C456 N464 1.356 . S
C457 C456 1.363 . S
C457 C463 1.363 . S
C458 C459 1.363 . S
C458 C463 1.379 . S
C458 N465 1.356 . S
C459 C458 1.363 . S
C459 C462 1.363 . S
N460 C462 1.356 . S
N460 H472 0.984 . S
N460 H473 0.985 . S
N461 C463 1.356 . S
N461 H466 0.984 . S
N461 H467 0.985 . S
C462 C456 1.379 . S
C462 C459 1.363 . S
C462 N460 1.356 . S
C463 C457 1.363 . S
C463 C458 1.379 . S
C463 N461 1.356 . S
N464 C456 1.356 . S
N464 H470 0.984 . S
N464 H471 0.984 . S
N465 C458 1.356 . S
N465 H468 0.984 . S
N465 H469 0.985 . S
H466 N461 0.984 . S
H467 N461 0.985 . S
H468 N465 0.984 . S
H469 N465 0.985 . S
H470 N464 0.984 . S
H471 N464 0.984 . S
H472 N460 0.984 . S
H473 N460 0.985 . S
C474 C475 1.363 . S
C474 C480 1.379 . S
C474 N482 1.356 . S
C475 C474 1.363 . S
C475 C481 1.363 . S
C476 C477 1.363 . S
C476 C481 1.379 . S
C476 N483 1.356 . S
C477 C476 1.363 . S
C477 C480 1.363 . S
N478 C480 1.356 . S
N478 H490 0.984 . S
N478 H491 0.985 . S
N479 C481 1.356 . S
N479 H484 0.984 . S
N479 H485 0.985 . S
C480 C474 1.379 . S
C480 C477 1.363 . S
C480 N478 1.356 . S
C481 C475 1.363 . S
C481 C476 1.379 . S
C481 N479 1.356 . S
N482 C474 1.356 . S
N482 H488 0.984 . S
N482 H489 0.984 . S
N483 C476 1.356 . S
N483 H486 0.984 . S
N483 H487 0.985 . S
H484 N479 0.984 . S
H485 N479 0.985 . S
H486 N483 0.984 . S
H487 N483 0.985 . S
H488 N482 0.984 . S
H489 N482 0.984 . S
H490 N478 0.984 . S
H491 N478 0.985 . S
C492 C493 1.363 . S
C492 C498 1.379 . S
C492 N500 1.356 . S
C493 C492 1.363 . S
C493 C499 1.363 . S
C494 C495 1.363 . S
C494 C499 1.379 . S
C494 N501 1.356 . S
C495 C494 1.363 . S
C495 C498 1.363 . S
N496 C498 1.356 . S
N496 H508 0.984 . S
N496 H509 0.985 . S
N497 C499 1.356 1_655 S
N497 H502 0.984 . S
N497 H503 0.985 . S
C498 C492 1.379 . S
C498 C495 1.363 . S
C498 N496 1.356 . S
C499 C493 1.363 . S
C499 C494 1.379 . S
C499 N497 1.356 1_455 S
N500 C492 1.356 . S
N500 H506 0.984 . S
N500 H507 0.984 . S
N501 C494 1.356 . S
N501 H504 0.984 . S
N501 H505 0.985 . S
H502 N497 0.984 . S
H503 N497 0.985 . S
H504 N501 0.984 . S
H505 N501 0.985 . S
H506 N500 0.984 . S
H507 N500 0.984 . S
H508 N496 0.984 . S
H509 N496 0.985 . S
C510 C511 1.363 1_565 S
C510 C516 1.379 . S
C510 N518 1.356 . S
C511 C510 1.363 1_545 S
C511 C517 1.363 . S
C512 C513 1.363 . S
C512 C517 1.379 . S
C512 N519 1.356 . S
C513 C512 1.363 . S
C513 C516 1.363 1_545 S
N514 C516 1.356 . S
N514 H526 0.984 . S
N514 H527 0.985 . S
N515 C517 1.356 . S
N515 H520 0.984 . S
N515 H521 0.985 . S
C516 C510 1.379 . S
C516 C513 1.363 1_565 S
C516 N514 1.356 . S
C517 C511 1.363 . S
C517 C512 1.379 . S
C517 N515 1.356 . S
N518 C510 1.356 . S
N518 H524 0.984 . S
N518 H525 0.984 . S
N519 C512 1.356 . S
N519 H522 0.984 . S
N519 H523 0.985 . S
H520 N515 0.984 . S
H521 N515 0.985 . S
H522 N519 0.984 . S
H523 N519 0.985 . S
H524 N518 0.984 . S
H525 N518 0.984 . S
H526 N514 0.984 . S
H527 N514 0.985 . S
C528 C529 1.363 . S
C528 C534 1.379 . S
C528 N536 1.356 . S
C529 C528 1.363 . S
C529 C535 1.363 . S
C530 C531 1.363 . S
C530 C535 1.379 . S
C530 N537 1.356 . S
C531 C530 1.363 . S
C531 C534 1.363 . S
N532 C534 1.356 . S
N532 H544 0.984 . S
N532 H545 0.985 . S
N533 C535 1.356 . S
N533 H538 0.984 . S
N533 H539 0.985 . S
C534 C528 1.379 . S
C534 C531 1.363 . S
C534 N532 1.356 . S
C535 C529 1.363 . S
C535 C530 1.379 . S
C535 N533 1.356 . S
N536 C528 1.356 . S
N536 H542 0.984 . S
N536 H543 0.984 . S
N537 C530 1.356 . S
N537 H540 0.984 . S
N537 H541 0.985 . S
H538 N533 0.984 . S
H539 N533 0.985 . S
H540 N537 0.984 . S
H541 N537 0.985 . S
H542 N536 0.984 . S
H543 N536 0.984 . S
H544 N532 0.984 . S
H545 N532 0.985 . S
C546 C547 1.363 1_565 S
C546 C552 1.379 . S
C546 N554 1.356 . S
C547 C546 1.363 1_545 S
C547 C553 1.363 . S
C548 C549 1.363 . S
C548 C553 1.379 . S
C548 N555 1.356 . S
C549 C548 1.363 . S
C549 C552 1.363 1_545 S
N550 C552 1.356 . S
N550 H562 0.984 . S
N550 H563 0.985 . S
N551 C553 1.356 . S
N551 H556 0.984 . S
N551 H557 0.985 . S
C552 C546 1.379 . S
C552 C549 1.363 1_565 S
C552 N550 1.356 . S
C553 C547 1.363 . S
C553 C548 1.379 . S
C553 N551 1.356 . S
N554 C546 1.356 . S
N554 H560 0.984 . S
N554 H561 0.984 . S
N555 C548 1.356 . S
N555 H558 0.984 . S
N555 H559 0.985 . S
H556 N551 0.984 . S
H557 N551 0.985 . S
H558 N555 0.984 . S
H559 N555 0.985 . S
H560 N554 0.984 . S
H561 N554 0.984 . S
H562 N550 0.984 . S
H563 N550 0.985 . S
C564 C565 1.363 . S
C564 C570 1.379 . S
C564 N572 1.356 . S
C565 C564 1.363 . S
C565 C571 1.363 . S
C566 C567 1.363 . S
C566 C571 1.379 . S
C566 N573 1.356 . S
C567 C566 1.363 . S
C567 C570 1.363 . S
N568 C570 1.356 . S
N568 H580 0.984 . S
N568 H581 0.985 . S
N569 C571 1.356 . S
N569 H574 0.984 . S
N569 H575 0.985 . S
C570 C564 1.379 . S
C570 C567 1.363 . S
C570 N568 1.356 . S
C571 C565 1.363 . S
C571 C566 1.379 . S
C571 N569 1.356 . S
N572 C564 1.356 . S
N572 H578 0.984 . S
N572 H579 0.984 . S
N573 C566 1.356 . S
N573 H576 0.984 . S
N573 H577 0.985 . S
H574 N569 0.984 . S
H575 N569 0.985 . S
H576 N573 0.984 . S
H577 N573 0.985 . S
H578 N572 0.984 . S
H579 N572 0.984 . S
H580 N568 0.984 . S
H581 N568 0.985 . S
C582 C583 1.363 1_455 S
C582 C588 1.379 . S
C582 N590 1.356 . S
C583 C582 1.363 1_655 S
C583 C589 1.363 . S
C584 C585 1.361 1_655 S
C584 C589 1.379 . S
C584 N591 1.356 . S
C585 C584 1.361 1_455 S
C585 C588 1.365 . S
N586 C588 1.356 . S
N586 H598 0.984 . S
N586 H599 0.985 . S
N587 C589 1.356 . S
N587 H592 0.984 . S
N587 H593 0.985 . S
C588 C582 1.379 . S
C588 C585 1.365 . S
C588 N586 1.356 . S
C589 C583 1.363 . S
C589 C584 1.379 . S
C589 N587 1.356 . S
N590 C582 1.356 . S
N590 H596 0.984 . S
N590 H597 0.984 . S
N591 C584 1.356 . S
N591 H594 0.984 . S
N591 H595 0.985 . S
H592 N587 0.984 . S
H593 N587 0.985 . S
H594 N591 0.984 . S
H595 N591 0.985 . S
H596 N590 0.984 . S
H597 N590 0.984 . S
H598 N586 0.984 . S
H599 N586 0.985 . S
C277 C2 1.455 . S
C279 C265 1.498 . S
C295 C22 1.433 . S
C297 C193 1.493 . S
C313 C44 1.495 . S
C315 C229 1.530 . S
C331 C4 1.629 . S
C333 C241 1.695 . S
C351 C169 1.712 . S
C349 C24 1.668 . S
C369 C205 1.660 . S
C367 C42 1.582 . S
C385 C32 1.427 . S
C387 C121 1.382 . S
C403 C49 1.376 . S
C405 C133 1.364 . S
C421 C9 1.362 . S
C423 C61 1.357 . S
C441 C97 1.378 . S
C439 C29 1.320 . S
C459 C157 1.353 . S
C457 C52 1.348 . S
C475 C12 1.341 . S
C477 C85 1.341 . S
C495 C163 1.436 . S
C493 C18 1.442 1_455 S
C511 C38 1.433 . S
C513 C91 1.436 . S
C529 C58 1.424 . S
C531 C127 1.450 . S
C549 C235 1.506 . S
C547 C39 1.496 . S
C567 C271 1.497 . S
C565 C59 1.476 . S
C583 C19 1.479 1_655 S
C585 C199 1.499 . S
