# Generated by pormake.
# Topology zzz, (3,6)-cn, num edge types: 1
# Building blocks:
#     Node 0, Type 0, BuildingBlock: KAKCAD_clean_linker_0, # of connection points: 3
#     Node 1, Type 0, BuildingBlock: KAKCAD_clean_linker_0, # of connection points: 3
#     Node 2, Type 0, BuildingBlock: KAKCAD_clean_linker_0, # of connection points: 3
#     Node 3, Type 0, BuildingBlock: KAKCAD_clean_linker_0, # of connection points: 3
#     Node 4, Type 0, BuildingBlock: KAKCAD_clean_linker_0, # of connection points: 3
#     Node 5, Type 0, BuildingBlock: KAKCAD_clean_linker_0, # of connection points: 3
#     Node 6, Type 0, BuildingBlock: KAKCAD_clean_linker_0, # of connection points: 3
#     Node 7, Type 0, BuildingBlock: KAKCAD_clean_linker_0, # of connection points: 3
#     Node 8, Type 1, BuildingBlock: JUFBIX_clean_sbu_0, # of connection points: 6
#     Node 9, Type 1, BuildingBlock: JUFBIX_clean_sbu_0, # of connection points: 6
#     Node 10, Type 1, BuildingBlock: JUFBIX_clean_sbu_0, # of connection points: 6
#     Node 11, Type 1, BuildingBlock: JUFBIX_clean_sbu_0, # of connection points: 6
#     Edge 12, Type (0, 1), BuildingBlock: TEMPAE_clean_linker_10, # of connection points: 2
#     Edge 13, Type (0, 1), BuildingBlock: TEMPAE_clean_linker_10, # of connection points: 2
#     Edge 14, Type (0, 1), BuildingBlock: TEMPAE_clean_linker_10, # of connection points: 2
#     Edge 15, Type (0, 1), BuildingBlock: TEMPAE_clean_linker_10, # of connection points: 2
#     Edge 16, Type (0, 1), BuildingBlock: TEMPAE_clean_linker_10, # of connection points: 2
#     Edge 17, Type (0, 1), BuildingBlock: TEMPAE_clean_linker_10, # of connection points: 2
#     Edge 18, Type (0, 1), BuildingBlock: TEMPAE_clean_linker_10, # of connection points: 2
#     Edge 19, Type (0, 1), BuildingBlock: TEMPAE_clean_linker_10, # of connection points: 2
#     Edge 20, Type (0, 1), BuildingBlock: TEMPAE_clean_linker_10, # of connection points: 2
#     Edge 21, Type (0, 1), BuildingBlock: TEMPAE_clean_linker_10, # of connection points: 2
#     Edge 22, Type (0, 1), BuildingBlock: TEMPAE_clean_linker_10, # of connection points: 2
#     Edge 23, Type (0, 1), BuildingBlock: TEMPAE_clean_linker_10, # of connection points: 2
#     Edge 24, Type (0, 1), BuildingBlock: TEMPAE_clean_linker_10, # of connection points: 2
#     Edge 25, Type (0, 1), BuildingBlock: TEMPAE_clean_linker_10, # of connection points: 2
#     Edge 26, Type (0, 1), BuildingBlock: TEMPAE_clean_linker_10, # of connection points: 2
#     Edge 27, Type (0, 1), BuildingBlock: TEMPAE_clean_linker_10, # of connection points: 2
#     Edge 28, Type (0, 1), BuildingBlock: TEMPAE_clean_linker_10, # of connection points: 2
#     Edge 29, Type (0, 1), BuildingBlock: TEMPAE_clean_linker_10, # of connection points: 2
#     Edge 30, Type (0, 1), BuildingBlock: TEMPAE_clean_linker_10, # of connection points: 2
#     Edge 31, Type (0, 1), BuildingBlock: TEMPAE_clean_linker_10, # of connection points: 2
#     Edge 32, Type (0, 1), BuildingBlock: TEMPAE_clean_linker_10, # of connection points: 2
#     Edge 33, Type (0, 1), BuildingBlock: TEMPAE_clean_linker_10, # of connection points: 2
#     Edge 34, Type (0, 1), BuildingBlock: TEMPAE_clean_linker_10, # of connection points: 2
#     Edge 35, Type (0, 1), BuildingBlock: TEMPAE_clean_linker_10, # of connection points: 2
# Relax obj value: 0.288
# Max RMSD: 0.224
# Mean RMSD: 0.188
data_MOF--net-zzz--node1-JUFBIX_clean_sbu_0--node2-KAKCAD_clean_linker_0--edge1-TEMPAE_clean_linker_10
_symmetry_space_group_name_H-M    P1
_symmetry_Int_Tables_number       1
_symmetry_cell_setting            triclinic
loop_
_symmetry_equiv_pos_as_xyz
'x, y, z'
_cell_length_a     58.349046
_cell_length_b     60.094954
_cell_length_c     23.072069
_cell_angle_alpha  82.824116
_cell_angle_beta   90.173825
_cell_angle_gamma 86.534462
loop_
_atom_site_label
_atom_site_type_symbol
_atom_site_fract_x
_atom_site_fract_y
_atom_site_fract_z
_atom_type_partial_charge
C0 C 0.82391 0.52548 0.11479 0.0
C1 C 0.83937 0.50697 0.1327 0.0
C2 C 0.80658 0.53197 0.15193 0.0
C3 C 0.80454 0.52031 0.20806 0.0
C4 C 0.81956 0.50153 0.22565 0.0
C5 C 0.83669 0.49482 0.18821 0.0
C6 C 0.78762 0.5285 0.24931 0.0
C7 C 0.76464 0.53359 0.23247 0.0
C8 C 0.74868 0.54164 0.27159 0.0
C9 C 0.75597 0.5452 0.32768 0.0
C10 C 0.77911 0.54054 0.34424 0.0
C11 C 0.79469 0.53192 0.30534 0.0
C12 C 0.78812 0.54545 0.40058 0.0
C13 C 0.79501 0.56708 0.40566 0.0
C14 C 0.79504 0.52761 0.44327 0.0
C15 C 0.81003 0.53102 0.48818 0.0
C16 C 0.81862 0.55227 0.49048 0.0
C17 C 0.7244 0.54538 0.25307 0.0
C18 C 0.71844 0.56023 0.20271 0.0
C19 C 0.7079 0.5315 0.27952 0.0
C20 C 0.68628 0.53122 0.25328 0.0
C21 C 0.6808 0.54508 0.20075 0.0
C22 C 0.69675 0.56022 0.17703 0.0
C23 C 0.81019 0.57048 0.45029 0.0
H24 H 0.82566 0.53553 0.07288 0.0
H25 H 0.79534 0.54666 0.13763 0.0
H26 H 0.81814 0.49213 0.26859 0.0
H27 H 0.84797 0.48024 0.20306 0.0
H28 H 0.75901 0.53075 0.18929 0.0
H29 H 0.81259 0.52857 0.31818 0.0
H30 H 0.74384 0.5517 0.35783 0.0
H31 H 0.79015 0.58096 0.37243 0.0
H32 H 0.79024 0.51072 0.43929 0.0
H33 H 0.8164 0.51661 0.51805 0.0
H34 H 0.73101 0.57095 0.18148 0.0
H35 H 0.71228 0.51977 0.31808 0.0
H36 H 0.81644 0.58704 0.45127 0.0
H37 H 0.69309 0.5709 0.13626 0.0
H38 H 0.67425 0.51943 0.27243 0.0
C39 C 0.03203 0.81906 0.06775 0.0
C40 C 0.04775 0.83522 0.07605 0.0
C41 C 0.0287 0.80138 0.11155 0.0
C42 C 0.04091 0.79962 0.16464 0.0
C43 C 0.05742 0.81517 0.17184 0.0
C44 C 0.0609 0.83277 0.12775 0.0
C45 C 0.03494 0.78279 0.2139 0.0
C46 C 0.03175 0.76059 0.20507 0.0
C47 C 0.02412 0.74507 0.25042 0.0
C48 C 0.01937 0.75207 0.30563 0.0
C49 C 0.02326 0.77429 0.31547 0.0
C50 C 0.03093 0.78939 0.26918 0.0
C51 C 0.01908 0.78285 0.37257 0.0
C52 C 0.99743 0.78215 0.39892 0.0
C53 C 0.03575 0.7954 0.3953 0.0
C54 C 0.03039 0.80849 0.43985 0.0
C55 C 0.00821 0.80926 0.46364 0.0
C56 C 0.02123 0.72186 0.23737 0.0
C57 C 0.99927 0.71375 0.2339 0.0
C58 C 0.04008 0.70963 0.21662 0.0
C59 C 0.03693 0.6905 0.1895 0.0
C60 C 0.01479 0.68315 0.1821 0.0
C61 C 0.99606 0.69458 0.20641 0.0
C62 C 0.99205 0.79521 0.4441 0.0
H63 H 0.0218 0.82053 0.02804 0.0
H64 H 0.01577 0.78972 0.10495 0.0
H65 H 0.06719 0.81406 0.21221 0.0
H66 H 0.07304 0.84508 0.13527 0.0
H67 H 0.03498 0.75538 0.16233 0.0
H68 H 0.03293 0.80674 0.27568 0.0
H69 H 0.01331 0.74025 0.34073 0.0
H70 H 0.98422 0.77269 0.38214 0.0
H71 H 0.05263 0.79621 0.37593 0.0
H72 H 0.04333 0.81913 0.45271 0.0
H73 H 0.98443 0.72307 0.24888 0.0
H74 H 0.05715 0.71572 0.21818 0.0
H75 H 0.97493 0.79496 0.46204 0.0
H76 H 0.97881 0.68923 0.20213 0.0
H77 H 0.05174 0.68239 0.17089 0.0
C78 C 0.69146 0.96213 0.07421 0.0
C79 C 0.68493 0.98428 0.04977 0.0
C80 C 0.7101 0.95785 0.11296 0.0
C81 C 0.72267 0.97558 0.12703 0.0
C82 C 0.71694 0.99752 0.10086 0.0
C83 C 0.69821 0.00186 0.0626 0.0
C84 C 0.73963 0.97192 0.17484 0.0
C85 C 0.76306 0.9694 0.16366 0.0
C86 C 0.77923 0.96865 0.20927 0.0
C87 C 0.77166 0.97042 0.26663 0.0
C88 C 0.74799 0.97284 0.27776 0.0
C89 C 0.73219 0.97334 0.23166 0.0
C90 C 0.73879 0.97592 0.336 0.0
C91 C 0.74045 0.95828 0.38202 0.0
C92 C 0.72402 0.99483 0.34131 0.0
C93 C 0.70948 0.99522 0.38897 0.0
C94 C 0.70949 0.97675 0.43298 0.0
C95 C 0.80379 0.96832 0.19405 0.0
C96 C 0.81336 0.95121 0.16372 0.0
C97 C 0.81634 0.98715 0.19952 0.0
C98 C 0.83737 0.98963 0.1712 0.0
C99 C 0.84628 0.97316 0.13771 0.0
C100 C 0.83453 0.95351 0.1362 0.0
C101 C 0.72596 0.95873 0.43034 0.0
H102 H 0.68185 0.94817 0.06446 0.0
H103 H 0.71426 0.94084 0.13335 0.0
H104 H 0.72634 0.01141 0.11214 0.0
H105 H 0.69351 0.01913 0.04528 0.0
H106 H 0.76873 0.96897 0.11906 0.0
H107 H 0.71392 0.9755 0.23976 0.0
H108 H 0.78402 0.97046 0.30177 0.0
H109 H 0.75165 0.94347 0.37861 0.0
H110 H 0.7224 0.0086 0.30611 0.0
H111 H 0.697 0.00932 0.38854 0.0
H112 H 0.80383 0.93664 0.15855 0.0
H113 H 0.80912 1.00068 0.22204 0.0
H114 H 0.72683 0.94442 0.46398 0.0
H115 H 0.84093 0.94064 0.1104 0.0
H116 H 0.84618 0.00488 0.17327 0.0
C117 C 0.4947 0.71154 0.41261 0.0
C118 C 0.50993 0.69236 0.4121 0.0
C119 C 0.48912 0.72572 0.36075 0.0
C120 C 0.49903 0.72124 0.30785 0.0
C121 C 0.51594 0.7036 0.30836 0.0
C122 C 0.52118 0.68925 0.35952 0.0
C123 C 0.48802 0.73021 0.25122 0.0
C124 C 0.4904 0.7522 0.22385 0.0
C125 C 0.48219 0.75857 0.166 0.0
C126 C 0.47182 0.74248 0.13648 0.0
C127 C 0.46971 0.72045 0.16343 0.0
C128 C 0.47693 0.71494 0.22158 0.0
C129 C 0.46243 0.7024 0.12984 0.0
C130 C 0.44545 0.70652 0.08564 0.0
C131 C 0.47346 0.68077 0.14066 0.0
C132 C 0.46759 0.66373 0.10892 0.0
C133 C 0.45091 0.66788 0.0645 0.0
C134 C 0.48523 0.78149 0.13462 0.0
C135 C 0.4821 0.80083 0.16316 0.0
C136 C 0.49035 0.78424 0.07461 0.0
C137 C 0.49109 0.80562 0.04338 0.0
C138 C 0.48721 0.82489 0.07141 0.0
C139 C 0.48321 0.82233 0.13188 0.0
C140 C 0.43988 0.68942 0.05282 0.0
H141 H 0.48613 0.71497 0.45236 0.0
H142 H 0.47586 0.73911 0.36126 0.0
H143 H 0.52359 0.69965 0.26783 0.0
H144 H 0.53273 0.6747 0.35621 0.0
H145 H 0.49941 0.76386 0.24644 0.0
H146 H 0.47489 0.69816 0.24362 0.0
H147 H 0.46597 0.74693 0.09174 0.0
H148 H 0.43652 0.72291 0.07625 0.0
H149 H 0.48722 0.67703 0.17263 0.0
H150 H 0.47681 0.64744 0.11765 0.0
H151 H 0.47808 0.79939 0.20922 0.0
H152 H 0.49366 0.76982 0.05135 0.0
H153 H 0.42706 0.693 0.01833 0.0
H154 H 0.48019 0.83695 0.15453 0.0
H155 H 0.49468 0.80711 0.99705 0.0
C156 C 0.17874 0.51574 0.41258 0.0
C157 C 0.15711 0.50669 0.415 0.0
C158 C 0.19589 0.50755 0.37715 0.0
C159 C 0.19184 0.48985 0.34447 0.0
C160 C 0.1702 0.48063 0.3481 0.0
C161 C 0.15299 0.48911 0.38248 0.0
C162 C 0.20986 0.48109 0.30618 0.0
C163 C 0.23316 0.47972 0.32225 0.0
C164 C 0.2501 0.47138 0.28593 0.0
C165 C 0.2436 0.46387 0.23324 0.0
C166 C 0.22033 0.46523 0.21689 0.0
C167 C 0.20374 0.47398 0.253 0.0
C168 C 0.21232 0.45855 0.16144 0.0
C169 C 0.21027 0.47473 0.11212 0.0
C170 C 0.20056 0.43883 0.16268 0.0
C171 C 0.18519 0.43633 0.11773 0.0
C172 C 0.18115 0.45366 0.0713 0.0
C173 C 0.27446 0.47098 0.30409 0.0
C174 C 0.28317 0.49055 0.32051 0.0
C175 C 0.28829 0.45086 0.31129 0.0
C176 C 0.31 0.45008 0.33796 0.0
C177 C 0.31826 0.46949 0.35704 0.0
C178 C 0.30481 0.48983 0.34655 0.0
C179 C 0.19482 0.4723 0.06724 0.0
H180 H 0.18224 0.52929 0.43755 0.0
H181 H 0.2122 0.51529 0.37488 0.0
H182 H 0.16657 0.46662 0.32495 0.0
H183 H 0.13656 0.48157 0.38471 0.0
H184 H 0.23822 0.48478 0.36367 0.0
H185 H 0.18593 0.47555 0.2387 0.0
H186 H 0.25649 0.45745 0.20486 0.0
H187 H 0.21885 0.49027 0.11104 0.0
H188 H 0.20168 0.42632 0.20087 0.0
H189 H 0.1752 0.42161 0.12158 0.0
H190 H 0.27282 0.50627 0.31523 0.0
H191 H 0.28184 0.43554 0.29913 0.0
H192 H 0.19204 0.48604 0.03235 0.0
H193 H 0.31043 0.50503 0.36141 0.0
H194 H 0.32003 0.4342 0.3452 0.0
C195 C 0.94803 0.20554 0.44787 0.0
C196 C 0.9608 0.18496 0.44749 0.0
C197 C 0.951 0.22337 0.40386 0.0
C198 C 0.96677 0.22088 0.35876 0.0
C199 C 0.97928 0.20018 0.35833 0.0
C200 C 0.9762 0.18243 0.40177 0.0
C201 C 0.97082 0.23974 0.3127 0.0
C202 C 0.97245 0.26163 0.32648 0.0
C203 C 0.97877 0.27901 0.28405 0.0
C204 C 0.98384 0.27422 0.22685 0.0
C205 C 0.98142 0.25236 0.21231 0.0
C206 C 0.97469 0.2355 0.25517 0.0
C207 C 0.98652 0.24556 0.15402 0.0
C208 C 0.96835 0.23945 0.12048 0.0
C209 C 0.00906 0.23822 0.14154 0.0
C210 C 0.01315 0.22336 0.09987 0.0
C211 C 0.99472 0.21547 0.07038 0.0
C212 C 0.9805 0.30166 0.30236 0.0
C213 C 0.96155 0.31167 0.32884 0.0
C214 C 0.00176 0.31137 0.30348 0.0
C215 C 0.00432 0.32991 0.33397 0.0
C216 C 0.98561 0.33914 0.36348 0.0
C217 C 0.96404 0.33021 0.35882 0.0
C218 C 0.9724 0.22461 0.07898 0.0
H219 H 0.93609 0.20799 0.48269 0.0
H220 H 0.94097 0.23906 0.40513 0.0
H221 H 0.99185 0.19774 0.32489 0.0
H222 H 0.98601 0.16667 0.39959 0.0
H223 H 0.96972 0.26506 0.37106 0.0
H224 H 0.97296 0.21872 0.24365 0.0
H225 H 0.98922 0.28733 0.19407 0.0
H226 H 0.95078 0.24453 0.13015 0.0
H227 H 0.02328 0.24222 0.16791 0.0
H228 H 0.03054 0.21659 0.09453 0.0
H229 H 0.94502 0.30436 0.32902 0.0
H230 H 0.01668 0.30379 0.284 0.0
H231 H 0.95787 0.21914 0.05634 0.0
H232 H 0.94931 0.33665 0.38139 0.0
H233 H 0.02111 0.33652 0.33617 0.0
C234 C 0.29559 0.04121 0.48711 0.0
C235 C 0.31673 0.05071 0.47462 0.0
C236 C 0.27734 0.04542 0.44719 0.0
C237 C 0.27988 0.05922 0.39407 0.0
C238 C 0.30052 0.06983 0.38331 0.0
C239 C 0.31878 0.06558 0.42309 0.0
C240 C 0.26228 0.06027 0.34724 0.0
C241 C 0.23882 0.0622 0.3595 0.0
C242 C 0.22226 0.06045 0.31612 0.0
C243 C 0.2294 0.05691 0.25945 0.0
C244 C 0.25295 0.05516 0.24687 0.0
C245 C 0.26912 0.05703 0.29072 0.0
C246 C 0.26177 0.05036 0.18949 0.0
C247 C 0.27678 0.03135 0.18737 0.0
C248 C 0.25987 0.06688 0.14084 0.0
C249 C 0.27441 0.06538 0.09299 0.0
C250 C 0.2912 0.04744 0.09349 0.0
C251 C 0.19785 0.06009 0.33332 0.0
C252 C 0.18543 0.04124 0.32696 0.0
C253 C 0.18823 0.07673 0.36517 0.0
C254 C 0.1673 0.07386 0.39352 0.0
C255 C 0.15571 0.05418 0.39102 0.0
C256 C 0.16458 0.03825 0.35584 0.0
C257 C 0.29138 0.02994 0.14015 0.0
H258 H 0.29339 0.02998 0.52694 0.0
H259 H 0.26169 0.03689 0.45655 0.0
H260 H 0.30286 0.08074 0.34298 0.0
H261 H 0.33486 0.07309 0.412 0.0
H262 H 0.23343 0.06426 0.40355 0.0
H263 H 0.28727 0.05506 0.28112 0.0
H264 H 0.21682 0.05504 0.22602 0.0
H265 H 0.27861 0.01848 0.22471 0.0
H266 H 0.2485 0.08176 0.14178 0.0
H267 H 0.27338 0.07892 0.05724 0.0
H268 H 0.19259 0.02808 0.30306 0.0
H269 H 0.19753 0.0914 0.37073 0.0
H270 H 0.30409 0.01595 0.14293 0.0
H271 H 0.15586 0.02303 0.35269 0.0
H272 H 0.16098 0.08637 0.42049 0.0
C273 C 0.47285 0.33469 0.16542 0.0
C274 C 0.48934 0.339 0.12162 0.0
C275 C 0.47794 0.31908 0.21473 0.0
C276 C 0.49944 0.30723 0.22082 0.0
C277 C 0.51519 0.31007 0.17508 0.0
C278 C 0.51019 0.32577 0.12588 0.0
C279 C 0.50777 0.29744 0.27957 0.0
C280 C 0.50848 0.27427 0.2989 0.0
C281 C 0.51765 0.26602 0.35465 0.0
C282 C 0.52618 0.28113 0.39018 0.0
C283 C 0.52502 0.30436 0.37174 0.0
C284 C 0.51564 0.31223 0.31639 0.0
C285 C 0.5324 0.32068 0.41069 0.0
C286 C 0.52866 0.31711 0.47124 0.0
C287 C 0.54167 0.34087 0.38693 0.0
C288 C 0.54526 0.35776 0.42171 0.0
C289 C 0.54036 0.35471 0.48175 0.0
C290 C 0.51766 0.24187 0.37815 0.0
C291 C 0.49702 0.23096 0.38358 0.0
C292 C 0.5379 0.23042 0.40186 0.0
C293 C 0.5374 0.20884 0.43238 0.0
C294 C 0.51656 0.19828 0.44092 0.0
C295 C 0.49644 0.20946 0.41492 0.0
C296 C 0.53286 0.33379 0.50639 0.0
H297 H 0.45647 0.34426 0.16313 0.0
H298 H 0.46572 0.31746 0.25004 0.0
H299 H 0.53211 0.30152 0.1796 0.0
H300 H 0.52341 0.32873 0.09348 0.0
H301 H 0.50209 0.2628 0.27085 0.0
H302 H 0.51407 0.3301 0.30158 0.0
H303 H 0.53335 0.27472 0.4328 0.0
H304 H 0.52152 0.30185 0.49137 0.0
H305 H 0.5455 0.34402 0.34086 0.0
H306 H 0.5509 0.37357 0.40061 0.0
H307 H 0.48113 0.23955 0.3663 0.0
H308 H 0.55406 0.23843 0.39798 0.0
H309 H 0.52953 0.33046 0.5527 0.0
H310 H 0.48001 0.20207 0.42089 0.0
H311 H 0.55336 0.20061 0.45023 0.0
Co312 Co 0.0099 0.02286 0.79534 0.0
C313 C 0.97097 0.00274 0.84106 0.0
Co314 Co 0.99398 1.00109 0.73704 0.0
C315 C 0.01183 0.06099 0.86045 0.0
C316 C 0.04355 0.041 0.8661 0.0
N317 N 0.0221 0.04208 0.84354 0.0
N318 N 0.02601 0.0718 0.89228 0.0
C319 C 0.04597 0.05915 0.89625 0.0
H320 H 0.99427 0.06682 0.84942 0.0
H321 H 0.05679 0.02815 0.85986 0.0
C322 C 0.03287 0.02126 0.69116 0.0
N323 N 0.98213 0.9822 0.68652 0.0
C324 C 0.98484 0.95951 0.68854 0.0
C325 C 0.97277 0.98916 0.63321 0.0
N326 N 0.97795 0.95231 0.63843 0.0
C327 C 0.97023 0.97094 0.60378 0.0
C328 C 0.97693 0.04513 0.71791 0.0
O329 O 0.03344 0.02929 0.73962 0.0
O330 O 0.01701 0.00854 0.68163 0.0
O331 O 0.97488 0.0259 0.70178 0.0
O332 O 0.99137 0.04726 0.75771 0.0
O333 O 0.97093 0.99394 0.79353 0.0
H334 H 0.96941 0.0065 0.61487 0.0
H335 H 0.99325 0.94858 0.72413 0.0
O336 O 0.98636 0.01614 0.84984 0.0
O337 O 0.02822 0.99801 0.83289 0.0
O338 O 0.01333 0.97691 0.77331 0.0
C339 C 0.02685 0.9789 0.81534 0.0
H340 H 0.06144 0.06312 0.91778 0.0
H341 H 0.96422 0.97145 0.55916 0.0
Co342 Co 0.49155 0.02125 0.79553 0.0
C343 C 0.4936 0.9745 0.81879 0.0
Co344 Co 0.50888 0.00396 0.72701 0.0
C345 C 0.45252 0.03241 0.86356 0.0
C346 C 0.48128 0.05041 0.88485 0.0
N347 N 0.4748 0.03519 0.85064 0.0
N348 N 0.44478 0.04534 0.90379 0.0
C349 C 0.46283 0.05658 0.91796 0.0
H350 H 0.44206 0.02098 0.84416 0.0
H351 H 0.4982 0.05682 0.88515 0.0
C352 C 0.5069 0.0507 0.70362 0.0
N353 N 0.52565 0.98992 0.67199 0.0
C354 C 0.54825 0.99163 0.66116 0.0
C355 C 0.5187 0.97572 0.63546 0.0
N356 N 0.55569 0.97905 0.6199 0.0
C357 C 0.53716 0.96912 0.60298 0.0
C358 C 0.46313 0.01182 0.70434 0.0
O359 O 0.49641 0.04975 0.75211 0.0
O360 O 0.51428 0.03252 0.68523 0.0
O361 O 0.4813 0.00348 0.68319 0.0
O362 O 0.46428 0.01996 0.75227 0.0
O363 O 0.50349 0.97551 0.7695 0.0
H364 H 0.50141 0.97032 0.63293 0.0
H365 H 0.55916 0.00211 0.68264 0.0
O366 O 0.48674 0.99266 0.83813 0.0
O367 O 0.5193 0.02238 0.83849 0.0
O368 O 0.53593 0.00458 0.77129 0.0
C369 C 0.53726 0.01319 0.81848 0.0
H370 H 0.46252 0.06876 0.94884 0.0
H371 H 0.5371 0.95762 0.57043 0.0
Co372 Co 0.51764 0.51633 0.78324 0.0
C373 C 0.4937 0.48091 0.83745 0.0
Co374 Co 0.48301 0.5145 0.74565 0.0
C375 C 0.55275 0.52082 0.86932 0.0
C376 C 0.56677 0.51629 0.78576 0.0
N377 N 0.54677 0.51764 0.81448 0.0
N378 N 0.57573 0.5216 0.87606 0.0
C379 C 0.58452 0.51857 0.82334 0.0
H380 H 0.54034 0.52299 0.90316 0.0
H381 H 0.56838 0.51401 0.74016 0.0
C382 C 0.50706 0.54992 0.692 0.0
N383 N 0.45394 0.51367 0.71336 0.0
C384 C 0.44562 0.49805 0.68289 0.0
C385 C 0.43728 0.53036 0.70981 0.0
N386 N 0.42452 0.50444 0.66019 0.0
C387 C 0.41923 0.52473 0.67744 0.0
C388 C 0.4841 0.54145 0.83482 0.0
O389 O 0.52279 0.54188 0.72821 0.0
O390 O 0.48825 0.54032 0.69157 0.0
O391 O 0.47095 0.53342 0.79986 0.0
O392 O 0.50544 0.5359 0.83503 0.0
O393 O 0.47809 0.48848 0.80011 0.0
H394 H 0.43858 0.54615 0.72715 0.0
H395 H 0.45513 0.48259 0.67607 0.0
O396 O 0.51224 0.49101 0.83822 0.0
O397 O 0.52955 0.49644 0.7309 0.0
O398 O 0.49533 0.49579 0.69207 0.0
C399 C 0.51645 0.48937 0.69407 0.0
H400 H 0.60251 0.51794 0.81218 0.0
H401 H 0.40397 0.5354 0.66476 0.0
Co402 Co 0.00287 0.52613 0.78904 0.0
C403 C 0.03457 0.49363 0.84327 0.0
Co404 Co 0.99837 0.49178 0.76695 0.0
C405 C 0.00663 0.56061 0.86542 0.0
C406 C 0.00798 0.57393 0.77511 0.0
N407 N 0.00618 0.55459 0.81084 0.0
N408 N 0.00865 0.58293 0.86518 0.0
C409 C 0.00956 0.59131 0.80828 0.0
H410 H 0.00558 0.54879 0.90463 0.0
H411 H 0.00784 0.57534 0.72791 0.0
C412 C 0.96672 0.52416 0.7125 0.0
N413 N 0.99508 0.46337 0.74488 0.0
C414 C 0.9942 0.4577 0.69002 0.0
C415 C 0.99393 0.44382 0.78004 0.0
N416 N 0.99259 0.43538 0.68944 0.0
C417 C 0.99235 0.42662 0.74619 0.0
C418 C 0.9728 0.50146 0.86148 0.0
O419 O 0.97746 0.53751 0.73983 0.0
O420 O 0.97341 0.50347 0.71764 0.0
O421 O 0.97756 0.486 0.82971 0.0
O422 O 0.98237 0.51995 0.85123 0.0
O423 O 0.02352 0.48038 0.81641 0.0
H424 H 0.99456 0.44213 0.82726 0.0
H425 H 0.9947 0.4698 0.6512 0.0
O426 O 0.02811 0.5144 0.83803 0.0
O427 O 0.02353 0.53197 0.72586 0.0
O428 O 0.019 0.49787 0.70518 0.0
C429 C 0.02842 0.51642 0.6945 0.0
H430 H 0.01072 0.60886 0.79166 0.0
H431 H 0.99169 0.40897 0.76226 0.0
C432 C 0.13567 0.02839 0.46479 0.0
C433 C 0.13598 0.04926 0.43007 0.0
C434 C 0.11848 0.02407 0.50635 0.0
C435 C 0.10104 0.04095 0.51303 0.0
C436 C 0.10091 0.06186 0.47706 0.0
C437 C 0.11848 0.06583 0.43624 0.0
C438 C 0.11934 1.00162 0.5442 0.0
C439 C 0.0824 0.08015 0.48232 0.0
C440 C 0.04673 0.02156 0.5887 0.0
C441 C 0.05016 0.02681 0.64559 0.0
C442 C 0.06291 0.02652 0.54485 0.0
C443 C 0.08316 0.03673 0.55828 0.0
C444 C 0.08667 0.04222 0.61549 0.0
C445 C 0.07005 0.03731 0.6584 0.0
C446 C 0.05842 0.02064 0.48424 0.0
C447 C 0.10815 0.05293 0.63162 0.0
H448 H 0.14938 0.01568 0.46094 0.0
H449 H 0.11864 0.08195 0.40931 0.0
H450 H 0.12114 0.00414 0.59079 0.0
H451 H 0.10308 0.99331 0.53966 0.0
H452 H 0.13385 0.99017 0.53286 0.0
H453 H 0.08423 0.09511 0.44952 0.0
H454 H 0.06522 0.07368 0.4767 0.0
H455 H 0.083 0.08548 0.5266 0.0
H456 H 0.03131 0.01362 0.57826 0.0
H457 H 0.07281 0.0414 0.70223 0.0
H458 H 0.07187 0.00812 0.47285 0.0
H459 H 0.05927 0.03579 0.45167 0.0
H460 H 0.04138 0.01362 0.4803 0.0
H461 H 0.12346 0.04167 0.62503 0.0
H462 H 0.10811 0.05649 0.67773 0.0
H463 H 0.10999 0.0689 0.60271 0.0
C464 C 0.50071 0.1601 0.46626 0.0
C465 C 0.5157 0.1763 0.47912 0.0
C466 C 0.49933 0.13972 0.50307 0.0
C467 C 0.51348 0.1352 0.55368 0.0
C468 C 0.52881 0.15132 0.56665 0.0
C469 C 0.52958 0.17168 0.52963 0.0
C470 C 0.48262 0.12305 0.48792 0.0
C471 C 0.54433 0.14711 0.61988 0.0
C472 C 0.496 0.09179 0.6779 0.0
C473 C 0.50941 0.07259 0.66717 0.0
C474 C 0.4971 0.11224 0.64127 0.0
C475 C 0.51223 0.11364 0.5932 0.0
C476 C 0.52616 0.09443 0.58289 0.0
C477 C 0.52446 0.07412 0.61968 0.0
C478 C 0.48177 0.13224 0.65342 0.0
C479 C 0.5428 0.09529 0.53278 0.0
H480 H 0.49011 0.16326 0.42713 0.0
H481 H 0.54087 0.18417 0.54099 0.0
H482 H 0.49201 0.10693 0.48165 0.0
H483 H 0.47054 0.11945 0.52448 0.0
H484 H 0.47253 0.12922 0.4476 0.0
H485 H 0.55581 0.16103 0.62286 0.0
H486 H 0.53387 0.14501 0.66003 0.0
H487 H 0.55509 0.13129 0.61893 0.0
H488 H 0.4842 0.09073 0.71421 0.0
H489 H 0.53494 0.05939 0.61115 0.0
H490 H 0.47035 0.13789 0.61519 0.0
H491 H 0.4923 0.14648 0.6602 0.0
H492 H 0.47096 0.12842 0.69254 0.0
H493 H 0.53334 0.09968 0.49073 0.0
H494 H 0.55284 0.07905 0.53158 0.0
H495 H 0.55492 0.10861 0.53625 0.0
C496 C 0.35411 0.48629 0.38612 0.0
C497 C 0.33946 0.46851 0.39336 0.0
C498 C 0.37085 0.48854 0.42834 0.0
C499 C 0.37318 0.47246 0.47871 0.0
C500 C 0.36009 0.45325 0.48325 0.0
C501 C 0.34327 0.45154 0.4406 0.0
C502 C 0.38456 0.50921 0.42149 0.0
C503 C 0.36244 0.43547 0.53557 0.0
C504 C 0.4225 0.4803 0.58098 0.0
C505 C 0.41148 0.49372 0.61952 0.0
C506 C 0.41012 0.47218 0.53647 0.0
C507 C 0.38626 0.47782 0.53013 0.0
C508 C 0.37491 0.49038 0.57073 0.0
C509 C 0.38763 0.49802 0.61502 0.0
C510 C 0.42277 0.45849 0.49473 0.0
C511 C 0.34945 0.4967 0.56581 0.0
H512 H 0.35159 0.49918 0.34899 0.0
H513 H 0.33203 0.43774 0.4466 0.0
H514 H 0.37849 0.52059 0.45339 0.0
H515 H 0.40301 0.50462 0.43085 0.0
H516 H 0.38281 0.51859 0.37689 0.0
H517 H 0.35466 0.41973 0.5272 0.0
H518 H 0.38076 0.43154 0.54798 0.0
H519 H 0.35364 0.44179 0.57337 0.0
H520 H 0.44094 0.47695 0.58387 0.0
H521 H 0.37895 0.50791 0.64545 0.0
H522 H 0.42449 0.46896 0.452 0.0
H523 H 0.41305 0.44382 0.48695 0.0
H524 H 0.44025 0.45242 0.51118 0.0
H525 H 0.34566 0.50769 0.52414 0.0
H526 H 0.3431 0.50571 0.60239 0.0
H527 H 0.3397 0.48145 0.56518 0.0
C528 C 0.00756 0.35422 0.44247 0.0
C529 C 0.98875 0.35642 0.40363 0.0
C530 C 0.00917 0.36847 0.48609 0.0
C531 C 0.99154 0.38538 0.49119 0.0
C532 C 0.97307 0.38837 0.45044 0.0
C533 C 0.97189 0.37388 0.40725 0.0
C534 C 0.02918 0.36469 0.52854 0.0
C535 C 0.95401 0.40628 0.45395 0.0
C536 C 0.98116 0.40286 0.64246 0.0
C537 C 0.99192 0.42324 0.63913 0.0
C538 C 0.98082 0.39053 0.5946 0.0
C539 C 0.99152 0.3987 0.5418 0.0
C540 C 0.00228 0.41934 0.53787 0.0
C541 C 0.00232 0.43137 0.58649 0.0
C542 C 0.96904 0.36867 0.6007 0.0
C543 C 0.01396 0.4286 0.48253 0.0
H544 H 0.02053 0.34065 0.44064 0.0
H545 H 0.95745 0.37592 0.37699 0.0
H546 H 0.03727 0.38072 0.53187 0.0
H547 H 0.02296 0.35848 0.57267 0.0
H548 H 0.04245 0.35226 0.5156 0.0
H549 H 0.9419 0.40767 0.41625 0.0
H550 H 0.94423 0.40232 0.49473 0.0
H551 H 0.96123 0.42284 0.45565 0.0
H552 H 0.97279 0.3966 0.68251 0.0
H553 H 0.01094 0.44692 0.58362 0.0
H554 H 0.98152 0.35468 0.59315 0.0
H555 H 0.95524 0.36945 0.56718 0.0
H556 H 0.96139 0.36471 0.64453 0.0
H557 H 0.02804 0.41656 0.47197 0.0
H558 H 0.02123 0.44504 0.48615 0.0
H559 H 0.00157 0.43072 0.44538 0.0
C560 C 0.88417 0.96117 0.09663 0.0
C561 C 0.86614 0.97754 0.09891 0.0
C562 C 0.90206 0.96461 0.05647 0.0
C563 C 0.90161 0.98469 0.017 0.0
C564 C 0.88351 1.00132 0.0195 0.0
C565 C 0.86609 0.9976 0.0607 0.0
C566 C 0.9213 0.94669 0.05581 0.0
C567 C 0.88222 0.02281 0.97768 0.0
C568 C 0.95589 0.00437 0.94184 0.0
C569 C 0.95348 0.99746 0.88633 0.0
C570 C 0.93942 0.99985 0.9852 0.0
C571 C 0.91991 0.98835 0.97263 0.0
C572 C 0.91746 0.98113 0.9169 0.0
C573 C 0.93434 0.98567 0.87449 0.0
C574 C 0.94278 0.00761 0.04426 0.0
C575 C 0.89676 0.969 0.9017 0.0
H576 H 0.88421 0.94566 0.1262 0.0
H577 H 0.85195 0.0101 0.06169 0.0
H578 H 0.92156 0.94008 0.01301 0.0
H579 H 0.93808 0.95398 0.0613 0.0
H580 H 0.91959 0.93245 0.09086 0.0
H581 H 0.86706 0.03408 0.98557 0.0
H582 H 0.89796 0.03201 0.98172 0.0
H583 H 0.88132 0.01885 0.93205 0.0
H584 H 0.97072 0.01335 0.95158 0.0
H585 H 0.93236 0.98027 0.83174 0.0
H586 H 0.94198 0.99323 0.07923 0.0
H587 H 0.92874 0.02012 0.05221 0.0
H588 H 0.95944 0.01536 0.04799 0.0
H589 H 0.89518 0.95367 0.93327 0.0
H590 H 0.89768 0.96405 0.85691 0.0
H591 H 0.88093 0.97995 0.90493 0.0
C592 C 0.50056 0.86407 0.05309 0.0
C593 C 0.48687 0.84747 0.03677 0.0
C594 C 0.50132 0.88499 0.01831 0.0
C595 C 0.48769 0.88953 0.96669 0.0
C596 C 0.47334 0.87301 0.95105 0.0
C597 C 0.47328 0.85213 0.98596 0.0
C598 C 0.51711 0.90201 0.036 0.0
C599 C 0.45821 0.87731 0.89712 0.0
C600 C 0.47588 0.95063 0.90162 0.0
C601 C 0.49132 0.95256 0.855 0.0
C602 C 0.47432 0.93018 0.93792 0.0
C603 C 0.48888 0.91131 0.92814 0.0
C604 C 0.5045 0.91318 0.88113 0.0
C605 C 0.50537 0.9337 0.84481 0.0
C606 C 0.4571 0.92876 0.98675 0.0
C607 C 0.52056 0.89358 0.8697 0.0
H608 H 0.51118 0.86043 0.09215 0.0
H609 H 0.4625 0.83937 0.97361 0.0
H610 H 0.52995 0.90578 0.00131 0.0
H611 H 0.50719 0.91799 0.04086 0.0
H612 H 0.52637 0.89602 0.07771 0.0
H613 H 0.44719 0.86316 0.89268 0.0
H614 H 0.44702 0.89284 0.8984 0.0
H615 H 0.46897 0.87998 0.8576 0.0
H616 H 0.46492 0.96512 0.90965 0.0
H617 H 0.5175 0.93512 0.80923 0.0
H618 H 0.46611 0.92442 0.02943 0.0
H619 H 0.44542 0.9152 0.98194 0.0
H620 H 0.44662 0.94478 0.98761 0.0
H621 H 0.53138 0.88785 0.90899 0.0
H622 H 0.53197 0.89789 0.83202 0.0
H623 H 0.51054 0.87924 0.86084 0.0
C624 C 0.65631 0.51993 0.15309 0.0
C625 C 0.66024 0.54158 0.1659 0.0
C626 C 0.63999 0.51658 0.1108 0.0
C627 C 0.62708 0.53533 0.08123 0.0
C628 C 0.62972 0.55703 0.09729 0.0
C629 C 0.64647 0.55994 0.13907 0.0
C630 C 0.63794 0.49321 0.0945 0.0
C631 C 0.6159 0.57737 0.06774 0.0
C632 C 0.61115 0.53155 0.92356 0.0
C633 C 0.58827 0.52551 0.92775 0.0
C634 C 0.62381 0.53488 0.97312 0.0
C635 C 0.61328 0.5326 0.02852 0.0
C636 C 0.59008 0.52709 0.0333 0.0
C637 C 0.57792 0.5234 0.98301 0.0
C638 C 0.64861 0.54057 0.96614 0.0
C639 C 0.5782 0.52487 0.09158 0.0
H640 H 0.66712 0.50573 0.17323 0.0
H641 H 0.6494 0.57668 0.14924 0.0
H642 H 0.61966 0.48924 0.09242 0.0
H643 H 0.64525 0.49227 0.05046 0.0
H644 H 0.64718 0.48018 0.12594 0.0
H645 H 0.61733 0.59227 0.09131 0.0
H646 H 0.62216 0.58158 0.02257 0.0
H647 H 0.59753 0.57383 0.06462 0.0
H648 H 0.61934 0.53379 0.88147 0.0
H649 H 0.56039 0.51859 0.98743 0.0
H650 H 0.65986 0.5277 0.99307 0.0
H651 H 0.65112 0.55696 0.98192 0.0
H652 H 0.65431 0.54152 0.92004 0.0
H653 H 0.58649 0.51062 0.12098 0.0
H654 H 0.55967 0.52201 0.08739 0.0
H655 H 0.57992 0.54026 0.11287 0.0
C656 C 0.99336 0.66787 0.10244 0.0
C657 C 0.0113 0.66524 0.14393 0.0
C658 C 0.99177 0.65296 0.06042 0.0
C659 C 0.00855 0.63496 0.05951 0.0
C660 C 0.02604 0.63154 0.10299 0.0
C661 C 0.02717 0.64667 0.14465 0.0
C662 C 0.97277 0.65718 0.01508 0.0
C663 C 0.04421 0.61253 0.10387 0.0
C664 C 0.99741 0.58838 0.96627 0.0
C665 C 0.00914 0.59542 0.91479 0.0
C666 C 0.99712 0.60096 0.01389 0.0
C667 C 0.00897 0.62098 0.01018 0.0
C668 C 0.0211 0.62796 0.95864 0.0
C669 C 0.02098 0.61516 0.9117 0.0
C670 C 0.98384 0.593 0.06781 0.0
C671 C 0.03414 0.64907 0.95289 0.0
H672 H 0.98116 0.68227 0.10085 0.0
H673 H 0.0409 0.64426 0.177 0.0
H674 H 0.98017 0.66255 0.97169 0.0
H675 H 0.96401 0.64151 0.01167 0.0
H676 H 0.95979 0.6704 0.0252 0.0
H677 H 0.0554 0.61095 0.14339 0.0
H678 H 0.03615 0.59637 0.10215 0.0
H679 H 0.05513 0.6154 0.06467 0.0
H680 H 0.98799 0.57331 0.96882 0.0
H681 H 0.03036 0.62055 0.87251 0.0
H682 H 0.97007 0.60586 0.07525 0.0
H683 H 0.99534 0.59079 0.10675 0.0
H684 H 0.97591 0.57687 0.06432 0.0
H685 H 0.02219 0.66383 0.95722 0.0
H686 H 0.04302 0.652 0.91033 0.0
H687 H 0.04712 0.64803 0.98852 0.0
C688 C 0.93714 0.16013 0.51636 0.0
C689 C 0.95868 0.1661 0.49477 0.0
C690 C 0.93517 0.14112 0.55778 0.0
C691 C 0.95518 0.12774 0.57716 0.0
C692 C 0.97699 0.13416 0.55695 0.0
C693 C 0.97846 0.15337 0.51655 0.0
C694 C 0.91173 0.135 0.57948 0.0
C695 C 0.99881 0.1204 0.57666 0.0
C696 C 0.96377 0.08552 0.71116 0.0
C697 C 0.96518 0.06542 0.68603 0.0
C698 C 0.95788 0.10606 0.6772 0.0
C699 C 0.95378 0.10642 0.61662 0.0
C700 C 0.95296 0.08596 0.59236 0.0
C701 C 0.9585 0.0656 0.62763 0.0
C702 C 0.95831 0.12744 0.70516 0.0
C703 C 0.94874 0.08563 0.52789 0.0
H704 H 0.92178 0.16991 0.49962 0.0
H705 H 0.99519 0.15826 0.50124 0.0
H706 H 0.90696 0.11955 0.56187 0.0
H707 H 0.91188 0.13135 0.62784 0.0
H708 H 0.89831 0.14859 0.56597 0.0
H709 H 0.00067 0.11904 0.62485 0.0
H710 H 0.99804 0.10311 0.5649 0.0
H711 H 0.01438 0.12778 0.55665 0.0
H712 H 0.96855 0.08538 0.75667 0.0
H713 H 0.95948 0.05007 0.60813 0.0
H714 H 0.94468 0.13999 0.68651 0.0
H715 H 0.97511 0.13489 0.69668 0.0
H716 H 0.95608 0.12422 0.75323 0.0
H717 H 0.9342 0.09756 0.51193 0.0
H718 H 0.94506 0.0686 0.51773 0.0
H719 H 0.96423 0.09098 0.50339 0.0
C720 C 0.35263 0.05969 0.52441 0.0
C721 C 0.33711 0.04385 0.5127 0.0
C722 C 0.37288 0.05308 0.55645 0.0
C723 C 0.37762 0.03011 0.57754 0.0
C724 C 0.36182 0.0141 0.56698 0.0
C725 C 0.34178 0.02115 0.53448 0.0
C726 C 0.38932 0.07064 0.56716 0.0
C727 C 0.36624 0.9895 0.58935 0.0
C728 C 0.44012 0.01229 0.61254 0.0
C729 C 0.44098 0.01365 0.67265 0.0
C730 C 0.4194 0.01701 0.5811 0.0
C731 C 0.39915 0.02294 0.61081 0.0
C732 C 0.39974 0.02321 0.67197 0.0
C733 C 0.42068 0.01868 0.70208 0.0
C734 C 0.41937 0.01661 0.51581 0.0
C735 C 0.37848 0.02918 0.7054 0.0
H736 H 0.34898 0.07727 0.50827 0.0
H737 H 0.33005 0.00877 0.52478 0.0
H738 H 0.39185 0.07075 0.61479 0.0
H739 H 0.40634 0.06652 0.54855 0.0
H740 H 0.38312 0.08778 0.54753 0.0
H741 H 0.35191 0.97929 0.57874 0.0
H742 H 0.38223 0.98283 0.57006 0.0
H743 H 0.36881 0.98734 0.63745 0.0
H744 H 0.45579 0.00847 0.58965 0.0
H745 H 0.4212 0.01958 0.74869 0.0
H746 H 0.41527 0.03383 0.49337 0.0
H747 H 0.40588 0.00586 0.50304 0.0
H748 H 0.43619 0.01029 0.49991 0.0
H749 H 0.37348 0.04732 0.69419 0.0
H750 H 0.38124 0.0257 0.75342 0.0
H751 H 0.36388 0.01966 0.69316 0.0
C752 C 0.52492 0.37644 0.56088 0.0
C753 C 0.54118 0.37387 0.51701 0.0
C754 C 0.52384 0.39547 0.59045 0.0
C755 C 0.53884 0.41279 0.57458 0.0
C756 C 0.55569 0.41016 0.53164 0.0
C757 C 0.55692 0.39057 0.5041 0.0
C758 C 0.50599 0.39739 0.63717 0.0
C759 C 0.57173 0.42845 0.51292 0.0
C760 C 0.51359 0.46942 0.60636 0.0
C761 C 0.52487 0.47188 0.65863 0.0
C762 C 0.51907 0.45091 0.57651 0.0
C763 C 0.53575 0.43416 0.60055 0.0
C764 C 0.54781 0.43701 0.65219 0.0
C765 C 0.54242 0.45604 0.68026 0.0
C766 C 0.50621 0.44877 0.52077 0.0
C767 C 0.56523 0.41924 0.68005 0.0
H768 H 0.51235 0.36402 0.57083 0.0
H769 H 0.56994 0.38862 0.47147 0.0
H770 H 0.51396 0.40215 0.67723 0.0
H771 H 0.49269 0.41081 0.62167 0.0
H772 H 0.4974 0.38146 0.64882 0.0
H773 H 0.58474 0.42329 0.48136 0.0
H774 H 0.56166 0.44364 0.49217 0.0
H775 H 0.58075 0.4333 0.55139 0.0
H776 H 0.50006 0.48173 0.58952 0.0
H777 H 0.55097 0.45781 0.72109 0.0
H778 H 0.49438 0.43496 0.52864 0.0
H779 H 0.51835 0.44448 0.48636 0.0
H780 H 0.49593 0.46446 0.50422 0.0
H781 H 0.55629 0.40411 0.69773 0.0
H782 H 0.57487 0.42509 0.71631 0.0
H783 H 0.57765 0.41406 0.64726 0.0
C784 C 0.117 0.52125 0.43042 0.0
C785 C 0.13897 0.51462 0.45327 0.0
C786 C 0.09867 0.5255 0.46741 0.0
C787 C 0.10239 0.52249 0.52861 0.0
C788 C 0.12486 0.51703 0.5516 0.0
C789 C 0.14298 0.51334 0.51345 0.0
C790 C 0.07507 0.53176 0.44118 0.0
C791 C 0.12946 0.51334 0.61664 0.0
C792 C 0.05626 0.53935 0.6337 0.0
C793 C 0.04615 0.51887 0.64889 0.0
C794 C 0.07427 0.54105 0.59332 0.0
C795 C 0.08247 0.52173 0.56852 0.0
C796 C 0.072 0.50115 0.58294 0.0
C797 C 0.05389 0.50003 0.62252 0.0
C798 C 0.08474 0.56335 0.57791 0.0
C799 C 0.08033 0.48009 0.55778 0.0
H800 H 0.11404 0.5224 0.38369 0.0
H801 H 0.15999 0.50808 0.53094 0.0
H802 H 0.06429 0.51711 0.44907 0.0
H803 H 0.0665 0.54564 0.46211 0.0
H804 H 0.07574 0.53695 0.39331 0.0
H805 H 0.14813 0.51168 0.62716 0.0
H806 H 0.12148 0.52741 0.63788 0.0
H807 H 0.12163 0.49775 0.63587 0.0
H808 H 0.05029 0.55399 0.65377 0.0
H809 H 0.0462 0.48412 0.63396 0.0
H810 H 0.08484 0.56786 0.52979 0.0
H811 H 0.10286 0.5621 0.59326 0.0
H812 H 0.07535 0.5771 0.59776 0.0
H813 H 0.07021 0.46547 0.57334 0.0
H814 H 0.09861 0.47577 0.57003 0.0
H815 H 0.07928 0.48294 0.50939 0.0
C816 C 0.02821 0.86803 0.01549 0.0
C817 C 0.04867 0.8557 0.03354 0.0
C818 C 0.02845 0.88815 0.97786 0.0
C819 C 0.04969 0.89602 0.95715 0.0
C820 C 0.07043 0.88348 0.97445 0.0
C821 C 0.0697 0.8635 0.01306 0.0
C822 C 0.00593 0.90118 0.96106 0.0
C823 C 0.09331 0.8912 0.95237 0.0
C824 C 0.03984 0.93838 0.82318 0.0
C825 C 0.03821 0.95853 0.84808 0.0
C826 C 0.04575 0.91788 0.85739 0.0
C827 C 0.04975 0.91758 0.91801 0.0
C828 C 0.05003 0.93807 0.94233 0.0
C829 C 0.04441 0.95838 0.90685 0.0
C830 C 0.04575 0.89644 0.82955 0.0
C831 C 0.05405 0.93845 0.00686 0.0
H832 H 0.01198 0.8622 0.03211 0.0
H833 H 0.08551 0.8539 0.027 0.0
H834 H 0.00351 0.90315 0.91294 0.0
H835 H 0.99097 0.89282 0.98158 0.0
H836 H 0.00611 0.91828 0.97441 0.0
H837 H 0.10779 0.87913 0.96847 0.0
H838 H 0.09328 0.89343 0.9039 0.0
H839 H 0.09632 0.90777 0.96649 0.0
H840 H 0.03535 0.93847 0.7775 0.0
H841 H 0.04321 0.97392 0.92629 0.0
H842 H 0.02983 0.88784 0.84155 0.0
H843 H 0.06052 0.8848 0.84565 0.0
H844 H 0.04646 0.89971 0.78113 0.0
H845 H 0.03873 0.93257 0.03123 0.0
H846 H 0.05715 0.95559 0.01723 0.0
H847 H 0.06891 0.92692 0.02284 0.0
C848 C 0.66264 0.00589 0.96555 0.0
C849 C 0.66358 0.98926 0.01411 0.0
C850 C 0.64224 0.01139 0.93329 0.0
C851 C 0.62242 0.99975 0.94947 0.0
C852 C 0.62326 0.98287 0.99814 0.0
C853 C 0.64377 0.97796 0.03013 0.0
C854 C 0.6419 0.02957 0.88175 0.0
C855 C 0.60252 0.96988 0.0162 0.0
C856 C 0.5629 0.0231 0.8976 0.0
C857 C 0.55936 0.011 0.85058 0.0
C858 C 0.5837 0.02013 0.92926 0.0
C859 C 0.60103 0.00442 0.91402 0.0
C860 C 0.59761 0.99239 0.86616 0.0
C861 C 0.57691 0.99597 0.83476 0.0
C862 C 0.58701 0.03355 0.97944 0.0
C863 C 0.61554 0.97526 0.84904 0.0
H864 H 0.67793 0.01453 0.9525 0.0
H865 H 0.64417 0.96544 0.0683 0.0
H866 H 0.63833 0.02233 0.84097 0.0
H867 H 0.62792 0.04254 0.88668 0.0
H868 H 0.65842 0.03785 0.87683 0.0
H869 H 0.60604 0.95728 0.05518 0.0
H870 H 0.58803 0.98157 0.02611 0.0
H871 H 0.59687 0.96103 0.9797 0.0
H872 H 0.54943 0.03481 0.90972 0.0
H873 H 0.57428 0.98648 0.79856 0.0
H874 H 0.60312 0.04246 0.97378 0.0
H875 H 0.58869 0.02208 0.02101 0.0
H876 H 0.57249 0.04609 0.98329 0.0
H877 H 0.63196 0.98323 0.83913 0.0
H878 H 0.61021 0.96747 0.81031 0.0
H879 H 0.6189 0.96175 0.88602 0.0
C880 C 0.45062 0.65364 0.96772 0.0
C881 C 0.44692 0.64995 0.02797 0.0
C882 C 0.45283 0.63553 0.93478 0.0
C883 C 0.45109 0.61336 0.96297 0.0
C884 C 0.44516 0.60983 0.02268 0.0
C885 C 0.44328 0.6282 0.05461 0.0
C886 C 0.45913 0.63997 0.87114 0.0
C887 C 0.44277 0.58651 0.05408 0.0
C888 C 0.45172 0.56574 0.86886 0.0
C889 C 0.47507 0.55847 0.87131 0.0
C890 C 0.44346 0.58334 0.89936 0.0
C891 C 0.45895 0.59393 0.93267 0.0
C892 C 0.48241 0.58627 0.93642 0.0
C893 C 0.49016 0.5686 0.90587 0.0
C894 C 0.4183 0.59092 0.89493 0.0
C895 C 0.49951 0.59711 0.97162 0.0
H896 H 0.45357 0.67045 0.94725 0.0
H897 H 0.44023 0.62543 0.10123 0.0
H898 H 0.47745 0.63454 0.86588 0.0
H899 H 0.44876 0.63016 0.84429 0.0
H900 H 0.45662 0.65807 0.85393 0.0
H901 H 0.4344 0.58691 0.09717 0.0
H902 H 0.43264 0.57643 0.02737 0.0
H903 H 0.46004 0.5778 0.06138 0.0
H904 H 0.43995 0.55797 0.84223 0.0
H905 H 0.50821 0.56309 0.90805 0.0
H906 H 0.41626 0.60835 0.87236 0.0
H907 H 0.41096 0.5911 0.93918 0.0
H908 H 0.40824 0.57994 0.87055 0.0
H909 H 0.50024 0.61513 0.9543 0.0
H910 H 0.51707 0.58893 0.97066 0.0
H911 H 0.494 0.59629 0.01778 0.0
C912 C 0.85637 0.50386 0.03394 0.0
C913 C 0.85898 0.50132 0.09495 0.0
C914 C 0.87532 0.50129 0.99761 0.0
C915 C 0.89736 0.49561 0.02288 0.0
C916 C 0.89992 0.49165 0.08435 0.0
C917 C 0.88076 0.49477 0.11965 0.0
C918 C 0.87192 0.50583 0.93217 0.0
C919 C 0.92311 0.48525 0.11289 0.0
C920 C 0.94445 0.47864 0.92064 0.0
C921 C 0.95494 0.499 0.90677 0.0
C922 C 0.92611 0.47701 0.95997 0.0
C923 C 0.91794 0.49625 0.98514 0.0
C924 C 0.92888 0.51665 0.97243 0.0
C925 C 0.94732 0.51772 0.93379 0.0
C926 C 0.91513 0.45487 0.97356 0.0
C927 C 0.9206 0.53763 0.99803 0.0
H928 H 0.83955 0.50839 0.01443 0.0
H929 H 0.8831 0.49299 0.16664 0.0
H930 H 0.88081 0.52106 0.91495 0.0
H931 H 0.87961 0.49165 0.91086 0.0
H932 H 0.85349 0.50851 0.9194 0.0
H933 H 0.92172 0.47974 0.16046 0.0
H934 H 0.93209 0.47154 0.09214 0.0
H935 H 0.93394 0.4999 0.10683 0.0
H936 H 0.95033 0.46409 0.90011 0.0
H937 H 0.95532 0.53354 0.92339 0.0
H938 H 0.89727 0.45647 0.95628 0.0
H939 H 0.91423 0.45018 0.02152 0.0
H940 H 0.92468 0.44108 0.95423 0.0
H941 H 0.93141 0.55197 0.98492 0.0
H942 H 0.92058 0.53434 0.04641 0.0
H943 H 0.90267 0.5426 0.98346 0.0
C944 C 0.98391 0.17777 0.04738 0.0
C945 C 0.99833 0.19572 0.03736 0.0
C946 C 0.98804 0.15804 0.02124 0.0
C947 C 0.00699 0.15613 0.98363 0.0
C948 C 0.02128 0.17441 0.972 0.0
C949 C 0.01689 0.19391 0.99935 0.0
C950 C 0.97254 0.13891 0.03554 0.0
C951 C 0.04146 0.17319 0.93153 0.0
C952 C 0.03156 0.09706 0.96719 0.0
C953 C 0.02128 0.09297 0.91484 0.0
C954 C 0.02718 0.11756 0.98975 0.0
C955 C 0.01239 0.1346 0.95883 0.0
C956 C 0.0022 0.13068 0.90548 0.0
C957 C 0.00661 0.10987 0.8844 0.0
C958 C 0.03812 0.12085 0.04722 0.0
C959 C 0.98657 0.14846 0.87074 0.0
H960 H 0.9698 0.1788 0.07756 0.0
H961 H 0.02806 0.20771 0.99123 0.0
H962 H 0.96542 0.13388 0.99482 0.0
H963 H 0.98259 0.12406 0.05815 0.0
H964 H 0.95805 0.14334 0.06392 0.0
H965 H 0.05 0.18931 0.92403 0.0
H966 H 0.05427 0.15981 0.95027 0.0
H967 H 0.03578 0.16869 0.88879 0.0
H968 H 0.04273 0.084 0.99113 0.0
H969 H 0.99888 0.10695 0.84349 0.0
H970 H 0.02459 0.12396 0.07945 0.0
H971 H 0.0485 0.13582 0.04148 0.0
H972 H 0.04937 0.10605 0.06556 0.0
H973 H 0.97101 0.15197 0.89638 0.0
H974 H 0.98114 0.14333 0.82842 0.0
H975 H 0.99536 0.16438 0.86197 0.0
C976 C 0.32101 0.02835 0.03471 0.0
C977 C 0.31046 0.04827 0.05088 0.0
C978 C 0.34209 0.02837 0.00552 0.0
C979 C 0.35257 0.0489 0.99037 0.0
C980 C 0.34105 0.06927 0.00178 0.0
C981 C 0.32032 0.06871 0.03252 0.0
C982 C 0.35381 0.00626 0.99413 0.0
C983 C 0.35123 0.0916 0.98416 0.0
C984 C 0.41774 0.04729 0.98482 0.0
C985 C 0.42172 0.04712 0.92515 0.0
C986 C 0.39528 0.04779 0.00654 0.0
C987 C 0.37638 0.04885 0.96727 0.0
C988 C 0.38036 0.04945 0.9066 0.0
C989 C 0.40301 0.04814 0.88641 0.0
C990 C 0.39181 0.04666 0.07165 0.0
C991 C 0.3608 0.05117 0.86295 0.0
H992 H 0.31329 0.01252 0.04707 0.0
H993 H 0.31257 0.08424 0.04487 0.0
H994 H 0.35824 0.00678 0.94731 0.0
H995 H 0.37011 0.00325 0.0196 0.0
H996 H 0.34296 0.99188 0.00634 0.0
H997 H 0.33885 0.106 0.98928 0.0
H998 H 0.36662 0.09295 0.01155 0.0
H999 H 0.35684 0.09291 0.93799 0.0
H1000 H 0.43226 0.04631 0.0146 0.0
H1001 H 0.40617 0.04818 0.84013 0.0
H1002 H 0.38206 0.03183 0.08743 0.0
H1003 H 0.38152 0.0618 0.08176 0.0
H1004 H 0.40832 0.04548 0.09628 0.0
H1005 H 0.35358 0.03449 0.86349 0.0
H1006 H 0.36655 0.05664 0.81783 0.0
H1007 H 0.34679 0.06317 0.87416 0.0
C1008 C 0.47655 0.37942 0.09068 0.0
C1009 C 0.48607 0.35887 0.07583 0.0
C1010 C 0.4758 0.39905 0.05049 0.0
C1011 C 0.48491 0.39826 0.99395 0.0
C1012 C 0.49374 0.37745 0.97781 0.0
C1013 C 0.4942 0.35803 0.01887 0.0
C1014 C 0.46622 0.42086 0.06955 0.0
C1015 C 0.50356 0.37587 0.9179 0.0
C1016 C 0.47122 0.44787 0.87627 0.0
C1017 C 0.49094 0.46006 0.87822 0.0
C1018 C 0.46899 0.42771 0.91349 0.0
C1019 C 0.48689 0.4195 0.95357 0.0
C1020 C 0.50677 0.43178 0.95584 0.0
C1021 C 0.50854 0.45185 0.91829 0.0
C1022 C 0.4475 0.41515 0.90988 0.0
C1023 C 0.52627 0.42369 0.99793 0.0
H1024 H 0.47058 0.38046 0.13475 0.0
H1025 H 0.50134 0.34222 0.00667 0.0
H1026 H 0.48027 0.43236 0.07209 0.0
H1027 H 0.45346 0.42935 0.03709 0.0
H1028 H 0.45789 0.41831 0.11292 0.0
H1029 H 0.50809 0.35822 0.91056 0.0
H1030 H 0.4911 0.38352 0.88363 0.0
H1031 H 0.51926 0.38544 0.91256 0.0
H1032 H 0.45756 0.45401 0.84538 0.0
H1033 H 0.52387 0.46107 0.92019 0.0
H1034 H 0.43887 0.4134 0.95285 0.0
H1035 H 0.45202 0.39793 0.89925 0.0
H1036 H 0.43516 0.42371 0.87635 0.0
H1037 H 0.51996 0.42225 0.04348 0.0
H1038 H 0.5406 0.43513 0.99407 0.0
H1039 H 0.53306 0.40672 0.98987 0.0
C1040 C 0.16084 0.46278 0.97416 0.0
C1041 C 0.16035 0.45432 0.03359 0.0
C1042 C 0.14045 0.46704 0.94099 0.0
C1043 C 0.11911 0.46285 0.96805 0.0
C1044 C 0.11862 0.4532 0.02713 0.0
C1045 C 0.13922 0.44906 0.05915 0.0
C1046 C 0.14167 0.4771 0.87785 0.0
C1047 C 0.09623 0.44854 0.05766 0.0
C1048 C 0.06695 0.49967 0.90957 0.0
C1049 C 0.0556 0.48531 0.87726 0.0
C1050 C 0.0876 0.49251 0.93929 0.0
C1051 C 0.09723 0.47047 0.93644 0.0
C1052 C 0.0858 0.45581 0.90432 0.0
C1053 C 0.06506 0.46338 0.87523 0.0
C1054 C 0.09917 0.5086 0.97356 0.0
C1055 C 0.09557 0.43222 0.90027 0.0
H1056 H 0.17711 0.46671 0.95406 0.0
H1057 H 0.13857 0.44291 0.10528 0.0
H1058 H 0.13136 0.46768 0.84982 0.0
H1059 H 0.13426 0.49469 0.87294 0.0
H1060 H 0.15959 0.47713 0.86169 0.0
H1061 H 0.09891 0.43891 0.10175 0.0
H1062 H 0.08657 0.46467 0.06248 0.0
H1063 H 0.08536 0.43897 0.03135 0.0
H1064 H 0.05976 0.51663 0.91141 0.0
H1065 H 0.05646 0.4522 0.8501 0.0
H1066 H 0.11663 0.51141 0.95633 0.0
H1067 H 0.10117 0.50126 0.02 0.0
H1068 H 0.08937 0.52511 0.97164 0.0
H1069 H 0.1129 0.43275 0.88065 0.0
H1070 H 0.08455 0.4229 0.87357 0.0
H1071 H 0.09759 0.42274 0.94461 0.0
C1072 C 0.01787 0.8331 0.54212 0.0
C1073 C 0.00164 0.82644 0.50353 0.0
C1074 C 0.01348 0.85213 0.57113 0.0
C1075 C 0.99209 0.86459 0.56278 0.0
C1076 C 0.97492 0.85688 0.52798 0.0
C1077 C 0.97995 0.8381 0.49837 0.0
C1078 C 0.03239 0.85979 0.60737 0.0
C1079 C 0.95168 0.86932 0.51892 0.0
C1080 C 0.97714 0.9109 0.6586 0.0
C1081 C 0.98188 0.93019 0.6209 0.0
C1082 C 0.9802 0.88936 0.64045 0.0
C1083 C 0.98877 0.8871 0.58386 0.0
C1084 C 0.99413 0.90657 0.54639 0.0
C1085 C 0.99039 0.92781 0.56512 0.0
C1086 C 0.97382 0.86911 0.68124 0.0
C1087 C 0.00385 0.90501 0.48631 0.0
H1088 H 0.03445 0.82394 0.54798 0.0
H1089 H 0.96723 0.83339 0.4686 0.0
H1090 H 0.03891 0.87548 0.58447 0.0
H1091 H 0.02578 0.86368 0.65021 0.0
H1092 H 0.047 0.847 0.61501 0.0
H1093 H 0.93915 0.85938 0.49853 0.0
H1094 H 0.94472 0.8736 0.56112 0.0
H1095 H 0.9534 0.88532 0.49003 0.0
H1096 H 0.9705 0.91277 0.70165 0.0
H1097 H 0.99444 0.94268 0.53631 0.0
H1098 H 0.98875 0.85674 0.68864 0.0
H1099 H 0.95998 0.86069 0.66105 0.0
H1100 H 0.96783 0.87363 0.72416 0.0
H1101 H 0.01971 0.89373 0.48965 0.0
H1102 H 0.00801 0.92166 0.46356 0.0
H1103 H 0.99134 0.89765 0.45905 0.0
C1104 C 0.6801 0.95484 0.4913 0.0
C1105 C 0.69038 0.97528 0.47599 0.0
C1106 C 0.65935 0.95401 0.52201 0.0
C1107 C 0.64827 0.97416 0.53643 0.0
C1108 C 0.65922 0.9946 0.52448 0.0
C1109 C 0.68031 0.99482 0.49541 0.0
C1110 C 0.64862 0.93175 0.53579 0.0
C1111 C 0.6479 0.01652 0.5386 0.0
C1112 C 0.58306 0.97757 0.53945 0.0
C1113 C 0.57882 0.9767 0.59927 0.0
C1114 C 0.60561 0.97673 0.51851 0.0
C1115 C 0.62433 0.97429 0.55863 0.0
C1116 C 0.62007 0.97266 0.61935 0.0
C1117 C 0.59733 0.97423 0.63889 0.0
C1118 C 0.60941 0.97904 0.45337 0.0
C1119 C 0.63949 0.96932 0.66356 0.0
H1120 H 0.68747 0.9396 0.47644 0.0
H1121 H 0.68838 0.0106 0.48546 0.0
H1122 H 0.64212 0.92974 0.58118 0.0
H1123 H 0.63376 0.93112 0.50608 0.0
H1124 H 0.66096 0.91735 0.53045 0.0
H1125 H 0.65937 0.03065 0.53035 0.0
H1126 H 0.63214 0.0207 0.51138 0.0
H1127 H 0.64258 0.01502 0.58494 0.0
H1128 H 0.56867 0.97967 0.50903 0.0
H1129 H 0.59394 0.97333 0.68526 0.0
H1130 H 0.61935 0.96398 0.44152 0.0
H1131 H 0.61963 0.99378 0.43997 0.0
H1132 H 0.59301 0.98116 0.4281 0.0
H1133 H 0.65063 0.95428 0.65659 0.0
H1134 H 0.63322 0.96721 0.70921 0.0
H1135 H 0.65035 0.98394 0.65782 0.0
C1136 C 0.53211 0.65996 0.47213 0.0
C1137 C 0.51201 0.67417 0.46304 0.0
C1138 C 0.5327 0.64018 0.51179 0.0
C1139 C 0.51308 0.63487 0.54542 0.0
C1140 C 0.49344 0.65003 0.54029 0.0
C1141 C 0.49297 0.66923 0.49859 0.0
C1142 C 0.55387 0.6243 0.51508 0.0
C1143 C 0.47243 0.64545 0.57691 0.0
C1144 C 0.50146 0.57391 0.59609 0.0
C1145 C 0.50988 0.57111 0.65357 0.0
C1146 C 0.50308 0.59436 0.55994 0.0
C1147 C 0.51246 0.61275 0.58269 0.0
C1148 C 0.52081 0.61001 0.64103 0.0
C1149 C 0.51981 0.58906 0.67544 0.0
C1150 C 0.49466 0.59632 0.49746 0.0
C1151 C 0.53004 0.62939 0.66773 0.0
H1152 H 0.54724 0.66382 0.44667 0.0
H1153 H 0.4772 0.67971 0.49218 0.0
H1154 H 0.56 0.62017 0.56091 0.0
H1155 H 0.54958 0.60831 0.49942 0.0
H1156 H 0.56811 0.63137 0.48823 0.0
H1157 H 0.45999 0.6603 0.57396 0.0
H1158 H 0.46368 0.63128 0.56194 0.0
H1159 H 0.47739 0.64048 0.62342 0.0
H1160 H 0.49379 0.55999 0.57926 0.0
H1161 H 0.52598 0.58697 0.72029 0.0
H1162 H 0.50834 0.60247 0.46731 0.0
H1163 H 0.47975 0.60874 0.49075 0.0
H1164 H 0.48939 0.58003 0.48536 0.0
H1165 H 0.54448 0.63629 0.64157 0.0
H1166 H 0.5361 0.62442 0.71347 0.0
H1167 H 0.51642 0.64313 0.66729 0.0
C1168 C 0.83993 0.54376 0.58599 0.0
C1169 C 0.8388 0.55434 0.52829 0.0
C1170 C 0.86055 0.54193 0.6182 0.0
C1171 C 0.88054 0.55067 0.59173 0.0
C1172 C 0.87912 0.56263 0.53486 0.0
C1173 C 0.85824 0.56438 0.50388 0.0
C1174 C 0.86129 0.52937 0.67915 0.0
C1175 C 0.90005 0.57208 0.50494 0.0
C1176 C 0.9339 0.55252 0.68592 0.0
C1177 C 0.94569 0.53206 0.6782 0.0
C1178 C 0.91273 0.559 0.65764 0.0
C1179 C 0.90334 0.54479 0.62041 0.0
C1180 C 0.91556 0.52448 0.61109 0.0
C1181 C 0.9365 0.51832 0.6403 0.0
C1182 C 0.90013 0.58071 0.66884 0.0
C1183 C 0.9063 0.50899 0.57106 0.0
H1184 H 0.82488 0.53615 0.60513 0.0
H1185 H 0.85757 0.57234 0.45902 0.0
H1186 H 0.87102 0.51294 0.6789 0.0
H1187 H 0.87032 0.53888 0.70955 0.0
H1188 H 0.84383 0.52625 0.69616 0.0
H1189 H 0.8955 0.58341 0.46419 0.0
H1190 H 0.90962 0.5815 0.53449 0.0
H1191 H 0.91178 0.55807 0.49365 0.0
H1192 H 0.94086 0.56315 0.71545 0.0
H1193 H 0.94558 0.50255 0.63389 0.0
H1194 H 0.88365 0.57704 0.69084 0.0
H1195 H 0.8959 0.59136 0.62692 0.0
H1196 H 0.91028 0.59041 0.69663 0.0
H1197 H 0.88976 0.50281 0.58799 0.0
H1198 H 0.91834 0.49426 0.56685 0.0
H1199 H 0.90286 0.51826 0.52692 0.0
loop_
_geom_bond_atom_site_label_1
_geom_bond_atom_site_label_2
_geom_bond_distance
_geom_bond_site_symmetry_2
_ccdc_geom_bond_type
C0 C1 1.386 . S
C0 C2 1.397 . S
C0 H24 0.931 . S
C1 C0 1.386 . S
C1 C5 1.397 1_556 S
C2 C0 1.397 . S
C2 C3 1.384 1_556 S
C2 H25 0.930 . S
C3 C2 1.384 1_554 S
C3 C4 1.377 . S
C3 C6 1.481 . S
C4 C3 1.377 . S
C4 C5 1.389 . S
C4 H26 0.929 . S
C5 C1 1.397 1_554 S
C5 C4 1.389 . S
C5 H27 0.931 . S
C6 C3 1.481 . S
C6 C7 1.387 . S
C6 C11 1.390 . S
C7 C6 1.387 . S
C7 C8 1.401 . S
C7 H28 0.930 . S
C8 C7 1.401 . S
C8 C9 1.376 . S
C8 C17 1.511 . S
C9 C8 1.376 . S
C9 C10 1.392 . S
C9 H30 0.931 . S
C10 C9 1.392 . S
C10 C11 1.361 . S
C10 C12 1.500 . S
C11 C6 1.390 . S
C11 C10 1.361 . S
C11 H29 0.931 . S
C12 C10 1.500 . S
C12 C13 1.371 . S
C12 C14 1.365 . S
C13 C12 1.371 . S
C13 C23 1.386 . S
C13 H31 0.931 . S
C14 C12 1.365 . S
C14 C15 1.409 . S
C14 H32 0.929 . S
C15 C14 1.409 . S
C15 C16 1.380 . S
C15 H33 0.930 . S
C16 C15 1.380 . S
C16 C23 1.357 . S
C17 C8 1.511 . S
C17 C18 1.341 . S
C17 C19 1.371 . S
C18 C17 1.341 . S
C18 C22 1.394 . S
C18 H34 0.930 . S
C19 C17 1.371 . S
C19 C20 1.392 . S
C19 H35 0.931 . S
C20 C19 1.392 . S
C20 C21 1.331 . S
C20 H38 0.932 . S
C21 C20 1.331 . S
C21 C22 1.336 . S
C22 C18 1.394 . S
C22 C21 1.336 . S
C22 H37 0.929 1_554 S
C23 C13 1.386 . S
C23 C16 1.357 . S
C23 H36 0.928 . S
H24 C0 0.931 . S
H25 C2 0.930 . S
H26 C4 0.929 . S
H27 C5 0.931 . S
H28 C7 0.930 . S
H29 C11 0.931 . S
H30 C9 0.931 . S
H31 C13 0.931 . S
H32 C14 0.929 . S
H33 C15 0.930 . S
H34 C18 0.930 . S
H35 C19 0.931 . S
H36 C23 0.928 . S
H37 C22 0.929 1_556 S
H38 C20 0.932 . S
C39 C40 1.395 . S
C39 C41 1.397 . S
C39 H63 0.931 . S
C40 C39 1.395 . S
C40 C44 1.389 1_655 S
C41 C39 1.397 . S
C41 C42 1.389 1_556 S
C41 H64 0.930 . S
C42 C41 1.389 1_554 S
C42 C43 1.372 1_655 S
C42 C45 1.479 . S
C43 C42 1.372 1_455 S
C43 C44 1.389 1_554 S
C43 H65 0.929 . S
C44 C40 1.389 1_455 S
C44 C43 1.389 1_556 S
C44 H66 0.931 . S
C45 C42 1.479 . S
C45 C46 1.390 . S
C45 C50 1.390 . S
C46 C45 1.390 . S
C46 C47 1.401 . S
C46 H67 0.930 . S
C47 C46 1.401 . S
C47 C48 1.376 . S
C47 C56 1.515 . S
C48 C47 1.376 . S
C48 C49 1.389 . S
C48 H69 0.936 . S
C49 C48 1.389 . S
C49 C50 1.362 . S
C49 C51 1.499 1_655 S
C50 C45 1.390 . S
C50 C49 1.362 . S
C50 H68 0.931 . S
C51 C49 1.499 1_455 S
C51 C52 1.361 1_455 S
C51 C53 1.376 . S
C52 C51 1.361 1_655 S
C52 C62 1.386 . S
C52 H70 0.931 . S
C53 C51 1.376 . S
C53 C54 1.409 . S
C53 H71 0.929 . S
C54 C53 1.409 . S
C54 C55 1.379 . S
C54 H72 0.930 . S
C55 C54 1.379 . S
C55 C62 1.358 1_455 S
C56 C47 1.515 . S
C56 C57 1.341 . S
C56 C58 1.371 1_655 S
C57 C56 1.341 . S
C57 C61 1.394 . S
C57 H73 0.930 . S
C58 C56 1.371 1_455 S
C58 C59 1.392 . S
C58 H74 0.931 . S
C59 C58 1.392 . S
C59 C60 1.322 1_455 S
C59 H77 0.932 . S
C60 C59 1.322 1_655 S
C60 C61 1.344 . S
C61 C57 1.394 . S
C61 C60 1.344 . S
C61 H76 0.929 . S
C62 C52 1.386 . S
C62 C55 1.358 1_655 S
C62 H75 0.928 . S
H63 C39 0.931 . S
H64 C41 0.930 . S
H65 C43 0.929 . S
H66 C44 0.931 . S
H67 C46 0.930 . S
H68 C50 0.931 . S
H69 C48 0.936 . S
H70 C52 0.931 . S
H71 C53 0.929 . S
H72 C54 0.930 . S
H73 C57 0.930 . S
H74 C58 0.931 . S
H75 C62 0.928 . S
H76 C61 0.929 . S
H77 C59 0.932 . S
C78 C79 1.386 . S
C78 C80 1.397 . S
C78 H102 0.931 . S
C79 C78 1.386 . S
C79 C83 1.397 . S
C80 C78 1.397 . S
C80 C81 1.384 1_556 S
C80 H103 0.930 . S
C81 C80 1.384 1_554 S
C81 C82 1.377 . S
C81 C84 1.481 . S
C82 C81 1.377 . S
C82 C83 1.389 1_554 S
C82 H104 0.929 . S
C83 C79 1.397 . S
C83 C82 1.389 1_556 S
C83 H105 0.931 . S
C84 C81 1.481 . S
C84 C85 1.387 . S
C84 C89 1.390 . S
C85 C84 1.387 . S
C85 C86 1.401 . S
C85 H106 0.930 . S
C86 C85 1.401 . S
C86 C87 1.376 . S
C86 C95 1.511 . S
C87 C86 1.376 . S
C87 C88 1.392 . S
C87 H108 0.931 . S
C88 C87 1.392 . S
C88 C89 1.361 . S
C88 C90 1.500 . S
C89 C84 1.390 . S
C89 C88 1.361 . S
C89 H107 0.931 . S
C90 C88 1.500 . S
C90 C91 1.371 . S
C90 C92 1.365 . S
C91 C90 1.371 . S
C91 C101 1.386 . S
C91 H109 0.931 . S
C92 C90 1.365 . S
C92 C93 1.409 . S
C92 H110 0.929 . S
C93 C92 1.409 . S
C93 C94 1.380 . S
C93 H111 0.930 . S
C94 C93 1.380 . S
C94 C101 1.357 . S
C95 C86 1.511 . S
C95 C96 1.341 . S
C95 C97 1.371 . S
C96 C95 1.341 . S
C96 C100 1.394 . S
C96 H112 0.930 1_554 S
C97 C95 1.371 . S
C97 C98 1.392 . S
C97 H113 0.931 . S
C98 C97 1.392 . S
C98 C99 1.331 . S
C98 H116 0.932 . S
C99 C98 1.331 . S
C99 C100 1.336 . S
C100 C96 1.394 . S
C100 C99 1.336 . S
C100 H115 0.929 1_554 S
C101 C91 1.386 . S
C101 C94 1.357 . S
C101 H114 0.928 . S
H102 C78 0.931 . S
H103 C80 0.930 . S
H104 C82 0.929 . S
H105 C83 0.931 . S
H106 C85 0.930 . S
H107 C89 0.931 . S
H108 C87 0.931 . S
H109 C91 0.931 . S
H110 C92 0.929 . S
H111 C93 0.930 . S
H112 C96 0.930 1_556 S
H113 C97 0.931 . S
H114 C101 0.928 . S
H115 C100 0.929 1_556 S
H116 C98 0.932 . S
C117 C118 1.386 . S
C117 C119 1.397 . S
C117 H141 0.931 . S
C118 C117 1.386 . S
C118 C122 1.397 . S
C119 C117 1.397 . S
C119 C120 1.384 . S
C119 H142 0.930 . S
C120 C119 1.384 . S
C120 C121 1.377 . S
C120 C123 1.481 . S
C121 C120 1.377 . S
C121 C122 1.389 . S
C121 H143 0.929 . S
C122 C118 1.397 . S
C122 C121 1.389 . S
C122 H144 0.931 . S
C123 C120 1.481 . S
C123 C124 1.387 . S
C123 C128 1.390 . S
C124 C123 1.387 . S
C124 C125 1.401 . S
C124 H145 0.930 . S
C125 C124 1.401 . S
C125 C126 1.376 . S
C125 C134 1.511 . S
C126 C125 1.376 . S
C126 C127 1.392 . S
C126 H147 0.931 . S
C127 C126 1.392 . S
C127 C128 1.361 . S
C127 C129 1.500 . S
C128 C123 1.390 . S
C128 C127 1.361 . S
C128 H146 0.931 . S
C129 C127 1.500 . S
C129 C130 1.371 1_554 S
C129 C131 1.365 . S
C130 C129 1.371 1_556 S
C130 C140 1.386 . S
C130 H148 0.931 . S
C131 C129 1.365 . S
C131 C132 1.409 . S
C131 H149 0.929 . S
C132 C131 1.409 . S
C132 C133 1.380 1_554 S
C132 H150 0.930 . S
C133 C132 1.380 1_556 S
C133 C140 1.357 . S
C134 C125 1.511 . S
C134 C135 1.341 . S
C134 C136 1.371 . S
C135 C134 1.341 . S
C135 C139 1.394 . S
C135 H151 0.930 . S
C136 C134 1.371 . S
C136 C137 1.392 . S
C136 H152 0.931 . S
C137 C136 1.392 . S
C137 C138 1.331 . S
C137 H155 0.932 1_554 S
C138 C137 1.331 . S
C138 C139 1.336 . S
C139 C135 1.394 . S
C139 C138 1.336 . S
C139 H154 0.929 . S
C140 C130 1.386 . S
C140 C133 1.357 . S
C140 H153 0.928 . S
H141 C117 0.931 . S
H142 C119 0.930 . S
H143 C121 0.929 . S
H144 C122 0.931 . S
H145 C124 0.930 . S
H146 C128 0.931 . S
H147 C126 0.931 . S
H148 C130 0.931 . S
H149 C131 0.929 . S
H150 C132 0.930 . S
H151 C135 0.930 . S
H152 C136 0.931 . S
H153 C140 0.928 . S
H154 C139 0.929 . S
H155 C137 0.932 1_556 S
C156 C157 1.386 . S
C156 C158 1.397 . S
C156 H180 0.931 . S
C157 C156 1.386 . S
C157 C161 1.397 . S
C158 C156 1.397 . S
C158 C159 1.384 . S
C158 H181 0.930 . S
C159 C158 1.384 . S
C159 C160 1.377 . S
C159 C162 1.481 . S
C160 C159 1.377 . S
C160 C161 1.389 . S
C160 H182 0.929 . S
C161 C157 1.397 . S
C161 C160 1.389 . S
C161 H183 0.931 . S
C162 C159 1.481 . S
C162 C163 1.387 . S
C162 C167 1.390 . S
C163 C162 1.387 . S
C163 C164 1.401 . S
C163 H184 0.930 . S
C164 C163 1.401 . S
C164 C165 1.376 . S
C164 C173 1.511 . S
C165 C164 1.376 . S
C165 C166 1.392 . S
C165 H186 0.931 . S
C166 C165 1.392 . S
C166 C167 1.361 . S
C166 C168 1.500 . S
C167 C162 1.390 . S
C167 C166 1.361 . S
C167 H185 0.931 . S
C168 C166 1.500 . S
C168 C169 1.371 . S
C168 C170 1.365 . S
C169 C168 1.371 . S
C169 C179 1.386 . S
C169 H187 0.931 . S
C170 C168 1.365 . S
C170 C171 1.409 . S
C170 H188 0.929 . S
C171 C170 1.409 . S
C171 C172 1.380 . S
C171 H189 0.930 . S
C172 C171 1.380 . S
C172 C179 1.357 . S
C173 C164 1.511 . S
C173 C174 1.341 . S
C173 C175 1.371 . S
C174 C173 1.341 . S
C174 C178 1.394 . S
C174 H190 0.930 . S
C175 C173 1.371 . S
C175 C176 1.392 . S
C175 H191 0.931 . S
C176 C175 1.392 . S
C176 C177 1.331 . S
C176 H194 0.932 . S
C177 C176 1.331 . S
C177 C178 1.336 . S
C178 C174 1.394 . S
C178 C177 1.336 . S
C178 H193 0.929 . S
C179 C169 1.386 . S
C179 C172 1.357 . S
C179 H192 0.928 . S
H180 C156 0.931 . S
H181 C158 0.930 . S
H182 C160 0.929 . S
H183 C161 0.931 . S
H184 C163 0.930 . S
H185 C167 0.931 . S
H186 C165 0.931 . S
H187 C169 0.931 . S
H188 C170 0.929 . S
H189 C171 0.930 . S
H190 C174 0.930 . S
H191 C175 0.931 . S
H192 C179 0.928 . S
H193 C178 0.929 . S
H194 C176 0.932 . S
C195 C196 1.387 . S
C195 C197 1.397 . S
C195 H219 0.931 . S
C196 C195 1.387 . S
C196 C200 1.396 1_655 S
C197 C195 1.397 . S
C197 C198 1.382 . S
C197 H220 0.930 . S
C198 C197 1.382 . S
C198 C199 1.379 1_655 S
C198 C201 1.482 . S
C199 C198 1.379 1_455 S
C199 C200 1.389 . S
C199 H221 0.929 . S
C200 C196 1.396 1_455 S
C200 C199 1.389 . S
C200 H222 0.931 . S
C201 C198 1.482 . S
C201 C202 1.387 . S
C201 C206 1.390 . S
C202 C201 1.387 . S
C202 C203 1.403 . S
C202 H223 0.930 . S
C203 C202 1.403 . S
C203 C204 1.376 . S
C203 C212 1.511 . S
C204 C203 1.376 . S
C204 C205 1.393 1_655 S
C204 H225 0.932 . S
C205 C204 1.393 1_455 S
C205 C206 1.361 1_455 S
C205 C207 1.499 . S
C206 C201 1.390 . S
C206 C205 1.361 1_655 S
C206 H224 0.931 . S
C207 C205 1.499 . S
C207 C208 1.358 1_455 S
C207 C209 1.379 . S
C208 C207 1.358 1_655 S
C208 C218 1.386 . S
C208 H226 0.931 . S
C209 C207 1.379 . S
C209 C210 1.409 . S
C209 H227 0.929 . S
C210 C209 1.409 . S
C210 C211 1.384 . S
C210 H228 0.930 . S
C211 C210 1.384 . S
C211 C218 1.354 1_455 S
C212 C203 1.511 . S
C212 C213 1.341 . S
C212 C214 1.371 1_655 S
C213 C212 1.341 . S
C213 C217 1.394 . S
C213 H229 0.930 . S
C214 C212 1.371 1_455 S
C214 C215 1.392 . S
C214 H230 0.931 . S
C215 C214 1.392 . S
C215 C216 1.326 1_455 S
C215 H233 0.932 . S
C216 C215 1.326 1_655 S
C216 C217 1.342 . S
C217 C213 1.394 . S
C217 C216 1.342 . S
C217 H232 0.929 . S
C218 C208 1.386 . S
C218 C211 1.354 1_655 S
C218 H231 0.928 . S
H219 C195 0.931 . S
H220 C197 0.930 . S
H221 C199 0.929 . S
H222 C200 0.931 . S
H223 C202 0.930 . S
H224 C206 0.931 . S
H225 C204 0.932 . S
H226 C208 0.931 . S
H227 C209 0.929 . S
H228 C210 0.930 . S
H229 C213 0.930 . S
H230 C214 0.931 . S
H231 C218 0.928 . S
H232 C217 0.929 . S
H233 C215 0.932 . S
C234 C235 1.386 . S
C234 C236 1.397 . S
C234 H258 0.931 . S
C235 C234 1.386 . S
C235 C239 1.397 . S
C236 C234 1.397 . S
C236 C237 1.384 . S
C236 H259 0.930 . S
C237 C236 1.384 . S
C237 C238 1.377 . S
C237 C240 1.481 . S
C238 C237 1.377 . S
C238 C239 1.389 . S
C238 H260 0.929 . S
C239 C235 1.397 . S
C239 C238 1.389 . S
C239 H261 0.931 . S
C240 C237 1.481 . S
C240 C241 1.387 . S
C240 C245 1.390 . S
C241 C240 1.387 . S
C241 C242 1.401 . S
C241 H262 0.930 . S
C242 C241 1.401 . S
C242 C243 1.376 . S
C242 C251 1.511 . S
C243 C242 1.376 . S
C243 C244 1.392 . S
C243 H264 0.931 . S
C244 C243 1.392 . S
C244 C245 1.361 . S
C244 C246 1.500 . S
C245 C240 1.390 . S
C245 C244 1.361 . S
C245 H263 0.931 . S
C246 C244 1.500 . S
C246 C247 1.371 . S
C246 C248 1.365 . S
C247 C246 1.371 . S
C247 C257 1.386 . S
C247 H265 0.931 . S
C248 C246 1.365 . S
C248 C249 1.409 . S
C248 H266 0.929 . S
C249 C248 1.409 . S
C249 C250 1.380 . S
C249 H267 0.930 . S
C250 C249 1.380 . S
C250 C257 1.357 . S
C251 C242 1.511 . S
C251 C252 1.341 . S
C251 C253 1.371 . S
C252 C251 1.341 . S
C252 C256 1.394 . S
C252 H268 0.930 . S
C253 C251 1.371 . S
C253 C254 1.392 . S
C253 H269 0.931 . S
C254 C253 1.392 . S
C254 C255 1.331 . S
C254 H272 0.932 . S
C255 C254 1.331 . S
C255 C256 1.336 . S
C256 C252 1.394 . S
C256 C255 1.336 . S
C256 H271 0.929 . S
C257 C247 1.386 . S
C257 C250 1.357 . S
C257 H270 0.928 . S
H258 C234 0.931 . S
H259 C236 0.930 . S
H260 C238 0.929 . S
H261 C239 0.931 . S
H262 C241 0.930 . S
H263 C245 0.931 . S
H264 C243 0.931 . S
H265 C247 0.931 . S
H266 C248 0.929 . S
H267 C249 0.930 . S
H268 C252 0.930 . S
H269 C253 0.931 . S
H270 C257 0.928 . S
H271 C256 0.929 . S
H272 C254 0.932 . S
C273 C274 1.386 . S
C273 C275 1.397 . S
C273 H297 0.931 . S
C274 C273 1.386 . S
C274 C278 1.397 . S
C275 C273 1.397 . S
C275 C276 1.384 . S
C275 H298 0.930 . S
C276 C275 1.384 . S
C276 C277 1.377 . S
C276 C279 1.481 . S
C277 C276 1.377 . S
C277 C278 1.389 . S
C277 H299 0.929 . S
C278 C274 1.397 . S
C278 C277 1.389 . S
C278 H300 0.931 . S
C279 C276 1.481 . S
C279 C280 1.387 . S
C279 C284 1.390 . S
C280 C279 1.387 . S
C280 C281 1.401 . S
C280 H301 0.930 . S
C281 C280 1.401 . S
C281 C282 1.376 . S
C281 C290 1.511 . S
C282 C281 1.376 . S
C282 C283 1.392 . S
C282 H303 0.931 . S
C283 C282 1.392 . S
C283 C284 1.361 . S
C283 C285 1.500 . S
C284 C279 1.390 . S
C284 C283 1.361 . S
C284 H302 0.931 . S
C285 C283 1.500 . S
C285 C286 1.371 . S
C285 C287 1.365 . S
C286 C285 1.371 . S
C286 C296 1.386 . S
C286 H304 0.931 . S
C287 C285 1.365 . S
C287 C288 1.409 . S
C287 H305 0.929 . S
C288 C287 1.409 . S
C288 C289 1.380 . S
C288 H306 0.930 . S
C289 C288 1.380 . S
C289 C296 1.357 . S
C290 C281 1.511 . S
C290 C291 1.341 . S
C290 C292 1.371 . S
C291 C290 1.341 . S
C291 C295 1.394 . S
C291 H307 0.930 . S
C292 C290 1.371 . S
C292 C293 1.392 . S
C292 H308 0.931 . S
C293 C292 1.392 . S
C293 C294 1.331 . S
C293 H311 0.932 . S
C294 C293 1.331 . S
C294 C295 1.336 . S
C295 C291 1.394 . S
C295 C294 1.336 . S
C295 H310 0.929 . S
C296 C286 1.386 . S
C296 C289 1.357 . S
C296 H309 0.928 . S
H297 C273 0.931 . S
H298 C275 0.930 . S
H299 C277 0.929 . S
H300 C278 0.931 . S
H301 C280 0.930 . S
H302 C284 0.931 . S
H303 C282 0.931 . S
H304 C286 0.931 . S
H305 C287 0.929 . S
H306 C288 0.930 . S
H307 C291 0.930 . S
H308 C292 0.931 . S
H309 C296 0.928 . S
H310 C295 0.929 . S
H311 C293 0.932 . S
Co312 N317 2.057 . S
Co312 O329 2.021 . S
Co312 O332 2.062 1_455 S
Co312 O336 2.117 1_455 S
Co312 O337 2.020 1_545 S
C313 O333 1.259 1_545 S
C313 O336 1.258 . S
Co314 N323 2.057 . S
Co314 O330 2.117 1_665 S
Co314 O331 2.020 1_565 S
Co314 O333 2.021 . S
Co314 O338 2.062 1_655 S
C315 N317 1.316 . S
C315 N318 1.347 . S
C315 H320 0.931 . S
C316 N317 1.375 1_655 S
C316 C319 1.350 . S
C316 H321 0.930 . S
N317 Co312 2.057 . S
N317 C315 1.316 . S
N317 C316 1.375 1_455 S
N318 C315 1.347 . S
N318 C319 1.373 1_455 S
C319 C316 1.350 . S
C319 N318 1.373 1_655 S
C319 H340 0.931 . S
H320 C315 0.931 . S
H321 C316 0.930 . S
C322 O329 1.259 . S
C322 O330 1.258 . S
N323 Co314 2.057 . S
N323 C324 1.316 . S
N323 C325 1.375 1_655 S
C324 N323 1.316 . S
C324 N326 1.347 . S
C324 H335 0.931 . S
C325 N323 1.375 1_455 S
C325 C327 1.350 . S
C325 H334 0.930 . S
N326 C324 1.347 . S
N326 C327 1.373 1_655 S
C327 C325 1.350 . S
C327 N326 1.373 1_455 S
C327 H341 0.931 . S
C328 O331 1.256 . S
C328 O332 1.255 . S
O329 Co312 2.021 . S
O329 C322 1.259 . S
O330 Co314 2.117 1_445 S
O330 C322 1.258 . S
O331 Co314 2.020 1_545 S
O331 C328 1.256 . S
O332 Co312 2.062 1_655 S
O332 C328 1.255 . S
O333 C313 1.259 1_565 S
O333 Co314 2.021 . S
H334 C325 0.930 . S
H335 C324 0.931 . S
O336 Co312 2.117 1_655 S
O336 C313 1.258 . S
O337 Co312 2.020 1_565 S
O337 C339 1.256 . S
O338 Co314 2.062 1_455 S
O338 C339 1.255 . S
C339 O337 1.256 . S
C339 O338 1.255 . S
H340 C319 0.931 . S
H341 C327 0.931 . S
Co342 N347 2.057 . S
Co342 O359 2.021 . S
Co342 O362 2.062 . S
Co342 O366 2.117 1_545 S
Co342 O367 2.020 . S
C343 O363 1.259 . S
C343 O366 1.258 . S
Co344 N353 2.054 1_545 S
Co344 O360 2.139 . S
Co344 O361 2.022 . S
Co344 O363 2.000 1_545 S
Co344 O368 2.063 1_545 S
C345 N347 1.316 . S
C345 N348 1.347 . S
C345 H350 0.931 . S
C346 N347 1.375 . S
C346 C349 1.350 . S
C346 H351 0.930 1_545 S
N347 Co342 2.057 . S
N347 C345 1.316 . S
N347 C346 1.375 . S
N348 C345 1.347 . S
N348 C349 1.373 . S
C349 C346 1.350 . S
C349 N348 1.373 . S
C349 H370 0.931 . S
H350 C345 0.931 . S
H351 C346 0.930 1_565 S
C352 O359 1.259 . S
C352 O360 1.258 . S
N353 Co344 2.054 1_565 S
N353 C354 1.316 . S
N353 C355 1.375 1_565 S
C354 N353 1.316 . S
C354 N356 1.347 . S
C354 H365 0.931 . S
C355 N353 1.375 1_545 S
C355 C357 1.350 . S
C355 H364 0.930 . S
N356 C354 1.347 . S
N356 C357 1.373 1_565 S
C357 C355 1.350 . S
C357 N356 1.373 1_545 S
C357 H371 0.931 . S
C358 O361 1.256 . S
C358 O362 1.255 . S
O359 Co342 2.021 . S
O359 C352 1.259 . S
O360 Co344 2.139 . S
O360 C352 1.258 . S
O361 Co344 2.022 . S
O361 C358 1.256 . S
O362 Co342 2.062 . S
O362 C358 1.255 . S
O363 C343 1.259 . S
O363 Co344 2.000 1_565 S
H364 C355 0.930 . S
H365 C354 0.931 . S
O366 Co342 2.117 1_565 S
O366 C343 1.258 . S
O367 Co342 2.020 . S
O367 C369 1.256 . S
O368 Co344 2.063 1_565 S
O368 C369 1.255 1_565 S
C369 O367 1.256 . S
C369 O368 1.255 1_545 S
H370 C349 0.931 . S
H371 C357 0.931 . S
Co372 N377 2.057 . S
Co372 O389 2.021 . S
Co372 O392 2.062 . S
Co372 O396 2.117 . S
Co372 O397 2.020 . S
C373 O393 1.259 . S
C373 O396 1.258 . S
Co374 N383 2.057 . S
Co374 O390 2.117 . S
Co374 O391 2.020 . S
Co374 O393 2.021 . S
Co374 O398 2.062 . S
C375 N377 1.316 . S
C375 N378 1.347 . S
C375 H380 0.931 . S
C376 N377 1.375 . S
C376 C379 1.350 . S
C376 H381 0.930 . S
N377 Co372 2.057 . S
N377 C375 1.316 . S
N377 C376 1.375 . S
N378 C375 1.347 . S
N378 C379 1.373 . S
C379 C376 1.350 . S
C379 N378 1.373 . S
C379 H400 0.931 . S
H380 C375 0.931 . S
H381 C376 0.930 . S
C382 O389 1.259 . S
C382 O390 1.258 . S
N383 Co374 2.057 . S
N383 C384 1.316 . S
N383 C385 1.375 . S
C384 N383 1.316 . S
C384 N386 1.347 . S
C384 H395 0.931 . S
C385 N383 1.375 . S
C385 C387 1.350 . S
C385 H394 0.930 . S
N386 C384 1.347 . S
N386 C387 1.373 . S
C387 C385 1.350 . S
C387 N386 1.373 . S
C387 H401 0.931 . S
C388 O391 1.256 . S
C388 O392 1.255 . S
O389 Co372 2.021 . S
O389 C382 1.259 . S
O390 Co374 2.117 . S
O390 C382 1.258 . S
O391 Co374 2.020 . S
O391 C388 1.256 . S
O392 Co372 2.062 . S
O392 C388 1.255 . S
O393 C373 1.259 . S
O393 Co374 2.021 . S
H394 C385 0.930 . S
H395 C384 0.931 . S
O396 Co372 2.117 . S
O396 C373 1.258 . S
O397 Co372 2.020 . S
O397 C399 1.256 . S
O398 Co374 2.062 . S
O398 C399 1.255 . S
C399 O397 1.256 . S
C399 O398 1.255 . S
H400 C379 0.931 . S
H401 C387 0.931 . S
Co402 N407 2.057 . S
Co402 O419 2.021 1_455 S
Co402 O422 2.062 1_455 S
Co402 O426 2.117 . S
Co402 O427 2.020 . S
C403 O423 1.259 . S
C403 O426 1.258 . S
Co404 N413 2.057 . S
Co404 O420 2.117 . S
Co404 O421 2.020 . S
Co404 O423 2.021 1_655 S
Co404 O428 2.062 1_655 S
C405 N407 1.316 . S
C405 N408 1.347 . S
C405 H410 0.931 1_455 S
C406 N407 1.375 . S
C406 C409 1.350 . S
C406 H411 0.930 . S
N407 Co402 2.057 . S
N407 C405 1.316 . S
N407 C406 1.375 . S
N408 C405 1.347 . S
N408 C409 1.373 . S
C409 C406 1.350 . S
C409 N408 1.373 . S
C409 H430 0.931 . S
H410 C405 0.931 1_655 S
H411 C406 0.930 . S
C412 O419 1.259 . S
C412 O420 1.258 . S
N413 Co404 2.057 . S
N413 C414 1.316 . S
N413 C415 1.375 . S
C414 N413 1.316 . S
C414 N416 1.347 . S
C414 H425 0.931 1_655 S
C415 N413 1.375 . S
C415 C417 1.350 . S
C415 H424 0.930 . S
N416 C414 1.347 . S
N416 C417 1.373 . S
C417 C415 1.350 . S
C417 N416 1.373 . S
C417 H431 0.931 . S
C418 O421 1.256 . S
C418 O422 1.255 . S
O419 Co402 2.021 1_655 S
O419 C412 1.259 . S
O420 Co404 2.117 . S
O420 C412 1.258 . S
O421 Co404 2.020 . S
O421 C418 1.256 . S
O422 Co402 2.062 1_655 S
O422 C418 1.255 . S
O423 C403 1.259 . S
O423 Co404 2.021 1_455 S
H424 C415 0.930 . S
H425 C414 0.931 1_455 S
O426 Co402 2.117 . S
O426 C403 1.258 . S
O427 Co402 2.020 . S
O427 C429 1.256 . S
O428 Co404 2.062 1_455 S
O428 C429 1.255 . S
C429 O427 1.256 . S
C429 O428 1.255 . S
H430 C409 0.931 . S
H431 C417 0.931 . S
C432 C433 1.391 . S
C432 C434 1.394 . S
C432 H448 0.931 . S
C433 C432 1.391 . S
C433 C437 1.376 . S
C434 C432 1.394 . S
C434 C435 1.369 . S
C434 C438 1.531 . S
C435 C434 1.369 . S
C435 C436 1.410 . S
C435 C443 1.503 . S
C436 C435 1.410 . S
C436 C437 1.392 . S
C436 C439 1.511 . S
C437 C433 1.376 . S
C437 C436 1.392 . S
C437 H449 0.929 . S
C438 C434 1.531 . S
C438 H450 0.960 . S
C438 H451 0.962 . S
C438 H452 0.960 . S
C439 C436 1.511 . S
C439 H453 0.961 . S
C439 H454 0.961 . S
C439 H455 0.961 . S
C440 C441 1.370 . S
C440 C442 1.363 . S
C440 H456 0.931 1_545 S
C441 C440 1.370 . S
C441 C445 1.408 . S
C442 C440 1.363 . S
C442 C443 1.370 . S
C442 C446 1.524 . S
C443 C435 1.503 . S
C443 C442 1.370 . S
C443 C444 1.403 . S
C444 C443 1.403 . S
C444 C445 1.404 . S
C444 C447 1.539 . S
C445 C441 1.408 . S
C445 C444 1.404 . S
C445 H457 0.930 . S
C446 C442 1.524 . S
C446 H458 0.956 . S
C446 H459 0.961 . S
C446 H460 0.961 1_545 S
C447 C444 1.539 . S
C447 H461 0.958 . S
C447 H462 0.961 . S
C447 H463 0.960 . S
H448 C432 0.931 . S
H449 C437 0.929 . S
H450 C438 0.960 . S
H451 C438 0.962 . S
H452 C438 0.960 . S
H453 C439 0.961 . S
H454 C439 0.961 . S
H455 C439 0.961 . S
H456 C440 0.931 1_565 S
H457 C445 0.930 . S
H458 C446 0.956 . S
H459 C446 0.961 . S
H460 C446 0.961 1_565 S
H461 C447 0.958 . S
H462 C447 0.961 . S
H463 C447 0.960 . S
C464 C465 1.391 . S
C464 C466 1.394 . S
C464 H480 0.931 . S
C465 C464 1.391 . S
C465 C469 1.376 . S
C466 C464 1.394 . S
C466 C467 1.369 . S
C466 C470 1.531 . S
C467 C466 1.369 . S
C467 C468 1.410 . S
C467 C475 1.503 . S
C468 C467 1.410 . S
C468 C469 1.392 . S
C468 C471 1.511 . S
C469 C465 1.376 . S
C469 C468 1.392 . S
C469 H481 0.929 . S
C470 C466 1.531 . S
C470 H482 0.960 . S
C470 H483 0.962 . S
C470 H484 0.960 . S
C471 C468 1.511 . S
C471 H485 0.961 . S
C471 H486 0.961 . S
C471 H487 0.961 . S
C472 C473 1.370 . S
C472 C474 1.363 . S
C472 H488 0.931 . S
C473 C472 1.370 . S
C473 C477 1.408 . S
C474 C472 1.363 . S
C474 C475 1.370 . S
C474 C478 1.524 . S
C475 C467 1.503 . S
C475 C474 1.370 . S
C475 C476 1.403 . S
C476 C475 1.403 . S
C476 C477 1.404 . S
C476 C479 1.539 . S
C477 C473 1.408 . S
C477 C476 1.404 . S
C477 H489 0.930 . S
C478 C474 1.524 . S
C478 H490 0.956 . S
C478 H491 0.961 . S
C478 H492 0.961 . S
C479 C476 1.539 . S
C479 H493 0.958 . S
C479 H494 0.961 . S
C479 H495 0.960 . S
H480 C464 0.931 . S
H481 C469 0.929 . S
H482 C470 0.960 . S
H483 C470 0.962 . S
H484 C470 0.960 . S
H485 C471 0.961 . S
H486 C471 0.961 . S
H487 C471 0.961 . S
H488 C472 0.931 . S
H489 C477 0.930 . S
H490 C478 0.956 . S
H491 C478 0.961 . S
H492 C478 0.961 . S
H493 C479 0.958 . S
H494 C479 0.961 . S
H495 C479 0.960 . S
C496 C497 1.391 . S
C496 C498 1.394 . S
C496 H512 0.931 . S
C497 C496 1.391 . S
C497 C501 1.376 . S
C498 C496 1.394 . S
C498 C499 1.369 . S
C498 C502 1.531 . S
C499 C498 1.369 . S
C499 C500 1.410 . S
C499 C507 1.503 . S
C500 C499 1.410 . S
C500 C501 1.392 . S
C500 C503 1.511 . S
C501 C497 1.376 . S
C501 C500 1.392 . S
C501 H513 0.929 . S
C502 C498 1.531 . S
C502 H514 0.960 . S
C502 H515 0.962 . S
C502 H516 0.960 . S
C503 C500 1.511 . S
C503 H517 0.961 . S
C503 H518 0.961 . S
C503 H519 0.961 . S
C504 C505 1.370 . S
C504 C506 1.363 . S
C504 H520 0.931 . S
C505 C504 1.370 . S
C505 C509 1.408 . S
C506 C504 1.363 . S
C506 C507 1.370 . S
C506 C510 1.524 . S
C507 C499 1.503 . S
C507 C506 1.370 . S
C507 C508 1.403 . S
C508 C507 1.403 . S
C508 C509 1.404 . S
C508 C511 1.539 . S
C509 C505 1.408 . S
C509 C508 1.404 . S
C509 H521 0.930 . S
C510 C506 1.524 . S
C510 H522 0.956 . S
C510 H523 0.961 . S
C510 H524 0.961 . S
C511 C508 1.539 . S
C511 H525 0.958 . S
C511 H526 0.961 . S
C511 H527 0.960 . S
H512 C496 0.931 . S
H513 C501 0.929 . S
H514 C502 0.960 . S
H515 C502 0.962 . S
H516 C502 0.960 . S
H517 C503 0.961 . S
H518 C503 0.961 . S
H519 C503 0.961 . S
H520 C504 0.931 . S
H521 C509 0.930 . S
H522 C510 0.956 . S
H523 C510 0.961 . S
H524 C510 0.961 . S
H525 C511 0.958 . S
H526 C511 0.961 . S
H527 C511 0.960 . S
C528 C529 1.391 1_455 S
C528 C530 1.394 . S
C528 H544 0.931 . S
C529 C528 1.391 1_655 S
C529 C533 1.376 . S
C530 C528 1.394 . S
C530 C531 1.369 1_455 S
C530 C534 1.531 . S
C531 C530 1.369 1_655 S
C531 C532 1.410 . S
C531 C539 1.503 . S
C532 C531 1.410 . S
C532 C533 1.392 . S
C532 C535 1.511 . S
C533 C529 1.376 . S
C533 C532 1.392 . S
C533 H545 0.929 . S
C534 C530 1.531 . S
C534 H546 0.960 . S
C534 H547 0.962 . S
C534 H548 0.960 . S
C535 C532 1.511 . S
C535 H549 0.961 . S
C535 H550 0.961 . S
C535 H551 0.961 . S
C536 C537 1.370 . S
C536 C538 1.363 . S
C536 H552 0.931 1_655 S
C537 C536 1.370 . S
C537 C541 1.408 . S
C538 C536 1.363 . S
C538 C539 1.370 . S
C538 C542 1.524 1_655 S
C539 C531 1.503 . S
C539 C538 1.370 . S
C539 C540 1.403 . S
C540 C539 1.403 . S
C540 C541 1.404 . S
C540 C543 1.539 . S
C541 C537 1.408 . S
C541 C540 1.404 . S
C541 H553 0.930 . S
C542 C538 1.524 1_455 S
C542 H554 0.956 . S
C542 H555 0.961 1_455 S
C542 H556 0.961 . S
C543 C540 1.539 . S
C543 H557 0.958 . S
C543 H558 0.961 . S
C543 H559 0.960 . S
H544 C528 0.931 . S
H545 C533 0.929 . S
H546 C534 0.960 . S
H547 C534 0.962 . S
H548 C534 0.960 . S
H549 C535 0.961 . S
H550 C535 0.961 . S
H551 C535 0.961 . S
H552 C536 0.931 1_455 S
H553 C541 0.930 . S
H554 C542 0.956 . S
H555 C542 0.961 1_655 S
H556 C542 0.961 . S
H557 C543 0.958 . S
H558 C543 0.961 . S
H559 C543 0.960 . S
C560 C561 1.391 . S
C560 C562 1.394 1_554 S
C560 H576 0.931 . S
C561 C560 1.391 . S
C561 C565 1.376 1_554 S
C562 C560 1.394 1_556 S
C562 C563 1.369 . S
C562 C566 1.531 1_556 S
C563 C562 1.369 . S
C563 C564 1.410 . S
C563 C571 1.503 . S
C564 C563 1.410 . S
C564 C565 1.392 . S
C564 C567 1.511 . S
C565 C561 1.376 1_556 S
C565 C564 1.392 . S
C565 H577 0.929 . S
C566 C562 1.531 1_554 S
C566 H578 0.960 . S
C566 H579 0.962 . S
C566 H580 0.960 . S
C567 C564 1.511 . S
C567 H581 0.961 . S
C567 H582 0.961 . S
C567 H583 0.961 . S
C568 C569 1.370 1_545 S
C568 C570 1.363 1_545 S
C568 H584 0.931 . S
C569 C568 1.370 1_565 S
C569 C573 1.408 . S
C570 C568 1.363 1_565 S
C570 C571 1.370 . S
C570 C574 1.524 1_565 S
C571 C563 1.503 . S
C571 C570 1.370 . S
C571 C572 1.403 . S
C572 C571 1.403 . S
C572 C573 1.404 . S
C572 C575 1.539 . S
C573 C569 1.408 . S
C573 C572 1.404 . S
C573 H585 0.930 . S
C574 C570 1.524 1_545 S
C574 H586 0.956 . S
C574 H587 0.961 1_545 S
C574 H588 0.961 . S
C575 C572 1.539 . S
C575 H589 0.958 . S
C575 H590 0.961 . S
C575 H591 0.960 . S
H576 C560 0.931 . S
H577 C565 0.929 . S
H578 C566 0.960 . S
H579 C566 0.962 . S
H580 C566 0.960 . S
H581 C567 0.961 . S
H582 C567 0.961 . S
H583 C567 0.961 . S
H584 C568 0.931 . S
H585 C573 0.930 . S
H586 C574 0.956 . S
H587 C574 0.961 1_565 S
H588 C574 0.961 . S
H589 C575 0.958 . S
H590 C575 0.961 . S
H591 C575 0.960 . S
C592 C593 1.391 . S
C592 C594 1.394 . S
C592 H608 0.931 . S
C593 C592 1.391 . S
C593 C597 1.376 1_554 S
C594 C592 1.394 . S
C594 C595 1.369 1_554 S
C594 C598 1.531 . S
C595 C594 1.369 1_556 S
C595 C596 1.410 . S
C595 C603 1.503 . S
C596 C595 1.410 . S
C596 C597 1.392 . S
C596 C599 1.511 . S
C597 C593 1.376 1_556 S
C597 C596 1.392 . S
C597 H609 0.929 . S
C598 C594 1.531 . S
C598 H610 0.960 . S
C598 H611 0.962 . S
C598 H612 0.960 . S
C599 C596 1.511 . S
C599 H613 0.961 . S
C599 H614 0.961 . S
C599 H615 0.961 . S
C600 C601 1.370 . S
C600 C602 1.363 . S
C600 H616 0.931 . S
C601 C600 1.370 . S
C601 C605 1.408 . S
C602 C600 1.363 . S
C602 C603 1.370 . S
C602 C606 1.524 . S
C603 C595 1.503 . S
C603 C602 1.370 . S
C603 C604 1.403 . S
C604 C603 1.403 . S
C604 C605 1.404 . S
C604 C607 1.539 . S
C605 C601 1.408 . S
C605 C604 1.404 . S
C605 H617 0.930 . S
C606 C602 1.524 . S
C606 H618 0.956 . S
C606 H619 0.961 . S
C606 H620 0.961 . S
C607 C604 1.539 . S
C607 H621 0.958 . S
C607 H622 0.961 . S
C607 H623 0.960 . S
H608 C592 0.931 . S
H609 C597 0.929 . S
H610 C598 0.960 . S
H611 C598 0.962 . S
H612 C598 0.960 . S
H613 C599 0.961 . S
H614 C599 0.961 . S
H615 C599 0.961 . S
H616 C600 0.931 . S
H617 C605 0.930 . S
H618 C606 0.956 . S
H619 C606 0.961 . S
H620 C606 0.961 . S
H621 C607 0.958 . S
H622 C607 0.961 . S
H623 C607 0.960 . S
C624 C625 1.391 . S
C624 C626 1.394 . S
C624 H640 0.931 . S
C625 C624 1.391 . S
C625 C629 1.376 1_554 S
C626 C624 1.394 . S
C626 C627 1.369 1_554 S
C626 C630 1.531 . S
C627 C626 1.369 1_556 S
C627 C628 1.410 . S
C627 C635 1.503 . S
C628 C627 1.410 . S
C628 C629 1.392 . S
C628 C631 1.511 . S
C629 C625 1.376 1_556 S
C629 C628 1.392 . S
C629 H641 0.929 . S
C630 C626 1.531 . S
C630 H642 0.960 . S
C630 H643 0.962 . S
C630 H644 0.960 . S
C631 C628 1.511 . S
C631 H645 0.961 . S
C631 H646 0.961 . S
C631 H647 0.961 . S
C632 C633 1.370 . S
C632 C634 1.363 . S
C632 H648 0.931 . S
C633 C632 1.370 . S
C633 C637 1.408 . S
C634 C632 1.363 . S
C634 C635 1.370 . S
C634 C638 1.524 . S
C635 C627 1.503 . S
C635 C634 1.370 . S
C635 C636 1.403 . S
C636 C635 1.403 . S
C636 C637 1.404 . S
C636 C639 1.539 . S
C637 C633 1.408 . S
C637 C636 1.404 . S
C637 H649 0.930 . S
C638 C634 1.524 . S
C638 H650 0.956 . S
C638 H651 0.961 . S
C638 H652 0.961 . S
C639 C636 1.539 . S
C639 H653 0.958 1_556 S
C639 H654 0.961 . S
C639 H655 0.960 . S
H640 C624 0.931 . S
H641 C629 0.929 . S
H642 C630 0.960 . S
H643 C630 0.962 . S
H644 C630 0.960 . S
H645 C631 0.961 . S
H646 C631 0.961 . S
H647 C631 0.961 . S
H648 C632 0.931 . S
H649 C637 0.930 . S
H650 C638 0.956 . S
H651 C638 0.961 . S
H652 C638 0.961 . S
H653 C639 0.958 1_554 S
H654 C639 0.961 . S
H655 C639 0.960 . S
C656 C657 1.391 1_656 S
C656 C658 1.394 1_655 S
C656 H672 0.931 . S
C657 C656 1.391 1_454 S
C657 C661 1.376 . S
C658 C656 1.394 1_455 S
C658 C659 1.369 . S
C658 C662 1.531 1_455 S
C659 C658 1.369 . S
C659 C660 1.410 1_556 S
C659 C667 1.503 . S
C660 C659 1.410 1_554 S
C660 C661 1.392 . S
C660 C663 1.511 . S
C661 C657 1.376 . S
C661 C660 1.392 . S
C661 H673 0.929 . S
C662 C658 1.531 1_655 S
C662 H674 0.960 1_655 S
C662 H675 0.962 . S
C662 H676 0.964 . S
C663 C660 1.511 . S
C663 H677 0.961 . S
C663 H678 0.961 . S
C663 H679 0.961 . S
C664 C665 1.370 1_655 S
C664 C666 1.363 . S
C664 H680 0.931 . S
C665 C664 1.370 1_455 S
C665 C669 1.408 . S
C666 C664 1.363 . S
C666 C667 1.370 1_655 S
C666 C670 1.524 . S
C667 C659 1.503 . S
C667 C666 1.370 1_455 S
C667 C668 1.403 . S
C668 C667 1.403 . S
C668 C669 1.404 . S
C668 C671 1.539 . S
C669 C665 1.408 . S
C669 C668 1.404 . S
C669 H681 0.930 . S
C670 C666 1.524 . S
C670 H682 0.956 . S
C670 H683 0.961 . S
C670 H684 0.961 . S
C671 C668 1.539 . S
C671 H685 0.958 . S
C671 H686 0.961 . S
C671 H687 0.960 . S
H672 C656 0.931 . S
H673 C661 0.929 . S
H674 C662 0.960 1_455 S
H675 C662 0.962 . S
H676 C662 0.964 . S
H677 C663 0.961 . S
H678 C663 0.961 . S
H679 C663 0.961 . S
H680 C664 0.931 . S
H681 C669 0.930 . S
H682 C670 0.956 . S
H683 C670 0.961 . S
H684 C670 0.961 . S
H685 C671 0.958 . S
H686 C671 0.961 . S
H687 C671 0.960 . S
C688 C689 1.391 1_655 S
C688 C690 1.394 . S
C688 H704 0.931 . S
C689 C688 1.391 1_455 S
C689 C693 1.376 . S
C690 C688 1.394 . S
C690 C691 1.369 . S
C690 C694 1.531 . S
C691 C690 1.369 . S
C691 C692 1.410 1_655 S
C691 C699 1.503 . S
C692 C691 1.410 1_455 S
C692 C693 1.392 . S
C692 C695 1.511 . S
C693 C689 1.376 . S
C693 C692 1.392 . S
C693 H705 0.929 . S
C694 C690 1.531 . S
C694 H706 0.960 . S
C694 H707 0.962 . S
C694 H708 0.960 . S
C695 C692 1.511 . S
C695 H709 0.961 . S
C695 H710 0.961 . S
C695 H711 0.961 . S
C696 C697 1.370 . S
C696 C698 1.363 . S
C696 H712 0.931 . S
C697 C696 1.370 . S
C697 C701 1.384 1_655 S
C698 C696 1.363 . S
C698 C699 1.370 . S
C698 C702 1.524 . S
C699 C691 1.503 . S
C699 C698 1.370 . S
C699 C700 1.403 1_655 S
C700 C699 1.403 1_455 S
C700 C701 1.413 . S
C700 C703 1.539 . S
C701 C697 1.384 1_455 S
C701 C700 1.413 . S
C701 H713 0.946 . S
C702 C698 1.524 . S
C702 H714 0.956 . S
C702 H715 0.961 . S
C702 H716 0.961 . S
C703 C700 1.539 . S
C703 H717 0.958 . S
C703 H718 0.961 . S
C703 H719 0.960 . S
H704 C688 0.931 . S
H705 C693 0.929 . S
H706 C694 0.960 . S
H707 C694 0.962 . S
H708 C694 0.960 . S
H709 C695 0.961 . S
H710 C695 0.961 . S
H711 C695 0.961 . S
H712 C696 0.931 . S
H713 C701 0.946 . S
H714 C702 0.956 . S
H715 C702 0.961 . S
H716 C702 0.961 . S
H717 C703 0.958 . S
H718 C703 0.961 . S
H719 C703 0.960 . S
C720 C721 1.391 . S
C720 C722 1.394 . S
C720 H736 0.931 . S
C721 C720 1.391 . S
C721 C725 1.376 . S
C722 C720 1.394 . S
C722 C723 1.369 . S
C722 C726 1.531 . S
C723 C722 1.369 . S
C723 C724 1.410 . S
C723 C731 1.503 . S
C724 C723 1.410 . S
C724 C725 1.392 . S
C724 C727 1.511 . S
C725 C721 1.376 . S
C725 C724 1.392 . S
C725 H737 0.929 . S
C726 C722 1.531 . S
C726 H738 0.960 . S
C726 H739 0.962 . S
C726 H740 0.960 . S
C727 C724 1.511 . S
C727 H741 0.961 . S
C727 H742 0.961 . S
C727 H743 0.961 . S
C728 C729 1.370 . S
C728 C730 1.363 . S
C728 H744 0.931 . S
C729 C728 1.370 . S
C729 C733 1.408 . S
C730 C728 1.363 . S
C730 C731 1.370 . S
C730 C734 1.524 . S
C731 C723 1.503 . S
C731 C730 1.370 . S
C731 C732 1.403 . S
C732 C731 1.403 . S
C732 C733 1.404 . S
C732 C735 1.539 . S
C733 C729 1.408 . S
C733 C732 1.404 . S
C733 H745 0.930 . S
C734 C730 1.524 . S
C734 H746 0.956 . S
C734 H747 0.961 . S
C734 H748 0.961 . S
C735 C732 1.539 . S
C735 H749 0.958 . S
C735 H750 0.961 . S
C735 H751 0.960 . S
H736 C720 0.931 . S
H737 C725 0.929 . S
H738 C726 0.960 . S
H739 C726 0.962 . S
H740 C726 0.960 . S
H741 C727 0.961 . S
H742 C727 0.961 . S
H743 C727 0.961 . S
H744 C728 0.931 . S
H745 C733 0.930 . S
H746 C734 0.956 . S
H747 C734 0.961 . S
H748 C734 0.961 . S
H749 C735 0.958 . S
H750 C735 0.961 . S
H751 C735 0.960 . S
C752 C753 1.391 . S
C752 C754 1.394 . S
C752 H768 0.931 . S
C753 C752 1.391 . S
C753 C757 1.376 . S
C754 C752 1.394 . S
C754 C755 1.369 . S
C754 C758 1.531 . S
C755 C754 1.369 . S
C755 C756 1.410 . S
C755 C763 1.503 . S
C756 C755 1.410 . S
C756 C757 1.392 . S
C756 C759 1.511 . S
C757 C753 1.376 . S
C757 C756 1.392 . S
C757 H769 0.929 . S
C758 C754 1.531 . S
C758 H770 0.960 . S
C758 H771 0.962 . S
C758 H772 0.960 . S
C759 C756 1.511 . S
C759 H773 0.961 . S
C759 H774 0.961 . S
C759 H775 0.961 . S
C760 C761 1.370 . S
C760 C762 1.363 . S
C760 H776 0.931 . S
C761 C760 1.370 . S
C761 C765 1.408 . S
C762 C760 1.363 . S
C762 C763 1.370 . S
C762 C766 1.524 . S
C763 C755 1.503 . S
C763 C762 1.370 . S
C763 C764 1.403 . S
C764 C763 1.403 . S
C764 C765 1.404 . S
C764 C767 1.539 . S
C765 C761 1.408 . S
C765 C764 1.404 . S
C765 H777 0.930 . S
C766 C762 1.524 . S
C766 H778 0.956 . S
C766 H779 0.961 . S
C766 H780 0.961 . S
C767 C764 1.539 . S
C767 H781 0.958 . S
C767 H782 0.961 . S
C767 H783 0.960 . S
H768 C752 0.931 . S
H769 C757 0.929 . S
H770 C758 0.960 . S
H771 C758 0.962 . S
H772 C758 0.960 . S
H773 C759 0.961 . S
H774 C759 0.961 . S
H775 C759 0.961 . S
H776 C760 0.931 . S
H777 C765 0.930 . S
H778 C766 0.956 . S
H779 C766 0.961 . S
H780 C766 0.961 . S
H781 C767 0.958 . S
H782 C767 0.961 . S
H783 C767 0.960 . S
C784 C785 1.391 . S
C784 C786 1.394 . S
C784 H800 0.931 . S
C785 C784 1.391 . S
C785 C789 1.376 . S
C786 C784 1.394 . S
C786 C787 1.369 . S
C786 C790 1.531 . S
C787 C786 1.369 . S
C787 C788 1.410 . S
C787 C795 1.503 . S
C788 C787 1.410 . S
C788 C789 1.392 . S
C788 C791 1.511 . S
C789 C785 1.376 . S
C789 C788 1.392 . S
C789 H801 0.929 . S
C790 C786 1.531 . S
C790 H802 0.960 . S
C790 H803 0.962 . S
C790 H804 0.960 . S
C791 C788 1.511 . S
C791 H805 0.961 . S
C791 H806 0.961 . S
C791 H807 0.961 . S
C792 C793 1.370 . S
C792 C794 1.363 . S
C792 H808 0.931 . S
C793 C792 1.370 . S
C793 C797 1.408 . S
C794 C792 1.363 . S
C794 C795 1.370 . S
C794 C798 1.524 . S
C795 C787 1.503 . S
C795 C794 1.370 . S
C795 C796 1.403 . S
C796 C795 1.403 . S
C796 C797 1.404 . S
C796 C799 1.539 . S
C797 C793 1.408 . S
C797 C796 1.404 . S
C797 H809 0.930 . S
C798 C794 1.524 . S
C798 H810 0.956 . S
C798 H811 0.961 . S
C798 H812 0.961 . S
C799 C796 1.539 . S
C799 H813 0.958 . S
C799 H814 0.961 . S
C799 H815 0.960 . S
H800 C784 0.931 . S
H801 C789 0.929 . S
H802 C790 0.960 . S
H803 C790 0.962 . S
H804 C790 0.960 . S
H805 C791 0.961 . S
H806 C791 0.961 . S
H807 C791 0.961 . S
H808 C792 0.931 . S
H809 C797 0.930 . S
H810 C798 0.956 . S
H811 C798 0.961 . S
H812 C798 0.961 . S
H813 C799 0.958 . S
H814 C799 0.961 . S
H815 C799 0.960 . S
C816 C817 1.391 . S
C816 C818 1.394 . S
C816 H832 0.931 . S
C817 C816 1.391 . S
C817 C821 1.376 1_655 S
C818 C816 1.394 . S
C818 C819 1.369 1_655 S
C818 C822 1.531 . S
C819 C818 1.369 1_455 S
C819 C820 1.410 . S
C819 C827 1.503 . S
C820 C819 1.410 . S
C820 C821 1.392 . S
C820 C823 1.511 . S
C821 C817 1.376 1_455 S
C821 C820 1.392 . S
C821 H833 0.929 . S
C822 C818 1.531 . S
C822 H834 0.960 . S
C822 H835 0.962 . S
C822 H836 0.960 . S
C823 C820 1.511 . S
C823 H837 0.961 . S
C823 H838 0.961 . S
C823 H839 0.961 . S
C824 C825 1.370 . S
C824 C826 1.363 . S
C824 H840 0.931 . S
C825 C824 1.370 . S
C825 C829 1.408 . S
C826 C824 1.363 . S
C826 C827 1.370 . S
C826 C830 1.524 . S
C827 C819 1.503 . S
C827 C826 1.370 . S
C827 C828 1.403 . S
C828 C827 1.403 . S
C828 C829 1.404 . S
C828 C831 1.539 . S
C829 C825 1.408 . S
C829 C828 1.404 . S
C829 H841 0.930 . S
C830 C826 1.524 . S
C830 H842 0.956 1_455 S
C830 H843 0.961 . S
C830 H844 0.961 . S
C831 C828 1.539 . S
C831 H845 0.958 1_456 S
C831 H846 0.961 1_556 S
C831 H847 0.960 . S
H832 C816 0.931 . S
H833 C821 0.929 . S
H834 C822 0.960 . S
H835 C822 0.962 . S
H836 C822 0.960 . S
H837 C823 0.961 . S
H838 C823 0.961 . S
H839 C823 0.961 . S
H840 C824 0.931 . S
H841 C829 0.930 . S
H842 C830 0.956 1_655 S
H843 C830 0.961 . S
H844 C830 0.961 . S
H845 C831 0.958 1_654 S
H846 C831 0.961 1_554 S
H847 C831 0.960 . S
C848 C849 1.391 . S
C848 C850 1.394 . S
C848 H864 0.931 . S
C849 C848 1.391 . S
C849 C853 1.376 . S
C850 C848 1.394 . S
C850 C851 1.369 . S
C850 C854 1.531 . S
C851 C850 1.369 . S
C851 C852 1.410 . S
C851 C859 1.503 . S
C852 C851 1.410 . S
C852 C853 1.392 . S
C852 C855 1.511 . S
C853 C849 1.376 . S
C853 C852 1.392 . S
C853 H865 0.929 . S
C854 C850 1.531 . S
C854 H866 0.960 . S
C854 H867 0.962 . S
C854 H868 0.960 . S
C855 C852 1.511 . S
C855 H869 0.961 1_556 S
C855 H870 0.961 . S
C855 H871 0.961 1_556 S
C856 C857 1.370 . S
C856 C858 1.363 1_545 S
C856 H872 0.931 . S
C857 C856 1.370 . S
C857 C861 1.408 1_545 S
C858 C856 1.363 1_565 S
C858 C859 1.370 . S
C858 C862 1.524 1_565 S
C859 C851 1.503 . S
C859 C858 1.370 . S
C859 C860 1.403 . S
C860 C859 1.403 . S
C860 C861 1.404 . S
C860 C863 1.539 . S
C861 C857 1.408 1_565 S
C861 C860 1.404 . S
C861 H873 0.930 . S
C862 C858 1.524 1_545 S
C862 H874 0.956 1_545 S
C862 H875 0.961 . S
C862 H876 0.961 . S
C863 C860 1.539 . S
C863 H877 0.958 . S
C863 H878 0.961 . S
C863 H879 0.960 . S
H864 C848 0.931 . S
H865 C853 0.929 . S
H866 C854 0.960 . S
H867 C854 0.962 . S
H868 C854 0.960 . S
H869 C855 0.961 1_554 S
H870 C855 0.961 . S
H871 C855 0.961 1_554 S
H872 C856 0.931 . S
H873 C861 0.930 . S
H874 C862 0.956 1_565 S
H875 C862 0.961 . S
H876 C862 0.961 . S
H877 C863 0.958 . S
H878 C863 0.961 . S
H879 C863 0.960 . S
C880 C881 1.391 . S
C880 C882 1.394 . S
C880 H896 0.931 . S
C881 C880 1.391 . S
C881 C885 1.376 . S
C882 C880 1.394 . S
C882 C883 1.369 . S
C882 C886 1.531 . S
C883 C882 1.369 . S
C883 C884 1.410 . S
C883 C891 1.503 . S
C884 C883 1.410 . S
C884 C885 1.392 . S
C884 C887 1.511 . S
C885 C881 1.376 . S
C885 C884 1.392 . S
C885 H897 0.929 1_556 S
C886 C882 1.531 . S
C886 H898 0.960 . S
C886 H899 0.962 . S
C886 H900 0.960 . S
C887 C884 1.511 . S
C887 H901 0.961 1_556 S
C887 H902 0.961 . S
C887 H903 0.961 . S
C888 C889 1.370 . S
C888 C890 1.363 . S
C888 H904 0.931 . S
C889 C888 1.370 . S
C889 C893 1.408 . S
C890 C888 1.363 . S
C890 C891 1.370 . S
C890 C894 1.524 . S
C891 C883 1.503 . S
C891 C890 1.370 . S
C891 C892 1.403 . S
C892 C891 1.403 . S
C892 C893 1.404 . S
C892 C895 1.539 . S
C893 C889 1.408 . S
C893 C892 1.404 . S
C893 H905 0.930 . S
C894 C890 1.524 . S
C894 H906 0.956 . S
C894 H907 0.961 . S
C894 H908 0.961 . S
C895 C892 1.539 . S
C895 H909 0.958 . S
C895 H910 0.961 . S
C895 H911 0.960 . S
H896 C880 0.931 . S
H897 C885 0.929 1_554 S
H898 C886 0.960 . S
H899 C886 0.962 . S
H900 C886 0.960 . S
H901 C887 0.961 1_554 S
H902 C887 0.961 . S
H903 C887 0.961 . S
H904 C888 0.931 . S
H905 C893 0.930 . S
H906 C894 0.956 . S
H907 C894 0.961 . S
H908 C894 0.961 . S
H909 C895 0.958 . S
H910 C895 0.961 . S
H911 C895 0.960 . S
C912 C913 1.391 . S
C912 C914 1.394 . S
C912 H928 0.931 . S
C913 C912 1.391 . S
C913 C917 1.376 . S
C914 C912 1.394 . S
C914 C915 1.369 . S
C914 C918 1.531 . S
C915 C914 1.369 . S
C915 C916 1.410 . S
C915 C923 1.503 . S
C916 C915 1.410 . S
C916 C917 1.392 . S
C916 C919 1.511 . S
C917 C913 1.376 . S
C917 C916 1.392 . S
C917 H929 0.929 . S
C918 C914 1.531 . S
C918 H930 0.960 . S
C918 H931 0.962 . S
C918 H932 0.960 . S
C919 C916 1.511 . S
C919 H933 0.961 . S
C919 H934 0.961 . S
C919 H935 0.961 . S
C920 C921 1.370 . S
C920 C922 1.363 . S
C920 H936 0.931 . S
C921 C920 1.370 . S
C921 C925 1.408 . S
C922 C920 1.363 . S
C922 C923 1.370 . S
C922 C926 1.524 . S
C923 C915 1.503 . S
C923 C922 1.370 . S
C923 C924 1.403 . S
C924 C923 1.403 . S
C924 C925 1.404 . S
C924 C927 1.539 . S
C925 C921 1.408 . S
C925 C924 1.404 . S
C925 H937 0.930 . S
C926 C922 1.524 . S
C926 H938 0.956 . S
C926 H939 0.961 . S
C926 H940 0.961 . S
C927 C924 1.539 . S
C927 H941 0.958 . S
C927 H942 0.961 . S
C927 H943 0.960 . S
H928 C912 0.931 . S
H929 C917 0.929 . S
H930 C918 0.960 . S
H931 C918 0.962 . S
H932 C918 0.960 . S
H933 C919 0.961 . S
H934 C919 0.961 . S
H935 C919 0.961 . S
H936 C920 0.931 . S
H937 C925 0.930 . S
H938 C926 0.956 . S
H939 C926 0.961 . S
H940 C926 0.961 . S
H941 C927 0.958 . S
H942 C927 0.961 . S
H943 C927 0.960 . S
C944 C945 1.391 1_655 S
C944 C946 1.394 . S
C944 H960 0.931 . S
C945 C944 1.391 1_455 S
C945 C949 1.376 . S
C946 C944 1.394 . S
C946 C947 1.369 1_655 S
C946 C950 1.531 . S
C947 C946 1.369 1_455 S
C947 C948 1.410 . S
C947 C955 1.503 . S
C948 C947 1.410 . S
C948 C949 1.392 . S
C948 C951 1.511 . S
C949 C945 1.376 . S
C949 C948 1.392 . S
C949 H961 0.929 . S
C950 C946 1.531 . S
C950 H962 0.960 1_554 S
C950 H963 0.962 . S
C950 H964 0.960 1_554 S
C951 C948 1.511 . S
C951 H965 0.961 . S
C951 H966 0.961 . S
C951 H967 0.961 . S
C952 C953 1.392 1_554 S
C952 C954 1.364 1_455 S
C952 H968 0.910 1_455 S
C953 C952 1.392 1_556 S
C953 C957 1.408 . S
C954 C952 1.364 1_655 S
C954 C955 1.372 1_655 S
C954 C958 1.522 . S
C955 C947 1.503 . S
C955 C954 1.372 1_455 S
C955 C956 1.403 1_554 S
C956 C955 1.403 1_556 S
C956 C957 1.404 . S
C956 C959 1.539 . S
C957 C953 1.408 . S
C957 C956 1.404 . S
C957 H969 0.930 . S
C958 C954 1.522 . S
C958 H970 0.956 . S
C958 H971 0.969 . S
C958 H972 0.961 . S
C959 C956 1.539 . S
C959 H973 0.958 . S
C959 H974 0.961 . S
C959 H975 0.960 . S
H960 C944 0.931 . S
H961 C949 0.929 . S
H962 C950 0.960 1_556 S
H963 C950 0.962 . S
H964 C950 0.960 1_556 S
H965 C951 0.961 . S
H966 C951 0.961 . S
H967 C951 0.961 . S
H968 C952 0.910 1_655 S
H969 C957 0.930 . S
H970 C958 0.956 . S
H971 C958 0.969 . S
H972 C958 0.961 . S
H973 C959 0.958 . S
H974 C959 0.961 . S
H975 C959 0.960 . S
C976 C977 1.391 . S
C976 C978 1.394 . S
C976 H992 0.931 . S
C977 C976 1.391 . S
C977 C981 1.376 . S
C978 C976 1.394 . S
C978 C979 1.369 . S
C978 C982 1.531 1_554 S
C979 C978 1.369 . S
C979 C980 1.410 . S
C979 C987 1.503 . S
C980 C979 1.410 . S
C980 C981 1.392 . S
C980 C983 1.511 . S
C981 C977 1.376 . S
C981 C980 1.392 . S
C981 H993 0.929 . S
C982 C978 1.531 1_556 S
C982 H994 0.960 . S
C982 H995 0.962 . S
C982 H996 0.960 . S
C983 C980 1.511 . S
C983 H997 0.961 . S
C983 H998 0.961 . S
C983 H999 0.961 . S
C984 C985 1.370 1_554 S
C984 C986 1.363 . S
C984 H1000 0.931 . S
C985 C984 1.370 1_556 S
C985 C989 1.408 . S
C986 C984 1.363 . S
C986 C987 1.370 . S
C986 C990 1.524 . S
C987 C979 1.503 . S
C987 C986 1.370 . S
C987 C988 1.403 . S
C988 C987 1.403 . S
C988 C989 1.404 1_554 S
C988 C991 1.539 . S
C989 C985 1.408 . S
C989 C988 1.404 1_556 S
C989 H1001 0.930 . S
C990 C986 1.524 . S
C990 H1002 0.956 . S
C990 H1003 0.961 . S
C990 H1004 0.961 . S
C991 C988 1.539 . S
C991 H1005 0.958 1_554 S
C991 H1006 0.961 . S
C991 H1007 0.960 . S
H992 C976 0.931 . S
H993 C981 0.929 . S
H994 C982 0.960 . S
H995 C982 0.962 . S
H996 C982 0.960 . S
H997 C983 0.961 . S
H998 C983 0.961 . S
H999 C983 0.961 . S
H1000 C984 0.931 . S
H1001 C989 0.930 . S
H1002 C990 0.956 . S
H1003 C990 0.961 . S
H1004 C990 0.961 . S
H1005 C991 0.958 1_556 S
H1006 C991 0.961 . S
H1007 C991 0.960 . S
C1008 C1009 1.391 . S
C1008 C1010 1.394 . S
C1008 H1024 0.931 . S
C1009 C1008 1.391 . S
C1009 C1013 1.376 . S
C1010 C1008 1.394 . S
C1010 C1011 1.369 . S
C1010 C1014 1.531 . S
C1011 C1010 1.369 . S
C1011 C1012 1.410 . S
C1011 C1019 1.497 1_554 S
C1012 C1011 1.410 . S
C1012 C1013 1.392 . S
C1012 C1015 1.511 . S
C1013 C1009 1.376 . S
C1013 C1012 1.392 . S
C1013 H1025 0.929 . S
C1014 C1010 1.531 . S
C1014 H1026 0.960 . S
C1014 H1027 0.962 . S
C1014 H1028 0.960 . S
C1015 C1012 1.511 . S
C1015 H1029 0.961 . S
C1015 H1030 0.961 1_554 S
C1015 H1031 0.961 . S
C1016 C1017 1.370 . S
C1016 C1018 1.363 . S
C1016 H1032 0.931 . S
C1017 C1016 1.370 . S
C1017 C1021 1.408 . S
C1018 C1016 1.363 . S
C1018 C1019 1.381 . S
C1018 C1022 1.524 . S
C1019 C1011 1.497 1_556 S
C1019 C1018 1.381 . S
C1019 C1020 1.398 1_556 S
C1020 C1019 1.398 1_554 S
C1020 C1021 1.404 1_554 S
C1020 C1023 1.539 . S
C1021 C1017 1.408 . S
C1021 C1020 1.404 1_556 S
C1021 H1033 0.930 . S
C1022 C1018 1.524 . S
C1022 H1034 0.956 . S
C1022 H1035 0.961 . S
C1022 H1036 0.961 . S
C1023 C1020 1.539 . S
C1023 H1037 0.958 . S
C1023 H1038 0.961 . S
C1023 H1039 0.960 . S
H1024 C1008 0.931 . S
H1025 C1013 0.929 . S
H1026 C1014 0.960 . S
H1027 C1014 0.962 . S
H1028 C1014 0.960 . S
H1029 C1015 0.961 . S
H1030 C1015 0.961 1_556 S
H1031 C1015 0.961 . S
H1032 C1016 0.931 . S
H1033 C1021 0.930 . S
H1034 C1022 0.956 . S
H1035 C1022 0.961 . S
H1036 C1022 0.961 . S
H1037 C1023 0.958 . S
H1038 C1023 0.961 . S
H1039 C1023 0.960 . S
C1040 C1041 1.391 . S
C1040 C1042 1.394 . S
C1040 H1056 0.931 . S
C1041 C1040 1.391 . S
C1041 C1045 1.376 . S
C1042 C1040 1.394 . S
C1042 C1043 1.369 . S
C1042 C1046 1.531 1_554 S
C1043 C1042 1.369 . S
C1043 C1044 1.410 . S
C1043 C1051 1.503 1_554 S
C1044 C1043 1.410 . S
C1044 C1045 1.392 . S
C1044 C1047 1.511 . S
C1045 C1041 1.376 . S
C1045 C1044 1.392 . S
C1045 H1057 0.929 . S
C1046 C1042 1.531 1_556 S
C1046 H1058 0.960 . S
C1046 H1059 0.962 . S
C1046 H1060 0.960 . S
C1047 C1044 1.511 . S
C1047 H1061 0.961 . S
C1047 H1062 0.961 . S
C1047 H1063 0.961 . S
C1048 C1049 1.370 . S
C1048 C1050 1.363 . S
C1048 H1064 0.931 . S
C1049 C1048 1.370 . S
C1049 C1053 1.408 . S
C1050 C1048 1.363 . S
C1050 C1051 1.370 . S
C1050 C1054 1.524 1_556 S
C1051 C1043 1.503 1_556 S
C1051 C1050 1.370 . S
C1051 C1052 1.403 . S
C1052 C1051 1.403 . S
C1052 C1053 1.404 . S
C1052 C1055 1.539 . S
C1053 C1049 1.408 . S
C1053 C1052 1.404 . S
C1053 H1065 0.930 . S
C1054 C1050 1.524 1_554 S
C1054 H1066 0.956 . S
C1054 H1067 0.961 . S
C1054 H1068 0.961 . S
C1055 C1052 1.539 . S
C1055 H1069 0.958 . S
C1055 H1070 0.961 . S
C1055 H1071 0.960 . S
H1056 C1040 0.931 . S
H1057 C1045 0.929 . S
H1058 C1046 0.960 . S
H1059 C1046 0.962 . S
H1060 C1046 0.960 . S
H1061 C1047 0.961 . S
H1062 C1047 0.961 . S
H1063 C1047 0.961 . S
H1064 C1048 0.931 . S
H1065 C1053 0.930 . S
H1066 C1054 0.956 . S
H1067 C1054 0.961 . S
H1068 C1054 0.961 . S
H1069 C1055 0.958 . S
H1070 C1055 0.961 . S
H1071 C1055 0.960 . S
C1072 C1073 1.391 1_455 S
C1072 C1074 1.394 . S
C1072 H1088 0.931 . S
C1073 C1072 1.391 1_655 S
C1073 C1077 1.376 . S
C1074 C1072 1.394 . S
C1074 C1075 1.369 1_455 S
C1074 C1078 1.531 . S
C1075 C1074 1.369 1_655 S
C1075 C1076 1.410 . S
C1075 C1083 1.503 . S
C1076 C1075 1.410 . S
C1076 C1077 1.392 . S
C1076 C1079 1.511 . S
C1077 C1073 1.376 . S
C1077 C1076 1.392 . S
C1077 H1089 0.929 . S
C1078 C1074 1.531 . S
C1078 H1090 0.960 . S
C1078 H1091 0.962 . S
C1078 H1092 0.960 . S
C1079 C1076 1.511 . S
C1079 H1093 0.961 . S
C1079 H1094 0.961 . S
C1079 H1095 0.961 . S
C1080 C1081 1.363 1_455 S
C1080 C1082 1.363 . S
C1080 H1096 0.938 . S
C1081 C1080 1.363 1_655 S
C1081 C1085 1.408 . S
C1082 C1080 1.363 . S
C1082 C1083 1.370 1_455 S
C1082 C1086 1.524 . S
C1083 C1075 1.503 . S
C1083 C1082 1.370 1_655 S
C1083 C1084 1.403 . S
C1084 C1083 1.403 . S
C1084 C1085 1.404 . S
C1084 C1087 1.539 . S
C1085 C1081 1.408 . S
C1085 C1084 1.404 . S
C1085 H1097 0.930 . S
C1086 C1082 1.524 . S
C1086 H1098 0.956 . S
C1086 H1099 0.961 . S
C1086 H1100 0.961 . S
C1087 C1084 1.539 . S
C1087 H1101 0.958 . S
C1087 H1102 0.961 . S
C1087 H1103 0.960 . S
H1088 C1072 0.931 . S
H1089 C1077 0.929 . S
H1090 C1078 0.960 . S
H1091 C1078 0.962 . S
H1092 C1078 0.960 . S
H1093 C1079 0.961 . S
H1094 C1079 0.961 . S
H1095 C1079 0.961 . S
H1096 C1080 0.938 . S
H1097 C1085 0.930 . S
H1098 C1086 0.956 . S
H1099 C1086 0.961 . S
H1100 C1086 0.961 . S
H1101 C1087 0.958 . S
H1102 C1087 0.961 . S
H1103 C1087 0.960 . S
C1104 C1105 1.391 . S
C1104 C1106 1.394 . S
C1104 H1120 0.931 . S
C1105 C1104 1.391 . S
C1105 C1109 1.376 . S
C1106 C1104 1.394 . S
C1106 C1107 1.369 . S
C1106 C1110 1.531 . S
C1107 C1106 1.369 . S
C1107 C1108 1.410 . S
C1107 C1115 1.503 . S
C1108 C1107 1.410 . S
C1108 C1109 1.392 . S
C1108 C1111 1.511 . S
C1109 C1105 1.376 . S
C1109 C1108 1.392 . S
C1109 H1121 0.929 . S
C1110 C1106 1.531 . S
C1110 H1122 0.960 . S
C1110 H1123 0.962 . S
C1110 H1124 0.960 . S
C1111 C1108 1.511 . S
C1111 H1125 0.961 . S
C1111 H1126 0.961 . S
C1111 H1127 0.961 . S
C1112 C1113 1.370 . S
C1112 C1114 1.363 . S
C1112 H1128 0.931 . S
C1113 C1112 1.370 . S
C1113 C1117 1.408 . S
C1114 C1112 1.363 . S
C1114 C1115 1.370 . S
C1114 C1118 1.524 . S
C1115 C1107 1.503 . S
C1115 C1114 1.370 . S
C1115 C1116 1.403 . S
C1116 C1115 1.403 . S
C1116 C1117 1.404 . S
C1116 C1119 1.527 1_565 S
C1117 C1113 1.408 . S
C1117 C1116 1.404 . S
C1117 H1129 0.930 1_565 S
C1118 C1114 1.524 . S
C1118 H1130 0.956 . S
C1118 H1131 0.961 . S
C1118 H1132 0.961 . S
C1119 C1116 1.527 1_545 S
C1119 H1133 0.958 1_545 S
C1119 H1134 0.976 . S
C1119 H1135 0.951 1_545 S
H1120 C1104 0.931 . S
H1121 C1109 0.929 . S
H1122 C1110 0.960 . S
H1123 C1110 0.962 . S
H1124 C1110 0.960 . S
H1125 C1111 0.961 . S
H1126 C1111 0.961 . S
H1127 C1111 0.961 . S
H1128 C1112 0.931 . S
H1129 C1117 0.930 1_545 S
H1130 C1118 0.956 . S
H1131 C1118 0.961 . S
H1132 C1118 0.961 . S
H1133 C1119 0.958 1_565 S
H1134 C1119 0.976 . S
H1135 C1119 0.951 1_565 S
C1136 C1137 1.391 . S
C1136 C1138 1.394 . S
C1136 H1152 0.931 . S
C1137 C1136 1.391 . S
C1137 C1141 1.376 . S
C1138 C1136 1.394 . S
C1138 C1139 1.369 . S
C1138 C1142 1.531 . S
C1139 C1138 1.369 . S
C1139 C1140 1.410 . S
C1139 C1147 1.503 . S
C1140 C1139 1.410 . S
C1140 C1141 1.392 . S
C1140 C1143 1.511 . S
C1141 C1137 1.376 . S
C1141 C1140 1.392 . S
C1141 H1153 0.929 . S
C1142 C1138 1.531 . S
C1142 H1154 0.960 . S
C1142 H1155 0.962 . S
C1142 H1156 0.960 . S
C1143 C1140 1.511 . S
C1143 H1157 0.961 . S
C1143 H1158 0.961 . S
C1143 H1159 0.961 . S
C1144 C1145 1.370 . S
C1144 C1146 1.363 . S
C1144 H1160 0.931 . S
C1145 C1144 1.370 . S
C1145 C1149 1.408 . S
C1146 C1144 1.363 . S
C1146 C1147 1.370 . S
C1146 C1150 1.524 . S
C1147 C1139 1.503 . S
C1147 C1146 1.370 . S
C1147 C1148 1.403 . S
C1148 C1147 1.403 . S
C1148 C1149 1.404 . S
C1148 C1151 1.539 . S
C1149 C1145 1.408 . S
C1149 C1148 1.404 . S
C1149 H1161 0.930 . S
C1150 C1146 1.524 . S
C1150 H1162 0.956 . S
C1150 H1163 0.961 . S
C1150 H1164 0.961 . S
C1151 C1148 1.539 . S
C1151 H1165 0.958 . S
C1151 H1166 0.961 . S
C1151 H1167 0.960 . S
H1152 C1136 0.931 . S
H1153 C1141 0.929 . S
H1154 C1142 0.960 . S
H1155 C1142 0.962 . S
H1156 C1142 0.960 . S
H1157 C1143 0.961 . S
H1158 C1143 0.961 . S
H1159 C1143 0.961 . S
H1160 C1144 0.931 . S
H1161 C1149 0.930 . S
H1162 C1150 0.956 . S
H1163 C1150 0.961 . S
H1164 C1150 0.961 . S
H1165 C1151 0.958 . S
H1166 C1151 0.961 . S
H1167 C1151 0.960 . S
C1168 C1169 1.391 . S
C1168 C1170 1.394 . S
C1168 H1184 0.931 . S
C1169 C1168 1.391 . S
C1169 C1173 1.376 . S
C1170 C1168 1.394 . S
C1170 C1171 1.369 . S
C1170 C1174 1.531 . S
C1171 C1170 1.369 . S
C1171 C1172 1.410 . S
C1171 C1179 1.503 . S
C1172 C1171 1.410 . S
C1172 C1173 1.392 . S
C1172 C1175 1.511 . S
C1173 C1169 1.376 . S
C1173 C1172 1.392 . S
C1173 H1185 0.929 . S
C1174 C1170 1.531 . S
C1174 H1186 0.960 . S
C1174 H1187 0.962 . S
C1174 H1188 0.960 . S
C1175 C1172 1.511 . S
C1175 H1189 0.961 . S
C1175 H1190 0.961 . S
C1175 H1191 0.961 . S
C1176 C1177 1.370 . S
C1176 C1178 1.363 . S
C1176 H1192 0.931 . S
C1177 C1176 1.370 . S
C1177 C1181 1.408 . S
C1178 C1176 1.363 . S
C1178 C1179 1.370 . S
C1178 C1182 1.524 . S
C1179 C1171 1.503 . S
C1179 C1178 1.370 . S
C1179 C1180 1.403 . S
C1180 C1179 1.403 . S
C1180 C1181 1.404 . S
C1180 C1183 1.539 . S
C1181 C1177 1.408 . S
C1181 C1180 1.404 . S
C1181 H1193 0.930 . S
C1182 C1178 1.524 . S
C1182 H1194 0.956 . S
C1182 H1195 0.961 . S
C1182 H1196 0.961 . S
C1183 C1180 1.539 . S
C1183 H1197 0.958 . S
C1183 H1198 0.961 . S
C1183 H1199 0.960 . S
H1184 C1168 0.931 . S
H1185 C1173 0.929 . S
H1186 C1174 0.960 . S
H1187 C1174 0.962 . S
H1188 C1174 0.960 . S
H1189 C1175 0.961 . S
H1190 C1175 0.961 . S
H1191 C1175 0.961 . S
H1192 C1176 0.931 . S
H1193 C1181 0.930 . S
H1194 C1182 0.956 . S
H1195 C1182 0.961 . S
H1196 C1182 0.961 . S
H1197 C1183 0.958 . S
H1198 C1183 0.961 . S
H1199 C1183 0.960 . S
C433 C255 1.842 . S
C441 C322 1.851 . S
C473 C352 1.750 . S
C465 C294 1.714 . S
C505 N386 1.759 . S
C497 C177 1.702 . S
C537 N416 1.340 . S
C529 C216 1.432 . S
C569 C313 1.854 1_565 S
C561 C99 1.861 . S
C593 C138 1.718 . S
C601 C343 1.746 . S
C625 C21 1.776 . S
C633 N378 1.752 . S
C657 C60 1.392 1_455 S
C665 N408 1.357 . S
C697 C328 0.463 . S
C689 C196 0.481 1_455 S
C729 C358 0.640 . S
C721 C235 0.743 . S
C761 C399 0.522 . S
C753 C289 0.614 . S
C785 C157 0.725 . S
C793 C429 0.591 . S
C817 C40 0.441 . S
C825 C339 0.490 . S
C857 C369 0.634 . S
C849 C79 0.716 . S
C889 C388 0.520 . S
C881 C133 0.558 . S
C913 C1 0.733 . S
C921 C418 0.580 . S
C945 C211 1.664 . S
C953 N318 1.707 . S
C977 C250 1.779 . S
C985 N348 1.851 . S
C1017 C373 1.899 . S
C1009 C274 1.784 . S
C1049 C403 2.140 . S
C1041 C172 2.047 . S
C1073 C55 1.603 1_655 S
C1081 N326 1.707 . S
C1113 N356 1.834 . S
C1105 C94 1.769 . S
C1145 C382 1.891 . S
C1137 C118 1.842 . S
C1169 C16 2.000 . S
C1177 C412 2.149 . S
