# Generated by pormake.
# Topology zzz, (3,6)-cn, num edge types: 1
# Building blocks:
#     Node 0, Type 0, BuildingBlock: BELTOD_clean_linker_0, # of connection points: 3
#     Node 1, Type 0, BuildingBlock: BELTOD_clean_linker_0, # of connection points: 3
#     Node 2, Type 0, BuildingBlock: BELTOD_clean_linker_0, # of connection points: 3
#     Node 3, Type 0, BuildingBlock: BELTOD_clean_linker_0, # of connection points: 3
#     Node 4, Type 0, BuildingBlock: BELTOD_clean_linker_0, # of connection points: 3
#     Node 5, Type 0, BuildingBlock: BELTOD_clean_linker_0, # of connection points: 3
#     Node 6, Type 0, BuildingBlock: BELTOD_clean_linker_0, # of connection points: 3
#     Node 7, Type 0, BuildingBlock: BELTOD_clean_linker_0, # of connection points: 3
#     Node 8, Type 1, BuildingBlock: KUMBOL_clean_sbu_1, # of connection points: 6
#     Node 9, Type 1, BuildingBlock: KUMBOL_clean_sbu_1, # of connection points: 6
#     Node 10, Type 1, BuildingBlock: KUMBOL_clean_sbu_1, # of connection points: 6
#     Node 11, Type 1, BuildingBlock: KUMBOL_clean_sbu_1, # of connection points: 6
#     Edge 12, Type (0, 1), BuildingBlock: UVAHIK_clean_linker_0, # of connection points: 2
#     Edge 13, Type (0, 1), BuildingBlock: UVAHIK_clean_linker_0, # of connection points: 2
#     Edge 14, Type (0, 1), BuildingBlock: UVAHIK_clean_linker_0, # of connection points: 2
#     Edge 15, Type (0, 1), BuildingBlock: UVAHIK_clean_linker_0, # of connection points: 2
#     Edge 16, Type (0, 1), BuildingBlock: UVAHIK_clean_linker_0, # of connection points: 2
#     Edge 17, Type (0, 1), BuildingBlock: UVAHIK_clean_linker_0, # of connection points: 2
#     Edge 18, Type (0, 1), BuildingBlock: UVAHIK_clean_linker_0, # of connection points: 2
#     Edge 19, Type (0, 1), BuildingBlock: UVAHIK_clean_linker_0, # of connection points: 2
#     Edge 20, Type (0, 1), BuildingBlock: UVAHIK_clean_linker_0, # of connection points: 2
#     Edge 21, Type (0, 1), BuildingBlock: UVAHIK_clean_linker_0, # of connection points: 2
#     Edge 22, Type (0, 1), BuildingBlock: UVAHIK_clean_linker_0, # of connection points: 2
#     Edge 23, Type (0, 1), BuildingBlock: UVAHIK_clean_linker_0, # of connection points: 2
#     Edge 24, Type (0, 1), BuildingBlock: UVAHIK_clean_linker_0, # of connection points: 2
#     Edge 25, Type (0, 1), BuildingBlock: UVAHIK_clean_linker_0, # of connection points: 2
#     Edge 26, Type (0, 1), BuildingBlock: UVAHIK_clean_linker_0, # of connection points: 2
#     Edge 27, Type (0, 1), BuildingBlock: UVAHIK_clean_linker_0, # of connection points: 2
#     Edge 28, Type (0, 1), BuildingBlock: UVAHIK_clean_linker_0, # of connection points: 2
#     Edge 29, Type (0, 1), BuildingBlock: UVAHIK_clean_linker_0, # of connection points: 2
#     Edge 30, Type (0, 1), BuildingBlock: UVAHIK_clean_linker_0, # of connection points: 2
#     Edge 31, Type (0, 1), BuildingBlock: UVAHIK_clean_linker_0, # of connection points: 2
#     Edge 32, Type (0, 1), BuildingBlock: UVAHIK_clean_linker_0, # of connection points: 2
#     Edge 33, Type (0, 1), BuildingBlock: UVAHIK_clean_linker_0, # of connection points: 2
#     Edge 34, Type (0, 1), BuildingBlock: UVAHIK_clean_linker_0, # of connection points: 2
#     Edge 35, Type (0, 1), BuildingBlock: UVAHIK_clean_linker_0, # of connection points: 2
# Relax obj value: 0.273
# Max RMSD: 0.195
# Mean RMSD: 0.170
data_MOF--net-zzz--node1-KUMBOL_clean_sbu_1--node2-BELTOD_clean_linker_0--edge1-UVAHIK_clean_linker_0
_symmetry_space_group_name_H-M    P1
_symmetry_Int_Tables_number       1
_symmetry_cell_setting            triclinic
loop_
_symmetry_equiv_pos_as_xyz
'x, y, z'
_cell_length_a     67.074331
_cell_length_b     67.239596
_cell_length_c     24.655711
_cell_angle_alpha  90.090567
_cell_angle_beta   89.873043
_cell_angle_gamma 90.438012
loop_
_atom_site_label
_atom_site_type_symbol
_atom_site_fract_x
_atom_site_fract_y
_atom_site_fract_z
_atom_type_partial_charge
P0 P 0.7275 0.50801 0.21463 0.0
H1 H 0.74232 0.49045 0.3145 0.0
H2 H 0.77239 0.49655 0.36682 0.0
H3 H 0.78342 0.5504 0.27625 0.0
H4 H 0.7529 0.54421 0.22341 0.0
H5 H 0.6843 0.50532 0.23029 0.0
H6 H 0.65741 0.51789 0.17474 0.0
H7 H 0.69869 0.55818 0.09571 0.0
H8 H 0.72582 0.54489 0.15064 0.0
H9 H 0.77033 0.50427 0.18704 0.0
H10 H 0.7136 0.4975 0.10625 0.0
O11 O 0.71759 0.48672 0.23717 0.0
H12 H 0.7875 0.49871 0.10152 0.0
H13 H 0.73087 0.49196 0.02021 0.0
C14 C 0.74517 0.5169 0.26493 0.0
C15 C 0.75072 0.50396 0.30677 0.0
C16 C 0.76813 0.50734 0.33646 0.0
C17 C 0.78053 0.52374 0.32504 0.0
C18 C 0.77417 0.53763 0.28609 0.0
C19 C 0.75663 0.53419 0.2561 0.0
C20 C 0.7072 0.52401 0.19453 0.0
C21 C 0.68753 0.5174 0.20256 0.0
C22 C 0.67203 0.52465 0.17042 0.0
C23 C 0.67585 0.53877 0.12951 0.0
C24 C 0.69523 0.54695 0.12577 0.0
C25 C 0.71075 0.53963 0.15801 0.0
C26 C 0.7406 0.50204 0.15288 0.0
C27 C 0.76149 0.50181 0.15103 0.0
C28 C 0.77135 0.49861 0.10195 0.0
C29 C 0.76051 0.49529 0.05403 0.0
C30 C 0.7396 0.49456 0.05647 0.0
C31 C 0.72974 0.49783 0.10558 0.0
P32 P 0.01757 0.73403 0.20978 0.0
H33 H 0.03647 0.74963 0.30773 0.0
H34 H 0.02836 0.77738 0.36642 0.0
H35 H 0.97058 0.78182 0.29057 0.0
H36 H 0.979 0.75383 0.23087 0.0
H37 H 0.03078 0.69277 0.21706 0.0
H38 H 0.02017 0.66369 0.16632 0.0
H39 H 0.96644 0.69413 0.11891 0.0
H40 H 0.97769 0.72366 0.16853 0.0
H41 H 0.01135 0.77641 0.18194 0.0
H42 H 0.02328 0.72138 0.09767 0.0
O43 O 0.04159 0.72941 0.22158 0.0
H44 H 0.00839 0.79348 0.09549 0.0
H45 H 0.02058 0.73863 0.01081 0.0
C46 C 0.00838 0.74955 0.26456 0.0
C47 C 0.02178 0.75607 0.30457 0.0
C48 C 0.0171 0.77208 0.33842 0.0
C49 C 0.99888 0.78211 0.33301 0.0
C50 C 0.98487 0.77466 0.29539 0.0
C51 C 0.98953 0.75843 0.26173 0.0
C52 C 0.00511 0.71054 0.19658 0.0
C53 C 0.01634 0.69302 0.19759 0.0
C54 C 0.01021 0.67625 0.16819 0.0
C55 C 0.99261 0.67657 0.13718 0.0
C56 C 0.98033 0.69346 0.14109 0.0
C57 C 0.98654 0.71028 0.17048 0.0
C58 C 0.01674 0.74737 0.14648 0.0
C59 C 0.01302 0.76785 0.14509 0.0
C60 C 0.01134 0.77766 0.09552 0.0
C61 C 0.01383 0.76726 0.04653 0.0
C62 C 0.01841 0.74694 0.048 0.0
C63 C 0.01989 0.7371 0.09763 0.0
P64 P 0.78633 0.02264 0.21805 0.0
H65 H 0.78033 0.03445 0.33144 0.0
H66 H 0.75333 0.026 0.39376 0.0
H67 H 0.7367 0.9765 0.29126 0.0
H68 H 0.76386 0.985 0.22901 0.0
H69 H 0.8208 0.04485 0.18051 0.0
H70 H 0.85047 0.03561 0.1309 0.0
H71 H 0.83513 0.97351 0.15005 0.0
H72 H 0.80507 0.98304 0.20127 0.0
H73 H 0.75078 0.0449 0.19176 0.0
H74 H 0.78241 0.9947 0.1258 0.0
O75 O 0.78822 0.04679 0.23334 0.0
H76 H 0.72334 0.03844 0.12931 0.0
H77 H 0.75487 0.98786 0.06453 0.0
C78 C 0.774 0.01061 0.2748 0.0
C79 C 0.77146 0.02126 0.32334 0.0
C80 C 0.75588 0.01644 0.35907 0.0
C81 C 0.74248 1.00088 0.34683 0.0
C82 C 0.74647 0.98886 0.30129 0.0
C83 C 0.76219 0.99359 0.26588 0.0
C84 C 0.8107 0.01466 0.19532 0.0
C85 C 0.82402 0.02918 0.17593 0.0
C86 C 0.84111 0.02386 0.14725 0.0
C87 C 0.84527 0.0038 0.1363 0.0
C88 C 0.83232 0.98911 0.15756 0.0
C89 C 0.81525 0.99451 0.18729 0.0
C90 C 0.76884 0.02053 0.16306 0.0
C91 C 0.75208 0.03281 0.16295 0.0
C92 C 0.73628 0.02893 0.12771 0.0
C93 C 0.73685 0.01248 0.09244 0.0
C94 C 0.75407 1.00074 0.09084 0.0
C95 C 0.7699 0.00469 0.12604 0.0
P96 P 0.50221 0.78255 0.19147 0.0
H97 H 0.48313 0.77391 0.29596 0.0
H98 H 0.48996 0.74832 0.36318 0.0
H99 H 0.54685 0.73719 0.28721 0.0
H100 H 0.53998 0.76311 0.22007 0.0
H101 H 0.4832 0.82157 0.18878 0.0
H102 H 0.49227 0.85169 0.13991 0.0
H103 H 0.5511 0.82823 0.11092 0.0
H104 H 0.54184 0.79789 0.16033 0.0
H105 H 0.50524 0.7393 0.17823 0.0
H106 H 0.50962 0.79117 0.07574 0.0
O107 O 0.47738 0.78369 0.1948 0.0
H108 H 0.51402 0.71826 0.10156 0.0
H109 H 0.51884 0.77019 0.99923 0.0
C110 C 0.5109 0.77026 0.25232 0.0
C111 C 0.49742 0.76655 0.2948 0.0
C112 C 0.50133 0.75182 0.33336 0.0
C113 C 0.51877 0.74039 0.32994 0.0
C114 C 0.53313 0.7455 0.29044 0.0
C115 C 0.52932 0.76049 0.25237 0.0
C116 C 0.51176 0.80731 0.17783 0.0
C117 C 0.49832 0.82313 0.17387 0.0
C118 C 0.50354 0.84045 0.14566 0.0
C119 C 0.5223 0.84226 0.12045 0.0
C120 C 0.53641 0.82717 0.12906 0.0
C121 C 0.53124 0.80992 0.15801 0.0
C122 C 0.50788 0.76698 0.1338 0.0
C123 C 0.50856 0.74626 0.13968 0.0
C124 C 0.51363 0.73421 0.09573 0.0
C125 C 0.51769 0.74261 0.04466 0.0
C126 C 0.51606 0.76329 0.03821 0.0
C127 C 0.51098 0.77533 0.08227 0.0
P128 P 0.27828 0.45415 0.03716 0.0
H129 H 0.27215 0.44863 0.92052 0.0
H130 H 0.24568 0.46007 0.86071 0.0
H131 H 0.22599 0.50096 0.98457 0.0
H132 H 0.25271 0.48954 0.04422 0.0
H133 H 0.31471 0.43408 0.06704 0.0
H134 H 0.34412 0.44463 0.11664 0.0
H135 H 0.32397 0.50547 0.11105 0.0
H136 H 0.29413 0.49458 0.06094 0.0
H137 H 0.24105 0.43252 0.05276 0.0
H138 H 0.27918 0.4708 0.14831 0.0
O139 O 0.28176 0.43134 0.01216 0.0
H140 H 0.21636 0.43238 0.12601 0.0
H141 H 0.2546 0.47112 0.22038 0.0
C142 C 0.26435 0.46805 0.98721 0.0
C143 C 0.26258 0.46051 0.93434 0.0
C144 C 0.24725 0.46693 0.90027 0.0
C145 C 0.23337 0.4811 0.91825 0.0
C146 C 0.23636 0.49001 0.96937 0.0
C147 C 0.25172 0.48352 1.00354 0.0
C148 C 0.3023 0.46356 0.05929 0.0
C149 C 0.31685 0.44981 0.07466 0.0
C150 C 0.33378 0.4559 0.10331 0.0
C151 C 0.33652 0.47593 0.11811 0.0
C152 C 0.3223 0.48989 0.10069 0.0
C153 C 0.30535 0.48376 0.07138 0.0
C154 C 0.26203 0.45155 0.09498 0.0
C155 C 0.24428 0.44058 0.08983 0.0
C156 C 0.23014 0.44063 0.13153 0.0
C157 C 0.2335 0.45176 0.17902 0.0
C158 C 0.25166 0.46211 0.18478 0.0
C159 C 0.26576 0.46205 0.14311 0.0
P160 P 0.07069 0.27699 0.04728 0.0
H161 H 0.07875 0.26767 0.93318 0.0
H162 H 0.06539 0.24203 0.87356 0.0
H163 H 0.01856 0.22978 0.98974 0.0
H164 H 0.03252 0.25518 0.05019 0.0
H165 H 0.08469 0.31827 0.04229 0.0
H166 H 0.07521 0.3479 0.09228 0.0
H167 H 0.02443 0.31631 0.1589 0.0
H168 H 0.03362 0.28684 0.10637 0.0
H169 H 0.08172 0.23525 0.0511 0.0
H170 H 0.06857 0.28149 0.16705 0.0
O171 O 0.09336 0.28186 0.02235 0.0
H172 H 0.08307 0.21101 0.12437 0.0
H173 H 0.06842 0.25724 0.23966 0.0
C174 C 0.05666 0.26344 0.99632 0.0
C175 C 0.06527 0.25991 0.94532 0.0
C176 C 0.05756 0.24514 0.91102 0.0
C177 C 0.04101 0.2335 0.92692 0.0
C178 C 0.03155 0.23811 0.97648 0.0
C179 C 0.03932 0.25291 0.01081 0.0
C180 C 0.06001 0.30016 0.07092 0.0
C181 C 0.07119 0.31779 0.06641 0.0
C182 C 0.06588 0.33475 0.09583 0.0
C183 C 0.04938 0.33445 0.13121 0.0
C184 C 0.03725 0.31721 0.13225 0.0
C185 C 0.04245 0.30028 0.10201 0.0
C186 C 0.0741 0.26003 0.10306 0.0
C187 C 0.07898 0.24019 0.09228 0.0
C188 C 0.07965 0.2263 0.13426 0.0
C189 C 0.07534 0.23199 0.18797 0.0
C190 C 0.0718 0.25221 0.19897 0.0
C191 C 0.07147 0.26613 0.157 0.0
P192 P 0.23011 0.06666 0.99278 0.0
H193 H 0.23333 0.05794 0.87606 0.0
H194 H 0.26005 0.04254 0.82415 0.0
H195 H 0.28683 0.02257 0.9739 0.0
H196 H 0.25918 0.03638 0.02431 0.0
H197 H 0.19752 0.08892 0.03774 0.0
H198 H 0.17008 0.08044 0.0976 0.0
H199 H 0.18568 0.01825 0.08566 0.0
H200 H 0.21406 0.02728 0.0273 0.0
H201 H 0.2668 0.08948 0.9829 0.0
H202 H 0.23244 0.0624 0.11172 0.0
O203 O 0.22437 0.08552 0.95191 0.0
H204 H 0.29567 0.09166 0.04315 0.0
H205 H 0.26101 0.06481 0.17173 0.0
C206 C 0.24436 0.04866 0.95426 0.0
C207 C 0.24453 0.04952 0.89746 0.0
C208 C 0.26019 0.04102 0.86782 0.0
C209 C 0.27633 0.03187 0.89443 0.0
C210 C 0.27494 0.0294 0.95117 0.0
C211 C 0.25898 0.03741 0.98049 0.0
C212 C 0.20757 0.05871 0.02697 0.0
C213 C 0.19478 0.07338 0.04692 0.0
C214 C 0.17895 0.06844 0.0813 0.0
C215 C 0.17533 0.04857 0.09661 0.0
C216 C 0.188 0.03375 0.0754 0.0
C217 C 0.20409 0.03881 0.04129 0.0
C218 C 0.24746 0.07578 0.04264 0.0
C219 C 0.26515 0.08491 0.0248 0.0
C220 C 0.28165 0.08605 0.05908 0.0
C221 C 0.28057 0.07824 0.11182 0.0
C222 C 0.2622 0.0711 0.13141 0.0
C223 C 0.2458 0.0697 0.09688 0.0
P224 P 0.45577 0.24548 0.05839 0.0
H225 H 0.43558 0.26523 0.9692 0.0
H226 H 0.44627 0.29082 0.90637 0.0
H227 H 0.50732 0.2828 0.9572 0.0
H228 H 0.49621 0.25733 0.02186 0.0
H229 H 0.44024 0.2047 0.05421 0.0
H230 H 0.45007 0.17507 0.10393 0.0
H231 H 0.50501 0.20414 0.15071 0.0
H232 H 0.49507 0.23389 0.10062 0.0
H233 H 0.46537 0.28805 0.07513 0.0
H234 H 0.45255 0.23653 0.17397 0.0
O235 O 0.43126 0.24203 0.05083 0.0
H236 H 0.47421 0.30688 0.15597 0.0
H237 H 0.46172 0.25533 0.25512 0.0
C238 C 0.46509 0.25905 1.0 0.0
C239 C 0.45137 0.26842 0.9658 0.0
C240 C 0.45757 0.28321 0.92957 0.0
C241 C 0.47771 0.28913 0.92657 0.0
C242 C 0.49164 0.2789 0.95879 0.0
C243 C 0.48537 0.26403 0.99523 0.0
C244 C 0.46685 0.22165 0.0737 0.0
C245 C 0.45474 0.20455 0.07341 0.0
C246 C 0.46028 0.18762 0.10249 0.0
C247 C 0.47811 0.18739 0.1324 0.0
C248 C 0.49117 0.20381 0.12816 0.0
C249 C 0.48557 0.22081 0.09906 0.0
C250 C 0.45912 0.26057 0.11817 0.0
C251 C 0.46448 0.2807 0.11404 0.0
C252 C 0.46952 0.29152 0.1604 0.0
C253 C 0.46911 0.28243 0.21172 0.0
C254 C 0.46226 0.26271 0.21613 0.0
C255 C 0.45718 0.25191 0.16968 0.0
C256 C 0.06102 0.03785 0.68706 0.0
C257 C 0.05272 0.04839 0.77851 0.0
C258 C 0.04944 0.03593 0.73335 0.0
C259 C 0.06737 0.06339 0.77558 0.0
C260 C 0.07642 0.05222 0.68498 0.0
C261 C 0.07919 0.06531 0.72888 0.0
N262 N 0.05804 0.02483 0.64557 0.0
C263 C 0.07147 0.0239 0.60395 0.0
C264 C 0.08904 0.05253 0.63972 0.0
C265 C 0.08681 0.03801 0.59959 0.0
Gd266 Gd 0.98505 0.02258 0.56475 0.0
Gd267 Gd 0.03053 1.00299 0.65501 0.0
N268 N 0.03515 0.02155 0.73452 0.0
C269 C 0.04135 0.0452 0.82546 0.0
C270 C 0.02464 0.01772 0.78083 0.0
C271 C 0.02743 0.02961 0.82685 0.0
H272 H 0.01388 0.00569 0.78181 0.0
H273 H 0.01881 0.0268 0.86323 0.0
H274 H 0.00427 0.04096 0.44814 0.0
H275 H 0.07073 0.01205 0.57457 0.0
H276 H 0.00841 0.03012 0.35318 0.0
H277 H 0.04342 0.05445 0.86105 0.0
H278 H 0.06996 0.07329 0.80959 0.0
H279 H 0.94604 0.99769 0.61412 0.0
H280 H 0.10106 0.06332 0.63655 0.0
H281 H 0.0971 0.03747 0.56575 0.0
H282 H 0.96747 0.97143 0.34034 0.0
H283 H 0.0908 0.0766 0.72773 0.0
H284 H 0.92658 0.95548 0.49438 0.0
H285 H 0.92309 0.97053 0.58564 0.0
N286 N 0.96232 0.9975 0.54014 0.0
C287 C 0.96368 0.99033 0.48884 0.0
C288 C 0.94749 0.99119 0.57418 0.0
C289 C 0.93658 0.96738 0.50664 0.0
C290 C 0.93454 0.97586 0.55818 0.0
C291 C 0.9511 0.9748 0.47092 0.0
H292 H 0.94371 0.9555 0.40328 0.0
N293 N 0.98765 0.01531 0.47144 0.0
C294 C 0.97704 0.99931 0.45362 0.0
C295 C 0.9903 0.00376 0.36325 0.0
C296 C 0.97821 0.99297 0.39916 0.0
C297 C 0.99784 0.02697 0.4354 0.0
C298 C 0.99982 0.0211 0.38121 0.0
O299 O 0.01381 0.03106 0.677 0.0
O300 O 0.00838 0.04447 0.59403 0.0
O301 O 0.96647 0.04244 0.51773 0.0
O302 O 0.96291 0.04089 0.60464 0.0
O303 O 0.99999 0.99387 0.68717 0.0
O304 O 0.978 0.01736 0.65339 0.0
O305 O 0.98817 0.98941 0.58209 0.0
O306 O 0.02182 0.98598 0.57989 0.0
O307 O 0.02966 0.97507 0.69897 0.0
O308 O 0.05802 0.98794 0.6754 0.0
O309 O 0.01632 0.0318 0.53722 0.0
O310 O 0.03562 0.00544 0.56415 0.0
C311 C 0.01215 0.0467 0.64578 0.0
C312 C 0.98308 0.00381 0.68938 0.0
C313 C 0.95952 0.07222 0.56498 0.0
C314 C 0.97678 0.10369 0.54764 0.0
C315 C 0.94639 0.10294 0.60168 0.0
C316 C 0.94502 0.08235 0.595 0.0
C317 C 0.96213 0.11359 0.57812 0.0
C318 C 0.97549 0.08291 0.54196 0.0
C319 C 0.95847 0.05044 0.5606 0.0
C320 C 0.9666 0.97668 0.38184 0.0
C321 C 0.95304 0.96763 0.41765 0.0
H322 H 0.99163 0.99938 0.32109 0.0
C323 C 0.00396 0.97866 0.57158 0.0
C324 C 0.0319 0.0202 0.53063 0.0
C325 C 0.05382 0.95321 0.6659 0.0
C326 C 0.05206 0.91699 0.66616 0.0
C327 C 0.06406 0.93449 0.58629 0.0
C328 C 0.06123 0.95269 0.61252 0.0
C329 C 0.05937 0.91669 0.61274 0.0
C330 C 0.04935 0.93535 0.69238 0.0
C331 C 0.04867 0.97211 0.69242 0.0
H332 H 0.93515 0.1107 0.62489 0.0
H333 H 0.93275 0.07431 0.61364 0.0
H334 H 0.96257 0.12961 0.58277 0.0
H335 H 0.98701 0.07501 0.51997 0.0
H336 H 0.06962 0.93419 0.54505 0.0
H337 H 0.0644 0.96632 0.59064 0.0
H338 H 0.06159 0.90273 0.59166 0.0
H339 H 0.04308 0.93583 0.73296 0.0
C340 C 0.51819 0.9466 0.57128 0.0
C341 C 0.49418 0.92681 0.62211 0.0
C342 C 0.50019 0.94504 0.59886 0.0
C343 C 0.5069 0.91035 0.61899 0.0
C344 C 0.53062 0.92988 0.56618 0.0
C345 C 0.52508 0.91188 0.59113 0.0
N346 N 0.52304 0.96415 0.54718 0.0
C347 C 0.53919 0.96544 0.51352 0.0
C348 C 0.54799 0.93158 0.53492 0.0
C349 C 0.55211 0.94936 0.50777 0.0
Gd350 Gd 0.51551 0.03344 0.6682 0.0
Gd351 Gd 0.50089 0.9905 0.56267 0.0
N352 N 0.48832 0.96127 0.60181 0.0
C353 C 0.47541 0.92559 0.6469 0.0
C354 C 0.46953 0.95989 0.62299 0.0
C355 C 0.46291 0.94213 0.64662 0.0
H356 H 0.45976 0.97256 0.62223 0.0
H357 H 0.44818 0.94119 0.66444 0.0
H358 H 0.56531 0.04129 0.65484 0.0
H359 H 0.54197 0.97872 0.49018 0.0
H360 H 0.58773 0.06502 0.60887 0.0
H361 H 0.47024 0.91184 0.66519 0.0
H362 H 0.50264 0.89627 0.63707 0.0
H363 H 0.47136 0.05541 0.67708 0.0
H364 H 0.55794 0.91908 0.53001 0.0
H365 H 0.5651 0.95059 0.48181 0.0
H366 H 0.54421 0.11633 0.54589 0.0
H367 H 0.53454 0.89894 0.58806 0.0
H368 H 0.47525 0.11186 0.59677 0.0
H369 H 0.45547 0.08674 0.64736 0.0
N370 N 0.4995 0.06283 0.64266 0.0
C371 C 0.51091 0.07689 0.6179 0.0
C372 C 0.48001 0.06643 0.65524 0.0
C373 C 0.48226 0.09825 0.60999 0.0
C374 C 0.47104 0.08409 0.63849 0.0
C375 C 0.50251 0.09484 0.59983 0.0
H376 H 0.50836 0.12258 0.55785 0.0
N377 N 0.53879 0.05627 0.63177 0.0
C378 C 0.53109 0.07332 0.61126 0.0
C379 C 0.56397 0.08428 0.58378 0.0
C380 C 0.54343 0.08769 0.58618 0.0
C381 C 0.55896 0.0537 0.63349 0.0
C382 C 0.57179 0.06738 0.60845 0.0
O383 O 0.50269 0.98245 0.65211 0.0
O384 O 0.52721 1.00287 0.68713 0.0
O385 O 0.53111 0.04866 0.73356 0.0
O386 O 0.50135 0.03716 0.74658 0.0
O387 O 0.47507 0.00698 0.60195 0.0
O388 O 0.48693 0.01672 0.68584 0.0
O389 O 0.49787 0.0385 0.59085 0.0
O390 O 0.51363 0.01911 0.52977 0.0
O391 O 0.47623 0.99892 0.51142 0.0
O392 O 0.49537 0.97457 0.48743 0.0
O393 O 0.54182 0.01502 0.63779 0.0
O394 O 0.53166 0.00438 0.55277 0.0
C395 C 0.51691 0.98618 0.68741 0.0
C396 C 0.47222 0.01205 0.65301 0.0
C397 C 0.52356 0.03413 0.819 0.0
C398 C 0.54803 0.01502 0.86966 0.0
C399 C 0.51476 0.01981 0.90629 0.0
C400 C 0.50966 0.03104 0.86087 0.0
C401 C 0.53382 0.01178 0.91072 0.0
C402 C 0.54273 0.02605 0.82366 0.0
C403 C 0.51734 0.04437 0.7691 0.0
C404 C 0.53499 0.10522 0.56582 0.0
C405 C 0.51459 0.10881 0.57275 0.0
H406 H 0.57396 0.09494 0.56483 0.0
C407 C 0.50573 0.03618 0.54262 0.0
C408 C 0.5458 0.00883 0.58803 0.0
C409 C 0.46159 0.9737 0.45852 0.0
C410 C 0.4303 0.97459 0.40833 0.0
C411 C 0.44157 0.94373 0.44937 0.0
C412 C 0.45861 0.95339 0.46908 0.0
C413 C 0.42751 0.95419 0.41895 0.0
C414 C 0.44734 0.98417 0.42902 0.0
C415 C 0.47936 0.98464 0.47681 0.0
H416 H 0.50392 0.01737 0.93822 0.0
H417 H 0.49474 0.03699 0.8579 0.0
H418 H 0.53758 1.00345 0.9468 0.0
H419 H 0.5535 0.02809 0.79126 0.0
H420 H 0.43931 0.92804 0.45732 0.0
H421 H 0.46939 0.94505 0.49229 0.0
H422 H 0.41466 0.94625 0.40324 0.0
H423 H 0.44958 0.99998 0.42263 0.0
C424 C 0.46651 0.48379 0.73963 0.0
C425 C 0.48237 0.48472 0.8277 0.0
C426 C 0.47955 0.49285 0.77559 0.0
C427 C 0.47283 0.46675 0.84159 0.0
C428 C 0.45599 0.46641 0.75442 0.0
C429 C 0.45963 0.45763 0.80505 0.0
N430 N 0.46374 0.49233 0.69042 0.0
C431 C 0.44924 0.48551 0.65614 0.0
C432 C 0.44191 0.45858 0.71814 0.0
C433 C 0.43829 0.46837 0.66917 0.0
Gd434 Gd 0.53051 0.50482 0.57982 0.0
Gd435 Gd 0.4834 0.52037 0.67029 0.0
N436 N 0.48835 0.51032 0.76101 0.0
C437 C 0.49404 0.49532 0.86497 0.0
C438 C 0.49799 0.52161 0.79906 0.0
C439 C 0.5015 0.51406 0.85096 0.0
H440 H 0.50292 0.53655 0.7898 0.0
H441 H 0.50971 0.52284 0.88036 0.0
H442 H 0.51617 0.50913 0.45164 0.0
H443 H 0.44663 0.49302 0.61809 0.0
H444 H 0.52309 0.53078 0.37246 0.0
H445 H 0.4966 0.48959 0.9054 0.0
H446 H 0.47506 0.46013 0.88113 0.0
H447 H 0.57008 0.51108 0.66342 0.0
H448 H 0.43351 0.44524 0.72799 0.0
H449 H 0.42717 0.46266 0.64135 0.0
H450 H 0.5744 0.57543 0.43554 0.0
H451 H 0.45196 0.44406 0.81683 0.0
H452 H 0.60292 0.56215 0.60978 0.0
H453 H 0.59729 0.53539 0.67703 0.0
N454 N 0.55869 0.52543 0.59327 0.0
C455 C 0.5625 0.53901 0.55381 0.0
C456 C 0.57165 0.52333 0.63549 0.0
C457 C 0.59055 0.55187 0.60455 0.0
C458 C 0.5874 0.53682 0.64264 0.0
C459 C 0.57841 0.55274 0.55854 0.0
H460 H 0.5942 0.57707 0.51944 0.0
N461 N 0.53692 0.52405 0.50261 0.0
C462 C 0.55146 0.5381 0.50658 0.0
C463 C 0.54528 0.54834 0.41431 0.0
C464 C 0.55586 0.55085 0.46281 0.0
C465 C 0.52718 0.52088 0.45483 0.0
C466 C 0.53108 0.53308 0.41006 0.0
O467 O 0.48941 0.48833 0.64492 0.0
O468 O 0.52277 0.48746 0.65483 0.0
O469 O 0.52887 0.47639 0.53825 0.0
O470 O 0.55763 0.48948 0.55679 0.0
O471 O 0.51347 0.53302 0.6973 0.0
O472 O 0.53429 0.50781 0.67099 0.0
O473 O 0.51354 0.53285 0.55888 0.0
O474 O 0.50402 0.54512 0.64158 0.0
O475 O 0.46365 0.53671 0.72374 0.0
O476 O 0.45806 0.53622 0.63769 0.0
O477 O 0.50041 0.4967 0.5422 0.0
O478 O 0.47713 0.518 0.58078 0.0
C479 C 0.50543 0.47872 0.65936 0.0
C480 C 0.53013 0.52297 0.70277 0.0
C481 C 0.55308 0.45516 0.57311 0.0
C482 C 0.55023 0.41916 0.58114 0.0
C483 C 0.56177 0.43879 0.65765 0.0
C484 C 0.55981 0.45614 0.62708 0.0
C485 C 0.55677 0.42036 0.63508 0.0
C486 C 0.54856 0.43661 0.55025 0.0
C487 C 0.54793 0.47337 0.54335 0.0
C488 C 0.57095 0.5653 0.46844 0.0
C489 C 0.58219 0.56626 0.51627 0.0
H490 H 0.54824 0.55782 0.37967 0.0
C491 C 0.50962 0.54795 0.59101 0.0
C492 C 0.48289 0.50567 0.5423 0.0
C493 C 0.45034 0.56544 0.68416 0.0
C494 C 0.46381 0.59898 0.6963 0.0
C495 C 0.42863 0.59379 0.6751 0.0
C496 C 0.43144 0.57327 0.67426 0.0
C497 C 0.44459 0.60657 0.68658 0.0
C498 C 0.46652 0.57827 0.69381 0.0
C499 C 0.45315 0.54388 0.68413 0.0
H500 H 0.56672 0.43968 0.69934 0.0
H501 H 0.56297 0.47034 0.6462 0.0
H502 H 0.55802 0.40708 0.65959 0.0
H503 H 0.54282 0.43585 0.50919 0.0
H504 H 0.41395 0.59981 0.66796 0.0
H505 H 0.41886 0.5635 0.6662 0.0
H506 H 0.44162 0.62233 0.68949 0.0
H507 H 0.48112 0.57194 0.70012 0.0
C508 C 0.02621 0.4515 0.68916 0.0
C509 C 0.03866 0.45764 0.7801 0.0
C510 C 0.02676 0.46315 0.73562 0.0
C511 C 0.05052 0.44056 0.77649 0.0
C512 C 0.03745 0.43388 0.68628 0.0
C513 C 0.04991 0.42871 0.7297 0.0
N514 N 0.01396 0.45687 0.64795 0.0
C515 C 0.01077 0.44426 0.6053 0.0
C516 C 0.03544 0.42172 0.64047 0.0
C517 C 0.02177 0.42678 0.60024 0.0
Gd518 Gd 0.0188 0.53336 0.57424 0.0
Gd519 Gd 0.99719 0.48721 0.65935 0.0
N520 N 0.01531 0.47969 0.73771 0.0
C521 C 0.03803 0.46931 0.82718 0.0
C522 C 0.01373 0.49049 0.78445 0.0
C523 C 0.0253 0.48565 0.8296 0.0
H524 H 0.00384 0.50307 0.78643 0.0
H525 H 0.02438 0.4945 0.86621 0.0
H526 H 0.03373 0.51328 0.45417 0.0
H527 H 0.99948 0.44742 0.57552 0.0
H528 H 0.02092 0.51033 0.36114 0.0
H529 H 0.04697 0.46558 0.86222 0.0
H530 H 0.05992 0.43619 0.81004 0.0
H531 H 0.99533 0.57148 0.6305 0.0
H532 H 0.04382 0.40808 0.63669 0.0
H533 H 0.01949 0.41707 0.56571 0.0
H534 H 0.9647 0.55396 0.35795 0.0
H535 H 0.05881 0.41534 0.72797 0.0
H536 H 0.95266 0.59356 0.51651 0.0
H537 H 0.96864 0.59529 0.60687 0.0
N538 N 0.99395 0.55649 0.55473 0.0
C539 C 0.98623 0.55602 0.50392 0.0
C540 C 0.9884 0.57079 0.59099 0.0
C541 C 0.96438 0.58321 0.52662 0.0
C542 C 0.97335 0.58423 0.5777 0.0
C543 C 0.97092 0.56912 0.48876 0.0
H544 H 0.95091 0.57764 0.4241 0.0
N545 N 0.00971 0.53123 0.48199 0.0
C546 C 0.99406 0.54268 0.46678 0.0
C547 C 0.99604 0.52972 0.37549 0.0
C548 C 0.98668 0.5421 0.41327 0.0
C549 C 0.01997 0.52057 0.44399 0.0
C550 C 0.01301 0.51922 0.39068 0.0
O551 O 0.0274 0.50043 0.68245 0.0
O552 O 0.04095 0.5104 0.60128 0.0
O553 O 0.03849 0.55181 0.52533 0.0
O554 O 0.03712 0.55624 0.61199 0.0
O555 O 0.99072 0.51757 0.69589 0.0
O556 O 0.016 0.5383 0.66449 0.0
O557 O 0.98563 0.52998 0.59289 0.0
O558 O 0.98191 0.49677 0.58272 0.0
O559 O 0.96818 0.49096 0.69727 0.0
O560 O 0.97944 0.46145 0.68214 0.0
O561 O 0.02821 0.50253 0.54497 0.0
O562 O 1.0011 0.48315 0.56853 0.0
C563 C 0.04291 0.5041 0.65127 0.0
C564 C 1.00188 0.53377 0.69966 0.0
C565 C 0.06849 0.55964 0.57111 0.0
C566 C 0.1002 0.54425 0.54721 0.0
C567 C 0.09934 0.5724 0.60929 0.0
C568 C 0.07863 0.57332 0.60419 0.0
C569 C 0.11011 0.55805 0.58081 0.0
C570 C 0.0793 0.54491 0.54368 0.0
C571 C 0.04662 0.56032 0.56737 0.0
C572 C 0.97071 0.55438 0.39869 0.0
C573 C 0.96289 0.56791 0.43631 0.0
H574 H 0.99082 0.52883 0.334 0.0
C575 C 0.97492 0.51471 0.5768 0.0
C576 C 0.01686 0.48662 0.53799 0.0
C577 C 0.94557 0.46707 0.66464 0.0
C578 C 0.90934 0.46478 0.66211 0.0
C579 C 0.92865 0.45918 0.58017 0.0
C580 C 0.94626 0.46247 0.60904 0.0
C581 C 0.91024 0.46044 0.6064 0.0
C582 C 0.92712 0.46811 0.691 0.0
C583 C 0.96393 0.47206 0.69424 0.0
H584 H 0.10709 0.58302 0.63485 0.0
H585 H 0.07052 0.58462 0.62628 0.0
H586 H 0.1262 0.55814 0.58402 0.0
H587 H 0.0714 0.53393 0.51948 0.0
H588 H 0.92928 0.45578 0.53728 0.0
H589 H 0.96038 0.46168 0.58777 0.0
H590 H 0.89674 0.45781 0.58337 0.0
H591 H 0.92659 0.47197 0.7337 0.0
C592 C 0.14157 0.0552 0.13864 0.0
C593 C 0.15909 0.04378 0.13662 0.0
C594 C 0.1273 0.0522 0.17939 0.0
C595 C 0.12106 0.02848 0.31604 0.0
H596 H 0.06533 0.04063 0.29222 0.0
C597 C 0.05816 0.00754 0.46716 0.0
C598 C 0.04553 0.02308 0.48349 0.0
C599 C 0.07161 0.01011 0.42431 0.0
C600 C 0.08088 0.03731 0.29948 0.0
H601 H 0.17463 0.01952 0.17571 0.0
H602 H 0.14927 0.01343 0.24422 0.0
H603 H 0.08904 0.04366 0.21742 0.0
H604 H 0.03724 0.05358 0.4671 0.0
H605 H 0.06019 0.05774 0.3902 0.0
H606 H 0.11253 0.02137 0.39772 0.0
C607 C 0.14689 0.02534 0.21555 0.0
C608 C 0.09457 0.03912 0.25665 0.0
C609 C 0.16137 0.02859 0.17531 0.0
C610 C 0.04648 0.04119 0.45507 0.0
C611 C 0.05968 0.04362 0.41124 0.0
C612 C 0.1073 0.02629 0.35845 0.0
C613 C 0.12979 0.03736 0.21898 0.0
C614 C 0.11494 0.03483 0.26425 0.0
C615 C 0.07253 0.02815 0.39583 0.0
C616 C 0.08709 0.03076 0.35071 0.0
H617 H 0.1389 0.06675 0.10905 0.0
H618 H 0.11456 0.06197 0.18043 0.0
H619 H 0.13658 0.02547 0.3244 0.0
H620 H 0.05778 0.99332 0.48778 0.0
H621 H 0.08121 0.99789 0.41304 0.0
C622 C 0.50075 0.16255 0.17814 0.0
C623 C 0.48183 0.17115 0.17231 0.0
C624 C 0.50399 0.14768 0.21706 0.0
C625 C 0.4763 0.11202 0.30747 0.0
H626 H 0.52682 0.10899 0.38301 0.0
C627 C 0.48681 0.06398 0.49955 0.0
C628 C 0.50371 0.0518 0.50072 0.0
C629 C 0.48475 0.07854 0.45946 0.0
C630 C 0.51267 0.10958 0.36197 0.0
H631 H 0.45172 0.17136 0.2044 0.0
H632 H 0.45739 0.14604 0.27249 0.0
H633 H 0.52215 0.13418 0.3129 0.0
H634 H 0.53186 0.04545 0.4615 0.0
H635 H 0.52839 0.07109 0.39154 0.0
H636 H 0.46672 0.08774 0.35761 0.0
C637 C 0.46963 0.15009 0.24593 0.0
C638 C 0.50999 0.12397 0.32151 0.0
C639 C 0.46635 0.16471 0.20677 0.0
C640 C 0.51863 0.05459 0.46133 0.0
C641 C 0.51671 0.06936 0.42161 0.0
C642 C 0.47891 0.09785 0.34831 0.0
C643 C 0.48846 0.14123 0.25164 0.0
C644 C 0.49171 0.12549 0.29376 0.0
C645 C 0.49965 0.08138 0.41987 0.0
C646 C 0.49708 0.09647 0.3762 0.0
H647 H 0.51298 0.16717 0.1522 0.0
H648 H 0.51865 0.14111 0.21956 0.0
H649 H 0.46218 0.11227 0.28636 0.0
H650 H 0.47502 0.06205 0.52922 0.0
H651 H 0.47151 0.08767 0.45956 0.0
C652 C 0.37203 0.47263 0.15075 0.0
C653 C 0.3532 0.4816 0.15545 0.0
C654 C 0.38684 0.47593 0.18986 0.0
C655 C 0.39229 0.49099 0.33379 0.0
H656 H 0.4486 0.49479 0.29908 0.0
C657 C 0.45038 0.51228 0.49571 0.0
C658 C 0.46888 0.5025 0.49607 0.0
C659 C 0.43697 0.50965 0.45299 0.0
C660 C 0.43296 0.49351 0.30954 0.0
H661 H 0.33557 0.5017 0.20453 0.0
H662 H 0.36148 0.50784 0.27182 0.0
H663 H 0.42418 0.49145 0.22606 0.0
H664 H 0.48762 0.48219 0.45089 0.0
H665 H 0.46404 0.47749 0.37608 0.0
H666 H 0.40095 0.49298 0.41707 0.0
C667 C 0.3647 0.49793 0.23832 0.0
C668 C 0.41892 0.49163 0.26761 0.0
C669 C 0.3499 0.49464 0.19919 0.0
C670 C 0.47357 0.49 0.45207 0.0
C671 C 0.46007 0.48739 0.409 0.0
C672 C 0.40627 0.49286 0.37556 0.0
C673 C 0.38324 0.48829 0.23486 0.0
C674 C 0.39836 0.49047 0.27915 0.0
C675 C 0.44153 0.49711 0.40909 0.0
C676 C 0.4268 0.49429 0.36412 0.0
H677 H 0.37522 0.46267 0.11731 0.0
H678 H 0.40086 0.46818 0.18578 0.0
H679 H 0.37667 0.48964 0.34451 0.0
H680 H 0.44613 0.52212 0.52851 0.0
H681 H 0.42304 0.51768 0.45418 0.0
C682 C 0.0265 0.35722 0.18455 0.0
C683 C 0.04588 0.35142 0.16954 0.0
C684 C 0.02354 0.37265 0.22211 0.0
C685 C 0.0499 0.40114 0.33111 0.0
H686 H 0.0057 0.43746 0.3157 0.0
C687 C 0.04003 0.46991 0.47171 0.0
C688 C 0.02067 0.47294 0.49181 0.0
C689 C 0.04345 0.45596 0.43031 0.0
C690 C 0.01806 0.42737 0.32079 0.0
H691 H 0.07732 0.35743 0.18359 0.0
H692 H 0.07216 0.38456 0.24679 0.0
H693 H 0.01074 0.41142 0.24814 0.0
H694 H 0.98965 0.4643 0.4828 0.0
H695 H 0.99557 0.44013 0.41102 0.0
H696 H 0.05723 0.41718 0.40368 0.0
C697 C 0.05919 0.37704 0.23027 0.0
C698 C 0.02092 0.41235 0.28209 0.0
C699 C 0.06215 0.36161 0.19305 0.0
C700 C 0.00478 0.4622 0.46854 0.0
C701 C 0.00815 0.44843 0.42702 0.0
C702 C 0.04711 0.41623 0.3696 0.0
C703 C 0.03986 0.38274 0.24574 0.0
C704 C 0.03684 0.39894 0.28675 0.0
C705 C 0.02755 0.44494 0.40768 0.0
C706 C 0.03109 0.42948 0.36516 0.0
H707 H 0.01358 0.34988 0.16722 0.0
H708 H 0.00841 0.37641 0.23332 0.0
H709 H 0.06212 0.39093 0.33686 0.0
H710 H 0.05257 0.47799 0.48879 0.0
H711 H 0.05856 0.45381 0.41599 0.0
C712 C 0.88025 0.0094 0.10219 0.0
C713 C 0.86212 0.9988 0.09907 0.0
C714 C 0.89478 0.00742 0.06181 0.0
C715 C 0.91136 0.97725 0.94359 0.0
H716 H 0.93193 0.02791 0.89235 0.0
C717 C 0.97293 0.98594 0.77563 0.0
C718 C 0.96948 1.0008 0.73665 0.0
C719 C 0.96045 0.98403 0.82124 0.0
C720 C 0.92632 0.01362 0.90604 0.0
H721 H 0.84564 0.97689 0.05225 0.0
H722 H 0.87113 0.97332 0.98183 0.0
H723 H 0.90966 0.02697 0.97033 0.0
H724 H 0.94978 0.02503 0.71505 0.0
H725 H 0.92834 0.02173 0.79393 0.0
H726 H 0.92793 0.96401 0.87826 0.0
C727 C 0.87409 0.98316 0.01573 0.0
C728 C 0.9137 0.01305 0.95122 0.0
C729 C 0.85948 0.98517 0.05623 0.0
C730 C 0.95306 0.01344 0.74406 0.0
C731 C 0.94076 0.01164 0.78963 0.0
C732 C 0.9242 0.97781 0.89849 0.0
C733 C 0.89165 0.99475 0.01714 0.0
C734 C 0.90591 0.9949 0.97046 0.0
C735 C 0.94438 0.99708 0.82914 0.0
C736 C 0.93163 0.99605 0.87878 0.0
H737 H 0.88295 0.01975 0.13512 0.0
H738 H 0.90832 0.01624 0.0649 0.0
H739 H 0.90571 0.963 0.95748 0.0
H740 H 0.98539 0.9759 0.77128 0.0
H741 H 0.96369 0.97269 0.85103 0.0
C742 C 0.51927 0.87796 0.08967 0.0
C743 C 0.52598 0.85847 0.08017 0.0
C744 C 0.52038 0.89242 0.04879 0.0
C745 C 0.52116 0.89652 0.89989 0.0
H746 H 0.53609 0.95151 0.92571 0.0
C747 C 0.52584 0.95264 0.72313 0.0
C748 C 0.51983 0.97223 0.73287 0.0
C749 C 0.52795 0.93923 0.76609 0.0
C750 C 0.53166 0.93628 0.91774 0.0
H751 H 0.5395 0.83913 0.02022 0.0
H752 H 0.54155 0.86432 0.94932 0.0
H753 H 0.53764 0.92753 0.99979 0.0
H754 H 0.51142 0.99333 0.79475 0.0
H755 H 0.51476 0.97 0.87009 0.0
H756 H 0.51461 0.90516 0.81855 0.0
C757 C 0.53535 0.86841 0.98834 0.0
C758 C 0.53261 0.9225 0.96035 0.0
C759 C 0.53441 0.85402 0.0293 0.0
C760 C 0.51627 0.97832 0.78642 0.0
C761 C 0.51824 0.96491 0.82952 0.0
C762 C 0.52004 0.91029 0.85749 0.0
C763 C 0.52801 0.88769 0.99718 0.0
C764 C 0.52742 0.90243 0.95192 0.0
C765 C 0.52395 0.94506 0.81999 0.0
C766 C 0.52532 0.93039 0.8656 0.0
H767 H 0.51277 0.88192 0.12841 0.0
H768 H 0.51452 0.90709 0.05696 0.0
H769 H 0.51666 0.88128 0.89216 0.0
H770 H 0.52922 0.94775 0.6824 0.0
H771 H 0.53289 0.9243 0.75691 0.0
C772 C 0.63995 0.54296 0.09976 0.0
C773 C 0.66044 0.54283 0.08703 0.0
C774 C 0.62553 0.54372 0.05866 0.0
C775 C 0.61986 0.5311 0.9132 0.0
H776 H 0.56858 0.55684 0.92747 0.0
C777 C 0.5553 0.51146 0.77016 0.0
C778 C 0.54354 0.52692 0.74959 0.0
C779 C 0.56892 0.51498 0.81189 0.0
C780 C 0.58289 0.54971 0.92263 0.0
H781 H 0.6816 0.5442 0.02033 0.0
H782 H 0.65664 0.54622 0.94944 0.0
H783 H 0.59382 0.56136 0.99816 0.0
H784 H 0.53634 0.5581 0.75827 0.0
H785 H 0.56034 0.56435 0.83165 0.0
H786 H 0.60915 0.51956 0.83776 0.0
C787 C 0.65166 0.54532 0.99118 0.0
C788 C 0.59731 0.55214 0.96344 0.0
C789 C 0.66605 0.54449 0.03214 0.0
C790 C 0.54524 0.54591 0.7732 0.0
C791 C 0.55895 0.54945 0.81527 0.0
C792 C 0.60551 0.52866 0.87265 0.0
C793 C 0.63118 0.54439 1.00366 0.0
C794 C 0.61598 0.54276 0.95942 0.0
C795 C 0.57122 0.53407 0.8345 0.0
C796 C 0.58673 0.53771 0.87698 0.0
H797 H 0.635 0.54196 0.1415 0.0
H798 H 0.60994 0.54292 0.07 0.0
H799 H 0.63389 0.52339 0.90877 0.0
H800 H 0.5541 0.49656 0.75365 0.0
H801 H 0.57769 0.50264 0.82648 0.0
C802 C 0.99408 0.64067 0.10584 0.0
C803 C 0.98857 0.66054 0.0962 0.0
C804 C 0.99301 0.62636 0.06445 0.0
C805 C 0.99268 0.62311 0.91399 0.0
H806 H 0.98204 0.56717 0.93985 0.0
C807 C 0.01194 0.56385 0.75388 0.0
C808 C 0.99895 0.54755 0.74642 0.0
C809 C 0.00931 0.57707 0.79707 0.0
C810 C 0.98486 0.58276 0.93172 0.0
H811 H 0.97682 0.68048 0.03512 0.0
H812 H 0.97418 0.65552 0.96427 0.0
H813 H 0.97861 0.59102 0.01406 0.0
H814 H 0.97297 0.53241 0.77945 0.0
H815 H 0.96821 0.5557 0.85461 0.0
H816 H 0.99858 0.61502 0.83166 0.0
C817 C 0.97983 0.65106 1.00348 0.0
C818 C 0.98311 0.59645 0.97453 0.0
C819 C 0.98102 0.66538 0.04467 0.0
C820 C 0.98329 0.54477 0.78383 0.0
C821 C 0.98062 0.55809 0.82717 0.0
C822 C 0.99435 0.60948 0.87131 0.0
C823 C 0.9863 0.63146 0.01224 0.0
C824 C 0.98714 0.61682 0.96637 0.0
C825 C 0.99354 0.57452 0.83418 0.0
C826 C 0.99071 0.58907 0.87958 0.0
H827 H 0.9997 0.63624 0.14509 0.0
H828 H 0.99821 0.61149 0.07293 0.0
H829 H 0.9962 0.63857 0.90598 0.0
H830 H 0.02429 0.56647 0.72636 0.0
H831 H 0.01985 0.58924 0.80161 0.0
C832 C 0.07775 0.22109 0.28566 0.0
C833 C 0.07286 0.21677 0.23136 0.0
C834 C 0.07288 0.2077 0.32707 0.0
C835 C 0.05789 0.15581 0.35529 0.0
H836 H 0.02381 0.1787 0.46582 0.0
C837 C 0.9984 0.11004 0.46652 0.0
C838 C 0.99286 0.11504 0.51978 0.0
C839 C 0.01253 0.12141 0.4386 0.0
C840 C 0.03368 0.17203 0.43624 0.0
H841 H 0.05962 0.19447 0.17831 0.0
H842 H 0.05177 0.17105 0.25009 0.0
H843 H 0.04178 0.20045 0.40354 0.0
H844 H 0.99845 0.13546 0.58629 0.0
H845 H 0.02344 0.15516 0.53782 0.0
H846 H 0.04953 0.12738 0.38717 0.0
C847 C 0.05941 0.18479 0.26055 0.0
C848 C 0.04395 0.18454 0.40046 0.0
C849 C 0.06399 0.19825 0.21932 0.0
C850 C 1.00223 0.13136 0.54505 0.0
C851 C 0.01654 0.14265 0.51725 0.0
C852 C 0.04779 0.1433 0.39145 0.0
C853 C 0.06334 0.18958 0.31491 0.0
C854 C 0.05561 0.17652 0.35855 0.0
C855 C 0.02161 0.13802 0.46331 0.0
C856 C 0.03499 0.15124 0.43113 0.0
H857 H 0.08495 0.23501 0.29642 0.0
H858 H 0.07621 0.21167 0.36869 0.0
H859 H 0.06699 0.14928 0.3237 0.0
H860 H 0.99123 0.09778 0.4455 0.0
H861 H 0.01569 0.11761 0.39678 0.0
C862 C 0.31405 0.0629 0.11606 0.0
C863 C 0.29897 0.07371 0.14204 0.0
C864 C 0.32967 0.05488 0.14582 0.0
C865 C 0.34138 0.03925 0.28595 0.0
H866 H 0.39257 0.02796 0.22019 0.0
C867 C 0.39509 0.98253 0.38069 0.0
C868 C 0.41569 0.98614 0.37603 0.0
C869 C 0.38149 0.99432 0.35261 0.0
C870 C 0.37851 0.0312 0.23982 0.0
H871 H 0.28893 0.08566 0.21883 0.0
H872 H 0.31685 0.07249 0.27092 0.0
H873 H 0.36931 0.04915 0.1733 0.0
H874 H 0.43807 0.00452 0.336 0.0
H875 H 0.41456 0.02575 0.2906 0.0
H876 H 0.351 0.02211 0.35374 0.0
C877 C 0.31627 0.06961 0.22774 0.0
C878 C 0.36498 0.04316 0.21236 0.0
C879 C 0.3004 0.07735 0.19796 0.0
C880 C 0.42232 1.00156 0.34178 0.0
C881 C 0.40876 0.01358 0.31476 0.0
C882 C 0.3551 0.02763 0.314 0.0
C883 C 0.33077 0.05772 0.20229 0.0
C884 C 0.34606 0.04701 0.23447 0.0
C885 C 0.38814 0.01019 0.31983 0.0
C886 C 0.37374 0.02316 0.29092 0.0
H887 H 0.31309 0.05948 0.07317 0.0
H888 H 0.34022 0.04553 0.12472 0.0
H889 H 0.32688 0.04162 0.30415 0.0
H890 H 0.38941 0.97089 0.4069 0.0
H891 H 0.36575 0.99094 0.35667 0.0
C892 C 0.46771 0.29204 0.31035 0.0
C893 C 0.47726 0.29302 0.25959 0.0
C894 C 0.47594 0.30176 0.35538 0.0
C895 C 0.52334 0.32344 0.40539 0.0
H896 H 0.48969 0.35828 0.49055 0.0
C897 C 0.55174 0.39432 0.50642 0.0
C898 C 0.5442 0.39994 0.55719 0.0
C899 C 0.54448 0.37733 0.48055 0.0
C900 C 0.49922 0.34828 0.46801 0.0
H901 H 0.50311 0.30452 0.21649 0.0
H902 H 0.51717 0.32172 0.29431 0.0
H903 H 0.47456 0.33573 0.42439 0.0
H904 H 0.52365 0.39213 0.62173 0.0
H905 H 0.51064 0.36231 0.57589 0.0
H906 H 0.54806 0.33668 0.44707 0.0
C907 C 0.50346 0.31333 0.29967 0.0
C908 C 0.49056 0.33539 0.4301 0.0
C909 C 0.49523 0.30374 0.25484 0.0
C910 C 0.52974 0.38794 0.58267 0.0
C911 C 0.52225 0.37102 0.5564 0.0
C912 C 0.53197 0.33634 0.44309 0.0
C913 C 0.49395 0.31243 0.35044 0.0
C914 C 0.50262 0.3234 0.39703 0.0
C915 C 0.52938 0.36574 0.50472 0.0
C916 C 0.52006 0.34938 0.47334 0.0
H917 H 0.45381 0.28392 0.31511 0.0
H918 H 0.46831 0.30083 0.39405 0.0
H919 H 0.53296 0.31403 0.3813 0.0
H920 H 0.56292 0.40336 0.48615 0.0
H921 H 0.55005 0.37379 0.44044 0.0
C922 C 0.22196 0.45541 0.27558 0.0
C923 C 0.21746 0.45437 0.21995 0.0
C924 C 0.20741 0.46108 0.31309 0.0
C925 C 0.16297 0.49188 0.31707 0.0
H926 H 0.15667 0.47188 0.4636 0.0
C927 C 0.10545 0.52595 0.45984 0.0
C928 C 0.11161 0.53001 0.51323 0.0
C929 C 0.11677 0.51378 0.42615 0.0
C930 C 0.15837 0.47768 0.42289 0.0
H931 H 0.19385 0.4574 0.16055 0.0
H932 H 0.16845 0.46686 0.22605 0.0
H933 H 0.17923 0.45505 0.40052 0.0
H934 H 0.13408 0.52362 0.57379 0.0
H935 H 0.15435 0.50297 0.514 0.0
H936 H 0.14276 0.51482 0.33929 0.0
C937 C 0.18329 0.46357 0.24055 0.0
C938 C 0.17123 0.46802 0.38681 0.0
C939 C 0.19781 0.45792 0.20309 0.0
C940 C 0.1291 0.52108 0.53259 0.0
C941 C 0.14056 0.50901 0.49857 0.0
C942 C 0.15026 0.50154 0.35302 0.0
C943 C 0.18811 0.46585 0.29565 0.0
C944 C 0.17367 0.47508 0.33354 0.0
C945 C 0.13471 0.50557 0.4446 0.0
C946 C 0.14781 0.49462 0.40639 0.0
H947 H 0.23691 0.45249 0.28989 0.0
H948 H 0.21159 0.46276 0.35528 0.0
H949 H 0.1649 0.49799 0.27675 0.0
H950 H 0.0922 0.5327 0.44322 0.0
H951 H 0.11164 0.51115 0.38512 0.0
C952 C 0.99667 0.79117 0.98522 0.0
C953 C 0.01236 0.77791 0.99432 0.0
C954 C 0.99663 0.8032 0.93919 0.0
C955 C 0.02249 0.81353 0.80798 0.0
H956 H 0.01422 0.8684 0.85062 0.0
C957 C 0.03557 0.8833 0.66934 0.0
C958 C 0.04679 0.89838 0.69491 0.0
C959 C 0.02895 0.86675 0.69892 0.0
C960 C 0.01645 0.85313 0.838 0.0
H961 H 0.03966 0.76587 0.9611 0.0
H962 H 0.03992 0.78722 0.88127 0.0
H963 H 0.00556 0.84189 0.91323 0.0
H964 H 0.06097 0.90737 0.7701 0.0
H965 H 0.04929 0.87872 0.82155 0.0
H966 H 0.03435 0.82519 0.73343 0.0
C967 C 0.02743 0.78812 0.90906 0.0
C968 C 0.01127 0.8379 0.87358 0.0
C969 C 0.02736 0.77596 0.95493 0.0
C970 C 0.05197 0.89621 0.74968 0.0
C971 C 0.04529 0.87984 0.77911 0.0
C972 C 0.02763 0.82886 0.77212 0.0
C973 C 0.01242 0.80234 0.90168 0.0
C974 C 0.01476 0.81795 0.8597 0.0
C975 C 0.03336 0.8652 0.7544 0.0
C976 C 0.02526 0.84879 0.78775 0.0
H977 H 0.98471 0.79264 0.01454 0.0
H978 H 0.98465 0.81374 0.93406 0.0
H979 H 0.02515 0.79828 0.79597 0.0
H980 H 0.03129 0.88467 0.62718 0.0
H981 H 0.0198 0.85559 0.67905 0.0
C982 C 0.72052 1.0 0.00693 0.0
C983 C 0.71894 0.00674 0.06078 0.0
C984 C 0.70343 0.99466 0.97772 0.0
C985 C 0.64944 0.9829 0.99541 0.0
H986 H 0.64423 0.00599 0.85228 0.0
C987 C 0.57266 0.98881 0.89593 0.0
C988 C 0.56872 0.00796 0.87614 0.0
C989 C 0.59222 0.98309 0.90702 0.0
C990 C 0.64547 0.99934 0.8921 0.0
H991 H 0.69832 0.01234 0.12688 0.0
H992 H 0.66866 0.00378 0.07575 0.0
H993 H 0.67655 0.0064 0.89703 0.0
H994 H 0.58213 0.03585 0.85059 0.0
H995 H 0.61602 0.02614 0.87078 0.0
H996 H 0.61811 0.97732 0.99255 0.0
C997 C 0.68302 1.00231 0.05606 0.0
C998 C 0.66406 0.99937 0.9175 0.0
C999 C 0.70003 0.0076 0.08512 0.0
C1000 C 0.58473 0.02092 0.86531 0.0
C1001 C 0.60421 0.01527 0.87663 0.0
C1002 C 0.63084 0.98304 0.97026 0.0
C1003 C 0.68448 0.99587 1.00195 0.0
C1004 C 0.66603 0.99196 0.97046 0.0
C1005 C 0.60818 0.99647 0.89883 0.0
C1006 C 0.62847 0.99208 0.91934 0.0
H1007 H 0.73492 0.99918 0.98711 0.0
H1008 H 0.70504 0.98968 0.93615 0.0
H1009 H 0.6506 0.97662 0.03569 0.0
H1010 H 0.56058 0.97843 0.90371 0.0
H1011 H 0.5948 0.96839 0.92335 0.0
C1012 C 0.51379 0.7327 0.94713 0.0
C1013 C 0.52266 0.72961 0.99798 0.0
C1014 C 0.51636 0.71892 0.9053 0.0
C1015 C 0.52231 0.66596 0.89291 0.0
H1016 H 0.52254 0.67673 0.73848 0.0
C1017 C 0.49462 0.60589 0.75161 0.0
C1018 C 0.48038 0.61243 0.71385 0.0
C1019 C 0.50788 0.61931 0.77561 0.0
C1020 C 0.52246 0.67345 0.78146 0.0
H1021 H 0.54266 0.71068 0.04327 0.0
H1022 H 0.54691 0.68646 0.97037 0.0
H1023 H 0.531 0.7033 0.80244 0.0
H1024 H 0.47096 0.63792 0.66664 0.0
H1025 H 0.49272 0.66153 0.71186 0.0
H1026 H 0.51229 0.6368 0.87339 0.0
C1027 C 0.53779 0.69942 0.96315 0.0
C1028 C 0.5274 0.68865 0.81798 0.0
C1029 C 0.53525 0.7132 0.00493 0.0
C1030 C 0.48107 0.63243 0.69724 0.0
C1031 C 0.49395 0.64598 0.72244 0.0
C1032 C 0.51715 0.6509 0.85667 0.0
C1033 C 0.52782 0.70179 0.91357 0.0
C1034 C 0.52673 0.68518 0.87414 0.0
C1035 C 0.50682 0.63974 0.76395 0.0
C1036 C 0.51646 0.65459 0.80052 0.0
H1037 H 0.50392 0.74513 0.94058 0.0
H1038 H 0.50829 0.72103 0.86777 0.0
H1039 H 0.52137 0.66287 0.93596 0.0
H1040 H 0.49483 0.59066 0.76565 0.0
H1041 H 0.5181 0.61381 0.80592 0.0
C1042 C 0.76559 0.47755 0.96551 0.0
C1043 C 0.7711 0.49276 1.00176 0.0
C1044 C 0.7765 0.47448 0.91789 0.0
C1045 C 0.81421 0.49758 0.82696 0.0
H1046 H 0.83193 0.44336 0.80554 0.0
C1047 C 0.8743 0.47728 0.66845 0.0
C1048 C 0.88992 0.46605 0.69031 0.0
C1049 C 0.85648 0.47953 0.69727 0.0
C1050 C 0.82698 0.45855 0.81075 0.0
H1051 H 0.79158 0.51736 0.01529 0.0
H1052 H 0.81079 0.51184 0.93283 0.0
H1053 H 0.80627 0.45034 0.87295 0.0
H1054 H 0.89896 0.4477 0.75794 0.0
H1055 H 0.86797 0.45168 0.80836 0.0
H1056 H 0.83573 0.5059 0.76674 0.0
C1057 C 0.79802 0.50233 0.94087 0.0
C1058 C 0.81216 0.46252 0.84895 0.0
C1059 C 0.7872 0.50532 0.98848 0.0
C1060 C 0.8872 0.45657 0.74046 0.0
C1061 C 0.86938 0.45868 0.76898 0.0
C1062 C 0.829 0.49359 0.7886 0.0
C1063 C 0.793 0.48667 0.90552 0.0
C1064 C 0.80609 0.48216 0.85869 0.0
C1065 C 0.85394 0.47039 0.74807 0.0
C1066 C 0.83598 0.47412 0.78145 0.0
H1067 H 0.75326 0.46762 0.97479 0.0
H1068 H 0.77223 0.46238 0.89119 0.0
H1069 H 0.80963 0.51283 0.83316 0.0
H1070 H 0.8761 0.48482 0.62992 0.0
H1071 H 0.84479 0.4886 0.68019 0.0
C1072 C 0.03605 0.21568 0.83722 0.0
C1073 C 0.03487 0.21565 0.89429 0.0
C1074 C 0.03203 0.19836 0.80723 0.0
C1075 C 0.0078 0.14849 0.81635 0.0
H1076 H 0.04375 0.13467 0.69908 0.0
C1077 C 0.00967 0.06932 0.72619 0.0
C1078 C 0.01311 0.06687 0.67036 0.0
C1079 C 0.01128 0.08805 0.75053 0.0
C1080 C 0.03336 0.1384 0.73113 0.0
H1081 H 0.02836 0.19706 0.9641 0.0
H1082 H 0.02111 0.16713 0.91202 0.0
H1083 H 0.04801 0.16629 0.74658 0.0
H1084 H 0.02056 0.08234 0.59596 0.0
H1085 H 0.02338 0.11519 0.63849 0.0
H1086 H 0.99318 0.12064 0.80121 0.0
C1087 C 0.02495 0.18062 0.89032 0.0
C1088 C 0.03582 0.15657 0.75846 0.0
C1089 C 0.02905 0.19789 0.92029 0.0
C1090 C 0.01784 0.08373 0.63912 0.0
C1091 C 0.01955 0.10254 0.66358 0.0
C1092 C 0.0053 0.13038 0.78896 0.0
C1093 C 0.02661 0.18053 0.83341 0.0
C1094 C 0.02323 0.16175 0.80194 0.0
C1095 C 0.01626 0.10498 0.71969 0.0
C1096 C 0.01822 0.12491 0.74645 0.0
H1097 H 0.04019 0.2291 0.81558 0.0
H1098 H 0.03316 0.19895 0.76344 0.0
H1099 H 0.99758 0.15211 0.8489 0.0
H1100 H 0.00571 0.05671 0.75132 0.0
H1101 H 0.00894 0.08917 0.7939 0.0
C1102 C 0.30124 0.03774 0.81837 0.0
C1103 C 0.29518 0.02671 0.86434 0.0
C1104 C 0.31965 0.03427 0.79316 0.0
C1105 C 0.37001 0.02066 0.82204 0.0
H1106 H 0.37584 0.00728 0.66994 0.0
C1107 C 0.44823 0.00761 0.73014 0.0
C1108 C 0.45163 0.01207 0.67527 0.0
C1109 C 0.42893 0.00797 0.75189 0.0
C1110 C 0.37464 0.01138 0.71225 0.0
H1111 H 0.30406 1.00258 0.91758 0.0
H1112 H 0.33655 0.99751 0.87534 0.0
H1113 H 0.3426 0.01069 0.70916 0.0
H1114 H 0.43747 0.02056 0.60014 0.0
H1115 H 0.40398 0.02241 0.63835 0.0
H1116 H 0.40173 0.02264 0.82532 0.0
C1117 C 0.32677 0.00873 0.85891 0.0
C1118 C 0.35549 0.01313 0.73477 0.0
C1119 C 0.30813 0.01181 0.88336 0.0
C1120 C 0.43528 0.01691 0.64252 0.0
C1121 C 0.41599 0.0178 0.6646 0.0
C1122 C 0.38913 0.01943 0.79934 0.0
C1123 C 0.33276 0.02003 0.81383 0.0
C1124 C 0.353 0.01769 0.78994 0.0
C1125 C 0.41245 0.01338 0.7198 0.0
C1126 C 0.39185 0.01468 0.74402 0.0
H1127 H 0.29219 0.04967 0.80273 0.0
H1128 H 0.32398 0.04331 0.7587 0.0
H1129 H 0.36849 0.02447 0.86456 0.0
H1130 H 0.46052 1.00357 0.75627 0.0
H1131 H 0.42704 0.00385 0.79399 0.0
C1132 C 0.49793 0.32064 0.91268 0.0
C1133 C 0.48362 0.30694 0.89343 0.0
C1134 C 0.50184 0.33841 0.88476 0.0
C1135 C 0.49312 0.36466 0.75251 0.0
H1136 H 0.50292 0.41179 0.83951 0.0
C1137 C 0.48889 0.44521 0.6672 0.0
C1138 C 0.50398 0.45854 0.68326 0.0
C1139 C 0.48737 0.42629 0.69076 0.0
C1140 C 0.5004 0.39874 0.81455 0.0
H1141 H 0.46298 0.30102 0.82757 0.0
H1142 H 0.46919 0.33213 0.78032 0.0
H1143 H 0.49886 0.37967 0.88374 0.0
H1144 H 0.52947 0.46249 0.73605 0.0
H1145 H 0.52677 0.42955 0.7775 0.0
H1146 H 0.49401 0.38405 0.68346 0.0
C1147 C 0.47765 0.32912 0.81669 0.0
C1148 C 0.49815 0.38022 0.83991 0.0
C1149 C 0.47386 0.31128 0.84435 0.0
C1150 C 0.51767 0.45252 0.7229 0.0
C1151 C 0.51603 0.43371 0.74689 0.0
C1152 C 0.49513 0.38324 0.72722 0.0
C1153 C 0.49146 0.34314 0.83689 0.0
C1154 C 0.49447 0.36285 0.80936 0.0
C1155 C 0.50083 0.42036 0.73128 0.0
C1156 C 0.49882 0.40052 0.75792 0.0
H1157 H 0.50565 0.31804 0.95048 0.0
H1158 H 0.5129 0.34855 0.90121 0.0
H1159 H 0.49064 0.35168 0.72729 0.0
H1160 H 0.47825 0.44941 0.63637 0.0
H1161 H 0.47541 0.41644 0.67807 0.0
C1162 C 0.20419 0.4688 0.86352 0.0
C1163 C 0.21481 0.48487 0.88642 0.0
C1164 C 0.18611 0.47179 0.83668 0.0
C1165 C 0.15534 0.50903 0.76671 0.0
H1166 H 0.11195 0.47287 0.80202 0.0
C1167 C 0.07448 0.51977 0.68528 0.0
C1168 C 0.06315 0.5026 0.67439 0.0
C1169 C 0.09331 0.51834 0.70968 0.0
C1170 C 0.12393 0.48295 0.79084 0.0
H1171 H 0.21474 0.51682 0.8979 0.0
H1172 H 0.18311 0.5221 0.85028 0.0
H1173 H 0.14403 0.46918 0.84644 0.0
H1174 H 0.06308 0.47052 0.67654 0.0
H1175 H 0.09571 0.46779 0.71892 0.0
H1176 H 0.13533 0.52259 0.71023 0.0
C1177 C 0.18889 0.50715 0.85331 0.0
C1178 C 0.14236 0.48086 0.81663 0.0
C1179 C 0.20695 0.50412 0.88086 0.0
C1180 C 0.0712 0.48398 0.68643 0.0
C1181 C 0.08998 0.48248 0.71065 0.0
C1182 C 0.1369 0.51102 0.74038 0.0
C1183 C 0.17811 0.49096 0.83152 0.0
C1184 C 0.15836 0.49377 0.80475 0.0
C1185 C 0.10124 0.49964 0.72347 0.0
C1186 C 0.12093 0.49791 0.75183 0.0
H1187 H 0.20958 0.45374 0.86763 0.0
H1188 H 0.17832 0.45901 0.81998 0.0
H1189 H 0.16739 0.51914 0.75632 0.0
H1190 H 0.06857 0.53432 0.67607 0.0
H1191 H 0.10138 0.53192 0.71898 0.0
C1192 C 1.00247 0.8037 0.41653 0.0
C1193 C 0.99555 0.80119 0.36305 0.0
C1194 C 1.00168 0.8223 0.44219 0.0
C1195 C 0.97886 0.87267 0.43458 0.0
H1196 H 0.02582 0.88873 0.51552 0.0
C1197 C 0.98388 0.94746 0.55381 0.0
C1198 C 1.0019 0.95814 0.54951 0.0
C1199 C 0.98218 0.92809 0.53296 0.0
C1200 C 0.01261 0.88453 0.49289 0.0
H1201 H 0.98185 0.81645 0.29542 0.0
H1202 H 0.98034 0.84876 0.3402 0.0
H1203 H 0.02401 0.85552 0.47603 0.0
H1204 H 0.0323 0.95676 0.51976 0.0
H1205 H 0.0295 0.92299 0.48452 0.0
H1206 H 0.96768 0.90192 0.45056 0.0
C1207 C 0.98625 0.83628 0.36256 0.0
C1208 C 0.01146 0.86536 0.47074 0.0
C1209 C 0.98706 0.81767 0.33684 0.0
C1210 C 0.01824 0.94891 0.52433 0.0
C1211 C 0.01663 0.9295 0.50408 0.0
C1212 C 0.97997 0.89185 0.45699 0.0
C1213 C 0.99391 0.83896 0.41522 0.0
C1214 C 0.99463 0.85917 0.44089 0.0
C1215 C 0.99857 0.9188 0.50801 0.0
C1216 C 0.99695 0.89811 0.48601 0.0
H1217 H 0.0088 0.79132 0.43841 0.0
H1218 H 0.00733 0.82365 0.48315 0.0
H1219 H 0.96559 0.86841 0.41235 0.0
H1220 H 0.97117 0.95393 0.57407 0.0
H1221 H 0.96811 0.92023 0.53736 0.0
C1222 C 0.70522 0.99682 0.3478 0.0
C1223 C 0.72314 0.99904 0.37682 0.0
C1224 C 0.68678 0.99757 0.37436 0.0
C1225 C 0.66113 0.99242 0.50597 0.0
H1226 H 0.62197 0.02678 0.43982 0.0
C1227 C 0.58304 0.00684 0.60416 0.0
C1228 C 0.56682 0.00839 0.56838 0.0
C1229 C 0.60269 0.00614 0.5842 0.0
C1230 C 0.63255 0.01687 0.45863 0.0
H1231 H 0.7356 1.00306 0.45716 0.0
H1232 H 0.70325 0.00406 0.50381 0.0
H1233 H 0.65474 0.02354 0.39865 0.0
H1234 H 0.55872 0.01088 0.48353 0.0
H1235 H 0.59241 0.00879 0.44903 0.0
H1236 H 0.63871 0.98532 0.56524 0.0
C1237 C 0.70358 1.00183 0.4603 0.0
C1238 C 0.65142 0.01508 0.43498 0.0
C1239 C 0.7221 1.00134 0.43355 0.0
C1240 C 0.57076 0.00938 0.51241 0.0
C1241 C 0.59024 0.0085 0.49254 0.0
C1242 C 0.64208 0.99401 0.52939 0.0
C1243 C 0.68569 1.00039 0.43081 0.0
C1244 C 0.6659 1.00267 0.4579 0.0
C1245 C 0.60658 0.00694 0.52797 0.0
C1246 C 0.62739 0.00608 0.50561 0.0
H1247 H 0.70538 0.99532 0.30405 0.0
H1248 H 0.6733 0.9962 0.35049 0.0
H1249 H 0.67195 0.9827 0.52457 0.0
H1250 H 0.58054 0.00604 0.64751 0.0
H1251 H 0.61483 0.00515 0.61291 0.0
C1252 C 0.51533 0.72125 0.41784 0.0
C1253 C 0.52062 0.72179 0.36255 0.0
C1254 C 0.51491 0.70317 0.44632 0.0
C1255 C 0.50656 0.65008 0.42288 0.0
H1256 H 0.53099 0.64144 0.56312 0.0
C1257 C 0.51113 0.57135 0.51209 0.0
C1258 C 0.51045 0.56848 0.56844 0.0
C1259 C 0.51243 0.59042 0.48994 0.0
C1260 C 0.52377 0.64362 0.52439 0.0
H1261 H 0.52979 0.70369 0.29419 0.0
H1262 H 0.52886 0.67227 0.34359 0.0
H1263 H 0.53363 0.6741 0.51986 0.0
H1264 H 0.51023 0.58373 0.64593 0.0
H1265 H 0.51135 0.6172 0.60737 0.0
H1266 H 0.49608 0.6201 0.42741 0.0
C1267 C 0.52517 0.68584 0.36501 0.0
C1268 C 0.5254 0.66236 0.4995 0.0
C1269 C 0.52591 0.70389 0.33686 0.0
C1270 C 0.51065 0.58536 0.60227 0.0
C1271 C 0.51157 0.60459 0.58005 0.0
C1272 C 0.50464 0.63153 0.44799 0.0
C1273 C 0.51938 0.6852 0.41984 0.0
C1274 C 0.51709 0.66568 0.44801 0.0
C1275 C 0.5125 0.60742 0.52339 0.0
C1276 C 0.51353 0.62782 0.4987 0.0
H1277 H 0.5112 0.73477 0.43882 0.0
H1278 H 0.51035 0.70315 0.48849 0.0
H1279 H 0.49961 0.65228 0.38374 0.0
H1280 H 0.51053 0.55881 0.4847 0.0
H1281 H 0.51354 0.59173 0.44629 0.0
C1282 C 0.80828 0.5428 0.37229 0.0
C1283 C 0.80078 0.525 0.34993 0.0
C1284 C 0.82732 0.54343 0.3961 0.0
C1285 C 0.87578 0.51758 0.39509 0.0
H1286 H 0.88367 0.54024 0.53814 0.0
C1287 C 0.94742 0.50251 0.51651 0.0
C1288 C 0.95528 0.51748 0.55019 0.0
C1289 C 0.92888 0.50479 0.49147 0.0
C1290 C 0.88187 0.53413 0.49778 0.0
H1291 H 0.8077 0.49412 0.3336 0.0
H1292 H 0.84071 0.49526 0.3744 0.0
H1293 H 0.85098 0.5423 0.49486 0.0
H1294 H 0.94958 0.54648 0.58481 0.0
H1295 H 0.91758 0.55096 0.53926 0.0
H1296 H 0.90654 0.50955 0.39727 0.0
C1297 C 0.83192 0.50871 0.37403 0.0
C1298 C 0.86307 0.53529 0.47303 0.0
C1299 C 0.81289 0.50801 0.35107 0.0
C1300 C 0.94409 0.53482 0.55835 0.0
C1301 C 0.92559 0.53724 0.53277 0.0
C1302 C 0.89457 0.51659 0.41948 0.0
C1303 C 0.8394 0.52638 0.39699 0.0
C1304 C 0.85972 0.52672 0.42175 0.0
C1305 C 0.91769 0.52224 0.49888 0.0
C1306 C 0.89786 0.52453 0.47164 0.0
H1307 H 0.79933 0.55614 0.37203 0.0
H1308 H 0.8327 0.55731 0.4132 0.0
H1309 H 0.87381 0.51112 0.35516 0.0
H1310 H 0.95564 0.48895 0.50927 0.0
H1311 H 0.92323 0.49268 0.46678 0.0
loop_
_geom_bond_atom_site_label_1
_geom_bond_atom_site_label_2
_geom_bond_distance
_geom_bond_site_symmetry_2
_ccdc_geom_bond_type
P0 O11 1.490 . S
P0 C14 1.812 . S
P0 C20 1.803 . S
P0 C26 1.819 . S
H1 C15 0.941 . S
H2 C16 0.939 . S
H3 C18 0.940 . S
H4 C19 0.940 . S
H5 C21 0.939 . S
H6 C22 0.942 . S
H7 C24 0.940 . S
H8 C25 0.939 . S
H9 C27 0.941 . S
H10 C31 0.939 . S
O11 P0 1.490 . S
H12 C28 0.939 . S
H13 C30 0.940 . S
C14 P0 1.812 . S
C14 C15 1.389 . S
C14 C19 1.391 . S
C15 H1 0.941 . S
C15 C14 1.389 . S
C15 C16 1.397 . S
C16 H2 0.939 . S
C16 C15 1.397 . S
C16 C17 1.378 . S
C17 C16 1.378 . S
C17 C18 1.378 . S
C18 H3 0.940 . S
C18 C17 1.378 . S
C18 C19 1.396 . S
C19 H4 0.940 . S
C19 C14 1.391 . S
C19 C18 1.396 . S
C20 P0 1.803 . S
C20 C21 1.378 . S
C20 C25 1.400 . S
C21 H5 0.939 . S
C21 C20 1.378 . S
C21 C22 1.361 . S
C22 H6 0.942 . S
C22 C21 1.361 . S
C22 C23 1.369 . S
C23 C22 1.369 . S
C23 C24 1.404 . S
C24 H7 0.940 . S
C24 C23 1.404 . S
C24 C25 1.389 . S
C25 H8 0.939 . S
C25 C20 1.400 . S
C25 C24 1.389 . S
C26 P0 1.819 . S
C26 C27 1.391 . S
C26 C31 1.391 . S
C27 H9 0.941 . S
C27 C26 1.391 . S
C27 C28 1.396 . S
C28 H12 0.939 . S
C28 C27 1.396 . S
C28 C29 1.397 . S
C29 C28 1.397 . S
C29 C30 1.385 . S
C30 H13 0.940 . S
C30 C29 1.385 . S
C30 C31 1.388 . S
C31 H10 0.939 . S
C31 C26 1.391 . S
C31 C30 1.388 . S
P32 O43 1.490 1_655 S
P32 C46 1.812 . S
P32 C52 1.803 . S
P32 C58 1.819 . S
H33 C47 0.941 1_455 S
H34 C48 0.939 . S
H35 C50 0.940 . S
H36 C51 0.940 . S
H37 C53 0.939 1_455 S
H38 C54 0.942 . S
H39 C56 0.940 . S
H40 C57 0.939 . S
H41 C59 0.941 1_455 S
H42 C63 0.939 . S
O43 P32 1.490 1_455 S
H44 C60 0.939 . S
H45 C62 0.940 . S
C46 P32 1.812 . S
C46 C47 1.389 . S
C46 C51 1.391 . S
C47 H33 0.941 1_655 S
C47 C46 1.389 . S
C47 C48 1.397 . S
C48 H34 0.939 . S
C48 C47 1.397 . S
C48 C49 1.378 . S
C49 C48 1.378 . S
C49 C50 1.378 . S
C50 H35 0.940 . S
C50 C49 1.378 . S
C50 C51 1.396 . S
C51 H36 0.940 . S
C51 C46 1.391 . S
C51 C50 1.396 . S
C52 P32 1.803 . S
C52 C53 1.378 . S
C52 C57 1.400 . S
C53 H37 0.939 1_655 S
C53 C52 1.378 . S
C53 C54 1.361 . S
C54 H38 0.942 . S
C54 C53 1.361 . S
C54 C55 1.369 . S
C55 C54 1.369 . S
C55 C56 1.404 . S
C56 H39 0.940 . S
C56 C55 1.404 . S
C56 C57 1.389 . S
C57 H40 0.939 . S
C57 C52 1.400 . S
C57 C56 1.389 . S
C58 P32 1.819 . S
C58 C59 1.391 . S
C58 C63 1.391 . S
C59 H41 0.941 1_655 S
C59 C58 1.391 . S
C59 C60 1.396 . S
C60 H44 0.939 . S
C60 C59 1.396 . S
C60 C61 1.397 . S
C61 C60 1.397 . S
C61 C62 1.385 . S
C62 H45 0.940 . S
C62 C61 1.385 . S
C62 C63 1.388 . S
C63 H42 0.939 . S
C63 C58 1.391 . S
C63 C62 1.388 . S
P64 O75 1.490 1_565 S
P64 C78 1.812 . S
P64 C84 1.803 . S
P64 C90 1.819 . S
H65 C79 0.941 1_545 S
H66 C80 0.939 . S
H67 C82 0.940 . S
H68 C83 0.940 . S
H69 C85 0.939 1_545 S
H70 C86 0.942 . S
H71 C88 0.940 . S
H72 C89 0.939 . S
H73 C91 0.922 1_545 S
H74 C95 0.939 . S
O75 P64 1.490 1_545 S
H76 C92 0.939 . S
H77 C94 0.940 . S
C78 P64 1.812 . S
C78 C79 1.389 . S
C78 C83 1.391 . S
C79 H65 0.941 1_565 S
C79 C78 1.389 . S
C79 C80 1.397 . S
C80 H66 0.939 . S
C80 C79 1.397 . S
C80 C81 1.378 . S
C81 C80 1.378 . S
C81 C82 1.378 . S
C82 H67 0.940 . S
C82 C81 1.378 . S
C82 C83 1.396 . S
C83 H68 0.940 . S
C83 C78 1.391 . S
C83 C82 1.396 . S
C84 P64 1.803 . S
C84 C85 1.378 . S
C84 C89 1.400 . S
C85 H69 0.939 1_565 S
C85 C84 1.378 . S
C85 C86 1.361 . S
C86 H70 0.942 . S
C86 C85 1.361 . S
C86 C87 1.369 . S
C87 C86 1.369 . S
C87 C88 1.404 . S
C88 H71 0.940 . S
C88 C87 1.404 . S
C88 C89 1.389 . S
C89 H72 0.939 . S
C89 C84 1.400 . S
C89 C88 1.389 . S
C90 P64 1.819 . S
C90 C91 1.391 . S
C90 C95 1.391 . S
C91 H73 0.922 1_565 S
C91 C90 1.391 . S
C91 C92 1.396 . S
C92 H76 0.939 . S
C92 C91 1.396 . S
C92 C93 1.397 . S
C93 C92 1.397 . S
C93 C94 1.385 . S
C94 H77 0.940 . S
C94 C93 1.385 . S
C94 C95 1.388 . S
C95 H74 0.939 . S
C95 C90 1.391 . S
C95 C94 1.388 . S
P96 O107 1.490 . S
P96 C110 1.812 . S
P96 C116 1.803 . S
P96 C122 1.819 . S
H97 C111 0.941 . S
H98 C112 0.939 . S
H99 C114 0.940 . S
H100 C115 0.940 . S
H101 C117 0.939 . S
H102 C118 0.942 . S
H103 C120 0.940 . S
H104 C121 0.939 . S
H105 C123 0.941 . S
H106 C127 0.939 . S
O107 P96 1.490 . S
H108 C124 0.939 . S
H109 C126 0.940 . S
C110 P96 1.812 . S
C110 C111 1.389 . S
C110 C115 1.391 . S
C111 H97 0.941 . S
C111 C110 1.389 . S
C111 C112 1.397 . S
C112 H98 0.939 . S
C112 C111 1.397 . S
C112 C113 1.378 . S
C113 C112 1.378 . S
C113 C114 1.378 . S
C114 H99 0.940 . S
C114 C113 1.378 . S
C114 C115 1.396 . S
C115 H100 0.940 . S
C115 C110 1.391 . S
C115 C114 1.396 . S
C116 P96 1.803 . S
C116 C117 1.378 . S
C116 C121 1.400 . S
C117 H101 0.939 . S
C117 C116 1.378 . S
C117 C118 1.361 . S
C118 H102 0.942 . S
C118 C117 1.361 . S
C118 C119 1.369 . S
C119 C118 1.369 . S
C119 C120 1.404 . S
C120 H103 0.940 . S
C120 C119 1.404 . S
C120 C121 1.389 . S
C121 H104 0.939 . S
C121 C116 1.400 . S
C121 C120 1.389 . S
C122 P96 1.819 . S
C122 C123 1.391 . S
C122 C127 1.391 . S
C123 H105 0.941 . S
C123 C122 1.391 . S
C123 C124 1.396 . S
C124 H108 0.939 . S
C124 C123 1.396 . S
C124 C125 1.397 . S
C125 C124 1.397 . S
C125 C126 1.385 . S
C126 H109 0.940 . S
C126 C125 1.385 . S
C126 C127 1.388 . S
C127 H106 0.939 . S
C127 C122 1.391 . S
C127 C126 1.388 . S
P128 O139 1.490 . S
P128 C142 1.812 1_554 S
P128 C148 1.803 . S
P128 C154 1.819 . S
H129 C143 0.941 . S
H130 C144 0.939 . S
H131 C146 0.940 . S
H132 C147 0.940 . S
H133 C149 0.939 . S
H134 C150 0.942 . S
H135 C152 0.940 . S
H136 C153 0.939 . S
H137 C155 0.941 . S
H138 C159 0.939 . S
O139 P128 1.490 . S
H140 C156 0.939 . S
H141 C158 0.940 . S
C142 P128 1.812 1_556 S
C142 C143 1.389 . S
C142 C147 1.391 . S
C143 H129 0.941 . S
C143 C142 1.389 . S
C143 C144 1.397 . S
C144 H130 0.939 . S
C144 C143 1.397 . S
C144 C145 1.378 . S
C145 C144 1.378 . S
C145 C146 1.378 . S
C146 H131 0.940 . S
C146 C145 1.378 . S
C146 C147 1.396 . S
C147 H132 0.940 . S
C147 C142 1.391 . S
C147 C146 1.396 . S
C148 P128 1.803 . S
C148 C149 1.378 . S
C148 C153 1.400 . S
C149 H133 0.939 . S
C149 C148 1.378 . S
C149 C150 1.361 . S
C150 H134 0.942 . S
C150 C149 1.361 . S
C150 C151 1.369 . S
C151 C150 1.369 . S
C151 C152 1.404 . S
C152 H135 0.940 . S
C152 C151 1.404 . S
C152 C153 1.389 . S
C153 H136 0.939 . S
C153 C148 1.400 . S
C153 C152 1.389 . S
C154 P128 1.819 . S
C154 C155 1.391 . S
C154 C159 1.391 . S
C155 H137 0.941 . S
C155 C154 1.391 . S
C155 C156 1.396 . S
C156 H140 0.939 . S
C156 C155 1.396 . S
C156 C157 1.397 . S
C157 C156 1.397 . S
C157 C158 1.385 . S
C158 H141 0.940 . S
C158 C157 1.385 . S
C158 C159 1.388 . S
C159 H138 0.939 . S
C159 C154 1.391 . S
C159 C158 1.388 . S
P160 O171 1.490 . S
P160 C174 1.812 1_554 S
P160 C180 1.803 . S
P160 C186 1.819 . S
H161 C175 0.941 . S
H162 C176 0.939 . S
H163 C178 0.940 . S
H164 C179 0.951 . S
H165 C181 0.939 . S
H166 C182 0.942 . S
H167 C184 0.940 . S
H168 C185 0.939 . S
H169 C187 0.941 . S
H170 C191 0.939 . S
O171 P160 1.490 . S
H172 C188 0.939 . S
H173 C190 0.940 . S
C174 P160 1.812 1_556 S
C174 C175 1.389 . S
C174 C179 1.391 . S
C175 H161 0.941 . S
C175 C174 1.389 . S
C175 C176 1.397 . S
C176 H162 0.939 . S
C176 C175 1.397 . S
C176 C177 1.378 . S
C177 C176 1.378 . S
C177 C178 1.378 . S
C178 H163 0.940 . S
C178 C177 1.378 . S
C178 C179 1.396 . S
C179 H164 0.951 . S
C179 C174 1.391 . S
C179 C178 1.396 . S
C180 P160 1.803 . S
C180 C181 1.378 . S
C180 C185 1.400 . S
C181 H165 0.939 . S
C181 C180 1.378 . S
C181 C182 1.361 . S
C182 H166 0.942 . S
C182 C181 1.361 . S
C182 C183 1.369 . S
C183 C182 1.369 . S
C183 C184 1.404 . S
C184 H167 0.940 . S
C184 C183 1.404 . S
C184 C185 1.389 . S
C185 H168 0.939 . S
C185 C180 1.400 . S
C185 C184 1.389 . S
C186 P160 1.819 . S
C186 C187 1.391 . S
C186 C191 1.391 . S
C187 H169 0.941 . S
C187 C186 1.391 . S
C187 C188 1.396 . S
C188 H172 0.939 . S
C188 C187 1.396 . S
C188 C189 1.397 . S
C189 C188 1.397 . S
C189 C190 1.385 . S
C190 H173 0.940 . S
C190 C189 1.385 . S
C190 C191 1.388 . S
C191 H170 0.939 . S
C191 C186 1.391 . S
C191 C190 1.388 . S
P192 O203 1.490 . S
P192 C206 1.812 1_554 S
P192 C212 1.803 . S
P192 C218 1.819 . S
H193 C207 0.941 . S
H194 C208 0.939 . S
H195 C210 0.940 . S
H196 C211 0.944 . S
H197 C213 0.939 . S
H198 C214 0.942 . S
H199 C216 0.940 . S
H200 C217 0.939 . S
H201 C219 0.941 . S
H202 C223 0.939 . S
O203 P192 1.490 . S
H204 C220 0.939 . S
H205 C222 0.940 . S
C206 P192 1.812 1_556 S
C206 C207 1.389 . S
C206 C211 1.391 . S
C207 H193 0.941 . S
C207 C206 1.389 . S
C207 C208 1.397 . S
C208 H194 0.939 . S
C208 C207 1.397 . S
C208 C209 1.378 . S
C209 C208 1.378 . S
C209 C210 1.378 . S
C210 H195 0.940 . S
C210 C209 1.378 . S
C210 C211 1.396 . S
C211 H196 0.944 . S
C211 C206 1.391 . S
C211 C210 1.396 . S
C212 P192 1.803 . S
C212 C213 1.378 . S
C212 C217 1.400 . S
C213 H197 0.939 . S
C213 C212 1.378 . S
C213 C214 1.361 . S
C214 H198 0.942 . S
C214 C213 1.361 . S
C214 C215 1.369 . S
C215 C214 1.369 . S
C215 C216 1.404 . S
C216 H199 0.940 . S
C216 C215 1.404 . S
C216 C217 1.389 . S
C217 H200 0.939 . S
C217 C212 1.400 . S
C217 C216 1.389 . S
C218 P192 1.819 . S
C218 C219 1.391 . S
C218 C223 1.391 . S
C219 H201 0.941 . S
C219 C218 1.391 . S
C219 C220 1.396 . S
C220 H204 0.939 . S
C220 C219 1.396 . S
C220 C221 1.397 . S
C221 C220 1.397 . S
C221 C222 1.385 . S
C222 H205 0.940 . S
C222 C221 1.385 . S
C222 C223 1.388 . S
C223 H202 0.939 . S
C223 C218 1.391 . S
C223 C222 1.388 . S
P224 O235 1.490 . S
P224 C238 1.812 1_554 S
P224 C244 1.803 . S
P224 C250 1.819 . S
H225 C239 0.941 . S
H226 C240 0.939 . S
H227 C242 0.940 . S
H228 C243 0.940 . S
H229 C245 0.939 . S
H230 C246 0.942 . S
H231 C248 0.940 . S
H232 C249 0.939 . S
H233 C251 0.941 . S
H234 C255 0.939 . S
O235 P224 1.490 . S
H236 C252 0.939 . S
H237 C254 0.940 . S
C238 P224 1.812 1_556 S
C238 C239 1.389 . S
C238 C243 1.391 . S
C239 H225 0.941 . S
C239 C238 1.389 . S
C239 C240 1.397 . S
C240 H226 0.939 . S
C240 C239 1.397 . S
C240 C241 1.378 . S
C241 C240 1.378 . S
C241 C242 1.378 . S
C242 H227 0.940 . S
C242 C241 1.378 . S
C242 C243 1.396 . S
C243 H228 0.940 . S
C243 C238 1.391 . S
C243 C242 1.396 . S
C244 P224 1.803 . S
C244 C245 1.378 . S
C244 C249 1.400 . S
C245 H229 0.939 . S
C245 C244 1.378 . S
C245 C246 1.361 . S
C246 H230 0.942 . S
C246 C245 1.361 . S
C246 C247 1.369 . S
C247 C246 1.369 . S
C247 C248 1.404 . S
C248 H231 0.940 . S
C248 C247 1.404 . S
C248 C249 1.389 . S
C249 H232 0.939 . S
C249 C244 1.400 . S
C249 C248 1.389 . S
C250 P224 1.819 . S
C250 C251 1.391 . S
C250 C255 1.391 . S
C251 H233 0.941 . S
C251 C250 1.391 . S
C251 C252 1.396 . S
C252 H236 0.939 . S
C252 C251 1.396 . S
C252 C253 1.397 . S
C253 C252 1.397 . S
C253 C254 1.385 . S
C254 H237 0.940 . S
C254 C253 1.385 . S
C254 C255 1.388 . S
C255 H234 0.939 . S
C255 C250 1.391 . S
C255 C254 1.388 . S
C256 C258 1.422 . S
C256 C260 1.415 . S
C256 N262 1.369 1_545 S
C257 C258 1.421 . S
C257 C259 1.417 . S
C257 C269 1.422 . S
C258 C256 1.422 . S
C258 C257 1.421 . S
C258 N268 1.359 . S
C259 C257 1.417 . S
C259 C261 1.329 . S
C259 H278 0.930 . S
C260 C256 1.415 . S
C260 C261 1.437 . S
C260 C264 1.413 . S
C261 C259 1.329 . S
C261 C260 1.437 . S
C261 H283 0.929 . S
N262 C256 1.369 1_565 S
N262 C263 1.338 . S
N262 Gd267 2.622 . S
C263 N262 1.338 . S
C263 C265 1.378 1_565 S
C263 H275 0.929 . S
C264 C260 1.413 . S
C264 C265 1.348 . S
C264 H280 0.931 . S
C265 C263 1.378 1_545 S
C265 C264 1.348 . S
C265 H281 0.930 . S
Gd266 N286 2.622 . S
Gd266 N293 2.570 . S
Gd266 O300 2.353 1_655 S
Gd266 O301 2.462 1_655 S
Gd266 O302 2.427 . S
Gd266 O304 2.388 . S
Gd266 O305 2.386 1_545 S
Gd266 O309 2.307 1_655 S
Gd266 C319 2.805 . S
Gd267 N262 2.622 . S
Gd267 N268 2.570 1_565 S
Gd267 O299 2.386 1_565 S
Gd267 O303 2.302 1_465 S
Gd267 O306 2.353 . S
Gd267 O307 2.468 . S
Gd267 O308 2.427 . S
Gd267 O310 2.388 . S
Gd267 C331 2.805 . S
N268 C258 1.359 . S
N268 Gd267 2.570 1_545 S
N268 C270 1.343 . S
C269 C257 1.422 . S
C269 C271 1.321 . S
C269 H277 0.931 . S
C270 N268 1.343 . S
C270 C271 1.390 . S
C270 H272 0.879 1_445 S
C271 C269 1.321 . S
C271 C270 1.390 . S
C271 H273 0.930 . S
H272 C270 0.879 1_665 S
H273 C271 0.930 . S
H274 C297 0.930 . S
H275 C263 0.929 . S
H276 C298 0.930 1_455 S
H277 C269 0.931 . S
H278 C259 0.930 . S
H279 C288 0.929 . S
H280 C264 0.931 . S
H281 C265 0.930 . S
H282 C320 0.930 . S
H283 C261 0.929 . S
H284 C289 0.931 . S
H285 C290 0.930 . S
N286 Gd266 2.622 . S
N286 C287 1.369 . S
N286 C288 1.338 . S
C287 N286 1.369 . S
C287 C291 1.415 1_545 S
C287 C294 1.422 . S
C288 H279 0.929 . S
C288 N286 1.338 . S
C288 C290 1.378 . S
C289 H284 0.931 . S
C289 C290 1.348 1_565 S
C289 C291 1.413 . S
C290 H285 0.930 . S
C290 C288 1.378 . S
C290 C289 1.348 1_545 S
C291 C287 1.415 1_565 S
C291 C289 1.413 . S
C291 C321 1.437 . S
H292 C321 0.929 . S
N293 Gd266 2.570 . S
N293 C294 1.359 . S
N293 C297 1.344 1_655 S
C294 C287 1.422 . S
C294 N293 1.359 . S
C294 C296 1.421 1_545 S
C295 C296 1.422 . S
C295 C298 1.321 . S
C295 H322 0.931 . S
C296 C294 1.421 1_565 S
C296 C295 1.422 . S
C296 C320 1.417 . S
C297 H274 0.930 . S
C297 N293 1.344 1_455 S
C297 C298 1.390 1_445 S
C298 H276 0.930 1_655 S
C298 C295 1.321 . S
C298 C297 1.390 1_665 S
O299 Gd267 2.386 1_545 S
O299 C311 1.265 . S
O300 Gd266 2.353 1_455 S
O300 C311 1.242 . S
O301 Gd266 2.462 1_455 S
O301 C319 1.249 1_455 S
O302 Gd266 2.427 . S
O302 C319 1.252 . S
O303 Gd267 2.302 1_645 S
O303 C312 1.265 . S
O304 Gd266 2.388 . S
O304 C312 1.252 . S
O305 Gd266 2.386 1_565 S
O305 C323 1.265 . S
O306 Gd267 2.353 . S
O306 C323 1.242 1_455 S
O307 Gd267 2.468 . S
O307 C331 1.263 . S
O308 Gd267 2.427 . S
O308 C331 1.252 . S
O309 Gd266 2.307 1_455 S
O309 C324 1.261 . S
O310 Gd267 2.388 . S
O310 C324 1.252 1_565 S
C311 O299 1.265 . S
C311 O300 1.242 . S
C312 O303 1.265 . S
C312 O304 1.252 . S
C313 C316 1.394 . S
C313 C318 1.370 . S
C313 C319 1.500 . S
C314 C317 1.383 . S
C314 C318 1.395 . S
C315 C316 1.396 . S
C315 C317 1.365 . S
C315 H332 0.929 . S
C316 C313 1.394 . S
C316 C315 1.396 . S
C316 H333 0.930 . S
C317 C314 1.383 . S
C317 C315 1.365 . S
C317 H334 0.931 . S
C318 C313 1.370 . S
C318 C314 1.395 . S
C318 H335 0.930 1_655 S
C319 Gd266 2.805 . S
C319 O301 1.249 1_655 S
C319 O302 1.252 . S
C319 C313 1.500 . S
C320 H282 0.930 . S
C320 C296 1.417 . S
C320 C321 1.329 . S
C321 C291 1.437 . S
C321 H292 0.929 . S
C321 C320 1.329 . S
H322 C295 0.931 . S
C323 O305 1.265 . S
C323 O306 1.242 1_655 S
C324 O309 1.261 . S
C324 O310 1.252 1_545 S
C325 C328 1.394 . S
C325 C330 1.370 . S
C325 C331 1.500 . S
C326 C329 1.383 . S
C326 C330 1.395 . S
C327 C328 1.396 . S
C327 C329 1.365 . S
C327 H336 0.929 . S
C328 C325 1.394 . S
C328 C327 1.396 . S
C328 H337 0.930 . S
C329 C326 1.383 . S
C329 C327 1.365 . S
C329 H338 0.931 . S
C330 C325 1.370 . S
C330 C326 1.395 . S
C330 H339 0.930 . S
C331 Gd267 2.805 . S
C331 O307 1.263 . S
C331 O308 1.252 . S
C331 C325 1.500 . S
H332 C315 0.929 . S
H333 C316 0.930 . S
H334 C317 0.931 . S
H335 C318 0.930 1_455 S
H336 C327 0.929 . S
H337 C328 0.930 . S
H338 C329 0.931 . S
H339 C330 0.930 . S
C340 C342 1.422 . S
C340 C344 1.415 . S
C340 N346 1.369 . S
C341 C342 1.421 . S
C341 C343 1.417 . S
C341 C353 1.422 . S
C342 C340 1.422 . S
C342 C341 1.421 . S
C342 N352 1.359 . S
C343 C341 1.417 . S
C343 C345 1.329 . S
C343 H362 0.930 . S
C344 C340 1.415 . S
C344 C345 1.437 . S
C344 C348 1.413 . S
C345 C343 1.329 . S
C345 C344 1.437 . S
C345 H367 0.929 . S
N346 C340 1.369 . S
N346 C347 1.338 . S
N346 Gd351 2.622 . S
C347 N346 1.338 . S
C347 C349 1.378 . S
C347 H359 0.929 . S
C348 C344 1.413 . S
C348 C349 1.348 . S
C348 H364 0.931 . S
C349 C347 1.378 . S
C349 C348 1.348 . S
C349 H365 0.930 . S
Gd350 N370 2.622 . S
Gd350 N377 2.570 . S
Gd350 O384 2.353 1_545 S
Gd350 O385 2.468 . S
Gd350 O386 2.427 . S
Gd350 O388 2.388 . S
Gd350 O389 2.386 . S
Gd350 O393 2.307 . S
Gd350 C403 2.805 . S
Gd351 N346 2.622 . S
Gd351 N352 2.570 . S
Gd351 O383 2.386 . S
Gd351 O387 2.307 1_565 S
Gd351 O390 2.353 1_565 S
Gd351 O391 2.468 . S
Gd351 O392 2.427 . S
Gd351 O394 2.388 . S
Gd351 C415 2.805 . S
N352 C342 1.359 . S
N352 Gd351 2.570 . S
N352 C354 1.343 . S
C353 C341 1.422 . S
C353 C355 1.321 . S
C353 H361 0.931 . S
C354 N352 1.343 . S
C354 C355 1.390 . S
C354 H356 0.931 . S
C355 C353 1.321 . S
C355 C354 1.390 . S
C355 H357 0.930 . S
H356 C354 0.931 . S
H357 C355 0.930 . S
H358 C381 0.931 . S
H359 C347 0.929 . S
H360 C382 0.930 . S
H361 C353 0.931 . S
H362 C343 0.930 . S
H363 C372 0.929 . S
H364 C348 0.931 . S
H365 C349 0.930 . S
H366 C404 0.930 . S
H367 C345 0.929 . S
H368 C373 0.931 . S
H369 C374 0.930 . S
N370 Gd350 2.622 . S
N370 C371 1.369 . S
N370 C372 1.338 . S
C371 N370 1.369 . S
C371 C375 1.415 . S
C371 C378 1.422 . S
C372 H363 0.929 . S
C372 N370 1.338 . S
C372 C374 1.378 . S
C373 H368 0.931 . S
C373 C374 1.348 . S
C373 C375 1.413 . S
C374 H369 0.930 . S
C374 C372 1.378 . S
C374 C373 1.348 . S
C375 C371 1.415 . S
C375 C373 1.413 . S
C375 C405 1.437 . S
H376 C405 0.929 . S
N377 Gd350 2.570 . S
N377 C378 1.359 . S
N377 C381 1.343 . S
C378 C371 1.422 . S
C378 N377 1.359 . S
C378 C380 1.421 . S
C379 C380 1.422 . S
C379 C382 1.321 . S
C379 H406 0.931 . S
C380 C378 1.421 . S
C380 C379 1.422 . S
C380 C404 1.417 . S
C381 H358 0.931 . S
C381 N377 1.343 . S
C381 C382 1.390 . S
C382 H360 0.930 . S
C382 C379 1.321 . S
C382 C381 1.390 . S
O383 Gd351 2.386 . S
O383 C395 1.265 . S
O384 Gd350 2.353 1_565 S
O384 C395 1.242 . S
O385 Gd350 2.468 . S
O385 C403 1.263 . S
O386 Gd350 2.427 . S
O386 C403 1.252 . S
O387 Gd351 2.307 1_545 S
O387 C396 1.261 . S
O388 Gd350 2.388 . S
O388 C396 1.252 . S
O389 Gd350 2.386 . S
O389 C407 1.265 . S
O390 Gd351 2.353 1_545 S
O390 C407 1.242 . S
O391 Gd351 2.468 . S
O391 C415 1.263 . S
O392 Gd351 2.427 . S
O392 C415 1.252 . S
O393 Gd350 2.307 . S
O393 C408 1.261 1_545 S
O394 Gd351 2.388 . S
O394 C408 1.252 . S
C395 O383 1.265 . S
C395 O384 1.242 . S
C396 O387 1.261 . S
C396 O388 1.252 . S
C397 C400 1.394 . S
C397 C402 1.370 . S
C397 C403 1.500 . S
C398 C401 1.383 . S
C398 C402 1.395 . S
C399 C400 1.396 . S
C399 C401 1.365 . S
C399 H416 0.929 . S
C400 C397 1.394 . S
C400 C399 1.396 . S
C400 H417 0.930 . S
C401 C398 1.383 . S
C401 C399 1.365 . S
C401 H418 0.931 . S
C402 C397 1.370 . S
C402 C398 1.395 . S
C402 H419 0.930 . S
C403 Gd350 2.805 . S
C403 O385 1.263 . S
C403 O386 1.252 . S
C403 C397 1.500 . S
C404 H366 0.930 . S
C404 C380 1.417 . S
C404 C405 1.329 . S
C405 C375 1.437 . S
C405 H376 0.929 . S
C405 C404 1.329 . S
H406 C379 0.931 . S
C407 O389 1.265 . S
C407 O390 1.242 . S
C408 O393 1.261 1_565 S
C408 O394 1.252 . S
C409 C412 1.394 . S
C409 C414 1.370 1_565 S
C409 C415 1.500 . S
C410 C413 1.383 1_545 S
C410 C414 1.395 . S
C411 C412 1.396 . S
C411 C413 1.365 . S
C411 H420 0.929 . S
C412 C409 1.394 . S
C412 C411 1.396 . S
C412 H421 0.930 . S
C413 C410 1.383 1_565 S
C413 C411 1.365 . S
C413 H422 0.931 . S
C414 C409 1.370 1_545 S
C414 C410 1.395 . S
C414 H423 0.930 . S
C415 Gd351 2.805 . S
C415 O391 1.263 . S
C415 O392 1.252 . S
C415 C409 1.500 . S
H416 C399 0.929 . S
H417 C400 0.930 . S
H418 C401 0.931 . S
H419 C402 0.930 . S
H420 C411 0.929 . S
H421 C412 0.930 . S
H422 C413 0.931 . S
H423 C414 0.930 . S
C424 C426 1.422 . S
C424 C428 1.415 . S
C424 N430 1.369 . S
C425 C426 1.421 . S
C425 C427 1.417 . S
C425 C437 1.422 . S
C426 C424 1.422 . S
C426 C425 1.421 . S
C426 N436 1.359 . S
C427 C425 1.417 . S
C427 C429 1.329 . S
C427 H446 0.930 . S
C428 C424 1.415 . S
C428 C429 1.437 . S
C428 C432 1.413 . S
C429 C427 1.329 . S
C429 C428 1.437 . S
C429 H451 0.929 . S
N430 C424 1.369 . S
N430 C431 1.338 . S
N430 Gd435 2.622 . S
C431 N430 1.338 . S
C431 C433 1.378 . S
C431 H443 0.929 . S
C432 C428 1.413 . S
C432 C433 1.348 . S
C432 H448 0.931 . S
C433 C431 1.378 . S
C433 C432 1.348 . S
C433 H449 0.930 . S
Gd434 N454 2.622 . S
Gd434 N461 2.570 . S
Gd434 O468 2.353 . S
Gd434 O469 2.468 . S
Gd434 O470 2.427 . S
Gd434 O472 2.388 . S
Gd434 O473 2.386 . S
Gd434 O477 2.307 . S
Gd434 C487 2.805 . S
Gd435 N430 2.622 . S
Gd435 N436 2.570 . S
Gd435 O467 2.386 . S
Gd435 O471 2.307 . S
Gd435 O474 2.353 . S
Gd435 O475 2.468 . S
Gd435 O476 2.427 . S
Gd435 O478 2.388 . S
Gd435 C499 2.805 . S
N436 C426 1.359 . S
N436 Gd435 2.570 . S
N436 C438 1.343 . S
C437 C425 1.422 . S
C437 C439 1.321 . S
C437 H445 0.931 . S
C438 N436 1.343 . S
C438 C439 1.390 . S
C438 H440 0.931 . S
C439 C437 1.321 . S
C439 C438 1.390 . S
C439 H441 0.930 . S
H440 C438 0.931 . S
H441 C439 0.930 . S
H442 C465 0.931 . S
H443 C431 0.929 . S
H444 C466 0.930 . S
H445 C437 0.931 . S
H446 C427 0.930 . S
H447 C456 0.929 . S
H448 C432 0.931 . S
H449 C433 0.930 . S
H450 C488 0.930 . S
H451 C429 0.929 . S
H452 C457 0.931 . S
H453 C458 0.930 . S
N454 Gd434 2.622 . S
N454 C455 1.369 . S
N454 C456 1.338 . S
C455 N454 1.369 . S
C455 C459 1.415 . S
C455 C462 1.422 . S
C456 H447 0.929 . S
C456 N454 1.338 . S
C456 C458 1.378 . S
C457 H452 0.931 . S
C457 C458 1.348 . S
C457 C459 1.413 . S
C458 H453 0.930 . S
C458 C456 1.378 . S
C458 C457 1.348 . S
C459 C455 1.415 . S
C459 C457 1.413 . S
C459 C489 1.437 . S
H460 C489 0.929 . S
N461 Gd434 2.570 . S
N461 C462 1.359 . S
N461 C465 1.343 . S
C462 C455 1.422 . S
C462 N461 1.359 . S
C462 C464 1.421 . S
C463 C464 1.422 . S
C463 C466 1.321 . S
C463 H490 0.931 . S
C464 C462 1.421 . S
C464 C463 1.422 . S
C464 C488 1.417 . S
C465 H442 0.931 . S
C465 N461 1.343 . S
C465 C466 1.390 . S
C466 H444 0.930 . S
C466 C463 1.321 . S
C466 C465 1.390 . S
O467 Gd435 2.386 . S
O467 C479 1.265 . S
O468 Gd434 2.353 . S
O468 C479 1.242 . S
O469 Gd434 2.468 . S
O469 C487 1.263 . S
O470 Gd434 2.427 . S
O470 C487 1.252 . S
O471 Gd435 2.307 . S
O471 C480 1.261 . S
O472 Gd434 2.388 . S
O472 C480 1.252 . S
O473 Gd434 2.386 . S
O473 C491 1.265 . S
O474 Gd435 2.353 . S
O474 C491 1.242 . S
O475 Gd435 2.468 . S
O475 C499 1.263 . S
O476 Gd435 2.427 . S
O476 C499 1.252 . S
O477 Gd434 2.307 . S
O477 C492 1.261 . S
O478 Gd435 2.388 . S
O478 C492 1.252 . S
C479 O467 1.265 . S
C479 O468 1.242 . S
C480 O471 1.261 . S
C480 O472 1.252 . S
C481 C484 1.394 . S
C481 C486 1.370 . S
C481 C487 1.500 . S
C482 C485 1.383 . S
C482 C486 1.395 . S
C483 C484 1.396 . S
C483 C485 1.365 . S
C483 H500 0.929 . S
C484 C481 1.394 . S
C484 C483 1.396 . S
C484 H501 0.930 . S
C485 C482 1.383 . S
C485 C483 1.365 . S
C485 H502 0.931 . S
C486 C481 1.370 . S
C486 C482 1.395 . S
C486 H503 0.930 . S
C487 Gd434 2.805 . S
C487 O469 1.263 . S
C487 O470 1.252 . S
C487 C481 1.500 . S
C488 H450 0.930 . S
C488 C464 1.417 . S
C488 C489 1.329 . S
C489 C459 1.437 . S
C489 H460 0.929 . S
C489 C488 1.329 . S
H490 C463 0.931 . S
C491 O473 1.265 . S
C491 O474 1.242 . S
C492 O477 1.261 . S
C492 O478 1.252 . S
C493 C496 1.394 . S
C493 C498 1.370 . S
C493 C499 1.500 . S
C494 C497 1.383 . S
C494 C498 1.395 . S
C495 C496 1.396 . S
C495 C497 1.365 . S
C495 H504 0.929 . S
C496 C493 1.394 . S
C496 C495 1.396 . S
C496 H505 0.930 . S
C497 C494 1.383 . S
C497 C495 1.365 . S
C497 H506 0.931 . S
C498 C493 1.370 . S
C498 C494 1.395 . S
C498 H507 0.930 . S
C499 Gd435 2.805 . S
C499 O475 1.263 . S
C499 O476 1.252 . S
C499 C493 1.500 . S
H500 C483 0.929 . S
H501 C484 0.930 . S
H502 C485 0.931 . S
H503 C486 0.930 . S
H504 C495 0.929 . S
H505 C496 0.930 . S
H506 C497 0.931 . S
H507 C498 0.930 . S
C508 C510 1.422 . S
C508 C512 1.415 . S
C508 N514 1.369 1_455 S
C509 C510 1.421 . S
C509 C511 1.417 . S
C509 C521 1.422 . S
C510 C508 1.422 . S
C510 C509 1.421 . S
C510 N520 1.359 . S
C511 C509 1.417 . S
C511 C513 1.329 . S
C511 H530 0.930 . S
C512 C508 1.415 . S
C512 C513 1.437 . S
C512 C516 1.413 . S
C513 C511 1.329 . S
C513 C512 1.437 . S
C513 H535 0.929 . S
N514 C508 1.369 1_655 S
N514 C515 1.338 . S
N514 Gd519 2.622 . S
C515 N514 1.338 . S
C515 C517 1.378 1_655 S
C515 H527 0.929 . S
C516 C512 1.413 . S
C516 C517 1.348 . S
C516 H532 0.931 . S
C517 C515 1.378 1_455 S
C517 C516 1.348 . S
C517 H533 0.930 . S
Gd518 N538 2.622 . S
Gd518 N545 2.570 . S
Gd518 O552 2.353 . S
Gd518 O553 2.468 . S
Gd518 O554 2.427 . S
Gd518 O556 2.388 . S
Gd518 O557 2.386 1_455 S
Gd518 O561 2.307 . S
Gd518 C571 2.805 . S
Gd519 N514 2.622 . S
Gd519 N520 2.570 1_655 S
Gd519 O551 2.386 1_655 S
Gd519 O555 2.300 1_655 S
Gd519 O558 2.353 . S
Gd519 O559 2.468 . S
Gd519 O560 2.427 . S
Gd519 O562 2.388 . S
Gd519 C583 2.805 . S
N520 C510 1.359 . S
N520 Gd519 2.570 1_455 S
N520 C522 1.343 . S
C521 C509 1.422 . S
C521 C523 1.321 . S
C521 H529 0.931 . S
C522 N520 1.343 . S
C522 C523 1.390 . S
C522 H524 0.916 1_455 S
C523 C521 1.321 . S
C523 C522 1.390 . S
C523 H525 0.930 . S
H524 C522 0.916 1_655 S
H525 C523 0.930 . S
H526 C549 0.931 . S
H527 C515 0.929 . S
H528 C550 0.930 . S
H529 C521 0.931 . S
H530 C511 0.930 . S
H531 C540 0.929 . S
H532 C516 0.931 . S
H533 C517 0.930 . S
H534 C572 0.930 . S
H535 C513 0.929 . S
H536 C541 0.921 1_655 S
H537 C542 0.930 . S
N538 Gd518 2.622 . S
N538 C539 1.369 . S
N538 C540 1.338 . S
C539 N538 1.369 . S
C539 C543 1.415 1_455 S
C539 C546 1.422 . S
C540 H531 0.929 . S
C540 N538 1.338 . S
C540 C542 1.378 . S
C541 H536 0.921 1_455 S
C541 C542 1.361 . S
C541 C543 1.411 1_455 S
C542 H537 0.930 . S
C542 C540 1.378 . S
C542 C541 1.361 . S
C543 C539 1.415 1_655 S
C543 C541 1.411 1_655 S
C543 C573 1.437 . S
H544 C573 0.929 . S
N545 Gd518 2.570 . S
N545 C546 1.359 . S
N545 C549 1.343 . S
C546 C539 1.422 . S
C546 N545 1.359 . S
C546 C548 1.421 1_455 S
C547 C548 1.422 . S
C547 C550 1.321 . S
C547 H574 0.931 . S
C548 C546 1.421 1_655 S
C548 C547 1.422 . S
C548 C572 1.417 . S
C549 H526 0.931 . S
C549 N545 1.343 . S
C549 C550 1.390 1_455 S
C550 H528 0.930 . S
C550 C547 1.321 . S
C550 C549 1.390 1_655 S
O551 Gd519 2.386 1_455 S
O551 C563 1.265 . S
O552 Gd518 2.353 . S
O552 C563 1.242 . S
O553 Gd518 2.468 . S
O553 C571 1.263 . S
O554 Gd518 2.427 . S
O554 C571 1.252 . S
O555 Gd519 2.300 1_455 S
O555 C564 1.267 . S
O556 Gd518 2.388 . S
O556 C564 1.252 . S
O557 Gd518 2.386 1_655 S
O557 C575 1.265 . S
O558 Gd519 2.353 . S
O558 C575 1.242 . S
O559 Gd519 2.468 . S
O559 C583 1.263 . S
O560 Gd519 2.427 . S
O560 C583 1.252 . S
O561 Gd518 2.307 . S
O561 C576 1.261 . S
O562 Gd519 2.388 . S
O562 C576 1.252 1_655 S
C563 O551 1.265 . S
C563 O552 1.242 . S
C564 O555 1.267 . S
C564 O556 1.252 . S
C565 C568 1.394 . S
C565 C570 1.370 . S
C565 C571 1.500 . S
C566 C569 1.383 . S
C566 C570 1.395 . S
C567 C568 1.396 . S
C567 C569 1.365 . S
C567 H584 0.929 . S
C568 C565 1.394 . S
C568 C567 1.396 . S
C568 H585 0.930 . S
C569 C566 1.383 . S
C569 C567 1.365 . S
C569 H586 0.931 . S
C570 C565 1.370 . S
C570 C566 1.395 . S
C570 H587 0.930 . S
C571 Gd518 2.805 . S
C571 O553 1.263 . S
C571 O554 1.252 . S
C571 C565 1.500 . S
C572 H534 0.930 . S
C572 C548 1.417 . S
C572 C573 1.329 . S
C573 C543 1.437 . S
C573 H544 0.929 . S
C573 C572 1.329 . S
H574 C547 0.931 . S
C575 O557 1.265 . S
C575 O558 1.242 . S
C576 O561 1.261 . S
C576 O562 1.252 1_455 S
C577 C580 1.394 . S
C577 C582 1.370 . S
C577 C583 1.500 . S
C578 C581 1.383 . S
C578 C582 1.395 . S
C579 C580 1.396 . S
C579 C581 1.365 . S
C579 H588 0.929 . S
C580 C577 1.394 . S
C580 C579 1.396 . S
C580 H589 0.930 . S
C581 C578 1.383 . S
C581 C579 1.365 . S
C581 H590 0.931 . S
C582 C577 1.370 . S
C582 C578 1.395 . S
C582 H591 0.930 . S
C583 Gd519 2.805 . S
C583 O559 1.263 . S
C583 O560 1.252 . S
C583 C577 1.500 . S
H584 C567 0.929 . S
H585 C568 0.930 . S
H586 C569 0.931 . S
H587 C570 0.930 . S
H588 C579 0.929 . S
H589 C580 0.930 . S
H590 C581 0.931 . S
H591 C582 0.930 . S
C592 C593 1.349 . S
C592 C594 1.327 . S
C592 H617 0.950 . S
C593 C592 1.349 . S
C593 C609 1.349 . S
C594 C592 1.327 . S
C594 C613 1.429 . S
C594 H618 0.950 . S
C595 C612 1.574 . S
C595 C614 1.368 . S
C595 H619 0.949 . S
H596 C600 0.949 . S
C597 C598 1.349 . S
C597 C599 1.327 . S
C597 H620 0.950 1_545 S
C598 C597 1.349 . S
C598 C610 1.349 . S
C599 C597 1.327 . S
C599 C615 1.429 . S
C599 H621 0.950 1_545 S
C600 H596 0.949 . S
C600 C608 1.574 . S
C600 C616 1.368 . S
H601 C609 0.950 . S
H602 C607 0.950 . S
H603 C608 0.949 . S
H604 C610 0.950 . S
H605 C611 0.950 . S
H606 C612 0.949 . S
C607 H602 0.950 . S
C607 C609 1.327 . S
C607 C613 1.429 . S
C608 C600 1.574 . S
C608 H603 0.949 . S
C608 C614 1.368 . S
C609 C593 1.349 . S
C609 H601 0.950 . S
C609 C607 1.327 . S
C610 C598 1.349 . S
C610 H604 0.950 . S
C610 C611 1.327 . S
C611 H605 0.950 . S
C611 C610 1.327 . S
C611 C615 1.429 . S
C612 C595 1.574 . S
C612 H606 0.949 . S
C612 C616 1.368 . S
C613 C594 1.429 . S
C613 C607 1.429 . S
C613 C614 1.523 . S
C614 C595 1.368 . S
C614 C608 1.368 . S
C614 C613 1.523 . S
C615 C599 1.429 . S
C615 C611 1.429 . S
C615 C616 1.523 . S
C616 C600 1.368 . S
C616 C612 1.368 . S
C616 C615 1.523 . S
H617 C592 0.950 . S
H618 C594 0.950 . S
H619 C595 0.949 . S
H620 C597 0.950 1_565 S
H621 C599 0.950 1_565 S
C622 C623 1.349 . S
C622 C624 1.327 . S
C622 H647 0.950 . S
C623 C622 1.349 . S
C623 C639 1.349 . S
C624 C622 1.327 . S
C624 C643 1.429 . S
C624 H648 0.950 . S
C625 C642 1.574 . S
C625 C644 1.368 . S
C625 H649 0.949 . S
H626 C630 0.949 . S
C627 C628 1.349 . S
C627 C629 1.327 . S
C627 H650 0.950 . S
C628 C627 1.349 . S
C628 C640 1.349 . S
C629 C627 1.327 . S
C629 C645 1.429 . S
C629 H651 0.950 . S
C630 H626 0.949 . S
C630 C638 1.574 . S
C630 C646 1.368 . S
H631 C639 0.950 . S
H632 C637 0.950 . S
H633 C638 0.949 . S
H634 C640 0.950 . S
H635 C641 0.950 . S
H636 C642 0.949 . S
C637 H632 0.950 . S
C637 C639 1.327 . S
C637 C643 1.429 . S
C638 C630 1.574 . S
C638 H633 0.949 . S
C638 C644 1.368 . S
C639 C623 1.349 . S
C639 H631 0.950 . S
C639 C637 1.327 . S
C640 C628 1.349 . S
C640 H634 0.950 . S
C640 C641 1.327 . S
C641 H635 0.950 . S
C641 C640 1.327 . S
C641 C645 1.429 . S
C642 C625 1.574 . S
C642 H636 0.949 . S
C642 C646 1.368 . S
C643 C624 1.429 . S
C643 C637 1.429 . S
C643 C644 1.523 . S
C644 C625 1.368 . S
C644 C638 1.368 . S
C644 C643 1.523 . S
C645 C629 1.429 . S
C645 C641 1.429 . S
C645 C646 1.523 . S
C646 C630 1.368 . S
C646 C642 1.368 . S
C646 C645 1.523 . S
H647 C622 0.950 . S
H648 C624 0.950 . S
H649 C625 0.949 . S
H650 C627 0.950 . S
H651 C629 0.950 . S
C652 C653 1.349 . S
C652 C654 1.327 . S
C652 H677 0.950 . S
C653 C652 1.349 . S
C653 C669 1.349 . S
C654 C652 1.327 . S
C654 C673 1.429 . S
C654 H678 0.950 . S
C655 C672 1.574 . S
C655 C674 1.368 . S
C655 H679 0.949 . S
H656 C660 0.949 . S
C657 C658 1.349 . S
C657 C659 1.327 . S
C657 H680 0.950 . S
C658 C657 1.349 . S
C658 C670 1.349 . S
C659 C657 1.327 . S
C659 C675 1.429 . S
C659 H681 0.950 . S
C660 H656 0.949 . S
C660 C668 1.574 . S
C660 C676 1.368 . S
H661 C669 0.950 . S
H662 C667 0.950 . S
H663 C668 0.949 . S
H664 C670 0.950 . S
H665 C671 0.950 . S
H666 C672 0.949 . S
C667 H662 0.950 . S
C667 C669 1.327 . S
C667 C673 1.429 . S
C668 C660 1.574 . S
C668 H663 0.949 . S
C668 C674 1.368 . S
C669 C653 1.349 . S
C669 H661 0.950 . S
C669 C667 1.327 . S
C670 C658 1.349 . S
C670 H664 0.950 . S
C670 C671 1.327 . S
C671 H665 0.950 . S
C671 C670 1.327 . S
C671 C675 1.429 . S
C672 C655 1.574 . S
C672 H666 0.949 . S
C672 C676 1.368 . S
C673 C654 1.429 . S
C673 C667 1.429 . S
C673 C674 1.523 . S
C674 C655 1.368 . S
C674 C668 1.368 . S
C674 C673 1.523 . S
C675 C659 1.429 . S
C675 C671 1.429 . S
C675 C676 1.523 . S
C676 C660 1.368 . S
C676 C672 1.368 . S
C676 C675 1.523 . S
H677 C652 0.950 . S
H678 C654 0.950 . S
H679 C655 0.949 . S
H680 C657 0.950 . S
H681 C659 0.950 . S
C682 C683 1.349 . S
C682 C684 1.327 . S
C682 H707 0.950 . S
C683 C682 1.349 . S
C683 C699 1.349 . S
C684 C682 1.327 . S
C684 C703 1.429 . S
C684 H708 0.950 . S
C685 C702 1.574 . S
C685 C704 1.368 . S
C685 H709 0.949 . S
H686 C690 0.949 . S
C687 C688 1.349 . S
C687 C689 1.327 . S
C687 H710 0.950 . S
C688 C687 1.349 . S
C688 C700 1.349 . S
C689 C687 1.327 . S
C689 C705 1.429 . S
C689 H711 0.950 . S
C690 H686 0.949 . S
C690 C698 1.574 . S
C690 C706 1.368 . S
H691 C699 0.950 . S
H692 C697 0.950 . S
H693 C698 0.949 . S
H694 C700 0.950 . S
H695 C701 0.950 . S
H696 C702 0.949 . S
C697 H692 0.950 . S
C697 C699 1.327 . S
C697 C703 1.429 . S
C698 C690 1.574 . S
C698 H693 0.949 . S
C698 C704 1.368 . S
C699 C683 1.349 . S
C699 H691 0.950 . S
C699 C697 1.327 . S
C700 C688 1.349 . S
C700 H694 0.950 . S
C700 C701 1.327 . S
C701 H695 0.950 . S
C701 C700 1.327 . S
C701 C705 1.429 . S
C702 C685 1.574 . S
C702 H696 0.949 . S
C702 C706 1.368 . S
C703 C684 1.429 . S
C703 C697 1.429 . S
C703 C704 1.523 . S
C704 C685 1.368 . S
C704 C698 1.368 . S
C704 C703 1.523 . S
C705 C689 1.429 . S
C705 C701 1.429 . S
C705 C706 1.523 . S
C706 C690 1.368 . S
C706 C702 1.368 . S
C706 C705 1.523 . S
H707 C682 0.950 . S
H708 C684 0.950 . S
H709 C685 0.949 . S
H710 C687 0.950 . S
H711 C689 0.950 . S
C712 C713 1.349 . S
C712 C714 1.327 . S
C712 H737 0.950 . S
C713 C712 1.349 . S
C713 C729 1.349 . S
C714 C712 1.327 . S
C714 C733 1.429 . S
C714 H738 0.950 . S
C715 C732 1.574 . S
C715 C734 1.368 . S
C715 H739 0.949 . S
H716 C720 0.949 1_545 S
C717 C718 1.349 . S
C717 C719 1.327 . S
C717 H740 0.950 . S
C718 C717 1.349 . S
C718 C730 1.349 1_565 S
C719 C717 1.327 . S
C719 C735 1.429 . S
C719 H741 0.950 . S
C720 H716 0.949 1_565 S
C720 C728 1.574 . S
C720 C736 1.368 . S
H721 C729 0.950 . S
H722 C727 0.950 1_556 S
H723 C728 0.958 1_545 S
H724 C730 0.950 . S
H725 C731 0.950 . S
H726 C732 0.949 . S
C727 H722 0.950 1_554 S
C727 C729 1.327 . S
C727 C733 1.429 . S
C728 C720 1.574 . S
C728 H723 0.958 1_565 S
C728 C734 1.368 . S
C729 C713 1.349 . S
C729 H721 0.950 . S
C729 C727 1.327 . S
C730 C718 1.349 1_545 S
C730 H724 0.950 . S
C730 C731 1.327 . S
C731 H725 0.950 . S
C731 C730 1.327 . S
C731 C735 1.429 1_545 S
C732 C715 1.574 . S
C732 H726 0.949 . S
C732 C736 1.368 . S
C733 C714 1.429 . S
C733 C727 1.429 . S
C733 C734 1.523 1_554 S
C734 C715 1.368 . S
C734 C728 1.368 . S
C734 C733 1.523 1_556 S
C735 C719 1.429 . S
C735 C731 1.429 1_565 S
C735 C736 1.523 . S
C736 C720 1.368 . S
C736 C732 1.368 . S
C736 C735 1.523 . S
H737 C712 0.950 . S
H738 C714 0.950 . S
H739 C715 0.949 . S
H740 C717 0.950 . S
H741 C719 0.950 . S
C742 C743 1.349 . S
C742 C744 1.327 . S
C742 H767 0.950 . S
C743 C742 1.349 . S
C743 C759 1.349 . S
C744 C742 1.327 . S
C744 C763 1.429 . S
C744 H768 0.950 . S
C745 C762 1.574 . S
C745 C764 1.368 . S
C745 H769 0.949 . S
H746 C750 0.949 . S
C747 C748 1.349 . S
C747 C749 1.327 . S
C747 H770 0.950 . S
C748 C747 1.349 . S
C748 C760 1.349 . S
C749 C747 1.327 . S
C749 C765 1.429 . S
C749 H771 0.950 . S
C750 H746 0.949 . S
C750 C758 1.574 . S
C750 C766 1.368 . S
H751 C759 0.950 . S
H752 C757 0.950 1_556 S
H753 C758 0.949 1_554 S
H754 C760 0.950 . S
H755 C761 0.950 . S
H756 C762 0.949 . S
C757 H752 0.950 1_554 S
C757 C759 1.327 . S
C757 C763 1.429 . S
C758 C750 1.574 . S
C758 H753 0.949 1_556 S
C758 C764 1.368 . S
C759 C743 1.349 . S
C759 H751 0.950 . S
C759 C757 1.327 . S
C760 C748 1.349 . S
C760 H754 0.950 . S
C760 C761 1.327 . S
C761 H755 0.950 . S
C761 C760 1.327 . S
C761 C765 1.429 . S
C762 C745 1.574 . S
C762 H756 0.949 . S
C762 C766 1.368 . S
C763 C744 1.429 . S
C763 C757 1.429 . S
C763 C764 1.523 1_554 S
C764 C745 1.368 . S
C764 C758 1.368 . S
C764 C763 1.523 1_556 S
C765 C749 1.429 . S
C765 C761 1.429 . S
C765 C766 1.523 . S
C766 C750 1.368 . S
C766 C762 1.368 . S
C766 C765 1.523 . S
H767 C742 0.950 . S
H768 C744 0.950 . S
H769 C745 0.949 . S
H770 C747 0.950 . S
H771 C749 0.950 . S
C772 C773 1.349 . S
C772 C774 1.327 . S
C772 H797 0.950 . S
C773 C772 1.349 . S
C773 C789 1.349 . S
C774 C772 1.327 . S
C774 C793 1.429 . S
C774 H798 0.950 . S
C775 C792 1.574 . S
C775 C794 1.368 . S
C775 H799 0.949 . S
H776 C780 0.949 . S
C777 C778 1.349 . S
C777 C779 1.327 . S
C777 H800 0.950 . S
C778 C777 1.349 . S
C778 C790 1.349 . S
C779 C777 1.327 . S
C779 C795 1.429 . S
C779 H801 0.950 . S
C780 H776 0.949 . S
C780 C788 1.574 . S
C780 C796 1.368 . S
H781 C789 0.950 . S
H782 C787 0.950 1_556 S
H783 C788 0.949 1_554 S
H784 C790 0.950 . S
H785 C791 0.950 . S
H786 C792 0.949 . S
C787 H782 0.950 1_554 S
C787 C789 1.327 . S
C787 C793 1.429 . S
C788 C780 1.574 . S
C788 H783 0.949 1_556 S
C788 C794 1.368 . S
C789 C773 1.349 . S
C789 H781 0.950 . S
C789 C787 1.327 . S
C790 C778 1.349 . S
C790 H784 0.950 . S
C790 C791 1.327 . S
C791 H785 0.950 . S
C791 C790 1.327 . S
C791 C795 1.429 . S
C792 C775 1.574 . S
C792 H786 0.949 . S
C792 C796 1.368 . S
C793 C774 1.429 . S
C793 C787 1.429 . S
C793 C794 1.523 1_554 S
C794 C775 1.368 . S
C794 C788 1.368 . S
C794 C793 1.523 1_556 S
C795 C779 1.429 . S
C795 C791 1.429 . S
C795 C796 1.523 . S
C796 C780 1.368 . S
C796 C792 1.368 . S
C796 C795 1.523 . S
H797 C772 0.950 . S
H798 C774 0.950 . S
H799 C775 0.949 . S
H800 C777 0.950 . S
H801 C779 0.950 . S
C802 C803 1.349 . S
C802 C804 1.327 . S
C802 H827 0.950 . S
C803 C802 1.349 . S
C803 C819 1.349 . S
C804 C802 1.327 . S
C804 C823 1.429 . S
C804 H828 0.950 . S
C805 C822 1.574 . S
C805 C824 1.368 . S
C805 H829 0.949 . S
H806 C810 0.949 . S
C807 C808 1.349 1_455 S
C807 C809 1.320 1_455 S
C807 H830 0.950 . S
C808 C807 1.349 1_655 S
C808 C820 1.349 . S
C809 C807 1.320 1_655 S
C809 C825 1.449 . S
C809 H831 0.938 1_655 S
C810 H806 0.949 . S
C810 C818 1.574 . S
C810 C826 1.368 . S
H811 C819 0.950 . S
H812 C817 0.950 1_556 S
H813 C818 0.949 . S
H814 C820 0.950 . S
H815 C821 0.950 . S
H816 C822 0.949 . S
C817 H812 0.950 1_554 S
C817 C819 1.327 . S
C817 C823 1.429 . S
C818 C810 1.574 . S
C818 H813 0.949 . S
C818 C824 1.368 . S
C819 C803 1.349 . S
C819 H811 0.950 . S
C819 C817 1.327 . S
C820 C808 1.349 . S
C820 H814 0.950 . S
C820 C821 1.327 . S
C821 H815 0.950 . S
C821 C820 1.327 . S
C821 C825 1.429 . S
C822 C805 1.574 . S
C822 H816 0.949 . S
C822 C826 1.368 . S
C823 C804 1.429 . S
C823 C817 1.429 . S
C823 C824 1.523 1_554 S
C824 C805 1.368 . S
C824 C818 1.368 . S
C824 C823 1.523 1_556 S
C825 C809 1.449 . S
C825 C821 1.429 . S
C825 C826 1.523 . S
C826 C810 1.368 . S
C826 C822 1.368 . S
C826 C825 1.523 . S
H827 C802 0.950 . S
H828 C804 0.950 . S
H829 C805 0.949 . S
H830 C807 0.950 . S
H831 C809 0.938 1_455 S
C832 C833 1.349 . S
C832 C834 1.327 . S
C832 H857 0.950 . S
C833 C832 1.349 . S
C833 C849 1.349 . S
C834 C832 1.327 . S
C834 C853 1.429 . S
C834 H858 0.950 . S
C835 C852 1.574 . S
C835 C854 1.368 . S
C835 H859 0.949 . S
H836 C840 0.949 . S
C837 C838 1.349 1_655 S
C837 C839 1.327 1_655 S
C837 H860 0.950 . S
C838 C837 1.349 1_455 S
C838 C850 1.349 . S
C839 C837 1.327 1_455 S
C839 C855 1.429 . S
C839 H861 0.950 1_455 S
C840 H836 0.949 . S
C840 C848 1.574 . S
C840 C856 1.368 . S
H841 C849 0.950 . S
H842 C847 0.950 . S
H843 C848 0.949 . S
H844 C850 0.950 . S
H845 C851 0.950 . S
H846 C852 0.949 . S
C847 H842 0.950 . S
C847 C849 1.327 . S
C847 C853 1.429 . S
C848 C840 1.574 . S
C848 H843 0.949 . S
C848 C854 1.368 . S
C849 C833 1.349 . S
C849 H841 0.950 . S
C849 C847 1.327 . S
C850 C838 1.349 . S
C850 H844 0.950 . S
C850 C851 1.327 . S
C851 H845 0.950 . S
C851 C850 1.327 . S
C851 C855 1.429 . S
C852 C835 1.574 . S
C852 H846 0.949 . S
C852 C856 1.368 . S
C853 C834 1.429 . S
C853 C847 1.429 . S
C853 C854 1.523 . S
C854 C835 1.368 . S
C854 C848 1.368 . S
C854 C853 1.523 . S
C855 C839 1.429 . S
C855 C851 1.429 . S
C855 C856 1.523 . S
C856 C840 1.368 . S
C856 C852 1.368 . S
C856 C855 1.523 . S
H857 C832 0.950 . S
H858 C834 0.950 . S
H859 C835 0.949 . S
H860 C837 0.950 . S
H861 C839 0.950 1_655 S
C862 C863 1.349 . S
C862 C864 1.327 . S
C862 H887 0.950 . S
C863 C862 1.349 . S
C863 C879 1.349 . S
C864 C862 1.327 . S
C864 C883 1.429 . S
C864 H888 0.950 . S
C865 C882 1.574 . S
C865 C884 1.368 . S
C865 H889 0.949 . S
H866 C870 0.949 . S
C867 C868 1.351 . S
C867 C869 1.332 . S
C867 H890 0.942 1_545 S
C868 C867 1.351 . S
C868 C880 1.349 . S
C869 C867 1.332 . S
C869 C885 1.429 . S
C869 H891 0.950 . S
C870 H866 0.949 . S
C870 C878 1.574 . S
C870 C886 1.368 . S
H871 C879 0.950 . S
H872 C877 0.950 . S
H873 C878 0.949 . S
H874 C880 0.950 . S
H875 C881 0.950 . S
H876 C882 0.949 . S
C877 H872 0.950 . S
C877 C879 1.327 . S
C877 C883 1.429 . S
C878 C870 1.574 . S
C878 H873 0.949 . S
C878 C884 1.368 . S
C879 C863 1.349 . S
C879 H871 0.950 . S
C879 C877 1.327 . S
C880 C868 1.349 . S
C880 H874 0.950 . S
C880 C881 1.327 . S
C881 H875 0.950 . S
C881 C880 1.327 . S
C881 C885 1.429 . S
C882 C865 1.574 . S
C882 H876 0.949 . S
C882 C886 1.368 . S
C883 C864 1.429 . S
C883 C877 1.429 . S
C883 C884 1.523 . S
C884 C865 1.368 . S
C884 C878 1.368 . S
C884 C883 1.523 . S
C885 C869 1.429 . S
C885 C881 1.429 . S
C885 C886 1.523 . S
C886 C870 1.368 . S
C886 C882 1.368 . S
C886 C885 1.523 . S
H887 C862 0.950 . S
H888 C864 0.950 . S
H889 C865 0.949 . S
H890 C867 0.942 1_565 S
H891 C869 0.950 . S
C892 C893 1.349 . S
C892 C894 1.327 . S
C892 H917 0.950 . S
C893 C892 1.349 . S
C893 C909 1.349 . S
C894 C892 1.327 . S
C894 C913 1.429 . S
C894 H918 0.950 . S
C895 C912 1.574 . S
C895 C914 1.368 . S
C895 H919 0.949 . S
H896 C900 0.949 . S
C897 C898 1.349 . S
C897 C899 1.327 . S
C897 H920 0.950 . S
C898 C897 1.349 . S
C898 C910 1.349 . S
C899 C897 1.327 . S
C899 C915 1.429 . S
C899 H921 0.950 . S
C900 H896 0.949 . S
C900 C908 1.574 . S
C900 C916 1.368 . S
H901 C909 0.950 . S
H902 C907 0.950 . S
H903 C908 0.949 . S
H904 C910 0.950 . S
H905 C911 0.950 . S
H906 C912 0.949 . S
C907 H902 0.950 . S
C907 C909 1.327 . S
C907 C913 1.429 . S
C908 C900 1.574 . S
C908 H903 0.949 . S
C908 C914 1.368 . S
C909 C893 1.349 . S
C909 H901 0.950 . S
C909 C907 1.327 . S
C910 C898 1.349 . S
C910 H904 0.950 . S
C910 C911 1.327 . S
C911 H905 0.950 . S
C911 C910 1.327 . S
C911 C915 1.429 . S
C912 C895 1.574 . S
C912 H906 0.949 . S
C912 C916 1.368 . S
C913 C894 1.429 . S
C913 C907 1.429 . S
C913 C914 1.523 . S
C914 C895 1.368 . S
C914 C908 1.368 . S
C914 C913 1.523 . S
C915 C899 1.429 . S
C915 C911 1.429 . S
C915 C916 1.523 . S
C916 C900 1.368 . S
C916 C912 1.368 . S
C916 C915 1.523 . S
H917 C892 0.950 . S
H918 C894 0.950 . S
H919 C895 0.949 . S
H920 C897 0.950 . S
H921 C899 0.950 . S
C922 C923 1.349 . S
C922 C924 1.327 . S
C922 H947 0.950 . S
C923 C922 1.349 . S
C923 C939 1.349 . S
C924 C922 1.327 . S
C924 C943 1.429 . S
C924 H948 0.950 . S
C925 C942 1.574 . S
C925 C944 1.368 . S
C925 H949 0.949 . S
H926 C930 0.949 . S
C927 C928 1.349 . S
C927 C929 1.327 . S
C927 H950 0.950 . S
C928 C927 1.349 . S
C928 C940 1.349 . S
C929 C927 1.327 . S
C929 C945 1.429 . S
C929 H951 0.950 . S
C930 H926 0.949 . S
C930 C938 1.574 . S
C930 C946 1.368 . S
H931 C939 0.950 . S
H932 C937 0.950 . S
H933 C938 0.949 . S
H934 C940 0.950 . S
H935 C941 0.950 . S
H936 C942 0.949 . S
C937 H932 0.950 . S
C937 C939 1.327 . S
C937 C943 1.429 . S
C938 C930 1.574 . S
C938 H933 0.949 . S
C938 C944 1.368 . S
C939 C923 1.349 . S
C939 H931 0.950 . S
C939 C937 1.327 . S
C940 C928 1.349 . S
C940 H934 0.950 . S
C940 C941 1.327 . S
C941 H935 0.950 . S
C941 C940 1.327 . S
C941 C945 1.429 . S
C942 C925 1.574 . S
C942 H936 0.949 . S
C942 C946 1.368 . S
C943 C924 1.429 . S
C943 C937 1.429 . S
C943 C944 1.523 . S
C944 C925 1.368 . S
C944 C938 1.368 . S
C944 C943 1.523 . S
C945 C929 1.429 . S
C945 C941 1.429 . S
C945 C946 1.523 . S
C946 C930 1.368 . S
C946 C942 1.368 . S
C946 C945 1.523 . S
H947 C922 0.950 . S
H948 C924 0.950 . S
H949 C925 0.949 . S
H950 C927 0.950 . S
H951 C929 0.950 . S
C952 C953 1.349 . S
C952 C954 1.327 . S
C952 H977 0.950 . S
C953 C952 1.349 . S
C953 C969 1.349 . S
C954 C952 1.327 . S
C954 C973 1.429 1_554 S
C954 H978 0.950 . S
C955 C972 1.574 . S
C955 C974 1.368 . S
C955 H979 0.949 . S
H956 C960 0.949 . S
C957 C958 1.349 . S
C957 C959 1.327 1_455 S
C957 H980 0.950 . S
C958 C957 1.349 . S
C958 C970 1.349 . S
C959 C957 1.327 1_655 S
C959 C975 1.429 . S
C959 H981 0.950 . S
C960 H956 0.949 . S
C960 C968 1.574 . S
C960 C976 1.368 . S
H961 C969 0.950 1_556 S
H962 C967 0.950 . S
H963 C968 0.949 1_554 S
H964 C970 0.950 . S
H965 C971 0.950 . S
H966 C972 0.949 . S
C967 H962 0.950 . S
C967 C969 1.327 1_556 S
C967 C973 1.429 . S
C968 C960 1.574 . S
C968 H963 0.949 1_556 S
C968 C974 1.368 . S
C969 C953 1.349 . S
C969 H961 0.950 1_554 S
C969 C967 1.327 1_554 S
C970 C958 1.349 . S
C970 H964 0.950 . S
C970 C971 1.327 . S
C971 H965 0.950 . S
C971 C970 1.327 . S
C971 C975 1.429 1_455 S
C972 C955 1.574 . S
C972 H966 0.949 . S
C972 C976 1.368 . S
C973 C954 1.429 1_556 S
C973 C967 1.429 . S
C973 C974 1.523 . S
C974 C955 1.368 . S
C974 C968 1.368 . S
C974 C973 1.523 . S
C975 C959 1.429 . S
C975 C971 1.429 1_655 S
C975 C976 1.523 . S
C976 C960 1.368 . S
C976 C972 1.368 . S
C976 C975 1.523 . S
H977 C952 0.950 . S
H978 C954 0.950 . S
H979 C955 0.949 . S
H980 C957 0.950 . S
H981 C959 0.950 . S
C982 C983 1.349 . S
C982 C984 1.327 . S
C982 H1007 0.950 . S
C983 C982 1.349 . S
C983 C999 1.349 . S
C984 C982 1.327 . S
C984 C1003 1.428 1_554 S
C984 H1008 0.950 1_554 S
C985 C1002 1.574 . S
C985 C1004 1.368 . S
C985 H1009 0.949 . S
H986 C990 0.949 . S
C987 C988 1.349 1_565 S
C987 C989 1.327 . S
C987 H1010 0.950 . S
C988 C987 1.349 1_545 S
C988 C1000 1.349 . S
C989 C987 1.327 . S
C989 C1005 1.429 . S
C989 H1011 0.950 . S
C990 H986 0.949 . S
C990 C998 1.574 1_545 S
C990 C1006 1.368 1_545 S
H991 C999 0.950 . S
H992 C997 0.950 . S
H993 C998 0.949 1_545 S
H994 C1000 0.950 . S
H995 C1001 0.950 . S
H996 C1002 0.949 . S
C997 H992 0.950 . S
C997 C999 1.327 . S
C997 C1003 1.428 1_554 S
C998 C990 1.574 1_565 S
C998 H993 0.949 1_565 S
C998 C1004 1.368 . S
C999 C983 1.349 . S
C999 H991 0.950 . S
C999 C997 1.327 . S
C1000 C988 1.349 . S
C1000 H994 0.950 . S
C1000 C1001 1.327 . S
C1001 H995 0.950 . S
C1001 C1000 1.327 . S
C1001 C1005 1.429 1_545 S
C1002 C985 1.574 . S
C1002 H996 0.949 . S
C1002 C1006 1.368 . S
C1003 C984 1.428 1_556 S
C1003 C997 1.428 1_556 S
C1003 C1004 1.523 . S
C1004 C985 1.368 . S
C1004 C998 1.368 . S
C1004 C1003 1.523 . S
C1005 C989 1.429 . S
C1005 C1001 1.429 1_565 S
C1005 C1006 1.523 . S
C1006 C990 1.368 1_565 S
C1006 C1002 1.368 . S
C1006 C1005 1.523 . S
H1007 C982 0.950 . S
H1008 C984 0.950 1_556 S
H1009 C985 0.949 . S
H1010 C987 0.950 . S
H1011 C989 0.950 . S
C1012 C1013 1.349 . S
C1012 C1014 1.327 1_554 S
C1012 H1037 0.950 . S
C1013 C1012 1.349 . S
C1013 C1029 1.349 . S
C1014 C1012 1.327 1_556 S
C1014 C1033 1.429 1_556 S
C1014 H1038 0.950 . S
C1015 C1032 1.574 . S
C1015 C1034 1.368 . S
C1015 H1039 0.949 1_556 S
H1016 C1020 0.949 . S
C1017 C1018 1.349 . S
C1017 C1019 1.327 . S
C1017 H1040 0.950 . S
C1018 C1017 1.349 . S
C1018 C1030 1.349 . S
C1019 C1017 1.327 . S
C1019 C1035 1.429 . S
C1019 H1041 0.950 . S
C1020 H1016 0.949 . S
C1020 C1028 1.574 . S
C1020 C1036 1.368 . S
H1021 C1029 0.950 . S
H1022 C1027 0.950 . S
H1023 C1028 0.949 . S
H1024 C1030 0.950 . S
H1025 C1031 0.950 . S
H1026 C1032 0.949 . S
C1027 H1022 0.950 . S
C1027 C1029 1.327 . S
C1027 C1033 1.429 . S
C1028 C1020 1.574 . S
C1028 H1023 0.949 . S
C1028 C1034 1.368 . S
C1029 C1013 1.349 . S
C1029 H1021 0.950 . S
C1029 C1027 1.327 . S
C1030 C1018 1.349 . S
C1030 H1024 0.950 . S
C1030 C1031 1.327 . S
C1031 H1025 0.950 . S
C1031 C1030 1.327 . S
C1031 C1035 1.429 . S
C1032 C1015 1.574 . S
C1032 H1026 0.949 . S
C1032 C1036 1.368 . S
C1033 C1014 1.429 1_554 S
C1033 C1027 1.429 . S
C1033 C1034 1.523 1_554 S
C1034 C1015 1.368 . S
C1034 C1028 1.368 . S
C1034 C1033 1.523 1_556 S
C1035 C1019 1.429 . S
C1035 C1031 1.429 . S
C1035 C1036 1.523 . S
C1036 C1020 1.368 . S
C1036 C1032 1.368 . S
C1036 C1035 1.523 . S
H1037 C1012 0.950 . S
H1038 C1014 0.950 . S
H1039 C1015 0.949 1_554 S
H1040 C1017 0.950 . S
H1041 C1019 0.950 . S
C1042 C1043 1.349 . S
C1042 C1044 1.327 . S
C1042 H1067 0.950 . S
C1043 C1042 1.349 . S
C1043 C1059 1.349 . S
C1044 C1042 1.327 . S
C1044 C1063 1.429 . S
C1044 H1068 0.950 1_554 S
C1045 C1062 1.574 . S
C1045 C1064 1.368 . S
C1045 H1069 0.949 . S
H1046 C1050 0.949 . S
C1047 C1048 1.349 . S
C1047 C1049 1.327 . S
C1047 H1070 0.950 . S
C1048 C1047 1.349 . S
C1048 C1060 1.349 . S
C1049 C1047 1.327 . S
C1049 C1065 1.429 . S
C1049 H1071 0.950 . S
C1050 H1046 0.949 . S
C1050 C1058 1.574 . S
C1050 C1066 1.368 . S
H1051 C1059 0.950 . S
H1052 C1057 0.950 . S
H1053 C1058 0.949 . S
H1054 C1060 0.950 . S
H1055 C1061 0.950 . S
H1056 C1062 0.949 . S
C1057 H1052 0.950 . S
C1057 C1059 1.327 . S
C1057 C1063 1.429 . S
C1058 C1050 1.574 . S
C1058 H1053 0.949 . S
C1058 C1064 1.368 . S
C1059 C1043 1.349 . S
C1059 H1051 0.950 . S
C1059 C1057 1.327 . S
C1060 C1048 1.349 . S
C1060 H1054 0.950 . S
C1060 C1061 1.327 . S
C1061 H1055 0.950 . S
C1061 C1060 1.327 . S
C1061 C1065 1.429 . S
C1062 C1045 1.574 . S
C1062 H1056 0.949 . S
C1062 C1066 1.368 . S
C1063 C1044 1.429 . S
C1063 C1057 1.429 . S
C1063 C1064 1.522 1_554 S
C1064 C1045 1.368 . S
C1064 C1058 1.368 . S
C1064 C1063 1.522 1_556 S
C1065 C1049 1.429 . S
C1065 C1061 1.429 . S
C1065 C1066 1.523 . S
C1066 C1050 1.368 . S
C1066 C1062 1.368 . S
C1066 C1065 1.523 . S
H1067 C1042 0.950 . S
H1068 C1044 0.950 1_556 S
H1069 C1045 0.949 . S
H1070 C1047 0.950 . S
H1071 C1049 0.950 . S
C1072 C1073 1.349 . S
C1072 C1074 1.327 . S
C1072 H1097 0.950 . S
C1073 C1072 1.349 . S
C1073 C1089 1.349 . S
C1074 C1072 1.327 . S
C1074 C1093 1.429 . S
C1074 H1098 0.950 . S
C1075 C1092 1.574 . S
C1075 C1094 1.368 . S
C1075 H1099 0.949 . S
H1076 C1080 0.949 . S
C1077 C1078 1.349 . S
C1077 C1079 1.327 . S
C1077 H1100 0.950 . S
C1078 C1077 1.349 . S
C1078 C1090 1.349 . S
C1079 C1077 1.327 . S
C1079 C1095 1.429 . S
C1079 H1101 0.950 . S
C1080 H1076 0.949 . S
C1080 C1088 1.574 . S
C1080 C1096 1.368 . S
H1081 C1089 0.950 . S
H1082 C1087 0.950 . S
H1083 C1088 0.949 . S
H1084 C1090 0.950 . S
H1085 C1091 0.950 . S
H1086 C1092 0.949 . S
C1087 H1082 0.950 . S
C1087 C1089 1.327 . S
C1087 C1093 1.429 . S
C1088 C1080 1.574 . S
C1088 H1083 0.949 . S
C1088 C1094 1.368 . S
C1089 C1073 1.349 . S
C1089 H1081 0.950 . S
C1089 C1087 1.327 . S
C1090 C1078 1.349 . S
C1090 H1084 0.950 . S
C1090 C1091 1.327 . S
C1091 H1085 0.950 . S
C1091 C1090 1.327 . S
C1091 C1095 1.429 . S
C1092 C1075 1.574 . S
C1092 H1086 0.949 . S
C1092 C1096 1.368 . S
C1093 C1074 1.429 . S
C1093 C1087 1.429 . S
C1093 C1094 1.523 . S
C1094 C1075 1.368 . S
C1094 C1088 1.368 . S
C1094 C1093 1.523 . S
C1095 C1079 1.429 . S
C1095 C1091 1.429 . S
C1095 C1096 1.523 . S
C1096 C1080 1.368 . S
C1096 C1092 1.368 . S
C1096 C1095 1.523 . S
H1097 C1072 0.950 . S
H1098 C1074 0.950 . S
H1099 C1075 0.949 . S
H1100 C1077 0.950 . S
H1101 C1079 0.950 . S
C1102 C1103 1.349 . S
C1102 C1104 1.327 . S
C1102 H1127 0.950 . S
C1103 C1102 1.349 . S
C1103 C1119 1.349 . S
C1104 C1102 1.327 . S
C1104 C1123 1.429 . S
C1104 H1128 0.950 . S
C1105 C1122 1.574 . S
C1105 C1124 1.368 . S
C1105 H1129 0.949 . S
H1106 C1110 0.949 . S
C1107 C1108 1.349 . S
C1107 C1109 1.327 . S
C1107 H1130 0.950 1_545 S
C1108 C1107 1.349 . S
C1108 C1120 1.349 . S
C1109 C1107 1.327 . S
C1109 C1125 1.429 . S
C1109 H1131 0.950 1_545 S
C1110 H1106 0.949 . S
C1110 C1118 1.574 . S
C1110 C1126 1.368 . S
H1111 C1119 0.950 . S
H1112 C1117 0.950 . S
H1113 C1118 0.949 . S
H1114 C1120 0.950 . S
H1115 C1121 0.950 . S
H1116 C1122 0.949 . S
C1117 H1112 0.950 . S
C1117 C1119 1.327 . S
C1117 C1123 1.429 . S
C1118 C1110 1.574 . S
C1118 H1113 0.949 . S
C1118 C1124 1.368 . S
C1119 C1103 1.349 . S
C1119 H1111 0.950 . S
C1119 C1117 1.327 . S
C1120 C1108 1.349 . S
C1120 H1114 0.950 . S
C1120 C1121 1.327 . S
C1121 H1115 0.950 . S
C1121 C1120 1.327 . S
C1121 C1125 1.429 . S
C1122 C1105 1.574 . S
C1122 H1116 0.949 . S
C1122 C1126 1.368 . S
C1123 C1104 1.429 . S
C1123 C1117 1.429 . S
C1123 C1124 1.523 . S
C1124 C1105 1.368 . S
C1124 C1118 1.368 . S
C1124 C1123 1.523 . S
C1125 C1109 1.429 . S
C1125 C1121 1.429 . S
C1125 C1126 1.523 . S
C1126 C1110 1.368 . S
C1126 C1122 1.368 . S
C1126 C1125 1.523 . S
H1127 C1102 0.950 . S
H1128 C1104 0.950 . S
H1129 C1105 0.949 . S
H1130 C1107 0.950 1_565 S
H1131 C1109 0.950 1_565 S
C1132 C1133 1.349 . S
C1132 C1134 1.327 . S
C1132 H1157 0.950 . S
C1133 C1132 1.349 . S
C1133 C1149 1.349 . S
C1134 C1132 1.327 . S
C1134 C1153 1.429 . S
C1134 H1158 0.950 . S
C1135 C1152 1.574 . S
C1135 C1154 1.368 . S
C1135 H1159 0.949 . S
H1136 C1140 0.949 . S
C1137 C1138 1.349 . S
C1137 C1139 1.327 . S
C1137 H1160 0.950 . S
C1138 C1137 1.349 . S
C1138 C1150 1.349 . S
C1139 C1137 1.327 . S
C1139 C1155 1.429 . S
C1139 H1161 0.950 . S
C1140 H1136 0.949 . S
C1140 C1148 1.574 . S
C1140 C1156 1.368 . S
H1141 C1149 0.950 . S
H1142 C1147 0.950 . S
H1143 C1148 0.949 . S
H1144 C1150 0.950 . S
H1145 C1151 0.950 . S
H1146 C1152 0.949 . S
C1147 H1142 0.950 . S
C1147 C1149 1.327 . S
C1147 C1153 1.429 . S
C1148 C1140 1.574 . S
C1148 H1143 0.949 . S
C1148 C1154 1.368 . S
C1149 C1133 1.349 . S
C1149 H1141 0.950 . S
C1149 C1147 1.327 . S
C1150 C1138 1.349 . S
C1150 H1144 0.950 . S
C1150 C1151 1.327 . S
C1151 H1145 0.950 . S
C1151 C1150 1.327 . S
C1151 C1155 1.429 . S
C1152 C1135 1.574 . S
C1152 H1146 0.949 . S
C1152 C1156 1.368 . S
C1153 C1134 1.429 . S
C1153 C1147 1.429 . S
C1153 C1154 1.523 . S
C1154 C1135 1.368 . S
C1154 C1148 1.368 . S
C1154 C1153 1.523 . S
C1155 C1139 1.429 . S
C1155 C1151 1.429 . S
C1155 C1156 1.523 . S
C1156 C1140 1.368 . S
C1156 C1152 1.368 . S
C1156 C1155 1.523 . S
H1157 C1132 0.950 . S
H1158 C1134 0.950 . S
H1159 C1135 0.949 . S
H1160 C1137 0.950 . S
H1161 C1139 0.950 . S
C1162 C1163 1.349 . S
C1162 C1164 1.327 . S
C1162 H1187 0.950 . S
C1163 C1162 1.349 . S
C1163 C1179 1.349 . S
C1164 C1162 1.327 . S
C1164 C1183 1.429 . S
C1164 H1188 0.950 . S
C1165 C1182 1.574 . S
C1165 C1184 1.368 . S
C1165 H1189 0.949 . S
H1166 C1170 0.949 . S
C1167 C1168 1.349 . S
C1167 C1169 1.327 . S
C1167 H1190 0.950 . S
C1168 C1167 1.349 . S
C1168 C1180 1.349 . S
C1169 C1167 1.327 . S
C1169 C1185 1.429 . S
C1169 H1191 0.950 . S
C1170 H1166 0.949 . S
C1170 C1178 1.574 . S
C1170 C1186 1.368 . S
H1171 C1179 0.950 . S
H1172 C1177 0.950 . S
H1173 C1178 0.949 . S
H1174 C1180 0.950 . S
H1175 C1181 0.950 . S
H1176 C1182 0.949 . S
C1177 H1172 0.950 . S
C1177 C1179 1.327 . S
C1177 C1183 1.429 . S
C1178 C1170 1.574 . S
C1178 H1173 0.949 . S
C1178 C1184 1.368 . S
C1179 C1163 1.349 . S
C1179 H1171 0.950 . S
C1179 C1177 1.327 . S
C1180 C1168 1.349 . S
C1180 H1174 0.950 . S
C1180 C1181 1.327 . S
C1181 H1175 0.950 . S
C1181 C1180 1.327 . S
C1181 C1185 1.429 . S
C1182 C1165 1.574 . S
C1182 H1176 0.949 . S
C1182 C1186 1.368 . S
C1183 C1164 1.429 . S
C1183 C1177 1.429 . S
C1183 C1184 1.523 . S
C1184 C1165 1.368 . S
C1184 C1178 1.368 . S
C1184 C1183 1.523 . S
C1185 C1169 1.429 . S
C1185 C1181 1.429 . S
C1185 C1186 1.523 . S
C1186 C1170 1.368 . S
C1186 C1182 1.368 . S
C1186 C1185 1.523 . S
H1187 C1162 0.950 . S
H1188 C1164 0.950 . S
H1189 C1165 0.949 . S
H1190 C1167 0.950 . S
H1191 C1169 0.950 . S
C1192 C1193 1.349 . S
C1192 C1194 1.327 . S
C1192 H1217 0.950 . S
C1193 C1192 1.349 . S
C1193 C1209 1.349 . S
C1194 C1192 1.327 . S
C1194 C1213 1.429 . S
C1194 H1218 0.950 . S
C1195 C1212 1.574 . S
C1195 C1214 1.368 . S
C1195 H1219 0.949 . S
H1196 C1200 0.949 1_455 S
C1197 C1198 1.349 . S
C1197 C1199 1.327 . S
C1197 H1220 0.950 . S
C1198 C1197 1.349 . S
C1198 C1210 1.349 1_655 S
C1199 C1197 1.327 . S
C1199 C1215 1.429 . S
C1199 H1221 0.950 . S
C1200 H1196 0.949 1_655 S
C1200 C1208 1.574 . S
C1200 C1216 1.368 . S
H1201 C1209 0.950 . S
H1202 C1207 0.950 . S
H1203 C1208 0.949 . S
H1204 C1210 0.950 . S
H1205 C1211 0.926 1_455 S
H1206 C1212 0.949 . S
C1207 H1202 0.950 . S
C1207 C1209 1.327 . S
C1207 C1213 1.429 . S
C1208 C1200 1.574 . S
C1208 H1203 0.949 . S
C1208 C1214 1.368 . S
C1209 C1193 1.349 . S
C1209 H1201 0.950 . S
C1209 C1207 1.327 . S
C1210 C1198 1.349 1_455 S
C1210 H1204 0.950 . S
C1210 C1211 1.323 1_455 S
C1211 H1205 0.926 1_655 S
C1211 C1210 1.323 1_655 S
C1211 C1215 1.458 . S
C1212 C1195 1.574 . S
C1212 H1206 0.949 . S
C1212 C1216 1.368 . S
C1213 C1194 1.429 . S
C1213 C1207 1.429 . S
C1213 C1214 1.523 . S
C1214 C1195 1.368 . S
C1214 C1208 1.368 . S
C1214 C1213 1.523 . S
C1215 C1199 1.429 . S
C1215 C1211 1.458 . S
C1215 C1216 1.523 . S
C1216 C1200 1.368 . S
C1216 C1212 1.368 . S
C1216 C1215 1.523 . S
H1217 C1192 0.950 . S
H1218 C1194 0.950 . S
H1219 C1195 0.949 . S
H1220 C1197 0.950 . S
H1221 C1199 0.950 . S
C1222 C1223 1.349 . S
C1222 C1224 1.327 . S
C1222 H1247 0.950 . S
C1223 C1222 1.349 . S
C1223 C1239 1.349 . S
C1224 C1222 1.327 . S
C1224 C1243 1.429 . S
C1224 H1248 0.950 . S
C1225 C1242 1.574 . S
C1225 C1244 1.368 . S
C1225 H1249 0.949 . S
H1226 C1230 0.949 . S
C1227 C1228 1.349 . S
C1227 C1229 1.327 . S
C1227 H1250 0.950 . S
C1228 C1227 1.349 . S
C1228 C1240 1.349 . S
C1229 C1227 1.327 . S
C1229 C1245 1.429 . S
C1229 H1251 0.950 . S
C1230 H1226 0.949 . S
C1230 C1238 1.574 . S
C1230 C1246 1.368 . S
H1231 C1239 0.950 . S
H1232 C1237 0.950 . S
H1233 C1238 0.949 . S
H1234 C1240 0.949 . S
H1235 C1241 0.950 . S
H1236 C1242 0.949 . S
C1237 H1232 0.950 . S
C1237 C1239 1.327 . S
C1237 C1243 1.429 . S
C1238 C1230 1.574 . S
C1238 H1233 0.949 . S
C1238 C1244 1.368 . S
C1239 C1223 1.349 . S
C1239 H1231 0.950 . S
C1239 C1237 1.327 . S
C1240 C1228 1.349 . S
C1240 H1234 0.949 . S
C1240 C1241 1.327 . S
C1241 H1235 0.950 . S
C1241 C1240 1.327 . S
C1241 C1245 1.429 . S
C1242 C1225 1.574 . S
C1242 H1236 0.949 . S
C1242 C1246 1.368 . S
C1243 C1224 1.429 . S
C1243 C1237 1.429 . S
C1243 C1244 1.523 . S
C1244 C1225 1.368 . S
C1244 C1238 1.368 . S
C1244 C1243 1.523 . S
C1245 C1229 1.429 . S
C1245 C1241 1.429 . S
C1245 C1246 1.523 . S
C1246 C1230 1.368 . S
C1246 C1242 1.368 . S
C1246 C1245 1.523 . S
H1247 C1222 0.950 . S
H1248 C1224 0.950 . S
H1249 C1225 0.949 . S
H1250 C1227 0.950 . S
H1251 C1229 0.950 . S
C1252 C1253 1.349 . S
C1252 C1254 1.327 . S
C1252 H1277 0.950 . S
C1253 C1252 1.349 . S
C1253 C1269 1.349 . S
C1254 C1252 1.327 . S
C1254 C1273 1.429 . S
C1254 H1278 0.950 . S
C1255 C1272 1.574 . S
C1255 C1274 1.368 . S
C1255 H1279 0.949 . S
H1256 C1260 0.949 . S
C1257 C1258 1.349 . S
C1257 C1259 1.327 . S
C1257 H1280 0.950 . S
C1258 C1257 1.349 . S
C1258 C1270 1.349 . S
C1259 C1257 1.327 . S
C1259 C1275 1.429 . S
C1259 H1281 0.950 . S
C1260 H1256 0.949 . S
C1260 C1268 1.574 . S
C1260 C1276 1.368 . S
H1261 C1269 0.950 . S
H1262 C1267 0.950 . S
H1263 C1268 0.949 . S
H1264 C1270 0.950 . S
H1265 C1271 0.950 . S
H1266 C1272 0.949 . S
C1267 H1262 0.950 . S
C1267 C1269 1.327 . S
C1267 C1273 1.429 . S
C1268 C1260 1.574 . S
C1268 H1263 0.949 . S
C1268 C1274 1.368 . S
C1269 C1253 1.349 . S
C1269 H1261 0.950 . S
C1269 C1267 1.327 . S
C1270 C1258 1.349 . S
C1270 H1264 0.950 . S
C1270 C1271 1.327 . S
C1271 H1265 0.950 . S
C1271 C1270 1.327 . S
C1271 C1275 1.429 . S
C1272 C1255 1.574 . S
C1272 H1266 0.949 . S
C1272 C1276 1.368 . S
C1273 C1254 1.429 . S
C1273 C1267 1.429 . S
C1273 C1274 1.523 . S
C1274 C1255 1.368 . S
C1274 C1268 1.368 . S
C1274 C1273 1.523 . S
C1275 C1259 1.429 . S
C1275 C1271 1.429 . S
C1275 C1276 1.523 . S
C1276 C1260 1.368 . S
C1276 C1272 1.368 . S
C1276 C1275 1.523 . S
H1277 C1252 0.950 . S
H1278 C1254 0.950 . S
H1279 C1255 0.949 . S
H1280 C1257 0.950 . S
H1281 C1259 0.950 . S
C1282 C1283 1.349 . S
C1282 C1284 1.327 . S
C1282 H1307 0.950 . S
C1283 C1282 1.349 . S
C1283 C1299 1.349 . S
C1284 C1282 1.327 . S
C1284 C1303 1.429 . S
C1284 H1308 0.950 . S
C1285 C1302 1.574 . S
C1285 C1304 1.368 . S
C1285 H1309 0.949 . S
H1286 C1290 0.949 . S
C1287 C1288 1.349 . S
C1287 C1289 1.327 . S
C1287 H1310 0.950 . S
C1288 C1287 1.349 . S
C1288 C1300 1.349 . S
C1289 C1287 1.327 . S
C1289 C1305 1.429 . S
C1289 H1311 0.950 . S
C1290 H1286 0.949 . S
C1290 C1298 1.574 . S
C1290 C1306 1.368 . S
H1291 C1299 0.950 . S
H1292 C1297 0.950 . S
H1293 C1298 0.949 . S
H1294 C1300 0.950 . S
H1295 C1301 0.950 . S
H1296 C1302 0.949 . S
C1297 H1292 0.950 . S
C1297 C1299 1.327 . S
C1297 C1303 1.429 . S
C1298 C1290 1.574 . S
C1298 H1293 0.949 . S
C1298 C1304 1.368 . S
C1299 C1283 1.349 . S
C1299 H1291 0.950 . S
C1299 C1297 1.327 . S
C1300 C1288 1.349 . S
C1300 H1294 0.950 . S
C1300 C1301 1.327 . S
C1301 H1295 0.950 . S
C1301 C1300 1.327 . S
C1301 C1305 1.429 . S
C1302 C1285 1.574 . S
C1302 H1296 0.949 . S
C1302 C1306 1.368 . S
C1303 C1284 1.429 . S
C1303 C1297 1.429 . S
C1303 C1304 1.523 . S
C1304 C1285 1.368 . S
C1304 C1298 1.368 . S
C1304 C1303 1.523 . S
C1305 C1289 1.429 . S
C1305 C1301 1.429 . S
C1305 C1306 1.523 . S
C1306 C1290 1.368 . S
C1306 C1302 1.368 . S
C1306 C1305 1.523 . S
H1307 C1282 0.950 . S
H1308 C1284 0.950 . S
H1309 C1285 0.949 . S
H1310 C1287 0.950 . S
H1311 C1289 0.950 . S
C593 C215 1.977 . S
C598 C324 2.047 . S
C628 C407 2.067 . S
C623 C247 1.992 . S
C658 C492 2.035 . S
C653 C151 1.963 . S
C688 C576 2.019 . S
C683 C183 1.948 . S
C718 C312 2.047 1_565 S
C713 C87 1.912 . S
C743 C119 1.926 . S
C748 C395 2.068 . S
C773 C23 1.902 . S
C778 C480 2.035 . S
C803 C55 1.886 . S
C808 C564 2.018 1_655 S
C838 C314 0.453 1_455 S
C833 C189 0.291 . S
C868 C410 0.534 . S
C863 C221 0.247 . S
C898 C482 0.452 . S
C893 C253 0.298 . S
C923 C157 0.272 . S
C928 C566 0.445 . S
C953 C61 0.486 . S
C958 C326 0.453 . S
C988 C398 0.534 . S
C983 C93 0.484 . S
C1018 C494 0.452 . S
C1013 C125 0.495 . S
C1043 C29 0.484 . S
C1048 C578 0.445 . S
C1073 C177 2.200 . S
C1078 C311 2.365 . S
C1103 C209 2.190 . S
C1108 C396 2.362 . S
C1138 C479 2.391 . S
C1133 C241 2.224 . S
C1168 C563 2.394 . S
C1163 C145 2.227 . S
C1193 C49 2.148 . S
C1198 C323 2.364 . S
C1228 C408 2.363 . S
C1223 C81 2.134 . S
C1258 C491 2.391 . S
C1253 C113 2.169 . S
C1283 C17 2.177 . S
C1288 C575 2.395 . S
