# Generated by pormake.
# Topology ptr, (4,4)-cn, num edge types: 1
# Building blocks:
#     Node 0, Type 0, BuildingBlock: TATPOV_clean_sbu_0, # of connection points: 4
#     Node 1, Type 0, BuildingBlock: TATPOV_clean_sbu_0, # of connection points: 4
#     Node 2, Type 0, BuildingBlock: TATPOV_clean_sbu_0, # of connection points: 4
#     Node 3, Type 0, BuildingBlock: TATPOV_clean_sbu_0, # of connection points: 4
#     Node 4, Type 0, BuildingBlock: TATPOV_clean_sbu_0, # of connection points: 4
#     Node 5, Type 0, BuildingBlock: TATPOV_clean_sbu_0, # of connection points: 4
#     Node 6, Type 0, BuildingBlock: TATPOV_clean_sbu_0, # of connection points: 4
#     Node 7, Type 0, BuildingBlock: TATPOV_clean_sbu_0, # of connection points: 4
#     Node 8, Type 0, BuildingBlock: TATPOV_clean_sbu_0, # of connection points: 4
#     Node 9, Type 0, BuildingBlock: TATPOV_clean_sbu_0, # of connection points: 4
#     Node 10, Type 0, BuildingBlock: TATPOV_clean_sbu_0, # of connection points: 4
#     Node 11, Type 0, BuildingBlock: TATPOV_clean_sbu_0, # of connection points: 4
#     Node 12, Type 0, BuildingBlock: TATPOV_clean_sbu_0, # of connection points: 4
#     Node 13, Type 0, BuildingBlock: TATPOV_clean_sbu_0, # of connection points: 4
#     Node 14, Type 0, BuildingBlock: TATPOV_clean_sbu_0, # of connection points: 4
#     Node 15, Type 0, BuildingBlock: TATPOV_clean_sbu_0, # of connection points: 4
#     Node 16, Type 0, BuildingBlock: TATPOV_clean_sbu_0, # of connection points: 4
#     Node 17, Type 0, BuildingBlock: TATPOV_clean_sbu_0, # of connection points: 4
#     Node 18, Type 1, BuildingBlock: GIZVER_clean_linker_0, # of connection points: 4
#     Node 19, Type 1, BuildingBlock: GIZVER_clean_linker_0, # of connection points: 4
#     Node 20, Type 1, BuildingBlock: GIZVER_clean_linker_0, # of connection points: 4
#     Node 21, Type 1, BuildingBlock: GIZVER_clean_linker_0, # of connection points: 4
#     Node 22, Type 1, BuildingBlock: GIZVER_clean_linker_0, # of connection points: 4
#     Node 23, Type 1, BuildingBlock: GIZVER_clean_linker_0, # of connection points: 4
#     Node 24, Type 1, BuildingBlock: GIZVER_clean_linker_0, # of connection points: 4
#     Node 25, Type 1, BuildingBlock: GIZVER_clean_linker_0, # of connection points: 4
#     Node 26, Type 1, BuildingBlock: GIZVER_clean_linker_0, # of connection points: 4
#     Node 27, Type 1, BuildingBlock: GIZVER_clean_linker_0, # of connection points: 4
#     Node 28, Type 1, BuildingBlock: GIZVER_clean_linker_0, # of connection points: 4
#     Node 29, Type 1, BuildingBlock: GIZVER_clean_linker_0, # of connection points: 4
#     Node 30, Type 1, BuildingBlock: GIZVER_clean_linker_0, # of connection points: 4
#     Node 31, Type 1, BuildingBlock: GIZVER_clean_linker_0, # of connection points: 4
#     Node 32, Type 1, BuildingBlock: GIZVER_clean_linker_0, # of connection points: 4
#     Node 33, Type 1, BuildingBlock: GIZVER_clean_linker_0, # of connection points: 4
#     Node 34, Type 1, BuildingBlock: GIZVER_clean_linker_0, # of connection points: 4
#     Node 35, Type 1, BuildingBlock: GIZVER_clean_linker_0, # of connection points: 4
#     Edge 36, Type (0, 1), BuildingBlock: OJICUG_clean_linker_0, # of connection points: 2
#     Edge 37, Type (0, 1), BuildingBlock: OJICUG_clean_linker_0, # of connection points: 2
#     Edge 38, Type (0, 1), BuildingBlock: OJICUG_clean_linker_0, # of connection points: 2
#     Edge 39, Type (0, 1), BuildingBlock: OJICUG_clean_linker_0, # of connection points: 2
#     Edge 40, Type (0, 1), BuildingBlock: OJICUG_clean_linker_0, # of connection points: 2
#     Edge 41, Type (0, 1), BuildingBlock: OJICUG_clean_linker_0, # of connection points: 2
#     Edge 42, Type (0, 1), BuildingBlock: OJICUG_clean_linker_0, # of connection points: 2
#     Edge 43, Type (0, 1), BuildingBlock: OJICUG_clean_linker_0, # of connection points: 2
#     Edge 44, Type (0, 1), BuildingBlock: OJICUG_clean_linker_0, # of connection points: 2
#     Edge 45, Type (0, 1), BuildingBlock: OJICUG_clean_linker_0, # of connection points: 2
#     Edge 46, Type (0, 1), BuildingBlock: OJICUG_clean_linker_0, # of connection points: 2
#     Edge 47, Type (0, 1), BuildingBlock: OJICUG_clean_linker_0, # of connection points: 2
#     Edge 48, Type (0, 1), BuildingBlock: OJICUG_clean_linker_0, # of connection points: 2
#     Edge 49, Type (0, 1), BuildingBlock: OJICUG_clean_linker_0, # of connection points: 2
#     Edge 50, Type (0, 1), BuildingBlock: OJICUG_clean_linker_0, # of connection points: 2
#     Edge 51, Type (0, 1), BuildingBlock: OJICUG_clean_linker_0, # of connection points: 2
#     Edge 52, Type (0, 1), BuildingBlock: OJICUG_clean_linker_0, # of connection points: 2
#     Edge 53, Type (0, 1), BuildingBlock: OJICUG_clean_linker_0, # of connection points: 2
#     Edge 54, Type (0, 1), BuildingBlock: OJICUG_clean_linker_0, # of connection points: 2
#     Edge 55, Type (0, 1), BuildingBlock: OJICUG_clean_linker_0, # of connection points: 2
#     Edge 56, Type (0, 1), BuildingBlock: OJICUG_clean_linker_0, # of connection points: 2
#     Edge 57, Type (0, 1), BuildingBlock: OJICUG_clean_linker_0, # of connection points: 2
#     Edge 58, Type (0, 1), BuildingBlock: OJICUG_clean_linker_0, # of connection points: 2
#     Edge 59, Type (0, 1), BuildingBlock: OJICUG_clean_linker_0, # of connection points: 2
#     Edge 60, Type (0, 1), BuildingBlock: OJICUG_clean_linker_0, # of connection points: 2
#     Edge 61, Type (0, 1), BuildingBlock: OJICUG_clean_linker_0, # of connection points: 2
#     Edge 62, Type (0, 1), BuildingBlock: OJICUG_clean_linker_0, # of connection points: 2
#     Edge 63, Type (0, 1), BuildingBlock: OJICUG_clean_linker_0, # of connection points: 2
#     Edge 64, Type (0, 1), BuildingBlock: OJICUG_clean_linker_0, # of connection points: 2
#     Edge 65, Type (0, 1), BuildingBlock: OJICUG_clean_linker_0, # of connection points: 2
#     Edge 66, Type (0, 1), BuildingBlock: OJICUG_clean_linker_0, # of connection points: 2
#     Edge 67, Type (0, 1), BuildingBlock: OJICUG_clean_linker_0, # of connection points: 2
#     Edge 68, Type (0, 1), BuildingBlock: OJICUG_clean_linker_0, # of connection points: 2
#     Edge 69, Type (0, 1), BuildingBlock: OJICUG_clean_linker_0, # of connection points: 2
#     Edge 70, Type (0, 1), BuildingBlock: OJICUG_clean_linker_0, # of connection points: 2
#     Edge 71, Type (0, 1), BuildingBlock: OJICUG_clean_linker_0, # of connection points: 2
#     Edge 72, Type (0, 1), BuildingBlock: OJICUG_clean_linker_0, # of connection points: 2
#     Edge 73, Type (0, 1), BuildingBlock: OJICUG_clean_linker_0, # of connection points: 2
#     Edge 74, Type (0, 1), BuildingBlock: OJICUG_clean_linker_0, # of connection points: 2
#     Edge 75, Type (0, 1), BuildingBlock: OJICUG_clean_linker_0, # of connection points: 2
#     Edge 76, Type (0, 1), BuildingBlock: OJICUG_clean_linker_0, # of connection points: 2
#     Edge 77, Type (0, 1), BuildingBlock: OJICUG_clean_linker_0, # of connection points: 2
#     Edge 78, Type (0, 1), BuildingBlock: OJICUG_clean_linker_0, # of connection points: 2
#     Edge 79, Type (0, 1), BuildingBlock: OJICUG_clean_linker_0, # of connection points: 2
#     Edge 80, Type (0, 1), BuildingBlock: OJICUG_clean_linker_0, # of connection points: 2
#     Edge 81, Type (0, 1), BuildingBlock: OJICUG_clean_linker_0, # of connection points: 2
#     Edge 82, Type (0, 1), BuildingBlock: OJICUG_clean_linker_0, # of connection points: 2
#     Edge 83, Type (0, 1), BuildingBlock: OJICUG_clean_linker_0, # of connection points: 2
#     Edge 84, Type (0, 1), BuildingBlock: OJICUG_clean_linker_0, # of connection points: 2
#     Edge 85, Type (0, 1), BuildingBlock: OJICUG_clean_linker_0, # of connection points: 2
#     Edge 86, Type (0, 1), BuildingBlock: OJICUG_clean_linker_0, # of connection points: 2
#     Edge 87, Type (0, 1), BuildingBlock: OJICUG_clean_linker_0, # of connection points: 2
#     Edge 88, Type (0, 1), BuildingBlock: OJICUG_clean_linker_0, # of connection points: 2
#     Edge 89, Type (0, 1), BuildingBlock: OJICUG_clean_linker_0, # of connection points: 2
#     Edge 90, Type (0, 1), BuildingBlock: OJICUG_clean_linker_0, # of connection points: 2
#     Edge 91, Type (0, 1), BuildingBlock: OJICUG_clean_linker_0, # of connection points: 2
#     Edge 92, Type (0, 1), BuildingBlock: OJICUG_clean_linker_0, # of connection points: 2
#     Edge 93, Type (0, 1), BuildingBlock: OJICUG_clean_linker_0, # of connection points: 2
#     Edge 94, Type (0, 1), BuildingBlock: OJICUG_clean_linker_0, # of connection points: 2
#     Edge 95, Type (0, 1), BuildingBlock: OJICUG_clean_linker_0, # of connection points: 2
#     Edge 96, Type (0, 1), BuildingBlock: OJICUG_clean_linker_0, # of connection points: 2
#     Edge 97, Type (0, 1), BuildingBlock: OJICUG_clean_linker_0, # of connection points: 2
#     Edge 98, Type (0, 1), BuildingBlock: OJICUG_clean_linker_0, # of connection points: 2
#     Edge 99, Type (0, 1), BuildingBlock: OJICUG_clean_linker_0, # of connection points: 2
#     Edge 100, Type (0, 1), BuildingBlock: OJICUG_clean_linker_0, # of connection points: 2
#     Edge 101, Type (0, 1), BuildingBlock: OJICUG_clean_linker_0, # of connection points: 2
#     Edge 102, Type (0, 1), BuildingBlock: OJICUG_clean_linker_0, # of connection points: 2
#     Edge 103, Type (0, 1), BuildingBlock: OJICUG_clean_linker_0, # of connection points: 2
#     Edge 104, Type (0, 1), BuildingBlock: OJICUG_clean_linker_0, # of connection points: 2
#     Edge 105, Type (0, 1), BuildingBlock: OJICUG_clean_linker_0, # of connection points: 2
#     Edge 106, Type (0, 1), BuildingBlock: OJICUG_clean_linker_0, # of connection points: 2
#     Edge 107, Type (0, 1), BuildingBlock: OJICUG_clean_linker_0, # of connection points: 2
# Relax obj value: 0.070
# Max RMSD: 0.191
# Mean RMSD: 0.115
data_MOF--net-ptr--node1-TATPOV_clean_sbu_0--node2-GIZVER_clean_linker_0--edge1-OJICUG_clean_linker_0
_symmetry_space_group_name_H-M    P1
_symmetry_Int_Tables_number       1
_symmetry_cell_setting            triclinic
loop_
_symmetry_equiv_pos_as_xyz
'x, y, z'
_cell_length_a     58.744905
_cell_length_b     59.505639
_cell_length_c     34.894204
_cell_angle_alpha  89.868115
_cell_angle_beta   91.83169
_cell_angle_gamma 121.57157
loop_
_atom_site_label
_atom_site_type_symbol
_atom_site_fract_x
_atom_site_fract_y
_atom_site_fract_z
_atom_type_partial_charge
Zn0 Zn 0.96537 0.42103 0.00848 0.0
Zn1 Zn 1.00565 0.41097 0.00851 0.0
O2 O 0.97266 0.3737 0.00509 0.0
O3 O 0.93943 0.38084 0.00315 0.0
O4 O 0.03699 0.4059 0.01225 0.0
O5 O 0.978 0.43866 0.06159 0.0
O6 O 0.01003 0.43001 0.05958 0.0
C7 C 0.94768 0.36493 0.0028 0.0
C8 C 1.00018 0.44316 0.94373 0.0
O9 O 0.01142 0.43175 0.95896 0.0
O10 O 0.98074 0.44238 0.95988 0.0
C11 C 0.03878 0.38789 -0.00428 0.0
O12 O 0.01899 0.37066 0.97304 0.0
C13 C 0.99825 0.43958 0.07721 0.0
Zn14 Zn 0.61659 0.55846 0.03147 0.0
Zn15 Zn 0.62139 0.60637 0.02624 0.0
O16 O 0.6607 0.6169 0.02615 0.0
O17 O 0.65714 0.57824 0.03025 0.0
O18 O 0.62229 0.64085 0.02964 0.0
O19 O 0.59835 0.5501 0.08175 0.0
O20 O 0.60097 0.58812 0.07486 0.0
C21 C 0.67153 0.60312 0.02756 0.0
C22 C 0.59255 0.56546 0.96196 0.0
O23 O 0.60249 0.58892 0.97484 0.0
O24 O 0.59463 0.54854 0.98133 0.0
C25 C 0.63324 0.66054 0.00755 0.0
O26 O 0.64565 0.65962 0.9775 0.0
C27 C 0.59348 0.56713 0.09374 0.0
Zn28 Zn 0.3931 0.96161 -0.00059 0.0
Zn29 Zn 0.39817 0.0078 0.00946 0.0
O30 O 0.35703 0.98126 0.01005 0.0
O31 O 0.35329 0.94331 -0.00307 0.0
O32 O 0.40237 0.04402 0.01164 0.0
O33 O 0.41322 0.97144 0.95165 0.0
O34 O 0.417 0.01 0.95849 0.0
C35 C 0.34246 0.9564 0.00392 0.0
C36 C 0.42142 0.98721 0.06997 0.0
O37 O 0.41782 0.00557 0.05852 0.0
O38 O 0.41253 0.96643 0.04977 0.0
C39 C 0.38559 0.04935 0.02433 0.0
O40 O 0.36368 0.03052 0.03956 0.0
C41 C 0.4216 0.99445 0.93972 0.0
Zn42 Zn 0.04988 0.60606 -0.00088 0.0
Zn43 Zn 0.00679 0.61131 0.00694 0.0
O44 O 0.0372 0.64921 0.00044 0.0
O45 O 0.07283 0.64623 -0.00375 0.0
O46 O 0.97445 0.61428 0.01127 0.0
O47 O 0.03191 0.58362 0.95181 0.0
O48 O 0.99689 0.58714 0.95969 0.0
C49 C 0.06235 0.66019 -0.00256 0.0
C50 C 0.02493 0.58881 0.07154 0.0
O51 O 0.01031 0.5972 0.05843 0.0
O52 O 0.04256 0.58908 0.05125 0.0
C53 C 0.97514 0.63411 0.02618 0.0
O54 O 0.99777 0.65346 0.04127 0.0
C55 C 0.0087 0.57805 0.94107 0.0
Zn56 Zn 0.38867 0.44036 -0.00207 0.0
Zn57 Zn 0.3852 0.39242 0.0096 0.0
O58 O 0.34625 0.38224 0.00748 0.0
O59 O 0.34773 0.4196 -0.00224 0.0
O60 O 0.3844 0.35792 0.01422 0.0
O61 O 0.4083 0.44515 0.94874 0.0
O62 O 0.40435 0.40682 0.95955 0.0
C63 C 0.33435 0.39487 0.00285 0.0
C64 C 0.41298 0.43698 0.07002 0.0
O65 O 0.40484 0.41363 0.0582 0.0
O66 O 0.40923 0.45241 0.04937 0.0
C67 C 0.36511 0.33646 0.02679 0.0
O68 O 0.3441 0.33605 0.03953 0.0
C69 C 0.41224 0.42704 0.93878 0.0
Zn70 Zn 0.62749 0.05591 0.012 0.0
Zn71 Zn 0.63449 0.01357 0.01052 0.0
O72 O 0.67218 0.04573 0.00731 0.0
O73 O 0.66788 0.08033 0.00831 0.0
O74 O 0.64112 0.98337 0.01359 0.0
O75 O 0.61117 0.04495 0.06389 0.0
O76 O 0.61703 0.01131 0.06152 0.0
C77 C 0.68259 0.07064 0.00684 0.0
C78 C 0.60057 0.0193 0.94735 0.0
O79 O 0.61132 0.00715 0.9616 0.0
O80 O 0.60401 0.0399 0.96377 0.0
C81 C 0.6279 0.96078 -0.00287 0.0
O82 O 0.60724 0.95508 0.9744 0.0
C83 C 0.60913 0.02465 0.07904 0.0
Zn84 Zn 0.62432 0.74178 0.34618 0.0
Zn85 Zn 0.66519 0.73208 0.34831 0.0
O86 O 0.63236 0.69463 0.34464 0.0
O87 O 0.59894 0.70156 0.34167 0.0
O88 O 0.69749 0.72833 0.35292 0.0
O89 O 0.63606 0.75947 0.39905 0.0
O90 O 0.66807 0.75066 0.39912 0.0
C91 C 0.60732 0.68575 0.34214 0.0
C92 C 0.66014 0.76423 0.28292 0.0
O93 O 0.67127 0.75299 0.29902 0.0
O94 O 0.64017 0.76309 0.29785 0.0
C95 C 0.70234 0.7134 0.33327 0.0
O96 O 0.68488 0.69772 0.30667 0.0
C97 C 0.65589 0.76018 0.41578 0.0
Zn98 Zn 0.3061 0.9148 0.3632 0.0
Zn99 Zn 0.30931 0.961 0.35384 0.0
O100 O 0.34854 0.97019 0.35366 0.0
O101 O 0.34602 0.93261 0.3651 0.0
O102 O 0.31364 0.99702 0.35007 0.0
O103 O 0.28651 0.90807 0.41143 0.0
O104 O 0.28923 0.94617 0.40416 0.0
C105 C 0.35995 0.9571 0.35898 0.0
C106 C 0.28007 0.91749 0.29306 0.0
O107 O 0.28758 0.94065 0.3052 0.0
O108 O 0.28568 0.90292 0.31253 0.0
C109 C 0.29468 1.00136 0.35239 0.0
O110 O 0.27019 0.98135 0.35641 0.0
C111 C 0.28159 0.92514 0.42308 0.0
Zn112 Zn 0.08078 0.30878 0.33625 0.0
Zn113 Zn 0.07627 0.35065 0.34253 0.0
O114 O 0.03663 0.31949 0.34004 0.0
O115 O 0.04072 0.28492 0.33514 0.0
O116 O 0.07427 0.38381 0.3436 0.0
O117 O 0.10012 0.32082 0.28765 0.0
O118 O 0.0968 0.35583 0.2925 0.0
C119 C 0.02599 0.29453 0.33726 0.0
C120 C 0.10519 0.33783 0.40608 0.0
O121 O 0.0963 0.3521 0.39364 0.0
O122 O 0.10159 0.3184 0.38618 0.0
C123 C 0.05453 0.38487 0.35522 0.0
O124 O 0.03407 0.36361 0.36918 0.0
C125 C 0.10468 0.34257 0.27458 0.0
Zn126 Zn 0.72974 0.94086 0.32336 0.0
Zn127 Zn 0.68539 0.94316 0.33615 0.0
O128 O 0.71546 0.98177 0.33095 0.0
O129 O 0.75135 0.98083 0.318 0.0
O130 O 0.65255 0.94543 0.34193 0.0
O131 O 0.71014 0.91617 0.27801 0.0
O132 O 0.67517 0.91934 0.28837 0.0
C133 C 0.74025 0.99385 0.32398 0.0
C134 C 0.70711 0.92235 0.39805 0.0
O135 O 0.68966 0.9275 0.38592 0.0
O136 O 0.72594 0.92618 0.37689 0.0
C137 C 0.65305 0.96479 0.35825 0.0
O138 O 0.67552 0.98359 0.37454 0.0
C139 C 0.68648 0.91004 0.26899 0.0
Zn140 Zn 0.05926 0.77865 0.33494 0.0
Zn141 Zn 0.05584 0.73096 0.34202 0.0
O142 O 0.01667 0.72121 0.34319 0.0
O143 O 0.01871 0.75911 0.3374 0.0
O144 O 0.05473 0.69593 0.34443 0.0
O145 O 0.07689 0.78468 0.2843 0.0
O146 O 0.07383 0.74634 0.29044 0.0
C147 C 1.00506 0.73429 0.3412 0.0
C148 C 0.08673 0.77524 0.40295 0.0
O149 O 0.07763 0.75173 0.39072 0.0
O150 O 0.08219 0.79074 0.38394 0.0
C151 C 0.03475 0.67372 0.35367 0.0
O152 O 0.01271 0.67239 0.36363 0.0
C153 C 0.08089 0.76722 0.27142 0.0
Zn154 Zn 0.25606 0.36099 0.33705 0.0
Zn155 Zn 0.26587 0.32126 0.33213 0.0
O156 O 0.3035 0.35481 0.33304 0.0
O157 O 0.29638 0.38748 0.33823 0.0
O158 O 0.27346 0.2917 0.33209 0.0
O159 O 0.23669 0.34633 0.38621 0.0
O160 O 0.24539 0.31468 0.38194 0.0
C161 C 0.3125 0.37947 0.33576 0.0
C162 C 0.23319 0.32824 0.2681 0.0
O163 O 0.24414 0.31613 0.28185 0.0
O164 O 0.23522 0.34768 0.28626 0.0
C165 C 0.25507 0.26795 0.33786 0.0
O166 O 0.23052 0.26249 0.34187 0.0
C167 C 0.23503 0.32574 0.39955 0.0
Zn168 Zn 0.31568 0.0868 0.68274 0.0
Zn169 Zn 0.3555 0.07629 0.67924 0.0
O170 O 0.3217 0.03907 0.68015 0.0
O171 O 0.28907 0.04701 0.68228 0.0
O172 O 0.38695 0.07121 0.68127 0.0
O173 O 0.33154 0.10737 0.73238 0.0
O174 O 0.36345 0.09868 0.72809 0.0
C175 C 0.29679 0.03072 0.6811 0.0
C176 C 0.34709 0.10629 0.61465 0.0
O177 O 0.35905 0.09526 0.62867 0.0
O178 O 0.32843 0.10587 0.63253 0.0
C179 C 0.39088 0.05571 0.66147 0.0
O180 O 0.37275 0.04005 0.6355 0.0
C181 C 0.35295 0.1096 0.74562 0.0
Zn182 Zn 0.92869 0.2391 0.65945 0.0
Zn183 Zn 0.94434 0.29089 0.66052 0.0
O184 O 0.98063 0.29434 0.65911 0.0
O185 O 0.96879 0.25253 0.65824 0.0
O186 O 0.95175 0.32755 0.66845 0.0
O187 O 0.91026 0.23216 0.70957 0.0
O188 O 0.92456 0.2745 0.70961 0.0
C189 C 0.9869 0.27684 0.65811 0.0
C190 C 0.91007 0.25503 0.59328 0.0
O191 O 0.924 0.27792 0.60869 0.0
O192 O 0.90792 0.23511 0.60995 0.0
C193 C 0.96462 0.34834 0.64898 0.0
O194 O 0.97571 0.34769 0.61724 0.0
C195 C 0.91224 0.25217 0.72562 0.0
Zn196 Zn 0.71592 0.61822 0.66186 0.0
Zn197 Zn 0.71637 0.66191 0.67505 0.0
O198 O 0.67585 0.63291 0.67261 0.0
O199 O 0.676 0.59731 0.65641 0.0
O200 O 0.7176 0.69648 0.67994 0.0
O201 O 0.73822 0.63197 0.61622 0.0
O202 O 0.73768 0.6682 0.62553 0.0
C203 C 0.66317 0.60828 0.66437 0.0
C204 C 0.73994 0.64193 0.73537 0.0
O205 O 0.73508 0.65955 0.72462 0.0
O206 O 0.73352 0.62234 0.71361 0.0
C207 C 0.69925 0.69914 0.69339 0.0
O208 O 0.678 0.67846 0.70703 0.0
C209 C 0.74503 0.65503 0.60625 0.0
Zn210 Zn 0.36253 0.24528 0.68414 0.0
Zn211 Zn 0.32516 0.25975 0.68684 0.0
O212 O 0.35972 0.29531 0.68468 0.0
O213 O 0.39082 0.28522 0.6835 0.0
O214 O 0.29541 0.26754 0.68595 0.0
O215 O 0.34506 0.22459 0.63459 0.0
O216 O 0.31665 0.23809 0.63706 0.0
C217 C 0.38425 0.30245 0.68379 0.0
C218 C 0.33304 0.23009 0.75364 0.0
O219 O 0.32248 0.24222 0.73868 0.0
O220 O 0.34988 0.22746 0.7355 0.0
C221 C 0.29896 0.29054 0.6873 0.0
O222 O 0.32332 0.31111 0.69183 0.0
C223 C 0.32549 0.22543 0.62007 0.0
Zn224 Zn 0.73962 0.10972 0.66747 0.0
Zn225 Zn 0.73278 0.06063 0.67262 0.0
O226 O 0.69449 0.05344 0.67378 0.0
O227 O 0.69912 0.09255 0.66949 0.0
O228 O 0.72888 0.02451 0.67389 0.0
O229 O 0.75774 0.11535 0.61698 0.0
O230 O 0.75193 0.07578 0.62184 0.0
C231 C 0.6842 0.06774 0.67246 0.0
C232 C 0.7655 0.10287 0.735 0.0
O233 O 0.7552 0.07945 0.72169 0.0
O234 O 0.76209 0.11948 0.71701 0.0
C235 C 0.70727 1.00258 0.67885 0.0
O236 O 0.68518 1.00235 0.68468 0.0
C237 C 0.76059 0.09723 0.60365 0.0
Zn238 Zn 0.94319 0.72217 0.6774 0.0
Zn239 Zn 0.95493 0.68334 0.67587 0.0
O240 O 0.99171 0.7171 0.67302 0.0
O241 O 0.98321 0.74904 0.67279 0.0
O242 O 0.9632 0.65433 0.67646 0.0
O243 O 0.92738 0.71001 0.72969 0.0
O244 O 0.9371 0.67896 0.72728 0.0
C245 C 0.99986 0.74159 0.6719 0.0
C246 C 0.91807 0.68543 0.61314 0.0
O247 O 0.9309 0.67533 0.62735 0.0
O248 O 0.91955 0.7052 0.62946 0.0
C249 C 0.94428 0.63028 0.6759 0.0
O250 O 0.91947 0.62471 0.67392 0.0
C251 C 0.92737 0.69064 0.74484 0.0
H252 H 0.16325 0.35056 0.11694 0.0
H253 H 0.12912 0.35378 0.00737 0.0
H254 H 0.11043 0.37951 0.10984 0.0
H255 H 0.1391 0.31211 0.04157 0.0
H256 H 0.15884 0.33728 0.00936 0.0
H257 H 0.16109 0.31188 0.10847 0.0
H258 H 0.24366 0.33603 0.1016 0.0
H259 H 0.2057 0.35427 0.01011 0.0
C260 C 0.15098 0.35527 0.09949 0.0
C261 C 0.13693 0.36496 0.11813 0.0
C262 C 0.14771 0.35019 0.05963 0.0
C263 C 0.13221 0.35778 0.03799 0.0
C264 C 0.11988 0.36967 0.05585 0.0
C265 C 0.12208 0.37279 0.09588 0.0
C266 C 0.15621 0.33282 0.04046 0.0
C267 C 0.18073 0.33373 0.05784 0.0
C268 C 0.17955 0.32164 0.09317 0.0
C269 C 0.20251 0.32346 0.10998 0.0
C270 C 0.22573 0.33435 0.08887 0.0
C271 C 0.22683 0.3449 0.05256 0.0
C272 C 0.20462 0.34543 0.03771 0.0
H273 H 0.68321 0.82734 0.11671 0.0
H274 H 0.64316 0.77718 0.01745 0.0
H275 H 0.65764 0.74552 0.11963 0.0
H276 H 0.68344 0.84195 0.03937 0.0
H277 H 0.65206 0.82048 0.01543 0.0
H278 H 0.64677 0.82829 0.12124 0.0
H279 H 0.6416 0.89675 0.11041 0.0
H280 H 0.65128 0.86195 0.0097 0.0
C281 C 0.67269 0.80804 0.10295 0.0
C282 C 0.66984 0.78643 0.12337 0.0
C283 C 0.66092 0.80454 0.06583 0.0
C284 C 0.65066 0.7799 0.04691 0.0
C285 C 0.65039 0.75883 0.06578 0.0
C286 C 0.65921 0.76212 0.10428 0.0
C287 C 0.662 0.82746 0.04429 0.0
C288 C 0.65088 0.84289 0.06299 0.0
C289 C 0.64723 0.84296 0.10281 0.0
C290 C 0.64535 0.86309 0.1203 0.0
C291 C 0.64293 0.88101 0.09722 0.0
C292 C 0.64404 0.8801 0.05731 0.0
C293 C 0.64843 0.86134 0.04031 0.0
H294 H 0.16617 0.81407 0.14193 0.0
H295 H 0.16184 0.78282 0.02884 0.0
H296 H 0.09274 0.74804 0.09828 0.0
H297 H 0.20568 0.80902 0.10174 0.0
H298 H 0.20363 0.81533 0.05273 0.0
H299 H 0.20892 0.84095 0.15241 0.0
H300 H 0.26278 0.92026 0.11908 0.0
H301 H 0.22033 0.85916 0.03299 0.0
C302 C 0.15484 0.80111 0.11809 0.0
C303 C 0.12794 0.78173 0.12331 0.0
C304 C 0.16739 0.80193 0.08391 0.0
C305 C 0.15222 0.7833 0.05455 0.0
C306 C 0.12526 0.76388 0.05939 0.0
C307 C 0.11322 0.76359 0.09361 0.0
C308 C 0.19758 0.81785 0.08154 0.0
C309 C 0.21123 0.847 0.09148 0.0
C310 C 0.21679 0.85541 0.13002 0.0
C311 C 0.23443 0.88205 0.14007 0.0
C312 C 0.24718 0.90034 0.11097 0.0
C313 C 0.24298 0.89227 0.07219 0.0
C314 C 0.22367 0.86577 0.06267 0.0
H315 H 0.36707 0.1993 0.90086 0.0
H316 H 0.39097 0.24053 0.00944 0.0
H317 H 0.33114 0.2418 0.93759 0.0
H318 H 0.4196 0.22586 0.94918 0.0
H319 H 0.40808 0.21325 0.99505 0.0
H320 H 0.39963 0.19375 0.89002 0.0
H321 H 0.385 0.11672 0.91364 0.0
H322 H 0.39561 0.16857 0.00705 0.0
C323 C 0.36437 0.21006 0.92292 0.0
C324 C 0.34741 0.21972 0.9146 0.0
C325 C 0.37961 0.21648 0.95771 0.0
C326 C 0.37783 0.23341 0.98406 0.0
C327 C 0.36041 0.24258 0.97677 0.0
C328 C 0.34431 0.23443 0.94308 0.0
C329 C 0.40179 0.21046 0.96415 0.0
C330 C 0.39596 0.18365 0.95016 0.0
C331 C 0.39565 0.1786 0.91064 0.0
C332 C 0.39033 0.15406 0.89726 0.0
C333 C 0.38864 0.13562 0.92368 0.0
C334 C 0.39127 0.14099 0.9631 0.0
C335 C 0.39394 0.16459 0.97648 0.0
H336 H 0.87307 0.20142 0.88178 0.0
H337 H 0.87463 0.23217 0.99342 0.0
H338 H 0.8916 0.28078 0.89434 0.0
H339 H 0.87718 0.18125 0.9474 0.0
H340 H 0.86284 0.18712 0.98752 0.0
H341 H 0.84773 0.15977 0.88528 0.0
H342 H 0.7649 0.10605 0.90451 0.0
H343 H 0.81503 0.16062 0.99417 0.0
C344 C 0.87382 0.21661 0.8994 0.0
C345 C 0.88111 0.24084 0.88273 0.0
C346 C 0.86953 0.21251 0.93881 0.0
C347 C 0.87553 0.23423 0.96256 0.0
C348 C 0.884 0.25903 0.94648 0.0
C349 C 0.88536 0.26173 0.90654 0.0
C350 C 0.86203 0.18602 0.95564 0.0
C351 C 0.83473 0.16366 0.9412 0.0
C352 C 0.83109 0.15284 0.90388 0.0
C353 C 0.8058 0.13268 0.89014 0.0
C354 C 0.78454 0.12167 0.9149 0.0
C355 C 0.78787 0.13137 0.95244 0.0
C356 C 0.81271 0.15285 0.9653 0.0
H357 H 0.84592 0.64103 0.87711 0.0
H358 H 0.85759 0.62331 0.99324 0.0
H359 H 0.92471 0.66859 0.92203 0.0
H360 H 0.8111 0.59739 0.91888 0.0
H361 H 0.81357 0.60388 0.96888 0.0
H362 H 0.80432 0.62655 0.87245 0.0
H363 H 0.75062 0.64816 0.91341 0.0
H364 H 0.79138 0.62446 0.99306 0.0
C365 C 0.85877 0.64378 0.9016 0.0
C366 C 0.88636 0.65717 0.89626 0.0
C367 C 0.84799 0.63203 0.93687 0.0
C368 C 0.86553 0.63364 0.96674 0.0
C369 C 0.8932 0.64692 0.96156 0.0
C370 C 0.90346 0.65913 0.9266 0.0
C371 C 0.81807 0.61359 0.9405 0.0
C372 C 0.80186 0.6265 0.93388 0.0
C373 C 0.7963 0.63128 0.89636 0.0
C374 C 0.77874 0.64018 0.88895 0.0
C375 C 0.76587 0.64349 0.91957 0.0
C376 C 0.76969 0.63717 0.95714 0.0
C377 C 0.78857 0.62971 0.96429 0.0
H378 H 0.82067 0.67519 0.46463 0.0
H379 H 0.80118 0.68869 0.35004 0.0
H380 H 0.76905 0.70469 0.44776 0.0
H381 H 0.81074 0.64449 0.39244 0.0
H382 H 0.82649 0.66818 0.35639 0.0
H383 H 0.83689 0.65129 0.45831 0.0
H384 H 0.92062 0.68439 0.44578 0.0
H385 H 0.8739 0.68979 0.35324 0.0
C386 C 0.81139 0.68214 0.44507 0.0
C387 C 0.79486 0.68999 0.46062 0.0
C388 C 0.8139 0.68123 0.40516 0.0
C389 C 0.80056 0.69015 0.3809 0.0
C390 C 0.7853 0.69973 0.39636 0.0
C391 C 0.78269 0.69957 0.43617 0.0
C392 C 0.82541 0.66578 0.38803 0.0
C393 C 0.85234 0.67175 0.40484 0.0
C394 C 0.85442 0.6629 0.44164 0.0
C395 C 0.87924 0.66875 0.45736 0.0
C396 C 0.90136 0.68003 0.43408 0.0
C397 C 0.89936 0.68683 0.39627 0.0
C398 C 0.87519 0.68383 0.3822 0.0
H399 H 0.35928 0.17121 0.4559 0.0
H400 H 0.31574 0.1258 0.35433 0.0
H401 H 0.33455 0.08962 0.44639 0.0
H402 H 0.35719 0.19273 0.39356 0.0
H403 H 0.33346 0.17272 0.35639 0.0
H404 H 0.32772 0.17918 0.46434 0.0
H405 H 0.27343 0.20604 0.44849 0.0
H406 H 0.3061 0.19092 0.35053 0.0
C407 C 0.34863 0.15265 0.44012 0.0
C408 C 0.34711 0.13034 0.45636 0.0
C409 C 0.33602 0.15099 0.40428 0.0
C410 C 0.32453 0.12722 0.38267 0.0
C411 C 0.32519 0.10554 0.3974 0.0
C412 C 0.33581 0.10706 0.4344 0.0
C413 C 0.33685 0.17516 0.38806 0.0
C414 C 0.31703 0.18125 0.40523 0.0
C415 C 0.31551 0.18304 0.44528 0.0
C416 C 0.30003 0.1921 0.46134 0.0
C417 C 0.28534 0.19887 0.43664 0.0
C418 C 0.28784 0.199 0.3968 0.0
C419 C 0.30356 0.19005 0.38123 0.0
H420 H 0.84833 0.14242 0.47448 0.0
H421 H 0.83861 0.118 0.35599 0.0
H422 H 0.77287 0.0788 0.43162 0.0
H423 H 0.88736 0.1515 0.43285 0.0
H424 H 0.88214 0.14705 0.38222 0.0
H425 H 0.86966 0.18358 0.45959 0.0
H426 H 0.92093 0.25886 0.41016 0.0
H427 H 0.90763 0.1883 0.35502 0.0
C428 C 0.83562 0.13103 0.45016 0.0
C429 C 0.8089 0.11164 0.45644 0.0
C430 C 0.84633 0.13439 0.41354 0.0
C431 C 0.83018 0.11675 0.38366 0.0
C432 C 0.80378 0.09631 0.39012 0.0
C433 C 0.79314 0.09453 0.42625 0.0
C434 C 0.87603 0.15324 0.40806 0.0
C435 C 0.88488 0.18224 0.4053 0.0
C436 C 0.8808 0.19502 0.43572 0.0
C437 C 0.89365 0.2227 0.43801 0.0
C438 C 0.91055 0.2376 0.40842 0.0
C439 C 0.91703 0.22561 0.37959 0.0
C440 C 0.90292 0.19782 0.37713 0.0
H441 H 0.06125 0.55788 0.22137 0.0
H442 H 0.05419 0.57018 0.33991 0.0
H443 H 0.01694 0.59309 0.25361 0.0
H444 H 0.08825 0.55252 0.27653 0.0
H445 H 0.0749 0.54616 0.32323 0.0
H446 H 0.04244 0.51661 0.22308 0.0
H447 H 0.02545 0.44005 0.25233 0.0
H448 H 0.06549 0.50309 0.3356 0.0
C449 C 0.05133 0.56218 0.24313 0.0
C450 C 0.03623 0.57335 0.2323 0.0
C451 C 0.05484 0.55764 0.28176 0.0
C452 C 0.04845 0.57023 0.31011 0.0
C453 C 0.03597 0.58422 0.29948 0.0
C454 C 0.02793 0.58361 0.2611 0.0
C455 C 0.06927 0.54322 0.2921 0.0
C456 C 0.05399 0.51365 0.28195 0.0
C457 C 0.04245 0.50391 0.24485 0.0
C458 C 0.03236 0.47758 0.23393 0.0
C459 C 0.03298 0.46038 0.26068 0.0
C460 C 0.04475 0.46941 0.29729 0.0
C461 C 0.05541 0.49601 0.30779 0.0
H462 H 0.52205 0.51307 0.24189 0.0
H463 H 0.51359 0.55362 0.33746 0.0
H464 H 0.56686 0.59749 0.24793 0.0
H465 H 0.50313 0.49136 0.30723 0.0
H466 H 0.49147 0.50679 0.33808 0.0
H467 H 0.47998 0.4942 0.22866 0.0
H468 H 0.39818 0.43416 0.23891 0.0
H469 H 0.44541 0.47382 0.34063 0.0
C470 C 0.52605 0.53112 0.2556 0.0
C471 C 0.54392 0.55537 0.23894 0.0
C472 C 0.51327 0.53008 0.28971 0.0
C473 C 0.52157 0.55394 0.30976 0.0
C474 C 0.54146 0.57812 0.29499 0.0
C475 C 0.55169 0.57868 0.2592 0.0
C476 C 0.49394 0.50361 0.30746 0.0
C477 C 0.46641 0.4873 0.28733 0.0
C478 C 0.46347 0.48339 0.24709 0.0
C479 C 0.43911 0.46409 0.22979 0.0
C480 C 0.41709 0.44905 0.25238 0.0
C481 C 0.4191 0.45279 0.2921 0.0
C482 C 0.44371 0.47182 0.30965 0.0
H483 H 0.52909 0.98393 0.21278 0.0
H484 H 0.53755 0.96093 0.32704 0.0
H485 H 0.60567 1.00205 0.25632 0.0
H486 H 0.49136 0.94024 0.2538 0.0
H487 H 0.49419 0.94755 0.30352 0.0
H488 H 0.48723 0.97005 0.20562 0.0
H489 H 0.43931 0.99915 0.24534 0.0
H490 H 0.47764 0.97366 0.32645 0.0
C491 C 0.54136 0.98453 0.23681 0.0
C492 C 0.56859 0.99507 0.23118 0.0
C493 C 0.52982 0.97267 0.27164 0.0
C494 C 0.54625 0.97144 0.30093 0.0
C495 C 0.57368 0.98237 0.29566 0.0
C496 C 0.58472 0.99455 0.26103 0.0
C497 C 0.49969 0.95689 0.27493 0.0
C498 C 0.4861 0.97231 0.26713 0.0
C499 C 0.48058 0.97663 0.22923 0.0
C500 C 0.46482 0.98758 0.2213 0.0
C501 C 0.45354 0.99318 0.25181 0.0
C502 C 0.45725 0.98742 0.28977 0.0
C503 C 0.47474 0.97831 0.29733 0.0
H504 H 0.49149 1.0006 0.79821 0.0
H505 H 0.48569 0.02509 0.68396 0.0
H506 H 0.45061 0.04137 0.77781 0.0
H507 H 0.49091 0.97653 0.73122 0.0
H508 H 0.50428 0.99828 0.6921 0.0
H509 H 0.51947 0.98892 0.79574 0.0
H510 H 0.60277 0.02345 0.77797 0.0
H511 H 0.55176 0.02235 0.68607 0.0
C512 C 0.4863 0.01135 0.77876 0.0
C513 C 0.47161 0.02185 0.79285 0.0
C514 C 0.49241 0.013 0.73975 0.0
C515 C 0.48279 0.02504 0.71448 0.0
C516 C 0.46809 0.03572 0.72831 0.0
C517 C 0.46323 0.03455 0.76756 0.0
C518 C 0.50433 0.99763 0.72397 0.0
C519 C 0.53226 0.00626 0.73974 0.0
C520 C 0.53613 0.99997 0.77747 0.0
C521 C 0.5616 0.00696 0.79179 0.0
C522 C 0.58301 0.0182 0.76722 0.0
C523 C 0.5795 0.02334 0.72907 0.0
C524 C 0.55435 0.01817 0.71559 0.0
H525 H 0.02328 0.51089 0.78335 0.0
H526 H 0.98537 0.46699 0.67852 0.0
H527 H 0.997 0.42884 0.77525 0.0
H528 H 0.0251 0.5324 0.71576 0.0
H529 H 0.99946 0.51214 0.68082 0.0
H530 H 0.98438 0.50852 0.78655 0.0
H531 H 0.95974 0.56415 0.77936 0.0
H532 H 0.98384 0.543 0.67788 0.0
C533 C 0.01358 0.49253 0.767 0.0
C534 C 0.00992 0.46964 0.78448 0.0
C535 C 1.00295 0.49139 0.72968 0.0
C536 C 0.99255 0.46794 0.70783 0.0
C537 C 0.99131 0.44565 0.72376 0.0
C538 C 0.9994 0.4465 0.76228 0.0
C539 C 1.00417 0.51547 0.71219 0.0
C540 C 0.98637 0.52414 0.72973 0.0
C541 C 0.98103 0.52139 0.76908 0.0
C542 C 0.97329 0.53702 0.78777 0.0
C543 C 0.96571 0.55181 0.76559 0.0
C544 C 0.96821 0.55294 0.72575 0.0
C545 C 0.97962 0.54007 0.70811 0.0
H546 H 0.49843 0.46418 0.81053 0.0
H547 H 0.49374 0.423 0.70607 0.0
H548 H 0.42429 0.39636 0.77303 0.0
H549 H 0.53874 0.45671 0.77411 0.0
H550 H 0.53545 0.4605 0.72433 0.0
H551 H 0.54273 0.49018 0.82109 0.0
H552 H 0.58061 0.56893 0.77866 0.0
H553 H 0.54782 0.50276 0.70013 0.0
C554 C 0.48703 0.44937 0.78862 0.0
C555 C 0.46003 0.43104 0.79482 0.0
C556 C 0.49949 0.4471 0.75625 0.0
C557 C 0.48424 0.42595 0.73005 0.0
C558 C 0.457 0.40784 0.73567 0.0
C559 C 0.44505 0.41085 0.76776 0.0
C560 C 0.52959 0.46387 0.75277 0.0
C561 C 0.54167 0.4932 0.75982 0.0
C562 C 0.54734 0.50352 0.79744 0.0
C563 C 0.56031 0.53082 0.80471 0.0
C564 C 0.56951 0.5479 0.77335 0.0
C565 C 0.56681 0.53817 0.73565 0.0
C566 C 0.55099 0.51069 0.72904 0.0
H567 H 0.72876 0.87716 0.55408 0.0
H568 H 0.71628 0.8934 0.66902 0.0
H569 H 0.69888 0.92804 0.57311 0.0
H570 H 0.74931 0.86865 0.615 0.0
H571 H 0.73408 0.86599 0.65961 0.0
H572 H 0.69899 0.83633 0.56128 0.0
H573 H 0.67559 0.75825 0.59301 0.0
H574 H 0.72183 0.82195 0.67345 0.0
C575 C 0.72108 0.8856 0.57346 0.0
C576 C 0.71143 0.90109 0.55866 0.0
C577 C 0.72054 0.88057 0.61295 0.0
C578 C 0.71445 0.89504 0.63829 0.0
C579 C 0.7072 0.91261 0.62381 0.0
C580 C 0.70454 0.91452 0.58415 0.0
C581 C 0.72999 0.8627 0.62813 0.0
C582 C 0.71124 0.83318 0.61967 0.0
C583 C 0.69835 0.82343 0.5833 0.0
C584 C 0.68603 0.79664 0.57337 0.0
C585 C 0.68485 0.77896 0.60078 0.0
C586 C 0.69734 0.78789 0.637 0.0
C587 C 0.71086 0.81498 0.64619 0.0
H588 H 0.20513 0.86516 0.56142 0.0
H589 H 0.20183 0.89799 0.66947 0.0
H590 H 0.25099 0.94858 0.58064 0.0
H591 H 0.19169 0.83919 0.62514 0.0
H592 H 0.18067 0.85112 0.66254 0.0
H593 H 0.16602 0.83166 0.55568 0.0
H594 H 0.0817 0.78727 0.56945 0.0
H595 H 0.13379 0.83013 0.66603 0.0
C596 C 0.20977 0.88192 0.57914 0.0
C597 C 0.22773 0.90726 0.56572 0.0
C598 C 0.19908 0.87816 0.61579 0.0
C599 C 0.20827 0.90045 0.6402 0.0
C600 C 0.22716 0.9258 0.62741 0.0
C601 C 0.23601 0.92903 0.58995 0.0
C602 C 0.18175 0.85036 0.63083 0.0
C603 C 0.15365 0.83469 0.61259 0.0
C604 C 0.14947 0.82639 0.5737 0.0
C605 C 0.12361 0.80958 0.55805 0.0
C606 C 0.10172 0.80058 0.58137 0.0
C607 C 0.10529 0.80789 0.62011 0.0
C608 C 0.13116 0.82507 0.63573 0.0
H609 H 0.15677 0.28571 0.54617 0.0
H610 H 0.18648 0.29179 0.66266 0.0
H611 H 0.23737 0.30508 0.56888 0.0
H612 H 0.12734 0.26278 0.6095 0.0
H613 H 0.14234 0.28108 0.65295 0.0
H614 H 0.15725 0.32255 0.565 0.0
H615 H 0.08807 0.32852 0.57237 0.0
H616 H 0.10103 0.28212 0.65382 0.0
C617 C 0.17303 0.2904 0.56654 0.0
C618 C 0.19794 0.29681 0.55292 0.0
C619 C 0.16915 0.29034 0.60623 0.0
C620 C 0.18966 0.29362 0.6321 0.0
C621 C 0.214 0.29834 0.61857 0.0
C622 C 0.21825 0.30069 0.57917 0.0
C623 C 0.14206 0.28282 0.6212 0.0
C624 C 0.13092 0.30029 0.61093 0.0
C625 C 0.1393 0.31744 0.57946 0.0
C626 C 0.12347 0.32695 0.56433 0.0
C627 C 0.10106 0.32223 0.58431 0.0
C628 C 0.09328 0.30676 0.61723 0.0
C629 C 0.108 0.29549 0.6299 0.0
C630 C 0.99779 0.46458 0.1352 0.0
C631 C 0.00755 0.45044 0.11673 0.0
H632 H 0.99811 0.48445 0.1868 0.0
C633 C 0.02585 0.44593 0.13689 0.0
H634 H 0.98375 0.46848 0.12043 0.0
C635 C 0.03377 0.45477 0.17475 0.0
C636 C 0.02379 0.46857 0.19344 0.0
H637 H 0.03382 0.43516 0.12363 0.0
H638 H 0.04789 0.45092 0.18941 0.0
C639 C 0.00601 0.47375 0.17313 0.0
C640 C 0.57015 0.57945 0.14011 0.0
C641 C 0.57952 0.56297 0.12998 0.0
H642 H 0.55088 0.58937 0.18179 0.0
C643 C 0.57587 0.54291 0.15513 0.0
H644 H 0.57233 0.59487 0.1212 0.0
C645 C 0.56383 0.53995 0.19026 0.0
C646 C 0.55508 0.55691 0.20076 0.0
H647 H 0.58289 0.52987 0.14811 0.0
H648 H 0.56212 0.52493 0.2096 0.0
C649 C 0.55794 0.57635 0.17494 0.0
C650 C 0.44317 0.01039 0.133 0.0
C651 C 0.43492 0.98905 0.10747 0.0
H652 H 0.45962 0.02694 0.18894 0.0
C653 C 0.43848 0.96834 0.11876 0.0
H654 H 0.44079 0.02669 0.12514 0.0
C655 C 0.44901 0.96839 0.1551 0.0
C656 C 0.45651 0.98926 0.18118 0.0
H657 H 0.43241 0.95156 0.0999 0.0
H658 H 0.45018 0.95144 0.16322 0.0
C659 C 0.45386 0.01049 0.16953 0.0
C660 C 0.44679 0.02816 0.8893 0.0
C661 C 0.43617 1.00259 0.90355 0.0
H662 H 0.46706 0.05463 0.84349 0.0
C663 C 0.43907 0.9842 0.8824 0.0
H664 H 0.44506 0.04284 0.90504 0.0
C665 C 0.4514 0.99083 0.84728 0.0
C666 C 0.46145 0.01614 0.8324 0.0
H667 H 0.43116 0.96429 0.89244 0.0
H668 H 0.45205 0.97567 0.83113 0.0
C669 C 0.45936 0.03489 0.85407 0.0
C670 C 0.99778 0.47005 0.89002 0.0
C671 C 0.00769 0.45474 0.90506 0.0
H672 H 0.9912 0.48715 0.84018 0.0
C673 C 0.0223 0.44818 0.88121 0.0
H674 H 0.98664 0.47565 0.90766 0.0
C675 C 0.0249 0.4548 0.84239 0.0
C676 C 0.01325 0.46841 0.82674 0.0
H677 H 0.03032 0.4365 0.89188 0.0
H678 H 0.03484 0.4481 0.82416 0.0
C679 C 1.00065 0.47691 0.85134 0.0
C680 C 0.55809 0.53485 0.91341 0.0
C681 C 0.58196 0.55868 0.92221 0.0
H682 H 0.53158 0.50818 0.86951 0.0
C683 C 0.59764 0.57439 0.89241 0.0
H684 H 0.54573 0.52243 0.93612 0.0
C685 C 0.59044 0.56567 0.85435 0.0
C686 C 0.5668 0.5414 0.84509 0.0
H687 H 0.61643 0.59263 0.89867 0.0
H688 H 0.60427 0.57754 0.83264 0.0
C689 C 0.55028 0.52657 0.87522 0.0
C690 C 0.97237 0.55918 0.88941 0.0
C691 C 0.99657 0.56298 0.90489 0.0
H692 H 0.94528 0.54699 0.84051 0.0
C693 C 0.01055 0.55435 0.88371 0.0
H694 H 0.96094 0.56533 0.90526 0.0
C695 C 1.00186 0.54427 0.84666 0.0
C696 C 0.97867 0.54216 0.82984 0.0
H697 H 0.02912 0.55672 0.89485 0.0
H698 H 0.01451 0.53989 0.83043 0.0
C699 C 0.96345 0.54877 0.85224 0.0
C700 C 0.43842 0.45239 0.88191 0.0
C701 C 0.42517 0.42871 0.90234 0.0
H702 H 0.46016 0.47179 0.8317 0.0
C703 C 0.42391 0.40619 0.88733 0.0
H704 H 0.43982 0.4701 0.89286 0.0
C705 C 0.43521 0.40713 0.85244 0.0
C706 C 0.44823 0.43065 0.83184 0.0
H707 H 0.41389 0.38765 0.9023 0.0
H708 H 0.43393 0.38943 0.84167 0.0
C709 C 0.45008 0.4534 0.84704 0.0
C710 C 0.56886 0.01983 0.89839 0.0
C711 C 0.5862 0.01118 0.9096 0.0
H712 H 0.54692 0.02459 0.85219 0.0
C713 C 0.592 0.99742 0.88285 0.0
H714 H 0.56384 0.03029 0.91849 0.0
C715 C 0.58252 0.99442 0.84478 0.0
C716 C 0.56668 1.00469 0.83305 0.0
H717 H 0.60526 0.99049 0.89067 0.0
H718 H 0.58857 0.98517 0.8241 0.0
C719 C 0.55901 0.01641 0.86053 0.0
C720 C 0.58457 0.02773 0.13429 0.0
C721 C 0.59843 0.01698 0.11778 0.0
H722 H 0.56414 0.02912 0.18331 0.0
C723 C 0.60255 0.99925 0.13901 0.0
H724 H 0.58105 0.04141 0.11858 0.0
C725 C 0.59323 0.99259 0.17606 0.0
C726 C 0.57935 1.00327 0.19251 0.0
H727 H 0.6132 0.99069 0.12716 0.0
H728 H 0.5965 0.97869 0.19167 0.0
C729 C 0.57491 0.02074 0.17124 0.0
C730 C 0.02589 0.56111 0.12444 0.0
C731 C 0.02437 0.58274 0.11229 0.0
H732 H 0.02919 0.54024 0.17199 0.0
C733 C 0.0253 0.6005 0.13947 0.0
H734 H 0.02521 0.54721 0.10374 0.0
C735 C 0.02901 0.59743 0.17831 0.0
C736 C 0.0309 0.57594 0.19096 0.0
H737 H 0.02469 0.61763 0.13051 0.0
H738 H 0.03143 0.61261 0.198 0.0
C739 C 0.02855 0.55742 0.16349 0.0
C740 C 0.42081 0.42594 0.1363 0.0
C741 C 0.42394 0.44507 0.10974 0.0
H742 H 0.42318 0.41716 0.1953 0.0
C743 C 0.43501 0.47131 0.12257 0.0
H744 H 0.41241 0.40558 0.12744 0.0
C745 C 0.44143 0.47794 0.16152 0.0
C746 C 0.43651 0.45837 0.18818 0.0
H747 H 0.4378 0.48653 0.10276 0.0
H748 H 0.44891 0.49803 0.17103 0.0
C749 C 0.42686 0.4325 0.17516 0.0
C750 C 0.68115 0.76507 0.47721 0.0
C751 C 0.66403 0.77051 0.45564 0.0
H752 H 0.70122 0.76893 0.53118 0.0
C753 C 0.65423 0.78497 0.47303 0.0
H754 H 0.68906 0.75398 0.46481 0.0
C755 C 0.66138 0.79369 0.51128 0.0
C756 C 0.67802 0.78765 0.53291 0.0
H757 H 0.64105 0.78952 0.45712 0.0
H758 H 0.65364 0.8048 0.52412 0.0
C759 C 0.68794 0.77342 0.51538 0.0
C760 C 0.25803 0.93689 0.47041 0.0
C761 C 0.26704 0.92036 0.45884 0.0
H762 H 0.23783 0.94526 0.51289 0.0
C763 C 0.26207 0.89894 0.48188 0.0
H764 H 0.26137 0.95343 0.45312 0.0
C765 C 0.24885 0.8944 0.51609 0.0
C766 C 0.24006 0.91104 0.52797 0.0
H767 H 0.26882 0.88585 0.47389 0.0
H768 H 0.24623 0.87828 0.53375 0.0
C769 C 0.24458 0.93222 0.50461 0.0
C770 C 0.11352 0.35631 0.47337 0.0
C771 C 0.11679 0.34131 0.44553 0.0
H772 H 0.11426 0.36453 0.53331 0.0
C773 C 0.12788 0.32627 0.45694 0.0
H774 H 0.10537 0.36839 0.46544 0.0
C775 C 0.13249 0.32367 0.49562 0.0
C776 C 0.12647 0.33632 0.52401 0.0
H777 H 0.13115 0.31482 0.43617 0.0
H778 H 0.13846 0.30977 0.50309 0.0
C779 C 0.11846 0.35394 0.5123 0.0
C780 C 0.12324 0.33469 0.21642 0.0
C781 C 0.11722 0.35111 0.23695 0.0
H782 H 0.13362 0.32582 0.16321 0.0
C783 C 0.12138 0.3743 0.21981 0.0
H784 H 0.1205 0.31675 0.22876 0.0
C785 C 0.12974 0.37999 0.18198 0.0
C786 C 0.13378 0.36244 0.16046 0.0
H787 H 0.11726 0.38755 0.23506 0.0
H788 H 0.13204 0.39763 0.16916 0.0
C789 C 0.13119 0.34014 0.17868 0.0
C790 C 0.65784 0.79015 0.22775 0.0
C791 C 0.66833 0.77576 0.24441 0.0
H792 H 0.65077 0.80542 0.17619 0.0
C793 C 0.68401 0.7697 0.22211 0.0
H794 H 0.64595 0.79542 0.24424 0.0
C795 C 0.68676 0.77546 0.18304 0.0
C796 C 0.67415 0.78765 0.16565 0.0
H797 H 0.69258 0.75883 0.2341 0.0
H798 H 0.69727 0.76884 0.1659 0.0
C799 C 0.66085 0.79616 0.18878 0.0
C800 C 0.25975 0.92324 0.23207 0.0
C801 C 0.26599 0.90773 0.25529 0.0
H802 H 0.24428 0.92701 0.17752 0.0
C803 C 0.25989 0.88297 0.24132 0.0
H804 H 0.2641 0.94236 0.24208 0.0
C805 C 0.24883 0.87435 0.2045 0.0
C806 C 0.24329 0.89011 0.18072 0.0
H807 H 0.26444 0.87047 0.25836 0.0
H808 H 0.24574 0.85577 0.19417 0.0
C809 C 0.24847 0.91449 0.19512 0.0
C810 C 0.64906 0.89098 0.21914 0.0
C811 C 0.67274 0.89345 0.23438 0.0
H812 H 0.62117 0.87861 0.17119 0.0
C813 C 0.68427 0.88152 0.21463 0.0
H814 H 0.63945 0.89963 0.2339 0.0
C815 C 0.67371 0.86936 0.1789 0.0
C816 C 0.65144 0.86897 0.16203 0.0
H817 H 0.70227 0.88268 0.22585 0.0
H818 H 0.68428 0.86209 0.16329 0.0
C819 C 0.63854 0.8789 0.18325 0.0
C820 C 0.09222 0.74982 0.21448 0.0
C821 C 0.09343 0.77109 0.2339 0.0
H822 H 0.1021 0.73659 0.16422 0.0
C823 C 0.10637 0.79606 0.21679 0.0
H824 H 0.08242 0.73037 0.22683 0.0
C825 C 0.11779 0.79965 0.18101 0.0
C826 C 0.1161 0.77826 0.16137 0.0
H827 H 0.10776 0.81289 0.2311 0.0
H828 H 0.1276 0.81904 0.16844 0.0
C829 C 0.1033 0.75335 0.17851 0.0
C830 C 0.20421 0.33157 0.21713 0.0
C831 C 0.22017 0.32151 0.22927 0.0
H832 H 0.18559 0.3395 0.16979 0.0
C833 C 0.22592 0.30762 0.20266 0.0
H834 H 0.19911 0.34208 0.23703 0.0
C835 C 0.21808 0.30611 0.16398 0.0
C836 C 0.20411 0.3182 0.15131 0.0
H837 H 0.23801 0.29948 0.21116 0.0
H838 H 0.22431 0.29685 0.14358 0.0
C839 C 0.19616 0.32982 0.17859 0.0
C840 C 0.22593 0.29697 0.45667 0.0
C841 C 0.22235 0.31551 0.43674 0.0
H842 H 0.22069 0.27626 0.50914 0.0
C843 C 0.20793 0.32545 0.45383 0.0
H844 H 0.23679 0.28881 0.44426 0.0
C845 C 0.19854 0.31807 0.49083 0.0
C846 C 0.20355 0.30078 0.51156 0.0
H847 H 0.20462 0.3396 0.43911 0.0
H848 H 0.18865 0.32702 0.50399 0.0
C849 C 0.21675 0.28979 0.49381 0.0
C850 C 0.72852 0.91288 0.45382 0.0
C851 C 0.70683 0.91407 0.43809 0.0
H852 H 0.74728 0.90836 0.50431 0.0
C853 C 0.6859 0.90922 0.4618 0.0
H854 H 0.74502 0.91658 0.43635 0.0
C855 C 0.68711 0.90427 0.50068 0.0
C856 C 0.70933 0.9042 0.51675 0.0
H857 H 0.66882 0.9098 0.45054 0.0
H858 H 0.67077 0.90083 0.51832 0.0
C859 C 0.72979 0.90807 0.49277 0.0
C860 C 0.09524 0.76548 0.46989 0.0
C861 C 0.10041 0.78398 0.44115 0.0
H862 H 0.09859 0.75929 0.52987 0.0
C863 C 0.11642 0.81105 0.45049 0.0
H864 H 0.08294 0.74452 0.46361 0.0
C865 C 0.12575 0.81945 0.48825 0.0
C866 C 0.11883 0.80093 0.51736 0.0
H867 H 0.12087 0.82576 0.42887 0.0
H868 H 0.13696 0.84038 0.49509 0.0
C869 C 0.10413 0.7739 0.50776 0.0
C870 C 0.38524 0.12169 0.8016 0.0
C871 C 0.36513 0.1239 0.78234 0.0
H872 H 0.40939 0.12993 0.85307 0.0
C873 C 0.35584 0.13885 0.79945 0.0
H874 H 0.39298 0.11048 0.78909 0.0
C875 C 0.36546 0.15017 0.83589 0.0
C876 C 0.38434 0.14657 0.85609 0.0
H877 H 0.34055 0.14117 0.78521 0.0
H878 H 0.35703 0.16047 0.84915 0.0
C879 C 0.39466 0.13281 0.83821 0.0
C880 C 0.8805 0.22631 0.77673 0.0
C881 C 0.9022 0.25014 0.76432 0.0
H882 H 0.85591 0.20518 0.82327 0.0
C883 C 0.91547 0.27167 0.79003 0.0
H884 H 0.86975 0.20951 0.75726 0.0
C885 C 0.90816 0.26896 0.82818 0.0
C886 C 0.88694 0.24482 0.84119 0.0
H887 H 0.93242 0.29025 0.78117 0.0
H888 H 0.92001 0.28549 0.84769 0.0
C889 C 0.8727 0.22382 0.81461 0.0
C890 C 0.75632 0.62298 0.78484 0.0
C891 C 0.75183 0.64313 0.77388 0.0
H892 H 0.76765 0.60596 0.82954 0.0
C893 C 0.75753 0.66322 0.80059 0.0
H894 H 0.7521 0.60711 0.76512 0.0
C895 C 0.76692 0.66272 0.83781 0.0
C896 C 0.77078 0.64217 0.84887 0.0
H897 H 0.75428 0.67901 0.79301 0.0
H898 H 0.7709 0.67825 0.85805 0.0
C899 C 0.76553 0.62244 0.82184 0.0
C900 C 0.76778 0.69089 0.55777 0.0
C901 C 0.7607 0.66588 0.5714 0.0
H902 H 0.78504 0.71868 0.51244 0.0
C903 C 0.76775 0.65043 0.55041 0.0
H904 H 0.76287 0.70338 0.57351 0.0
C905 C 0.78017 0.65903 0.51557 0.0
C906 C 0.78615 0.68346 0.50082 0.0
H907 H 0.76279 0.63113 0.56011 0.0
H908 H 0.7837 0.64574 0.49929 0.0
C909 C 0.78045 0.69963 0.52281 0.0
C910 C 0.34369 0.13384 0.56345 0.0
C911 C 0.3529 0.11739 0.57577 0.0
H912 H 0.33541 0.15138 0.51589 0.0
C913 C 0.36488 0.10933 0.54932 0.0
H914 H 0.33472 0.14072 0.58328 0.0
C915 C 0.36517 0.11544 0.51053 0.0
C916 C 0.3537 0.12988 0.49768 0.0
H917 H 0.37239 0.09684 0.55804 0.0
H918 H 0.37301 0.10762 0.49031 0.0
C919 C 0.34427 0.14016 0.52484 0.0
C920 C 0.87731 0.23021 0.53957 0.0
C921 C 0.90173 0.25208 0.55259 0.0
H922 H 0.85439 0.2051 0.49207 0.0
C923 C 0.92095 0.26756 0.52602 0.0
H924 H 0.86212 0.21809 0.55971 0.0
C925 C 0.91741 0.25926 0.4878 0.0
C926 C 0.89405 0.23572 0.47501 0.0
H927 H 0.94007 0.2844 0.53554 0.0
H928 H 0.93429 0.27018 0.4697 0.0
C929 C 0.87319 0.22256 0.50088 0.0
C930 C 0.31349 0.19129 0.56865 0.0
C931 C 0.3151 0.21449 0.58117 0.0
H932 H 0.30519 0.16478 0.52156 0.0
C933 C 0.30895 0.22868 0.55511 0.0
H934 H 0.31786 0.17984 0.58838 0.0
C935 C 0.30311 0.22088 0.51658 0.0
C936 C 0.30241 0.19815 0.50337 0.0
H937 H 0.31028 0.24678 0.564 0.0
H938 H 0.30054 0.23356 0.49696 0.0
C939 C 0.30661 0.18289 0.5303 0.0
C940 C 0.77164 0.07948 0.54671 0.0
C941 C 0.77387 0.10105 0.56671 0.0
H942 H 0.78103 0.06595 0.49621 0.0
C943 C 0.78862 0.12632 0.55081 0.0
H944 H 0.7605 0.05979 0.55819 0.0
C945 C 0.80058 0.12987 0.51547 0.0
C946 C 0.79769 0.10818 0.49504 0.0
H947 H 0.79088 0.1434 0.56561 0.0
H948 H 0.81154 0.14948 0.50366 0.0
C949 C 0.78329 0.08299 0.51116 0.0
C950 C 0.90929 0.6614 0.55031 0.0
C951 C 0.90342 0.67587 0.57564 0.0
H952 H 0.9058 0.64736 0.49258 0.0
C953 C 0.88549 0.68354 0.5632 0.0
H954 H 0.92288 0.65505 0.55908 0.0
C955 C 0.87541 0.67876 0.52532 0.0
C956 C 0.88335 0.66655 0.49904 0.0
H957 H 0.8803 0.69443 0.58218 0.0
H958 H 0.86312 0.68651 0.5159 0.0
C959 C 0.8995 0.65695 0.51226 0.0
C960 C 0.90022 0.68998 0.7994 0.0
C961 C 0.91659 0.68196 0.78342 0.0
H962 H 0.8776 0.68821 0.84771 0.0
C963 C 0.92292 0.66582 0.80489 0.0
H964 H 0.89491 0.70234 0.7835 0.0
C965 C 0.91336 0.65813 0.84169 0.0
C966 C 0.89698 0.66612 0.85762 0.0
H967 H 0.9355 0.65933 0.79343 0.0
H968 H 0.91846 0.64559 0.85752 0.0
C969 C 0.89029 0.68191 0.83605 0.0
C970 C 0.32976 0.20147 0.80862 0.0
C971 C 0.32993 0.2237 0.79472 0.0
H972 H 0.33252 0.18139 0.85776 0.0
C973 C 0.33157 0.24234 0.8209 0.0
H974 H 0.32832 0.1867 0.7889 0.0
C975 C 0.33567 0.24023 0.86 0.0
C976 C 0.33725 0.21883 0.87422 0.0
H977 H 0.33207 0.25985 0.81088 0.0
H978 H 0.33954 0.25656 0.87836 0.0
C979 C 0.33266 0.19872 0.84806 0.0
C980 C 0.776 0.09111 0.7996 0.0
C981 C 0.7798 0.11043 0.77292 0.0
H982 H 0.78151 0.08308 0.85807 0.0
C983 C 0.79545 0.13718 0.78409 0.0
H984 H 0.76404 0.07035 0.79189 0.0
C985 C 0.80567 0.14439 0.8217 0.0
C986 C 0.80036 0.12505 0.84898 0.0
H987 H 0.79888 0.15257 0.76419 0.0
H988 H 0.81608 0.16499 0.83017 0.0
C989 C 0.786 0.09836 0.83742 0.0
C990 C 0.06155 0.36197 0.995 0.0
C991 C 0.06177 0.38489 0.00557 0.0
H992 H 0.07999 0.33915 0.00257 0.0
C993 C 0.08334 0.40422 0.02838 0.0
H994 H 0.04527 0.34676 0.97731 0.0
C995 C 0.10323 0.39995 0.04247 0.0
C996 C 0.10204 0.37626 0.03418 0.0
H997 H 0.08436 0.42227 0.03664 0.0
H998 H 0.119 0.41474 0.0613 0.0
C999 C 0.08152 0.35768 0.00922 0.0
C1000 C 0.62061 0.68571 0.05039 0.0
C1001 C 0.6342 0.68519 0.01828 0.0
H1002 H 0.61453 0.70938 0.08993 0.0
C1003 C 0.6501 0.7088 -0.00146 0.0
H1004 H 0.6079 0.66789 0.06601 0.0
C1005 C 0.6538 0.73268 0.0123 0.0
C1006 C 0.64171 0.73334 0.04602 0.0
H1007 H 0.66071 0.70907 0.97355 0.0
H1008 H 0.66743 0.7508 -0.00204 0.0
C1009 C 0.62433 0.70948 0.06408 0.0
C1010 C 0.29813 0.91448 0.00269 0.0
C1011 C 0.31343 0.94171 0.01082 0.0
H1012 H 0.26395 0.87746 0.01558 0.0
C1013 C 0.30185 0.95326 0.03139 0.0
H1014 H 0.3062 0.90498 0.98621 0.0
C1015 C 0.27692 0.93734 0.04771 0.0
C1016 C 0.26339 0.90961 0.04418 0.0
H1017 H 0.31293 0.97427 0.0376 0.0
H1018 H 0.26934 0.9466 0.06571 0.0
C1019 C 0.27351 0.8986 0.0193 0.0
C1020 C 0.36761 0.0796 0.02086 0.0
C1021 C 0.38896 0.0755 0.01667 0.0
H1022 H 0.35177 0.10424 0.00748 0.0
C1023 C 0.41272 0.09576 0.00119 0.0
H1024 H 0.34903 0.06442 0.03273 0.0
C1025 C 0.4143 0.11857 0.98731 0.0
C1026 C 0.39225 0.12168 0.98874 0.0
H1027 H 0.42963 0.09341 -0.00219 0.0
H1028 H 0.43213 0.13298 0.97297 0.0
C1029 C 0.36919 0.10247 0.00679 0.0
C1030 C 0.90325 0.32733 0.97844 0.0
C1031 C 0.92852 0.33632 -0.00394 0.0
H1032 H 0.86894 0.29527 0.949 0.0
C1033 C 0.93634 0.31801 0.00345 0.0
H1034 H 0.89662 0.34091 0.97236 0.0
C1035 C 0.92013 0.29175 0.99093 0.0
C1036 C 0.89604 0.28343 0.97028 0.0
H1037 H 0.95559 0.32427 0.01723 0.0
H1038 H 0.9275 0.27854 0.99459 0.0
C1039 C 0.8873 0.30119 0.96527 0.0
C1040 C 0.715 0.6408 0.00495 0.0
C1041 C 0.70032 0.61532 0.02005 0.0
H1042 H 0.74935 0.66827 0.97392 0.0
C1043 C 0.7121 0.59997 0.02205 0.0
H1044 H 0.70666 0.65328 0.00338 0.0
C1045 C 0.7365 0.60854 0.00517 0.0
C1046 C 0.74963 0.63266 0.98592 0.0
H1047 H 0.70152 0.58039 0.03401 0.0
H1048 H 0.74365 0.59508 0.00405 0.0
C1049 C 0.73946 0.6494 0.98802 0.0
C1050 C 0.95614 0.66275 0.0163 0.0
C1051 C 0.95213 0.63739 0.01951 0.0
H1052 H 0.94007 0.68573 -0.00474 0.0
C1053 C 0.92666 0.61529 0.01077 0.0
H1054 H 0.97557 0.68014 0.02287 0.0
C1055 C 0.90626 0.61853 -0.00424 0.0
C1056 C 0.91116 0.6439 0.98874 0.0
H1057 H 0.92298 0.59552 0.01329 0.0
H1058 H 0.88746 0.6012 0.98645 0.0
C1059 C 0.93586 0.66599 0.00062 0.0
C1060 C 0.38825 0.31208 0.0128 0.0
C1061 C 0.36481 0.31154 0.02187 0.0
H1062 H 0.40524 0.29025 0.99248 0.0
C1063 C 0.3406 0.28704 0.02245 0.0
H1064 H 0.40726 0.3306 0.01239 0.0
C1065 C 0.33946 0.26395 0.0109 0.0
C1066 C 0.36258 0.26482 -0.00077 0.0
H1067 H 0.32219 0.2859 0.02943 0.0
H1068 H 0.32024 0.24564 0.00893 0.0
C1069 C 0.38716 0.28893 0.00182 0.0
C1070 C 0.72311 0.1151 0.99439 0.0
C1071 C 0.71165 0.08799 0.00119 0.0
H1072 H 0.75712 0.15059 0.9741 0.0
C1073 C 0.72773 0.07701 -0.00117 0.0
H1074 H 0.71132 0.1242 -0.0038 0.0
C1075 C 0.75386 0.09218 0.98655 0.0
C1076 C 0.76448 0.11862 0.97677 0.0
H1077 H 0.71968 0.0563 0.00426 0.0
H1078 H 0.76516 0.08277 0.9821 0.0
C1079 C 0.74937 0.13031 0.98215 0.0
C1080 C 0.61725 0.91384 0.99502 0.0
C1081 C 0.63434 0.94036 0.00684 0.0
H1082 H 0.60721 0.8737 0.00146 0.0
C1083 C 0.65683 0.94697 0.03063 0.0
H1084 H 0.59984 0.90809 0.97651 0.0
C1085 C 0.66106 0.92739 0.04452 0.0
C1086 C 0.64297 0.90073 0.03491 0.0
H1087 H 0.67062 0.96718 0.03995 0.0
H1088 H 0.67776 0.93293 0.06446 0.0
C1089 C 0.62154 0.89416 0.00899 0.0
C1090 C 0.06804 0.70441 0.0085 0.0
C1091 C 0.07958 0.6892 0.00227 0.0
H1092 H 0.0738 0.74058 0.03088 0.0
C1093 C 0.10744 0.70122 0.00717 0.0
H1094 H 0.04669 0.69591 0.00444 0.0
C1095 C 0.12294 0.72684 0.02229 0.0
C1096 C 0.11084 0.74089 0.03269 0.0
H1097 H 0.11703 0.69016 0.00228 0.0
H1098 H 0.14393 0.73464 0.02904 0.0
C1099 C 0.08354 0.73001 0.02364 0.0
C1100 C 0.29069 0.35402 0.0161 0.0
C1101 C 0.30513 0.38107 0.00793 0.0
H1102 H 0.25432 0.32134 0.03621 0.0
C1103 C 0.29195 0.39515 0.00892 0.0
H1104 H 0.30005 0.34246 0.01518 0.0
C1105 C 0.26556 0.38289 0.02076 0.0
C1106 C 0.25205 0.35642 0.0319 0.0
H1107 H 0.30244 0.41599 0.00257 0.0
H1108 H 0.25638 0.39451 0.0236 0.0
C1109 C 0.26448 0.34187 0.02809 0.0
C1110 C 0.74687 0.73182 0.36715 0.0
C1111 C 0.72652 0.71232 0.34298 0.0
H1112 H 0.78217 0.74354 0.40182 0.0
C1113 C 0.72866 0.69097 0.33088 0.0
H1114 H 0.74612 0.74876 0.3765 0.0
C1115 C 0.74947 0.68801 0.34545 0.0
C1116 C 0.76851 0.70645 0.37214 0.0
H1117 H 0.71339 0.67571 0.31205 0.0
H1118 H 0.74948 0.67034 0.3381 0.0
C1119 C 0.76767 0.72896 0.38143 0.0
C1120 C 0.28156 0.03419 0.36832 0.0
C1121 C 0.30086 0.02888 0.35577 0.0
H1122 H 0.27423 0.06333 0.39089 0.0
C1123 C 0.32696 0.05018 0.35019 0.0
H1124 H 0.26126 0.01826 0.37285 0.0
C1125 C 0.33415 0.07589 0.35998 0.0
C1126 C 0.31539 0.08085 0.37531 0.0
H1127 H 0.34227 0.04685 0.3403 0.0
H1128 H 0.35487 0.09167 0.35821 0.0
C1129 C 0.28884 0.05998 0.37827 0.0
C1130 C 0.98626 0.2492 0.34499 0.0
C1131 C 0.99669 0.27631 0.34024 0.0
H1132 H 0.95342 0.21217 0.36125 0.0
C1133 C 0.9792 0.2857 0.3417 0.0
H1134 H 0.99904 0.24115 0.34375 0.0
C1135 C 0.95235 0.26864 0.35063 0.0
C1136 C 0.94257 0.24196 0.35913 0.0
H1137 H 0.98647 0.3064 0.33749 0.0
H1138 H 0.93966 0.27673 0.35283 0.0
C1139 C 0.95971 0.23234 0.35456 0.0
C1140 C 0.07581 0.43251 0.33728 0.0
C1141 C 0.05305 0.40868 0.34795 0.0
H1142 H 0.09101 0.47105 0.31394 0.0
C1143 C 0.02828 0.40707 0.34797 0.0
H1144 H 0.0952 0.43445 0.33715 0.0
C1145 C 0.02595 0.42798 0.33453 0.0
C1146 C 0.04841 0.4511 0.32166 0.0
H1147 H 0.01035 0.38904 0.35601 0.0
H1148 H 0.00632 0.4255 0.33201 0.0
C1149 C 0.07352 0.45358 0.32442 0.0
C1150 C 0.59655 0.63909 0.34402 0.0
C1151 C 0.5881 0.65696 0.33735 0.0
H1152 H 0.5875 0.59944 0.33694 0.0
C1153 C 0.56177 0.64717 0.32315 0.0
H1154 H 0.61658 0.6459 0.35522 0.0
C1155 C 0.54511 0.62047 0.31279 0.0
C1156 C 0.55434 0.60311 0.3172 0.0
H1157 H 0.55463 0.66041 0.31772 0.0
H1158 H 0.5258 0.6138 0.2989 0.0
C1159 C 0.5798 0.61243 0.33409 0.0
C1160 C 0.40345 0.99392 0.33488 0.0
C1161 C 0.38878 0.96916 0.35212 0.0
H1162 H 0.43778 0.01995 0.30274 0.0
C1163 C 0.40063 0.95401 0.357 0.0
H1164 H 0.39511 0.00631 0.33127 0.0
C1165 C 0.42487 0.96166 0.34037 0.0
C1166 C 0.43788 0.98474 0.31867 0.0
H1167 H 0.39013 0.93506 0.37084 0.0
H1168 H 0.43181 0.94802 0.34131 0.0
C1169 C 0.42789 1.00171 0.31844 0.0
C1170 C 0.605 0.94717 0.34002 0.0
C1171 C 0.63026 0.96855 0.35184 0.0
H1172 H 0.5666 0.93496 0.31398 0.0
C1173 C 0.63449 0.99409 0.3522 0.0
H1174 H 0.60112 0.92726 0.33969 0.0
C1175 C 0.61481 0.99846 0.33717 0.0
C1176 C 0.59041 0.97731 0.32243 0.0
H1177 H 0.65373 0.01096 0.36114 0.0
H1178 H 0.61934 0.01854 0.33452 0.0
C1179 C 0.58515 0.95152 0.32568 0.0
C1180 C 0.01114 0.6246 0.34382 0.0
C1181 C 0.0352 0.64915 0.34844 0.0
H1182 H 0.99249 0.58419 0.32506 0.0
C1183 C 0.0595 0.65023 0.34446 0.0
H1184 H 0.99206 0.62303 0.34674 0.0
C1185 C 0.05967 0.62772 0.33323 0.0
C1186 C 0.03558 0.60381 0.32519 0.0
H1187 H 0.07838 0.66876 0.34812 0.0
H1188 H 0.07862 0.62962 0.32748 0.0
C1189 C 0.01133 0.60223 0.33186 0.0
C1190 C 0.35167 0.42621 0.33371 0.0
C1191 C 0.34161 0.39889 0.33267 0.0
H1192 H 0.38482 0.46505 0.32246 0.0
C1193 C 0.35926 0.3903 0.32509 0.0
H1194 H 0.3387 0.43355 0.33966 0.0
C1195 C 0.38565 0.40841 0.3156 0.0
C1196 C 0.39502 0.43546 0.31394 0.0
H1197 H 0.35231 0.36948 0.32423 0.0
H1198 H 0.39822 0.40112 0.30698 0.0
C1199 C 0.37815 0.44433 0.32434 0.0
C1200 C 0.24334 0.22377 0.36293 0.0
C1201 C 0.2619 0.2476 0.34575 0.0
H1202 H 0.23699 0.18932 0.39224 0.0
C1203 C 0.28778 0.2528 0.33974 0.0
H1204 H 0.2232 0.21905 0.36784 0.0
C1205 C 0.29549 0.23548 0.35318 0.0
C1206 C 0.27756 0.2128 0.3732 0.0
H1207 H 0.30249 0.27088 0.32633 0.0
H1208 H 0.31606 0.24085 0.35045 0.0
C1209 C 0.25116 0.20664 0.37678 0.0
C1210 C 0.78497 0.03579 0.33104 0.0
C1211 C 0.75691 0.02288 0.32986 0.0
H1212 H 0.82198 0.06954 0.35091 0.0
C1213 C 0.74507 0.03709 0.34079 0.0
H1214 H 0.79479 0.02555 0.3225 0.0
C1215 C 0.76074 0.06245 0.35682 0.0
C1216 C 0.78852 0.07408 0.36223 0.0
H1217 H 0.72354 0.02794 0.33969 0.0
H1218 H 0.7509 0.07215 0.36763 0.0
C1219 C 0.80064 0.06116 0.34712 0.0
C1220 C 0.96326 0.73549 0.34898 0.0
C1221 C 0.97593 0.72092 0.34732 0.0
H1222 H 0.92843 0.73579 0.36533 0.0
C1223 C 0.96112 0.6939 0.35552 0.0
H1224 H 0.97402 0.75632 0.34258 0.0
C1225 C 0.93512 0.68229 0.36833 0.0
C1226 C 0.92329 0.69735 0.37288 0.0
H1227 H 0.97007 0.682 0.35418 0.0
H1228 H 0.92478 0.66185 0.37694 0.0
C1229 C 0.93709 0.72377 0.36167 0.0
C1230 C 0.41521 0.03129 0.6594 0.0
C1231 C 0.41433 0.05341 0.67124 0.0
H1232 H 0.43363 0.00852 0.66799 0.0
C1233 C 0.43493 0.07223 0.69588 0.0
H1234 H 0.39974 0.01653 0.64023 0.0
C1235 C 0.45447 0.06782 0.71122 0.0
C1236 C 0.45379 0.04446 0.70242 0.0
H1237 H 0.43515 0.08972 0.70506 0.0
H1238 H 0.46894 0.08175 0.73228 0.0
C1239 C 0.43478 0.02682 0.67496 0.0
C1240 C 0.95619 0.37323 0.69826 0.0
C1241 C 0.96884 0.37344 0.66459 0.0
H1242 H 0.95306 0.39595 0.74287 0.0
C1243 C 0.98664 0.39779 0.64796 0.0
H1244 H 0.94208 0.35485 0.71161 0.0
C1245 C 0.99284 0.42147 0.66599 0.0
C1246 C 0.9814 0.42109 0.70094 0.0
H1247 H 0.99659 0.39861 0.62193 0.0
H1248 H 0.00759 0.44003 0.65373 0.0
C1249 C 0.96243 0.39676 0.71622 0.0
C1250 C 0.62149 0.56387 0.66461 0.0
C1251 C 0.63417 0.59121 0.67103 0.0
H1252 H 0.59048 0.52566 0.67994 0.0
C1253 C 0.62033 0.60091 0.69028 0.0
H1254 H 0.63125 0.55566 0.64909 0.0
C1255 C 0.59606 0.58342 0.70729 0.0
C1256 C 0.58557 0.55598 0.70611 0.0
H1257 H 0.62923 0.62192 0.69495 0.0
H1258 H 0.58676 0.59157 0.72397 0.0
C1259 C 0.59765 0.54648 0.68215 0.0
C1260 C 0.72377 0.74725 0.67773 0.0
C1261 C 0.69994 0.72418 0.68766 0.0
H1262 H 0.74165 0.78622 0.65496 0.0
C1263 C 0.67617 0.72448 0.68765 0.0
H1264 H 0.74244 0.74769 0.6777 0.0
C1265 C 0.67576 0.74648 0.67443 0.0
C1266 C 0.69921 0.76875 0.66186 0.0
H1267 H 0.65749 0.70707 0.69517 0.0
H1268 H 0.65682 0.74546 0.67161 0.0
C1269 C 0.72342 0.76941 0.66512 0.0
C1270 C 0.24992 0.99324 0.66599 0.0
C1271 C 0.2767 1.00207 0.67664 0.0
H1272 H 0.21263 0.96135 0.64237 0.0
C1273 C 0.28465 0.98354 0.67868 0.0
H1274 H 0.24309 0.00696 0.66418 0.0
C1275 C 0.26693 0.95733 0.66708 0.0
C1276 C 0.24102 0.94919 0.65309 0.0
H1277 H 0.30502 0.98959 0.68702 0.0
H1278 H 0.27422 0.94397 0.66585 0.0
C1279 C 0.23231 0.96705 0.65393 0.0
C1280 C 0.03502 0.31154 0.64941 0.0
C1281 C 0.01517 0.28482 0.6536 0.0
H1282 H 0.07549 0.33943 0.63529 0.0
C1283 C 0.02226 0.2657 0.65039 0.0
H1284 H 0.03035 0.32682 0.65197 0.0
C1285 C 0.04818 0.27298 0.64089 0.0
C1286 C 0.06752 0.29953 0.63437 0.0
H1287 H 0.00751 0.24495 0.65362 0.0
H1288 H 0.05259 0.25765 0.63653 0.0
C1289 C 0.06089 0.31879 0.63983 0.0
C1290 C 0.2499 0.2728 0.67795 0.0
C1291 C 0.27646 0.29418 0.67714 0.0
H1292 H 0.20895 0.25779 0.66078 0.0
C1293 C 0.28151 0.31833 0.6624 0.0
H1294 H 0.2454 0.25401 0.68933 0.0
C1295 C 0.2607 0.32035 0.64575 0.0
C1296 C 0.23446 0.29847 0.64441 0.0
H1297 H 0.30173 0.33517 0.66135 0.0
H1298 H 0.2653 0.33855 0.63207 0.0
C1299 C 0.22903 0.275 0.66195 0.0
C1300 C 0.68211 0.95424 0.66253 0.0
C1301 C 0.70638 0.97746 0.67289 0.0
H1302 H 0.66332 0.91495 0.63894 0.0
C1303 C 0.73008 0.97699 0.67378 0.0
H1304 H 0.6635 0.95394 0.66154 0.0
C1305 C 0.72977 0.95437 0.6619 0.0
C1306 C 0.70584 0.932 0.64845 0.0
H1307 H 0.74906 0.9945 0.68189 0.0
H1308 H 0.74854 0.95513 0.66022 0.0
C1309 C 0.6819 0.93181 0.64994 0.0
C1310 C 0.03687 0.78653 0.65315 0.0
C1311 C 0.02857 0.7611 0.66646 0.0
H1312 H 0.06842 0.82177 0.62826 0.0
C1313 C 0.04762 0.75368 0.67104 0.0
H1314 H 0.02271 0.79286 0.6493 0.0
C1315 C 0.07387 0.77051 0.65981 0.0
C1316 C 0.08148 0.79498 0.64369 0.0
H1317 H 0.04194 0.73433 0.68149 0.0
H1318 H 0.08765 0.76358 0.66094 0.0
C1319 C 0.06307 0.80322 0.64147 0.0
C1320 C 0.92936 0.58356 0.69154 0.0
C1321 C 0.95002 0.60902 0.68202 0.0
H1322 H 0.91914 0.54563 0.71268 0.0
C1323 C 0.97637 0.61439 0.68148 0.0
H1324 H 0.90886 0.57872 0.69219 0.0
C1325 C 0.9821 0.59517 0.6925 0.0
C1326 C 0.96162 0.5704 0.70447 0.0
H1327 H 0.99271 0.63377 0.67407 0.0
H1328 H 1.00271 0.60022 0.69405 0.0
C1329 C 0.93516 0.56453 0.70302 0.0
C1330 C 0.3974 0.34978 0.6866 0.0
C1331 C 0.40496 0.33092 0.68774 0.0
H1332 H 0.4084 0.38937 0.70021 0.0
C1333 C 0.43172 0.33931 0.69745 0.0
H1334 H 0.37712 0.34416 0.67858 0.0
C1335 C 0.44976 0.36542 0.70948 0.0
C1336 C 0.44128 0.38347 0.71198 0.0
H1337 H 0.43826 0.32534 0.69838 0.0
H1338 H 0.46961 0.37084 0.71985 0.0
C1339 C 0.41535 0.37575 0.69871 0.0
C1340 C 0.64424 0.07157 0.68381 0.0
C1341 C 0.65518 0.05567 0.67851 0.0
H1342 H 0.61096 0.07348 0.70353 0.0
C1343 C 0.63871 0.02828 0.68321 0.0
H1344 H 0.6563 0.09273 0.68028 0.0
C1345 C 0.6128 0.01739 0.69618 0.0
C1346 C 0.60272 0.03358 0.70435 0.0
H1347 H 0.6463 0.01539 0.67904 0.0
H1348 H 0.60126 0.99652 0.70233 0.0
C1349 C 0.61821 0.0606 0.69676 0.0
loop_
_geom_bond_atom_site_label_1
_geom_bond_atom_site_label_2
_geom_bond_distance
_geom_bond_site_symmetry_2
_ccdc_geom_bond_type
Zn0 O3 2.031 1_554 S
Zn0 O5 2.049 . S
Zn0 O10 2.067 1_554 S
Zn1 O2 1.962 1_455 S
Zn1 O4 1.986 . S
Zn1 O6 1.996 1_455 S
Zn1 O9 1.943 1_554 S
O2 Zn1 1.962 1_655 S
O2 C7 1.254 1_554 S
O3 Zn0 2.031 1_556 S
O3 C7 1.269 . S
O4 Zn1 1.986 . S
O4 C11 1.262 . S
O5 Zn0 2.049 . S
O5 C13 1.260 . S
O6 Zn1 1.996 1_655 S
O6 C13 1.257 . S
C7 O2 1.254 1_556 S
C7 O3 1.269 . S
C8 O9 1.249 . S
C8 O10 1.270 1_455 S
O9 Zn1 1.943 1_556 S
O9 C8 1.249 . S
O10 Zn0 2.067 1_556 S
O10 C8 1.270 1_655 S
C11 O4 1.262 . S
C11 O12 1.232 . S
O12 C11 1.232 . S
C13 O5 1.260 . S
C13 O6 1.257 . S
Zn14 O17 2.031 1_554 S
Zn14 O19 2.049 . S
Zn14 O24 2.067 1_554 S
Zn15 O16 1.962 . S
Zn15 O18 1.986 . S
Zn15 O20 1.996 . S
Zn15 O23 1.943 1_554 S
O16 Zn15 1.962 . S
O16 C21 1.254 1_554 S
O17 Zn14 2.031 1_556 S
O17 C21 1.269 . S
O18 Zn15 1.986 . S
O18 C25 1.262 . S
O19 Zn14 2.049 . S
O19 C27 1.260 . S
O20 Zn15 1.996 . S
O20 C27 1.257 . S
C21 O16 1.254 1_556 S
C21 O17 1.269 . S
C22 O23 1.249 . S
C22 O24 1.270 . S
O23 Zn15 1.943 1_556 S
O23 C22 1.249 . S
O24 Zn14 2.067 1_556 S
O24 C22 1.270 . S
C25 O18 1.262 . S
C25 O26 1.232 . S
O26 C25 1.232 . S
C27 O19 1.260 . S
C27 O20 1.257 . S
Zn28 O31 2.031 . S
Zn28 O33 2.049 1_554 S
Zn28 O38 2.067 . S
Zn29 O30 1.962 1_545 S
Zn29 O32 1.986 1_554 S
Zn29 O34 1.996 1_544 S
Zn29 O37 1.943 . S
O30 Zn29 1.962 1_565 S
O30 C35 1.254 . S
O31 Zn28 2.031 . S
O31 C35 1.269 . S
O32 Zn29 1.986 1_556 S
O32 C39 1.262 . S
O33 Zn28 2.049 1_556 S
O33 C41 1.260 . S
O34 Zn29 1.996 1_566 S
O34 C41 1.257 . S
C35 O30 1.254 . S
C35 O31 1.269 . S
C36 O37 1.249 . S
C36 O38 1.270 1_545 S
O37 Zn29 1.943 . S
O37 C36 1.249 . S
O38 Zn28 2.067 . S
O38 C36 1.270 1_565 S
C39 O32 1.262 . S
C39 O40 1.232 1_556 S
O40 C39 1.232 1_554 S
C41 O33 1.260 . S
C41 O34 1.257 . S
Zn42 O45 2.031 . S
Zn42 O47 2.049 1_554 S
Zn42 O52 2.067 . S
Zn43 O44 1.962 1_655 S
Zn43 O46 1.986 1_554 S
Zn43 O48 1.996 1_654 S
Zn43 O51 1.943 . S
O44 Zn43 1.962 1_455 S
O44 C49 1.254 . S
O45 Zn42 2.031 . S
O45 C49 1.269 . S
O46 Zn43 1.986 1_556 S
O46 C53 1.262 . S
O47 Zn42 2.049 1_556 S
O47 C55 1.260 . S
O48 Zn43 1.996 1_456 S
O48 C55 1.257 . S
C49 O44 1.254 . S
C49 O45 1.269 . S
C50 O51 1.249 . S
C50 O52 1.270 1_655 S
O51 Zn43 1.943 . S
O51 C50 1.249 . S
O52 Zn42 2.067 . S
O52 C50 1.270 1_455 S
C53 O46 1.262 . S
C53 O54 1.232 1_556 S
O54 C53 1.232 1_554 S
C55 O47 1.260 . S
C55 O48 1.257 . S
Zn56 O59 2.031 . S
Zn56 O61 2.049 1_554 S
Zn56 O66 2.067 . S
Zn57 O58 1.962 . S
Zn57 O60 1.986 1_554 S
Zn57 O62 1.996 1_554 S
Zn57 O65 1.943 . S
O58 Zn57 1.962 . S
O58 C63 1.254 . S
O59 Zn56 2.031 . S
O59 C63 1.269 . S
O60 Zn57 1.986 1_556 S
O60 C67 1.262 . S
O61 Zn56 2.049 1_556 S
O61 C69 1.260 . S
O62 Zn57 1.996 1_556 S
O62 C69 1.257 . S
C63 O58 1.254 . S
C63 O59 1.269 . S
C64 O65 1.249 . S
C64 O66 1.270 . S
O65 Zn57 1.943 . S
O65 C64 1.249 . S
O66 Zn56 2.067 . S
O66 C64 1.270 . S
C67 O60 1.262 . S
C67 O68 1.232 1_556 S
O68 C67 1.232 1_554 S
C69 O61 1.260 . S
C69 O62 1.257 . S
Zn70 O73 2.031 1_554 S
Zn70 O75 2.049 . S
Zn70 O80 2.067 1_554 S
Zn71 O72 1.962 1_565 S
Zn71 O74 1.986 . S
Zn71 O76 1.996 1_565 S
Zn71 O79 1.943 1_554 S
O72 Zn71 1.962 1_545 S
O72 C77 1.254 1_554 S
O73 Zn70 2.031 1_556 S
O73 C77 1.269 . S
O74 Zn71 1.986 . S
O74 C81 1.262 . S
O75 Zn70 2.049 . S
O75 C83 1.260 . S
O76 Zn71 1.996 1_545 S
O76 C83 1.257 . S
C77 O72 1.254 1_556 S
C77 O73 1.269 . S
C78 O79 1.249 . S
C78 O80 1.270 1_565 S
O79 Zn71 1.943 1_556 S
O79 C78 1.249 . S
O80 Zn70 2.067 1_556 S
O80 C78 1.270 1_545 S
C81 O74 1.262 . S
C81 O82 1.232 . S
O82 C81 1.232 . S
C83 O75 1.260 . S
C83 O76 1.257 . S
Zn84 O87 2.031 . S
Zn84 O89 2.049 . S
Zn84 O94 2.067 . S
Zn85 O86 1.962 . S
Zn85 O88 1.986 . S
Zn85 O90 1.996 . S
Zn85 O93 1.943 . S
O86 Zn85 1.962 . S
O86 C91 1.254 . S
O87 Zn84 2.031 . S
O87 C91 1.269 . S
O88 Zn85 1.986 . S
O88 C95 1.262 . S
O89 Zn84 2.049 . S
O89 C97 1.260 . S
O90 Zn85 1.996 . S
O90 C97 1.257 . S
C91 O86 1.254 . S
C91 O87 1.269 . S
C92 O93 1.249 . S
C92 O94 1.270 . S
O93 Zn85 1.943 . S
O93 C92 1.249 . S
O94 Zn84 2.067 . S
O94 C92 1.270 . S
C95 O88 1.262 . S
C95 O96 1.232 . S
O96 C95 1.232 . S
C97 O89 1.260 . S
C97 O90 1.257 . S
Zn98 O101 2.031 . S
Zn98 O103 2.049 . S
Zn98 O108 2.067 . S
Zn99 O100 1.962 . S
Zn99 O102 1.986 1_565 S
Zn99 O104 1.996 . S
Zn99 O107 1.943 . S
O100 Zn99 1.962 . S
O100 C105 1.254 . S
O101 Zn98 2.031 . S
O101 C105 1.269 . S
O102 Zn99 1.986 1_545 S
O102 C109 1.262 . S
O103 Zn98 2.049 . S
O103 C111 1.260 . S
O104 Zn99 1.996 . S
O104 C111 1.257 . S
C105 O100 1.254 . S
C105 O101 1.269 . S
C106 O107 1.249 . S
C106 O108 1.270 . S
O107 Zn99 1.943 . S
O107 C106 1.249 . S
O108 Zn98 2.067 . S
O108 C106 1.270 . S
C109 O102 1.262 . S
C109 O110 1.232 . S
O110 C109 1.232 . S
C111 O103 1.260 . S
C111 O104 1.257 . S
Zn112 O115 2.031 1_455 S
Zn112 O117 2.049 . S
Zn112 O122 2.067 . S
Zn113 O114 1.962 1_455 S
Zn113 O116 1.986 . S
Zn113 O118 1.996 . S
Zn113 O121 1.943 . S
O114 Zn113 1.962 1_655 S
O114 C119 1.254 . S
O115 Zn112 2.031 1_655 S
O115 C119 1.269 . S
O116 Zn113 1.986 . S
O116 C123 1.262 . S
O117 Zn112 2.049 . S
O117 C125 1.260 . S
O118 Zn113 1.996 . S
O118 C125 1.257 . S
C119 O114 1.254 . S
C119 O115 1.269 . S
C120 O121 1.249 . S
C120 O122 1.270 . S
O121 Zn113 1.943 . S
O121 C120 1.249 . S
O122 Zn112 2.067 . S
O122 C120 1.270 . S
C123 O116 1.262 . S
C123 O124 1.232 . S
O124 C123 1.232 . S
C125 O117 1.260 . S
C125 O118 1.257 . S
Zn126 O129 2.031 1_565 S
Zn126 O131 2.049 . S
Zn126 O136 2.067 . S
Zn127 O128 1.962 1_565 S
Zn127 O130 1.986 . S
Zn127 O132 1.996 . S
Zn127 O135 1.943 . S
O128 Zn127 1.962 1_545 S
O128 C133 1.254 . S
O129 Zn126 2.031 1_545 S
O129 C133 1.269 . S
O130 Zn127 1.986 . S
O130 C137 1.262 . S
O131 Zn126 2.049 . S
O131 C139 1.260 . S
O132 Zn127 1.996 . S
O132 C139 1.257 . S
C133 O128 1.254 . S
C133 O129 1.269 . S
C134 O135 1.249 . S
C134 O136 1.270 . S
O135 Zn127 1.943 . S
O135 C134 1.249 . S
O136 Zn126 2.067 . S
O136 C134 1.270 . S
C137 O130 1.262 . S
C137 O138 1.232 . S
O138 C137 1.232 . S
C139 O131 1.260 . S
C139 O132 1.257 . S
Zn140 O143 2.031 1_455 S
Zn140 O145 2.049 . S
Zn140 O150 2.067 . S
Zn141 O142 1.962 1_455 S
Zn141 O144 1.986 . S
Zn141 O146 1.996 . S
Zn141 O149 1.943 . S
O142 Zn141 1.962 1_655 S
O142 C147 1.254 . S
O143 Zn140 2.031 1_655 S
O143 C147 1.269 . S
O144 Zn141 1.986 . S
O144 C151 1.262 . S
O145 Zn140 2.049 . S
O145 C153 1.260 . S
O146 Zn141 1.996 . S
O146 C153 1.257 . S
C147 O142 1.254 . S
C147 O143 1.269 . S
C148 O149 1.249 . S
C148 O150 1.270 . S
O149 Zn141 1.943 . S
O149 C148 1.249 . S
O150 Zn140 2.067 . S
O150 C148 1.270 . S
C151 O144 1.262 . S
C151 O152 1.232 . S
O152 C151 1.232 . S
C153 O145 1.260 . S
C153 O146 1.257 . S
Zn154 O157 2.031 . S
Zn154 O159 2.049 . S
Zn154 O164 2.067 . S
Zn155 O156 1.962 . S
Zn155 O158 1.986 . S
Zn155 O160 1.996 . S
Zn155 O163 1.943 . S
O156 Zn155 1.962 . S
O156 C161 1.254 . S
O157 Zn154 2.031 . S
O157 C161 1.269 . S
O158 Zn155 1.986 . S
O158 C165 1.262 . S
O159 Zn154 2.049 . S
O159 C167 1.260 . S
O160 Zn155 1.996 . S
O160 C167 1.257 . S
C161 O156 1.254 . S
C161 O157 1.269 . S
C162 O163 1.249 . S
C162 O164 1.270 . S
O163 Zn155 1.943 . S
O163 C162 1.249 . S
O164 Zn154 2.067 . S
O164 C162 1.270 . S
C165 O158 1.262 . S
C165 O166 1.232 . S
O166 C165 1.232 . S
C167 O159 1.260 . S
C167 O160 1.257 . S
Zn168 O171 2.031 1_545 S
Zn168 O173 2.049 . S
Zn168 O178 2.067 . S
Zn169 O170 1.962 1_545 S
Zn169 O172 1.986 . S
Zn169 O174 1.996 . S
Zn169 O177 1.943 . S
O170 Zn169 1.962 1_565 S
O170 C175 1.254 . S
O171 Zn168 2.031 1_565 S
O171 C175 1.269 . S
O172 Zn169 1.986 . S
O172 C179 1.262 . S
O173 Zn168 2.049 . S
O173 C181 1.260 . S
O174 Zn169 1.996 . S
O174 C181 1.257 . S
C175 O170 1.254 . S
C175 O171 1.269 . S
C176 O177 1.249 . S
C176 O178 1.270 . S
O177 Zn169 1.943 . S
O177 C176 1.249 . S
O178 Zn168 2.067 . S
O178 C176 1.270 . S
C179 O172 1.262 . S
C179 O180 1.232 . S
O180 C179 1.232 . S
C181 O173 1.260 . S
C181 O174 1.257 . S
Zn182 O185 2.031 1_655 S
Zn182 O187 2.049 . S
Zn182 O192 2.067 . S
Zn183 O184 1.962 1_655 S
Zn183 O186 1.986 . S
Zn183 O188 1.996 . S
Zn183 O191 1.943 . S
O184 Zn183 1.962 1_455 S
O184 C189 1.254 . S
O185 Zn182 2.031 1_455 S
O185 C189 1.269 . S
O186 Zn183 1.986 . S
O186 C193 1.262 . S
O187 Zn182 2.049 . S
O187 C195 1.260 . S
O188 Zn183 1.996 . S
O188 C195 1.257 . S
C189 O184 1.254 . S
C189 O185 1.269 . S
C190 O191 1.249 . S
C190 O192 1.270 . S
O191 Zn183 1.943 . S
O191 C190 1.249 . S
O192 Zn182 2.067 . S
O192 C190 1.270 . S
C193 O186 1.262 . S
C193 O194 1.253 . S
O194 C193 1.253 . S
C195 O187 1.260 . S
C195 O188 1.257 . S
Zn196 O199 2.031 . S
Zn196 O201 2.049 . S
Zn196 O206 2.067 . S
Zn197 O198 1.962 . S
Zn197 O200 1.986 . S
Zn197 O202 1.996 . S
Zn197 O205 1.943 . S
O198 Zn197 1.962 . S
O198 C203 1.254 . S
O199 Zn196 2.031 . S
O199 C203 1.269 . S
O200 Zn197 1.986 . S
O200 C207 1.262 . S
O201 Zn196 2.049 . S
O201 C209 1.260 . S
O202 Zn197 1.996 . S
O202 C209 1.257 . S
C203 O198 1.254 . S
C203 O199 1.269 . S
C204 O205 1.249 . S
C204 O206 1.270 . S
O205 Zn197 1.943 . S
O205 C204 1.249 . S
O206 Zn196 2.067 . S
O206 C204 1.270 . S
C207 O200 1.262 . S
C207 O208 1.232 . S
O208 C207 1.232 . S
C209 O201 1.260 . S
C209 O202 1.257 . S
Zn210 O213 2.031 . S
Zn210 O215 2.049 . S
Zn210 O220 2.067 . S
Zn211 O212 1.962 . S
Zn211 O214 1.986 . S
Zn211 O216 1.996 . S
Zn211 O219 1.943 . S
O212 Zn211 1.962 . S
O212 C217 1.254 . S
O213 Zn210 2.031 . S
O213 C217 1.269 . S
O214 Zn211 1.986 . S
O214 C221 1.262 . S
O215 Zn210 2.049 . S
O215 C223 1.260 . S
O216 Zn211 1.996 . S
O216 C223 1.257 . S
C217 O212 1.254 . S
C217 O213 1.269 . S
C218 O219 1.249 . S
C218 O220 1.270 . S
O219 Zn211 1.943 . S
O219 C218 1.249 . S
O220 Zn210 2.067 . S
O220 C218 1.270 . S
C221 O214 1.262 . S
C221 O222 1.232 . S
O222 C221 1.232 . S
C223 O215 1.260 . S
C223 O216 1.257 . S
Zn224 O227 2.031 . S
Zn224 O229 2.049 . S
Zn224 O234 2.067 . S
Zn225 O226 1.962 . S
Zn225 O228 1.986 1_545 S
Zn225 O230 1.996 . S
Zn225 O233 1.943 . S
O226 Zn225 1.962 . S
O226 C231 1.254 . S
O227 Zn224 2.031 . S
O227 C231 1.269 . S
O228 Zn225 1.986 1_565 S
O228 C235 1.262 . S
O229 Zn224 2.049 . S
O229 C237 1.260 . S
O230 Zn225 1.996 . S
O230 C237 1.257 . S
C231 O226 1.254 . S
C231 O227 1.269 . S
C232 O233 1.249 . S
C232 O234 1.270 . S
O233 Zn225 1.943 . S
O233 C232 1.249 . S
O234 Zn224 2.067 . S
O234 C232 1.270 . S
C235 O228 1.262 . S
C235 O236 1.232 . S
O236 C235 1.232 . S
C237 O229 1.260 . S
C237 O230 1.257 . S
Zn238 O241 2.031 1_655 S
Zn238 O243 2.049 . S
Zn238 O248 2.067 . S
Zn239 O240 1.962 1_655 S
Zn239 O242 1.986 . S
Zn239 O244 1.996 . S
Zn239 O247 1.943 . S
O240 Zn239 1.962 1_455 S
O240 C245 1.254 . S
O241 Zn238 2.031 1_455 S
O241 C245 1.269 . S
O242 Zn239 1.986 . S
O242 C249 1.262 . S
O243 Zn238 2.049 . S
O243 C251 1.260 . S
O244 Zn239 1.996 . S
O244 C251 1.257 . S
C245 O240 1.254 . S
C245 O241 1.269 . S
C246 O247 1.249 . S
C246 O248 1.270 . S
O247 Zn239 1.943 . S
O247 C246 1.249 . S
O248 Zn238 2.067 . S
O248 C246 1.270 . S
C249 O242 1.262 . S
C249 O250 1.232 . S
O250 C249 1.232 . S
C251 O243 1.260 . S
C251 O244 1.257 . S
H252 C260 0.930 . S
H253 C263 0.930 . S
H254 C265 0.930 . S
H255 C266 0.970 . S
H256 C266 0.970 . S
H257 C268 0.930 . S
H258 C270 0.930 . S
H259 C272 0.930 . S
C260 H252 0.930 . S
C260 C261 1.382 . S
C260 C262 1.426 . S
C261 C260 1.382 . S
C261 C265 1.389 . S
C262 C260 1.426 . S
C262 C263 1.375 . S
C262 C266 1.532 . S
C263 H253 0.930 . S
C263 C262 1.375 . S
C263 C264 1.416 . S
C264 C263 1.416 . S
C264 C265 1.371 . S
C265 H254 0.930 . S
C265 C261 1.389 . S
C265 C264 1.371 . S
C266 H255 0.970 . S
C266 H256 0.970 . S
C266 C262 1.532 . S
C266 C267 1.499 . S
C267 C266 1.499 . S
C267 C268 1.370 . S
C267 C272 1.415 . S
C268 H257 0.930 . S
C268 C267 1.370 . S
C268 C269 1.407 . S
C269 C268 1.407 . S
C269 C270 1.365 . S
C270 H258 0.930 . S
C270 C269 1.365 . S
C270 C271 1.393 . S
C271 C270 1.393 . S
C271 C272 1.387 . S
C272 H259 0.930 . S
C272 C267 1.415 . S
C272 C271 1.387 . S
H273 C281 0.930 . S
H274 C284 0.930 . S
H275 C286 0.930 . S
H276 C287 0.970 . S
H277 C287 0.970 . S
H278 C289 0.930 . S
H279 C291 0.930 . S
H280 C293 0.930 . S
C281 H273 0.930 . S
C281 C282 1.382 . S
C281 C283 1.426 . S
C282 C281 1.382 . S
C282 C286 1.389 . S
C283 C281 1.426 . S
C283 C284 1.375 . S
C283 C287 1.532 . S
C284 H274 0.930 . S
C284 C283 1.375 . S
C284 C285 1.416 . S
C285 C284 1.416 . S
C285 C286 1.371 . S
C286 H275 0.930 . S
C286 C282 1.389 . S
C286 C285 1.371 . S
C287 H276 0.970 . S
C287 H277 0.970 . S
C287 C283 1.532 . S
C287 C288 1.499 . S
C288 C287 1.499 . S
C288 C289 1.370 . S
C288 C293 1.415 . S
C289 H278 0.930 . S
C289 C288 1.370 . S
C289 C290 1.407 . S
C290 C289 1.407 . S
C290 C291 1.365 . S
C291 H279 0.930 . S
C291 C290 1.365 . S
C291 C292 1.393 . S
C292 C291 1.393 . S
C292 C293 1.387 . S
C293 H280 0.930 . S
C293 C288 1.415 . S
C293 C292 1.387 . S
H294 C302 0.930 . S
H295 C305 0.930 . S
H296 C307 0.930 . S
H297 C308 0.970 . S
H298 C308 0.970 . S
H299 C310 0.930 . S
H300 C312 0.930 . S
H301 C314 0.930 . S
C302 H294 0.930 . S
C302 C303 1.382 . S
C302 C304 1.426 . S
C303 C302 1.382 . S
C303 C307 1.389 . S
C304 C302 1.426 . S
C304 C305 1.375 . S
C304 C308 1.532 . S
C305 H295 0.930 . S
C305 C304 1.375 . S
C305 C306 1.416 . S
C306 C305 1.416 . S
C306 C307 1.371 . S
C307 H296 0.930 . S
C307 C303 1.389 . S
C307 C306 1.371 . S
C308 H297 0.970 . S
C308 H298 0.970 . S
C308 C304 1.532 . S
C308 C309 1.499 . S
C309 C308 1.499 . S
C309 C310 1.370 . S
C309 C314 1.415 . S
C310 H299 0.930 . S
C310 C309 1.370 . S
C310 C311 1.407 . S
C311 C310 1.407 . S
C311 C312 1.365 . S
C312 H300 0.930 . S
C312 C311 1.365 . S
C312 C313 1.393 . S
C313 C312 1.393 . S
C313 C314 1.387 . S
C314 H301 0.930 . S
C314 C309 1.415 . S
C314 C313 1.387 . S
H315 C323 0.930 . S
H316 C326 0.930 . S
H317 C328 0.930 . S
H318 C329 0.970 . S
H319 C329 0.970 . S
H320 C331 0.930 . S
H321 C333 0.930 . S
H322 C335 0.930 . S
C323 H315 0.930 . S
C323 C324 1.382 . S
C323 C325 1.426 . S
C324 C323 1.382 . S
C324 C328 1.389 . S
C325 C323 1.426 . S
C325 C326 1.375 . S
C325 C329 1.532 . S
C326 H316 0.930 . S
C326 C325 1.375 . S
C326 C327 1.416 . S
C327 C326 1.416 . S
C327 C328 1.371 . S
C328 H317 0.930 . S
C328 C324 1.389 . S
C328 C327 1.371 . S
C329 H318 0.970 . S
C329 H319 0.970 . S
C329 C325 1.532 . S
C329 C330 1.499 . S
C330 C329 1.499 . S
C330 C331 1.370 . S
C330 C335 1.415 . S
C331 H320 0.930 . S
C331 C330 1.370 . S
C331 C332 1.407 . S
C332 C331 1.407 . S
C332 C333 1.365 . S
C333 H321 0.930 . S
C333 C332 1.365 . S
C333 C334 1.393 . S
C334 C333 1.393 . S
C334 C335 1.387 . S
C335 H322 0.930 . S
C335 C330 1.415 . S
C335 C334 1.387 . S
H336 C344 0.930 . S
H337 C347 0.930 . S
H338 C349 0.930 . S
H339 C350 0.970 . S
H340 C350 0.970 . S
H341 C352 0.930 . S
H342 C354 0.930 . S
H343 C356 0.930 . S
C344 H336 0.930 . S
C344 C345 1.382 . S
C344 C346 1.426 . S
C345 C344 1.382 . S
C345 C349 1.389 . S
C346 C344 1.426 . S
C346 C347 1.375 . S
C346 C350 1.532 . S
C347 H337 0.930 . S
C347 C346 1.375 . S
C347 C348 1.416 . S
C348 C347 1.416 . S
C348 C349 1.371 . S
C349 H338 0.930 . S
C349 C345 1.389 . S
C349 C348 1.371 . S
C350 H339 0.970 . S
C350 H340 0.970 . S
C350 C346 1.532 . S
C350 C351 1.499 . S
C351 C350 1.499 . S
C351 C352 1.370 . S
C351 C356 1.415 . S
C352 H341 0.930 . S
C352 C351 1.370 . S
C352 C353 1.407 . S
C353 C352 1.407 . S
C353 C354 1.365 . S
C354 H342 0.930 . S
C354 C353 1.365 . S
C354 C355 1.393 . S
C355 C354 1.393 . S
C355 C356 1.387 . S
C356 H343 0.930 . S
C356 C351 1.415 . S
C356 C355 1.387 . S
H357 C365 0.930 . S
H358 C368 0.930 . S
H359 C370 0.930 . S
H360 C371 0.970 . S
H361 C371 0.970 . S
H362 C373 0.930 . S
H363 C375 0.930 . S
H364 C377 0.930 . S
C365 H357 0.930 . S
C365 C366 1.382 . S
C365 C367 1.426 . S
C366 C365 1.382 . S
C366 C370 1.389 . S
C367 C365 1.426 . S
C367 C368 1.375 . S
C367 C371 1.532 . S
C368 H358 0.930 . S
C368 C367 1.375 . S
C368 C369 1.416 . S
C369 C368 1.416 . S
C369 C370 1.371 . S
C370 H359 0.930 . S
C370 C366 1.389 . S
C370 C369 1.371 . S
C371 H360 0.970 . S
C371 H361 0.970 . S
C371 C367 1.532 . S
C371 C372 1.499 . S
C372 C371 1.499 . S
C372 C373 1.370 . S
C372 C377 1.415 . S
C373 H362 0.930 . S
C373 C372 1.370 . S
C373 C374 1.407 . S
C374 C373 1.407 . S
C374 C375 1.365 . S
C375 H363 0.930 . S
C375 C374 1.365 . S
C375 C376 1.393 . S
C376 C375 1.393 . S
C376 C377 1.387 . S
C377 H364 0.930 . S
C377 C372 1.415 . S
C377 C376 1.387 . S
H378 C386 0.930 . S
H379 C389 0.930 . S
H380 C391 0.930 . S
H381 C392 0.970 . S
H382 C392 0.970 . S
H383 C394 0.930 . S
H384 C396 0.930 . S
H385 C398 0.930 . S
C386 H378 0.930 . S
C386 C387 1.382 . S
C386 C388 1.426 . S
C387 C386 1.382 . S
C387 C391 1.389 . S
C388 C386 1.426 . S
C388 C389 1.375 . S
C388 C392 1.532 . S
C389 H379 0.930 . S
C389 C388 1.375 . S
C389 C390 1.416 . S
C390 C389 1.416 . S
C390 C391 1.371 . S
C391 H380 0.930 . S
C391 C387 1.389 . S
C391 C390 1.371 . S
C392 H381 0.970 . S
C392 H382 0.970 . S
C392 C388 1.532 . S
C392 C393 1.499 . S
C393 C392 1.499 . S
C393 C394 1.370 . S
C393 C398 1.415 . S
C394 H383 0.930 . S
C394 C393 1.370 . S
C394 C395 1.407 . S
C395 C394 1.407 . S
C395 C396 1.365 . S
C396 H384 0.930 . S
C396 C395 1.365 . S
C396 C397 1.393 . S
C397 C396 1.393 . S
C397 C398 1.387 . S
C398 H385 0.930 . S
C398 C393 1.415 . S
C398 C397 1.387 . S
H399 C407 0.930 . S
H400 C410 0.930 . S
H401 C412 0.930 . S
H402 C413 0.970 . S
H403 C413 0.970 . S
H404 C415 0.930 . S
H405 C417 0.930 . S
H406 C419 0.930 . S
C407 H399 0.930 . S
C407 C408 1.382 . S
C407 C409 1.426 . S
C408 C407 1.382 . S
C408 C412 1.389 . S
C409 C407 1.426 . S
C409 C410 1.375 . S
C409 C413 1.532 . S
C410 H400 0.930 . S
C410 C409 1.375 . S
C410 C411 1.416 . S
C411 C410 1.416 . S
C411 C412 1.371 . S
C412 H401 0.930 . S
C412 C408 1.389 . S
C412 C411 1.371 . S
C413 H402 0.970 . S
C413 H403 0.970 . S
C413 C409 1.532 . S
C413 C414 1.499 . S
C414 C413 1.499 . S
C414 C415 1.370 . S
C414 C419 1.415 . S
C415 H404 0.930 . S
C415 C414 1.370 . S
C415 C416 1.407 . S
C416 C415 1.407 . S
C416 C417 1.365 . S
C417 H405 0.930 . S
C417 C416 1.365 . S
C417 C418 1.393 . S
C418 C417 1.393 . S
C418 C419 1.387 . S
C419 H406 0.930 . S
C419 C414 1.415 . S
C419 C418 1.387 . S
H420 C428 0.930 . S
H421 C431 0.930 . S
H422 C433 0.930 . S
H423 C434 0.970 . S
H424 C434 0.970 . S
H425 C436 0.930 . S
H426 C438 0.930 . S
H427 C440 0.930 . S
C428 H420 0.930 . S
C428 C429 1.382 . S
C428 C430 1.426 . S
C429 C428 1.382 . S
C429 C433 1.389 . S
C430 C428 1.426 . S
C430 C431 1.375 . S
C430 C434 1.532 . S
C431 H421 0.930 . S
C431 C430 1.375 . S
C431 C432 1.416 . S
C432 C431 1.416 . S
C432 C433 1.371 . S
C433 H422 0.930 . S
C433 C429 1.389 . S
C433 C432 1.371 . S
C434 H423 0.970 . S
C434 H424 0.970 . S
C434 C430 1.532 . S
C434 C435 1.499 . S
C435 C434 1.499 . S
C435 C436 1.370 . S
C435 C440 1.415 . S
C436 H425 0.930 . S
C436 C435 1.370 . S
C436 C437 1.407 . S
C437 C436 1.407 . S
C437 C438 1.365 . S
C438 H426 0.930 . S
C438 C437 1.365 . S
C438 C439 1.393 . S
C439 C438 1.393 . S
C439 C440 1.387 . S
C440 H427 0.930 . S
C440 C435 1.415 . S
C440 C439 1.387 . S
H441 C449 0.930 . S
H442 C452 0.930 . S
H443 C454 0.930 . S
H444 C455 0.970 . S
H445 C455 0.970 . S
H446 C457 0.930 . S
H447 C459 0.930 . S
H448 C461 0.930 . S
C449 H441 0.930 . S
C449 C450 1.382 . S
C449 C451 1.426 . S
C450 C449 1.382 . S
C450 C454 1.389 1_455 S
C451 C449 1.426 . S
C451 C452 1.375 . S
C451 C455 1.532 . S
C452 H442 0.930 . S
C452 C451 1.375 . S
C452 C453 1.416 . S
C453 C452 1.416 . S
C453 C454 1.371 1_455 S
C454 H443 0.930 . S
C454 C450 1.389 1_655 S
C454 C453 1.371 1_655 S
C455 H444 0.970 . S
C455 H445 0.970 . S
C455 C451 1.532 . S
C455 C456 1.499 . S
C456 C455 1.499 . S
C456 C457 1.370 . S
C456 C461 1.415 . S
C457 H446 0.930 . S
C457 C456 1.370 . S
C457 C458 1.409 . S
C458 C457 1.409 . S
C458 C459 1.369 1_455 S
C459 H447 0.930 . S
C459 C458 1.369 1_655 S
C459 C460 1.393 1_655 S
C460 C459 1.393 1_455 S
C460 C461 1.387 . S
C461 H448 0.930 . S
C461 C456 1.415 . S
C461 C460 1.387 . S
H462 C470 0.930 . S
H463 C473 0.930 . S
H464 C475 0.930 . S
H465 C476 0.970 . S
H466 C476 0.970 . S
H467 C478 0.930 . S
H468 C480 0.930 . S
H469 C482 0.930 . S
C470 H462 0.930 . S
C470 C471 1.382 . S
C470 C472 1.426 . S
C471 C470 1.382 . S
C471 C475 1.389 . S
C472 C470 1.426 . S
C472 C473 1.375 . S
C472 C476 1.532 . S
C473 H463 0.930 . S
C473 C472 1.375 . S
C473 C474 1.416 . S
C474 C473 1.416 . S
C474 C475 1.371 . S
C475 H464 0.930 . S
C475 C471 1.389 . S
C475 C474 1.371 . S
C476 H465 0.970 . S
C476 H466 0.970 . S
C476 C472 1.532 . S
C476 C477 1.499 . S
C477 C476 1.499 . S
C477 C478 1.370 . S
C477 C482 1.415 . S
C478 H467 0.930 . S
C478 C477 1.370 . S
C478 C479 1.407 . S
C479 C478 1.407 . S
C479 C480 1.365 . S
C480 H468 0.930 . S
C480 C479 1.365 . S
C480 C481 1.393 . S
C481 C480 1.393 . S
C481 C482 1.387 . S
C482 H469 0.930 . S
C482 C477 1.415 . S
C482 C481 1.387 . S
H483 C491 0.930 . S
H484 C494 0.930 . S
H485 C496 0.930 . S
H486 C497 0.970 . S
H487 C497 0.970 . S
H488 C499 0.930 . S
H489 C501 0.930 . S
H490 C503 0.930 . S
C491 H483 0.930 . S
C491 C492 1.382 . S
C491 C493 1.426 . S
C492 C491 1.382 . S
C492 C496 1.389 1_565 S
C493 C491 1.426 . S
C493 C494 1.375 . S
C493 C497 1.532 . S
C494 H484 0.930 . S
C494 C493 1.375 . S
C494 C495 1.416 . S
C495 C494 1.416 . S
C495 C496 1.371 1_565 S
C496 H485 0.930 . S
C496 C492 1.389 1_545 S
C496 C495 1.371 1_545 S
C497 H486 0.970 . S
C497 H487 0.970 . S
C497 C493 1.532 . S
C497 C498 1.499 . S
C498 C497 1.499 . S
C498 C499 1.370 . S
C498 C503 1.415 . S
C499 H488 0.930 . S
C499 C498 1.370 . S
C499 C500 1.402 . S
C500 C499 1.402 . S
C500 C501 1.366 1_565 S
C501 H489 0.930 . S
C501 C500 1.366 1_545 S
C501 C502 1.393 1_545 S
C502 C501 1.393 1_565 S
C502 C503 1.387 . S
C503 H490 0.930 . S
C503 C498 1.415 . S
C503 C502 1.387 . S
H504 C512 0.930 . S
H505 C515 0.930 . S
H506 C517 0.930 . S
H507 C518 0.970 . S
H508 C518 0.970 . S
H509 C520 0.930 . S
H510 C522 0.930 . S
H511 C524 0.930 . S
C512 H504 0.930 . S
C512 C513 1.382 . S
C512 C514 1.426 . S
C513 C512 1.382 . S
C513 C517 1.389 1_565 S
C514 C512 1.426 . S
C514 C515 1.375 . S
C514 C518 1.532 . S
C515 H505 0.930 . S
C515 C514 1.375 . S
C515 C516 1.462 . S
C516 C515 1.462 . S
C516 C517 1.354 1_565 S
C517 H506 0.930 . S
C517 C513 1.389 1_545 S
C517 C516 1.354 1_545 S
C518 H507 0.970 . S
C518 H508 0.970 . S
C518 C514 1.532 . S
C518 C519 1.499 . S
C519 C518 1.499 . S
C519 C520 1.370 . S
C519 C524 1.415 . S
C520 H509 0.930 . S
C520 C519 1.370 . S
C520 C521 1.407 . S
C521 C520 1.407 . S
C521 C522 1.365 1_565 S
C522 H510 0.930 . S
C522 C521 1.365 1_545 S
C522 C523 1.393 1_545 S
C523 C522 1.393 1_565 S
C523 C524 1.387 . S
C524 H511 0.930 . S
C524 C519 1.415 . S
C524 C523 1.387 . S
H525 C533 0.930 . S
H526 C536 0.930 . S
H527 C538 0.930 . S
H528 C539 0.970 . S
H529 C539 0.970 . S
H530 C541 0.930 . S
H531 C543 0.930 . S
H532 C545 0.930 . S
C533 H525 0.930 . S
C533 C534 1.382 . S
C533 C535 1.426 . S
C534 C533 1.382 . S
C534 C538 1.389 1_455 S
C535 C533 1.426 . S
C535 C536 1.375 . S
C535 C539 1.532 . S
C536 H526 0.930 . S
C536 C535 1.375 . S
C536 C537 1.416 . S
C537 C536 1.416 . S
C537 C538 1.371 1_455 S
C538 H527 0.930 . S
C538 C534 1.389 1_655 S
C538 C537 1.371 1_655 S
C539 H528 0.970 . S
C539 H529 0.970 . S
C539 C535 1.532 . S
C539 C540 1.499 . S
C540 C539 1.499 . S
C540 C541 1.370 . S
C540 C545 1.415 . S
C541 H530 0.930 . S
C541 C540 1.370 . S
C541 C542 1.407 . S
C542 C541 1.407 . S
C542 C543 1.365 1_455 S
C543 H531 0.930 . S
C543 C542 1.365 1_655 S
C543 C544 1.393 1_655 S
C544 C543 1.393 1_455 S
C544 C545 1.387 . S
C545 H532 0.930 . S
C545 C540 1.415 . S
C545 C544 1.387 . S
H546 C554 0.930 . S
H547 C557 0.930 . S
H548 C559 0.930 . S
H549 C560 0.970 . S
H550 C560 0.970 . S
H551 C562 0.930 . S
H552 C564 0.930 . S
H553 C566 0.930 . S
C554 H546 0.930 . S
C554 C555 1.382 . S
C554 C556 1.426 . S
C555 C554 1.382 . S
C555 C559 1.389 . S
C556 C554 1.426 . S
C556 C557 1.375 . S
C556 C560 1.532 . S
C557 H547 0.930 . S
C557 C556 1.375 . S
C557 C558 1.416 . S
C558 C557 1.416 . S
C558 C559 1.371 . S
C559 H548 0.930 . S
C559 C555 1.389 . S
C559 C558 1.371 . S
C560 H549 0.970 . S
C560 H550 0.970 . S
C560 C556 1.532 . S
C560 C561 1.499 . S
C561 C560 1.499 . S
C561 C562 1.370 . S
C561 C566 1.415 . S
C562 H551 0.930 . S
C562 C561 1.370 . S
C562 C563 1.407 . S
C563 C562 1.407 . S
C563 C564 1.365 . S
C564 H552 0.930 . S
C564 C563 1.365 . S
C564 C565 1.393 . S
C565 C564 1.393 . S
C565 C566 1.387 . S
C566 H553 0.930 . S
C566 C561 1.415 . S
C566 C565 1.387 . S
H567 C575 0.930 . S
H568 C578 0.930 . S
H569 C580 0.930 . S
H570 C581 0.970 . S
H571 C581 0.970 . S
H572 C583 0.930 . S
H573 C585 0.930 . S
H574 C587 0.930 . S
C575 H567 0.930 . S
C575 C576 1.382 . S
C575 C577 1.426 . S
C576 C575 1.382 . S
C576 C580 1.389 . S
C577 C575 1.426 . S
C577 C578 1.375 . S
C577 C581 1.532 . S
C578 H568 0.930 . S
C578 C577 1.375 . S
C578 C579 1.416 . S
C579 C578 1.416 . S
C579 C580 1.371 . S
C580 H569 0.930 . S
C580 C576 1.389 . S
C580 C579 1.371 . S
C581 H570 0.970 . S
C581 H571 0.970 . S
C581 C577 1.532 . S
C581 C582 1.499 . S
C582 C581 1.499 . S
C582 C583 1.370 . S
C582 C587 1.415 . S
C583 H572 0.930 . S
C583 C582 1.370 . S
C583 C584 1.407 . S
C584 C583 1.407 . S
C584 C585 1.365 . S
C585 H573 0.930 . S
C585 C584 1.365 . S
C585 C586 1.393 . S
C586 C585 1.393 . S
C586 C587 1.387 . S
C587 H574 0.930 . S
C587 C582 1.415 . S
C587 C586 1.387 . S
H588 C596 0.930 . S
H589 C599 0.930 . S
H590 C601 0.930 . S
H591 C602 0.970 . S
H592 C602 0.970 . S
H593 C604 0.930 . S
H594 C606 0.930 . S
H595 C608 0.930 . S
C596 H588 0.930 . S
C596 C597 1.382 . S
C596 C598 1.426 . S
C597 C596 1.382 . S
C597 C601 1.389 . S
C598 C596 1.426 . S
C598 C599 1.375 . S
C598 C602 1.532 . S
C599 H589 0.930 . S
C599 C598 1.375 . S
C599 C600 1.416 . S
C600 C599 1.416 . S
C600 C601 1.371 . S
C601 H590 0.930 . S
C601 C597 1.389 . S
C601 C600 1.371 . S
C602 H591 0.970 . S
C602 H592 0.970 . S
C602 C598 1.532 . S
C602 C603 1.499 . S
C603 C602 1.499 . S
C603 C604 1.370 . S
C603 C608 1.415 . S
C604 H593 0.930 . S
C604 C603 1.370 . S
C604 C605 1.407 . S
C605 C604 1.407 . S
C605 C606 1.365 . S
C606 H594 0.930 . S
C606 C605 1.365 . S
C606 C607 1.393 . S
C607 C606 1.393 . S
C607 C608 1.387 . S
C608 H595 0.930 . S
C608 C603 1.415 . S
C608 C607 1.387 . S
H609 C617 0.930 . S
H610 C620 0.930 . S
H611 C622 0.930 . S
H612 C623 0.970 . S
H613 C623 0.970 . S
H614 C625 0.930 . S
H615 C627 0.930 . S
H616 C629 0.930 . S
C617 H609 0.930 . S
C617 C618 1.382 . S
C617 C619 1.426 . S
C618 C617 1.382 . S
C618 C622 1.389 . S
C619 C617 1.426 . S
C619 C620 1.375 . S
C619 C623 1.532 . S
C620 H610 0.930 . S
C620 C619 1.375 . S
C620 C621 1.416 . S
C621 C620 1.416 . S
C621 C622 1.371 . S
C622 H611 0.930 . S
C622 C618 1.389 . S
C622 C621 1.371 . S
C623 H612 0.970 . S
C623 H613 0.970 . S
C623 C619 1.532 . S
C623 C624 1.499 . S
C624 C623 1.499 . S
C624 C625 1.370 . S
C624 C629 1.415 . S
C625 H614 0.930 . S
C625 C624 1.370 . S
C625 C626 1.407 . S
C626 C625 1.407 . S
C626 C627 1.365 . S
C627 H615 0.930 . S
C627 C626 1.365 . S
C627 C628 1.393 . S
C628 C627 1.393 . S
C628 C629 1.387 . S
C629 H616 0.930 . S
C629 C624 1.415 . S
C629 C628 1.387 . S
C630 C631 1.387 . S
C630 H634 0.950 . S
C630 C639 1.390 . S
C631 C630 1.387 . S
C631 C633 1.387 1_655 S
H632 C639 0.950 . S
C633 C631 1.387 1_455 S
C633 C635 1.390 . S
C633 H637 0.950 . S
H634 C630 0.950 . S
C635 C633 1.390 . S
C635 C636 1.387 1_455 S
C635 H638 0.950 . S
C636 C635 1.387 1_655 S
C636 C639 1.387 . S
H637 C633 0.950 . S
H638 C635 0.950 . S
C639 C630 1.390 . S
C639 H632 0.950 . S
C639 C636 1.387 . S
C640 C641 1.387 . S
C640 H644 0.950 . S
C640 C649 1.390 . S
C641 C640 1.387 . S
C641 C643 1.387 . S
H642 C649 0.950 . S
C643 C641 1.387 . S
C643 C645 1.390 . S
C643 H647 0.950 . S
H644 C640 0.950 . S
C645 C643 1.390 . S
C645 C646 1.387 . S
C645 H648 0.950 . S
C646 C645 1.387 . S
C646 C649 1.387 . S
H647 C643 0.950 . S
H648 C645 0.950 . S
C649 C640 1.390 . S
C649 H642 0.950 . S
C649 C646 1.387 . S
C650 C651 1.387 . S
C650 H654 0.950 . S
C650 C659 1.390 . S
C651 C650 1.387 . S
C651 C653 1.387 1_545 S
H652 C659 0.950 . S
C653 C651 1.387 1_565 S
C653 C655 1.390 . S
C653 H657 0.950 . S
H654 C650 0.950 . S
C655 C653 1.390 . S
C655 C656 1.387 1_565 S
C655 H658 0.950 . S
C656 C655 1.387 1_545 S
C656 C659 1.387 . S
H657 C653 0.950 . S
H658 C655 0.950 . S
C659 C650 1.390 . S
C659 H652 0.950 . S
C659 C656 1.387 . S
C660 C661 1.387 1_545 S
C660 H664 0.950 . S
C660 C669 1.390 . S
C661 C660 1.387 1_565 S
C661 C663 1.387 . S
H662 C669 0.950 . S
C663 C661 1.387 . S
C663 C665 1.390 . S
C663 H667 0.950 . S
H664 C660 0.950 . S
C665 C663 1.390 . S
C665 C666 1.387 . S
C665 H668 0.950 . S
C666 C665 1.387 . S
C666 C669 1.387 1_565 S
H667 C663 0.950 . S
H668 C665 0.950 . S
C669 C660 1.390 . S
C669 H662 0.950 . S
C669 C666 1.387 1_545 S
C670 C671 1.387 . S
C670 H674 0.950 . S
C670 C679 1.390 . S
C671 C670 1.387 . S
C671 C673 1.387 1_455 S
H672 C679 0.950 . S
C673 C671 1.387 1_655 S
C673 C675 1.390 . S
C673 H677 0.950 . S
H674 C670 0.950 . S
C675 C673 1.390 . S
C675 C676 1.387 1_655 S
C675 H678 0.950 . S
C676 C675 1.387 1_455 S
C676 C679 1.387 . S
H677 C673 0.950 . S
H678 C675 0.950 . S
C679 C670 1.390 . S
C679 H672 0.950 . S
C679 C676 1.387 . S
C680 C681 1.387 . S
C680 H684 0.950 . S
C680 C689 1.390 . S
C681 C680 1.387 . S
C681 C683 1.387 . S
H682 C689 0.950 . S
C683 C681 1.387 . S
C683 C685 1.390 . S
C683 H687 0.950 . S
H684 C680 0.950 . S
C685 C683 1.390 . S
C685 C686 1.387 . S
C685 H688 0.950 . S
C686 C685 1.387 . S
C686 C689 1.387 . S
H687 C683 0.950 . S
H688 C685 0.950 . S
C689 C680 1.390 . S
C689 H682 0.950 . S
C689 C686 1.387 . S
C690 C691 1.387 1_655 S
C690 H694 0.950 . S
C690 C699 1.390 . S
C691 C690 1.387 1_455 S
C691 C693 1.387 . S
H692 C699 0.950 . S
C693 C691 1.387 . S
C693 C695 1.390 . S
C693 H697 0.950 . S
H694 C690 0.950 . S
C695 C693 1.390 . S
C695 C696 1.387 . S
C695 H698 0.950 . S
C696 C695 1.387 . S
C696 C699 1.387 1_455 S
H697 C693 0.950 . S
H698 C695 0.950 . S
C699 C690 1.390 . S
C699 H692 0.950 . S
C699 C696 1.387 1_655 S
C700 C701 1.387 . S
C700 H704 0.950 . S
C700 C709 1.390 . S
C701 C700 1.387 . S
C701 C703 1.387 . S
H702 C709 0.950 . S
C703 C701 1.387 . S
C703 C705 1.390 . S
C703 H707 0.950 . S
H704 C700 0.950 . S
C705 C703 1.390 . S
C705 C706 1.387 . S
C705 H708 0.950 . S
C706 C705 1.387 . S
C706 C709 1.387 . S
H707 C703 0.950 . S
H708 C705 0.950 . S
C709 C700 1.390 . S
C709 H702 0.950 . S
C709 C706 1.387 . S
C710 C711 1.387 1_545 S
C710 H714 0.950 . S
C710 C719 1.390 . S
C711 C710 1.387 1_565 S
C711 C713 1.387 . S
H712 C719 0.950 . S
C713 C711 1.387 . S
C713 C715 1.390 . S
C713 H717 0.950 . S
H714 C710 0.950 . S
C715 C713 1.390 . S
C715 C716 1.387 . S
C715 H718 0.950 . S
C716 C715 1.387 . S
C716 C719 1.387 1_565 S
H717 C713 0.950 . S
H718 C715 0.950 . S
C719 C710 1.390 . S
C719 H712 0.950 . S
C719 C716 1.387 1_545 S
C720 C721 1.387 . S
C720 H724 0.950 . S
C720 C729 1.390 . S
C721 C720 1.387 . S
C721 C723 1.387 1_545 S
H722 C729 0.950 . S
C723 C721 1.387 1_565 S
C723 C725 1.390 . S
C723 H727 0.950 . S
H724 C720 0.950 . S
C725 C723 1.390 . S
C725 C726 1.387 1_565 S
C725 H728 0.950 . S
C726 C725 1.387 1_545 S
C726 C729 1.387 . S
H727 C723 0.950 . S
H728 C725 0.950 . S
C729 C720 1.390 . S
C729 H722 0.950 . S
C729 C726 1.387 . S
C730 C731 1.387 1_455 S
C730 H734 0.950 . S
C730 C739 1.390 . S
C731 C730 1.387 1_655 S
C731 C733 1.387 . S
H732 C739 0.950 . S
C733 C731 1.387 . S
C733 C735 1.390 . S
C733 H737 0.950 . S
H734 C730 0.950 . S
C735 C733 1.390 . S
C735 C736 1.387 . S
C735 H738 0.950 . S
C736 C735 1.387 . S
C736 C739 1.387 1_655 S
H737 C733 0.950 . S
H738 C735 0.950 . S
C739 C730 1.390 . S
C739 H732 0.950 . S
C739 C736 1.387 1_455 S
C740 C741 1.387 . S
C740 H744 0.950 . S
C740 C749 1.390 . S
C741 C740 1.387 . S
C741 C743 1.387 . S
H742 C749 0.950 . S
C743 C741 1.387 . S
C743 C745 1.390 . S
C743 H747 0.950 . S
H744 C740 0.950 . S
C745 C743 1.390 . S
C745 C746 1.387 . S
C745 H748 0.950 . S
C746 C745 1.387 . S
C746 C749 1.387 . S
H747 C743 0.950 . S
H748 C745 0.950 . S
C749 C740 1.390 . S
C749 H742 0.950 . S
C749 C746 1.387 . S
C750 C751 1.387 . S
C750 H754 0.950 . S
C750 C759 1.390 . S
C751 C750 1.387 . S
C751 C753 1.387 . S
H752 C759 0.950 . S
C753 C751 1.387 . S
C753 C755 1.390 . S
C753 H757 0.950 . S
H754 C750 0.950 . S
C755 C753 1.390 . S
C755 C756 1.387 . S
C755 H758 0.950 . S
C756 C755 1.387 . S
C756 C759 1.387 . S
H757 C753 0.950 . S
H758 C755 0.950 . S
C759 C750 1.390 . S
C759 H752 0.950 . S
C759 C756 1.387 . S
C760 C761 1.387 . S
C760 H764 0.950 . S
C760 C769 1.390 . S
C761 C760 1.387 . S
C761 C763 1.387 . S
H762 C769 0.950 . S
C763 C761 1.387 . S
C763 C765 1.390 . S
C763 H767 0.950 . S
H764 C760 0.950 . S
C765 C763 1.390 . S
C765 C766 1.387 . S
C765 H768 0.950 . S
C766 C765 1.387 . S
C766 C769 1.387 . S
H767 C763 0.950 . S
H768 C765 0.950 . S
C769 C760 1.390 . S
C769 H762 0.950 . S
C769 C766 1.387 . S
C770 C771 1.387 . S
C770 H774 0.950 . S
C770 C779 1.390 . S
C771 C770 1.387 . S
C771 C773 1.387 . S
H772 C779 0.950 . S
C773 C771 1.387 . S
C773 C775 1.390 . S
C773 H777 0.950 . S
H774 C770 0.950 . S
C775 C773 1.390 . S
C775 C776 1.387 . S
C775 H778 0.950 . S
C776 C775 1.387 . S
C776 C779 1.387 . S
H777 C773 0.950 . S
H778 C775 0.950 . S
C779 C770 1.390 . S
C779 H772 0.950 . S
C779 C776 1.387 . S
C780 C781 1.387 . S
C780 H784 0.950 . S
C780 C789 1.390 . S
C781 C780 1.387 . S
C781 C783 1.387 . S
H782 C789 0.950 . S
C783 C781 1.387 . S
C783 C785 1.390 . S
C783 H787 0.950 . S
H784 C780 0.950 . S
C785 C783 1.390 . S
C785 C786 1.387 . S
C785 H788 0.950 . S
C786 C785 1.387 . S
C786 C789 1.387 . S
H787 C783 0.950 . S
H788 C785 0.950 . S
C789 C780 1.390 . S
C789 H782 0.950 . S
C789 C786 1.387 . S
C790 C791 1.387 . S
C790 H794 0.950 . S
C790 C799 1.390 . S
C791 C790 1.387 . S
C791 C793 1.387 . S
H792 C799 0.950 . S
C793 C791 1.387 . S
C793 C795 1.390 . S
C793 H797 0.950 . S
H794 C790 0.950 . S
C795 C793 1.390 . S
C795 C796 1.387 . S
C795 H798 0.950 . S
C796 C795 1.387 . S
C796 C799 1.387 . S
H797 C793 0.950 . S
H798 C795 0.950 . S
C799 C790 1.390 . S
C799 H792 0.950 . S
C799 C796 1.387 . S
C800 C801 1.387 . S
C800 H804 0.950 . S
C800 C809 1.390 . S
C801 C800 1.387 . S
C801 C803 1.387 . S
H802 C809 0.950 . S
C803 C801 1.387 . S
C803 C805 1.390 . S
C803 H807 0.950 . S
H804 C800 0.950 . S
C805 C803 1.390 . S
C805 C806 1.387 . S
C805 H808 0.950 . S
C806 C805 1.387 . S
C806 C809 1.387 . S
H807 C803 0.950 . S
H808 C805 0.950 . S
C809 C800 1.390 . S
C809 H802 0.950 . S
C809 C806 1.387 . S
C810 C811 1.387 . S
C810 H814 0.950 . S
C810 C819 1.390 . S
C811 C810 1.387 . S
C811 C813 1.387 . S
H812 C819 0.950 . S
C813 C811 1.387 . S
C813 C815 1.390 . S
C813 H817 0.950 . S
H814 C810 0.950 . S
C815 C813 1.390 . S
C815 C816 1.387 . S
C815 H818 0.950 . S
C816 C815 1.387 . S
C816 C819 1.387 . S
H817 C813 0.950 . S
H818 C815 0.950 . S
C819 C810 1.390 . S
C819 H812 0.950 . S
C819 C816 1.387 . S
C820 C821 1.387 . S
C820 H824 0.950 . S
C820 C829 1.390 . S
C821 C820 1.387 . S
C821 C823 1.387 . S
H822 C829 0.950 . S
C823 C821 1.387 . S
C823 C825 1.390 . S
C823 H827 0.950 . S
H824 C820 0.950 . S
C825 C823 1.390 . S
C825 C826 1.387 . S
C825 H828 0.950 . S
C826 C825 1.387 . S
C826 C829 1.387 . S
H827 C823 0.950 . S
H828 C825 0.950 . S
C829 C820 1.390 . S
C829 H822 0.950 . S
C829 C826 1.387 . S
C830 C831 1.387 . S
C830 H834 0.950 . S
C830 C839 1.390 . S
C831 C830 1.387 . S
C831 C833 1.387 . S
H832 C839 0.950 . S
C833 C831 1.387 . S
C833 C835 1.390 . S
C833 H837 0.950 . S
H834 C830 0.950 . S
C835 C833 1.390 . S
C835 C836 1.387 . S
C835 H838 0.950 . S
C836 C835 1.387 . S
C836 C839 1.387 . S
H837 C833 0.950 . S
H838 C835 0.950 . S
C839 C830 1.390 . S
C839 H832 0.950 . S
C839 C836 1.387 . S
C840 C841 1.387 . S
C840 H844 0.950 . S
C840 C849 1.390 . S
C841 C840 1.387 . S
C841 C843 1.387 . S
H842 C849 0.950 . S
C843 C841 1.387 . S
C843 C845 1.390 . S
C843 H847 0.950 . S
H844 C840 0.950 . S
C845 C843 1.390 . S
C845 C846 1.387 . S
C845 H848 0.950 . S
C846 C845 1.387 . S
C846 C849 1.387 . S
H847 C843 0.950 . S
H848 C845 0.950 . S
C849 C840 1.390 . S
C849 H842 0.950 . S
C849 C846 1.387 . S
C850 C851 1.387 . S
C850 H854 0.950 . S
C850 C859 1.390 . S
C851 C850 1.387 . S
C851 C853 1.387 . S
H852 C859 0.950 . S
C853 C851 1.387 . S
C853 C855 1.390 . S
C853 H857 0.950 . S
H854 C850 0.950 . S
C855 C853 1.390 . S
C855 C856 1.387 . S
C855 H858 0.950 . S
C856 C855 1.387 . S
C856 C859 1.387 . S
H857 C853 0.950 . S
H858 C855 0.950 . S
C859 C850 1.390 . S
C859 H852 0.950 . S
C859 C856 1.387 . S
C860 C861 1.387 . S
C860 H864 0.950 . S
C860 C869 1.390 . S
C861 C860 1.387 . S
C861 C863 1.387 . S
H862 C869 0.950 . S
C863 C861 1.387 . S
C863 C865 1.390 . S
C863 H867 0.950 . S
H864 C860 0.950 . S
C865 C863 1.390 . S
C865 C866 1.387 . S
C865 H868 0.950 . S
C866 C865 1.387 . S
C866 C869 1.387 . S
H867 C863 0.950 . S
H868 C865 0.950 . S
C869 C860 1.390 . S
C869 H862 0.950 . S
C869 C866 1.387 . S
C870 C871 1.387 . S
C870 H874 0.950 . S
C870 C879 1.390 . S
C871 C870 1.387 . S
C871 C873 1.387 . S
H872 C879 0.950 . S
C873 C871 1.387 . S
C873 C875 1.390 . S
C873 H877 0.950 . S
H874 C870 0.950 . S
C875 C873 1.390 . S
C875 C876 1.387 . S
C875 H878 0.950 . S
C876 C875 1.387 . S
C876 C879 1.387 . S
H877 C873 0.950 . S
H878 C875 0.950 . S
C879 C870 1.390 . S
C879 H872 0.950 . S
C879 C876 1.387 . S
C880 C881 1.387 . S
C880 H884 0.950 . S
C880 C889 1.390 . S
C881 C880 1.387 . S
C881 C883 1.387 . S
H882 C889 0.950 . S
C883 C881 1.387 . S
C883 C885 1.390 . S
C883 H887 0.950 . S
H884 C880 0.950 . S
C885 C883 1.390 . S
C885 C886 1.387 . S
C885 H888 0.950 . S
C886 C885 1.387 . S
C886 C889 1.387 . S
H887 C883 0.950 . S
H888 C885 0.950 . S
C889 C880 1.390 . S
C889 H882 0.950 . S
C889 C886 1.387 . S
C890 C891 1.387 . S
C890 H894 0.950 . S
C890 C899 1.390 . S
C891 C890 1.387 . S
C891 C893 1.387 . S
H892 C899 0.950 . S
C893 C891 1.387 . S
C893 C895 1.390 . S
C893 H897 0.950 . S
H894 C890 0.950 . S
C895 C893 1.390 . S
C895 C896 1.387 . S
C895 H898 0.950 . S
C896 C895 1.387 . S
C896 C899 1.387 . S
H897 C893 0.950 . S
H898 C895 0.950 . S
C899 C890 1.390 . S
C899 H892 0.950 . S
C899 C896 1.387 . S
C900 C901 1.387 . S
C900 H904 0.950 . S
C900 C909 1.390 . S
C901 C900 1.387 . S
C901 C903 1.387 . S
H902 C909 0.950 . S
C903 C901 1.387 . S
C903 C905 1.390 . S
C903 H907 0.950 . S
H904 C900 0.950 . S
C905 C903 1.390 . S
C905 C906 1.387 . S
C905 H908 0.950 . S
C906 C905 1.387 . S
C906 C909 1.387 . S
H907 C903 0.950 . S
H908 C905 0.950 . S
C909 C900 1.390 . S
C909 H902 0.950 . S
C909 C906 1.387 . S
C910 C911 1.387 . S
C910 H914 0.950 . S
C910 C919 1.390 . S
C911 C910 1.387 . S
C911 C913 1.387 . S
H912 C919 0.950 . S
C913 C911 1.387 . S
C913 C915 1.390 . S
C913 H917 0.950 . S
H914 C910 0.950 . S
C915 C913 1.390 . S
C915 C916 1.387 . S
C915 H918 0.950 . S
C916 C915 1.387 . S
C916 C919 1.387 . S
H917 C913 0.950 . S
H918 C915 0.950 . S
C919 C910 1.390 . S
C919 H912 0.950 . S
C919 C916 1.387 . S
C920 C921 1.387 . S
C920 H924 0.950 . S
C920 C929 1.390 . S
C921 C920 1.387 . S
C921 C923 1.387 . S
H922 C929 0.950 . S
C923 C921 1.387 . S
C923 C925 1.390 . S
C923 H927 0.950 . S
H924 C920 0.950 . S
C925 C923 1.390 . S
C925 C926 1.387 . S
C925 H928 0.950 . S
C926 C925 1.387 . S
C926 C929 1.387 . S
H927 C923 0.950 . S
H928 C925 0.950 . S
C929 C920 1.390 . S
C929 H922 0.950 . S
C929 C926 1.387 . S
C930 C931 1.387 . S
C930 H934 0.950 . S
C930 C939 1.390 . S
C931 C930 1.387 . S
C931 C933 1.387 . S
H932 C939 0.950 . S
C933 C931 1.387 . S
C933 C935 1.390 . S
C933 H937 0.950 . S
H934 C930 0.950 . S
C935 C933 1.390 . S
C935 C936 1.387 . S
C935 H938 0.950 . S
C936 C935 1.387 . S
C936 C939 1.387 . S
H937 C933 0.950 . S
H938 C935 0.950 . S
C939 C930 1.390 . S
C939 H932 0.950 . S
C939 C936 1.387 . S
C940 C941 1.387 . S
C940 H944 0.950 . S
C940 C949 1.390 . S
C941 C940 1.387 . S
C941 C943 1.387 . S
H942 C949 0.950 . S
C943 C941 1.387 . S
C943 C945 1.390 . S
C943 H947 0.950 . S
H944 C940 0.950 . S
C945 C943 1.390 . S
C945 C946 1.387 . S
C945 H948 0.950 . S
C946 C945 1.387 . S
C946 C949 1.387 . S
H947 C943 0.950 . S
H948 C945 0.950 . S
C949 C940 1.390 . S
C949 H942 0.950 . S
C949 C946 1.387 . S
C950 C951 1.387 . S
C950 H954 0.950 . S
C950 C959 1.390 . S
C951 C950 1.387 . S
C951 C953 1.387 . S
H952 C959 0.950 . S
C953 C951 1.387 . S
C953 C955 1.390 . S
C953 H957 0.950 . S
H954 C950 0.950 . S
C955 C953 1.390 . S
C955 C956 1.387 . S
C955 H958 0.950 . S
C956 C955 1.387 . S
C956 C959 1.387 . S
H957 C953 0.950 . S
H958 C955 0.950 . S
C959 C950 1.390 . S
C959 H952 0.950 . S
C959 C956 1.387 . S
C960 C961 1.387 . S
C960 H964 0.950 . S
C960 C969 1.390 . S
C961 C960 1.387 . S
C961 C963 1.387 . S
H962 C969 0.950 . S
C963 C961 1.387 . S
C963 C965 1.390 . S
C963 H967 0.950 . S
H964 C960 0.950 . S
C965 C963 1.390 . S
C965 C966 1.387 . S
C965 H968 0.950 . S
C966 C965 1.387 . S
C966 C969 1.387 . S
H967 C963 0.950 . S
H968 C965 0.950 . S
C969 C960 1.390 . S
C969 H962 0.950 . S
C969 C966 1.387 . S
C970 C971 1.387 . S
C970 H974 0.950 . S
C970 C979 1.390 . S
C971 C970 1.387 . S
C971 C973 1.387 . S
H972 C979 0.950 . S
C973 C971 1.387 . S
C973 C975 1.390 . S
C973 H977 0.950 . S
H974 C970 0.950 . S
C975 C973 1.390 . S
C975 C976 1.387 . S
C975 H978 0.950 . S
C976 C975 1.387 . S
C976 C979 1.387 . S
H977 C973 0.950 . S
H978 C975 0.950 . S
C979 C970 1.390 . S
C979 H972 0.950 . S
C979 C976 1.387 . S
C980 C981 1.387 . S
C980 H984 0.950 . S
C980 C989 1.390 . S
C981 C980 1.387 . S
C981 C983 1.387 . S
H982 C989 0.950 . S
C983 C981 1.387 . S
C983 C985 1.390 . S
C983 H987 0.950 . S
H984 C980 0.950 . S
C985 C983 1.390 . S
C985 C986 1.387 . S
C985 H988 0.950 . S
C986 C985 1.387 . S
C986 C989 1.387 . S
H987 C983 0.950 . S
H988 C985 0.950 . S
C989 C980 1.390 . S
C989 H982 0.950 . S
C989 C986 1.387 . S
C990 C991 1.387 . S
C990 H994 0.950 . S
C990 C999 1.390 . S
C991 C990 1.387 . S
C991 C993 1.387 . S
H992 C999 0.950 . S
C993 C991 1.387 . S
C993 C995 1.390 . S
C993 H997 0.950 . S
H994 C990 0.950 . S
C995 C993 1.390 . S
C995 C996 1.387 . S
C995 H998 0.950 . S
C996 C995 1.387 . S
C996 C999 1.387 . S
H997 C993 0.950 . S
H998 C995 0.950 . S
C999 C990 1.390 . S
C999 H992 0.950 . S
C999 C996 1.387 . S
C1000 C1001 1.387 . S
C1000 H1004 0.950 . S
C1000 C1009 1.390 . S
C1001 C1000 1.387 . S
C1001 C1003 1.387 . S
H1002 C1009 0.950 . S
C1003 C1001 1.387 . S
C1003 C1005 1.390 . S
C1003 H1007 0.950 . S
H1004 C1000 0.950 . S
C1005 C1003 1.390 . S
C1005 C1006 1.387 . S
C1005 H1008 0.950 . S
C1006 C1005 1.387 . S
C1006 C1009 1.387 . S
H1007 C1003 0.950 . S
H1008 C1005 0.950 . S
C1009 C1000 1.390 . S
C1009 H1002 0.950 . S
C1009 C1006 1.387 . S
C1010 C1011 1.387 . S
C1010 H1014 0.950 1_554 S
C1010 C1019 1.390 . S
C1011 C1010 1.387 . S
C1011 C1013 1.387 . S
H1012 C1019 0.950 . S
C1013 C1011 1.387 . S
C1013 C1015 1.390 . S
C1013 H1017 0.950 . S
H1014 C1010 0.950 1_556 S
C1015 C1013 1.390 . S
C1015 C1016 1.387 . S
C1015 H1018 0.950 . S
C1016 C1015 1.387 . S
C1016 C1019 1.387 . S
H1017 C1013 0.950 . S
H1018 C1015 0.950 . S
C1019 C1010 1.390 . S
C1019 H1012 0.950 . S
C1019 C1016 1.387 . S
C1020 C1021 1.387 . S
C1020 H1024 0.950 . S
C1020 C1029 1.390 . S
C1021 C1020 1.387 . S
C1021 C1023 1.387 . S
H1022 C1029 0.950 . S
C1023 C1021 1.387 . S
C1023 C1025 1.390 . S
C1023 H1027 0.950 1_556 S
H1024 C1020 0.950 . S
C1025 C1023 1.390 . S
C1025 C1026 1.387 . S
C1025 H1028 0.950 . S
C1026 C1025 1.387 . S
C1026 C1029 1.387 . S
H1027 C1023 0.950 1_554 S
H1028 C1025 0.950 . S
C1029 C1020 1.390 . S
C1029 H1022 0.950 . S
C1029 C1026 1.387 . S
C1030 C1031 1.387 1_554 S
C1030 H1034 0.950 . S
C1030 C1039 1.390 1_554 S
C1031 C1030 1.387 1_556 S
C1031 C1033 1.387 . S
H1032 C1039 0.950 1_554 S
C1033 C1031 1.387 . S
C1033 C1035 1.390 . S
C1033 H1037 0.950 . S
H1034 C1030 0.950 . S
C1035 C1033 1.390 . S
C1035 C1036 1.387 . S
C1035 H1038 0.950 . S
C1036 C1035 1.387 . S
C1036 C1039 1.387 . S
H1037 C1033 0.950 . S
H1038 C1035 0.950 . S
C1039 C1030 1.390 1_556 S
C1039 H1032 0.950 1_556 S
C1039 C1036 1.387 . S
C1040 C1041 1.387 . S
C1040 H1044 0.950 . S
C1040 C1049 1.390 . S
C1041 C1040 1.387 . S
C1041 C1043 1.387 . S
H1042 C1049 0.950 . S
C1043 C1041 1.387 . S
C1043 C1045 1.390 . S
C1043 H1047 0.950 . S
H1044 C1040 0.950 . S
C1045 C1043 1.390 . S
C1045 C1046 1.387 . S
C1045 H1048 0.950 . S
C1046 C1045 1.387 . S
C1046 C1049 1.387 . S
H1047 C1043 0.950 . S
H1048 C1045 0.950 . S
C1049 C1040 1.390 . S
C1049 H1042 0.950 . S
C1049 C1046 1.387 . S
C1050 C1051 1.387 . S
C1050 H1054 0.950 1_556 S
C1050 C1059 1.390 . S
C1051 C1050 1.387 . S
C1051 C1053 1.387 . S
H1052 C1059 0.950 . S
C1053 C1051 1.387 . S
C1053 C1055 1.390 . S
C1053 H1057 0.950 . S
H1054 C1050 0.950 1_554 S
C1055 C1053 1.390 . S
C1055 C1056 1.387 . S
C1055 H1058 0.950 . S
C1056 C1055 1.387 . S
C1056 C1059 1.387 . S
H1057 C1053 0.950 . S
H1058 C1055 0.950 . S
C1059 C1050 1.390 . S
C1059 H1052 0.950 . S
C1059 C1056 1.387 . S
C1060 C1061 1.387 . S
C1060 H1064 0.950 . S
C1060 C1069 1.390 . S
C1061 C1060 1.387 . S
C1061 C1063 1.387 1_556 S
H1062 C1069 0.950 . S
C1063 C1061 1.387 1_554 S
C1063 C1065 1.390 1_554 S
C1063 H1067 0.950 . S
H1064 C1060 0.950 . S
C1065 C1063 1.390 1_556 S
C1065 C1066 1.387 . S
C1065 H1068 0.936 1_556 S
C1066 C1065 1.387 . S
C1066 C1069 1.387 . S
H1067 C1063 0.950 . S
H1068 C1065 0.936 1_554 S
C1069 C1060 1.390 . S
C1069 H1062 0.950 . S
C1069 C1066 1.387 . S
C1070 C1071 1.387 . S
C1070 H1074 0.950 . S
C1070 C1079 1.390 . S
C1071 C1070 1.387 . S
C1071 C1073 1.387 . S
H1072 C1079 0.950 . S
C1073 C1071 1.387 . S
C1073 C1075 1.390 . S
C1073 H1077 0.950 1_556 S
H1074 C1070 0.950 . S
C1075 C1073 1.390 . S
C1075 C1076 1.387 . S
C1075 H1078 0.950 . S
C1076 C1075 1.387 . S
C1076 C1079 1.387 . S
H1077 C1073 0.950 1_554 S
H1078 C1075 0.950 . S
C1079 C1070 1.390 . S
C1079 H1072 0.950 . S
C1079 C1076 1.387 . S
C1080 C1081 1.387 . S
C1080 H1084 0.950 1_554 S
C1080 C1089 1.390 . S
C1081 C1080 1.387 . S
C1081 C1083 1.387 . S
H1082 C1089 0.950 . S
C1083 C1081 1.387 . S
C1083 C1085 1.390 . S
C1083 H1087 0.950 . S
H1084 C1080 0.950 1_556 S
C1085 C1083 1.390 . S
C1085 C1086 1.387 . S
C1085 H1088 0.950 . S
C1086 C1085 1.387 . S
C1086 C1089 1.387 . S
H1087 C1083 0.950 . S
H1088 C1085 0.950 . S
C1089 C1080 1.390 . S
C1089 H1082 0.950 . S
C1089 C1086 1.387 . S
C1090 C1091 1.387 . S
C1090 H1094 0.950 . S
C1090 C1099 1.390 . S
C1091 C1090 1.387 . S
C1091 C1093 1.387 . S
H1092 C1099 0.950 . S
C1093 C1091 1.387 . S
C1093 C1095 1.390 . S
C1093 H1097 0.950 . S
H1094 C1090 0.950 . S
C1095 C1093 1.390 . S
C1095 C1096 1.387 . S
C1095 H1098 0.950 . S
C1096 C1095 1.387 . S
C1096 C1099 1.387 . S
H1097 C1093 0.950 . S
H1098 C1095 0.950 . S
C1099 C1090 1.390 . S
C1099 H1092 0.950 . S
C1099 C1096 1.387 . S
C1100 C1101 1.387 . S
C1100 H1104 0.950 . S
C1100 C1109 1.390 . S
C1101 C1100 1.387 . S
C1101 C1103 1.387 . S
H1102 C1109 0.950 . S
C1103 C1101 1.387 . S
C1103 C1105 1.390 . S
C1103 H1107 0.950 . S
H1104 C1100 0.950 . S
C1105 C1103 1.390 . S
C1105 C1106 1.387 . S
C1105 H1108 0.950 . S
C1106 C1105 1.387 . S
C1106 C1109 1.387 . S
H1107 C1103 0.950 . S
H1108 C1105 0.950 . S
C1109 C1100 1.390 . S
C1109 H1102 0.950 . S
C1109 C1106 1.387 . S
C1110 C1111 1.387 . S
C1110 H1114 0.950 . S
C1110 C1119 1.390 . S
C1111 C1110 1.387 . S
C1111 C1113 1.387 . S
H1112 C1119 0.950 . S
C1113 C1111 1.387 . S
C1113 C1115 1.390 . S
C1113 H1117 0.950 . S
H1114 C1110 0.950 . S
C1115 C1113 1.390 . S
C1115 C1116 1.387 . S
C1115 H1118 0.950 . S
C1116 C1115 1.387 . S
C1116 C1119 1.387 . S
H1117 C1113 0.950 . S
H1118 C1115 0.950 . S
C1119 C1110 1.390 . S
C1119 H1112 0.950 . S
C1119 C1116 1.387 . S
C1120 C1121 1.387 . S
C1120 H1124 0.950 . S
C1120 C1129 1.390 . S
C1121 C1120 1.387 . S
C1121 C1123 1.387 . S
H1122 C1129 0.950 . S
C1123 C1121 1.387 . S
C1123 C1125 1.390 . S
C1123 H1127 0.950 . S
H1124 C1120 0.950 . S
C1125 C1123 1.390 . S
C1125 C1126 1.387 . S
C1125 H1128 0.950 . S
C1126 C1125 1.387 . S
C1126 C1129 1.387 . S
H1127 C1123 0.950 . S
H1128 C1125 0.950 . S
C1129 C1120 1.390 . S
C1129 H1122 0.950 . S
C1129 C1126 1.387 . S
C1130 C1131 1.387 . S
C1130 H1134 0.950 . S
C1130 C1139 1.390 . S
C1131 C1130 1.387 . S
C1131 C1133 1.387 . S
H1132 C1139 0.950 . S
C1133 C1131 1.387 . S
C1133 C1135 1.390 . S
C1133 H1137 0.950 . S
H1134 C1130 0.950 . S
C1135 C1133 1.390 . S
C1135 C1136 1.387 . S
C1135 H1138 0.950 . S
C1136 C1135 1.387 . S
C1136 C1139 1.387 . S
H1137 C1133 0.950 . S
H1138 C1135 0.950 . S
C1139 C1130 1.390 . S
C1139 H1132 0.950 . S
C1139 C1136 1.387 . S
C1140 C1141 1.387 . S
C1140 H1144 0.950 . S
C1140 C1149 1.390 . S
C1141 C1140 1.387 . S
C1141 C1143 1.387 . S
H1142 C1149 0.950 . S
C1143 C1141 1.387 . S
C1143 C1145 1.390 . S
C1143 H1147 0.950 . S
H1144 C1140 0.950 . S
C1145 C1143 1.390 . S
C1145 C1146 1.387 . S
C1145 H1148 0.950 . S
C1146 C1145 1.387 . S
C1146 C1149 1.387 . S
H1147 C1143 0.950 . S
H1148 C1145 0.950 . S
C1149 C1140 1.390 . S
C1149 H1142 0.950 . S
C1149 C1146 1.387 . S
C1150 C1151 1.387 . S
C1150 H1154 0.950 . S
C1150 C1159 1.390 . S
C1151 C1150 1.387 . S
C1151 C1153 1.387 . S
H1152 C1159 0.950 . S
C1153 C1151 1.387 . S
C1153 C1155 1.390 . S
C1153 H1157 0.950 . S
H1154 C1150 0.950 . S
C1155 C1153 1.390 . S
C1155 C1156 1.387 . S
C1155 H1158 0.950 . S
C1156 C1155 1.387 . S
C1156 C1159 1.387 . S
H1157 C1153 0.950 . S
H1158 C1155 0.950 . S
C1159 C1150 1.390 . S
C1159 H1152 0.950 . S
C1159 C1156 1.387 . S
C1160 C1161 1.387 1_545 S
C1160 H1164 0.950 . S
C1160 C1169 1.390 . S
C1161 C1160 1.387 1_565 S
C1161 C1163 1.387 . S
H1162 C1169 0.950 . S
C1163 C1161 1.387 . S
C1163 C1165 1.390 . S
C1163 H1167 0.950 . S
H1164 C1160 0.950 . S
C1165 C1163 1.390 . S
C1165 C1166 1.387 . S
C1165 H1168 0.950 . S
C1166 C1165 1.387 . S
C1166 C1169 1.387 1_565 S
H1167 C1163 0.950 . S
H1168 C1165 0.950 . S
C1169 C1160 1.390 . S
C1169 H1162 0.950 . S
C1169 C1166 1.387 1_545 S
C1170 C1171 1.387 . S
C1170 H1174 0.950 . S
C1170 C1179 1.390 . S
C1171 C1170 1.387 . S
C1171 C1173 1.387 1_565 S
H1172 C1179 0.950 . S
C1173 C1171 1.387 1_545 S
C1173 C1175 1.390 . S
C1173 H1177 0.950 . S
H1174 C1170 0.950 . S
C1175 C1173 1.390 . S
C1175 C1176 1.387 1_545 S
C1175 H1178 0.950 . S
C1176 C1175 1.387 1_565 S
C1176 C1179 1.387 . S
H1177 C1173 0.950 . S
H1178 C1175 0.950 . S
C1179 C1170 1.390 . S
C1179 H1172 0.950 . S
C1179 C1176 1.387 . S
C1180 C1181 1.387 1_655 S
C1180 H1184 0.950 . S
C1180 C1189 1.390 . S
C1181 C1180 1.387 1_455 S
C1181 C1183 1.387 . S
H1182 C1189 0.950 . S
C1183 C1181 1.387 . S
C1183 C1185 1.390 . S
C1183 H1187 0.950 . S
H1184 C1180 0.950 . S
C1185 C1183 1.390 . S
C1185 C1186 1.387 . S
C1185 H1188 0.950 . S
C1186 C1185 1.387 . S
C1186 C1189 1.387 1_455 S
H1187 C1183 0.950 . S
H1188 C1185 0.950 . S
C1189 C1180 1.390 . S
C1189 H1182 0.950 . S
C1189 C1186 1.387 1_655 S
C1190 C1191 1.387 . S
C1190 H1194 0.950 . S
C1190 C1199 1.390 . S
C1191 C1190 1.387 . S
C1191 C1193 1.387 . S
H1192 C1199 0.950 . S
C1193 C1191 1.387 . S
C1193 C1195 1.390 . S
C1193 H1197 0.950 . S
H1194 C1190 0.950 . S
C1195 C1193 1.390 . S
C1195 C1196 1.387 . S
C1195 H1198 0.950 . S
C1196 C1195 1.387 . S
C1196 C1199 1.387 . S
H1197 C1193 0.950 . S
H1198 C1195 0.950 . S
C1199 C1190 1.390 . S
C1199 H1192 0.950 . S
C1199 C1196 1.387 . S
C1200 C1201 1.387 . S
C1200 H1204 0.950 . S
C1200 C1209 1.390 . S
C1201 C1200 1.387 . S
C1201 C1203 1.387 . S
H1202 C1209 0.950 . S
C1203 C1201 1.387 . S
C1203 C1205 1.390 . S
C1203 H1207 0.950 . S
H1204 C1200 0.950 . S
C1205 C1203 1.390 . S
C1205 C1206 1.387 . S
C1205 H1208 0.950 . S
C1206 C1205 1.387 . S
C1206 C1209 1.387 . S
H1207 C1203 0.950 . S
H1208 C1205 0.950 . S
C1209 C1200 1.390 . S
C1209 H1202 0.950 . S
C1209 C1206 1.387 . S
C1210 C1211 1.387 . S
C1210 H1214 0.950 . S
C1210 C1219 1.390 . S
C1211 C1210 1.387 . S
C1211 C1213 1.387 . S
H1212 C1219 0.950 . S
C1213 C1211 1.387 . S
C1213 C1215 1.390 . S
C1213 H1217 0.950 . S
H1214 C1210 0.950 . S
C1215 C1213 1.390 . S
C1215 C1216 1.387 . S
C1215 H1218 0.950 . S
C1216 C1215 1.387 . S
C1216 C1219 1.387 . S
H1217 C1213 0.950 . S
H1218 C1215 0.950 . S
C1219 C1210 1.390 . S
C1219 H1212 0.950 . S
C1219 C1216 1.387 . S
C1220 C1221 1.387 . S
C1220 H1224 0.950 . S
C1220 C1229 1.390 . S
C1221 C1220 1.387 . S
C1221 C1223 1.387 . S
H1222 C1229 0.950 . S
C1223 C1221 1.387 . S
C1223 C1225 1.390 . S
C1223 H1227 0.950 . S
H1224 C1220 0.950 . S
C1225 C1223 1.390 . S
C1225 C1226 1.387 . S
C1225 H1228 0.950 . S
C1226 C1225 1.387 . S
C1226 C1229 1.387 . S
H1227 C1223 0.950 . S
H1228 C1225 0.950 . S
C1229 C1220 1.390 . S
C1229 H1222 0.950 . S
C1229 C1226 1.387 . S
C1230 C1231 1.387 1_565 S
C1230 H1234 0.950 . S
C1230 C1239 1.390 . S
C1231 C1230 1.387 1_545 S
C1231 C1233 1.387 . S
H1232 C1239 0.950 . S
C1233 C1231 1.387 . S
C1233 C1235 1.390 . S
C1233 H1237 0.950 . S
H1234 C1230 0.950 . S
C1235 C1233 1.390 . S
C1235 C1236 1.387 . S
C1235 H1238 0.950 . S
C1236 C1235 1.387 . S
C1236 C1239 1.387 1_545 S
H1237 C1233 0.950 . S
H1238 C1235 0.950 . S
C1239 C1230 1.390 . S
C1239 H1232 0.950 . S
C1239 C1236 1.387 1_565 S
C1240 C1241 1.387 . S
C1240 H1244 0.950 . S
C1240 C1249 1.390 . S
C1241 C1240 1.387 . S
C1241 C1243 1.385 . S
H1242 C1249 0.950 . S
C1243 C1241 1.385 . S
C1243 C1245 1.405 1_655 S
C1243 H1247 0.938 1_655 S
H1244 C1240 0.950 . S
C1245 C1243 1.405 1_455 S
C1245 C1246 1.387 1_455 S
C1245 H1248 0.950 . S
C1246 C1245 1.387 1_655 S
C1246 C1249 1.387 . S
H1247 C1243 0.938 1_455 S
H1248 C1245 0.950 . S
C1249 C1240 1.390 . S
C1249 H1242 0.950 . S
C1249 C1246 1.387 . S
C1250 C1251 1.387 . S
C1250 H1254 0.950 . S
C1250 C1259 1.390 . S
C1251 C1250 1.387 . S
C1251 C1253 1.387 . S
H1252 C1259 0.950 . S
C1253 C1251 1.387 . S
C1253 C1255 1.390 . S
C1253 H1257 0.950 . S
H1254 C1250 0.950 . S
C1255 C1253 1.390 . S
C1255 C1256 1.387 . S
C1255 H1258 0.950 . S
C1256 C1255 1.387 . S
C1256 C1259 1.387 . S
H1257 C1253 0.950 . S
H1258 C1255 0.950 . S
C1259 C1250 1.390 . S
C1259 H1252 0.950 . S
C1259 C1256 1.387 . S
C1260 C1261 1.387 . S
C1260 H1264 0.950 . S
C1260 C1269 1.390 . S
C1261 C1260 1.387 . S
C1261 C1263 1.387 . S
H1262 C1269 0.950 . S
C1263 C1261 1.387 . S
C1263 C1265 1.390 . S
C1263 H1267 0.950 . S
H1264 C1260 0.950 . S
C1265 C1263 1.390 . S
C1265 C1266 1.387 . S
C1265 H1268 0.950 . S
C1266 C1265 1.387 . S
C1266 C1269 1.387 . S
H1267 C1263 0.950 . S
H1268 C1265 0.950 . S
C1269 C1260 1.390 . S
C1269 H1262 0.950 . S
C1269 C1266 1.387 . S
C1270 C1271 1.387 . S
C1270 H1274 0.950 . S
C1270 C1279 1.390 . S
C1271 C1270 1.387 . S
C1271 C1273 1.387 . S
H1272 C1279 0.950 . S
C1273 C1271 1.387 . S
C1273 C1275 1.390 . S
C1273 H1277 0.950 . S
H1274 C1270 0.950 . S
C1275 C1273 1.390 . S
C1275 C1276 1.387 . S
C1275 H1278 0.950 . S
C1276 C1275 1.387 . S
C1276 C1279 1.387 . S
H1277 C1273 0.950 . S
H1278 C1275 0.950 . S
C1279 C1270 1.390 . S
C1279 H1272 0.950 . S
C1279 C1276 1.387 . S
C1280 C1281 1.387 . S
C1280 H1284 0.950 . S
C1280 C1289 1.390 . S
C1281 C1280 1.387 . S
C1281 C1283 1.387 . S
H1282 C1289 0.950 . S
C1283 C1281 1.387 . S
C1283 C1285 1.390 . S
C1283 H1287 0.950 . S
H1284 C1280 0.950 . S
C1285 C1283 1.390 . S
C1285 C1286 1.387 . S
C1285 H1288 0.950 . S
C1286 C1285 1.387 . S
C1286 C1289 1.387 . S
H1287 C1283 0.950 . S
H1288 C1285 0.950 . S
C1289 C1280 1.390 . S
C1289 H1282 0.950 . S
C1289 C1286 1.387 . S
C1290 C1291 1.387 . S
C1290 H1294 0.950 . S
C1290 C1299 1.390 . S
C1291 C1290 1.387 . S
C1291 C1293 1.387 . S
H1292 C1299 0.950 . S
C1293 C1291 1.387 . S
C1293 C1295 1.390 . S
C1293 H1297 0.950 . S
H1294 C1290 0.950 . S
C1295 C1293 1.390 . S
C1295 C1296 1.387 . S
C1295 H1298 0.950 . S
C1296 C1295 1.387 . S
C1296 C1299 1.387 . S
H1297 C1293 0.950 . S
H1298 C1295 0.950 . S
C1299 C1290 1.390 . S
C1299 H1292 0.950 . S
C1299 C1296 1.387 . S
C1300 C1301 1.387 . S
C1300 H1304 0.950 . S
C1300 C1309 1.390 . S
C1301 C1300 1.387 . S
C1301 C1303 1.387 . S
H1302 C1309 0.950 . S
C1303 C1301 1.387 . S
C1303 C1305 1.390 . S
C1303 H1307 0.950 . S
H1304 C1300 0.950 . S
C1305 C1303 1.390 . S
C1305 C1306 1.387 . S
C1305 H1308 0.950 . S
C1306 C1305 1.387 . S
C1306 C1309 1.387 . S
H1307 C1303 0.950 . S
H1308 C1305 0.950 . S
C1309 C1300 1.390 . S
C1309 H1302 0.950 . S
C1309 C1306 1.387 . S
C1310 C1311 1.387 . S
C1310 H1314 0.950 . S
C1310 C1319 1.390 . S
C1311 C1310 1.387 . S
C1311 C1313 1.387 . S
H1312 C1319 0.950 . S
C1313 C1311 1.387 . S
C1313 C1315 1.390 . S
C1313 H1317 0.950 . S
H1314 C1310 0.950 . S
C1315 C1313 1.390 . S
C1315 C1316 1.387 . S
C1315 H1318 0.950 . S
C1316 C1315 1.387 . S
C1316 C1319 1.387 . S
H1317 C1313 0.950 . S
H1318 C1315 0.950 . S
C1319 C1310 1.390 . S
C1319 H1312 0.950 . S
C1319 C1316 1.387 . S
C1320 C1321 1.387 . S
C1320 H1324 0.950 . S
C1320 C1329 1.390 . S
C1321 C1320 1.387 . S
C1321 C1323 1.403 . S
H1322 C1329 0.950 . S
C1323 C1321 1.403 . S
C1323 C1325 1.368 1_655 S
C1323 H1327 0.957 1_655 S
H1324 C1320 0.950 . S
C1325 C1323 1.368 1_455 S
C1325 C1326 1.387 1_455 S
C1325 H1328 0.950 . S
C1326 C1325 1.387 1_655 S
C1326 C1329 1.387 . S
H1327 C1323 0.957 1_455 S
H1328 C1325 0.950 . S
C1329 C1320 1.390 . S
C1329 H1322 0.950 . S
C1329 C1326 1.387 . S
C1330 C1331 1.387 . S
C1330 H1334 0.950 . S
C1330 C1339 1.390 . S
C1331 C1330 1.387 . S
C1331 C1333 1.387 . S
H1332 C1339 0.950 . S
C1333 C1331 1.387 . S
C1333 C1335 1.390 . S
C1333 H1337 0.950 . S
H1334 C1330 0.950 . S
C1335 C1333 1.390 . S
C1335 C1336 1.387 . S
C1335 H1338 0.950 . S
C1336 C1335 1.387 . S
C1336 C1339 1.387 . S
H1337 C1333 0.950 . S
H1338 C1335 0.950 . S
C1339 C1330 1.390 . S
C1339 H1332 0.950 . S
C1339 C1336 1.387 . S
C1340 C1341 1.387 . S
C1340 H1344 0.950 . S
C1340 C1349 1.390 . S
C1341 C1340 1.387 . S
C1341 C1343 1.387 1_545 S
H1342 C1349 0.950 . S
C1343 C1341 1.387 1_565 S
C1343 C1345 1.390 . S
C1343 H1347 0.950 . S
H1344 C1340 0.950 . S
C1345 C1343 1.390 . S
C1345 C1346 1.387 1_565 S
C1345 H1348 0.950 . S
C1346 C1345 1.387 1_545 S
C1346 C1349 1.387 . S
H1347 C1343 0.950 . S
H1348 C1345 0.950 . S
C1349 C1340 1.390 . S
C1349 H1342 0.950 . S
C1349 C1346 1.387 . S
C631 C13 1.499 . S
C636 C458 1.535 1_655 S
C641 C27 1.421 . S
C646 C471 1.455 . S
C656 C500 1.520 1_545 S
C651 C36 1.470 . S
C661 C41 1.465 . S
C666 C513 1.506 . S
C671 C8 1.551 . S
C676 C534 1.611 . S
C681 C22 1.463 . S
C686 C563 1.502 . S
C691 C55 1.511 . S
C696 C542 1.520 . S
C706 C555 1.459 . S
C701 C69 1.428 . S
C716 C521 1.522 . S
C711 C78 1.470 . S
C721 C83 1.479 . S
C726 C492 1.514 1_545 S
C736 C450 1.604 1_655 S
C731 C50 1.547 . S
C741 C64 1.454 . S
C746 C479 1.504 . S
C751 C97 1.507 . S
C756 C584 1.533 . S
C761 C111 1.426 . S
C766 C597 1.477 . S
C776 C626 1.521 . S
C771 C120 1.512 . S
C781 C125 1.472 . S
C786 C261 1.533 . S
C791 C92 1.611 . S
C796 C282 1.663 . S
C801 C106 1.485 . S
C806 C311 1.513 . S
C811 C139 1.495 . S
C816 C290 1.545 . S
C821 C153 1.438 . S
C826 C303 1.465 . S
C836 C269 1.546 . S
C831 C162 1.496 . S
C846 C618 1.516 . S
C841 C167 1.478 . S
C856 C576 1.598 . S
C851 C134 1.585 . S
C866 C605 1.524 . S
C861 C148 1.478 . S
C871 C181 1.500 . S
C876 C332 1.522 . S
C881 C195 1.433 . S
C886 C345 1.469 . S
C891 C204 1.516 . S
C896 C374 1.529 . S
C901 C209 1.480 . S
C906 C387 1.548 . S
C916 C408 1.666 . S
C911 C176 1.615 . S
C926 C437 1.513 . S
C921 C190 1.492 . S
C936 C416 1.564 . S
C931 C223 1.505 . S
C946 C429 1.469 . S
C941 C237 1.435 . S
C951 C246 1.495 . S
C956 C395 1.541 . S
C966 C366 1.505 . S
C961 C251 1.472 . S
C971 C218 1.587 . S
C976 C324 1.601 . S
C986 C353 1.526 . S
C981 C232 1.476 . S
C996 C264 1.354 . S
C991 C11 1.438 . S
C1001 C25 1.343 . S
C1006 C285 1.275 . S
C1016 C313 1.305 . S
C1011 C35 1.416 . S
C1026 C334 1.304 . S
C1021 C39 1.412 . S
C1036 C348 1.380 . S
C1031 C7 1.498 . S
C1046 C376 1.288 . S
C1041 C21 1.410 . S
C1051 C53 1.460 . S
C1056 C369 1.304 . S
C1061 C67 1.362 . S
C1066 C327 1.218 . S
C1071 C77 1.428 . S
C1076 C355 1.352 . S
C1081 C81 1.445 . S
C1086 C292 1.387 . S
C1096 C306 1.327 . S
C1091 C49 1.515 . S
C1101 C63 1.437 . S
C1106 C271 1.353 . S
C1116 C390 1.329 . S
C1111 C95 1.431 . S
C1121 C109 1.368 . S
C1126 C411 1.294 . S
C1131 C119 1.445 . S
C1136 C439 1.330 . S
C1146 C460 1.266 . S
C1141 C123 1.366 . S
C1151 C91 1.487 . S
C1156 C474 1.363 . S
C1161 C105 1.371 . S
C1166 C502 1.281 . S
C1171 C137 1.415 . S
C1176 C495 1.269 . S
C1181 C151 1.314 . S
C1186 C453 1.197 . S
C1196 C481 1.346 . S
C1191 C161 1.430 . S
C1201 C165 1.438 . S
C1206 C418 1.374 . S
C1211 C133 1.527 . S
C1216 C432 1.337 . S
C1226 C397 1.381 . S
C1221 C147 1.463 . S
C1236 C516 1.269 1_545 S
C1231 C179 1.411 . S
C1241 C193 1.306 . S
C1246 C537 1.207 1_655 S
C1251 C203 1.411 . S
C1256 C565 1.303 . S
C1266 C586 1.291 . S
C1261 C207 1.410 . S
C1276 C600 1.379 . S
C1271 C175 1.508 . S
C1281 C189 1.441 . S
C1286 C628 1.319 . S
C1291 C221 1.451 . S
C1296 C621 1.282 . S
C1301 C235 1.387 . S
C1306 C579 1.236 . S
C1316 C607 1.372 . S
C1311 C245 1.458 . S
C1326 C544 1.288 1_655 S
C1321 C249 1.369 . S
C1336 C558 1.323 . S
C1331 C217 1.505 . S
C1341 C231 1.394 . S
C1346 C523 1.315 1_545 S
