# Generated by pormake.
# Topology nom, (4,4)-cn, num edge types: 1
# Building blocks:
#     Node 0, Type 0, BuildingBlock: MIFKUJ_clean_linker_1, # of connection points: 4
#     Node 1, Type 0, BuildingBlock: MIFKUJ_clean_linker_1, # of connection points: 4
#     Node 2, Type 0, BuildingBlock: MIFKUJ_clean_linker_1, # of connection points: 4
#     Node 3, Type 0, BuildingBlock: MIFKUJ_clean_linker_1, # of connection points: 4
#     Node 4, Type 0, BuildingBlock: MIFKUJ_clean_linker_1, # of connection points: 4
#     Node 5, Type 0, BuildingBlock: MIFKUJ_clean_linker_1, # of connection points: 4
#     Node 6, Type 1, BuildingBlock: QUQFOY_clean_sbu_3, # of connection points: 4
#     Node 7, Type 1, BuildingBlock: QUQFOY_clean_sbu_3, # of connection points: 4
#     Node 8, Type 1, BuildingBlock: QUQFOY_clean_sbu_3, # of connection points: 4
#     Node 9, Type 1, BuildingBlock: QUQFOY_clean_sbu_3, # of connection points: 4
#     Node 10, Type 1, BuildingBlock: QUQFOY_clean_sbu_3, # of connection points: 4
#     Node 11, Type 1, BuildingBlock: QUQFOY_clean_sbu_3, # of connection points: 4
#     Edge 12, Type (0, 1), BuildingBlock: XIVTED_clean_linker_0, # of connection points: 2
#     Edge 13, Type (0, 1), BuildingBlock: XIVTED_clean_linker_0, # of connection points: 2
#     Edge 14, Type (0, 1), BuildingBlock: XIVTED_clean_linker_0, # of connection points: 2
#     Edge 15, Type (0, 1), BuildingBlock: XIVTED_clean_linker_0, # of connection points: 2
#     Edge 16, Type (0, 1), BuildingBlock: XIVTED_clean_linker_0, # of connection points: 2
#     Edge 17, Type (0, 1), BuildingBlock: XIVTED_clean_linker_0, # of connection points: 2
#     Edge 18, Type (0, 1), BuildingBlock: XIVTED_clean_linker_0, # of connection points: 2
#     Edge 19, Type (0, 1), BuildingBlock: XIVTED_clean_linker_0, # of connection points: 2
#     Edge 20, Type (0, 1), BuildingBlock: XIVTED_clean_linker_0, # of connection points: 2
#     Edge 21, Type (0, 1), BuildingBlock: XIVTED_clean_linker_0, # of connection points: 2
#     Edge 22, Type (0, 1), BuildingBlock: XIVTED_clean_linker_0, # of connection points: 2
#     Edge 23, Type (0, 1), BuildingBlock: XIVTED_clean_linker_0, # of connection points: 2
#     Edge 24, Type (0, 1), BuildingBlock: XIVTED_clean_linker_0, # of connection points: 2
#     Edge 25, Type (0, 1), BuildingBlock: XIVTED_clean_linker_0, # of connection points: 2
#     Edge 26, Type (0, 1), BuildingBlock: XIVTED_clean_linker_0, # of connection points: 2
#     Edge 27, Type (0, 1), BuildingBlock: XIVTED_clean_linker_0, # of connection points: 2
#     Edge 28, Type (0, 1), BuildingBlock: XIVTED_clean_linker_0, # of connection points: 2
#     Edge 29, Type (0, 1), BuildingBlock: XIVTED_clean_linker_0, # of connection points: 2
#     Edge 30, Type (0, 1), BuildingBlock: XIVTED_clean_linker_0, # of connection points: 2
#     Edge 31, Type (0, 1), BuildingBlock: XIVTED_clean_linker_0, # of connection points: 2
#     Edge 32, Type (0, 1), BuildingBlock: XIVTED_clean_linker_0, # of connection points: 2
#     Edge 33, Type (0, 1), BuildingBlock: XIVTED_clean_linker_0, # of connection points: 2
#     Edge 34, Type (0, 1), BuildingBlock: XIVTED_clean_linker_0, # of connection points: 2
#     Edge 35, Type (0, 1), BuildingBlock: XIVTED_clean_linker_0, # of connection points: 2
# Relax obj value: 0.002
# Max RMSD: 0.099
# Mean RMSD: 0.065
data_MOF--net-nom--node1-QUQFOY_clean_sbu_3--node2-MIFKUJ_clean_linker_1--edge1-XIVTED_clean_linker_0
_symmetry_space_group_name_H-M    P1
_symmetry_Int_Tables_number       1
_symmetry_cell_setting            triclinic
loop_
_symmetry_equiv_pos_as_xyz
'x, y, z'
_cell_length_a     53.735
_cell_length_b     54.993864
_cell_length_c     56.94365
_cell_angle_alpha  90.01047
_cell_angle_beta   89.996269
_cell_angle_gamma 119.97204
loop_
_atom_site_label
_atom_site_type_symbol
_atom_site_fract_x
_atom_site_fract_y
_atom_site_fract_z
_atom_type_partial_charge
H0 H 0.97237 0.44444 0.27041 0.0
H1 H 0.93997 0.42661 0.23658 0.0
H2 H 0.89972 0.47388 0.25864 0.0
H3 H 0.93284 0.4926 0.29187 0.0
H4 H 0.0115 0.49871 0.2782 0.0
H5 H 0.92237 0.42856 0.32442 0.0
H6 H 0.8737 0.41267 0.33951 0.0
H7 H 0.90033 0.49777 0.36062 0.0
H8 H 0.94847 0.51311 0.34617 0.0
H9 H 0.02418 0.54815 0.36937 0.0
H10 H 0.06096 0.57105 0.39956 0.0
H11 H 0.10016 0.52256 0.37755 0.0
H12 H 0.06402 0.50079 0.34679 0.0
H13 H 0.98461 0.49397 0.36209 0.0
H14 H 0.05443 0.56724 0.32171 0.0
H15 H 0.10198 0.60281 0.30865 0.0
H16 H 0.11218 0.53907 0.27274 0.0
H17 H 0.06446 0.50311 0.28662 0.0
C18 C 0.95475 0.46947 0.28395 0.0
C19 C 0.9564 0.45077 0.26809 0.0
C20 C 0.93794 0.44061 0.2488 0.0
C21 C 0.91732 0.44878 0.24516 0.0
C22 C 0.91515 0.46692 0.26132 0.0
C23 C 0.93396 0.47748 0.28039 0.0
C24 C 0.9764 0.48227 0.30293 0.0
C25 C 0.00558 0.49687 0.2966 0.0
C26 C 0.9688 0.48214 0.32675 0.0
C27 C 0.93896 0.47192 0.33443 0.0
C28 C 0.91753 0.44365 0.33228 0.0
C29 C 0.88981 0.43468 0.34082 0.0
C30 C 0.88333 0.4539 0.35161 0.0
C31 C 0.90478 0.48228 0.35303 0.0
C32 C 0.93228 0.49113 0.34466 0.0
C33 C 0.04142 0.52279 0.35592 0.0
C34 C 0.04073 0.54249 0.37113 0.0
C35 C 0.06174 0.55548 0.38843 0.0
C36 C 0.08359 0.54866 0.39108 0.0
C37 C 0.08406 0.52877 0.37579 0.0
C38 C 0.06327 0.5161 0.3583 0.0
C39 C 0.01942 0.50932 0.33737 0.0
C40 C 0.99045 0.49476 0.34374 0.0
C41 C 0.027 0.51149 0.31343 0.0
C42 C 0.05615 0.5325 0.30544 0.0
C43 C 0.06703 0.56081 0.31129 0.0
C44 C 0.09407 0.58118 0.30356 0.0
C45 C 0.11074 0.57375 0.28956 0.0
C46 C 0.09987 0.54534 0.28368 0.0
C47 C 0.07263 0.52485 0.29146 0.0
H48 H 0.45182 0.95042 0.51916 0.0
H49 H 0.42424 0.90248 0.5336 0.0
H50 H 0.48741 0.88412 0.50453 0.0
H51 H 0.51475 0.93232 0.48966 0.0
H52 H 0.50601 0.99145 0.52864 0.0
H53 H 0.45251 0.93491 0.46223 0.0
H54 H 0.43694 0.90165 0.42952 0.0
H55 H 0.52369 0.94289 0.40273 0.0
H56 H 0.53944 0.97559 0.43587 0.0
H57 H 0.57164 0.06237 0.44972 0.0
H58 H 0.58544 0.10895 0.43397 0.0
H59 H 0.51299 0.10632 0.46936 0.0
H60 H 0.49914 0.05979 0.48469 0.0
H61 H 0.52188 0.01231 0.44348 0.0
H62 H 0.57412 0.07163 0.50656 0.0
H63 H 0.58902 0.10851 0.536 0.0
H64 H 0.50532 0.06279 0.56864 0.0
H65 H 0.49005 0.0268 0.53831 0.0
C66 C 0.48522 0.94485 0.50325 0.0
C67 C 0.45986 0.93613 0.51606 0.0
C68 C 0.4442 0.90874 0.52443 0.0
C69 C 0.45368 0.88947 0.52033 0.0
C70 C 0.47937 0.89837 0.50776 0.0
C71 C 0.49504 0.92587 0.4993 0.0
C72 C 0.50092 0.97384 0.49403 0.0
C73 C 0.50937 0.99602 0.51 0.0
C74 C 0.50633 0.9798 0.46979 0.0
C75 C 0.49725 0.95757 0.45168 0.0
C76 C 0.46839 0.93626 0.44978 0.0
C77 C 0.45947 0.91732 0.43104 0.0
C78 C 0.47914 0.91981 0.41364 0.0
C79 C 0.50811 0.94066 0.41588 0.0
C80 C 0.51709 0.95929 0.43478 0.0
C81 C 0.53461 0.05786 0.46857 0.0
C82 C 0.55876 0.07187 0.45399 0.0
C83 C 0.56665 0.09845 0.44511 0.0
C84 C 0.55024 0.1112 0.45042 0.0
C85 C 0.52584 0.09688 0.46475 0.0
C86 C 0.51809 0.07046 0.47373 0.0
C87 C 0.52599 0.02969 0.47802 0.0
C88 C 0.51901 0.00775 0.46215 0.0
C89 C 0.52194 0.0239 0.50233 0.0
C90 C 0.53088 0.04652 0.52008 0.0
C91 C 0.55881 0.06979 0.51981 0.0
C92 C 0.56742 0.09071 0.53685 0.0
C93 C 0.54841 0.08861 0.55476 0.0
C94 C 0.5204 0.06532 0.55493 0.0
C95 C 0.51173 0.04453 0.53775 0.0
H96 H 0.53818 0.56544 0.71844 0.0
H97 H 0.52222 0.58311 0.75125 0.0
H98 H 0.43422 0.53158 0.72885 0.0
H99 H 0.45004 0.513 0.69667 0.0
H100 H 0.5249 0.51192 0.71159 0.0
H101 H 0.50152 0.57716 0.66776 0.0
H102 H 0.46599 0.59017 0.65523 0.0
H103 H 0.41455 0.50779 0.62456 0.0
H104 H 0.44902 0.49463 0.63801 0.0
H105 H 0.48871 0.4637 0.61838 0.0
H106 H 0.50259 0.44205 0.58761 0.0
H107 H 0.58867 0.48133 0.61613 0.0
H108 H 0.57508 0.5044 0.64593 0.0
H109 H 0.50283 0.51375 0.62729 0.0
H110 H 0.50156 0.44225 0.67188 0.0
H111 H 0.51781 0.4105 0.6857 0.0
H112 H 0.59325 0.48075 0.71595 0.0
H113 H 0.57686 0.51263 0.70182 0.0
C114 C 0.49538 0.53826 0.70484 0.0
C115 C 0.51546 0.55806 0.72051 0.0
C116 C 0.50638 0.56813 0.7392 0.0
C117 C 0.47706 0.55879 0.74238 0.0
C118 C 0.45698 0.53938 0.72649 0.0
C119 C 0.46603 0.52888 0.70807 0.0
C120 C 0.50519 0.52614 0.68622 0.0
C121 C 0.52062 0.51292 0.6931 0.0
C122 C 0.49789 0.52562 0.66225 0.0
C123 C 0.47779 0.53485 0.65399 0.0
C124 C 0.48247 0.56193 0.65846 0.0
C125 C 0.46227 0.56938 0.65115 0.0
C126 C 0.43726 0.54988 0.63915 0.0
C127 C 0.43317 0.5231 0.63425 0.0
C128 C 0.4531 0.51565 0.64167 0.0
C129 C 0.53082 0.48568 0.63452 0.0
C130 C 0.51064 0.46782 0.61791 0.0
C131 C 0.51852 0.45512 0.60049 0.0
C132 C 0.54675 0.45985 0.59939 0.0
C133 C 0.56684 0.4775 0.61624 0.0
C134 C 0.55901 0.49045 0.63349 0.0
C135 C 0.52242 0.49958 0.65269 0.0
C136 C 0.50764 0.51334 0.64575 0.0
C137 C 0.52814 0.49862 0.67678 0.0
C138 C 0.53822 0.47977 0.68561 0.0
C139 C 0.52163 0.45082 0.68146 0.0
C140 C 0.53079 0.43269 0.68955 0.0
C141 C 0.55674 0.44318 0.70196 0.0
C142 C 0.57325 0.47218 0.7063 0.0
C143 C 0.5639 0.49034 0.69835 0.0
H144 H 0.04705 0.57994 0.77111 0.0
H145 H 0.08253 0.59388 0.7395 0.0
H146 H 0.10404 0.53195 0.76309 0.0
H147 H 0.06818 0.51777 0.79428 0.0
H148 H -0.00038 0.52267 0.77506 0.0
H149 H 0.0848 0.58977 0.82459 0.0
H150 H 0.1327 0.60317 0.8398 0.0
H151 H 0.10028 0.51816 0.86446 0.0
H152 H 0.05276 0.50544 0.85006 0.0
H153 H 0.95123 0.45479 0.83961 0.0
H154 H 0.91252 0.43029 0.86835 0.0
H155 H 0.92796 0.51025 0.89503 0.0
H156 H 0.96629 0.53449 0.86613 0.0
H157 H 0.01669 0.52579 0.86089 0.0
H158 H 0.96726 0.4682 0.77798 0.0
H159 H 0.92012 0.43161 0.7651 0.0
H160 H 0.88047 0.46955 0.80576 0.0
H161 H 0.92809 0.5072 0.81761 0.0
C162 C 0.05522 0.54803 0.7851 0.0
C163 C 0.05975 0.5697 0.76963 0.0
C164 C 0.08011 0.57773 0.7517 0.0
C165 C 0.09599 0.56395 0.74881 0.0
C166 C 0.09194 0.54278 0.76478 0.0
C167 C 0.07167 0.53483 0.78272 0.0
C168 C 0.03157 0.53748 0.80238 0.0
C169 C 0.0033 0.52394 0.79387 0.0
C170 C 0.03643 0.53765 0.82676 0.0
C171 C 0.06529 0.54671 0.83641 0.0
C172 C 0.08813 0.57421 0.83348 0.0
C173 C 0.11547 0.58174 0.84204 0.0
C174 C 0.12033 0.56179 0.85351 0.0
C175 C 0.09726 0.53428 0.85629 0.0
C176 C 0.07005 0.52691 0.84797 0.0
C177 C 0.9613 0.49638 0.85069 0.0
C178 C 0.94608 0.46695 0.8516 0.0
C179 C 0.92415 0.45303 0.86806 0.0
C180 C 0.91715 0.46838 0.88382 0.0
C181 C 0.93258 0.49787 0.88286 0.0
C182 C 0.95457 0.51175 0.86651 0.0
C183 C 0.98477 0.51132 0.8336 0.0
C184 C 0.01295 0.52563 0.84214 0.0
C185 C 0.97983 0.50976 0.80911 0.0
C186 C 0.95123 0.49027 0.799 0.0
C187 C 0.94849 0.46908 0.78369 0.0
C188 C 0.92146 0.44791 0.77661 0.0
C189 C 0.89651 0.44731 0.78483 0.0
C190 C 0.89928 0.4694 0.79913 0.0
C191 C 0.92646 0.49083 0.80605 0.0
H192 H 0.55225 0.06003 0.02317 0.0
H193 H 0.58069 0.10821 0.03698 0.0
H194 H 0.5194 0.12794 0.00593 0.0
H195 H 0.4915 0.07968 0.99151 0.0
H196 H 0.49715 0.01906 0.03108 0.0
H197 H 0.55617 0.07109 0.96657 0.0
H198 H 0.57776 0.10561 0.93508 0.0
H199 H 0.49345 0.07795 0.90612 0.0
H200 H 0.47189 0.04379 0.93806 0.0
H201 H 0.4315 0.95072 0.95142 0.0
H202 H 0.41616 0.90397 0.93519 0.0
H203 H 0.48764 0.90379 0.96982 0.0
H204 H 0.50299 0.95045 0.98563 0.0
H205 H 0.48386 0.00045 0.94543 0.0
H206 H 0.42879 0.93957 0.00802 0.0
H207 H 0.41398 0.90166 0.03647 0.0
H208 H 0.49779 0.94626 0.06907 0.0
H209 H 0.51297 0.98321 0.03968 0.0
C210 C 0.5199 0.06638 0.00622 0.0
C211 C 0.54481 0.07469 0.01955 0.0
C212 C 0.56096 0.10225 0.02755 0.0
C213 C 0.55235 0.12202 0.0226 0.0
C214 C 0.5269 0.11339 0.00975 0.0
C215 C 0.51086 0.08581 0.00157 0.0
C216 C 0.50403 0.03753 0.9967 0.0
C217 C 0.49426 0.01494 0.01236 0.0
C218 C 0.49977 0.03224 0.97232 0.0
C219 C 0.51241 0.05508 0.95475 0.0
C220 C 0.54228 0.07292 0.95377 0.0
C221 C 0.55461 0.09243 0.93565 0.0
C222 C 0.53729 0.09436 0.91809 0.0
C223 C 0.5073 0.07713 0.91954 0.0
C224 C 0.49497 0.05752 0.93766 0.0
C225 C 0.46814 0.95381 0.96993 0.0
C226 C 0.44384 0.94056 0.95542 0.0
C227 C 0.43507 0.91388 0.94626 0.0
C228 C 0.45075 0.90029 0.95122 0.0
C229 C 0.47533 0.91388 0.96547 0.0
C230 C 0.48395 0.94039 0.97471 0.0
C231 C 0.47757 0.98198 0.97977 0.0
C232 C 0.48604 0.00447 0.96419 0.0
C233 C 0.48125 0.98719 0.00421 0.0
C234 C 0.47207 0.96416 0.02158 0.0
C235 C 0.44412 0.94096 0.02106 0.0
C236 C 0.43557 0.91944 0.03754 0.0
C237 C 0.45467 0.92089 0.05512 0.0
C238 C 0.48266 0.94419 0.05558 0.0
C239 C 0.49127 0.96555 0.03896 0.0
H240 H 0.47683 0.44423 0.20894 0.0
H241 H 0.4946 0.42826 0.24169 0.0
H242 H 0.58153 0.49225 0.22506 0.0
H243 H 0.56358 0.50849 0.19278 0.0
H244 H 0.48595 0.49986 0.20619 0.0
H245 H 0.5105 0.43904 0.15652 0.0
H246 H 0.54526 0.42601 0.1421 0.0
H247 H 0.60394 0.51295 0.12466 0.0
H248 H 0.56879 0.52539 0.13816 0.0
H249 H 0.52394 0.55503 0.11501 0.0
H250 H 0.50913 0.57713 0.08531 0.0
H251 H 0.42243 0.53279 0.11259 0.0
H252 H 0.43698 0.5093 0.14113 0.0
H253 H 0.51284 0.50567 0.12218 0.0
H254 H 0.50851 0.57162 0.16992 0.0
H255 H 0.49043 0.60125 0.18536 0.0
H256 H 0.41502 0.5277 0.21181 0.0
H257 H 0.43331 0.49795 0.1961 0.0
C258 C 0.51891 0.47734 0.19834 0.0
C259 C 0.49973 0.45453 0.21221 0.0
C260 C 0.50992 0.44535 0.2308 0.0
C261 C 0.53945 0.45907 0.23596 0.0
C262 C 0.55865 0.48145 0.22163 0.0
C263 C 0.54846 0.49056 0.20304 0.0
C264 C 0.50791 0.48888 0.1803 0.0
C265 C 0.49109 0.50039 0.18769 0.0
C266 C 0.51643 0.4915 0.15654 0.0
C267 C 0.53708 0.48311 0.14822 0.0
C268 C 0.53086 0.45516 0.14949 0.0
C269 C 0.55081 0.44782 0.14138 0.0
C270 C 0.57735 0.4684 0.13204 0.0
C271 C 0.58349 0.49642 0.13116 0.0
C272 C 0.56349 0.50363 0.13899 0.0
C273 C 0.48161 0.53052 0.13038 0.0
C274 C 0.50168 0.54989 0.11447 0.0
C275 C 0.49325 0.56283 0.09768 0.0
C276 C 0.46457 0.55683 0.09654 0.0
C277 C 0.4446 0.53764 0.1127 0.0
C278 C 0.45297 0.52444 0.12927 0.0
C279 C 0.49053 0.5164 0.14795 0.0
C280 C 0.50688 0.50441 0.14053 0.0
C281 C 0.48341 0.51516 0.172 0.0
C282 C 0.47205 0.53262 0.18166 0.0
C283 C 0.48805 0.56186 0.179 0.0
C284 C 0.47784 0.57876 0.18801 0.0
C285 C 0.4514 0.56675 0.19986 0.0
C286 C 0.43541 0.53744 0.20264 0.0
C287 C 0.44583 0.52049 0.19379 0.0
C288 C 0.69162 0.41529 0.41011 0.0
O289 O 0.6908 0.43566 0.41985 0.0
Cd290 Cd 0.64741 0.43285 0.43354 0.0
O291 O 0.66899 0.39137 0.40819 0.0
Cd292 Cd 0.61766 0.36683 0.41954 0.0
C293 C 0.60681 0.40895 0.38279 0.0
O294 O 0.6259 0.39105 0.45649 0.0
O295 O 0.58134 0.36421 0.4477 0.0
O296 O 0.62725 0.32936 0.42864 0.0
C297 C 0.59985 0.38084 0.46229 0.0
O298 O 0.6205 0.42848 0.39768 0.0
C299 C 0.60477 0.31 0.419 0.0
O300 O 0.60337 0.38454 0.38595 0.0
O301 O 0.58797 0.31704 0.40934 0.0
C302 C 0.2851 0.58479 0.57344 0.0
O303 O 0.26235 0.56439 0.56505 0.0
Cd304 Cd 0.2231 0.56953 0.55131 0.0
O305 O 0.28839 0.60936 0.57395 0.0
Cd306 Cd 0.26315 0.63453 0.56221 0.0
C307 C 0.21118 0.59703 0.6017 0.0
O308 O 0.24216 0.60955 0.52587 0.0
O309 O 0.22553 0.63555 0.53888 0.0
O310 O 0.30855 0.67018 0.54632 0.0
C311 C 0.22609 0.62003 0.52266 0.0
O312 O 0.20296 0.57676 0.58724 0.0
C313 C 0.30955 0.69051 0.55764 0.0
O314 O 0.23357 0.6206 0.59766 0.0
O315 O 0.28876 0.68486 0.57146 0.0
C316 C 0.70531 0.28287 0.74162 0.0
O317 O 0.70445 0.26043 0.73489 0.0
Cd318 Cd 0.6611 0.21989 0.72191 0.0
O319 O 0.6827 0.28487 0.74151 0.0
Cd320 Cd 0.63129 0.2574 0.73112 0.0
C321 C 0.61957 0.20723 0.77132 0.0
O322 O 0.63937 0.23793 0.69561 0.0
O323 O 0.59498 0.22283 0.7045 0.0
O324 O 0.63881 0.30282 0.71884 0.0
C325 C 0.61309 0.22276 0.69028 0.0
O326 O 0.63334 0.19977 0.7577 0.0
C327 C 0.61682 0.30057 0.72914 0.0
O328 O 0.61662 0.22822 0.76634 0.0
O329 O 0.60128 0.27798 0.7404 0.0
C330 C 0.31152 0.59496 0.90951 0.0
O331 O 0.31342 0.57503 0.91898 0.0
Cd332 Cd 0.35741 0.5801 0.93413 0.0
O333 O 0.33336 0.6195 0.90812 0.0
Cd334 Cd 0.38442 0.64539 0.91978 0.0
C335 C 0.39964 0.60485 0.88468 0.0
O336 O 0.37668 0.62182 0.9571 0.0
O337 O 0.42106 0.64936 0.94822 0.0
O338 O 0.37462 0.68296 0.92839 0.0
C339 C 0.40278 0.63278 0.96298 0.0
O340 O 0.38753 0.58563 0.90008 0.0
C341 C 0.3969 0.70213 0.91836 0.0
O342 O 0.39991 0.62805 0.88666 0.0
O343 O 0.41351 0.69487 0.90868 0.0
C344 C 0.72907 0.4285 0.07292 0.0
O345 O 0.7522 0.44815 0.06428 0.0
Cd346 Cd 0.78988 0.44114 0.04931 0.0
O347 O 0.72435 0.40339 0.07335 0.0
Cd348 Cd 0.74725 0.37628 0.0606 0.0
C349 C 0.80269 0.41202 0.09799 0.0
O350 O 0.7662 0.40129 0.02412 0.0
O351 O 0.78123 0.37286 0.03357 0.0
O352 O 0.70008 0.34072 0.04739 0.0
C353 C 0.78056 0.38961 0.0186 0.0
O354 O 0.81192 0.43224 0.08338 0.0
C355 C 0.69987 0.32053 0.05833 0.0
O356 O 0.77866 0.38973 0.09486 0.0
O357 O 0.72179 0.32628 0.07075 0.0
C358 C 0.30408 0.73078 0.24115 0.0
O359 O 0.30701 0.75411 0.23446 0.0
Cd360 Cd 0.35166 0.79222 0.22047 0.0
O361 O 0.32538 0.72664 0.24096 0.0
Cd362 Cd 0.37675 0.75146 0.2305 0.0
C363 C 0.39365 0.80443 0.26911 0.0
O364 O 0.3696 0.77042 0.19441 0.0
O365 O 0.41377 0.78458 0.20297 0.0
O366 O 0.36748 0.70495 0.21945 0.0
C367 C 0.39576 0.78461 0.18861 0.0
O368 O 0.38229 0.81375 0.25471 0.0
C369 C 0.38933 0.70695 0.2298 0.0
O370 O 0.39276 0.78119 0.26542 0.0
O371 O 0.40542 0.72976 0.24057 0.0
H372 H 0.16112 0.57247 0.28795 0.0
H373 H 0.2533 0.73112 0.24264 0.0
H374 H 0.12515 0.62533 0.27198 0.0
H375 H 0.28974 0.67802 0.25612 0.0
H376 H 0.20616 0.69243 0.25355 0.0
H377 H 0.20841 0.61051 0.27586 0.0
C378 C 0.16314 0.59198 0.28171 0.0
C379 C 0.13923 0.59583 0.28111 0.0
C380 C 0.22447 0.68923 0.25413 0.0
C381 C 0.19318 0.63946 0.26754 0.0
C382 C 0.25143 0.71136 0.24795 0.0
C383 C 0.27554 0.70784 0.24846 0.0
C384 C 0.22154 0.66336 0.26089 0.0
C385 C 0.27176 0.68171 0.25547 0.0
C386 C 0.19014 0.61374 0.27496 0.0
C387 C 0.1431 0.62164 0.2731 0.0
N388 N 0.24526 0.66046 0.2614 0.0
N389 N 0.16955 0.64247 0.2667 0.0
H390 H 0.51601 0.12986 0.43143 0.0
H391 H 0.63977 0.29038 0.43372 0.0
H392 H 0.60406 0.15736 0.4498 0.0
H393 H 0.55481 0.26266 0.40638 0.0
H394 H 0.62756 0.24154 0.43794 0.0
H395 H 0.5301 0.17803 0.42045 0.0
C396 C 0.53834 0.14605 0.43305 0.0
C397 C 0.55888 0.13969 0.44171 0.0
C398 C 0.61163 0.24609 0.43084 0.0
C399 C 0.57515 0.19477 0.42918 0.0
C400 C 0.61857 0.27399 0.42847 0.0
C401 C 0.59817 0.28056 0.41987 0.0
C402 C 0.58398 0.22455 0.42478 0.0
C403 C 0.57113 0.2585 0.41317 0.0
C404 C 0.54639 0.17349 0.42667 0.0
C405 C 0.58757 0.16133 0.4431 0.0
N406 N 0.56471 0.23143 0.41598 0.0
N407 N 0.59481 0.18797 0.43712 0.0
H408 H 0.44548 0.59953 0.62047 0.0
H409 H 0.28125 0.53459 0.5842 0.0
H410 H 0.37886 0.51646 0.64052 0.0
H411 H 0.34028 0.62399 0.58528 0.0
H412 H 0.3184 0.5271 0.60156 0.0
H413 H 0.4085 0.60893 0.60513 0.0
C414 C 0.42312 0.58339 0.62188 0.0
C415 C 0.4153 0.55704 0.63153 0.0
C416 C 0.3232 0.54836 0.59804 0.0
C417 C 0.3731 0.56746 0.61365 0.0
C418 C 0.30206 0.55264 0.588 0.0
C419 C 0.30767 0.57995 0.5833 0.0
C420 C 0.35026 0.57152 0.60318 0.0
C421 C 0.33501 0.60257 0.58869 0.0
C422 C 0.40206 0.58872 0.61301 0.0
C423 C 0.38597 0.53683 0.6327 0.0
N424 N 0.35537 0.59785 0.59827 0.0
N425 N 0.366 0.54238 0.62368 0.0
H426 H 0.88121 0.39189 0.78389 0.0
H427 H 0.71668 0.33616 0.75181 0.0
H428 H 0.84641 0.44694 0.77383 0.0
H429 H 0.75679 0.28499 0.74853 0.0
H430 H 0.76279 0.37631 0.76323 0.0
H431 H 0.83455 0.3519 0.77414 0.0
C432 C 0.8638 0.39562 0.77943 0.0
C433 C 0.86787 0.42291 0.77937 0.0
C434 C 0.76147 0.35629 0.76002 0.0
C435 C 0.81409 0.37698 0.76861 0.0
C436 C 0.73514 0.33332 0.75356 0.0
C437 C 0.73287 0.30715 0.74914 0.0
C438 C 0.78565 0.35303 0.76222 0.0
C439 C 0.75753 0.30476 0.75167 0.0
C440 C 0.83709 0.37272 0.774 0.0
C441 C 0.84424 0.42629 0.77417 0.0
N442 N 0.78287 0.3274 0.75805 0.0
N443 N 0.81834 0.40357 0.76894 0.0
H444 H 0.39624 0.8551 0.95049 0.0
H445 H 0.4462 0.74884 0.90378 0.0
H446 H 0.48366 0.88047 0.9316 0.0
H447 H 0.36304 0.72258 0.93436 0.0
H448 H 0.45825 0.79781 0.90808 0.0
H449 H 0.38169 0.80706 0.93867 0.0
C450 C 0.4123 0.85062 0.94356 0.0
C451 C 0.44123 0.87171 0.94221 0.0
C452 C 0.4373 0.7813 0.9137 0.0
C453 C 0.42483 0.81682 0.92887 0.0
C454 C 0.43039 0.75337 0.9112 0.0
C455 C 0.40369 0.73165 0.91894 0.0
C456 C 0.41731 0.78751 0.92391 0.0
C457 C 0.38398 0.73869 0.92836 0.0
C458 C 0.40402 0.82318 0.93696 0.0
C459 C 0.4612 0.8647 0.93329 0.0
N460 N 0.39124 0.76602 0.93069 0.0
N461 N 0.45265 0.83782 0.92706 0.0
H462 H 0.59068 0.42977 0.14993 0.0
H463 H 0.72491 0.47546 0.06549 0.0
H464 H 0.61283 0.49005 0.09384 0.0
H465 H 0.68304 0.39539 0.10103 0.0
H466 H 0.68743 0.48451 0.07981 0.0
H467 H 0.62738 0.41947 0.13562 0.0
C468 C 0.60303 0.44068 0.13453 0.0
C469 C 0.59872 0.46097 0.12319 0.0
C470 C 0.68646 0.46495 0.08444 0.0
C471 C 0.64111 0.44971 0.10713 0.0
C472 C 0.70791 0.45984 0.07639 0.0
C473 C 0.70705 0.4346 0.08204 0.0
C474 C 0.66421 0.44488 0.09849 0.0
C475 C 0.68444 0.41507 0.09616 0.0
C476 C 0.62407 0.43489 0.12647 0.0
C477 C 0.61576 0.47473 0.10351 0.0
N478 N 0.66394 0.42066 0.104 0.0
N479 N 0.6363 0.46898 0.09622 0.0
H480 H 0.42401 0.87022 0.56174 0.0
H481 H 0.35379 0.70848 0.52643 0.0
H482 H 0.44284 0.84142 0.49717 0.0
H483 H 0.3198 0.73833 0.5809 0.0
H484 H 0.39182 0.75665 0.51929 0.0
H485 H 0.39097 0.8215 0.57266 0.0
C486 C 0.42127 0.85367 0.54988 0.0
C487 C 0.436 0.85998 0.52836 0.0
C488 C 0.37611 0.75266 0.53286 0.0
C489 C 0.39849 0.80418 0.54093 0.0
C490 C 0.35441 0.72516 0.53699 0.0
C491 C 0.33346 0.71943 0.55418 0.0
C492 C 0.37699 0.7746 0.54608 0.0
C493 C 0.33541 0.74186 0.56738 0.0
C494 C 0.40248 0.82587 0.55618 0.0
C495 C 0.43213 0.83761 0.51399 0.0
N496 N 0.35678 0.76851 0.56301 0.0
N497 N 0.41362 0.81071 0.52048 0.0
H498 H 0.52551 0.39223 0.72346 0.0
H499 H 0.64883 0.35272 0.70994 0.0
H500 H 0.61052 0.44991 0.69764 0.0
H501 H 0.56828 0.29965 0.74508 0.0
H502 H 0.63562 0.38904 0.70617 0.0
H503 H 0.54115 0.35851 0.73256 0.0
C504 C 0.54753 0.39781 0.71982 0.0
C505 C 0.56672 0.42378 0.70964 0.0
C506 C 0.62089 0.36953 0.71484 0.0
C507 C 0.58476 0.38535 0.71994 0.0
C508 C 0.62838 0.34875 0.71693 0.0
C509 C 0.60952 0.32307 0.7277 0.0
C510 C 0.59424 0.36452 0.7234 0.0
C511 C 0.58341 0.31912 0.73658 0.0
C512 C 0.55647 0.37862 0.7251 0.0
C513 C 0.59509 0.43016 0.70559 0.0
N514 N 0.57644 0.33957 0.73408 0.0
N515 N 0.60319 0.41095 0.71055 0.0
H516 H 0.17288 0.5965 0.83312 0.0
H517 H 0.25827 0.55087 0.91964 0.0
H518 H 0.13397 0.54372 0.89379 0.0
H519 H 0.30095 0.62785 0.87972 0.0
H520 H 0.21198 0.54402 0.90632 0.0
H521 H 0.21993 0.60542 0.84671 0.0
C522 C 0.17419 0.58702 0.84939 0.0
C523 C 0.14932 0.56912 0.86221 0.0
C524 C 0.2315 0.56242 0.90051 0.0
C525 C 0.20292 0.5787 0.87744 0.0
C526 C 0.25792 0.56625 0.90797 0.0
C527 C 0.28348 0.58999 0.90081 0.0
C528 C 0.23066 0.58225 0.88551 0.0
C529 C 0.28173 0.60931 0.88575 0.0
C530 C 0.20103 0.59199 0.85704 0.0
C531 C 0.15239 0.55712 0.883 0.0
N532 N 0.25573 0.60495 0.8785 0.0
N533 N 0.17864 0.56193 0.88985 0.0
H534 H 0.56364 0.16949 -0.00177 0.0
H535 H 0.6907 0.27343 0.08214 0.0
H536 H 0.58326 0.14254 0.06345 0.0
H537 H 0.65416 0.30171 0.02856 0.0
H538 H 0.65201 0.22518 0.07547 0.0
H539 H 0.59683 0.21807 0.00903 0.0
C540 C 0.57456 0.17374 0.01499 0.0
C541 C 0.5707 0.15177 0.02988 0.0
C542 C 0.65235 0.242 0.06534 0.0
C543 C 0.60935 0.20747 0.04207 0.0
C544 C 0.67445 0.26951 0.06909 0.0
C545 C 0.67572 0.29156 0.05578 0.0
C546 C 0.63163 0.23654 0.04797 0.0
C547 C 0.65406 0.28533 0.03917 0.0
C548 C 0.59368 0.20153 0.02107 0.0
C549 C 0.58596 0.1587 0.05118 0.0
N550 N 0.63306 0.25837 0.03558 0.0
N551 N 0.60481 0.18592 0.05653 0.0
H552 H 0.48071 0.61576 0.22439 0.0
H553 H 0.35721 0.65487 0.21031 0.0
H554 H 0.39738 0.55933 0.19494 0.0
H555 H 0.43701 0.70704 0.24678 0.0
H556 H 0.37034 0.61846 0.20645 0.0
H557 H 0.46398 0.64826 0.23482 0.0
C558 C 0.45881 0.61017 0.22026 0.0
C559 C 0.44046 0.58498 0.2086 0.0
C560 C 0.38488 0.63778 0.21546 0.0
C561 C 0.42116 0.62206 0.2204 0.0
C562 C 0.37743 0.6586 0.21762 0.0
C563 C 0.39617 0.68411 0.22871 0.0
C564 C 0.41136 0.64259 0.22429 0.0
C565 C 0.42199 0.68775 0.23799 0.0
C566 C 0.44923 0.62867 0.22628 0.0
C567 C 0.41217 0.57852 0.20398 0.0
N568 N 0.42893 0.6673 0.2354 0.0
N569 N 0.40346 0.59711 0.20966 0.0
H570 H 0.87105 0.47072 0.39293 0.0
H571 H 0.70075 0.38146 0.38014 0.0
H572 H 0.83018 0.41641 0.33349 0.0
H573 H 0.74548 0.45781 0.42069 0.0
H574 H 0.74718 0.38838 0.36662 0.0
H575 H 0.82405 0.45989 0.40756 0.0
C576 C 0.85216 0.45652 0.38292 0.0
C577 C 0.85459 0.44488 0.3617 0.0
C578 C 0.74671 0.40355 0.37846 0.0
C579 C 0.80063 0.43206 0.3786 0.0
C580 C 0.7203 0.39963 0.38622 0.0
C581 C 0.71927 0.41916 0.40151 0.0
C582 C 0.77217 0.42689 0.38638 0.0
C583 C 0.74523 0.44232 0.4088 0.0
C584 C 0.82534 0.4503 0.39133 0.0
C585 C 0.82928 0.42587 0.34991 0.0
N586 N 0.77061 0.44547 0.40125 0.0
N587 N 0.80326 0.42014 0.35847 0.0
H588 H 0.07632 0.563 0.43578 0.0
H589 H 0.22886 0.59522 0.48201 0.0
H590 H 0.14082 0.5642 0.38968 0.0
H591 H 0.1792 0.6265 0.51698 0.0
H592 H 0.19513 0.58004 0.44907 0.0
H593 H 0.11218 0.58309 0.46691 0.0
C594 C 0.09805 0.56774 0.43205 0.0
C595 C 0.10544 0.56177 0.40998 0.0
C596 C 0.19176 0.5904 0.46389 0.0
C597 C 0.14639 0.58413 0.44585 0.0
C598 C 0.2109 0.59897 0.48271 0.0
C599 C 0.20672 0.61204 0.50224 0.0
C600 C 0.16803 0.59453 0.46484 0.0
C601 C 0.1832 0.61651 0.50223 0.0
C602 C 0.11847 0.57909 0.44991 0.0
C603 C 0.13389 0.56786 0.4065 0.0
N604 N 0.16454 0.6075 0.48389 0.0
N605 N 0.15326 0.5785 0.42429 0.0
H606 H 0.51778 0.11018 0.57627 0.0
H607 H 0.64692 0.21289 0.66053 0.0
H608 H 0.60096 0.11597 0.57648 0.0
H609 H 0.55887 0.19139 0.67223 0.0
H610 H 0.63155 0.18168 0.62652 0.0
H611 H 0.53356 0.14393 0.60858 0.0
C612 C 0.53932 0.11847 0.5831 0.0
C613 C 0.55802 0.11009 0.57364 0.0
C614 C 0.61559 0.18381 0.63651 0.0
C615 C 0.57631 0.14904 0.61038 0.0
C616 C 0.62435 0.20168 0.65589 0.0
C617 C 0.6041 0.20463 0.66927 0.0
C618 C 0.58639 0.16893 0.63035 0.0
C619 C 0.57516 0.18961 0.66244 0.0
C620 C 0.54834 0.13783 0.60148 0.0
C621 C 0.5859 0.12203 0.58294 0.0
N622 N 0.56715 0.17238 0.64343 0.0
N623 N 0.59417 0.14086 0.60079 0.0
H624 H 0.44148 0.58098 0.74331 0.0
H625 H 0.42021 0.56861 0.88112 0.0
H626 H 0.49024 0.55703 0.78824 0.0
H627 H 0.40919 0.62934 0.84127 0.0
H628 H 0.44077 0.55917 0.84634 0.0
H629 H 0.42409 0.59422 0.77827 0.0
C630 C 0.44853 0.57861 0.76055 0.0
C631 C 0.4673 0.56801 0.76303 0.0
C632 C 0.43398 0.57467 0.84528 0.0
C633 C 0.44735 0.5826 0.80278 0.0
C634 C 0.42215 0.57997 0.86505 0.0
C635 C 0.413 0.59978 0.86403 0.0
C636 C 0.4361 0.58882 0.82423 0.0
C637 C 0.41612 0.614 0.8428 0.0
C638 C 0.43876 0.58625 0.7804 0.0
C639 C 0.47594 0.56535 0.78566 0.0
N640 N 0.42715 0.60802 0.8236 0.0
N641 N 0.46565 0.57233 0.80472 0.0
H642 H 0.87498 0.47992 0.89598 0.0
H643 H 0.81736 0.37182 0.00345 0.0
H644 H 0.90723 0.424 0.91199 0.0
H645 H 0.78395 0.42615 0.98477 0.0
H646 H 0.8485 0.38834 0.96878 0.0
H647 H 0.83951 0.45823 0.92722 0.0
C648 C 0.87454 0.46302 0.90609 0.0
C649 C 0.89421 0.4539 0.90155 0.0
C650 C 0.83421 0.39649 0.97222 0.0
C651 C 0.85363 0.42888 0.93735 0.0
C652 C 0.81645 0.38708 0.99199 0.0
C653 C 0.79822 0.3978 -0.00292 0.0
C654 C 0.83372 0.41678 0.95752 0.0
C655 C 0.79781 0.41745 0.98161 0.0
C656 C 0.85421 0.45055 0.92386 0.0
C657 C 0.89236 0.43158 0.91488 0.0
N658 N 0.8154 0.4264 0.96263 0.0
N659 N 0.87257 0.41996 0.93233 0.0
H660 H 0.40215 0.89245 0.07676 0.0
H661 H 0.44999 0.81599 0.17036 0.0
H662 H 0.48561 0.89888 0.07539 0.0
H663 H 0.36185 0.79443 0.15906 0.0
H664 H 0.46421 0.84764 0.13649 0.0
H665 H 0.38751 0.85741 0.10772 0.0
C666 C 0.41733 0.88629 0.08274 0.0
C667 C 0.4452 0.89872 0.07339 0.0
C668 C 0.44175 0.83582 0.14136 0.0
C669 C 0.42868 0.85892 0.10931 0.0
C670 C 0.43364 0.81782 0.16069 0.0
C671 C 0.40473 0.80267 0.16757 0.0
C672 C 0.42081 0.83885 0.12903 0.0
C673 C 0.3844 0.80575 0.1544 0.0
C674 C 0.40898 0.86636 0.10055 0.0
C675 C 0.46408 0.89024 0.08231 0.0
N676 N 0.39286 0.82363 0.13588 0.0
N677 N 0.45552 0.87098 0.09986 0.0
H678 H 0.57853 0.49436 0.268 0.0
H679 H 0.57346 0.37248 0.34802 0.0
H680 H 0.52404 0.40638 0.25232 0.0
H681 H 0.61528 0.45985 0.36817 0.0
H682 H 0.55704 0.38413 0.31185 0.0
H683 H 0.59476 0.48178 0.30352 0.0
C684 C 0.57019 0.47236 0.27192 0.0
C685 C 0.55 0.45138 0.25713 0.0
C686 C 0.56975 0.40069 0.32426 0.0
C687 C 0.5682 0.43677 0.29802 0.0
C688 C 0.57914 0.39407 0.3449 0.0
C689 C 0.59579 0.41522 0.36118 0.0
C690 C 0.57725 0.42865 0.31982 0.0
C691 C 0.60247 0.44282 0.35619 0.0
C692 C 0.57927 0.46517 0.29233 0.0
C693 C 0.5395 0.4232 0.26335 0.0
N694 N 0.59326 0.44872 0.33594 0.0
N695 N 0.54877 0.41669 0.28333 0.0
H696 H 0.49019 0.93755 0.3683 0.0
H697 H 0.4043 0.78564 0.31039 0.0
H698 H 0.44478 0.86266 0.41032 0.0
H699 H 0.41535 0.86051 0.27628 0.0
H700 H 0.42684 0.81336 0.34587 0.0
H701 H 0.47095 0.90911 0.3328 0.0
C702 C 0.47644 0.91504 0.37 0.0
C703 C 0.46902 0.90236 0.3922 0.0
C704 C 0.42432 0.82362 0.33056 0.0
C705 C 0.44698 0.86981 0.35178 0.0
C706 C 0.41161 0.80791 0.31032 0.0
C707 C 0.40786 0.82081 0.29042 0.0
C708 C 0.43384 0.85248 0.33065 0.0
C709 C 0.41763 0.84969 0.29129 0.0
C710 C 0.46532 0.8989 0.34979 0.0
C711 C 0.45084 0.87318 0.39348 0.0
N712 N 0.4303 0.86459 0.31104 0.0
N713 N 0.44046 0.8578 0.37349 0.0
H714 H 0.59786 0.48332 0.57543 0.0
H715 H 0.5462 0.36028 0.48138 0.0
H716 H 0.51527 0.40741 0.57958 0.0
H717 H 0.63507 0.42345 0.4916 0.0
H718 H 0.53337 0.37832 0.51591 0.0
H719 H 0.61107 0.46272 0.54333 0.0
C720 C 0.58258 0.4622 0.56981 0.0
C721 C 0.55537 0.44711 0.58031 0.0
C722 C 0.55569 0.38808 0.51065 0.0
C723 C 0.57022 0.42364 0.5431 0.0
C724 C 0.56299 0.37785 0.49094 0.0
C725 C 0.59171 0.39045 0.48361 0.0
C726 C 0.57723 0.41124 0.52287 0.0
C727 C 0.61266 0.41311 0.49664 0.0
C728 C 0.59011 0.45051 0.55136 0.0
C729 C 0.5363 0.42004 0.57181 0.0
N730 N 0.60497 0.4229 0.51554 0.0
N731 N 0.54403 0.40923 0.55361 0.0
H732 H 0.13486 0.61529 0.73024 0.0
H733 H 0.16747 0.54769 0.61865 0.0
H734 H 0.09979 0.5263 0.72009 0.0
H735 H 0.21736 0.63611 0.63484 0.0
H736 H 0.14069 0.54021 0.6549 0.0
H737 H 0.16381 0.62412 0.69459 0.0
C738 C 0.13334 0.59765 0.72055 0.0
C739 C 0.11498 0.57003 0.72816 0.0
C740 C 0.15753 0.56126 0.6506 0.0
C741 C 0.14779 0.57992 0.68746 0.0
C742 C 0.17279 0.56559 0.62981 0.0
C743 C 0.19473 0.5926 0.62365 0.0
C744 C 0.164 0.5841 0.66537 0.0
C745 C 0.20066 0.61493 0.63891 0.0
C746 C 0.14991 0.60269 0.7003 0.0
C747 C 0.11394 0.54793 0.71506 0.0
N748 N 0.18529 0.6102 0.65907 0.0
N749 N 0.12998 0.55336 0.69531 0.0
H750 H 0.58314 0.10081 0.89259 0.0
H751 H 0.58253 0.2116 0.80204 0.0
H752 H 0.52146 0.12917 0.89628 0.0
H753 H 0.62885 0.16713 0.79095 0.0
H754 H 0.56299 0.18528 0.83854 0.0
H755 H 0.60371 0.12927 0.85748 0.0
C756 C 0.57412 0.1133 0.88615 0.0
C757 C 0.55061 0.1127 0.89741 0.0
C758 C 0.57741 0.18131 0.82807 0.0
C759 C 0.57383 0.14507 0.85698 0.0
C760 C 0.58861 0.19634 0.80726 0.0
C761 C 0.60733 0.19153 0.79337 0.0
C762 C 0.58521 0.16156 0.83511 0.0
C763 C 0.61443 0.17148 0.80101 0.0
C764 C 0.58572 0.12935 0.86597 0.0
C765 C 0.53946 0.1289 0.88802 0.0
N766 N 0.60343 0.15732 0.82137 0.0
N767 N 0.55121 0.14449 0.86833 0.0
H768 H 0.49444 0.6105 0.0787 0.0
H769 H 0.36831 0.58997 0.99242 0.0
H770 H 0.41369 0.5329 0.07222 0.0
H771 H 0.45666 0.65437 0.98193 0.0
H772 H 0.38299 0.57283 0.02619 0.0
H773 H 0.47938 0.63053 0.04718 0.0
C774 C 0.4736 0.59762 0.07067 0.0
C775 C 0.45537 0.56987 0.07815 0.0
C776 C 0.39915 0.59076 0.01654 0.0
C777 C 0.43786 0.59295 0.04244 0.0
C778 C 0.39079 0.60064 -0.00268 0.0
C779 C 0.41135 0.62353 0.98427 0.0
C780 C 0.42824 0.60401 0.02292 0.0
C781 C 0.44017 0.63655 0.99144 0.0
C782 C 0.46499 0.60916 0.05277 0.0
C783 C 0.42834 0.55448 0.06738 0.0
N784 N 0.4478 0.62658 0.01032 0.0
N785 N 0.42043 0.56623 0.0501 0.0
H786 H 0.85901 0.4257 0.24163 0.0
H787 H 0.86038 0.44628 0.10407 0.0
H788 H 0.93541 0.4526 0.19997 0.0
H789 H 0.78397 0.38482 0.14012 0.0
H790 H 0.88813 0.45277 0.13989 0.0
H791 H 0.83057 0.41418 0.20534 0.0
C792 C 0.8697 0.42902 0.22483 0.0
C793 C 0.8995 0.44004 0.22368 0.0
C794 C 0.86533 0.43772 0.13989 0.0
C795 C 0.86741 0.42737 0.18239 0.0
C796 C 0.84947 0.4341 0.11951 0.0
C797 C 0.81984 0.41502 0.11916 0.0
C798 C 0.85136 0.4226 0.16019 0.0
C799 C 0.8068 0.39968 0.13964 0.0
C800 C 0.85352 0.42236 0.20421 0.0
C801 C 0.91242 0.44392 0.20155 0.0
N802 N 0.8226 0.40404 0.15946 0.0
N803 N 0.89634 0.43789 0.18174 0.0
loop_
_geom_bond_atom_site_label_1
_geom_bond_atom_site_label_2
_geom_bond_distance
_geom_bond_site_symmetry_2
_ccdc_geom_bond_type
H0 C19 0.949 . S
H1 C20 0.950 . S
H2 C22 0.950 . S
H3 C23 0.950 . S
H4 C25 0.950 . S
H5 C28 0.950 . S
H6 C29 0.950 . S
H7 C31 0.951 . S
H8 C32 0.949 . S
H9 C34 0.949 . S
H10 C35 0.950 . S
H11 C37 0.950 . S
H12 C38 0.950 . S
H13 C40 0.950 1_655 S
H14 C43 0.950 . S
H15 C44 0.950 . S
H16 C46 0.951 . S
H17 C47 0.949 . S
C18 C19 1.376 . S
C18 C23 1.386 . S
C18 C24 1.483 . S
C19 H0 0.949 . S
C19 C18 1.376 . S
C19 C20 1.397 . S
C20 H1 0.950 . S
C20 C19 1.397 . S
C20 C21 1.391 . S
C21 C20 1.391 . S
C21 C22 1.405 . S
C22 H2 0.950 . S
C22 C21 1.405 . S
C22 C23 1.367 . S
C23 H3 0.950 . S
C23 C18 1.386 . S
C23 C22 1.367 . S
C24 C18 1.483 . S
C24 C25 1.382 1_655 S
C24 C26 1.403 . S
C25 H4 0.950 . S
C25 C24 1.382 1_455 S
C25 C41 1.411 . S
C26 C24 1.403 . S
C26 C27 1.489 . S
C26 C40 1.411 1_655 S
C27 C26 1.489 . S
C27 C28 1.383 . S
C27 C32 1.382 . S
C28 H5 0.950 . S
C28 C27 1.383 . S
C28 C29 1.395 . S
C29 H6 0.950 . S
C29 C28 1.395 . S
C29 C30 1.288 . S
C30 C29 1.288 . S
C30 C31 1.392 . S
C31 H7 0.951 . S
C31 C30 1.392 . S
C31 C32 1.392 . S
C32 H8 0.949 . S
C32 C27 1.382 . S
C32 C31 1.392 . S
C33 C34 1.376 . S
C33 C38 1.386 . S
C33 C39 1.483 . S
C34 H9 0.949 . S
C34 C33 1.376 . S
C34 C35 1.397 . S
C35 H10 0.950 . S
C35 C34 1.397 . S
C35 C36 1.391 . S
C36 C35 1.391 . S
C36 C37 1.405 . S
C37 H11 0.950 . S
C37 C36 1.405 . S
C37 C38 1.367 . S
C38 H12 0.950 . S
C38 C33 1.386 . S
C38 C37 1.367 . S
C39 C33 1.483 . S
C39 C40 1.382 . S
C39 C41 1.403 . S
C40 H13 0.950 1_455 S
C40 C26 1.411 1_455 S
C40 C39 1.382 . S
C41 C25 1.411 . S
C41 C39 1.403 . S
C41 C42 1.489 . S
C42 C41 1.489 . S
C42 C43 1.383 . S
C42 C47 1.382 . S
C43 H14 0.950 . S
C43 C42 1.383 . S
C43 C44 1.395 . S
C44 H15 0.950 . S
C44 C43 1.395 . S
C44 C45 1.288 . S
C45 C44 1.288 . S
C45 C46 1.392 . S
C46 H16 0.951 . S
C46 C45 1.392 . S
C46 C47 1.392 . S
C47 H17 0.949 . S
C47 C42 1.382 . S
C47 C46 1.392 . S
H48 C67 0.949 . S
H49 C68 0.950 . S
H50 C70 0.950 . S
H51 C71 0.950 . S
H52 C73 0.950 1_565 S
H53 C76 0.950 . S
H54 C77 0.950 . S
H55 C79 0.951 . S
H56 C80 0.949 . S
H57 C82 0.949 . S
H58 C83 0.950 . S
H59 C85 0.950 . S
H60 C86 0.950 . S
H61 C88 0.950 . S
H62 C91 0.950 . S
H63 C92 0.950 . S
H64 C94 0.951 . S
H65 C95 0.949 . S
C66 C67 1.376 . S
C66 C71 1.386 . S
C66 C72 1.483 . S
C67 H48 0.949 . S
C67 C66 1.376 . S
C67 C68 1.397 . S
C68 H49 0.950 . S
C68 C67 1.397 . S
C68 C69 1.391 . S
C69 C68 1.391 . S
C69 C70 1.405 . S
C70 H50 0.950 . S
C70 C69 1.405 . S
C70 C71 1.367 . S
C71 H51 0.950 . S
C71 C66 1.386 . S
C71 C70 1.367 . S
C72 C66 1.483 . S
C72 C73 1.382 1_565 S
C72 C74 1.403 . S
C73 H52 0.950 1_545 S
C73 C72 1.382 1_545 S
C73 C89 1.411 . S
C74 C72 1.403 . S
C74 C75 1.489 . S
C74 C88 1.411 1_565 S
C75 C74 1.489 . S
C75 C76 1.383 . S
C75 C80 1.382 . S
C76 H53 0.950 . S
C76 C75 1.383 . S
C76 C77 1.395 . S
C77 H54 0.950 . S
C77 C76 1.395 . S
C77 C78 1.288 . S
C78 C77 1.288 . S
C78 C79 1.392 . S
C79 H55 0.951 . S
C79 C78 1.392 . S
C79 C80 1.392 . S
C80 H56 0.949 . S
C80 C75 1.382 . S
C80 C79 1.392 . S
C81 C82 1.376 . S
C81 C86 1.386 . S
C81 C87 1.483 . S
C82 H57 0.949 . S
C82 C81 1.376 . S
C82 C83 1.397 . S
C83 H58 0.950 . S
C83 C82 1.397 . S
C83 C84 1.391 . S
C84 C83 1.391 . S
C84 C85 1.405 . S
C85 H59 0.950 . S
C85 C84 1.405 . S
C85 C86 1.367 . S
C86 H60 0.950 . S
C86 C81 1.386 . S
C86 C85 1.367 . S
C87 C81 1.483 . S
C87 C88 1.382 . S
C87 C89 1.403 . S
C88 H61 0.950 . S
C88 C74 1.411 1_545 S
C88 C87 1.382 . S
C89 C73 1.411 . S
C89 C87 1.403 . S
C89 C90 1.489 . S
C90 C89 1.489 . S
C90 C91 1.383 . S
C90 C95 1.382 . S
C91 H62 0.950 . S
C91 C90 1.383 . S
C91 C92 1.395 . S
C92 H63 0.950 . S
C92 C91 1.395 . S
C92 C93 1.288 . S
C93 C92 1.288 . S
C93 C94 1.392 . S
C94 H64 0.951 . S
C94 C93 1.392 . S
C94 C95 1.392 . S
C95 H65 0.949 . S
C95 C90 1.382 . S
C95 C94 1.392 . S
H96 C115 0.949 . S
H97 C116 0.950 . S
H98 C118 0.950 . S
H99 C119 0.950 . S
H100 C121 0.950 . S
H101 C124 0.950 . S
H102 C125 0.950 . S
H103 C127 0.951 . S
H104 C128 0.949 . S
H105 C130 0.949 . S
H106 C131 0.950 . S
H107 C133 0.950 . S
H108 C134 0.950 . S
H109 C136 0.950 . S
H110 C139 0.950 . S
H111 C140 0.950 . S
H112 C142 0.951 . S
H113 C143 0.949 . S
C114 C115 1.376 . S
C114 C119 1.386 . S
C114 C120 1.483 . S
C115 H96 0.949 . S
C115 C114 1.376 . S
C115 C116 1.397 . S
C116 H97 0.950 . S
C116 C115 1.397 . S
C116 C117 1.391 . S
C117 C116 1.391 . S
C117 C118 1.405 . S
C118 H98 0.950 . S
C118 C117 1.405 . S
C118 C119 1.367 . S
C119 H99 0.950 . S
C119 C114 1.386 . S
C119 C118 1.367 . S
C120 C114 1.483 . S
C120 C121 1.382 . S
C120 C122 1.403 . S
C121 H100 0.950 . S
C121 C120 1.382 . S
C121 C137 1.411 . S
C122 C120 1.403 . S
C122 C123 1.489 . S
C122 C136 1.411 . S
C123 C122 1.489 . S
C123 C124 1.383 . S
C123 C128 1.382 . S
C124 H101 0.950 . S
C124 C123 1.383 . S
C124 C125 1.395 . S
C125 H102 0.950 . S
C125 C124 1.395 . S
C125 C126 1.288 . S
C126 C125 1.288 . S
C126 C127 1.392 . S
C127 H103 0.951 . S
C127 C126 1.392 . S
C127 C128 1.392 . S
C128 H104 0.949 . S
C128 C123 1.382 . S
C128 C127 1.392 . S
C129 C130 1.376 . S
C129 C134 1.386 . S
C129 C135 1.483 . S
C130 H105 0.949 . S
C130 C129 1.376 . S
C130 C131 1.397 . S
C131 H106 0.950 . S
C131 C130 1.397 . S
C131 C132 1.391 . S
C132 C131 1.391 . S
C132 C133 1.405 . S
C133 H107 0.950 . S
C133 C132 1.405 . S
C133 C134 1.367 . S
C134 H108 0.950 . S
C134 C129 1.386 . S
C134 C133 1.367 . S
C135 C129 1.483 . S
C135 C136 1.382 . S
C135 C137 1.403 . S
C136 H109 0.950 . S
C136 C122 1.411 . S
C136 C135 1.382 . S
C137 C121 1.411 . S
C137 C135 1.403 . S
C137 C138 1.489 . S
C138 C137 1.489 . S
C138 C139 1.383 . S
C138 C143 1.382 . S
C139 H110 0.950 . S
C139 C138 1.383 . S
C139 C140 1.395 . S
C140 H111 0.950 . S
C140 C139 1.395 . S
C140 C141 1.288 . S
C141 C140 1.288 . S
C141 C142 1.392 . S
C142 H112 0.951 . S
C142 C141 1.392 . S
C142 C143 1.392 . S
C143 H113 0.949 . S
C143 C138 1.382 . S
C143 C142 1.392 . S
H144 C163 0.949 . S
H145 C164 0.950 . S
H146 C166 0.950 . S
H147 C167 0.950 . S
H148 C169 0.937 1_655 S
H149 C172 0.950 . S
H150 C173 0.950 . S
H151 C175 0.951 . S
H152 C176 0.949 . S
H153 C178 0.949 . S
H154 C179 0.950 . S
H155 C181 0.950 . S
H156 C182 0.950 . S
H157 C184 0.950 . S
H158 C187 0.950 . S
H159 C188 0.950 . S
H160 C190 0.951 . S
H161 C191 0.949 . S
C162 C163 1.376 . S
C162 C167 1.386 . S
C162 C168 1.483 . S
C163 H144 0.949 . S
C163 C162 1.376 . S
C163 C164 1.397 . S
C164 H145 0.950 . S
C164 C163 1.397 . S
C164 C165 1.391 . S
C165 C164 1.391 . S
C165 C166 1.405 . S
C166 H146 0.950 . S
C166 C165 1.405 . S
C166 C167 1.367 . S
C167 H147 0.950 . S
C167 C162 1.386 . S
C167 C166 1.367 . S
C168 C162 1.483 . S
C168 C169 1.419 . S
C168 C170 1.403 . S
C169 H148 0.937 1_455 S
C169 C168 1.419 . S
C169 C185 1.387 1_455 S
C170 C168 1.403 . S
C170 C171 1.489 . S
C170 C184 1.411 . S
C171 C170 1.489 . S
C171 C172 1.383 . S
C171 C176 1.382 . S
C172 H149 0.950 . S
C172 C171 1.383 . S
C172 C173 1.395 . S
C173 H150 0.950 . S
C173 C172 1.395 . S
C173 C174 1.288 . S
C174 C173 1.288 . S
C174 C175 1.392 . S
C175 H151 0.951 . S
C175 C174 1.392 . S
C175 C176 1.392 . S
C176 H152 0.949 . S
C176 C171 1.382 . S
C176 C175 1.392 . S
C177 C178 1.376 . S
C177 C182 1.386 . S
C177 C183 1.483 . S
C178 H153 0.949 . S
C178 C177 1.376 . S
C178 C179 1.397 . S
C179 H154 0.950 . S
C179 C178 1.397 . S
C179 C180 1.391 . S
C180 C179 1.391 . S
C180 C181 1.405 . S
C181 H155 0.950 . S
C181 C180 1.405 . S
C181 C182 1.367 . S
C182 H156 0.950 . S
C182 C177 1.386 . S
C182 C181 1.367 . S
C183 C177 1.483 . S
C183 C184 1.382 1_655 S
C183 C185 1.403 . S
C184 H157 0.950 . S
C184 C170 1.411 . S
C184 C183 1.382 1_455 S
C185 C169 1.387 1_655 S
C185 C183 1.403 . S
C185 C186 1.489 . S
C186 C185 1.489 . S
C186 C187 1.383 . S
C186 C191 1.382 . S
C187 H158 0.950 . S
C187 C186 1.383 . S
C187 C188 1.395 . S
C188 H159 0.950 . S
C188 C187 1.395 . S
C188 C189 1.288 . S
C189 C188 1.288 . S
C189 C190 1.392 . S
C190 H160 0.951 . S
C190 C189 1.392 . S
C190 C191 1.392 . S
C191 H161 0.949 . S
C191 C186 1.382 . S
C191 C190 1.392 . S
H192 C211 0.949 . S
H193 C212 0.950 . S
H194 C214 0.950 . S
H195 C215 0.948 1_556 S
H196 C217 0.950 . S
H197 C220 0.950 . S
H198 C221 0.950 . S
H199 C223 0.951 . S
H200 C224 0.949 . S
H201 C226 0.949 . S
H202 C227 0.950 . S
H203 C229 0.950 . S
H204 C230 0.950 . S
H205 C232 0.960 . S
H206 C235 0.950 . S
H207 C236 0.950 . S
H208 C238 0.951 . S
H209 C239 0.949 . S
C210 C211 1.376 . S
C210 C215 1.387 . S
C210 C216 1.483 1_554 S
C211 H192 0.949 . S
C211 C210 1.376 . S
C211 C212 1.397 . S
C212 H193 0.950 . S
C212 C211 1.397 . S
C212 C213 1.391 . S
C213 C212 1.391 . S
C213 C214 1.405 . S
C214 H194 0.950 . S
C214 C213 1.405 . S
C214 C215 1.369 . S
C215 H195 0.948 1_554 S
C215 C210 1.387 . S
C215 C214 1.369 . S
C216 C210 1.483 1_556 S
C216 C217 1.382 1_556 S
C216 C218 1.403 . S
C217 H196 0.950 . S
C217 C216 1.382 1_554 S
C217 C233 1.411 1_545 S
C218 C216 1.403 . S
C218 C219 1.489 . S
C218 C232 1.376 1_545 S
C219 C218 1.489 . S
C219 C220 1.383 . S
C219 C224 1.382 . S
C220 H197 0.950 . S
C220 C219 1.383 . S
C220 C221 1.395 . S
C221 H198 0.950 . S
C221 C220 1.395 . S
C221 C222 1.288 . S
C222 C221 1.288 . S
C222 C223 1.392 . S
C223 H199 0.951 . S
C223 C222 1.392 . S
C223 C224 1.392 . S
C224 H200 0.949 . S
C224 C219 1.382 . S
C224 C223 1.392 . S
C225 C226 1.376 . S
C225 C230 1.386 . S
C225 C231 1.483 . S
C226 H201 0.949 . S
C226 C225 1.376 . S
C226 C227 1.397 . S
C227 H202 0.950 . S
C227 C226 1.397 . S
C227 C228 1.391 . S
C228 C227 1.391 . S
C228 C229 1.405 . S
C229 H203 0.950 . S
C229 C228 1.405 . S
C229 C230 1.367 . S
C230 H204 0.950 . S
C230 C225 1.386 . S
C230 C229 1.367 . S
C231 C225 1.483 . S
C231 C232 1.409 . S
C231 C233 1.403 1_556 S
C232 H205 0.960 . S
C232 C218 1.376 1_565 S
C232 C231 1.409 . S
C233 C217 1.411 1_565 S
C233 C231 1.403 1_554 S
C233 C234 1.489 . S
C234 C233 1.489 . S
C234 C235 1.383 . S
C234 C239 1.382 . S
C235 H206 0.950 . S
C235 C234 1.383 . S
C235 C236 1.395 . S
C236 H207 0.950 . S
C236 C235 1.395 . S
C236 C237 1.288 . S
C237 C236 1.288 . S
C237 C238 1.392 . S
C238 H208 0.951 . S
C238 C237 1.392 . S
C238 C239 1.392 . S
C239 H209 0.949 . S
C239 C234 1.382 . S
C239 C238 1.392 . S
H240 C259 0.949 . S
H241 C260 0.950 . S
H242 C262 0.950 . S
H243 C263 0.950 . S
H244 C265 0.950 . S
H245 C268 0.950 . S
H246 C269 0.950 . S
H247 C271 0.951 . S
H248 C272 0.949 . S
H249 C274 0.949 . S
H250 C275 0.950 . S
H251 C277 0.950 . S
H252 C278 0.950 . S
H253 C280 0.950 . S
H254 C283 0.950 . S
H255 C284 0.950 . S
H256 C286 0.951 . S
H257 C287 0.949 . S
C258 C259 1.376 . S
C258 C263 1.386 . S
C258 C264 1.483 . S
C259 H240 0.949 . S
C259 C258 1.376 . S
C259 C260 1.397 . S
C260 H241 0.950 . S
C260 C259 1.397 . S
C260 C261 1.391 . S
C261 C260 1.391 . S
C261 C262 1.405 . S
C262 H242 0.950 . S
C262 C261 1.405 . S
C262 C263 1.367 . S
C263 H243 0.950 . S
C263 C258 1.386 . S
C263 C262 1.367 . S
C264 C258 1.483 . S
C264 C265 1.382 . S
C264 C266 1.403 . S
C265 H244 0.950 . S
C265 C264 1.382 . S
C265 C281 1.411 . S
C266 C264 1.403 . S
C266 C267 1.489 . S
C266 C280 1.411 . S
C267 C266 1.489 . S
C267 C268 1.383 . S
C267 C272 1.382 . S
C268 H245 0.950 . S
C268 C267 1.383 . S
C268 C269 1.395 . S
C269 H246 0.950 . S
C269 C268 1.395 . S
C269 C270 1.288 . S
C270 C269 1.288 . S
C270 C271 1.392 . S
C271 H247 0.951 . S
C271 C270 1.392 . S
C271 C272 1.392 . S
C272 H248 0.949 . S
C272 C267 1.382 . S
C272 C271 1.392 . S
C273 C274 1.376 . S
C273 C278 1.386 . S
C273 C279 1.483 . S
C274 H249 0.949 . S
C274 C273 1.376 . S
C274 C275 1.397 . S
C275 H250 0.950 . S
C275 C274 1.397 . S
C275 C276 1.391 . S
C276 C275 1.391 . S
C276 C277 1.405 . S
C277 H251 0.950 . S
C277 C276 1.405 . S
C277 C278 1.367 . S
C278 H252 0.950 . S
C278 C273 1.386 . S
C278 C277 1.367 . S
C279 C273 1.483 . S
C279 C280 1.382 . S
C279 C281 1.403 . S
C280 H253 0.950 . S
C280 C266 1.411 . S
C280 C279 1.382 . S
C281 C265 1.411 . S
C281 C279 1.403 . S
C281 C282 1.489 . S
C282 C281 1.489 . S
C282 C283 1.383 . S
C282 C287 1.382 . S
C283 H254 0.950 . S
C283 C282 1.383 . S
C283 C284 1.395 . S
C284 H255 0.950 . S
C284 C283 1.395 . S
C284 C285 1.288 . S
C285 C284 1.288 . S
C285 C286 1.392 . S
C286 H256 0.951 . S
C286 C285 1.392 . S
C286 C287 1.392 . S
C287 H257 0.949 . S
C287 C282 1.382 . S
C287 C286 1.392 . S
C288 O289 1.306 . S
C288 O291 1.160 . S
O289 C288 1.306 . S
O289 Cd290 2.228 . S
Cd290 O289 2.228 . S
Cd290 O294 2.273 . S
Cd290 O298 2.277 . S
O291 C288 1.160 . S
O291 Cd292 2.203 . S
Cd292 O291 2.203 . S
Cd292 O294 2.411 . S
Cd292 O295 2.333 . S
Cd292 O296 2.352 . S
Cd292 O300 2.277 . S
Cd292 O301 2.356 . S
C293 O298 1.209 . S
C293 O300 1.226 . S
O294 Cd290 2.273 . S
O294 Cd292 2.411 . S
O294 C297 1.320 . S
O295 Cd292 2.333 . S
O295 C297 1.214 . S
O296 Cd292 2.352 . S
O296 C299 1.258 . S
C297 O294 1.320 . S
C297 O295 1.214 . S
O298 Cd290 2.277 . S
O298 C293 1.209 . S
C299 O296 1.258 . S
C299 O301 1.282 . S
O300 Cd292 2.277 . S
O300 C293 1.226 . S
O301 Cd292 2.356 . S
O301 C299 1.282 . S
C302 O303 1.306 . S
C302 O305 1.160 . S
O303 C302 1.306 . S
O303 Cd304 2.228 . S
Cd304 O303 2.228 . S
Cd304 O308 2.273 . S
Cd304 O312 2.277 . S
O305 C302 1.160 . S
O305 Cd306 2.203 . S
Cd306 O305 2.203 . S
Cd306 O308 2.411 . S
Cd306 O309 2.333 . S
Cd306 O310 2.352 . S
Cd306 O314 2.277 . S
Cd306 O315 2.356 . S
C307 O312 1.209 . S
C307 O314 1.226 . S
O308 Cd304 2.273 . S
O308 Cd306 2.411 . S
O308 C311 1.320 . S
O309 Cd306 2.333 . S
O309 C311 1.214 . S
O310 Cd306 2.352 . S
O310 C313 1.258 . S
C311 O308 1.320 . S
C311 O309 1.214 . S
O312 Cd304 2.277 . S
O312 C307 1.209 . S
C313 O310 1.258 . S
C313 O315 1.282 . S
O314 Cd306 2.277 . S
O314 C307 1.226 . S
O315 Cd306 2.356 . S
O315 C313 1.282 . S
C316 O317 1.306 . S
C316 O319 1.160 . S
O317 C316 1.306 . S
O317 Cd318 2.228 . S
Cd318 O317 2.228 . S
Cd318 O322 2.273 . S
Cd318 O326 2.277 . S
O319 C316 1.160 . S
O319 Cd320 2.203 . S
Cd320 O319 2.203 . S
Cd320 O322 2.411 . S
Cd320 O323 2.333 . S
Cd320 O324 2.352 . S
Cd320 O328 2.277 . S
Cd320 O329 2.356 . S
C321 O326 1.209 . S
C321 O328 1.226 . S
O322 Cd318 2.273 . S
O322 Cd320 2.411 . S
O322 C325 1.320 . S
O323 Cd320 2.333 . S
O323 C325 1.214 . S
O324 Cd320 2.352 . S
O324 C327 1.258 . S
C325 O322 1.320 . S
C325 O323 1.214 . S
O326 Cd318 2.277 . S
O326 C321 1.209 . S
C327 O324 1.258 . S
C327 O329 1.282 . S
O328 Cd320 2.277 . S
O328 C321 1.226 . S
O329 Cd320 2.356 . S
O329 C327 1.282 . S
C330 O331 1.306 . S
C330 O333 1.160 . S
O331 C330 1.306 . S
O331 Cd332 2.228 . S
Cd332 O331 2.228 . S
Cd332 O336 2.273 . S
Cd332 O340 2.277 . S
O333 C330 1.160 . S
O333 Cd334 2.203 . S
Cd334 O333 2.203 . S
Cd334 O336 2.411 . S
Cd334 O337 2.333 . S
Cd334 O338 2.352 . S
Cd334 O342 2.277 . S
Cd334 O343 2.356 . S
C335 O340 1.209 . S
C335 O342 1.226 . S
O336 Cd332 2.273 . S
O336 Cd334 2.411 . S
O336 C339 1.320 . S
O337 Cd334 2.333 . S
O337 C339 1.214 . S
O338 Cd334 2.352 . S
O338 C341 1.258 . S
C339 O336 1.320 . S
C339 O337 1.214 . S
O340 Cd332 2.277 . S
O340 C335 1.209 . S
C341 O338 1.258 . S
C341 O343 1.282 . S
O342 Cd334 2.277 . S
O342 C335 1.226 . S
O343 Cd334 2.356 . S
O343 C341 1.282 . S
C344 O345 1.306 . S
C344 O347 1.160 . S
O345 C344 1.306 . S
O345 Cd346 2.228 . S
Cd346 O345 2.228 . S
Cd346 O350 2.273 . S
Cd346 O354 2.277 . S
O347 C344 1.160 . S
O347 Cd348 2.203 . S
Cd348 O347 2.203 . S
Cd348 O350 2.411 . S
Cd348 O351 2.333 . S
Cd348 O352 2.352 . S
Cd348 O356 2.277 . S
Cd348 O357 2.356 . S
C349 O354 1.209 . S
C349 O356 1.226 . S
O350 Cd346 2.273 . S
O350 Cd348 2.411 . S
O350 C353 1.320 . S
O351 Cd348 2.333 . S
O351 C353 1.214 . S
O352 Cd348 2.352 . S
O352 C355 1.258 . S
C353 O350 1.320 . S
C353 O351 1.214 . S
O354 Cd346 2.277 . S
O354 C349 1.209 . S
C355 O352 1.258 . S
C355 O357 1.282 . S
O356 Cd348 2.277 . S
O356 C349 1.226 . S
O357 Cd348 2.356 . S
O357 C355 1.282 . S
C358 O359 1.306 . S
C358 O361 1.160 . S
O359 C358 1.306 . S
O359 Cd360 2.228 . S
Cd360 O359 2.228 . S
Cd360 O364 2.273 . S
Cd360 O368 2.277 . S
O361 C358 1.160 . S
O361 Cd362 2.203 . S
Cd362 O361 2.203 . S
Cd362 O364 2.411 . S
Cd362 O365 2.333 . S
Cd362 O366 2.352 . S
Cd362 O370 2.277 . S
Cd362 O371 2.356 . S
C363 O368 1.209 . S
C363 O370 1.226 . S
O364 Cd360 2.273 . S
O364 Cd362 2.411 . S
O364 C367 1.320 . S
O365 Cd362 2.333 . S
O365 C367 1.214 . S
O366 Cd362 2.352 . S
O366 C369 1.258 . S
C367 O364 1.320 . S
C367 O365 1.214 . S
O368 Cd360 2.277 . S
O368 C363 1.209 . S
C369 O366 1.258 . S
C369 O371 1.282 . S
O370 Cd362 2.277 . S
O370 C363 1.226 . S
O371 Cd362 2.356 . S
O371 C369 1.282 . S
H372 C378 0.930 . S
H373 C382 0.930 . S
H374 C387 0.929 . S
H375 C385 0.929 . S
H376 C380 0.929 . S
H377 C386 0.929 . S
C378 H372 0.930 . S
C378 C379 1.367 . S
C378 C386 1.378 . S
C379 C378 1.367 . S
C379 C387 1.433 . S
C380 H376 0.929 . S
C380 C382 1.378 . S
C380 C384 1.350 . S
C381 C384 1.463 . S
C381 C386 1.350 . S
C381 N389 1.427 . S
C382 H373 0.930 . S
C382 C380 1.378 . S
C382 C383 1.367 . S
C383 C382 1.367 . S
C383 C385 1.433 . S
C384 C380 1.350 . S
C384 C381 1.463 . S
C384 N388 1.427 . S
C385 H375 0.929 . S
C385 C383 1.433 . S
C385 N388 1.384 . S
C386 H377 0.929 . S
C386 C378 1.378 . S
C386 C381 1.350 . S
C387 H374 0.929 . S
C387 C379 1.433 . S
C387 N389 1.384 . S
N388 C384 1.427 . S
N388 C385 1.384 . S
N389 C381 1.427 . S
N389 C387 1.384 . S
H390 C396 0.930 . S
H391 C400 0.930 . S
H392 C405 0.929 . S
H393 C403 0.929 . S
H394 C398 0.929 . S
H395 C404 0.929 . S
C396 H390 0.930 . S
C396 C397 1.367 . S
C396 C404 1.378 . S
C397 C396 1.367 . S
C397 C405 1.433 . S
C398 H394 0.929 . S
C398 C400 1.378 . S
C398 C402 1.350 . S
C399 C402 1.463 . S
C399 C404 1.350 . S
C399 N407 1.427 . S
C400 H391 0.930 . S
C400 C398 1.378 . S
C400 C401 1.367 . S
C401 C400 1.367 . S
C401 C403 1.433 . S
C402 C398 1.350 . S
C402 C399 1.463 . S
C402 N406 1.427 . S
C403 H393 0.929 . S
C403 C401 1.433 . S
C403 N406 1.384 . S
C404 H395 0.929 . S
C404 C396 1.378 . S
C404 C399 1.350 . S
C405 H392 0.929 . S
C405 C397 1.433 . S
C405 N407 1.384 . S
N406 C402 1.427 . S
N406 C403 1.384 . S
N407 C399 1.427 . S
N407 C405 1.384 . S
H408 C414 0.930 . S
H409 C418 0.930 . S
H410 C423 0.929 . S
H411 C421 0.929 . S
H412 C416 0.929 . S
H413 C422 0.929 . S
C414 H408 0.930 . S
C414 C415 1.367 . S
C414 C422 1.378 . S
C415 C414 1.367 . S
C415 C423 1.433 . S
C416 H412 0.929 . S
C416 C418 1.378 . S
C416 C420 1.350 . S
C417 C420 1.463 . S
C417 C422 1.350 . S
C417 N425 1.427 . S
C418 H409 0.930 . S
C418 C416 1.378 . S
C418 C419 1.367 . S
C419 C418 1.367 . S
C419 C421 1.433 . S
C420 C416 1.350 . S
C420 C417 1.463 . S
C420 N424 1.427 . S
C421 H411 0.929 . S
C421 C419 1.433 . S
C421 N424 1.384 . S
C422 H413 0.929 . S
C422 C414 1.378 . S
C422 C417 1.350 . S
C423 H410 0.929 . S
C423 C415 1.433 . S
C423 N425 1.384 . S
N424 C420 1.427 . S
N424 C421 1.384 . S
N425 C417 1.427 . S
N425 C423 1.384 . S
H426 C432 0.930 . S
H427 C436 0.930 . S
H428 C441 0.929 . S
H429 C439 0.929 . S
H430 C434 0.929 . S
H431 C440 0.929 . S
C432 H426 0.930 . S
C432 C433 1.367 . S
C432 C440 1.378 . S
C433 C432 1.367 . S
C433 C441 1.433 . S
C434 H430 0.929 . S
C434 C436 1.378 . S
C434 C438 1.350 . S
C435 C438 1.463 . S
C435 C440 1.350 . S
C435 N443 1.427 . S
C436 H427 0.930 . S
C436 C434 1.378 . S
C436 C437 1.367 . S
C437 C436 1.367 . S
C437 C439 1.433 . S
C438 C434 1.350 . S
C438 C435 1.463 . S
C438 N442 1.427 . S
C439 H429 0.929 . S
C439 C437 1.433 . S
C439 N442 1.384 . S
C440 H431 0.929 . S
C440 C432 1.378 . S
C440 C435 1.350 . S
C441 H428 0.929 . S
C441 C433 1.433 . S
C441 N443 1.384 . S
N442 C438 1.427 . S
N442 C439 1.384 . S
N443 C435 1.427 . S
N443 C441 1.384 . S
H444 C450 0.930 . S
H445 C454 0.930 . S
H446 C459 0.929 . S
H447 C457 0.929 . S
H448 C452 0.929 . S
H449 C458 0.929 . S
C450 H444 0.930 . S
C450 C451 1.367 . S
C450 C458 1.378 . S
C451 C450 1.367 . S
C451 C459 1.433 . S
C452 H448 0.929 . S
C452 C454 1.378 . S
C452 C456 1.350 . S
C453 C456 1.463 . S
C453 C458 1.350 . S
C453 N461 1.427 . S
C454 H445 0.930 . S
C454 C452 1.378 . S
C454 C455 1.367 . S
C455 C454 1.367 . S
C455 C457 1.433 . S
C456 C452 1.350 . S
C456 C453 1.463 . S
C456 N460 1.427 . S
C457 H447 0.929 . S
C457 C455 1.433 . S
C457 N460 1.384 . S
C458 H449 0.929 . S
C458 C450 1.378 . S
C458 C453 1.350 . S
C459 H446 0.929 . S
C459 C451 1.433 . S
C459 N461 1.384 . S
N460 C456 1.427 . S
N460 C457 1.384 . S
N461 C453 1.427 . S
N461 C459 1.384 . S
H462 C468 0.930 . S
H463 C472 0.930 . S
H464 C477 0.929 . S
H465 C475 0.929 . S
H466 C470 0.929 . S
H467 C476 0.929 . S
C468 H462 0.930 . S
C468 C469 1.367 . S
C468 C476 1.378 . S
C469 C468 1.367 . S
C469 C477 1.433 . S
C470 H466 0.929 . S
C470 C472 1.378 . S
C470 C474 1.350 . S
C471 C474 1.463 . S
C471 C476 1.350 . S
C471 N479 1.427 . S
C472 H463 0.930 . S
C472 C470 1.378 . S
C472 C473 1.367 . S
C473 C472 1.367 . S
C473 C475 1.433 . S
C474 C470 1.350 . S
C474 C471 1.463 . S
C474 N478 1.427 . S
C475 H465 0.929 . S
C475 C473 1.433 . S
C475 N478 1.384 . S
C476 H467 0.929 . S
C476 C468 1.378 . S
C476 C471 1.350 . S
C477 H464 0.929 . S
C477 C469 1.433 . S
C477 N479 1.384 . S
N478 C474 1.427 . S
N478 C475 1.384 . S
N479 C471 1.427 . S
N479 C477 1.384 . S
H480 C486 0.930 . S
H481 C490 0.930 . S
H482 C495 0.929 . S
H483 C493 0.929 . S
H484 C488 0.929 . S
H485 C494 0.929 . S
C486 H480 0.930 . S
C486 C487 1.367 . S
C486 C494 1.378 . S
C487 C486 1.367 . S
C487 C495 1.433 . S
C488 H484 0.929 . S
C488 C490 1.378 . S
C488 C492 1.350 . S
C489 C492 1.463 . S
C489 C494 1.350 . S
C489 N497 1.427 . S
C490 H481 0.930 . S
C490 C488 1.378 . S
C490 C491 1.367 . S
C491 C490 1.367 . S
C491 C493 1.433 . S
C492 C488 1.350 . S
C492 C489 1.463 . S
C492 N496 1.427 . S
C493 H483 0.929 . S
C493 C491 1.433 . S
C493 N496 1.384 . S
C494 H485 0.929 . S
C494 C486 1.378 . S
C494 C489 1.350 . S
C495 H482 0.929 . S
C495 C487 1.433 . S
C495 N497 1.384 . S
N496 C492 1.427 . S
N496 C493 1.384 . S
N497 C489 1.427 . S
N497 C495 1.384 . S
H498 C504 0.930 . S
H499 C508 0.930 . S
H500 C513 0.929 . S
H501 C511 0.929 . S
H502 C506 0.929 . S
H503 C512 0.929 . S
C504 H498 0.930 . S
C504 C505 1.367 . S
C504 C512 1.378 . S
C505 C504 1.367 . S
C505 C513 1.433 . S
C506 H502 0.929 . S
C506 C508 1.378 . S
C506 C510 1.350 . S
C507 C510 1.463 . S
C507 C512 1.350 . S
C507 N515 1.427 . S
C508 H499 0.930 . S
C508 C506 1.378 . S
C508 C509 1.367 . S
C509 C508 1.367 . S
C509 C511 1.433 . S
C510 C506 1.350 . S
C510 C507 1.463 . S
C510 N514 1.427 . S
C511 H501 0.929 . S
C511 C509 1.433 . S
C511 N514 1.384 . S
C512 H503 0.929 . S
C512 C504 1.378 . S
C512 C507 1.350 . S
C513 H500 0.929 . S
C513 C505 1.433 . S
C513 N515 1.384 . S
N514 C510 1.427 . S
N514 C511 1.384 . S
N515 C507 1.427 . S
N515 C513 1.384 . S
H516 C522 0.930 . S
H517 C526 0.930 . S
H518 C531 0.929 . S
H519 C529 0.929 . S
H520 C524 0.929 . S
H521 C530 0.929 . S
C522 H516 0.930 . S
C522 C523 1.367 . S
C522 C530 1.378 . S
C523 C522 1.367 . S
C523 C531 1.433 . S
C524 H520 0.929 . S
C524 C526 1.378 . S
C524 C528 1.350 . S
C525 C528 1.463 . S
C525 C530 1.350 . S
C525 N533 1.427 . S
C526 H517 0.930 . S
C526 C524 1.378 . S
C526 C527 1.367 . S
C527 C526 1.367 . S
C527 C529 1.433 . S
C528 C524 1.350 . S
C528 C525 1.463 . S
C528 N532 1.427 . S
C529 H519 0.929 . S
C529 C527 1.433 . S
C529 N532 1.384 . S
C530 H521 0.929 . S
C530 C522 1.378 . S
C530 C525 1.350 . S
C531 H518 0.929 . S
C531 C523 1.433 . S
C531 N533 1.384 . S
N532 C528 1.427 . S
N532 C529 1.384 . S
N533 C525 1.427 . S
N533 C531 1.384 . S
H534 C540 0.968 . S
H535 C544 0.930 . S
H536 C549 0.929 . S
H537 C547 0.929 . S
H538 C542 0.929 . S
H539 C548 0.929 . S
C540 H534 0.968 . S
C540 C541 1.367 . S
C540 C548 1.378 . S
C541 C540 1.367 . S
C541 C549 1.433 . S
C542 H538 0.929 . S
C542 C544 1.378 . S
C542 C546 1.350 . S
C543 C546 1.463 . S
C543 C548 1.350 . S
C543 N551 1.427 . S
C544 H535 0.930 . S
C544 C542 1.378 . S
C544 C545 1.367 . S
C545 C544 1.367 . S
C545 C547 1.433 . S
C546 C542 1.350 . S
C546 C543 1.463 . S
C546 N550 1.427 . S
C547 H537 0.929 . S
C547 C545 1.433 . S
C547 N550 1.384 . S
C548 H539 0.929 . S
C548 C540 1.378 . S
C548 C543 1.350 . S
C549 H536 0.929 . S
C549 C541 1.433 . S
C549 N551 1.384 . S
N550 C546 1.427 . S
N550 C547 1.384 . S
N551 C543 1.427 . S
N551 C549 1.384 . S
H552 C558 0.930 . S
H553 C562 0.930 . S
H554 C567 0.929 . S
H555 C565 0.929 . S
H556 C560 0.929 . S
H557 C566 0.929 . S
C558 H552 0.930 . S
C558 C559 1.367 . S
C558 C566 1.378 . S
C559 C558 1.367 . S
C559 C567 1.433 . S
C560 H556 0.929 . S
C560 C562 1.378 . S
C560 C564 1.350 . S
C561 C564 1.463 . S
C561 C566 1.350 . S
C561 N569 1.427 . S
C562 H553 0.930 . S
C562 C560 1.378 . S
C562 C563 1.367 . S
C563 C562 1.367 . S
C563 C565 1.433 . S
C564 C560 1.350 . S
C564 C561 1.463 . S
C564 N568 1.427 . S
C565 H555 0.929 . S
C565 C563 1.433 . S
C565 N568 1.384 . S
C566 H557 0.929 . S
C566 C558 1.378 . S
C566 C561 1.350 . S
C567 H554 0.929 . S
C567 C559 1.433 . S
C567 N569 1.384 . S
N568 C564 1.427 . S
N568 C565 1.384 . S
N569 C561 1.427 . S
N569 C567 1.384 . S
H570 C576 0.930 . S
H571 C580 0.930 . S
H572 C585 0.929 . S
H573 C583 0.929 . S
H574 C578 0.929 . S
H575 C584 0.929 . S
C576 H570 0.930 . S
C576 C577 1.367 . S
C576 C584 1.378 . S
C577 C576 1.367 . S
C577 C585 1.433 . S
C578 H574 0.929 . S
C578 C580 1.378 . S
C578 C582 1.350 . S
C579 C582 1.463 . S
C579 C584 1.350 . S
C579 N587 1.427 . S
C580 H571 0.930 . S
C580 C578 1.378 . S
C580 C581 1.367 . S
C581 C580 1.367 . S
C581 C583 1.433 . S
C582 C578 1.350 . S
C582 C579 1.463 . S
C582 N586 1.427 . S
C583 H573 0.929 . S
C583 C581 1.433 . S
C583 N586 1.384 . S
C584 H575 0.929 . S
C584 C576 1.378 . S
C584 C579 1.350 . S
C585 H572 0.929 . S
C585 C577 1.433 . S
C585 N587 1.384 . S
N586 C582 1.427 . S
N586 C583 1.384 . S
N587 C579 1.427 . S
N587 C585 1.384 . S
H588 C594 0.930 . S
H589 C598 0.930 . S
H590 C603 0.929 . S
H591 C601 0.929 . S
H592 C596 0.929 . S
H593 C602 0.929 . S
C594 H588 0.930 . S
C594 C595 1.367 . S
C594 C602 1.378 . S
C595 C594 1.367 . S
C595 C603 1.433 . S
C596 H592 0.929 . S
C596 C598 1.378 . S
C596 C600 1.350 . S
C597 C600 1.463 . S
C597 C602 1.350 . S
C597 N605 1.427 . S
C598 H589 0.930 . S
C598 C596 1.378 . S
C598 C599 1.367 . S
C599 C598 1.367 . S
C599 C601 1.433 . S
C600 C596 1.350 . S
C600 C597 1.463 . S
C600 N604 1.427 . S
C601 H591 0.929 . S
C601 C599 1.433 . S
C601 N604 1.384 . S
C602 H593 0.929 . S
C602 C594 1.378 . S
C602 C597 1.350 . S
C603 H590 0.929 . S
C603 C595 1.433 . S
C603 N605 1.384 . S
N604 C600 1.427 . S
N604 C601 1.384 . S
N605 C597 1.427 . S
N605 C603 1.384 . S
H606 C612 0.930 . S
H607 C616 0.930 . S
H608 C621 0.929 . S
H609 C619 0.929 . S
H610 C614 0.929 . S
H611 C620 0.929 . S
C612 H606 0.930 . S
C612 C613 1.367 . S
C612 C620 1.378 . S
C613 C612 1.367 . S
C613 C621 1.433 . S
C614 H610 0.929 . S
C614 C616 1.378 . S
C614 C618 1.350 . S
C615 C618 1.463 . S
C615 C620 1.350 . S
C615 N623 1.427 . S
C616 H607 0.930 . S
C616 C614 1.378 . S
C616 C617 1.367 . S
C617 C616 1.367 . S
C617 C619 1.433 . S
C618 C614 1.350 . S
C618 C615 1.463 . S
C618 N622 1.427 . S
C619 H609 0.929 . S
C619 C617 1.433 . S
C619 N622 1.384 . S
C620 H611 0.929 . S
C620 C612 1.378 . S
C620 C615 1.350 . S
C621 H608 0.929 . S
C621 C613 1.433 . S
C621 N623 1.384 . S
N622 C618 1.427 . S
N622 C619 1.384 . S
N623 C615 1.427 . S
N623 C621 1.384 . S
H624 C630 0.930 . S
H625 C634 0.930 . S
H626 C639 0.929 . S
H627 C637 0.929 . S
H628 C632 0.929 . S
H629 C638 0.929 . S
C630 H624 0.930 . S
C630 C631 1.367 . S
C630 C638 1.378 . S
C631 C630 1.367 . S
C631 C639 1.433 . S
C632 H628 0.929 . S
C632 C634 1.378 . S
C632 C636 1.350 . S
C633 C636 1.463 . S
C633 C638 1.350 . S
C633 N641 1.427 . S
C634 H625 0.930 . S
C634 C632 1.378 . S
C634 C635 1.367 . S
C635 C634 1.367 . S
C635 C637 1.433 . S
C636 C632 1.350 . S
C636 C633 1.463 . S
C636 N640 1.427 . S
C637 H627 0.929 . S
C637 C635 1.433 . S
C637 N640 1.384 . S
C638 H629 0.929 . S
C638 C630 1.378 . S
C638 C633 1.350 . S
C639 H626 0.929 . S
C639 C631 1.433 . S
C639 N641 1.384 . S
N640 C636 1.427 . S
N640 C637 1.384 . S
N641 C633 1.427 . S
N641 C639 1.384 . S
H642 C648 0.930 . S
H643 C652 0.930 . S
H644 C657 0.929 . S
H645 C655 0.929 . S
H646 C650 0.929 . S
H647 C656 0.929 . S
C648 H642 0.930 . S
C648 C649 1.367 . S
C648 C656 1.378 . S
C649 C648 1.367 . S
C649 C657 1.433 . S
C650 H646 0.929 . S
C650 C652 1.378 . S
C650 C654 1.350 1_554 S
C651 C654 1.463 . S
C651 C656 1.350 . S
C651 N659 1.427 . S
C652 H643 0.930 . S
C652 C650 1.378 . S
C652 C653 1.367 . S
C653 C652 1.367 . S
C653 C655 1.433 . S
C654 C650 1.350 1_556 S
C654 C651 1.463 . S
C654 N658 1.427 . S
C655 H645 0.929 . S
C655 C653 1.433 . S
C655 N658 1.384 1_554 S
C656 H647 0.929 . S
C656 C648 1.378 . S
C656 C651 1.350 . S
C657 H644 0.929 . S
C657 C649 1.433 . S
C657 N659 1.384 . S
N658 C654 1.427 . S
N658 C655 1.384 1_556 S
N659 C651 1.427 . S
N659 C657 1.384 . S
H660 C666 0.930 . S
H661 C670 0.930 . S
H662 C675 0.929 . S
H663 C673 0.929 . S
H664 C668 0.929 . S
H665 C674 0.929 . S
C666 H660 0.930 . S
C666 C667 1.367 . S
C666 C674 1.378 . S
C667 C666 1.367 . S
C667 C675 1.433 . S
C668 H664 0.929 . S
C668 C670 1.378 . S
C668 C672 1.350 . S
C669 C672 1.463 . S
C669 C674 1.350 . S
C669 N677 1.427 . S
C670 H661 0.930 . S
C670 C668 1.378 . S
C670 C671 1.367 . S
C671 C670 1.367 . S
C671 C673 1.433 . S
C672 C668 1.350 . S
C672 C669 1.463 . S
C672 N676 1.427 . S
C673 H663 0.929 . S
C673 C671 1.433 . S
C673 N676 1.384 . S
C674 H665 0.929 . S
C674 C666 1.378 . S
C674 C669 1.350 . S
C675 H662 0.929 . S
C675 C667 1.433 . S
C675 N677 1.384 . S
N676 C672 1.427 . S
N676 C673 1.384 . S
N677 C669 1.427 . S
N677 C675 1.384 . S
H678 C684 0.930 . S
H679 C688 0.930 . S
H680 C693 0.929 . S
H681 C691 0.929 . S
H682 C686 0.929 . S
H683 C692 0.929 . S
C684 H678 0.930 . S
C684 C685 1.367 . S
C684 C692 1.378 . S
C685 C684 1.367 . S
C685 C693 1.433 . S
C686 H682 0.929 . S
C686 C688 1.378 . S
C686 C690 1.350 . S
C687 C690 1.463 . S
C687 C692 1.350 . S
C687 N695 1.427 . S
C688 H679 0.930 . S
C688 C686 1.378 . S
C688 C689 1.367 . S
C689 C688 1.367 . S
C689 C691 1.433 . S
C690 C686 1.350 . S
C690 C687 1.463 . S
C690 N694 1.427 . S
C691 H681 0.929 . S
C691 C689 1.433 . S
C691 N694 1.384 . S
C692 H683 0.929 . S
C692 C684 1.378 . S
C692 C687 1.350 . S
C693 H680 0.929 . S
C693 C685 1.433 . S
C693 N695 1.384 . S
N694 C690 1.427 . S
N694 C691 1.384 . S
N695 C687 1.427 . S
N695 C693 1.384 . S
H696 C702 0.930 . S
H697 C706 0.930 . S
H698 C711 0.929 . S
H699 C709 0.929 . S
H700 C704 0.929 . S
H701 C710 0.929 . S
C702 H696 0.930 . S
C702 C703 1.367 . S
C702 C710 1.378 . S
C703 C702 1.367 . S
C703 C711 1.433 . S
C704 H700 0.929 . S
C704 C706 1.378 . S
C704 C708 1.350 . S
C705 C708 1.463 . S
C705 C710 1.350 . S
C705 N713 1.427 . S
C706 H697 0.930 . S
C706 C704 1.378 . S
C706 C707 1.367 . S
C707 C706 1.367 . S
C707 C709 1.433 . S
C708 C704 1.350 . S
C708 C705 1.463 . S
C708 N712 1.427 . S
C709 H699 0.929 . S
C709 C707 1.433 . S
C709 N712 1.384 . S
C710 H701 0.929 . S
C710 C702 1.378 . S
C710 C705 1.350 . S
C711 H698 0.929 . S
C711 C703 1.433 . S
C711 N713 1.384 . S
N712 C708 1.427 . S
N712 C709 1.384 . S
N713 C705 1.427 . S
N713 C711 1.384 . S
H714 C720 0.930 . S
H715 C724 0.930 . S
H716 C729 0.929 . S
H717 C727 0.929 . S
H718 C722 0.929 . S
H719 C728 0.929 . S
C720 H714 0.930 . S
C720 C721 1.367 . S
C720 C728 1.378 . S
C721 C720 1.367 . S
C721 C729 1.433 . S
C722 H718 0.929 . S
C722 C724 1.378 . S
C722 C726 1.350 . S
C723 C726 1.463 . S
C723 C728 1.350 . S
C723 N731 1.427 . S
C724 H715 0.930 . S
C724 C722 1.378 . S
C724 C725 1.367 . S
C725 C724 1.367 . S
C725 C727 1.433 . S
C726 C722 1.350 . S
C726 C723 1.463 . S
C726 N730 1.427 . S
C727 H717 0.929 . S
C727 C725 1.433 . S
C727 N730 1.384 . S
C728 H719 0.929 . S
C728 C720 1.378 . S
C728 C723 1.350 . S
C729 H716 0.929 . S
C729 C721 1.433 . S
C729 N731 1.384 . S
N730 C726 1.427 . S
N730 C727 1.384 . S
N731 C723 1.427 . S
N731 C729 1.384 . S
H732 C738 0.930 . S
H733 C742 0.930 . S
H734 C747 0.929 . S
H735 C745 0.929 . S
H736 C740 0.929 . S
H737 C746 0.929 . S
C738 H732 0.930 . S
C738 C739 1.367 . S
C738 C746 1.378 . S
C739 C738 1.367 . S
C739 C747 1.433 . S
C740 H736 0.929 . S
C740 C742 1.378 . S
C740 C744 1.350 . S
C741 C744 1.463 . S
C741 C746 1.350 . S
C741 N749 1.427 . S
C742 H733 0.930 . S
C742 C740 1.378 . S
C742 C743 1.367 . S
C743 C742 1.367 . S
C743 C745 1.433 . S
C744 C740 1.350 . S
C744 C741 1.463 . S
C744 N748 1.427 . S
C745 H735 0.929 . S
C745 C743 1.433 . S
C745 N748 1.384 . S
C746 H737 0.929 . S
C746 C738 1.378 . S
C746 C741 1.350 . S
C747 H734 0.929 . S
C747 C739 1.433 . S
C747 N749 1.384 . S
N748 C744 1.427 . S
N748 C745 1.384 . S
N749 C741 1.427 . S
N749 C747 1.384 . S
H750 C756 0.930 . S
H751 C760 0.930 . S
H752 C765 0.929 . S
H753 C763 0.929 . S
H754 C758 0.929 . S
H755 C764 0.929 . S
C756 H750 0.930 . S
C756 C757 1.367 . S
C756 C764 1.378 . S
C757 C756 1.367 . S
C757 C765 1.433 . S
C758 H754 0.929 . S
C758 C760 1.378 . S
C758 C762 1.350 . S
C759 C762 1.463 . S
C759 C764 1.350 . S
C759 N767 1.427 . S
C760 H751 0.930 . S
C760 C758 1.378 . S
C760 C761 1.367 . S
C761 C760 1.367 . S
C761 C763 1.433 . S
C762 C758 1.350 . S
C762 C759 1.463 . S
C762 N766 1.427 . S
C763 H753 0.929 . S
C763 C761 1.433 . S
C763 N766 1.384 . S
C764 H755 0.929 . S
C764 C756 1.378 . S
C764 C759 1.350 . S
C765 H752 0.929 . S
C765 C757 1.433 . S
C765 N767 1.384 . S
N766 C762 1.427 . S
N766 C763 1.384 . S
N767 C759 1.427 . S
N767 C765 1.384 . S
H768 C774 0.930 . S
H769 C778 0.930 . S
H770 C783 0.929 . S
H771 C781 0.929 . S
H772 C776 0.929 1_554 S
H773 C782 0.929 . S
C774 H768 0.930 . S
C774 C775 1.367 . S
C774 C782 1.378 . S
C775 C774 1.367 . S
C775 C783 1.433 . S
C776 H772 0.929 1_556 S
C776 C778 1.378 . S
C776 C780 1.341 1_556 S
C777 C780 1.486 . S
C777 C782 1.350 . S
C777 N785 1.427 . S
C778 H769 0.930 . S
C778 C776 1.378 . S
C778 C779 1.367 . S
C779 C778 1.367 . S
C779 C781 1.433 . S
C780 C776 1.341 1_554 S
C780 C777 1.486 . S
C780 N784 1.414 1_554 S
C781 H771 0.929 . S
C781 C779 1.433 . S
C781 N784 1.384 . S
C782 H773 0.929 . S
C782 C774 1.378 . S
C782 C777 1.350 . S
C783 H770 0.929 . S
C783 C775 1.433 . S
C783 N785 1.384 . S
N784 C780 1.414 1_556 S
N784 C781 1.384 . S
N785 C777 1.427 . S
N785 C783 1.384 . S
H786 C792 0.930 . S
H787 C796 0.930 . S
H788 C801 0.929 . S
H789 C799 0.929 . S
H790 C794 0.929 . S
H791 C800 0.929 . S
C792 H786 0.930 . S
C792 C793 1.367 . S
C792 C800 1.378 . S
C793 C792 1.367 . S
C793 C801 1.433 . S
C794 H790 0.929 . S
C794 C796 1.378 . S
C794 C798 1.350 . S
C795 C798 1.463 . S
C795 C800 1.350 . S
C795 N803 1.427 . S
C796 H787 0.930 . S
C796 C794 1.378 . S
C796 C797 1.367 . S
C797 C796 1.367 . S
C797 C799 1.433 . S
C798 C794 1.350 . S
C798 C795 1.463 . S
C798 N802 1.427 . S
C799 H789 0.929 . S
C799 C797 1.433 . S
C799 N802 1.384 . S
C800 H791 0.929 . S
C800 C792 1.378 . S
C800 C795 1.350 . S
C801 H788 0.929 . S
C801 C793 1.433 . S
C801 N803 1.384 . S
N802 C798 1.427 . S
N802 C799 1.384 . S
N803 C795 1.427 . S
N803 C801 1.384 . S
C383 C358 1.614 . S
C379 C45 1.616 . S
C397 C84 1.611 . S
C401 C299 1.625 . S
C415 C126 1.573 . S
C419 C302 1.602 . S
C433 C189 1.614 . S
C437 C316 1.615 . S
C455 C341 1.623 . S
C451 C228 1.613 . S
C469 C270 1.566 . S
C473 C344 1.603 . S
C487 C69 1.564 . S
C491 C313 1.591 . S
C505 C141 1.597 . S
C509 C327 1.600 . S
C523 C174 1.553 . S
C527 C330 1.580 . S
C545 C355 1.589 . S
C541 C213 1.566 . S
C563 C369 1.600 . S
C559 C285 1.597 . S
C581 C288 1.581 . S
C577 C30 1.551 . S
C595 C36 1.488 . S
C599 C311 1.483 . S
C613 C93 1.491 . S
C617 C325 1.493 . S
C635 C335 1.500 . S
C631 C117 1.496 . S
C649 C180 1.486 . S
C653 C353 1.480 . S
C671 C367 1.489 . S
C667 C237 1.495 . S
C689 C293 1.500 . S
C685 C261 1.499 . S
C707 C363 1.522 . S
C703 C78 1.514 . S
C721 C132 1.507 . S
C725 C297 1.501 . S
C743 C307 1.512 . S
C739 C165 1.505 . S
C757 C222 1.517 . S
C761 C321 1.522 . S
C775 C276 1.507 . S
C779 C339 1.506 . S
C793 C21 1.506 . S
C797 C349 1.512 . S
