# Generated by pormake.
# Topology wbl, (4,4)-cn, num edge types: 1
# Building blocks:
#     Node 0, Type 0, BuildingBlock: MIFKUJ_clean_linker_1, # of connection points: 4
#     Node 1, Type 0, BuildingBlock: MIFKUJ_clean_linker_1, # of connection points: 4
#     Node 2, Type 0, BuildingBlock: MIFKUJ_clean_linker_1, # of connection points: 4
#     Node 3, Type 0, BuildingBlock: MIFKUJ_clean_linker_1, # of connection points: 4
#     Node 4, Type 0, BuildingBlock: MIFKUJ_clean_linker_1, # of connection points: 4
#     Node 5, Type 0, BuildingBlock: MIFKUJ_clean_linker_1, # of connection points: 4
#     Node 6, Type 0, BuildingBlock: MIFKUJ_clean_linker_1, # of connection points: 4
#     Node 7, Type 0, BuildingBlock: MIFKUJ_clean_linker_1, # of connection points: 4
#     Node 8, Type 1, BuildingBlock: KUFVIS_clean_sbu_0, # of connection points: 4
#     Node 9, Type 1, BuildingBlock: KUFVIS_clean_sbu_0, # of connection points: 4
#     Node 10, Type 1, BuildingBlock: KUFVIS_clean_sbu_0, # of connection points: 4
#     Node 11, Type 1, BuildingBlock: KUFVIS_clean_sbu_0, # of connection points: 4
#     Node 12, Type 1, BuildingBlock: KUFVIS_clean_sbu_0, # of connection points: 4
#     Node 13, Type 1, BuildingBlock: KUFVIS_clean_sbu_0, # of connection points: 4
#     Node 14, Type 1, BuildingBlock: KUFVIS_clean_sbu_0, # of connection points: 4
#     Node 15, Type 1, BuildingBlock: KUFVIS_clean_sbu_0, # of connection points: 4
#     Edge 16, Type (0, 1), BuildingBlock: CIFDUS_clean_linker_0, # of connection points: 2
#     Edge 17, Type (0, 1), BuildingBlock: CIFDUS_clean_linker_0, # of connection points: 2
#     Edge 18, Type (0, 1), BuildingBlock: CIFDUS_clean_linker_0, # of connection points: 2
#     Edge 19, Type (0, 1), BuildingBlock: CIFDUS_clean_linker_0, # of connection points: 2
#     Edge 20, Type (0, 1), BuildingBlock: CIFDUS_clean_linker_0, # of connection points: 2
#     Edge 21, Type (0, 1), BuildingBlock: CIFDUS_clean_linker_0, # of connection points: 2
#     Edge 22, Type (0, 1), BuildingBlock: CIFDUS_clean_linker_0, # of connection points: 2
#     Edge 23, Type (0, 1), BuildingBlock: CIFDUS_clean_linker_0, # of connection points: 2
#     Edge 24, Type (0, 1), BuildingBlock: CIFDUS_clean_linker_0, # of connection points: 2
#     Edge 25, Type (0, 1), BuildingBlock: CIFDUS_clean_linker_0, # of connection points: 2
#     Edge 26, Type (0, 1), BuildingBlock: CIFDUS_clean_linker_0, # of connection points: 2
#     Edge 27, Type (0, 1), BuildingBlock: CIFDUS_clean_linker_0, # of connection points: 2
#     Edge 28, Type (0, 1), BuildingBlock: CIFDUS_clean_linker_0, # of connection points: 2
#     Edge 29, Type (0, 1), BuildingBlock: CIFDUS_clean_linker_0, # of connection points: 2
#     Edge 30, Type (0, 1), BuildingBlock: CIFDUS_clean_linker_0, # of connection points: 2
#     Edge 31, Type (0, 1), BuildingBlock: CIFDUS_clean_linker_0, # of connection points: 2
#     Edge 32, Type (0, 1), BuildingBlock: CIFDUS_clean_linker_0, # of connection points: 2
#     Edge 33, Type (0, 1), BuildingBlock: CIFDUS_clean_linker_0, # of connection points: 2
#     Edge 34, Type (0, 1), BuildingBlock: CIFDUS_clean_linker_0, # of connection points: 2
#     Edge 35, Type (0, 1), BuildingBlock: CIFDUS_clean_linker_0, # of connection points: 2
#     Edge 36, Type (0, 1), BuildingBlock: CIFDUS_clean_linker_0, # of connection points: 2
#     Edge 37, Type (0, 1), BuildingBlock: CIFDUS_clean_linker_0, # of connection points: 2
#     Edge 38, Type (0, 1), BuildingBlock: CIFDUS_clean_linker_0, # of connection points: 2
#     Edge 39, Type (0, 1), BuildingBlock: CIFDUS_clean_linker_0, # of connection points: 2
#     Edge 40, Type (0, 1), BuildingBlock: CIFDUS_clean_linker_0, # of connection points: 2
#     Edge 41, Type (0, 1), BuildingBlock: CIFDUS_clean_linker_0, # of connection points: 2
#     Edge 42, Type (0, 1), BuildingBlock: CIFDUS_clean_linker_0, # of connection points: 2
#     Edge 43, Type (0, 1), BuildingBlock: CIFDUS_clean_linker_0, # of connection points: 2
#     Edge 44, Type (0, 1), BuildingBlock: CIFDUS_clean_linker_0, # of connection points: 2
#     Edge 45, Type (0, 1), BuildingBlock: CIFDUS_clean_linker_0, # of connection points: 2
#     Edge 46, Type (0, 1), BuildingBlock: CIFDUS_clean_linker_0, # of connection points: 2
#     Edge 47, Type (0, 1), BuildingBlock: CIFDUS_clean_linker_0, # of connection points: 2
# Relax obj value: 0.148
# Max RMSD: 0.142
# Mean RMSD: 0.131
data_MOF--net-wbl--node1-KUFVIS_clean_sbu_0--node2-MIFKUJ_clean_linker_1--edge1-CIFDUS_clean_linker_0
_symmetry_space_group_name_H-M    P1
_symmetry_Int_Tables_number       1
_symmetry_cell_setting            triclinic
loop_
_symmetry_equiv_pos_as_xyz
'x, y, z'
_cell_length_a     41.42298
_cell_length_b     41.397397
_cell_length_c     66.679597
_cell_angle_alpha  90.041072
_cell_angle_beta   90.664933
_cell_angle_gamma 89.918396
loop_
_atom_site_label
_atom_site_type_symbol
_atom_site_fract_x
_atom_site_fract_y
_atom_site_fract_z
_atom_type_partial_charge
H0 H 0.989 0.09341 0.34058 0.0
H1 H 0.95184 0.11903 0.36365 0.0
H2 H 0.89987 0.02865 0.36861 0.0
H3 H 0.93486 0.00492 0.34356 0.0
H4 H 0.00737 0.007 0.35381 0.0
H5 H 0.97401 0.09921 0.30714 0.0
H6 H 0.92556 0.12344 0.29246 0.0
H7 H 0.90565 0.03382 0.26129 0.0
H8 H 0.95176 0.00887 0.27805 0.0
H9 H 0.05153 0.93243 0.30455 0.0
H10 H 0.10034 0.90786 0.2912 0.0
H11 H 0.12991 1.00095 0.26855 0.0
H12 H 0.08226 0.02568 0.28329 0.0
H13 H 0.01758 0.02058 0.28025 0.0
H14 H 0.01623 0.93517 0.34295 0.0
H15 H 0.04788 0.90022 0.36545 0.0
H16 H 0.12786 0.96667 0.36231 0.0
H17 H 0.09628 1.00127 0.33934 0.0
C18 C 0.96386 0.04771 0.3397 0.0
C19 C 0.96855 0.07973 0.3459 0.0
C20 C 0.94765 0.09407 0.35961 0.0
C21 C 0.92263 0.07608 0.36841 0.0
C22 C 0.91806 0.04388 0.36199 0.0
C23 C 0.93827 0.03001 0.34769 0.0
C24 C 0.98863 0.03114 0.32759 0.0
C25 C 0.00967 0.01011 0.33772 0.0
C26 C 0.99096 0.03461 0.30653 0.0
C27 C 0.96554 0.05166 0.29467 0.0
C28 C 0.95867 0.08454 0.29762 0.0
C29 C 0.93128 0.09865 0.28873 0.0
C30 C 0.9108 0.08041 0.2761 0.0
C31 C 0.91982 0.04837 0.27161 0.0
C32 C 0.94658 0.03409 0.28097 0.0
C33 C 0.06372 0.98115 0.29558 0.0
C34 C 0.06863 0.9476 0.29682 0.0
C35 C 0.09639 0.93344 0.28886 0.0
C36 C 0.11954 0.95245 0.27909 0.0
C37 C 0.11315 0.98564 0.27647 0.0
C38 C 0.08567 0.99983 0.28471 0.0
C39 C 0.03717 0.99725 0.30667 0.0
C40 C 0.01562 0.01796 0.29638 0.0
C41 C 0.03354 0.9929 0.32757 0.0
C42 C 0.05405 0.97063 0.33948 0.0
C43 C 0.04081 0.94186 0.34682 0.0
C44 C 0.05891 0.92188 0.35954 0.0
C45 C 0.09028 0.93076 0.36548 0.0
C46 C 0.10374 0.95933 0.35785 0.0
C47 C 0.08581 0.97902 0.34478 0.0
H48 H 0.99493 0.44707 0.53016 0.0
H49 H 0.96749 0.40076 0.51527 0.0
H50 H 0.87976 0.42764 0.54563 0.0
H51 H 0.90675 0.47532 0.55922 0.0
H52 H 0.98949 0.5106 0.52883 0.0
H53 H 0.97283 0.43024 0.58709 0.0
H54 H 0.94536 0.40427 0.61541 0.0
H55 H 0.89451 0.49318 0.62721 0.0
H56 H 0.92163 0.51882 0.59907 0.0
H57 H 0.99401 0.5892 0.59869 0.0
H58 H 0.02911 0.61894 0.6219 0.0
H59 H 0.1113 0.56474 0.60079 0.0
H60 H 0.07608 0.53595 0.57714 0.0
H61 H 0.9915 0.51996 0.60297 0.0
H62 H 0.98073 0.59258 0.54543 0.0
H63 H 0.00334 0.63877 0.52787 0.0
H64 H 0.09183 0.58559 0.51868 0.0
H65 H 0.06879 0.53917 0.53664 0.0
C66 C 0.95325 0.46435 0.54628 0.0
C67 C 0.96962 0.44334 0.53335 0.0
C68 C 0.95393 0.41656 0.52501 0.0
C69 C 0.9215 0.40989 0.52955 0.0
C70 C 0.90469 0.43188 0.54173 0.0
C71 C 0.92031 0.45897 0.54983 0.0
C72 C 0.97132 0.49082 0.55654 0.0
C73 C 0.99029 0.51211 0.54507 0.0
C74 C 0.97076 0.49484 0.57764 0.0
C75 C 0.94933 0.47647 0.5911 0.0
C76 C 0.95489 0.44369 0.59535 0.0
C77 C 0.93917 0.4289 0.61145 0.0
C78 C 0.91803 0.44689 0.62348 0.0
C79 C 0.91074 0.47888 0.61816 0.0
C80 C 0.92623 0.49351 0.60213 0.0
C81 C 0.03249 0.56048 0.5862 0.0
C82 C 0.01974 0.58443 0.5987 0.0
C83 C 0.03982 0.60115 0.61208 0.0
C84 C 0.07298 0.59381 0.61349 0.0
C85 C 0.08598 0.57119 0.60003 0.0
C86 C 0.06587 0.55469 0.58649 0.0
C87 C 0.01057 0.53809 0.57538 0.0
C88 C 0.99097 0.51784 0.58673 0.0
C89 C 0.00926 0.53619 0.55431 0.0
C90 C 0.02298 0.56248 0.54211 0.0
C91 C 0.00482 0.59071 0.53937 0.0
C92 C 0.01779 0.61705 0.52926 0.0
C93 C 0.04933 0.61581 0.52168 0.0
C94 C 0.06751 0.58732 0.52437 0.0
C95 C 0.05436 0.56076 0.53447 0.0
H96 H 0.4991 0.56847 0.84946 0.0
H97 H 0.46523 0.59315 0.87494 0.0
H98 H 0.38456 0.53519 0.8546 0.0
H99 H 0.41899 0.50995 0.82939 0.0
H100 H 0.5091 0.50164 0.8523 0.0
H101 H 0.46797 0.57887 0.79998 0.0
H102 H 0.4216 0.6027 0.78225 0.0
H103 H 0.38823 0.50676 0.76673 0.0
H104 H 0.43527 0.48362 0.78351 0.0
H105 H 0.54939 0.41549 0.80672 0.0
H106 H 0.59843 0.39246 0.79249 0.0
H107 H 0.61622 0.48246 0.76174 0.0
H108 H 0.5685 0.50593 0.77712 0.0
H109 H 0.50392 0.49423 0.77811 0.0
H110 H 0.52092 0.42194 0.84253 0.0
H111 H 0.55408 0.39564 0.86843 0.0
H112 H 0.62317 0.4734 0.86504 0.0
H113 H 0.58999 0.49939 0.83882 0.0
C114 C 0.4616 0.53735 0.83756 0.0
C115 C 0.47388 0.56172 0.85014 0.0
C116 C 0.4544 0.57596 0.86464 0.0
C117 C 0.42224 0.56594 0.86695 0.0
C118 C 0.40935 0.54315 0.85336 0.0
C119 C 0.4289 0.52891 0.83881 0.0
C120 C 0.48423 0.5176 0.82558 0.0
C121 C 0.50807 0.50026 0.83604 0.0
C122 C 0.48195 0.51454 0.8045 0.0
C123 C 0.45506 0.5295 0.79297 0.0
C124 C 0.45077 0.56313 0.7925 0.0
C125 C 0.42408 0.57667 0.78248 0.0
C126 C 0.40097 0.55677 0.77293 0.0
C127 C 0.40573 0.52305 0.77339 0.0
C128 C 0.43258 0.50965 0.78312 0.0
C129 C 0.55581 0.46285 0.79359 0.0
C130 C 0.56398 0.43034 0.79703 0.0
C131 C 0.59179 0.41698 0.78858 0.0
C132 C 0.61172 0.43577 0.77625 0.0
C133 C 0.60197 0.46752 0.77158 0.0
C134 C 0.57444 0.48092 0.78022 0.0
C135 C 0.5296 0.47911 0.80488 0.0
C136 C 0.50504 0.49578 0.79434 0.0
C137 C 0.53025 0.48067 0.82606 0.0
C138 C 0.55336 0.46226 0.83861 0.0
C139 C 0.54374 0.43273 0.84692 0.0
C140 C 0.56269 0.41775 0.86166 0.0
C141 C 0.59117 0.43249 0.86867 0.0
C142 C 0.60131 0.46157 0.85985 0.0
C143 C 0.58255 0.47631 0.84485 0.0
H144 H 0.49818 0.92622 0.04689 0.0
H145 H 0.47053 0.8798 0.03231 0.0
H146 H 0.3829 0.93649 0.02691 0.0
H147 H 0.41048 0.98191 0.04306 0.0
H148 H 0.49241 0.00708 0.03258 0.0
H149 H 0.48381 0.9208 0.084 0.0
H150 H 0.46306 0.88377 0.10918 0.0
H151 H 0.3936 0.95592 0.12714 0.0
H152 H 0.41346 0.99214 0.10119 0.0
H153 H 0.4768 0.08286 0.10201 0.0
H154 H 0.5049 0.11616 0.12692 0.0
H155 H 0.59312 0.06325 0.11579 0.0
H156 H 0.56515 0.03175 0.08999 0.0
H157 H 0.48033 0.00877 0.10658 0.0
H158 H 0.48947 0.09571 0.06142 0.0
H159 H 0.52264 0.14117 0.05087 0.0
H160 H 0.59181 0.07507 0.0256 0.0
H161 H 0.55873 0.02912 0.03681 0.0
C162 C 0.45628 0.9573 0.04613 0.0
C163 C 0.47311 0.92864 0.04231 0.0
C164 C 0.45718 0.90214 0.03379 0.0
C165 C 0.42418 0.90401 0.02843 0.0
C166 C 0.408 0.93365 0.03125 0.0
C167 C 0.42381 0.95987 0.04023 0.0
C168 C 0.4716 0.98314 0.05819 0.0
C169 C 0.48992 0.00734 0.04874 0.0
C170 C 0.46757 0.98412 0.0792 0.0
C171 C 0.44989 0.95908 0.0905 0.0
C172 C 0.46303 0.92802 0.09262 0.0
C173 C 0.45148 0.90707 0.10731 0.0
C174 C 0.427 0.91705 0.12043 0.0
C175 C 0.41226 0.94727 0.11723 0.0
C176 C 0.42365 0.96809 0.10242 0.0
C177 C 0.51899 0.055 0.09424 0.0
C178 C 0.50238 0.07908 0.10468 0.0
C179 C 0.51846 0.09784 0.11904 0.0
C180 C 0.55126 0.09218 0.12365 0.0
C181 C 0.56805 0.06875 0.11252 0.0
C182 C 0.55207 0.0505 0.09784 0.0
C183 C 0.5012 0.0322 0.08115 0.0
C184 C 0.48243 0.00865 0.09037 0.0
C185 C 0.50451 0.03219 0.06009 0.0
C186 C 0.52187 0.05902 0.05018 0.0
C187 C 0.51161 0.0909 0.05346 0.0
C188 C 0.5306 0.11684 0.04749 0.0
C189 C 0.55998 0.11152 0.03774 0.0
C190 C 0.56928 0.0797 0.03318 0.0
C191 C 0.55037 0.05353 0.03946 0.0
H192 H 0.02341 0.58115 0.92081 0.0
H193 H 0.05286 0.61326 0.89653 0.0
H194 H 0.10524 0.52761 0.87856 0.0
H195 H 0.07776 0.49668 0.90431 0.0
H196 H 0.00445 0.49875 0.90029 0.0
H197 H 0.05 0.57758 0.95249 0.0
H198 H 0.10272 0.59535 0.9647 0.0
H199 H 0.12381 0.49776 0.98405 0.0
H200 H 0.07256 0.47978 0.96977 0.0
H201 H 0.98522 0.43404 0.97732 0.0
H202 H 0.94036 0.40539 0.99322 0.0
H203 H 0.87246 0.4632 0.95903 0.0
H204 H 0.91705 0.49192 0.94365 0.0
H205 H 0.0067 0.49564 0.97462 0.0
H206 H 0.96511 0.41589 0.93259 0.0
H207 H 0.93214 0.38148 0.91127 0.0
H208 H 0.92067 0.46067 0.86928 0.0
H209 H 0.94885 0.49586 0.8922 0.0
C210 C 0.04922 0.53682 0.91484 0.0
C211 C 0.04239 0.56974 0.91228 0.0
C212 C 0.05881 0.5879 0.89801 0.0
C213 C 0.08137 0.57317 0.88525 0.0
C214 C 0.08866 0.54021 0.88825 0.0
C215 C 0.07284 0.5223 0.90295 0.0
C216 C 0.02742 0.51661 0.92697 0.0
C217 C 0.00419 0.49853 0.91656 0.0
C218 C 0.02938 0.51453 0.94811 0.0
C219 C 0.05793 0.52707 0.95929 0.0
C220 C 0.06625 0.55993 0.95898 0.0
C221 C 0.09627 0.57019 0.96643 0.0
C222 C 0.11817 0.54788 0.97493 0.0
C223 C 0.10827 0.5155 0.97692 0.0
C224 C 0.07867 0.50519 0.96901 0.0
C225 C 0.95448 0.46493 0.95917 0.0
C226 C 0.96064 0.44086 0.97356 0.0
C227 C 0.93501 0.42434 0.98249 0.0
C228 C 0.90282 0.43196 0.97738 0.0
C229 C 0.89688 0.45695 0.96353 0.0
C230 C 0.92239 0.47328 0.9546 0.0
C231 C 0.98115 0.48014 0.94788 0.0
C232 C 0.00588 0.49656 0.95836 0.0
C233 C 0.98136 0.4797 0.92661 0.0
C234 C 0.9593 0.45887 0.91432 0.0
C235 C 0.9542 0.42627 0.91926 0.0
C236 C 0.93587 0.4062 0.90664 0.0
C237 C 0.92344 0.41776 0.88822 0.0
C238 C 0.9286 0.45053 0.88344 0.0
C239 C 0.94557 0.47085 0.89647 0.0
H240 H 0.52737 0.55851 0.22042 0.0
H241 H 0.50845 0.6082 0.23596 0.0
H242 H 0.41378 0.59312 0.20958 0.0
H243 H 0.43215 0.54201 0.19564 0.0
H244 H 0.5176 0.49717 0.22106 0.0
H245 H 0.50663 0.57654 0.16604 0.0
H246 H 0.48244 0.61304 0.14099 0.0
H247 H 0.40705 0.5433 0.12942 0.0
H248 H 0.43141 0.50694 0.15427 0.0
H249 H 0.48866 0.4248 0.14799 0.0
H250 H 0.51224 0.39023 0.12268 0.0
H251 H 0.6076 0.4114 0.14632 0.0
H252 H 0.58368 0.44788 0.17088 0.0
H253 H 0.49696 0.48635 0.14797 0.0
H254 H 0.51115 0.4043 0.19741 0.0
H255 H 0.54295 0.36141 0.21311 0.0
H256 H 0.61322 0.43173 0.23318 0.0
H257 H 0.58124 0.47477 0.2171 0.0
C258 C 0.48153 0.54681 0.20632 0.0
C259 C 0.50234 0.56551 0.21833 0.0
C260 C 0.49153 0.59428 0.22699 0.0
C261 C 0.45972 0.60538 0.22363 0.0
C262 C 0.4384 0.5856 0.21256 0.0
C263 C 0.44909 0.55648 0.20425 0.0
C264 C 0.49424 0.51845 0.19505 0.0
C265 C 0.5132 0.49493 0.20506 0.0
C266 C 0.48819 0.51482 0.17424 0.0
C267 C 0.4707 0.53916 0.162 0.0
C268 C 0.48446 0.56954 0.15845 0.0
C269 C 0.47074 0.59023 0.14411 0.0
C270 C 0.44291 0.58094 0.1333 0.0
C271 C 0.42826 0.55124 0.13771 0.0
C272 C 0.4422 0.53042 0.15181 0.0
C273 C 0.53431 0.43906 0.16136 0.0
C274 C 0.51464 0.42167 0.14793 0.0
C275 C 0.52826 0.40156 0.13351 0.0
C276 C 0.56199 0.39798 0.13227 0.0
C277 C 0.5816 0.41395 0.14655 0.0
C278 C 0.5679 0.43446 0.16086 0.0
C279 C 0.51985 0.46497 0.17387 0.0
C280 C 0.50089 0.48824 0.16405 0.0
C281 C 0.52583 0.46805 0.19473 0.0
C282 C 0.5439 0.44271 0.20596 0.0
C283 C 0.53326 0.41056 0.20533 0.0
C284 C 0.55139 0.38608 0.21445 0.0
C285 C 0.58064 0.39314 0.22445 0.0
C286 C 0.59092 0.4255 0.22548 0.0
C287 C 0.57257 0.45011 0.21644 0.0
H288 H 0.47144 0.93569 0.41881 0.0
H289 H 0.44182 0.90593 0.39293 0.0
H290 H 0.38439 0.99113 0.38044 0.0
H291 H 0.41582 0.02113 0.40544 0.0
H292 H 0.49186 0.01562 0.39863 0.0
H293 H 0.47014 0.95282 0.47538 0.0
H294 H 0.42323 0.93016 0.49272 0.0
H295 H 0.36097 0.99702 0.46084 0.0
H296 H 0.40762 0.02 0.44436 0.0
H297 H 0.53049 0.0794 0.47247 0.0
H298 H 0.58195 0.09696 0.48792 0.0
H299 H 0.63131 0.01973 0.45725 0.0
H300 H 0.58036 0.00257 0.44197 0.0
H301 H 0.4978 0.01479 0.47302 0.0
H302 H 0.53846 0.09386 0.4266 0.0
H303 H 0.57198 0.12278 0.40245 0.0
H304 H 0.58565 0.03377 0.36962 0.0
H305 H 0.55333 0.00514 0.39402 0.0
C306 C 0.44562 0.98048 0.41407 0.0
C307 C 0.45185 0.94761 0.41083 0.0
C308 C 0.43479 0.93061 0.39602 0.0
C309 C 0.41092 0.94617 0.3843 0.0
C310 C 0.40314 0.97853 0.38876 0.0
C311 C 0.42071 0.99566 0.40327 0.0
C312 C 0.46916 0.99993 0.42568 0.0
C313 C 0.49317 0.01565 0.4149 0.0
C314 C 0.46987 1.0007 0.44685 0.0
C315 C 0.44232 0.98787 0.45842 0.0
C316 C 0.44637 0.96276 0.47238 0.0
C317 C 0.41952 0.94969 0.48215 0.0
C318 C 0.38826 0.96177 0.47823 0.0
C319 C 0.38462 0.98739 0.46453 0.0
C320 C 0.4113 1.00035 0.45486 0.0
C321 C 0.55168 0.03965 0.45615 0.0
C322 C 0.55243 0.06621 0.46926 0.0
C323 C 0.58178 0.07634 0.47792 0.0
C324 C 0.61058 0.05961 0.47385 0.0
C325 C 0.6095 0.03287 0.46086 0.0
C326 C 0.58042 0.02307 0.45209 0.0
C327 C 0.52152 0.02951 0.44579 0.0
C328 C 0.49642 0.01516 0.45678 0.0
C329 C 0.51918 0.03072 0.42464 0.0
C330 C 0.54339 0.04734 0.41209 0.0
C331 C 0.54949 0.08049 0.4145 0.0
C332 C 0.56836 0.09705 0.40057 0.0
C333 C 0.58145 0.08068 0.38403 0.0
C334 C 0.57646 0.04716 0.38229 0.0
C335 C 0.55771 0.03072 0.39617 0.0
H336 H 0.00904 0.06117 0.72122 0.0
H337 H 0.9848 0.10949 0.73578 0.0
H338 H 0.89082 0.07837 0.71462 0.0
H339 H 0.91506 0.02928 0.70108 0.0
H340 H 0.00277 0.99426 0.7243 0.0
H341 H 0.98378 0.07658 0.66841 0.0
H342 H 0.95041 0.10991 0.64575 0.0
H343 H 0.88451 0.03016 0.63752 0.0
H344 H 0.91816 0.99687 0.65987 0.0
H345 H 0.99625 0.92846 0.6458 0.0
H346 H 0.03083 0.90225 0.62137 0.0
H347 H 0.11525 0.93729 0.65323 0.0
H348 H 0.08031 0.96448 0.67733 0.0
H349 H 0.99073 0.98973 0.65021 0.0
H350 H 0.00685 0.90515 0.69367 0.0
H351 H 0.03656 0.86116 0.70955 0.0
H352 H 0.09574 0.93025 0.74169 0.0
H353 H 0.06597 0.97462 0.72528 0.0
C354 C 0.964 0.04185 0.70973 0.0
C355 C 0.98312 0.06438 0.72014 0.0
C356 C 0.96924 0.09224 0.72822 0.0
C357 C 0.9359 0.09826 0.726 0.0
C358 C 0.91653 0.07463 0.71665 0.0
C359 C 0.93042 0.04662 0.70872 0.0
C360 C 0.97968 0.01547 0.69824 0.0
C361 C 1.00035 0.99337 0.7081 0.0
C362 C 0.97524 0.01292 0.67724 0.0
C363 C 0.95331 0.03439 0.66576 0.0
C364 C 0.96185 0.06655 0.66197 0.0
C365 C 0.94286 0.08546 0.64906 0.0
C366 C 0.91489 0.07254 0.64 0.0
C367 C 0.9057 0.04077 0.64453 0.0
C368 C 0.92495 0.02174 0.65716 0.0
C369 C 0.0356 0.9485 0.66341 0.0
C370 C 0.0222 0.9301 0.64772 0.0
C371 C 0.0421 0.91488 0.63383 0.0
C372 C 0.07591 0.9177 0.63528 0.0
C373 C 0.08933 0.93489 0.65156 0.0
C374 C 0.06936 0.95015 0.66548 0.0
C375 C 0.0145 0.969 0.67608 0.0
C376 C 0.99297 0.99016 0.66645 0.0
C377 C 0.01699 0.96942 0.69727 0.0
C378 C 0.03437 0.9432 0.70813 0.0
C379 C 0.02618 0.91093 0.70416 0.0
C380 C 0.04301 0.88575 0.71342 0.0
C381 C 0.06843 0.89216 0.72699 0.0
C382 C 0.07637 0.92454 0.73123 0.0
C383 C 0.05928 0.94988 0.72198 0.0
Mn384 Mn 0.34364 0.67509 0.0066 0.0
Mn385 Mn 0.35684 0.595 0.01184 0.0
C386 C 0.35211 0.65322 0.03814 0.0
C387 C 0.36434 0.72677 0.00155 0.0
C388 C 0.29054 0.62388 0.00363 0.0
O389 O 0.35448 0.66087 0.97811 0.0
O390 O 0.36602 0.60839 0.9839 0.0
C391 C 0.42771 0.59516 0.0067 0.0
N392 N 0.40146 0.58774 0.01789 0.0
C393 C 0.43487 0.56399 0.04372 0.0
C394 C 0.46227 0.57123 0.03243 0.0
C395 C 0.45867 0.58698 0.01387 0.0
C396 C 0.40467 0.5729 0.03586 0.0
H397 H 0.425 0.60726 0.99243 0.0
C398 C 0.36351 0.63291 0.97226 0.0
O399 O 0.33414 0.72041 0.99786 0.0
O400 O 0.38247 0.70309 0.00756 0.0
N401 N 0.34893 0.57845 0.03812 0.0
C402 C 0.32012 0.57387 0.04735 0.0
C403 C 0.3195 0.55873 0.06619 0.0
C404 C 0.34843 0.5481 0.07521 0.0
C405 C 0.37772 0.55257 0.06526 0.0
C406 C 0.37681 0.56768 0.04648 0.0
H407 H 0.29779 0.58179 0.04042 0.0
O408 O 0.33802 0.68102 0.03617 0.0
O409 O 0.36113 0.6393 0.02166 0.0
O410 O 0.29893 0.6536 0.00407 0.0
O411 O 0.31039 0.60049 0.00608 0.0
C412 C 0.40781 0.5429 0.07333 0.0
C413 C 0.43637 0.54867 0.06258 0.0
H414 H 0.48619 0.56497 0.03791 0.0
H415 H 0.47971 0.59276 0.00511 0.0
H416 H 0.29678 0.55527 0.07374 0.0
H417 H 0.34789 0.53665 0.0898 0.0
H418 H 0.40929 0.53137 0.08789 0.0
H419 H 0.45939 0.54154 0.06907 0.0
Mn420 Mn 0.33107 0.82811 0.26107 0.0
Mn421 Mn 0.4112 0.84052 0.26565 0.0
C422 C 0.35449 0.83574 0.29243 0.0
C423 C 0.27948 0.85073 0.25729 0.0
C424 C 0.38179 0.7747 0.25673 0.0
O425 O 0.34391 0.84045 0.23265 0.0
O426 O 0.39679 0.8511 0.23786 0.0
C427 C 0.41226 0.9116 0.26095 0.0
N428 N 0.41922 0.88482 0.27204 0.0
C429 C 0.4432 0.91697 0.29833 0.0
C430 C 0.43645 0.94489 0.28714 0.0
C431 C 0.42084 0.94219 0.2684 0.0
C432 C 0.43416 0.88715 0.29012 0.0
H433 H 0.40018 0.90962 0.24656 0.0
C434 C 0.37158 0.84957 0.22654 0.0
O435 O 0.28478 0.82061 0.25278 0.0
O436 O 0.30415 0.86742 0.26323 0.0
N437 N 0.42792 0.83138 0.29192 0.0
C438 C 0.43089 0.8023 0.30132 0.0
C439 C 0.44495 0.8009 0.32057 0.0
C440 C 0.45593 0.82935 0.32989 0.0
C441 C 0.45282 0.85896 0.31985 0.0
C442 C 0.4388 0.85883 0.30064 0.0
H443 H 0.42243 0.78038 0.29424 0.0
O444 O 0.32685 0.82128 0.29074 0.0
O445 O 0.3675 0.84474 0.27575 0.0
O446 O 0.35206 0.78315 0.25747 0.0
O447 O 0.40517 0.79439 0.25947 0.0
C448 C 0.46256 0.88865 0.32829 0.0
C449 C 0.45781 0.91763 0.31753 0.0
H450 H 0.44283 0.96854 0.29289 0.0
H451 H 0.41539 0.96364 0.25973 0.0
H452 H 0.44721 0.77796 0.32824 0.0
H453 H 0.4665 0.8282 0.34481 0.0
H454 H 0.47331 0.88953 0.34317 0.0
H455 H 0.46494 0.94036 0.3243 0.0
Mn456 Mn 0.18001 0.83928 0.49714 0.0
Mn457 Mn 0.09959 0.84947 0.49115 0.0
C458 C 0.15803 0.85271 0.46609 0.0
C459 C 0.23149 0.86049 0.50329 0.0
C460 C 0.13094 0.78365 0.49512 0.0
O461 O 0.16524 0.84579 0.52601 0.0
O462 O 0.11175 0.85231 0.51999 0.0
C463 C 0.09643 0.91818 0.5033 0.0
N464 N 0.09075 0.89471 0.48938 0.0
C465 C 0.06805 0.93328 0.46618 0.0
C466 C 0.07349 0.95784 0.48031 0.0
C467 C 0.08781 0.95025 0.49893 0.0
C468 C 0.07716 0.90177 0.47138 0.0
H469 H 0.10754 0.91246 0.5176 0.0
C470 C 0.1363 0.85044 0.53182 0.0
O471 O 0.22565 0.82987 0.50554 0.0
O472 O 0.20716 0.87874 0.49852 0.0
N473 N 0.08456 0.84737 0.46392 0.0
C474 C 0.08178 0.82103 0.45176 0.0
C475 C 0.06804 0.8245 0.43253 0.0
C476 C 0.05712 0.85494 0.42605 0.0
C477 C 0.05997 0.88163 0.4389 0.0
C478 C 0.07357 0.87664 0.45797 0.0
H479 H 0.0901 0.79758 0.45668 0.0
O480 O 0.18586 0.83843 0.46726 0.0
O481 O 0.14382 0.85793 0.483 0.0
O482 O 0.15998 0.79372 0.49707 0.0
O483 O 0.10677 0.80243 0.4924 0.0
C484 C 0.05023 0.91307 0.43343 0.0
C485 C 0.05438 0.9389 0.44704 0.0
H486 H 0.06695 0.98262 0.47698 0.0
H487 H 0.09221 0.9691 0.50988 0.0
H488 H 0.06598 0.80379 0.42268 0.0
H489 H 0.04686 0.85759 0.41112 0.0
H490 H 0.03989 0.91772 0.41872 0.0
H491 H 0.04715 0.96303 0.44258 0.0
Mn492 Mn 0.16695 0.67095 0.74782 0.0
Mn493 Mn 0.16544 0.59001 0.74181 0.0
C494 C 0.15616 0.64823 0.71667 0.0
C495 C 0.14024 0.71978 0.75364 0.0
C496 C 0.22737 0.62785 0.74691 0.0
O497 O 0.16093 0.65505 0.77645 0.0
O498 O 0.16072 0.60112 0.7707 0.0
C499 C 0.09752 0.57863 0.75315 0.0
N500 N 0.12153 0.57626 0.73944 0.0
C501 C 0.08587 0.55059 0.71557 0.0
C502 C 0.06082 0.55256 0.72948 0.0
C503 C 0.06667 0.56668 0.74834 0.0
C504 C 0.11617 0.56268 0.72126 0.0
H505 H 0.10185 0.58963 0.76762 0.0
C506 C 0.15928 0.62573 0.78237 0.0
O507 O 0.17127 0.71722 0.75634 0.0
O508 O 0.12487 0.69383 0.74844 0.0
N509 N 0.16939 0.57644 0.71449 0.0
C510 C 0.19552 0.57833 0.70233 0.0
C511 C 0.19339 0.56619 0.68268 0.0
C512 C 0.16444 0.55223 0.67576 0.0
C513 C 0.1379 0.55047 0.68858 0.0
C514 C 0.14155 0.56269 0.70806 0.0
H515 H 0.21772 0.5893 0.70752 0.0
O516 O 0.16788 0.67721 0.71794 0.0
O517 O 0.15238 0.63331 0.73357 0.0
O518 O 0.21431 0.65566 0.7488 0.0
O519 O 0.21138 0.60198 0.7437 0.0
C520 C 0.10776 0.5377 0.68263 0.0
C521 C 0.08176 0.53776 0.69612 0.0
H522 H 0.03693 0.5436 0.72578 0.0
H523 H 0.04741 0.56845 0.75912 0.0
H524 H 0.21392 0.56781 0.67285 0.0
H525 H 0.16276 0.54326 0.66052 0.0
H526 H 0.10417 0.52823 0.66763 0.0
H527 H 0.05858 0.52831 0.69128 0.0
Mn528 Mn 0.8399 0.17786 0.50913 0.0
Mn529 Mn 0.84831 0.0968 0.51028 0.0
C530 C 0.84776 0.15111 0.53931 0.0
C531 C 0.86403 0.22888 0.50749 0.0
C532 C 0.78374 0.13023 0.50372 0.0
O533 O 0.85129 0.16712 0.4802 0.0
O534 O 0.85787 0.11303 0.48292 0.0
C535 C 0.91894 0.09332 0.50431 0.0
N536 N 0.89259 0.08643 0.51555 0.0
C537 C 0.92542 0.05978 0.54055 0.0
C538 C 0.95288 0.06639 0.52917 0.0
C539 C 0.94962 0.08329 0.51099 0.0
C540 C 0.89547 0.07031 0.53311 0.0
H541 H 0.91656 0.10644 0.49037 0.0
C542 C 0.85805 0.13942 0.47287 0.0
O543 O 0.83366 0.225 0.50294 0.0
O544 O 0.88017 0.20316 0.51223 0.0
N545 N 0.84009 0.07819 0.536 0.0
C546 C 0.81141 0.07496 0.5456 0.0
C547 C 0.81054 0.05895 0.56415 0.0
C548 C 0.8391 0.04634 0.5726 0.0
C549 C 0.8683 0.04982 0.5624 0.0
C550 C 0.86763 0.06571 0.54386 0.0
H551 H 0.78939 0.08464 0.5392 0.0
O552 O 0.83432 0.17942 0.53902 0.0
O553 O 0.85536 0.13935 0.52198 0.0
O554 O 0.79406 0.15932 0.50491 0.0
O555 O 0.80213 0.10553 0.50538 0.0
C556 C 0.89811 0.03861 0.57005 0.0
C557 C 0.92667 0.04367 0.55916 0.0
H558 H 0.97661 0.05884 0.53432 0.0
H559 H 0.97073 0.08863 0.50218 0.0
H560 H 0.78793 0.05647 0.57197 0.0
H561 H 0.8384 0.03433 0.58702 0.0
H562 H 0.89942 0.02648 0.58443 0.0
H563 H 0.9495 0.03533 0.56533 0.0
Mn564 Mn 0.83113 0.32727 0.75771 0.0
Mn565 Mn 0.90872 0.34944 0.76286 0.0
C566 C 0.85338 0.33559 0.78955 0.0
C567 C 0.77771 0.34514 0.75387 0.0
C568 C 0.88723 0.28148 0.75093 0.0
O569 O 0.84334 0.34207 0.72945 0.0
O570 O 0.89201 0.36416 0.73644 0.0
C571 C 0.89936 0.42029 0.76468 0.0
N572 N 0.91116 0.39259 0.773 0.0
C573 C 0.93199 0.42154 0.80165 0.0
C574 C 0.92044 0.45044 0.79326 0.0
C575 C 0.90392 0.44978 0.77474 0.0
C576 C 0.92657 0.39288 0.79097 0.0
H577 H 0.88638 0.41982 0.75056 0.0
C578 C 0.86818 0.35848 0.72453 0.0
O579 O 0.7858 0.31581 0.74897 0.0
O580 O 0.80065 0.36374 0.76024 0.0
N581 N 0.92771 0.33688 0.78799 0.0
C582 C 0.93597 0.30674 0.79447 0.0
C583 C 0.95261 0.30313 0.81281 0.0
C584 C 0.96082 0.33052 0.8242 0.0
C585 C 0.95217 0.3613 0.81721 0.0
C586 C 0.93582 0.36342 0.79875 0.0
H587 H 0.93009 0.28561 0.78568 0.0
O588 O 0.8271 0.31892 0.78742 0.0
O589 O 0.86532 0.34633 0.77304 0.0
O590 O 0.8569 0.28527 0.75364 0.0
O591 O 0.90789 0.30431 0.75297 0.0
C592 C 0.95856 0.38991 0.82801 0.0
C593 C 0.94824 0.41998 0.82031 0.0
H594 H 0.92386 0.47322 0.80099 0.0
H595 H 0.89466 0.47194 0.76826 0.0
H596 H 0.95916 0.27928 0.81812 0.0
H597 H 0.97345 0.32761 0.83841 0.0
H598 H 0.97087 0.389 0.84242 0.0
H599 H 0.95272 0.44173 0.82894 0.0
Mn600 Mn 0.68188 0.33027 0.99448 0.0
Mn601 Mn 0.60092 0.33374 0.98829 0.0
C602 C 0.65931 0.33538 0.96274 0.0
C603 C 0.73064 0.35757 0.99959 0.0
C604 C 0.63709 0.27152 0.9966 0.0
O605 O 0.66648 0.34093 0.02261 0.0
O606 O 0.61275 0.34361 0.01667 0.0
C607 C 0.59318 0.40409 0.99469 0.0
N608 N 0.58901 0.37754 0.98288 0.0
C609 C 0.56383 0.4093 0.95682 0.0
C610 C 0.56767 0.43695 0.96876 0.0
C611 C 0.58248 0.43433 0.98775 0.0
C612 C 0.575 0.37982 0.96452 0.0
H613 H 0.60468 0.4022 0.00926 0.0
C614 C 0.63752 0.34542 0.02833 0.0
O615 O 0.72812 0.32696 0.00366 0.0
O616 O 0.70487 0.37208 0.99312 0.0
N617 N 0.58603 0.3249 0.96156 0.0
C618 C 0.58506 0.2961 0.95167 0.0
C619 C 0.57132 0.2946 0.93234 0.0
C620 C 0.55854 0.32266 0.92343 0.0
C621 C 0.55943 0.35194 0.93401 0.0
C622 C 0.57315 0.35189 0.9533 0.0
H623 H 0.59479 0.27445 0.95846 0.0
O624 O 0.68835 0.32413 0.96498 0.0
O625 O 0.64448 0.34306 0.97911 0.0
O626 O 0.66553 0.28348 0.99756 0.0
O627 O 0.61153 0.28802 0.99325 0.0
C628 C 0.54762 0.38125 0.92606 0.0
C629 C 0.54987 0.40992 0.93744 0.0
H630 H 0.55957 0.46034 0.96343 0.0
H631 H 0.58568 0.45559 0.99701 0.0
H632 H 0.57069 0.2719 0.92429 0.0
H633 H 0.54825 0.32148 0.90844 0.0
H634 H 0.53713 0.3821 0.91111 0.0
H635 H 0.54112 0.43238 0.93106 0.0
Mn636 Mn 0.67371 0.17073 0.24618 0.0
Mn637 Mn 0.65907 0.09142 0.23879 0.0
C638 C 0.66239 0.15124 0.2143 0.0
C639 C 0.65237 0.22201 0.25267 0.0
C640 C 0.7263 0.11847 0.24628 0.0
O641 O 0.66442 0.15478 0.27449 0.0
O642 O 0.65326 0.10251 0.26748 0.0
C643 C 0.58902 0.09132 0.24702 0.0
N644 N 0.61388 0.08491 0.23443 0.0
C645 C 0.57764 0.06291 0.2095 0.0
C646 C 0.55164 0.06911 0.22224 0.0
C647 C 0.55736 0.08349 0.24104 0.0
C648 C 0.60863 0.07135 0.21624 0.0
H649 H 0.59337 0.10229 0.2615 0.0
C650 C 0.65649 0.12621 0.27971 0.0
O651 O 0.68292 0.21611 0.25563 0.0
O652 O 0.63464 0.19821 0.2466 0.0
N653 N 0.66389 0.07729 0.21166 0.0
C654 C 0.69143 0.07432 0.20083 0.0
C655 C 0.68978 0.06134 0.18137 0.0
C656 C 0.65994 0.05123 0.17336 0.0
C657 C 0.632 0.05412 0.18491 0.0
C658 C 0.63514 0.06719 0.2042 0.0
H659 H 0.71443 0.08192 0.20697 0.0
O660 O 0.67746 0.17842 0.21658 0.0
O661 O 0.65468 0.13637 0.23067 0.0
O662 O 0.71862 0.14844 0.24745 0.0
O663 O 0.70578 0.09607 0.24281 0.0
C664 C 0.60111 0.04492 0.17794 0.0
C665 C 0.57396 0.04925 0.19024 0.0
H666 H 0.52718 0.06318 0.21767 0.0
H667 H 0.53741 0.08849 0.25092 0.0
H668 H 0.71146 0.05916 0.17257 0.0
H669 H 0.65874 0.04142 0.15831 0.0
H670 H 0.5979 0.03489 0.16304 0.0
H671 H 0.55027 0.04253 0.1846 0.0
H672 H 0.13272 0.89209 0.26362 0.0
H673 H 0.17858 0.98119 0.28205 0.0
H674 H 0.2312 0.9584 0.27497 0.0
H675 H 0.26469 0.91258 0.26595 0.0
H676 H 0.22074 0.82187 0.24934 0.0
H677 H 0.16698 0.84588 0.25337 0.0
C678 C 0.15421 0.90652 0.2661 0.0
C679 C 0.15138 0.93851 0.27328 0.0
C680 C 0.18482 0.89295 0.26243 0.0
C681 C 0.17965 0.95685 0.27615 0.0
C682 C 0.20994 0.94372 0.27228 0.0
C683 C 0.24341 0.898 0.26302 0.0
C684 C 0.24678 0.8654 0.25743 0.0
C685 C 0.21283 0.91173 0.26571 0.0
C686 C 0.21886 0.84702 0.25365 0.0
C687 C 0.18812 0.86073 0.25604 0.0
H688 H 0.1098 0.64164 0.52633 0.0
H689 H 0.01945 0.65532 0.49454 0.0
H690 H 0.03812 0.70721 0.48196 0.0
H691 H 0.07765 0.75094 0.48267 0.0
H692 H 0.16831 0.73799 0.51418 0.0
H693 H 0.15231 0.68328 0.5237 0.0
C694 C 0.09448 0.65565 0.5163 0.0
C695 C 0.06302 0.64481 0.51169 0.0
C696 C 0.10536 0.68568 0.50912 0.0
C697 C 0.04348 0.66339 0.49871 0.0
C698 C 0.05417 0.69304 0.49144 0.0
C699 C 0.09415 0.73604 0.4914 0.0
C700 C 0.12398 0.74876 0.49789 0.0
C701 C 0.08467 0.70482 0.497 0.0
C702 C 0.1452 0.72888 0.50897 0.0
C703 C 0.13596 0.69763 0.51454 0.0
H704 H 0.36576 0.60984 0.78444 0.0
H705 H 0.36928 0.53522 0.73914 0.0
H706 H 0.31693 0.55237 0.72611 0.0
H707 H 0.26788 0.58504 0.72952 0.0
H708 H 0.26526 0.66178 0.77322 0.0
H709 H 0.32009 0.64803 0.7844 0.0
C710 C 0.35559 0.59775 0.77141 0.0
C711 C 0.37133 0.5706 0.76321 0.0
C712 C 0.32558 0.60815 0.76364 0.0
C713 C 0.35738 0.55539 0.74632 0.0
C714 C 0.32748 0.56535 0.73869 0.0
C715 C 0.27956 0.59916 0.74122 0.0
C716 C 0.26247 0.6242 0.75064 0.0
C717 C 0.31099 0.59111 0.74757 0.0
C718 C 0.27798 0.64249 0.76566 0.0
C719 C 0.30922 0.63443 0.77219 0.0
H720 H 0.447 0.85357 0.00583 0.0
H721 H 0.36089 0.8875 0.03525 0.0
H722 H 0.33324 0.83767 0.02644 0.0
H723 H 0.33511 0.78177 0.01381 0.0
H724 H 0.42346 0.74522 0.98889 0.0
H725 H 0.44864 0.79835 0.99272 0.0
C726 C 0.42226 0.85015 0.01048 0.0
C727 C 0.40636 0.87461 0.02133 0.0
C728 C 0.40683 0.82066 0.00624 0.0
C729 C 0.37389 0.86967 0.02662 0.0
C730 C 0.35801 0.84088 0.02177 0.0
C731 C 0.35963 0.78575 0.00882 0.0
C732 C 0.37739 0.75987 0.00092 0.0
C733 C 0.37444 0.81592 0.01199 0.0
C734 C 0.40936 0.76495 0.99494 0.0
C735 C 0.42377 0.79525 0.99721 0.0
H736 H 0.13991 0.60594 0.99032 0.0
H737 H 0.17312 0.51193 0.97106 0.0
H738 H 0.2283 0.52687 0.97908 0.0
H739 H 0.26758 0.5665 0.9905 0.0
H740 H 0.23647 0.66211 0.00748 0.0
H741 H 0.18016 0.64684 0.00086 0.0
C742 C 0.15917 0.58875 0.98771 0.0
C743 C 0.1519 0.55757 0.98034 0.0
C744 C 0.19136 0.59784 0.99177 0.0
C745 C 0.17747 0.53571 0.97728 0.0
C746 C 0.20927 0.54434 0.98164 0.0
C747 C 0.24855 0.58407 0.99288 0.0
C748 C 0.25629 0.61537 0.9996 0.0
C749 C 0.21648 0.5753 0.98882 0.0
C750 C 0.23123 0.63786 0.00229 0.0
C751 C 0.19902 0.6291 0.99855 0.0
H752 H 0.40006 0.62579 0.23686 0.0
H753 H 0.49659 0.66 0.2251 0.0
H754 H 0.48115 0.71407 0.23519 0.0
H755 H 0.44056 0.75222 0.24613 0.0
H756 H 0.34277 0.72058 0.25599 0.0
H757 H 0.35835 0.66512 0.24739 0.0
C758 C 0.41771 0.64505 0.23636 0.0
C759 C 0.44969 0.63833 0.23042 0.0
C760 C 0.40843 0.67669 0.24168 0.0
C761 C 0.47212 0.66385 0.23011 0.0
C762 C 0.46323 0.69504 0.23567 0.0
C763 C 0.4225 0.73329 0.24655 0.0
C764 C 0.39049 0.74071 0.25182 0.0
C765 C 0.4315 0.70175 0.24139 0.0
C766 C 0.36757 0.71568 0.25199 0.0
C767 C 0.3765 0.68393 0.24709 0.0
H768 H 0.37528 0.8978 0.48512 0.0
H769 H 0.33545 0.99344 0.49263 0.0
H770 H 0.28424 0.97033 0.50297 0.0
H771 H 0.24903 0.92325 0.50644 0.0
H772 H 0.28842 0.82743 0.49973 0.0
H773 H 0.34172 0.8503 0.49312 0.0
C774 C 0.35568 0.91361 0.48946 0.0
C775 C 0.35911 0.94737 0.48764 0.0
C776 C 0.32612 0.90013 0.4955 0.0
C777 C 0.33329 0.96739 0.49332 0.0
C778 C 0.30399 0.95421 0.49935 0.0
C779 C 0.26941 0.90734 0.50388 0.0
C780 C 0.2647 0.87372 0.50337 0.0
C781 C 0.29983 0.92065 0.49991 0.0
C782 C 0.29139 0.85341 0.50023 0.0
C783 C 0.32184 0.8665 0.49629 0.0
H784 H 0.04482 0.83622 0.74217 0.0
H785 H 0.13408 0.88654 0.73157 0.0
H786 H 0.16474 0.83855 0.74169 0.0
H787 H 0.16588 0.78016 0.74961 0.0
H788 H 0.07602 0.72967 0.75809 0.0
H789 H 0.04599 0.7797 0.75281 0.0
C790 C 0.071 0.83675 0.74218 0.0
C791 C 0.08709 0.8648 0.73587 0.0
C792 C 0.08839 0.80889 0.74753 0.0
C793 C 0.12104 0.86532 0.73641 0.0
C794 C 0.1386 0.83778 0.74206 0.0
C795 C 0.13978 0.78032 0.75074 0.0
C796 C 0.12319 0.75121 0.75413 0.0
C797 C 0.12252 0.80913 0.74712 0.0
C798 C 0.08935 0.75171 0.75538 0.0
C799 C 0.07213 0.7803 0.75231 0.0
H800 H 0.62872 0.3746 0.76368 0.0
H801 H 0.66789 0.46965 0.77506 0.0
H802 H 0.72157 0.45046 0.76703 0.0
H803 H 0.75815 0.4065 0.75926 0.0
H804 H 0.72131 0.31039 0.74924 0.0
H805 H 0.66603 0.33021 0.75416 0.0
C806 C 0.64899 0.3911 0.76436 0.0
C807 C 0.64399 0.42366 0.76988 0.0
C808 C 0.68028 0.37972 0.76003 0.0
C809 C 0.67064 0.4447 0.77048 0.0
C810 C 0.70153 0.43368 0.76606 0.0
C811 C 0.73807 0.38982 0.75795 0.0
C812 C 0.74389 0.35695 0.75401 0.0
C813 C 0.70668 0.40123 0.76112 0.0
C814 C 0.7175 0.33582 0.75222 0.0
C815 C 0.68592 0.34713 0.75516 0.0
H816 H 0.5844 0.13004 0.00169 0.0
H817 H 0.58239 0.15569 0.06433 0.0
H818 H 0.61119 0.20582 0.05738 0.0
H819 H 0.63098 0.24533 0.03301 0.0
H820 H 0.62953 0.22221 0.97009 0.0
H821 H 0.60866 0.16806 0.97745 0.0
C822 C 0.59089 0.1464 0.01379 0.0
C823 C 0.58115 0.13944 0.03345 0.0
C824 C 0.60678 0.17565 0.00958 0.0
C825 C 0.58941 0.16082 0.04905 0.0
C826 C 0.60588 0.18944 0.04509 0.0
C827 C 0.62702 0.22794 0.02104 0.0
C828 C 0.63227 0.23718 0.00112 0.0
C829 C 0.61389 0.19752 0.02537 0.0
C830 C 0.62619 0.21512 0.98556 0.0
C831 C 0.61398 0.18437 0.98977 0.0
H832 H 0.85485 0.04735 0.27077 0.0
H833 H 0.89445 0.14337 0.26573 0.0
H834 H 0.84111 0.16418 0.25618 0.0
H835 H 0.78237 0.15484 0.24966 0.0
H836 H 0.74622 0.05698 0.25288 0.0
H837 H 0.79921 0.03743 0.26201 0.0
C838 C 0.85235 0.07273 0.26708 0.0
C839 C 0.87903 0.09354 0.26891 0.0
C840 C 0.82197 0.08439 0.26117 0.0
C841 C 0.87446 0.12663 0.26472 0.0
C842 C 0.84391 0.13858 0.25911 0.0
C843 C 0.78618 0.12925 0.25223 0.0
C844 C 0.75997 0.10764 0.25056 0.0
C845 C 0.81733 0.11767 0.2574 0.0
C846 C 0.7656 0.07446 0.25392 0.0
C847 C 0.79604 0.06306 0.25925 0.0
H848 H 0.94946 0.35062 0.52641 0.0
H849 H 0.85843 0.39968 0.51738 0.0
H850 H 0.83269 0.34837 0.50865 0.0
H851 H 0.83562 0.28878 0.50516 0.0
H852 H 0.92761 0.24119 0.5136 0.0
H853 H 0.95341 0.29283 0.52032 0.0
C854 C 0.92415 0.35041 0.5221 0.0
C855 C 0.90603 0.37918 0.52264 0.0
C856 C 0.90958 0.32094 0.51692 0.0
C857 C 0.87299 0.37795 0.51744 0.0
C858 C 0.85825 0.34858 0.51231 0.0
C859 C 0.86137 0.28982 0.50819 0.0
C860 C 0.87956 0.26106 0.50898 0.0
C861 C 0.87622 0.3198 0.51224 0.0
C862 C 0.91292 0.26285 0.51298 0.0
C863 C 0.92777 0.29241 0.51689 0.0
H864 H 0.6373 0.12006 0.47562 0.0
H865 H 0.65431 0.02084 0.4925 0.0
H866 H 0.70849 0.03456 0.50431 0.0
H867 H 0.75206 0.07345 0.50773 0.0
H868 H 0.73684 0.1729 0.49062 0.0
H869 H 0.68081 0.16048 0.48127 0.0
C870 C 0.65276 0.10164 0.48218 0.0
C871 C 0.64193 0.06941 0.48301 0.0
C872 C 0.68422 0.10966 0.48877 0.0
C873 C 0.66225 0.0457 0.49144 0.0
C874 C 0.69321 0.05353 0.49822 0.0
C875 C 0.73657 0.09259 0.50205 0.0
C876 C 0.7489 0.12403 0.4997 0.0
C877 C 0.70465 0.08524 0.49657 0.0
C878 C 0.72812 0.14847 0.49256 0.0
C879 C 0.69607 0.14134 0.48714 0.0
H880 H 0.96268 0.15774 0.7221 0.0
H881 H 0.87717 0.11016 0.74357 0.0
H882 H 0.85385 0.1625 0.75251 0.0
H883 H 0.85812 0.22213 0.75454 0.0
H884 H 0.94513 0.26833 0.73398 0.0
H885 H 0.96747 0.21622 0.7247 0.0
C886 C 0.93916 0.15864 0.72905 0.0
C887 C 0.92189 0.12989 0.73225 0.0
C888 C 0.92605 0.1887 0.73432 0.0
C889 C 0.891 0.13184 0.74077 0.0
C890 C 0.87767 0.16179 0.74597 0.0
C891 C 0.8819 0.22078 0.74796 0.0
C892 C 0.89983 0.24926 0.74501 0.0
C893 C 0.89497 0.19045 0.74278 0.0
C894 C 0.93075 0.24693 0.73657 0.0
C895 C 0.94363 0.21708 0.73121 0.0
H896 H 0.84535 0.45499 0.99053 0.0
H897 H 0.89835 0.36634 0.98217 0.0
H898 H 0.85055 0.33504 0.99103 0.0
H899 H 0.79177 0.33292 0.99729 0.0
H900 H 0.73877 0.42211 0.00343 0.0
H901 H 0.78828 0.453 0.99933 0.0
C902 C 0.8465 0.42881 0.99073 0.0
C903 C 0.8753 0.41308 0.98546 0.0
C904 C 0.81876 0.411 0.99533 0.0
C905 C 0.87656 0.37913 0.98625 0.0
C906 C 0.84913 0.36119 0.99117 0.0
C907 C 0.79126 0.35908 0.99815 0.0
C908 C 0.76163 0.37521 0.00054 0.0
C909 C 0.81983 0.37684 0.99522 0.0
C910 C 0.76124 0.40913 0.00146 0.0
C911 C 0.78954 0.42684 0.99907 0.0
H912 H 0.56041 0.3414 0.24595 0.0
H913 H 0.6461 0.38464 0.22164 0.0
H914 H 0.67771 0.33703 0.23133 0.0
H915 H 0.67928 0.28 0.24275 0.0
H916 H 0.59223 0.23636 0.26487 0.0
H917 H 0.56305 0.28707 0.26022 0.0
C918 C 0.58606 0.3405 0.24289 0.0
C919 C 0.60073 0.36638 0.23285 0.0
C920 C 0.60388 0.31281 0.2481 0.0
C921 C 0.63416 0.36511 0.22939 0.0
C922 C 0.65223 0.33777 0.23482 0.0
C923 C 0.6542 0.28199 0.24708 0.0
C924 C 0.63789 0.25455 0.25415 0.0
C925 C 0.63717 0.31106 0.24368 0.0
C926 C 0.60524 0.2572 0.25939 0.0
C927 C 0.58849 0.28613 0.25663 0.0
H928 H 0.11387 0.95283 0.40066 0.0
H929 H 0.10367 0.8661 0.36545 0.0
H930 H 0.12707 0.83408 0.39296 0.0
H931 H 0.14665 0.83049 0.42818 0.0
H932 H 0.15131 0.91706 0.46398 0.0
H933 H 0.13455 0.94958 0.43513 0.0
C934 C 0.11743 0.92701 0.3989 0.0
C935 C 0.10746 0.91179 0.38109 0.0
C936 C 0.12981 0.90878 0.41495 0.0
C937 C 0.11136 0.87824 0.37908 0.0
C938 C 0.12471 0.85999 0.39478 0.0
C939 C 0.14416 0.85649 0.42948 0.0
C940 C 0.14938 0.87145 0.44811 0.0
C941 C 0.13345 0.87491 0.41295 0.0
C942 C 0.14664 0.90513 0.44977 0.0
C943 C 0.13719 0.9237 0.4333 0.0
H944 H 0.05518 0.60204 0.65209 0.0
H945 H 0.13622 0.61445 0.61279 0.0
H946 H 0.16946 0.633 0.64116 0.0
H947 H 0.17555 0.64483 0.67762 0.0
H948 H 0.09347 0.6325 0.71598 0.0
H949 H 0.06028 0.61578 0.68741 0.0
C950 C 0.07988 0.60948 0.64955 0.0
C951 C 0.09301 0.60713 0.63025 0.0
C952 C 0.09869 0.62019 0.66582 0.0
C953 C 0.12548 0.61589 0.62749 0.0
C954 C 0.14447 0.62663 0.64369 0.0
C955 C 0.1504 0.63848 0.67957 0.0
C956 C 0.1371 0.63884 0.69885 0.0
C957 C 0.13139 0.6287 0.66298 0.0
C958 C 0.10435 0.63138 0.70129 0.0
C959 C 0.08534 0.62201 0.68497 0.0
H960 H 0.41845 0.62593 0.88437 0.0
H961 H 0.38599 0.52743 0.89079 0.0
H962 H 0.36296 0.54035 0.9232 0.0
H963 H 0.35655 0.57784 0.95111 0.0
H964 H 0.38868 0.67643 0.94559 0.0
H965 H 0.40738 0.66528 0.91148 0.0
C966 C 0.40605 0.60741 0.8928 0.0
C967 C 0.40407 0.57572 0.88511 0.0
C968 C 0.39316 0.6149 0.91169 0.0
C969 C 0.38756 0.5521 0.89613 0.0
C970 C 0.37464 0.55937 0.91481 0.0
C971 C 0.3675 0.59698 0.94241 0.0
C972 C 0.37171 0.62777 0.95095 0.0
C973 C 0.37802 0.59041 0.92293 0.0
C974 C 0.38528 0.65249 0.93935 0.0
C975 C 0.39607 0.64607 0.9199 0.0
H976 H 0.36869 0.90614 0.13843 0.0
H977 H 0.47086 0.88712 0.14478 0.0
H978 H 0.46217 0.86277 0.17739 0.0
H979 H 0.42673 0.85088 0.2053 0.0
H980 H 0.3246 0.87021 0.20004 0.0
H981 H 0.33217 0.89055 0.16591 0.0
C982 C 0.38899 0.89646 0.1469 0.0
C983 C 0.42038 0.89848 0.13905 0.0
C984 C 0.38394 0.88287 0.16597 0.0
C985 C 0.44636 0.88546 0.15018 0.0
C986 C 0.4415 0.87182 0.169 0.0
C987 C 0.40604 0.85944 0.1967 0.0
C988 C 0.37522 0.85942 0.20532 0.0
C989 C 0.41055 0.87103 0.1772 0.0
C990 C 0.34862 0.87004 0.19379 0.0
C991 C 0.35295 0.88176 0.1743 0.0
H992 H 0.14075 0.56616 0.86784 0.0
H993 H 0.0518 0.62044 0.86259 0.0
H994 H 0.07086 0.64563 0.83211 0.0
H995 H 0.10972 0.64751 0.80451 0.0
H996 H 0.1947 0.58756 0.80719 0.0
H997 H 0.18019 0.56909 0.84079 0.0
C998 C 0.12537 0.58337 0.86005 0.0
C999 C 0.09474 0.59108 0.86773 0.0
C1000 C 0.13575 0.5967 0.84185 0.0
C1001 C 0.07572 0.61422 0.85749 0.0
C1002 C 0.08644 0.62848 0.83981 0.0
C1003 C 0.12535 0.63101 0.81273 0.0
C1004 C 0.15334 0.61911 0.80366 0.0
C1005 C 0.11602 0.61933 0.83158 0.0
C1006 C 0.17313 0.59712 0.81408 0.0
C1007 C 0.16475 0.58647 0.8332 0.0
H1008 H 0.38115 0.5995 0.12474 0.0
H1009 H 0.47852 0.60454 0.10274 0.0
H1010 H 0.45898 0.62907 0.0716 0.0
H1011 H 0.41376 0.64423 0.04938 0.0
H1012 H 0.31651 0.64119 0.07134 0.0
H1013 H 0.33628 0.6209 0.10385 0.0
C1014 C 0.39804 0.60642 0.1132 0.0
C1015 C 0.43118 0.60014 0.11595 0.0
C1016 C 0.38662 0.62051 0.09532 0.0
C1017 C 0.45294 0.60945 0.10103 0.0
C1018 C 0.44178 0.62328 0.08318 0.0
C1019 C 0.39702 0.63913 0.06137 0.0
C1020 C 0.36376 0.64272 0.05795 0.0
C1021 C 0.40863 0.62808 0.07996 0.0
C1022 C 0.34219 0.63759 0.07366 0.0
C1023 C 0.3535 0.62612 0.09219 0.0
H1024 H 0.39511 0.88209 0.37925 0.0
H1025 H 0.3959 0.9737 0.34816 0.0
H1026 H 0.37666 0.94764 0.31773 0.0
H1027 H 0.36304 0.89869 0.29908 0.0
H1028 H 0.36424 0.80643 0.32878 0.0
H1029 H 0.37988 0.83271 0.36053 0.0
C1030 C 0.39119 0.89638 0.36582 0.0
C1031 C 0.39683 0.92998 0.36622 0.0
C1032 C 0.38096 0.88104 0.34802 0.0
C1033 C 0.39107 0.94803 0.34864 0.0
C1034 C 0.38036 0.93309 0.33107 0.0
C1035 C 0.36698 0.88438 0.31252 0.0
C1036 C 0.36375 0.85072 0.31163 0.0
C1037 C 0.37581 0.89962 0.3305 0.0
C1038 C 0.36745 0.83238 0.32917 0.0
C1039 C 0.3763 0.84741 0.34725 0.0
H1040 H 0.06981 0.86081 0.61507 0.0
H1041 H 0.12821 0.94691 0.61826 0.0
H1042 H 0.1564 0.93072 0.58791 0.0
H1043 H 0.15897 0.89595 0.55773 0.0
H1044 H 0.09689 0.8128 0.55336 0.0
H1045 H 0.07572 0.82378 0.58675 0.0
C1046 C 0.08886 0.87593 0.60921 0.0
C1047 C 0.09654 0.90521 0.61884 0.0
C1048 C 0.10423 0.86703 0.59139 0.0
C1049 C 0.12184 0.92414 0.61127 0.0
C1050 C 0.13783 0.91504 0.59377 0.0
C1051 C 0.14153 0.87983 0.56443 0.0
C1052 C 0.12957 0.85353 0.55333 0.0
C1053 C 0.12853 0.88706 0.58334 0.0
C1054 C 0.10646 0.83308 0.56182 0.0
C1055 C 0.09424 0.83946 0.58082 0.0
H1056 H 0.61085 0.37054 0.87549 0.0
H1057 H 0.60814 0.46532 0.90233 0.0
H1058 H 0.62988 0.44351 0.9337 0.0
H1059 H 0.64628 0.39704 0.95416 0.0
H1060 H 0.65147 0.30245 0.92754 0.0
H1061 H 0.63234 0.32448 0.89528 0.0
C1062 C 0.61542 0.38637 0.88817 0.0
C1063 C 0.60796 0.41946 0.88665 0.0
C1064 C 0.62808 0.37367 0.90615 0.0
C1065 C 0.61409 0.43986 0.90309 0.0
C1066 C 0.62633 0.42739 0.92105 0.0
C1067 C 0.64315 0.38135 0.94123 0.0
C1068 C 0.64892 0.34812 0.94317 0.0
C1069 C 0.63282 0.39429 0.92285 0.0
C1070 C 0.64625 0.32803 0.92632 0.0
C1071 C 0.63543 0.34063 0.90795 0.0
H1072 H 0.61423 0.11206 0.12781 0.0
H1073 H 0.52379 0.10798 0.15944 0.0
H1074 H 0.54993 0.12906 0.18942 0.0
H1075 H 0.59922 0.14306 0.20791 0.0
H1076 H 0.69039 0.14481 0.17763 0.0
H1077 H 0.66342 0.12962 0.14596 0.0
C1078 C 0.60021 0.11569 0.14125 0.0
C1079 C 0.56699 0.10825 0.14121 0.0
C1080 C 0.61564 0.12685 0.15881 0.0
C1081 C 0.54918 0.11396 0.15873 0.0
C1082 C 0.56417 0.12576 0.17604 0.0
C1083 C 0.61309 0.14002 0.19432 0.0
C1084 C 0.6467 0.14365 0.19503 0.0
C1085 C 0.59747 0.13135 0.1764 0.0
C1086 C 0.66449 0.1412 0.17735 0.0
C1087 C 0.64908 0.13259 0.15932 0.0
H1088 H 0.94082 0.12202 0.3962 0.0
H1089 H 0.86004 0.06142 0.37907 0.0
H1090 H 0.83213 0.07696 0.40947 0.0
H1091 H 0.83272 0.10404 0.44251 0.0
H1092 H 0.91044 0.16896 0.4576 0.0
H1093 H 0.93691 0.15642 0.42585 0.0
C1094 C 0.91671 0.11281 0.39856 0.0
C1095 C 0.90323 0.0897 0.38531 0.0
C1096 C 0.90011 0.12275 0.41575 0.0
C1097 C 0.87192 0.07813 0.38921 0.0
C1098 C 0.85564 0.08729 0.40655 0.0
C1099 C 0.85505 0.11599 0.43852 0.0
C1100 C 0.86975 0.13733 0.4522 0.0
C1101 C 0.86987 0.10892 0.42018 0.0
C1102 C 0.89865 0.15271 0.44709 0.0
C1103 C 0.91387 0.1453 0.42906 0.0
H1104 H 0.88339 0.39232 0.63252 0.0
H1105 H 0.93133 0.47467 0.65898 0.0
H1106 H 0.91848 0.45542 0.69245 0.0
H1107 H 0.89607 0.41441 0.71421 0.0
H1108 H 0.84591 0.3325 0.68899 0.0
H1109 H 0.85661 0.35249 0.655 0.0
C1110 C 0.89077 0.40596 0.64568 0.0
C1111 C 0.90827 0.43482 0.64338 0.0
C1112 C 0.88285 0.39493 0.66501 0.0
C1113 C 0.91765 0.45252 0.66044 0.0
C1114 C 0.91039 0.44151 0.67957 0.0
C1115 C 0.88721 0.40102 0.70129 0.0
C1116 C 0.87048 0.37193 0.70407 0.0
C1117 C 0.89331 0.41267 0.68202 0.0
C1118 C 0.85878 0.35506 0.6872 0.0
C1119 C 0.8651 0.36637 0.6678 0.0
H1120 H 0.63423 0.06182 0.36316 0.0
H1121 H 0.56492 0.13931 0.36766 0.0
H1122 H 0.58561 0.16342 0.33696 0.0
H1123 H 0.61827 0.15814 0.30619 0.0
H1124 H 0.68308 0.07719 0.30052 0.0
H1125 H 0.66925 0.05869 0.33409 0.0
C1126 C 0.62372 0.08408 0.3575 0.0
C1127 C 0.59775 0.09841 0.36758 0.0
C1128 C 0.63476 0.09703 0.33942 0.0
C1129 C 0.58505 0.12776 0.3603 0.0
C1130 C 0.59664 0.14142 0.34259 0.0
C1131 C 0.62977 0.13689 0.31258 0.0
C1132 C 0.65153 0.11892 0.30103 0.0
C1133 C 0.62075 0.12568 0.33165 0.0
C1134 C 0.66611 0.09121 0.30922 0.0
C1135 C 0.65819 0.08061 0.32836 0.0
H1136 H 0.94032 0.09961 0.60717 0.0
H1137 H 0.85003 0.08467 0.63716 0.0
H1138 H 0.82085 0.11043 0.60918 0.0
H1139 H 0.8211 0.13428 0.57502 0.0
H1140 H 0.91157 0.14415 0.54441 0.0
H1141 H 0.94079 0.12396 0.57383 0.0
C1142 C 0.91432 0.10262 0.60773 0.0
C1143 C 0.89731 0.0907 0.6242 0.0
C1144 C 0.89781 0.11647 0.59142 0.0
C1145 C 0.86354 0.09387 0.62459 0.0
C1146 C 0.84692 0.10857 0.60863 0.0
C1147 C 0.84719 0.13208 0.57498 0.0
C1148 C 0.86427 0.13989 0.55761 0.0
C1149 C 0.86376 0.11951 0.5918 0.0
C1150 C 0.89805 0.13753 0.5576 0.0
C1151 C 0.91473 0.12613 0.5744 0.0
H1152 H 0.87826 0.43333 0.85935 0.0
H1153 H 0.93098 0.35152 0.88343 0.0
H1154 H 0.90871 0.31739 0.85712 0.0
H1155 H 0.88083 0.31226 0.82412 0.0
H1156 H 0.83901 0.39719 0.797 0.0
H1157 H 0.85163 0.42879 0.82698 0.0
C1158 C 0.88568 0.40827 0.85882 0.0
C1159 C 0.90703 0.39568 0.87346 0.0
C1160 C 0.87508 0.38924 0.84268 0.0
C1161 C 0.91442 0.36239 0.87275 0.0
C1162 C 0.90196 0.34269 0.85745 0.0
C1163 C 0.87438 0.3376 0.82499 0.0
C1164 C 0.8596 0.35271 0.80845 0.0
C1165 C 0.88325 0.35609 0.84191 0.0
C1166 C 0.8509 0.3854 0.80958 0.0
C1167 C 0.85803 0.4034 0.82669 0.0
H1168 H 0.61717 0.4122 0.11178 0.0
H1169 H 0.53906 0.34321 0.11375 0.0
H1170 H 0.55648 0.32005 0.08209 0.0
H1171 H 0.59078 0.32262 0.05229 0.0
H1172 H 0.67116 0.38852 0.0513 0.0
H1173 H 0.65645 0.40912 0.08445 0.0
C1174 C 0.60439 0.39153 0.10566 0.0
C1175 C 0.57627 0.3801 0.11504 0.0
C1176 C 0.61485 0.37787 0.08754 0.0
C1177 C 0.56012 0.35332 0.10663 0.0
C1178 C 0.57016 0.33987 0.08854 0.0
C1179 C 0.60527 0.3412 0.05951 0.0
C1180 C 0.63172 0.35438 0.04939 0.0
C1181 C 0.59689 0.35257 0.07858 0.0
C1182 C 0.65069 0.37807 0.05889 0.0
C1183 C 0.64217 0.38993 0.07776 0.0
loop_
_geom_bond_atom_site_label_1
_geom_bond_atom_site_label_2
_geom_bond_distance
_geom_bond_site_symmetry_2
_ccdc_geom_bond_type
H0 C19 0.949 . S
H1 C20 0.950 . S
H2 C22 0.950 . S
H3 C23 0.950 . S
H4 C25 0.950 . S
H5 C28 0.950 . S
H6 C29 0.950 . S
H7 C31 0.951 . S
H8 C32 0.949 1_565 S
H9 C34 0.949 . S
H10 C35 0.950 . S
H11 C37 0.950 . S
H12 C38 0.950 . S
H13 C40 0.950 . S
H14 C43 0.950 . S
H15 C44 0.950 . S
H16 C46 0.951 . S
H17 C47 0.949 1_545 S
C18 C19 1.376 . S
C18 C23 1.386 . S
C18 C24 1.483 . S
C19 H0 0.949 . S
C19 C18 1.376 . S
C19 C20 1.397 . S
C20 H1 0.950 . S
C20 C19 1.397 . S
C20 C21 1.391 . S
C21 C20 1.391 . S
C21 C22 1.405 . S
C22 H2 0.950 . S
C22 C21 1.405 . S
C22 C23 1.367 . S
C23 H3 0.950 . S
C23 C18 1.386 . S
C23 C22 1.367 . S
C24 C18 1.483 . S
C24 C25 1.382 1_655 S
C24 C26 1.403 . S
C25 H4 0.950 . S
C25 C24 1.382 1_455 S
C25 C41 1.411 1_545 S
C26 C24 1.403 . S
C26 C27 1.489 . S
C26 C40 1.413 1_545 S
C27 C26 1.489 . S
C27 C28 1.383 . S
C27 C32 1.382 . S
C28 H5 0.950 . S
C28 C27 1.383 . S
C28 C29 1.395 . S
C29 H6 0.950 . S
C29 C28 1.395 . S
C29 C30 1.288 . S
C30 C29 1.288 . S
C30 C31 1.392 . S
C31 H7 0.951 . S
C31 C30 1.392 . S
C31 C32 1.392 . S
C32 H8 0.949 1_545 S
C32 C27 1.382 . S
C32 C31 1.392 . S
C33 C34 1.376 . S
C33 C38 1.386 . S
C33 C39 1.483 . S
C34 H9 0.949 . S
C34 C33 1.376 . S
C34 C35 1.397 . S
C35 H10 0.950 . S
C35 C34 1.397 . S
C35 C36 1.391 . S
C36 C35 1.391 . S
C36 C37 1.405 . S
C37 H11 0.950 . S
C37 C36 1.405 . S
C37 C38 1.367 . S
C38 H12 0.950 . S
C38 C33 1.386 . S
C38 C37 1.367 . S
C39 C33 1.483 . S
C39 C40 1.380 1_455 S
C39 C41 1.403 . S
C40 H13 0.950 . S
C40 C26 1.413 1_565 S
C40 C39 1.380 1_655 S
C41 C25 1.411 1_565 S
C41 C39 1.403 . S
C41 C42 1.489 . S
C42 C41 1.489 . S
C42 C43 1.383 . S
C42 C47 1.382 . S
C43 H14 0.950 . S
C43 C42 1.383 . S
C43 C44 1.395 . S
C44 H15 0.950 . S
C44 C43 1.395 . S
C44 C45 1.288 . S
C45 C44 1.288 . S
C45 C46 1.392 . S
C46 H16 0.951 . S
C46 C45 1.392 . S
C46 C47 1.392 . S
C47 H17 0.949 1_565 S
C47 C42 1.382 . S
C47 C46 1.392 . S
H48 C67 0.949 1_455 S
H49 C68 0.950 . S
H50 C70 0.950 . S
H51 C71 0.950 . S
H52 C73 0.950 . S
H53 C76 0.950 . S
H54 C77 0.950 . S
H55 C79 0.951 . S
H56 C80 0.949 . S
H57 C82 0.949 1_655 S
H58 C83 0.950 . S
H59 C85 0.950 . S
H60 C86 0.950 . S
H61 C88 0.950 . S
H62 C91 0.950 . S
H63 C92 0.950 . S
H64 C94 0.951 . S
H65 C95 0.949 . S
C66 C67 1.376 . S
C66 C71 1.386 . S
C66 C72 1.483 . S
C67 H48 0.949 1_655 S
C67 C66 1.376 . S
C67 C68 1.397 . S
C68 H49 0.950 . S
C68 C67 1.397 . S
C68 C69 1.391 . S
C69 C68 1.391 . S
C69 C70 1.405 . S
C70 H50 0.950 . S
C70 C69 1.405 . S
C70 C71 1.367 . S
C71 H51 0.950 . S
C71 C66 1.386 . S
C71 C70 1.367 . S
C72 C66 1.483 . S
C72 C73 1.382 1_655 S
C72 C74 1.403 . S
C73 H52 0.950 . S
C73 C72 1.382 1_455 S
C73 C89 1.411 . S
C74 C72 1.403 . S
C74 C75 1.489 . S
C74 C88 1.411 . S
C75 C74 1.489 . S
C75 C76 1.383 . S
C75 C80 1.382 . S
C76 H53 0.950 . S
C76 C75 1.383 . S
C76 C77 1.395 . S
C77 H54 0.950 . S
C77 C76 1.395 . S
C77 C78 1.288 . S
C78 C77 1.288 . S
C78 C79 1.392 . S
C79 H55 0.951 . S
C79 C78 1.392 . S
C79 C80 1.392 . S
C80 H56 0.949 . S
C80 C75 1.382 . S
C80 C79 1.392 . S
C81 C82 1.376 . S
C81 C86 1.386 . S
C81 C87 1.483 . S
C82 H57 0.949 1_455 S
C82 C81 1.376 . S
C82 C83 1.397 . S
C83 H58 0.950 . S
C83 C82 1.397 . S
C83 C84 1.391 . S
C84 C83 1.391 . S
C84 C85 1.405 . S
C85 H59 0.950 . S
C85 C84 1.405 . S
C85 C86 1.367 . S
C86 H60 0.950 . S
C86 C81 1.386 . S
C86 C85 1.367 . S
C87 C81 1.483 . S
C87 C88 1.382 1_455 S
C87 C89 1.403 . S
C88 H61 0.950 . S
C88 C74 1.411 . S
C88 C87 1.382 1_655 S
C89 C73 1.411 . S
C89 C87 1.403 . S
C89 C90 1.489 . S
C90 C89 1.489 . S
C90 C91 1.383 . S
C90 C95 1.382 . S
C91 H62 0.950 . S
C91 C90 1.383 . S
C91 C92 1.395 . S
C92 H63 0.950 . S
C92 C91 1.395 . S
C92 C93 1.288 . S
C93 C92 1.288 . S
C93 C94 1.392 . S
C94 H64 0.951 . S
C94 C93 1.392 . S
C94 C95 1.392 . S
C95 H65 0.949 . S
C95 C90 1.382 . S
C95 C94 1.392 . S
H96 C115 0.949 . S
H97 C116 0.950 . S
H98 C118 0.950 . S
H99 C119 0.950 . S
H100 C121 0.950 . S
H101 C124 0.950 . S
H102 C125 0.950 . S
H103 C127 0.951 . S
H104 C128 0.949 . S
H105 C130 0.949 . S
H106 C131 0.950 . S
H107 C133 0.950 . S
H108 C134 0.950 . S
H109 C136 0.950 . S
H110 C139 0.950 . S
H111 C140 0.950 . S
H112 C142 0.951 . S
H113 C143 0.949 . S
C114 C115 1.376 . S
C114 C119 1.386 . S
C114 C120 1.483 . S
C115 H96 0.949 . S
C115 C114 1.376 . S
C115 C116 1.397 . S
C116 H97 0.950 . S
C116 C115 1.397 . S
C116 C117 1.391 . S
C117 C116 1.391 . S
C117 C118 1.405 . S
C118 H98 0.950 . S
C118 C117 1.405 . S
C118 C119 1.367 . S
C119 H99 0.950 . S
C119 C114 1.386 . S
C119 C118 1.367 . S
C120 C114 1.483 . S
C120 C121 1.382 . S
C120 C122 1.403 . S
C121 H100 0.950 . S
C121 C120 1.382 . S
C121 C137 1.411 . S
C122 C120 1.403 . S
C122 C123 1.489 . S
C122 C136 1.411 . S
C123 C122 1.489 . S
C123 C124 1.383 . S
C123 C128 1.382 . S
C124 H101 0.950 . S
C124 C123 1.383 . S
C124 C125 1.395 . S
C125 H102 0.950 . S
C125 C124 1.395 . S
C125 C126 1.288 . S
C126 C125 1.288 . S
C126 C127 1.392 . S
C127 H103 0.951 . S
C127 C126 1.392 . S
C127 C128 1.392 . S
C128 H104 0.949 . S
C128 C123 1.382 . S
C128 C127 1.392 . S
C129 C130 1.376 . S
C129 C134 1.386 . S
C129 C135 1.483 . S
C130 H105 0.949 . S
C130 C129 1.376 . S
C130 C131 1.397 . S
C131 H106 0.950 . S
C131 C130 1.397 . S
C131 C132 1.391 . S
C132 C131 1.391 . S
C132 C133 1.405 . S
C133 H107 0.950 . S
C133 C132 1.405 . S
C133 C134 1.367 . S
C134 H108 0.950 . S
C134 C129 1.386 . S
C134 C133 1.367 . S
C135 C129 1.483 . S
C135 C136 1.382 . S
C135 C137 1.403 . S
C136 H109 0.950 . S
C136 C122 1.411 . S
C136 C135 1.382 . S
C137 C121 1.411 . S
C137 C135 1.403 . S
C137 C138 1.489 . S
C138 C137 1.489 . S
C138 C139 1.383 . S
C138 C143 1.382 . S
C139 H110 0.950 . S
C139 C138 1.383 . S
C139 C140 1.395 . S
C140 H111 0.950 . S
C140 C139 1.395 . S
C140 C141 1.288 . S
C141 C140 1.288 . S
C141 C142 1.392 . S
C142 H112 0.951 . S
C142 C141 1.392 . S
C142 C143 1.392 . S
C143 H113 0.949 . S
C143 C138 1.382 . S
C143 C142 1.392 . S
H144 C163 0.949 . S
H145 C164 0.950 . S
H146 C166 0.950 . S
H147 C167 0.950 . S
H148 C169 0.950 1_565 S
H149 C172 0.950 . S
H150 C173 0.950 . S
H151 C175 0.951 . S
H152 C176 0.949 . S
H153 C178 0.949 . S
H154 C179 0.950 . S
H155 C181 0.950 . S
H156 C182 0.950 . S
H157 C184 0.950 . S
H158 C187 0.950 . S
H159 C188 0.950 . S
H160 C190 0.951 . S
H161 C191 0.949 . S
C162 C163 1.376 . S
C162 C167 1.386 . S
C162 C168 1.483 . S
C163 H144 0.949 . S
C163 C162 1.376 . S
C163 C164 1.397 . S
C164 H145 0.950 . S
C164 C163 1.397 . S
C164 C165 1.391 . S
C165 C164 1.391 . S
C165 C166 1.405 . S
C166 H146 0.950 . S
C166 C165 1.405 . S
C166 C167 1.367 . S
C167 H147 0.950 . S
C167 C162 1.386 . S
C167 C166 1.367 . S
C168 C162 1.483 . S
C168 C169 1.382 1_565 S
C168 C170 1.403 . S
C169 H148 0.950 1_545 S
C169 C168 1.382 1_545 S
C169 C185 1.411 . S
C170 C168 1.403 . S
C170 C171 1.489 . S
C170 C184 1.411 1_565 S
C171 C170 1.489 . S
C171 C172 1.383 . S
C171 C176 1.382 . S
C172 H149 0.950 . S
C172 C171 1.383 . S
C172 C173 1.395 . S
C173 H150 0.950 . S
C173 C172 1.395 . S
C173 C174 1.288 . S
C174 C173 1.288 . S
C174 C175 1.392 . S
C175 H151 0.951 . S
C175 C174 1.392 . S
C175 C176 1.392 . S
C176 H152 0.949 . S
C176 C171 1.382 . S
C176 C175 1.392 . S
C177 C178 1.376 . S
C177 C182 1.386 . S
C177 C183 1.483 . S
C178 H153 0.949 . S
C178 C177 1.376 . S
C178 C179 1.397 . S
C179 H154 0.950 . S
C179 C178 1.397 . S
C179 C180 1.391 . S
C180 C179 1.391 . S
C180 C181 1.405 . S
C181 H155 0.950 . S
C181 C180 1.405 . S
C181 C182 1.367 . S
C182 H156 0.950 . S
C182 C177 1.386 . S
C182 C181 1.367 . S
C183 C177 1.483 . S
C183 C184 1.382 . S
C183 C185 1.403 . S
C184 H157 0.950 . S
C184 C170 1.411 1_545 S
C184 C183 1.382 . S
C185 C169 1.411 . S
C185 C183 1.403 . S
C185 C186 1.489 . S
C186 C185 1.489 . S
C186 C187 1.383 . S
C186 C191 1.382 . S
C187 H158 0.950 . S
C187 C186 1.383 . S
C187 C188 1.395 . S
C188 H159 0.950 . S
C188 C187 1.395 . S
C188 C189 1.288 . S
C189 C188 1.288 . S
C189 C190 1.392 . S
C190 H160 0.951 . S
C190 C189 1.392 . S
C190 C191 1.392 . S
C191 H161 0.949 . S
C191 C186 1.382 . S
C191 C190 1.392 . S
H192 C211 0.949 . S
H193 C212 0.950 . S
H194 C214 0.950 . S
H195 C215 0.950 . S
H196 C217 0.952 . S
H197 C220 0.950 . S
H198 C221 0.950 . S
H199 C223 0.951 . S
H200 C224 0.949 . S
H201 C226 0.949 . S
H202 C227 0.950 . S
H203 C229 0.950 . S
H204 C230 0.950 . S
H205 C232 0.950 . S
H206 C235 0.950 . S
H207 C236 0.950 . S
H208 C238 0.951 . S
H209 C239 0.949 . S
C210 C211 1.376 . S
C210 C215 1.386 . S
C210 C216 1.483 . S
C211 H192 0.949 . S
C211 C210 1.376 . S
C211 C212 1.397 . S
C212 H193 0.950 . S
C212 C211 1.397 . S
C212 C213 1.391 . S
C213 C212 1.391 . S
C213 C214 1.405 . S
C214 H194 0.950 . S
C214 C213 1.405 . S
C214 C215 1.367 . S
C215 H195 0.950 . S
C215 C210 1.386 . S
C215 C214 1.367 . S
C216 C210 1.483 . S
C216 C217 1.364 1_455 S
C216 C218 1.403 . S
C217 H196 0.952 . S
C217 C216 1.364 1_655 S
C217 C233 1.427 . S
C218 C216 1.403 . S
C218 C219 1.489 . S
C218 C232 1.411 . S
C219 C218 1.489 . S
C219 C220 1.383 . S
C219 C224 1.382 . S
C220 H197 0.950 . S
C220 C219 1.383 . S
C220 C221 1.395 . S
C221 H198 0.950 . S
C221 C220 1.395 . S
C221 C222 1.288 . S
C222 C221 1.288 . S
C222 C223 1.392 . S
C223 H199 0.951 . S
C223 C222 1.392 . S
C223 C224 1.392 . S
C224 H200 0.949 . S
C224 C219 1.382 . S
C224 C223 1.392 . S
C225 C226 1.376 . S
C225 C230 1.386 . S
C225 C231 1.483 . S
C226 H201 0.949 . S
C226 C225 1.376 . S
C226 C227 1.397 . S
C227 H202 0.950 . S
C227 C226 1.397 . S
C227 C228 1.391 . S
C228 C227 1.391 . S
C228 C229 1.405 . S
C229 H203 0.950 . S
C229 C228 1.405 . S
C229 C230 1.367 . S
C230 H204 0.950 . S
C230 C225 1.386 . S
C230 C229 1.367 . S
C231 C225 1.483 . S
C231 C232 1.382 1_655 S
C231 C233 1.403 . S
C232 H205 0.950 . S
C232 C218 1.411 . S
C232 C231 1.382 1_455 S
C233 C217 1.427 . S
C233 C231 1.403 . S
C233 C234 1.489 . S
C234 C233 1.489 . S
C234 C235 1.383 . S
C234 C239 1.382 . S
C235 H206 0.950 . S
C235 C234 1.383 . S
C235 C236 1.395 . S
C236 H207 0.950 . S
C236 C235 1.395 . S
C236 C237 1.288 . S
C237 C236 1.288 . S
C237 C238 1.392 . S
C238 H208 0.951 . S
C238 C237 1.392 . S
C238 C239 1.392 . S
C239 H209 0.949 . S
C239 C234 1.382 . S
C239 C238 1.392 . S
H240 C259 0.949 . S
H241 C260 0.950 . S
H242 C262 0.950 . S
H243 C263 0.950 . S
H244 C265 0.950 . S
H245 C268 0.950 . S
H246 C269 0.950 . S
H247 C271 0.951 . S
H248 C272 0.949 . S
H249 C274 0.949 . S
H250 C275 0.950 . S
H251 C277 0.950 . S
H252 C278 0.950 . S
H253 C280 0.950 . S
H254 C283 0.950 . S
H255 C284 0.950 . S
H256 C286 0.951 . S
H257 C287 0.949 . S
C258 C259 1.376 . S
C258 C263 1.386 . S
C258 C264 1.483 . S
C259 H240 0.949 . S
C259 C258 1.376 . S
C259 C260 1.397 . S
C260 H241 0.950 . S
C260 C259 1.397 . S
C260 C261 1.391 . S
C261 C260 1.391 . S
C261 C262 1.405 . S
C262 H242 0.950 . S
C262 C261 1.405 . S
C262 C263 1.367 . S
C263 H243 0.950 . S
C263 C258 1.386 . S
C263 C262 1.367 . S
C264 C258 1.483 . S
C264 C265 1.382 . S
C264 C266 1.403 . S
C265 H244 0.950 . S
C265 C264 1.382 . S
C265 C281 1.411 . S
C266 C264 1.403 . S
C266 C267 1.489 . S
C266 C280 1.411 . S
C267 C266 1.489 . S
C267 C268 1.383 . S
C267 C272 1.382 . S
C268 H245 0.950 . S
C268 C267 1.383 . S
C268 C269 1.395 . S
C269 H246 0.950 . S
C269 C268 1.395 . S
C269 C270 1.288 . S
C270 C269 1.288 . S
C270 C271 1.392 . S
C271 H247 0.951 . S
C271 C270 1.392 . S
C271 C272 1.392 . S
C272 H248 0.949 . S
C272 C267 1.382 . S
C272 C271 1.392 . S
C273 C274 1.376 . S
C273 C278 1.386 . S
C273 C279 1.483 . S
C274 H249 0.949 . S
C274 C273 1.376 . S
C274 C275 1.397 . S
C275 H250 0.950 . S
C275 C274 1.397 . S
C275 C276 1.391 . S
C276 C275 1.391 . S
C276 C277 1.405 . S
C277 H251 0.950 . S
C277 C276 1.405 . S
C277 C278 1.367 . S
C278 H252 0.950 . S
C278 C273 1.386 . S
C278 C277 1.367 . S
C279 C273 1.483 . S
C279 C280 1.382 . S
C279 C281 1.403 . S
C280 H253 0.950 . S
C280 C266 1.411 . S
C280 C279 1.382 . S
C281 C265 1.411 . S
C281 C279 1.403 . S
C281 C282 1.489 . S
C282 C281 1.489 . S
C282 C283 1.383 . S
C282 C287 1.382 . S
C283 H254 0.950 . S
C283 C282 1.383 . S
C283 C284 1.395 . S
C284 H255 0.950 . S
C284 C283 1.395 . S
C284 C285 1.288 . S
C285 C284 1.288 . S
C285 C286 1.392 . S
C286 H256 0.951 . S
C286 C285 1.392 . S
C286 C287 1.392 . S
C287 H257 0.949 . S
C287 C282 1.382 . S
C287 C286 1.392 . S
H288 C307 0.949 . S
H289 C308 0.950 . S
H290 C310 0.950 . S
H291 C311 0.950 . S
H292 C313 0.950 . S
H293 C316 0.950 . S
H294 C317 0.950 . S
H295 C319 0.951 . S
H296 C320 0.949 1_545 S
H297 C322 0.949 . S
H298 C323 0.950 . S
H299 C325 0.950 . S
H300 C326 0.950 . S
H301 C328 0.950 . S
H302 C331 0.950 . S
H303 C332 0.950 . S
H304 C334 0.951 . S
H305 C335 0.949 1_565 S
C306 C307 1.376 . S
C306 C311 1.386 . S
C306 C312 1.483 . S
C307 H288 0.949 . S
C307 C306 1.376 . S
C307 C308 1.397 . S
C308 H289 0.950 . S
C308 C307 1.397 . S
C308 C309 1.391 . S
C309 C308 1.391 . S
C309 C310 1.405 . S
C310 H290 0.950 . S
C310 C309 1.405 . S
C310 C311 1.367 . S
C311 H291 0.950 . S
C311 C306 1.386 . S
C311 C310 1.367 . S
C312 C306 1.483 . S
C312 C313 1.382 . S
C312 C314 1.403 . S
C313 H292 0.950 . S
C313 C312 1.382 . S
C313 C329 1.411 1_565 S
C314 C312 1.403 . S
C314 C315 1.489 . S
C314 C328 1.411 1_565 S
C315 C314 1.489 . S
C315 C316 1.383 . S
C315 C320 1.382 . S
C316 H293 0.950 . S
C316 C315 1.383 . S
C316 C317 1.395 . S
C317 H294 0.950 . S
C317 C316 1.395 . S
C317 C318 1.288 . S
C318 C317 1.288 . S
C318 C319 1.392 . S
C319 H295 0.951 . S
C319 C318 1.392 . S
C319 C320 1.392 . S
C320 H296 0.949 1_565 S
C320 C315 1.382 . S
C320 C319 1.392 . S
C321 C322 1.376 . S
C321 C326 1.386 . S
C321 C327 1.483 . S
C322 H297 0.949 . S
C322 C321 1.376 . S
C322 C323 1.397 . S
C323 H298 0.950 . S
C323 C322 1.397 . S
C323 C324 1.391 . S
C324 C323 1.391 . S
C324 C325 1.405 . S
C325 H299 0.950 . S
C325 C324 1.405 . S
C325 C326 1.367 . S
C326 H300 0.950 . S
C326 C321 1.386 . S
C326 C325 1.367 . S
C327 C321 1.483 . S
C327 C328 1.382 . S
C327 C329 1.403 . S
C328 H301 0.950 . S
C328 C314 1.411 1_545 S
C328 C327 1.382 . S
C329 C313 1.411 1_545 S
C329 C327 1.403 . S
C329 C330 1.489 . S
C330 C329 1.489 . S
C330 C331 1.383 . S
C330 C335 1.382 . S
C331 H302 0.950 . S
C331 C330 1.383 . S
C331 C332 1.395 . S
C332 H303 0.950 . S
C332 C331 1.395 . S
C332 C333 1.288 . S
C333 C332 1.288 . S
C333 C334 1.392 . S
C334 H304 0.951 . S
C334 C333 1.392 . S
C334 C335 1.392 . S
C335 H305 0.949 1_545 S
C335 C330 1.382 . S
C335 C334 1.392 . S
H336 C355 0.949 1_455 S
H337 C356 0.950 . S
H338 C358 0.950 . S
H339 C359 0.950 . S
H340 C361 0.950 . S
H341 C364 0.950 . S
H342 C365 0.950 . S
H343 C367 0.951 . S
H344 C368 0.949 . S
H345 C370 0.955 . S
H346 C371 0.950 . S
H347 C373 0.950 . S
H348 C374 0.950 . S
H349 C376 0.945 1_665 S
H350 C379 0.950 . S
H351 C380 0.950 . S
H352 C382 0.951 . S
H353 C383 0.949 . S
C354 C355 1.376 . S
C354 C359 1.386 . S
C354 C360 1.483 . S
C355 H336 0.949 1_655 S
C355 C354 1.376 . S
C355 C356 1.397 . S
C356 H337 0.950 . S
C356 C355 1.397 . S
C356 C357 1.391 . S
C357 C356 1.391 . S
C357 C358 1.405 . S
C358 H338 0.950 . S
C358 C357 1.405 . S
C358 C359 1.367 . S
C359 H339 0.950 . S
C359 C354 1.386 . S
C359 C358 1.367 . S
C360 C354 1.483 . S
C360 C361 1.382 1_655 S
C360 C362 1.403 . S
C361 H340 0.950 . S
C361 C360 1.382 1_455 S
C361 C377 1.411 1_545 S
C362 C360 1.403 . S
C362 C363 1.489 . S
C362 C376 1.431 1_655 S
C363 C362 1.489 . S
C363 C364 1.383 . S
C363 C368 1.382 . S
C364 H341 0.950 . S
C364 C363 1.383 . S
C364 C365 1.395 . S
C365 H342 0.950 . S
C365 C364 1.395 . S
C365 C366 1.288 . S
C366 C365 1.288 . S
C366 C367 1.392 . S
C367 H343 0.951 . S
C367 C366 1.392 . S
C367 C368 1.392 . S
C368 H344 0.949 . S
C368 C363 1.382 . S
C368 C367 1.392 . S
C369 C370 1.376 . S
C369 C374 1.386 . S
C369 C375 1.483 . S
C370 H345 0.955 . S
C370 C369 1.376 . S
C370 C371 1.397 . S
C371 H346 0.950 . S
C371 C370 1.397 . S
C371 C372 1.391 . S
C372 C371 1.391 . S
C372 C373 1.405 . S
C373 H347 0.950 . S
C373 C372 1.405 . S
C373 C374 1.367 . S
C374 H348 0.950 . S
C374 C369 1.386 . S
C374 C373 1.367 . S
C375 C369 1.483 . S
C375 C376 1.368 1_565 S
C375 C377 1.403 . S
C376 H349 0.945 1_445 S
C376 C362 1.431 1_455 S
C376 C375 1.368 1_545 S
C377 C361 1.411 1_565 S
C377 C375 1.403 . S
C377 C378 1.489 . S
C378 C377 1.489 . S
C378 C379 1.383 . S
C378 C383 1.382 . S
C379 H350 0.950 . S
C379 C378 1.383 . S
C379 C380 1.395 . S
C380 H351 0.950 . S
C380 C379 1.395 . S
C380 C381 1.288 . S
C381 C380 1.288 . S
C381 C382 1.392 . S
C382 H352 0.951 . S
C382 C381 1.392 . S
C382 C383 1.392 . S
C383 H353 0.949 . S
C383 C378 1.382 . S
C383 C382 1.392 . S
Mn384 O389 2.095 1_554 S
Mn384 O399 2.162 . S
Mn384 O400 2.297 . S
Mn384 O408 2.385 . S
Mn384 O409 2.209 . S
Mn384 O410 2.094 1_554 S
Mn385 O390 2.121 . S
Mn385 N392 2.257 1_556 S
Mn385 N401 2.282 1_556 S
Mn385 O409 2.215 1_556 S
Mn385 O411 2.117 . S
C386 O408 1.234 . S
C386 O409 1.283 . S
C387 O399 1.281 . S
C387 O400 1.236 . S
C388 O410 1.240 . S
C388 O411 1.264 . S
O389 Mn384 2.095 1_556 S
O389 C398 1.250 . S
O390 Mn385 2.121 . S
O390 C398 1.258 . S
C391 N392 1.326 1_556 S
C391 C395 1.460 1_556 S
C391 H397 0.929 . S
N392 Mn385 2.257 1_554 S
N392 C391 1.326 1_554 S
N392 C396 1.362 . S
C393 C394 1.258 . S
C393 C396 1.431 . S
C393 C413 1.449 . S
C394 C393 1.258 . S
C394 C395 1.477 . S
C394 H414 0.931 . S
C395 C391 1.460 1_554 S
C395 C394 1.477 . S
C395 H415 0.930 1_554 S
C396 N392 1.362 . S
C396 C393 1.431 . S
C396 C406 1.476 . S
H397 C391 0.929 . S
C398 O389 1.250 . S
C398 O390 1.258 . S
O399 Mn384 2.162 . S
O399 C387 1.281 . S
O400 Mn384 2.297 . S
O400 C387 1.236 . S
N401 Mn385 2.282 1_554 S
N401 C402 1.328 . S
N401 C406 1.318 . S
C402 N401 1.328 . S
C402 C403 1.457 . S
C402 H407 0.929 . S
C403 C402 1.457 . S
C403 C404 1.291 . S
C403 H416 0.931 . S
C404 C403 1.291 . S
C404 C405 1.373 . S
C404 H417 0.929 . S
C405 C404 1.373 . S
C405 C406 1.396 . S
C405 C412 1.403 . S
C406 C396 1.476 . S
C406 N401 1.318 . S
C406 C405 1.396 . S
H407 C402 0.929 . S
O408 Mn384 2.385 . S
O408 C386 1.234 . S
O409 Mn384 2.209 . S
O409 Mn385 2.215 1_554 S
O409 C386 1.283 . S
O410 Mn384 2.094 1_556 S
O410 C388 1.240 . S
O411 Mn385 2.117 . S
O411 C388 1.264 . S
C412 C405 1.403 . S
C412 C413 1.399 . S
C412 H418 0.929 . S
C413 C393 1.449 . S
C413 C412 1.399 . S
C413 H419 0.930 . S
H414 C394 0.931 . S
H415 C395 0.930 1_556 S
H416 C403 0.931 . S
H417 C404 0.929 . S
H418 C412 0.929 . S
H419 C413 0.930 . S
Mn420 O425 2.095 . S
Mn420 O435 2.162 . S
Mn420 O436 2.297 . S
Mn420 O444 2.385 . S
Mn420 O445 2.209 . S
Mn420 O446 2.094 . S
Mn421 O426 2.121 . S
Mn421 N428 2.257 . S
Mn421 N437 2.282 . S
Mn421 O445 2.215 . S
Mn421 O447 2.117 . S
C422 O444 1.234 . S
C422 O445 1.283 . S
C423 O435 1.281 . S
C423 O436 1.236 . S
C424 O446 1.240 . S
C424 O447 1.264 . S
O425 Mn420 2.095 . S
O425 C434 1.250 . S
O426 Mn421 2.121 . S
O426 C434 1.258 . S
C427 N428 1.326 . S
C427 C431 1.460 . S
C427 H433 0.929 . S
N428 Mn421 2.257 . S
N428 C427 1.326 . S
N428 C432 1.362 . S
C429 C430 1.258 . S
C429 C432 1.431 . S
C429 C449 1.449 . S
C430 C429 1.258 . S
C430 C431 1.477 . S
C430 H450 0.931 . S
C431 C427 1.460 . S
C431 C430 1.477 . S
C431 H451 0.930 . S
C432 N428 1.362 . S
C432 C429 1.431 . S
C432 C442 1.476 . S
H433 C427 0.929 . S
C434 O425 1.250 . S
C434 O426 1.258 . S
O435 Mn420 2.162 . S
O435 C423 1.281 . S
O436 Mn420 2.297 . S
O436 C423 1.236 . S
N437 Mn421 2.282 . S
N437 C438 1.328 . S
N437 C442 1.318 . S
C438 N437 1.328 . S
C438 C439 1.457 . S
C438 H443 0.929 . S
C439 C438 1.457 . S
C439 C440 1.291 . S
C439 H452 0.931 . S
C440 C439 1.291 . S
C440 C441 1.373 . S
C440 H453 0.929 . S
C441 C440 1.373 . S
C441 C442 1.396 . S
C441 C448 1.403 . S
C442 C432 1.476 . S
C442 N437 1.318 . S
C442 C441 1.396 . S
H443 C438 0.929 . S
O444 Mn420 2.385 . S
O444 C422 1.234 . S
O445 Mn420 2.209 . S
O445 Mn421 2.215 . S
O445 C422 1.283 . S
O446 Mn420 2.094 . S
O446 C424 1.240 . S
O447 Mn421 2.117 . S
O447 C424 1.264 . S
C448 C441 1.403 . S
C448 C449 1.399 . S
C448 H454 0.929 . S
C449 C429 1.449 . S
C449 C448 1.399 . S
C449 H455 0.930 . S
H450 C430 0.931 . S
H451 C431 0.930 . S
H452 C439 0.931 . S
H453 C440 0.929 . S
H454 C448 0.929 . S
H455 C449 0.930 . S
Mn456 O461 2.095 . S
Mn456 O471 2.162 . S
Mn456 O472 2.297 . S
Mn456 O480 2.385 . S
Mn456 O481 2.209 . S
Mn456 O482 2.094 . S
Mn457 O462 2.121 . S
Mn457 N464 2.257 . S
Mn457 N473 2.282 . S
Mn457 O481 2.215 . S
Mn457 O483 2.117 . S
C458 O480 1.234 . S
C458 O481 1.283 . S
C459 O471 1.281 . S
C459 O472 1.236 . S
C460 O482 1.240 . S
C460 O483 1.264 . S
O461 Mn456 2.095 . S
O461 C470 1.250 . S
O462 Mn457 2.121 . S
O462 C470 1.258 . S
C463 N464 1.326 . S
C463 C467 1.460 . S
C463 H469 0.929 . S
N464 Mn457 2.257 . S
N464 C463 1.326 . S
N464 C468 1.362 . S
C465 C466 1.258 . S
C465 C468 1.431 . S
C465 C485 1.449 . S
C466 C465 1.258 . S
C466 C467 1.477 . S
C466 H486 0.931 . S
C467 C463 1.460 . S
C467 C466 1.477 . S
C467 H487 0.930 . S
C468 N464 1.362 . S
C468 C465 1.431 . S
C468 C478 1.476 . S
H469 C463 0.929 . S
C470 O461 1.250 . S
C470 O462 1.258 . S
O471 Mn456 2.162 . S
O471 C459 1.281 . S
O472 Mn456 2.297 . S
O472 C459 1.236 . S
N473 Mn457 2.282 . S
N473 C474 1.328 . S
N473 C478 1.318 . S
C474 N473 1.328 . S
C474 C475 1.457 . S
C474 H479 0.929 . S
C475 C474 1.457 . S
C475 C476 1.291 . S
C475 H488 0.931 . S
C476 C475 1.291 . S
C476 C477 1.373 . S
C476 H489 0.929 . S
C477 C476 1.373 . S
C477 C478 1.396 . S
C477 C484 1.403 . S
C478 C468 1.476 . S
C478 N473 1.318 . S
C478 C477 1.396 . S
H479 C474 0.929 . S
O480 Mn456 2.385 . S
O480 C458 1.234 . S
O481 Mn456 2.209 . S
O481 Mn457 2.215 . S
O481 C458 1.283 . S
O482 Mn456 2.094 . S
O482 C460 1.240 . S
O483 Mn457 2.117 . S
O483 C460 1.264 . S
C484 C477 1.403 . S
C484 C485 1.399 . S
C484 H490 0.929 . S
C485 C465 1.449 . S
C485 C484 1.399 . S
C485 H491 0.930 . S
H486 C466 0.931 . S
H487 C467 0.930 . S
H488 C475 0.931 . S
H489 C476 0.929 . S
H490 C484 0.929 . S
H491 C485 0.930 . S
Mn492 O497 2.095 . S
Mn492 O507 2.162 . S
Mn492 O508 2.297 . S
Mn492 O516 2.385 . S
Mn492 O517 2.209 . S
Mn492 O518 2.094 . S
Mn493 O498 2.121 . S
Mn493 N500 2.257 . S
Mn493 N509 2.282 . S
Mn493 O517 2.215 . S
Mn493 O519 2.117 . S
C494 O516 1.234 . S
C494 O517 1.283 . S
C495 O507 1.281 . S
C495 O508 1.236 . S
C496 O518 1.240 . S
C496 O519 1.264 . S
O497 Mn492 2.095 . S
O497 C506 1.250 . S
O498 Mn493 2.121 . S
O498 C506 1.258 . S
C499 N500 1.326 . S
C499 C503 1.460 . S
C499 H505 0.929 . S
N500 Mn493 2.257 . S
N500 C499 1.326 . S
N500 C504 1.362 . S
C501 C502 1.258 . S
C501 C504 1.431 . S
C501 C521 1.449 . S
C502 C501 1.258 . S
C502 C503 1.477 . S
C502 H522 0.931 . S
C503 C499 1.460 . S
C503 C502 1.477 . S
C503 H523 0.930 . S
C504 N500 1.362 . S
C504 C501 1.431 . S
C504 C514 1.476 . S
H505 C499 0.929 . S
C506 O497 1.250 . S
C506 O498 1.258 . S
O507 Mn492 2.162 . S
O507 C495 1.281 . S
O508 Mn492 2.297 . S
O508 C495 1.236 . S
N509 Mn493 2.282 . S
N509 C510 1.328 . S
N509 C514 1.318 . S
C510 N509 1.328 . S
C510 C511 1.457 . S
C510 H515 0.929 . S
C511 C510 1.457 . S
C511 C512 1.291 . S
C511 H524 0.931 . S
C512 C511 1.291 . S
C512 C513 1.373 . S
C512 H525 0.929 . S
C513 C512 1.373 . S
C513 C514 1.396 . S
C513 C520 1.403 . S
C514 C504 1.476 . S
C514 N509 1.318 . S
C514 C513 1.396 . S
H515 C510 0.929 . S
O516 Mn492 2.385 . S
O516 C494 1.234 . S
O517 Mn492 2.209 . S
O517 Mn493 2.215 . S
O517 C494 1.283 . S
O518 Mn492 2.094 . S
O518 C496 1.240 . S
O519 Mn493 2.117 . S
O519 C496 1.264 . S
C520 C513 1.403 . S
C520 C521 1.399 . S
C520 H526 0.929 . S
C521 C501 1.449 . S
C521 C520 1.399 . S
C521 H527 0.930 . S
H522 C502 0.931 . S
H523 C503 0.930 . S
H524 C511 0.931 . S
H525 C512 0.929 . S
H526 C520 0.929 . S
H527 C521 0.930 . S
Mn528 O533 2.095 . S
Mn528 O543 2.162 . S
Mn528 O544 2.297 . S
Mn528 O552 2.385 . S
Mn528 O553 2.209 . S
Mn528 O554 2.094 . S
Mn529 O534 2.121 . S
Mn529 N536 2.257 . S
Mn529 N545 2.282 . S
Mn529 O553 2.215 . S
Mn529 O555 2.117 . S
C530 O552 1.234 . S
C530 O553 1.283 . S
C531 O543 1.281 . S
C531 O544 1.236 . S
C532 O554 1.240 . S
C532 O555 1.264 . S
O533 Mn528 2.095 . S
O533 C542 1.250 . S
O534 Mn529 2.121 . S
O534 C542 1.258 . S
C535 N536 1.326 . S
C535 C539 1.460 . S
C535 H541 0.929 . S
N536 Mn529 2.257 . S
N536 C535 1.326 . S
N536 C540 1.362 . S
C537 C538 1.258 . S
C537 C540 1.431 . S
C537 C557 1.449 . S
C538 C537 1.258 . S
C538 C539 1.477 . S
C538 H558 0.931 . S
C539 C535 1.460 . S
C539 C538 1.477 . S
C539 H559 0.930 . S
C540 N536 1.362 . S
C540 C537 1.431 . S
C540 C550 1.476 . S
H541 C535 0.929 . S
C542 O533 1.250 . S
C542 O534 1.258 . S
O543 Mn528 2.162 . S
O543 C531 1.281 . S
O544 Mn528 2.297 . S
O544 C531 1.236 . S
N545 Mn529 2.282 . S
N545 C546 1.328 . S
N545 C550 1.318 . S
C546 N545 1.328 . S
C546 C547 1.457 . S
C546 H551 0.929 . S
C547 C546 1.457 . S
C547 C548 1.291 . S
C547 H560 0.931 . S
C548 C547 1.291 . S
C548 C549 1.373 . S
C548 H561 0.929 . S
C549 C548 1.373 . S
C549 C550 1.396 . S
C549 C556 1.403 . S
C550 C540 1.476 . S
C550 N545 1.318 . S
C550 C549 1.396 . S
H551 C546 0.929 . S
O552 Mn528 2.385 . S
O552 C530 1.234 . S
O553 Mn528 2.209 . S
O553 Mn529 2.215 . S
O553 C530 1.283 . S
O554 Mn528 2.094 . S
O554 C532 1.240 . S
O555 Mn529 2.117 . S
O555 C532 1.264 . S
C556 C549 1.403 . S
C556 C557 1.399 . S
C556 H562 0.929 . S
C557 C537 1.449 . S
C557 C556 1.399 . S
C557 H563 0.930 . S
H558 C538 0.931 . S
H559 C539 0.930 . S
H560 C547 0.931 . S
H561 C548 0.929 . S
H562 C556 0.929 . S
H563 C557 0.930 . S
Mn564 O569 2.095 . S
Mn564 O579 2.162 . S
Mn564 O580 2.297 . S
Mn564 O588 2.385 . S
Mn564 O589 2.209 . S
Mn564 O590 2.094 . S
Mn565 O570 2.121 . S
Mn565 N572 2.257 . S
Mn565 N581 2.282 . S
Mn565 O589 2.215 . S
Mn565 O591 2.117 . S
C566 O588 1.234 . S
C566 O589 1.283 . S
C567 O579 1.281 . S
C567 O580 1.236 . S
C568 O590 1.240 . S
C568 O591 1.264 . S
O569 Mn564 2.095 . S
O569 C578 1.250 . S
O570 Mn565 2.121 . S
O570 C578 1.258 . S
C571 N572 1.326 . S
C571 C575 1.460 . S
C571 H577 0.929 . S
N572 Mn565 2.257 . S
N572 C571 1.326 . S
N572 C576 1.362 . S
C573 C574 1.258 . S
C573 C576 1.431 . S
C573 C593 1.449 . S
C574 C573 1.258 . S
C574 C575 1.477 . S
C574 H594 0.931 . S
C575 C571 1.460 . S
C575 C574 1.477 . S
C575 H595 0.930 . S
C576 N572 1.362 . S
C576 C573 1.431 . S
C576 C586 1.476 . S
H577 C571 0.929 . S
C578 O569 1.250 . S
C578 O570 1.258 . S
O579 Mn564 2.162 . S
O579 C567 1.281 . S
O580 Mn564 2.297 . S
O580 C567 1.236 . S
N581 Mn565 2.282 . S
N581 C582 1.328 . S
N581 C586 1.318 . S
C582 N581 1.328 . S
C582 C583 1.457 . S
C582 H587 0.929 . S
C583 C582 1.457 . S
C583 C584 1.291 . S
C583 H596 0.931 . S
C584 C583 1.291 . S
C584 C585 1.373 . S
C584 H597 0.929 . S
C585 C584 1.373 . S
C585 C586 1.396 . S
C585 C592 1.403 . S
C586 C576 1.476 . S
C586 N581 1.318 . S
C586 C585 1.396 . S
H587 C582 0.929 . S
O588 Mn564 2.385 . S
O588 C566 1.234 . S
O589 Mn564 2.209 . S
O589 Mn565 2.215 . S
O589 C566 1.283 . S
O590 Mn564 2.094 . S
O590 C568 1.240 . S
O591 Mn565 2.117 . S
O591 C568 1.264 . S
C592 C585 1.403 . S
C592 C593 1.399 . S
C592 H598 0.929 . S
C593 C573 1.449 . S
C593 C592 1.399 . S
C593 H599 0.930 . S
H594 C574 0.931 . S
H595 C575 0.930 . S
H596 C583 0.931 . S
H597 C584 0.929 . S
H598 C592 0.929 . S
H599 C593 0.930 . S
Mn600 O605 2.095 . S
Mn600 O615 2.161 1_554 S
Mn600 O616 2.297 1_554 S
Mn600 O624 2.385 1_554 S
Mn600 O625 2.209 1_554 S
Mn600 O626 2.094 . S
Mn601 O606 2.121 . S
Mn601 N608 2.257 1_554 S
Mn601 N617 2.282 1_554 S
Mn601 O625 2.215 1_554 S
Mn601 O627 2.117 . S
C602 O624 1.234 . S
C602 O625 1.283 . S
C603 O615 1.282 . S
C603 O616 1.236 . S
C604 O626 1.240 . S
C604 O627 1.264 . S
O605 Mn600 2.095 . S
O605 C614 1.250 . S
O606 Mn601 2.121 . S
O606 C614 1.258 . S
C607 N608 1.326 1_554 S
C607 C611 1.465 . S
C607 H613 0.929 . S
N608 Mn601 2.257 1_556 S
N608 C607 1.326 1_556 S
N608 C612 1.362 . S
C609 C610 1.258 . S
C609 C612 1.431 . S
C609 C629 1.449 . S
C610 C609 1.258 . S
C610 C611 1.462 1_556 S
C610 H630 0.931 . S
C611 C607 1.465 . S
C611 C610 1.462 1_554 S
C611 H631 0.940 . S
C612 N608 1.362 . S
C612 C609 1.431 . S
C612 C622 1.476 . S
H613 C607 0.929 . S
C614 O605 1.250 . S
C614 O606 1.258 . S
O615 Mn600 2.161 1_556 S
O615 C603 1.282 . S
O616 Mn600 2.297 1_556 S
O616 C603 1.236 . S
N617 Mn601 2.282 1_556 S
N617 C618 1.328 . S
N617 C622 1.318 . S
C618 N617 1.328 . S
C618 C619 1.457 . S
C618 H623 0.929 . S
C619 C618 1.457 . S
C619 C620 1.291 . S
C619 H632 0.931 . S
C620 C619 1.291 . S
C620 C621 1.373 . S
C620 H633 0.929 . S
C621 C620 1.373 . S
C621 C622 1.396 . S
C621 C628 1.403 . S
C622 C612 1.476 . S
C622 N617 1.318 . S
C622 C621 1.396 . S
H623 C618 0.929 . S
O624 Mn600 2.385 1_556 S
O624 C602 1.234 . S
O625 Mn600 2.209 1_556 S
O625 Mn601 2.215 1_556 S
O625 C602 1.283 . S
O626 Mn600 2.094 . S
O626 C604 1.240 . S
O627 Mn601 2.117 . S
O627 C604 1.264 . S
C628 C621 1.403 . S
C628 C629 1.399 . S
C628 H634 0.929 . S
C629 C609 1.449 . S
C629 C628 1.399 . S
C629 H635 0.930 . S
H630 C610 0.931 . S
H631 C611 0.940 . S
H632 C619 0.931 . S
H633 C620 0.929 . S
H634 C628 0.929 . S
H635 C629 0.930 . S
Mn636 O641 2.095 . S
Mn636 O651 2.162 . S
Mn636 O652 2.297 . S
Mn636 O660 2.385 . S
Mn636 O661 2.209 . S
Mn636 O662 2.094 . S
Mn637 O642 2.121 . S
Mn637 N644 2.257 . S
Mn637 N653 2.282 . S
Mn637 O661 2.215 . S
Mn637 O663 2.117 . S
C638 O660 1.234 . S
C638 O661 1.283 . S
C639 O651 1.281 . S
C639 O652 1.236 . S
C640 O662 1.240 . S
C640 O663 1.264 . S
O641 Mn636 2.095 . S
O641 C650 1.250 . S
O642 Mn637 2.121 . S
O642 C650 1.258 . S
C643 N644 1.326 . S
C643 C647 1.460 . S
C643 H649 0.929 . S
N644 Mn637 2.257 . S
N644 C643 1.326 . S
N644 C648 1.362 . S
C645 C646 1.258 . S
C645 C648 1.431 . S
C645 C665 1.449 . S
C646 C645 1.258 . S
C646 C647 1.477 . S
C646 H666 0.931 . S
C647 C643 1.460 . S
C647 C646 1.477 . S
C647 H667 0.930 . S
C648 N644 1.362 . S
C648 C645 1.431 . S
C648 C658 1.476 . S
H649 C643 0.929 . S
C650 O641 1.250 . S
C650 O642 1.258 . S
O651 Mn636 2.162 . S
O651 C639 1.281 . S
O652 Mn636 2.297 . S
O652 C639 1.236 . S
N653 Mn637 2.282 . S
N653 C654 1.328 . S
N653 C658 1.318 . S
C654 N653 1.328 . S
C654 C655 1.457 . S
C654 H659 0.929 . S
C655 C654 1.457 . S
C655 C656 1.291 . S
C655 H668 0.931 . S
C656 C655 1.291 . S
C656 C657 1.373 . S
C656 H669 0.929 . S
C657 C656 1.373 . S
C657 C658 1.396 . S
C657 C664 1.403 . S
C658 C648 1.476 . S
C658 N653 1.318 . S
C658 C657 1.396 . S
H659 C654 0.929 . S
O660 Mn636 2.385 . S
O660 C638 1.234 . S
O661 Mn636 2.209 . S
O661 Mn637 2.215 . S
O661 C638 1.283 . S
O662 Mn636 2.094 . S
O662 C640 1.240 . S
O663 Mn637 2.117 . S
O663 C640 1.264 . S
C664 C657 1.403 . S
C664 C665 1.399 . S
C664 H670 0.929 . S
C665 C645 1.449 . S
C665 C664 1.399 . S
C665 H671 0.930 . S
H666 C646 0.931 . S
H667 C647 0.930 . S
H668 C655 0.931 . S
H669 C656 0.929 . S
H670 C664 0.929 . S
H671 C665 0.930 . S
H672 C678 0.930 . S
H673 C681 0.930 . S
H674 C682 0.930 . S
H675 C683 0.930 . S
H676 C686 0.930 . S
H677 C687 0.930 . S
C678 H672 0.930 . S
C678 C679 1.355 . S
C678 C680 1.415 . S
C679 C678 1.355 . S
C679 C681 1.419 . S
C680 C678 1.415 . S
C680 C685 1.425 . S
C680 C687 1.409 . S
C681 H673 0.930 . S
C681 C679 1.419 . S
C681 C682 1.362 . S
C682 H674 0.930 . S
C682 C681 1.362 . S
C682 C685 1.409 . S
C683 H675 0.930 . S
C683 C684 1.355 . S
C683 C685 1.415 . S
C684 C683 1.355 . S
C684 C686 1.419 . S
C685 C680 1.425 . S
C685 C682 1.409 . S
C685 C683 1.415 . S
C686 H676 0.930 . S
C686 C684 1.419 . S
C686 C687 1.362 . S
C687 H677 0.930 . S
C687 C680 1.409 . S
C687 C686 1.362 . S
H688 C694 0.930 . S
H689 C697 0.930 . S
H690 C698 0.930 . S
H691 C699 0.930 . S
H692 C702 0.930 . S
H693 C703 0.930 . S
C694 H688 0.930 . S
C694 C695 1.355 . S
C694 C696 1.415 . S
C695 C694 1.355 . S
C695 C697 1.419 . S
C696 C694 1.415 . S
C696 C701 1.425 . S
C696 C703 1.409 . S
C697 H689 0.930 . S
C697 C695 1.419 . S
C697 C698 1.362 . S
C698 H690 0.930 . S
C698 C697 1.362 . S
C698 C701 1.409 . S
C699 H691 0.930 . S
C699 C700 1.355 . S
C699 C701 1.415 . S
C700 C699 1.355 . S
C700 C702 1.419 . S
C701 C696 1.425 . S
C701 C698 1.409 . S
C701 C699 1.415 . S
C702 H692 0.930 . S
C702 C700 1.419 . S
C702 C703 1.362 . S
C703 H693 0.930 . S
C703 C696 1.409 . S
C703 C702 1.362 . S
H704 C710 0.930 . S
H705 C713 0.930 . S
H706 C714 0.930 . S
H707 C715 0.930 . S
H708 C718 0.930 . S
H709 C719 0.930 . S
C710 H704 0.930 . S
C710 C711 1.355 . S
C710 C712 1.415 . S
C711 C710 1.355 . S
C711 C713 1.419 . S
C712 C710 1.415 . S
C712 C717 1.425 . S
C712 C719 1.409 . S
C713 H705 0.930 . S
C713 C711 1.419 . S
C713 C714 1.362 . S
C714 H706 0.930 . S
C714 C713 1.362 . S
C714 C717 1.409 . S
C715 H707 0.930 . S
C715 C716 1.355 . S
C715 C717 1.415 . S
C716 C715 1.355 . S
C716 C718 1.419 . S
C717 C712 1.425 . S
C717 C714 1.409 . S
C717 C715 1.415 . S
C718 H708 0.930 . S
C718 C716 1.419 . S
C718 C719 1.362 . S
C719 H709 0.930 . S
C719 C712 1.409 . S
C719 C718 1.362 . S
H720 C726 0.930 1_556 S
H721 C729 0.930 . S
H722 C730 0.930 . S
H723 C731 0.930 . S
H724 C734 0.930 . S
H725 C735 0.930 . S
C726 H720 0.930 1_554 S
C726 C727 1.355 . S
C726 C728 1.415 . S
C727 C726 1.355 . S
C727 C729 1.419 . S
C728 C726 1.415 . S
C728 C733 1.425 . S
C728 C735 1.409 1_554 S
C729 H721 0.930 . S
C729 C727 1.419 . S
C729 C730 1.362 . S
C730 H722 0.930 . S
C730 C729 1.362 . S
C730 C733 1.409 . S
C731 H723 0.930 . S
C731 C732 1.355 . S
C731 C733 1.415 . S
C732 C731 1.355 . S
C732 C734 1.419 1_554 S
C733 C728 1.425 . S
C733 C730 1.409 . S
C733 C731 1.415 . S
C734 H724 0.930 . S
C734 C732 1.419 1_556 S
C734 C735 1.362 . S
C735 H725 0.930 . S
C735 C728 1.409 1_556 S
C735 C734 1.362 . S
H736 C742 0.930 . S
H737 C745 0.930 . S
H738 C746 0.930 . S
H739 C747 0.930 . S
H740 C750 0.920 1_554 S
H741 C751 0.930 1_554 S
C742 H736 0.930 . S
C742 C743 1.355 . S
C742 C744 1.415 . S
C743 C742 1.355 . S
C743 C745 1.419 . S
C744 C742 1.415 . S
C744 C749 1.425 . S
C744 C751 1.409 . S
C745 H737 0.930 . S
C745 C743 1.419 . S
C745 C746 1.362 . S
C746 H738 0.930 . S
C746 C745 1.362 . S
C746 C749 1.409 . S
C747 H739 0.930 . S
C747 C748 1.355 . S
C747 C749 1.415 . S
C748 C747 1.355 . S
C748 C750 1.429 . S
C749 C744 1.425 . S
C749 C746 1.409 . S
C749 C747 1.415 . S
C750 H740 0.920 1_556 S
C750 C748 1.429 . S
C750 C751 1.363 . S
C751 H741 0.930 1_556 S
C751 C744 1.409 . S
C751 C750 1.363 . S
H752 C758 0.930 . S
H753 C761 0.930 . S
H754 C762 0.930 . S
H755 C763 0.930 . S
H756 C766 0.930 . S
H757 C767 0.930 . S
C758 H752 0.930 . S
C758 C759 1.355 . S
C758 C760 1.415 . S
C759 C758 1.355 . S
C759 C761 1.419 . S
C760 C758 1.415 . S
C760 C765 1.425 . S
C760 C767 1.409 . S
C761 H753 0.930 . S
C761 C759 1.419 . S
C761 C762 1.362 . S
C762 H754 0.930 . S
C762 C761 1.362 . S
C762 C765 1.409 . S
C763 H755 0.930 . S
C763 C764 1.355 . S
C763 C765 1.415 . S
C764 C763 1.355 . S
C764 C766 1.419 . S
C765 C760 1.425 . S
C765 C762 1.409 . S
C765 C763 1.415 . S
C766 H756 0.930 . S
C766 C764 1.419 . S
C766 C767 1.362 . S
C767 H757 0.930 . S
C767 C760 1.409 . S
C767 C766 1.362 . S
H768 C774 0.930 . S
H769 C777 0.930 . S
H770 C778 0.930 . S
H771 C779 0.930 . S
H772 C782 0.930 . S
H773 C783 0.930 . S
C774 H768 0.930 . S
C774 C775 1.355 . S
C774 C776 1.415 . S
C775 C774 1.355 . S
C775 C777 1.419 . S
C776 C774 1.415 . S
C776 C781 1.425 . S
C776 C783 1.409 . S
C777 H769 0.930 . S
C777 C775 1.419 . S
C777 C778 1.362 . S
C778 H770 0.930 . S
C778 C777 1.362 . S
C778 C781 1.409 . S
C779 H771 0.930 . S
C779 C780 1.355 . S
C779 C781 1.415 . S
C780 C779 1.355 . S
C780 C782 1.419 . S
C781 C776 1.425 . S
C781 C778 1.409 . S
C781 C779 1.415 . S
C782 H772 0.930 . S
C782 C780 1.419 . S
C782 C783 1.362 . S
C783 H773 0.930 . S
C783 C776 1.409 . S
C783 C782 1.362 . S
H784 C790 0.930 . S
H785 C793 0.930 . S
H786 C794 0.930 . S
H787 C795 0.930 . S
H788 C798 0.930 . S
H789 C799 0.930 . S
C790 H784 0.930 . S
C790 C791 1.355 . S
C790 C792 1.415 . S
C791 C790 1.355 . S
C791 C793 1.419 . S
C792 C790 1.415 . S
C792 C797 1.425 . S
C792 C799 1.409 . S
C793 H785 0.930 . S
C793 C791 1.419 . S
C793 C794 1.362 . S
C794 H786 0.930 . S
C794 C793 1.362 . S
C794 C797 1.409 . S
C795 H787 0.930 . S
C795 C796 1.355 . S
C795 C797 1.415 . S
C796 C795 1.355 . S
C796 C798 1.419 . S
C797 C792 1.425 . S
C797 C794 1.409 . S
C797 C795 1.415 . S
C798 H788 0.930 . S
C798 C796 1.419 . S
C798 C799 1.362 . S
C799 H789 0.930 . S
C799 C792 1.409 . S
C799 C798 1.362 . S
H800 C806 0.930 . S
H801 C809 0.930 . S
H802 C810 0.930 . S
H803 C811 0.930 . S
H804 C814 0.930 . S
H805 C815 0.930 . S
C806 H800 0.930 . S
C806 C807 1.355 . S
C806 C808 1.415 . S
C807 C806 1.355 . S
C807 C809 1.419 . S
C808 C806 1.415 . S
C808 C813 1.425 . S
C808 C815 1.409 . S
C809 H801 0.930 . S
C809 C807 1.419 . S
C809 C810 1.362 . S
C810 H802 0.930 . S
C810 C809 1.362 . S
C810 C813 1.409 . S
C811 H803 0.930 . S
C811 C812 1.355 . S
C811 C813 1.415 . S
C812 C811 1.355 . S
C812 C814 1.419 . S
C813 C808 1.425 . S
C813 C810 1.409 . S
C813 C811 1.415 . S
C814 H804 0.930 . S
C814 C812 1.419 . S
C814 C815 1.362 . S
C815 H805 0.930 . S
C815 C808 1.409 . S
C815 C814 1.362 . S
H816 C822 0.930 1_556 S
H817 C825 0.930 . S
H818 C826 0.930 . S
H819 C827 0.930 . S
H820 C830 0.930 . S
H821 C831 0.930 . S
C822 H816 0.930 1_554 S
C822 C823 1.355 . S
C822 C824 1.415 . S
C823 C822 1.355 . S
C823 C825 1.419 . S
C824 C822 1.415 . S
C824 C829 1.425 . S
C824 C831 1.409 1_554 S
C825 H817 0.930 . S
C825 C823 1.419 . S
C825 C826 1.362 . S
C826 H818 0.930 . S
C826 C825 1.362 . S
C826 C829 1.409 . S
C827 H819 0.930 . S
C827 C828 1.355 . S
C827 C829 1.415 . S
C828 C827 1.355 . S
C828 C830 1.419 1_554 S
C829 C824 1.425 . S
C829 C826 1.409 . S
C829 C827 1.415 . S
C830 H820 0.930 . S
C830 C828 1.419 1_556 S
C830 C831 1.362 . S
C831 H821 0.930 . S
C831 C824 1.409 1_556 S
C831 C830 1.362 . S
H832 C838 0.930 . S
H833 C841 0.930 . S
H834 C842 0.930 . S
H835 C843 0.930 . S
H836 C846 0.930 . S
H837 C847 0.930 . S
C838 H832 0.930 . S
C838 C839 1.355 . S
C838 C840 1.415 . S
C839 C838 1.355 . S
C839 C841 1.419 . S
C840 C838 1.415 . S
C840 C845 1.425 . S
C840 C847 1.409 . S
C841 H833 0.930 . S
C841 C839 1.419 . S
C841 C842 1.362 . S
C842 H834 0.930 . S
C842 C841 1.362 . S
C842 C845 1.409 . S
C843 H835 0.930 . S
C843 C844 1.355 . S
C843 C845 1.415 . S
C844 C843 1.355 . S
C844 C846 1.419 . S
C845 C840 1.425 . S
C845 C842 1.409 . S
C845 C843 1.415 . S
C846 H836 0.930 . S
C846 C844 1.419 . S
C846 C847 1.362 . S
C847 H837 0.930 . S
C847 C840 1.409 . S
C847 C846 1.362 . S
H848 C854 0.930 . S
H849 C857 0.930 . S
H850 C858 0.930 . S
H851 C859 0.930 . S
H852 C862 0.930 . S
H853 C863 0.930 . S
C854 H848 0.930 . S
C854 C855 1.355 . S
C854 C856 1.415 . S
C855 C854 1.355 . S
C855 C857 1.419 . S
C856 C854 1.415 . S
C856 C861 1.425 . S
C856 C863 1.409 . S
C857 H849 0.930 . S
C857 C855 1.419 . S
C857 C858 1.362 . S
C858 H850 0.930 . S
C858 C857 1.362 . S
C858 C861 1.409 . S
C859 H851 0.930 . S
C859 C860 1.355 . S
C859 C861 1.415 . S
C860 C859 1.355 . S
C860 C862 1.419 . S
C861 C856 1.425 . S
C861 C858 1.409 . S
C861 C859 1.415 . S
C862 H852 0.930 . S
C862 C860 1.419 . S
C862 C863 1.362 . S
C863 H853 0.930 . S
C863 C856 1.409 . S
C863 C862 1.362 . S
H864 C870 0.930 . S
H865 C873 0.930 . S
H866 C874 0.930 . S
H867 C875 0.930 . S
H868 C878 0.930 . S
H869 C879 0.930 . S
C870 H864 0.930 . S
C870 C871 1.355 . S
C870 C872 1.415 . S
C871 C870 1.355 . S
C871 C873 1.419 . S
C872 C870 1.415 . S
C872 C877 1.425 . S
C872 C879 1.409 . S
C873 H865 0.930 . S
C873 C871 1.419 . S
C873 C874 1.362 . S
C874 H866 0.930 . S
C874 C873 1.362 . S
C874 C877 1.409 . S
C875 H867 0.930 . S
C875 C876 1.355 . S
C875 C877 1.415 . S
C876 C875 1.355 . S
C876 C878 1.419 . S
C877 C872 1.425 . S
C877 C874 1.409 . S
C877 C875 1.415 . S
C878 H868 0.930 . S
C878 C876 1.419 . S
C878 C879 1.362 . S
C879 H869 0.930 . S
C879 C872 1.409 . S
C879 C878 1.362 . S
H880 C886 0.930 . S
H881 C889 0.930 . S
H882 C890 0.930 . S
H883 C891 0.930 . S
H884 C894 0.930 . S
H885 C895 0.930 . S
C886 H880 0.930 . S
C886 C887 1.355 . S
C886 C888 1.415 . S
C887 C886 1.355 . S
C887 C889 1.419 . S
C888 C886 1.415 . S
C888 C893 1.425 . S
C888 C895 1.409 . S
C889 H881 0.930 . S
C889 C887 1.419 . S
C889 C890 1.362 . S
C890 H882 0.930 . S
C890 C889 1.362 . S
C890 C893 1.409 . S
C891 H883 0.930 . S
C891 C892 1.355 . S
C891 C893 1.415 . S
C892 C891 1.355 . S
C892 C894 1.419 . S
C893 C888 1.425 . S
C893 C890 1.409 . S
C893 C891 1.415 . S
C894 H884 0.930 . S
C894 C892 1.419 . S
C894 C895 1.362 . S
C895 H885 0.930 . S
C895 C888 1.409 . S
C895 C894 1.362 . S
H896 C902 0.930 1_554 S
H897 C905 0.930 . S
H898 C906 0.930 . S
H899 C907 0.930 . S
H900 C910 0.930 . S
H901 C911 0.930 . S
C902 H896 0.930 1_556 S
C902 C903 1.355 . S
C902 C904 1.415 . S
C903 C902 1.355 . S
C903 C905 1.419 . S
C904 C902 1.415 . S
C904 C909 1.425 . S
C904 C911 1.409 1_556 S
C905 H897 0.930 . S
C905 C903 1.419 . S
C905 C906 1.362 . S
C906 H898 0.930 . S
C906 C905 1.362 . S
C906 C909 1.409 . S
C907 H899 0.930 . S
C907 C908 1.355 . S
C907 C909 1.415 . S
C908 C907 1.355 . S
C908 C910 1.419 1_556 S
C909 C904 1.425 . S
C909 C906 1.409 . S
C909 C907 1.415 . S
C910 H900 0.930 . S
C910 C908 1.419 1_554 S
C910 C911 1.362 . S
C911 H901 0.930 . S
C911 C904 1.409 1_554 S
C911 C910 1.362 . S
H912 C918 0.930 . S
H913 C921 0.930 . S
H914 C922 0.930 . S
H915 C923 0.930 . S
H916 C926 0.930 . S
H917 C927 0.930 . S
C918 H912 0.930 . S
C918 C919 1.355 . S
C918 C920 1.415 . S
C919 C918 1.355 . S
C919 C921 1.419 . S
C920 C918 1.415 . S
C920 C925 1.425 . S
C920 C927 1.409 . S
C921 H913 0.930 . S
C921 C919 1.419 . S
C921 C922 1.362 . S
C922 H914 0.930 . S
C922 C921 1.362 . S
C922 C925 1.409 . S
C923 H915 0.930 . S
C923 C924 1.355 . S
C923 C925 1.415 . S
C924 C923 1.355 . S
C924 C926 1.419 . S
C925 C920 1.425 . S
C925 C922 1.409 . S
C925 C923 1.415 . S
C926 H916 0.930 . S
C926 C924 1.419 . S
C926 C927 1.362 . S
C927 H917 0.930 . S
C927 C920 1.409 . S
C927 C926 1.362 . S
H928 C934 0.930 . S
H929 C937 0.930 . S
H930 C938 0.930 . S
H931 C939 0.930 . S
H932 C942 0.930 . S
H933 C943 0.930 . S
C934 H928 0.930 . S
C934 C935 1.355 . S
C934 C936 1.415 . S
C935 C934 1.355 . S
C935 C937 1.419 . S
C936 C934 1.415 . S
C936 C941 1.425 . S
C936 C943 1.409 . S
C937 H929 0.930 . S
C937 C935 1.419 . S
C937 C938 1.362 . S
C938 H930 0.930 . S
C938 C937 1.362 . S
C938 C941 1.409 . S
C939 H931 0.930 . S
C939 C940 1.355 . S
C939 C941 1.415 . S
C940 C939 1.355 . S
C940 C942 1.419 . S
C941 C936 1.425 . S
C941 C938 1.409 . S
C941 C939 1.415 . S
C942 H932 0.930 . S
C942 C940 1.419 . S
C942 C943 1.362 . S
C943 H933 0.930 . S
C943 C936 1.409 . S
C943 C942 1.362 . S
H944 C950 0.930 . S
H945 C953 0.930 . S
H946 C954 0.930 . S
H947 C955 0.930 . S
H948 C958 0.930 . S
H949 C959 0.930 . S
C950 H944 0.930 . S
C950 C951 1.355 . S
C950 C952 1.415 . S
C951 C950 1.355 . S
C951 C953 1.419 . S
C952 C950 1.415 . S
C952 C957 1.425 . S
C952 C959 1.409 . S
C953 H945 0.930 . S
C953 C951 1.419 . S
C953 C954 1.362 . S
C954 H946 0.930 . S
C954 C953 1.362 . S
C954 C957 1.409 . S
C955 H947 0.930 . S
C955 C956 1.355 . S
C955 C957 1.415 . S
C956 C955 1.355 . S
C956 C958 1.419 . S
C957 C952 1.425 . S
C957 C954 1.409 . S
C957 C955 1.415 . S
C958 H948 0.930 . S
C958 C956 1.419 . S
C958 C959 1.362 . S
C959 H949 0.930 . S
C959 C952 1.409 . S
C959 C958 1.362 . S
H960 C966 0.930 . S
H961 C969 0.930 . S
H962 C970 0.930 . S
H963 C971 0.930 . S
H964 C974 0.930 . S
H965 C975 0.930 . S
C966 H960 0.930 . S
C966 C967 1.355 . S
C966 C968 1.415 . S
C967 C966 1.355 . S
C967 C969 1.419 . S
C968 C966 1.415 . S
C968 C973 1.425 . S
C968 C975 1.409 . S
C969 H961 0.930 . S
C969 C967 1.419 . S
C969 C970 1.362 . S
C970 H962 0.930 . S
C970 C969 1.362 . S
C970 C973 1.409 . S
C971 H963 0.930 . S
C971 C972 1.355 . S
C971 C973 1.415 . S
C972 C971 1.355 . S
C972 C974 1.419 . S
C973 C968 1.425 . S
C973 C970 1.409 . S
C973 C971 1.415 . S
C974 H964 0.930 . S
C974 C972 1.419 . S
C974 C975 1.362 . S
C975 H965 0.930 . S
C975 C968 1.409 . S
C975 C974 1.362 . S
H976 C982 0.930 . S
H977 C985 0.930 . S
H978 C986 0.930 . S
H979 C987 0.930 . S
H980 C990 0.930 . S
H981 C991 0.930 . S
C982 H976 0.930 . S
C982 C983 1.355 . S
C982 C984 1.415 . S
C983 C982 1.355 . S
C983 C985 1.419 . S
C984 C982 1.415 . S
C984 C989 1.425 . S
C984 C991 1.409 . S
C985 H977 0.930 . S
C985 C983 1.419 . S
C985 C986 1.362 . S
C986 H978 0.930 . S
C986 C985 1.362 . S
C986 C989 1.409 . S
C987 H979 0.930 . S
C987 C988 1.355 . S
C987 C989 1.415 . S
C988 C987 1.355 . S
C988 C990 1.419 . S
C989 C984 1.425 . S
C989 C986 1.409 . S
C989 C987 1.415 . S
C990 H980 0.930 . S
C990 C988 1.419 . S
C990 C991 1.362 . S
C991 H981 0.930 . S
C991 C984 1.409 . S
C991 C990 1.362 . S
H992 C998 0.930 . S
H993 C1001 0.930 . S
H994 C1002 0.930 . S
H995 C1003 0.930 . S
H996 C1006 0.930 . S
H997 C1007 0.930 . S
C998 H992 0.930 . S
C998 C999 1.355 . S
C998 C1000 1.415 . S
C999 C998 1.355 . S
C999 C1001 1.419 . S
C1000 C998 1.415 . S
C1000 C1005 1.425 . S
C1000 C1007 1.409 . S
C1001 H993 0.930 . S
C1001 C999 1.419 . S
C1001 C1002 1.362 . S
C1002 H994 0.930 . S
C1002 C1001 1.362 . S
C1002 C1005 1.409 . S
C1003 H995 0.930 . S
C1003 C1004 1.355 . S
C1003 C1005 1.415 . S
C1004 C1003 1.355 . S
C1004 C1006 1.419 . S
C1005 C1000 1.425 . S
C1005 C1002 1.409 . S
C1005 C1003 1.415 . S
C1006 H996 0.930 . S
C1006 C1004 1.419 . S
C1006 C1007 1.362 . S
C1007 H997 0.930 . S
C1007 C1000 1.409 . S
C1007 C1006 1.362 . S
H1008 C1014 0.930 . S
H1009 C1017 0.930 . S
H1010 C1018 0.930 . S
H1011 C1019 0.930 . S
H1012 C1022 0.930 . S
H1013 C1023 0.930 . S
C1014 H1008 0.930 . S
C1014 C1015 1.355 . S
C1014 C1016 1.415 . S
C1015 C1014 1.355 . S
C1015 C1017 1.419 . S
C1016 C1014 1.415 . S
C1016 C1021 1.425 . S
C1016 C1023 1.409 . S
C1017 H1009 0.930 . S
C1017 C1015 1.419 . S
C1017 C1018 1.362 . S
C1018 H1010 0.930 . S
C1018 C1017 1.362 . S
C1018 C1021 1.409 . S
C1019 H1011 0.930 . S
C1019 C1020 1.355 . S
C1019 C1021 1.415 . S
C1020 C1019 1.355 . S
C1020 C1022 1.419 . S
C1021 C1016 1.425 . S
C1021 C1018 1.409 . S
C1021 C1019 1.415 . S
C1022 H1012 0.930 . S
C1022 C1020 1.419 . S
C1022 C1023 1.362 . S
C1023 H1013 0.930 . S
C1023 C1016 1.409 . S
C1023 C1022 1.362 . S
H1024 C1030 0.930 . S
H1025 C1033 0.930 . S
H1026 C1034 0.930 . S
H1027 C1035 0.930 . S
H1028 C1038 0.930 . S
H1029 C1039 0.930 . S
C1030 H1024 0.930 . S
C1030 C1031 1.355 . S
C1030 C1032 1.415 . S
C1031 C1030 1.355 . S
C1031 C1033 1.419 . S
C1032 C1030 1.415 . S
C1032 C1037 1.425 . S
C1032 C1039 1.409 . S
C1033 H1025 0.930 . S
C1033 C1031 1.419 . S
C1033 C1034 1.362 . S
C1034 H1026 0.930 . S
C1034 C1033 1.362 . S
C1034 C1037 1.409 . S
C1035 H1027 0.930 . S
C1035 C1036 1.355 . S
C1035 C1037 1.415 . S
C1036 C1035 1.355 . S
C1036 C1038 1.419 . S
C1037 C1032 1.425 . S
C1037 C1034 1.409 . S
C1037 C1035 1.415 . S
C1038 H1028 0.930 . S
C1038 C1036 1.419 . S
C1038 C1039 1.362 . S
C1039 H1029 0.930 . S
C1039 C1032 1.409 . S
C1039 C1038 1.362 . S
H1040 C1046 0.930 . S
H1041 C1049 0.930 . S
H1042 C1050 0.930 . S
H1043 C1051 0.930 . S
H1044 C1054 0.930 . S
H1045 C1055 0.930 . S
C1046 H1040 0.930 . S
C1046 C1047 1.355 . S
C1046 C1048 1.415 . S
C1047 C1046 1.355 . S
C1047 C1049 1.419 . S
C1048 C1046 1.415 . S
C1048 C1053 1.425 . S
C1048 C1055 1.409 . S
C1049 H1041 0.930 . S
C1049 C1047 1.419 . S
C1049 C1050 1.362 . S
C1050 H1042 0.930 . S
C1050 C1049 1.362 . S
C1050 C1053 1.409 . S
C1051 H1043 0.930 . S
C1051 C1052 1.355 . S
C1051 C1053 1.415 . S
C1052 C1051 1.355 . S
C1052 C1054 1.419 . S
C1053 C1048 1.425 . S
C1053 C1050 1.409 . S
C1053 C1051 1.415 . S
C1054 H1044 0.930 . S
C1054 C1052 1.419 . S
C1054 C1055 1.362 . S
C1055 H1045 0.930 . S
C1055 C1048 1.409 . S
C1055 C1054 1.362 . S
H1056 C1062 0.930 . S
H1057 C1065 0.930 . S
H1058 C1066 0.930 . S
H1059 C1067 0.930 . S
H1060 C1070 0.930 . S
H1061 C1071 0.930 . S
C1062 H1056 0.930 . S
C1062 C1063 1.355 . S
C1062 C1064 1.415 . S
C1063 C1062 1.355 . S
C1063 C1065 1.419 . S
C1064 C1062 1.415 . S
C1064 C1069 1.425 . S
C1064 C1071 1.409 . S
C1065 H1057 0.930 . S
C1065 C1063 1.419 . S
C1065 C1066 1.362 . S
C1066 H1058 0.930 . S
C1066 C1065 1.362 . S
C1066 C1069 1.409 . S
C1067 H1059 0.930 . S
C1067 C1068 1.355 . S
C1067 C1069 1.415 . S
C1068 C1067 1.355 . S
C1068 C1070 1.419 . S
C1069 C1064 1.425 . S
C1069 C1066 1.409 . S
C1069 C1067 1.415 . S
C1070 H1060 0.930 . S
C1070 C1068 1.419 . S
C1070 C1071 1.362 . S
C1071 H1061 0.930 . S
C1071 C1064 1.409 . S
C1071 C1070 1.362 . S
H1072 C1078 0.930 . S
H1073 C1081 0.930 . S
H1074 C1082 0.930 . S
H1075 C1083 0.930 . S
H1076 C1086 0.930 . S
H1077 C1087 0.930 . S
C1078 H1072 0.930 . S
C1078 C1079 1.355 . S
C1078 C1080 1.415 . S
C1079 C1078 1.355 . S
C1079 C1081 1.419 . S
C1080 C1078 1.415 . S
C1080 C1085 1.425 . S
C1080 C1087 1.409 . S
C1081 H1073 0.930 . S
C1081 C1079 1.419 . S
C1081 C1082 1.362 . S
C1082 H1074 0.930 . S
C1082 C1081 1.362 . S
C1082 C1085 1.409 . S
C1083 H1075 0.930 . S
C1083 C1084 1.355 . S
C1083 C1085 1.415 . S
C1084 C1083 1.355 . S
C1084 C1086 1.419 . S
C1085 C1080 1.425 . S
C1085 C1082 1.409 . S
C1085 C1083 1.415 . S
C1086 H1076 0.930 . S
C1086 C1084 1.419 . S
C1086 C1087 1.362 . S
C1087 H1077 0.930 . S
C1087 C1080 1.409 . S
C1087 C1086 1.362 . S
H1088 C1094 0.930 . S
H1089 C1097 0.930 . S
H1090 C1098 0.930 . S
H1091 C1099 0.930 . S
H1092 C1102 0.930 . S
H1093 C1103 0.930 . S
C1094 H1088 0.930 . S
C1094 C1095 1.355 . S
C1094 C1096 1.415 . S
C1095 C1094 1.355 . S
C1095 C1097 1.419 . S
C1096 C1094 1.415 . S
C1096 C1101 1.425 . S
C1096 C1103 1.409 . S
C1097 H1089 0.930 . S
C1097 C1095 1.419 . S
C1097 C1098 1.362 . S
C1098 H1090 0.930 . S
C1098 C1097 1.362 . S
C1098 C1101 1.409 . S
C1099 H1091 0.930 . S
C1099 C1100 1.355 . S
C1099 C1101 1.415 . S
C1100 C1099 1.355 . S
C1100 C1102 1.419 . S
C1101 C1096 1.425 . S
C1101 C1098 1.409 . S
C1101 C1099 1.415 . S
C1102 H1092 0.930 . S
C1102 C1100 1.419 . S
C1102 C1103 1.362 . S
C1103 H1093 0.930 . S
C1103 C1096 1.409 . S
C1103 C1102 1.362 . S
H1104 C1110 0.930 . S
H1105 C1113 0.930 . S
H1106 C1114 0.930 . S
H1107 C1115 0.930 . S
H1108 C1118 0.930 . S
H1109 C1119 0.930 . S
C1110 H1104 0.930 . S
C1110 C1111 1.355 . S
C1110 C1112 1.415 . S
C1111 C1110 1.355 . S
C1111 C1113 1.419 . S
C1112 C1110 1.415 . S
C1112 C1117 1.425 . S
C1112 C1119 1.409 . S
C1113 H1105 0.930 . S
C1113 C1111 1.419 . S
C1113 C1114 1.362 . S
C1114 H1106 0.930 . S
C1114 C1113 1.362 . S
C1114 C1117 1.409 . S
C1115 H1107 0.930 . S
C1115 C1116 1.355 . S
C1115 C1117 1.415 . S
C1116 C1115 1.355 . S
C1116 C1118 1.419 . S
C1117 C1112 1.425 . S
C1117 C1114 1.409 . S
C1117 C1115 1.415 . S
C1118 H1108 0.930 . S
C1118 C1116 1.419 . S
C1118 C1119 1.362 . S
C1119 H1109 0.930 . S
C1119 C1112 1.409 . S
C1119 C1118 1.362 . S
H1120 C1126 0.930 . S
H1121 C1129 0.930 . S
H1122 C1130 0.930 . S
H1123 C1131 0.930 . S
H1124 C1134 0.930 . S
H1125 C1135 0.930 . S
C1126 H1120 0.930 . S
C1126 C1127 1.355 . S
C1126 C1128 1.415 . S
C1127 C1126 1.355 . S
C1127 C1129 1.419 . S
C1128 C1126 1.415 . S
C1128 C1133 1.425 . S
C1128 C1135 1.409 . S
C1129 H1121 0.930 . S
C1129 C1127 1.419 . S
C1129 C1130 1.362 . S
C1130 H1122 0.930 . S
C1130 C1129 1.362 . S
C1130 C1133 1.409 . S
C1131 H1123 0.930 . S
C1131 C1132 1.355 . S
C1131 C1133 1.415 . S
C1132 C1131 1.355 . S
C1132 C1134 1.419 . S
C1133 C1128 1.425 . S
C1133 C1130 1.409 . S
C1133 C1131 1.415 . S
C1134 H1124 0.930 . S
C1134 C1132 1.419 . S
C1134 C1135 1.362 . S
C1135 H1125 0.930 . S
C1135 C1128 1.409 . S
C1135 C1134 1.362 . S
H1136 C1142 0.930 . S
H1137 C1145 0.930 . S
H1138 C1146 0.930 . S
H1139 C1147 0.930 . S
H1140 C1150 0.930 . S
H1141 C1151 0.930 . S
C1142 H1136 0.930 . S
C1142 C1143 1.355 . S
C1142 C1144 1.415 . S
C1143 C1142 1.355 . S
C1143 C1145 1.419 . S
C1144 C1142 1.415 . S
C1144 C1149 1.425 . S
C1144 C1151 1.409 . S
C1145 H1137 0.930 . S
C1145 C1143 1.419 . S
C1145 C1146 1.362 . S
C1146 H1138 0.930 . S
C1146 C1145 1.362 . S
C1146 C1149 1.409 . S
C1147 H1139 0.930 . S
C1147 C1148 1.355 . S
C1147 C1149 1.415 . S
C1148 C1147 1.355 . S
C1148 C1150 1.419 . S
C1149 C1144 1.425 . S
C1149 C1146 1.409 . S
C1149 C1147 1.415 . S
C1150 H1140 0.930 . S
C1150 C1148 1.419 . S
C1150 C1151 1.362 . S
C1151 H1141 0.930 . S
C1151 C1144 1.409 . S
C1151 C1150 1.362 . S
H1152 C1158 0.930 . S
H1153 C1161 0.930 . S
H1154 C1162 0.930 . S
H1155 C1163 0.930 . S
H1156 C1166 0.930 . S
H1157 C1167 0.930 . S
C1158 H1152 0.930 . S
C1158 C1159 1.355 . S
C1158 C1160 1.415 . S
C1159 C1158 1.355 . S
C1159 C1161 1.419 . S
C1160 C1158 1.415 . S
C1160 C1165 1.425 . S
C1160 C1167 1.409 . S
C1161 H1153 0.930 . S
C1161 C1159 1.419 . S
C1161 C1162 1.362 . S
C1162 H1154 0.930 . S
C1162 C1161 1.362 . S
C1162 C1165 1.409 . S
C1163 H1155 0.930 . S
C1163 C1164 1.355 . S
C1163 C1165 1.415 . S
C1164 C1163 1.355 . S
C1164 C1166 1.419 . S
C1165 C1160 1.425 . S
C1165 C1162 1.409 . S
C1165 C1163 1.415 . S
C1166 H1156 0.930 . S
C1166 C1164 1.419 . S
C1166 C1167 1.362 . S
C1167 H1157 0.930 . S
C1167 C1160 1.409 . S
C1167 C1166 1.362 . S
H1168 C1174 0.930 . S
H1169 C1177 0.930 . S
H1170 C1178 0.930 . S
H1171 C1179 0.930 . S
H1172 C1182 0.930 . S
H1173 C1183 0.930 . S
C1174 H1168 0.930 . S
C1174 C1175 1.355 . S
C1174 C1176 1.415 . S
C1175 C1174 1.355 . S
C1175 C1177 1.419 . S
C1176 C1174 1.415 . S
C1176 C1181 1.425 . S
C1176 C1183 1.409 . S
C1177 H1169 0.930 . S
C1177 C1175 1.419 . S
C1177 C1178 1.362 . S
C1178 H1170 0.930 . S
C1178 C1177 1.362 . S
C1178 C1181 1.409 . S
C1179 H1171 0.930 . S
C1179 C1180 1.355 . S
C1179 C1181 1.415 . S
C1180 C1179 1.355 . S
C1180 C1182 1.419 . S
C1181 C1176 1.425 . S
C1181 C1178 1.409 . S
C1181 C1179 1.415 . S
C1182 H1172 0.930 . S
C1182 C1180 1.419 . S
C1182 C1183 1.362 . S
C1183 H1173 0.930 . S
C1183 C1176 1.409 . S
C1183 C1182 1.362 . S
C684 C423 1.388 . S
C679 C36 1.315 . S
C700 C460 1.390 . S
C695 C93 1.359 . S
C716 C496 1.376 . S
C711 C126 1.409 . S
C727 C165 1.333 . S
C732 C387 1.394 . S
C743 C222 1.341 . S
C748 C388 1.405 . S
C759 C261 1.336 . S
C764 C424 1.397 . S
C780 C459 1.399 . S
C775 C318 1.386 . S
C796 C495 1.400 . S
C791 C381 1.390 . S
C807 C132 1.320 . S
C812 C567 1.392 . S
C828 C604 1.341 . S
C823 C189 1.346 . S
C839 C30 1.387 . S
C844 C640 1.355 . S
C860 C531 1.406 . S
C855 C69 1.396 . S
C871 C324 1.389 . S
C876 C532 1.415 . S
C887 C357 1.367 . S
C892 C568 1.336 . S
C908 C603 1.377 . S
C903 C228 1.317 . S
C919 C285 1.368 . S
C924 C639 1.394 . S
C940 C458 1.722 . S
C935 C45 1.717 . S
C956 C494 1.710 . S
C951 C84 1.713 . S
C967 C117 1.648 . S
C972 C398 1.567 . S
C983 C174 1.656 . S
C988 C434 1.576 . S
C999 C213 1.626 . S
C1004 C506 1.521 . S
C1020 C386 1.689 . S
C1015 C270 1.626 . S
C1036 C422 1.701 . S
C1031 C309 1.675 . S
C1052 C470 1.532 . S
C1047 C372 1.653 . S
C1068 C602 1.728 . S
C1063 C141 1.710 . S
C1084 C638 1.685 . S
C1079 C180 1.680 . S
C1095 C21 1.659 . S
C1100 C542 1.504 . S
C1116 C578 1.496 . S
C1111 C78 1.602 . S
C1132 C650 1.468 . S
C1127 C333 1.653 . S
C1143 C366 1.665 . S
C1148 C530 1.696 . S
C1164 C566 1.699 . S
C1159 C237 1.706 . S
C1180 C614 1.582 . S
C1175 C276 1.672 . S
