# Generated by pormake.
# Topology rtl, (3,6)-cn, num edge types: 1
# Building blocks:
#     Node 0, Type 0, BuildingBlock: BETDIP_clean_linker_0, # of connection points: 3
#     Node 1, Type 0, BuildingBlock: BETDIP_clean_linker_0, # of connection points: 3
#     Node 2, Type 0, BuildingBlock: BETDIP_clean_linker_0, # of connection points: 3
#     Node 3, Type 0, BuildingBlock: BETDIP_clean_linker_0, # of connection points: 3
#     Node 4, Type 1, BuildingBlock: CIFDUS_clean_sbu_1, # of connection points: 6
#     Node 5, Type 1, BuildingBlock: CIFDUS_clean_sbu_1, # of connection points: 6
#     Edge 6, Type (0, 1), BuildingBlock: CIFDUS_clean_linker_0, # of connection points: 2
#     Edge 7, Type (0, 1), BuildingBlock: CIFDUS_clean_linker_0, # of connection points: 2
#     Edge 8, Type (0, 1), BuildingBlock: CIFDUS_clean_linker_0, # of connection points: 2
#     Edge 9, Type (0, 1), BuildingBlock: CIFDUS_clean_linker_0, # of connection points: 2
#     Edge 10, Type (0, 1), BuildingBlock: CIFDUS_clean_linker_0, # of connection points: 2
#     Edge 11, Type (0, 1), BuildingBlock: CIFDUS_clean_linker_0, # of connection points: 2
#     Edge 12, Type (0, 1), BuildingBlock: CIFDUS_clean_linker_0, # of connection points: 2
#     Edge 13, Type (0, 1), BuildingBlock: CIFDUS_clean_linker_0, # of connection points: 2
#     Edge 14, Type (0, 1), BuildingBlock: CIFDUS_clean_linker_0, # of connection points: 2
#     Edge 15, Type (0, 1), BuildingBlock: CIFDUS_clean_linker_0, # of connection points: 2
#     Edge 16, Type (0, 1), BuildingBlock: CIFDUS_clean_linker_0, # of connection points: 2
#     Edge 17, Type (0, 1), BuildingBlock: CIFDUS_clean_linker_0, # of connection points: 2
# Relax obj value: 0.018
# Max RMSD: 0.113
# Mean RMSD: 0.087
data_MOF--net-rtl--node1-CIFDUS_clean_sbu_1--node2-BETDIP_clean_linker_0--edge1-CIFDUS_clean_linker_0
_symmetry_space_group_name_H-M    P1
_symmetry_Int_Tables_number       1
_symmetry_cell_setting            triclinic
loop_
_symmetry_equiv_pos_as_xyz
'x, y, z'
_cell_length_a     31.0046
_cell_length_b     31.110887
_cell_length_c     19.062957
_cell_angle_alpha  90.985992
_cell_angle_beta   99.137555
_cell_angle_gamma 90.339501
loop_
_atom_site_label
_atom_site_type_symbol
_atom_site_fract_x
_atom_site_fract_y
_atom_site_fract_z
_atom_type_partial_charge
H0 H 0.21115 0.82425 0.97878 0.0
H1 H 0.22452 0.82929 0.20729 0.0
H2 H 0.1619 0.93252 0.08255 0.0
H3 H 0.2906 0.78877 0.1898 0.0
C4 C 0.2763 0.7672 0.14684 0.0
C5 C 0.20572 0.84067 0.0272 0.0
C6 C 0.18513 0.88068 0.02337 0.0
C7 C 0.22121 0.82247 0.09328 0.0
C8 C 0.21403 0.84385 0.15628 0.0
C9 C 0.19226 0.88369 0.15295 0.0
C10 C 0.17867 0.90195 0.08616 0.0
N11 N 0.24236 0.78199 0.09362 0.0
H12 H 0.73073 0.72701 0.73657 0.0
H13 H 0.73308 0.74783 0.51492 0.0
H14 H 0.64192 0.65696 0.57722 0.0
H15 H 0.81879 0.7323 0.60978 0.0
C16 C 0.81152 0.76438 0.62802 0.0
C17 C 0.71728 0.7203 0.68146 0.0
C18 C 0.68448 0.68861 0.66382 0.0
C19 C 0.73488 0.74162 0.6279 0.0
C20 C 0.71899 0.73181 0.55606 0.0
C21 C 0.68475 0.70182 0.53737 0.0
C22 C 0.66767 0.68072 0.5916 0.0
N23 N 0.76951 0.77198 0.64644 0.0
H24 H 0.80885 0.24582 0.87759 0.0
H25 H 0.79264 0.2286 0.09527 0.0
H26 H 0.89016 0.15641 1.00728 0.0
H27 H 0.71564 0.23341 0.02301 0.0
C28 C 0.72226 0.26464 1.00201 0.0
C29 C 0.81854 0.23042 0.92818 0.0
C30 C 0.85147 0.19924 0.93522 0.0
C31 C 0.79648 0.24043 0.98498 0.0
C32 C 0.80905 0.22039 0.05078 0.0
C33 C 0.84369 0.19083 0.0599 0.0
C34 C 0.86427 0.17998 1.00141 0.0
N35 N 0.76197 0.27084 0.975 0.0
H36 H 0.30499 0.33085 0.3861 0.0
H37 H 0.34576 0.30858 0.60947 0.0
H38 H 0.39444 0.41844 0.51197 0.0
H39 H 0.24473 0.28918 0.40494 0.0
C40 C 0.25888 0.26585 0.44348 0.0
C41 C 0.32297 0.34075 0.43725 0.0
C42 C 0.34935 0.37803 0.44237 0.0
C43 C 0.32091 0.31601 0.4981 0.0
C44 C 0.34646 0.32825 0.56329 0.0
C45 C 0.3734 0.36505 0.5688 0.0
C46 C 0.37385 0.38993 0.50825 0.0
N47 N 0.29556 0.27748 0.49556 0.0
O48 O 0.9863 0.06914 0.45116 0.0
Mn49 Mn 0.0159 0.03235 0.53865 0.0
O50 O 0.93808 0.02612 0.38308 0.0
Mn51 Mn 0.95979 0.97697 0.42746 0.0
O52 O 0.04618 0.99617 0.62597 0.0
O53 O 0.06368 0.07947 0.55574 0.0
Mn54 Mn 0.06794 0.09111 0.64795 0.0
O55 O 0.9757 0.06362 0.60375 0.0
O56 O 0.08785 0.0432 0.69769 0.0
O57 O 0.05555 0.99977 0.47468 0.0
O58 O 0.01061 0.95508 0.40299 0.0
O59 O 0.10777 0.12673 0.62044 0.0
O60 O 0.01678 0.11414 0.66773 0.0
C61 C 0.93868 0.95504 0.51968 0.0
C62 C 0.95548 0.06283 0.39796 0.0
C63 C 0.07437 1.00508 0.68177 0.0
C64 C 0.0944 0.1089 0.55881 0.0
C65 C 0.98019 0.09574 0.64793 0.0
C66 C 0.04863 0.96936 0.42741 0.0
O67 O 0.9684 0.98521 0.52101 0.0
O68 O 0.92197 0.93978 0.45759 0.0
O69 O 0.5399 0.57829 0.14307 0.0
Mn70 Mn 0.51666 0.53425 0.05874 0.0
O71 O 0.58829 0.54258 0.22054 0.0
Mn72 Mn 0.57036 0.48927 0.18395 0.0
O73 O 0.49319 0.49024 0.97545 0.0
O74 O 0.46743 0.57659 0.0266 0.0
Mn75 Mn 0.46501 0.58024 0.93317 0.0
O76 O 0.55899 0.56444 0.99737 0.0
O77 O 0.44986 0.52713 0.89219 0.0
O78 O 0.47476 0.50383 0.11959 0.0
O79 O 0.51809 0.46784 0.20446 0.0
O80 O 0.4221 0.61558 0.95343 0.0
O81 O 0.51686 0.60364 0.91577 0.0
C82 C 0.59569 0.46221 0.09696 0.0
C83 C 0.56963 0.57711 0.19865 0.0
C84 C 0.46637 0.49218 0.91669 0.0
C85 C 0.4352 0.60379 0.01813 0.0
C86 C 0.55406 0.59163 0.94654 0.0
C87 C 0.48051 0.47799 0.17214 0.0
O88 O 0.56517 0.49119 0.09027 0.0
O89 O 0.61083 0.45156 0.1615 0.0
H90 H 0.17347 0.24682 0.39231 0.0
H91 H 0.29016 0.19357 0.51186 0.0
H92 H 0.24884 0.13096 0.53973 0.0
H93 H 0.17816 0.09866 0.54931 0.0
H94 H 0.05988 0.15524 0.44325 0.0
H95 H 0.10274 0.2077 0.38786 0.0
C96 C 0.18986 0.22103 0.42328 0.0
C97 C 0.23465 0.22525 0.45119 0.0
C98 C 0.16546 0.18543 0.44093 0.0
C99 C 0.2556 0.19158 0.49096 0.0
C100 C 0.232 0.15561 0.50666 0.0
C101 C 0.1619 0.1211 0.51104 0.0
C102 C 0.11601 0.12273 0.49946 0.0
C103 C 0.18671 0.15305 0.48436 0.0
C104 C 0.09514 0.15258 0.45138 0.0
C105 C 0.11975 0.18332 0.42129 0.0
H106 H 0.36028 0.74394 0.19817 0.0
H107 H 0.24218 0.6986 0.06618 0.0
H108 H 0.28064 0.63634 0.02889 0.0
H109 H 0.34959 0.60197 0.01738 0.0
H110 H 0.46978 0.64908 0.13932 0.0
H111 H 0.429 0.70221 0.19919 0.0
C112 C 0.34293 0.71989 0.16239 0.0
C113 C 0.29861 0.72632 0.13389 0.0
C114 C 0.36572 0.68438 0.13958 0.0
C115 C 0.27641 0.6949 0.08779 0.0
C116 C 0.29837 0.65915 0.0666 0.0
C117 C 0.36663 0.62273 0.0593 0.0
C118 C 0.41246 0.62152 0.0744 0.0
C119 C 0.34326 0.65449 0.08995 0.0
C120 C 0.43442 0.64887 0.12789 0.0
C121 C 0.41109 0.67982 0.16095 0.0
H122 H 0.80438 0.85231 0.64708 0.0
H123 H 0.8956 0.75255 0.6148 0.0
H124 H 0.95085 0.80648 0.60087 0.0
H125 H 0.96788 0.88068 0.57447 0.0
H126 H 0.87503 0.98047 0.59397 0.0
H127 H 0.8269 0.92879 0.63973 0.0
C128 C 0.83666 0.84248 0.63855 0.0
C129 C 0.84571 0.79842 0.63097 0.0
C130 C 0.86821 0.87393 0.62885 0.0
C131 C 0.8877 0.78622 0.62 0.0
C132 C 0.91938 0.81707 0.61219 0.0
C133 C 0.93825 0.8915 0.59271 0.0
C134 C 0.92527 0.93438 0.58173 0.0
C135 C 0.90945 0.86093 0.61368 0.0
C136 C 0.88621 0.94784 0.60347 0.0
C137 C 0.85815 0.91796 0.62788 0.0
H138 H 0.72882 0.35124 0.97506 0.0
H139 H 0.63951 0.25355 0.02421 0.0
H140 H 0.5849 0.30809 0.03659 0.0
H141 H 0.56799 0.38362 0.05502 0.0
H142 H 0.6594 0.48219 0.01944 0.0
H143 H 0.70669 0.42791 0.97697 0.0
C144 C 0.69708 0.34192 0.98708 0.0
C145 C 0.68837 0.29841 0.99961 0.0
C146 C 0.666 0.3738 0.99593 0.0
C147 C 0.64713 0.28684 0.01515 0.0
C148 C 0.61582 0.31801 0.02204 0.0
C149 C 0.59712 0.39332 0.0342 0.0
C150 C 0.60984 0.43682 0.03905 0.0
C151 C 0.62547 0.36166 0.01512 0.0
C152 C 0.64836 0.44901 0.01436 0.0
C153 C 0.67592 0.41778 0.99176 0.0
H154 H 0.15535 0.84763 0.25821 0.0
H155 H 0.20089 0.969 0.19096 0.0
H156 H 0.16597 0.007 0.27999 0.0
H157 H 0.11244 1.00627 0.36385 0.0
H158 H 0.06434 0.88461 0.4252 0.0
H159 H 0.1109 0.84631 0.35364 0.0
C160 C 0.15879 0.88226 0.26452 0.0
C161 C 0.1802 0.90542 0.21735 0.0
C162 C 0.13771 0.904 0.31472 0.0
C163 C 0.18398 0.95042 0.22591 0.0
C164 C 0.16396 0.97221 0.2768 0.0
C165 C 0.11341 0.97142 0.36322 0.0
C166 C 0.08513 0.94821 0.39961 0.0
C167 C 0.13922 0.94949 0.31963 0.0
C168 C 0.08597 0.90305 0.39754 0.0
C169 C 0.11236 0.88113 0.35626 0.0
H170 H 0.66658 0.71484 0.79457 0.0
H171 H 0.66745 0.60228 0.65923 0.0
H172 H 0.63364 0.55988 0.74227 0.0
H173 H 0.5954 0.55676 0.8458 0.0
H174 H 0.5928 0.66897 0.98006 0.0
H175 H 0.63696 0.70897 0.907 0.0
C176 C 0.66017 0.68087 0.78389 0.0
C177 C 0.66859 0.66222 0.71957 0.0
C178 C 0.64065 0.65639 0.83224 0.0
C179 C 0.66005 0.61799 0.70699 0.0
C180 C 0.64102 0.5935 0.75484 0.0
C181 C 0.60615 0.5894 0.86053 0.0
C182 C 0.59186 0.60971 0.91891 0.0
C183 C 0.63006 0.61259 0.81664 0.0
C184 C 0.60449 0.65248 0.93629 0.0
C185 C 0.62914 0.6755 0.89386 0.0
H186 H 0.9253 0.18871 0.13931 0.0
H187 H 0.79245 0.14619 0.13662 0.0
H188 H 0.81476 0.10652 0.24594 0.0
H189 H 0.87288 0.07893 0.33625 0.0
H190 H 1.00561 0.12253 0.34285 0.0
H191 H 0.98259 0.16762 0.23932 0.0
C192 C 0.9013 0.17099 0.16318 0.0
C193 C 0.85732 0.16995 0.12957 0.0
C194 C 0.91434 0.14871 0.22687 0.0
C195 C 0.8264 0.14741 0.16143 0.0
C196 C 0.83918 0.12469 0.22385 0.0
C197 C 0.89661 0.09907 0.31593 0.0
C198 C 0.9409 0.09747 0.34721 0.0
C199 C 0.88313 0.1245 0.25629 0.0
C200 C 0.97129 0.1237 0.32045 0.0
C201 C 0.95816 0.14901 0.26063 0.0
H202 H 0.35197 0.36939 0.70291 0.0
H203 H 0.45873 0.3905 0.58709 0.0
H204 H 0.50123 0.42537 0.69135 0.0
H205 H 0.50327 0.46017 0.80869 0.0
H206 H 0.39653 0.44099 0.92429 0.0
H207 H 0.35943 0.39413 0.82843 0.0
C208 C 0.38495 0.38061 0.70115 0.0
C209 C 0.40166 0.37826 0.63667 0.0
C210 C 0.40929 0.40106 0.76152 0.0
C211 C 0.44458 0.39292 0.63543 0.0
C212 C 0.46904 0.41276 0.69516 0.0
C213 C 0.47281 0.44413 0.81399 0.0
C214 C 0.45291 0.45324 0.87366 0.0
C215 C 0.45111 0.41847 0.7576 0.0
C216 C 0.4128 0.43352 0.87935 0.0
C217 C 0.39133 0.40726 0.82406 0.0
H218 H 0.60058 0.69634 0.46758 0.0
H219 H 0.73428 0.6776 0.43815 0.0
H220 H 0.70959 0.64386 0.3219 0.0
H221 H 0.6504 0.60956 0.23817 0.0
H222 H 0.51657 0.62756 0.26607 0.0
H223 H 0.54057 0.67263 0.37225 0.0
C224 C 0.62421 0.68559 0.43495 0.0
C225 C 0.66925 0.68902 0.46181 0.0
C226 C 0.60969 0.66608 0.36796 0.0
C227 C 0.69954 0.67542 0.41874 0.0
C228 C 0.6854 0.6559 0.35239 0.0
C229 C 0.62647 0.6248 0.26603 0.0
C230 C 0.58181 0.61553 0.24433 0.0
C231 C 0.64065 0.64976 0.32763 0.0
C232 C 0.55104 0.63488 0.28111 0.0
C233 C 0.56487 0.66005 0.34248 0.0
H234 H 0.85279 0.12053 0.87063 0.0
H235 H 0.89739 0.25146 0.86132 0.0
H236 H 0.93663 0.23186 0.76384 0.0
H237 H 0.9634 0.17641 0.68904 0.0
H238 H 0.91806 0.04549 0.69482 0.0
H239 H 0.87275 0.06622 0.78421 0.0
C240 C 0.87095 0.14466 0.84673 0.0
C241 C 0.87289 0.18724 0.87353 0.0
C242 C 0.89284 0.13322 0.78981 0.0
C243 C 0.89579 0.2185 0.84169 0.0
C244 C 0.91812 0.2073 0.78601 0.0
C245 C 0.94277 0.1526 0.70865 0.0
C246 C 0.94418 0.10946 0.68562 0.0
C247 C 0.91748 0.16466 0.76053 0.0
C248 C 0.9172 0.07896 0.71117 0.0
C249 C 0.89179 0.09073 0.76302 0.0
H250 H 0.37353 0.34821 0.31991 0.0
H251 H 0.34168 0.4646 0.42543 0.0
H252 H 0.37305 0.5078 0.33985 0.0
H253 H 0.42237 0.51161 0.25012 0.0
H254 H 0.45789 0.39482 0.15008 0.0
H255 H 0.41177 0.35275 0.21664 0.0
C256 C 0.372 0.38302 0.3224 0.0
C257 C 0.35574 0.4032 0.37918 0.0
C258 C 0.39142 0.40763 0.27432 0.0
C259 C 0.35436 0.44839 0.38235 0.0
C260 C 0.37255 0.47309 0.3337 0.0
C261 C 0.41849 0.47718 0.24109 0.0
C262 C 0.44303 0.4562 0.19518 0.0
C263 C 0.39309 0.45304 0.2816 0.0
C264 C 0.43878 0.41149 0.18481 0.0
C265 C 0.41275 0.38743 0.22332 0.0
H266 H 0.11716 0.86244 0.91592 0.0
H267 H 0.22618 0.94877 0.9792 0.0
H268 H 0.20385 0.99183 0.87398 0.0
H269 H 0.1507 0.00846 0.7709 0.0
H270 H 0.03846 0.92606 0.70709 0.0
H271 H 0.06502 0.87725 0.80454 0.0
C272 C 0.1362 0.89031 0.90561 0.0
C273 C 0.1733 0.90261 0.9548 0.0
C274 C 0.1225 0.91557 0.84535 0.0
C275 C 0.19764 0.93888 0.9418 0.0
C276 C 0.18482 0.96348 0.88184 0.0
C277 C 0.13198 0.97968 0.77773 0.0
C278 C 0.09227 0.97128 0.73228 0.0
C279 C 0.14686 0.95267 0.83429 0.0
C280 C 0.06908 0.93335 0.7413 0.0
C281 C 0.08414 0.90564 0.79735 0.0
loop_
_geom_bond_atom_site_label_1
_geom_bond_atom_site_label_2
_geom_bond_distance
_geom_bond_site_symmetry_2
_ccdc_geom_bond_type
H0 C5 0.930 1_556 S
H1 C8 0.930 . S
H2 C10 0.930 . S
H3 C4 1.016 . S
C4 H3 1.016 . S
C4 N11 1.286 . S
C5 H0 0.930 1_554 S
C5 C6 1.397 . S
C5 C7 1.361 . S
C6 C5 1.397 . S
C6 C10 1.390 . S
C7 C5 1.361 . S
C7 C8 1.393 . S
C7 N11 1.413 . S
C8 H1 0.930 . S
C8 C7 1.393 . S
C8 C9 1.399 . S
C9 C8 1.399 . S
C9 C10 1.381 . S
C10 H2 0.930 . S
C10 C6 1.390 . S
C10 C9 1.381 . S
N11 C4 1.286 . S
N11 C7 1.413 . S
H12 C17 0.930 . S
H13 C20 0.930 . S
H14 C22 0.930 . S
H15 C16 1.016 . S
C16 H15 1.016 . S
C16 N23 1.286 . S
C17 H12 0.930 . S
C17 C18 1.397 . S
C17 C19 1.361 . S
C18 C17 1.397 . S
C18 C22 1.390 . S
C19 C17 1.361 . S
C19 C20 1.393 . S
C19 N23 1.413 . S
C20 H13 0.930 . S
C20 C19 1.393 . S
C20 C21 1.399 . S
C21 C20 1.399 . S
C21 C22 1.381 . S
C22 H14 0.930 . S
C22 C18 1.390 . S
C22 C21 1.381 . S
N23 C16 1.286 . S
N23 C19 1.413 . S
H24 C29 0.930 . S
H25 C32 0.930 . S
H26 C34 0.930 . S
H27 C28 1.016 . S
C28 H27 1.016 . S
C28 N35 1.286 1_554 S
C29 H24 0.930 . S
C29 C30 1.397 . S
C29 C31 1.361 . S
C30 C29 1.397 . S
C30 C34 1.390 1_556 S
C31 C29 1.361 . S
C31 C32 1.393 1_556 S
C31 N35 1.413 . S
C32 H25 0.930 . S
C32 C31 1.393 1_554 S
C32 C33 1.399 . S
C33 C32 1.399 . S
C33 C34 1.381 . S
C34 H26 0.930 . S
C34 C30 1.390 1_554 S
C34 C33 1.381 . S
N35 C28 1.286 1_556 S
N35 C31 1.413 . S
H36 C41 0.930 . S
H37 C44 0.930 . S
H38 C46 0.930 . S
H39 C40 1.016 . S
C40 H39 1.016 . S
C40 N47 1.286 . S
C41 H36 0.930 . S
C41 C42 1.397 . S
C41 C43 1.361 . S
C42 C41 1.397 . S
C42 C46 1.390 . S
C43 C41 1.361 . S
C43 C44 1.393 . S
C43 N47 1.413 . S
C44 H37 0.930 . S
C44 C43 1.393 . S
C44 C45 1.399 . S
C45 C44 1.399 . S
C45 C46 1.381 . S
C46 H38 0.930 . S
C46 C42 1.390 . S
C46 C45 1.381 . S
N47 C40 1.286 . S
N47 C43 1.413 . S
O48 Mn49 2.163 1_655 S
O48 C62 1.244 . S
Mn49 O48 2.163 1_455 S
Mn49 O52 2.160 1_545 S
Mn49 O53 2.221 . S
Mn49 O55 2.163 1_455 S
Mn49 O57 2.160 1_545 S
Mn49 O67 2.221 1_445 S
O50 Mn51 2.087 1_545 S
O50 C62 1.256 . S
Mn51 O50 2.087 1_565 S
Mn51 O58 2.089 1_655 S
Mn51 O67 2.290 . S
Mn51 O68 2.251 . S
O52 Mn49 2.160 1_565 S
O52 C63 1.239 . S
O53 Mn49 2.221 . S
O53 Mn54 2.290 . S
O53 C64 1.278 . S
Mn54 O53 2.290 . S
Mn54 O56 2.089 . S
Mn54 O59 2.251 . S
Mn54 O60 2.087 . S
O55 Mn49 2.163 1_655 S
O55 C65 1.244 . S
O56 Mn54 2.089 . S
O56 C63 1.256 1_545 S
O57 Mn49 2.160 1_565 S
O57 C66 1.239 . S
O58 Mn51 2.089 1_455 S
O58 C66 1.256 . S
O59 Mn54 2.251 . S
O59 C64 1.241 . S
O60 Mn54 2.087 . S
O60 C65 1.256 1_455 S
C61 O67 1.278 . S
C61 O68 1.241 . S
C62 O48 1.244 . S
C62 O50 1.256 . S
C63 O52 1.239 . S
C63 O56 1.256 1_565 S
C64 O53 1.278 . S
C64 O59 1.241 . S
C65 O55 1.244 . S
C65 O60 1.256 1_655 S
C66 O57 1.239 . S
C66 O58 1.256 . S
O67 Mn49 2.221 1_665 S
O67 Mn51 2.290 . S
O67 C61 1.278 . S
O68 Mn51 2.251 . S
O68 C61 1.241 . S
O69 Mn70 2.163 . S
O69 C83 1.244 . S
Mn70 O69 2.163 . S
Mn70 O73 2.160 1_554 S
Mn70 O74 2.221 . S
Mn70 O76 2.163 1_554 S
Mn70 O78 2.160 . S
Mn70 O88 2.221 . S
O71 Mn72 2.087 . S
O71 C83 1.256 . S
Mn72 O71 2.087 . S
Mn72 O79 2.089 . S
Mn72 O88 2.290 . S
Mn72 O89 2.251 . S
O73 Mn70 2.160 1_556 S
O73 C84 1.239 . S
O74 Mn70 2.221 . S
O74 Mn75 2.290 1_554 S
O74 C85 1.278 . S
Mn75 O74 2.290 1_556 S
Mn75 O77 2.089 . S
Mn75 O80 2.251 . S
Mn75 O81 2.087 . S
O76 Mn70 2.163 1_556 S
O76 C86 1.244 . S
O77 Mn75 2.089 . S
O77 C84 1.256 . S
O78 Mn70 2.160 . S
O78 C87 1.239 . S
O79 Mn72 2.089 . S
O79 C87 1.256 . S
O80 Mn75 2.251 . S
O80 C85 1.241 1_556 S
O81 Mn75 2.087 . S
O81 C86 1.256 . S
C82 O88 1.278 . S
C82 O89 1.241 . S
C83 O69 1.244 . S
C83 O71 1.256 . S
C84 O73 1.239 . S
C84 O77 1.256 . S
C85 O74 1.278 . S
C85 O80 1.241 1_554 S
C86 O76 1.244 . S
C86 O81 1.256 . S
C87 O78 1.239 . S
C87 O79 1.256 . S
O88 Mn70 2.221 . S
O88 Mn72 2.290 . S
O88 C82 1.278 . S
O89 Mn72 2.251 . S
O89 C82 1.241 . S
H90 C96 0.930 . S
H91 C99 0.930 . S
H92 C100 0.930 . S
H93 C101 0.930 . S
H94 C104 0.930 . S
H95 C105 0.930 . S
C96 H90 0.930 . S
C96 C97 1.355 . S
C96 C98 1.415 . S
C97 C96 1.355 . S
C97 C99 1.419 . S
C98 C96 1.415 . S
C98 C103 1.425 . S
C98 C105 1.409 . S
C99 H91 0.930 . S
C99 C97 1.419 . S
C99 C100 1.362 . S
C100 H92 0.930 . S
C100 C99 1.362 . S
C100 C103 1.409 . S
C101 H93 0.930 . S
C101 C102 1.355 . S
C101 C103 1.415 . S
C102 C101 1.355 . S
C102 C104 1.419 . S
C103 C98 1.425 . S
C103 C100 1.409 . S
C103 C101 1.415 . S
C104 H94 0.930 . S
C104 C102 1.419 . S
C104 C105 1.362 . S
C105 H95 0.930 . S
C105 C98 1.409 . S
C105 C104 1.362 . S
H106 C112 0.930 . S
H107 C115 0.930 1_556 S
H108 C116 0.930 . S
H109 C117 0.930 1_556 S
H110 C120 0.930 . S
H111 C121 0.930 . S
C112 H106 0.930 . S
C112 C113 1.355 . S
C112 C114 1.415 . S
C113 C112 1.355 . S
C113 C115 1.419 . S
C114 C112 1.415 . S
C114 C119 1.425 . S
C114 C121 1.409 . S
C115 H107 0.930 1_554 S
C115 C113 1.419 . S
C115 C116 1.362 1_554 S
C116 H108 0.930 . S
C116 C115 1.362 1_556 S
C116 C119 1.409 1_556 S
C117 H109 0.930 1_554 S
C117 C118 1.355 . S
C117 C119 1.415 . S
C118 C117 1.355 . S
C118 C120 1.419 . S
C119 C114 1.425 . S
C119 C116 1.409 1_554 S
C119 C117 1.415 . S
C120 H110 0.930 . S
C120 C118 1.419 . S
C120 C121 1.362 . S
C121 H111 0.930 . S
C121 C114 1.409 . S
C121 C120 1.362 . S
H122 C128 0.930 . S
H123 C131 0.930 . S
H124 C132 0.930 . S
H125 C133 0.930 . S
H126 C136 0.930 . S
H127 C137 0.930 . S
C128 H122 0.930 . S
C128 C129 1.355 . S
C128 C130 1.415 . S
C129 C128 1.355 . S
C129 C131 1.419 . S
C130 C128 1.415 . S
C130 C135 1.425 . S
C130 C137 1.409 . S
C131 H123 0.930 . S
C131 C129 1.419 . S
C131 C132 1.362 . S
C132 H124 0.930 . S
C132 C131 1.362 . S
C132 C135 1.409 . S
C133 H125 0.930 . S
C133 C134 1.355 . S
C133 C135 1.415 . S
C134 C133 1.355 . S
C134 C136 1.419 . S
C135 C130 1.425 . S
C135 C132 1.409 . S
C135 C133 1.415 . S
C136 H126 0.930 . S
C136 C134 1.419 . S
C136 C137 1.362 . S
C137 H127 0.930 . S
C137 C130 1.409 . S
C137 C136 1.362 . S
H138 C144 0.930 . S
H139 C147 0.930 . S
H140 C148 0.930 . S
H141 C149 0.930 . S
H142 C152 0.930 . S
H143 C153 0.929 1_556 S
C144 H138 0.930 . S
C144 C145 1.355 . S
C144 C146 1.415 . S
C145 C144 1.355 . S
C145 C147 1.419 . S
C146 C144 1.415 . S
C146 C151 1.425 . S
C146 C153 1.409 . S
C147 H139 0.930 . S
C147 C145 1.419 . S
C147 C148 1.362 . S
C148 H140 0.930 . S
C148 C147 1.362 . S
C148 C151 1.409 . S
C149 H141 0.930 . S
C149 C150 1.355 . S
C149 C151 1.415 . S
C150 C149 1.355 . S
C150 C152 1.419 . S
C151 C146 1.425 . S
C151 C148 1.409 . S
C151 C149 1.415 . S
C152 H142 0.930 . S
C152 C150 1.419 . S
C152 C153 1.362 . S
C153 H143 0.929 1_554 S
C153 C146 1.409 . S
C153 C152 1.362 . S
H154 C160 0.930 . S
H155 C163 0.930 . S
H156 C164 0.930 . S
H157 C165 0.930 . S
H158 C168 0.930 . S
H159 C169 0.930 . S
C160 H154 0.930 . S
C160 C161 1.355 . S
C160 C162 1.415 . S
C161 C160 1.355 . S
C161 C163 1.419 . S
C162 C160 1.415 . S
C162 C167 1.425 . S
C162 C169 1.409 . S
C163 H155 0.930 . S
C163 C161 1.419 . S
C163 C164 1.362 . S
C164 H156 0.930 . S
C164 C163 1.362 . S
C164 C167 1.409 . S
C165 H157 0.930 . S
C165 C166 1.355 . S
C165 C167 1.415 . S
C166 C165 1.355 . S
C166 C168 1.419 . S
C167 C162 1.425 . S
C167 C164 1.409 . S
C167 C165 1.415 . S
C168 H158 0.930 . S
C168 C166 1.419 . S
C168 C169 1.362 . S
C169 H159 0.930 . S
C169 C162 1.409 . S
C169 C168 1.362 . S
H170 C176 0.930 . S
H171 C179 0.930 . S
H172 C180 0.930 . S
H173 C181 0.930 . S
H174 C184 0.930 . S
H175 C185 0.930 . S
C176 H170 0.930 . S
C176 C177 1.355 . S
C176 C178 1.415 . S
C177 C176 1.355 . S
C177 C179 1.419 . S
C178 C176 1.415 . S
C178 C183 1.425 . S
C178 C185 1.409 . S
C179 H171 0.930 . S
C179 C177 1.419 . S
C179 C180 1.362 . S
C180 H172 0.930 . S
C180 C179 1.362 . S
C180 C183 1.409 . S
C181 H173 0.930 . S
C181 C182 1.355 . S
C181 C183 1.415 . S
C182 C181 1.355 . S
C182 C184 1.419 . S
C183 C178 1.425 . S
C183 C180 1.409 . S
C183 C181 1.415 . S
C184 H174 0.930 . S
C184 C182 1.419 . S
C184 C185 1.362 . S
C185 H175 0.930 . S
C185 C178 1.409 . S
C185 C184 1.362 . S
H186 C192 0.930 . S
H187 C195 0.930 . S
H188 C196 0.930 . S
H189 C197 0.930 . S
H190 C200 0.930 1_455 S
H191 C201 0.930 . S
C192 H186 0.930 . S
C192 C193 1.355 . S
C192 C194 1.415 . S
C193 C192 1.355 . S
C193 C195 1.419 . S
C194 C192 1.415 . S
C194 C199 1.425 . S
C194 C201 1.409 . S
C195 H187 0.930 . S
C195 C193 1.419 . S
C195 C196 1.362 . S
C196 H188 0.930 . S
C196 C195 1.362 . S
C196 C199 1.409 . S
C197 H189 0.930 . S
C197 C198 1.355 . S
C197 C199 1.415 . S
C198 C197 1.355 . S
C198 C200 1.419 . S
C199 C194 1.425 . S
C199 C196 1.409 . S
C199 C197 1.415 . S
C200 H190 0.930 1_655 S
C200 C198 1.419 . S
C200 C201 1.362 . S
C201 H191 0.930 . S
C201 C194 1.409 . S
C201 C200 1.362 . S
H202 C208 0.930 . S
H203 C211 0.930 . S
H204 C212 0.930 . S
H205 C213 0.930 . S
H206 C216 0.930 . S
H207 C217 0.930 . S
C208 H202 0.930 . S
C208 C209 1.355 . S
C208 C210 1.415 . S
C209 C208 1.355 . S
C209 C211 1.419 . S
C210 C208 1.415 . S
C210 C215 1.425 . S
C210 C217 1.409 . S
C211 H203 0.930 . S
C211 C209 1.419 . S
C211 C212 1.362 . S
C212 H204 0.930 . S
C212 C211 1.362 . S
C212 C215 1.409 . S
C213 H205 0.930 . S
C213 C214 1.355 . S
C213 C215 1.415 . S
C214 C213 1.355 . S
C214 C216 1.419 . S
C215 C210 1.425 . S
C215 C212 1.409 . S
C215 C213 1.415 . S
C216 H206 0.930 . S
C216 C214 1.419 . S
C216 C217 1.362 . S
C217 H207 0.930 . S
C217 C210 1.409 . S
C217 C216 1.362 . S
H218 C224 0.930 . S
H219 C227 0.930 . S
H220 C228 0.930 . S
H221 C229 0.930 . S
H222 C232 0.930 . S
H223 C233 0.930 . S
C224 H218 0.930 . S
C224 C225 1.355 . S
C224 C226 1.415 . S
C225 C224 1.355 . S
C225 C227 1.419 . S
C226 C224 1.415 . S
C226 C231 1.425 . S
C226 C233 1.409 . S
C227 H219 0.930 . S
C227 C225 1.419 . S
C227 C228 1.362 . S
C228 H220 0.930 . S
C228 C227 1.362 . S
C228 C231 1.409 . S
C229 H221 0.930 . S
C229 C230 1.355 . S
C229 C231 1.415 . S
C230 C229 1.355 . S
C230 C232 1.419 . S
C231 C226 1.425 . S
C231 C228 1.409 . S
C231 C229 1.415 . S
C232 H222 0.930 . S
C232 C230 1.419 . S
C232 C233 1.362 . S
C233 H223 0.930 . S
C233 C226 1.409 . S
C233 C232 1.362 . S
H234 C240 0.930 . S
H235 C243 0.930 . S
H236 C244 0.930 . S
H237 C245 0.930 . S
H238 C248 0.930 . S
H239 C249 0.930 . S
C240 H234 0.930 . S
C240 C241 1.355 . S
C240 C242 1.415 . S
C241 C240 1.355 . S
C241 C243 1.419 . S
C242 C240 1.415 . S
C242 C247 1.425 . S
C242 C249 1.409 . S
C243 H235 0.930 . S
C243 C241 1.419 . S
C243 C244 1.362 . S
C244 H236 0.930 . S
C244 C243 1.362 . S
C244 C247 1.409 . S
C245 H237 0.930 . S
C245 C246 1.355 . S
C245 C247 1.415 . S
C246 C245 1.355 . S
C246 C248 1.419 . S
C247 C242 1.425 . S
C247 C244 1.409 . S
C247 C245 1.415 . S
C248 H238 0.930 . S
C248 C246 1.419 . S
C248 C249 1.362 . S
C249 H239 0.930 . S
C249 C242 1.409 . S
C249 C248 1.362 . S
H250 C256 0.930 . S
H251 C259 0.930 . S
H252 C260 0.930 . S
H253 C261 0.930 . S
H254 C264 0.930 . S
H255 C265 0.930 . S
C256 H250 0.930 . S
C256 C257 1.355 . S
C256 C258 1.415 . S
C257 C256 1.355 . S
C257 C259 1.419 . S
C258 C256 1.415 . S
C258 C263 1.425 . S
C258 C265 1.409 . S
C259 H251 0.930 . S
C259 C257 1.419 . S
C259 C260 1.362 . S
C260 H252 0.930 . S
C260 C259 1.362 . S
C260 C263 1.409 . S
C261 H253 0.930 . S
C261 C262 1.355 . S
C261 C263 1.415 . S
C262 C261 1.355 . S
C262 C264 1.419 . S
C263 C258 1.425 . S
C263 C260 1.409 . S
C263 C261 1.415 . S
C264 H254 0.930 . S
C264 C262 1.419 . S
C264 C265 1.362 . S
C265 H255 0.930 . S
C265 C258 1.409 . S
C265 C264 1.362 . S
H266 C272 0.930 . S
H267 C275 0.930 1_554 S
H268 C276 0.930 . S
H269 C277 0.943 . S
H270 C280 0.930 . S
H271 C281 0.930 . S
C272 H266 0.930 . S
C272 C273 1.355 . S
C272 C274 1.415 . S
C273 C272 1.355 . S
C273 C275 1.419 . S
C274 C272 1.415 . S
C274 C279 1.425 . S
C274 C281 1.409 . S
C275 H267 0.930 1_556 S
C275 C273 1.419 . S
C275 C276 1.362 . S
C276 H268 0.930 . S
C276 C275 1.362 . S
C276 C279 1.409 . S
C277 H269 0.943 . S
C277 C278 1.355 . S
C277 C279 1.415 . S
C278 C277 1.355 . S
C278 C280 1.419 . S
C279 C274 1.425 . S
C279 C276 1.409 . S
C279 C277 1.415 . S
C280 H270 0.930 . S
C280 C278 1.419 . S
C280 C281 1.362 . S
C281 H271 0.930 . S
C281 C274 1.409 . S
C281 C280 1.362 . S
C102 C64 1.261 . S
C97 C40 1.427 . S
C113 C4 1.472 . S
C118 C85 1.351 . S
C129 C16 1.576 . S
C134 C61 1.399 . S
C145 C28 1.568 . S
C150 C82 1.414 . S
C166 C66 1.465 . S
C161 C9 1.504 . S
C182 C86 1.494 . S
C177 C18 1.589 . S
C193 C33 1.574 . S
C198 C62 1.568 . S
C209 C45 1.500 . S
C214 C84 1.431 . S
C230 C83 1.493 . S
C225 C21 1.527 . S
C246 C65 1.504 . S
C241 C30 1.528 . S
C262 C87 1.433 . S
C257 C42 1.444 . S
C273 C6 1.470 1_556 S
C278 C63 1.444 . S
