# Generated by pormake.
# Topology anh, (6,3)-cn, num edge types: 1
# Building blocks:
#     Node 0, Type 0, BuildingBlock: BETFAJ_clean_sbu_0, # of connection points: 6
#     Node 1, Type 0, BuildingBlock: BETFAJ_clean_sbu_0, # of connection points: 6
#     Node 2, Type 0, BuildingBlock: BETFAJ_clean_sbu_0, # of connection points: 6
#     Node 3, Type 1, BuildingBlock: BETDIP_clean_linker_0, # of connection points: 3
#     Node 4, Type 1, BuildingBlock: BETDIP_clean_linker_0, # of connection points: 3
#     Node 5, Type 1, BuildingBlock: BETDIP_clean_linker_0, # of connection points: 3
#     Node 6, Type 1, BuildingBlock: BETDIP_clean_linker_0, # of connection points: 3
#     Node 7, Type 1, BuildingBlock: BETDIP_clean_linker_0, # of connection points: 3
#     Node 8, Type 1, BuildingBlock: BETDIP_clean_linker_0, # of connection points: 3
#     Edge 9, Type (0, 1), BuildingBlock: TEMPAE_clean_linker_10, # of connection points: 2
#     Edge 10, Type (0, 1), BuildingBlock: TEMPAE_clean_linker_10, # of connection points: 2
#     Edge 11, Type (0, 1), BuildingBlock: TEMPAE_clean_linker_10, # of connection points: 2
#     Edge 12, Type (0, 1), BuildingBlock: TEMPAE_clean_linker_10, # of connection points: 2
#     Edge 13, Type (0, 1), BuildingBlock: TEMPAE_clean_linker_10, # of connection points: 2
#     Edge 14, Type (0, 1), BuildingBlock: TEMPAE_clean_linker_10, # of connection points: 2
#     Edge 15, Type (0, 1), BuildingBlock: TEMPAE_clean_linker_10, # of connection points: 2
#     Edge 16, Type (0, 1), BuildingBlock: TEMPAE_clean_linker_10, # of connection points: 2
#     Edge 17, Type (0, 1), BuildingBlock: TEMPAE_clean_linker_10, # of connection points: 2
#     Edge 18, Type (0, 1), BuildingBlock: TEMPAE_clean_linker_10, # of connection points: 2
#     Edge 19, Type (0, 1), BuildingBlock: TEMPAE_clean_linker_10, # of connection points: 2
#     Edge 20, Type (0, 1), BuildingBlock: TEMPAE_clean_linker_10, # of connection points: 2
#     Edge 21, Type (0, 1), BuildingBlock: TEMPAE_clean_linker_10, # of connection points: 2
#     Edge 22, Type (0, 1), BuildingBlock: TEMPAE_clean_linker_10, # of connection points: 2
#     Edge 23, Type (0, 1), BuildingBlock: TEMPAE_clean_linker_10, # of connection points: 2
#     Edge 24, Type (0, 1), BuildingBlock: TEMPAE_clean_linker_10, # of connection points: 2
#     Edge 25, Type (0, 1), BuildingBlock: TEMPAE_clean_linker_10, # of connection points: 2
#     Edge 26, Type (0, 1), BuildingBlock: TEMPAE_clean_linker_10, # of connection points: 2
# Relax obj value: 0.158
# Max RMSD: 0.179
# Mean RMSD: 0.126
data_MOF--net-anh--node1-BETFAJ_clean_sbu_0--node2-BETDIP_clean_linker_0--edge1-TEMPAE_clean_linker_10
_symmetry_space_group_name_H-M    P1
_symmetry_Int_Tables_number       1
_symmetry_cell_setting            triclinic
loop_
_symmetry_equiv_pos_as_xyz
'x, y, z'
_cell_length_a     30.853657
_cell_length_b     38.42369
_cell_length_c     50.075629
_cell_angle_alpha  95.463571
_cell_angle_beta   89.382017
_cell_angle_gamma 130.05357
loop_
_atom_site_label
_atom_site_type_symbol
_atom_site_fract_x
_atom_site_fract_y
_atom_site_fract_z
_atom_type_partial_charge
Sm0 Sm 0.12886 0.50082 0.13029 0.0
Sm1 Sm 1.07379 0.53518 0.16156 0.0
C2 C 0.175 0.47716 0.09687 0.0
C3 C 0.17982 0.44155 0.09547 0.0
C4 C 0.21124 0.44033 0.07572 0.0
C5 C 0.2256 0.41277 0.07726 0.0
C6 C 0.2091 0.38619 0.09878 0.0
C7 C 0.17294 0.38433 0.1171 0.0
C8 C 0.15851 0.41196 0.11549 0.0
C9 C 0.14012 0.50778 0.18533 0.0
C10 C 0.20019 0.61086 0.14428 0.0
C11 C 1.0292 0.55477 0.19902 0.0
C12 C 0.97539 0.54362 0.20539 0.0
C13 C 0.96997 0.55755 0.23117 0.0
C14 C 0.92333 0.5548 0.23633 0.0
C15 C 0.88169 0.53829 0.21568 0.0
C16 C 0.8852 0.52099 0.19042 0.0
C17 C 0.93178 0.52364 0.18532 0.0
C18 C 1.06309 0.53034 0.10668 0.0
C19 C 1.0012 0.42308 0.1483 0.0
O20 O 0.20346 0.50892 0.11735 0.0
O21 O 0.124 0.46308 0.09238 0.0
O22 O 0.14427 0.53558 0.17188 0.0
O23 O 0.13337 0.47547 0.16967 0.0
O24 O 0.18834 0.57879 0.12531 0.0
O25 O 0.16687 0.5999 0.16429 0.0
O26 O 1.03252 0.52266 0.20028 0.0
O27 O 1.05315 0.57784 0.17837 0.0
O28 O 1.0593 0.50184 0.11938 0.0
O29 O 1.06675 0.56058 0.12309 0.0
O30 O 1.00363 0.45657 0.16031 0.0
O31 O 1.04284 0.43081 0.13456 0.0
H32 H 0.22778 0.46289 0.0601 0.0
H33 H 0.25404 0.41571 0.06293 0.0
H34 H 0.15912 0.36402 0.13374 0.0
H35 H 0.13364 0.41229 0.1308 0.0
H36 H 1.00325 0.57278 0.24692 0.0
H37 H 0.9214 0.56786 0.25605 0.0
H38 H 0.85421 0.50853 0.17399 0.0
H39 H 0.93537 0.51257 0.16531 0.0
Sm40 Sm 0.66522 0.04776 0.4837 0.0
Sm41 Sm 0.58618 0.06899 0.46259 0.0
C42 C 0.70979 0.02518 0.51505 0.0
C43 C 0.70477 0.98459 0.5154 0.0
C44 C 0.71587 0.97516 0.53952 0.0
C45 C 0.70562 0.93423 0.5407 0.0
C46 C 0.68398 0.902 0.51773 0.0
C47 C 0.67404 0.91217 0.49343 0.0
C48 C 0.68411 0.95302 0.49231 0.0
C49 C 0.64518 0.02876 0.42828 0.0
C50 C 0.52878 0.96405 0.4669 0.0
C51 C 0.54452 0.10098 0.43852 0.0
C52 C 0.55239 0.14279 0.44559 0.0
C53 C 0.53989 0.16023 0.42659 0.0
C54 C 0.5481 0.20038 0.43367 0.0
C55 C 0.56851 0.22326 0.4599 0.0
C56 C 0.58177 0.20592 0.47867 0.0
C57 C 0.57406 0.1662 0.47155 0.0
C58 C 0.59549 0.06945 0.5171 0.0
C59 C 0.72617 0.15371 0.47506 0.0
O60 O 0.66333 0.01854 0.52013 0.0
O61 O 0.73617 0.04985 0.49514 0.0
O62 O 0.62793 0.0434 0.44471 0.0
O63 O 0.67576 0.02291 0.44144 0.0
O64 O 0.57263 0.98025 0.4836 0.0
O65 O 0.52799 0.99086 0.45247 0.0
O66 O 0.58988 0.10757 0.43101 0.0
O67 O 0.51642 0.07016 0.45537 0.0
O68 O 0.63457 0.08417 0.50133 0.0
O69 O 0.55015 0.05715 0.50453 0.0
O70 O 0.6761 0.13978 0.46661 0.0
O71 O 0.73336 0.12588 0.48339 0.0
H72 H 0.73103 0.9989 0.55762 0.0
H73 H 0.71286 0.92718 0.55983 0.0
H74 H 0.65799 0.88838 0.47531 0.0
H75 H 0.67466 0.95955 0.47356 0.0
H76 H 0.52367 0.14278 0.40639 0.0
H77 H 0.53751 0.21306 0.41886 0.0
H78 H 0.59844 0.22327 0.49888 0.0
H79 H 0.58489 0.15365 0.48635 0.0
Sm80 Sm 0.69176 0.60598 0.82662 0.0
Sm81 Sm 0.61292 0.51046 0.84134 0.0
C82 C 0.73929 0.68258 0.80489 0.0
C83 C 0.72525 0.712 0.80122 0.0
C84 C 0.66909 0.69308 0.7951 0.0
C85 C 0.65623 0.72148 0.79238 0.0
C86 C 0.6993 0.76937 0.79568 0.0
C87 C 0.75551 0.78816 0.80178 0.0
C88 C 0.7683 0.7597 0.80456 0.0
C89 C 0.6942 0.60042 0.88066 0.0
C90 C 0.55769 0.55817 0.8386 0.0
C91 C 0.56465 0.43148 0.86015 0.0
C92 C 0.56823 0.39529 0.85334 0.0
C93 C 0.55963 0.36767 0.87272 0.0
C94 C 0.56363 0.33357 0.86619 0.0
C95 C 0.57587 0.32644 0.8401 0.0
C96 C 0.58499 0.35456 0.82085 0.0
C97 C 0.58153 0.3888 0.82745 0.0
C98 C 0.61377 0.51675 0.78708 0.0
C99 C 0.74896 0.56016 0.83236 0.0
O100 O 0.7072 0.64199 0.79104 0.0
O101 O 0.75176 0.68202 0.82962 0.0
O102 O 0.64985 0.57745 0.8652 0.0
O103 O 0.7393 0.62886 0.86805 0.0
O104 O 0.60297 0.58784 0.82537 0.0
O105 O 0.55494 0.52785 0.85087 0.0
O106 O 0.61071 0.47055 0.87162 0.0
O107 O 0.54017 0.43648 0.84157 0.0
O108 O 0.65677 0.53909 0.80323 0.0
O109 O 0.56781 0.48849 0.79909 0.0
O110 O 0.70145 0.52858 0.84361 0.0
O111 O 0.75389 0.59197 0.82075 0.0
H112 H 0.63517 0.65635 0.79233 0.0
H113 H 0.61269 0.70593 0.78728 0.0
H114 H 0.78954 0.8249 0.80471 0.0
H115 H 0.81183 0.77495 0.80945 0.0
H116 H 0.54978 0.37245 0.89287 0.0
H117 H 0.55635 0.31235 0.88139 0.0
H118 H 0.59547 0.3504 0.80074 0.0
H119 H 0.58928 0.41025 0.81229 0.0
H120 H 0.56413 0.97735 0.14826 0.0
H121 H 0.64436 0.05988 0.22439 0.0
H122 H 0.53024 0.91362 0.22071 0.0
H123 H 0.63946 0.10717 0.20405 0.0
C124 C 0.65681 0.10666 0.18516 0.0
C125 C 0.57085 0.97999 0.16981 0.0
C126 C 0.54276 0.94002 0.1827 0.0
C127 C 0.60742 0.02351 0.18475 0.0
C128 C 0.61602 0.02664 0.21274 0.0
C129 C 0.58816 0.9873 0.22597 0.0
C130 C 0.552 0.94423 0.2107 0.0
N131 N 0.63636 0.06383 0.17149 0.0
H132 H 0.60431 0.52197 0.50834 0.0
H133 H 0.60394 0.57487 0.58778 0.0
H134 H 0.62828 0.47621 0.57739 0.0
H135 H 0.54833 0.58388 0.56517 0.0
C136 C 0.57438 0.59956 0.54831 0.0
C137 C 0.60781 0.52297 0.52996 0.0
C138 C 0.61606 0.49519 0.54095 0.0
C139 C 0.60351 0.55181 0.54672 0.0
C140 C 0.60764 0.55287 0.5748 0.0
C141 C 0.61645 0.52566 0.58624 0.0
C142 C 0.62133 0.49736 0.56902 0.0
N143 N 0.59709 0.58063 0.53495 0.0
H144 H 0.12041 0.56826 0.83106 0.0
H145 H 0.1708 0.54698 0.90367 0.0
H146 H 1.03768 0.55407 0.90408 0.0
H147 H 0.26071 0.60675 0.88614 0.0
C148 C 0.25067 0.58521 0.86748 0.0
C149 C 0.1154 0.56274 0.85207 0.0
C150 C 1.07379 0.56123 0.86597 0.0
C151 C 0.15246 0.55937 0.86596 0.0
C152 C 0.14474 0.55178 0.89322 0.0
C153 C 0.10331 0.5495 0.90705 0.0
C154 C 1.06877 0.55466 0.89329 0.0
N155 N 0.19752 0.56384 0.853 0.0
H156 H 0.17461 0.59956 0.46346 0.0
H157 H 0.09472 0.49715 0.39482 0.0
H158 H 0.24296 0.63459 0.38565 0.0
H159 H 1.01587 0.48225 0.41674 0.0
C160 C 1.02812 0.47738 0.43541 0.0
C161 C 0.17335 0.58994 0.44225 0.0
C162 C 0.21562 0.62262 0.42609 0.0
C163 C 0.12867 0.54487 0.43088 0.0
C164 C 0.12765 0.53225 0.40347 0.0
C165 C 0.16872 0.56429 0.38706 0.0
C166 C 0.21241 0.60931 0.39851 0.0
N167 N 1.0846 0.51225 0.44685 0.0
H168 H 0.61923 0.06825 0.79575 0.0
H169 H 0.63026 0.01898 0.71748 0.0
H170 H 0.61791 0.12472 0.726 0.0
H171 H 0.57125 0.95038 0.7373 0.0
C172 C 0.59843 0.96278 0.75552 0.0
C173 C 0.62057 0.06934 0.77419 0.0
C174 C 0.62033 0.10124 0.76276 0.0
C175 C 0.6222 0.03854 0.7578 0.0
C176 C 0.62555 0.04087 0.72989 0.0
C177 C 0.6241 0.07183 0.71801 0.0
C178 C 0.62111 0.10166 0.73474 0.0
N179 N 0.62143 1.00592 0.76964 0.0
H180 H 0.59244 0.57267 0.14836 0.0
H181 H 0.72146 0.66058 0.09549 0.0
H182 H 0.58554 0.51813 0.06829 0.0
H183 H 0.68284 0.67416 0.18675 0.0
C184 C 0.68988 0.65552 0.17236 0.0
C185 C 0.61228 0.57692 0.12956 0.0
C186 C 0.58485 0.54007 0.10924 0.0
C187 C 0.66187 0.62037 0.12472 0.0
C188 C 0.68416 0.62667 0.09942 0.0
C189 C 0.65801 0.5895 0.07916 0.0
C190 C 0.60867 0.54614 0.0844 0.0
N191 N 0.68688 0.65864 0.14449 0.0
C192 C 0.26675 0.38324 0.13128 0.0
C193 C 0.24094 0.37081 0.10526 0.0
C194 C 0.3188 0.39319 0.13514 0.0
C195 C 0.34498 0.39115 0.11243 0.0
C196 C 0.31223 0.36749 0.08781 0.0
C197 C 0.25997 0.35741 0.08444 0.0
C198 C 0.35059 0.41467 0.16233 0.0
C199 C 0.33689 0.36109 0.06363 0.0
C200 C 0.48576 0.5069 0.10471 0.0
C201 C 0.52441 0.50094 0.11081 0.0
C202 C 0.42754 0.47113 0.1049 0.0
C203 C 0.40726 0.42798 0.11158 0.0
C204 C 0.4464 0.42161 0.11765 0.0
C205 C 0.50503 0.45849 0.11717 0.0
C206 C 0.38804 0.48 0.09787 0.0
C207 C 0.42715 0.37669 0.12518 0.0
H208 H 0.25145 0.39204 0.14791 0.0
H209 H 0.23843 0.34526 0.06457 0.0
H210 H 0.37751 0.4056 0.16589 0.0
H211 H 0.37868 0.45249 0.16317 0.0
H212 H 0.32102 0.40369 0.17868 0.0
H213 H 0.30289 0.33208 0.04903 0.0
H214 H 0.36182 0.39264 0.05341 0.0
H215 H 0.36575 0.35489 0.06963 0.0
H216 H 0.50143 0.53989 0.09955 0.0
H217 H 0.53551 0.45423 0.12181 0.0
H218 H 0.3616 0.47421 0.1149 0.0
H219 H 0.35928 0.45623 0.08014 0.0
H220 H 0.41126 0.51553 0.09309 0.0
H221 H 0.4259 0.3773 0.14736 0.0
H222 H 0.45738 0.3714 0.11895 0.0
H223 H 0.38417 0.34714 0.11612 0.0
C224 C 0.76832 0.23541 0.47865 0.0
C225 C 0.77575 0.20293 0.47505 0.0
C226 C 0.8131 0.28166 0.47586 0.0
C227 C 0.8663 0.29565 0.46855 0.0
C228 C 0.87469 0.2633 0.46593 0.0
C229 C 0.82943 0.21736 0.46955 0.0
C230 C 0.80253 0.31507 0.47945 0.0
C231 C 0.93027 0.27652 0.45757 0.0
C232 C 0.94609 0.39464 0.42623 0.0
C233 C 0.98887 0.43135 0.44459 0.0
C234 C 0.9073 0.35024 0.43363 0.0
C235 C 0.91022 0.34243 0.46036 0.0
C236 C 0.95342 0.37947 0.4791 0.0
C237 C 0.99286 0.42357 0.47088 0.0
C238 C 0.8628 0.31174 0.4128 0.0
C239 C 0.95701 0.37271 0.50793 0.0
H240 H 0.72702 0.2245 0.48323 0.0
H241 H 0.83524 0.1923 0.46663 0.0
H242 H 0.83745 0.34662 0.49233 0.0
H243 H 0.80142 0.32523 0.45962 0.0
H244 H 0.76169 0.30023 0.48859 0.0
H245 H 0.93207 0.24883 0.45917 0.0
H246 H 0.93599 0.28425 0.43639 0.0
H247 H 0.96635 0.30793 0.47007 0.0
H248 H 0.94325 0.40063 0.40584 0.0
H249 H 1.02579 0.45203 0.48513 0.0
H250 H 0.81996 0.2978 0.41865 0.0
H251 H 0.86401 0.28339 0.41167 0.0
H252 H 0.86875 0.32302 0.39249 0.0
H253 H 0.91773 0.36107 0.51755 0.0
H254 H 0.99405 0.4046 0.5198 0.0
H255 H 0.96007 0.34561 0.50878 0.0
C256 C 0.72029 0.83719 0.77769 0.0
C257 C 0.6857 0.79952 0.79232 0.0
C258 C 0.70681 0.8649 0.77339 0.0
C259 C 0.65758 0.85482 0.78404 0.0
C260 C 0.62313 0.81744 0.79932 0.0
C261 C 0.63752 0.79018 0.80322 0.0
C262 C 0.74438 0.90421 0.75679 0.0
C263 C 0.57049 0.80575 0.81113 0.0
C264 C 0.64639 0.94825 0.78744 0.0
C265 C 0.61205 0.93479 0.76408 0.0
C266 C 0.66074 0.92206 0.79454 0.0
C267 C 0.6405 0.88179 0.77778 0.0
C268 C 0.60517 0.86787 0.75439 0.0
C269 C 0.59129 0.89449 0.7479 0.0
C270 C 0.6982 0.93779 0.81972 0.0
C271 C 0.58288 0.82529 0.73592 0.0
H272 H 0.75719 0.84428 0.76894 0.0
H273 H 0.61103 0.76148 0.81486 0.0
H274 H 0.7201 0.89808 0.73818 0.0
H275 H 0.75836 0.93651 0.76811 0.0
H276 H 0.78256 0.90884 0.75104 0.0
H277 H 0.54986 0.77703 0.82364 0.0
H278 H 0.58124 0.83608 0.82368 0.0
H279 H 0.53944 0.79608 0.79474 0.0
H280 H 0.66247 0.97937 0.80005 0.0
H281 H 0.56476 0.88411 0.72981 0.0
H282 H 0.73851 0.94574 0.81438 0.0
H283 H 0.67717 0.91004 0.83294 0.0
H284 H 0.70834 0.96869 0.83121 0.0
H285 H 0.61887 0.82874 0.7277 0.0
H286 H 0.55484 0.81865 0.71886 0.0
H287 H 0.55872 0.79509 0.7473 0.0
C288 C 0.78531 0.51418 0.20691 0.0
C289 C 0.84079 0.54633 0.21872 0.0
C290 C 0.75149 0.52625 0.20372 0.0
C291 C 0.77413 0.57158 0.21229 0.0
C292 C 0.82774 0.60257 0.2267 0.0
C293 C 0.86041 0.58953 0.22977 0.0
C294 C 0.69388 0.49188 0.18887 0.0
C295 C 0.85353 0.65126 0.23618 0.0
C296 C 0.74484 0.62859 0.1672 0.0
C297 C 0.70862 0.63168 0.18215 0.0
C298 C 0.76474 0.60768 0.1765 0.0
C299 C 0.74815 0.5895 0.20147 0.0
C300 C 0.71069 0.59173 0.21648 0.0
C301 C 0.69181 0.61338 0.20673 0.0
C302 C 0.80513 0.60648 0.15995 0.0
C303 C 0.69161 0.57218 0.24299 0.0
H304 H 0.76958 0.48044 0.19878 0.0
H305 H 0.90335 0.61473 0.23878 0.0
H306 H 0.66274 0.49412 0.19805 0.0
H307 H 0.69699 0.49939 0.16775 0.0
H308 H 0.67765 0.45632 0.18868 0.0
H309 H 0.8908 0.66848 0.25069 0.0
H310 H 0.86763 0.671 0.21862 0.0
H311 H 0.82188 0.65238 0.24582 0.0
H312 H 0.75919 0.6438 0.14853 0.0
H313 H 0.66387 0.61596 0.21827 0.0
H314 H 0.78837 0.57077 0.15556 0.0
H315 H 0.84671 0.62645 0.17146 0.0
H316 H 0.81222 0.62081 0.14057 0.0
H317 H 0.67705 0.53702 0.24114 0.0
H318 H 0.65674 0.57117 0.25033 0.0
H319 H 0.72783 0.59339 0.25832 0.0
C320 C 0.47561 0.88627 0.48207 0.0
C321 C 0.48007 0.91398 0.46389 0.0
C322 C 0.43156 0.83856 0.47879 0.0
C323 C 0.3912 0.81782 0.4566 0.0
C324 C 0.39481 0.84565 0.43847 0.0
C325 C 0.43896 0.89336 0.44241 0.0
C326 C 0.42903 0.81026 0.49872 0.0
C327 C 0.35303 0.82487 0.41438 0.0
C328 C 0.31717 0.69483 0.42853 0.0
C329 C 0.26201 0.67134 0.43703 0.0
C330 C 0.3598 0.7422 0.43529 0.0
C331 C 0.34742 0.7669 0.4513 0.0
C332 C 0.29272 0.7431 0.46115 0.0
C333 C 0.25058 0.6956 0.45384 0.0
C334 C 0.41753 0.76608 0.42441 0.0
C335 C 0.27811 0.76809 0.4786 0.0
H336 H 0.50689 0.9018 0.49886 0.0
H337 H 0.44207 0.91437 0.4282 0.0
H338 H 0.38607 0.78742 0.50641 0.0
H339 H 0.43711 0.78811 0.48863 0.0
H340 H 0.46071 0.83183 0.51605 0.0
H341 H 0.36018 0.85126 0.4028 0.0
H342 H 0.35662 0.80237 0.40081 0.0
H343 H 0.30901 0.80325 0.42087 0.0
H344 H 0.32668 0.67622 0.41593 0.0
H345 H 0.20806 0.67785 0.46037 0.0
H346 H 0.45103 0.78571 0.44109 0.0
H347 H 0.42624 0.79092 0.41088 0.0
H348 H 0.4209 0.74172 0.41302 0.0
H349 H 0.31016 0.78946 0.49578 0.0
H350 H 0.23548 0.74425 0.48654 0.0
H351 H 0.27887 0.79145 0.46677 0.0
C352 C 0.55241 0.26117 0.80852 0.0
C353 C 0.57937 0.28999 0.83269 0.0
C354 C 0.55846 0.22871 0.80009 0.0
C355 C 0.5927 0.22514 0.81613 0.0
C356 C 0.61862 0.25314 0.841 0.0
C357 C 0.61145 0.28515 0.84906 0.0
C358 C 0.52959 0.19921 0.77356 0.0
C359 C 0.65571 0.25056 0.85857 0.0
C360 C 0.5754 0.11823 0.79765 0.0
C361 C 0.61787 0.13383 0.77956 0.0
C362 C 0.56807 0.14804 0.81073 0.0
C363 C 0.60444 0.19448 0.80571 0.0
C364 C 0.64937 0.21083 0.78861 0.0
C365 C 0.65534 0.18026 0.77567 0.0
C366 C 0.51958 0.12929 0.82873 0.0
C367 C 0.68953 0.26017 0.78295 0.0
H368 H 0.52689 0.26435 0.79602 0.0
H369 H 0.63262 0.30756 0.86769 0.0
H370 H 0.56204 0.20769 0.75925 0.0
H371 H 0.50405 0.16255 0.77633 0.0
H372 H 0.50136 0.204 0.7644 0.0
H373 H 0.66871 0.27168 0.87831 0.0
H374 H 0.63321 0.2146 0.86207 0.0
H375 H 0.69448 0.26273 0.84822 0.0
H376 H 0.5462 0.08227 0.80056 0.0
H377 H 0.6886 0.19243 0.76189 0.0
H378 H 0.48707 0.12883 0.81897 0.0
H379 H 0.53457 0.15158 0.8481 0.0
H380 H 0.49915 0.09395 0.8329 0.0
H381 H 0.66612 0.2674 0.7714 0.0
H382 H 0.72525 0.26832 0.77123 0.0
H383 H 0.70719 0.28341 0.80204 0.0
C384 C 0.70494 0.85456 0.53481 0.0
C385 C 0.66954 0.85718 0.51946 0.0
C386 C 0.68998 0.81219 0.53798 0.0
C387 C 0.63855 0.77145 0.52535 0.0
C388 C 0.60339 0.7739 0.50921 0.0
C389 C 0.61918 0.8167 0.50655 0.0
C390 C 0.72855 0.81097 0.55539 0.0
C391 C 0.54832 0.73122 0.49536 0.0
C392 C 0.62095 0.66347 0.51919 0.0
C393 C 0.58875 0.64222 0.54115 0.0
C394 C 0.63669 0.70524 0.51347 0.0
C395 C 0.62016 0.72621 0.53023 0.0
C396 C 0.58698 0.70448 0.55219 0.0
C397 C 0.57152 0.66264 0.5573 0.0
C398 C 0.67162 0.72722 0.48973 0.0
C399 C 0.56875 0.72585 0.57062 0.0
H400 H 0.74432 0.88571 0.5445 0.0
H401 H 0.59116 0.81831 0.49496 0.0
H402 H 0.70594 0.79225 0.57287 0.0
H403 H 0.74025 0.79224 0.5439 0.0
H404 H 0.76805 0.84579 0.56297 0.0
H405 H 0.52779 0.73916 0.48206 0.0
H406 H 0.55583 0.71009 0.48315 0.0
H407 H 0.51842 0.71018 0.51061 0.0
H408 H 0.63427 0.64773 0.50659 0.0
H409 H 0.5467 0.64622 0.57431 0.0
H410 H 0.71326 0.76083 0.49678 0.0
H411 H 0.64993 0.73371 0.47612 0.0
H412 H 0.67915 0.70566 0.47807 0.0
H413 H 0.60669 0.75961 0.58043 0.0
H414 H 0.54217 0.7041 0.58651 0.0
H415 H 0.54432 0.73191 0.55885 0.0
C416 C 0.84467 0.58751 0.81779 0.0
C417 C 0.79758 0.55993 0.83322 0.0
C418 C 0.89127 0.58846 0.81916 0.0
C419 C 0.89182 0.56181 0.83673 0.0
C420 C 0.84401 0.53342 0.85204 0.0
C421 C 0.79766 0.53257 0.84996 0.0
C422 C 0.94046 0.61867 0.80209 0.0
C423 C 0.84244 0.50476 0.87131 0.0
C424 C 0.99397 0.53607 0.83284 0.0
C425 C 1.0351 0.56744 0.85368 0.0
C426 C 0.94862 0.53515 0.82613 0.0
C427 C 0.94371 0.566 0.84074 0.0
C428 C 0.98701 0.59928 0.86075 0.0
C429 C 1.03191 0.59973 0.86679 0.0
C430 C 0.90433 0.49957 0.80432 0.0
C431 C 0.98417 0.63283 0.87707 0.0
H432 H 0.84528 0.60858 0.8046 0.0
H433 H 0.76185 0.51108 0.86203 0.0
H434 H 0.97886 0.64655 0.81517 0.0
H435 H 0.95029 0.59863 0.79052 0.0
H436 H 0.93178 0.63424 0.78779 0.0
H437 H 0.80158 0.48326 0.88108 0.0
H438 H 0.84915 0.4821 0.86058 0.0
H439 H 0.8774 0.52738 0.88719 0.0
H440 H 0.99537 0.51055 0.82282 0.0
H441 H 1.06325 0.62401 0.883 0.0
H442 H 0.89513 0.51533 0.7905 0.0
H443 H 0.86423 0.4732 0.81348 0.0
H444 H 0.91777 0.48238 0.79245 0.0
H445 H 0.97879 0.6513 0.86362 0.0
H446 H 1.02277 0.65838 0.89072 0.0
H447 H 0.94674 0.61402 0.88939 0.0
C448 C 0.26561 0.69158 0.16613 0.0
C449 C 0.25249 0.65959 0.1444 0.0
C450 C 0.31527 0.73749 0.1677 0.0
C451 C 0.35322 0.7524 0.14694 0.0
C452 C 0.33988 0.7207 0.12458 0.0
C453 C 0.28972 0.67456 0.12361 0.0
C454 C 0.32767 0.76987 0.19202 0.0
C455 C 0.37899 0.73536 0.10195 0.0
C456 C 0.45644 0.88222 0.1512 0.0
C457 C 0.50096 0.89332 0.16786 0.0
C458 C 0.40989 0.83629 0.14207 0.0
C459 C 0.40784 0.80074 0.14986 0.0
C460 C 0.45512 0.81217 0.16464 0.0
C461 C 0.50105 0.85824 0.17339 0.0
C462 C 0.36082 0.82575 0.12603 0.0
C463 C 0.45513 0.77561 0.17334 0.0
H464 H 0.23734 0.68069 0.18234 0.0
H465 H 0.27993 0.65024 0.10668 0.0
H466 H 0.36767 0.78344 0.20304 0.0
H467 H 0.33366 0.7995 0.18563 0.0
H468 H 0.29317 0.75311 0.20612 0.0
H469 H 0.36042 0.70771 0.08498 0.0
H470 H 0.38886 0.76581 0.09432 0.0
H471 H 0.41974 0.74539 0.10947 0.0
H472 H 0.45603 0.90911 0.14684 0.0
H473 H 0.53586 0.8667 0.18587 0.0
H474 H 0.32566 0.81381 0.13931 0.0
H475 H 0.34447 0.79793 0.10947 0.0
H476 H 0.37298 0.85633 0.1174 0.0
H477 H 0.42531 0.75885 0.18945 0.0
H478 H 0.49788 0.7899 0.1812 0.0
H479 H 0.44037 0.74879 0.15637 0.0
C480 C 0.60421 0.30136 0.45255 0.0
C481 C 0.57519 0.26466 0.46811 0.0
C482 C 0.61347 0.3417 0.46121 0.0
C483 C 0.59261 0.34501 0.48582 0.0
C484 C 0.56195 0.30749 0.50118 0.0
C485 C 0.55385 0.2679 0.49219 0.0
C486 C 0.64673 0.38115 0.44444 0.0
C487 C 0.53841 0.30939 0.52737 0.0
C488 C 0.6564 0.45708 0.52807 0.0
C489 C 0.61547 0.46147 0.52347 0.0
C490 C 0.65142 0.42083 0.51457 0.0
C491 C 0.60404 0.38798 0.49625 0.0
C492 C 0.56433 0.39374 0.4904 0.0
C493 C 0.57066 0.43059 0.50403 0.0
C494 C 0.69511 0.41627 0.5211 0.0
C495 C 0.51312 0.35936 0.4711 0.0
H496 H 0.62106 0.29898 0.43401 0.0
H497 H 0.53074 0.2393 0.50405 0.0
H498 H 0.62216 0.39204 0.43994 0.0
H499 H 0.68664 0.41091 0.4559 0.0
H500 H 0.65759 0.37231 0.42519 0.0
H501 H 0.51362 0.27659 0.53633 0.0
H502 H 0.57364 0.33694 0.54206 0.0
H503 H 0.51058 0.3177 0.52415 0.0
H504 H 0.69145 0.48127 0.54288 0.0
H505 H 0.53874 0.43374 0.50058 0.0
H506 H 0.70949 0.40967 0.50237 0.0
H507 H 0.67583 0.38662 0.53264 0.0
H508 H 0.7327 0.44737 0.53321 0.0
H509 H 0.52574 0.35163 0.45213 0.0
H510 H 0.4902 0.37161 0.46627 0.0
H511 H 0.4834 0.32684 0.48015 0.0
C512 C 0.46188 0.52888 0.85426 0.0
C513 C 0.51003 0.55972 0.84016 0.0
C514 C 0.41757 0.5307 0.85651 0.0
C515 C 0.42073 0.56416 0.84438 0.0
C516 C 0.46867 0.59481 0.82966 0.0
C517 C 0.51241 0.59226 0.82776 0.0
C518 C 0.36787 0.49739 0.87254 0.0
C519 C 0.47461 0.63127 0.81643 0.0
C520 C 0.28572 0.55095 0.83726 0.0
C521 C 0.29336 0.57956 0.85979 0.0
C522 C 0.32679 0.54583 0.83174 0.0
C523 C 0.37668 0.56969 0.84915 0.0
C524 C 0.38438 0.59879 0.87173 0.0
C525 C 0.34304 0.6033 0.87667 0.0
C526 C 0.31665 0.51461 0.80738 0.0
C527 C 0.43627 0.62501 0.891 0.0
H528 H 0.45898 0.50343 0.86392 0.0
H529 H 0.54894 0.61631 0.81676 0.0
H530 H 0.36727 0.51629 0.89053 0.0
H531 H 0.32745 0.47933 0.86037 0.0
H532 H 0.36957 0.47155 0.87927 0.0
H533 H 0.51115 0.64942 0.80352 0.0
H534 H 0.43536 0.61596 0.80399 0.0
H535 H 0.48071 0.65679 0.83209 0.0
H536 H 0.2476 0.53232 0.82408 0.0
H537 H 0.34952 0.62545 0.89417 0.0
H538 H 0.31428 0.48656 0.81373 0.0
H539 H 0.35275 0.53385 0.79432 0.0
H540 H 0.27684 0.49935 0.79541 0.0
H541 H 0.43834 0.60081 0.90005 0.0
H542 H 0.43641 0.64662 0.90746 0.0
H543 H 0.47525 0.64736 0.88005 0.0
C544 C 0.89662 0.36317 0.15214 0.0
C545 C 0.95005 0.37513 0.15055 0.0
C546 C 0.848 0.31803 0.1551 0.0
C547 C 0.85324 0.2844 0.15752 0.0
C548 C 0.90715 0.29631 0.15571 0.0
C549 C 0.95473 0.34136 0.15181 0.0
C550 C 0.79117 0.30655 0.15616 0.0
C551 C 0.91505 0.26204 0.15909 0.0
C552 C 0.74188 0.18787 0.19748 0.0
C553 C 0.70749 0.1511 0.17734 0.0
C554 C 0.79016 0.23092 0.19131 0.0
C555 C 0.8033 0.23797 0.16415 0.0
C556 C 0.76832 0.20095 0.14362 0.0
C557 C 0.72123 0.1576 0.15052 0.0
C558 C 0.82711 0.26887 0.21394 0.0
C559 C 0.77989 0.20745 0.11438 0.0
H560 H 0.89279 0.38912 0.1509 0.0
H561 H 0.99609 0.35061 0.15078 0.0
H562 H 0.75931 0.27561 0.14202 0.0
H563 H 0.77589 0.29873 0.17664 0.0
H564 H 0.79328 0.33511 0.15106 0.0
H565 H 0.9592 0.27612 0.15601 0.0
H566 H 0.9046 0.25144 0.17964 0.0
H567 H 0.88569 0.23082 0.14471 0.0
H568 H 0.73135 0.1827 0.21826 0.0
H569 H 0.69431 0.12924 0.13492 0.0
H570 H 0.82645 0.29706 0.2121 0.0
H571 H 0.87177 0.28327 0.21272 0.0
H572 H 0.81302 0.25696 0.23404 0.0
H573 H 0.77863 0.23412 0.1089 0.0
H574 H 0.7486 0.17539 0.10084 0.0
H575 H 0.82302 0.21965 0.11086 0.0
C576 C 1.07475 0.56596 0.06509 0.0
C577 C 1.06612 0.53075 0.07725 0.0
C578 C 1.08015 0.5678 0.03727 0.0
C579 C 1.07775 0.534 0.02136 0.0
C580 C 1.06877 0.49825 0.03357 0.0
C581 C 1.06224 0.49672 0.06132 0.0
C582 C 1.08861 0.60599 0.02492 0.0
C583 C 1.06668 0.46191 0.01738 0.0
C584 C 1.04261 0.51619 0.94629 0.0
C585 C 0.09675 0.5431 0.93618 0.0
C586 C 1.03582 0.51277 0.97391 0.0
C587 C 1.08424 0.53595 0.99191 0.0
C588 C 0.13887 0.56182 0.98183 0.0
C589 C 0.14452 0.56542 0.95414 0.0
C590 C 0.97686 0.48516 0.98389 0.0
C591 C 0.19146 0.58641 0.00038 0.0
H592 H 1.07756 0.59225 0.07735 0.0
H593 H 1.0544 0.46896 0.07058 0.0
H594 H 0.12979 0.62685 0.01545 0.0
H595 H 1.05482 0.5915 0.00883 0.0
H596 H 1.088 0.62886 0.03996 0.0
H597 H 1.06109 0.43724 0.03008 0.0
H598 H 1.03117 0.4427 0.00169 0.0
H599 H 0.10643 0.47814 0.00693 0.0
H600 H 1.00531 0.49797 0.93258 0.0
H601 H 0.18657 0.58672 0.94666 0.0
H602 H 0.97389 0.50758 -0.00204 0.0
H603 H 0.9679 0.45792 -0.0048 0.0
H604 H 0.94357 0.46899 0.96724 0.0
H605 H 0.19665 0.61328 0.0143 0.0
H606 H 0.23045 0.60272 0.98922 0.0
H607 H 0.18721 0.56211 0.01286 0.0
C608 C 0.61368 0.0388 0.38617 0.0
C609 C 0.63382 0.0203 0.39886 0.0
C610 C 0.60538 0.03279 0.35805 0.0
C611 C 0.61623 1.00671 0.3424 0.0
C612 C 0.63511 0.98689 0.35525 0.0
C613 C 0.64434 0.99441 0.38335 0.0
C614 C 0.58627 0.05521 0.34509 0.0
C615 C 0.64585 0.95797 0.33932 0.0
C616 C 0.54959 0.96065 0.2709 0.0
C617 C 0.59576 0.99134 0.25582 0.0
C618 C 0.55584 0.96476 0.29904 0.0
C619 C 0.60919 1.00109 0.31254 0.0
C620 C 0.65592 0.03224 0.29754 0.0
C621 C 0.64884 0.02663 0.26939 0.0
C622 C 0.50525 0.93038 0.31433 0.0
C623 C 0.71334 0.07179 0.31124 0.0
H624 H 0.60573 0.0589 0.39818 0.0
H625 H 0.65957 0.97983 0.39322 0.0
H626 H 0.61861 0.07947 0.33157 0.0
H627 H 0.54622 0.02905 0.33255 0.0
H628 H 0.57937 0.07415 0.36014 0.0
H629 H 0.65761 0.94311 0.35246 0.0
H630 H 0.60742 0.92966 0.32638 0.0
H631 H 0.68061 0.97898 0.32585 0.0
H632 H 0.50815 0.93374 0.26078 0.0
H633 H 0.68511 0.05 0.25801 0.0
H634 H 0.49416 0.94787 0.32783 0.0
H635 H 0.51578 0.91442 0.32718 0.0
H636 H 0.46741 0.90289 0.30075 0.0
H637 H 0.70949 0.09328 0.32571 0.0
H638 H 0.74495 0.09373 0.29671 0.0
H639 H 0.72967 0.05877 0.32287 0.0
C640 C 0.569 0.50776 0.74311 0.0
C641 C 0.61587 0.51977 0.75797 0.0
C642 C 0.5704 0.51058 0.71534 0.0
C643 C 0.61915 0.52422 0.7021 0.0
C644 C 0.6665 0.5361 0.71709 0.0
C645 C 0.66464 0.5345 0.74499 0.0
C646 C 0.51981 0.49908 0.7002 0.0
C647 C 0.71854 0.54948 0.70358 0.0
C648 C 0.5959 0.48533 0.62727 0.0
C649 C 0.61885 0.52579 0.61604 0.0
C650 C 0.59716 0.4847 0.6552 0.0
C651 C 0.62003 0.52507 0.67247 0.0
C652 C 0.64285 0.56593 0.66142 0.0
C653 C 0.64293 0.56601 0.63339 0.0
C654 C 0.57362 0.44067 0.66623 0.0
C655 C 0.66643 0.60943 0.67921 0.0
H656 H 0.53153 0.49684 0.7533 0.0
H657 H 0.70081 0.54361 0.75656 0.0
H658 H 0.53344 0.52797 0.68906 0.0
H659 H 0.50072 0.46879 0.68515 0.0
H660 H 0.48663 0.49164 0.71374 0.0
H661 H 0.75149 0.55729 0.71811 0.0
H662 H 0.70651 0.52126 0.68826 0.0
H663 H 0.73726 0.57994 0.69295 0.0
H664 H 0.576 0.45373 0.61428 0.0
H665 H 0.66194 0.59775 0.62513 0.0
H666 H 0.53589 0.42847 0.67754 0.0
H667 H 0.60563 0.44662 0.6805 0.0
H668 H 0.56108 0.41318 0.65012 0.0
H669 H 0.63347 0.60332 0.69239 0.0
H670 H 0.68113 0.638 0.66745 0.0
H671 H 0.70258 0.62014 0.6925 0.0
C672 C 0.65146 0.08211 0.55809 0.0
C673 C 0.6021 0.0706 0.54637 0.0
C674 C 0.6573 0.08185 0.58582 0.0
C675 C 0.61387 0.07203 0.60231 0.0
C676 C 0.56469 0.06178 0.59064 0.0
C677 C 0.55901 0.06047 0.56272 0.0
C678 C 0.70959 0.09159 0.59737 0.0
C679 C 0.51823 0.05251 0.60765 0.0
C680 C 0.59714 0.0316 0.67085 0.0
C681 C 0.62428 0.07234 0.6882 0.0
C682 C 0.59546 0.03136 0.64283 0.0
C683 C 0.61966 0.07252 0.63181 0.0
C684 C 0.64733 0.11378 0.64906 0.0
C685 C 0.65022 0.11334 0.67695 0.0
C686 C 0.5669 0.98686 0.62504 0.0
C687 C 0.67262 0.15823 0.63809 0.0
H688 H 0.68537 0.09094 0.54556 0.0
H689 H 0.52106 0.05208 0.55374 0.0
H690 H 0.73407 0.1232 0.61176 0.0
H691 H 0.69713 0.06321 0.6087 0.0
H692 H 0.73774 0.09586 0.58156 0.0
H693 H 0.48389 0.04703 0.59558 0.0
H694 H 0.49934 0.02171 0.61797 0.0
H695 H 0.53617 0.08169 0.62346 0.0
H696 H 0.57603 0.99949 0.67908 0.0
H697 H 0.67261 0.14528 0.68995 0.0
H698 H 0.59542 0.99137 0.6094 0.0
H699 H 0.52799 0.97629 0.61451 0.0
H700 H 0.55494 0.95882 0.6366 0.0
H701 H 0.70526 0.16663 0.62395 0.0
H702 H 0.69241 0.18731 0.65422 0.0
H703 H 0.63912 0.15464 0.62661 0.0
C704 C 0.6427 0.57268 0.92238 0.0
C705 C 0.69412 0.59908 0.90996 0.0
C706 C 0.64189 0.5725 0.95035 0.0
C707 C 0.69381 0.599 0.96621 0.0
C708 C 0.74586 0.62483 0.95368 0.0
C709 C 0.7454 0.62472 0.92565 0.0
C710 C 0.58549 0.54463 0.96299 0.0
C711 C 0.80193 0.65299 0.96993 0.0
C712 C 0.68497 0.6312 0.03872 0.0
C713 C 0.67662 0.59646 0.05137 0.0
C714 C 0.69307 0.6336 0.01114 0.0
C715 C 0.69319 0.60064 -0.00405 0.0
C716 C 0.68803 0.56709 0.00892 0.0
C717 C 0.67951 0.56526 0.0365 0.0
C718 C 0.6981 0.66974 -0.00201 0.0
C719 C 0.68871 0.53175 0.99346 0.0
H720 H 0.60299 0.55271 0.91025 0.0
H721 H 0.78521 0.64489 0.91602 0.0
H722 H 0.58133 0.5199 0.97499 0.0
H723 H 0.58309 0.56749 0.97694 0.0
H724 H 0.549 0.52538 0.94777 0.0
H725 H 0.83848 0.66939 0.95701 0.0
H726 H 0.80745 0.68015 0.9837 0.0
H727 H 0.80263 0.63115 0.98257 0.0
H728 H 0.68198 0.65498 0.05007 0.0
H729 H 0.67337 0.53854 0.04633 0.0
H730 H 0.66006 0.65317 0.9842 0.0
H731 H 0.7356 0.68828 0.98573 0.0
H732 H 0.70186 0.69501 0.01293 0.0
H733 H 0.64985 0.50807 0.97976 0.0
H734 H 0.69048 0.5113 0.00695 0.0
H735 H 0.72563 0.54846 0.98082 0.0
C736 C 0.15486 0.55132 0.22909 0.0
C737 C 0.14488 0.51326 0.21494 0.0
C738 C 0.15916 0.55758 0.25722 0.0
C739 C 0.15323 0.52489 0.27158 0.0
C740 C 0.14327 0.48637 0.25741 0.0
C741 C 0.13923 0.48099 0.22915 0.0
C742 C 0.16971 0.5991 0.27154 0.0
C743 C 0.13646 0.45075 0.27212 0.0
C744 C 0.21291 0.56691 0.34411 0.0
C745 C 0.16435 0.55128 0.3577 0.0
C746 C 0.20963 0.55711 0.31612 0.0
C747 C 0.15649 0.53102 0.30143 0.0
C748 C 0.10706 0.51395 0.31512 0.0
C749 C 0.11161 0.52439 0.34308 0.0
C750 C 0.26327 0.57595 0.30218 0.0
C751 C 1.04967 0.48615 0.30013 0.0
H752 H 0.1592 0.57635 0.21816 0.0
H753 H 0.1314 0.45151 0.21819 0.0
H754 H 0.13407 0.58816 0.28424 0.0
H755 H 0.20885 0.61935 0.28507 0.0
H756 H 0.17426 0.62165 0.25735 0.0
H757 H 0.12987 0.42323 0.25816 0.0
H758 H 0.17462 0.46705 0.28575 0.0
H759 H 0.0997 0.43503 0.28481 0.0
H760 H 0.25364 0.58716 0.35535 0.0
H761 H 1.074 0.51269 0.35338 0.0
H762 H 0.2725 0.60139 0.28902 0.0
H763 H 0.25771 0.54816 0.28914 0.0
H764 H 0.30047 0.59279 0.31665 0.0
H765 H 1.04936 0.50787 0.28716 0.0
H766 H 1.01482 0.47225 0.31393 0.0
H767 H 1.04093 0.45724 0.28679 0.0
loop_
_geom_bond_atom_site_label_1
_geom_bond_atom_site_label_2
_geom_bond_distance
_geom_bond_site_symmetry_2
_ccdc_geom_bond_type
Sm0 C2 2.846 . S
Sm0 O20 2.543 . S
Sm0 O21 2.450 . S
Sm0 O22 2.681 . S
Sm0 O23 2.464 . S
Sm0 O24 2.396 . S
Sm0 O28 2.386 . S
Sm0 O31 2.408 . S
Sm1 C11 2.846 1_455 S
Sm1 O22 2.386 . S
Sm1 O25 2.408 . S
Sm1 O26 2.543 1_455 S
Sm1 O27 2.450 1_455 S
Sm1 O28 2.681 . S
Sm1 O29 2.464 . S
Sm1 O30 2.396 1_455 S
C2 Sm0 2.846 . S
C2 C3 1.506 . S
C2 O20 1.261 . S
C2 O21 1.242 . S
C3 C2 1.506 . S
C3 C4 1.358 . S
C3 C8 1.382 . S
C4 C3 1.358 . S
C4 C5 1.385 . S
C4 H32 0.930 . S
C5 C4 1.385 . S
C5 C6 1.395 . S
C5 H33 0.929 . S
C6 C5 1.395 . S
C6 C7 1.335 . S
C7 C6 1.335 . S
C7 C8 1.398 . S
C7 H34 0.930 . S
C8 C3 1.382 . S
C8 C7 1.398 . S
C8 H35 0.929 . S
C9 O22 1.271 . S
C9 O23 1.251 . S
C10 O24 1.252 . S
C10 O25 1.272 . S
C11 Sm1 2.846 1_655 S
C11 C12 1.506 . S
C11 O26 1.261 . S
C11 O27 1.242 . S
C12 C11 1.506 . S
C12 C13 1.358 . S
C12 C17 1.382 . S
C13 C12 1.358 . S
C13 C14 1.385 . S
C13 H36 0.930 . S
C14 C13 1.385 . S
C14 C15 1.395 . S
C14 H37 0.929 . S
C15 C14 1.395 . S
C15 C16 1.335 . S
C16 C15 1.335 . S
C16 C17 1.398 . S
C16 H38 0.930 . S
C17 C12 1.382 . S
C17 C16 1.398 . S
C17 H39 0.929 . S
C18 O28 1.271 . S
C18 O29 1.251 . S
C19 O30 1.252 . S
C19 O31 1.272 1_655 S
O20 Sm0 2.543 . S
O20 C2 1.261 . S
O21 Sm0 2.450 . S
O21 C2 1.242 . S
O22 Sm0 2.681 . S
O22 Sm1 2.386 . S
O22 C9 1.271 . S
O23 Sm0 2.464 . S
O23 C9 1.251 . S
O24 Sm0 2.396 . S
O24 C10 1.252 . S
O25 Sm1 2.408 . S
O25 C10 1.272 . S
O26 Sm1 2.543 1_655 S
O26 C11 1.261 . S
O27 Sm1 2.450 1_655 S
O27 C11 1.242 . S
O28 Sm0 2.386 . S
O28 Sm1 2.681 . S
O28 C18 1.271 . S
O29 Sm1 2.464 . S
O29 C18 1.251 . S
O30 Sm1 2.396 1_655 S
O30 C19 1.252 . S
O31 Sm0 2.408 . S
O31 C19 1.272 1_455 S
H32 C4 0.930 . S
H33 C5 0.929 . S
H34 C7 0.930 . S
H35 C8 0.929 . S
H36 C13 0.930 . S
H37 C14 0.929 . S
H38 C16 0.930 . S
H39 C17 0.929 . S
Sm40 C42 2.846 1_545 S
Sm40 O60 2.543 1_545 S
Sm40 O61 2.450 1_545 S
Sm40 O62 2.681 . S
Sm40 O63 2.464 . S
Sm40 O64 2.396 1_545 S
Sm40 O68 2.386 . S
Sm40 O71 2.408 . S
Sm41 C51 2.846 . S
Sm41 O62 2.386 . S
Sm41 O65 2.408 1_545 S
Sm41 O66 2.543 . S
Sm41 O67 2.450 . S
Sm41 O68 2.681 . S
Sm41 O69 2.464 . S
Sm41 O70 2.396 . S
C42 Sm40 2.846 1_565 S
C42 C43 1.506 . S
C42 O60 1.261 . S
C42 O61 1.242 . S
C43 C42 1.506 . S
C43 C44 1.358 . S
C43 C48 1.382 . S
C44 C43 1.358 . S
C44 C45 1.385 . S
C44 H72 0.930 . S
C45 C44 1.385 . S
C45 C46 1.395 . S
C45 H73 0.929 . S
C46 C45 1.395 . S
C46 C47 1.335 . S
C47 C46 1.335 . S
C47 C48 1.398 . S
C47 H74 0.930 . S
C48 C43 1.382 . S
C48 C47 1.398 . S
C48 H75 0.929 . S
C49 O62 1.271 . S
C49 O63 1.251 . S
C50 O64 1.252 . S
C50 O65 1.272 . S
C51 Sm41 2.846 . S
C51 C52 1.506 . S
C51 O66 1.261 . S
C51 O67 1.242 . S
C52 C51 1.506 . S
C52 C53 1.358 . S
C52 C57 1.382 . S
C53 C52 1.358 . S
C53 C54 1.385 . S
C53 H76 0.930 . S
C54 C53 1.385 . S
C54 C55 1.395 . S
C54 H77 0.929 . S
C55 C54 1.395 . S
C55 C56 1.335 . S
C56 C55 1.335 . S
C56 C57 1.398 . S
C56 H78 0.930 . S
C57 C52 1.382 . S
C57 C56 1.398 . S
C57 H79 0.929 . S
C58 O68 1.271 . S
C58 O69 1.251 . S
C59 O70 1.252 . S
C59 O71 1.272 . S
O60 Sm40 2.543 1_565 S
O60 C42 1.261 . S
O61 Sm40 2.450 1_565 S
O61 C42 1.242 . S
O62 Sm40 2.681 . S
O62 Sm41 2.386 . S
O62 C49 1.271 . S
O63 Sm40 2.464 . S
O63 C49 1.251 . S
O64 Sm40 2.396 1_565 S
O64 C50 1.252 . S
O65 Sm41 2.408 1_565 S
O65 C50 1.272 . S
O66 Sm41 2.543 . S
O66 C51 1.261 . S
O67 Sm41 2.450 . S
O67 C51 1.242 . S
O68 Sm40 2.386 . S
O68 Sm41 2.681 . S
O68 C58 1.271 . S
O69 Sm41 2.464 . S
O69 C58 1.251 . S
O70 Sm41 2.396 . S
O70 C59 1.252 . S
O71 Sm40 2.408 . S
O71 C59 1.272 . S
H72 C44 0.930 . S
H73 C45 0.929 . S
H74 C47 0.930 . S
H75 C48 0.929 . S
H76 C53 0.930 . S
H77 C54 0.929 . S
H78 C56 0.930 . S
H79 C57 0.929 . S
Sm80 C82 2.846 . S
Sm80 O100 2.543 . S
Sm80 O101 2.450 . S
Sm80 O102 2.681 . S
Sm80 O103 2.464 . S
Sm80 O104 2.396 . S
Sm80 O108 2.386 . S
Sm80 O111 2.408 . S
Sm81 C91 2.846 . S
Sm81 O102 2.386 . S
Sm81 O105 2.408 . S
Sm81 O106 2.543 . S
Sm81 O107 2.450 . S
Sm81 O108 2.681 . S
Sm81 O109 2.464 . S
Sm81 O110 2.396 . S
C82 Sm80 2.846 . S
C82 C83 1.506 . S
C82 O100 1.261 . S
C82 O101 1.242 . S
C83 C82 1.506 . S
C83 C84 1.358 . S
C83 C88 1.382 . S
C84 C83 1.358 . S
C84 C85 1.385 . S
C84 H112 0.930 . S
C85 C84 1.385 . S
C85 C86 1.395 . S
C85 H113 0.929 . S
C86 C85 1.395 . S
C86 C87 1.335 . S
C87 C86 1.335 . S
C87 C88 1.398 . S
C87 H114 0.930 . S
C88 C83 1.382 . S
C88 C87 1.398 . S
C88 H115 0.929 . S
C89 O102 1.271 . S
C89 O103 1.251 . S
C90 O104 1.252 . S
C90 O105 1.272 . S
C91 Sm81 2.846 . S
C91 C92 1.506 . S
C91 O106 1.261 . S
C91 O107 1.242 . S
C92 C91 1.506 . S
C92 C93 1.358 . S
C92 C97 1.382 . S
C93 C92 1.358 . S
C93 C94 1.385 . S
C93 H116 0.930 . S
C94 C93 1.385 . S
C94 C95 1.395 . S
C94 H117 0.929 . S
C95 C94 1.395 . S
C95 C96 1.335 . S
C96 C95 1.335 . S
C96 C97 1.398 . S
C96 H118 0.930 . S
C97 C92 1.382 . S
C97 C96 1.398 . S
C97 H119 0.929 . S
C98 O108 1.271 . S
C98 O109 1.251 . S
C99 O110 1.252 . S
C99 O111 1.272 . S
O100 Sm80 2.543 . S
O100 C82 1.261 . S
O101 Sm80 2.450 . S
O101 C82 1.242 . S
O102 Sm80 2.681 . S
O102 Sm81 2.386 . S
O102 C89 1.271 . S
O103 Sm80 2.464 . S
O103 C89 1.251 . S
O104 Sm80 2.396 . S
O104 C90 1.252 . S
O105 Sm81 2.408 . S
O105 C90 1.272 . S
O106 Sm81 2.543 . S
O106 C91 1.261 . S
O107 Sm81 2.450 . S
O107 C91 1.242 . S
O108 Sm80 2.386 . S
O108 Sm81 2.681 . S
O108 C98 1.271 . S
O109 Sm81 2.464 . S
O109 C98 1.251 . S
O110 Sm81 2.396 . S
O110 C99 1.252 . S
O111 Sm80 2.408 . S
O111 C99 1.272 . S
H112 C84 0.930 . S
H113 C85 0.929 . S
H114 C87 0.930 . S
H115 C88 0.929 . S
H116 C93 0.930 . S
H117 C94 0.929 . S
H118 C96 0.930 . S
H119 C97 0.929 . S
H120 C125 0.930 . S
H121 C128 0.930 . S
H122 C130 0.930 1_565 S
H123 C124 1.016 . S
C124 H123 1.016 . S
C124 N131 1.286 . S
C125 H120 0.930 . S
C125 C126 1.397 1_545 S
C125 C127 1.361 . S
C126 C125 1.397 1_565 S
C126 C130 1.390 1_565 S
C127 C125 1.361 . S
C127 C128 1.393 . S
C127 N131 1.413 . S
C128 H121 0.930 . S
C128 C127 1.393 . S
C128 C129 1.399 . S
C129 C128 1.399 . S
C129 C130 1.381 . S
C130 H122 0.930 1_545 S
C130 C126 1.390 1_545 S
C130 C129 1.381 . S
N131 C124 1.286 . S
N131 C127 1.413 . S
H132 C137 0.930 . S
H133 C140 0.930 . S
H134 C142 0.930 . S
H135 C136 1.016 . S
C136 H135 1.016 . S
C136 N143 1.286 . S
C137 H132 0.930 . S
C137 C138 1.397 . S
C137 C139 1.361 . S
C138 C137 1.397 . S
C138 C142 1.390 . S
C139 C137 1.361 . S
C139 C140 1.393 . S
C139 N143 1.413 . S
C140 H133 0.930 . S
C140 C139 1.393 . S
C140 C141 1.399 . S
C141 C140 1.399 . S
C141 C142 1.381 . S
C142 H134 0.930 . S
C142 C138 1.390 . S
C142 C141 1.381 . S
N143 C136 1.286 . S
N143 C139 1.413 . S
H144 C149 0.930 . S
H145 C152 0.930 . S
H146 C154 0.930 1_655 S
H147 C148 1.016 . S
C148 H147 1.016 . S
C148 N155 1.286 . S
C149 H144 0.930 . S
C149 C150 1.397 1_455 S
C149 C151 1.361 . S
C150 C149 1.397 1_655 S
C150 C154 1.390 1_655 S
C151 C149 1.361 . S
C151 C152 1.393 . S
C151 N155 1.413 . S
C152 H145 0.930 . S
C152 C151 1.393 . S
C152 C153 1.399 . S
C153 C152 1.399 . S
C153 C154 1.381 . S
C154 H146 0.930 1_455 S
C154 C150 1.390 1_455 S
C154 C153 1.381 . S
N155 C148 1.286 . S
N155 C151 1.413 . S
H156 C161 0.930 . S
H157 C164 0.930 . S
H158 C166 0.930 . S
H159 C160 1.016 . S
C160 H159 1.016 . S
C160 N167 1.286 . S
C161 H156 0.930 . S
C161 C162 1.397 . S
C161 C163 1.361 1_455 S
C162 C161 1.397 . S
C162 C166 1.390 . S
C163 C161 1.361 1_655 S
C163 C164 1.393 . S
C163 N167 1.413 . S
C164 H157 0.930 . S
C164 C163 1.393 . S
C164 C165 1.399 1_655 S
C165 C164 1.399 1_455 S
C165 C166 1.381 . S
C166 H158 0.930 . S
C166 C162 1.390 . S
C166 C165 1.381 . S
N167 C160 1.286 . S
N167 C163 1.413 . S
H168 C173 0.930 . S
H169 C176 0.899 1_565 S
H170 C178 0.930 . S
H171 C172 1.016 . S
C172 H171 1.016 . S
C172 N179 1.286 . S
C173 H168 0.930 . S
C173 C174 1.397 . S
C173 C175 1.361 . S
C174 C173 1.397 . S
C174 C178 1.390 . S
C175 C173 1.361 . S
C175 C176 1.394 . S
C175 N179 1.413 1_545 S
C176 H169 0.899 1_545 S
C176 C175 1.394 . S
C176 C177 1.429 . S
C177 C176 1.429 . S
C177 C178 1.381 . S
C178 H170 0.930 . S
C178 C174 1.390 . S
C178 C177 1.381 . S
N179 C172 1.286 . S
N179 C175 1.413 1_565 S
H180 C185 0.930 . S
H181 C188 0.930 . S
H182 C190 0.930 . S
H183 C184 1.016 . S
C184 H183 1.016 . S
C184 N191 1.286 . S
C185 H180 0.930 . S
C185 C186 1.397 . S
C185 C187 1.361 . S
C186 C185 1.397 . S
C186 C190 1.390 . S
C187 C185 1.361 . S
C187 C188 1.393 . S
C187 N191 1.413 . S
C188 H181 0.930 . S
C188 C187 1.393 . S
C188 C189 1.399 . S
C189 C188 1.399 . S
C189 C190 1.381 . S
C190 H182 0.930 . S
C190 C186 1.390 . S
C190 C189 1.381 . S
N191 C184 1.286 . S
N191 C187 1.413 . S
C192 C193 1.391 . S
C192 C194 1.394 . S
C192 H208 0.931 . S
C193 C192 1.391 . S
C193 C197 1.376 . S
C194 C192 1.394 . S
C194 C195 1.369 . S
C194 C198 1.531 . S
C195 C194 1.369 . S
C195 C196 1.410 . S
C195 C203 1.503 . S
C196 C195 1.410 . S
C196 C197 1.392 . S
C196 C199 1.511 . S
C197 C193 1.376 . S
C197 C196 1.392 . S
C197 H209 0.929 . S
C198 C194 1.531 . S
C198 H210 0.960 . S
C198 H211 0.962 . S
C198 H212 0.960 . S
C199 C196 1.511 . S
C199 H213 0.961 . S
C199 H214 0.961 . S
C199 H215 0.961 . S
C200 C201 1.370 . S
C200 C202 1.363 . S
C200 H216 0.931 . S
C201 C200 1.370 . S
C201 C205 1.408 . S
C202 C200 1.363 . S
C202 C203 1.370 . S
C202 C206 1.524 . S
C203 C195 1.503 . S
C203 C202 1.370 . S
C203 C204 1.403 . S
C204 C203 1.403 . S
C204 C205 1.404 . S
C204 C207 1.539 . S
C205 C201 1.408 . S
C205 C204 1.404 . S
C205 H217 0.930 . S
C206 C202 1.524 . S
C206 H218 0.956 . S
C206 H219 0.961 . S
C206 H220 0.961 . S
C207 C204 1.539 . S
C207 H221 0.958 . S
C207 H222 0.961 . S
C207 H223 0.960 . S
H208 C192 0.931 . S
H209 C197 0.929 . S
H210 C198 0.960 . S
H211 C198 0.962 . S
H212 C198 0.960 . S
H213 C199 0.961 . S
H214 C199 0.961 . S
H215 C199 0.961 . S
H216 C200 0.931 . S
H217 C205 0.930 . S
H218 C206 0.956 . S
H219 C206 0.961 . S
H220 C206 0.961 . S
H221 C207 0.958 . S
H222 C207 0.961 . S
H223 C207 0.960 . S
C224 C225 1.391 . S
C224 C226 1.394 . S
C224 H240 0.931 . S
C225 C224 1.391 . S
C225 C229 1.376 . S
C226 C224 1.394 . S
C226 C227 1.369 . S
C226 C230 1.531 . S
C227 C226 1.369 . S
C227 C228 1.410 . S
C227 C235 1.503 . S
C228 C227 1.410 . S
C228 C229 1.392 . S
C228 C231 1.511 . S
C229 C225 1.376 . S
C229 C228 1.392 . S
C229 H241 0.929 . S
C230 C226 1.531 . S
C230 H242 0.960 . S
C230 H243 0.962 . S
C230 H244 0.960 . S
C231 C228 1.511 . S
C231 H245 0.961 . S
C231 H246 0.961 . S
C231 H247 0.961 . S
C232 C233 1.370 . S
C232 C234 1.363 . S
C232 H248 0.931 . S
C233 C232 1.370 . S
C233 C237 1.408 . S
C234 C232 1.363 . S
C234 C235 1.370 . S
C234 C238 1.524 . S
C235 C227 1.503 . S
C235 C234 1.370 . S
C235 C236 1.403 . S
C236 C235 1.403 . S
C236 C237 1.404 . S
C236 C239 1.539 . S
C237 C233 1.408 . S
C237 C236 1.404 . S
C237 H249 0.930 . S
C238 C234 1.524 . S
C238 H250 0.956 . S
C238 H251 0.961 . S
C238 H252 0.961 . S
C239 C236 1.539 . S
C239 H253 0.958 . S
C239 H254 0.961 . S
C239 H255 0.960 . S
H240 C224 0.931 . S
H241 C229 0.929 . S
H242 C230 0.960 . S
H243 C230 0.962 . S
H244 C230 0.960 . S
H245 C231 0.961 . S
H246 C231 0.961 . S
H247 C231 0.961 . S
H248 C232 0.931 . S
H249 C237 0.930 . S
H250 C238 0.956 . S
H251 C238 0.961 . S
H252 C238 0.961 . S
H253 C239 0.958 . S
H254 C239 0.961 . S
H255 C239 0.960 . S
C256 C257 1.391 . S
C256 C258 1.394 . S
C256 H272 0.931 . S
C257 C256 1.391 . S
C257 C261 1.376 . S
C258 C256 1.394 . S
C258 C259 1.369 . S
C258 C262 1.531 . S
C259 C258 1.369 . S
C259 C260 1.410 . S
C259 C267 1.503 . S
C260 C259 1.410 . S
C260 C261 1.392 . S
C260 C263 1.511 . S
C261 C257 1.376 . S
C261 C260 1.392 . S
C261 H273 0.929 . S
C262 C258 1.531 . S
C262 H274 0.960 . S
C262 H275 0.962 . S
C262 H276 0.960 . S
C263 C260 1.511 . S
C263 H277 0.961 . S
C263 H278 0.961 . S
C263 H279 0.961 . S
C264 C265 1.370 . S
C264 C266 1.363 . S
C264 H280 0.931 . S
C265 C264 1.370 . S
C265 C269 1.408 . S
C266 C264 1.363 . S
C266 C267 1.370 . S
C266 C270 1.524 . S
C267 C259 1.503 . S
C267 C266 1.370 . S
C267 C268 1.403 . S
C268 C267 1.403 . S
C268 C269 1.404 . S
C268 C271 1.539 . S
C269 C265 1.408 . S
C269 C268 1.404 . S
C269 H281 0.930 . S
C270 C266 1.524 . S
C270 H282 0.956 . S
C270 H283 0.961 . S
C270 H284 0.961 . S
C271 C268 1.539 . S
C271 H285 0.958 . S
C271 H286 0.961 . S
C271 H287 0.960 . S
H272 C256 0.931 . S
H273 C261 0.929 . S
H274 C262 0.960 . S
H275 C262 0.962 . S
H276 C262 0.960 . S
H277 C263 0.961 . S
H278 C263 0.961 . S
H279 C263 0.961 . S
H280 C264 0.931 . S
H281 C269 0.930 . S
H282 C270 0.956 . S
H283 C270 0.961 . S
H284 C270 0.961 . S
H285 C271 0.958 . S
H286 C271 0.961 . S
H287 C271 0.960 . S
C288 C289 1.391 . S
C288 C290 1.394 . S
C288 H304 0.931 . S
C289 C288 1.391 . S
C289 C293 1.376 . S
C290 C288 1.394 . S
C290 C291 1.369 . S
C290 C294 1.531 . S
C291 C290 1.369 . S
C291 C292 1.410 . S
C291 C299 1.503 . S
C292 C291 1.410 . S
C292 C293 1.392 . S
C292 C295 1.511 . S
C293 C289 1.376 . S
C293 C292 1.392 . S
C293 H305 0.929 . S
C294 C290 1.531 . S
C294 H306 0.960 . S
C294 H307 0.962 . S
C294 H308 0.960 . S
C295 C292 1.511 . S
C295 H309 0.961 . S
C295 H310 0.961 . S
C295 H311 0.961 . S
C296 C297 1.370 . S
C296 C298 1.363 . S
C296 H312 0.931 . S
C297 C296 1.370 . S
C297 C301 1.408 . S
C298 C296 1.363 . S
C298 C299 1.370 . S
C298 C302 1.524 . S
C299 C291 1.503 . S
C299 C298 1.370 . S
C299 C300 1.403 . S
C300 C299 1.403 . S
C300 C301 1.404 . S
C300 C303 1.539 . S
C301 C297 1.408 . S
C301 C300 1.404 . S
C301 H313 0.930 . S
C302 C298 1.524 . S
C302 H314 0.956 . S
C302 H315 0.961 . S
C302 H316 0.961 . S
C303 C300 1.539 . S
C303 H317 0.958 . S
C303 H318 0.961 . S
C303 H319 0.960 . S
H304 C288 0.931 . S
H305 C293 0.929 . S
H306 C294 0.960 . S
H307 C294 0.962 . S
H308 C294 0.960 . S
H309 C295 0.961 . S
H310 C295 0.961 . S
H311 C295 0.961 . S
H312 C296 0.931 . S
H313 C301 0.930 . S
H314 C302 0.956 . S
H315 C302 0.961 . S
H316 C302 0.961 . S
H317 C303 0.958 . S
H318 C303 0.961 . S
H319 C303 0.960 . S
C320 C321 1.391 . S
C320 C322 1.394 . S
C320 H336 0.931 . S
C321 C320 1.391 . S
C321 C325 1.376 . S
C322 C320 1.394 . S
C322 C323 1.369 . S
C322 C326 1.531 . S
C323 C322 1.369 . S
C323 C324 1.410 . S
C323 C331 1.503 . S
C324 C323 1.410 . S
C324 C325 1.392 . S
C324 C327 1.511 . S
C325 C321 1.376 . S
C325 C324 1.392 . S
C325 H337 0.929 . S
C326 C322 1.531 . S
C326 H338 0.960 . S
C326 H339 0.962 . S
C326 H340 0.960 . S
C327 C324 1.511 . S
C327 H341 0.961 . S
C327 H342 0.961 . S
C327 H343 0.961 . S
C328 C329 1.370 . S
C328 C330 1.363 . S
C328 H344 0.931 . S
C329 C328 1.370 . S
C329 C333 1.408 . S
C330 C328 1.363 . S
C330 C331 1.370 . S
C330 C334 1.524 . S
C331 C323 1.503 . S
C331 C330 1.370 . S
C331 C332 1.403 . S
C332 C331 1.403 . S
C332 C333 1.404 . S
C332 C335 1.539 . S
C333 C329 1.408 . S
C333 C332 1.404 . S
C333 H345 0.930 . S
C334 C330 1.524 . S
C334 H346 0.956 . S
C334 H347 0.961 . S
C334 H348 0.961 . S
C335 C332 1.539 . S
C335 H349 0.958 . S
C335 H350 0.961 . S
C335 H351 0.960 . S
H336 C320 0.931 . S
H337 C325 0.929 . S
H338 C326 0.960 . S
H339 C326 0.962 . S
H340 C326 0.960 . S
H341 C327 0.961 . S
H342 C327 0.961 . S
H343 C327 0.961 . S
H344 C328 0.931 . S
H345 C333 0.930 . S
H346 C334 0.956 . S
H347 C334 0.961 . S
H348 C334 0.961 . S
H349 C335 0.958 . S
H350 C335 0.961 . S
H351 C335 0.960 . S
C352 C353 1.391 . S
C352 C354 1.394 . S
C352 H368 0.931 . S
C353 C352 1.391 . S
C353 C357 1.376 . S
C354 C352 1.394 . S
C354 C355 1.369 . S
C354 C358 1.531 . S
C355 C354 1.369 . S
C355 C356 1.410 . S
C355 C363 1.503 . S
C356 C355 1.410 . S
C356 C357 1.392 . S
C356 C359 1.511 . S
C357 C353 1.376 . S
C357 C356 1.392 . S
C357 H369 0.929 . S
C358 C354 1.531 . S
C358 H370 0.960 . S
C358 H371 0.962 . S
C358 H372 0.960 . S
C359 C356 1.511 . S
C359 H373 0.961 . S
C359 H374 0.961 . S
C359 H375 0.961 . S
C360 C361 1.370 . S
C360 C362 1.363 . S
C360 H376 0.931 . S
C361 C360 1.370 . S
C361 C365 1.408 . S
C362 C360 1.363 . S
C362 C363 1.370 . S
C362 C366 1.524 . S
C363 C355 1.503 . S
C363 C362 1.370 . S
C363 C364 1.403 . S
C364 C363 1.403 . S
C364 C365 1.404 . S
C364 C367 1.539 . S
C365 C361 1.408 . S
C365 C364 1.404 . S
C365 H377 0.930 . S
C366 C362 1.524 . S
C366 H378 0.956 . S
C366 H379 0.961 . S
C366 H380 0.961 . S
C367 C364 1.539 . S
C367 H381 0.958 . S
C367 H382 0.961 . S
C367 H383 0.960 . S
H368 C352 0.931 . S
H369 C357 0.929 . S
H370 C358 0.960 . S
H371 C358 0.962 . S
H372 C358 0.960 . S
H373 C359 0.961 . S
H374 C359 0.961 . S
H375 C359 0.961 . S
H376 C360 0.931 . S
H377 C365 0.930 . S
H378 C366 0.956 . S
H379 C366 0.961 . S
H380 C366 0.961 . S
H381 C367 0.958 . S
H382 C367 0.961 . S
H383 C367 0.960 . S
C384 C385 1.391 . S
C384 C386 1.394 . S
C384 H400 0.931 . S
C385 C384 1.391 . S
C385 C389 1.376 . S
C386 C384 1.394 . S
C386 C387 1.369 . S
C386 C390 1.531 . S
C387 C386 1.369 . S
C387 C388 1.410 . S
C387 C395 1.503 . S
C388 C387 1.410 . S
C388 C389 1.392 . S
C388 C391 1.511 . S
C389 C385 1.376 . S
C389 C388 1.392 . S
C389 H401 0.929 . S
C390 C386 1.531 . S
C390 H402 0.960 . S
C390 H403 0.962 . S
C390 H404 0.960 . S
C391 C388 1.511 . S
C391 H405 0.961 . S
C391 H406 0.961 . S
C391 H407 0.961 . S
C392 C393 1.370 . S
C392 C394 1.363 . S
C392 H408 0.931 . S
C393 C392 1.370 . S
C393 C397 1.408 . S
C394 C392 1.363 . S
C394 C395 1.370 . S
C394 C398 1.524 . S
C395 C387 1.503 . S
C395 C394 1.370 . S
C395 C396 1.403 . S
C396 C395 1.403 . S
C396 C397 1.404 . S
C396 C399 1.539 . S
C397 C393 1.408 . S
C397 C396 1.404 . S
C397 H409 0.930 . S
C398 C394 1.524 . S
C398 H410 0.956 . S
C398 H411 0.961 . S
C398 H412 0.961 . S
C399 C396 1.539 . S
C399 H413 0.958 . S
C399 H414 0.961 . S
C399 H415 0.960 . S
H400 C384 0.931 . S
H401 C389 0.929 . S
H402 C390 0.960 . S
H403 C390 0.962 . S
H404 C390 0.960 . S
H405 C391 0.961 . S
H406 C391 0.961 . S
H407 C391 0.961 . S
H408 C392 0.931 . S
H409 C397 0.930 . S
H410 C398 0.956 . S
H411 C398 0.961 . S
H412 C398 0.961 . S
H413 C399 0.958 . S
H414 C399 0.961 . S
H415 C399 0.960 . S
C416 C417 1.391 . S
C416 C418 1.394 . S
C416 H432 0.931 . S
C417 C416 1.391 . S
C417 C421 1.376 . S
C418 C416 1.394 . S
C418 C419 1.369 . S
C418 C422 1.531 . S
C419 C418 1.369 . S
C419 C420 1.410 . S
C419 C427 1.503 . S
C420 C419 1.410 . S
C420 C421 1.392 . S
C420 C423 1.511 . S
C421 C417 1.376 . S
C421 C420 1.392 . S
C421 H433 0.929 . S
C422 C418 1.531 . S
C422 H434 0.960 . S
C422 H435 0.962 . S
C422 H436 0.960 . S
C423 C420 1.511 . S
C423 H437 0.961 . S
C423 H438 0.961 . S
C423 H439 0.961 . S
C424 C425 1.370 . S
C424 C426 1.363 . S
C424 H440 0.931 . S
C425 C424 1.370 . S
C425 C429 1.408 . S
C426 C424 1.363 . S
C426 C427 1.370 . S
C426 C430 1.524 . S
C427 C419 1.503 . S
C427 C426 1.370 . S
C427 C428 1.403 . S
C428 C427 1.403 . S
C428 C429 1.404 . S
C428 C431 1.539 . S
C429 C425 1.408 . S
C429 C428 1.404 . S
C429 H441 0.930 . S
C430 C426 1.524 . S
C430 H442 0.956 . S
C430 H443 0.961 . S
C430 H444 0.961 . S
C431 C428 1.539 . S
C431 H445 0.958 . S
C431 H446 0.961 . S
C431 H447 0.960 . S
H432 C416 0.931 . S
H433 C421 0.929 . S
H434 C422 0.960 . S
H435 C422 0.962 . S
H436 C422 0.960 . S
H437 C423 0.961 . S
H438 C423 0.961 . S
H439 C423 0.961 . S
H440 C424 0.931 . S
H441 C429 0.930 . S
H442 C430 0.956 . S
H443 C430 0.961 . S
H444 C430 0.961 . S
H445 C431 0.958 . S
H446 C431 0.961 . S
H447 C431 0.960 . S
C448 C449 1.391 . S
C448 C450 1.394 . S
C448 H464 0.931 . S
C449 C448 1.391 . S
C449 C453 1.376 . S
C450 C448 1.394 . S
C450 C451 1.369 . S
C450 C454 1.531 . S
C451 C450 1.369 . S
C451 C452 1.410 . S
C451 C459 1.503 . S
C452 C451 1.410 . S
C452 C453 1.392 . S
C452 C455 1.511 . S
C453 C449 1.376 . S
C453 C452 1.392 . S
C453 H465 0.929 . S
C454 C450 1.531 . S
C454 H466 0.960 . S
C454 H467 0.962 . S
C454 H468 0.960 . S
C455 C452 1.511 . S
C455 H469 0.961 . S
C455 H470 0.961 . S
C455 H471 0.961 . S
C456 C457 1.370 . S
C456 C458 1.363 . S
C456 H472 0.931 . S
C457 C456 1.370 . S
C457 C461 1.408 . S
C458 C456 1.363 . S
C458 C459 1.370 . S
C458 C462 1.524 . S
C459 C451 1.503 . S
C459 C458 1.370 . S
C459 C460 1.403 . S
C460 C459 1.403 . S
C460 C461 1.404 . S
C460 C463 1.539 . S
C461 C457 1.408 . S
C461 C460 1.404 . S
C461 H473 0.930 . S
C462 C458 1.524 . S
C462 H474 0.956 . S
C462 H475 0.961 . S
C462 H476 0.961 . S
C463 C460 1.539 . S
C463 H477 0.958 . S
C463 H478 0.961 . S
C463 H479 0.960 . S
H464 C448 0.931 . S
H465 C453 0.929 . S
H466 C454 0.960 . S
H467 C454 0.962 . S
H468 C454 0.960 . S
H469 C455 0.961 . S
H470 C455 0.961 . S
H471 C455 0.961 . S
H472 C456 0.931 . S
H473 C461 0.930 . S
H474 C462 0.956 . S
H475 C462 0.961 . S
H476 C462 0.961 . S
H477 C463 0.958 . S
H478 C463 0.961 . S
H479 C463 0.960 . S
C480 C481 1.391 . S
C480 C482 1.394 . S
C480 H496 0.931 . S
C481 C480 1.391 . S
C481 C485 1.376 . S
C482 C480 1.394 . S
C482 C483 1.369 . S
C482 C486 1.531 . S
C483 C482 1.369 . S
C483 C484 1.410 . S
C483 C491 1.503 . S
C484 C483 1.410 . S
C484 C485 1.392 . S
C484 C487 1.511 . S
C485 C481 1.376 . S
C485 C484 1.392 . S
C485 H497 0.929 . S
C486 C482 1.531 . S
C486 H498 0.960 . S
C486 H499 0.962 . S
C486 H500 0.960 . S
C487 C484 1.511 . S
C487 H501 0.961 . S
C487 H502 0.961 . S
C487 H503 0.961 . S
C488 C489 1.370 . S
C488 C490 1.363 . S
C488 H504 0.931 . S
C489 C488 1.370 . S
C489 C493 1.408 . S
C490 C488 1.363 . S
C490 C491 1.370 . S
C490 C494 1.524 . S
C491 C483 1.503 . S
C491 C490 1.370 . S
C491 C492 1.403 . S
C492 C491 1.403 . S
C492 C493 1.404 . S
C492 C495 1.539 . S
C493 C489 1.408 . S
C493 C492 1.404 . S
C493 H505 0.930 . S
C494 C490 1.524 . S
C494 H506 0.956 . S
C494 H507 0.961 . S
C494 H508 0.961 . S
C495 C492 1.539 . S
C495 H509 0.958 . S
C495 H510 0.961 . S
C495 H511 0.960 . S
H496 C480 0.931 . S
H497 C485 0.929 . S
H498 C486 0.960 . S
H499 C486 0.962 . S
H500 C486 0.960 . S
H501 C487 0.961 . S
H502 C487 0.961 . S
H503 C487 0.961 . S
H504 C488 0.931 . S
H505 C493 0.930 . S
H506 C494 0.956 . S
H507 C494 0.961 . S
H508 C494 0.961 . S
H509 C495 0.958 . S
H510 C495 0.961 . S
H511 C495 0.960 . S
C512 C513 1.391 . S
C512 C514 1.394 . S
C512 H528 0.931 . S
C513 C512 1.391 . S
C513 C517 1.376 . S
C514 C512 1.394 . S
C514 C515 1.369 . S
C514 C518 1.531 . S
C515 C514 1.369 . S
C515 C516 1.410 . S
C515 C523 1.503 . S
C516 C515 1.410 . S
C516 C517 1.392 . S
C516 C519 1.511 . S
C517 C513 1.376 . S
C517 C516 1.392 . S
C517 H529 0.929 . S
C518 C514 1.531 . S
C518 H530 0.960 . S
C518 H531 0.962 . S
C518 H532 0.960 . S
C519 C516 1.511 . S
C519 H533 0.961 . S
C519 H534 0.961 . S
C519 H535 0.961 . S
C520 C521 1.370 . S
C520 C522 1.363 . S
C520 H536 0.931 . S
C521 C520 1.370 . S
C521 C525 1.408 . S
C522 C520 1.363 . S
C522 C523 1.370 . S
C522 C526 1.524 . S
C523 C515 1.503 . S
C523 C522 1.370 . S
C523 C524 1.403 . S
C524 C523 1.403 . S
C524 C525 1.404 . S
C524 C527 1.539 . S
C525 C521 1.408 . S
C525 C524 1.404 . S
C525 H537 0.930 . S
C526 C522 1.524 . S
C526 H538 0.956 . S
C526 H539 0.961 . S
C526 H540 0.961 . S
C527 C524 1.539 . S
C527 H541 0.958 . S
C527 H542 0.961 . S
C527 H543 0.960 . S
H528 C512 0.931 . S
H529 C517 0.929 . S
H530 C518 0.960 . S
H531 C518 0.962 . S
H532 C518 0.960 . S
H533 C519 0.961 . S
H534 C519 0.961 . S
H535 C519 0.961 . S
H536 C520 0.931 . S
H537 C525 0.930 . S
H538 C526 0.956 . S
H539 C526 0.961 . S
H540 C526 0.961 . S
H541 C527 0.958 . S
H542 C527 0.961 . S
H543 C527 0.960 . S
C544 C545 1.391 . S
C544 C546 1.394 . S
C544 H560 0.931 . S
C545 C544 1.391 . S
C545 C549 1.376 . S
C546 C544 1.394 . S
C546 C547 1.369 . S
C546 C550 1.531 . S
C547 C546 1.369 . S
C547 C548 1.410 . S
C547 C555 1.503 . S
C548 C547 1.410 . S
C548 C549 1.392 . S
C548 C551 1.511 . S
C549 C545 1.376 . S
C549 C548 1.392 . S
C549 H561 0.929 . S
C550 C546 1.531 . S
C550 H562 0.960 . S
C550 H563 0.962 . S
C550 H564 0.960 . S
C551 C548 1.511 . S
C551 H565 0.961 . S
C551 H566 0.961 . S
C551 H567 0.961 . S
C552 C553 1.370 . S
C552 C554 1.363 . S
C552 H568 0.931 . S
C553 C552 1.370 . S
C553 C557 1.408 . S
C554 C552 1.363 . S
C554 C555 1.370 . S
C554 C558 1.524 . S
C555 C547 1.503 . S
C555 C554 1.370 . S
C555 C556 1.403 . S
C556 C555 1.403 . S
C556 C557 1.404 . S
C556 C559 1.539 . S
C557 C553 1.408 . S
C557 C556 1.404 . S
C557 H569 0.930 . S
C558 C554 1.524 . S
C558 H570 0.956 . S
C558 H571 0.961 . S
C558 H572 0.961 . S
C559 C556 1.539 . S
C559 H573 0.958 . S
C559 H574 0.961 . S
C559 H575 0.960 . S
H560 C544 0.931 . S
H561 C549 0.929 . S
H562 C550 0.960 . S
H563 C550 0.962 . S
H564 C550 0.960 . S
H565 C551 0.961 . S
H566 C551 0.961 . S
H567 C551 0.961 . S
H568 C552 0.931 . S
H569 C557 0.930 . S
H570 C558 0.956 . S
H571 C558 0.961 . S
H572 C558 0.961 . S
H573 C559 0.958 . S
H574 C559 0.961 . S
H575 C559 0.960 . S
C576 C577 1.391 . S
C576 C578 1.394 . S
C576 H592 0.931 1_455 S
C577 C576 1.391 . S
C577 C581 1.376 . S
C578 C576 1.394 . S
C578 C579 1.369 . S
C578 C582 1.531 1_455 S
C579 C578 1.369 . S
C579 C580 1.410 . S
C579 C587 1.503 1_554 S
C580 C579 1.410 . S
C580 C581 1.392 . S
C580 C583 1.511 . S
C581 C577 1.376 . S
C581 C580 1.392 . S
C581 H593 0.929 . S
C582 C578 1.531 1_655 S
C582 H594 0.960 . S
C582 H595 0.962 . S
C582 H596 0.960 . S
C583 C580 1.511 . S
C583 H597 0.961 . S
C583 H598 0.961 . S
C583 H599 0.961 . S
C584 C585 1.370 . S
C584 C586 1.363 . S
C584 H600 0.931 . S
C585 C584 1.370 . S
C585 C589 1.408 . S
C586 C584 1.363 . S
C586 C587 1.370 . S
C586 C590 1.524 . S
C587 C579 1.503 1_556 S
C587 C586 1.370 . S
C587 C588 1.403 . S
C588 C587 1.403 . S
C588 C589 1.404 . S
C588 C591 1.539 . S
C589 C585 1.408 . S
C589 C588 1.404 . S
C589 H601 0.930 . S
C590 C586 1.524 . S
C590 H602 0.956 1_556 S
C590 H603 0.961 1_556 S
C590 H604 0.961 . S
C591 C588 1.539 . S
C591 H605 0.958 1_556 S
C591 H606 0.961 . S
C591 H607 0.960 1_556 S
H592 C576 0.931 1_655 S
H593 C581 0.929 . S
H594 C582 0.960 . S
H595 C582 0.962 . S
H596 C582 0.960 . S
H597 C583 0.961 . S
H598 C583 0.961 . S
H599 C583 0.961 . S
H600 C584 0.931 . S
H601 C589 0.930 . S
H602 C590 0.956 1_554 S
H603 C590 0.961 1_554 S
H604 C590 0.961 . S
H605 C591 0.958 1_554 S
H606 C591 0.961 . S
H607 C591 0.960 1_554 S
C608 C609 1.391 . S
C608 C610 1.394 . S
C608 H624 0.931 . S
C609 C608 1.391 . S
C609 C613 1.376 . S
C610 C608 1.394 . S
C610 C611 1.369 . S
C610 C614 1.531 . S
C611 C610 1.369 . S
C611 C612 1.410 . S
C611 C619 1.503 . S
C612 C611 1.410 . S
C612 C613 1.392 . S
C612 C615 1.511 . S
C613 C609 1.376 . S
C613 C612 1.392 . S
C613 H625 0.929 . S
C614 C610 1.531 . S
C614 H626 0.960 . S
C614 H627 0.962 . S
C614 H628 0.960 . S
C615 C612 1.511 . S
C615 H629 0.961 1_545 S
C615 H630 0.961 1_545 S
C615 H631 0.961 . S
C616 C617 1.370 . S
C616 C618 1.363 . S
C616 H632 0.931 1_545 S
C617 C616 1.370 . S
C617 C621 1.408 . S
C618 C616 1.363 . S
C618 C619 1.370 . S
C618 C622 1.524 1_545 S
C619 C611 1.503 . S
C619 C618 1.370 . S
C619 C620 1.403 . S
C620 C619 1.403 . S
C620 C621 1.404 . S
C620 C623 1.539 . S
C621 C617 1.408 . S
C621 C620 1.404 . S
C621 H633 0.930 . S
C622 C618 1.524 1_565 S
C622 H634 0.956 . S
C622 H635 0.961 . S
C622 H636 0.961 . S
C623 C620 1.539 . S
C623 H637 0.958 . S
C623 H638 0.961 . S
C623 H639 0.960 . S
H624 C608 0.931 . S
H625 C613 0.929 . S
H626 C614 0.960 . S
H627 C614 0.962 . S
H628 C614 0.960 . S
H629 C615 0.961 1_565 S
H630 C615 0.961 1_565 S
H631 C615 0.961 . S
H632 C616 0.931 1_565 S
H633 C621 0.930 . S
H634 C622 0.956 . S
H635 C622 0.961 . S
H636 C622 0.961 . S
H637 C623 0.958 . S
H638 C623 0.961 . S
H639 C623 0.960 . S
C640 C641 1.391 . S
C640 C642 1.394 . S
C640 H656 0.931 . S
C641 C640 1.391 . S
C641 C645 1.376 . S
C642 C640 1.394 . S
C642 C643 1.369 . S
C642 C646 1.531 . S
C643 C642 1.369 . S
C643 C644 1.410 . S
C643 C651 1.503 . S
C644 C643 1.410 . S
C644 C645 1.392 . S
C644 C647 1.511 . S
C645 C641 1.376 . S
C645 C644 1.392 . S
C645 H657 0.929 . S
C646 C642 1.531 . S
C646 H658 0.960 . S
C646 H659 0.962 . S
C646 H660 0.960 . S
C647 C644 1.511 . S
C647 H661 0.961 . S
C647 H662 0.961 . S
C647 H663 0.961 . S
C648 C649 1.370 . S
C648 C650 1.363 . S
C648 H664 0.931 . S
C649 C648 1.370 . S
C649 C653 1.408 . S
C650 C648 1.363 . S
C650 C651 1.370 . S
C650 C654 1.524 . S
C651 C643 1.503 . S
C651 C650 1.370 . S
C651 C652 1.403 . S
C652 C651 1.403 . S
C652 C653 1.404 . S
C652 C655 1.539 . S
C653 C649 1.408 . S
C653 C652 1.404 . S
C653 H665 0.930 . S
C654 C650 1.524 . S
C654 H666 0.956 . S
C654 H667 0.961 . S
C654 H668 0.961 . S
C655 C652 1.539 . S
C655 H669 0.958 . S
C655 H670 0.961 . S
C655 H671 0.960 . S
H656 C640 0.931 . S
H657 C645 0.929 . S
H658 C646 0.960 . S
H659 C646 0.962 . S
H660 C646 0.960 . S
H661 C647 0.961 . S
H662 C647 0.961 . S
H663 C647 0.961 . S
H664 C648 0.931 . S
H665 C653 0.930 . S
H666 C654 0.956 . S
H667 C654 0.961 . S
H668 C654 0.961 . S
H669 C655 0.958 . S
H670 C655 0.961 . S
H671 C655 0.960 . S
C672 C673 1.391 . S
C672 C674 1.394 . S
C672 H688 0.931 . S
C673 C672 1.391 . S
C673 C677 1.376 . S
C674 C672 1.394 . S
C674 C675 1.369 . S
C674 C678 1.531 . S
C675 C674 1.369 . S
C675 C676 1.410 . S
C675 C683 1.503 . S
C676 C675 1.410 . S
C676 C677 1.392 . S
C676 C679 1.511 1_545 S
C677 C673 1.376 . S
C677 C676 1.392 . S
C677 H689 0.929 1_545 S
C678 C674 1.531 . S
C678 H690 0.960 . S
C678 H691 0.962 . S
C678 H692 0.960 . S
C679 C676 1.511 1_565 S
C679 H693 0.961 . S
C679 H694 0.961 . S
C679 H695 0.961 1_565 S
C680 C681 1.370 1_565 S
C680 C682 1.363 . S
C680 H696 0.931 . S
C681 C680 1.370 1_545 S
C681 C685 1.408 . S
C682 C680 1.363 . S
C682 C683 1.370 1_565 S
C682 C686 1.524 . S
C683 C675 1.503 . S
C683 C682 1.370 1_545 S
C683 C684 1.403 . S
C684 C683 1.403 . S
C684 C685 1.404 . S
C684 C687 1.539 . S
C685 C681 1.408 . S
C685 C684 1.404 . S
C685 H697 0.930 . S
C686 C682 1.524 . S
C686 H698 0.956 . S
C686 H699 0.961 . S
C686 H700 0.961 . S
C687 C684 1.539 . S
C687 H701 0.958 . S
C687 H702 0.961 . S
C687 H703 0.960 . S
H688 C672 0.931 . S
H689 C677 0.929 1_565 S
H690 C678 0.960 . S
H691 C678 0.962 . S
H692 C678 0.960 . S
H693 C679 0.961 . S
H694 C679 0.961 . S
H695 C679 0.961 1_545 S
H696 C680 0.931 . S
H697 C685 0.930 . S
H698 C686 0.956 . S
H699 C686 0.961 . S
H700 C686 0.961 . S
H701 C687 0.958 . S
H702 C687 0.961 . S
H703 C687 0.960 . S
C704 C705 1.391 . S
C704 C706 1.394 . S
C704 H720 0.931 . S
C705 C704 1.391 . S
C705 C709 1.376 . S
C706 C704 1.394 . S
C706 C707 1.369 . S
C706 C710 1.531 . S
C707 C706 1.369 . S
C707 C708 1.410 . S
C707 C715 1.503 . S
C708 C707 1.410 . S
C708 C709 1.392 . S
C708 C711 1.511 . S
C709 C705 1.376 . S
C709 C708 1.392 . S
C709 H721 0.929 . S
C710 C706 1.531 . S
C710 H722 0.960 . S
C710 H723 0.962 . S
C710 H724 0.960 . S
C711 C708 1.511 . S
C711 H725 0.961 . S
C711 H726 0.961 . S
C711 H727 0.961 . S
C712 C713 1.370 . S
C712 C714 1.363 . S
C712 H728 0.931 . S
C713 C712 1.370 . S
C713 C717 1.408 . S
C714 C712 1.363 . S
C714 C715 1.370 1_554 S
C714 C718 1.524 1_554 S
C715 C707 1.503 . S
C715 C714 1.370 1_556 S
C715 C716 1.403 1_556 S
C716 C715 1.403 1_554 S
C716 C717 1.404 . S
C716 C719 1.539 1_554 S
C717 C713 1.408 . S
C717 C716 1.404 . S
C717 H729 0.930 . S
C718 C714 1.524 1_556 S
C718 H730 0.956 . S
C718 H731 0.961 . S
C718 H732 0.961 1_556 S
C719 C716 1.539 1_556 S
C719 H733 0.958 . S
C719 H734 0.961 1_556 S
C719 H735 0.960 . S
H720 C704 0.931 . S
H721 C709 0.929 . S
H722 C710 0.960 . S
H723 C710 0.962 . S
H724 C710 0.960 . S
H725 C711 0.961 . S
H726 C711 0.961 . S
H727 C711 0.961 . S
H728 C712 0.931 . S
H729 C717 0.930 . S
H730 C718 0.956 . S
H731 C718 0.961 . S
H732 C718 0.961 1_554 S
H733 C719 0.958 . S
H734 C719 0.961 1_554 S
H735 C719 0.960 . S
C736 C737 1.391 . S
C736 C738 1.394 . S
C736 H752 0.931 . S
C737 C736 1.391 . S
C737 C741 1.376 . S
C738 C736 1.394 . S
C738 C739 1.369 . S
C738 C742 1.531 . S
C739 C738 1.369 . S
C739 C740 1.410 . S
C739 C747 1.503 . S
C740 C739 1.410 . S
C740 C741 1.392 . S
C740 C743 1.511 1_455 S
C741 C737 1.376 . S
C741 C740 1.392 . S
C741 H753 0.929 1_455 S
C742 C738 1.531 . S
C742 H754 0.960 . S
C742 H755 0.962 . S
C742 H756 0.960 . S
C743 C740 1.511 1_655 S
C743 H757 0.961 . S
C743 H758 0.961 . S
C743 H759 0.961 . S
C744 C745 1.370 . S
C744 C746 1.363 . S
C744 H760 0.931 . S
C745 C744 1.370 . S
C745 C749 1.408 . S
C746 C744 1.363 . S
C746 C747 1.370 . S
C746 C750 1.524 . S
C747 C739 1.503 . S
C747 C746 1.370 . S
C747 C748 1.403 . S
C748 C747 1.403 . S
C748 C749 1.404 . S
C748 C751 1.539 . S
C749 C745 1.408 . S
C749 C748 1.404 . S
C749 H761 0.930 . S
C750 C746 1.524 . S
C750 H762 0.956 . S
C750 H763 0.961 . S
C750 H764 0.961 . S
C751 C748 1.539 . S
C751 H765 0.958 . S
C751 H766 0.961 . S
C751 H767 0.960 . S
H752 C736 0.931 . S
H753 C741 0.929 1_655 S
H754 C742 0.960 . S
H755 C742 0.962 . S
H756 C742 0.960 . S
H757 C743 0.961 . S
H758 C743 0.961 . S
H759 C743 0.961 . S
H760 C744 0.931 . S
H761 C749 0.930 . S
H762 C750 0.956 . S
H763 C750 0.961 . S
H764 C750 0.961 . S
H765 C751 0.958 . S
H766 C751 0.961 . S
H767 C751 0.960 . S
C193 C6 0.863 . S
C201 C186 0.838 . S
C225 C59 1.936 . S
C233 C160 1.892 . S
C257 C86 1.259 . S
C265 C172 1.262 . S
C289 C15 0.452 . S
C297 C184 0.315 . S
C329 C162 1.848 . S
C321 C50 1.871 . S
C361 C174 1.148 . S
C353 C95 1.131 . S
C385 C46 1.310 . S
C393 C136 1.284 . S
C417 C99 3.344 . S
C425 C150 3.320 . S
C449 C10 1.889 . S
C457 C126 1.867 . S
C489 C138 1.158 . S
C481 C55 1.165 . S
C521 C148 2.687 . S
C513 C90 2.778 . S
C545 C19 1.939 . S
C553 C124 1.911 . S
C585 C153 1.772 . S
C577 C18 1.664 . S
C609 C49 1.397 . S
C617 C129 1.481 . S
C641 C98 1.525 . S
C649 C141 1.532 . S
C681 C177 1.523 . S
C673 C58 1.494 . S
C713 C189 1.254 . S
C705 C89 1.240 . S
C737 C9 1.430 . S
C745 C165 1.443 . S
