# Generated by pormake.
# Topology zzz, (3,6)-cn, num edge types: 1
# Building blocks:
#     Node 0, Type 0, BuildingBlock: BETDIP_clean_linker_0, # of connection points: 3
#     Node 1, Type 0, BuildingBlock: BETDIP_clean_linker_0, # of connection points: 3
#     Node 2, Type 0, BuildingBlock: BETDIP_clean_linker_0, # of connection points: 3
#     Node 3, Type 0, BuildingBlock: BETDIP_clean_linker_0, # of connection points: 3
#     Node 4, Type 0, BuildingBlock: BETDIP_clean_linker_0, # of connection points: 3
#     Node 5, Type 0, BuildingBlock: BETDIP_clean_linker_0, # of connection points: 3
#     Node 6, Type 0, BuildingBlock: BETDIP_clean_linker_0, # of connection points: 3
#     Node 7, Type 0, BuildingBlock: BETDIP_clean_linker_0, # of connection points: 3
#     Node 8, Type 1, BuildingBlock: CUWYAW_clean_sbu_0, # of connection points: 6
#     Node 9, Type 1, BuildingBlock: CUWYAW_clean_sbu_0, # of connection points: 6
#     Node 10, Type 1, BuildingBlock: CUWYAW_clean_sbu_0, # of connection points: 6
#     Node 11, Type 1, BuildingBlock: CUWYAW_clean_sbu_0, # of connection points: 6
#     Edge 12, Type (0, 1), BuildingBlock: UVAHIK_clean_linker_0, # of connection points: 2
#     Edge 13, Type (0, 1), BuildingBlock: UVAHIK_clean_linker_0, # of connection points: 2
#     Edge 14, Type (0, 1), BuildingBlock: UVAHIK_clean_linker_0, # of connection points: 2
#     Edge 15, Type (0, 1), BuildingBlock: UVAHIK_clean_linker_0, # of connection points: 2
#     Edge 16, Type (0, 1), BuildingBlock: UVAHIK_clean_linker_0, # of connection points: 2
#     Edge 17, Type (0, 1), BuildingBlock: UVAHIK_clean_linker_0, # of connection points: 2
#     Edge 18, Type (0, 1), BuildingBlock: UVAHIK_clean_linker_0, # of connection points: 2
#     Edge 19, Type (0, 1), BuildingBlock: UVAHIK_clean_linker_0, # of connection points: 2
#     Edge 20, Type (0, 1), BuildingBlock: UVAHIK_clean_linker_0, # of connection points: 2
#     Edge 21, Type (0, 1), BuildingBlock: UVAHIK_clean_linker_0, # of connection points: 2
#     Edge 22, Type (0, 1), BuildingBlock: UVAHIK_clean_linker_0, # of connection points: 2
#     Edge 23, Type (0, 1), BuildingBlock: UVAHIK_clean_linker_0, # of connection points: 2
#     Edge 24, Type (0, 1), BuildingBlock: UVAHIK_clean_linker_0, # of connection points: 2
#     Edge 25, Type (0, 1), BuildingBlock: UVAHIK_clean_linker_0, # of connection points: 2
#     Edge 26, Type (0, 1), BuildingBlock: UVAHIK_clean_linker_0, # of connection points: 2
#     Edge 27, Type (0, 1), BuildingBlock: UVAHIK_clean_linker_0, # of connection points: 2
#     Edge 28, Type (0, 1), BuildingBlock: UVAHIK_clean_linker_0, # of connection points: 2
#     Edge 29, Type (0, 1), BuildingBlock: UVAHIK_clean_linker_0, # of connection points: 2
#     Edge 30, Type (0, 1), BuildingBlock: UVAHIK_clean_linker_0, # of connection points: 2
#     Edge 31, Type (0, 1), BuildingBlock: UVAHIK_clean_linker_0, # of connection points: 2
#     Edge 32, Type (0, 1), BuildingBlock: UVAHIK_clean_linker_0, # of connection points: 2
#     Edge 33, Type (0, 1), BuildingBlock: UVAHIK_clean_linker_0, # of connection points: 2
#     Edge 34, Type (0, 1), BuildingBlock: UVAHIK_clean_linker_0, # of connection points: 2
#     Edge 35, Type (0, 1), BuildingBlock: UVAHIK_clean_linker_0, # of connection points: 2
# Relax obj value: 0.214
# Max RMSD: 0.148
# Mean RMSD: 0.132
data_MOF--net-zzz--node1-CUWYAW_clean_sbu_0--node2-BETDIP_clean_linker_0--edge1-UVAHIK_clean_linker_0
_symmetry_space_group_name_H-M    P1
_symmetry_Int_Tables_number       1
_symmetry_cell_setting            triclinic
loop_
_symmetry_equiv_pos_as_xyz
'x, y, z'
_cell_length_a     66.880214
_cell_length_b     66.897699
_cell_length_c     18.078727
_cell_angle_alpha  90.089395
_cell_angle_beta   89.836528
_cell_angle_gamma 89.916507
loop_
_atom_site_label
_atom_site_type_symbol
_atom_site_fract_x
_atom_site_fract_y
_atom_site_fract_z
_atom_type_partial_charge
H0 H 0.75299 0.50862 0.37386 0.0
H1 H 0.74161 0.55578 0.21643 0.0
H2 H 0.7994 0.55027 0.31627 0.0
H3 H 0.7102 0.55409 0.30318 0.0
C4 C 0.70835 0.53906 0.28114 0.0
C5 C 0.75792 0.52177 0.34408 0.0
C6 C 0.77775 0.52859 0.35173 0.0
C7 C 0.7445 0.53206 0.29733 0.0
C8 C 0.75137 0.54854 0.25599 0.0
C9 C 0.77108 0.55518 0.26337 0.0
C10 C 0.78395 0.54543 0.31225 0.0
N11 N 0.72446 0.52527 0.28873 0.0
H12 H 0.99869 0.75544 0.37308 0.0
H13 H 0.03161 0.74037 0.17527 0.0
H14 H 0.04426 0.79503 0.28984 0.0
H15 H 0.98653 0.73369 0.16911 0.0
C16 C 0.99382 0.72195 0.2007 0.0
C17 C 1.01031 0.75891 0.33326 0.0
C18 C 0.02117 0.77696 0.33935 0.0
C19 C 1.0142 0.74558 0.2742 0.0
C20 C 0.02883 0.75039 0.22137 0.0
C21 C 0.04002 0.76792 0.22824 0.0
C22 C 0.03622 0.78097 0.28725 0.0
N23 N 1.00368 0.72721 0.26764 0.0
H24 H 0.76854 1.00374 0.40172 0.0
H25 H 0.78804 0.99385 0.17722 0.0
H26 H 0.72566 0.9909 0.23046 0.0
H27 H 0.81202 0.9715 0.30494 0.0
C28 C 0.81555 0.98703 0.29298 0.0
C29 C 0.76501 1.00046 0.34455 0.0
C30 C 0.74497 0.99681 0.32336 0.0
C31 C 0.78063 0.99892 0.29182 0.0
C32 C 0.77611 0.99462 0.21787 0.0
C33 C 0.75637 0.99164 0.19583 0.0
C34 C 0.74099 0.9927 0.24854 0.0
N35 N 0.80096 1.00172 0.31197 0.0
H36 H 0.52508 0.76996 0.37046 0.0
H37 H 0.4875 0.78376 0.18379 0.0
H38 H 0.47503 0.73224 0.31643 0.0
H39 H 0.52873 0.78714 0.15122 0.0
C40 C 0.52604 0.79997 0.18693 0.0
C41 C 0.51209 0.76672 0.33691 0.0
C42 C 0.50039 0.7496 0.35183 0.0
C43 C 0.50731 0.77926 0.27662 0.0
C44 C 0.49094 0.77452 0.23131 0.0
C45 C 0.47903 0.75789 0.2469 0.0
C46 C 0.48369 0.74573 0.30734 0.0
N47 N 0.51904 0.79644 0.26021 0.0
H48 H 0.27075 0.50075 0.04056 0.0
H49 H 0.28425 0.54331 0.21303 0.0
H50 H 0.2272 0.54492 0.10602 0.0
H51 H 0.31504 0.54153 0.1101 0.0
C52 C 0.31655 0.52686 0.13538 0.0
C53 C 0.2664 0.51336 0.07467 0.0
C54 C 0.24735 0.52218 0.06585 0.0
C55 C 0.28012 0.52152 0.12583 0.0
C56 C 0.27418 0.53758 0.17121 0.0
C57 C 0.25517 0.54599 0.16378 0.0
C58 C 0.24207 0.53851 0.11047 0.0
N59 N 0.29985 0.51368 0.13239 0.0
H60 H 1.01328 0.27375 0.0056 0.0
H61 H 0.04478 0.28625 0.20787 0.0
H62 H 0.05737 0.23243 0.08742 0.0
H63 H 1.00158 0.28994 0.21631 0.0
C64 C 1.007 0.30313 0.18741 0.0
C65 C 0.0248 0.26989 0.0451 0.0
C66 C 0.03554 0.25177 0.03737 0.0
C67 C 0.02836 0.28252 0.10638 0.0
C68 C 0.04255 0.27692 0.15951 0.0
C69 C 0.05319 0.25901 0.15255 0.0
C70 C 0.04995 0.24683 0.09063 0.0
N71 N 0.01686 0.30015 0.1183 0.0
H72 H 0.24648 0.01995 0.00627 0.0
H73 H 0.23112 1.00328 0.22977 0.0
H74 H 0.29258 1.00412 0.16165 0.0
H75 H 0.20675 0.9834 0.11147 0.0
C76 C 0.20194 0.99873 0.12081 0.0
C77 C 0.251 0.01552 0.06134 0.0
C78 C 0.27144 1.01219 0.07711 0.0
C79 C 0.23634 1.01193 0.11639 0.0
C80 C 0.24228 1.0058 0.18718 0.0
C81 C 0.2625 1.00347 0.20397 0.0
C82 C 0.27692 1.00653 0.14887 0.0
N83 N 0.21557 0.01424 0.10157 0.0
H84 H 0.50285 0.2516 0.00845 0.0
H85 H 0.51491 0.23622 0.23572 0.0
H86 H 0.51671 0.29754 0.16734 0.0
H87 H 0.53622 0.21103 0.12441 0.0
C88 C 0.52058 0.20666 0.12762 0.0
C89 C 0.50631 0.2561 0.06454 0.0
C90 C 0.50982 0.27644 0.08106 0.0
C91 C 0.5085 0.24148 0.12036 0.0
C92 C 0.51343 0.24737 0.19263 0.0
C93 C 0.51586 0.26756 0.20999 0.0
C94 C 0.51418 0.28192 0.15411 0.0
N95 N 0.50593 0.22081 0.10474 0.0
C96 C 0.99166 0.04049 0.51128 0.0
Eu97 Eu 0.99721 0.02042 0.63121 0.0
C98 C 1.00386 0.05764 0.48829 0.0
C99 C 0.99534 0.0739 0.45115 0.0
C100 C 1.00653 0.09131 0.43975 0.0
C101 C 0.02637 0.09259 0.4653 0.0
C102 C 0.03491 0.07612 0.50113 0.0
C103 C 0.02372 0.05892 0.51301 0.0
C104 C 0.97121 1.01043 0.74078 0.0
C105 C 1.01371 0.05332 0.75167 0.0
C106 C 0.02248 0.99016 0.9085 0.0
Eu107 Eu 0.01674 1.00637 0.7809 0.0
C108 C 0.03419 0.97225 0.92787 0.0
C109 C 0.05412 0.97005 0.90383 0.0
C110 C 0.06387 0.95165 0.91022 0.0
C111 C 0.05376 0.93512 0.93973 0.0
C112 C 0.03419 0.93757 0.96681 0.0
C113 C 0.02452 0.956 0.96118 0.0
C114 C 0.04539 1.00902 0.67201 0.0
C115 C 1.00414 0.97344 0.65323 0.0
O116 O 1.00099 0.02323 0.51201 0.0
O117 O 0.98102 0.04357 0.57116 0.0
O118 O 0.96766 1.00757 0.6708 0.0
O119 O 0.98758 0.01953 0.74885 0.0
O120 O 1.0106 0.0487 0.68135 0.0
O121 O 1.01424 0.03945 0.8037 0.0
O122 O 1.00653 0.98659 0.86843 0.0
O123 O 0.03261 1.00581 0.88575 0.0
O124 O 0.04924 1.00403 0.73973 0.0
O125 O 0.02699 1.01249 0.66815 0.0
O126 O 1.00754 0.97731 0.72416 0.0
O127 O 1.00162 0.98782 0.60382 0.0
H128 H 0.97992 0.07334 0.43302 0.0
H129 H 0.99965 0.10382 0.4116 0.0
H130 H 0.05 0.07681 0.52257 0.0
H131 H 0.03038 0.0469 0.54439 0.0
H132 H 0.06193 0.98225 0.87716 0.0
H133 H 0.07895 0.95012 0.88893 0.0
H134 H 0.0262 0.92509 0.99093 0.0
H135 H 1.00915 0.95732 0.97974 0.0
C136 C 0.48387 0.98639 0.52036 0.0
Eu137 Eu 0.50291 1.00072 0.63347 0.0
C138 C 0.46257 0.98168 0.51058 0.0
C139 C 0.45696 0.96244 0.4876 0.0
C140 C 0.43694 0.9565 0.49122 0.0
C141 C 0.42232 0.96971 0.51847 0.0
C142 C 0.42785 0.98923 0.53813 0.0
C143 C 0.44779 0.99517 0.53434 0.0
C144 C 0.51811 0.97832 0.74474 0.0
C145 C 0.46876 0.01594 0.75804 0.0
C146 C 0.53466 0.02921 0.89835 0.0
Eu147 Eu 0.51548 0.02419 0.77646 0.0
C148 C 0.55563 0.02305 0.90876 0.0
C149 C 0.57025 0.03756 0.923 0.0
C150 C 0.59049 0.03313 0.91229 0.0
C151 C 0.59642 1.01409 0.88729 0.0
C152 C 0.58185 0.99927 0.8772 0.0
C153 C 0.56169 1.00368 0.88783 0.0
C154 C 0.50781 0.05054 0.6647 0.0
C155 C 0.54853 1.01248 0.64733 0.0
O156 O 0.48866 1.00533 0.52643 0.0
O157 O 0.49296 0.97518 0.56892 0.0
O158 O 0.52184 0.97519 0.67517 0.0
O159 O 0.50625 0.99293 0.75205 0.0
O160 O 0.47325 1.00702 0.69405 0.0
O161 O 0.48258 0.02375 0.80173 0.0
O162 O 0.52163 0.01478 0.88964 0.0
O163 O 0.53225 0.04365 0.85046 0.0
O164 O 0.51189 0.05604 0.73197 0.0
O165 O 0.50701 0.03178 0.66326 0.0
O166 O 0.54469 0.01545 0.71856 0.0
O167 O 0.53408 1.00927 0.59891 0.0
H168 H 0.46817 0.95175 0.4697 0.0
H169 H 0.43299 0.94142 0.47511 0.0
H170 H 0.41676 0.99985 0.55753 0.0
H171 H 0.45168 1.01007 0.55282 0.0
H172 H 0.56595 0.05264 0.93818 0.0
H173 H 0.60146 0.04473 0.92194 0.0
H174 H 0.58593 0.9845 0.85761 0.0
H175 H 0.55082 0.99221 0.87508 0.0
C176 C 0.53608 0.48826 0.53051 0.0
Eu177 Eu 0.52297 0.50732 0.64563 0.0
C178 C 0.54535 0.46839 0.52871 0.0
C179 C 0.55399 0.46062 0.59335 0.0
C180 C 0.56013 0.44071 0.59618 0.0
C181 C 0.55769 0.4282 0.53447 0.0
C182 C 0.54973 0.43628 0.46886 0.0
C183 C 0.54355 0.45623 0.46612 0.0
C184 C 0.54681 0.51794 0.76052 0.0
C185 C 0.50859 0.47313 0.7658 0.0
C186 C 0.49279 0.53583 0.91715 0.0
Eu187 Eu 0.50094 0.52045 0.78913 0.0
C188 C 0.48031 0.55303 0.93773 0.0
C189 C 0.47199 0.55441 0.00866 0.0
C190 C 0.46019 0.5709 0.02793 0.0
C191 C 0.45663 0.58631 0.97651 0.0
C192 C 0.46465 0.58452 0.90481 0.0
C193 C 0.47628 0.56799 0.88552 0.0
C194 C 0.47374 0.51829 0.67623 0.0
C195 C 0.51311 0.55341 0.66338 0.0
O196 O 0.51722 0.48835 0.54993 0.0
O197 O 0.54643 0.50215 0.56403 0.0
O198 O 0.55057 0.52219 0.69196 0.0
O199 O 0.53095 0.50782 0.76531 0.0
O200 O 0.51599 0.47734 0.69958 0.0
O201 O 0.50286 0.48731 0.81241 0.0
O202 O 0.5091 0.54011 0.87985 0.0
O203 O 0.48306 0.5205 0.88999 0.0
O204 O 0.46923 0.52322 0.74348 0.0
O205 O 0.49218 0.51474 0.67351 0.0
O206 O 0.51103 0.54956 0.73498 0.0
O207 O 0.5147 0.53884 0.61404 0.0
H208 H 0.55531 0.46975 0.64265 0.0
H209 H 0.56633 0.43498 0.64725 0.0
H210 H 0.54733 0.42693 0.42073 0.0
H211 H 0.53666 0.46192 0.41623 0.0
H212 H 0.47471 0.54281 0.0492 0.0
H213 H 0.454 0.57168 0.08329 0.0
H214 H 0.46252 0.59619 0.86414 0.0
H215 H 0.48237 0.56703 0.83003 0.0
C216 C 0.03099 0.53101 0.51338 0.0
Eu217 Eu 0.02016 0.51821 0.64267 0.0
C218 C 0.04814 0.54331 0.49168 0.0
C219 C 0.04893 0.5523 0.42189 0.0
C220 C 0.06558 0.56371 0.40155 0.0
C221 C 0.08168 0.56623 0.4508 0.0
C222 C 0.08049 0.55755 0.52145 0.0
C223 C 0.06386 0.54625 0.54173 0.0
C224 C 0.01729 0.54381 0.75948 0.0
C225 C 0.05227 0.50269 0.76023 0.0
C226 C 0.99065 0.50001 0.92554 0.0
Eu227 Eu 1.00403 0.50044 0.79101 0.0
C228 C 0.97633 0.51312 0.96458 0.0
C229 C 0.95867 0.50498 0.99357 0.0
C230 C 0.94354 0.51749 0.02025 0.0
C231 C 0.94578 0.53838 0.018 0.0
C232 C 0.96381 0.5465 0.99211 0.0
C233 C 0.97902 0.53397 0.96617 0.0
C234 C 1.01118 0.47001 0.69254 0.0
C235 C 0.97252 0.51015 0.66259 0.0
O236 O 0.03546 0.51313 0.53805 0.0
O237 O 0.01758 0.54013 0.55425 0.0
O238 O 0.03213 0.54363 0.71334 0.0
O239 O 1.00465 0.53075 0.74159 0.0
O240 O 0.04876 0.50573 0.68915 0.0
O241 O 0.03766 0.50244 0.8101 0.0
O242 O 1.0079 0.50796 0.90715 0.0
O243 O 0.98297 0.48902 0.87264 0.0
O244 O 1.00469 0.46718 0.7595 0.0
O245 O 1.01382 0.48842 0.68387 0.0
O246 O 0.97527 0.50934 0.73491 0.0
O247 O 0.98776 0.51094 0.61568 0.0
H248 H 0.03679 0.55035 0.38301 0.0
H249 H 0.06594 0.57039 0.34703 0.0
H250 H 0.09271 0.55887 0.56031 0.0
H251 H 0.06341 0.53951 0.59618 0.0
H252 H 0.95625 0.48897 0.99288 0.0
H253 H 0.92973 0.51084 0.03961 0.0
H254 H 0.96602 0.56253 0.99098 0.0
H255 H 0.99263 0.54065 0.94534 0.0
C256 C 0.17813 0.02097 0.1938 0.0
C257 C 0.18415 1.00193 0.16917 0.0
C258 C 0.16216 0.02301 0.24421 0.0
C259 C 0.13616 0.99443 0.38991 0.0
H260 H 0.09413 0.03418 0.37443 0.0
C261 C 0.08088 1.0087 0.6292 0.0
C262 C 0.06048 1.01016 0.61169 0.0
C263 C 0.09547 1.00891 0.57358 0.0
C264 C 0.10573 0.02295 0.37931 0.0
H265 H 0.17784 0.97025 0.17632 0.0
H266 H 0.15026 0.97376 0.2637 0.0
H267 H 0.12037 0.03243 0.2792 0.0
H268 H 0.03939 1.01264 0.52169 0.0
H269 H 0.06496 1.01349 0.42395 0.0
H270 H 0.12171 0.98489 0.48952 0.0
C271 C 0.15786 0.98712 0.24493 0.0
C272 C 0.12085 0.02207 0.32514 0.0
C273 C 0.17361 0.98512 0.19446 0.0
C274 C 0.05499 1.01198 0.53702 0.0
C275 C 0.06965 1.0124 0.48109 0.0
C276 C 0.12125 0.99546 0.44423 0.0
C277 C 0.15208 1.00603 0.27146 0.0
C278 C 0.13619 1.00767 0.32955 0.0
C279 C 0.09009 1.01061 0.4987 0.0
C280 C 0.10581 1.00969 0.43976 0.0
H281 H 0.18597 0.03422 0.1754 0.0
H282 H 0.15813 0.03779 0.26373 0.0
H283 H 0.14782 0.98328 0.39558 0.0
H284 H 0.08563 1.00725 0.68619 0.0
H285 H 0.11104 1.00773 0.58933 0.0
C286 C 0.49602 0.1837 0.19218 0.0
C287 C 0.5156 0.18814 0.16903 0.0
C288 C 0.4923 0.16707 0.23759 0.0
C289 C 0.49177 0.13997 0.37441 0.0
H290 H 0.52268 0.09117 0.35372 0.0
C291 C 0.50341 0.08514 0.61632 0.0
C292 C 0.50455 0.06452 0.60224 0.0
C293 C 0.5019 0.09884 0.55826 0.0
C294 C 0.51369 0.10455 0.35992 0.0
H295 H 0.54646 0.17847 0.17369 0.0
H296 H 0.54008 0.14967 0.25237 0.0
H297 H 0.52508 0.11703 0.25923 0.0
H298 H 0.50485 0.04204 0.51608 0.0
H299 H 0.50203 0.066 0.41397 0.0
H300 H 0.48046 0.12754 0.4753 0.0
C301 C 0.5275 0.15875 0.23521 0.0
C302 C 0.51525 0.11952 0.30605 0.0
C303 C 0.5312 0.17535 0.19034 0.0
C304 C 0.5038 0.05783 0.52862 0.0
C305 C 0.50238 0.07159 0.47018 0.0
C306 C 0.49024 0.12502 0.42834 0.0
C307 C 0.50805 0.15448 0.26038 0.0
C308 C 0.50463 0.13762 0.31328 0.0
C309 C 0.50158 0.09232 0.48425 0.0
C310 C 0.50149 0.10726 0.42268 0.0
H311 H 0.48368 0.19332 0.17688 0.0
H312 H 0.4771 0.16416 0.25534 0.0
H313 H 0.48345 0.15372 0.38226 0.0
H314 H 0.50406 0.09079 0.67246 0.0
H315 H 0.50166 0.11464 0.57148 0.0
C316 C 0.34945 0.53781 0.18394 0.0
C317 C 0.33463 0.523 0.18079 0.0
C318 C 0.36579 0.53586 0.23132 0.0
C319 C 0.39563 0.50072 0.3437 0.0
H320 H 0.40644 0.54802 0.46125 0.0
C321 C 0.46411 0.50984 0.54459 0.0
C322 C 0.45915 0.51753 0.61472 0.0
C323 C 0.44973 0.50933 0.48792 0.0
C324 C 0.40365 0.53468 0.42885 0.0
H325 H 0.32571 0.49404 0.22293 0.0
H326 H 0.35451 0.49054 0.30621 0.0
H327 H 0.37997 0.54877 0.36916 0.0
H328 H 0.43533 0.53062 0.68047 0.0
H329 H 0.41059 0.53004 0.58215 0.0
H330 H 0.4194 0.48666 0.40455 0.0
C331 C 0.35342 0.50369 0.2716 0.0
C332 C 0.38855 0.53515 0.37565 0.0
C333 C 0.3369 0.50571 0.22414 0.0
C334 C 0.43965 0.52465 0.62701 0.0
C335 C 0.42547 0.52438 0.57055 0.0
C336 C 0.41099 0.50033 0.39662 0.0
C337 C 0.36782 0.51899 0.27689 0.0
C338 C 0.38424 0.51817 0.3326 0.0
C339 C 0.43029 0.51681 0.50022 0.0
C340 C 0.415 0.51727 0.44035 0.0
H341 H 0.34815 0.55125 0.15091 0.0
H342 H 0.37675 0.54777 0.23307 0.0
H343 H 0.39275 0.48743 0.31114 0.0
H344 H 0.47901 0.50423 0.53362 0.0
H345 H 0.45391 0.50348 0.43415 0.0
C346 C 1.00101 0.3222 0.30331 0.0
C347 C 1.00793 0.32215 0.22992 0.0
C348 C 1.00288 0.33919 0.34769 0.0
C349 C 1.00874 0.39374 0.34766 0.0
H350 H 0.02807 0.38473 0.54687 0.0
C351 C 0.01894 0.45849 0.56245 0.0
C352 C 1.01319 0.45414 0.63551 0.0
C353 C 0.01997 0.44324 0.50891 0.0
C354 C 0.02244 0.38757 0.49176 0.0
H355 H 0.02178 0.3402 0.14459 0.0
H356 H 0.0248 0.37028 0.22246 0.0
H357 H 0.02626 0.35694 0.46033 0.0
H358 H 1.00392 0.43048 0.70962 0.0
H359 H 1.00538 0.40415 0.61714 0.0
H360 H 1.00439 0.42434 0.38001 0.0
C361 C 0.018 0.35699 0.2455 0.0
C362 C 0.02148 0.37159 0.44197 0.0
C363 C 0.0163 0.33978 0.20099 0.0
C364 C 1.00856 0.43431 0.65396 0.0
C365 C 1.00954 0.41914 0.60079 0.0
C366 C 1.00955 0.40979 0.39789 0.0
C367 C 1.01161 0.35674 0.31987 0.0
C368 C 1.01426 0.37435 0.36975 0.0
C369 C 0.01529 0.42331 0.52742 0.0
C370 C 0.01604 0.40683 0.47121 0.0
H371 H 0.99445 0.30887 0.32709 0.0
H372 H 0.99749 0.33856 0.40421 0.0
H373 H 1.00305 0.39636 0.29247 0.0
H374 H 0.02252 0.47367 0.54657 0.0
H375 H 0.02459 0.44704 0.45325 0.0
C376 C 0.83615 1.00992 0.21082 0.0
C377 C 0.83279 0.99108 0.24289 0.0
C378 C 0.85168 1.01259 0.15908 0.0
C379 C 0.88325 0.98344 0.02769 0.0
H380 H 0.91599 0.03115 0.02101 0.0
C381 C 0.93739 0.99921 0.78418 0.0
C382 C 0.95607 1.00772 0.80028 0.0
C383 C 0.92267 0.99744 0.83913 0.0
C384 C 0.90708 0.01765 0.02239 0.0
H385 H 0.84333 0.9605 0.2475 0.0
H386 H 0.87038 0.96515 0.15876 0.0
H387 H 0.89006 0.02793 0.11594 0.0
H388 H 0.97405 0.02086 0.88712 0.0
H389 H 0.94844 0.01763 0.9834 0.0
H390 H 0.90034 0.973 0.93509 0.0
C391 C 0.86094 0.97782 0.17211 0.0
C392 C 0.89204 0.01591 0.07639 0.0
C393 C 0.84551 0.97518 0.22354 0.0
C394 C 0.95978 0.01425 0.87292 0.0
C395 C 0.94503 1.01254 0.92796 0.0
C396 C 0.89819 0.98521 0.9737 0.0
C397 C 0.8641 0.99646 0.13818 0.0
C398 C 0.87996 0.99872 0.08002 0.0
C399 C 0.92622 1.00415 0.91181 0.0
C400 C 0.91037 1.00232 0.97018 0.0
H401 H 0.82654 0.02245 0.2243 0.0
H402 H 0.85357 0.02713 0.13384 0.0
H403 H 0.87411 0.97009 0.0279 0.0
H404 H 0.93402 0.99409 0.72872 0.0
H405 H 0.90834 0.99113 0.82417 0.0
C406 C 0.51904 0.83724 0.18647 0.0
C407 C 0.52787 0.82025 0.15412 0.0
C408 C 0.5191 0.85566 0.14894 0.0
C409 C 0.52433 0.87554 0.95735 0.0
H410 H 0.52894 0.92725 0.05293 0.0
C411 C 0.53429 0.94654 0.78495 0.0
C412 C 0.52191 0.96289 0.80199 0.0
C413 C 0.53602 0.93044 0.8337 0.0
C414 C 0.52751 0.91291 0.02557 0.0
H415 H 0.54446 0.8094 0.05931 0.0
H416 H 0.54523 0.84134 0.99545 0.0
H417 H 0.53019 0.89666 0.12752 0.0
H418 H 0.50246 0.97569 0.88562 0.0
H419 H 0.50554 0.94744 0.97151 0.0
H420 H 0.52178 0.89159 0.85567 0.0
C421 C 0.53767 0.84053 0.04839 0.0
C422 C 0.52818 0.89536 0.06831 0.0
C423 C 0.53742 0.82221 0.08536 0.0
C424 C 0.51211 0.96328 0.87094 0.0
C425 C 0.5139 0.94712 0.92013 0.0
C426 C 0.5238 0.89296 0.91489 0.0
C427 C 0.52807 0.85744 0.07853 0.0
C428 C 0.52682 0.8764 0.0346 0.0
C429 C 0.52543 0.93023 0.90104 0.0
C430 C 0.52559 0.91188 0.94813 0.0
H431 H 0.51145 0.83615 0.2393 0.0
H432 H 0.51147 0.86828 0.17389 0.0
H433 H 0.52259 0.86134 0.9293 0.0
H434 H 0.54222 0.94587 0.73266 0.0
H435 H 0.54538 0.91791 0.8179 0.0
C436 C 0.68781 0.51703 0.19637 0.0
C437 C 0.69007 0.53472 0.23755 0.0
C438 C 0.6711 0.51441 0.15034 0.0
C439 C 0.6335 0.54443 0.04941 0.0
H440 H 0.60618 0.4939 0.02214 0.0
C441 C 0.57928 0.5312 0.80719 0.0
C442 C 0.56167 0.52037 0.82052 0.0
C443 C 0.59405 0.53271 0.86145 0.0
C444 C 0.61354 0.50817 0.02962 0.0
H445 H 0.67637 0.5631 0.26519 0.0
H446 H 0.64727 0.55849 0.18632 0.0
H447 H 0.63341 0.49641 0.11201 0.0
H448 H 0.5456 0.50277 0.90164 0.0
H449 H 0.57149 0.50545 0.9971 0.0
H450 H 0.6137 0.55627 0.96768 0.0
C451 C 0.65845 0.54677 0.18808 0.0
C452 C 0.6293 0.50954 0.08054 0.0
C453 C 0.67506 0.54936 0.23375 0.0
C454 C 0.55903 0.51124 0.88984 0.0
C455 C 0.57391 0.51265 0.94423 0.0
C456 C 0.61787 0.54303 0.99849 0.0
C457 C 0.65641 0.52946 0.14455 0.0
C458 C 0.63949 0.52772 0.09106 0.0
C459 C 0.59165 0.52338 0.93058 0.0
C460 C 0.60773 0.52488 0.98752 0.0
H461 H 0.69916 0.50548 0.19803 0.0
H462 H 0.67008 0.50094 0.11732 0.0
H463 H 0.64113 0.55861 0.05519 0.0
H464 H 0.58179 0.53836 0.75426 0.0
H465 H 0.60759 0.54087 0.84853 0.0
C466 C 1.01032 0.6883 0.18326 0.0
C467 C 0.99444 0.70147 0.16892 0.0
C468 C 1.0119 0.6701 0.14473 0.0
C469 C 0.99213 0.64466 0.97388 0.0
H470 H 0.02001 0.59874 0.05395 0.0
C471 C 0.99443 0.56739 0.82692 0.0
C472 C 1.0138 0.55997 0.81405 0.0
C473 C 0.99138 0.58371 0.87443 0.0
C474 C 1.01218 0.61148 0.03098 0.0
H475 H 0.96733 0.70562 0.10596 0.0
H476 H 0.96918 0.67355 0.04283 0.0
H477 H 0.01535 0.62851 0.13055 0.0
H478 H 0.04506 0.56345 0.84161 0.0
H479 H 0.03965 0.59154 0.92694 0.0
H480 H 0.9885 0.62722 0.87515 0.0
C481 C 0.98104 0.67741 0.08082 0.0
C482 C 1.00961 0.62867 0.07465 0.0
C483 C 0.97977 0.69575 0.11786 0.0
C484 C 0.02998 0.56886 0.85085 0.0
C485 C 0.02688 0.58485 0.8998 0.0
C486 C 0.99432 0.62734 0.93102 0.0
C487 C 0.99742 0.66445 0.09194 0.0
C488 C 0.99965 0.64566 0.04668 0.0
C489 C 1.00758 0.59264 0.91129 0.0
C490 C 1.00451 0.61062 0.95877 0.0
H491 H 0.02201 0.69245 0.22164 0.0
H492 H 0.02491 0.66086 0.15464 0.0
H493 H 0.98487 0.65742 0.9488 0.0
H494 H 0.9817 0.56086 0.79898 0.0
H495 H 0.97634 0.58937 0.88243 0.0
C496 C 0.08253 0.24056 0.20451 0.0
C497 C 0.0644 0.25074 0.21591 0.0
C498 C 0.08939 0.22689 0.25702 0.0
C499 C 0.07387 0.20138 0.43402 0.0
H500 H 0.07982 0.15433 0.31046 0.0
C501 C 0.02943 0.12976 0.4744 0.0
C502 C 0.03806 0.1112 0.45692 0.0
C503 C 0.04038 0.14734 0.46556 0.0
C504 C 0.07866 0.16722 0.34656 0.0
H505 H 0.04074 0.25677 0.29493 0.0
H506 H 0.05214 0.23274 0.3848 0.0
H507 H 0.08779 0.18673 0.26034 0.0
H508 H 0.06504 0.09635 0.41883 0.0
H509 H 0.0841 0.12719 0.40237 0.0
H510 H 0.06288 0.1816 0.51796 0.0
C511 C 0.06141 0.23525 0.33653 0.0
C512 C 0.08337 0.18595 0.3179 0.0
C513 C 0.05475 0.2491 0.28461 0.0
C514 C 0.05802 0.11049 0.43257 0.0
C515 C 0.06893 0.12809 0.42324 0.0
C516 C 0.06892 0.1826 0.46243 0.0
C517 C 0.07794 0.22288 0.32077 0.0
C518 C 0.07986 0.20339 0.3597 0.0
C519 C 0.06011 0.14671 0.43864 0.0
C520 C 0.07026 0.16551 0.41744 0.0
H521 H 0.09043 0.24188 0.15234 0.0
H522 H 0.10258 0.21812 0.24431 0.0
H523 H 0.07153 0.21444 0.46847 0.0
H524 H 1.01419 0.13069 0.49451 0.0
H525 H 0.03307 0.16149 0.47678 0.0
C526 C 0.28339 1.00884 0.31533 0.0
C527 C 0.26891 0.99747 0.27862 0.0
C528 C 0.29237 1.00156 0.37916 0.0
C529 C 0.30827 0.95372 0.44558 0.0
H530 H 0.33622 0.98874 0.58107 0.0
C531 C 0.39148 0.95463 0.46513 0.0
C532 C 0.40121 0.96351 0.52525 0.0
C533 C 0.3708 0.95202 0.46657 0.0
C534 C 0.32834 0.97835 0.54566 0.0
H535 H 0.25115 0.97046 0.28217 0.0
H536 H 0.26718 0.95742 0.39419 0.0
H537 H 0.30434 0.99907 0.53055 0.0
H538 H 0.39756 0.97447 0.63729 0.0
H539 H 0.36135 0.96976 0.64036 0.0
H540 H 0.33273 0.93339 0.45797 0.0
C541 C 0.27153 0.97198 0.37361 0.0
C542 C 0.31007 0.98441 0.51615 0.0
C543 C 0.26237 0.97942 0.3098 0.0
C544 C 0.39023 0.96804 0.5895 0.0
C545 C 0.36954 0.96527 0.5913 0.0
C546 C 0.32643 0.94752 0.47588 0.0
C547 C 0.28718 0.98265 0.40725 0.0
C548 C 0.3008 0.97294 0.46093 0.0
C549 C 0.35946 0.95811 0.5285 0.0
C550 C 0.33746 0.96055 0.52113 0.0
H551 H 0.28851 0.02289 0.29236 0.0
H552 H 0.30454 1.01009 0.40275 0.0
H553 H 0.3014 0.94437 0.40387 0.0
H554 H 0.39962 0.95101 0.41497 0.0
H555 H 0.36363 0.94672 0.41666 0.0
C556 C 0.53814 0.26704 0.32097 0.0
C557 C 0.52082 0.27406 0.28574 0.0
C558 C 0.54509 0.27649 0.38506 0.0
C559 C 0.56422 0.31273 0.45682 0.0
H560 H 0.52928 0.34384 0.58389 0.0
C561 C 0.57008 0.39603 0.48017 0.0
C562 C 0.56169 0.40645 0.54009 0.0
C563 C 0.57052 0.3752 0.47992 0.0
C564 C 0.53956 0.33504 0.55079 0.0
H565 H 0.49609 0.29485 0.29288 0.0
H566 H 0.50808 0.31139 0.40358 0.0
H567 H 0.51744 0.31256 0.53216 0.0
H568 H 0.54875 0.40324 0.64968 0.0
H569 H 0.54984 0.36683 0.64976 0.0
H570 H 0.58604 0.33566 0.47289 0.0
C571 C 0.51639 0.29863 0.38296 0.0
C572 C 0.53266 0.31715 0.52052 0.0
C573 C 0.50958 0.28932 0.31896 0.0
C574 C 0.5553 0.39564 0.60253 0.0
C575 C 0.5558 0.37476 0.60242 0.0
C576 C 0.57121 0.33052 0.4878 0.0
C577 C 0.53471 0.29296 0.41487 0.0
C578 C 0.54434 0.30667 0.4686 0.0
C579 C 0.56264 0.36428 0.53978 0.0
C580 C 0.55839 0.34263 0.53035 0.0
H581 H 0.54701 0.25523 0.29615 0.0
H582 H 0.55916 0.27168 0.40872 0.0
H583 H 0.57372 0.30496 0.41759 0.0
H584 H 0.57546 0.40396 0.43187 0.0
H585 H 0.57572 0.36773 0.43028 0.0
C586 C 0.24167 0.57989 0.19053 0.0
C587 C 0.24752 0.56102 0.21624 0.0
C588 C 0.22814 0.59143 0.23135 0.0
C589 C 0.19497 0.58967 0.40061 0.0
H590 H 0.15451 0.60339 0.25617 0.0
C591 C 0.11144 0.58819 0.47653 0.0
C592 C 0.10036 0.57636 0.42693 0.0
C593 C 0.13043 0.59523 0.45701 0.0
C594 C 0.16565 0.59979 0.29744 0.0
H595 H 0.24563 0.54011 0.30691 0.0
H596 H 0.2215 0.55959 0.37681 0.0
H597 H 0.18893 0.60004 0.21723 0.0
H598 H 0.10026 0.56339 0.31689 0.0
H599 H 0.13306 0.57557 0.28301 0.0
H600 H 0.17109 0.58738 0.47905 0.0
C601 C 0.22755 0.56604 0.32667 0.0
C602 C 0.18558 0.59815 0.27539 0.0
C603 C 0.2414 0.55475 0.28656 0.0
C604 C 0.1082 0.5727 0.35607 0.0
C605 C 0.12708 0.57975 0.33657 0.0
C606 C 0.17493 0.59104 0.42245 0.0
C607 C 0.21973 0.58392 0.29719 0.0
C608 C 0.20035 0.59189 0.32574 0.0
C609 C 0.13865 0.59067 0.38739 0.0
C610 C 0.15994 0.59495 0.36999 0.0
H611 H 0.24629 0.58495 0.13621 0.0
H612 H 0.22299 0.60541 0.20807 0.0
H613 H 0.20599 0.58542 0.44142 0.0
H614 H 0.10567 0.59155 0.53118 0.0
H615 H 0.13888 0.60378 0.49709 0.0
C616 C 0.07344 0.78034 0.18814 0.0
C617 C 0.05401 0.77429 0.16971 0.0
C618 C 0.08447 0.79218 0.13935 0.0
C619 C 0.08035 0.81999 0.9588 0.0
H620 H 0.09391 0.86474 0.0854 0.0
C621 C 0.05234 0.89853 0.91416 0.0
C622 C 0.06317 0.9151 0.93964 0.0
C623 C 0.06022 0.87932 0.92033 0.0
C624 C 0.0908 0.85237 0.04847 0.0
H625 H 0.03165 0.77377 0.08359 0.0
H626 H 0.05032 0.79502 0.99971 0.0
H627 H 0.09257 0.8316 0.13693 0.0
H628 H 0.09126 0.92485 0.98679 0.0
H629 H 0.10503 0.89104 0.99887 0.0
H630 H 0.07675 0.84147 0.87198 0.0
C631 C 0.05749 0.79043 0.05054 0.0
C632 C 0.09006 0.83317 0.0781 0.0
C633 C 0.04665 0.77827 0.09878 0.0
C634 C 0.08257 0.91226 0.96722 0.0
C635 C 0.09043 0.89296 0.97402 0.0
C636 C 0.08092 0.83929 0.92927 0.0
C637 C 0.07595 0.79864 0.07237 0.0
C638 C 0.08354 0.81693 0.03485 0.0
C639 C 0.07908 0.87626 0.95257 0.0
C640 C 0.08493 0.85578 0.97512 0.0
H641 H 0.07945 0.77721 0.24251 0.0
H642 H 0.0989 0.79771 0.15698 0.0
H643 H 0.07585 0.80774 0.92336 0.0
H644 H 0.03749 0.90038 0.89134 0.0
H645 H 0.05096 0.86679 0.90417 0.0
C646 C 0.73771 0.97371 0.09702 0.0
C647 C 0.75129 0.98868 0.11712 0.0
C648 C 0.72882 0.97396 0.02746 0.0
C649 C 0.71089 1.01329 0.91238 0.0
H650 H 0.68189 0.96887 0.82661 0.0
C651 C 0.62967 0.02376 0.83364 0.0
C652 C 0.61769 1.00973 0.87081 0.0
C653 C 0.65004 0.02011 0.82261 0.0
C654 C 0.69001 0.9815 0.84895 0.0
H655 H 0.76817 0.01419 0.07797 0.0
H656 H 0.75251 0.01473 0.95587 0.0
H657 H 0.71467 0.96313 0.88187 0.0
H658 H 0.6174 0.98049 0.92234 0.0
H659 H 0.65283 0.97433 0.90504 0.0
H660 H 0.68563 0.03132 0.88614 0.0
C661 C 0.74862 1.00288 0.99402 0.0
C662 C 0.7088 0.97822 0.88033 0.0
C663 C 0.7576 1.00255 0.06376 0.0
C664 C 0.62622 0.99156 0.89324 0.0
C665 C 0.64655 0.98795 0.88255 0.0
C666 C 0.69214 0.01655 0.88118 0.0
C667 C 0.73326 0.98931 0.97691 0.0
C668 C 0.71865 0.9938 0.91759 0.0
C669 C 0.65883 1.00242 0.84902 0.0
C670 C 0.68086 1.00039 0.85447 0.0
H671 H 0.73286 0.96267 0.13705 0.0
H672 H 0.717 0.96332 0.01658 0.0
H673 H 0.71804 0.02568 0.94036 0.0
H674 H 0.62335 0.0377 0.81408 0.0
H675 H 0.65906 0.03146 0.79595 0.0
C676 C 0.44432 0.74641 0.22099 0.0
C677 C 0.46356 0.75096 0.19492 0.0
C678 C 0.43202 0.73347 0.18106 0.0
C679 C 0.43222 0.69927 0.01477 0.0
H680 H 0.41816 0.66015 0.16399 0.0
C681 C 0.43369 0.61528 0.949 0.0
C682 C 0.44609 0.60494 0.9989 0.0
C683 C 0.42629 0.63428 0.96661 0.0
C684 C 0.42178 0.67094 0.12138 0.0
H685 H 0.48422 0.74763 0.10358 0.0
H686 H 0.46337 0.72453 0.0353 0.0
H687 H 0.422 0.69478 0.19908 0.0
H688 H 0.45961 0.60617 0.10777 0.0
H689 H 0.44672 0.63894 0.13847 0.0
H690 H 0.43409 0.67477 0.9389 0.0
C691 C 0.4573 0.7311 0.08529 0.0
C692 C 0.42373 0.69098 0.14121 0.0
C693 C 0.46939 0.74436 0.12453 0.0
C694 C 0.44988 0.6135 0.06841 0.0
C695 C 0.44242 0.63237 0.08609 0.0
C696 C 0.43051 0.67911 0.99513 0.0
C697 C 0.43906 0.72439 0.11565 0.0
C698 C 0.43027 0.70521 0.08917 0.0
C699 C 0.43101 0.64323 0.0347 0.0
C700 C 0.42653 0.66461 0.04941 0.0
H701 H 0.4395 0.75151 0.27511 0.0
H702 H 0.41779 0.72919 0.2049 0.0
H703 H 0.43667 0.7099 0.97274 0.0
H704 H 0.43017 0.60894 0.89546 0.0
H705 H 0.41739 0.64221 0.92617 0.0
C706 C 0.78889 0.58715 0.24152 0.0
C707 C 0.77993 0.56991 0.21253 0.0
C708 C 0.80478 0.59617 0.20404 0.0
C709 C 0.83992 0.588 0.04292 0.0
H710 H 0.87903 0.58806 0.20081 0.0
C711 C 0.92272 0.56707 0.99178 0.0
C712 C 0.92887 0.55154 0.03891 0.0
C713 C 0.90533 0.57797 0.00736 0.0
C714 C 0.86834 0.58831 0.15591 0.0
H715 H 0.77841 0.55016 0.11806 0.0
H716 H 0.80639 0.56523 0.05382 0.0
H717 H 0.84423 0.59389 0.2298 0.0
H718 H 0.92236 0.53589 0.1409 0.0
H719 H 0.8921 0.55478 0.16819 0.0
H720 H 0.86415 0.58041 0.97036 0.0
C721 C 0.80122 0.57226 0.10433 0.0
C722 C 0.84829 0.59197 0.17224 0.0
C723 C 0.78507 0.56354 0.14112 0.0
C724 C 0.91788 0.54771 0.10349 0.0
C725 C 0.90067 0.55869 0.11941 0.0
C726 C 0.86004 0.58419 0.02667 0.0
C727 C 0.81232 0.58761 0.13841 0.0
C728 C 0.83362 0.59067 0.11666 0.0
C729 C 0.89398 0.57368 0.07086 0.0
C730 C 0.87421 0.58316 0.08383 0.0
H731 H 0.78507 0.59229 0.29665 0.0
H732 H 0.81251 0.60844 0.23059 0.0
H733 H 0.82912 0.58735 0.99846 0.0
H734 H 0.93088 0.57023 0.94129 0.0
H735 H 0.90053 0.58943 0.96905 0.0
C736 C 0.04585 0.22655 0.94184 0.0
C737 C 0.03045 0.23621 0.98132 0.0
C738 C 0.04238 0.2084 0.90536 0.0
C739 C 1.00918 0.16454 0.91975 0.0
H740 H 0.03758 0.14691 0.74409 0.0
C741 C 0.01733 0.08061 0.84713 0.0
C742 C 0.0158 0.07482 0.77252 0.0
C743 C 0.01825 0.10087 0.86692 0.0
C744 C 0.02938 0.15158 0.79288 0.0
H745 H 0.99902 0.23494 0.00951 0.0
H746 H 0.99278 0.20342 0.94442 0.0
H747 H 0.03944 0.18188 0.78228 0.0
H748 H 0.01432 0.08609 0.66008 0.0
H749 H 0.01588 0.1213 0.6946 0.0
H750 H 0.99909 0.13431 0.93039 0.0
C751 C 1.00766 0.20975 0.9426 0.0
C752 C 0.03058 0.17166 0.81518 0.0
C753 C 1.01113 0.22801 0.9789 0.0
C754 C 0.01552 0.0899 0.71816 0.0
C755 C 0.0165 0.11017 0.73796 0.0
C756 C 1.00803 0.14448 0.8976 0.0
C757 C 0.02342 0.19933 0.90758 0.0
C758 C 0.02067 0.1784 0.87943 0.0
C759 C 0.0177 0.11597 0.81272 0.0
C760 C 0.01831 0.13762 0.83436 0.0
H761 H 0.06093 0.23243 0.94316 0.0
H762 H 0.05494 0.20088 0.87954 0.0
H763 H 1.00153 0.16902 0.96999 0.0
H764 H 0.01762 0.0695 0.8906 0.0
H765 H 0.01952 0.10468 0.92494 0.0
C766 C 0.29919 0.99618 0.006 0.0
C767 C 0.28761 1.01331 0.02037 0.0
C768 C 0.31718 0.99747 0.96658 0.0
C769 C 0.35738 0.03369 0.92222 0.0
H770 H 0.37736 0.98983 0.8026 0.0
C771 C 0.4418 0.0254 0.85032 0.0
C772 C 0.44731 0.01691 0.78189 0.0
C773 C 0.42169 0.026 0.87292 0.0
C774 C 0.37205 1.00239 0.83507 0.0
H775 H 0.28553 0.04519 0.00268 0.0
H776 H 0.3169 0.04753 0.93202 0.0
H777 H 0.34299 0.98934 0.84672 0.0
H778 H 0.43564 1.00249 0.68395 0.0
H779 H 0.40074 1.00414 0.72161 0.0
H780 H 0.38638 0.04688 0.90971 0.0
C781 C 0.31213 0.03304 0.95196 0.0
C782 C 0.35229 1.00198 0.86124 0.0
C783 C 0.29399 0.0317 0.99141 0.0
C784 C 0.43206 1.0092 0.73667 0.0
C785 C 0.41196 1.00996 0.75887 0.0
C786 C 0.37716 0.03414 0.89585 0.0
C787 C 0.32425 0.01599 0.94051 0.0
C788 C 0.3447 0.01747 0.90624 0.0
C789 C 0.40641 0.01825 0.82763 0.0
C790 C 0.38493 0.01835 0.85269 0.0
H791 H 0.29478 0.98186 0.02864 0.0
H792 H 0.32606 0.98404 0.96013 0.0
H793 H 0.35226 0.04583 0.95716 0.0
H794 H 0.45305 0.03143 0.88707 0.0
H795 H 0.41821 0.03222 0.92676 0.0
C796 C 0.49283 0.29886 0.9881 0.0
C797 C 0.5103 0.29247 0.02406 0.0
C798 C 0.49257 0.31712 0.94942 0.0
C799 C 0.51762 0.36588 0.95764 0.0
H800 H 0.49179 0.37748 0.77086 0.0
C801 C 0.50272 0.44691 0.86328 0.0
C802 C 0.50764 0.45181 0.78981 0.0
C803 C 0.50252 0.42697 0.8868 0.0
C804 C 0.49912 0.37445 0.823 0.0
H805 H 0.54144 0.29938 0.04374 0.0
H806 H 0.54109 0.33087 0.97602 0.0
H807 H 0.4928 0.34294 0.81691 0.0
H808 H 0.51587 0.43927 0.6831 0.0
H809 H 0.51529 0.40445 0.72425 0.0
H810 H 0.52387 0.39719 0.96449 0.0
C811 C 0.5275 0.32209 0.97829 0.0
C812 C 0.49957 0.35469 0.84955 0.0
C813 C 0.52777 0.30395 0.01645 0.0
C814 C 0.51201 0.43612 0.74013 0.0
C815 C 0.51159 0.41612 0.76357 0.0
C816 C 0.51694 0.38556 0.93171 0.0
C817 C 0.50974 0.32931 0.94662 0.0
C818 C 0.50895 0.35016 0.91708 0.0
C819 C 0.50707 0.4113 0.83747 0.0
C820 C 0.5077 0.39015 0.8641 0.0
H821 H 0.4791 0.29044 0.99397 0.0
H822 H 0.47863 0.32227 0.92569 0.0
H823 H 0.52475 0.36301 0.01029 0.0
H824 H 0.49925 0.45851 0.90318 0.0
H825 H 0.49875 0.4238 0.94389 0.0
C826 C 0.22365 0.49571 0.02023 0.0
C827 C 0.23214 0.51479 0.01255 0.0
C828 C 0.2058 0.49089 0.98338 0.0
C829 C 0.16999 0.50931 0.83827 0.0
H830 H 0.13044 0.48204 0.9581 0.0
C831 C 0.089 0.49822 0.73337 0.0
C832 C 0.07339 0.50043 0.78514 0.0
C833 C 0.10896 0.49711 0.75642 0.0
C834 C 0.14123 0.48981 0.92392 0.0
H835 H 0.22932 0.5433 0.95724 0.0
H836 H 0.19849 0.53508 0.89348 0.0
H837 H 0.16462 0.48506 0.00268 0.0
H838 H 0.06673 0.503 0.90222 0.0
H839 H 0.10143 0.5016 0.94224 0.0
H840 H 0.14644 0.51505 0.76145 0.0
C841 C 0.20546 0.52364 0.92696 0.0
C842 C 0.16101 0.49125 0.94904 0.0
C843 C 0.2232 0.52841 0.96363 0.0
C844 C 0.0783 0.50119 0.8607 0.0
C845 C 0.09829 0.50025 0.88374 0.0
C846 C 0.15021 0.50799 0.81342 0.0
C847 C 0.1961 0.50505 0.93804 0.0
C848 C 0.17563 0.50134 0.9072 0.0
C849 C 0.11398 0.49836 0.83194 0.0
C850 C 0.13542 0.49849 0.85634 0.0
H851 H 0.23009 0.48501 0.0583 0.0
H852 H 0.19925 0.4763 0.9924 0.0
H853 H 0.18081 0.51694 0.80378 0.0
H854 H 0.08583 0.49744 0.67472 0.0
H855 H 0.12048 0.49527 0.71475 0.0
C856 C 0.9969 0.80079 0.40016 0.0
C857 C 0.01631 0.79283 0.39479 0.0
C858 C 0.99342 0.81881 0.43827 0.0
C859 C 0.01721 0.85612 0.56658 0.0
H860 H 0.98248 0.89378 0.46684 0.0
C861 C 1.00468 0.93644 0.68022 0.0
C862 C 1.00337 0.95212 0.62859 0.0
C863 C 1.00452 0.91641 0.65707 0.0
C864 C 0.99235 0.88353 0.49529 0.0
H865 H 0.04701 0.79685 0.42949 0.0
H866 H 0.04108 0.82804 0.49522 0.0
H867 H 0.98523 0.85966 0.42088 0.0
H868 H 1.00081 0.95878 0.51164 0.0
H869 H 1.00089 0.92403 0.47128 0.0
H870 H 0.02504 0.8802 0.63896 0.0
C871 C 0.02842 0.8205 0.47062 0.0
C872 C 0.99368 0.86377 0.46953 0.0
C873 C 0.03186 0.80258 0.43263 0.0
C874 C 1.00174 0.94717 0.55317 0.0
C875 C 1.00166 0.92714 0.52999 0.0
C876 C 0.01593 0.87589 0.59218 0.0
C877 C 1.00927 0.82927 0.47213 0.0
C878 C 1.00635 0.8498 0.50415 0.0
C879 C 1.00312 0.91142 0.58152 0.0
C880 C 1.00367 0.89 0.55641 0.0
H881 H 0.98463 0.79375 0.37109 0.0
H882 H 0.97839 0.82485 0.43928 0.0
H883 H 0.02694 0.84582 0.59547 0.0
H884 H 1.00588 0.93958 0.73883 0.0
H885 H 1.00536 0.90483 0.69871 0.0
C886 C 0.72507 1.01244 0.42898 0.0
C887 C 0.72772 0.99707 0.37666 0.0
C888 C 0.70718 1.01393 0.47013 0.0
C889 C 0.65958 0.98548 0.51372 0.0
H890 H 0.63793 0.03827 0.55211 0.0
C891 C 0.5751 1.00142 0.55703 0.0
C892 C 0.5698 1.01157 0.62244 0.0
C893 C 0.59518 0.99975 0.5353 0.0
C894 C 0.64387 0.02343 0.54215 0.0
H895 H 0.71407 0.97043 0.3308 0.0
H896 H 0.68312 0.97338 0.39863 0.0
H897 H 0.67177 0.03484 0.50196 0.0
H898 H 0.58164 0.02823 0.71563 0.0
H899 H 0.61667 0.026 0.6755 0.0
H900 H 0.63115 0.97425 0.55007 0.0
C901 C 0.69468 0.98426 0.40972 0.0
C902 C 0.66338 0.0214 0.51383 0.0
C903 C 0.7125 0.98269 0.36962 0.0
C904 C 0.58514 0.02032 0.66486 0.0
C905 C 0.60521 0.01908 0.642 0.0
C906 C 0.63998 0.98756 0.54031 0.0
C907 C 0.69147 1.00007 0.45991 0.0
C908 C 0.67147 1.00237 0.49778 0.0
C909 C 0.61047 1.00858 0.57739 0.0
C910 C 0.63179 1.00654 0.55388 0.0
H911 H 0.73645 0.02379 0.43592 0.0
H912 H 0.70559 0.02613 0.50909 0.0
H913 H 0.66526 0.97051 0.50488 0.0
H914 H 0.56375 0.99438 0.52327 0.0
H915 H 0.59878 0.99164 0.48507 0.0
C916 C 0.52483 0.72475 0.40435 0.0
C917 C 0.50605 0.73417 0.40754 0.0
C918 C 0.52818 0.70671 0.44218 0.0
C919 C 0.50564 0.67152 0.58188 0.0
H920 H 0.5341 0.63129 0.4685 0.0
C921 C 0.51485 0.59035 0.69021 0.0
C922 C 0.51395 0.57464 0.63843 0.0
C923 C 0.51571 0.61033 0.66699 0.0
C924 C 0.52595 0.64225 0.5008 0.0
H925 H 0.4766 0.73284 0.45728 0.0
H926 H 0.48226 0.70162 0.52239 0.0
H927 H 0.53274 0.6655 0.42354 0.0
H928 H 0.51309 0.56785 0.52119 0.0
H929 H 0.51405 0.60255 0.48077 0.0
H930 H 0.49799 0.64809 0.65718 0.0
C931 C 0.49455 0.708 0.49138 0.0
C932 C 0.52547 0.66207 0.47555 0.0
C933 C 0.49125 0.72597 0.45382 0.0
C934 C 0.51389 0.57949 0.56274 0.0
C935 C 0.5146 0.59948 0.53951 0.0
C936 C 0.50601 0.65169 0.60688 0.0
C937 C 0.51282 0.69768 0.48412 0.0
C938 C 0.51508 0.67699 0.51515 0.0
C939 C 0.51553 0.61525 0.59123 0.0
C940 C 0.51596 0.63666 0.56629 0.0
H941 H 0.53647 0.73057 0.36867 0.0
H942 H 0.54259 0.69948 0.43637 0.0
H943 H 0.49771 0.68254 0.61467 0.0
H944 H 0.51503 0.58725 0.74899 0.0
H945 H 0.51673 0.6219 0.7087 0.0
C946 C 0.79668 0.52347 0.46918 0.0
C947 C 0.79321 0.51802 0.39527 0.0
C948 C 0.8151 0.51919 0.50279 0.0
C949 C 0.86749 0.51457 0.44774 0.0
H950 H 0.87702 0.4974 0.64914 0.0
C951 C 0.94799 0.50535 0.55879 0.0
C952 C 0.95173 0.50989 0.63341 0.0
C953 C 0.92839 0.50467 0.53173 0.0
C954 C 0.87467 0.5025 0.59304 0.0
H955 H 0.80582 0.50317 0.29958 0.0
H956 H 0.83781 0.49545 0.35819 0.0
H957 H 0.8429 0.49803 0.601 0.0
H958 H 0.93765 0.51748 0.73794 0.0
H959 H 0.90362 0.51707 0.69042 0.0
H960 H 0.8989 0.51986 0.43991 0.0
C961 C 0.82638 0.503 0.39037 0.0
C962 C 0.85507 0.50272 0.56538 0.0
C963 C 0.80796 0.50712 0.35717 0.0
C964 C 0.93534 0.51383 0.6802 0.0
C965 C 0.91574 0.51343 0.65293 0.0
C966 C 0.88699 0.51462 0.47556 0.0
C967 C 0.83048 0.5097 0.46254 0.0
C968 C 0.85126 0.50868 0.49226 0.0
C969 C 0.91192 0.5088 0.57822 0.0
C970 C 0.89096 0.50856 0.54865 0.0
H971 H 0.78576 0.53238 0.49895 0.0
H972 H 0.81781 0.52464 0.5583 0.0
H973 H 0.86505 0.51968 0.39165 0.0
H974 H 0.96022 0.50201 0.52132 0.0
H975 H 0.92619 0.50064 0.47432 0.0
loop_
_geom_bond_atom_site_label_1
_geom_bond_atom_site_label_2
_geom_bond_distance
_geom_bond_site_symmetry_2
_ccdc_geom_bond_type
H0 C5 0.930 . S
H1 C8 0.930 . S
H2 C10 0.930 . S
H3 C4 1.016 . S
C4 H3 1.016 . S
C4 N11 1.286 . S
C5 H0 0.930 . S
C5 C6 1.397 . S
C5 C7 1.361 . S
C6 C5 1.397 . S
C6 C10 1.390 . S
C7 C5 1.361 . S
C7 C8 1.393 . S
C7 N11 1.413 . S
C8 H1 0.930 . S
C8 C7 1.393 . S
C8 C9 1.399 . S
C9 C8 1.399 . S
C9 C10 1.381 . S
C10 H2 0.930 . S
C10 C6 1.390 . S
C10 C9 1.381 . S
N11 C4 1.286 . S
N11 C7 1.413 . S
H12 C17 0.930 . S
H13 C20 0.930 . S
H14 C22 0.930 . S
H15 C16 1.029 . S
C16 H15 1.029 . S
C16 N23 1.268 1_655 S
C17 H12 0.930 . S
C17 C18 1.407 . S
C17 C19 1.361 . S
C18 C17 1.407 . S
C18 C22 1.385 1_455 S
C19 C17 1.361 . S
C19 C20 1.393 . S
C19 N23 1.413 . S
C20 H13 0.930 . S
C20 C19 1.393 . S
C20 C21 1.402 . S
C21 C20 1.402 . S
C21 C22 1.379 1_455 S
C22 H14 0.930 . S
C22 C18 1.385 1_655 S
C22 C21 1.379 1_655 S
N23 C16 1.268 1_455 S
N23 C19 1.413 . S
H24 C29 0.930 . S
H25 C32 0.930 . S
H26 C34 0.930 . S
H27 C28 1.029 . S
C28 H27 1.029 . S
C28 N35 1.268 1_565 S
C29 H24 0.930 . S
C29 C30 1.407 . S
C29 C31 1.361 . S
C30 C29 1.407 . S
C30 C34 1.385 1_545 S
C31 C29 1.361 . S
C31 C32 1.393 . S
C31 N35 1.413 . S
C32 H25 0.930 . S
C32 C31 1.393 . S
C32 C33 1.402 . S
C33 C32 1.402 . S
C33 C34 1.379 1_545 S
C34 H26 0.930 . S
C34 C30 1.385 1_565 S
C34 C33 1.379 1_565 S
N35 C28 1.268 1_545 S
N35 C31 1.413 . S
H36 C41 0.930 . S
H37 C44 0.930 . S
H38 C46 0.930 . S
H39 C40 1.016 . S
C40 H39 1.016 . S
C40 N47 1.286 . S
C41 H36 0.930 . S
C41 C42 1.397 . S
C41 C43 1.361 . S
C42 C41 1.397 . S
C42 C46 1.390 . S
C43 C41 1.361 . S
C43 C44 1.393 . S
C43 N47 1.413 . S
C44 H37 0.930 . S
C44 C43 1.393 . S
C44 C45 1.399 . S
C45 C44 1.399 . S
C45 C46 1.381 . S
C46 H38 0.930 . S
C46 C42 1.390 . S
C46 C45 1.381 . S
N47 C40 1.286 . S
N47 C43 1.413 . S
H48 C53 0.930 . S
H49 C56 0.930 . S
H50 C58 0.930 . S
H51 C52 1.016 . S
C52 H51 1.016 . S
C52 N59 1.286 . S
C53 H48 0.930 . S
C53 C54 1.397 . S
C53 C55 1.361 1_556 S
C54 C53 1.397 . S
C54 C58 1.390 1_556 S
C55 C53 1.361 1_554 S
C55 C56 1.393 . S
C55 N59 1.413 . S
C56 H49 0.930 . S
C56 C55 1.393 . S
C56 C57 1.399 . S
C57 C56 1.399 . S
C57 C58 1.381 . S
C58 H50 0.930 . S
C58 C54 1.390 1_554 S
C58 C57 1.381 . S
N59 C52 1.286 . S
N59 C55 1.413 . S
H60 C65 0.930 . S
H61 C68 0.930 . S
H62 C70 0.930 . S
H63 C64 1.025 . S
C64 H63 1.025 . S
C64 N71 1.274 1_655 S
C65 H60 0.930 . S
C65 C66 1.397 . S
C65 C67 1.361 1_556 S
C66 C65 1.397 . S
C66 C70 1.390 1_456 S
C67 C65 1.361 1_554 S
C67 C68 1.393 . S
C67 N71 1.413 . S
C68 H61 0.930 . S
C68 C67 1.393 . S
C68 C69 1.404 . S
C69 C68 1.404 . S
C69 C70 1.378 1_455 S
C70 H62 0.930 . S
C70 C66 1.390 1_654 S
C70 C69 1.378 1_655 S
N71 C64 1.274 1_455 S
N71 C67 1.413 . S
H72 C77 0.930 . S
H73 C80 0.930 . S
H74 C82 0.930 . S
H75 C76 1.025 . S
C76 H75 1.025 . S
C76 N83 1.274 1_565 S
C77 H72 0.930 . S
C77 C78 1.397 . S
C77 C79 1.361 1_556 S
C78 C77 1.397 . S
C78 C82 1.390 1_546 S
C79 C77 1.361 1_554 S
C79 C80 1.393 . S
C79 N83 1.413 . S
C80 H73 0.930 . S
C80 C79 1.393 . S
C80 C81 1.404 . S
C81 C80 1.404 . S
C81 C82 1.378 1_545 S
C82 H74 0.930 . S
C82 C78 1.390 1_564 S
C82 C81 1.378 1_565 S
N83 C76 1.274 1_545 S
N83 C79 1.413 . S
H84 C89 0.930 . S
H85 C92 0.930 . S
H86 C94 0.930 . S
H87 C88 1.016 . S
C88 H87 1.016 . S
C88 N95 1.286 . S
C89 H84 0.930 . S
C89 C90 1.397 . S
C89 C91 1.361 1_556 S
C90 C89 1.397 . S
C90 C94 1.390 1_556 S
C91 C89 1.361 1_554 S
C91 C92 1.393 . S
C91 N95 1.413 . S
C92 H85 0.930 . S
C92 C91 1.393 . S
C92 C93 1.399 . S
C93 C92 1.399 . S
C93 C94 1.381 . S
C94 H86 0.930 . S
C94 C90 1.390 1_554 S
C94 C93 1.381 . S
N95 C88 1.286 . S
N95 C91 1.413 . S
C96 Eu97 2.835 . S
C96 C98 1.500 . S
C96 O116 1.256 . S
C96 O117 1.260 . S
Eu97 C96 2.835 . S
Eu97 O116 2.472 . S
Eu97 O117 2.480 . S
Eu97 O118 2.430 . S
Eu97 O119 2.670 1_545 S
Eu97 O120 2.394 . S
Eu97 O125 2.355 1_655 S
Eu97 O127 2.374 1_545 S
C98 C96 1.500 . S
C98 C99 1.377 . S
C98 C103 1.417 . S
C99 C98 1.377 . S
C99 C100 1.395 . S
C99 H128 0.931 . S
C100 C99 1.395 . S
C100 C101 1.383 . S
C100 H129 0.931 . S
C101 C100 1.383 . S
C101 C102 1.394 . S
C102 C101 1.394 . S
C102 C103 1.382 . S
C102 H130 0.931 1_655 S
C103 C98 1.417 . S
C103 C102 1.382 . S
C103 H131 0.889 1_655 S
C104 O118 1.282 . S
C104 O119 1.254 1_545 S
C105 O120 1.251 1_455 S
C105 O121 1.251 . S
C106 Eu107 2.835 . S
C106 C108 1.500 . S
C106 O122 1.268 . S
C106 O123 1.260 . S
Eu107 C106 2.835 . S
Eu107 O119 2.355 1_455 S
Eu107 O121 2.374 1_565 S
Eu107 O122 2.477 . S
Eu107 O123 2.480 . S
Eu107 O124 2.430 . S
Eu107 O125 2.670 1_565 S
Eu107 O126 2.394 . S
C108 C106 1.500 . S
C108 C109 1.377 . S
C108 C113 1.428 . S
C109 C108 1.377 . S
C109 C110 1.395 . S
C109 H132 0.931 . S
C110 C109 1.395 . S
C110 C111 1.383 . S
C110 H133 0.931 . S
C111 C110 1.383 . S
C111 C112 1.394 . S
C112 C111 1.394 . S
C112 C113 1.383 . S
C112 H134 0.931 1_455 S
C113 C108 1.428 . S
C113 C112 1.383 . S
C113 H135 0.876 1_455 S
C114 O124 1.275 . S
C114 O125 1.258 1_565 S
C115 O126 1.251 1_655 S
C115 O127 1.251 . S
O116 C96 1.256 . S
O116 Eu97 2.472 . S
O117 C96 1.260 . S
O117 Eu97 2.480 . S
O118 Eu97 2.430 . S
O118 C104 1.282 . S
O119 Eu97 2.670 1_565 S
O119 C104 1.254 1_565 S
O119 Eu107 2.355 1_655 S
O120 Eu97 2.394 . S
O120 C105 1.251 1_655 S
O121 C105 1.251 . S
O121 Eu107 2.374 1_545 S
O122 C106 1.268 . S
O122 Eu107 2.477 . S
O123 C106 1.260 . S
O123 Eu107 2.480 . S
O124 Eu107 2.430 . S
O124 C114 1.275 . S
O125 Eu97 2.355 1_455 S
O125 Eu107 2.670 1_545 S
O125 C114 1.258 1_545 S
O126 Eu107 2.394 . S
O126 C115 1.251 1_455 S
O127 Eu97 2.374 1_565 S
O127 C115 1.251 . S
H128 C99 0.931 . S
H129 C100 0.931 . S
H130 C102 0.931 1_455 S
H131 C103 0.889 1_455 S
H132 C109 0.931 . S
H133 C110 0.931 . S
H134 C112 0.931 1_655 S
H135 C113 0.876 1_655 S
C136 Eu137 2.835 . S
C136 C138 1.500 . S
C136 O156 1.252 . S
C136 O157 1.260 . S
Eu137 C136 2.835 . S
Eu137 O156 2.470 . S
Eu137 O157 2.480 . S
Eu137 O158 2.430 . S
Eu137 O159 2.670 . S
Eu137 O160 2.394 . S
Eu137 O165 2.355 1_565 S
Eu137 O167 2.374 . S
C138 C136 1.500 . S
C138 C139 1.377 . S
C138 C143 1.409 . S
C139 C138 1.377 . S
C139 C140 1.395 . S
C139 H168 0.931 . S
C140 C139 1.395 . S
C140 C141 1.383 . S
C140 H169 0.931 . S
C141 C140 1.383 . S
C141 C142 1.394 . S
C142 C141 1.394 . S
C142 C143 1.381 . S
C142 H170 0.931 1_565 S
C143 C138 1.409 . S
C143 C142 1.381 . S
C143 H171 0.896 1_565 S
C144 O158 1.259 . S
C144 O159 1.270 . S
C145 O160 1.251 1_545 S
C145 O161 1.251 . S
C146 Eu147 2.835 . S
C146 C148 1.500 . S
C146 O162 1.264 . S
C146 O163 1.260 . S
Eu147 C146 2.835 . S
Eu147 O159 2.355 1_545 S
Eu147 O161 2.374 . S
Eu147 O162 2.476 . S
Eu147 O163 2.480 . S
Eu147 O164 2.430 . S
Eu147 O165 2.670 . S
Eu147 O166 2.394 . S
C148 C146 1.500 . S
C148 C149 1.377 . S
C148 C153 1.421 . S
C149 C148 1.377 . S
C149 C150 1.395 . S
C149 H172 0.931 . S
C150 C149 1.395 . S
C150 C151 1.383 . S
C150 H173 0.931 . S
C151 C150 1.383 . S
C151 C152 1.394 . S
C152 C151 1.394 . S
C152 C153 1.382 . S
C152 H174 0.931 1_545 S
C153 C148 1.421 . S
C153 C152 1.382 . S
C153 H175 0.884 1_545 S
C154 O164 1.259 . S
C154 O165 1.270 . S
C155 O166 1.251 1_565 S
C155 O167 1.251 . S
O156 C136 1.252 . S
O156 Eu137 2.470 . S
O157 C136 1.260 . S
O157 Eu137 2.480 . S
O158 Eu137 2.430 . S
O158 C144 1.259 . S
O159 Eu137 2.670 . S
O159 C144 1.270 . S
O159 Eu147 2.355 1_565 S
O160 Eu137 2.394 . S
O160 C145 1.251 1_565 S
O161 C145 1.251 . S
O161 Eu147 2.374 . S
O162 C146 1.264 . S
O162 Eu147 2.476 . S
O163 C146 1.260 . S
O163 Eu147 2.480 . S
O164 Eu147 2.430 . S
O164 C154 1.259 . S
O165 Eu137 2.355 1_545 S
O165 Eu147 2.670 . S
O165 C154 1.270 . S
O166 Eu147 2.394 . S
O166 C155 1.251 1_545 S
O167 Eu137 2.374 . S
O167 C155 1.251 . S
H168 C139 0.931 . S
H169 C140 0.931 . S
H170 C142 0.931 1_545 S
H171 C143 0.896 1_545 S
H172 C149 0.931 . S
H173 C150 0.931 . S
H174 C152 0.931 1_565 S
H175 C153 0.884 1_565 S
C176 Eu177 2.835 . S
C176 C178 1.500 . S
C176 O196 1.257 . S
C176 O197 1.260 . S
Eu177 C176 2.835 . S
Eu177 O196 2.473 . S
Eu177 O197 2.480 . S
Eu177 O198 2.430 . S
Eu177 O199 2.670 . S
Eu177 O200 2.394 . S
Eu177 O205 2.355 . S
Eu177 O207 2.374 . S
C178 C176 1.500 . S
C178 C179 1.377 . S
C178 C183 1.377 . S
C179 C178 1.377 . S
C179 C180 1.395 . S
C179 H208 0.931 . S
C180 C179 1.395 . S
C180 C181 1.383 . S
C180 H209 0.931 . S
C181 C180 1.383 . S
C181 C182 1.394 . S
C182 C181 1.394 . S
C182 C183 1.378 . S
C182 H210 0.931 . S
C183 C178 1.377 . S
C183 C182 1.378 . S
C183 H211 0.931 . S
C184 O198 1.259 . S
C184 O199 1.270 . S
C185 O200 1.251 . S
C185 O201 1.251 . S
C186 Eu187 2.835 . S
C186 C188 1.500 . S
C186 O202 1.257 . S
C186 O203 1.260 . S
Eu187 C186 2.835 . S
Eu187 O199 2.355 . S
Eu187 O201 2.374 . S
Eu187 O202 2.473 . S
Eu187 O203 2.480 . S
Eu187 O204 2.430 . S
Eu187 O205 2.670 . S
Eu187 O206 2.394 . S
C188 C186 1.500 . S
C188 C189 1.377 . S
C188 C193 1.377 . S
C189 C188 1.377 . S
C189 C190 1.395 . S
C189 H212 0.931 . S
C190 C189 1.395 . S
C190 C191 1.383 . S
C190 H213 0.931 . S
C191 C190 1.383 . S
C191 C192 1.394 . S
C192 C191 1.394 . S
C192 C193 1.378 . S
C192 H214 0.931 . S
C193 C188 1.377 . S
C193 C192 1.378 . S
C193 H215 0.931 . S
C194 O204 1.259 . S
C194 O205 1.270 . S
C195 O206 1.251 . S
C195 O207 1.251 . S
O196 C176 1.257 . S
O196 Eu177 2.473 . S
O197 C176 1.260 . S
O197 Eu177 2.480 . S
O198 Eu177 2.430 . S
O198 C184 1.259 . S
O199 Eu177 2.670 . S
O199 C184 1.270 . S
O199 Eu187 2.355 . S
O200 Eu177 2.394 . S
O200 C185 1.251 . S
O201 C185 1.251 . S
O201 Eu187 2.374 . S
O202 C186 1.257 . S
O202 Eu187 2.473 . S
O203 C186 1.260 . S
O203 Eu187 2.480 . S
O204 Eu187 2.430 . S
O204 C194 1.259 . S
O205 Eu177 2.355 . S
O205 Eu187 2.670 . S
O205 C194 1.270 . S
O206 Eu187 2.394 . S
O206 C195 1.251 . S
O207 Eu177 2.374 . S
O207 C195 1.251 . S
H208 C179 0.931 . S
H209 C180 0.931 . S
H210 C182 0.931 . S
H211 C183 0.931 . S
H212 C189 0.931 . S
H213 C190 0.931 . S
H214 C192 0.931 . S
H215 C193 0.931 . S
C216 Eu217 2.835 . S
C216 C218 1.500 . S
C216 O236 1.257 . S
C216 O237 1.260 . S
Eu217 C216 2.835 . S
Eu217 O236 2.473 . S
Eu217 O237 2.480 . S
Eu217 O238 2.430 . S
Eu217 O239 2.670 1_455 S
Eu217 O240 2.394 . S
Eu217 O245 2.355 . S
Eu217 O247 2.374 1_455 S
C218 C216 1.500 . S
C218 C219 1.377 . S
C218 C223 1.377 . S
C219 C218 1.377 . S
C219 C220 1.395 . S
C219 H248 0.931 . S
C220 C219 1.395 . S
C220 C221 1.383 . S
C220 H249 0.931 . S
C221 C220 1.383 . S
C221 C222 1.394 . S
C222 C221 1.394 . S
C222 C223 1.378 . S
C222 H250 0.931 . S
C223 C218 1.377 . S
C223 C222 1.378 . S
C223 H251 0.931 . S
C224 O238 1.277 . S
C224 O239 1.257 1_455 S
C225 O240 1.251 . S
C225 O241 1.251 . S
C226 Eu227 2.835 . S
C226 C228 1.500 . S
C226 O242 1.257 . S
C226 O243 1.260 . S
Eu227 C226 2.835 . S
Eu227 O239 2.355 . S
Eu227 O241 2.374 1_655 S
Eu227 O242 2.473 . S
Eu227 O243 2.480 . S
Eu227 O244 2.430 . S
Eu227 O245 2.670 1_655 S
Eu227 O246 2.394 . S
C228 C226 1.500 . S
C228 C229 1.377 . S
C228 C233 1.377 . S
C229 C228 1.377 . S
C229 C230 1.395 . S
C229 H252 0.931 . S
C230 C229 1.395 . S
C230 C231 1.383 . S
C230 H253 0.931 . S
C231 C230 1.383 . S
C231 C232 1.394 . S
C232 C231 1.394 . S
C232 C233 1.378 . S
C232 H254 0.931 . S
C233 C228 1.377 . S
C233 C232 1.378 . S
C233 H255 0.931 . S
C234 O244 1.270 . S
C234 O245 1.262 1_655 S
C235 O246 1.251 . S
C235 O247 1.251 . S
O236 C216 1.257 . S
O236 Eu217 2.473 . S
O237 C216 1.260 . S
O237 Eu217 2.480 . S
O238 Eu217 2.430 . S
O238 C224 1.277 . S
O239 Eu217 2.670 1_655 S
O239 C224 1.257 1_655 S
O239 Eu227 2.355 . S
O240 Eu217 2.394 . S
O240 C225 1.251 . S
O241 C225 1.251 . S
O241 Eu227 2.374 1_455 S
O242 C226 1.257 . S
O242 Eu227 2.473 . S
O243 C226 1.260 . S
O243 Eu227 2.480 . S
O244 Eu227 2.430 . S
O244 C234 1.270 . S
O245 Eu217 2.355 . S
O245 Eu227 2.670 1_455 S
O245 C234 1.262 1_455 S
O246 Eu227 2.394 . S
O246 C235 1.251 . S
O247 Eu217 2.374 1_655 S
O247 C235 1.251 . S
H248 C219 0.931 . S
H249 C220 0.931 . S
H250 C222 0.931 . S
H251 C223 0.931 . S
H252 C229 0.931 . S
H253 C230 0.931 . S
H254 C232 0.931 . S
H255 C233 0.931 . S
C256 C257 1.351 . S
C256 C258 1.327 . S
C256 H281 0.950 . S
C257 C256 1.351 . S
C257 C273 1.347 1_545 S
C258 C256 1.327 . S
C258 C277 1.436 . S
C258 H282 0.950 . S
C259 C276 1.574 . S
C259 C278 1.357 1_565 S
C259 H283 0.949 . S
H260 C264 0.949 . S
C261 C262 1.325 1_565 S
C261 C263 1.327 . S
C261 H284 0.950 . S
C262 C261 1.325 1_545 S
C262 C274 1.373 . S
C263 C261 1.327 . S
C263 C279 1.411 1_565 S
C263 H285 0.950 . S
C264 H260 0.949 . S
C264 C272 1.574 . S
C264 C280 1.385 . S
H265 C273 0.950 . S
H266 C271 0.950 . S
H267 C272 0.949 . S
H268 C274 0.950 . S
H269 C275 0.950 . S
H270 C276 0.949 . S
C271 H266 0.950 . S
C271 C273 1.327 . S
C271 C277 1.421 1_565 S
C272 C264 1.574 . S
C272 H267 0.949 . S
C272 C278 1.379 . S
C273 C257 1.347 1_565 S
C273 H265 0.950 . S
C273 C271 1.327 . S
C274 C262 1.373 . S
C274 H268 0.950 . S
C274 C275 1.327 . S
C275 H269 0.950 . S
C275 C274 1.327 . S
C275 C279 1.446 . S
C276 C259 1.574 . S
C276 H270 0.949 . S
C276 C280 1.352 1_565 S
C277 C258 1.436 . S
C277 C271 1.421 1_545 S
C277 C278 1.523 . S
C278 C259 1.357 1_545 S
C278 C272 1.379 . S
C278 C277 1.523 . S
C279 C263 1.411 1_545 S
C279 C275 1.446 . S
C279 C280 1.523 . S
C280 C264 1.385 . S
C280 C276 1.352 1_545 S
C280 C279 1.523 . S
H281 C256 0.950 . S
H282 C258 0.950 . S
H283 C259 0.949 . S
H284 C261 0.950 . S
H285 C263 0.950 . S
C286 C287 1.349 . S
C286 C288 1.327 . S
C286 H311 0.950 . S
C287 C286 1.349 . S
C287 C303 1.349 . S
C288 C286 1.327 . S
C288 C307 1.429 . S
C288 H312 0.950 . S
C289 C306 1.574 . S
C289 C308 1.368 . S
C289 H313 0.949 . S
H290 C294 0.949 . S
C291 C292 1.349 . S
C291 C293 1.327 . S
C291 H314 0.950 . S
C292 C291 1.349 . S
C292 C304 1.349 . S
C293 C291 1.327 . S
C293 C309 1.429 . S
C293 H315 0.950 . S
C294 H290 0.949 . S
C294 C302 1.574 . S
C294 C310 1.368 . S
H295 C303 0.950 . S
H296 C301 0.950 . S
H297 C302 0.949 . S
H298 C304 0.950 . S
H299 C305 0.950 . S
H300 C306 0.949 . S
C301 H296 0.950 . S
C301 C303 1.327 . S
C301 C307 1.429 . S
C302 C294 1.574 . S
C302 H297 0.949 . S
C302 C308 1.368 . S
C303 C287 1.349 . S
C303 H295 0.950 . S
C303 C301 1.327 . S
C304 C292 1.349 . S
C304 H298 0.950 . S
C304 C305 1.327 . S
C305 H299 0.950 . S
C305 C304 1.327 . S
C305 C309 1.429 . S
C306 C289 1.574 . S
C306 H300 0.949 . S
C306 C310 1.368 . S
C307 C288 1.429 . S
C307 C301 1.429 . S
C307 C308 1.523 . S
C308 C289 1.368 . S
C308 C302 1.368 . S
C308 C307 1.523 . S
C309 C293 1.429 . S
C309 C305 1.429 . S
C309 C310 1.523 . S
C310 C294 1.368 . S
C310 C306 1.368 . S
C310 C309 1.523 . S
H311 C286 0.950 . S
H312 C288 0.950 . S
H313 C289 0.949 . S
H314 C291 0.950 . S
H315 C293 0.950 . S
C316 C317 1.349 . S
C316 C318 1.327 . S
C316 H341 0.950 . S
C317 C316 1.349 . S
C317 C333 1.349 . S
C318 C316 1.327 . S
C318 C337 1.429 . S
C318 H342 0.950 . S
C319 C336 1.574 . S
C319 C338 1.368 . S
C319 H343 0.949 . S
H320 C324 0.949 . S
C321 C322 1.349 . S
C321 C323 1.327 . S
C321 H344 0.950 . S
C322 C321 1.349 . S
C322 C334 1.349 . S
C323 C321 1.327 . S
C323 C339 1.429 . S
C323 H345 0.950 . S
C324 H320 0.949 . S
C324 C332 1.574 . S
C324 C340 1.368 . S
H325 C333 0.950 . S
H326 C331 0.950 . S
H327 C332 0.949 . S
H328 C334 0.950 . S
H329 C335 0.950 . S
H330 C336 0.949 . S
C331 H326 0.950 . S
C331 C333 1.327 . S
C331 C337 1.429 . S
C332 C324 1.574 . S
C332 H327 0.949 . S
C332 C338 1.368 . S
C333 C317 1.349 . S
C333 H325 0.950 . S
C333 C331 1.327 . S
C334 C322 1.349 . S
C334 H328 0.950 . S
C334 C335 1.327 . S
C335 H329 0.950 . S
C335 C334 1.327 . S
C335 C339 1.429 . S
C336 C319 1.574 . S
C336 H330 0.949 . S
C336 C340 1.368 . S
C337 C318 1.429 . S
C337 C331 1.429 . S
C337 C338 1.523 . S
C338 C319 1.368 . S
C338 C332 1.368 . S
C338 C337 1.523 . S
C339 C323 1.429 . S
C339 C335 1.429 . S
C339 C340 1.523 . S
C340 C324 1.368 . S
C340 C336 1.368 . S
C340 C339 1.523 . S
H341 C316 0.950 . S
H342 C318 0.950 . S
H343 C319 0.949 . S
H344 C321 0.950 . S
H345 C323 0.950 . S
C346 C347 1.350 . S
C346 C348 1.327 . S
C346 H371 0.950 . S
C347 C346 1.350 . S
C347 C363 1.347 1_455 S
C348 C346 1.327 . S
C348 C367 1.435 . S
C348 H372 0.950 . S
C349 C366 1.574 . S
C349 C368 1.359 1_655 S
C349 H373 0.949 . S
H350 C354 0.949 . S
C351 C352 1.329 1_655 S
C351 C353 1.327 . S
C351 H374 0.950 . S
C352 C351 1.329 1_455 S
C352 C364 1.370 . S
C353 C351 1.327 . S
C353 C369 1.414 1_655 S
C353 H375 0.950 . S
C354 H350 0.949 . S
C354 C362 1.574 . S
C354 C370 1.383 . S
H355 C363 0.950 . S
H356 C361 0.950 . S
H357 C362 0.949 . S
H358 C364 0.950 . S
H359 C365 0.950 . S
H360 C366 0.949 . S
C361 H356 0.950 . S
C361 C363 1.327 . S
C361 C367 1.423 1_655 S
C362 C354 1.574 . S
C362 H357 0.949 . S
C362 C368 1.378 . S
C363 C347 1.347 1_655 S
C363 H355 0.950 . S
C363 C361 1.327 . S
C364 C352 1.370 . S
C364 H358 0.950 . S
C364 C365 1.327 . S
C365 H359 0.950 . S
C365 C364 1.327 . S
C365 C369 1.444 . S
C366 C349 1.574 . S
C366 H360 0.949 . S
C366 C370 1.354 1_655 S
C367 C348 1.435 . S
C367 C361 1.423 1_455 S
C367 C368 1.523 . S
C368 C349 1.359 1_455 S
C368 C362 1.378 . S
C368 C367 1.523 . S
C369 C353 1.414 1_455 S
C369 C365 1.444 . S
C369 C370 1.523 . S
C370 C354 1.383 . S
C370 C366 1.354 1_455 S
C370 C369 1.523 . S
H371 C346 0.950 . S
H372 C348 0.950 . S
H373 C349 0.949 . S
H374 C351 0.950 . S
H375 C353 0.950 . S
C376 C377 1.347 . S
C376 C378 1.327 . S
C376 H401 0.950 . S
C377 C376 1.347 . S
C377 C393 1.351 1_545 S
C378 C376 1.327 . S
C378 C397 1.431 1_545 S
C378 H402 0.950 . S
C379 C396 1.574 1_554 S
C379 C398 1.369 . S
C379 H403 0.949 . S
H380 C384 0.949 . S
C381 C382 1.363 . S
C381 C383 1.327 . S
C381 H404 0.950 . S
C382 C381 1.363 . S
C382 C394 1.335 1_565 S
C383 C381 1.327 . S
C383 C399 1.437 . S
C383 H405 0.950 . S
C384 H380 0.949 . S
C384 C392 1.574 . S
C384 C400 1.362 1_545 S
H385 C393 0.950 . S
H386 C391 0.950 . S
H387 C392 0.949 . S
H388 C394 0.950 . S
H389 C395 0.950 . S
H390 C396 0.949 . S
C391 H386 0.950 . S
C391 C393 1.327 . S
C391 C397 1.426 . S
C392 C384 1.574 . S
C392 H387 0.949 . S
C392 C398 1.368 1_545 S
C393 C377 1.351 1_565 S
C393 H385 0.950 . S
C393 C391 1.327 . S
C394 C382 1.335 1_545 S
C394 H388 0.950 . S
C394 C395 1.327 . S
C395 H389 0.950 . S
C395 C394 1.327 . S
C395 C399 1.420 1_545 S
C396 C379 1.574 1_556 S
C396 H390 0.949 . S
C396 C400 1.374 1_556 S
C397 C378 1.431 1_565 S
C397 C391 1.426 . S
C397 C398 1.523 . S
C398 C379 1.369 . S
C398 C392 1.368 1_565 S
C398 C397 1.523 . S
C399 C383 1.437 . S
C399 C395 1.420 1_565 S
C399 C400 1.523 1_556 S
C400 C384 1.362 1_565 S
C400 C396 1.374 1_554 S
C400 C399 1.523 1_554 S
H401 C376 0.950 . S
H402 C378 0.950 . S
H403 C379 0.949 . S
H404 C381 0.950 . S
H405 C383 0.950 . S
C406 C407 1.349 . S
C406 C408 1.327 . S
C406 H431 0.950 . S
C407 C406 1.349 . S
C407 C423 1.349 . S
C408 C406 1.327 . S
C408 C427 1.429 . S
C408 H432 0.950 . S
C409 C426 1.574 1_554 S
C409 C428 1.368 . S
C409 H433 0.949 . S
H410 C414 0.949 . S
C411 C412 1.349 . S
C411 C413 1.327 . S
C411 H434 0.950 . S
C412 C411 1.349 . S
C412 C424 1.349 . S
C413 C411 1.327 . S
C413 C429 1.429 . S
C413 H435 0.950 . S
C414 H410 0.949 . S
C414 C422 1.574 . S
C414 C430 1.368 . S
H415 C423 0.950 . S
H416 C421 0.950 . S
H417 C422 0.949 . S
H418 C424 0.950 . S
H419 C425 0.950 1_554 S
H420 C426 0.949 . S
C421 H416 0.950 . S
C421 C423 1.327 . S
C421 C427 1.429 . S
C422 C414 1.574 . S
C422 H417 0.949 . S
C422 C428 1.368 . S
C423 C407 1.349 . S
C423 H415 0.950 . S
C423 C421 1.327 . S
C424 C412 1.349 . S
C424 H418 0.950 . S
C424 C425 1.327 . S
C425 H419 0.950 1_556 S
C425 C424 1.327 . S
C425 C429 1.429 . S
C426 C409 1.574 1_556 S
C426 H420 0.949 . S
C426 C430 1.368 1_556 S
C427 C408 1.429 . S
C427 C421 1.429 . S
C427 C428 1.523 . S
C428 C409 1.368 . S
C428 C422 1.368 . S
C428 C427 1.523 . S
C429 C413 1.429 . S
C429 C425 1.429 . S
C429 C430 1.523 1_556 S
C430 C414 1.368 . S
C430 C426 1.368 1_554 S
C430 C429 1.523 1_554 S
H431 C406 0.950 . S
H432 C408 0.950 . S
H433 C409 0.949 . S
H434 C411 0.950 . S
H435 C413 0.950 . S
C436 C437 1.349 . S
C436 C438 1.327 . S
C436 H461 0.950 . S
C437 C436 1.349 . S
C437 C453 1.349 . S
C438 C436 1.327 . S
C438 C457 1.429 . S
C438 H462 0.950 . S
C439 C456 1.574 1_554 S
C439 C458 1.368 . S
C439 H463 0.949 . S
H440 C444 0.949 . S
C441 C442 1.349 . S
C441 C443 1.327 . S
C441 H464 0.950 . S
C442 C441 1.349 . S
C442 C454 1.349 . S
C443 C441 1.327 . S
C443 C459 1.429 . S
C443 H465 0.950 . S
C444 H440 0.949 . S
C444 C452 1.574 . S
C444 C460 1.368 . S
H445 C453 0.950 . S
H446 C451 0.950 . S
H447 C452 0.949 . S
H448 C454 0.950 . S
H449 C455 0.950 . S
H450 C456 0.949 . S
C451 H446 0.950 . S
C451 C453 1.327 . S
C451 C457 1.429 . S
C452 C444 1.574 . S
C452 H447 0.949 . S
C452 C458 1.368 . S
C453 C437 1.349 . S
C453 H445 0.950 . S
C453 C451 1.327 . S
C454 C442 1.349 . S
C454 H448 0.950 . S
C454 C455 1.327 . S
C455 H449 0.950 . S
C455 C454 1.327 . S
C455 C459 1.429 . S
C456 C439 1.574 1_556 S
C456 H450 0.949 . S
C456 C460 1.368 1_556 S
C457 C438 1.429 . S
C457 C451 1.429 . S
C457 C458 1.523 . S
C458 C439 1.368 . S
C458 C452 1.368 . S
C458 C457 1.523 . S
C459 C443 1.429 . S
C459 C455 1.429 . S
C459 C460 1.523 1_556 S
C460 C444 1.368 . S
C460 C456 1.368 1_554 S
C460 C459 1.523 1_554 S
H461 C436 0.950 . S
H462 C438 0.950 . S
H463 C439 0.949 . S
H464 C441 0.950 . S
H465 C443 0.950 . S
C466 C467 1.346 1_455 S
C466 C468 1.327 . S
C466 H491 0.950 . S
C467 C466 1.346 1_655 S
C467 C483 1.351 . S
C468 C466 1.327 . S
C468 C487 1.420 1_455 S
C468 H492 0.950 . S
C469 C486 1.574 . S
C469 C488 1.382 . S
C469 H493 0.949 . S
H470 C474 0.949 . S
C471 C472 1.378 . S
C471 C473 1.327 . S
C471 H494 0.950 . S
C472 C471 1.378 . S
C472 C484 1.320 1_655 S
C473 C471 1.327 . S
C473 C489 1.451 . S
C473 H495 0.950 . S
C474 H470 0.949 . S
C474 C482 1.574 1_556 S
C474 C490 1.348 1_456 S
H475 C483 0.950 . S
H476 C481 0.950 . S
H477 C482 0.949 . S
H478 C484 0.950 . S
H479 C485 0.950 . S
H480 C486 0.949 . S
C481 H476 0.950 . S
C481 C483 1.327 . S
C481 C487 1.437 . S
C482 C474 1.574 1_554 S
C482 H477 0.949 . S
C482 C488 1.355 1_455 S
C483 C467 1.351 . S
C483 H475 0.950 . S
C483 C481 1.327 . S
C484 C472 1.320 1_455 S
C484 H478 0.950 . S
C484 C485 1.327 . S
C485 H479 0.950 . S
C485 C484 1.327 . S
C485 C489 1.407 1_455 S
C486 C469 1.574 . S
C486 H480 0.949 . S
C486 C490 1.389 . S
C487 C468 1.420 1_655 S
C487 C481 1.437 . S
C487 C488 1.523 . S
C488 C469 1.382 . S
C488 C482 1.355 1_655 S
C488 C487 1.523 . S
C489 C473 1.451 . S
C489 C485 1.407 1_655 S
C489 C490 1.523 1_556 S
C490 C474 1.348 1_654 S
C490 C486 1.389 . S
C490 C489 1.523 1_554 S
H491 C466 0.950 . S
H492 C468 0.950 . S
H493 C469 0.949 . S
H494 C471 0.950 . S
H495 C473 0.950 . S
C496 C497 1.349 . S
C496 C498 1.327 . S
C496 H521 0.950 . S
C497 C496 1.349 . S
C497 C513 1.349 1_455 S
C498 C496 1.327 . S
C498 C517 1.429 1_455 S
C498 H522 0.950 . S
C499 C516 1.574 . S
C499 C518 1.368 . S
C499 H523 0.949 . S
H500 C504 0.950 1_455 S
C501 C502 1.349 . S
C501 C503 1.327 . S
C501 H524 0.950 . S
C502 C501 1.349 . S
C502 C514 1.349 . S
C503 C501 1.327 . S
C503 C519 1.429 . S
C503 H525 0.950 . S
C504 H500 0.950 1_655 S
C504 C512 1.580 . S
C504 C520 1.368 . S
H505 C513 0.950 . S
H506 C511 0.950 . S
H507 C512 0.931 1_455 S
H508 C514 0.950 . S
H509 C515 0.950 . S
H510 C516 0.949 . S
C511 H506 0.950 . S
C511 C513 1.327 . S
C511 C517 1.429 . S
C512 C504 1.580 . S
C512 H507 0.931 1_655 S
C512 C518 1.384 . S
C513 C497 1.349 1_655 S
C513 H505 0.950 . S
C513 C511 1.327 . S
C514 C502 1.349 . S
C514 H508 0.950 . S
C514 C515 1.327 . S
C515 H509 0.950 . S
C515 C514 1.327 . S
C515 C519 1.429 . S
C516 C499 1.574 . S
C516 H510 0.949 . S
C516 C520 1.368 . S
C517 C498 1.429 1_655 S
C517 C511 1.429 . S
C517 C518 1.523 . S
C518 C499 1.368 . S
C518 C512 1.384 . S
C518 C517 1.523 . S
C519 C503 1.429 . S
C519 C515 1.429 . S
C519 C520 1.523 . S
C520 C504 1.368 . S
C520 C516 1.368 . S
C520 C519 1.523 . S
H521 C496 0.950 . S
H522 C498 0.950 . S
H523 C499 0.949 . S
H524 C501 0.950 . S
H525 C503 0.950 . S
C526 C527 1.349 . S
C526 C528 1.327 . S
C526 H551 0.950 . S
C527 C526 1.349 . S
C527 C543 1.349 1_545 S
C528 C526 1.327 . S
C528 C547 1.429 1_545 S
C528 H552 0.950 . S
C529 C546 1.574 . S
C529 C548 1.368 . S
C529 H553 0.949 . S
H530 C534 0.949 . S
C531 C532 1.349 . S
C531 C533 1.327 . S
C531 H554 0.950 . S
C532 C531 1.349 . S
C532 C544 1.349 . S
C533 C531 1.327 . S
C533 C549 1.429 . S
C533 H555 0.950 . S
C534 H530 0.949 . S
C534 C542 1.574 . S
C534 C550 1.368 1_545 S
H535 C543 0.950 . S
H536 C541 0.950 . S
H537 C542 0.949 . S
H538 C544 0.980 . S
H539 C545 0.950 1_545 S
H540 C546 0.949 . S
C541 H536 0.950 . S
C541 C543 1.327 . S
C541 C547 1.429 . S
C542 C534 1.574 . S
C542 H537 0.949 . S
C542 C548 1.368 1_545 S
C543 C527 1.349 1_565 S
C543 H535 0.950 . S
C543 C541 1.327 . S
C544 C532 1.349 . S
C544 H538 0.980 . S
C544 C545 1.327 . S
C545 H539 0.950 1_565 S
C545 C544 1.327 . S
C545 C549 1.429 . S
C546 C529 1.574 . S
C546 H540 0.949 . S
C546 C550 1.368 . S
C547 C528 1.429 1_565 S
C547 C541 1.429 . S
C547 C548 1.523 . S
C548 C529 1.368 . S
C548 C542 1.368 1_565 S
C548 C547 1.523 . S
C549 C533 1.429 . S
C549 C545 1.429 . S
C549 C550 1.523 . S
C550 C534 1.368 1_565 S
C550 C546 1.368 . S
C550 C549 1.523 . S
H551 C526 0.950 . S
H552 C528 0.950 . S
H553 C529 0.949 . S
H554 C531 0.950 . S
H555 C533 0.950 . S
C556 C557 1.349 . S
C556 C558 1.327 . S
C556 H581 0.950 . S
C557 C556 1.349 . S
C557 C573 1.349 . S
C558 C556 1.327 . S
C558 C577 1.429 . S
C558 H582 0.950 . S
C559 C576 1.574 . S
C559 C578 1.368 . S
C559 H583 0.949 . S
H560 C564 0.949 . S
C561 C562 1.349 . S
C561 C563 1.327 . S
C561 H584 0.950 . S
C562 C561 1.349 . S
C562 C574 1.349 . S
C563 C561 1.327 . S
C563 C579 1.429 . S
C563 H585 0.950 . S
C564 H560 0.949 . S
C564 C572 1.574 . S
C564 C580 1.368 . S
H565 C573 0.950 . S
H566 C571 0.950 . S
H567 C572 0.949 . S
H568 C574 0.950 . S
H569 C575 0.950 . S
H570 C576 0.949 . S
C571 H566 0.950 . S
C571 C573 1.327 . S
C571 C577 1.429 . S
C572 C564 1.574 . S
C572 H567 0.949 . S
C572 C578 1.368 . S
C573 C557 1.349 . S
C573 H565 0.950 . S
C573 C571 1.327 . S
C574 C562 1.349 . S
C574 H568 0.950 . S
C574 C575 1.327 . S
C575 H569 0.950 . S
C575 C574 1.327 . S
C575 C579 1.429 . S
C576 C559 1.574 . S
C576 H570 0.949 . S
C576 C580 1.368 . S
C577 C558 1.429 . S
C577 C571 1.429 . S
C577 C578 1.523 . S
C578 C559 1.368 . S
C578 C572 1.368 . S
C578 C577 1.523 . S
C579 C563 1.429 . S
C579 C575 1.429 . S
C579 C580 1.523 . S
C580 C564 1.368 . S
C580 C576 1.368 . S
C580 C579 1.523 . S
H581 C556 0.950 . S
H582 C558 0.950 . S
H583 C559 0.949 . S
H584 C561 0.950 . S
H585 C563 0.950 . S
C586 C587 1.349 . S
C586 C588 1.327 . S
C586 H611 0.950 . S
C587 C586 1.349 . S
C587 C603 1.349 . S
C588 C586 1.327 . S
C588 C607 1.429 . S
C588 H612 0.950 . S
C589 C606 1.574 . S
C589 C608 1.368 . S
C589 H613 0.949 . S
H590 C594 0.949 . S
C591 C592 1.349 . S
C591 C593 1.327 . S
C591 H614 0.950 . S
C592 C591 1.349 . S
C592 C604 1.349 . S
C593 C591 1.327 . S
C593 C609 1.429 . S
C593 H615 0.950 . S
C594 H590 0.949 . S
C594 C602 1.574 . S
C594 C610 1.368 . S
H595 C603 0.950 . S
H596 C601 0.950 . S
H597 C602 0.949 . S
H598 C604 0.950 . S
H599 C605 0.950 . S
H600 C606 0.949 . S
C601 H596 0.950 . S
C601 C603 1.327 . S
C601 C607 1.429 . S
C602 C594 1.574 . S
C602 H597 0.949 . S
C602 C608 1.368 . S
C603 C587 1.349 . S
C603 H595 0.950 . S
C603 C601 1.327 . S
C604 C592 1.349 . S
C604 H598 0.950 . S
C604 C605 1.327 . S
C605 H599 0.950 . S
C605 C604 1.327 . S
C605 C609 1.429 . S
C606 C589 1.574 . S
C606 H600 0.949 . S
C606 C610 1.368 . S
C607 C588 1.429 . S
C607 C601 1.429 . S
C607 C608 1.523 . S
C608 C589 1.368 . S
C608 C602 1.368 . S
C608 C607 1.523 . S
C609 C593 1.429 . S
C609 C605 1.429 . S
C609 C610 1.523 . S
C610 C594 1.368 . S
C610 C606 1.368 . S
C610 C609 1.523 . S
H611 C586 0.950 . S
H612 C588 0.950 . S
H613 C589 0.949 . S
H614 C591 0.950 . S
H615 C593 0.950 . S
C616 C617 1.349 1_455 S
C616 C618 1.327 . S
C616 H641 0.950 . S
C617 C616 1.349 1_655 S
C617 C633 1.349 . S
C618 C616 1.327 . S
C618 C637 1.429 . S
C618 H642 0.950 . S
C619 C636 1.574 . S
C619 C638 1.368 . S
C619 H643 0.949 . S
H620 C624 0.949 . S
C621 C622 1.349 . S
C621 C623 1.327 . S
C621 H644 0.950 . S
C622 C621 1.349 . S
C622 C634 1.349 1_556 S
C623 C621 1.327 . S
C623 C639 1.429 1_556 S
C623 H645 0.950 . S
C624 H620 0.949 . S
C624 C632 1.574 . S
C624 C640 1.368 . S
H625 C633 0.950 . S
H626 C631 0.950 . S
H627 C632 0.949 . S
H628 C634 0.950 . S
H629 C635 0.950 . S
H630 C636 0.949 . S
C631 H626 0.950 . S
C631 C633 1.327 1_455 S
C631 C637 1.429 . S
C632 C624 1.574 . S
C632 H627 0.949 . S
C632 C638 1.368 . S
C633 C617 1.349 . S
C633 H625 0.950 . S
C633 C631 1.327 1_655 S
C634 C622 1.349 1_554 S
C634 H628 0.950 . S
C634 C635 1.327 . S
C635 H629 0.950 . S
C635 C634 1.327 . S
C635 C639 1.429 . S
C636 C619 1.574 . S
C636 H630 0.949 . S
C636 C640 1.368 . S
C637 C618 1.429 . S
C637 C631 1.429 . S
C637 C638 1.523 . S
C638 C619 1.368 . S
C638 C632 1.368 . S
C638 C637 1.523 . S
C639 C623 1.429 1_554 S
C639 C635 1.429 . S
C639 C640 1.523 . S
C640 C624 1.368 . S
C640 C636 1.368 . S
C640 C639 1.523 . S
H641 C616 0.950 . S
H642 C618 0.950 . S
H643 C619 0.949 . S
H644 C621 0.950 . S
H645 C623 0.950 . S
C646 C647 1.391 . S
C646 C648 1.327 . S
C646 H671 0.950 . S
C647 C646 1.391 . S
C647 C663 1.300 1_565 S
C648 C646 1.327 . S
C648 C667 1.429 1_565 S
C648 H672 0.950 . S
C649 C666 1.574 . S
C649 C668 1.368 . S
C649 H673 0.949 . S
H650 C654 0.949 . S
C651 C652 1.349 . S
C651 C653 1.327 1_556 S
C651 H674 0.950 . S
C652 C651 1.349 . S
C652 C664 1.349 1_556 S
C653 C651 1.327 1_554 S
C653 C669 1.429 . S
C653 H675 0.950 . S
C654 H650 0.949 . S
C654 C662 1.574 . S
C654 C670 1.368 1_565 S
H655 C663 0.950 . S
H656 C661 0.950 . S
H657 C662 0.949 . S
H658 C664 0.950 1_565 S
H659 C665 0.950 1_565 S
H660 C666 0.949 . S
C661 H656 0.950 . S
C661 C663 1.327 . S
C661 C667 1.429 . S
C662 C654 1.574 . S
C662 H657 0.949 . S
C662 C668 1.368 1_565 S
C663 C647 1.300 1_545 S
C663 H655 0.950 . S
C663 C661 1.327 . S
C664 C652 1.349 1_554 S
C664 H658 0.950 1_545 S
C664 C665 1.327 . S
C665 H659 0.950 1_545 S
C665 C664 1.327 . S
C665 C669 1.429 . S
C666 C649 1.574 . S
C666 H660 0.949 . S
C666 C670 1.368 . S
C667 C648 1.429 1_545 S
C667 C661 1.429 . S
C667 C668 1.523 . S
C668 C649 1.368 . S
C668 C662 1.368 1_545 S
C668 C667 1.523 . S
C669 C653 1.429 . S
C669 C665 1.429 . S
C669 C670 1.523 . S
C670 C654 1.368 1_545 S
C670 C666 1.368 . S
C670 C669 1.523 . S
H671 C646 0.950 . S
H672 C648 0.950 . S
H673 C649 0.949 . S
H674 C651 0.950 . S
H675 C653 0.950 . S
C676 C677 1.349 . S
C676 C678 1.327 . S
C676 H701 0.950 . S
C677 C676 1.349 . S
C677 C693 1.349 . S
C678 C676 1.327 . S
C678 C697 1.429 . S
C678 H702 0.950 . S
C679 C696 1.574 . S
C679 C698 1.368 . S
C679 H703 0.949 . S
H680 C684 0.949 . S
C681 C682 1.349 . S
C681 C683 1.327 . S
C681 H704 0.950 . S
C682 C681 1.349 . S
C682 C694 1.349 1_556 S
C683 C681 1.327 . S
C683 C699 1.429 1_556 S
C683 H705 0.950 . S
C684 H680 0.949 . S
C684 C692 1.574 . S
C684 C700 1.368 . S
H685 C693 0.950 . S
H686 C691 0.950 . S
H687 C692 0.949 . S
H688 C694 0.950 . S
H689 C695 0.950 . S
H690 C696 0.949 . S
C691 H686 0.950 . S
C691 C693 1.327 . S
C691 C697 1.429 . S
C692 C684 1.574 . S
C692 H687 0.949 . S
C692 C698 1.368 . S
C693 C677 1.349 . S
C693 H685 0.950 . S
C693 C691 1.327 . S
C694 C682 1.349 1_554 S
C694 H688 0.950 . S
C694 C695 1.327 . S
C695 H689 0.950 . S
C695 C694 1.327 . S
C695 C699 1.429 . S
C696 C679 1.574 . S
C696 H690 0.949 . S
C696 C700 1.368 . S
C697 C678 1.429 . S
C697 C691 1.429 . S
C697 C698 1.523 . S
C698 C679 1.368 . S
C698 C692 1.368 . S
C698 C697 1.523 . S
C699 C683 1.429 1_554 S
C699 C695 1.429 . S
C699 C700 1.523 . S
C700 C684 1.368 . S
C700 C696 1.368 . S
C700 C699 1.523 . S
H701 C676 0.950 . S
H702 C678 0.950 . S
H703 C679 0.949 . S
H704 C681 0.950 . S
H705 C683 0.950 . S
C706 C707 1.349 . S
C706 C708 1.327 . S
C706 H731 0.950 . S
C707 C706 1.349 . S
C707 C723 1.349 . S
C708 C706 1.327 . S
C708 C727 1.429 . S
C708 H732 0.950 . S
C709 C726 1.574 . S
C709 C728 1.368 . S
C709 H733 0.949 . S
H710 C714 0.949 . S
C711 C712 1.349 . S
C711 C713 1.327 1_556 S
C711 H734 0.950 . S
C712 C711 1.349 . S
C712 C724 1.349 1_556 S
C713 C711 1.327 1_554 S
C713 C729 1.429 . S
C713 H735 0.950 . S
C714 H710 0.949 . S
C714 C722 1.574 . S
C714 C730 1.368 . S
H715 C723 0.950 . S
H716 C721 0.950 . S
H717 C722 0.949 . S
H718 C724 0.950 . S
H719 C725 0.950 . S
H720 C726 0.949 . S
C721 H716 0.950 . S
C721 C723 1.327 . S
C721 C727 1.429 . S
C722 C714 1.574 . S
C722 H717 0.949 . S
C722 C728 1.368 . S
C723 C707 1.349 . S
C723 H715 0.950 . S
C723 C721 1.327 . S
C724 C712 1.349 1_554 S
C724 H718 0.950 . S
C724 C725 1.327 . S
C725 H719 0.950 . S
C725 C724 1.327 . S
C725 C729 1.429 . S
C726 C709 1.574 . S
C726 H720 0.949 . S
C726 C730 1.368 . S
C727 C708 1.429 . S
C727 C721 1.429 . S
C727 C728 1.523 . S
C728 C709 1.368 . S
C728 C722 1.368 . S
C728 C727 1.523 . S
C729 C713 1.429 . S
C729 C725 1.429 . S
C729 C730 1.523 . S
C730 C714 1.368 . S
C730 C726 1.368 . S
C730 C729 1.523 . S
H731 C706 0.950 . S
H732 C708 0.950 . S
H733 C709 0.949 . S
H734 C711 0.950 . S
H735 C713 0.950 . S
C736 C737 1.375 . S
C736 C738 1.327 . S
C736 H761 0.950 . S
C737 C736 1.375 . S
C737 C753 1.326 1_455 S
C738 C736 1.327 . S
C738 C757 1.429 . S
C738 H762 0.950 . S
C739 C756 1.574 . S
C739 C758 1.368 1_655 S
C739 H763 0.949 . S
H740 C744 0.949 . S
C741 C742 1.349 1_655 S
C741 C743 1.327 . S
C741 H764 0.950 . S
C742 C741 1.349 1_455 S
C742 C754 1.349 . S
C743 C741 1.327 . S
C743 C759 1.429 1_655 S
C743 H765 0.950 . S
C744 H740 0.949 . S
C744 C752 1.574 . S
C744 C760 1.368 . S
H745 C753 0.950 1_554 S
H746 C751 0.950 . S
H747 C752 0.949 . S
H748 C754 0.950 . S
H749 C755 0.950 . S
H750 C756 0.949 . S
C751 H746 0.950 . S
C751 C753 1.327 . S
C751 C757 1.429 1_655 S
C752 C744 1.574 . S
C752 H747 0.949 . S
C752 C758 1.368 . S
C753 C737 1.326 1_655 S
C753 H745 0.950 1_556 S
C753 C751 1.327 . S
C754 C742 1.349 . S
C754 H748 0.950 . S
C754 C755 1.327 . S
C755 H749 0.950 . S
C755 C754 1.327 . S
C755 C759 1.429 . S
C756 C739 1.574 . S
C756 H750 0.949 . S
C756 C760 1.368 1_655 S
C757 C738 1.429 . S
C757 C751 1.429 1_455 S
C757 C758 1.523 . S
C758 C739 1.368 1_455 S
C758 C752 1.368 . S
C758 C757 1.523 . S
C759 C743 1.429 1_455 S
C759 C755 1.429 . S
C759 C760 1.523 . S
C760 C744 1.368 . S
C760 C756 1.368 1_455 S
C760 C759 1.523 . S
H761 C736 0.950 . S
H762 C738 0.950 . S
H763 C739 0.949 . S
H764 C741 0.950 . S
H765 C743 0.950 . S
C766 C767 1.310 1_565 S
C766 C768 1.327 . S
C766 H791 0.950 . S
C767 C766 1.310 1_545 S
C767 C783 1.390 . S
C768 C766 1.327 . S
C768 C787 1.429 1_565 S
C768 H792 0.950 . S
C769 C786 1.574 . S
C769 C788 1.368 . S
C769 H793 0.949 . S
H770 C774 0.949 . S
C771 C772 1.349 . S
C771 C773 1.327 . S
C771 H794 0.950 . S
C772 C771 1.349 . S
C772 C784 1.349 1_545 S
C773 C771 1.327 . S
C773 C789 1.429 . S
C773 H795 0.950 . S
C774 H770 0.949 . S
C774 C782 1.574 . S
C774 C790 1.368 1_565 S
H775 C783 0.950 . S
H776 C781 0.950 . S
H777 C782 0.949 . S
H778 C784 0.950 . S
H779 C785 0.950 . S
H780 C786 0.949 . S
C781 H776 0.950 . S
C781 C783 1.327 . S
C781 C787 1.429 . S
C782 C774 1.574 . S
C782 H777 0.949 . S
C782 C788 1.368 1_565 S
C783 C767 1.390 . S
C783 H775 0.950 . S
C783 C781 1.327 . S
C784 C772 1.349 1_565 S
C784 H778 0.950 . S
C784 C785 1.327 . S
C785 H779 0.950 . S
C785 C784 1.327 . S
C785 C789 1.429 1_565 S
C786 C769 1.574 . S
C786 H780 0.949 . S
C786 C790 1.368 . S
C787 C768 1.429 1_545 S
C787 C781 1.429 . S
C787 C788 1.523 . S
C788 C769 1.368 . S
C788 C782 1.368 1_545 S
C788 C787 1.523 . S
C789 C773 1.429 . S
C789 C785 1.429 1_545 S
C789 C790 1.523 . S
C790 C774 1.368 1_545 S
C790 C786 1.368 . S
C790 C789 1.523 . S
H791 C766 0.950 . S
H792 C768 0.950 . S
H793 C769 0.949 . S
H794 C771 0.950 . S
H795 C773 0.950 . S
C796 C797 1.349 . S
C796 C798 1.327 . S
C796 H821 0.950 . S
C797 C796 1.349 . S
C797 C813 1.349 . S
C798 C796 1.327 . S
C798 C817 1.429 . S
C798 H822 0.950 . S
C799 C816 1.574 . S
C799 C818 1.368 . S
C799 H823 0.949 . S
H800 C804 0.949 . S
C801 C802 1.349 . S
C801 C803 1.327 . S
C801 H824 0.950 . S
C802 C801 1.349 . S
C802 C814 1.349 . S
C803 C801 1.327 . S
C803 C819 1.429 . S
C803 H825 0.950 . S
C804 H800 0.949 . S
C804 C812 1.574 . S
C804 C820 1.368 . S
H805 C813 0.950 1_554 S
H806 C811 0.950 . S
H807 C812 0.949 . S
H808 C814 0.950 . S
H809 C815 0.950 . S
H810 C816 0.949 . S
C811 H806 0.950 . S
C811 C813 1.327 . S
C811 C817 1.429 . S
C812 C804 1.574 . S
C812 H807 0.949 . S
C812 C818 1.368 . S
C813 C797 1.349 . S
C813 H805 0.950 1_556 S
C813 C811 1.327 . S
C814 C802 1.349 . S
C814 H808 0.950 . S
C814 C815 1.327 . S
C815 H809 0.950 . S
C815 C814 1.327 . S
C815 C819 1.429 . S
C816 C799 1.574 . S
C816 H810 0.949 . S
C816 C820 1.368 . S
C817 C798 1.429 . S
C817 C811 1.429 . S
C817 C818 1.523 . S
C818 C799 1.368 . S
C818 C812 1.368 . S
C818 C817 1.523 . S
C819 C803 1.429 . S
C819 C815 1.429 . S
C819 C820 1.523 . S
C820 C804 1.368 . S
C820 C816 1.368 . S
C820 C819 1.523 . S
H821 C796 0.950 . S
H822 C798 0.950 . S
H823 C799 0.949 . S
H824 C801 0.950 . S
H825 C803 0.950 . S
C826 C827 1.349 . S
C826 C828 1.327 . S
C826 H851 0.950 . S
C827 C826 1.349 . S
C827 C843 1.349 . S
C828 C826 1.327 . S
C828 C847 1.429 . S
C828 H852 0.950 . S
C829 C846 1.574 . S
C829 C848 1.368 . S
C829 H853 0.949 . S
H830 C834 0.949 . S
C831 C832 1.349 . S
C831 C833 1.327 . S
C831 H854 0.950 . S
C832 C831 1.349 . S
C832 C844 1.349 . S
C833 C831 1.327 . S
C833 C849 1.429 . S
C833 H855 0.950 . S
C834 H830 0.949 . S
C834 C842 1.574 . S
C834 C850 1.368 . S
H835 C843 0.950 . S
H836 C841 0.950 . S
H837 C842 0.949 . S
H838 C844 0.950 . S
H839 C845 0.950 . S
H840 C846 0.949 . S
C841 H836 0.950 . S
C841 C843 1.327 . S
C841 C847 1.429 . S
C842 C834 1.574 . S
C842 H837 0.949 . S
C842 C848 1.368 . S
C843 C827 1.349 . S
C843 H835 0.950 . S
C843 C841 1.327 . S
C844 C832 1.349 . S
C844 H838 0.950 . S
C844 C845 1.327 . S
C845 H839 0.950 . S
C845 C844 1.327 . S
C845 C849 1.429 . S
C846 C829 1.574 . S
C846 H840 0.949 . S
C846 C850 1.368 . S
C847 C828 1.429 . S
C847 C841 1.429 . S
C847 C848 1.523 . S
C848 C829 1.368 . S
C848 C842 1.368 . S
C848 C847 1.523 . S
C849 C833 1.429 . S
C849 C845 1.429 . S
C849 C850 1.523 . S
C850 C834 1.368 . S
C850 C846 1.368 . S
C850 C849 1.523 . S
H851 C826 0.950 . S
H852 C828 0.950 . S
H853 C829 0.949 . S
H854 C831 0.950 . S
H855 C833 0.950 . S
C856 C857 1.378 . S
C856 C858 1.327 . S
C856 H881 0.950 . S
C857 C856 1.378 . S
C857 C873 1.323 1_655 S
C858 C856 1.327 . S
C858 C877 1.429 . S
C858 H882 0.950 . S
C859 C876 1.574 . S
C859 C878 1.368 1_455 S
C859 H883 0.949 . S
H860 C864 0.949 . S
C861 C862 1.349 1_455 S
C861 C863 1.327 . S
C861 H884 0.950 . S
C862 C861 1.349 1_655 S
C862 C874 1.349 . S
C863 C861 1.327 . S
C863 C879 1.429 1_455 S
C863 H885 0.950 . S
C864 H860 0.949 . S
C864 C872 1.574 . S
C864 C880 1.368 . S
H865 C873 0.950 . S
H866 C871 0.950 . S
H867 C872 0.949 . S
H868 C874 0.950 . S
H869 C875 0.950 . S
H870 C876 0.949 . S
C871 H866 0.950 . S
C871 C873 1.327 . S
C871 C877 1.429 1_455 S
C872 C864 1.574 . S
C872 H867 0.949 . S
C872 C878 1.368 . S
C873 C857 1.323 1_455 S
C873 H865 0.950 . S
C873 C871 1.327 . S
C874 C862 1.349 . S
C874 H868 0.950 . S
C874 C875 1.327 . S
C875 H869 0.950 . S
C875 C874 1.327 . S
C875 C879 1.429 . S
C876 C859 1.574 . S
C876 H870 0.949 . S
C876 C880 1.368 1_455 S
C877 C858 1.429 . S
C877 C871 1.429 1_655 S
C877 C878 1.523 . S
C878 C859 1.368 1_655 S
C878 C872 1.368 . S
C878 C877 1.523 . S
C879 C863 1.429 1_655 S
C879 C875 1.429 . S
C879 C880 1.523 . S
C880 C864 1.368 . S
C880 C876 1.368 1_655 S
C880 C879 1.523 . S
H881 C856 0.950 . S
H882 C858 0.950 . S
H883 C859 0.949 . S
H884 C861 0.950 . S
H885 C863 0.950 . S
C886 C887 1.318 1_545 S
C886 C888 1.327 . S
C886 H911 0.950 . S
C887 C886 1.318 1_565 S
C887 C903 1.381 . S
C888 C886 1.327 . S
C888 C907 1.429 1_545 S
C888 H912 0.950 . S
C889 C906 1.574 . S
C889 C908 1.368 . S
C889 H913 0.949 . S
H890 C894 0.949 . S
C891 C892 1.349 . S
C891 C893 1.327 . S
C891 H914 0.950 . S
C892 C891 1.349 . S
C892 C904 1.349 1_565 S
C893 C891 1.327 . S
C893 C909 1.429 . S
C893 H915 0.950 . S
C894 H890 0.949 . S
C894 C902 1.574 . S
C894 C910 1.368 1_545 S
H895 C903 0.950 . S
H896 C901 0.950 . S
H897 C902 0.949 . S
H898 C904 0.950 . S
H899 C905 0.950 . S
H900 C906 0.949 . S
C901 H896 0.950 . S
C901 C903 1.327 . S
C901 C907 1.429 . S
C902 C894 1.574 . S
C902 H897 0.949 . S
C902 C908 1.368 1_545 S
C903 C887 1.381 . S
C903 H895 0.950 . S
C903 C901 1.327 . S
C904 C892 1.349 1_545 S
C904 H898 0.950 . S
C904 C905 1.327 . S
C905 H899 0.950 . S
C905 C904 1.327 . S
C905 C909 1.429 1_545 S
C906 C889 1.574 . S
C906 H900 0.949 . S
C906 C910 1.368 . S
C907 C888 1.429 1_565 S
C907 C901 1.429 . S
C907 C908 1.523 . S
C908 C889 1.368 . S
C908 C902 1.368 1_565 S
C908 C907 1.523 . S
C909 C893 1.429 . S
C909 C905 1.429 1_565 S
C909 C910 1.523 . S
C910 C894 1.368 1_565 S
C910 C906 1.368 . S
C910 C909 1.523 . S
H911 C886 0.950 . S
H912 C888 0.950 . S
H913 C889 0.949 . S
H914 C891 0.950 . S
H915 C893 0.950 . S
C916 C917 1.349 . S
C916 C918 1.327 . S
C916 H941 0.950 . S
C917 C916 1.349 . S
C917 C933 1.349 . S
C918 C916 1.327 . S
C918 C937 1.429 . S
C918 H942 0.950 . S
C919 C936 1.574 . S
C919 C938 1.368 . S
C919 H943 0.949 . S
H920 C924 0.949 . S
C921 C922 1.349 . S
C921 C923 1.327 . S
C921 H944 0.950 . S
C922 C921 1.349 . S
C922 C934 1.349 . S
C923 C921 1.327 . S
C923 C939 1.429 . S
C923 H945 0.950 . S
C924 H920 0.949 . S
C924 C932 1.574 . S
C924 C940 1.368 . S
H925 C933 0.950 . S
H926 C931 0.950 . S
H927 C932 0.949 . S
H928 C934 0.950 . S
H929 C935 0.950 . S
H930 C936 0.949 . S
C931 H926 0.950 . S
C931 C933 1.327 . S
C931 C937 1.429 . S
C932 C924 1.574 . S
C932 H927 0.949 . S
C932 C938 1.368 . S
C933 C917 1.349 . S
C933 H925 0.950 . S
C933 C931 1.327 . S
C934 C922 1.349 . S
C934 H928 0.950 . S
C934 C935 1.327 . S
C935 H929 0.950 . S
C935 C934 1.327 . S
C935 C939 1.429 . S
C936 C919 1.574 . S
C936 H930 0.949 . S
C936 C940 1.368 . S
C937 C918 1.429 . S
C937 C931 1.429 . S
C937 C938 1.523 . S
C938 C919 1.368 . S
C938 C932 1.368 . S
C938 C937 1.523 . S
C939 C923 1.429 . S
C939 C935 1.429 . S
C939 C940 1.523 . S
C940 C924 1.368 . S
C940 C936 1.368 . S
C940 C939 1.523 . S
H941 C916 0.950 . S
H942 C918 0.950 . S
H943 C919 0.949 . S
H944 C921 0.950 . S
H945 C923 0.950 . S
C946 C947 1.349 . S
C946 C948 1.327 . S
C946 H971 0.950 . S
C947 C946 1.349 . S
C947 C963 1.349 . S
C948 C946 1.327 . S
C948 C967 1.429 . S
C948 H972 0.950 . S
C949 C966 1.574 . S
C949 C968 1.368 . S
C949 H973 0.949 . S
H950 C954 0.949 . S
C951 C952 1.349 . S
C951 C953 1.327 . S
C951 H974 0.950 . S
C952 C951 1.349 . S
C952 C964 1.349 . S
C953 C951 1.327 . S
C953 C969 1.429 . S
C953 H975 0.950 . S
C954 H950 0.949 . S
C954 C962 1.574 . S
C954 C970 1.368 . S
H955 C963 0.950 . S
H956 C961 0.950 . S
H957 C962 0.949 . S
H958 C964 0.950 . S
H959 C965 0.950 . S
H960 C966 0.949 . S
C961 H956 0.950 . S
C961 C963 1.327 . S
C961 C967 1.429 . S
C962 C954 1.574 . S
C962 H957 0.949 . S
C962 C968 1.368 . S
C963 C947 1.349 . S
C963 H955 0.950 . S
C963 C961 1.327 . S
C964 C952 1.349 . S
C964 H958 0.950 . S
C964 C965 1.327 . S
C965 H959 0.950 . S
C965 C964 1.327 . S
C965 C969 1.429 . S
C966 C949 1.574 . S
C966 H960 0.949 . S
C966 C970 1.368 . S
C967 C948 1.429 . S
C967 C961 1.429 . S
C967 C968 1.523 . S
C968 C949 1.368 . S
C968 C962 1.368 . S
C968 C967 1.523 . S
C969 C953 1.429 . S
C969 C965 1.429 . S
C969 C970 1.523 . S
C970 C954 1.368 . S
C970 C966 1.368 . S
C970 C969 1.523 . S
H971 C946 0.950 . S
H972 C948 0.950 . S
H973 C949 0.949 . S
H974 C951 0.950 . S
H975 C953 0.950 . S
C257 C76 1.758 1_545 S
C262 C114 1.859 1_545 S
C292 C154 1.868 . S
C287 C88 1.756 . S
C322 C194 1.870 . S
C317 C52 1.764 . S
C352 C234 1.865 1_455 S
C347 C64 1.760 1_455 S
C382 C104 1.864 1_565 S
C377 C28 1.764 1_545 S
C407 C40 1.760 . S
C412 C144 1.872 . S
C437 C4 1.762 . S
C442 C184 1.870 . S
C467 C16 1.760 . S
C472 C224 1.866 1_655 S
C502 C101 0.297 . S
C497 C69 0.360 . S
C532 C141 0.301 . S
C527 C81 0.364 . S
C562 C181 0.305 . S
C557 C93 0.361 . S
C587 C57 0.358 . S
C592 C221 0.297 . S
C617 C21 0.363 1_655 S
C622 C111 0.295 . S
C652 C151 0.301 . S
C647 C33 0.357 1_565 S
C682 C191 0.305 . S
C677 C45 0.373 . S
C707 C9 0.369 . S
C712 C231 0.304 . S
C737 C66 1.912 . S
C742 C105 2.082 . S
C767 C78 1.903 . S
C772 C145 2.079 . S
C802 C185 2.073 . S
C797 C90 1.896 . S
C832 C225 2.082 . S
C827 C54 1.900 . S
C857 C18 1.911 1_655 S
C862 C115 2.097 . S
C892 C155 2.079 . S
C887 C30 1.902 1_565 S
C922 C195 2.072 . S
C917 C42 1.899 . S
C947 C6 1.909 . S
C952 C235 2.088 . S
