# Generated by pormake.
# Topology eea, (3,6)-cn, num edge types: 1
# Building blocks:
#     Node 0, Type 0, BuildingBlock: CUQRIR_clean_linker_1, # of connection points: 3
#     Node 1, Type 0, BuildingBlock: CUQRIR_clean_linker_1, # of connection points: 3
#     Node 2, Type 0, BuildingBlock: CUQRIR_clean_linker_1, # of connection points: 3
#     Node 3, Type 0, BuildingBlock: CUQRIR_clean_linker_1, # of connection points: 3
#     Node 4, Type 0, BuildingBlock: CUQRIR_clean_linker_1, # of connection points: 3
#     Node 5, Type 0, BuildingBlock: CUQRIR_clean_linker_1, # of connection points: 3
#     Node 6, Type 0, BuildingBlock: CUQRIR_clean_linker_1, # of connection points: 3
#     Node 7, Type 0, BuildingBlock: CUQRIR_clean_linker_1, # of connection points: 3
#     Node 8, Type 0, BuildingBlock: CUQRIR_clean_linker_1, # of connection points: 3
#     Node 9, Type 0, BuildingBlock: CUQRIR_clean_linker_1, # of connection points: 3
#     Node 10, Type 0, BuildingBlock: CUQRIR_clean_linker_1, # of connection points: 3
#     Node 11, Type 0, BuildingBlock: CUQRIR_clean_linker_1, # of connection points: 3
#     Node 12, Type 0, BuildingBlock: CUQRIR_clean_linker_1, # of connection points: 3
#     Node 13, Type 0, BuildingBlock: CUQRIR_clean_linker_1, # of connection points: 3
#     Node 14, Type 0, BuildingBlock: CUQRIR_clean_linker_1, # of connection points: 3
#     Node 15, Type 0, BuildingBlock: CUQRIR_clean_linker_1, # of connection points: 3
#     Node 16, Type 0, BuildingBlock: CUQRIR_clean_linker_1, # of connection points: 3
#     Node 17, Type 0, BuildingBlock: CUQRIR_clean_linker_1, # of connection points: 3
#     Node 18, Type 1, BuildingBlock: LEVNOQ01_clean_sbu_1, # of connection points: 6
#     Node 19, Type 1, BuildingBlock: LEVNOQ01_clean_sbu_1, # of connection points: 6
#     Node 20, Type 1, BuildingBlock: LEVNOQ01_clean_sbu_1, # of connection points: 6
#     Node 21, Type 1, BuildingBlock: LEVNOQ01_clean_sbu_1, # of connection points: 6
#     Node 22, Type 1, BuildingBlock: LEVNOQ01_clean_sbu_1, # of connection points: 6
#     Node 23, Type 1, BuildingBlock: LEVNOQ01_clean_sbu_1, # of connection points: 6
#     Node 24, Type 1, BuildingBlock: LEVNOQ01_clean_sbu_1, # of connection points: 6
#     Node 25, Type 1, BuildingBlock: LEVNOQ01_clean_sbu_1, # of connection points: 6
#     Node 26, Type 1, BuildingBlock: LEVNOQ01_clean_sbu_1, # of connection points: 6
#     Edge 27, Type (0, 1), BuildingBlock: OJICUG_clean_linker_0, # of connection points: 2
#     Edge 28, Type (0, 1), BuildingBlock: OJICUG_clean_linker_0, # of connection points: 2
#     Edge 29, Type (0, 1), BuildingBlock: OJICUG_clean_linker_0, # of connection points: 2
#     Edge 30, Type (0, 1), BuildingBlock: OJICUG_clean_linker_0, # of connection points: 2
#     Edge 31, Type (0, 1), BuildingBlock: OJICUG_clean_linker_0, # of connection points: 2
#     Edge 32, Type (0, 1), BuildingBlock: OJICUG_clean_linker_0, # of connection points: 2
#     Edge 33, Type (0, 1), BuildingBlock: OJICUG_clean_linker_0, # of connection points: 2
#     Edge 34, Type (0, 1), BuildingBlock: OJICUG_clean_linker_0, # of connection points: 2
#     Edge 35, Type (0, 1), BuildingBlock: OJICUG_clean_linker_0, # of connection points: 2
#     Edge 36, Type (0, 1), BuildingBlock: OJICUG_clean_linker_0, # of connection points: 2
#     Edge 37, Type (0, 1), BuildingBlock: OJICUG_clean_linker_0, # of connection points: 2
#     Edge 38, Type (0, 1), BuildingBlock: OJICUG_clean_linker_0, # of connection points: 2
#     Edge 39, Type (0, 1), BuildingBlock: OJICUG_clean_linker_0, # of connection points: 2
#     Edge 40, Type (0, 1), BuildingBlock: OJICUG_clean_linker_0, # of connection points: 2
#     Edge 41, Type (0, 1), BuildingBlock: OJICUG_clean_linker_0, # of connection points: 2
#     Edge 42, Type (0, 1), BuildingBlock: OJICUG_clean_linker_0, # of connection points: 2
#     Edge 43, Type (0, 1), BuildingBlock: OJICUG_clean_linker_0, # of connection points: 2
#     Edge 44, Type (0, 1), BuildingBlock: OJICUG_clean_linker_0, # of connection points: 2
#     Edge 45, Type (0, 1), BuildingBlock: OJICUG_clean_linker_0, # of connection points: 2
#     Edge 46, Type (0, 1), BuildingBlock: OJICUG_clean_linker_0, # of connection points: 2
#     Edge 47, Type (0, 1), BuildingBlock: OJICUG_clean_linker_0, # of connection points: 2
#     Edge 48, Type (0, 1), BuildingBlock: OJICUG_clean_linker_0, # of connection points: 2
#     Edge 49, Type (0, 1), BuildingBlock: OJICUG_clean_linker_0, # of connection points: 2
#     Edge 50, Type (0, 1), BuildingBlock: OJICUG_clean_linker_0, # of connection points: 2
#     Edge 51, Type (0, 1), BuildingBlock: OJICUG_clean_linker_0, # of connection points: 2
#     Edge 52, Type (0, 1), BuildingBlock: OJICUG_clean_linker_0, # of connection points: 2
#     Edge 53, Type (0, 1), BuildingBlock: OJICUG_clean_linker_0, # of connection points: 2
#     Edge 54, Type (0, 1), BuildingBlock: OJICUG_clean_linker_0, # of connection points: 2
#     Edge 55, Type (0, 1), BuildingBlock: OJICUG_clean_linker_0, # of connection points: 2
#     Edge 56, Type (0, 1), BuildingBlock: OJICUG_clean_linker_0, # of connection points: 2
#     Edge 57, Type (0, 1), BuildingBlock: OJICUG_clean_linker_0, # of connection points: 2
#     Edge 58, Type (0, 1), BuildingBlock: OJICUG_clean_linker_0, # of connection points: 2
#     Edge 59, Type (0, 1), BuildingBlock: OJICUG_clean_linker_0, # of connection points: 2
#     Edge 60, Type (0, 1), BuildingBlock: OJICUG_clean_linker_0, # of connection points: 2
#     Edge 61, Type (0, 1), BuildingBlock: OJICUG_clean_linker_0, # of connection points: 2
#     Edge 62, Type (0, 1), BuildingBlock: OJICUG_clean_linker_0, # of connection points: 2
#     Edge 63, Type (0, 1), BuildingBlock: OJICUG_clean_linker_0, # of connection points: 2
#     Edge 64, Type (0, 1), BuildingBlock: OJICUG_clean_linker_0, # of connection points: 2
#     Edge 65, Type (0, 1), BuildingBlock: OJICUG_clean_linker_0, # of connection points: 2
#     Edge 66, Type (0, 1), BuildingBlock: OJICUG_clean_linker_0, # of connection points: 2
#     Edge 67, Type (0, 1), BuildingBlock: OJICUG_clean_linker_0, # of connection points: 2
#     Edge 68, Type (0, 1), BuildingBlock: OJICUG_clean_linker_0, # of connection points: 2
#     Edge 69, Type (0, 1), BuildingBlock: OJICUG_clean_linker_0, # of connection points: 2
#     Edge 70, Type (0, 1), BuildingBlock: OJICUG_clean_linker_0, # of connection points: 2
#     Edge 71, Type (0, 1), BuildingBlock: OJICUG_clean_linker_0, # of connection points: 2
#     Edge 72, Type (0, 1), BuildingBlock: OJICUG_clean_linker_0, # of connection points: 2
#     Edge 73, Type (0, 1), BuildingBlock: OJICUG_clean_linker_0, # of connection points: 2
#     Edge 74, Type (0, 1), BuildingBlock: OJICUG_clean_linker_0, # of connection points: 2
#     Edge 75, Type (0, 1), BuildingBlock: OJICUG_clean_linker_0, # of connection points: 2
#     Edge 76, Type (0, 1), BuildingBlock: OJICUG_clean_linker_0, # of connection points: 2
#     Edge 77, Type (0, 1), BuildingBlock: OJICUG_clean_linker_0, # of connection points: 2
#     Edge 78, Type (0, 1), BuildingBlock: OJICUG_clean_linker_0, # of connection points: 2
#     Edge 79, Type (0, 1), BuildingBlock: OJICUG_clean_linker_0, # of connection points: 2
#     Edge 80, Type (0, 1), BuildingBlock: OJICUG_clean_linker_0, # of connection points: 2
# Relax obj value: 0.111
# Max RMSD: 0.164
# Mean RMSD: 0.138
data_MOF--net-eea--node1-LEVNOQ01_clean_sbu_1--node2-CUQRIR_clean_linker_1--edge1-OJICUG_clean_linker_0
_symmetry_space_group_name_H-M    P1
_symmetry_Int_Tables_number       1
_symmetry_cell_setting            triclinic
loop_
_symmetry_equiv_pos_as_xyz
'x, y, z'
_cell_length_a     37.665536
_cell_length_b     37.825836
_cell_length_c     30.074233
_cell_angle_alpha  80.812585
_cell_angle_beta   89.052567
_cell_angle_gamma 119.83345
loop_
_atom_site_label
_atom_site_type_symbol
_atom_site_fract_x
_atom_site_fract_y
_atom_site_fract_z
_atom_type_partial_charge
C0 C 0.16698 0.07501 0.39264 0.0
N1 N 0.18496 0.10854 0.4127 0.0
N2 N 0.1756 0.04564 0.41191 0.0
C3 C 0.1418 0.07128 0.35352 0.0
C4 C 0.20019 0.06283 0.44381 0.0
N5 N 0.20568 0.10094 0.4445 0.0
C6 C 0.22336 0.04484 0.4697 0.0
H7 H 0.12515 0.08842 0.3554 0.0
H8 H 0.11944 0.03819 0.35316 0.0
H9 H 0.16261 0.08503 0.32132 0.0
H10 H 0.25297 0.06961 0.47807 0.0
H11 H 0.22991 0.02592 0.44999 0.0
H12 H 0.20422 0.02439 0.50175 0.0
C13 C 0.88972 0.10641 0.38451 0.0
N14 N 0.9016 0.12888 0.41796 0.0
N15 N 0.85024 0.07527 0.39428 0.0
C16 C 0.91715 0.113 0.34333 0.0
C17 C 0.83806 0.07919 0.43475 0.0
N18 N 0.8695 0.11121 0.45 0.0
C19 C 0.794 0.05482 0.45629 0.0
H20 H 0.91469 0.1342 0.31512 0.0
H21 H 0.90735 0.08313 0.33229 0.0
H22 H 0.94977 0.12688 0.35032 0.0
H23 H 0.78865 0.02587 0.4786 0.0
H24 H 0.77234 0.04583 0.43013 0.0
H25 H 0.78699 0.07302 0.4767 0.0
C26 C 0.88424 0.79401 0.33136 0.0
N27 N 0.88966 0.77016 0.36607 0.0
N28 N 0.84794 0.79209 0.33956 0.0
C29 C 0.91511 0.82081 0.29085 0.0
C30 C 0.83175 0.76691 0.3806 0.0
N31 N 0.85705 0.75362 0.39688 0.0
C32 C 0.79279 0.75835 0.4065 0.0
H33 H 0.93789 0.85076 0.29985 0.0
H34 H 0.89981 0.82733 0.26208 0.0
H35 H 0.93181 0.8056 0.28063 0.0
H36 H 0.76983 0.7568 0.38308 0.0
H37 H 0.80009 0.78406 0.42474 0.0
H38 H 0.77919 0.72882 0.43168 0.0
C39 C 0.08725 0.20649 0.72204 0.0
N40 N 0.11947 0.22709 0.68932 0.0
N41 N 0.05267 0.20223 0.70512 0.0
C42 C 0.08953 0.19024 0.7702 0.0
C43 C 0.06493 0.22106 0.66102 0.0
N44 N 0.10555 0.23578 0.65129 0.0
C45 C 0.0376 0.22654 0.62803 0.0
H46 H 0.05861 0.16596 0.78734 0.0
H47 H 0.1024 0.21637 0.78875 0.0
H48 H 0.11042 0.17742 0.77149 0.0
H49 H 0.01241 0.22797 0.64578 0.0
H50 H 0.02359 0.19957 0.61078 0.0
H51 H 0.05553 0.25517 0.60184 0.0
C52 C 0.82624 0.91779 0.64305 0.0
N53 N 0.80976 0.89313 0.61211 0.0
N54 N 0.81833 0.94938 0.63691 0.0
C55 C 0.8452 0.90773 0.68323 0.0
C56 C 0.79665 0.94332 0.60063 0.0
N57 N 0.79132 0.90929 0.58566 0.0
C58 C 0.7739 0.96577 0.58571 0.0
H59 H 0.82057 0.88158 0.70826 0.0
H60 H 0.86211 0.93495 0.69969 0.0
H61 H 0.86663 0.89777 0.67245 0.0
H62 H 0.79384 -0.00057 0.58481 0.0
H63 H 0.74673 0.95418 0.61081 0.0
H64 H 0.76325 0.96101 0.55189 0.0
C65 C 0.11128 0.92055 0.67937 0.0
N66 N 0.09439 0.88623 0.66047 0.0
N67 N 0.15094 0.94684 0.66131 0.0
C68 C 0.09024 0.9272 0.71733 0.0
C69 C 0.15775 0.92716 0.63141 0.0
N70 N 0.12353 0.89044 0.63092 0.0
C71 C 0.19781 0.94387 0.60257 0.0
H72 H 0.07226 0.9413 0.70274 0.0
H73 H 0.113 0.94857 0.73729 0.0
H74 H 0.06865 0.89718 0.74002 0.0
H75 H 0.21478 0.92916 0.61868 0.0
H76 H 0.21724 0.97804 0.59918 0.0
H77 H 0.19208 0.936 0.5684 0.0
C78 C 0.82767 0.40783 0.72026 0.0
N79 N 0.8482 0.43812 0.74427 0.0
N80 N 0.82958 0.37355 0.73746 0.0
C81 C 0.80835 0.4128 0.67819 0.0
C82 C 0.85324 0.38466 0.77187 0.0
N83 N 0.8645 0.42388 0.77605 0.0
C84 C 0.86978 0.35922 0.79723 0.0
H85 H 0.79485 0.4327 0.68104 0.0
H86 H 0.78425 0.38216 0.67193 0.0
H87 H 0.83252 0.4283 0.64877 0.0
H88 H 0.87484 0.34088 0.7752 0.0
H89 H 0.84691 0.33721 0.82635 0.0
H90 H 0.89925 0.37905 0.81031 0.0
C91 C 0.5737 0.43814 0.72273 0.0
N92 N 0.58298 0.46084 0.75586 0.0
N93 N 0.53445 0.40646 0.73059 0.0
C94 C 0.60308 0.44622 0.68274 0.0
C95 C 0.51971 0.41049 0.76961 0.0
N96 N 0.54946 0.44305 0.78587 0.0
C97 C 0.47472 0.38617 0.788 0.0
H98 H 0.6011 0.4675 0.65423 0.0
H99 H 0.59479 0.41683 0.67131 0.0
H100 H 0.63525 0.46077 0.6914 0.0
H101 H 0.46816 0.35689 0.81061 0.0
H102 H 0.4548 0.37774 0.76022 0.0
H103 H 0.46637 0.4041 0.80735 0.0
C104 C 0.55167 0.13257 0.66572 0.0
N105 N 0.55448 0.10673 0.70033 0.0
N106 N 0.51558 0.13156 0.6717 0.0
C107 C 0.58516 0.16079 0.62789 0.0
C108 C 0.49685 0.10484 0.71149 0.0
N109 N 0.52047 0.08981 0.7291 0.0
C110 C 0.45707 0.09655 0.73507 0.0
H111 H 0.60785 0.18906 0.63998 0.0
H112 H 0.5724 0.17024 0.59835 0.0
H113 H 0.60142 0.14519 0.61754 0.0
H114 H 0.43586 0.09676 0.71002 0.0
H115 H 0.46374 0.12151 0.7543 0.0
H116 H 0.4417 0.06625 0.75906 0.0
C117 C 0.75639 0.54265 0.05656 0.0
N118 N 0.78712 0.56354 0.02212 0.0
N119 N 0.72325 0.54544 0.04529 0.0
C120 C 0.75715 0.51569 0.09861 0.0
C121 C 0.73467 0.56853 1.00288 0.0
N122 N 0.77357 0.57953 0.98873 0.0
C123 C 0.70703 0.5783 0.97446 0.0
H124 H 0.76583 0.49363 0.08903 0.0
H125 H 0.72694 0.49811 0.11977 0.0
H126 H 0.78096 0.53547 0.11884 0.0
H127 H 0.68358 0.57937 0.99615 0.0
H128 H 0.6908 0.55353 0.95455 0.0
H129 H 0.72524 0.60836 0.9504 0.0
C130 C 0.49585 0.2506 0.97655 0.0
N131 N 0.47696 0.22627 0.94592 0.0
N132 N 0.48907 0.28288 0.97246 0.0
C133 C 0.51641 0.23975 0.0145 0.0
C134 C 0.46528 0.27743 0.93806 0.0
N135 N 0.45803 0.24336 0.92187 0.0
C136 C 0.4426 0.30064 0.92659 0.0
H137 H 0.49257 0.21382 0.0404 0.0
H138 H 0.53506 0.26678 0.03069 0.0
H139 H 0.53652 0.22916 1.00141 0.0
H140 H 0.46514 0.33361 0.91271 0.0
H141 H 0.42575 0.29961 0.95784 0.0
H142 H 0.42025 0.28793 0.90183 0.0
C143 C 0.77014 0.24023 0.02391 0.0
N144 N 0.75542 0.20904 1.0001 0.0
N145 N 0.81112 0.26612 0.01213 0.0
C146 C 0.7445 0.24665 0.0569 0.0
C147 C 0.82098 0.24977 0.98067 0.0
N148 N 0.78722 0.2153 0.97305 0.0
C149 C 0.86381 0.26756 0.95772 0.0
H150 H 0.7135 0.23682 0.04591 0.0
H151 H 0.75968 0.27963 0.06053 0.0
H152 H 0.74067 0.22738 0.09055 0.0
H153 H 0.86793 0.24305 0.94681 0.0
H154 H 0.88724 0.283 0.98064 0.0
H155 H 0.86904 0.29127 0.92742 0.0
C156 C 0.49341 0.73955 0.05106 0.0
N157 N 0.51097 0.76975 0.07584 0.0
N158 N 0.49484 0.70542 0.07042 0.0
C159 C 0.47792 0.74456 1.00613 0.0
C160 C 0.51494 0.71656 0.10734 0.0
N161 N 0.52466 0.75556 0.1106 0.0
C162 C 0.5311 0.69241 0.13607 0.0
H163 H 0.4642 0.76465 1.00557 0.0
H164 H 0.45484 0.7139 0.99889 0.0
H165 H 0.50421 0.75973 0.97906 0.0
H166 H 0.56528 0.71068 0.13188 0.0
H167 H 0.52094 0.6617 0.12727 0.0
H168 H 0.52071 0.6879 0.17232 0.0
C169 C 0.22631 0.77239 0.04956 0.0
N170 N 0.23759 0.79507 0.08288 0.0
N171 N 0.18796 0.73911 0.06067 0.0
C172 C 0.25333 0.78069 1.00724 0.0
C173 C 0.17607 0.74176 0.10198 0.0
N174 N 0.2064 0.77521 0.11605 0.0
C175 C 0.13323 0.71405 0.12653 0.0
H176 H 0.24956 0.80172 0.98005 0.0
H177 H 0.24429 0.75137 0.99527 0.0
H178 H 0.2862 0.79543 0.01336 0.0
H179 H 0.13266 0.68816 0.15044 0.0
H180 H 0.11012 0.70063 0.10263 0.0
H181 H 0.12414 0.73125 0.14626 0.0
C182 C 0.22834 0.47956 1.0036 0.0
N183 N 0.23168 0.45298 0.03693 0.0
N184 N 0.19208 0.47785 0.01106 0.0
C185 C 0.26011 0.50732 0.96405 0.0
C186 C 0.17344 0.44958 0.04979 0.0
N187 N 0.19732 0.43433 0.0655 0.0
C188 C 0.13347 0.43971 0.07454 0.0
H189 H 0.28262 0.53674 0.97426 0.0
H190 H 0.24554 0.51492 0.93517 0.0
H191 H 0.27685 0.49235 0.95322 0.0
H192 H 0.11789 0.40816 0.09602 0.0
H193 H 0.11241 0.44188 0.05035 0.0
H194 H 0.14007 0.46256 0.09676 0.0
C195 C 0.42678 0.88601 0.38702 0.0
N196 N 0.4602 0.90717 0.35584 0.0
N197 N 0.39681 0.89383 0.37399 0.0
C198 C 0.42106 0.85293 0.42618 0.0
C199 C 0.41331 0.92045 0.33369 0.0
N200 N 0.45172 0.92836 0.32245 0.0
C201 C 0.38947 0.93345 0.30211 0.0
H202 H 0.41456 0.82463 0.41326 0.0
H203 H 0.39505 0.84512 0.45123 0.0
H204 H 0.44974 0.86339 0.44288 0.0
H205 H 0.3645 0.93409 0.32142 0.0
H206 H 0.37536 0.91074 0.2794 0.0
H207 H 0.41019 0.9645 0.28076 0.0
C208 C 0.16102 0.58476 0.31035 0.0
N209 N 0.14213 0.55974 0.28034 0.0
N210 N 0.15486 0.61748 0.30473 0.0
C211 C 0.18134 0.57447 0.34897 0.0
C212 C 0.13206 0.61196 0.2694 0.0
N213 N 0.12405 0.57694 0.25476 0.0
C214 C 0.11231 0.63744 0.25415 0.0
H215 H 0.1574 0.5489 0.37508 0.0
H216 H 0.19994 0.60188 0.36463 0.0
H217 H 0.20148 0.5636 0.33668 0.0
H218 H 0.13673 0.67028 0.24221 0.0
H219 H 0.09319 0.63646 0.28332 0.0
H220 H 0.09271 0.62652 0.22662 0.0
C221 C 0.4334 0.57241 0.35221 0.0
N222 N 0.41929 0.54082 0.32898 0.0
N223 N 0.4741 0.59935 0.33961 0.0
C224 C 0.40722 0.57856 0.38478 0.0
C225 C 0.48447 0.58308 0.30849 0.0
N226 N 0.45126 0.54778 0.30168 0.0
C227 C 0.52757 0.60103 0.28621 0.0
H228 H 0.37597 0.56754 0.37402 0.0
H229 H 0.42155 0.61172 0.38748 0.0
H230 H 0.40412 0.5602 0.41879 0.0
H231 H 0.53226 0.57647 0.27636 0.0
H232 H 0.55059 0.61712 0.30924 0.0
H233 H 0.53285 0.62419 0.2553 0.0
O234 O 0.50697 0.97722 0.91712 0.0
Mg235 Mg 0.53884 0.99146 0.9732 0.0
O236 O 0.4966 0.02102 0.94598 0.0
Mg237 Mg 0.49571 0.00144 0.02668 0.0
O238 O 0.51308 0.94634 0.03116 0.0
O239 O 0.56311 0.95511 0.98102 0.0
O240 O 0.49434 0.98204 0.1064 0.0
O241 O 0.42582 0.94936 0.03133 0.0
Mg242 Mg 0.46054 0.0219 0.08311 0.0
O243 O 0.47842 0.05546 0.01821 0.0
O244 O 0.50427 0.03732 0.13018 0.0
O245 O 0.40822 0.96062 0.09565 0.0
O246 O 0.44067 0.0628 0.07071 0.0
C247 C 0.59412 0.07041 0.99769 0.0
C248 C 0.49794 0.00529 0.9118 0.0
C249 C 0.53675 0.93352 0.01617 0.0
C250 C 0.50341 0.00315 0.13785 0.0
C251 C 0.39949 0.93849 0.06564 0.0
C252 C 0.45934 0.0739 0.03031 0.0
O253 O 0.5909 0.05196 0.96532 0.0
O254 O 0.56382 0.05506 0.02819 0.0
O255 O 0.00524 0.55657 0.8766 0.0
Mg256 Mg 0.00819 0.59424 0.9225 0.0
O257 O 0.9702 0.50689 0.93584 0.0
Mg258 Mg -0.0012 0.52654 1.00301 0.0
O259 O 0.04308 0.59578 0.97347 0.0
O260 O 0.05991 0.65143 0.92037 0.0
O261 O 0.0295 0.54708 0.07303 0.0
O262 O 0.05113 0.51828 0.97883 0.0
Mg263 Mg -0.00318 0.47572 0.06893 0.0
O264 O 0.95116 0.45318 0.0282 0.0
O265 O 0.98409 0.49573 0.12459 0.0
O266 O 0.06057 0.49945 0.04807 0.0
O267 O 0.96526 0.41352 0.08052 0.0
C268 C 0.93275 0.55802 0.99409 0.0
C269 C 0.97819 0.51933 0.89289 0.0
C270 C 0.06798 0.6348 0.95673 0.0
C271 C 0.01641 0.53078 0.11511 0.0
C272 C 0.07387 0.51346 1.00652 0.0
C273 C 0.94199 0.41673 0.0511 0.0
O274 O 0.95058 0.57884 0.95481 0.0
O275 O 0.94665 0.53879 0.02033 0.0
O276 O 0.42057 0.41452 0.17581 0.0
Mg277 Mg 0.40083 0.38175 0.12177 0.0
O278 O 0.4599 0.47304 0.12675 0.0
Mg279 Mg 0.46945 0.46522 0.05381 0.0
O280 O 0.44964 0.39649 0.07649 0.0
O281 O 0.41019 0.33308 0.11726 0.0
O282 O 0.48258 0.45977 0.97881 0.0
O283 O 0.53335 0.47182 0.06944 0.0
Mg284 Mg 0.53554 0.53359 0.02455 0.0
O285 O 0.48391 0.53634 0.03422 0.0
O286 O 0.54614 0.51294 0.96682 0.0
O287 O 0.56477 0.53387 0.08365 0.0
O288 O 0.54537 0.59064 1.00227 0.0
C289 C 0.36572 0.42315 0.05691 0.0
C290 C 0.44339 0.45373 0.16698 0.0
C291 C 0.44086 0.3582 0.08693 0.0
C292 C 0.5171 0.48213 0.9538 0.0
C293 C 0.56254 0.49932 0.0867 0.0
C294 C 0.50753 0.57598 0.01752 0.0
O295 O 0.35711 0.39071 0.08565 0.0
O296 O 0.40301 0.45151 0.0429 0.0
O297 O 0.16106 0.31012 0.25126 0.0
Mg298 Mg 0.19797 0.32339 0.30425 0.0
O299 O 0.16243 0.35943 0.28101 0.0
Mg300 Mg 0.15977 0.33497 0.36083 0.0
O301 O 0.17591 0.27931 0.36263 0.0
O302 O 0.22034 0.28557 0.30677 0.0
O303 O 0.15728 0.31181 0.43946 0.0
O304 O 0.08967 0.28409 0.36464 0.0
Mg305 Mg 0.12465 0.35461 0.42114 0.0
O306 O 0.14342 0.38914 0.35639 0.0
O307 O 0.16697 0.36414 0.46962 0.0
O308 O 0.07194 0.29391 0.43001 0.0
O309 O 0.10767 0.39808 0.40962 0.0
C310 C 0.25699 0.4017 0.32996 0.0
C311 C 0.15909 0.34266 0.2465 0.0
C312 C 0.19719 0.26539 0.34443 0.0
C313 C 0.16536 0.32963 0.47357 0.0
C314 C 0.06337 0.2726 0.3992 0.0
C315 C 0.12584 0.40879 0.36899 0.0
O316 O 0.25109 0.38379 0.29653 0.0
O317 O 0.22833 0.38649 0.36244 0.0
O318 O 0.66858 0.88881 0.2086 0.0
Mg319 Mg 0.67416 0.92627 0.25604 0.0
O320 O 0.63327 0.83995 0.26828 0.0
Mg321 Mg 0.6646 0.85848 0.33449 0.0
O322 O 0.71011 0.92813 0.30621 0.0
O323 O 0.72651 0.98323 0.25233 0.0
O324 O 0.69777 0.87752 0.40334 0.0
O325 O 0.71502 0.84769 0.30863 0.0
Mg326 Mg 0.66082 0.80533 0.40007 0.0
O327 O 0.61554 0.7854 0.35879 0.0
O328 O 0.65158 0.82783 0.45548 0.0
O329 O 0.72266 0.82362 0.37686 0.0
O330 O 0.6248 0.74333 0.41327 0.0
C331 C 0.60054 0.89262 0.32926 0.0
C332 C 0.64032 0.8522 0.22531 0.0
C333 C 0.73481 0.96714 0.28892 0.0
C334 C 0.68487 0.86193 0.44549 0.0
C335 C 0.73592 0.83829 0.33531 0.0
C336 C 0.60356 0.74841 0.38235 0.0
O337 O 0.61768 0.91308 0.28965 0.0
O338 O 0.6142 0.87252 0.35448 0.0
O339 O 0.08999 0.75052 0.51259 0.0
Mg340 Mg 0.06924 0.71651 0.45945 0.0
O341 O 0.12234 0.80863 0.46101 0.0
Mg342 Mg 0.13423 0.79916 0.38909 0.0
O343 O 0.11679 0.73105 0.41241 0.0
O344 O 0.07964 0.66833 0.45533 0.0
O345 O 0.14798 0.78767 0.31431 0.0
O346 O 0.19905 0.8153 0.40624 0.0
Mg347 Mg 0.1782 0.85766 0.32483 0.0
O348 O 0.15104 0.87038 0.37357 0.0
O349 O 0.14574 0.83781 0.27005 0.0
O350 O 0.22795 0.84687 0.33683 0.0
O351 O 0.19894 0.91848 0.31747 0.0
C352 C 0.03076 0.75338 0.39218 0.0
C353 C 0.10864 0.78978 0.50195 0.0
C354 C 0.10887 0.69306 0.42336 0.0
C355 C 0.14849 0.80571 0.27417 0.0
C356 C 0.22968 0.83092 0.37642 0.0
C357 C 0.17288 0.90878 0.35196 0.0
O358 O 0.02384 0.72325 0.42372 0.0
O359 O 0.06739 0.78211 0.37609 0.0
O360 O 0.86038 0.6561 0.58595 0.0
Mg361 Mg 0.8845 0.66432 0.64688 0.0
O362 O 0.83745 0.691 0.61542 0.0
Mg363 Mg 0.83599 0.67264 0.69605 0.0
O364 O 0.85314 0.6167 0.70144 0.0
O365 O 0.90484 0.62513 0.65421 0.0
O366 O 0.83277 0.65269 0.7755 0.0
O367 O 0.76701 0.61984 0.70048 0.0
Mg368 Mg 0.79921 0.69275 0.75326 0.0
O369 O 0.81739 0.72574 0.68784 0.0
O370 O 0.84048 0.70556 0.80323 0.0
O371 O 0.74802 0.63128 0.76409 0.0
O372 O 0.77935 0.73356 0.73964 0.0
C373 C 0.93775 0.74006 0.67568 0.0
C374 C 0.84466 0.67871 0.58096 0.0
C375 C 0.87653 0.6031 0.68746 0.0
C376 C 0.8389 0.671 0.8091 0.0
C377 C 0.74049 0.60878 0.73461 0.0
C378 C 0.79805 0.74419 0.6993 0.0
O379 O 0.9394 0.71897 0.64826 0.0
O380 O 0.90344 0.72848 0.69781 0.0
O381 O 0.32881 0.24812 0.54471 0.0
Mg382 Mg 0.34574 0.28401 0.59631 0.0
O383 O 0.31235 0.19315 0.59772 0.0
Mg384 Mg 0.33937 0.20641 0.66556 0.0
O385 O 0.38442 0.27588 0.63777 0.0
O386 O 0.40259 0.33623 0.59278 0.0
O387 O 0.3689 0.22227 0.73712 0.0
O388 O 0.39137 0.19768 0.63876 0.0
Mg389 Mg 0.33609 0.15335 0.72602 0.0
O390 O 0.29049 0.13243 0.68514 0.0
O391 O 0.32235 0.16815 0.78516 0.0
O392 O 0.39952 0.17508 0.70697 0.0
O393 O 0.30613 0.09146 0.73325 0.0
C394 C 0.27651 0.24473 0.6739 0.0
C395 C 0.31129 0.20908 0.55745 0.0
C396 C 0.41132 0.31495 0.62392 0.0
C397 C 0.35464 0.20325 0.77834 0.0
C398 C 0.41306 0.18976 0.6656 0.0
C399 C 0.28271 0.09549 0.70463 0.0
O400 O 0.29627 0.27441 0.64036 0.0
O401 O 0.28678 0.21751 0.68712 0.0
O402 O 0.75312 0.08177 0.84604 0.0
Mg403 Mg 0.73202 0.0488 0.79217 0.0
O404 O 0.79092 0.14016 0.79635 0.0
Mg405 Mg 0.79873 0.13177 0.72297 0.0
O406 O 0.77927 0.06293 0.74477 0.0
O407 O 0.74075 -0.00012 0.78672 0.0
O408 O 0.81051 0.12635 0.64757 0.0
O409 O 0.8635 0.13956 0.73638 0.0
Mg410 Mg 0.86549 0.20148 0.69113 0.0
O411 O 0.81304 0.20233 0.70352 0.0
O412 O 0.87393 0.1799 0.63349 0.0
O413 O 0.89786 0.2027 0.74771 0.0
O414 O 0.87279 0.25749 0.66858 0.0
C415 C 0.69457 0.08848 0.72852 0.0
C416 C 0.77555 0.12103 0.83692 0.0
C417 C 0.77019 0.02451 0.7549 0.0
C418 C 0.84443 0.14878 0.62149 0.0
C419 C 0.89455 0.16761 0.751 0.0
C420 C 0.8352 0.24181 0.68557 0.0
O421 O 0.68691 0.05658 0.75764 0.0
O422 O 0.73151 0.11736 0.71371 0.0
C423 C 0.30083 0.83872 0.11697 0.0
C424 C 0.27605 0.83351 0.08144 0.0
H425 H 0.35979 0.87629 0.13952 0.0
C426 C 0.29181 0.86411 0.04146 0.0
H427 H 0.28959 0.81567 0.14804 0.0
C428 C 0.33246 0.89726 0.03556 0.0
C429 C 0.3577 0.90165 0.07038 0.0
H430 H 0.2729 0.86165 0.01411 0.0
H431 H 0.34392 0.91989 1.0041 0.0
C432 C 0.34114 0.87288 0.1117 0.0
C433 C 0.14941 0.4903 0.95917 0.0
C434 C 0.17851 0.50484 0.99003 0.0
H435 H 0.09171 0.48232 0.94005 0.0
C436 C 0.18008 0.53434 0.01405 0.0
H437 H 0.14795 0.46743 0.94056 0.0
C438 C 0.14731 0.54152 0.01534 0.0
C439 C 0.1141 0.52058 0.99092 0.0
H440 H 0.20245 0.54569 0.03802 0.0
H441 H 0.14563 0.55936 0.0393 0.0
C442 C 0.11706 0.49833 0.95944 0.0
C443 C 0.46221 0.63027 0.07113 0.0
C444 C 0.48935 0.6716 0.04957 0.0
H445 H 0.44585 0.56648 0.07707 0.0
C446 C 0.51595 0.67965 0.01144 0.0
H447 H 0.44145 0.62366 0.10062 0.0
C448 C 0.51841 0.64731 0.9978 0.0
C449 C 0.49449 0.60631 0.02231 0.0
H450 H 0.5372 0.71133 0.99453 0.0
H451 H 0.5415 0.65496 0.97029 0.0
C452 C 0.46464 0.59768 0.0575 0.0
C453 C 0.84719 0.34219 1.00149 0.0
C454 C 0.83867 0.30383 0.02688 0.0
H455 H 0.88613 0.40844 0.99005 0.0
C456 C 0.86223 0.3028 0.06194 0.0
H457 H 0.8295 0.34324 0.97381 0.0
C458 C 0.8951 0.33964 0.07043 0.0
C459 C 0.90496 0.37828 0.04396 0.0
H460 H 0.85633 0.2733 0.08121 0.0
H461 H 0.91347 0.33763 0.09697 0.0
C462 C 0.87985 0.37924 0.0103 0.0
C463 C 0.65167 0.48956 0.05328 0.0
C464 C 0.68281 0.52354 0.06886 0.0
H465 H 0.58716 0.4531 0.04913 0.0
C466 C 0.67287 0.54093 0.10112 0.0
H467 H 0.65936 0.47602 0.02831 0.0
C468 C 0.63176 0.52816 0.11303 0.0
C469 C 0.60062 0.4982 0.09229 0.0
H470 H 0.69694 0.56715 0.11332 0.0
H471 H 0.62476 0.54502 0.13423 0.0
C472 C 0.61052 0.47645 0.06545 0.0
C473 C 0.49495 0.17234 0.94216 0.0
C474 C 0.46569 0.18321 0.9533 0.0
H475 H 0.51582 0.12854 0.95746 0.0
C476 C 0.43131 0.15461 0.98438 0.0
H477 H 0.52229 0.19446 0.9192 0.0
C478 C 0.42807 0.11774 1.00702 0.0
C479 C 0.45911 0.1084 0.99898 0.0
H480 H 0.40922 0.16294 0.99477 0.0
H481 H 0.40244 0.09777 0.03301 0.0
C482 C 0.4915 0.13494 0.96451 0.0
C483 C 0.68969 0.1502 0.04136 0.0
C484 C 0.71309 0.17677 1.00061 0.0
H485 H 0.63291 0.09577 0.07262 0.0
C486 C 0.69544 0.17011 0.95984 0.0
H487 H 0.70277 0.15458 0.07318 0.0
C488 C 0.65632 0.13608 0.95931 0.0
C489 C 0.63336 0.10868 0.99975 0.0
H490 H 0.71241 0.19074 0.92816 0.0
H491 H 0.64414 0.1309 0.92708 0.0
C492 C 0.64988 0.11662 0.04101 0.0
C493 C 0.82705 0.54014 0.98402 0.0
C494 C 0.8229 0.55989 0.0176 0.0
H495 H 0.86584 0.5238 0.95076 0.0
C496 C 0.85313 0.57487 0.04727 0.0
H497 H 0.8032 0.52713 0.96202 0.0
C498 C 0.88833 0.57175 0.04194 0.0
C499 C 0.89327 0.55391 1.00669 0.0
H500 H 0.84989 0.58988 0.07357 0.0
H501 H 0.91242 0.58502 0.06367 0.0
C502 C 0.86227 0.53758 0.97823 0.0
C503 C 0.46323 0.28099 0.04827 0.0
C504 C 0.48864 0.30425 1.00769 0.0
H505 H 0.42865 0.28012 0.10553 0.0
C506 C 0.50506 0.34739 0.99796 0.0
H507 H 0.44994 0.24762 0.05621 0.0
C508 C 0.49226 0.36626 0.02584 0.0
C509 C 0.46281 0.34191 0.06355 0.0
H510 H 0.5251 0.36569 0.96691 0.0
H511 H 0.50315 0.39913 0.01622 0.0
C512 C 0.45058 0.29966 0.07606 0.0
C513 C 0.14331 0.66956 0.04409 0.0
C514 C 0.16222 0.7128 0.0314 0.0
H515 H 0.09918 0.61051 0.0291 0.0
C516 C 0.1529 0.73021 0.99198 0.0
H517 H 0.15081 0.65605 0.0743 0.0
C518 C 0.12341 0.70466 0.96668 0.0
C519 C 0.10271 0.66119 0.98049 0.0
H520 H 0.16712 0.7636 0.98201 0.0
H521 H 0.11574 0.71909 0.9373 0.0
C522 C 0.11384 0.64383 0.01862 0.0
C523 C 0.306 0.47887 0.038 0.0
C524 C 0.26552 0.44558 0.04089 0.0
H525 H 0.36979 0.49793 0.03917 0.0
C526 C 0.25848 0.40505 0.04584 0.0
H527 H 0.31198 0.51032 0.03485 0.0
C528 C 0.29135 0.39777 0.04884 0.0
C529 C 0.33192 0.43106 0.04621 0.0
H530 H 0.22756 0.3791 0.04713 0.0
H531 H 0.28502 0.36607 0.05383 0.0
C532 C 0.33898 0.47175 0.04012 0.0
C533 C 0.54756 0.83841 0.02638 0.0
C534 C 0.51908 0.81165 0.0636 0.0
H535 H 0.5762 0.89782 0.98319 0.0
C536 C 0.49794 0.82571 0.08784 0.0
H537 H 0.56434 0.82806 1.00768 0.0
C538 C 0.50406 0.86582 0.07362 0.0
C539 C 0.53199 0.89245 0.03542 0.0
H540 H 0.47593 0.80521 0.11689 0.0
H541 H 0.48652 0.87562 0.09189 0.0
C542 C 0.55426 0.87839 0.01268 0.0
C543 C 0.95561 0.19763 0.37629 0.0
C544 C 0.94069 0.16671 0.41596 0.0
H545 H 0.00678 0.25415 0.33884 0.0
C546 C 0.96636 0.17136 0.4505 0.0
H547 H 0.93605 0.19525 0.34961 0.0
C548 C 0.0065 0.2058 0.44482 0.0
C549 C 0.02198 0.23532 0.40397 0.0
H550 H 0.95576 0.14795 0.48122 0.0
H551 H 0.02579 0.20901 0.47199 0.0
C552 C -0.00393 0.23109 0.36992 0.0
C553 C 0.80188 0.80232 0.29083 0.0
C554 C 0.83385 0.81859 0.31819 0.0
H555 H 0.74448 0.79696 0.27432 0.0
C556 C 0.83975 0.85159 0.33873 0.0
H557 H 0.79687 0.77655 0.27522 0.0
C558 C 0.80932 0.86221 0.33968 0.0
C559 C 0.77383 0.84092 0.31851 0.0
H560 H 0.86418 0.86408 0.36025 0.0
H561 H 0.81127 0.88346 0.36111 0.0
C562 C 0.77182 0.81366 0.29079 0.0
C563 C 0.15138 0.97071 0.42452 0.0
C564 C 0.16934 0.00963 0.39532 0.0
H565 H 0.13797 0.90762 0.43366 0.0
C566 C 0.18556 0.01421 0.35122 0.0
H567 H 0.13903 0.9669 0.45885 0.0
C568 C 0.18534 0.98087 0.33693 0.0
C569 C 0.16882 0.94219 0.3665 0.0
H570 H 0.20019 0.04417 0.32855 0.0
H571 H 0.19915 0.9858 0.30297 0.0
C572 C 0.15087 0.93704 0.41014 0.0
C573 C 0.51594 0.6374 0.39565 0.0
C574 C 0.50091 0.63778 0.35349 0.0
H575 H 0.56043 0.67234 0.43786 0.0
C576 C 0.5173 0.67534 0.32214 0.0
H577 H 0.50401 0.60846 0.41978 0.0
C578 C 0.54954 0.71194 0.33221 0.0
C579 C 0.56616 0.71132 0.37353 0.0
H580 H 0.50629 0.67582 0.28913 0.0
H581 H 0.56285 0.74013 0.30687 0.0
C582 C 0.54841 0.67384 0.40558 0.0
C583 C 0.3332 0.87754 0.41724 0.0
C584 C 0.35355 0.86729 0.38686 0.0
H585 H 0.27583 0.87209 0.43883 0.0
C586 C 0.33079 0.83732 0.36095 0.0
H587 H 0.35067 0.90101 0.43695 0.0
C588 C 0.28865 0.82173 0.36101 0.0
C589 C 0.2689 0.83522 0.38796 0.0
H590 H 0.34646 0.82957 0.3371 0.0
H591 H 0.2722 0.8019 0.33736 0.0
C592 C 0.2907 0.86111 0.41819 0.0
C593 C 0.16018 0.50564 0.27834 0.0
C594 C 0.13085 0.51662 0.28885 0.0
H595 H 0.18158 0.46239 0.29511 0.0
C596 C 0.09691 0.48861 0.32078 0.0
H597 H 0.1872 0.52731 0.25473 0.0
C598 C 0.0944 0.45251 0.34497 0.0
C599 C 0.1255 0.44314 0.33733 0.0
H600 H 0.07467 0.49698 0.33049 0.0
H601 H 0.06913 0.43307 0.37148 0.0
C602 C 0.1573 0.46889 0.30201 0.0
C603 C 0.35922 0.50011 0.28956 0.0
C604 C 0.37722 0.50774 0.33003 0.0
H605 H 0.30735 0.46031 0.25789 0.0
C606 C 0.35423 0.48174 0.37118 0.0
H607 H 0.37586 0.52027 0.25754 0.0
C608 C 0.31434 0.44806 0.37163 0.0
C609 C 0.29722 0.43937 0.33079 0.0
H610 H 0.36759 0.48684 0.40278 0.0
H611 H 0.29758 0.42791 0.40365 0.0
C612 C 0.31995 0.46597 0.28984 0.0
C613 C 0.49407 0.87414 0.32493 0.0
C614 C 0.49388 0.8999 0.35338 0.0
H615 H 0.52893 0.8514 0.29545 0.0
C616 C 0.52681 0.91887 0.37887 0.0
H617 H 0.46826 0.85852 0.30607 0.0
C618 C 0.56094 0.91387 0.37399 0.0
C619 C 0.56203 0.88995 0.34348 0.0
H620 H 0.52655 0.93852 0.40125 0.0
H621 H 0.58723 0.93038 0.39198 0.0
C622 C 0.52821 0.86956 0.31957 0.0
C623 C 0.12719 0.61491 0.38009 0.0
C624 C 0.15303 0.63849 0.33982 0.0
H625 H 0.09372 0.61389 0.43844 0.0
C626 C 0.17024 0.68174 0.33105 0.0
H627 H 0.11327 0.58145 0.38735 0.0
C628 C 0.15843 0.70064 0.36003 0.0
C629 C 0.1292 0.67626 0.39796 0.0
H630 H 0.1908 0.7003 0.3004 0.0
H631 H 0.17042 0.73376 0.3515 0.0
C632 C 0.11564 0.6336 0.40901 0.0
C633 C 0.80598 0.0048 0.37965 0.0
C634 C 0.82504 0.04795 0.36546 0.0
H635 H 0.76352 0.94506 0.36505 0.0
C636 C 0.81721 0.06432 0.32423 0.0
H637 H 0.81213 0.99192 0.41137 0.0
C638 C 0.7892 0.03787 0.29834 0.0
C639 C 0.76862 0.99449 0.31325 0.0
H640 H 0.83154 0.09762 0.31309 0.0
H641 H 0.78257 0.05155 0.26751 0.0
C642 C 0.77822 0.97822 0.35346 0.0
C643 C 0.96386 0.8011 0.37275 0.0
C644 C 0.92548 0.76619 0.37083 0.0
H645 H 0.02788 0.82445 0.37971 0.0
C646 C 0.9226 0.72767 0.37185 0.0
H647 H 0.96654 0.83106 0.37189 0.0
C648 C 0.95729 0.72361 0.37702 0.0
C649 C -0.00435 0.75839 0.37973 0.0
H650 H 0.89352 0.70082 0.36859 0.0
H651 H 0.95413 0.69328 0.37928 0.0
C652 C -0.00119 0.79733 0.37676 0.0
C653 C 0.20689 0.16989 0.35336 0.0
C654 C 0.18781 0.14792 0.39692 0.0
H655 H 0.225 0.22379 0.3031 0.0
C656 C 0.17216 0.16487 0.42449 0.0
H657 H 0.21965 0.15751 0.33198 0.0
C658 C 0.17487 0.2032 0.408 0.0
C659 C 0.19395 0.22517 0.36403 0.0
H660 H 0.15753 0.14821 0.45841 0.0
H661 H 0.16226 0.2156 0.42951 0.0
C662 C 0.2101 0.20801 0.33717 0.0
C663 C 0.64673 0.50595 0.78778 0.0
C664 C 0.62034 0.50005 0.75389 0.0
H665 H 0.70619 0.54564 0.80785 0.0
C666 C 0.63344 0.53075 0.71424 0.0
H667 H 0.63732 0.48262 0.81843 0.0
C668 C 0.67316 0.56531 0.70709 0.0
C669 C 0.69998 0.57064 0.74031 0.0
H670 H 0.61316 0.52711 0.68806 0.0
H671 H 0.68267 0.5882 0.67599 0.0
C672 C 0.68614 0.54142 0.7813 0.0
C673 C 0.47392 0.14848 0.62167 0.0
C674 C 0.50458 0.16093 0.65106 0.0
H675 H 0.42005 0.14972 0.60221 0.0
C676 C 0.51248 0.19378 0.67291 0.0
H677 H 0.46735 0.12284 0.60502 0.0
C678 C 0.48493 0.20822 0.67255 0.0
C679 C 0.45023 0.1907 0.64909 0.0
H680 H 0.5359 0.20333 0.69599 0.0
H681 H 0.48794 0.22917 0.69489 0.0
C682 C 0.44683 0.16366 0.62035 0.0
C683 C 0.7956 0.29788 0.74346 0.0
C684 C 0.81931 0.3381 0.71735 0.0
H685 H 0.78088 0.23444 0.75291 0.0
C686 C 0.83982 0.34369 0.67529 0.0
H687 H 0.77967 0.2932 0.77606 0.0
C688 C 0.84065 0.3104 0.66205 0.0
C689 C 0.82105 0.27107 0.69076 0.0
H690 H 0.85853 0.37452 0.6549 0.0
H691 H 0.85982 0.31634 0.63135 0.0
C692 C 0.7962 0.26436 0.7301 0.0
C693 C 0.21091 0.98222 0.70155 0.0
C694 C 0.18133 0.98381 0.67524 0.0
H695 H 0.26601 0.01612 0.73135 0.0
C696 C 0.18414 0.02212 0.6592 0.0
H697 H 0.20918 0.9528 0.71368 0.0
C698 C 0.21685 0.05877 0.66894 0.0
C699 C 0.24711 0.05735 0.69471 0.0
H700 H 0.16159 0.02364 0.63835 0.0
H701 H 0.21851 0.08804 0.65626 0.0
C702 C 0.24339 0.01853 0.71134 0.0
C703 C 0.97906 0.15118 0.71466 0.0
C704 C 0.01251 0.18457 0.7285 0.0
H705 H 0.91394 0.11782 0.71323 0.0
C706 C 0.0057 0.20498 0.75961 0.0
H707 H 0.98421 0.13521 0.69068 0.0
C708 C 0.9657 0.1955 0.77235 0.0
C709 C 0.93235 0.16545 0.75401 0.0
H710 H 0.03148 0.23081 0.77049 0.0
H711 H 0.96127 0.21439 0.79283 0.0
C712 C 0.93902 0.1412 0.72784 0.0
C713 C 0.83203 0.84203 0.61077 0.0
C714 C 0.80065 0.85069 0.61979 0.0
H715 H 0.85577 0.80089 0.62846 0.0
C716 C 0.76569 0.82065 0.64932 0.0
H717 H 0.85974 0.86526 0.58898 0.0
C718 C 0.76393 0.78474 0.67291 0.0
C719 C 0.7969 0.77769 0.66704 0.0
H720 H 0.74174 0.82715 0.65781 0.0
H721 H 0.73772 0.76366 0.69785 0.0
C722 C 0.82998 0.80552 0.63384 0.0
C723 C 0.01825 0.85252 0.67056 0.0
C724 C 0.05407 0.84971 0.67213 0.0
H725 H 0.95223 0.81914 0.67162 0.0
C726 C 0.05031 0.81042 0.6815 0.0
H727 H 0.02054 0.88259 0.66315 0.0
C728 C 0.01184 0.77461 0.68541 0.0
C729 C 0.97618 0.77731 0.68129 0.0
H730 H 0.07744 0.80756 0.68395 0.0
H731 H 0.01007 0.74474 0.68998 0.0
C732 C 0.97935 0.81639 0.67547 0.0
C733 C 0.19289 0.26708 0.69842 0.0
C734 C 0.15863 0.23015 0.69205 0.0
H735 H 0.25846 0.30041 0.69897 0.0
C736 C 0.16264 0.19607 0.68731 0.0
H737 H 0.18975 0.29333 0.70262 0.0
C738 C 0.20119 0.19944 0.68673 0.0
C739 C 0.23614 0.2373 0.69003 0.0
H740 H 0.13608 0.16747 0.68233 0.0
H741 H 0.20413 0.17366 0.67993 0.0
C742 C 0.23169 0.2708 0.69704 0.0
C743 C 0.78766 0.94603 0.71092 0.0
C744 C 0.81468 0.96995 0.67152 0.0
H745 H 0.75309 0.94468 0.76852 0.0
C746 C 0.83217 0.01325 0.66318 0.0
H747 H 0.77357 0.91255 0.71777 0.0
C748 C 0.81987 0.03198 0.69189 0.0
C749 C 0.78997 0.00741 0.72922 0.0
H750 H 0.85342 0.0321 0.63306 0.0
H751 H 0.83213 0.06518 0.68363 0.0
C752 C 0.77565 0.96455 0.73963 0.0
C753 C 0.48844 0.3391 0.70971 0.0
C754 C 0.51049 0.38255 0.69861 0.0
H755 H 0.43986 0.2827 0.69347 0.0
C756 C 0.50468 0.40278 0.65873 0.0
H757 H 0.49383 0.32346 0.7399 0.0
C758 C 0.47441 0.38008 0.63243 0.0
C759 C 0.44916 0.33673 0.64585 0.0
H760 H 0.52162 0.43637 0.64973 0.0
H761 H 0.46911 0.39696 0.60321 0.0
C762 C 0.45788 0.31614 0.68335 0.0
C763 C 0.58812 0.06509 0.70277 0.0
C764 C 0.58968 0.1021 0.70735 0.0
H765 H 0.62067 0.03175 0.70567 0.0
C766 C 0.62664 0.13551 0.71586 0.0
H767 H 0.56014 0.03954 0.69479 0.0
C768 C 0.66159 0.13178 0.72029 0.0
C769 C 0.65979 0.09433 0.71692 0.0
H770 H 0.62822 0.16431 0.71928 0.0
H771 H 0.68954 0.15758 0.72807 0.0
C772 C 0.62277 0.06097 0.70819 0.0
C773 C 0.83591 0.49428 0.75775 0.0
C774 C 0.85662 0.48013 0.73291 0.0
H775 H 0.82542 0.54468 0.76286 0.0
C776 C 0.88447 0.50667 0.69524 0.0
H777 H 0.81414 0.47378 0.78696 0.0
C778 C 0.89149 0.54674 0.68205 0.0
C779 C 0.87006 0.56117 0.70565 0.0
H780 H 0.90058 0.49608 0.67584 0.0
H781 H 0.91317 0.566 0.65231 0.0
C782 C 0.84232 0.53458 0.74399 0.0
C783 C 0.46059 0.92128 0.24405 0.0
C784 C 0.4732 0.94564 0.27754 0.0
H785 H 0.46174 0.92033 0.1732 0.0
C786 C 0.50112 0.98833 0.2651 0.0
H787 H 0.43802 0.88846 0.25313 0.0
C788 C 0.51411 0.00697 0.21928 0.0
C789 C 0.49949 0.98296 0.18542 0.0
H790 H 0.51047 0.00751 0.29063 0.0
H791 H 0.53349 0.04044 0.21023 0.0
C792 C 0.47412 0.93964 0.19839 0.0
C793 C 0.11316 0.58091 0.17437 0.0
C794 C 0.09825 0.56091 0.21973 0.0
H795 H 0.09918 0.58728 0.10591 0.0
C796 C 0.05598 0.53271 0.23085 0.0
H797 H 0.14548 0.60396 0.1654 0.0
C798 C 0.02917 0.52442 0.19712 0.0
C799 C 0.04402 0.54441 0.15144 0.0
H800 H 0.04355 0.51827 0.26585 0.0
H801 H -0.00325 0.50213 0.20685 0.0
C802 C 0.08645 0.5725 0.14059 0.0
C803 C 0.46455 0.54359 0.22312 0.0
C804 C 0.45021 0.52388 0.26855 0.0
H805 H 0.47441 0.5371 0.15561 0.0
C806 C 0.43491 0.48108 0.28106 0.0
H807 H 0.47583 0.5765 0.21281 0.0
C808 C 0.43351 0.45815 0.24827 0.0
C809 C 0.44779 0.4779 0.20262 0.0
H810 H 0.4239 0.46551 0.31608 0.0
H811 H 0.42096 0.425 0.25859 0.0
C812 C 0.46368 0.52095 0.19052 0.0
C813 C 0.9311 0.48338 0.78663 0.0
C814 C 0.89348 0.44773 0.80506 0.0
H815 H -0.01208 0.53381 0.79993 0.0
C816 C 0.88531 0.43398 0.85213 0.0
H817 H 0.93865 0.49359 0.75029 0.0
C818 C 0.91374 0.45626 0.88055 0.0
C819 C 0.95089 0.49285 0.86245 0.0
H820 H 0.85669 0.40612 0.86678 0.0
H821 H 0.906 0.44549 0.91675 0.0
C822 C 0.9595 0.5059 0.81506 0.0
C823 C 0.52393 0.42297 0.86708 0.0
C824 C 0.54487 0.45442 0.8285 0.0
H825 H 0.49485 0.4063 0.93496 0.0
C826 C 0.55698 0.49547 0.83165 0.0
H827 H 0.51548 0.39138 0.86585 0.0
C828 C 0.54792 0.50445 0.8725 0.0
C829 C 0.52485 0.47236 0.91014 0.0
H830 H 0.57254 0.52039 0.8025 0.0
H831 H 0.55808 0.53642 0.87438 0.0
C832 C 0.51254 0.4315 0.90672 0.0
C833 C 0.50701 0.02776 0.78389 0.0
C834 C 0.51457 0.06843 0.77498 0.0
H835 H 0.49481 0.97532 0.83444 0.0
C836 C 0.51312 0.08716 0.81121 0.0
H837 H 0.50665 0.01243 0.75633 0.0
C838 C 0.50512 0.06573 0.85595 0.0
C839 C 0.49888 0.02534 0.86508 0.0
H840 H 0.51845 0.11851 0.80472 0.0
H841 H 0.50533 0.08133 0.88327 0.0
C842 C 0.49945 0.00642 0.82854 0.0
C843 C 0.15568 0.30125 0.6012 0.0
C844 C 0.12945 0.25811 0.60812 0.0
H845 H 0.1884 0.35825 0.55251 0.0
C846 C 0.12105 0.23823 0.57091 0.0
H847 H 0.16195 0.31701 0.62965 0.0
C848 C 0.1364 0.26147 0.52695 0.0
C849 C 0.15965 0.30515 0.51949 0.0
H850 H 0.10042 0.20497 0.57582 0.0
H851 H 0.12715 0.24536 0.49877 0.0
C852 C 0.17057 0.3247 0.55716 0.0
C853 C 0.78174 0.91004 0.50515 0.0
C854 C 0.76594 0.89213 0.55076 0.0
H855 H 0.76883 0.9148 0.43608 0.0
C856 C 0.72336 0.86568 0.56165 0.0
H857 H 0.81439 0.93179 0.4963 0.0
C858 C 0.69703 0.85725 0.52753 0.0
C859 C 0.71265 0.87536 0.48163 0.0
H860 H 0.71038 0.85297 0.59676 0.0
H861 H 0.66428 0.8365 0.53718 0.0
C862 C 0.75547 0.90149 0.4709 0.0
C863 C 0.09383 0.86067 0.56479 0.0
C864 C 0.1181 0.86315 0.60022 0.0
H865 H 0.07266 0.83574 0.50499 0.0
C866 C 0.13861 0.84055 0.6041 0.0
H867 H 0.07805 0.87815 0.56147 0.0
C868 C 0.13478 0.81556 0.57271 0.0
C869 C 0.1114 0.81406 0.53651 0.0
H870 H 0.15754 0.84242 0.63134 0.0
H871 H 0.15084 0.79834 0.57598 0.0
C872 C 0.09093 0.8367 0.53273 0.0
C873 C 0.59311 0.81245 0.12045 0.0
C874 C 0.55342 0.78047 0.13907 0.0
H875 H 0.65221 0.85995 0.13324 0.0
C876 C 0.54286 0.77129 0.18598 0.0
H877 H 0.60194 0.81933 0.0843 0.0
C878 C 0.57143 0.79414 0.214 0.0
C879 C 0.61133 0.82625 0.19565 0.0
H880 H 0.51235 0.74662 0.20075 0.0
H881 H 0.56183 0.78749 0.24987 0.0
C882 C 0.62184 0.83526 0.14847 0.0
C883 C 0.19346 0.76266 0.19875 0.0
C884 C 0.20129 0.78877 0.15648 0.0
H885 H 0.16885 0.74626 0.26852 0.0
C886 C 0.19207 0.82058 0.15324 0.0
H887 H 0.1993 0.73716 0.20153 0.0
C888 C 0.1739 0.82522 0.1912 0.0
C889 C 0.16458 0.79812 0.23338 0.0
H890 H 0.19661 0.84015 0.12068 0.0
H891 H 0.16679 0.84991 0.18726 0.0
C892 C 0.17524 0.76724 0.23675 0.0
C893 C 0.16778 0.36794 0.11888 0.0
C894 C 0.19087 0.41135 0.11052 0.0
H895 H 0.13879 0.31186 0.16898 0.0
C896 C 0.20041 0.43223 0.14704 0.0
H897 H 0.15864 0.3516 0.09091 0.0
C898 C 0.18777 0.40988 0.19157 0.0
C899 C 0.16561 0.36622 0.20014 0.0
H900 H 0.21691 0.46586 0.14084 0.0
H901 H 0.19643 0.42673 0.2192 0.0
C902 C 0.15567 0.34548 0.16334 0.0
C903 C 0.82595 0.64306 0.9372 0.0
C904 C 0.79499 0.60114 0.9443 0.0
H905 H 0.86464 0.69867 0.88806 0.0
C906 C 0.78239 0.5814 0.9072 0.0
H907 H 0.83564 0.65863 0.9657 0.0
C908 C 0.79969 0.60355 0.86328 0.0
C909 C 0.82895 0.6463 0.8556 0.0
H910 H 0.75819 0.54913 0.9123 0.0
H911 H 0.78798 0.58779 0.8352 0.0
C912 C 0.8425 0.66572 0.89304 0.0
C913 C 0.39328 0.19618 0.89359 0.0
C914 C 0.43399 0.22936 0.88505 0.0
H915 H 0.33587 0.16252 0.86704 0.0
C916 C 0.44778 0.25515 0.84191 0.0
H917 H 0.3813 0.17707 0.92707 0.0
C918 C 0.42146 0.24791 0.80792 0.0
C919 C 0.38078 0.21464 0.81606 0.0
H920 H 0.47861 0.28198 0.83525 0.0
H921 H 0.43288 0.26814 0.7752 0.0
C922 C 0.36701 0.18873 0.85942 0.0
C923 C 0.76964 0.14854 0.9517 0.0
C924 C 0.78553 0.19147 0.93953 0.0
H925 H 0.75428 0.09233 0.92871 0.0
C926 C 0.79952 0.21124 0.89407 0.0
H927 H 0.75886 0.13291 0.98673 0.0
C928 C 0.79756 0.18851 0.86107 0.0
C929 C 0.78103 0.14532 0.87283 0.0
H930 H 0.81129 0.24427 0.88404 0.0
H931 H 0.80802 0.20471 0.82616 0.0
C932 C 0.76727 0.12556 0.91857 0.0
C933 C 0.2638 0.16927 0.45284 0.0
C934 C 0.23172 0.12915 0.47225 0.0
H935 H 0.31445 0.22644 0.46471 0.0
C936 C 0.22671 0.11545 0.51923 0.0
H937 H 0.26893 0.18004 0.41649 0.0
C938 C 0.25347 0.14112 0.54645 0.0
C939 C 0.28534 0.18146 0.52739 0.0
H940 H 0.20213 0.08461 0.53474 0.0
H941 H 0.24864 0.12961 0.58262 0.0
C942 C 0.29014 0.19548 0.4803 0.0
C943 C 0.88 0.16304 0.49766 0.0
C944 C 0.86754 0.12214 0.49361 0.0
H945 H 0.88272 0.20347 0.54189 0.0
C946 C 0.84822 0.09039 0.53233 0.0
H947 H 0.89442 0.18809 0.46845 0.0
C948 C 0.83857 0.09858 0.57313 0.0
C949 C 0.85083 0.13927 0.57723 0.0
H950 H 0.83935 0.05882 0.53036 0.0
H951 H 0.82212 0.07324 0.60162 0.0
C952 C 0.87252 0.17162 0.53942 0.0
C953 C 0.84503 0.69364 0.45418 0.0
C954 C 0.85407 0.73477 0.44318 0.0
H955 H 0.83432 0.64324 0.50703 0.0
C956 C 0.85587 0.75615 0.47803 0.0
H957 H 0.84158 0.67612 0.42785 0.0
C958 C 0.84985 0.73693 0.52343 0.0
C959 C 0.84263 0.69626 0.53442 0.0
H960 H 0.86199 0.78776 0.46991 0.0
H961 H 0.85264 0.75444 0.5497 0.0
C962 C 0.83989 0.67468 0.49941 0.0
loop_
_geom_bond_atom_site_label_1
_geom_bond_atom_site_label_2
_geom_bond_distance
_geom_bond_site_symmetry_2
_ccdc_geom_bond_type
C0 N1 1.317 . S
C0 N2 1.348 . S
C0 C3 1.485 . S
N1 C0 1.317 . S
N1 N5 1.370 . S
N2 C0 1.348 . S
N2 C4 1.346 . S
C3 C0 1.485 . S
C3 H7 0.960 . S
C3 H8 0.961 . S
C3 H9 0.960 . S
C4 N2 1.346 . S
C4 N5 1.307 . S
C4 C6 1.486 . S
N5 N1 1.370 . S
N5 C4 1.307 . S
C6 C4 1.486 . S
C6 H10 0.960 . S
C6 H11 0.960 . S
C6 H12 0.959 . S
H7 C3 0.960 . S
H8 C3 0.961 . S
H9 C3 0.960 . S
H10 C6 0.960 . S
H11 C6 0.960 . S
H12 C6 0.959 . S
C13 N14 1.317 . S
C13 N15 1.348 . S
C13 C16 1.485 . S
N14 C13 1.317 . S
N14 N18 1.370 . S
N15 C13 1.348 . S
N15 C17 1.346 . S
C16 C13 1.485 . S
C16 H20 0.960 . S
C16 H21 0.961 . S
C16 H22 0.960 . S
C17 N15 1.346 . S
C17 N18 1.307 . S
C17 C19 1.486 . S
N18 N14 1.370 . S
N18 C17 1.307 . S
C19 C17 1.486 . S
C19 H23 0.960 . S
C19 H24 0.960 . S
C19 H25 0.959 . S
H20 C16 0.960 . S
H21 C16 0.961 . S
H22 C16 0.960 . S
H23 C19 0.960 . S
H24 C19 0.960 . S
H25 C19 0.959 . S
C26 N27 1.317 . S
C26 N28 1.348 . S
C26 C29 1.485 . S
N27 C26 1.317 . S
N27 N31 1.370 . S
N28 C26 1.348 . S
N28 C30 1.346 . S
C29 C26 1.485 . S
C29 H33 0.960 . S
C29 H34 0.961 . S
C29 H35 0.960 . S
C30 N28 1.346 . S
C30 N31 1.307 . S
C30 C32 1.486 . S
N31 N27 1.370 . S
N31 C30 1.307 . S
C32 C30 1.486 . S
C32 H36 0.960 . S
C32 H37 0.960 . S
C32 H38 0.959 . S
H33 C29 0.960 . S
H34 C29 0.961 . S
H35 C29 0.960 . S
H36 C32 0.960 . S
H37 C32 0.960 . S
H38 C32 0.959 . S
C39 N40 1.317 . S
C39 N41 1.348 . S
C39 C42 1.485 . S
N40 C39 1.317 . S
N40 N44 1.370 . S
N41 C39 1.348 . S
N41 C43 1.346 . S
C42 C39 1.485 . S
C42 H46 0.960 . S
C42 H47 0.961 . S
C42 H48 0.960 . S
C43 N41 1.346 . S
C43 N44 1.307 . S
C43 C45 1.486 . S
N44 N40 1.370 . S
N44 C43 1.307 . S
C45 C43 1.486 . S
C45 H49 0.960 . S
C45 H50 0.960 . S
C45 H51 0.959 . S
H46 C42 0.960 . S
H47 C42 0.961 . S
H48 C42 0.960 . S
H49 C45 0.960 . S
H50 C45 0.960 . S
H51 C45 0.959 . S
C52 N53 1.317 . S
C52 N54 1.348 . S
C52 C55 1.485 . S
N53 C52 1.317 . S
N53 N57 1.370 . S
N54 C52 1.348 . S
N54 C56 1.346 . S
C55 C52 1.485 . S
C55 H59 0.960 . S
C55 H60 0.961 . S
C55 H61 0.960 . S
C56 N54 1.346 . S
C56 N57 1.307 . S
C56 C58 1.486 . S
N57 N53 1.370 . S
N57 C56 1.307 . S
C58 C56 1.486 . S
C58 H62 0.960 . S
C58 H63 0.960 . S
C58 H64 0.959 . S
H59 C55 0.960 . S
H60 C55 0.961 . S
H61 C55 0.960 . S
H62 C58 0.960 . S
H63 C58 0.960 . S
H64 C58 0.959 . S
C65 N66 1.317 . S
C65 N67 1.348 . S
C65 C68 1.485 . S
N66 C65 1.317 . S
N66 N70 1.370 . S
N67 C65 1.348 . S
N67 C69 1.346 . S
C68 C65 1.485 . S
C68 H72 0.960 . S
C68 H73 0.961 . S
C68 H74 0.960 . S
C69 N67 1.346 . S
C69 N70 1.307 . S
C69 C71 1.486 . S
N70 N66 1.370 . S
N70 C69 1.307 . S
C71 C69 1.486 . S
C71 H75 0.960 . S
C71 H76 0.960 . S
C71 H77 0.959 . S
H72 C68 0.960 . S
H73 C68 0.961 . S
H74 C68 0.960 . S
H75 C71 0.960 . S
H76 C71 0.960 . S
H77 C71 0.959 . S
C78 N79 1.317 . S
C78 N80 1.348 . S
C78 C81 1.485 . S
N79 C78 1.317 . S
N79 N83 1.370 . S
N80 C78 1.348 . S
N80 C82 1.346 . S
C81 C78 1.485 . S
C81 H85 0.960 . S
C81 H86 0.961 . S
C81 H87 0.960 . S
C82 N80 1.346 . S
C82 N83 1.307 . S
C82 C84 1.486 . S
N83 N79 1.370 . S
N83 C82 1.307 . S
C84 C82 1.486 . S
C84 H88 0.960 . S
C84 H89 0.960 . S
C84 H90 0.959 . S
H85 C81 0.960 . S
H86 C81 0.961 . S
H87 C81 0.960 . S
H88 C84 0.960 . S
H89 C84 0.960 . S
H90 C84 0.959 . S
C91 N92 1.317 . S
C91 N93 1.348 . S
C91 C94 1.485 . S
N92 C91 1.317 . S
N92 N96 1.370 . S
N93 C91 1.348 . S
N93 C95 1.346 . S
C94 C91 1.485 . S
C94 H98 0.960 . S
C94 H99 0.961 . S
C94 H100 0.960 . S
C95 N93 1.346 . S
C95 N96 1.307 . S
C95 C97 1.486 . S
N96 N92 1.370 . S
N96 C95 1.307 . S
C97 C95 1.486 . S
C97 H101 0.960 . S
C97 H102 0.960 . S
C97 H103 0.959 . S
H98 C94 0.960 . S
H99 C94 0.961 . S
H100 C94 0.960 . S
H101 C97 0.960 . S
H102 C97 0.960 . S
H103 C97 0.959 . S
C104 N105 1.317 . S
C104 N106 1.348 . S
C104 C107 1.485 . S
N105 C104 1.317 . S
N105 N109 1.370 . S
N106 C104 1.348 . S
N106 C108 1.346 . S
C107 C104 1.485 . S
C107 H111 0.960 . S
C107 H112 0.961 . S
C107 H113 0.960 . S
C108 N106 1.346 . S
C108 N109 1.307 . S
C108 C110 1.486 . S
N109 N105 1.370 . S
N109 C108 1.307 . S
C110 C108 1.486 . S
C110 H114 0.960 . S
C110 H115 0.960 . S
C110 H116 0.959 . S
H111 C107 0.960 . S
H112 C107 0.961 . S
H113 C107 0.960 . S
H114 C110 0.960 . S
H115 C110 0.960 . S
H116 C110 0.959 . S
C117 N118 1.317 1_554 S
C117 N119 1.348 . S
C117 C120 1.485 . S
N118 C117 1.317 1_556 S
N118 N122 1.370 . S
N119 C117 1.348 . S
N119 C121 1.346 1_554 S
C120 C117 1.485 . S
C120 H124 0.960 . S
C120 H125 0.961 . S
C120 H126 0.960 . S
C121 N119 1.346 1_556 S
C121 N122 1.307 . S
C121 C123 1.486 . S
N122 N118 1.370 . S
N122 C121 1.307 . S
C123 C121 1.486 . S
C123 H127 0.960 . S
C123 H128 0.960 . S
C123 H129 0.959 . S
H124 C120 0.960 . S
H125 C120 0.961 . S
H126 C120 0.960 . S
H127 C123 0.960 . S
H128 C123 0.960 . S
H129 C123 0.959 . S
C130 N131 1.317 1_554 S
C130 N132 1.348 . S
C130 C133 1.485 . S
N131 C130 1.317 1_556 S
N131 N135 1.370 . S
N132 C130 1.348 . S
N132 C134 1.346 1_554 S
C133 C130 1.485 . S
C133 H137 0.960 . S
C133 H138 0.961 . S
C133 H139 0.960 . S
C134 N132 1.346 1_556 S
C134 N135 1.307 . S
C134 C136 1.486 . S
N135 N131 1.370 . S
N135 C134 1.307 . S
C136 C134 1.486 . S
C136 H140 0.960 . S
C136 H141 0.960 . S
C136 H142 0.959 . S
H137 C133 0.960 . S
H138 C133 0.961 . S
H139 C133 0.960 . S
H140 C136 0.960 . S
H141 C136 0.960 . S
H142 C136 0.959 . S
C143 N144 1.317 . S
C143 N145 1.348 . S
C143 C146 1.485 . S
N144 C143 1.317 . S
N144 N148 1.370 1_554 S
N145 C143 1.348 . S
N145 C147 1.346 1_554 S
C146 C143 1.485 . S
C146 H150 0.960 . S
C146 H151 0.961 . S
C146 H152 0.960 . S
C147 N145 1.346 1_556 S
C147 N148 1.307 . S
C147 C149 1.486 . S
N148 N144 1.370 1_556 S
N148 C147 1.307 . S
C149 C147 1.486 . S
C149 H153 0.960 . S
C149 H154 0.960 . S
C149 H155 0.959 . S
H150 C146 0.960 . S
H151 C146 0.961 . S
H152 C146 0.960 . S
H153 C149 0.960 . S
H154 C149 0.960 . S
H155 C149 0.959 . S
C156 N157 1.317 . S
C156 N158 1.348 . S
C156 C159 1.485 1_554 S
N157 C156 1.317 . S
N157 N161 1.370 . S
N158 C156 1.348 . S
N158 C160 1.346 . S
C159 C156 1.485 1_556 S
C159 H163 0.960 . S
C159 H164 0.961 . S
C159 H165 0.960 . S
C160 N158 1.346 . S
C160 N161 1.307 . S
C160 C162 1.486 . S
N161 N157 1.370 . S
N161 C160 1.307 . S
C162 C160 1.486 . S
C162 H166 0.960 . S
C162 H167 0.960 . S
C162 H168 0.959 . S
H163 C159 0.960 . S
H164 C159 0.961 . S
H165 C159 0.960 . S
H166 C162 0.960 . S
H167 C162 0.960 . S
H168 C162 0.959 . S
C169 N170 1.317 . S
C169 N171 1.348 . S
C169 C172 1.485 1_554 S
N170 C169 1.317 . S
N170 N174 1.370 . S
N171 C169 1.348 . S
N171 C173 1.346 . S
C172 C169 1.485 1_556 S
C172 H176 0.960 . S
C172 H177 0.961 . S
C172 H178 0.960 . S
C173 N171 1.346 . S
C173 N174 1.307 . S
C173 C175 1.486 . S
N174 N170 1.370 . S
N174 C173 1.307 . S
C175 C173 1.486 . S
C175 H179 0.960 . S
C175 H180 0.960 . S
C175 H181 0.959 . S
H176 C172 0.960 . S
H177 C172 0.961 . S
H178 C172 0.960 . S
H179 C175 0.960 . S
H180 C175 0.960 . S
H181 C175 0.959 . S
C182 N183 1.317 . S
C182 N184 1.348 . S
C182 C185 1.485 1_554 S
N183 C182 1.317 . S
N183 N187 1.370 . S
N184 C182 1.348 . S
N184 C186 1.346 . S
C185 C182 1.485 1_556 S
C185 H189 0.960 . S
C185 H190 0.961 . S
C185 H191 0.960 . S
C186 N184 1.346 . S
C186 N187 1.307 . S
C186 C188 1.486 . S
N187 N183 1.370 . S
N187 C186 1.307 . S
C188 C186 1.486 . S
C188 H192 0.960 . S
C188 H193 0.960 . S
C188 H194 0.959 . S
H189 C185 0.960 . S
H190 C185 0.961 . S
H191 C185 0.960 . S
H192 C188 0.960 . S
H193 C188 0.960 . S
H194 C188 0.959 . S
C195 N196 1.317 . S
C195 N197 1.348 . S
C195 C198 1.485 . S
N196 C195 1.317 . S
N196 N200 1.370 . S
N197 C195 1.348 . S
N197 C199 1.346 . S
C198 C195 1.485 . S
C198 H202 0.960 . S
C198 H203 0.961 . S
C198 H204 0.960 . S
C199 N197 1.346 . S
C199 N200 1.307 . S
C199 C201 1.486 . S
N200 N196 1.370 . S
N200 C199 1.307 . S
C201 C199 1.486 . S
C201 H205 0.960 . S
C201 H206 0.960 . S
C201 H207 0.959 . S
H202 C198 0.960 . S
H203 C198 0.961 . S
H204 C198 0.960 . S
H205 C201 0.960 . S
H206 C201 0.960 . S
H207 C201 0.959 . S
C208 N209 1.317 . S
C208 N210 1.348 . S
C208 C211 1.485 . S
N209 C208 1.317 . S
N209 N213 1.370 . S
N210 C208 1.348 . S
N210 C212 1.346 . S
C211 C208 1.485 . S
C211 H215 0.960 . S
C211 H216 0.961 . S
C211 H217 0.960 . S
C212 N210 1.346 . S
C212 N213 1.307 . S
C212 C214 1.486 . S
N213 N209 1.370 . S
N213 C212 1.307 . S
C214 C212 1.486 . S
C214 H218 0.960 . S
C214 H219 0.960 . S
C214 H220 0.959 . S
H215 C211 0.960 . S
H216 C211 0.961 . S
H217 C211 0.960 . S
H218 C214 0.960 . S
H219 C214 0.960 . S
H220 C214 0.959 . S
C221 N222 1.317 . S
C221 N223 1.348 . S
C221 C224 1.485 . S
N222 C221 1.317 . S
N222 N226 1.370 . S
N223 C221 1.348 . S
N223 C225 1.346 . S
C224 C221 1.485 . S
C224 H228 0.960 . S
C224 H229 0.961 . S
C224 H230 0.960 . S
C225 N223 1.346 . S
C225 N226 1.307 . S
C225 C227 1.486 . S
N226 N222 1.370 . S
N226 C225 1.307 . S
C227 C225 1.486 . S
C227 H231 0.960 . S
C227 H232 0.960 . S
C227 H233 0.959 . S
H228 C224 0.960 . S
H229 C224 0.961 . S
H230 C224 0.960 . S
H231 C227 0.960 . S
H232 C227 0.960 . S
H233 C227 0.959 . S
O234 Mg235 1.990 . S
O234 C248 1.253 . S
Mg235 O234 1.990 . S
Mg235 O238 2.180 1_546 S
Mg235 O239 2.117 1_545 S
Mg235 O253 2.030 . S
O236 Mg237 2.072 1_556 S
O236 C248 1.260 . S
Mg237 O236 2.072 1_554 S
Mg237 O238 2.099 1_545 S
Mg237 O240 2.079 1_545 S
Mg237 O241 2.072 1_545 S
Mg237 O243 2.099 . S
Mg237 O254 2.079 . S
O238 Mg235 2.180 1_564 S
O238 Mg237 2.099 1_565 S
O238 C249 1.279 . S
O239 Mg235 2.117 1_565 S
O239 C249 1.250 1_556 S
O240 Mg237 2.079 1_565 S
O240 C250 1.264 . S
O241 Mg237 2.072 1_565 S
O241 C251 1.260 . S
Mg242 O243 2.180 . S
Mg242 O244 2.030 1_545 S
Mg242 O245 1.990 1_545 S
Mg242 O246 2.117 . S
O243 Mg237 2.099 . S
O243 Mg242 2.180 . S
O243 C252 1.279 . S
O244 Mg242 2.030 1_565 S
O244 C250 1.248 . S
O245 Mg242 1.990 1_565 S
O245 C251 1.253 . S
O246 Mg242 2.117 . S
O246 C252 1.250 . S
C247 O253 1.248 1_554 S
C247 O254 1.264 . S
C248 O234 1.253 . S
C248 O236 1.260 . S
C249 O238 1.279 . S
C249 O239 1.250 1_554 S
C250 O240 1.264 . S
C250 O244 1.248 . S
C251 O241 1.260 . S
C251 O245 1.253 . S
C252 O243 1.279 . S
C252 O246 1.250 . S
O253 Mg235 2.030 . S
O253 C247 1.248 1_556 S
O254 Mg237 2.079 . S
O254 C247 1.264 . S
O255 Mg256 1.990 . S
O255 C269 1.253 1_455 S
Mg256 O255 1.990 . S
Mg256 O259 2.180 . S
Mg256 O260 2.117 . S
Mg256 O274 2.030 1_455 S
O257 Mg258 2.072 1_656 S
O257 C269 1.260 . S
Mg258 O257 2.072 1_454 S
Mg258 O259 2.099 1_554 S
Mg258 O261 2.079 . S
Mg258 O262 2.072 . S
Mg258 O264 2.099 1_455 S
Mg258 O275 2.079 1_455 S
O259 Mg256 2.180 . S
O259 Mg258 2.099 1_556 S
O259 C270 1.279 . S
O260 Mg256 2.117 . S
O260 C270 1.250 . S
O261 Mg258 2.079 . S
O261 C271 1.264 . S
O262 Mg258 2.072 . S
O262 C272 1.260 . S
Mg263 O264 2.180 1_455 S
Mg263 O265 2.030 . S
Mg263 O266 1.990 . S
Mg263 O267 2.117 1_455 S
O264 Mg258 2.099 1_655 S
O264 Mg263 2.180 1_655 S
O264 C273 1.279 . S
O265 Mg263 2.030 . S
O265 C271 1.248 . S
O266 Mg263 1.990 . S
O266 C272 1.253 . S
O267 Mg263 2.117 1_655 S
O267 C273 1.250 . S
C268 O274 1.248 . S
C268 O275 1.264 1_556 S
C269 O255 1.253 1_655 S
C269 O257 1.260 . S
C270 O259 1.279 . S
C270 O260 1.250 . S
C271 O261 1.264 . S
C271 O265 1.248 . S
C272 O262 1.260 . S
C272 O266 1.253 . S
C273 O264 1.279 . S
C273 O267 1.250 . S
O274 Mg256 2.030 1_655 S
O274 C268 1.248 . S
O275 Mg258 2.079 1_655 S
O275 C268 1.264 1_554 S
O276 Mg277 1.990 . S
O276 C290 1.253 . S
Mg277 O276 1.990 . S
Mg277 O280 2.180 . S
Mg277 O281 2.117 . S
Mg277 O295 2.030 . S
O278 Mg279 2.072 . S
O278 C290 1.260 . S
Mg279 O278 2.072 . S
Mg279 O280 2.099 . S
Mg279 O282 2.079 1_554 S
Mg279 O283 2.072 . S
Mg279 O285 2.099 . S
Mg279 O296 2.079 . S
O280 Mg277 2.180 . S
O280 Mg279 2.099 . S
O280 C291 1.279 . S
O281 Mg277 2.117 . S
O281 C291 1.250 . S
O282 Mg279 2.079 1_556 S
O282 C292 1.264 . S
O283 Mg279 2.072 . S
O283 C293 1.260 . S
Mg284 O285 2.180 1_556 S
Mg284 O286 2.030 . S
Mg284 O287 1.990 1_556 S
Mg284 O288 2.117 1_556 S
O285 Mg279 2.099 . S
O285 Mg284 2.180 1_554 S
O285 C294 1.279 . S
O286 Mg284 2.030 . S
O286 C292 1.248 . S
O287 Mg284 1.990 1_554 S
O287 C293 1.253 . S
O288 Mg284 2.117 1_554 S
O288 C294 1.250 . S
C289 O295 1.248 . S
C289 O296 1.264 . S
C290 O276 1.253 . S
C290 O278 1.260 . S
C291 O280 1.279 . S
C291 O281 1.250 . S
C292 O282 1.264 . S
C292 O286 1.248 . S
C293 O283 1.260 . S
C293 O287 1.253 . S
C294 O285 1.279 . S
C294 O288 1.250 . S
O295 Mg277 2.030 . S
O295 C289 1.248 . S
O296 Mg279 2.079 . S
O296 C289 1.264 . S
O297 Mg298 1.990 . S
O297 C311 1.253 . S
Mg298 O297 1.990 . S
Mg298 O301 2.180 . S
Mg298 O302 2.117 . S
Mg298 O316 2.030 . S
O299 Mg300 2.072 . S
O299 C311 1.260 . S
Mg300 O299 2.072 . S
Mg300 O301 2.099 . S
Mg300 O303 2.079 . S
Mg300 O304 2.072 . S
Mg300 O306 2.099 . S
Mg300 O317 2.079 . S
O301 Mg298 2.180 . S
O301 Mg300 2.099 . S
O301 C312 1.279 . S
O302 Mg298 2.117 . S
O302 C312 1.250 . S
O303 Mg300 2.079 . S
O303 C313 1.264 . S
O304 Mg300 2.072 . S
O304 C314 1.260 . S
Mg305 O306 2.180 . S
Mg305 O307 2.030 . S
Mg305 O308 1.990 . S
Mg305 O309 2.117 . S
O306 Mg300 2.099 . S
O306 Mg305 2.180 . S
O306 C315 1.279 . S
O307 Mg305 2.030 . S
O307 C313 1.248 . S
O308 Mg305 1.990 . S
O308 C314 1.253 . S
O309 Mg305 2.117 . S
O309 C315 1.250 . S
C310 O316 1.248 . S
C310 O317 1.264 . S
C311 O297 1.253 . S
C311 O299 1.260 . S
C312 O301 1.279 . S
C312 O302 1.250 . S
C313 O303 1.264 . S
C313 O307 1.248 . S
C314 O304 1.260 . S
C314 O308 1.253 . S
C315 O306 1.279 . S
C315 O309 1.250 . S
O316 Mg298 2.030 . S
O316 C310 1.248 . S
O317 Mg300 2.079 . S
O317 C310 1.264 . S
O318 Mg319 1.990 . S
O318 C332 1.253 . S
Mg319 O318 1.990 . S
Mg319 O322 2.180 . S
Mg319 O323 2.117 . S
Mg319 O337 2.030 . S
O320 Mg321 2.072 . S
O320 C332 1.260 . S
Mg321 O320 2.072 . S
Mg321 O322 2.099 . S
Mg321 O324 2.079 . S
Mg321 O325 2.072 . S
Mg321 O327 2.099 . S
Mg321 O338 2.079 . S
O322 Mg319 2.180 . S
O322 Mg321 2.099 . S
O322 C333 1.279 . S
O323 Mg319 2.117 . S
O323 C333 1.250 . S
O324 Mg321 2.079 . S
O324 C334 1.264 . S
O325 Mg321 2.072 . S
O325 C335 1.260 . S
Mg326 O327 2.180 . S
Mg326 O328 2.030 . S
Mg326 O329 1.990 . S
Mg326 O330 2.117 . S
O327 Mg321 2.099 . S
O327 Mg326 2.180 . S
O327 C336 1.279 . S
O328 Mg326 2.030 . S
O328 C334 1.248 . S
O329 Mg326 1.990 . S
O329 C335 1.253 . S
O330 Mg326 2.117 . S
O330 C336 1.250 . S
C331 O337 1.248 . S
C331 O338 1.264 . S
C332 O318 1.253 . S
C332 O320 1.260 . S
C333 O322 1.279 . S
C333 O323 1.250 . S
C334 O324 1.264 . S
C334 O328 1.248 . S
C335 O325 1.260 . S
C335 O329 1.253 . S
C336 O327 1.279 . S
C336 O330 1.250 . S
O337 Mg319 2.030 . S
O337 C331 1.248 . S
O338 Mg321 2.079 . S
O338 C331 1.264 . S
O339 Mg340 1.990 . S
O339 C353 1.253 . S
Mg340 O339 1.990 . S
Mg340 O343 2.180 . S
Mg340 O344 2.117 . S
Mg340 O358 2.030 . S
O341 Mg342 2.072 . S
O341 C353 1.260 . S
Mg342 O341 2.072 . S
Mg342 O343 2.099 . S
Mg342 O345 2.079 . S
Mg342 O346 2.072 . S
Mg342 O348 2.099 . S
Mg342 O359 2.079 . S
O343 Mg340 2.180 . S
O343 Mg342 2.099 . S
O343 C354 1.279 . S
O344 Mg340 2.117 . S
O344 C354 1.250 . S
O345 Mg342 2.079 . S
O345 C355 1.264 . S
O346 Mg342 2.072 . S
O346 C356 1.260 . S
Mg347 O348 2.180 . S
Mg347 O349 2.030 . S
Mg347 O350 1.990 . S
Mg347 O351 2.117 . S
O348 Mg342 2.099 . S
O348 Mg347 2.180 . S
O348 C357 1.279 . S
O349 Mg347 2.030 . S
O349 C355 1.248 . S
O350 Mg347 1.990 . S
O350 C356 1.253 . S
O351 Mg347 2.117 . S
O351 C357 1.250 . S
C352 O358 1.248 . S
C352 O359 1.264 . S
C353 O339 1.253 . S
C353 O341 1.260 . S
C354 O343 1.279 . S
C354 O344 1.250 . S
C355 O345 1.264 . S
C355 O349 1.248 . S
C356 O346 1.260 . S
C356 O350 1.253 . S
C357 O348 1.279 . S
C357 O351 1.250 . S
O358 Mg340 2.030 . S
O358 C352 1.248 . S
O359 Mg342 2.079 . S
O359 C352 1.264 . S
O360 Mg361 1.990 . S
O360 C374 1.253 . S
Mg361 O360 1.990 . S
Mg361 O364 2.180 . S
Mg361 O365 2.117 . S
Mg361 O379 2.030 . S
O362 Mg363 2.072 . S
O362 C374 1.260 . S
Mg363 O362 2.072 . S
Mg363 O364 2.099 . S
Mg363 O366 2.079 . S
Mg363 O367 2.072 . S
Mg363 O369 2.099 . S
Mg363 O380 2.079 . S
O364 Mg361 2.180 . S
O364 Mg363 2.099 . S
O364 C375 1.279 . S
O365 Mg361 2.117 . S
O365 C375 1.250 . S
O366 Mg363 2.079 . S
O366 C376 1.264 . S
O367 Mg363 2.072 . S
O367 C377 1.260 . S
Mg368 O369 2.180 . S
Mg368 O370 2.030 . S
Mg368 O371 1.990 . S
Mg368 O372 2.117 . S
O369 Mg363 2.099 . S
O369 Mg368 2.180 . S
O369 C378 1.279 . S
O370 Mg368 2.030 . S
O370 C376 1.248 . S
O371 Mg368 1.990 . S
O371 C377 1.253 . S
O372 Mg368 2.117 . S
O372 C378 1.250 . S
C373 O379 1.248 . S
C373 O380 1.264 . S
C374 O360 1.253 . S
C374 O362 1.260 . S
C375 O364 1.279 . S
C375 O365 1.250 . S
C376 O366 1.264 . S
C376 O370 1.248 . S
C377 O367 1.260 . S
C377 O371 1.253 . S
C378 O369 1.279 . S
C378 O372 1.250 . S
O379 Mg361 2.030 . S
O379 C373 1.248 . S
O380 Mg363 2.079 . S
O380 C373 1.264 . S
O381 Mg382 1.990 . S
O381 C395 1.253 . S
Mg382 O381 1.990 . S
Mg382 O385 2.180 . S
Mg382 O386 2.117 . S
Mg382 O400 2.030 . S
O383 Mg384 2.072 . S
O383 C395 1.260 . S
Mg384 O383 2.072 . S
Mg384 O385 2.099 . S
Mg384 O387 2.079 . S
Mg384 O388 2.072 . S
Mg384 O390 2.099 . S
Mg384 O401 2.079 . S
O385 Mg382 2.180 . S
O385 Mg384 2.099 . S
O385 C396 1.279 . S
O386 Mg382 2.117 . S
O386 C396 1.250 . S
O387 Mg384 2.079 . S
O387 C397 1.264 . S
O388 Mg384 2.072 . S
O388 C398 1.260 . S
Mg389 O390 2.180 . S
Mg389 O391 2.030 . S
Mg389 O392 1.990 . S
Mg389 O393 2.117 . S
O390 Mg384 2.099 . S
O390 Mg389 2.180 . S
O390 C399 1.279 . S
O391 Mg389 2.030 . S
O391 C397 1.248 . S
O392 Mg389 1.990 . S
O392 C398 1.253 . S
O393 Mg389 2.117 . S
O393 C399 1.250 . S
C394 O400 1.248 . S
C394 O401 1.264 . S
C395 O381 1.253 . S
C395 O383 1.260 . S
C396 O385 1.279 . S
C396 O386 1.250 . S
C397 O387 1.264 . S
C397 O391 1.248 . S
C398 O388 1.260 . S
C398 O392 1.253 . S
C399 O390 1.279 . S
C399 O393 1.250 . S
O400 Mg382 2.030 . S
O400 C394 1.248 . S
O401 Mg384 2.079 . S
O401 C394 1.264 . S
O402 Mg403 1.990 . S
O402 C416 1.253 . S
Mg403 O402 1.990 . S
Mg403 O406 2.180 . S
Mg403 O407 2.117 . S
Mg403 O421 2.030 . S
O404 Mg405 2.072 . S
O404 C416 1.260 . S
Mg405 O404 2.072 . S
Mg405 O406 2.099 . S
Mg405 O408 2.079 . S
Mg405 O409 2.072 . S
Mg405 O411 2.099 . S
Mg405 O422 2.079 . S
O406 Mg403 2.180 . S
O406 Mg405 2.099 . S
O406 C417 1.279 . S
O407 Mg403 2.117 . S
O407 C417 1.250 . S
O408 Mg405 2.079 . S
O408 C418 1.264 . S
O409 Mg405 2.072 . S
O409 C419 1.260 . S
Mg410 O411 2.180 . S
Mg410 O412 2.030 . S
Mg410 O413 1.990 . S
Mg410 O414 2.117 . S
O411 Mg405 2.099 . S
O411 Mg410 2.180 . S
O411 C420 1.279 . S
O412 Mg410 2.030 . S
O412 C418 1.248 . S
O413 Mg410 1.990 . S
O413 C419 1.253 . S
O414 Mg410 2.117 . S
O414 C420 1.250 . S
C415 O421 1.248 . S
C415 O422 1.264 . S
C416 O402 1.253 . S
C416 O404 1.260 . S
C417 O406 1.279 . S
C417 O407 1.250 . S
C418 O408 1.264 . S
C418 O412 1.248 . S
C419 O409 1.260 . S
C419 O413 1.253 . S
C420 O411 1.279 . S
C420 O414 1.250 . S
O421 Mg403 2.030 . S
O421 C415 1.248 . S
O422 Mg405 2.079 . S
O422 C415 1.264 . S
C423 C424 1.387 . S
C423 H427 0.950 . S
C423 C432 1.390 . S
C424 C423 1.387 . S
C424 C426 1.387 1_554 S
H425 C432 0.950 . S
C426 C424 1.387 1_556 S
C426 C428 1.390 . S
C426 H430 0.950 . S
H427 C423 0.950 . S
C428 C426 1.390 . S
C428 C429 1.387 1_556 S
C428 H431 0.950 . S
C429 C428 1.387 1_554 S
C429 C432 1.387 . S
H430 C426 0.950 . S
H431 C428 0.950 . S
C432 C423 1.390 . S
C432 H425 0.950 . S
C432 C429 1.387 . S
C433 C434 1.387 1_556 S
C433 H437 0.950 . S
C433 C442 1.390 . S
C434 C433 1.387 1_554 S
C434 C436 1.387 . S
H435 C442 0.950 . S
C436 C434 1.387 . S
C436 C438 1.390 . S
C436 H440 0.950 . S
H437 C433 0.950 . S
C438 C436 1.390 . S
C438 C439 1.387 . S
C438 H441 0.950 . S
C439 C438 1.387 . S
C439 C442 1.387 1_554 S
H440 C436 0.950 . S
H441 C438 0.950 . S
C442 C433 1.390 . S
C442 H435 0.950 . S
C442 C439 1.387 1_556 S
C443 C444 1.387 . S
C443 H447 0.950 . S
C443 C452 1.390 . S
C444 C443 1.387 . S
C444 C446 1.387 . S
H445 C452 0.950 . S
C446 C444 1.387 . S
C446 C448 1.390 . S
C446 H450 0.950 . S
H447 C443 0.950 . S
C448 C446 1.390 . S
C448 C449 1.387 . S
C448 H451 0.950 . S
C449 C448 1.387 . S
C449 C452 1.387 . S
H450 C446 0.950 . S
H451 C448 0.950 . S
C452 C443 1.390 . S
C452 H445 0.950 . S
C452 C449 1.387 . S
C453 C454 1.387 1_556 S
C453 H457 0.950 . S
C453 C462 1.390 . S
C454 C453 1.387 1_554 S
C454 C456 1.387 . S
H455 C462 0.950 . S
C456 C454 1.387 . S
C456 C458 1.390 . S
C456 H460 0.950 . S
H457 C453 0.950 . S
C458 C456 1.390 . S
C458 C459 1.387 . S
C458 H461 0.950 . S
C459 C458 1.387 . S
C459 C462 1.387 1_554 S
H460 C456 0.950 . S
H461 C458 0.950 . S
C462 C453 1.390 . S
C462 H455 0.950 . S
C462 C459 1.387 1_556 S
C463 C464 1.387 1_556 S
C463 H467 0.950 . S
C463 C472 1.390 . S
C464 C463 1.387 1_554 S
C464 C466 1.387 . S
H465 C472 0.950 . S
C466 C464 1.387 . S
C466 C468 1.390 . S
C466 H470 0.950 . S
H467 C463 0.950 . S
C468 C466 1.390 . S
C468 C469 1.387 . S
C468 H471 0.950 . S
C469 C468 1.387 . S
C469 C472 1.387 1_554 S
H470 C466 0.950 . S
H471 C468 0.950 . S
C472 C463 1.390 . S
C472 H465 0.950 . S
C472 C469 1.387 1_556 S
C473 C474 1.387 1_556 S
C473 H477 0.950 . S
C473 C482 1.390 . S
C474 C473 1.387 1_554 S
C474 C476 1.387 . S
H475 C482 0.950 . S
C476 C474 1.387 . S
C476 C478 1.390 . S
C476 H480 0.950 . S
H477 C473 0.950 . S
C478 C476 1.390 . S
C478 C479 1.387 . S
C478 H481 0.950 . S
C479 C478 1.387 . S
C479 C482 1.387 1_554 S
H480 C476 0.950 . S
H481 C478 0.950 . S
C482 C473 1.390 . S
C482 H475 0.950 . S
C482 C479 1.387 1_556 S
C483 C484 1.387 . S
C483 H487 0.950 . S
C483 C492 1.390 . S
C484 C483 1.387 . S
C484 C486 1.387 1_554 S
H485 C492 0.950 . S
C486 C484 1.387 1_556 S
C486 C488 1.390 . S
C486 H490 0.950 . S
H487 C483 0.950 . S
C488 C486 1.390 . S
C488 C489 1.387 1_556 S
C488 H491 0.950 . S
C489 C488 1.387 1_554 S
C489 C492 1.387 . S
H490 C486 0.950 . S
H491 C488 0.950 . S
C492 C483 1.390 . S
C492 H485 0.950 . S
C492 C489 1.387 . S
C493 C494 1.387 . S
C493 H497 0.950 . S
C493 C502 1.390 . S
C494 C493 1.387 . S
C494 C496 1.387 1_556 S
H495 C502 0.950 . S
C496 C494 1.387 1_554 S
C496 C498 1.390 . S
C496 H500 0.950 . S
H497 C493 0.950 . S
C498 C496 1.390 . S
C498 C499 1.387 1_554 S
C498 H501 0.950 . S
C499 C498 1.387 1_556 S
C499 C502 1.387 . S
H500 C496 0.950 . S
H501 C498 0.950 . S
C502 C493 1.390 . S
C502 H495 0.950 . S
C502 C499 1.387 . S
C503 C504 1.387 . S
C503 H507 0.950 . S
C503 C512 1.390 . S
C504 C503 1.387 . S
C504 C506 1.387 1_554 S
H505 C512 0.950 . S
C506 C504 1.387 1_556 S
C506 C508 1.390 1_556 S
C506 H510 0.950 . S
H507 C503 0.950 . S
C508 C506 1.390 1_554 S
C508 C509 1.387 . S
C508 H511 0.950 1_554 S
C509 C508 1.387 . S
C509 C512 1.387 . S
H510 C506 0.950 . S
H511 C508 0.950 1_556 S
C512 C503 1.390 . S
C512 H505 0.950 . S
C512 C509 1.387 . S
C513 C514 1.387 . S
C513 H517 0.950 . S
C513 C522 1.390 . S
C514 C513 1.387 . S
C514 C516 1.387 1_554 S
H515 C522 0.950 . S
C516 C514 1.387 1_556 S
C516 C518 1.390 . S
C516 H520 0.950 . S
H517 C513 0.950 . S
C518 C516 1.390 . S
C518 C519 1.387 . S
C518 H521 0.950 . S
C519 C518 1.387 . S
C519 C522 1.387 1_556 S
H520 C516 0.950 . S
H521 C518 0.950 . S
C522 C513 1.390 . S
C522 H515 0.950 . S
C522 C519 1.387 1_554 S
C523 C524 1.387 . S
C523 H527 0.950 . S
C523 C532 1.390 . S
C524 C523 1.387 . S
C524 C526 1.387 . S
H525 C532 0.950 . S
C526 C524 1.387 . S
C526 C528 1.390 . S
C526 H530 0.950 1_554 S
H527 C523 0.950 . S
C528 C526 1.390 . S
C528 C529 1.387 . S
C528 H531 0.950 1_554 S
C529 C528 1.387 . S
C529 C532 1.387 . S
H530 C526 0.950 1_556 S
H531 C528 0.950 1_556 S
C532 C523 1.390 . S
C532 H525 0.950 . S
C532 C529 1.387 . S
C533 C534 1.387 1_556 S
C533 H537 0.950 . S
C533 C542 1.390 . S
C534 C533 1.387 1_554 S
C534 C536 1.387 . S
H535 C542 0.950 . S
C536 C534 1.387 . S
C536 C538 1.390 . S
C536 H540 0.950 . S
H537 C533 0.950 . S
C538 C536 1.390 . S
C538 C539 1.387 . S
C538 H541 0.950 . S
C539 C538 1.387 . S
C539 C542 1.387 1_554 S
H540 C536 0.950 . S
H541 C538 0.950 . S
C542 C533 1.390 . S
C542 H535 0.950 . S
C542 C539 1.387 1_556 S
C543 C544 1.387 . S
C543 H547 0.950 . S
C543 C552 1.390 1_655 S
C544 C543 1.387 . S
C544 C546 1.387 . S
H545 C552 0.950 . S
C546 C544 1.387 . S
C546 C548 1.390 1_655 S
C546 H550 0.950 . S
H547 C543 0.950 . S
C548 C546 1.390 1_455 S
C548 C549 1.387 . S
C548 H551 0.950 . S
C549 C548 1.387 . S
C549 C552 1.387 . S
H550 C546 0.950 . S
H551 C548 0.950 . S
C552 C543 1.390 1_455 S
C552 H545 0.950 . S
C552 C549 1.387 . S
C553 C554 1.387 . S
C553 H557 0.950 . S
C553 C562 1.390 . S
C554 C553 1.387 . S
C554 C556 1.387 . S
H555 C562 0.950 . S
C556 C554 1.387 . S
C556 C558 1.390 . S
C556 H560 0.950 . S
H557 C553 0.950 . S
C558 C556 1.390 . S
C558 C559 1.387 . S
C558 H561 0.950 . S
C559 C558 1.387 . S
C559 C562 1.387 . S
H560 C556 0.950 . S
H561 C558 0.950 . S
C562 C553 1.390 . S
C562 H555 0.950 . S
C562 C559 1.387 . S
C563 C564 1.387 . S
C563 H567 0.950 . S
C563 C572 1.390 1_545 S
C564 C563 1.387 . S
C564 C566 1.387 . S
H565 C572 0.950 . S
C566 C564 1.387 . S
C566 C568 1.390 1_545 S
C566 H570 0.950 . S
H567 C563 0.950 . S
C568 C566 1.390 1_565 S
C568 C569 1.387 . S
C568 H571 0.950 . S
C569 C568 1.387 . S
C569 C572 1.387 . S
H570 C566 0.950 . S
H571 C568 0.950 . S
C572 C563 1.390 1_565 S
C572 H565 0.950 . S
C572 C569 1.387 . S
C573 C574 1.387 . S
C573 H577 0.950 . S
C573 C582 1.390 . S
C574 C573 1.387 . S
C574 C576 1.387 . S
H575 C582 0.950 . S
C576 C574 1.387 . S
C576 C578 1.390 . S
C576 H580 0.950 . S
H577 C573 0.950 . S
C578 C576 1.390 . S
C578 C579 1.387 . S
C578 H581 0.950 . S
C579 C578 1.387 . S
C579 C582 1.387 . S
H580 C576 0.950 . S
H581 C578 0.950 . S
C582 C573 1.390 . S
C582 H575 0.950 . S
C582 C579 1.387 . S
C583 C584 1.387 . S
C583 H587 0.950 . S
C583 C592 1.390 . S
C584 C583 1.387 . S
C584 C586 1.387 . S
H585 C592 0.950 . S
C586 C584 1.387 . S
C586 C588 1.390 . S
C586 H590 0.950 . S
H587 C583 0.950 . S
C588 C586 1.390 . S
C588 C589 1.387 . S
C588 H591 0.950 . S
C589 C588 1.387 . S
C589 C592 1.387 . S
H590 C586 0.950 . S
H591 C588 0.950 . S
C592 C583 1.390 . S
C592 H585 0.950 . S
C592 C589 1.387 . S
C593 C594 1.387 . S
C593 H597 0.950 . S
C593 C602 1.390 . S
C594 C593 1.387 . S
C594 C596 1.387 . S
H595 C602 0.950 . S
C596 C594 1.387 . S
C596 C598 1.390 . S
C596 H600 0.950 . S
H597 C593 0.950 . S
C598 C596 1.390 . S
C598 C599 1.387 . S
C598 H601 0.950 . S
C599 C598 1.387 . S
C599 C602 1.387 . S
H600 C596 0.950 . S
H601 C598 0.950 . S
C602 C593 1.390 . S
C602 H595 0.950 . S
C602 C599 1.387 . S
C603 C604 1.387 . S
C603 H607 0.950 . S
C603 C612 1.390 . S
C604 C603 1.387 . S
C604 C606 1.387 . S
H605 C612 0.950 . S
C606 C604 1.387 . S
C606 C608 1.390 . S
C606 H610 0.950 . S
H607 C603 0.950 . S
C608 C606 1.390 . S
C608 C609 1.387 . S
C608 H611 0.950 . S
C609 C608 1.387 . S
C609 C612 1.387 . S
H610 C606 0.950 . S
H611 C608 0.950 . S
C612 C603 1.390 . S
C612 H605 0.950 . S
C612 C609 1.387 . S
C613 C614 1.387 . S
C613 H617 0.950 . S
C613 C622 1.390 . S
C614 C613 1.387 . S
C614 C616 1.387 . S
H615 C622 0.950 . S
C616 C614 1.387 . S
C616 C618 1.390 . S
C616 H620 0.950 . S
H617 C613 0.950 . S
C618 C616 1.390 . S
C618 C619 1.387 . S
C618 H621 0.950 . S
C619 C618 1.387 . S
C619 C622 1.387 . S
H620 C616 0.950 . S
H621 C618 0.950 . S
C622 C613 1.390 . S
C622 H615 0.950 . S
C622 C619 1.387 . S
C623 C624 1.387 . S
C623 H627 0.950 . S
C623 C632 1.390 . S
C624 C623 1.387 . S
C624 C626 1.387 . S
H625 C632 0.950 . S
C626 C624 1.387 . S
C626 C628 1.390 . S
C626 H630 0.950 . S
H627 C623 0.950 . S
C628 C626 1.390 . S
C628 C629 1.387 . S
C628 H631 0.950 . S
C629 C628 1.387 . S
C629 C632 1.387 . S
H630 C626 0.950 . S
H631 C628 0.950 . S
C632 C623 1.390 . S
C632 H625 0.950 . S
C632 C629 1.387 . S
C633 C634 1.387 . S
C633 H637 0.950 . S
C633 C642 1.390 1_545 S
C634 C633 1.387 . S
C634 C636 1.387 . S
H635 C642 0.950 . S
C636 C634 1.387 . S
C636 C638 1.390 . S
C636 H640 0.950 . S
H637 C633 0.950 . S
C638 C636 1.390 . S
C638 C639 1.387 1_545 S
C638 H641 0.948 . S
C639 C638 1.387 1_565 S
C639 C642 1.387 . S
H640 C636 0.950 . S
H641 C638 0.948 . S
C642 C633 1.390 1_565 S
C642 H635 0.950 . S
C642 C639 1.387 . S
C643 C644 1.387 . S
C643 H647 0.950 . S
C643 C652 1.390 1_655 S
C644 C643 1.387 . S
C644 C646 1.387 . S
H645 C652 0.950 . S
C646 C644 1.387 . S
C646 C648 1.390 1_655 S
C646 H650 0.950 . S
H647 C643 0.950 . S
C648 C646 1.390 1_455 S
C648 C649 1.387 . S
C648 H651 0.950 . S
C649 C648 1.387 . S
C649 C652 1.387 . S
H650 C646 0.950 . S
H651 C648 0.950 . S
C652 C643 1.390 1_455 S
C652 H645 0.950 . S
C652 C649 1.387 . S
C653 C654 1.387 . S
C653 H657 0.950 . S
C653 C662 1.390 . S
C654 C653 1.387 . S
C654 C656 1.387 . S
H655 C662 0.950 . S
C656 C654 1.387 . S
C656 C658 1.390 . S
C656 H660 0.950 . S
H657 C653 0.950 . S
C658 C656 1.390 . S
C658 C659 1.387 . S
C658 H661 0.950 . S
C659 C658 1.387 . S
C659 C662 1.387 . S
H660 C656 0.950 . S
H661 C658 0.950 . S
C662 C653 1.390 . S
C662 H655 0.950 . S
C662 C659 1.387 . S
C663 C664 1.387 . S
C663 H667 0.950 . S
C663 C672 1.390 . S
C664 C663 1.387 . S
C664 C666 1.387 . S
H665 C672 0.950 . S
C666 C664 1.387 . S
C666 C668 1.390 . S
C666 H670 0.950 . S
H667 C663 0.950 . S
C668 C666 1.390 . S
C668 C669 1.387 . S
C668 H671 0.950 . S
C669 C668 1.387 . S
C669 C672 1.387 . S
H670 C666 0.950 . S
H671 C668 0.950 . S
C672 C663 1.390 . S
C672 H665 0.950 . S
C672 C669 1.387 . S
C673 C674 1.387 . S
C673 H677 0.950 . S
C673 C682 1.390 . S
C674 C673 1.387 . S
C674 C676 1.387 . S
H675 C682 0.950 . S
C676 C674 1.387 . S
C676 C678 1.390 . S
C676 H680 0.950 . S
H677 C673 0.950 . S
C678 C676 1.390 . S
C678 C679 1.387 . S
C678 H681 0.950 . S
C679 C678 1.387 . S
C679 C682 1.387 . S
H680 C676 0.950 . S
H681 C678 0.950 . S
C682 C673 1.390 . S
C682 H675 0.950 . S
C682 C679 1.387 . S
C683 C684 1.387 . S
C683 H687 0.950 . S
C683 C692 1.390 . S
C684 C683 1.387 . S
C684 C686 1.387 . S
H685 C692 0.950 . S
C686 C684 1.387 . S
C686 C688 1.390 . S
C686 H690 0.950 . S
H687 C683 0.950 . S
C688 C686 1.390 . S
C688 C689 1.387 . S
C688 H691 0.950 . S
C689 C688 1.387 . S
C689 C692 1.387 . S
H690 C686 0.950 . S
H691 C688 0.950 . S
C692 C683 1.390 . S
C692 H685 0.950 . S
C692 C689 1.387 . S
C693 C694 1.387 . S
C693 H697 0.950 . S
C693 C702 1.390 1_565 S
C694 C693 1.387 . S
C694 C696 1.387 . S
H695 C702 0.950 . S
C696 C694 1.387 . S
C696 C698 1.390 1_565 S
C696 H700 0.950 . S
H697 C693 0.950 . S
C698 C696 1.390 1_545 S
C698 C699 1.387 . S
C698 H701 0.950 . S
C699 C698 1.387 . S
C699 C702 1.387 . S
H700 C696 0.950 . S
H701 C698 0.950 . S
C702 C693 1.390 1_545 S
C702 H695 0.950 . S
C702 C699 1.387 . S
C703 C704 1.387 . S
C703 H707 0.950 . S
C703 C712 1.390 1_455 S
C704 C703 1.387 . S
C704 C706 1.387 . S
H705 C712 0.950 . S
C706 C704 1.387 . S
C706 C708 1.390 1_455 S
C706 H710 0.950 . S
H707 C703 0.950 . S
C708 C706 1.390 1_655 S
C708 C709 1.387 . S
C708 H711 0.950 . S
C709 C708 1.387 . S
C709 C712 1.387 . S
H710 C706 0.950 . S
H711 C708 0.950 . S
C712 C703 1.390 1_655 S
C712 H705 0.950 . S
C712 C709 1.387 . S
C713 C714 1.387 . S
C713 H717 0.950 . S
C713 C722 1.390 . S
C714 C713 1.387 . S
C714 C716 1.387 . S
H715 C722 0.950 . S
C716 C714 1.387 . S
C716 C718 1.390 . S
C716 H720 0.950 . S
H717 C713 0.950 . S
C718 C716 1.390 . S
C718 C719 1.387 . S
C718 H721 0.950 . S
C719 C718 1.387 . S
C719 C722 1.387 . S
H720 C716 0.950 . S
H721 C718 0.950 . S
C722 C713 1.390 . S
C722 H715 0.950 . S
C722 C719 1.387 . S
C723 C724 1.387 . S
C723 H727 0.950 . S
C723 C732 1.390 . S
C724 C723 1.387 . S
C724 C726 1.387 . S
H725 C732 0.950 1_655 S
C726 C724 1.387 . S
C726 C728 1.390 . S
C726 H730 0.950 . S
H727 C723 0.950 . S
C728 C726 1.390 . S
C728 C729 1.387 1_455 S
C728 H731 0.950 1_455 S
C729 C728 1.387 1_655 S
C729 C732 1.387 1_655 S
H730 C726 0.950 . S
H731 C728 0.950 1_655 S
C732 C723 1.390 . S
C732 H725 0.950 1_455 S
C732 C729 1.387 1_455 S
C733 C734 1.387 . S
C733 H737 0.950 . S
C733 C742 1.390 . S
C734 C733 1.387 . S
C734 C736 1.387 . S
H735 C742 0.950 . S
C736 C734 1.387 . S
C736 C738 1.390 . S
C736 H740 0.950 . S
H737 C733 0.950 . S
C738 C736 1.390 . S
C738 C739 1.387 . S
C738 H741 0.950 . S
C739 C738 1.387 . S
C739 C742 1.387 . S
H740 C736 0.950 . S
H741 C738 0.950 . S
C742 C733 1.390 . S
C742 H735 0.950 . S
C742 C739 1.387 . S
C743 C744 1.387 . S
C743 H747 0.950 . S
C743 C752 1.390 1_565 S
C744 C743 1.387 . S
C744 C746 1.387 . S
H745 C752 0.950 . S
C746 C744 1.387 . S
C746 C748 1.390 1_565 S
C746 H750 0.950 . S
H747 C743 0.950 . S
C748 C746 1.390 1_545 S
C748 C749 1.387 . S
C748 H751 0.950 . S
C749 C748 1.387 . S
C749 C752 1.387 . S
H750 C746 0.950 . S
H751 C748 0.950 . S
C752 C743 1.390 1_545 S
C752 H745 0.950 . S
C752 C749 1.387 . S
C753 C754 1.387 . S
C753 H757 0.950 . S
C753 C762 1.390 . S
C754 C753 1.387 . S
C754 C756 1.387 . S
H755 C762 0.950 . S
C756 C754 1.387 . S
C756 C758 1.390 . S
C756 H760 0.950 . S
H757 C753 0.950 . S
C758 C756 1.390 . S
C758 C759 1.387 . S
C758 H761 0.950 . S
C759 C758 1.387 . S
C759 C762 1.387 . S
H760 C756 0.950 . S
H761 C758 0.950 . S
C762 C753 1.390 . S
C762 H755 0.950 . S
C762 C759 1.387 . S
C763 C764 1.387 . S
C763 H767 0.950 . S
C763 C772 1.390 . S
C764 C763 1.387 . S
C764 C766 1.387 . S
H765 C772 0.950 . S
C766 C764 1.387 . S
C766 C768 1.390 . S
C766 H770 0.950 . S
H767 C763 0.950 . S
C768 C766 1.390 . S
C768 C769 1.387 . S
C768 H771 0.950 . S
C769 C768 1.387 . S
C769 C772 1.387 . S
H770 C766 0.950 . S
H771 C768 0.950 . S
C772 C763 1.390 . S
C772 H765 0.950 . S
C772 C769 1.387 . S
C773 C774 1.387 . S
C773 H777 0.950 . S
C773 C782 1.390 . S
C774 C773 1.387 . S
C774 C776 1.387 . S
H775 C782 0.950 . S
C776 C774 1.387 . S
C776 C778 1.390 . S
C776 H780 0.950 . S
H777 C773 0.950 . S
C778 C776 1.390 . S
C778 C779 1.387 . S
C778 H781 0.950 . S
C779 C778 1.387 . S
C779 C782 1.387 . S
H780 C776 0.950 . S
H781 C778 0.950 . S
C782 C773 1.390 . S
C782 H775 0.950 . S
C782 C779 1.387 . S
C783 C784 1.387 . S
C783 H787 0.950 . S
C783 C792 1.390 . S
C784 C783 1.387 . S
C784 C786 1.387 . S
H785 C792 0.950 . S
C786 C784 1.387 . S
C786 C788 1.390 . S
C786 H790 0.950 . S
H787 C783 0.950 . S
C788 C786 1.390 . S
C788 C789 1.387 . S
C788 H791 0.950 . S
C789 C788 1.387 . S
C789 C792 1.387 . S
H790 C786 0.950 . S
H791 C788 0.950 . S
C792 C783 1.390 . S
C792 H785 0.950 . S
C792 C789 1.387 . S
C793 C794 1.387 . S
C793 H797 0.950 . S
C793 C802 1.390 . S
C794 C793 1.387 . S
C794 C796 1.387 . S
H795 C802 0.950 . S
C796 C794 1.387 . S
C796 C798 1.390 . S
C796 H800 0.950 . S
H797 C793 0.950 . S
C798 C796 1.390 . S
C798 C799 1.387 . S
C798 H801 0.950 . S
C799 C798 1.387 . S
C799 C802 1.387 . S
H800 C796 0.950 . S
H801 C798 0.950 . S
C802 C793 1.390 . S
C802 H795 0.950 . S
C802 C799 1.387 . S
C803 C804 1.387 . S
C803 H807 0.950 . S
C803 C812 1.390 . S
C804 C803 1.387 . S
C804 C806 1.387 . S
H805 C812 0.950 . S
C806 C804 1.387 . S
C806 C808 1.390 . S
C806 H810 0.950 . S
H807 C803 0.950 . S
C808 C806 1.390 . S
C808 C809 1.387 . S
C808 H811 0.950 . S
C809 C808 1.387 . S
C809 C812 1.387 . S
H810 C806 0.950 . S
H811 C808 0.950 . S
C812 C803 1.390 . S
C812 H805 0.950 . S
C812 C809 1.387 . S
C813 C814 1.387 . S
C813 H817 0.950 . S
C813 C822 1.390 . S
C814 C813 1.387 . S
C814 C816 1.387 . S
H815 C822 0.950 . S
C816 C814 1.387 . S
C816 C818 1.390 . S
C816 H820 0.950 . S
H817 C813 0.950 . S
C818 C816 1.390 . S
C818 C819 1.387 . S
C818 H821 0.950 . S
C819 C818 1.387 . S
C819 C822 1.387 . S
H820 C816 0.950 . S
H821 C818 0.950 . S
C822 C813 1.390 . S
C822 H815 0.950 . S
C822 C819 1.387 . S
C823 C824 1.387 . S
C823 H827 0.950 . S
C823 C832 1.390 . S
C824 C823 1.387 . S
C824 C826 1.387 . S
H825 C832 0.950 . S
C826 C824 1.387 . S
C826 C828 1.390 . S
C826 H830 0.950 . S
H827 C823 0.950 . S
C828 C826 1.390 . S
C828 C829 1.387 . S
C828 H831 0.950 . S
C829 C828 1.387 . S
C829 C832 1.387 . S
H830 C826 0.950 . S
H831 C828 0.950 . S
C832 C823 1.390 . S
C832 H825 0.950 . S
C832 C829 1.387 . S
C833 C834 1.387 . S
C833 H837 0.950 . S
C833 C842 1.390 . S
C834 C833 1.387 . S
C834 C836 1.387 . S
H835 C842 0.950 . S
C836 C834 1.387 . S
C836 C838 1.390 . S
C836 H840 0.950 . S
H837 C833 0.950 . S
C838 C836 1.390 . S
C838 C839 1.387 . S
C838 H841 0.950 . S
C839 C838 1.387 . S
C839 C842 1.387 . S
H840 C836 0.950 . S
H841 C838 0.950 . S
C842 C833 1.390 . S
C842 H835 0.950 . S
C842 C839 1.387 . S
C843 C844 1.387 . S
C843 H847 0.950 . S
C843 C852 1.390 . S
C844 C843 1.387 . S
C844 C846 1.387 . S
H845 C852 0.950 . S
C846 C844 1.387 . S
C846 C848 1.390 . S
C846 H850 0.950 . S
H847 C843 0.950 . S
C848 C846 1.390 . S
C848 C849 1.387 . S
C848 H851 0.950 . S
C849 C848 1.387 . S
C849 C852 1.387 . S
H850 C846 0.950 . S
H851 C848 0.950 . S
C852 C843 1.390 . S
C852 H845 0.950 . S
C852 C849 1.387 . S
C853 C854 1.387 . S
C853 H857 0.950 . S
C853 C862 1.390 . S
C854 C853 1.387 . S
C854 C856 1.387 . S
H855 C862 0.950 . S
C856 C854 1.387 . S
C856 C858 1.390 . S
C856 H860 0.950 . S
H857 C853 0.950 . S
C858 C856 1.390 . S
C858 C859 1.387 . S
C858 H861 0.950 . S
C859 C858 1.387 . S
C859 C862 1.387 . S
H860 C856 0.950 . S
H861 C858 0.950 . S
C862 C853 1.390 . S
C862 H855 0.950 . S
C862 C859 1.387 . S
C863 C864 1.387 . S
C863 H867 0.950 . S
C863 C872 1.390 . S
C864 C863 1.387 . S
C864 C866 1.387 . S
H865 C872 0.950 . S
C866 C864 1.387 . S
C866 C868 1.390 . S
C866 H870 0.950 . S
H867 C863 0.950 . S
C868 C866 1.390 . S
C868 C869 1.387 . S
C868 H871 0.950 . S
C869 C868 1.387 . S
C869 C872 1.387 . S
H870 C866 0.950 . S
H871 C868 0.950 . S
C872 C863 1.390 . S
C872 H865 0.950 . S
C872 C869 1.387 . S
C873 C874 1.387 . S
C873 H877 0.950 . S
C873 C882 1.390 . S
C874 C873 1.387 . S
C874 C876 1.387 . S
H875 C882 0.950 . S
C876 C874 1.387 . S
C876 C878 1.390 . S
C876 H880 0.950 . S
H877 C873 0.950 . S
C878 C876 1.390 . S
C878 C879 1.387 . S
C878 H881 0.950 . S
C879 C878 1.387 . S
C879 C882 1.387 . S
H880 C876 0.950 . S
H881 C878 0.950 . S
C882 C873 1.390 . S
C882 H875 0.950 . S
C882 C879 1.387 . S
C883 C884 1.387 . S
C883 H887 0.950 . S
C883 C892 1.390 . S
C884 C883 1.387 . S
C884 C886 1.387 . S
H885 C892 0.950 . S
C886 C884 1.387 . S
C886 C888 1.390 . S
C886 H890 0.950 . S
H887 C883 0.950 . S
C888 C886 1.390 . S
C888 C889 1.387 . S
C888 H891 0.950 . S
C889 C888 1.387 . S
C889 C892 1.387 . S
H890 C886 0.950 . S
H891 C888 0.950 . S
C892 C883 1.390 . S
C892 H885 0.950 . S
C892 C889 1.387 . S
C893 C894 1.387 . S
C893 H897 0.950 . S
C893 C902 1.390 . S
C894 C893 1.387 . S
C894 C896 1.387 . S
H895 C902 0.950 . S
C896 C894 1.387 . S
C896 C898 1.390 . S
C896 H900 0.950 . S
H897 C893 0.950 . S
C898 C896 1.390 . S
C898 C899 1.387 . S
C898 H901 0.950 . S
C899 C898 1.387 . S
C899 C902 1.387 . S
H900 C896 0.950 . S
H901 C898 0.950 . S
C902 C893 1.390 . S
C902 H895 0.950 . S
C902 C899 1.387 . S
C903 C904 1.387 . S
C903 H907 0.950 . S
C903 C912 1.390 . S
C904 C903 1.387 . S
C904 C906 1.387 . S
H905 C912 0.950 . S
C906 C904 1.387 . S
C906 C908 1.390 . S
C906 H910 0.950 . S
H907 C903 0.950 . S
C908 C906 1.390 . S
C908 C909 1.387 . S
C908 H911 0.950 . S
C909 C908 1.387 . S
C909 C912 1.387 . S
H910 C906 0.950 . S
H911 C908 0.950 . S
C912 C903 1.390 . S
C912 H905 0.950 . S
C912 C909 1.387 . S
C913 C914 1.387 . S
C913 H917 0.950 . S
C913 C922 1.390 . S
C914 C913 1.387 . S
C914 C916 1.387 . S
H915 C922 0.950 . S
C916 C914 1.387 . S
C916 C918 1.390 . S
C916 H920 0.950 . S
H917 C913 0.950 . S
C918 C916 1.390 . S
C918 C919 1.387 . S
C918 H921 0.950 . S
C919 C918 1.387 . S
C919 C922 1.387 . S
H920 C916 0.950 . S
H921 C918 0.950 . S
C922 C913 1.390 . S
C922 H915 0.950 . S
C922 C919 1.387 . S
C923 C924 1.387 . S
C923 H927 0.950 . S
C923 C932 1.390 . S
C924 C923 1.387 . S
C924 C926 1.387 . S
H925 C932 0.950 . S
C926 C924 1.387 . S
C926 C928 1.390 . S
C926 H930 0.950 . S
H927 C923 0.950 . S
C928 C926 1.390 . S
C928 C929 1.387 . S
C928 H931 0.950 . S
C929 C928 1.387 . S
C929 C932 1.387 . S
H930 C926 0.950 . S
H931 C928 0.950 . S
C932 C923 1.390 . S
C932 H925 0.950 . S
C932 C929 1.387 . S
C933 C934 1.387 . S
C933 H937 0.950 . S
C933 C942 1.390 . S
C934 C933 1.387 . S
C934 C936 1.387 . S
H935 C942 0.950 . S
C936 C934 1.387 . S
C936 C938 1.390 . S
C936 H940 0.950 . S
H937 C933 0.950 . S
C938 C936 1.390 . S
C938 C939 1.387 . S
C938 H941 0.950 . S
C939 C938 1.387 . S
C939 C942 1.387 . S
H940 C936 0.950 . S
H941 C938 0.950 . S
C942 C933 1.390 . S
C942 H935 0.950 . S
C942 C939 1.387 . S
C943 C944 1.387 . S
C943 H947 0.950 . S
C943 C952 1.390 . S
C944 C943 1.387 . S
C944 C946 1.387 . S
H945 C952 0.950 . S
C946 C944 1.387 . S
C946 C948 1.390 . S
C946 H950 0.950 . S
H947 C943 0.950 . S
C948 C946 1.390 . S
C948 C949 1.387 . S
C948 H951 0.950 . S
C949 C948 1.387 . S
C949 C952 1.387 . S
H950 C946 0.950 . S
H951 C948 0.950 . S
C952 C943 1.390 . S
C952 H945 0.950 . S
C952 C949 1.387 . S
C953 C954 1.387 . S
C953 H957 0.950 . S
C953 C962 1.390 . S
C954 C953 1.387 . S
C954 C956 1.387 . S
H955 C962 0.950 . S
C956 C954 1.387 . S
C956 C958 1.390 . S
C956 H960 0.950 . S
H957 C953 0.950 . S
C958 C956 1.390 . S
C958 C959 1.387 . S
C958 H961 0.950 . S
C959 C958 1.387 . S
C959 C962 1.387 . S
H960 C956 0.950 . S
H961 C958 0.950 . S
C962 C953 1.390 . S
C962 H955 0.950 . S
C962 C959 1.387 . S
C424 N170 1.746 . S
C429 C251 1.649 . S
C434 N184 1.196 . S
C439 C272 1.149 . S
C444 N158 1.507 . S
C449 C294 1.293 . S
C454 N145 1.504 . S
C459 C273 1.285 . S
C469 C293 1.158 . S
C464 N119 1.198 . S
C474 N131 1.700 1_554 S
C479 C252 1.434 . S
C489 C247 1.423 . S
C484 N144 1.497 . S
C499 C268 1.299 . S
C494 N118 1.343 . S
C504 N132 1.506 . S
C509 C291 1.340 . S
C514 N171 1.495 . S
C519 C270 1.336 . S
C524 N183 1.334 . S
C529 C289 1.285 . S
C539 C249 1.295 . S
C534 N157 1.526 . S
C549 C314 1.645 . S
C544 N14 1.744 . S
C554 N28 1.197 . S
C559 C335 1.149 . S
C564 N2 1.508 . S
C569 C357 1.298 . S
C574 N223 1.504 . S
C579 C336 1.280 . S
C584 N197 1.198 . S
C589 C356 1.153 . S
C594 N209 1.700 . S
C599 C315 1.434 . S
C604 N222 1.495 . S
C609 C310 1.420 . S
C614 N196 1.343 . S
C619 C331 1.299 . S
C629 C354 1.341 . S
C624 N210 1.506 . S
C634 N15 1.496 . S
C639 C333 1.338 . S
C649 C352 1.286 . S
C644 N27 1.334 . S
C654 N1 1.526 . S
C659 C312 1.295 . S
C669 C377 1.649 . S
C664 N92 1.746 . S
C674 N106 1.196 . S
C679 C398 1.149 . S
C689 C420 1.298 . S
C684 N80 1.508 . S
C699 C399 1.280 . S
C694 N67 1.504 . S
C709 C419 1.157 . S
C704 N41 1.199 . S
C714 N53 1.700 . S
C719 C378 1.434 . S
C724 N66 1.495 . S
C729 C373 1.420 . S
C734 N40 1.344 . S
C739 C394 1.302 . S
C749 C417 1.340 . S
C744 N54 1.506 . S
C754 N93 1.496 . S
C759 C396 1.338 . S
C764 N105 1.335 . S
C769 C415 1.289 . S
C774 N79 1.525 . S
C779 C375 1.289 . S
C784 N200 1.305 . S
C789 C250 1.273 . S
C799 C271 1.642 . S
C794 N213 1.665 . S
C804 N226 1.498 . S
C809 C290 1.497 . S
C814 N83 1.539 . S
C819 C269 1.536 . S
C824 N96 1.692 . S
C829 C292 1.665 . S
C839 C248 1.367 . S
C834 N109 1.375 . S
C844 N44 1.305 . S
C849 C313 1.274 . S
C854 N57 1.665 . S
C859 C334 1.642 . S
C864 N70 1.499 . S
C869 C353 1.498 . S
C874 N161 1.537 . S
C879 C332 1.535 . S
C889 C355 1.665 . S
C884 N174 1.692 . S
C894 N187 1.375 . S
C899 C311 1.365 . S
C904 N122 1.305 . S
C909 C376 1.275 . S
C914 N135 1.665 . S
C919 C397 1.644 . S
C929 C416 1.496 . S
C924 N148 1.498 . S
C934 N5 1.539 . S
C939 C395 1.536 . S
C944 N18 1.692 . S
C949 C418 1.666 . S
C954 N31 1.375 . S
C959 C374 1.367 . S
