# Generated by pormake.
# Topology zzz, (3,6)-cn, num edge types: 1
# Building blocks:
#     Node 0, Type 0, BuildingBlock: PAMTOO_clean_linker_0, # of connection points: 3
#     Node 1, Type 0, BuildingBlock: PAMTOO_clean_linker_0, # of connection points: 3
#     Node 2, Type 0, BuildingBlock: PAMTOO_clean_linker_0, # of connection points: 3
#     Node 3, Type 0, BuildingBlock: PAMTOO_clean_linker_0, # of connection points: 3
#     Node 4, Type 0, BuildingBlock: PAMTOO_clean_linker_0, # of connection points: 3
#     Node 5, Type 0, BuildingBlock: PAMTOO_clean_linker_0, # of connection points: 3
#     Node 6, Type 0, BuildingBlock: PAMTOO_clean_linker_0, # of connection points: 3
#     Node 7, Type 0, BuildingBlock: PAMTOO_clean_linker_0, # of connection points: 3
#     Node 8, Type 1, BuildingBlock: BETDIP_clean_sbu_0, # of connection points: 6
#     Node 9, Type 1, BuildingBlock: BETDIP_clean_sbu_0, # of connection points: 6
#     Node 10, Type 1, BuildingBlock: BETDIP_clean_sbu_0, # of connection points: 6
#     Node 11, Type 1, BuildingBlock: BETDIP_clean_sbu_0, # of connection points: 6
#     Edge 12, Type (0, 1), BuildingBlock: EZIPEK_clean_linker_0, # of connection points: 2
#     Edge 13, Type (0, 1), BuildingBlock: EZIPEK_clean_linker_0, # of connection points: 2
#     Edge 14, Type (0, 1), BuildingBlock: EZIPEK_clean_linker_0, # of connection points: 2
#     Edge 15, Type (0, 1), BuildingBlock: EZIPEK_clean_linker_0, # of connection points: 2
#     Edge 16, Type (0, 1), BuildingBlock: EZIPEK_clean_linker_0, # of connection points: 2
#     Edge 17, Type (0, 1), BuildingBlock: EZIPEK_clean_linker_0, # of connection points: 2
#     Edge 18, Type (0, 1), BuildingBlock: EZIPEK_clean_linker_0, # of connection points: 2
#     Edge 19, Type (0, 1), BuildingBlock: EZIPEK_clean_linker_0, # of connection points: 2
#     Edge 20, Type (0, 1), BuildingBlock: EZIPEK_clean_linker_0, # of connection points: 2
#     Edge 21, Type (0, 1), BuildingBlock: EZIPEK_clean_linker_0, # of connection points: 2
#     Edge 22, Type (0, 1), BuildingBlock: EZIPEK_clean_linker_0, # of connection points: 2
#     Edge 23, Type (0, 1), BuildingBlock: EZIPEK_clean_linker_0, # of connection points: 2
#     Edge 24, Type (0, 1), BuildingBlock: EZIPEK_clean_linker_0, # of connection points: 2
#     Edge 25, Type (0, 1), BuildingBlock: EZIPEK_clean_linker_0, # of connection points: 2
#     Edge 26, Type (0, 1), BuildingBlock: EZIPEK_clean_linker_0, # of connection points: 2
#     Edge 27, Type (0, 1), BuildingBlock: EZIPEK_clean_linker_0, # of connection points: 2
#     Edge 28, Type (0, 1), BuildingBlock: EZIPEK_clean_linker_0, # of connection points: 2
#     Edge 29, Type (0, 1), BuildingBlock: EZIPEK_clean_linker_0, # of connection points: 2
#     Edge 30, Type (0, 1), BuildingBlock: EZIPEK_clean_linker_0, # of connection points: 2
#     Edge 31, Type (0, 1), BuildingBlock: EZIPEK_clean_linker_0, # of connection points: 2
#     Edge 32, Type (0, 1), BuildingBlock: EZIPEK_clean_linker_0, # of connection points: 2
#     Edge 33, Type (0, 1), BuildingBlock: EZIPEK_clean_linker_0, # of connection points: 2
#     Edge 34, Type (0, 1), BuildingBlock: EZIPEK_clean_linker_0, # of connection points: 2
#     Edge 35, Type (0, 1), BuildingBlock: EZIPEK_clean_linker_0, # of connection points: 2
# Relax obj value: 0.358
# Max RMSD: 0.191
# Mean RMSD: 0.147
data_MOF--net-zzz--node1-BETDIP_clean_sbu_0--node2-PAMTOO_clean_linker_0--edge1-EZIPEK_clean_linker_0
_symmetry_space_group_name_H-M    P1
_symmetry_Int_Tables_number       1
_symmetry_cell_setting            triclinic
loop_
_symmetry_equiv_pos_as_xyz
'x, y, z'
_cell_length_a     38.025224
_cell_length_b     38.138557
_cell_length_c     10.318371
_cell_angle_alpha  89.299444
_cell_angle_beta   89.849158
_cell_angle_gamma 89.957567
loop_
_atom_site_label
_atom_site_type_symbol
_atom_site_fract_x
_atom_site_fract_y
_atom_site_fract_z
_atom_type_partial_charge
H0 H 0.84656 0.46244 0.39508 0.0
H1 H 0.74824 0.47085 0.19659 0.0
H2 H 0.77817 0.55026 0.46981 0.0
H3 H 0.68551 0.54493 0.37853 0.0
C4 C 0.69504 0.52475 0.31016 0.0
O5 O 0.73055 0.53165 0.28271 0.0
H6 H 0.69225 0.50026 0.36841 0.0
C7 C 0.82207 0.4765 0.37939 0.0
C8 C 0.81571 0.50719 0.44843 0.0
C9 C 0.79757 0.46299 0.29241 0.0
C10 C 0.76624 0.48089 0.26803 0.0
C11 C 0.75888 0.51269 0.32807 0.0
C12 C 0.78351 0.52576 0.42169 0.0
H13 H 0.99233 0.84901 0.33395 0.0
H14 H 0.98098 0.74337 0.20178 0.0
H15 H 0.0302 0.76437 0.57053 0.0
H16 H 0.0499 0.67663 0.41302 0.0
C17 C 0.0366 0.69178 0.33486 0.0
O18 O 1.01126 0.71327 0.39406 0.0
H19 H 0.05835 0.70806 0.29494 0.0
C20 C 0.99626 0.82131 0.34848 0.0
C21 C 1.01186 0.81105 0.46444 0.0
C22 C 0.98388 0.79738 0.25643 0.0
C23 C 0.9905 0.76176 0.27283 0.0
C24 C 1.00849 0.74922 0.3817 0.0
C25 C 1.01855 0.77394 0.48131 0.0
H26 H 0.71004 0.0815 0.40715 0.0
H27 H 0.80895 0.06472 0.21862 0.0
H28 H 0.76831 0.98659 0.48443 0.0
H29 H 0.86374 0.98095 0.37552 0.0
C30 C 0.85504 1.00506 0.32337 0.0
O31 O 0.81879 1.00204 0.3004 0.0
H32 H 0.86014 0.02566 0.39566 0.0
C33 C 0.73357 0.06572 0.39635 0.0
C34 C 0.73571 0.03369 0.46411 0.0
C35 C 0.75989 0.07716 0.30966 0.0
C36 C 0.78943 0.05642 0.28879 0.0
C37 C 0.79286 0.0236 0.34796 0.0
C38 C 0.76611 1.01217 0.43866 0.0
H39 H 0.54443 0.69403 0.36692 0.0
H40 H 0.55944 0.79881 0.22124 0.0
H41 H 0.5134 0.78081 0.60024 0.0
H42 H 0.4868 0.85911 0.41839 0.0
C43 C 0.50584 0.85015 0.34412 0.0
O44 O 0.53068 0.83029 0.41301 0.0
H45 H 0.4912 0.83275 0.27722 0.0
C46 C 0.54212 0.72197 0.3794 0.0
C47 C 0.52877 0.73341 0.49696 0.0
C48 C 0.55462 0.74511 0.28283 0.0
C49 C 0.5502 0.78103 0.29663 0.0
C50 C 0.5338 0.79444 0.40681 0.0
C51 C 0.52381 0.77059 0.51061 0.0
H52 H 0.20137 0.57385 0.24536 0.0
H53 H 0.30811 0.56752 0.37503 0.0
H54 H 0.26822 0.49102 0.10741 0.0
H55 H 0.33636 0.46265 0.31149 0.0
C56 C 0.33551 0.48915 0.35465 0.0
O57 O 0.32462 0.51142 0.25403 0.0
H58 H 0.31498 0.48858 0.43189 0.0
C59 C 0.22658 0.5607 0.24259 0.0
C60 C 0.23054 0.53148 0.16319 0.0
C61 C 0.25426 0.57392 0.31697 0.0
C62 C 0.2868 0.55725 0.31724 0.0
C63 C 0.292 0.52669 0.2467 0.0
C64 C 0.26393 0.51384 0.16672 0.0
H65 H 0.95525 0.21989 0.06053 0.0
H66 H 0.96895 0.28103 0.40151 0.0
H67 H 0.05443 0.26818 0.13763 0.0
H68 H 0.05841 0.31562 0.44976 0.0
C69 C 0.03134 0.32511 0.4297 0.0
O70 O 0.02231 0.31608 0.30201 0.0
H71 H 1.01482 0.3101 0.49984 0.0
C72 C 0.97205 0.23453 0.12432 0.0
C73 C 1.00841 0.23505 0.10174 0.0
C74 C 0.95848 0.24547 0.24315 0.0
C75 C 0.978 0.27098 0.31038 0.0
C76 C 1.0103 0.28355 0.26206 0.0
C77 C 0.02746 0.26271 0.16476 0.0
H78 H 0.34399 0.98021 0.27239 0.0
H79 H 0.23572 0.98627 0.38349 0.0
H80 H 0.27387 0.04842 0.06062 0.0
H81 H 0.18176 0.07066 0.20312 0.0
C82 C 0.19832 0.05695 0.27629 0.0
O83 O 0.21681 0.03076 0.21092 0.0
H84 H 0.21701 0.07757 0.30579 0.0
C85 C 0.3185 0.99222 0.25919 0.0
C86 C 0.3138 1.01588 0.15586 0.0
C87 C 0.29056 0.98106 0.33834 0.0
C88 C 0.25735 0.99565 0.32381 0.0
C89 C 0.25111 0.02104 0.22871 0.0
C90 C 0.27923 0.03078 0.14114 0.0
H91 H 0.58128 0.34069 0.1976 0.0
H92 H 0.57928 0.23701 0.35426 0.0
H93 H 0.50083 0.26878 0.07361 0.0
H94 H 0.48013 0.20843 0.34847 0.0
C95 C 0.50871 0.20277 0.35119 0.0
O96 O 0.52379 0.21489 0.23415 0.0
H97 H 0.51834 0.21892 0.43294 0.0
C98 C 0.56934 0.31488 0.19925 0.0
C99 C 0.54015 0.30862 0.12038 0.0
C100 C 0.58335 0.28902 0.28167 0.0
C101 C 0.56825 0.25597 0.28775 0.0
C102 C 0.53785 0.24808 0.2179 0.0
C103 C 0.52367 0.27464 0.13176 0.0
Tb104 Tb 0.04643 1.01446 0.88076 0.0
Tb105 Tb 1.0023 0.0318 0.68772 0.0
C106 C 0.07047 0.98617 0.08096 0.0
C107 C 0.04787 0.96406 0.16218 0.0
C108 C 1.01172 0.97162 0.1582 0.0
C109 C 0.98762 0.94448 0.15074 0.0
C110 C 0.9988 0.9098 0.15962 0.0
C111 C 0.03413 0.90283 0.19314 0.0
C112 C 0.05881 0.92989 0.1918 0.0
C113 C 0.0848 0.03439 0.67238 0.0
C114 C 1.01974 0.95264 0.69851 0.0
C115 C 0.96828 0.06199 0.51177 0.0
C116 C 0.94547 0.09331 0.51953 0.0
C117 C 0.96029 0.12687 0.52705 0.0
C118 C 0.93889 0.15646 0.52765 0.0
C119 C 0.90212 0.15337 0.51468 0.0
C120 C 0.88711 0.11975 0.51915 0.0
C121 C 0.90865 0.08995 0.52247 0.0
C122 C 0.9642 1.01241 0.89943 0.0
C123 C 0.0283 0.09425 0.87309 0.0
O124 O 0.06184 1.01917 0.07562 0.0
O125 O 0.07575 0.97357 0.96568 0.0
O126 O 0.05689 1.016 0.6718 0.0
O127 O 0.09157 0.041 0.79216 0.0
O128 O 0.02676 0.9615 0.81997 0.0
O129 O 1.01337 0.97852 0.61548 0.0
O130 O 1.00192 0.06691 0.52995 0.0
O131 O 0.95692 0.03404 0.57238 0.0
O132 O 0.99212 0.03082 0.89596 0.0
O133 O 0.95789 1.00447 0.78076 0.0
O134 O 1.01545 0.08554 0.75861 0.0
O135 O 0.03992 0.06864 0.94819 0.0
H136 H 1.00244 0.998 0.13884 0.0
H137 H 0.96099 0.95049 0.12609 0.0
H138 H 0.04341 0.87609 0.20392 0.0
H139 H 0.08654 0.92346 0.19584 0.0
H140 H 0.98853 0.13055 0.52852 0.0
H141 H 0.95156 0.18188 0.52366 0.0
H142 H 0.85897 0.11648 0.50887 0.0
H143 H 0.89652 0.06431 0.52066 0.0
Tb144 Tb 0.53295 0.04722 0.91664 0.0
Tb145 Tb 0.52006 0.99354 0.73473 0.0
C146 C 0.55068 0.07587 0.12303 0.0
C147 C 0.57853 0.10048 0.15524 0.0
C148 C 0.59854 0.09337 0.26593 0.0
C149 C 0.63202 0.10753 0.27699 0.0
C150 C 0.64571 0.12862 0.17672 0.0
C151 C 0.62398 0.13965 0.07459 0.0
C152 C 0.5904 0.12531 0.06322 0.0
C153 C 0.5253 0.08261 0.69243 0.0
C154 C 0.59748 0.02124 0.73679 0.0
C155 C 0.49878 0.95166 0.56663 0.0
C156 C 0.46357 0.93766 0.54141 0.0
C157 C 0.44103 0.95673 0.46026 0.0
C158 C 0.40605 0.94752 0.45107 0.0
C159 C 0.39251 0.9197 0.52553 0.0
C160 C 0.41503 0.89919 0.6021 0.0
C161 C 0.45068 0.90795 0.60901 0.0
C162 C 0.5375 0.96846 0.972 0.0
C163 C 0.45325 0.02376 0.8931 0.0
O164 O 0.56237 0.04513 0.08673 0.0
O165 O 0.52533 0.08779 0.04896 0.0
O166 O 0.52333 0.04937 0.70785 0.0
O167 O 0.53218 0.0961 0.80335 0.0
O168 O 0.58796 0.03457 0.85061 0.0
O169 O 0.57298 1.00681 0.66468 0.0
O170 O 0.50272 0.98531 0.54567 0.0
O171 O 0.51321 0.94166 0.67521 0.0
O172 O 0.51684 0.99342 0.94227 0.0
O173 O 0.55128 0.95886 0.86305 0.0
O174 O 0.46435 1.00427 0.79457 0.0
O175 O 0.47631 0.04247 0.95829 0.0
H176 H 0.58975 0.07417 0.33723 0.0
H177 H 0.64859 0.09879 0.35634 0.0
H178 H 0.63453 0.1555 0.99581 0.0
H179 H 0.57543 0.13082 0.97619 0.0
H180 H 0.44987 0.98016 0.40968 0.0
H181 H 0.38896 0.96398 0.39342 0.0
H182 H 0.40475 0.87791 0.66139 0.0
H183 H 0.46759 0.89279 0.67273 0.0
Tb184 Tb 0.49951 0.52599 0.90203 0.0
Tb185 Tb 0.54247 0.51565 0.69274 0.0
C186 C 0.47647 0.54714 0.11427 0.0
C187 C 0.49811 0.5697 0.1952 0.0
C188 C 0.53476 0.56556 0.1843 0.0
C189 C 0.55631 0.59485 0.18133 0.0
C190 C 0.54205 0.62808 0.19917 0.0
C191 C 0.50668 0.63107 0.23917 0.0
C192 C 0.48451 0.60197 0.2346 0.0
C193 C 0.46087 0.50951 0.69394 0.0
C194 C 0.52233 0.59288 0.73313 0.0
C195 C 0.57236 0.49768 0.48739 0.0
C196 C 0.59704 0.46961 0.4591 0.0
C197 C 0.59062 0.44931 0.35025 0.0
C198 C 0.60602 0.41648 0.34023 0.0
C199 C 0.62767 0.40366 0.43971 0.0
C200 C 0.63742 0.42549 0.54162 0.0
C201 C 0.62186 0.45849 0.5519 0.0
C202 C 0.5821 0.53032 0.90377 0.0
C203 C 0.52152 0.44749 0.8669 0.0
O204 O 0.48867 0.51557 0.09881 0.0
O205 O 0.4678 0.56159 1.00354 0.0
O206 O 0.48745 0.52961 0.69572 0.0
O207 O 0.45504 0.49925 0.81165 0.0
O208 O 0.51743 0.58084 0.85329 0.0
O209 O 0.52734 0.56962 0.64199 0.0
O210 O 0.54103 0.48685 0.5218 0.0
O211 O 0.58399 0.52258 0.56126 0.0
O212 O 0.55448 0.51157 0.89902 0.0
O213 O 0.58776 0.54075 0.78629 0.0
O214 O 0.53467 0.4594 0.7549 0.0
O215 O 0.50775 0.47027 0.94747 0.0
H216 H 0.54621 0.5407 0.15713 0.0
H217 H 0.58333 0.59186 0.15362 0.0
H218 H 0.49523 0.6566 0.25689 0.0
H219 H 0.45641 0.60579 0.24386 0.0
H220 H 0.57109 0.45737 0.27959 0.0
H221 H 0.59795 0.3996 0.26207 0.0
H222 H 0.65357 0.41551 0.62016 0.0
H223 H 0.62665 0.47368 0.63812 0.0
Tb224 Tb 1.01179 0.49539 0.92621 0.0
Tb225 Tb 0.02634 0.541 0.73688 0.0
C226 C 0.98737 0.45994 0.11357 0.0
C227 C 0.95887 0.43438 0.12815 0.0
C228 C 0.93942 0.4338 0.24296 0.0
C229 C 0.90833 0.41463 0.25075 0.0
C230 C 0.896 0.3955 0.1434 0.0
C231 C 0.91762 0.39356 0.0328 0.0
C232 C 0.94866 0.41311 0.02477 0.0
C233 C 0.02873 0.45968 0.70937 0.0
C234 C 0.94818 0.52018 0.74074 0.0
C235 C 0.0473 0.57546 0.54141 0.0
C236 C 0.07662 0.59823 0.50369 0.0
C237 C 0.09671 0.58877 0.39602 0.0
C238 C 0.12985 0.60325 0.37794 0.0
C239 C 0.1432 0.62693 0.46835 0.0
C240 C 0.12104 0.64059 0.56378 0.0
C241 C 0.08756 0.62628 0.58091 0.0
C242 C 1.00946 0.57597 0.95818 0.0
C243 C 0.09059 0.51714 0.91751 0.0
O244 O 0.97743 0.49186 0.08527 0.0
O245 O 1.01418 0.45027 0.04394 0.0
O246 O 1.00933 0.48683 0.71713 0.0
O247 O 0.03965 0.4531 0.82507 0.0
O248 O 0.95702 0.50974 0.85973 0.0
O249 O 0.97398 0.52924 0.66291 0.0
O250 O 0.05572 0.54278 0.56508 0.0
O251 O 0.02511 0.58745 0.62647 0.0
O252 O 0.0291 0.54914 0.94709 0.0
O253 O 0.99806 0.58254 0.84254 0.0
O254 O 0.08144 0.52872 0.80038 0.0
O255 O 0.06518 0.50679 0.9963 0.0
H256 H 0.94711 0.44989 0.32402 0.0
H257 H 0.89275 0.41719 0.33804 0.0
H258 H 0.90986 0.37855 0.94966 0.0
H259 H 0.96366 0.413 0.9354 0.0
H260 H 0.08813 0.56799 0.33268 0.0
H261 H 0.14636 0.59308 0.30162 0.0
H262 H 0.13089 0.6593 0.63294 0.0
H263 H 0.07139 0.63556 0.6591 0.0
C264 C 0.17016 0.06481 0.50245 0.0
C265 C 0.17252 0.04465 0.38736 0.0
C266 C 0.11917 1.01253 0.46664 0.0
C267 C 0.11338 0.03768 0.5668 0.0
N268 N 0.13079 0.09407 0.65002 0.0
N269 N 0.14488 1.00067 0.25533 0.0
C270 C 0.13814 0.0656 0.5755 0.0
C271 C 0.14573 1.01887 0.36826 0.0
N272 N 0.1989 0.08239 0.54662 0.0
N273 N 0.10046 0.98201 0.46611 0.0
H274 H 0.16211 1.0051 0.17854 0.0
H275 H 0.12551 0.98249 0.23396 0.0
H276 H 0.08124 0.97578 0.53387 0.0
H277 H 0.10661 0.96106 0.40638 0.0
H278 H 0.19889 0.09555 0.63465 0.0
H279 H 0.22391 0.07926 0.50689 0.0
H280 H 0.1468 0.11626 0.65086 0.0
H281 H 0.10675 0.09751 0.69711 0.0
C282 C 0.48778 0.13945 0.41033 0.0
C283 C 0.51609 0.16351 0.39091 0.0
C284 C 0.55313 0.12517 0.5302 0.0
C285 C 0.52336 0.1048 0.56814 0.0
N286 N 0.46257 0.09062 0.53546 0.0
N287 N 0.57864 0.16915 0.38509 0.0
C288 C 0.49089 0.11094 0.50323 0.0
C289 C 0.54973 0.15337 0.43751 0.0
N290 N 0.45845 0.14319 0.33544 0.0
N291 N 0.58499 0.11689 0.58236 0.0
H292 H 0.57694 0.1827 0.29721 0.0
H293 H 0.60434 0.16504 0.41572 0.0
H294 H 0.58858 0.09355 0.63363 0.0
H295 H 0.60741 0.13237 0.57444 0.0
H296 H 0.43746 0.12573 0.3365 0.0
H297 H 0.45702 0.16187 0.26087 0.0
H298 H 0.43706 0.09561 0.50401 0.0
H299 H 0.46455 0.0691 0.59843 0.0
C300 C 0.39227 0.52742 0.41688 0.0
C301 C 0.37189 0.49567 0.42365 0.0
C302 C 0.41743 0.47191 0.57427 0.0
C303 C 0.43342 0.50523 0.58721 0.0
N304 N 0.43234 0.56666 0.52777 0.0
N305 N 0.36415 0.43965 0.5362 0.0
C306 C 0.4199 0.53352 0.5101 0.0
C307 C 0.38438 0.46856 0.50986 0.0
N308 N 0.38715 0.55127 0.31908 0.0
N309 N 0.43424 0.44279 0.62167 0.0
H310 H 0.3396 0.43495 0.49558 0.0
H311 H 0.37034 0.42164 0.60946 0.0
H312 H 0.45895 0.44385 0.66523 0.0
H313 H 0.42567 0.41735 0.60365 0.0
H314 H 0.40314 0.57314 0.30515 0.0
H315 H 0.37086 0.54721 0.24044 0.0
H316 H 0.42043 0.58888 0.48773 0.0
H317 H 0.45278 0.57238 0.5906 0.0
C318 C 0.05831 0.38698 0.47009 0.0
C319 C 0.02795 0.36519 0.46447 0.0
C320 C 0.99512 0.41088 0.58716 0.0
C321 C 0.02672 0.43038 0.60805 0.0
N322 N 0.08867 0.43663 0.56647 0.0
N323 N 0.96498 0.36328 0.4763 0.0
C324 C 0.05822 0.41844 0.54688 0.0
C325 C 0.99557 0.37942 0.51024 0.0
N326 N 0.08691 0.37824 0.39696 0.0
N327 N 0.96493 0.42104 0.64805 0.0
H328 H 0.96468 0.34161 0.41592 0.0
H329 H 0.94005 0.37332 0.49492 0.0
H330 H 0.96327 0.44379 0.7021 0.0
H331 H 0.94209 0.40606 0.65205 0.0
H332 H 0.1091 0.39396 0.38619 0.0
H333 H 0.08679 0.35684 0.3349 0.0
H334 H 0.11346 0.42749 0.54053 0.0
H335 H 0.08933 0.46052 0.61471 0.0
C336 C 0.89873 0.04035 0.17654 0.0
C337 C 0.87854 1.00936 0.19821 0.0
C338 C 0.91103 0.98272 0.01328 0.0
C339 C 0.93486 1.01193 1.00436 0.0
N340 N 0.95125 0.06833 0.09271 0.0
N341 N 0.86669 0.95002 0.13585 0.0
C342 C 0.92874 0.04049 0.09071 0.0
C343 C 0.88472 0.98056 0.11444 0.0
N344 N 0.88809 0.07084 0.23224 0.0
N345 N 0.9147 0.95554 0.92931 0.0
H346 H 0.84606 0.94778 0.20208 0.0
H347 H 0.87318 0.92628 0.09319 0.0
H348 H 0.93733 0.95149 0.87472 0.0
H349 H 0.89527 0.93683 0.91394 0.0
H350 H 0.89956 0.09494 0.21143 0.0
H351 H 0.86531 0.073 0.28753 0.0
H352 H 0.9523 0.08574 0.16967 0.0
H353 H 0.96992 0.07361 0.022 0.0
C354 C 0.49085 0.90681 0.21666 0.0
C355 C 0.5179 0.88337 0.26201 0.0
C356 C 0.55947 0.91776 0.1214 0.0
C357 C 0.53266 0.9424 0.08638 0.0
N358 N 0.47703 0.96654 0.15355 0.0
N359 N 0.58137 0.87537 0.27856 0.0
C360 C 0.49973 0.93889 0.15059 0.0
C361 C 0.55322 0.8912 0.22039 0.0
N362 N 0.45613 0.89849 0.2337 0.0
N363 N 0.59156 0.91992 0.06212 0.0
H364 H 0.57968 0.85839 0.35724 0.0
H365 H 0.60728 0.88284 0.26039 0.0
H366 H 0.59903 0.94107 1.00339 0.0
H367 H 0.61026 0.89996 0.06759 0.0
H368 H 0.43588 0.9128 0.1904 0.0
H369 H 0.44714 0.87573 0.27954 0.0
H370 H 0.45221 0.96534 0.19589 0.0
H371 H 0.48491 0.99201 0.13141 0.0
C372 C 0.65994 0.55752 0.12878 0.0
C373 C 0.67037 0.5252 0.18814 0.0
C374 C 0.62338 0.49544 0.06218 0.0
C375 C 0.61226 0.52796 1.00407 0.0
N376 N 0.62665 0.58882 0.96339 0.0
N377 N 0.66904 0.46216 0.17445 0.0
C378 C 0.63302 0.55838 0.03058 0.0
C379 C 0.65426 0.49383 0.14316 0.0
N380 N 0.67485 0.58802 0.16983 0.0
N381 N 0.6046 0.46563 0.04113 0.0
H382 H 0.69132 0.45948 0.23174 0.0
H383 H 0.66189 0.43857 0.13236 0.0
H384 H 0.58182 0.46491 0.98743 0.0
H385 H 0.60989 0.44147 0.08421 0.0
H386 H 0.66512 0.6128 0.14623 0.0
H387 H 0.69621 0.5887 0.23283 0.0
H388 H 0.64384 0.61006 0.96182 0.0
H389 H 0.60432 0.59275 0.90706 0.0
C390 C 1.00415 0.63339 0.27218 0.0
C391 C 0.02266 0.66449 0.23315 0.0
C392 C 0.03422 0.63628 0.02121 0.0
C393 C 1.01487 0.60564 0.05689 0.0
N394 N 0.97627 0.57804 0.21188 0.0
N395 N 0.04342 0.69863 0.05056 0.0
C396 C 0.9983 0.60517 0.18138 0.0
C397 C 0.034 0.6668 0.10162 0.0
N398 N 0.99233 0.63065 0.39691 0.0
N399 N 0.05446 0.6359 0.91214 0.0
H400 H 0.04106 0.72186 0.10213 0.0
H401 H 0.04895 0.70258 0.95248 0.0
H402 H 0.05622 0.61392 0.8537 0.0
H403 H 0.07234 0.65568 0.88854 0.0
H404 H 0.98129 0.60802 0.4367 0.0
H405 H 0.99462 0.65098 0.46296 0.0
H406 H 0.96041 0.57711 0.29416 0.0
H407 H 0.97197 0.5573 0.14905 0.0
C408 C 0.91542 0.19305 0.25625 0.0
C409 C 0.92649 0.22703 0.30002 0.0
C410 C 0.8899 0.21682 0.49256 0.0
C411 C 0.8834 0.18263 0.4478 0.0
N412 N 0.86514 0.15457 0.25255 0.0
N413 N 0.90474 0.27607 0.42635 0.0
C414 C 0.88518 0.17867 0.31361 0.0
C415 C 0.90744 0.24096 0.40789 0.0
N416 N 0.93687 0.17069 0.19065 0.0
N417 N 0.88292 0.22462 0.61815 0.0
H418 H 0.9139 0.29393 0.35689 0.0
H419 H 0.88979 0.28669 0.50114 0.0
H420 H 0.87075 0.20628 0.67954 0.0
H421 H 0.89063 0.24818 0.65977 0.0
H422 H 0.92814 0.14634 0.15932 0.0
H423 H 0.96416 0.17314 0.19046 0.0
H424 H 0.86786 0.15016 0.1533 0.0
H425 H 0.84456 0.14175 0.30069 0.0
C426 C 0.30737 0.96095 0.55606 0.0
C427 C 0.29698 0.95193 0.43028 0.0
C428 C 0.33613 0.90139 0.43423 0.0
C429 C 0.35402 0.91758 0.53672 0.0
N430 N 0.35481 0.95858 0.71057 0.0
N431 N 0.29183 0.90855 0.26576 0.0
C432 C 0.33777 0.94478 0.60731 0.0
C433 C 0.30734 0.91947 0.37724 0.0
N434 N 0.28979 0.98658 0.62068 0.0
N435 N 0.34915 0.87096 0.38537 0.0
H436 H 0.27068 0.92227 0.22518 0.0
H437 H 0.29942 0.8864 0.21494 0.0
H438 H 0.37092 0.85858 0.42738 0.0
H439 H 0.33776 0.85732 0.3096 0.0
H440 H 0.29491 0.99298 0.71667 0.0
H441 H 0.26784 0.99906 0.58095 0.0
H442 H 0.34807 0.98251 0.75113 0.0
H443 H 0.3771 0.94653 0.74942 0.0
C444 C 0.59784 0.31167 0.49253 0.0
C445 C 0.6109 0.29925 0.37436 0.0
C446 C 0.65283 0.34742 0.36601 0.0
C447 C 0.63051 0.36542 0.45263 0.0
N448 N 0.57949 0.36478 0.59445 0.0
N449 N 0.65732 0.2982 0.21839 0.0
C450 C 0.60328 0.34724 0.51999 0.0
C451 C 0.64177 0.31415 0.32117 0.0
N452 N 0.57692 0.29091 0.56844 0.0
N453 N 0.68254 0.36343 0.32058 0.0
H454 H 0.64845 0.27384 0.18659 0.0
H455 H 0.67797 0.309 0.16496 0.0
H456 H 0.69005 0.3882 0.3525 0.0
H457 H 0.70061 0.35141 0.25956 0.0
H458 H 0.56763 0.2987 0.6588 0.0
H459 H 0.57231 0.26471 0.54647 0.0
H460 H 0.55681 0.35306 0.63185 0.0
H461 H 0.58059 0.39168 0.60905 0.0
C462 C 0.23326 0.63417 0.34236 0.0
C463 C 0.24658 0.60358 0.403 0.0
C464 C 0.19896 0.60338 0.558 0.0
C465 C 0.18169 0.62917 0.48014 0.0
N466 N 0.18549 0.67525 0.31933 0.0
N467 N 0.25338 0.57249 0.60411 0.0
C468 C 0.20049 0.6475 0.38258 0.0
C469 C 0.23372 0.59374 0.52574 0.0
N470 N 0.2494 0.64805 0.23604 0.0
N471 N 0.1808 0.58476 0.64994 0.0
H472 H 0.27872 0.56476 0.57783 0.0
H473 H 0.24598 0.56579 0.69855 0.0
H474 H 0.15515 0.59081 0.67676 0.0
H475 H 0.19054 0.56199 0.69359 0.0
H476 H 0.2731 0.63817 0.20017 0.0
H477 H 0.2731 0.63817 0.20017 0.0
H478 H 0.19812 0.68845 0.24316 0.0
H479 H 0.161 0.68518 0.34683 0.0
C480 C 0.93677 0.83406 0.17781 0.0
C481 C 0.96385 0.81089 0.14329 0.0
C482 C 0.99208 0.85736 0.02251 0.0
C483 C 0.97637 0.88083 0.11209 0.0
N484 N 0.9276 0.89243 0.25934 0.0
N485 N 1.0021 0.79582 0.96978 0.0
C486 C 0.94513 0.8703 0.1788 0.0
C487 C 0.98536 0.82102 0.03903 0.0
N488 N 0.90679 0.82082 0.23096 0.0
N489 N 1.01561 0.86979 0.93341 0.0
H490 H 0.99716 0.76929 0.98847 0.0
H491 H 1.01948 0.80093 0.89384 0.0
H492 H 1.0205 0.8966 0.92349 0.0
H493 H 0.02933 0.85407 0.86901 0.0
H494 H 0.88535 0.8364 0.25599 0.0
H495 H 0.90317 0.79372 0.23935 0.0
H496 H 0.90729 0.88418 0.32034 0.0
H497 H 0.93439 0.91855 0.27139 0.0
C498 C 0.73617 0.09552 0.10424 0.0
C499 C 0.75146 0.10662 0.22028 0.0
C500 C 0.70479 0.14989 0.24352 0.0
C501 C 0.68412 0.1289 0.16095 0.0
N502 N 0.68023 0.07882 0.01827 0.0
N503 N 0.7577 0.15166 0.3766 0.0
C504 C 0.70001 0.10167 0.08815 0.0
C505 C 0.73887 0.13756 0.27801 0.0
N506 N 0.75486 0.07539 0.02041 0.0
N507 N 0.69083 0.17969 0.29426 0.0
H508 H 0.78232 0.14148 0.40173 0.0
H509 H 0.74894 0.17232 0.43323 0.0
H510 H 0.66558 0.18826 0.26982 0.0
H511 H 0.7049 0.19682 0.35225 0.0
H512 H 0.74452 0.06629 0.93378 0.0
H513 H 0.78176 0.07124 0.03182 0.0
H514 H 0.69066 0.05625 0.97705 0.0
H515 H 0.65299 0.08045 0.01157 0.0
C516 C 0.60032 0.70773 0.20232 0.0
C517 C 0.57255 0.73031 0.16861 0.0
C518 C 0.54298 0.68256 0.06415 0.0
C519 C 0.56101 0.65973 0.15214 0.0
N520 N 0.61145 0.65018 0.29323 0.0
N521 N 0.53062 0.74361 1.00484 0.0
C522 C 0.59259 0.67144 0.21191 0.0
C523 C 0.54923 0.7191 0.07296 0.0
N524 N 0.63077 0.72175 0.2468 0.0
N525 N 0.51832 0.66934 0.98251 0.0
H526 H 0.53529 0.77032 0.01822 0.0
H527 H 0.5119 0.73787 0.93493 0.0
H528 H 0.51419 0.6424 0.97497 0.0
H529 H 0.50282 0.68462 0.92123 0.0
H530 H 0.65274 0.70665 0.27049 0.0
H531 H 0.63413 0.74894 0.24907 0.0
H532 H 0.63236 0.65918 0.34867 0.0
H533 H 0.60495 0.62417 0.31268 0.0
C534 C 0.81611 0.43073 0.09264 0.0
C535 C 0.80658 0.43011 0.22562 0.0
C536 C 0.8418 0.3773 0.25875 0.0
C537 C 0.85809 0.38503 0.13884 0.0
N538 N 0.83974 0.39537 0.91963 0.0
N539 N 0.79868 0.39543 0.42001 0.0
C540 C 0.83786 0.40355 0.04723 0.0
C541 C 0.81478 0.4001 0.3028 0.0
N542 N 0.80747 0.45814 0.01302 0.0
N543 N 0.85609 0.35179 0.33523 0.0
H544 H 0.80318 0.37401 0.48115 0.0
H545 H 0.77901 0.41248 0.45158 0.0
H546 H 0.87678 0.33668 0.29995 0.0
H547 H 0.84809 0.3461 0.42966 0.0
H548 H 0.81776 0.46062 0.91998 0.0
H549 H 0.79209 0.47924 0.04152 0.0
H550 H 0.82358 0.40719 0.8502 0.0
H551 H 0.85446 0.37399 0.8882 0.0
C552 C 0.0471 0.17868 0.07562 0.0
C553 C 0.02294 0.20386 0.0227 0.0
C554 C 1.00134 0.15684 0.879 0.0
C555 C 0.02772 0.13262 0.92069 0.0
N556 N 0.08309 0.12722 0.03445 0.0
N557 N 0.98709 0.21785 0.83703 0.0
C558 C 0.05291 0.14561 0.01147 0.0
C559 C 1.00405 0.19323 0.91063 0.0
N560 N 0.06342 0.18501 0.19047 0.0
N561 N 0.97144 0.14517 0.82115 0.0
H562 H 0.98886 0.24457 0.85715 0.0
H563 H 0.97445 0.2117 0.75057 0.0
H564 H 0.96558 0.11868 0.811 0.0
H565 H 0.95027 0.16178 0.8013 0.0
H566 H 0.07789 0.16589 0.24001 0.0
H567 H 0.06045 0.20826 0.24095 0.0
H568 H 0.10335 0.13681 0.09194 0.0
H569 H 0.08985 0.10482 0.98321 0.0
C570 C 0.36364 0.05257 0.04504 0.0
C571 C 0.34547 1.02016 0.06274 0.0
C572 C 0.39765 0.98988 0.96788 0.0
C573 C 0.41489 0.02245 0.94167 0.0
N574 N 0.40961 0.08539 0.93173 0.0
N575 N 0.34263 0.95899 0.00882 0.0
C576 C 0.39639 0.05392 0.97332 0.0
C577 C 0.36181 0.98927 0.01337 0.0
N578 N 0.35076 0.08197 0.10242 0.0
N579 N 0.41585 0.95916 0.95605 0.0
H580 H 0.31598 0.95809 0.03307 0.0
H581 H 0.35178 0.93584 0.96825 0.0
H582 H 0.44185 0.95779 0.92485 0.0
H583 H 0.40617 0.93505 0.98816 0.0
H584 H 0.36475 0.10539 0.1072 0.0
H585 H 0.32714 0.08218 0.15387 0.0
H586 H 0.396 0.10897 0.94021 0.0
H587 H 0.43255 0.08746 0.87652 0.0
C588 C 0.49922 0.35955 0.04558 0.0
C589 C 0.53015 0.33906 0.028 0.0
C590 C 0.55534 0.38857 0.89782 0.0
C591 C 0.52371 0.4086 0.90953 0.0
N592 N 0.46216 0.4073 0.96706 0.0
N593 N 0.5834 0.33123 0.90573 0.0
C594 C 0.49467 0.39221 0.97506 0.0
C595 C 0.55658 0.35274 0.94299 0.0
N596 N 0.47474 0.34889 0.13454 0.0
N597 N 0.58528 0.40402 0.85146 0.0
H598 H 0.58463 0.3049 0.93426 0.0
H599 H 0.60216 0.33833 0.83653 0.0
H600 H 0.58617 0.42925 0.81247 0.0
H601 H 0.61 0.39237 0.85882 0.0
H602 H 0.45386 0.36463 0.16394 0.0
H603 H 0.47672 0.32522 0.18555 0.0
H604 H 0.43941 0.39523 1.00201 0.0
H605 H 0.45734 0.42998 0.91257 0.0
C606 C 0.18497 0.55042 0.99624 0.0
C607 C 0.19885 0.52301 0.07656 0.0
C608 C 0.14452 0.489 0.02988 0.0
C609 C 0.12872 0.51854 0.96602 0.0
N610 N 0.13286 0.58038 0.91724 0.0
N611 N 0.18849 0.46743 0.18284 0.0
C612 C 0.14883 0.54998 0.95606 0.0
C613 C 0.17779 0.49247 0.09595 0.0
N614 N 0.20651 0.57747 0.95971 0.0
N615 N 0.12816 0.45718 0.02516 0.0
H616 H 0.21248 0.46872 0.23111 0.0
H617 H 0.17251 0.44677 0.21377 0.0
H618 H 0.10454 0.45339 0.97617 0.0
H619 H 0.13968 0.434 0.05856 0.0
H620 H 0.19888 0.59766 0.89705 0.0
H621 H 0.23322 0.5779 0.98274 0.0
H622 H 0.14476 0.60489 0.92322 0.0
H623 H 0.10654 0.58164 0.89064 0.0
C624 C 0.98527 0.85958 0.60262 0.0
C625 C 1.01628 0.84156 0.56167 0.0
C626 C 0.05022 0.89408 0.63438 0.0
C627 C 1.01871 0.91384 0.65541 0.0
N628 N 0.95562 0.9152 0.6395 0.0
N629 N 0.07874 0.8443 0.52973 0.0
C630 C 0.98611 0.89637 0.63435 0.0
C631 C 0.04892 0.85954 0.57653 0.0
N632 N 0.95449 0.84125 0.60975 0.0
N633 N 0.08163 0.90819 0.67023 0.0
H634 H 0.07881 0.81899 0.49244 0.0
H635 H 0.10271 0.85734 0.52164 0.0
H636 H 0.08364 0.93302 0.71084 0.0
H637 H 0.10518 0.89424 0.66969 0.0
H638 H 0.93146 0.85133 0.64954 0.0
H639 H 0.95317 0.81462 0.58801 0.0
H640 H 0.93133 0.90527 0.61153 0.0
H641 H 0.95509 0.94186 0.66015 0.0
C642 C 0.69398 0.05081 0.64832 0.0
C643 C 0.70445 0.02522 0.55577 0.0
C644 C 0.64943 0.99295 0.61272 0.0
C645 C 0.636 0.02172 0.68634 0.0
N646 N 0.64664 0.08106 0.75768 0.0
N647 N 0.68761 0.9738 0.43762 0.0
C648 C 0.65875 0.05132 0.70049 0.0
C649 C 0.681 0.99667 0.53538 0.0
N650 N 0.7181 0.075 0.68728 0.0
N651 N 0.63289 0.96123 0.62036 0.0
H652 H 0.70987 0.97547 0.37884 0.0
H653 H 0.66948 0.95505 0.40815 0.0
H654 H 0.61168 0.95646 0.68232 0.0
H655 H 0.64297 0.93863 0.57827 0.0
H656 H 0.71328 0.09318 0.75969 0.0
H657 H 0.74425 0.07452 0.65623 0.0
H658 H 0.65979 0.10498 0.75173 0.0
H659 H 0.62252 0.0829 0.80447 0.0
C660 C 0.49238 0.6864 0.62065 0.0
C661 C 0.52497 0.70406 0.5999 0.0
C662 C 0.55567 0.64962 0.67296 0.0
C663 C 0.52317 0.6322 0.69825 0.0
N664 N 0.46045 0.63767 0.72193 0.0
N665 N 0.58703 0.70472 0.64115 0.0
C666 C 0.4915 0.65186 0.68057 0.0
C667 C 0.55626 0.68633 0.63935 0.0
N668 N 0.46224 0.70197 0.57743 0.0
N669 N 0.58617 0.63075 0.67407 0.0
H670 H 0.5881 0.73136 0.6168 0.0
H671 H 0.61036 0.69466 0.67906 0.0
H672 H 0.58687 0.604 0.69502 0.0
H673 H 0.61021 0.64082 0.64249 0.0
H674 H 0.43809 0.68918 0.57403 0.0
H675 H 0.46203 0.7274 0.53891 0.0
H676 H 0.43684 0.65149 0.72289 0.0
H677 H 0.45901 0.613 0.7664 0.0
C678 C 0.86808 0.54486 0.52399 0.0
C679 C 0.84406 0.51686 0.54749 0.0
C680 C 0.88613 0.49269 0.71145 0.0
C681 C 0.91029 0.52068 0.68816 0.0
N682 N 0.91781 0.57906 0.59946 0.0
N683 N 0.82995 0.4659 0.67983 0.0
C684 C 0.89925 0.5484 0.60236 0.0
C685 C 0.85281 0.492 0.64704 0.0
N686 N 0.86237 0.56711 0.42153 0.0
N687 N 0.89477 0.46556 0.79276 0.0
H688 H 0.80457 0.46366 0.64246 0.0
H689 H 0.80457 0.46366 0.64246 0.0
H690 H 0.91833 0.46371 0.84279 0.0
H691 H 0.87832 0.44408 0.80796 0.0
H692 H 0.88105 0.58499 0.38771 0.0
H693 H 0.83982 0.56601 0.36451 0.0
H694 H 0.90963 0.60136 0.54867 0.0
H695 H 0.93919 0.5836 0.66005 0.0
loop_
_geom_bond_atom_site_label_1
_geom_bond_atom_site_label_2
_geom_bond_distance
_geom_bond_site_symmetry_2
_ccdc_geom_bond_type
H0 C7 0.929 . S
H1 C10 0.930 . S
H2 C12 0.929 . S
H3 C4 0.969 . S
C4 H3 0.969 . S
C4 O5 1.550 . S
C4 H6 0.973 . S
O5 C4 1.550 . S
O5 C11 1.412 . S
H6 C4 0.973 . S
C7 H0 0.929 . S
C7 C8 1.400 . S
C7 C9 1.364 . S
C8 C7 1.400 . S
C8 C12 1.377 . S
C9 C7 1.364 . S
C9 C10 1.374 . S
C10 H1 0.930 . S
C10 C9 1.374 . S
C10 C11 1.383 . S
C11 O5 1.412 . S
C11 C10 1.383 . S
C11 C12 1.394 . S
C12 H2 0.929 . S
C12 C8 1.377 . S
C12 C11 1.394 . S
H13 C20 0.928 1_655 S
H14 C23 0.931 . S
H15 C25 0.928 1_655 S
H16 C17 0.969 . S
C17 H16 0.969 . S
C17 O18 1.550 1_455 S
C17 H19 0.973 1_455 S
O18 C17 1.550 1_655 S
O18 C24 1.404 1_655 S
H19 C17 0.973 1_655 S
C20 H13 0.928 1_455 S
C20 C21 1.399 . S
C20 C22 1.364 . S
C21 C20 1.399 . S
C21 C25 1.377 . S
C22 C20 1.364 . S
C22 C23 1.374 1_455 S
C23 H14 0.931 . S
C23 C22 1.374 1_655 S
C23 C24 1.382 1_655 S
C24 O18 1.404 1_455 S
C24 C23 1.382 1_455 S
C24 C25 1.394 . S
C25 H15 0.928 1_455 S
C25 C21 1.377 . S
C25 C24 1.394 . S
H26 C33 0.928 1_565 S
H27 C36 0.931 . S
H28 C38 0.929 1_565 S
H29 C30 0.969 . S
C30 H29 0.969 . S
C30 O31 1.550 1_545 S
C30 H32 0.973 1_545 S
O31 C30 1.550 1_565 S
O31 C37 1.404 1_565 S
H32 C30 0.973 1_565 S
C33 H26 0.928 1_545 S
C33 C34 1.399 . S
C33 C35 1.364 . S
C34 C33 1.399 . S
C34 C38 1.377 . S
C35 C33 1.364 . S
C35 C36 1.374 1_545 S
C36 H27 0.931 . S
C36 C35 1.374 1_565 S
C36 C37 1.382 1_565 S
C37 O31 1.404 1_545 S
C37 C36 1.382 1_545 S
C37 C38 1.395 . S
C38 H28 0.929 1_545 S
C38 C34 1.377 . S
C38 C37 1.395 . S
H39 C46 0.929 . S
H40 C49 0.930 . S
H41 C51 0.929 . S
H42 C43 0.969 . S
C43 H42 0.969 . S
C43 O44 1.550 . S
C43 H45 0.973 . S
O44 C43 1.550 . S
O44 C50 1.412 . S
H45 C43 0.973 . S
C46 H39 0.929 . S
C46 C47 1.400 . S
C46 C48 1.364 . S
C47 C46 1.400 . S
C47 C51 1.377 . S
C48 C46 1.364 . S
C48 C49 1.374 . S
C49 H40 0.930 . S
C49 C48 1.374 . S
C49 C50 1.383 . S
C50 O44 1.412 . S
C50 C49 1.383 . S
C50 C51 1.394 . S
C51 H41 0.929 . S
C51 C47 1.377 . S
C51 C50 1.394 . S
H52 C59 0.929 . S
H53 C62 0.930 . S
H54 C64 0.929 . S
H55 C56 0.969 . S
C56 H55 0.969 . S
C56 O57 1.550 . S
C56 H58 0.973 . S
O57 C56 1.550 . S
O57 C63 1.412 . S
H58 C56 0.973 . S
C59 H52 0.929 . S
C59 C60 1.400 1_554 S
C59 C61 1.364 . S
C60 C59 1.400 1_556 S
C60 C64 1.377 . S
C61 C59 1.364 . S
C61 C62 1.374 . S
C62 H53 0.930 . S
C62 C61 1.374 . S
C62 C63 1.383 . S
C63 O57 1.412 . S
C63 C62 1.383 . S
C63 C64 1.394 1_554 S
C64 H54 0.929 . S
C64 C60 1.377 . S
C64 C63 1.394 1_556 S
H65 C72 0.928 1_655 S
H66 C75 0.930 . S
H67 C77 0.928 1_655 S
H68 C69 0.969 . S
C69 H68 0.969 . S
C69 O70 1.550 1_455 S
C69 H71 0.973 1_455 S
O70 C69 1.550 1_655 S
O70 C76 1.412 1_655 S
H71 C69 0.973 1_655 S
C72 H65 0.928 1_455 S
C72 C73 1.400 1_554 S
C72 C74 1.364 . S
C73 C72 1.400 1_556 S
C73 C77 1.377 . S
C74 C72 1.364 . S
C74 C75 1.374 1_455 S
C75 H66 0.930 . S
C75 C74 1.374 1_655 S
C75 C76 1.383 1_655 S
C76 O70 1.412 1_455 S
C76 C75 1.383 1_455 S
C76 C77 1.395 1_554 S
C77 H67 0.928 1_455 S
C77 C73 1.377 . S
C77 C76 1.395 1_556 S
H78 C85 0.928 1_565 S
H79 C88 0.930 . S
H80 C90 0.928 1_565 S
H81 C82 0.969 . S
C82 H81 0.969 . S
C82 O83 1.550 1_545 S
C82 H84 0.973 1_545 S
O83 C82 1.550 1_565 S
O83 C89 1.412 1_565 S
H84 C82 0.973 1_565 S
C85 H78 0.928 1_545 S
C85 C86 1.400 1_554 S
C85 C87 1.364 . S
C86 C85 1.400 1_556 S
C86 C90 1.377 . S
C87 C85 1.364 . S
C87 C88 1.374 1_545 S
C88 H79 0.930 . S
C88 C87 1.374 1_565 S
C88 C89 1.383 1_565 S
C89 O83 1.412 1_545 S
C89 C88 1.383 1_545 S
C89 C90 1.395 1_554 S
C90 H80 0.928 1_545 S
C90 C86 1.377 . S
C90 C89 1.395 1_556 S
H91 C98 0.929 . S
H92 C101 0.930 . S
H93 C103 0.929 . S
H94 C95 0.969 . S
C95 H94 0.969 . S
C95 O96 1.550 . S
C95 H97 0.973 . S
O96 C95 1.550 . S
O96 C102 1.412 . S
H97 C95 0.973 . S
C98 H91 0.929 . S
C98 C99 1.400 1_554 S
C98 C100 1.364 . S
C99 C98 1.400 1_556 S
C99 C103 1.377 . S
C100 C98 1.364 . S
C100 C101 1.374 . S
C101 H92 0.930 . S
C101 C100 1.374 . S
C101 C102 1.383 . S
C102 O96 1.412 . S
C102 C101 1.383 . S
C102 C103 1.394 1_554 S
C103 H93 0.929 . S
C103 C99 1.377 . S
C103 C102 1.394 1_556 S
Tb104 C106 2.809 1_556 S
Tb104 O124 2.484 1_556 S
Tb104 O125 2.440 1_556 S
Tb104 O126 2.658 1_565 S
Tb104 O127 2.409 . S
Tb104 O128 2.378 . S
Tb104 O132 2.325 1_455 S
Tb104 O135 2.341 1_565 S
Tb105 C115 2.809 . S
Tb105 O126 2.325 1_655 S
Tb105 O129 2.341 1_545 S
Tb105 O130 2.484 . S
Tb105 O131 2.440 . S
Tb105 O132 2.658 1_545 S
Tb105 O133 2.409 . S
Tb105 O134 2.378 . S
C106 Tb104 2.809 1_554 S
C106 C107 1.514 . S
C106 O124 1.248 . S
C106 O125 1.266 . S
C107 C106 1.514 . S
C107 C108 1.359 . S
C107 C112 1.348 . S
C108 C107 1.359 . S
C108 C109 1.380 . S
C108 H136 0.929 1_455 S
C109 C108 1.380 . S
C109 C110 1.347 . S
C109 H137 0.931 1_455 S
C110 C109 1.347 . S
C110 C111 1.369 . S
C111 C110 1.369 . S
C111 C112 1.408 . S
C111 H138 0.930 . S
C112 C107 1.348 . S
C112 C111 1.408 . S
C112 H139 0.930 . S
C113 O126 1.281 1_565 S
C113 O127 1.254 . S
C114 O128 1.236 1_655 S
C114 O129 1.266 . S
C115 Tb105 2.809 . S
C115 C116 1.514 . S
C115 O130 1.248 . S
C115 O131 1.266 . S
C116 C115 1.514 . S
C116 C117 1.359 . S
C116 C121 1.348 . S
C117 C116 1.359 . S
C117 C118 1.380 . S
C117 H140 0.929 1_655 S
C118 C117 1.380 . S
C118 C119 1.347 . S
C118 H141 0.931 1_655 S
C119 C118 1.347 . S
C119 C120 1.369 . S
C120 C119 1.369 . S
C120 C121 1.408 . S
C120 H142 0.930 . S
C121 C116 1.348 . S
C121 C120 1.408 . S
C121 H143 0.930 . S
C122 O132 1.281 1_545 S
C122 O133 1.254 . S
C123 O134 1.236 1_455 S
C123 O135 1.266 . S
O124 Tb104 2.484 1_554 S
O124 C106 1.248 . S
O125 Tb104 2.440 1_554 S
O125 C106 1.266 . S
O126 Tb104 2.658 1_545 S
O126 Tb105 2.325 1_455 S
O126 C113 1.281 1_545 S
O127 Tb104 2.409 . S
O127 C113 1.254 . S
O128 Tb104 2.378 . S
O128 C114 1.236 1_455 S
O129 Tb105 2.341 1_565 S
O129 C114 1.266 . S
O130 Tb105 2.484 . S
O130 C115 1.248 . S
O131 Tb105 2.440 . S
O131 C115 1.266 . S
O132 Tb104 2.325 1_655 S
O132 Tb105 2.658 1_565 S
O132 C122 1.281 1_565 S
O133 Tb105 2.409 . S
O133 C122 1.254 . S
O134 Tb105 2.378 . S
O134 C123 1.236 1_655 S
O135 Tb104 2.341 1_545 S
O135 C123 1.266 . S
H136 C108 0.929 1_655 S
H137 C109 0.931 1_655 S
H138 C111 0.930 . S
H139 C112 0.930 . S
H140 C117 0.929 1_455 S
H141 C118 0.931 1_455 S
H142 C120 0.930 . S
H143 C121 0.930 . S
Tb144 C146 2.809 1_556 S
Tb144 O164 2.484 1_556 S
Tb144 O165 2.440 1_556 S
Tb144 O166 2.658 . S
Tb144 O167 2.409 . S
Tb144 O168 2.378 . S
Tb144 O172 2.325 1_545 S
Tb144 O175 2.341 . S
Tb145 C155 2.809 . S
Tb145 O166 2.325 1_565 S
Tb145 O169 2.341 . S
Tb145 O170 2.484 . S
Tb145 O171 2.440 . S
Tb145 O172 2.658 . S
Tb145 O173 2.409 . S
Tb145 O174 2.378 . S
C146 Tb144 2.809 1_554 S
C146 C147 1.514 . S
C146 O164 1.248 . S
C146 O165 1.266 . S
C147 C146 1.514 . S
C147 C148 1.359 . S
C147 C152 1.348 . S
C148 C147 1.359 . S
C148 C149 1.380 . S
C148 H176 0.929 1_545 S
C149 C148 1.380 . S
C149 C150 1.347 . S
C149 H177 0.931 1_545 S
C150 C149 1.347 . S
C150 C151 1.369 . S
C151 C150 1.369 . S
C151 C152 1.408 . S
C151 H178 0.930 . S
C152 C147 1.348 . S
C152 C151 1.408 . S
C152 H179 0.930 . S
C153 O166 1.281 . S
C153 O167 1.254 . S
C154 O168 1.236 1_565 S
C154 O169 1.266 . S
C155 Tb145 2.809 . S
C155 C156 1.514 . S
C155 O170 1.248 . S
C155 O171 1.266 . S
C156 C155 1.514 . S
C156 C157 1.359 . S
C156 C161 1.348 . S
C157 C156 1.359 . S
C157 C158 1.380 . S
C157 H180 0.929 1_565 S
C158 C157 1.380 . S
C158 C159 1.347 . S
C158 H181 0.931 1_565 S
C159 C158 1.347 . S
C159 C160 1.369 . S
C160 C159 1.369 . S
C160 C161 1.408 . S
C160 H182 0.930 . S
C161 C156 1.348 . S
C161 C160 1.408 . S
C161 H183 0.930 . S
C162 O172 1.281 . S
C162 O173 1.254 . S
C163 O174 1.236 1_545 S
C163 O175 1.266 . S
O164 Tb144 2.484 1_554 S
O164 C146 1.248 . S
O165 Tb144 2.440 1_554 S
O165 C146 1.266 . S
O166 Tb144 2.658 . S
O166 Tb145 2.325 1_545 S
O166 C153 1.281 . S
O167 Tb144 2.409 . S
O167 C153 1.254 . S
O168 Tb144 2.378 . S
O168 C154 1.236 1_545 S
O169 Tb145 2.341 . S
O169 C154 1.266 . S
O170 Tb145 2.484 . S
O170 C155 1.248 . S
O171 Tb145 2.440 . S
O171 C155 1.266 . S
O172 Tb144 2.325 1_565 S
O172 Tb145 2.658 . S
O172 C162 1.281 . S
O173 Tb145 2.409 . S
O173 C162 1.254 . S
O174 Tb145 2.378 . S
O174 C163 1.236 1_565 S
O175 Tb144 2.341 . S
O175 C163 1.266 . S
H176 C148 0.929 1_565 S
H177 C149 0.931 1_565 S
H178 C151 0.930 . S
H179 C152 0.930 . S
H180 C157 0.929 1_545 S
H181 C158 0.931 1_545 S
H182 C160 0.930 . S
H183 C161 0.930 . S
Tb184 C186 2.809 1_556 S
Tb184 O204 2.484 1_556 S
Tb184 O205 2.440 1_556 S
Tb184 O206 2.658 . S
Tb184 O207 2.409 . S
Tb184 O208 2.378 . S
Tb184 O212 2.325 . S
Tb184 O215 2.341 . S
Tb185 C195 2.809 . S
Tb185 O206 2.325 . S
Tb185 O209 2.341 . S
Tb185 O210 2.484 . S
Tb185 O211 2.440 . S
Tb185 O212 2.658 . S
Tb185 O213 2.409 . S
Tb185 O214 2.378 . S
C186 Tb184 2.809 1_554 S
C186 C187 1.514 . S
C186 O204 1.248 . S
C186 O205 1.266 . S
C187 C186 1.514 . S
C187 C188 1.359 . S
C187 C192 1.348 . S
C188 C187 1.359 . S
C188 C189 1.380 . S
C188 H216 0.929 . S
C189 C188 1.380 . S
C189 C190 1.347 . S
C189 H217 0.931 . S
C190 C189 1.347 . S
C190 C191 1.369 . S
C191 C190 1.369 . S
C191 C192 1.408 . S
C191 H218 0.930 . S
C192 C187 1.348 . S
C192 C191 1.408 . S
C192 H219 0.930 . S
C193 O206 1.281 . S
C193 O207 1.254 . S
C194 O208 1.236 . S
C194 O209 1.266 . S
C195 Tb185 2.809 . S
C195 C196 1.514 . S
C195 O210 1.248 . S
C195 O211 1.266 . S
C196 C195 1.514 . S
C196 C197 1.359 . S
C196 C201 1.348 . S
C197 C196 1.359 . S
C197 C198 1.380 . S
C197 H220 0.929 . S
C198 C197 1.380 . S
C198 C199 1.347 . S
C198 H221 0.931 . S
C199 C198 1.347 . S
C199 C200 1.369 . S
C200 C199 1.369 . S
C200 C201 1.408 . S
C200 H222 0.930 . S
C201 C196 1.348 . S
C201 C200 1.408 . S
C201 H223 0.930 . S
C202 O212 1.281 . S
C202 O213 1.254 . S
C203 O214 1.236 . S
C203 O215 1.266 . S
O204 Tb184 2.484 1_554 S
O204 C186 1.248 . S
O205 Tb184 2.440 1_554 S
O205 C186 1.266 . S
O206 Tb184 2.658 . S
O206 Tb185 2.325 . S
O206 C193 1.281 . S
O207 Tb184 2.409 . S
O207 C193 1.254 . S
O208 Tb184 2.378 . S
O208 C194 1.236 . S
O209 Tb185 2.341 . S
O209 C194 1.266 . S
O210 Tb185 2.484 . S
O210 C195 1.248 . S
O211 Tb185 2.440 . S
O211 C195 1.266 . S
O212 Tb184 2.325 . S
O212 Tb185 2.658 . S
O212 C202 1.281 . S
O213 Tb185 2.409 . S
O213 C202 1.254 . S
O214 Tb185 2.378 . S
O214 C203 1.236 . S
O215 Tb184 2.341 . S
O215 C203 1.266 . S
H216 C188 0.929 . S
H217 C189 0.931 . S
H218 C191 0.930 . S
H219 C192 0.930 . S
H220 C197 0.929 . S
H221 C198 0.931 . S
H222 C200 0.930 . S
H223 C201 0.930 . S
Tb224 C226 2.809 1_556 S
Tb224 O244 2.484 1_556 S
Tb224 O245 2.440 1_556 S
Tb224 O246 2.658 1_655 S
Tb224 O247 2.409 . S
Tb224 O248 2.378 . S
Tb224 O252 2.325 . S
Tb224 O255 2.341 1_655 S
Tb225 C235 2.809 . S
Tb225 O246 2.325 . S
Tb225 O249 2.341 1_455 S
Tb225 O250 2.484 . S
Tb225 O251 2.440 . S
Tb225 O252 2.658 1_455 S
Tb225 O253 2.409 . S
Tb225 O254 2.378 . S
C226 Tb224 2.809 1_554 S
C226 C227 1.514 . S
C226 O244 1.248 . S
C226 O245 1.266 . S
C227 C226 1.514 . S
C227 C228 1.359 . S
C227 C232 1.348 . S
C228 C227 1.359 . S
C228 C229 1.380 . S
C228 H256 0.929 . S
C229 C228 1.380 . S
C229 C230 1.347 . S
C229 H257 0.931 . S
C230 C229 1.347 . S
C230 C231 1.369 . S
C231 C230 1.369 . S
C231 C232 1.408 . S
C231 H258 0.930 . S
C232 C227 1.348 . S
C232 C231 1.408 . S
C232 H259 0.930 . S
C233 O246 1.277 1_655 S
C233 O247 1.259 . S
C234 O248 1.236 . S
C234 O249 1.266 . S
C235 Tb225 2.809 . S
C235 C236 1.514 . S
C235 O250 1.248 . S
C235 O251 1.266 . S
C236 C235 1.514 . S
C236 C237 1.359 . S
C236 C241 1.348 . S
C237 C236 1.359 . S
C237 C238 1.380 . S
C237 H260 0.929 . S
C238 C237 1.380 . S
C238 C239 1.347 . S
C238 H261 0.931 . S
C239 C238 1.347 . S
C239 C240 1.369 . S
C240 C239 1.369 . S
C240 C241 1.408 . S
C240 H262 0.930 . S
C241 C236 1.348 . S
C241 C240 1.408 . S
C241 H263 0.930 . S
C242 O252 1.275 1_455 S
C242 O253 1.262 . S
C243 O254 1.236 . S
C243 O255 1.266 . S
O244 Tb224 2.484 1_554 S
O244 C226 1.248 . S
O245 Tb224 2.440 1_554 S
O245 C226 1.266 . S
O246 Tb224 2.658 1_455 S
O246 Tb225 2.325 . S
O246 C233 1.277 1_455 S
O247 Tb224 2.409 . S
O247 C233 1.259 . S
O248 Tb224 2.378 . S
O248 C234 1.236 . S
O249 Tb225 2.341 1_655 S
O249 C234 1.266 . S
O250 Tb225 2.484 . S
O250 C235 1.248 . S
O251 Tb225 2.440 . S
O251 C235 1.266 . S
O252 Tb224 2.325 . S
O252 Tb225 2.658 1_655 S
O252 C242 1.275 1_655 S
O253 Tb225 2.409 . S
O253 C242 1.262 . S
O254 Tb225 2.378 . S
O254 C243 1.236 . S
O255 Tb224 2.341 1_455 S
O255 C243 1.266 . S
H256 C228 0.929 . S
H257 C229 0.931 . S
H258 C231 0.930 . S
H259 C232 0.930 . S
H260 C237 0.929 . S
H261 C238 0.931 . S
H262 C240 0.930 . S
H263 C241 0.930 . S
C264 C265 1.363 1_545 S
C264 C270 1.379 . S
C264 N272 1.356 . S
C265 C264 1.363 1_565 S
C265 C271 1.363 . S
C266 C267 1.375 . S
C266 C271 1.379 . S
C266 N273 1.356 . S
C267 C266 1.375 . S
C267 C270 1.352 1_565 S
N268 C270 1.356 . S
N268 H280 0.984 . S
N268 H281 0.985 . S
N269 C271 1.356 . S
N269 H274 0.984 . S
N269 H275 0.985 . S
C270 C264 1.379 . S
C270 C267 1.352 1_545 S
C270 N268 1.356 . S
C271 C265 1.363 . S
C271 C266 1.379 . S
C271 N269 1.356 . S
N272 C264 1.356 . S
N272 H278 0.984 . S
N272 H279 0.984 . S
N273 C266 1.356 . S
N273 H276 0.984 . S
N273 H277 0.985 . S
H274 N269 0.984 . S
H275 N269 0.985 . S
H276 N273 0.984 . S
H277 N273 0.985 . S
H278 N272 0.984 . S
H279 N272 0.984 . S
H280 N268 0.984 . S
H281 N268 0.985 . S
C282 C283 1.363 . S
C282 C288 1.379 . S
C282 N290 1.356 . S
C283 C282 1.363 . S
C283 C289 1.363 . S
C284 C285 1.363 . S
C284 C289 1.379 . S
C284 N291 1.356 . S
C285 C284 1.363 . S
C285 C288 1.363 . S
N286 C288 1.356 . S
N286 H298 0.984 . S
N286 H299 0.985 . S
N287 C289 1.356 . S
N287 H292 0.984 . S
N287 H293 0.985 . S
C288 C282 1.379 . S
C288 C285 1.363 . S
C288 N286 1.356 . S
C289 C283 1.363 . S
C289 C284 1.379 . S
C289 N287 1.356 . S
N290 C282 1.356 . S
N290 H296 0.984 . S
N290 H297 0.984 . S
N291 C284 1.356 . S
N291 H294 0.984 . S
N291 H295 0.985 . S
H292 N287 0.984 . S
H293 N287 0.985 . S
H294 N291 0.984 . S
H295 N291 0.985 . S
H296 N290 0.984 . S
H297 N290 0.984 . S
H298 N286 0.984 . S
H299 N286 0.985 . S
C300 C301 1.363 . S
C300 C306 1.379 . S
C300 N308 1.356 . S
C301 C300 1.363 . S
C301 C307 1.363 . S
C302 C303 1.363 . S
C302 C307 1.379 . S
C302 N309 1.356 . S
C303 C302 1.363 . S
C303 C306 1.363 . S
N304 C306 1.356 . S
N304 H316 0.984 . S
N304 H317 0.985 . S
N305 C307 1.356 . S
N305 H310 0.984 . S
N305 H311 0.985 . S
C306 C300 1.379 . S
C306 C303 1.363 . S
C306 N304 1.356 . S
C307 C301 1.363 . S
C307 C302 1.379 . S
C307 N305 1.356 . S
N308 C300 1.356 . S
N308 H314 0.984 . S
N308 H315 0.984 . S
N309 C302 1.356 . S
N309 H312 0.984 . S
N309 H313 0.985 . S
H310 N305 0.984 . S
H311 N305 0.985 . S
H312 N309 0.984 . S
H313 N309 0.985 . S
H314 N308 0.984 . S
H315 N308 0.984 . S
H316 N304 0.984 . S
H317 N304 0.985 . S
C318 C319 1.374 . S
C318 C324 1.379 . S
C318 N326 1.356 . S
C319 C318 1.374 . S
C319 C325 1.352 1_455 S
C320 C321 1.363 1_655 S
C320 C325 1.379 . S
C320 N327 1.356 . S
C321 C320 1.363 1_455 S
C321 C324 1.363 . S
N322 C324 1.356 . S
N322 H334 0.984 . S
N322 H335 0.985 . S
N323 C325 1.356 . S
N323 H328 0.984 . S
N323 H329 0.985 . S
C324 C318 1.379 . S
C324 C321 1.363 . S
C324 N322 1.356 . S
C325 C319 1.352 1_655 S
C325 C320 1.379 . S
C325 N323 1.356 . S
N326 C318 1.356 . S
N326 H332 0.984 . S
N326 H333 0.984 . S
N327 C320 1.356 . S
N327 H330 0.984 . S
N327 H331 0.985 . S
H328 N323 0.984 . S
H329 N323 0.985 . S
H330 N327 0.984 . S
H331 N327 0.985 . S
H332 N326 0.984 . S
H333 N326 0.984 . S
H334 N322 0.984 . S
H335 N322 0.985 . S
C336 C337 1.368 . S
C336 C342 1.379 . S
C336 N344 1.356 . S
C337 C336 1.368 . S
C337 C343 1.358 1_545 S
C338 C339 1.348 1_565 S
C338 C343 1.379 . S
C338 N345 1.356 . S
C339 C338 1.348 1_545 S
C339 C342 1.379 . S
N340 C342 1.356 . S
N340 H352 0.984 . S
N340 H353 0.985 1_554 S
N341 C343 1.356 . S
N341 H346 0.984 . S
N341 H347 0.985 . S
C342 C336 1.379 . S
C342 C339 1.379 . S
C342 N340 1.356 . S
C343 C337 1.358 1_565 S
C343 C338 1.379 . S
C343 N341 1.356 . S
N344 C336 1.356 . S
N344 H350 0.984 . S
N344 H351 0.984 . S
N345 C338 1.356 . S
N345 H348 0.984 . S
N345 H349 0.985 . S
H346 N341 0.984 . S
H347 N341 0.985 . S
H348 N345 0.984 . S
H349 N345 0.985 . S
H350 N344 0.984 . S
H351 N344 0.984 . S
H352 N340 0.984 . S
H353 N340 0.985 1_556 S
C354 C355 1.363 . S
C354 C360 1.379 . S
C354 N362 1.356 . S
C355 C354 1.363 . S
C355 C361 1.363 . S
C356 C357 1.363 . S
C356 C361 1.379 . S
C356 N363 1.356 . S
C357 C356 1.363 . S
C357 C360 1.363 . S
N358 C360 1.356 . S
N358 H370 0.984 . S
N358 H371 0.985 . S
N359 C361 1.356 . S
N359 H364 0.984 . S
N359 H365 0.985 . S
C360 C354 1.379 . S
C360 C357 1.363 . S
C360 N358 1.356 . S
C361 C355 1.363 . S
C361 C356 1.379 . S
C361 N359 1.356 . S
N362 C354 1.356 . S
N362 H368 0.984 . S
N362 H369 0.984 . S
N363 C356 1.356 . S
N363 H366 0.984 1_554 S
N363 H367 0.985 . S
H364 N359 0.984 . S
H365 N359 0.985 . S
H366 N363 0.984 1_556 S
H367 N363 0.985 . S
H368 N362 0.984 . S
H369 N362 0.984 . S
H370 N358 0.984 . S
H371 N358 0.985 . S
C372 C373 1.363 . S
C372 C378 1.379 . S
C372 N380 1.356 . S
C373 C372 1.363 . S
C373 C379 1.363 . S
C374 C375 1.363 . S
C374 C379 1.379 . S
C374 N381 1.356 . S
C375 C374 1.363 . S
C375 C378 1.363 . S
N376 C378 1.356 . S
N376 H388 0.984 . S
N376 H389 0.985 . S
N377 C379 1.356 . S
N377 H382 0.984 . S
N377 H383 0.985 . S
C378 C372 1.379 . S
C378 C375 1.363 . S
C378 N376 1.356 . S
C379 C373 1.363 . S
C379 C374 1.379 . S
C379 N377 1.356 . S
N380 C372 1.356 . S
N380 H386 0.984 . S
N380 H387 0.984 . S
N381 C374 1.356 . S
N381 H384 0.984 1_554 S
N381 H385 0.985 . S
H382 N377 0.984 . S
H383 N377 0.985 . S
H384 N381 0.984 1_556 S
H385 N381 0.985 . S
H386 N380 0.984 . S
H387 N380 0.984 . S
H388 N376 0.984 . S
H389 N376 0.985 . S
C390 C391 1.374 . S
C390 C396 1.379 . S
C390 N398 1.356 . S
C391 C390 1.374 . S
C391 C397 1.352 1_655 S
C392 C393 1.363 1_455 S
C392 C397 1.379 . S
C392 N399 1.356 . S
C393 C392 1.363 1_655 S
C393 C396 1.363 . S
N394 C396 1.356 . S
N394 H406 0.984 . S
N394 H407 0.985 1_554 S
N395 C397 1.356 . S
N395 H400 0.984 . S
N395 H401 0.985 . S
C396 C390 1.379 . S
C396 C393 1.363 . S
C396 N394 1.356 . S
C397 C391 1.352 1_455 S
C397 C392 1.379 . S
C397 N395 1.356 . S
N398 C390 1.356 . S
N398 H404 0.984 . S
N398 H405 0.984 . S
N399 C392 1.356 . S
N399 H402 0.979 1_554 S
N399 H403 0.985 . S
H400 N395 0.984 . S
H401 N395 0.985 . S
H402 N399 0.979 1_556 S
H403 N399 0.985 . S
H404 N398 0.984 . S
H405 N398 0.984 . S
H406 N394 0.984 . S
H407 N394 0.985 1_556 S
C408 C409 1.363 . S
C408 C414 1.379 . S
C408 N416 1.356 1_655 S
C409 C408 1.363 . S
C409 C415 1.363 . S
C410 C411 1.363 . S
C410 C415 1.379 . S
C410 N417 1.356 . S
C411 C410 1.363 . S
C411 C414 1.363 . S
N412 C414 1.356 . S
N412 H424 0.984 . S
N412 H425 0.985 . S
N413 C415 1.356 . S
N413 H418 0.984 1_655 S
N413 H419 0.985 . S
C414 C408 1.379 . S
C414 C411 1.363 . S
C414 N412 1.356 . S
C415 C409 1.363 . S
C415 C410 1.379 . S
C415 N413 1.356 . S
N416 C408 1.356 1_455 S
N416 H422 0.984 1_554 S
N416 H423 0.984 . S
N417 C410 1.356 . S
N417 H420 0.984 . S
N417 H421 0.985 . S
H418 N413 0.984 1_455 S
H419 N413 0.985 . S
H420 N417 0.984 . S
H421 N417 0.985 . S
H422 N416 0.984 1_556 S
H423 N416 0.984 . S
H424 N412 0.984 . S
H425 N412 0.985 . S
C426 C427 1.367 . S
C426 C432 1.379 . S
C426 N434 1.356 1_565 S
C427 C426 1.367 . S
C427 C433 1.379 . S
C428 C429 1.363 . S
C428 C433 1.379 . S
C428 N435 1.356 . S
C429 C428 1.363 . S
C429 C432 1.363 . S
N430 C432 1.356 . S
N430 H442 0.984 . S
N430 H443 0.985 . S
N431 C433 1.356 . S
N431 H436 0.984 1_564 S
N431 H437 0.985 1_554 S
C432 C426 1.379 . S
C432 C429 1.363 . S
C432 N430 1.356 . S
C433 C427 1.379 . S
C433 C428 1.379 . S
C433 N431 1.356 . S
N434 C426 1.356 1_545 S
N434 H440 0.984 . S
N434 H441 0.984 . S
N435 C428 1.356 . S
N435 H438 0.984 . S
N435 H439 0.985 . S
H436 N431 0.984 1_546 S
H437 N431 0.985 1_556 S
H438 N435 0.984 . S
H439 N435 0.985 . S
H440 N434 0.984 . S
H441 N434 0.984 . S
H442 N430 0.984 . S
H443 N430 0.985 . S
C444 C445 1.363 . S
C444 C450 1.379 . S
C444 N452 1.356 . S
C445 C444 1.363 . S
C445 C451 1.363 . S
C446 C447 1.363 . S
C446 C451 1.379 . S
C446 N453 1.356 . S
C447 C446 1.363 . S
C447 C450 1.363 . S
N448 C450 1.356 . S
N448 H460 0.984 . S
N448 H461 0.985 . S
N449 C451 1.356 . S
N449 H454 0.985 . S
N449 H455 0.985 1_554 S
C450 C444 1.379 . S
C450 C447 1.363 . S
C450 N448 1.356 . S
C451 C445 1.363 . S
C451 C446 1.379 . S
C451 N449 1.356 . S
N452 C444 1.356 . S
N452 H458 0.984 . S
N452 H459 0.984 . S
N453 C446 1.356 . S
N453 H456 0.984 . S
N453 H457 0.985 . S
H454 N449 0.985 . S
H455 N449 0.985 1_556 S
H456 N453 0.984 . S
H457 N453 0.985 . S
H458 N452 0.984 . S
H459 N452 0.984 . S
H460 N448 0.984 . S
H461 N448 0.985 . S
C462 C463 1.363 . S
C462 C468 1.379 . S
C462 N470 1.356 . S
C463 C462 1.363 . S
C463 C469 1.363 . S
C464 C465 1.363 . S
C464 C469 1.379 . S
C464 N471 1.356 . S
C465 C464 1.363 . S
C465 C468 1.363 . S
N466 C468 1.356 . S
N466 H478 0.984 . S
N466 H479 0.985 . S
N467 C469 1.356 . S
N467 H472 0.984 . S
N467 H473 0.985 . S
C468 C462 1.379 . S
C468 C465 1.363 . S
C468 N466 1.356 . S
C469 C463 1.363 . S
C469 C464 1.379 . S
C469 N467 1.356 . S
N470 C462 1.356 . S
N470 H476 0.984 1_554 S
N470 H477 0.984 . S
N471 C464 1.356 . S
N471 H474 0.984 . S
N471 H475 0.985 . S
H472 N467 0.984 . S
H473 N467 0.985 . S
H474 N471 0.984 . S
H475 N471 0.985 . S
H476 N470 0.984 1_556 S
H477 N470 0.984 . S
H478 N466 0.984 . S
H479 N466 0.985 . S
C480 C481 1.363 1_655 S
C480 C486 1.379 1_655 S
C480 N488 1.356 . S
C481 C480 1.363 1_455 S
C481 C487 1.363 . S
C482 C483 1.363 . S
C482 C487 1.379 . S
C482 N489 1.356 . S
C483 C482 1.363 . S
C483 C486 1.363 . S
N484 C486 1.356 . S
N484 H496 0.984 1_455 S
N484 H497 0.985 . S
N485 C487 1.356 . S
N485 H490 0.984 . S
N485 H491 0.985 . S
C486 C480 1.379 1_455 S
C486 C483 1.363 . S
C486 N484 1.356 . S
C487 C481 1.363 . S
C487 C482 1.379 . S
C487 N485 1.356 . S
N488 C480 1.356 . S
N488 H494 0.984 . S
N488 H495 0.984 . S
N489 C482 1.356 . S
N489 H492 0.984 . S
N489 H493 0.985 . S
H490 N485 0.984 . S
H491 N485 0.985 . S
H492 N489 0.984 . S
H493 N489 0.985 . S
H494 N488 0.984 . S
H495 N488 0.984 . S
H496 N484 0.984 1_655 S
H497 N484 0.985 . S
C498 C499 1.363 . S
C498 C504 1.379 . S
C498 N506 1.356 1_545 S
C499 C498 1.363 . S
C499 C505 1.363 . S
C500 C501 1.363 . S
C500 C505 1.379 . S
C500 N507 1.356 . S
C501 C500 1.363 . S
C501 C504 1.363 . S
N502 C504 1.356 . S
N502 H514 0.984 . S
N502 H515 0.985 . S
N503 C505 1.356 . S
N503 H508 0.984 1_545 S
N503 H509 0.985 . S
C504 C498 1.379 . S
C504 C501 1.363 . S
C504 N502 1.356 . S
C505 C499 1.363 . S
C505 C500 1.379 . S
C505 N503 1.356 . S
N506 C498 1.356 1_565 S
N506 H512 0.984 . S
N506 H513 0.984 . S
N507 C500 1.356 . S
N507 H510 0.984 . S
N507 H511 0.985 . S
H508 N503 0.984 1_565 S
H509 N503 0.985 . S
H510 N507 0.984 . S
H511 N507 0.985 . S
H512 N506 0.984 . S
H513 N506 0.984 . S
H514 N502 0.984 . S
H515 N502 0.985 . S
C516 C517 1.363 . S
C516 C522 1.379 . S
C516 N524 1.356 . S
C517 C516 1.363 . S
C517 C523 1.363 . S
C518 C519 1.363 . S
C518 C523 1.379 . S
C518 N525 1.356 . S
C519 C518 1.363 . S
C519 C522 1.363 . S
N520 C522 1.356 . S
N520 H532 0.984 . S
N520 H533 0.985 . S
N521 C523 1.356 . S
N521 H526 0.984 . S
N521 H527 0.985 . S
C522 C516 1.379 . S
C522 C519 1.363 . S
C522 N520 1.356 . S
C523 C517 1.363 . S
C523 C518 1.379 . S
C523 N521 1.356 . S
N524 C516 1.356 . S
N524 H530 0.984 . S
N524 H531 0.984 . S
N525 C518 1.356 . S
N525 H528 0.984 . S
N525 H529 0.985 . S
H526 N521 0.984 . S
H527 N521 0.985 . S
H528 N525 0.984 . S
H529 N525 0.985 . S
H530 N524 0.984 . S
H531 N524 0.984 . S
H532 N520 0.984 . S
H533 N520 0.985 . S
C534 C535 1.363 . S
C534 C540 1.379 . S
C534 N542 1.356 . S
C535 C534 1.363 . S
C535 C541 1.363 . S
C536 C537 1.363 . S
C536 C541 1.379 . S
C536 N543 1.356 . S
C537 C536 1.363 . S
C537 C540 1.363 . S
N538 C540 1.356 . S
N538 H550 0.984 . S
N538 H551 0.985 . S
N539 C541 1.356 . S
N539 H544 0.984 . S
N539 H545 0.985 . S
C540 C534 1.379 . S
C540 C537 1.363 . S
C540 N538 1.356 . S
C541 C535 1.363 . S
C541 C536 1.379 . S
C541 N539 1.356 . S
N542 C534 1.356 . S
N542 H548 0.984 . S
N542 H549 0.984 . S
N543 C536 1.356 . S
N543 H546 0.984 . S
N543 H547 0.985 . S
H544 N539 0.984 . S
H545 N539 0.985 . S
H546 N543 0.984 . S
H547 N543 0.985 . S
H548 N542 0.984 . S
H549 N542 0.984 . S
H550 N538 0.984 . S
H551 N538 0.985 . S
C552 C553 1.363 . S
C552 C558 1.379 . S
C552 N560 1.356 1_556 S
C553 C552 1.363 . S
C553 C559 1.363 1_455 S
C554 C555 1.363 1_655 S
C554 C559 1.379 . S
C554 N561 1.356 . S
C555 C554 1.363 1_455 S
C555 C558 1.363 . S
N556 C558 1.356 1_554 S
N556 H568 0.984 . S
N556 H569 0.985 . S
N557 C559 1.356 . S
N557 H562 0.984 . S
N557 H563 0.985 . S
C558 C552 1.379 . S
C558 C555 1.363 . S
C558 N556 1.356 1_556 S
C559 C553 1.363 1_655 S
C559 C554 1.379 . S
C559 N557 1.356 . S
N560 C552 1.356 1_554 S
N560 H566 0.984 . S
N560 H567 0.984 1_554 S
N561 C554 1.356 . S
N561 H564 0.984 . S
N561 H565 0.985 . S
H562 N557 0.984 . S
H563 N557 0.985 . S
H564 N561 0.984 . S
H565 N561 0.985 . S
H566 N560 0.984 . S
H567 N560 0.984 1_556 S
H568 N556 0.984 . S
H569 N556 0.985 . S
C570 C571 1.363 . S
C570 C576 1.379 . S
C570 N578 1.356 . S
C571 C570 1.363 . S
C571 C577 1.363 1_545 S
C572 C573 1.363 1_565 S
C572 C577 1.379 . S
C572 N579 1.356 . S
C573 C572 1.363 1_545 S
C573 C576 1.363 . S
N574 C576 1.353 1_554 S
N574 H586 0.989 . S
N574 H587 0.984 1_554 S
N575 C577 1.356 . S
N575 H580 0.984 . S
N575 H581 0.985 . S
C576 C570 1.379 . S
C576 C573 1.363 . S
C576 N574 1.353 1_556 S
C577 C571 1.363 1_565 S
C577 C572 1.379 . S
C577 N575 1.356 . S
N578 C570 1.356 . S
N578 H584 0.984 1_556 S
N578 H585 0.984 . S
N579 C572 1.356 . S
N579 H582 0.984 . S
N579 H583 0.985 . S
H580 N575 0.984 . S
H581 N575 0.985 . S
H582 N579 0.984 . S
H583 N579 0.985 . S
H584 N578 0.984 1_554 S
H585 N578 0.984 . S
H586 N574 0.989 . S
H587 N574 0.984 1_556 S
C588 C589 1.363 . S
C588 C594 1.379 . S
C588 N596 1.356 1_556 S
C589 C588 1.363 . S
C589 C595 1.363 . S
C590 C591 1.363 . S
C590 C595 1.379 . S
C590 N597 1.356 . S
C591 C590 1.363 . S
C591 C594 1.363 . S
N592 C594 1.356 1_554 S
N592 H604 0.984 . S
N592 H605 0.985 . S
N593 C595 1.356 . S
N593 H598 0.984 . S
N593 H599 0.985 . S
C594 C588 1.379 . S
C594 C591 1.363 . S
C594 N592 1.356 1_556 S
C595 C589 1.363 . S
C595 C590 1.379 . S
C595 N593 1.356 . S
N596 C588 1.356 1_554 S
N596 H602 0.984 . S
N596 H603 0.984 1_554 S
N597 C590 1.356 . S
N597 H600 0.984 . S
N597 H601 0.985 . S
H598 N593 0.984 . S
H599 N593 0.985 . S
H600 N597 0.984 . S
H601 N597 0.985 . S
H602 N596 0.984 . S
H603 N596 0.984 1_556 S
H604 N592 0.984 . S
H605 N592 0.985 . S
C606 C607 1.363 . S
C606 C612 1.379 . S
C606 N614 1.356 . S
C607 C606 1.363 . S
C607 C613 1.363 . S
C608 C609 1.363 . S
C608 C613 1.379 . S
C608 N615 1.356 1_556 S
C609 C608 1.363 . S
C609 C612 1.363 . S
N610 C612 1.356 . S
N610 H622 0.984 . S
N610 H623 0.985 . S
N611 C613 1.356 1_554 S
N611 H616 0.984 . S
N611 H617 0.985 . S
C612 C606 1.379 . S
C612 C609 1.363 . S
C612 N610 1.356 . S
C613 C607 1.363 . S
C613 C608 1.379 . S
C613 N611 1.356 1_556 S
N614 C606 1.356 . S
N614 H620 0.984 . S
N614 H621 0.984 . S
N615 C608 1.356 1_554 S
N615 H618 0.984 . S
N615 H619 0.985 . S
H616 N611 0.984 . S
H617 N611 0.985 . S
H618 N615 0.984 . S
H619 N615 0.985 . S
H620 N614 0.984 . S
H621 N614 0.984 . S
H622 N610 0.984 . S
H623 N610 0.985 . S
C624 C625 1.363 . S
C624 C630 1.379 . S
C624 N632 1.356 . S
C625 C624 1.363 . S
C625 C631 1.363 1_655 S
C626 C627 1.363 1_455 S
C626 C631 1.379 . S
C626 N633 1.356 . S
C627 C626 1.363 1_655 S
C627 C630 1.363 . S
N628 C630 1.356 . S
N628 H640 0.984 . S
N628 H641 0.985 . S
N629 C631 1.356 . S
N629 H634 0.984 . S
N629 H635 0.985 . S
C630 C624 1.379 . S
C630 C627 1.363 . S
C630 N628 1.356 . S
C631 C625 1.363 1_455 S
C631 C626 1.379 . S
C631 N629 1.356 . S
N632 C624 1.356 . S
N632 H638 0.984 . S
N632 H639 0.984 . S
N633 C626 1.356 . S
N633 H636 0.984 . S
N633 H637 0.985 . S
H634 N629 0.984 . S
H635 N629 0.985 . S
H636 N633 0.984 . S
H637 N633 0.985 . S
H638 N632 0.984 . S
H639 N632 0.984 . S
H640 N628 0.984 . S
H641 N628 0.985 . S
C642 C643 1.363 1_545 S
C642 C648 1.379 . S
C642 N650 1.356 . S
C643 C642 1.363 1_565 S
C643 C649 1.363 . S
C644 C645 1.363 . S
C644 C649 1.379 . S
C644 N651 1.356 . S
C645 C644 1.363 . S
C645 C648 1.363 1_565 S
N646 C648 1.356 . S
N646 H658 0.984 . S
N646 H659 0.985 . S
N647 C649 1.356 . S
N647 H652 0.984 . S
N647 H653 0.985 . S
C648 C642 1.379 . S
C648 C645 1.363 1_545 S
C648 N646 1.356 . S
C649 C643 1.363 . S
C649 C644 1.379 . S
C649 N647 1.356 . S
N650 C642 1.356 . S
N650 H656 0.984 . S
N650 H657 0.984 . S
N651 C644 1.356 . S
N651 H654 0.984 . S
N651 H655 0.985 . S
H652 N647 0.984 . S
H653 N647 0.985 . S
H654 N651 0.984 . S
H655 N651 0.985 . S
H656 N650 0.984 . S
H657 N650 0.984 . S
H658 N646 0.984 . S
H659 N646 0.985 . S
C660 C661 1.363 . S
C660 C666 1.379 . S
C660 N668 1.356 . S
C661 C660 1.363 . S
C661 C667 1.363 . S
C662 C663 1.363 . S
C662 C667 1.379 . S
C662 N669 1.356 . S
C663 C662 1.363 . S
C663 C666 1.363 . S
N664 C666 1.356 . S
N664 H676 0.984 . S
N664 H677 0.985 . S
N665 C667 1.356 . S
N665 H670 0.984 . S
N665 H671 0.985 . S
C666 C660 1.379 . S
C666 C663 1.363 . S
C666 N664 1.356 . S
C667 C661 1.363 . S
C667 C662 1.379 . S
C667 N665 1.356 . S
N668 C660 1.356 . S
N668 H674 0.984 . S
N668 H675 0.984 . S
N669 C662 1.356 . S
N669 H672 0.984 . S
N669 H673 0.985 . S
H670 N665 0.984 . S
H671 N665 0.985 . S
H672 N669 0.984 . S
H673 N669 0.985 . S
H674 N668 0.984 . S
H675 N668 0.984 . S
H676 N664 0.984 . S
H677 N664 0.985 . S
C678 C679 1.363 . S
C678 C684 1.379 . S
C678 N686 1.356 . S
C679 C678 1.363 . S
C679 C685 1.363 . S
C680 C681 1.363 . S
C680 C685 1.379 . S
C680 N687 1.356 . S
C681 C680 1.363 . S
C681 C684 1.363 . S
N682 C684 1.356 . S
N682 H694 0.984 . S
N682 H695 0.985 . S
N683 C685 1.356 . S
N683 H688 0.984 . S
N683 H689 0.985 . S
C684 C678 1.379 . S
C684 C681 1.363 . S
C684 N682 1.356 . S
C685 C679 1.363 . S
C685 C680 1.379 . S
C685 N683 1.356 . S
N686 C678 1.356 . S
N686 H692 0.984 . S
N686 H693 0.984 . S
N687 C680 1.356 . S
N687 H690 0.984 . S
N687 H691 0.985 . S
H688 N683 0.984 . S
H689 N683 0.985 . S
H690 N687 0.984 . S
H691 N687 0.985 . S
H692 N686 0.984 . S
H693 N686 0.984 . S
H694 N682 0.984 . S
H695 N682 0.985 . S
C265 C82 1.749 1_565 S
C267 C113 2.186 . S
C285 C153 2.210 . S
C283 C95 1.754 . S
C303 C193 2.223 . S
C301 C56 1.770 . S
C321 C233 2.201 1_455 S
C319 C69 1.765 . S
C339 C122 2.188 1_554 S
C337 C30 1.750 . S
C355 C43 1.788 . S
C357 C162 2.212 1_554 S
C373 C4 1.806 . S
C375 C202 2.222 1_554 S
C391 C17 1.765 1_655 S
C393 C242 2.201 1_654 S
C411 C119 0.791 . S
C409 C74 0.793 1_655 S
C429 C159 0.789 . S
C427 C87 0.791 1_565 S
C447 C199 0.778 . S
C445 C100 0.781 . S
C463 C61 0.781 . S
C465 C239 0.774 . S
C481 C22 0.795 . S
C483 C110 0.794 . S
C501 C150 0.789 . S
C499 C35 0.791 . S
C519 C190 0.779 . S
C517 C48 0.780 . S
C535 C9 0.780 . S
C537 C230 0.780 . S
C553 C73 2.254 . S
C555 C123 2.566 . S
C571 C86 2.204 . S
C573 C163 2.519 . S
C591 C203 2.500 . S
C589 C99 2.185 . S
C609 C243 2.552 . S
C607 C60 2.231 . S
C625 C21 2.255 1_655 S
C627 C114 2.574 . S
C645 C154 2.519 . S
C643 C34 2.204 1_565 S
C663 C194 2.500 . S
C661 C47 2.191 . S
C679 C8 2.241 . S
C681 C234 2.556 . S
