# Generated by pormake.
# Topology zzz, (3,6)-cn, num edge types: 1
# Building blocks:
#     Node 0, Type 0, BuildingBlock: KAKCAD_clean_linker_0, # of connection points: 3
#     Node 1, Type 0, BuildingBlock: KAKCAD_clean_linker_0, # of connection points: 3
#     Node 2, Type 0, BuildingBlock: KAKCAD_clean_linker_0, # of connection points: 3
#     Node 3, Type 0, BuildingBlock: KAKCAD_clean_linker_0, # of connection points: 3
#     Node 4, Type 0, BuildingBlock: KAKCAD_clean_linker_0, # of connection points: 3
#     Node 5, Type 0, BuildingBlock: KAKCAD_clean_linker_0, # of connection points: 3
#     Node 6, Type 0, BuildingBlock: KAKCAD_clean_linker_0, # of connection points: 3
#     Node 7, Type 0, BuildingBlock: KAKCAD_clean_linker_0, # of connection points: 3
#     Node 8, Type 1, BuildingBlock: KUMBUR_clean_sbu_1, # of connection points: 6
#     Node 9, Type 1, BuildingBlock: KUMBUR_clean_sbu_1, # of connection points: 6
#     Node 10, Type 1, BuildingBlock: KUMBUR_clean_sbu_1, # of connection points: 6
#     Node 11, Type 1, BuildingBlock: KUMBUR_clean_sbu_1, # of connection points: 6
#     Edge 12, Type (0, 1), BuildingBlock: OJICUG_clean_linker_0, # of connection points: 2
#     Edge 13, Type (0, 1), BuildingBlock: OJICUG_clean_linker_0, # of connection points: 2
#     Edge 14, Type (0, 1), BuildingBlock: OJICUG_clean_linker_0, # of connection points: 2
#     Edge 15, Type (0, 1), BuildingBlock: OJICUG_clean_linker_0, # of connection points: 2
#     Edge 16, Type (0, 1), BuildingBlock: OJICUG_clean_linker_0, # of connection points: 2
#     Edge 17, Type (0, 1), BuildingBlock: OJICUG_clean_linker_0, # of connection points: 2
#     Edge 18, Type (0, 1), BuildingBlock: OJICUG_clean_linker_0, # of connection points: 2
#     Edge 19, Type (0, 1), BuildingBlock: OJICUG_clean_linker_0, # of connection points: 2
#     Edge 20, Type (0, 1), BuildingBlock: OJICUG_clean_linker_0, # of connection points: 2
#     Edge 21, Type (0, 1), BuildingBlock: OJICUG_clean_linker_0, # of connection points: 2
#     Edge 22, Type (0, 1), BuildingBlock: OJICUG_clean_linker_0, # of connection points: 2
#     Edge 23, Type (0, 1), BuildingBlock: OJICUG_clean_linker_0, # of connection points: 2
#     Edge 24, Type (0, 1), BuildingBlock: OJICUG_clean_linker_0, # of connection points: 2
#     Edge 25, Type (0, 1), BuildingBlock: OJICUG_clean_linker_0, # of connection points: 2
#     Edge 26, Type (0, 1), BuildingBlock: OJICUG_clean_linker_0, # of connection points: 2
#     Edge 27, Type (0, 1), BuildingBlock: OJICUG_clean_linker_0, # of connection points: 2
#     Edge 28, Type (0, 1), BuildingBlock: OJICUG_clean_linker_0, # of connection points: 2
#     Edge 29, Type (0, 1), BuildingBlock: OJICUG_clean_linker_0, # of connection points: 2
#     Edge 30, Type (0, 1), BuildingBlock: OJICUG_clean_linker_0, # of connection points: 2
#     Edge 31, Type (0, 1), BuildingBlock: OJICUG_clean_linker_0, # of connection points: 2
#     Edge 32, Type (0, 1), BuildingBlock: OJICUG_clean_linker_0, # of connection points: 2
#     Edge 33, Type (0, 1), BuildingBlock: OJICUG_clean_linker_0, # of connection points: 2
#     Edge 34, Type (0, 1), BuildingBlock: OJICUG_clean_linker_0, # of connection points: 2
#     Edge 35, Type (0, 1), BuildingBlock: OJICUG_clean_linker_0, # of connection points: 2
# Relax obj value: 0.352
# Max RMSD: 0.204
# Mean RMSD: 0.183
data_MOF--net-zzz--node1-KUMBUR_clean_sbu_1--node2-KAKCAD_clean_linker_0--edge1-OJICUG_clean_linker_0
_symmetry_space_group_name_H-M    P1
_symmetry_Int_Tables_number       1
_symmetry_cell_setting            triclinic
loop_
_symmetry_equiv_pos_as_xyz
'x, y, z'
_cell_length_a     44.002318
_cell_length_b     43.943958
_cell_length_c     16.213529
_cell_angle_alpha  89.676743
_cell_angle_beta   89.689709
_cell_angle_gamma 90.344637
loop_
_atom_site_label
_atom_site_type_symbol
_atom_site_fract_x
_atom_site_fract_y
_atom_site_fract_z
_atom_type_partial_charge
C0 C 0.79056 0.59817 0.96693 0.0
C1 C 0.82163 0.59225 0.97353 0.0
C2 C 0.77331 0.60313 0.03774 0.0
C3 C 0.78694 0.60184 0.11666 0.0
C4 C 0.81898 0.60435 0.11896 0.0
C5 C 0.83624 0.59885 0.04801 0.0
C6 C 0.7693 0.58945 0.19001 0.0
C7 C 0.73794 0.58374 0.18358 0.0
C8 C 0.72309 0.56134 0.23119 0.0
C9 C 0.7396 0.54718 0.29661 0.0
C10 C 0.77027 0.55621 0.31277 0.0
C11 C 0.78449 0.57686 0.25842 0.0
C12 C 0.79014 0.54362 0.38046 0.0
C13 C 0.79411 0.56009 0.45399 0.0
C14 C 0.81204 0.5214 0.36161 0.0
C15 C 0.83752 0.51658 0.41268 0.0
C16 C 0.84238 0.53402 0.48454 0.0
C17 C 0.69189 0.55198 0.20077 0.0
C18 C 0.67021 0.57463 0.18352 0.0
C19 C 0.68695 0.52316 0.16576 0.0
C20 C 0.66258 0.51794 0.11067 0.0
C21 C 0.64246 0.54156 0.08652 0.0
C22 C 0.64637 0.56973 0.12732 0.0
C23 C 0.81957 0.55527 0.5053 0.0
H24 H 0.77896 0.59473 0.90888 0.0
H25 H 0.7491 0.60407 0.02881 0.0
H26 H 0.83115 0.60706 0.17609 0.0
H27 H 0.86054 0.59584 0.05415 0.0
H28 H 0.72496 0.59482 0.13607 0.0
H29 H 0.8083 0.58146 0.26846 0.0
H30 H 0.72883 0.52969 0.33409 0.0
H31 H 0.77843 0.57812 0.46936 0.0
H32 H 0.81056 0.50913 0.30399 0.0
H33 H 0.85435 0.5003 0.39271 0.0
H34 H 0.67325 0.59728 0.20838 0.0
H35 H 0.7032 0.50515 0.17626 0.0
H36 H 0.82174 0.56896 0.56023 0.0
H37 H 0.63228 0.58905 0.11324 0.0
H38 H 0.66053 0.49538 0.08524 0.0
C39 C 0.93363 0.80496 0.98254 0.0
C40 C 0.94574 0.83458 0.98359 0.0
C41 C 0.93298 0.78736 0.05486 0.0
C42 C 0.94563 0.79871 0.12854 0.0
C43 C 0.95356 0.82978 0.13107 0.0
C44 C 0.95323 0.8475 0.05996 0.0
C45 C 0.95647 0.77778 0.19539 0.0
C46 C 0.96576 0.74815 0.17605 0.0
C47 C 0.98315 0.73056 0.23052 0.0
C48 C 0.99311 0.74416 0.30571 0.0
C49 C 0.98281 0.77386 0.32769 0.0
C50 C 0.96311 0.7891 0.27408 0.0
C51 C 0.99411 0.79251 0.39914 0.0
C52 C 0.97476 0.79848 0.46663 0.0
C53 C 0.01895 0.81236 0.38659 0.0
C54 C 0.02342 0.83813 0.4368 0.0
C55 C 1.00322 0.84516 0.50214 0.0
C56 C 0.99091 0.69899 0.20091 0.0
C57 C 0.96701 0.6792 0.17861 0.0
C58 C 0.0203 0.69172 0.17303 0.0
C59 C 0.02523 0.66651 0.12063 0.0
C60 C 1.00085 0.64793 0.09308 0.0
C61 C 0.9718 0.65434 0.1258 0.0
C62 C 0.97942 0.82404 0.51773 0.0
H63 H 0.92698 0.79461 0.92486 0.0
H64 H 0.92487 0.76413 0.05091 0.0
H65 H 0.9634 0.84008 0.18514 0.0
H66 H 0.9627 0.87025 0.06378 0.0
H67 H 0.96115 0.73892 0.11563 0.0
H68 H 0.95487 0.81129 0.29201 0.0
H69 H 1.0083 0.73192 0.34617 0.0
H70 H 0.9548 0.78438 0.4768 0.0
H71 H 0.0336 0.80937 0.33337 0.0
H72 H 0.04178 0.85351 0.42043 0.0
H73 H 0.94394 0.68436 0.19728 0.0
H74 H 0.03921 0.70665 0.18723 0.0
H75 H 0.96357 0.82768 0.56789 0.0
H76 H 0.95208 0.6414 0.10687 0.0
H77 H 0.0482 0.66232 0.09971 0.0
C78 C 0.71908 0.9291 0.11337 0.0
C79 C 0.72595 0.94669 0.04281 0.0
C80 C 0.74079 0.92579 0.17536 0.0
C81 C 0.76924 0.94032 0.16695 0.0
C82 C 0.77809 0.95036 0.08752 0.0
C83 C 0.75653 0.95354 0.02583 0.0
C84 C 0.7843 0.95436 0.23993 0.0
C85 C 0.81448 0.96421 0.23326 0.0
C86 C 0.82472 0.99004 0.27522 0.0
C87 C 0.80539 1.00334 0.3362 0.0
C88 C 0.77642 0.98993 0.35427 0.0
C89 C 0.76628 0.96598 0.30421 0.0
C90 C 0.75426 1.0006 0.41942 0.0
C91 C 0.74316 0.97926 0.47764 0.0
C92 C 0.73844 0.02828 0.41169 0.0
C93 C 0.71146 0.0336 0.45764 0.0
C94 C 0.6993 1.0112 0.51166 0.0
C95 C 0.85301 1.00429 0.23948 0.0
C96 C 0.88102 0.98911 0.24655 0.0
C97 C 0.84997 0.02543 0.17462 0.0
C98 C 0.87324 0.02971 0.11554 0.0
C99 C 0.90068 1.01314 0.11923 0.0
C100 C 0.90453 0.99367 0.18808 0.0
C101 C 0.71629 0.98441 0.52267 0.0
H102 H 0.69595 0.9218 0.12595 0.0
H103 H 0.73381 0.9158 0.23371 0.0
H104 H 0.80008 0.96067 0.07582 0.0
H105 H 0.76315 0.96608 0.97089 0.0
H106 H 0.82898 0.95437 0.18624 0.0
H107 H 0.74295 0.95837 0.31139 0.0
H108 H 0.81272 0.02352 0.3687 0.0
H109 H 0.75436 0.95751 0.48455 0.0
H110 H 0.74571 0.04492 0.36609 0.0
H111 H 0.69913 0.05449 0.44696 0.0
H112 H 0.88392 0.97195 0.29406 0.0
H113 H 0.82837 0.03658 0.16495 0.0
H114 H 0.70819 0.96675 0.56431 0.0
H115 H 0.92529 0.9809 0.1955 0.0
H116 H 0.86861 0.04461 0.06386 0.0
C117 C 0.50636 0.70635 0.43527 0.0
C118 C 0.52873 0.69688 0.49207 0.0
C119 C 0.51001 0.73317 0.38773 0.0
C120 C 0.53601 0.75174 0.39552 0.0
C121 C 0.55755 0.74328 0.4554 0.0
C122 C 0.55388 0.71652 0.50329 0.0
C123 C 0.54543 0.77242 0.32534 0.0
C124 C 0.5371 0.8037 0.31592 0.0
C125 C 0.54791 0.82084 0.24631 0.0
C126 C 0.56635 0.80622 0.18826 0.0
C127 C 0.57121 0.77482 0.19123 0.0
C128 C 0.56189 0.75853 0.26166 0.0
C129 C 0.57891 0.75828 0.11396 0.0
C130 C 0.56657 0.76862 0.03905 0.0
C131 C 0.59248 0.72937 0.11592 0.0
C132 C 0.58911 0.70956 0.04921 0.0
C133 C 0.57211 0.71845 0.97987 0.0
C134 C 0.53863 0.85272 0.22276 0.0
C135 C 0.50953 0.85814 0.18978 0.0
C136 C 0.5616 0.87442 0.20532 0.0
C137 C 0.55657 0.89888 0.1507 0.0
C138 C 0.52818 0.903 0.11289 0.0
C139 C 0.50431 0.88309 0.13611 0.0
C140 C 0.56337 0.74904 0.97287 0.0
H141 H 0.48636 0.69243 0.42517 0.0
H142 H 0.49342 0.73827 0.34056 0.0
H143 H 0.57841 0.75629 0.46111 0.0
H144 H 0.57186 0.71027 0.54532 0.0
H145 H 0.52264 0.81437 0.36144 0.0
H146 H 0.5655 0.73417 0.26499 0.0
H147 H 0.57456 0.81903 0.13521 0.0
H148 H 0.5558 0.7906 0.03373 0.0
H149 H 0.60335 0.72107 0.17135 0.0
H150 H 0.59732 0.68648 0.05527 0.0
H151 H 0.49152 0.84157 0.19939 0.0
H152 H 0.58445 0.87076 0.22774 0.0
H153 H 0.55035 0.75717 0.92087 0.0
H154 H 0.48219 0.88545 0.10789 0.0
H155 H 0.57545 0.91373 0.13458 0.0
C156 C 0.24272 0.46477 0.42057 0.0
C157 C 0.21254 0.45483 0.41161 0.0
C158 C 0.26279 0.46355 0.35425 0.0
C159 C 0.25327 0.45201 0.27765 0.0
C160 C 0.22509 0.43683 0.27392 0.0
C161 C 0.20488 0.43811 0.34074 0.0
C162 C 0.26939 0.46235 0.2013 0.0
C163 C 0.30056 0.46859 0.20433 0.0
C164 C 0.31419 0.48972 0.15071 0.0
C165 C 0.29664 0.50176 0.0842 0.0
C166 C 0.26577 0.49219 0.07349 0.0
C167 C 0.25263 0.47303 0.1336 0.0
C168 C 0.24489 0.50302 1.00596 0.0
C169 C 0.22433 0.52685 1.02103 0.0
C170 C 0.23928 0.4844 0.9372 0.0
C171 C 0.21353 0.4888 0.88682 0.0
C172 C 0.19208 0.51181 0.90384 0.0
C173 C 0.34454 0.50155 0.17899 0.0
C174 C 0.34496 0.52498 0.23776 0.0
C175 C 0.37052 0.48305 0.17328 0.0
C176 C 0.39539 0.48693 0.2272 0.0
C177 C 0.3949 0.50898 0.29053 0.0
C178 C 0.36947 0.52855 0.29256 0.0
C179 C 0.19855 0.5313 0.97073 0.0
H180 H 0.24983 0.47748 0.47419 0.0
H181 H 0.28429 0.47534 0.36091 0.0
H182 H 0.21749 0.42657 0.21702 0.0
H183 H 0.18213 0.42905 0.33322 0.0
H184 H 0.31375 0.45967 0.25529 0.0
H185 H 0.22845 0.46834 0.13029 0.0
H186 H 0.30657 0.5185 0.0427 0.0
H187 H 0.22716 0.54094 0.07507 0.0
H188 H 0.25397 0.46524 0.92499 0.0
H189 H 0.21007 0.47349 0.83563 0.0
H190 H 0.32494 0.53885 0.24663 0.0
H191 H 0.37073 0.46413 0.13074 0.0
H192 H 0.18278 0.54904 0.98753 0.0
H193 H 0.36723 0.54555 0.3401 0.0
H194 H 0.41448 0.47171 0.22083 0.0
C195 C 0.07035 0.24703 0.43689 0.0
C196 C 0.08055 0.21692 0.43069 0.0
C197 C 0.07216 0.26649 0.36931 0.0
C198 C 0.08463 0.25651 0.2941 0.0
C199 C 0.09946 0.22828 0.29239 0.0
C200 C 0.09763 0.20868 0.36058 0.0
C201 C 0.07662 0.27295 0.21684 0.0
C202 C 0.07262 0.30443 0.21903 0.0
C203 C 0.05492 0.31965 0.16057 0.0
C204 C 0.04372 0.30277 0.09162 0.0
C205 C 0.05086 0.27112 0.08337 0.0
C206 C 0.06675 0.25678 0.14747 0.0
C207 C 0.04111 0.25082 1.01328 0.0
C208 C 0.01569 0.23142 1.02288 0.0
C209 C 0.06178 0.24399 0.94939 0.0
C210 C 0.05775 0.21817 0.8988 0.0
C211 C 0.03304 0.19784 0.91071 0.0
C212 C 0.04661 0.35183 0.1836 0.0
C213 C 0.01725 0.35839 0.21303 0.0
C214 C 0.07005 0.37247 0.20401 0.0
C215 C 0.06508 0.39681 0.25863 0.0
C216 C 0.03621 0.40205 0.29431 0.0
C217 C 1.01207 0.38319 0.26653 0.0
C218 C 1.01161 0.2056 0.97235 0.0
H219 H 0.05722 0.25453 0.48955 0.0
H220 H 0.06043 0.28799 0.37397 0.0
H221 H 0.11023 0.22033 0.23637 0.0
H222 H 0.10679 0.18595 0.355 0.0
H223 H 0.08102 0.31689 0.27186 0.0
H224 H 0.06975 0.23232 0.1452 0.0
H225 H 0.02982 0.31392 0.04575 0.0
H226 H 0.9999 0.23513 0.07327 0.0
H227 H 0.08214 0.25771 0.94161 0.0
H228 H 0.07464 0.21373 0.85169 0.0
H229 H 0.99866 0.34288 0.20022 0.0
H230 H 0.09312 0.36796 0.18406 0.0
H231 H 0.99245 0.19073 0.98522 0.0
H232 H 0.98912 0.38658 0.28858 0.0
H233 H 0.08468 0.41005 0.27678 0.0
C234 C 0.28907 0.10328 0.36746 0.0
C235 C 0.31901 0.10598 0.33808 0.0
C236 C 0.26503 0.10762 0.31318 0.0
C237 C 0.27115 0.1152 0.23 0.0
C238 C 0.29991 0.1279 0.21157 0.0
C239 C 0.3242 0.12233 0.26468 0.0
C240 C 0.25396 0.09867 0.16428 0.0
C241 C 0.22424 0.08836 0.1794 0.0
C242 C 0.21274 0.0622 0.141 0.0
C243 C 0.2306 0.04786 0.07857 0.0
C244 C 0.25913 0.06077 0.05428 0.0
C245 C 0.27016 0.08588 0.09813 0.0
C246 C 0.28037 0.04839 0.98935 0.0
C247 C 0.2974 0.02181 1.00358 0.0
C248 C 0.29037 0.06808 0.92566 0.0
C249 C 0.31754 0.06274 0.88209 0.0
C250 C 0.33573 0.03729 0.89979 0.0
C251 C 0.18441 0.049 0.17947 0.0
C252 C 0.1871 0.0266 0.24123 0.0
C253 C 0.15688 0.06517 0.17539 0.0
C254 C 0.13338 0.0601 0.23355 0.0
C255 C 0.13676 0.03903 0.29901 0.0
C256 C 0.16379 0.02173 0.29993 0.0
C257 C 0.32455 0.01618 0.95886 0.0
H258 H 0.28446 0.09229 0.42626 0.0
H259 H 0.24293 0.09958 0.3333 0.0
H260 H 0.30491 0.13682 0.15057 0.0
H261 H 0.3471 0.12623 0.24197 0.0
H262 H 0.211 0.09873 0.22819 0.0
H263 H 0.29312 0.09345 0.08463 0.0
H264 H 0.22247 0.02723 0.04964 0.0
H265 H 0.29103 1.00656 0.05354 0.0
H266 H 0.2783 0.08907 0.91388 0.0
H267 H 0.32498 0.07934 0.83653 0.0
H268 H 0.20834 1.01456 0.24841 0.0
H269 H 0.15428 0.08318 0.13011 0.0
H270 H 0.33785 0.99635 0.97459 0.0
H271 H 0.16799 1.00559 0.34912 0.0
H272 H 0.11294 0.07354 0.22849 0.0
C273 C 0.48425 0.32433 0.88434 0.0
C274 C 0.5076 0.3458 0.89988 0.0
C275 C 0.48025 0.29819 0.9345 0.0
C276 C 0.49985 0.292 1.00088 0.0
C277 C 0.52426 0.31226 1.01339 0.0
C278 C 0.52805 0.33862 0.96414 0.0
C279 C 0.48941 0.27176 0.07093 0.0
C280 C 0.50315 0.24362 0.09408 0.0
C281 C 0.49443 0.22887 0.16933 0.0
C282 C 0.47402 0.24368 0.22207 0.0
C283 C 0.4616 0.27214 0.20225 0.0
C284 C 0.46747 0.28436 0.12348 0.0
C285 C 0.44925 0.29184 0.2697 0.0
C286 C 0.43816 0.27914 0.34431 0.0
C287 C 0.45511 0.32338 0.26742 0.0
C288 C 0.45492 0.34035 0.33943 0.0
C289 C 0.44948 0.32625 0.41615 0.0
C290 C 0.50806 0.20009 0.20336 0.0
C291 C 0.49469 0.17151 0.18677 0.0
C292 C 0.52704 0.20223 0.27285 0.0
C293 C 0.53066 0.1775 0.32736 0.0
C294 C 0.51575 0.14951 0.31399 0.0
C295 C 0.49878 0.14645 0.24084 0.0
C296 C 0.4389 0.29604 0.41732 0.0
H297 H 0.46827 0.32807 0.83488 0.0
H298 H 0.46066 0.28367 0.92431 0.0
H299 H 0.53911 0.30901 0.06575 0.0
H300 H 0.54611 0.35425 0.9803 0.0
H301 H 0.52064 0.2338 0.05546 0.0
H302 H 0.45706 0.30565 0.10544 0.0
H303 H 0.46991 0.23367 0.28228 0.0
H304 H 0.43155 0.25542 0.34824 0.0
H305 H 0.46349 0.33474 0.21249 0.0
H306 H 0.46302 0.36364 0.3354 0.0
H307 H 0.47916 0.16919 0.13555 0.0
H308 H 0.53699 0.22398 0.28909 0.0
H309 H 0.43367 0.28476 0.47529 0.0
H310 H 0.48681 0.12537 0.22853 0.0
H311 H 0.54403 0.18078 0.38255 0.0
Tb312 Tb 0.98166 0.03066 0.64129 0.0
C313 C 0.11017 0.0524 0.80711 0.0
N314 N 0.101 0.03235 0.74864 0.0
C315 C 0.14808 0.03979 0.67542 0.0
C316 C 0.13859 0.06728 0.80145 0.0
C317 C 0.11978 0.02544 0.68405 0.0
C318 C 0.1575 0.06091 0.73417 0.0
C319 C 0.09933 0.07882 0.93474 0.0
C320 C 0.0908 0.05814 0.87268 0.0
C321 C 0.12764 0.09366 0.9296 0.0
C322 C 0.1472 0.08794 0.86303 0.0
Tb323 Tb 0.05435 1.01018 0.76986 0.0
N324 N 0.06318 0.04406 0.87409 0.0
C325 C 0.07906 0.08405 0.99979 0.0
C326 C 0.04391 0.04818 0.93929 0.0
C327 C 0.05132 0.0685 1.0023 0.0
H328 H 0.1135 1.00816 0.64034 0.0
H329 H 0.03575 0.07188 0.0533 0.0
H330 H 0.92402 0.01761 0.77116 0.0
H331 H 1.0104 0.98199 0.34427 0.0
H332 H 0.0231 0.03551 0.94441 0.0
H333 H 0.08474 0.09975 0.04874 0.0
H334 H 0.01578 0.01779 0.45827 0.0
H335 H 0.16278 0.03427 0.62396 0.0
H336 H 0.13458 0.10963 0.97665 0.0
H337 H 0.16896 0.09958 0.8598 0.0
H338 H 0.87966 0.98339 0.77918 0.0
H339 H 0.1795 0.07188 0.72751 0.0
H340 H 0.9679 0.94495 0.34415 0.0
N341 N 0.94008 0.99983 0.65718 0.0
C342 C 0.93437 0.98065 0.59348 0.0
C343 C 0.89502 0.9822 0.72693 0.0
C344 C 0.90895 0.96096 0.59498 0.0
C345 C 0.92054 1.00127 0.72279 0.0
C346 C 0.88924 0.96188 0.66293 0.0
N347 N 0.97946 0.99893 0.52952 0.0
C348 C 0.99855 1.00053 0.4629 0.0
C349 C 0.95003 0.95984 0.46175 0.0
C350 C 0.95481 0.98001 0.52791 0.0
C351 C 0.97076 0.96008 0.39612 0.0
C352 C 0.99492 0.98077 0.39632 0.0
H353 H 0.86945 0.94711 0.66642 0.0
H354 H 0.88483 0.92547 0.52945 0.0
H355 H 0.92072 0.92457 0.41268 0.0
O356 O 0.97078 0.05652 0.53653 0.0
O357 O 0.98861 0.98206 0.67664 0.0
O358 O 0.04019 0.97746 0.67463 0.0
O359 O 0.94143 0.05652 0.64249 0.0
O360 O 0.02662 0.04431 0.58756 0.0
O361 O 0.05824 1.00696 0.63544 0.0
O362 O 0.05454 0.98096 0.87232 0.0
O363 O 0.04817 0.05986 0.74995 0.0
O364 O 0.99709 0.06742 0.72442 0.0
O365 O 0.09166 0.98082 0.78557 0.0
O366 O 1.00893 1.00088 0.82722 0.0
O367 O 0.97656 0.03689 0.77418 0.0
C368 C 0.01304 0.96555 0.66336 0.0
C369 C 0.95314 0.10369 0.58301 0.0
C370 C 0.98745 0.14745 0.58237 0.0
C371 C 0.96352 0.16589 0.60995 0.0
C372 C 0.92933 0.1223 0.60978 0.0
C373 C 0.93463 0.15327 0.62385 0.0
C374 C 0.98218 0.11637 0.57146 0.0
C375 C 0.05196 0.02841 0.58151 0.0
C376 C 0.94903 0.07062 0.57498 0.0
C377 C 0.90421 0.9408 0.52933 0.0
C378 C 0.9247 0.94024 0.46292 0.0
C379 C 0.02392 0.07742 0.74892 0.0
C380 C 0.07442 0.93351 0.83512 0.0
C381 C 0.04007 0.88981 0.8203 0.0
C382 C 0.06565 0.87055 0.82476 0.0
C383 C 0.09933 0.91401 0.83941 0.0
C384 C 0.04529 0.92141 0.82126 0.0
C385 C 0.09496 0.88266 0.83266 0.0
C386 C 0.98446 0.0181 0.8334 0.0
C387 C 0.07843 0.96647 0.84607 0.0
H388 H 0.96682 0.19013 0.61802 0.0
H389 H 0.90689 0.11282 0.62093 0.0
H390 H 0.91622 0.16761 0.64457 0.0
H391 H 1.00102 0.10206 0.55332 0.0
H392 H 0.06333 0.84607 0.8262 0.0
H393 H 0.12203 0.92299 0.84868 0.0
H394 H 0.02659 0.93695 0.81429 0.0
H395 H 0.11425 0.86756 0.83677 0.0
Tb396 Tb 0.52856 0.0582 0.78062 0.0
C397 C 0.53256 0.9242 0.61052 0.0
N398 N 0.53398 0.95222 0.57511 0.0
C399 C 0.56669 0.93316 0.4686 0.0
C400 C 0.54881 0.89954 0.57732 0.0
C401 C 0.55006 0.9569 0.50372 0.0
C402 C 0.56634 0.90444 0.50608 0.0
C403 C 0.50975 0.89079 0.71316 0.0
C404 C 0.51313 0.91989 0.67701 0.0
C405 C 0.52689 0.86637 0.68272 0.0
C406 C 0.54632 0.87072 0.6148 0.0
Tb407 Tb 0.5075 0.9896 0.64025 0.0
N408 N 0.49655 0.94394 0.70372 0.0
C409 C 0.48876 0.88694 0.7775 0.0
C410 C 0.47504 0.93989 0.76418 0.0
C411 C 0.47114 0.91154 0.80254 0.0
H412 H 0.55025 0.97912 0.47462 0.0
H413 H 0.45463 0.90875 0.85178 0.0
H414 H 0.48422 0.06753 0.94305 0.0
H415 H 0.58631 0.13967 0.58056 0.0
H416 H 0.4616 0.95855 0.78602 0.0
H417 H 0.48558 0.86499 0.8072 0.0
H418 H 0.5752 0.08901 0.63626 0.0
H419 H 0.57974 0.93703 0.41271 0.0
H420 H 0.52474 0.8439 0.71006 0.0
H421 H 0.5588 0.85152 0.59066 0.0
H422 H 0.45667 0.10995 1.00978 0.0
H423 H 0.57911 0.88606 0.47853 0.0
H424 H 0.55876 0.18446 0.63323 0.0
N425 N 0.50325 0.09558 0.84865 0.0
C426 C 0.50674 0.12419 0.81797 0.0
C427 C 0.47057 0.11422 0.95563 0.0
C428 C 0.49181 0.14906 0.85434 0.0
C429 C 0.48609 0.09031 0.91777 0.0
C430 C 0.47323 0.1437 0.92338 0.0
N431 N 0.5418 0.10418 0.72246 0.0
C432 C 0.5634 0.10805 0.66216 0.0
C433 C 0.53241 0.15826 0.72205 0.0
C434 C 0.52686 0.12868 0.75305 0.0
C435 C 0.5539 0.16213 0.65892 0.0
C436 C 0.5696 0.13693 0.62933 0.0
H437 H 0.4614 0.16222 0.95321 0.0
H438 H 0.48516 0.19789 0.84885 0.0
H439 H 0.52062 0.20592 0.73269 0.0
O440 O 0.56141 0.03441 0.84608 0.0
O441 O 0.51018 0.06923 0.65803 0.0
O442 O 0.52448 0.03027 0.57259 0.0
O443 O 0.55052 0.08116 0.87734 0.0
O444 O 0.56796 0.0426 0.70547 0.0
O445 O 0.55587 1.00084 0.624 0.0
O446 O 0.47131 1.01038 0.57836 0.0
O447 O 0.52701 0.98016 0.7628 0.0
O448 O 0.50965 0.01801 0.84665 0.0
O449 O 0.48753 0.96487 0.54346 0.0
O450 O 0.46811 1.00517 0.7154 0.0
O451 O 0.47944 0.04896 0.79001 0.0
C452 C 0.51679 0.05892 0.58408 0.0
C453 C 0.6011 0.06402 0.89585 0.0
C454 C 0.65079 0.0427 0.92207 0.0
C455 C 0.66452 0.0698 0.89419 0.0
C456 C 0.61474 0.09125 0.86835 0.0
C457 C 0.64645 0.09414 0.86833 0.0
C458 C 0.61921 0.04022 0.92392 0.0
C459 C 0.57564 0.0205 0.65429 0.0
C460 C 0.56845 0.05812 0.89056 0.0
C461 C 0.49655 0.17847 0.8221 0.0
C462 C 0.51679 0.18305 0.75603 0.0
C463 C 0.5179 0.98952 0.83571 0.0
C464 C 0.44658 0.98612 0.46184 0.0
C465 C 0.40554 1.01026 0.38684 0.0
C466 C 0.40429 0.98521 0.33339 0.0
C467 C 0.44529 0.96125 0.40788 0.0
C468 C 0.42682 1.01064 0.45053 0.0
C469 C 0.42422 0.96089 0.34379 0.0
C470 C 0.45997 0.02845 0.76213 0.0
C471 C 0.46918 0.98731 0.52784 0.0
H472 H 0.68904 0.07217 0.89324 0.0
H473 H 0.60108 0.10994 0.84589 0.0
H474 H 0.65702 0.11511 0.84726 0.0
H475 H 0.60865 0.01909 0.94462 0.0
H476 H 0.38799 0.98452 0.28358 0.0
H477 H 0.46062 0.94222 0.41487 0.0
H478 H 0.42758 0.02986 0.49214 0.0
H479 H 0.42331 0.94172 0.30222 0.0
Tb480 Tb 0.55312 0.5079 0.6139 0.0
C481 C 0.44332 0.48101 0.83364 0.0
N482 N 0.44667 0.49649 0.76134 0.0
C483 C 0.40265 0.47128 0.70701 0.0
C484 C 0.42016 0.459 0.84416 0.0
C485 C 0.42603 0.49284 0.69947 0.0
C486 C 0.39987 0.45405 0.77933 0.0
C487 C 0.46088 0.47144 0.97259 0.0
C488 C 0.46345 0.48723 0.89681 0.0
C489 C 0.43842 0.44882 0.98267 0.0
C490 C 0.41805 0.44268 0.91869 0.0
Tb491 Tb 0.4845 0.53223 0.75683 0.0
N492 N 0.4846 0.50964 0.88517 0.0
C493 C 0.48035 0.47948 0.03681 0.0
C494 C 0.50178 0.51917 0.95021 0.0
C495 C 0.50055 0.50378 0.02594 0.0
H496 H 0.42721 0.50671 0.64454 0.0
H497 H 0.51468 0.51117 0.07656 0.0
H498 H 0.61613 0.50995 0.72903 0.0
H499 H 0.53375 0.55726 0.31355 0.0
H500 H 0.51563 0.53932 0.94574 0.0
H501 H 0.47913 0.4679 0.09594 0.0
H502 H 0.52537 0.52093 0.42866 0.0
H503 H 0.38662 0.46818 0.65732 0.0
H504 H 0.43623 0.43639 0.04032 0.0
H505 H 0.40057 0.42549 0.92773 0.0
H506 H 0.66012 0.54393 0.74747 0.0
H507 H 0.38175 0.43736 0.78495 0.0
H508 H 0.57468 0.59603 0.32249 0.0
N509 N 0.59709 0.53587 0.631 0.0
C510 C 0.60279 0.55794 0.57395 0.0
C511 C 0.64384 0.54856 0.69927 0.0
C512 C 0.62842 0.57722 0.57946 0.0
C513 C 0.61831 0.52976 0.69004 0.0
C514 C 0.6486 0.57283 0.64471 0.0
N515 N 0.5605 0.53965 0.50278 0.0
C516 C 0.54324 0.53778 0.43301 0.0
C517 C 0.58979 0.58071 0.44258 0.0
C518 C 0.58407 0.55957 0.50649 0.0
C519 C 0.57106 0.58018 0.37307 0.0
C520 C 0.54795 0.55831 0.36778 0.0
H521 H 0.6686 0.5871 0.65125 0.0
H522 H 0.65307 0.61457 0.52142 0.0
H523 H 0.61905 0.61771 0.40142 0.0
O524 O 0.54958 0.47507 0.52177 0.0
O525 O 0.53122 0.55223 0.59272 0.0
O526 O 0.51759 0.56838 0.72088 0.0
O527 O 0.59108 0.47994 0.58893 0.0
O528 O 0.50651 0.49586 0.57151 0.0
O529 O 0.47619 0.53395 0.62311 0.0
O530 O 0.45999 0.55672 0.84578 0.0
O531 O 0.49049 0.48327 0.72536 0.0
O532 O 0.54183 0.47804 0.71897 0.0
O533 O 0.45012 0.56176 0.71696 0.0
O534 O 0.53004 0.5445 0.80611 0.0
O535 O 0.5623 0.5089 0.74886 0.0
C536 C 0.52593 0.57445 0.64433 0.0
C537 C 0.57383 0.42998 0.56042 0.0
C538 C 0.54208 0.38445 0.58051 0.0
C539 C 0.56872 0.36668 0.5755 0.0
C540 C 0.59978 0.4119 0.55516 0.0
C541 C 0.59727 0.38042 0.56504 0.0
C542 C 0.54563 0.41629 0.57913 0.0
C543 C 0.48265 0.51393 0.56546 0.0
C544 C 0.57538 0.4627 0.54017 0.0
C545 C 0.63367 0.59934 0.51792 0.0
C546 C 0.61436 0.60108 0.44949 0.0
C547 C 0.51498 0.46683 0.73797 0.0
C548 C 0.44837 0.60553 0.79663 0.0
C549 C 0.47979 0.6502 0.82203 0.0
C550 C 0.4557 0.66885 0.79653 0.0
C551 C 0.42445 0.62429 0.77174 0.0
C552 C 0.47596 0.61857 0.82156 0.0
C553 C 0.42816 0.65589 0.77175 0.0
C554 C 0.55555 0.52864 0.80756 0.0
C555 C 0.44555 0.57243 0.79045 0.0
H556 H 0.56782 0.34212 0.57516 0.0
H557 H 0.62178 0.42203 0.54192 0.0
H558 H 0.61735 0.36642 0.56017 0.0
H559 H 0.52615 0.43074 0.58792 0.0
H560 H 0.45792 0.6934 0.79742 0.0
H561 H 0.40313 0.6145 0.75143 0.0
H562 H 0.49464 0.60408 0.83982 0.0
H563 H 0.40965 0.67037 0.75258 0.0
Tb564 Tb 0.02535 0.55852 0.62758 0.0
C565 C 0.0514 0.43493 0.8127 0.0
N566 N 0.03001 0.44134 0.75516 0.0
C567 C 0.03835 0.39277 0.69192 0.0
C568 C 0.06753 0.4073 0.81125 0.0
C569 C 0.02292 0.42045 0.69606 0.0
C570 C 0.06089 0.38622 0.74947 0.0
C571 C 0.07931 0.45062 0.93388 0.0
C572 C 0.0572 0.45629 0.87308 0.0
C573 C 0.09555 0.42321 0.93258 0.0
C574 C 0.08968 0.4016 0.87139 0.0
Tb575 Tb 1.0067 0.48761 0.76686 0.0
N576 N 0.04167 0.48298 0.87077 0.0
C577 C 0.08452 0.47275 0.99387 0.0
C578 C 0.04563 0.50388 0.93186 0.0
C579 C 0.06739 0.49935 0.99326 0.0
H580 H 1.00459 0.42456 0.65392 0.0
H581 H 0.07069 0.51628 0.04066 0.0
H582 H 0.01992 0.62105 0.74172 0.0
H583 H 0.96752 0.52453 0.34795 0.0
H584 H 0.03186 0.52384 0.93513 0.0
H585 H 0.10136 0.46933 0.04148 0.0
H586 H 1.00638 0.52113 0.45486 0.0
H587 H 0.03258 0.37636 0.64489 0.0
H588 H 0.11268 0.4185 0.9786 0.0
H589 H 0.10234 0.38053 0.87121 0.0
H590 H 0.98739 0.66627 0.74866 0.0
H591 H 0.07275 0.36471 0.74626 0.0
H592 H 0.93174 0.5677 0.34694 0.0
N593 N 0.9973 0.60202 0.63847 0.0
C594 C 0.97606 0.60647 0.57916 0.0
C595 C 0.98373 0.64947 0.70112 0.0
C596 C 0.95723 0.63234 0.57973 0.0
C597 C 1.00181 0.62343 0.69798 0.0
C598 C 0.96119 0.65386 0.64207 0.0
N599 N 0.99108 0.55975 0.52119 0.0
C600 C 0.99006 0.53899 0.4589 0.0
C601 C 0.95083 0.58822 0.45627 0.0
C602 C 0.97288 0.58467 0.51841 0.0
C603 C 0.94845 0.56589 0.39556 0.0
C604 C 0.96842 0.54137 0.39635 0.0
H605 H 0.94722 0.67405 0.64464 0.0
H606 H 0.92036 0.65551 0.51795 0.0
H607 H 0.91474 0.61685 0.40982 0.0
O608 O 0.05113 0.5637 0.5193 0.0
O609 O 0.97706 0.55063 0.6645 0.0
O610 O 0.9729 0.49886 0.67117 0.0
O611 O 0.05249 0.59794 0.61295 0.0
O612 O 0.03826 0.5128 0.57928 0.0
O613 O 1.00256 0.47985 0.63351 0.0
O614 O 0.97606 0.49009 0.866 0.0
O615 O 0.05564 0.49484 0.73843 0.0
O616 O 0.0614 0.54633 0.71665 0.0
O617 O 0.98044 0.44885 0.79685 0.0
O618 O 0.99695 0.53364 0.81897 0.0
O619 O 0.0313 0.56697 0.75948 0.0
C620 C 0.96078 0.52559 0.65554 0.0
C621 C 0.09919 0.58216 0.55817 0.0
C622 C 0.14241 0.54756 0.55834 0.0
C623 C 0.16072 0.57085 0.59087 0.0
C624 C 0.11783 0.60531 0.58963 0.0
C625 C 0.14841 0.59955 0.60642 0.0
C626 C 0.11166 0.55331 0.54382 0.0
C627 C 0.02269 0.48696 0.57599 0.0
C628 C 0.0662 0.58667 0.54913 0.0
C629 C 0.9351 0.63585 0.51838 0.0
C630 C 0.9319 0.61384 0.4568 0.0
C631 C 0.07247 0.51974 0.73936 0.0
C632 C 0.93082 0.46484 0.82846 0.0
C633 C 0.88424 0.49457 0.81791 0.0
C634 C 0.87125 0.47136 0.76994 0.0
C635 C 0.91721 0.44163 0.78189 0.0
C636 C 0.91383 0.49077 0.84799 0.0
C637 C 0.88756 0.44493 0.75301 0.0
C638 C 1.0127 0.55944 0.82006 0.0
C639 C 0.96357 0.46401 0.84784 0.0
H640 H 0.18469 0.56722 0.60177 0.0
H641 H 0.1086 0.62758 0.60271 0.0
H642 H 0.16268 0.61745 0.63097 0.0
H643 H 0.09742 0.53496 0.52152 0.0
H644 H 0.84854 0.47361 0.74536 0.0
H645 H 0.92974 0.42134 0.76586 0.0
H646 H 0.92382 0.50822 0.88644 0.0
H647 H 0.87736 0.42715 0.71625 0.0
C648 C 0.09555 0.06118 0.39404 0.0
C649 C 0.1133 0.03615 0.36811 0.0
H650 H 0.06242 0.07859 0.48019 0.0
C651 C 0.10922 1.0085 0.41158 0.0
H652 H 0.09792 0.08308 0.36376 0.0
C653 C 0.08924 1.00621 0.47936 0.0
C654 C 0.07219 0.03135 0.50641 0.0
H655 H 0.12146 0.98832 0.39339 0.0
H656 H 0.08713 0.98448 0.51081 0.0
C657 C 0.07519 0.05875 0.46162 0.0
C658 C 0.5227 0.09464 0.3657 0.0
C659 C 0.51536 0.12536 0.38084 0.0
H660 H 0.52956 0.04973 0.41697 0.0
C661 C 0.5074 0.1333 0.46204 0.0
H662 H 0.52879 0.08758 0.30394 0.0
C663 C 0.50704 0.1116 0.526 0.0
C664 C 0.51559 0.08113 0.51239 0.0
H665 H 0.50108 0.15649 0.47622 0.0
H666 H 0.50029 0.11904 0.58687 0.0
C667 C 0.52314 0.07291 0.4307 0.0
C668 C 0.43654 0.48463 0.38034 0.0
C669 C 0.41944 0.5105 0.35687 0.0
H670 H 0.46983 0.46528 0.46248 0.0
C671 C 0.42509 0.53762 0.40088 0.0
H672 H 0.43306 0.46304 0.35007 0.0
C673 C 0.44565 0.53852 0.4671 0.0
C674 C 0.46211 0.5126 0.49131 0.0
H675 H 0.41359 0.55848 0.38471 0.0
H676 H 0.44869 0.55981 0.49951 0.0
C677 C 0.4577 0.48576 0.44576 0.0
C678 C 1.00779 0.42247 0.42121 0.0
C679 C 0.03194 0.42526 0.36366 0.0
H680 H 0.98524 0.43974 0.5285 0.0
C681 C 0.05259 0.44971 0.37629 0.0
H682 H 0.99133 0.40423 0.41656 0.0
C683 C 0.04976 0.46954 0.44434 0.0
C684 C 0.02594 0.46613 0.50218 0.0
H685 H 0.07115 0.45383 0.33368 0.0
H686 H 0.0664 0.48758 0.45166 0.0
C687 C 1.00463 0.44268 0.48785 0.0
C688 C 0.92687 0.04118 0.99941 0.0
C689 C 0.924 1.01488 0.04939 0.0
H690 H 0.94759 0.06271 0.89394 0.0
C691 C 0.94273 0.98987 0.02898 0.0
H692 H 0.91384 0.06136 1.01291 0.0
C693 C 0.96291 0.99099 0.96083 0.0
C694 C 0.96473 0.01695 0.90972 0.0
H695 H 0.94128 0.96889 0.06404 0.0
H696 H 0.97642 0.97115 0.94674 0.0
C697 C 0.94658 0.04208 0.93079 0.0
C698 C 0.50445 0.95011 0.04623 0.0
C699 C 0.52488 0.92553 0.04287 0.0
H700 H 0.48666 0.98997 0.98513 0.0
C701 C 0.54276 0.92244 0.97116 0.0
H702 H 0.49031 0.95319 0.10036 0.0
C703 C 0.54024 0.94301 0.90474 0.0
C704 C 0.52029 0.96797 0.90822 0.0
H705 H 0.55857 0.90373 0.96601 0.0
H706 H 0.55426 0.93943 0.85058 0.0
C707 C 0.50249 0.97128 0.98027 0.0
C708 C 0.5957 0.55916 1.0021 0.0
C709 C 0.61898 0.53757 1.01707 0.0
H710 H 0.5588 0.57413 0.92539 0.0
C711 C 0.62009 0.51268 0.96189 0.0
H712 H 0.59255 0.57846 0.042 0.0
C713 C 0.59938 0.50963 0.89617 0.0
C714 C 0.57702 0.53172 0.88018 0.0
H715 H 0.63724 0.49536 0.96763 0.0
H716 H 0.60107 0.48972 0.85744 0.0
C717 C 0.57559 0.55652 0.9347 0.0
C718 C 0.98483 0.59858 1.01905 0.0
C719 C 1.00505 0.62364 0.02683 0.0
H720 H 0.97098 0.55924 0.94937 0.0
C721 C 0.02854 0.62602 0.96734 0.0
H722 H 0.9668 0.59492 0.06368 0.0
C723 C 0.0313 0.60489 0.90268 0.0
C724 C 1.01035 0.58075 0.893 0.0
H725 H 0.04458 0.64474 0.96878 0.0
H726 H 0.04988 0.60786 0.85925 0.0
C727 C 0.98735 0.57767 0.95333 0.0
C728 C 0.05549 0.20016 0.56351 0.0
C729 C 0.06543 0.19334 0.48288 0.0
H730 H 0.0224 0.19112 0.65855 0.0
C731 C 0.05352 0.16739 0.44409 0.0
H732 H 0.06479 0.21949 0.59617 0.0
C733 C 0.02947 0.15137 0.4796 0.0
C734 C 0.01685 0.16069 0.55507 0.0
H735 H 0.06025 0.16129 0.38206 0.0
H736 H 0.0191 0.1333 0.44408 0.0
C737 C 0.03109 0.18416 0.59897 0.0
C738 C 0.33174 0.05209 0.36676 0.0
C739 C 0.34135 0.08272 0.36319 0.0
H740 H 0.34458 1.0054 0.37587 0.0
C741 C 0.37247 0.08948 0.36942 0.0
H742 H 0.30803 0.04593 0.35954 0.0
C743 C 0.39353 0.06594 0.37828 0.0
C744 C 0.38371 0.03539 0.37913 0.0
H745 H 0.3805 0.11279 0.36539 0.0
H746 H 0.4175 0.0715 0.38203 0.0
C747 C 0.35267 0.02874 0.37435 0.0
C748 C 0.48282 0.32391 0.53994 0.0
C749 C 0.46258 0.34064 0.49079 0.0
H750 H 0.52291 0.32482 0.61309 0.0
C751 C 0.46285 0.37243 0.49716 0.0
H752 H 0.48275 0.29927 0.53878 0.0
C753 C 0.48709 0.38716 0.53522 0.0
C754 C 0.51106 0.37031 0.5707 0.0
H755 H 0.44673 0.38598 0.46274 0.0
H756 H 0.48811 0.41154 0.52737 0.0
C757 C 0.50658 0.3387 0.58077 0.0
C758 C 0.19438 0.47941 0.54282 0.0
C759 C 0.18862 0.47007 0.46131 0.0
H760 H 0.18432 0.51171 0.63791 0.0
C761 C 0.16357 0.48252 0.41985 0.0
H762 H 0.21302 0.46976 0.57736 0.0
C763 C 0.1474 0.50641 0.45422 0.0
C764 C 0.15565 0.51833 0.5312 0.0
H765 H 0.15835 0.47628 0.35698 0.0
H766 H 0.13011 0.51717 0.41697 0.0
C767 C 0.17819 0.50359 0.57722 0.0
C768 C 0.96015 0.88093 0.90335 0.0
C769 C 0.95843 0.84911 0.90796 0.0
H770 H 0.98755 0.91908 0.87565 0.0
C771 C 0.97768 0.83204 0.85677 0.0
H772 H 0.94478 0.89478 0.93941 0.0
C773 C 1.00222 0.84615 0.81654 0.0
C774 C 1.00835 0.87728 0.82927 0.0
H775 H 0.9764 0.80742 0.85638 0.0
H776 H 0.01791 0.83194 0.78288 0.0
C777 C 0.9852 0.89491 0.86601 0.0
C778 C 0.68058 0.97988 0.05653 0.0
C779 C 0.70236 0.96622 1.00485 0.0
H780 H 0.64789 1.01528 0.07093 0.0
C781 C 0.70558 0.97698 0.92321 0.0
H782 H 0.67776 0.9729 0.12028 0.0
C783 C 0.6891 1.00219 0.89619 0.0
C784 C 0.66873 0.01656 0.9498 0.0
H785 H 0.72187 0.96682 0.88149 0.0
H786 H 0.69236 1.01059 0.83378 0.0
C787 C 0.66389 1.00467 0.0291 0.0
C788 C 0.54655 0.70362 0.84786 0.0
C789 C 0.55652 0.69556 0.92739 0.0
H790 H 0.51301 0.69674 0.75455 0.0
C791 C 0.54467 0.66889 0.96423 0.0
H792 H 0.55587 0.72334 0.81613 0.0
C793 C 0.52096 0.65298 0.9271 0.0
C794 C 0.50835 0.66365 0.85312 0.0
H795 H 0.55148 0.66181 1.02542 0.0
H796 H 0.5109 0.63382 0.95981 0.0
C797 C 0.52205 0.68839 0.81232 0.0
C798 C 0.82067 0.54322 0.8992 0.0
C799 C 0.83588 0.57077 0.91545 0.0
H800 H 0.82411 0.49748 0.85761 0.0
C801 C 0.86605 0.57451 0.88894 0.0
H802 H 0.79759 0.53938 0.92062 0.0
C803 C 0.88122 0.55043 0.85098 0.0
C804 C 0.8667 0.52197 0.84128 0.0
H805 H 0.87824 0.5955 0.90089 0.0
H806 H 0.90474 0.55367 0.83275 0.0
C807 C 0.83593 0.51906 0.863 0.0
C808 C 1.0022 0.15467 0.84401 0.0
C809 C 0.03062 0.16798 0.86322 0.0
H810 H 0.97771 0.11666 0.79321 0.0
C811 C 0.0568 0.15166 0.83918 0.0
H812 H 0.98135 0.16636 0.85929 0.0
C813 C 0.05465 0.12308 0.80006 0.0
C814 C 0.02628 0.10932 0.7839 0.0
H815 H 0.07922 0.1605 0.85263 0.0
H816 H 0.07544 0.11161 0.78322 0.0
C817 C 1.00008 0.12601 0.80511 0.0
C818 C 0.38687 0.05995 0.85902 0.0
C819 C 0.36717 0.03454 0.86192 0.0
H820 H 0.43064 0.07806 0.82601 0.0
C821 C 0.37808 1.00697 0.82916 0.0
H822 H 0.37959 0.08157 0.88385 0.0
C823 C 0.40762 1.00502 0.79451 0.0
C824 C 0.42758 0.03034 0.79372 0.0
H825 H 0.36363 0.98694 0.82946 0.0
H826 H 0.41487 0.98348 0.76946 0.0
C827 C 0.41646 0.05785 0.82618 0.0
C828 C 0.53753 0.39191 0.84414 0.0
C829 C 0.50965 0.37607 0.85325 0.0
H830 H 0.56102 0.43218 0.80244 0.0
C831 C 0.48362 0.3902 0.81964 0.0
H832 H 0.55845 0.38202 0.86615 0.0
C833 C 0.48536 0.419 0.78063 0.0
C834 C 0.51296 0.43527 0.77539 0.0
H835 H 0.46152 0.37943 0.82471 0.0
H836 H 0.46497 0.42847 0.75429 0.0
C837 C 0.53911 0.42088 0.80644 0.0
C838 C 0.14797 0.54255 0.84251 0.0
C839 C 0.16242 0.51429 0.85582 0.0
H840 H 0.10916 0.56658 0.79545 0.0
C841 C 0.14748 0.48815 0.82521 0.0
H842 H 0.15859 0.56341 0.86317 0.0
C843 C 0.1191 0.49007 0.78535 0.0
C844 C 0.10421 0.51814 0.77492 0.0
H845 H 0.15722 0.46582 0.83412 0.0
H846 H 0.1086 0.46929 0.76372 0.0
C847 C 0.11951 0.54444 0.80268 0.0
C848 C 0.98032 0.88939 0.58499 0.0
C849 C 1.00597 0.87504 0.54961 0.0
H850 H 0.96244 0.92775 0.65085 0.0
C851 C 0.03414 0.89039 0.5574 0.0
H852 H 0.95803 0.87904 0.58096 0.0
C853 C 0.03632 0.91917 0.59511 0.0
C854 C 1.01052 0.93386 0.62762 0.0
H855 H 0.05482 0.88031 0.53411 0.0
H856 H 0.05841 0.93011 0.59773 0.0
C857 C 0.98266 0.91798 0.62404 0.0
C858 C 0.64775 0.98923 0.55161 0.0
C859 C 0.66806 1.01416 0.55111 0.0
H860 H 0.60396 0.97148 0.58481 0.0
C861 C 0.65796 0.04135 0.58809 0.0
H862 H 0.65432 0.96788 0.52382 0.0
C863 C 0.62858 0.04341 0.62398 0.0
C864 C 0.60798 0.01862 0.62191 0.0
H865 H 0.67291 0.06099 0.59012 0.0
H866 H 0.62197 0.0646 0.65233 0.0
C867 C 0.61843 0.99143 0.586 0.0
C868 C 0.53775 0.66084 0.61519 0.0
C869 C 0.52687 0.66586 0.53429 0.0
H870 H 0.5451 0.62877 0.71474 0.0
C871 C 0.51512 0.64038 0.49223 0.0
H872 H 0.5475 0.6795 0.64948 0.0
C873 C 0.51446 0.61127 0.52891 0.0
C874 C 0.52501 0.60635 0.60979 0.0
H875 H 0.50716 0.64264 0.42946 0.0
H876 H 0.50567 0.59241 0.49336 0.0
C877 C 0.53635 0.63168 0.6529 0.0
C878 C 0.88483 0.55671 0.57388 0.0
C879 C 0.8717 0.53128 0.53413 0.0
H880 H 0.92208 0.57487 0.64405 0.0
C881 C 0.88768 0.50353 0.53985 0.0
H882 H 0.87389 0.57868 0.57118 0.0
C883 C 0.91587 0.50155 0.58088 0.0
C884 C 0.92939 0.52724 0.61779 0.0
H885 H 0.8785 0.4831 0.5123 0.0
H886 H 0.92742 0.47986 0.58201 0.0
C887 C 0.91296 0.55467 0.61518 0.0
loop_
_geom_bond_atom_site_label_1
_geom_bond_atom_site_label_2
_geom_bond_distance
_geom_bond_site_symmetry_2
_ccdc_geom_bond_type
C0 C1 1.386 . S
C0 C2 1.397 . S
C0 H24 0.931 . S
C1 C0 1.386 . S
C1 C5 1.397 . S
C2 C0 1.397 . S
C2 C3 1.384 . S
C2 H25 0.930 . S
C3 C2 1.384 . S
C3 C4 1.377 . S
C3 C6 1.481 . S
C4 C3 1.377 . S
C4 C5 1.389 . S
C4 H26 0.929 . S
C5 C1 1.397 . S
C5 C4 1.389 . S
C5 H27 0.931 . S
C6 C3 1.481 . S
C6 C7 1.387 . S
C6 C11 1.390 . S
C7 C6 1.387 . S
C7 C8 1.401 . S
C7 H28 0.930 . S
C8 C7 1.401 . S
C8 C9 1.376 . S
C8 C17 1.511 . S
C9 C8 1.376 . S
C9 C10 1.392 . S
C9 H30 0.931 . S
C10 C9 1.392 . S
C10 C11 1.361 . S
C10 C12 1.500 . S
C11 C6 1.390 . S
C11 C10 1.361 . S
C11 H29 0.931 . S
C12 C10 1.500 . S
C12 C13 1.371 . S
C12 C14 1.365 . S
C13 C12 1.371 . S
C13 C23 1.386 . S
C13 H31 0.931 . S
C14 C12 1.365 . S
C14 C15 1.409 . S
C14 H32 0.929 . S
C15 C14 1.409 . S
C15 C16 1.380 . S
C15 H33 0.930 . S
C16 C15 1.380 . S
C16 C23 1.357 . S
C17 C8 1.511 . S
C17 C18 1.341 . S
C17 C19 1.371 . S
C18 C17 1.341 . S
C18 C22 1.394 . S
C18 H34 0.930 . S
C19 C17 1.371 . S
C19 C20 1.392 . S
C19 H35 0.931 . S
C20 C19 1.392 . S
C20 C21 1.331 . S
C20 H38 0.932 . S
C21 C20 1.331 . S
C21 C22 1.336 . S
C22 C18 1.394 . S
C22 C21 1.336 . S
C22 H37 0.929 . S
C23 C13 1.386 . S
C23 C16 1.357 . S
C23 H36 0.928 . S
H24 C0 0.931 . S
H25 C2 0.930 . S
H26 C4 0.929 . S
H27 C5 0.931 . S
H28 C7 0.930 . S
H29 C11 0.931 . S
H30 C9 0.931 . S
H31 C13 0.931 . S
H32 C14 0.929 . S
H33 C15 0.930 . S
H34 C18 0.930 . S
H35 C19 0.931 . S
H36 C23 0.928 . S
H37 C22 0.929 . S
H38 C20 0.932 . S
C39 C40 1.386 . S
C39 C41 1.397 . S
C39 H63 0.931 . S
C40 C39 1.386 . S
C40 C44 1.397 . S
C41 C39 1.397 . S
C41 C42 1.384 . S
C41 H64 0.930 . S
C42 C41 1.384 . S
C42 C43 1.377 . S
C42 C45 1.481 . S
C43 C42 1.377 . S
C43 C44 1.389 . S
C43 H65 0.929 1_655 S
C44 C40 1.397 . S
C44 C43 1.389 . S
C44 H66 0.931 1_655 S
C45 C42 1.481 . S
C45 C46 1.387 . S
C45 C50 1.390 . S
C46 C45 1.387 . S
C46 C47 1.401 . S
C46 H67 0.930 . S
C47 C46 1.401 . S
C47 C48 1.376 . S
C47 C56 1.511 . S
C48 C47 1.376 . S
C48 C49 1.392 . S
C48 H69 0.931 . S
C49 C48 1.392 . S
C49 C50 1.361 . S
C49 C51 1.500 . S
C50 C45 1.390 . S
C50 C49 1.361 . S
C50 H68 0.931 . S
C51 C49 1.500 . S
C51 C52 1.371 . S
C51 C53 1.365 . S
C52 C51 1.371 . S
C52 C62 1.386 . S
C52 H70 0.931 . S
C53 C51 1.365 . S
C53 C54 1.409 . S
C53 H71 0.943 . S
C54 C53 1.409 . S
C54 C55 1.380 . S
C54 H72 0.930 . S
C55 C54 1.380 . S
C55 C62 1.357 . S
C56 C47 1.511 . S
C56 C57 1.341 . S
C56 C58 1.371 . S
C57 C56 1.341 . S
C57 C61 1.394 . S
C57 H73 0.930 . S
C58 C56 1.371 . S
C58 C59 1.392 . S
C58 H74 0.931 . S
C59 C58 1.392 . S
C59 C60 1.331 . S
C59 H77 0.932 . S
C60 C59 1.331 . S
C60 C61 1.336 . S
C61 C57 1.394 . S
C61 C60 1.336 . S
C61 H76 0.929 . S
C62 C52 1.386 . S
C62 C55 1.357 . S
C62 H75 0.928 . S
H63 C39 0.931 . S
H64 C41 0.930 . S
H65 C43 0.929 1_455 S
H66 C44 0.931 1_455 S
H67 C46 0.930 . S
H68 C50 0.931 . S
H69 C48 0.931 . S
H70 C52 0.931 . S
H71 C53 0.943 . S
H72 C54 0.930 . S
H73 C57 0.930 . S
H74 C58 0.931 . S
H75 C62 0.928 . S
H76 C61 0.929 . S
H77 C59 0.932 . S
C78 C79 1.386 . S
C78 C80 1.397 . S
C78 H102 0.931 . S
C79 C78 1.386 . S
C79 C83 1.397 . S
C80 C78 1.397 . S
C80 C81 1.384 . S
C80 H103 0.930 . S
C81 C80 1.384 . S
C81 C82 1.377 . S
C81 C84 1.481 . S
C82 C81 1.377 . S
C82 C83 1.389 . S
C82 H104 0.929 1_565 S
C83 C79 1.397 . S
C83 C82 1.389 . S
C83 H105 0.931 1_565 S
C84 C81 1.481 . S
C84 C85 1.387 . S
C84 C89 1.390 . S
C85 C84 1.387 . S
C85 C86 1.401 . S
C85 H106 0.930 . S
C86 C85 1.401 . S
C86 C87 1.376 . S
C86 C95 1.511 . S
C87 C86 1.376 . S
C87 C88 1.392 . S
C87 H108 0.931 . S
C88 C87 1.392 . S
C88 C89 1.361 . S
C88 C90 1.500 . S
C89 C84 1.390 . S
C89 C88 1.361 . S
C89 H107 0.931 . S
C90 C88 1.500 . S
C90 C91 1.371 . S
C90 C92 1.365 . S
C91 C90 1.371 . S
C91 C101 1.386 . S
C91 H109 0.931 . S
C92 C90 1.365 . S
C92 C93 1.409 . S
C92 H110 0.951 . S
C93 C92 1.409 . S
C93 C94 1.380 . S
C93 H111 0.930 . S
C94 C93 1.380 . S
C94 C101 1.357 . S
C95 C86 1.511 . S
C95 C96 1.341 . S
C95 C97 1.371 . S
C96 C95 1.341 . S
C96 C100 1.394 . S
C96 H112 0.930 . S
C97 C95 1.371 . S
C97 C98 1.392 . S
C97 H113 0.931 . S
C98 C97 1.392 . S
C98 C99 1.331 . S
C98 H116 0.932 . S
C99 C98 1.331 . S
C99 C100 1.336 . S
C100 C96 1.394 . S
C100 C99 1.336 . S
C100 H115 0.929 . S
C101 C91 1.386 . S
C101 C94 1.357 . S
C101 H114 0.928 . S
H102 C78 0.931 . S
H103 C80 0.930 . S
H104 C82 0.929 1_545 S
H105 C83 0.931 1_545 S
H106 C85 0.930 . S
H107 C89 0.931 . S
H108 C87 0.931 . S
H109 C91 0.931 . S
H110 C92 0.951 . S
H111 C93 0.930 . S
H112 C96 0.930 . S
H113 C97 0.931 . S
H114 C101 0.928 . S
H115 C100 0.929 . S
H116 C98 0.932 . S
C117 C118 1.386 . S
C117 C119 1.397 . S
C117 H141 0.931 . S
C118 C117 1.386 . S
C118 C122 1.397 . S
C119 C117 1.397 . S
C119 C120 1.384 . S
C119 H142 0.930 . S
C120 C119 1.384 . S
C120 C121 1.377 . S
C120 C123 1.481 . S
C121 C120 1.377 . S
C121 C122 1.389 . S
C121 H143 0.929 . S
C122 C118 1.397 . S
C122 C121 1.389 . S
C122 H144 0.931 . S
C123 C120 1.481 . S
C123 C124 1.387 . S
C123 C128 1.390 . S
C124 C123 1.387 . S
C124 C125 1.401 . S
C124 H145 0.930 . S
C125 C124 1.401 . S
C125 C126 1.376 . S
C125 C134 1.511 . S
C126 C125 1.376 . S
C126 C127 1.392 . S
C126 H147 0.931 . S
C127 C126 1.392 . S
C127 C128 1.361 . S
C127 C129 1.500 . S
C128 C123 1.390 . S
C128 C127 1.361 . S
C128 H146 0.931 . S
C129 C127 1.500 . S
C129 C130 1.371 . S
C129 C131 1.365 . S
C130 C129 1.371 . S
C130 C140 1.386 . S
C130 H148 0.931 . S
C131 C129 1.365 . S
C131 C132 1.409 . S
C131 H149 0.929 . S
C132 C131 1.409 . S
C132 C133 1.380 . S
C132 H150 0.930 . S
C133 C132 1.380 . S
C133 C140 1.357 . S
C134 C125 1.511 . S
C134 C135 1.341 . S
C134 C136 1.371 . S
C135 C134 1.341 . S
C135 C139 1.394 . S
C135 H151 0.930 . S
C136 C134 1.371 . S
C136 C137 1.392 . S
C136 H152 0.931 . S
C137 C136 1.392 . S
C137 C138 1.331 . S
C137 H155 0.932 . S
C138 C137 1.331 . S
C138 C139 1.336 . S
C139 C135 1.394 . S
C139 C138 1.336 . S
C139 H154 0.929 . S
C140 C130 1.386 . S
C140 C133 1.357 . S
C140 H153 0.928 . S
H141 C117 0.931 . S
H142 C119 0.930 . S
H143 C121 0.929 . S
H144 C122 0.931 . S
H145 C124 0.930 . S
H146 C128 0.931 . S
H147 C126 0.931 . S
H148 C130 0.931 . S
H149 C131 0.929 . S
H150 C132 0.930 . S
H151 C135 0.930 . S
H152 C136 0.931 . S
H153 C140 0.928 . S
H154 C139 0.929 . S
H155 C137 0.932 . S
C156 C157 1.386 . S
C156 C158 1.397 . S
C156 H180 0.931 . S
C157 C156 1.386 . S
C157 C161 1.397 . S
C158 C156 1.397 . S
C158 C159 1.384 . S
C158 H181 0.930 . S
C159 C158 1.384 . S
C159 C160 1.377 . S
C159 C162 1.481 . S
C160 C159 1.377 . S
C160 C161 1.389 . S
C160 H182 0.929 . S
C161 C157 1.397 . S
C161 C160 1.389 . S
C161 H183 0.931 . S
C162 C159 1.481 . S
C162 C163 1.387 . S
C162 C167 1.390 . S
C163 C162 1.387 . S
C163 C164 1.401 . S
C163 H184 0.930 . S
C164 C163 1.401 . S
C164 C165 1.376 1_554 S
C164 C173 1.511 . S
C165 C164 1.376 1_556 S
C165 C166 1.392 . S
C165 H186 0.931 . S
C166 C165 1.392 . S
C166 C167 1.361 1_556 S
C166 C168 1.500 . S
C167 C162 1.390 . S
C167 C166 1.361 1_554 S
C167 H185 0.931 . S
C168 C166 1.500 . S
C168 C169 1.371 . S
C168 C170 1.365 . S
C169 C168 1.371 . S
C169 C179 1.386 . S
C169 H187 0.931 . S
C170 C168 1.365 . S
C170 C171 1.409 . S
C170 H188 0.929 . S
C171 C170 1.409 . S
C171 C172 1.380 . S
C171 H189 0.930 . S
C172 C171 1.380 . S
C172 C179 1.357 . S
C173 C164 1.511 . S
C173 C174 1.341 . S
C173 C175 1.371 . S
C174 C173 1.341 . S
C174 C178 1.394 . S
C174 H190 0.930 . S
C175 C173 1.371 . S
C175 C176 1.392 . S
C175 H191 0.931 1_554 S
C176 C175 1.392 . S
C176 C177 1.331 . S
C176 H194 0.932 . S
C177 C176 1.331 . S
C177 C178 1.336 . S
C178 C174 1.394 . S
C178 C177 1.336 . S
C178 H193 0.929 . S
C179 C169 1.386 . S
C179 C172 1.357 . S
C179 H192 0.928 . S
H180 C156 0.931 . S
H181 C158 0.930 . S
H182 C160 0.929 . S
H183 C161 0.931 . S
H184 C163 0.930 . S
H185 C167 0.931 . S
H186 C165 0.931 . S
H187 C169 0.931 . S
H188 C170 0.929 . S
H189 C171 0.930 . S
H190 C174 0.930 . S
H191 C175 0.931 1_556 S
H192 C179 0.928 . S
H193 C178 0.929 . S
H194 C176 0.932 . S
C195 C196 1.386 . S
C195 C197 1.397 . S
C195 H219 0.931 . S
C196 C195 1.386 . S
C196 C200 1.397 . S
C197 C195 1.397 . S
C197 C198 1.384 . S
C197 H220 0.930 . S
C198 C197 1.384 . S
C198 C199 1.377 . S
C198 C201 1.481 . S
C199 C198 1.377 . S
C199 C200 1.389 . S
C199 H221 0.929 . S
C200 C196 1.397 . S
C200 C199 1.389 . S
C200 H222 0.931 . S
C201 C198 1.481 . S
C201 C202 1.387 . S
C201 C206 1.390 . S
C202 C201 1.387 . S
C202 C203 1.401 . S
C202 H223 0.930 . S
C203 C202 1.401 . S
C203 C204 1.376 1_554 S
C203 C212 1.511 . S
C204 C203 1.376 1_556 S
C204 C205 1.392 . S
C204 H225 0.931 . S
C205 C204 1.392 . S
C205 C206 1.361 1_556 S
C205 C207 1.500 . S
C206 C201 1.390 . S
C206 C205 1.361 1_554 S
C206 H224 0.931 . S
C207 C205 1.500 . S
C207 C208 1.371 . S
C207 C209 1.365 . S
C208 C207 1.371 . S
C208 C218 1.386 . S
C208 H226 0.931 . S
C209 C207 1.365 . S
C209 C210 1.409 . S
C209 H227 0.929 . S
C210 C209 1.409 . S
C210 C211 1.380 . S
C210 H228 0.930 . S
C211 C210 1.380 . S
C211 C218 1.357 . S
C212 C203 1.511 . S
C212 C213 1.341 . S
C212 C214 1.371 . S
C213 C212 1.341 . S
C213 C217 1.394 . S
C213 H229 0.930 . S
C214 C212 1.371 . S
C214 C215 1.392 . S
C214 H230 0.931 1_554 S
C215 C214 1.392 . S
C215 C216 1.331 . S
C215 H233 0.932 . S
C216 C215 1.331 . S
C216 C217 1.336 . S
C217 C213 1.394 . S
C217 C216 1.336 . S
C217 H232 0.929 . S
C218 C208 1.386 . S
C218 C211 1.357 . S
C218 H231 0.928 . S
H219 C195 0.931 . S
H220 C197 0.930 . S
H221 C199 0.929 . S
H222 C200 0.931 . S
H223 C202 0.930 . S
H224 C206 0.931 . S
H225 C204 0.931 . S
H226 C208 0.931 . S
H227 C209 0.929 . S
H228 C210 0.930 . S
H229 C213 0.930 . S
H230 C214 0.931 1_556 S
H231 C218 0.928 . S
H232 C217 0.929 . S
H233 C215 0.932 . S
C234 C235 1.386 . S
C234 C236 1.397 . S
C234 H258 0.931 . S
C235 C234 1.386 . S
C235 C239 1.397 . S
C236 C234 1.397 . S
C236 C237 1.384 . S
C236 H259 0.930 . S
C237 C236 1.384 . S
C237 C238 1.377 . S
C237 C240 1.481 . S
C238 C237 1.377 . S
C238 C239 1.389 . S
C238 H260 0.929 . S
C239 C235 1.397 . S
C239 C238 1.389 . S
C239 H261 0.931 . S
C240 C237 1.481 . S
C240 C241 1.387 . S
C240 C245 1.390 . S
C241 C240 1.387 . S
C241 C242 1.401 . S
C241 H262 0.930 . S
C242 C241 1.401 . S
C242 C243 1.376 1_554 S
C242 C251 1.511 . S
C243 C242 1.376 1_556 S
C243 C244 1.392 . S
C243 H264 0.931 . S
C244 C243 1.392 . S
C244 C245 1.361 1_556 S
C244 C246 1.500 . S
C245 C240 1.390 . S
C245 C244 1.361 1_554 S
C245 H263 0.931 . S
C246 C244 1.500 . S
C246 C247 1.371 . S
C246 C248 1.365 . S
C247 C246 1.371 . S
C247 C257 1.386 . S
C247 H265 0.931 . S
C248 C246 1.365 . S
C248 C249 1.409 . S
C248 H266 0.929 . S
C249 C248 1.409 . S
C249 C250 1.380 . S
C249 H267 0.930 . S
C250 C249 1.380 . S
C250 C257 1.357 . S
C251 C242 1.511 . S
C251 C252 1.341 . S
C251 C253 1.371 . S
C252 C251 1.341 . S
C252 C256 1.394 . S
C252 H268 0.930 . S
C253 C251 1.371 . S
C253 C254 1.392 . S
C253 H269 0.931 1_554 S
C254 C253 1.392 . S
C254 C255 1.331 . S
C254 H272 0.932 . S
C255 C254 1.331 . S
C255 C256 1.336 . S
C256 C252 1.394 . S
C256 C255 1.336 . S
C256 H271 0.929 . S
C257 C247 1.386 . S
C257 C250 1.357 . S
C257 H270 0.928 . S
H258 C234 0.931 . S
H259 C236 0.930 . S
H260 C238 0.929 . S
H261 C239 0.931 . S
H262 C241 0.930 . S
H263 C245 0.931 . S
H264 C243 0.931 . S
H265 C247 0.931 . S
H266 C248 0.929 . S
H267 C249 0.930 . S
H268 C252 0.930 . S
H269 C253 0.931 1_556 S
H270 C257 0.928 . S
H271 C256 0.929 . S
H272 C254 0.932 . S
C273 C274 1.386 . S
C273 C275 1.397 . S
C273 H297 0.931 . S
C274 C273 1.386 . S
C274 C278 1.397 . S
C275 C273 1.397 . S
C275 C276 1.384 . S
C275 H298 0.930 . S
C276 C275 1.384 . S
C276 C277 1.377 . S
C276 C279 1.481 . S
C277 C276 1.377 . S
C277 C278 1.389 . S
C277 H299 0.929 . S
C278 C274 1.397 . S
C278 C277 1.389 . S
C278 H300 0.931 . S
C279 C276 1.481 . S
C279 C280 1.387 . S
C279 C284 1.390 1_556 S
C280 C279 1.387 . S
C280 C281 1.401 1_556 S
C280 H301 0.930 . S
C281 C280 1.401 1_554 S
C281 C282 1.376 . S
C281 C290 1.511 . S
C282 C281 1.376 . S
C282 C283 1.392 . S
C282 H303 0.931 . S
C283 C282 1.392 . S
C283 C284 1.361 . S
C283 C285 1.500 . S
C284 C279 1.390 1_554 S
C284 C283 1.361 . S
C284 H302 0.931 . S
C285 C283 1.500 . S
C285 C286 1.371 . S
C285 C287 1.365 . S
C286 C285 1.371 . S
C286 C296 1.386 . S
C286 H304 0.931 . S
C287 C285 1.365 . S
C287 C288 1.409 . S
C287 H305 0.929 . S
C288 C287 1.409 . S
C288 C289 1.380 . S
C288 H306 0.930 . S
C289 C288 1.380 . S
C289 C296 1.357 . S
C290 C281 1.511 . S
C290 C291 1.341 . S
C290 C292 1.371 . S
C291 C290 1.341 . S
C291 C295 1.394 . S
C291 H307 0.930 1_554 S
C292 C290 1.371 . S
C292 C293 1.392 . S
C292 H308 0.931 . S
C293 C292 1.392 . S
C293 C294 1.331 . S
C293 H311 0.932 . S
C294 C293 1.331 . S
C294 C295 1.336 . S
C295 C291 1.394 . S
C295 C294 1.336 . S
C295 H310 0.929 . S
C296 C286 1.386 . S
C296 C289 1.357 . S
C296 H309 0.928 . S
H297 C273 0.931 . S
H298 C275 0.930 . S
H299 C277 0.929 . S
H300 C278 0.931 . S
H301 C280 0.930 . S
H302 C284 0.931 . S
H303 C282 0.931 . S
H304 C286 0.931 . S
H305 C287 0.929 . S
H306 C288 0.930 . S
H307 C291 0.930 1_556 S
H308 C292 0.931 . S
H309 C296 0.928 . S
H310 C295 0.929 . S
H311 C293 0.932 . S
Tb312 N341 2.617 . S
Tb312 N347 2.572 . S
Tb312 O356 2.465 . S
Tb312 O357 2.387 1_545 S
Tb312 O359 2.428 . S
Tb312 O360 2.308 1_655 S
Tb312 O364 2.349 1_655 S
Tb312 O367 2.393 . S
Tb312 C376 2.802 . S
C313 N314 1.379 . S
C313 C316 1.416 . S
C313 C320 1.424 . S
N314 C313 1.379 . S
N314 C317 1.334 1_545 S
N314 Tb323 2.617 1_545 S
C315 C317 1.390 1_545 S
C315 C318 1.339 . S
C315 H335 0.930 . S
C316 C313 1.416 . S
C316 C318 1.416 . S
C316 C322 1.448 . S
C317 N314 1.334 1_565 S
C317 C315 1.390 1_565 S
C317 H328 0.930 . S
C318 C315 1.339 . S
C318 C316 1.416 . S
C318 H339 0.930 . S
C319 C320 1.413 . S
C319 C321 1.427 1_556 S
C319 C325 1.416 1_556 S
C320 C313 1.424 . S
C320 C319 1.413 . S
C320 N324 1.361 . S
C321 C319 1.427 1_554 S
C321 C322 1.328 1_554 S
C321 H336 0.929 . S
C322 C316 1.448 . S
C322 C321 1.328 1_556 S
C322 H337 0.930 . S
Tb323 N314 2.617 1_565 S
Tb323 N324 2.572 1_565 S
Tb323 O358 2.349 . S
Tb323 O361 2.393 . S
Tb323 O362 2.465 . S
Tb323 O363 2.387 1_565 S
Tb323 O365 2.428 . S
Tb323 O366 2.306 1_465 S
Tb323 C387 2.802 . S
N324 C320 1.361 . S
N324 Tb323 2.572 1_545 S
N324 C326 1.340 . S
C325 C319 1.416 1_554 S
C325 C327 1.332 . S
C325 H333 0.931 . S
C326 N324 1.340 . S
C326 C327 1.407 1_556 S
C326 H332 0.930 . S
C327 C325 1.332 . S
C327 C326 1.407 1_554 S
C327 H329 0.929 . S
H328 C317 0.930 . S
H329 C327 0.929 . S
H330 C345 0.930 . S
H331 C352 0.929 1_455 S
H332 C326 0.930 . S
H333 C325 0.931 . S
H334 C348 0.930 1_455 S
H335 C315 0.930 . S
H336 C321 0.929 . S
H337 C322 0.930 . S
H338 C343 0.930 . S
H339 C318 0.930 . S
H340 C351 0.931 . S
N341 Tb312 2.617 . S
N341 C342 1.370 1_545 S
N341 C345 1.334 . S
C342 N341 1.370 1_565 S
C342 C344 1.423 . S
C342 C350 1.426 . S
C343 H338 0.930 . S
C343 C345 1.390 . S
C343 C346 1.339 1_545 S
C344 C342 1.423 . S
C344 C346 1.416 . S
C344 C377 1.448 . S
C345 H330 0.930 . S
C345 N341 1.334 . S
C345 C343 1.390 . S
C346 C343 1.339 1_565 S
C346 C344 1.416 . S
C346 H353 0.930 . S
N347 Tb312 2.572 . S
N347 C348 1.340 . S
N347 C350 1.361 1_545 S
C348 H334 0.930 1_655 S
C348 N347 1.340 . S
C348 C352 1.407 1_545 S
C349 C350 1.413 . S
C349 C351 1.416 . S
C349 C378 1.427 . S
C350 C342 1.426 . S
C350 N347 1.361 1_565 S
C350 C349 1.413 . S
C351 H340 0.931 . S
C351 C349 1.416 . S
C351 C352 1.332 . S
C352 H331 0.929 1_655 S
C352 C348 1.407 1_565 S
C352 C351 1.332 . S
H353 C346 0.930 . S
H354 C377 0.930 . S
H355 C378 0.929 . S
O356 Tb312 2.465 . S
O356 C376 1.264 . S
O357 Tb312 2.387 1_565 S
O357 C368 1.264 . S
O358 Tb323 2.349 . S
O358 C368 1.243 1_455 S
O359 Tb312 2.428 . S
O359 C376 1.256 . S
O360 Tb312 2.308 1_455 S
O360 C375 1.266 . S
O361 Tb323 2.393 . S
O361 C375 1.248 1_565 S
O362 Tb323 2.465 . S
O362 C387 1.264 . S
O363 Tb323 2.387 1_545 S
O363 C379 1.264 . S
O364 Tb312 2.349 1_455 S
O364 C379 1.243 . S
O365 Tb323 2.428 . S
O365 C387 1.256 . S
O366 Tb323 2.306 1_645 S
O366 C386 1.268 . S
O367 Tb312 2.393 . S
O367 C386 1.248 . S
C368 O357 1.264 . S
C368 O358 1.243 1_655 S
C369 C372 1.399 . S
C369 C374 1.383 . S
C369 C376 1.496 . S
C370 C371 1.399 . S
C370 C374 1.389 . S
C371 C370 1.399 . S
C371 C373 1.380 . S
C371 H388 0.929 . S
C372 C369 1.399 . S
C372 C373 1.392 . S
C372 H389 0.929 . S
C373 C371 1.380 . S
C373 C372 1.392 . S
C373 H390 0.929 . S
C374 C369 1.383 . S
C374 C370 1.389 . S
C374 H391 0.931 1_655 S
C375 O360 1.266 . S
C375 O361 1.248 1_545 S
C376 Tb312 2.802 . S
C376 O356 1.264 . S
C376 O359 1.256 . S
C376 C369 1.496 . S
C377 C344 1.448 . S
C377 H354 0.930 . S
C377 C378 1.328 . S
C378 C349 1.427 . S
C378 H355 0.929 . S
C378 C377 1.328 . S
C379 O363 1.264 . S
C379 O364 1.243 . S
C380 C383 1.399 . S
C380 C384 1.383 . S
C380 C387 1.496 . S
C381 C382 1.399 . S
C381 C384 1.389 . S
C382 C381 1.399 . S
C382 C385 1.380 . S
C382 H392 0.929 . S
C383 C380 1.399 . S
C383 C385 1.392 . S
C383 H393 0.929 . S
C384 C380 1.383 . S
C384 C381 1.389 . S
C384 H394 0.931 . S
C385 C382 1.380 . S
C385 C383 1.392 . S
C385 H395 0.929 . S
C386 O366 1.268 . S
C386 O367 1.248 . S
C387 Tb323 2.802 . S
C387 O362 1.264 . S
C387 O365 1.256 . S
C387 C380 1.496 . S
H388 C371 0.929 . S
H389 C372 0.929 . S
H390 C373 0.929 . S
H391 C374 0.931 1_455 S
H392 C382 0.929 . S
H393 C383 0.929 . S
H394 C384 0.931 . S
H395 C385 0.929 . S
Tb396 N425 2.617 . S
Tb396 N431 2.572 . S
Tb396 O440 2.465 . S
Tb396 O441 2.387 . S
Tb396 O443 2.428 . S
Tb396 O444 2.308 . S
Tb396 O448 2.349 1_545 S
Tb396 O451 2.393 . S
Tb396 C460 2.802 . S
C397 N398 1.379 . S
C397 C400 1.416 . S
C397 C404 1.424 . S
N398 C397 1.379 . S
N398 C401 1.334 . S
N398 Tb407 2.617 . S
C399 C401 1.390 . S
C399 C402 1.339 . S
C399 H419 0.930 . S
C400 C397 1.416 . S
C400 C402 1.416 . S
C400 C406 1.448 . S
C401 N398 1.334 . S
C401 C399 1.390 . S
C401 H412 0.930 . S
C402 C399 1.339 . S
C402 C400 1.416 . S
C402 H423 0.930 . S
C403 C404 1.413 . S
C403 C405 1.427 . S
C403 C409 1.416 . S
C404 C397 1.424 . S
C404 C403 1.413 . S
C404 N408 1.361 . S
C405 C403 1.427 . S
C405 C406 1.328 . S
C405 H420 0.929 . S
C406 C400 1.448 . S
C406 C405 1.328 . S
C406 H421 0.930 . S
Tb407 N398 2.617 . S
Tb407 N408 2.572 . S
Tb407 O442 2.349 1_565 S
Tb407 O445 2.393 . S
Tb407 O446 2.465 . S
Tb407 O447 2.387 . S
Tb407 O449 2.428 . S
Tb407 O450 2.308 1_565 S
Tb407 C471 2.802 . S
N408 C404 1.361 . S
N408 Tb407 2.572 . S
N408 C410 1.340 . S
C409 C403 1.416 . S
C409 C411 1.332 . S
C409 H417 0.931 . S
C410 N408 1.340 . S
C410 C411 1.407 . S
C410 H416 0.930 . S
C411 C409 1.332 . S
C411 C410 1.407 . S
C411 H413 0.929 . S
H412 C401 0.930 . S
H413 C411 0.929 . S
H414 C429 0.930 . S
H415 C436 0.929 . S
H416 C410 0.930 . S
H417 C409 0.931 . S
H418 C432 0.930 . S
H419 C399 0.930 . S
H420 C405 0.929 . S
H421 C406 0.930 . S
H422 C427 0.930 . S
H423 C402 0.930 . S
H424 C435 0.931 . S
N425 Tb396 2.617 . S
N425 C426 1.379 . S
N425 C429 1.334 . S
C426 N425 1.379 . S
C426 C428 1.416 . S
C426 C434 1.424 . S
C427 H422 0.930 . S
C427 C429 1.390 . S
C427 C430 1.339 . S
C428 C426 1.416 . S
C428 C430 1.416 . S
C428 C461 1.448 . S
C429 H414 0.930 . S
C429 N425 1.334 . S
C429 C427 1.390 . S
C430 C427 1.339 . S
C430 C428 1.416 . S
C430 H437 0.930 . S
N431 Tb396 2.572 . S
N431 C432 1.340 . S
N431 C434 1.361 . S
C432 H418 0.930 . S
C432 N431 1.340 . S
C432 C436 1.407 . S
C433 C434 1.413 . S
C433 C435 1.416 . S
C433 C462 1.427 . S
C434 C426 1.424 . S
C434 N431 1.361 . S
C434 C433 1.413 . S
C435 H424 0.931 . S
C435 C433 1.416 . S
C435 C436 1.332 . S
C436 H415 0.929 . S
C436 C432 1.407 . S
C436 C435 1.332 . S
H437 C430 0.930 . S
H438 C461 0.930 . S
H439 C462 0.929 . S
O440 Tb396 2.465 . S
O440 C460 1.264 . S
O441 Tb396 2.387 . S
O441 C452 1.264 . S
O442 Tb407 2.349 1_545 S
O442 C452 1.243 . S
O443 Tb396 2.428 . S
O443 C460 1.256 . S
O444 Tb396 2.308 . S
O444 C459 1.266 1_545 S
O445 Tb407 2.393 . S
O445 C459 1.248 . S
O446 Tb407 2.465 . S
O446 C471 1.264 . S
O447 Tb407 2.387 . S
O447 C463 1.264 . S
O448 Tb396 2.349 1_565 S
O448 C463 1.243 . S
O449 Tb407 2.428 . S
O449 C471 1.256 . S
O450 Tb407 2.308 1_545 S
O450 C470 1.266 . S
O451 Tb396 2.393 . S
O451 C470 1.248 . S
C452 O441 1.264 . S
C452 O442 1.243 . S
C453 C456 1.399 1_556 S
C453 C458 1.383 . S
C453 C460 1.496 . S
C454 C455 1.399 1_556 S
C454 C458 1.389 . S
C455 C454 1.399 1_554 S
C455 C457 1.380 . S
C455 H472 0.929 . S
C456 C453 1.399 1_554 S
C456 C457 1.392 . S
C456 H473 0.929 . S
C457 C455 1.380 . S
C457 C456 1.392 . S
C457 H474 0.929 . S
C458 C453 1.383 . S
C458 C454 1.389 . S
C458 H475 0.931 . S
C459 O444 1.266 1_565 S
C459 O445 1.248 . S
C460 Tb396 2.802 . S
C460 O440 1.264 . S
C460 O443 1.256 . S
C460 C453 1.496 . S
C461 C428 1.448 . S
C461 H438 0.930 . S
C461 C462 1.328 . S
C462 C433 1.427 . S
C462 H439 0.929 . S
C462 C461 1.328 . S
C463 O447 1.264 . S
C463 O448 1.243 . S
C464 C467 1.399 . S
C464 C468 1.383 . S
C464 C471 1.496 . S
C465 C466 1.399 . S
C465 C468 1.389 . S
C466 C465 1.399 . S
C466 C469 1.380 . S
C466 H476 0.929 . S
C467 C464 1.399 . S
C467 C469 1.392 . S
C467 H477 0.929 . S
C468 C464 1.383 . S
C468 C465 1.389 . S
C468 H478 0.931 . S
C469 C466 1.380 . S
C469 C467 1.392 . S
C469 H479 0.929 . S
C470 O450 1.266 . S
C470 O451 1.248 . S
C471 Tb407 2.802 . S
C471 O446 1.264 . S
C471 O449 1.256 . S
C471 C464 1.496 . S
H472 C455 0.929 . S
H473 C456 0.929 . S
H474 C457 0.929 . S
H475 C458 0.931 . S
H476 C466 0.929 . S
H477 C467 0.929 . S
H478 C468 0.931 . S
H479 C469 0.929 . S
Tb480 N509 2.617 . S
Tb480 N515 2.572 . S
Tb480 O524 2.465 . S
Tb480 O525 2.387 . S
Tb480 O527 2.428 . S
Tb480 O528 2.308 . S
Tb480 O532 2.349 . S
Tb480 O535 2.393 . S
Tb480 C544 2.802 . S
C481 N482 1.379 . S
C481 C484 1.416 . S
C481 C488 1.424 . S
N482 C481 1.379 . S
N482 C485 1.334 . S
N482 Tb491 2.617 . S
C483 C485 1.390 . S
C483 C486 1.339 . S
C483 H503 0.930 . S
C484 C481 1.416 . S
C484 C486 1.416 . S
C484 C490 1.448 . S
C485 N482 1.334 . S
C485 C483 1.390 . S
C485 H496 0.930 . S
C486 C483 1.339 . S
C486 C484 1.416 . S
C486 H507 0.930 . S
C487 C488 1.413 . S
C487 C489 1.427 1_556 S
C487 C493 1.416 1_556 S
C488 C481 1.424 . S
C488 C487 1.413 . S
C488 N492 1.361 . S
C489 C487 1.427 1_554 S
C489 C490 1.328 1_554 S
C489 H504 0.929 . S
C490 C484 1.448 . S
C490 C489 1.328 1_556 S
C490 H505 0.930 . S
Tb491 N482 2.617 . S
Tb491 N492 2.572 . S
Tb491 O526 2.349 . S
Tb491 O529 2.393 . S
Tb491 O530 2.465 . S
Tb491 O531 2.387 . S
Tb491 O533 2.428 . S
Tb491 O534 2.308 . S
Tb491 C555 2.802 . S
N492 C488 1.361 . S
N492 Tb491 2.572 . S
N492 C494 1.340 . S
C493 C487 1.416 1_554 S
C493 C495 1.332 . S
C493 H501 0.931 . S
C494 N492 1.340 . S
C494 C495 1.407 1_556 S
C494 H500 0.930 . S
C495 C493 1.332 . S
C495 C494 1.407 1_554 S
C495 H497 0.929 . S
H496 C485 0.930 . S
H497 C495 0.929 . S
H498 C513 0.930 . S
H499 C520 0.929 . S
H500 C494 0.930 . S
H501 C493 0.931 . S
H502 C516 0.930 . S
H503 C483 0.930 . S
H504 C489 0.929 . S
H505 C490 0.930 . S
H506 C511 0.930 . S
H507 C486 0.930 . S
H508 C519 0.931 . S
N509 Tb480 2.617 . S
N509 C510 1.379 . S
N509 C513 1.334 . S
C510 N509 1.379 . S
C510 C512 1.416 . S
C510 C518 1.424 . S
C511 H506 0.930 . S
C511 C513 1.390 . S
C511 C514 1.339 . S
C512 C510 1.416 . S
C512 C514 1.416 . S
C512 C545 1.448 . S
C513 H498 0.930 . S
C513 N509 1.334 . S
C513 C511 1.390 . S
C514 C511 1.339 . S
C514 C512 1.416 . S
C514 H521 0.930 . S
N515 Tb480 2.572 . S
N515 C516 1.340 . S
N515 C518 1.361 . S
C516 H502 0.930 . S
C516 N515 1.340 . S
C516 C520 1.407 . S
C517 C518 1.413 . S
C517 C519 1.416 . S
C517 C546 1.427 . S
C518 C510 1.424 . S
C518 N515 1.361 . S
C518 C517 1.413 . S
C519 H508 0.931 . S
C519 C517 1.416 . S
C519 C520 1.332 . S
C520 H499 0.929 . S
C520 C516 1.407 . S
C520 C519 1.332 . S
H521 C514 0.930 . S
H522 C545 0.930 . S
H523 C546 0.929 . S
O524 Tb480 2.465 . S
O524 C544 1.264 . S
O525 Tb480 2.387 . S
O525 C536 1.264 . S
O526 Tb491 2.349 . S
O526 C536 1.243 . S
O527 Tb480 2.428 . S
O527 C544 1.256 . S
O528 Tb480 2.308 . S
O528 C543 1.266 . S
O529 Tb491 2.393 . S
O529 C543 1.248 . S
O530 Tb491 2.465 . S
O530 C555 1.264 . S
O531 Tb491 2.387 . S
O531 C547 1.264 . S
O532 Tb480 2.349 . S
O532 C547 1.243 . S
O533 Tb491 2.428 . S
O533 C555 1.256 . S
O534 Tb491 2.308 . S
O534 C554 1.266 . S
O535 Tb480 2.393 . S
O535 C554 1.248 . S
C536 O525 1.264 . S
C536 O526 1.243 . S
C537 C540 1.399 . S
C537 C542 1.383 . S
C537 C544 1.496 . S
C538 C539 1.399 . S
C538 C542 1.389 . S
C539 C538 1.399 . S
C539 C541 1.380 . S
C539 H556 0.929 . S
C540 C537 1.399 . S
C540 C541 1.392 . S
C540 H557 0.929 . S
C541 C539 1.380 . S
C541 C540 1.392 . S
C541 H558 0.929 . S
C542 C537 1.383 . S
C542 C538 1.389 . S
C542 H559 0.931 . S
C543 O528 1.266 . S
C543 O529 1.248 . S
C544 Tb480 2.802 . S
C544 O524 1.264 . S
C544 O527 1.256 . S
C544 C537 1.496 . S
C545 C512 1.448 . S
C545 H522 0.930 . S
C545 C546 1.328 . S
C546 C517 1.427 . S
C546 H523 0.929 . S
C546 C545 1.328 . S
C547 O531 1.264 . S
C547 O532 1.243 . S
C548 C551 1.399 . S
C548 C552 1.383 . S
C548 C555 1.496 . S
C549 C550 1.399 . S
C549 C552 1.389 . S
C550 C549 1.399 . S
C550 C553 1.380 . S
C550 H560 0.929 . S
C551 C548 1.399 . S
C551 C553 1.392 . S
C551 H561 0.929 . S
C552 C548 1.383 . S
C552 C549 1.389 . S
C552 H562 0.931 . S
C553 C550 1.380 . S
C553 C551 1.392 . S
C553 H563 0.929 . S
C554 O534 1.266 . S
C554 O535 1.248 . S
C555 Tb491 2.802 . S
C555 O530 1.264 . S
C555 O533 1.256 . S
C555 C548 1.496 . S
H556 C539 0.929 . S
H557 C540 0.929 . S
H558 C541 0.929 . S
H559 C542 0.931 . S
H560 C550 0.929 . S
H561 C551 0.929 . S
H562 C552 0.931 . S
H563 C553 0.929 . S
Tb564 N593 2.617 . S
Tb564 N599 2.572 . S
Tb564 O608 2.465 . S
Tb564 O609 2.387 1_455 S
Tb564 O611 2.428 . S
Tb564 O612 2.308 . S
Tb564 O616 2.349 . S
Tb564 O619 2.393 . S
Tb564 C628 2.802 . S
C565 N566 1.379 1_455 S
C565 C568 1.416 . S
C565 C572 1.424 . S
N566 C565 1.379 1_655 S
N566 C569 1.334 . S
N566 Tb575 2.617 . S
C567 C569 1.390 1_455 S
C567 C570 1.339 . S
C567 H587 0.930 . S
C568 C565 1.416 . S
C568 C570 1.416 . S
C568 C574 1.448 . S
C569 N566 1.334 . S
C569 C567 1.390 1_655 S
C569 H580 0.930 . S
C570 C567 1.339 . S
C570 C568 1.416 . S
C570 H591 0.930 . S
C571 C572 1.413 . S
C571 C573 1.427 1_556 S
C571 C577 1.416 1_556 S
C572 C565 1.424 . S
C572 C571 1.413 . S
C572 N576 1.361 . S
C573 C571 1.427 1_554 S
C573 C574 1.328 1_554 S
C573 H588 0.929 . S
C574 C568 1.448 . S
C574 C573 1.328 1_556 S
C574 H589 0.930 . S
Tb575 N566 2.617 . S
Tb575 N576 2.572 1_655 S
Tb575 O610 2.349 . S
Tb575 O613 2.393 . S
Tb575 O614 2.465 . S
Tb575 O615 2.387 1_655 S
Tb575 O617 2.428 . S
Tb575 O618 2.308 . S
Tb575 C639 2.802 . S
N576 C572 1.361 . S
N576 Tb575 2.572 1_455 S
N576 C578 1.340 . S
C577 C571 1.416 1_554 S
C577 C579 1.332 . S
C577 H585 0.931 . S
C578 N576 1.340 . S
C578 C579 1.407 1_556 S
C578 H584 0.929 1_455 S
C579 C577 1.332 . S
C579 C578 1.407 1_554 S
C579 H581 0.929 . S
H580 C569 0.930 . S
H581 C579 0.929 . S
H582 C597 0.930 . S
H583 C604 0.929 . S
H584 C578 0.929 1_655 S
H585 C577 0.931 . S
H586 C600 0.930 . S
H587 C567 0.930 . S
H588 C573 0.929 . S
H589 C574 0.930 . S
H590 C595 0.930 . S
H591 C570 0.930 . S
H592 C603 0.931 . S
N593 Tb564 2.617 . S
N593 C594 1.368 1_455 S
N593 C597 1.334 . S
C594 N593 1.368 1_655 S
C594 C596 1.425 . S
C594 C602 1.426 . S
C595 H590 0.930 . S
C595 C597 1.390 . S
C595 C598 1.339 1_455 S
C596 C594 1.425 . S
C596 C598 1.416 . S
C596 C629 1.448 . S
C597 H582 0.930 . S
C597 N593 1.334 . S
C597 C595 1.390 . S
C598 C595 1.339 1_655 S
C598 C596 1.416 . S
C598 H605 0.930 . S
N599 Tb564 2.572 . S
N599 C600 1.340 . S
N599 C602 1.361 1_455 S
C600 H586 0.930 . S
C600 N599 1.340 . S
C600 C604 1.407 1_455 S
C601 C602 1.413 . S
C601 C603 1.416 . S
C601 C630 1.427 . S
C602 C594 1.426 . S
C602 N599 1.361 1_655 S
C602 C601 1.413 . S
C603 H592 0.931 . S
C603 C601 1.416 . S
C603 C604 1.332 . S
C604 H583 0.929 . S
C604 C600 1.407 1_655 S
C604 C603 1.332 . S
H605 C598 0.930 . S
H606 C629 0.930 . S
H607 C630 0.929 . S
O608 Tb564 2.465 . S
O608 C628 1.264 . S
O609 Tb564 2.387 1_655 S
O609 C620 1.264 . S
O610 Tb575 2.349 . S
O610 C620 1.243 . S
O611 Tb564 2.428 . S
O611 C628 1.256 . S
O612 Tb564 2.308 . S
O612 C627 1.266 . S
O613 Tb575 2.393 . S
O613 C627 1.248 1_655 S
O614 Tb575 2.465 . S
O614 C639 1.264 . S
O615 Tb575 2.387 1_455 S
O615 C631 1.264 . S
O616 Tb564 2.349 . S
O616 C631 1.243 . S
O617 Tb575 2.428 . S
O617 C639 1.256 . S
O618 Tb575 2.308 . S
O618 C638 1.266 1_655 S
O619 Tb564 2.393 . S
O619 C638 1.248 . S
C620 O609 1.264 . S
C620 O610 1.243 . S
C621 C624 1.399 . S
C621 C626 1.383 . S
C621 C628 1.496 . S
C622 C623 1.399 . S
C622 C626 1.389 . S
C623 C622 1.399 . S
C623 C625 1.380 . S
C623 H640 0.929 . S
C624 C621 1.399 . S
C624 C625 1.392 . S
C624 H641 0.929 . S
C625 C623 1.380 . S
C625 C624 1.392 . S
C625 H642 0.929 . S
C626 C621 1.383 . S
C626 C622 1.389 . S
C626 H643 0.931 . S
C627 O612 1.266 . S
C627 O613 1.248 1_455 S
C628 Tb564 2.802 . S
C628 O608 1.264 . S
C628 O611 1.256 . S
C628 C621 1.496 . S
C629 C596 1.448 . S
C629 H606 0.930 . S
C629 C630 1.328 . S
C630 C601 1.427 . S
C630 H607 0.929 . S
C630 C629 1.328 . S
C631 O615 1.264 . S
C631 O616 1.243 . S
C632 C635 1.399 . S
C632 C636 1.383 . S
C632 C639 1.496 . S
C633 C634 1.399 . S
C633 C636 1.389 . S
C634 C633 1.399 . S
C634 C637 1.380 . S
C634 H644 0.929 . S
C635 C632 1.399 . S
C635 C637 1.392 . S
C635 H645 0.929 . S
C636 C632 1.383 . S
C636 C633 1.389 . S
C636 H646 0.931 . S
C637 C634 1.380 . S
C637 C635 1.392 . S
C637 H647 0.929 . S
C638 O618 1.266 1_455 S
C638 O619 1.248 . S
C639 Tb575 2.802 . S
C639 O614 1.264 . S
C639 O617 1.256 . S
C639 C632 1.496 . S
H640 C623 0.929 . S
H641 C624 0.929 . S
H642 C625 0.929 . S
H643 C626 0.931 . S
H644 C634 0.929 . S
H645 C635 0.929 . S
H646 C636 0.931 . S
H647 C637 0.929 . S
C648 C649 1.387 . S
C648 H652 0.950 . S
C648 C657 1.390 . S
C649 C648 1.387 . S
C649 C651 1.387 . S
H650 C657 0.950 . S
C651 C649 1.387 . S
C651 C653 1.390 . S
C651 H655 0.950 1_545 S
H652 C648 0.950 . S
C653 C651 1.390 . S
C653 C654 1.387 . S
C653 H656 0.950 1_545 S
C654 C653 1.387 . S
C654 C657 1.387 . S
H655 C651 0.950 1_565 S
H656 C653 0.950 1_565 S
C657 C648 1.390 . S
C657 H650 0.950 . S
C657 C654 1.387 . S
C658 C659 1.387 . S
C658 H662 0.950 . S
C658 C667 1.390 . S
C659 C658 1.387 . S
C659 C661 1.387 . S
H660 C667 0.950 . S
C661 C659 1.387 . S
C661 C663 1.390 . S
C661 H665 0.950 . S
H662 C658 0.950 . S
C663 C661 1.390 . S
C663 C664 1.387 . S
C663 H666 0.950 . S
C664 C663 1.387 . S
C664 C667 1.387 . S
H665 C661 0.950 . S
H666 C663 0.950 . S
C667 C658 1.390 . S
C667 H660 0.950 . S
C667 C664 1.387 . S
C668 C669 1.387 . S
C668 H672 0.950 . S
C668 C677 1.390 . S
C669 C668 1.387 . S
C669 C671 1.387 . S
H670 C677 0.950 . S
C671 C669 1.387 . S
C671 C673 1.390 . S
C671 H675 0.950 . S
H672 C668 0.950 . S
C673 C671 1.390 . S
C673 C674 1.387 . S
C673 H676 0.950 . S
C674 C673 1.387 . S
C674 C677 1.387 . S
H675 C671 0.950 . S
H676 C673 0.950 . S
C677 C668 1.390 . S
C677 H670 0.950 . S
C677 C674 1.387 . S
C678 C679 1.387 . S
C678 H682 0.950 . S
C678 C687 1.390 . S
C679 C678 1.387 . S
C679 C681 1.387 . S
H680 C687 0.950 . S
C681 C679 1.387 . S
C681 C683 1.390 . S
C681 H685 0.950 . S
H682 C678 0.950 . S
C683 C681 1.390 . S
C683 C684 1.387 . S
C683 H686 0.950 . S
C684 C683 1.387 . S
C684 C687 1.387 . S
H685 C681 0.950 . S
H686 C683 0.950 . S
C687 C678 1.390 . S
C687 H680 0.950 . S
C687 C684 1.387 . S
C688 C689 1.387 1_545 S
C688 H692 0.950 . S
C688 C697 1.390 1_554 S
C689 C688 1.387 1_565 S
C689 C691 1.387 . S
H690 C697 0.950 . S
C691 C689 1.387 . S
C691 C693 1.390 1_554 S
C691 H695 0.950 . S
H692 C688 0.950 . S
C693 C691 1.390 1_556 S
C693 C694 1.387 . S
C693 H696 0.950 . S
C694 C693 1.387 . S
C694 C697 1.387 1_565 S
H695 C691 0.950 . S
H696 C693 0.950 . S
C697 C688 1.390 1_556 S
C697 H690 0.950 . S
C697 C694 1.387 1_545 S
C698 C699 1.387 . S
C698 H702 0.950 . S
C698 C707 1.390 1_554 S
C699 C698 1.387 . S
C699 C701 1.387 . S
H700 C707 0.950 . S
C701 C699 1.387 . S
C701 C703 1.390 1_554 S
C701 H705 0.950 . S
H702 C698 0.950 . S
C703 C701 1.390 1_556 S
C703 C704 1.387 . S
C703 H706 0.950 . S
C704 C703 1.387 . S
C704 C707 1.387 . S
H705 C701 0.950 . S
H706 C703 0.950 . S
C707 C698 1.390 1_556 S
C707 H700 0.950 . S
C707 C704 1.387 . S
C708 C709 1.387 . S
C708 H712 0.950 . S
C708 C717 1.390 1_554 S
C709 C708 1.387 . S
C709 C711 1.387 . S
H710 C717 0.950 . S
C711 C709 1.387 . S
C711 C713 1.390 1_554 S
C711 H715 0.950 . S
H712 C708 0.950 . S
C713 C711 1.390 1_556 S
C713 C714 1.387 . S
C713 H716 0.950 . S
C714 C713 1.387 . S
C714 C717 1.387 . S
H715 C711 0.950 . S
H716 C713 0.950 . S
C717 C708 1.390 1_556 S
C717 H710 0.950 . S
C717 C714 1.387 . S
C718 C719 1.387 . S
C718 H722 0.950 . S
C718 C727 1.390 1_554 S
C719 C718 1.387 . S
C719 C721 1.387 . S
H720 C727 0.950 . S
C721 C719 1.387 . S
C721 C723 1.390 1_554 S
C721 H725 0.950 . S
H722 C718 0.950 . S
C723 C721 1.390 1_556 S
C723 C724 1.387 . S
C723 H726 0.950 . S
C724 C723 1.387 . S
C724 C727 1.387 . S
H725 C721 0.950 . S
H726 C723 0.950 . S
C727 C718 1.390 1_556 S
C727 H720 0.950 . S
C727 C724 1.387 . S
C728 C729 1.387 . S
C728 H732 0.950 . S
C728 C737 1.390 . S
C729 C728 1.387 . S
C729 C731 1.387 . S
H730 C737 0.950 . S
C731 C729 1.387 . S
C731 C733 1.408 . S
C731 H735 0.950 . S
H732 C728 0.950 . S
C733 C731 1.408 . S
C733 C734 1.382 1_455 S
C733 H736 0.938 1_455 S
C734 C733 1.382 1_655 S
C734 C737 1.387 1_655 S
H735 C731 0.950 . S
H736 C733 0.938 1_655 S
C737 C728 1.390 . S
C737 H730 0.950 . S
C737 C734 1.387 1_455 S
C738 C739 1.387 . S
C738 H742 0.950 . S
C738 C747 1.390 1_545 S
C739 C738 1.387 . S
C739 C741 1.387 . S
H740 C747 0.950 . S
C741 C739 1.387 . S
C741 C743 1.390 . S
C741 H745 0.950 . S
H742 C738 0.950 . S
C743 C741 1.390 . S
C743 C744 1.387 1_545 S
C743 H746 0.950 . S
C744 C743 1.387 1_565 S
C744 C747 1.387 . S
H745 C741 0.950 . S
H746 C743 0.950 . S
C747 C738 1.390 1_565 S
C747 H740 0.950 . S
C747 C744 1.387 . S
C748 C749 1.387 . S
C748 H752 0.950 . S
C748 C757 1.390 . S
C749 C748 1.387 . S
C749 C751 1.387 . S
H750 C757 0.950 . S
C751 C749 1.387 . S
C751 C753 1.390 . S
C751 H755 0.950 . S
H752 C748 0.950 . S
C753 C751 1.390 . S
C753 C754 1.387 . S
C753 H756 0.950 . S
C754 C753 1.387 . S
C754 C757 1.387 . S
H755 C751 0.950 . S
H756 C753 0.950 . S
C757 C748 1.390 . S
C757 H750 0.950 . S
C757 C754 1.387 . S
C758 C759 1.387 . S
C758 H762 0.950 . S
C758 C767 1.390 . S
C759 C758 1.387 . S
C759 C761 1.387 . S
H760 C767 0.950 . S
C761 C759 1.387 . S
C761 C763 1.390 . S
C761 H765 0.950 . S
H762 C758 0.950 . S
C763 C761 1.390 . S
C763 C764 1.387 . S
C763 H766 0.950 . S
C764 C763 1.387 . S
C764 C767 1.387 . S
H765 C761 0.950 . S
H766 C763 0.950 . S
C767 C758 1.390 . S
C767 H760 0.950 . S
C767 C764 1.387 . S
C768 C769 1.387 . S
C768 H772 0.950 . S
C768 C777 1.390 1_655 S
C769 C768 1.387 . S
C769 C771 1.387 1_554 S
H770 C777 0.950 . S
C771 C769 1.387 1_556 S
C771 C773 1.390 1_655 S
C771 H775 0.950 . S
H772 C768 0.950 . S
C773 C771 1.390 1_455 S
C773 C774 1.387 . S
C773 H776 0.950 . S
C774 C773 1.387 . S
C774 C777 1.387 1_556 S
H775 C771 0.950 . S
H776 C773 0.950 . S
C777 C768 1.390 1_455 S
C777 H770 0.950 . S
C777 C774 1.387 1_554 S
C778 C779 1.387 . S
C778 H782 0.950 . S
C778 C787 1.390 1_565 S
C779 C778 1.387 . S
C779 C781 1.387 1_554 S
H780 C787 0.950 . S
C781 C779 1.387 1_556 S
C781 C783 1.390 1_565 S
C781 H785 0.950 . S
H782 C778 0.950 . S
C783 C781 1.390 1_545 S
C783 C784 1.387 . S
C783 H786 0.950 . S
C784 C783 1.387 . S
C784 C787 1.387 1_556 S
H785 C781 0.950 . S
H786 C783 0.950 . S
C787 C778 1.390 1_545 S
C787 H780 0.950 . S
C787 C784 1.387 1_554 S
C788 C789 1.387 1_556 S
C788 H792 0.950 . S
C788 C797 1.390 . S
C789 C788 1.387 1_554 S
C789 C791 1.387 . S
H790 C797 0.950 . S
C791 C789 1.387 . S
C791 C793 1.390 . S
C791 H795 0.950 . S
H792 C788 0.950 . S
C793 C791 1.390 . S
C793 C794 1.387 1_554 S
C793 H796 0.950 . S
C794 C793 1.387 1_556 S
C794 C797 1.387 . S
H795 C791 0.950 . S
H796 C793 0.950 . S
C797 C788 1.390 . S
C797 H790 0.950 . S
C797 C794 1.387 . S
C798 C799 1.387 . S
C798 H802 0.950 . S
C798 C807 1.390 . S
C799 C798 1.387 . S
C799 C801 1.387 1_554 S
H800 C807 0.950 . S
C801 C799 1.387 1_556 S
C801 C803 1.390 . S
C801 H805 0.950 . S
H802 C798 0.950 . S
C803 C801 1.390 . S
C803 C804 1.387 . S
C803 H806 0.950 . S
C804 C803 1.387 . S
C804 C807 1.387 1_556 S
H805 C801 0.950 . S
H806 C803 0.950 . S
C807 C798 1.390 . S
C807 H800 0.950 . S
C807 C804 1.387 1_554 S
C808 C809 1.387 . S
C808 H812 0.948 1_455 S
C808 C817 1.390 . S
C809 C808 1.387 . S
C809 C811 1.387 . S
H810 C817 0.950 1_655 S
C811 C809 1.387 . S
C811 C813 1.390 . S
C811 H815 0.950 . S
H812 C808 0.948 1_655 S
C813 C811 1.390 . S
C813 C814 1.387 . S
C813 H816 0.950 . S
C814 C813 1.387 . S
C814 C817 1.387 . S
H815 C811 0.950 . S
H816 C813 0.950 . S
C817 C808 1.390 . S
C817 H810 0.950 1_455 S
C817 C814 1.387 . S
C818 C819 1.387 . S
C818 H822 0.950 . S
C818 C827 1.390 . S
C819 C818 1.387 . S
C819 C821 1.387 . S
H820 C827 0.950 . S
C821 C819 1.387 . S
C821 C823 1.390 . S
C821 H825 0.950 1_545 S
H822 C818 0.950 . S
C823 C821 1.390 . S
C823 C824 1.387 . S
C823 H826 0.950 1_545 S
C824 C823 1.387 . S
C824 C827 1.387 . S
H825 C821 0.950 1_565 S
H826 C823 0.950 1_565 S
C827 C818 1.390 . S
C827 H820 0.950 . S
C827 C824 1.387 . S
C828 C829 1.387 . S
C828 H832 0.950 . S
C828 C837 1.390 . S
C829 C828 1.387 . S
C829 C831 1.387 . S
H830 C837 0.950 . S
C831 C829 1.387 . S
C831 C833 1.390 . S
C831 H835 0.950 . S
H832 C828 0.950 . S
C833 C831 1.390 . S
C833 C834 1.387 . S
C833 H836 0.950 . S
C834 C833 1.387 . S
C834 C837 1.387 . S
H835 C831 0.950 . S
H836 C833 0.950 . S
C837 C828 1.390 . S
C837 H830 0.950 . S
C837 C834 1.387 . S
C838 C839 1.387 . S
C838 H842 0.950 . S
C838 C847 1.390 . S
C839 C838 1.387 . S
C839 C841 1.387 . S
H840 C847 0.950 . S
C841 C839 1.387 . S
C841 C843 1.390 . S
C841 H845 0.950 . S
H842 C838 0.950 . S
C843 C841 1.390 . S
C843 C844 1.387 . S
C843 H846 0.950 . S
C844 C843 1.387 . S
C844 C847 1.387 . S
H845 C841 0.950 . S
H846 C843 0.950 . S
C847 C838 1.390 . S
C847 H840 0.950 . S
C847 C844 1.387 . S
C848 C849 1.387 . S
C848 H852 0.950 . S
C848 C857 1.390 . S
C849 C848 1.387 . S
C849 C851 1.387 . S
H850 C857 0.950 . S
C851 C849 1.387 . S
C851 C853 1.390 . S
C851 H855 0.950 1_655 S
H852 C848 0.950 . S
C853 C851 1.390 . S
C853 C854 1.387 . S
C853 H856 0.950 1_655 S
C854 C853 1.387 . S
C854 C857 1.387 . S
H855 C851 0.950 1_455 S
H856 C853 0.950 1_455 S
C857 C848 1.390 . S
C857 H850 0.950 . S
C857 C854 1.387 . S
C858 C859 1.387 . S
C858 H862 0.950 . S
C858 C867 1.390 . S
C859 C858 1.387 . S
C859 C861 1.387 . S
H860 C867 0.950 . S
C861 C859 1.387 . S
C861 C863 1.391 . S
C861 H865 0.950 1_565 S
H862 C858 0.950 . S
C863 C861 1.391 . S
C863 C864 1.392 . S
C863 H866 0.945 1_565 S
C864 C863 1.392 . S
C864 C867 1.387 . S
H865 C861 0.950 1_545 S
H866 C863 0.945 1_545 S
C867 C858 1.390 . S
C867 H860 0.950 . S
C867 C864 1.387 . S
C868 C869 1.387 . S
C868 H872 0.950 . S
C868 C877 1.390 . S
C869 C868 1.387 . S
C869 C871 1.387 . S
H870 C877 0.950 . S
C871 C869 1.387 . S
C871 C873 1.390 . S
C871 H875 0.950 . S
H872 C868 0.950 . S
C873 C871 1.390 . S
C873 C874 1.387 . S
C873 H876 0.950 . S
C874 C873 1.387 . S
C874 C877 1.387 . S
H875 C871 0.950 . S
H876 C873 0.950 . S
C877 C868 1.390 . S
C877 H870 0.950 . S
C877 C874 1.387 . S
C878 C879 1.387 . S
C878 H882 0.950 . S
C878 C887 1.390 . S
C879 C878 1.387 . S
C879 C881 1.387 . S
H880 C887 0.950 . S
C881 C879 1.387 . S
C881 C883 1.390 . S
C881 H885 0.950 . S
H882 C878 0.950 . S
C883 C881 1.390 . S
C883 C884 1.387 . S
C883 H886 0.950 . S
C884 C883 1.387 . S
C884 C887 1.387 . S
H885 C881 0.950 . S
H886 C883 0.950 . S
C887 C878 1.390 . S
C887 H880 0.950 . S
C887 C884 1.387 . S
C649 C255 2.591 . S
C654 C375 2.850 . S
C664 C452 2.856 . S
C659 C294 2.585 . S
C674 C543 2.857 . S
C669 C177 2.596 . S
C684 C627 2.840 . S
C679 C216 2.583 . S
C694 C386 2.851 1_565 S
C689 C99 2.599 . S
C699 C138 2.577 . S
C704 C463 2.855 . S
C709 C21 2.604 . S
C714 C554 2.858 . S
C719 C60 2.590 . S
C724 C638 2.840 1_655 S
C734 C370 0.770 . S
C729 C196 0.769 . S
C744 C465 0.761 . S
C739 C235 0.761 . S
C754 C538 0.787 . S
C749 C289 0.781 . S
C759 C157 0.765 . S
C764 C622 0.765 . S
C769 C40 0.769 . S
C774 C381 0.770 . S
C784 C454 0.767 . S
C779 C79 0.765 . S
C794 C549 0.786 . S
C789 C133 0.773 . S
C799 C1 0.762 . S
C804 C633 0.764 . S
C809 C211 2.905 . S
C814 C379 3.311 . S
C819 C250 2.904 . S
C824 C470 3.413 . S
C834 C547 3.333 . S
C829 C274 2.932 . S
C844 C631 3.328 . S
C839 C172 2.921 . S
C849 C55 2.903 . S
C854 C368 3.310 . S
C864 C459 3.412 . S
C859 C94 2.900 . S
C874 C536 3.333 . S
C869 C118 2.930 . S
C879 C16 2.919 . S
C884 C620 3.327 . S
