# Generated by pormake.
# Topology pyr, (3,6)-cn, num edge types: 1
# Building blocks:
#     Node 0, Type 0, BuildingBlock: PAMTOO_clean_linker_0, # of connection points: 3
#     Node 1, Type 0, BuildingBlock: PAMTOO_clean_linker_0, # of connection points: 3
#     Node 2, Type 0, BuildingBlock: PAMTOO_clean_linker_0, # of connection points: 3
#     Node 3, Type 0, BuildingBlock: PAMTOO_clean_linker_0, # of connection points: 3
#     Node 4, Type 0, BuildingBlock: PAMTOO_clean_linker_0, # of connection points: 3
#     Node 5, Type 0, BuildingBlock: PAMTOO_clean_linker_0, # of connection points: 3
#     Node 6, Type 0, BuildingBlock: PAMTOO_clean_linker_0, # of connection points: 3
#     Node 7, Type 0, BuildingBlock: PAMTOO_clean_linker_0, # of connection points: 3
#     Node 8, Type 1, BuildingBlock: VOLQOD_clean_sbu_1, # of connection points: 6
#     Node 9, Type 1, BuildingBlock: VOLQOD_clean_sbu_1, # of connection points: 6
#     Node 10, Type 1, BuildingBlock: VOLQOD_clean_sbu_1, # of connection points: 6
#     Node 11, Type 1, BuildingBlock: VOLQOD_clean_sbu_1, # of connection points: 6
#     Edge 12, Type (0, 1), BuildingBlock: TEMPAE_clean_linker_10, # of connection points: 2
#     Edge 13, Type (0, 1), BuildingBlock: TEMPAE_clean_linker_10, # of connection points: 2
#     Edge 14, Type (0, 1), BuildingBlock: TEMPAE_clean_linker_10, # of connection points: 2
#     Edge 15, Type (0, 1), BuildingBlock: TEMPAE_clean_linker_10, # of connection points: 2
#     Edge 16, Type (0, 1), BuildingBlock: TEMPAE_clean_linker_10, # of connection points: 2
#     Edge 17, Type (0, 1), BuildingBlock: TEMPAE_clean_linker_10, # of connection points: 2
#     Edge 18, Type (0, 1), BuildingBlock: TEMPAE_clean_linker_10, # of connection points: 2
#     Edge 19, Type (0, 1), BuildingBlock: TEMPAE_clean_linker_10, # of connection points: 2
#     Edge 20, Type (0, 1), BuildingBlock: TEMPAE_clean_linker_10, # of connection points: 2
#     Edge 21, Type (0, 1), BuildingBlock: TEMPAE_clean_linker_10, # of connection points: 2
#     Edge 22, Type (0, 1), BuildingBlock: TEMPAE_clean_linker_10, # of connection points: 2
#     Edge 23, Type (0, 1), BuildingBlock: TEMPAE_clean_linker_10, # of connection points: 2
#     Edge 24, Type (0, 1), BuildingBlock: TEMPAE_clean_linker_10, # of connection points: 2
#     Edge 25, Type (0, 1), BuildingBlock: TEMPAE_clean_linker_10, # of connection points: 2
#     Edge 26, Type (0, 1), BuildingBlock: TEMPAE_clean_linker_10, # of connection points: 2
#     Edge 27, Type (0, 1), BuildingBlock: TEMPAE_clean_linker_10, # of connection points: 2
#     Edge 28, Type (0, 1), BuildingBlock: TEMPAE_clean_linker_10, # of connection points: 2
#     Edge 29, Type (0, 1), BuildingBlock: TEMPAE_clean_linker_10, # of connection points: 2
#     Edge 30, Type (0, 1), BuildingBlock: TEMPAE_clean_linker_10, # of connection points: 2
#     Edge 31, Type (0, 1), BuildingBlock: TEMPAE_clean_linker_10, # of connection points: 2
#     Edge 32, Type (0, 1), BuildingBlock: TEMPAE_clean_linker_10, # of connection points: 2
#     Edge 33, Type (0, 1), BuildingBlock: TEMPAE_clean_linker_10, # of connection points: 2
#     Edge 34, Type (0, 1), BuildingBlock: TEMPAE_clean_linker_10, # of connection points: 2
#     Edge 35, Type (0, 1), BuildingBlock: TEMPAE_clean_linker_10, # of connection points: 2
# Relax obj value: 0.120
# Max RMSD: 0.196
# Mean RMSD: 0.161
data_MOF--net-pry--node1-VOLQOD_clean_sbu_1--node2-PAMTOO_clean_linker_0--edge1-TEMPAE_clean_linker_10
_symmetry_space_group_name_H-M    P1
_symmetry_Int_Tables_number       1
_symmetry_cell_setting            triclinic
loop_
_symmetry_equiv_pos_as_xyz
'x, y, z'
_cell_length_a     36.667953
_cell_length_b     37.870564
_cell_length_c     37.630243
_cell_angle_alpha  90.030777
_cell_angle_beta   91.125825
_cell_angle_gamma 95.396697
loop_
_atom_site_label
_atom_site_type_symbol
_atom_site_fract_x
_atom_site_fract_y
_atom_site_fract_z
_atom_type_partial_charge
H0 H 0.10227 0.17846 0.18892 0.0
H1 H 0.18391 0.10329 0.19074 0.0
H2 H 0.18248 0.17942 0.10689 0.0
H3 H 0.19489 0.10319 0.0851 0.0
C4 C 0.20978 0.09609 0.10976 0.0
O5 O 0.21421 0.12527 0.13198 0.0
H6 H 0.19344 0.07388 0.12316 0.0
C7 C 0.12556 0.1674 0.1774 0.0
C8 C 0.14075 0.18247 0.14629 0.0
C9 C 0.14084 0.13866 0.19393 0.0
C10 C 0.17106 0.12488 0.17831 0.0
C11 C 0.18544 0.13908 0.14671 0.0
C12 C 0.17062 0.16807 0.13095 0.0
H13 H 0.37081 0.94149 0.6821 0.0
H14 H 0.36703 0.86456 0.59702 0.0
H15 H 0.45061 0.86541 0.67809 0.0
H16 H 0.47705 0.85021 0.60911 0.0
C17 C 0.45188 0.83681 0.59627 0.0
O18 O 0.42365 0.83421 0.62011 0.0
H19 H 0.44405 0.85275 0.57297 0.0
C20 C 0.38162 0.91933 0.66898 0.0
C21 C 0.41255 0.90524 0.6838 0.0
C22 C 0.36484 0.90517 0.63743 0.0
C23 C 0.37991 0.87679 0.62069 0.0
C24 C 0.4109 0.86284 0.63519 0.0
C25 C 0.42719 0.87704 0.66662 0.0
H26 H 0.68842 0.34824 0.95544 0.0
H27 H 0.58823 0.35714 0.8962 0.0
H28 H 0.67696 0.439 0.88876 0.0
H29 H 0.60885 0.46648 0.88232 0.0
C30 C 0.59197 0.44455 0.8684 0.0
O31 O 0.61191 0.4158 0.86435 0.0
H32 H 0.56729 0.43666 0.88433 0.0
C33 C 0.67192 0.36323 0.93782 0.0
C34 C 0.68663 0.39586 0.92429 0.0
C35 C 0.63648 0.34917 0.92797 0.0
C36 C 0.61512 0.3684 0.90512 0.0
C37 C 0.62983 0.40073 0.89105 0.0
C38 C 0.66539 0.41458 0.9008 0.0
H39 H 0.87099 0.67041 0.46004 0.0
H40 H 0.87132 0.5807 0.38997 0.0
H41 H 0.9492 0.67089 0.37576 0.0
H42 H 0.90277 0.6404 0.31405 0.0
C43 C 0.90775 0.61212 0.31837 0.0
O44 O 0.9248 0.60867 0.35108 0.0
H45 H 0.88089 0.59582 0.31788 0.0
C46 C 0.88272 0.65756 0.43781 0.0
C47 C 0.91255 0.67492 0.41981 0.0
C48 C 0.86763 0.62363 0.42725 0.0
C49 C 0.88318 0.60653 0.39899 0.0
C50 C 0.9124 0.62377 0.38047 0.0
C51 C 0.92717 0.65767 0.39097 0.0
H52 H 0.88827 0.95688 0.86932 0.0
H53 H 0.90135 0.88505 0.95675 0.0
H54 H 0.97213 0.88491 0.8677 0.0
H55 H 0.93572 0.81678 0.88771 0.0
C56 C 0.9363 0.81965 0.91717 0.0
O57 O 0.95236 0.85284 0.92666 0.0
H58 H 0.9074 0.81669 0.92612 0.0
C59 C 0.90281 0.93679 0.88246 0.0
C60 C 0.93241 0.92365 0.86525 0.0
C61 C 0.89117 0.92335 0.91568 0.0
C62 C 0.90977 0.89629 0.93141 0.0
C63 C 0.93846 0.88222 0.91385 0.0
C64 C 0.9503 0.89644 0.8813 0.0
H65 H 0.69968 0.07168 0.36359 0.0
H66 H 0.60272 0.12759 0.37051 0.0
H67 H 0.6823 0.13494 0.45563 0.0
H68 H 0.60577 0.1355 0.47837 0.0
C69 C 0.59456 0.14952 0.45519 0.0
O70 O 0.62177 0.15792 0.43105 0.0
H71 H 0.57211 0.13164 0.44263 0.0
C72 C 0.68262 0.08839 0.37803 0.0
C73 C 0.69446 0.10143 0.41171 0.0
C74 C 0.64934 0.09733 0.36276 0.0
C75 C 0.62829 0.11997 0.38164 0.0
C76 C 0.64026 0.13344 0.41493 0.0
C77 C 0.67301 0.12387 0.4301 0.0
H78 H 0.41794 0.64196 0.04258 0.0
H79 H 0.41196 0.55954 0.12192 0.0
H80 H 0.4974 0.64376 0.12855 0.0
H81 H 0.52232 0.57158 0.14542 0.0
C82 C 0.49572 0.55939 0.15549 0.0
O83 O 0.47071 0.5843 0.15605 0.0
H84 H 0.48577 0.53699 0.13754 0.0
C85 C 0.42853 0.63013 0.06637 0.0
C86 C 0.45932 0.64738 0.08414 0.0
C87 C 0.41035 0.59878 0.07996 0.0
C88 C 0.42558 0.58307 0.10995 0.0
C89 C 0.45764 0.5987 0.12626 0.0
C90 C 0.47415 0.63092 0.11381 0.0
H91 H 0.1131 0.3555 0.66943 0.0
H92 H 0.11503 0.46535 0.63987 0.0
H93 H 0.13386 0.3877 0.56123 0.0
H94 H 0.1508 0.50049 0.59374 0.0
C95 C 0.15292 0.48287 0.57035 0.0
O96 O 0.12652 0.45446 0.57245 0.0
H97 H 0.14668 0.49874 0.54657 0.0
C98 C 0.11719 0.37611 0.64956 0.0
C99 C 0.12341 0.36693 0.61409 0.0
C100 C 0.11493 0.41165 0.65939 0.0
C101 C 0.11844 0.43804 0.63317 0.0
C102 C 0.12588 0.42938 0.59805 0.0
C103 C 0.12894 0.39406 0.5887 0.0
O104 O 0.03302 0.09466 0.56144 0.0
Zn105 Zn 0.00595 0.04617 0.55397 0.0
O106 O 0.03438 0.01622 0.52452 0.0
Zn107 Zn 0.00703 0.00285 0.48072 0.0
Zn108 Zn 0.08138 0.04221 0.51286 0.0
Zn109 Zn 0.04322 0.97298 0.55016 0.0
O110 O 0.0001 0.9498 0.47378 0.0
O111 O 0.02135 0.92922 0.52452 0.0
O112 O 0.95654 0.05257 0.5307 0.0
O113 O 0.95687 0.01981 0.48171 0.0
O114 O 0.03241 0.02477 0.43804 0.0
O115 O 0.08569 0.04899 0.45986 0.0
O116 O 0.12415 0.01706 0.53125 0.0
O117 O 0.99708 0.02416 0.60252 0.0
O118 O 0.09718 0.96854 0.55619 0.0
O119 O 0.02166 0.9729 0.59875 0.0
C120 C 0.06448 0.10854 0.55239 0.0
C121 C 0.00609 0.92398 0.49406 0.0
C122 C 0.0637 0.04167 0.43368 0.0
C123 C 0.94081 0.03966 0.50243 0.0
C124 C 0.12598 0.98787 0.54772 0.0
C125 C 0.00461 0.99482 0.61614 0.0
O126 O 0.08575 0.09119 0.53427 0.0
O127 O 0.54075 0.07835 0.98332 0.0
Zn128 Zn 0.51794 0.02877 0.98904 0.0
O129 O 0.54959 0.00091 0.01783 0.0
Zn130 Zn 0.56416 0.96281 0.98802 0.0
Zn131 Zn 0.5934 0.0306 0.03408 0.0
Zn132 Zn 0.52297 0.98137 0.05929 0.0
O133 O 0.55033 0.91581 0.01037 0.0
O134 O 0.5206 0.92778 0.05919 0.0
O135 O 0.50725 0.00816 0.94001 0.0
O136 O 0.53915 0.96128 0.94002 0.0
O137 O 0.61849 0.96747 0.98078 0.0
O138 O 0.63968 0.01231 0.01585 0.0
O139 O 0.59723 0.03239 0.08747 0.0
O140 O 0.46991 0.03193 0.01281 0.0
O141 O 0.54793 0.99912 0.10525 0.0
O142 O 0.47146 0.99663 0.05982 0.0
C143 C 0.56934 0.09556 0.99641 0.0
C144 C 0.533 0.90566 0.03806 0.0
C145 C 0.64502 0.98759 0.99412 0.0
C146 C 0.51753 0.98098 0.92456 0.0
C147 C 0.5772 0.01899 0.11221 0.0
C148 C 0.45485 0.01759 0.0401 0.0
O149 O 0.59156 0.08083 0.01678 0.0
O150 O 0.54891 0.51217 0.59481 0.0
Zn151 Zn 0.55059 0.5278 0.54385 0.0
O152 O 0.5196 0.49427 0.51394 0.0
Zn153 Zn 0.54992 0.4748 0.47829 0.0
Zn154 Zn 0.49653 0.4552 0.54261 0.0
Zn155 Zn 0.48179 0.51938 0.49022 0.0
O156 O 0.53215 0.48495 0.4291 0.0
O157 O 0.48619 0.51809 0.43688 0.0
O158 O 0.60335 0.53273 0.52819 0.0
O159 O 0.60186 0.49666 0.4816 0.0
O160 O 0.54995 0.4221 0.48308 0.0
O161 O 0.51126 0.40751 0.52642 0.0
O162 O 0.441 0.45393 0.54021 0.0
O163 O 0.53286 0.57654 0.54237 0.0
O164 O 0.43174 0.49771 0.50289 0.0
O165 O 0.48448 0.57055 0.50578 0.0
C166 C 0.53288 0.48558 0.61073 0.0
C167 C 0.50728 0.50289 0.41652 0.0
C168 C 0.53317 0.39881 0.50275 0.0
C169 C 0.61926 0.51896 0.50253 0.0
C170 C 0.4194 0.47255 0.52306 0.0
C171 C 0.50623 0.58948 0.52643 0.0
O172 O 0.51254 0.4617 0.594 0.0
O173 O 0.00785 0.49385 0.08491 0.0
Zn174 Zn 0.01443 0.46894 0.03864 0.0
O175 O 0.04785 0.49768 0.00792 0.0
Zn176 Zn 0.0216 0.51257 0.96586 0.0
Zn177 Zn 0.06881 0.53968 0.03446 0.0
Zn178 Zn 0.08632 0.46926 0.99216 0.0
O179 O 0.04255 0.49582 0.9205 0.0
O180 O 0.0853 0.46213 0.93908 0.0
O181 O 0.96425 0.46029 0.01563 0.0
O182 O 0.96926 0.49242 0.96632 0.0
O183 O 0.02203 0.56544 0.96392 0.0
O184 O 0.05588 0.58512 0.0106 0.0
O185 O 0.12374 0.5401 0.03799 0.0
O186 O 0.03387 0.42199 0.05025 0.0
O187 O 0.13569 0.49369 0.00524 0.0
O188 O 0.08233 0.42129 0.01578 0.0
C189 C 0.02363 0.52158 0.09971 0.0
C190 C 0.06706 0.47518 0.91399 0.0
C191 C 0.0366 0.59091 0.98302 0.0
C192 C 0.95033 0.47201 0.9872 0.0
C193 C 0.14631 0.52074 0.02414 0.0
C194 C 0.06071 0.40658 0.03864 0.0
O195 O 0.04859 0.54099 0.08399 0.0
C196 C 0.11578 0.14611 0.25487 0.0
C197 C 0.12636 0.1237 0.22799 0.0
C198 C 0.10416 0.13247 0.28787 0.0
C199 C 0.10355 0.0956 0.29434 0.0
C200 C 0.11359 0.07276 0.26719 0.0
C201 C 0.12458 0.08704 0.23428 0.0
C202 C 0.09326 0.15762 0.31608 0.0
C203 C 0.11345 0.03331 0.27314 0.0
C204 C 0.1106 0.06627 0.39053 0.0
C205 C 0.07411 0.0543 0.39769 0.0
C206 C 0.1206 0.07938 0.35688 0.0
C207 C 0.09338 0.08103 0.32987 0.0
C208 C 0.05653 0.06893 0.33686 0.0
C209 C 0.04738 0.05548 0.3706 0.0
C210 C 0.16029 0.09158 0.35026 0.0
C211 C 0.02669 0.07069 0.30885 0.0
H212 H 0.1175 0.17449 0.2505 0.0
H213 H 0.13202 0.06942 0.21348 0.0
H214 H 0.06553 0.14874 0.3258 0.0
H215 H 0.11253 0.15757 0.33917 0.0
H216 H 0.09322 0.18524 0.30616 0.0
H217 H 0.12152 0.01911 0.24911 0.0
H218 H 0.13269 0.02824 0.29529 0.0
H219 H 0.08579 0.02194 0.28096 0.0
H220 H 0.13144 0.06532 0.41125 0.0
H221 H 0.01907 0.04652 0.37596 0.0
H222 H 0.16306 0.12011 0.34311 0.0
H223 H 0.17022 0.07678 0.32748 0.0
H224 H 0.17822 0.08775 0.37381 0.0
H225 H 0.02521 0.09859 0.30037 0.0
H226 H 0.99938 0.06011 0.3185 0.0
H227 H 0.03309 0.05538 0.285 0.0
C228 C 0.406 0.92011 0.74779 0.0
C229 C 0.42842 0.91877 0.71819 0.0
C230 C 0.42075 0.93123 0.78106 0.0
C231 C 0.45871 0.94194 0.78458 0.0
C232 C 0.48132 0.94144 0.75451 0.0
C233 C 0.46594 0.92943 0.72171 0.0
C234 C 0.39588 0.93068 0.81261 0.0
C235 C 0.52176 0.95331 0.75708 0.0
C236 C 0.48943 0.99695 0.8662 0.0
C237 C 0.5034 0.97145 0.88835 0.0
C238 C 0.47554 0.98792 0.83199 0.0
C239 C 0.4749 0.95241 0.82003 0.0
C240 C 0.48893 0.92657 0.8423 0.0
C241 C 0.50335 0.93648 0.87603 0.0
C242 C 0.46146 0.01634 0.80871 0.0
C243 C 0.48809 0.88828 0.83078 0.0
H244 H 0.37702 0.91152 0.74506 0.0
H245 H 0.48318 0.92857 0.6987 0.0
H246 H 0.40533 0.91246 0.8332 0.0
H247 H 0.39704 0.95746 0.82476 0.0
H248 H 0.36693 0.92196 0.80529 0.0
H249 H 0.53509 0.95319 0.73083 0.0
H250 H 0.52604 0.98049 0.76838 0.0
H251 H 0.53561 0.93559 0.77531 0.0
H252 H 0.48962 0.02407 0.87548 0.0
H253 H 0.51387 0.91657 0.89311 0.0
H254 H 0.43183 0.00989 0.80281 0.0
H255 H 0.47571 0.0174 0.78293 0.0
H256 H 0.46543 0.04299 0.82132 0.0
H257 H 0.4594 0.87742 0.82505 0.0
H258 H 0.50003 0.87144 0.8513 0.0
H259 H 0.5035 0.88633 0.8059 0.0
C260 C 0.60877 0.46282 0.80637 0.0
C261 C 0.5816 0.45696 0.83193 0.0
C262 C 0.59959 0.46977 0.77093 0.0
C263 C 0.56242 0.47202 0.76111 0.0
C264 C 0.53512 0.46849 0.78733 0.0
C265 C 0.54502 0.46065 0.82249 0.0
C266 C 0.62946 0.4729 0.74372 0.0
C267 C 0.49536 0.4718 0.77799 0.0
C268 C 0.54686 0.51261 0.67057 0.0
C269 C 0.53841 0.48227 0.6495 0.0
C270 C 0.55324 0.50979 0.7073 0.0
C271 C 0.55211 0.47579 0.72304 0.0
C272 C 0.5432 0.4451 0.70193 0.0
C273 C 0.53598 0.44875 0.66545 0.0
C274 C 0.56172 0.54312 0.72913 0.0
C275 C 0.5425 0.40835 0.71763 0.0
H276 H 0.63712 0.46034 0.81389 0.0
H277 H 0.52407 0.45654 0.84239 0.0
H278 H 0.62454 0.45107 0.72401 0.0
H279 H 0.62912 0.49821 0.72897 0.0
H280 H 0.65713 0.47169 0.75596 0.0
H281 H 0.47824 0.47228 0.80199 0.0
H282 H 0.49258 0.49635 0.76248 0.0
H283 H 0.48448 0.44908 0.76106 0.0
H284 H 0.54834 0.53861 0.65835 0.0
H285 H 0.5296 0.42525 0.64919 0.0
H286 H 0.59032 0.54447 0.73956 0.0
H287 H 0.54353 0.54274 0.75238 0.0
H288 H 0.55837 0.56749 0.71344 0.0
H289 H 0.57002 0.40409 0.7287 0.0
H290 H 0.53445 0.38725 0.6977 0.0
H291 H 0.52302 0.40551 0.73986 0.0
C292 C 0.92633 0.61425 0.2546 0.0
C293 C 0.93043 0.59984 0.28856 0.0
C294 C 0.94412 0.60133 0.22534 0.0
C295 C 0.96654 0.57317 0.23013 0.0
C296 C 0.97121 0.55876 0.26446 0.0
C297 C 0.95266 0.57193 0.29323 0.0
C298 C 0.93797 0.61708 0.18908 0.0
C299 C 0.99507 0.52887 0.27062 0.0
C300 C 0.97765 0.51726 0.1481 0.0
C301 C 0.01097 0.53263 0.13486 0.0
C302 C 0.96342 0.52957 0.17962 0.0
C303 C 0.98319 0.55761 0.19871 0.0
C304 C 0.01758 0.57223 0.18636 0.0
C305 C 0.03095 0.55975 0.15442 0.0
C306 C 0.92645 0.51351 0.19169 0.0
C307 C 0.03972 0.60177 0.20632 0.0
H308 H 0.90848 0.63526 0.25081 0.0
H309 H 0.95521 0.56009 0.31926 0.0
H310 H 0.96459 0.6265 0.17725 0.0
H311 H 0.92438 0.59645 0.17107 0.0
H312 H 0.92072 0.63965 0.19009 0.0
H313 H 0.99827 0.52262 0.2993 0.0
H314 H 0.98292 0.50465 0.25664 0.0
H315 H 0.02262 0.53579 0.2595 0.0
H316 H 0.96195 0.49635 0.13317 0.0
H317 H 0.05685 0.57159 0.14454 0.0
H318 H 0.90662 0.53392 0.19081 0.0
H319 H 0.92833 0.50439 0.2196 0.0
H320 H 0.91544 0.49071 0.17484 0.0
H321 H 0.02502 0.62607 0.2055 0.0
H322 H 0.0673 0.60807 0.19497 0.0
H323 H 0.04301 0.59447 0.23468 0.0
C324 C 0.27859 0.09435 0.11932 0.0
C325 C 0.24623 0.08361 0.10006 0.0
C326 C 0.31215 0.08234 0.10989 0.0
C327 C 0.31327 0.05841 0.0811 0.0
C328 C 0.28054 0.04657 0.06236 0.0
C329 C 0.24744 0.05937 0.07206 0.0
C330 C 0.34653 0.09573 0.13038 0.0
C331 C 0.28056 0.02066 0.03185 0.0
C332 C 0.40352 0.05629 0.03398 0.0
C333 C 0.41792 0.02687 0.04974 0.0
C334 C 0.36943 0.06666 0.04384 0.0
C335 C 0.34893 0.04689 0.06976 0.0
C336 C 0.36288 0.01674 0.08529 0.0
C337 C 0.39736 0.00723 0.07528 0.0
C338 C 0.35568 0.09922 0.02697 0.0
C339 C 0.34152 0.99472 0.11266 0.0
H340 H 0.27789 0.11241 0.14157 0.0
H341 H 0.22232 0.05051 0.05768 0.0
H342 H 0.35999 0.0731 0.14167 0.0
H343 H 0.36626 0.11006 0.11221 0.0
H344 H 0.34092 0.11389 0.15239 0.0
H345 H 0.25252 0.01278 0.02113 0.0
H346 H 0.29747 0.03264 0.01005 0.0
H347 H 0.29304 0.99645 0.04059 0.0
H348 H 0.41925 0.07177 0.01437 0.0
H349 H 0.40821 0.98438 0.08746 0.0
H350 H 0.35179 0.11923 0.04777 0.0
H351 H 0.32864 0.09226 0.01378 0.0
H352 H 0.37482 0.11151 0.00699 0.0
H353 H 0.33757 0.01113 0.13645 0.0
H354 H 0.35549 0.97123 0.12108 0.0
H355 H 0.31389 0.9855 0.10182 0.0
C356 C 0.32485 0.92137 0.58596 0.0
C357 C 0.3309 0.91904 0.62283 0.0
C358 C 0.29232 0.93308 0.57197 0.0
C359 C 0.26545 0.94333 0.59537 0.0
C360 C 0.27166 0.94179 0.63254 0.0
C361 C 0.30407 0.92932 0.6458 0.0
C362 C 0.28645 0.93395 0.53216 0.0
C363 C 0.2438 0.95284 0.65838 0.0
C364 C 0.19298 0.00115 0.56144 0.0
C365 C 0.16218 0.97637 0.55802 0.0
C366 C 0.22692 0.99075 0.57325 0.0
C367 C 0.23025 0.95462 0.58113 0.0
C368 C 0.19952 0.92934 0.57669 0.0
C369 C 0.16578 0.94058 0.56553 0.0
C370 C 0.25893 0.01854 0.57827 0.0
C371 C 0.20215 0.89048 0.58418 0.0
H372 H 0.34558 0.91405 0.56795 0.0
H373 H 0.308 0.92701 0.67428 0.0
H374 H 0.2616 0.91639 0.52449 0.0
H375 H 0.28176 0.96117 0.5235 0.0
H376 H 0.31013 0.9253 0.51758 0.0
H377 H 0.25374 0.95203 0.68642 0.0
H378 H 0.23695 0.98014 0.65231 0.0
H379 H 0.2181 0.93502 0.65562 0.0
H380 H 0.19031 0.02888 0.55587 0.0
H381 H 0.14215 0.92125 0.56263 0.0
H382 H 0.28259 0.01141 0.56275 0.0
H383 H 0.26776 0.01969 0.60666 0.0
H384 H 0.25213 0.04534 0.56997 0.0
H385 H 0.22463 0.88067 0.56874 0.0
H386 H 0.17627 0.87397 0.57744 0.0
H387 H 0.20878 0.88673 0.61274 0.0
C388 C 0.75259 0.38563 0.92922 0.0
C389 C 0.72513 0.40868 0.93269 0.0
C390 C 0.78914 0.39671 0.93798 0.0
C391 C 0.79834 0.43161 0.95077 0.0
C392 C 0.77075 0.45514 0.95407 0.0
C393 C 0.73438 0.44342 0.94471 0.0
C394 C 0.81789 0.37105 0.9336 0.0
C395 C 0.77962 0.49245 0.96789 0.0
C396 C 0.88751 0.44651 0.0037 0.0
C397 C 0.91128 0.46208 0.97819 0.0
C398 C 0.85039 0.43724 0.99538 0.0
C399 C 0.83693 0.44331 0.96062 0.0
C400 C 0.86072 0.45913 0.93479 0.0
C401 C 0.89758 0.46849 0.94394 0.0
C402 C 0.82565 0.42067 0.02366 0.0
C403 C 0.8474 0.46557 0.89732 0.0
H404 H 0.74545 0.3589 0.9194 0.0
H405 H 0.71303 0.46113 0.94751 0.0
H406 H 0.83945 0.38242 0.91551 0.0
H407 H 0.83139 0.36652 0.95962 0.0
H408 H 0.80622 0.34504 0.92273 0.0
H409 H 0.75501 0.50742 0.96878 0.0
H410 H 0.79184 0.49172 0.99506 0.0
H411 H 0.80022 0.50707 0.95083 0.0
H412 H 0.89783 0.44174 0.03029 0.0
H413 H 0.91579 0.48043 0.92403 0.0
H414 H 0.815 0.39342 0.01551 0.0
H415 H 0.80167 0.43614 0.0268 0.0
H416 H 0.84 0.41927 0.04983 0.0
H417 H 0.83736 0.43996 0.88459 0.0
H418 H 0.86923 0.47895 0.88066 0.0
H419 H 0.82403 0.48215 0.89771 0.0
C420 C 0.83077 0.57254 0.45574 0.0
C421 C 0.8335 0.60757 0.44342 0.0
C422 C 0.79761 0.55659 0.4689 0.0
C423 C 0.76635 0.57593 0.46882 0.0
C424 C 0.76923 0.61153 0.45691 0.0
C425 C 0.80288 0.62701 0.44467 0.0
C426 C 0.79577 0.51885 0.4821 0.0
C427 C 0.73641 0.63283 0.45569 0.0
C428 C 0.67163 0.52665 0.46099 0.0
C429 C 0.65801 0.53088 0.49517 0.0
C430 C 0.70714 0.5405 0.45235 0.0
C431 C 0.72996 0.55839 0.47871 0.0
C432 C 0.71698 0.56144 0.51368 0.0
C433 C 0.68097 0.54801 0.52141 0.0
C434 C 0.71967 0.53725 0.41457 0.0
C435 C 0.74083 0.57964 0.54267 0.0
H436 H 0.85457 0.55761 0.45491 0.0
H437 H 0.8049 0.65398 0.43473 0.0
H438 H 0.78346 0.51694 0.50882 0.0
H439 H 0.77792 0.50138 0.46402 0.0
H440 H 0.82323 0.50872 0.48363 0.0
H441 H 0.74357 0.66056 0.44684 0.0
H442 H 0.71523 0.62006 0.43715 0.0
H443 H 0.72401 0.63345 0.48229 0.0
H444 H 0.65402 0.51363 0.4405 0.0
H445 H 0.6707 0.55113 0.54793 0.0
H446 H 0.74566 0.52448 0.41411 0.0
H447 H 0.72513 0.56405 0.40282 0.0
H448 H 0.69902 0.52155 0.39751 0.0
H449 H 0.76778 0.56855 0.54402 0.0
H450 H 0.72799 0.57682 0.56914 0.0
H451 H 0.7461 0.6083 0.5366 0.0
C452 C 0.14885 0.24641 0.13057 0.0
C453 C 0.1266 0.21431 0.13062 0.0
C454 C 0.13613 0.27708 0.11582 0.0
C455 C 0.10065 0.27527 0.09994 0.0
C456 C 0.07815 0.24272 0.09976 0.0
C457 C 0.09127 0.21264 0.11558 0.0
C458 C 0.16067 0.31142 0.11728 0.0
C459 C 0.04053 0.23956 0.08239 0.0
C460 C 0.05796 0.36226 0.08798 0.0
C461 C 0.06816 0.37166 0.05327 0.0
C462 C 0.06781 0.33064 0.10335 0.0
C463 C 0.08749 0.30747 0.0832 0.0
C464 C 0.09645 0.31613 0.04762 0.0
C465 C 0.08713 0.34836 0.03325 0.0
C466 C 0.05847 0.32276 0.14162 0.0
C467 C 0.11662 0.29171 0.02497 0.0
H468 H 0.17611 0.24754 0.14248 0.0
H469 H 0.07426 0.18762 0.1156 0.0
H470 H 0.1671 0.32065 0.08995 0.0
H471 H 0.14636 0.33231 0.13036 0.0
H472 H 0.18682 0.30865 0.13196 0.0
H473 H 0.02659 0.2123 0.08433 0.0
H474 H 0.02314 0.25829 0.09496 0.0
H475 H 0.0427 0.24687 0.0539 0.0
H476 H 0.04353 0.38032 0.10365 0.0
H477 H 0.09479 0.35539 0.0063 0.0
H478 H 0.08409 0.32227 0.15775 0.0
H479 H 0.04317 0.2962 0.14383 0.0
H480 H 0.0418 0.34276 0.15319 0.0
H481 H 0.14472 0.29025 0.03597 0.0
H482 H 0.11866 0.30079 0.99695 0.0
H483 H 0.10256 0.26446 0.02536 0.0
C484 C 0.5918 0.30504 0.95723 0.0
C485 C 0.62396 0.31256 0.93818 0.0
C486 C 0.58092 0.27021 0.96802 0.0
C487 C 0.6024 0.24252 0.95872 0.0
C488 C 0.63447 0.25007 0.93874 0.0
C489 C 0.64502 0.2851 0.92898 0.0
C490 C 0.54687 0.26309 0.98976 0.0
C491 C 0.65767 0.22117 0.92769 0.0
C492 C 0.59941 0.15617 0.00978 0.0
C493 C 0.57673 0.13349 0.9876 0.0
C494 C 0.60676 0.19219 0.00144 0.0
C495 C 0.59169 0.20552 0.96982 0.0
C496 C 0.56848 0.18282 0.94752 0.0
C497 C 0.561 0.14711 0.95687 0.0
C498 C 0.63118 0.21582 0.02612 0.0
C499 C 0.55254 0.19595 0.91321 0.0
H500 H 0.57571 0.3265 0.96431 0.0
H501 H 0.66972 0.2911 0.91387 0.0
H502 H 0.52704 0.24357 0.97592 0.0
H503 H 0.554 0.2513 0.01569 0.0
H504 H 0.53327 0.28757 0.99479 0.0
H505 H 0.68113 0.23144 0.9112 0.0
H506 H 0.66855 0.20822 0.95157 0.0
H507 H 0.64071 0.20044 0.91232 0.0
H508 H 0.61128 0.14582 0.03378 0.0
H509 H 0.54353 0.12963 0.93958 0.0
H510 H 0.61752 0.23975 0.03313 0.0
H511 H 0.65693 0.22501 0.01256 0.0
H512 H 0.63827 0.20203 0.05101 0.0
H513 H 0.53735 0.21936 0.91833 0.0
H514 H 0.53371 0.17527 0.89966 0.0
H515 H 0.57501 0.20455 0.89489 0.0
C516 C 0.9652 0.72155 0.4299 0.0
C517 C 0.92736 0.7115 0.43019 0.0
C518 C 0.9794 0.75605 0.43945 0.0
C519 C 0.95523 0.78098 0.44998 0.0
C520 C 0.91707 0.77104 0.45039 0.0
C521 C 0.90359 0.73655 0.44024 0.0
C522 C 0.02025 0.7658 0.43842 0.0
C523 C 0.89043 0.79681 0.46168 0.0
C524 C 0.99205 0.85942 0.5072 0.0
C525 C 0.99435 0.8872 0.48244 0.0
C526 C 0.97965 0.82467 0.49692 0.0
C527 C 0.96978 0.81741 0.46093 0.0
C528 C 0.97276 0.84515 0.43565 0.0
C529 C 0.98476 0.87977 0.44675 0.0
C530 C 0.9764 0.79586 0.52474 0.0
C531 C 0.96296 0.83831 0.39693 0.0
H532 H 0.98382 0.70231 0.42257 0.0
H533 H 0.87428 0.72934 0.43984 0.0
H534 H 0.02631 0.78913 0.42095 0.0
H535 H 0.03094 0.77339 0.4654 0.0
H536 H 0.03521 0.74367 0.42858 0.0
H537 H 0.86162 0.78474 0.46103 0.0
H538 H 0.89741 0.80645 0.48905 0.0
H539 H 0.89251 0.82029 0.44396 0.0
H540 H 0.99924 0.86493 0.53486 0.0
H541 H 0.9867 0.90103 0.4274 0.0
H542 H 0.99277 0.77394 0.51719 0.0
H543 H 0.94744 0.78456 0.52637 0.0
H544 H 0.98581 0.80576 0.55148 0.0
H545 H 0.97892 0.81726 0.3864 0.0
H546 H 0.96829 0.86246 0.38039 0.0
H547 H 0.93354 0.82864 0.39408 0.0
C548 C 0.45714 0.77169 0.60812 0.0
C549 C 0.45997 0.80033 0.58439 0.0
C550 C 0.46495 0.73778 0.59738 0.0
C551 C 0.47699 0.73261 0.56239 0.0
C552 C 0.48103 0.76165 0.53866 0.0
C553 C 0.47245 0.79519 0.54997 0.0
C554 C 0.46013 0.70745 0.62343 0.0
C555 C 0.49451 0.75731 0.5014 0.0
C556 C 0.52718 0.65055 0.54857 0.0
C557 C 0.49953 0.62683 0.53334 0.0
C558 C 0.52057 0.68544 0.55708 0.0
C559 C 0.48528 0.6967 0.5508 0.0
C560 C 0.45743 0.67309 0.53489 0.0
C561 C 0.46497 0.63853 0.52608 0.0
C562 C 0.55117 0.71005 0.57343 0.0
C563 C 0.41932 0.68398 0.5282 0.0
H564 H 0.44852 0.77574 0.63509 0.0
H565 H 0.47553 0.81751 0.5319 0.0
H566 H 0.44057 0.68597 0.61225 0.0
H567 H 0.48663 0.69612 0.62808 0.0
H568 H 0.44984 0.71578 0.64941 0.0
H569 H 0.4968 0.78269 0.48646 0.0
H570 H 0.52175 0.74679 0.50234 0.0
H571 H 0.47556 0.73776 0.48656 0.0
H572 H 0.55404 0.64179 0.554 0.0
H573 H 0.4434 0.62033 0.51447 0.0
H574 H 0.54412 0.717 0.60094 0.0
H575 H 0.55474 0.73514 0.55814 0.0
H576 H 0.57766 0.69801 0.57431 0.0
H577 H 0.40694 0.69033 0.55383 0.0
H578 H 0.40108 0.66287 0.51459 0.0
H579 H 0.42051 0.70831 0.5117 0.0
C580 C 0.91609 0.93818 0.80249 0.0
C581 C 0.94291 0.93655 0.82936 0.0
C582 C 0.92564 0.94892 0.76796 0.0
C583 C 0.96287 0.95863 0.76026 0.0
C584 C 0.98999 0.95773 0.78749 0.0
C585 C 0.9797 0.9464 0.82169 0.0
C586 C 0.896 0.949 0.73953 0.0
C587 C 0.0299 0.96831 0.78039 0.0
C588 C 0.99307 0.95068 0.66495 0.0
C589 C 0.99355 0.9858 0.65295 0.0
C590 C 0.98296 0.94151 0.69973 0.0
C591 C 0.97358 0.96818 0.72332 0.0
C592 C 0.97417 0.00372 0.7115 0.0
C593 C 0.98388 0.01208 0.67634 0.0
C594 C 0.98214 0.90322 0.71117 0.0
C595 C 0.96476 0.03292 0.73606 0.0
H596 H 0.88767 0.93013 0.80827 0.0
H597 H 0.0004 0.94537 0.84254 0.0
H598 H 0.89644 0.97561 0.72716 0.0
H599 H 0.90112 0.92995 0.7182 0.0
H600 H 0.86825 0.94169 0.75013 0.0
H601 H 0.04729 0.96796 0.80488 0.0
H602 H 0.04002 0.94994 0.76069 0.0
H603 H 0.03326 0.99533 0.76881 0.0
H604 H 0.00029 0.93016 0.64701 0.0
H605 H 0.98439 0.0393 0.66734 0.0
H606 H 0.95433 0.89366 0.72021 0.0
H607 H 0.00136 0.9008 0.73399 0.0
H608 H 0.98972 0.88561 0.68943 0.0
H609 H 0.93638 0.02718 0.74557 0.0
H610 H 0.96708 0.05929 0.72295 0.0
H611 H 0.98325 0.03419 0.75982 0.0
C612 C 0.64237 0.04927 0.31628 0.0
C613 C 0.63734 0.08406 0.32669 0.0
C614 C 0.6323 0.03688 0.28195 0.0
C615 C 0.61646 0.05969 0.25751 0.0
C616 C 0.6107 0.0946 0.26801 0.0
C617 C 0.6214 0.10642 0.30234 0.0
C618 C 0.63905 0.99953 0.27168 0.0
C619 C 0.59372 0.11969 0.24277 0.0
C620 C 0.62281 0.04386 0.15824 0.0
C621 C 0.58772 0.02766 0.14972 0.0
C622 C 0.63275 0.05367 0.19333 0.0
C623 C 0.60687 0.04751 0.22058 0.0
C624 C 0.57156 0.03075 0.2123 0.0
C625 C 0.56247 0.02084 0.177 0.0
C626 C 0.67083 0.07109 0.20116 0.0
C627 C 0.54311 0.02403 0.24059 0.0
H628 H 0.65413 0.03161 0.33504 0.0
H629 H 0.61792 0.13351 0.30984 0.0
H630 H 0.61298 0.98452 0.26295 0.0
H631 H 0.65786 0.00017 0.2489 0.0
H632 H 0.65119 0.98498 0.29392 0.0
H633 H 0.58956 0.14542 0.25556 0.0
H634 H 0.61157 0.12496 0.21953 0.0
H635 H 0.56687 0.10745 0.23256 0.0
H636 H 0.6426 0.04904 0.13741 0.0
H637 H 0.53526 0.00845 0.17068 0.0
H638 H 0.68444 0.05616 0.22215 0.0
H639 H 0.66918 0.09837 0.21136 0.0
H640 H 0.68823 0.07259 0.17727 0.0
H641 H 0.55393 0.00821 0.26253 0.0
H642 H 0.51731 0.00976 0.23002 0.0
H643 H 0.53669 0.04964 0.25215 0.0
C644 C 0.52478 0.56541 0.21632 0.0
C645 C 0.50045 0.54625 0.1927 0.0
C646 C 0.52618 0.55636 0.2524 0.0
C647 C 0.5024 0.52768 0.26505 0.0
C648 C 0.47821 0.50785 0.24112 0.0
C649 C 0.47734 0.51758 0.20518 0.0
C650 C 0.55225 0.5782 0.27715 0.0
C651 C 0.4525 0.4771 0.25368 0.0
C652 C 0.52661 0.48997 0.35482 0.0
C653 C 0.50413 0.50738 0.37752 0.0
C654 C 0.52573 0.4957 0.31803 0.0
C655 C 0.50189 0.51945 0.30359 0.0
C656 C 0.47848 0.53645 0.32617 0.0
C657 C 0.47984 0.53017 0.36287 0.0
C658 C 0.55093 0.47697 0.2947 0.0
C659 C 0.45267 0.56198 0.31165 0.0
H660 H 0.54202 0.58807 0.20665 0.0
H661 H 0.45798 0.50332 0.18692 0.0
H662 H 0.5365 0.59169 0.29712 0.0
H663 H 0.56996 0.56077 0.29187 0.0
H664 H 0.57001 0.59863 0.26279 0.0
H665 H 0.43703 0.4631 0.23133 0.0
H666 H 0.46803 0.45779 0.26837 0.0
H667 H 0.43261 0.4868 0.27235 0.0
H668 H 0.54537 0.47218 0.36582 0.0
H669 H 0.46235 0.54371 0.38015 0.0
H670 H 0.57074 0.49676 0.28195 0.0
H671 H 0.53494 0.46236 0.2731 0.0
H672 H 0.56651 0.45797 0.30986 0.0
H673 H 0.4686 0.585 0.29933 0.0
H674 H 0.43527 0.57195 0.33257 0.0
H675 H 0.4346 0.54892 0.29056 0.0
C676 C 0.12763 0.45058 0.71288 0.0
C677 C 0.10786 0.42113 0.69677 0.0
C678 C 0.12139 0.45982 0.74821 0.0
C679 C 0.09472 0.43911 0.76788 0.0
C680 C 0.07461 0.4094 0.75176 0.0
C681 C 0.08141 0.40077 0.71638 0.0
C682 C 0.14342 0.49167 0.76453 0.0
C683 C 0.04584 0.38677 0.77185 0.0
C684 C 0.10085 0.44299 0.86872 0.0
C685 C 0.07434 0.46611 0.87659 0.0
C686 C 0.10781 0.43403 0.83345 0.0
C687 C 0.08782 0.44855 0.80536 0.0
C688 C 0.06111 0.47196 0.81305 0.0
C689 C 0.05468 0.48045 0.84855 0.0
C690 C 0.13649 0.40895 0.82625 0.0
C691 C 0.03927 0.48799 0.78378 0.0
H692 H 0.14837 0.46617 0.69795 0.0
H693 H 0.06565 0.3783 0.7039 0.0
H694 H 0.1248 0.51109 0.77373 0.0
H695 H 0.15904 0.48343 0.78818 0.0
H696 H 0.16298 0.5051 0.74557 0.0
H697 H 0.03274 0.36446 0.75551 0.0
H698 H 0.05831 0.37573 0.79602 0.0
H699 H 0.02426 0.40324 0.78075 0.0
H700 H 0.11619 0.43175 0.89013 0.0
H701 H 0.03416 0.49835 0.85428 0.0
H702 H 0.15795 0.42201 0.80903 0.0
H703 H 0.12386 0.38522 0.81175 0.0
H704 H 0.14979 0.4001 0.85106 0.0
H705 H 0.05802 0.50333 0.76543 0.0
H706 H 0.0196 0.50584 0.79421 0.0
H707 H 0.02378 0.46665 0.76793 0.0
C708 C 0.8497 0.97096 0.92865 0.0
C709 C 0.85789 0.93561 0.93223 0.0
C710 C 0.81641 0.9818 0.94045 0.0
C711 C 0.79108 0.95696 0.95714 0.0
C712 C 0.79999 0.9218 0.96268 0.0
C713 C 0.83298 0.91143 0.94975 0.0
C714 C 0.80767 0.0194 0.9336 0.0
C715 C 0.77399 0.89469 0.98101 0.0
C716 C 0.71215 0.98936 0.00831 0.0
C717 C 0.68277 0.98165 0.98428 0.0
C718 C 0.74771 0.98165 -0.00014 0.0
C719 C 0.75406 0.96679 0.96625 0.0
C720 C 0.72464 0.96008 0.94148 0.0
C721 C 0.68928 0.96714 0.95099 0.0
C722 C 0.77822 0.98834 0.02725 0.0
C723 C 0.73043 0.94505 0.90505 0.0
H724 H 0.86901 0.99012 0.91593 0.0
H725 H 0.8385 0.88394 0.95227 0.0
H726 H 0.78395 0.01922 0.91479 0.0
H727 H 0.79973 0.03194 0.95858 0.0
H728 H 0.83114 0.03602 0.92219 0.0
H729 H 0.78674 0.86981 0.98691 0.0
H730 H 0.76465 0.90563 0.00627 0.0
H731 H 0.74935 0.88808 0.96385 0.0
H732 H 0.7071 0.00035 0.03417 0.0
H733 H 0.66666 0.96147 0.93223 0.0
H734 H 0.80132 0.00552 0.01604 0.0
H735 H 0.7889 0.96285 0.03471 0.0
H736 H 0.76902 0.0011 0.05167 0.0
H737 H 0.75238 0.96165 0.89132 0.0
H738 H 0.70514 0.94352 0.88814 0.0
H739 H 0.73946 0.91801 0.90758 0.0
C740 C 0.73189 0.07761 0.46085 0.0
C741 C 0.73002 0.09281 0.42701 0.0
C742 C 0.76544 0.06874 0.47531 0.0
C743 C 0.79788 0.07606 0.45573 0.0
C744 C 0.79613 0.09214 0.42183 0.0
C745 C 0.76213 0.09995 0.40771 0.0
C746 C 0.76607 0.0509 0.51115 0.0
C747 C 0.83017 0.10099 0.40042 0.0
C748 C 0.89077 0.08034 0.50323 0.0
C749 C 0.90334 0.04816 0.49276 0.0
C750 C 0.85626 0.08968 0.49173 0.0
C751 C 0.83354 0.06585 0.47 0.0
C752 C 0.84558 0.03275 0.46054 0.0
C753 C 0.8805 0.02451 0.47166 0.0
C754 C 0.84466 0.1255 0.50178 0.0
C755 C 0.82183 0.00625 0.43813 0.0
H756 H 0.70695 0.072 0.47565 0.0
H757 H 0.76063 0.11207 0.38168 0.0
H758 H 0.77648 0.02447 0.50845 0.0
H759 H 0.78502 0.0667 0.52969 0.0
H760 H 0.73851 0.04739 0.52311 0.0
H761 H 0.82437 0.11516 0.37539 0.0
H762 H 0.85085 0.11778 0.41639 0.0
H763 H 0.84256 0.0763 0.39359 0.0
H764 H 0.90844 0.09878 0.51937 0.0
H765 H 0.88997 0.99943 0.4638 0.0
H766 H 0.81782 0.12239 0.51506 0.0
H767 H 0.84114 0.14145 0.47743 0.0
H768 H 0.86496 0.14049 0.51976 0.0
H769 H 0.79443 0.00096 0.45007 0.0
H770 H 0.83412 0.9807 0.43531 0.0
H771 H 0.81764 0.01731 0.41123 0.0
C772 C 0.34894 0.60842 0.05286 0.0
C773 C 0.37359 0.58484 0.06555 0.0
C774 C 0.31297 0.59641 0.04274 0.0
C775 C 0.30071 0.56015 0.04673 0.0
C776 C 0.32547 0.53595 0.0585 0.0
C777 C 0.3618 0.54849 0.06713 0.0
C778 C 0.28762 0.62289 0.02929 0.0
C779 C 0.31313 0.49716 0.06373 0.0
C780 C 0.19903 0.54299 0.06312 0.0
C781 C 0.18583 0.52984 0.0301 0.0
C782 C 0.23662 0.55166 0.06924 0.0
C783 C 0.26129 0.54827 0.04121 0.0
C784 C 0.24803 0.53513 0.00772 0.0
C785 C 0.2104 0.52546 0.00274 0.0
C786 C 0.24988 0.56466 0.10563 0.0
C787 C 0.27336 0.53236 0.97689 0.0
H788 H 0.35709 0.63664 0.05211 0.0
H789 H 0.38066 0.52984 0.07605 0.0
H790 H 0.27266 0.61276 0.00489 0.0
H791 H 0.2669 0.62694 0.04961 0.0
H792 H 0.3026 0.64902 0.02327 0.0
H793 H 0.33624 0.48145 0.0711 0.0
H794 H 0.29265 0.49434 0.08512 0.0
H795 H 0.29956 0.48571 0.0392 0.0
H796 H 0.17996 0.54598 0.08434 0.0
H797 H 0.20002 0.51548 0.97711 0.0
H798 H 0.26182 0.59261 0.10398 0.0
H799 H 0.27182 0.54874 0.11564 0.0
H800 H 0.2275 0.56312 0.1252 0.0
H801 H 0.28628 0.55912 0.97011 0.0
H802 H 0.25879 0.52069 0.95286 0.0
H803 H 0.29576 0.51588 0.98428 0.0
C804 C 0.21955 0.48782 0.58861 0.0
C805 C 0.1912 0.4718 0.56695 0.0
C806 C 0.25622 0.48268 0.58224 0.0
C807 C 0.26471 0.46089 0.55353 0.0
C808 C 0.23599 0.44297 0.53285 0.0
C809 C 0.1995 0.44894 0.53959 0.0
C810 C 0.28595 0.50248 0.60482 0.0
C811 C 0.24387 0.41912 0.50236 0.0
C812 C 0.3559 0.48938 0.51177 0.0
C813 C 0.37922 0.46666 0.52818 0.0
C814 C 0.31837 0.48681 0.51884 0.0
C815 C 0.30352 0.46065 0.5427 0.0
C816 C 0.32645 0.4365 0.55809 0.0
C817 C 0.3641 0.43988 0.55078 0.0
C818 C 0.29493 0.51321 0.50192 0.0
C819 C 0.31146 0.40794 0.58325 0.0
H820 H 0.21315 0.50567 0.60964 0.0
H821 H 0.17753 0.43679 0.52269 0.0
H822 H 0.30575 0.48416 0.61465 0.0
H823 H 0.30135 0.52298 0.58846 0.0
H824 H 0.27476 0.51574 0.628 0.0
H825 H 0.2188 0.40293 0.49266 0.0
H826 H 0.25517 0.43551 0.48 0.0
H827 H 0.26472 0.4011 0.51038 0.0
H828 H 0.36713 0.51007 0.49412 0.0
H829 H 0.38179 0.42203 0.56342 0.0
H830 H 0.28443 0.53006 0.52282 0.0
H831 H 0.27086 0.49916 0.488 0.0
H832 H 0.31028 0.53073 0.48256 0.0
H833 H 0.30354 0.42025 0.60836 0.0
H834 H 0.33178 0.38879 0.58967 0.0
H835 H 0.28644 0.39323 0.57164 0.0
C836 C 0.99243 0.78616 0.92069 0.0
C837 C 0.95734 0.79092 0.9328 0.0
C838 C 0.0102 0.7564 0.931 0.0
C839 C 0.99224 0.73081 0.95373 0.0
C840 C 0.95768 0.73667 0.96762 0.0
C841 C 0.94067 0.76671 0.95702 0.0
C842 C 0.0472 0.75132 0.91594 0.0
C843 C 0.93759 0.71008 0.99192 0.0
C844 C 0.00766 0.63385 0.94348 0.0
C845 C 0.02877 0.62766 0.97397 0.0
C846 C 0.99672 0.66758 0.93607 0.0
C847 C 0.0072 0.69604 0.95963 0.0
C848 C 0.02978 0.69045 0.98968 0.0
C849 C 0.04026 0.65627 0.99655 0.0
C850 C 0.97269 0.67239 0.90368 0.0
C851 C 0.04175 0.72023 0.01522 0.0
H852 H 0.00526 0.805 0.902 0.0
H853 H 0.91357 0.77047 0.9665 0.0
H854 H 0.06624 0.74351 0.93717 0.0
H855 H 0.04424 0.72957 0.89602 0.0
H856 H 0.05962 0.77571 0.90283 0.0
H857 H 0.91272 0.72017 0.00309 0.0
H858 H 0.92916 0.68531 0.97693 0.0
H859 H 0.95581 0.70312 0.0142 0.0
H860 H 0.9988 0.61207 0.92568 0.0
H861 H 0.05665 0.65184 0.02013 0.0
H862 H 0.98499 0.69438 0.88703 0.0
H863 H 0.94551 0.67964 0.91207 0.0
H864 H 0.96849 0.64802 0.88709 0.0
H865 H 0.05366 0.74384 0.00055 0.0
H866 H 0.06226 0.7125 0.03516 0.0
H867 H 0.01762 0.72819 0.02949 0.0
C868 C 0.44815 0.70854 0.06426 0.0
C869 C 0.47309 0.68423 0.07433 0.0
C870 C 0.45992 0.74408 0.05751 0.0
C871 C 0.49748 0.75593 0.06172 0.0
C872 C 0.52296 0.73164 0.07149 0.0
C873 C 0.5105 0.69596 0.07738 0.0
C874 C 0.43197 0.76911 0.04661 0.0
C875 C 0.5632 0.74351 0.07652 0.0
C876 C 0.52862 0.84287 0.0171 0.0
C877 C 0.52611 0.86721 0.04489 0.0
C878 C 0.52025 0.80642 0.02242 0.0
C879 C 0.5097 0.794 0.05647 0.0
C880 C 0.50834 0.81828 0.08494 0.0
C881 C 0.51624 0.85469 0.07873 0.0
C882 C 0.52132 0.78138 0.99127 0.0
C883 C 0.49774 0.80586 0.12177 0.0
H884 H 0.4191 0.70012 0.06266 0.0
H885 H 0.53003 0.67735 0.08476 0.0
H886 H 0.43052 0.78969 0.06739 0.0
H887 H 0.44027 0.78296 0.02166 0.0
H888 H 0.40416 0.7552 0.04245 0.0
H889 H 0.57955 0.7212 0.08364 0.0
H890 H 0.57422 0.75606 0.05185 0.0
H891 H 0.56697 0.76382 0.09788 0.0
H892 H 0.53608 0.85237 0.99082 0.0
H893 H 0.5146 0.87336 0.10035 0.0
H894 H 0.4933 0.76885 0.98523 0.0
H895 H 0.53868 0.75976 0.99791 0.0
H896 H 0.53205 0.79507 0.96699 0.0
H897 H 0.46878 0.79431 0.1214 0.0
H898 H 0.50085 0.82776 0.14157 0.0
H899 H 0.51482 0.7847 0.1306 0.0
C900 C 0.13484 0.30336 0.625 0.0
C901 C 0.12048 0.32897 0.60321 0.0
C902 C 0.12839 0.26705 0.61701 0.0
C903 C 0.10725 0.25612 0.58638 0.0
C904 C 0.09394 0.28187 0.56353 0.0
C905 C 0.1006 0.31794 0.57228 0.0
C906 C 0.14313 0.24036 0.64196 0.0
C907 C 0.07143 0.27129 0.53052 0.0
C908 C 0.10917 0.16282 0.54966 0.0
C909 C 0.07627 0.14587 0.56237 0.0
C910 C 0.11993 0.19854 0.55771 0.0
C911 C 0.09736 0.21776 0.57911 0.0
C912 C 0.06451 0.20066 0.5926 0.0
C913 C 0.05433 0.16498 0.58402 0.0
C914 C 0.15508 0.21591 0.54274 0.0
C915 C 0.03979 0.22025 0.61566 0.0
H916 H 0.15065 0.31169 0.64868 0.0
H917 H 0.08889 0.33743 0.55555 0.0
H918 H 0.12002 0.22407 0.65428 0.0
H919 H 0.15915 0.22202 0.62707 0.0
H920 H 0.16087 0.25322 0.66346 0.0
H921 H 0.06529 0.29457 0.51428 0.0
H922 H 0.08607 0.25326 0.51383 0.0
H923 H 0.04514 0.2566 0.53815 0.0
H924 H 0.12635 0.14836 0.53292 0.0
H925 H 0.02896 0.15214 0.59411 0.0
H926 H 0.17311 0.22775 0.56449 0.0
H927 H 0.1489 0.23781 0.52467 0.0
H928 H 0.1703 0.19693 0.52775 0.0
H929 H 0.0554 0.23182 0.63911 0.0
H930 H 0.01591 0.20279 0.62511 0.0
H931 H 0.02951 0.24253 0.60051 0.0
C932 C 0.55088 0.19673 0.44905 0.0
C933 C 0.58036 0.18344 0.46719 0.0
C934 C 0.54042 0.23056 0.45686 0.0
C935 C 0.56033 0.25171 0.48305 0.0
C936 C 0.58954 0.23797 0.50208 0.0
C937 C 0.59932 0.20401 0.49378 0.0
C938 C 0.50915 0.24427 0.43597 0.0
C939 C 0.61159 0.25975 0.53002 0.0
C940 C 0.56458 0.35159 0.47246 0.0
C941 C 0.53964 0.361 0.49785 0.0
C942 C 0.57142 0.31616 0.46743 0.0
C943 C 0.55284 0.28929 0.48822 0.0
C944 C 0.52753 0.29845 0.51381 0.0
C945 C 0.52123 0.33422 0.51836 0.0
C946 C 0.59868 0.3075 0.43988 0.0
C947 C 0.50717 0.27047 0.53638 0.0
H948 H 0.53668 0.18102 0.42804 0.0
H949 H 0.62255 0.1939 0.5073 0.0
H950 H 0.48937 0.25484 0.4542 0.0
H951 H 0.51984 0.26644 0.41867 0.0
H952 H 0.49433 0.22339 0.41898 0.0
H953 H 0.63131 0.24413 0.54448 0.0
H954 H 0.62712 0.28276 0.5173 0.0
H955 H 0.59314 0.2704 0.54956 0.0
H956 H 0.57899 0.37198 0.45645 0.0
H957 H 0.5019 0.34116 0.53801 0.0
H958 H 0.58519 0.28882 0.41988 0.0
H959 H 0.62121 0.2942 0.45268 0.0
H960 H 0.61077 0.3315 0.42586 0.0
H961 H 0.4912 0.25063 0.51912 0.0
H962 H 0.48816 0.28189 0.55489 0.0
H963 H 0.52695 0.25612 0.55214 0.0
loop_
_geom_bond_atom_site_label_1
_geom_bond_atom_site_label_2
_geom_bond_distance
_geom_bond_site_symmetry_2
_ccdc_geom_bond_type
H0 C7 0.929 . S
H1 C10 0.930 . S
H2 C12 0.929 . S
H3 C4 0.969 . S
C4 H3 0.969 . S
C4 O5 1.550 . S
C4 H6 0.973 . S
O5 C4 1.550 . S
O5 C11 1.412 . S
H6 C4 0.973 . S
C7 H0 0.929 . S
C7 C8 1.400 . S
C7 C9 1.364 . S
C8 C7 1.400 . S
C8 C12 1.377 . S
C9 C7 1.364 . S
C9 C10 1.374 . S
C10 H1 0.930 . S
C10 C9 1.374 . S
C10 C11 1.383 . S
C11 O5 1.412 . S
C11 C10 1.383 . S
C11 C12 1.394 . S
C12 H2 0.929 . S
C12 C8 1.377 . S
C12 C11 1.394 . S
H13 C20 0.929 . S
H14 C23 0.930 . S
H15 C25 0.929 . S
H16 C17 0.969 . S
C17 H16 0.969 . S
C17 O18 1.550 . S
C17 H19 0.973 . S
O18 C17 1.550 . S
O18 C24 1.412 . S
H19 C17 0.973 . S
C20 H13 0.929 . S
C20 C21 1.400 . S
C20 C22 1.364 . S
C21 C20 1.400 . S
C21 C25 1.377 . S
C22 C20 1.364 . S
C22 C23 1.374 . S
C23 H14 0.930 . S
C23 C22 1.374 . S
C23 C24 1.383 . S
C24 O18 1.412 . S
C24 C23 1.383 . S
C24 C25 1.394 . S
C25 H15 0.929 . S
C25 C21 1.377 . S
C25 C24 1.394 . S
H26 C33 0.929 . S
H27 C36 0.930 . S
H28 C38 0.929 . S
H29 C30 0.969 . S
C30 H29 0.969 . S
C30 O31 1.550 . S
C30 H32 0.973 . S
O31 C30 1.550 . S
O31 C37 1.412 . S
H32 C30 0.973 . S
C33 H26 0.929 . S
C33 C34 1.400 . S
C33 C35 1.364 . S
C34 C33 1.400 . S
C34 C38 1.377 . S
C35 C33 1.364 . S
C35 C36 1.374 . S
C36 H27 0.930 . S
C36 C35 1.374 . S
C36 C37 1.383 . S
C37 O31 1.412 . S
C37 C36 1.383 . S
C37 C38 1.394 . S
C38 H28 0.929 . S
C38 C34 1.377 . S
C38 C37 1.394 . S
H39 C46 0.929 . S
H40 C49 0.930 . S
H41 C51 0.929 . S
H42 C43 0.969 . S
C43 H42 0.969 . S
C43 O44 1.550 . S
C43 H45 0.973 . S
O44 C43 1.550 . S
O44 C50 1.412 . S
H45 C43 0.973 . S
C46 H39 0.929 . S
C46 C47 1.400 . S
C46 C48 1.364 . S
C47 C46 1.400 . S
C47 C51 1.377 . S
C48 C46 1.364 . S
C48 C49 1.374 . S
C49 H40 0.930 . S
C49 C48 1.374 . S
C49 C50 1.383 . S
C50 O44 1.412 . S
C50 C49 1.383 . S
C50 C51 1.394 . S
C51 H41 0.929 . S
C51 C47 1.377 . S
C51 C50 1.394 . S
H52 C59 0.929 . S
H53 C62 0.930 . S
H54 C64 0.929 . S
H55 C56 0.969 . S
C56 H55 0.969 . S
C56 O57 1.550 . S
C56 H58 0.973 . S
O57 C56 1.550 . S
O57 C63 1.412 . S
H58 C56 0.973 . S
C59 H52 0.929 . S
C59 C60 1.400 . S
C59 C61 1.364 . S
C60 C59 1.400 . S
C60 C64 1.377 . S
C61 C59 1.364 . S
C61 C62 1.374 . S
C62 H53 0.930 . S
C62 C61 1.374 . S
C62 C63 1.383 . S
C63 O57 1.412 . S
C63 C62 1.383 . S
C63 C64 1.394 . S
C64 H54 0.929 . S
C64 C60 1.377 . S
C64 C63 1.394 . S
H65 C72 0.929 . S
H66 C75 0.930 . S
H67 C77 0.929 . S
H68 C69 0.969 . S
C69 H68 0.969 . S
C69 O70 1.550 . S
C69 H71 0.973 . S
O70 C69 1.550 . S
O70 C76 1.412 . S
H71 C69 0.973 . S
C72 H65 0.929 . S
C72 C73 1.400 . S
C72 C74 1.364 . S
C73 C72 1.400 . S
C73 C77 1.377 . S
C74 C72 1.364 . S
C74 C75 1.374 . S
C75 H66 0.930 . S
C75 C74 1.374 . S
C75 C76 1.383 . S
C76 O70 1.412 . S
C76 C75 1.383 . S
C76 C77 1.394 . S
C77 H67 0.929 . S
C77 C73 1.377 . S
C77 C76 1.394 . S
H78 C85 0.929 . S
H79 C88 0.930 . S
H80 C90 0.929 . S
H81 C82 0.969 . S
C82 H81 0.969 . S
C82 O83 1.550 . S
C82 H84 0.973 . S
O83 C82 1.550 . S
O83 C89 1.412 . S
H84 C82 0.973 . S
C85 H78 0.929 . S
C85 C86 1.400 . S
C85 C87 1.364 . S
C86 C85 1.400 . S
C86 C90 1.377 . S
C87 C85 1.364 . S
C87 C88 1.374 . S
C88 H79 0.930 . S
C88 C87 1.374 . S
C88 C89 1.383 . S
C89 O83 1.412 . S
C89 C88 1.383 . S
C89 C90 1.394 . S
C90 H80 0.929 . S
C90 C86 1.377 . S
C90 C89 1.394 . S
H91 C98 0.929 . S
H92 C101 0.930 . S
H93 C103 0.929 . S
H94 C95 0.969 . S
C95 H94 0.969 . S
C95 O96 1.550 . S
C95 H97 0.973 . S
O96 C95 1.550 . S
O96 C102 1.412 . S
H97 C95 0.973 . S
C98 H91 0.929 . S
C98 C99 1.400 . S
C98 C100 1.364 . S
C99 C98 1.400 . S
C99 C103 1.377 . S
C100 C98 1.364 . S
C100 C101 1.374 . S
C101 H92 0.930 . S
C101 C100 1.374 . S
C101 C102 1.383 . S
C102 O96 1.412 . S
C102 C101 1.383 . S
C102 C103 1.394 . S
C103 H93 0.929 . S
C103 C99 1.377 . S
C103 C102 1.394 . S
O104 Zn105 1.953 1_455 S
O104 C120 1.225 . S
Zn105 O104 1.953 1_655 S
Zn105 O106 1.949 1_655 S
Zn105 O112 1.919 . S
Zn105 O117 1.924 . S
O106 Zn105 1.949 1_455 S
O106 Zn107 1.924 1_455 S
O106 Zn108 1.950 . S
O106 Zn109 1.945 1_545 S
Zn107 O106 1.924 1_655 S
Zn107 O110 1.929 1_545 S
Zn107 O113 1.943 . S
Zn107 O114 1.967 1_655 S
Zn108 O106 1.950 . S
Zn108 O115 1.938 . S
Zn108 O116 1.906 . S
Zn108 O126 1.953 . S
Zn109 O106 1.945 1_565 S
Zn109 O111 1.932 1_455 S
Zn109 O118 1.977 . S
Zn109 O119 1.910 . S
O110 Zn107 1.929 1_565 S
O110 C121 1.226 . S
O111 Zn109 1.932 1_655 S
O111 C121 1.307 . S
O112 Zn105 1.919 . S
O112 C123 1.253 . S
O113 Zn107 1.943 . S
O113 C123 1.283 . S
O114 Zn107 1.967 1_455 S
O114 C122 1.303 . S
O115 Zn108 1.938 . S
O115 C122 1.247 . S
O116 Zn108 1.906 . S
O116 C124 1.304 1_545 S
O117 Zn105 1.924 . S
O117 C125 1.311 . S
O118 Zn109 1.977 . S
O118 C124 1.272 . S
O119 Zn109 1.910 . S
O119 C125 1.231 1_465 S
C120 O104 1.225 . S
C120 O126 1.298 . S
C121 O110 1.226 . S
C121 O111 1.307 . S
C122 O114 1.303 . S
C122 O115 1.247 . S
C123 O112 1.253 . S
C123 O113 1.283 . S
C124 O116 1.304 1_565 S
C124 O118 1.272 . S
C125 O117 1.311 . S
C125 O119 1.231 1_645 S
O126 Zn108 1.953 . S
O126 C120 1.298 . S
O127 Zn128 1.953 . S
O127 C143 1.225 . S
Zn128 O127 1.953 . S
Zn128 O129 1.949 1_556 S
Zn128 O135 1.919 . S
Zn128 O140 1.924 . S
O129 Zn128 1.949 1_554 S
O129 Zn130 1.923 1_544 S
O129 Zn131 1.950 . S
O129 Zn132 1.945 1_545 S
Zn130 O129 1.923 1_566 S
Zn130 O133 1.933 1_556 S
Zn130 O136 1.941 . S
Zn130 O137 1.965 . S
Zn131 O129 1.950 . S
Zn131 O138 1.938 . S
Zn131 O139 1.906 . S
Zn131 O149 1.953 . S
Zn132 O129 1.945 1_565 S
Zn132 O134 1.932 . S
Zn132 O141 1.977 1_565 S
Zn132 O142 1.910 1_565 S
O133 Zn130 1.933 1_554 S
O133 C144 1.226 . S
O134 Zn132 1.932 . S
O134 C144 1.307 . S
O135 Zn128 1.919 . S
O135 C146 1.253 1_545 S
O136 Zn130 1.941 . S
O136 C146 1.283 . S
O137 Zn130 1.965 . S
O137 C145 1.303 . S
O138 Zn131 1.938 . S
O138 C145 1.247 1_544 S
O139 Zn131 1.906 . S
O139 C147 1.304 . S
O140 Zn128 1.924 . S
O140 C148 1.311 1_556 S
O141 Zn132 1.977 1_545 S
O141 C147 1.272 . S
O142 Zn132 1.910 1_545 S
O142 C148 1.231 . S
C143 O127 1.225 . S
C143 O149 1.298 1_556 S
C144 O133 1.226 . S
C144 O134 1.307 . S
C145 O137 1.303 . S
C145 O138 1.247 1_566 S
C146 O135 1.253 1_565 S
C146 O136 1.283 . S
C147 O139 1.304 . S
C147 O141 1.272 . S
C148 O140 1.311 1_554 S
C148 O142 1.231 . S
O149 Zn131 1.953 . S
O149 C143 1.298 1_554 S
O150 Zn151 1.953 . S
O150 C166 1.225 . S
Zn151 O150 1.953 . S
Zn151 O152 1.949 . S
Zn151 O158 1.919 . S
Zn151 O163 1.924 . S
O152 Zn151 1.949 . S
O152 Zn153 1.923 . S
O152 Zn154 1.950 . S
O152 Zn155 1.945 . S
Zn153 O152 1.923 . S
Zn153 O156 1.933 . S
Zn153 O159 1.941 . S
Zn153 O160 1.965 . S
Zn154 O152 1.950 . S
Zn154 O161 1.938 . S
Zn154 O162 1.906 . S
Zn154 O172 1.953 . S
Zn155 O152 1.945 . S
Zn155 O157 1.932 . S
Zn155 O164 1.977 . S
Zn155 O165 1.910 . S
O156 Zn153 1.933 . S
O156 C167 1.226 . S
O157 Zn155 1.932 . S
O157 C167 1.307 . S
O158 Zn151 1.919 . S
O158 C169 1.253 . S
O159 Zn153 1.941 . S
O159 C169 1.283 . S
O160 Zn153 1.965 . S
O160 C168 1.303 . S
O161 Zn154 1.938 . S
O161 C168 1.247 . S
O162 Zn154 1.906 . S
O162 C170 1.304 . S
O163 Zn151 1.924 . S
O163 C171 1.311 . S
O164 Zn155 1.977 . S
O164 C170 1.272 . S
O165 Zn155 1.910 . S
O165 C171 1.231 . S
C166 O150 1.225 . S
C166 O172 1.298 . S
C167 O156 1.226 . S
C167 O157 1.307 . S
C168 O160 1.303 . S
C168 O161 1.247 . S
C169 O158 1.253 . S
C169 O159 1.283 . S
C170 O162 1.304 . S
C170 O164 1.272 . S
C171 O163 1.311 . S
C171 O165 1.231 . S
O172 Zn154 1.953 . S
O172 C166 1.298 . S
O173 Zn174 1.953 1_655 S
O173 C189 1.225 1_655 S
Zn174 O173 1.953 1_455 S
Zn174 O175 1.949 . S
Zn174 O181 1.919 1_455 S
Zn174 O186 1.924 . S
O175 Zn174 1.949 . S
O175 Zn176 1.923 1_554 S
O175 Zn177 1.950 . S
O175 Zn178 1.945 . S
Zn176 O175 1.923 1_556 S
Zn176 O179 1.933 . S
Zn176 O182 1.941 1_455 S
Zn176 O183 1.965 . S
Zn177 O175 1.950 . S
Zn177 O184 1.938 . S
Zn177 O185 1.906 . S
Zn177 O195 1.953 . S
Zn178 O175 1.945 . S
Zn178 O180 1.932 1_554 S
Zn178 O187 1.977 . S
Zn178 O188 1.910 . S
O179 Zn176 1.933 . S
O179 C190 1.226 . S
O180 Zn178 1.932 1_556 S
O180 C190 1.307 . S
O181 Zn174 1.919 1_655 S
O181 C192 1.253 1_554 S
O182 Zn176 1.941 1_655 S
O182 C192 1.283 . S
O183 Zn176 1.965 . S
O183 C191 1.303 . S
O184 Zn177 1.938 . S
O184 C191 1.247 1_554 S
O185 Zn177 1.906 . S
O185 C193 1.304 . S
O186 Zn174 1.924 . S
O186 C194 1.311 . S
O187 Zn178 1.977 . S
O187 C193 1.272 . S
O188 Zn178 1.910 . S
O188 C194 1.231 . S
C189 O173 1.225 1_455 S
C189 O195 1.298 . S
C190 O179 1.226 . S
C190 O180 1.307 . S
C191 O183 1.303 . S
C191 O184 1.247 1_556 S
C192 O181 1.253 1_556 S
C192 O182 1.283 . S
C193 O185 1.304 . S
C193 O187 1.272 . S
C194 O186 1.311 . S
C194 O188 1.231 . S
O195 Zn177 1.953 . S
O195 C189 1.298 . S
C196 C197 1.391 . S
C196 C198 1.394 . S
C196 H212 0.931 . S
C197 C196 1.391 . S
C197 C201 1.376 . S
C198 C196 1.394 . S
C198 C199 1.369 . S
C198 C202 1.531 . S
C199 C198 1.369 . S
C199 C200 1.410 . S
C199 C207 1.503 . S
C200 C199 1.410 . S
C200 C201 1.392 . S
C200 C203 1.511 . S
C201 C197 1.376 . S
C201 C200 1.392 . S
C201 H213 0.929 . S
C202 C198 1.531 . S
C202 H214 0.960 . S
C202 H215 0.962 . S
C202 H216 0.960 . S
C203 C200 1.511 . S
C203 H217 0.961 . S
C203 H218 0.961 . S
C203 H219 0.961 . S
C204 C205 1.370 . S
C204 C206 1.363 . S
C204 H220 0.931 . S
C205 C204 1.370 . S
C205 C209 1.408 . S
C206 C204 1.363 . S
C206 C207 1.370 . S
C206 C210 1.524 . S
C207 C199 1.503 . S
C207 C206 1.370 . S
C207 C208 1.403 . S
C208 C207 1.403 . S
C208 C209 1.404 . S
C208 C211 1.539 . S
C209 C205 1.408 . S
C209 C208 1.404 . S
C209 H221 0.930 . S
C210 C206 1.524 . S
C210 H222 0.956 . S
C210 H223 0.961 . S
C210 H224 0.961 . S
C211 C208 1.539 . S
C211 H225 0.958 . S
C211 H226 0.991 . S
C211 H227 0.960 . S
H212 C196 0.931 . S
H213 C201 0.929 . S
H214 C202 0.960 . S
H215 C202 0.962 . S
H216 C202 0.960 . S
H217 C203 0.961 . S
H218 C203 0.961 . S
H219 C203 0.961 . S
H220 C204 0.931 . S
H221 C209 0.930 . S
H222 C210 0.956 . S
H223 C210 0.961 . S
H224 C210 0.961 . S
H225 C211 0.958 . S
H226 C211 0.991 . S
H227 C211 0.960 . S
C228 C229 1.391 . S
C228 C230 1.394 . S
C228 H244 0.931 . S
C229 C228 1.391 . S
C229 C233 1.376 . S
C230 C228 1.394 . S
C230 C231 1.369 . S
C230 C234 1.531 . S
C231 C230 1.369 . S
C231 C232 1.410 . S
C231 C239 1.503 . S
C232 C231 1.410 . S
C232 C233 1.392 . S
C232 C235 1.511 . S
C233 C229 1.376 . S
C233 C232 1.392 . S
C233 H245 0.929 . S
C234 C230 1.531 . S
C234 H246 0.960 . S
C234 H247 0.962 . S
C234 H248 0.960 . S
C235 C232 1.511 . S
C235 H249 0.961 . S
C235 H250 0.961 . S
C235 H251 0.961 . S
C236 C237 1.370 . S
C236 C238 1.363 . S
C236 H252 0.931 . S
C237 C236 1.370 . S
C237 C241 1.408 . S
C238 C236 1.363 . S
C238 C239 1.370 . S
C238 C242 1.524 . S
C239 C231 1.503 . S
C239 C238 1.370 . S
C239 C240 1.403 . S
C240 C239 1.403 . S
C240 C241 1.404 . S
C240 C243 1.539 . S
C241 C237 1.408 . S
C241 C240 1.404 . S
C241 H253 0.930 . S
C242 C238 1.524 . S
C242 H254 0.956 . S
C242 H255 0.961 . S
C242 H256 0.961 1_565 S
C243 C240 1.539 . S
C243 H257 0.958 . S
C243 H258 0.961 . S
C243 H259 0.960 . S
H244 C228 0.931 . S
H245 C233 0.929 . S
H246 C234 0.960 . S
H247 C234 0.962 . S
H248 C234 0.960 . S
H249 C235 0.961 . S
H250 C235 0.961 . S
H251 C235 0.961 . S
H252 C236 0.931 . S
H253 C241 0.930 . S
H254 C242 0.956 . S
H255 C242 0.961 . S
H256 C242 0.961 1_545 S
H257 C243 0.958 . S
H258 C243 0.961 . S
H259 C243 0.960 . S
C260 C261 1.391 . S
C260 C262 1.394 . S
C260 H276 0.931 . S
C261 C260 1.391 . S
C261 C265 1.376 . S
C262 C260 1.394 . S
C262 C263 1.369 . S
C262 C266 1.531 . S
C263 C262 1.369 . S
C263 C264 1.410 . S
C263 C271 1.503 . S
C264 C263 1.410 . S
C264 C265 1.392 . S
C264 C267 1.511 . S
C265 C261 1.376 . S
C265 C264 1.392 . S
C265 H277 0.929 . S
C266 C262 1.531 . S
C266 H278 0.960 . S
C266 H279 0.962 . S
C266 H280 0.960 . S
C267 C264 1.511 . S
C267 H281 0.961 . S
C267 H282 0.961 . S
C267 H283 0.961 . S
C268 C269 1.370 . S
C268 C270 1.363 . S
C268 H284 0.931 . S
C269 C268 1.370 . S
C269 C273 1.408 . S
C270 C268 1.363 . S
C270 C271 1.370 . S
C270 C274 1.524 . S
C271 C263 1.503 . S
C271 C270 1.370 . S
C271 C272 1.403 . S
C272 C271 1.403 . S
C272 C273 1.404 . S
C272 C275 1.539 . S
C273 C269 1.408 . S
C273 C272 1.404 . S
C273 H285 0.930 . S
C274 C270 1.524 . S
C274 H286 0.956 . S
C274 H287 0.961 . S
C274 H288 0.961 . S
C275 C272 1.539 . S
C275 H289 0.958 . S
C275 H290 0.961 . S
C275 H291 0.960 . S
H276 C260 0.931 . S
H277 C265 0.929 . S
H278 C266 0.960 . S
H279 C266 0.962 . S
H280 C266 0.960 . S
H281 C267 0.961 . S
H282 C267 0.961 . S
H283 C267 0.961 . S
H284 C268 0.931 . S
H285 C273 0.930 . S
H286 C274 0.956 . S
H287 C274 0.961 . S
H288 C274 0.961 . S
H289 C275 0.958 . S
H290 C275 0.961 . S
H291 C275 0.960 . S
C292 C293 1.391 . S
C292 C294 1.394 . S
C292 H308 0.931 . S
C293 C292 1.391 . S
C293 C297 1.376 . S
C294 C292 1.394 . S
C294 C295 1.369 . S
C294 C298 1.531 1_655 S
C295 C294 1.369 . S
C295 C296 1.410 . S
C295 C303 1.503 . S
C296 C295 1.410 . S
C296 C297 1.392 . S
C296 C299 1.511 . S
C297 C293 1.376 . S
C297 C296 1.392 . S
C297 H309 0.929 . S
C298 C294 1.531 1_455 S
C298 H310 0.960 . S
C298 H311 0.962 1_455 S
C298 H312 0.960 . S
C299 C296 1.511 . S
C299 H313 0.961 . S
C299 H314 0.961 . S
C299 H315 0.961 . S
C300 C301 1.370 1_655 S
C300 C302 1.363 . S
C300 H316 0.931 . S
C301 C300 1.370 1_455 S
C301 C305 1.408 . S
C302 C300 1.363 . S
C302 C303 1.370 . S
C302 C306 1.524 . S
C303 C295 1.503 . S
C303 C302 1.370 . S
C303 C304 1.403 1_655 S
C304 C303 1.403 1_455 S
C304 C305 1.404 . S
C304 C307 1.539 . S
C305 C301 1.408 . S
C305 C304 1.404 . S
C305 H317 0.930 . S
C306 C302 1.524 . S
C306 H318 0.956 . S
C306 H319 0.961 . S
C306 H320 0.961 . S
C307 C304 1.539 . S
C307 H321 0.958 . S
C307 H322 0.961 . S
C307 H323 0.960 . S
H308 C292 0.931 . S
H309 C297 0.929 . S
H310 C298 0.960 . S
H311 C298 0.962 1_655 S
H312 C298 0.960 . S
H313 C299 0.961 . S
H314 C299 0.961 . S
H315 C299 0.961 . S
H316 C300 0.931 . S
H317 C305 0.930 . S
H318 C306 0.956 . S
H319 C306 0.961 . S
H320 C306 0.961 . S
H321 C307 0.958 . S
H322 C307 0.961 . S
H323 C307 0.960 . S
C324 C325 1.391 . S
C324 C326 1.394 . S
C324 H340 0.931 . S
C325 C324 1.391 . S
C325 C329 1.376 . S
C326 C324 1.394 . S
C326 C327 1.369 . S
C326 C330 1.531 . S
C327 C326 1.369 . S
C327 C328 1.410 . S
C327 C335 1.503 . S
C328 C327 1.410 . S
C328 C329 1.392 . S
C328 C331 1.511 . S
C329 C325 1.376 . S
C329 C328 1.392 . S
C329 H341 0.929 . S
C330 C326 1.531 . S
C330 H342 0.960 . S
C330 H343 0.962 . S
C330 H344 0.960 . S
C331 C328 1.511 . S
C331 H345 0.961 . S
C331 H346 0.961 . S
C331 H347 0.961 . S
C332 C333 1.370 . S
C332 C334 1.363 . S
C332 H348 0.931 . S
C333 C332 1.370 . S
C333 C337 1.408 . S
C334 C332 1.363 . S
C334 C335 1.370 . S
C334 C338 1.524 . S
C335 C327 1.503 . S
C335 C334 1.370 . S
C335 C336 1.403 . S
C336 C335 1.403 . S
C336 C337 1.404 . S
C336 C339 1.539 . S
C337 C333 1.408 . S
C337 C336 1.404 . S
C337 H349 0.930 . S
C338 C334 1.524 . S
C338 H350 0.956 . S
C338 H351 0.961 . S
C338 H352 0.961 . S
C339 C336 1.539 . S
C339 H353 0.958 . S
C339 H354 0.961 1_545 S
C339 H355 0.960 . S
H340 C324 0.931 . S
H341 C329 0.929 . S
H342 C330 0.960 . S
H343 C330 0.962 . S
H344 C330 0.960 . S
H345 C331 0.961 . S
H346 C331 0.961 . S
H347 C331 0.961 . S
H348 C332 0.931 . S
H349 C337 0.930 . S
H350 C338 0.956 . S
H351 C338 0.961 . S
H352 C338 0.961 . S
H353 C339 0.958 . S
H354 C339 0.961 1_565 S
H355 C339 0.960 . S
C356 C357 1.391 . S
C356 C358 1.394 . S
C356 H372 0.931 . S
C357 C356 1.391 . S
C357 C361 1.376 . S
C358 C356 1.394 . S
C358 C359 1.369 . S
C358 C362 1.531 . S
C359 C358 1.369 . S
C359 C360 1.410 . S
C359 C367 1.503 . S
C360 C359 1.410 . S
C360 C361 1.392 . S
C360 C363 1.511 . S
C361 C357 1.376 . S
C361 C360 1.392 . S
C361 H373 0.929 . S
C362 C358 1.531 . S
C362 H374 0.960 . S
C362 H375 0.962 . S
C362 H376 0.960 . S
C363 C360 1.511 . S
C363 H377 0.961 . S
C363 H378 0.961 . S
C363 H379 0.961 . S
C364 C365 1.370 . S
C364 C366 1.363 . S
C364 H380 0.931 . S
C365 C364 1.370 . S
C365 C369 1.408 . S
C366 C364 1.363 . S
C366 C367 1.370 . S
C366 C370 1.524 . S
C367 C359 1.503 . S
C367 C366 1.370 . S
C367 C368 1.403 . S
C368 C367 1.403 . S
C368 C369 1.404 . S
C368 C371 1.539 . S
C369 C365 1.408 . S
C369 C368 1.404 . S
C369 H381 0.930 . S
C370 C366 1.524 . S
C370 H382 0.956 . S
C370 H383 0.961 . S
C370 H384 0.961 1_565 S
C371 C368 1.539 . S
C371 H385 0.958 . S
C371 H386 0.961 . S
C371 H387 0.960 . S
H372 C356 0.931 . S
H373 C361 0.929 . S
H374 C362 0.960 . S
H375 C362 0.962 . S
H376 C362 0.960 . S
H377 C363 0.961 . S
H378 C363 0.961 . S
H379 C363 0.961 . S
H380 C364 0.931 . S
H381 C369 0.930 . S
H382 C370 0.956 . S
H383 C370 0.961 . S
H384 C370 0.961 1_545 S
H385 C371 0.958 . S
H386 C371 0.961 . S
H387 C371 0.960 . S
C388 C389 1.391 . S
C388 C390 1.394 . S
C388 H404 0.931 . S
C389 C388 1.391 . S
C389 C393 1.376 . S
C390 C388 1.394 . S
C390 C391 1.369 . S
C390 C394 1.531 . S
C391 C390 1.369 . S
C391 C392 1.410 . S
C391 C399 1.503 . S
C392 C391 1.410 . S
C392 C393 1.392 . S
C392 C395 1.511 . S
C393 C389 1.376 . S
C393 C392 1.392 . S
C393 H405 0.929 . S
C394 C390 1.531 . S
C394 H406 0.960 . S
C394 H407 0.962 . S
C394 H408 0.960 . S
C395 C392 1.511 . S
C395 H409 0.961 . S
C395 H410 0.961 . S
C395 H411 0.961 . S
C396 C397 1.370 . S
C396 C398 1.363 . S
C396 H412 0.931 1_556 S
C397 C396 1.370 . S
C397 C401 1.408 . S
C398 C396 1.363 . S
C398 C399 1.370 . S
C398 C402 1.524 1_556 S
C399 C391 1.503 . S
C399 C398 1.370 . S
C399 C400 1.403 . S
C400 C399 1.403 . S
C400 C401 1.404 . S
C400 C403 1.539 . S
C401 C397 1.408 . S
C401 C400 1.404 . S
C401 H413 0.930 . S
C402 C398 1.524 1_554 S
C402 H414 0.956 . S
C402 H415 0.961 1_554 S
C402 H416 0.961 . S
C403 C400 1.539 . S
C403 H417 0.958 . S
C403 H418 0.961 . S
C403 H419 0.960 . S
H404 C388 0.931 . S
H405 C393 0.929 . S
H406 C394 0.960 . S
H407 C394 0.962 . S
H408 C394 0.960 . S
H409 C395 0.961 . S
H410 C395 0.961 . S
H411 C395 0.961 . S
H412 C396 0.931 1_554 S
H413 C401 0.930 . S
H414 C402 0.956 . S
H415 C402 0.961 1_556 S
H416 C402 0.961 . S
H417 C403 0.958 . S
H418 C403 0.961 . S
H419 C403 0.960 . S
C420 C421 1.391 . S
C420 C422 1.394 . S
C420 H436 0.931 . S
C421 C420 1.391 . S
C421 C425 1.376 . S
C422 C420 1.394 . S
C422 C423 1.369 . S
C422 C426 1.531 . S
C423 C422 1.369 . S
C423 C424 1.410 . S
C423 C431 1.503 . S
C424 C423 1.410 . S
C424 C425 1.392 . S
C424 C427 1.511 . S
C425 C421 1.376 . S
C425 C424 1.392 . S
C425 H437 0.929 . S
C426 C422 1.531 . S
C426 H438 0.960 . S
C426 H439 0.962 . S
C426 H440 0.960 . S
C427 C424 1.511 . S
C427 H441 0.961 . S
C427 H442 0.961 . S
C427 H443 0.961 . S
C428 C429 1.370 . S
C428 C430 1.363 . S
C428 H444 0.931 . S
C429 C428 1.370 . S
C429 C433 1.408 . S
C430 C428 1.363 . S
C430 C431 1.370 . S
C430 C434 1.524 . S
C431 C423 1.503 . S
C431 C430 1.370 . S
C431 C432 1.403 . S
C432 C431 1.403 . S
C432 C433 1.404 . S
C432 C435 1.539 . S
C433 C429 1.408 . S
C433 C432 1.404 . S
C433 H445 0.930 . S
C434 C430 1.524 . S
C434 H446 0.956 . S
C434 H447 0.961 . S
C434 H448 0.961 . S
C435 C432 1.539 . S
C435 H449 0.958 . S
C435 H450 0.961 . S
C435 H451 0.960 . S
H436 C420 0.931 . S
H437 C425 0.929 . S
H438 C426 0.960 . S
H439 C426 0.962 . S
H440 C426 0.960 . S
H441 C427 0.961 . S
H442 C427 0.961 . S
H443 C427 0.961 . S
H444 C428 0.931 . S
H445 C433 0.930 . S
H446 C434 0.956 . S
H447 C434 0.961 . S
H448 C434 0.961 . S
H449 C435 0.958 . S
H450 C435 0.961 . S
H451 C435 0.960 . S
C452 C453 1.391 . S
C452 C454 1.394 . S
C452 H468 0.931 . S
C453 C452 1.391 . S
C453 C457 1.376 . S
C454 C452 1.394 . S
C454 C455 1.369 . S
C454 C458 1.531 . S
C455 C454 1.369 . S
C455 C456 1.410 . S
C455 C463 1.503 . S
C456 C455 1.410 . S
C456 C457 1.392 . S
C456 C459 1.511 . S
C457 C453 1.376 . S
C457 C456 1.392 . S
C457 H469 0.929 . S
C458 C454 1.531 . S
C458 H470 0.960 . S
C458 H471 0.962 . S
C458 H472 0.960 . S
C459 C456 1.511 . S
C459 H473 0.961 . S
C459 H474 0.961 . S
C459 H475 0.961 . S
C460 C461 1.370 . S
C460 C462 1.363 . S
C460 H476 0.931 . S
C461 C460 1.370 . S
C461 C465 1.408 . S
C462 C460 1.363 . S
C462 C463 1.370 . S
C462 C466 1.524 . S
C463 C455 1.503 . S
C463 C462 1.370 . S
C463 C464 1.403 . S
C464 C463 1.403 . S
C464 C465 1.404 . S
C464 C467 1.539 . S
C465 C461 1.408 . S
C465 C464 1.404 . S
C465 H477 0.930 . S
C466 C462 1.524 . S
C466 H478 0.956 . S
C466 H479 0.961 . S
C466 H480 0.961 . S
C467 C464 1.539 . S
C467 H481 0.958 . S
C467 H482 0.961 . S
C467 H483 0.960 . S
H468 C452 0.931 . S
H469 C457 0.929 . S
H470 C458 0.960 . S
H471 C458 0.962 . S
H472 C458 0.960 . S
H473 C459 0.961 . S
H474 C459 0.961 . S
H475 C459 0.961 . S
H476 C460 0.931 . S
H477 C465 0.930 . S
H478 C466 0.956 . S
H479 C466 0.961 . S
H480 C466 0.961 . S
H481 C467 0.958 . S
H482 C467 0.961 . S
H483 C467 0.960 . S
C484 C485 1.391 . S
C484 C486 1.394 . S
C484 H500 0.931 . S
C485 C484 1.391 . S
C485 C489 1.376 . S
C486 C484 1.394 . S
C486 C487 1.369 . S
C486 C490 1.531 . S
C487 C486 1.369 . S
C487 C488 1.410 . S
C487 C495 1.503 . S
C488 C487 1.410 . S
C488 C489 1.392 . S
C488 C491 1.511 . S
C489 C485 1.376 . S
C489 C488 1.392 . S
C489 H501 0.929 . S
C490 C486 1.531 . S
C490 H502 0.960 . S
C490 H503 0.962 . S
C490 H504 0.960 . S
C491 C488 1.511 . S
C491 H505 0.961 . S
C491 H506 0.961 . S
C491 H507 0.961 . S
C492 C493 1.370 . S
C492 C494 1.363 . S
C492 H508 0.931 1_556 S
C493 C492 1.370 . S
C493 C497 1.408 . S
C494 C492 1.363 . S
C494 C495 1.370 . S
C494 C498 1.524 1_556 S
C495 C487 1.503 . S
C495 C494 1.370 . S
C495 C496 1.403 . S
C496 C495 1.403 . S
C496 C497 1.404 . S
C496 C499 1.539 . S
C497 C493 1.408 . S
C497 C496 1.404 . S
C497 H509 0.930 . S
C498 C494 1.524 1_554 S
C498 H510 0.956 . S
C498 H511 0.961 1_554 S
C498 H512 0.961 . S
C499 C496 1.539 . S
C499 H513 0.958 . S
C499 H514 0.961 . S
C499 H515 0.960 . S
H500 C484 0.931 . S
H501 C489 0.929 . S
H502 C490 0.960 . S
H503 C490 0.962 . S
H504 C490 0.960 . S
H505 C491 0.961 . S
H506 C491 0.961 . S
H507 C491 0.961 . S
H508 C492 0.931 1_554 S
H509 C497 0.930 . S
H510 C498 0.956 . S
H511 C498 0.961 1_556 S
H512 C498 0.961 . S
H513 C499 0.958 . S
H514 C499 0.961 . S
H515 C499 0.960 . S
C516 C517 1.391 . S
C516 C518 1.394 . S
C516 H532 0.931 . S
C517 C516 1.391 . S
C517 C521 1.376 . S
C518 C516 1.394 . S
C518 C519 1.369 . S
C518 C522 1.531 1_655 S
C519 C518 1.369 . S
C519 C520 1.410 . S
C519 C527 1.503 . S
C520 C519 1.410 . S
C520 C521 1.392 . S
C520 C523 1.511 . S
C521 C517 1.376 . S
C521 C520 1.392 . S
C521 H533 0.929 . S
C522 C518 1.531 1_455 S
C522 H534 0.960 . S
C522 H535 0.962 . S
C522 H536 0.960 . S
C523 C520 1.511 . S
C523 H537 0.961 . S
C523 H538 0.961 . S
C523 H539 0.961 . S
C524 C525 1.370 . S
C524 C526 1.363 . S
C524 H540 0.931 . S
C525 C524 1.370 . S
C525 C529 1.408 . S
C526 C524 1.363 . S
C526 C527 1.370 . S
C526 C530 1.524 . S
C527 C519 1.503 . S
C527 C526 1.370 . S
C527 C528 1.403 . S
C528 C527 1.403 . S
C528 C529 1.404 . S
C528 C531 1.539 . S
C529 C525 1.408 . S
C529 C528 1.404 . S
C529 H541 0.930 . S
C530 C526 1.524 . S
C530 H542 0.956 . S
C530 H543 0.961 . S
C530 H544 0.961 . S
C531 C528 1.539 . S
C531 H545 0.958 . S
C531 H546 0.961 . S
C531 H547 0.960 . S
H532 C516 0.931 . S
H533 C521 0.929 . S
H534 C522 0.960 . S
H535 C522 0.962 . S
H536 C522 0.960 . S
H537 C523 0.961 . S
H538 C523 0.961 . S
H539 C523 0.961 . S
H540 C524 0.931 . S
H541 C529 0.930 . S
H542 C530 0.956 . S
H543 C530 0.961 . S
H544 C530 0.961 . S
H545 C531 0.958 . S
H546 C531 0.961 . S
H547 C531 0.960 . S
C548 C549 1.391 . S
C548 C550 1.394 . S
C548 H564 0.931 . S
C549 C548 1.391 . S
C549 C553 1.376 . S
C550 C548 1.394 . S
C550 C551 1.369 . S
C550 C554 1.531 . S
C551 C550 1.369 . S
C551 C552 1.410 . S
C551 C559 1.503 . S
C552 C551 1.410 . S
C552 C553 1.392 . S
C552 C555 1.511 . S
C553 C549 1.376 . S
C553 C552 1.392 . S
C553 H565 0.929 . S
C554 C550 1.531 . S
C554 H566 0.960 . S
C554 H567 0.962 . S
C554 H568 0.960 . S
C555 C552 1.511 . S
C555 H569 0.961 . S
C555 H570 0.961 . S
C555 H571 0.961 . S
C556 C557 1.370 . S
C556 C558 1.363 . S
C556 H572 0.931 . S
C557 C556 1.370 . S
C557 C561 1.408 . S
C558 C556 1.363 . S
C558 C559 1.370 . S
C558 C562 1.524 . S
C559 C551 1.503 . S
C559 C558 1.370 . S
C559 C560 1.403 . S
C560 C559 1.403 . S
C560 C561 1.404 . S
C560 C563 1.539 . S
C561 C557 1.408 . S
C561 C560 1.404 . S
C561 H573 0.930 . S
C562 C558 1.524 . S
C562 H574 0.956 . S
C562 H575 0.961 . S
C562 H576 0.961 . S
C563 C560 1.539 . S
C563 H577 0.958 . S
C563 H578 0.961 . S
C563 H579 0.960 . S
H564 C548 0.931 . S
H565 C553 0.929 . S
H566 C554 0.960 . S
H567 C554 0.962 . S
H568 C554 0.960 . S
H569 C555 0.961 . S
H570 C555 0.961 . S
H571 C555 0.961 . S
H572 C556 0.931 . S
H573 C561 0.930 . S
H574 C562 0.956 . S
H575 C562 0.961 . S
H576 C562 0.961 . S
H577 C563 0.958 . S
H578 C563 0.961 . S
H579 C563 0.960 . S
C580 C581 1.391 . S
C580 C582 1.394 . S
C580 H596 0.931 . S
C581 C580 1.391 . S
C581 C585 1.376 . S
C582 C580 1.394 . S
C582 C583 1.369 . S
C582 C586 1.531 . S
C583 C582 1.369 . S
C583 C584 1.394 1_655 S
C583 C591 1.503 . S
C584 C583 1.394 1_455 S
C584 C585 1.390 1_455 S
C584 C587 1.530 . S
C585 C581 1.376 . S
C585 C584 1.390 1_655 S
C585 H597 0.929 1_655 S
C586 C582 1.531 . S
C586 H598 0.960 1_565 S
C586 H599 0.962 . S
C586 H600 0.960 . S
C587 C584 1.530 . S
C587 H601 0.961 . S
C587 H602 0.961 . S
C587 H603 0.961 1_565 S
C588 C589 1.370 1_565 S
C588 C590 1.363 . S
C588 H604 0.931 . S
C589 C588 1.370 1_545 S
C589 C593 1.408 . S
C590 C588 1.363 . S
C590 C591 1.370 . S
C590 C594 1.524 . S
C591 C583 1.503 . S
C591 C590 1.370 . S
C591 C592 1.403 1_565 S
C592 C591 1.403 1_545 S
C592 C593 1.404 . S
C592 C595 1.539 . S
C593 C589 1.408 . S
C593 C592 1.404 . S
C593 H605 0.930 . S
C594 C590 1.524 . S
C594 H606 0.956 . S
C594 H607 0.961 . S
C594 H608 0.961 . S
C595 C592 1.539 . S
C595 H609 0.958 . S
C595 H610 0.961 1_655 S
C595 H611 0.960 . S
H596 C580 0.931 . S
H597 C585 0.929 1_455 S
H598 C586 0.960 1_545 S
H599 C586 0.962 . S
H600 C586 0.960 . S
H601 C587 0.961 . S
H602 C587 0.961 . S
H603 C587 0.961 1_545 S
H604 C588 0.931 . S
H605 C593 0.930 . S
H606 C594 0.956 . S
H607 C594 0.961 . S
H608 C594 0.961 . S
H609 C595 0.958 . S
H610 C595 0.961 1_455 S
H611 C595 0.960 . S
C612 C613 1.391 . S
C612 C614 1.394 . S
C612 H628 0.931 . S
C613 C612 1.391 . S
C613 C617 1.376 . S
C614 C612 1.394 . S
C614 C615 1.369 . S
C614 C618 1.531 1_545 S
C615 C614 1.369 . S
C615 C616 1.410 . S
C615 C623 1.503 . S
C616 C615 1.410 . S
C616 C617 1.392 . S
C616 C619 1.511 . S
C617 C613 1.376 . S
C617 C616 1.392 . S
C617 H629 0.929 . S
C618 C614 1.531 1_565 S
C618 H630 0.960 . S
C618 H631 0.962 . S
C618 H632 0.960 . S
C619 C616 1.511 . S
C619 H633 0.961 . S
C619 H634 0.961 . S
C619 H635 0.961 . S
C620 C621 1.370 . S
C620 C622 1.363 . S
C620 H636 0.931 . S
C621 C620 1.370 . S
C621 C625 1.408 . S
C622 C620 1.363 . S
C622 C623 1.370 . S
C622 C626 1.524 . S
C623 C615 1.503 . S
C623 C622 1.370 . S
C623 C624 1.403 . S
C624 C623 1.403 . S
C624 C625 1.404 . S
C624 C627 1.539 1_545 S
C625 C621 1.408 . S
C625 C624 1.404 . S
C625 H637 0.930 1_545 S
C626 C622 1.524 . S
C626 H638 0.956 . S
C626 H639 0.961 . S
C626 H640 0.961 . S
C627 C624 1.539 1_565 S
C627 H641 0.958 . S
C627 H642 0.961 . S
C627 H643 0.960 1_565 S
H628 C612 0.931 . S
H629 C617 0.929 . S
H630 C618 0.960 . S
H631 C618 0.962 . S
H632 C618 0.960 . S
H633 C619 0.961 . S
H634 C619 0.961 . S
H635 C619 0.961 . S
H636 C620 0.931 . S
H637 C625 0.930 1_565 S
H638 C626 0.956 . S
H639 C626 0.961 . S
H640 C626 0.961 . S
H641 C627 0.958 . S
H642 C627 0.961 . S
H643 C627 0.960 1_545 S
C644 C645 1.391 . S
C644 C646 1.394 . S
C644 H660 0.931 . S
C645 C644 1.391 . S
C645 C649 1.376 . S
C646 C644 1.394 . S
C646 C647 1.369 . S
C646 C650 1.531 . S
C647 C646 1.369 . S
C647 C648 1.410 . S
C647 C655 1.503 . S
C648 C647 1.410 . S
C648 C649 1.392 . S
C648 C651 1.511 . S
C649 C645 1.376 . S
C649 C648 1.392 . S
C649 H661 0.929 . S
C650 C646 1.531 . S
C650 H662 0.960 . S
C650 H663 0.962 . S
C650 H664 0.960 . S
C651 C648 1.511 . S
C651 H665 0.961 . S
C651 H666 0.961 . S
C651 H667 0.961 . S
C652 C653 1.370 . S
C652 C654 1.363 . S
C652 H668 0.931 . S
C653 C652 1.370 . S
C653 C657 1.408 . S
C654 C652 1.363 . S
C654 C655 1.370 . S
C654 C658 1.524 . S
C655 C647 1.503 . S
C655 C654 1.370 . S
C655 C656 1.403 . S
C656 C655 1.403 . S
C656 C657 1.404 . S
C656 C659 1.539 . S
C657 C653 1.408 . S
C657 C656 1.404 . S
C657 H669 0.930 . S
C658 C654 1.524 . S
C658 H670 0.956 . S
C658 H671 0.961 . S
C658 H672 0.961 . S
C659 C656 1.539 . S
C659 H673 0.958 . S
C659 H674 0.961 . S
C659 H675 0.960 . S
H660 C644 0.931 . S
H661 C649 0.929 . S
H662 C650 0.960 . S
H663 C650 0.962 . S
H664 C650 0.960 . S
H665 C651 0.961 . S
H666 C651 0.961 . S
H667 C651 0.961 . S
H668 C652 0.931 . S
H669 C657 0.930 . S
H670 C658 0.956 . S
H671 C658 0.961 . S
H672 C658 0.961 . S
H673 C659 0.958 . S
H674 C659 0.961 . S
H675 C659 0.960 . S
C676 C677 1.391 . S
C676 C678 1.394 . S
C676 H692 0.931 . S
C677 C676 1.391 . S
C677 C681 1.376 . S
C678 C676 1.394 . S
C678 C679 1.369 . S
C678 C682 1.531 . S
C679 C678 1.369 . S
C679 C680 1.410 . S
C679 C687 1.503 . S
C680 C679 1.410 . S
C680 C681 1.392 . S
C680 C683 1.511 . S
C681 C677 1.376 . S
C681 C680 1.392 . S
C681 H693 0.929 . S
C682 C678 1.531 . S
C682 H694 0.960 . S
C682 H695 0.962 . S
C682 H696 0.960 . S
C683 C680 1.511 . S
C683 H697 0.961 . S
C683 H698 0.961 . S
C683 H699 0.961 . S
C684 C685 1.370 . S
C684 C686 1.363 . S
C684 H700 0.931 . S
C685 C684 1.370 . S
C685 C689 1.408 . S
C686 C684 1.363 . S
C686 C687 1.370 . S
C686 C690 1.524 . S
C687 C679 1.503 . S
C687 C686 1.370 . S
C687 C688 1.403 . S
C688 C687 1.403 . S
C688 C689 1.404 . S
C688 C691 1.539 . S
C689 C685 1.408 . S
C689 C688 1.404 . S
C689 H701 0.930 . S
C690 C686 1.524 . S
C690 H702 0.956 . S
C690 H703 0.961 . S
C690 H704 0.961 . S
C691 C688 1.539 . S
C691 H705 0.958 . S
C691 H706 0.961 . S
C691 H707 0.960 . S
H692 C676 0.931 . S
H693 C681 0.929 . S
H694 C682 0.960 . S
H695 C682 0.962 . S
H696 C682 0.960 . S
H697 C683 0.961 . S
H698 C683 0.961 . S
H699 C683 0.961 . S
H700 C684 0.931 . S
H701 C689 0.930 . S
H702 C690 0.956 . S
H703 C690 0.961 . S
H704 C690 0.961 . S
H705 C691 0.958 . S
H706 C691 0.961 . S
H707 C691 0.960 . S
C708 C709 1.391 . S
C708 C710 1.394 . S
C708 H724 0.931 . S
C709 C708 1.391 . S
C709 C713 1.376 . S
C710 C708 1.394 . S
C710 C711 1.369 . S
C710 C714 1.531 1_565 S
C711 C710 1.369 . S
C711 C712 1.410 . S
C711 C719 1.503 . S
C712 C711 1.410 . S
C712 C713 1.392 . S
C712 C715 1.511 . S
C713 C709 1.376 . S
C713 C712 1.392 . S
C713 H725 0.929 . S
C714 C710 1.531 1_545 S
C714 H726 0.960 . S
C714 H727 0.962 1_556 S
C714 H728 0.960 . S
C715 C712 1.511 . S
C715 H729 0.961 . S
C715 H730 0.961 . S
C715 H731 0.961 . S
C716 C717 1.370 . S
C716 C718 1.363 . S
C716 H732 0.931 1_556 S
C717 C716 1.370 . S
C717 C721 1.408 1_565 S
C718 C716 1.363 . S
C718 C719 1.370 . S
C718 C722 1.524 1_556 S
C719 C711 1.503 . S
C719 C718 1.370 . S
C719 C720 1.401 . S
C720 C719 1.401 . S
C720 C721 1.405 1_565 S
C720 C723 1.540 1_565 S
C721 C717 1.408 1_545 S
C721 C720 1.405 1_545 S
C721 H733 0.930 . S
C722 C718 1.524 1_554 S
C722 H734 0.956 . S
C722 H735 0.961 . S
C722 H736 0.961 . S
C723 C720 1.540 1_545 S
C723 H737 0.958 . S
C723 H738 0.961 . S
C723 H739 0.960 1_545 S
H724 C708 0.931 . S
H725 C713 0.929 . S
H726 C714 0.960 . S
H727 C714 0.962 1_554 S
H728 C714 0.960 . S
H729 C715 0.961 . S
H730 C715 0.961 . S
H731 C715 0.961 . S
H732 C716 0.931 1_554 S
H733 C721 0.930 . S
H734 C722 0.956 . S
H735 C722 0.961 . S
H736 C722 0.961 . S
H737 C723 0.958 . S
H738 C723 0.961 . S
H739 C723 0.960 1_565 S
C740 C741 1.391 . S
C740 C742 1.394 . S
C740 H756 0.931 . S
C741 C740 1.391 . S
C741 C745 1.376 . S
C742 C740 1.394 . S
C742 C743 1.369 . S
C742 C746 1.531 . S
C743 C742 1.369 . S
C743 C744 1.410 . S
C743 C751 1.503 . S
C744 C743 1.410 . S
C744 C745 1.392 . S
C744 C747 1.511 . S
C745 C741 1.376 . S
C745 C744 1.392 . S
C745 H757 0.929 . S
C746 C742 1.531 . S
C746 H758 0.960 . S
C746 H759 0.962 . S
C746 H760 0.960 . S
C747 C744 1.511 . S
C747 H761 0.961 . S
C747 H762 0.961 . S
C747 H763 0.961 . S
C748 C749 1.370 . S
C748 C750 1.363 . S
C748 H764 0.931 . S
C749 C748 1.370 . S
C749 C753 1.408 1_545 S
C750 C748 1.363 . S
C750 C751 1.370 . S
C750 C754 1.524 . S
C751 C743 1.503 . S
C751 C750 1.370 . S
C751 C752 1.403 . S
C752 C751 1.403 . S
C752 C753 1.404 1_545 S
C752 C755 1.539 1_545 S
C753 C749 1.408 1_565 S
C753 C752 1.404 1_565 S
C753 H765 0.930 . S
C754 C750 1.524 . S
C754 H766 0.956 . S
C754 H767 0.961 . S
C754 H768 0.961 . S
C755 C752 1.539 1_565 S
C755 H769 0.958 . S
C755 H770 0.961 . S
C755 H771 0.960 . S
H756 C740 0.931 . S
H757 C745 0.929 . S
H758 C746 0.960 . S
H759 C746 0.962 . S
H760 C746 0.960 . S
H761 C747 0.961 . S
H762 C747 0.961 . S
H763 C747 0.961 . S
H764 C748 0.931 . S
H765 C753 0.930 . S
H766 C754 0.956 . S
H767 C754 0.961 . S
H768 C754 0.961 . S
H769 C755 0.958 . S
H770 C755 0.961 . S
H771 C755 0.960 . S
C772 C773 1.391 . S
C772 C774 1.394 . S
C772 H788 0.931 . S
C773 C772 1.391 . S
C773 C777 1.376 . S
C774 C772 1.394 . S
C774 C775 1.369 . S
C774 C778 1.531 . S
C775 C774 1.369 . S
C775 C776 1.410 . S
C775 C783 1.503 . S
C776 C775 1.410 . S
C776 C777 1.392 . S
C776 C779 1.511 . S
C777 C773 1.376 . S
C777 C776 1.392 . S
C777 H789 0.929 . S
C778 C774 1.531 . S
C778 H790 0.960 . S
C778 H791 0.962 . S
C778 H792 0.960 . S
C779 C776 1.511 . S
C779 H793 0.961 . S
C779 H794 0.961 . S
C779 H795 0.961 . S
C780 C781 1.370 . S
C780 C782 1.363 . S
C780 H796 0.931 . S
C781 C780 1.370 . S
C781 C785 1.408 1_554 S
C782 C780 1.363 . S
C782 C783 1.370 . S
C782 C786 1.524 . S
C783 C775 1.503 . S
C783 C782 1.370 . S
C783 C784 1.403 . S
C784 C783 1.403 . S
C784 C785 1.404 1_554 S
C784 C787 1.539 1_554 S
C785 C781 1.408 1_556 S
C785 C784 1.404 1_556 S
C785 H797 0.930 . S
C786 C782 1.524 . S
C786 H798 0.956 . S
C786 H799 0.961 . S
C786 H800 0.961 . S
C787 C784 1.539 1_556 S
C787 H801 0.958 . S
C787 H802 0.961 . S
C787 H803 0.960 . S
H788 C772 0.931 . S
H789 C777 0.929 . S
H790 C778 0.960 . S
H791 C778 0.962 . S
H792 C778 0.960 . S
H793 C779 0.961 . S
H794 C779 0.961 . S
H795 C779 0.961 . S
H796 C780 0.931 . S
H797 C785 0.930 . S
H798 C786 0.956 . S
H799 C786 0.961 . S
H800 C786 0.961 . S
H801 C787 0.958 . S
H802 C787 0.961 . S
H803 C787 0.960 . S
C804 C805 1.391 . S
C804 C806 1.394 . S
C804 H820 0.931 . S
C805 C804 1.391 . S
C805 C809 1.376 . S
C806 C804 1.394 . S
C806 C807 1.369 . S
C806 C810 1.531 . S
C807 C806 1.369 . S
C807 C808 1.410 . S
C807 C815 1.503 . S
C808 C807 1.410 . S
C808 C809 1.392 . S
C808 C811 1.511 . S
C809 C805 1.376 . S
C809 C808 1.392 . S
C809 H821 0.929 . S
C810 C806 1.531 . S
C810 H822 0.960 . S
C810 H823 0.962 . S
C810 H824 0.960 . S
C811 C808 1.511 . S
C811 H825 0.961 . S
C811 H826 0.961 . S
C811 H827 0.961 . S
C812 C813 1.370 . S
C812 C814 1.363 . S
C812 H828 0.931 . S
C813 C812 1.370 . S
C813 C817 1.408 . S
C814 C812 1.363 . S
C814 C815 1.370 . S
C814 C818 1.524 . S
C815 C807 1.503 . S
C815 C814 1.370 . S
C815 C816 1.403 . S
C816 C815 1.403 . S
C816 C817 1.404 . S
C816 C819 1.539 . S
C817 C813 1.408 . S
C817 C816 1.404 . S
C817 H829 0.930 . S
C818 C814 1.524 . S
C818 H830 0.956 . S
C818 H831 0.961 . S
C818 H832 0.961 . S
C819 C816 1.539 . S
C819 H833 0.958 . S
C819 H834 0.961 . S
C819 H835 0.960 . S
H820 C804 0.931 . S
H821 C809 0.929 . S
H822 C810 0.960 . S
H823 C810 0.962 . S
H824 C810 0.960 . S
H825 C811 0.961 . S
H826 C811 0.961 . S
H827 C811 0.961 . S
H828 C812 0.931 . S
H829 C817 0.930 . S
H830 C818 0.956 . S
H831 C818 0.961 . S
H832 C818 0.961 . S
H833 C819 0.958 . S
H834 C819 0.961 . S
H835 C819 0.960 . S
C836 C837 1.391 1_455 S
C836 C838 1.394 . S
C836 H852 0.931 . S
C837 C836 1.391 1_655 S
C837 C841 1.376 . S
C838 C836 1.394 . S
C838 C839 1.369 1_455 S
C838 C842 1.531 1_556 S
C839 C838 1.369 1_655 S
C839 C840 1.410 . S
C839 C847 1.503 . S
C840 C839 1.410 . S
C840 C841 1.392 . S
C840 C843 1.511 . S
C841 C837 1.376 . S
C841 C840 1.392 . S
C841 H853 0.929 . S
C842 C838 1.531 1_554 S
C842 H854 0.960 . S
C842 H855 0.962 1_554 S
C842 H856 0.960 . S
C843 C840 1.511 . S
C843 H857 0.961 . S
C843 H858 0.961 . S
C843 H859 0.961 . S
C844 C845 1.370 . S
C844 C846 1.363 . S
C844 H860 0.931 . S
C845 C844 1.370 . S
C845 C849 1.408 1_456 S
C846 C844 1.363 . S
C846 C847 1.370 1_455 S
C846 C850 1.524 . S
C847 C839 1.503 . S
C847 C846 1.370 1_655 S
C847 C848 1.403 1_556 S
C848 C847 1.403 1_554 S
C848 C849 1.404 . S
C848 C851 1.539 . S
C849 C845 1.408 1_654 S
C849 C848 1.404 . S
C849 H861 0.930 . S
C850 C846 1.524 . S
C850 H862 0.956 . S
C850 H863 0.961 1_455 S
C850 H864 0.961 . S
C851 C848 1.539 . S
C851 H865 0.958 . S
C851 H866 0.961 . S
C851 H867 0.960 . S
H852 C836 0.931 . S
H853 C841 0.929 . S
H854 C842 0.960 . S
H855 C842 0.962 1_556 S
H856 C842 0.960 . S
H857 C843 0.961 . S
H858 C843 0.961 . S
H859 C843 0.961 . S
H860 C844 0.931 . S
H861 C849 0.930 . S
H862 C850 0.956 . S
H863 C850 0.961 1_655 S
H864 C850 0.961 . S
H865 C851 0.958 . S
H866 C851 0.961 . S
H867 C851 0.960 . S
C868 C869 1.391 . S
C868 C870 1.394 . S
C868 H884 0.931 . S
C869 C868 1.391 . S
C869 C873 1.376 . S
C870 C868 1.394 . S
C870 C871 1.369 . S
C870 C874 1.531 . S
C871 C870 1.369 . S
C871 C872 1.410 . S
C871 C879 1.503 . S
C872 C871 1.410 . S
C872 C873 1.392 . S
C872 C875 1.511 . S
C873 C869 1.376 . S
C873 C872 1.392 . S
C873 H885 0.929 . S
C874 C870 1.531 . S
C874 H886 0.960 . S
C874 H887 0.962 . S
C874 H888 0.960 . S
C875 C872 1.511 . S
C875 H889 0.961 . S
C875 H890 0.961 . S
C875 H891 0.961 . S
C876 C877 1.370 . S
C876 C878 1.363 . S
C876 H892 0.930 . S
C877 C876 1.370 . S
C877 C881 1.408 . S
C878 C876 1.363 . S
C878 C879 1.370 . S
C878 C882 1.524 1_554 S
C879 C871 1.503 . S
C879 C878 1.370 . S
C879 C880 1.403 . S
C880 C879 1.403 . S
C880 C881 1.404 . S
C880 C883 1.539 . S
C881 C877 1.408 . S
C881 C880 1.404 . S
C881 H893 0.930 . S
C882 C878 1.524 1_556 S
C882 H894 0.958 . S
C882 H895 0.961 . S
C882 H896 0.961 . S
C883 C880 1.539 . S
C883 H897 0.958 . S
C883 H898 0.961 . S
C883 H899 0.960 . S
H884 C868 0.931 . S
H885 C873 0.929 . S
H886 C874 0.960 . S
H887 C874 0.962 . S
H888 C874 0.960 . S
H889 C875 0.961 . S
H890 C875 0.961 . S
H891 C875 0.961 . S
H892 C876 0.930 . S
H893 C881 0.930 . S
H894 C882 0.958 . S
H895 C882 0.961 . S
H896 C882 0.961 . S
H897 C883 0.958 . S
H898 C883 0.961 . S
H899 C883 0.960 . S
C900 C901 1.391 . S
C900 C902 1.394 . S
C900 H916 0.931 . S
C901 C900 1.391 . S
C901 C905 1.376 . S
C902 C900 1.394 . S
C902 C903 1.369 . S
C902 C906 1.531 . S
C903 C902 1.369 . S
C903 C904 1.410 . S
C903 C911 1.503 . S
C904 C903 1.410 . S
C904 C905 1.392 . S
C904 C907 1.511 . S
C905 C901 1.376 . S
C905 C904 1.392 . S
C905 H917 0.929 . S
C906 C902 1.531 . S
C906 H918 0.960 . S
C906 H919 0.962 . S
C906 H920 0.960 . S
C907 C904 1.511 . S
C907 H921 0.961 . S
C907 H922 0.961 . S
C907 H923 0.961 . S
C908 C909 1.370 . S
C908 C910 1.363 . S
C908 H924 0.931 . S
C909 C908 1.370 . S
C909 C913 1.408 . S
C910 C908 1.363 . S
C910 C911 1.370 . S
C910 C914 1.524 . S
C911 C903 1.503 . S
C911 C910 1.370 . S
C911 C912 1.403 . S
C912 C911 1.403 . S
C912 C913 1.404 . S
C912 C915 1.539 1_455 S
C913 C909 1.408 . S
C913 C912 1.404 . S
C913 H925 0.930 1_455 S
C914 C910 1.524 . S
C914 H926 0.956 . S
C914 H927 0.961 . S
C914 H928 0.961 . S
C915 C912 1.539 1_655 S
C915 H929 0.958 . S
C915 H930 0.961 . S
C915 H931 0.960 . S
H916 C900 0.931 . S
H917 C905 0.929 . S
H918 C906 0.960 . S
H919 C906 0.962 . S
H920 C906 0.960 . S
H921 C907 0.961 . S
H922 C907 0.961 . S
H923 C907 0.961 . S
H924 C908 0.931 . S
H925 C913 0.930 1_655 S
H926 C914 0.956 . S
H927 C914 0.961 . S
H928 C914 0.961 . S
H929 C915 0.958 . S
H930 C915 0.961 . S
H931 C915 0.960 . S
C932 C933 1.391 . S
C932 C934 1.394 . S
C932 H948 0.931 . S
C933 C932 1.391 . S
C933 C937 1.376 . S
C934 C932 1.394 . S
C934 C935 1.369 . S
C934 C938 1.531 . S
C935 C934 1.369 . S
C935 C936 1.410 . S
C935 C943 1.503 . S
C936 C935 1.410 . S
C936 C937 1.392 . S
C936 C939 1.511 . S
C937 C933 1.376 . S
C937 C936 1.392 . S
C937 H949 0.929 . S
C938 C934 1.531 . S
C938 H950 0.960 . S
C938 H951 0.962 . S
C938 H952 0.960 . S
C939 C936 1.511 . S
C939 H953 0.961 . S
C939 H954 0.961 . S
C939 H955 0.961 . S
C940 C941 1.370 . S
C940 C942 1.363 . S
C940 H956 0.931 . S
C941 C940 1.370 . S
C941 C945 1.408 . S
C942 C940 1.363 . S
C942 C943 1.370 . S
C942 C946 1.524 . S
C943 C935 1.503 . S
C943 C942 1.370 . S
C943 C944 1.403 . S
C944 C943 1.403 . S
C944 C945 1.404 . S
C944 C947 1.539 . S
C945 C941 1.408 . S
C945 C944 1.404 . S
C945 H957 0.930 . S
C946 C942 1.524 . S
C946 H958 0.956 . S
C946 H959 0.961 . S
C946 H960 0.961 . S
C947 C944 1.539 . S
C947 H961 0.958 . S
C947 H962 0.961 . S
C947 H963 0.960 . S
H948 C932 0.931 . S
H949 C937 0.929 . S
H950 C938 0.960 . S
H951 C938 0.962 . S
H952 C938 0.960 . S
H953 C939 0.961 . S
H954 C939 0.961 . S
H955 C939 0.961 . S
H956 C940 0.931 . S
H957 C945 0.930 . S
H958 C946 0.956 . S
H959 C946 0.961 . S
H960 C946 0.961 . S
H961 C947 0.958 . S
H962 C947 0.961 . S
H963 C947 0.960 . S
C197 C9 1.991 . S
C205 C122 1.962 . S
C229 C21 1.574 . S
C237 C146 1.559 . S
C269 C166 1.157 . S
C261 C30 1.118 . S
C293 C43 1.188 . S
C301 C189 1.210 . S
C333 C148 1.553 . S
C325 C4 1.574 . S
C365 C124 2.125 . S
C357 C22 2.158 . S
C397 C192 1.272 . S
C389 C34 1.274 . S
C429 C169 1.386 . S
C421 C48 1.408 . S
C453 C8 1.529 . S
C461 C194 1.492 . S
C493 C143 1.635 . S
C485 C35 1.619 . S
C517 C47 1.652 . S
C525 C121 1.677 . S
C549 C17 1.309 . S
C557 C171 1.270 . S
C589 C125 1.655 . S
C581 C60 1.656 . S
C613 C74 1.852 . S
C621 C147 1.823 . S
C645 C82 1.237 . S
C653 C167 1.268 . S
C677 C100 1.962 . S
C685 C190 1.975 . S
C709 C61 1.806 . S
C717 C145 1.807 . S
C749 C123 1.560 . S
C741 C73 1.566 . S
C781 C193 1.519 . S
C773 C87 1.534 . S
C813 C170 1.081 . S
C805 C95 1.041 . S
C837 C56 1.746 . S
C845 C191 1.837 . S
C877 C144 1.624 . S
C869 C86 1.576 . S
C909 C120 1.471 . S
C901 C99 1.465 . S
C933 C69 1.687 . S
C941 C168 1.656 . S
