# Generated by pormake.
# Topology ctn, (3,4)-cn, num edge types: 1
# Building blocks:
#     Node 0, Type 0, BuildingBlock: KAKCAD_clean_linker_0, # of connection points: 3
#     Node 1, Type 0, BuildingBlock: KAKCAD_clean_linker_0, # of connection points: 3
#     Node 2, Type 0, BuildingBlock: KAKCAD_clean_linker_0, # of connection points: 3
#     Node 3, Type 0, BuildingBlock: KAKCAD_clean_linker_0, # of connection points: 3
#     Node 4, Type 0, BuildingBlock: KAKCAD_clean_linker_0, # of connection points: 3
#     Node 5, Type 0, BuildingBlock: KAKCAD_clean_linker_0, # of connection points: 3
#     Node 6, Type 0, BuildingBlock: KAKCAD_clean_linker_0, # of connection points: 3
#     Node 7, Type 0, BuildingBlock: KAKCAD_clean_linker_0, # of connection points: 3
#     Node 8, Type 0, BuildingBlock: KAKCAD_clean_linker_0, # of connection points: 3
#     Node 9, Type 0, BuildingBlock: KAKCAD_clean_linker_0, # of connection points: 3
#     Node 10, Type 0, BuildingBlock: KAKCAD_clean_linker_0, # of connection points: 3
#     Node 11, Type 0, BuildingBlock: KAKCAD_clean_linker_0, # of connection points: 3
#     Node 12, Type 0, BuildingBlock: KAKCAD_clean_linker_0, # of connection points: 3
#     Node 13, Type 0, BuildingBlock: KAKCAD_clean_linker_0, # of connection points: 3
#     Node 14, Type 0, BuildingBlock: KAKCAD_clean_linker_0, # of connection points: 3
#     Node 15, Type 0, BuildingBlock: KAKCAD_clean_linker_0, # of connection points: 3
#     Node 16, Type 1, BuildingBlock: KUFVIS_clean_sbu_0, # of connection points: 4
#     Node 17, Type 1, BuildingBlock: KUFVIS_clean_sbu_0, # of connection points: 4
#     Node 18, Type 1, BuildingBlock: KUFVIS_clean_sbu_0, # of connection points: 4
#     Node 19, Type 1, BuildingBlock: KUFVIS_clean_sbu_0, # of connection points: 4
#     Node 20, Type 1, BuildingBlock: KUFVIS_clean_sbu_0, # of connection points: 4
#     Node 21, Type 1, BuildingBlock: KUFVIS_clean_sbu_0, # of connection points: 4
#     Node 22, Type 1, BuildingBlock: KUFVIS_clean_sbu_0, # of connection points: 4
#     Node 23, Type 1, BuildingBlock: KUFVIS_clean_sbu_0, # of connection points: 4
#     Node 24, Type 1, BuildingBlock: KUFVIS_clean_sbu_0, # of connection points: 4
#     Node 25, Type 1, BuildingBlock: KUFVIS_clean_sbu_0, # of connection points: 4
#     Node 26, Type 1, BuildingBlock: KUFVIS_clean_sbu_0, # of connection points: 4
#     Node 27, Type 1, BuildingBlock: KUFVIS_clean_sbu_0, # of connection points: 4
#     Edge 28, Type (0, 1), BuildingBlock: AJUNOK_clean_linker_0, # of connection points: 2
#     Edge 29, Type (0, 1), BuildingBlock: AJUNOK_clean_linker_0, # of connection points: 2
#     Edge 30, Type (0, 1), BuildingBlock: AJUNOK_clean_linker_0, # of connection points: 2
#     Edge 31, Type (0, 1), BuildingBlock: AJUNOK_clean_linker_0, # of connection points: 2
#     Edge 32, Type (0, 1), BuildingBlock: AJUNOK_clean_linker_0, # of connection points: 2
#     Edge 33, Type (0, 1), BuildingBlock: AJUNOK_clean_linker_0, # of connection points: 2
#     Edge 34, Type (0, 1), BuildingBlock: AJUNOK_clean_linker_0, # of connection points: 2
#     Edge 35, Type (0, 1), BuildingBlock: AJUNOK_clean_linker_0, # of connection points: 2
#     Edge 36, Type (0, 1), BuildingBlock: AJUNOK_clean_linker_0, # of connection points: 2
#     Edge 37, Type (0, 1), BuildingBlock: AJUNOK_clean_linker_0, # of connection points: 2
#     Edge 38, Type (0, 1), BuildingBlock: AJUNOK_clean_linker_0, # of connection points: 2
#     Edge 39, Type (0, 1), BuildingBlock: AJUNOK_clean_linker_0, # of connection points: 2
#     Edge 40, Type (0, 1), BuildingBlock: AJUNOK_clean_linker_0, # of connection points: 2
#     Edge 41, Type (0, 1), BuildingBlock: AJUNOK_clean_linker_0, # of connection points: 2
#     Edge 42, Type (0, 1), BuildingBlock: AJUNOK_clean_linker_0, # of connection points: 2
#     Edge 43, Type (0, 1), BuildingBlock: AJUNOK_clean_linker_0, # of connection points: 2
#     Edge 44, Type (0, 1), BuildingBlock: AJUNOK_clean_linker_0, # of connection points: 2
#     Edge 45, Type (0, 1), BuildingBlock: AJUNOK_clean_linker_0, # of connection points: 2
#     Edge 46, Type (0, 1), BuildingBlock: AJUNOK_clean_linker_0, # of connection points: 2
#     Edge 47, Type (0, 1), BuildingBlock: AJUNOK_clean_linker_0, # of connection points: 2
#     Edge 48, Type (0, 1), BuildingBlock: AJUNOK_clean_linker_0, # of connection points: 2
#     Edge 49, Type (0, 1), BuildingBlock: AJUNOK_clean_linker_0, # of connection points: 2
#     Edge 50, Type (0, 1), BuildingBlock: AJUNOK_clean_linker_0, # of connection points: 2
#     Edge 51, Type (0, 1), BuildingBlock: AJUNOK_clean_linker_0, # of connection points: 2
#     Edge 52, Type (0, 1), BuildingBlock: AJUNOK_clean_linker_0, # of connection points: 2
#     Edge 53, Type (0, 1), BuildingBlock: AJUNOK_clean_linker_0, # of connection points: 2
#     Edge 54, Type (0, 1), BuildingBlock: AJUNOK_clean_linker_0, # of connection points: 2
#     Edge 55, Type (0, 1), BuildingBlock: AJUNOK_clean_linker_0, # of connection points: 2
#     Edge 56, Type (0, 1), BuildingBlock: AJUNOK_clean_linker_0, # of connection points: 2
#     Edge 57, Type (0, 1), BuildingBlock: AJUNOK_clean_linker_0, # of connection points: 2
#     Edge 58, Type (0, 1), BuildingBlock: AJUNOK_clean_linker_0, # of connection points: 2
#     Edge 59, Type (0, 1), BuildingBlock: AJUNOK_clean_linker_0, # of connection points: 2
#     Edge 60, Type (0, 1), BuildingBlock: AJUNOK_clean_linker_0, # of connection points: 2
#     Edge 61, Type (0, 1), BuildingBlock: AJUNOK_clean_linker_0, # of connection points: 2
#     Edge 62, Type (0, 1), BuildingBlock: AJUNOK_clean_linker_0, # of connection points: 2
#     Edge 63, Type (0, 1), BuildingBlock: AJUNOK_clean_linker_0, # of connection points: 2
#     Edge 64, Type (0, 1), BuildingBlock: AJUNOK_clean_linker_0, # of connection points: 2
#     Edge 65, Type (0, 1), BuildingBlock: AJUNOK_clean_linker_0, # of connection points: 2
#     Edge 66, Type (0, 1), BuildingBlock: AJUNOK_clean_linker_0, # of connection points: 2
#     Edge 67, Type (0, 1), BuildingBlock: AJUNOK_clean_linker_0, # of connection points: 2
#     Edge 68, Type (0, 1), BuildingBlock: AJUNOK_clean_linker_0, # of connection points: 2
#     Edge 69, Type (0, 1), BuildingBlock: AJUNOK_clean_linker_0, # of connection points: 2
#     Edge 70, Type (0, 1), BuildingBlock: AJUNOK_clean_linker_0, # of connection points: 2
#     Edge 71, Type (0, 1), BuildingBlock: AJUNOK_clean_linker_0, # of connection points: 2
#     Edge 72, Type (0, 1), BuildingBlock: AJUNOK_clean_linker_0, # of connection points: 2
#     Edge 73, Type (0, 1), BuildingBlock: AJUNOK_clean_linker_0, # of connection points: 2
#     Edge 74, Type (0, 1), BuildingBlock: AJUNOK_clean_linker_0, # of connection points: 2
#     Edge 75, Type (0, 1), BuildingBlock: AJUNOK_clean_linker_0, # of connection points: 2
# Relax obj value: 0.012
# Max RMSD: 0.061
# Mean RMSD: 0.029
data_MOF--net-ctn--node1-KUFVIS_clean_sbu_0--node2-KAKCAD_clean_linker_0--edge1-AJUNOK_clean_linker_0
_symmetry_space_group_name_H-M    P1
_symmetry_Int_Tables_number       1
_symmetry_cell_setting            triclinic
loop_
_symmetry_equiv_pos_as_xyz
'x, y, z'
_cell_length_a     51.938141
_cell_length_b     51.751005
_cell_length_c     51.967783
_cell_angle_alpha  90.993978
_cell_angle_beta   90.481665
_cell_angle_gamma 91.781768
loop_
_atom_site_label
_atom_site_type_symbol
_atom_site_fract_x
_atom_site_fract_y
_atom_site_fract_z
_atom_type_partial_charge
C0 C 0.0288 0.10978 0.97969 0.0
C1 C 0.02366 0.13399 0.99068 0.0
C2 C 0.0358 0.0893 0.99526 0.0
C3 C 0.03744 0.09255 0.02217 0.0
C4 C 0.03217 0.11685 0.03314 0.0
C5 C 0.02554 0.13746 0.01748 0.0
C6 C 0.04427 0.07044 0.0386 0.0
C7 C 0.06539 0.05528 0.03228 0.0
C8 C 0.07127 0.03323 0.04653 0.0
C9 C 0.05535 0.02664 0.06745 0.0
C10 C 0.03459 0.04201 0.07459 0.0
C11 C 0.02929 0.06396 0.06008 0.0
C12 C 0.01829 0.03499 0.09708 0.0
C13 C 0.00946 0.00932 0.10051 0.0
C14 C 0.01144 0.05391 0.1153 0.0
C15 C 0.99632 0.0473 0.13653 0.0
C16 C 0.98751 0.02161 0.14002 0.0
C17 C 0.09396 0.01725 0.03958 0.0
C18 C 0.10241 0.01527 0.01393 0.0
C19 C 0.10753 1.00384 0.05851 0.0
C20 C 0.12857 0.98885 0.05198 0.0
C21 C 0.13737 0.98746 0.02647 0.0
C22 C 0.12392 1.0009 1.00756 0.0
C23 C 0.99412 1.00275 0.1216 0.0
H24 H 0.02735 0.10672 0.95904 0.0
H25 H 0.03949 0.07074 0.98629 0.0
H26 H 0.03341 0.11995 0.05378 0.0
H27 H 0.02159 0.15603 0.0263 0.0
H28 H 0.07749 0.06116 0.01643 0.0
H29 H 0.01288 0.07548 0.06495 0.0
H30 H 0.05903 0.00951 0.07839 0.0
H31 H 0.01403 0.99436 0.08659 0.0
H32 H 0.0181 0.07382 0.11333 0.0
H33 H 0.99169 0.0623 0.15037 0.0
H34 H 0.09234 0.02461 0.99852 0.0
H35 H 0.10213 1.00497 0.07854 0.0
H36 H 0.98706 0.98294 0.1232 0.0
H37 H 0.13003 1.0004 0.98769 0.0
H38 H 0.13771 0.9781 0.06703 0.0
C39 C 0.38226 0.73762 0.27746 0.0
C40 C 0.40284 0.72064 0.27952 0.0
C41 C 0.36343 0.7339 0.25831 0.0
C42 C 0.36427 0.7127 0.24124 0.0
C43 C 0.38419 0.69518 0.24364 0.0
C44 C 0.40343 0.69922 0.26246 0.0
C45 C 0.34416 0.70889 0.22112 0.0
C46 C 0.34113 0.72751 0.20214 0.0
C47 C 0.32149 0.72461 0.18342 0.0
C48 C 0.30481 0.70262 0.18407 0.0
C49 C 0.30728 0.68392 0.2033 0.0
C50 C 0.3273 0.68725 0.22163 0.0
C51 C 0.28827 0.66172 0.20516 0.0
C52 C 0.26212 0.66467 0.1987 0.0
C53 C 0.29582 0.63768 0.21457 0.0
C54 C 0.27761 0.61769 0.21849 0.0
C55 C 0.25156 0.62104 0.21256 0.0
C56 C 0.31783 0.74492 0.16377 0.0
C57 C 0.32106 0.77131 0.17046 0.0
C58 C 0.31056 0.73817 0.13833 0.0
C59 C 0.306 0.75729 0.12027 0.0
C60 C 0.30866 0.78364 0.12716 0.0
C61 C 0.31668 0.7904 0.15235 0.0
C62 C 0.24406 0.64443 0.20208 0.0
H63 H 0.38051 0.75378 0.29073 0.0
H64 H 0.34796 0.74741 0.25703 0.0
H65 H 0.38511 0.67865 0.23064 0.0
H66 H 0.41896 0.68578 0.26337 0.0
H67 H 0.35434 0.74413 0.20188 0.0
H68 H 0.32924 0.67364 0.23708 0.0
H69 H 0.28957 0.70033 0.16981 0.0
H70 H 0.25531 0.68288 0.19184 0.0
H71 H 0.31579 0.63432 0.21918 0.0
H72 H 0.28383 0.59966 0.2264 0.0
H73 H 0.32643 0.77731 0.18989 0.0
H74 H 0.30833 0.71809 0.13231 0.0
H75 H 0.22405 0.6474 0.19738 0.0
H76 H 0.31945 0.81051 0.15813 0.0
H77 H 0.29987 0.75145 0.10101 0.0
C78 C 0.01197 0.50809 0.13303 0.0
C79 C 0.03844 0.5035 0.13145 0.0
C80 C 0.99559 0.50279 0.11192 0.0
C81 C 1.00535 0.49292 0.08868 0.0
C82 C 0.03195 0.48877 0.08703 0.0
C83 C 0.04828 0.49399 0.10815 0.0
C84 C 0.98785 0.48654 0.06637 0.0
C85 C 0.96739 0.50258 0.06021 0.0
C86 C 0.95047 0.4964 0.03952 0.0
C87 C 0.95457 0.4739 0.02463 0.0
C88 C 0.97499 0.45757 0.03041 0.0
C89 C 0.99137 0.46408 0.05138 0.0
C90 C 0.97891 0.43324 0.01524 0.0
C91 C 0.95776 0.41738 1.00724 0.0
C92 C 1.0039 0.42523 0.00938 0.0
C93 C 1.00765 0.40174 0.99637 0.0
C94 C 0.98652 0.38564 0.98895 0.0
C95 C 0.92839 0.51335 0.03387 0.0
C96 C 0.91425 0.52418 0.05413 0.0
C97 C 0.92135 0.51905 0.0084 0.0
C98 C 0.90104 0.53558 1.0034 0.0
C99 C 0.88742 0.54688 0.02375 0.0
C100 C 0.89405 0.54067 0.04913 0.0
C101 C 0.96153 0.39394 0.99417 0.0
H102 H 1.00386 0.51538 0.15077 0.0
H103 H 0.9752 0.50594 0.11401 0.0
H104 H 0.04023 0.48168 0.06931 0.0
H105 H 0.06869 0.49084 0.10618 0.0
H106 H 0.9649 0.52022 0.07131 0.0
H107 H 1.00648 0.45113 0.05658 0.0
H108 H 0.9417 0.46897 0.00866 0.0
H109 H 0.93826 0.42277 0.01153 0.0
H110 H 0.02064 0.43714 0.01487 0.0
H111 H 0.02713 0.39597 0.99247 0.0
H112 H 0.91865 0.51976 0.07395 0.0
H113 H 0.93188 0.5112 0.99232 0.0
H114 H 0.9448 0.3823 0.98812 0.0
H115 H 0.88347 0.54849 0.06521 0.0
H116 H 0.89633 0.53997 0.98364 0.0
C117 C 0.70786 0.77562 0.11589 0.0
C118 C 0.70872 0.74903 0.12073 0.0
C119 C 0.70432 0.7934 0.13605 0.0
C120 C 0.70135 0.78498 0.16148 0.0
C121 C 0.70152 0.75829 0.16618 0.0
C122 C 0.70517 0.74053 0.14603 0.0
C123 C 0.69917 0.80398 0.18317 0.0
C124 C 0.6814 0.79968 0.20304 0.0
C125 C 0.68002 0.81706 0.22409 0.0
C126 C 0.69702 0.83878 0.22517 0.0
C127 C 0.71496 0.84353 0.20548 0.0
C128 C 0.71558 0.8261 0.18442 0.0
C129 C 0.73361 0.86614 0.2074 0.0
C130 C 0.72652 0.8896 0.21911 0.0
C131 C 0.75899 0.86421 0.19831 0.0
C132 C 0.77686 0.88483 0.20147 0.0
C133 C 0.77005 0.90756 0.21443 0.0
C134 C 0.66101 0.81244 0.24506 0.0
C135 C 0.63578 0.80332 0.23928 0.0
C136 C 0.66784 0.81726 0.27102 0.0
C137 C 0.64999 0.81296 0.29064 0.0
C138 C 0.62489 0.80354 0.28483 0.0
C139 C 0.61796 0.79895 0.25891 0.0
C140 C 0.74459 0.90996 0.22277 0.0
H141 H 0.71048 0.7827 0.09657 0.0
H142 H 0.70398 0.81379 0.13173 0.0
H143 H 0.69946 0.75117 0.18555 0.0
H144 H 0.70529 0.72011 0.15025 0.0
H145 H 0.66875 0.78264 0.20218 0.0
H146 H 0.72917 0.82948 0.16906 0.0
H147 H 0.69635 0.85194 0.24156 0.0
H148 H 0.70704 0.89223 0.2257 0.0
H149 H 0.76544 0.84649 0.18948 0.0
H150 H 0.79632 0.8826 0.19468 0.0
H151 H 0.62968 0.79976 0.21952 0.0
H152 H 0.68713 0.82407 0.27626 0.0
H153 H 0.73874 0.92753 0.23241 0.0
H154 H 0.59878 0.79164 0.25381 0.0
H155 H 0.65581 0.81713 0.31037 0.0
C156 C 0.9664 0.98455 0.41549 0.0
C157 C 0.97672 0.99551 0.39314 0.0
C158 C 0.98204 0.98065 0.43706 0.0
C159 C 0.00856 0.98718 0.43667 0.0
C160 C 0.0187 0.99866 0.41433 0.0
C161 C 1.00293 1.00291 0.3929 0.0
C162 C 0.02573 0.98133 0.45903 0.0
C163 C 0.02143 0.95885 0.47366 0.0
C164 C 0.03819 0.95267 0.49399 0.0
C165 C 0.05975 0.9691 0.49927 0.0
C166 C 0.06425 0.99157 0.48511 0.0
C167 C 0.04705 0.9978 0.46538 0.0
C168 C 0.08723 0.00841 0.49076 0.0
C169 C 0.08449 0.03389 0.49973 0.0
C170 C 0.11204 0.99906 0.48706 0.0
C171 C 0.1338 0.01514 0.4918 0.0
C172 C 0.13111 0.04061 0.50095 0.0
C173 C 0.0333 0.92925 0.5099 0.0
C174 C 1.00823 0.92216 0.51784 0.0
C175 C 0.05392 0.91436 0.51818 0.0
C176 C 0.04974 0.89358 0.53465 0.0
C177 C 0.02485 0.88709 0.5433 0.0
C178 C 1.00405 0.90125 0.5343 0.0
C179 C 0.10626 0.04974 0.50509 0.0
H180 H 0.94621 0.97865 0.41612 0.0
H181 H 0.97331 0.9723 0.45397 0.0
H182 H 0.03904 1.00356 0.41295 0.0
H183 H 0.01145 0.01095 0.37573 0.0
H184 H 1.00549 0.94564 0.46877 0.0
H185 H 0.05056 0.01542 0.45484 0.0
H186 H 0.07284 0.96485 0.51489 0.0
H187 H 0.06551 0.04143 0.50278 0.0
H188 H 0.11455 0.97945 0.4801 0.0
H189 H 0.15276 1.00765 0.48846 0.0
H190 H 0.99191 0.93325 0.51199 0.0
H191 H 0.07339 0.91879 0.51199 0.0
H192 H 0.10365 0.06926 0.51209 0.0
H193 H 0.98464 0.89663 0.54061 0.0
H194 H 0.06607 0.88259 0.5407 0.0
C195 C 0.13454 0.6891 0.75435 0.0
C196 C 0.12639 0.71384 0.74791 0.0
C197 C 0.15446 0.68617 0.77234 0.0
C198 C 0.16653 0.70794 0.78441 0.0
C199 C 0.15824 0.73266 0.77795 0.0
C200 C 0.13837 0.73556 0.76005 0.0
C201 C 0.18765 0.70514 0.80371 0.0
C202 C 0.20698 0.68704 0.79988 0.0
C203 C 0.22762 0.68534 0.81747 0.0
C204 C 0.22889 0.70238 0.8389 0.0
C205 C 0.20965 0.72051 0.84329 0.0
C206 C 0.1889 0.72127 0.82576 0.0
C207 C 0.21152 0.73914 0.86568 0.0
C208 C 0.22331 0.73231 0.88904 0.0
C209 C 0.20204 0.76429 0.86368 0.0
C210 C 0.20437 0.78197 0.88425 0.0
C211 C 0.21687 0.77529 0.90706 0.0
C212 C 0.24797 0.66595 0.81336 0.0
C213 C 0.2414 0.64074 0.80448 0.0
C214 C 0.27407 0.67232 0.81859 0.0
C215 C 0.29306 0.65399 0.81503 0.0
C216 C 0.28646 0.62889 0.80595 0.0
C217 C 0.2604 0.62246 0.80084 0.0
C218 C 0.22628 0.75032 0.90934 0.0
H219 H 0.12563 0.672 0.74533 0.0
H220 H 0.16016 0.66685 0.77703 0.0
H221 H 0.16726 0.74988 0.7866 0.0
H222 H 0.1322 0.75486 0.75589 0.0
H223 H 0.2064 0.67482 0.78273 0.0
H224 H 0.17341 0.73435 0.82932 0.0
H225 H 0.24503 0.70152 0.85212 0.0
H226 H 0.23034 0.71307 0.89174 0.0
H227 H 0.19337 0.7707 0.84599 0.0
H228 H 0.19713 0.80119 0.88202 0.0
H229 H 0.2215 0.635 0.8006 0.0
H230 H 0.27994 0.69158 0.82521 0.0
H231 H 0.23595 0.74476 0.92685 0.0
H232 H 0.25469 0.60331 0.79375 0.0
H233 H 0.3129 0.65945 0.81956 0.0
C234 C 1.00006 0.63829 0.51245 0.0
C235 C 1.00556 0.63527 0.53873 0.0
C236 C 0.99582 0.61661 0.4963 0.0
C237 C 0.99649 0.59158 0.50629 0.0
C238 C 1.00222 0.58856 0.53247 0.0
C239 C 1.0071 0.61021 0.54845 0.0
C240 C 0.99055 0.5687 0.48953 0.0
C241 C 1.00532 0.56398 0.46757 0.0
C242 C 0.99937 0.54273 0.45108 0.0
C243 C 0.97808 0.52638 0.45678 0.0
C244 C 0.96273 0.53113 0.47851 0.0
C245 C 0.96947 0.55214 0.49501 0.0
C246 C 0.93869 0.51537 0.48298 0.0
C247 C 0.92234 0.50815 0.4622 0.0
C248 C 0.93127 0.50835 0.50799 0.0
C249 C 0.90787 0.49486 0.5121 0.0
C250 C 0.89131 0.48831 0.49132 0.0
C251 C 0.01471 0.53834 0.42735 0.0
C252 C 0.02252 0.55935 0.41217 0.0
C253 C 0.02147 0.51327 0.41949 0.0
C254 C 0.03555 0.50936 0.39691 0.0
C255 C 0.04291 0.5304 0.3816 0.0
C256 C 0.03649 0.55544 0.38967 0.0
C257 C 0.89903 0.49473 0.46632 0.0
H258 H 0.99897 0.65743 0.50446 0.0
H259 H 0.9914 0.61937 0.47614 0.0
H260 H 1.00296 0.56942 0.54053 0.0
H261 H 0.01151 0.60738 0.56851 0.0
H262 H 0.02167 0.57677 0.46355 0.0
H263 H 0.95762 0.55643 0.51152 0.0
H264 H 0.97308 0.51026 0.44393 0.0
H265 H 0.92722 0.51343 0.44272 0.0
H266 H 0.94353 0.51334 0.5244 0.0
H267 H 0.90249 0.48999 0.53155 0.0
H268 H 0.01749 0.57888 0.41746 0.0
H269 H 0.01602 0.49669 0.43089 0.0
H270 H 0.88695 0.48942 0.44985 0.0
H271 H 0.04235 0.5721 0.37855 0.0
H272 H 0.04037 0.48988 0.39121 0.0
C273 C 0.82457 0.76009 0.89368 0.0
C274 C 0.79903 0.75174 0.89818 0.0
C275 C 0.83019 0.77737 0.8738 0.0
C276 C 0.81038 0.78648 0.85798 0.0
C277 C 0.785 0.77734 0.86207 0.0
C278 C 0.77942 0.7602 0.88186 0.0
C279 C 0.81586 0.80552 0.83732 0.0
C280 C 0.83735 0.80303 0.82129 0.0
C281 C 0.84172 0.82007 0.80082 0.0
C282 C 0.82438 0.83997 0.79666 0.0
C283 C 0.80295 0.84308 0.81272 0.0
C284 C 0.79896 0.82577 0.83298 0.0
C285 C 0.78436 0.86396 0.80809 0.0
C286 C 0.77391 0.87791 0.82881 0.0
C287 C 0.77639 0.86969 0.78294 0.0
C288 C 0.75834 0.88872 0.77865 0.0
C289 C 0.74789 0.9026 0.79937 0.0
C290 C 0.86391 0.81633 0.7833 0.0
C291 C 0.88833 0.81086 0.79331 0.0
C292 C 0.86057 0.81695 0.75641 0.0
C293 C 0.88084 0.8109 0.73995 0.0
C294 C 0.90487 0.80418 0.75002 0.0
C295 C 0.90861 0.80504 0.77687 0.0
C296 C 0.75587 0.89696 0.82451 0.0
H297 H 0.84005 0.75378 0.90592 0.0
H298 H 0.84996 0.78404 0.87121 0.0
H299 H 0.76936 0.78332 0.84985 0.0
H300 H 0.75965 0.75353 0.88442 0.0
H301 H 0.85013 0.78714 0.82406 0.0
H302 H 0.78237 0.82785 0.84525 0.0
H303 H 0.82784 0.85332 0.78114 0.0
H304 H 0.77974 0.87417 0.84842 0.0
H305 H 0.78375 0.85913 0.76654 0.0
H306 H 0.75261 0.89267 0.75905 0.0
H307 H 0.89165 0.81075 0.81391 0.0
H308 H 0.84196 0.821 0.7481 0.0
H309 H 0.74789 0.90702 0.8409 0.0
H310 H 0.9271 0.80058 0.78519 0.0
H311 H 0.87735 0.81033 0.71937 0.0
C312 C 0.32566 0.25769 0.39528 0.0
C313 C 0.30032 0.24834 0.39936 0.0
C314 C 0.331 0.27497 0.37533 0.0
C315 C 0.31107 0.28334 0.35925 0.0
C316 C 0.28593 0.27341 0.36301 0.0
C317 C 0.28066 0.25616 0.38274 0.0
C318 C 0.316 0.30255 0.3387 0.0
C319 C 0.33683 0.3001 0.32182 0.0
C320 C 0.34003 0.31694 0.30101 0.0
C321 C 0.32244 0.33678 0.2976 0.0
C322 C 0.30172 0.33984 0.31454 0.0
C323 C 0.2988 0.32267 0.33506 0.0
C324 C 0.2826 0.36036 0.31043 0.0
C325 C 0.29061 0.38536 0.30306 0.0
C326 C 0.2561 0.35502 0.31371 0.0
C327 C 0.23809 0.37415 0.30976 0.0
C328 C 0.24612 0.39915 0.30253 0.0
C329 C 0.36061 0.31258 0.28179 0.0
C330 C 0.38595 0.30765 0.28965 0.0
C331 C 0.35465 0.31205 0.25534 0.0
C332 C 0.37333 0.30583 0.23722 0.0
C333 C 0.39849 0.30039 0.24511 0.0
C334 C 0.40476 0.30177 0.27146 0.0
C335 C 0.27258 0.40451 0.29914 0.0
H336 H 0.34118 0.25223 0.40793 0.0
H337 H 0.35056 0.28234 0.37292 0.0
H338 H 0.27024 0.27896 0.35063 0.0
H339 H 0.26101 0.24897 0.38508 0.0
H340 H 0.34976 0.28424 0.32407 0.0
H341 H 0.28309 0.32503 0.3484 0.0
H342 H 0.32463 0.34955 0.2814 0.0
H343 H 0.31085 0.3902 0.30049 0.0
H344 H 0.24918 0.33589 0.31897 0.0
H345 H 0.21784 0.36941 0.31243 0.0
H346 H 0.39112 0.30802 0.30989 0.0
H347 H 0.33525 0.31549 0.24868 0.0
H348 H 0.27934 0.42342 0.29305 0.0
H349 H 0.42394 0.2973 0.27804 0.0
H350 H 0.36799 0.30474 0.21702 0.0
C351 C 0.51413 0.01237 0.63005 0.0
C352 C 0.5406 1.00768 0.62905 0.0
C353 C 0.49823 1.00719 0.60859 0.0
C354 C 0.50845 0.99735 0.58554 0.0
C355 C 0.53506 0.99313 0.58446 0.0
C356 C 0.55094 0.99824 0.60595 0.0
C357 C 0.49127 0.99085 0.56302 0.0
C358 C 0.47083 1.0068 0.55665 0.0
C359 C 0.45322 0.99994 0.53667 0.0
C360 C 0.45725 0.97705 0.52225 0.0
C361 C 0.47819 0.96122 0.52772 0.0
C362 C 0.49481 0.96821 0.54835 0.0
C363 C 0.48251 0.93697 0.5125 0.0
C364 C 0.46167 0.92069 0.50449 0.0
C365 C 0.50766 0.9295 0.50648 0.0
C366 C 0.51186 0.90626 0.49318 0.0
C367 C 0.49101 0.88996 0.48533 0.0
C368 C 0.43042 0.0164 0.53151 0.0
C369 C 0.41911 0.03051 0.55168 0.0
C370 C 0.41948 0.01808 0.50668 0.0
C371 C 0.39787 0.0331 0.5023 0.0
C372 C 0.38695 0.0475 0.52246 0.0
C373 C 0.39806 0.04603 0.54715 0.0
C374 C 0.46587 0.89753 0.49108 0.0
H375 H 0.50564 0.01958 0.64763 0.0
H376 H 0.47779 0.01035 0.61028 0.0
H377 H 0.54368 0.98601 0.56691 0.0
H378 H 0.57138 0.995 0.60444 0.0
H379 H 0.46888 0.02479 0.56728 0.0
H380 H 0.51009 0.95548 0.5536 0.0
H381 H 0.44403 0.97134 0.50685 0.0
H382 H 0.44208 0.92554 0.50903 0.0
H383 H 0.5242 0.94164 0.51207 0.0
H384 H 0.53147 0.90085 0.48945 0.0
H385 H 0.4262 0.02941 0.57125 0.0
H386 H 0.42757 1.00787 0.49046 0.0
H387 H 0.44936 0.88549 0.48518 0.0
H388 H 0.39044 0.0569 0.56321 0.0
H389 H 0.38954 0.03302 0.48315 0.0
C390 C 0.20804 0.27573 0.6191 0.0
C391 C 0.21 0.24928 0.62418 0.0
C392 C 0.20464 0.29362 0.6392 0.0
C393 C 0.20282 0.28542 0.66481 0.0
C394 C 0.20412 0.25886 0.66978 0.0
C395 C 0.20773 0.241 0.64969 0.0
C396 C 0.20068 0.30456 0.68636 0.0
C397 C 0.18322 0.3002 0.70648 0.0
C398 C 0.1819 0.31775 0.7274 0.0
C399 C 0.19878 0.33956 0.7282 0.0
C400 C 0.21642 0.3444 0.70825 0.0
C401 C 0.2168 0.32689 0.68721 0.0
C402 C 0.23501 0.36712 0.70991 0.0
C403 C 0.22843 0.39025 0.72263 0.0
C404 C 0.25996 0.36557 0.6996 0.0
C405 C 0.27779 0.38625 0.70231 0.0
C406 C 0.27146 0.40868 0.71603 0.0
C407 C 0.16293 0.31334 0.74845 0.0
C408 C 0.13769 0.3042 0.74278 0.0
C409 C 0.16975 0.31863 0.77433 0.0
C410 C 0.15181 0.31488 0.79399 0.0
C411 C 0.12668 0.30552 0.7883 0.0
C412 C 0.1198 0.30036 0.76245 0.0
C413 C 0.24658 0.41061 0.726 0.0
H414 H 0.20966 0.28264 0.5996 0.0
H415 H 0.20346 0.31391 0.63471 0.0
H416 H 0.20297 0.25194 0.68931 0.0
H417 H 0.20877 0.22067 0.65411 0.0
H418 H 0.17074 0.28303 0.70588 0.0
H419 H 0.23001 0.33032 0.67154 0.0
H420 H 0.19821 0.35272 0.74457 0.0
H421 H 0.20931 0.39268 0.73025 0.0
H422 H 0.26618 0.34809 0.69012 0.0
H423 H 0.2969 0.38428 0.69457 0.0
H424 H 0.13161 0.30029 0.72308 0.0
H425 H 0.18905 0.32546 0.7795 0.0
H426 H 0.24125 0.42784 0.73657 0.0
H427 H 0.1006 0.29305 0.75745 0.0
H428 H 0.15761 0.31946 0.81365 0.0
C429 C 0.90106 0.24306 0.75926 0.0
C430 C 0.90738 0.22266 0.77547 0.0
C431 C 0.88056 0.24047 0.74171 0.0
C432 C 0.86628 0.21696 0.73886 0.0
C433 C 0.87314 0.19632 0.75469 0.0
C434 C 0.89282 0.19937 0.77314 0.0
C435 C 0.84432 0.21405 0.7198 0.0
C436 C 0.84296 0.23 0.69812 0.0
C437 C 0.82206 0.22794 0.68074 0.0
C438 C 0.8032 0.2082 0.68399 0.0
C439 C 0.80427 0.19157 0.70509 0.0
C440 C 0.82431 0.19542 0.7233 0.0
C441 C 0.78461 0.17013 0.70831 0.0
C442 C 0.75875 0.17281 0.70061 0.0
C443 C 0.79167 0.14659 0.71922 0.0
C444 C 0.77336 0.12668 0.72295 0.0
C445 C 0.74771 0.12952 0.71526 0.0
C446 C 0.81944 0.24714 0.65986 0.0
C447 C 0.82471 0.27359 0.66497 0.0
C448 C 0.81063 0.23951 0.63512 0.0
C449 C 0.80683 0.25791 0.61612 0.0
C450 C 0.81182 0.28436 0.62139 0.0
C451 C 0.8209 0.29195 0.64599 0.0
C452 C 0.74056 0.1526 0.70383 0.0
H453 H 0.91182 0.26131 0.76019 0.0
H454 H 0.87589 0.25728 0.73074 0.0
H455 H 0.86341 0.17759 0.75308 0.0
H456 H 0.89616 0.18346 0.78585 0.0
H457 H 0.85823 0.24406 0.69434 0.0
H458 H 0.82388 0.18407 0.74055 0.0
H459 H 0.78755 0.206 0.67017 0.0
H460 H 0.75234 0.19067 0.69252 0.0
H461 H 0.81142 0.14339 0.72482 0.0
H462 H 0.77928 0.10894 0.7317 0.0
H463 H 0.83115 0.28022 0.6839 0.0
H464 H 0.80654 0.21932 0.63044 0.0
H465 H 0.72079 0.15521 0.69791 0.0
H466 H 0.82487 0.31218 0.65063 0.0
H467 H 0.79937 0.25149 0.59749 0.0
C468 C 0.53334 0.61362 0.48072 0.0
C469 C 0.52134 0.63528 0.49135 0.0
C470 C 0.54087 0.59337 0.49633 0.0
C471 C 0.53686 0.59431 0.52309 0.0
C472 C 0.52506 0.61612 0.53375 0.0
C473 C 0.51744 0.63635 0.51808 0.0
C474 C 0.54513 0.57272 0.53976 0.0
C475 C 0.56833 0.56027 0.5349 0.0
C476 C 0.57611 0.53945 0.54989 0.0
C477 C 0.56081 0.53216 0.57102 0.0
C478 C 0.53748 0.54435 0.57663 0.0
C479 C 0.52972 0.56432 0.56034 0.0
C480 C 0.5212 0.53611 0.59919 0.0
C481 C 0.52282 0.51117 0.60957 0.0
C482 C 0.50396 0.55318 0.61092 0.0
C483 C 0.48848 0.54537 0.63151 0.0
C484 C 0.49032 0.52053 0.64188 0.0
C485 C 0.59962 0.52472 0.5429 0.0
C486 C 0.60674 0.52151 0.51696 0.0
C487 C 0.61454 0.51275 0.56182 0.0
C488 C 0.63525 0.49743 0.55495 0.0
C489 C 0.64231 0.49426 0.52902 0.0
C490 C 0.62788 0.50678 0.51018 0.0
C491 C 0.50826 0.50384 0.63093 0.0
H492 H 0.53718 0.61241 0.46029 0.0
H493 H 0.54967 0.57684 0.48734 0.0
H494 H 0.52197 0.61773 0.55429 0.0
H495 H 0.5083 0.65279 0.52688 0.0
H496 H 0.58055 0.56709 0.51951 0.0
H497 H 0.51129 0.57306 0.56311 0.0
H498 H 0.56711 0.51669 0.58294 0.0
H499 H 0.53518 0.49688 0.60129 0.0
H500 H 0.50234 0.57282 0.6045 0.0
H501 H 0.47495 0.55892 0.6392 0.0
H502 H 0.59566 0.52983 0.50163 0.0
H503 H 0.61022 0.51498 0.58205 0.0
H504 H 0.51137 0.485 0.63886 0.0
H505 H 0.63275 0.50502 0.49002 0.0
H506 H 0.64531 0.48759 0.57004 0.0
C507 C 0.47143 0.48036 0.91573 0.0
C508 C 0.48183 0.49088 0.89321 0.0
C509 C 0.48706 0.47667 0.93736 0.0
C510 C 0.51364 0.48296 0.93687 0.0
C511 C 0.52386 0.49394 0.91433 0.0
C512 C 0.50811 0.49799 0.89284 0.0
C513 C 0.53073 0.47736 0.95936 0.0
C514 C 0.52614 0.45522 0.97438 0.0
C515 C 0.54265 0.4493 0.99498 0.0
C516 C 0.56437 0.46555 1.00011 0.0
C517 C 0.56917 0.48773 0.98557 0.0
C518 C 0.55216 0.49372 0.96555 0.0
C519 C 0.59212 0.50468 0.9912 0.0
C520 C 0.58928 0.53078 0.998 0.0
C521 C 0.61699 0.49492 0.98944 0.0
C522 C 0.6387 0.51123 0.99366 0.0
C523 C 0.63588 0.53746 1.0002 0.0
C524 C 0.53717 0.4263 0.01128 0.0
C525 C 0.51189 0.42001 0.01909 0.0
C526 C 0.55727 0.41083 0.01975 0.0
C527 C 0.55227 0.38981 0.03575 0.0
C528 C 0.52703 0.38362 0.04364 0.0
C529 C 0.50689 0.39897 0.03513 0.0
C530 C 0.61096 0.5469 1.00285 0.0
H531 H 0.45119 0.47474 0.9165 0.0
H532 H 0.47825 0.46872 0.95442 0.0
H533 H 0.54424 0.49865 0.91288 0.0
H534 H 0.51667 0.50574 0.87555 0.0
H535 H 0.5101 0.44208 0.96963 0.0
H536 H 0.55587 0.5111 0.95469 0.0
H537 H 0.57725 0.46142 0.01593 0.0
H538 H 0.57027 0.53866 0.99968 0.0
H539 H 0.61962 0.47481 0.98426 0.0
H540 H 0.6577 0.50338 0.99181 0.0
H541 H 0.49599 0.43173 0.01331 0.0
H542 H 0.57692 0.41486 0.01386 0.0
H543 H 0.60824 0.56687 0.00818 0.0
H544 H 0.48731 0.39504 0.04128 0.0
H545 H 0.56817 0.37823 0.0418 0.0
C546 C 0.62073 0.1913 0.26702 0.0
C547 C 0.61829 0.21384 0.25247 0.0
C548 C 0.64183 0.18853 0.28363 0.0
C549 C 0.66066 0.20843 0.28638 0.0
C550 C 0.65843 0.23085 0.27184 0.0
C551 C 0.63771 0.23337 0.2548 0.0
C552 C 0.68247 0.20619 0.30468 0.0
C553 C 0.70046 0.18664 0.30147 0.0
C554 C 0.72219 0.18559 0.31787 0.0
C555 C 0.72523 0.2042 0.33786 0.0
C556 C 0.7072 0.22354 0.34138 0.0
C557 C 0.68591 0.22449 0.32476 0.0
C558 C 0.71131 0.24344 0.36183 0.0
C559 C 0.73191 0.26142 0.36014 0.0
C560 C 0.69494 0.24446 0.38313 0.0
C561 C 0.69957 0.26285 0.40286 0.0
C562 C 0.72045 0.28079 0.40145 0.0
C563 C 0.74213 0.16573 0.31375 0.0
C564 C 0.73516 0.14029 0.30583 0.0
C565 C 0.76845 0.17211 0.3177 0.0
C566 C 0.78722 0.15367 0.31379 0.0
C567 C 0.78027 0.12842 0.30543 0.0
C568 C 0.75399 0.12189 0.30173 0.0
C569 C 0.73622 0.2801 0.37953 0.0
H570 H 0.60617 0.17588 0.26581 0.0
H571 H 0.64317 0.17109 0.29473 0.0
H572 H 0.67294 0.2463 0.27342 0.0
H573 H 0.63716 0.25053 0.24322 0.0
H574 H 0.69801 0.17296 0.28555 0.0
H575 H 0.6722 0.23971 0.32723 0.0
H576 H 0.74153 0.20361 0.35098 0.0
H577 H 0.74455 0.26113 0.34366 0.0
H578 H 0.67891 0.2307 0.38472 0.0
H579 H 0.68706 0.26271 0.41943 0.0
H580 H 0.71511 0.13451 0.30295 0.0
H581 H 0.7747 0.19151 0.32348 0.0
H582 H 0.75193 0.29405 0.3772 0.0
H583 H 0.748 0.1026 0.29527 0.0
H584 H 0.80722 0.15922 0.31735 0.0
C585 C 0.49766 0.13425 0.013 0.0
C586 C 0.5063 0.13111 0.03842 0.0
C587 C 0.4927 0.11268 0.99689 0.0
C588 C 0.49568 0.08762 1.00614 0.0
C589 C 0.50429 0.08442 0.0315 0.0
C590 C 0.50986 0.106 0.0474 0.0
C591 C 0.48952 0.06485 0.98938 0.0
C592 C 0.50422 0.06016 0.96741 0.0
C593 C 0.49812 0.03908 0.95077 0.0
C594 C 0.47683 0.0227 0.95652 0.0
C595 C 0.46156 0.02737 0.97837 0.0
C596 C 0.46837 0.04841 0.99485 0.0
C597 C 0.43771 0.01131 0.98319 0.0
C598 C 0.42173 1.00278 0.96256 0.0
C599 C 0.4301 1.00526 0.0084 0.0
C600 C 0.40699 0.99139 0.01283 0.0
C601 C 0.39102 0.98303 0.99215 0.0
C602 C 0.51343 0.0349 0.92694 0.0
C603 C 0.52181 0.05615 0.91236 0.0
C604 C 0.51979 0.0099 0.91849 0.0
C605 C 0.53426 1.00632 0.89609 0.0
C606 C 0.54269 0.02767 0.88167 0.0
C607 C 0.53626 0.05259 0.89012 0.0
C608 C 0.39879 0.98878 0.96698 0.0
H609 H 0.49475 0.1534 1.00562 0.0
H610 H 0.48604 0.11552 0.97736 0.0
H611 H 0.50677 0.06523 0.03896 0.0
H612 H 0.51644 0.10303 0.06688 0.0
H613 H 0.52061 0.07291 0.96348 0.0
H614 H 0.45663 0.05278 0.01142 0.0
H615 H 0.47186 1.00658 0.94368 0.0
H616 H 0.42659 1.0074 0.94291 0.0
H617 H 0.44197 0.01129 0.02478 0.0
H618 H 0.40142 0.98765 0.03248 0.0
H619 H 0.51695 0.07565 0.91796 0.0
H620 H 0.51379 0.9931 0.92931 0.0
H621 H 0.38703 0.9825 0.95059 0.0
H622 H 0.54254 0.06947 0.87954 0.0
H623 H 0.53857 0.98686 0.88989 0.0
Mn624 Mn 0.25954 0.88017 0.01629 0.0
Mn625 Mn 0.2564 0.90154 0.95535 0.0
C626 C 0.23885 0.85539 0.98425 0.0
C627 C 0.27866 0.85724 0.04945 0.0
C628 C 0.22267 0.92169 0.99795 0.0
O629 O 0.28854 0.90772 0.01599 0.0
O630 O 0.28393 0.92103 0.97515 0.0
C631 C 0.30728 0.88366 0.93835 0.0
N632 N 0.28121 0.88374 0.93526 0.0
C633 C 0.28305 0.85554 0.89805 0.0
C634 C 0.30992 0.85529 0.90075 0.0
C635 C 0.32207 0.86936 0.92103 0.0
C636 C 0.26931 0.87012 0.91592 0.0
H637 H 0.31674 0.89438 0.95392 0.0
C638 C 0.29522 0.92202 0.99721 0.0
O639 O 0.2629 0.87568 0.0541 0.0
O640 O 0.28421 0.85289 0.02548 0.0
N641 N 0.23111 0.88404 0.93377 0.0
C642 C 0.20499 0.88552 0.93435 0.0
C643 C 0.18992 0.87253 0.91535 0.0
C644 C 0.20186 0.85815 0.89592 0.0
C645 C 0.22878 0.85687 0.89569 0.0
C646 C 0.2428 0.8705 0.91496 0.0
H647 H 0.19571 0.89634 0.94931 0.0
O648 O 0.23276 0.85236 0.00819 0.0
O649 O 0.25639 0.87312 0.97979 0.0
O650 O 0.23246 0.90819 0.01562 0.0
O651 O 0.22964 0.9204 0.97445 0.0
C652 C 0.24225 0.84247 0.87721 0.0
C653 C 0.26935 0.84168 0.87848 0.0
H654 H 0.3214 0.84426 0.88745 0.0
H655 H 0.3428 0.86918 0.92331 0.0
H656 H 0.16915 0.87349 0.91574 0.0
H657 H 0.19015 0.84811 0.88134 0.0
H658 H 0.23194 0.83175 0.86207 0.0
H659 H 0.27946 0.83027 0.86436 0.0
Mn660 Mn 0.14936 0.51044 0.25649 0.0
Mn661 Mn 0.12707 0.571 0.25432 0.0
C662 C 0.17328 0.54319 0.23709 0.0
C663 C 0.1731 0.47811 0.2758 0.0
C664 C 0.10735 0.52762 0.21883 0.0
O665 O 0.12167 0.50984 0.28435 0.0
O666 O 0.10858 0.55082 0.28097 0.0
C667 C 0.14574 0.58933 0.30567 0.0
N668 N 0.14519 0.59193 0.27963 0.0
C669 C 0.17282 0.63009 0.28237 0.0
C670 C 0.17354 0.62792 0.30922 0.0
C671 C 0.16002 0.60739 0.3209 0.0
C672 C 0.15834 0.61145 0.26818 0.0
H673 H 0.13536 0.5736 0.31474 0.0
C674 C 0.10732 0.52841 0.29105 0.0
O675 O 0.15478 0.4726 0.25928 0.0
O676 O 0.17673 0.50235 0.28203 0.0
N677 N 0.1434 0.59284 0.22957 0.0
C678 C 0.14045 0.59235 0.20348 0.0
C679 C 0.15265 0.61165 0.18887 0.0
C680 C 0.16751 0.6314 0.20123 0.0
C681 C 0.17 0.6317 0.22813 0.0
C682 C 0.15723 0.61206 0.24169 0.0
H683 H 0.12888 0.57733 0.19389 0.0
O684 O 0.17685 0.51918 0.23093 0.0
O685 O 0.15575 0.54729 0.25424 0.0
O686 O 0.1216 0.51036 0.22811 0.0
O687 O 0.10785 0.55099 0.22723 0.0
C688 C 0.18455 0.65076 0.24203 0.0
C689 C 0.18607 0.64988 0.26911 0.0
H690 H 0.18455 0.6418 0.32104 0.0
H691 H 0.16059 0.60551 0.34161 0.0
H692 H 0.15057 0.61135 0.16813 0.0
H693 H 0.17684 0.64627 0.18988 0.0
H694 H 0.19468 0.66617 0.23208 0.0
H695 H 0.19746 0.66454 0.27957 0.0
Mn696 Mn 0.7608 0.63539 0.01104 0.0
Mn697 Mn 0.70634 0.65714 0.98375 0.0
C698 C 0.72264 0.61065 0.01208 0.0
C699 C 0.79974 0.61348 0.01029 0.0
C700 C 0.72691 0.67697 0.0353 0.0
O701 O 0.77467 0.66393 0.98744 0.0
O702 O 0.73697 0.676 0.97021 0.0
C703 C 0.71529 0.6381 0.93062 0.0
N704 N 0.7002 0.6389 0.9519 0.0
C705 C 0.66722 0.61215 0.93109 0.0
C706 C 0.68234 0.61115 0.90889 0.0
C707 C 0.70654 0.62407 0.90871 0.0
C708 C 0.67709 0.62619 0.95243 0.0
H709 H 0.73384 0.64813 0.93038 0.0
C710 C 0.7615 0.67802 0.97259 0.0
O711 O 0.79528 0.6315 0.02714 0.0
O712 O 0.78175 0.60859 0.99319 0.0
N713 N 0.67491 0.6409 0.99489 0.0
C714 C 0.66238 0.64453 0.01754 0.0
C715 C 0.63757 0.63356 0.02063 0.0
C716 C 0.62579 0.61925 1.00032 0.0
C717 C 0.63901 0.61584 0.97716 0.0
C718 C 0.66355 0.62753 0.97508 0.0
H719 H 0.67113 0.65592 0.03307 0.0
O720 O 0.74086 0.60709 0.02877 0.0
O721 O 0.72728 0.62842 0.99523 0.0
O722 O 0.74641 0.66261 0.0357 0.0
O723 O 0.71071 0.67661 0.01667 0.0
C724 C 0.62864 0.60165 0.95591 0.0
C725 C 0.64282 0.59966 0.93295 0.0
H726 H 0.67563 0.60042 0.89192 0.0
H727 H 0.71837 0.6233 0.89168 0.0
H728 H 0.62744 0.63635 0.03853 0.0
H729 H 0.60645 0.61129 1.00263 0.0
H730 H 0.6098 0.59219 0.95703 0.0
H731 H 0.63471 0.58859 0.91679 0.0
Mn732 Mn 0.87654 0.01524 0.26117 0.0
Mn733 Mn 0.89533 0.9534 0.25834 0.0
C734 C 0.85127 0.98356 0.23991 0.0
C735 C 0.85413 0.04919 0.28007 0.0
C736 C 0.91905 0.99591 0.22565 0.0
O737 O 0.90346 0.01424 0.2904 0.0
O738 O 0.91257 0.97194 0.28778 0.0
C739 C 0.87187 0.93511 0.30678 0.0
N740 N 0.87444 0.93288 0.28078 0.0
C741 C 0.84549 0.89566 0.27901 0.0
C742 C 0.84292 0.89728 0.30582 0.0
C743 C 0.85604 0.9172 0.31974 0.0
C744 C 0.86153 0.91407 0.26715 0.0
H745 H 0.88171 0.95051 0.31755 0.0
C746 C 0.91499 0.99437 0.29856 0.0
O747 O 0.87326 0.05336 0.26466 0.0
O748 O 0.84899 0.02525 0.28573 0.0
N749 N 0.87959 0.9331 0.23099 0.0
C750 C 0.88383 0.93444 0.2052 0.0
C751 C 0.8717 0.91616 0.18848 0.0
C752 C 0.85558 0.89655 0.19845 0.0
C753 C 0.85173 0.89538 0.22509 0.0
C754 C 0.86437 0.9141 0.24081 0.0
H755 H 0.89637 0.94933 0.19742 0.0
O756 O 0.84915 1.00771 0.23423 0.0
O757 O 0.8682 0.97878 0.25754 0.0
O758 O 0.90472 0.01374 0.23393 0.0
O759 O 0.91758 0.9728 0.23393 0.0
C760 C 0.83584 0.8764 0.23665 0.0
C761 C 0.83258 0.87664 0.26357 0.0
H762 H 0.83068 0.88354 0.31587 0.0
H763 H 0.85391 0.91878 0.3404 0.0
H764 H 0.8748 0.91716 0.16795 0.0
H765 H 0.84623 0.88251 0.18549 0.0
H766 H 0.82595 0.86156 0.22503 0.0
H767 H 0.82008 0.86213 0.27219 0.0
Mn768 Mn 0.2588 0.13439 0.51373 0.0
Mn769 Mn 0.20512 0.15827 0.48682 0.0
C770 C 0.21997 0.11078 0.51442 0.0
C771 C 0.29671 0.11124 0.51201 0.0
C772 C 0.22651 0.17686 0.53859 0.0
O773 O 0.27348 0.16302 0.49073 0.0
O774 O 0.23631 0.17587 0.47294 0.0
C775 C 0.21288 0.13867 0.43368 0.0
N776 N 0.19794 0.14029 0.45502 0.0
C777 C 0.16403 0.11434 0.43474 0.0
C778 C 0.17898 0.1125 0.41248 0.0
C779 C 0.20355 0.12465 0.41199 0.0
C780 C 0.17441 0.12844 0.4558 0.0
H781 H 0.23177 0.14798 0.43325 0.0
C782 C 0.26087 0.17719 0.47546 0.0
O783 O 0.29303 0.12862 0.52974 0.0
O784 O 0.27873 0.10766 0.49469 0.0
N785 N 0.17326 0.14319 0.49831 0.0
C786 C 0.16132 0.14684 0.52128 0.0
C787 C 0.13637 0.13635 0.52481 0.0
C788 C 0.12387 0.12247 0.50464 0.0
C789 C 0.13646 0.1191 0.48111 0.0
C790 C 0.16117 0.13031 0.4786 0.0
H791 H 0.17069 0.15776 0.53677 0.0
O792 O 0.23813 0.10626 0.53087 0.0
O793 O 0.2251 0.12876 0.49792 0.0
O794 O 0.24523 0.1615 0.5391 0.0
O795 O 0.2106 0.17748 0.51975 0.0
C796 C 0.12546 0.10511 0.46004 0.0
C797 C 0.13931 0.10257 0.43693 0.0
H798 H 0.17185 0.10173 0.39569 0.0
H799 H 0.21525 0.12324 0.39491 0.0
H800 H 0.12676 0.13906 0.54301 0.0
H801 H 0.10454 0.11465 0.50738 0.0
H802 H 0.10646 0.09605 0.46148 0.0
H803 H 0.13077 0.09154 0.42096 0.0
Mn804 Mn 0.38041 0.51367 0.76314 0.0
Mn805 Mn 0.3964 0.45098 0.75977 0.0
C806 C 0.35379 0.4832 0.7418 0.0
C807 C 0.35923 0.54838 0.78216 0.0
C808 C 0.42175 0.49249 0.72701 0.0
O809 O 0.40705 0.51147 0.79234 0.0
O810 O 0.41538 0.46906 0.78859 0.0
C811 C 0.37331 0.43459 0.80907 0.0
N812 N 0.37551 0.43151 0.78311 0.0
C813 C 0.34569 0.39496 0.78274 0.0
C814 C 0.34344 0.39749 0.80953 0.0
C815 C 0.35721 0.41749 0.82272 0.0
C816 C 0.36206 0.41256 0.77018 0.0
H817 H 0.38364 0.45008 0.81927 0.0
C818 C 0.41847 0.49127 0.79974 0.0
O819 O 0.37858 0.55198 0.76686 0.0
O820 O 0.35319 0.52458 0.78759 0.0
N821 N 0.37896 0.43096 0.73321 0.0
C822 C 0.38112 0.43282 0.70721 0.0
C823 C 0.36828 0.41448 0.69109 0.0
C824 C 0.35302 0.39466 0.70186 0.0
C825 C 0.35043 0.39358 0.72866 0.0
C826 C 0.36412 0.4121 0.74376 0.0
H827 H 0.39199 0.44853 0.69886 0.0
O828 O 0.35294 0.50744 0.73604 0.0
O829 O 0.37041 0.47753 0.75942 0.0
O830 O 0.40893 0.51109 0.73621 0.0
O831 O 0.41862 0.46917 0.73439 0.0
C832 C 0.33449 0.37515 0.74096 0.0
C833 C 0.33198 0.37594 0.76796 0.0
H834 H 0.33097 0.3844 0.82011 0.0
H835 H 0.35536 0.41975 0.84336 0.0
H836 H 0.3699 0.41582 0.67041 0.0
H837 H 0.34307 0.38064 0.68934 0.0
H838 H 0.32371 0.36056 0.7298 0.0
H839 H 0.31925 0.362 0.77715 0.0
Mn840 Mn 0.76181 0.38356 0.51341 0.0
Mn841 Mn 0.75692 0.40726 0.45354 0.0
C842 C 0.7407 0.35983 0.48082 0.0
C843 C 0.78214 0.35904 0.54464 0.0
C844 C 0.72409 0.42541 0.49767 0.0
O845 O 0.79051 0.41147 0.51358 0.0
O846 O 0.78439 0.42653 0.47356 0.0
C847 C 0.80784 0.39124 0.43479 0.0
N848 N 0.78168 0.39063 0.43239 0.0
C849 C 0.78334 0.36337 0.39449 0.0
C850 C 0.81028 0.36383 0.39648 0.0
C851 C 0.82257 0.37776 0.41677 0.0
C852 C 0.76966 0.37711 0.41306 0.0
H853 H 0.81741 0.40188 0.45034 0.0
C854 C 0.79613 0.42693 0.49539 0.0
O855 O 0.76638 0.37707 0.55087 0.0
O856 O 0.78695 0.35614 0.52033 0.0
N857 N 0.73153 0.38999 0.43189 0.0
C858 C 0.7054 0.39114 0.43288 0.0
C859 C 0.69021 0.37812 0.41398 0.0
C860 C 0.70205 0.36415 0.39418 0.0
C861 C 0.72899 0.36343 0.39341 0.0
C862 C 0.74312 0.37693 0.41267 0.0
H863 H 0.69621 0.40175 0.44807 0.0
O864 O 0.73512 0.35574 0.50472 0.0
O865 O 0.75782 0.37806 0.47683 0.0
O866 O 0.73451 0.41148 0.51465 0.0
O867 O 0.73029 0.42487 0.47392 0.0
C868 C 0.74236 0.34974 0.37434 0.0
C869 C 0.76951 0.34962 0.37494 0.0
H870 H 0.82172 0.35343 0.38263 0.0
H871 H 0.84336 0.3781 0.41851 0.0
H872 H 0.66942 0.37876 0.41473 0.0
H873 H 0.69027 0.35396 0.37974 0.0
H874 H 0.73193 0.33904 0.35926 0.0
H875 H 0.77956 0.33879 0.36033 0.0
Mn876 Mn 0.64969 0.01374 0.75554 0.0
Mn877 Mn 0.62542 0.0736 0.75534 0.0
C878 C 0.67255 0.04783 0.73716 0.0
C879 C 0.6742 0.9814 0.77387 0.0
C880 C 0.60707 0.03072 0.71853 0.0
O881 O 0.62202 0.01141 0.78333 0.0
O882 O 0.6079 0.05214 0.78167 0.0
C883 C 0.64441 0.09098 0.80687 0.0
N884 N 0.64315 0.09444 0.78098 0.0
C885 C 0.66979 0.13326 0.78437 0.0
C886 C 0.67123 0.1302 0.8111 0.0
C887 C 0.65853 0.10893 0.82238 0.0
C888 C 0.65545 0.11474 0.7699 0.0
H889 H 0.63475 0.07462 0.81562 0.0
C890 C 0.60743 0.02939 0.79105 0.0
O891 O 0.65608 0.97602 0.7571 0.0
O892 O 0.67726 1.00551 0.78086 0.0
N893 N 0.64071 0.09664 0.731 0.0
C894 C 0.63767 0.09661 0.70492 0.0
C895 C 0.64918 0.11661 0.69069 0.0
C896 C 0.66352 0.13651 0.70339 0.0
C897 C 0.66607 0.13634 0.73027 0.0
C898 C 0.65392 0.11605 0.74347 0.0
H899 H 0.62661 0.08141 0.69504 0.0
O900 O 0.67695 0.02416 0.73033 0.0
O901 O 0.65492 0.05084 0.75444 0.0
O902 O 0.62203 0.01373 0.72712 0.0
O903 O 0.6066 0.0537 0.72788 0.0
C904 C 0.6803 0.15541 0.74448 0.0
C905 C 0.68227 0.1538 0.7715 0.0
H906 H 0.68215 0.14397 0.82312 0.0
H907 H 0.65965 0.10637 0.84298 0.0
H908 H 0.64707 0.11664 0.66995 0.0
H909 H 0.67246 0.15182 0.69231 0.0
H910 H 0.68997 0.17128 0.73481 0.0
H911 H 0.69349 0.16842 0.78218 0.0
Mn912 Mn 0.01397 0.25852 0.88516 0.0
Mn913 Mn 0.95226 0.25182 0.90466 0.0
C914 C 0.98283 0.23917 0.85837 0.0
C915 C 0.04803 0.27941 0.86377 0.0
C916 C 0.99461 0.21803 0.92391 0.0
O917 O 0.01239 0.28582 0.91396 0.0
O918 O 0.97107 0.27877 0.92599 0.0
C919 C 0.93394 0.30335 0.89048 0.0
N920 N 0.93173 0.27709 0.88858 0.0
C921 C 0.8944 0.27935 0.86104 0.0
C922 C 0.8962 0.30641 0.86284 0.0
C923 C 0.91609 0.31845 0.87759 0.0
C924 C 0.91257 0.26529 0.87454 0.0
H925 H 0.94922 0.31274 0.90174 0.0
C926 C 0.99303 0.29076 0.92813 0.0
O927 O 0.05198 0.26285 0.88171 0.0
O928 O 0.02423 0.2851 0.8594 0.0
N929 N 0.93194 0.22688 0.88505 0.0
C930 C 0.93471 0.20085 0.88283 0.0
C931 C 0.91716 0.18597 0.86761 0.0
C932 C 0.89702 0.19801 0.85474 0.0
C933 C 0.89471 0.22487 0.85708 0.0
C934 C 0.91267 0.23867 0.8727 0.0
H935 H 0.95055 0.19163 0.89207 0.0
O936 O 1.00685 0.23346 0.85593 0.0
O937 O 0.97764 0.25515 0.87703 0.0
O938 O 0.01262 0.2294 0.91152 0.0
O939 O 0.97114 0.22446 0.9223 0.0
C940 C 0.87588 0.23858 0.84381 0.0
C941 C 0.87569 0.26579 0.84582 0.0
H942 H 0.88262 0.31813 0.85274 0.0
H943 H 0.91769 0.33933 0.87897 0.0
H944 H 0.91934 0.16531 0.86554 0.0
H945 H 0.88376 0.18653 0.8427 0.0
H946 H 0.8618 0.22843 0.83154 0.0
H947 H 0.86141 0.27615 0.83514 0.0
Mn948 Mn 0.51319 0.75796 0.38457 0.0
Mn949 Mn 0.4521 0.75567 0.4065 0.0
C950 C 0.48015 0.73814 0.36029 0.0
C951 C 0.54699 0.77678 0.36105 0.0
C952 C 0.49331 0.72051 0.42577 0.0
O953 O 0.51405 0.78679 0.41206 0.0
O954 O 0.47304 0.78254 0.42572 0.0
C955 C 0.43743 0.80744 0.38899 0.0
N956 N 0.43332 0.7813 0.3888 0.0
C957 C 0.39708 0.78439 0.35996 0.0
C958 C 0.40084 0.81133 0.35999 0.0
C959 C 0.42116 0.82289 0.37451 0.0
C960 C 0.41398 0.76997 0.37468 0.0
H961 H 0.45303 0.81648 0.40004 0.0
C962 C 0.49549 0.79357 0.42649 0.0
O963 O 0.55113 0.76071 0.37941 0.0
O964 O 0.52322 0.78292 0.35724 0.0
N965 N 0.42942 0.73103 0.38919 0.0
C966 C 0.42794 0.70488 0.39169 0.0
C967 C 0.40864 0.69037 0.37836 0.0
C968 C 0.39075 0.70294 0.36296 0.0
C969 C 0.39215 0.72995 0.36127 0.0
C970 C 0.41178 0.74339 0.37505 0.0
H971 H 0.44126 0.69521 0.40391 0.0
O972 O 0.50383 0.73165 0.35689 0.0
O973 O 0.47658 0.75551 0.37808 0.0
O974 O 0.51145 0.73023 0.41232 0.0
O975 O 0.47012 0.72808 0.425 0.0
C976 C 0.3748 0.74407 0.34651 0.0
C977 C 0.37733 0.77126 0.34576 0.0
H978 H 0.38834 0.82331 0.34883 0.0
H979 H 0.42428 0.84366 0.37453 0.0
H980 H 0.40752 0.66955 0.38004 0.0
H981 H 0.37594 0.69169 0.35263 0.0
H982 H 0.35951 0.7342 0.33554 0.0
H983 H 0.364 0.78189 0.33416 0.0
Mn984 Mn 0.01567 0.76049 0.63467 0.0
Mn985 Mn 0.98912 0.70502 0.65754 0.0
C986 C 0.01707 0.72223 0.61061 0.0
C987 C 0.01418 0.79939 0.61214 0.0
C988 C 0.04055 0.72759 0.67633 0.0
O989 O 0.9921 0.77356 0.66331 0.0
O990 O 0.97482 0.73529 0.67564 0.0
C991 C 0.93582 0.71153 0.63863 0.0
N992 N 0.95746 0.69736 0.63961 0.0
C993 C 0.93746 0.66326 0.61366 0.0
C994 C 0.91491 0.67743 0.61247 0.0
C995 C 0.91414 0.70172 0.6249 0.0
C996 C 0.95854 0.67415 0.6274 0.0
H997 H 0.93513 0.73015 0.64826 0.0
C998 C 0.97708 0.75996 0.67747 0.0
O999 O 0.03126 0.79563 0.6299 0.0
O1000 O 0.99723 0.78074 0.60798 0.0
N1001 N 1.00102 0.67391 0.64194 0.0
C1002 C 0.02398 0.66241 0.64562 0.0
C1003 C 0.0277 0.63768 0.63505 0.0
C1004 C 1.00769 0.62491 0.6211 0.0
C1005 C 0.98418 0.63706 0.61765 0.0
C1006 C 0.9815 0.66159 0.6289 0.0
H1007 H 0.03929 0.67193 0.65671 0.0
O1008 O 0.03346 0.7411 0.60649 0.0
O1009 O 1.00028 0.72632 0.6285 0.0
O1010 O 0.04078 0.74697 0.66153 0.0
O1011 O 0.02192 0.7109 0.67674 0.0
C1012 C 0.9632 0.62567 0.60381 0.0
C1013 C 0.93991 0.63884 0.60166 0.0
H1014 H 0.89812 0.6699 0.60197 0.0
H1015 H 0.89685 0.71282 0.62398 0.0
H1016 H 0.04586 0.62838 0.63787 0.0
H1017 H 0.01052 0.60565 0.61341 0.0
H1018 H 0.96476 0.60679 0.59472 0.0
H1019 H 0.92396 0.62995 0.59085 0.0
Mn1020 Mn 0.51331 0.25633 0.1341 0.0
Mn1021 Mn 0.48485 0.20087 0.15487 0.0
C1022 C 0.51668 0.21794 0.11052 0.0
C1023 C 0.51295 0.29469 0.11062 0.0
C1024 C 0.53441 0.22391 0.17806 0.0
O1025 O 0.48761 0.26949 0.16058 0.0
O1026 O 0.46904 0.23132 0.17157 0.0
C1027 C 0.43378 0.20824 0.13073 0.0
N1028 N 0.45467 0.19342 0.13439 0.0
C1029 C 0.43651 0.15949 0.10695 0.0
C1030 C 0.4146 0.1742 0.10326 0.0
C1031 C 0.41331 0.19874 0.11508 0.0
C1032 C 0.45632 0.17001 0.1227 0.0
H1033 H 0.43284 0.22722 0.13952 0.0
C1034 C 0.47114 0.25604 0.17323 0.0
O1035 O 0.52883 0.29171 0.12967 0.0
O1036 O 0.49662 0.27568 0.10582 0.0
N1037 N 0.49764 0.16962 0.14026 0.0
C1038 C 0.52055 0.15837 0.14485 0.0
C1039 C 0.52499 0.13371 0.13447 0.0
C1040 C 0.5058 0.12082 0.11952 0.0
C1041 C 0.48243 0.13282 0.11488 0.0
C1042 C 0.47894 0.15723 0.12612 0.0
H1043 H 0.53533 0.16818 0.15625 0.0
O1044 O 0.53343 0.23677 0.10768 0.0
O1045 O 0.49856 0.22211 0.12698 0.0
O1046 O 0.53591 0.24339 0.16338 0.0
O1047 O 0.51627 0.20664 0.17659 0.0
C1048 C 0.4625 0.12158 0.09944 0.0
C1049 C 0.43963 0.13499 0.09532 0.0
H1050 H 0.39879 0.16696 0.09117 0.0
H1051 H 0.39659 0.21034 0.1121 0.0
H1052 H 0.54316 0.12465 0.138 0.0
H1053 H 0.50925 0.10172 0.11172 0.0
H1054 H 0.46471 0.10278 0.09036 0.0
H1055 H 0.42462 0.12635 0.08308 0.0
C1056 C 0.24717 0.80269 0.93401 0.0
C1057 C 0.22171 0.79495 0.92769 0.0
C1058 C 0.25241 0.82235 0.95235 0.0
C1059 C 0.23237 0.83483 0.96509 0.0
H1060 H 0.26314 0.7939 0.92425 0.0
H1061 H 0.27231 0.82796 0.95649 0.0
S1062 S 0.16253 0.82029 0.9569 0.0
N1063 N 0.17629 0.80046 0.93628 0.0
N1064 N 0.18626 0.83691 0.97153 0.0
C1065 C 0.20689 0.82653 0.95979 0.0
C1066 C 0.20151 0.80684 0.94072 0.0
C1067 C 0.08019 0.51262 0.35688 0.0
C1068 C 0.05734 0.52663 0.35726 0.0
C1069 C 0.09569 0.51179 0.33478 0.0
C1070 C 0.08884 0.525 0.31241 0.0
H1071 H 0.08674 0.50328 0.37413 0.0
H1072 H 0.11377 0.50195 0.3357 0.0
S1073 S 0.02874 0.56054 0.30214 0.0
N1074 N 0.02706 0.55101 0.33225 0.0
N1075 N 0.05618 0.54978 0.29104 0.0
C1076 C 0.06523 0.5376 0.31209 0.0
C1077 C 0.04949 0.53834 0.33442 0.0
C1078 C 0.8043 0.71067 0.92296 0.0
C1079 C 0.79234 0.73455 0.91996 0.0
C1080 C 0.79545 0.6928 0.94133 0.0
C1081 C 0.7744 0.69831 0.95715 0.0
H1082 H 0.81969 0.70527 0.91021 0.0
H1083 H 0.80415 0.67407 0.94213 0.0
S1084 S 0.73951 0.75975 0.95987 0.0
N1085 N 0.7607 0.76393 0.93669 0.0
N1086 N 0.74395 0.73041 0.97073 0.0
C1087 C 0.76353 0.72276 0.95544 0.0
C1088 C 0.77253 0.74087 0.93697 0.0
C1089 C 0.94959 0.97349 0.35916 0.0
C1090 C 0.96079 0.99652 0.3693 0.0
C1091 C 0.93517 0.97323 0.3363 0.0
C1092 C 0.93082 0.99608 0.32268 0.0
H1093 H 0.95236 0.95537 0.36879 0.0
H1094 H 0.92727 0.95476 0.32941 0.0
S1095 S 0.95591 0.06171 0.3415 0.0
N1096 N 0.96687 0.04286 0.36422 0.0
N1097 N 0.93907 0.04259 0.32139 0.0
C1098 C 0.94176 0.0194 0.33279 0.0
C1099 C 0.95694 0.01955 0.35599 0.0
C1100 C 0.19865 0.23005 0.58078 0.0
C1101 C 0.2145 0.23047 0.60283 0.0
C1102 C 0.20262 0.21262 0.56031 0.0
C1103 C 0.2228 0.19497 0.56088 0.0
H1104 H 0.18286 0.24317 0.57942 0.0
H1105 H 0.18969 0.21311 0.54388 0.0
S1106 S 0.27045 0.18919 0.61416 0.0
N1107 N 0.25153 0.21237 0.62396 0.0
N1108 N 0.25917 0.1796 0.58566 0.0
C1109 C 0.23893 0.19538 0.58291 0.0
C1110 C 0.23473 0.21308 0.6038 0.0
C1111 C 0.46734 0.53044 0.68343 0.0
C1112 C 0.47367 0.51236 0.66404 0.0
C1113 C 0.45094 0.52373 0.70377 0.0
C1114 C 0.4406 0.49841 0.70619 0.0
H1115 H 0.47508 0.55009 0.683 0.0
H1116 H 0.44639 0.53859 0.7178 0.0
S1117 S 0.45132 0.44333 0.66114 0.0
N1118 N 0.46738 0.4679 0.64846 0.0
N1119 N 0.43891 0.4548 0.68795 0.0
C1120 C 0.44754 0.47983 0.68757 0.0
C1121 C 0.46344 0.48689 0.66626 0.0
C1122 C 0.79157 0.3256 0.60846 0.0
C1123 C 0.80627 0.30413 0.60178 0.0
C1124 C 0.78463 0.34369 0.59004 0.0
C1125 C 0.79216 0.34113 0.56417 0.0
H1126 H 0.7847 0.32804 0.62795 0.0
H1127 H 0.77271 0.35945 0.59608 0.0
S1128 S 0.83292 0.28961 0.53731 0.0
N1129 N 0.8297 0.28231 0.56794 0.0
N1130 N 0.81659 0.31612 0.53324 0.0
C1131 C 0.80766 0.32022 0.55743 0.0
C1132 C 0.81467 0.30176 0.57622 0.0
C1133 C 0.55674 0.03673 0.66523 0.0
C1134 C 0.55738 0.01281 0.65206 0.0
C1135 C 0.57266 0.04219 0.6867 0.0
C1136 C 0.58981 0.02388 0.69612 0.0
H1137 H 0.54409 0.05155 0.65862 0.0
H1138 H 0.57155 0.06108 0.69587 0.0
S1139 S 0.59761 0.95755 0.66911 0.0
N1140 N 0.57565 0.9702 0.65041 0.0
N1141 N 0.60565 0.98026 0.69065 0.0
C1142 C 0.59027 0.99963 0.68326 0.0
C1143 C 0.5741 0.99417 0.6613 0.0
C1144 C 0.93146 0.25057 0.80826 0.0
C1145 C 0.92807 0.22637 0.79559 0.0
C1146 C 0.94966 0.2545 0.82803 0.0
C1147 C 0.96455 0.23422 0.8368 0.0
H1148 H 0.91951 0.26659 0.80347 0.0
H1149 H 0.95171 0.27355 0.83692 0.0
S1150 S 0.96649 0.16834 0.80819 0.0
N1151 N 0.94419 0.18272 0.79126 0.0
N1152 N 0.97715 0.18999 0.82977 0.0
C1153 C 0.96252 0.21035 0.8237 0.0
C1154 C 0.94438 0.20638 0.80301 0.0
C1155 C 0.4813 0.84248 0.47917 0.0
C1156 C 0.49516 0.86484 0.47163 0.0
C1157 C 0.48285 0.8191 0.46534 0.0
C1158 C 0.49847 0.81694 0.44342 0.0
H1159 H 0.46868 0.84316 0.49564 0.0
H1160 H 0.47106 0.80273 0.47145 0.0
S1161 S 0.53937 0.86949 0.416 0.0
N1162 N 0.52561 0.88316 0.4411 0.0
N1163 N 0.52881 0.83905 0.41533 0.0
C1164 C 0.51338 0.8388 0.43631 0.0
C1165 C 0.51165 0.86277 0.45034 0.0
C1166 C 0.08233 0.30941 0.80668 0.0
C1167 C 0.10765 0.30075 0.80915 0.0
C1168 C 0.06353 0.30355 0.82513 0.0
C1169 C 0.06921 0.28867 0.84677 0.0
H1170 H 0.07689 0.32054 0.79014 0.0
H1171 H 0.04417 0.31008 0.8219 0.0
S1172 S 0.13292 0.26201 0.86267 0.0
N1173 N 0.13758 0.27703 0.83526 0.0
N1174 N 0.10249 0.2663 0.87006 0.0
C1175 C 0.09472 0.28064 0.84992 0.0
C1176 C 0.11385 0.2866 0.83111 0.0
C1177 C 0.51969 0.68275 0.48165 0.0
C1178 C 0.51328 0.65687 0.47467 0.0
C1179 C 0.51302 0.70332 0.46581 0.0
C1180 C 0.49947 0.69877 0.44259 0.0
H1181 H 0.53038 0.68711 0.49926 0.0
H1182 H 0.51858 0.7229 0.47171 0.0
S1183 S 0.47778 0.635 0.41549 0.0
N1184 N 0.492 0.62815 0.44298 0.0
N1185 N 0.48017 0.66676 0.41311 0.0
C1186 C 0.49285 0.67315 0.43539 0.0
C1187 C 0.49959 0.65222 0.45144 0.0
C1188 C 0.93231 0.80722 0.71019 0.0
C1189 C 0.92514 0.7941 0.73272 0.0
C1190 C 0.95011 0.7968 0.69285 0.0
C1191 C 0.961 0.77268 0.69723 0.0
H1192 H 0.92386 0.82553 0.70581 0.0
H1193 H 0.9546 0.80721 0.67546 0.0
S1194 S 0.94926 0.73101 0.75372 0.0
N1195 N 0.93082 0.75598 0.75859 0.0
N1196 N 0.96425 0.73663 0.72642 0.0
C1197 C 0.95447 0.75977 0.72003 0.0
C1198 C 0.93656 0.77039 0.73764 0.0
C1199 C 1.00258 0.84568 0.55711 0.0
C1200 C 0.02086 0.86585 0.56203 0.0
C1201 C 0.99993 0.82463 0.5738 0.0
C1202 C 0.01537 0.82303 0.59613 0.0
H1203 H 0.99078 0.84577 0.53982 0.0
H1204 H 0.98614 0.8092 0.56876 0.0
S1205 S 0.06393 0.87259 0.61922 0.0
N1206 N 0.05302 0.88405 0.59191 0.0
N1207 N 0.04819 0.84476 0.62317 0.0
C1208 C 0.03295 0.8437 0.60176 0.0
C1209 C 0.03566 0.86501 0.58476 0.0
C1210 C 0.08192 0.70257 0.73099 0.0
C1211 C 0.10514 0.71708 0.7289 0.0
C1212 C 0.06128 0.70603 0.7139 0.0
C1213 C 0.06297 0.72415 0.69397 0.0
H1214 H 0.07949 0.68876 0.74627 0.0
H1215 H 0.04375 0.69455 0.7166 0.0
S1216 S 0.12063 0.76538 0.67896 0.0
N1217 N 0.12931 0.74904 0.70443 0.0
N1218 N 0.09063 0.7558 0.67246 0.0
C1219 C 0.08637 0.73842 0.69139 0.0
C1220 C 0.10738 0.73483 0.70879 0.0
C1221 C 0.03158 0.66232 0.5707 0.0
C1222 C 0.00873 0.65813 0.55624 0.0
C1223 C 0.0345 0.68349 0.58793 0.0
C1224 C 0.01427 0.70045 0.592 0.0
H1225 H 0.04727 0.64916 0.56864 0.0
H1226 H 0.05235 0.68615 0.59872 0.0
S1227 S 0.95149 0.69916 0.55753 0.0
N1228 N 0.96627 0.6737 0.54599 0.0
N1229 N 0.97157 0.71301 0.5788 0.0
C1230 C 0.99167 0.69688 0.5772 0.0
C1231 C 0.9889 0.67574 0.5593 0.0
C1232 C 0.80509 0.93922 0.2014 0.0
C1233 C 0.78995 0.9279 0.22082 0.0
C1234 C 0.82467 0.95778 0.20749 0.0
C1235 C 0.83029 0.96475 0.23322 0.0
H1236 H 0.80176 0.93368 0.18143 0.0
H1237 H 0.83594 0.96614 0.19211 0.0
S1238 S 0.79517 0.94228 0.29085 0.0
N1239 N 0.78108 0.92618 0.26661 0.0
N1240 N 0.81803 0.96064 0.27796 0.0
C1241 C 0.81489 0.95411 0.25266 0.0
C1242 C 0.79475 0.93568 0.24649 0.0
C1243 C 0.79739 0.08368 0.30942 0.0
C1244 C 0.80033 0.10901 0.30019 0.0
C1245 C 0.81542 0.06477 0.30371 0.0
C1246 C 0.83713 0.07037 0.28847 0.0
H1247 H 0.78091 0.07836 0.32105 0.0
H1248 H 0.81195 0.04545 0.31085 0.0
S1249 S 0.85379 0.13386 0.25959 0.0
N1250 N 0.82665 0.13868 0.275 0.0
N1251 N 0.86069 0.10344 0.26464 0.0
C1252 C 0.84059 0.09582 0.2796 0.0
C1253 C 0.82218 0.11503 0.28535 0.0
C1254 C 0.34396 0.97568 0.98257 0.0
C1255 C 0.36603 0.96878 0.99642 0.0
C1256 C 0.32079 0.96122 0.98407 0.0
C1257 C 0.31854 0.93931 0.99968 0.0
H1258 H 0.34472 0.99216 0.97 0.0
H1259 H 0.30464 0.9669 0.97235 0.0
S1260 S 0.37032 0.91339 0.04057 0.0
N1261 N 0.38397 0.93881 0.02681 0.0
N1262 N 0.34022 0.91189 0.03001 0.0
C1263 C 0.34009 0.93281 0.01456 0.0
C1264 C 0.36385 0.94746 0.01285 0.0
C1265 C 0.20524 0.41338 0.28175 0.0
C1266 C 0.22681 0.41925 0.2976 0.0
C1267 C 0.18754 0.43231 0.27557 0.0
C1268 C 0.1906 0.45791 0.28504 0.0
H1269 H 0.2024 0.39416 0.27342 0.0
H1270 H 0.17168 0.42691 0.26271 0.0
S1271 S 0.24252 0.48257 0.32944 0.0
N1272 N 0.24922 0.45196 0.32422 0.0
N1273 N 0.21615 0.4876 0.31253 0.0
C1274 C 0.21161 0.46379 0.30169 0.0
C1275 C 0.22966 0.44449 0.30794 0.0
C1276 C 0.17157 0.06229 0.48508 0.0
C1277 C 0.15417 0.0579 0.50527 0.0
C1278 C 0.19281 0.07951 0.48825 0.0
C1279 C 0.19745 0.09282 0.51172 0.0
H1280 H 0.16837 0.05283 0.46652 0.0
H1281 H 0.2056 0.08261 0.47215 0.0
S1282 S 0.15919 0.08632 0.57117 0.0
N1283 N 0.14387 0.06716 0.54995 0.0
N1284 N 0.18427 0.09902 0.55601 0.0
C1285 C 0.18096 0.08772 0.53238 0.0
C1286 C 0.15907 0.07053 0.52906 0.0
C1287 C 0.72255 0.10203 0.7456 0.0
C1288 C 0.72833 0.10868 0.72015 0.0
C1289 C 0.70422 0.08242 0.75085 0.0
C1290 C 0.6912 0.06873 0.73082 0.0
H1291 H 0.73205 0.11229 0.76155 0.0
H1292 H 0.70021 0.07791 0.77073 0.0
S1293 S 0.70082 0.07745 0.66097 0.0
N1294 N 0.72039 0.09947 0.67475 0.0
N1295 N 0.68648 0.06191 0.68468 0.0
C1296 C 0.69748 0.07451 0.70532 0.0
C1297 C 0.71579 0.09483 0.69996 0.0
C1298 C 0.34446 0.06405 0.53749 0.0
C1299 C 0.3636 0.06338 0.51839 0.0
C1300 C 0.32297 0.07961 0.53513 0.0
C1301 C 0.31925 0.0946 0.51327 0.0
H1302 H 0.346 0.05244 0.55454 0.0
H1303 H 0.30899 0.07973 0.5505 0.0
S1304 S 0.36317 0.1007 0.45785 0.0
N1305 N 0.37742 0.08029 0.47704 0.0
N1306 N 0.33608 0.10825 0.47217 0.0
C1307 C 0.33769 0.09391 0.49374 0.0
C1308 C 0.36004 0.07857 0.49637 0.0
C1309 C 0.66118 0.46102 0.49926 0.0
C1310 C 0.66382 0.47715 0.52136 0.0
C1311 C 0.68083 0.44463 0.49157 0.0
C1312 C 0.70375 0.44316 0.50595 0.0
H1313 H 0.64359 0.46072 0.48791 0.0
H1314 H 0.67775 0.43265 0.4745 0.0
S1315 S 0.7216 0.48242 0.56407 0.0
N1316 N 0.69246 0.49179 0.55639 0.0
N1317 N 0.72866 0.4599 0.5426 0.0
C1318 C 0.70683 0.45912 0.52797 0.0
C1319 C 0.68708 0.47632 0.53552 0.0
C1320 C 0.70537 0.31279 0.43489 0.0
C1321 C 0.72577 0.30014 0.42266 0.0
C1322 C 0.71011 0.33177 0.45419 0.0
C1323 C 0.73539 0.33933 0.46127 0.0
H1324 H 0.6856 0.30846 0.42913 0.0
H1325 H 0.69397 0.3412 0.46297 0.0
S1326 S 0.7953 0.30944 0.43893 0.0
N1327 N 0.77213 0.29424 0.42219 0.0
N1328 N 0.78084 0.33081 0.45728 0.0
C1329 C 0.75584 0.32617 0.45017 0.0
C1330 C 0.7511 0.30647 0.43105 0.0
C1331 C 0.55114 0.03854 0.83574 0.0
C1332 C 0.55783 0.02452 0.85762 0.0
C1333 C 0.56666 0.0388 0.81385 0.0
C1334 C 0.58949 0.02487 0.81274 0.0
H1335 H 0.53405 0.05002 0.83575 0.0
H1336 H 0.56105 0.05064 0.79788 0.0
S1337 S 0.6151 0.98391 0.8643 0.0
N1338 N 0.58843 0.99547 0.87646 0.0
N1339 N 0.61744 0.99562 0.83501 0.0
C1340 C 0.59579 0.00965 0.83392 0.0
C1341 C 0.58001 0.00954 0.85642 0.0
C1342 C 0.27206 0.23719 0.43639 0.0
C1343 C 0.29357 0.23136 0.42134 0.0
C1344 C 0.26267 0.22009 0.45486 0.0
C1345 C 0.2745 0.19649 0.45935 0.0
H1346 H 0.26186 0.25484 0.43331 0.0
H1347 H 0.24542 0.22506 0.4652 0.0
S1348 S 0.3325 0.1727 0.4266 0.0
N1349 N 0.32736 0.20081 0.41315 0.0
N1350 N 0.30981 0.16875 0.44841 0.0
C1351 C 0.29694 0.191 0.44563 0.0
C1352 C 0.30647 0.20842 0.42651 0.0
C1353 C 0.45384 0.46934 0.85953 0.0
C1354 C 0.46573 0.49212 0.8695 0.0
C1355 C 0.43901 0.46943 0.83692 0.0
C1356 C 0.43494 0.49242 0.82344 0.0
H1357 H 0.45632 0.45115 0.86912 0.0
H1358 H 0.43046 0.45118 0.83014 0.0
S1359 S 0.46184 0.55748 0.84188 0.0
N1360 N 0.47275 0.53835 0.86437 0.0
N1361 N 0.44425 0.53875 0.82205 0.0
C1362 C 0.44661 0.51547 0.83337 0.0
C1363 C 0.46218 0.51525 0.85628 0.0
C1364 C 0.69899 0.73084 0.07652 0.0
C1365 C 0.71359 0.73031 0.0994 0.0
C1366 C 0.70335 0.71349 0.05607 0.0
C1367 C 0.7227 0.695 0.05752 0.0
H1368 H 0.68389 0.74465 0.07448 0.0
H1369 H 0.69147 0.71474 0.03894 0.0
S1370 S 0.76686 0.68637 0.11323 0.0
N1371 N 0.74852 0.71032 0.12225 0.0
N1372 N 0.7568 0.67764 0.08405 0.0
C1373 C 0.73755 0.69443 0.08037 0.0
C1374 C 0.73296 0.71204 0.10122 0.0
C1375 C 0.95035 0.03063 0.16922 0.0
C1376 C 0.97084 0.01479 0.1624 0.0
C1377 C 0.93407 0.02454 0.18982 0.0
C1378 C 0.93742 1.00222 0.20452 0.0
H1379 H 0.94652 0.04772 0.15825 0.0
H1380 H 0.91841 0.03729 0.1939 0.0
S1381 S 0.98943 0.95523 0.19584 0.0
N1382 N 0.99455 0.97656 0.17303 0.0
N1383 N 0.9637 0.96478 0.21135 0.0
C1384 C 0.95808 0.98635 0.19813 0.0
C1385 C 0.97479 0.99269 0.17721 0.0
C1386 C 0.31161 0.80223 0.08288 0.0
C1387 C 0.30238 0.80386 0.10823 0.0
C1388 C 0.30461 0.82013 0.06428 0.0
C1389 C 0.28803 0.84038 0.07023 0.0
H1390 H 0.32419 0.78684 0.0773 0.0
H1391 H 0.31185 0.8177 0.04493 0.0
S1392 S 0.25863 0.85327 0.13394 0.0
N1393 N 0.2758 0.82739 0.13833 0.0
N1394 N 0.26299 0.86123 0.10363 0.0
C1395 C 0.27916 0.84259 0.0957 0.0
C1396 C 0.28624 0.82431 0.11461 0.0
C1397 C 0.05547 0.53294 0.16692 0.0
C1398 C 0.05578 0.50887 0.15399 0.0
C1399 C 0.07207 0.5387 0.18783 0.0
C1400 C 0.08957 0.52054 0.19689 0.0
H1401 H 0.04257 0.54763 0.16055 0.0
H1402 H 0.07114 0.55766 0.19687 0.0
S1403 S 0.09685 0.454 0.17027 0.0
N1404 N 0.07421 0.46634 0.15216 0.0
N1405 N 0.10546 0.47697 0.19134 0.0
C1406 C 0.08973 0.49616 0.18428 0.0
C1407 C 0.07288 0.49041 0.16288 0.0
C1408 C 0.43353 0.70435 0.31309 0.0
C1409 C 0.42349 0.72521 0.29943 0.0
C1410 C 0.4523 0.70841 0.33252 0.0
C1411 C 0.46104 0.73349 0.33949 0.0
H1412 H 0.42644 0.68477 0.30918 0.0
H1413 H 0.45939 0.69194 0.34271 0.0
S1414 S 0.44454 0.79421 0.30736 0.0
N1415 N 0.42679 0.7716 0.29226 0.0
N1416 N 0.46083 0.77911 0.32964 0.0
C1417 C 0.45208 0.75435 0.32545 0.0
C1418 C 0.43352 0.75026 0.30532 0.0
C1419 C 1.00707 0.35881 0.9543 0.0
C1420 C 0.99041 0.36038 0.9755 0.0
C1421 C 0.00914 0.33569 0.93994 0.0
C1422 C 0.99457 0.31331 0.94622 0.0
H1423 H 0.01777 0.37585 0.94809 0.0
H1424 H 0.02121 0.33576 0.92304 0.0
S1425 S 0.95145 0.30612 1.00242 0.0
N1426 N 0.96164 0.33665 1.00391 0.0
N1427 N 0.96516 0.29346 0.97678 0.0
C1428 C 0.97903 0.31426 0.96825 0.0
C1429 C 0.97702 0.3377 0.9829 0.0
C1430 C 0.58062 0.80685 0.30355 0.0
C1431 C 0.60596 0.79818 0.30565 0.0
C1432 C 0.562 0.80074 0.3221 0.0
C1433 C 0.5679 0.78559 0.3435 0.0
H1434 H 0.57504 0.81828 0.28727 0.0
H1435 H 0.54265 0.80744 0.31924 0.0
S1436 S 0.63166 0.75843 0.35819 0.0
N1437 N 0.63607 0.7739 0.331 0.0
N1438 N 0.60132 0.76266 0.36599 0.0
C1439 C 0.59338 0.77735 0.34618 0.0
C1440 C 0.61233 0.78358 0.32726 0.0
C1441 C 0.03365 0.17513 0.96758 0.0
C1442 C 0.01581 0.15544 0.97412 0.0
C1443 C 0.02665 0.19517 0.95125 0.0
C1444 C 1.00141 0.1965 0.9412 0.0
H1445 H 0.05322 0.17487 0.97494 0.0
H1446 H 0.04112 0.20987 0.94667 0.0
S1447 S 0.9476 0.14926 0.95306 0.0
N1448 N 0.97213 0.13808 0.96944 0.0
N1449 N 0.95852 0.17601 0.9395 0.0
C1450 C 0.98334 0.17692 0.94802 0.0
C1451 C 0.99066 0.15632 0.96424 0.0
C1452 C 0.41058 0.26851 0.2112 0.0
C1453 C 0.41721 0.29067 0.22608 0.0
C1454 C 0.42808 0.25781 0.19401 0.0
C1455 C 0.45282 0.26911 0.19055 0.0
H1456 H 0.39188 0.25895 0.21334 0.0
H1457 H 0.42214 0.24039 0.18345 0.0
S1458 S 0.47936 0.32783 0.22451 0.0
N1459 N 0.45003 0.32385 0.23619 0.0
N1460 N 0.48289 0.30405 0.20331 0.0
C1461 C 0.45953 0.29166 0.2049 0.0
C1462 C 0.44177 0.30232 0.22285 0.0
C1463 C 0.53742 0.35854 0.08316 0.0
C1464 C 0.52201 0.36141 0.06105 0.0
C1465 C 0.53383 0.33734 0.09938 0.0
C1466 C 0.51473 0.31798 0.09416 0.0
H1467 H 0.55248 0.37281 0.08796 0.0
H1468 H 0.54646 0.33597 0.11596 0.0
S1469 S 0.4692 0.31638 0.03857 0.0
N1470 N 0.48688 0.34308 0.03474 0.0
N1471 N 0.47995 0.30336 0.06523 0.0
C1472 C 0.49889 0.32082 0.07229 0.0
C1473 C 0.50256 0.34247 0.05577 0.0
C1474 C 0.58701 0.19539 0.21917 0.0
C1475 C 0.59597 0.21664 0.23445 0.0
C1476 C 0.56667 0.19766 0.20147 0.0
C1477 C 0.55481 0.2214 0.19789 0.0
H1478 H 0.59612 0.17691 0.22046 0.0
H1479 H 0.56076 0.18083 0.19007 0.0
S1480 S 0.56861 0.28218 0.2349 0.0
N1481 N 0.58926 0.26163 0.2465 0.0
N1482 N 0.55205 0.26608 0.21224 0.0
C1483 C 0.5631 0.24265 0.21332 0.0
C1484 C 0.58341 0.24024 0.23179 0.0
C1485 C 0.48995 0.17105 0.05962 0.0
C1486 C 0.51015 0.15391 0.05594 0.0
C1487 C 0.49238 0.19181 0.07726 0.0
C1488 C 0.5151 0.19621 0.09178 0.0
H1489 H 0.47186 0.16796 0.04933 0.0
H1490 H 0.47623 0.20434 0.07981 0.0
S1491 S 0.57447 0.15868 0.08749 0.0
N1492 N 0.55419 0.14375 0.0671 0.0
N1493 N 0.55887 0.18326 0.09985 0.0
C1494 C 0.53588 0.1801 0.08737 0.0
C1495 C 0.5333 0.15868 0.06971 0.0
C1496 C 0.29837 0.43458 0.74758 0.0
C1497 C 0.29145 0.42903 0.72183 0.0
C1498 C 0.31853 0.45229 0.75374 0.0
C1499 C 0.33238 0.46513 0.73438 0.0
H1500 H 0.28862 0.42461 0.76305 0.0
H1501 H 0.32351 0.45576 0.77382 0.0
S1502 S 0.32022 0.45922 0.66421 0.0
N1503 N 0.29905 0.43873 0.67691 0.0
N1504 N 0.33647 0.47279 0.68864 0.0
C1505 C 0.32482 0.46078 0.70866 0.0
C1506 C 0.3046 0.44234 0.70233 0.0
C1507 C 0.30286 0.58402 0.81055 0.0
C1508 C 0.30657 0.60936 0.80158 0.0
C1509 C 0.32061 0.56478 0.80519 0.0
C1510 C 0.34281 0.57001 0.79055 0.0
H1511 H 0.28589 0.57892 0.82157 0.0
H1512 H 0.31645 0.54545 0.81203 0.0
S1513 S 0.36187 0.63353 0.76308 0.0
N1514 N 0.33439 0.63881 0.77771 0.0
N1515 N 0.3679 0.60285 0.7679 0.0
C1516 C 0.34717 0.59551 0.78214 0.0
C1517 C 0.32905 0.61511 0.78758 0.0
C1518 C 0.86438 0.45194 0.50982 0.0
C1519 C 0.86601 0.47473 0.49541 0.0
C1520 C 0.84117 0.43728 0.51121 0.0
C1521 C 0.81885 0.44489 0.49817 0.0
H1522 H 0.88142 0.44476 0.51909 0.0
H1523 H 0.84112 0.41917 0.52136 0.0
S1524 S 0.81193 0.50532 0.46165 0.0
N1525 N 0.84247 0.50591 0.47077 0.0
N1526 N 0.79912 0.4783 0.47304 0.0
C1527 C 0.81988 0.46849 0.48513 0.0
C1528 C 0.84338 0.48341 0.48382 0.0
C1529 C 0.70741 0.91709 0.77805 0.0
C1530 C 0.72851 0.92266 0.7946 0.0
C1531 C 0.68948 0.93593 0.77228 0.0
C1532 C 0.69196 0.96122 0.78266 0.0
H1533 H 0.70479 0.898 0.76936 0.0
H1534 H 0.67386 0.93069 0.75907 0.0
S1535 S 0.74371 0.98563 0.82739 0.0
N1536 N 0.75076 0.95521 0.82156 0.0
N1537 N 0.71706 0.99058 0.81089 0.0
C1538 C 0.7127 0.9669 0.7997 0.0
C1539 C 0.73094 0.94766 0.80562 0.0
C1540 C 0.66242 0.56999 0.02632 0.0
C1541 C 0.65878 0.55521 1.00349 0.0
C1542 C 0.6835 0.58755 0.02933 0.0
C1543 C 0.70099 0.59161 0.00921 0.0
H1544 H 0.64888 0.56795 0.04195 0.0
H1545 H 0.68569 0.59859 0.04715 0.0
S1546 S 0.70133 0.55637 0.94655 0.0
N1547 N 0.67547 0.5447 0.96116 0.0
N1548 N 0.71466 0.57803 0.96667 0.0
C1549 C 0.69801 0.57647 0.98665 0.0
C1550 C 0.67693 0.55827 0.98377 0.0
C1551 C 0.21736 0.58808 0.19922 0.0
C1552 C 0.23198 0.6008 0.21882 0.0
C1553 C 0.19851 0.56905 0.20512 0.0
C1554 C 0.19305 0.56305 0.23081 0.0
H1555 H 0.22064 0.59278 0.17926 0.0
H1556 H 0.18772 0.55946 0.18959 0.0
S1557 S 0.22717 0.58953 0.28885 0.0
N1558 N 0.24077 0.60498 0.26469 0.0
N1559 N 0.20495 0.56977 0.27577 0.0
C1560 C 0.20789 0.57525 0.25046 0.0
C1561 C 0.22738 0.59412 0.24446 0.0
C1562 C 0.84618 0.55837 1.00135 0.0
C1563 C 0.86633 0.5651 0.01874 0.0
C1564 C 0.82512 0.57451 0.99802 0.0
C1565 C 0.82343 0.59803 0.01189 0.0
H1566 H 0.84626 0.5401 0.99088 0.0
H1567 H 0.80969 0.56809 0.98505 0.0
S1568 S 0.87293 0.62602 0.05726 0.0
N1569 N 0.88447 0.598 0.04809 0.0
N1570 N 0.84508 0.62818 0.04204 0.0
C1571 C 0.84408 0.60547 0.02846 0.0
C1572 C 0.86544 0.58906 0.03183 0.0
C1573 C 0.15945 0.95689 0.99614 0.0
C1574 C 0.15992 0.97149 0.01932 0.0
C1575 C 0.18005 0.94144 0.98904 0.0
C1576 C 0.20177 0.93933 1.00511 0.0
H1577 H 0.1428 0.95698 0.98346 0.0
H1578 H 0.17856 0.93056 0.97112 0.0
S1579 S 0.21417 0.97528 0.06653 0.0
N1580 N 0.18549 0.98455 0.05714 0.0
N1581 N 0.22339 0.95427 0.04445 0.0
C1582 C 0.20279 0.954 0.02813 0.0
C1583 C 0.1821 0.97031 0.03509 0.0
loop_
_geom_bond_atom_site_label_1
_geom_bond_atom_site_label_2
_geom_bond_distance
_geom_bond_site_symmetry_2
_ccdc_geom_bond_type
C0 C1 1.386 . S
C0 C2 1.397 . S
C0 H24 0.931 . S
C1 C0 1.386 . S
C1 C5 1.397 . S
C2 C0 1.397 . S
C2 C3 1.387 1_556 S
C2 H25 0.930 . S
C3 C2 1.387 1_554 S
C3 C4 1.376 . S
C3 C6 1.479 . S
C4 C3 1.376 . S
C4 C5 1.389 1_554 S
C4 H26 0.929 . S
C5 C1 1.397 . S
C5 C4 1.389 1_556 S
C5 H27 0.930 . S
C6 C3 1.479 . S
C6 C7 1.387 . S
C6 C11 1.390 . S
C7 C6 1.387 . S
C7 C8 1.401 . S
C7 H28 0.926 . S
C8 C7 1.401 . S
C8 C9 1.376 . S
C8 C17 1.511 1_545 S
C9 C8 1.376 . S
C9 C10 1.392 . S
C9 H30 0.935 . S
C10 C9 1.392 . S
C10 C11 1.361 . S
C10 C12 1.525 . S
C11 C6 1.390 . S
C11 C10 1.361 . S
C11 H29 0.931 . S
C12 C10 1.525 . S
C12 C13 1.364 1_455 S
C12 C14 1.347 1_455 S
C13 C12 1.364 1_655 S
C13 C23 1.389 . S
C13 H31 0.931 1_645 S
C14 C12 1.347 1_655 S
C14 C15 1.409 . S
C14 H32 0.929 . S
C15 C14 1.409 . S
C15 C16 1.380 . S
C15 H33 0.930 . S
C16 C15 1.380 . S
C16 C23 1.378 . S
C17 C8 1.511 1_565 S
C17 C18 1.341 . S
C17 C19 1.371 . S
C18 C17 1.341 . S
C18 C22 1.399 . S
C18 H34 0.930 1_564 S
C19 C17 1.371 . S
C19 C20 1.392 . S
C19 H35 0.931 . S
C20 C19 1.392 . S
C20 C21 1.331 . S
C20 H38 0.932 . S
C21 C20 1.331 . S
C21 C22 1.365 . S
C22 C18 1.399 . S
C22 C21 1.365 . S
C22 H37 0.896 1_554 S
C23 C13 1.389 . S
C23 C16 1.378 . S
C23 H36 0.904 1_545 S
H24 C0 0.931 . S
H25 C2 0.930 . S
H26 C4 0.929 . S
H27 C5 0.930 . S
H28 C7 0.926 . S
H29 C11 0.931 . S
H30 C9 0.935 . S
H31 C13 0.931 1_465 S
H32 C14 0.929 . S
H33 C15 0.930 . S
H34 C18 0.930 1_546 S
H35 C19 0.931 . S
H36 C23 0.904 1_565 S
H37 C22 0.896 1_556 S
H38 C20 0.932 . S
C39 C40 1.386 . S
C39 C41 1.397 . S
C39 H63 0.931 . S
C40 C39 1.386 . S
C40 C44 1.397 . S
C41 C39 1.397 . S
C41 C42 1.384 . S
C41 H64 0.930 . S
C42 C41 1.384 . S
C42 C43 1.377 . S
C42 C45 1.481 . S
C43 C42 1.377 . S
C43 C44 1.389 . S
C43 H65 0.929 . S
C44 C40 1.397 . S
C44 C43 1.389 . S
C44 H66 0.931 . S
C45 C42 1.481 . S
C45 C46 1.387 . S
C45 C50 1.390 . S
C46 C45 1.387 . S
C46 C47 1.401 . S
C46 H67 0.930 . S
C47 C46 1.401 . S
C47 C48 1.376 . S
C47 C56 1.511 . S
C48 C47 1.376 . S
C48 C49 1.392 . S
C48 H69 0.931 . S
C49 C48 1.392 . S
C49 C50 1.361 . S
C49 C51 1.500 . S
C50 C45 1.390 . S
C50 C49 1.361 . S
C50 H68 0.931 . S
C51 C49 1.500 . S
C51 C52 1.371 . S
C51 C53 1.365 . S
C52 C51 1.371 . S
C52 C62 1.386 . S
C52 H70 0.931 . S
C53 C51 1.365 . S
C53 C54 1.409 . S
C53 H71 0.929 . S
C54 C53 1.409 . S
C54 C55 1.380 . S
C54 H72 0.930 . S
C55 C54 1.380 . S
C55 C62 1.357 . S
C56 C47 1.511 . S
C56 C57 1.341 . S
C56 C58 1.371 . S
C57 C56 1.341 . S
C57 C61 1.394 . S
C57 H73 0.930 . S
C58 C56 1.371 . S
C58 C59 1.392 . S
C58 H74 0.931 . S
C59 C58 1.392 . S
C59 C60 1.331 . S
C59 H77 0.932 . S
C60 C59 1.331 . S
C60 C61 1.336 . S
C61 C57 1.394 . S
C61 C60 1.336 . S
C61 H76 0.929 . S
C62 C52 1.386 . S
C62 C55 1.357 . S
C62 H75 0.928 . S
H63 C39 0.931 . S
H64 C41 0.930 . S
H65 C43 0.929 . S
H66 C44 0.931 . S
H67 C46 0.930 . S
H68 C50 0.931 . S
H69 C48 0.931 . S
H70 C52 0.931 . S
H71 C53 0.929 . S
H72 C54 0.930 . S
H73 C57 0.930 . S
H74 C58 0.931 . S
H75 C62 0.928 . S
H76 C61 0.929 . S
H77 C59 0.932 . S
C78 C79 1.386 . S
C78 C80 1.397 1_455 S
C78 H102 0.931 . S
C79 C78 1.386 . S
C79 C83 1.397 . S
C80 C78 1.397 1_655 S
C80 C81 1.380 1_655 S
C80 H103 0.930 . S
C81 C80 1.380 1_455 S
C81 C82 1.390 . S
C81 C84 1.473 1_455 S
C82 C81 1.390 . S
C82 C83 1.389 . S
C82 H104 0.929 . S
C83 C79 1.397 . S
C83 C82 1.389 . S
C83 H105 0.931 . S
C84 C81 1.473 1_655 S
C84 C85 1.387 . S
C84 C89 1.390 . S
C85 C84 1.387 . S
C85 C86 1.401 . S
C85 H106 0.930 . S
C86 C85 1.401 . S
C86 C87 1.376 . S
C86 C95 1.511 . S
C87 C86 1.376 . S
C87 C88 1.392 . S
C87 H108 0.958 . S
C88 C87 1.392 . S
C88 C89 1.361 . S
C88 C90 1.490 1_554 S
C89 C84 1.390 . S
C89 C88 1.361 . S
C89 H107 0.953 . S
C90 C88 1.490 1_556 S
C90 C91 1.379 . S
C90 C92 1.368 . S
C91 C90 1.379 . S
C91 C101 1.386 . S
C91 H109 0.931 . S
C92 C90 1.368 . S
C92 C93 1.409 1_655 S
C92 H110 0.929 1_656 S
C93 C92 1.409 1_455 S
C93 C94 1.380 1_455 S
C93 H111 0.930 . S
C94 C93 1.380 1_655 S
C94 C101 1.357 . S
C95 C86 1.511 . S
C95 C96 1.341 . S
C95 C97 1.371 . S
C96 C95 1.341 . S
C96 C100 1.394 . S
C96 H112 0.930 . S
C97 C95 1.371 . S
C97 C98 1.389 1_554 S
C97 H113 0.931 1_554 S
C98 C97 1.389 1_556 S
C98 C99 1.316 1_556 S
C98 H116 0.950 . S
C99 C98 1.316 1_554 S
C99 C100 1.336 . S
C100 C96 1.394 . S
C100 C99 1.336 . S
C100 H115 0.929 . S
C101 C91 1.386 . S
C101 C94 1.357 . S
C101 H114 0.928 . S
H102 C78 0.931 . S
H103 C80 0.930 . S
H104 C82 0.929 . S
H105 C83 0.931 . S
H106 C85 0.930 . S
H107 C89 0.953 . S
H108 C87 0.958 . S
H109 C91 0.931 . S
H110 C92 0.929 1_454 S
H111 C93 0.930 . S
H112 C96 0.930 . S
H113 C97 0.931 1_556 S
H114 C101 0.928 . S
H115 C100 0.929 . S
H116 C98 0.950 . S
C117 C118 1.386 . S
C117 C119 1.397 . S
C117 H141 0.931 . S
C118 C117 1.386 . S
C118 C122 1.397 . S
C119 C117 1.397 . S
C119 C120 1.384 . S
C119 H142 0.930 . S
C120 C119 1.384 . S
C120 C121 1.377 . S
C120 C123 1.481 . S
C121 C120 1.377 . S
C121 C122 1.389 . S
C121 H143 0.929 . S
C122 C118 1.397 . S
C122 C121 1.389 . S
C122 H144 0.931 . S
C123 C120 1.481 . S
C123 C124 1.387 . S
C123 C128 1.390 . S
C124 C123 1.387 . S
C124 C125 1.401 . S
C124 H145 0.930 . S
C125 C124 1.401 . S
C125 C126 1.376 . S
C125 C134 1.511 . S
C126 C125 1.376 . S
C126 C127 1.392 . S
C126 H147 0.931 . S
C127 C126 1.392 . S
C127 C128 1.361 . S
C127 C129 1.500 . S
C128 C123 1.390 . S
C128 C127 1.361 . S
C128 H146 0.931 . S
C129 C127 1.500 . S
C129 C130 1.371 . S
C129 C131 1.365 . S
C130 C129 1.371 . S
C130 C140 1.386 . S
C130 H148 0.931 . S
C131 C129 1.365 . S
C131 C132 1.409 . S
C131 H149 0.929 . S
C132 C131 1.409 . S
C132 C133 1.380 . S
C132 H150 0.930 . S
C133 C132 1.380 . S
C133 C140 1.357 . S
C134 C125 1.511 . S
C134 C135 1.341 . S
C134 C136 1.371 . S
C135 C134 1.341 . S
C135 C139 1.394 . S
C135 H151 0.930 . S
C136 C134 1.371 . S
C136 C137 1.392 . S
C136 H152 0.931 . S
C137 C136 1.392 . S
C137 C138 1.331 . S
C137 H155 0.932 . S
C138 C137 1.331 . S
C138 C139 1.336 . S
C139 C135 1.394 . S
C139 C138 1.336 . S
C139 H154 0.929 . S
C140 C130 1.386 . S
C140 C133 1.357 . S
C140 H153 0.928 . S
H141 C117 0.931 . S
H142 C119 0.930 . S
H143 C121 0.929 . S
H144 C122 0.931 . S
H145 C124 0.930 . S
H146 C128 0.931 . S
H147 C126 0.931 . S
H148 C130 0.931 . S
H149 C131 0.929 . S
H150 C132 0.930 . S
H151 C135 0.930 . S
H152 C136 0.931 . S
H153 C140 0.928 . S
H154 C139 0.929 . S
H155 C137 0.932 . S
C156 C157 1.386 . S
C156 C158 1.397 . S
C156 H180 0.931 . S
C157 C156 1.386 . S
C157 C161 1.397 . S
C158 C156 1.397 . S
C158 C159 1.384 1_655 S
C158 H181 0.930 . S
C159 C158 1.384 1_455 S
C159 C160 1.377 . S
C159 C162 1.481 . S
C160 C159 1.377 . S
C160 C161 1.389 1_455 S
C160 H182 0.929 . S
C161 C157 1.397 . S
C161 C160 1.389 1_655 S
C161 H183 0.931 1_655 S
C162 C159 1.481 . S
C162 C163 1.387 . S
C162 C167 1.390 . S
C163 C162 1.387 . S
C163 C164 1.401 . S
C163 H184 0.930 . S
C164 C163 1.401 . S
C164 C165 1.376 . S
C164 C173 1.511 . S
C165 C164 1.376 . S
C165 C166 1.392 . S
C165 H186 0.931 . S
C166 C165 1.392 . S
C166 C167 1.361 . S
C166 C168 1.500 1_565 S
C167 C162 1.390 . S
C167 C166 1.361 . S
C167 H185 0.931 1_565 S
C168 C166 1.500 1_545 S
C168 C169 1.371 . S
C168 C170 1.365 . S
C169 C168 1.371 . S
C169 C179 1.386 . S
C169 H187 0.931 . S
C170 C168 1.365 . S
C170 C171 1.409 . S
C170 H188 0.929 . S
C171 C170 1.409 . S
C171 C172 1.380 . S
C171 H189 0.930 . S
C172 C171 1.380 . S
C172 C179 1.357 . S
C173 C164 1.511 . S
C173 C174 1.341 . S
C173 C175 1.371 . S
C174 C173 1.341 . S
C174 C178 1.394 . S
C174 H190 0.930 1_455 S
C175 C173 1.371 . S
C175 C176 1.392 . S
C175 H191 0.931 . S
C176 C175 1.392 . S
C176 C177 1.331 . S
C176 H194 0.932 . S
C177 C176 1.331 . S
C177 C178 1.336 . S
C178 C174 1.394 . S
C178 C177 1.336 . S
C178 H193 0.929 1_455 S
C179 C169 1.386 . S
C179 C172 1.357 . S
C179 H192 0.928 . S
H180 C156 0.931 . S
H181 C158 0.930 . S
H182 C160 0.929 . S
H183 C161 0.931 1_455 S
H184 C163 0.930 . S
H185 C167 0.931 1_545 S
H186 C165 0.931 . S
H187 C169 0.931 . S
H188 C170 0.929 . S
H189 C171 0.930 . S
H190 C174 0.930 1_655 S
H191 C175 0.931 . S
H192 C179 0.928 . S
H193 C178 0.929 1_655 S
H194 C176 0.932 . S
C195 C196 1.386 . S
C195 C197 1.397 . S
C195 H219 0.931 . S
C196 C195 1.386 . S
C196 C200 1.397 . S
C197 C195 1.397 . S
C197 C198 1.384 . S
C197 H220 0.930 . S
C198 C197 1.384 . S
C198 C199 1.377 . S
C198 C201 1.481 . S
C199 C198 1.377 . S
C199 C200 1.389 . S
C199 H221 0.929 . S
C200 C196 1.397 . S
C200 C199 1.389 . S
C200 H222 0.931 . S
C201 C198 1.481 . S
C201 C202 1.387 . S
C201 C206 1.390 . S
C202 C201 1.387 . S
C202 C203 1.401 . S
C202 H223 0.930 . S
C203 C202 1.401 . S
C203 C204 1.376 . S
C203 C212 1.511 . S
C204 C203 1.376 . S
C204 C205 1.392 . S
C204 H225 0.931 . S
C205 C204 1.392 . S
C205 C206 1.361 . S
C205 C207 1.500 . S
C206 C201 1.390 . S
C206 C205 1.361 . S
C206 H224 0.931 . S
C207 C205 1.500 . S
C207 C208 1.371 . S
C207 C209 1.365 . S
C208 C207 1.371 . S
C208 C218 1.386 . S
C208 H226 0.931 . S
C209 C207 1.365 . S
C209 C210 1.409 . S
C209 H227 0.929 . S
C210 C209 1.409 . S
C210 C211 1.380 . S
C210 H228 0.930 . S
C211 C210 1.380 . S
C211 C218 1.357 . S
C212 C203 1.511 . S
C212 C213 1.341 . S
C212 C214 1.371 . S
C213 C212 1.341 . S
C213 C217 1.394 . S
C213 H229 0.930 . S
C214 C212 1.371 . S
C214 C215 1.392 . S
C214 H230 0.931 . S
C215 C214 1.392 . S
C215 C216 1.331 . S
C215 H233 0.932 . S
C216 C215 1.331 . S
C216 C217 1.336 . S
C217 C213 1.394 . S
C217 C216 1.336 . S
C217 H232 0.929 . S
C218 C208 1.386 . S
C218 C211 1.357 . S
C218 H231 0.928 . S
H219 C195 0.931 . S
H220 C197 0.930 . S
H221 C199 0.929 . S
H222 C200 0.931 . S
H223 C202 0.930 . S
H224 C206 0.931 . S
H225 C204 0.931 . S
H226 C208 0.931 . S
H227 C209 0.929 . S
H228 C210 0.930 . S
H229 C213 0.930 . S
H230 C214 0.931 . S
H231 C218 0.928 . S
H232 C217 0.929 . S
H233 C215 0.932 . S
C234 C235 1.386 . S
C234 C236 1.397 . S
C234 H258 0.931 . S
C235 C234 1.386 . S
C235 C239 1.397 . S
C236 C234 1.397 . S
C236 C237 1.384 . S
C236 H259 0.930 . S
C237 C236 1.384 . S
C237 C238 1.377 . S
C237 C240 1.481 . S
C238 C237 1.377 . S
C238 C239 1.389 . S
C238 H260 0.929 . S
C239 C235 1.397 . S
C239 C238 1.389 . S
C239 H261 0.931 . S
C240 C237 1.481 . S
C240 C241 1.387 . S
C240 C245 1.390 . S
C241 C240 1.387 . S
C241 C242 1.401 . S
C241 H262 0.930 1_655 S
C242 C241 1.401 . S
C242 C243 1.376 . S
C242 C251 1.511 1_655 S
C243 C242 1.376 . S
C243 C244 1.392 . S
C243 H264 0.931 . S
C244 C243 1.392 . S
C244 C245 1.361 . S
C244 C246 1.500 . S
C245 C240 1.390 . S
C245 C244 1.361 . S
C245 H263 0.931 . S
C246 C244 1.500 . S
C246 C247 1.371 . S
C246 C248 1.365 . S
C247 C246 1.371 . S
C247 C257 1.386 . S
C247 H265 0.931 . S
C248 C246 1.365 . S
C248 C249 1.409 . S
C248 H266 0.929 . S
C249 C248 1.409 . S
C249 C250 1.380 . S
C249 H267 0.930 . S
C250 C249 1.380 . S
C250 C257 1.357 . S
C251 C242 1.511 1_455 S
C251 C252 1.341 . S
C251 C253 1.371 . S
C252 C251 1.341 . S
C252 C256 1.394 . S
C252 H268 0.930 . S
C253 C251 1.371 . S
C253 C254 1.392 . S
C253 H269 0.931 1_455 S
C254 C253 1.392 . S
C254 C255 1.331 . S
C254 H272 0.932 . S
C255 C254 1.331 . S
C255 C256 1.336 . S
C256 C252 1.394 . S
C256 C255 1.336 . S
C256 H271 0.929 . S
C257 C247 1.386 . S
C257 C250 1.357 . S
C257 H270 0.928 . S
H258 C234 0.931 . S
H259 C236 0.930 . S
H260 C238 0.929 . S
H261 C239 0.931 . S
H262 C241 0.930 1_455 S
H263 C245 0.931 . S
H264 C243 0.931 . S
H265 C247 0.931 . S
H266 C248 0.929 . S
H267 C249 0.930 . S
H268 C252 0.930 . S
H269 C253 0.931 1_655 S
H270 C257 0.928 . S
H271 C256 0.929 . S
H272 C254 0.932 . S
C273 C274 1.386 . S
C273 C275 1.397 . S
C273 H297 0.931 . S
C274 C273 1.386 . S
C274 C278 1.397 . S
C275 C273 1.397 . S
C275 C276 1.384 . S
C275 H298 0.930 . S
C276 C275 1.384 . S
C276 C277 1.377 . S
C276 C279 1.481 . S
C277 C276 1.377 . S
C277 C278 1.389 . S
C277 H299 0.929 . S
C278 C274 1.397 . S
C278 C277 1.389 . S
C278 H300 0.931 . S
C279 C276 1.481 . S
C279 C280 1.387 . S
C279 C284 1.390 . S
C280 C279 1.387 . S
C280 C281 1.401 . S
C280 H301 0.930 . S
C281 C280 1.401 . S
C281 C282 1.376 . S
C281 C290 1.511 . S
C282 C281 1.376 . S
C282 C283 1.392 . S
C282 H303 0.931 . S
C283 C282 1.392 . S
C283 C284 1.361 . S
C283 C285 1.500 . S
C284 C279 1.390 . S
C284 C283 1.361 . S
C284 H302 0.931 . S
C285 C283 1.500 . S
C285 C286 1.371 . S
C285 C287 1.365 . S
C286 C285 1.371 . S
C286 C296 1.386 . S
C286 H304 0.931 . S
C287 C285 1.365 . S
C287 C288 1.409 . S
C287 H305 0.929 . S
C288 C287 1.409 . S
C288 C289 1.380 . S
C288 H306 0.930 . S
C289 C288 1.380 . S
C289 C296 1.357 . S
C290 C281 1.511 . S
C290 C291 1.341 . S
C290 C292 1.371 . S
C291 C290 1.341 . S
C291 C295 1.394 . S
C291 H307 0.930 . S
C292 C290 1.371 . S
C292 C293 1.392 . S
C292 H308 0.931 . S
C293 C292 1.392 . S
C293 C294 1.331 . S
C293 H311 0.932 . S
C294 C293 1.331 . S
C294 C295 1.336 . S
C295 C291 1.394 . S
C295 C294 1.336 . S
C295 H310 0.929 . S
C296 C286 1.386 . S
C296 C289 1.357 . S
C296 H309 0.928 . S
H297 C273 0.931 . S
H298 C275 0.930 . S
H299 C277 0.929 . S
H300 C278 0.931 . S
H301 C280 0.930 . S
H302 C284 0.931 . S
H303 C282 0.931 . S
H304 C286 0.931 . S
H305 C287 0.929 . S
H306 C288 0.930 . S
H307 C291 0.930 . S
H308 C292 0.931 . S
H309 C296 0.928 . S
H310 C295 0.929 . S
H311 C293 0.932 . S
C312 C313 1.386 . S
C312 C314 1.397 . S
C312 H336 0.931 . S
C313 C312 1.386 . S
C313 C317 1.397 . S
C314 C312 1.397 . S
C314 C315 1.384 . S
C314 H337 0.930 . S
C315 C314 1.384 . S
C315 C316 1.377 . S
C315 C318 1.481 . S
C316 C315 1.377 . S
C316 C317 1.389 . S
C316 H338 0.929 . S
C317 C313 1.397 . S
C317 C316 1.389 . S
C317 H339 0.931 . S
C318 C315 1.481 . S
C318 C319 1.387 . S
C318 C323 1.390 . S
C319 C318 1.387 . S
C319 C320 1.401 . S
C319 H340 0.930 . S
C320 C319 1.401 . S
C320 C321 1.376 . S
C320 C329 1.511 . S
C321 C320 1.376 . S
C321 C322 1.392 . S
C321 H342 0.931 . S
C322 C321 1.392 . S
C322 C323 1.361 . S
C322 C324 1.500 . S
C323 C318 1.390 . S
C323 C322 1.361 . S
C323 H341 0.931 . S
C324 C322 1.500 . S
C324 C325 1.371 . S
C324 C326 1.365 . S
C325 C324 1.371 . S
C325 C335 1.386 . S
C325 H343 0.931 . S
C326 C324 1.365 . S
C326 C327 1.409 . S
C326 H344 0.929 . S
C327 C326 1.409 . S
C327 C328 1.380 . S
C327 H345 0.930 . S
C328 C327 1.380 . S
C328 C335 1.357 . S
C329 C320 1.511 . S
C329 C330 1.341 . S
C329 C331 1.371 . S
C330 C329 1.341 . S
C330 C334 1.394 . S
C330 H346 0.930 . S
C331 C329 1.371 . S
C331 C332 1.392 . S
C331 H347 0.931 . S
C332 C331 1.392 . S
C332 C333 1.331 . S
C332 H350 0.932 . S
C333 C332 1.331 . S
C333 C334 1.336 . S
C334 C330 1.394 . S
C334 C333 1.336 . S
C334 H349 0.929 . S
C335 C325 1.386 . S
C335 C328 1.357 . S
C335 H348 0.928 . S
H336 C312 0.931 . S
H337 C314 0.930 . S
H338 C316 0.929 . S
H339 C317 0.931 . S
H340 C319 0.930 . S
H341 C323 0.931 . S
H342 C321 0.931 . S
H343 C325 0.931 . S
H344 C326 0.929 . S
H345 C327 0.930 . S
H346 C330 0.930 . S
H347 C331 0.931 . S
H348 C335 0.928 . S
H349 C334 0.929 . S
H350 C332 0.932 . S
C351 C352 1.386 . S
C351 C353 1.397 . S
C351 H375 0.931 . S
C352 C351 1.386 . S
C352 C356 1.397 . S
C353 C351 1.397 . S
C353 C354 1.384 . S
C353 H376 0.930 . S
C354 C353 1.384 . S
C354 C355 1.377 . S
C354 C357 1.481 . S
C355 C354 1.377 . S
C355 C356 1.389 . S
C355 H377 0.929 . S
C356 C352 1.397 . S
C356 C355 1.389 . S
C356 H378 0.931 . S
C357 C354 1.481 . S
C357 C358 1.387 . S
C357 C362 1.390 . S
C358 C357 1.387 . S
C358 C359 1.401 . S
C358 H379 0.930 1_565 S
C359 C358 1.401 . S
C359 C360 1.376 . S
C359 C368 1.511 1_565 S
C360 C359 1.376 . S
C360 C361 1.392 . S
C360 H381 0.931 . S
C361 C360 1.392 . S
C361 C362 1.361 . S
C361 C363 1.500 . S
C362 C357 1.390 . S
C362 C361 1.361 . S
C362 H380 0.931 . S
C363 C361 1.500 . S
C363 C364 1.371 . S
C363 C365 1.365 . S
C364 C363 1.371 . S
C364 C374 1.386 . S
C364 H382 0.931 . S
C365 C363 1.365 . S
C365 C366 1.409 . S
C365 H383 0.929 . S
C366 C365 1.409 . S
C366 C367 1.380 . S
C366 H384 0.930 . S
C367 C366 1.380 . S
C367 C374 1.357 . S
C368 C359 1.511 1_545 S
C368 C369 1.341 . S
C368 C370 1.371 . S
C369 C368 1.341 . S
C369 C373 1.394 . S
C369 H385 0.930 . S
C370 C368 1.371 . S
C370 C371 1.392 . S
C370 H386 0.931 1_545 S
C371 C370 1.392 . S
C371 C372 1.331 . S
C371 H389 0.932 . S
C372 C371 1.331 . S
C372 C373 1.336 . S
C373 C369 1.394 . S
C373 C372 1.336 . S
C373 H388 0.929 . S
C374 C364 1.386 . S
C374 C367 1.357 . S
C374 H387 0.928 . S
H375 C351 0.931 . S
H376 C353 0.930 . S
H377 C355 0.929 . S
H378 C356 0.931 . S
H379 C358 0.930 1_545 S
H380 C362 0.931 . S
H381 C360 0.931 . S
H382 C364 0.931 . S
H383 C365 0.929 . S
H384 C366 0.930 . S
H385 C369 0.930 . S
H386 C370 0.931 1_565 S
H387 C374 0.928 . S
H388 C373 0.929 . S
H389 C371 0.932 . S
C390 C391 1.386 . S
C390 C392 1.397 . S
C390 H414 0.931 . S
C391 C390 1.386 . S
C391 C395 1.397 . S
C392 C390 1.397 . S
C392 C393 1.384 . S
C392 H415 0.930 . S
C393 C392 1.384 . S
C393 C394 1.377 . S
C393 C396 1.481 . S
C394 C393 1.377 . S
C394 C395 1.389 . S
C394 H416 0.929 . S
C395 C391 1.397 . S
C395 C394 1.389 . S
C395 H417 0.931 . S
C396 C393 1.481 . S
C396 C397 1.387 . S
C396 C401 1.390 . S
C397 C396 1.387 . S
C397 C398 1.401 . S
C397 H418 0.930 . S
C398 C397 1.401 . S
C398 C399 1.376 . S
C398 C407 1.511 . S
C399 C398 1.376 . S
C399 C400 1.392 . S
C399 H420 0.931 . S
C400 C399 1.392 . S
C400 C401 1.361 . S
C400 C402 1.500 . S
C401 C396 1.390 . S
C401 C400 1.361 . S
C401 H419 0.931 . S
C402 C400 1.500 . S
C402 C403 1.371 . S
C402 C404 1.365 . S
C403 C402 1.371 . S
C403 C413 1.386 . S
C403 H421 0.931 . S
C404 C402 1.365 . S
C404 C405 1.409 . S
C404 H422 0.929 . S
C405 C404 1.409 . S
C405 C406 1.380 . S
C405 H423 0.930 . S
C406 C405 1.380 . S
C406 C413 1.357 . S
C407 C398 1.511 . S
C407 C408 1.341 . S
C407 C409 1.371 . S
C408 C407 1.341 . S
C408 C412 1.394 . S
C408 H424 0.930 . S
C409 C407 1.371 . S
C409 C410 1.392 . S
C409 H425 0.931 . S
C410 C409 1.392 . S
C410 C411 1.331 . S
C410 H428 0.932 . S
C411 C410 1.331 . S
C411 C412 1.336 . S
C412 C408 1.394 . S
C412 C411 1.336 . S
C412 H427 0.929 . S
C413 C403 1.386 . S
C413 C406 1.357 . S
C413 H426 0.928 . S
H414 C390 0.931 . S
H415 C392 0.930 . S
H416 C394 0.929 . S
H417 C395 0.931 . S
H418 C397 0.930 . S
H419 C401 0.931 . S
H420 C399 0.931 . S
H421 C403 0.931 . S
H422 C404 0.929 . S
H423 C405 0.930 . S
H424 C408 0.930 . S
H425 C409 0.931 . S
H426 C413 0.928 . S
H427 C412 0.929 . S
H428 C410 0.932 . S
C429 C430 1.386 . S
C429 C431 1.397 . S
C429 H453 0.931 . S
C430 C429 1.386 . S
C430 C434 1.397 . S
C431 C429 1.397 . S
C431 C432 1.384 . S
C431 H454 0.930 . S
C432 C431 1.384 . S
C432 C433 1.377 . S
C432 C435 1.481 . S
C433 C432 1.377 . S
C433 C434 1.389 . S
C433 H455 0.929 . S
C434 C430 1.397 . S
C434 C433 1.389 . S
C434 H456 0.931 . S
C435 C432 1.481 . S
C435 C436 1.387 . S
C435 C440 1.390 . S
C436 C435 1.387 . S
C436 C437 1.401 . S
C436 H457 0.930 . S
C437 C436 1.401 . S
C437 C438 1.376 . S
C437 C446 1.511 . S
C438 C437 1.376 . S
C438 C439 1.392 . S
C438 H459 0.931 . S
C439 C438 1.392 . S
C439 C440 1.361 . S
C439 C441 1.500 . S
C440 C435 1.390 . S
C440 C439 1.361 . S
C440 H458 0.931 . S
C441 C439 1.500 . S
C441 C442 1.371 . S
C441 C443 1.365 . S
C442 C441 1.371 . S
C442 C452 1.386 . S
C442 H460 0.931 . S
C443 C441 1.365 . S
C443 C444 1.409 . S
C443 H461 0.929 . S
C444 C443 1.409 . S
C444 C445 1.380 . S
C444 H462 0.930 . S
C445 C444 1.380 . S
C445 C452 1.357 . S
C446 C437 1.511 . S
C446 C447 1.341 . S
C446 C448 1.371 . S
C447 C446 1.341 . S
C447 C451 1.394 . S
C447 H463 0.930 . S
C448 C446 1.371 . S
C448 C449 1.392 . S
C448 H464 0.931 . S
C449 C448 1.392 . S
C449 C450 1.331 . S
C449 H467 0.932 . S
C450 C449 1.331 . S
C450 C451 1.336 . S
C451 C447 1.394 . S
C451 C450 1.336 . S
C451 H466 0.929 . S
C452 C442 1.386 . S
C452 C445 1.357 . S
C452 H465 0.928 . S
H453 C429 0.931 . S
H454 C431 0.930 . S
H455 C433 0.929 . S
H456 C434 0.931 . S
H457 C436 0.930 . S
H458 C440 0.931 . S
H459 C438 0.931 . S
H460 C442 0.931 . S
H461 C443 0.929 . S
H462 C444 0.930 . S
H463 C447 0.930 . S
H464 C448 0.931 . S
H465 C452 0.928 . S
H466 C451 0.929 . S
H467 C449 0.932 . S
C468 C469 1.386 . S
C468 C470 1.397 . S
C468 H492 0.931 . S
C469 C468 1.386 . S
C469 C473 1.397 . S
C470 C468 1.397 . S
C470 C471 1.384 . S
C470 H493 0.930 . S
C471 C470 1.384 . S
C471 C472 1.377 . S
C471 C474 1.481 . S
C472 C471 1.377 . S
C472 C473 1.389 . S
C472 H494 0.929 . S
C473 C469 1.397 . S
C473 C472 1.389 . S
C473 H495 0.931 . S
C474 C471 1.481 . S
C474 C475 1.387 . S
C474 C479 1.390 . S
C475 C474 1.387 . S
C475 C476 1.401 . S
C475 H496 0.930 . S
C476 C475 1.401 . S
C476 C477 1.376 . S
C476 C485 1.511 . S
C477 C476 1.376 . S
C477 C478 1.392 . S
C477 H498 0.931 . S
C478 C477 1.392 . S
C478 C479 1.361 . S
C478 C480 1.500 . S
C479 C474 1.390 . S
C479 C478 1.361 . S
C479 H497 0.931 . S
C480 C478 1.500 . S
C480 C481 1.371 . S
C480 C482 1.365 . S
C481 C480 1.371 . S
C481 C491 1.386 . S
C481 H499 0.931 . S
C482 C480 1.365 . S
C482 C483 1.409 . S
C482 H500 0.929 . S
C483 C482 1.409 . S
C483 C484 1.380 . S
C483 H501 0.930 . S
C484 C483 1.380 . S
C484 C491 1.357 . S
C485 C476 1.511 . S
C485 C486 1.341 . S
C485 C487 1.371 . S
C486 C485 1.341 . S
C486 C490 1.394 . S
C486 H502 0.930 . S
C487 C485 1.371 . S
C487 C488 1.392 . S
C487 H503 0.931 . S
C488 C487 1.392 . S
C488 C489 1.331 . S
C488 H506 0.932 . S
C489 C488 1.331 . S
C489 C490 1.336 . S
C490 C486 1.394 . S
C490 C489 1.336 . S
C490 H505 0.929 . S
C491 C481 1.386 . S
C491 C484 1.357 . S
C491 H504 0.928 . S
H492 C468 0.931 . S
H493 C470 0.930 . S
H494 C472 0.929 . S
H495 C473 0.931 . S
H496 C475 0.930 . S
H497 C479 0.931 . S
H498 C477 0.931 . S
H499 C481 0.931 . S
H500 C482 0.929 . S
H501 C483 0.930 . S
H502 C486 0.930 . S
H503 C487 0.931 . S
H504 C491 0.928 . S
H505 C490 0.929 . S
H506 C488 0.932 . S
C507 C508 1.386 . S
C507 C509 1.397 . S
C507 H531 0.931 . S
C508 C507 1.386 . S
C508 C512 1.397 . S
C509 C507 1.397 . S
C509 C510 1.384 . S
C509 H532 0.930 . S
C510 C509 1.384 . S
C510 C511 1.377 . S
C510 C513 1.481 . S
C511 C510 1.377 . S
C511 C512 1.389 . S
C511 H533 0.929 . S
C512 C508 1.397 . S
C512 C511 1.389 . S
C512 H534 0.931 . S
C513 C510 1.481 . S
C513 C514 1.387 . S
C513 C518 1.390 . S
C514 C513 1.387 . S
C514 C515 1.401 . S
C514 H535 0.930 . S
C515 C514 1.401 . S
C515 C516 1.376 . S
C515 C524 1.511 1_556 S
C516 C515 1.376 . S
C516 C517 1.392 . S
C516 H537 0.931 1_556 S
C517 C516 1.392 . S
C517 C518 1.361 . S
C517 C519 1.500 . S
C518 C513 1.390 . S
C518 C517 1.361 . S
C518 H536 0.931 . S
C519 C517 1.500 . S
C519 C520 1.371 . S
C519 C521 1.365 . S
C520 C519 1.371 . S
C520 C530 1.386 1_556 S
C520 H538 0.931 1_556 S
C521 C519 1.365 . S
C521 C522 1.409 . S
C521 H539 0.929 . S
C522 C521 1.409 . S
C522 C523 1.380 . S
C522 H540 0.930 . S
C523 C522 1.380 . S
C523 C530 1.357 1_556 S
C524 C515 1.511 1_554 S
C524 C525 1.341 . S
C524 C526 1.371 . S
C525 C524 1.341 . S
C525 C529 1.394 . S
C525 H541 0.930 1_554 S
C526 C524 1.371 . S
C526 C527 1.392 . S
C526 H542 0.931 . S
C527 C526 1.392 . S
C527 C528 1.331 . S
C527 H545 0.932 . S
C528 C527 1.331 . S
C528 C529 1.336 . S
C529 C525 1.394 . S
C529 C528 1.336 . S
C529 H544 0.929 . S
C530 C520 1.386 1_554 S
C530 C523 1.357 1_554 S
C530 H543 0.928 . S
H531 C507 0.931 . S
H532 C509 0.930 . S
H533 C511 0.929 . S
H534 C512 0.931 . S
H535 C514 0.930 . S
H536 C518 0.931 . S
H537 C516 0.931 1_554 S
H538 C520 0.931 1_554 S
H539 C521 0.929 . S
H540 C522 0.930 . S
H541 C525 0.930 1_556 S
H542 C526 0.931 . S
H543 C530 0.928 . S
H544 C529 0.929 . S
H545 C527 0.932 . S
C546 C547 1.386 . S
C546 C548 1.397 . S
C546 H570 0.931 . S
C547 C546 1.386 . S
C547 C551 1.397 . S
C548 C546 1.397 . S
C548 C549 1.384 . S
C548 H571 0.930 . S
C549 C548 1.384 . S
C549 C550 1.377 . S
C549 C552 1.481 . S
C550 C549 1.377 . S
C550 C551 1.389 . S
C550 H572 0.929 . S
C551 C547 1.397 . S
C551 C550 1.389 . S
C551 H573 0.931 . S
C552 C549 1.481 . S
C552 C553 1.387 . S
C552 C557 1.390 . S
C553 C552 1.387 . S
C553 C554 1.401 . S
C553 H574 0.930 . S
C554 C553 1.401 . S
C554 C555 1.376 . S
C554 C563 1.511 . S
C555 C554 1.376 . S
C555 C556 1.392 . S
C555 H576 0.931 . S
C556 C555 1.392 . S
C556 C557 1.361 . S
C556 C558 1.500 . S
C557 C552 1.390 . S
C557 C556 1.361 . S
C557 H575 0.931 . S
C558 C556 1.500 . S
C558 C559 1.371 . S
C558 C560 1.365 . S
C559 C558 1.371 . S
C559 C569 1.386 . S
C559 H577 0.931 . S
C560 C558 1.365 . S
C560 C561 1.409 . S
C560 H578 0.929 . S
C561 C560 1.409 . S
C561 C562 1.380 . S
C561 H579 0.930 . S
C562 C561 1.380 . S
C562 C569 1.357 . S
C563 C554 1.511 . S
C563 C564 1.341 . S
C563 C565 1.371 . S
C564 C563 1.341 . S
C564 C568 1.394 . S
C564 H580 0.930 . S
C565 C563 1.371 . S
C565 C566 1.392 . S
C565 H581 0.931 . S
C566 C565 1.392 . S
C566 C567 1.331 . S
C566 H584 0.932 . S
C567 C566 1.331 . S
C567 C568 1.336 . S
C568 C564 1.394 . S
C568 C567 1.336 . S
C568 H583 0.929 . S
C569 C559 1.386 . S
C569 C562 1.357 . S
C569 H582 0.928 . S
H570 C546 0.931 . S
H571 C548 0.930 . S
H572 C550 0.929 . S
H573 C551 0.931 . S
H574 C553 0.930 . S
H575 C557 0.931 . S
H576 C555 0.931 . S
H577 C559 0.931 . S
H578 C560 0.929 . S
H579 C561 0.930 . S
H580 C564 0.930 . S
H581 C565 0.931 . S
H582 C569 0.928 . S
H583 C568 0.929 . S
H584 C566 0.932 . S
C585 C586 1.386 . S
C585 C587 1.397 1_554 S
C585 H609 0.931 . S
C586 C585 1.386 . S
C586 C590 1.397 . S
C587 C585 1.397 1_556 S
C587 C588 1.384 1_556 S
C587 H610 0.930 . S
C588 C587 1.384 1_554 S
C588 C589 1.377 . S
C588 C591 1.481 1_554 S
C589 C588 1.377 . S
C589 C590 1.389 . S
C589 H611 0.929 . S
C590 C586 1.397 . S
C590 C589 1.389 . S
C590 H612 0.931 . S
C591 C588 1.481 1_556 S
C591 C592 1.387 . S
C591 C596 1.390 . S
C592 C591 1.387 . S
C592 C593 1.401 . S
C592 H613 0.930 . S
C593 C592 1.401 . S
C593 C594 1.376 . S
C593 C602 1.511 . S
C594 C593 1.376 . S
C594 C595 1.392 . S
C594 H615 0.931 . S
C595 C594 1.392 . S
C595 C596 1.361 . S
C595 C597 1.500 . S
C596 C591 1.390 . S
C596 C595 1.361 . S
C596 H614 0.931 1_556 S
C597 C595 1.500 . S
C597 C598 1.371 1_545 S
C597 C599 1.365 1_546 S
C598 C597 1.371 1_565 S
C598 C608 1.386 . S
C598 H616 0.931 . S
C599 C597 1.365 1_564 S
C599 C600 1.409 . S
C599 H617 0.929 1_565 S
C600 C599 1.409 . S
C600 C601 1.380 1_554 S
C600 H618 0.930 . S
C601 C600 1.380 1_556 S
C601 C608 1.357 . S
C602 C593 1.511 . S
C602 C603 1.341 . S
C602 C604 1.371 . S
C603 C602 1.341 . S
C603 C607 1.394 . S
C603 H619 0.930 . S
C604 C602 1.371 . S
C604 C605 1.392 . S
C604 H620 0.931 1_545 S
C605 C604 1.392 . S
C605 C606 1.331 . S
C605 H623 0.932 1_545 S
C606 C605 1.331 . S
C606 C607 1.336 . S
C607 C603 1.394 . S
C607 C606 1.336 . S
C607 H622 0.929 . S
C608 C598 1.386 . S
C608 C601 1.357 . S
C608 H621 0.928 . S
H609 C585 0.931 . S
H610 C587 0.930 . S
H611 C589 0.929 . S
H612 C590 0.931 . S
H613 C592 0.930 . S
H614 C596 0.931 1_554 S
H615 C594 0.931 . S
H616 C598 0.931 . S
H617 C599 0.929 1_545 S
H618 C600 0.930 . S
H619 C603 0.930 . S
H620 C604 0.931 1_565 S
H621 C608 0.928 . S
H622 C607 0.929 . S
H623 C605 0.932 1_565 S
Mn624 O629 2.095 . S
Mn624 O639 2.162 . S
Mn624 O640 2.297 . S
Mn624 O648 2.385 1_554 S
Mn624 O649 2.209 1_554 S
Mn624 O650 2.094 . S
Mn625 O630 2.121 . S
Mn625 N632 2.257 . S
Mn625 N641 2.282 . S
Mn625 O649 2.215 . S
Mn625 O651 2.117 . S
C626 O648 1.234 . S
C626 O649 1.283 . S
C627 O639 1.281 . S
C627 O640 1.236 . S
C628 O650 1.240 . S
C628 O651 1.264 1_554 S
O629 Mn624 2.095 . S
O629 C638 1.259 . S
O630 Mn625 2.121 . S
O630 C638 1.246 1_556 S
C631 N632 1.326 . S
C631 C635 1.460 . S
C631 H637 0.929 . S
N632 Mn625 2.257 . S
N632 C631 1.326 . S
N632 C636 1.362 . S
C633 C634 1.258 . S
C633 C636 1.431 . S
C633 C653 1.449 . S
C634 C633 1.258 . S
C634 C635 1.477 . S
C634 H654 0.931 . S
C635 C631 1.460 . S
C635 C634 1.477 . S
C635 H655 0.930 . S
C636 N632 1.362 . S
C636 C633 1.431 . S
C636 C646 1.476 . S
H637 C631 0.929 . S
C638 O629 1.259 . S
C638 O630 1.246 1_554 S
O639 Mn624 2.162 . S
O639 C627 1.281 . S
O640 Mn624 2.297 . S
O640 C627 1.236 . S
N641 Mn625 2.282 . S
N641 C642 1.328 . S
N641 C646 1.318 . S
C642 N641 1.328 . S
C642 C643 1.457 . S
C642 H647 0.929 . S
C643 C642 1.457 . S
C643 C644 1.291 . S
C643 H656 0.931 . S
C644 C643 1.291 . S
C644 C645 1.373 . S
C644 H657 0.929 . S
C645 C644 1.373 . S
C645 C646 1.396 . S
C645 C652 1.403 . S
C646 C636 1.476 . S
C646 N641 1.318 . S
C646 C645 1.396 . S
H647 C642 0.929 . S
O648 Mn624 2.385 1_556 S
O648 C626 1.234 . S
O649 Mn624 2.209 1_556 S
O649 Mn625 2.215 . S
O649 C626 1.283 . S
O650 Mn624 2.094 . S
O650 C628 1.240 . S
O651 Mn625 2.117 . S
O651 C628 1.264 1_556 S
C652 C645 1.403 . S
C652 C653 1.399 . S
C652 H658 0.929 . S
C653 C633 1.449 . S
C653 C652 1.399 . S
C653 H659 0.930 . S
H654 C634 0.931 . S
H655 C635 0.930 . S
H656 C643 0.931 . S
H657 C644 0.929 . S
H658 C652 0.929 . S
H659 C653 0.930 . S
Mn660 O665 2.095 . S
Mn660 O675 2.162 . S
Mn660 O676 2.297 . S
Mn660 O684 2.385 . S
Mn660 O685 2.209 . S
Mn660 O686 2.094 . S
Mn661 O666 2.121 . S
Mn661 N668 2.257 . S
Mn661 N677 2.282 . S
Mn661 O685 2.215 . S
Mn661 O687 2.117 . S
C662 O684 1.234 . S
C662 O685 1.283 . S
C663 O675 1.281 . S
C663 O676 1.236 . S
C664 O686 1.240 . S
C664 O687 1.264 . S
O665 Mn660 2.095 . S
O665 C674 1.250 . S
O666 Mn661 2.121 . S
O666 C674 1.258 . S
C667 N668 1.326 . S
C667 C671 1.460 . S
C667 H673 0.929 . S
N668 Mn661 2.257 . S
N668 C667 1.326 . S
N668 C672 1.362 . S
C669 C670 1.258 . S
C669 C672 1.431 . S
C669 C689 1.449 . S
C670 C669 1.258 . S
C670 C671 1.477 . S
C670 H690 0.931 . S
C671 C667 1.460 . S
C671 C670 1.477 . S
C671 H691 0.930 . S
C672 N668 1.362 . S
C672 C669 1.431 . S
C672 C682 1.476 . S
H673 C667 0.929 . S
C674 O665 1.250 . S
C674 O666 1.258 . S
O675 Mn660 2.162 . S
O675 C663 1.281 . S
O676 Mn660 2.297 . S
O676 C663 1.236 . S
N677 Mn661 2.282 . S
N677 C678 1.328 . S
N677 C682 1.318 . S
C678 N677 1.328 . S
C678 C679 1.457 . S
C678 H683 0.929 . S
C679 C678 1.457 . S
C679 C680 1.291 . S
C679 H692 0.931 . S
C680 C679 1.291 . S
C680 C681 1.373 . S
C680 H693 0.929 . S
C681 C680 1.373 . S
C681 C682 1.396 . S
C681 C688 1.403 . S
C682 C672 1.476 . S
C682 N677 1.318 . S
C682 C681 1.396 . S
H683 C678 0.929 . S
O684 Mn660 2.385 . S
O684 C662 1.234 . S
O685 Mn660 2.209 . S
O685 Mn661 2.215 . S
O685 C662 1.283 . S
O686 Mn660 2.094 . S
O686 C664 1.240 . S
O687 Mn661 2.117 . S
O687 C664 1.264 . S
C688 C681 1.403 . S
C688 C689 1.399 . S
C688 H694 0.929 . S
C689 C669 1.449 . S
C689 C688 1.399 . S
C689 H695 0.930 . S
H690 C670 0.931 . S
H691 C671 0.930 . S
H692 C679 0.931 . S
H693 C680 0.929 . S
H694 C688 0.929 . S
H695 C689 0.930 . S
Mn696 O701 2.095 1_554 S
Mn696 O711 2.162 . S
Mn696 O712 2.297 1_554 S
Mn696 O720 2.385 . S
Mn696 O721 2.209 1_554 S
Mn696 O722 2.094 . S
Mn697 O702 2.121 . S
Mn697 N704 2.257 . S
Mn697 N713 2.282 . S
Mn697 O721 2.215 . S
Mn697 O723 2.117 1_556 S
C698 O720 1.213 1_556 S
C698 O721 1.298 . S
C699 O711 1.281 . S
C699 O712 1.236 1_554 S
C700 O722 1.240 . S
C700 O723 1.264 . S
O701 Mn696 2.095 1_556 S
O701 C710 1.250 . S
O702 Mn697 2.121 . S
O702 C710 1.258 . S
C703 N704 1.326 . S
C703 C707 1.460 . S
C703 H709 0.929 . S
N704 Mn697 2.257 . S
N704 C703 1.326 . S
N704 C708 1.362 . S
C705 C706 1.258 . S
C705 C708 1.431 . S
C705 C725 1.449 . S
C706 C705 1.258 . S
C706 C707 1.477 . S
C706 H726 0.931 . S
C707 C703 1.460 . S
C707 C706 1.477 . S
C707 H727 0.930 . S
C708 N704 1.362 . S
C708 C705 1.431 . S
C708 C718 1.476 . S
H709 C703 0.929 . S
C710 O701 1.250 . S
C710 O702 1.258 . S
O711 Mn696 2.162 . S
O711 C699 1.281 . S
O712 Mn696 2.297 1_556 S
O712 C699 1.236 1_556 S
N713 Mn697 2.282 . S
N713 C714 1.328 1_556 S
N713 C718 1.318 . S
C714 N713 1.328 1_554 S
C714 C715 1.457 . S
C714 H719 0.929 . S
C715 C714 1.457 . S
C715 C716 1.291 . S
C715 H728 0.931 . S
C716 C715 1.291 . S
C716 C717 1.373 1_554 S
C716 H729 0.929 . S
C717 C716 1.373 1_556 S
C717 C718 1.396 . S
C717 C724 1.403 . S
C718 C708 1.476 . S
C718 N713 1.318 . S
C718 C717 1.396 . S
H719 C714 0.929 . S
O720 Mn696 2.385 . S
O720 C698 1.213 1_554 S
O721 Mn696 2.209 1_556 S
O721 Mn697 2.215 . S
O721 C698 1.298 . S
O722 Mn696 2.094 . S
O722 C700 1.240 . S
O723 Mn697 2.117 1_554 S
O723 C700 1.264 . S
C724 C717 1.403 . S
C724 C725 1.399 . S
C724 H730 0.929 . S
C725 C705 1.449 . S
C725 C724 1.399 . S
C725 H731 0.930 . S
H726 C706 0.931 . S
H727 C707 0.930 . S
H728 C715 0.931 . S
H729 C716 0.929 . S
H730 C724 0.929 . S
H731 C725 0.930 . S
Mn732 O737 2.095 . S
Mn732 O747 2.162 . S
Mn732 O748 2.297 . S
Mn732 O756 2.385 1_545 S
Mn732 O757 2.209 1_545 S
Mn732 O758 2.094 . S
Mn733 O738 2.121 . S
Mn733 N740 2.257 . S
Mn733 N749 2.282 . S
Mn733 O757 2.215 . S
Mn733 O759 2.117 . S
C734 O756 1.234 . S
C734 O757 1.283 . S
C735 O747 1.281 . S
C735 O748 1.236 . S
C736 O758 1.240 . S
C736 O759 1.264 1_545 S
O737 Mn732 2.095 . S
O737 C746 1.250 1_545 S
O738 Mn733 2.121 . S
O738 C746 1.258 . S
C739 N740 1.326 . S
C739 C743 1.460 . S
C739 H745 0.929 . S
N740 Mn733 2.257 . S
N740 C739 1.326 . S
N740 C744 1.362 . S
C741 C742 1.258 . S
C741 C744 1.431 . S
C741 C761 1.449 . S
C742 C741 1.258 . S
C742 C743 1.477 . S
C742 H762 0.931 . S
C743 C739 1.460 . S
C743 C742 1.477 . S
C743 H763 0.930 . S
C744 N740 1.362 . S
C744 C741 1.431 . S
C744 C754 1.476 . S
H745 C739 0.929 . S
C746 O737 1.250 1_565 S
C746 O738 1.258 . S
O747 Mn732 2.162 . S
O747 C735 1.281 . S
O748 Mn732 2.297 . S
O748 C735 1.236 . S
N749 Mn733 2.282 . S
N749 C750 1.328 . S
N749 C754 1.318 . S
C750 N749 1.328 . S
C750 C751 1.457 . S
C750 H755 0.929 . S
C751 C750 1.457 . S
C751 C752 1.291 . S
C751 H764 0.931 . S
C752 C751 1.291 . S
C752 C753 1.373 . S
C752 H765 0.929 . S
C753 C752 1.373 . S
C753 C754 1.396 . S
C753 C760 1.403 . S
C754 C744 1.476 . S
C754 N749 1.318 . S
C754 C753 1.396 . S
H755 C750 0.929 . S
O756 Mn732 2.385 1_565 S
O756 C734 1.234 . S
O757 Mn732 2.209 1_565 S
O757 Mn733 2.215 . S
O757 C734 1.283 . S
O758 Mn732 2.094 . S
O758 C736 1.240 . S
O759 Mn733 2.117 . S
O759 C736 1.264 1_565 S
C760 C753 1.403 . S
C760 C761 1.399 . S
C760 H766 0.929 . S
C761 C741 1.449 . S
C761 C760 1.399 . S
C761 H767 0.930 . S
H762 C742 0.931 . S
H763 C743 0.930 . S
H764 C751 0.931 . S
H765 C752 0.929 . S
H766 C760 0.929 . S
H767 C761 0.930 . S
Mn768 O773 2.095 . S
Mn768 O783 2.162 . S
Mn768 O784 2.297 . S
Mn768 O792 2.385 . S
Mn768 O793 2.209 . S
Mn768 O794 2.094 . S
Mn769 O774 2.121 . S
Mn769 N776 2.257 . S
Mn769 N785 2.282 . S
Mn769 O793 2.215 . S
Mn769 O795 2.117 . S
C770 O792 1.234 . S
C770 O793 1.283 . S
C771 O783 1.281 . S
C771 O784 1.236 . S
C772 O794 1.240 . S
C772 O795 1.264 . S
O773 Mn768 2.095 . S
O773 C782 1.250 . S
O774 Mn769 2.121 . S
O774 C782 1.258 . S
C775 N776 1.326 . S
C775 C779 1.460 . S
C775 H781 0.929 . S
N776 Mn769 2.257 . S
N776 C775 1.326 . S
N776 C780 1.362 . S
C777 C778 1.258 . S
C777 C780 1.431 . S
C777 C797 1.449 . S
C778 C777 1.258 . S
C778 C779 1.477 . S
C778 H798 0.931 . S
C779 C775 1.460 . S
C779 C778 1.477 . S
C779 H799 0.930 . S
C780 N776 1.362 . S
C780 C777 1.431 . S
C780 C790 1.476 . S
H781 C775 0.929 . S
C782 O773 1.250 . S
C782 O774 1.258 . S
O783 Mn768 2.162 . S
O783 C771 1.281 . S
O784 Mn768 2.297 . S
O784 C771 1.236 . S
N785 Mn769 2.282 . S
N785 C786 1.328 . S
N785 C790 1.318 . S
C786 N785 1.328 . S
C786 C787 1.457 . S
C786 H791 0.929 . S
C787 C786 1.457 . S
C787 C788 1.291 . S
C787 H800 0.931 . S
C788 C787 1.291 . S
C788 C789 1.373 . S
C788 H801 0.929 . S
C789 C788 1.373 . S
C789 C790 1.396 . S
C789 C796 1.403 . S
C790 C780 1.476 . S
C790 N785 1.318 . S
C790 C789 1.396 . S
H791 C786 0.929 . S
O792 Mn768 2.385 . S
O792 C770 1.234 . S
O793 Mn768 2.209 . S
O793 Mn769 2.215 . S
O793 C770 1.283 . S
O794 Mn768 2.094 . S
O794 C772 1.240 . S
O795 Mn769 2.117 . S
O795 C772 1.264 . S
C796 C789 1.403 . S
C796 C797 1.399 . S
C796 H802 0.929 . S
C797 C777 1.449 . S
C797 C796 1.399 . S
C797 H803 0.930 . S
H798 C778 0.931 . S
H799 C779 0.930 . S
H800 C787 0.931 . S
H801 C788 0.929 . S
H802 C796 0.929 . S
H803 C797 0.930 . S
Mn804 O809 2.095 . S
Mn804 O819 2.162 . S
Mn804 O820 2.297 . S
Mn804 O828 2.385 . S
Mn804 O829 2.209 . S
Mn804 O830 2.094 . S
Mn805 O810 2.121 . S
Mn805 N812 2.257 . S
Mn805 N821 2.282 . S
Mn805 O829 2.215 . S
Mn805 O831 2.117 . S
C806 O828 1.234 . S
C806 O829 1.283 . S
C807 O819 1.281 . S
C807 O820 1.236 . S
C808 O830 1.240 . S
C808 O831 1.264 . S
O809 Mn804 2.095 . S
O809 C818 1.250 . S
O810 Mn805 2.121 . S
O810 C818 1.258 . S
C811 N812 1.326 . S
C811 C815 1.460 . S
C811 H817 0.929 . S
N812 Mn805 2.257 . S
N812 C811 1.326 . S
N812 C816 1.362 . S
C813 C814 1.258 . S
C813 C816 1.431 . S
C813 C833 1.449 . S
C814 C813 1.258 . S
C814 C815 1.477 . S
C814 H834 0.931 . S
C815 C811 1.460 . S
C815 C814 1.477 . S
C815 H835 0.930 . S
C816 N812 1.362 . S
C816 C813 1.431 . S
C816 C826 1.476 . S
H817 C811 0.929 . S
C818 O809 1.250 . S
C818 O810 1.258 . S
O819 Mn804 2.162 . S
O819 C807 1.281 . S
O820 Mn804 2.297 . S
O820 C807 1.236 . S
N821 Mn805 2.282 . S
N821 C822 1.328 . S
N821 C826 1.318 . S
C822 N821 1.328 . S
C822 C823 1.457 . S
C822 H827 0.929 . S
C823 C822 1.457 . S
C823 C824 1.291 . S
C823 H836 0.931 . S
C824 C823 1.291 . S
C824 C825 1.373 . S
C824 H837 0.929 . S
C825 C824 1.373 . S
C825 C826 1.396 . S
C825 C832 1.403 . S
C826 C816 1.476 . S
C826 N821 1.318 . S
C826 C825 1.396 . S
H827 C822 0.929 . S
O828 Mn804 2.385 . S
O828 C806 1.234 . S
O829 Mn804 2.209 . S
O829 Mn805 2.215 . S
O829 C806 1.283 . S
O830 Mn804 2.094 . S
O830 C808 1.240 . S
O831 Mn805 2.117 . S
O831 C808 1.264 . S
C832 C825 1.403 . S
C832 C833 1.399 . S
C832 H838 0.929 . S
C833 C813 1.449 . S
C833 C832 1.399 . S
C833 H839 0.930 . S
H834 C814 0.931 . S
H835 C815 0.930 . S
H836 C823 0.931 . S
H837 C824 0.929 . S
H838 C832 0.929 . S
H839 C833 0.930 . S
Mn840 O845 2.095 . S
Mn840 O855 2.162 . S
Mn840 O856 2.297 . S
Mn840 O864 2.385 . S
Mn840 O865 2.209 . S
Mn840 O866 2.094 . S
Mn841 O846 2.121 . S
Mn841 N848 2.257 . S
Mn841 N857 2.282 . S
Mn841 O865 2.215 . S
Mn841 O867 2.117 . S
C842 O864 1.234 . S
C842 O865 1.283 . S
C843 O855 1.281 . S
C843 O856 1.236 . S
C844 O866 1.240 . S
C844 O867 1.264 . S
O845 Mn840 2.095 . S
O845 C854 1.250 . S
O846 Mn841 2.121 . S
O846 C854 1.258 . S
C847 N848 1.326 . S
C847 C851 1.460 . S
C847 H853 0.929 . S
N848 Mn841 2.257 . S
N848 C847 1.326 . S
N848 C852 1.362 . S
C849 C850 1.258 . S
C849 C852 1.431 . S
C849 C869 1.449 . S
C850 C849 1.258 . S
C850 C851 1.477 . S
C850 H870 0.931 . S
C851 C847 1.460 . S
C851 C850 1.477 . S
C851 H871 0.930 . S
C852 N848 1.362 . S
C852 C849 1.431 . S
C852 C862 1.476 . S
H853 C847 0.929 . S
C854 O845 1.250 . S
C854 O846 1.258 . S
O855 Mn840 2.162 . S
O855 C843 1.281 . S
O856 Mn840 2.297 . S
O856 C843 1.236 . S
N857 Mn841 2.282 . S
N857 C858 1.328 . S
N857 C862 1.318 . S
C858 N857 1.328 . S
C858 C859 1.457 . S
C858 H863 0.929 . S
C859 C858 1.457 . S
C859 C860 1.291 . S
C859 H872 0.931 . S
C860 C859 1.291 . S
C860 C861 1.373 . S
C860 H873 0.929 . S
C861 C860 1.373 . S
C861 C862 1.396 . S
C861 C868 1.403 . S
C862 C852 1.476 . S
C862 N857 1.318 . S
C862 C861 1.396 . S
H863 C858 0.929 . S
O864 Mn840 2.385 . S
O864 C842 1.234 . S
O865 Mn840 2.209 . S
O865 Mn841 2.215 . S
O865 C842 1.283 . S
O866 Mn840 2.094 . S
O866 C844 1.240 . S
O867 Mn841 2.117 . S
O867 C844 1.264 . S
C868 C861 1.403 . S
C868 C869 1.399 . S
C868 H874 0.929 . S
C869 C849 1.449 . S
C869 C868 1.399 . S
C869 H875 0.930 . S
H870 C850 0.931 . S
H871 C851 0.930 . S
H872 C859 0.931 . S
H873 C860 0.929 . S
H874 C868 0.929 . S
H875 C869 0.930 . S
Mn876 O881 2.095 . S
Mn876 O891 2.162 . S
Mn876 O892 2.297 . S
Mn876 O900 2.385 1_565 S
Mn876 O901 2.209 1_565 S
Mn876 O902 2.094 . S
Mn877 O882 2.121 . S
Mn877 N884 2.257 . S
Mn877 N893 2.282 . S
Mn877 O901 2.215 . S
Mn877 O903 2.117 . S
C878 O900 1.234 . S
C878 O901 1.283 . S
C879 O891 1.281 . S
C879 O892 1.236 . S
C880 O902 1.221 1_545 S
C880 O903 1.288 . S
O881 Mn876 2.095 . S
O881 C890 1.250 1_565 S
O882 Mn877 2.121 . S
O882 C890 1.258 . S
C883 N884 1.326 . S
C883 C887 1.460 . S
C883 H889 0.929 . S
N884 Mn877 2.257 . S
N884 C883 1.326 . S
N884 C888 1.362 . S
C885 C886 1.258 . S
C885 C888 1.431 . S
C885 C905 1.449 . S
C886 C885 1.258 . S
C886 C887 1.477 . S
C886 H906 0.931 . S
C887 C883 1.460 . S
C887 C886 1.477 . S
C887 H907 0.930 . S
C888 N884 1.362 . S
C888 C885 1.431 . S
C888 C898 1.476 . S
H889 C883 0.929 . S
C890 O881 1.250 1_545 S
C890 O882 1.258 . S
O891 Mn876 2.162 . S
O891 C879 1.281 . S
O892 Mn876 2.297 . S
O892 C879 1.236 . S
N893 Mn877 2.282 . S
N893 C894 1.328 . S
N893 C898 1.318 . S
C894 N893 1.328 . S
C894 C895 1.457 . S
C894 H899 0.929 . S
C895 C894 1.457 . S
C895 C896 1.291 . S
C895 H908 0.931 . S
C896 C895 1.291 . S
C896 C897 1.373 . S
C896 H909 0.929 . S
C897 C896 1.373 . S
C897 C898 1.396 . S
C897 C904 1.403 . S
C898 C888 1.476 . S
C898 N893 1.318 . S
C898 C897 1.396 . S
H899 C894 0.929 . S
O900 Mn876 2.385 1_545 S
O900 C878 1.234 . S
O901 Mn876 2.209 1_545 S
O901 Mn877 2.215 . S
O901 C878 1.283 . S
O902 Mn876 2.094 . S
O902 C880 1.221 1_565 S
O903 Mn877 2.117 . S
O903 C880 1.288 . S
C904 C897 1.403 . S
C904 C905 1.399 . S
C904 H910 0.929 . S
C905 C885 1.449 . S
C905 C904 1.399 . S
C905 H911 0.930 . S
H906 C886 0.931 . S
H907 C887 0.930 . S
H908 C895 0.931 . S
H909 C896 0.929 . S
H910 C904 0.929 . S
H911 C905 0.930 . S
Mn912 O917 2.095 . S
Mn912 O927 2.162 . S
Mn912 O928 2.297 . S
Mn912 O936 2.385 1_455 S
Mn912 O937 2.209 1_455 S
Mn912 O938 2.094 . S
Mn913 O918 2.121 . S
Mn913 N920 2.257 . S
Mn913 N929 2.282 . S
Mn913 O937 2.215 . S
Mn913 O939 2.117 . S
C914 O936 1.234 . S
C914 O937 1.283 . S
C915 O927 1.281 . S
C915 O928 1.236 . S
C916 O938 1.240 . S
C916 O939 1.264 1_455 S
O917 Mn912 2.095 . S
O917 C926 1.250 1_455 S
O918 Mn913 2.121 . S
O918 C926 1.258 . S
C919 N920 1.326 . S
C919 C923 1.460 . S
C919 H925 0.929 . S
N920 Mn913 2.257 . S
N920 C919 1.326 . S
N920 C924 1.362 . S
C921 C922 1.258 . S
C921 C924 1.431 . S
C921 C941 1.449 . S
C922 C921 1.258 . S
C922 C923 1.477 . S
C922 H942 0.931 . S
C923 C919 1.460 . S
C923 C922 1.477 . S
C923 H943 0.930 . S
C924 N920 1.362 . S
C924 C921 1.431 . S
C924 C934 1.476 . S
H925 C919 0.929 . S
C926 O917 1.250 1_655 S
C926 O918 1.258 . S
O927 Mn912 2.162 . S
O927 C915 1.281 . S
O928 Mn912 2.297 . S
O928 C915 1.236 . S
N929 Mn913 2.282 . S
N929 C930 1.328 . S
N929 C934 1.318 . S
C930 N929 1.328 . S
C930 C931 1.457 . S
C930 H935 0.929 . S
C931 C930 1.457 . S
C931 C932 1.291 . S
C931 H944 0.931 . S
C932 C931 1.291 . S
C932 C933 1.373 . S
C932 H945 0.929 . S
C933 C932 1.373 . S
C933 C934 1.396 . S
C933 C940 1.403 . S
C934 C924 1.476 . S
C934 N929 1.318 . S
C934 C933 1.396 . S
H935 C930 0.929 . S
O936 Mn912 2.385 1_655 S
O936 C914 1.234 . S
O937 Mn912 2.209 1_655 S
O937 Mn913 2.215 . S
O937 C914 1.283 . S
O938 Mn912 2.094 . S
O938 C916 1.240 . S
O939 Mn913 2.117 . S
O939 C916 1.264 1_655 S
C940 C933 1.403 . S
C940 C941 1.399 . S
C940 H946 0.929 . S
C941 C921 1.449 . S
C941 C940 1.399 . S
C941 H947 0.930 . S
H942 C922 0.931 . S
H943 C923 0.930 . S
H944 C931 0.931 . S
H945 C932 0.929 . S
H946 C940 0.929 . S
H947 C941 0.930 . S
Mn948 O953 2.095 . S
Mn948 O963 2.162 . S
Mn948 O964 2.297 . S
Mn948 O972 2.385 . S
Mn948 O973 2.209 . S
Mn948 O974 2.094 . S
Mn949 O954 2.121 . S
Mn949 N956 2.257 . S
Mn949 N965 2.282 . S
Mn949 O973 2.215 . S
Mn949 O975 2.117 . S
C950 O972 1.234 . S
C950 O973 1.283 . S
C951 O963 1.281 . S
C951 O964 1.236 . S
C952 O974 1.240 . S
C952 O975 1.264 . S
O953 Mn948 2.095 . S
O953 C962 1.250 . S
O954 Mn949 2.121 . S
O954 C962 1.258 . S
C955 N956 1.326 . S
C955 C959 1.460 . S
C955 H961 0.929 . S
N956 Mn949 2.257 . S
N956 C955 1.326 . S
N956 C960 1.362 . S
C957 C958 1.258 . S
C957 C960 1.431 . S
C957 C977 1.449 . S
C958 C957 1.258 . S
C958 C959 1.477 . S
C958 H978 0.931 . S
C959 C955 1.460 . S
C959 C958 1.477 . S
C959 H979 0.930 . S
C960 N956 1.362 . S
C960 C957 1.431 . S
C960 C970 1.476 . S
H961 C955 0.929 . S
C962 O953 1.250 . S
C962 O954 1.258 . S
O963 Mn948 2.162 . S
O963 C951 1.281 . S
O964 Mn948 2.297 . S
O964 C951 1.236 . S
N965 Mn949 2.282 . S
N965 C966 1.328 . S
N965 C970 1.318 . S
C966 N965 1.328 . S
C966 C967 1.457 . S
C966 H971 0.929 . S
C967 C966 1.457 . S
C967 C968 1.291 . S
C967 H980 0.931 . S
C968 C967 1.291 . S
C968 C969 1.373 . S
C968 H981 0.929 . S
C969 C968 1.373 . S
C969 C970 1.396 . S
C969 C976 1.403 . S
C970 C960 1.476 . S
C970 N965 1.318 . S
C970 C969 1.396 . S
H971 C966 0.929 . S
O972 Mn948 2.385 . S
O972 C950 1.234 . S
O973 Mn948 2.209 . S
O973 Mn949 2.215 . S
O973 C950 1.283 . S
O974 Mn948 2.094 . S
O974 C952 1.240 . S
O975 Mn949 2.117 . S
O975 C952 1.264 . S
C976 C969 1.403 . S
C976 C977 1.399 . S
C976 H982 0.929 . S
C977 C957 1.449 . S
C977 C976 1.399 . S
C977 H983 0.930 . S
H978 C958 0.931 . S
H979 C959 0.930 . S
H980 C967 0.931 . S
H981 C968 0.929 . S
H982 C976 0.929 . S
H983 C977 0.930 . S
Mn984 O989 2.095 1_455 S
Mn984 O999 2.162 . S
Mn984 O1000 2.297 1_455 S
Mn984 O1008 2.385 . S
Mn984 O1009 2.209 1_455 S
Mn984 O1010 2.094 . S
Mn985 O990 2.121 . S
Mn985 N992 2.257 . S
Mn985 N1001 2.282 1_655 S
Mn985 O1009 2.215 . S
Mn985 O1011 2.117 1_655 S
C986 O1008 1.234 . S
C986 O1009 1.283 1_455 S
C987 O999 1.281 . S
C987 O1000 1.236 1_455 S
C988 O1010 1.240 . S
C988 O1011 1.264 . S
O989 Mn984 2.095 1_655 S
O989 C998 1.250 . S
O990 Mn985 2.121 . S
O990 C998 1.258 . S
C991 N992 1.326 . S
C991 C995 1.460 . S
C991 H997 0.929 . S
N992 Mn985 2.257 . S
N992 C991 1.326 . S
N992 C996 1.362 . S
C993 C994 1.258 . S
C993 C996 1.431 . S
C993 C1013 1.449 . S
C994 C993 1.258 . S
C994 C995 1.477 . S
C994 H1014 0.931 . S
C995 C991 1.460 . S
C995 C994 1.477 . S
C995 H1015 0.930 . S
C996 N992 1.362 . S
C996 C993 1.431 . S
C996 C1006 1.476 . S
H997 C991 0.929 . S
C998 O989 1.250 . S
C998 O990 1.258 . S
O999 Mn984 2.162 . S
O999 C987 1.281 . S
O1000 Mn984 2.297 1_655 S
O1000 C987 1.236 1_655 S
N1001 Mn985 2.282 1_455 S
N1001 C1002 1.328 . S
N1001 C1006 1.318 1_455 S
C1002 N1001 1.328 . S
C1002 C1003 1.457 . S
C1002 H1007 0.929 . S
C1003 C1002 1.457 . S
C1003 C1004 1.291 . S
C1003 H1016 0.931 . S
C1004 C1003 1.291 . S
C1004 C1005 1.373 1_455 S
C1004 H1017 0.929 . S
C1005 C1004 1.373 1_655 S
C1005 C1006 1.396 . S
C1005 C1012 1.403 . S
C1006 C996 1.476 . S
C1006 N1001 1.318 1_655 S
C1006 C1005 1.396 . S
H1007 C1002 0.929 . S
O1008 Mn984 2.385 . S
O1008 C986 1.234 . S
O1009 Mn984 2.209 1_655 S
O1009 Mn985 2.215 . S
O1009 C986 1.283 1_655 S
O1010 Mn984 2.094 . S
O1010 C988 1.240 . S
O1011 Mn985 2.117 1_455 S
O1011 C988 1.264 . S
C1012 C1005 1.403 . S
C1012 C1013 1.399 . S
C1012 H1018 0.929 . S
C1013 C993 1.449 . S
C1013 C1012 1.399 . S
C1013 H1019 0.930 . S
H1014 C994 0.931 . S
H1015 C995 0.930 . S
H1016 C1003 0.931 . S
H1017 C1004 0.929 . S
H1018 C1012 0.929 . S
H1019 C1013 0.930 . S
Mn1020 O1025 2.095 . S
Mn1020 O1035 2.162 . S
Mn1020 O1036 2.297 . S
Mn1020 O1044 2.385 . S
Mn1020 O1045 2.209 . S
Mn1020 O1046 2.094 . S
Mn1021 O1026 2.121 . S
Mn1021 N1028 2.257 . S
Mn1021 N1037 2.282 . S
Mn1021 O1045 2.215 . S
Mn1021 O1047 2.117 . S
C1022 O1044 1.234 . S
C1022 O1045 1.283 . S
C1023 O1035 1.281 . S
C1023 O1036 1.236 . S
C1024 O1046 1.240 . S
C1024 O1047 1.264 . S
O1025 Mn1020 2.095 . S
O1025 C1034 1.250 . S
O1026 Mn1021 2.121 . S
O1026 C1034 1.258 . S
C1027 N1028 1.326 . S
C1027 C1031 1.460 . S
C1027 H1033 0.929 . S
N1028 Mn1021 2.257 . S
N1028 C1027 1.326 . S
N1028 C1032 1.362 . S
C1029 C1030 1.258 . S
C1029 C1032 1.431 . S
C1029 C1049 1.449 . S
C1030 C1029 1.258 . S
C1030 C1031 1.477 . S
C1030 H1050 0.931 . S
C1031 C1027 1.460 . S
C1031 C1030 1.477 . S
C1031 H1051 0.930 . S
C1032 N1028 1.362 . S
C1032 C1029 1.431 . S
C1032 C1042 1.476 . S
H1033 C1027 0.929 . S
C1034 O1025 1.250 . S
C1034 O1026 1.258 . S
O1035 Mn1020 2.162 . S
O1035 C1023 1.281 . S
O1036 Mn1020 2.297 . S
O1036 C1023 1.236 . S
N1037 Mn1021 2.282 . S
N1037 C1038 1.328 . S
N1037 C1042 1.318 . S
C1038 N1037 1.328 . S
C1038 C1039 1.457 . S
C1038 H1043 0.929 . S
C1039 C1038 1.457 . S
C1039 C1040 1.291 . S
C1039 H1052 0.931 . S
C1040 C1039 1.291 . S
C1040 C1041 1.373 . S
C1040 H1053 0.929 . S
C1041 C1040 1.373 . S
C1041 C1042 1.396 . S
C1041 C1048 1.403 . S
C1042 C1032 1.476 . S
C1042 N1037 1.318 . S
C1042 C1041 1.396 . S
H1043 C1038 0.929 . S
O1044 Mn1020 2.385 . S
O1044 C1022 1.234 . S
O1045 Mn1020 2.209 . S
O1045 Mn1021 2.215 . S
O1045 C1022 1.283 . S
O1046 Mn1020 2.094 . S
O1046 C1024 1.240 . S
O1047 Mn1021 2.117 . S
O1047 C1024 1.264 . S
C1048 C1041 1.403 . S
C1048 C1049 1.399 . S
C1048 H1054 0.929 . S
C1049 C1029 1.449 . S
C1049 C1048 1.399 . S
C1049 H1055 0.930 . S
H1050 C1030 0.931 . S
H1051 C1031 0.930 . S
H1052 C1039 0.931 . S
H1053 C1040 0.929 . S
H1054 C1048 0.929 . S
H1055 C1049 0.930 . S
C1056 C1057 1.369 . S
C1056 C1058 1.419 . S
C1056 H1060 0.930 . S
C1057 C1056 1.369 . S
C1057 C1066 1.429 . S
C1058 C1056 1.419 . S
C1058 C1059 1.363 . S
C1058 H1061 0.929 . S
C1059 C1058 1.363 . S
C1059 C1065 1.428 . S
H1060 C1056 0.930 . S
H1061 C1058 0.929 . S
S1062 N1063 1.613 . S
S1062 N1064 1.610 . S
N1063 S1062 1.613 . S
N1063 C1066 1.350 . S
N1064 S1062 1.610 . S
N1064 C1065 1.351 . S
C1065 C1059 1.428 . S
C1065 N1064 1.351 . S
C1065 C1066 1.434 . S
C1066 C1057 1.429 . S
C1066 N1063 1.350 . S
C1066 C1065 1.434 . S
C1067 C1068 1.369 . S
C1067 C1069 1.419 . S
C1067 H1071 0.930 . S
C1068 C1067 1.369 . S
C1068 C1077 1.429 . S
C1069 C1067 1.419 . S
C1069 C1070 1.363 . S
C1069 H1072 0.929 . S
C1070 C1069 1.363 . S
C1070 C1076 1.428 . S
H1071 C1067 0.930 . S
H1072 C1069 0.929 . S
S1073 N1074 1.613 . S
S1073 N1075 1.610 . S
N1074 S1073 1.613 . S
N1074 C1077 1.350 . S
N1075 S1073 1.610 . S
N1075 C1076 1.351 . S
C1076 C1070 1.428 . S
C1076 N1075 1.351 . S
C1076 C1077 1.434 . S
C1077 C1068 1.429 . S
C1077 N1074 1.350 . S
C1077 C1076 1.434 . S
C1078 C1079 1.369 . S
C1078 C1080 1.419 . S
C1078 H1082 0.930 . S
C1079 C1078 1.369 . S
C1079 C1088 1.429 . S
C1080 C1078 1.419 . S
C1080 C1081 1.363 . S
C1080 H1083 0.929 . S
C1081 C1080 1.363 . S
C1081 C1087 1.428 . S
H1082 C1078 0.930 . S
H1083 C1080 0.929 . S
S1084 N1085 1.613 . S
S1084 N1086 1.610 . S
N1085 S1084 1.613 . S
N1085 C1088 1.350 . S
N1086 S1084 1.610 . S
N1086 C1087 1.351 . S
C1087 C1081 1.428 . S
C1087 N1086 1.351 . S
C1087 C1088 1.434 . S
C1088 C1079 1.429 . S
C1088 N1085 1.350 . S
C1088 C1087 1.434 . S
C1089 C1090 1.369 . S
C1089 C1091 1.419 . S
C1089 H1093 0.930 . S
C1090 C1089 1.369 . S
C1090 C1099 1.429 1_565 S
C1091 C1089 1.419 . S
C1091 C1092 1.354 1_565 S
C1091 H1094 0.929 . S
C1092 C1091 1.354 1_545 S
C1092 C1098 1.436 . S
H1093 C1089 0.930 . S
H1094 C1091 0.929 . S
S1095 N1096 1.613 . S
S1095 N1097 1.610 . S
N1096 S1095 1.613 . S
N1096 C1099 1.350 . S
N1097 S1095 1.610 . S
N1097 C1098 1.351 . S
C1098 C1092 1.436 . S
C1098 N1097 1.351 . S
C1098 C1099 1.434 . S
C1099 C1090 1.429 1_545 S
C1099 N1096 1.350 . S
C1099 C1098 1.434 . S
C1100 C1101 1.369 . S
C1100 C1102 1.419 . S
C1100 H1104 0.930 . S
C1101 C1100 1.369 . S
C1101 C1110 1.429 . S
C1102 C1100 1.419 . S
C1102 C1103 1.363 . S
C1102 H1105 0.929 . S
C1103 C1102 1.363 . S
C1103 C1109 1.428 . S
H1104 C1100 0.930 . S
H1105 C1102 0.929 . S
S1106 N1107 1.613 . S
S1106 N1108 1.610 . S
N1107 S1106 1.613 . S
N1107 C1110 1.350 . S
N1108 S1106 1.610 . S
N1108 C1109 1.351 . S
C1109 C1103 1.428 . S
C1109 N1108 1.351 . S
C1109 C1110 1.434 . S
C1110 C1101 1.429 . S
C1110 N1107 1.350 . S
C1110 C1109 1.434 . S
C1111 C1112 1.369 . S
C1111 C1113 1.419 . S
C1111 H1115 0.930 . S
C1112 C1111 1.369 . S
C1112 C1121 1.429 . S
C1113 C1111 1.419 . S
C1113 C1114 1.363 . S
C1113 H1116 0.929 . S
C1114 C1113 1.363 . S
C1114 C1120 1.428 . S
H1115 C1111 0.930 . S
H1116 C1113 0.929 . S
S1117 N1118 1.613 . S
S1117 N1119 1.610 . S
N1118 S1117 1.613 . S
N1118 C1121 1.350 . S
N1119 S1117 1.610 . S
N1119 C1120 1.351 . S
C1120 C1114 1.428 . S
C1120 N1119 1.351 . S
C1120 C1121 1.434 . S
C1121 C1112 1.429 . S
C1121 N1118 1.350 . S
C1121 C1120 1.434 . S
C1122 C1123 1.369 . S
C1122 C1124 1.419 . S
C1122 H1126 0.930 . S
C1123 C1122 1.369 . S
C1123 C1132 1.429 . S
C1124 C1122 1.419 . S
C1124 C1125 1.363 . S
C1124 H1127 0.929 . S
C1125 C1124 1.363 . S
C1125 C1131 1.428 . S
H1126 C1122 0.930 . S
H1127 C1124 0.929 . S
S1128 N1129 1.613 . S
S1128 N1130 1.610 . S
N1129 S1128 1.613 . S
N1129 C1132 1.350 . S
N1130 S1128 1.610 . S
N1130 C1131 1.351 . S
C1131 C1125 1.428 . S
C1131 N1130 1.351 . S
C1131 C1132 1.434 . S
C1132 C1123 1.429 . S
C1132 N1129 1.350 . S
C1132 C1131 1.434 . S
C1133 C1134 1.369 1_545 S
C1133 C1135 1.419 . S
C1133 H1137 0.930 . S
C1134 C1133 1.369 1_565 S
C1134 C1143 1.429 . S
C1135 C1133 1.419 . S
C1135 C1136 1.363 1_545 S
C1135 H1138 0.929 . S
C1136 C1135 1.363 1_565 S
C1136 C1142 1.428 . S
H1137 C1133 0.930 . S
H1138 C1135 0.929 . S
S1139 N1140 1.613 . S
S1139 N1141 1.610 . S
N1140 S1139 1.613 . S
N1140 C1143 1.350 . S
N1141 S1139 1.610 . S
N1141 C1142 1.351 . S
C1142 C1136 1.428 . S
C1142 N1141 1.351 . S
C1142 C1143 1.434 . S
C1143 C1134 1.429 . S
C1143 N1140 1.350 . S
C1143 C1142 1.434 . S
C1144 C1145 1.369 . S
C1144 C1146 1.419 . S
C1144 H1148 0.930 . S
C1145 C1144 1.369 . S
C1145 C1154 1.429 . S
C1146 C1144 1.419 . S
C1146 C1147 1.363 . S
C1146 H1149 0.929 . S
C1147 C1146 1.363 . S
C1147 C1153 1.428 . S
H1148 C1144 0.930 . S
H1149 C1146 0.929 . S
S1150 N1151 1.613 . S
S1150 N1152 1.610 . S
N1151 S1150 1.613 . S
N1151 C1154 1.350 . S
N1152 S1150 1.610 . S
N1152 C1153 1.351 . S
C1153 C1147 1.428 . S
C1153 N1152 1.351 . S
C1153 C1154 1.434 . S
C1154 C1145 1.429 . S
C1154 N1151 1.350 . S
C1154 C1153 1.434 . S
C1155 C1156 1.369 . S
C1155 C1157 1.419 . S
C1155 H1159 0.930 . S
C1156 C1155 1.369 . S
C1156 C1165 1.429 . S
C1157 C1155 1.419 . S
C1157 C1158 1.363 . S
C1157 H1160 0.929 . S
C1158 C1157 1.363 . S
C1158 C1164 1.428 . S
H1159 C1155 0.930 . S
H1160 C1157 0.929 . S
S1161 N1162 1.613 . S
S1161 N1163 1.610 . S
N1162 S1161 1.613 . S
N1162 C1165 1.350 . S
N1163 S1161 1.610 . S
N1163 C1164 1.351 . S
C1164 C1158 1.428 . S
C1164 N1163 1.351 . S
C1164 C1165 1.434 . S
C1165 C1156 1.429 . S
C1165 N1162 1.350 . S
C1165 C1164 1.434 . S
C1166 C1167 1.369 . S
C1166 C1168 1.419 . S
C1166 H1170 0.930 . S
C1167 C1166 1.369 . S
C1167 C1176 1.429 . S
C1168 C1166 1.419 . S
C1168 C1169 1.363 . S
C1168 H1171 0.929 . S
C1169 C1168 1.363 . S
C1169 C1175 1.428 . S
H1170 C1166 0.930 . S
H1171 C1168 0.929 . S
S1172 N1173 1.613 . S
S1172 N1174 1.610 . S
N1173 S1172 1.613 . S
N1173 C1176 1.350 . S
N1174 S1172 1.610 . S
N1174 C1175 1.351 . S
C1175 C1169 1.428 . S
C1175 N1174 1.351 . S
C1175 C1176 1.434 . S
C1176 C1167 1.429 . S
C1176 N1173 1.350 . S
C1176 C1175 1.434 . S
C1177 C1178 1.369 . S
C1177 C1179 1.419 . S
C1177 H1181 0.930 . S
C1178 C1177 1.369 . S
C1178 C1187 1.429 . S
C1179 C1177 1.419 . S
C1179 C1180 1.363 . S
C1179 H1182 0.929 . S
C1180 C1179 1.363 . S
C1180 C1186 1.428 . S
H1181 C1177 0.930 . S
H1182 C1179 0.929 . S
S1183 N1184 1.613 . S
S1183 N1185 1.610 . S
N1184 S1183 1.613 . S
N1184 C1187 1.350 . S
N1185 S1183 1.610 . S
N1185 C1186 1.351 . S
C1186 C1180 1.428 . S
C1186 N1185 1.351 . S
C1186 C1187 1.434 . S
C1187 C1178 1.429 . S
C1187 N1184 1.350 . S
C1187 C1186 1.434 . S
C1188 C1189 1.369 . S
C1188 C1190 1.419 . S
C1188 H1192 0.930 . S
C1189 C1188 1.369 . S
C1189 C1198 1.429 . S
C1190 C1188 1.419 . S
C1190 C1191 1.363 . S
C1190 H1193 0.929 . S
C1191 C1190 1.363 . S
C1191 C1197 1.428 . S
H1192 C1188 0.930 . S
H1193 C1190 0.929 . S
S1194 N1195 1.613 . S
S1194 N1196 1.610 . S
N1195 S1194 1.613 . S
N1195 C1198 1.350 . S
N1196 S1194 1.610 . S
N1196 C1197 1.351 . S
C1197 C1191 1.428 . S
C1197 N1196 1.351 . S
C1197 C1198 1.434 . S
C1198 C1189 1.429 . S
C1198 N1195 1.350 . S
C1198 C1197 1.434 . S
C1199 C1200 1.369 . S
C1199 C1201 1.419 . S
C1199 H1203 0.930 . S
C1200 C1199 1.369 . S
C1200 C1209 1.429 . S
C1201 C1199 1.419 . S
C1201 C1202 1.363 . S
C1201 H1204 0.929 . S
C1202 C1201 1.363 . S
C1202 C1208 1.428 . S
H1203 C1199 0.930 . S
H1204 C1201 0.929 . S
S1205 N1206 1.613 . S
S1205 N1207 1.610 . S
N1206 S1205 1.613 . S
N1206 C1209 1.350 . S
N1207 S1205 1.610 . S
N1207 C1208 1.351 . S
C1208 C1202 1.428 . S
C1208 N1207 1.351 . S
C1208 C1209 1.434 . S
C1209 C1200 1.429 . S
C1209 N1206 1.350 . S
C1209 C1208 1.434 . S
C1210 C1211 1.369 . S
C1210 C1212 1.419 . S
C1210 H1214 0.930 . S
C1211 C1210 1.369 . S
C1211 C1220 1.429 . S
C1212 C1210 1.419 . S
C1212 C1213 1.363 . S
C1212 H1215 0.929 . S
C1213 C1212 1.363 . S
C1213 C1219 1.428 . S
H1214 C1210 0.930 . S
H1215 C1212 0.929 . S
S1216 N1217 1.613 . S
S1216 N1218 1.610 . S
N1217 S1216 1.613 . S
N1217 C1220 1.350 . S
N1218 S1216 1.610 . S
N1218 C1219 1.351 . S
C1219 C1213 1.428 . S
C1219 N1218 1.351 . S
C1219 C1220 1.434 . S
C1220 C1211 1.429 . S
C1220 N1217 1.350 . S
C1220 C1219 1.434 . S
C1221 C1222 1.369 1_455 S
C1221 C1223 1.419 . S
C1221 H1225 0.930 . S
C1222 C1221 1.369 1_655 S
C1222 C1231 1.429 . S
C1223 C1221 1.419 . S
C1223 C1224 1.363 1_455 S
C1223 H1226 0.929 . S
C1224 C1223 1.363 1_655 S
C1224 C1230 1.428 . S
H1225 C1221 0.930 . S
H1226 C1223 0.929 . S
S1227 N1228 1.613 . S
S1227 N1229 1.610 . S
N1228 S1227 1.613 . S
N1228 C1231 1.350 . S
N1229 S1227 1.610 . S
N1229 C1230 1.351 . S
C1230 C1224 1.428 . S
C1230 N1229 1.351 . S
C1230 C1231 1.434 . S
C1231 C1222 1.429 . S
C1231 N1228 1.350 . S
C1231 C1230 1.434 . S
C1232 C1233 1.369 . S
C1232 C1234 1.419 . S
C1232 H1236 0.930 . S
C1233 C1232 1.369 . S
C1233 C1242 1.429 . S
C1234 C1232 1.419 . S
C1234 C1235 1.363 . S
C1234 H1237 0.929 . S
C1235 C1234 1.363 . S
C1235 C1241 1.428 . S
H1236 C1232 0.930 . S
H1237 C1234 0.929 . S
S1238 N1239 1.613 . S
S1238 N1240 1.610 . S
N1239 S1238 1.613 . S
N1239 C1242 1.350 . S
N1240 S1238 1.610 . S
N1240 C1241 1.351 . S
C1241 C1235 1.428 . S
C1241 N1240 1.351 . S
C1241 C1242 1.434 . S
C1242 C1233 1.429 . S
C1242 N1239 1.350 . S
C1242 C1241 1.434 . S
C1243 C1244 1.369 . S
C1243 C1245 1.419 . S
C1243 H1247 0.930 . S
C1244 C1243 1.369 . S
C1244 C1253 1.429 . S
C1245 C1243 1.419 . S
C1245 C1246 1.363 . S
C1245 H1248 0.929 . S
C1246 C1245 1.363 . S
C1246 C1252 1.428 . S
H1247 C1243 0.930 . S
H1248 C1245 0.929 . S
S1249 N1250 1.613 . S
S1249 N1251 1.610 . S
N1250 S1249 1.613 . S
N1250 C1253 1.350 . S
N1251 S1249 1.610 . S
N1251 C1252 1.351 . S
C1252 C1246 1.428 . S
C1252 N1251 1.351 . S
C1252 C1253 1.434 . S
C1253 C1244 1.429 . S
C1253 N1250 1.350 . S
C1253 C1252 1.434 . S
C1254 C1255 1.369 1_554 S
C1254 C1256 1.419 . S
C1254 H1258 0.930 . S
C1255 C1254 1.369 1_556 S
C1255 C1264 1.429 . S
C1256 C1254 1.419 . S
C1256 C1257 1.363 . S
C1256 H1259 0.929 . S
C1257 C1256 1.363 . S
C1257 C1263 1.428 1_554 S
H1258 C1254 0.930 . S
H1259 C1256 0.929 . S
S1260 N1261 1.613 . S
S1260 N1262 1.610 . S
N1261 S1260 1.613 . S
N1261 C1264 1.350 . S
N1262 S1260 1.610 . S
N1262 C1263 1.351 . S
C1263 C1257 1.428 1_556 S
C1263 N1262 1.351 . S
C1263 C1264 1.434 . S
C1264 C1255 1.429 . S
C1264 N1261 1.350 . S
C1264 C1263 1.434 . S
C1265 C1266 1.369 . S
C1265 C1267 1.419 . S
C1265 H1269 0.930 . S
C1266 C1265 1.369 . S
C1266 C1275 1.429 . S
C1267 C1265 1.419 . S
C1267 C1268 1.363 . S
C1267 H1270 0.929 . S
C1268 C1267 1.363 . S
C1268 C1274 1.428 . S
H1269 C1265 0.930 . S
H1270 C1267 0.929 . S
S1271 N1272 1.613 . S
S1271 N1273 1.610 . S
N1272 S1271 1.613 . S
N1272 C1275 1.350 . S
N1273 S1271 1.610 . S
N1273 C1274 1.351 . S
C1274 C1268 1.428 . S
C1274 N1273 1.351 . S
C1274 C1275 1.434 . S
C1275 C1266 1.429 . S
C1275 N1272 1.350 . S
C1275 C1274 1.434 . S
C1276 C1277 1.369 . S
C1276 C1278 1.419 . S
C1276 H1280 0.930 . S
C1277 C1276 1.369 . S
C1277 C1286 1.429 . S
C1278 C1276 1.419 . S
C1278 C1279 1.363 . S
C1278 H1281 0.929 . S
C1279 C1278 1.363 . S
C1279 C1285 1.428 . S
H1280 C1276 0.930 . S
H1281 C1278 0.929 . S
S1282 N1283 1.613 . S
S1282 N1284 1.610 . S
N1283 S1282 1.613 . S
N1283 C1286 1.350 . S
N1284 S1282 1.610 . S
N1284 C1285 1.351 . S
C1285 C1279 1.428 . S
C1285 N1284 1.351 . S
C1285 C1286 1.434 . S
C1286 C1277 1.429 . S
C1286 N1283 1.350 . S
C1286 C1285 1.434 . S
C1287 C1288 1.369 . S
C1287 C1289 1.419 . S
C1287 H1291 0.930 . S
C1288 C1287 1.369 . S
C1288 C1297 1.429 . S
C1289 C1287 1.419 . S
C1289 C1290 1.363 . S
C1289 H1292 0.929 . S
C1290 C1289 1.363 . S
C1290 C1296 1.428 . S
H1291 C1287 0.930 . S
H1292 C1289 0.929 . S
S1293 N1294 1.613 . S
S1293 N1295 1.610 . S
N1294 S1293 1.613 . S
N1294 C1297 1.350 . S
N1295 S1293 1.610 . S
N1295 C1296 1.351 . S
C1296 C1290 1.428 . S
C1296 N1295 1.351 . S
C1296 C1297 1.434 . S
C1297 C1288 1.429 . S
C1297 N1294 1.350 . S
C1297 C1296 1.434 . S
C1298 C1299 1.369 . S
C1298 C1300 1.419 . S
C1298 H1302 0.930 . S
C1299 C1298 1.369 . S
C1299 C1308 1.429 . S
C1300 C1298 1.419 . S
C1300 C1301 1.363 . S
C1300 H1303 0.929 . S
C1301 C1300 1.363 . S
C1301 C1307 1.428 . S
H1302 C1298 0.930 . S
H1303 C1300 0.929 . S
S1304 N1305 1.613 . S
S1304 N1306 1.610 . S
N1305 S1304 1.613 . S
N1305 C1308 1.350 . S
N1306 S1304 1.610 . S
N1306 C1307 1.351 . S
C1307 C1301 1.428 . S
C1307 N1306 1.351 . S
C1307 C1308 1.434 . S
C1308 C1299 1.429 . S
C1308 N1305 1.350 . S
C1308 C1307 1.434 . S
C1309 C1310 1.369 . S
C1309 C1311 1.419 . S
C1309 H1313 0.930 . S
C1310 C1309 1.369 . S
C1310 C1319 1.429 . S
C1311 C1309 1.419 . S
C1311 C1312 1.363 . S
C1311 H1314 0.929 . S
C1312 C1311 1.363 . S
C1312 C1318 1.428 . S
H1313 C1309 0.930 . S
H1314 C1311 0.929 . S
S1315 N1316 1.613 . S
S1315 N1317 1.610 . S
N1316 S1315 1.613 . S
N1316 C1319 1.350 . S
N1317 S1315 1.610 . S
N1317 C1318 1.351 . S
C1318 C1312 1.428 . S
C1318 N1317 1.351 . S
C1318 C1319 1.434 . S
C1319 C1310 1.429 . S
C1319 N1316 1.350 . S
C1319 C1318 1.434 . S
C1320 C1321 1.369 . S
C1320 C1322 1.419 . S
C1320 H1324 0.930 . S
C1321 C1320 1.369 . S
C1321 C1330 1.429 . S
C1322 C1320 1.419 . S
C1322 C1323 1.363 . S
C1322 H1325 0.929 . S
C1323 C1322 1.363 . S
C1323 C1329 1.428 . S
H1324 C1320 0.930 . S
H1325 C1322 0.929 . S
S1326 N1327 1.613 . S
S1326 N1328 1.610 . S
N1327 S1326 1.613 . S
N1327 C1330 1.350 . S
N1328 S1326 1.610 . S
N1328 C1329 1.351 . S
C1329 C1323 1.428 . S
C1329 N1328 1.351 . S
C1329 C1330 1.434 . S
C1330 C1321 1.429 . S
C1330 N1327 1.350 . S
C1330 C1329 1.434 . S
C1331 C1332 1.369 . S
C1331 C1333 1.419 . S
C1331 H1335 0.930 . S
C1332 C1331 1.369 . S
C1332 C1341 1.429 1_545 S
C1333 C1331 1.419 . S
C1333 C1334 1.363 . S
C1333 H1336 0.929 . S
C1334 C1333 1.363 . S
C1334 C1340 1.428 1_545 S
H1335 C1331 0.930 . S
H1336 C1333 0.929 . S
S1337 N1338 1.613 . S
S1337 N1339 1.610 . S
N1338 S1337 1.613 . S
N1338 C1341 1.350 . S
N1339 S1337 1.610 . S
N1339 C1340 1.351 . S
C1340 C1334 1.428 1_565 S
C1340 N1339 1.351 . S
C1340 C1341 1.434 . S
C1341 C1332 1.429 1_565 S
C1341 N1338 1.350 . S
C1341 C1340 1.434 . S
C1342 C1343 1.369 . S
C1342 C1344 1.419 . S
C1342 H1346 0.930 . S
C1343 C1342 1.369 . S
C1343 C1352 1.429 . S
C1344 C1342 1.419 . S
C1344 C1345 1.363 . S
C1344 H1347 0.929 . S
C1345 C1344 1.363 . S
C1345 C1351 1.428 . S
H1346 C1342 0.930 . S
H1347 C1344 0.929 . S
S1348 N1349 1.613 . S
S1348 N1350 1.610 . S
N1349 S1348 1.613 . S
N1349 C1352 1.350 . S
N1350 S1348 1.610 . S
N1350 C1351 1.351 . S
C1351 C1345 1.428 . S
C1351 N1350 1.351 . S
C1351 C1352 1.434 . S
C1352 C1343 1.429 . S
C1352 N1349 1.350 . S
C1352 C1351 1.434 . S
C1353 C1354 1.369 . S
C1353 C1355 1.419 . S
C1353 H1357 0.930 . S
C1354 C1353 1.369 . S
C1354 C1363 1.429 . S
C1355 C1353 1.419 . S
C1355 C1356 1.363 . S
C1355 H1358 0.929 . S
C1356 C1355 1.363 . S
C1356 C1362 1.428 . S
H1357 C1353 0.930 . S
H1358 C1355 0.929 . S
S1359 N1360 1.613 . S
S1359 N1361 1.610 . S
N1360 S1359 1.613 . S
N1360 C1363 1.350 . S
N1361 S1359 1.610 . S
N1361 C1362 1.351 . S
C1362 C1356 1.428 . S
C1362 N1361 1.351 . S
C1362 C1363 1.434 . S
C1363 C1354 1.429 . S
C1363 N1360 1.350 . S
C1363 C1362 1.434 . S
C1364 C1365 1.369 . S
C1364 C1366 1.419 . S
C1364 H1368 0.930 . S
C1365 C1364 1.369 . S
C1365 C1374 1.429 . S
C1366 C1364 1.419 . S
C1366 C1367 1.363 . S
C1366 H1369 0.929 . S
C1367 C1366 1.363 . S
C1367 C1373 1.428 . S
H1368 C1364 0.930 . S
H1369 C1366 0.929 . S
S1370 N1371 1.613 . S
S1370 N1372 1.610 . S
N1371 S1370 1.613 . S
N1371 C1374 1.350 . S
N1372 S1370 1.610 . S
N1372 C1373 1.351 . S
C1373 C1367 1.428 . S
C1373 N1372 1.351 . S
C1373 C1374 1.434 . S
C1374 C1365 1.429 . S
C1374 N1371 1.350 . S
C1374 C1373 1.434 . S
C1375 C1376 1.369 . S
C1375 C1377 1.419 . S
C1375 H1379 0.930 . S
C1376 C1375 1.369 . S
C1376 C1385 1.429 1_545 S
C1377 C1375 1.419 . S
C1377 C1378 1.363 . S
C1377 H1380 0.929 . S
C1378 C1377 1.363 . S
C1378 C1384 1.428 1_545 S
H1379 C1375 0.930 . S
H1380 C1377 0.929 . S
S1381 N1382 1.613 . S
S1381 N1383 1.610 . S
N1382 S1381 1.613 . S
N1382 C1385 1.350 . S
N1383 S1381 1.610 . S
N1383 C1384 1.351 . S
C1384 C1378 1.428 1_565 S
C1384 N1383 1.351 . S
C1384 C1385 1.434 . S
C1385 C1376 1.429 1_565 S
C1385 N1382 1.350 . S
C1385 C1384 1.434 . S
C1386 C1387 1.369 . S
C1386 C1388 1.419 . S
C1386 H1390 0.930 . S
C1387 C1386 1.369 . S
C1387 C1396 1.429 . S
C1388 C1386 1.419 . S
C1388 C1389 1.363 . S
C1388 H1391 0.929 . S
C1389 C1388 1.363 . S
C1389 C1395 1.428 . S
H1390 C1386 0.930 . S
H1391 C1388 0.929 . S
S1392 N1393 1.613 . S
S1392 N1394 1.610 . S
N1393 S1392 1.613 . S
N1393 C1396 1.350 . S
N1394 S1392 1.610 . S
N1394 C1395 1.351 . S
C1395 C1389 1.428 . S
C1395 N1394 1.351 . S
C1395 C1396 1.434 . S
C1396 C1387 1.429 . S
C1396 N1393 1.350 . S
C1396 C1395 1.434 . S
C1397 C1398 1.369 . S
C1397 C1399 1.419 . S
C1397 H1401 0.930 . S
C1398 C1397 1.369 . S
C1398 C1407 1.429 . S
C1399 C1397 1.419 . S
C1399 C1400 1.363 . S
C1399 H1402 0.929 . S
C1400 C1399 1.363 . S
C1400 C1406 1.428 . S
H1401 C1397 0.930 . S
H1402 C1399 0.929 . S
S1403 N1404 1.613 . S
S1403 N1405 1.610 . S
N1404 S1403 1.613 . S
N1404 C1407 1.350 . S
N1405 S1403 1.610 . S
N1405 C1406 1.351 . S
C1406 C1400 1.428 . S
C1406 N1405 1.351 . S
C1406 C1407 1.434 . S
C1407 C1398 1.429 . S
C1407 N1404 1.350 . S
C1407 C1406 1.434 . S
C1408 C1409 1.369 . S
C1408 C1410 1.419 . S
C1408 H1412 0.930 . S
C1409 C1408 1.369 . S
C1409 C1418 1.429 . S
C1410 C1408 1.419 . S
C1410 C1411 1.363 . S
C1410 H1413 0.929 . S
C1411 C1410 1.363 . S
C1411 C1417 1.428 . S
H1412 C1408 0.930 . S
H1413 C1410 0.929 . S
S1414 N1415 1.613 . S
S1414 N1416 1.610 . S
N1415 S1414 1.613 . S
N1415 C1418 1.350 . S
N1416 S1414 1.610 . S
N1416 C1417 1.351 . S
C1417 C1411 1.428 . S
C1417 N1416 1.351 . S
C1417 C1418 1.434 . S
C1418 C1409 1.429 . S
C1418 N1415 1.350 . S
C1418 C1417 1.434 . S
C1419 C1420 1.369 1_455 S
C1419 C1421 1.419 . S
C1419 H1423 0.930 . S
C1420 C1419 1.369 1_655 S
C1420 C1429 1.429 . S
C1421 C1419 1.419 . S
C1421 C1422 1.363 1_455 S
C1421 H1424 0.929 . S
C1422 C1421 1.363 1_655 S
C1422 C1428 1.428 . S
H1423 C1419 0.930 . S
H1424 C1421 0.929 . S
S1425 N1426 1.613 . S
S1425 N1427 1.610 . S
N1426 S1425 1.613 . S
N1426 C1429 1.350 . S
N1427 S1425 1.610 . S
N1427 C1428 1.351 . S
C1428 C1422 1.428 . S
C1428 N1427 1.351 . S
C1428 C1429 1.434 . S
C1429 C1420 1.429 . S
C1429 N1426 1.350 . S
C1429 C1428 1.434 . S
C1430 C1431 1.369 . S
C1430 C1432 1.419 . S
C1430 H1434 0.930 . S
C1431 C1430 1.369 . S
C1431 C1440 1.429 . S
C1432 C1430 1.419 . S
C1432 C1433 1.363 . S
C1432 H1435 0.929 . S
C1433 C1432 1.363 . S
C1433 C1439 1.428 . S
H1434 C1430 0.930 . S
H1435 C1432 0.929 . S
S1436 N1437 1.613 . S
S1436 N1438 1.610 . S
N1437 S1436 1.613 . S
N1437 C1440 1.350 . S
N1438 S1436 1.610 . S
N1438 C1439 1.351 . S
C1439 C1433 1.428 . S
C1439 N1438 1.351 . S
C1439 C1440 1.434 . S
C1440 C1431 1.429 . S
C1440 N1437 1.350 . S
C1440 C1439 1.434 . S
C1441 C1442 1.369 . S
C1441 C1443 1.419 . S
C1441 H1445 0.930 . S
C1442 C1441 1.369 . S
C1442 C1451 1.429 . S
C1443 C1441 1.419 . S
C1443 C1444 1.363 . S
C1443 H1446 0.929 . S
C1444 C1443 1.363 . S
C1444 C1450 1.428 . S
H1445 C1441 0.930 . S
H1446 C1443 0.929 . S
S1447 N1448 1.613 . S
S1447 N1449 1.610 . S
N1448 S1447 1.613 . S
N1448 C1451 1.350 . S
N1449 S1447 1.610 . S
N1449 C1450 1.351 . S
C1450 C1444 1.428 . S
C1450 N1449 1.351 . S
C1450 C1451 1.434 . S
C1451 C1442 1.429 . S
C1451 N1448 1.350 . S
C1451 C1450 1.434 . S
C1452 C1453 1.369 . S
C1452 C1454 1.419 . S
C1452 H1456 0.930 . S
C1453 C1452 1.369 . S
C1453 C1462 1.429 . S
C1454 C1452 1.419 . S
C1454 C1455 1.363 . S
C1454 H1457 0.929 . S
C1455 C1454 1.363 . S
C1455 C1461 1.428 . S
H1456 C1452 0.930 . S
H1457 C1454 0.929 . S
S1458 N1459 1.613 . S
S1458 N1460 1.610 . S
N1459 S1458 1.613 . S
N1459 C1462 1.350 . S
N1460 S1458 1.610 . S
N1460 C1461 1.351 . S
C1461 C1455 1.428 . S
C1461 N1460 1.351 . S
C1461 C1462 1.434 . S
C1462 C1453 1.429 . S
C1462 N1459 1.350 . S
C1462 C1461 1.434 . S
C1463 C1464 1.369 . S
C1463 C1465 1.419 . S
C1463 H1467 0.930 . S
C1464 C1463 1.369 . S
C1464 C1473 1.429 . S
C1465 C1463 1.419 . S
C1465 C1466 1.363 . S
C1465 H1468 0.929 . S
C1466 C1465 1.363 . S
C1466 C1472 1.428 . S
H1467 C1463 0.930 . S
H1468 C1465 0.929 . S
S1469 N1470 1.613 . S
S1469 N1471 1.610 . S
N1470 S1469 1.613 . S
N1470 C1473 1.350 . S
N1471 S1469 1.610 . S
N1471 C1472 1.351 . S
C1472 C1466 1.428 . S
C1472 N1471 1.351 . S
C1472 C1473 1.434 . S
C1473 C1464 1.429 . S
C1473 N1470 1.350 . S
C1473 C1472 1.434 . S
C1474 C1475 1.369 . S
C1474 C1476 1.419 . S
C1474 H1478 0.930 . S
C1475 C1474 1.369 . S
C1475 C1484 1.429 . S
C1476 C1474 1.419 . S
C1476 C1477 1.363 . S
C1476 H1479 0.929 . S
C1477 C1476 1.363 . S
C1477 C1483 1.428 . S
H1478 C1474 0.930 . S
H1479 C1476 0.929 . S
S1480 N1481 1.613 . S
S1480 N1482 1.610 . S
N1481 S1480 1.613 . S
N1481 C1484 1.350 . S
N1482 S1480 1.610 . S
N1482 C1483 1.351 . S
C1483 C1477 1.428 . S
C1483 N1482 1.351 . S
C1483 C1484 1.434 . S
C1484 C1475 1.429 . S
C1484 N1481 1.350 . S
C1484 C1483 1.434 . S
C1485 C1486 1.369 . S
C1485 C1487 1.419 . S
C1485 H1489 0.930 . S
C1486 C1485 1.369 . S
C1486 C1495 1.429 . S
C1487 C1485 1.419 . S
C1487 C1488 1.363 . S
C1487 H1490 0.929 . S
C1488 C1487 1.363 . S
C1488 C1494 1.428 . S
H1489 C1485 0.930 . S
H1490 C1487 0.929 . S
S1491 N1492 1.613 . S
S1491 N1493 1.610 . S
N1492 S1491 1.613 . S
N1492 C1495 1.350 . S
N1493 S1491 1.610 . S
N1493 C1494 1.351 . S
C1494 C1488 1.428 . S
C1494 N1493 1.351 . S
C1494 C1495 1.434 . S
C1495 C1486 1.429 . S
C1495 N1492 1.350 . S
C1495 C1494 1.434 . S
C1496 C1497 1.369 . S
C1496 C1498 1.419 . S
C1496 H1500 0.930 . S
C1497 C1496 1.369 . S
C1497 C1506 1.429 . S
C1498 C1496 1.419 . S
C1498 C1499 1.363 . S
C1498 H1501 0.929 . S
C1499 C1498 1.363 . S
C1499 C1505 1.428 . S
H1500 C1496 0.930 . S
H1501 C1498 0.929 . S
S1502 N1503 1.613 . S
S1502 N1504 1.610 . S
N1503 S1502 1.613 . S
N1503 C1506 1.350 . S
N1504 S1502 1.610 . S
N1504 C1505 1.351 . S
C1505 C1499 1.428 . S
C1505 N1504 1.351 . S
C1505 C1506 1.434 . S
C1506 C1497 1.429 . S
C1506 N1503 1.350 . S
C1506 C1505 1.434 . S
C1507 C1508 1.369 . S
C1507 C1509 1.419 . S
C1507 H1511 0.930 . S
C1508 C1507 1.369 . S
C1508 C1517 1.429 . S
C1509 C1507 1.419 . S
C1509 C1510 1.363 . S
C1509 H1512 0.929 . S
C1510 C1509 1.363 . S
C1510 C1516 1.428 . S
H1511 C1507 0.930 . S
H1512 C1509 0.929 . S
S1513 N1514 1.613 . S
S1513 N1515 1.610 . S
N1514 S1513 1.613 . S
N1514 C1517 1.350 . S
N1515 S1513 1.610 . S
N1515 C1516 1.351 . S
C1516 C1510 1.428 . S
C1516 N1515 1.351 . S
C1516 C1517 1.434 . S
C1517 C1508 1.429 . S
C1517 N1514 1.350 . S
C1517 C1516 1.434 . S
C1518 C1519 1.369 . S
C1518 C1520 1.419 . S
C1518 H1522 0.930 . S
C1519 C1518 1.369 . S
C1519 C1528 1.429 . S
C1520 C1518 1.419 . S
C1520 C1521 1.363 . S
C1520 H1523 0.929 . S
C1521 C1520 1.363 . S
C1521 C1527 1.428 . S
H1522 C1518 0.930 . S
H1523 C1520 0.929 . S
S1524 N1525 1.613 . S
S1524 N1526 1.610 . S
N1525 S1524 1.613 . S
N1525 C1528 1.350 . S
N1526 S1524 1.610 . S
N1526 C1527 1.351 . S
C1527 C1521 1.428 . S
C1527 N1526 1.351 . S
C1527 C1528 1.434 . S
C1528 C1519 1.429 . S
C1528 N1525 1.350 . S
C1528 C1527 1.434 . S
C1529 C1530 1.369 . S
C1529 C1531 1.419 . S
C1529 H1533 0.930 . S
C1530 C1529 1.369 . S
C1530 C1539 1.429 . S
C1531 C1529 1.419 . S
C1531 C1532 1.363 . S
C1531 H1534 0.929 . S
C1532 C1531 1.363 . S
C1532 C1538 1.428 . S
H1533 C1529 0.930 . S
H1534 C1531 0.929 . S
S1535 N1536 1.613 . S
S1535 N1537 1.610 . S
N1536 S1535 1.613 . S
N1536 C1539 1.350 . S
N1537 S1535 1.610 . S
N1537 C1538 1.351 . S
C1538 C1532 1.428 . S
C1538 N1537 1.351 . S
C1538 C1539 1.434 . S
C1539 C1530 1.429 . S
C1539 N1536 1.350 . S
C1539 C1538 1.434 . S
C1540 C1541 1.369 . S
C1540 C1542 1.419 . S
C1540 H1544 0.930 . S
C1541 C1540 1.369 . S
C1541 C1550 1.429 . S
C1542 C1540 1.419 . S
C1542 C1543 1.363 . S
C1542 H1545 0.938 . S
C1543 C1542 1.363 . S
C1543 C1549 1.428 . S
H1544 C1540 0.930 . S
H1545 C1542 0.938 . S
S1546 N1547 1.613 . S
S1546 N1548 1.610 . S
N1547 S1546 1.613 . S
N1547 C1550 1.350 . S
N1548 S1546 1.610 . S
N1548 C1549 1.351 . S
C1549 C1543 1.428 . S
C1549 N1548 1.351 . S
C1549 C1550 1.434 . S
C1550 C1541 1.429 . S
C1550 N1547 1.350 . S
C1550 C1549 1.434 . S
C1551 C1552 1.369 . S
C1551 C1553 1.419 . S
C1551 H1555 0.930 . S
C1552 C1551 1.369 . S
C1552 C1561 1.429 . S
C1553 C1551 1.419 . S
C1553 C1554 1.363 . S
C1553 H1556 0.929 . S
C1554 C1553 1.363 . S
C1554 C1560 1.428 . S
H1555 C1551 0.930 . S
H1556 C1553 0.929 . S
S1557 N1558 1.613 . S
S1557 N1559 1.610 . S
N1558 S1557 1.613 . S
N1558 C1561 1.350 . S
N1559 S1557 1.610 . S
N1559 C1560 1.351 . S
C1560 C1554 1.428 . S
C1560 N1559 1.351 . S
C1560 C1561 1.434 . S
C1561 C1552 1.429 . S
C1561 N1558 1.350 . S
C1561 C1560 1.434 . S
C1562 C1563 1.369 . S
C1562 C1564 1.419 1_554 S
C1562 H1566 0.930 1_554 S
C1563 C1562 1.369 . S
C1563 C1572 1.429 . S
C1564 C1562 1.419 1_556 S
C1564 C1565 1.363 1_556 S
C1564 H1567 0.929 . S
C1565 C1564 1.363 1_554 S
C1565 C1571 1.428 . S
H1566 C1562 0.930 1_556 S
H1567 C1564 0.929 . S
S1568 N1569 1.613 . S
S1568 N1570 1.610 . S
N1569 S1568 1.613 . S
N1569 C1572 1.350 . S
N1570 S1568 1.610 . S
N1570 C1571 1.351 . S
C1571 C1565 1.428 . S
C1571 N1570 1.351 . S
C1571 C1572 1.434 . S
C1572 C1563 1.429 . S
C1572 N1569 1.350 . S
C1572 C1571 1.434 . S
C1573 C1574 1.369 . S
C1573 C1575 1.419 . S
C1573 H1577 0.930 1_554 S
C1574 C1573 1.369 . S
C1574 C1583 1.429 . S
C1575 C1573 1.419 . S
C1575 C1576 1.363 . S
C1575 H1578 0.929 1_554 S
C1576 C1575 1.363 . S
C1576 C1582 1.428 . S
H1577 C1573 0.930 1_556 S
H1578 C1575 0.929 1_556 S
S1579 N1580 1.613 . S
S1579 N1581 1.610 . S
N1580 S1579 1.613 . S
N1580 C1583 1.350 . S
N1581 S1579 1.610 . S
N1581 C1582 1.351 . S
C1582 C1576 1.428 . S
C1582 N1581 1.351 . S
C1582 C1583 1.434 . S
C1583 C1574 1.429 . S
C1583 N1580 1.350 . S
C1583 C1582 1.434 . S
C1059 C626 1.477 . S
C1057 C211 1.481 . S
C1070 C674 1.597 . S
C1068 C255 1.643 . S
C1079 C274 1.467 . S
C1081 C710 1.403 . S
C1092 C746 1.562 1_545 S
C1090 C157 1.607 . S
C1103 C772 1.514 . S
C1101 C391 1.518 . S
C1114 C808 1.567 . S
C1112 C484 1.572 . S
C1123 C450 1.517 . S
C1125 C843 1.537 . S
C1136 C880 1.588 1_565 S
C1134 C352 1.593 . S
C1145 C430 1.479 . S
C1147 C914 1.464 . S
C1158 C962 1.548 . S
C1156 C367 1.594 . S
C1167 C411 1.501 . S
C1169 C915 1.524 . S
C1180 C952 1.594 . S
C1178 C469 1.599 . S
C1189 C294 1.500 . S
C1191 C998 1.432 . S
C1200 C177 1.607 . S
C1202 C987 1.599 . S
C1211 C196 1.525 . S
C1213 C988 1.524 . S
C1222 C235 1.625 . S
C1224 C986 1.620 1_655 S
C1233 C133 1.508 . S
C1235 C734 1.491 . S
C1244 C567 1.481 . S
C1246 C735 1.494 . S
C1257 C638 1.577 . S
C1255 C601 1.624 . S
C1268 C663 1.501 . S
C1266 C328 1.493 . S
C1277 C172 1.607 . S
C1279 C770 1.604 . S
C1290 C878 1.505 . S
C1288 C445 1.517 . S
C1301 C771 1.583 . S
C1299 C372 1.590 . S
C1312 C844 1.589 . S
C1310 C489 1.594 . S
C1323 C842 1.472 . S
C1321 C562 1.487 . S
C1332 C606 1.645 . S
C1334 C890 1.603 . S
C1343 C313 1.463 . S
C1345 C782 1.407 . S
C1356 C818 1.562 . S
C1354 C508 1.607 . S
C1365 C118 1.516 . S
C1367 C700 1.515 . S
C1378 C736 1.568 . S
C1376 C16 1.571 . S
C1389 C627 1.537 . S
C1387 C60 1.515 . S
C1400 C664 1.592 . S
C1398 C79 1.592 . S
C1409 C40 1.475 . S
C1411 C950 1.467 . S
C1420 C94 1.593 . S
C1422 C926 1.547 . S
C1431 C138 1.501 . S
C1433 C951 1.523 . S
C1442 C1 1.599 . S
C1444 C916 1.594 . S
C1455 C1034 1.438 . S
C1453 C333 1.500 . S
C1466 C1023 1.600 . S
C1464 C528 1.606 . S
C1477 C1024 1.522 . S
C1475 C547 1.528 . S
C1486 C586 1.626 . S
C1488 C1022 1.619 . S
C1497 C406 1.508 . S
C1499 C806 1.491 . S
C1510 C807 1.496 . S
C1508 C216 1.477 . S
C1521 C854 1.576 . S
C1519 C250 1.623 . S
C1532 C879 1.501 . S
C1530 C289 1.497 . S
C1541 C523 1.608 . S
C1543 C698 1.609 . S
C1554 C662 1.504 . S
C1552 C55 1.523 . S
C1563 C99 1.589 . S
C1565 C699 1.583 . S
C1576 C628 1.590 . S
C1574 C21 1.594 . S
